# Generated by pormake.
# Topology gsi, (4)-cn, num edge types: 1
# Building blocks:
#     Node 0, Type 0, BuildingBlock: UXUYUI_clean_sbu_0, # of connection points: 4
#     Node 1, Type 0, BuildingBlock: UXUYUI_clean_sbu_0, # of connection points: 4
#     Node 2, Type 0, BuildingBlock: UXUYUI_clean_sbu_0, # of connection points: 4
#     Node 3, Type 0, BuildingBlock: UXUYUI_clean_sbu_0, # of connection points: 4
#     Node 4, Type 0, BuildingBlock: UXUYUI_clean_sbu_0, # of connection points: 4
#     Node 5, Type 0, BuildingBlock: UXUYUI_clean_sbu_0, # of connection points: 4
#     Node 6, Type 0, BuildingBlock: UXUYUI_clean_sbu_0, # of connection points: 4
#     Node 7, Type 0, BuildingBlock: UXUYUI_clean_sbu_0, # of connection points: 4
#     Node 8, Type 0, BuildingBlock: UXUYUI_clean_sbu_0, # of connection points: 4
#     Node 9, Type 0, BuildingBlock: UXUYUI_clean_sbu_0, # of connection points: 4
#     Node 10, Type 0, BuildingBlock: UXUYUI_clean_sbu_0, # of connection points: 4
#     Node 11, Type 0, BuildingBlock: UXUYUI_clean_sbu_0, # of connection points: 4
#     Node 12, Type 0, BuildingBlock: UXUYUI_clean_sbu_0, # of connection points: 4
#     Node 13, Type 0, BuildingBlock: UXUYUI_clean_sbu_0, # of connection points: 4
#     Node 14, Type 0, BuildingBlock: UXUYUI_clean_sbu_0, # of connection points: 4
#     Node 15, Type 0, BuildingBlock: UXUYUI_clean_sbu_0, # of connection points: 4
#     Edge 16, Type (0, 0), None
#     Edge 17, Type (0, 0), None
#     Edge 18, Type (0, 0), None
#     Edge 19, Type (0, 0), None
#     Edge 20, Type (0, 0), None
#     Edge 21, Type (0, 0), None
#     Edge 22, Type (0, 0), None
#     Edge 23, Type (0, 0), None
#     Edge 24, Type (0, 0), None
#     Edge 25, Type (0, 0), None
#     Edge 26, Type (0, 0), None
#     Edge 27, Type (0, 0), None
#     Edge 28, Type (0, 0), None
#     Edge 29, Type (0, 0), None
#     Edge 30, Type (0, 0), None
#     Edge 31, Type (0, 0), None
#     Edge 32, Type (0, 0), None
#     Edge 33, Type (0, 0), None
#     Edge 34, Type (0, 0), None
#     Edge 35, Type (0, 0), None
#     Edge 36, Type (0, 0), None
#     Edge 37, Type (0, 0), None
#     Edge 38, Type (0, 0), None
#     Edge 39, Type (0, 0), None
#     Edge 40, Type (0, 0), None
#     Edge 41, Type (0, 0), None
#     Edge 42, Type (0, 0), None
#     Edge 43, Type (0, 0), None
#     Edge 44, Type (0, 0), None
#     Edge 45, Type (0, 0), None
#     Edge 46, Type (0, 0), None
#     Edge 47, Type (0, 0), None
# Relax obj value: 0.073
# Max RMSD: 0.058
# Mean RMSD: 0.058
data_MOF--net-gsi--node1-UXUYUI_clean_sbu_0--edge1-none
_symmetry_space_group_name_H-M    P1
_symmetry_Int_Tables_number       1
_symmetry_cell_setting            triclinic
loop_
_symmetry_equiv_pos_as_xyz
'x, y, z'
_cell_length_a     38.729702
_cell_length_b     38.526686
_cell_length_c     38.661793
_cell_angle_alpha  89.999906
_cell_angle_beta   89.99988
_cell_angle_gamma 89.926943
loop_
_atom_site_label
_atom_site_type_symbol
_atom_site_fract_x
_atom_site_fract_y
_atom_site_fract_z
_atom_type_partial_charge
Li0 Li 0.13038 0.18501 0.15766 0.0
Li1 Li 0.18392 0.18579 0.18754 0.0
Li2 Li 0.18241 0.15719 0.13267 0.0
Li3 Li 0.15433 0.13057 0.18548 0.0
C4 C 0.16943 0.22392 0.11165 0.0
N5 N 0.16024 0.25763 0.04923 0.0
C6 C 0.18556 0.25577 0.10554 0.0
C7 C 0.1487 0.20916 0.08596 0.0
C8 C 0.18056 0.27243 0.07383 0.0
C9 C 0.14436 0.22663 0.0546 0.0
C10 C 0.12354 0.1996 0.22716 0.0
C11 C 0.0856 0.21698 0.27349 0.0
N12 N 0.09214 0.25085 0.26606 0.0
C13 C 0.12992 0.23458 0.21999 0.0
C14 C 0.10122 0.19069 0.25411 0.0
C15 C 0.11379 0.2601 0.23994 0.0
C16 C 0.05759 0.19922 0.15811 0.0
N17 N 0.08909 0.21289 0.15082 0.0
C18 C 0.06359 0.26884 0.14112 0.0
C19 C 0.09244 0.24714 0.14275 0.0
C20 C 0.03066 0.25577 0.14899 0.0
C21 C 0.028 0.22024 0.15753 0.0
H22 H 0.05558 0.17223 0.16555 0.0
H23 H 0.11762 0.25823 0.13868 0.0
C24 C 0.23774 0.23246 0.20029 0.0
N25 N 0.2125 0.21365 0.21588 0.0
C26 C 0.2591 0.25388 0.21996 0.0
C27 C 0.22775 0.23631 0.2712 0.0
C28 C 0.20745 0.21474 0.25065 0.0
C29 C 0.25379 0.25624 0.25576 0.0
H30 H 0.24118 0.2308 0.17257 0.0
H31 H 0.18759 0.19897 0.2624 0.0
C32 C 0.12802 0.10915 0.11676 0.0
N33 N 0.11575 0.05231 0.075 0.0
C34 C 0.14596 0.07816 0.12229 0.0
C35 C 0.10379 0.11125 0.09007 0.0
C36 C 0.13938 0.04969 0.1009 0.0
C37 C 0.098 0.08224 0.06918 0.0
C38 C 0.23343 0.14078 0.19424 0.0
C39 C 0.26457 0.14973 0.17833 0.0
C40 C 0.2327 0.13423 0.2298 0.0
C41 C 0.29448 0.15229 0.19836 0.0
C42 C 0.26317 0.13706 0.24893 0.0
N43 N 0.29316 0.14599 0.23295 0.0
C44 C 0.23444 0.17568 0.08713 0.0
C45 C 0.20776 0.12352 0.06891 0.0
C46 C 0.25622 0.17536 0.05841 0.0
N47 N 0.21038 0.15037 0.09169 0.0
C48 C 0.22971 0.12175 0.04007 0.0
C49 C 0.25398 0.14819 0.03445 0.0
H50 H 0.2367 0.19635 0.1059 0.0
H51 H 0.1887 0.10356 0.07279 0.0
C52 C 0.11733 0.08283 0.23021 0.0
N53 N 0.14668 0.08861 0.21169 0.0
C54 C 0.11508 0.05417 0.25258 0.0
C55 C 0.17294 0.03785 0.23589 0.0
C56 C 0.17396 0.06645 0.21378 0.0
C57 C 0.14351 0.03169 0.25621 0.0
H58 H 0.09612 0.10104 0.22847 0.0
H59 H 0.19707 0.07154 0.19895 0.0
O60 O 0.17454 0.20725 0.1425 0.0
O61 O 0.13859 0.17411 0.20765 0.0
O62 O 0.13365 0.13722 0.13763 0.0
O63 O 0.20366 0.13914 0.17527 0.0
H64 H 0.20179 0.26746 0.12513 0.0
H65 H 0.1361 0.18454 0.0901 0.0
H66 H 0.19287 0.2971 0.06877 0.0
H67 H 0.12838 0.21552 0.03451 0.0
H68 H 0.06824 0.21046 0.29442 0.0
H69 H 0.14706 0.24197 0.19917 0.0
H70 H 0.09597 0.16372 0.25992 0.0
H71 H 0.11844 0.28727 0.23463 0.0
H72 H 0.06733 0.29574 0.13403 0.0
H73 H 1.00354 0.20882 0.16474 0.0
H74 H 0.27899 0.269 0.2073 0.0
H75 H 0.22333 0.23726 0.29885 0.0
H76 H 0.16521 0.0763 0.1424 0.0
H77 H 0.08958 0.13505 0.08557 0.0
H78 H 0.15321 0.02559 0.10477 0.0
H79 H 0.07935 0.0835 0.04839 0.0
H80 H 0.26561 0.15484 0.15086 0.0
H81 H 0.20873 0.12767 0.2426 0.0
H82 H 0.31873 0.15936 0.18641 0.0
H83 H 0.26293 0.13235 0.27651 0.0
H84 H 0.27481 0.19607 0.05503 0.0
H85 H 0.22719 0.10047 0.02195 0.0
H86 H 0.09194 0.05044 0.26786 0.0
H87 H 0.19524 0.02092 0.2374 0.0
Li88 Li 0.84638 0.34918 0.18759 0.0
Li89 Li 0.89993 0.34994 0.15774 0.0
Li90 Li 0.87598 0.4044 0.18552 0.0
Li91 Li 0.84791 0.37775 0.13271 0.0
C92 C 0.90674 0.33538 0.22725 0.0
N93 N 0.93812 0.28416 0.2662 0.0
C94 C 0.90036 0.3004 0.22011 0.0
C95 C 0.92906 0.34432 0.25419 0.0
C96 C 0.91648 0.27489 0.24009 0.0
C97 C 0.94466 0.31804 0.27361 0.0
C98 C 0.86091 0.31101 0.11172 0.0
C99 C 0.88603 0.30828 0.05469 0.0
N100 N 0.87016 0.27727 0.04933 0.0
C101 C 0.8448 0.27915 0.10562 0.0
C102 C 0.88165 0.32576 0.08604 0.0
C103 C 0.84983 0.26248 0.07392 0.0
C104 C 0.79255 0.30251 0.20033 0.0
N105 N 0.81778 0.32133 0.21592 0.0
C106 C 0.80251 0.29869 0.27124 0.0
C107 C 0.82281 0.32026 0.2507 0.0
C108 C 0.77648 0.27874 0.25579 0.0
C109 C 0.77119 0.28109 0.21999 0.0
H110 H 0.78913 0.30415 0.17261 0.0
H111 H 0.84266 0.33603 0.26245 0.0
C112 C 0.97273 0.33573 0.15808 0.0
N113 N 0.94121 0.32205 0.1509 0.0
C114 C 1.00232 0.31471 0.15746 0.0
C115 C 0.96669 0.26607 0.14126 0.0
C116 C 0.93784 0.28778 0.14292 0.0
C117 C 0.99963 0.27916 0.14901 0.0
H118 H 0.97476 0.36275 0.16544 0.0
H119 H 0.91265 0.27668 0.13893 0.0
C120 C 0.79686 0.39418 0.19423 0.0
N121 N 0.73709 0.38898 0.23288 0.0
C122 C 0.76574 0.38523 0.17829 0.0
C123 C 0.79755 0.40075 0.22979 0.0
C124 C 0.73581 0.38267 0.19829 0.0
C125 C 0.76706 0.39792 0.24889 0.0
C126 C 0.90232 0.42579 0.11681 0.0
C127 C 0.88439 0.45679 0.12233 0.0
C128 C 0.92656 0.42367 0.09013 0.0
C129 C 0.89098 0.48524 0.10093 0.0
C130 C 0.93237 0.45268 0.06924 0.0
N131 N 0.91462 0.48261 0.07504 0.0
C132 C 0.91297 0.45214 0.23024 0.0
C133 C 0.85634 0.46852 0.21381 0.0
C134 C 0.91523 0.48081 0.2526 0.0
N135 N 0.88362 0.44636 0.21172 0.0
C136 C 0.85737 0.49713 0.23591 0.0
C137 C 0.88679 0.50329 0.25623 0.0
H138 H 0.93419 0.43394 0.2285 0.0
H139 H 0.83323 0.46343 0.19898 0.0
C140 C 0.79592 0.35924 0.08713 0.0
N141 N 0.81997 0.38456 0.09172 0.0
C142 C 0.77415 0.35957 0.0584 0.0
C143 C 0.80063 0.41321 0.04012 0.0
C144 C 0.82257 0.41144 0.06895 0.0
C145 C 0.77638 0.38676 0.03446 0.0
H146 H 0.79367 0.33856 0.10588 0.0
H147 H 0.84161 0.43142 0.07286 0.0
O148 O 0.8917 0.36086 0.20772 0.0
O149 O 0.85578 0.3277 0.14256 0.0
O150 O 0.82665 0.39583 0.17529 0.0
O151 O 0.89667 0.39772 0.13768 0.0
H152 H 0.88321 0.29299 0.19929 0.0
H153 H 0.93431 0.37129 0.25998 0.0
H154 H 0.91182 0.24773 0.2348 0.0
H155 H 0.96202 0.32457 0.29454 0.0
H156 H 0.90202 0.31939 0.03461 0.0
H157 H 0.82856 0.26746 0.1252 0.0
H158 H 0.89425 0.35039 0.09018 0.0
H159 H 0.83754 0.2378 0.06886 0.0
H160 H 0.80691 0.29775 0.2989 0.0
H161 H 0.75131 0.26595 0.20732 0.0
H162 H 0.0268 0.32615 0.16458 0.0
H163 H 0.96292 0.23916 0.13424 0.0
H164 H 0.76473 0.3801 0.15082 0.0
H165 H 0.82151 0.40732 0.24261 0.0
H166 H 0.71157 0.37559 0.18633 0.0
H167 H 0.76727 0.40265 0.27647 0.0
H168 H 0.86513 0.45866 0.14243 0.0
H169 H 0.94076 0.39987 0.08564 0.0
H170 H 0.87717 0.50936 0.10479 0.0
H171 H 0.95102 0.45141 0.04845 0.0
H172 H 0.93836 0.48455 0.26787 0.0
H173 H 0.83506 0.51405 0.23743 0.0
H174 H 0.75558 0.33884 0.055 0.0
H175 H 0.80313 0.43451 0.02201 0.0
Li176 Li 0.15498 0.90353 0.35198 0.0
Li177 Li 0.18297 0.87631 0.40468 0.0
Li178 Li 0.18446 0.84826 0.34966 0.0
Li179 Li 0.13093 0.84887 0.37928 0.0
C180 C 0.23453 0.8926 0.34409 0.0
N181 N 0.2951 0.88638 0.30683 0.0
C182 C 0.26457 0.88064 0.36021 0.0
C183 C 0.23534 0.90161 0.30907 0.0
C184 C 0.29492 0.87762 0.34091 0.0
C185 C 0.26621 0.89824 0.29067 0.0
C186 C 0.1279 0.92412 0.4209 0.0
C187 C 0.0971 0.94972 0.46875 0.0
N188 N 0.11402 0.98015 0.46329 0.0
C189 C 0.14491 0.95564 0.4157 0.0
C190 C 0.1037 0.92111 0.44753 0.0
C191 C 0.13756 0.98368 0.43742 0.0
C192 C 0.11793 0.9511 0.30723 0.0
N193 N 0.14714 0.94564 0.32609 0.0
C194 C 0.17282 0.99692 0.30252 0.0
C195 C 0.17405 0.96822 0.3245 0.0
C196 C 0.14356 1.00274 0.28182 0.0
C197 C 0.11547 0.97984 0.28498 0.0
H198 H 0.09702 0.93256 0.30858 0.0
H199 H 0.19706 0.96334 0.33958 0.0
C200 C 0.23368 0.85701 0.45196 0.0
N201 N 0.21083 0.88318 0.44582 0.0
C202 C 0.25528 0.85784 0.48081 0.0
C203 C 0.2313 0.91368 0.4959 0.0
C204 C 0.20946 0.9114 0.46702 0.0
C205 C 0.25423 0.88639 0.50319 0.0
H206 H 0.23528 0.83535 0.43427 0.0
H207 H 0.1916 0.93219 0.46173 0.0
C208 C 0.12498 0.83466 0.3095 0.0
N209 N 0.09518 0.7833 0.2696 0.0
C210 C 0.13142 0.79971 0.31681 0.0
C211 C 0.10345 0.84349 0.28186 0.0
C212 C 0.11609 0.77413 0.29636 0.0
C213 C 0.08863 0.81714 0.26199 0.0
C214 C 0.16939 0.8095 0.42525 0.0
C215 C 0.18457 0.77709 0.43113 0.0
C216 C 0.14902 0.82467 0.45101 0.0
C217 C 0.17904 0.76035 0.4627 0.0
C218 C 0.14412 0.8071 0.48223 0.0
N219 N 0.15909 0.77557 0.48738 0.0
C220 C 0.23552 0.79849 0.33555 0.0
C221 C 0.20985 0.82367 0.28578 0.0
C222 C 0.25676 0.77781 0.31495 0.0
N223 N 0.21272 0.82075 0.32068 0.0
C224 C 0.23053 0.80349 0.2642 0.0
C225 C 0.25436 0.78017 0.27876 0.0
H226 H 0.23731 0.79703 0.36343 0.0
H227 H 0.19153 0.84175 0.27475 0.0
C228 C 0.0581 0.83534 0.37863 0.0
N229 N 0.08951 0.8213 0.38581 0.0
C230 C 0.02836 0.81462 0.37916 0.0
C231 C 0.0636 0.76558 0.39529 0.0
C232 C 0.09261 0.78699 0.39368 0.0
C233 C 0.03076 0.77903 0.38755 0.0
H234 H 0.05629 0.8624 0.37136 0.0
H235 H 0.11771 0.77561 0.39765 0.0
O236 O 0.20429 0.89474 0.36229 0.0
O237 O 0.13422 0.89649 0.39962 0.0
O238 O 0.13931 0.86022 0.3294 0.0
O239 O 0.17497 0.82621 0.39449 0.0
H240 H 0.26441 0.87351 0.38724 0.0
H241 H 0.21221 0.91044 0.29605 0.0
H242 H 0.31832 0.86822 0.35301 0.0
H243 H 0.26714 0.90484 0.2635 0.0
H244 H 0.07848 0.94776 0.48951 0.0
H245 H 0.16407 0.95824 0.39559 0.0
H246 H 0.0901 0.89693 0.45172 0.0
H247 H 0.1507 1.00817 0.43381 0.0
H248 H 0.19486 1.01416 0.30136 0.0
H249 H 0.09249 0.98329 0.2694 0.0
H250 H 0.27291 0.83648 0.48542 0.0
H251 H 0.2298 0.93611 0.51272 0.0
H252 H 0.14799 0.79237 0.33812 0.0
H253 H 0.0982 0.87044 0.2759 0.0
H254 H 0.12078 0.74698 0.30178 0.0
H255 H 0.07187 0.8236 0.24053 0.0
H256 H 0.20046 0.76502 0.41148 0.0
H257 H 0.13713 0.84969 0.44706 0.0
H258 H 0.19061 0.73526 0.46758 0.0
H259 H 0.12841 0.81855 0.50237 0.0
H260 H 0.27513 0.76052 0.32718 0.0
H261 H 0.22758 0.80582 0.23645 0.0
H262 H 1.00398 0.82634 0.37204 0.0
H263 H 0.06717 0.73862 0.40228 0.0
Li264 Li 0.84735 0.65869 0.40468 0.0
Li265 Li 0.87533 0.63147 0.35198 0.0
Li266 Li 0.89939 0.68613 0.37927 0.0
Li267 Li 0.84585 0.68673 0.34966 0.0
C268 C 0.90244 0.61089 0.42091 0.0
N269 N 0.91634 0.55489 0.46332 0.0
C270 C 0.88545 0.57936 0.41571 0.0
C271 C 0.92662 0.61393 0.44755 0.0
C272 C 0.89281 0.55134 0.43745 0.0
C273 C 0.93323 0.58533 0.46878 0.0
C274 C 0.79578 0.6424 0.34411 0.0
C275 C 0.76408 0.63675 0.29071 0.0
N276 N 0.73519 0.64862 0.30687 0.0
C277 C 0.76575 0.65436 0.36024 0.0
C278 C 0.79496 0.63338 0.30909 0.0
C279 C 0.73539 0.65739 0.34095 0.0
C280 C 0.79666 0.67799 0.45198 0.0
N281 N 0.81949 0.65182 0.44582 0.0
C282 C 0.79901 0.6213 0.49589 0.0
C283 C 0.82085 0.62358 0.46701 0.0
C284 C 0.7761 0.64858 0.5032 0.0
C285 C 0.77506 0.67715 0.48083 0.0
H286 H 0.79506 0.69966 0.43431 0.0
H287 H 0.83869 0.60279 0.4617 0.0
C288 C 0.91238 0.58389 0.30723 0.0
N289 N 0.88317 0.58935 0.32609 0.0
C290 C 0.91483 0.55515 0.28498 0.0
C291 C 0.85749 0.53807 0.30254 0.0
C292 C 0.85626 0.56677 0.32451 0.0
C293 C 0.88674 0.53225 0.28184 0.0
H294 H 0.93329 0.60243 0.30857 0.0
H295 H 0.83326 0.57165 0.3396 0.0
C296 C 0.86093 0.72551 0.42524 0.0
N297 N 0.87124 0.75944 0.48736 0.0
C298 C 0.84576 0.75792 0.43112 0.0
C299 C 0.8813 0.71034 0.45101 0.0
C300 C 0.85129 0.77467 0.46268 0.0
C301 C 0.88621 0.72791 0.48222 0.0
C302 C 0.90533 0.70033 0.30949 0.0
C303 C 0.89889 0.73529 0.3168 0.0
C304 C 0.92685 0.6915 0.28185 0.0
C305 C 0.91421 0.76087 0.29634 0.0
C306 C 0.94168 0.71785 0.26197 0.0
N307 N 0.93511 0.75169 0.26958 0.0
C308 C 0.97222 0.69966 0.37864 0.0
C309 C 0.9377 0.74802 0.39366 0.0
C310 C 1.00195 0.72038 0.37917 0.0
N311 N 0.94081 0.7137 0.3858 0.0
C312 C 0.96671 0.76942 0.39527 0.0
C313 C 0.99955 0.75597 0.38755 0.0
H314 H 0.97404 0.6726 0.37138 0.0
H315 H 0.9126 0.75939 0.39761 0.0
C316 C 0.79479 0.7365 0.33556 0.0
N317 N 0.81759 0.71424 0.32068 0.0
C318 C 0.77355 0.75718 0.31495 0.0
C319 C 0.79977 0.73149 0.2642 0.0
C320 C 0.82045 0.71132 0.28579 0.0
C321 C 0.77594 0.75481 0.27876 0.0
H322 H 0.793 0.73797 0.36344 0.0
H323 H 0.83876 0.69323 0.27475 0.0
O324 O 0.8961 0.63851 0.39961 0.0
O325 O 0.82602 0.64026 0.36229 0.0
O326 O 0.85535 0.70879 0.39449 0.0
O327 O 0.891 0.67477 0.3294 0.0
H328 H 0.8663 0.57673 0.3956 0.0
H329 H 0.9402 0.63812 0.45173 0.0
H330 H 0.87969 0.52683 0.43385 0.0
H331 H 0.95185 0.58732 0.48954 0.0
H332 H 0.76313 0.63014 0.26353 0.0
H333 H 0.76592 0.6615 0.38726 0.0
H334 H 0.81807 0.62454 0.29606 0.0
H335 H 0.712 0.66679 0.35306 0.0
H336 H 0.80051 0.59885 0.5127 0.0
H337 H 0.75744 0.69852 0.48547 0.0
H338 H 0.93781 0.5517 0.2694 0.0
H339 H 0.83545 0.52083 0.30138 0.0
H340 H 0.82986 0.76998 0.41146 0.0
H341 H 0.89318 0.68531 0.44706 0.0
H342 H 0.83972 0.79976 0.46756 0.0
H343 H 0.90191 0.71647 0.50236 0.0
H344 H 0.88232 0.74262 0.33811 0.0
H345 H 0.93211 0.66455 0.27589 0.0
H346 H 0.90951 0.78801 0.30176 0.0
H347 H 0.95843 0.71139 0.24052 0.0
H348 H 0.02634 0.70866 0.37206 0.0
H349 H 0.96314 0.79639 0.40225 0.0
H350 H 0.75518 0.77447 0.32719 0.0
H351 H 0.80271 0.72915 0.23645 0.0
Li352 Li 0.34638 0.84918 0.68757 0.0
Li353 Li 0.39993 0.84994 0.65771 0.0
Li354 Li 0.37598 0.9044 0.6855 0.0
Li355 Li 0.34791 0.87776 0.63269 0.0
C356 C 0.40674 0.83537 0.72722 0.0
N357 N 0.43812 0.78415 0.76616 0.0
C358 C 0.40036 0.80039 0.72007 0.0
C359 C 0.42906 0.84431 0.75416 0.0
C360 C 0.41649 0.77488 0.74004 0.0
C361 C 0.44467 0.81802 0.77357 0.0
C362 C 0.3609 0.81102 0.61169 0.0
C363 C 0.386 0.8083 0.55466 0.0
N364 N 0.37013 0.77729 0.5493 0.0
C365 C 0.34479 0.77916 0.60559 0.0
C366 C 0.38164 0.82577 0.58601 0.0
C367 C 0.3498 0.7625 0.57389 0.0
C368 C 0.29255 0.8025 0.70031 0.0
N369 N 0.31779 0.82133 0.7159 0.0
C370 C 0.30252 0.79868 0.77122 0.0
C371 C 0.32282 0.82025 0.75068 0.0
C372 C 0.27648 0.77873 0.75578 0.0
C373 C 0.27119 0.78108 0.71997 0.0
H374 H 0.28913 0.80415 0.67259 0.0
H375 H 0.34268 0.83602 0.76243 0.0
C376 C 0.47273 0.83573 0.65809 0.0
N377 N 0.44121 0.82205 0.65087 0.0
C378 C 0.50231 0.81471 0.65748 0.0
C379 C 0.46669 0.76609 0.64122 0.0
C380 C 0.43785 0.78779 0.64286 0.0
C381 C 0.49963 0.77917 0.649 0.0
H382 H 0.47475 0.86274 0.66548 0.0
H383 H 0.41266 0.7767 0.63885 0.0
C384 C 0.29686 0.89418 0.69423 0.0
N385 N 0.2371 0.88897 0.73289 0.0
C386 C 0.26574 0.88523 0.67829 0.0
C387 C 0.29756 0.90074 0.72978 0.0
C388 C 0.23581 0.88267 0.6983 0.0
C389 C 0.26708 0.89791 0.74889 0.0
C390 C 0.40231 0.92579 0.6168 0.0
C391 C 0.38438 0.95679 0.62231 0.0
C392 C 0.42654 0.92368 0.5901 0.0
C393 C 0.39097 0.98525 0.60092 0.0
C394 C 0.43235 0.95269 0.56922 0.0
N395 N 0.4146 0.98262 0.57502 0.0
C396 C 0.41297 0.95214 0.73022 0.0
C397 C 0.35634 0.96852 0.7138 0.0
C398 C 0.41523 0.98081 0.75258 0.0
N399 N 0.38362 0.94636 0.71171 0.0
C400 C 0.35737 0.99712 0.73591 0.0
C401 C 0.3868 1.00328 0.75622 0.0
H402 H 0.43419 0.93393 0.72848 0.0
H403 H 0.33323 0.96342 0.69897 0.0
C404 C 0.29591 0.85925 0.58712 0.0
N405 N 0.31996 0.88457 0.5917 0.0
C406 C 0.27413 0.85958 0.55839 0.0
C407 C 0.30062 0.91322 0.5401 0.0
C408 C 0.32256 0.91144 0.56894 0.0
C409 C 0.27637 0.88677 0.53445 0.0
H410 H 0.29365 0.83857 0.60587 0.0
H411 H 0.3416 0.93142 0.57284 0.0
O412 O 0.3917 0.86086 0.7077 0.0
O413 O 0.35577 0.8277 0.64254 0.0
O414 O 0.32665 0.89583 0.67528 0.0
O415 O 0.39666 0.89773 0.63766 0.0
H416 H 0.38322 0.79299 0.69925 0.0
H417 H 0.43432 0.87128 0.75996 0.0
H418 H 0.41183 0.74772 0.73475 0.0
H419 H 0.46203 0.82455 0.7945 0.0
H420 H 0.40199 0.8194 0.53458 0.0
H421 H 0.32855 0.76747 0.62517 0.0
H422 H 0.39423 0.8504 0.59015 0.0
H423 H 0.33751 0.73782 0.56883 0.0
H424 H 0.30692 0.79774 0.79888 0.0
H425 H 0.25131 0.76595 0.70731 0.0
H426 H 0.52679 0.82614 0.66463 0.0
H427 H 0.46293 0.73917 0.63418 0.0
H428 H 0.26472 0.8801 0.65082 0.0
H429 H 0.32152 0.90731 0.7426 0.0
H430 H 0.21157 0.87559 0.68634 0.0
H431 H 0.26729 0.90263 0.77647 0.0
H432 H 0.36513 0.95866 0.64242 0.0
H433 H 0.44074 0.89988 0.58561 0.0
H434 H 0.37715 1.00936 0.60478 0.0
H435 H 0.451 0.95142 0.54842 0.0
H436 H 0.43837 0.98454 0.76786 0.0
H437 H 0.33506 1.01404 0.73742 0.0
H438 H 0.25556 0.83886 0.555 0.0
H439 H 0.30313 0.93452 0.52199 0.0
Li440 Li 0.84853 0.87605 0.90411 0.0
Li441 Li 0.87153 0.9045 0.85353 0.0
Li442 Li 0.84207 0.84994 0.84803 0.0
Li443 Li 0.90189 0.8515 0.87302 0.0
C444 C 0.79726 0.91281 0.87994 0.0
N445 N 0.74667 0.95008 0.9142 0.0
C446 C 0.80063 0.94868 0.88428 0.0
C447 C 0.76817 0.89591 0.89318 0.0
C448 C 0.77473 0.96706 0.90157 0.0
C449 C 0.74291 0.9152 0.91042 0.0
C450 C 0.91653 0.92525 0.90192 0.0
C451 C 0.97242 0.95261 0.89915 0.0
N452 N 0.95772 0.98336 0.90832 0.0
C453 C 0.90199 0.95703 0.91152 0.0
C454 C 0.95202 0.92291 0.89578 0.0
C455 C 0.92324 0.98615 0.9145 0.0
C456 C 0.81343 0.84994 0.96228 0.0
N457 N 0.82553 0.88001 0.94854 0.0
C458 C 0.79687 0.91273 0.9929 0.0
C459 C 0.81843 0.91109 0.96377 0.0
C460 C 0.78267 0.88206 1.00667 0.0
C461 C 0.79176 0.85035 0.9911 0.0
H462 H 0.81981 0.8255 0.95032 0.0
H463 H 0.82847 0.93474 0.95267 0.0
C464 C 0.84807 0.95457 0.80741 0.0
N465 N 0.87664 0.94675 0.82634 0.0
C466 C 0.84816 0.98233 0.78425 0.0
C467 C 0.90755 0.99346 0.79935 0.0
C468 C 0.90631 0.9653 0.82236 0.0
C469 C 0.87809 1.00243 0.78 0.0
H470 H 0.82522 0.93865 0.80975 0.0
H471 H 0.92931 0.95787 0.83624 0.0
C472 C 0.84631 0.79447 0.88591 0.0
N473 N 0.81915 0.7294 0.87296 0.0
C474 C 0.86797 0.7671 0.87625 0.0
C475 C 0.81084 0.7886 0.88934 0.0
C476 C 0.85375 0.73443 0.86977 0.0
C477 C 0.7976 0.75558 0.88256 0.0
C478 C 0.89998 0.87688 0.79732 0.0
C479 C 0.87923 0.88275 0.76834 0.0
C480 C 0.93476 0.88642 0.79668 0.0
C481 C 0.89364 0.8985 0.73917 0.0
C482 C 0.9482 0.90205 0.76699 0.0
N483 N 0.92752 0.90776 0.73911 0.0
C484 C 0.77938 0.82583 0.81908 0.0
C485 C 0.83045 0.79988 0.79705 0.0
C486 C 0.75903 0.80409 0.79878 0.0
N487 N 0.81432 0.82288 0.81827 0.0
C488 C 0.8111 0.77804 0.77581 0.0
C489 C 0.77496 0.7798 0.77697 0.0
H490 H 0.76733 0.84463 0.83586 0.0
H491 H 0.85834 0.79821 0.79705 0.0
C492 C 0.96261 0.82147 0.90474 0.0
N493 N 0.94357 0.8247 0.87536 0.0
C494 C 0.9912 0.79909 0.90561 0.0
C495 C 0.9798 0.7838 0.84612 0.0
C496 C 0.95174 0.80657 0.84633 0.0
C497 C 1.00008 0.77966 0.87603 0.0
H498 H 0.95537 0.83595 0.92761 0.0
H499 H 0.93574 0.80903 0.82353 0.0
O500 O 0.8225 0.89426 0.8633 0.0
O501 O 0.89628 0.89639 0.89916 0.0
O502 O 0.85966 0.82695 0.8914 0.0
O503 O 0.8861 0.86251 0.82648 0.0
H504 H 0.82315 0.96222 0.87483 0.0
H505 H 0.76544 0.86809 0.89092 0.0
H506 H 0.77707 0.99481 0.90515 0.0
H507 H 0.72043 0.90239 0.92101 0.0
H508 H 0.99991 0.95124 0.89439 0.0
H509 H 0.87459 0.95922 0.91641 0.0
H510 H 0.96366 0.89847 0.88838 0.0
H511 H 0.91233 1.01097 0.92174 0.0
H512 H 0.79122 0.93776 1.00429 0.0
H513 H 0.7814 0.82597 1.00033 0.0
H514 H 0.82508 0.98753 0.7693 0.0
H515 H 0.93127 1.00809 0.7969 0.0
H516 H 0.89546 0.77096 0.87373 0.0
H517 H 0.79356 0.80951 0.89641 0.0
H518 H 0.87024 0.71307 0.86214 0.0
H519 H 0.77016 0.75082 0.88473 0.0
H520 H 0.85221 0.87562 0.76856 0.0
H521 H 0.95106 0.88224 0.81904 0.0
H522 H 0.87785 0.90346 0.71662 0.0
H523 H 0.97503 0.9098 0.76617 0.0
H524 H 0.73116 0.80631 0.79995 0.0
H525 H 0.82414 0.75947 0.75929 0.0
H526 H 1.00622 0.79719 0.92915 0.0
H527 H 0.98497 0.769 0.82289 0.0
Li528 Li 0.1284 0.68346 0.87302 0.0
Li529 Li 0.18822 0.68502 0.84803 0.0
Li530 Li 0.15876 0.63046 0.85352 0.0
Li531 Li 0.18176 0.6589 0.90411 0.0
C532 C 0.13031 0.65808 0.79732 0.0
N533 N 0.10276 0.6272 0.73912 0.0
C534 C 0.15105 0.6522 0.76834 0.0
C535 C 0.09552 0.64853 0.79668 0.0
C536 C 0.13665 0.63646 0.73917 0.0
C537 C 0.08208 0.6329 0.76699 0.0
C538 C 0.18397 0.74048 0.88591 0.0
C539 C 0.23269 0.77938 0.88256 0.0
N540 N 0.21113 0.80556 0.87297 0.0
C541 C 0.16231 0.76786 0.87625 0.0
C542 C 0.21945 0.74636 0.88935 0.0
C543 C 0.17653 0.80053 0.86976 0.0
C544 C 0.06768 0.71348 0.90474 0.0
N545 N 0.08672 0.71025 0.87536 0.0
C546 C 0.05049 0.75115 0.84612 0.0
C547 C 0.07855 0.72838 0.84633 0.0
C548 C 0.03021 0.7553 0.87603 0.0
C549 C 0.03909 0.73586 0.90561 0.0
H550 H 0.07492 0.69901 0.92761 0.0
H551 H 0.09455 0.72592 0.82353 0.0
C552 C 0.2509 0.70914 0.81908 0.0
N553 N 0.21596 0.71208 0.81827 0.0
C554 C 0.27126 0.73088 0.79878 0.0
C555 C 0.21919 0.75692 0.77581 0.0
C556 C 0.19983 0.73508 0.79704 0.0
C557 C 0.25533 0.75517 0.77697 0.0
H558 H 0.26296 0.69034 0.83587 0.0
H559 H 0.17195 0.73675 0.79704 0.0
C560 C 0.11376 0.6097 0.90192 0.0
N561 N 0.07258 0.5516 0.90832 0.0
C562 C 0.1283 0.57793 0.91152 0.0
C563 C 0.07827 0.61204 0.89578 0.0
C564 C 0.10705 0.5488 0.9145 0.0
C565 C 0.05787 0.58234 0.89915 0.0
C566 C 0.23303 0.62215 0.87993 0.0
C567 C 0.22966 0.58627 0.88427 0.0
C568 C 0.26212 0.63905 0.89318 0.0
C569 C 0.25556 0.56789 0.90156 0.0
C570 C 0.28738 0.61976 0.91042 0.0
N571 N 0.28362 0.58488 0.91419 0.0
C572 C 0.18222 0.58039 0.80741 0.0
C573 C 0.12398 0.56965 0.82236 0.0
C574 C 0.18213 0.55263 0.78424 0.0
N575 N 0.15365 0.58821 0.82634 0.0
C576 C 0.12274 0.5415 0.79935 0.0
C577 C 0.1522 0.53253 0.78 0.0
H578 H 0.20507 0.59631 0.80974 0.0
H579 H 0.10099 0.57708 0.83624 0.0
C580 C 0.21686 0.68502 0.96228 0.0
N581 N 0.20476 0.65494 0.94854 0.0
C582 C 0.23852 0.68461 0.99111 0.0
C583 C 0.23342 0.62223 0.9929 0.0
C584 C 0.21186 0.62387 0.96377 0.0
C585 C 0.24761 0.6529 1.00667 0.0
H586 H 0.21047 0.70946 0.95032 0.0
H587 H 0.20182 0.60021 0.95267 0.0
O588 O 0.14419 0.67244 0.82648 0.0
O589 O 0.17063 0.70801 0.8914 0.0
O590 O 0.13401 0.63857 0.89916 0.0
O591 O 0.20779 0.6407 0.8633 0.0
H592 H 0.17808 0.65935 0.76856 0.0
H593 H 0.07923 0.65272 0.81905 0.0
H594 H 0.15243 0.6315 0.71662 0.0
H595 H 0.05526 0.62515 0.76618 0.0
H596 H 0.26012 0.78414 0.88473 0.0
H597 H 0.13483 0.764 0.87372 0.0
H598 H 0.23672 0.72545 0.89641 0.0
H599 H 0.16005 0.82189 0.86213 0.0
H600 H 0.04531 0.76596 0.82289 0.0
H601 H 0.02407 0.73776 0.92915 0.0
H602 H 0.29913 0.72866 0.79996 0.0
H603 H 0.20615 0.77549 0.75929 0.0
H604 H 0.15571 0.57574 0.91641 0.0
H605 H 0.06663 0.63649 0.88838 0.0
H606 H 0.11796 0.52399 0.92174 0.0
H607 H 0.03038 0.58371 0.8944 0.0
H608 H 0.20714 0.57274 0.87482 0.0
H609 H 0.26485 0.66686 0.89092 0.0
H610 H 0.25322 0.54015 0.90514 0.0
H611 H 0.30986 0.63257 0.92101 0.0
H612 H 0.20521 0.54743 0.76929 0.0
H613 H 0.09903 0.52686 0.79691 0.0
H614 H 0.24888 0.70899 1.00033 0.0
H615 H 0.23907 0.5972 1.00429 0.0
Li616 Li 0.84611 0.1898 0.68568 0.0
Li617 Li 0.87243 0.13029 0.68304 0.0
Li618 Li 0.90099 0.18471 0.65605 0.0
Li619 Li 0.84919 0.15953 0.63116 0.0
C620 C 0.8898 0.18881 0.73738 0.0
N621 N 0.88513 0.22019 0.80147 0.0
C622 C 0.88266 0.16895 0.76677 0.0
C623 C 0.89493 0.22457 0.74063 0.0
C624 C 0.88034 0.18532 0.79893 0.0
C625 C 0.89234 0.23997 0.77324 0.0
C626 C 0.79632 0.12857 0.66204 0.0
C627 C 0.7695 0.07853 0.63609 0.0
N628 N 0.73906 0.09613 0.63454 0.0
C629 C 0.76478 0.14612 0.66042 0.0
C630 C 0.79876 0.09447 0.64997 0.0
C631 C 0.73611 0.12927 0.64634 0.0
C632 C 0.81197 0.25148 0.70523 0.0
N633 N 0.81785 0.21785 0.71397 0.0
C634 C 0.78279 0.22345 0.76441 0.0
C635 C 0.80352 0.20346 0.74264 0.0
C636 C 0.77656 0.25844 0.75628 0.0
C637 C 0.79141 0.27242 0.72621 0.0
H638 H 0.82313 0.26202 0.68193 0.0
H639 H 0.80824 0.17642 0.74853 0.0
C640 C 0.90547 0.0689 0.71215 0.0
N641 N 0.8766 0.08899 0.71043 0.0
C642 C 0.90675 0.0404 0.73477 0.0
C643 C 0.84871 0.05401 0.75323 0.0
C644 C 0.84856 0.08204 0.73039 0.0
C645 C 0.87803 0.03262 0.75575 0.0
H646 H 0.92758 0.07516 0.69623 0.0
H647 H 0.82619 0.0988 0.72907 0.0
C648 C 0.86927 0.23627 0.62089 0.0
N649 N 0.89151 0.2916 0.58121 0.0
C650 C 0.86883 0.23407 0.58478 0.0
C651 C 0.88107 0.26663 0.63678 0.0
C652 C 0.88012 0.26234 0.56519 0.0
C653 C 0.89223 0.29429 0.61628 0.0
C654 C 0.90081 0.1185 0.60676 0.0
C655 C 0.90949 0.13635 0.57655 0.0
C656 C 0.8978 0.08236 0.6062 0.0
C657 C 0.9147 0.11768 0.54601 0.0
C658 C 0.90331 0.06463 0.57516 0.0
N659 N 0.91153 0.08251 0.54595 0.0
C660 C 0.96377 0.21386 0.67884 0.0
C661 C 0.95327 0.22459 0.61958 0.0
C662 C 0.99227 0.23605 0.67841 0.0
N663 N 0.94423 0.20931 0.65 0.0
C664 C 0.98114 0.2477 0.61814 0.0
C665 C 1.00076 0.25444 0.64809 0.0
H666 H 0.95673 0.20088 0.70259 0.0
H667 H 0.93801 0.22012 0.59667 0.0
C668 C 0.79634 0.17952 0.58765 0.0
N669 N 0.82008 0.15365 0.59064 0.0
C670 C 0.77211 0.1793 0.56096 0.0
C671 C 0.79649 0.12537 0.54067 0.0
C672 C 0.82013 0.12644 0.56816 0.0
C673 C 0.77213 0.15224 0.53658 0.0
H674 H 0.79602 0.20034 0.60641 0.0
H675 H 0.83816 0.10538 0.57153 0.0
O676 O 0.89126 0.17342 0.70552 0.0
O677 O 0.82492 0.14498 0.67466 0.0
O678 O 0.85812 0.20894 0.64056 0.0
O679 O 0.89596 0.1362 0.63696 0.0
H680 H 0.87873 0.14124 0.76475 0.0
H681 H 0.90045 0.2403 0.71814 0.0
H682 H 0.87464 0.1703 0.82187 0.0
H683 H 0.89597 0.26766 0.77609 0.0
H684 H 0.77102 0.05223 0.62642 0.0
H685 H 0.7626 0.17259 0.66958 0.0
H686 H 0.82311 0.08067 0.65091 0.0
H687 H 0.71156 0.14257 0.64469 0.0
H688 H 0.77136 0.21151 0.78703 0.0
H689 H 0.78745 0.29932 0.71912 0.0
H690 H 0.9298 0.0245 0.7356 0.0
H691 H 0.82621 0.04958 0.76925 0.0
H692 H 0.86031 0.21069 0.57194 0.0
H693 H 0.88204 0.2687 0.66465 0.0
H694 H 0.88001 0.26095 0.53725 0.0
H695 H 0.90158 0.31785 0.62826 0.0
H696 H 0.91198 0.16431 0.57666 0.0
H697 H 0.89122 0.06821 0.62948 0.0
H698 H 0.92126 0.13114 0.52235 0.0
H699 H 0.90099 0.03666 0.57426 0.0
H700 H 1.0072 0.23895 0.70189 0.0
H701 H 0.98632 0.26097 0.59404 0.0
H702 H 0.75336 0.20012 0.55971 0.0
H703 H 0.79768 0.10395 0.52258 0.0
Li704 Li 0.15785 0.40466 0.68304 0.0
Li705 Li 0.18418 0.34515 0.68568 0.0
Li706 Li 0.18109 0.37542 0.63116 0.0
Li707 Li 0.1293 0.35024 0.65606 0.0
C708 C 0.23397 0.40638 0.66203 0.0
N709 N 0.29123 0.43882 0.63453 0.0
C710 C 0.26551 0.38883 0.66041 0.0
C711 C 0.23153 0.44048 0.64996 0.0
C712 C 0.29417 0.40568 0.64633 0.0
C713 C 0.2608 0.45641 0.63608 0.0
C714 C 0.1405 0.34615 0.73739 0.0
C715 C 0.13797 0.29499 0.77325 0.0
N716 N 0.14518 0.31477 0.80148 0.0
C717 C 0.14765 0.36601 0.76677 0.0
C718 C 0.13537 0.31039 0.74064 0.0
C719 C 0.14997 0.34965 0.79894 0.0
C720 C 0.12481 0.46605 0.71215 0.0
N721 N 0.15369 0.44597 0.71043 0.0
C722 C 0.18158 0.48095 0.75322 0.0
C723 C 0.18173 0.45292 0.73038 0.0
C724 C 0.15226 0.50233 0.75574 0.0
C725 C 0.12354 0.49455 0.73478 0.0
H726 H 0.10271 0.45979 0.69624 0.0
H727 H 0.20411 0.43616 0.72907 0.0
C728 C 0.21832 0.28348 0.70523 0.0
N729 N 0.21245 0.3171 0.71397 0.0
C730 C 0.23889 0.26254 0.72621 0.0
C731 C 0.24752 0.31152 0.7644 0.0
C732 C 0.22679 0.33151 0.74263 0.0
C733 C 0.25375 0.27652 0.75627 0.0
H734 H 0.20716 0.27293 0.68194 0.0
H735 H 0.22207 0.35855 0.74852 0.0
C736 C 0.12948 0.41646 0.60677 0.0
N737 N 0.11876 0.45246 0.54596 0.0
C738 C 0.1208 0.39861 0.57655 0.0
C739 C 0.13249 0.4526 0.60621 0.0
C740 C 0.11559 0.41729 0.54601 0.0
C741 C 0.12699 0.47034 0.57517 0.0
C742 C 0.16101 0.29868 0.62089 0.0
C743 C 0.16144 0.30088 0.58479 0.0
C744 C 0.14921 0.26832 0.63679 0.0
C745 C 0.15015 0.27261 0.5652 0.0
C746 C 0.13805 0.24066 0.61629 0.0
N747 N 0.13876 0.24335 0.58123 0.0
C748 C 0.23393 0.35543 0.58764 0.0
C749 C 0.21015 0.40851 0.56816 0.0
C750 C 0.25816 0.35565 0.56095 0.0
N751 N 0.2102 0.3813 0.59064 0.0
C752 C 0.23379 0.40959 0.54067 0.0
C753 C 0.25814 0.38271 0.53657 0.0
H754 H 0.23425 0.3346 0.6064 0.0
H755 H 0.19213 0.42957 0.57153 0.0
C756 C 0.06653 0.32109 0.67885 0.0
N757 N 0.08605 0.32564 0.65 0.0
C758 C 0.03802 0.29889 0.67842 0.0
C759 C 0.04914 0.28726 0.61814 0.0
C760 C 0.07702 0.31037 0.61958 0.0
C761 C 0.02953 0.28051 0.64809 0.0
H762 H 0.07356 0.33405 0.7026 0.0
H763 H 0.09227 0.31485 0.59667 0.0
O764 O 0.20537 0.38997 0.67465 0.0
O765 O 0.13903 0.36153 0.70553 0.0
O766 O 0.13432 0.39875 0.63697 0.0
O767 O 0.17217 0.32601 0.64056 0.0
H768 H 0.26768 0.36236 0.66957 0.0
H769 H 0.20719 0.45429 0.6509 0.0
H770 H 0.31873 0.39236 0.64467 0.0
H771 H 0.25928 0.48272 0.62641 0.0
H772 H 0.13434 0.2673 0.7761 0.0
H773 H 0.15157 0.39371 0.76475 0.0
H774 H 0.12985 0.29465 0.71815 0.0
H775 H 0.15567 0.36467 0.82187 0.0
H776 H 0.20408 0.48538 0.76924 0.0
H777 H 0.10049 0.51045 0.7356 0.0
H778 H 0.24285 0.23563 0.71912 0.0
H779 H 0.25896 0.32346 0.78701 0.0
H780 H 0.1183 0.37065 0.57666 0.0
H781 H 0.13907 0.46674 0.62949 0.0
H782 H 0.10903 0.40383 0.52236 0.0
H783 H 0.12931 0.4983 0.57428 0.0
H784 H 0.16997 0.32426 0.57195 0.0
H785 H 0.14825 0.26626 0.66466 0.0
H786 H 0.15026 0.274 0.53726 0.0
H787 H 0.1287 0.21711 0.62827 0.0
H788 H 0.27691 0.33483 0.55969 0.0
H789 H 0.2326 0.43101 0.52258 0.0
H790 H 0.0231 0.29599 0.7019 0.0
H791 H 0.04396 0.274 0.59404 0.0
Li792 Li 0.62839 0.18346 0.37303 0.0
Li793 Li 0.68821 0.18502 0.34804 0.0
Li794 Li 0.65876 0.13046 0.35353 0.0
Li795 Li 0.68175 0.1589 0.40411 0.0
C796 C 0.6303 0.15808 0.29733 0.0
N797 N 0.60275 0.1272 0.23912 0.0
C798 C 0.65104 0.15221 0.26834 0.0
C799 C 0.59552 0.14853 0.29669 0.0
C800 C 0.63664 0.13646 0.23917 0.0
C801 C 0.58208 0.1329 0.267 0.0
C802 C 0.68396 0.24048 0.38592 0.0
C803 C 0.73268 0.27938 0.38258 0.0
N804 N 0.71112 0.30555 0.37298 0.0
C805 C 0.6623 0.26786 0.37626 0.0
C806 C 0.71944 0.24636 0.38936 0.0
C807 C 0.67652 0.30053 0.36978 0.0
C808 C 0.56767 0.21348 0.40475 0.0
N809 N 0.58671 0.21025 0.37536 0.0
C810 C 0.55048 0.25115 0.34612 0.0
C811 C 0.57854 0.22838 0.34633 0.0
C812 C 0.5302 0.2553 0.37603 0.0
C813 C 0.53908 0.23586 0.40561 0.0
H814 H 0.5749 0.19901 0.42761 0.0
H815 H 0.59454 0.22592 0.32354 0.0
C816 C 0.7509 0.20914 0.31909 0.0
N817 N 0.71595 0.21208 0.31828 0.0
C818 C 0.77125 0.23089 0.2988 0.0
C819 C 0.71918 0.25693 0.27582 0.0
C820 C 0.69983 0.23508 0.29705 0.0
C821 C 0.75532 0.25518 0.27699 0.0
H822 H 0.76295 0.19035 0.33588 0.0
H823 H 0.67194 0.23675 0.29705 0.0
C824 C 0.61375 0.1097 0.40192 0.0
N825 N 0.57257 0.05159 0.40832 0.0
C826 C 0.62829 0.07792 0.41152 0.0
C827 C 0.57826 0.11204 0.39579 0.0
C828 C 0.60704 0.0488 0.41451 0.0
C829 C 0.55787 0.08234 0.39916 0.0
C830 C 0.73302 0.12215 0.37994 0.0
C831 C 0.72966 0.08627 0.38428 0.0
C832 C 0.76211 0.13905 0.39319 0.0
C833 C 0.75555 0.06789 0.40157 0.0
C834 C 0.78737 0.11976 0.41043 0.0
N835 N 0.78361 0.08487 0.4142 0.0
C836 C 0.68221 0.08039 0.30741 0.0
C837 C 0.62398 0.06965 0.32236 0.0
C838 C 0.68213 0.05264 0.28425 0.0
N839 N 0.65364 0.08821 0.32634 0.0
C840 C 0.62274 0.0415 0.29935 0.0
C841 C 0.6522 0.03253 0.28 0.0
H842 H 0.70506 0.09631 0.30974 0.0
H843 H 0.60098 0.07708 0.33624 0.0
C844 C 0.71685 0.18502 0.46229 0.0
N845 N 0.70475 0.15494 0.44854 0.0
C846 C 0.73851 0.18461 0.49111 0.0
C847 C 0.73341 0.12223 0.49291 0.0
C848 C 0.71186 0.12386 0.46377 0.0
C849 C 0.74761 0.1529 0.50668 0.0
H850 H 0.71046 0.20946 0.45033 0.0
H851 H 0.70182 0.10021 0.45267 0.0
O852 O 0.64418 0.17244 0.32648 0.0
O853 O 0.67062 0.20801 0.3914 0.0
O854 O 0.634 0.13857 0.39917 0.0
O855 O 0.70778 0.1407 0.36331 0.0
H856 H 0.67807 0.15935 0.26857 0.0
H857 H 0.57922 0.15272 0.31905 0.0
H858 H 0.65242 0.1315 0.21662 0.0
H859 H 0.55526 0.12515 0.26618 0.0
H860 H 0.76011 0.28414 0.38475 0.0
H861 H 0.63482 0.264 0.37373 0.0
H862 H 0.73671 0.22545 0.39643 0.0
H863 H 0.66004 0.32189 0.36214 0.0
H864 H 0.54531 0.26595 0.32289 0.0
H865 H 0.52406 0.23776 0.42915 0.0
H866 H 0.79912 0.22867 0.29997 0.0
H867 H 0.70614 0.27549 0.2593 0.0
H868 H 0.6557 0.07574 0.41642 0.0
H869 H 0.56662 0.13648 0.38838 0.0
H870 H 0.61795 0.02398 0.42174 0.0
H871 H 0.53038 0.08371 0.3944 0.0
H872 H 0.70713 0.07274 0.37482 0.0
H873 H 0.76484 0.16686 0.39093 0.0
H874 H 0.75322 0.04015 0.40514 0.0
H875 H 0.80985 0.13256 0.42102 0.0
H876 H 0.7052 0.04744 0.26929 0.0
H877 H 0.59902 0.02686 0.29691 0.0
H878 H 0.74887 0.20899 0.50034 0.0
H879 H 0.73907 0.09719 0.50429 0.0
Li880 Li 0.63037 0.68501 0.65769 0.0
Li881 Li 0.68392 0.68579 0.68756 0.0
Li882 Li 0.6824 0.6572 0.63269 0.0
Li883 Li 0.65433 0.63057 0.68549 0.0
C884 C 0.66942 0.72393 0.61167 0.0
N885 N 0.66021 0.75765 0.54927 0.0
C886 C 0.68554 0.75578 0.60557 0.0
C887 C 0.64868 0.70917 0.58599 0.0
C888 C 0.68054 0.77244 0.57386 0.0
C889 C 0.64433 0.72664 0.55463 0.0
C890 C 0.62354 0.6996 0.72719 0.0
C891 C 0.58561 0.71696 0.77353 0.0
N892 N 0.59215 0.75083 0.7661 0.0
C893 C 0.62993 0.73458 0.72003 0.0
C894 C 0.60122 0.69067 0.75414 0.0
C895 C 0.61379 0.76009 0.73999 0.0
C896 C 0.55758 0.69922 0.6581 0.0
N897 N 0.58909 0.7129 0.65084 0.0
C898 C 0.56359 0.76886 0.64117 0.0
C899 C 0.59244 0.74715 0.64281 0.0
C900 C 0.53066 0.75578 0.649 0.0
C901 C 0.528 0.72024 0.65751 0.0
H902 H 0.55556 0.67222 0.66552 0.0
H903 H 0.61763 0.75825 0.63876 0.0
C904 C 0.73774 0.73246 0.70031 0.0
N905 N 0.7125 0.71364 0.7159 0.0
C906 C 0.7591 0.75388 0.71997 0.0
C907 C 0.72776 0.7363 0.77121 0.0
C908 C 0.70746 0.71473 0.75067 0.0
C909 C 0.7538 0.75624 0.75577 0.0
H910 H 0.74118 0.73081 0.67259 0.0
H911 H 0.6876 0.69896 0.76242 0.0
C912 C 0.62801 0.60915 0.61679 0.0
N913 N 0.61573 0.55232 0.57502 0.0
C914 C 0.64595 0.57816 0.6223 0.0
C915 C 0.60377 0.61126 0.59009 0.0
C916 C 0.63937 0.5497 0.60091 0.0
C917 C 0.59798 0.58225 0.56921 0.0
C918 C 0.73343 0.64078 0.69424 0.0
C919 C 0.76456 0.64973 0.67832 0.0
C920 C 0.73271 0.63423 0.7298 0.0
C921 C 0.79448 0.65229 0.69835 0.0
C922 C 0.76319 0.63706 0.74893 0.0
N923 N 0.79317 0.64599 0.73294 0.0
C924 C 0.73442 0.67569 0.58714 0.0
C925 C 0.70775 0.62353 0.56892 0.0
C926 C 0.7562 0.67537 0.55842 0.0
N927 N 0.71036 0.65038 0.5917 0.0
C928 C 0.72969 0.62176 0.54009 0.0
C929 C 0.75396 0.6482 0.53446 0.0
H930 H 0.73668 0.69636 0.60591 0.0
H931 H 0.68869 0.60356 0.57281 0.0
C932 C 0.61734 0.58283 0.73023 0.0
N933 N 0.64668 0.5886 0.7117 0.0
C934 C 0.61508 0.55416 0.75259 0.0
C935 C 0.67294 0.53784 0.7359 0.0
C936 C 0.67396 0.56644 0.71379 0.0
C937 C 0.64351 0.53169 0.75622 0.0
H938 H 0.59612 0.60104 0.72849 0.0
H939 H 0.69707 0.57154 0.69896 0.0
O940 O 0.67454 0.70725 0.64252 0.0
O941 O 0.63859 0.6741 0.70768 0.0
O942 O 0.63365 0.63723 0.63765 0.0
O943 O 0.70366 0.63914 0.67528 0.0
H944 H 0.70177 0.76747 0.62515 0.0
H945 H 0.63608 0.68455 0.59013 0.0
H946 H 0.69284 0.79712 0.5688 0.0
H947 H 0.62835 0.71553 0.53455 0.0
H948 H 0.56825 0.71044 0.79446 0.0
H949 H 0.64707 0.74197 0.69921 0.0
H950 H 0.59597 0.6637 0.75994 0.0
H951 H 0.61845 0.78726 0.73468 0.0
H952 H 0.56735 0.79576 0.6341 0.0
H953 H 0.50353 0.70882 0.66469 0.0
H954 H 0.77899 0.769 0.70731 0.0
H955 H 0.72335 0.73724 0.79887 0.0
H956 H 0.6652 0.5763 0.64241 0.0
H957 H 0.58957 0.63506 0.5856 0.0
H958 H 0.65319 0.52559 0.60478 0.0
H959 H 0.57933 0.5835 0.54842 0.0
H960 H 0.7656 0.65485 0.65085 0.0
H961 H 0.70874 0.62766 0.74261 0.0
H962 H 0.81873 0.65936 0.6864 0.0
H963 H 0.76296 0.63234 0.77651 0.0
H964 H 0.77479 0.69609 0.55503 0.0
H965 H 0.72718 0.60047 0.52196 0.0
H966 H 0.59195 0.55043 0.76787 0.0
H967 H 0.69524 0.52092 0.73741 0.0
Li968 Li 0.65499 0.40352 0.85199 0.0
Li969 Li 0.68298 0.3763 0.90469 0.0
Li970 Li 0.68447 0.34826 0.84967 0.0
Li971 Li 0.63094 0.34887 0.87929 0.0
C972 C 0.73454 0.39259 0.8441 0.0
N973 N 0.79511 0.38637 0.80683 0.0
C974 C 0.76458 0.38064 0.86021 0.0
C975 C 0.73535 0.4016 0.80908 0.0
C976 C 0.79494 0.37762 0.84091 0.0
C977 C 0.76622 0.39823 0.79068 0.0
C978 C 0.62791 0.42412 0.92091 0.0
C979 C 0.59712 0.44972 0.96876 0.0
N980 N 0.61404 0.48015 0.96329 0.0
C981 C 0.64493 0.45564 0.91571 0.0
C982 C 0.60371 0.42111 0.94755 0.0
C983 C 0.63758 0.48367 0.93743 0.0
C984 C 0.61794 0.45109 0.80724 0.0
N985 N 0.64715 0.44564 0.8261 0.0
C986 C 0.67283 0.49692 0.80253 0.0
C987 C 0.67406 0.46821 0.82451 0.0
C988 C 0.64357 0.50273 0.78184 0.0
C989 C 0.61548 0.47983 0.78499 0.0
H990 H 0.59703 0.43256 0.80859 0.0
H991 H 0.69707 0.46333 0.83959 0.0
C992 C 0.7337 0.35701 0.95197 0.0
N993 N 0.71085 0.38317 0.94583 0.0
C994 C 0.7553 0.35783 0.98081 0.0
C995 C 0.73131 0.41367 0.99591 0.0
C996 C 0.70948 0.4114 0.96703 0.0
C997 C 0.75424 0.38639 1.0032 0.0
H998 H 0.7353 0.33535 0.93428 0.0
H999 H 0.69162 0.43218 0.96175 0.0
C1000 C 0.62499 0.33465 0.80951 0.0
N1001 N 0.5952 0.28329 0.76961 0.0
C1002 C 0.63143 0.2997 0.81683 0.0
C1003 C 0.60346 0.34348 0.78187 0.0
C1004 C 0.6161 0.27412 0.79637 0.0
C1005 C 0.58864 0.31713 0.762 0.0
C1006 C 0.66941 0.30949 0.92526 0.0
C1007 C 0.68459 0.27709 0.93115 0.0
C1008 C 0.64904 0.32466 0.95103 0.0
C1009 C 0.67906 0.26035 0.96271 0.0
C1010 C 0.64414 0.3071 0.98224 0.0
N1011 N 0.65912 0.27557 0.98739 0.0
C1012 C 0.73553 0.29849 0.83556 0.0
C1013 C 0.70986 0.32366 0.78579 0.0
C1014 C 0.75677 0.27781 0.81495 0.0
N1015 N 0.71273 0.32075 0.82069 0.0
C1016 C 0.73054 0.30348 0.76421 0.0
C1017 C 0.75437 0.28016 0.77877 0.0
H1018 H 0.73733 0.29703 0.86344 0.0
H1019 H 0.69154 0.34175 0.77476 0.0
C1020 C 0.55812 0.33533 0.87863 0.0
N1021 N 0.58952 0.3213 0.88582 0.0
C1022 C 0.52838 0.31461 0.87915 0.0
C1023 C 0.56361 0.26558 0.8953 0.0
C1024 C 0.59262 0.28698 0.8937 0.0
C1025 C 0.53078 0.27902 0.88755 0.0
H1026 H 0.5563 0.36239 0.87135 0.0
H1027 H 0.61772 0.27561 0.89768 0.0
O1028 O 0.70431 0.39473 0.8623 0.0
O1029 O 0.63423 0.39648 0.89963 0.0
O1030 O 0.63933 0.36022 0.82941 0.0
O1031 O 0.67499 0.3262 0.8945 0.0
H1032 H 0.76442 0.37351 0.88724 0.0
H1033 H 0.71222 0.41043 0.79605 0.0
H1034 H 0.81833 0.36822 0.85301 0.0
H1035 H 0.76715 0.40484 0.7635 0.0
H1036 H 0.5785 0.44776 0.98952 0.0
H1037 H 0.66409 0.45824 0.8956 0.0
H1038 H 0.59012 0.39693 0.95173 0.0
H1039 H 0.65072 0.50817 0.93382 0.0
H1040 H 0.69487 0.51416 0.80137 0.0
H1041 H 0.5925 0.48328 0.76941 0.0
H1042 H 0.77293 0.33647 0.98543 0.0
H1043 H 0.72981 0.4361 1.01274 0.0
H1044 H 0.648 0.29236 0.83814 0.0
H1045 H 0.59821 0.37043 0.77591 0.0
H1046 H 0.62079 0.24698 0.8018 0.0
H1047 H 0.57189 0.32359 0.74055 0.0
H1048 H 0.70048 0.26502 0.91149 0.0
H1049 H 0.63715 0.34969 0.94707 0.0
H1050 H 0.69064 0.23525 0.96759 0.0
H1051 H 0.62843 0.31854 1.00238 0.0
H1052 H 0.77514 0.26051 0.82719 0.0
H1053 H 0.72759 0.30582 0.73645 0.0
H1054 H 0.504 0.32633 0.87202 0.0
H1055 H 0.56718 0.23862 0.9023 0.0
Li1056 Li 0.34737 0.15869 0.90467 0.0
Li1057 Li 0.37535 0.13146 0.85197 0.0
Li1058 Li 0.3994 0.18612 0.87926 0.0
Li1059 Li 0.34587 0.18673 0.84965 0.0
C1060 C 0.40245 0.11089 0.9209 0.0
N1061 N 0.41636 0.05489 0.96332 0.0
C1062 C 0.38547 0.07935 0.91571 0.0
C1063 C 0.42664 0.11393 0.94754 0.0
C1064 C 0.39283 0.05133 0.93744 0.0
C1065 C 0.43325 0.08533 0.96877 0.0
C1066 C 0.29579 0.14239 0.84411 0.0
C1067 C 0.26408 0.13674 0.7907 0.0
N1068 N 0.2352 0.14861 0.80687 0.0
C1069 C 0.26576 0.15436 0.86023 0.0
C1070 C 0.29496 0.13338 0.80909 0.0
C1071 C 0.2354 0.15738 0.84095 0.0
C1072 C 0.29668 0.17799 0.95198 0.0
N1073 N 0.31951 0.15181 0.94582 0.0
C1074 C 0.29903 0.12129 0.99588 0.0
C1075 C 0.32086 0.12357 0.967 0.0
C1076 C 0.27612 0.14858 1.00319 0.0
C1077 C 0.27508 0.17715 0.98083 0.0
H1078 H 0.29508 0.19966 0.93431 0.0
H1079 H 0.3387 0.10278 0.96168 0.0
C1080 C 0.41239 0.08388 0.80721 0.0
N1081 N 0.38319 0.08934 0.82608 0.0
C1082 C 0.41484 0.05514 0.78497 0.0
C1083 C 0.3575 0.03806 0.80253 0.0
C1084 C 0.35627 0.06677 0.8245 0.0
C1085 C 0.38675 0.03224 0.78183 0.0
H1086 H 0.4333 0.10242 0.80856 0.0
H1087 H 0.33327 0.07165 0.8396 0.0
C1088 C 0.36095 0.2255 0.92523 0.0
N1089 N 0.37126 0.25944 0.98735 0.0
C1090 C 0.34578 0.25791 0.93111 0.0
C1091 C 0.38132 0.21033 0.951 0.0
C1092 C 0.35132 0.27466 0.96267 0.0
C1093 C 0.38623 0.22791 0.9822 0.0
C1094 C 0.40534 0.20033 0.80947 0.0
C1095 C 0.3989 0.23528 0.81678 0.0
C1096 C 0.42687 0.19149 0.78184 0.0
C1097 C 0.41422 0.26086 0.79632 0.0
C1098 C 0.44169 0.21784 0.76196 0.0
N1099 N 0.43513 0.25168 0.76956 0.0
C1100 C 0.47223 0.19965 0.87864 0.0
C1101 C 0.43771 0.24801 0.89363 0.0
C1102 C 0.50197 0.22037 0.87918 0.0
N1103 N 0.44082 0.21369 0.88579 0.0
C1104 C 0.46672 0.26942 0.89525 0.0
C1105 C 0.49956 0.25597 0.88755 0.0
H1106 H 0.47405 0.17259 0.87139 0.0
H1107 H 0.41261 0.25939 0.89758 0.0
C1108 C 0.2948 0.23649 0.83555 0.0
N1109 N 0.3176 0.21423 0.82067 0.0
C1110 C 0.27356 0.25717 0.81494 0.0
C1111 C 0.29977 0.23148 0.7642 0.0
C1112 C 0.32046 0.21131 0.78578 0.0
C1113 C 0.27595 0.25481 0.77876 0.0
H1114 H 0.29302 0.23796 0.86343 0.0
H1115 H 0.33877 0.19322 0.77474 0.0
O1116 O 0.39612 0.13851 0.8996 0.0
O1117 O 0.32603 0.14025 0.86229 0.0
O1118 O 0.35536 0.20878 0.89448 0.0
O1119 O 0.39101 0.17476 0.82939 0.0
H1120 H 0.36632 0.07672 0.89559 0.0
H1121 H 0.44021 0.13812 0.95172 0.0
H1122 H 0.37972 0.02682 0.93385 0.0
H1123 H 0.45187 0.08733 0.98954 0.0
H1124 H 0.26314 0.13013 0.76353 0.0
H1125 H 0.26594 0.1615 0.88726 0.0
H1126 H 0.31808 0.12453 0.79605 0.0
H1127 H 0.21201 0.16679 0.85306 0.0
H1128 H 0.30052 0.09884 1.01268 0.0
H1129 H 0.25747 0.19852 0.98547 0.0
H1130 H 0.43782 0.05169 0.76938 0.0
H1131 H 0.33545 0.02082 0.80138 0.0
H1132 H 0.32988 0.26998 0.91145 0.0
H1133 H 0.3932 0.18531 0.94705 0.0
H1134 H 0.33975 0.29976 0.96754 0.0
H1135 H 0.40193 0.21647 1.00235 0.0
H1136 H 0.38233 0.24262 0.83809 0.0
H1137 H 0.43212 0.16454 0.77588 0.0
H1138 H 0.40952 0.288 0.80174 0.0
H1139 H 0.45844 0.21138 0.74051 0.0
H1140 H 0.52636 0.20865 0.87208 0.0
H1141 H 0.46315 0.29638 0.90222 0.0
H1142 H 0.25519 0.27447 0.82718 0.0
H1143 H 0.30271 0.22914 0.73644 0.0
Li1144 Li 0.37152 0.4045 0.35352 0.0
Li1145 Li 0.34852 0.37605 0.4041 0.0
Li1146 Li 0.40188 0.3515 0.37302 0.0
Li1147 Li 0.34206 0.34994 0.34802 0.0
C1148 C 0.41652 0.42525 0.40191 0.0
N1149 N 0.45771 0.48335 0.40831 0.0
C1150 C 0.40198 0.45703 0.41151 0.0
C1151 C 0.45201 0.42291 0.39578 0.0
C1152 C 0.42324 0.48615 0.4145 0.0
C1153 C 0.47241 0.45261 0.39915 0.0
C1154 C 0.29725 0.41281 0.37993 0.0
C1155 C 0.2429 0.4152 0.41042 0.0
N1156 N 0.24666 0.45008 0.41419 0.0
C1157 C 0.30062 0.44868 0.38427 0.0
C1158 C 0.26816 0.39591 0.39317 0.0
C1159 C 0.27472 0.46706 0.40157 0.0
C1160 C 0.34806 0.45457 0.30741 0.0
N1161 N 0.37664 0.44675 0.32634 0.0
C1162 C 0.40754 0.49346 0.29935 0.0
C1163 C 0.4063 0.4653 0.32235 0.0
C1164 C 0.37808 0.50243 0.28 0.0
C1165 C 0.34815 0.48233 0.28425 0.0
H1166 H 0.32522 0.43866 0.30974 0.0
H1167 H 0.4293 0.45787 0.33623 0.0
C1168 C 0.31341 0.34993 0.46227 0.0
N1169 N 0.32552 0.38001 0.44853 0.0
C1170 C 0.29175 0.35035 0.4911 0.0
C1171 C 0.29686 0.41272 0.4929 0.0
C1172 C 0.31842 0.41109 0.46377 0.0
C1173 C 0.28266 0.38205 0.50667 0.0
H1174 H 0.31979 0.32549 0.45031 0.0
H1175 H 0.32847 0.43474 0.45267 0.0
C1176 C 0.39997 0.37688 0.29732 0.0
N1177 N 0.42752 0.40776 0.23911 0.0
C1178 C 0.37923 0.38276 0.26833 0.0
C1179 C 0.43476 0.38642 0.29667 0.0
C1180 C 0.39363 0.3985 0.23916 0.0
C1181 C 0.4482 0.40205 0.26698 0.0
C1182 C 0.3463 0.29447 0.3859 0.0
C1183 C 0.36796 0.2671 0.37624 0.0
C1184 C 0.31083 0.28859 0.38933 0.0
C1185 C 0.35374 0.23442 0.36975 0.0
C1186 C 0.29759 0.25558 0.38254 0.0
N1187 N 0.31914 0.2294 0.37295 0.0
C1188 C 0.4626 0.32147 0.40474 0.0
C1189 C 0.45173 0.30657 0.34633 0.0
C1190 C 0.49119 0.29909 0.40561 0.0
N1191 N 0.44356 0.3247 0.37535 0.0
C1192 C 0.47979 0.2838 0.34612 0.0
C1193 C 0.50007 0.27965 0.37603 0.0
H1194 H 0.45536 0.33594 0.4276 0.0
H1195 H 0.43573 0.30903 0.32353 0.0
C1196 C 0.27938 0.32583 0.31906 0.0
N1197 N 0.31432 0.32289 0.31826 0.0
C1198 C 0.25902 0.3041 0.29876 0.0
C1199 C 0.31109 0.27804 0.2758 0.0
C1200 C 0.33044 0.29988 0.29704 0.0
C1201 C 0.27495 0.2798 0.27696 0.0
H1202 H 0.26732 0.34463 0.33585 0.0
H1203 H 0.35833 0.29821 0.29704 0.0
O1204 O 0.39627 0.39639 0.39916 0.0
O1205 O 0.32249 0.39426 0.36329 0.0
O1206 O 0.38609 0.36251 0.32647 0.0
O1207 O 0.35965 0.32695 0.39139 0.0
H1208 H 0.37458 0.45921 0.41641 0.0
H1209 H 0.46365 0.39846 0.38837 0.0
H1210 H 0.41233 0.51097 0.42174 0.0
H1211 H 0.4999 0.45123 0.39439 0.0
H1212 H 0.22042 0.40239 0.42101 0.0
H1213 H 0.32314 0.46222 0.37483 0.0
H1214 H 0.26543 0.36809 0.39091 0.0
H1215 H 0.27706 0.49481 0.40515 0.0
H1216 H 0.43126 0.50809 0.2969 0.0
H1217 H 0.32507 0.48753 0.26929 0.0
H1218 H 0.28138 0.32597 0.50032 0.0
H1219 H 0.29122 0.43776 0.50429 0.0
H1220 H 0.3522 0.37562 0.26856 0.0
H1221 H 0.45106 0.38223 0.31904 0.0
H1222 H 0.37785 0.40347 0.21661 0.0
H1223 H 0.47502 0.4098 0.26617 0.0
H1224 H 0.39545 0.27096 0.37372 0.0
H1225 H 0.29355 0.30951 0.39639 0.0
H1226 H 0.37023 0.21307 0.36213 0.0
H1227 H 0.27015 0.25082 0.38471 0.0
H1228 H 0.5062 0.29719 0.42915 0.0
H1229 H 0.48497 0.269 0.32289 0.0
H1230 H 0.23115 0.30632 0.29993 0.0
H1231 H 0.32413 0.25947 0.25929 0.0
Li1232 Li 0.34611 0.68981 0.18568 0.0
Li1233 Li 0.37243 0.63029 0.18304 0.0
Li1234 Li 0.40099 0.68472 0.15605 0.0
Li1235 Li 0.34919 0.65954 0.13116 0.0
C1236 C 0.3898 0.68881 0.23739 0.0
N1237 N 0.38512 0.7202 0.30147 0.0
C1238 C 0.38265 0.66895 0.26677 0.0
C1239 C 0.39492 0.72457 0.24064 0.0
C1240 C 0.38033 0.68532 0.29894 0.0
C1241 C 0.39233 0.73998 0.27324 0.0
C1242 C 0.29632 0.62858 0.16204 0.0
C1243 C 0.26949 0.57854 0.13609 0.0
N1244 N 0.23905 0.59613 0.13454 0.0
C1245 C 0.26478 0.64612 0.16041 0.0
C1246 C 0.29876 0.59448 0.14997 0.0
C1247 C 0.23611 0.62927 0.14634 0.0
C1248 C 0.31197 0.75148 0.20522 0.0
N1249 N 0.31785 0.71786 0.21397 0.0
C1250 C 0.28278 0.72345 0.2644 0.0
C1251 C 0.30351 0.70346 0.24263 0.0
C1252 C 0.27655 0.75845 0.25627 0.0
C1253 C 0.2914 0.77242 0.22621 0.0
H1254 H 0.32313 0.76202 0.18193 0.0
H1255 H 0.30823 0.67642 0.24853 0.0
C1256 C 0.40547 0.56891 0.21215 0.0
N1257 N 0.37659 0.58899 0.21043 0.0
C1258 C 0.40674 0.54041 0.23477 0.0
C1259 C 0.34871 0.55402 0.25323 0.0
C1260 C 0.34856 0.58204 0.23039 0.0
C1261 C 0.37802 0.53263 0.25575 0.0
H1262 H 0.42758 0.57516 0.19623 0.0
H1263 H 0.32618 0.59881 0.22907 0.0
C1264 C 0.36927 0.73628 0.12089 0.0
N1265 N 0.39152 0.7916 0.08122 0.0
C1266 C 0.36884 0.73408 0.08478 0.0
C1267 C 0.38107 0.76664 0.13679 0.0
C1268 C 0.38013 0.76235 0.0652 0.0
C1269 C 0.39223 0.79429 0.11628 0.0
C1270 C 0.40081 0.6185 0.10677 0.0
C1271 C 0.40949 0.63635 0.07655 0.0
C1272 C 0.3978 0.58236 0.10621 0.0
C1273 C 0.4147 0.61768 0.04601 0.0
C1274 C 0.4033 0.56463 0.07516 0.0
N1275 N 0.41153 0.58251 0.04596 0.0
C1276 C 0.46376 0.71386 0.17885 0.0
C1277 C 0.45327 0.7246 0.11958 0.0
C1278 C 0.49227 0.73606 0.17841 0.0
N1279 N 0.44423 0.70931 0.15 0.0
C1280 C 0.48114 0.7477 0.11814 0.0
C1281 C 0.50076 0.75444 0.14809 0.0
H1282 H 0.45673 0.7009 0.2026 0.0
H1283 H 0.43801 0.72011 0.09667 0.0
C1284 C 0.29635 0.67953 0.08765 0.0
N1285 N 0.32008 0.65366 0.09064 0.0
C1286 C 0.27212 0.6793 0.06096 0.0
C1287 C 0.2965 0.62537 0.04067 0.0
C1288 C 0.32013 0.62644 0.06816 0.0
C1289 C 0.27214 0.65224 0.03658 0.0
H1290 H 0.29603 0.70035 0.10641 0.0
H1291 H 0.33816 0.60539 0.07153 0.0
O1292 O 0.39126 0.67343 0.20552 0.0
O1293 O 0.32491 0.64499 0.17466 0.0
O1294 O 0.35812 0.70895 0.14056 0.0
O1295 O 0.39596 0.6362 0.13696 0.0
H1296 H 0.37872 0.64125 0.26475 0.0
H1297 H 0.40044 0.74031 0.21814 0.0
H1298 H 0.37463 0.6703 0.32187 0.0
H1299 H 0.39596 0.76766 0.27609 0.0
H1300 H 0.27102 0.55224 0.12641 0.0
H1301 H 0.2626 0.67259 0.16958 0.0
H1302 H 0.32311 0.58067 0.15091 0.0
H1303 H 0.21156 0.64258 0.14468 0.0
H1304 H 0.27135 0.71152 0.28702 0.0
H1305 H 0.28744 0.79933 0.21912 0.0
H1306 H 0.42979 0.5245 0.2356 0.0
H1307 H 0.32621 0.54958 0.26925 0.0
H1308 H 0.36031 0.71069 0.07194 0.0
H1309 H 0.38204 0.7687 0.16466 0.0
H1310 H 0.38001 0.76095 0.03725 0.0
H1311 H 0.40158 0.81785 0.12826 0.0
H1312 H 0.41198 0.66431 0.07666 0.0
H1313 H 0.39121 0.56822 0.12949 0.0
H1314 H 0.42126 0.63114 0.02236 0.0
H1315 H 0.40098 0.53666 0.07427 0.0
H1316 H 0.50719 0.73896 0.20189 0.0
H1317 H 0.48632 0.76097 0.09404 0.0
H1318 H 0.25337 0.70013 0.0597 0.0
H1319 H 0.29768 0.60396 0.02258 0.0
Li1320 Li 0.65785 0.90467 0.18304 0.0
Li1321 Li 0.68417 0.84516 0.18568 0.0
Li1322 Li 0.68109 0.87542 0.13116 0.0
Li1323 Li 0.6293 0.85025 0.15605 0.0
C1324 C 0.73396 0.90639 0.16203 0.0
N1325 N 0.79123 0.93882 0.13453 0.0
C1326 C 0.76551 0.88884 0.16041 0.0
C1327 C 0.73153 0.94048 0.14996 0.0
C1328 C 0.79417 0.90568 0.14633 0.0
C1329 C 0.76079 0.95642 0.13608 0.0
C1330 C 0.64049 0.84616 0.23739 0.0
C1331 C 0.63796 0.79499 0.27325 0.0
N1332 N 0.64517 0.81477 0.30147 0.0
C1333 C 0.64764 0.86602 0.26677 0.0
C1334 C 0.63537 0.81039 0.24064 0.0
C1335 C 0.64996 0.84965 0.29894 0.0
C1336 C 0.62481 0.96605 0.21215 0.0
N1337 N 0.65369 0.94597 0.21043 0.0
C1338 C 0.68158 0.98095 0.25322 0.0
C1339 C 0.68173 0.95293 0.23038 0.0
C1340 C 0.65226 1.00234 0.25574 0.0
C1341 C 0.62354 0.99455 0.23478 0.0
H1342 H 0.6027 0.95979 0.19624 0.0
H1343 H 0.70411 0.93616 0.22906 0.0
C1344 C 0.71832 0.78349 0.20523 0.0
N1345 N 0.71244 0.81711 0.21397 0.0
C1346 C 0.73888 0.76255 0.22621 0.0
C1347 C 0.74751 0.81152 0.2644 0.0
C1348 C 0.72678 0.83151 0.24263 0.0
C1349 C 0.75374 0.77653 0.25627 0.0
H1350 H 0.70715 0.77294 0.18194 0.0
H1351 H 0.72206 0.85855 0.24852 0.0
C1352 C 0.62948 0.91646 0.10677 0.0
N1353 N 0.61876 0.95246 0.04596 0.0
C1354 C 0.6208 0.89861 0.07655 0.0
C1355 C 0.63249 0.9526 0.10621 0.0
C1356 C 0.61559 0.91729 0.04601 0.0
C1357 C 0.62698 0.97034 0.07516 0.0
C1358 C 0.66101 0.79869 0.12089 0.0
C1359 C 0.66145 0.80088 0.08479 0.0
C1360 C 0.64921 0.76833 0.13679 0.0
C1361 C 0.65015 0.77261 0.0652 0.0
C1362 C 0.63805 0.74067 0.11629 0.0
N1363 N 0.63877 0.74336 0.08122 0.0
C1364 C 0.73393 0.85543 0.08764 0.0
C1365 C 0.71015 0.90852 0.06816 0.0
C1366 C 0.75817 0.85566 0.06096 0.0
N1367 N 0.71021 0.8813 0.09064 0.0
C1368 C 0.73379 0.90959 0.04067 0.0
C1369 C 0.75815 0.88272 0.03658 0.0
H1370 H 0.73425 0.83461 0.10641 0.0
H1371 H 0.69213 0.92958 0.07153 0.0
C1372 C 0.56652 0.82109 0.17885 0.0
N1373 N 0.58605 0.82565 0.15 0.0
C1374 C 0.53802 0.7989 0.17841 0.0
C1375 C 0.54914 0.78726 0.11814 0.0
C1376 C 0.57702 0.81037 0.11958 0.0
C1377 C 0.52953 0.78052 0.14809 0.0
H1378 H 0.57356 0.83406 0.2026 0.0
H1379 H 0.59228 0.81485 0.09667 0.0
O1380 O 0.70537 0.88998 0.17465 0.0
O1381 O 0.63903 0.86153 0.20552 0.0
O1382 O 0.63432 0.89876 0.13696 0.0
O1383 O 0.67217 0.82602 0.14056 0.0
H1384 H 0.76768 0.86237 0.16957 0.0
H1385 H 0.70718 0.95429 0.1509 0.0
H1386 H 0.81873 0.89237 0.14468 0.0
H1387 H 0.75928 0.98272 0.12641 0.0
H1388 H 0.63433 0.76731 0.2761 0.0
H1389 H 0.65157 0.89372 0.26475 0.0
H1390 H 0.62984 0.79466 0.21815 0.0
H1391 H 0.65566 0.86467 0.32187 0.0
H1392 H 0.70408 0.98539 0.26924 0.0
H1393 H 0.60049 1.01046 0.2356 0.0
H1394 H 0.74285 0.73564 0.21913 0.0
H1395 H 0.75895 0.82346 0.28701 0.0
H1396 H 0.6183 0.87065 0.07666 0.0
H1397 H 0.63907 0.96674 0.12949 0.0
H1398 H 0.60903 0.90383 0.02235 0.0
H1399 H 0.62931 0.9983 0.07427 0.0
H1400 H 0.66997 0.82427 0.07194 0.0
H1401 H 0.64825 0.76626 0.16466 0.0
H1402 H 0.65027 0.774 0.03726 0.0
H1403 H 0.6287 0.71711 0.12827 0.0
H1404 H 0.77691 0.83483 0.0597 0.0
H1405 H 0.7326 0.93101 0.02258 0.0
H1406 H 0.5231 0.796 0.20189 0.0
H1407 H 0.54396 0.774 0.09404 0.0
loop_
_geom_bond_atom_site_label_1
_geom_bond_atom_site_label_2
_geom_bond_distance
_geom_bond_site_symmetry_2
_ccdc_geom_bond_type
Li0 N17 1.990 . S
Li0 O60 1.956 . S
Li0 O61 1.970 . S
Li0 O62 1.961 . S
Li1 N25 1.990 . S
Li1 O60 1.970 . S
Li1 O61 1.956 . S
Li1 O63 1.961 . S
Li2 N47 1.990 . S
Li2 O60 1.961 . S
Li2 O62 1.956 . S
Li2 O63 1.970 . S
Li3 N53 1.990 . S
Li3 O61 1.961 . S
Li3 O62 1.970 . S
Li3 O63 1.956 . S
C4 C6 1.348 . S
C4 C7 1.356 . S
C4 O60 1.325 . S
N5 C8 1.314 . S
N5 C9 1.279 . S
C6 C4 1.348 . S
C6 C8 1.353 . S
C6 H64 0.929 . S
C7 C4 1.356 . S
C7 C9 1.358 . S
C7 H65 0.930 . S
C8 N5 1.314 . S
C8 C6 1.353 . S
C8 H66 0.930 . S
C9 N5 1.279 . S
C9 C7 1.358 . S
C9 H67 0.930 . S
C10 C13 1.348 . S
C10 C14 1.356 . S
C10 O61 1.325 . S
C11 N12 1.279 . S
C11 C14 1.358 . S
C11 H68 0.930 . S
N12 C11 1.279 . S
N12 C15 1.314 . S
C13 C10 1.348 . S
C13 C15 1.353 . S
C13 H69 0.929 . S
C14 C10 1.356 . S
C14 C11 1.358 . S
C14 H70 0.930 . S
C15 N12 1.314 . S
C15 C13 1.353 . S
C15 H71 0.930 . S
C16 N17 1.314 . S
C16 C21 1.353 . S
C16 H22 0.930 . S
N17 Li0 1.990 . S
N17 C16 1.314 . S
N17 C19 1.279 . S
C18 C19 1.358 . S
C18 C20 1.356 . S
C18 H72 0.930 . S
C19 N17 1.279 . S
C19 C18 1.358 . S
C19 H23 0.930 . S
C20 C18 1.356 . S
C20 C21 1.348 . S
C21 C16 1.353 . S
C21 C20 1.348 . S
C21 H73 0.929 1_455 S
H22 C16 0.930 . S
H23 C19 0.930 . S
C24 N25 1.314 . S
C24 C26 1.353 . S
C24 H30 0.930 . S
N25 Li1 1.990 . S
N25 C24 1.314 . S
N25 C28 1.279 . S
C26 C24 1.353 . S
C26 C29 1.348 . S
C26 H74 0.929 . S
C27 C28 1.358 . S
C27 C29 1.356 . S
C27 H75 0.930 . S
C28 N25 1.279 . S
C28 C27 1.358 . S
C28 H31 0.930 . S
C29 C26 1.348 . S
C29 C27 1.356 . S
H30 C24 0.930 . S
H31 C28 0.930 . S
C32 C34 1.348 . S
C32 C35 1.356 . S
C32 O62 1.325 . S
N33 C36 1.314 . S
N33 C37 1.279 . S
C34 C32 1.348 . S
C34 C36 1.353 . S
C34 H76 0.929 . S
C35 C32 1.356 . S
C35 C37 1.358 . S
C35 H77 0.930 . S
C36 N33 1.314 . S
C36 C34 1.353 . S
C36 H78 0.930 . S
C37 N33 1.279 . S
C37 C35 1.358 . S
C37 H79 0.930 . S
C38 C39 1.348 . S
C38 C40 1.356 . S
C38 O63 1.325 . S
C39 C38 1.348 . S
C39 C41 1.353 . S
C39 H80 0.929 . S
C40 C38 1.356 . S
C40 C42 1.358 . S
C40 H81 0.930 . S
C41 C39 1.353 . S
C41 N43 1.314 . S
C41 H82 0.930 . S
C42 C40 1.358 . S
C42 N43 1.279 . S
C42 H83 0.930 . S
N43 C41 1.314 . S
N43 C42 1.279 . S
C44 C46 1.353 . S
C44 N47 1.314 . S
C44 H50 0.930 . S
C45 N47 1.279 . S
C45 C48 1.358 . S
C45 H51 0.930 . S
C46 C44 1.353 . S
C46 C49 1.348 . S
C46 H84 0.929 . S
N47 Li2 1.990 . S
N47 C44 1.314 . S
N47 C45 1.279 . S
C48 C45 1.358 . S
C48 C49 1.356 . S
C48 H85 0.930 . S
C49 C46 1.348 . S
C49 C48 1.356 . S
H50 C44 0.930 . S
H51 C45 0.930 . S
C52 N53 1.314 . S
C52 C54 1.353 . S
C52 H58 0.930 . S
N53 Li3 1.990 . S
N53 C52 1.314 . S
N53 C56 1.279 . S
C54 C52 1.353 . S
C54 C57 1.348 . S
C54 H86 0.929 . S
C55 C56 1.358 . S
C55 C57 1.356 . S
C55 H87 0.930 . S
C56 N53 1.279 . S
C56 C55 1.358 . S
C56 H59 0.930 . S
C57 C54 1.348 . S
C57 C55 1.356 . S
H58 C52 0.930 . S
H59 C56 0.930 . S
O60 Li0 1.956 . S
O60 Li1 1.970 . S
O60 Li2 1.961 . S
O60 C4 1.325 . S
O61 Li0 1.970 . S
O61 Li1 1.956 . S
O61 Li3 1.961 . S
O61 C10 1.325 . S
O62 Li0 1.961 . S
O62 Li2 1.956 . S
O62 Li3 1.970 . S
O62 C32 1.325 . S
O63 Li1 1.961 . S
O63 Li2 1.970 . S
O63 Li3 1.956 . S
O63 C38 1.325 . S
H64 C6 0.929 . S
H65 C7 0.930 . S
H66 C8 0.930 . S
H67 C9 0.930 . S
H68 C11 0.930 . S
H69 C13 0.929 . S
H70 C14 0.930 . S
H71 C15 0.930 . S
H72 C18 0.930 . S
H73 C21 0.929 1_655 S
H74 C26 0.929 . S
H75 C27 0.930 . S
H76 C34 0.929 . S
H77 C35 0.930 . S
H78 C36 0.930 . S
H79 C37 0.930 . S
H80 C39 0.929 . S
H81 C40 0.930 . S
H82 C41 0.930 . S
H83 C42 0.930 . S
H84 C46 0.929 . S
H85 C48 0.930 . S
H86 C54 0.929 . S
H87 C55 0.930 . S
Li88 N105 1.990 . S
Li88 O148 1.956 . S
Li88 O149 1.970 . S
Li88 O150 1.961 . S
Li89 N113 1.990 . S
Li89 O148 1.970 . S
Li89 O149 1.956 . S
Li89 O151 1.961 . S
Li90 N135 1.990 . S
Li90 O148 1.961 . S
Li90 O150 1.956 . S
Li90 O151 1.970 . S
Li91 N141 1.990 . S
Li91 O149 1.961 . S
Li91 O150 1.970 . S
Li91 O151 1.956 . S
C92 C94 1.348 . S
C92 C95 1.356 . S
C92 O148 1.325 . S
N93 C96 1.314 . S
N93 C97 1.279 . S
C94 C92 1.348 . S
C94 C96 1.353 . S
C94 H152 0.929 . S
C95 C92 1.356 . S
C95 C97 1.358 . S
C95 H153 0.930 . S
C96 N93 1.314 . S
C96 C94 1.353 . S
C96 H154 0.930 . S
C97 N93 1.279 . S
C97 C95 1.358 . S
C97 H155 0.930 . S
C98 C101 1.348 . S
C98 C102 1.356 . S
C98 O149 1.325 . S
C99 N100 1.279 . S
C99 C102 1.358 . S
C99 H156 0.930 . S
N100 C99 1.279 . S
N100 C103 1.314 . S
C101 C98 1.348 . S
C101 C103 1.353 . S
C101 H157 0.929 . S
C102 C98 1.356 . S
C102 C99 1.358 . S
C102 H158 0.930 . S
C103 N100 1.314 . S
C103 C101 1.353 . S
C103 H159 0.930 . S
C104 N105 1.314 . S
C104 C109 1.353 . S
C104 H110 0.930 . S
N105 Li88 1.990 . S
N105 C104 1.314 . S
N105 C107 1.279 . S
C106 C107 1.358 . S
C106 C108 1.356 . S
C106 H160 0.930 . S
C107 N105 1.279 . S
C107 C106 1.358 . S
C107 H111 0.930 . S
C108 C106 1.356 . S
C108 C109 1.348 . S
C109 C104 1.353 . S
C109 C108 1.348 . S
C109 H161 0.929 . S
H110 C104 0.930 . S
H111 C107 0.930 . S
C112 N113 1.314 . S
C112 C114 1.353 . S
C112 H118 0.930 . S
N113 Li89 1.990 . S
N113 C112 1.314 . S
N113 C116 1.279 . S
C114 C112 1.353 . S
C114 C117 1.348 . S
C114 H162 0.929 1_655 S
C115 C116 1.358 . S
C115 C117 1.356 . S
C115 H163 0.930 . S
C116 N113 1.279 . S
C116 C115 1.358 . S
C116 H119 0.930 . S
C117 C114 1.348 . S
C117 C115 1.356 . S
H118 C112 0.930 . S
H119 C116 0.930 . S
C120 C122 1.348 . S
C120 C123 1.356 . S
C120 O150 1.325 . S
N121 C124 1.314 . S
N121 C125 1.279 . S
C122 C120 1.348 . S
C122 C124 1.353 . S
C122 H164 0.929 . S
C123 C120 1.356 . S
C123 C125 1.358 . S
C123 H165 0.930 . S
C124 N121 1.314 . S
C124 C122 1.353 . S
C124 H166 0.930 . S
C125 N121 1.279 . S
C125 C123 1.358 . S
C125 H167 0.930 . S
C126 C127 1.348 . S
C126 C128 1.356 . S
C126 O151 1.325 . S
C127 C126 1.348 . S
C127 C129 1.353 . S
C127 H168 0.929 . S
C128 C126 1.356 . S
C128 C130 1.358 . S
C128 H169 0.930 . S
C129 C127 1.353 . S
C129 N131 1.314 . S
C129 H170 0.930 . S
C130 C128 1.358 . S
C130 N131 1.279 . S
C130 H171 0.930 . S
N131 C129 1.314 . S
N131 C130 1.279 . S
C132 C134 1.353 . S
C132 N135 1.314 . S
C132 H138 0.930 . S
C133 N135 1.279 . S
C133 C136 1.358 . S
C133 H139 0.930 . S
C134 C132 1.353 . S
C134 C137 1.348 . S
C134 H172 0.929 . S
N135 Li90 1.990 . S
N135 C132 1.314 . S
N135 C133 1.279 . S
C136 C133 1.358 . S
C136 C137 1.356 . S
C136 H173 0.930 . S
C137 C134 1.348 . S
C137 C136 1.356 . S
H138 C132 0.930 . S
H139 C133 0.930 . S
C140 N141 1.314 . S
C140 C142 1.353 . S
C140 H146 0.930 . S
N141 Li91 1.990 . S
N141 C140 1.314 . S
N141 C144 1.279 . S
C142 C140 1.353 . S
C142 C145 1.348 . S
C142 H174 0.929 . S
C143 C144 1.358 . S
C143 C145 1.356 . S
C143 H175 0.930 . S
C144 N141 1.279 . S
C144 C143 1.358 . S
C144 H147 0.930 . S
C145 C142 1.348 . S
C145 C143 1.356 . S
H146 C140 0.930 . S
H147 C144 0.930 . S
O148 Li88 1.956 . S
O148 Li89 1.970 . S
O148 Li90 1.961 . S
O148 C92 1.325 . S
O149 Li88 1.970 . S
O149 Li89 1.956 . S
O149 Li91 1.961 . S
O149 C98 1.325 . S
O150 Li88 1.961 . S
O150 Li90 1.956 . S
O150 Li91 1.970 . S
O150 C120 1.325 . S
O151 Li89 1.961 . S
O151 Li90 1.970 . S
O151 Li91 1.956 . S
O151 C126 1.325 . S
H152 C94 0.929 . S
H153 C95 0.930 . S
H154 C96 0.930 . S
H155 C97 0.930 . S
H156 C99 0.930 . S
H157 C101 0.929 . S
H158 C102 0.930 . S
H159 C103 0.930 . S
H160 C106 0.930 . S
H161 C109 0.929 . S
H162 C114 0.929 1_455 S
H163 C115 0.930 . S
H164 C122 0.929 . S
H165 C123 0.930 . S
H166 C124 0.930 . S
H167 C125 0.930 . S
H168 C127 0.929 . S
H169 C128 0.930 . S
H170 C129 0.930 . S
H171 C130 0.930 . S
H172 C134 0.929 . S
H173 C136 0.930 . S
H174 C142 0.929 . S
H175 C143 0.930 . S
Li176 N193 1.990 . S
Li176 O236 1.956 . S
Li176 O237 1.970 . S
Li176 O238 1.961 . S
Li177 N201 1.990 . S
Li177 O236 1.970 . S
Li177 O237 1.956 . S
Li177 O239 1.961 . S
Li178 N223 1.990 . S
Li178 O236 1.961 . S
Li178 O238 1.956 . S
Li178 O239 1.970 . S
Li179 N229 1.990 . S
Li179 O237 1.961 . S
Li179 O238 1.970 . S
Li179 O239 1.956 . S
C180 C182 1.348 . S
C180 C183 1.356 . S
C180 O236 1.325 . S
N181 C184 1.314 . S
N181 C185 1.279 . S
C182 C180 1.348 . S
C182 C184 1.353 . S
C182 H240 0.929 . S
C183 C180 1.356 . S
C183 C185 1.358 . S
C183 H241 0.930 . S
C184 N181 1.314 . S
C184 C182 1.353 . S
C184 H242 0.930 . S
C185 N181 1.279 . S
C185 C183 1.358 . S
C185 H243 0.930 . S
C186 C189 1.348 . S
C186 C190 1.356 . S
C186 O237 1.325 . S
C187 N188 1.279 . S
C187 C190 1.358 . S
C187 H244 0.930 . S
N188 C187 1.279 . S
N188 C191 1.314 . S
C189 C186 1.348 . S
C189 C191 1.353 . S
C189 H245 0.929 . S
C190 C186 1.356 . S
C190 C187 1.358 . S
C190 H246 0.930 . S
C191 N188 1.314 . S
C191 C189 1.353 . S
C191 H247 0.930 . S
C192 N193 1.314 . S
C192 C197 1.353 . S
C192 H198 0.930 . S
N193 Li176 1.990 . S
N193 C192 1.314 . S
N193 C195 1.279 . S
C194 C195 1.358 . S
C194 C196 1.356 . S
C194 H248 0.930 . S
C195 N193 1.279 . S
C195 C194 1.358 . S
C195 H199 0.930 . S
C196 C194 1.356 . S
C196 C197 1.348 . S
C197 C192 1.353 . S
C197 C196 1.348 . S
C197 H249 0.929 . S
H198 C192 0.930 . S
H199 C195 0.930 . S
C200 N201 1.314 . S
C200 C202 1.353 . S
C200 H206 0.930 . S
N201 Li177 1.990 . S
N201 C200 1.314 . S
N201 C204 1.279 . S
C202 C200 1.353 . S
C202 C205 1.348 . S
C202 H250 0.929 . S
C203 C204 1.358 . S
C203 C205 1.356 . S
C203 H251 0.930 . S
C204 N201 1.279 . S
C204 C203 1.358 . S
C204 H207 0.930 . S
C205 C202 1.348 . S
C205 C203 1.356 . S
H206 C200 0.930 . S
H207 C204 0.930 . S
C208 C210 1.348 . S
C208 C211 1.356 . S
C208 O238 1.325 . S
N209 C212 1.314 . S
N209 C213 1.279 . S
C210 C208 1.348 . S
C210 C212 1.353 . S
C210 H252 0.929 . S
C211 C208 1.356 . S
C211 C213 1.358 . S
C211 H253 0.930 . S
C212 N209 1.314 . S
C212 C210 1.353 . S
C212 H254 0.930 . S
C213 N209 1.279 . S
C213 C211 1.358 . S
C213 H255 0.930 . S
C214 C215 1.348 . S
C214 C216 1.356 . S
C214 O239 1.325 . S
C215 C214 1.348 . S
C215 C217 1.353 . S
C215 H256 0.929 . S
C216 C214 1.356 . S
C216 C218 1.358 . S
C216 H257 0.930 . S
C217 C215 1.353 . S
C217 N219 1.314 . S
C217 H258 0.930 . S
C218 C216 1.358 . S
C218 N219 1.279 . S
C218 H259 0.930 . S
N219 C217 1.314 . S
N219 C218 1.279 . S
C220 C222 1.353 . S
C220 N223 1.314 . S
C220 H226 0.930 . S
C221 N223 1.279 . S
C221 C224 1.358 . S
C221 H227 0.930 . S
C222 C220 1.353 . S
C222 C225 1.348 . S
C222 H260 0.929 . S
N223 Li178 1.990 . S
N223 C220 1.314 . S
N223 C221 1.279 . S
C224 C221 1.358 . S
C224 C225 1.356 . S
C224 H261 0.930 . S
C225 C222 1.348 . S
C225 C224 1.356 . S
H226 C220 0.930 . S
H227 C221 0.930 . S
C228 N229 1.314 . S
C228 C230 1.353 . S
C228 H234 0.930 . S
N229 Li179 1.990 . S
N229 C228 1.314 . S
N229 C232 1.279 . S
C230 C228 1.353 . S
C230 C233 1.348 . S
C230 H262 0.929 1_455 S
C231 C232 1.358 . S
C231 C233 1.356 . S
C231 H263 0.930 . S
C232 N229 1.279 . S
C232 C231 1.358 . S
C232 H235 0.930 . S
C233 C230 1.348 . S
C233 C231 1.356 . S
H234 C228 0.930 . S
H235 C232 0.930 . S
O236 Li176 1.956 . S
O236 Li177 1.970 . S
O236 Li178 1.961 . S
O236 C180 1.325 . S
O237 Li176 1.970 . S
O237 Li177 1.956 . S
O237 Li179 1.961 . S
O237 C186 1.325 . S
O238 Li176 1.961 . S
O238 Li178 1.956 . S
O238 Li179 1.970 . S
O238 C208 1.325 . S
O239 Li177 1.961 . S
O239 Li178 1.970 . S
O239 Li179 1.956 . S
O239 C214 1.325 . S
H240 C182 0.929 . S
H241 C183 0.930 . S
H242 C184 0.930 . S
H243 C185 0.930 . S
H244 C187 0.930 . S
H245 C189 0.929 . S
H246 C190 0.930 . S
H247 C191 0.930 . S
H248 C194 0.930 . S
H249 C197 0.929 . S
H250 C202 0.929 . S
H251 C203 0.930 . S
H252 C210 0.929 . S
H253 C211 0.930 . S
H254 C212 0.930 . S
H255 C213 0.930 . S
H256 C215 0.929 . S
H257 C216 0.930 . S
H258 C217 0.930 . S
H259 C218 0.930 . S
H260 C222 0.929 . S
H261 C224 0.930 . S
H262 C230 0.929 1_655 S
H263 C231 0.930 . S
Li264 N281 1.990 . S
Li264 O324 1.956 . S
Li264 O325 1.970 . S
Li264 O326 1.961 . S
Li265 N289 1.990 . S
Li265 O324 1.970 . S
Li265 O325 1.956 . S
Li265 O327 1.961 . S
Li266 N311 1.990 . S
Li266 O324 1.961 . S
Li266 O326 1.956 . S
Li266 O327 1.970 . S
Li267 N317 1.990 . S
Li267 O325 1.961 . S
Li267 O326 1.970 . S
Li267 O327 1.956 . S
C268 C270 1.348 . S
C268 C271 1.356 . S
C268 O324 1.325 . S
N269 C272 1.314 . S
N269 C273 1.279 . S
C270 C268 1.348 . S
C270 C272 1.353 . S
C270 H328 0.929 . S
C271 C268 1.356 . S
C271 C273 1.358 . S
C271 H329 0.930 . S
C272 N269 1.314 . S
C272 C270 1.353 . S
C272 H330 0.930 . S
C273 N269 1.279 . S
C273 C271 1.358 . S
C273 H331 0.930 . S
C274 C277 1.348 . S
C274 C278 1.356 . S
C274 O325 1.325 . S
C275 N276 1.279 . S
C275 C278 1.358 . S
C275 H332 0.930 . S
N276 C275 1.279 . S
N276 C279 1.314 . S
C277 C274 1.348 . S
C277 C279 1.353 . S
C277 H333 0.929 . S
C278 C274 1.356 . S
C278 C275 1.358 . S
C278 H334 0.930 . S
C279 N276 1.314 . S
C279 C277 1.353 . S
C279 H335 0.930 . S
C280 N281 1.314 . S
C280 C285 1.353 . S
C280 H286 0.930 . S
N281 Li264 1.990 . S
N281 C280 1.314 . S
N281 C283 1.279 . S
C282 C283 1.358 . S
C282 C284 1.356 . S
C282 H336 0.930 . S
C283 N281 1.279 . S
C283 C282 1.358 . S
C283 H287 0.930 . S
C284 C282 1.356 . S
C284 C285 1.348 . S
C285 C280 1.353 . S
C285 C284 1.348 . S
C285 H337 0.929 . S
H286 C280 0.930 . S
H287 C283 0.930 . S
C288 N289 1.314 . S
C288 C290 1.353 . S
C288 H294 0.930 . S
N289 Li265 1.990 . S
N289 C288 1.314 . S
N289 C292 1.279 . S
C290 C288 1.353 . S
C290 C293 1.348 . S
C290 H338 0.929 . S
C291 C292 1.358 . S
C291 C293 1.356 . S
C291 H339 0.930 . S
C292 N289 1.279 . S
C292 C291 1.358 . S
C292 H295 0.930 . S
C293 C290 1.348 . S
C293 C291 1.356 . S
H294 C288 0.930 . S
H295 C292 0.930 . S
C296 C298 1.348 . S
C296 C299 1.356 . S
C296 O326 1.325 . S
N297 C300 1.314 . S
N297 C301 1.279 . S
C298 C296 1.348 . S
C298 C300 1.353 . S
C298 H340 0.929 . S
C299 C296 1.356 . S
C299 C301 1.358 . S
C299 H341 0.930 . S
C300 N297 1.314 . S
C300 C298 1.353 . S
C300 H342 0.930 . S
C301 N297 1.279 . S
C301 C299 1.358 . S
C301 H343 0.930 . S
C302 C303 1.348 . S
C302 C304 1.356 . S
C302 O327 1.325 . S
C303 C302 1.348 . S
C303 C305 1.353 . S
C303 H344 0.929 . S
C304 C302 1.356 . S
C304 C306 1.358 . S
C304 H345 0.930 . S
C305 C303 1.353 . S
C305 N307 1.314 . S
C305 H346 0.930 . S
C306 C304 1.358 . S
C306 N307 1.279 . S
C306 H347 0.930 . S
N307 C305 1.314 . S
N307 C306 1.279 . S
C308 C310 1.353 . S
C308 N311 1.314 . S
C308 H314 0.930 . S
C309 N311 1.279 . S
C309 C312 1.358 . S
C309 H315 0.930 . S
C310 C308 1.353 . S
C310 C313 1.348 . S
C310 H348 0.929 1_655 S
N311 Li266 1.990 . S
N311 C308 1.314 . S
N311 C309 1.279 . S
C312 C309 1.358 . S
C312 C313 1.356 . S
C312 H349 0.930 . S
C313 C310 1.348 . S
C313 C312 1.356 . S
H314 C308 0.930 . S
H315 C309 0.930 . S
C316 N317 1.314 . S
C316 C318 1.353 . S
C316 H322 0.930 . S
N317 Li267 1.990 . S
N317 C316 1.314 . S
N317 C320 1.279 . S
C318 C316 1.353 . S
C318 C321 1.348 . S
C318 H350 0.929 . S
C319 C320 1.358 . S
C319 C321 1.356 . S
C319 H351 0.930 . S
C320 N317 1.279 . S
C320 C319 1.358 . S
C320 H323 0.930 . S
C321 C318 1.348 . S
C321 C319 1.356 . S
H322 C316 0.930 . S
H323 C320 0.930 . S
O324 Li264 1.956 . S
O324 Li265 1.970 . S
O324 Li266 1.961 . S
O324 C268 1.325 . S
O325 Li264 1.970 . S
O325 Li265 1.956 . S
O325 Li267 1.961 . S
O325 C274 1.325 . S
O326 Li264 1.961 . S
O326 Li266 1.956 . S
O326 Li267 1.970 . S
O326 C296 1.325 . S
O327 Li265 1.961 . S
O327 Li266 1.970 . S
O327 Li267 1.956 . S
O327 C302 1.325 . S
H328 C270 0.929 . S
H329 C271 0.930 . S
H330 C272 0.930 . S
H331 C273 0.930 . S
H332 C275 0.930 . S
H333 C277 0.929 . S
H334 C278 0.930 . S
H335 C279 0.930 . S
H336 C282 0.930 . S
H337 C285 0.929 . S
H338 C290 0.929 . S
H339 C291 0.930 . S
H340 C298 0.929 . S
H341 C299 0.930 . S
H342 C300 0.930 . S
H343 C301 0.930 . S
H344 C303 0.929 . S
H345 C304 0.930 . S
H346 C305 0.930 . S
H347 C306 0.930 . S
H348 C310 0.929 1_455 S
H349 C312 0.930 . S
H350 C318 0.929 . S
H351 C319 0.930 . S
Li352 N369 1.990 . S
Li352 O412 1.956 . S
Li352 O413 1.970 . S
Li352 O414 1.961 . S
Li353 N377 1.990 . S
Li353 O412 1.970 . S
Li353 O413 1.956 . S
Li353 O415 1.961 . S
Li354 N399 1.990 . S
Li354 O412 1.961 . S
Li354 O414 1.956 . S
Li354 O415 1.970 . S
Li355 N405 1.990 . S
Li355 O413 1.961 . S
Li355 O414 1.970 . S
Li355 O415 1.956 . S
C356 C358 1.348 . S
C356 C359 1.356 . S
C356 O412 1.325 . S
N357 C360 1.314 . S
N357 C361 1.279 . S
C358 C356 1.348 . S
C358 C360 1.353 . S
C358 H416 0.929 . S
C359 C356 1.356 . S
C359 C361 1.358 . S
C359 H417 0.930 . S
C360 N357 1.314 . S
C360 C358 1.353 . S
C360 H418 0.930 . S
C361 N357 1.279 . S
C361 C359 1.358 . S
C361 H419 0.930 . S
C362 C365 1.348 . S
C362 C366 1.356 . S
C362 O413 1.325 . S
C363 N364 1.279 . S
C363 C366 1.358 . S
C363 H420 0.930 . S
N364 C363 1.279 . S
N364 C367 1.314 . S
C365 C362 1.348 . S
C365 C367 1.353 . S
C365 H421 0.929 . S
C366 C362 1.356 . S
C366 C363 1.358 . S
C366 H422 0.930 . S
C367 N364 1.314 . S
C367 C365 1.353 . S
C367 H423 0.930 . S
C368 N369 1.314 . S
C368 C373 1.353 . S
C368 H374 0.930 . S
N369 Li352 1.990 . S
N369 C368 1.314 . S
N369 C371 1.279 . S
C370 C371 1.358 . S
C370 C372 1.356 . S
C370 H424 0.930 . S
C371 N369 1.279 . S
C371 C370 1.358 . S
C371 H375 0.930 . S
C372 C370 1.356 . S
C372 C373 1.348 . S
C373 C368 1.353 . S
C373 C372 1.348 . S
C373 H425 0.929 . S
H374 C368 0.930 . S
H375 C371 0.930 . S
C376 N377 1.314 . S
C376 C378 1.353 . S
C376 H382 0.930 . S
N377 Li353 1.990 . S
N377 C376 1.314 . S
N377 C380 1.279 . S
C378 C376 1.353 . S
C378 C381 1.348 . S
C378 H426 0.929 . S
C379 C380 1.358 . S
C379 C381 1.356 . S
C379 H427 0.930 . S
C380 N377 1.279 . S
C380 C379 1.358 . S
C380 H383 0.930 . S
C381 C378 1.348 . S
C381 C379 1.356 . S
H382 C376 0.930 . S
H383 C380 0.930 . S
C384 C386 1.348 . S
C384 C387 1.356 . S
C384 O414 1.325 . S
N385 C388 1.314 . S
N385 C389 1.279 . S
C386 C384 1.348 . S
C386 C388 1.353 . S
C386 H428 0.929 . S
C387 C384 1.356 . S
C387 C389 1.358 . S
C387 H429 0.930 . S
C388 N385 1.314 . S
C388 C386 1.353 . S
C388 H430 0.930 . S
C389 N385 1.279 . S
C389 C387 1.358 . S
C389 H431 0.930 . S
C390 C391 1.348 . S
C390 C392 1.356 . S
C390 O415 1.325 . S
C391 C390 1.348 . S
C391 C393 1.353 . S
C391 H432 0.929 . S
C392 C390 1.356 . S
C392 C394 1.358 . S
C392 H433 0.930 . S
C393 C391 1.353 . S
C393 N395 1.314 . S
C393 H434 0.930 . S
C394 C392 1.358 . S
C394 N395 1.279 . S
C394 H435 0.930 . S
N395 C393 1.314 . S
N395 C394 1.279 . S
C396 C398 1.353 . S
C396 N399 1.314 . S
C396 H402 0.930 . S
C397 N399 1.279 . S
C397 C400 1.358 . S
C397 H403 0.930 . S
C398 C396 1.353 . S
C398 C401 1.348 . S
C398 H436 0.929 . S
N399 Li354 1.990 . S
N399 C396 1.314 . S
N399 C397 1.279 . S
C400 C397 1.358 . S
C400 C401 1.356 . S
C400 H437 0.930 . S
C401 C398 1.348 . S
C401 C400 1.356 . S
H402 C396 0.930 . S
H403 C397 0.930 . S
C404 N405 1.314 . S
C404 C406 1.353 . S
C404 H410 0.930 . S
N405 Li355 1.990 . S
N405 C404 1.314 . S
N405 C408 1.279 . S
C406 C404 1.353 . S
C406 C409 1.348 . S
C406 H438 0.929 . S
C407 C408 1.358 . S
C407 C409 1.356 . S
C407 H439 0.930 . S
C408 N405 1.279 . S
C408 C407 1.358 . S
C408 H411 0.930 . S
C409 C406 1.348 . S
C409 C407 1.356 . S
H410 C404 0.930 . S
H411 C408 0.930 . S
O412 Li352 1.956 . S
O412 Li353 1.970 . S
O412 Li354 1.961 . S
O412 C356 1.325 . S
O413 Li352 1.970 . S
O413 Li353 1.956 . S
O413 Li355 1.961 . S
O413 C362 1.325 . S
O414 Li352 1.961 . S
O414 Li354 1.956 . S
O414 Li355 1.970 . S
O414 C384 1.325 . S
O415 Li353 1.961 . S
O415 Li354 1.970 . S
O415 Li355 1.956 . S
O415 C390 1.325 . S
H416 C358 0.929 . S
H417 C359 0.930 . S
H418 C360 0.930 . S
H419 C361 0.930 . S
H420 C363 0.930 . S
H421 C365 0.929 . S
H422 C366 0.930 . S
H423 C367 0.930 . S
H424 C370 0.930 . S
H425 C373 0.929 . S
H426 C378 0.929 . S
H427 C379 0.930 . S
H428 C386 0.929 . S
H429 C387 0.930 . S
H430 C388 0.930 . S
H431 C389 0.930 . S
H432 C391 0.929 . S
H433 C392 0.930 . S
H434 C393 0.930 . S
H435 C394 0.930 . S
H436 C398 0.929 . S
H437 C400 0.930 . S
H438 C406 0.929 . S
H439 C407 0.930 . S
Li440 N457 1.990 . S
Li440 O500 1.956 . S
Li440 O501 1.970 . S
Li440 O502 1.961 . S
Li441 N465 1.990 . S
Li441 O500 1.970 . S
Li441 O501 1.956 . S
Li441 O503 1.961 . S
Li442 N487 1.990 . S
Li442 O500 1.961 . S
Li442 O502 1.956 . S
Li442 O503 1.970 . S
Li443 N493 1.990 . S
Li443 O501 1.961 . S
Li443 O502 1.970 . S
Li443 O503 1.956 . S
C444 C446 1.348 . S
C444 C447 1.356 . S
C444 O500 1.325 . S
N445 C448 1.314 . S
N445 C449 1.279 . S
C446 C444 1.348 . S
C446 C448 1.353 . S
C446 H504 0.929 . S
C447 C444 1.356 . S
C447 C449 1.358 . S
C447 H505 0.930 . S
C448 N445 1.314 . S
C448 C446 1.353 . S
C448 H506 0.930 . S
C449 N445 1.279 . S
C449 C447 1.358 . S
C449 H507 0.930 . S
C450 C453 1.348 . S
C450 C454 1.356 . S
C450 O501 1.325 . S
C451 N452 1.279 . S
C451 C454 1.358 . S
C451 H508 0.930 . S
N452 C451 1.279 . S
N452 C455 1.314 . S
C453 C450 1.348 . S
C453 C455 1.353 . S
C453 H509 0.929 . S
C454 C450 1.356 . S
C454 C451 1.358 . S
C454 H510 0.930 . S
C455 N452 1.314 . S
C455 C453 1.353 . S
C455 H511 0.930 . S
C456 N457 1.314 . S
C456 C461 1.353 . S
C456 H462 0.930 . S
N457 Li440 1.990 . S
N457 C456 1.314 . S
N457 C459 1.279 . S
C458 C459 1.358 . S
C458 C460 1.356 . S
C458 H512 0.930 . S
C459 N457 1.279 . S
C459 C458 1.358 . S
C459 H463 0.930 . S
C460 C458 1.356 . S
C460 C461 1.348 . S
C461 C456 1.353 . S
C461 C460 1.348 . S
C461 H513 0.929 1_556 S
H462 C456 0.930 . S
H463 C459 0.930 . S
C464 N465 1.314 . S
C464 C466 1.353 . S
C464 H470 0.930 . S
N465 Li441 1.990 . S
N465 C464 1.314 . S
N465 C468 1.279 . S
C466 C464 1.353 . S
C466 C469 1.348 . S
C466 H514 0.929 . S
C467 C468 1.358 . S
C467 C469 1.356 . S
C467 H515 0.930 1_565 S
C468 N465 1.279 . S
C468 C467 1.358 . S
C468 H471 0.930 . S
C469 C466 1.348 . S
C469 C467 1.356 . S
H470 C464 0.930 . S
H471 C468 0.930 . S
C472 C474 1.348 . S
C472 C475 1.356 . S
C472 O502 1.325 . S
N473 C476 1.314 . S
N473 C477 1.279 . S
C474 C472 1.348 . S
C474 C476 1.353 . S
C474 H516 0.929 . S
C475 C472 1.356 . S
C475 C477 1.358 . S
C475 H517 0.930 . S
C476 N473 1.314 . S
C476 C474 1.353 . S
C476 H518 0.930 . S
C477 N473 1.279 . S
C477 C475 1.358 . S
C477 H519 0.930 . S
C478 C479 1.348 . S
C478 C480 1.356 . S
C478 O503 1.325 . S
C479 C478 1.348 . S
C479 C481 1.353 . S
C479 H520 0.929 . S
C480 C478 1.356 . S
C480 C482 1.358 . S
C480 H521 0.930 . S
C481 C479 1.353 . S
C481 N483 1.314 . S
C481 H522 0.930 . S
C482 C480 1.358 . S
C482 N483 1.279 . S
C482 H523 0.930 . S
N483 C481 1.314 . S
N483 C482 1.279 . S
C484 C486 1.353 . S
C484 N487 1.314 . S
C484 H490 0.930 . S
C485 N487 1.279 . S
C485 C488 1.358 . S
C485 H491 0.930 . S
C486 C484 1.353 . S
C486 C489 1.348 . S
C486 H524 0.929 . S
N487 Li442 1.990 . S
N487 C484 1.314 . S
N487 C485 1.279 . S
C488 C485 1.358 . S
C488 C489 1.356 . S
C488 H525 0.930 . S
C489 C486 1.348 . S
C489 C488 1.356 . S
H490 C484 0.930 . S
H491 C485 0.930 . S
C492 N493 1.314 . S
C492 C494 1.353 . S
C492 H498 0.930 . S
N493 Li443 1.990 . S
N493 C492 1.314 . S
N493 C496 1.279 . S
C494 C492 1.353 . S
C494 C497 1.348 . S
C494 H526 0.929 . S
C495 C496 1.358 . S
C495 C497 1.356 . S
C495 H527 0.930 . S
C496 N493 1.279 . S
C496 C495 1.358 . S
C496 H499 0.930 . S
C497 C494 1.348 . S
C497 C495 1.356 . S
H498 C492 0.930 . S
H499 C496 0.930 . S
O500 Li440 1.956 . S
O500 Li441 1.970 . S
O500 Li442 1.961 . S
O500 C444 1.325 . S
O501 Li440 1.970 . S
O501 Li441 1.956 . S
O501 Li443 1.961 . S
O501 C450 1.325 . S
O502 Li440 1.961 . S
O502 Li442 1.956 . S
O502 Li443 1.970 . S
O502 C472 1.325 . S
O503 Li441 1.961 . S
O503 Li442 1.970 . S
O503 Li443 1.956 . S
O503 C478 1.325 . S
H504 C446 0.929 . S
H505 C447 0.930 . S
H506 C448 0.930 . S
H507 C449 0.930 . S
H508 C451 0.930 . S
H509 C453 0.929 . S
H510 C454 0.930 . S
H511 C455 0.930 . S
H512 C458 0.930 . S
H513 C461 0.929 1_554 S
H514 C466 0.929 . S
H515 C467 0.930 1_545 S
H516 C474 0.929 . S
H517 C475 0.930 . S
H518 C476 0.930 . S
H519 C477 0.930 . S
H520 C479 0.929 . S
H521 C480 0.930 . S
H522 C481 0.930 . S
H523 C482 0.930 . S
H524 C486 0.929 . S
H525 C488 0.930 . S
H526 C494 0.929 . S
H527 C495 0.930 . S
Li528 N545 1.990 . S
Li528 O588 1.956 . S
Li528 O589 1.970 . S
Li528 O590 1.961 . S
Li529 N553 1.990 . S
Li529 O588 1.970 . S
Li529 O589 1.956 . S
Li529 O591 1.961 . S
Li530 N575 1.990 . S
Li530 O588 1.961 . S
Li530 O590 1.956 . S
Li530 O591 1.970 . S
Li531 N581 1.990 . S
Li531 O589 1.961 . S
Li531 O590 1.970 . S
Li531 O591 1.956 . S
C532 C534 1.348 . S
C532 C535 1.356 . S
C532 O588 1.325 . S
N533 C536 1.314 . S
N533 C537 1.279 . S
C534 C532 1.348 . S
C534 C536 1.353 . S
C534 H592 0.929 . S
C535 C532 1.356 . S
C535 C537 1.358 . S
C535 H593 0.930 . S
C536 N533 1.314 . S
C536 C534 1.353 . S
C536 H594 0.930 . S
C537 N533 1.279 . S
C537 C535 1.358 . S
C537 H595 0.930 . S
C538 C541 1.348 . S
C538 C542 1.356 . S
C538 O589 1.325 . S
C539 N540 1.279 . S
C539 C542 1.358 . S
C539 H596 0.930 . S
N540 C539 1.279 . S
N540 C543 1.314 . S
C541 C538 1.348 . S
C541 C543 1.353 . S
C541 H597 0.929 . S
C542 C538 1.356 . S
C542 C539 1.358 . S
C542 H598 0.930 . S
C543 N540 1.314 . S
C543 C541 1.353 . S
C543 H599 0.930 . S
C544 N545 1.314 . S
C544 C549 1.353 . S
C544 H550 0.930 . S
N545 Li528 1.990 . S
N545 C544 1.314 . S
N545 C547 1.279 . S
C546 C547 1.358 . S
C546 C548 1.356 . S
C546 H600 0.930 . S
C547 N545 1.279 . S
C547 C546 1.358 . S
C547 H551 0.930 . S
C548 C546 1.356 . S
C548 C549 1.348 . S
C549 C544 1.353 . S
C549 C548 1.348 . S
C549 H601 0.929 . S
H550 C544 0.930 . S
H551 C547 0.930 . S
C552 N553 1.314 . S
C552 C554 1.353 . S
C552 H558 0.930 . S
N553 Li529 1.990 . S
N553 C552 1.314 . S
N553 C556 1.279 . S
C554 C552 1.353 . S
C554 C557 1.348 . S
C554 H602 0.929 . S
C555 C556 1.358 . S
C555 C557 1.356 . S
C555 H603 0.930 . S
C556 N553 1.279 . S
C556 C555 1.358 . S
C556 H559 0.930 . S
C557 C554 1.348 . S
C557 C555 1.356 . S
H558 C552 0.930 . S
H559 C556 0.930 . S
C560 C562 1.348 . S
C560 C563 1.356 . S
C560 O590 1.325 . S
N561 C564 1.314 . S
N561 C565 1.279 . S
C562 C560 1.348 . S
C562 C564 1.353 . S
C562 H604 0.929 . S
C563 C560 1.356 . S
C563 C565 1.358 . S
C563 H605 0.930 . S
C564 N561 1.314 . S
C564 C562 1.353 . S
C564 H606 0.930 . S
C565 N561 1.279 . S
C565 C563 1.358 . S
C565 H607 0.930 . S
C566 C567 1.348 . S
C566 C568 1.356 . S
C566 O591 1.325 . S
C567 C566 1.348 . S
C567 C569 1.353 . S
C567 H608 0.929 . S
C568 C566 1.356 . S
C568 C570 1.358 . S
C568 H609 0.930 . S
C569 C567 1.353 . S
C569 N571 1.314 . S
C569 H610 0.930 . S
C570 C568 1.358 . S
C570 N571 1.279 . S
C570 H611 0.930 . S
N571 C569 1.314 . S
N571 C570 1.279 . S
C572 C574 1.353 . S
C572 N575 1.314 . S
C572 H578 0.930 . S
C573 N575 1.279 . S
C573 C576 1.358 . S
C573 H579 0.930 . S
C574 C572 1.353 . S
C574 C577 1.348 . S
C574 H612 0.929 . S
N575 Li530 1.990 . S
N575 C572 1.314 . S
N575 C573 1.279 . S
C576 C573 1.358 . S
C576 C577 1.356 . S
C576 H613 0.930 . S
C577 C574 1.348 . S
C577 C576 1.356 . S
H578 C572 0.930 . S
H579 C573 0.930 . S
C580 N581 1.314 . S
C580 C582 1.353 . S
C580 H586 0.930 . S
N581 Li531 1.990 . S
N581 C580 1.314 . S
N581 C584 1.279 . S
C582 C580 1.353 . S
C582 C585 1.348 . S
C582 H614 0.929 1_556 S
C583 C584 1.358 . S
C583 C585 1.356 . S
C583 H615 0.930 . S
C584 N581 1.279 . S
C584 C583 1.358 . S
C584 H587 0.930 . S
C585 C582 1.348 . S
C585 C583 1.356 . S
H586 C580 0.930 . S
H587 C584 0.930 . S
O588 Li528 1.956 . S
O588 Li529 1.970 . S
O588 Li530 1.961 . S
O588 C532 1.325 . S
O589 Li528 1.970 . S
O589 Li529 1.956 . S
O589 Li531 1.961 . S
O589 C538 1.325 . S
O590 Li528 1.961 . S
O590 Li530 1.956 . S
O590 Li531 1.970 . S
O590 C560 1.325 . S
O591 Li529 1.961 . S
O591 Li530 1.970 . S
O591 Li531 1.956 . S
O591 C566 1.325 . S
H592 C534 0.929 . S
H593 C535 0.930 . S
H594 C536 0.930 . S
H595 C537 0.930 . S
H596 C539 0.930 . S
H597 C541 0.929 . S
H598 C542 0.930 . S
H599 C543 0.930 . S
H600 C546 0.930 . S
H601 C549 0.929 . S
H602 C554 0.929 . S
H603 C555 0.930 . S
H604 C562 0.929 . S
H605 C563 0.930 . S
H606 C564 0.930 . S
H607 C565 0.930 . S
H608 C567 0.929 . S
H609 C568 0.930 . S
H610 C569 0.930 . S
H611 C570 0.930 . S
H612 C574 0.929 . S
H613 C576 0.930 . S
H614 C582 0.929 1_554 S
H615 C583 0.930 . S
Li616 N633 1.990 . S
Li616 O676 1.956 . S
Li616 O677 1.970 . S
Li616 O678 1.961 . S
Li617 N641 1.990 . S
Li617 O676 1.970 . S
Li617 O677 1.956 . S
Li617 O679 1.961 . S
Li618 N663 1.990 . S
Li618 O676 1.961 . S
Li618 O678 1.956 . S
Li618 O679 1.970 . S
Li619 N669 1.990 . S
Li619 O677 1.961 . S
Li619 O678 1.970 . S
Li619 O679 1.956 . S
C620 C622 1.348 . S
C620 C623 1.356 . S
C620 O676 1.325 . S
N621 C624 1.314 . S
N621 C625 1.279 . S
C622 C620 1.348 . S
C622 C624 1.353 . S
C622 H680 0.929 . S
C623 C620 1.356 . S
C623 C625 1.358 . S
C623 H681 0.930 . S
C624 N621 1.314 . S
C624 C622 1.353 . S
C624 H682 0.930 . S
C625 N621 1.279 . S
C625 C623 1.358 . S
C625 H683 0.930 . S
C626 C629 1.348 . S
C626 C630 1.356 . S
C626 O677 1.325 . S
C627 N628 1.279 . S
C627 C630 1.358 . S
C627 H684 0.930 . S
N628 C627 1.279 . S
N628 C631 1.314 . S
C629 C626 1.348 . S
C629 C631 1.353 . S
C629 H685 0.929 . S
C630 C626 1.356 . S
C630 C627 1.358 . S
C630 H686 0.930 . S
C631 N628 1.314 . S
C631 C629 1.353 . S
C631 H687 0.930 . S
C632 N633 1.314 . S
C632 C637 1.353 . S
C632 H638 0.930 . S
N633 Li616 1.990 . S
N633 C632 1.314 . S
N633 C635 1.279 . S
C634 C635 1.358 . S
C634 C636 1.356 . S
C634 H688 0.930 . S
C635 N633 1.279 . S
C635 C634 1.358 . S
C635 H639 0.930 . S
C636 C634 1.356 . S
C636 C637 1.348 . S
C637 C632 1.353 . S
C637 C636 1.348 . S
C637 H689 0.929 . S
H638 C632 0.930 . S
H639 C635 0.930 . S
C640 N641 1.314 . S
C640 C642 1.353 . S
C640 H646 0.930 . S
N641 Li617 1.990 . S
N641 C640 1.314 . S
N641 C644 1.279 . S
C642 C640 1.353 . S
C642 C645 1.348 . S
C642 H690 0.929 . S
C643 C644 1.358 . S
C643 C645 1.356 . S
C643 H691 0.930 . S
C644 N641 1.279 . S
C644 C643 1.358 . S
C644 H647 0.930 . S
C645 C642 1.348 . S
C645 C643 1.356 . S
H646 C640 0.930 . S
H647 C644 0.930 . S
C648 C650 1.348 . S
C648 C651 1.356 . S
C648 O678 1.325 . S
N649 C652 1.314 . S
N649 C653 1.279 . S
C650 C648 1.348 . S
C650 C652 1.353 . S
C650 H692 0.929 . S
C651 C648 1.356 . S
C651 C653 1.358 . S
C651 H693 0.930 . S
C652 N649 1.314 . S
C652 C650 1.353 . S
C652 H694 0.930 . S
C653 N649 1.279 . S
C653 C651 1.358 . S
C653 H695 0.930 . S
C654 C655 1.348 . S
C654 C656 1.356 . S
C654 O679 1.325 . S
C655 C654 1.348 . S
C655 C657 1.353 . S
C655 H696 0.929 . S
C656 C654 1.356 . S
C656 C658 1.358 . S
C656 H697 0.930 . S
C657 C655 1.353 . S
C657 N659 1.314 . S
C657 H698 0.930 . S
C658 C656 1.358 . S
C658 N659 1.279 . S
C658 H699 0.930 . S
N659 C657 1.314 . S
N659 C658 1.279 . S
C660 C662 1.353 . S
C660 N663 1.314 . S
C660 H666 0.930 . S
C661 N663 1.279 . S
C661 C664 1.358 . S
C661 H667 0.930 . S
C662 C660 1.353 . S
C662 C665 1.348 . S
C662 H700 0.929 1_655 S
N663 Li618 1.990 . S
N663 C660 1.314 . S
N663 C661 1.279 . S
C664 C661 1.358 . S
C664 C665 1.356 . S
C664 H701 0.930 . S
C665 C662 1.348 . S
C665 C664 1.356 . S
H666 C660 0.930 . S
H667 C661 0.930 . S
C668 N669 1.314 . S
C668 C670 1.353 . S
C668 H674 0.930 . S
N669 Li619 1.990 . S
N669 C668 1.314 . S
N669 C672 1.279 . S
C670 C668 1.353 . S
C670 C673 1.348 . S
C670 H702 0.929 . S
C671 C672 1.358 . S
C671 C673 1.356 . S
C671 H703 0.930 . S
C672 N669 1.279 . S
C672 C671 1.358 . S
C672 H675 0.930 . S
C673 C670 1.348 . S
C673 C671 1.356 . S
H674 C668 0.930 . S
H675 C672 0.930 . S
O676 Li616 1.956 . S
O676 Li617 1.970 . S
O676 Li618 1.961 . S
O676 C620 1.325 . S
O677 Li616 1.970 . S
O677 Li617 1.956 . S
O677 Li619 1.961 . S
O677 C626 1.325 . S
O678 Li616 1.961 . S
O678 Li618 1.956 . S
O678 Li619 1.970 . S
O678 C648 1.325 . S
O679 Li617 1.961 . S
O679 Li618 1.970 . S
O679 Li619 1.956 . S
O679 C654 1.325 . S
H680 C622 0.929 . S
H681 C623 0.930 . S
H682 C624 0.930 . S
H683 C625 0.930 . S
H684 C627 0.930 . S
H685 C629 0.929 . S
H686 C630 0.930 . S
H687 C631 0.930 . S
H688 C634 0.930 . S
H689 C637 0.929 . S
H690 C642 0.929 . S
H691 C643 0.930 . S
H692 C650 0.929 . S
H693 C651 0.930 . S
H694 C652 0.930 . S
H695 C653 0.930 . S
H696 C655 0.929 . S
H697 C656 0.930 . S
H698 C657 0.930 . S
H699 C658 0.930 . S
H700 C662 0.929 1_455 S
H701 C664 0.930 . S
H702 C670 0.929 . S
H703 C671 0.930 . S
Li704 N721 1.990 . S
Li704 O764 1.956 . S
Li704 O765 1.970 . S
Li704 O766 1.961 . S
Li705 N729 1.990 . S
Li705 O764 1.970 . S
Li705 O765 1.956 . S
Li705 O767 1.961 . S
Li706 N751 1.990 . S
Li706 O764 1.961 . S
Li706 O766 1.956 . S
Li706 O767 1.970 . S
Li707 N757 1.990 . S
Li707 O765 1.961 . S
Li707 O766 1.970 . S
Li707 O767 1.956 . S
C708 C710 1.348 . S
C708 C711 1.356 . S
C708 O764 1.325 . S
N709 C712 1.314 . S
N709 C713 1.279 . S
C710 C708 1.348 . S
C710 C712 1.353 . S
C710 H768 0.929 . S
C711 C708 1.356 . S
C711 C713 1.358 . S
C711 H769 0.930 . S
C712 N709 1.314 . S
C712 C710 1.353 . S
C712 H770 0.930 . S
C713 N709 1.279 . S
C713 C711 1.358 . S
C713 H771 0.930 . S
C714 C717 1.348 . S
C714 C718 1.356 . S
C714 O765 1.325 . S
C715 N716 1.279 . S
C715 C718 1.358 . S
C715 H772 0.930 . S
N716 C715 1.279 . S
N716 C719 1.314 . S
C717 C714 1.348 . S
C717 C719 1.353 . S
C717 H773 0.929 . S
C718 C714 1.356 . S
C718 C715 1.358 . S
C718 H774 0.930 . S
C719 N716 1.314 . S
C719 C717 1.353 . S
C719 H775 0.930 . S
C720 N721 1.314 . S
C720 C725 1.353 . S
C720 H726 0.930 . S
N721 Li704 1.990 . S
N721 C720 1.314 . S
N721 C723 1.279 . S
C722 C723 1.358 . S
C722 C724 1.356 . S
C722 H776 0.930 . S
C723 N721 1.279 . S
C723 C722 1.358 . S
C723 H727 0.930 . S
C724 C722 1.356 . S
C724 C725 1.348 . S
C725 C720 1.353 . S
C725 C724 1.348 . S
C725 H777 0.929 . S
H726 C720 0.930 . S
H727 C723 0.930 . S
C728 N729 1.314 . S
C728 C730 1.353 . S
C728 H734 0.930 . S
N729 Li705 1.990 . S
N729 C728 1.314 . S
N729 C732 1.279 . S
C730 C728 1.353 . S
C730 C733 1.348 . S
C730 H778 0.929 . S
C731 C732 1.358 . S
C731 C733 1.356 . S
C731 H779 0.930 . S
C732 N729 1.279 . S
C732 C731 1.358 . S
C732 H735 0.930 . S
C733 C730 1.348 . S
C733 C731 1.356 . S
H734 C728 0.930 . S
H735 C732 0.930 . S
C736 C738 1.348 . S
C736 C739 1.356 . S
C736 O766 1.325 . S
N737 C740 1.314 . S
N737 C741 1.279 . S
C738 C736 1.348 . S
C738 C740 1.353 . S
C738 H780 0.929 . S
C739 C736 1.356 . S
C739 C741 1.358 . S
C739 H781 0.930 . S
C740 N737 1.314 . S
C740 C738 1.353 . S
C740 H782 0.930 . S
C741 N737 1.279 . S
C741 C739 1.358 . S
C741 H783 0.930 . S
C742 C743 1.348 . S
C742 C744 1.356 . S
C742 O767 1.325 . S
C743 C742 1.348 . S
C743 C745 1.353 . S
C743 H784 0.929 . S
C744 C742 1.356 . S
C744 C746 1.358 . S
C744 H785 0.930 . S
C745 C743 1.353 . S
C745 N747 1.314 . S
C745 H786 0.930 . S
C746 C744 1.358 . S
C746 N747 1.279 . S
C746 H787 0.930 . S
N747 C745 1.314 . S
N747 C746 1.279 . S
C748 C750 1.353 . S
C748 N751 1.314 . S
C748 H754 0.930 . S
C749 N751 1.279 . S
C749 C752 1.358 . S
C749 H755 0.930 . S
C750 C748 1.353 . S
C750 C753 1.348 . S
C750 H788 0.929 . S
N751 Li706 1.990 . S
N751 C748 1.314 . S
N751 C749 1.279 . S
C752 C749 1.358 . S
C752 C753 1.356 . S
C752 H789 0.930 . S
C753 C750 1.348 . S
C753 C752 1.356 . S
H754 C748 0.930 . S
H755 C749 0.930 . S
C756 N757 1.314 . S
C756 C758 1.353 . S
C756 H762 0.930 . S
N757 Li707 1.990 . S
N757 C756 1.314 . S
N757 C760 1.279 . S
C758 C756 1.353 . S
C758 C761 1.348 . S
C758 H790 0.929 1_455 S
C759 C760 1.358 . S
C759 C761 1.356 . S
C759 H791 0.930 . S
C760 N757 1.279 . S
C760 C759 1.358 . S
C760 H763 0.930 . S
C761 C758 1.348 . S
C761 C759 1.356 . S
H762 C756 0.930 . S
H763 C760 0.930 . S
O764 Li704 1.956 . S
O764 Li705 1.970 . S
O764 Li706 1.961 . S
O764 C708 1.325 . S
O765 Li704 1.970 . S
O765 Li705 1.956 . S
O765 Li707 1.961 . S
O765 C714 1.325 . S
O766 Li704 1.961 . S
O766 Li706 1.956 . S
O766 Li707 1.970 . S
O766 C736 1.325 . S
O767 Li705 1.961 . S
O767 Li706 1.970 . S
O767 Li707 1.956 . S
O767 C742 1.325 . S
H768 C710 0.929 . S
H769 C711 0.930 . S
H770 C712 0.930 . S
H771 C713 0.930 . S
H772 C715 0.930 . S
H773 C717 0.929 . S
H774 C718 0.930 . S
H775 C719 0.930 . S
H776 C722 0.930 . S
H777 C725 0.929 . S
H778 C730 0.929 . S
H779 C731 0.930 . S
H780 C738 0.929 . S
H781 C739 0.930 . S
H782 C740 0.930 . S
H783 C741 0.930 . S
H784 C743 0.929 . S
H785 C744 0.930 . S
H786 C745 0.930 . S
H787 C746 0.930 . S
H788 C750 0.929 . S
H789 C752 0.930 . S
H790 C758 0.929 1_655 S
H791 C759 0.930 . S
Li792 N809 1.990 . S
Li792 O852 1.956 . S
Li792 O853 1.970 . S
Li792 O854 1.961 . S
Li793 N817 1.990 . S
Li793 O852 1.970 . S
Li793 O853 1.956 . S
Li793 O855 1.961 . S
Li794 N839 1.990 . S
Li794 O852 1.961 . S
Li794 O854 1.956 . S
Li794 O855 1.970 . S
Li795 N845 1.990 . S
Li795 O853 1.961 . S
Li795 O854 1.970 . S
Li795 O855 1.956 . S
C796 C798 1.348 . S
C796 C799 1.356 . S
C796 O852 1.325 . S
N797 C800 1.314 . S
N797 C801 1.279 . S
C798 C796 1.348 . S
C798 C800 1.353 . S
C798 H856 0.929 . S
C799 C796 1.356 . S
C799 C801 1.358 . S
C799 H857 0.930 . S
C800 N797 1.314 . S
C800 C798 1.353 . S
C800 H858 0.930 . S
C801 N797 1.279 . S
C801 C799 1.358 . S
C801 H859 0.930 . S
C802 C805 1.348 . S
C802 C806 1.356 . S
C802 O853 1.325 . S
C803 N804 1.279 . S
C803 C806 1.358 . S
C803 H860 0.930 . S
N804 C803 1.279 . S
N804 C807 1.314 . S
C805 C802 1.348 . S
C805 C807 1.353 . S
C805 H861 0.929 . S
C806 C802 1.356 . S
C806 C803 1.358 . S
C806 H862 0.930 . S
C807 N804 1.314 . S
C807 C805 1.353 . S
C807 H863 0.930 . S
C808 N809 1.314 . S
C808 C813 1.353 . S
C808 H814 0.930 . S
N809 Li792 1.990 . S
N809 C808 1.314 . S
N809 C811 1.279 . S
C810 C811 1.358 . S
C810 C812 1.356 . S
C810 H864 0.930 . S
C811 N809 1.279 . S
C811 C810 1.358 . S
C811 H815 0.930 . S
C812 C810 1.356 . S
C812 C813 1.348 . S
C813 C808 1.353 . S
C813 C812 1.348 . S
C813 H865 0.929 . S
H814 C808 0.930 . S
H815 C811 0.930 . S
C816 N817 1.314 . S
C816 C818 1.353 . S
C816 H822 0.930 . S
N817 Li793 1.990 . S
N817 C816 1.314 . S
N817 C820 1.279 . S
C818 C816 1.353 . S
C818 C821 1.348 . S
C818 H866 0.929 . S
C819 C820 1.358 . S
C819 C821 1.356 . S
C819 H867 0.930 . S
C820 N817 1.279 . S
C820 C819 1.358 . S
C820 H823 0.930 . S
C821 C818 1.348 . S
C821 C819 1.356 . S
H822 C816 0.930 . S
H823 C820 0.930 . S
C824 C826 1.348 . S
C824 C827 1.356 . S
C824 O854 1.325 . S
N825 C828 1.314 . S
N825 C829 1.279 . S
C826 C824 1.348 . S
C826 C828 1.353 . S
C826 H868 0.929 . S
C827 C824 1.356 . S
C827 C829 1.358 . S
C827 H869 0.930 . S
C828 N825 1.314 . S
C828 C826 1.353 . S
C828 H870 0.930 . S
C829 N825 1.279 . S
C829 C827 1.358 . S
C829 H871 0.930 . S
C830 C831 1.348 . S
C830 C832 1.356 . S
C830 O855 1.325 . S
C831 C830 1.348 . S
C831 C833 1.353 . S
C831 H872 0.929 . S
C832 C830 1.356 . S
C832 C834 1.358 . S
C832 H873 0.930 . S
C833 C831 1.353 . S
C833 N835 1.314 . S
C833 H874 0.930 . S
C834 C832 1.358 . S
C834 N835 1.279 . S
C834 H875 0.930 . S
N835 C833 1.314 . S
N835 C834 1.279 . S
C836 C838 1.353 . S
C836 N839 1.314 . S
C836 H842 0.930 . S
C837 N839 1.279 . S
C837 C840 1.358 . S
C837 H843 0.930 . S
C838 C836 1.353 . S
C838 C841 1.348 . S
C838 H876 0.929 . S
N839 Li794 1.990 . S
N839 C836 1.314 . S
N839 C837 1.279 . S
C840 C837 1.358 . S
C840 C841 1.356 . S
C840 H877 0.930 1_545 S
C841 C838 1.348 . S
C841 C840 1.356 . S
H842 C836 0.930 . S
H843 C837 0.930 . S
C844 N845 1.314 . S
C844 C846 1.353 . S
C844 H850 0.930 . S
N845 Li795 1.990 . S
N845 C844 1.314 . S
N845 C848 1.279 . S
C846 C844 1.353 . S
C846 C849 1.348 . S
C846 H878 0.929 . S
C847 C848 1.358 . S
C847 C849 1.356 . S
C847 H879 0.930 . S
C848 N845 1.279 . S
C848 C847 1.358 . S
C848 H851 0.930 . S
C849 C846 1.348 . S
C849 C847 1.356 . S
H850 C844 0.930 . S
H851 C848 0.930 . S
O852 Li792 1.956 . S
O852 Li793 1.970 . S
O852 Li794 1.961 . S
O852 C796 1.325 . S
O853 Li792 1.970 . S
O853 Li793 1.956 . S
O853 Li795 1.961 . S
O853 C802 1.325 . S
O854 Li792 1.961 . S
O854 Li794 1.956 . S
O854 Li795 1.970 . S
O854 C824 1.325 . S
O855 Li793 1.961 . S
O855 Li794 1.970 . S
O855 Li795 1.956 . S
O855 C830 1.325 . S
H856 C798 0.929 . S
H857 C799 0.930 . S
H858 C800 0.930 . S
H859 C801 0.930 . S
H860 C803 0.930 . S
H861 C805 0.929 . S
H862 C806 0.930 . S
H863 C807 0.930 . S
H864 C810 0.930 . S
H865 C813 0.929 . S
H866 C818 0.929 . S
H867 C819 0.930 . S
H868 C826 0.929 . S
H869 C827 0.930 . S
H870 C828 0.930 . S
H871 C829 0.930 . S
H872 C831 0.929 . S
H873 C832 0.930 . S
H874 C833 0.930 . S
H875 C834 0.930 . S
H876 C838 0.929 . S
H877 C840 0.930 1_565 S
H878 C846 0.929 . S
H879 C847 0.930 . S
Li880 N897 1.990 . S
Li880 O940 1.956 . S
Li880 O941 1.970 . S
Li880 O942 1.961 . S
Li881 N905 1.990 . S
Li881 O940 1.970 . S
Li881 O941 1.956 . S
Li881 O943 1.961 . S
Li882 N927 1.990 . S
Li882 O940 1.961 . S
Li882 O942 1.956 . S
Li882 O943 1.970 . S
Li883 N933 1.990 . S
Li883 O941 1.961 . S
Li883 O942 1.970 . S
Li883 O943 1.956 . S
C884 C886 1.348 . S
C884 C887 1.356 . S
C884 O940 1.325 . S
N885 C888 1.314 . S
N885 C889 1.279 . S
C886 C884 1.348 . S
C886 C888 1.353 . S
C886 H944 0.929 . S
C887 C884 1.356 . S
C887 C889 1.358 . S
C887 H945 0.930 . S
C888 N885 1.314 . S
C888 C886 1.353 . S
C888 H946 0.930 . S
C889 N885 1.279 . S
C889 C887 1.358 . S
C889 H947 0.930 . S
C890 C893 1.348 . S
C890 C894 1.356 . S
C890 O941 1.325 . S
C891 N892 1.279 . S
C891 C894 1.358 . S
C891 H948 0.930 . S
N892 C891 1.279 . S
N892 C895 1.314 . S
C893 C890 1.348 . S
C893 C895 1.353 . S
C893 H949 0.929 . S
C894 C890 1.356 . S
C894 C891 1.358 . S
C894 H950 0.930 . S
C895 N892 1.314 . S
C895 C893 1.353 . S
C895 H951 0.930 . S
C896 N897 1.314 . S
C896 C901 1.353 . S
C896 H902 0.930 . S
N897 Li880 1.990 . S
N897 C896 1.314 . S
N897 C899 1.279 . S
C898 C899 1.358 . S
C898 C900 1.356 . S
C898 H952 0.930 . S
C899 N897 1.279 . S
C899 C898 1.358 . S
C899 H903 0.930 . S
C900 C898 1.356 . S
C900 C901 1.348 . S
C901 C896 1.353 . S
C901 C900 1.348 . S
C901 H953 0.929 . S
H902 C896 0.930 . S
H903 C899 0.930 . S
C904 N905 1.314 . S
C904 C906 1.353 . S
C904 H910 0.930 . S
N905 Li881 1.990 . S
N905 C904 1.314 . S
N905 C908 1.279 . S
C906 C904 1.353 . S
C906 C909 1.348 . S
C906 H954 0.929 . S
C907 C908 1.358 . S
C907 C909 1.356 . S
C907 H955 0.930 . S
C908 N905 1.279 . S
C908 C907 1.358 . S
C908 H911 0.930 . S
C909 C906 1.348 . S
C909 C907 1.356 . S
H910 C904 0.930 . S
H911 C908 0.930 . S
C912 C914 1.348 . S
C912 C915 1.356 . S
C912 O942 1.325 . S
N913 C916 1.314 . S
N913 C917 1.279 . S
C914 C912 1.348 . S
C914 C916 1.353 . S
C914 H956 0.929 . S
C915 C912 1.356 . S
C915 C917 1.358 . S
C915 H957 0.930 . S
C916 N913 1.314 . S
C916 C914 1.353 . S
C916 H958 0.930 . S
C917 N913 1.279 . S
C917 C915 1.358 . S
C917 H959 0.930 . S
C918 C919 1.348 . S
C918 C920 1.356 . S
C918 O943 1.325 . S
C919 C918 1.348 . S
C919 C921 1.353 . S
C919 H960 0.929 . S
C920 C918 1.356 . S
C920 C922 1.358 . S
C920 H961 0.930 . S
C921 C919 1.353 . S
C921 N923 1.314 . S
C921 H962 0.930 . S
C922 C920 1.358 . S
C922 N923 1.279 . S
C922 H963 0.930 . S
N923 C921 1.314 . S
N923 C922 1.279 . S
C924 C926 1.353 . S
C924 N927 1.314 . S
C924 H930 0.930 . S
C925 N927 1.279 . S
C925 C928 1.358 . S
C925 H931 0.930 . S
C926 C924 1.353 . S
C926 C929 1.348 . S
C926 H964 0.929 . S
N927 Li882 1.990 . S
N927 C924 1.314 . S
N927 C925 1.279 . S
C928 C925 1.358 . S
C928 C929 1.356 . S
C928 H965 0.930 . S
C929 C926 1.348 . S
C929 C928 1.356 . S
H930 C924 0.930 . S
H931 C925 0.930 . S
C932 N933 1.314 . S
C932 C934 1.353 . S
C932 H938 0.930 . S
N933 Li883 1.990 . S
N933 C932 1.314 . S
N933 C936 1.279 . S
C934 C932 1.353 . S
C934 C937 1.348 . S
C934 H966 0.929 . S
C935 C936 1.358 . S
C935 C937 1.356 . S
C935 H967 0.930 . S
C936 N933 1.279 . S
C936 C935 1.358 . S
C936 H939 0.930 . S
C937 C934 1.348 . S
C937 C935 1.356 . S
H938 C932 0.930 . S
H939 C936 0.930 . S
O940 Li880 1.956 . S
O940 Li881 1.970 . S
O940 Li882 1.961 . S
O940 C884 1.325 . S
O941 Li880 1.970 . S
O941 Li881 1.956 . S
O941 Li883 1.961 . S
O941 C890 1.325 . S
O942 Li880 1.961 . S
O942 Li882 1.956 . S
O942 Li883 1.970 . S
O942 C912 1.325 . S
O943 Li881 1.961 . S
O943 Li882 1.970 . S
O943 Li883 1.956 . S
O943 C918 1.325 . S
H944 C886 0.929 . S
H945 C887 0.930 . S
H946 C888 0.930 . S
H947 C889 0.930 . S
H948 C891 0.930 . S
H949 C893 0.929 . S
H950 C894 0.930 . S
H951 C895 0.930 . S
H952 C898 0.930 . S
H953 C901 0.929 . S
H954 C906 0.929 . S
H955 C907 0.930 . S
H956 C914 0.929 . S
H957 C915 0.930 . S
H958 C916 0.930 . S
H959 C917 0.930 . S
H960 C919 0.929 . S
H961 C920 0.930 . S
H962 C921 0.930 . S
H963 C922 0.930 . S
H964 C926 0.929 . S
H965 C928 0.930 . S
H966 C934 0.929 . S
H967 C935 0.930 . S
Li968 N985 1.990 . S
Li968 O1028 1.956 . S
Li968 O1029 1.970 . S
Li968 O1030 1.961 . S
Li969 N993 1.990 . S
Li969 O1028 1.970 . S
Li969 O1029 1.956 . S
Li969 O1031 1.961 . S
Li970 N1015 1.990 . S
Li970 O1028 1.961 . S
Li970 O1030 1.956 . S
Li970 O1031 1.970 . S
Li971 N1021 1.990 . S
Li971 O1029 1.961 . S
Li971 O1030 1.970 . S
Li971 O1031 1.956 . S
C972 C974 1.348 . S
C972 C975 1.356 . S
C972 O1028 1.325 . S
N973 C976 1.314 . S
N973 C977 1.279 . S
C974 C972 1.348 . S
C974 C976 1.353 . S
C974 H1032 0.929 . S
C975 C972 1.356 . S
C975 C977 1.358 . S
C975 H1033 0.930 . S
C976 N973 1.314 . S
C976 C974 1.353 . S
C976 H1034 0.930 . S
C977 N973 1.279 . S
C977 C975 1.358 . S
C977 H1035 0.930 . S
C978 C981 1.348 . S
C978 C982 1.356 . S
C978 O1029 1.325 . S
C979 N980 1.279 . S
C979 C982 1.358 . S
C979 H1036 0.930 . S
N980 C979 1.279 . S
N980 C983 1.314 . S
C981 C978 1.348 . S
C981 C983 1.353 . S
C981 H1037 0.929 . S
C982 C978 1.356 . S
C982 C979 1.358 . S
C982 H1038 0.930 . S
C983 N980 1.314 . S
C983 C981 1.353 . S
C983 H1039 0.930 . S
C984 N985 1.314 . S
C984 C989 1.353 . S
C984 H990 0.930 . S
N985 Li968 1.990 . S
N985 C984 1.314 . S
N985 C987 1.279 . S
C986 C987 1.358 . S
C986 C988 1.356 . S
C986 H1040 0.930 . S
C987 N985 1.279 . S
C987 C986 1.358 . S
C987 H991 0.930 . S
C988 C986 1.356 . S
C988 C989 1.348 . S
C989 C984 1.353 . S
C989 C988 1.348 . S
C989 H1041 0.929 . S
H990 C984 0.930 . S
H991 C987 0.930 . S
C992 N993 1.314 . S
C992 C994 1.353 . S
C992 H998 0.930 . S
N993 Li969 1.990 . S
N993 C992 1.314 . S
N993 C996 1.279 . S
C994 C992 1.353 . S
C994 C997 1.348 . S
C994 H1042 0.929 . S
C995 C996 1.358 . S
C995 C997 1.356 . S
C995 H1043 0.930 . S
C996 N993 1.279 . S
C996 C995 1.358 . S
C996 H999 0.930 . S
C997 C994 1.348 . S
C997 C995 1.356 . S
H998 C992 0.930 . S
H999 C996 0.930 . S
C1000 C1002 1.348 . S
C1000 C1003 1.356 . S
C1000 O1030 1.325 . S
N1001 C1004 1.314 . S
N1001 C1005 1.279 . S
C1002 C1000 1.348 . S
C1002 C1004 1.353 . S
C1002 H1044 0.929 . S
C1003 C1000 1.356 . S
C1003 C1005 1.358 . S
C1003 H1045 0.930 . S
C1004 N1001 1.314 . S
C1004 C1002 1.353 . S
C1004 H1046 0.930 . S
C1005 N1001 1.279 . S
C1005 C1003 1.358 . S
C1005 H1047 0.930 . S
C1006 C1007 1.348 . S
C1006 C1008 1.356 . S
C1006 O1031 1.325 . S
C1007 C1006 1.348 . S
C1007 C1009 1.353 . S
C1007 H1048 0.929 . S
C1008 C1006 1.356 . S
C1008 C1010 1.358 . S
C1008 H1049 0.930 . S
C1009 C1007 1.353 . S
C1009 N1011 1.314 . S
C1009 H1050 0.930 . S
C1010 C1008 1.358 . S
C1010 N1011 1.279 . S
C1010 H1051 0.930 . S
N1011 C1009 1.314 . S
N1011 C1010 1.279 . S
C1012 C1014 1.353 . S
C1012 N1015 1.314 . S
C1012 H1018 0.930 . S
C1013 N1015 1.279 . S
C1013 C1016 1.358 . S
C1013 H1019 0.930 . S
C1014 C1012 1.353 . S
C1014 C1017 1.348 . S
C1014 H1052 0.929 . S
N1015 Li970 1.990 . S
N1015 C1012 1.314 . S
N1015 C1013 1.279 . S
C1016 C1013 1.358 . S
C1016 C1017 1.356 . S
C1016 H1053 0.930 . S
C1017 C1014 1.348 . S
C1017 C1016 1.356 . S
H1018 C1012 0.930 . S
H1019 C1013 0.930 . S
C1020 N1021 1.314 . S
C1020 C1022 1.353 . S
C1020 H1026 0.930 . S
N1021 Li971 1.990 . S
N1021 C1020 1.314 . S
N1021 C1024 1.279 . S
C1022 C1020 1.353 . S
C1022 C1025 1.348 . S
C1022 H1054 0.929 . S
C1023 C1024 1.358 . S
C1023 C1025 1.356 . S
C1023 H1055 0.930 . S
C1024 N1021 1.279 . S
C1024 C1023 1.358 . S
C1024 H1027 0.930 . S
C1025 C1022 1.348 . S
C1025 C1023 1.356 . S
H1026 C1020 0.930 . S
H1027 C1024 0.930 . S
O1028 Li968 1.956 . S
O1028 Li969 1.970 . S
O1028 Li970 1.961 . S
O1028 C972 1.325 . S
O1029 Li968 1.970 . S
O1029 Li969 1.956 . S
O1029 Li971 1.961 . S
O1029 C978 1.325 . S
O1030 Li968 1.961 . S
O1030 Li970 1.956 . S
O1030 Li971 1.970 . S
O1030 C1000 1.325 . S
O1031 Li969 1.961 . S
O1031 Li970 1.970 . S
O1031 Li971 1.956 . S
O1031 C1006 1.325 . S
H1032 C974 0.929 . S
H1033 C975 0.930 . S
H1034 C976 0.930 . S
H1035 C977 0.930 . S
H1036 C979 0.930 . S
H1037 C981 0.929 . S
H1038 C982 0.930 . S
H1039 C983 0.930 . S
H1040 C986 0.930 . S
H1041 C989 0.929 . S
H1042 C994 0.929 . S
H1043 C995 0.930 . S
H1044 C1002 0.929 . S
H1045 C1003 0.930 . S
H1046 C1004 0.930 . S
H1047 C1005 0.930 . S
H1048 C1007 0.929 . S
H1049 C1008 0.930 . S
H1050 C1009 0.930 . S
H1051 C1010 0.930 . S
H1052 C1014 0.929 . S
H1053 C1016 0.930 . S
H1054 C1022 0.929 . S
H1055 C1023 0.930 . S
Li1056 N1073 1.990 . S
Li1056 O1116 1.956 . S
Li1056 O1117 1.970 . S
Li1056 O1118 1.961 . S
Li1057 N1081 1.990 . S
Li1057 O1116 1.970 . S
Li1057 O1117 1.956 . S
Li1057 O1119 1.961 . S
Li1058 N1103 1.990 . S
Li1058 O1116 1.961 . S
Li1058 O1118 1.956 . S
Li1058 O1119 1.970 . S
Li1059 N1109 1.990 . S
Li1059 O1117 1.961 . S
Li1059 O1118 1.970 . S
Li1059 O1119 1.956 . S
C1060 C1062 1.348 . S
C1060 C1063 1.356 . S
C1060 O1116 1.325 . S
N1061 C1064 1.314 . S
N1061 C1065 1.279 . S
C1062 C1060 1.348 . S
C1062 C1064 1.353 . S
C1062 H1120 0.929 . S
C1063 C1060 1.356 . S
C1063 C1065 1.358 . S
C1063 H1121 0.930 . S
C1064 N1061 1.314 . S
C1064 C1062 1.353 . S
C1064 H1122 0.930 . S
C1065 N1061 1.279 . S
C1065 C1063 1.358 . S
C1065 H1123 0.930 . S
C1066 C1069 1.348 . S
C1066 C1070 1.356 . S
C1066 O1117 1.325 . S
C1067 N1068 1.279 . S
C1067 C1070 1.358 . S
C1067 H1124 0.930 . S
N1068 C1067 1.279 . S
N1068 C1071 1.314 . S
C1069 C1066 1.348 . S
C1069 C1071 1.353 . S
C1069 H1125 0.929 . S
C1070 C1066 1.356 . S
C1070 C1067 1.358 . S
C1070 H1126 0.930 . S
C1071 N1068 1.314 . S
C1071 C1069 1.353 . S
C1071 H1127 0.930 . S
C1072 N1073 1.314 . S
C1072 C1077 1.353 . S
C1072 H1078 0.930 . S
N1073 Li1056 1.990 . S
N1073 C1072 1.314 . S
N1073 C1075 1.279 . S
C1074 C1075 1.358 . S
C1074 C1076 1.356 . S
C1074 H1128 0.930 . S
C1075 N1073 1.279 . S
C1075 C1074 1.358 . S
C1075 H1079 0.930 . S
C1076 C1074 1.356 . S
C1076 C1077 1.348 . S
C1077 C1072 1.353 . S
C1077 C1076 1.348 . S
C1077 H1129 0.929 . S
H1078 C1072 0.930 . S
H1079 C1075 0.930 . S
C1080 N1081 1.314 . S
C1080 C1082 1.353 . S
C1080 H1086 0.930 . S
N1081 Li1057 1.990 . S
N1081 C1080 1.314 . S
N1081 C1084 1.279 . S
C1082 C1080 1.353 . S
C1082 C1085 1.348 . S
C1082 H1130 0.929 . S
C1083 C1084 1.358 . S
C1083 C1085 1.356 . S
C1083 H1131 0.930 . S
C1084 N1081 1.279 . S
C1084 C1083 1.358 . S
C1084 H1087 0.930 . S
C1085 C1082 1.348 . S
C1085 C1083 1.356 . S
H1086 C1080 0.930 . S
H1087 C1084 0.930 . S
C1088 C1090 1.348 . S
C1088 C1091 1.356 . S
C1088 O1118 1.325 . S
N1089 C1092 1.314 . S
N1089 C1093 1.279 . S
C1090 C1088 1.348 . S
C1090 C1092 1.353 . S
C1090 H1132 0.929 . S
C1091 C1088 1.356 . S
C1091 C1093 1.358 . S
C1091 H1133 0.930 . S
C1092 N1089 1.314 . S
C1092 C1090 1.353 . S
C1092 H1134 0.930 . S
C1093 N1089 1.279 . S
C1093 C1091 1.358 . S
C1093 H1135 0.930 . S
C1094 C1095 1.348 . S
C1094 C1096 1.356 . S
C1094 O1119 1.325 . S
C1095 C1094 1.348 . S
C1095 C1097 1.353 . S
C1095 H1136 0.929 . S
C1096 C1094 1.356 . S
C1096 C1098 1.358 . S
C1096 H1137 0.930 . S
C1097 C1095 1.353 . S
C1097 N1099 1.314 . S
C1097 H1138 0.930 . S
C1098 C1096 1.358 . S
C1098 N1099 1.279 . S
C1098 H1139 0.930 . S
N1099 C1097 1.314 . S
N1099 C1098 1.279 . S
C1100 C1102 1.353 . S
C1100 N1103 1.314 . S
C1100 H1106 0.930 . S
C1101 N1103 1.279 . S
C1101 C1104 1.358 . S
C1101 H1107 0.930 . S
C1102 C1100 1.353 . S
C1102 C1105 1.348 . S
C1102 H1140 0.929 . S
N1103 Li1058 1.990 . S
N1103 C1100 1.314 . S
N1103 C1101 1.279 . S
C1104 C1101 1.358 . S
C1104 C1105 1.356 . S
C1104 H1141 0.930 . S
C1105 C1102 1.348 . S
C1105 C1104 1.356 . S
H1106 C1100 0.930 . S
H1107 C1101 0.930 . S
C1108 N1109 1.314 . S
C1108 C1110 1.353 . S
C1108 H1114 0.930 . S
N1109 Li1059 1.990 . S
N1109 C1108 1.314 . S
N1109 C1112 1.279 . S
C1110 C1108 1.353 . S
C1110 C1113 1.348 . S
C1110 H1142 0.929 . S
C1111 C1112 1.358 . S
C1111 C1113 1.356 . S
C1111 H1143 0.930 . S
C1112 N1109 1.279 . S
C1112 C1111 1.358 . S
C1112 H1115 0.930 . S
C1113 C1110 1.348 . S
C1113 C1111 1.356 . S
H1114 C1108 0.930 . S
H1115 C1112 0.930 . S
O1116 Li1056 1.956 . S
O1116 Li1057 1.970 . S
O1116 Li1058 1.961 . S
O1116 C1060 1.325 . S
O1117 Li1056 1.970 . S
O1117 Li1057 1.956 . S
O1117 Li1059 1.961 . S
O1117 C1066 1.325 . S
O1118 Li1056 1.961 . S
O1118 Li1058 1.956 . S
O1118 Li1059 1.970 . S
O1118 C1088 1.325 . S
O1119 Li1057 1.961 . S
O1119 Li1058 1.970 . S
O1119 Li1059 1.956 . S
O1119 C1094 1.325 . S
H1120 C1062 0.929 . S
H1121 C1063 0.930 . S
H1122 C1064 0.930 . S
H1123 C1065 0.930 . S
H1124 C1067 0.930 . S
H1125 C1069 0.929 . S
H1126 C1070 0.930 . S
H1127 C1071 0.930 . S
H1128 C1074 0.930 . S
H1129 C1077 0.929 . S
H1130 C1082 0.929 . S
H1131 C1083 0.930 . S
H1132 C1090 0.929 . S
H1133 C1091 0.930 . S
H1134 C1092 0.930 . S
H1135 C1093 0.930 . S
H1136 C1095 0.929 . S
H1137 C1096 0.930 . S
H1138 C1097 0.930 . S
H1139 C1098 0.930 . S
H1140 C1102 0.929 . S
H1141 C1104 0.930 . S
H1142 C1110 0.929 . S
H1143 C1111 0.930 . S
Li1144 N1161 1.990 . S
Li1144 O1204 1.956 . S
Li1144 O1205 1.970 . S
Li1144 O1206 1.961 . S
Li1145 N1169 1.990 . S
Li1145 O1204 1.970 . S
Li1145 O1205 1.956 . S
Li1145 O1207 1.961 . S
Li1146 N1191 1.990 . S
Li1146 O1204 1.961 . S
Li1146 O1206 1.956 . S
Li1146 O1207 1.970 . S
Li1147 N1197 1.990 . S
Li1147 O1205 1.961 . S
Li1147 O1206 1.970 . S
Li1147 O1207 1.956 . S
C1148 C1150 1.348 . S
C1148 C1151 1.356 . S
C1148 O1204 1.325 . S
N1149 C1152 1.314 . S
N1149 C1153 1.279 . S
C1150 C1148 1.348 . S
C1150 C1152 1.353 . S
C1150 H1208 0.929 . S
C1151 C1148 1.356 . S
C1151 C1153 1.358 . S
C1151 H1209 0.930 . S
C1152 N1149 1.314 . S
C1152 C1150 1.353 . S
C1152 H1210 0.930 . S
C1153 N1149 1.279 . S
C1153 C1151 1.358 . S
C1153 H1211 0.930 . S
C1154 C1157 1.348 . S
C1154 C1158 1.356 . S
C1154 O1205 1.325 . S
C1155 N1156 1.279 . S
C1155 C1158 1.358 . S
C1155 H1212 0.930 . S
N1156 C1155 1.279 . S
N1156 C1159 1.314 . S
C1157 C1154 1.348 . S
C1157 C1159 1.353 . S
C1157 H1213 0.929 . S
C1158 C1154 1.356 . S
C1158 C1155 1.358 . S
C1158 H1214 0.930 . S
C1159 N1156 1.314 . S
C1159 C1157 1.353 . S
C1159 H1215 0.930 . S
C1160 N1161 1.314 . S
C1160 C1165 1.353 . S
C1160 H1166 0.930 . S
N1161 Li1144 1.990 . S
N1161 C1160 1.314 . S
N1161 C1163 1.279 . S
C1162 C1163 1.358 . S
C1162 C1164 1.356 . S
C1162 H1216 0.930 . S
C1163 N1161 1.279 . S
C1163 C1162 1.358 . S
C1163 H1167 0.930 . S
C1164 C1162 1.356 . S
C1164 C1165 1.348 . S
C1165 C1160 1.353 . S
C1165 C1164 1.348 . S
C1165 H1217 0.929 . S
H1166 C1160 0.930 . S
H1167 C1163 0.930 . S
C1168 N1169 1.314 . S
C1168 C1170 1.353 . S
C1168 H1174 0.930 . S
N1169 Li1145 1.990 . S
N1169 C1168 1.314 . S
N1169 C1172 1.279 . S
C1170 C1168 1.353 . S
C1170 C1173 1.348 . S
C1170 H1218 0.929 . S
C1171 C1172 1.358 . S
C1171 C1173 1.356 . S
C1171 H1219 0.930 . S
C1172 N1169 1.279 . S
C1172 C1171 1.358 . S
C1172 H1175 0.930 . S
C1173 C1170 1.348 . S
C1173 C1171 1.356 . S
H1174 C1168 0.930 . S
H1175 C1172 0.930 . S
C1176 C1178 1.348 . S
C1176 C1179 1.356 . S
C1176 O1206 1.325 . S
N1177 C1180 1.314 . S
N1177 C1181 1.279 . S
C1178 C1176 1.348 . S
C1178 C1180 1.353 . S
C1178 H1220 0.929 . S
C1179 C1176 1.356 . S
C1179 C1181 1.358 . S
C1179 H1221 0.930 . S
C1180 N1177 1.314 . S
C1180 C1178 1.353 . S
C1180 H1222 0.930 . S
C1181 N1177 1.279 . S
C1181 C1179 1.358 . S
C1181 H1223 0.930 . S
C1182 C1183 1.348 . S
C1182 C1184 1.356 . S
C1182 O1207 1.325 . S
C1183 C1182 1.348 . S
C1183 C1185 1.353 . S
C1183 H1224 0.929 . S
C1184 C1182 1.356 . S
C1184 C1186 1.358 . S
C1184 H1225 0.930 . S
C1185 C1183 1.353 . S
C1185 N1187 1.314 . S
C1185 H1226 0.930 . S
C1186 C1184 1.358 . S
C1186 N1187 1.279 . S
C1186 H1227 0.930 . S
N1187 C1185 1.314 . S
N1187 C1186 1.279 . S
C1188 C1190 1.353 . S
C1188 N1191 1.314 . S
C1188 H1194 0.930 . S
C1189 N1191 1.279 . S
C1189 C1192 1.358 . S
C1189 H1195 0.930 . S
C1190 C1188 1.353 . S
C1190 C1193 1.348 . S
C1190 H1228 0.929 . S
N1191 Li1146 1.990 . S
N1191 C1188 1.314 . S
N1191 C1189 1.279 . S
C1192 C1189 1.358 . S
C1192 C1193 1.356 . S
C1192 H1229 0.930 . S
C1193 C1190 1.348 . S
C1193 C1192 1.356 . S
H1194 C1188 0.930 . S
H1195 C1189 0.930 . S
C1196 N1197 1.314 . S
C1196 C1198 1.353 . S
C1196 H1202 0.930 . S
N1197 Li1147 1.990 . S
N1197 C1196 1.314 . S
N1197 C1200 1.279 . S
C1198 C1196 1.353 . S
C1198 C1201 1.348 . S
C1198 H1230 0.929 . S
C1199 C1200 1.358 . S
C1199 C1201 1.356 . S
C1199 H1231 0.930 . S
C1200 N1197 1.279 . S
C1200 C1199 1.358 . S
C1200 H1203 0.930 . S
C1201 C1198 1.348 . S
C1201 C1199 1.356 . S
H1202 C1196 0.930 . S
H1203 C1200 0.930 . S
O1204 Li1144 1.956 . S
O1204 Li1145 1.970 . S
O1204 Li1146 1.961 . S
O1204 C1148 1.325 . S
O1205 Li1144 1.970 . S
O1205 Li1145 1.956 . S
O1205 Li1147 1.961 . S
O1205 C1154 1.325 . S
O1206 Li1144 1.961 . S
O1206 Li1146 1.956 . S
O1206 Li1147 1.970 . S
O1206 C1176 1.325 . S
O1207 Li1145 1.961 . S
O1207 Li1146 1.970 . S
O1207 Li1147 1.956 . S
O1207 C1182 1.325 . S
H1208 C1150 0.929 . S
H1209 C1151 0.930 . S
H1210 C1152 0.930 . S
H1211 C1153 0.930 . S
H1212 C1155 0.930 . S
H1213 C1157 0.929 . S
H1214 C1158 0.930 . S
H1215 C1159 0.930 . S
H1216 C1162 0.930 . S
H1217 C1165 0.929 . S
H1218 C1170 0.929 . S
H1219 C1171 0.930 . S
H1220 C1178 0.929 . S
H1221 C1179 0.930 . S
H1222 C1180 0.930 . S
H1223 C1181 0.930 . S
H1224 C1183 0.929 . S
H1225 C1184 0.930 . S
H1226 C1185 0.930 . S
H1227 C1186 0.930 . S
H1228 C1190 0.929 . S
H1229 C1192 0.930 . S
H1230 C1198 0.929 . S
H1231 C1199 0.930 . S
Li1232 N1249 1.990 . S
Li1232 O1292 1.956 . S
Li1232 O1293 1.970 . S
Li1232 O1294 1.961 . S
Li1233 N1257 1.990 . S
Li1233 O1292 1.970 . S
Li1233 O1293 1.956 . S
Li1233 O1295 1.961 . S
Li1234 N1279 1.990 . S
Li1234 O1292 1.961 . S
Li1234 O1294 1.956 . S
Li1234 O1295 1.970 . S
Li1235 N1285 1.990 . S
Li1235 O1293 1.961 . S
Li1235 O1294 1.970 . S
Li1235 O1295 1.956 . S
C1236 C1238 1.348 . S
C1236 C1239 1.356 . S
C1236 O1292 1.325 . S
N1237 C1240 1.314 . S
N1237 C1241 1.279 . S
C1238 C1236 1.348 . S
C1238 C1240 1.353 . S
C1238 H1296 0.929 . S
C1239 C1236 1.356 . S
C1239 C1241 1.358 . S
C1239 H1297 0.930 . S
C1240 N1237 1.314 . S
C1240 C1238 1.353 . S
C1240 H1298 0.930 . S
C1241 N1237 1.279 . S
C1241 C1239 1.358 . S
C1241 H1299 0.930 . S
C1242 C1245 1.348 . S
C1242 C1246 1.356 . S
C1242 O1293 1.325 . S
C1243 N1244 1.279 . S
C1243 C1246 1.358 . S
C1243 H1300 0.930 . S
N1244 C1243 1.279 . S
N1244 C1247 1.314 . S
C1245 C1242 1.348 . S
C1245 C1247 1.353 . S
C1245 H1301 0.929 . S
C1246 C1242 1.356 . S
C1246 C1243 1.358 . S
C1246 H1302 0.930 . S
C1247 N1244 1.314 . S
C1247 C1245 1.353 . S
C1247 H1303 0.930 . S
C1248 N1249 1.314 . S
C1248 C1253 1.353 . S
C1248 H1254 0.930 . S
N1249 Li1232 1.990 . S
N1249 C1248 1.314 . S
N1249 C1251 1.279 . S
C1250 C1251 1.358 . S
C1250 C1252 1.356 . S
C1250 H1304 0.930 . S
C1251 N1249 1.279 . S
C1251 C1250 1.358 . S
C1251 H1255 0.930 . S
C1252 C1250 1.356 . S
C1252 C1253 1.348 . S
C1253 C1248 1.353 . S
C1253 C1252 1.348 . S
C1253 H1305 0.929 . S
H1254 C1248 0.930 . S
H1255 C1251 0.930 . S
C1256 N1257 1.314 . S
C1256 C1258 1.353 . S
C1256 H1262 0.930 . S
N1257 Li1233 1.990 . S
N1257 C1256 1.314 . S
N1257 C1260 1.279 . S
C1258 C1256 1.353 . S
C1258 C1261 1.348 . S
C1258 H1306 0.929 . S
C1259 C1260 1.358 . S
C1259 C1261 1.356 . S
C1259 H1307 0.930 . S
C1260 N1257 1.279 . S
C1260 C1259 1.358 . S
C1260 H1263 0.930 . S
C1261 C1258 1.348 . S
C1261 C1259 1.356 . S
H1262 C1256 0.930 . S
H1263 C1260 0.930 . S
C1264 C1266 1.348 . S
C1264 C1267 1.356 . S
C1264 O1294 1.325 . S
N1265 C1268 1.314 . S
N1265 C1269 1.279 . S
C1266 C1264 1.348 . S
C1266 C1268 1.353 . S
C1266 H1308 0.929 . S
C1267 C1264 1.356 . S
C1267 C1269 1.358 . S
C1267 H1309 0.930 . S
C1268 N1265 1.314 . S
C1268 C1266 1.353 . S
C1268 H1310 0.930 . S
C1269 N1265 1.279 . S
C1269 C1267 1.358 . S
C1269 H1311 0.930 . S
C1270 C1271 1.348 . S
C1270 C1272 1.356 . S
C1270 O1295 1.325 . S
C1271 C1270 1.348 . S
C1271 C1273 1.353 . S
C1271 H1312 0.929 . S
C1272 C1270 1.356 . S
C1272 C1274 1.358 . S
C1272 H1313 0.930 . S
C1273 C1271 1.353 . S
C1273 N1275 1.314 . S
C1273 H1314 0.930 . S
C1274 C1272 1.358 . S
C1274 N1275 1.279 . S
C1274 H1315 0.930 . S
N1275 C1273 1.314 . S
N1275 C1274 1.279 . S
C1276 C1278 1.353 . S
C1276 N1279 1.314 . S
C1276 H1282 0.930 . S
C1277 N1279 1.279 . S
C1277 C1280 1.358 . S
C1277 H1283 0.930 . S
C1278 C1276 1.353 . S
C1278 C1281 1.348 . S
C1278 H1316 0.929 . S
N1279 Li1234 1.990 . S
N1279 C1276 1.314 . S
N1279 C1277 1.279 . S
C1280 C1277 1.358 . S
C1280 C1281 1.356 . S
C1280 H1317 0.930 . S
C1281 C1278 1.348 . S
C1281 C1280 1.356 . S
H1282 C1276 0.930 . S
H1283 C1277 0.930 . S
C1284 N1285 1.314 . S
C1284 C1286 1.353 . S
C1284 H1290 0.930 . S
N1285 Li1235 1.990 . S
N1285 C1284 1.314 . S
N1285 C1288 1.279 . S
C1286 C1284 1.353 . S
C1286 C1289 1.348 . S
C1286 H1318 0.929 . S
C1287 C1288 1.358 . S
C1287 C1289 1.356 . S
C1287 H1319 0.930 1_554 S
C1288 N1285 1.279 . S
C1288 C1287 1.358 . S
C1288 H1291 0.930 . S
C1289 C1286 1.348 . S
C1289 C1287 1.356 . S
H1290 C1284 0.930 . S
H1291 C1288 0.930 . S
O1292 Li1232 1.956 . S
O1292 Li1233 1.970 . S
O1292 Li1234 1.961 . S
O1292 C1236 1.325 . S
O1293 Li1232 1.970 . S
O1293 Li1233 1.956 . S
O1293 Li1235 1.961 . S
O1293 C1242 1.325 . S
O1294 Li1232 1.961 . S
O1294 Li1234 1.956 . S
O1294 Li1235 1.970 . S
O1294 C1264 1.325 . S
O1295 Li1233 1.961 . S
O1295 Li1234 1.970 . S
O1295 Li1235 1.956 . S
O1295 C1270 1.325 . S
H1296 C1238 0.929 . S
H1297 C1239 0.930 . S
H1298 C1240 0.930 . S
H1299 C1241 0.930 . S
H1300 C1243 0.930 . S
H1301 C1245 0.929 . S
H1302 C1246 0.930 . S
H1303 C1247 0.930 . S
H1304 C1250 0.930 . S
H1305 C1253 0.929 . S
H1306 C1258 0.929 . S
H1307 C1259 0.930 . S
H1308 C1266 0.929 . S
H1309 C1267 0.930 . S
H1310 C1268 0.930 . S
H1311 C1269 0.930 . S
H1312 C1271 0.929 . S
H1313 C1272 0.930 . S
H1314 C1273 0.930 . S
H1315 C1274 0.930 . S
H1316 C1278 0.929 . S
H1317 C1280 0.930 . S
H1318 C1286 0.929 . S
H1319 C1287 0.930 1_556 S
Li1320 N1337 1.990 . S
Li1320 O1380 1.956 . S
Li1320 O1381 1.970 . S
Li1320 O1382 1.961 . S
Li1321 N1345 1.990 . S
Li1321 O1380 1.970 . S
Li1321 O1381 1.956 . S
Li1321 O1383 1.961 . S
Li1322 N1367 1.990 . S
Li1322 O1380 1.961 . S
Li1322 O1382 1.956 . S
Li1322 O1383 1.970 . S
Li1323 N1373 1.990 . S
Li1323 O1381 1.961 . S
Li1323 O1382 1.970 . S
Li1323 O1383 1.956 . S
C1324 C1326 1.348 . S
C1324 C1327 1.356 . S
C1324 O1380 1.325 . S
N1325 C1328 1.314 . S
N1325 C1329 1.279 . S
C1326 C1324 1.348 . S
C1326 C1328 1.353 . S
C1326 H1384 0.929 . S
C1327 C1324 1.356 . S
C1327 C1329 1.358 . S
C1327 H1385 0.930 . S
C1328 N1325 1.314 . S
C1328 C1326 1.353 . S
C1328 H1386 0.930 . S
C1329 N1325 1.279 . S
C1329 C1327 1.358 . S
C1329 H1387 0.930 . S
C1330 C1333 1.348 . S
C1330 C1334 1.356 . S
C1330 O1381 1.325 . S
C1331 N1332 1.279 . S
C1331 C1334 1.358 . S
C1331 H1388 0.930 . S
N1332 C1331 1.279 . S
N1332 C1335 1.314 . S
C1333 C1330 1.348 . S
C1333 C1335 1.353 . S
C1333 H1389 0.929 . S
C1334 C1330 1.356 . S
C1334 C1331 1.358 . S
C1334 H1390 0.930 . S
C1335 N1332 1.314 . S
C1335 C1333 1.353 . S
C1335 H1391 0.930 . S
C1336 N1337 1.314 . S
C1336 C1341 1.353 . S
C1336 H1342 0.930 . S
N1337 Li1320 1.990 . S
N1337 C1336 1.314 . S
N1337 C1339 1.279 . S
C1338 C1339 1.358 . S
C1338 C1340 1.356 . S
C1338 H1392 0.930 . S
C1339 N1337 1.279 . S
C1339 C1338 1.358 . S
C1339 H1343 0.930 . S
C1340 C1338 1.356 . S
C1340 C1341 1.348 . S
C1341 C1336 1.353 . S
C1341 C1340 1.348 . S
C1341 H1393 0.929 . S
H1342 C1336 0.930 . S
H1343 C1339 0.930 . S
C1344 N1345 1.314 . S
C1344 C1346 1.353 . S
C1344 H1350 0.930 . S
N1345 Li1321 1.990 . S
N1345 C1344 1.314 . S
N1345 C1348 1.279 . S
C1346 C1344 1.353 . S
C1346 C1349 1.348 . S
C1346 H1394 0.929 . S
C1347 C1348 1.358 . S
C1347 C1349 1.356 . S
C1347 H1395 0.930 . S
C1348 N1345 1.279 . S
C1348 C1347 1.358 . S
C1348 H1351 0.930 . S
C1349 C1346 1.348 . S
C1349 C1347 1.356 . S
H1350 C1344 0.930 . S
H1351 C1348 0.930 . S
C1352 C1354 1.348 . S
C1352 C1355 1.356 . S
C1352 O1382 1.325 . S
N1353 C1356 1.314 . S
N1353 C1357 1.279 . S
C1354 C1352 1.348 . S
C1354 C1356 1.353 . S
C1354 H1396 0.929 . S
C1355 C1352 1.356 . S
C1355 C1357 1.358 . S
C1355 H1397 0.930 . S
C1356 N1353 1.314 . S
C1356 C1354 1.353 . S
C1356 H1398 0.930 . S
C1357 N1353 1.279 . S
C1357 C1355 1.358 . S
C1357 H1399 0.930 . S
C1358 C1359 1.348 . S
C1358 C1360 1.356 . S
C1358 O1383 1.325 . S
C1359 C1358 1.348 . S
C1359 C1361 1.353 . S
C1359 H1400 0.929 . S
C1360 C1358 1.356 . S
C1360 C1362 1.358 . S
C1360 H1401 0.930 . S
C1361 C1359 1.353 . S
C1361 N1363 1.314 . S
C1361 H1402 0.930 . S
C1362 C1360 1.358 . S
C1362 N1363 1.279 . S
C1362 H1403 0.930 . S
N1363 C1361 1.314 . S
N1363 C1362 1.279 . S
C1364 C1366 1.353 . S
C1364 N1367 1.314 . S
C1364 H1370 0.930 . S
C1365 N1367 1.279 . S
C1365 C1368 1.358 . S
C1365 H1371 0.930 . S
C1366 C1364 1.353 . S
C1366 C1369 1.348 . S
C1366 H1404 0.929 . S
N1367 Li1322 1.990 . S
N1367 C1364 1.314 . S
N1367 C1365 1.279 . S
C1368 C1365 1.358 . S
C1368 C1369 1.356 . S
C1368 H1405 0.930 1_554 S
C1369 C1366 1.348 . S
C1369 C1368 1.356 . S
H1370 C1364 0.930 . S
H1371 C1365 0.930 . S
C1372 N1373 1.314 . S
C1372 C1374 1.353 . S
C1372 H1378 0.930 . S
N1373 Li1323 1.990 . S
N1373 C1372 1.314 . S
N1373 C1376 1.279 . S
C1374 C1372 1.353 . S
C1374 C1377 1.348 . S
C1374 H1406 0.929 . S
C1375 C1376 1.358 . S
C1375 C1377 1.356 . S
C1375 H1407 0.930 . S
C1376 N1373 1.279 . S
C1376 C1375 1.358 . S
C1376 H1379 0.930 . S
C1377 C1374 1.348 . S
C1377 C1375 1.356 . S
H1378 C1372 0.930 . S
H1379 C1376 0.930 . S
O1380 Li1320 1.956 . S
O1380 Li1321 1.970 . S
O1380 Li1322 1.961 . S
O1380 C1324 1.325 . S
O1381 Li1320 1.970 . S
O1381 Li1321 1.956 . S
O1381 Li1323 1.961 . S
O1381 C1330 1.325 . S
O1382 Li1320 1.961 . S
O1382 Li1322 1.956 . S
O1382 Li1323 1.970 . S
O1382 C1352 1.325 . S
O1383 Li1321 1.961 . S
O1383 Li1322 1.970 . S
O1383 Li1323 1.956 . S
O1383 C1358 1.325 . S
H1384 C1326 0.929 . S
H1385 C1327 0.930 . S
H1386 C1328 0.930 . S
H1387 C1329 0.930 . S
H1388 C1331 0.930 . S
H1389 C1333 0.929 . S
H1390 C1334 0.930 . S
H1391 C1335 0.930 . S
H1392 C1338 0.930 . S
H1393 C1341 0.929 . S
H1394 C1346 0.929 . S
H1395 C1347 0.930 . S
H1396 C1354 0.929 . S
H1397 C1355 0.930 . S
H1398 C1356 0.930 . S
H1399 C1357 0.930 . S
H1400 C1359 0.929 . S
H1401 C1360 0.930 . S
H1402 C1361 0.930 . S
H1403 C1362 0.930 . S
H1404 C1366 0.929 . S
H1405 C1368 0.930 1_556 S
H1406 C1374 0.929 . S
H1407 C1375 0.930 . S
C29 C1201 0.438 . S
C108 C821 0.438 . S
C1252 C225 0.421 . S
C321 C1349 0.421 . S
C372 C557 0.438 . S
C909 C489 0.438 . S
C1017 C636 0.421 . S
C733 C1113 0.421 . S
C196 C57 2.377 1_565 S
C137 C293 2.377 . S
C1076 C49 2.405 1_556 S
C145 C997 2.405 1_554 S
C409 C205 2.405 . S
C929 C284 2.405 . S
C117 C20 2.380 1_655 S
C313 C233 2.351 1_655 S
C900 C381 2.380 . S
C645 C469 2.375 1_545 S
C577 C724 2.375 . S
C1369 C460 2.388 1_554 S
C585 C1289 2.388 1_556 S
C849 C673 2.388 . S
C753 C1173 2.388 . S
C548 C497 2.407 1_455 S
C761 C665 2.364 1_455 S
C812 C1193 2.407 . S
C937 C988 2.377 . S
C1085 C401 2.377 1_545 S
C1105 C1025 2.351 . S
C1261 C1164 2.375 . S
C841 C1340 2.375 1_545 S
C1377 C1281 2.364 . S
