# Generated by pormake.
# Topology wme, (6)-cn, num edge types: 1
# Building blocks:
#     Node 0, Type 0, BuildingBlock: BETFEN_clean_sbu_0, # of connection points: 6
#     Node 1, Type 0, BuildingBlock: BETFEN_clean_sbu_0, # of connection points: 6
#     Node 2, Type 0, BuildingBlock: BETFEN_clean_sbu_0, # of connection points: 6
#     Node 3, Type 0, BuildingBlock: BETFEN_clean_sbu_0, # of connection points: 6
#     Node 4, Type 0, BuildingBlock: BETFEN_clean_sbu_0, # of connection points: 6
#     Node 5, Type 0, BuildingBlock: BETFEN_clean_sbu_0, # of connection points: 6
#     Node 6, Type 0, BuildingBlock: BETFEN_clean_sbu_0, # of connection points: 6
#     Node 7, Type 0, BuildingBlock: BETFEN_clean_sbu_0, # of connection points: 6
#     Node 8, Type 0, BuildingBlock: BETFEN_clean_sbu_0, # of connection points: 6
#     Node 9, Type 0, BuildingBlock: BETFEN_clean_sbu_0, # of connection points: 6
#     Node 10, Type 0, BuildingBlock: BETFEN_clean_sbu_0, # of connection points: 6
#     Node 11, Type 0, BuildingBlock: BETFEN_clean_sbu_0, # of connection points: 6
#     Edge 12, Type (0, 0), BuildingBlock: AJUNOK_clean_linker_0, # of connection points: 2
#     Edge 13, Type (0, 0), BuildingBlock: AJUNOK_clean_linker_0, # of connection points: 2
#     Edge 14, Type (0, 0), BuildingBlock: AJUNOK_clean_linker_0, # of connection points: 2
#     Edge 15, Type (0, 0), BuildingBlock: AJUNOK_clean_linker_0, # of connection points: 2
#     Edge 16, Type (0, 0), BuildingBlock: AJUNOK_clean_linker_0, # of connection points: 2
#     Edge 17, Type (0, 0), BuildingBlock: AJUNOK_clean_linker_0, # of connection points: 2
#     Edge 18, Type (0, 0), BuildingBlock: AJUNOK_clean_linker_0, # of connection points: 2
#     Edge 19, Type (0, 0), BuildingBlock: AJUNOK_clean_linker_0, # of connection points: 2
#     Edge 20, Type (0, 0), BuildingBlock: AJUNOK_clean_linker_0, # of connection points: 2
#     Edge 21, Type (0, 0), BuildingBlock: AJUNOK_clean_linker_0, # of connection points: 2
#     Edge 22, Type (0, 0), BuildingBlock: AJUNOK_clean_linker_0, # of connection points: 2
#     Edge 23, Type (0, 0), BuildingBlock: AJUNOK_clean_linker_0, # of connection points: 2
#     Edge 24, Type (0, 0), BuildingBlock: AJUNOK_clean_linker_0, # of connection points: 2
#     Edge 25, Type (0, 0), BuildingBlock: AJUNOK_clean_linker_0, # of connection points: 2
#     Edge 26, Type (0, 0), BuildingBlock: AJUNOK_clean_linker_0, # of connection points: 2
#     Edge 27, Type (0, 0), BuildingBlock: AJUNOK_clean_linker_0, # of connection points: 2
#     Edge 28, Type (0, 0), BuildingBlock: AJUNOK_clean_linker_0, # of connection points: 2
#     Edge 29, Type (0, 0), BuildingBlock: AJUNOK_clean_linker_0, # of connection points: 2
#     Edge 30, Type (0, 0), BuildingBlock: AJUNOK_clean_linker_0, # of connection points: 2
#     Edge 31, Type (0, 0), BuildingBlock: AJUNOK_clean_linker_0, # of connection points: 2
#     Edge 32, Type (0, 0), BuildingBlock: AJUNOK_clean_linker_0, # of connection points: 2
#     Edge 33, Type (0, 0), BuildingBlock: AJUNOK_clean_linker_0, # of connection points: 2
#     Edge 34, Type (0, 0), BuildingBlock: AJUNOK_clean_linker_0, # of connection points: 2
#     Edge 35, Type (0, 0), BuildingBlock: AJUNOK_clean_linker_0, # of connection points: 2
#     Edge 36, Type (0, 0), BuildingBlock: AJUNOK_clean_linker_0, # of connection points: 2
#     Edge 37, Type (0, 0), BuildingBlock: AJUNOK_clean_linker_0, # of connection points: 2
#     Edge 38, Type (0, 0), BuildingBlock: AJUNOK_clean_linker_0, # of connection points: 2
#     Edge 39, Type (0, 0), BuildingBlock: AJUNOK_clean_linker_0, # of connection points: 2
#     Edge 40, Type (0, 0), BuildingBlock: AJUNOK_clean_linker_0, # of connection points: 2
#     Edge 41, Type (0, 0), BuildingBlock: AJUNOK_clean_linker_0, # of connection points: 2
#     Edge 42, Type (0, 0), BuildingBlock: AJUNOK_clean_linker_0, # of connection points: 2
#     Edge 43, Type (0, 0), BuildingBlock: AJUNOK_clean_linker_0, # of connection points: 2
#     Edge 44, Type (0, 0), BuildingBlock: AJUNOK_clean_linker_0, # of connection points: 2
#     Edge 45, Type (0, 0), BuildingBlock: AJUNOK_clean_linker_0, # of connection points: 2
#     Edge 46, Type (0, 0), BuildingBlock: AJUNOK_clean_linker_0, # of connection points: 2
#     Edge 47, Type (0, 0), BuildingBlock: AJUNOK_clean_linker_0, # of connection points: 2
# Relax obj value: 0.115
# Max RMSD: 0.230
# Mean RMSD: 0.230
data_MOF--net-wme--node1-BETFEN_clean_sbu_0--edge1-AJUNOK_clean_linker_0
_symmetry_space_group_name_H-M    P1
_symmetry_Int_Tables_number       1
_symmetry_cell_setting            triclinic
loop_
_symmetry_equiv_pos_as_xyz
'x, y, z'
_cell_length_a     32.406275
_cell_length_b     32.346263
_cell_length_c     36.32766
_cell_angle_alpha  89.758876
_cell_angle_beta   90.59524
_cell_angle_gamma 120.02683
loop_
_atom_site_label
_atom_site_type_symbol
_atom_site_fract_x
_atom_site_fract_y
_atom_site_fract_z
_atom_type_partial_charge
Pr0 Pr 0.23279 0.38619 0.11289 0.0
Pr1 Pr 0.27761 0.33496 0.14734 0.0
C2 C 0.20395 0.44651 0.08779 0.0
C3 C 0.20614 0.49193 0.09676 0.0
C4 C 0.20185 0.51899 0.06829 0.0
C5 C 0.19816 0.55926 0.07635 0.0
C6 C 0.19815 0.57263 0.11305 0.0
C7 C 0.20443 0.54676 0.14152 0.0
C8 C 0.20867 0.50677 0.13344 0.0
C9 C 0.26906 0.34378 0.0645 0.0
C10 C 0.34309 0.45031 0.13821 0.0
C11 C 0.30045 0.26643 0.15628 0.0
C12 C 0.27266 0.21349 0.15607 0.0
C13 C 0.26503 0.18806 0.18906 0.0
C14 C 0.24163 0.13819 0.18882 0.0
C15 C 0.22608 0.11273 0.1555 0.0
C16 C 0.23123 0.13792 0.12273 0.0
C17 C 0.25428 0.18782 0.12297 0.0
C18 C 0.26047 0.3832 0.20123 0.0
C19 C 0.1573 0.27848 0.13355 0.0
O20 O 0.17869 0.41052 0.10962 0.0
O21 O 0.24307 0.44831 0.0768 0.0
O22 O 0.28856 0.36918 0.09191 0.0
O23 O 0.22626 0.33721 0.06073 0.0
O24 O 0.3458 0.41073 0.13808 0.0
O25 O 0.30173 0.44854 0.13783 0.0
O26 O 0.3039 0.28763 0.12482 0.0
O27 O 0.2946 0.28842 0.1842 0.0
O28 O 0.23131 0.36185 0.17445 0.0
O29 O 0.29835 0.37898 0.20005 0.0
O30 O 0.16129 0.3191 0.12345 0.0
O31 O 0.19536 0.27496 0.14168 0.0
H32 H 0.19989 0.50813 0.03985 0.0
H33 H 0.19361 0.57896 0.054 0.0
H34 H 0.20524 0.55706 0.16997 0.0
H35 H 0.21243 0.48663 0.15582 0.0
H36 H 0.2782 0.20675 0.215 0.0
H37 H 0.2373 0.11955 0.2146 0.0
H38 H 0.21966 0.11922 0.09665 0.0
H39 H 0.25894 0.20618 0.097 0.0
Pr40 Pr 0.87681 0.22094 0.61794 0.0
Pr41 Pr 0.97063 0.26 0.65525 0.0
C42 C 0.78962 0.19603 0.5903 0.0
C43 C 0.74402 0.19302 0.59924 0.0
C44 C 0.7154 0.1939 0.57043 0.0
C45 C 0.67053 0.18802 0.57762 0.0
C46 C 0.65346 0.18101 0.61382 0.0
C47 C 0.68241 0.18084 0.6428 0.0
C48 C 0.72758 0.18705 0.63559 0.0
C49 C 0.95626 0.25816 0.57075 0.0
C50 C 0.92206 0.32733 0.64804 0.0
C51 C 0.05978 0.27931 0.67207 0.0
C52 C 0.08485 0.25183 0.66865 0.0
C53 C 0.11568 0.25366 0.6968 0.0
C54 C 0.14313 0.23165 0.69221 0.0
C55 C 0.1403 0.20776 0.65927 0.0
C56 C 0.1077 0.20384 0.63185 0.0
C57 C 0.07996 0.22537 0.63656 0.0
C58 C 0.90059 0.23611 0.70654 0.0
C59 C 0.90562 0.14214 0.63554 0.0
O60 O 0.79958 0.16624 0.60707 0.0
O61 O 0.82672 0.23853 0.58622 0.0
O62 O 0.95268 0.27701 0.59941 0.0
O63 O 0.91756 0.21771 0.56493 0.0
O64 O 0.96412 0.3296 0.64589 0.0
O65 O 0.88303 0.28563 0.64887 0.0
O66 O 0.04811 0.29167 0.64127 0.0
O67 O 1.02642 0.2652 0.69679 0.0
O68 O 0.89582 0.21051 0.67844 0.0
O69 O 0.94186 0.27509 0.70781 0.0
O70 O 0.86911 0.14818 0.63001 0.0
O71 O 0.94875 0.17941 0.64074 0.0
H72 H 0.72748 0.19838 0.54222 0.0
H73 H 0.64878 0.18818 0.55482 0.0
H74 H 0.67012 0.17608 0.67095 0.0
H75 H 0.74933 0.18658 0.65825 0.0
H76 H 0.11975 0.27354 0.72181 0.0
H77 H 0.1684 0.23544 0.71355 0.0
H78 H 0.1051 0.18566 0.6062 0.0
H79 H 0.05595 0.22272 0.61452 0.0
Pr80 Pr 0.69018 0.86148 0.11493 0.0
Pr81 Pr 0.74123 0.95704 0.15024 0.0
C82 C 0.62993 0.77239 0.08988 0.0
C83 C 0.5838 0.72957 0.09764 0.0
C84 C 0.56035 0.69644 0.06935 0.0
C85 C 0.51982 0.65259 0.07681 0.0
C86 C 0.50216 0.641 0.11282 0.0
C87 C 0.5242 0.67534 0.14082 0.0
C88 C 0.56482 0.71936 0.13329 0.0
C89 C 0.73925 0.93898 0.06654 0.0
C90 C 0.6268 0.9097 0.13731 0.0
C91 C 0.80915 0.0472 0.16663 0.0
C92 C 0.86188 0.07344 0.16537 0.0
C93 C 0.88862 0.10931 0.19129 0.0
C94 C 0.9383 0.13715 0.18813 0.0
C95 C 0.96176 0.12962 0.15884 0.0
C96 C 0.93532 0.09217 0.13406 0.0
C97 C 0.88591 0.06392 0.13762 0.0
C98 C 0.6935 0.88716 0.20264 0.0
C99 C 0.79732 0.89387 0.13623 0.0
O100 O 0.66445 0.78256 0.11343 0.0
O101 O 0.62947 0.8101 0.07743 0.0
O102 O 0.71269 0.93616 0.09227 0.0
O103 O 0.74154 0.9002 0.064 0.0
O104 O 0.66667 0.9517 0.13861 0.0
O105 O 0.62807 0.86976 0.13728 0.0
O106 O 0.78675 0.0348 0.13488 0.0
O107 O 0.78943 1.01385 0.19156 0.0
O108 O 0.71619 0.88297 0.17582 0.0
O109 O 0.69405 0.92764 0.20174 0.0
O110 O 0.75563 0.85618 0.13022 0.0
O111 O 0.80168 0.9366 0.14002 0.0
H112 H 0.5744 0.7038 0.04166 0.0
H113 H 0.50339 0.62696 0.05465 0.0
H114 H 0.51049 0.66783 0.16858 0.0
H115 H 0.58217 0.74478 0.15546 0.0
H116 H 0.87094 0.11678 0.21325 0.0
H117 H 0.95808 0.16608 0.20741 0.0
H118 H 0.95274 0.0858 0.11127 0.0
H119 H 0.86634 0.03545 0.11812 0.0
Pr120 Pr 0.85626 0.67241 0.61455 0.0
Pr121 Pr 0.81428 0.72467 0.64822 0.0
C122 C 0.88365 0.61189 0.58778 0.0
C123 C 0.88329 0.56724 0.59664 0.0
C124 C 0.89997 0.54744 0.57052 0.0
C125 C 0.90434 0.50765 0.57933 0.0
C126 C 0.89186 0.48683 0.61443 0.0
C127 C 0.87354 0.50577 0.64019 0.0
C128 C 0.86936 0.54575 0.63138 0.0
C129 C 0.82678 0.72107 0.56544 0.0
C130 C 0.7459 0.61025 0.63784 0.0
C131 C 0.79205 0.79287 0.6618 0.0
C132 C 0.81858 0.8457 0.65973 0.0
C133 C 0.82056 0.87301 0.69036 0.0
C134 C 0.84254 0.92282 0.68778 0.0
C135 C 0.86297 0.94596 0.65454 0.0
C136 C 0.86288 0.91899 0.62441 0.0
C137 C 0.84117 0.86934 0.62704 0.0
C138 C 0.83223 0.67479 0.70221 0.0
C139 C 0.93324 0.77838 0.63681 0.0
O140 O 0.9108 0.64883 0.60838 0.0
O141 O 0.84294 0.60884 0.57938 0.0
O142 O 0.80384 0.69398 0.59115 0.0
O143 O 0.86916 0.72635 0.56436 0.0
O144 O 0.74501 0.65072 0.63605 0.0
O145 O 0.78678 0.61101 0.63937 0.0
O146 O 0.78229 0.76968 0.63058 0.0
O147 O 0.80483 0.77345 0.68784 0.0
O148 O 0.8604 0.69699 0.67576 0.0
O149 O 0.7938 0.67792 0.70038 0.0
O150 O 0.9272 0.73561 0.63284 0.0
O151 O 0.89579 0.78445 0.63821 0.0
H152 H 0.9107 0.56347 0.54352 0.0
H153 H 0.91796 0.49342 0.55884 0.0
H154 H 0.8639 0.49059 0.66752 0.0
H155 H 0.85641 0.56058 0.65193 0.0
H156 H 0.80371 0.85567 0.71591 0.0
H157 H 0.84146 0.94302 0.71109 0.0
H158 H 0.87767 0.93618 0.59833 0.0
H159 H 0.84069 0.84938 0.6031 0.0
Pr160 Pr 0.21302 0.84231 0.11585 0.0
Pr161 Pr 0.1175 0.79668 0.15125 0.0
C162 C 0.30175 0.87175 0.09066 0.0
C163 C 0.34555 0.8699 0.09856 0.0
C164 C 0.37681 0.87719 0.06968 0.0
C165 C 0.42123 0.88137 0.07678 0.0
C166 C 0.43539 0.87868 0.113 0.0
C167 C 0.40307 0.86905 0.14177 0.0
C168 C 0.35842 0.86465 0.13462 0.0
C169 C 0.13285 0.80564 0.068 0.0
C170 C 0.16811 0.73231 0.1414 0.0
C171 C 1.0268 0.77382 0.16295 0.0
C172 C 1.00176 0.80161 0.1604 0.0
C173 C 0.97792 0.80546 0.19112 0.0
C174 C 0.95171 0.82911 0.18831 0.0
C175 C 0.94905 0.84931 0.15474 0.0
C176 C 0.97431 0.84719 0.12441 0.0
C177 C 1.00074 0.8239 0.12724 0.0
C178 C 0.1874 0.82075 0.20416 0.0
C179 C 0.17919 0.91596 0.13714 0.0
O180 O 0.29153 0.89653 0.11329 0.0
O181 O 0.2642 0.8327 0.07918 0.0
O182 O 0.13934 0.78617 0.09528 0.0
O183 O 0.16938 0.84823 0.0639 0.0
O184 O 0.12555 0.72886 0.1413 0.0
O185 O 0.20714 0.7743 0.14209 0.0
O186 O 1.04123 0.7651 0.13198 0.0
O187 O 0.05766 0.78462 0.18989 0.0
O188 O 0.19152 0.84718 0.1766 0.0
O189 O 0.14665 0.781 0.20422 0.0
O190 O 0.21684 0.9127 0.12983 0.0
O191 O 0.13675 0.87746 0.14096 0.0
H192 H 0.36748 0.8812 0.04169 0.0
H193 H 0.44527 0.88847 0.05405 0.0
H194 H 0.41262 0.86559 0.16982 0.0
H195 H 0.33456 0.85845 0.15729 0.0
H196 H 0.97839 0.78894 0.21701 0.0
H197 H 0.93166 0.82962 0.21182 0.0
H198 H 0.97197 0.86188 0.09812 0.0
H199 H 1.01917 0.82219 0.10308 0.0
Pr200 Pr 0.39854 0.19808 0.61491 0.0
Pr201 Pr 0.35001 0.10308 0.65043 0.0
C202 C 0.45783 0.28674 0.58889 0.0
C203 C 0.50395 0.33011 0.59637 0.0
C204 C 0.52603 0.36316 0.56795 0.0
C205 C 0.56621 0.40757 0.5752 0.0
C206 C 0.58486 0.41989 0.61115 0.0
C207 C 0.56443 0.38554 0.63921 0.0
C208 C 0.52413 0.34098 0.63191 0.0
C209 C 0.35314 0.11795 0.5673 0.0
C210 C 0.46414 0.1533 0.63936 0.0
C211 C 0.2819 1.01229 0.66224 0.0
C212 C 0.2291 0.98759 0.66051 0.0
C213 C 0.20231 0.9622 0.69119 0.0
C214 C 0.15252 0.93537 0.68891 0.0
C215 C 0.12871 0.9338 0.65598 0.0
C216 C 0.15515 0.96107 0.62585 0.0
C217 C 0.20493 0.98798 0.62812 0.0
C218 C 0.39698 0.17249 0.70339 0.0
C219 C 0.29162 0.16479 0.63538 0.0
O220 O 0.42371 0.27686 0.6122 0.0
O221 O 0.45831 0.24888 0.57714 0.0
O222 O 0.38041 0.12455 0.59379 0.0
O223 O 0.34653 0.15426 0.56408 0.0
O224 O 0.42522 0.11055 0.63925 0.0
O225 O 0.46062 0.19194 0.64121 0.0
O226 O 0.30423 1.02711 0.63097 0.0
O227 O 0.3029 0.04264 0.68922 0.0
O228 O 0.37414 0.17681 0.67612 0.0
O229 O 0.39603 0.13175 0.70286 0.0
O230 O 0.33223 0.20245 0.62731 0.0
O231 O 0.28862 0.12304 0.64189 0.0
H232 H 0.51122 0.35522 0.54029 0.0
H233 H 0.58211 0.43271 0.55279 0.0
H234 H 0.5784 0.39389 0.66708 0.0
H235 H 0.5078 0.31573 0.6542 0.0
H236 H 0.21999 0.96163 0.7165 0.0
H237 H 0.13274 0.9137 0.71218 0.0
H238 H 0.13749 0.95939 0.59995 0.0
H239 H 0.22444 1.00763 0.60403 0.0
Pr240 Pr 0.69055 0.8454 0.43845 0.0
Pr241 Pr 0.73782 0.79714 0.40498 0.0
C242 C 0.6309 0.87491 0.46263 0.0
C243 C 0.58465 0.87186 0.45492 0.0
C244 C 0.5602 0.87814 0.48397 0.0
C245 C 0.51984 0.88217 0.47702 0.0
C246 C 0.50326 0.88014 0.44079 0.0
C247 C 0.52605 0.87086 0.41188 0.0
C248 C 0.56659 0.86692 0.41886 0.0
C249 C 0.73573 0.81251 0.48785 0.0
C250 C 0.62336 0.73388 0.41537 0.0
C251 C 0.8046 0.77252 0.3935 0.0
C252 C 0.85749 0.79925 0.39614 0.0
C253 C 0.88536 0.80565 0.36491 0.0
C254 C 0.93523 0.82875 0.36784 0.0
C255 C 0.95797 0.84562 0.40212 0.0
C256 C 0.93028 0.84089 0.43298 0.0
C257 C 0.88069 0.81821 0.43001 0.0
C258 C 0.69292 0.82074 0.35066 0.0
C259 C 0.79863 0.91739 0.41993 0.0
O260 O 0.66505 0.89874 0.43913 0.0
O261 O 0.63055 0.83696 0.47552 0.0
O262 O 0.70813 0.79017 0.46187 0.0
O263 O 0.74251 0.85555 0.48947 0.0
O264 O 0.66209 0.72983 0.4164 0.0
O265 O 0.62767 0.77641 0.41338 0.0
O266 O 0.78138 0.7643 0.4244 0.0
O267 O 0.78509 0.78392 0.36657 0.0
O268 O 0.71579 0.84799 0.37773 0.0
O269 O 0.69268 0.78038 0.35208 0.0
O270 O 0.75885 0.91603 0.42823 0.0
O271 O 0.80016 0.87802 0.41302 0.0
H272 H 0.5733 0.88159 0.512 0.0
H273 H 0.50218 0.88795 0.49993 0.0
H274 H 0.51369 0.86864 0.38374 0.0
H275 H 0.58468 0.86162 0.39602 0.0
H276 H 0.86849 0.79172 0.33843 0.0
H277 H 0.95582 0.83143 0.34373 0.0
H278 H 0.94701 0.85353 0.45971 0.0
H279 H 0.86053 0.81447 0.45453 0.0
Pr280 Pr 0.87315 0.67073 0.93865 0.0
Pr281 Pr 0.97363 0.7288 0.90466 0.0
C282 C 0.78149 0.61891 0.95966 0.0
C283 C 0.73812 0.57279 0.95198 0.0
C284 C 0.70947 0.54581 0.98138 0.0
C285 C 0.66576 0.50443 0.97473 0.0
C286 C 0.64989 0.48931 0.93849 0.0
C287 C 0.67969 0.51527 0.9091 0.0
C288 C 0.72355 0.5565 0.91578 0.0
C289 C 0.95049 0.71655 0.98837 0.0
C290 C 0.92629 0.61332 0.91854 0.0
C291 C 0.06582 0.79323 0.8947 0.0
C292 C 0.09371 0.84593 0.89658 0.0
C293 C 0.10485 0.8729 0.86399 0.0
C294 C 0.1311 0.92263 0.8653 0.0
C295 C 0.14652 0.94634 0.89921 0.0
C296 C 0.13463 0.91963 0.93183 0.0
C297 C 0.1087 0.86986 0.93045 0.0
C298 C 0.91249 0.68422 0.8456 0.0
C299 C 0.90736 0.78096 0.913 0.0
O300 O 0.79602 0.65157 0.93394 0.0
O301 O 0.81633 0.61744 0.97689 0.0
O302 O 0.94381 0.73405 0.9596 0.0
O303 O 0.91588 0.67311 0.99267 0.0
O304 O 0.96679 0.65462 0.92143 0.0
O305 O 0.88505 0.61145 0.91548 0.0
O306 O 0.05015 0.76931 0.92554 0.0
O307 O 1.03468 0.77588 0.86782 0.0
O308 O 0.89859 0.67946 0.87869 0.0
O309 O 0.95828 0.70944 0.84319 0.0
O310 O 0.87239 0.74044 0.9257 0.0
O311 O 0.94941 0.78638 0.90467 0.0
H312 H 0.72032 0.5575 1.00952 0.0
H313 H 0.64389 0.48477 0.99793 0.0
H314 H 0.6683 0.50491 0.88086 0.0
H315 H 0.74528 0.57642 0.89261 0.0
H316 H 0.09384 0.85554 0.83739 0.0
H317 H 0.14025 0.94261 0.83977 0.0
H318 H 0.14719 0.93712 0.95827 0.0
H319 H 0.10139 0.85017 0.95579 0.0
Pr320 Pr 0.23061 0.86042 0.43836 0.0
Pr321 Pr 0.27459 0.95647 0.40605 0.0
C322 C 0.20289 0.77117 0.46276 0.0
C323 C 0.205 0.72757 0.45454 0.0
C324 C 0.20586 0.6994 0.48366 0.0
C325 C 0.20105 0.65461 0.47681 0.0
C326 C 0.19437 0.6367 0.44064 0.0
C327 C 0.19655 0.66646 0.41139 0.0
C328 C 0.20194 0.71146 0.41825 0.0
C329 C 0.25944 0.93645 0.48884 0.0
C330 C 0.34187 0.90943 0.41631 0.0
C331 C 0.30015 0.04812 0.3932 0.0
C332 C 0.27555 0.07612 0.39373 0.0
C333 C 0.28261 0.10797 0.36497 0.0
C334 C 0.26296 0.13778 0.36673 0.0
C335 C 0.23561 0.13574 0.39713 0.0
C336 C 0.22637 0.10216 0.42496 0.0
C337 C 0.24612 0.07248 0.42323 0.0
C338 C 0.25575 0.89031 0.3511 0.0
C339 C 0.15545 0.8934 0.41837 0.0
O340 O 0.17745 0.78152 0.44047 0.0
O341 O 0.24179 0.80884 0.47434 0.0
O342 O 0.28307 0.93378 0.46303 0.0
O343 O 0.21745 0.89873 0.48972 0.0
O344 O 0.34308 0.95085 0.4186 0.0
O345 O 0.30083 0.86942 0.41417 0.0
O346 O 0.30642 0.0328 0.42497 0.0
O347 O 0.28817 1.01675 0.36679 0.0
O348 O 0.22738 0.88339 0.37755 0.0
O349 O 0.29452 0.93161 0.35343 0.0
O350 O 0.15933 0.8556 0.42452 0.0
O351 O 0.19366 0.9361 0.41443 0.0
H352 H 0.20881 0.71144 0.51186 0.0
H353 H 0.20181 0.63379 0.49994 0.0
H354 H 0.19204 0.65419 0.38317 0.0
H355 H 0.20179 0.73281 0.39524 0.0
H356 H 0.30452 0.11082 0.3417 0.0
H357 H 0.27026 0.16345 0.34494 0.0
H358 H 0.20561 0.10033 0.44874 0.0
H359 H 0.23935 0.04763 0.44542 0.0
Pr360 Pr 0.40172 0.21747 0.93817 0.0
Pr361 Pr 0.34387 0.26191 0.90433 0.0
C362 C 0.45434 0.1783 0.96003 0.0
C363 C 0.50065 0.18178 0.95283 0.0
C364 C 0.52606 0.17668 0.98227 0.0
C365 C 0.56811 0.17588 0.97596 0.0
C366 C 0.58534 0.18004 0.94002 0.0
C367 C 0.56097 0.18711 0.91069 0.0
C368 C 0.51904 0.1883 0.91706 0.0
C369 C 0.35666 0.24899 0.98764 0.0
C370 C 0.45931 0.32789 0.91611 0.0
C371 C 0.27876 0.28915 0.89437 0.0
C372 C 0.2261 0.26419 0.89744 0.0
C373 C 0.19704 0.24243 0.8663 0.0
C374 C 0.14743 0.21836 0.86905 0.0
C375 C 0.12578 0.21514 0.90302 0.0
C376 C 0.15462 0.23646 0.93418 0.0
C377 C 0.20425 0.26117 0.93127 0.0
C378 C 0.38669 0.24416 0.84531 0.0
C379 C 0.29209 0.14355 0.91222 0.0
O380 O 0.42171 0.15997 0.93409 0.0
O381 O 0.45546 0.21444 0.9769 0.0
O382 O 0.33909 0.22529 0.9588 0.0
O383 O 0.40002 0.25767 0.99209 0.0
O384 O 0.41892 0.32835 0.92066 0.0
O385 O 0.45942 0.28758 0.91274 0.0
O386 O 0.30426 0.2987 0.92476 0.0
O387 O 0.295 0.27455 0.86764 0.0
O388 O 0.39176 0.23505 0.87849 0.0
O389 O 0.3619 0.26527 0.84271 0.0
O390 O 0.33286 0.14767 0.92293 0.0
O391 O 0.28612 0.18051 0.90625 0.0
H392 H 0.51266 0.172 1.01008 0.0
H393 H 0.5862 0.17024 0.99902 0.0
H394 H 0.57404 0.19103 0.88283 0.0
H395 H 0.50045 0.19314 0.89398 0.0
H396 H 0.2126 0.24438 0.83964 0.0
H397 H 0.1259 0.20277 0.84451 0.0
H398 H 0.13881 0.23576 0.96047 0.0
H399 H 0.22554 0.27885 0.95526 0.0
Pr400 Pr 0.20992 0.38836 0.4364 0.0
Pr401 Pr 0.1215 0.33273 0.39534 0.0
C402 C 0.29475 0.45299 0.46699 0.0
C403 C 0.3422 0.49335 0.45763 0.0
C404 C 0.37893 0.51037 0.4841 0.0
C405 C 0.42424 0.54868 0.47607 0.0
C406 C 0.43345 0.57091 0.44149 0.0
C407 C 0.39653 0.55428 0.41508 0.0
C408 C 0.35127 0.51556 0.42299 0.0
C409 C 0.12794 0.33615 0.48161 0.0
C410 C 0.15918 0.44544 0.40965 0.0
C411 C 1.04138 0.26003 0.36492 0.0
C412 C 1.00822 0.20954 0.37475 0.0
C413 C 0.96595 0.18277 0.35456 0.0
C414 C 0.93479 0.13476 0.36329 0.0
C415 C 0.94502 0.1128 0.39273 0.0
C416 C 0.98744 0.13958 0.41291 0.0
C417 C 1.01909 0.18724 0.40357 0.0
C418 C 0.19136 0.38896 0.34615 0.0
C419 C 0.18785 0.2851 0.41675 0.0
O420 O 0.28488 0.41041 0.45648 0.0
O421 O 0.25852 0.4599 0.46341 0.0
O422 O 0.13085 0.35955 0.4535 0.0
O423 O 0.16923 0.34083 0.48929 0.0
O424 O 0.11915 0.40338 0.40987 0.0
O425 O 0.20045 0.44741 0.40918 0.0
O426 O 0.08436 0.26985 0.35671 0.0
O427 O 1.04106 0.29345 0.38487 0.0
O428 O 0.19867 0.36773 0.37311 0.0
O429 O 0.14945 0.38456 0.34717 0.0
O430 O 0.22361 0.32884 0.41744 0.0
O431 O 0.14402 0.27776 0.41805 0.0
H432 H 0.37253 0.494 0.51109 0.0
H433 H 0.45199 0.56136 0.497 0.0
H434 H 0.40285 0.57109 0.38828 0.0
H435 H 0.32338 0.50305 0.40218 0.0
H436 H 0.95712 0.19894 0.33193 0.0
H437 H 0.90233 0.11486 0.34725 0.0
H438 H 0.99637 0.12352 0.43558 0.0
H439 H 0.05135 0.20722 0.41968 0.0
Pr440 Pr 0.85764 0.19854 0.93961 0.0
Pr441 Pr 0.80978 0.10097 0.9058 0.0
C442 C 0.88928 0.28865 0.96353 0.0
C443 C 0.88596 0.33201 0.95766 0.0
C444 C 0.90693 0.36858 0.98382 0.0
C445 C 0.91088 0.41293 0.97707 0.0
C446 C 0.89361 0.42175 0.944 0.0
C447 C 0.86975 0.38382 0.91871 0.0
C448 C 0.86634 0.3394 0.92534 0.0
C449 C 0.8229 0.1198 0.98834 0.0
C450 C 0.74657 0.1523 0.91555 0.0
C451 C 0.78616 1.01002 0.89343 0.0
C452 C 0.81396 0.9851 0.89359 0.0
C453 C 0.81107 0.95718 0.8632 0.0
C454 C 0.834 0.93035 0.86401 0.0
C455 C 0.86056 0.9313 0.89509 0.0
C456 C 0.86589 0.96132 0.92471 0.0
C457 C 0.8428 0.98812 0.92398 0.0
C458 C 0.8335 0.16959 0.85231 0.0
C459 C 0.92888 0.1618 0.91974 0.0
O460 O 0.91009 0.27769 0.93787 0.0
O461 O 0.85297 0.2514 0.9781 0.0
O462 O 0.80217 0.12566 0.96153 0.0
O463 O 0.86582 0.15623 0.99134 0.0
O464 O 0.74275 0.10954 0.91608 0.0
O465 O 0.78848 0.19136 0.91423 0.0
O466 O 0.78042 1.02514 0.92522 0.0
O467 O 0.79452 0.04029 0.86663 0.0
O468 O 0.86035 0.1739 0.87963 0.0
O469 O 0.79359 0.12911 0.85268 0.0
O470 O 0.92688 0.20072 0.92477 0.0
O471 O 0.8899 0.11946 0.91711 0.0
H472 H 0.92211 0.36349 1.00897 0.0
H473 H 0.92934 0.44097 0.99727 0.0
H474 H 0.85424 0.38854 0.89364 0.0
H475 H 0.84951 0.31132 0.90492 0.0
H476 H 0.78971 0.95486 0.83931 0.0
H477 H 0.82935 0.90719 0.84096 0.0
H478 H 0.88574 0.96206 0.94913 0.0
H479 H 0.84635 1.00997 0.94766 0.0
C480 C 0.15723 0.9802 0.13057 0.0
C481 C 0.18707 0.96411 0.14508 0.0
C482 C 0.16915 1.02825 0.13471 0.0
C483 C 0.21061 0.06109 0.15419 0.0
H484 H 0.12576 0.95617 0.11472 0.0
H485 H 0.14629 0.03997 0.12216 0.0
S486 S 0.29839 0.03516 0.19936 0.0
N487 N 0.25817 0.9838 0.18117 0.0
N488 N 0.28042 0.07334 0.18883 0.0
C489 C 0.23947 0.0446 0.1699 0.0
C490 C 0.2277 0.99628 0.1654 0.0
C491 C 0.2143 0.14608 0.66496 0.0
C492 C 0.2496 0.17118 0.63844 0.0
C493 C 0.1783 0.15742 0.67154 0.0
C494 C 0.17609 0.19342 0.65122 0.0
H495 H 0.21567 0.11904 0.68177 0.0
H496 H 0.15246 0.1384 0.69285 0.0
S497 S 0.2586 0.26817 0.57787 0.0
N498 N 0.27893 0.23275 0.59115 0.0
N499 N 0.21128 0.25325 0.60331 0.0
C500 C 0.21023 0.21762 0.62401 0.0
C501 C 0.24697 0.20666 0.61763 0.0
C502 C 0.04974 0.16811 0.17267 0.0
C503 C 1.0121 0.16491 0.15089 0.0
C504 C 0.09732 0.20339 0.16576 0.0
C505 C 0.10843 0.23704 0.13734 0.0
H506 H 1.04226 0.14358 0.19535 0.0
H507 H 0.12527 0.20555 0.18366 0.0
S508 S 1.02214 0.24205 0.07191 0.0
N509 N 0.98891 0.19669 0.09921 0.0
N510 N 0.07756 0.26327 0.08649 0.0
C511 C 0.07086 0.23326 0.11503 0.0
C512 C 1.02288 0.19714 0.12175 0.0
C513 C 0.91983 0.03465 0.65941 0.0
C514 C 0.8753 0.99607 0.64888 0.0
C515 C 0.93036 0.08214 0.65397 0.0
C516 C 0.89649 0.09228 0.63806 0.0
H517 H 0.94641 1.02806 0.67205 0.0
H518 H 0.96473 0.11094 0.66303 0.0
S519 S 0.7749 1.00226 0.60528 0.0
N520 N 0.79776 0.97033 0.6216 0.0
N521 N 0.81675 0.05852 0.61102 0.0
C522 C 0.85206 0.05337 0.62701 0.0
C523 C 0.84166 1.00554 0.63255 0.0
C524 C 0.86897 0.83072 0.13371 0.0
C525 C 0.91291 0.86387 0.1493 0.0
C526 C 0.83268 0.8416 0.1289 0.0
C527 C 0.83878 0.88628 0.1394 0.0
H528 H 0.86238 0.7957 0.12559 0.0
H529 H 0.7993 0.81423 0.11708 0.0
S530 S 0.94882 0.9865 0.18004 0.0
N531 N 0.96192 0.94368 0.17425 0.0
N532 N 0.8934 0.96464 0.1651 0.0
C533 C 0.88322 0.92035 0.15431 0.0
C534 C 0.92033 0.90899 0.15938 0.0
C535 C 0.99278 0.86559 0.64916 0.0
C536 C 0.98306 0.81909 0.64031 0.0
C537 C 1.04004 0.90334 0.6541 0.0
C538 C 0.07878 0.89553 0.6504 0.0
H539 H 0.96381 0.87278 0.6527 0.0
H540 H 0.04631 0.93854 0.66114 0.0
S541 S 0.07395 0.78235 0.62593 0.0
N542 N 1.01772 0.76892 0.62674 0.0
N543 N 0.10522 0.83955 0.63643 0.0
C544 C 0.06976 0.8499 0.64106 0.0
C545 C 1.02225 0.81175 0.6359 0.0
C546 C 0.07015 0.84864 0.43589 0.0
C547 C 0.1067 0.88637 0.41595 0.0
C548 C 1.02258 0.83689 0.43176 0.0
C549 C 1.00935 0.86185 0.40708 0.0
H550 H 0.07825 0.82744 0.45461 0.0
H551 H 0.99567 0.80702 0.44728 0.0
S552 S 0.09121 0.96496 0.34945 0.0
N553 N 0.12666 0.95012 0.3717 0.0
N554 N 1.03653 0.92718 0.36333 0.0
C555 C 0.04543 0.90028 0.3874 0.0
C556 C 0.0943 0.91288 0.39211 0.0
C557 C 0.22234 1.01665 0.87974 0.0
C558 C 0.18021 0.99819 0.90022 0.0
C559 C 0.25791 0.06439 0.88316 0.0
C560 C 0.25205 0.09536 0.90657 0.0
H561 H 0.22872 0.99355 0.86207 0.0
H562 H 0.29059 0.07703 0.86785 0.0
S563 S 0.14766 0.06564 0.96467 0.0
N564 N 0.13392 1.01494 0.94383 0.0
N565 N 0.20099 0.10554 0.94963 0.0
C566 C 0.20956 0.07812 0.92618 0.0
C567 C 0.17353 1.02917 0.92321 0.0
C568 C 0.24568 0.25571 0.41275 0.0
C569 C 0.19788 0.24521 0.41315 0.0
C570 C 0.25729 0.22002 0.40709 0.0
C571 C 0.22165 0.17232 0.40195 0.0
H572 H 0.27471 0.29195 0.41652 0.0
H573 H 0.29452 0.22975 0.40703 0.0
S574 S 0.09143 0.12507 0.39992 0.0
N575 N 0.11474 0.18292 0.40727 0.0
N576 N 0.13696 0.11572 0.39733 0.0
C577 C 0.17384 0.16083 0.40257 0.0
C578 C 0.16187 0.19732 0.40799 0.0
C579 C 0.05192 0.21324 0.88136 0.0
C580 C 0.0736 0.19504 0.90498 0.0
C581 C 1.0041 0.20012 0.88545 0.0
C582 C 0.97602 0.16771 0.91283 0.0
H583 H 0.07266 0.23961 0.86069 0.0
H584 H 0.98928 0.2166 0.86773 0.0
S585 S 1.0144 0.10671 0.97966 0.0
N586 N 0.06266 0.14078 0.95537 0.0
N587 N 0.97196 0.11558 0.9626 0.0
C588 C 0.99629 0.14729 0.93546 0.0
C589 C 0.0454 0.16121 0.93169 0.0
C590 C 0.89696 1.02683 0.37405 0.0
C591 C 0.91155 0.06186 0.40176 0.0
C592 C 0.86269 0.97899 0.38092 0.0
C593 C 0.84129 0.96478 0.41557 0.0
H594 H 0.91155 0.0367 0.34663 0.0
H595 H 0.85109 0.95352 0.35847 0.0
S596 S 0.86805 0.04154 0.49796 0.0
N597 N 0.90337 0.07815 0.46583 0.0
N598 N 0.83789 0.98849 0.47824 0.0
C599 C 0.8563 0.99897 0.44378 0.0
C600 C 0.89182 0.04747 0.43704 0.0
C601 C 0.85028 0.81059 0.90526 0.0
C602 C 0.8979 0.82094 0.90787 0.0
C603 C 0.83913 0.84676 0.90073 0.0
C604 C 0.875 0.89484 0.89905 0.0
H605 H 0.82108 0.77409 0.90646 0.0
H606 H 0.80195 0.83705 0.89893 0.0
S607 S 1.00525 0.94174 0.90475 0.0
N608 N 0.98147 0.88324 0.90832 0.0
N609 N 0.96004 0.9516 0.90043 0.0
C610 C 0.9228 0.90616 0.90181 0.0
C611 C 0.93435 0.86907 0.90594 0.0
C612 C 0.21569 0.69727 0.11752 0.0
C613 C 0.17429 0.69043 0.13555 0.0
C614 C 0.22316 0.65906 0.11031 0.0
C615 C 0.19001 0.61265 0.12151 0.0
H616 H 0.24237 0.73243 0.10819 0.0
H617 H 0.25515 0.66586 0.09603 0.0
S618 S 0.07614 0.5751 0.16922 0.0
N619 N 0.09954 0.63331 0.16375 0.0
N620 N 0.11435 0.56139 0.15111 0.0
C621 C 0.14872 0.60514 0.13966 0.0
C622 C 0.14059 0.64401 0.14638 0.0
C623 C 0.57041 0.13294 0.63864 0.0
C624 C 0.60563 0.17445 0.6211 0.0
C625 C 0.52426 0.12558 0.64429 0.0
C626 C 0.51237 0.16008 0.63334 0.0
H627 H 0.57839 0.10566 0.64748 0.0
H628 H 0.49802 0.09305 0.6576 0.0
S629 S 0.59237 0.27492 0.58598 0.0
N630 N 0.62561 0.2501 0.59265 0.0
N631 N 0.53991 0.23711 0.60337 0.0
C632 C 0.54766 0.20184 0.61583 0.0
C633 C 0.59405 0.20884 0.6097 0.0
C634 C 0.42074 0.57303 0.09837 0.0
C635 C 0.46174 0.59254 0.12086 0.0
C636 C 0.38303 0.52666 0.10421 0.0
C637 C 0.38518 0.49767 0.13231 0.0
H638 H 0.41762 0.59389 0.07623 0.0
H639 H 0.35189 0.51326 0.08642 0.0
S640 S 0.48376 0.53175 0.19917 0.0
N641 N 0.50186 0.57938 0.17278 0.0
N642 N 0.43066 0.49163 0.18326 0.0
C643 C 0.42572 0.5164 0.15495 0.0
C644 C 0.46401 0.56407 0.14943 0.0
C645 C 0.94415 0.45002 0.61895 0.0
C646 C 0.8995 0.44649 0.62448 0.0
C647 C 0.95228 0.41244 0.62845 0.0
C648 C 0.91592 0.36977 0.64364 0.0
H649 H 0.97309 0.48216 0.60713 0.0
H650 H 0.98678 0.41632 0.62275 0.0
S651 S 0.79156 0.34191 0.6618 0.0
N652 N 0.81807 0.3965 0.64477 0.0
N653 N 0.83283 0.32629 0.66323 0.0
C654 C 0.87099 0.36603 0.64937 0.0
C655 C 0.86289 0.4042 0.63963 0.0
C656 C 0.54804 0.87075 0.10567 0.0
C657 C 0.57939 0.90497 0.13132 0.0
C658 C 0.50165 0.86237 0.10006 0.0
C659 C 0.4843 0.8872 0.1204 0.0
H660 H 0.55957 0.85026 0.0896 0.0
H661 H 0.47902 0.83589 0.07988 0.0
S662 S 0.55154 0.97966 0.19139 0.0
N663 N 0.58981 0.9636 0.17729 0.0
N664 N 0.50205 0.94739 0.16731 0.0
C665 C 0.51511 0.92127 0.14633 0.0
C666 C 0.56283 0.93042 0.15156 0.0
C667 C 0.70284 0.52183 0.64671 0.0
C668 C 0.70208 0.56291 0.63448 0.0
C669 C 0.66463 0.47581 0.63962 0.0
C670 C 0.62438 0.46899 0.61954 0.0
H671 H 0.73367 0.52516 0.66136 0.0
H672 H 0.66718 0.44534 0.64906 0.0
S673 S 0.60406 0.56435 0.58207 0.0
N674 N 0.65718 0.59354 0.60189 0.0
N675 N 0.58523 0.50712 0.58869 0.0
C676 C 0.62276 0.50969 0.60774 0.0
C677 C 0.66153 0.55659 0.61525 0.0
C678 C 0.38561 0.86524 0.4054 0.0
C679 C 0.38563 0.90583 0.41948 0.0
C680 C 0.42402 0.85751 0.4118 0.0
C681 C 0.46357 0.88964 0.43312 0.0
H682 H 0.35528 0.83874 0.38972 0.0
H683 H 0.42219 0.82554 0.40081 0.0
S684 S 0.48152 1.00148 0.47599 0.0
N685 N 0.429 0.97871 0.45532 0.0
N686 N 0.50108 0.96418 0.46746 0.0
C687 C 0.46434 0.93062 0.44695 0.0
C688 C 0.42549 0.93879 0.44004 0.0
C689 C 0.5618 0.44559 0.94999 0.0
C690 C 0.60116 0.44845 0.9314 0.0
C691 C 0.51524 0.40795 0.94339 0.0
C692 C 0.50649 0.3717 0.9181 0.0
H693 H 0.56701 0.47274 0.96983 0.0
H694 H 0.48627 0.40628 0.95918 0.0
S695 S 0.59684 0.36188 0.86257 0.0
N696 N 0.62799 0.41109 0.88701 0.0
N697 N 0.54071 0.34101 0.87409 0.0
C698 C 0.54541 0.37436 0.89905 0.0
C699 C 0.59267 0.41252 0.9058 0.0
C700 C 0.20472 0.57763 0.40285 0.0
C701 C 0.18351 0.5868 0.43301 0.0
C702 C 0.19393 0.53108 0.3941 0.0
C703 C 0.16095 0.49154 0.41472 0.0
H704 H 0.23074 0.60678 0.38626 0.0
H705 H 0.21259 0.52608 0.37151 0.0
S706 S 0.09828 0.49569 0.49806 0.0
N707 N 0.12903 0.55185 0.48447 0.0
N708 N 0.10983 0.46459 0.46813 0.0
C709 C 0.13984 0.49992 0.44513 0.0
C710 C 0.15097 0.54745 0.4543 0.0
C711 C 0.66167 0.13075 0.90335 0.0
C712 C 0.7052 0.15864 0.92184 0.0
C713 C 0.62337 0.13886 0.90859 0.0
C714 C 0.62718 0.17434 0.93309 0.0
H715 H 0.65747 0.10313 0.88437 0.0
H716 H 0.59022 0.11665 0.89393 0.0
S717 S 0.73356 0.25624 0.98866 0.0
N718 N 0.74989 0.22284 0.96582 0.0
N719 N 0.6779 0.23746 0.97586 0.0
C720 C 0.67047 0.20216 0.95187 0.0
C721 C 0.70948 0.19443 0.94619 0.0
C722 C 0.52144 0.60641 0.4314 0.0
C723 C 0.48126 0.61219 0.43339 0.0
C724 C 0.56713 0.64548 0.4244 0.0
C725 C 0.57433 0.69185 0.41947 0.0
H726 H 0.51748 0.57139 0.43534 0.0
H727 H 0.59704 0.63936 0.42348 0.0
S728 S 0.48006 0.72568 0.42461 0.0
N729 N 0.45134 0.66739 0.43128 0.0
N730 N 0.53627 0.74083 0.41846 0.0
C731 C 0.53394 0.69779 0.42169 0.0
C732 C 0.48769 0.658 0.42858 0.0
C733 C 0.90898 0.54525 0.95918 0.0
C734 C 0.92428 0.56745 0.9248 0.0
C735 C 0.89827 0.49803 0.9648 0.0
C736 C 0.90225 0.47092 0.93618 0.0
H737 H 0.90409 0.56423 0.9817 0.0
H738 H 0.88609 0.48245 0.99175 0.0
S739 S 0.93817 0.51274 0.84011 0.0
N740 N 0.94032 0.55892 0.8612 0.0
N741 N 0.92189 0.47051 0.87159 0.0
C742 C 0.91697 0.49287 0.90137 0.0
C743 C 0.92764 0.54105 0.89575 0.0
C744 C 0.18113 0.37865 0.27822 0.0
C745 C 0.21178 0.39284 0.30932 0.0
C746 C 0.19763 0.37818 0.24294 0.0
C747 C 0.24553 0.39219 0.23724 0.0
H748 H 0.14342 0.36594 0.28116 0.0
H749 H 0.17222 0.36491 0.22029 0.0
S750 S 0.34146 0.43825 0.30874 0.0
N751 N 0.29263 0.42464 0.33181 0.0
N752 N 0.32469 0.42534 0.26521 0.0
C753 C 0.27719 0.40903 0.26781 0.0
C754 C 0.26003 0.40876 0.30393 0.0
C755 C 0.85669 0.23539 0.76219 0.0
C756 C 0.87887 0.21524 0.74182 0.0
C757 C 0.84309 0.22154 0.79875 0.0
C758 C 0.85321 0.18879 0.81614 0.0
H759 H 0.85022 0.2622 0.74985 0.0
H760 H 0.82468 0.23649 0.81349 0.0
S761 S 0.9128 0.12783 0.77512 0.0
N762 N 0.91125 0.16181 0.74168 0.0
N763 N 0.88691 0.13679 0.81074 0.0
C764 C 0.87595 0.16894 0.79619 0.0
C765 C 0.88862 0.18204 0.75886 0.0
C766 C 0.65215 0.85141 0.26173 0.0
C767 C 0.69219 0.86649 0.23911 0.0
C768 C 0.65263 0.83758 0.29844 0.0
C769 C 0.69374 0.8401 0.31382 0.0
H770 H 0.62037 0.85043 0.25095 0.0
H771 H 0.62078 0.82481 0.3148 0.0
S772 S 0.80882 0.88033 0.26707 0.0
N773 N 0.77445 0.88468 0.23523 0.0
N774 N 0.77567 0.85984 0.30427 0.0
C775 C 0.73416 0.85585 0.29169 0.0
C776 C 0.73336 0.86887 0.25428 0.0
C777 C 0.87582 0.7182 0.7581 0.0
C778 C 0.85077 0.67466 0.7392 0.0
C779 C 0.89182 0.71991 0.79422 0.0
C780 C 0.88327 0.67816 0.81277 0.0
H781 H 0.88337 0.75126 0.74472 0.0
H782 H 0.91285 0.7545 0.80728 0.0
S783 S 0.81787 0.55516 0.77564 0.0
N784 N 0.81601 0.5886 0.74182 0.0
N785 N 0.84777 0.59205 0.80984 0.0
C786 C 0.85721 0.63422 0.79456 0.0
C787 C 0.84046 0.63242 0.75767 0.0
C788 C 0.21709 0.88446 0.25194 0.0
C789 C 0.21052 0.84029 0.24 0.0
C790 C 0.23074 0.8997 0.28837 0.0
C791 C 0.2382 0.87129 0.314 0.0
H792 H 0.20983 0.90651 0.23349 0.0
H793 H 0.23517 0.93385 0.29666 0.0
S794 S 0.22901 0.7546 0.29581 0.0
N795 N 0.21423 0.76927 0.25618 0.0
N796 N 0.24085 0.79866 0.32464 0.0
C797 C 0.23288 0.82774 0.30228 0.0
C798 C 0.21875 0.81205 0.26523 0.0
C799 C 0.43562 0.23848 0.79475 0.0
C800 C 0.39177 0.22039 0.81282 0.0
C801 C 0.43754 0.22334 0.75879 0.0
C802 C 0.39555 0.191 0.73988 0.0
H803 H 0.4681 0.26558 0.80787 0.0
H804 H 0.47175 0.2376 0.74547 0.0
S805 S 0.27281 0.13096 0.77652 0.0
N806 N 0.30625 0.16635 0.81023 0.0
N807 N 0.30978 0.13894 0.74272 0.0
C808 C 0.35195 0.17176 0.75823 0.0
C809 C 0.35011 0.18631 0.79472 0.0
C810 C 0.28534 0.25643 1.00416 0.0
C811 C 0.33432 0.27203 1.00858 0.0
C812 C 0.26405 0.27954 1.02215 0.0
C813 C 0.29117 0.31972 0.04448 0.0
H814 H 0.26323 0.2261 0.98663 0.0
H815 H 0.22613 0.26568 1.0188 0.0
S816 S 0.42013 0.37271 0.06719 0.0
N817 N 0.4084 0.32809 0.03913 0.0
N818 N 0.36949 0.37271 0.07131 0.0
C819 C 0.34005 0.33505 0.04954 0.0
C820 C 0.36132 0.31092 0.03204 0.0
C821 C 0.0865 0.33122 0.54118 0.0
C822 C 0.08486 0.3147 0.5052 0.0
C823 C 0.04432 0.31514 0.56153 0.0
C824 C 0.99975 0.27924 0.54782 0.0
H825 H 0.12004 0.35837 0.55293 0.0
H826 H 0.04659 0.33179 0.58767 0.0
S827 S 0.97445 0.23564 0.45246 0.0
N828 N 1.03316 0.26906 0.45455 0.0
N829 N 0.95537 0.23616 0.49405 0.0
C830 C 0.99744 0.26493 0.51148 0.0
C831 C 1.03969 0.28305 0.49009 0.0
C832 C 0.81099 1.01476 0.04576 0.0
C833 C 0.76211 0.98117 0.04223 0.0
C834 C 0.83088 0.06017 0.02901 0.0
C835 C 0.80248 0.07295 1.00765 0.0
H836 H 0.83359 1.00621 0.06233 0.0
H837 H 0.86856 0.08522 0.03274 0.0
S838 S 0.67307 0.99504 0.98722 0.0
N839 N 0.68655 0.96235 1.01434 0.0
N840 N 0.72305 0.04637 0.98238 0.0
C841 C 0.75373 0.03858 1.00304 0.0
C842 C 0.73379 0.99298 1.02032 0.0
C843 C 0.75824 0.72068 0.53428 0.0
C844 C 0.80709 0.74597 0.54328 0.0
C845 C 0.7358 0.74308 0.51701 0.0
C846 C 0.76073 0.79223 0.50922 0.0
H847 H 0.73701 0.68298 0.54066 0.0
H848 H 0.69832 0.72165 0.5099 0.0
S849 S 0.88918 0.87508 0.52746 0.0
N850 N 0.88007 0.82293 0.54272 0.0
N851 N 0.83719 0.86572 0.51157 0.0
C852 C 0.80951 0.81832 0.51843 0.0
C853 C 0.8329 0.795 0.53504 0.0
C854 C 1.02937 0.78833 1.00572 0.0
C855 C 0.99587 0.73935 1.01001 0.0
C856 C 0.07379 0.80992 1.02431 0.0
C857 C 0.08654 0.7832 0.04751 0.0
H858 H 1.02123 0.81016 0.98775 0.0
H859 H 0.09812 0.84777 1.02075 0.0
S860 S 1.01029 0.65442 0.07016 0.0
N861 N 0.97763 0.66566 0.04115 0.0
N862 N 0.06088 0.70526 0.07488 0.0
C863 C 0.05284 0.73438 0.05254 0.0
C864 C 1.00759 0.71274 0.03417 0.0
C865 C 0.25961 1.00986 0.51216 0.0
C866 C 0.27856 0.97904 0.51296 0.0
C867 C 0.28408 0.05552 0.52888 0.0
C868 C 0.32775 0.07119 0.5476 0.0
H869 H 0.22656 0.99923 0.49746 0.0
H870 H 0.26865 0.07843 0.52731 0.0
S871 S 0.39008 1.00168 0.5596 0.0
N872 N 0.34221 0.96645 0.53485 0.0
N873 N 0.38732 0.0505 0.56715 0.0
C874 C 0.34591 0.03962 0.54943 0.0
C875 C 0.32153 0.994 0.53198 0.0
loop_
_geom_bond_atom_site_label_1
_geom_bond_atom_site_label_2
_geom_bond_distance
_geom_bond_site_symmetry_2
_ccdc_geom_bond_type
Pr0 C2 2.880 . S
Pr0 O20 2.562 . S
Pr0 O21 2.490 . S
Pr0 O22 2.695 . S
Pr0 O23 2.512 . S
Pr0 O25 2.437 . S
Pr0 O28 2.436 . S
Pr0 O30 2.438 . S
Pr1 C11 2.880 . S
Pr1 O22 2.436 . S
Pr1 O24 2.438 . S
Pr1 O26 2.562 . S
Pr1 O27 2.490 . S
Pr1 O28 2.695 . S
Pr1 O29 2.512 . S
Pr1 O31 2.437 . S
C2 Pr0 2.880 . S
C2 C3 1.491 . S
C2 O20 1.254 . S
C2 O21 1.225 . S
C3 C2 1.491 . S
C3 C4 1.392 . S
C3 C8 1.356 . S
C4 C3 1.392 . S
C4 C5 1.368 . S
C4 H32 0.929 . S
C5 C4 1.368 . S
C5 C6 1.386 . S
C5 H33 0.929 . S
C6 C5 1.386 . S
C6 C7 1.373 . S
C7 C6 1.373 . S
C7 C8 1.409 . S
C7 H34 0.931 . S
C8 C3 1.356 . S
C8 C7 1.409 . S
C8 H35 0.930 . S
C9 O22 1.270 . S
C9 O23 1.248 . S
C10 O24 1.267 . S
C10 O25 1.278 . S
C11 Pr1 2.880 . S
C11 C12 1.491 . S
C11 O26 1.254 . S
C11 O27 1.225 . S
C12 C11 1.491 . S
C12 C13 1.392 . S
C12 C17 1.356 . S
C13 C12 1.392 . S
C13 C14 1.368 . S
C13 H36 0.929 . S
C14 C13 1.368 . S
C14 C15 1.386 . S
C14 H37 0.929 . S
C15 C14 1.386 . S
C15 C16 1.373 . S
C16 C15 1.373 . S
C16 C17 1.409 . S
C16 H38 0.931 . S
C17 C12 1.356 . S
C17 C16 1.409 . S
C17 H39 0.930 . S
C18 O28 1.270 . S
C18 O29 1.248 . S
C19 O30 1.267 . S
C19 O31 1.278 . S
O20 Pr0 2.562 . S
O20 C2 1.254 . S
O21 Pr0 2.490 . S
O21 C2 1.225 . S
O22 Pr0 2.695 . S
O22 Pr1 2.436 . S
O22 C9 1.270 . S
O23 Pr0 2.512 . S
O23 C9 1.248 . S
O24 Pr1 2.438 . S
O24 C10 1.267 . S
O25 Pr0 2.437 . S
O25 C10 1.278 . S
O26 Pr1 2.562 . S
O26 C11 1.254 . S
O27 Pr1 2.490 . S
O27 C11 1.225 . S
O28 Pr0 2.436 . S
O28 Pr1 2.695 . S
O28 C18 1.270 . S
O29 Pr1 2.512 . S
O29 C18 1.248 . S
O30 Pr0 2.438 . S
O30 C19 1.267 . S
O31 Pr1 2.437 . S
O31 C19 1.278 . S
H32 C4 0.929 . S
H33 C5 0.929 . S
H34 C7 0.931 . S
H35 C8 0.930 . S
H36 C13 0.929 . S
H37 C14 0.929 . S
H38 C16 0.931 . S
H39 C17 0.930 . S
Pr40 C42 2.880 . S
Pr40 O60 2.562 . S
Pr40 O61 2.490 . S
Pr40 O62 2.695 . S
Pr40 O63 2.512 . S
Pr40 O65 2.437 . S
Pr40 O68 2.436 . S
Pr40 O70 2.438 . S
Pr41 C51 2.880 . S
Pr41 O62 2.436 . S
Pr41 O64 2.438 . S
Pr41 O66 2.562 . S
Pr41 O67 2.490 . S
Pr41 O68 2.695 . S
Pr41 O69 2.512 . S
Pr41 O71 2.437 . S
C42 Pr40 2.880 . S
C42 C43 1.491 . S
C42 O60 1.254 . S
C42 O61 1.225 . S
C43 C42 1.491 . S
C43 C44 1.392 . S
C43 C48 1.356 . S
C44 C43 1.392 . S
C44 C45 1.368 . S
C44 H72 0.929 . S
C45 C44 1.368 . S
C45 C46 1.386 . S
C45 H73 0.929 . S
C46 C45 1.386 . S
C46 C47 1.373 . S
C47 C46 1.373 . S
C47 C48 1.409 . S
C47 H74 0.931 . S
C48 C43 1.356 . S
C48 C47 1.409 . S
C48 H75 0.930 . S
C49 O62 1.270 . S
C49 O63 1.248 . S
C50 O64 1.267 . S
C50 O65 1.278 . S
C51 Pr41 2.880 . S
C51 C52 1.491 1_655 S
C51 O66 1.254 . S
C51 O67 1.225 . S
C52 C51 1.491 1_455 S
C52 C53 1.392 . S
C52 C57 1.356 . S
C53 C52 1.392 . S
C53 C54 1.368 . S
C53 H76 0.929 . S
C54 C53 1.368 . S
C54 C55 1.386 . S
C54 H77 0.929 . S
C55 C54 1.386 . S
C55 C56 1.373 . S
C56 C55 1.373 . S
C56 C57 1.409 . S
C56 H78 0.931 . S
C57 C52 1.356 . S
C57 C56 1.409 . S
C57 H79 0.930 . S
C58 O68 1.270 . S
C58 O69 1.248 . S
C59 O70 1.267 . S
C59 O71 1.278 . S
O60 Pr40 2.562 . S
O60 C42 1.254 . S
O61 Pr40 2.490 . S
O61 C42 1.225 . S
O62 Pr40 2.695 . S
O62 Pr41 2.436 . S
O62 C49 1.270 . S
O63 Pr40 2.512 . S
O63 C49 1.248 . S
O64 Pr41 2.438 . S
O64 C50 1.267 . S
O65 Pr40 2.437 . S
O65 C50 1.278 . S
O66 Pr41 2.562 . S
O66 C51 1.254 . S
O67 Pr41 2.490 . S
O67 C51 1.225 . S
O68 Pr40 2.436 . S
O68 Pr41 2.695 . S
O68 C58 1.270 . S
O69 Pr41 2.512 . S
O69 C58 1.248 . S
O70 Pr40 2.438 . S
O70 C59 1.267 . S
O71 Pr41 2.437 . S
O71 C59 1.278 . S
H72 C44 0.929 . S
H73 C45 0.929 . S
H74 C47 0.931 . S
H75 C48 0.930 . S
H76 C53 0.929 . S
H77 C54 0.929 . S
H78 C56 0.931 . S
H79 C57 0.930 . S
Pr80 C82 2.880 . S
Pr80 O100 2.562 . S
Pr80 O101 2.490 . S
Pr80 O102 2.695 . S
Pr80 O103 2.512 . S
Pr80 O105 2.437 . S
Pr80 O108 2.436 . S
Pr80 O110 2.438 . S
Pr81 C91 2.880 . S
Pr81 O102 2.436 . S
Pr81 O104 2.438 . S
Pr81 O106 2.562 . S
Pr81 O107 2.490 . S
Pr81 O108 2.695 . S
Pr81 O109 2.512 . S
Pr81 O111 2.437 . S
C82 Pr80 2.880 . S
C82 C83 1.491 . S
C82 O100 1.254 . S
C82 O101 1.225 . S
C83 C82 1.491 . S
C83 C84 1.392 . S
C83 C88 1.356 . S
C84 C83 1.392 . S
C84 C85 1.368 . S
C84 H112 0.929 . S
C85 C84 1.368 . S
C85 C86 1.386 . S
C85 H113 0.929 . S
C86 C85 1.386 . S
C86 C87 1.373 . S
C87 C86 1.373 . S
C87 C88 1.409 . S
C87 H114 0.931 . S
C88 C83 1.356 . S
C88 C87 1.409 . S
C88 H115 0.930 . S
C89 O102 1.270 . S
C89 O103 1.248 . S
C90 O104 1.267 . S
C90 O105 1.278 . S
C91 Pr81 2.880 . S
C91 C92 1.491 1_565 S
C91 O106 1.254 . S
C91 O107 1.225 . S
C92 C91 1.491 1_545 S
C92 C93 1.392 . S
C92 C97 1.356 . S
C93 C92 1.392 . S
C93 C94 1.368 . S
C93 H116 0.929 . S
C94 C93 1.368 . S
C94 C95 1.386 . S
C94 H117 0.929 . S
C95 C94 1.386 . S
C95 C96 1.373 . S
C96 C95 1.373 . S
C96 C97 1.409 . S
C96 H118 0.931 . S
C97 C92 1.356 . S
C97 C96 1.409 . S
C97 H119 0.930 . S
C98 O108 1.270 . S
C98 O109 1.248 . S
C99 O110 1.267 . S
C99 O111 1.278 . S
O100 Pr80 2.562 . S
O100 C82 1.254 . S
O101 Pr80 2.490 . S
O101 C82 1.225 . S
O102 Pr80 2.695 . S
O102 Pr81 2.436 . S
O102 C89 1.270 . S
O103 Pr80 2.512 . S
O103 C89 1.248 . S
O104 Pr81 2.438 . S
O104 C90 1.267 . S
O105 Pr80 2.437 . S
O105 C90 1.278 . S
O106 Pr81 2.562 . S
O106 C91 1.254 . S
O107 Pr81 2.490 . S
O107 C91 1.225 . S
O108 Pr80 2.436 . S
O108 Pr81 2.695 . S
O108 C98 1.270 . S
O109 Pr81 2.512 . S
O109 C98 1.248 . S
O110 Pr80 2.438 . S
O110 C99 1.267 . S
O111 Pr81 2.437 . S
O111 C99 1.278 . S
H112 C84 0.929 . S
H113 C85 0.929 . S
H114 C87 0.931 . S
H115 C88 0.930 . S
H116 C93 0.929 . S
H117 C94 0.929 . S
H118 C96 0.931 . S
H119 C97 0.930 . S
Pr120 C122 2.880 . S
Pr120 O140 2.562 . S
Pr120 O141 2.490 . S
Pr120 O142 2.695 . S
Pr120 O143 2.512 . S
Pr120 O145 2.437 . S
Pr120 O148 2.436 . S
Pr120 O150 2.438 . S
Pr121 C131 2.880 . S
Pr121 O142 2.436 . S
Pr121 O144 2.438 . S
Pr121 O146 2.562 . S
Pr121 O147 2.490 . S
Pr121 O148 2.695 . S
Pr121 O149 2.512 . S
Pr121 O151 2.437 . S
C122 Pr120 2.880 . S
C122 C123 1.491 . S
C122 O140 1.254 . S
C122 O141 1.225 . S
C123 C122 1.491 . S
C123 C124 1.392 . S
C123 C128 1.356 . S
C124 C123 1.392 . S
C124 C125 1.368 . S
C124 H152 0.929 . S
C125 C124 1.368 . S
C125 C126 1.386 . S
C125 H153 0.929 . S
C126 C125 1.386 . S
C126 C127 1.373 . S
C127 C126 1.373 . S
C127 C128 1.409 . S
C127 H154 0.931 . S
C128 C123 1.356 . S
C128 C127 1.409 . S
C128 H155 0.930 . S
C129 O142 1.270 . S
C129 O143 1.248 . S
C130 O144 1.267 . S
C130 O145 1.278 . S
C131 Pr121 2.880 . S
C131 C132 1.491 . S
C131 O146 1.254 . S
C131 O147 1.225 . S
C132 C131 1.491 . S
C132 C133 1.392 . S
C132 C137 1.356 . S
C133 C132 1.392 . S
C133 C134 1.368 . S
C133 H156 0.929 . S
C134 C133 1.368 . S
C134 C135 1.386 . S
C134 H157 0.929 . S
C135 C134 1.386 . S
C135 C136 1.373 . S
C136 C135 1.373 . S
C136 C137 1.409 . S
C136 H158 0.931 . S
C137 C132 1.356 . S
C137 C136 1.409 . S
C137 H159 0.930 . S
C138 O148 1.270 . S
C138 O149 1.248 . S
C139 O150 1.267 . S
C139 O151 1.278 . S
O140 Pr120 2.562 . S
O140 C122 1.254 . S
O141 Pr120 2.490 . S
O141 C122 1.225 . S
O142 Pr120 2.695 . S
O142 Pr121 2.436 . S
O142 C129 1.270 . S
O143 Pr120 2.512 . S
O143 C129 1.248 . S
O144 Pr121 2.438 . S
O144 C130 1.267 . S
O145 Pr120 2.437 . S
O145 C130 1.278 . S
O146 Pr121 2.562 . S
O146 C131 1.254 . S
O147 Pr121 2.490 . S
O147 C131 1.225 . S
O148 Pr120 2.436 . S
O148 Pr121 2.695 . S
O148 C138 1.270 . S
O149 Pr121 2.512 . S
O149 C138 1.248 . S
O150 Pr120 2.438 . S
O150 C139 1.267 . S
O151 Pr121 2.437 . S
O151 C139 1.278 . S
H152 C124 0.929 . S
H153 C125 0.929 . S
H154 C127 0.931 . S
H155 C128 0.930 . S
H156 C133 0.929 . S
H157 C134 0.929 . S
H158 C136 0.931 . S
H159 C137 0.930 . S
Pr160 C162 2.880 . S
Pr160 O180 2.562 . S
Pr160 O181 2.490 . S
Pr160 O182 2.695 . S
Pr160 O183 2.512 . S
Pr160 O185 2.437 . S
Pr160 O188 2.436 . S
Pr160 O190 2.438 . S
Pr161 C171 2.880 . S
Pr161 O182 2.436 . S
Pr161 O184 2.438 . S
Pr161 O186 2.562 . S
Pr161 O187 2.490 . S
Pr161 O188 2.695 . S
Pr161 O189 2.512 . S
Pr161 O191 2.437 . S
C162 Pr160 2.880 . S
C162 C163 1.491 . S
C162 O180 1.254 . S
C162 O181 1.225 . S
C163 C162 1.491 . S
C163 C164 1.392 . S
C163 C168 1.356 . S
C164 C163 1.392 . S
C164 C165 1.368 . S
C164 H192 0.929 . S
C165 C164 1.368 . S
C165 C166 1.386 . S
C165 H193 0.929 . S
C166 C165 1.386 . S
C166 C167 1.373 . S
C167 C166 1.373 . S
C167 C168 1.409 . S
C167 H194 0.931 . S
C168 C163 1.356 . S
C168 C167 1.409 . S
C168 H195 0.930 . S
C169 O182 1.270 . S
C169 O183 1.248 . S
C170 O184 1.267 . S
C170 O185 1.278 . S
C171 Pr161 2.880 . S
C171 C172 1.491 1_455 S
C171 O186 1.254 . S
C171 O187 1.225 . S
C172 C171 1.491 1_655 S
C172 C173 1.392 . S
C172 C177 1.356 . S
C173 C172 1.392 . S
C173 C174 1.368 . S
C173 H196 0.929 . S
C174 C173 1.368 . S
C174 C175 1.386 . S
C174 H197 0.929 . S
C175 C174 1.386 . S
C175 C176 1.373 . S
C176 C175 1.373 . S
C176 C177 1.409 . S
C176 H198 0.931 . S
C177 C172 1.356 . S
C177 C176 1.409 . S
C177 H199 0.930 . S
C178 O188 1.270 . S
C178 O189 1.248 . S
C179 O190 1.267 . S
C179 O191 1.278 . S
O180 Pr160 2.562 . S
O180 C162 1.254 . S
O181 Pr160 2.490 . S
O181 C162 1.225 . S
O182 Pr160 2.695 . S
O182 Pr161 2.436 . S
O182 C169 1.270 . S
O183 Pr160 2.512 . S
O183 C169 1.248 . S
O184 Pr161 2.438 . S
O184 C170 1.267 . S
O185 Pr160 2.437 . S
O185 C170 1.278 . S
O186 Pr161 2.562 . S
O186 C171 1.254 . S
O187 Pr161 2.490 . S
O187 C171 1.225 . S
O188 Pr160 2.436 . S
O188 Pr161 2.695 . S
O188 C178 1.270 . S
O189 Pr161 2.512 . S
O189 C178 1.248 . S
O190 Pr160 2.438 . S
O190 C179 1.267 . S
O191 Pr161 2.437 . S
O191 C179 1.278 . S
H192 C164 0.929 . S
H193 C165 0.929 . S
H194 C167 0.931 . S
H195 C168 0.930 . S
H196 C173 0.929 . S
H197 C174 0.929 . S
H198 C176 0.931 . S
H199 C177 0.930 . S
Pr200 C202 2.880 . S
Pr200 O220 2.562 . S
Pr200 O221 2.490 . S
Pr200 O222 2.695 . S
Pr200 O223 2.512 . S
Pr200 O225 2.437 . S
Pr200 O228 2.436 . S
Pr200 O230 2.438 . S
Pr201 C211 2.880 . S
Pr201 O222 2.436 . S
Pr201 O224 2.438 . S
Pr201 O226 2.562 . S
Pr201 O227 2.490 . S
Pr201 O228 2.695 . S
Pr201 O229 2.512 . S
Pr201 O231 2.437 . S
C202 Pr200 2.880 . S
C202 C203 1.491 . S
C202 O220 1.254 . S
C202 O221 1.225 . S
C203 C202 1.491 . S
C203 C204 1.392 . S
C203 C208 1.356 . S
C204 C203 1.392 . S
C204 C205 1.368 . S
C204 H232 0.929 . S
C205 C204 1.368 . S
C205 C206 1.386 . S
C205 H233 0.929 . S
C206 C205 1.386 . S
C206 C207 1.373 . S
C207 C206 1.373 . S
C207 C208 1.409 . S
C207 H234 0.931 . S
C208 C203 1.356 . S
C208 C207 1.409 . S
C208 H235 0.930 . S
C209 O222 1.270 . S
C209 O223 1.248 . S
C210 O224 1.267 . S
C210 O225 1.278 . S
C211 Pr201 2.880 . S
C211 C212 1.491 1_545 S
C211 O226 1.254 . S
C211 O227 1.225 . S
C212 C211 1.491 1_565 S
C212 C213 1.392 . S
C212 C217 1.356 . S
C213 C212 1.392 . S
C213 C214 1.368 . S
C213 H236 0.929 . S
C214 C213 1.368 . S
C214 C215 1.386 . S
C214 H237 0.929 . S
C215 C214 1.386 . S
C215 C216 1.373 . S
C216 C215 1.373 . S
C216 C217 1.409 . S
C216 H238 0.931 . S
C217 C212 1.356 . S
C217 C216 1.409 . S
C217 H239 0.930 . S
C218 O228 1.270 . S
C218 O229 1.248 . S
C219 O230 1.267 . S
C219 O231 1.278 . S
O220 Pr200 2.562 . S
O220 C202 1.254 . S
O221 Pr200 2.490 . S
O221 C202 1.225 . S
O222 Pr200 2.695 . S
O222 Pr201 2.436 . S
O222 C209 1.270 . S
O223 Pr200 2.512 . S
O223 C209 1.248 . S
O224 Pr201 2.438 . S
O224 C210 1.267 . S
O225 Pr200 2.437 . S
O225 C210 1.278 . S
O226 Pr201 2.562 . S
O226 C211 1.254 . S
O227 Pr201 2.490 . S
O227 C211 1.225 . S
O228 Pr200 2.436 . S
O228 Pr201 2.695 . S
O228 C218 1.270 . S
O229 Pr201 2.512 . S
O229 C218 1.248 . S
O230 Pr200 2.438 . S
O230 C219 1.267 . S
O231 Pr201 2.437 . S
O231 C219 1.278 . S
H232 C204 0.929 . S
H233 C205 0.929 . S
H234 C207 0.931 . S
H235 C208 0.930 . S
H236 C213 0.929 . S
H237 C214 0.929 . S
H238 C216 0.931 . S
H239 C217 0.930 . S
Pr240 C242 2.880 . S
Pr240 O260 2.562 . S
Pr240 O261 2.490 . S
Pr240 O262 2.695 . S
Pr240 O263 2.512 . S
Pr240 O265 2.437 . S
Pr240 O268 2.436 . S
Pr240 O270 2.438 . S
Pr241 C251 2.880 . S
Pr241 O262 2.436 . S
Pr241 O264 2.438 . S
Pr241 O266 2.562 . S
Pr241 O267 2.490 . S
Pr241 O268 2.695 . S
Pr241 O269 2.512 . S
Pr241 O271 2.437 . S
C242 Pr240 2.880 . S
C242 C243 1.491 . S
C242 O260 1.254 . S
C242 O261 1.225 . S
C243 C242 1.491 . S
C243 C244 1.392 . S
C243 C248 1.356 . S
C244 C243 1.392 . S
C244 C245 1.368 . S
C244 H272 0.929 . S
C245 C244 1.368 . S
C245 C246 1.386 . S
C245 H273 0.929 . S
C246 C245 1.386 . S
C246 C247 1.373 . S
C247 C246 1.373 . S
C247 C248 1.409 . S
C247 H274 0.931 . S
C248 C243 1.356 . S
C248 C247 1.409 . S
C248 H275 0.930 . S
C249 O262 1.270 . S
C249 O263 1.248 . S
C250 O264 1.267 . S
C250 O265 1.278 . S
C251 Pr241 2.880 . S
C251 C252 1.491 . S
C251 O266 1.254 . S
C251 O267 1.225 . S
C252 C251 1.491 . S
C252 C253 1.392 . S
C252 C257 1.356 . S
C253 C252 1.392 . S
C253 C254 1.368 . S
C253 H276 0.929 . S
C254 C253 1.368 . S
C254 C255 1.386 . S
C254 H277 0.929 . S
C255 C254 1.386 . S
C255 C256 1.373 . S
C256 C255 1.373 . S
C256 C257 1.409 . S
C256 H278 0.931 . S
C257 C252 1.356 . S
C257 C256 1.409 . S
C257 H279 0.930 . S
C258 O268 1.270 . S
C258 O269 1.248 . S
C259 O270 1.267 . S
C259 O271 1.278 . S
O260 Pr240 2.562 . S
O260 C242 1.254 . S
O261 Pr240 2.490 . S
O261 C242 1.225 . S
O262 Pr240 2.695 . S
O262 Pr241 2.436 . S
O262 C249 1.270 . S
O263 Pr240 2.512 . S
O263 C249 1.248 . S
O264 Pr241 2.438 . S
O264 C250 1.267 . S
O265 Pr240 2.437 . S
O265 C250 1.278 . S
O266 Pr241 2.562 . S
O266 C251 1.254 . S
O267 Pr241 2.490 . S
O267 C251 1.225 . S
O268 Pr240 2.436 . S
O268 Pr241 2.695 . S
O268 C258 1.270 . S
O269 Pr241 2.512 . S
O269 C258 1.248 . S
O270 Pr240 2.438 . S
O270 C259 1.267 . S
O271 Pr241 2.437 . S
O271 C259 1.278 . S
H272 C244 0.929 . S
H273 C245 0.929 . S
H274 C247 0.931 . S
H275 C248 0.930 . S
H276 C253 0.929 . S
H277 C254 0.929 . S
H278 C256 0.931 . S
H279 C257 0.930 . S
Pr280 C282 2.880 . S
Pr280 O300 2.562 . S
Pr280 O301 2.490 . S
Pr280 O302 2.695 . S
Pr280 O303 2.512 . S
Pr280 O305 2.437 . S
Pr280 O308 2.436 . S
Pr280 O310 2.438 . S
Pr281 C291 2.880 . S
Pr281 O302 2.436 . S
Pr281 O304 2.438 . S
Pr281 O306 2.562 . S
Pr281 O307 2.490 . S
Pr281 O308 2.695 . S
Pr281 O309 2.512 . S
Pr281 O311 2.437 . S
C282 Pr280 2.880 . S
C282 C283 1.491 . S
C282 O300 1.254 . S
C282 O301 1.225 . S
C283 C282 1.491 . S
C283 C284 1.392 . S
C283 C288 1.356 . S
C284 C283 1.392 . S
C284 C285 1.368 . S
C284 H312 0.929 . S
C285 C284 1.368 . S
C285 C286 1.386 . S
C285 H313 0.929 . S
C286 C285 1.386 . S
C286 C287 1.373 . S
C287 C286 1.373 . S
C287 C288 1.409 . S
C287 H314 0.931 . S
C288 C283 1.356 . S
C288 C287 1.409 . S
C288 H315 0.930 . S
C289 O302 1.270 . S
C289 O303 1.248 . S
C290 O304 1.267 . S
C290 O305 1.278 . S
C291 Pr281 2.880 . S
C291 C292 1.491 1_655 S
C291 O306 1.254 . S
C291 O307 1.225 . S
C292 C291 1.491 1_455 S
C292 C293 1.392 . S
C292 C297 1.356 . S
C293 C292 1.392 . S
C293 C294 1.368 . S
C293 H316 0.929 . S
C294 C293 1.368 . S
C294 C295 1.386 . S
C294 H317 0.929 . S
C295 C294 1.386 . S
C295 C296 1.373 . S
C296 C295 1.373 . S
C296 C297 1.409 . S
C296 H318 0.931 . S
C297 C292 1.356 . S
C297 C296 1.409 . S
C297 H319 0.930 . S
C298 O308 1.270 . S
C298 O309 1.248 . S
C299 O310 1.267 . S
C299 O311 1.278 . S
O300 Pr280 2.562 . S
O300 C282 1.254 . S
O301 Pr280 2.490 . S
O301 C282 1.225 . S
O302 Pr280 2.695 . S
O302 Pr281 2.436 . S
O302 C289 1.270 . S
O303 Pr280 2.512 . S
O303 C289 1.248 . S
O304 Pr281 2.438 . S
O304 C290 1.267 . S
O305 Pr280 2.437 . S
O305 C290 1.278 . S
O306 Pr281 2.562 . S
O306 C291 1.254 . S
O307 Pr281 2.490 . S
O307 C291 1.225 . S
O308 Pr280 2.436 . S
O308 Pr281 2.695 . S
O308 C298 1.270 . S
O309 Pr281 2.512 . S
O309 C298 1.248 . S
O310 Pr280 2.438 . S
O310 C299 1.267 . S
O311 Pr281 2.437 . S
O311 C299 1.278 . S
H312 C284 0.929 . S
H313 C285 0.929 . S
H314 C287 0.931 . S
H315 C288 0.930 . S
H316 C293 0.929 . S
H317 C294 0.929 . S
H318 C296 0.931 . S
H319 C297 0.930 . S
Pr320 C322 2.880 . S
Pr320 O340 2.562 . S
Pr320 O341 2.490 . S
Pr320 O342 2.695 . S
Pr320 O343 2.512 . S
Pr320 O345 2.437 . S
Pr320 O348 2.436 . S
Pr320 O350 2.438 . S
Pr321 C331 2.880 . S
Pr321 O342 2.436 . S
Pr321 O344 2.438 . S
Pr321 O346 2.562 . S
Pr321 O347 2.490 . S
Pr321 O348 2.695 . S
Pr321 O349 2.512 . S
Pr321 O351 2.437 . S
C322 Pr320 2.880 . S
C322 C323 1.491 . S
C322 O340 1.254 . S
C322 O341 1.225 . S
C323 C322 1.491 . S
C323 C324 1.392 . S
C323 C328 1.356 . S
C324 C323 1.392 . S
C324 C325 1.368 . S
C324 H352 0.929 . S
C325 C324 1.368 . S
C325 C326 1.386 . S
C325 H353 0.929 . S
C326 C325 1.386 . S
C326 C327 1.373 . S
C327 C326 1.373 . S
C327 C328 1.409 . S
C327 H354 0.931 . S
C328 C323 1.356 . S
C328 C327 1.409 . S
C328 H355 0.930 . S
C329 O342 1.270 . S
C329 O343 1.248 . S
C330 O344 1.267 . S
C330 O345 1.278 . S
C331 Pr321 2.880 . S
C331 C332 1.491 1_565 S
C331 O346 1.254 . S
C331 O347 1.225 . S
C332 C331 1.491 1_545 S
C332 C333 1.392 . S
C332 C337 1.356 . S
C333 C332 1.392 . S
C333 C334 1.368 . S
C333 H356 0.929 . S
C334 C333 1.368 . S
C334 C335 1.386 . S
C334 H357 0.929 . S
C335 C334 1.386 . S
C335 C336 1.373 . S
C336 C335 1.373 . S
C336 C337 1.409 . S
C336 H358 0.931 . S
C337 C332 1.356 . S
C337 C336 1.409 . S
C337 H359 0.930 . S
C338 O348 1.270 . S
C338 O349 1.248 . S
C339 O350 1.267 . S
C339 O351 1.278 . S
O340 Pr320 2.562 . S
O340 C322 1.254 . S
O341 Pr320 2.490 . S
O341 C322 1.225 . S
O342 Pr320 2.695 . S
O342 Pr321 2.436 . S
O342 C329 1.270 . S
O343 Pr320 2.512 . S
O343 C329 1.248 . S
O344 Pr321 2.438 . S
O344 C330 1.267 . S
O345 Pr320 2.437 . S
O345 C330 1.278 . S
O346 Pr321 2.562 . S
O346 C331 1.254 . S
O347 Pr321 2.490 . S
O347 C331 1.225 . S
O348 Pr320 2.436 . S
O348 Pr321 2.695 . S
O348 C338 1.270 . S
O349 Pr321 2.512 . S
O349 C338 1.248 . S
O350 Pr320 2.438 . S
O350 C339 1.267 . S
O351 Pr321 2.437 . S
O351 C339 1.278 . S
H352 C324 0.929 . S
H353 C325 0.929 . S
H354 C327 0.931 . S
H355 C328 0.930 . S
H356 C333 0.929 . S
H357 C334 0.929 . S
H358 C336 0.931 . S
H359 C337 0.930 . S
Pr360 C362 2.880 . S
Pr360 O380 2.562 . S
Pr360 O381 2.490 . S
Pr360 O382 2.695 . S
Pr360 O383 2.512 . S
Pr360 O385 2.437 . S
Pr360 O388 2.436 . S
Pr360 O390 2.438 . S
Pr361 C371 2.880 . S
Pr361 O382 2.436 . S
Pr361 O384 2.438 . S
Pr361 O386 2.562 . S
Pr361 O387 2.490 . S
Pr361 O388 2.695 . S
Pr361 O389 2.512 . S
Pr361 O391 2.437 . S
C362 Pr360 2.880 . S
C362 C363 1.491 . S
C362 O380 1.254 . S
C362 O381 1.225 . S
C363 C362 1.491 . S
C363 C364 1.392 . S
C363 C368 1.356 . S
C364 C363 1.392 . S
C364 C365 1.368 . S
C364 H392 0.929 . S
C365 C364 1.368 . S
C365 C366 1.386 . S
C365 H393 0.929 . S
C366 C365 1.386 . S
C366 C367 1.373 . S
C367 C366 1.373 . S
C367 C368 1.409 . S
C367 H394 0.931 . S
C368 C363 1.356 . S
C368 C367 1.409 . S
C368 H395 0.930 . S
C369 O382 1.270 . S
C369 O383 1.248 . S
C370 O384 1.267 . S
C370 O385 1.278 . S
C371 Pr361 2.880 . S
C371 C372 1.491 . S
C371 O386 1.254 . S
C371 O387 1.225 . S
C372 C371 1.491 . S
C372 C373 1.392 . S
C372 C377 1.356 . S
C373 C372 1.392 . S
C373 C374 1.368 . S
C373 H396 0.929 . S
C374 C373 1.368 . S
C374 C375 1.386 . S
C374 H397 0.929 . S
C375 C374 1.386 . S
C375 C376 1.373 . S
C376 C375 1.373 . S
C376 C377 1.409 . S
C376 H398 0.931 . S
C377 C372 1.356 . S
C377 C376 1.409 . S
C377 H399 0.930 . S
C378 O388 1.270 . S
C378 O389 1.248 . S
C379 O390 1.267 . S
C379 O391 1.278 . S
O380 Pr360 2.562 . S
O380 C362 1.254 . S
O381 Pr360 2.490 . S
O381 C362 1.225 . S
O382 Pr360 2.695 . S
O382 Pr361 2.436 . S
O382 C369 1.270 . S
O383 Pr360 2.512 . S
O383 C369 1.248 . S
O384 Pr361 2.438 . S
O384 C370 1.267 . S
O385 Pr360 2.437 . S
O385 C370 1.278 . S
O386 Pr361 2.562 . S
O386 C371 1.254 . S
O387 Pr361 2.490 . S
O387 C371 1.225 . S
O388 Pr360 2.436 . S
O388 Pr361 2.695 . S
O388 C378 1.270 . S
O389 Pr361 2.512 . S
O389 C378 1.248 . S
O390 Pr360 2.438 . S
O390 C379 1.267 . S
O391 Pr361 2.437 . S
O391 C379 1.278 . S
H392 C364 0.929 . S
H393 C365 0.929 . S
H394 C367 0.931 . S
H395 C368 0.930 . S
H396 C373 0.929 . S
H397 C374 0.929 . S
H398 C376 0.931 . S
H399 C377 0.930 . S
Pr400 C402 2.880 . S
Pr400 O420 2.562 . S
Pr400 O421 2.490 . S
Pr400 O422 2.695 . S
Pr400 O423 2.512 . S
Pr400 O425 2.437 . S
Pr400 O428 2.436 . S
Pr400 O430 2.438 . S
Pr401 C411 2.880 . S
Pr401 O422 2.436 . S
Pr401 O424 2.438 . S
Pr401 O426 2.562 . S
Pr401 O427 2.490 . S
Pr401 O428 2.695 . S
Pr401 O429 2.512 . S
Pr401 O431 2.437 . S
C402 Pr400 2.880 . S
C402 C403 1.491 . S
C402 O420 1.254 . S
C402 O421 1.225 . S
C403 C402 1.491 . S
C403 C404 1.392 . S
C403 C408 1.356 . S
C404 C403 1.392 . S
C404 C405 1.368 . S
C404 H432 0.929 . S
C405 C404 1.368 . S
C405 C406 1.386 . S
C405 H433 0.929 . S
C406 C405 1.386 . S
C406 C407 1.373 . S
C407 C406 1.373 . S
C407 C408 1.409 . S
C407 H434 0.931 . S
C408 C403 1.356 . S
C408 C407 1.409 . S
C408 H435 0.930 . S
C409 O422 1.270 . S
C409 O423 1.248 . S
C410 O424 1.267 . S
C410 O425 1.278 . S
C411 Pr401 2.880 . S
C411 C412 1.491 1_455 S
C411 O426 1.254 . S
C411 O427 1.225 . S
C412 C411 1.491 1_655 S
C412 C413 1.392 . S
C412 C417 1.356 . S
C413 C412 1.392 . S
C413 C414 1.368 . S
C413 H436 0.929 . S
C414 C413 1.368 . S
C414 C415 1.386 . S
C414 H437 0.929 . S
C415 C414 1.386 . S
C415 C416 1.373 . S
C416 C415 1.373 . S
C416 C417 1.409 . S
C416 H438 0.931 . S
C417 C412 1.356 . S
C417 C416 1.409 . S
C417 H439 0.930 . S
C418 O428 1.270 . S
C418 O429 1.248 . S
C419 O430 1.267 . S
C419 O431 1.278 . S
O420 Pr400 2.562 . S
O420 C402 1.254 . S
O421 Pr400 2.490 . S
O421 C402 1.225 . S
O422 Pr400 2.695 . S
O422 Pr401 2.436 . S
O422 C409 1.270 . S
O423 Pr400 2.512 . S
O423 C409 1.248 . S
O424 Pr401 2.438 . S
O424 C410 1.267 . S
O425 Pr400 2.437 . S
O425 C410 1.278 . S
O426 Pr401 2.562 . S
O426 C411 1.254 . S
O427 Pr401 2.490 . S
O427 C411 1.225 . S
O428 Pr400 2.436 . S
O428 Pr401 2.695 . S
O428 C418 1.270 . S
O429 Pr401 2.512 . S
O429 C418 1.248 . S
O430 Pr400 2.438 . S
O430 C419 1.267 . S
O431 Pr401 2.437 . S
O431 C419 1.278 . S
H432 C404 0.929 . S
H433 C405 0.929 . S
H434 C407 0.931 . S
H435 C408 0.930 . S
H436 C413 0.929 . S
H437 C414 0.929 . S
H438 C416 0.931 . S
H439 C417 0.930 . S
Pr440 C442 2.880 . S
Pr440 O460 2.562 . S
Pr440 O461 2.490 . S
Pr440 O462 2.695 . S
Pr440 O463 2.512 . S
Pr440 O465 2.437 . S
Pr440 O468 2.436 . S
Pr440 O470 2.438 . S
Pr441 C451 2.880 . S
Pr441 O462 2.436 . S
Pr441 O464 2.438 . S
Pr441 O466 2.562 . S
Pr441 O467 2.490 . S
Pr441 O468 2.695 . S
Pr441 O469 2.512 . S
Pr441 O471 2.437 . S
C442 Pr440 2.880 . S
C442 C443 1.491 . S
C442 O460 1.254 . S
C442 O461 1.225 . S
C443 C442 1.491 . S
C443 C444 1.392 . S
C443 C448 1.356 . S
C444 C443 1.392 . S
C444 C445 1.368 . S
C444 H472 0.929 . S
C445 C444 1.368 . S
C445 C446 1.386 . S
C445 H473 0.929 . S
C446 C445 1.386 . S
C446 C447 1.373 . S
C447 C446 1.373 . S
C447 C448 1.409 . S
C447 H474 0.931 . S
C448 C443 1.356 . S
C448 C447 1.409 . S
C448 H475 0.930 . S
C449 O462 1.270 . S
C449 O463 1.248 . S
C450 O464 1.267 . S
C450 O465 1.278 . S
C451 Pr441 2.880 . S
C451 C452 1.491 1_545 S
C451 O466 1.254 . S
C451 O467 1.225 . S
C452 C451 1.491 1_565 S
C452 C453 1.392 . S
C452 C457 1.356 . S
C453 C452 1.392 . S
C453 C454 1.368 . S
C453 H476 0.929 . S
C454 C453 1.368 . S
C454 C455 1.386 . S
C454 H477 0.929 . S
C455 C454 1.386 . S
C455 C456 1.373 . S
C456 C455 1.373 . S
C456 C457 1.409 . S
C456 H478 0.931 . S
C457 C452 1.356 . S
C457 C456 1.409 . S
C457 H479 0.930 . S
C458 O468 1.270 . S
C458 O469 1.248 . S
C459 O470 1.267 . S
C459 O471 1.278 . S
O460 Pr440 2.562 . S
O460 C442 1.254 . S
O461 Pr440 2.490 . S
O461 C442 1.225 . S
O462 Pr440 2.695 . S
O462 Pr441 2.436 . S
O462 C449 1.270 . S
O463 Pr440 2.512 . S
O463 C449 1.248 . S
O464 Pr441 2.438 . S
O464 C450 1.267 . S
O465 Pr440 2.437 . S
O465 C450 1.278 . S
O466 Pr441 2.562 . S
O466 C451 1.254 . S
O467 Pr441 2.490 . S
O467 C451 1.225 . S
O468 Pr440 2.436 . S
O468 Pr441 2.695 . S
O468 C458 1.270 . S
O469 Pr441 2.512 . S
O469 C458 1.248 . S
O470 Pr440 2.438 . S
O470 C459 1.267 . S
O471 Pr441 2.437 . S
O471 C459 1.278 . S
H472 C444 0.929 . S
H473 C445 0.929 . S
H474 C447 0.931 . S
H475 C448 0.930 . S
H476 C453 0.929 . S
H477 C454 0.929 . S
H478 C456 0.931 . S
H479 C457 0.930 . S
C480 C481 1.369 . S
C480 C482 1.419 . S
C480 H484 0.930 . S
C481 C480 1.369 . S
C481 C490 1.429 . S
C482 C480 1.419 . S
C482 C483 1.363 1_565 S
C482 H485 0.929 1_565 S
C483 C482 1.363 1_545 S
C483 C489 1.428 1_545 S
H484 C480 0.930 . S
H485 C482 0.929 1_545 S
S486 N487 1.613 . S
S486 N488 1.610 1_565 S
N487 S486 1.613 . S
N487 C490 1.350 . S
N488 S486 1.610 1_545 S
N488 C489 1.351 1_545 S
C489 C483 1.428 1_565 S
C489 N488 1.351 1_565 S
C489 C490 1.434 . S
C490 C481 1.429 . S
C490 N487 1.350 . S
C490 C489 1.434 . S
C491 C492 1.369 . S
C491 C493 1.419 . S
C491 H495 0.930 . S
C492 C491 1.369 . S
C492 C501 1.429 . S
C493 C491 1.419 . S
C493 C494 1.363 . S
C493 H496 0.929 . S
C494 C493 1.363 . S
C494 C500 1.428 . S
H495 C491 0.930 . S
H496 C493 0.929 . S
S497 N498 1.613 . S
S497 N499 1.610 . S
N498 S497 1.613 . S
N498 C501 1.350 . S
N499 S497 1.610 . S
N499 C500 1.351 . S
C500 C494 1.428 . S
C500 N499 1.351 . S
C500 C501 1.434 . S
C501 C492 1.429 . S
C501 N498 1.350 . S
C501 C500 1.434 . S
C502 C503 1.369 1_455 S
C502 C504 1.419 . S
C502 H506 0.930 . S
C503 C502 1.369 1_655 S
C503 C512 1.429 . S
C504 C502 1.419 . S
C504 C505 1.363 . S
C504 H507 0.929 . S
C505 C504 1.363 . S
C505 C511 1.428 . S
H506 C502 0.930 . S
H507 C504 0.929 . S
S508 N509 1.613 . S
S508 N510 1.610 1_655 S
N509 S508 1.613 . S
N509 C512 1.350 . S
N510 S508 1.610 1_455 S
N510 C511 1.351 . S
C511 C505 1.428 . S
C511 N510 1.351 . S
C511 C512 1.434 1_455 S
C512 C503 1.429 . S
C512 N509 1.350 . S
C512 C511 1.434 1_655 S
C513 C514 1.369 1_545 S
C513 C515 1.419 . S
C513 H517 0.930 . S
C514 C513 1.369 1_565 S
C514 C523 1.429 . S
C515 C513 1.419 . S
C515 C516 1.363 . S
C515 H518 0.929 . S
C516 C515 1.363 . S
C516 C522 1.428 . S
H517 C513 0.930 . S
H518 C515 0.929 . S
S519 N520 1.613 . S
S519 N521 1.610 1_565 S
N520 S519 1.613 . S
N520 C523 1.350 . S
N521 S519 1.610 1_545 S
N521 C522 1.351 . S
C522 C516 1.428 . S
C522 N521 1.351 . S
C522 C523 1.434 1_545 S
C523 C514 1.429 . S
C523 N520 1.350 . S
C523 C522 1.434 1_565 S
C524 C525 1.369 . S
C524 C526 1.419 . S
C524 H528 0.930 . S
C525 C524 1.369 . S
C525 C534 1.429 . S
C526 C524 1.419 . S
C526 C527 1.363 . S
C526 H529 0.929 . S
C527 C526 1.363 . S
C527 C533 1.428 . S
H528 C524 0.930 . S
H529 C526 0.929 . S
S530 N531 1.613 . S
S530 N532 1.610 . S
N531 S530 1.613 . S
N531 C534 1.350 . S
N532 S530 1.610 . S
N532 C533 1.351 . S
C533 C527 1.428 . S
C533 N532 1.351 . S
C533 C534 1.434 . S
C534 C525 1.429 . S
C534 N531 1.350 . S
C534 C533 1.434 . S
C535 C536 1.369 . S
C535 C537 1.419 . S
C535 H539 0.930 . S
C536 C535 1.369 . S
C536 C545 1.429 . S
C537 C535 1.419 . S
C537 C538 1.363 1_655 S
C537 H540 0.929 . S
C538 C537 1.363 1_455 S
C538 C544 1.428 . S
H539 C535 0.930 . S
H540 C537 0.929 . S
S541 N542 1.613 1_455 S
S541 N543 1.610 . S
N542 S541 1.613 1_655 S
N542 C545 1.350 . S
N543 S541 1.610 . S
N543 C544 1.351 . S
C544 C538 1.428 . S
C544 N543 1.351 . S
C544 C545 1.434 1_455 S
C545 C536 1.429 . S
C545 N542 1.350 . S
C545 C544 1.434 1_655 S
C546 C547 1.369 . S
C546 C548 1.419 1_455 S
C546 H550 0.930 . S
C547 C546 1.369 . S
C547 C556 1.429 . S
C548 C546 1.419 1_655 S
C548 C549 1.363 . S
C548 H551 0.929 . S
C549 C548 1.363 . S
C549 C555 1.428 1_655 S
H550 C546 0.930 . S
H551 C548 0.929 . S
S552 N553 1.613 . S
S552 N554 1.610 . S
N553 S552 1.613 . S
N553 C556 1.350 . S
N554 S552 1.610 . S
N554 C555 1.351 . S
C555 C549 1.428 1_455 S
C555 N554 1.351 . S
C555 C556 1.434 . S
C556 C547 1.429 . S
C556 N553 1.350 . S
C556 C555 1.434 . S
C557 C558 1.369 1_545 S
C557 C559 1.419 . S
C557 H561 0.918 1_545 S
C558 C557 1.369 1_565 S
C558 C567 1.429 . S
C559 C557 1.419 . S
C559 C560 1.363 . S
C559 H562 0.929 . S
C560 C559 1.363 . S
C560 C566 1.428 . S
H561 C557 0.918 1_565 S
H562 C559 0.929 . S
S563 N564 1.613 1_545 S
S563 N565 1.610 . S
N564 S563 1.613 1_565 S
N564 C567 1.350 . S
N565 S563 1.610 . S
N565 C566 1.351 . S
C566 C560 1.428 . S
C566 N565 1.351 . S
C566 C567 1.434 1_545 S
C567 C558 1.429 . S
C567 N564 1.350 . S
C567 C566 1.434 1_565 S
C568 C569 1.369 . S
C568 C570 1.419 . S
C568 H572 0.930 . S
C569 C568 1.369 . S
C569 C578 1.429 . S
C570 C568 1.419 . S
C570 C571 1.363 . S
C570 H573 0.929 . S
C571 C570 1.363 . S
C571 C577 1.428 . S
H572 C568 0.930 . S
H573 C570 0.929 . S
S574 N575 1.613 . S
S574 N576 1.610 . S
N575 S574 1.613 . S
N575 C578 1.350 . S
N576 S574 1.610 . S
N576 C577 1.351 . S
C577 C571 1.428 . S
C577 N576 1.351 . S
C577 C578 1.434 . S
C578 C569 1.429 . S
C578 N575 1.350 . S
C578 C577 1.434 . S
C579 C580 1.369 1_655 S
C579 C581 1.419 . S
C579 H583 0.930 . S
C580 C579 1.369 1_455 S
C580 C589 1.429 . S
C581 C579 1.419 . S
C581 C582 1.363 . S
C581 H584 0.929 . S
C582 C581 1.363 . S
C582 C588 1.428 . S
H583 C579 0.930 . S
H584 C581 0.929 . S
S585 N586 1.613 . S
S585 N587 1.610 1_455 S
N586 S585 1.613 . S
N586 C589 1.350 . S
N587 S585 1.610 1_655 S
N587 C588 1.351 . S
C588 C582 1.428 . S
C588 N587 1.351 . S
C588 C589 1.434 1_655 S
C589 C580 1.429 . S
C589 N586 1.350 . S
C589 C588 1.434 1_455 S
C590 C591 1.369 1_565 S
C590 C592 1.419 . S
C590 H594 0.930 . S
C591 C590 1.369 1_545 S
C591 C600 1.429 . S
C592 C590 1.419 . S
C592 C593 1.363 . S
C592 H595 0.929 . S
C593 C592 1.363 . S
C593 C599 1.428 . S
H594 C590 0.930 . S
H595 C592 0.929 . S
S596 N597 1.613 . S
S596 N598 1.610 1_545 S
N597 S596 1.613 . S
N597 C600 1.350 . S
N598 S596 1.610 1_565 S
N598 C599 1.351 . S
C599 C593 1.428 . S
C599 N598 1.351 . S
C599 C600 1.434 1_565 S
C600 C591 1.429 . S
C600 N597 1.350 . S
C600 C599 1.434 1_545 S
C601 C602 1.369 . S
C601 C603 1.419 . S
C601 H605 0.930 . S
C602 C601 1.369 . S
C602 C611 1.429 . S
C603 C601 1.419 . S
C603 C604 1.363 . S
C603 H606 0.929 . S
C604 C603 1.363 . S
C604 C610 1.428 . S
H605 C601 0.930 . S
H606 C603 0.929 . S
S607 N608 1.613 . S
S607 N609 1.610 . S
N608 S607 1.613 . S
N608 C611 1.350 . S
N609 S607 1.610 . S
N609 C610 1.351 . S
C610 C604 1.428 . S
C610 N609 1.351 . S
C610 C611 1.434 . S
C611 C602 1.429 . S
C611 N608 1.350 . S
C611 C610 1.434 . S
C612 C613 1.369 . S
C612 C614 1.419 . S
C612 H616 0.930 . S
C613 C612 1.369 . S
C613 C622 1.429 . S
C614 C612 1.419 . S
C614 C615 1.363 . S
C614 H617 0.929 . S
C615 C614 1.363 . S
C615 C621 1.428 . S
H616 C612 0.930 . S
H617 C614 0.929 . S
S618 N619 1.613 . S
S618 N620 1.610 . S
N619 S618 1.613 . S
N619 C622 1.350 . S
N620 S618 1.610 . S
N620 C621 1.351 . S
C621 C615 1.428 . S
C621 N620 1.351 . S
C621 C622 1.434 . S
C622 C613 1.429 . S
C622 N619 1.350 . S
C622 C621 1.434 . S
C623 C624 1.369 . S
C623 C625 1.419 . S
C623 H627 0.930 . S
C624 C623 1.369 . S
C624 C633 1.429 . S
C625 C623 1.419 . S
C625 C626 1.363 . S
C625 H628 0.929 . S
C626 C625 1.363 . S
C626 C632 1.428 . S
H627 C623 0.930 . S
H628 C625 0.929 . S
S629 N630 1.613 . S
S629 N631 1.610 . S
N630 S629 1.613 . S
N630 C633 1.350 . S
N631 S629 1.610 . S
N631 C632 1.351 . S
C632 C626 1.428 . S
C632 N631 1.351 . S
C632 C633 1.434 . S
C633 C624 1.429 . S
C633 N630 1.350 . S
C633 C632 1.434 . S
C634 C635 1.369 . S
C634 C636 1.419 . S
C634 H638 0.930 . S
C635 C634 1.369 . S
C635 C644 1.429 . S
C636 C634 1.419 . S
C636 C637 1.363 . S
C636 H639 0.929 . S
C637 C636 1.363 . S
C637 C643 1.428 . S
H638 C634 0.930 . S
H639 C636 0.929 . S
S640 N641 1.613 . S
S640 N642 1.610 . S
N641 S640 1.613 . S
N641 C644 1.350 . S
N642 S640 1.610 . S
N642 C643 1.351 . S
C643 C637 1.428 . S
C643 N642 1.351 . S
C643 C644 1.434 . S
C644 C635 1.429 . S
C644 N641 1.350 . S
C644 C643 1.434 . S
C645 C646 1.369 . S
C645 C647 1.419 . S
C645 H649 0.930 . S
C646 C645 1.369 . S
C646 C655 1.429 . S
C647 C645 1.419 . S
C647 C648 1.363 . S
C647 H650 0.929 . S
C648 C647 1.363 . S
C648 C654 1.428 . S
H649 C645 0.930 . S
H650 C647 0.929 . S
S651 N652 1.613 . S
S651 N653 1.610 . S
N652 S651 1.613 . S
N652 C655 1.350 . S
N653 S651 1.610 . S
N653 C654 1.351 . S
C654 C648 1.428 . S
C654 N653 1.351 . S
C654 C655 1.434 . S
C655 C646 1.429 . S
C655 N652 1.350 . S
C655 C654 1.434 . S
C656 C657 1.369 . S
C656 C658 1.419 . S
C656 H660 0.930 . S
C657 C656 1.369 . S
C657 C666 1.429 . S
C658 C656 1.419 . S
C658 C659 1.363 . S
C658 H661 0.929 . S
C659 C658 1.363 . S
C659 C665 1.428 . S
H660 C656 0.930 . S
H661 C658 0.929 . S
S662 N663 1.613 . S
S662 N664 1.610 . S
N663 S662 1.613 . S
N663 C666 1.350 . S
N664 S662 1.610 . S
N664 C665 1.351 . S
C665 C659 1.428 . S
C665 N664 1.351 . S
C665 C666 1.434 . S
C666 C657 1.429 . S
C666 N663 1.350 . S
C666 C665 1.434 . S
C667 C668 1.369 . S
C667 C669 1.419 . S
C667 H671 0.930 . S
C668 C667 1.369 . S
C668 C677 1.429 . S
C669 C667 1.419 . S
C669 C670 1.363 . S
C669 H672 0.929 . S
C670 C669 1.363 . S
C670 C676 1.428 . S
H671 C667 0.930 . S
H672 C669 0.929 . S
S673 N674 1.613 . S
S673 N675 1.610 . S
N674 S673 1.613 . S
N674 C677 1.350 . S
N675 S673 1.610 . S
N675 C676 1.351 . S
C676 C670 1.428 . S
C676 N675 1.351 . S
C676 C677 1.434 . S
C677 C668 1.429 . S
C677 N674 1.350 . S
C677 C676 1.434 . S
C678 C679 1.369 . S
C678 C680 1.419 . S
C678 H682 0.930 . S
C679 C678 1.369 . S
C679 C688 1.429 . S
C680 C678 1.419 . S
C680 C681 1.363 . S
C680 H683 0.929 . S
C681 C680 1.363 . S
C681 C687 1.428 . S
H682 C678 0.930 . S
H683 C680 0.929 . S
S684 N685 1.613 . S
S684 N686 1.610 . S
N685 S684 1.613 . S
N685 C688 1.350 . S
N686 S684 1.610 . S
N686 C687 1.351 . S
C687 C681 1.428 . S
C687 N686 1.351 . S
C687 C688 1.434 . S
C688 C679 1.429 . S
C688 N685 1.350 . S
C688 C687 1.434 . S
C689 C690 1.369 . S
C689 C691 1.419 . S
C689 H693 0.930 . S
C690 C689 1.369 . S
C690 C699 1.429 . S
C691 C689 1.419 . S
C691 C692 1.363 . S
C691 H694 0.929 . S
C692 C691 1.363 . S
C692 C698 1.428 . S
H693 C689 0.930 . S
H694 C691 0.929 . S
S695 N696 1.613 . S
S695 N697 1.610 . S
N696 S695 1.613 . S
N696 C699 1.350 . S
N697 S695 1.610 . S
N697 C698 1.351 . S
C698 C692 1.428 . S
C698 N697 1.351 . S
C698 C699 1.434 . S
C699 C690 1.429 . S
C699 N696 1.350 . S
C699 C698 1.434 . S
C700 C701 1.369 . S
C700 C702 1.419 . S
C700 H704 0.930 . S
C701 C700 1.369 . S
C701 C710 1.429 . S
C702 C700 1.419 . S
C702 C703 1.363 . S
C702 H705 0.929 . S
C703 C702 1.363 . S
C703 C709 1.428 . S
H704 C700 0.930 . S
H705 C702 0.929 . S
S706 N707 1.613 . S
S706 N708 1.610 . S
N707 S706 1.613 . S
N707 C710 1.350 . S
N708 S706 1.610 . S
N708 C709 1.351 . S
C709 C703 1.428 . S
C709 N708 1.351 . S
C709 C710 1.434 . S
C710 C701 1.429 . S
C710 N707 1.350 . S
C710 C709 1.434 . S
C711 C712 1.369 . S
C711 C713 1.419 . S
C711 H715 0.930 . S
C712 C711 1.369 . S
C712 C721 1.429 . S
C713 C711 1.419 . S
C713 C714 1.363 . S
C713 H716 0.929 . S
C714 C713 1.363 . S
C714 C720 1.428 . S
H715 C711 0.930 . S
H716 C713 0.929 . S
S717 N718 1.613 . S
S717 N719 1.610 . S
N718 S717 1.613 . S
N718 C721 1.350 . S
N719 S717 1.610 . S
N719 C720 1.351 . S
C720 C714 1.428 . S
C720 N719 1.351 . S
C720 C721 1.434 . S
C721 C712 1.429 . S
C721 N718 1.350 . S
C721 C720 1.434 . S
C722 C723 1.369 . S
C722 C724 1.419 . S
C722 H726 0.930 . S
C723 C722 1.369 . S
C723 C732 1.429 . S
C724 C722 1.419 . S
C724 C725 1.363 . S
C724 H727 0.929 . S
C725 C724 1.363 . S
C725 C731 1.428 . S
H726 C722 0.930 . S
H727 C724 0.929 . S
S728 N729 1.613 . S
S728 N730 1.610 . S
N729 S728 1.613 . S
N729 C732 1.350 . S
N730 S728 1.610 . S
N730 C731 1.351 . S
C731 C725 1.428 . S
C731 N730 1.351 . S
C731 C732 1.434 . S
C732 C723 1.429 . S
C732 N729 1.350 . S
C732 C731 1.434 . S
C733 C734 1.369 . S
C733 C735 1.419 . S
C733 H737 0.930 . S
C734 C733 1.369 . S
C734 C743 1.429 . S
C735 C733 1.419 . S
C735 C736 1.363 . S
C735 H738 0.929 . S
C736 C735 1.363 . S
C736 C742 1.428 . S
H737 C733 0.930 . S
H738 C735 0.929 . S
S739 N740 1.613 . S
S739 N741 1.610 . S
N740 S739 1.613 . S
N740 C743 1.350 . S
N741 S739 1.610 . S
N741 C742 1.351 . S
C742 C736 1.428 . S
C742 N741 1.351 . S
C742 C743 1.434 . S
C743 C734 1.429 . S
C743 N740 1.350 . S
C743 C742 1.434 . S
C744 C745 1.369 . S
C744 C746 1.419 . S
C744 H748 0.930 . S
C745 C744 1.369 . S
C745 C754 1.429 . S
C746 C744 1.419 . S
C746 C747 1.363 . S
C746 H749 0.929 . S
C747 C746 1.363 . S
C747 C753 1.428 . S
H748 C744 0.930 . S
H749 C746 0.929 . S
S750 N751 1.613 . S
S750 N752 1.610 . S
N751 S750 1.613 . S
N751 C754 1.350 . S
N752 S750 1.610 . S
N752 C753 1.351 . S
C753 C747 1.428 . S
C753 N752 1.351 . S
C753 C754 1.434 . S
C754 C745 1.429 . S
C754 N751 1.350 . S
C754 C753 1.434 . S
C755 C756 1.369 . S
C755 C757 1.419 . S
C755 H759 0.930 . S
C756 C755 1.369 . S
C756 C765 1.429 . S
C757 C755 1.419 . S
C757 C758 1.363 . S
C757 H760 0.929 . S
C758 C757 1.363 . S
C758 C764 1.428 . S
H759 C755 0.930 . S
H760 C757 0.929 . S
S761 N762 1.613 . S
S761 N763 1.610 . S
N762 S761 1.613 . S
N762 C765 1.350 . S
N763 S761 1.610 . S
N763 C764 1.351 . S
C764 C758 1.428 . S
C764 N763 1.351 . S
C764 C765 1.434 . S
C765 C756 1.429 . S
C765 N762 1.350 . S
C765 C764 1.434 . S
C766 C767 1.369 . S
C766 C768 1.419 . S
C766 H770 0.930 . S
C767 C766 1.369 . S
C767 C776 1.429 . S
C768 C766 1.419 . S
C768 C769 1.363 . S
C768 H771 0.929 . S
C769 C768 1.363 . S
C769 C775 1.428 . S
H770 C766 0.930 . S
H771 C768 0.929 . S
S772 N773 1.613 . S
S772 N774 1.610 . S
N773 S772 1.613 . S
N773 C776 1.350 . S
N774 S772 1.610 . S
N774 C775 1.351 . S
C775 C769 1.428 . S
C775 N774 1.351 . S
C775 C776 1.434 . S
C776 C767 1.429 . S
C776 N773 1.350 . S
C776 C775 1.434 . S
C777 C778 1.369 . S
C777 C779 1.419 . S
C777 H781 0.930 . S
C778 C777 1.369 . S
C778 C787 1.429 . S
C779 C777 1.419 . S
C779 C780 1.363 . S
C779 H782 0.929 . S
C780 C779 1.363 . S
C780 C786 1.428 . S
H781 C777 0.930 . S
H782 C779 0.929 . S
S783 N784 1.613 . S
S783 N785 1.610 . S
N784 S783 1.613 . S
N784 C787 1.350 . S
N785 S783 1.610 . S
N785 C786 1.351 . S
C786 C780 1.428 . S
C786 N785 1.351 . S
C786 C787 1.434 . S
C787 C778 1.429 . S
C787 N784 1.350 . S
C787 C786 1.434 . S
C788 C789 1.369 . S
C788 C790 1.419 . S
C788 H792 0.930 . S
C789 C788 1.369 . S
C789 C798 1.429 . S
C790 C788 1.419 . S
C790 C791 1.363 . S
C790 H793 0.929 . S
C791 C790 1.363 . S
C791 C797 1.428 . S
H792 C788 0.930 . S
H793 C790 0.929 . S
S794 N795 1.613 . S
S794 N796 1.610 . S
N795 S794 1.613 . S
N795 C798 1.350 . S
N796 S794 1.610 . S
N796 C797 1.351 . S
C797 C791 1.428 . S
C797 N796 1.351 . S
C797 C798 1.434 . S
C798 C789 1.429 . S
C798 N795 1.350 . S
C798 C797 1.434 . S
C799 C800 1.369 . S
C799 C801 1.419 . S
C799 H803 0.930 . S
C800 C799 1.369 . S
C800 C809 1.429 . S
C801 C799 1.419 . S
C801 C802 1.363 . S
C801 H804 0.929 . S
C802 C801 1.363 . S
C802 C808 1.428 . S
H803 C799 0.930 . S
H804 C801 0.929 . S
S805 N806 1.613 . S
S805 N807 1.610 . S
N806 S805 1.613 . S
N806 C809 1.350 . S
N807 S805 1.610 . S
N807 C808 1.351 . S
C808 C802 1.428 . S
C808 N807 1.351 . S
C808 C809 1.434 . S
C809 C800 1.429 . S
C809 N806 1.350 . S
C809 C808 1.434 . S
C810 C811 1.369 . S
C810 C812 1.419 . S
C810 H814 0.930 . S
C811 C810 1.369 . S
C811 C820 1.429 1_556 S
C812 C810 1.419 . S
C812 C813 1.363 1_556 S
C812 H815 0.929 . S
C813 C812 1.363 1_554 S
C813 C819 1.428 . S
H814 C810 0.930 . S
H815 C812 0.929 . S
S816 N817 1.613 . S
S816 N818 1.610 . S
N817 S816 1.613 . S
N817 C820 1.350 . S
N818 S816 1.610 . S
N818 C819 1.351 . S
C819 C813 1.428 . S
C819 N818 1.351 . S
C819 C820 1.434 . S
C820 C811 1.429 1_554 S
C820 N817 1.350 . S
C820 C819 1.434 . S
C821 C822 1.369 . S
C821 C823 1.419 1_455 S
C821 H825 0.930 . S
C822 C821 1.369 . S
C822 C831 1.429 . S
C823 C821 1.419 1_655 S
C823 C824 1.363 . S
C823 H826 0.929 . S
C824 C823 1.363 . S
C824 C830 1.428 . S
H825 C821 0.930 . S
H826 C823 0.929 . S
S827 N828 1.613 1_655 S
S827 N829 1.610 . S
N828 S827 1.613 1_455 S
N828 C831 1.350 . S
N829 S827 1.610 . S
N829 C830 1.351 . S
C830 C824 1.428 . S
C830 N829 1.351 . S
C830 C831 1.434 1_655 S
C831 C822 1.429 . S
C831 N828 1.350 . S
C831 C830 1.434 1_455 S
C832 C833 1.369 . S
C832 C834 1.419 1_565 S
C832 H836 0.930 . S
C833 C832 1.369 . S
C833 C842 1.429 1_554 S
C834 C832 1.419 1_545 S
C834 C835 1.363 1_554 S
C834 H837 0.929 . S
C835 C834 1.363 1_556 S
C835 C841 1.428 . S
H836 C832 0.930 . S
H837 C834 0.929 . S
S838 N839 1.613 . S
S838 N840 1.610 1_565 S
N839 S838 1.613 . S
N839 C842 1.350 . S
N840 S838 1.610 1_545 S
N840 C841 1.351 . S
C841 C835 1.428 . S
C841 N840 1.351 . S
C841 C842 1.434 1_545 S
C842 C833 1.429 1_556 S
C842 N839 1.350 . S
C842 C841 1.434 1_565 S
C843 C844 1.369 . S
C843 C845 1.419 . S
C843 H847 0.930 . S
C844 C843 1.369 . S
C844 C853 1.429 . S
C845 C843 1.419 . S
C845 C846 1.363 . S
C845 H848 0.929 . S
C846 C845 1.363 . S
C846 C852 1.428 . S
H847 C843 0.930 . S
H848 C845 0.929 . S
S849 N850 1.613 . S
S849 N851 1.610 . S
N850 S849 1.613 . S
N850 C853 1.350 . S
N851 S849 1.610 . S
N851 C852 1.351 . S
C852 C846 1.428 . S
C852 N851 1.351 . S
C852 C853 1.434 . S
C853 C844 1.429 . S
C853 N850 1.350 . S
C853 C852 1.434 . S
C854 C855 1.369 . S
C854 C856 1.419 1_655 S
C854 H858 0.930 . S
C855 C854 1.369 . S
C855 C864 1.429 1_556 S
C856 C854 1.419 1_455 S
C856 C857 1.363 1_556 S
C856 H859 0.929 . S
C857 C856 1.363 1_554 S
C857 C863 1.428 . S
H858 C854 0.930 . S
H859 C856 0.929 . S
S860 N861 1.613 . S
S860 N862 1.610 1_655 S
N861 S860 1.613 . S
N861 C864 1.350 . S
N862 S860 1.610 1_455 S
N862 C863 1.351 . S
C863 C857 1.428 . S
C863 N862 1.351 . S
C863 C864 1.434 1_455 S
C864 C855 1.429 1_554 S
C864 N861 1.350 . S
C864 C863 1.434 1_655 S
C865 C866 1.369 . S
C865 C867 1.419 1_565 S
C865 H869 0.930 . S
C866 C865 1.369 . S
C866 C875 1.429 . S
C867 C865 1.419 1_545 S
C867 C868 1.363 . S
C867 H870 0.929 . S
C868 C867 1.363 . S
C868 C874 1.428 . S
H869 C865 0.930 . S
H870 C867 0.929 . S
S871 N872 1.613 . S
S871 N873 1.610 1_565 S
N872 S871 1.613 . S
N872 C875 1.350 . S
N873 S871 1.610 1_545 S
N873 C874 1.351 . S
C874 C868 1.428 . S
C874 N873 1.351 . S
C874 C875 1.434 1_545 S
C875 C866 1.429 . S
C875 N872 1.350 . S
C875 C874 1.434 1_565 S
C481 C179 1.397 . S
C483 C15 1.472 . S
C492 C219 1.402 . S
C494 C55 1.468 . S
C503 C95 1.465 . S
C505 C19 1.406 . S
C514 C135 1.467 . S
C516 C59 1.404 . S
C525 C175 1.471 . S
C527 C99 1.404 . S
C536 C139 1.399 . S
C538 C215 1.470 . S
C547 C339 1.406 . S
C549 C255 1.470 . S
C558 C295 1.466 . S
C560 C379 1.409 . S
C569 C419 1.409 . S
C571 C335 1.468 . S
C580 C375 1.465 . S
C582 C459 1.409 . S
C591 C415 1.465 . S
C593 C259 1.408 . S
C602 C299 1.409 . S
C604 C455 1.467 . S
C613 C170 1.882 . S
C615 C6 1.852 . S
C624 C46 1.859 . S
C626 C210 1.878 . S
C635 C86 1.851 . S
C637 C10 1.881 . S
C646 C126 1.857 . S
C648 C50 1.880 . S
C657 C90 1.883 . S
C659 C166 1.852 . S
C668 C130 1.880 . S
C670 C206 1.853 . S
C679 C330 1.880 . S
C681 C246 1.853 . S
C690 C286 1.853 . S
C692 C370 1.882 . S
C701 C326 1.857 . S
C703 C410 1.877 . S
C712 C450 1.875 . S
C714 C366 1.859 . S
C723 C406 1.858 . S
C725 C250 1.879 . S
C734 C290 1.883 . S
C736 C446 1.853 . S
C745 C418 1.595 . S
C747 C18 1.588 . S
C756 C58 1.590 . S
C758 C458 1.586 . S
C767 C98 1.591 . S
C769 C258 1.585 . S
C778 C138 1.591 . S
C780 C298 1.592 . S
C789 C178 1.588 . S
C791 C338 1.594 . S
C800 C378 1.590 . S
C802 C218 1.586 . S
C811 C369 2.457 . S
C813 C9 2.453 . S
C822 C409 2.452 . S
C824 C49 2.456 . S
C833 C89 2.457 . S
C835 C449 2.453 . S
C844 C129 2.453 . S
C846 C249 2.455 . S
C855 C289 2.457 . S
C857 C169 2.453 . S
C866 C329 2.456 . S
C868 C209 2.453 . S
