# Generated by pormake.
# Topology zfr, (5)-cn, num edge types: 1
# Building blocks:
#     Node 0, Type 0, BuildingBlock: XOMCOT_clean_sbu_1, # of connection points: 5
#     Node 1, Type 0, BuildingBlock: XOMCOT_clean_sbu_1, # of connection points: 5
#     Node 2, Type 0, BuildingBlock: XOMCOT_clean_sbu_1, # of connection points: 5
#     Node 3, Type 0, BuildingBlock: XOMCOT_clean_sbu_1, # of connection points: 5
#     Node 4, Type 0, BuildingBlock: XOMCOT_clean_sbu_1, # of connection points: 5
#     Node 5, Type 0, BuildingBlock: XOMCOT_clean_sbu_1, # of connection points: 5
#     Node 6, Type 0, BuildingBlock: XOMCOT_clean_sbu_1, # of connection points: 5
#     Node 7, Type 0, BuildingBlock: XOMCOT_clean_sbu_1, # of connection points: 5
#     Edge 8, Type (0, 0), BuildingBlock: XUDNAN_clean_linker_2, # of connection points: 2
#     Edge 9, Type (0, 0), BuildingBlock: XUDNAN_clean_linker_2, # of connection points: 2
#     Edge 10, Type (0, 0), BuildingBlock: XUDNAN_clean_linker_2, # of connection points: 2
#     Edge 11, Type (0, 0), BuildingBlock: XUDNAN_clean_linker_2, # of connection points: 2
#     Edge 12, Type (0, 0), BuildingBlock: XUDNAN_clean_linker_2, # of connection points: 2
#     Edge 13, Type (0, 0), BuildingBlock: XUDNAN_clean_linker_2, # of connection points: 2
#     Edge 14, Type (0, 0), BuildingBlock: XUDNAN_clean_linker_2, # of connection points: 2
#     Edge 15, Type (0, 0), BuildingBlock: XUDNAN_clean_linker_2, # of connection points: 2
#     Edge 16, Type (0, 0), BuildingBlock: XUDNAN_clean_linker_2, # of connection points: 2
#     Edge 17, Type (0, 0), BuildingBlock: XUDNAN_clean_linker_2, # of connection points: 2
#     Edge 18, Type (0, 0), BuildingBlock: XUDNAN_clean_linker_2, # of connection points: 2
#     Edge 19, Type (0, 0), BuildingBlock: XUDNAN_clean_linker_2, # of connection points: 2
#     Edge 20, Type (0, 0), BuildingBlock: XUDNAN_clean_linker_2, # of connection points: 2
#     Edge 21, Type (0, 0), BuildingBlock: XUDNAN_clean_linker_2, # of connection points: 2
#     Edge 22, Type (0, 0), BuildingBlock: XUDNAN_clean_linker_2, # of connection points: 2
#     Edge 23, Type (0, 0), BuildingBlock: XUDNAN_clean_linker_2, # of connection points: 2
#     Edge 24, Type (0, 0), BuildingBlock: XUDNAN_clean_linker_2, # of connection points: 2
#     Edge 25, Type (0, 0), BuildingBlock: XUDNAN_clean_linker_2, # of connection points: 2
#     Edge 26, Type (0, 0), BuildingBlock: XUDNAN_clean_linker_2, # of connection points: 2
#     Edge 27, Type (0, 0), BuildingBlock: XUDNAN_clean_linker_2, # of connection points: 2
# Relax obj value: 0.189
# Max RMSD: 0.175
# Mean RMSD: 0.175
data_MOF--net-zfr--node1-XOMCOT_clean_sbu_1--edge1-XUDNAN_clean_linker_2
_symmetry_space_group_name_H-M    P1
_symmetry_Int_Tables_number       1
_symmetry_cell_setting            triclinic
loop_
_symmetry_equiv_pos_as_xyz
'x, y, z'
_cell_length_a     51.498035
_cell_length_b     51.54893
_cell_length_c     17.224124
_cell_angle_alpha  90.047703
_cell_angle_beta   90.063125
_cell_angle_gamma 90.002538
loop_
_atom_site_label
_atom_site_type_symbol
_atom_site_fract_x
_atom_site_fract_y
_atom_site_fract_z
_atom_type_partial_charge
C0 C 0.15301 0.33353 0.17843 0.0
C1 C 0.15787 0.3305 0.10044 0.0
N2 N 0.14131 0.31257 0.07242 0.0
N3 N 0.13322 0.31786 0.199 0.0
C4 C 0.12675 0.30504 0.13335 0.0
H5 H 0.16248 0.34713 0.21703 0.0
Co6 Co 0.11713 0.31784 0.29559 0.0
C7 C 0.06087 0.31063 0.24901 0.0
O8 O 0.0525 0.32807 0.29825 0.0
N9 N 0.10128 0.31808 0.396 0.0
C10 C 0.08223 0.33228 0.50448 0.0
C11 C 0.0846 0.3358 0.42606 0.0
C12 C 0.10863 0.30396 0.45879 0.0
N13 N 0.0974 0.3123 0.52493 0.0
O14 O 0.12882 0.28279 0.31195 0.0
H15 H 0.07629 0.35201 0.39515 0.0
H16 H 0.12364 0.28935 0.45808 0.0
O17 O 0.08505 0.30518 0.2455 0.0
C18 C 0.15262 0.28348 0.33255 0.0
O19 O 0.16384 0.30631 0.33833 0.0
N20 N 0.10857 0.35289 0.28064 0.0
C21 C 0.09984 0.40617 0.27738 0.0
C22 C 0.08845 0.38996 0.22132 0.0
C23 C 0.09334 0.3632 0.22342 0.0
C24 C 0.12171 0.36873 0.33036 0.0
C25 C 0.11722 0.39534 0.33088 0.0
H26 H 0.08489 0.35089 0.17939 0.0
H27 H 0.13504 0.36041 0.37206 0.0
H28 H 0.11071 0.29156 0.12893 0.0
H29 H 0.17184 0.34128 0.06636 0.0
H30 H 0.0717 0.34466 0.54436 0.0
H31 H 0.07548 0.39779 0.17769 0.0
H32 H 0.12708 0.40733 0.37336 0.0
C33 C 0.66296 0.15745 0.36806 0.0
C34 C 0.66301 0.16431 0.29092 0.0
N35 N 0.68175 0.15065 0.25482 0.0
N36 N 0.68149 0.13946 0.38046 0.0
C37 C 0.69287 0.136 0.31061 0.0
H38 H 0.64997 0.16476 0.41224 0.0
Co39 Co 0.68803 0.12383 0.47572 0.0
C40 C 0.69678 0.06837 0.42674 0.0
O41 O 0.6823 0.05953 0.4837 0.0
N42 N 0.69498 0.10968 0.57421 0.0
C43 C 0.71366 0.09193 0.67838 0.0
C44 C 0.71072 0.09036 0.59882 0.0
C45 C 0.68977 0.12328 0.63942 0.0
N46 N 0.70055 0.11287 0.70368 0.0
O47 O 0.72228 0.13822 0.47743 0.0
H48 H 0.72137 0.07731 0.56159 0.0
H49 H 0.6797 0.14163 0.63887 0.0
O50 O 0.70084 0.0928 0.42081 0.0
C51 C 0.72234 0.16143 0.5028 0.0
O52 O 0.69989 0.17267 0.51648 0.0
N53 N 0.65333 0.11125 0.47626 0.0
C54 C 0.60023 0.09975 0.47642 0.0
C55 C 0.61658 0.08941 0.4193 0.0
C56 C 0.64295 0.09602 0.4189 0.0
C57 C 0.63734 0.12214 0.53031 0.0
C58 C 0.61088 0.11646 0.53201 0.0
H59 H 0.65466 0.0897 0.37052 0.0
H60 H 0.64465 0.13642 0.57017 0.0
H61 H 0.70928 0.12345 0.301 0.0
H62 H 0.64981 0.17776 0.26313 0.0
H63 H 0.72603 0.07975 0.71378 0.0
H64 H 0.60884 0.07726 0.37344 0.0
H65 H 0.59875 0.12541 0.57587 0.0
C66 C 0.85186 0.65454 0.64779 0.0
C67 C 0.84779 0.65703 0.56901 0.0
N68 N 0.85949 0.67891 0.54452 0.0
N69 N 0.86652 0.67456 0.67343 0.0
C70 C 0.86979 0.68953 0.60943 0.0
H71 H 0.84518 0.63848 0.68239 0.0
Co72 Co 0.88309 0.68147 0.77091 0.0
C73 C 0.92462 0.67654 0.65493 0.0
O74 O 0.91349 0.65471 0.63352 0.0
N75 N 0.89864 0.68912 0.86594 0.0
C76 C 0.92278 0.70734 0.95794 0.0
C77 C 0.92054 0.70276 0.87946 0.0
C78 C 0.88799 0.68548 0.93689 0.0
N79 N 0.90229 0.69648 0.99396 0.0
O80 O 0.87238 0.71694 0.7638 0.0
H81 H 0.93346 0.71003 0.83512 0.0
H82 H 0.86934 0.67629 0.94594 0.0
O83 O 0.91563 0.6892 0.71322 0.0
C84 C 0.84865 0.71867 0.78379 0.0
O85 O 0.83582 0.69717 0.79837 0.0
N86 N 0.89183 0.64635 0.78582 0.0
C87 C 0.89871 0.5942 0.82269 0.0
C88 C 0.92007 0.6097 0.80333 0.0
C89 C 0.91632 0.6361 0.78807 0.0
C90 C 0.87127 0.63191 0.81041 0.0
C91 C 0.87418 0.60568 0.82815 0.0
H92 H 0.93315 0.6482 0.77902 0.0
H93 H 0.85241 0.64092 0.81643 0.0
H94 H 0.8815 0.70695 0.60961 0.0
H95 H 0.83764 0.64329 0.53244 0.0
H96 H 0.93793 0.71847 0.98618 0.0
H97 H 0.93948 0.60162 0.80211 0.0
H98 H 0.85739 0.59442 0.84545 0.0
C99 C 0.33426 0.83999 0.90096 0.0
C100 C 0.33715 0.83546 0.82285 0.0
N101 N 0.3234 0.85342 0.78357 0.0
N102 N 0.3191 0.86102 0.91142 0.0
C103 C 0.31181 0.86798 0.83885 0.0
H104 H 0.34373 0.82936 0.947 0.0
Co105 Co 0.31426 0.87822 0.00651 0.0
C106 C 0.30891 0.93503 0.95541 0.0
O107 O 0.31611 0.94563 0.02135 0.0
N108 N 0.30905 0.89447 0.10367 0.0
C109 C 0.29018 0.91347 0.20566 0.0
C110 C 0.28956 0.91037 0.12592 0.0
C111 C 0.32066 0.88772 0.17117 0.0
N112 N 0.30991 0.89916 0.23392 0.0
O113 O 0.27825 0.86915 0.00481 0.0
H114 H 0.27497 0.91816 0.0872 0.0
H115 H 0.33539 0.87303 0.17571 0.0
O116 O 0.30763 0.91033 0.94885 0.0
C117 C 0.27648 0.84614 0.0312 0.0
O118 O 0.29793 0.83407 0.05141 0.0
N119 N 0.35033 0.88463 0.01068 0.0
C120 C 0.40461 0.88211 0.01396 0.0
C121 C 0.39188 0.90178 0.97228 0.0
C122 C 0.36462 0.90257 0.9707 0.0
C123 C 0.36255 0.86551 0.05106 0.0
C124 C 0.38945 0.86427 0.05524 0.0
H125 H 0.35542 0.9167 0.93388 0.0
H126 H 0.35124 0.85024 0.07756 0.0
H127 H 0.29902 0.88403 0.82655 0.0
H128 H 0.34943 0.82077 0.797 0.0
H129 H 0.27668 0.92471 0.24008 0.0
H130 H 0.40279 0.91558 0.93796 0.0
H131 H 0.39824 0.84879 0.08863 0.0
C132 C 0.14942 0.6717 0.31557 0.0
C133 C 0.15402 0.66754 0.39329 0.0
N134 N 0.13227 0.67359 0.43261 0.0
N135 N 0.12489 0.68024 0.30617 0.0
C136 C 0.11495 0.6813 0.37864 0.0
H137 H 0.1627 0.66762 0.26856 0.0
Co138 Co 0.10876 0.68389 0.21073 0.0
C139 C 0.05364 0.69691 0.2499 0.0
O140 O 0.04513 0.68343 0.19025 0.0
N141 N 0.09357 0.68766 0.11239 0.0
C142 C 0.077 0.70587 0.00635 0.0
C143 C 0.07977 0.70801 0.08549 0.0
C144 C 0.09973 0.67403 0.04806 0.0
N145 N 0.08981 0.68448 0.9824 0.0
O146 O 0.12313 0.71795 0.20004 0.0
H147 H 0.07342 0.72425 0.12044 0.0
H148 H 0.11321 0.65811 0.04869 0.0
O149 O 0.07808 0.69859 0.26209 0.0
C150 C 0.14414 0.71756 0.16118 0.0
O151 O 0.15276 0.69506 0.13613 0.0
N152 N 0.0967 0.64931 0.22044 0.0
C153 C 0.08879 0.59598 0.24212 0.0
C154 C 0.073 0.61431 0.27948 0.0
C155 C 0.0777 0.64077 0.26964 0.0
C156 C 0.11257 0.63174 0.18505 0.0
C157 C 0.10875 0.60507 0.19396 0.0
H158 H 0.06698 0.65392 0.30586 0.0
H159 H 0.12932 0.63845 0.15311 0.0
H160 H 0.09496 0.68596 0.39162 0.0
H161 H 0.17172 0.66003 0.41871 0.0
H162 H 0.06745 0.71991 0.96952 0.0
H163 H 0.05763 0.60832 0.3184 0.0
H164 H 0.12221 0.59177 0.16663 0.0
C165 C 0.34383 0.15807 0.62747 0.0
C166 C 0.34378 0.16492 0.7045 0.0
N167 N 0.32812 0.14837 0.74268 0.0
N168 N 0.32829 0.13732 0.61726 0.0
C169 C 0.31896 0.13177 0.68849 0.0
H170 H 0.35423 0.16778 0.58136 0.0
Co171 Co 0.32122 0.12347 0.52086 0.0
C172 C 0.3171 0.06706 0.54754 0.0
O173 O 0.33158 0.06378 0.48545 0.0
N174 N 0.31331 0.11118 0.42099 0.0
C175 C 0.29204 0.09478 0.31921 0.0
C176 C 0.29561 0.09328 0.39823 0.0
C177 C 0.3187 0.12439 0.35532 0.0
N178 N 0.30648 0.11456 0.29278 0.0
O179 O 0.28628 0.13619 0.52632 0.0
H180 H 0.28434 0.0812 0.43676 0.0
H181 H 0.3297 0.14219 0.3539 0.0
O182 O 0.31089 0.09007 0.56882 0.0
C183 C 0.2854 0.15948 0.50169 0.0
O184 O 0.30738 0.1709 0.48345 0.0
N185 N 0.35659 0.1128 0.51411 0.0
C186 C 0.4097 0.1018 0.50497 0.0
C187 C 0.39433 0.09043 0.56265 0.0
C188 C 0.36801 0.09687 0.56784 0.0
C189 C 0.37177 0.12522 0.46096 0.0
C190 C 0.39824 0.11977 0.45464 0.0
H191 H 0.35702 0.08939 0.61625 0.0
H192 H 0.36379 0.14036 0.42538 0.0
H193 H 0.30515 0.11643 0.70005 0.0
H194 H 0.35451 0.18077 0.73048 0.0
H195 H 0.27846 0.08355 0.28486 0.0
H196 H 0.40276 0.07738 0.605 0.0
H197 H 0.40968 0.1297 0.41109 0.0
C198 C 0.84581 0.32784 0.85861 0.0
C199 C 0.83987 0.33018 0.93599 0.0
N200 N 0.86021 0.32145 0.97776 0.0
N201 N 0.86973 0.31759 0.85125 0.0
C202 C 0.87785 0.31344 0.92495 0.0
H203 H 0.83408 0.33475 0.81084 0.0
Co204 Co 0.88723 0.31644 0.75673 0.0
C205 C 0.942 0.30959 0.80552 0.0
O206 O 0.94871 0.32824 0.75756 0.0
N207 N 0.90353 0.31492 0.65879 0.0
C208 C 0.92477 0.30154 0.55323 0.0
C209 C 0.92323 0.29987 0.63293 0.0
C210 C 0.8927 0.32431 0.59311 0.0
N211 N 0.90545 0.31701 0.52827 0.0
O212 O 0.87407 0.28211 0.73798 0.0
H213 H 0.93468 0.28694 0.66843 0.0
H214 H 0.87423 0.33418 0.59205 0.0
O215 O 0.91827 0.3023 0.80903 0.0
C216 C 0.85231 0.28351 0.70284 0.0
O217 O 0.84287 0.30662 0.68744 0.0
N218 N 0.89803 0.35149 0.77408 0.0
C219 C 0.90478 0.40442 0.80633 0.0
C220 C 0.91461 0.3855 0.85663 0.0
C221 C 0.91069 0.35926 0.84015 0.0
C222 C 0.88781 0.36984 0.72577 0.0
C223 C 0.89145 0.3963 0.73973 0.0
H224 H 0.917 0.34538 0.88283 0.0
H225 H 0.87525 0.3643 0.67885 0.0
H226 H 0.89716 0.30683 0.93993 0.0
H227 H 0.82242 0.33882 0.95954 0.0
H228 H 0.93837 0.29124 0.51662 0.0
H229 H 0.92462 0.3909 0.90958 0.0
H230 H 0.88253 0.41028 0.70108 0.0
C231 C 0.66594 0.84214 0.10163 0.0
C232 C 0.66672 0.83517 0.17841 0.0
N233 N 0.68218 0.85205 0.2164 0.0
N234 N 0.68065 0.86344 0.091 0.0
C235 C 0.69038 0.86906 0.16191 0.0
H236 H 0.65546 0.83217 0.05609 0.0
Co237 Co 0.68613 0.87829 0.99453 0.0
C238 C 0.6892 0.93487 0.02497 0.0
O239 O 0.6752 0.93935 0.96257 0.0
N240 N 0.69246 0.89185 0.89479 0.0
C241 C 0.71464 0.90785 0.79426 0.0
C242 C 0.7109 0.90915 0.87331 0.0
C243 C 0.68628 0.8796 0.82792 0.0
N244 N 0.69931 0.88894 0.76628 0.0
O245 O 0.72165 0.8672 0.99634 0.0
H246 H 0.72279 0.92026 0.91298 0.0
H247 H 0.67442 0.86247 0.82473 0.0
O248 O 0.6949 0.91157 0.04425 0.0
C249 C 0.72169 0.84483 0.96467 0.0
O250 O 0.69914 0.83435 0.94736 0.0
N251 N 0.65035 0.88648 0.99011 0.0
C252 C 0.59602 0.88477 0.99302 0.0
C253 C 0.60962 0.90212 0.04097 0.0
C254 C 0.63691 0.90236 0.03968 0.0
C255 C 0.63718 0.86955 0.94392 0.0
C256 C 0.61024 0.86895 0.94253 0.0
H257 H 0.64697 0.91383 0.08264 0.0
H258 H 0.64745 0.85452 0.91354 0.0
H259 H 0.70367 0.8849 0.17295 0.0
H260 H 0.65644 0.81904 0.20425 0.0
H261 H 0.72915 0.91827 0.76124 0.0
H262 H 0.5994 0.91404 0.08278 0.0
H263 H 0.60066 0.85491 0.90542 0.0
H264 H 0.27941 0.21082 0.47432 0.0
H265 H 0.23567 0.13917 0.49105 0.0
H266 H 0.1958 0.16266 0.44985 0.0
H267 H 0.22892 0.25382 0.54368 0.0
H268 H 0.23831 0.27935 0.47802 0.0
H269 H 0.26225 0.25676 0.51308 0.0
H270 H 0.27461 0.24546 0.37103 0.0
H271 H 0.25049 0.26776 0.33552 0.0
H272 H 0.24979 0.2343 0.30508 0.0
H273 H 0.16083 0.19521 0.39884 0.0
H274 H 0.13508 0.23289 0.35159 0.0
H275 H 0.20373 0.28133 0.36908 0.0
C276 C 0.26143 0.19999 0.47024 0.0
C277 C 0.26064 0.17316 0.48601 0.0
C278 C 0.23666 0.15981 0.47988 0.0
C279 C 0.21398 0.17299 0.45612 0.0
C280 C 0.21567 0.19946 0.43924 0.0
C281 C 0.23886 0.21273 0.44691 0.0
C282 C 0.2362 0.24087 0.42425 0.0
C283 C 0.24174 0.25875 0.49391 0.0
C284 C 0.25381 0.24747 0.35485 0.0
C285 C 0.2079 0.24153 0.4017 0.0
C286 C 0.19615 0.21762 0.41055 0.0
C287 C 0.16993 0.214 0.39213 0.0
C288 C 0.15547 0.23544 0.36501 0.0
C289 C 0.16734 0.26009 0.35665 0.0
C290 C 0.19392 0.26285 0.37491 0.0
H291 H 0.80188 0.28215 0.65862 0.0
H292 H 0.86933 0.23271 0.68763 0.0
H293 H 0.84412 0.19547 0.63481 0.0
H294 H 0.75421 0.23492 0.71373 0.0
H295 H 0.73069 0.24668 0.64466 0.0
H296 H 0.75434 0.26856 0.68518 0.0
H297 H 0.7692 0.28097 0.54622 0.0
H298 H 0.74581 0.25889 0.50528 0.0
H299 H 0.77966 0.25587 0.48037 0.0
H300 H 0.81038 0.1638 0.57409 0.0
H301 H 0.77154 0.14092 0.52255 0.0
H302 H 0.72769 0.21259 0.53631 0.0
C303 C 0.81148 0.26351 0.65415 0.0
C304 C 0.83762 0.26034 0.67695 0.0
C305 C 0.84927 0.23553 0.67072 0.0
C306 C 0.83513 0.21435 0.64042 0.0
C307 C 0.8094 0.21837 0.61724 0.0
C308 C 0.79774 0.24238 0.62472 0.0
C309 C 0.76989 0.24202 0.59721 0.0
C310 C 0.75119 0.24841 0.66419 0.0
C311 C 0.76593 0.26053 0.52817 0.0
C312 C 0.76752 0.21404 0.57244 0.0
C313 C 0.79042 0.20056 0.58387 0.0
C314 C 0.79241 0.17426 0.56509 0.0
C315 C 0.77032 0.16145 0.5354 0.0
C316 C 0.7466 0.17497 0.52528 0.0
C317 C 0.7455 0.20165 0.5433 0.0
H318 H 0.79754 0.72873 0.76924 0.0
H319 H 0.87036 0.76443 0.83608 0.0
H320 H 0.84628 0.80293 0.88498 0.0
H321 H 0.76367 0.78936 0.71161 0.0
H322 H 0.7332 0.77747 0.74859 0.0
H323 H 0.75679 0.75507 0.7102 0.0
H324 H 0.75565 0.72946 0.83975 0.0
H325 H 0.73248 0.75197 0.87905 0.0
H326 H 0.7626 0.74613 0.92949 0.0
H327 H 0.81236 0.83554 0.94063 0.0
H328 H 0.77323 0.85913 0.98769 0.0
H329 H 0.72437 0.80016 0.8827 0.0
C330 C 0.8085 0.74495 0.79232 0.0
C331 C 0.83574 0.74376 0.79863 0.0
C332 C 0.84944 0.76521 0.8297 0.0
C333 C 0.8359 0.78704 0.85802 0.0
C334 C 0.80879 0.78713 0.8536 0.0
C335 C 0.79539 0.76672 0.82003 0.0
C336 C 0.76639 0.77039 0.8254 0.0
C337 C 0.75431 0.77325 0.74413 0.0
C338 C 0.75355 0.74818 0.87116 0.0
C339 C 0.76535 0.7956 0.86973 0.0
C340 C 0.78982 0.80531 0.88517 0.0
C341 C 0.79314 0.82816 0.92797 0.0
C342 C 0.77086 0.84136 0.95485 0.0
C343 C 0.74572 0.83146 0.93932 0.0
C344 C 0.74322 0.80833 0.89606 0.0
H345 H 0.19292 0.72026 0.10274 0.0
H346 H 0.1289 0.76875 0.17821 0.0
H347 H 0.15442 0.80799 0.14361 0.0
H348 H 0.24309 0.75964 0.17794 0.0
H349 H 0.26499 0.75286 0.09892 0.0
H350 H 0.24085 0.72934 0.12601 0.0
H351 H 0.22333 0.72913 0.98472 0.0
H352 H 0.24729 0.75287 0.95736 0.0
H353 H 0.21333 0.75921 0.94051 0.0
H354 H 0.18851 0.8422 0.10028 0.0
H355 H 0.22831 0.86693 0.065 0.0
H356 H 0.26868 0.79455 0.02261 0.0
C357 C 0.18407 0.73909 0.11167 0.0
C358 C 0.15886 0.74145 0.14279 0.0
C359 C 0.14822 0.76651 0.1544 0.0
C360 C 0.16252 0.78886 0.13452 0.0
C361 C 0.18738 0.78574 0.10342 0.0
C362 C 0.19802 0.76137 0.0928 0.0
C363 C 0.22543 0.7628 0.06226 0.0
C364 C 0.24471 0.75044 0.11972 0.0
C365 C 0.22745 0.75026 0.98141 0.0
C366 C 0.22886 0.79182 0.05793 0.0
C367 C 0.20672 0.80493 0.08073 0.0
C368 C 0.20588 0.83205 0.08218 0.0
C369 C 0.22844 0.84595 0.06163 0.0
C370 C 0.25146 0.83259 0.04121 0.0
C371 C 0.25135 0.80527 0.03815 0.0
H372 H 0.11361 0.34617 0.63294 0.0
H373 H 0.09907 0.26471 0.59097 0.0
H374 H 0.11049 0.25487 0.72838 0.0
H375 H 0.1693 0.33675 0.76031 0.0
H376 H 0.16103 0.36408 0.82074 0.0
H377 H 0.15222 0.36405 0.71949 0.0
H378 H 0.10403 0.37187 0.75653 0.0
H379 H 0.1127 0.37194 0.85775 0.0
H380 H 0.08821 0.34986 0.82263 0.0
H381 H 0.11977 0.25535 0.87446 0.0
H382 H 0.12994 0.26534 0.01233 0.0
H383 H 0.1412 0.34612 0.9526 0.0
C384 C 0.11291 0.32628 0.65296 0.0
C385 C 0.10521 0.30615 0.60264 0.0
C386 C 0.10489 0.28026 0.62953 0.0
C387 C 0.11129 0.2746 0.70711 0.0
C388 C 0.11848 0.29506 0.75584 0.0
C389 C 0.11971 0.32032 0.72922 0.0
C390 C 0.12812 0.33888 0.7923 0.0
C391 C 0.15422 0.35169 0.77199 0.0
C392 C 0.107 0.35933 0.80823 0.0
C393 C 0.13094 0.32028 0.85942 0.0
C394 C 0.12516 0.29509 0.83771 0.0
C395 C 0.12479 0.27492 0.89166 0.0
C396 C 0.13048 0.28072 0.9696 0.0
C397 C 0.13679 0.30636 0.99226 0.0
C398 C 0.13716 0.32624 0.93622 0.0
H399 H 0.69681 0.10951 0.16648 0.0
H400 H 0.67862 0.19158 0.15748 0.0
H401 H 0.68448 0.19113 0.01523 0.0
H402 H 0.7457 0.10998 0.00604 0.0
H403 H 0.73532 0.07857 0.97192 0.0
H404 H 0.73279 0.08666 0.07346 0.0
H405 H 0.68364 0.07501 0.06756 0.0
H406 H 0.68627 0.06788 0.9656 0.0
H407 H 0.66305 0.09157 0.99885 0.0
H408 H 0.69011 0.1816 0.87489 0.0
H409 H 0.69381 0.16354 0.74354 0.0
H410 H 0.7066 0.08686 0.84074 0.0
C411 C 0.69469 0.12748 0.13464 0.0
C412 C 0.68739 0.15066 0.17293 0.0
C413 C 0.6841 0.17365 0.12915 0.0
C414 C 0.68753 0.17359 0.04849 0.0
C415 C 0.69424 0.15036 0.01233 0.0
C416 C 0.69785 0.12771 0.05377 0.0
C417 C 0.70344 0.10508 0.99978 0.0
C418 C 0.73094 0.09444 0.01362 0.0
C419 C 0.68286 0.08363 0.00848 0.0
C420 C 0.70153 0.11845 0.9215 0.0
C421 C 0.69669 0.14464 0.93043 0.0
C422 C 0.69385 0.16111 0.86707 0.0
C423 C 0.69573 0.15054 0.79241 0.0
C424 C 0.7001 0.12361 0.78123 0.0
C425 C 0.70338 0.10749 0.84707 0.0
H426 H 0.88253 0.65928 0.08915 0.0
H427 H 0.90746 0.73949 0.0821 0.0
H428 H 0.89684 0.74434 0.22132 0.0
H429 H 0.82935 0.66687 0.22547 0.0
H430 H 0.83607 0.63702 0.27611 0.0
H431 H 0.84434 0.64015 0.17492 0.0
H432 H 0.89204 0.62797 0.206 0.0
H433 H 0.88396 0.62474 0.30721 0.0
H434 H 0.90967 0.64632 0.27793 0.0
H435 H 0.88385 0.74043 0.36136 0.0
H436 H 0.87222 0.72738 0.49439 0.0
H437 H 0.85777 0.64891 0.41311 0.0
C438 C 0.88542 0.67789 0.11701 0.0
C439 C 0.89563 0.69909 0.07492 0.0
C440 C 0.89974 0.72303 0.11346 0.0
C441 C 0.89362 0.72599 0.19233 0.0
C442 C 0.88362 0.70474 0.23231 0.0
C443 C 0.87984 0.68105 0.19632 0.0
C444 C 0.87042 0.6609 0.25401 0.0
C445 C 0.84344 0.65064 0.23125 0.0
C446 C 0.8902 0.63868 0.26174 0.0
C447 C 0.86922 0.67705 0.32769 0.0
C448 C 0.87673 0.70232 0.31369 0.0
C449 C 0.87784 0.7207 0.37296 0.0
C450 C 0.87133 0.71302 0.44866 0.0
C451 C 0.86399 0.68707 0.46512 0.0
C452 C 0.86278 0.669 0.40307 0.0
H453 H 0.27905 0.90325 0.36367 0.0
H454 H 0.35714 0.88438 0.28705 0.0
H455 H 0.36865 0.87141 0.41978 0.0
H456 H 0.29973 0.92957 0.55441 0.0
H457 H 0.27181 0.91705 0.60503 0.0
H458 H 0.26923 0.92605 0.50417 0.0
H459 H 0.25243 0.8802 0.46973 0.0
H460 H 0.25469 0.87088 0.57024 0.0
H461 H 0.27131 0.8522 0.49703 0.0
H462 H 0.37114 0.85713 0.55625 0.0
H463 H 0.36575 0.84587 0.69379 0.0
H464 H 0.28687 0.8755 0.68842 0.0
C465 C 0.29869 0.89686 0.37503 0.0
C466 C 0.31703 0.89444 0.31401 0.0
C467 C 0.3425 0.88581 0.33185 0.0
C468 C 0.34933 0.87855 0.40738 0.0
C469 C 0.33066 0.88039 0.46539 0.0
C470 C 0.306 0.88973 0.45083 0.0
C471 C 0.28973 0.88944 0.52454 0.0
C472 C 0.28217 0.91717 0.54846 0.0
C473 C 0.26561 0.87214 0.51476 0.0
C474 C 0.30891 0.87771 0.58177 0.0
C475 C 0.33238 0.87273 0.54599 0.0
C476 C 0.35292 0.86109 0.58516 0.0
C477 C 0.34954 0.85447 0.66324 0.0
C478 C 0.32579 0.8595 0.702 0.0
C479 C 0.30525 0.87146 0.66051 0.0
H480 H 0.07778 0.71056 0.84782 0.0
H481 H 0.1143 0.64006 0.93408 0.0
H482 H 0.12816 0.6294 0.80209 0.0
H483 H 0.05461 0.68151 0.66504 0.0
H484 H 0.06015 0.71091 0.61106 0.0
H485 H 0.0518 0.71257 0.71247 0.0
H486 H 0.09326 0.73972 0.73888 0.0
H487 H 0.10181 0.73797 0.63774 0.0
H488 H 0.12447 0.72703 0.71053 0.0
H489 H 0.14193 0.6283 0.66297 0.0
H490 H 0.15057 0.63483 0.52317 0.0
H491 H 0.10302 0.70422 0.52576 0.0
C492 C 0.08837 0.69269 0.83977 0.0
C493 C 0.09537 0.67665 0.90328 0.0
C494 C 0.10915 0.65331 0.88805 0.0
C495 C 0.11703 0.64686 0.81268 0.0
C496 C 0.11053 0.66356 0.7524 0.0
C497 C 0.09607 0.68572 0.76473 0.0
C498 C 0.09188 0.70049 0.68971 0.0
C499 C 0.06289 0.70141 0.66834 0.0
C500 C 0.10356 0.72792 0.69455 0.0
C501 C 0.10692 0.68351 0.63383 0.0
C502 C 0.11755 0.66232 0.67124 0.0
C503 C 0.13343 0.64462 0.63275 0.0
C504 C 0.13842 0.6486 0.55369 0.0
C505 C 0.12742 0.66998 0.51401 0.0
C506 C 0.11137 0.68754 0.55468 0.0
H507 H 0.3065 0.08696 0.15961 0.0
H508 H 0.30787 0.16522 0.25157 0.0
H509 H 0.31115 0.1827 0.11834 0.0
H510 H 0.35344 0.09828 0.01885 0.0
H511 H 0.34003 0.07853 0.943 0.0
H512 H 0.33403 0.07032 0.04297 0.0
H513 H 0.28487 0.07166 0.02592 0.0
H514 H 0.28826 0.07903 0.92425 0.0
H515 H 0.26946 0.10004 0.98564 0.0
H516 H 0.31662 0.19137 0.97625 0.0
H517 H 0.32418 0.19073 0.83464 0.0
H518 H 0.31958 0.10677 0.83525 0.0
C519 C 0.30697 0.10777 0.1513 0.0
C520 C 0.3069 0.12478 0.21536 0.0
C521 C 0.30817 0.15191 0.20296 0.0
C522 C 0.30984 0.16199 0.12764 0.0
C523 C 0.31027 0.14464 0.06562 0.0
C524 C 0.30888 0.11813 0.07661 0.0
C525 C 0.3116 0.10365 1.0007 0.0
C526 C 0.33618 0.08667 0.00144 0.0
C527 C 0.2871 0.08763 0.98315 0.0
C528 C 0.31438 0.12615 0.94503 0.0
C529 C 0.31364 0.14963 0.98371 0.0
C530 C 0.31704 0.17312 0.94521 0.0
C531 C 0.32147 0.17256 0.865 0.0
C532 C 0.32237 0.1487 0.82426 0.0
C533 C 0.31852 0.12526 0.86486 0.0
H534 H 0.91738 0.28934 0.39694 0.0
H535 H 0.87643 0.35773 0.47918 0.0
H536 H 0.86063 0.36601 0.34685 0.0
H537 H 0.93722 0.31786 0.21192 0.0
H538 H 0.93339 0.28808 0.1582 0.0
H539 H 0.94209 0.28714 0.25955 0.0
H540 H 0.90253 0.25789 0.28907 0.0
H541 H 0.89363 0.25835 0.18795 0.0
H542 H 0.87051 0.26836 0.26055 0.0
H543 H 0.84749 0.36599 0.20833 0.0
H544 H 0.83989 0.35924 0.06882 0.0
H545 H 0.89026 0.29172 0.07314 0.0
C546 C 0.90541 0.30627 0.38718 0.0
C547 C 0.89789 0.32266 0.44929 0.0
C548 C 0.88201 0.3445 0.43338 0.0
C549 C 0.87306 0.34951 0.35815 0.0
C550 C 0.88039 0.33271 0.29888 0.0
C551 C 0.89645 0.31171 0.31206 0.0
C552 C 0.90129 0.29673 0.23755 0.0
C553 C 0.93021 0.2975 0.21549 0.0
C554 C 0.89139 0.26867 0.24422 0.0
C555 C 0.885 0.31235 0.181 0.0
C556 C 0.87316 0.33301 0.21784 0.0
C557 C 0.8567 0.34993 0.17867 0.0
C558 C 0.85229 0.34575 0.09948 0.0
C559 C 0.86429 0.32481 0.05998 0.0
C560 C 0.88092 0.30796 0.10159 0.0
H561 H 0.69568 0.89329 0.30692 0.0
H562 H 0.68198 0.81023 0.31212 0.0
H563 H 0.68797 0.81024 0.45392 0.0
H564 H 0.7456 0.89356 0.47181 0.0
H565 H 0.73372 0.9252 0.49867 0.0
H566 H 0.73283 0.91469 0.39876 0.0
H567 H 0.68089 0.92536 0.40553 0.0
H568 H 0.68536 0.93396 0.50591 0.0
H569 H 0.66239 0.90912 0.47906 0.0
H570 H 0.69198 0.81972 0.59577 0.0
H571 H 0.69414 0.83811 0.72778 0.0
H572 H 0.70548 0.91493 0.63106 0.0
C573 C 0.69456 0.87501 0.33756 0.0
C574 C 0.68815 0.8518 0.29821 0.0
C575 C 0.68641 0.82835 0.34091 0.0
C576 C 0.69003 0.8281 0.42149 0.0
C577 C 0.6957 0.8514 0.45862 0.0
C578 C 0.69824 0.87437 0.41812 0.0
C579 C 0.70314 0.89691 0.4727 0.0
C580 C 0.73038 0.90833 0.45971 0.0
C581 C 0.68172 0.91758 0.46538 0.0
C582 C 0.70176 0.88323 0.55011 0.0
C583 C 0.69789 0.8569 0.54068 0.0
C584 C 0.69514 0.8403 0.60382 0.0
C585 C 0.69613 0.85098 0.67855 0.0
C586 C 0.69967 0.87802 0.68946 0.0
C587 C 0.70294 0.89421 0.62427 0.0
H588 H 0.03251 0.34379 0.16312 0.0
H589 H 0.05173 0.26236 0.18552 0.0
H590 H 0.0222 0.25214 0.07495 0.0
H591 H 0.96564 0.33747 0.1076 0.0
H592 H 0.9672 0.36377 0.03897 0.0
H593 H 0.98828 0.36369 0.12248 0.0
H594 H 0.02836 0.36774 0.03177 0.0
H595 H 0.00731 0.3677 0.94824 0.0
H596 H 0.03309 0.34417 0.95573 0.0
H597 H 0.98756 0.25157 0.965 0.0
H598 H 0.957 0.26122 0.8565 0.0
H599 H 0.96631 0.34344 0.89983 0.0
C600 C 0.03028 0.32375 0.14522 0.0
C601 C 0.04382 0.30372 0.18342 0.0
C602 C 0.04118 0.27786 0.15714 0.0
C603 C 0.02444 0.27195 0.09472 0.0
C604 C 0.01116 0.29227 0.05842 0.0
C605 C 0.01441 0.3177 0.08209 0.0
C606 C 0.99962 0.33636 0.03098 0.0
C607 C 0.97897 0.35119 0.07783 0.0
C608 C 0.01821 0.35508 0.9892 0.0
C609 C 0.98725 0.31755 0.97488 0.0
C610 C 0.99356 0.29212 0.99216 0.0
C611 C 0.98289 0.27144 0.95033 0.0
C612 C 0.96558 0.27702 0.88909 0.0
C613 C 0.95983 0.30302 0.8694 0.0
C614 C 0.97085 0.32339 0.91285 0.0
H615 H 0.688 0.93695 0.18342 0.0
H616 H 0.7053 0.98271 0.97901 0.0
H617 H 0.71413 0.02095 0.06214 0.0
H618 H 0.65277 0.98577 0.28009 0.0
H619 H 0.66395 0.97669 0.3755 0.0
H620 H 0.66241 0.9528 0.29938 0.0
H621 H 0.71221 0.94288 0.31752 0.0
H622 H 0.71213 0.96591 0.39689 0.0
H623 H 0.7349 0.96937 0.31812 0.0
H624 H 0.72005 0.05423 0.16804 0.0
H625 H 0.71696 0.08165 0.28442 0.0
H626 H 0.69131 0.0153 0.41874 0.0
C627 C 0.69426 0.95488 0.15654 0.0
C628 C 0.69651 0.95688 0.07518 0.0
C629 C 0.7038 0.98083 0.04149 0.0
C630 C 0.70893 0.00257 0.0882 0.0
C631 C 0.70625 1.00009 0.1684 0.0
C632 C 0.69874 0.97697 0.20215 0.0
C633 C 0.69488 0.9801 0.28878 0.0
C634 C 0.66684 0.97345 0.31231 0.0
C635 C 0.71472 0.96361 0.33321 0.0
C636 C 0.70056 0.00873 0.29836 0.0
C637 C 0.70784 0.01972 0.22858 0.0
C638 C 0.71419 0.04588 0.22283 0.0
C639 C 0.71227 0.06137 0.28953 0.0
C640 C 0.70332 0.05093 0.36077 0.0
C641 C 0.69804 0.02403 0.36527 0.0
H642 H 0.00276 0.68281 0.26205 0.0
H643 H 0.06357 0.72475 0.38336 0.0
H644 H 0.03508 0.72862 0.49835 0.0
H645 H 0.94596 0.71667 0.35084 0.0
H646 H 0.92788 0.68678 0.355 0.0
H647 H 0.95103 0.69192 0.2783 0.0
H648 H 0.97393 0.64901 0.3167 0.0
H649 H 0.95092 0.64415 0.39363 0.0
H650 H 0.98519 0.64471 0.41502 0.0
H651 H 0.00131 0.72295 0.60645 0.0
H652 H 0.96581 0.70839 0.69417 0.0
H653 H 0.92907 0.66903 0.50052 0.0
C654 C 0.00989 0.69354 0.31176 0.0
C655 C 0.03538 0.70358 0.3134 0.0
C656 C 0.04406 0.71696 0.38056 0.0
C657 C 0.02801 0.71924 0.44623 0.0
C658 C 0.00333 0.70811 0.44374 0.0
C659 C 0.99429 0.69572 0.37771 0.0
C660 C 0.96827 0.68302 0.39162 0.0
C661 C 0.94705 0.69538 0.34087 0.0
C662 C 0.96969 0.65348 0.37851 0.0
C663 C 0.96436 0.68951 0.47632 0.0
C664 C 0.98447 0.70435 0.50554 0.0
C665 C 0.98532 0.71161 0.58379 0.0
C666 C 0.96517 0.70327 0.6332 0.0
C667 C 0.94494 0.68744 0.60415 0.0
C668 C 0.94446 0.68092 0.52458 0.0
H669 H 0.29812 0.98758 0.94265 0.0
H670 H 0.31966 0.9201 0.80724 0.0
H671 H 0.31678 0.94535 0.68779 0.0
H672 H 0.25582 0.01973 0.79945 0.0
H673 H 0.26857 0.0517 0.81774 0.0
H674 H 0.268 0.02794 0.89454 0.0
H675 H 0.31692 0.03383 0.91577 0.0
H676 H 0.31895 0.05709 0.83781 0.0
H677 H 0.33913 0.02864 0.83638 0.0
H678 H 0.31482 0.97781 0.58372 0.0
H679 H 0.31874 0.01669 0.50215 0.0
H680 H 0.30238 0.06538 0.70206 0.0
C681 C 0.30157 0.97804 0.88758 0.0
C682 C 0.30718 0.95117 0.88414 0.0
C683 C 0.31294 0.93981 0.81125 0.0
C684 C 0.31186 0.95425 0.74277 0.0
C685 C 0.30568 0.98042 0.74777 0.0
C686 C 0.30107 0.99243 0.81819 0.0
C687 C 0.29827 0.02154 0.8074 0.0
C688 C 0.27104 0.03077 0.83123 0.0
C689 C 0.31958 0.03612 0.85212 0.0
C690 C 0.30222 0.02391 0.72032 0.0
C691 C 0.30612 0.99981 0.68727 0.0
C692 C 0.31162 0.9968 0.60874 0.0
C693 C 0.31386 0.01906 0.5629 0.0
C694 C 0.31082 0.0441 0.5956 0.0
C695 C 0.30438 0.0465 0.67515 0.0
H696 H 0.10093 0.44314 0.16169 0.0
H697 H 0.08465 0.43212 0.40648 0.0
H698 H 0.07726 0.47913 0.42151 0.0
H699 H 0.1364 0.50115 0.18361 0.0
H700 H 0.12434 0.51647 0.09674 0.0
H701 H 0.12585 0.48164 0.10255 0.0
H702 H 0.07678 0.47865 0.07059 0.0
H703 H 0.07514 0.51351 0.06419 0.0
H704 H 0.05379 0.49633 0.12915 0.0
H705 H 0.07498 0.52702 0.41319 0.0
H706 H 0.07766 0.57346 0.38219 0.0
H707 H 0.09479 0.55446 0.14179 0.0
C708 C 0.09528 0.45065 0.21792 0.0
C709 C 0.0933 0.43409 0.283 0.0
C710 C 0.08637 0.44457 0.3561 0.0
C711 C 0.08204 0.47119 0.36512 0.0
C712 C 0.08468 0.48712 0.30042 0.0
C713 C 0.09105 0.47734 0.22812 0.0
C714 C 0.09411 0.49907 0.16941 0.0
C715 C 0.12182 0.4996 0.13615 0.0
C716 C 0.07374 0.49674 0.1045 0.0
C717 C 0.08895 0.52251 0.22048 0.0
C718 C 0.08333 0.51508 0.29561 0.0
C719 C 0.07892 0.53312 0.35426 0.0
C720 C 0.08031 0.55952 0.33583 0.0
C721 C 0.08606 0.56778 0.25922 0.0
C722 C 0.09032 0.54887 0.20086 0.0
H723 H 0.56077 0.13506 0.4828 0.0
H724 H 0.57608 0.05249 0.46896 0.0
H725 H 0.52877 0.0437 0.47456 0.0
H726 H 0.50773 0.13214 0.61514 0.0
H727 H 0.48965 0.15776 0.56879 0.0
H728 H 0.52455 0.15734 0.56296 0.0
H729 H 0.52189 0.15858 0.41272 0.0
H730 H 0.48696 0.15909 0.41808 0.0
H731 H 0.50313 0.13431 0.36223 0.0
H732 H 0.47969 0.04419 0.48918 0.0
H733 H 0.43272 0.05401 0.50029 0.0
H734 H 0.44995 0.13632 0.49836 0.0
C735 C 0.55413 0.11513 0.48102 0.0
C736 C 0.57197 0.0944 0.47606 0.0
C737 C 0.56263 0.0686 0.47259 0.0
C738 C 0.53586 0.06346 0.47605 0.0
C739 C 0.51876 0.08437 0.48183 0.0
C740 C 0.52754 0.1097 0.48327 0.0
C741 C 0.50525 0.12875 0.48835 0.0
C742 C 0.5069 0.14494 0.56327 0.0
C743 C 0.50425 0.14621 0.41603 0.0
C744 C 0.48249 0.11021 0.49044 0.0
C745 C 0.49065 0.08468 0.48721 0.0
C746 C 0.47309 0.06412 0.491 0.0
C747 C 0.44652 0.06984 0.49764 0.0
C748 C 0.4378 0.09588 0.49948 0.0
C749 C 0.45609 0.11624 0.49587 0.0
H750 H 0.91463 0.55658 0.72199 0.0
H751 H 0.88867 0.5691 0.95821 0.0
H752 H 0.89084 0.5218 0.98288 0.0
H753 H 0.87681 0.50056 0.68984 0.0
H754 H 0.9005 0.4842 0.63042 0.0
H755 H 0.89988 0.51909 0.63406 0.0
H756 H 0.94821 0.51968 0.67608 0.0
H757 H 0.94901 0.48474 0.67234 0.0
H758 H 0.95822 0.50142 0.76018 0.0
H759 H 0.89385 0.47327 0.97972 0.0
H760 H 0.89487 0.42662 0.94732 0.0
H761 H 0.91702 0.44538 0.71094 0.0
C762 C 0.90996 0.54928 0.77926 0.0
C763 C 0.90187 0.56626 0.83876 0.0
C764 C 0.89513 0.55622 0.91239 0.0
C765 C 0.89636 0.52948 0.92684 0.0
C766 C 0.90412 0.51311 0.86668 0.0
C767 C 0.91067 0.52259 0.7942 0.0
C768 C 0.91629 0.5007 0.73787 0.0
C769 C 0.89723 0.50117 0.669 0.0
C770 C 0.94462 0.5017 0.70999 0.0
C771 C 0.91159 0.47744 0.7897 0.0
C772 C 0.90497 0.48505 0.86406 0.0
C773 C 0.89921 0.46707 0.92187 0.0
C774 C 0.89997 0.44062 0.90302 0.0
C775 C 0.90618 0.43238 0.82676 0.0
C776 C 0.91221 0.45111 0.76968 0.0
H777 H 0.55626 0.92105 0.00464 0.0
H778 H 0.57167 0.8382 0.00228 0.0
H779 H 0.52489 0.82933 0.00572 0.0
H780 H 0.50061 0.91712 0.13788 0.0
H781 H 0.48266 0.94242 0.08952 0.0
H782 H 0.51765 0.94273 0.08811 0.0
H783 H 0.51682 0.94431 0.93784 0.0
H784 H 0.48184 0.94376 0.93877 0.0
H785 H 0.49953 0.91957 0.88479 0.0
H786 H 0.47749 0.82872 1.00088 0.0
H787 H 0.43052 0.83624 1.00076 0.0
H788 H 0.44368 0.91941 0.01481 0.0
C789 C 0.54971 0.9011 0.00563 0.0
C790 C 0.56765 0.88032 0.00144 0.0
C791 C 0.55833 0.85444 0.00319 0.0
C792 C 0.53178 0.84917 0.00561 0.0
C793 C 0.51462 0.86994 0.00735 0.0
C794 C 0.52301 0.89539 0.00851 0.0
C795 C 0.50001 0.91388 0.01094 0.0
C796 C 0.50025 0.92999 0.0861 0.0
C797 C 0.49953 0.93141 0.93878 0.0
C798 C 0.47755 0.89473 0.0101 0.0
C799 C 0.48664 0.86954 0.0077 0.0
C800 C 0.47005 0.84832 0.00425 0.0
C801 C 0.44333 0.85284 0.00476 0.0
C802 C 0.43325 0.8784 0.00978 0.0
C803 C 0.45071 0.89966 0.01137 0.0
loop_
_geom_bond_atom_site_label_1
_geom_bond_atom_site_label_2
_geom_bond_distance
_geom_bond_site_symmetry_2
_ccdc_geom_bond_type
C0 C1 1.351 1_554 S
C0 N3 1.368 . S
C0 H5 0.931 . S
C1 C0 1.351 1_556 S
C1 N2 1.373 . S
C1 H29 0.930 . S
N2 C1 1.373 . S
N2 C4 1.340 1_556 S
N3 C0 1.368 . S
N3 C4 1.321 . S
N3 Co6 2.135 . S
C4 N2 1.340 1_554 S
C4 N3 1.321 . S
C4 H28 0.930 . S
H5 C0 0.931 . S
Co6 N3 2.135 . S
Co6 N9 2.121 . S
Co6 O14 2.055 . S
Co6 O17 2.039 . S
Co6 N20 2.140 . S
C7 O8 1.227 . S
C7 O17 1.265 . S
O8 C7 1.227 . S
N9 Co6 2.121 . S
N9 C11 1.375 . S
N9 C12 1.313 . S
C10 C11 1.338 . S
C10 N13 1.377 . S
C10 H30 0.930 . S
C11 N9 1.375 . S
C11 C10 1.338 . S
C11 H15 0.931 . S
C12 N9 1.313 . S
C12 N13 1.344 . S
C12 H16 0.930 . S
N13 C10 1.377 . S
N13 C12 1.344 . S
O14 Co6 2.055 . S
O14 C18 1.253 . S
H15 C11 0.931 . S
H16 C12 0.930 . S
O17 Co6 2.039 . S
O17 C7 1.265 . S
C18 O14 1.253 . S
C18 O19 1.227 . S
O19 C18 1.227 . S
N20 Co6 2.140 . S
N20 C23 1.346 . S
N20 C24 1.345 . S
C21 C22 1.387 . S
C21 C25 1.391 . S
C22 C21 1.387 . S
C22 C23 1.369 . S
C22 H31 0.929 . S
C23 N20 1.346 . S
C23 C22 1.369 . S
C23 H26 0.928 . S
C24 N20 1.345 . S
C24 C25 1.371 . S
C24 H27 0.931 . S
C25 C21 1.391 . S
C25 C24 1.371 . S
C25 H32 0.930 . S
H26 C23 0.928 . S
H27 C24 0.931 . S
H28 C4 0.930 . S
H29 C1 0.930 . S
H30 C10 0.930 . S
H31 C22 0.929 . S
H32 C25 0.930 . S
C33 C34 1.351 . S
C33 N36 1.368 . S
C33 H38 0.931 . S
C34 C33 1.351 . S
C34 N35 1.373 . S
C34 H62 0.930 . S
N35 C34 1.373 . S
N35 C37 1.340 . S
N36 C33 1.368 . S
N36 C37 1.321 . S
N36 Co39 2.135 . S
C37 N35 1.340 . S
C37 N36 1.321 . S
C37 H61 0.930 . S
H38 C33 0.931 . S
Co39 N36 2.135 . S
Co39 N42 2.121 . S
Co39 O47 2.055 . S
Co39 O50 2.039 . S
Co39 N53 2.140 . S
C40 O41 1.227 . S
C40 O50 1.265 . S
O41 C40 1.227 . S
N42 Co39 2.121 . S
N42 C44 1.375 . S
N42 C45 1.313 . S
C43 C44 1.338 . S
C43 N46 1.377 . S
C43 H63 0.930 . S
C44 N42 1.375 . S
C44 C43 1.338 . S
C44 H48 0.931 . S
C45 N42 1.313 . S
C45 N46 1.344 . S
C45 H49 0.930 . S
N46 C43 1.377 . S
N46 C45 1.344 . S
O47 Co39 2.055 . S
O47 C51 1.253 . S
H48 C44 0.931 . S
H49 C45 0.930 . S
O50 Co39 2.039 . S
O50 C40 1.265 . S
C51 O47 1.253 . S
C51 O52 1.227 . S
O52 C51 1.227 . S
N53 Co39 2.140 . S
N53 C56 1.346 . S
N53 C57 1.345 . S
C54 C55 1.387 . S
C54 C58 1.391 . S
C55 C54 1.387 . S
C55 C56 1.369 . S
C55 H64 0.929 . S
C56 N53 1.346 . S
C56 C55 1.369 . S
C56 H59 0.928 . S
C57 N53 1.345 . S
C57 C58 1.371 . S
C57 H60 0.931 . S
C58 C54 1.391 . S
C58 C57 1.371 . S
C58 H65 0.930 . S
H59 C56 0.928 . S
H60 C57 0.931 . S
H61 C37 0.930 . S
H62 C34 0.930 . S
H63 C43 0.930 . S
H64 C55 0.929 . S
H65 C58 0.930 . S
C66 C67 1.351 . S
C66 N69 1.368 . S
C66 H71 0.931 . S
C67 C66 1.351 . S
C67 N68 1.373 . S
C67 H95 0.930 . S
N68 C67 1.373 . S
N68 C70 1.340 . S
N69 C66 1.368 . S
N69 C70 1.321 . S
N69 Co72 2.135 . S
C70 N68 1.340 . S
C70 N69 1.321 . S
C70 H94 0.930 . S
H71 C66 0.931 . S
Co72 N69 2.135 . S
Co72 N75 2.121 . S
Co72 O80 2.055 . S
Co72 O83 2.039 . S
Co72 N86 2.140 . S
C73 O74 1.227 . S
C73 O83 1.265 . S
O74 C73 1.227 . S
N75 Co72 2.121 . S
N75 C77 1.375 . S
N75 C78 1.313 . S
C76 C77 1.338 . S
C76 N79 1.377 . S
C76 H96 0.930 . S
C77 N75 1.375 . S
C77 C76 1.338 . S
C77 H81 0.931 . S
C78 N75 1.313 . S
C78 N79 1.344 . S
C78 H82 0.930 . S
N79 C76 1.377 . S
N79 C78 1.344 . S
O80 Co72 2.055 . S
O80 C84 1.253 . S
H81 C77 0.931 . S
H82 C78 0.930 . S
O83 Co72 2.039 . S
O83 C73 1.265 . S
C84 O80 1.253 . S
C84 O85 1.227 . S
O85 C84 1.227 . S
N86 Co72 2.140 . S
N86 C89 1.346 . S
N86 C90 1.345 . S
C87 C88 1.387 . S
C87 C91 1.391 . S
C88 C87 1.387 . S
C88 C89 1.369 . S
C88 H97 0.929 . S
C89 N86 1.346 . S
C89 C88 1.369 . S
C89 H92 0.928 . S
C90 N86 1.345 . S
C90 C91 1.371 . S
C90 H93 0.931 . S
C91 C87 1.391 . S
C91 C90 1.371 . S
C91 H98 0.930 . S
H92 C89 0.928 . S
H93 C90 0.931 . S
H94 C70 0.930 . S
H95 C67 0.930 . S
H96 C76 0.930 . S
H97 C88 0.929 . S
H98 C91 0.930 . S
C99 C100 1.351 . S
C99 N102 1.368 . S
C99 H104 0.931 . S
C100 C99 1.351 . S
C100 N101 1.373 . S
C100 H128 0.930 . S
N101 C100 1.373 . S
N101 C103 1.340 . S
N102 C99 1.368 . S
N102 C103 1.321 . S
N102 Co105 2.135 . S
C103 N101 1.340 . S
C103 N102 1.321 . S
C103 H127 0.930 . S
H104 C99 0.931 . S
Co105 N102 2.135 . S
Co105 N108 2.121 1_556 S
Co105 O113 2.055 . S
Co105 O116 2.039 . S
Co105 N119 2.140 . S
C106 O107 1.227 . S
C106 O116 1.265 . S
O107 C106 1.227 . S
N108 Co105 2.121 1_554 S
N108 C110 1.375 . S
N108 C111 1.313 . S
C109 C110 1.338 . S
C109 N112 1.377 . S
C109 H129 0.930 . S
C110 N108 1.375 . S
C110 C109 1.338 . S
C110 H114 0.931 . S
C111 N108 1.313 . S
C111 N112 1.344 . S
C111 H115 0.930 . S
N112 C109 1.377 . S
N112 C111 1.344 . S
O113 Co105 2.055 . S
O113 C117 1.253 . S
H114 C110 0.931 . S
H115 C111 0.930 . S
O116 Co105 2.039 . S
O116 C106 1.265 . S
C117 O113 1.253 . S
C117 O118 1.227 1_556 S
O118 C117 1.227 1_554 S
N119 Co105 2.140 . S
N119 C122 1.346 . S
N119 C123 1.345 1_556 S
C120 C121 1.387 . S
C120 C124 1.391 1_556 S
C121 C120 1.387 . S
C121 C122 1.369 . S
C121 H130 0.929 . S
C122 N119 1.346 . S
C122 C121 1.369 . S
C122 H125 0.928 . S
C123 N119 1.345 1_554 S
C123 C124 1.371 . S
C123 H126 0.931 . S
C124 C120 1.391 1_554 S
C124 C123 1.371 . S
C124 H131 0.930 . S
H125 C122 0.928 . S
H126 C123 0.931 . S
H127 C103 0.930 . S
H128 C100 0.930 . S
H129 C109 0.930 . S
H130 C121 0.929 . S
H131 C124 0.930 . S
C132 C133 1.351 . S
C132 N135 1.368 . S
C132 H137 0.931 . S
C133 C132 1.351 . S
C133 N134 1.373 . S
C133 H161 0.930 . S
N134 C133 1.373 . S
N134 C136 1.340 . S
N135 C132 1.368 . S
N135 C136 1.321 . S
N135 Co138 2.135 . S
C136 N134 1.340 . S
C136 N135 1.321 . S
C136 H160 0.930 . S
H137 C132 0.931 . S
Co138 N135 2.135 . S
Co138 N141 2.121 . S
Co138 O146 2.055 . S
Co138 O149 2.039 . S
Co138 N152 2.140 . S
C139 O140 1.227 . S
C139 O149 1.265 . S
O140 C139 1.227 . S
N141 Co138 2.121 . S
N141 C143 1.375 . S
N141 C144 1.313 . S
C142 C143 1.338 . S
C142 N145 1.377 . S
C142 H162 0.930 . S
C143 N141 1.375 . S
C143 C142 1.338 . S
C143 H147 0.931 . S
C144 N141 1.313 . S
C144 N145 1.344 . S
C144 H148 0.930 . S
N145 C142 1.377 . S
N145 C144 1.344 . S
O146 Co138 2.055 . S
O146 C150 1.253 . S
H147 C143 0.931 . S
H148 C144 0.930 . S
O149 Co138 2.039 . S
O149 C139 1.265 . S
C150 O146 1.253 . S
C150 O151 1.227 . S
O151 C150 1.227 . S
N152 Co138 2.140 . S
N152 C155 1.346 . S
N152 C156 1.345 . S
C153 C154 1.387 . S
C153 C157 1.391 . S
C154 C153 1.387 . S
C154 C155 1.369 . S
C154 H163 0.929 . S
C155 N152 1.346 . S
C155 C154 1.369 . S
C155 H158 0.928 . S
C156 N152 1.345 . S
C156 C157 1.371 . S
C156 H159 0.931 . S
C157 C153 1.391 . S
C157 C156 1.371 . S
C157 H164 0.930 . S
H158 C155 0.928 . S
H159 C156 0.931 . S
H160 C136 0.930 . S
H161 C133 0.930 . S
H162 C142 0.930 . S
H163 C154 0.929 . S
H164 C157 0.930 . S
C165 C166 1.351 . S
C165 N168 1.368 . S
C165 H170 0.931 . S
C166 C165 1.351 . S
C166 N167 1.373 . S
C166 H194 0.930 . S
N167 C166 1.373 . S
N167 C169 1.340 . S
N168 C165 1.368 . S
N168 C169 1.321 . S
N168 Co171 2.135 . S
C169 N167 1.340 . S
C169 N168 1.321 . S
C169 H193 0.930 . S
H170 C165 0.931 . S
Co171 N168 2.135 . S
Co171 N174 2.121 . S
Co171 O179 2.055 . S
Co171 O182 2.039 . S
Co171 N185 2.140 . S
C172 O173 1.227 . S
C172 O182 1.265 . S
O173 C172 1.227 . S
N174 Co171 2.121 . S
N174 C176 1.375 . S
N174 C177 1.313 . S
C175 C176 1.338 . S
C175 N178 1.377 . S
C175 H195 0.930 . S
C176 N174 1.375 . S
C176 C175 1.338 . S
C176 H180 0.931 . S
C177 N174 1.313 . S
C177 N178 1.344 . S
C177 H181 0.930 . S
N178 C175 1.377 . S
N178 C177 1.344 . S
O179 Co171 2.055 . S
O179 C183 1.253 . S
H180 C176 0.931 . S
H181 C177 0.930 . S
O182 Co171 2.039 . S
O182 C172 1.265 . S
C183 O179 1.253 . S
C183 O184 1.227 . S
O184 C183 1.227 . S
N185 Co171 2.140 . S
N185 C188 1.346 . S
N185 C189 1.345 . S
C186 C187 1.387 . S
C186 C190 1.391 . S
C187 C186 1.387 . S
C187 C188 1.369 . S
C187 H196 0.929 . S
C188 N185 1.346 . S
C188 C187 1.369 . S
C188 H191 0.928 . S
C189 N185 1.345 . S
C189 C190 1.371 . S
C189 H192 0.931 . S
C190 C186 1.391 . S
C190 C189 1.371 . S
C190 H197 0.930 . S
H191 C188 0.928 . S
H192 C189 0.931 . S
H193 C169 0.930 . S
H194 C166 0.930 . S
H195 C175 0.930 . S
H196 C187 0.929 . S
H197 C190 0.930 . S
C198 C199 1.351 1_556 S
C198 N201 1.368 . S
C198 H203 0.931 . S
C199 C198 1.351 1_554 S
C199 N200 1.373 . S
C199 H227 0.930 . S
N200 C199 1.373 . S
N200 C202 1.340 1_554 S
N201 C198 1.368 . S
N201 C202 1.321 . S
N201 Co204 2.135 . S
C202 N200 1.340 1_556 S
C202 N201 1.321 . S
C202 H226 0.930 . S
H203 C198 0.931 . S
Co204 N201 2.135 . S
Co204 N207 2.121 . S
Co204 O212 2.055 . S
Co204 O215 2.039 . S
Co204 N218 2.140 . S
C205 O206 1.227 . S
C205 O215 1.265 . S
O206 C205 1.227 . S
N207 Co204 2.121 . S
N207 C209 1.375 . S
N207 C210 1.313 . S
C208 C209 1.338 . S
C208 N211 1.377 . S
C208 H228 0.930 . S
C209 N207 1.375 . S
C209 C208 1.338 . S
C209 H213 0.931 . S
C210 N207 1.313 . S
C210 N211 1.344 . S
C210 H214 0.930 . S
N211 C208 1.377 . S
N211 C210 1.344 . S
O212 Co204 2.055 . S
O212 C216 1.253 . S
H213 C209 0.931 . S
H214 C210 0.930 . S
O215 Co204 2.039 . S
O215 C205 1.265 . S
C216 O212 1.253 . S
C216 O217 1.227 . S
O217 C216 1.227 . S
N218 Co204 2.140 . S
N218 C221 1.346 . S
N218 C222 1.345 . S
C219 C220 1.387 . S
C219 C223 1.391 . S
C220 C219 1.387 . S
C220 C221 1.369 . S
C220 H229 0.929 . S
C221 N218 1.346 . S
C221 C220 1.369 . S
C221 H224 0.928 . S
C222 N218 1.345 . S
C222 C223 1.371 . S
C222 H225 0.931 . S
C223 C219 1.391 . S
C223 C222 1.371 . S
C223 H230 0.930 . S
H224 C221 0.928 . S
H225 C222 0.931 . S
H226 C202 0.930 . S
H227 C199 0.930 . S
H228 C208 0.930 . S
H229 C220 0.929 . S
H230 C223 0.930 . S
C231 C232 1.351 . S
C231 N234 1.368 . S
C231 H236 0.931 . S
C232 C231 1.351 . S
C232 N233 1.373 . S
C232 H260 0.930 . S
N233 C232 1.373 . S
N233 C235 1.340 . S
N234 C231 1.368 . S
N234 C235 1.321 . S
N234 Co237 2.135 . S
C235 N233 1.340 . S
C235 N234 1.321 . S
C235 H259 0.930 . S
H236 C231 0.931 . S
Co237 N234 2.135 . S
Co237 N240 2.121 1_554 S
Co237 O245 2.055 . S
Co237 O248 2.039 . S
Co237 N251 2.140 . S
C238 O239 1.227 . S
C238 O248 1.265 . S
O239 C238 1.227 . S
N240 Co237 2.121 1_556 S
N240 C242 1.375 . S
N240 C243 1.313 . S
C241 C242 1.338 . S
C241 N244 1.377 . S
C241 H261 0.930 . S
C242 N240 1.375 . S
C242 C241 1.338 . S
C242 H246 0.931 . S
C243 N240 1.313 . S
C243 N244 1.344 . S
C243 H247 0.930 . S
N244 C241 1.377 . S
N244 C243 1.344 . S
O245 Co237 2.055 . S
O245 C249 1.253 . S
H246 C242 0.931 . S
H247 C243 0.930 . S
O248 Co237 2.039 . S
O248 C238 1.265 . S
C249 O245 1.253 . S
C249 O250 1.227 1_554 S
O250 C249 1.227 1_556 S
N251 Co237 2.140 . S
N251 C254 1.346 . S
N251 C255 1.345 1_554 S
C252 C253 1.387 . S
C252 C256 1.391 1_554 S
C253 C252 1.387 . S
C253 C254 1.369 . S
C253 H262 0.929 . S
C254 N251 1.346 . S
C254 C253 1.369 . S
C254 H257 0.928 . S
C255 N251 1.345 1_556 S
C255 C256 1.371 . S
C255 H258 0.931 . S
C256 C252 1.391 1_556 S
C256 C255 1.371 . S
C256 H263 0.930 . S
H257 C254 0.928 . S
H258 C255 0.931 . S
H259 C235 0.930 . S
H260 C232 0.930 . S
H261 C241 0.930 . S
H262 C253 0.929 . S
H263 C256 0.930 . S
H264 C276 0.930 . S
H265 C278 0.930 . S
H266 C279 0.930 . S
H267 C283 0.959 . S
H268 C283 0.959 . S
H269 C283 0.961 . S
H270 C284 0.960 . S
H271 C284 0.961 . S
H272 C284 0.959 . S
H273 C287 0.929 . S
H274 C288 0.931 . S
H275 C290 0.930 . S
C276 H264 0.930 . S
C276 C277 1.399 . S
C276 C281 1.399 . S
C277 C276 1.399 . S
C277 C278 1.376 . S
C278 H265 0.930 . S
C278 C277 1.376 . S
C278 C279 1.388 . S
C279 H266 0.930 . S
C279 C278 1.388 . S
C279 C280 1.390 . S
C280 C279 1.390 . S
C280 C281 1.394 . S
C280 C286 1.465 . S
C281 C276 1.399 . S
C281 C280 1.394 . S
C281 C282 1.516 . S
C282 C281 1.516 . S
C282 C283 1.502 . S
C282 C284 1.561 . S
C282 C285 1.526 . S
C283 H267 0.959 . S
C283 H268 0.959 . S
C283 H269 0.961 . S
C283 C282 1.502 . S
C284 H270 0.960 . S
C284 H271 0.961 . S
C284 H272 0.959 . S
C284 C282 1.561 . S
C285 C282 1.526 . S
C285 C286 1.396 . S
C285 C290 1.390 . S
C286 C280 1.465 . S
C286 C285 1.396 . S
C286 C287 1.399 . S
C287 H273 0.929 . S
C287 C286 1.399 . S
C287 C288 1.385 . S
C288 H274 0.931 . S
C288 C287 1.385 . S
C288 C289 1.389 . S
C289 C288 1.389 . S
C289 C290 1.387 . S
C290 H275 0.930 . S
C290 C285 1.390 . S
C290 C289 1.387 . S
H291 C303 0.930 . S
H292 C305 0.930 . S
H293 C306 0.930 . S
H294 C310 0.959 . S
H295 C310 0.959 . S
H296 C310 0.961 . S
H297 C311 0.960 . S
H298 C311 0.961 . S
H299 C311 0.959 . S
H300 C314 0.929 . S
H301 C315 0.931 . S
H302 C317 0.930 . S
C303 H291 0.930 . S
C303 C304 1.399 . S
C303 C308 1.399 . S
C304 C303 1.399 . S
C304 C305 1.376 . S
C305 H292 0.930 . S
C305 C304 1.376 . S
C305 C306 1.388 . S
C306 H293 0.930 . S
C306 C305 1.388 . S
C306 C307 1.390 . S
C307 C306 1.390 . S
C307 C308 1.394 . S
C307 C313 1.465 . S
C308 C303 1.399 . S
C308 C307 1.394 . S
C308 C309 1.516 . S
C309 C308 1.516 . S
C309 C310 1.502 . S
C309 C311 1.561 . S
C309 C312 1.526 . S
C310 H294 0.959 . S
C310 H295 0.959 . S
C310 H296 0.961 . S
C310 C309 1.502 . S
C311 H297 0.960 . S
C311 H298 0.961 . S
C311 H299 0.959 . S
C311 C309 1.561 . S
C312 C309 1.526 . S
C312 C313 1.396 . S
C312 C317 1.390 . S
C313 C307 1.465 . S
C313 C312 1.396 . S
C313 C314 1.399 . S
C314 H300 0.929 . S
C314 C313 1.399 . S
C314 C315 1.385 . S
C315 H301 0.931 . S
C315 C314 1.385 . S
C315 C316 1.389 . S
C316 C315 1.389 . S
C316 C317 1.387 . S
C317 H302 0.930 . S
C317 C312 1.390 . S
C317 C316 1.387 . S
H318 C330 0.930 . S
H319 C332 0.930 . S
H320 C333 0.930 . S
H321 C337 0.959 . S
H322 C337 0.959 . S
H323 C337 0.961 . S
H324 C338 0.960 . S
H325 C338 0.961 . S
H326 C338 0.959 . S
H327 C341 0.929 . S
H328 C342 0.931 1_554 S
H329 C344 0.930 . S
C330 H318 0.930 . S
C330 C331 1.399 . S
C330 C335 1.399 . S
C331 C330 1.399 . S
C331 C332 1.376 . S
C332 H319 0.930 . S
C332 C331 1.376 . S
C332 C333 1.388 . S
C333 H320 0.930 . S
C333 C332 1.388 . S
C333 C334 1.390 . S
C334 C333 1.390 . S
C334 C335 1.394 . S
C334 C340 1.465 . S
C335 C330 1.399 . S
C335 C334 1.394 . S
C335 C336 1.516 . S
C336 C335 1.516 . S
C336 C337 1.502 . S
C336 C338 1.561 . S
C336 C339 1.526 . S
C337 H321 0.959 . S
C337 H322 0.959 . S
C337 H323 0.961 . S
C337 C336 1.502 . S
C338 H324 0.960 . S
C338 H325 0.961 . S
C338 H326 0.959 . S
C338 C336 1.561 . S
C339 C336 1.526 . S
C339 C340 1.396 . S
C339 C344 1.390 . S
C340 C334 1.465 . S
C340 C339 1.396 . S
C340 C341 1.399 . S
C341 H327 0.929 . S
C341 C340 1.399 . S
C341 C342 1.385 . S
C342 H328 0.931 1_556 S
C342 C341 1.385 . S
C342 C343 1.389 . S
C343 C342 1.389 . S
C343 C344 1.387 . S
C344 H329 0.930 . S
C344 C339 1.390 . S
C344 C343 1.387 . S
H345 C357 0.930 . S
H346 C359 0.930 . S
H347 C360 0.930 . S
H348 C364 0.959 . S
H349 C364 0.959 1_556 S
H350 C364 0.961 . S
H351 C365 0.960 . S
H352 C365 0.961 . S
H353 C365 0.959 . S
H354 C368 0.929 . S
H355 C369 0.931 . S
H356 C371 0.930 1_556 S
C357 H345 0.930 . S
C357 C358 1.399 . S
C357 C362 1.399 . S
C358 C357 1.399 . S
C358 C359 1.376 . S
C359 H346 0.930 . S
C359 C358 1.376 . S
C359 C360 1.388 . S
C360 H347 0.930 . S
C360 C359 1.388 . S
C360 C361 1.390 . S
C361 C360 1.390 . S
C361 C362 1.394 . S
C361 C367 1.465 . S
C362 C357 1.399 . S
C362 C361 1.394 . S
C362 C363 1.516 . S
C363 C362 1.516 . S
C363 C364 1.502 . S
C363 C365 1.561 1_554 S
C363 C366 1.526 . S
C364 H348 0.959 . S
C364 H349 0.959 1_554 S
C364 H350 0.961 . S
C364 C363 1.502 . S
C365 H351 0.960 . S
C365 H352 0.961 . S
C365 H353 0.959 . S
C365 C363 1.561 1_556 S
C366 C363 1.526 . S
C366 C367 1.396 . S
C366 C371 1.390 . S
C367 C361 1.465 . S
C367 C366 1.396 . S
C367 C368 1.399 . S
C368 H354 0.929 . S
C368 C367 1.399 . S
C368 C369 1.385 . S
C369 H355 0.931 . S
C369 C368 1.385 . S
C369 C370 1.389 . S
C370 C369 1.389 . S
C370 C371 1.387 . S
C371 H356 0.930 1_554 S
C371 C366 1.390 . S
C371 C370 1.387 . S
H372 C384 0.930 . S
H373 C386 0.930 . S
H374 C387 0.930 . S
H375 C391 0.959 . S
H376 C391 0.959 . S
H377 C391 0.961 . S
H378 C392 0.960 . S
H379 C392 0.961 . S
H380 C392 0.959 . S
H381 C395 0.929 . S
H382 C396 0.931 . S
H383 C398 0.930 . S
C384 H372 0.930 . S
C384 C385 1.399 . S
C384 C389 1.399 . S
C385 C384 1.399 . S
C385 C386 1.376 . S
C386 H373 0.930 . S
C386 C385 1.376 . S
C386 C387 1.388 . S
C387 H374 0.930 . S
C387 C386 1.388 . S
C387 C388 1.390 . S
C388 C387 1.390 . S
C388 C389 1.394 . S
C388 C394 1.465 . S
C389 C384 1.399 . S
C389 C388 1.394 . S
C389 C390 1.516 . S
C390 C389 1.516 . S
C390 C391 1.502 . S
C390 C392 1.561 . S
C390 C393 1.526 . S
C391 H375 0.959 . S
C391 H376 0.959 . S
C391 H377 0.961 . S
C391 C390 1.502 . S
C392 H378 0.960 . S
C392 H379 0.961 . S
C392 H380 0.959 . S
C392 C390 1.561 . S
C393 C390 1.526 . S
C393 C394 1.396 . S
C393 C398 1.390 . S
C394 C388 1.465 . S
C394 C393 1.396 . S
C394 C395 1.399 . S
C395 H381 0.929 . S
C395 C394 1.399 . S
C395 C396 1.385 . S
C396 H382 0.931 . S
C396 C395 1.385 . S
C396 C397 1.389 . S
C397 C396 1.389 . S
C397 C398 1.387 . S
C398 H383 0.930 . S
C398 C393 1.390 . S
C398 C397 1.387 . S
H399 C411 0.930 . S
H400 C413 0.930 . S
H401 C414 0.930 1_556 S
H402 C418 0.959 . S
H403 C418 0.959 . S
H404 C418 0.961 1_554 S
H405 C419 0.960 1_554 S
H406 C419 0.961 . S
H407 C419 0.959 . S
H408 C422 0.929 . S
H409 C423 0.931 . S
H410 C425 0.930 . S
C411 H399 0.930 . S
C411 C412 1.399 . S
C411 C416 1.399 . S
C412 C411 1.399 . S
C412 C413 1.376 . S
C413 H400 0.930 . S
C413 C412 1.376 . S
C413 C414 1.388 . S
C414 H401 0.930 1_554 S
C414 C413 1.388 . S
C414 C415 1.390 1_554 S
C415 C414 1.390 1_556 S
C415 C416 1.394 1_556 S
C415 C421 1.465 . S
C416 C411 1.399 . S
C416 C415 1.394 1_554 S
C416 C417 1.516 1_554 S
C417 C416 1.516 1_556 S
C417 C418 1.502 . S
C417 C419 1.561 . S
C417 C420 1.526 . S
C418 H402 0.959 . S
C418 H403 0.959 . S
C418 H404 0.961 1_556 S
C418 C417 1.502 . S
C419 H405 0.960 1_556 S
C419 H406 0.961 . S
C419 H407 0.959 . S
C419 C417 1.561 . S
C420 C417 1.526 . S
C420 C421 1.396 . S
C420 C425 1.390 . S
C421 C415 1.465 . S
C421 C420 1.396 . S
C421 C422 1.399 . S
C422 H408 0.929 . S
C422 C421 1.399 . S
C422 C423 1.385 . S
C423 H409 0.931 . S
C423 C422 1.385 . S
C423 C424 1.389 . S
C424 C423 1.389 . S
C424 C425 1.387 . S
C425 H410 0.930 . S
C425 C420 1.390 . S
C425 C424 1.387 . S
H426 C438 0.930 . S
H427 C440 0.930 1_556 S
H428 C441 0.930 . S
H429 C445 0.959 . S
H430 C445 0.959 . S
H431 C445 0.961 . S
H432 C446 0.960 . S
H433 C446 0.961 . S
H434 C446 0.959 . S
H435 C449 0.929 . S
H436 C450 0.931 . S
H437 C452 0.930 . S
C438 H426 0.930 . S
C438 C439 1.405 . S
C438 C443 1.399 . S
C439 C438 1.405 . S
C439 C440 1.380 . S
C440 H427 0.930 1_554 S
C440 C439 1.380 . S
C440 C441 1.388 . S
C441 H428 0.930 . S
C441 C440 1.388 . S
C441 C442 1.390 . S
C442 C441 1.390 . S
C442 C443 1.394 . S
C442 C448 1.465 . S
C443 C438 1.399 . S
C443 C442 1.394 . S
C443 C444 1.516 . S
C444 C443 1.516 . S
C444 C445 1.502 . S
C444 C446 1.561 . S
C444 C447 1.526 . S
C445 H429 0.959 . S
C445 H430 0.959 . S
C445 H431 0.961 . S
C445 C444 1.502 . S
C446 H432 0.960 . S
C446 H433 0.961 . S
C446 H434 0.959 . S
C446 C444 1.561 . S
C447 C444 1.526 . S
C447 C448 1.396 . S
C447 C452 1.390 . S
C448 C442 1.465 . S
C448 C447 1.396 . S
C448 C449 1.399 . S
C449 H435 0.929 . S
C449 C448 1.399 . S
C449 C450 1.385 . S
C450 H436 0.931 . S
C450 C449 1.385 . S
C450 C451 1.389 . S
C451 C450 1.389 . S
C451 C452 1.387 . S
C452 H437 0.930 . S
C452 C447 1.390 . S
C452 C451 1.387 . S
H453 C465 0.930 . S
H454 C467 0.930 . S
H455 C468 0.930 . S
H456 C472 0.959 . S
H457 C472 0.959 . S
H458 C472 0.961 . S
H459 C473 0.960 . S
H460 C473 0.961 . S
H461 C473 0.959 . S
H462 C476 0.929 . S
H463 C477 0.931 . S
H464 C479 0.930 . S
C465 H453 0.930 . S
C465 C466 1.399 . S
C465 C470 1.399 . S
C466 C465 1.399 . S
C466 C467 1.376 . S
C467 H454 0.930 . S
C467 C466 1.376 . S
C467 C468 1.388 . S
C468 H455 0.930 . S
C468 C467 1.388 . S
C468 C469 1.390 . S
C469 C468 1.390 . S
C469 C470 1.394 . S
C469 C475 1.465 . S
C470 C465 1.399 . S
C470 C469 1.394 . S
C470 C471 1.516 . S
C471 C470 1.516 . S
C471 C472 1.502 . S
C471 C473 1.561 . S
C471 C474 1.526 . S
C472 H456 0.959 . S
C472 H457 0.959 . S
C472 H458 0.961 . S
C472 C471 1.502 . S
C473 H459 0.960 . S
C473 H460 0.961 . S
C473 H461 0.959 . S
C473 C471 1.561 . S
C474 C471 1.526 . S
C474 C475 1.396 . S
C474 C479 1.390 . S
C475 C469 1.465 . S
C475 C474 1.396 . S
C475 C476 1.399 . S
C476 H462 0.929 . S
C476 C475 1.399 . S
C476 C477 1.385 . S
C477 H463 0.931 . S
C477 C476 1.385 . S
C477 C478 1.389 . S
C478 C477 1.389 . S
C478 C479 1.387 . S
C479 H464 0.930 . S
C479 C474 1.390 . S
C479 C478 1.387 . S
H480 C492 0.930 . S
H481 C494 0.930 1_554 S
H482 C495 0.930 . S
H483 C499 0.959 . S
H484 C499 0.959 . S
H485 C499 0.961 . S
H486 C500 0.960 . S
H487 C500 0.961 . S
H488 C500 0.959 . S
H489 C503 0.929 . S
H490 C504 0.931 . S
H491 C506 0.930 . S
C492 H480 0.930 . S
C492 C493 1.399 1_556 S
C492 C497 1.399 . S
C493 C492 1.399 1_554 S
C493 C494 1.376 1_554 S
C494 H481 0.930 1_556 S
C494 C493 1.376 1_556 S
C494 C495 1.388 . S
C495 H482 0.930 . S
C495 C494 1.388 . S
C495 C496 1.390 . S
C496 C495 1.390 . S
C496 C497 1.394 . S
C496 C502 1.465 . S
C497 C492 1.399 . S
C497 C496 1.394 . S
C497 C498 1.516 . S
C498 C497 1.516 . S
C498 C499 1.502 . S
C498 C500 1.561 . S
C498 C501 1.526 . S
C499 H483 0.959 . S
C499 H484 0.959 . S
C499 H485 0.961 . S
C499 C498 1.502 . S
C500 H486 0.960 . S
C500 H487 0.961 . S
C500 H488 0.959 . S
C500 C498 1.561 . S
C501 C498 1.526 . S
C501 C502 1.396 . S
C501 C506 1.390 . S
C502 C496 1.465 . S
C502 C501 1.396 . S
C502 C503 1.399 . S
C503 H489 0.929 . S
C503 C502 1.399 . S
C503 C504 1.385 . S
C504 H490 0.931 . S
C504 C503 1.385 . S
C504 C505 1.389 . S
C505 C504 1.389 . S
C505 C506 1.387 . S
C506 H491 0.930 . S
C506 C501 1.390 . S
C506 C505 1.387 . S
H507 C519 0.930 . S
H508 C521 0.930 . S
H509 C522 0.930 . S
H510 C526 0.959 . S
H511 C526 0.959 1_556 S
H512 C526 0.961 . S
H513 C527 0.960 . S
H514 C527 0.961 1_556 S
H515 C527 0.959 . S
H516 C530 0.929 1_554 S
H517 C531 0.931 . S
H518 C533 0.930 . S
C519 H507 0.930 . S
C519 C520 1.399 . S
C519 C524 1.399 . S
C520 C519 1.399 . S
C520 C521 1.376 . S
C521 H508 0.930 . S
C521 C520 1.376 . S
C521 C522 1.388 . S
C522 H509 0.930 . S
C522 C521 1.388 . S
C522 C523 1.390 . S
C523 C522 1.390 . S
C523 C524 1.394 . S
C523 C529 1.465 . S
C524 C519 1.399 . S
C524 C523 1.394 . S
C524 C525 1.516 . S
C525 C524 1.516 . S
C525 C526 1.502 . S
C525 C527 1.561 . S
C525 C528 1.526 1_554 S
C526 H510 0.959 . S
C526 H511 0.959 1_554 S
C526 H512 0.961 . S
C526 C525 1.502 . S
C527 H513 0.960 . S
C527 H514 0.961 1_554 S
C527 H515 0.959 . S
C527 C525 1.561 . S
C528 C525 1.526 1_556 S
C528 C529 1.396 1_556 S
C528 C533 1.390 . S
C529 C523 1.465 . S
C529 C528 1.396 1_554 S
C529 C530 1.399 1_554 S
C530 H516 0.929 1_556 S
C530 C529 1.399 1_556 S
C530 C531 1.385 . S
C531 H517 0.931 . S
C531 C530 1.385 . S
C531 C532 1.389 . S
C532 C531 1.389 . S
C532 C533 1.387 . S
C533 H518 0.930 . S
C533 C528 1.390 . S
C533 C532 1.387 . S
H534 C546 0.930 . S
H535 C548 0.930 . S
H536 C549 0.930 . S
H537 C553 0.959 . S
H538 C553 0.959 . S
H539 C553 0.961 . S
H540 C554 0.960 . S
H541 C554 0.961 . S
H542 C554 0.959 . S
H543 C557 0.929 . S
H544 C558 0.931 . S
H545 C560 0.930 . S
C546 H534 0.930 . S
C546 C547 1.399 . S
C546 C551 1.399 . S
C547 C546 1.399 . S
C547 C548 1.376 . S
C548 H535 0.930 . S
C548 C547 1.376 . S
C548 C549 1.388 . S
C549 H536 0.930 . S
C549 C548 1.388 . S
C549 C550 1.390 . S
C550 C549 1.390 . S
C550 C551 1.394 . S
C550 C556 1.465 . S
C551 C546 1.399 . S
C551 C550 1.394 . S
C551 C552 1.516 . S
C552 C551 1.516 . S
C552 C553 1.502 . S
C552 C554 1.561 . S
C552 C555 1.526 . S
C553 H537 0.959 . S
C553 H538 0.959 . S
C553 H539 0.961 . S
C553 C552 1.502 . S
C554 H540 0.960 . S
C554 H541 0.961 . S
C554 H542 0.959 . S
C554 C552 1.561 . S
C555 C552 1.526 . S
C555 C556 1.396 . S
C555 C560 1.390 . S
C556 C550 1.465 . S
C556 C555 1.396 . S
C556 C557 1.399 . S
C557 H543 0.929 . S
C557 C556 1.399 . S
C557 C558 1.385 . S
C558 H544 0.931 . S
C558 C557 1.385 . S
C558 C559 1.389 . S
C559 C558 1.389 . S
C559 C560 1.387 . S
C560 H545 0.930 . S
C560 C555 1.390 . S
C560 C559 1.387 . S
H561 C573 0.930 . S
H562 C575 0.930 . S
H563 C576 0.930 . S
H564 C580 0.959 . S
H565 C580 0.959 . S
H566 C580 0.961 . S
H567 C581 0.960 . S
H568 C581 0.961 . S
H569 C581 0.959 . S
H570 C584 0.929 . S
H571 C585 0.931 . S
H572 C587 0.930 . S
C573 H561 0.930 . S
C573 C574 1.399 . S
C573 C578 1.399 . S
C574 C573 1.399 . S
C574 C575 1.376 . S
C575 H562 0.930 . S
C575 C574 1.376 . S
C575 C576 1.388 . S
C576 H563 0.930 . S
C576 C575 1.388 . S
C576 C577 1.390 . S
C577 C576 1.390 . S
C577 C578 1.394 . S
C577 C583 1.465 . S
C578 C573 1.399 . S
C578 C577 1.394 . S
C578 C579 1.516 . S
C579 C578 1.516 . S
C579 C580 1.502 . S
C579 C581 1.561 . S
C579 C582 1.526 . S
C580 H564 0.959 . S
C580 H565 0.959 . S
C580 H566 0.961 . S
C580 C579 1.502 . S
C581 H567 0.960 . S
C581 H568 0.961 . S
C581 H569 0.959 . S
C581 C579 1.561 . S
C582 C579 1.526 . S
C582 C583 1.396 . S
C582 C587 1.390 . S
C583 C577 1.465 . S
C583 C582 1.396 . S
C583 C584 1.399 . S
C584 H570 0.929 . S
C584 C583 1.399 . S
C584 C585 1.385 . S
C585 H571 0.931 . S
C585 C584 1.385 . S
C585 C586 1.389 . S
C586 C585 1.389 . S
C586 C587 1.387 . S
C587 H572 0.930 . S
C587 C582 1.390 . S
C587 C586 1.387 . S
H588 C600 0.930 . S
H589 C602 0.930 . S
H590 C603 0.930 . S
H591 C607 0.959 . S
H592 C607 0.959 . S
H593 C607 0.961 . S
H594 C608 0.960 . S
H595 C608 0.961 . S
H596 C608 0.959 . S
H597 C611 0.929 . S
H598 C612 0.931 . S
H599 C614 0.930 . S
C600 H588 0.930 . S
C600 C601 1.399 . S
C600 C605 1.399 . S
C601 C600 1.399 . S
C601 C602 1.376 . S
C602 H589 0.930 . S
C602 C601 1.376 . S
C602 C603 1.388 . S
C603 H590 0.930 . S
C603 C602 1.388 . S
C603 C604 1.390 . S
C604 C603 1.390 . S
C604 C605 1.394 . S
C604 C610 1.465 1_454 S
C605 C600 1.399 . S
C605 C604 1.394 . S
C605 C606 1.502 1_455 S
C606 C605 1.502 1_655 S
C606 C607 1.512 . S
C606 C608 1.552 1_654 S
C606 C609 1.539 1_554 S
C607 H591 0.959 . S
C607 H592 0.959 . S
C607 H593 0.961 . S
C607 C606 1.512 . S
C608 H594 0.960 . S
C608 H595 0.961 . S
C608 H596 0.959 . S
C608 C606 1.552 1_456 S
C609 C606 1.539 1_556 S
C609 C610 1.396 . S
C609 C614 1.390 . S
C610 C604 1.465 1_656 S
C610 C609 1.396 . S
C610 C611 1.399 . S
C611 H597 0.929 . S
C611 C610 1.399 . S
C611 C612 1.385 . S
C612 H598 0.931 . S
C612 C611 1.385 . S
C612 C613 1.389 . S
C613 C612 1.389 . S
C613 C614 1.387 . S
C614 H599 0.930 . S
C614 C609 1.390 . S
C614 C613 1.387 . S
H615 C627 0.930 . S
H616 C629 0.930 . S
H617 C630 0.930 1_545 S
H618 C634 0.959 . S
H619 C634 0.959 . S
H620 C634 0.961 . S
H621 C635 0.960 . S
H622 C635 0.961 . S
H623 C635 0.959 . S
H624 C638 0.929 . S
H625 C639 0.931 . S
H626 C641 0.930 . S
C627 H615 0.930 . S
C627 C628 1.399 . S
C627 C632 1.399 . S
C628 C627 1.399 . S
C628 C629 1.376 . S
C629 H616 0.930 . S
C629 C628 1.376 . S
C629 C630 1.388 . S
C630 H617 0.930 1_565 S
C630 C629 1.388 . S
C630 C631 1.390 . S
C631 C630 1.390 . S
C631 C632 1.394 . S
C631 C637 1.465 1_565 S
C632 C627 1.399 . S
C632 C631 1.394 . S
C632 C633 1.516 . S
C633 C632 1.516 . S
C633 C634 1.502 . S
C633 C635 1.561 . S
C633 C636 1.526 1_565 S
C634 H618 0.959 . S
C634 H619 0.959 . S
C634 H620 0.961 . S
C634 C633 1.502 . S
C635 H621 0.960 . S
C635 H622 0.961 . S
C635 H623 0.959 . S
C635 C633 1.561 . S
C636 C633 1.526 1_545 S
C636 C637 1.396 . S
C636 C641 1.390 . S
C637 C631 1.465 1_545 S
C637 C636 1.396 . S
C637 C638 1.399 . S
C638 H624 0.929 . S
C638 C637 1.399 . S
C638 C639 1.385 . S
C639 H625 0.931 . S
C639 C638 1.385 . S
C639 C640 1.389 . S
C640 C639 1.389 . S
C640 C641 1.387 . S
C641 H626 0.930 . S
C641 C636 1.390 . S
C641 C640 1.387 . S
H642 C654 0.930 . S
H643 C656 0.930 . S
H644 C657 0.930 . S
H645 C661 0.965 . S
H646 C661 0.950 1_655 S
H647 C661 0.968 . S
H648 C662 0.960 . S
H649 C662 0.961 . S
H650 C662 0.959 . S
H651 C665 0.929 . S
H652 C666 0.931 . S
H653 C668 0.930 . S
C654 H642 0.930 . S
C654 C655 1.399 . S
C654 C659 1.399 . S
C655 C654 1.399 . S
C655 C656 1.376 . S
C656 H643 0.930 . S
C656 C655 1.376 . S
C656 C657 1.388 . S
C657 H644 0.930 . S
C657 C656 1.388 . S
C657 C658 1.390 . S
C658 C657 1.390 . S
C658 C659 1.394 . S
C658 C664 1.465 1_455 S
C659 C654 1.399 . S
C659 C658 1.394 . S
C659 C660 1.516 1_455 S
C660 C659 1.516 1_655 S
C660 C661 1.499 1_655 S
C660 C662 1.561 . S
C660 C663 1.526 . S
C661 H645 0.965 . S
C661 H646 0.950 1_455 S
C661 H647 0.968 . S
C661 C660 1.499 1_455 S
C662 H648 0.960 . S
C662 H649 0.961 . S
C662 H650 0.959 . S
C662 C660 1.561 . S
C663 C660 1.526 . S
C663 C664 1.396 . S
C663 C668 1.390 . S
C664 C658 1.465 1_655 S
C664 C663 1.396 . S
C664 C665 1.399 . S
C665 H651 0.929 . S
C665 C664 1.399 . S
C665 C666 1.385 . S
C666 H652 0.931 . S
C666 C665 1.385 . S
C666 C667 1.389 . S
C667 C666 1.389 . S
C667 C668 1.387 . S
C668 H653 0.930 . S
C668 C663 1.390 . S
C668 C667 1.387 . S
H669 C681 0.930 . S
H670 C683 0.930 . S
H671 C684 0.930 . S
H672 C688 0.959 . S
H673 C688 0.959 . S
H674 C688 0.961 . S
H675 C689 0.960 . S
H676 C689 0.961 . S
H677 C689 0.959 . S
H678 C692 0.929 1_565 S
H679 C693 0.931 . S
H680 C695 0.930 . S
C681 H669 0.930 . S
C681 C682 1.399 . S
C681 C686 1.399 . S
C682 C681 1.399 . S
C682 C683 1.376 . S
C683 H670 0.930 . S
C683 C682 1.376 . S
C683 C684 1.388 . S
C684 H671 0.930 . S
C684 C683 1.388 . S
C684 C685 1.390 . S
C685 C684 1.390 . S
C685 C686 1.394 . S
C685 C691 1.465 1_565 S
C686 C681 1.399 . S
C686 C685 1.394 . S
C686 C687 1.516 1_565 S
C687 C686 1.516 1_545 S
C687 C688 1.502 . S
C687 C689 1.561 . S
C687 C690 1.526 . S
C688 H672 0.959 . S
C688 H673 0.959 . S
C688 H674 0.961 . S
C688 C687 1.502 . S
C689 H675 0.960 . S
C689 H676 0.961 . S
C689 H677 0.959 . S
C689 C687 1.561 . S
C690 C687 1.526 . S
C690 C691 1.396 . S
C690 C695 1.390 . S
C691 C685 1.465 1_545 S
C691 C690 1.396 . S
C691 C692 1.399 . S
C692 H678 0.929 1_545 S
C692 C691 1.399 . S
C692 C693 1.385 . S
C693 H679 0.931 . S
C693 C692 1.385 . S
C693 C694 1.389 . S
C694 C693 1.389 . S
C694 C695 1.387 . S
C695 H680 0.930 . S
C695 C690 1.390 . S
C695 C694 1.387 . S
H696 C708 0.930 . S
H697 C710 0.930 . S
H698 C711 0.930 . S
H699 C715 0.959 . S
H700 C715 0.959 . S
H701 C715 0.961 . S
H702 C716 0.960 . S
H703 C716 0.961 . S
H704 C716 0.959 . S
H705 C719 0.929 . S
H706 C720 0.931 . S
H707 C722 0.930 . S
C708 H696 0.930 . S
C708 C709 1.399 . S
C708 C713 1.399 . S
C709 C708 1.399 . S
C709 C710 1.376 . S
C710 H697 0.930 . S
C710 C709 1.376 . S
C710 C711 1.388 . S
C711 H698 0.930 . S
C711 C710 1.388 . S
C711 C712 1.390 . S
C712 C711 1.390 . S
C712 C713 1.394 . S
C712 C718 1.465 . S
C713 C708 1.399 . S
C713 C712 1.394 . S
C713 C714 1.516 . S
C714 C713 1.516 . S
C714 C715 1.502 . S
C714 C716 1.561 . S
C714 C717 1.526 . S
C715 H699 0.959 . S
C715 H700 0.959 . S
C715 H701 0.961 . S
C715 C714 1.502 . S
C716 H702 0.960 . S
C716 H703 0.961 . S
C716 H704 0.959 . S
C716 C714 1.561 . S
C717 C714 1.526 . S
C717 C718 1.396 . S
C717 C722 1.390 . S
C718 C712 1.465 . S
C718 C717 1.396 . S
C718 C719 1.399 . S
C719 H705 0.929 . S
C719 C718 1.399 . S
C719 C720 1.385 . S
C720 H706 0.931 . S
C720 C719 1.385 . S
C720 C721 1.389 . S
C721 C720 1.389 . S
C721 C722 1.387 . S
C722 H707 0.930 . S
C722 C717 1.390 . S
C722 C721 1.387 . S
H723 C735 0.930 . S
H724 C737 0.930 . S
H725 C738 0.930 . S
H726 C742 0.959 . S
H727 C742 0.959 . S
H728 C742 0.961 . S
H729 C743 0.960 . S
H730 C743 0.961 . S
H731 C743 0.959 . S
H732 C746 0.929 . S
H733 C747 0.931 . S
H734 C749 0.930 . S
C735 H723 0.930 . S
C735 C736 1.399 . S
C735 C740 1.399 . S
C736 C735 1.399 . S
C736 C737 1.376 . S
C737 H724 0.930 . S
C737 C736 1.376 . S
C737 C738 1.388 . S
C738 H725 0.930 . S
C738 C737 1.388 . S
C738 C739 1.390 . S
C739 C738 1.390 . S
C739 C740 1.394 . S
C739 C745 1.465 . S
C740 C735 1.399 . S
C740 C739 1.394 . S
C740 C741 1.516 . S
C741 C740 1.516 . S
C741 C742 1.502 . S
C741 C743 1.561 . S
C741 C744 1.526 . S
C742 H726 0.959 . S
C742 H727 0.959 . S
C742 H728 0.961 . S
C742 C741 1.502 . S
C743 H729 0.960 . S
C743 H730 0.961 . S
C743 H731 0.959 . S
C743 C741 1.561 . S
C744 C741 1.526 . S
C744 C745 1.396 . S
C744 C749 1.390 . S
C745 C739 1.465 . S
C745 C744 1.396 . S
C745 C746 1.399 . S
C746 H732 0.929 . S
C746 C745 1.399 . S
C746 C747 1.385 . S
C747 H733 0.931 . S
C747 C746 1.385 . S
C747 C748 1.389 . S
C748 C747 1.389 . S
C748 C749 1.387 . S
C749 H734 0.930 . S
C749 C744 1.390 . S
C749 C748 1.387 . S
H750 C762 0.930 . S
H751 C764 0.930 . S
H752 C765 0.930 . S
H753 C769 0.959 . S
H754 C769 0.959 . S
H755 C769 0.961 . S
H756 C770 0.960 . S
H757 C770 0.961 . S
H758 C770 0.959 . S
H759 C773 0.929 . S
H760 C774 0.931 . S
H761 C776 0.930 . S
C762 H750 0.930 . S
C762 C763 1.399 . S
C762 C767 1.399 . S
C763 C762 1.399 . S
C763 C764 1.376 . S
C764 H751 0.930 . S
C764 C763 1.376 . S
C764 C765 1.388 . S
C765 H752 0.930 . S
C765 C764 1.388 . S
C765 C766 1.390 . S
C766 C765 1.390 . S
C766 C767 1.394 . S
C766 C772 1.465 . S
C767 C762 1.399 . S
C767 C766 1.394 . S
C767 C768 1.516 . S
C768 C767 1.516 . S
C768 C769 1.502 . S
C768 C770 1.561 . S
C768 C771 1.526 . S
C769 H753 0.959 . S
C769 H754 0.959 . S
C769 H755 0.961 . S
C769 C768 1.502 . S
C770 H756 0.960 . S
C770 H757 0.961 . S
C770 H758 0.959 . S
C770 C768 1.561 . S
C771 C768 1.526 . S
C771 C772 1.396 . S
C771 C776 1.390 . S
C772 C766 1.465 . S
C772 C771 1.396 . S
C772 C773 1.399 . S
C773 H759 0.929 . S
C773 C772 1.399 . S
C773 C774 1.385 . S
C774 H760 0.931 . S
C774 C773 1.385 . S
C774 C775 1.389 . S
C775 C774 1.389 . S
C775 C776 1.387 . S
C776 H761 0.930 . S
C776 C771 1.390 . S
C776 C775 1.387 . S
H777 C789 0.930 . S
H778 C791 0.930 . S
H779 C792 0.930 . S
H780 C796 0.959 . S
H781 C796 0.959 . S
H782 C796 0.961 . S
H783 C797 0.960 . S
H784 C797 0.961 . S
H785 C797 0.959 . S
H786 C800 0.929 . S
H787 C801 0.931 . S
H788 C803 0.930 . S
C789 H777 0.930 . S
C789 C790 1.399 . S
C789 C794 1.399 . S
C790 C789 1.399 . S
C790 C791 1.376 1_554 S
C791 H778 0.930 . S
C791 C790 1.376 1_556 S
C791 C792 1.388 . S
C792 H779 0.930 . S
C792 C791 1.388 . S
C792 C793 1.390 . S
C793 C792 1.390 . S
C793 C794 1.394 1_556 S
C793 C799 1.465 . S
C794 C789 1.399 . S
C794 C793 1.394 1_554 S
C794 C795 1.516 . S
C795 C794 1.516 . S
C795 C796 1.502 . S
C795 C797 1.561 . S
C795 C798 1.526 . S
C796 H780 0.959 . S
C796 H781 0.959 . S
C796 H782 0.961 . S
C796 C795 1.502 . S
C797 H783 0.960 . S
C797 H784 0.961 . S
C797 H785 0.959 . S
C797 C795 1.561 . S
C798 C795 1.526 . S
C798 C799 1.396 1_554 S
C798 C803 1.390 . S
C799 C793 1.465 . S
C799 C798 1.396 1_556 S
C799 C800 1.399 . S
C800 H786 0.929 . S
C800 C799 1.399 . S
C800 C801 1.385 . S
C801 H787 0.931 . S
C801 C800 1.385 . S
C801 C802 1.389 . S
C802 C801 1.389 . S
C802 C803 1.387 1_556 S
C803 H788 0.930 . S
C803 C798 1.390 . S
C803 C802 1.387 1_554 S
C277 C183 1.209 . S
C289 C18 1.259 . S
C304 C216 1.206 . S
C316 C51 1.265 . S
C331 C84 1.213 . S
C343 C249 1.253 1_556 S
C358 C150 1.254 . S
C370 C117 1.213 1_554 S
C385 N13 1.100 . S
C397 N2 1.119 . S
C412 N35 1.127 . S
C424 N46 1.104 . S
C439 N79 1.126 1_554 S
C451 N68 1.087 . S
C466 N112 1.089 . S
C478 N101 1.137 . S
C493 N145 1.101 . S
C505 N134 1.129 . S
C520 N178 1.128 . S
C532 N167 1.101 . S
C547 N211 1.101 . S
C559 N200 1.129 . S
C574 N233 1.124 . S
C586 N244 1.108 . S
C601 C7 1.401 . S
C613 C205 1.430 . S
C628 C238 1.439 . S
C640 C40 1.380 . S
C655 C139 1.377 . S
C667 C73 1.379 . S
C682 C106 1.358 . S
C694 C172 1.406 . S
C709 C21 1.525 . S
C721 C153 1.543 . S
C736 C54 1.537 . S
C748 C186 1.526 . S
C763 C87 1.525 . S
C775 C219 1.545 . S
C790 C252 1.532 . S
C802 C120 1.555 . S
