# Generated by pormake.
# Topology lcy-e, (6)-cn, num edge types: 1
# Building blocks:
#     Node 0, Type 0, BuildingBlock: LEVNOQ01_clean_sbu_1, # of connection points: 6
#     Node 1, Type 0, BuildingBlock: LEVNOQ01_clean_sbu_1, # of connection points: 6
#     Node 2, Type 0, BuildingBlock: LEVNOQ01_clean_sbu_1, # of connection points: 6
#     Node 3, Type 0, BuildingBlock: LEVNOQ01_clean_sbu_1, # of connection points: 6
#     Node 4, Type 0, BuildingBlock: LEVNOQ01_clean_sbu_1, # of connection points: 6
#     Node 5, Type 0, BuildingBlock: LEVNOQ01_clean_sbu_1, # of connection points: 6
#     Node 6, Type 0, BuildingBlock: LEVNOQ01_clean_sbu_1, # of connection points: 6
#     Node 7, Type 0, BuildingBlock: LEVNOQ01_clean_sbu_1, # of connection points: 6
#     Node 8, Type 0, BuildingBlock: LEVNOQ01_clean_sbu_1, # of connection points: 6
#     Node 9, Type 0, BuildingBlock: LEVNOQ01_clean_sbu_1, # of connection points: 6
#     Node 10, Type 0, BuildingBlock: LEVNOQ01_clean_sbu_1, # of connection points: 6
#     Node 11, Type 0, BuildingBlock: LEVNOQ01_clean_sbu_1, # of connection points: 6
#     Edge 12, Type (0, 0), BuildingBlock: XIVTED_clean_linker_0, # of connection points: 2
#     Edge 13, Type (0, 0), BuildingBlock: XIVTED_clean_linker_0, # of connection points: 2
#     Edge 14, Type (0, 0), BuildingBlock: XIVTED_clean_linker_0, # of connection points: 2
#     Edge 15, Type (0, 0), BuildingBlock: XIVTED_clean_linker_0, # of connection points: 2
#     Edge 16, Type (0, 0), BuildingBlock: XIVTED_clean_linker_0, # of connection points: 2
#     Edge 17, Type (0, 0), BuildingBlock: XIVTED_clean_linker_0, # of connection points: 2
#     Edge 18, Type (0, 0), BuildingBlock: XIVTED_clean_linker_0, # of connection points: 2
#     Edge 19, Type (0, 0), BuildingBlock: XIVTED_clean_linker_0, # of connection points: 2
#     Edge 20, Type (0, 0), BuildingBlock: XIVTED_clean_linker_0, # of connection points: 2
#     Edge 21, Type (0, 0), BuildingBlock: XIVTED_clean_linker_0, # of connection points: 2
#     Edge 22, Type (0, 0), BuildingBlock: XIVTED_clean_linker_0, # of connection points: 2
#     Edge 23, Type (0, 0), BuildingBlock: XIVTED_clean_linker_0, # of connection points: 2
#     Edge 24, Type (0, 0), BuildingBlock: XIVTED_clean_linker_0, # of connection points: 2
#     Edge 25, Type (0, 0), BuildingBlock: XIVTED_clean_linker_0, # of connection points: 2
#     Edge 26, Type (0, 0), BuildingBlock: XIVTED_clean_linker_0, # of connection points: 2
#     Edge 27, Type (0, 0), BuildingBlock: XIVTED_clean_linker_0, # of connection points: 2
#     Edge 28, Type (0, 0), BuildingBlock: XIVTED_clean_linker_0, # of connection points: 2
#     Edge 29, Type (0, 0), BuildingBlock: XIVTED_clean_linker_0, # of connection points: 2
#     Edge 30, Type (0, 0), BuildingBlock: XIVTED_clean_linker_0, # of connection points: 2
#     Edge 31, Type (0, 0), BuildingBlock: XIVTED_clean_linker_0, # of connection points: 2
#     Edge 32, Type (0, 0), BuildingBlock: XIVTED_clean_linker_0, # of connection points: 2
#     Edge 33, Type (0, 0), BuildingBlock: XIVTED_clean_linker_0, # of connection points: 2
#     Edge 34, Type (0, 0), BuildingBlock: XIVTED_clean_linker_0, # of connection points: 2
#     Edge 35, Type (0, 0), BuildingBlock: XIVTED_clean_linker_0, # of connection points: 2
#     Edge 36, Type (0, 0), BuildingBlock: XIVTED_clean_linker_0, # of connection points: 2
#     Edge 37, Type (0, 0), BuildingBlock: XIVTED_clean_linker_0, # of connection points: 2
#     Edge 38, Type (0, 0), BuildingBlock: XIVTED_clean_linker_0, # of connection points: 2
#     Edge 39, Type (0, 0), BuildingBlock: XIVTED_clean_linker_0, # of connection points: 2
#     Edge 40, Type (0, 0), BuildingBlock: XIVTED_clean_linker_0, # of connection points: 2
#     Edge 41, Type (0, 0), BuildingBlock: XIVTED_clean_linker_0, # of connection points: 2
#     Edge 42, Type (0, 0), BuildingBlock: XIVTED_clean_linker_0, # of connection points: 2
#     Edge 43, Type (0, 0), BuildingBlock: XIVTED_clean_linker_0, # of connection points: 2
#     Edge 44, Type (0, 0), BuildingBlock: XIVTED_clean_linker_0, # of connection points: 2
#     Edge 45, Type (0, 0), BuildingBlock: XIVTED_clean_linker_0, # of connection points: 2
#     Edge 46, Type (0, 0), BuildingBlock: XIVTED_clean_linker_0, # of connection points: 2
#     Edge 47, Type (0, 0), BuildingBlock: XIVTED_clean_linker_0, # of connection points: 2
# Relax obj value: 0.258
# Max RMSD: 0.279
# Mean RMSD: 0.271
data_MOF--net-lcy-e--node1-LEVNOQ01_clean_sbu_1--edge1-XIVTED_clean_linker_0
_symmetry_space_group_name_H-M    P1
_symmetry_Int_Tables_number       1
_symmetry_cell_setting            triclinic
loop_
_symmetry_equiv_pos_as_xyz
'x, y, z'
_cell_length_a     36.882946
_cell_length_b     36.752854
_cell_length_c     36.743568
_cell_angle_alpha  89.068694
_cell_angle_beta   90.923092
_cell_angle_gamma 91.014277
loop_
_atom_site_label
_atom_site_type_symbol
_atom_site_fract_x
_atom_site_fract_y
_atom_site_fract_z
_atom_type_partial_charge
O0 O 0.10835 0.22766 0.34779 0.0
Mg1 Mg 0.1039 0.17564 0.36972 0.0
O2 O 0.10781 0.24995 0.40297 0.0
Mg3 Mg 0.10992 0.19737 0.43923 0.0
O4 O 0.06533 0.16173 0.40662 0.0
O5 O 0.06233 0.15087 0.34615 0.0
O6 O 0.11135 0.1472 0.478 0.0
O7 O 0.05977 0.21428 0.47336 0.0
Mg8 Mg 0.12812 0.22755 0.5182 0.0
O9 O 0.15367 0.23072 0.47082 0.0
O10 O 0.11798 0.17227 0.53233 0.0
O11 O 0.08306 0.25952 0.50371 0.0
O12 O 0.17858 0.25172 0.52203 0.0
C13 C 0.17152 0.1537 0.38944 0.0
C14 C 0.10879 0.25451 0.36864 0.0
C15 C 0.04946 0.14672 0.3784 0.0
C16 C 0.11195 0.14465 0.51269 0.0
C17 C 0.05647 0.23831 0.4976 0.0
C18 C 0.17875 0.24999 0.48701 0.0
O19 O 0.14774 0.14148 0.3678 0.0
O20 O 0.16321 0.17724 0.41271 0.0
O21 O 0.12482 0.8802 0.7457 0.0
Mg22 Mg 0.12079 0.87938 0.68822 0.0
O23 O 0.07043 0.85458 0.75278 0.0
Mg24 Mg 0.03541 0.85781 0.69997 0.0
O25 O 0.07163 0.89981 0.67242 0.0
O26 O 0.12337 0.92627 0.65594 0.0
O27 O 0.00082 0.86057 0.64787 0.0
O28 O -0.00362 0.90286 0.71933 0.0
Mg29 Mg 0.95299 0.81769 0.70472 0.0
O30 O 0.00255 0.81394 0.72561 0.0
O31 O 0.95672 0.81852 0.64686 0.0
O32 O 0.9434 0.87148 0.72105 0.0
O33 O 0.96109 0.7745 0.74298 0.0
C34 C 0.09896 0.80347 0.66558 0.0
C35 C 0.10131 0.86444 0.76558 0.0
C36 C 0.08842 0.92545 0.65482 0.0
C37 C 0.97496 0.84398 0.63151 0.0
C38 C 0.96173 0.90119 0.72269 0.0
C39 C -0.00661 0.78775 0.74719 0.0
O40 O 0.1252 0.82633 0.66583 0.0
O41 O 0.06777 0.81132 0.67694 0.0
O42 O 0.35793 0.87871 0.98545 0.0
Mg43 Mg 0.35389 0.86994 0.92811 0.0
O44 O 0.36488 0.82126 0.00448 0.0
Mg45 Mg 0.36283 0.78338 0.95546 0.0
O46 O 0.3275 0.82158 0.92414 0.0
O47 O 0.30396 0.87061 0.89926 0.0
O48 O 0.36352 0.74438 0.9059 0.0
O49 O 0.30961 0.75466 0.97421 0.0
Mg50 Mg 0.38025 0.69611 0.97974 0.0
O51 O 0.3967 0.74703 -0.01118 0.0
O52 O 0.38706 0.69109 0.92314 0.0
O53 O 0.32423 0.6985 -0.00693 0.0
O54 O 0.42354 0.70268 0.01809 0.0
C55 C 0.42654 0.83675 0.91398 0.0
C56 C 0.36296 0.85515 0.01073 0.0
C57 C 0.30111 0.83632 0.90657 0.0
C58 C 0.37496 0.71262 0.89854 0.0
C59 C 0.30103 0.72333 -0.0127 0.0
C60 C 0.42014 0.73715 0.01281 0.0
O61 O 0.40478 0.86147 0.90369 0.0
O62 O 0.41653 0.81005 0.93436 0.0
O63 O 0.35403 0.09622 0.2261 0.0
Mg64 Mg 0.36521 0.09579 0.16978 0.0
O65 O 0.40878 0.1139 0.24648 0.0
Mg66 Mg 0.44686 0.11884 0.19719 0.0
O67 O 0.41511 0.07486 0.16755 0.0
O68 O 0.36708 0.04713 0.1429 0.0
O69 O 0.48546 0.12361 0.14751 0.0
O70 O 0.4819 0.07172 0.21929 0.0
Mg71 Mg 0.5304 0.14942 0.21756 0.0
O72 O 0.4786 0.16064 0.22855 0.0
O73 O 0.53623 0.15464 0.16076 0.0
O74 O 0.53584 0.09449 0.23685 0.0
O75 O 0.52314 0.19366 0.25198 0.0
C76 C 0.38591 0.17207 0.15151 0.0
C77 C 0.37575 0.10476 0.2519 0.0
C78 C 0.40118 0.04705 0.15118 0.0
C79 C 0.51583 0.13804 0.13808 0.0
C80 C 0.5136 0.06784 0.23303 0.0
C81 C 0.48892 0.18611 0.25016 0.0
O82 O 0.36571 0.1457 0.14163 0.0
O83 O 0.4129 0.16751 0.17329 0.0
O84 O 0.63893 0.35692 0.49239 0.0
Mg85 Mg 0.63385 0.34789 0.54854 0.0
O86 O 0.61131 0.30582 0.47423 0.0
Mg87 Mg 0.60726 0.2667 0.52562 0.0
O88 O 0.65026 0.29686 0.55839 0.0
O89 O 0.67897 0.34488 0.58178 0.0
O90 O 0.60731 0.23064 0.57804 0.0
O91 O 0.65561 0.23292 0.5046 0.0
Mg92 Mg 0.57975 0.19487 0.52499 0.0
O93 O 0.56134 0.236 0.49173 0.0
O94 O 0.5629 0.1905 0.57868 0.0
O95 O 0.63346 0.17822 0.51845 0.0
O96 O 0.54216 0.17749 0.48915 0.0
C97 C 0.55608 0.32997 0.56634 0.0
C98 C 0.6258 0.33706 0.46734 0.0
C99 C 0.6764 0.31009 0.57811 0.0
C100 C 0.58914 0.20611 0.59481 0.0
C101 C 0.65984 0.19882 0.50963 0.0
C102 C 0.53962 0.21098 0.47832 0.0
O103 O 0.58239 0.35209 0.57127 0.0
O104 O 0.55973 0.30026 0.54922 0.0
O105 O -0.00619 0.30911 0.83057 0.0
Mg106 Mg 0.9444 0.33224 0.84438 0.0
O107 O 0.00172 0.3617 0.80378 0.0
Mg108 Mg 0.94881 0.36402 0.76657 0.0
O109 O 0.91428 0.32433 0.79926 0.0
O110 O 0.90068 0.2978 0.85225 0.0
O111 O 0.89702 0.36565 0.73061 0.0
O112 O 0.96637 0.31529 0.7325 0.0
Mg113 Mg 0.95528 0.39373 0.68301 0.0
O114 O 0.97929 0.40524 0.73172 0.0
O115 O 0.8993 0.40366 0.6836 0.0
O116 O 0.96428 0.33728 0.67543 0.0
O117 O -0.00546 0.43534 0.6815 0.0
C118 C 0.93201 0.41483 0.83595 0.0
C119 C 0.01429 0.33606 0.82387 0.0
C120 C 0.8946 0.30172 0.81778 0.0
C121 C 0.88174 0.38107 0.70327 0.0
C122 C 0.96742 0.31094 0.69816 0.0
C123 C -0.00079 0.42984 0.71599 0.0
O124 O 0.94088 0.38855 0.85706 0.0
O125 O 0.92966 0.41116 0.80146 0.0
O126 O 0.88508 0.73771 0.10816 0.0
Mg127 Mg 0.88413 0.68046 0.10493 0.0
O128 O 0.85787 0.75057 0.05492 0.0
Mg129 Mg 0.85511 0.6983 0.02003 0.0
O130 O 0.89844 0.6716 0.05358 0.0
O131 O 0.93182 0.65148 0.0997 0.0
O132 O 0.85228 0.64498 0.98565 0.0
O133 O 0.9026 0.72019 0.98448 0.0
Mg134 Mg 0.82746 0.70969 0.93658 0.0
O135 O 0.81209 0.72734 0.9858 0.0
O136 O 0.82006 0.65335 0.9348 0.0
O137 O 0.8816 0.72905 0.92792 0.0
O138 O 0.78286 0.74285 0.93482 0.0
C139 C 0.80562 0.65856 0.08803 0.0
C140 C 0.87109 0.76028 0.08569 0.0
C141 C 0.92689 0.65506 0.06506 0.0
C142 C 0.83715 0.63263 0.95666 0.0
C143 C 0.90732 0.72983 0.95138 0.0
C144 C 0.78669 0.74558 0.96962 0.0
O145 O 0.83257 0.65498 0.10969 0.0
O146 O 0.80834 0.67472 0.05697 0.0
O147 O 0.47426 0.60428 0.36505 0.0
Mg148 Mg 0.52703 0.61514 0.34874 0.0
O149 O 0.45695 0.60414 0.30757 0.0
Mg150 Mg 0.51179 0.60782 0.27716 0.0
O151 O 0.53753 0.65633 0.31226 0.0
O152 O 0.54461 0.65976 0.37316 0.0
O153 O 0.56528 0.60937 0.24263 0.0
O154 O 0.49091 0.65488 0.2413 0.0
Mg155 Mg 0.50466 0.5756 0.19239 0.0
O156 O 0.48441 0.56803 0.24174 0.0
O157 O 0.56042 0.56588 0.20114 0.0
O158 O 0.49514 0.63317 0.18481 0.0
O159 O 0.4623 0.53516 0.19766 0.0
C160 C 0.55738 0.54961 0.33435 0.0
C161 C 0.44954 0.60176 0.34113 0.0
C162 C 0.54716 0.67451 0.34122 0.0
C163 C 0.57922 0.58962 0.21816 0.0
C164 C 0.4898 0.65912 0.20674 0.0
C165 C 0.46074 0.54453 0.23115 0.0
O166 O 0.56486 0.57494 0.35597 0.0
O167 O 0.53551 0.55536 0.30767 0.0
O168 O 0.1059 0.5053 0.14087 0.0
Mg169 Mg 0.10028 0.44928 0.12986 0.0
O170 O 0.15029 0.50992 0.10191 0.0
Mg171 Mg 0.18652 0.45929 0.10833 0.0
O172 O 0.14872 0.43023 0.14599 0.0
O173 O 0.09842 0.4112 0.17238 0.0
O174 O 0.22161 0.40608 0.11245 0.0
O175 O 0.21741 0.48096 0.15877 0.0
Mg176 Mg 0.26888 0.46429 0.08396 0.0
O177 O 0.22339 0.49047 0.07024 0.0
O178 O 0.26013 0.41072 0.06724 0.0
O179 O 0.27442 0.47169 0.14189 0.0
O180 O 0.27524 0.50531 0.04434 0.0
C181 C 0.122 0.42919 0.05127 0.0
C182 C 0.12249 0.52325 0.11642 0.0
C183 C 0.13323 0.41049 0.17045 0.0
C184 C 0.24425 0.39164 0.09124 0.0
C185 C 0.25129 0.47916 0.16599 0.0
C186 C 0.24101 0.51069 0.04744 0.0
O187 O 0.09705 0.43283 0.07446 0.0
O188 O 0.15532 0.43652 0.05861 0.0
O189 O 0.62143 0.97436 0.82707 0.0
Mg190 Mg 0.61958 0.03068 0.83345 0.0
O191 O 0.67061 0.96721 0.86214 0.0
Mg192 Mg 0.70323 0.02314 0.86388 0.0
O193 O 0.6691 0.04933 0.82028 0.0
O194 O 0.62033 0.06526 0.78847 0.0
O195 O 0.73481 0.07827 0.86418 0.0
O196 O 0.74151 0.00613 0.81774 0.0
Mg197 Mg 0.78482 0.02504 0.89854 0.0
O198 O 0.73811 -0.00281 0.90791 0.0
O199 O 0.77767 0.08063 0.90686 0.0
O200 O 0.79633 0.01542 0.8432 0.0
O201 O 0.78758 -0.01278 0.94116 0.0
C202 C 0.6326 0.05113 0.91311 0.0
C203 C 0.64275 0.95411 0.84529 0.0
C204 C 0.65505 0.06666 0.79302 0.0
C205 C 0.75927 0.09595 0.88174 0.0
C206 C 0.77603 0.0089 0.81566 0.0
C207 C 0.75403 0.97945 0.93399 0.0
O208 O 0.6102 0.04857 0.88662 0.0
O209 O 0.66607 0.04344 0.90998 0.0
O210 O 0.74045 0.84705 0.35869 0.0
Mg211 Mg 0.7944 0.8598 0.37399 0.0
O212 O 0.71942 0.90049 0.37267 0.0
Mg213 Mg 0.7715 0.93281 0.35965 0.0
O214 O 0.80872 0.90643 0.40224 0.0
O215 O 0.80839 0.85037 0.42711 0.0
O216 O 0.82221 0.96699 0.34669 0.0
O217 O 0.76196 0.97208 0.40885 0.0
Mg218 Mg 0.74274 0.00249 0.34744 0.0
O219 O 0.73419 0.95904 0.31526 0.0
O220 O 0.79714 0.02025 0.35468 0.0
O221 O 0.71099 -0.00297 0.39449 0.0
O222 O 0.71765 0.01583 0.29993 0.0
C223 C 0.8109 0.87439 0.30331 0.0
C224 C 0.71415 0.86803 0.36249 0.0
C225 C 0.81608 0.88462 0.42918 0.0
C226 C 0.82498 0.001 0.35202 0.0
C227 C 0.73607 -0.00762 0.41769 0.0
C228 C 0.7169 0.98133 0.29372 0.0
O229 O 0.82814 0.85829 0.32876 0.0
O230 O 0.78568 0.89641 0.31032 0.0
O231 O 0.22777 0.60624 0.57 0.0
Mg232 Mg 0.28356 0.60706 0.58228 0.0
O233 O 0.22026 0.56035 0.60896 0.0
Mg234 Mg 0.27318 0.52602 0.61459 0.0
O235 O 0.30345 0.55777 0.57123 0.0
O236 O 0.32058 0.60802 0.54124 0.0
O237 O 0.32535 0.49121 0.62057 0.0
O238 O 0.25583 0.49006 0.56461 0.0
Mg239 Mg 0.24876 0.45183 0.6281 0.0
O240 O 0.24124 0.49511 0.66097 0.0
O241 O 0.30233 0.43511 0.62202 0.0
O242 O 0.2148 0.44999 0.5815 0.0
O243 O 0.2267 0.43721 0.67606 0.0
C244 C 0.30236 0.59876 0.66303 0.0
C245 C 0.2074 0.5868 0.59011 0.0
C246 C 0.32171 0.57313 0.54541 0.0
C247 C 0.32929 0.45677 0.62086 0.0
C248 C 0.23214 0.46586 0.55635 0.0
C249 C 0.22629 0.47148 0.68321 0.0
O250 O 0.29949 0.6201 0.63568 0.0
O251 O 0.29478 0.56467 0.66079 0.0
H252 H 0.15547 0.29827 0.43609 0.0
H253 H 0.29126 0.4314 0.53377 0.0
H254 H 0.25027 0.26678 0.49783 0.0
H255 H 0.18027 0.45267 0.50383 0.0
H256 H 0.29042 0.37936 0.49306 0.0
H257 H 0.18026 0.36009 0.43084 0.0
C258 C 0.18265 0.30374 0.44642 0.0
C259 C 0.20078 0.27751 0.46757 0.0
C260 C 0.26678 0.39639 0.49403 0.0
C261 C 0.22822 0.34858 0.46372 0.0
C262 C 0.26733 0.42625 0.51706 0.0
C263 C 0.23563 0.44594 0.52227 0.0
C264 C 0.23429 0.38644 0.47607 0.0
C265 C 0.20509 0.43783 0.5007 0.0
C266 C 0.19649 0.33931 0.4441 0.0
C267 C 0.23536 0.28643 0.4815 0.0
N268 N 0.20497 0.40827 0.47891 0.0
N269 N 0.24753 0.32154 0.48032 0.0
H270 H 0.82238 0.05985 0.78985 0.0
H271 H 0.9079 0.9076 0.67394 0.0
H272 H 0.77146 0.95732 0.76217 0.0
H273 H 0.96429 0.96812 0.75776 0.0
H274 H 0.85807 0.94961 0.6757 0.0
H275 H 0.87012 0.0488 0.74617 0.0
C276 C 0.82057 0.03562 0.77344 0.0
C277 C 0.79407 0.00861 0.78043 0.0
C278 C 0.88194 0.95466 0.69258 0.0
C279 C 0.84809 -0.00383 0.73092 0.0
C280 C 0.91041 0.93068 0.69185 0.0
C281 C 0.93954 0.93367 0.7169 0.0
C282 C 0.88261 0.9819 0.71853 0.0
C283 C 0.94181 0.96432 0.73884 0.0
C284 C 0.84772 0.02949 0.7486 0.0
C285 C 0.79205 0.97829 0.75805 0.0
N286 N 0.91298 -0.01304 0.73985 0.0
N287 N 0.81952 0.97232 0.73477 0.0
H288 H 0.25543 0.71721 0.04494 0.0
H289 H 0.25368 0.53367 0.97839 0.0
H290 H 0.26262 0.6981 0.93012 0.0
H291 H 0.19242 0.55868 0.07328 0.0
H292 H 0.24128 0.59401 0.95342 0.0
H293 H 0.21332 0.66557 0.05039 0.0
C294 C 0.24648 0.70334 0.02052 0.0
C295 C 0.26307 0.71108 -0.01271 0.0
C296 C 0.22914 0.58599 0.97904 0.0
C297 C 0.21747 0.65054 -0.00638 0.0
C298 C 0.23643 0.55153 -0.00667 0.0
C299 C 0.22437 0.54156 0.02806 0.0
C300 C 0.21104 0.61112 0.00043 0.0
C301 C 0.20207 0.56544 0.04636 0.0
C302 C 0.22271 0.6735 0.02359 0.0
C303 C 0.25069 0.69237 0.95641 0.0
N304 N 0.19706 0.59967 0.03286 0.0
N305 N 0.22989 0.66179 0.96051 0.0
H306 H 0.52494 0.02072 0.17903 0.0
H307 H 0.69988 0.00983 0.22716 0.0
H308 H 0.53908 0.03441 0.29462 0.0
H309 H 0.67027 0.92405 0.30285 0.0
H310 H 0.63874 0.0073 0.2011 0.0
H311 H 0.57301 0.9752 0.18066 0.0
C312 C 0.53665 0.01249 0.20506 0.0
C313 C 0.52856 0.03132 0.23678 0.0
C314 C 0.64613 -0.0125 0.22199 0.0
C315 C 0.5825 0.97952 0.23876 0.0
C316 C 0.68107 -0.011 0.23687 0.0
C317 C 0.68966 0.96767 0.2676 0.0
C318 C 0.61957 0.96578 0.23919 0.0
C319 C 0.66433 0.94132 0.27943 0.0
C320 C 0.56402 -0.01332 0.20587 0.0
C321 C 0.54478 0.02043 0.26969 0.0
N322 N 0.62964 0.94242 0.26648 0.0
N323 N 0.57148 -0.00448 0.26977 0.0
H324 H 0.69135 0.15406 0.55905 0.0
H325 H 0.757 0.05686 0.39007 0.0
H326 H 0.70793 0.20335 0.45336 0.0
H327 H 0.7368 0.00231 0.49259 0.0
H328 H 0.76535 0.11376 0.42078 0.0
H329 H 0.73326 0.10606 0.54424 0.0
C330 C 0.70504 0.15547 0.53316 0.0
C331 C 0.69526 0.18164 0.50668 0.0
C332 C 0.75997 0.08944 0.43699 0.0
C333 C 0.74219 0.12652 0.4893 0.0
C334 C 0.75556 0.05662 0.41938 0.0
C335 C 0.74617 0.02478 0.43877 0.0
C336 C 0.75259 0.09113 0.47413 0.0
C337 C 0.74344 0.02646 0.47663 0.0
C338 C 0.72886 0.128 0.52471 0.0
C339 C 0.71415 0.18304 0.47409 0.0
N340 N 0.74557 0.05947 0.49308 0.0
N341 N 0.73601 0.15506 0.46583 0.0
H342 H 0.01918 0.50099 0.70859 0.0
H343 H 0.21254 0.43549 0.74701 0.0
H344 H 0.04757 0.40152 0.76456 0.0
H345 H 0.18514 0.53221 0.68571 0.0
H346 H 0.15524 0.43869 0.77877 0.0
H347 H 0.07875 0.5268 0.72442 0.0
C348 C 0.0376 0.4851 0.72543 0.0
C349 C 0.02888 0.44902 0.7351 0.0
C350 C 0.16218 0.46007 0.75934 0.0
C351 C 0.09737 0.47765 0.75208 0.0
C352 C 0.19506 0.45835 0.74134 0.0
C353 C 0.20276 0.48291 0.71276 0.0
C354 C 0.13661 0.48583 0.74774 0.0
C355 C 0.17971 0.51234 0.70702 0.0
C356 C 0.0716 0.4998 0.73448 0.0
C357 C 0.05334 0.42955 0.75697 0.0
N358 N 0.14692 0.51229 0.72338 0.0
N359 N 0.08694 0.44375 0.76393 0.0
H360 H 0.75652 0.96507 0.00639 0.0
H361 H 0.81215 0.79524 0.01809 0.0
H362 H 0.71419 0.92353 0.90502 0.0
H363 H 0.71568 0.76094 0.95967 0.0
H364 H 0.78624 0.85499 0.02532 0.0
H365 H 0.74791 0.90474 0.03453 0.0
C366 C 0.74426 0.94343 -0.00955 0.0
C367 C 0.73667 0.94879 0.95329 0.0
C368 C 0.76967 0.83395 0.0127 0.0
C369 C 0.72833 0.87992 0.98458 0.0
C370 C 0.78454 0.79961 0.00881 0.0
C371 C 0.7661 0.77348 -0.01203 0.0
C372 C 0.73653 0.84201 -0.005 0.0
C373 C 0.73084 0.78083 0.97546 0.0
C374 C 0.73963 0.90906 0.00641 0.0
C375 C 0.72046 0.92031 0.93376 0.0
N376 N 0.71763 0.81489 0.97804 0.0
N377 N 0.71768 0.88666 0.94944 0.0
H378 H 0.40926 0.58965 0.25498 0.0
H379 H 0.2819 0.42963 0.21146 0.0
H380 H 0.43816 0.47678 0.25239 0.0
H381 H 0.2543 0.54278 0.20319 0.0
H382 H 0.32808 0.44448 0.25741 0.0
H383 H 0.34662 0.5715 0.26739 0.0
C384 C 0.40275 0.56102 0.25899 0.0
C385 C 0.42864 0.53456 0.25244 0.0
C386 C 0.31111 0.46602 0.24667 0.0
C387 C 0.35682 0.51357 0.26448 0.0
C388 C 0.28461 0.45747 0.22058 0.0
C389 C 0.26529 0.4853 0.20298 0.0
C390 C 0.31923 0.50277 0.25372 0.0
C391 C 0.26936 0.52076 0.21577 0.0
C392 C 0.36685 0.55061 0.26568 0.0
C393 C 0.41871 0.4979 0.25689 0.0
N394 N 0.29684 0.52878 0.23958 0.0
N395 N 0.38336 0.48842 0.26183 0.0
H396 H 0.44504 0.14806 0.29576 0.0
H397 H 0.53646 0.27112 0.43279 0.0
H398 H 0.48283 0.25667 0.2697 0.0
H399 H 0.47952 0.17109 0.46016 0.0
H400 H 0.49805 0.27716 0.37821 0.0
H401 H 0.43407 0.16645 0.35765 0.0
C402 C 0.44888 0.17644 0.30245 0.0
C403 C 0.4654 0.20077 0.2779 0.0
C404 C 0.49328 0.25434 0.39663 0.0
C405 C 0.45609 0.22133 0.34946 0.0
C406 C 0.51538 0.25087 0.42772 0.0
C407 C 0.51221 0.21975 0.45002 0.0
C408 C 0.46847 0.22615 0.3877 0.0
C409 C 0.4839 0.19475 0.44274 0.0
C410 C 0.44334 0.1869 0.33821 0.0
C411 C 0.47078 0.23696 0.28832 0.0
N412 N 0.4637 0.19804 0.41179 0.0
N413 N 0.4674 0.24592 0.32377 0.0
H414 H 0.98294 0.22318 0.50506 0.0
H415 H 0.01892 0.2588 0.70957 0.0
H416 H 0.08465 0.22569 0.56473 0.0
H417 H 0.91878 0.28045 0.65202 0.0
H418 H 0.03234 0.2125 0.66477 0.0
H419 H 0.95148 0.2134 0.56339 0.0
C420 C -0.00139 0.22096 0.53016 0.0
C421 C 0.03622 0.22688 0.53026 0.0
C422 C 0.00673 0.22644 0.66262 0.0
C423 C 0.00113 0.2146 0.59617 0.0
C424 C -0.00086 0.25272 0.68832 0.0
C425 C 0.96876 0.27441 0.68301 0.0
C426 C -0.01554 0.22348 0.63114 0.0
C427 C 0.94343 0.26513 0.65569 0.0
C428 C 0.98083 0.21496 0.56328 0.0
C429 C 0.05553 0.22247 0.56326 0.0
N430 N 0.95239 0.24113 0.62987 0.0
N431 N 0.0378 0.21709 0.59474 0.0
H432 H 0.02157 0.83356 0.79776 0.0
H433 H 0.95678 0.68103 0.93101 0.0
H434 H 0.00913 0.71993 0.77289 0.0
H435 H 0.93947 0.79608 0.93948 0.0
H436 H 0.00632 0.69383 0.88871 0.0
H437 H 0.02586 0.81771 0.86229 0.0
C438 C 0.02218 0.80507 0.80564 0.0
C439 C 0.01439 0.77799 0.78012 0.0
C440 C -0.00724 0.71636 0.90101 0.0
C441 C 0.01684 0.75991 0.85388 0.0
C442 C 0.9646 0.70906 0.92518 0.0
C443 C 0.94399 0.73764 0.93814 0.0
C444 C -0.00024 0.75242 0.88951 0.0
C445 C 0.9547 0.77341 0.92968 0.0
C446 C 0.02393 0.79604 0.84268 0.0
C447 C 0.01437 0.7416 0.79199 0.0
N448 N 0.98146 0.77981 0.90528 0.0
N449 N 0.01434 0.7336 0.8282 0.0
H450 H 0.54295 0.69671 0.17294 0.0
H451 H 0.38808 0.77988 0.06189 0.0
H452 H 0.43151 0.70432 0.20463 0.0
H453 H 0.49233 0.74886 0.02302 0.0
H454 H 0.41476 0.78879 0.12235 0.0
H455 H 0.53488 0.74861 0.13138 0.0
C456 C 0.51703 0.71018 0.17181 0.0
C457 C 0.48744 0.69587 0.19105 0.0
C458 C 0.43229 0.78181 0.10023 0.0
C459 C 0.47764 0.7541 0.14292 0.0
C460 C 0.41712 0.7772 0.06551 0.0
C461 C 0.43796 0.76241 0.03804 0.0
C462 C 0.468 0.77054 0.10708 0.0
C463 C 0.47528 0.75929 0.04404 0.0
C464 C 0.51245 0.73986 0.14829 0.0
C465 C 0.45464 0.7143 0.18943 0.0
N466 N 0.48902 0.76212 0.07834 0.0
N467 N 0.45024 0.74195 0.16479 0.0
H468 H 0.17195 0.29253 0.37219 0.0
H469 H 0.13453 0.33771 0.1724 0.0
H470 H 0.06513 0.29205 0.32308 0.0
H471 H 0.17317 0.43309 0.22861 0.0
H472 H 0.13642 0.30341 0.22986 0.0
H473 H 0.19326 0.33386 0.32354 0.0
C474 C 0.15247 0.30312 0.35261 0.0
C475 C 0.11652 0.28991 0.35201 0.0
C476 C 0.14601 0.33146 0.22925 0.0
C477 C 0.14122 0.33398 0.29557 0.0
C478 C 0.14546 0.35078 0.19654 0.0
C479 C 0.15323 0.38808 0.19637 0.0
C480 C 0.15411 0.34992 0.26151 0.0
C481 C 0.16679 0.40422 0.22821 0.0
C482 C 0.1649 0.3258 0.32447 0.0
C483 C 0.09284 0.30227 0.32468 0.0
N484 N 0.16568 0.38523 0.26023 0.0
N485 N 0.10585 0.32301 0.29692 0.0
H486 H 0.94842 0.91174 0.62311 0.0
H487 H 0.88654 0.87649 0.41891 0.0
H488 H 0.96833 0.81352 0.56475 0.0
H489 H 0.81074 0.91637 0.49619 0.0
H490 H 0.93437 0.87851 0.46576 0.0
H491 H 0.91425 0.93555 0.56996 0.0
C492 C 0.94616 0.89561 0.59876 0.0
C493 C 0.96046 0.86046 0.59804 0.0
C494 C 0.90755 0.88789 0.4721 0.0
C495 C 0.92343 0.88793 0.53758 0.0
C496 C 0.88041 0.88669 0.44559 0.0
C497 C 0.84494 0.89529 0.45444 0.0
C498 C 0.89893 0.89793 0.50745 0.0
C499 C 0.8379 0.90881 0.48895 0.0
C500 C 0.92691 0.90923 0.56868 0.0
C501 C 0.95733 0.84056 0.56616 0.0
N502 N 0.86479 0.90916 0.51475 0.0
N503 N 0.93909 0.85464 0.53702 0.0
H504 H 0.33064 0.56415 0.72392 0.0
H505 H 0.34856 0.74774 0.8373 0.0
H506 H 0.30299 0.67027 0.68076 0.0
H507 H 0.3905 0.64455 0.87519 0.0
H508 H 0.33352 0.72019 0.77876 0.0
H509 H 0.35321 0.59309 0.77976 0.0
C510 C 0.32916 0.59342 0.72626 0.0
C511 C 0.31492 0.61478 0.6977 0.0
C512 C 0.3463 0.70369 0.79984 0.0
C513 C 0.34064 0.64802 0.76114 0.0
C514 C 0.355 0.71947 0.83321 0.0
C515 C 0.37046 0.69839 0.86135 0.0
C516 C 0.35278 0.66652 0.79476 0.0
C517 C 0.37834 0.66186 0.85442 0.0
C518 C 0.34225 0.60997 0.75796 0.0
C519 C 0.3139 0.65269 0.70201 0.0
N520 N 0.36904 0.647 0.82198 0.0
N521 N 0.32645 0.66804 0.73313 0.0
H522 H 0.4856 0.09551 0.08479 0.0
H523 H 0.66612 0.09254 0.96627 0.0
H524 H 0.58104 0.16076 0.11011 0.0
H525 H 0.56618 0.03572 0.9392 0.0
H526 H 0.63714 0.1164 0.0207 0.0
H527 H 0.51554 0.07359 0.03107 0.0
C528 C 0.5126 0.10575 0.07874 0.0
C529 C 0.53079 0.12995 0.1021 0.0
C530 C 0.62171 0.09858 0.00284 0.0
C531 C 0.56566 0.10434 0.04089 0.0
C532 C 0.6383 0.08479 0.97207 0.0
C533 C 0.61827 0.06256 0.94816 0.0
C534 C 0.58512 0.08962 0.00961 0.0
C535 C 0.58234 0.0533 0.95667 0.0
C536 C 0.52987 0.09296 0.04818 0.0
C537 C 0.56595 0.14204 0.09291 0.0
N538 N 0.56695 0.06691 -0.01341 0.0
N539 N 0.58237 0.12888 0.06315 0.0
H540 H 0.63218 0.23673 0.64723 0.0
H541 H 0.67768 0.0417 0.72925 0.0
H542 H 0.58932 0.13362 0.61008 0.0
H543 H 0.67613 0.13754 0.79484 0.0
H544 H 0.67301 0.08 0.67453 0.0
H545 H 0.67004 0.20415 0.69234 0.0
C546 C 0.63045 0.20732 0.64899 0.0
C547 C 0.60686 0.18785 0.62587 0.0
C548 C 0.67545 0.09281 0.70084 0.0
C549 C 0.65123 0.1507 0.67537 0.0
C550 C 0.67884 0.07103 0.73199 0.0
C551 C 0.67646 0.08671 0.76627 0.0
C552 C 0.66985 0.13022 0.70457 0.0
C553 C 0.67769 0.12466 0.76865 0.0
C554 C 0.65239 0.18885 0.67413 0.0
C555 C 0.60621 0.14974 0.62829 0.0
N556 N 0.67306 0.14533 0.73806 0.0
N557 N 0.62813 0.1324 0.65262 0.0
H558 H 0.15498 0.44178 0.98563 0.0
H559 H 0.03023 0.29637 0.88511 0.0
H560 H 0.06547 0.38383 0.0357 0.0
H561 H 0.06087 0.3958 0.82823 0.0
H562 H 0.06097 0.31853 0.93932 0.0
H563 H 0.13588 0.41666 0.92631 0.0
C564 C 0.13156 0.42363 0.98414 0.0
C565 C 0.11176 0.41471 0.01544 0.0
C566 C 0.06168 0.33508 0.91466 0.0
C567 C 0.0907 0.38566 0.94871 0.0
C568 C 0.04437 0.32242 0.88345 0.0
C569 C 0.04229 0.34459 0.85193 0.0
C570 C 0.07804 0.36969 0.91428 0.0
C571 C 0.06145 0.37798 0.85186 0.0
C572 C 0.12072 0.40953 0.95047 0.0
C573 C 0.08143 0.39144 0.0122 0.0
N574 N 0.07836 0.38978 0.88281 0.0
N575 N 0.07201 0.37747 0.97946 0.0
H576 H 0.87729 0.87738 0.27315 0.0
H577 H 0.80548 0.79174 0.08926 0.0
H578 H 0.76421 0.85805 0.24768 0.0
H579 H 0.91828 0.80739 0.11808 0.0
H580 H 0.78915 0.83237 0.13814 0.0
H581 H 0.89194 0.86613 0.2097 0.0
C582 C 0.85565 0.87058 0.25402 0.0
C583 C 0.81972 0.86799 0.26534 0.0
C584 C 0.81756 0.82806 0.13294 0.0
C585 C 0.83599 0.85482 0.19308 0.0
C586 C 0.82691 0.80542 0.10456 0.0
C587 C 0.86322 0.79608 0.10012 0.0
C588 C 0.84488 0.84111 0.15672 0.0
C589 C 0.88994 0.81383 0.12103 0.0
C590 C 0.86387 0.86451 0.21782 0.0
C591 C 0.79233 0.86003 0.23969 0.0
N592 N 0.8802 0.83488 0.14906 0.0
N593 N 0.80109 0.85305 0.20474 0.0
H594 H 0.29203 0.52556 0.4973 0.0
H595 H 0.39903 0.64279 0.37213 0.0
H596 H 0.39253 0.5779 0.52981 0.0
H597 H 0.42284 0.53307 0.3422 0.0
H598 H 0.3619 0.61871 0.42181 0.0
H599 H 0.31418 0.52294 0.43451 0.0
C600 C 0.3196 0.53434 0.49166 0.0
C601 C 0.34047 0.55254 0.51818 0.0
C602 C 0.37385 0.59994 0.40317 0.0
C603 C 0.365 0.55038 0.44763 0.0
C604 C 0.3945 0.61364 0.37461 0.0
C605 C 0.4139 0.58976 0.35345 0.0
C606 C 0.37334 0.56238 0.41061 0.0
C607 C 0.40803 0.55213 0.35822 0.0
C608 C 0.33189 0.53329 0.4559 0.0
C609 C 0.37571 0.56394 0.50981 0.0
N610 N 0.38932 0.53934 0.38747 0.0
N611 N 0.38652 0.56379 0.47482 0.0
H612 H 0.19469 0.08622 0.37544 0.0
H613 H 0.3735 0.16476 0.29362 0.0
H614 H 0.23287 0.19599 0.39399 0.0
H615 H 0.34083 0.0518 0.29008 0.0
H616 H 0.33156 0.17367 0.3434 0.0
H617 H 0.2554 0.06977 0.3575 0.0
C618 C 0.21622 0.10666 0.37626 0.0
C619 C 0.20903 0.14251 0.38556 0.0
C620 C 0.33448 0.1466 0.33275 0.0
C621 C 0.2782 0.12442 0.36407 0.0
C622 C 0.3588 0.14146 0.30468 0.0
C623 C 0.36051 0.10751 0.28815 0.0
C624 C 0.31147 0.11763 0.34355 0.0
C625 C 0.33999 0.07841 0.30226 0.0
C626 C 0.2509 0.09733 0.36613 0.0
C627 C 0.23762 0.16805 0.38672 0.0
N628 N 0.31582 0.08427 0.3288 0.0
N629 N 0.27094 0.15874 0.37513 0.0
H630 H 0.10982 0.13208 0.58556 0.0
H631 H 0.08 0.92384 0.58164 0.0
H632 H 0.08749 0.0797 0.48293 0.0
H633 H 0.05831 -0.01178 0.67539 0.0
H634 H 0.07484 0.9784 0.54277 0.0
H635 H 0.08752 0.07851 0.61736 0.0
C636 C 0.10036 0.1092 0.56956 0.0
C637 C 0.10109 0.11034 0.53139 0.0
C638 C 0.0698 0.98039 0.57162 0.0
C639 C 0.07487 0.04841 0.56816 0.0
C640 C 0.0724 0.94925 0.59372 0.0
C641 C 0.06971 0.95194 0.63158 0.0
C642 C 0.06558 0.01424 0.58797 0.0
C643 C 0.06049 0.98526 0.64623 0.0
C644 C 0.08708 0.07867 0.58788 0.0
C645 C 0.08807 0.07975 0.5124 0.0
N646 N 0.05962 0.01541 0.62446 0.0
N647 N 0.07586 0.04971 0.53105 0.0
H648 H 0.12265 0.79544 0.76979 0.0
H649 H 0.24057 0.84026 0.94597 0.0
H650 H 0.11448 0.89223 0.83345 0.0
H651 H 0.28306 0.79293 0.84944 0.0
H652 H 0.17897 0.83238 0.92097 0.0
H653 H 0.16535 0.77047 0.81514 0.0
C654 C 0.12852 0.81059 0.79433 0.0
C655 C 0.11527 0.84584 0.79822 0.0
C656 C 0.20168 0.82232 0.90599 0.0
C657 C 0.16352 0.81754 0.8498 0.0
C658 C 0.23669 0.82655 0.92027 0.0
C659 C 0.26656 0.81747 0.89943 0.0
C660 C 0.19687 0.8092 0.87063 0.0
C661 C 0.26049 0.80023 0.86618 0.0
C662 C 0.15293 0.79642 0.81996 0.0
C663 C 0.12414 0.86492 0.82977 0.0
N664 N 0.22617 0.79732 0.85231 0.0
N665 N 0.14813 0.85062 0.85433 0.0
H666 H 0.44732 0.02907 0.09765 0.0
H667 H 0.32509 0.88027 0.06829 0.0
H668 H 0.39425 -0.01243 0.1936 0.0
H669 H 0.43293 0.86221 0.02987 0.0
H670 H 0.35116 0.91747 0.11748 0.0
H671 H 0.44919 0.96703 0.07445 0.0
C672 C 0.43813 0.00657 0.11478 0.0
C673 C 0.42036 0.01305 0.14728 0.0
C674 C 0.36918 0.90418 0.09909 0.0
C675 C 0.42049 0.94312 0.12037 0.0
C676 C 0.35428 0.88316 0.07113 0.0
C677 C 0.37709 0.86848 0.04544 0.0
C678 C 0.40674 0.91159 0.09999 0.0
C679 C 0.41472 0.87331 0.04951 0.0
C680 C 0.43885 0.97124 0.10146 0.0
C681 C 0.40801 0.98327 0.16824 0.0
N682 N 0.42845 0.89554 0.07563 0.0
N683 N 0.40682 0.94959 0.15373 0.0
H684 H 0.83371 0.33502 0.73794 0.0
H685 H 0.73835 0.28753 0.5491 0.0
H686 H 0.85614 0.38516 0.63333 0.0
H687 H 0.67833 0.28711 0.6485 0.0
H688 H 0.79448 0.29603 0.58431 0.0
H689 H 0.7865 0.29698 0.70873 0.0
C690 C 0.82837 0.33843 0.70902 0.0
C691 C 0.84856 0.36372 0.68815 0.0
C692 C 0.76916 0.29237 0.59857 0.0
C693 C 0.79647 0.319 0.65465 0.0
C694 C 0.73724 0.28666 0.57856 0.0
C695 C 0.70389 0.28788 0.59603 0.0
C696 C 0.76718 0.29856 0.63608 0.0
C697 C 0.70374 0.28676 0.63417 0.0
C698 C 0.80197 0.31632 0.69241 0.0
C699 C 0.84097 0.36652 0.65067 0.0
N700 N 0.73496 0.2936 0.65312 0.0
N701 N 0.8157 0.34426 0.63513 0.0
H702 H 0.95444 0.44139 0.9013 0.0
H703 H 0.8061 0.59679 0.89927 0.0
H704 H 0.88381 0.46478 0.80942 0.0
H705 H 0.88752 0.58524 0.98411 0.0
H706 H 0.83007 0.54396 0.86939 0.0
H707 H 0.92858 0.492 0.93368 0.0
C708 C 0.93367 0.45745 0.88785 0.0
C709 C 0.92095 0.4488 0.8528 0.0
C710 C 0.84254 0.55277 0.89471 0.0
C711 C 0.89077 0.50612 0.88991 0.0
C712 C 0.82866 0.58275 0.91203 0.0
C713 C 0.84528 0.59582 0.94402 0.0
C714 C 0.87319 0.53564 0.90952 0.0
C715 C 0.87411 0.57625 0.95943 0.0
C716 C 0.91882 0.48618 0.9064 0.0
C717 C 0.89436 0.47063 0.8364 0.0
N718 N 0.88748 0.54732 0.94179 0.0
N719 N 0.87983 0.49813 0.8553 0.0
H720 H 0.78989 0.59251 0.11794 0.0
H721 H 0.61036 0.65715 0.2108 0.0
H722 H 0.7423 0.69582 0.09043 0.0
H723 H 0.62814 0.54385 0.18942 0.0
H724 H 0.66426 0.67328 0.17521 0.0
H725 H 0.73483 0.57481 0.15073 0.0
C726 C 0.76744 0.61113 0.11826 0.0
C727 C 0.77023 0.64542 0.10119 0.0
C728 C 0.65647 0.6449 0.17866 0.0
C729 C 0.70813 0.62611 0.13985 0.0
C730 C 0.62618 0.63565 0.19944 0.0
C731 C 0.61515 0.59909 0.20339 0.0
C732 C 0.67615 0.61734 0.16236 0.0
C733 C 0.63599 0.57233 0.18725 0.0
C734 C 0.73622 0.60114 0.13709 0.0
C735 C 0.74079 0.66889 0.10278 0.0
N736 N 0.66561 0.58196 0.16757 0.0
N737 N 0.71105 0.65902 0.12235 0.0
H738 H 0.56824 0.33517 0.41918 0.0
H739 H 0.61823 0.5351 0.37348 0.0
H740 H 0.676 0.38021 0.43447 0.0
H741 H 0.53158 0.48209 0.31308 0.0
H742 H 0.64052 0.4761 0.3927 0.0
H743 H 0.55552 0.38367 0.37422 0.0
C744 C 0.58973 0.35423 0.41182 0.0
C745 C 0.62292 0.3543 0.431 0.0
C746 C 0.61708 0.47711 0.37459 0.0
C747 C 0.60835 0.41001 0.38085 0.0
C748 C 0.60417 0.5109 0.36378 0.0
C749 C 0.57293 0.51348 0.34177 0.0
C750 C 0.59827 0.44538 0.36401 0.0
C751 C 0.55583 0.48119 0.33005 0.0
C752 C 0.58237 0.38211 0.38645 0.0
C753 C 0.64981 0.37968 0.42069 0.0
N754 N 0.56833 0.4483 0.34194 0.0
N755 N 0.64164 0.40707 0.39702 0.0
H756 H 0.26656 0.34162 0.04371 0.0
H757 H 0.38131 0.23187 0.19432 0.0
H758 H 0.26075 0.36317 0.15846 0.0
H759 H 0.3612 0.19401 0.08529 0.0
H760 H 0.34522 0.28603 0.17989 0.0
H761 H 0.3064 0.2907 0.05742 0.0
C762 C 0.27305 0.33496 0.07189 0.0
C763 C 0.26009 0.35616 0.10004 0.0
C764 C 0.34921 0.26607 0.15902 0.0
C765 C 0.30677 0.29901 0.1159 0.0
C766 C 0.37026 0.23561 0.16704 0.0
C767 C 0.37402 0.20865 0.14088 0.0
C768 C 0.33231 0.26944 0.12458 0.0
C769 C 0.35874 0.21426 0.10615 0.0
C770 C 0.29609 0.30623 0.07969 0.0
C771 C 0.26969 0.34694 0.13607 0.0
N772 N 0.33836 0.24392 0.09907 0.0
N773 N 0.29287 0.31919 0.143 0.0
H774 H 0.90946 0.24019 0.78371 0.0
H775 H 0.72296 0.14827 0.84249 0.0
H776 H 0.82121 0.30666 0.81663 0.0
H777 H 0.82976 0.11764 0.88019 0.0
H778 H 0.75072 0.19915 0.80744 0.0
H779 H 0.86973 0.18639 0.78812 0.0
C780 C 0.88102 0.24366 0.78957 0.0
C781 C 0.8684 0.27735 0.80046 0.0
C782 C 0.76777 0.18096 0.82332 0.0
C783 C 0.8235 0.21666 0.80607 0.0
C784 C 0.75208 0.15248 0.84359 0.0
C785 C 0.77403 0.12945 0.86491 0.0
C786 C 0.80558 0.18528 0.82356 0.0
C787 C 0.8117 0.13537 0.86495 0.0
C788 C 0.85857 0.21301 0.79253 0.0
C789 C 0.83167 0.28075 0.80843 0.0
N790 N 0.82629 0.16262 0.84444 0.0
N791 N 0.81045 0.2504 0.81203 0.0
H792 H 0.13151 0.5947 0.09264 0.0
H793 H 0.92777 0.58933 0.03405 0.0
H794 H 0.06204 0.49964 0.08344 0.0
H795 H -0.01035 0.68875 0.0464 0.0
H796 H 0.9836 0.55664 0.0256 0.0
H797 H 0.08746 0.62914 0.05496 0.0
C798 C 0.10718 0.58118 0.08242 0.0
C799 C 0.09932 0.545 0.09219 0.0
C800 C -0.01482 0.58589 0.02869 0.0
C801 C 0.04997 0.58315 0.04873 0.0
C802 C 0.95307 0.60464 0.0326 0.0
C803 C 0.9544 0.64154 0.04101 0.0
C804 C 0.01853 0.60409 0.03518 0.0
C805 C -0.01211 0.66005 0.04025 0.0
C806 C 0.08231 0.60054 0.06069 0.0
C807 C 0.06824 0.52802 0.0775 0.0
N808 N 0.01895 0.64088 0.03888 0.0
N809 N 0.04453 0.54732 0.05694 0.0
H810 H 0.69808 0.83474 0.29956 0.0
H811 H 0.56465 0.71833 0.39754 0.0
H812 H 0.64931 0.87273 0.3974 0.0
H813 H 0.56046 0.71738 0.27991 0.0
H814 H 0.59172 0.77842 0.39532 0.0
H815 H 0.64346 0.79862 0.28628 0.0
C816 C 0.67531 0.83605 0.31777 0.0
C817 C 0.67832 0.85527 0.35036 0.0
C818 C 0.58394 0.7657 0.36991 0.0
C819 C 0.61648 0.81396 0.33568 0.0
C820 C 0.56886 0.73098 0.37108 0.0
C821 C 0.56072 0.71244 0.33879 0.0
C822 C 0.59182 0.78204 0.33626 0.0
C823 C 0.56686 0.73051 0.30544 0.0
C824 C 0.64408 0.81579 0.30998 0.0
C825 C 0.64811 0.8573 0.37255 0.0
N826 N 0.58292 0.76419 0.30499 0.0
N827 N 0.61863 0.83577 0.3654 0.0
H828 H 0.54227 0.36493 0.62865 0.0
H829 H 0.35342 0.43555 0.55626 0.0
H830 H 0.48974 0.3214 0.53269 0.0
H831 H 0.38265 0.43932 0.6701 0.0
H832 H 0.40643 0.39831 0.54542 0.0
H833 H 0.48603 0.39479 0.64408 0.0
C834 C 0.51856 0.36113 0.61122 0.0
C835 C 0.5205 0.34092 0.57929 0.0
C836 C 0.40139 0.40739 0.57275 0.0
C837 C 0.45664 0.37575 0.59619 0.0
C838 C 0.37156 0.42901 0.57881 0.0
C839 C 0.36448 0.44097 0.6139 0.0
C840 C 0.4243 0.39789 0.60207 0.0
C841 C 0.38801 0.43127 0.64251 0.0
C842 C 0.48658 0.37821 0.62 0.0
C843 C 0.48919 0.33671 0.5576 0.0
N844 N 0.41717 0.41035 0.63594 0.0
N845 N 0.45858 0.35464 0.5661 0.0
H846 H 0.17816 0.58911 0.65734 0.0
H847 H 0.08285 0.77391 0.59996 0.0
H848 H 0.16004 0.62383 0.54604 0.0
H849 H 0.12661 0.74873 0.7066 0.0
H850 H 0.0936 0.71095 0.5818 0.0
H851 H 0.13883 0.63715 0.67738 0.0
C852 C 0.16434 0.60554 0.63695 0.0
C853 C 0.17272 0.60283 0.60002 0.0
C854 C 0.10051 0.7191 0.60927 0.0
C855 C 0.12902 0.65879 0.6228 0.0
C856 C 0.0947 0.75493 0.61942 0.0
C857 C 0.10492 0.76621 0.65431 0.0
C858 C 0.11631 0.69464 0.63443 0.0
C859 C 0.11931 0.74088 0.67912 0.0
C860 C 0.14243 0.6335 0.64848 0.0
C861 C 0.15461 0.62544 0.57484 0.0
N862 N 0.1249 0.70622 0.6686 0.0
N863 N 0.13425 0.65312 0.58675 0.0
H864 H 0.4498 0.85302 0.84624 0.0
H865 H 0.63988 0.91951 0.91147 0.0
H866 H 0.48864 0.828 0.95486 0.0
H867 H 0.61026 0.90719 0.79838 0.0
H868 H 0.59104 0.87669 0.92798 0.0
H869 H 0.51193 0.86565 0.82766 0.0
C870 C 0.47166 0.84974 0.86602 0.0
C871 C 0.46433 0.83963 0.90203 0.0
C872 C 0.59612 0.88222 0.89946 0.0
C873 C 0.53557 0.8548 0.88138 0.0
C874 C 0.62443 0.90624 0.88999 0.0
C875 C 0.62863 0.91728 0.85355 0.0
C876 C 0.57201 0.86968 0.8722 0.0
C877 C 0.60754 0.89967 0.82685 0.0
C878 C 0.50718 0.85674 0.85544 0.0
C879 C 0.49344 0.83564 0.92674 0.0
N880 N 0.57945 0.87757 0.83674 0.0
N881 N 0.52787 0.84405 0.91616 0.0
H882 H 0.83806 0.05114 0.4035 0.0
H883 H 0.04111 0.08441 0.34239 0.0
H884 H 0.89128 -0.01243 0.32311 0.0
H885 H -0.00958 0.14906 0.42362 0.0
H886 H -0.01081 0.04316 0.34226 0.0
H887 H 0.89565 0.08151 0.41807 0.0
C888 C 0.862 0.04382 0.38874 0.0
C889 C 0.86005 0.0177 0.36131 0.0
C890 C -0.01069 0.06611 0.36038 0.0
C891 C 0.92574 0.05213 0.37791 0.0
C892 C 0.01889 0.08977 0.36038 0.0
C893 C 0.01949 0.12047 0.38252 0.0
C894 C 0.95971 0.07346 0.38226 0.0
C895 C -0.00938 0.12577 0.40595 0.0
C896 C 0.89483 0.06092 0.3973 0.0
C897 C 0.89178 0.00803 0.344 0.0
N898 N 0.96137 0.10269 0.40476 0.0
N899 N 0.92337 0.02573 0.35222 0.0
loop_
_geom_bond_atom_site_label_1
_geom_bond_atom_site_label_2
_geom_bond_distance
_geom_bond_site_symmetry_2
_ccdc_geom_bond_type
O0 Mg1 1.990 . S
O0 C14 1.253 . S
Mg1 O0 1.990 . S
Mg1 O4 2.180 . S
Mg1 O5 2.117 . S
Mg1 O19 2.030 . S
O2 Mg3 2.072 . S
O2 C14 1.260 . S
Mg3 O2 2.072 . S
Mg3 O4 2.099 . S
Mg3 O6 2.079 . S
Mg3 O7 2.072 . S
Mg3 O9 2.099 . S
Mg3 O20 2.079 . S
O4 Mg1 2.180 . S
O4 Mg3 2.099 . S
O4 C15 1.279 . S
O5 Mg1 2.117 . S
O5 C15 1.250 . S
O6 Mg3 2.079 . S
O6 C16 1.264 . S
O7 Mg3 2.072 . S
O7 C17 1.260 . S
Mg8 O9 2.180 . S
Mg8 O10 2.030 . S
Mg8 O11 1.990 . S
Mg8 O12 2.117 . S
O9 Mg3 2.099 . S
O9 Mg8 2.180 . S
O9 C18 1.279 . S
O10 Mg8 2.030 . S
O10 C16 1.248 . S
O11 Mg8 1.990 . S
O11 C17 1.253 . S
O12 Mg8 2.117 . S
O12 C18 1.250 . S
C13 O19 1.248 . S
C13 O20 1.264 . S
C14 O0 1.253 . S
C14 O2 1.260 . S
C15 O4 1.279 . S
C15 O5 1.250 . S
C16 O6 1.264 . S
C16 O10 1.248 . S
C17 O7 1.260 . S
C17 O11 1.253 . S
C18 O9 1.279 . S
C18 O12 1.250 . S
O19 Mg1 2.030 . S
O19 C13 1.248 . S
O20 Mg3 2.079 . S
O20 C13 1.264 . S
O21 Mg22 1.990 . S
O21 C35 1.253 . S
Mg22 O21 1.990 . S
Mg22 O25 2.180 . S
Mg22 O26 2.117 . S
Mg22 O40 2.030 . S
O23 Mg24 2.072 . S
O23 C35 1.260 . S
Mg24 O23 2.072 . S
Mg24 O25 2.099 . S
Mg24 O27 2.079 . S
Mg24 O28 2.072 . S
Mg24 O30 2.099 . S
Mg24 O41 2.079 . S
O25 Mg22 2.180 . S
O25 Mg24 2.099 . S
O25 C36 1.279 . S
O26 Mg22 2.117 . S
O26 C36 1.250 . S
O27 Mg24 2.079 . S
O27 C37 1.264 1_455 S
O28 Mg24 2.072 . S
O28 C38 1.260 1_455 S
Mg29 O30 2.180 1_655 S
Mg29 O31 2.030 . S
Mg29 O32 1.990 . S
Mg29 O33 2.117 . S
O30 Mg24 2.099 . S
O30 Mg29 2.180 1_455 S
O30 C39 1.279 . S
O31 Mg29 2.030 . S
O31 C37 1.248 . S
O32 Mg29 1.990 . S
O32 C38 1.253 . S
O33 Mg29 2.117 . S
O33 C39 1.250 1_655 S
C34 O40 1.248 . S
C34 O41 1.264 . S
C35 O21 1.253 . S
C35 O23 1.260 . S
C36 O25 1.279 . S
C36 O26 1.250 . S
C37 O27 1.264 1_655 S
C37 O31 1.248 . S
C38 O28 1.260 1_655 S
C38 O32 1.253 . S
C39 O30 1.279 . S
C39 O33 1.250 1_455 S
O40 Mg22 2.030 . S
O40 C34 1.248 . S
O41 Mg24 2.079 . S
O41 C34 1.264 . S
O42 Mg43 1.990 . S
O42 C56 1.253 1_556 S
Mg43 O42 1.990 . S
Mg43 O46 2.180 . S
Mg43 O47 2.117 . S
Mg43 O61 2.030 . S
O44 Mg45 2.072 1_554 S
O44 C56 1.260 . S
Mg45 O44 2.072 1_556 S
Mg45 O46 2.099 . S
Mg45 O48 2.079 . S
Mg45 O49 2.072 . S
Mg45 O51 2.099 . S
Mg45 O62 2.079 . S
O46 Mg43 2.180 . S
O46 Mg45 2.099 . S
O46 C57 1.279 . S
O47 Mg43 2.117 . S
O47 C57 1.250 . S
O48 Mg45 2.079 . S
O48 C58 1.264 . S
O49 Mg45 2.072 . S
O49 C59 1.260 . S
Mg50 O51 2.180 . S
Mg50 O52 2.030 . S
Mg50 O53 1.990 1_556 S
Mg50 O54 2.117 1_556 S
O51 Mg45 2.099 . S
O51 Mg50 2.180 . S
O51 C60 1.279 1_556 S
O52 Mg50 2.030 . S
O52 C58 1.248 . S
O53 Mg50 1.990 1_554 S
O53 C59 1.253 1_554 S
O54 Mg50 2.117 1_554 S
O54 C60 1.250 . S
C55 O61 1.248 . S
C55 O62 1.264 . S
C56 O42 1.253 1_554 S
C56 O44 1.260 . S
C57 O46 1.279 . S
C57 O47 1.250 . S
C58 O48 1.264 . S
C58 O52 1.248 . S
C59 O49 1.260 . S
C59 O53 1.253 1_556 S
C60 O51 1.279 1_554 S
C60 O54 1.250 . S
O61 Mg43 2.030 . S
O61 C55 1.248 . S
O62 Mg45 2.079 . S
O62 C55 1.264 . S
O63 Mg64 1.990 . S
O63 C77 1.253 . S
Mg64 O63 1.990 . S
Mg64 O67 2.180 . S
Mg64 O68 2.117 . S
Mg64 O82 2.030 . S
O65 Mg66 2.072 . S
O65 C77 1.260 . S
Mg66 O65 2.072 . S
Mg66 O67 2.099 . S
Mg66 O69 2.079 . S
Mg66 O70 2.072 . S
Mg66 O72 2.099 . S
Mg66 O83 2.079 . S
O67 Mg64 2.180 . S
O67 Mg66 2.099 . S
O67 C78 1.279 . S
O68 Mg64 2.117 . S
O68 C78 1.250 . S
O69 Mg66 2.079 . S
O69 C79 1.264 . S
O70 Mg66 2.072 . S
O70 C80 1.260 . S
Mg71 O72 2.180 . S
Mg71 O73 2.030 . S
Mg71 O74 1.990 . S
Mg71 O75 2.117 . S
O72 Mg66 2.099 . S
O72 Mg71 2.180 . S
O72 C81 1.279 . S
O73 Mg71 2.030 . S
O73 C79 1.248 . S
O74 Mg71 1.990 . S
O74 C80 1.253 . S
O75 Mg71 2.117 . S
O75 C81 1.250 . S
C76 O82 1.248 . S
C76 O83 1.264 . S
C77 O63 1.253 . S
C77 O65 1.260 . S
C78 O67 1.279 . S
C78 O68 1.250 . S
C79 O69 1.264 . S
C79 O73 1.248 . S
C80 O70 1.260 . S
C80 O74 1.253 . S
C81 O72 1.279 . S
C81 O75 1.250 . S
O82 Mg64 2.030 . S
O82 C76 1.248 . S
O83 Mg66 2.079 . S
O83 C76 1.264 . S
O84 Mg85 1.990 . S
O84 C98 1.253 . S
Mg85 O84 1.990 . S
Mg85 O88 2.180 . S
Mg85 O89 2.117 . S
Mg85 O103 2.030 . S
O86 Mg87 2.072 . S
O86 C98 1.260 . S
Mg87 O86 2.072 . S
Mg87 O88 2.099 . S
Mg87 O90 2.079 . S
Mg87 O91 2.072 . S
Mg87 O93 2.099 . S
Mg87 O104 2.079 . S
O88 Mg85 2.180 . S
O88 Mg87 2.099 . S
O88 C99 1.279 . S
O89 Mg85 2.117 . S
O89 C99 1.250 . S
O90 Mg87 2.079 . S
O90 C100 1.264 . S
O91 Mg87 2.072 . S
O91 C101 1.260 . S
Mg92 O93 2.180 . S
Mg92 O94 2.030 . S
Mg92 O95 1.990 . S
Mg92 O96 2.117 . S
O93 Mg87 2.099 . S
O93 Mg92 2.180 . S
O93 C102 1.279 . S
O94 Mg92 2.030 . S
O94 C100 1.248 . S
O95 Mg92 1.990 . S
O95 C101 1.253 . S
O96 Mg92 2.117 . S
O96 C102 1.250 . S
C97 O103 1.248 . S
C97 O104 1.264 . S
C98 O84 1.253 . S
C98 O86 1.260 . S
C99 O88 1.279 . S
C99 O89 1.250 . S
C100 O90 1.264 . S
C100 O94 1.248 . S
C101 O91 1.260 . S
C101 O95 1.253 . S
C102 O93 1.279 . S
C102 O96 1.250 . S
O103 Mg85 2.030 . S
O103 C97 1.248 . S
O104 Mg87 2.079 . S
O104 C97 1.264 . S
O105 Mg106 1.990 . S
O105 C119 1.253 1_655 S
Mg106 O105 1.990 . S
Mg106 O109 2.180 . S
Mg106 O110 2.117 . S
Mg106 O124 2.030 . S
O107 Mg108 2.072 . S
O107 C119 1.260 1_655 S
Mg108 O107 2.072 . S
Mg108 O109 2.099 . S
Mg108 O111 2.079 . S
Mg108 O112 2.072 . S
Mg108 O114 2.099 . S
Mg108 O125 2.079 . S
O109 Mg106 2.180 . S
O109 Mg108 2.099 . S
O109 C120 1.279 . S
O110 Mg106 2.117 . S
O110 C120 1.250 . S
O111 Mg108 2.079 . S
O111 C121 1.264 . S
O112 Mg108 2.072 . S
O112 C122 1.260 . S
Mg113 O114 2.180 . S
Mg113 O115 2.030 . S
Mg113 O116 1.990 . S
Mg113 O117 2.117 1_655 S
O114 Mg108 2.099 . S
O114 Mg113 2.180 . S
O114 C123 1.279 1_655 S
O115 Mg113 2.030 . S
O115 C121 1.248 . S
O116 Mg113 1.990 . S
O116 C122 1.253 . S
O117 Mg113 2.117 1_455 S
O117 C123 1.250 . S
C118 O124 1.248 . S
C118 O125 1.264 . S
C119 O105 1.253 1_455 S
C119 O107 1.260 1_455 S
C120 O109 1.279 . S
C120 O110 1.250 . S
C121 O111 1.264 . S
C121 O115 1.248 . S
C122 O112 1.260 . S
C122 O116 1.253 . S
C123 O114 1.279 1_455 S
C123 O117 1.250 . S
O124 Mg106 2.030 . S
O124 C118 1.248 . S
O125 Mg108 2.079 . S
O125 C118 1.264 . S
O126 Mg127 1.990 . S
O126 C140 1.253 . S
Mg127 O126 1.990 . S
Mg127 O130 2.180 . S
Mg127 O131 2.117 . S
Mg127 O145 2.030 . S
O128 Mg129 2.072 . S
O128 C140 1.260 . S
Mg129 O128 2.072 . S
Mg129 O130 2.099 . S
Mg129 O132 2.079 . S
Mg129 O133 2.072 . S
Mg129 O135 2.099 . S
Mg129 O146 2.079 . S
O130 Mg127 2.180 . S
O130 Mg129 2.099 . S
O130 C141 1.279 . S
O131 Mg127 2.117 . S
O131 C141 1.250 . S
O132 Mg129 2.079 . S
O132 C142 1.264 1_554 S
O133 Mg129 2.072 . S
O133 C143 1.260 1_554 S
Mg134 O135 2.180 1_556 S
Mg134 O136 2.030 . S
Mg134 O137 1.990 . S
Mg134 O138 2.117 . S
O135 Mg129 2.099 . S
O135 Mg134 2.180 1_554 S
O135 C144 1.279 1_554 S
O136 Mg134 2.030 . S
O136 C142 1.248 . S
O137 Mg134 1.990 . S
O137 C143 1.253 . S
O138 Mg134 2.117 . S
O138 C144 1.250 . S
C139 O145 1.248 . S
C139 O146 1.264 . S
C140 O126 1.253 . S
C140 O128 1.260 . S
C141 O130 1.279 . S
C141 O131 1.250 . S
C142 O132 1.264 1_556 S
C142 O136 1.248 . S
C143 O133 1.260 1_556 S
C143 O137 1.253 . S
C144 O135 1.279 1_556 S
C144 O138 1.250 . S
O145 Mg127 2.030 . S
O145 C139 1.248 . S
O146 Mg129 2.079 . S
O146 C139 1.264 . S
O147 Mg148 1.990 . S
O147 C161 1.253 . S
Mg148 O147 1.990 . S
Mg148 O151 2.180 . S
Mg148 O152 2.117 . S
Mg148 O166 2.030 . S
O149 Mg150 2.072 . S
O149 C161 1.260 . S
Mg150 O149 2.072 . S
Mg150 O151 2.099 . S
Mg150 O153 2.079 . S
Mg150 O154 2.072 . S
Mg150 O156 2.099 . S
Mg150 O167 2.079 . S
O151 Mg148 2.180 . S
O151 Mg150 2.099 . S
O151 C162 1.279 . S
O152 Mg148 2.117 . S
O152 C162 1.250 . S
O153 Mg150 2.079 . S
O153 C163 1.264 . S
O154 Mg150 2.072 . S
O154 C164 1.260 . S
Mg155 O156 2.180 . S
Mg155 O157 2.030 . S
Mg155 O158 1.990 . S
Mg155 O159 2.117 . S
O156 Mg150 2.099 . S
O156 Mg155 2.180 . S
O156 C165 1.279 . S
O157 Mg155 2.030 . S
O157 C163 1.248 . S
O158 Mg155 1.990 . S
O158 C164 1.253 . S
O159 Mg155 2.117 . S
O159 C165 1.250 . S
C160 O166 1.248 . S
C160 O167 1.264 . S
C161 O147 1.253 . S
C161 O149 1.260 . S
C162 O151 1.279 . S
C162 O152 1.250 . S
C163 O153 1.264 . S
C163 O157 1.248 . S
C164 O154 1.260 . S
C164 O158 1.253 . S
C165 O156 1.279 . S
C165 O159 1.250 . S
O166 Mg148 2.030 . S
O166 C160 1.248 . S
O167 Mg150 2.079 . S
O167 C160 1.264 . S
O168 Mg169 1.990 . S
O168 C182 1.253 . S
Mg169 O168 1.990 . S
Mg169 O172 2.180 . S
Mg169 O173 2.117 . S
Mg169 O187 2.030 . S
O170 Mg171 2.072 . S
O170 C182 1.260 . S
Mg171 O170 2.072 . S
Mg171 O172 2.099 . S
Mg171 O174 2.079 . S
Mg171 O175 2.072 . S
Mg171 O177 2.099 . S
Mg171 O188 2.079 . S
O172 Mg169 2.180 . S
O172 Mg171 2.099 . S
O172 C183 1.279 . S
O173 Mg169 2.117 . S
O173 C183 1.250 . S
O174 Mg171 2.079 . S
O174 C184 1.264 . S
O175 Mg171 2.072 . S
O175 C185 1.260 . S
Mg176 O177 2.180 . S
Mg176 O178 2.030 . S
Mg176 O179 1.990 . S
Mg176 O180 2.117 . S
O177 Mg171 2.099 . S
O177 Mg176 2.180 . S
O177 C186 1.279 . S
O178 Mg176 2.030 . S
O178 C184 1.248 . S
O179 Mg176 1.990 . S
O179 C185 1.253 . S
O180 Mg176 2.117 . S
O180 C186 1.250 . S
C181 O187 1.248 . S
C181 O188 1.264 . S
C182 O168 1.253 . S
C182 O170 1.260 . S
C183 O172 1.279 . S
C183 O173 1.250 . S
C184 O174 1.264 . S
C184 O178 1.248 . S
C185 O175 1.260 . S
C185 O179 1.253 . S
C186 O177 1.279 . S
C186 O180 1.250 . S
O187 Mg169 2.030 . S
O187 C181 1.248 . S
O188 Mg171 2.079 . S
O188 C181 1.264 . S
O189 Mg190 1.990 . S
O189 C203 1.253 1_545 S
Mg190 O189 1.990 . S
Mg190 O193 2.180 . S
Mg190 O194 2.117 . S
Mg190 O208 2.030 . S
O191 Mg192 2.072 . S
O191 C203 1.260 1_545 S
Mg192 O191 2.072 . S
Mg192 O193 2.099 . S
Mg192 O195 2.079 . S
Mg192 O196 2.072 . S
Mg192 O198 2.099 . S
Mg192 O209 2.079 . S
O193 Mg190 2.180 . S
O193 Mg192 2.099 . S
O193 C204 1.279 . S
O194 Mg190 2.117 . S
O194 C204 1.250 . S
O195 Mg192 2.079 . S
O195 C205 1.264 . S
O196 Mg192 2.072 . S
O196 C206 1.260 . S
Mg197 O198 2.180 . S
Mg197 O199 2.030 . S
Mg197 O200 1.990 . S
Mg197 O201 2.117 1_545 S
O198 Mg192 2.099 . S
O198 Mg197 2.180 . S
O198 C207 1.279 1_545 S
O199 Mg197 2.030 . S
O199 C205 1.248 . S
O200 Mg197 1.990 . S
O200 C206 1.253 . S
O201 Mg197 2.117 1_565 S
O201 C207 1.250 . S
C202 O208 1.248 . S
C202 O209 1.264 . S
C203 O189 1.253 1_565 S
C203 O191 1.260 1_565 S
C204 O193 1.279 . S
C204 O194 1.250 . S
C205 O195 1.264 . S
C205 O199 1.248 . S
C206 O196 1.260 . S
C206 O200 1.253 . S
C207 O198 1.279 1_565 S
C207 O201 1.250 . S
O208 Mg190 2.030 . S
O208 C202 1.248 . S
O209 Mg192 2.079 . S
O209 C202 1.264 . S
O210 Mg211 1.990 . S
O210 C224 1.253 . S
Mg211 O210 1.990 . S
Mg211 O214 2.180 . S
Mg211 O215 2.117 . S
Mg211 O229 2.030 . S
O212 Mg213 2.072 . S
O212 C224 1.260 . S
Mg213 O212 2.072 . S
Mg213 O214 2.099 . S
Mg213 O216 2.079 . S
Mg213 O217 2.072 . S
Mg213 O219 2.099 . S
Mg213 O230 2.079 . S
O214 Mg211 2.180 . S
O214 Mg213 2.099 . S
O214 C225 1.279 . S
O215 Mg211 2.117 . S
O215 C225 1.250 . S
O216 Mg213 2.079 . S
O216 C226 1.264 1_565 S
O217 Mg213 2.072 . S
O217 C227 1.260 1_565 S
Mg218 O219 2.180 1_545 S
Mg218 O220 2.030 . S
Mg218 O221 1.990 . S
Mg218 O222 2.117 . S
O219 Mg213 2.099 . S
O219 Mg218 2.180 1_565 S
O219 C228 1.279 . S
O220 Mg218 2.030 . S
O220 C226 1.248 . S
O221 Mg218 1.990 . S
O221 C227 1.253 . S
O222 Mg218 2.117 . S
O222 C228 1.250 1_545 S
C223 O229 1.248 . S
C223 O230 1.264 . S
C224 O210 1.253 . S
C224 O212 1.260 . S
C225 O214 1.279 . S
C225 O215 1.250 . S
C226 O216 1.264 1_545 S
C226 O220 1.248 . S
C227 O217 1.260 1_545 S
C227 O221 1.253 . S
C228 O219 1.279 . S
C228 O222 1.250 1_565 S
O229 Mg211 2.030 . S
O229 C223 1.248 . S
O230 Mg213 2.079 . S
O230 C223 1.264 . S
O231 Mg232 1.990 . S
O231 C245 1.253 . S
Mg232 O231 1.990 . S
Mg232 O235 2.180 . S
Mg232 O236 2.117 . S
Mg232 O250 2.030 . S
O233 Mg234 2.072 . S
O233 C245 1.260 . S
Mg234 O233 2.072 . S
Mg234 O235 2.099 . S
Mg234 O237 2.079 . S
Mg234 O238 2.072 . S
Mg234 O240 2.099 . S
Mg234 O251 2.079 . S
O235 Mg232 2.180 . S
O235 Mg234 2.099 . S
O235 C246 1.279 . S
O236 Mg232 2.117 . S
O236 C246 1.250 . S
O237 Mg234 2.079 . S
O237 C247 1.264 . S
O238 Mg234 2.072 . S
O238 C248 1.260 . S
Mg239 O240 2.180 . S
Mg239 O241 2.030 . S
Mg239 O242 1.990 . S
Mg239 O243 2.117 . S
O240 Mg234 2.099 . S
O240 Mg239 2.180 . S
O240 C249 1.279 . S
O241 Mg239 2.030 . S
O241 C247 1.248 . S
O242 Mg239 1.990 . S
O242 C248 1.253 . S
O243 Mg239 2.117 . S
O243 C249 1.250 . S
C244 O250 1.248 . S
C244 O251 1.264 . S
C245 O231 1.253 . S
C245 O233 1.260 . S
C246 O235 1.279 . S
C246 O236 1.250 . S
C247 O237 1.264 . S
C247 O241 1.248 . S
C248 O238 1.260 . S
C248 O242 1.253 . S
C249 O240 1.279 . S
C249 O243 1.250 . S
O250 Mg232 2.030 . S
O250 C244 1.248 . S
O251 Mg234 2.079 . S
O251 C244 1.264 . S
H252 C258 0.930 . S
H253 C262 0.930 . S
H254 C267 0.929 . S
H255 C265 0.929 . S
H256 C260 0.929 . S
H257 C266 0.929 . S
C258 H252 0.930 . S
C258 C259 1.367 . S
C258 C266 1.378 . S
C259 C258 1.367 . S
C259 C267 1.433 . S
C260 H256 0.929 . S
C260 C262 1.378 . S
C260 C264 1.350 . S
C261 C264 1.463 . S
C261 C266 1.350 . S
C261 N269 1.427 . S
C262 H253 0.930 . S
C262 C260 1.378 . S
C262 C263 1.367 . S
C263 C262 1.367 . S
C263 C265 1.433 . S
C264 C260 1.350 . S
C264 C261 1.463 . S
C264 N268 1.427 . S
C265 H255 0.929 . S
C265 C263 1.433 . S
C265 N268 1.384 . S
C266 H257 0.929 . S
C266 C258 1.378 . S
C266 C261 1.350 . S
C267 H254 0.929 . S
C267 C259 1.433 . S
C267 N269 1.384 . S
N268 C264 1.427 . S
N268 C265 1.384 . S
N269 C261 1.427 . S
N269 C267 1.384 . S
H270 C276 0.930 . S
H271 C280 0.930 . S
H272 C285 0.929 . S
H273 C283 0.929 1_545 S
H274 C278 0.929 . S
H275 C284 0.929 . S
C276 H270 0.930 . S
C276 C277 1.367 . S
C276 C284 1.378 . S
C277 C276 1.367 . S
C277 C285 1.433 1_545 S
C278 H274 0.929 . S
C278 C280 1.378 . S
C278 C282 1.350 . S
C279 C282 1.463 . S
C279 C284 1.350 1_565 S
C279 N287 1.427 . S
C280 H271 0.930 . S
C280 C278 1.378 . S
C280 C281 1.367 . S
C281 C280 1.367 . S
C281 C283 1.433 . S
C282 C278 1.350 . S
C282 C279 1.463 . S
C282 N286 1.427 1_565 S
C283 H273 0.929 1_565 S
C283 C281 1.433 . S
C283 N286 1.384 1_565 S
C284 H275 0.929 . S
C284 C276 1.378 . S
C284 C279 1.350 1_545 S
C285 H272 0.929 . S
C285 C277 1.433 1_565 S
C285 N287 1.384 . S
N286 C282 1.427 1_545 S
N286 C283 1.384 1_545 S
N287 C279 1.427 . S
N287 C285 1.384 . S
H288 C294 0.930 . S
H289 C298 0.930 . S
H290 C303 0.929 . S
H291 C301 0.929 . S
H292 C296 0.929 . S
H293 C302 0.929 . S
C294 H288 0.930 . S
C294 C295 1.367 1_554 S
C294 C302 1.378 . S
C295 C294 1.367 1_556 S
C295 C303 1.433 . S
C296 H292 0.929 . S
C296 C298 1.378 . S
C296 C300 1.350 . S
C297 C300 1.463 . S
C297 C302 1.350 . S
C297 N305 1.427 . S
C298 H289 0.930 . S
C298 C296 1.378 . S
C298 C299 1.367 . S
C299 C298 1.367 . S
C299 C301 1.433 . S
C300 C296 1.350 . S
C300 C297 1.463 . S
C300 N304 1.427 . S
C301 H291 0.929 . S
C301 C299 1.433 . S
C301 N304 1.384 . S
C302 H293 0.929 . S
C302 C294 1.378 . S
C302 C297 1.350 . S
C303 H290 0.929 . S
C303 C295 1.433 . S
C303 N305 1.384 1_556 S
N304 C300 1.427 . S
N304 C301 1.384 . S
N305 C297 1.427 . S
N305 C303 1.384 1_554 S
H306 C312 0.930 1_565 S
H307 C316 0.930 . S
H308 C321 0.929 . S
H309 C319 0.929 . S
H310 C314 0.929 . S
H311 C320 0.929 . S
C312 H306 0.930 1_545 S
C312 C313 1.367 . S
C312 C320 1.378 1_545 S
C313 C312 1.367 . S
C313 C321 1.433 . S
C314 H310 0.929 . S
C314 C316 1.378 . S
C314 C318 1.350 . S
C315 C318 1.463 . S
C315 C320 1.350 1_545 S
C315 N323 1.427 . S
C316 H307 0.930 . S
C316 C314 1.378 . S
C316 C317 1.367 1_545 S
C317 C316 1.367 1_565 S
C317 C319 1.433 . S
C318 C314 1.350 . S
C318 C315 1.463 . S
C318 N322 1.427 1_545 S
C319 H309 0.929 . S
C319 C317 1.433 . S
C319 N322 1.384 . S
C320 H311 0.929 . S
C320 C312 1.378 1_565 S
C320 C315 1.350 1_565 S
C321 H308 0.929 . S
C321 C313 1.433 . S
C321 N323 1.384 . S
N322 C318 1.427 1_565 S
N322 C319 1.384 . S
N323 C315 1.427 . S
N323 C321 1.384 . S
H324 C330 0.930 . S
H325 C334 0.930 . S
H326 C339 0.929 . S
H327 C337 0.929 . S
H328 C332 0.929 . S
H329 C338 0.929 . S
C330 H324 0.930 . S
C330 C331 1.367 . S
C330 C338 1.378 . S
C331 C330 1.367 . S
C331 C339 1.433 . S
C332 H328 0.929 . S
C332 C334 1.378 . S
C332 C336 1.350 . S
C333 C336 1.463 . S
C333 C338 1.350 . S
C333 N341 1.427 . S
C334 H325 0.930 . S
C334 C332 1.378 . S
C334 C335 1.367 . S
C335 C334 1.367 . S
C335 C337 1.433 . S
C336 C332 1.350 . S
C336 C333 1.463 . S
C336 N340 1.427 . S
C337 H327 0.929 . S
C337 C335 1.433 . S
C337 N340 1.384 . S
C338 H329 0.929 . S
C338 C330 1.378 . S
C338 C333 1.350 . S
C339 H326 0.929 . S
C339 C331 1.433 . S
C339 N341 1.384 . S
N340 C336 1.427 . S
N340 C337 1.384 . S
N341 C333 1.427 . S
N341 C339 1.384 . S
H342 C348 0.930 . S
H343 C352 0.930 . S
H344 C357 0.929 . S
H345 C355 0.929 . S
H346 C350 0.929 . S
H347 C356 0.929 . S
C348 H342 0.930 . S
C348 C349 1.367 . S
C348 C356 1.378 . S
C349 C348 1.367 . S
C349 C357 1.433 . S
C350 H346 0.929 . S
C350 C352 1.378 . S
C350 C354 1.350 . S
C351 C354 1.463 . S
C351 C356 1.350 . S
C351 N359 1.427 . S
C352 H343 0.930 . S
C352 C350 1.378 . S
C352 C353 1.367 . S
C353 C352 1.367 . S
C353 C355 1.433 . S
C354 C350 1.350 . S
C354 C351 1.463 . S
C354 N358 1.427 . S
C355 H345 0.929 . S
C355 C353 1.433 . S
C355 N358 1.384 . S
C356 H347 0.929 . S
C356 C348 1.378 . S
C356 C351 1.350 . S
C357 H344 0.929 . S
C357 C349 1.433 . S
C357 N359 1.384 . S
N358 C354 1.427 . S
N358 C355 1.384 . S
N359 C351 1.427 . S
N359 C357 1.384 . S
H360 C366 0.930 . S
H361 C370 0.930 . S
H362 C375 0.929 . S
H363 C373 0.929 . S
H364 C368 0.929 . S
H365 C374 0.929 1_554 S
C366 H360 0.930 . S
C366 C367 1.367 . S
C366 C374 1.378 . S
C367 C366 1.367 . S
C367 C375 1.433 . S
C368 H364 0.929 . S
C368 C370 1.378 . S
C368 C372 1.350 . S
C369 C372 1.463 . S
C369 C374 1.350 . S
C369 N377 1.427 . S
C370 H361 0.930 . S
C370 C368 1.378 . S
C370 C371 1.367 1_556 S
C371 C370 1.367 1_554 S
C371 C373 1.433 . S
C372 C368 1.350 . S
C372 C369 1.463 . S
C372 N376 1.427 1_556 S
C373 H363 0.929 . S
C373 C371 1.433 . S
C373 N376 1.384 . S
C374 H365 0.929 1_556 S
C374 C366 1.378 . S
C374 C369 1.350 . S
C375 H362 0.929 . S
C375 C367 1.433 . S
C375 N377 1.384 . S
N376 C372 1.427 1_554 S
N376 C373 1.384 . S
N377 C369 1.427 . S
N377 C375 1.384 . S
H378 C384 0.930 . S
H379 C388 0.930 . S
H380 C393 0.929 . S
H381 C391 0.929 . S
H382 C386 0.929 . S
H383 C392 0.929 . S
C384 H378 0.930 . S
C384 C385 1.367 . S
C384 C392 1.378 . S
C385 C384 1.367 . S
C385 C393 1.433 . S
C386 H382 0.929 . S
C386 C388 1.378 . S
C386 C390 1.350 . S
C387 C390 1.463 . S
C387 C392 1.350 . S
C387 N395 1.427 . S
C388 H379 0.930 . S
C388 C386 1.378 . S
C388 C389 1.367 . S
C389 C388 1.367 . S
C389 C391 1.433 . S
C390 C386 1.350 . S
C390 C387 1.463 . S
C390 N394 1.427 . S
C391 H381 0.929 . S
C391 C389 1.433 . S
C391 N394 1.384 . S
C392 H383 0.929 . S
C392 C384 1.378 . S
C392 C387 1.350 . S
C393 H380 0.929 . S
C393 C385 1.433 . S
C393 N395 1.384 . S
N394 C390 1.427 . S
N394 C391 1.384 . S
N395 C387 1.427 . S
N395 C393 1.384 . S
H396 C402 0.930 . S
H397 C406 0.930 . S
H398 C411 0.929 . S
H399 C409 0.929 . S
H400 C404 0.929 . S
H401 C410 0.929 . S
C402 H396 0.930 . S
C402 C403 1.367 . S
C402 C410 1.378 . S
C403 C402 1.367 . S
C403 C411 1.433 . S
C404 H400 0.929 . S
C404 C406 1.378 . S
C404 C408 1.350 . S
C405 C408 1.463 . S
C405 C410 1.350 . S
C405 N413 1.427 . S
C406 H397 0.930 . S
C406 C404 1.378 . S
C406 C407 1.367 . S
C407 C406 1.367 . S
C407 C409 1.433 . S
C408 C404 1.350 . S
C408 C405 1.463 . S
C408 N412 1.427 . S
C409 H399 0.929 . S
C409 C407 1.433 . S
C409 N412 1.384 . S
C410 H401 0.929 . S
C410 C402 1.378 . S
C410 C405 1.350 . S
C411 H398 0.929 . S
C411 C403 1.433 . S
C411 N413 1.384 . S
N412 C408 1.427 . S
N412 C409 1.384 . S
N413 C405 1.427 . S
N413 C411 1.384 . S
H414 C420 0.930 1_655 S
H415 C424 0.930 . S
H416 C429 0.929 . S
H417 C427 0.929 . S
H418 C422 0.929 . S
H419 C428 0.929 . S
C420 H414 0.930 1_455 S
C420 C421 1.367 . S
C420 C428 1.378 1_455 S
C421 C420 1.367 . S
C421 C429 1.433 . S
C422 H418 0.929 . S
C422 C424 1.378 . S
C422 C426 1.350 . S
C423 C426 1.463 . S
C423 C428 1.350 1_455 S
C423 N431 1.427 . S
C424 H415 0.930 . S
C424 C422 1.378 . S
C424 C425 1.367 1_455 S
C425 C424 1.367 1_655 S
C425 C427 1.433 . S
C426 C422 1.350 . S
C426 C423 1.463 . S
C426 N430 1.427 1_455 S
C427 H417 0.929 . S
C427 C425 1.433 . S
C427 N430 1.384 . S
C428 H419 0.929 . S
C428 C420 1.378 1_655 S
C428 C423 1.350 1_655 S
C429 H416 0.929 . S
C429 C421 1.433 . S
C429 N431 1.384 . S
N430 C426 1.427 1_655 S
N430 C427 1.384 . S
N431 C423 1.427 . S
N431 C429 1.384 . S
H432 C438 0.930 . S
H433 C442 0.930 . S
H434 C447 0.929 . S
H435 C445 0.929 . S
H436 C440 0.929 1_455 S
H437 C446 0.929 . S
C438 H432 0.930 . S
C438 C439 1.367 1_655 S
C438 C446 1.378 . S
C439 C438 1.367 1_455 S
C439 C447 1.433 . S
C440 H436 0.929 1_655 S
C440 C442 1.378 . S
C440 C444 1.350 . S
C441 C444 1.463 . S
C441 C446 1.350 . S
C441 N449 1.427 1_655 S
C442 H433 0.930 . S
C442 C440 1.378 . S
C442 C443 1.367 . S
C443 C442 1.367 . S
C443 C445 1.433 . S
C444 C440 1.350 . S
C444 C441 1.463 . S
C444 N448 1.427 . S
C445 H435 0.929 . S
C445 C443 1.433 . S
C445 N448 1.384 . S
C446 H437 0.929 . S
C446 C438 1.378 . S
C446 C441 1.350 . S
C447 H434 0.929 . S
C447 C439 1.433 . S
C447 N449 1.384 . S
N448 C444 1.427 . S
N448 C445 1.384 . S
N449 C441 1.427 1_455 S
N449 C447 1.384 . S
H450 C456 0.930 . S
H451 C460 0.930 . S
H452 C465 0.929 . S
H453 C463 0.929 . S
H454 C458 0.929 . S
H455 C464 0.929 . S
C456 H450 0.930 . S
C456 C457 1.367 . S
C456 C464 1.378 . S
C457 C456 1.367 . S
C457 C465 1.433 . S
C458 H454 0.929 . S
C458 C460 1.378 . S
C458 C462 1.350 . S
C459 C462 1.463 . S
C459 C464 1.350 . S
C459 N467 1.427 . S
C460 H451 0.930 . S
C460 C458 1.378 . S
C460 C461 1.367 . S
C461 C460 1.367 . S
C461 C463 1.433 . S
C462 C458 1.350 . S
C462 C459 1.463 . S
C462 N466 1.427 . S
C463 H453 0.929 . S
C463 C461 1.433 . S
C463 N466 1.384 . S
C464 H455 0.929 . S
C464 C456 1.378 . S
C464 C459 1.350 . S
C465 H452 0.929 . S
C465 C457 1.433 . S
C465 N467 1.384 . S
N466 C462 1.427 . S
N466 C463 1.384 . S
N467 C459 1.427 . S
N467 C465 1.384 . S
H468 C474 0.930 . S
H469 C478 0.930 . S
H470 C483 0.929 . S
H471 C481 0.929 . S
H472 C476 0.929 . S
H473 C482 0.929 . S
C474 H468 0.930 . S
C474 C475 1.367 . S
C474 C482 1.378 . S
C475 C474 1.367 . S
C475 C483 1.433 . S
C476 H472 0.929 . S
C476 C478 1.378 . S
C476 C480 1.350 . S
C477 C480 1.463 . S
C477 C482 1.350 . S
C477 N485 1.427 . S
C478 H469 0.930 . S
C478 C476 1.378 . S
C478 C479 1.367 . S
C479 C478 1.367 . S
C479 C481 1.433 . S
C480 C476 1.350 . S
C480 C477 1.463 . S
C480 N484 1.427 . S
C481 H471 0.929 . S
C481 C479 1.433 . S
C481 N484 1.384 . S
C482 H473 0.929 . S
C482 C474 1.378 . S
C482 C477 1.350 . S
C483 H470 0.929 . S
C483 C475 1.433 . S
C483 N485 1.384 . S
N484 C480 1.427 . S
N484 C481 1.384 . S
N485 C477 1.427 . S
N485 C483 1.384 . S
H486 C492 0.930 . S
H487 C496 0.930 . S
H488 C501 0.929 . S
H489 C499 0.929 . S
H490 C494 0.929 . S
H491 C500 0.929 . S
C492 H486 0.930 . S
C492 C493 1.367 . S
C492 C500 1.378 . S
C493 C492 1.367 . S
C493 C501 1.433 . S
C494 H490 0.929 . S
C494 C496 1.378 . S
C494 C498 1.350 . S
C495 C498 1.463 . S
C495 C500 1.350 . S
C495 N503 1.427 . S
C496 H487 0.930 . S
C496 C494 1.378 . S
C496 C497 1.367 . S
C497 C496 1.367 . S
C497 C499 1.433 . S
C498 C494 1.350 . S
C498 C495 1.463 . S
C498 N502 1.427 . S
C499 H489 0.929 . S
C499 C497 1.433 . S
C499 N502 1.384 . S
C500 H491 0.929 . S
C500 C492 1.378 . S
C500 C495 1.350 . S
C501 H488 0.929 . S
C501 C493 1.433 . S
C501 N503 1.384 . S
N502 C498 1.427 . S
N502 C499 1.384 . S
N503 C495 1.427 . S
N503 C501 1.384 . S
H504 C510 0.930 . S
H505 C514 0.930 . S
H506 C519 0.929 . S
H507 C517 0.929 . S
H508 C512 0.929 . S
H509 C518 0.929 . S
C510 H504 0.930 . S
C510 C511 1.367 . S
C510 C518 1.378 . S
C511 C510 1.367 . S
C511 C519 1.433 . S
C512 H508 0.929 . S
C512 C514 1.378 . S
C512 C516 1.350 . S
C513 C516 1.463 . S
C513 C518 1.350 . S
C513 N521 1.427 . S
C514 H505 0.930 . S
C514 C512 1.378 . S
C514 C515 1.367 . S
C515 C514 1.367 . S
C515 C517 1.433 . S
C516 C512 1.350 . S
C516 C513 1.463 . S
C516 N520 1.427 . S
C517 H507 0.929 . S
C517 C515 1.433 . S
C517 N520 1.384 . S
C518 H509 0.929 . S
C518 C510 1.378 . S
C518 C513 1.350 . S
C519 H506 0.929 . S
C519 C511 1.433 . S
C519 N521 1.384 . S
N520 C516 1.427 . S
N520 C517 1.384 . S
N521 C513 1.427 . S
N521 C519 1.384 . S
H522 C528 0.930 . S
H523 C532 0.930 . S
H524 C537 0.929 . S
H525 C535 0.929 . S
H526 C530 0.929 . S
H527 C536 0.929 . S
C528 H522 0.930 . S
C528 C529 1.367 . S
C528 C536 1.378 . S
C529 C528 1.367 . S
C529 C537 1.433 . S
C530 H526 0.929 . S
C530 C532 1.378 1_554 S
C530 C534 1.350 . S
C531 C534 1.463 . S
C531 C536 1.350 . S
C531 N539 1.427 . S
C532 H523 0.930 . S
C532 C530 1.378 1_556 S
C532 C533 1.367 . S
C533 C532 1.367 . S
C533 C535 1.433 . S
C534 C530 1.350 . S
C534 C531 1.463 . S
C534 N538 1.427 1_554 S
C535 H525 0.929 . S
C535 C533 1.433 . S
C535 N538 1.384 . S
C536 H527 0.929 . S
C536 C528 1.378 . S
C536 C531 1.350 . S
C537 H524 0.929 . S
C537 C529 1.433 . S
C537 N539 1.384 . S
N538 C534 1.427 1_556 S
N538 C535 1.384 . S
N539 C531 1.427 . S
N539 C537 1.384 . S
H540 C546 0.930 . S
H541 C550 0.930 . S
H542 C555 0.929 . S
H543 C553 0.929 . S
H544 C548 0.929 . S
H545 C554 0.929 . S
C546 H540 0.930 . S
C546 C547 1.367 . S
C546 C554 1.378 . S
C547 C546 1.367 . S
C547 C555 1.433 . S
C548 H544 0.929 . S
C548 C550 1.378 . S
C548 C552 1.350 . S
C549 C552 1.463 . S
C549 C554 1.350 . S
C549 N557 1.427 . S
C550 H541 0.930 . S
C550 C548 1.378 . S
C550 C551 1.367 . S
C551 C550 1.367 . S
C551 C553 1.433 . S
C552 C548 1.350 . S
C552 C549 1.463 . S
C552 N556 1.427 . S
C553 H543 0.929 . S
C553 C551 1.433 . S
C553 N556 1.384 . S
C554 H545 0.929 . S
C554 C546 1.378 . S
C554 C549 1.350 . S
C555 H542 0.929 . S
C555 C547 1.433 . S
C555 N557 1.384 . S
N556 C552 1.427 . S
N556 C553 1.384 . S
N557 C549 1.427 . S
N557 C555 1.384 . S
H558 C564 0.930 . S
H559 C568 0.930 1_655 S
H560 C573 0.929 . S
H561 C571 0.929 . S
H562 C566 0.929 . S
H563 C572 0.929 . S
C564 H558 0.930 . S
C564 C565 1.367 1_556 S
C564 C572 1.378 . S
C565 C564 1.367 1_554 S
C565 C573 1.433 . S
C566 H562 0.929 . S
C566 C568 1.378 . S
C566 C570 1.350 . S
C567 C570 1.463 . S
C567 C572 1.350 . S
C567 N575 1.427 1_556 S
C568 H559 0.930 1_455 S
C568 C566 1.378 . S
C568 C569 1.367 . S
C569 C568 1.367 . S
C569 C571 1.433 . S
C570 C566 1.350 . S
C570 C567 1.463 . S
C570 N574 1.427 . S
C571 H561 0.929 . S
C571 C569 1.433 . S
C571 N574 1.384 . S
C572 H563 0.929 . S
C572 C564 1.378 . S
C572 C567 1.350 . S
C573 H560 0.929 . S
C573 C565 1.433 . S
C573 N575 1.384 . S
N574 C570 1.427 . S
N574 C571 1.384 . S
N575 C567 1.427 1_554 S
N575 C573 1.384 . S
H576 C582 0.930 . S
H577 C586 0.930 . S
H578 C591 0.929 . S
H579 C589 0.929 . S
H580 C584 0.929 . S
H581 C590 0.929 . S
C582 H576 0.930 . S
C582 C583 1.367 . S
C582 C590 1.378 . S
C583 C582 1.367 . S
C583 C591 1.433 . S
C584 H580 0.929 . S
C584 C586 1.378 . S
C584 C588 1.350 . S
C585 C588 1.463 . S
C585 C590 1.350 . S
C585 N593 1.427 . S
C586 H577 0.930 . S
C586 C584 1.378 . S
C586 C587 1.367 . S
C587 C586 1.367 . S
C587 C589 1.433 . S
C588 C584 1.350 . S
C588 C585 1.463 . S
C588 N592 1.427 . S
C589 H579 0.929 . S
C589 C587 1.433 . S
C589 N592 1.384 . S
C590 H581 0.929 . S
C590 C582 1.378 . S
C590 C585 1.350 . S
C591 H578 0.929 . S
C591 C583 1.433 . S
C591 N593 1.384 . S
N592 C588 1.427 . S
N592 C589 1.384 . S
N593 C585 1.427 . S
N593 C591 1.384 . S
H594 C600 0.930 . S
H595 C604 0.930 . S
H596 C609 0.929 . S
H597 C607 0.929 . S
H598 C602 0.929 . S
H599 C608 0.929 . S
C600 H594 0.930 . S
C600 C601 1.367 . S
C600 C608 1.378 . S
C601 C600 1.367 . S
C601 C609 1.433 . S
C602 H598 0.929 . S
C602 C604 1.378 . S
C602 C606 1.350 . S
C603 C606 1.463 . S
C603 C608 1.350 . S
C603 N611 1.427 . S
C604 H595 0.930 . S
C604 C602 1.378 . S
C604 C605 1.367 . S
C605 C604 1.367 . S
C605 C607 1.433 . S
C606 C602 1.350 . S
C606 C603 1.463 . S
C606 N610 1.427 . S
C607 H597 0.929 . S
C607 C605 1.433 . S
C607 N610 1.384 . S
C608 H599 0.929 . S
C608 C600 1.378 . S
C608 C603 1.350 . S
C609 H596 0.929 . S
C609 C601 1.433 . S
C609 N611 1.384 . S
N610 C606 1.427 . S
N610 C607 1.384 . S
N611 C603 1.427 . S
N611 C609 1.384 . S
H612 C618 0.930 . S
H613 C622 0.930 . S
H614 C627 0.929 . S
H615 C625 0.929 . S
H616 C620 0.929 . S
H617 C626 0.929 . S
C618 H612 0.930 . S
C618 C619 1.367 . S
C618 C626 1.378 . S
C619 C618 1.367 . S
C619 C627 1.433 . S
C620 H616 0.929 . S
C620 C622 1.378 . S
C620 C624 1.350 . S
C621 C624 1.463 . S
C621 C626 1.350 . S
C621 N629 1.427 . S
C622 H613 0.930 . S
C622 C620 1.378 . S
C622 C623 1.367 . S
C623 C622 1.367 . S
C623 C625 1.433 . S
C624 C620 1.350 . S
C624 C621 1.463 . S
C624 N628 1.427 . S
C625 H615 0.929 . S
C625 C623 1.433 . S
C625 N628 1.384 . S
C626 H617 0.929 . S
C626 C618 1.378 . S
C626 C621 1.350 . S
C627 H614 0.929 . S
C627 C619 1.433 . S
C627 N629 1.384 . S
N628 C624 1.427 . S
N628 C625 1.384 . S
N629 C621 1.427 . S
N629 C627 1.384 . S
H630 C636 0.930 . S
H631 C640 0.930 . S
H632 C645 0.929 . S
H633 C643 0.929 . S
H634 C638 0.929 . S
H635 C644 0.929 . S
C636 H630 0.930 . S
C636 C637 1.367 . S
C636 C644 1.378 . S
C637 C636 1.367 . S
C637 C645 1.433 . S
C638 H634 0.929 . S
C638 C640 1.378 . S
C638 C642 1.350 1_565 S
C639 C642 1.463 . S
C639 C644 1.350 . S
C639 N647 1.427 . S
C640 H631 0.930 . S
C640 C638 1.378 . S
C640 C641 1.367 . S
C641 C640 1.367 . S
C641 C643 1.433 . S
C642 C638 1.350 1_545 S
C642 C639 1.463 . S
C642 N646 1.427 . S
C643 H633 0.929 . S
C643 C641 1.433 . S
C643 N646 1.384 1_565 S
C644 H635 0.929 . S
C644 C636 1.378 . S
C644 C639 1.350 . S
C645 H632 0.929 . S
C645 C637 1.433 . S
C645 N647 1.384 . S
N646 C642 1.427 . S
N646 C643 1.384 1_545 S
N647 C639 1.427 . S
N647 C645 1.384 . S
H648 C654 0.930 . S
H649 C658 0.930 . S
H650 C663 0.929 . S
H651 C661 0.929 . S
H652 C656 0.929 . S
H653 C662 0.929 . S
C654 H648 0.930 . S
C654 C655 1.367 . S
C654 C662 1.378 . S
C655 C654 1.367 . S
C655 C663 1.433 . S
C656 H652 0.929 . S
C656 C658 1.378 . S
C656 C660 1.350 . S
C657 C660 1.463 . S
C657 C662 1.350 . S
C657 N665 1.427 . S
C658 H649 0.930 . S
C658 C656 1.378 . S
C658 C659 1.367 . S
C659 C658 1.367 . S
C659 C661 1.433 . S
C660 C656 1.350 . S
C660 C657 1.463 . S
C660 N664 1.427 . S
C661 H651 0.929 . S
C661 C659 1.433 . S
C661 N664 1.384 . S
C662 H653 0.929 . S
C662 C654 1.378 . S
C662 C657 1.350 . S
C663 H650 0.929 . S
C663 C655 1.433 . S
C663 N665 1.384 . S
N664 C660 1.427 . S
N664 C661 1.384 . S
N665 C657 1.427 . S
N665 C663 1.384 . S
H666 C672 0.930 . S
H667 C676 0.930 . S
H668 C681 0.929 . S
H669 C679 0.929 . S
H670 C674 0.929 . S
H671 C680 0.929 . S
C672 H666 0.930 . S
C672 C673 1.367 . S
C672 C680 1.378 1_545 S
C673 C672 1.367 . S
C673 C681 1.433 . S
C674 H670 0.929 . S
C674 C676 1.378 . S
C674 C678 1.350 . S
C675 C678 1.463 . S
C675 C680 1.350 . S
C675 N683 1.427 . S
C676 H667 0.930 . S
C676 C674 1.378 . S
C676 C677 1.367 . S
C677 C676 1.367 . S
C677 C679 1.433 . S
C678 C674 1.350 . S
C678 C675 1.463 . S
C678 N682 1.427 . S
C679 H669 0.929 . S
C679 C677 1.433 . S
C679 N682 1.384 . S
C680 H671 0.929 . S
C680 C672 1.378 1_565 S
C680 C675 1.350 . S
C681 H668 0.929 . S
C681 C673 1.433 . S
C681 N683 1.384 1_545 S
N682 C678 1.427 . S
N682 C679 1.384 . S
N683 C675 1.427 . S
N683 C681 1.384 1_565 S
H684 C690 0.930 . S
H685 C694 0.930 . S
H686 C699 0.929 . S
H687 C697 0.929 . S
H688 C692 0.929 . S
H689 C698 0.929 . S
C690 H684 0.930 . S
C690 C691 1.367 . S
C690 C698 1.378 . S
C691 C690 1.367 . S
C691 C699 1.433 . S
C692 H688 0.929 . S
C692 C694 1.378 . S
C692 C696 1.350 . S
C693 C696 1.463 . S
C693 C698 1.350 . S
C693 N701 1.427 . S
C694 H685 0.930 . S
C694 C692 1.378 . S
C694 C695 1.367 . S
C695 C694 1.367 . S
C695 C697 1.433 . S
C696 C692 1.350 . S
C696 C693 1.463 . S
C696 N700 1.427 . S
C697 H687 0.929 . S
C697 C695 1.433 . S
C697 N700 1.384 . S
C698 H689 0.929 . S
C698 C690 1.378 . S
C698 C693 1.350 . S
C699 H686 0.929 . S
C699 C691 1.433 . S
C699 N701 1.384 . S
N700 C696 1.427 . S
N700 C697 1.384 . S
N701 C693 1.427 . S
N701 C699 1.384 . S
H702 C708 0.930 . S
H703 C712 0.930 . S
H704 C717 0.929 . S
H705 C715 0.929 . S
H706 C710 0.929 . S
H707 C716 0.929 . S
C708 H702 0.930 . S
C708 C709 1.367 . S
C708 C716 1.378 . S
C709 C708 1.367 . S
C709 C717 1.433 . S
C710 H706 0.929 . S
C710 C712 1.378 . S
C710 C714 1.350 . S
C711 C714 1.463 . S
C711 C716 1.350 . S
C711 N719 1.427 . S
C712 H703 0.930 . S
C712 C710 1.378 . S
C712 C713 1.367 . S
C713 C712 1.367 . S
C713 C715 1.433 . S
C714 C710 1.350 . S
C714 C711 1.463 . S
C714 N718 1.427 . S
C715 H705 0.929 . S
C715 C713 1.433 . S
C715 N718 1.384 . S
C716 H707 0.929 . S
C716 C708 1.378 . S
C716 C711 1.350 . S
C717 H704 0.929 . S
C717 C709 1.433 . S
C717 N719 1.384 . S
N718 C714 1.427 . S
N718 C715 1.384 . S
N719 C711 1.427 . S
N719 C717 1.384 . S
H720 C726 0.930 . S
H721 C730 0.930 . S
H722 C735 0.929 . S
H723 C733 0.929 . S
H724 C728 0.929 . S
H725 C734 0.929 . S
C726 H720 0.930 . S
C726 C727 1.367 . S
C726 C734 1.378 . S
C727 C726 1.367 . S
C727 C735 1.433 . S
C728 H724 0.929 . S
C728 C730 1.378 . S
C728 C732 1.350 . S
C729 C732 1.463 . S
C729 C734 1.350 . S
C729 N737 1.427 . S
C730 H721 0.930 . S
C730 C728 1.378 . S
C730 C731 1.367 . S
C731 C730 1.367 . S
C731 C733 1.433 . S
C732 C728 1.350 . S
C732 C729 1.463 . S
C732 N736 1.427 . S
C733 H723 0.929 . S
C733 C731 1.433 . S
C733 N736 1.384 . S
C734 H725 0.929 . S
C734 C726 1.378 . S
C734 C729 1.350 . S
C735 H722 0.929 . S
C735 C727 1.433 . S
C735 N737 1.384 . S
N736 C732 1.427 . S
N736 C733 1.384 . S
N737 C729 1.427 . S
N737 C735 1.384 . S
H738 C744 0.930 . S
H739 C748 0.930 . S
H740 C753 0.929 . S
H741 C751 0.929 . S
H742 C746 0.929 . S
H743 C752 0.929 . S
C744 H738 0.930 . S
C744 C745 1.367 . S
C744 C752 1.378 . S
C745 C744 1.367 . S
C745 C753 1.433 . S
C746 H742 0.929 . S
C746 C748 1.378 . S
C746 C750 1.350 . S
C747 C750 1.463 . S
C747 C752 1.350 . S
C747 N755 1.427 . S
C748 H739 0.930 . S
C748 C746 1.378 . S
C748 C749 1.367 . S
C749 C748 1.367 . S
C749 C751 1.433 . S
C750 C746 1.350 . S
C750 C747 1.463 . S
C750 N754 1.427 . S
C751 H741 0.929 . S
C751 C749 1.433 . S
C751 N754 1.384 . S
C752 H743 0.929 . S
C752 C744 1.378 . S
C752 C747 1.350 . S
C753 H740 0.929 . S
C753 C745 1.433 . S
C753 N755 1.384 . S
N754 C750 1.427 . S
N754 C751 1.384 . S
N755 C747 1.427 . S
N755 C753 1.384 . S
H756 C762 0.930 . S
H757 C766 0.930 . S
H758 C771 0.929 . S
H759 C769 0.929 . S
H760 C764 0.929 . S
H761 C770 0.929 . S
C762 H756 0.930 . S
C762 C763 1.367 . S
C762 C770 1.378 . S
C763 C762 1.367 . S
C763 C771 1.433 . S
C764 H760 0.929 . S
C764 C766 1.378 . S
C764 C768 1.350 . S
C765 C768 1.463 . S
C765 C770 1.350 . S
C765 N773 1.427 . S
C766 H757 0.930 . S
C766 C764 1.378 . S
C766 C767 1.367 . S
C767 C766 1.367 . S
C767 C769 1.433 . S
C768 C764 1.350 . S
C768 C765 1.463 . S
C768 N772 1.427 . S
C769 H759 0.929 . S
C769 C767 1.433 . S
C769 N772 1.384 . S
C770 H761 0.929 . S
C770 C762 1.378 . S
C770 C765 1.350 . S
C771 H758 0.929 . S
C771 C763 1.433 . S
C771 N773 1.384 . S
N772 C768 1.427 . S
N772 C769 1.384 . S
N773 C765 1.427 . S
N773 C771 1.384 . S
H774 C780 0.930 . S
H775 C784 0.930 . S
H776 C789 0.929 . S
H777 C787 0.929 . S
H778 C782 0.929 . S
H779 C788 0.929 . S
C780 H774 0.930 . S
C780 C781 1.367 . S
C780 C788 1.378 . S
C781 C780 1.367 . S
C781 C789 1.433 . S
C782 H778 0.929 . S
C782 C784 1.378 . S
C782 C786 1.350 . S
C783 C786 1.463 . S
C783 C788 1.350 . S
C783 N791 1.427 . S
C784 H775 0.930 . S
C784 C782 1.378 . S
C784 C785 1.367 . S
C785 C784 1.367 . S
C785 C787 1.433 . S
C786 C782 1.350 . S
C786 C783 1.463 . S
C786 N790 1.427 . S
C787 H777 0.929 . S
C787 C785 1.433 . S
C787 N790 1.384 . S
C788 H779 0.929 . S
C788 C780 1.378 . S
C788 C783 1.350 . S
C789 H776 0.929 . S
C789 C781 1.433 . S
C789 N791 1.384 . S
N790 C786 1.427 . S
N790 C787 1.384 . S
N791 C783 1.427 . S
N791 C789 1.384 . S
H792 C798 0.930 . S
H793 C802 0.930 . S
H794 C807 0.929 . S
H795 C805 0.929 . S
H796 C800 0.929 . S
H797 C806 0.929 . S
C798 H792 0.930 . S
C798 C799 1.367 . S
C798 C806 1.378 . S
C799 C798 1.367 . S
C799 C807 1.433 . S
C800 H796 0.929 . S
C800 C802 1.378 . S
C800 C804 1.350 1_655 S
C801 C804 1.463 . S
C801 C806 1.350 . S
C801 N809 1.427 . S
C802 H793 0.930 . S
C802 C800 1.378 . S
C802 C803 1.367 . S
C803 C802 1.367 . S
C803 C805 1.433 . S
C804 C800 1.350 1_455 S
C804 C801 1.463 . S
C804 N808 1.427 . S
C805 H795 0.929 . S
C805 C803 1.433 . S
C805 N808 1.384 1_655 S
C806 H797 0.929 . S
C806 C798 1.378 . S
C806 C801 1.350 . S
C807 H794 0.929 . S
C807 C799 1.433 . S
C807 N809 1.384 . S
N808 C804 1.427 . S
N808 C805 1.384 1_455 S
N809 C801 1.427 . S
N809 C807 1.384 . S
H810 C816 0.930 . S
H811 C820 0.930 . S
H812 C825 0.929 . S
H813 C823 0.929 . S
H814 C818 0.929 . S
H815 C824 0.929 . S
C816 H810 0.930 . S
C816 C817 1.367 . S
C816 C824 1.378 . S
C817 C816 1.367 . S
C817 C825 1.433 . S
C818 H814 0.929 . S
C818 C820 1.378 . S
C818 C822 1.350 . S
C819 C822 1.463 . S
C819 C824 1.350 . S
C819 N827 1.427 . S
C820 H811 0.930 . S
C820 C818 1.378 . S
C820 C821 1.367 . S
C821 C820 1.367 . S
C821 C823 1.433 . S
C822 C818 1.350 . S
C822 C819 1.463 . S
C822 N826 1.427 . S
C823 H813 0.929 . S
C823 C821 1.433 . S
C823 N826 1.384 . S
C824 H815 0.929 . S
C824 C816 1.378 . S
C824 C819 1.350 . S
C825 H812 0.929 . S
C825 C817 1.433 . S
C825 N827 1.384 . S
N826 C822 1.427 . S
N826 C823 1.384 . S
N827 C819 1.427 . S
N827 C825 1.384 . S
H828 C834 0.930 . S
H829 C838 0.930 . S
H830 C843 0.929 . S
H831 C841 0.929 . S
H832 C836 0.929 . S
H833 C842 0.929 . S
C834 H828 0.930 . S
C834 C835 1.367 . S
C834 C842 1.378 . S
C835 C834 1.367 . S
C835 C843 1.433 . S
C836 H832 0.929 . S
C836 C838 1.378 . S
C836 C840 1.350 . S
C837 C840 1.463 . S
C837 C842 1.350 . S
C837 N845 1.427 . S
C838 H829 0.930 . S
C838 C836 1.378 . S
C838 C839 1.367 . S
C839 C838 1.367 . S
C839 C841 1.433 . S
C840 C836 1.350 . S
C840 C837 1.463 . S
C840 N844 1.427 . S
C841 H831 0.929 . S
C841 C839 1.433 . S
C841 N844 1.384 . S
C842 H833 0.929 . S
C842 C834 1.378 . S
C842 C837 1.350 . S
C843 H830 0.929 . S
C843 C835 1.433 . S
C843 N845 1.384 . S
N844 C840 1.427 . S
N844 C841 1.384 . S
N845 C837 1.427 . S
N845 C843 1.384 . S
H846 C852 0.930 . S
H847 C856 0.930 . S
H848 C861 0.929 . S
H849 C859 0.929 . S
H850 C854 0.929 . S
H851 C860 0.929 . S
C852 H846 0.930 . S
C852 C853 1.367 . S
C852 C860 1.378 . S
C853 C852 1.367 . S
C853 C861 1.433 . S
C854 H850 0.929 . S
C854 C856 1.378 . S
C854 C858 1.350 . S
C855 C858 1.463 . S
C855 C860 1.350 . S
C855 N863 1.427 . S
C856 H847 0.930 . S
C856 C854 1.378 . S
C856 C857 1.367 . S
C857 C856 1.367 . S
C857 C859 1.433 . S
C858 C854 1.350 . S
C858 C855 1.463 . S
C858 N862 1.427 . S
C859 H849 0.929 . S
C859 C857 1.433 . S
C859 N862 1.384 . S
C860 H851 0.929 . S
C860 C852 1.378 . S
C860 C855 1.350 . S
C861 H848 0.929 . S
C861 C853 1.433 . S
C861 N863 1.384 . S
N862 C858 1.427 . S
N862 C859 1.384 . S
N863 C855 1.427 . S
N863 C861 1.384 . S
H864 C870 0.930 . S
H865 C874 0.930 . S
H866 C879 0.929 . S
H867 C877 0.929 . S
H868 C872 0.929 . S
H869 C878 0.929 . S
C870 H864 0.930 . S
C870 C871 1.367 . S
C870 C878 1.378 . S
C871 C870 1.367 . S
C871 C879 1.433 . S
C872 H868 0.929 . S
C872 C874 1.378 . S
C872 C876 1.350 . S
C873 C876 1.463 . S
C873 C878 1.350 . S
C873 N881 1.427 . S
C874 H865 0.930 . S
C874 C872 1.378 . S
C874 C875 1.367 . S
C875 C874 1.367 . S
C875 C877 1.433 . S
C876 C872 1.350 . S
C876 C873 1.463 . S
C876 N880 1.427 . S
C877 H867 0.929 . S
C877 C875 1.433 . S
C877 N880 1.384 . S
C878 H869 0.929 . S
C878 C870 1.378 . S
C878 C873 1.350 . S
C879 H866 0.929 . S
C879 C871 1.433 . S
C879 N881 1.384 . S
N880 C876 1.427 . S
N880 C877 1.384 . S
N881 C873 1.427 . S
N881 C879 1.384 . S
H882 C888 0.930 . S
H883 C892 0.930 . S
H884 C897 0.929 . S
H885 C895 0.929 . S
H886 C890 0.928 1_655 S
H887 C896 0.929 . S
C888 H882 0.930 . S
C888 C889 1.367 . S
C888 C896 1.378 . S
C889 C888 1.367 . S
C889 C897 1.433 . S
C890 H886 0.928 1_455 S
C890 C892 1.382 . S
C890 C894 1.346 1_455 S
C891 C894 1.463 . S
C891 C896 1.350 . S
C891 N899 1.427 . S
C892 H883 0.930 . S
C892 C890 1.382 . S
C892 C893 1.367 . S
C893 C892 1.367 . S
C893 C895 1.433 . S
C894 C890 1.346 1_655 S
C894 C891 1.463 . S
C894 N898 1.427 . S
C895 H885 0.929 . S
C895 C893 1.433 . S
C895 N898 1.384 1_455 S
C896 H887 0.929 . S
C896 C888 1.378 . S
C896 C891 1.350 . S
C897 H884 0.929 . S
C897 C889 1.433 . S
C897 N899 1.384 . S
N898 C894 1.427 . S
N898 C895 1.384 1_655 S
N899 C891 1.427 . S
N899 C897 1.384 . S
C259 C18 1.200 . S
C263 C248 1.219 . S
C277 C206 1.264 . S
C281 C38 1.253 . S
C295 C59 1.239 . S
C299 C186 1.180 . S
C313 C80 1.245 . S
C317 C228 1.177 . S
C331 C101 1.263 . S
C335 C227 1.253 . S
C349 C123 1.179 . S
C353 C249 1.159 . S
C367 C207 1.190 . S
C371 C144 1.153 1_554 S
C385 C165 1.176 . S
C389 C185 1.232 . S
C403 C81 1.154 . S
C407 C102 1.190 . S
C421 C17 1.282 . S
C425 C122 1.265 . S
C439 C39 1.179 . S
C443 C143 1.239 . S
C457 C164 1.220 . S
C461 C60 1.186 . S
C475 C14 1.254 . S
C479 C183 1.173 . S
C493 C37 1.227 . S
C497 C225 1.117 . S
C511 C244 1.195 . S
C515 C58 1.201 . S
C529 C79 1.179 . S
C533 C202 1.175 . S
C547 C100 1.126 . S
C551 C204 1.014 . S
C565 C181 1.222 . S
C569 C119 1.158 . S
C583 C223 1.277 . S
C587 C140 1.227 . S
C601 C246 1.169 . S
C605 C161 1.215 . S
C619 C13 1.275 . S
C623 C77 1.230 . S
C637 C16 1.228 . S
C641 C36 1.135 . S
C655 C35 1.240 . S
C659 C57 1.173 . S
C673 C78 1.167 . S
C677 C56 1.221 . S
C691 C121 1.124 . S
C695 C99 1.012 . S
C709 C118 1.162 . S
C713 C142 1.175 . S
C727 C139 1.188 . S
C731 C163 1.195 . S
C745 C98 1.178 . S
C749 C160 1.213 . S
C763 C184 1.203 . S
C767 C76 1.189 . S
C781 C120 1.013 . S
C785 C205 1.125 . S
C799 C182 1.227 . S
C803 C141 1.156 . S
C817 C224 1.244 . S
C821 C162 1.169 . S
C835 C97 1.166 . S
C839 C247 1.171 . S
C853 C245 1.229 . S
C857 C34 1.275 . S
C871 C55 1.217 . S
C875 C203 1.171 . S
C889 C226 1.228 . S
C893 C15 1.116 . S
