# Generated by pormake.
# Topology wiu, (6)-cn, num edge types: 1
# Building blocks:
#     Node 0, Type 0, BuildingBlock: IZENUY_clean_sbu_0, # of connection points: 6
#     Node 1, Type 0, BuildingBlock: IZENUY_clean_sbu_0, # of connection points: 6
#     Node 2, Type 0, BuildingBlock: IZENUY_clean_sbu_0, # of connection points: 6
#     Node 3, Type 0, BuildingBlock: IZENUY_clean_sbu_0, # of connection points: 6
#     Node 4, Type 0, BuildingBlock: IZENUY_clean_sbu_0, # of connection points: 6
#     Node 5, Type 0, BuildingBlock: IZENUY_clean_sbu_0, # of connection points: 6
#     Node 6, Type 0, BuildingBlock: IZENUY_clean_sbu_0, # of connection points: 6
#     Node 7, Type 0, BuildingBlock: IZENUY_clean_sbu_0, # of connection points: 6
#     Node 8, Type 0, BuildingBlock: IZENUY_clean_sbu_0, # of connection points: 6
#     Node 9, Type 0, BuildingBlock: IZENUY_clean_sbu_0, # of connection points: 6
#     Node 10, Type 0, BuildingBlock: IZENUY_clean_sbu_0, # of connection points: 6
#     Node 11, Type 0, BuildingBlock: IZENUY_clean_sbu_0, # of connection points: 6
#     Node 12, Type 0, BuildingBlock: IZENUY_clean_sbu_0, # of connection points: 6
#     Node 13, Type 0, BuildingBlock: IZENUY_clean_sbu_0, # of connection points: 6
#     Node 14, Type 0, BuildingBlock: IZENUY_clean_sbu_0, # of connection points: 6
#     Node 15, Type 0, BuildingBlock: IZENUY_clean_sbu_0, # of connection points: 6
#     Edge 16, Type (0, 0), BuildingBlock: AJUNOK_clean_linker_0, # of connection points: 2
#     Edge 17, Type (0, 0), BuildingBlock: AJUNOK_clean_linker_0, # of connection points: 2
#     Edge 18, Type (0, 0), BuildingBlock: AJUNOK_clean_linker_0, # of connection points: 2
#     Edge 19, Type (0, 0), BuildingBlock: AJUNOK_clean_linker_0, # of connection points: 2
#     Edge 20, Type (0, 0), BuildingBlock: AJUNOK_clean_linker_0, # of connection points: 2
#     Edge 21, Type (0, 0), BuildingBlock: AJUNOK_clean_linker_0, # of connection points: 2
#     Edge 22, Type (0, 0), BuildingBlock: AJUNOK_clean_linker_0, # of connection points: 2
#     Edge 23, Type (0, 0), BuildingBlock: AJUNOK_clean_linker_0, # of connection points: 2
#     Edge 24, Type (0, 0), BuildingBlock: AJUNOK_clean_linker_0, # of connection points: 2
#     Edge 25, Type (0, 0), BuildingBlock: AJUNOK_clean_linker_0, # of connection points: 2
#     Edge 26, Type (0, 0), BuildingBlock: AJUNOK_clean_linker_0, # of connection points: 2
#     Edge 27, Type (0, 0), BuildingBlock: AJUNOK_clean_linker_0, # of connection points: 2
#     Edge 28, Type (0, 0), BuildingBlock: AJUNOK_clean_linker_0, # of connection points: 2
#     Edge 29, Type (0, 0), BuildingBlock: AJUNOK_clean_linker_0, # of connection points: 2
#     Edge 30, Type (0, 0), BuildingBlock: AJUNOK_clean_linker_0, # of connection points: 2
#     Edge 31, Type (0, 0), BuildingBlock: AJUNOK_clean_linker_0, # of connection points: 2
#     Edge 32, Type (0, 0), BuildingBlock: AJUNOK_clean_linker_0, # of connection points: 2
#     Edge 33, Type (0, 0), BuildingBlock: AJUNOK_clean_linker_0, # of connection points: 2
#     Edge 34, Type (0, 0), BuildingBlock: AJUNOK_clean_linker_0, # of connection points: 2
#     Edge 35, Type (0, 0), BuildingBlock: AJUNOK_clean_linker_0, # of connection points: 2
#     Edge 36, Type (0, 0), BuildingBlock: AJUNOK_clean_linker_0, # of connection points: 2
#     Edge 37, Type (0, 0), BuildingBlock: AJUNOK_clean_linker_0, # of connection points: 2
#     Edge 38, Type (0, 0), BuildingBlock: AJUNOK_clean_linker_0, # of connection points: 2
#     Edge 39, Type (0, 0), BuildingBlock: AJUNOK_clean_linker_0, # of connection points: 2
#     Edge 40, Type (0, 0), BuildingBlock: AJUNOK_clean_linker_0, # of connection points: 2
#     Edge 41, Type (0, 0), BuildingBlock: AJUNOK_clean_linker_0, # of connection points: 2
#     Edge 42, Type (0, 0), BuildingBlock: AJUNOK_clean_linker_0, # of connection points: 2
#     Edge 43, Type (0, 0), BuildingBlock: AJUNOK_clean_linker_0, # of connection points: 2
#     Edge 44, Type (0, 0), BuildingBlock: AJUNOK_clean_linker_0, # of connection points: 2
#     Edge 45, Type (0, 0), BuildingBlock: AJUNOK_clean_linker_0, # of connection points: 2
#     Edge 46, Type (0, 0), BuildingBlock: AJUNOK_clean_linker_0, # of connection points: 2
#     Edge 47, Type (0, 0), BuildingBlock: AJUNOK_clean_linker_0, # of connection points: 2
#     Edge 48, Type (0, 0), BuildingBlock: AJUNOK_clean_linker_0, # of connection points: 2
#     Edge 49, Type (0, 0), BuildingBlock: AJUNOK_clean_linker_0, # of connection points: 2
#     Edge 50, Type (0, 0), BuildingBlock: AJUNOK_clean_linker_0, # of connection points: 2
#     Edge 51, Type (0, 0), BuildingBlock: AJUNOK_clean_linker_0, # of connection points: 2
#     Edge 52, Type (0, 0), BuildingBlock: AJUNOK_clean_linker_0, # of connection points: 2
#     Edge 53, Type (0, 0), BuildingBlock: AJUNOK_clean_linker_0, # of connection points: 2
#     Edge 54, Type (0, 0), BuildingBlock: AJUNOK_clean_linker_0, # of connection points: 2
#     Edge 55, Type (0, 0), BuildingBlock: AJUNOK_clean_linker_0, # of connection points: 2
#     Edge 56, Type (0, 0), BuildingBlock: AJUNOK_clean_linker_0, # of connection points: 2
#     Edge 57, Type (0, 0), BuildingBlock: AJUNOK_clean_linker_0, # of connection points: 2
#     Edge 58, Type (0, 0), BuildingBlock: AJUNOK_clean_linker_0, # of connection points: 2
#     Edge 59, Type (0, 0), BuildingBlock: AJUNOK_clean_linker_0, # of connection points: 2
#     Edge 60, Type (0, 0), BuildingBlock: AJUNOK_clean_linker_0, # of connection points: 2
#     Edge 61, Type (0, 0), BuildingBlock: AJUNOK_clean_linker_0, # of connection points: 2
#     Edge 62, Type (0, 0), BuildingBlock: AJUNOK_clean_linker_0, # of connection points: 2
#     Edge 63, Type (0, 0), BuildingBlock: AJUNOK_clean_linker_0, # of connection points: 2
# Relax obj value: 0.193
# Max RMSD: 0.208
# Mean RMSD: 0.207
data_MOF--net-wiu--node1-IZENUY_clean_sbu_0--edge1-AJUNOK_clean_linker_0
_symmetry_space_group_name_H-M    P1
_symmetry_Int_Tables_number       1
_symmetry_cell_setting            triclinic
loop_
_symmetry_equiv_pos_as_xyz
'x, y, z'
_cell_length_a     23.193916
_cell_length_b     23.147839
_cell_length_c     41.103987
_cell_angle_alpha  90.195648
_cell_angle_beta   89.801488
_cell_angle_gamma 90.004203
loop_
_atom_site_label
_atom_site_type_symbol
_atom_site_fract_x
_atom_site_fract_y
_atom_site_fract_z
_atom_type_partial_charge
Fe0 Fe 0.35207 0.0884 0.05708 0.0
Fe1 Fe 0.40169 0.21026 0.04641 0.0
O2 O 0.36577 0.15929 0.07122 0.0
Fe3 Fe 0.34611 0.17885 0.11145 0.0
O4 O 0.39439 0.12566 0.12687 0.0
O5 O 0.36379 0.0539 0.09651 0.0
O6 O 0.4281 0.07445 0.04758 0.0
C7 C 0.45856 0.10402 0.02815 0.0
C8 C 0.25298 0.10726 0.09252 0.0
O9 O 0.4464 0.15694 0.02354 0.0
C10 C 0.31707 0.27799 0.08195 0.0
O11 O 0.33914 0.11186 0.01594 0.0
O12 O 0.34678 0.20716 0.01562 0.0
O13 O 0.2839 0.12994 0.11433 0.0
O14 O 0.27442 0.09604 0.06486 0.0
C15 C 0.45309 0.23125 0.10443 0.0
O16 O 0.36272 0.27343 0.06457 0.0
O17 O 0.2981 0.23486 0.09741 0.0
C18 C 0.33123 0.16034 0.00265 0.0
O19 O 0.45986 0.21519 0.0754 0.0
O20 O 0.40396 0.23095 0.11732 0.0
C21 C 0.39263 0.07269 0.12032 0.0
Fe22 Fe 0.76402 0.60509 0.304 0.0
Fe23 Fe 0.67316 0.59657 0.35868 0.0
O24 O 0.69282 0.61697 0.31864 0.0
Fe25 Fe 0.641 0.65201 0.29424 0.0
O26 O 0.64457 0.59562 0.26418 0.0
O27 O 0.73982 0.59124 0.26226 0.0
O28 O 0.75984 0.52717 0.31199 0.0
C29 C 0.7469 0.50503 0.33921 0.0
C30 C 0.74547 0.71116 0.27499 0.0
O31 O 0.72141 0.53431 0.3608 0.0
C32 C 0.62253 0.70421 0.35244 0.0
O33 O 0.79865 0.61848 0.34362 0.0
O34 O 0.72596 0.64446 0.37482 0.0
O35 O 0.693 0.69723 0.27062 0.0
O36 O 0.77581 0.68175 0.29445 0.0
C37 C 0.57319 0.56844 0.33042 0.0
O38 O 0.62185 0.65493 0.36508 0.0
O39 O 0.63656 0.71072 0.32308 0.0
C40 C 0.77873 0.64536 0.36812 0.0
O41 O 0.61719 0.54854 0.34439 0.0
O42 O 0.57773 0.61378 0.31293 0.0
C43 C 0.69074 0.58469 0.24909 0.0
Fe44 Fe 0.23326 0.91769 0.61303 0.0
Fe45 Fe 0.23361 1.00694 0.55821 0.0
O46 O 0.21906 0.93607 0.57205 0.0
Fe47 Fe 0.18743 0.88393 0.54619 0.0
O48 O 0.12557 0.87863 0.57284 0.0
O49 O 0.17615 0.86473 0.6167 0.0
O50 O 0.18178 0.9704 0.62605 0.0
C51 C 0.18429 1.02341 0.61979 0.0
C52 C 0.26859 0.81853 0.58496 0.0
O53 O 0.21591 1.04203 0.597 0.0
C54 C 0.26285 0.93404 0.50503 0.0
O55 O 0.29362 0.9677 0.61834 0.0
O56 O 0.31 1.00054 0.56928 0.0
O57 O 0.22514 0.82187 0.56595 0.0
O58 O 0.28422 0.8621 0.60135 0.0
C59 C 0.13117 0.98868 0.5254 0.0
O60 O 0.25277 0.98282 0.51773 0.0
O61 O 0.24618 0.88739 0.51762 0.0
C62 C 0.32714 0.99061 0.59792 0.0
O63 O 0.15885 1.01971 0.54546 0.0
O64 O 0.14493 0.9359 0.52164 0.0
C65 C 0.1287 0.86468 0.60229 0.0
Fe66 Fe 0.82771 0.49092 0.8028 0.0
Fe67 Fe 0.94934 0.44105 0.79191 0.0
O68 O 0.89848 0.47656 0.81693 0.0
Fe69 Fe 0.91873 0.49522 0.85712 0.0
O70 O 0.86503 0.44761 0.87273 0.0
O71 O 0.79295 0.47739 0.84251 0.0
O72 O 0.81344 0.41465 0.792 0.0
C73 C 0.84375 0.38491 0.77233 0.0
C74 C 0.84586 0.58873 0.83986 0.0
O75 O 0.89647 0.39789 0.76822 0.0
C76 C 1.01914 0.52253 0.82837 0.0
O77 O 0.85199 0.50519 0.7612 0.0
O78 O 0.94701 0.49824 0.76247 0.0
O79 O 0.87105 0.55783 0.86065 0.0
O80 O 0.83479 0.56861 0.81183 0.0
C81 C 0.96605 0.38668 0.84935 0.0
O82 O 1.01318 0.47732 0.81077 0.0
O83 O 0.97578 0.54295 0.84314 0.0
C84 C 0.901 0.51012 0.74764 0.0
O85 O 0.9523 0.38139 0.81993 0.0
O86 O 0.96908 0.43577 0.86232 0.0
C87 C 0.81216 0.44894 0.86646 0.0
Fe88 Fe 0.73593 1.00716 0.91082 0.0
Fe89 Fe 0.68583 0.88526 0.92012 0.0
O90 O 0.7203 0.93714 0.89559 0.0
Fe91 Fe 0.73667 0.91951 0.85469 0.0
O92 O 0.68783 0.97421 0.84159 0.0
O93 O 0.72301 1.04387 0.87189 0.0
O94 O 0.66041 1.02189 0.92183 0.0
C95 C 0.63058 0.99099 0.94098 0.0
C96 C 0.83178 0.98876 0.87298 0.0
O97 O 0.64303 0.93786 0.94446 0.0
C98 C 0.76712 0.81841 0.88178 0.0
O99 O 0.75012 0.98166 0.95195 0.0
O100 O 0.7434 0.88673 0.94932 0.0
O101 O 0.79904 0.96774 0.8515 0.0
O102 O 0.81278 0.99834 0.90143 0.0
C103 C 0.62963 0.86889 0.86306 0.0
O104 O 0.7228 0.82257 0.90023 0.0
O105 O 0.78507 0.86196 0.8663 0.0
C106 C 0.75569 0.93224 0.96467 0.0
O107 O 0.6254 0.88224 0.89262 0.0
O108 O 0.67786 0.86849 0.84918 0.0
C109 C 0.69221 1.02692 0.84835 0.0
Fe110 Fe 0.44945 0.43879 0.67182 0.0
Fe111 Fe 0.41843 0.49303 0.60711 0.0
O112 O 0.39892 0.47547 0.64747 0.0
Fe113 Fe 0.32917 0.49219 0.6624 0.0
O114 O 0.31317 0.4166 0.67289 0.0
O115 O 0.39571 0.39725 0.69628 0.0
O116 O 0.44974 0.3788 0.6438 0.0
C117 C 0.46338 0.38334 0.6143 0.0
C118 C 0.40488 0.51064 0.71649 0.0
O119 O 0.46757 0.43232 0.60139 0.0
C120 C 0.34883 0.5889 0.62522 0.0
O121 O 0.51387 0.47335 0.65205 0.0
O122 O 0.47619 0.53986 0.62065 0.0
O123 O 0.35508 0.50578 0.7039 0.0
O124 O 0.44986 0.49646 0.70115 0.0
C125 C 0.31069 0.45001 0.59877 0.0
O126 O 0.37198 0.55668 0.60408 0.0
O127 O 0.33845 0.56958 0.65348 0.0
C128 C 0.51943 0.51934 0.63516 0.0
O129 O 0.36341 0.4463 0.59221 0.0
O130 O 0.29299 0.47955 0.62291 0.0
C131 C 0.34254 0.38583 0.69221 0.0
Fe132 Fe 0.85117 0.183 0.3551 0.0
Fe133 Fe 0.85674 0.08661 0.40643 0.0
O134 O 0.86987 0.1589 0.39453 0.0
Fe135 Fe 0.90482 0.20787 0.42124 0.0
O136 O 0.96492 0.21202 0.3935 0.0
O137 O 0.9118 0.23269 0.35129 0.0
O138 O 0.89756 0.1304 0.33703 0.0
C139 C 0.89787 0.07703 0.34222 0.0
C140 C 0.82445 0.28065 0.38692 0.0
O141 O 0.8719 0.05532 0.36636 0.0
C142 C 0.83037 0.15581 0.46208 0.0
O143 O 0.78776 0.13693 0.35059 0.0
O144 O 0.77963 0.09167 0.3973 0.0
O145 O 0.87019 0.27379 0.40363 0.0
O146 O 0.80403 0.23847 0.37136 0.0
C147 C 0.96034 0.1012 0.43825 0.0
O148 O 0.83992 0.10792 0.44792 0.0
O149 O 0.84693 0.20356 0.45047 0.0
C150 C 0.75831 0.10821 0.37063 0.0
O151 O 0.93244 0.07325 0.41699 0.0
O152 O 0.94648 0.15316 0.44428 0.0
C153 C 0.96062 0.22655 0.3641 0.0
Fe154 Fe 0.25752 0.60544 0.16093 0.0
Fe155 Fe 0.13543 0.65376 0.17247 0.0
O156 O 0.18662 0.61927 0.14718 0.0
Fe157 Fe 0.16663 0.60079 0.107 0.0
O158 O 0.21891 0.65009 0.09156 0.0
O159 O 0.29164 0.61962 0.12098 0.0
O160 O 0.27082 0.68151 0.17151 0.0
C161 C 0.24125 0.71104 0.19157 0.0
C162 C 0.24032 0.50803 0.12375 0.0
O163 O 0.18848 0.69797 0.19624 0.0
C164 C 0.0676 0.57005 0.13609 0.0
O165 O 0.23401 0.59067 0.20268 0.0
O166 O 0.1389 0.59647 0.2018 0.0
O167 O 0.21583 0.53939 0.10293 0.0
O168 O 0.25087 0.52778 0.15189 0.0
C169 C 0.1161 0.70791 0.11525 0.0
O170 O 0.07189 0.61582 0.15356 0.0
O171 O 0.11149 0.5514 0.12113 0.0
C172 C 0.18512 0.58388 0.21618 0.0
O173 O 0.13088 0.71353 0.14451 0.0
O174 O 0.11458 0.65885 0.10216 0.0
C175 C 0.27195 0.64863 0.09731 0.0
Fe176 Fe 0.83708 0.66799 0.6089 0.0
Fe177 Fe 0.84686 0.57865 0.55316 0.0
O178 O 0.85832 0.6495 0.56869 0.0
Fe179 Fe 0.89359 0.70229 0.54502 0.0
O180 O 0.95154 0.70592 0.57402 0.0
O181 O 0.89488 0.71968 0.61589 0.0
O182 O 0.88491 0.6147 0.62451 0.0
C183 C 0.88644 0.56211 0.61705 0.0
C184 C 0.80865 0.76889 0.58107 0.0
O185 O 0.85997 0.5428 0.59236 0.0
C186 C 0.8275 0.65416 0.49915 0.0
O187 O 0.77522 0.6191 0.61056 0.0
O188 O 0.76887 0.58251 0.56128 0.0
O189 O 0.85477 0.76469 0.56415 0.0
O190 O 0.78896 0.72458 0.59511 0.0
C191 C 0.95343 0.59859 0.52438 0.0
O192 O 0.83347 0.60447 0.51177 0.0
O193 O 0.83794 0.69975 0.51487 0.0
C194 C 0.74642 0.59415 0.58869 0.0
O195 O 0.92371 0.56688 0.54317 0.0
O196 O 0.93933 0.65131 0.52102 0.0
C197 C 0.94432 0.72 0.60333 0.0
Fe198 Fe 0.15838 0.09286 0.85851 0.0
Fe199 Fe 0.12746 0.14625 0.79431 0.0
O200 O 0.17873 0.11239 0.81897 0.0
Fe201 Fe 0.25058 0.10079 0.80539 0.0
O202 O 0.245 1.0224 0.81231 0.0
O203 O 0.20863 1.03156 0.86118 0.0
O204 O 0.10485 1.04255 0.8442 0.0
C205 C 0.06105 0.06091 0.82943 0.0
C206 C 0.26174 0.13748 0.87109 0.0
O207 O 0.06459 0.10682 0.81236 0.0
C208 C 0.2321 0.20681 0.77662 0.0
O209 O 0.10476 0.14941 0.86423 0.0
O210 O 0.12075 0.20553 0.82266 0.0
O211 O 0.28329 0.11174 0.84648 0.0
O212 O 0.20868 0.1446 0.8732 0.0
C213 C 0.17903 0.07871 0.75031 0.0
O214 O 0.18015 0.19154 0.77148 0.0
O215 O 0.26249 0.17803 0.79654 0.0
C216 C 0.10474 0.19871 0.85165 0.0
O217 O 0.13293 0.08909 0.76535 0.0
O218 O 0.22809 0.08825 0.76305 0.0
C219 C 0.23325 1.00089 0.83984 0.0
Fe220 Fe 0.74878 0.42061 0.107 0.0
Fe221 Fe 0.74123 0.51299 0.05319 0.0
O222 O 0.72751 0.44197 0.06746 0.0
Fe223 Fe 0.69007 0.39143 0.04312 0.0
O224 O 0.63197 0.3894 0.07231 0.0
O225 O 0.68863 0.37087 0.11333 0.0
O226 O 0.70342 0.47456 0.12441 0.0
C227 C 0.70302 0.52753 0.11801 0.0
C228 C 0.77313 0.32054 0.07675 0.0
O229 O 0.7288 0.54751 0.09317 0.0
C230 C 0.7592 0.43866 -0.00196 0.0
O231 O 0.81242 0.4673 0.10934 0.0
O232 O 0.81923 0.50696 0.061 0.0
O233 O 0.726 0.32663 0.06119 0.0
O234 O 0.79475 0.36355 0.09118 0.0
C235 C 0.63423 0.49757 0.02435 0.0
O236 O 0.75419 0.48825 0.01126 0.0
O237 O 0.74597 0.39296 0.01291 0.0
C238 C 0.84156 0.49348 0.08805 0.0
O239 O 0.66485 0.52727 0.04369 0.0
O240 O 0.64659 0.4447 0.01984 0.0
C241 C 0.63878 0.3745 0.10146 0.0
Fe242 Fe 0.43917 1.00172 0.3573 0.0
Fe243 Fe 0.34091 0.99212 0.30781 0.0
O244 O 0.41404 0.98092 0.31872 0.0
Fe245 Fe 0.46269 0.94652 0.29219 0.0
O246 O 0.47113 0.88755 0.32029 0.0
O247 O 0.49279 0.94453 0.36086 0.0
O248 O 0.39071 0.95115 0.37478 0.0
C249 C 0.33727 0.95629 0.37389 0.0
C250 C 0.53315 1.03247 0.32407 0.0
O251 O 0.31271 0.98032 0.34981 0.0
C252 C 0.40675 1.01374 0.25024 0.0
O253 O 0.3893 0.06295 0.36232 0.0
O254 O 0.34652 0.07053 0.31512 0.0
O255 O 0.52769 0.98523 0.3082 0.0
O256 O 0.49097 0.05165 0.34024 0.0
C257 C 0.35634 0.88667 0.27714 0.0
O258 O 0.3592 1.00541 0.26501 0.0
O259 O 0.45462 1.00344 0.26337 0.0
C260 C 0.36107 0.09247 0.34213 0.0
O261 O 0.32801 0.91482 0.29853 0.0
O262 O 0.40795 0.90163 0.27087 0.0
C263 C 0.48872 0.89464 0.34894 0.0
Fe264 Fe 0.25268 0.42064 0.35649 0.0
Fe265 Fe 0.24365 0.5113 0.41111 0.0
O266 O 0.23172 0.44 0.39662 0.0
Fe267 Fe 0.19687 0.38798 0.42095 0.0
O268 O 0.13945 0.38074 0.39154 0.0
O269 O 0.19717 0.36645 0.35031 0.0
O270 O 0.20264 0.47191 0.34082 0.0
C271 C 0.20235 0.52495 0.34724 0.0
C272 C 0.28432 0.32222 0.386 0.0
O273 O 0.23057 0.54511 0.37115 0.0
C274 C 0.26201 0.43929 0.4667 0.0
O275 O 0.31267 0.47179 0.35358 0.0
O276 O 0.32185 0.50592 0.40305 0.0
O277 O 0.23827 0.32594 0.40314 0.0
O278 O 0.30256 0.36611 0.37083 0.0
C279 C 0.13642 0.49281 0.4396 0.0
O280 O 0.25653 0.48822 0.45316 0.0
O281 O 0.25147 0.39308 0.45163 0.0
C282 C 0.34299 0.49606 0.37505 0.0
O283 O 0.16703 0.52363 0.42078 0.0
O284 O 0.14949 0.43984 0.44359 0.0
C285 C 0.14776 0.36452 0.36265 0.0
Fe286 Fe 0.83126 0.99277 0.15743 0.0
Fe287 Fe 0.95507 0.94826 0.16695 0.0
O288 O 0.90233 0.98128 0.14245 0.0
Fe289 Fe 0.92099 1.00045 0.10202 0.0
O290 O 0.86881 0.95056 0.08689 0.0
O291 O 0.79652 0.97711 0.11829 0.0
O292 O 0.82032 0.91633 0.16828 0.0
C293 C 0.85196 0.88814 0.18768 0.0
C294 C 0.84643 0.09162 0.12078 0.0
O295 O 0.90433 0.90306 0.19117 0.0
C296 C 1.02032 1.03255 0.13032 0.0
O297 O 0.8558 1.0088 0.19871 0.0
O298 O 0.95096 1.00568 0.19618 0.0
O299 O 0.87119 0.06159 0.09923 0.0
O300 O 0.83463 0.07042 0.14838 0.0
C301 C 0.97509 0.89453 0.10949 0.0
O302 O 1.01699 0.9873 0.14788 0.0
O303 O 0.9763 0.05034 0.11539 0.0
C304 C 0.90503 1.01689 0.2113 0.0
O305 O 0.96056 0.88863 0.1388 0.0
O306 O 0.97388 0.94325 0.09621 0.0
C307 C 0.81624 0.949 0.09419 0.0
Fe308 Fe 0.34658 0.58142 0.91086 0.0
Fe309 Fe 0.39113 0.70565 0.92006 0.0
O310 O 0.35791 0.65236 0.89576 0.0
Fe311 Fe 0.33831 0.67024 0.85537 0.0
O312 O 0.38801 0.61805 0.84022 0.0
O313 O 0.36135 0.54576 0.87135 0.0
O314 O 0.42316 0.57062 0.92121 0.0
C315 C 0.4518 0.60268 0.94038 0.0
C316 C 0.24719 0.59618 0.87477 0.0
O317 O 0.43677 0.65515 0.94409 0.0
C318 C 0.30694 0.77048 0.88305 0.0
O319 O 0.3317 0.60662 0.9525 0.0
O320 O 0.33423 0.70186 0.94966 0.0
O321 O 0.27729 0.61992 0.85294 0.0
O322 O 0.26872 0.58512 0.90237 0.0
C323 C 0.44426 0.72466 0.86234 0.0
O324 O 0.35187 0.76741 0.90086 0.0
O325 O 0.28864 0.7258 0.86874 0.0
C326 C 0.32375 0.65618 0.96517 0.0
O327 O 0.45036 0.71079 0.89169 0.0
O328 O 0.39548 0.72312 0.84917 0.0
C329 C 0.38955 0.56544 0.84727 0.0
Fe330 Fe 0.74872 0.09853 0.65984 0.0
Fe331 Fe 0.62672 0.14561 0.67322 0.0
O332 O 0.67619 0.10962 0.64776 0.0
Fe333 Fe 0.65281 0.08705 0.60904 0.0
O334 O 0.70242 0.13626 0.59122 0.0
O335 O 0.77881 0.10797 0.61808 0.0
O336 O 0.76122 0.17605 0.66758 0.0
C337 C 0.73256 0.20605 0.68793 0.0
C338 C 0.72967 0.99669 0.62691 0.0
O339 O 0.68071 0.19202 0.69427 0.0
C340 C 0.55727 0.05853 0.64145 0.0
O341 O 0.72889 0.08781 0.70282 0.0
O342 O 0.63368 0.0906 0.70327 0.0
O343 O 0.70251 1.0254 0.60591 0.0
O344 O 0.74325 1.01979 0.65379 0.0
C345 C 0.60068 0.19409 0.61542 0.0
O346 O 0.56254 0.10567 0.65741 0.0
O347 O 0.59988 1.03851 0.62597 0.0
C348 C 0.68076 0.08036 0.71721 0.0
O349 O 0.61858 0.20289 0.64388 0.0
O350 O 0.59941 0.14388 0.60378 0.0
C351 C 0.75585 0.13145 0.59334 0.0
C352 C 0.55229 0.24697 0.12267 0.0
C353 C 0.49677 0.26891 0.11778 0.0
C354 C 0.59955 0.28414 0.12275 0.0
C355 C 0.59178 0.34321 0.11654 0.0
H356 H 0.55962 0.20074 0.1233 0.0
H357 H 0.64242 0.26566 0.12349 0.0
S358 S 0.45388 0.42202 0.10897 0.0
N359 N 0.4353 0.35351 0.11294 0.0
N360 N 0.52501 0.42331 0.11108 0.0
C361 C 0.53609 0.36626 0.11574 0.0
C362 C 0.48799 0.32876 0.11677 0.0
C363 C 0.61291 0.8042 0.37043 0.0
C364 C 0.58823 0.74935 0.36694 0.0
C365 C 0.57811 0.85313 0.36961 0.0
C366 C 0.51879 0.84735 0.36408 0.0
H367 H 0.65936 0.80944 0.37022 0.0
H368 H 0.59847 0.89522 0.36913 0.0
S369 S 0.4334 0.71262 0.36133 0.0
N370 N 0.50101 0.6912 0.36491 0.0
N371 N 0.43549 0.78398 0.3615 0.0
C372 C 0.49307 0.79279 0.36512 0.0
C373 C 0.5282 0.74311 0.36705 0.0
C374 C 0.09155 0.77059 0.61832 0.0
C375 C 0.08263 0.83025 0.61546 0.0
C376 C 0.0446 0.73328 0.61901 0.0
C377 C 0.98853 0.75548 0.61772 0.0
H378 H 0.13453 0.75248 0.61614 0.0
H379 H 0.0521 0.68717 0.61706 0.0
S380 S 0.94438 0.90913 0.61831 0.0
N381 N 1.01554 0.91055 0.61679 0.0
N382 N 0.92637 0.84013 0.6199 0.0
C383 C 0.97946 0.81525 0.61988 0.0
C384 C 1.02717 0.85308 0.61815 0.0
C385 C 0.0915 0.29801 0.87025 0.0
C386 C 0.06836 0.24281 0.86551 0.0
C387 C 0.05545 0.34603 0.87016 0.0
C388 C 0.9964 0.33913 0.864 0.0
H389 H 0.13778 0.30445 0.87071 0.0
H390 H 0.07476 0.38866 0.87067 0.0
S391 S 0.91485 0.20252 0.85691 0.0
N392 N 0.98282 0.18262 0.86102 0.0
N393 N 0.91505 0.27386 0.85863 0.0
C394 C 0.97216 0.28389 0.86335 0.0
C395 C 1.00852 0.23503 0.86464 0.0
C396 C 0.5917 0.77562 0.8457 0.0
C397 C 0.58326 0.83532 0.84929 0.0
C398 C 0.54453 0.73842 0.84574 0.0
C399 C 0.4886 0.76073 0.84837 0.0
H400 H 0.63465 0.75727 0.84692 0.0
H401 H 0.55195 0.69225 0.84702 0.0
S402 S 0.44491 0.91444 0.85075 0.0
N403 N 0.51616 0.91571 0.85044 0.0
N404 N 0.42669 0.84552 0.84874 0.0
C405 C 0.47968 0.82056 0.84712 0.0
C406 C 0.52763 0.85826 0.84808 0.0
C407 C 0.58783 0.29223 0.59486 0.0
C408 C 0.5643 0.23777 0.60128 0.0
C409 C 0.55208 0.34046 0.59344 0.0
C410 C 0.4929 0.3347 0.59977 0.0
H411 H 0.63416 0.29826 0.59409 0.0
H412 H 0.57174 0.3828 0.59175 0.0
S413 S 0.41034 0.19955 0.61093 0.0
N414 N 0.47825 0.17879 0.6076 0.0
N415 N 0.41104 0.27055 0.60689 0.0
C416 C 0.4683 0.2797 0.60196 0.0
C417 C 0.50438 0.23052 0.60236 0.0
C418 C 0.05428 0.34467 0.33721 0.0
C419 C 0.10688 0.32426 0.34909 0.0
C420 C 1.00675 0.30783 0.33604 0.0
C421 C 1.01099 0.25189 0.34884 0.0
H422 H 0.04866 0.39005 0.33168 0.0
H423 H 0.96537 0.32528 0.32908 0.0
S424 S 0.14371 0.1746 0.3724 0.0
N425 N 0.1647 0.24145 0.36489 0.0
N426 N 0.07373 0.17327 0.36514 0.0
C427 C 0.06531 0.22876 0.3555 0.0
C428 C 0.11399 0.26531 0.35537 0.0
C429 C 0.10832 0.81115 0.10369 0.0
C430 C 0.08561 0.75539 0.10029 0.0
C431 C 0.0723 0.85894 0.10133 0.0
C432 C 1.01307 0.85119 0.09633 0.0
H433 H 0.15257 0.81744 0.11135 0.0
H434 H 0.08941 0.90116 0.10753 0.0
S435 S 0.93618 0.71534 0.07816 0.0
N436 N 1.00363 0.6957 0.08476 0.0
N437 N 0.93497 0.78636 0.08216 0.0
C438 C 0.99149 0.79664 0.08859 0.0
C439 C 1.0284 0.74808 0.09007 0.0
C440 C 0.53016 0.10445 0.98088 0.0
C441 C 0.504 0.0748 0.00711 0.0
C442 C 0.56996 0.07723 0.95956 0.0
C443 C 0.58574 1.01865 0.96311 0.0
H444 H 0.51942 0.14925 0.97644 0.0
H445 H 0.58846 0.10257 0.94004 0.0
S446 S 0.53231 0.9215 0.02867 0.0
N447 N 0.49898 0.98326 0.03579 0.0
N448 N 0.57265 0.93248 -0.00387 0.0
C449 C 0.56029 0.98859 -0.01055 0.0
C450 C 0.51999 1.0164 0.01123 0.0
C451 C 0.74212 0.78389 0.22816 0.0
C452 C 0.77317 0.75756 0.25375 0.0
C453 C 0.76769 0.82483 0.20687 0.0
C454 C 0.826 0.84193 0.20975 0.0
H455 H 0.69743 0.7724 0.2242 0.0
H456 H 0.74119 0.84331 0.18793 0.0
S457 S 0.92688 0.78774 0.27303 0.0
N458 N 0.86611 0.75321 0.28072 0.0
N459 N 0.91366 0.82904 0.24128 0.0
C460 C 0.85751 0.8161 0.23535 0.0
C461 C 0.83142 0.77452 0.25706 0.0
C462 C 0.07299 0.07527 0.50569 0.0
C463 C 0.08647 1.01588 0.50326 0.0
C464 C 1.03338 0.10219 0.48444 0.0
C465 C 1.00491 0.07145 0.45939 0.0
H466 H 0.09337 0.1016 0.52419 0.0
H467 H 1.02486 0.1478 0.4879 0.0
S468 S 1.02444 0.91486 0.44197 0.0
N469 N 0.0674 0.9272 0.47316 0.0
N470 N 0.99381 0.97742 0.43364 0.0
C471 C 1.01806 1.01203 0.45658 0.0
C472 C 0.05834 0.98453 0.4783 0.0
C473 C 0.75846 0.3213 0.75509 0.0
C474 C 0.81634 0.33876 0.75072 0.0
C475 C 0.73193 0.27973 0.73454 0.0
C476 C 0.76146 0.25316 0.70819 0.0
H477 H 0.73317 0.3398 0.77471 0.0
H478 H 0.68765 0.26795 0.73968 0.0
S479 S 0.91306 0.285 0.68463 0.0
N480 N 0.90172 0.32653 0.71673 0.0
N481 N 0.85224 0.24956 0.67864 0.0
C482 C 0.81913 0.27076 0.70326 0.0
C483 C 0.84626 0.31295 0.72424 0.0
C484 C 0.34454 0.30999 0.73751 0.0
C485 C 0.31351 0.33977 0.71311 0.0
C486 C 0.3182 0.26835 0.75807 0.0
C487 C 0.25911 0.25394 0.75559 0.0
H488 H 0.38993 0.31899 0.74095 0.0
H489 H 0.34475 0.24699 0.776 0.0
S490 S 0.15751 0.31883 0.69593 0.0
N491 N 0.21947 0.351 0.68806 0.0
N492 N 0.17046 0.274 0.72616 0.0
C493 C 0.22753 0.28355 0.73134 0.0
C494 C 0.25438 0.32584 0.71038 0.0
C495 C 0.26992 0.82273 0.26079 0.0
C496 C 0.32745 0.84101 0.25561 0.0
C497 C 0.24232 0.78197 0.23998 0.0
C498 C 0.27042 0.75713 0.21261 0.0
H499 H 0.24573 0.84005 0.28118 0.0
H500 H 0.19846 0.76944 0.24568 0.0
S501 S 0.42036 0.79158 0.18671 0.0
N502 N 0.41069 0.83114 0.21974 0.0
N503 N 0.35944 0.7561 0.18133 0.0
C504 C 0.32768 0.77554 0.20697 0.0
C505 C 0.3558 0.81678 0.22812 0.0
C506 C 0.06017 0.48874 0.48505 0.0
C507 C 0.08855 0.52027 0.46021 0.0
C508 C 1.01767 0.51404 0.50568 0.0
C509 C 1.00098 0.57263 0.50292 0.0
H510 H 0.07114 0.44382 0.4889 0.0
H511 H 0.99771 0.48714 0.52403 0.0
S512 S 0.05993 0.67473 0.4413 0.0
N513 N 0.09487 0.61395 0.43394 0.0
N514 N 1.01638 0.66096 0.47215 0.0
C515 C 1.02877 0.60457 0.47801 0.0
C516 C 0.07186 0.57875 0.45696 0.0
C517 C 0.55707 0.4932 0.97996 0.0
C518 C 0.58708 0.52556 0.00384 0.0
C519 C 0.5146 0.5182 0.95956 0.0
C520 C 0.49942 0.57728 0.96163 0.0
H521 H 0.56656 0.44773 0.97676 0.0
H522 H 0.49332 0.49059 0.942 0.0
S523 S 0.56421 0.68214 0.01997 0.0
N524 N 0.59754 0.62086 0.02805 0.0
N525 N 0.51877 0.66741 -0.00975 0.0
C526 C 0.52908 0.61022 -0.01457 0.0
C527 C 0.57232 0.58469 0.00624 0.0
C528 C 0.27593 0.34677 0.12364 0.0
C529 C 0.29564 0.3365 0.09154 0.0
C530 C 0.25974 0.40241 0.13431 0.0
C531 C 0.2612 0.44988 0.11311 0.0
H532 H 0.27417 0.3117 0.141 0.0
H533 H 0.24496 0.40805 0.15915 0.0
S534 S 0.30992 0.44661 0.02679 0.0
N535 N 0.31701 0.37915 0.03906 0.0
N536 N 0.28435 0.48277 0.05839 0.0
C537 C 0.2805 0.44009 0.0809 0.0
C538 C 0.29832 0.38379 0.07033 0.0
C539 C 0.4672 0.54908 0.32124 0.0
C540 C 0.51496 0.54935 0.34219 0.0
C541 C 0.41204 0.53249 0.33231 0.0
C542 C 0.40159 0.5171 0.36511 0.0
H543 H 0.47263 0.561 0.29595 0.0
H544 H 0.37704 0.53197 0.31493 0.0
S545 S 0.51087 0.51556 0.43064 0.0
N546 N 0.54734 0.53534 0.39793 0.0
N547 N 0.44367 0.5059 0.41862 0.0
C548 C 0.44851 0.51913 0.38656 0.0
C549 C 0.50504 0.53469 0.37515 0.0
C550 C 0.30841 0.74949 0.62668 0.0
C551 C 0.29159 0.76054 0.59426 0.0
C552 C 0.3258 0.69398 0.63682 0.0
C553 C 0.3285 0.64742 0.61478 0.0
H554 H 0.30678 0.78374 0.64468 0.0
H555 H 0.33786 0.68769 0.66199 0.0
S556 S 0.28962 0.65345 0.52703 0.0
N557 N 0.2783 0.71985 0.54038 0.0
N558 N 0.31297 0.61669 0.55871 0.0
C559 C 0.31251 0.65821 0.58216 0.0
C560 C 0.29353 0.7143 0.57212 0.0
C561 C 0.08581 0.59389 0.85638 0.0
C562 C 0.0783 0.54162 0.83897 0.0
C563 C 0.13999 0.6104 0.86902 0.0
C564 C 0.1888 0.5748 0.86549 0.0
H565 H 0.04949 0.62255 0.86022 0.0
H566 H 0.14386 0.65168 0.88131 0.0
S567 S 0.19366 0.43336 0.82299 0.0
N568 N 0.12604 0.4545 0.81917 0.0
N569 N 0.22629 0.48498 0.84376 0.0
C570 C 0.18207 0.5225 0.84849 0.0
C571 C 0.12737 0.50604 0.83508 0.0
C572 C 0.82389 0.694 0.829 0.0
C573 C 0.82474 0.64692 0.85051 0.0
C574 C 0.80702 0.74955 0.83961 0.0
C575 C 0.78888 0.76006 0.87198 0.0
H576 H 0.83732 0.68816 0.80394 0.0
H577 H 0.80705 0.78433 0.82205 0.0
S578 S 0.78118 0.65112 0.93773 0.0
N579 N 0.80555 0.61482 0.90589 0.0
N580 N 0.77182 0.71811 0.92513 0.0
C581 C 0.78861 0.71317 0.89353 0.0
C582 C 0.80708 0.65704 0.883 0.0
C583 C 0.62393 0.50025 0.62088 0.0
C584 C 0.57793 0.53972 0.62461 0.0
C585 C 0.67733 0.51726 0.60735 0.0
C586 C 0.68727 0.57458 0.59748 0.0
H587 H 0.61838 0.45556 0.62792 0.0
H588 H 0.71149 0.48558 0.60524 0.0
S589 S 0.58313 0.69558 0.60363 0.0
N590 N 0.54711 0.6393 0.61768 0.0
N591 N 0.64786 0.67129 0.59374 0.0
C592 C 0.64232 0.61463 0.60167 0.0
C593 C 0.58765 0.59721 0.61478 0.0
C594 C 0.74653 0.35066 0.3709 0.0
C595 C 0.8053 0.33964 0.37693 0.0
C596 C 0.72804 0.40376 0.35786 0.0
C597 C 0.76777 0.44675 0.34863 0.0
H598 H 0.71451 0.31805 0.37651 0.0
H599 H 0.68225 0.4112 0.35485 0.0
S600 S 0.92632 0.4393 0.35805 0.0
N601 N 0.90288 0.37754 0.37318 0.0
N602 N 0.86838 0.4745 0.34588 0.0
C603 C 0.82655 0.43596 0.35383 0.0
C604 C 0.84521 0.38319 0.36865 0.0
C605 C 0.90728 0.56754 0.11315 0.0
C606 C 0.90029 0.51382 0.09752 0.0
C607 C 0.96041 0.58418 0.12705 0.0
C608 C 1.00947 0.54818 0.12537 0.0
H609 H 0.87116 0.59684 0.1149 0.0
H610 H 0.96328 0.62627 0.13849 0.0
S611 S 1.01306 0.40162 0.08805 0.0
N612 N 0.94602 0.4235 0.08248 0.0
N613 N 0.04619 0.45495 0.10716 0.0
C614 C 1.00268 0.49401 0.10986 0.0
C615 C 0.94824 0.47682 0.0963 0.0
C616 C 0.75065 0.83326 0.61916 0.0
C617 C 0.78711 0.82749 0.59162 0.0
C618 C 0.73416 0.88792 0.6315 0.0
C619 C 0.75315 0.93926 0.61678 0.0
H620 H 0.73506 0.7952 0.63166 0.0
H621 H 0.70535 0.88996 0.65227 0.0
S622 S 0.84942 0.94962 0.5447 0.0
N623 N 0.84155 0.87944 0.55032 0.0
N624 N 0.81113 0.98112 0.57368 0.0
C625 C 0.78955 0.93433 0.58942 0.0
C626 C 0.80634 0.87891 0.57682 0.0
C627 C 0.90159 1.02132 0.8299 0.0
C628 C 0.89059 1.00767 0.86284 0.0
C629 C 0.95668 1.03817 0.81913 0.0
C630 C 1.00347 1.04051 0.84065 0.0
H631 H 0.86708 1.01967 0.81222 0.0
H632 H 0.96277 0.04905 0.79373 0.0
S633 S 0.99765 1.0114 0.92957 0.0
N634 N 0.93108 0.9998 0.91702 0.0
N635 N 1.03469 1.03006 0.89688 0.0
C636 C 0.9931 1.02725 0.8737 0.0
C637 C 0.93672 1.01128 0.88476 0.0
C638 C 0.77021 0.16182 0.10285 0.0
C639 C 0.82772 0.15086 0.11168 0.0
C640 C 0.75345 0.21583 0.09013 0.0
C641 C 0.79333 0.26146 0.08629 0.0
H642 H 0.73815 0.12807 0.10523 0.0
H643 H 0.7086 0.22214 0.08386 0.0
S644 S 0.94993 0.2531 0.10412 0.0
N645 N 0.92513 0.18853 0.11391 0.0
N646 N 0.89361 0.29046 0.0915 0.0
C647 C 0.8511 0.25054 0.09484 0.0
C648 C 0.86825 0.19522 0.10709 0.0
C649 C 0.69005 1.03142 0.35156 0.0
C650 C 0.70007 0.0893 0.36033 0.0
C651 C 0.63716 1.01405 0.33789 0.0
C652 C 0.59168 0.05365 0.33326 0.0
H653 H 0.72367 0.99951 0.35478 0.0
H654 H 0.63137 0.96892 0.33175 0.0
S655 S 0.59729 0.21072 0.35141 0.0
N656 N 0.6616 0.18668 0.36201 0.0
N657 N 0.56125 0.1538 0.33812 0.0
C658 C 0.60153 0.11174 0.34188 0.0
C659 C 0.65589 0.1296 0.35493 0.0
C660 C 0.33445 0.25566 0.34579 0.0
C661 C 0.30663 0.26367 0.3762 0.0
C662 C 0.35016 0.20026 0.33426 0.0
C663 C 0.33949 0.15045 0.3528 0.0
H664 H 0.34315 0.29243 0.33031 0.0
H665 H 0.37175 0.19652 0.31093 0.0
S666 S 0.26722 0.14643 0.43355 0.0
N667 N 0.26885 0.21578 0.42428 0.0
N668 N 0.29825 0.11255 0.40272 0.0
C669 C 0.31189 0.15772 0.38316 0.0
C670 C 0.29555 0.21391 0.3948 0.0
C671 C 0.12437 0.05466 0.14284 0.0
C672 C 0.07841 0.05487 0.12059 0.0
C673 C 0.18023 0.0721 0.13355 0.0
C674 C 0.19316 0.08868 0.1013 0.0
H675 H 0.11708 1.04107 0.16771 0.0
H676 H 0.21389 0.07164 0.15175 0.0
S677 S 0.08894 0.09496 0.0332 0.0
N678 N 0.05005 0.07295 0.06454 0.0
N679 N 0.15512 0.10372 0.04707 0.0
C680 C 0.14785 0.08839 0.0787 0.0
C681 C 0.09058 0.07209 0.08833 0.0
C682 C 0.26686 0.93068 0.88254 0.0
C683 C 0.25359 0.94193 0.84959 0.0
C684 C 0.28368 0.87545 0.89323 0.0
C685 C 0.28646 0.82833 0.87166 0.0
H686 H 0.26496 0.9651 0.90036 0.0
H687 H 0.29413 0.86952 0.91867 0.0
S688 S 0.25901 0.83444 0.78262 0.0
N689 N 0.24706 0.90118 0.79529 0.0
N690 N 0.27708 0.79726 0.81526 0.0
C691 C 0.2738 0.83891 0.83857 0.0
C692 C 0.25792 0.89558 0.82758 0.0
C693 C 0.48902 1.0187 0.59966 0.0
C694 C 0.49867 1.03869 0.63172 0.0
C695 C 0.43338 1.00496 0.5885 0.0
C696 C 0.38523 1.00931 0.60917 0.0
H697 H 0.52463 1.01497 0.58265 0.0
H698 H 0.42821 0.98985 0.56371 0.0
S699 S 0.38663 0.06021 0.69508 0.0
N700 N 0.45483 0.06359 0.68356 0.0
N701 N 0.3508 1.03559 0.66327 0.0
C702 C 0.39427 1.02895 0.64133 0.0
C703 C 0.45073 1.04422 0.6524 0.0
C704 C 0.34147 0.1894 0.94463 0.0
C705 C 0.31231 0.15853 0.96913 0.0
C706 C 0.32941 0.17885 0.91169 0.0
C707 C 0.28904 0.1365 0.90294 0.0
H708 H 0.37403 0.22102 0.95094 0.0
H709 H 0.34982 0.20521 0.89321 0.0
S710 S 0.20043 0.04619 0.95896 0.0
N711 N 0.24077 0.08631 -0.01706 0.0
N712 N 0.21938 0.06478 0.9218 0.0
C713 C 0.26079 0.10499 0.92766 0.0
C714 C 0.27181 0.11679 0.96062 0.0
C715 C 0.64081 0.54436 0.16506 0.0
C716 C 0.68681 0.56398 0.14554 0.0
C717 C 0.64147 0.55243 0.19871 0.0
C718 C 0.68799 0.58056 0.21358 0.0
H719 H 0.60777 0.51675 0.15474 0.0
H720 H 0.60745 0.53335 0.21327 0.0
S721 S 0.80775 0.65711 0.17172 0.0
N722 N 0.77164 0.62495 0.1422 0.0
N723 N 0.77334 0.64057 0.20566 0.0
C724 C 0.72968 0.60756 0.19378 0.0
C725 C 0.7285 0.59979 0.15952 0.0
C726 C 0.25544 0.90454 0.44707 0.0
C727 C 0.28428 0.93483 0.47194 0.0
C728 C 0.26916 0.91451 0.41431 0.0
C729 C 0.31135 0.95531 0.40614 0.0
H730 H 0.22142 0.8742 0.45296 0.0
H731 H 0.24822 0.88924 0.39553 0.0
S732 S 0.39932 1.04421 0.46304 0.0
N733 N 0.35672 1.00562 0.48664 0.0
N734 N 0.38238 1.02517 0.4256 0.0
C735 C 0.33984 0.98588 0.43113 0.0
C736 C 0.32651 0.9752 0.46396 0.0
C737 C 0.95065 0.5423 0.66235 0.0
C738 C 0.9027 0.52481 0.64386 0.0
C739 C 0.95074 0.53602 0.6961 0.0
C740 C 0.903 0.51189 0.71203 0.0
H741 H 0.98478 0.56744 0.65117 0.0
H742 H 0.98641 0.55365 0.7099 0.0
S743 S 0.77618 0.44247 0.67296 0.0
N744 N 0.81349 0.47029 0.64253 0.0
N745 N 0.8132 0.45776 0.7061 0.0
C746 C 0.85886 0.48666 0.6932 0.0
C747 C 0.85929 0.49257 0.65887 0.0
C748 C 0.79778 0.88407 0.04848 0.0
C749 C 0.77908 0.93109 0.06762 0.0
C750 C 0.78805 0.88318 0.015 0.0
C751 C 0.75951 0.92931 0.00011 0.0
H752 H 0.82591 0.85155 0.05878 0.0
H753 H 0.80659 0.84864 0.0005 0.0
S754 S 0.68668 0.05244 0.04152 0.0
N755 N 0.71941 1.01703 0.07093 0.0
N756 N 0.70094 1.01594 0.00788 0.0
C757 C 0.73351 0.97204 0.01979 0.0
C758 C 0.74274 0.97234 0.05383 0.0
C759 C 0.3653 0.4958 0.80498 0.0
C760 C 0.4079 0.52887 0.82024 0.0
C761 C 0.36516 0.48963 0.7712 0.0
C762 C 0.40869 0.51492 0.75197 0.0
H763 H 0.32844 0.48061 0.8186 0.0
H764 H 0.32953 0.46675 0.76003 0.0
S765 S 0.5383 0.59153 0.78182 0.0
N766 N 0.50052 0.57701 0.81494 0.0
N767 N 0.50144 0.56379 0.75119 0.0
C768 C 0.45595 0.54056 0.76747 0.0
C769 C 0.45569 0.54721 0.80183 0.0
C770 C 0.8217 0.17675 0.55306 0.0
C771 C 0.78412 0.13189 0.56169 0.0
C772 C 0.83505 0.18667 0.52021 0.0
C773 C 0.81029 0.15233 0.49558 0.0
H774 H 0.83888 0.20542 0.57152 0.0
H775 H 0.86522 0.22071 0.5141 0.0
S776 S 0.70708 1.03171 0.50579 0.0
N777 N 0.72149 0.05406 0.54298 0.0
N778 N 0.74584 0.07343 0.48179 0.0
C779 C 0.77268 0.10773 0.50408 0.0
C780 C 0.75997 0.09713 0.53705 0.0
C781 C 0.23197 0.58967 0.30382 0.0
C782 C 0.18697 0.56078 0.31968 0.0
C783 C 0.23042 0.59751 0.27021 0.0
C784 C 0.18348 0.57737 0.25166 0.0
H785 H 0.27127 0.60034 0.31672 0.0
H786 H 0.2673 0.61762 0.25861 0.0
S787 S 0.05002 0.50978 0.28349 0.0
N788 N 0.09085 0.51985 0.31587 0.0
N789 N 0.08716 0.53571 0.25243 0.0
C790 C 0.13538 0.55451 0.2679 0.0
C791 C 0.13716 0.54637 0.30211 0.0
C792 C 0.7949 0.70787 0.41495 0.0
C793 C 0.81499 0.66186 0.39546 0.0
C794 C 0.80009 0.70592 0.44874 0.0
C795 C 0.82617 0.65833 0.46367 0.0
H796 H 0.76844 0.74154 0.4044 0.0
H797 H 0.78033 0.73976 0.46325 0.0
S798 S 0.90486 0.5392 0.42233 0.0
N799 N 0.87533 0.57643 0.39251 0.0
N800 N 0.88606 0.57275 0.45619 0.0
C801 C 0.85445 0.61712 0.44406 0.0
C802 C 0.84942 0.61945 0.40971 0.0
C803 C 0.21577 0.09037 0.66152 0.0
C804 C 0.16997 0.06029 0.64714 0.0
C805 C 0.21847 0.096 0.69522 0.0
C806 C 0.17468 0.07304 0.71508 0.0
H807 H 0.25293 0.10317 0.6472 0.0
H808 H 0.25594 0.11676 0.70575 0.0
S809 S 1.03835 1.00525 0.68751 0.0
N810 N 0.07481 1.01842 0.65377 0.0
N811 N 0.07907 1.02946 0.71748 0.0
C812 C 0.12495 0.05024 0.70046 0.0
C813 C 0.12235 1.04471 0.66621 0.0
C814 C 0.74774 0.48049 0.90977 0.0
C815 C 0.77586 0.43456 0.89415 0.0
C816 C 0.74244 0.48128 0.9436 0.0
C817 C 0.76384 0.43545 0.96252 0.0
H818 H 0.73593 0.51883 0.89629 0.0
H819 H 0.72315 0.51891 0.955 0.0
S820 S 0.82778 0.2991 0.9317 0.0
N821 N 0.81567 0.338 0.89881 0.0
N822 N 0.80452 0.33856 0.96263 0.0
C823 C 0.78503 0.38603 0.94669 0.0
C824 C 0.7906 0.3855 0.9123 0.0
C825 C 0.45463 1.04378 0.19943 0.0
C826 C 0.40672 1.01906 0.21496 0.0
C827 C 0.45484 0.05153 0.16594 0.0
C828 C 0.40676 1.03553 0.14734 0.0
H829 H 0.4907 0.06016 0.2134 0.0
H830 H 0.48955 0.07639 0.15511 0.0
S831 S 0.27912 0.95312 0.17508 0.0
N832 N 0.31646 0.96606 0.20845 0.0
N833 N 0.31643 0.98251 0.14512 0.0
C834 C 0.36252 1.00342 0.16179 0.0
C835 C 0.36215 0.99547 0.19594 0.0
C836 C 0.24971 0.4844 0.5549 0.0
C837 C 0.27389 0.43713 0.57107 0.0
C838 C 0.24599 0.4846 0.52098 0.0
C839 C 0.26508 0.43693 0.50241 0.0
H840 H 0.23998 0.52385 0.56808 0.0
H841 H 0.22981 0.52315 0.50925 0.0
S842 S 0.31829 0.29742 0.53471 0.0
N843 N 0.30725 0.33802 0.56726 0.0
N844 N 0.29924 0.33746 0.50335 0.0
C845 C 0.28222 0.38665 0.51879 0.0
C846 C 0.28605 0.38671 0.55327 0.0
C847 C 0.95702 0.06245 0.29373 0.0
C848 C 0.91258 1.04204 0.31403 0.0
C849 C 0.95508 0.05305 0.26028 0.0
C850 C 0.90872 1.023 0.24651 0.0
H851 H 0.98989 0.09109 0.30332 0.0
H852 H 0.98797 0.07235 0.245 0.0
S853 S 0.79194 0.94601 0.29067 0.0
N854 N 0.82865 0.97993 0.31929 0.0
N855 N 0.82489 0.96163 0.25614 0.0
C856 C 0.86842 0.99585 0.26707 0.0
C857 C 0.87084 1.00497 0.30113 0.0
C858 C 0.33707 0.61768 0.05398 0.0
C859 C 0.30741 0.66307 0.06919 0.0
C860 C 0.34229 0.61602 0.02013 0.0
C861 C 0.31922 0.66042 0.00073 0.0
H862 H 0.35038 0.58027 0.06782 0.0
H863 H 0.36289 0.57875 0.00909 0.0
S864 S 0.25083 0.79549 0.03035 0.0
N865 N 0.26436 0.75809 0.0636 0.0
N866 N 0.27529 0.75587 -0.00022 0.0
C867 C 0.29643 0.70958 0.01614 0.0
C868 C 0.29098 0.71103 0.05055 0.0
C869 C 0.72875 0.08664 0.80464 0.0
C870 C 0.68061 0.06435 0.82103 0.0
C871 C 0.72839 0.09174 0.77085 0.0
C872 C 0.67955 0.07553 0.75273 0.0
H873 H 0.76901 0.09355 0.8174 0.0
H874 H 0.76733 0.10652 0.75886 0.0
S875 S 0.53886 1.0264 0.78599 0.0
N876 N 0.58045 1.03495 0.81816 0.0
N877 N 0.57893 1.04487 0.75442 0.0
C878 C 0.62899 0.05958 0.76945 0.0
C879 C 0.62952 0.05471 0.8038 0.0
loop_
_geom_bond_atom_site_label_1
_geom_bond_atom_site_label_2
_geom_bond_distance
_geom_bond_site_symmetry_2
_ccdc_geom_bond_type
Fe0 O2 1.918 . S
Fe0 O5 1.997 . S
Fe0 O6 2.002 . S
Fe0 O11 1.976 . S
Fe0 O14 1.996 . S
Fe1 O2 1.918 . S
Fe1 O9 1.997 . S
Fe1 O12 1.996 . S
Fe1 O16 1.976 . S
Fe1 O19 2.002 . S
O2 Fe0 1.918 . S
O2 Fe1 1.918 . S
O2 Fe3 1.918 . S
Fe3 O2 1.918 . S
Fe3 O4 2.002 . S
Fe3 O13 1.976 . S
Fe3 O17 1.996 . S
Fe3 O20 1.997 . S
O4 Fe3 2.002 . S
O4 C21 1.295 . S
O5 Fe0 1.997 . S
O5 C21 1.235 . S
O6 Fe0 2.002 . S
O6 C7 1.295 . S
C7 O6 1.295 . S
C7 O9 1.235 . S
C8 O13 1.287 . S
C8 O14 1.255 . S
O9 Fe1 1.997 . S
O9 C7 1.235 . S
C10 O16 1.287 . S
C10 O17 1.255 . S
O11 Fe0 1.976 . S
O11 C18 1.287 . S
O12 Fe1 1.996 . S
O12 C18 1.255 . S
O13 Fe3 1.976 . S
O13 C8 1.287 . S
O14 Fe0 1.996 . S
O14 C8 1.255 . S
C15 O19 1.295 . S
C15 O20 1.235 . S
O16 Fe1 1.976 . S
O16 C10 1.287 . S
O17 Fe3 1.996 . S
O17 C10 1.255 . S
C18 O11 1.287 . S
C18 O12 1.255 . S
O19 Fe1 2.002 . S
O19 C15 1.295 . S
O20 Fe3 1.997 . S
O20 C15 1.235 . S
C21 O4 1.295 . S
C21 O5 1.235 . S
Fe22 O24 1.918 . S
Fe22 O27 1.997 . S
Fe22 O28 2.002 . S
Fe22 O33 1.976 . S
Fe22 O36 1.996 . S
Fe23 O24 1.918 . S
Fe23 O31 1.997 . S
Fe23 O34 1.996 . S
Fe23 O38 1.976 . S
Fe23 O41 2.002 . S
O24 Fe22 1.918 . S
O24 Fe23 1.918 . S
O24 Fe25 1.918 . S
Fe25 O24 1.918 . S
Fe25 O26 2.002 . S
Fe25 O35 1.976 . S
Fe25 O39 1.996 . S
Fe25 O42 1.997 . S
O26 Fe25 2.002 . S
O26 C43 1.295 . S
O27 Fe22 1.997 . S
O27 C43 1.235 . S
O28 Fe22 2.002 . S
O28 C29 1.295 . S
C29 O28 1.295 . S
C29 O31 1.235 . S
C30 O35 1.287 . S
C30 O36 1.255 . S
O31 Fe23 1.997 . S
O31 C29 1.235 . S
C32 O38 1.287 . S
C32 O39 1.255 . S
O33 Fe22 1.976 . S
O33 C40 1.287 . S
O34 Fe23 1.996 . S
O34 C40 1.255 . S
O35 Fe25 1.976 . S
O35 C30 1.287 . S
O36 Fe22 1.996 . S
O36 C30 1.255 . S
C37 O41 1.295 . S
C37 O42 1.235 . S
O38 Fe23 1.976 . S
O38 C32 1.287 . S
O39 Fe25 1.996 . S
O39 C32 1.255 . S
C40 O33 1.287 . S
C40 O34 1.255 . S
O41 Fe23 2.002 . S
O41 C37 1.295 . S
O42 Fe25 1.997 . S
O42 C37 1.235 . S
C43 O26 1.295 . S
C43 O27 1.235 . S
Fe44 O46 1.918 . S
Fe44 O49 1.997 . S
Fe44 O50 2.002 . S
Fe44 O55 1.976 . S
Fe44 O58 1.996 . S
Fe45 O46 1.918 . S
Fe45 O53 1.997 . S
Fe45 O56 1.996 . S
Fe45 O60 1.976 . S
Fe45 O63 2.002 . S
O46 Fe44 1.918 . S
O46 Fe45 1.918 . S
O46 Fe47 1.918 . S
Fe47 O46 1.918 . S
Fe47 O48 2.002 . S
Fe47 O57 1.976 . S
Fe47 O61 1.996 . S
Fe47 O64 1.997 . S
O48 Fe47 2.002 . S
O48 C65 1.295 . S
O49 Fe44 1.997 . S
O49 C65 1.235 . S
O50 Fe44 2.002 . S
O50 C51 1.295 . S
C51 O50 1.295 . S
C51 O53 1.235 . S
C52 O57 1.287 . S
C52 O58 1.255 . S
O53 Fe45 1.997 . S
O53 C51 1.235 . S
C54 O60 1.287 . S
C54 O61 1.255 . S
O55 Fe44 1.976 . S
O55 C62 1.287 . S
O56 Fe45 1.996 . S
O56 C62 1.255 . S
O57 Fe47 1.976 . S
O57 C52 1.287 . S
O58 Fe44 1.996 . S
O58 C52 1.255 . S
C59 O63 1.295 . S
C59 O64 1.235 . S
O60 Fe45 1.976 . S
O60 C54 1.287 . S
O61 Fe47 1.996 . S
O61 C54 1.255 . S
C62 O55 1.287 . S
C62 O56 1.255 . S
O63 Fe45 2.002 . S
O63 C59 1.295 . S
O64 Fe47 1.997 . S
O64 C59 1.235 . S
C65 O48 1.295 . S
C65 O49 1.235 . S
Fe66 O68 1.918 . S
Fe66 O71 1.997 . S
Fe66 O72 2.002 . S
Fe66 O77 1.976 . S
Fe66 O80 1.996 . S
Fe67 O68 1.918 . S
Fe67 O75 1.997 . S
Fe67 O78 1.996 . S
Fe67 O82 1.976 . S
Fe67 O85 2.002 . S
O68 Fe66 1.918 . S
O68 Fe67 1.918 . S
O68 Fe69 1.918 . S
Fe69 O68 1.918 . S
Fe69 O70 2.002 . S
Fe69 O79 1.976 . S
Fe69 O83 1.996 . S
Fe69 O86 1.997 . S
O70 Fe69 2.002 . S
O70 C87 1.295 . S
O71 Fe66 1.997 . S
O71 C87 1.235 . S
O72 Fe66 2.002 . S
O72 C73 1.295 . S
C73 O72 1.295 . S
C73 O75 1.235 . S
C74 O79 1.287 . S
C74 O80 1.255 . S
O75 Fe67 1.997 . S
O75 C73 1.235 . S
C76 O82 1.282 1_455 S
C76 O83 1.248 1_455 S
O77 Fe66 1.976 . S
O77 C84 1.287 . S
O78 Fe67 1.996 . S
O78 C84 1.255 . S
O79 Fe69 1.976 . S
O79 C74 1.287 . S
O80 Fe66 1.996 . S
O80 C74 1.255 . S
C81 O85 1.295 . S
C81 O86 1.235 . S
O82 Fe67 1.976 . S
O82 C76 1.282 1_655 S
O83 Fe69 1.996 . S
O83 C76 1.248 1_655 S
C84 O77 1.287 . S
C84 O78 1.255 . S
O85 Fe67 2.002 . S
O85 C81 1.295 . S
O86 Fe69 1.997 . S
O86 C81 1.235 . S
C87 O70 1.295 . S
C87 O71 1.235 . S
Fe88 O90 1.918 . S
Fe88 O93 1.997 . S
Fe88 O94 2.002 . S
Fe88 O99 1.976 . S
Fe88 O102 1.996 . S
Fe89 O90 1.918 . S
Fe89 O97 1.997 . S
Fe89 O100 1.996 . S
Fe89 O104 1.976 . S
Fe89 O107 2.002 . S
O90 Fe88 1.918 . S
O90 Fe89 1.918 . S
O90 Fe91 1.918 . S
Fe91 O90 1.918 . S
Fe91 O92 2.002 . S
Fe91 O101 1.976 . S
Fe91 O105 1.996 . S
Fe91 O108 1.997 . S
O92 Fe91 2.002 . S
O92 C109 1.295 . S
O93 Fe88 1.997 . S
O93 C109 1.235 . S
O94 Fe88 2.002 . S
O94 C95 1.295 . S
C95 O94 1.295 . S
C95 O97 1.235 . S
C96 O101 1.287 . S
C96 O102 1.255 . S
O97 Fe89 1.997 . S
O97 C95 1.235 . S
C98 O104 1.287 . S
C98 O105 1.255 . S
O99 Fe88 1.976 . S
O99 C106 1.287 . S
O100 Fe89 1.996 . S
O100 C106 1.255 . S
O101 Fe91 1.976 . S
O101 C96 1.287 . S
O102 Fe88 1.996 . S
O102 C96 1.255 . S
C103 O107 1.295 . S
C103 O108 1.235 . S
O104 Fe89 1.976 . S
O104 C98 1.287 . S
O105 Fe91 1.996 . S
O105 C98 1.255 . S
C106 O99 1.287 . S
C106 O100 1.255 . S
O107 Fe89 2.002 . S
O107 C103 1.295 . S
O108 Fe91 1.997 . S
O108 C103 1.235 . S
C109 O92 1.295 . S
C109 O93 1.235 . S
Fe110 O112 1.918 . S
Fe110 O115 1.997 . S
Fe110 O116 2.002 . S
Fe110 O121 1.976 . S
Fe110 O124 1.996 . S
Fe111 O112 1.918 . S
Fe111 O119 1.997 . S
Fe111 O122 1.996 . S
Fe111 O126 1.976 . S
Fe111 O129 2.002 . S
O112 Fe110 1.918 . S
O112 Fe111 1.918 . S
O112 Fe113 1.918 . S
Fe113 O112 1.918 . S
Fe113 O114 2.002 . S
Fe113 O123 1.976 . S
Fe113 O127 1.996 . S
Fe113 O130 1.997 . S
O114 Fe113 2.002 . S
O114 C131 1.295 . S
O115 Fe110 1.997 . S
O115 C131 1.235 . S
O116 Fe110 2.002 . S
O116 C117 1.295 . S
C117 O116 1.295 . S
C117 O119 1.235 . S
C118 O123 1.287 . S
C118 O124 1.255 . S
O119 Fe111 1.997 . S
O119 C117 1.235 . S
C120 O126 1.287 . S
C120 O127 1.255 . S
O121 Fe110 1.976 . S
O121 C128 1.287 . S
O122 Fe111 1.996 . S
O122 C128 1.255 . S
O123 Fe113 1.976 . S
O123 C118 1.287 . S
O124 Fe110 1.996 . S
O124 C118 1.255 . S
C125 O129 1.295 . S
C125 O130 1.235 . S
O126 Fe111 1.976 . S
O126 C120 1.287 . S
O127 Fe113 1.996 . S
O127 C120 1.255 . S
C128 O121 1.287 . S
C128 O122 1.255 . S
O129 Fe111 2.002 . S
O129 C125 1.295 . S
O130 Fe113 1.997 . S
O130 C125 1.235 . S
C131 O114 1.295 . S
C131 O115 1.235 . S
Fe132 O134 1.918 . S
Fe132 O137 1.997 . S
Fe132 O138 2.002 . S
Fe132 O143 1.976 . S
Fe132 O146 1.996 . S
Fe133 O134 1.918 . S
Fe133 O141 1.997 . S
Fe133 O144 1.996 . S
Fe133 O148 1.976 . S
Fe133 O151 2.002 . S
O134 Fe132 1.918 . S
O134 Fe133 1.918 . S
O134 Fe135 1.918 . S
Fe135 O134 1.918 . S
Fe135 O136 2.002 . S
Fe135 O145 1.976 . S
Fe135 O149 1.996 . S
Fe135 O152 1.997 . S
O136 Fe135 2.002 . S
O136 C153 1.295 . S
O137 Fe132 1.997 . S
O137 C153 1.235 . S
O138 Fe132 2.002 . S
O138 C139 1.295 . S
C139 O138 1.295 . S
C139 O141 1.235 . S
C140 O145 1.287 . S
C140 O146 1.255 . S
O141 Fe133 1.997 . S
O141 C139 1.235 . S
C142 O148 1.287 . S
C142 O149 1.255 . S
O143 Fe132 1.976 . S
O143 C150 1.287 . S
O144 Fe133 1.996 . S
O144 C150 1.255 . S
O145 Fe135 1.976 . S
O145 C140 1.287 . S
O146 Fe132 1.996 . S
O146 C140 1.255 . S
C147 O151 1.295 . S
C147 O152 1.235 . S
O148 Fe133 1.976 . S
O148 C142 1.287 . S
O149 Fe135 1.996 . S
O149 C142 1.255 . S
C150 O143 1.287 . S
C150 O144 1.255 . S
O151 Fe133 2.002 . S
O151 C147 1.295 . S
O152 Fe135 1.997 . S
O152 C147 1.235 . S
C153 O136 1.295 . S
C153 O137 1.235 . S
Fe154 O156 1.918 . S
Fe154 O159 1.997 . S
Fe154 O160 2.002 . S
Fe154 O165 1.976 . S
Fe154 O168 1.996 . S
Fe155 O156 1.918 . S
Fe155 O163 1.997 . S
Fe155 O166 1.996 . S
Fe155 O170 1.976 . S
Fe155 O173 2.002 . S
O156 Fe154 1.918 . S
O156 Fe155 1.918 . S
O156 Fe157 1.918 . S
Fe157 O156 1.918 . S
Fe157 O158 2.002 . S
Fe157 O167 1.976 . S
Fe157 O171 1.996 . S
Fe157 O174 1.997 . S
O158 Fe157 2.002 . S
O158 C175 1.295 . S
O159 Fe154 1.997 . S
O159 C175 1.235 . S
O160 Fe154 2.002 . S
O160 C161 1.295 . S
C161 O160 1.295 . S
C161 O163 1.235 . S
C162 O167 1.287 . S
C162 O168 1.255 . S
O163 Fe155 1.997 . S
O163 C161 1.235 . S
C164 O170 1.287 1_655 S
C164 O171 1.255 1_655 S
O165 Fe154 1.976 . S
O165 C172 1.287 . S
O166 Fe155 1.996 . S
O166 C172 1.255 . S
O167 Fe157 1.976 . S
O167 C162 1.287 . S
O168 Fe154 1.996 . S
O168 C162 1.255 . S
C169 O173 1.295 . S
C169 O174 1.235 . S
O170 Fe155 1.976 . S
O170 C164 1.287 1_455 S
O171 Fe157 1.996 . S
O171 C164 1.255 1_455 S
C172 O165 1.287 . S
C172 O166 1.255 . S
O173 Fe155 2.002 . S
O173 C169 1.295 . S
O174 Fe157 1.997 . S
O174 C169 1.235 . S
C175 O158 1.295 . S
C175 O159 1.235 . S
Fe176 O178 1.918 . S
Fe176 O181 1.997 . S
Fe176 O182 2.002 . S
Fe176 O187 1.976 . S
Fe176 O190 1.996 . S
Fe177 O178 1.918 . S
Fe177 O185 1.997 . S
Fe177 O188 1.996 . S
Fe177 O192 1.976 . S
Fe177 O195 2.002 . S
O178 Fe176 1.918 . S
O178 Fe177 1.918 . S
O178 Fe179 1.918 . S
Fe179 O178 1.918 . S
Fe179 O180 2.002 . S
Fe179 O189 1.976 . S
Fe179 O193 1.996 . S
Fe179 O196 1.997 . S
O180 Fe179 2.002 . S
O180 C197 1.295 . S
O181 Fe176 1.997 . S
O181 C197 1.235 . S
O182 Fe176 2.002 . S
O182 C183 1.295 . S
C183 O182 1.295 . S
C183 O185 1.235 . S
C184 O189 1.287 . S
C184 O190 1.255 . S
O185 Fe177 1.997 . S
O185 C183 1.235 . S
C186 O192 1.287 . S
C186 O193 1.255 . S
O187 Fe176 1.976 . S
O187 C194 1.287 . S
O188 Fe177 1.996 . S
O188 C194 1.255 . S
O189 Fe179 1.976 . S
O189 C184 1.287 . S
O190 Fe176 1.996 . S
O190 C184 1.255 . S
C191 O195 1.295 . S
C191 O196 1.235 . S
O192 Fe177 1.976 . S
O192 C186 1.287 . S
O193 Fe179 1.996 . S
O193 C186 1.255 . S
C194 O187 1.287 . S
C194 O188 1.255 . S
O195 Fe177 2.002 . S
O195 C191 1.295 . S
O196 Fe179 1.997 . S
O196 C191 1.235 . S
C197 O180 1.295 . S
C197 O181 1.235 . S
Fe198 O200 1.918 . S
Fe198 O203 1.997 1_545 S
Fe198 O204 2.002 . S
Fe198 O209 1.976 . S
Fe198 O212 1.996 . S
Fe199 O200 1.918 . S
Fe199 O207 1.997 . S
Fe199 O210 1.996 . S
Fe199 O214 1.976 . S
Fe199 O217 2.002 . S
O200 Fe198 1.918 . S
O200 Fe199 1.918 . S
O200 Fe201 1.918 . S
Fe201 O200 1.918 . S
Fe201 O202 2.002 1_545 S
Fe201 O211 1.976 . S
Fe201 O215 1.996 . S
Fe201 O218 1.997 . S
O202 Fe201 2.002 1_565 S
O202 C219 1.295 . S
O203 Fe198 1.997 1_565 S
O203 C219 1.235 . S
O204 Fe198 2.002 . S
O204 C205 1.295 . S
C205 O204 1.295 . S
C205 O207 1.235 . S
C206 O211 1.287 . S
C206 O212 1.255 . S
O207 Fe199 1.997 . S
O207 C205 1.235 . S
C208 O214 1.287 . S
C208 O215 1.255 . S
O209 Fe198 1.976 . S
O209 C216 1.287 . S
O210 Fe199 1.996 . S
O210 C216 1.255 . S
O211 Fe201 1.976 . S
O211 C206 1.287 . S
O212 Fe198 1.996 . S
O212 C206 1.255 . S
C213 O217 1.295 . S
C213 O218 1.235 . S
O214 Fe199 1.976 . S
O214 C208 1.287 . S
O215 Fe201 1.996 . S
O215 C208 1.255 . S
C216 O209 1.287 . S
C216 O210 1.255 . S
O217 Fe199 2.002 . S
O217 C213 1.295 . S
O218 Fe201 1.997 . S
O218 C213 1.235 . S
C219 O202 1.295 . S
C219 O203 1.235 . S
Fe220 O222 1.918 . S
Fe220 O225 1.997 . S
Fe220 O226 2.002 . S
Fe220 O231 1.976 . S
Fe220 O234 1.996 . S
Fe221 O222 1.918 . S
Fe221 O229 1.997 . S
Fe221 O232 1.996 . S
Fe221 O236 1.976 . S
Fe221 O239 2.002 . S
O222 Fe220 1.918 . S
O222 Fe221 1.918 . S
O222 Fe223 1.918 . S
Fe223 O222 1.918 . S
Fe223 O224 2.002 . S
Fe223 O233 1.976 . S
Fe223 O237 1.996 . S
Fe223 O240 1.997 . S
O224 Fe223 2.002 . S
O224 C241 1.295 . S
O225 Fe220 1.997 . S
O225 C241 1.235 . S
O226 Fe220 2.002 . S
O226 C227 1.295 . S
C227 O226 1.295 . S
C227 O229 1.235 . S
C228 O233 1.287 . S
C228 O234 1.255 . S
O229 Fe221 1.997 . S
O229 C227 1.235 . S
C230 O236 1.287 . S
C230 O237 1.255 . S
O231 Fe220 1.976 . S
O231 C238 1.287 . S
O232 Fe221 1.996 . S
O232 C238 1.255 . S
O233 Fe223 1.976 . S
O233 C228 1.287 . S
O234 Fe220 1.996 . S
O234 C228 1.255 . S
C235 O239 1.295 . S
C235 O240 1.235 . S
O236 Fe221 1.976 . S
O236 C230 1.287 . S
O237 Fe223 1.996 . S
O237 C230 1.255 . S
C238 O231 1.287 . S
C238 O232 1.255 . S
O239 Fe221 2.002 . S
O239 C235 1.295 . S
O240 Fe223 1.997 . S
O240 C235 1.235 . S
C241 O224 1.295 . S
C241 O225 1.235 . S
Fe242 O244 1.918 . S
Fe242 O247 1.997 . S
Fe242 O248 2.002 . S
Fe242 O253 1.976 1_565 S
Fe242 O256 1.996 . S
Fe243 O244 1.918 . S
Fe243 O251 1.997 . S
Fe243 O254 1.996 1_565 S
Fe243 O258 1.976 . S
Fe243 O261 2.002 . S
O244 Fe242 1.918 . S
O244 Fe243 1.918 . S
O244 Fe245 1.918 . S
Fe245 O244 1.918 . S
Fe245 O246 2.002 . S
Fe245 O255 1.976 . S
Fe245 O259 1.996 . S
Fe245 O262 1.997 . S
O246 Fe245 2.002 . S
O246 C263 1.295 . S
O247 Fe242 1.997 . S
O247 C263 1.235 . S
O248 Fe242 2.002 . S
O248 C249 1.295 . S
C249 O248 1.295 . S
C249 O251 1.235 . S
C250 O255 1.287 . S
C250 O256 1.255 . S
O251 Fe243 1.997 . S
O251 C249 1.235 . S
C252 O258 1.287 . S
C252 O259 1.255 . S
O253 Fe242 1.976 1_545 S
O253 C260 1.287 . S
O254 Fe243 1.996 1_545 S
O254 C260 1.255 . S
O255 Fe245 1.976 . S
O255 C250 1.287 . S
O256 Fe242 1.996 . S
O256 C250 1.255 . S
C257 O261 1.295 . S
C257 O262 1.235 . S
O258 Fe243 1.976 . S
O258 C252 1.287 . S
O259 Fe245 1.996 . S
O259 C252 1.255 . S
C260 O253 1.287 . S
C260 O254 1.255 . S
O261 Fe243 2.002 . S
O261 C257 1.295 . S
O262 Fe245 1.997 . S
O262 C257 1.235 . S
C263 O246 1.295 . S
C263 O247 1.235 . S
Fe264 O266 1.918 . S
Fe264 O269 1.997 . S
Fe264 O270 2.002 . S
Fe264 O275 1.976 . S
Fe264 O278 1.996 . S
Fe265 O266 1.918 . S
Fe265 O273 1.997 . S
Fe265 O276 1.996 . S
Fe265 O280 1.976 . S
Fe265 O283 2.002 . S
O266 Fe264 1.918 . S
O266 Fe265 1.918 . S
O266 Fe267 1.918 . S
Fe267 O266 1.918 . S
Fe267 O268 2.002 . S
Fe267 O277 1.976 . S
Fe267 O281 1.996 . S
Fe267 O284 1.997 . S
O268 Fe267 2.002 . S
O268 C285 1.295 . S
O269 Fe264 1.997 . S
O269 C285 1.235 . S
O270 Fe264 2.002 . S
O270 C271 1.295 . S
C271 O270 1.295 . S
C271 O273 1.235 . S
C272 O277 1.287 . S
C272 O278 1.255 . S
O273 Fe265 1.997 . S
O273 C271 1.235 . S
C274 O280 1.287 . S
C274 O281 1.255 . S
O275 Fe264 1.976 . S
O275 C282 1.287 . S
O276 Fe265 1.996 . S
O276 C282 1.255 . S
O277 Fe267 1.976 . S
O277 C272 1.287 . S
O278 Fe264 1.996 . S
O278 C272 1.255 . S
C279 O283 1.295 . S
C279 O284 1.235 . S
O280 Fe265 1.976 . S
O280 C274 1.287 . S
O281 Fe267 1.996 . S
O281 C274 1.255 . S
C282 O275 1.287 . S
C282 O276 1.255 . S
O283 Fe265 2.002 . S
O283 C279 1.295 . S
O284 Fe267 1.997 . S
O284 C279 1.235 . S
C285 O268 1.295 . S
C285 O269 1.235 . S
Fe286 O288 1.918 . S
Fe286 O291 1.997 . S
Fe286 O292 2.002 . S
Fe286 O297 1.976 . S
Fe286 O300 1.996 1_565 S
Fe287 O288 1.918 . S
Fe287 O295 1.997 . S
Fe287 O298 1.996 . S
Fe287 O302 1.976 . S
Fe287 O305 2.002 . S
O288 Fe286 1.918 . S
O288 Fe287 1.918 . S
O288 Fe289 1.918 . S
Fe289 O288 1.918 . S
Fe289 O290 2.002 . S
Fe289 O299 1.976 1_565 S
Fe289 O303 1.996 . S
Fe289 O306 1.997 . S
O290 Fe289 2.002 . S
O290 C307 1.295 . S
O291 Fe286 1.997 . S
O291 C307 1.235 . S
O292 Fe286 2.002 . S
O292 C293 1.295 . S
C293 O292 1.295 . S
C293 O295 1.235 . S
C294 O299 1.287 . S
C294 O300 1.255 . S
O295 Fe287 1.997 . S
O295 C293 1.235 . S
C296 O302 1.287 1_455 S
C296 O303 1.255 1_455 S
O297 Fe286 1.976 . S
O297 C304 1.287 . S
O298 Fe287 1.996 . S
O298 C304 1.255 . S
O299 Fe289 1.976 1_545 S
O299 C294 1.287 . S
O300 Fe286 1.996 1_545 S
O300 C294 1.255 . S
C301 O305 1.295 . S
C301 O306 1.235 . S
O302 Fe287 1.976 . S
O302 C296 1.287 1_655 S
O303 Fe289 1.996 . S
O303 C296 1.255 1_655 S
C304 O297 1.287 . S
C304 O298 1.255 . S
O305 Fe287 2.002 . S
O305 C301 1.295 . S
O306 Fe289 1.997 . S
O306 C301 1.235 . S
C307 O290 1.295 . S
C307 O291 1.235 . S
Fe308 O310 1.918 . S
Fe308 O313 1.997 . S
Fe308 O314 2.002 . S
Fe308 O319 1.976 . S
Fe308 O322 1.996 . S
Fe309 O310 1.918 . S
Fe309 O317 1.997 . S
Fe309 O320 1.996 . S
Fe309 O324 1.976 . S
Fe309 O327 2.002 . S
O310 Fe308 1.918 . S
O310 Fe309 1.918 . S
O310 Fe311 1.918 . S
Fe311 O310 1.918 . S
Fe311 O312 2.002 . S
Fe311 O321 1.976 . S
Fe311 O325 1.996 . S
Fe311 O328 1.997 . S
O312 Fe311 2.002 . S
O312 C329 1.295 . S
O313 Fe308 1.997 . S
O313 C329 1.235 . S
O314 Fe308 2.002 . S
O314 C315 1.295 . S
C315 O314 1.295 . S
C315 O317 1.235 . S
C316 O321 1.287 . S
C316 O322 1.255 . S
O317 Fe309 1.997 . S
O317 C315 1.235 . S
C318 O324 1.287 . S
C318 O325 1.255 . S
O319 Fe308 1.976 . S
O319 C326 1.287 . S
O320 Fe309 1.996 . S
O320 C326 1.255 . S
O321 Fe311 1.976 . S
O321 C316 1.287 . S
O322 Fe308 1.996 . S
O322 C316 1.255 . S
C323 O327 1.295 . S
C323 O328 1.235 . S
O324 Fe309 1.976 . S
O324 C318 1.287 . S
O325 Fe311 1.996 . S
O325 C318 1.255 . S
C326 O319 1.287 . S
C326 O320 1.255 . S
O327 Fe309 2.002 . S
O327 C323 1.295 . S
O328 Fe311 1.997 . S
O328 C323 1.235 . S
C329 O312 1.295 . S
C329 O313 1.235 . S
Fe330 O332 1.918 . S
Fe330 O335 1.997 . S
Fe330 O336 2.002 . S
Fe330 O341 1.976 . S
Fe330 O344 1.996 1_545 S
Fe331 O332 1.918 . S
Fe331 O339 1.997 . S
Fe331 O342 1.996 . S
Fe331 O346 1.976 . S
Fe331 O349 2.002 . S
O332 Fe330 1.918 . S
O332 Fe331 1.918 . S
O332 Fe333 1.918 . S
Fe333 O332 1.918 . S
Fe333 O334 2.002 . S
Fe333 O343 1.976 1_545 S
Fe333 O347 1.996 . S
Fe333 O350 1.997 . S
O334 Fe333 2.002 . S
O334 C351 1.295 . S
O335 Fe330 1.997 . S
O335 C351 1.235 . S
O336 Fe330 2.002 . S
O336 C337 1.295 . S
C337 O336 1.295 . S
C337 O339 1.235 . S
C338 O343 1.287 . S
C338 O344 1.255 . S
O339 Fe331 1.997 . S
O339 C337 1.235 . S
C340 O346 1.287 . S
C340 O347 1.255 . S
O341 Fe330 1.976 . S
O341 C348 1.287 . S
O342 Fe331 1.996 . S
O342 C348 1.255 . S
O343 Fe333 1.976 1_565 S
O343 C338 1.287 . S
O344 Fe330 1.996 1_565 S
O344 C338 1.255 . S
C345 O349 1.295 . S
C345 O350 1.235 . S
O346 Fe331 1.976 . S
O346 C340 1.287 . S
O347 Fe333 1.996 . S
O347 C340 1.255 . S
C348 O341 1.287 . S
C348 O342 1.255 . S
O349 Fe331 2.002 . S
O349 C345 1.295 . S
O350 Fe333 1.997 . S
O350 C345 1.235 . S
C351 O334 1.295 . S
C351 O335 1.235 . S
C352 C353 1.369 . S
C352 C354 1.419 . S
C352 H356 0.930 . S
C353 C352 1.369 . S
C353 C362 1.429 . S
C354 C352 1.419 . S
C354 C355 1.363 . S
C354 H357 0.929 . S
C355 C354 1.363 . S
C355 C361 1.428 . S
H356 C352 0.930 . S
H357 C354 0.929 . S
S358 N359 1.613 . S
S358 N360 1.610 . S
N359 S358 1.613 . S
N359 C362 1.350 . S
N360 S358 1.610 . S
N360 C361 1.351 . S
C361 C355 1.428 . S
C361 N360 1.351 . S
C361 C362 1.434 . S
C362 C353 1.429 . S
C362 N359 1.350 . S
C362 C361 1.434 . S
C363 C364 1.369 . S
C363 C365 1.419 . S
C363 H367 0.930 . S
C364 C363 1.369 . S
C364 C373 1.429 . S
C365 C363 1.419 . S
C365 C366 1.363 . S
C365 H368 0.929 . S
C366 C365 1.363 . S
C366 C372 1.428 . S
H367 C363 0.930 . S
H368 C365 0.929 . S
S369 N370 1.613 . S
S369 N371 1.610 . S
N370 S369 1.613 . S
N370 C373 1.350 . S
N371 S369 1.610 . S
N371 C372 1.351 . S
C372 C366 1.428 . S
C372 N371 1.351 . S
C372 C373 1.434 . S
C373 C364 1.429 . S
C373 N370 1.350 . S
C373 C372 1.434 . S
C374 C375 1.369 . S
C374 C376 1.419 1_455 S
C374 H378 0.930 . S
C375 C374 1.369 . S
C375 C384 1.429 . S
C376 C374 1.419 1_655 S
C376 C377 1.363 . S
C376 H379 0.929 . S
C377 C376 1.363 . S
C377 C383 1.428 . S
H378 C374 0.930 . S
H379 C376 0.929 . S
S380 N381 1.613 1_655 S
S380 N382 1.610 . S
N381 S380 1.613 1_455 S
N381 C384 1.350 . S
N382 S380 1.610 . S
N382 C383 1.351 . S
C383 C377 1.428 . S
C383 N382 1.351 . S
C383 C384 1.434 1_655 S
C384 C375 1.429 . S
C384 N381 1.350 . S
C384 C383 1.434 1_455 S
C385 C386 1.369 . S
C385 C387 1.419 . S
C385 H389 0.930 . S
C386 C385 1.369 . S
C386 C395 1.429 1_455 S
C387 C385 1.419 . S
C387 C388 1.363 1_455 S
C387 H390 0.929 . S
C388 C387 1.363 1_655 S
C388 C394 1.428 . S
H389 C385 0.930 . S
H390 C387 0.929 . S
S391 N392 1.613 . S
S391 N393 1.610 . S
N392 S391 1.613 . S
N392 C395 1.350 . S
N393 S391 1.610 . S
N393 C394 1.351 . S
C394 C388 1.428 . S
C394 N393 1.351 . S
C394 C395 1.434 . S
C395 C386 1.429 1_655 S
C395 N392 1.350 . S
C395 C394 1.434 . S
C396 C397 1.369 . S
C396 C398 1.419 . S
C396 H400 0.930 . S
C397 C396 1.369 . S
C397 C406 1.429 . S
C398 C396 1.419 . S
C398 C399 1.363 . S
C398 H401 0.929 . S
C399 C398 1.363 . S
C399 C405 1.428 . S
H400 C396 0.930 . S
H401 C398 0.929 . S
S402 N403 1.613 . S
S402 N404 1.610 . S
N403 S402 1.613 . S
N403 C406 1.350 . S
N404 S402 1.610 . S
N404 C405 1.351 . S
C405 C399 1.428 . S
C405 N404 1.351 . S
C405 C406 1.434 . S
C406 C397 1.429 . S
C406 N403 1.350 . S
C406 C405 1.434 . S
C407 C408 1.369 . S
C407 C409 1.419 . S
C407 H411 0.930 . S
C408 C407 1.369 . S
C408 C417 1.429 . S
C409 C407 1.419 . S
C409 C410 1.363 . S
C409 H412 0.929 . S
C410 C409 1.363 . S
C410 C416 1.428 . S
H411 C407 0.930 . S
H412 C409 0.929 . S
S413 N414 1.613 . S
S413 N415 1.610 . S
N414 S413 1.613 . S
N414 C417 1.350 . S
N415 S413 1.610 . S
N415 C416 1.351 . S
C416 C410 1.428 . S
C416 N415 1.351 . S
C416 C417 1.434 . S
C417 C408 1.429 . S
C417 N414 1.350 . S
C417 C416 1.434 . S
C418 C419 1.369 . S
C418 C420 1.419 1_455 S
C418 H422 0.930 . S
C419 C418 1.369 . S
C419 C428 1.429 . S
C420 C418 1.419 1_655 S
C420 C421 1.363 . S
C420 H423 0.929 . S
C421 C420 1.363 . S
C421 C427 1.428 . S
H422 C418 0.930 . S
H423 C420 0.929 . S
S424 N425 1.613 . S
S424 N426 1.610 1_455 S
N425 S424 1.613 . S
N425 C428 1.350 . S
N426 S424 1.610 1_655 S
N426 C427 1.351 . S
C427 C421 1.428 . S
C427 N426 1.351 . S
C427 C428 1.434 1_655 S
C428 C419 1.429 . S
C428 N425 1.350 . S
C428 C427 1.434 1_455 S
C429 C430 1.369 . S
C429 C431 1.419 1_455 S
C429 H433 0.930 . S
C430 C429 1.369 . S
C430 C439 1.429 . S
C431 C429 1.419 1_655 S
C431 C432 1.363 . S
C431 H434 0.929 . S
C432 C431 1.363 . S
C432 C438 1.428 . S
H433 C429 0.930 . S
H434 C431 0.929 . S
S435 N436 1.613 1_655 S
S435 N437 1.610 . S
N436 S435 1.613 1_455 S
N436 C439 1.350 . S
N437 S435 1.610 . S
N437 C438 1.351 . S
C438 C432 1.428 . S
C438 N437 1.351 . S
C438 C439 1.434 1_655 S
C439 C430 1.429 . S
C439 N436 1.350 . S
C439 C438 1.434 1_455 S
C440 C441 1.369 1_556 S
C440 C442 1.419 . S
C440 H444 0.930 . S
C441 C440 1.369 1_554 S
C441 C450 1.429 1_545 S
C442 C440 1.419 . S
C442 C443 1.363 1_545 S
C442 H445 0.929 . S
C443 C442 1.363 1_565 S
C443 C449 1.428 1_556 S
H444 C440 0.930 . S
H445 C442 0.929 . S
S446 N447 1.613 . S
S446 N448 1.610 . S
N447 S446 1.613 . S
N447 C450 1.350 . S
N448 S446 1.610 . S
N448 C449 1.351 . S
C449 C443 1.428 1_554 S
C449 N448 1.351 . S
C449 C450 1.434 . S
C450 C441 1.429 1_565 S
C450 N447 1.350 . S
C450 C449 1.434 . S
C451 C452 1.369 . S
C451 C453 1.419 . S
C451 H455 0.930 . S
C452 C451 1.369 . S
C452 C461 1.429 . S
C453 C451 1.419 . S
C453 C454 1.363 . S
C453 H456 0.929 . S
C454 C453 1.363 . S
C454 C460 1.428 . S
H455 C451 0.930 . S
H456 C453 0.929 . S
S457 N458 1.613 . S
S457 N459 1.610 . S
N458 S457 1.613 . S
N458 C461 1.350 . S
N459 S457 1.610 . S
N459 C460 1.351 . S
C460 C454 1.428 . S
C460 N459 1.351 . S
C460 C461 1.434 . S
C461 C452 1.429 . S
C461 N458 1.350 . S
C461 C460 1.434 . S
C462 C463 1.369 1_545 S
C462 C464 1.419 . S
C462 H466 0.930 . S
C463 C462 1.369 1_565 S
C463 C472 1.429 1_455 S
C464 C462 1.419 . S
C464 C465 1.363 1_455 S
C464 H467 0.929 . S
C465 C464 1.363 1_655 S
C465 C471 1.428 1_545 S
H466 C462 0.930 . S
H467 C464 0.929 . S
S468 N469 1.613 . S
S468 N470 1.610 . S
N469 S468 1.613 . S
N469 C472 1.350 . S
N470 S468 1.610 . S
N470 C471 1.351 . S
C471 C465 1.428 1_565 S
C471 N470 1.351 . S
C471 C472 1.434 . S
C472 C463 1.429 1_655 S
C472 N469 1.350 . S
C472 C471 1.434 . S
C473 C474 1.369 . S
C473 C475 1.419 . S
C473 H477 0.930 . S
C474 C473 1.369 . S
C474 C483 1.429 . S
C475 C473 1.419 . S
C475 C476 1.363 . S
C475 H478 0.929 . S
C476 C475 1.363 . S
C476 C482 1.428 . S
H477 C473 0.930 . S
H478 C475 0.929 . S
S479 N480 1.613 . S
S479 N481 1.610 . S
N480 S479 1.613 . S
N480 C483 1.350 . S
N481 S479 1.610 . S
N481 C482 1.351 . S
C482 C476 1.428 . S
C482 N481 1.351 . S
C482 C483 1.434 . S
C483 C474 1.429 . S
C483 N480 1.350 . S
C483 C482 1.434 . S
C484 C485 1.369 . S
C484 C486 1.419 . S
C484 H488 0.930 . S
C485 C484 1.369 . S
C485 C494 1.429 . S
C486 C484 1.419 . S
C486 C487 1.363 . S
C486 H489 0.929 . S
C487 C486 1.363 . S
C487 C493 1.428 . S
H488 C484 0.930 . S
H489 C486 0.929 . S
S490 N491 1.613 . S
S490 N492 1.610 . S
N491 S490 1.613 . S
N491 C494 1.350 . S
N492 S490 1.610 . S
N492 C493 1.351 . S
C493 C487 1.428 . S
C493 N492 1.351 . S
C493 C494 1.434 . S
C494 C485 1.429 . S
C494 N491 1.350 . S
C494 C493 1.434 . S
C495 C496 1.369 . S
C495 C497 1.419 . S
C495 H499 0.930 . S
C496 C495 1.369 . S
C496 C505 1.429 . S
C497 C495 1.419 . S
C497 C498 1.363 . S
C497 H500 0.929 . S
C498 C497 1.363 . S
C498 C504 1.428 . S
H499 C495 0.930 . S
H500 C497 0.929 . S
S501 N502 1.613 . S
S501 N503 1.610 . S
N502 S501 1.613 . S
N502 C505 1.350 . S
N503 S501 1.610 . S
N503 C504 1.351 . S
C504 C498 1.428 . S
C504 N503 1.351 . S
C504 C505 1.434 . S
C505 C496 1.429 . S
C505 N502 1.350 . S
C505 C504 1.434 . S
C506 C507 1.369 . S
C506 C508 1.419 1_455 S
C506 H510 0.930 . S
C507 C506 1.369 . S
C507 C516 1.429 . S
C508 C506 1.419 1_655 S
C508 C509 1.363 . S
C508 H511 0.929 . S
C509 C508 1.363 . S
C509 C515 1.428 . S
H510 C506 0.930 . S
H511 C508 0.929 . S
S512 N513 1.613 . S
S512 N514 1.610 1_455 S
N513 S512 1.613 . S
N513 C516 1.350 . S
N514 S512 1.610 1_655 S
N514 C515 1.351 . S
C515 C509 1.428 . S
C515 N514 1.351 . S
C515 C516 1.434 1_655 S
C516 C507 1.429 . S
C516 N513 1.350 . S
C516 C515 1.434 1_455 S
C517 C518 1.369 1_556 S
C517 C519 1.419 . S
C517 H521 0.930 . S
C518 C517 1.369 1_554 S
C518 C527 1.429 . S
C519 C517 1.419 . S
C519 C520 1.363 . S
C519 H522 0.929 . S
C520 C519 1.363 . S
C520 C526 1.428 1_556 S
H521 C517 0.930 . S
H522 C519 0.929 . S
S523 N524 1.613 . S
S523 N525 1.610 . S
N524 S523 1.613 . S
N524 C527 1.350 . S
N525 S523 1.610 . S
N525 C526 1.351 . S
C526 C520 1.428 1_554 S
C526 N525 1.351 . S
C526 C527 1.434 . S
C527 C518 1.429 . S
C527 N524 1.350 . S
C527 C526 1.434 . S
C528 C529 1.369 . S
C528 C530 1.419 . S
C528 H532 0.930 . S
C529 C528 1.369 . S
C529 C538 1.429 . S
C530 C528 1.419 . S
C530 C531 1.363 . S
C530 H533 0.929 . S
C531 C530 1.363 . S
C531 C537 1.428 . S
H532 C528 0.930 . S
H533 C530 0.929 . S
S534 N535 1.613 . S
S534 N536 1.610 . S
N535 S534 1.613 . S
N535 C538 1.350 . S
N536 S534 1.610 . S
N536 C537 1.351 . S
C537 C531 1.428 . S
C537 N536 1.351 . S
C537 C538 1.434 . S
C538 C529 1.429 . S
C538 N535 1.350 . S
C538 C537 1.434 . S
C539 C540 1.369 . S
C539 C541 1.419 . S
C539 H543 0.930 . S
C540 C539 1.369 . S
C540 C549 1.429 . S
C541 C539 1.419 . S
C541 C542 1.363 . S
C541 H544 0.929 . S
C542 C541 1.363 . S
C542 C548 1.428 . S
H543 C539 0.930 . S
H544 C541 0.929 . S
S545 N546 1.613 . S
S545 N547 1.610 . S
N546 S545 1.613 . S
N546 C549 1.350 . S
N547 S545 1.610 . S
N547 C548 1.351 . S
C548 C542 1.428 . S
C548 N547 1.351 . S
C548 C549 1.434 . S
C549 C540 1.429 . S
C549 N546 1.350 . S
C549 C548 1.434 . S
C550 C551 1.369 . S
C550 C552 1.419 . S
C550 H554 0.930 . S
C551 C550 1.369 . S
C551 C560 1.429 . S
C552 C550 1.419 . S
C552 C553 1.363 . S
C552 H555 0.929 . S
C553 C552 1.363 . S
C553 C559 1.428 . S
H554 C550 0.930 . S
H555 C552 0.929 . S
S556 N557 1.613 . S
S556 N558 1.610 . S
N557 S556 1.613 . S
N557 C560 1.350 . S
N558 S556 1.610 . S
N558 C559 1.351 . S
C559 C553 1.428 . S
C559 N558 1.351 . S
C559 C560 1.434 . S
C560 C551 1.429 . S
C560 N557 1.350 . S
C560 C559 1.434 . S
C561 C562 1.369 . S
C561 C563 1.419 . S
C561 H565 0.930 . S
C562 C561 1.369 . S
C562 C571 1.429 . S
C563 C561 1.419 . S
C563 C564 1.363 . S
C563 H566 0.929 . S
C564 C563 1.363 . S
C564 C570 1.428 . S
H565 C561 0.930 . S
H566 C563 0.929 . S
S567 N568 1.613 . S
S567 N569 1.610 . S
N568 S567 1.613 . S
N568 C571 1.350 . S
N569 S567 1.610 . S
N569 C570 1.351 . S
C570 C564 1.428 . S
C570 N569 1.351 . S
C570 C571 1.434 . S
C571 C562 1.429 . S
C571 N568 1.350 . S
C571 C570 1.434 . S
C572 C573 1.369 . S
C572 C574 1.419 . S
C572 H576 0.930 . S
C573 C572 1.369 . S
C573 C582 1.429 . S
C574 C572 1.419 . S
C574 C575 1.363 . S
C574 H577 0.929 . S
C575 C574 1.363 . S
C575 C581 1.428 . S
H576 C572 0.930 . S
H577 C574 0.929 . S
S578 N579 1.613 . S
S578 N580 1.610 . S
N579 S578 1.613 . S
N579 C582 1.350 . S
N580 S578 1.610 . S
N580 C581 1.351 . S
C581 C575 1.428 . S
C581 N580 1.351 . S
C581 C582 1.434 . S
C582 C573 1.429 . S
C582 N579 1.350 . S
C582 C581 1.434 . S
C583 C584 1.369 . S
C583 C585 1.419 . S
C583 H587 0.930 . S
C584 C583 1.369 . S
C584 C593 1.429 . S
C585 C583 1.419 . S
C585 C586 1.363 . S
C585 H588 0.929 . S
C586 C585 1.363 . S
C586 C592 1.428 . S
H587 C583 0.930 . S
H588 C585 0.929 . S
S589 N590 1.613 . S
S589 N591 1.610 . S
N590 S589 1.613 . S
N590 C593 1.350 . S
N591 S589 1.610 . S
N591 C592 1.351 . S
C592 C586 1.428 . S
C592 N591 1.351 . S
C592 C593 1.434 . S
C593 C584 1.429 . S
C593 N590 1.350 . S
C593 C592 1.434 . S
C594 C595 1.369 . S
C594 C596 1.419 . S
C594 H598 0.930 . S
C595 C594 1.369 . S
C595 C604 1.429 . S
C596 C594 1.419 . S
C596 C597 1.363 . S
C596 H599 0.929 . S
C597 C596 1.363 . S
C597 C603 1.428 . S
H598 C594 0.930 . S
H599 C596 0.929 . S
S600 N601 1.613 . S
S600 N602 1.610 . S
N601 S600 1.613 . S
N601 C604 1.350 . S
N602 S600 1.610 . S
N602 C603 1.351 . S
C603 C597 1.428 . S
C603 N602 1.351 . S
C603 C604 1.434 . S
C604 C595 1.429 . S
C604 N601 1.350 . S
C604 C603 1.434 . S
C605 C606 1.369 . S
C605 C607 1.419 . S
C605 H609 0.930 . S
C606 C605 1.369 . S
C606 C615 1.429 . S
C607 C605 1.419 . S
C607 C608 1.363 . S
C607 H610 0.929 . S
C608 C607 1.363 . S
C608 C614 1.428 . S
H609 C605 0.930 . S
H610 C607 0.929 . S
S611 N612 1.613 . S
S611 N613 1.610 . S
N612 S611 1.613 . S
N612 C615 1.350 . S
N613 S611 1.610 . S
N613 C614 1.351 . S
C614 C608 1.428 . S
C614 N613 1.351 . S
C614 C615 1.434 . S
C615 C606 1.429 . S
C615 N612 1.350 . S
C615 C614 1.434 . S
C616 C617 1.369 . S
C616 C618 1.419 . S
C616 H620 0.930 . S
C617 C616 1.369 . S
C617 C626 1.429 . S
C618 C616 1.419 . S
C618 C619 1.363 . S
C618 H621 0.929 . S
C619 C618 1.363 . S
C619 C625 1.428 . S
H620 C616 0.930 . S
H621 C618 0.929 . S
S622 N623 1.613 . S
S622 N624 1.610 . S
N623 S622 1.613 . S
N623 C626 1.350 . S
N624 S622 1.610 . S
N624 C625 1.351 . S
C625 C619 1.428 . S
C625 N624 1.351 . S
C625 C626 1.434 . S
C626 C617 1.429 . S
C626 N623 1.350 . S
C626 C625 1.434 . S
C627 C628 1.369 . S
C627 C629 1.419 . S
C627 H631 0.930 . S
C628 C627 1.369 . S
C628 C637 1.429 . S
C629 C627 1.419 . S
C629 C630 1.363 . S
C629 H632 0.929 . S
C630 C629 1.363 . S
C630 C636 1.428 1_565 S
H631 C627 0.930 . S
H632 C629 0.929 . S
S633 N634 1.613 . S
S633 N635 1.610 . S
N634 S633 1.613 . S
N634 C637 1.350 1_545 S
N635 S633 1.610 . S
N635 C636 1.351 . S
C636 C630 1.428 1_545 S
C636 N635 1.351 . S
C636 C637 1.434 1_545 S
C637 C628 1.429 . S
C637 N634 1.350 1_565 S
C637 C636 1.434 1_565 S
C638 C639 1.369 . S
C638 C640 1.419 . S
C638 H642 0.930 . S
C639 C638 1.369 . S
C639 C648 1.429 . S
C640 C638 1.419 . S
C640 C641 1.363 . S
C640 H643 0.929 . S
C641 C640 1.363 . S
C641 C647 1.428 . S
H642 C638 0.930 . S
H643 C640 0.929 . S
S644 N645 1.613 . S
S644 N646 1.610 . S
N645 S644 1.613 . S
N645 C648 1.350 . S
N646 S644 1.610 . S
N646 C647 1.351 . S
C647 C641 1.428 . S
C647 N646 1.351 . S
C647 C648 1.434 . S
C648 C639 1.429 . S
C648 N645 1.350 . S
C648 C647 1.434 . S
C649 C650 1.369 . S
C649 C651 1.419 1_545 S
C649 H653 0.930 . S
C650 C649 1.369 . S
C650 C659 1.429 . S
C651 C649 1.419 1_565 S
C651 C652 1.363 1_565 S
C651 H654 0.929 . S
C652 C651 1.363 1_545 S
C652 C658 1.428 . S
H653 C649 0.930 . S
H654 C651 0.929 . S
S655 N656 1.613 . S
S655 N657 1.610 . S
N656 S655 1.613 . S
N656 C659 1.350 . S
N657 S655 1.610 . S
N657 C658 1.351 . S
C658 C652 1.428 . S
C658 N657 1.351 . S
C658 C659 1.434 . S
C659 C650 1.429 . S
C659 N656 1.350 . S
C659 C658 1.434 . S
C660 C661 1.369 . S
C660 C662 1.419 . S
C660 H664 0.930 . S
C661 C660 1.369 . S
C661 C670 1.429 . S
C662 C660 1.419 . S
C662 C663 1.363 . S
C662 H665 0.929 . S
C663 C662 1.363 . S
C663 C669 1.428 . S
H664 C660 0.930 . S
H665 C662 0.929 . S
S666 N667 1.613 . S
S666 N668 1.610 . S
N667 S666 1.613 . S
N667 C670 1.350 . S
N668 S666 1.610 . S
N668 C669 1.351 . S
C669 C663 1.428 . S
C669 N668 1.351 . S
C669 C670 1.434 . S
C670 C661 1.429 . S
C670 N667 1.350 . S
C670 C669 1.434 . S
C671 C672 1.369 1_565 S
C671 C673 1.419 1_565 S
C671 H675 0.930 . S
C672 C671 1.369 1_545 S
C672 C681 1.429 . S
C673 C671 1.419 1_545 S
C673 C674 1.363 . S
C673 H676 0.929 . S
C674 C673 1.363 . S
C674 C680 1.428 . S
H675 C671 0.930 . S
H676 C673 0.929 . S
S677 N678 1.613 . S
S677 N679 1.610 . S
N678 S677 1.613 . S
N678 C681 1.350 . S
N679 S677 1.610 . S
N679 C680 1.351 . S
C680 C674 1.428 . S
C680 N679 1.351 . S
C680 C681 1.434 . S
C681 C672 1.429 . S
C681 N678 1.350 . S
C681 C680 1.434 . S
C682 C683 1.369 . S
C682 C684 1.419 . S
C682 H686 0.930 . S
C683 C682 1.369 . S
C683 C692 1.429 . S
C684 C682 1.419 . S
C684 C685 1.363 . S
C684 H687 0.929 . S
C685 C684 1.363 . S
C685 C691 1.428 . S
H686 C682 0.930 . S
H687 C684 0.929 . S
S688 N689 1.613 . S
S688 N690 1.610 . S
N689 S688 1.613 . S
N689 C692 1.350 . S
N690 S688 1.610 . S
N690 C691 1.351 . S
C691 C685 1.428 . S
C691 N690 1.351 . S
C691 C692 1.434 . S
C692 C683 1.429 . S
C692 N689 1.350 . S
C692 C691 1.434 . S
C693 C694 1.369 . S
C693 C695 1.419 . S
C693 H697 0.930 . S
C694 C693 1.369 . S
C694 C703 1.429 1_565 S
C695 C693 1.419 . S
C695 C696 1.363 . S
C695 H698 0.929 . S
C696 C695 1.363 . S
C696 C702 1.428 . S
H697 C693 0.930 . S
H698 C695 0.929 . S
S699 N700 1.613 . S
S699 N701 1.610 . S
N700 S699 1.613 . S
N700 C703 1.350 . S
N701 S699 1.610 . S
N701 C702 1.351 1_545 S
C702 C696 1.428 . S
C702 N701 1.351 1_565 S
C702 C703 1.434 1_565 S
C703 C694 1.429 1_545 S
C703 N700 1.350 . S
C703 C702 1.434 1_545 S
C704 C705 1.369 . S
C704 C706 1.419 . S
C704 H708 0.930 . S
C705 C704 1.369 . S
C705 C714 1.429 . S
C706 C704 1.419 . S
C706 C707 1.363 . S
C706 H709 0.929 . S
C707 C706 1.363 . S
C707 C713 1.428 . S
H708 C704 0.930 . S
H709 C706 0.929 . S
S710 N711 1.613 1_556 S
S710 N712 1.610 . S
N711 S710 1.613 1_554 S
N711 C714 1.350 1_554 S
N712 S710 1.610 . S
N712 C713 1.351 . S
C713 C707 1.428 . S
C713 N712 1.351 . S
C713 C714 1.434 . S
C714 C705 1.429 . S
C714 N711 1.350 1_556 S
C714 C713 1.434 . S
C715 C716 1.369 . S
C715 C717 1.419 . S
C715 H719 0.930 . S
C716 C715 1.369 . S
C716 C725 1.429 . S
C717 C715 1.419 . S
C717 C718 1.363 . S
C717 H720 0.929 . S
C718 C717 1.363 . S
C718 C724 1.428 . S
H719 C715 0.930 . S
H720 C717 0.929 . S
S721 N722 1.613 . S
S721 N723 1.610 . S
N722 S721 1.613 . S
N722 C725 1.350 . S
N723 S721 1.610 . S
N723 C724 1.351 . S
C724 C718 1.428 . S
C724 N723 1.351 . S
C724 C725 1.434 . S
C725 C716 1.429 . S
C725 N722 1.350 . S
C725 C724 1.434 . S
C726 C727 1.369 . S
C726 C728 1.419 . S
C726 H730 0.930 . S
C727 C726 1.369 . S
C727 C736 1.429 . S
C728 C726 1.419 . S
C728 C729 1.363 . S
C728 H731 0.929 . S
C729 C728 1.363 . S
C729 C735 1.428 . S
H730 C726 0.930 . S
H731 C728 0.929 . S
S732 N733 1.613 . S
S732 N734 1.610 . S
N733 S732 1.613 . S
N733 C736 1.350 . S
N734 S732 1.610 . S
N734 C735 1.351 . S
C735 C729 1.428 . S
C735 N734 1.351 . S
C735 C736 1.434 . S
C736 C727 1.429 . S
C736 N733 1.350 . S
C736 C735 1.434 . S
C737 C738 1.369 . S
C737 C739 1.419 . S
C737 H741 0.930 . S
C738 C737 1.369 . S
C738 C747 1.429 . S
C739 C737 1.419 . S
C739 C740 1.363 . S
C739 H742 0.929 . S
C740 C739 1.363 . S
C740 C746 1.428 . S
H741 C737 0.930 . S
H742 C739 0.929 . S
S743 N744 1.613 . S
S743 N745 1.610 . S
N744 S743 1.613 . S
N744 C747 1.350 . S
N745 S743 1.610 . S
N745 C746 1.351 . S
C746 C740 1.428 . S
C746 N745 1.351 . S
C746 C747 1.434 . S
C747 C738 1.429 . S
C747 N744 1.350 . S
C747 C746 1.434 . S
C748 C749 1.369 . S
C748 C750 1.419 . S
C748 H752 0.930 . S
C749 C748 1.369 . S
C749 C758 1.429 . S
C750 C748 1.419 . S
C750 C751 1.363 . S
C750 H753 0.929 . S
C751 C750 1.363 . S
C751 C757 1.428 . S
H752 C748 0.930 . S
H753 C750 0.929 . S
S754 N755 1.613 1_545 S
S754 N756 1.610 1_545 S
N755 S754 1.613 1_565 S
N755 C758 1.350 . S
N756 S754 1.610 1_565 S
N756 C757 1.351 . S
C757 C751 1.428 . S
C757 N756 1.351 . S
C757 C758 1.434 . S
C758 C749 1.429 . S
C758 N755 1.350 . S
C758 C757 1.434 . S
C759 C760 1.369 . S
C759 C761 1.419 . S
C759 H763 0.930 . S
C760 C759 1.369 . S
C760 C769 1.429 . S
C761 C759 1.419 . S
C761 C762 1.363 . S
C761 H764 0.929 . S
C762 C761 1.363 . S
C762 C768 1.428 . S
H763 C759 0.930 . S
H764 C761 0.929 . S
S765 N766 1.613 . S
S765 N767 1.610 . S
N766 S765 1.613 . S
N766 C769 1.350 . S
N767 S765 1.610 . S
N767 C768 1.351 . S
C768 C762 1.428 . S
C768 N767 1.351 . S
C768 C769 1.434 . S
C769 C760 1.429 . S
C769 N766 1.350 . S
C769 C768 1.434 . S
C770 C771 1.369 . S
C770 C772 1.419 . S
C770 H774 0.930 . S
C771 C770 1.369 . S
C771 C780 1.429 . S
C772 C770 1.419 . S
C772 C773 1.363 . S
C772 H775 0.929 . S
C773 C772 1.363 . S
C773 C779 1.428 . S
H774 C770 0.930 . S
H775 C772 0.929 . S
S776 N777 1.613 1_565 S
S776 N778 1.610 1_565 S
N777 S776 1.613 1_545 S
N777 C780 1.350 . S
N778 S776 1.610 1_545 S
N778 C779 1.351 . S
C779 C773 1.428 . S
C779 N778 1.351 . S
C779 C780 1.434 . S
C780 C771 1.429 . S
C780 N777 1.350 . S
C780 C779 1.434 . S
C781 C782 1.369 . S
C781 C783 1.419 . S
C781 H785 0.930 . S
C782 C781 1.369 . S
C782 C791 1.429 . S
C783 C781 1.419 . S
C783 C784 1.363 . S
C783 H786 0.929 . S
C784 C783 1.363 . S
C784 C790 1.428 . S
H785 C781 0.930 . S
H786 C783 0.929 . S
S787 N788 1.613 . S
S787 N789 1.610 . S
N788 S787 1.613 . S
N788 C791 1.350 . S
N789 S787 1.610 . S
N789 C790 1.351 . S
C790 C784 1.428 . S
C790 N789 1.351 . S
C790 C791 1.434 . S
C791 C782 1.429 . S
C791 N788 1.350 . S
C791 C790 1.434 . S
C792 C793 1.369 . S
C792 C794 1.419 . S
C792 H796 0.930 . S
C793 C792 1.369 . S
C793 C802 1.429 . S
C794 C792 1.419 . S
C794 C795 1.363 . S
C794 H797 0.929 . S
C795 C794 1.363 . S
C795 C801 1.428 . S
H796 C792 0.930 . S
H797 C794 0.929 . S
S798 N799 1.613 . S
S798 N800 1.610 . S
N799 S798 1.613 . S
N799 C802 1.350 . S
N800 S798 1.610 . S
N800 C801 1.351 . S
C801 C795 1.428 . S
C801 N800 1.351 . S
C801 C802 1.434 . S
C802 C793 1.429 . S
C802 N799 1.350 . S
C802 C801 1.434 . S
C803 C804 1.369 . S
C803 C805 1.419 . S
C803 H807 0.930 . S
C804 C803 1.369 . S
C804 C813 1.427 1_565 S
C805 C803 1.419 . S
C805 C806 1.362 1_565 S
C805 H808 0.929 . S
C806 C805 1.362 1_545 S
C806 C812 1.429 . S
H807 C803 0.930 . S
H808 C805 0.929 . S
S809 N810 1.613 . S
S809 N811 1.610 . S
N810 S809 1.613 . S
N810 C813 1.351 . S
N811 S809 1.610 . S
N811 C812 1.351 . S
C812 C806 1.429 . S
C812 N811 1.351 . S
C812 C813 1.435 . S
C813 C804 1.427 1_545 S
C813 N810 1.351 . S
C813 C812 1.435 . S
C814 C815 1.369 . S
C814 C816 1.419 . S
C814 H818 0.930 . S
C815 C814 1.369 . S
C815 C824 1.429 . S
C816 C814 1.419 . S
C816 C817 1.363 . S
C816 H819 0.929 . S
C817 C816 1.363 . S
C817 C823 1.428 . S
H818 C814 0.930 . S
H819 C816 0.929 . S
S820 N821 1.613 . S
S820 N822 1.610 . S
N821 S820 1.613 . S
N821 C824 1.350 . S
N822 S820 1.610 . S
N822 C823 1.351 . S
C823 C817 1.428 . S
C823 N822 1.351 . S
C823 C824 1.434 . S
C824 C815 1.429 . S
C824 N821 1.350 . S
C824 C823 1.434 . S
C825 C826 1.369 1_545 S
C825 C827 1.419 . S
C825 H829 0.930 . S
C826 C825 1.369 1_565 S
C826 C835 1.429 . S
C827 C825 1.419 . S
C827 C828 1.363 . S
C827 H830 0.929 . S
C828 C827 1.363 . S
C828 C834 1.428 1_545 S
H829 C825 0.930 . S
H830 C827 0.929 . S
S831 N832 1.613 . S
S831 N833 1.610 . S
N832 S831 1.613 . S
N832 C835 1.350 . S
N833 S831 1.610 . S
N833 C834 1.351 . S
C834 C828 1.428 1_565 S
C834 N833 1.351 . S
C834 C835 1.434 . S
C835 C826 1.429 . S
C835 N832 1.350 . S
C835 C834 1.434 . S
C836 C837 1.369 . S
C836 C838 1.419 . S
C836 H840 0.930 . S
C837 C836 1.369 . S
C837 C846 1.429 . S
C838 C836 1.419 . S
C838 C839 1.363 . S
C838 H841 0.929 . S
C839 C838 1.363 . S
C839 C845 1.428 . S
H840 C836 0.930 . S
H841 C838 0.929 . S
S842 N843 1.613 . S
S842 N844 1.610 . S
N843 S842 1.613 . S
N843 C846 1.350 . S
N844 S842 1.610 . S
N844 C845 1.351 . S
C845 C839 1.428 . S
C845 N844 1.351 . S
C845 C846 1.434 . S
C846 C837 1.429 . S
C846 N843 1.350 . S
C846 C845 1.434 . S
C847 C848 1.369 . S
C847 C849 1.419 . S
C847 H851 0.930 . S
C848 C847 1.369 . S
C848 C857 1.429 1_545 S
C849 C847 1.419 . S
C849 C850 1.363 1_545 S
C849 H852 0.929 . S
C850 C849 1.363 1_565 S
C850 C856 1.428 . S
H851 C847 0.930 . S
H852 C849 0.929 . S
S853 N854 1.613 . S
S853 N855 1.610 . S
N854 S853 1.613 . S
N854 C857 1.350 . S
N855 S853 1.610 . S
N855 C856 1.351 . S
C856 C850 1.428 . S
C856 N855 1.351 . S
C856 C857 1.434 . S
C857 C848 1.429 1_565 S
C857 N854 1.350 . S
C857 C856 1.434 . S
C858 C859 1.369 . S
C858 C860 1.419 . S
C858 H862 0.930 . S
C859 C858 1.369 . S
C859 C868 1.429 . S
C860 C858 1.419 . S
C860 C861 1.363 . S
C860 H863 0.929 . S
C861 C860 1.363 . S
C861 C867 1.428 . S
H862 C858 0.930 . S
H863 C860 0.929 . S
S864 N865 1.613 . S
S864 N866 1.610 . S
N865 S864 1.613 . S
N865 C868 1.350 . S
N866 S864 1.610 . S
N866 C867 1.351 . S
C867 C861 1.428 . S
C867 N866 1.351 . S
C867 C868 1.434 . S
C868 C859 1.429 . S
C868 N865 1.350 . S
C868 C867 1.434 . S
C869 C870 1.369 . S
C869 C871 1.419 1_565 S
C869 H873 0.930 1_565 S
C870 C869 1.369 . S
C870 C879 1.429 . S
C871 C869 1.419 1_545 S
C871 C872 1.363 . S
C871 H874 0.929 . S
C872 C871 1.363 . S
C872 C878 1.428 1_545 S
H873 C869 0.930 1_545 S
H874 C871 0.929 . S
S875 N876 1.613 . S
S875 N877 1.610 . S
N876 S875 1.613 . S
N876 C879 1.350 . S
N877 S875 1.610 . S
N877 C878 1.351 . S
C878 C872 1.428 1_565 S
C878 N877 1.351 . S
C878 C879 1.434 . S
C879 C870 1.429 . S
C879 N876 1.350 . S
C879 C878 1.434 . S
C353 C15 0.895 . S
C355 C241 0.898 . S
C364 C32 0.877 . S
C366 C263 0.878 . S
C375 C65 0.896 . S
C377 C197 0.896 . S
C386 C216 0.877 . S
C388 C81 0.878 . S
C397 C103 0.927 . S
C399 C323 0.926 . S
C408 C345 0.914 . S
C410 C117 0.912 . S
C419 C285 0.921 . S
C421 C153 0.923 . S
C430 C169 0.905 . S
C432 C301 0.905 . S
C441 C7 1.959 . S
C443 C95 1.958 . S
C452 C30 1.929 . S
C454 C293 1.916 . S
C463 C59 1.969 . S
C465 C147 1.969 . S
C474 C73 1.951 . S
C476 C337 1.951 . S
C485 C131 1.915 . S
C487 C208 1.930 . S
C496 C257 1.950 . S
C498 C161 1.951 . S
C507 C279 1.957 . S
C509 C191 1.958 . S
C518 C235 1.970 . S
C520 C315 1.969 . S
C529 C10 1.741 . S
C531 C162 1.733 . S
C540 C37 1.762 . S
C542 C282 1.766 . S
C551 C52 1.739 . S
C553 C120 1.728 . S
C562 C76 1.749 . S
C564 C316 1.728 . S
C573 C74 1.709 . S
C575 C98 1.717 . S
C584 C128 1.723 . S
C586 C194 1.717 . S
C595 C140 1.776 . S
C597 C29 1.755 . S
C606 C238 1.731 . S
C608 C164 1.736 . S
C617 C184 1.742 . S
C619 C338 1.731 . S
C628 C96 1.764 . S
C630 C205 1.764 1_665 S
C639 C294 1.731 . S
C641 C228 1.737 . S
C650 C150 1.731 . S
C652 C250 1.736 1_545 S
C661 C272 1.717 . S
C663 C260 1.708 . S
C672 C296 1.722 1_545 S
C674 C8 1.716 . S
C683 C219 1.758 . S
C685 C318 1.772 . S
C694 C340 1.738 1_565 S
C696 C62 1.728 . S
C705 C18 1.059 1_556 S
C707 C206 1.022 . S
C716 C227 1.090 . S
C718 C43 1.125 . S
C727 C54 1.111 . S
C729 C249 1.050 . S
C738 C183 1.032 . S
C740 C84 1.094 . S
C749 C307 1.042 . S
C751 C106 1.098 1_554 S
C760 C329 1.052 . S
C762 C118 1.105 . S
C771 C351 1.045 . S
C773 C142 1.103 . S
C782 C271 1.047 . S
C784 C172 1.098 . S
C793 C40 1.031 . S
C795 C186 1.052 . S
C804 C51 1.092 . S
C806 C213 1.127 . S
C815 C87 1.063 . S
C817 C230 1.105 1_556 S
C826 C252 1.088 . S
C828 C21 1.043 . S
C837 C125 1.052 . S
C839 C274 1.096 . S
C848 C139 1.056 . S
C850 C304 1.102 . S
C859 C175 1.059 . S
C861 C326 1.098 1_554 S
C870 C109 1.049 . S
C872 C348 1.097 . S
