# Generated by pormake.
# Topology wnd, (6)-cn, num edge types: 1
# Building blocks:
#     Node 0, Type 0, BuildingBlock: MIDCAF_clean_sbu_0, # of connection points: 6
#     Node 1, Type 0, BuildingBlock: MIDCAF_clean_sbu_0, # of connection points: 6
#     Node 2, Type 0, BuildingBlock: MIDCAF_clean_sbu_0, # of connection points: 6
#     Node 3, Type 0, BuildingBlock: MIDCAF_clean_sbu_0, # of connection points: 6
#     Node 4, Type 0, BuildingBlock: MIDCAF_clean_sbu_0, # of connection points: 6
#     Node 5, Type 0, BuildingBlock: MIDCAF_clean_sbu_0, # of connection points: 6
#     Node 6, Type 0, BuildingBlock: MIDCAF_clean_sbu_0, # of connection points: 6
#     Node 7, Type 0, BuildingBlock: MIDCAF_clean_sbu_0, # of connection points: 6
#     Node 8, Type 0, BuildingBlock: MIDCAF_clean_sbu_0, # of connection points: 6
#     Node 9, Type 0, BuildingBlock: MIDCAF_clean_sbu_0, # of connection points: 6
#     Node 10, Type 0, BuildingBlock: MIDCAF_clean_sbu_0, # of connection points: 6
#     Node 11, Type 0, BuildingBlock: MIDCAF_clean_sbu_0, # of connection points: 6
#     Node 12, Type 0, BuildingBlock: MIDCAF_clean_sbu_0, # of connection points: 6
#     Node 13, Type 0, BuildingBlock: MIDCAF_clean_sbu_0, # of connection points: 6
#     Node 14, Type 0, BuildingBlock: MIDCAF_clean_sbu_0, # of connection points: 6
#     Node 15, Type 0, BuildingBlock: MIDCAF_clean_sbu_0, # of connection points: 6
#     Node 16, Type 0, BuildingBlock: MIDCAF_clean_sbu_0, # of connection points: 6
#     Node 17, Type 0, BuildingBlock: MIDCAF_clean_sbu_0, # of connection points: 6
#     Node 18, Type 0, BuildingBlock: MIDCAF_clean_sbu_0, # of connection points: 6
#     Node 19, Type 0, BuildingBlock: MIDCAF_clean_sbu_0, # of connection points: 6
#     Node 20, Type 0, BuildingBlock: MIDCAF_clean_sbu_0, # of connection points: 6
#     Node 21, Type 0, BuildingBlock: MIDCAF_clean_sbu_0, # of connection points: 6
#     Node 22, Type 0, BuildingBlock: MIDCAF_clean_sbu_0, # of connection points: 6
#     Node 23, Type 0, BuildingBlock: MIDCAF_clean_sbu_0, # of connection points: 6
#     Node 24, Type 0, BuildingBlock: MIDCAF_clean_sbu_0, # of connection points: 6
#     Node 25, Type 0, BuildingBlock: MIDCAF_clean_sbu_0, # of connection points: 6
#     Node 26, Type 0, BuildingBlock: MIDCAF_clean_sbu_0, # of connection points: 6
#     Node 27, Type 0, BuildingBlock: MIDCAF_clean_sbu_0, # of connection points: 6
#     Node 28, Type 0, BuildingBlock: MIDCAF_clean_sbu_0, # of connection points: 6
#     Node 29, Type 0, BuildingBlock: MIDCAF_clean_sbu_0, # of connection points: 6
#     Node 30, Type 0, BuildingBlock: MIDCAF_clean_sbu_0, # of connection points: 6
#     Node 31, Type 0, BuildingBlock: MIDCAF_clean_sbu_0, # of connection points: 6
#     Node 32, Type 0, BuildingBlock: MIDCAF_clean_sbu_0, # of connection points: 6
#     Node 33, Type 0, BuildingBlock: MIDCAF_clean_sbu_0, # of connection points: 6
#     Node 34, Type 0, BuildingBlock: MIDCAF_clean_sbu_0, # of connection points: 6
#     Node 35, Type 0, BuildingBlock: MIDCAF_clean_sbu_0, # of connection points: 6
#     Edge 36, Type (0, 0), None
#     Edge 37, Type (0, 0), None
#     Edge 38, Type (0, 0), None
#     Edge 39, Type (0, 0), None
#     Edge 40, Type (0, 0), None
#     Edge 41, Type (0, 0), None
#     Edge 42, Type (0, 0), None
#     Edge 43, Type (0, 0), None
#     Edge 44, Type (0, 0), None
#     Edge 45, Type (0, 0), None
#     Edge 46, Type (0, 0), None
#     Edge 47, Type (0, 0), None
#     Edge 48, Type (0, 0), None
#     Edge 49, Type (0, 0), None
#     Edge 50, Type (0, 0), None
#     Edge 51, Type (0, 0), None
#     Edge 52, Type (0, 0), None
#     Edge 53, Type (0, 0), None
#     Edge 54, Type (0, 0), None
#     Edge 55, Type (0, 0), None
#     Edge 56, Type (0, 0), None
#     Edge 57, Type (0, 0), None
#     Edge 58, Type (0, 0), None
#     Edge 59, Type (0, 0), None
#     Edge 60, Type (0, 0), None
#     Edge 61, Type (0, 0), None
#     Edge 62, Type (0, 0), None
#     Edge 63, Type (0, 0), None
#     Edge 64, Type (0, 0), None
#     Edge 65, Type (0, 0), None
#     Edge 66, Type (0, 0), None
#     Edge 67, Type (0, 0), None
#     Edge 68, Type (0, 0), None
#     Edge 69, Type (0, 0), None
#     Edge 70, Type (0, 0), None
#     Edge 71, Type (0, 0), None
#     Edge 72, Type (0, 0), None
#     Edge 73, Type (0, 0), None
#     Edge 74, Type (0, 0), None
#     Edge 75, Type (0, 0), None
#     Edge 76, Type (0, 0), None
#     Edge 77, Type (0, 0), None
#     Edge 78, Type (0, 0), None
#     Edge 79, Type (0, 0), None
#     Edge 80, Type (0, 0), None
#     Edge 81, Type (0, 0), None
#     Edge 82, Type (0, 0), None
#     Edge 83, Type (0, 0), None
#     Edge 84, Type (0, 0), None
#     Edge 85, Type (0, 0), None
#     Edge 86, Type (0, 0), None
#     Edge 87, Type (0, 0), None
#     Edge 88, Type (0, 0), None
#     Edge 89, Type (0, 0), None
#     Edge 90, Type (0, 0), None
#     Edge 91, Type (0, 0), None
#     Edge 92, Type (0, 0), None
#     Edge 93, Type (0, 0), None
#     Edge 94, Type (0, 0), None
#     Edge 95, Type (0, 0), None
#     Edge 96, Type (0, 0), None
#     Edge 97, Type (0, 0), None
#     Edge 98, Type (0, 0), None
#     Edge 99, Type (0, 0), None
#     Edge 100, Type (0, 0), None
#     Edge 101, Type (0, 0), None
#     Edge 102, Type (0, 0), None
#     Edge 103, Type (0, 0), None
#     Edge 104, Type (0, 0), None
#     Edge 105, Type (0, 0), None
#     Edge 106, Type (0, 0), None
#     Edge 107, Type (0, 0), None
#     Edge 108, Type (0, 0), None
#     Edge 109, Type (0, 0), None
#     Edge 110, Type (0, 0), None
#     Edge 111, Type (0, 0), None
#     Edge 112, Type (0, 0), None
#     Edge 113, Type (0, 0), None
#     Edge 114, Type (0, 0), None
#     Edge 115, Type (0, 0), None
#     Edge 116, Type (0, 0), None
#     Edge 117, Type (0, 0), None
#     Edge 118, Type (0, 0), None
#     Edge 119, Type (0, 0), None
#     Edge 120, Type (0, 0), None
#     Edge 121, Type (0, 0), None
#     Edge 122, Type (0, 0), None
#     Edge 123, Type (0, 0), None
#     Edge 124, Type (0, 0), None
#     Edge 125, Type (0, 0), None
#     Edge 126, Type (0, 0), None
#     Edge 127, Type (0, 0), None
#     Edge 128, Type (0, 0), None
#     Edge 129, Type (0, 0), None
#     Edge 130, Type (0, 0), None
#     Edge 131, Type (0, 0), None
#     Edge 132, Type (0, 0), None
#     Edge 133, Type (0, 0), None
#     Edge 134, Type (0, 0), None
#     Edge 135, Type (0, 0), None
#     Edge 136, Type (0, 0), None
#     Edge 137, Type (0, 0), None
#     Edge 138, Type (0, 0), None
#     Edge 139, Type (0, 0), None
#     Edge 140, Type (0, 0), None
#     Edge 141, Type (0, 0), None
#     Edge 142, Type (0, 0), None
#     Edge 143, Type (0, 0), None
# Relax obj value: 0.386
# Max RMSD: 0.269
# Mean RMSD: 0.269
data_MOF--net-wnd--node1-MIDCAF_clean_sbu_0--edge1-none
_symmetry_space_group_name_H-M    P1
_symmetry_Int_Tables_number       1
_symmetry_cell_setting            triclinic
loop_
_symmetry_equiv_pos_as_xyz
'x, y, z'
_cell_length_a     13.229953
_cell_length_b     13.229865
_cell_length_c     83.634952
_cell_angle_alpha  89.997044
_cell_angle_beta   90.006822
_cell_angle_gamma 119.99907
loop_
_atom_site_label
_atom_site_type_symbol
_atom_site_fract_x
_atom_site_fract_y
_atom_site_fract_z
_atom_type_partial_charge
Zn0 Zn 0.53329 0.95704 0.06033 0.0
Zn1 Zn 0.62499 0.2221 0.00783 0.0
Zn2 Zn 0.51911 0.05207 0.03882 0.0
C3 C 0.5096 0.01416 0.00126 0.0
C4 C 0.75951 0.17238 0.0202 0.0
O5 O 0.58514 0.17926 0.05682 0.0
O6 O 0.54062 0.06111 0.07727 0.0
C7 C 0.30227 0.85346 0.0448 0.0
O8 O 0.54873 0.00308 0.01498 0.0
O9 O 0.48605 0.09328 -0.00148 0.0
O10 O 0.7677 0.18884 0.00543 0.0
O11 O 0.66336 0.08101 0.02421 0.0
O12 O 0.36967 0.83345 0.05333 0.0
O13 O 0.33867 0.95271 0.03829 0.0
O14 O 0.56728 0.91644 0.03266 0.0
O15 O 0.66875 0.93966 0.05434 0.0
C16 C 0.62715 0.8853 0.04142 0.0
O17 O 0.39379 0.09777 0.03094 0.0
O18 O 0.56228 0.25219 0.02926 0.0
C19 C 0.56153 0.15788 0.07159 0.0
C20 C 0.45262 0.20814 0.02873 0.0
Zn21 Zn 0.76319 0.41058 0.00138 0.0
Zn22 Zn 0.05271 0.58402 0.06035 0.0
Zn23 Zn -0.00138 0.51128 0.03207 0.0
C24 C 0.18331 0.75992 0.04307 0.0
C25 C 0.19651 0.50431 0.04553 0.0
O26 O 0.89304 0.32001 0.03791 0.0
O27 O 0.78759 0.36278 0.02372 0.0
C28 C 0.84954 0.60789 0.01328 0.0
O29 O 0.16598 0.66805 0.03571 0.0
O30 O 0.11208 0.75081 0.05375 0.0
O31 O 0.14766 0.49896 0.05872 0.0
O32 O 0.17354 0.54882 0.03348 0.0
O33 O 0.8242 0.5944 -0.00131 0.0
O34 O 0.92857 0.58318 0.01665 0.0
O35 O 0.97051 0.47748 0.0057 0.0
O36 O 0.84324 0.3595 0.98727 0.0
C37 C 0.94103 0.44469 -0.00898 0.0
O38 O 0.90055 0.40424 0.05241 0.0
O39 O 0.92769 0.49871 0.07512 0.0
C40 C 0.80257 0.28189 0.02902 0.0
C41 C 0.87568 0.40564 0.06709 0.0
Zn42 Zn 0.4739 0.52837 0.05971 0.0
Zn43 Zn 0.58949 0.36032 0.00257 0.0
Zn44 Zn 0.52746 0.52337 0.03235 0.0
C45 C 0.53811 0.51174 -0.00649 0.0
C46 C 0.40869 0.26088 0.01712 0.0
O47 O 0.62768 0.49799 0.05105 0.0
O48 O 0.5487 0.47628 0.07476 0.0
C49 C 0.59372 0.76132 0.04187 0.0
O50 O 0.48265 0.47439 0.00691 0.0
O51 O 0.62118 0.49573 -0.00989 0.0
O52 O 0.40909 0.22965 0.00294 0.0
O53 O 0.43733 0.36892 0.01827 0.0
O54 O 0.55616 0.70808 0.05516 0.0
O55 O 0.58727 0.70365 0.02935 0.0
O56 O 0.38382 0.55158 0.0367 0.0
O57 O 0.30445 0.42662 0.05637 0.0
C58 C 0.29619 0.48798 0.0455 0.0
O59 O 0.71836 0.63623 0.03017 0.0
O60 O 0.6645 0.46274 0.02263 0.0
C61 C 0.62946 0.48272 0.06606 0.0
C62 C 0.74742 0.56668 0.02388 0.0
Zn63 Zn 0.95183 0.53677 0.41721 0.0
Zn64 Zn 0.21839 0.632 0.46971 0.0
Zn65 Zn 0.04883 0.52401 0.43875 0.0
C66 C 0.01028 0.51619 0.4764 0.0
C67 C 0.16735 0.7644 0.45728 0.0
O68 O 0.1767 0.59132 0.42087 0.0
O69 O 0.05721 0.54316 0.40051 0.0
C70 C 0.84776 0.30685 0.43277 0.0
O71 O -0.00131 0.55344 0.46255 0.0
O72 O 0.09125 0.49581 0.47948 0.0
O73 O 0.18449 0.77436 0.47204 0.0
O74 O 0.07622 0.66771 0.45338 0.0
O75 O 0.82722 0.37426 0.42433 0.0
O76 O 0.94768 0.34312 0.43908 0.0
O77 O 0.91457 0.57313 0.44505 0.0
O78 O 0.93769 0.67384 0.42329 0.0
C79 C 0.88309 0.6322 0.43619 0.0
O80 O 0.09355 0.3987 0.44671 0.0
O81 O 0.24815 0.56725 0.44842 0.0
C82 C 0.15496 0.56667 0.40613 0.0
C83 C 0.20381 0.45753 0.44896 0.0
Zn84 Zn 0.52793 0.48459 0.41796 0.0
Zn85 Zn 0.35254 0.59287 0.47568 0.0
Zn86 Zn 0.52142 0.53512 0.44541 0.0
C87 C 0.50935 0.54458 0.48384 0.0
C88 C 0.25633 0.41322 0.46052 0.0
O89 O 0.49972 0.63889 0.42685 0.0
O90 O 0.4749 0.55917 0.40312 0.0
C91 C 0.7592 0.59897 0.43576 0.0
O92 O 0.4701 0.48879 0.47055 0.0
O93 O 0.49306 0.62735 0.48733 0.0
O94 O 0.22427 0.41247 0.47472 0.0
O95 O 0.36461 0.44237 0.45938 0.0
O96 O 0.70786 0.56936 0.42224 0.0
O97 O 0.69893 0.58188 0.44837 0.0
O98 O 0.55334 0.3939 0.44086 0.0
O99 O 0.42665 0.31512 0.42137 0.0
C100 C 0.48816 0.30617 0.43215 0.0
O101 O 0.62732 0.72868 0.44638 0.0
O102 O 0.45777 0.66679 0.4559 0.0
C103 C 0.48268 0.64026 0.41188 0.0
C104 C 0.55865 0.75332 0.45388 0.0
Zn105 Zn 0.57732 0.05792 0.4174 0.0
Zn106 Zn 0.40509 0.76733 0.47612 0.0
Zn107 Zn 0.50417 0.00422 0.44569 0.0
C108 C 0.43438 0.94308 0.48681 0.0
C109 C 0.60097 0.85577 0.46444 0.0
O110 O 0.39743 0.90688 0.42508 0.0
O111 O 0.49152 0.9352 0.4023 0.0
C112 C 0.50175 0.20485 0.43216 0.0
O113 O 0.46538 0.97142 0.47203 0.0
O114 O 0.35316 0.84338 0.4908 0.0
O115 O 0.58902 0.83095 0.47904 0.0
O116 O 0.57638 0.93487 0.46111 0.0
O117 O 0.49504 0.15527 0.41898 0.0
O118 O 0.54444 0.18017 0.44426 0.0
O119 O 0.66286 0.17054 0.44208 0.0
O120 O 0.74423 0.11675 0.42379 0.0
C121 C 0.7542 0.18782 0.43456 0.0
O122 O 0.31413 0.89792 0.4396 0.0
O123 O 0.35732 0.79195 0.45367 0.0
C124 C 0.39863 0.88264 0.41036 0.0
C125 C 0.27633 0.80706 0.44841 0.0
Zn126 Zn 0.50626 0.06603 0.91928 0.0
Zn127 Zn 0.35859 0.76448 0.97675 0.0
Zn128 Zn 0.51822 0.01124 0.94687 0.0
C129 C 0.51 0.94815 0.98794 0.0
C130 C 0.26266 0.86687 0.96403 0.0
O131 O 0.5239 0.90777 0.92631 0.0
O132 O 0.45966 0.94393 0.90391 0.0
C133 C 0.73728 0.20076 0.93535 0.0
O134 O 0.51329 0.98508 0.97348 0.0
O135 O 0.48727 0.84604 -0.0089 0.0
O136 O 0.23962 0.829 0.97815 0.0
O137 O 0.37022 0.94356 0.96207 0.0
O138 O 0.68858 0.15669 0.92208 0.0
O139 O 0.67182 0.1799 0.94756 0.0
O140 O 0.539 0.1834 0.94254 0.0
O141 O 0.39778 0.12451 0.92514 0.0
C142 C 0.46335 0.19922 0.9352 0.0
O143 O 0.59683 0.89809 0.94093 0.0
O144 O 0.45069 0.80514 0.95586 0.0
C145 C 0.49709 0.88696 0.91151 0.0
C146 C 0.54281 0.81212 0.95052 0.0
Zn147 Zn 0.95595 0.472 0.91733 0.0
Zn148 Zn 0.21301 0.60192 0.97095 0.0
Zn149 Zn 0.04455 0.55936 0.94062 0.0
C150 C 0.00853 0.51652 0.97811 0.0
C151 C 0.15298 0.41446 0.95699 0.0
O152 O 0.17882 0.61028 0.92366 0.0
O153 O 0.0763 0.56851 0.90174 0.0
C154 C 0.85793 0.60287 0.93398 0.0
O155 O -0.00417 0.47244 0.9639 0.0
O156 O 0.08999 0.6167 0.98153 0.0
O157 O 0.17516 0.42366 0.97164 0.0
O158 O 0.06933 0.43471 0.95385 0.0
O159 O 0.84018 0.52429 0.92383 0.0
O160 O 0.95236 0.65165 0.94209 0.0
O161 O 0.89425 0.3832 0.94448 0.0
O162 O 0.91294 0.30919 0.92195 0.0
C163 C 0.8588 0.29618 0.93491 0.0
O164 O 0.09323 0.73046 0.94957 0.0
O165 O 0.24027 0.70437 0.95056 0.0
C166 C 0.17183 0.62863 0.90894 0.0
C167 C 0.20289 0.77483 0.95191 0.0
Zn168 Zn 0.40345 0.63231 0.97064 0.0
Zn169 Zn 0.59983 0.54747 0.91674 0.0
Zn170 Zn 0.49494 0.53201 0.94021 0.0
C171 C 0.7673 0.63484 0.93528 0.0
C172 C 0.48438 0.31648 0.93316 0.0
O173 O 0.31514 0.40933 0.94575 0.0
O174 O 0.32567 0.57609 0.94827 0.0
C175 C 0.60384 0.7649 0.95981 0.0
O176 O 0.67475 0.56419 0.94293 0.0
O177 O 0.75531 0.68429 0.92312 0.0
O178 O 0.56015 0.38098 0.92292 0.0
O179 O 0.42891 0.35408 0.9413 0.0
O180 O 0.58421 0.76524 0.97442 0.0
O181 O 0.60094 0.67062 0.95552 0.0
O182 O 0.52755 0.54316 0.96606 0.0
O183 O 0.37265 0.49135 0.98177 0.0
C184 C 0.47504 0.51197 0.97971 0.0
O185 O 0.41775 0.57878 0.92135 0.0
O186 O 0.50201 0.55633 0.9001 0.0
C187 C 0.26106 0.46642 0.94739 0.0
C188 C 0.42003 0.56527 0.90629 0.0
Zn189 Zn 0.05786 0.51008 0.55817 0.0
Zn190 Zn 0.75665 0.3575 0.50106 0.0
Zn191 Zn 0.00494 0.5218 0.53053 0.0
C192 C 0.93789 0.50915 0.4893 0.0
C193 C 0.85944 0.26443 0.51387 0.0
O194 O 0.90146 0.52845 0.55107 0.0
O195 O 0.93505 0.46209 0.57345 0.0
C196 C 0.19376 0.74035 0.54228 0.0
O197 O 0.97272 0.51535 0.50394 0.0
O198 O 0.83404 0.47816 0.48564 0.0
O199 O 0.82114 0.23866 0.49981 0.0
O200 O 0.93648 0.37227 0.51555 0.0
O201 O 0.14736 0.69211 0.55547 0.0
O202 O 0.17498 0.67443 0.53016 0.0
O203 O 0.17731 0.54229 0.53498 0.0
O204 O 0.12131 0.40559 0.55311 0.0
C205 C 0.19478 0.46935 0.5428 0.0
O206 O 0.89366 0.60205 0.53625 0.0
O207 O 0.79904 0.45332 0.52176 0.0
C208 C 0.87947 0.50099 0.56582 0.0
C209 C 0.80771 0.54704 0.52669 0.0
Zn210 Zn 0.54383 0.60613 0.56136 0.0
Zn211 Zn 0.62809 0.40836 0.50648 0.0
Zn212 Zn 0.5302 0.50668 0.53703 0.0
C213 C 0.50822 0.48077 0.4976 0.0
C214 C 0.76152 0.60687 0.51707 0.0
O215 O 0.57105 0.42423 0.5559 0.0
O216 O 0.55649 0.50915 0.57765 0.0
C217 C 0.31234 0.49118 0.54477 0.0
O218 O 0.54036 0.5336 0.5112 0.0
O219 O 0.48606 0.37786 0.49558 0.0
O220 O 0.7647 0.58788 0.50248 0.0
O221 O 0.66599 0.60216 0.52102 0.0
O222 O 0.3748 0.56216 0.55563 0.0
O223 O 0.35269 0.44235 0.53577 0.0
O224 O 0.55183 0.68133 0.53574 0.0
O225 O 0.67925 0.76253 0.5547 0.0
C226 C 0.62585 0.77403 0.54299 0.0
O227 O 0.40693 0.32332 0.53298 0.0
O228 O 0.57289 0.33458 0.5291 0.0
C229 C 0.56068 0.42581 0.57103 0.0
C230 C 0.46364 0.2695 0.53062 0.0
Zn231 Zn 0.5933 0.21726 0.50721 0.0
Zn232 Zn 0.4638 0.96376 0.56056 0.0
Zn233 Zn 0.5515 0.05009 0.53722 0.0
C234 C 0.28892 0.86198 0.54283 0.0
C235 C 0.5965 0.86601 0.54445 0.0
O236 O 0.72211 0.0964 0.52837 0.0
O237 O 0.6981 0.24462 0.52743 0.0
C238 C 0.40871 0.16076 0.52115 0.0
O239 O 0.37671 0.898 0.53342 0.0
O240 O 0.30019 0.91639 0.55574 0.0
O241 O 0.51811 0.84907 0.55457 0.0
O242 O 0.64392 0.95865 0.53597 0.0
O243 O 0.41563 0.18211 0.5065 0.0
O244 O 0.42791 0.07632 0.52417 0.0
O245 O 0.46329 0.00103 0.51387 0.0
O246 O 0.60559 0.0959 0.49594 0.0
C247 C 0.50565 0.01447 0.49952 0.0
O248 O 0.60249 0.18464 0.55418 0.0
O249 O 0.55787 0.08402 0.57627 0.0
C250 C 0.76771 0.20617 0.52606 0.0
C251 C 0.6203 0.17842 0.56893 0.0
Zn252 Zn 0.3617 0.60708 0.33425 0.0
Zn253 Zn 0.18728 0.32524 0.39279 0.0
Zn254 Zn 0.18515 0.36859 0.36439 0.0
C255 C 0.20857 0.16576 0.37974 0.0
C256 C 0.96306 0.18622 0.3774 0.0
O257 O 0.09772 0.47467 0.36792 0.0
O258 O 0.24638 0.55986 0.35301 0.0
C259 C 0.44513 0.51004 0.34873 0.0
O260 O 0.15429 0.19469 0.36977 0.0
O261 O 0.26693 0.23406 0.39091 0.0
O262 O 0.00649 0.24355 0.39015 0.0
O263 O 0.03294 0.19768 0.36602 0.0
O264 O 0.4791 0.54159 0.3346 0.0
O265 O 0.33748 0.43079 0.34989 0.0
O266 O 0.19132 0.38432 0.33743 0.0
O267 O 0.23905 0.5274 0.31933 0.0
C268 C 0.19985 0.42179 0.3229 0.0
O269 O 0.18317 0.48517 0.38335 0.0
O270 O 0.25156 0.4632 0.40616 0.0
C271 C 0.15178 0.5524 0.3573 0.0
C272 C 0.21476 0.51709 0.39776 0.0
Zn273 Zn 0.47409 0.77868 0.34138 0.0
Zn274 Zn 0.72551 0.91423 0.39446 0.0
Zn275 Zn 0.65222 0.82701 0.37093 0.0
C276 C 0.84395 0.08761 0.3781 0.0
C277 C 0.83261 0.78495 0.37934 0.0
O278 O 0.60827 0.65723 0.36278 0.0
O279 O 0.45322 0.67148 0.36145 0.0
C280 C 0.52388 0.94695 0.3554 0.0
O281 O 0.81355 -0.00303 0.36951 0.0
O282 O 0.78282 0.08068 0.39009 0.0
O283 O 0.8402 0.85605 0.39009 0.0
O284 O 0.74891 0.74369 0.36931 0.0
O285 O 0.5077 0.9582 0.34101 0.0
O286 O 0.61225 0.93353 0.3576 0.0
O287 O 0.68634 0.89923 0.34613 0.0
O288 O 0.58183 0.76418 0.32758 0.0
C289 C 0.66857 0.86015 0.33154 0.0
O290 O 0.52111 0.75473 0.38922 0.0
O291 O 0.61631 0.83326 0.41141 0.0
C292 C 0.49812 0.60658 0.36038 0.0
C293 C 0.52924 0.75233 0.40438 0.0
Zn294 Zn 0.28971 0.71993 0.33613 0.0
Zn295 Zn 0.10641 0.82367 0.39567 0.0
Zn296 Zn 0.17896 0.84054 0.36769 0.0
C297 C 0.93107 0.76735 0.3776 0.0
C298 C 0.1857 0.04718 0.38028 0.0
O299 O 0.37223 0.92991 0.37258 0.0
O300 O 0.33667 0.78005 0.3592 0.0
C301 C 0.09711 0.60381 0.3476 0.0
O302 O 0.02222 0.84878 0.37097 0.0
O303 O 0.94376 0.70638 0.3881 0.0
O304 O 0.18633 0.00345 0.39368 0.0
O305 O 0.14463 0.97994 0.36818 0.0
O306 O 0.10803 0.59401 0.33285 0.0
O307 O 0.11011 0.7026 0.35151 0.0
O308 O 0.20279 0.84939 0.34195 0.0
O309 O 0.33442 0.86062 0.32431 0.0
C310 C 0.24114 0.85909 0.32757 0.0
O311 O 0.28996 0.85358 0.38743 0.0
O312 O 0.19622 0.78849 0.41017 0.0
C313 C 0.4145 0.87823 0.3643 0.0
C314 C 0.28893 0.82825 0.40211 0.0
Zn315 Zn 0.62346 0.8417 0.75115 0.0
Zn316 Zn 0.8891 0.9829 0.80541 0.0
Zn317 Zn 0.70432 0.84444 0.77522 0.0
C318 C 0.68863 0.86449 0.81406 0.0
C319 C 0.82451 0.10153 0.79111 0.0
O320 O 0.83733 0.90969 0.75723 0.0
O321 O 0.73823 0.86973 0.73493 0.0
C322 C 0.52374 0.61112 0.76842 0.0
O323 O 0.67311 0.8874 0.79949 0.0
O324 O 0.77481 0.85522 0.81827 0.0
O325 O 0.8487 0.12194 0.80566 0.0
O326 O 0.74435 -0.00478 0.78876 0.0
O327 O 0.51107 0.66966 0.75733 0.0
O328 O 0.61192 0.6602 0.77774 0.0
O329 O 0.54311 0.85197 0.77614 0.0
O330 O 0.57488 0.95893 0.75475 0.0
C331 C 0.51389 0.91017 0.76696 0.0
O332 O 0.75608 0.72229 0.78335 0.0
O333 O 0.8999 0.89762 0.78487 0.0
C334 C 0.83089 0.89358 0.74221 0.0
C335 C 0.86514 0.78997 0.78597 0.0
Zn336 Zn 0.16995 0.80359 0.75055 0.0
Zn337 Zn 0.02889 0.95761 0.81032 0.0
Zn338 Zn 0.1789 0.86615 0.77957 0.0
C339 C 0.17882 0.9213 0.82085 0.0
C340 C 0.92701 0.75794 0.79772 0.0
O341 O 0.18204 0.97576 0.75944 0.0
O342 O 0.12192 0.8878 0.73623 0.0
C343 C 0.39497 0.88985 0.76712 0.0
O344 O 0.18007 0.89362 0.80604 0.0
O345 O 0.15372 -0.00238 0.82505 0.0
O346 O 0.90721 0.77437 0.81192 0.0
O347 O 0.03392 0.78816 0.79527 0.0
O348 O 0.35073 0.89386 0.75385 0.0
O349 O 0.32648 0.8413 0.77897 0.0
O350 O 0.19793 0.71464 0.77511 0.0
O351 O 0.06439 0.63494 0.75663 0.0
C352 C 0.12495 0.62403 0.76738 0.0
O353 O 0.26204 0.05881 0.77426 0.0
O354 O 0.11444 0.00791 0.78887 0.0
C355 C 0.1557 0.97759 0.74479 0.0
C356 C 0.2084 0.09197 0.78373 0.0
Zn357 Zn 0.26744 0.41586 0.75049 0.0
Zn358 Zn 0.07474 0.13919 0.80412 0.0
Zn359 Zn 0.1598 0.32429 0.77332 0.0
C360 C 0.15562 0.34391 0.81141 0.0
C361 C 0.27043 0.19961 0.7931 0.0
O362 O 0.09148 0.19471 0.75551 0.0
O363 O 0.16201 0.30703 0.73447 0.0
C364 C 0.14786 0.52842 0.76576 0.0
O365 O 0.21523 0.3594 0.79847 0.0
O366 O 0.05183 0.2639 0.81254 0.0
O367 O 0.25249 0.17888 0.80776 0.0
O368 O 0.26754 0.29174 0.78894 0.0
O369 O 0.23119 0.54381 0.75668 0.0
O370 O 0.08752 0.43238 0.77316 0.0
O371 O 0.34203 0.46394 0.77779 0.0
O372 O 0.41946 0.42909 0.7571 0.0
C373 C 0.43352 0.48775 0.76965 0.0
O374 O 0.98204 0.26785 0.77924 0.0
O375 O -0.00537 0.11255 0.78185 0.0
C376 C 0.08433 0.21402 0.74081 0.0
C377 C 0.92939 0.15689 0.78104 0.0
Zn378 Zn 0.0645 0.13565 0.30319 0.0
Zn379 Zn 0.16448 0.41009 0.24884 0.0
Zn380 Zn 0.17133 0.31302 0.27221 0.0
C381 C 0.06528 0.47869 0.26928 0.0
C382 C 0.39192 0.51638 0.2652 0.0
O383 O 0.29804 0.26794 0.27968 0.0
O384 O 0.12978 0.11293 0.28167 0.0
C385 C 0.93354 0.19367 0.29078 0.0
O386 O 0.12444 0.44797 0.27822 0.0
O387 O 0.0285 0.42595 0.2561 0.0
O388 O 0.32623 0.53523 0.25615 0.0
O389 O 0.35432 0.41712 0.27184 0.0
O390 O 0.92375 0.17197 0.30545 0.0
O391 O 0.02995 0.2865 0.28721 0.0
O392 O 0.14614 0.36101 0.29634 0.0
O393 O 0.19955 0.26251 0.31287 0.0
C394 C 0.18467 0.34722 0.30995 0.0
O395 O 0.08849 0.17738 0.25576 0.0
O396 O 0.15692 0.28561 0.23454 0.0
C397 C 0.23932 0.15749 0.28182 0.0
C398 C 0.12276 0.18895 0.24141 0.0
Zn399 Zn 0.93294 0.95483 0.3089 0.0
Zn400 Zn 0.63983 0.78988 0.25023 0.0
Zn401 Zn 0.69795 0.85989 0.27823 0.0
C402 C 0.51095 0.6111 0.2672 0.0
C403 C 0.50385 0.87561 0.26706 0.0
O404 O 0.80424 0.05079 0.27205 0.0
O405 O 0.90554 0.00468 0.28656 0.0
C406 C 0.8421 0.75646 0.29688 0.0
O407 O 0.52792 0.7023 0.27474 0.0
O408 O 0.58274 0.62239 0.25649 0.0
O409 O 0.54879 0.87923 0.25356 0.0
O410 O 0.5259 0.82718 0.27865 0.0
O411 O 0.87031 0.7714 0.31138 0.0
O412 O 0.76717 0.78698 0.29361 0.0
O413 O 0.72971 0.89919 0.30452 0.0
O414 O 0.8539 -0.00279 0.32435 0.0
C415 C 0.75243 0.92515 0.3195 0.0
O416 O 0.79792 0.9675 0.25719 0.0
O417 O 0.75932 0.87086 0.23439 0.0
C418 C 0.89249 0.08683 0.28133 0.0
C419 C 0.81791 0.96382 0.24225 0.0
Zn420 Zn 0.23341 0.83899 0.25188 0.0
Zn421 Zn 0.09978 0.98414 0.30674 0.0
Zn422 Zn 0.16075 0.83904 0.27679 0.0
C423 C 0.16958 0.84856 0.3144 0.0
C424 C 0.28363 0.10256 0.29282 0.0
O425 O 0.07815 0.88123 0.25788 0.0
O426 O 0.15807 0.87504 0.23521 0.0
C427 C 0.10063 0.60337 0.26881 0.0
O428 O 0.22025 0.88998 0.30089 0.0
O429 O 0.07495 0.84296 0.31782 0.0
O430 O 0.27739 0.12589 0.30723 0.0
O431 O 0.2551 -0.00485 0.2908 0.0
O432 O 0.16343 0.66188 0.25699 0.0
O433 O 0.07501 0.65448 0.27972 0.0
O434 O 0.31605 0.82631 0.27572 0.0
O435 O 0.39773 0.9566 0.25682 0.0
C436 C 0.40596 0.89491 0.26763 0.0
O437 O 0.97939 0.72075 0.28283 0.0
O438 O 0.01723 0.89793 0.28559 0.0
C439 C 0.07806 0.87973 0.2427 0.0
C440 C 0.9414 0.79061 0.28597 0.0
Zn441 Zn 0.71784 0.82012 0.89453 0.0
Zn442 Zn 0.43015 0.70812 0.83568 0.0
Zn443 Zn 0.66669 0.84318 0.86706 0.0
C444 C 0.60941 0.85696 0.82608 0.0
C445 C 0.5176 0.60341 0.84739 0.0
O446 O 0.57077 0.85781 0.88781 0.0
O447 O 0.59921 0.78684 0.91015 0.0
C448 C 0.86996 0.04236 0.88009 0.0
O449 O 0.63093 0.85201 0.84106 0.0
O450 O 0.51017 0.83529 0.82119 0.0
O451 O 0.50543 0.59643 0.83248 0.0
O452 O 0.59708 0.70354 0.85184 0.0
O453 O 0.82016 -0.00031 0.89325 0.0
O454 O 0.8436 0.97543 0.86795 0.0
O455 O 0.83155 0.84415 0.87027 0.0
O456 O 0.7735 0.70892 0.88855 0.0
C457 C 0.84545 0.76761 0.87775 0.0
O458 O 0.55888 0.92482 0.87289 0.0
O459 O 0.44946 0.77527 0.85889 0.0
C460 C 0.5481 0.83087 0.90258 0.0
C461 C 0.4673 0.8726 0.86414 0.0
Zn462 Zn 0.19578 0.91235 0.89518 0.0
Zn463 Zn 0.3013 0.76531 0.8417 0.0
Zn464 Zn 0.18655 0.82177 0.87154 0.0
C465 C 0.18824 0.85409 0.83337 0.0
C466 C 0.42968 0.94176 0.85485 0.0
O467 O 0.26176 0.76068 0.88844 0.0
O468 O 0.22007 0.81703 0.91077 0.0
C469 C 0.96316 0.78839 0.87962 0.0
O470 O 0.22014 0.89927 0.8475 0.0
O471 O 0.17085 0.75414 0.82995 0.0
O472 O 0.44949 0.94085 0.84028 0.0
O473 O 0.33124 0.93539 0.85764 0.0
O474 O 0.02675 0.86363 0.88995 0.0
O475 O 0.00445 0.73926 0.87075 0.0
O476 O 0.20796 -0.00319 0.86887 0.0
O477 O 0.31315 0.07611 0.89037 0.0
C478 C 0.2654 0.08615 0.87785 0.0
O479 O 0.0608 0.65302 0.86335 0.0
O480 O 0.22563 0.65648 0.86175 0.0
C481 C 0.24009 0.74614 0.90331 0.0
C482 C 0.11525 0.59698 0.86104 0.0
Zn483 Zn 0.24041 0.59646 0.83242 0.0
Zn484 Zn 0.15053 0.31816 0.89251 0.0
Zn485 Zn 0.18969 0.36037 0.86516 0.0
C486 C 0.96961 0.15835 0.87991 0.0
C487 C 0.24251 0.18364 0.87726 0.0
O488 O 0.3832 0.47192 0.86738 0.0
O489 O 0.31807 0.54506 0.85035 0.0
C490 C 0.06583 0.49842 0.84971 0.0
O491 O 0.05456 0.18427 0.87044 0.0
O492 O 0.97904 0.22872 0.89072 0.0
O493 O 0.25203 0.23812 0.89017 0.0
O494 O 0.18421 0.19478 0.86585 0.0
O495 O 0.05899 0.52726 0.83552 0.0
O496 O 0.0935 0.41846 0.85082 0.0
O497 O 0.15415 0.3576 0.83926 0.0
O498 O 0.29942 0.49222 0.82509 0.0
C499 C 0.21386 0.3915 0.8262 0.0
O500 O 0.31385 0.48454 0.88301 0.0
O501 O 0.22035 0.45444 0.90576 0.0
C502 C 0.40596 0.54423 0.856 0.0
C503 C 0.31152 0.51261 0.89758 0.0
Zn504 Zn -0.00486 0.9042 0.67146 0.0
Zn505 Zn 0.85185 0.64242 0.72796 0.0
Zn506 Zn 0.85057 0.7042 0.70204 0.0
C507 C 0.88971 0.5044 0.71303 0.0
C508 C 0.61702 0.53733 0.71175 0.0
O509 O 0.72638 0.76019 0.69636 0.0
O510 O 0.90076 0.89954 0.69207 0.0
C511 C 0.10892 0.84223 0.6861 0.0
O512 O 0.82747 0.53193 0.70453 0.0
O513 O 0.95098 0.5714 0.72417 0.0
O514 O 0.67409 0.54042 0.72415 0.0
O515 O 0.66905 0.60278 0.6998 0.0
O516 O 0.13445 0.86258 0.6716 0.0
O517 O 0.0021 0.76265 0.68814 0.0
O518 O 0.89692 0.69329 0.677 0.0
O519 O 0.86899 0.79657 0.65803 0.0
C520 C 0.86593 0.70472 0.66273 0.0
O521 O 0.89222 0.83568 0.72016 0.0
O522 O 0.89628 0.76477 0.74365 0.0
C523 C 0.79279 0.86639 0.69223 0.0
C524 C 0.89518 0.84358 0.73531 0.0
Zn525 Zn 0.12373 0.08751 0.6728 0.0
Zn526 Zn 0.40225 0.26785 0.72801 0.0
Zn527 Zn 0.32607 0.18084 0.7032 0.0
C528 C 0.49804 0.44126 0.71065 0.0
C529 C 0.51652 0.14744 0.71237 0.0
O530 O 0.27192 -0.00027 0.69903 0.0
O531 O 0.11794 0.01338 0.69508 0.0
C532 C 0.1819 0.27398 0.68399 0.0
O533 O 0.48199 0.35058 0.70315 0.0
O534 O 0.43167 0.4279 0.72225 0.0
O535 O 0.52388 0.21806 0.72321 0.0
O536 O 0.43279 0.10657 0.70234 0.0
O537 O 0.15797 0.26394 0.66938 0.0
O538 O 0.27277 0.2667 0.68709 0.0
O539 O 0.34232 0.22073 0.67762 0.0
O540 O 0.23927 0.06437 0.66235 0.0
C541 C 0.326 0.16349 0.66447 0.0
O542 O 0.20072 0.09295 0.72184 0.0
O543 O 0.29267 0.17323 0.74419 0.0
C544 C 0.16217 0.94789 0.69608 0.0
C545 C 0.20934 0.08982 0.73694 0.0
Zn546 Zn 0.93893 0.02277 0.66821 0.0
Zn547 Zn 0.79401 0.16391 0.7276 0.0
Zn548 Zn 0.85489 0.17732 0.6985 0.0
C549 C 0.61157 0.12324 0.71112 0.0
C550 C 0.87108 0.3868 0.71254 0.0
O551 O 0.04658 0.26629 0.70342 0.0
O552 O -0.00513 0.11495 0.68947 0.0
C553 C 0.7506 0.92304 0.68104 0.0
O554 O 0.70083 0.19249 0.70281 0.0
O555 O 0.62367 0.06666 0.72238 0.0
O556 O 0.88219 0.34349 0.72544 0.0
O557 O 0.82124 0.31897 0.70061 0.0
O558 O 0.75682 0.89907 0.66668 0.0
O559 O 0.77654 0.0291 0.6833 0.0
O560 O 0.88519 0.17757 0.67181 0.0
O561 O 0.97632 0.13801 0.65225 0.0
C562 C 0.9097 0.17487 0.65687 0.0
O563 O 0.96799 0.18525 0.71855 0.0
O564 O 0.88114 0.11672 0.74159 0.0
C565 C 0.07837 0.212 0.6939 0.0
C566 C 0.97164 0.15688 0.73302 0.0
Zn567 Zn 0.31735 0.1866 0.08499 0.0
Zn568 Zn 0.6025 0.36284 0.14371 0.0
Zn569 Zn 0.36171 0.18628 0.11349 0.0
C570 C 0.41765 0.20191 0.15495 0.0
C571 C 0.5011 0.44601 0.12954 0.0
O572 O 0.47802 0.18455 0.09434 0.0
O573 O 0.45425 0.25051 0.07142 0.0
C574 C 0.17783 0.96217 0.10104 0.0
O575 O 0.38127 0.19332 0.14036 0.0
O576 O 0.52294 0.24043 0.15868 0.0
O577 O 0.5352 0.4786 0.14365 0.0
O578 O 0.42344 0.33779 0.1283 0.0
O579 O 0.23378 0.00547 0.08816 0.0
O580 O 0.19049 0.03256 0.1124 0.0
O581 O 0.18837 0.15665 0.10792 0.0
O582 O 0.23056 0.27023 0.08683 0.0
C583 C 0.16124 0.21218 0.09791 0.0
O584 O 0.47031 0.10186 0.10976 0.0
O585 O 0.55603 0.25131 0.12456 0.0
C586 C 0.50937 0.21551 0.07989 0.0
C587 C 0.54893 0.15698 0.12026 0.0
Zn588 Zn 0.82041 0.11284 0.08156 0.0
Zn589 Zn 0.72117 0.29854 0.14125 0.0
Zn590 Zn 0.83689 0.18714 0.10957 0.0
C591 C 0.85514 0.2449 0.14968 0.0
C592 C 0.60171 0.10371 0.12987 0.0
O593 O 0.84868 0.29762 0.09002 0.0
O594 O 0.78479 0.20366 0.0673 0.0
C595 C 0.04355 0.19149 0.09717 0.0
O596 O 0.84628 0.21057 0.13511 0.0
O597 O 0.86121 0.3399 0.15332 0.0
O598 O 0.59421 0.1168 0.14462 0.0
O599 O 0.70042 0.11775 0.12578 0.0
O600 O 0.00027 0.19087 0.08366 0.0
O601 O 0.97621 0.15305 0.10927 0.0
O602 O 0.84473 0.03057 0.10644 0.0
O603 O 0.7008 0.95175 0.08962 0.0
C604 C 0.76222 0.93915 0.10004 0.0
O605 O 0.92578 0.38138 0.10495 0.0
O606 O 0.77501 0.34776 0.11796 0.0
C607 C 0.8229 0.29614 0.07536 0.0
C608 C 0.87365 0.42489 0.11291 0.0
Zn609 Zn 0.9055 0.7308 0.08362 0.0
Zn610 Zn 0.77062 0.48318 0.13601 0.0
Zn611 Zn 0.8135 0.65435 0.10666 0.0
C612 C 0.85607 0.68018 0.14555 0.0
C613 C 0.94227 0.53402 0.1219 0.0
O614 O 0.74577 0.52203 0.0886 0.0
O615 O 0.82069 0.62203 0.06666 0.0
C616 C 0.77932 0.84038 0.09832 0.0
O617 O 0.89547 0.69735 0.13097 0.0
O618 O 0.75935 0.59426 0.14943 0.0
O619 O 0.94859 0.51566 0.13638 0.0
O620 O 0.93015 0.62331 0.11955 0.0
O621 O 0.85423 0.84978 0.0881 0.0
O622 O 0.73191 0.75322 0.10776 0.0
O623 O -0.01038 0.80968 0.10939 0.0
O624 O 0.07041 0.78356 0.08806 0.0
C625 C 0.07934 0.8421 0.10045 0.0
O626 O 0.6457 0.61149 0.11558 0.0
O627 O 0.66086 0.45717 0.11618 0.0
C628 C 0.74207 0.53218 0.0735 0.0
C629 C 0.59555 0.50109 0.11765 0.0
Zn630 Zn 0.70559 0.43924 0.64151 0.0
Zn631 Zn 0.81816 0.7269 0.5826 0.0
Zn632 Zn 0.83919 0.67335 0.61009 0.0
C633 C 0.76438 0.85121 0.60007 0.0
C634 C 0.04052 0.87609 0.59753 0.0
O635 O 0.92176 0.56534 0.60444 0.0
O636 O 0.77179 0.45607 0.6183 0.0
C637 C 0.59923 0.52487 0.62961 0.0
O638 O 0.84295 0.83865 0.60715 0.0
O639 O 0.70427 0.77836 0.58944 0.0
O640 O -0.00171 0.82828 0.58424 0.0
O641 O 0.97274 0.84916 0.60957 0.0
O642 O 0.59087 0.51039 0.64448 0.0
O643 O 0.69969 0.60506 0.62538 0.0
O644 O 0.84814 0.64091 0.6359 0.0
O645 O 0.83257 0.52331 0.65603 0.0
C646 C 0.85331 0.62173 0.65092 0.0
O647 O 0.85234 0.57649 0.58949 0.0
O648 O 0.78282 0.60647 0.56714 0.0
C649 C 0.86904 0.47339 0.61312 0.0
C650 C 0.82515 0.55388 0.57474 0.0
Zn651 Zn 0.5921 0.25282 0.64459 0.0
Zn652 Zn 0.3092 0.1559 0.58465 0.0
Zn653 Zn 0.35534 0.19802 0.61215 0.0
C654 C 0.15622 0.97589 0.59794 0.0
C655 C 0.17592 0.24967 0.6006 0.0
O656 O 0.46721 0.39181 0.60962 0.0
O657 O 0.54316 0.32668 0.62612 0.0
C658 C 0.49472 0.074 0.62806 0.0
O659 O 0.17975 0.06211 0.60705 0.0
O660 O 0.22803 0.98494 0.58739 0.0
O661 O 0.22561 0.25411 0.58742 0.0
O662 O 0.19083 0.19545 0.61222 0.0
O663 O 0.52494 0.07095 0.6423 0.0
O664 O 0.41538 0.10269 0.62676 0.0
O665 O 0.36183 0.16268 0.63756 0.0
O666 O 0.48676 0.30495 0.65313 0.0
C667 C 0.38498 0.22394 0.65042 0.0
O668 O 0.47777 0.31806 0.59406 0.0
O669 O 0.44369 0.22661 0.57108 0.0
C670 C 0.54163 0.41468 0.62073 0.0
C671 C 0.50439 0.31626 0.57943 0.0
Zn672 Zn 0.76119 0.3105 0.63582 0.0
Zn673 Zn 0.90647 0.1997 0.58265 0.0
Zn674 Zn 0.81428 0.19139 0.60617 0.0
C675 C 0.07954 0.27464 0.60033 0.0
C676 C 0.78487 0.96865 0.59814 0.0
O677 O 0.64678 0.06487 0.61446 0.0
O678 O 0.65318 0.23111 0.6158 0.0
C679 C 0.9375 0.43524 0.62252 0.0
O680 O -0.00921 0.21767 0.60944 0.0
O681 O 0.06822 0.32099 0.58774 0.0
O682 O 0.86253 0.03305 0.58814 0.0
O683 O 0.73261 0.0088 0.60659 0.0
O684 O 0.93722 0.4569 0.63704 0.0
O685 O 0.9299 0.33589 0.61995 0.0
O686 O 0.89209 0.22442 0.63041 0.0
O687 O 0.75095 0.18508 0.64834 0.0
C688 C 0.84827 0.19645 0.6447 0.0
O689 O 0.75464 0.26774 0.58925 0.0
O690 O 0.80696 0.2191 0.56714 0.0
C691 C 0.59236 0.12091 0.61668 0.0
C692 C 0.73844 0.24319 0.57448 0.0
Zn693 Zn 0.13323 0.06938 0.17435 0.0
Zn694 Zn 0.40172 0.17204 0.22919 0.0
Zn695 Zn 0.30817 0.17662 0.2056 0.0
C696 C 0.47773 0.07876 0.20962 0.0
C697 C 0.50787 0.40048 0.21327 0.0
O698 O 0.2687 0.30697 0.19833 0.0
O699 O 0.11364 0.13896 0.19579 0.0
C700 C 0.18795 0.93867 0.18668 0.0
O701 O 0.44612 0.13549 0.20041 0.0
O702 O 0.42375 0.03972 0.22266 0.0
O703 O 0.52609 0.33566 0.22258 0.0
O704 O 0.41087 0.36047 0.20586 0.0
O705 O 0.16763 0.92764 0.17197 0.0
O706 O 0.28041 0.03516 0.19035 0.0
O707 O 0.35536 0.15091 0.18144 0.0
O708 O 0.25831 0.20351 0.16449 0.0
C709 C 0.34279 0.1889 0.16771 0.0
O710 O 0.172 0.09479 0.22209 0.0
O711 O 0.27787 0.16048 0.2436 0.0
C712 C 0.15874 0.24879 0.19577 0.0
C713 C 0.18247 0.12804 0.23649 0.0
Zn714 Zn 0.00176 0.1163 0.16927 0.0
Zn715 Zn 0.83686 0.23003 0.22614 0.0
Zn716 Zn 0.8362 0.1742 0.20002 0.0
C717 C 0.86883 0.40426 0.21184 0.0
C718 C 0.6012 0.1108 0.20973 0.0
O719 O 0.73239 0.98112 0.19888 0.0
O720 O 0.90254 0.04096 0.18965 0.0
C721 C 0.10611 0.296 0.18479 0.0
O722 O 0.79972 0.31415 0.20376 0.0
O723 O 0.9362 0.39833 0.22192 0.0
O724 O 0.6545 0.13973 0.2231 0.0
O725 O 0.6607 0.13256 0.19694 0.0
O726 O 0.13445 0.29612 0.17041 0.0
O727 O -0.00199 0.26692 0.18646 0.0
O728 O 0.89427 0.22249 0.17581 0.0
O729 O 0.86009 0.08657 0.15799 0.0
C730 C 0.85015 0.1717 0.16243 0.0
O731 O 0.84724 0.06568 0.21862 0.0
O732 O 0.89388 0.16264 0.24127 0.0
C733 C 0.80072 0.95547 0.1915 0.0
C734 C 0.8695 0.07164 0.23351 0.0
Zn735 Zn 0.94922 0.94186 0.1687 0.0
Zn736 Zn 0.78619 0.65454 0.22815 0.0
Zn737 Zn 0.85261 0.70527 0.19923 0.0
C738 C 0.60189 0.52035 0.2115 0.0
C739 C 0.85507 0.50542 0.21212 0.0
O740 O 0.04348 0.80791 0.20493 0.0
O741 O -0.00019 0.91397 0.19098 0.0
C742 C 0.75711 0.85436 0.18071 0.0
O743 O 0.69081 0.53903 0.20318 0.0
O744 O 0.6161 0.58948 0.22279 0.0
O745 O 0.86872 0.55785 0.22527 0.0
O746 O 0.80766 0.52855 0.20046 0.0
O747 O 0.76643 0.88052 0.16616 0.0
O748 O 0.7811 0.7743 0.18365 0.0
O749 O 0.89344 0.73831 0.17273 0.0
O750 O -0.00743 0.86485 0.15311 0.0
C751 C 0.92092 0.76272 0.15777 0.0
O752 O 0.96369 0.80505 0.21995 0.0
O753 O 0.87638 0.78134 0.24318 0.0
C754 C 0.08078 0.89778 0.19594 0.0
C755 C 0.96715 0.83272 0.23468 0.0
loop_
_geom_bond_atom_site_label_1
_geom_bond_atom_site_label_2
_geom_bond_distance
_geom_bond_site_symmetry_2
_ccdc_geom_bond_type
Zn0 O6 1.920 . S
Zn0 O12 1.898 . S
Zn0 O15 1.905 . S
Zn1 O9 1.909 1_554 S
Zn1 O10 1.898 . S
Zn1 O18 1.920 . S
Zn2 O5 2.080 . S
Zn2 O8 2.114 . S
Zn2 O11 2.120 . S
Zn2 O13 2.120 1_545 S
Zn2 O14 2.114 1_545 S
Zn2 O17 2.080 . S
C3 O8 1.166 . S
C3 O9 1.184 1_554 S
C4 O10 1.167 . S
C4 O11 1.299 . S
O5 Zn2 2.080 . S
O5 C19 1.305 . S
O6 Zn0 1.920 . S
O6 C19 1.234 1_565 S
C7 O12 1.167 . S
C7 O13 1.299 . S
O8 Zn2 2.114 . S
O8 C3 1.166 . S
O9 Zn1 1.909 1_556 S
O9 C3 1.184 1_556 S
O10 Zn1 1.898 . S
O10 C4 1.167 . S
O11 Zn2 2.120 . S
O11 C4 1.299 . S
O12 Zn0 1.898 . S
O12 C7 1.167 . S
O13 Zn2 2.120 1_565 S
O13 C7 1.299 . S
O14 Zn2 2.114 1_565 S
O14 C16 1.166 . S
O15 Zn0 1.905 . S
O15 C16 1.182 . S
C16 O14 1.166 . S
C16 O15 1.182 . S
O17 Zn2 2.080 . S
O17 C20 1.305 . S
O18 Zn1 1.920 . S
O18 C20 1.234 . S
C19 O5 1.305 . S
C19 O6 1.234 1_545 S
C20 O17 1.305 . S
C20 O18 1.234 . S
Zn21 O27 1.920 . S
Zn21 O33 1.898 . S
Zn21 O36 1.908 1_554 S
Zn22 O30 1.905 . S
Zn22 O31 1.898 . S
Zn22 O39 1.920 . S
Zn23 O26 2.080 1_455 S
Zn23 O29 2.114 . S
Zn23 O32 2.120 . S
Zn23 O34 2.120 1_455 S
Zn23 O35 2.114 . S
Zn23 O38 2.080 . S
C24 O29 1.166 . S
C24 O30 1.182 . S
C25 O31 1.167 . S
C25 O32 1.299 . S
O26 Zn23 2.080 1_655 S
O26 C40 1.305 . S
O27 Zn21 1.920 . S
O27 C40 1.234 . S
C28 O33 1.167 . S
C28 O34 1.299 . S
O29 Zn23 2.114 . S
O29 C24 1.166 . S
O30 Zn22 1.905 . S
O30 C24 1.182 . S
O31 Zn22 1.898 . S
O31 C25 1.167 . S
O32 Zn23 2.120 . S
O32 C25 1.299 . S
O33 Zn21 1.898 . S
O33 C28 1.167 . S
O34 Zn23 2.120 1_655 S
O34 C28 1.299 . S
O35 Zn23 2.114 . S
O35 C37 1.166 1_455 S
O36 Zn21 1.908 1_556 S
O36 C37 1.187 1_556 S
C37 O35 1.166 1_655 S
C37 O36 1.187 1_554 S
O38 Zn23 2.080 . S
O38 C41 1.305 . S
O39 Zn22 1.920 . S
O39 C41 1.234 . S
C40 O26 1.305 . S
C40 O27 1.234 . S
C41 O38 1.305 . S
C41 O39 1.234 . S
Zn42 O48 1.920 . S
Zn42 O54 1.898 . S
Zn42 O57 1.905 . S
Zn43 O51 1.909 1_554 S
Zn43 O52 1.898 . S
Zn43 O60 1.920 . S
Zn44 O47 2.080 . S
Zn44 O50 2.114 . S
Zn44 O53 2.120 . S
Zn44 O55 2.120 . S
Zn44 O56 2.114 . S
Zn44 O59 2.080 . S
C45 O50 1.166 . S
C45 O51 1.184 1_554 S
C46 O52 1.167 . S
C46 O53 1.299 . S
O47 Zn44 2.080 . S
O47 C61 1.305 . S
O48 Zn42 1.920 . S
O48 C61 1.234 . S
C49 O54 1.167 . S
C49 O55 1.299 . S
O50 Zn44 2.114 . S
O50 C45 1.166 . S
O51 Zn43 1.909 1_556 S
O51 C45 1.184 1_556 S
O52 Zn43 1.898 . S
O52 C46 1.167 . S
O53 Zn44 2.120 . S
O53 C46 1.299 . S
O54 Zn42 1.898 . S
O54 C49 1.167 . S
O55 Zn44 2.120 . S
O55 C49 1.299 . S
O56 Zn44 2.114 . S
O56 C58 1.166 . S
O57 Zn42 1.905 . S
O57 C58 1.182 . S
C58 O56 1.166 . S
C58 O57 1.182 . S
O59 Zn44 2.080 . S
O59 C62 1.305 . S
O60 Zn43 1.920 . S
O60 C62 1.234 . S
C61 O47 1.305 . S
C61 O48 1.234 . S
C62 O59 1.305 . S
C62 O60 1.234 . S
Zn63 O69 1.920 . S
Zn63 O75 1.898 . S
Zn63 O78 1.905 . S
Zn64 O72 1.905 . S
Zn64 O73 1.898 . S
Zn64 O81 1.920 . S
Zn65 O68 2.080 . S
Zn65 O71 2.114 . S
Zn65 O74 2.120 . S
Zn65 O76 2.120 1_455 S
Zn65 O77 2.114 1_455 S
Zn65 O80 2.080 . S
C66 O71 1.166 . S
C66 O72 1.182 . S
C67 O73 1.167 . S
C67 O74 1.299 . S
O68 Zn65 2.080 . S
O68 C82 1.305 . S
O69 Zn63 1.920 . S
O69 C82 1.234 1_655 S
C70 O75 1.167 . S
C70 O76 1.299 . S
O71 Zn65 2.114 . S
O71 C66 1.166 . S
O72 Zn64 1.905 . S
O72 C66 1.182 . S
O73 Zn64 1.898 . S
O73 C67 1.167 . S
O74 Zn65 2.120 . S
O74 C67 1.299 . S
O75 Zn63 1.898 . S
O75 C70 1.167 . S
O76 Zn65 2.120 1_655 S
O76 C70 1.299 . S
O77 Zn65 2.114 1_655 S
O77 C79 1.166 . S
O78 Zn63 1.905 . S
O78 C79 1.182 . S
C79 O77 1.166 . S
C79 O78 1.182 . S
O80 Zn65 2.080 . S
O80 C83 1.305 . S
O81 Zn64 1.920 . S
O81 C83 1.234 . S
C82 O68 1.305 . S
C82 O69 1.234 1_455 S
C83 O80 1.305 . S
C83 O81 1.234 . S
Zn84 O90 1.920 . S
Zn84 O96 1.898 . S
Zn84 O99 1.905 . S
Zn85 O93 1.905 . S
Zn85 O94 1.898 . S
Zn85 O102 1.920 . S
Zn86 O89 2.080 . S
Zn86 O92 2.114 . S
Zn86 O95 2.120 . S
Zn86 O97 2.120 . S
Zn86 O98 2.114 . S
Zn86 O101 2.080 . S
C87 O92 1.166 . S
C87 O93 1.182 . S
C88 O94 1.167 . S
C88 O95 1.299 . S
O89 Zn86 2.080 . S
O89 C103 1.305 . S
O90 Zn84 1.920 . S
O90 C103 1.234 . S
C91 O96 1.167 . S
C91 O97 1.299 . S
O92 Zn86 2.114 . S
O92 C87 1.166 . S
O93 Zn85 1.905 . S
O93 C87 1.182 . S
O94 Zn85 1.898 . S
O94 C88 1.167 . S
O95 Zn86 2.120 . S
O95 C88 1.299 . S
O96 Zn84 1.898 . S
O96 C91 1.167 . S
O97 Zn86 2.120 . S
O97 C91 1.299 . S
O98 Zn86 2.114 . S
O98 C100 1.166 . S
O99 Zn84 1.905 . S
O99 C100 1.182 . S
C100 O98 1.166 . S
C100 O99 1.182 . S
O101 Zn86 2.080 . S
O101 C104 1.305 . S
O102 Zn85 1.920 . S
O102 C104 1.234 . S
C103 O89 1.305 . S
C103 O90 1.234 . S
C104 O101 1.305 . S
C104 O102 1.234 . S
Zn105 O111 1.920 . S
Zn105 O117 1.898 . S
Zn105 O120 1.905 . S
Zn106 O114 1.905 . S
Zn106 O115 1.898 . S
Zn106 O123 1.920 . S
Zn107 O110 2.080 . S
Zn107 O113 2.114 . S
Zn107 O116 2.120 1_545 S
Zn107 O118 2.120 . S
Zn107 O119 2.114 . S
Zn107 O122 2.080 1_545 S
C108 O113 1.166 1_565 S
C108 O114 1.186 . S
C109 O115 1.167 . S
C109 O116 1.299 . S
O110 Zn107 2.080 . S
O110 C124 1.305 . S
O111 Zn105 1.920 . S
O111 C124 1.234 . S
C112 O117 1.167 . S
C112 O118 1.299 . S
O113 Zn107 2.114 . S
O113 C108 1.166 1_545 S
O114 Zn106 1.905 . S
O114 C108 1.186 . S
O115 Zn106 1.898 . S
O115 C109 1.167 . S
O116 Zn107 2.120 1_565 S
O116 C109 1.299 . S
O117 Zn105 1.898 . S
O117 C112 1.167 . S
O118 Zn107 2.120 . S
O118 C112 1.299 . S
O119 Zn107 2.114 . S
O119 C121 1.166 . S
O120 Zn105 1.905 . S
O120 C121 1.182 . S
C121 O119 1.166 . S
C121 O120 1.182 . S
O122 Zn107 2.080 1_565 S
O122 C125 1.305 . S
O123 Zn106 1.920 . S
O123 C125 1.234 . S
C124 O110 1.305 . S
C124 O111 1.234 . S
C125 O122 1.305 . S
C125 O123 1.234 . S
Zn126 O132 1.920 . S
Zn126 O138 1.898 . S
Zn126 O141 1.905 . S
Zn127 O135 1.909 1_556 S
Zn127 O136 1.898 . S
Zn127 O144 1.920 . S
Zn128 O131 2.080 . S
Zn128 O134 2.114 . S
Zn128 O137 2.120 1_545 S
Zn128 O139 2.120 . S
Zn128 O140 2.114 . S
Zn128 O143 2.080 1_545 S
C129 O134 1.164 1_565 S
C129 O135 1.188 1_556 S
C130 O136 1.167 . S
C130 O137 1.299 . S
O131 Zn128 2.080 . S
O131 C145 1.305 . S
O132 Zn126 1.920 . S
O132 C145 1.234 . S
C133 O138 1.167 . S
C133 O139 1.299 . S
O134 Zn128 2.114 . S
O134 C129 1.164 1_545 S
O135 Zn127 1.909 1_554 S
O135 C129 1.188 1_554 S
O136 Zn127 1.898 . S
O136 C130 1.167 . S
O137 Zn128 2.120 1_565 S
O137 C130 1.299 . S
O138 Zn126 1.898 . S
O138 C133 1.167 . S
O139 Zn128 2.120 . S
O139 C133 1.299 . S
O140 Zn128 2.114 . S
O140 C142 1.166 . S
O141 Zn126 1.905 . S
O141 C142 1.182 . S
C142 O140 1.166 . S
C142 O141 1.182 . S
O143 Zn128 2.080 1_565 S
O143 C146 1.305 . S
O144 Zn127 1.920 . S
O144 C146 1.234 . S
C145 O131 1.305 . S
C145 O132 1.234 . S
C146 O143 1.305 . S
C146 O144 1.234 . S
Zn147 O153 1.920 . S
Zn147 O159 1.898 . S
Zn147 O162 1.905 . S
Zn148 O156 1.909 1_556 S
Zn148 O157 1.898 . S
Zn148 O165 1.920 . S
Zn149 O152 2.080 . S
Zn149 O155 2.114 . S
Zn149 O158 2.120 . S
Zn149 O160 2.120 1_455 S
Zn149 O161 2.114 1_455 S
Zn149 O164 2.080 . S
C150 O155 1.166 . S
C150 O156 1.184 1_556 S
C151 O157 1.167 . S
C151 O158 1.299 . S
O152 Zn149 2.080 . S
O152 C166 1.305 . S
O153 Zn147 1.920 . S
O153 C166 1.234 1_655 S
C154 O159 1.167 . S
C154 O160 1.299 . S
O155 Zn149 2.114 . S
O155 C150 1.166 . S
O156 Zn148 1.909 1_554 S
O156 C150 1.184 1_554 S
O157 Zn148 1.898 . S
O157 C151 1.167 . S
O158 Zn149 2.120 . S
O158 C151 1.299 . S
O159 Zn147 1.898 . S
O159 C154 1.167 . S
O160 Zn149 2.120 1_655 S
O160 C154 1.299 . S
O161 Zn149 2.114 1_655 S
O161 C163 1.166 . S
O162 Zn147 1.905 . S
O162 C163 1.182 . S
C163 O161 1.166 . S
C163 O162 1.182 . S
O164 Zn149 2.080 . S
O164 C167 1.305 . S
O165 Zn148 1.920 . S
O165 C167 1.234 . S
C166 O152 1.305 . S
C166 O153 1.234 1_455 S
C167 O164 1.305 . S
C167 O165 1.234 . S
Zn168 O174 1.920 . S
Zn168 O180 1.898 . S
Zn168 O183 1.909 1_556 S
Zn169 O177 1.905 . S
Zn169 O178 1.898 . S
Zn169 O186 1.920 . S
Zn170 O173 2.080 . S
Zn170 O176 2.114 . S
Zn170 O179 2.120 . S
Zn170 O181 2.120 . S
Zn170 O182 2.114 . S
Zn170 O185 2.080 . S
C171 O176 1.166 . S
C171 O177 1.182 . S
C172 O178 1.167 . S
C172 O179 1.299 . S
O173 Zn170 2.080 . S
O173 C187 1.305 . S
O174 Zn168 1.920 . S
O174 C187 1.234 . S
C175 O180 1.167 . S
C175 O181 1.299 . S
O176 Zn170 2.114 . S
O176 C171 1.166 . S
O177 Zn169 1.905 . S
O177 C171 1.182 . S
O178 Zn169 1.898 . S
O178 C172 1.167 . S
O179 Zn170 2.120 . S
O179 C172 1.299 . S
O180 Zn168 1.898 . S
O180 C175 1.167 . S
O181 Zn170 2.120 . S
O181 C175 1.299 . S
O182 Zn170 2.114 . S
O182 C184 1.166 . S
O183 Zn168 1.909 1_554 S
O183 C184 1.184 1_554 S
C184 O182 1.166 . S
C184 O183 1.184 1_556 S
O185 Zn170 2.080 . S
O185 C188 1.305 . S
O186 Zn169 1.920 . S
O186 C188 1.234 . S
C187 O173 1.305 . S
C187 O174 1.234 . S
C188 O185 1.305 . S
C188 O186 1.234 . S
Zn189 O195 1.920 . S
Zn189 O201 1.898 . S
Zn189 O204 1.905 . S
Zn190 O198 1.905 . S
Zn190 O199 1.898 . S
Zn190 O207 1.920 . S
Zn191 O194 2.080 . S
Zn191 O197 2.114 . S
Zn191 O200 2.120 1_455 S
Zn191 O202 2.120 . S
Zn191 O203 2.114 . S
Zn191 O206 2.080 1_455 S
C192 O197 1.164 1_655 S
C192 O198 1.186 . S
C193 O199 1.167 . S
C193 O200 1.299 . S
O194 Zn191 2.080 . S
O194 C208 1.305 . S
O195 Zn189 1.920 . S
O195 C208 1.234 . S
C196 O201 1.167 . S
C196 O202 1.299 . S
O197 Zn191 2.114 . S
O197 C192 1.164 1_455 S
O198 Zn190 1.905 . S
O198 C192 1.186 . S
O199 Zn190 1.898 . S
O199 C193 1.167 . S
O200 Zn191 2.120 1_655 S
O200 C193 1.299 . S
O201 Zn189 1.898 . S
O201 C196 1.167 . S
O202 Zn191 2.120 . S
O202 C196 1.299 . S
O203 Zn191 2.114 . S
O203 C205 1.166 . S
O204 Zn189 1.905 . S
O204 C205 1.182 . S
C205 O203 1.166 . S
C205 O204 1.182 . S
O206 Zn191 2.080 1_655 S
O206 C209 1.305 . S
O207 Zn190 1.920 . S
O207 C209 1.234 . S
C208 O194 1.305 . S
C208 O195 1.234 . S
C209 O206 1.305 . S
C209 O207 1.234 . S
Zn210 O216 1.920 . S
Zn210 O222 1.898 . S
Zn210 O225 1.905 . S
Zn211 O219 1.905 . S
Zn211 O220 1.898 . S
Zn211 O228 1.920 . S
Zn212 O215 2.080 . S
Zn212 O218 2.114 . S
Zn212 O221 2.120 . S
Zn212 O223 2.120 . S
Zn212 O224 2.114 . S
Zn212 O227 2.080 . S
C213 O218 1.166 . S
C213 O219 1.182 . S
C214 O220 1.167 . S
C214 O221 1.299 . S
O215 Zn212 2.080 . S
O215 C229 1.305 . S
O216 Zn210 1.920 . S
O216 C229 1.234 . S
C217 O222 1.167 . S
C217 O223 1.299 . S
O218 Zn212 2.114 . S
O218 C213 1.166 . S
O219 Zn211 1.905 . S
O219 C213 1.182 . S
O220 Zn211 1.898 . S
O220 C214 1.167 . S
O221 Zn212 2.120 . S
O221 C214 1.299 . S
O222 Zn210 1.898 . S
O222 C217 1.167 . S
O223 Zn212 2.120 . S
O223 C217 1.299 . S
O224 Zn212 2.114 . S
O224 C226 1.166 . S
O225 Zn210 1.905 . S
O225 C226 1.182 . S
C226 O224 1.166 . S
C226 O225 1.182 . S
O227 Zn212 2.080 . S
O227 C230 1.305 . S
O228 Zn211 1.920 . S
O228 C230 1.234 . S
C229 O215 1.305 . S
C229 O216 1.234 . S
C230 O227 1.305 . S
C230 O228 1.234 . S
Zn231 O237 1.920 . S
Zn231 O243 1.898 . S
Zn231 O246 1.905 . S
Zn232 O240 1.905 . S
Zn232 O241 1.898 . S
Zn232 O249 1.920 . S
Zn233 O236 2.080 . S
Zn233 O239 2.114 1_545 S
Zn233 O242 2.120 1_545 S
Zn233 O244 2.120 . S
Zn233 O245 2.114 . S
Zn233 O248 2.080 . S
C234 O239 1.166 . S
C234 O240 1.182 . S
C235 O241 1.167 . S
C235 O242 1.299 . S
O236 Zn233 2.080 . S
O236 C250 1.305 . S
O237 Zn231 1.920 . S
O237 C250 1.234 . S
C238 O243 1.167 . S
C238 O244 1.299 . S
O239 Zn233 2.114 1_565 S
O239 C234 1.166 . S
O240 Zn232 1.905 . S
O240 C234 1.182 . S
O241 Zn232 1.898 . S
O241 C235 1.167 . S
O242 Zn233 2.120 1_565 S
O242 C235 1.299 . S
O243 Zn231 1.898 . S
O243 C238 1.167 . S
O244 Zn233 2.120 . S
O244 C238 1.299 . S
O245 Zn233 2.114 . S
O245 C247 1.166 . S
O246 Zn231 1.905 . S
O246 C247 1.182 . S
C247 O245 1.166 . S
C247 O246 1.182 . S
O248 Zn233 2.080 . S
O248 C251 1.305 . S
O249 Zn232 1.920 . S
O249 C251 1.234 1_565 S
C250 O236 1.305 . S
C250 O237 1.234 . S
C251 O248 1.305 . S
C251 O249 1.234 1_545 S
Zn252 O258 1.920 . S
Zn252 O264 1.898 . S
Zn252 O267 1.905 . S
Zn253 O261 1.905 . S
Zn253 O262 1.899 1_455 S
Zn253 O270 1.920 1_455 S
Zn254 O257 2.080 . S
Zn254 O260 2.114 . S
Zn254 O263 2.120 1_455 S
Zn254 O265 2.120 . S
Zn254 O266 2.114 . S
Zn254 O269 2.080 . S
C255 O260 1.166 . S
C255 O261 1.182 . S
C256 O262 1.167 . S
C256 O263 1.299 . S
O257 Zn254 2.080 . S
O257 C271 1.305 . S
O258 Zn252 1.920 . S
O258 C271 1.234 . S
C259 O264 1.167 . S
C259 O265 1.299 . S
O260 Zn254 2.114 . S
O260 C255 1.166 . S
O261 Zn253 1.905 . S
O261 C255 1.182 . S
O262 Zn253 1.899 1_655 S
O262 C256 1.167 . S
O263 Zn254 2.120 1_655 S
O263 C256 1.299 . S
O264 Zn252 1.898 . S
O264 C259 1.167 . S
O265 Zn254 2.120 . S
O265 C259 1.299 . S
O266 Zn254 2.114 . S
O266 C268 1.166 . S
O267 Zn252 1.905 . S
O267 C268 1.182 . S
C268 O266 1.166 . S
C268 O267 1.182 . S
O269 Zn254 2.080 . S
O269 C272 1.305 . S
O270 Zn253 1.920 1_655 S
O270 C272 1.234 1_655 S
C271 O257 1.305 . S
C271 O258 1.234 . S
C272 O269 1.305 . S
C272 O270 1.234 1_455 S
Zn273 O279 1.920 . S
Zn273 O285 1.898 . S
Zn273 O288 1.905 . S
Zn274 O282 1.905 1_565 S
Zn274 O283 1.898 1_655 S
Zn274 O291 1.920 . S
Zn275 O278 2.080 . S
Zn275 O281 2.114 . S
Zn275 O284 2.120 . S
Zn275 O286 2.120 . S
Zn275 O287 2.114 . S
Zn275 O290 2.080 . S
C276 O281 1.166 1_545 S
C276 O282 1.182 . S
C277 O283 1.167 1_655 S
C277 O284 1.299 . S
O278 Zn275 2.080 . S
O278 C292 1.305 . S
O279 Zn273 1.920 . S
O279 C292 1.234 . S
C280 O285 1.167 . S
C280 O286 1.299 . S
O281 Zn275 2.114 . S
O281 C276 1.166 1_565 S
O282 Zn274 1.905 1_545 S
O282 C276 1.182 . S
O283 Zn274 1.898 1_455 S
O283 C277 1.167 1_455 S
O284 Zn275 2.120 . S
O284 C277 1.299 . S
O285 Zn273 1.898 . S
O285 C280 1.167 . S
O286 Zn275 2.120 . S
O286 C280 1.299 . S
O287 Zn275 2.114 . S
O287 C289 1.166 . S
O288 Zn273 1.905 . S
O288 C289 1.182 . S
C289 O287 1.166 . S
C289 O288 1.182 . S
O290 Zn275 2.080 . S
O290 C293 1.305 . S
O291 Zn274 1.920 . S
O291 C293 1.234 . S
C292 O278 1.305 . S
C292 O279 1.234 . S
C293 O290 1.305 . S
C293 O291 1.234 . S
Zn294 O300 1.920 . S
Zn294 O306 1.898 . S
Zn294 O309 1.905 . S
Zn295 O303 1.905 1_445 S
Zn295 O304 1.898 . S
Zn295 O312 1.920 . S
Zn296 O299 2.080 . S
Zn296 O302 2.114 . S
Zn296 O305 2.120 1_565 S
Zn296 O307 2.120 . S
Zn296 O308 2.114 . S
Zn296 O311 2.080 . S
C297 O302 1.166 1_655 S
C297 O303 1.182 . S
C298 O304 1.167 . S
C298 O305 1.299 . S
O299 Zn296 2.080 . S
O299 C313 1.305 . S
O300 Zn294 1.920 . S
O300 C313 1.234 . S
C301 O306 1.167 . S
C301 O307 1.299 . S
O302 Zn296 2.114 . S
O302 C297 1.166 1_455 S
O303 Zn295 1.905 1_665 S
O303 C297 1.182 . S
O304 Zn295 1.898 . S
O304 C298 1.167 . S
O305 Zn296 2.120 1_545 S
O305 C298 1.299 . S
O306 Zn294 1.898 . S
O306 C301 1.167 . S
O307 Zn296 2.120 . S
O307 C301 1.299 . S
O308 Zn296 2.114 . S
O308 C310 1.166 . S
O309 Zn294 1.905 . S
O309 C310 1.182 . S
C310 O308 1.166 . S
C310 O309 1.182 . S
O311 Zn296 2.080 . S
O311 C314 1.309 . S
O312 Zn295 1.920 . S
O312 C314 1.227 1_545 S
C313 O299 1.305 . S
C313 O300 1.234 . S
C314 O311 1.309 . S
C314 O312 1.227 1_565 S
Zn315 O321 1.920 . S
Zn315 O327 1.898 . S
Zn315 O330 1.905 . S
Zn316 O324 1.905 . S
Zn316 O325 1.898 1_565 S
Zn316 O333 1.920 1_655 S
Zn317 O320 2.080 . S
Zn317 O323 2.114 . S
Zn317 O326 2.120 . S
Zn317 O328 2.120 . S
Zn317 O329 2.114 . S
Zn317 O332 2.080 . S
C318 O323 1.166 . S
C318 O324 1.182 . S
C319 O325 1.167 . S
C319 O326 1.299 1_545 S
O320 Zn317 2.080 . S
O320 C334 1.305 . S
O321 Zn315 1.920 . S
O321 C334 1.234 . S
C322 O327 1.167 . S
C322 O328 1.299 . S
O323 Zn317 2.114 . S
O323 C318 1.166 . S
O324 Zn316 1.905 . S
O324 C318 1.182 . S
O325 Zn316 1.898 1_545 S
O325 C319 1.167 . S
O326 Zn317 2.120 . S
O326 C319 1.299 1_565 S
O327 Zn315 1.898 . S
O327 C322 1.167 . S
O328 Zn317 2.120 . S
O328 C322 1.299 . S
O329 Zn317 2.114 . S
O329 C331 1.166 . S
O330 Zn315 1.905 . S
O330 C331 1.182 . S
C331 O329 1.166 . S
C331 O330 1.182 . S
O332 Zn317 2.080 . S
O332 C335 1.305 . S
O333 Zn316 1.920 1_455 S
O333 C335 1.234 1_455 S
C334 O320 1.305 . S
C334 O321 1.234 . S
C335 O332 1.305 . S
C335 O333 1.234 1_655 S
Zn336 O342 1.920 . S
Zn336 O348 1.898 . S
Zn336 O351 1.905 . S
Zn337 O345 1.905 1_545 S
Zn337 O346 1.898 1_445 S
Zn337 O354 1.920 . S
Zn338 O341 2.080 . S
Zn338 O344 2.114 . S
Zn338 O347 2.120 . S
Zn338 O349 2.120 . S
Zn338 O350 2.114 . S
Zn338 O353 2.080 1_565 S
C339 O344 1.166 . S
C339 O345 1.182 . S
C340 O346 1.167 . S
C340 O347 1.299 1_655 S
O341 Zn338 2.080 . S
O341 C355 1.305 . S
O342 Zn336 1.920 . S
O342 C355 1.234 . S
C343 O348 1.167 . S
C343 O349 1.299 . S
O344 Zn338 2.114 . S
O344 C339 1.166 . S
O345 Zn337 1.905 1_565 S
O345 C339 1.182 . S
O346 Zn337 1.898 1_665 S
O346 C340 1.167 . S
O347 Zn338 2.120 . S
O347 C340 1.299 1_455 S
O348 Zn336 1.898 . S
O348 C343 1.167 . S
O349 Zn338 2.120 . S
O349 C343 1.299 . S
O350 Zn338 2.114 . S
O350 C352 1.166 . S
O351 Zn336 1.905 . S
O351 C352 1.182 . S
C352 O350 1.166 . S
C352 O351 1.182 . S
O353 Zn338 2.080 1_545 S
O353 C356 1.305 . S
O354 Zn337 1.920 . S
O354 C356 1.234 . S
C355 O341 1.305 . S
C355 O342 1.234 . S
C356 O353 1.305 . S
C356 O354 1.234 . S
Zn357 O363 1.920 . S
Zn357 O369 1.898 . S
Zn357 O372 1.905 . S
Zn358 O366 1.905 . S
Zn358 O367 1.898 . S
Zn358 O375 1.920 1_455 S
Zn359 O362 2.080 . S
Zn359 O365 2.114 . S
Zn359 O368 2.120 . S
Zn359 O370 2.120 . S
Zn359 O371 2.114 . S
Zn359 O374 2.080 1_455 S
C360 O365 1.166 . S
C360 O366 1.182 . S
C361 O367 1.167 . S
C361 O368 1.299 . S
O362 Zn359 2.080 . S
O362 C376 1.305 . S
O363 Zn357 1.920 . S
O363 C376 1.234 . S
C364 O369 1.167 . S
C364 O370 1.299 . S
O365 Zn359 2.114 . S
O365 C360 1.166 . S
O366 Zn358 1.905 . S
O366 C360 1.182 . S
O367 Zn358 1.898 . S
O367 C361 1.167 . S
O368 Zn359 2.120 . S
O368 C361 1.299 . S
O369 Zn357 1.898 . S
O369 C364 1.167 . S
O370 Zn359 2.120 . S
O370 C364 1.299 . S
O371 Zn359 2.114 . S
O371 C373 1.166 . S
O372 Zn357 1.905 . S
O372 C373 1.182 . S
C373 O371 1.166 . S
C373 O372 1.182 . S
O374 Zn359 2.080 1_655 S
O374 C377 1.305 . S
O375 Zn358 1.920 1_655 S
O375 C377 1.234 . S
C376 O362 1.305 . S
C376 O363 1.234 . S
C377 O374 1.305 . S
C377 O375 1.234 . S
Zn378 O384 1.920 . S
Zn378 O390 1.898 1_455 S
Zn378 O393 1.905 . S
Zn379 O387 1.905 . S
Zn379 O388 1.898 . S
Zn379 O396 1.920 . S
Zn380 O383 2.080 . S
Zn380 O386 2.114 . S
Zn380 O389 2.120 . S
Zn380 O391 2.120 . S
Zn380 O392 2.114 . S
Zn380 O395 2.080 . S
C381 O386 1.166 . S
C381 O387 1.182 . S
C382 O388 1.167 . S
C382 O389 1.299 . S
O383 Zn380 2.080 . S
O383 C397 1.305 . S
O384 Zn378 1.920 . S
O384 C397 1.234 . S
C385 O390 1.167 . S
C385 O391 1.299 1_655 S
O386 Zn380 2.114 . S
O386 C381 1.166 . S
O387 Zn379 1.905 . S
O387 C381 1.182 . S
O388 Zn379 1.898 . S
O388 C382 1.167 . S
O389 Zn380 2.120 . S
O389 C382 1.299 . S
O390 Zn378 1.898 1_655 S
O390 C385 1.167 . S
O391 Zn380 2.120 . S
O391 C385 1.299 1_455 S
O392 Zn380 2.114 . S
O392 C394 1.166 . S
O393 Zn378 1.905 . S
O393 C394 1.182 . S
C394 O392 1.166 . S
C394 O393 1.182 . S
O395 Zn380 2.080 . S
O395 C398 1.305 . S
O396 Zn379 1.920 . S
O396 C398 1.234 . S
C397 O383 1.305 . S
C397 O384 1.234 . S
C398 O395 1.305 . S
C398 O396 1.234 . S
Zn399 O405 1.920 1_655 S
Zn399 O411 1.898 1_545 S
Zn399 O414 1.905 1_545 S
Zn400 O408 1.905 . S
Zn400 O409 1.898 . S
Zn400 O417 1.920 . S
Zn401 O404 2.080 1_565 S
Zn401 O407 2.114 . S
Zn401 O410 2.120 . S
Zn401 O412 2.120 . S
Zn401 O413 2.114 . S
Zn401 O416 2.080 . S
C402 O407 1.166 . S
C402 O408 1.182 . S
C403 O409 1.167 . S
C403 O410 1.299 . S
O404 Zn401 2.080 1_545 S
O404 C418 1.305 . S
O405 Zn399 1.920 1_455 S
O405 C418 1.234 1_455 S
C406 O411 1.167 . S
C406 O412 1.299 . S
O407 Zn401 2.114 . S
O407 C402 1.166 . S
O408 Zn400 1.905 . S
O408 C402 1.182 . S
O409 Zn400 1.898 . S
O409 C403 1.167 . S
O410 Zn401 2.120 . S
O410 C403 1.299 . S
O411 Zn399 1.898 1_565 S
O411 C406 1.167 . S
O412 Zn401 2.120 . S
O412 C406 1.299 . S
O413 Zn401 2.114 . S
O413 C415 1.166 . S
O414 Zn399 1.905 1_565 S
O414 C415 1.182 . S
C415 O413 1.166 . S
C415 O414 1.182 . S
O416 Zn401 2.080 . S
O416 C419 1.305 . S
O417 Zn400 1.920 . S
O417 C419 1.234 . S
C418 O404 1.305 . S
C418 O405 1.234 1_655 S
C419 O416 1.305 . S
C419 O417 1.234 . S
Zn420 O426 1.920 . S
Zn420 O432 1.898 . S
Zn420 O435 1.905 . S
Zn421 O429 1.905 . S
Zn421 O430 1.898 1_565 S
Zn421 O438 1.920 1_455 S
Zn422 O425 2.080 . S
Zn422 O428 2.114 . S
Zn422 O431 2.120 . S
Zn422 O433 2.120 . S
Zn422 O434 2.114 . S
Zn422 O437 2.080 1_455 S
C423 O428 1.166 . S
C423 O429 1.182 . S
C424 O430 1.167 . S
C424 O431 1.299 1_545 S
O425 Zn422 2.080 . S
O425 C439 1.305 . S
O426 Zn420 1.920 . S
O426 C439 1.234 . S
C427 O432 1.167 . S
C427 O433 1.299 . S
O428 Zn422 2.114 . S
O428 C423 1.166 . S
O429 Zn421 1.905 . S
O429 C423 1.182 . S
O430 Zn421 1.898 1_545 S
O430 C424 1.167 . S
O431 Zn422 2.120 . S
O431 C424 1.299 1_565 S
O432 Zn420 1.898 . S
O432 C427 1.167 . S
O433 Zn422 2.120 . S
O433 C427 1.299 . S
O434 Zn422 2.114 . S
O434 C436 1.166 . S
O435 Zn420 1.905 . S
O435 C436 1.182 . S
C436 O434 1.166 . S
C436 O435 1.182 . S
O437 Zn422 2.080 1_655 S
O437 C440 1.305 . S
O438 Zn421 1.920 1_655 S
O438 C440 1.234 . S
C439 O425 1.305 . S
C439 O426 1.234 . S
C440 O437 1.305 . S
C440 O438 1.234 . S
Zn441 O447 1.920 . S
Zn441 O453 1.898 1_655 S
Zn441 O456 1.905 1_545 S
Zn442 O450 1.905 . S
Zn442 O451 1.898 . S
Zn442 O459 1.920 . S
Zn443 O446 2.080 . S
Zn443 O449 2.114 . S
Zn443 O452 2.120 . S
Zn443 O454 2.120 1_565 S
Zn443 O455 2.114 . S
Zn443 O458 2.080 . S
C444 O449 1.166 . S
C444 O450 1.182 . S
C445 O451 1.167 . S
C445 O452 1.299 . S
O446 Zn443 2.080 . S
O446 C460 1.309 . S
O447 Zn441 1.920 . S
O447 C460 1.233 1_545 S
C448 O453 1.167 1_655 S
C448 O454 1.299 . S
O449 Zn443 2.114 . S
O449 C444 1.166 . S
O450 Zn442 1.905 . S
O450 C444 1.182 . S
O451 Zn442 1.898 . S
O451 C445 1.167 . S
O452 Zn443 2.120 . S
O452 C445 1.299 . S
O453 Zn441 1.898 1_455 S
O453 C448 1.167 1_455 S
O454 Zn443 2.120 1_545 S
O454 C448 1.299 . S
O455 Zn443 2.114 . S
O455 C457 1.166 . S
O456 Zn441 1.905 1_565 S
O456 C457 1.182 . S
C457 O455 1.166 . S
C457 O456 1.182 . S
O458 Zn443 2.080 . S
O458 C461 1.305 . S
O459 Zn442 1.920 . S
O459 C461 1.234 . S
C460 O446 1.309 . S
C460 O447 1.233 1_565 S
C461 O458 1.305 . S
C461 O459 1.234 . S
Zn462 O468 1.920 1_455 S
Zn462 O474 1.898 1_455 S
Zn462 O477 1.905 1_565 S
Zn463 O471 1.905 . S
Zn463 O472 1.898 . S
Zn463 O480 1.920 . S
Zn464 O467 2.080 . S
Zn464 O470 2.114 . S
Zn464 O473 2.120 . S
Zn464 O475 2.120 1_455 S
Zn464 O476 2.114 . S
Zn464 O479 2.080 . S
C465 O470 1.166 . S
C465 O471 1.182 . S
C466 O472 1.167 . S
C466 O473 1.299 . S
O467 Zn464 2.080 . S
O467 C481 1.305 . S
O468 Zn462 1.920 1_655 S
O468 C481 1.234 1_655 S
C469 O474 1.167 . S
C469 O475 1.299 . S
O470 Zn464 2.114 . S
O470 C465 1.166 . S
O471 Zn463 1.905 . S
O471 C465 1.182 . S
O472 Zn463 1.898 . S
O472 C466 1.167 . S
O473 Zn464 2.120 . S
O473 C466 1.299 . S
O474 Zn462 1.898 1_655 S
O474 C469 1.167 . S
O475 Zn464 2.120 1_655 S
O475 C469 1.299 . S
O476 Zn464 2.114 . S
O476 C478 1.166 1_565 S
O477 Zn462 1.905 1_545 S
O477 C478 1.182 . S
C478 O476 1.166 1_545 S
C478 O477 1.182 . S
O479 Zn464 2.080 . S
O479 C482 1.305 . S
O480 Zn463 1.920 . S
O480 C482 1.234 . S
C481 O467 1.305 . S
C481 O468 1.234 1_455 S
C482 O479 1.305 . S
C482 O480 1.234 . S
Zn483 O489 1.920 . S
Zn483 O495 1.898 . S
Zn483 O498 1.905 . S
Zn484 O492 1.905 1_455 S
Zn484 O493 1.898 . S
Zn484 O501 1.920 . S
Zn485 O488 2.080 . S
Zn485 O491 2.114 . S
Zn485 O494 2.120 . S
Zn485 O496 2.120 . S
Zn485 O497 2.114 . S
Zn485 O500 2.080 . S
C486 O491 1.166 1_655 S
C486 O492 1.182 . S
C487 O493 1.167 . S
C487 O494 1.299 . S
O488 Zn485 2.080 . S
O488 C502 1.305 . S
O489 Zn483 1.920 . S
O489 C502 1.234 . S
C490 O495 1.167 . S
C490 O496 1.299 . S
O491 Zn485 2.114 . S
O491 C486 1.166 1_455 S
O492 Zn484 1.905 1_655 S
O492 C486 1.182 . S
O493 Zn484 1.898 . S
O493 C487 1.167 . S
O494 Zn485 2.120 . S
O494 C487 1.299 . S
O495 Zn483 1.898 . S
O495 C490 1.167 . S
O496 Zn485 2.120 . S
O496 C490 1.299 . S
O497 Zn485 2.114 . S
O497 C499 1.166 . S
O498 Zn483 1.905 . S
O498 C499 1.182 . S
C499 O497 1.166 . S
C499 O498 1.182 . S
O500 Zn485 2.080 . S
O500 C503 1.305 . S
O501 Zn484 1.920 . S
O501 C503 1.234 . S
C502 O488 1.305 . S
C502 O489 1.234 . S
C503 O500 1.305 . S
C503 O501 1.234 . S
Zn504 O510 1.920 1_565 S
Zn504 O516 1.898 1_655 S
Zn504 O519 1.905 . S
Zn505 O513 1.905 . S
Zn505 O514 1.898 . S
Zn505 O522 1.920 . S
Zn506 O509 2.080 . S
Zn506 O512 2.114 . S
Zn506 O515 2.120 . S
Zn506 O517 2.120 . S
Zn506 O518 2.114 . S
Zn506 O521 2.080 . S
C507 O512 1.166 . S
C507 O513 1.182 . S
C508 O514 1.167 . S
C508 O515 1.299 . S
O509 Zn506 2.080 . S
O509 C523 1.305 . S
O510 Zn504 1.920 1_545 S
O510 C523 1.234 1_545 S
C511 O516 1.167 . S
C511 O517 1.299 1_455 S
O512 Zn506 2.114 . S
O512 C507 1.166 . S
O513 Zn505 1.905 . S
O513 C507 1.182 . S
O514 Zn505 1.898 . S
O514 C508 1.167 . S
O515 Zn506 2.120 . S
O515 C508 1.299 . S
O516 Zn504 1.898 1_455 S
O516 C511 1.167 . S
O517 Zn506 2.120 . S
O517 C511 1.299 1_655 S
O518 Zn506 2.114 . S
O518 C520 1.166 . S
O519 Zn504 1.905 . S
O519 C520 1.182 . S
C520 O518 1.166 . S
C520 O519 1.182 . S
O521 Zn506 2.080 . S
O521 C524 1.305 . S
O522 Zn505 1.920 . S
O522 C524 1.234 . S
C523 O509 1.305 . S
C523 O510 1.234 1_565 S
C524 O521 1.305 . S
C524 O522 1.234 . S
Zn525 O531 1.920 1_545 S
Zn525 O537 1.898 . S
Zn525 O540 1.905 . S
Zn526 O534 1.905 . S
Zn526 O535 1.898 . S
Zn526 O543 1.920 . S
Zn527 O530 2.080 1_545 S
Zn527 O533 2.114 . S
Zn527 O536 2.120 . S
Zn527 O538 2.120 . S
Zn527 O539 2.114 . S
Zn527 O542 2.080 . S
C528 O533 1.166 . S
C528 O534 1.182 . S
C529 O535 1.167 . S
C529 O536 1.299 . S
O530 Zn527 2.080 1_565 S
O530 C544 1.305 . S
O531 Zn525 1.920 1_565 S
O531 C544 1.234 . S
C532 O537 1.167 . S
C532 O538 1.299 . S
O533 Zn527 2.114 . S
O533 C528 1.166 . S
O534 Zn526 1.905 . S
O534 C528 1.182 . S
O535 Zn526 1.898 . S
O535 C529 1.167 . S
O536 Zn527 2.120 . S
O536 C529 1.299 . S
O537 Zn525 1.898 . S
O537 C532 1.167 . S
O538 Zn527 2.120 . S
O538 C532 1.299 . S
O539 Zn527 2.114 . S
O539 C541 1.166 . S
O540 Zn525 1.905 . S
O540 C541 1.182 . S
C541 O539 1.166 . S
C541 O540 1.182 . S
O542 Zn527 2.080 . S
O542 C545 1.305 . S
O543 Zn526 1.920 . S
O543 C545 1.234 . S
C544 O530 1.305 . S
C544 O531 1.234 . S
C545 O542 1.305 . S
C545 O543 1.234 . S
Zn546 O552 1.920 . S
Zn546 O558 1.898 1_445 S
Zn546 O561 1.905 1_455 S
Zn547 O555 1.905 . S
Zn547 O556 1.898 . S
Zn547 O564 1.920 . S
Zn548 O551 2.080 1_655 S
Zn548 O554 2.114 . S
Zn548 O557 2.120 . S
Zn548 O559 2.120 . S
Zn548 O560 2.114 . S
Zn548 O563 2.080 . S
C549 O554 1.166 . S
C549 O555 1.182 . S
C550 O556 1.167 . S
C550 O557 1.299 . S
O551 Zn548 2.080 1_455 S
O551 C565 1.305 . S
O552 Zn546 1.920 . S
O552 C565 1.234 . S
C553 O558 1.167 . S
C553 O559 1.299 1_565 S
O554 Zn548 2.114 . S
O554 C549 1.166 . S
O555 Zn547 1.905 . S
O555 C549 1.182 . S
O556 Zn547 1.898 . S
O556 C550 1.167 . S
O557 Zn548 2.120 . S
O557 C550 1.299 . S
O558 Zn546 1.898 1_665 S
O558 C553 1.167 . S
O559 Zn548 2.120 . S
O559 C553 1.299 1_545 S
O560 Zn548 2.114 . S
O560 C562 1.166 . S
O561 Zn546 1.905 1_655 S
O561 C562 1.182 . S
C562 O560 1.166 . S
C562 O561 1.182 . S
O563 Zn548 2.080 . S
O563 C566 1.305 . S
O564 Zn547 1.920 . S
O564 C566 1.234 . S
C565 O551 1.305 . S
C565 O552 1.234 . S
C566 O563 1.305 . S
C566 O564 1.234 . S
Zn567 O573 1.920 1_545 S
Zn567 O579 1.899 1_545 S
Zn567 O582 1.905 . S
Zn568 O576 1.905 . S
Zn568 O577 1.898 . S
Zn568 O585 1.920 . S
Zn569 O572 2.080 . S
Zn569 O575 2.114 . S
Zn569 O578 2.120 . S
Zn569 O580 2.120 1_545 S
Zn569 O581 2.114 . S
Zn569 O584 2.080 . S
C570 O575 1.166 . S
C570 O576 1.182 . S
C571 O577 1.167 . S
C571 O578 1.299 . S
O572 Zn569 2.080 . S
O572 C586 1.305 . S
O573 Zn567 1.920 1_565 S
O573 C586 1.234 1_565 S
C574 O579 1.167 . S
C574 O580 1.299 . S
O575 Zn569 2.114 . S
O575 C570 1.166 . S
O576 Zn568 1.905 . S
O576 C570 1.182 . S
O577 Zn568 1.898 . S
O577 C571 1.167 . S
O578 Zn569 2.120 . S
O578 C571 1.299 . S
O579 Zn567 1.899 1_565 S
O579 C574 1.167 . S
O580 Zn569 2.120 1_565 S
O580 C574 1.299 . S
O581 Zn569 2.114 . S
O581 C583 1.166 . S
O582 Zn567 1.905 . S
O582 C583 1.182 . S
C583 O581 1.166 . S
C583 O582 1.182 . S
O584 Zn569 2.080 . S
O584 C587 1.305 . S
O585 Zn568 1.920 . S
O585 C587 1.234 . S
C586 O572 1.305 . S
C586 O573 1.234 1_545 S
C587 O584 1.305 . S
C587 O585 1.234 . S
Zn588 O594 1.920 . S
Zn588 O600 1.898 . S
Zn588 O603 1.905 1_445 S
Zn589 O597 1.905 . S
Zn589 O598 1.898 . S
Zn589 O606 1.920 . S
Zn590 O593 2.080 . S
Zn590 O596 2.114 . S
Zn590 O599 2.120 . S
Zn590 O601 2.120 1_655 S
Zn590 O602 2.114 . S
Zn590 O605 2.080 . S
C591 O596 1.166 . S
C591 O597 1.182 . S
C592 O598 1.167 . S
C592 O599 1.299 . S
O593 Zn590 2.080 . S
O593 C607 1.309 . S
O594 Zn588 1.920 . S
O594 C607 1.227 1_455 S
C595 O600 1.167 . S
C595 O601 1.299 . S
O596 Zn590 2.114 . S
O596 C591 1.166 . S
O597 Zn589 1.905 . S
O597 C591 1.182 . S
O598 Zn589 1.898 . S
O598 C592 1.167 . S
O599 Zn590 2.120 . S
O599 C592 1.299 . S
O600 Zn588 1.898 . S
O600 C595 1.167 . S
O601 Zn590 2.120 1_455 S
O601 C595 1.299 . S
O602 Zn590 2.114 . S
O602 C604 1.166 1_545 S
O603 Zn588 1.905 1_665 S
O603 C604 1.182 . S
C604 O602 1.166 1_565 S
C604 O603 1.182 . S
O605 Zn590 2.080 . S
O605 C608 1.305 . S
O606 Zn589 1.920 . S
O606 C608 1.234 . S
C607 O593 1.309 . S
C607 O594 1.227 1_655 S
C608 O605 1.305 . S
C608 O606 1.234 . S
Zn609 O615 1.920 . S
Zn609 O621 1.898 1_565 S
Zn609 O624 1.905 1_655 S
Zn610 O618 1.905 . S
Zn610 O619 1.898 . S
Zn610 O627 1.920 . S
Zn611 O614 2.080 . S
Zn611 O617 2.114 . S
Zn611 O620 2.120 . S
Zn611 O622 2.120 . S
Zn611 O623 2.114 . S
Zn611 O626 2.080 . S
C612 O617 1.166 . S
C612 O618 1.182 . S
C613 O619 1.167 . S
C613 O620 1.299 . S
O614 Zn611 2.080 . S
O614 C628 1.305 . S
O615 Zn609 1.920 . S
O615 C628 1.234 . S
C616 O621 1.167 1_565 S
C616 O622 1.299 . S
O617 Zn611 2.114 . S
O617 C612 1.166 . S
O618 Zn610 1.905 . S
O618 C612 1.182 . S
O619 Zn610 1.898 . S
O619 C613 1.167 . S
O620 Zn611 2.120 . S
O620 C613 1.299 . S
O621 Zn609 1.898 1_545 S
O621 C616 1.167 1_545 S
O622 Zn611 2.120 . S
O622 C616 1.299 . S
O623 Zn611 2.114 . S
O623 C625 1.166 1_655 S
O624 Zn609 1.905 1_455 S
O624 C625 1.182 . S
C625 O623 1.166 1_455 S
C625 O624 1.182 . S
O626 Zn611 2.080 . S
O626 C629 1.305 . S
O627 Zn610 1.920 . S
O627 C629 1.234 . S
C628 O614 1.305 . S
C628 O615 1.234 . S
C629 O626 1.305 . S
C629 O627 1.234 . S
Zn630 O636 1.920 . S
Zn630 O642 1.898 . S
Zn630 O645 1.905 . S
Zn631 O639 1.905 1_455 S
Zn631 O640 1.898 1_565 S
Zn631 O648 1.920 . S
Zn632 O635 2.080 . S
Zn632 O638 2.114 . S
Zn632 O641 2.120 1_655 S
Zn632 O643 2.120 . S
Zn632 O644 2.114 . S
Zn632 O647 2.080 . S
C633 O638 1.166 . S
C633 O639 1.182 . S
C634 O640 1.167 1_565 S
C634 O641 1.299 . S
O635 Zn632 2.080 . S
O635 C649 1.305 . S
O636 Zn630 1.920 . S
O636 C649 1.234 . S
C637 O642 1.167 . S
C637 O643 1.299 . S
O638 Zn632 2.114 . S
O638 C633 1.166 . S
O639 Zn631 1.905 1_655 S
O639 C633 1.182 . S
O640 Zn631 1.898 1_545 S
O640 C634 1.167 1_545 S
O641 Zn632 2.120 1_455 S
O641 C634 1.299 . S
O642 Zn630 1.898 . S
O642 C637 1.167 . S
O643 Zn632 2.120 . S
O643 C637 1.299 . S
O644 Zn632 2.114 . S
O644 C646 1.166 . S
O645 Zn630 1.905 . S
O645 C646 1.182 . S
C646 O644 1.166 . S
C646 O645 1.182 . S
O647 Zn632 2.080 . S
O647 C650 1.309 . S
O648 Zn631 1.920 . S
O648 C650 1.233 1_455 S
C649 O635 1.305 . S
C649 O636 1.234 . S
C650 O647 1.309 . S
C650 O648 1.233 1_655 S
Zn651 O657 1.920 . S
Zn651 O663 1.898 . S
Zn651 O666 1.905 . S
Zn652 O660 1.905 1_545 S
Zn652 O661 1.898 . S
Zn652 O669 1.920 . S
Zn653 O656 2.080 . S
Zn653 O659 2.114 . S
Zn653 O662 2.120 . S
Zn653 O664 2.120 . S
Zn653 O665 2.114 . S
Zn653 O668 2.080 . S
C654 O659 1.166 1_565 S
C654 O660 1.182 . S
C655 O661 1.167 . S
C655 O662 1.299 . S
O656 Zn653 2.080 . S
O656 C670 1.305 . S
O657 Zn651 1.920 . S
O657 C670 1.234 . S
C658 O663 1.167 . S
C658 O664 1.299 . S
O659 Zn653 2.114 . S
O659 C654 1.166 1_545 S
O660 Zn652 1.905 1_565 S
O660 C654 1.182 . S
O661 Zn652 1.898 . S
O661 C655 1.167 . S
O662 Zn653 2.120 . S
O662 C655 1.299 . S
O663 Zn651 1.898 . S
O663 C658 1.167 . S
O664 Zn653 2.120 . S
O664 C658 1.299 . S
O665 Zn653 2.114 . S
O665 C667 1.166 . S
O666 Zn651 1.905 . S
O666 C667 1.182 . S
C667 O665 1.166 . S
C667 O666 1.182 . S
O668 Zn653 2.080 . S
O668 C671 1.305 . S
O669 Zn652 1.920 . S
O669 C671 1.234 . S
C670 O656 1.305 . S
C670 O657 1.234 . S
C671 O668 1.305 . S
C671 O669 1.234 . S
Zn672 O678 1.920 . S
Zn672 O684 1.898 . S
Zn672 O687 1.905 . S
Zn673 O681 1.905 1_655 S
Zn673 O682 1.898 1_545 S
Zn673 O690 1.920 1_545 S
Zn674 O677 2.080 . S
Zn674 O680 2.114 . S
Zn674 O683 2.120 1_545 S
Zn674 O685 2.120 . S
Zn674 O686 2.114 . S
Zn674 O689 2.080 . S
C675 O680 1.166 1_455 S
C675 O681 1.182 . S
C676 O682 1.167 . S
C676 O683 1.299 . S
O677 Zn674 2.080 . S
O677 C691 1.305 . S
O678 Zn672 1.920 . S
O678 C691 1.234 . S
C679 O684 1.167 . S
C679 O685 1.299 . S
O680 Zn674 2.114 . S
O680 C675 1.166 1_655 S
O681 Zn673 1.905 1_455 S
O681 C675 1.182 . S
O682 Zn673 1.898 1_565 S
O682 C676 1.167 . S
O683 Zn674 2.120 1_565 S
O683 C676 1.299 . S
O684 Zn672 1.898 . S
O684 C679 1.167 . S
O685 Zn674 2.120 . S
O685 C679 1.299 . S
O686 Zn674 2.114 . S
O686 C688 1.166 . S
O687 Zn672 1.905 . S
O687 C688 1.182 . S
C688 O686 1.166 . S
C688 O687 1.182 . S
O689 Zn674 2.080 . S
O689 C692 1.305 . S
O690 Zn673 1.920 1_565 S
O690 C692 1.234 1_565 S
C691 O677 1.305 . S
C691 O678 1.234 . S
C692 O689 1.305 . S
C692 O690 1.234 1_545 S
Zn693 O699 1.920 . S
Zn693 O705 1.898 1_545 S
Zn693 O708 1.905 . S
Zn694 O702 1.905 . S
Zn694 O703 1.898 . S
Zn694 O711 1.920 . S
Zn695 O698 2.080 . S
Zn695 O701 2.114 . S
Zn695 O704 2.120 . S
Zn695 O706 2.120 . S
Zn695 O707 2.114 . S
Zn695 O710 2.080 . S
C696 O701 1.166 . S
C696 O702 1.182 . S
C697 O703 1.167 . S
C697 O704 1.299 . S
O698 Zn695 2.080 . S
O698 C712 1.305 . S
O699 Zn693 1.920 . S
O699 C712 1.234 . S
C700 O705 1.167 . S
C700 O706 1.299 1_565 S
O701 Zn695 2.114 . S
O701 C696 1.166 . S
O702 Zn694 1.905 . S
O702 C696 1.182 . S
O703 Zn694 1.898 . S
O703 C697 1.167 . S
O704 Zn695 2.120 . S
O704 C697 1.299 . S
O705 Zn693 1.898 1_565 S
O705 C700 1.167 . S
O706 Zn695 2.120 . S
O706 C700 1.299 1_545 S
O707 Zn695 2.114 . S
O707 C709 1.166 . S
O708 Zn693 1.905 . S
O708 C709 1.182 . S
C709 O707 1.166 . S
C709 O708 1.182 . S
O710 Zn695 2.080 . S
O710 C713 1.305 . S
O711 Zn694 1.920 . S
O711 C713 1.234 . S
C712 O698 1.305 . S
C712 O699 1.234 . S
C713 O710 1.305 . S
C713 O711 1.234 . S
Zn714 O720 1.920 1_545 S
Zn714 O726 1.898 1_655 S
Zn714 O729 1.905 . S
Zn715 O723 1.905 . S
Zn715 O724 1.898 . S
Zn715 O732 1.920 . S
Zn716 O719 2.080 1_545 S
Zn716 O722 2.114 . S
Zn716 O725 2.120 . S
Zn716 O727 2.120 . S
Zn716 O728 2.114 . S
Zn716 O731 2.080 . S
C717 O722 1.166 . S
C717 O723 1.182 . S
C718 O724 1.167 . S
C718 O725 1.299 . S
O719 Zn716 2.080 1_565 S
O719 C733 1.305 . S
O720 Zn714 1.920 1_565 S
O720 C733 1.234 . S
C721 O726 1.167 . S
C721 O727 1.299 1_455 S
O722 Zn716 2.114 . S
O722 C717 1.166 . S
O723 Zn715 1.905 . S
O723 C717 1.182 . S
O724 Zn715 1.898 . S
O724 C718 1.167 . S
O725 Zn716 2.120 . S
O725 C718 1.299 . S
O726 Zn714 1.898 1_455 S
O726 C721 1.167 . S
O727 Zn716 2.120 . S
O727 C721 1.299 1_655 S
O728 Zn716 2.114 . S
O728 C730 1.166 . S
O729 Zn714 1.905 . S
O729 C730 1.182 . S
C730 O728 1.166 . S
C730 O729 1.182 . S
O731 Zn716 2.080 . S
O731 C734 1.305 . S
O732 Zn715 1.920 . S
O732 C734 1.234 . S
C733 O719 1.305 . S
C733 O720 1.234 . S
C734 O731 1.305 . S
C734 O732 1.234 . S
Zn735 O741 1.920 1_565 S
Zn735 O747 1.898 1_455 S
Zn735 O750 1.905 1_455 S
Zn736 O744 1.905 . S
Zn736 O745 1.898 . S
Zn736 O753 1.920 . S
Zn737 O740 2.080 1_655 S
Zn737 O743 2.114 . S
Zn737 O746 2.120 . S
Zn737 O748 2.120 . S
Zn737 O749 2.114 . S
Zn737 O752 2.080 . S
C738 O743 1.166 . S
C738 O744 1.182 . S
C739 O745 1.167 . S
C739 O746 1.299 . S
O740 Zn737 2.080 1_455 S
O740 C754 1.305 . S
O741 Zn735 1.920 1_545 S
O741 C754 1.234 1_545 S
C742 O747 1.167 . S
C742 O748 1.299 . S
O743 Zn737 2.114 . S
O743 C738 1.166 . S
O744 Zn736 1.905 . S
O744 C738 1.182 . S
O745 Zn736 1.898 . S
O745 C739 1.167 . S
O746 Zn737 2.120 . S
O746 C739 1.299 . S
O747 Zn735 1.898 1_655 S
O747 C742 1.167 . S
O748 Zn737 2.120 . S
O748 C742 1.299 . S
O749 Zn737 2.114 . S
O749 C751 1.166 . S
O750 Zn735 1.905 1_655 S
O750 C751 1.182 . S
C751 O749 1.166 . S
C751 O750 1.182 . S
O752 Zn737 2.080 . S
O752 C755 1.305 . S
O753 Zn736 1.920 . S
O753 C755 1.234 . S
C754 O740 1.305 . S
C754 O741 1.234 1_565 S
C755 O752 1.305 . S
C755 O753 1.234 . S
C586 C19 1.468 . S
C607 C41 1.467 1_655 S
C61 C628 1.469 . S
C82 C272 1.468 . S
C103 C293 1.469 . S
C314 C124 1.467 1_565 S
C145 C460 1.462 1_545 S
C481 C166 1.468 . S
C188 C503 1.468 . S
C650 C208 1.462 1_655 S
C229 C671 1.468 . S
C692 C251 1.469 . S
C524 C334 1.469 . S
C355 C545 1.468 1_565 S
C566 C376 1.468 1_655 S
C398 C713 1.468 . S
C419 C734 1.468 1_565 S
C755 C439 1.468 1_655 S
C3 C129 1.616 1_544 S
C150 C37 1.621 1_456 S
C45 C184 1.619 1_554 S
C192 C66 1.616 1_655 S
C87 C213 1.620 . S
C247 C108 1.621 1_545 S
C394 C268 1.620 . S
C289 C415 1.620 . S
C423 C310 1.620 . S
C318 C444 1.620 . S
C465 C339 1.620 . S
C360 C499 1.620 . S
C520 C646 1.620 . S
C667 C541 1.620 . S
C688 C562 1.620 . S
C709 C570 1.620 . S
C591 C730 1.620 . S
C612 C751 1.620 . S
C16 C49 1.421 . S
C24 C7 1.421 . S
C25 C58 1.421 . S
C79 C91 1.421 . S
C112 C100 1.421 . S
C70 C121 1.421 . S
C172 C142 1.420 . S
C163 C133 1.421 . S
C171 C154 1.421 . S
C217 C205 1.420 . S
C226 C235 1.421 . S
C234 C196 1.421 . S
C298 C255 1.420 . S
C256 C276 1.421 . S
C277 C297 1.420 . S
C343 C331 1.421 . S
C352 C364 1.421 . S
C322 C373 1.420 . S
C381 C427 1.421 . S
C382 C402 1.421 . S
C436 C403 1.420 . S
C469 C457 1.421 . S
C487 C478 1.421 . S
C448 C486 1.421 . S
C550 C507 1.421 . S
C528 C508 1.420 . S
C529 C549 1.420 . S
C583 C595 1.420 . S
C604 C616 1.420 . S
C574 C625 1.421 . S
C633 C676 1.421 . S
C654 C634 1.421 . S
C655 C675 1.421 . S
C696 C718 1.421 . S
C739 C717 1.420 . S
C697 C738 1.421 . S
C46 C20 0.397 . S
C40 C4 0.397 . S
C28 C62 0.397 . S
C88 C83 0.397 . S
C104 C109 0.397 . S
C125 C67 0.397 . S
C175 C146 0.397 . S
C167 C130 0.396 . S
C151 C187 0.397 . S
C214 C209 0.397 . S
C238 C230 0.397 . S
C193 C250 0.396 . S
C271 C301 0.397 . S
C292 C259 0.397 . S
C313 C280 0.397 . S
C340 C335 0.397 . S
C356 C361 0.396 . S
C377 C319 0.397 . S
C424 C397 0.397 . S
C385 C418 0.397 . S
C440 C406 0.397 . S
C466 C461 0.397 . S
C482 C490 0.397 . S
C502 C445 0.397 . S
C523 C553 0.397 . S
C511 C544 0.397 . S
C532 C565 0.396 . S
C592 C587 0.397 . S
C608 C613 0.397 . S
C629 C571 0.397 . S
C679 C649 0.397 . S
C637 C670 0.397 . S
C691 C658 0.397 . S
C721 C712 0.397 . S
C733 C742 0.397 . S
C754 C700 0.397 . S
