# Generated by pormake.
# Topology bcs, (6)-cn, num edge types: 1
# Building blocks:
#     Node 0, Type 0, BuildingBlock: BETDAH_clean_sbu_0, # of connection points: 6
#     Node 1, Type 0, BuildingBlock: BETDAH_clean_sbu_0, # of connection points: 6
#     Node 2, Type 0, BuildingBlock: BETDAH_clean_sbu_0, # of connection points: 6
#     Node 3, Type 0, BuildingBlock: BETDAH_clean_sbu_0, # of connection points: 6
#     Node 4, Type 0, BuildingBlock: BETDAH_clean_sbu_0, # of connection points: 6
#     Node 5, Type 0, BuildingBlock: BETDAH_clean_sbu_0, # of connection points: 6
#     Node 6, Type 0, BuildingBlock: BETDAH_clean_sbu_0, # of connection points: 6
#     Node 7, Type 0, BuildingBlock: BETDAH_clean_sbu_0, # of connection points: 6
#     Node 8, Type 0, BuildingBlock: BETDAH_clean_sbu_0, # of connection points: 6
#     Node 9, Type 0, BuildingBlock: BETDAH_clean_sbu_0, # of connection points: 6
#     Node 10, Type 0, BuildingBlock: BETDAH_clean_sbu_0, # of connection points: 6
#     Node 11, Type 0, BuildingBlock: BETDAH_clean_sbu_0, # of connection points: 6
#     Node 12, Type 0, BuildingBlock: BETDAH_clean_sbu_0, # of connection points: 6
#     Node 13, Type 0, BuildingBlock: BETDAH_clean_sbu_0, # of connection points: 6
#     Node 14, Type 0, BuildingBlock: BETDAH_clean_sbu_0, # of connection points: 6
#     Node 15, Type 0, BuildingBlock: BETDAH_clean_sbu_0, # of connection points: 6
#     Edge 16, Type (0, 0), BuildingBlock: ZUJKAS_clean_linker_0, # of connection points: 2
#     Edge 17, Type (0, 0), BuildingBlock: ZUJKAS_clean_linker_0, # of connection points: 2
#     Edge 18, Type (0, 0), BuildingBlock: ZUJKAS_clean_linker_0, # of connection points: 2
#     Edge 19, Type (0, 0), BuildingBlock: ZUJKAS_clean_linker_0, # of connection points: 2
#     Edge 20, Type (0, 0), BuildingBlock: ZUJKAS_clean_linker_0, # of connection points: 2
#     Edge 21, Type (0, 0), BuildingBlock: ZUJKAS_clean_linker_0, # of connection points: 2
#     Edge 22, Type (0, 0), BuildingBlock: ZUJKAS_clean_linker_0, # of connection points: 2
#     Edge 23, Type (0, 0), BuildingBlock: ZUJKAS_clean_linker_0, # of connection points: 2
#     Edge 24, Type (0, 0), BuildingBlock: ZUJKAS_clean_linker_0, # of connection points: 2
#     Edge 25, Type (0, 0), BuildingBlock: ZUJKAS_clean_linker_0, # of connection points: 2
#     Edge 26, Type (0, 0), BuildingBlock: ZUJKAS_clean_linker_0, # of connection points: 2
#     Edge 27, Type (0, 0), BuildingBlock: ZUJKAS_clean_linker_0, # of connection points: 2
#     Edge 28, Type (0, 0), BuildingBlock: ZUJKAS_clean_linker_0, # of connection points: 2
#     Edge 29, Type (0, 0), BuildingBlock: ZUJKAS_clean_linker_0, # of connection points: 2
#     Edge 30, Type (0, 0), BuildingBlock: ZUJKAS_clean_linker_0, # of connection points: 2
#     Edge 31, Type (0, 0), BuildingBlock: ZUJKAS_clean_linker_0, # of connection points: 2
#     Edge 32, Type (0, 0), BuildingBlock: ZUJKAS_clean_linker_0, # of connection points: 2
#     Edge 33, Type (0, 0), BuildingBlock: ZUJKAS_clean_linker_0, # of connection points: 2
#     Edge 34, Type (0, 0), BuildingBlock: ZUJKAS_clean_linker_0, # of connection points: 2
#     Edge 35, Type (0, 0), BuildingBlock: ZUJKAS_clean_linker_0, # of connection points: 2
#     Edge 36, Type (0, 0), BuildingBlock: ZUJKAS_clean_linker_0, # of connection points: 2
#     Edge 37, Type (0, 0), BuildingBlock: ZUJKAS_clean_linker_0, # of connection points: 2
#     Edge 38, Type (0, 0), BuildingBlock: ZUJKAS_clean_linker_0, # of connection points: 2
#     Edge 39, Type (0, 0), BuildingBlock: ZUJKAS_clean_linker_0, # of connection points: 2
#     Edge 40, Type (0, 0), BuildingBlock: ZUJKAS_clean_linker_0, # of connection points: 2
#     Edge 41, Type (0, 0), BuildingBlock: ZUJKAS_clean_linker_0, # of connection points: 2
#     Edge 42, Type (0, 0), BuildingBlock: ZUJKAS_clean_linker_0, # of connection points: 2
#     Edge 43, Type (0, 0), BuildingBlock: ZUJKAS_clean_linker_0, # of connection points: 2
#     Edge 44, Type (0, 0), BuildingBlock: ZUJKAS_clean_linker_0, # of connection points: 2
#     Edge 45, Type (0, 0), BuildingBlock: ZUJKAS_clean_linker_0, # of connection points: 2
#     Edge 46, Type (0, 0), BuildingBlock: ZUJKAS_clean_linker_0, # of connection points: 2
#     Edge 47, Type (0, 0), BuildingBlock: ZUJKAS_clean_linker_0, # of connection points: 2
#     Edge 48, Type (0, 0), BuildingBlock: ZUJKAS_clean_linker_0, # of connection points: 2
#     Edge 49, Type (0, 0), BuildingBlock: ZUJKAS_clean_linker_0, # of connection points: 2
#     Edge 50, Type (0, 0), BuildingBlock: ZUJKAS_clean_linker_0, # of connection points: 2
#     Edge 51, Type (0, 0), BuildingBlock: ZUJKAS_clean_linker_0, # of connection points: 2
#     Edge 52, Type (0, 0), BuildingBlock: ZUJKAS_clean_linker_0, # of connection points: 2
#     Edge 53, Type (0, 0), BuildingBlock: ZUJKAS_clean_linker_0, # of connection points: 2
#     Edge 54, Type (0, 0), BuildingBlock: ZUJKAS_clean_linker_0, # of connection points: 2
#     Edge 55, Type (0, 0), BuildingBlock: ZUJKAS_clean_linker_0, # of connection points: 2
#     Edge 56, Type (0, 0), BuildingBlock: ZUJKAS_clean_linker_0, # of connection points: 2
#     Edge 57, Type (0, 0), BuildingBlock: ZUJKAS_clean_linker_0, # of connection points: 2
#     Edge 58, Type (0, 0), BuildingBlock: ZUJKAS_clean_linker_0, # of connection points: 2
#     Edge 59, Type (0, 0), BuildingBlock: ZUJKAS_clean_linker_0, # of connection points: 2
#     Edge 60, Type (0, 0), BuildingBlock: ZUJKAS_clean_linker_0, # of connection points: 2
#     Edge 61, Type (0, 0), BuildingBlock: ZUJKAS_clean_linker_0, # of connection points: 2
#     Edge 62, Type (0, 0), BuildingBlock: ZUJKAS_clean_linker_0, # of connection points: 2
#     Edge 63, Type (0, 0), BuildingBlock: ZUJKAS_clean_linker_0, # of connection points: 2
# Relax obj value: 0.188
# Max RMSD: 0.244
# Mean RMSD: 0.196
data_MOF--net-bcs--node1-BETDAH_clean_sbu_0--edge1-ZUJKAS_clean_linker_0
_symmetry_space_group_name_H-M    P1
_symmetry_Int_Tables_number       1
_symmetry_cell_setting            triclinic
loop_
_symmetry_equiv_pos_as_xyz
'x, y, z'
_cell_length_a     52.991752
_cell_length_b     52.650438
_cell_length_c     49.475185
_cell_angle_alpha  79.107649
_cell_angle_beta   107.30149
_cell_angle_gamma 115.88697
loop_
_atom_site_label
_atom_site_type_symbol
_atom_site_fract_x
_atom_site_fract_y
_atom_site_fract_z
_atom_type_partial_charge
Ho0 Ho 0.03946 0.9853 0.99598 0.0
Ho1 Ho 1.0285 0.02427 0.0278 0.0
C2 C 0.08637 0.01486 0.05266 0.0
C3 C 0.057 0.96136 0.96792 0.0
C4 C 0.07947 0.95582 0.96031 0.0
C5 C 0.09859 0.97589 0.9444 0.0
C6 C 0.116 0.9684 0.93345 0.0
C7 C 0.11451 0.94053 0.93772 0.0
C8 C 0.09599 0.92083 0.95437 0.0
C9 C 0.07881 0.92834 0.96543 0.0
C10 C 1.00213 0.95778 0.03016 0.0
C11 C 0.9813 0.99434 0.97153 0.0
C12 C 1.01151 0.04918 0.05538 0.0
C13 C 0.98927 0.05451 0.06367 0.0
C14 C 0.97221 0.03521 0.08176 0.0
C15 C 0.95514 0.04276 0.09312 0.0
C16 C 0.95476 0.06995 0.087 0.0
C17 C 0.97136 0.08888 0.06831 0.0
C18 C 0.98827 0.08129 0.05691 0.0
C19 C 0.06601 0.05136 0.99367 0.0
O20 O 0.08145 1.00432 0.02839 0.0
O21 O 0.06709 0.02066 0.05916 0.0
O22 O 0.05006 0.95072 0.99214 0.0
O23 O 0.05437 0.9854 0.95942 0.0
O24 O 1.00046 0.94857 1.0069 0.0
O25 O 1.02485 0.98026 0.03536 0.0
O26 O 0.98623 1.00464 0.99594 0.0
O27 O 1.00065 0.98877 0.96483 0.0
O28 O 1.0168 0.05852 0.03031 0.0
O29 O 1.01546 0.02591 0.06494 0.0
O30 O 0.06801 0.0606 0.01705 0.0
O31 O 0.04303 0.02918 0.9885 0.0
H32 H 0.09945 0.99715 0.93959 0.0
H33 H 0.12977 0.98421 0.92064 0.0
H34 H 0.09444 0.89932 0.95863 0.0
H35 H 0.06412 0.9122 0.97722 0.0
H36 H 0.97261 0.01448 0.0878 0.0
H37 H 0.94246 0.02727 0.10698 0.0
H38 H 0.97233 0.11015 0.06326 0.0
H39 H 1.00158 0.09696 0.04361 0.0
Ho40 Ho 0.30702 0.7666 0.26865 0.0
Ho41 Ho 0.25592 0.78163 0.23733 0.0
C42 C 0.24207 0.72747 0.27835 0.0
C43 C 0.34384 0.75362 0.30941 0.0
C44 C 0.33945 0.73291 0.33388 0.0
C45 C 0.31696 0.72721 0.34672 0.0
C46 C 0.30842 0.70322 0.36524 0.0
C47 C 0.32253 0.68493 0.37143 0.0
C48 C 0.34668 0.69208 0.36058 0.0
C49 C 0.35498 0.71586 0.3418 0.0
C50 C 0.27918 0.74554 0.21743 0.0
C51 C 0.31984 0.81857 0.22374 0.0
C52 C 0.22053 0.80023 0.20156 0.0
C53 C 0.22582 0.83007 0.19427 0.0
C54 C 0.20638 0.83827 0.17261 0.0
C55 C 0.21137 0.8669 0.16715 0.0
C56 C 0.23579 0.88754 0.18342 0.0
C57 C 0.25552 0.87918 0.20467 0.0
C58 C 0.25063 0.85068 0.20996 0.0
C59 C 0.28524 0.80361 0.2881 0.0
O60 O 0.27037 0.73765 0.28948 0.0
O61 O 0.23092 0.73826 0.25394 0.0
O62 O 0.33348 0.7427 0.28474 0.0
O63 O 0.33792 0.77531 0.30925 0.0
O64 O 0.30691 0.75355 0.22774 0.0
O65 O 0.26755 0.74709 0.23549 0.0
O66 O 0.29145 0.81068 0.21546 0.0
O67 O 0.33208 0.8066 0.24652 0.0
O68 O 0.21871 0.7917 0.22777 0.0
O69 O 0.23715 0.79197 0.19378 0.0
O70 O 0.25756 0.79529 0.27878 0.0
O71 O 0.29573 0.80152 0.26947 0.0
H72 H 0.30481 0.74026 0.34116 0.0
H73 H 0.28981 0.69809 0.37345 0.0
H74 H 0.35774 0.6781 0.36485 0.0
H75 H 0.37234 0.7199 0.3321 0.0
H76 H 0.18718 0.82258 0.16035 0.0
H77 H 0.19563 0.87279 0.15086 0.0
H78 H 0.27455 0.89465 0.21735 0.0
H79 H 0.26595 0.84461 0.22673 0.0
Ho80 Ho 0.53307 0.00953 0.53955 0.0
Ho81 Ho 0.54371 1.0041 0.48636 0.0
C82 C 0.50498 0.0429 0.47768 0.0
C83 C 0.53167 0.03248 0.58031 0.0
C84 C 0.51438 0.04762 0.58108 0.0
C85 C 0.52576 0.06917 0.59961 0.0
C86 C 0.51044 0.08533 0.5987 0.0
C87 C 0.48355 0.08014 0.57918 0.0
C88 C 0.47219 0.05841 0.56072 0.0
C89 C 0.48753 0.04234 0.5616 0.0
C90 C 0.49129 0.96585 0.51072 0.0
C91 C 0.57184 0.97079 0.54832 0.0
C92 C 0.54462 0.98122 0.44525 0.0
C93 C 0.56172 0.96628 0.44349 0.0
C94 C 0.58867 0.97111 0.46261 0.0
C95 C 0.60403 0.95547 0.46211 0.0
C96 C 0.5926 0.93465 0.44256 0.0
C97 C 0.56551 0.92986 0.42351 0.0
C98 C 0.5502 0.94557 0.424 0.0
C99 C 0.58525 0.04819 0.51472 0.0
O100 O 0.51039 0.03822 0.50644 0.0
O101 O 0.51529 0.03051 0.4646 0.0
O102 O 0.51745 1.00539 0.5765 0.0
O103 O 0.55029 0.0455 0.56459 0.0
O104 O 0.49942 0.96456 0.53827 0.0
O105 O 0.50447 0.99031 0.50054 0.0
O106 O 0.56682 0.97579 0.51959 0.0
O107 O 0.56113 0.98282 0.56134 0.0
O108 O 0.55885 0.0083 0.44909 0.0
O109 O 0.52655 0.96802 0.46151 0.0
O110 O 0.57689 0.0491 0.48719 0.0
O111 O 0.57246 0.02373 0.52525 0.0
H112 H 0.54661 0.07371 0.61453 0.0
H113 H 0.51952 0.10171 0.61344 0.0
H114 H 0.45166 0.05413 0.5453 0.0
H115 H 0.4786 0.02605 0.54678 0.0
H116 H 0.59776 0.98684 0.47805 0.0
H117 H 0.62497 0.95993 0.4768 0.0
H118 H 0.55595 0.91369 0.40849 0.0
H119 H 0.5292 0.9413 0.40943 0.0
Ho120 Ho 0.30364 0.22448 0.77307 0.0
Ho121 Ho 0.29902 0.27849 0.78215 0.0
C122 C 0.33482 0.28484 0.73773 0.0
C123 C 0.29939 0.18224 0.75013 0.0
C124 C 0.30816 0.17911 0.72596 0.0
C125 C 0.31111 0.1995 0.70292 0.0
C126 C 0.32084 0.19691 0.68069 0.0
C127 C 0.32759 0.1738 0.68112 0.0
C128 C 0.324 0.15316 0.70399 0.0
C129 C 0.31438 0.15583 0.72623 0.0
C130 C 0.34478 0.25533 0.81511 0.0
C131 C 0.26765 0.21803 0.81779 0.0
C132 C 0.30254 0.32075 0.80442 0.0
C133 C 0.28689 0.32514 0.82181 0.0
C134 C 0.2751 0.30421 0.84215 0.0
C135 C 0.25893 0.30821 0.8574 0.0
C136 C 0.25426 0.33317 0.85242 0.0
C137 C 0.26668 0.35432 0.83248 0.0
C138 C 0.28284 0.3503 0.81729 0.0
C139 C 0.25795 0.24749 0.74008 0.0
O140 O 0.3237 0.25666 0.73885 0.0
O141 O 0.33102 0.29828 0.75523 0.0
O142 O 0.32044 0.19404 0.77179 0.0
O143 O 0.27906 0.19165 0.74381 0.0
O144 O 0.33445 0.22783 0.81654 0.0
O145 O 0.334 0.26454 0.79128 0.0
O146 O 0.27608 0.24603 0.8144 0.0
O147 O 0.27427 0.20447 0.80281 0.0
O148 O 0.28804 0.31422 0.77839 0.0
O149 O 0.31769 0.30578 0.8167 0.0
O150 O 0.26806 0.27494 0.7386 0.0
O151 O 0.26876 0.23853 0.76398 0.0
H152 H 0.30616 0.21753 0.70222 0.0
H153 H 0.32322 0.21302 0.66327 0.0
H154 H 0.3295 0.13537 0.70517 0.0
H155 H 0.31227 0.13996 0.74389 0.0
H156 H 0.27805 0.28464 0.846 0.0
H157 H 0.24943 0.29148 0.87248 0.0
H158 H 0.26378 0.37394 0.82852 0.0
H159 H 0.29189 0.3667 0.80173 0.0
Ho160 Ho 0.06363 0.99906 0.5283 0.0
Ho161 Ho 1.01241 0.01401 0.49541 0.0
C162 C 1.00548 0.97546 0.55251 0.0
C163 C 0.10674 0.99115 0.56406 0.0
C164 C 0.13206 0.98673 0.56308 0.0
C165 C 0.15918 1.00183 0.58048 0.0
C166 C 0.18292 0.99605 0.58195 0.0
C167 C 0.17993 0.97476 0.56626 0.0
C168 C 0.15293 0.96051 0.54791 0.0
C169 C 0.12928 0.96652 0.54623 0.0
C170 C 1.02755 0.96657 0.48511 0.0
C171 C 0.07049 0.03782 0.47091 0.0
C172 C 0.96857 0.02084 0.45999 0.0
C173 C 0.9408 0.02031 0.46103 0.0
C174 C 0.91513 1.00339 0.44292 0.0
C175 C 0.88894 1.00459 0.44159 0.0
C176 C 0.88799 0.02299 0.45817 0.0
C177 C 0.91359 0.03897 0.47723 0.0
C178 C 0.9397 0.03757 0.47873 0.0
C179 C 0.04871 0.04627 0.53884 0.0
O180 O 1.03398 0.98358 0.55871 0.0
O181 O 0.99127 0.98235 0.5275 0.0
O182 O 0.10695 0.01632 0.55548 0.0
O183 O 0.08138 0.97074 0.55553 0.0
O184 O 0.05523 0.97344 0.49235 0.0
O185 O 1.02051 0.9757 0.50215 0.0
O186 O 0.04231 0.03121 0.46536 0.0
O187 O 0.08461 0.02961 0.49529 0.0
O188 O 0.97105 0.99662 0.46511 0.0
O189 O 0.99209 0.04174 0.47167 0.0
O190 O 1.02096 0.03914 0.53196 0.0
O191 O 0.05554 0.0373 0.52151 0.0
H192 H 0.16184 0.01766 0.59349 0.0
H193 H 0.20349 0.00787 0.59585 0.0
H194 H 0.14963 0.94379 0.53573 0.0
H195 H 0.10863 0.95469 0.53242 0.0
H196 H 0.91544 0.98975 0.42924 0.0
H197 H 0.86957 0.99162 0.42703 0.0
H198 H 0.91383 0.05363 0.49008 0.0
H199 H 0.95914 0.05073 0.49309 0.0
Ho200 Ho 0.33081 0.78175 0.7525 0.0
Ho201 Ho 0.35894 0.76661 0.71185 0.0
C202 C 0.33808 0.81741 0.6918 0.0
C203 C 0.31881 0.80443 0.78708 0.0
C204 C 0.29979 0.81662 0.79212 0.0
C205 C 0.30832 0.84609 0.79108 0.0
C206 C 0.29282 0.85748 0.80022 0.0
C207 C 0.26839 0.8398 0.811 0.0
C208 C 0.25962 0.8103 0.81143 0.0
C209 C 0.27502 0.79896 0.80222 0.0
C210 C 0.29392 0.74257 0.71508 0.0
C211 C 0.34852 0.72948 0.77138 0.0
C212 C 0.3709 0.74316 0.6778 0.0
C213 C 0.38604 0.72723 0.67163 0.0
C214 C 0.38276 0.69983 0.68379 0.0
C215 C 0.39425 0.68417 0.67457 0.0
C216 C 0.409 0.69522 0.65259 0.0
C217 C 0.41265 0.72285 0.64094 0.0
C218 C 0.40143 0.73851 0.6503 0.0
C219 C 0.39524 0.80522 0.75072 0.0
O220 O 0.337 0.81735 0.71828 0.0
O221 O 0.34146 0.79696 0.68307 0.0
O222 O 0.30783 0.77728 0.78387 0.0
O223 O 0.33759 0.8191 0.77173 0.0
O224 O 0.28897 0.74427 0.73865 0.0
O225 O 0.31603 0.76379 0.71087 0.0
O226 O 0.35099 0.73013 0.7453 0.0
O227 O 0.34701 0.7507 0.78061 0.0
O228 O 0.38554 0.76962 0.68408 0.0
O229 O 0.34962 0.72984 0.69042 0.0
O230 O 0.40029 0.80522 0.72661 0.0
O231 O 0.37318 0.78355 0.75379 0.0
H232 H 0.32751 0.86046 0.78392 0.0
H233 H 0.30025 0.88025 0.79904 0.0
H234 H 0.2414 0.79574 0.81995 0.0
H235 H 0.26802 0.7762 0.80405 0.0
H236 H 0.37074 0.69019 0.69999 0.0
H237 H 0.3907 0.66298 0.68406 0.0
H238 H 0.42416 0.73249 0.62436 0.0
H239 H 0.40413 0.75936 0.64018 0.0
Ho240 Ho 0.5475 0.98253 1.01384 0.0
Ho241 Ho 0.54362 0.04037 1.00488 0.0
C242 C 0.59112 0.03662 0.98198 0.0
C243 C 0.5533 0.93815 1.00732 0.0
C244 C 0.57153 0.93509 0.99186 0.0
C245 C 0.56014 0.91268 0.97429 0.0
C246 C 0.57681 0.91079 0.95812 0.0
C247 C 0.60517 0.93127 0.95938 0.0
C248 C 0.61641 0.95376 0.97688 0.0
C249 C 0.59973 0.95572 0.99286 0.0
C250 C 0.57293 0.01435 0.05895 0.0
C251 C 0.49941 0.98583 0.03568 0.0
C252 C 0.54181 0.08739 1.01012 0.0
C253 C 0.53103 0.09752 0.02804 0.0
C254 C 0.52068 0.08047 0.05114 0.0
C255 C 0.50942 0.09006 0.06733 0.0
C256 C 0.5086 0.11691 0.06074 0.0
C257 C 0.51962 0.13411 0.03794 0.0
C258 C 0.53068 0.12443 0.02169 0.0
C259 C 0.51785 0.00838 0.95971 0.0
O260 O 0.57762 0.0088 0.98541 0.0
O261 O 0.58444 0.05398 0.99163 0.0
O262 O 0.56697 0.95248 0.03002 0.0
O263 O 0.53232 0.94502 0.99142 0.0
O264 O 0.55929 0.98701 0.06095 0.0
O265 O 0.57343 0.02309 0.03353 0.0
O266 O 0.51396 0.01373 0.03389 0.0
O267 O 0.50556 0.9687 0.0249 0.0
O268 O 0.52208 0.0689 0.99221 0.0
O269 O 0.56379 0.08082 0.02307 0.0
O270 O 0.53096 0.03577 0.95754 0.0
O271 O 0.51781 0.99991 0.98522 0.0
H272 H 0.53827 0.89682 0.97288 0.0
H273 H 0.56764 0.89316 0.94488 0.0
H274 H 0.63799 0.97011 0.97789 0.0
H275 H 0.60885 0.97361 1.00575 0.0
H276 H 0.5211 0.05973 0.05649 0.0
H277 H 0.50131 0.07648 0.08493 0.0
H278 H 0.51894 0.15474 0.03217 0.0
H279 H 0.53864 0.13781 1.00391 0.0
Ho280 Ho 0.27919 0.23944 0.23809 0.0
Ho281 Ho 0.29889 0.27514 0.28759 0.0
C282 C 0.32486 0.22337 0.29683 0.0
C283 C 0.27826 0.22371 0.19135 0.0
C284 C 0.29931 0.21945 0.18121 0.0
C285 C 0.32699 0.22435 0.19869 0.0
C286 C 0.34652 0.21882 0.18959 0.0
C287 C 0.33848 0.20798 0.163 0.0
C288 C 0.31081 0.20345 0.14542 0.0
C289 C 0.29137 0.20922 0.15446 0.0
C290 C 0.23939 0.21459 0.27013 0.0
C291 C 0.25233 0.2905 0.22953 0.0
C292 C 0.30875 0.29553 0.33504 0.0
C293 C 0.30193 0.31688 0.34287 0.0
C294 C 0.28069 0.32514 0.32425 0.0
C295 C 0.27176 0.34297 0.33281 0.0
C296 C 0.28409 0.35307 0.36014 0.0
C297 C 0.30646 0.34585 0.37821 0.0
C298 C 0.31523 0.32778 0.36964 0.0
C299 C 0.32788 0.29942 0.24665 0.0
O300 O 0.3099 0.21839 0.26954 0.0
O301 O 0.32355 0.24437 0.30787 0.0
O302 O 0.26924 0.206 0.21228 0.0
O303 O 0.28439 0.24994 0.19512 0.0
O304 O 0.2375 0.20468 0.24723 0.0
O305 O 0.26191 0.23711 0.27373 0.0
O306 O 0.26573 0.29413 0.25739 0.0
O307 O 0.25551 0.27104 0.21782 0.0
O308 O 0.32766 0.30482 0.31965 0.0
O309 O 0.28629 0.2726 0.3259 0.0
O310 O 0.32033 0.31279 0.26011 0.0
O311 O 0.32047 0.27376 0.25628 0.0
H312 H 0.33323 0.23186 0.21959 0.0
H313 H 0.36756 0.22218 0.2037 0.0
H314 H 0.30416 0.19536 0.12472 0.0
H315 H 0.27002 0.20529 0.14079 0.0
H316 H 0.27018 0.31692 0.30346 0.0
H317 H 0.2542 0.34765 0.31847 0.0
H318 H 0.31671 0.3536 0.39921 0.0
H319 H 0.3318 0.3217 0.3842 0.0
Ho320 Ho 0.56739 0.5125 0.03425 0.0
Ho321 Ho 0.50888 0.50227 0.9908 0.0
C322 C 0.50638 0.47614 0.05466 0.0
C323 C 0.61202 0.53131 0.07591 0.0
C324 C 0.62461 0.52056 0.1035 0.0
C325 C 0.65023 0.53883 0.12045 0.0
C326 C 0.66515 0.52798 0.14455 0.0
C327 C 0.65461 0.49869 0.15181 0.0
C328 C 0.62787 0.48076 0.13563 0.0
C329 C 0.61296 0.49164 0.11165 0.0
C330 C 0.54442 0.46544 1.00585 0.0
C331 C 0.56892 0.53508 0.97075 0.0
C332 C 0.4632 0.48816 0.9494 0.0
C333 C 0.43452 0.48823 0.94385 0.0
C334 C 0.41256 0.47424 0.92101 0.0
C335 C 0.38736 0.47916 0.91187 0.0
C336 C 0.38411 0.49858 0.92518 0.0
C337 C 0.4051 0.51038 0.9498 0.0
C338 C 0.43003 0.50513 0.95911 0.0
C339 C 0.53231 0.54871 0.02022 0.0
O340 O 0.53519 0.4886 0.06197 0.0
O341 O 0.4914 0.47758 0.02812 0.0
O342 O 0.61192 0.52047 0.0541 0.0
O343 O 0.5877 0.53343 0.07352 0.0
O344 O 0.57217 0.47933 0.01486 0.0
O345 O 0.53128 0.4757 0.01463 0.0
O346 O 0.54166 0.51633 0.9638 0.0
O347 O 0.58193 0.54104 0.9974 0.0
O348 O 0.46899 0.4699 0.96933 0.0
O349 O 0.48453 0.51325 0.95076 0.0
O350 O 0.50458 0.5339 1.01295 0.0
O351 O 0.54508 0.53898 1.01025 0.0
H352 H 0.65935 0.56128 0.11436 0.0
H353 H 0.68548 0.54234 0.15681 0.0
H354 H 0.61931 0.45806 0.14038 0.0
H355 H 0.59315 0.47732 0.09865 0.0
H356 H 0.4156 0.46083 0.90923 0.0
H357 H 0.37132 0.4692 0.89326 0.0
H358 H 0.40363 0.52559 0.96056 0.0
H359 H 0.44674 0.5159 0.977 0.0
Ho360 Ho 0.71534 0.23412 0.32804 0.0
Ho361 Ho 0.74722 0.22711 0.28596 0.0
C362 C 0.73378 0.28088 0.27716 0.0
C363 C 0.69528 0.2508 0.36064 0.0
C364 C 0.68968 0.27376 0.3688 0.0
C365 C 0.70748 0.28892 0.39297 0.0
C366 C 0.6997 0.30697 0.40344 0.0
C367 C 0.67368 0.31043 0.39027 0.0
C368 C 0.65628 0.29574 0.36567 0.0
C369 C 0.66407 0.27775 0.35522 0.0
C370 C 0.68228 0.19966 0.2851 0.0
C371 C 0.73496 0.1827 0.34215 0.0
C372 C 0.7618 0.21088 0.24825 0.0
C373 C 0.77965 0.19839 0.24143 0.0
C374 C 0.77256 0.16905 0.2446 0.0
C375 C 0.78711 0.15755 0.23412 0.0
C376 C 0.80891 0.17497 0.21977 0.0
C377 C 0.81635 0.20434 0.21728 0.0
C378 C 0.80198 0.21579 0.22787 0.0
C379 C 0.78167 0.26126 0.32842 0.0
O380 O 0.73162 0.2761 0.30374 0.0
O381 O 0.73299 0.26144 0.26305 0.0
O382 O 0.68008 0.23944 0.33647 0.0
O383 O 0.72161 0.25192 0.3673 0.0
O384 O 0.67745 0.19468 0.31018 0.0
O385 O 0.70363 0.22282 0.28372 0.0
O386 O 0.74173 0.18877 0.31716 0.0
O387 O 0.72697 0.19876 0.35255 0.0
O388 O 0.77483 0.23632 0.25741 0.0
O389 O 0.74 0.19465 0.25951 0.0
O390 O 0.78805 0.26353 0.30448 0.0
O391 O 0.75923 0.23914 0.32975 0.0
H392 H 0.72714 0.28621 0.40437 0.0
H393 H 0.7141 0.31803 0.42211 0.0
H394 H 0.63589 0.29721 0.35493 0.0
H395 H 0.64935 0.26612 0.33695 0.0
H396 H 0.75519 0.15483 0.25447 0.0
H397 H 0.78051 0.13484 0.23634 0.0
H398 H 0.83323 0.21863 0.20685 0.0
H399 H 0.80782 0.2384 0.22462 0.0
Ho400 Ho 1.03929 0.48651 0.50299 0.0
Ho401 Ho 1.02964 0.53884 0.50928 0.0
C402 C 0.06415 0.54303 0.46305 0.0
C403 C 0.04011 0.44408 0.48468 0.0
C404 C 0.05954 0.4413 0.47083 0.0
C405 C 0.05188 0.41583 0.45943 0.0
C406 C 0.07099 0.41267 0.44738 0.0
C407 C 0.09803 0.43499 0.44664 0.0
C408 C 0.10528 0.46074 0.45756 0.0
C409 C 0.08618 0.46386 0.46957 0.0
C410 C 0.07941 0.52053 0.54365 0.0
C411 C 1.00943 0.48375 0.55072 0.0
C412 C 1.03038 0.58568 0.51837 0.0
C413 C 1.01203 0.59135 0.53146 0.0
C414 C 1.02469 0.61208 0.55114 0.0
C415 C 1.00793 0.61532 0.56626 0.0
C416 C 0.97821 0.59784 0.56191 0.0
C417 C 0.96552 0.57754 0.54165 0.0
C418 C 0.98229 0.57421 0.5267 0.0
C419 C 0.98216 0.4958 0.48382 0.0
O420 O 0.06327 0.51741 0.47202 0.0
O421 O 0.05227 0.55516 0.47369 0.0
O422 O 0.05142 0.45113 0.51089 0.0
O423 O 1.02502 0.45827 0.46978 0.0
O424 O 0.07274 0.49364 0.54487 0.0
O425 O 0.06712 0.5283 0.51979 0.0
O426 O 1.02191 0.51176 0.54945 0.0
O427 O 1.00856 0.46915 0.53118 0.0
O428 O 1.01793 0.57439 0.49379 0.0
O429 O 0.0467 0.5737 0.53576 0.0
O430 O 0.98151 0.51202 0.50004 0.0
O431 O 1.00742 0.50422 0.48095 0.0
H432 H 1.03138 0.39824 0.46028 0.0
H433 H 0.06495 0.39248 0.43942 0.0
H434 H 0.1258 0.4784 0.45698 0.0
H435 H 0.09238 0.48372 0.47829 0.0
H436 H 0.04769 0.62519 0.5554 0.0
H437 H 1.01842 0.63096 0.58193 0.0
H438 H 0.94262 0.56409 0.53741 0.0
H439 H 0.97205 0.55782 0.51184 0.0
Ho440 Ho 0.77693 0.72859 0.2485 0.0
Ho441 Ho 0.77493 0.78321 0.25983 0.0
C442 C 0.80738 0.78879 0.21222 0.0
C443 C 0.77005 0.68605 0.22419 0.0
C444 C 0.78333 0.68187 0.20432 0.0
C445 C 0.80924 0.70291 0.19884 0.0
C446 C 0.82213 0.69838 0.18043 0.0
C447 C 0.80924 0.67273 0.16723 0.0
C448 C 0.78278 0.6521 0.17218 0.0
C449 C 0.76994 0.65666 0.19062 0.0
C450 C 0.82102 0.7596 0.28868 0.0
C451 C 0.7452 0.72321 0.29649 0.0
C452 C 0.78232 0.82601 0.2841 0.0
C453 C 0.77251 0.83018 0.30694 0.0
C454 C 0.78917 0.85442 0.32215 0.0
C455 C 0.78025 0.85876 0.34408 0.0
C456 C 0.75447 0.83888 0.35109 0.0
C457 C 0.73823 0.81419 0.33622 0.0
C458 C 0.74723 0.80985 0.31434 0.0
C459 C 0.73081 0.7521 0.21964 0.0
O460 O 0.79716 0.76062 0.21432 0.0
O461 O 0.80356 0.80258 0.2294 0.0
O462 O 0.78669 0.69264 0.2496 0.0
O463 O 0.75488 0.70126 0.2138 0.0
O464 O 0.81057 0.73211 0.29033 0.0
O465 O 0.80884 0.76854 0.26556 0.0
O466 O 0.75612 0.75141 0.29489 0.0
O467 O 0.74778 0.70942 0.27838 0.0
O468 O 0.76258 0.81705 0.26063 0.0
O469 O 0.7998 0.81307 0.29212 0.0
O470 O 0.74143 0.77962 0.21791 0.0
O471 O 0.74294 0.74319 0.24283 0.0
H472 H 0.81974 0.7226 0.20919 0.0
H473 H 0.84265 0.71454 0.17731 0.0
H474 H 0.77215 0.63231 0.16201 0.0
H475 H 0.74973 0.64038 0.19442 0.0
H476 H 0.80902 0.87006 0.31696 0.0
H477 H 0.79343 0.87777 0.35542 0.0
H478 H 0.71811 0.79864 0.34088 0.0
H479 H 0.7343 0.79081 0.30298 0.0
Ho480 Ho 0.82812 0.24123 0.7778 0.0
Ho481 Ho 0.77755 0.25734 0.74984 0.0
C482 C 0.76439 0.20253 0.79081 0.0
C483 C 0.86315 0.22093 0.81156 0.0
C484 C 0.85716 0.19086 0.81837 0.0
C485 C 0.87501 0.18194 0.84135 0.0
C486 C 0.86874 0.15307 0.84737 0.0
C487 C 0.84457 0.13284 0.8304 0.0
C488 C 0.82654 0.14195 0.80765 0.0
C489 C 0.8327 0.17071 0.80178 0.0
C490 C 0.7978 0.22158 0.72619 0.0
C491 C 0.8419 0.29714 0.73944 0.0
C492 C 0.74144 0.27459 0.7129 0.0
C493 C 0.74655 0.29993 0.69301 0.0
C494 C 0.76679 0.30781 0.67663 0.0
C495 C 0.77558 0.33445 0.66203 0.0
C496 C 0.76416 0.35357 0.66348 0.0
C497 C 0.7425 0.34484 0.67834 0.0
C498 C 0.73387 0.31831 0.69304 0.0
C499 C 0.80624 0.27528 0.80225 0.0
O500 O 0.79282 0.21101 0.79944 0.0
O501 O 0.75222 0.21506 0.7685 0.0
O502 O 0.86418 0.22974 0.78519 0.0
O503 O 0.84768 0.2297 0.82058 0.0
O504 O 0.82551 0.22964 0.73496 0.0
O505 O 0.78771 0.22267 0.74563 0.0
O506 O 0.81357 0.2871 0.72863 0.0
O507 O 0.85322 0.28545 0.76308 0.0
O508 O 0.74964 0.27968 0.73971 0.0
O509 O 0.74868 0.25535 0.70814 0.0
O510 O 0.77845 0.26695 0.79265 0.0
O511 O 0.81751 0.27544 0.7831 0.0
H512 H 0.89383 0.19724 0.85444 0.0
H513 H 0.8832 0.14661 0.86486 0.0
H514 H 0.80771 0.12683 0.7944 0.0
H515 H 0.81846 0.17729 0.78412 0.0
H516 H 0.77674 0.29387 0.67605 0.0
H517 H 0.79222 0.34052 0.65071 0.0
H518 H 0.73271 0.35884 0.67921 0.0
H519 H 0.71814 0.31262 0.70541 0.0
Ho520 Ho 0.77349 0.7382 0.74093 0.0
Ho521 Ho 0.80052 0.77547 0.78451 0.0
C522 C 0.82364 0.72347 0.79756 0.0
C523 C 0.76306 0.70658 0.70143 0.0
C524 C 0.77694 0.68914 0.69752 0.0
C525 C 0.80714 0.69971 0.70283 0.0
C526 C 0.82017 0.68348 0.69827 0.0
C527 C 0.80337 0.65606 0.68879 0.0
C528 C 0.77312 0.64516 0.6844 0.0
C529 C 0.76003 0.66164 0.68863 0.0
C530 C 0.74105 0.72411 0.77877 0.0
C531 C 0.75062 0.79037 0.7277 0.0
C532 C 0.81051 0.80657 0.82444 0.0
C533 C 0.79867 0.82595 0.82803 0.0
C534 C 0.76988 0.82163 0.81472 0.0
C535 C 0.75816 0.83889 0.81978 0.0
C536 C 0.77502 0.86093 0.83814 0.0
C537 C 0.8042 0.86582 0.8506 0.0
C538 C 0.81589 0.84841 0.84561 0.0
C539 C 0.83269 0.78935 0.74638 0.0
O540 O 0.8068 0.71832 0.77081 0.0
O541 O 0.82402 0.74522 0.80847 0.0
O542 O 0.74987 0.69777 0.72199 0.0
O543 O 0.77827 0.73393 0.70044 0.0
O544 O 0.73092 0.72471 0.75147 0.0
O545 O 0.76813 0.73152 0.78461 0.0
O546 O 0.76835 0.7963 0.75399 0.0
O547 O 0.74929 0.76788 0.71728 0.0
O548 O 0.82559 0.81479 0.80543 0.0
O549 O 0.7927 0.7799 0.82337 0.0
O550 O 0.84308 0.78901 0.77367 0.0
O551 O 0.80567 0.7821 0.74076 0.0
H552 H 0.82077 0.72075 0.71005 0.0
H553 H 0.84342 0.69296 0.70131 0.0
H554 H 0.75951 0.62402 0.6775 0.0
H555 H 0.73669 0.653 0.68477 0.0
H556 H 0.75618 0.8044 0.80103 0.0
H557 H 0.73552 0.83417 0.81016 0.0
H558 H 0.81789 0.88284 0.86454 0.0
H559 H 0.83823 0.85217 0.85588 0.0
Ho560 Ho 0.57083 0.51149 0.55152 0.0
Ho561 Ho 0.52053 0.50092 0.49306 0.0
C562 C 0.56863 0.47472 0.5037 0.0
C563 C 0.60461 0.5116 0.60103 0.0
C564 C 0.63648 0.52348 0.60952 0.0
C565 C 0.65055 0.50705 0.62718 0.0
C566 C 0.68021 0.51558 0.63072 0.0
C567 C 0.69628 0.54065 0.61648 0.0
C568 C 0.68252 0.55809 0.6005 0.0
C569 C 0.6529 0.54963 0.59709 0.0
C570 C 0.58959 0.54983 0.50788 0.0
C571 C 0.52116 0.53581 0.54164 0.0
C572 C 0.48772 0.50458 0.44376 0.0
C573 C 0.45683 0.49857 0.43652 0.0
C574 C 0.44261 0.50502 0.40914 0.0
C575 C 0.41393 0.50191 0.40368 0.0
C576 C 0.39932 0.49234 0.42562 0.0
C577 C 0.41326 0.48443 0.45255 0.0
C578 C 0.44179 0.48778 0.45798 0.0
C579 C 0.50163 0.46213 0.53628 0.0
O580 O 0.57679 0.47968 0.53113 0.0
O581 O 0.55015 0.48408 0.4849 0.0
O582 O 0.59301 0.53007 0.59182 0.0
O583 O 0.59239 0.48982 0.58534 0.0
O584 O 0.60511 0.54952 0.53354 0.0
O585 O 0.56516 0.53018 0.50793 0.0
O586 O 0.51264 0.53071 0.51428 0.0
O587 O 0.5405 0.5273 0.56003 0.0
O588 O 0.49391 0.48248 0.45339 0.0
O589 O 0.50444 0.52648 0.45902 0.0
O590 O 0.48647 0.46235 0.51043 0.0
O591 O 0.52609 0.48207 0.53682 0.0
H592 H 0.63832 0.48681 0.63687 0.0
H593 H 0.69004 0.50141 0.64287 0.0
H594 H 0.69435 0.57756 0.58944 0.0
H595 H 0.64266 0.5629 0.5835 0.0
H596 H 0.45397 0.51347 0.39235 0.0
H597 H 0.40382 0.50852 0.3828 0.0
H598 H 0.4025 0.47685 0.4698 0.0
H599 H 0.45244 0.483 0.47933 0.0
Ho600 Ho 1.0333 0.5104 0.04026 0.0
Ho601 Ho 0.04324 0.5042 0.98694 0.0
C602 C 1.00443 0.54303 0.97828 0.0
C603 C 1.03255 0.53307 0.08169 0.0
C604 C 1.01571 0.54808 0.08395 0.0
C605 C 1.0265 0.56688 0.10523 0.0
C606 C 1.01122 0.58232 0.10666 0.0
C607 C 0.98498 0.57919 0.0867 0.0
C608 C 0.97437 0.56039 0.06529 0.0
C609 C 0.98962 0.54495 0.06393 0.0
C610 C 0.99186 0.46573 1.01261 0.0
C611 C 0.0721 0.47157 0.04891 0.0
C612 C 0.04303 0.48124 0.94521 0.0
C613 C 0.05813 0.46475 0.94223 0.0
C614 C 0.04497 0.445 0.92157 0.0
C615 C 0.05832 0.42798 0.91946 0.0
C616 C 0.0851 0.4305 0.93802 0.0
C617 C 0.09811 0.45028 0.95885 0.0
C618 C 0.08468 0.46721 0.96099 0.0
C619 C 0.08461 0.54906 0.01444 0.0
O620 O 1.01015 0.53868 1.00707 0.0
O621 O 1.01462 0.53047 0.96523 0.0
O622 O 1.01806 0.50609 0.07749 0.0
O623 O 0.05054 0.54631 0.06538 0.0
O624 O 1.00071 0.46503 0.04009 0.0
O625 O 1.00428 0.49013 1.00178 0.0
O626 O 0.0663 0.47578 0.02009 0.0
O627 O 0.06207 0.48432 0.06192 0.0
O628 O 0.05892 0.50791 0.95014 0.0
O629 O 1.02464 0.4686 0.96119 0.0
O630 O 0.07575 0.54955 0.98695 0.0
O631 O 0.07234 0.52466 0.0254 0.0
H632 H 0.04682 0.56979 0.12059 0.0
H633 H 1.02009 0.59689 0.12319 0.0
H634 H 0.95404 0.55725 0.04985 0.0
H635 H 0.98105 0.53059 0.04724 0.0
H636 H 1.02422 0.44254 0.90725 0.0
H637 H 0.04752 0.41264 0.90348 0.0
H638 H 0.11887 0.45298 0.97324 0.0
H639 H 0.09498 0.48217 0.97733 0.0
H640 H 0.23974 0.23535 0.84485 0.0
H641 H 0.20609 0.20638 0.87464 0.0
H642 H 0.21687 0.13268 0.86388 0.0
H643 H 0.2506 0.1614 0.83436 0.0
H644 H 0.15312 0.15847 0.86072 0.0
H645 H 0.23103 0.13071 0.95033 0.0
H646 H 0.24244 0.1592 0.92393 0.0
H647 H 0.23031 0.12314 0.91613 0.0
C648 C 0.23529 0.21307 0.84908 0.0
C649 C 0.24824 0.20091 0.83725 0.0
C650 C 0.21584 0.19644 0.86603 0.0
C651 C 0.20905 0.16729 0.87188 0.0
C652 C 0.22201 0.15514 0.86018 0.0
H653 H 0.0612 0.04101 0.93918 0.0
H654 H 0.09526 0.06797 0.90901 0.0
C655 C 0.2413 0.17168 0.84313 0.0
C656 C 0.18802 0.14946 0.88965 0.0
H657 H 0.1815 0.10667 0.95089 0.0
C658 C 0.15935 0.14716 0.88044 0.0
C659 C 0.19604 0.13476 0.91554 0.0
C660 C 0.22667 0.13719 0.92729 0.0
C661 C 0.13857 0.13046 0.89616 0.0
C662 C 0.14646 0.11534 0.92179 0.0
C663 C 0.17522 0.1179 0.93113 0.0
C664 C 0.12574 0.09811 0.94004 0.0
C665 C 0.10847 0.12968 0.88553 0.0
C666 C 0.13169 0.10541 0.96782 0.0
C667 C 0.11235 0.09 0.98505 0.0
C668 C 0.08658 0.06664 0.97511 0.0
C669 C 0.08082 0.05887 0.9475 0.0
C670 C 0.1002 0.07444 0.93015 0.0
H671 H 0.10758 0.14711 0.86915 0.0
H672 H 0.09361 0.1093 0.87589 0.0
H673 H 0.10047 0.1312 0.90326 0.0
H674 H 0.15119 0.12341 0.97611 0.0
H675 H 0.11757 0.09652 1.00623 0.0
H676 H 0.12863 1.00051 0.04895 0.0
H677 H 0.1722 1.00341 0.0849 0.0
H678 H 0.15253 0.04444 0.13869 0.0
H679 H 0.10789 0.04079 0.10283 0.0
H680 H 0.22166 0.04528 0.11503 0.0
H681 H 0.1511 0.97239 0.18605 0.0
H682 H 0.13532 0.97992 0.14951 0.0
H683 H 0.15073 1.00672 0.17441 0.0
C684 C 0.13356 0.01044 0.06824 0.0
C685 C 0.11441 0.01979 0.07331 0.0
C686 C 0.15872 0.01236 0.08872 0.0
C687 C 0.16543 0.02383 0.11463 0.0
C688 C 0.14747 0.03507 0.11903 0.0
H689 H 0.24872 0.9226 0.22428 0.0
H690 H 0.24579 0.96864 0.21706 0.0
C691 C 0.12198 0.0329 0.09855 0.0
C692 C 0.1888 0.01971 0.13771 0.0
H693 H 0.19444 0.96925 0.19047 0.0
C694 C 0.21623 0.02946 0.13233 0.0
C695 C 0.18203 0.99969 0.1608 0.0
C696 C 0.15325 0.98895 0.1682 0.0
C697 C 0.23508 0.01637 0.1464 0.0
C698 C 0.22605 0.99307 0.16604 0.0
C699 C 0.20103 0.9868 0.17492 0.0
C700 C 0.23673 0.9705 0.17129 0.0
C701 C 0.26317 0.02577 0.13815 0.0
C702 C 0.23335 0.95664 0.14798 0.0
C703 C 0.23473 0.93033 0.15201 0.0
C704 C 0.23951 0.91739 0.17942 0.0
C705 C 0.24513 0.9322 0.2029 0.0
C706 C 0.24357 0.95853 0.19884 0.0
H707 H 0.27271 0.04909 0.13369 0.0
H708 H 0.27905 0.01953 0.15505 0.0
H709 H 0.25901 0.01597 0.11841 0.0
H710 H 0.22727 0.96503 0.12647 0.0
H711 H 0.23063 0.91946 0.13361 0.0
H712 H 0.45708 0.91238 0.5285 0.0
H713 H 0.41558 0.87656 0.49866 0.0
H714 H 0.42926 0.9342 0.42462 0.0
H715 H 0.47011 0.96979 0.45399 0.0
H716 H 0.37049 0.90749 0.43103 0.0
H717 H 0.42093 0.83186 0.44011 0.0
H718 H 0.42118 0.84372 0.47208 0.0
H719 H 0.44244 0.86823 0.4487 0.0
C720 C 0.45115 0.91725 0.50585 0.0
C721 C 0.46675 0.94376 0.4935 0.0
C722 C 0.42757 0.89684 0.48889 0.0
C723 C 0.41951 0.90281 0.4595 0.0
C724 C 0.43513 0.92926 0.44729 0.0
H725 H 0.34341 0.83158 0.30472 0.0
H726 H 0.37207 0.85072 0.35065 0.0
C727 C 0.45852 0.94952 0.46409 0.0
C728 C 0.39493 0.88193 0.44079 0.0
H729 H 0.3773 0.82427 0.40582 0.0
C730 C 0.37151 0.88887 0.42589 0.0
C731 C 0.39661 0.85783 0.43422 0.0
C732 C 0.42163 0.84983 0.44944 0.0
C733 C 0.35064 0.87341 0.40322 0.0
C734 C 0.35311 0.85015 0.39567 0.0
C735 C 0.37552 0.84211 0.41178 0.0
C736 C 0.33531 0.83658 0.36887 0.0
C737 C 0.32737 0.88336 0.38627 0.0
C738 C 0.30514 0.82208 0.36401 0.0
C739 C 0.28868 0.81129 0.33763 0.0
C740 C 0.30226 0.81463 0.31598 0.0
C741 C 0.33245 0.82863 0.32112 0.0
C742 C 0.34883 0.83947 0.34735 0.0
H743 H 0.33126 0.90428 0.39229 0.0
H744 H 0.326 0.88493 0.36322 0.0
H745 H 0.30615 0.86781 0.38999 0.0
H746 H 0.29437 0.81933 0.3805 0.0
H747 H 0.26541 0.80033 0.33417 0.0
H748 H 0.31431 0.12699 0.6546 0.0
H749 H 0.3411 0.12215 0.62474 0.0
H750 H 0.39547 0.21146 0.627 0.0
H751 H 0.36934 0.21636 0.65766 0.0
H752 H 0.35737 0.14956 0.57201 0.0
H753 H 0.45024 0.17142 0.66748 0.0
H754 H 0.41426 0.16393 0.66967 0.0
H755 H 0.43569 0.1978 0.65508 0.0
C756 C 0.33176 0.14566 0.64847 0.0
C757 C 0.34011 0.17193 0.65889 0.0
C758 C 0.34684 0.14292 0.6312 0.0
C759 C 0.37046 0.16638 0.62408 0.0
C760 C 0.37744 0.19308 0.63257 0.0
H761 H 0.50385 0.13741 0.58125 0.0
H762 H 0.47722 0.16413 0.58509 0.0
C763 C 0.3624 0.19585 0.64993 0.0
C764 C 0.38975 0.16181 0.61114 0.0
H765 H 0.454 0.15529 0.62875 0.0
C766 C 0.37875 0.15131 0.58411 0.0
C767 C 0.41764 0.16424 0.62703 0.0
C768 C 0.43024 0.17479 0.65649 0.0
C769 C 0.39448 0.14195 0.57304 0.0
C770 C 0.42152 0.14263 0.58977 0.0
C771 C 0.43325 0.1548 0.61599 0.0
C772 C 0.43638 0.12768 0.58251 0.0
C773 C 0.38168 0.13081 0.5439 0.0
C774 C 0.42219 0.0984 0.57961 0.0
C775 C 0.43732 0.08313 0.57752 0.0
C776 C 0.46703 0.09683 0.57867 0.0
C777 C 0.48103 0.12629 0.58067 0.0
C778 C 0.46582 0.14159 0.5826 0.0
H779 H 0.36747 0.14112 0.53025 0.0
H780 H 0.39878 0.13421 0.5333 0.0
H781 H 0.36821 0.10776 0.54583 0.0
H782 H 0.39973 0.08706 0.58041 0.0
H783 H 0.42607 0.0604 0.57638 0.0
H784 H 0.21854 0.97105 0.61613 0.0
H785 H 0.25439 0.95148 0.62492 0.0
H786 H 0.23091 0.93647 0.53637 0.0
H787 H 0.19542 0.95713 0.52697 0.0
H788 H 0.22788 0.88804 0.57604 0.0
H789 H 0.33329 0.97892 0.60442 0.0
H790 H 0.30706 0.97774 0.62127 0.0
H791 H 0.3008 0.98299 0.58326 0.0
C792 C 0.22156 0.96457 0.59824 0.0
C793 C 0.204 0.96576 0.57079 0.0
C794 C 0.2421 0.9533 0.60336 0.0
C795 C 0.24555 0.94288 0.58124 0.0
C796 C 0.22869 0.94462 0.55367 0.0
H797 H 0.32671 0.82016 0.63348 0.0
H798 H 0.30896 0.85284 0.59974 0.0
C799 C 0.20827 0.95621 0.54843 0.0
C800 C 0.26422 0.92717 0.58804 0.0
H801 H 0.33199 0.9328 0.62403 0.0
C802 C 0.25085 0.89781 0.58581 0.0
C803 C 0.29413 0.9401 0.60063 0.0
C804 C 0.30976 0.97173 0.60232 0.0
C805 C 0.266 0.88065 0.59834 0.0
C806 C 0.29548 0.8934 0.61288 0.0
C807 C 0.3094 0.92304 0.61296 0.0
C808 C 0.31056 0.87638 0.63212 0.0
C809 C 0.24967 0.84891 0.59798 0.0
C810 C 0.31881 0.87977 0.66133 0.0
C811 C 0.32917 0.86145 0.68052 0.0
C812 C 0.33146 0.83922 0.67095 0.0
C813 C 0.32496 0.83692 0.64156 0.0
C814 C 0.31464 0.85544 0.62225 0.0
H815 H 0.226 0.84246 0.58943 0.0
H816 H 0.25742 0.84073 0.58443 0.0
H817 H 0.25351 0.8387 0.6197 0.0
H818 H 0.31596 0.89584 0.66943 0.0
H819 H 0.33432 0.86414 0.70297 0.0
H820 H 0.38835 0.80416 0.80321 0.0
H821 H 0.41387 0.84175 0.83623 0.0
H822 H 0.46391 0.89492 0.77671 0.0
H823 H 0.4384 0.85717 0.74342 0.0
H824 H 0.47902 0.87134 0.85813 0.0
H825 H 0.42377 0.94116 0.79751 0.0
H826 H 0.40807 0.90363 0.79308 0.0
H827 H 0.43833 0.92677 0.77864 0.0
C828 C 0.40484 0.82382 0.79716 0.0
C829 C 0.4114 0.82781 0.77075 0.0
C830 C 0.41942 0.84524 0.81606 0.0
C831 C 0.44064 0.87111 0.80883 0.0
C832 C 0.44745 0.87513 0.78256 0.0
H833 H 0.52902 0.02227 0.90713 0.0
H834 H 0.5131 0.99024 0.86944 0.0
C835 C 0.43296 0.85358 0.76365 0.0
C836 C 0.45532 0.89377 0.82891 0.0
H837 H 0.45634 0.95588 0.84138 0.0
C838 C 0.47429 0.88996 0.85441 0.0
C839 C 0.44922 0.91808 0.82384 0.0
C840 C 0.42866 0.92282 0.79688 0.0
C841 C 0.48695 0.90964 0.87526 0.0
C842 C 0.47983 0.93332 0.87075 0.0
C843 C 0.46165 0.93764 0.84482 0.0
C844 C 0.48961 0.95285 0.89337 0.0
C845 C 0.50782 0.90489 0.90198 0.0
C846 C 0.48117 0.94254 0.91901 0.0
C847 C 0.49005 0.96075 0.94037 0.0
C848 C 0.50754 0.98961 0.93651 0.0
C849 C 0.51554 1.00008 0.91063 0.0
C850 C 0.50656 0.98183 0.88917 0.0
H851 H 0.51748 0.89111 0.89867 0.0
H852 H 0.52554 0.92526 0.9095 0.0
H853 H 0.4961 0.89429 0.91893 0.0
H854 H 0.46751 0.9204 0.92244 0.0
H855 H 0.4832 0.95222 0.95995 0.0
H856 H 0.52888 0.16893 0.08086 0.0
H857 H 0.50419 0.18591 0.10327 0.0
H858 H 0.43268 0.10392 0.09774 0.0
H859 H 0.45736 0.08678 0.07568 0.0
H860 H 0.4528 0.18956 0.07948 0.0
H861 H 0.44579 0.12007 0.1785 0.0
H862 H 0.46937 0.12347 0.15692 0.0
H863 H 0.43156 0.10035 0.14758 0.0
C864 C 0.50802 0.15448 0.08473 0.0
C865 C 0.49504 0.12653 0.07659 0.0
C866 C 0.49401 0.16416 0.09758 0.0
C867 C 0.4668 0.14606 0.10254 0.0
C868 C 0.45401 0.11802 0.09483 0.0
H869 H 0.32577 0.15965 0.13959 0.0
H870 H 0.35888 0.14638 0.12582 0.0
C871 C 0.46809 0.10827 0.08216 0.0
C872 C 0.45071 0.15706 0.1136 0.0
H873 H 0.41398 0.14418 0.16432 0.0
C874 C 0.44468 0.17992 0.09827 0.0
C875 C 0.44015 0.14444 0.13813 0.0
C876 C 0.4473 0.12092 0.15639 0.0
C877 C 0.42743 0.1898 0.1062 0.0
C878 C 0.41611 0.17653 0.13013 0.0
C879 C 0.42265 0.15414 0.14587 0.0
C880 C 0.39643 0.18489 0.13845 0.0
C881 C 0.42054 0.21367 0.08845 0.0
C882 C 0.40676 0.21089 0.15014 0.0
C883 C 0.38791 0.21855 0.158 0.0
C884 C 0.35846 0.20031 0.15415 0.0
C885 C 0.34826 0.17428 0.14241 0.0
C886 C 0.36714 0.16659 0.13474 0.0
H887 H 0.42765 0.21898 0.06835 0.0
H888 H 0.39693 0.20805 0.08329 0.0
H889 H 0.43165 0.23282 0.10071 0.0
H890 H 0.42939 0.22517 0.15328 0.0
H891 H 0.3963 0.23878 0.16689 0.0
H892 H 0.12385 0.04504 0.46694 0.0
H893 H 0.15156 0.07639 0.43313 0.0
H894 H 0.08307 0.10468 0.39379 0.0
H895 H 0.0547 0.07234 0.42669 0.0
H896 H 0.10164 0.09851 0.35447 0.0
H897 H 0.19879 0.15874 0.43407 0.0
H898 H 0.19135 0.12178 0.43902 0.0
H899 H 0.16589 0.13376 0.44367 0.0
C900 C 0.11465 0.0579 0.45106 0.0
C901 C 0.08701 0.05615 0.44966 0.0
C902 C 0.13072 0.07614 0.43186 0.0
C903 C 0.11996 0.09372 0.41121 0.0
C904 C 0.09213 0.09161 0.40953 0.0
H905 H 0.23312 0.23404 0.31485 0.0
H906 H 0.20327 0.20622 0.34858 0.0
C907 C 0.07583 0.07301 0.42839 0.0
C908 C 0.1372 0.11361 0.39086 0.0
H909 H 0.20418 0.16446 0.38661 0.0
C910 C 0.12399 0.11306 0.36163 0.0
C911 C 0.16627 0.13328 0.3999 0.0
C912 C 0.18128 0.13718 0.43089 0.0
C913 C 0.13905 0.1308 0.34136 0.0
C914 C 0.16868 0.14904 0.35027 0.0
C915 C 0.18167 0.15026 0.37954 0.0
C916 C 0.18669 0.16638 0.32962 0.0
C917 C 0.12266 0.13009 0.31061 0.0
C918 C 0.18782 0.15347 0.30785 0.0
C919 C 0.20451 0.16941 0.28846 0.0
C920 C 0.22124 0.19861 0.29067 0.0
C921 C 0.22066 0.21158 0.3127 0.0
C922 C 0.20352 0.19564 0.33196 0.0
H923 H 0.09923 0.12355 0.30853 0.0
H924 H 0.13104 0.15105 0.29892 0.0
H925 H 0.1248 0.11433 0.30039 0.0
H926 H 0.176 0.13088 0.30598 0.0
H927 H 0.20474 0.15865 0.27196 0.0
H928 H 0.82441 0.1912 0.16865 0.0
H929 H 0.84787 0.17194 0.14736 0.0
H930 H 0.85013 0.11196 0.2196 0.0
H931 H 0.82624 0.13093 0.24088 0.0
H932 H 0.89898 0.16984 0.16274 0.0
H933 H 0.81745 0.05908 0.15805 0.0
H934 H 0.81088 0.08713 0.16656 0.0
H935 H 0.83171 0.07078 0.19334 0.0
C936 C 0.82992 0.17395 0.18017 0.0
C937 C 0.82324 0.16274 0.20665 0.0
C938 C 0.84333 0.16281 0.16782 0.0
C939 C 0.85054 0.14 0.18142 0.0
C940 C 0.84417 0.12892 0.20803 0.0
H941 H 0.94415 0.05445 0.14071 0.0
H942 H 0.91901 0.07076 0.1632 0.0
C943 C 0.83053 0.13994 0.22032 0.0
C944 C 0.86539 0.12862 0.16804 0.0
H945 H 0.86155 0.06812 0.14719 0.0
C946 C 0.89059 0.14758 0.15927 0.0
C947 C 0.8548 0.09953 0.16334 0.0
C948 C 0.82708 0.07798 0.17054 0.0
C949 C 0.90545 0.13842 0.14644 0.0
C950 C 0.89486 0.10939 0.14177 0.0
C951 C 0.86984 0.09035 0.15071 0.0
C952 C 0.90934 0.09855 0.12743 0.0
C953 C 0.93278 0.15994 0.13846 0.0
C954 C 0.91189 0.10806 0.09942 0.0
C955 C 0.92601 0.09847 0.08626 0.0
C956 C 0.93815 0.07902 0.10065 0.0
C957 C 0.93496 0.06909 0.12856 0.0
C958 C 0.92067 0.07859 0.14165 0.0
H959 H 0.94201 0.17957 0.14975 0.0
H960 H 0.94938 0.15115 0.14328 0.0
H961 H 0.92784 0.16574 0.11532 0.0
H962 H 0.90283 0.12291 0.08759 0.0
H963 H 0.9272 0.10627 0.06461 0.0
H964 H 0.07305 0.59702 0.44067 0.0
H965 H 0.10195 0.62485 0.40671 0.0
H966 H 0.12171 0.55458 0.40283 0.0
H967 H 0.09261 0.52635 0.43662 0.0
H968 H 0.16137 0.63841 0.41489 0.0
H969 H 0.09467 0.57911 0.31856 0.0
H970 H 0.08065 0.57538 0.34887 0.0
H971 H 0.10375 0.55821 0.35 0.0
C972 C 0.08329 0.58732 0.43245 0.0
C973 C 0.08049 0.55943 0.44142 0.0
C974 C 0.09982 0.60329 0.41305 0.0
C975 C 0.1137 0.59166 0.4021 0.0
C976 C 0.11075 0.56376 0.41071 0.0
H977 H 0.25631 0.69206 0.32191 0.0
H978 H 0.22528 0.65731 0.35151 0.0
C979 C 0.09423 0.54774 0.43015 0.0
C980 C 0.13244 0.60935 0.38281 0.0
H981 H 0.13989 0.61627 0.31526 0.0
C982 C 0.15674 0.63358 0.39312 0.0
C983 C 0.12614 0.60297 0.35442 0.0
C984 C 0.09978 0.57764 0.34212 0.0
C985 C 0.17496 0.65174 0.37574 0.0
C986 C 0.16887 0.64523 0.34743 0.0
C987 C 0.14456 0.621 0.33707 0.0
C988 C 0.18696 0.6641 0.32802 0.0
C989 C 0.20019 0.6781 0.38762 0.0
C990 C 0.17535 0.67857 0.30444 0.0
C991 C 0.19307 0.69853 0.2876 0.0
C992 C 0.22265 0.70427 0.29413 0.0
C993 C 0.23382 0.68865 0.31689 0.0
C994 C 0.21612 0.66872 0.33371 0.0
H995 H 0.19815 0.68314 0.40748 0.0
H996 H 0.22048 0.67489 0.39251 0.0
H997 H 0.20213 0.69657 0.37194 0.0
H998 H 0.15282 0.67515 0.29966 0.0
H999 H 0.18378 0.71014 0.27012 0.0
H1000 H 0.57559 0.9428 0.60504 0.0
H1001 H 0.60292 0.91454 0.63239 0.0
H1002 H 0.64028 0.92635 0.56271 0.0
H1003 H 0.61215 0.95373 0.53499 0.0
H1004 H 0.6085 0.86248 0.6317 0.0
H1005 H 0.71595 0.94383 0.62371 0.0
H1006 H 0.68459 0.95209 0.61442 0.0
H1007 H 0.69023 0.93481 0.59011 0.0
C1008 C 0.58943 0.93966 0.59492 0.0
C1009 C 0.59025 0.95199 0.56641 0.0
C1010 C 0.6057 0.9228 0.61122 0.0
C1011 C 0.62552 0.917 0.60136 0.0
C1012 C 0.62648 0.92948 0.57287 0.0
H1013 H 0.75659 0.84751 0.73182 0.0
H1014 H 0.72925 0.87556 0.70354 0.0
C1015 C 0.60959 0.9457 0.55626 0.0
C1016 C 0.64428 0.89858 0.62012 0.0
H1017 H 0.71435 0.89922 0.64495 0.0
C1018 C 0.63165 0.8711 0.63409 0.0
C1019 C 0.67528 0.90761 0.62522 0.0
C1020 C 0.69258 0.93624 0.61289 0.0
C1021 C 0.64745 0.85378 0.65078 0.0
C1022 C 0.67842 0.86275 0.65578 0.0
C1023 C 0.69116 0.89051 0.64237 0.0
C1024 C 0.69707 0.84418 0.67438 0.0
C1025 C 0.63027 0.82542 0.66369 0.0
C1026 C 0.69067 0.8156 0.66956 0.0
C1027 C 0.70739 0.79919 0.6859 0.0
C1028 C 0.73209 0.80905 0.70955 0.0
C1029 C 0.73837 0.83753 0.7146 0.0
C1030 C 0.72211 0.85426 0.69772 0.0
H1031 H 0.60888 0.82373 0.66457 0.0
H1032 H 0.62654 0.80861 0.65057 0.0
H1033 H 0.64227 0.82145 0.68547 0.0
H1034 H 0.6725 0.80558 0.65234 0.0
H1035 H 0.70044 0.77802 0.67981 0.0
H1036 H 0.49435 0.42282 1.01227 0.0
H1037 H 0.46481 0.38215 0.98377 0.0
H1038 H 0.52982 0.40874 0.93652 0.0
H1039 H 0.56027 0.44915 0.96621 0.0
H1040 H 0.44272 0.38836 0.92929 0.0
H1041 H 0.50618 0.32397 0.94536 0.0
H1042 H 0.51551 0.35095 0.9687 0.0
H1043 H 0.52519 0.36058 0.93517 0.0
C1044 C 0.50269 0.41959 0.99627 0.0
C1045 C 0.52948 0.43903 0.99128 0.0
C1046 C 0.48579 0.39635 0.98 0.0
C1047 C 0.49506 0.3923 0.95802 0.0
C1048 C 0.52247 0.41108 0.95373 0.0
H1049 H 0.37527 0.31173 0.80792 0.0
H1050 H 0.41308 0.3435 0.84307 0.0
C1051 C 0.53978 0.43421 0.97055 0.0
C1052 C 0.47431 0.37062 0.93773 0.0
H1053 H 0.46389 0.31282 0.9069 0.0
C1054 C 0.44735 0.37173 0.92461 0.0
C1055 C 0.48022 0.34881 0.93175 0.0
C1056 C 0.50824 0.34576 0.94618 0.0
C1057 C 0.42624 0.35185 0.9056 0.0
C1058 C 0.43253 0.33072 0.89875 0.0
C1059 C 0.45927 0.32922 0.91208 0.0
C1060 C 0.41169 0.31069 0.87706 0.0
C1061 C 0.39725 0.35354 0.89323 0.0
C1062 C 0.39915 0.2815 0.88427 0.0
C1063 C 0.37758 0.26313 0.86403 0.0
C1064 C 0.36835 0.27385 0.83645 0.0
C1065 C 0.38168 0.30293 0.82914 0.0
C1066 C 0.40327 0.32113 0.84919 0.0
H1067 H 0.39303 0.3653 0.9066 0.0
H1068 H 0.39697 0.36493 0.87191 0.0
H1069 H 0.37939 0.33212 0.89091 0.0
H1070 H 0.40548 0.27307 0.90569 0.0
H1071 H 0.36771 0.24075 0.87008 0.0
H1072 H 0.85492 0.81449 0.27913 0.0
H1073 H 0.89131 0.84768 0.31378 0.0
H1074 H 0.87533 0.78122 0.38074 0.0
H1075 H 0.83931 0.74746 0.34562 0.0
H1076 H 0.88259 0.86417 0.35615 0.0
H1077 H 0.96253 0.81619 0.39908 0.0
H1078 H 0.93398 0.80493 0.36739 0.0
H1079 H 0.92648 0.79277 0.4018 0.0
C1080 C 0.85945 0.80684 0.3012 0.0
C1081 C 0.8444 0.77847 0.30981 0.0
C1082 C 0.8802 0.82584 0.32098 0.0
C1083 C 0.88623 0.81695 0.34984 0.0
C1084 C 0.87149 0.78843 0.35851 0.0
H1085 H 0.96959 0.93872 0.47975 0.0
H1086 H 0.93512 0.90186 0.44767 0.0
C1087 C 0.85087 0.76921 0.33853 0.0
C1088 C 0.90677 0.83817 0.37065 0.0
H1089 H 0.96982 0.85531 0.4222 0.0
C1090 C 0.9017 0.86225 0.37057 0.0
C1091 C 0.93183 0.83578 0.38922 0.0
C1092 C 0.93926 0.81117 0.38928 0.0
C1093 C 0.92107 0.8841 0.38832 0.0
C1094 C 0.94575 0.88138 0.40745 0.0
C1095 C 0.9508 0.85727 0.40764 0.0
C1096 C 0.96674 0.90348 0.4272 0.0
C1097 C 0.91528 0.91022 0.38572 0.0
C1098 C 0.99616 0.91606 0.427 0.0
C1099 C 1.016 0.93681 0.44569 0.0
C1100 C 1.00668 0.94537 0.46477 0.0
C1101 C 0.97728 0.93276 0.46499 0.0
C1102 C 0.95754 0.91178 0.44658 0.0
H1103 H 0.901 0.91266 0.36473 0.0
H1104 H 0.90417 0.90841 0.40224 0.0
H1105 H 0.93569 0.92963 0.38867 0.0
H1106 H 1.00374 0.90989 0.41229 0.0
H1107 H 1.03859 0.94618 0.44521 0.0
H1108 H 0.52704 0.54398 0.59704 0.0
H1109 H 0.50701 0.56957 0.61486 0.0
H1110 H 0.46753 0.59044 0.52905 0.0
H1111 H 0.4867 0.56397 0.51111 0.0
H1112 H 0.51488 0.62217 0.61125 0.0
H1113 H 0.39927 0.56406 0.56071 0.0
H1114 H 0.42642 0.55221 0.56062 0.0
H1115 H 0.42067 0.57972 0.53513 0.0
C1116 C 0.51392 0.5538 0.58183 0.0
C1117 C 0.50851 0.55155 0.55247 0.0
C1118 C 0.50242 0.5686 0.59215 0.0
C1119 C 0.48506 0.58179 0.57357 0.0
C1120 C 0.47995 0.5799 0.54418 0.0
H1121 H 0.40854 0.69245 0.59714 0.0
H1122 H 0.42694 0.66551 0.57886 0.0
C1123 C 0.49124 0.56484 0.53383 0.0
C1124 C 0.47324 0.59807 0.58504 0.0
H1125 H 0.41145 0.60625 0.58188 0.0
C1126 C 0.49219 0.61841 0.60487 0.0
C1127 C 0.44356 0.59357 0.57705 0.0
C1128 C 0.42126 0.57101 0.55745 0.0
C1129 C 0.48263 0.6344 0.61633 0.0
C1130 C 0.45308 0.63006 0.60813 0.0
C1131 C 0.4341 0.60983 0.58828 0.0
C1132 C 0.44156 0.64644 0.6197 0.0
C1133 C 0.50451 0.65639 0.6367 0.0
C1134 C 0.44306 0.64473 0.64889 0.0
C1135 C 0.43239 0.66018 0.65951 0.0
C1136 C 0.42 0.67805 0.64133 0.0
C1137 C 0.41829 0.67945 0.61206 0.0
C1138 C 0.42869 0.6638 0.60145 0.0
H1139 H 0.527 0.66195 0.63567 0.0
H1140 H 0.5005 0.67596 0.63223 0.0
H1141 H 0.50265 0.64795 0.65867 0.0
H1142 H 0.45238 0.63126 0.66357 0.0
H1143 H 0.4343 0.65843 0.68212 0.0
H1144 H 0.63159 0.09071 0.97952 0.0
H1145 H 0.66109 0.11257 0.94501 0.0
H1146 H 0.6269 0.03226 0.90884 0.0
H1147 H 0.59782 0.00995 0.94388 0.0
H1148 H 0.68483 0.06307 0.91032 0.0
H1149 H 0.62281 0.12899 0.86341 0.0
H1150 H 0.63897 0.13357 0.90053 0.0
H1151 H 0.6117 0.09963 0.88906 0.0
C1152 C 0.63062 0.07761 0.96447 0.0
C1153 C 0.61209 0.04874 0.96412 0.0
C1154 C 0.64737 0.09015 0.94469 0.0
C1155 C 0.64547 0.07419 0.92387 0.0
C1156 C 0.6284 0.04498 0.92456 0.0
H1157 H 0.70599 0.17134 0.77509 0.0
H1158 H 0.67562 0.13496 0.80427 0.0
C1159 C 0.61186 0.03229 0.94462 0.0
C1160 C 0.66016 0.08846 0.90064 0.0
H1161 H 0.66706 0.14315 0.84997 0.0
C1162 C 0.68079 0.08038 0.89687 0.0
C1163 C 0.65416 0.11043 0.88254 0.0
C1164 C 0.63047 0.11846 0.88385 0.0
C1165 C 0.69674 0.0948 0.87641 0.0
C1166 C 0.69237 0.1183 0.85991 0.0
C1167 C 0.67068 0.12535 0.86278 0.0
C1168 C 0.71109 0.13714 0.84088 0.0
C1169 C 0.71802 0.08464 0.87274 0.0
C1170 C 0.74114 0.15022 0.8516 0.0
C1171 C 0.75852 0.1707 0.83488 0.0
C1172 C 0.74613 0.17899 0.8073 0.0
C1173 C 0.71613 0.1655 0.79633 0.0
C1174 C 0.69878 0.14467 0.81295 0.0
H1175 H 0.71117 0.06155 0.87841 0.0
H1176 H 0.72049 0.08904 0.85061 0.0
H1177 H 0.73942 0.09562 0.88716 0.0
H1178 H 0.75108 0.14549 0.87333 0.0
H1179 H 0.78156 0.18082 0.84403 0.0
H1180 H 0.10729 0.44838 0.03422 0.0
H1181 H 0.13525 0.42109 0.06241 0.0
H1182 H 0.10651 0.42058 0.13505 0.0
H1183 H 0.08051 0.44916 0.10748 0.0
H1184 H 0.14476 0.3809 0.08662 0.0
H1185 H 0.17162 0.42132 0.19041 0.0
H1186 H 0.13336 0.40679 0.17581 0.0
H1187 H 0.15671 0.43801 0.15856 0.0
C1188 C 0.10692 0.44303 0.05636 0.0
C1189 C 0.09047 0.45275 0.06721 0.0
C1190 C 0.12358 0.42662 0.07328 0.0
C1191 C 0.12576 0.41768 0.1031 0.0
C1192 C 0.10849 0.42684 0.11349 0.0
H1193 H 0.24732 0.34068 0.24025 0.0
H1194 H 0.22 0.36837 0.21174 0.0
C1195 C 0.09231 0.44362 0.09678 0.0
C1196 C 0.1447 0.3991 0.12199 0.0
H1197 H 0.18003 0.38124 0.19086 0.0
C1198 C 0.15218 0.38157 0.10946 0.0
C1199 C 0.15681 0.39831 0.1526 0.0
C1200 C 0.15458 0.41727 0.17023 0.0
C1201 C 0.16914 0.36482 0.12476 0.0
C1202 C 0.17981 0.36275 0.15554 0.0
C1203 C 0.17272 0.38064 0.16801 0.0
C1204 C 0.19832 0.34382 0.17455 0.0
C1205 C 0.17642 0.35032 0.10658 0.0
C1206 C 0.19758 0.3185 0.16627 0.0
C1207 C 0.21441 0.30232 0.1831 0.0
C1208 C 0.23351 0.30877 0.21081 0.0
C1209 C 0.23379 0.33351 0.21962 0.0
C1210 C 0.21733 0.35002 0.20254 0.0
H1211 H 0.17502 0.36016 0.08454 0.0
H1212 H 0.19864 0.35127 0.11542 0.0
H1213 H 0.16068 0.32789 0.10537 0.0
H1214 H 0.18322 0.31008 0.14649 0.0
H1215 H 0.21187 0.28391 0.17407 0.0
H1216 H 0.62678 0.56721 0.97899 0.0
H1217 H 0.65344 0.59774 0.94435 0.0
H1218 H 0.57509 0.57141 0.87777 0.0
H1219 H 0.54791 0.54061 0.91262 0.0
H1220 H 0.66025 0.58487 0.89459 0.0
H1221 H 0.60597 0.65899 0.87065 0.0
H1222 H 0.60372 0.63397 0.90127 0.0
H1223 H 0.58266 0.62215 0.86668 0.0
C1224 C 0.61507 0.56771 0.95698 0.0
C1225 C 0.58506 0.5515 0.94868 0.0
C1226 C 0.63046 0.58523 0.93715 0.0
C1227 C 0.61629 0.58728 0.90849 0.0
C1228 C 0.58645 0.57056 0.89986 0.0
H1229 H 0.68216 0.69704 0.76647 0.0
H1230 H 0.65188 0.66381 0.79749 0.0
C1231 C 0.57097 0.55278 0.91976 0.0
C1232 C 0.63305 0.60722 0.88807 0.0
H1233 H 0.64151 0.66866 0.84622 0.0
C1234 C 0.65609 0.60314 0.88393 0.0
C1235 C 0.62768 0.6311 0.87416 0.0
C1236 C 0.60383 0.6371 0.87846 0.0
C1237 C 0.67377 0.62213 0.86623 0.0
C1238 C 0.66883 0.64639 0.85279 0.0
C1239 C 0.64549 0.65023 0.85661 0.0
C1240 C 0.68739 0.6678 0.83444 0.0
C1241 C 0.69723 0.61565 0.8617 0.0
C1242 C 0.71747 0.68192 0.84497 0.0
C1243 C 0.7349 0.70091 0.82719 0.0
C1244 C 0.72258 0.70641 0.79855 0.0
C1245 C 0.69237 0.6932 0.78839 0.0
C1246 C 0.675 0.67415 0.80612 0.0
H1247 H 0.69286 0.59283 0.86651 0.0
H1248 H 0.6995 0.62163 0.83952 0.0
H1249 H 0.71814 0.62787 0.87612 0.0
H1250 H 0.72754 0.67806 0.86693 0.0
H1251 H 0.75806 0.71088 0.83573 0.0
H1252 H 0.70751 0.29517 0.22388 0.0
H1253 H 0.70799 0.34205 0.20611 0.0
H1254 H 0.77066 0.37714 0.28288 0.0
H1255 H 0.76893 0.33012 0.30117 0.0
H1256 H 0.72783 0.39026 0.27494 0.0
H1257 H 0.75903 0.41449 0.17328 0.0
H1258 H 0.72963 0.38039 0.17313 0.0
H1259 H 0.76393 0.38623 0.19826 0.0
C1260 C 0.72187 0.31311 0.23651 0.0
C1261 C 0.73798 0.30926 0.26384 0.0
C1262 C 0.72235 0.33991 0.22633 0.0
C1263 C 0.73961 0.36322 0.24307 0.0
C1264 C 0.75718 0.35951 0.26962 0.0
H1265 H 0.71271 0.51424 0.16118 0.0
H1266 H 0.74055 0.48761 0.18966 0.0
C1267 C 0.75617 0.3327 0.28003 0.0
C1268 C 0.73616 0.39025 0.23477 0.0
H1269 H 0.72856 0.43651 0.17798 0.0
C1270 C 0.72869 0.40077 0.25394 0.0
C1271 C 0.73791 0.40445 0.2077 0.0
C1272 C 0.7484 0.39594 0.1871 0.0
C1273 C 0.72083 0.42378 0.246 0.0
C1274 C 0.7195 0.43595 0.21789 0.0
C1275 C 0.72913 0.42688 0.19944 0.0
C1276 C 0.70497 0.45543 0.20603 0.0
C1277 C 0.71334 0.43429 0.26763 0.0
C1278 C 0.67604 0.44675 0.20666 0.0
C1279 C 0.66021 0.46218 0.19082 0.0
C1280 C 0.67287 0.48627 0.17361 0.0
C1281 C 0.70238 0.49595 0.17445 0.0
C1282 C 0.71829 0.48063 0.19053 0.0
H1283 H 0.72615 0.43136 0.28935 0.0
H1284 H 0.71731 0.45701 0.26308 0.0
H1285 H 0.69016 0.4218 0.26742 0.0
H1286 H 0.66509 0.42706 0.21796 0.0
H1287 H 0.63763 0.45439 0.19086 0.0
H1288 H 0.97833 0.46569 0.44279 0.0
H1289 H 0.93796 0.42245 0.42406 0.0
H1290 H 0.88958 0.42555 0.47881 0.0
H1291 H 0.93034 0.46869 0.49814 0.0
H1292 H 0.90936 0.36888 0.45897 0.0
H1293 H 0.83784 0.42183 0.39359 0.0
H1294 H 0.87655 0.44111 0.40467 0.0
H1295 H 0.85508 0.42995 0.4301 0.0
C1296 C 0.95928 0.45693 0.45112 0.0
C1297 C 0.95751 0.47024 0.47209 0.0
C1298 C 0.93622 0.43237 0.44034 0.0
C1299 C 0.91092 0.42092 0.45013 0.0
C1300 C 0.90896 0.43421 0.47099 0.0
H1301 H 0.7779 0.25722 0.38331 0.0
H1302 H 0.80503 0.29438 0.41733 0.0
C1303 C 0.93215 0.45879 0.48191 0.0
C1304 C 0.88665 0.39524 0.4379 0.0
H1305 H 0.82321 0.37394 0.38705 0.0
C1306 C 0.89015 0.36969 0.44372 0.0
C1307 C 0.86179 0.39664 0.41803 0.0
C1308 C 0.85738 0.4238 0.411 0.0
C1309 C 0.87003 0.34574 0.42902 0.0
C1310 C 0.84593 0.34756 0.40809 0.0
C1311 C 0.84166 0.37268 0.40332 0.0
C1312 C 0.82784 0.32542 0.38783 0.0
C1313 C 0.87561 0.31924 0.43454 0.0
C1314 C 0.83155 0.33086 0.36013 0.0
C1315 C 0.81634 0.30986 0.34095 0.0
C1316 C 0.79693 0.28312 0.34904 0.0
C1317 C 0.79268 0.27777 0.37661 0.0
C1318 C 0.80815 0.29885 0.39599 0.0
H1319 H 0.89628 0.32187 0.45044 0.0
H1320 H 0.8577 0.30155 0.44243 0.0
H1321 H 0.87623 0.31321 0.41449 0.0
H1322 H 0.84671 0.35124 0.35353 0.0
H1323 H 0.81985 0.31459 0.31974 0.0
H1324 H 0.56437 0.54833 0.44976 0.0
H1325 H 0.58755 0.57783 0.41144 0.0
H1326 H 0.66419 0.62275 0.474 0.0
H1327 H 0.64152 0.59372 0.51181 0.0
H1328 H 0.61503 0.64045 0.39985 0.0
H1329 H 0.69312 0.59067 0.42457 0.0
H1330 H 0.66027 0.5749 0.4368 0.0
H1331 H 0.69127 0.60346 0.4548 0.0
C1332 C 0.58601 0.56473 0.45522 0.0
C1333 C 0.60113 0.56857 0.48385 0.0
C1334 C 0.59928 0.58156 0.43334 0.0
C1335 C 0.62788 0.60231 0.43978 0.0
C1336 C 0.64238 0.60667 0.46837 0.0
H1337 H 0.73144 0.74192 0.33669 0.0
H1338 H 0.70201 0.71309 0.37036 0.0
C1339 C 0.62926 0.59004 0.49003 0.0
C1340 C 0.64339 0.61896 0.41714 0.0
H1341 H 0.70335 0.63279 0.39423 0.0
C1342 C 0.6342 0.63863 0.39844 0.0
C1343 C 0.66838 0.61658 0.41509 0.0
C1344 C 0.67877 0.5951 0.43369 0.0
C1345 C 0.64967 0.65635 0.37831 0.0
C1346 C 0.67529 0.65467 0.377 0.0
C1347 C 0.68399 0.63448 0.39529 0.0
C1348 C 0.69294 0.67278 0.35626 0.0
C1349 C 0.63817 0.67642 0.35835 0.0
C1350 C 0.69848 0.65999 0.33749 0.0
C1351 C 0.7155 0.67639 0.31845 0.0
C1352 C 0.72772 0.7062 0.3176 0.0
C1353 C 0.72239 0.71908 0.33658 0.0
C1354 C 0.70528 0.70256 0.35572 0.0
H1355 H 0.61487 0.66999 0.35688 0.0
H1356 H 0.65025 0.69791 0.36631 0.0
H1357 H 0.64102 0.67759 0.33673 0.0
H1358 H 0.68945 0.63715 0.33743 0.0
H1359 H 0.71897 0.66553 0.30428 0.0
H1360 H 0.86465 0.30193 0.82072 0.0
H1361 H 0.8918 0.3267 0.86411 0.0
H1362 H 0.81236 0.30131 0.88924 0.0
H1363 H 0.78496 0.27712 0.8453 0.0
H1364 H 0.84335 0.35626 0.89263 0.0
H1365 H 0.91531 0.30177 0.94591 0.0
H1366 H 0.91819 0.31313 0.91004 0.0
H1367 H 0.88431 0.28719 0.9169 0.0
C1368 C 0.85303 0.30131 0.83569 0.0
C1369 C 0.82274 0.28781 0.82965 0.0
C1370 C 0.86859 0.31522 0.86063 0.0
C1371 C 0.85418 0.31546 0.8802 0.0
C1372 C 0.82393 0.30124 0.87454 0.0
H1373 H 0.96452 0.41069 0.03162 0.0
H1374 H 0.92753 0.37139 1.00291 0.0
C1375 C 0.80832 0.28749 0.84946 0.0
C1376 C 0.87047 0.33311 0.90485 0.0
H1377 H 0.93205 0.35004 0.95829 0.0
C1378 C 0.86241 0.3545 0.90735 0.0
C1379 C 0.89502 0.33056 0.92444 0.0
C1380 C 0.90349 0.30669 0.92438 0.0
C1381 C 0.87933 0.37456 0.92761 0.0
C1382 C 0.90532 0.37357 0.9454 0.0
C1383 C 0.91234 0.35104 0.9443 0.0
C1384 C 0.92673 0.39709 0.96322 0.0
C1385 C 0.86953 0.39703 0.92933 0.0
C1386 C 0.93866 0.42435 0.95034 0.0
C1387 C 0.95954 0.44663 0.96657 0.0
C1388 C 0.96917 0.44203 0.99599 0.0
C1389 C 0.95734 0.41475 1.00897 0.0
C1390 C 0.93631 0.39236 0.99264 0.0
H1391 H 0.84564 0.3895 0.92188 0.0
H1392 H 0.87632 0.40355 0.95133 0.0
H1393 H 0.87925 0.41589 0.91541 0.0
H1394 H 0.93211 0.42832 0.92759 0.0
H1395 H 0.96835 0.46744 0.956 0.0
H1396 H 0.83944 0.84607 0.20908 0.0
H1397 H 0.87193 0.87395 0.17818 0.0
H1398 H 0.85114 0.79862 0.13889 0.0
H1399 H 0.81862 0.77021 0.17012 0.0
H1400 H 0.92196 0.86125 0.17197 0.0
H1401 H 0.83792 0.862 0.07282 0.0
H1402 H 0.83115 0.8572 0.10754 0.0
H1403 H 0.83307 0.82906 0.09391 0.0
C1404 C 0.84151 0.83527 0.1938 0.0
C1405 C 0.82613 0.80573 0.19214 0.0
C1406 C 0.86027 0.85135 0.17617 0.0
C1407 C 0.86398 0.8385 0.15611 0.0
C1408 C 0.84854 0.80908 0.15411 0.0
H1409 H 0.95677 0.90653 0.02213 0.0
H1410 H 0.92464 0.87831 0.05321 0.0
C1411 C 0.82992 0.79285 0.172 0.0
C1412 C 0.8843 0.85597 0.13766 0.0
H1413 H 0.88646 0.88543 0.07011 0.0
C1414 C 0.91425 0.86654 0.14967 0.0
C1415 C 0.87429 0.86284 0.10859 0.0
C1416 C 0.84237 0.85239 0.09475 0.0
C1417 C 0.93441 0.88334 0.13334 0.0
C1418 C 0.92443 0.89072 0.10424 0.0
C1419 C 0.89436 0.88006 0.09233 0.0
C1420 C 0.9446 0.90851 0.08549 0.0
C1421 C 0.96619 0.89217 0.14733 0.0
C1422 C 0.96669 0.93532 0.0928 0.0
C1423 C 0.98555 0.95143 0.07509 0.0
C1424 C 0.98239 0.94141 0.04935 0.0
C1425 C 0.95994 0.91494 0.04181 0.0
C1426 C 0.9414 0.89874 0.05961 0.0
H1427 H 0.96987 0.87799 0.16637 0.0
H1428 H 0.97824 0.89212 0.13244 0.0
H1429 H 0.97525 0.91389 0.15436 0.0
H1430 H 0.96931 0.94393 0.11215 0.0
H1431 H 1.00258 0.97167 0.08157 0.0
H1432 H 0.832 0.09593 0.79146 0.0
H1433 H 0.83218 0.04865 0.80117 0.0
H1434 H 0.84618 0.0547 0.89065 0.0
H1435 H 0.84557 0.10157 0.88101 0.0
H1436 H 0.88183 0.04623 0.83121 0.0
H1437 H 0.79792 0.9706 0.88423 0.0
H1438 H 0.79394 1.0006 0.86161 0.0
H1439 H 0.81228 1.00426 0.89869 0.0
C1440 C 0.83402 0.08668 0.81307 0.0
C1441 C 0.83923 0.10252 0.83558 0.0
C1442 C 0.83398 0.05963 0.81855 0.0
C1443 C 0.83882 0.04794 0.84657 0.0
C1444 C 0.84168 0.0629 0.86878 0.0
H1445 H 0.93993 0.01027 0.97476 0.0
H1446 H 0.89768 0.00975 0.9379 0.0
C1447 C 0.84189 0.08994 0.86334 0.0
C1448 C 0.84825 0.02435 0.85369 0.0
H1449 H 0.84748 0.97144 0.90543 0.0
C1450 C 0.87371 0.029 0.84654 0.0
C1451 C 0.83728 1.00153 0.87313 0.0
C1452 C 0.80863 0.99381 0.87955 0.0
C1453 C 0.8911 0.01476 0.86191 0.0
C1454 C 0.88225 0.99494 0.88455 0.0
C1455 C 0.85452 0.98707 0.88847 0.0
C1456 C 0.90393 0.98874 0.90833 0.0
C1457 C 0.9204 0.02382 0.85618 0.0
C1458 C 0.92096 0.97611 0.90443 0.0
C1459 C 0.94574 0.97696 0.92542 0.0
C1460 C 0.95345 0.99001 0.95072 0.0
C1461 C 0.93489 1.00038 0.95542 0.0
C1462 C 0.91048 0.99984 0.93441 0.0
H1463 H 0.92451 0.04092 0.83895 0.0
H1464 H 0.93776 0.0315 0.87565 0.0
H1465 H 0.92185 1.0055 0.84981 0.0
H1466 H 0.91592 0.9669 0.88468 0.0
H1467 H 0.95931 0.96826 0.92141 0.0
H1468 H 0.81612 0.21816 0.68139 0.0
H1469 H 0.78566 0.19682 0.6364 0.0
H1470 H 0.70926 0.17713 0.66483 0.0
H1471 H 0.73934 0.19836 0.70939 0.0
H1472 H 0.7471 0.14151 0.63079 0.0
H1473 H 0.68971 0.21144 0.58482 0.0
H1474 H 0.72241 0.22169 0.61296 0.0
H1475 H 0.68786 0.20006 0.62096 0.0
C1476 C 0.79281 0.20953 0.67779 0.0
C1477 C 0.78001 0.20996 0.6987 0.0
C1478 C 0.7755 0.19748 0.65213 0.0
C1479 C 0.74523 0.18598 0.64707 0.0
C1480 C 0.73254 0.18664 0.66794 0.0
H1481 H 0.60849 0.04544 0.57134 0.0
H1482 H 0.6507 0.0816 0.59902 0.0
C1483 C 0.74976 0.19858 0.69349 0.0
C1484 C 0.72659 0.17069 0.62138 0.0
H1485 H 0.66465 0.16312 0.57021 0.0
C1486 C 0.72948 0.14661 0.61708 0.0
C1487 C 0.70392 0.17762 0.60321 0.0
C1488 C 0.70098 0.20431 0.60553 0.0
C1489 C 0.70888 0.128 0.59659 0.0
C1490 C 0.68464 0.13348 0.58039 0.0
C1491 C 0.68304 0.15876 0.58302 0.0
C1492 C 0.65936 0.11184 0.56307 0.0
C1493 C 0.71268 0.1021 0.59318 0.0
C1494 C 0.64974 0.11726 0.53381 0.0
C1495 C 0.62542 0.09661 0.5179 0.0
C1496 C 0.61037 0.07046 0.53118 0.0
C1497 C 0.61979 0.06536 0.56054 0.0
C1498 C 0.64402 0.0859 0.57634 0.0
H1499 H 0.73584 0.10557 0.59981 0.0
H1500 H 0.70099 0.08413 0.60686 0.0
H1501 H 0.7038 0.09609 0.57087 0.0
H1502 H 0.66115 0.13733 0.52331 0.0
H1503 H 0.61847 0.10104 0.49529 0.0
H1504 H 0.59897 0.92037 0.3956 0.0
H1505 H 0.6276 0.89532 0.39367 0.0
H1506 H 0.65335 0.88805 0.48509 0.0
H1507 H 0.62417 0.91281 0.48731 0.0
H1508 H 0.6995 0.90946 0.45875 0.0
H1509 H 0.61325 0.81148 0.41188 0.0
H1510 H 0.60885 0.84235 0.3926 0.0
H1511 H 0.60625 0.83438 0.42897 0.0
C1512 C 0.61017 0.91292 0.41534 0.0
C1513 C 0.60918 0.91845 0.4416 0.0
C1514 C 0.62652 0.89859 0.41419 0.0
C1515 C 0.6421 0.8894 0.43925 0.0
C1516 C 0.64122 0.89479 0.46555 0.0
H1517 H 0.7287 0.80204 0.39186 0.0
H1518 H 0.70515 0.81112 0.42254 0.0
C1519 C 0.62473 0.90908 0.46674 0.0
C1520 C 0.66097 0.8762 0.43739 0.0
H1521 H 0.66025 0.826 0.40239 0.0
C1522 C 0.69098 0.89075 0.4471 0.0
C1523 C 0.64979 0.85145 0.42282 0.0
C1524 C 0.61774 0.83384 0.41375 0.0
C1525 C 0.71014 0.88275 0.44013 0.0
C1526 C 0.69885 0.85996 0.42269 0.0
C1527 C 0.66891 0.84373 0.41545 0.0
C1528 C 0.71694 0.85531 0.40808 0.0
C1529 C 0.74222 0.89953 0.45047 0.0
C1530 C 0.73146 0.87717 0.38996 0.0
C1531 C 0.74467 0.87204 0.37236 0.0
C1532 C 0.74344 0.84484 0.37234 0.0
C1533 C 0.72974 0.82315 0.39122 0.0
C1534 C 0.7165 0.82833 0.40889 0.0
H1535 H 0.74732 0.90791 0.47132 0.0
H1536 H 0.75458 0.88654 0.45252 0.0
H1537 H 0.74954 0.91792 0.43515 0.0
H1538 H 0.73126 0.8979 0.38828 0.0
H1539 H 0.75453 0.88906 0.3577 0.0
H1540 H 0.73442 0.16782 0.39844 0.0
H1541 H 0.74764 0.13064 0.42855 0.0
H1542 H 0.75847 0.10545 0.35616 0.0
H1543 H 0.74482 0.14185 0.32596 0.0
H1544 H 0.73268 0.05933 0.39335 0.0
H1545 H 0.83328 0.1436 0.45016 0.0
H1546 H 0.79919 0.14313 0.45028 0.0
H1547 H 0.81047 0.15161 0.41771 0.0
C1548 C 0.73914 0.15404 0.38885 0.0
C1549 C 0.73908 0.15816 0.35989 0.0
C1550 C 0.74678 0.13289 0.40611 0.0
C1551 C 0.75449 0.11564 0.39464 0.0
C1552 C 0.75266 0.11858 0.36545 0.0
H1553 H 0.84971 0.02572 0.40782 0.0
H1554 H 0.81098 0.0414 0.39892 0.0
C1555 C 0.74505 0.1396 0.34825 0.0
C1556 C 0.7673 0.0964 0.41288 0.0
H1557 H 0.83113 0.0978 0.45671 0.0
C1558 C 0.75392 0.06756 0.40776 0.0
C1559 C 0.79491 0.10716 0.43185 0.0
C1560 C 0.81051 0.13806 0.43785 0.0
C1561 C 0.7683 0.04961 0.41957 0.0
C1562 C 0.79688 0.06097 0.43652 0.0
C1563 C 0.80923 0.08917 0.44362 0.0
C1564 C 0.81611 0.04583 0.44308 0.0
C1565 C 0.75323 0.01895 0.41284 0.0
C1566 C 0.83181 0.04281 0.47095 0.0
C1567 C 0.8541 0.0337 0.47618 0.0
C1568 C 0.86131 0.02781 0.45355 0.0
C1569 C 0.84451 0.02952 0.42583 0.0
C1570 C 0.82222 0.03847 0.42068 0.0
H1571 H 0.72943 0.01128 0.40932 0.0
H1572 H 0.75759 0.01674 0.393 0.0
H1573 H 0.761 1.00532 0.43013 0.0
H1574 H 0.82758 0.04859 0.48852 0.0
H1575 H 0.86632 0.03221 0.49782 0.0
H1576 H 0.69566 0.15665 0.2807 0.0
H1577 H 0.67551 0.12579 0.24154 0.0
H1578 H 0.61403 0.16331 0.20284 0.0
H1579 H 0.63642 0.19617 0.2407 0.0
H1580 H 0.6284 0.08669 0.22293 0.0
H1581 H 0.64181 0.17078 0.13574 0.0
H1582 H 0.6565 0.17873 0.17243 0.0
H1583 H 0.61903 0.1716 0.15569 0.0
C1584 C 0.67822 0.15859 0.2635 0.0
C1585 C 0.66809 0.17921 0.2631 0.0
C1586 C 0.66647 0.14078 0.24123 0.0
C1587 C 0.64369 0.14264 0.21855 0.0
C1588 C 0.63238 0.16218 0.21924 0.0
H1589 H 0.54861 1.00451 0.10324 0.0
H1590 H 0.56343 0.03569 0.14117 0.0
C1591 C 0.64486 0.18068 0.24106 0.0
C1592 C 0.63181 0.12391 0.19457 0.0
H1593 H 0.61333 0.12363 0.12226 0.0
C1594 C 0.62535 0.09488 0.20093 0.0
C1595 C 0.62811 0.13445 0.16572 0.0
C1596 C 0.63704 0.16562 0.157 0.0
C1597 C 0.61572 0.07629 0.17952 0.0
C1598 C 0.61069 0.08658 0.15066 0.0
C1599 C 0.61684 0.11554 0.14428 0.0
C1600 C 0.60036 0.06809 0.12676 0.0
C1601 C 0.6123 0.04611 0.18833 0.0
C1602 C 0.61492 0.07653 0.10488 0.0
C1603 C 0.60569 0.05923 0.08257 0.0
C1604 C 0.58217 0.03286 0.08208 0.0
C1605 C 0.56727 0.02451 0.10358 0.0
C1606 C 0.5759 0.04223 0.12539 0.0
H1607 H 0.6259 0.04431 0.20995 0.0
H1608 H 0.58945 0.03265 0.18885 0.0
H1609 H 0.61829 0.03768 0.17338 0.0
H1610 H 0.63371 0.0964 0.10519 0.0
H1611 H 0.61734 0.06619 0.06604 0.0
H1612 H 0.78421 0.87808 0.89042 0.0
H1613 H 0.75671 0.89811 0.90461 0.0
H1614 H 0.70668 0.89922 0.81831 0.0
H1615 H 0.73465 0.87992 0.8036 0.0
H1616 H 0.74165 0.94939 0.88096 0.0
H1617 H 0.64964 0.8432 0.86965 0.0
H1618 H 0.68629 0.84803 0.8729 0.0
H1619 H 0.66629 0.85891 0.84031 0.0
C1620 C 0.76798 0.88335 0.87423 0.0
C1621 C 0.76141 0.87705 0.84589 0.0
C1622 C 0.75221 0.89468 0.88244 0.0
C1623 C 0.72952 0.89975 0.86255 0.0
C1624 C 0.72398 0.89514 0.83398 0.0
H1625 H 0.5896 0.91913 0.90383 0.0
H1626 H 0.6197 0.91504 0.87703 0.0
C1627 C 0.73985 0.88395 0.82569 0.0
C1628 C 0.70996 0.90709 0.87233 0.0
H1629 H 0.6439 0.8779 0.88763 0.0
C1630 C 0.72016 0.93393 0.8822 0.0
C1631 C 0.68194 0.88684 0.87372 0.0
C1632 C 0.67026 0.85754 0.86375 0.0
C1633 C 0.7031 0.94094 0.8939 0.0
C1634 C 0.67552 0.92024 0.89644 0.0
C1635 C 0.66503 0.89372 0.88568 0.0
C1636 C 0.65792 0.92479 0.91188 0.0
C1637 C 0.71481 0.97043 0.90339 0.0
C1638 C 0.66931 0.93129 0.9404 0.0
C1639 C 0.65223 0.93364 0.95567 0.0
C1640 C 0.62326 0.92914 0.94284 0.0
C1641 C 0.61179 0.9225 0.9143 0.0
C1642 C 0.629 0.92034 0.89895 0.0
H1643 H 0.73072 0.98588 0.89149 0.0
H1644 H 0.69721 0.9775 0.90053 0.0
H1645 H 0.72612 0.97063 0.92622 0.0
H1646 H 0.69124 0.93385 0.95111 0.0
H1647 H 0.66149 0.9383 0.97777 0.0
H1648 H 1.02574 0.95627 0.60692 0.0
H1649 H 0.99728 0.92385 0.63998 0.0
H1650 H 0.91869 0.92049 0.57898 0.0
H1651 H 0.94674 0.95262 0.54589 0.0
H1652 H 0.95678 0.92895 0.66351 0.0
H1653 H 0.90418 0.83651 0.5978 0.0
H1654 H 0.93567 0.86731 0.59162 0.0
H1655 H 0.90046 0.86803 0.57948 0.0
C1656 C 1.00241 0.94872 0.60054 0.0
C1657 C 0.98865 0.95708 0.57357 0.0
C1658 C 0.98614 0.93013 0.61949 0.0
C1659 C 0.95576 0.91924 0.61183 0.0
C1660 C 0.94204 0.92806 0.58522 0.0
H1661 H 0.81499 0.80459 0.69014 0.0
H1662 H 0.84534 0.83574 0.65808 0.0
C1663 C 0.95822 0.94667 0.56635 0.0
C1664 C 0.93832 0.89889 0.63162 0.0
H1665 H 0.88602 0.83209 0.63769 0.0
C1666 C 0.94147 0.9077 0.65796 0.0
C1667 C 0.91818 0.87116 0.62438 0.0
C1668 C 0.91451 0.86001 0.5969 0.0
C1669 C 0.92459 0.88989 0.67687 0.0
C1670 C 0.9044 0.86213 0.66964 0.0
C1671 C 0.90141 0.85329 0.64334 0.0
C1672 C 0.88599 0.8421 0.68889 0.0
C1673 C 0.9279 0.9014 0.70403 0.0
C1674 C 0.89856 0.83449 0.71671 0.0
C1675 C 0.88123 0.81676 0.73508 0.0
C1676 C 0.85089 0.80596 0.72602 0.0
C1677 C 0.83829 0.81262 0.69783 0.0
C1678 C 0.85565 0.83047 0.67948 0.0
H1679 H 0.93777 0.92491 0.70267 0.0
H1680 H 0.90671 0.8939 0.70929 0.0
H1681 H 0.9423 0.89401 0.72168 0.0
H1682 H 0.92185 0.84242 0.72432 0.0
H1683 H 0.89164 0.81184 0.75657 0.0
H1684 H 0.29073 0.88881 0.83916 0.0
H1685 H 0.26552 0.90693 0.85957 0.0
H1686 H 0.18532 0.83629 0.83066 0.0
H1687 H 0.21004 0.81835 0.80954 0.0
H1688 H 0.21745 0.92233 0.83462 0.0
H1689 H 0.19088 0.833 0.91602 0.0
H1690 H 0.21753 0.83984 0.89674 0.0
H1691 H 0.17965 0.8227 0.8803 0.0
C1692 C 0.26765 0.8772 0.83669 0.0
C1693 C 0.25272 0.8518 0.82265 0.0
C1694 C 0.25323 0.88759 0.84864 0.0
C1695 C 0.22348 0.87283 0.84723 0.0
C1696 C 0.20837 0.84786 0.83273 0.0
H1697 H 0.09653 0.89063 0.91332 0.0
H1698 H 0.12321 0.87577 0.8915 0.0
C1699 C 0.22269 0.83754 0.82065 0.0
C1700 C 0.20827 0.88342 0.86089 0.0
H1701 H 0.16977 0.86547 0.91139 0.0
C1702 C 0.20715 0.90994 0.85151 0.0
C1703 C 0.19465 0.86739 0.88293 0.0
C1704 C 0.19586 0.83926 0.89484 0.0
C1705 C 0.19226 0.92042 0.86289 0.0
C1706 C 0.17863 0.90439 0.88502 0.0
C1707 C 0.18002 0.87795 0.89451 0.0
C1708 C 0.16235 0.91417 0.89826 0.0
C1709 C 0.19046 0.94817 0.85026 0.0
C1710 C 0.17518 0.94075 0.90983 0.0
C1711 C 0.15977 0.94944 0.92233 0.0
C1712 C 0.13119 0.93161 0.92414 0.0
C1713 C 0.11855 0.90491 0.9128 0.0
C1714 C 0.13385 0.89637 0.90012 0.0
H1715 H 0.19394 0.95327 0.82846 0.0
H1716 H 0.16914 0.94784 0.8494 0.0
H1717 H 0.20757 0.96541 0.86355 0.0
H1718 H 0.19734 0.95474 0.90962 0.0
H1719 H 0.17051 0.96994 0.93112 0.0
H1720 H 1.0067 0.50571 0.59532 0.0
H1721 H 0.98252 0.47963 0.63344 0.0
H1722 H 0.95528 0.40113 0.59643 0.0
H1723 H 0.97951 0.42676 0.55861 0.0
H1724 H 0.92427 0.44438 0.62934 0.0
H1725 H 0.99314 0.38554 0.67903 0.0
H1726 H 1.00361 0.41603 0.65434 0.0
H1727 H 0.97923 0.38172 0.64156 0.0
C1728 C 0.99573 0.48287 0.59541 0.0
C1729 C 0.99523 0.46829 0.57403 0.0
C1730 C 0.98192 0.46804 0.61718 0.0
C1731 C 0.96761 0.43845 0.618 0.0
C1732 C 0.96682 0.42392 0.59655 0.0
H1733 H 0.82855 0.31733 0.68466 0.0
H1734 H 0.86052 0.35568 0.65876 0.0
C1735 C 0.98058 0.43866 0.57485 0.0
C1736 C 0.95252 0.42252 0.64062 0.0
H1737 H 0.94658 0.36651 0.68961 0.0
C1738 C 0.92939 0.42764 0.64288 0.0
C1739 C 0.95964 0.40112 0.65864 0.0
C1740 C 0.98546 0.39596 0.65851 0.0
C1741 C 0.91206 0.41071 0.66156 0.0
C1742 C 0.91778 0.38782 0.67792 0.0
C1743 C 0.94199 0.38385 0.67685 0.0
C1744 C 0.89785 0.36641 0.69459 0.0
C1745 C 0.88762 0.41735 0.66328 0.0
C1746 C 0.90828 0.35921 0.72324 0.0
C1747 C 0.89001 0.33695 0.73806 0.0
C1748 C 0.86101 0.32157 0.72445 0.0
C1749 C 0.85057 0.32911 0.69591 0.0
C1750 C 0.86884 0.35117 0.68108 0.0
H1751 H 0.89239 0.44019 0.65794 0.0
H1752 H 0.86766 0.40526 0.64768 0.0
H1753 H 0.88337 0.4115 0.68476 0.0
H1754 H 0.93068 0.37053 0.734 0.0
H1755 H 0.89867 0.33164 0.76006 0.0
H1756 H 0.4954 0.06537 0.41882 0.0
H1757 H 0.46816 0.0936 0.39191 0.0
H1758 H 0.44116 0.09137 0.46629 0.0
H1759 H 0.46976 0.06487 0.49327 0.0
H1760 H 0.4272 0.1033 0.3658 0.0
H1761 H 0.43684 0.16129 0.45218 0.0
H1762 H 0.45846 0.14163 0.45685 0.0
H1763 H 0.42152 0.12387 0.46038 0.0
C1764 C 0.48414 0.07101 0.43009 0.0
C1765 C 0.48655 0.06172 0.45973 0.0
C1766 C 0.4677 0.08781 0.41399 0.0
C1767 C 0.45141 0.09733 0.42538 0.0
C1768 C 0.45336 0.08728 0.45497 0.0
H1769 H 0.36672 0.23002 0.35194 0.0
H1770 H 0.39455 0.20235 0.37924 0.0
C1771 C 0.47016 0.07088 0.47118 0.0
C1772 C 0.43286 0.11625 0.40666 0.0
H1773 H 0.40336 0.16403 0.40984 0.0
C1774 C 0.42245 0.11643 0.37624 0.0
C1775 C 0.42535 0.13533 0.41741 0.0
C1776 C 0.43629 0.1409 0.44839 0.0
C1777 C 0.4063 0.13292 0.35815 0.0
C1778 C 0.39745 0.1508 0.36904 0.0
C1779 C 0.40823 0.15099 0.39942 0.0
C1780 C 0.37859 0.16942 0.35026 0.0
C1781 C 0.40009 0.13154 0.32661 0.0
C1782 C 0.35792 0.16267 0.32312 0.0
C1783 C 0.34174 0.17951 0.3066 0.0
C1784 C 0.34348 0.20489 0.31539 0.0
C1785 C 0.36347 0.21141 0.34276 0.0
C1786 C 0.38003 0.19476 0.35912 0.0
H1787 H 0.41516 0.12506 0.32103 0.0
H1788 H 0.37786 0.11549 0.31902 0.0
H1789 H 0.40207 0.15236 0.31524 0.0
H1790 H 0.35322 0.14348 0.31419 0.0
H1791 H 0.32706 0.17197 0.2865 0.0
H1792 H 0.58644 0.58812 0.02299 0.0
H1793 H 0.61532 0.62439 0.05686 0.0
H1794 H 0.5428 0.59912 0.09357 0.0
H1795 H 0.51324 0.56278 0.05886 0.0
H1796 H 0.57593 0.65916 0.08877 0.0
H1797 H 0.64527 0.60081 0.13963 0.0
H1798 H 0.64252 0.6083 0.10222 0.0
H1799 H 0.61083 0.58519 0.11477 0.0
C1800 C 0.57648 0.59047 0.03805 0.0
C1801 C 0.54775 0.57253 0.0386 0.0
C1802 C 0.59305 0.61114 0.05742 0.0
C1803 C 0.58139 0.61396 0.07808 0.0
C1804 C 0.55219 0.59707 0.07784 0.0
H1805 H 0.69793 0.69685 0.22972 0.0
H1806 H 0.65876 0.66418 0.19619 0.0
C1807 C 0.53537 0.57642 0.05809 0.0
C1808 C 0.60049 0.63357 0.10064 0.0
H1809 H 0.66359 0.64844 0.15171 0.0
C1810 C 0.59495 0.65675 0.10281 0.0
C1811 C 0.62503 0.63006 0.11914 0.0
C1812 C 0.63115 0.60459 0.11907 0.0
C1813 C 0.61393 0.67711 0.12247 0.0
C1814 C 0.63932 0.6744 0.13989 0.0
C1815 C 0.64431 0.65073 0.13817 0.0
C1816 C 0.66099 0.69539 0.16052 0.0
C1817 C 0.60643 0.70109 0.12458 0.0
C1818 C 0.67515 0.72399 0.15174 0.0
C1819 C 0.69742 0.74292 0.1711 0.0
C1820 C 0.70616 0.73329 0.19928 0.0
C1821 C 0.69172 0.70481 0.20805 0.0
C1822 C 0.6693 0.68611 0.18892 0.0
H1823 H 0.58288 0.6956 0.11635 0.0
H1824 H 0.61304 0.70685 0.14685 0.0
H1825 H 0.61797 0.71992 0.11163 0.0
H1826 H 0.66962 0.7315 0.12978 0.0
H1827 H 0.7084 0.76476 0.16386 0.0
H1828 H 0.22477 0.19184 0.74774 0.0
H1829 H 0.18913 0.15962 0.71184 0.0
H1830 H 0.20513 0.22831 0.64709 0.0
H1831 H 0.24055 0.26104 0.6834 0.0
H1832 H 0.1475 0.19442 0.64027 0.0
H1833 H 0.20904 0.12852 0.65629 0.0
H1834 H 0.20209 0.13127 0.68871 0.0
H1835 H 0.22456 0.16245 0.67107 0.0
C1836 C 0.2207 0.2001 0.72585 0.0
C1837 C 0.23559 0.22881 0.7182 0.0
C1838 C 0.20045 0.18164 0.70534 0.0
C1839 C 0.19503 0.1914 0.67671 0.0
C1840 C 0.20922 0.22031 0.66907 0.0
H1841 H 0.10648 0.0739 0.5435 0.0
H1842 H 0.14157 0.11047 0.57557 0.0
C1843 C 0.22938 0.23895 0.68974 0.0
C1844 C 0.17449 0.17123 0.65496 0.0
H1845 H 0.15952 0.1085 0.63061 0.0
C1846 C 0.15021 0.17575 0.63793 0.0
C1847 C 0.17835 0.14716 0.6516 0.0
C1848 C 0.20508 0.1422 0.66768 0.0
C1849 C 0.12921 0.15637 0.61816 0.0
C1850 C 0.13222 0.13143 0.61601 0.0
C1851 C 0.15694 0.12737 0.63254 0.0
C1852 C 0.11045 0.10952 0.59631 0.0
C1853 C 0.10433 0.16312 0.5995 0.0
C1854 C 0.08127 0.09647 0.5975 0.0
C1855 C 0.06105 0.07576 0.57886 0.0
C1856 C 0.06984 0.06739 0.55919 0.0
C1857 C 0.09912 0.07993 0.55851 0.0
C1858 C 0.11919 0.10086 0.5768 0.0
H1859 H 0.10984 0.18621 0.59755 0.0
H1860 H 0.09794 0.15576 0.57791 0.0
H1861 H 0.08546 0.15235 0.60906 0.0
H1862 H 0.07416 0.10215 0.61295 0.0
H1863 H 1.03863 0.06621 0.57993 0.0
H1864 H 0.68275 0.31923 0.44668 0.0
H1865 H 0.66616 0.34693 0.46621 0.0
H1866 H 0.62621 0.37027 0.38171 0.0
H1867 H 0.64296 0.34297 0.36194 0.0
H1868 H 0.67594 0.40327 0.46053 0.0
H1869 H 0.55911 0.3405 0.41864 0.0
H1870 H 0.58633 0.32872 0.41849 0.0
H1871 H 0.57889 0.35448 0.3916 0.0
C1872 C 0.6707 0.33042 0.43206 0.0
C1873 C 0.66422 0.32838 0.40248 0.0
C1874 C 0.66101 0.34625 0.4434 0.0
C1875 C 0.64427 0.36047 0.42566 0.0
C1876 C 0.6383 0.359 0.39614 0.0
H1877 H 0.56011 0.46339 0.44873 0.0
H1878 H 0.57921 0.43668 0.43131 0.0
C1879 C 0.648 0.34323 0.38477 0.0
C1880 C 0.63332 0.37688 0.43795 0.0
H1881 H 0.57172 0.38317 0.43881 0.0
C1882 C 0.65311 0.39872 0.45586 0.0
C1883 C 0.60351 0.37123 0.43212 0.0
C1884 C 0.58067 0.3473 0.4144 0.0
C1885 C 0.64418 0.41534 0.46724 0.0
C1886 C 0.61435 0.40979 0.46126 0.0
C1887 C 0.59457 0.38778 0.44353 0.0
C1888 C 0.60314 0.42673 0.47253 0.0
C1889 C 0.66708 0.43936 0.48481 0.0
C1890 C 0.6097 0.43023 0.50177 0.0
C1891 C 0.5988 0.44582 0.51191 0.0
C1892 C 0.58067 0.45817 0.4932 0.0
C1893 C 0.57393 0.45437 0.464 0.0
C1894 C 0.5849 0.43893 0.45391 0.0
H1895 H 0.68856 0.44618 0.48038 0.0
H1896 H 0.6614 0.45792 0.48077 0.0
H1897 H 0.6691 0.43223 0.50764 0.0
H1898 H 0.62296 0.42057 0.51695 0.0
H1899 H 0.60443 0.44794 0.53452 0.0
H1900 H 0.45474 0.93395 0.03111 0.0
H1901 H 0.42216 0.9102 0.06262 0.0
H1902 H 0.46295 0.98432 0.11063 0.0
H1903 H 0.49502 0.00858 0.0785 0.0
H1904 H 0.43949 0.89729 0.11731 0.0
H1905 H 0.3789 0.96377 0.10483 0.0
H1906 H 0.39978 0.96723 0.08037 0.0
H1907 H 0.41743 0.98317 0.11382 0.0
C1908 C 0.45639 0.94539 0.04804 0.0
C1909 C 0.47742 0.97307 0.05239 0.0
C1910 C 0.43777 0.9318 0.06604 0.0
C1911 C 0.43998 0.94551 0.0889 0.0
C1912 C 0.46038 0.97353 0.09278 0.0
H1913 H 0.3789 0.84593 0.23657 0.0
H1914 H 0.40894 0.87944 0.20554 0.0
C1915 C 0.47878 0.98733 0.07446 0.0
C1916 C 0.42284 0.92936 0.11005 0.0
H1917 H 0.37419 0.92825 0.14309 0.0
C1918 C 0.42514 0.90404 0.12287 0.0
C1919 C 0.40405 0.93814 0.11718 0.0
C1920 C 0.39962 0.96442 0.10315 0.0
C1921 C 0.40904 0.8871 0.14243 0.0
C1922 C 0.39081 0.8962 0.15015 0.0
C1923 C 0.38849 0.92155 0.13741 0.0
C1924 C 0.37285 0.87878 0.17026 0.0
C1925 C 0.41106 0.85917 0.1539 0.0
C1926 C 0.34263 0.86847 0.16122 0.0
C1927 C 0.3254 0.84965 0.17902 0.0
C1928 C 0.33813 0.84068 0.20615 0.0
C1929 C 0.36843 0.85208 0.21564 0.0
C1930 C 0.38564 0.87115 0.19791 0.0
H1931 H 0.41983 0.85208 0.14036 0.0
H1932 H 0.42582 0.86154 0.17542 0.0
H1933 H 0.38956 0.8424 0.1555 0.0
H1934 H 0.33233 0.87421 0.14 0.0
H1935 H 0.30212 0.84141 0.17109 0.0
H1936 H 0.99342 0.56406 0.91895 0.0
H1937 H 0.966 0.5921 0.89189 0.0
H1938 H 0.94158 0.59269 0.96699 0.0
H1939 H 0.97028 0.56628 0.99405 0.0
H1940 H 0.92451 0.6016 0.86622 0.0
H1941 H 0.93816 0.66311 0.9515 0.0
H1942 H 0.95925 0.64291 0.95611 0.0
H1943 H 0.92272 0.62589 0.96082 0.0
C1944 C 0.98269 0.57027 0.93035 0.0
C1945 C 0.98585 0.56175 0.96021 0.0
C1946 C 0.96615 0.58697 0.91415 0.0
C1947 C 0.95051 0.59721 0.92566 0.0
C1948 C 0.95322 0.58797 0.9555 0.0
H1949 H 0.86699 0.7307 0.85142 0.0
H1950 H 0.89472 0.70295 0.87851 0.0
C1951 C 0.97009 0.57163 0.97179 0.0
C1952 C 0.93185 0.61606 0.90684 0.0
H1953 H 0.90378 0.66514 0.9097 0.0
C1954 C 0.92046 0.61536 0.87653 0.0
C1955 C 0.92516 0.6359 0.91738 0.0
C1956 C 0.93713 0.64237 0.94812 0.0
C1957 C 0.90412 0.6317 0.85839 0.0
C1958 C 0.89617 0.65043 0.86914 0.0
C1959 C 0.90793 0.65147 0.89938 0.0
C1960 C 0.87728 0.66907 0.85033 0.0
C1961 C 0.89666 0.62918 0.82693 0.0
C1962 C 0.85582 0.6619 0.82364 0.0
C1963 C 0.8396 0.6788 0.8072 0.0
C1964 C 0.84219 0.70472 0.81563 0.0
C1965 C 0.86304 0.71167 0.84252 0.0
C1966 C 0.87955 0.69495 0.85878 0.0
H1967 H 0.91097 0.62188 0.82106 0.0
H1968 H 0.87414 0.6133 0.82024 0.0
H1969 H 0.89867 0.64978 0.815 0.0
H1970 H 0.8505 0.64235 0.81504 0.0
H1971 H 0.82426 0.6709 0.78749 0.0
H1972 H 0.44768 0.44991 0.04787 0.0
H1973 H 0.42057 0.41809 0.0817 0.0
H1974 H 0.50036 0.42769 0.14387 0.0
H1975 H 0.52786 0.46011 0.11012 0.0
H1976 H 0.41924 0.36705 0.10758 0.0
H1977 H 0.45697 0.4439 0.18882 0.0
H1978 H 0.46317 0.45472 0.1537 0.0
H1979 H 0.48535 0.43957 0.18007 0.0
C1980 C 0.45963 0.44553 0.06879 0.0
C1981 C 0.49011 0.45789 0.0762 0.0
C1982 C 0.44398 0.42713 0.08814 0.0
C1983 C 0.45825 0.42053 0.11554 0.0
C1984 C 0.48871 0.43277 0.12309 0.0
H1985 H 0.36132 0.28167 0.22761 0.0
H1986 H 0.39403 0.30891 0.19621 0.0
C1987 C 0.50446 0.45132 0.1037 0.0
C1988 C 0.441 0.4008 0.13584 0.0
H1989 H 0.42621 0.39696 0.19963 0.0
C1990 C 0.42087 0.37355 0.12778 0.0
C1991 C 0.44288 0.40922 0.16218 0.0
C1992 C 0.46305 0.43851 0.1717 0.0
C1993 C 0.40239 0.35479 0.14499 0.0
C1994 C 0.40426 0.36326 0.1713 0.0
C1995 C 0.42477 0.39031 0.17957 0.0
C1996 C 0.38376 0.34556 0.18959 0.0
C1997 C 0.38027 0.32651 0.13427 0.0
C1998 C 0.36718 0.35691 0.19665 0.0
C1999 C 0.34873 0.34147 0.21461 0.0
C2000 C 0.34621 0.31415 0.22605 0.0
C2001 C 0.3624 0.30244 0.21875 0.0
C2002 C 0.38113 0.31806 0.20078 0.0
H2003 H 0.37708 0.32592 0.11113 0.0
H2004 H 0.38775 0.30975 0.14541 0.0
H2005 H 0.3591 0.32144 0.13855 0.0
H2006 H 0.36862 0.37795 0.18835 0.0
H2007 H 0.33654 0.35113 0.21975 0.0
H2008 H 0.35407 0.51622 0.94906 0.0
H2009 H 0.33226 0.54982 0.92633 0.0
H2010 H 0.34421 0.54274 0.84602 0.0
H2011 H 0.36656 0.51019 0.86834 0.0
H2012 H 0.36825 0.59969 0.90389 0.0
H2013 H 0.26827 0.55187 0.82147 0.0
H2014 H 0.28177 0.53096 0.85056 0.0
H2015 H 0.29586 0.54183 0.81935 0.0
C2016 C 0.35129 0.52121 0.92639 0.0
C2017 C 0.36262 0.51086 0.91069 0.0
C2018 C 0.33862 0.54024 0.91343 0.0
C2019 C 0.33656 0.54871 0.8845 0.0
C2020 C 0.345 0.53608 0.86825 0.0
H2021 H 0.35439 0.68308 0.76191 0.0
H2022 H 0.34777 0.63947 0.79227 0.0
C2023 C 0.35786 0.51732 0.88117 0.0
C2024 C 0.33189 0.57467 0.87247 0.0
H2025 H 0.29798 0.60189 0.81221 0.0
C2026 C 0.35231 0.6002 0.8843 0.0
C2027 C 0.31121 0.57522 0.84686 0.0
C2028 C 0.28787 0.54842 0.83401 0.0
C2029 C 0.35423 0.62636 0.86993 0.0
C2030 C 0.33481 0.62686 0.84333 0.0
C2031 C 0.31304 0.60137 0.83249 0.0
C2032 C 0.33847 0.65336 0.82525 0.0
C2033 C 0.37834 0.65312 0.8823 0.0
C2034 C 0.33557 0.67561 0.83388 0.0
C2035 C 0.33967 0.70072 0.81673 0.0
C2036 C 0.34646 0.70385 0.79053 0.0
C2037 C 0.34933 0.68145 0.78199 0.0
C2038 C 0.34536 0.65644 0.79922 0.0
H2039 H 0.39451 0.64868 0.90047 0.0
H2040 H 0.38963 0.66702 0.86591 0.0
H2041 H 0.36912 0.6649 0.88996 0.0
H2042 H 0.3299 0.67347 0.85374 0.0
H2043 H 0.33696 0.71744 0.82378 0.0
H2044 H 0.1358 0.52926 0.55438 0.0
H2045 H 0.17764 0.56626 0.58246 0.0
H2046 H 0.11991 0.59285 0.60369 0.0
H2047 H 0.07835 0.55583 0.57594 0.0
H2048 H 0.16497 0.63709 0.58168 0.0
H2049 H 0.20581 0.57092 0.66959 0.0
H2050 H 0.20034 0.56267 0.63408 0.0
H2051 H 0.1698 0.55713 0.64677 0.0
C2052 C 0.13223 0.54283 0.56546 0.0
C2053 C 0.10413 0.54024 0.56285 0.0
C2054 C 0.15601 0.56387 0.58142 0.0
C2055 C 0.1518 0.58226 0.59509 0.0
C2056 C 0.12359 0.57901 0.59308 0.0
H2057 H 0.24892 0.69465 0.72542 0.0
H2058 H 0.21771 0.65607 0.69435 0.0
C2059 C 0.09992 0.55808 0.57712 0.0
C2060 C 0.1766 0.60572 0.61066 0.0
H2061 H 0.23156 0.62036 0.67061 0.0
C2062 C 0.17975 0.63352 0.60098 0.0
C2063 C 0.19572 0.60084 0.6358 0.0
C2064 C 0.19278 0.5713 0.64741 0.0
C2065 C 0.20098 0.65662 0.6163 0.0
C2066 C 0.21977 0.65172 0.64174 0.0
C2067 C 0.21721 0.62398 0.65096 0.0
C2068 C 0.24 0.6747 0.66064 0.0
C2069 C 0.20223 0.68591 0.6059 0.0
C2070 C 0.26307 0.69783 0.65203 0.0
C2071 C 0.28088 0.72007 0.66974 0.0
C2072 C 0.27587 0.71927 0.69627 0.0
C2073 C 0.25315 0.69584 0.705 0.0
C2074 C 0.23541 0.67373 0.68736 0.0
H2075 H 0.18303 0.6854 0.58861 0.0
H2076 H 0.20369 0.69714 0.62356 0.0
H2077 H 0.22181 0.69832 0.59762 0.0
H2078 H 0.26713 0.69877 0.63159 0.0
H2079 H 0.29832 0.73793 0.66259 0.0
H2080 H 0.35133 0.2669 0.69916 0.0
H2081 H 0.38287 0.29633 0.66745 0.0
H2082 H 0.39299 0.37154 0.69988 0.0
H2083 H 0.36136 0.34257 0.73103 0.0
H2084 H 0.38207 0.37676 0.64311 0.0
H2085 H 0.47025 0.3394 0.68541 0.0
H2086 H 0.43511 0.31162 0.67433 0.0
H2087 H 0.44258 0.33139 0.70377 0.0
C2088 C 0.36027 0.2897 0.69957 0.0
C2089 C 0.35364 0.3022 0.71781 0.0
C2090 C 0.3786 0.30656 0.68157 0.0
C2091 C 0.39089 0.33632 0.68148 0.0
C2092 C 0.38404 0.34873 0.69951 0.0
H2093 H 0.52442 0.46396 0.59485 0.0
H2094 H 0.49963 0.43374 0.63195 0.0
C2095 C 0.36581 0.33199 0.7174 0.0
C2096 C 0.40985 0.35481 0.66196 0.0
H2097 H 0.47234 0.36967 0.64291 0.0
C2098 C 0.40186 0.37521 0.64326 0.0
C2099 C 0.43602 0.35328 0.66221 0.0
C2100 C 0.44673 0.33295 0.68268 0.0
C2101 C 0.4187 0.39345 0.62453 0.0
C2102 C 0.44428 0.39126 0.62405 0.0
C2103 C 0.45275 0.37137 0.64316 0.0
C2104 C 0.46106 0.40818 0.6024 0.0
C2105 C 0.40892 0.41501 0.60526 0.0
C2106 C 0.44811 0.40344 0.57363 0.0
C2107 C 0.46213 0.42046 0.55269 0.0
C2108 C 0.48964 0.44273 0.5598 0.0
C2109 C 0.50332 0.44691 0.58869 0.0
C2110 C 0.48912 0.42969 0.60986 0.0
H2111 H 0.39339 0.41896 0.61302 0.0
H2112 H 0.42765 0.4354 0.60334 0.0
H2113 H 0.39796 0.40705 0.58377 0.0
H2114 H 0.42673 0.38684 0.56726 0.0
H2115 H 0.45096 0.4165 0.53069 0.0
H2116 H 0.30032 0.73702 0.17741 0.0
H2117 H 0.27225 0.71059 0.1348 0.0
H2118 H 0.1931 0.69541 0.15562 0.0
H2119 H 0.22087 0.7223 0.19749 0.0
H2120 H 0.2369 0.65612 0.13343 0.0
H2121 H 0.17408 0.71759 0.07245 0.0
H2122 H 0.20501 0.73161 0.10169 0.0
H2123 H 0.16985 0.70933 0.10809 0.0
C2124 C 0.27692 0.7284 0.17255 0.0
C2125 C 0.26272 0.73159 0.19072 0.0
C2126 C 0.26094 0.71336 0.14824 0.0
C2127 C 0.23056 0.70142 0.14173 0.0
C2128 C 0.21646 0.70508 0.15969 0.0
H2129 H 0.10693 0.54857 0.0714 0.0
H2130 H 0.14522 0.58749 0.09889 0.0
C2131 C 0.23238 0.72022 0.18381 0.0
C2132 C 0.21343 0.68273 0.11795 0.0
H2133 H 0.15287 0.66773 0.06339 0.0
C2134 C 0.21889 0.65898 0.11775 0.0
C2135 C 0.19026 0.68669 0.0971 0.0
C2136 C 0.18469 0.71288 0.09465 0.0
C2137 C 0.20063 0.63812 0.09854 0.0
C2138 C 0.17587 0.64076 0.07953 0.0
C2139 C 0.17156 0.66546 0.07835 0.0
C2140 C 0.15307 0.61721 0.0624 0.0
C2141 C 0.20777 0.61319 0.0992 0.0
C2142 C 0.14407 0.62124 0.0328 0.0
C2143 C 0.1218 0.59904 0.01703 0.0
C2144 C 0.10817 0.5726 0.03069 0.0
C2145 C 0.11713 0.56871 0.0603 0.0
C2146 C 0.13921 0.59086 0.07601 0.0
H2147 H 0.2314 0.61894 0.10707 0.0
H2148 H 0.19683 0.59595 0.11391 0.0
H2149 H 0.20042 0.60502 0.07785 0.0
H2150 H 0.1543 0.64151 0.02194 0.0
H2151 H 0.1152 0.60258 0.99422 0.0
H2152 H 0.7769 0.40161 0.68706 0.0
H2153 H 0.78917 0.4492 0.66454 0.0
H2154 H 0.79183 0.42066 0.5896 0.0
H2155 H 0.77807 0.37221 0.61176 0.0
H2156 H 0.83255 0.48985 0.63865 0.0
H2157 H 0.72622 0.44652 0.55978 0.0
H2158 H 0.73525 0.42459 0.59039 0.0
H2159 H 0.75347 0.43399 0.56231 0.0
C2160 C 0.78006 0.40537 0.66577 0.0
C2161 C 0.77553 0.38299 0.65081 0.0
C2162 C 0.7876 0.43272 0.65308 0.0
C2163 C 0.79098 0.43842 0.62521 0.0
C2164 C 0.78885 0.41662 0.61096 0.0
H2165 H 0.71703 0.55583 0.56891 0.0
H2166 H 0.75563 0.54602 0.56238 0.0
C2167 C 0.78107 0.389 0.62367 0.0
C2168 C 0.79203 0.46598 0.61057 0.0
H2169 H 0.74307 0.49249 0.57173 0.0
C2170 C 0.8135 0.49077 0.62316 0.0
C2171 C 0.76769 0.46746 0.58967 0.0
C2172 C 0.74426 0.44183 0.57466 0.0
C2173 C 0.80901 0.51575 0.61871 0.0
C2174 C 0.78235 0.51564 0.60171 0.0
C2175 C 0.76332 0.49247 0.58534 0.0
C2176 C 0.76988 0.53418 0.6067 0.0
C2177 C 0.8318 0.54129 0.63398 0.0
C2178 C 0.76672 0.53326 0.63416 0.0
C2179 C 0.74469 0.53894 0.63798 0.0
C2180 C 0.72542 0.54549 0.61441 0.0
C2181 C 0.73142 0.55066 0.58754 0.0
C2182 C 0.75356 0.54506 0.58373 0.0
H2183 H 0.85366 0.54337 0.63431 0.0
H2184 H 0.82917 0.56095 0.62375 0.0
H2185 H 0.83037 0.53869 0.65634 0.0
H2186 H 0.77874 0.5247 0.6523 0.0
H2187 H 0.74092 0.53538 0.659 0.0
H2188 H 0.81491 0.62361 0.16819 0.0
H2189 H 0.84366 0.61478 0.1437 0.0
H2190 H 0.86727 0.69932 0.1035 0.0
H2191 H 0.83823 0.70837 0.12794 0.0
H2192 H 0.84263 0.61832 0.08539 0.0
H2193 H 0.94517 0.69547 0.14801 0.0
H2194 H 0.91121 0.68312 0.15759 0.0
H2195 H 0.91823 0.70834 0.12786 0.0
C2196 C 0.82568 0.64016 0.15369 0.0
C2197 C 0.82441 0.66673 0.15009 0.0
C2198 C 0.84218 0.63511 0.13978 0.0
C2199 C 0.85778 0.65651 0.12208 0.0
C2200 C 0.85568 0.6827 0.11743 0.0
H2201 H 0.95699 0.60581 0.04359 0.0
H2202 H 0.92692 0.62901 0.04726 0.0
C2203 C 0.83916 0.68782 0.13142 0.0
C2204 C 0.8776 0.6515 0.11026 0.0
H2205 H 0.9491 0.66679 0.12001 0.0
C2206 C 0.86594 0.62925 0.09242 0.0
C2207 C 0.90794 0.66579 0.11973 0.0
C2208 C 0.92155 0.68942 0.13948 0.0
C2209 C 0.88384 0.61984 0.08501 0.0
C2210 C 0.91413 0.63336 0.09549 0.0
C2211 C 0.92584 0.65662 0.11201 0.0
C2212 C 0.93367 0.6213 0.09285 0.0
C2213 C 0.87019 0.59438 0.06763 0.0
C2214 C 0.94788 0.61 0.11734 0.0
C2215 C 0.96496 0.5968 0.11534 0.0
C2216 C 0.9682 0.59473 0.08879 0.0
C2217 C 0.95451 0.60674 0.0643 0.0
C2218 C 0.93741 0.62001 0.06633 0.0
H2219 H 0.84633 0.58399 0.06462 0.0
H2220 H 0.87495 0.60106 0.04641 0.0
H2221 H 0.87936 0.57859 0.07797 0.0
H2222 H 0.94512 0.61073 0.13798 0.0
H2223 H 0.97492 0.58747 0.13453 0.0
H2224 H 0.98042 0.64638 0.57677 0.0
H2225 H 0.95022 0.65064 0.60309 0.0
H2226 H 0.90481 0.55978 0.60981 0.0
H2227 H 0.93578 0.55524 0.58465 0.0
H2228 H 0.8916 0.63284 0.58603 0.0
H2229 H 0.92268 0.58011 0.69091 0.0
H2230 H 0.94373 0.59118 0.66477 0.0
H2231 H 0.91132 0.55912 0.66137 0.0
C2232 C 0.96442 0.62728 0.58435 0.0
C2233 C 0.96049 0.60049 0.57857 0.0
C2234 C 0.94708 0.62975 0.59923 0.0
C2235 C 0.92554 0.60551 0.60866 0.0
C2236 C 0.92168 0.57872 0.60318 0.0
H2237 H 0.78255 0.6208 0.64539 0.0
H2238 H 0.80974 0.60264 0.62829 0.0
C2239 C 0.93911 0.57621 0.58842 0.0
C2240 C 0.9059 0.60849 0.62247 0.0
H2241 H 0.88233 0.59165 0.68324 0.0
C2242 C 0.88955 0.62385 0.60729 0.0
C2243 C 0.90357 0.59696 0.6503 0.0
C2244 C 0.92144 0.58113 0.66794 0.0
C2245 C 0.87095 0.62814 0.61917 0.0
C2246 C 0.86789 0.6159 0.64671 0.0
C2247 C 0.88441 0.60066 0.662 0.0
C2248 C 0.84927 0.62058 0.66061 0.0
C2249 C 0.85566 0.64669 0.60242 0.0
C2250 C 0.86159 0.63413 0.68605 0.0
C2251 C 0.84577 0.6436 0.69656 0.0
C2252 C 0.81752 0.64019 0.68148 0.0
C2253 C 0.80432 0.62412 0.65749 0.0
C2254 C 0.81998 0.61406 0.64738 0.0
H2255 H 0.8663 0.66035 0.5855 0.0
H2256 H 0.8331 0.63314 0.59203 0.0
H2257 H 0.85507 0.66052 0.61641 0.0
H2258 H 0.88399 0.63885 0.69695 0.0
H2259 H 0.85624 0.65482 0.71576 0.0
H2260 H 0.38589 0.51494 0.46124 0.0
H2261 H 0.34538 0.52756 0.45209 0.0
H2262 H 0.30928 0.48841 0.37221 0.0
H2263 H 0.35097 0.47635 0.38114 0.0
H2264 H 0.31296 0.53718 0.36221 0.0
H2265 H 0.26441 0.50119 0.45236 0.0
H2266 H 0.30237 0.51652 0.46813 0.0
H2267 H 0.2873 0.48607 0.44737 0.0
C2268 C 0.36882 0.50799 0.4422 0.0
C2269 C 0.37165 0.49473 0.42185 0.0
C2270 C 0.34529 0.51496 0.43709 0.0
C2271 C 0.32368 0.50847 0.4117 0.0
C2272 C 0.32549 0.49347 0.3921 0.0
H2273 H 0.26767 0.64582 0.355 0.0
H2274 H 0.25164 0.59461 0.36564 0.0
C2275 C 0.34937 0.48676 0.39708 0.0
C2276 C 0.30379 0.5231 0.40346 0.0
H2277 H 0.27663 0.55384 0.43581 0.0
C2278 C 0.30367 0.53979 0.37774 0.0
C2279 C 0.29078 0.52619 0.42315 0.0
C2280 C 0.28599 0.50617 0.4491 0.0
C2281 C 0.29555 0.56249 0.3734 0.0
C2282 C 0.28756 0.5686 0.39545 0.0
C2283 C 0.2835 0.54948 0.41927 0.0
C2284 C 0.29113 0.59771 0.39692 0.0
C2285 C 0.29912 0.58188 0.34679 0.0
C2286 C 0.31779 0.61624 0.41242 0.0
C2287 C 0.32706 0.64537 0.40625 0.0
C2288 C 0.30958 0.65625 0.38477 0.0
C2289 C 0.28139 0.63788 0.37187 0.0
C2290 C 0.2722 0.60865 0.37788 0.0
H2291 H 0.30514 0.5738 0.33155 0.0
H2292 H 0.27861 0.58429 0.33605 0.0
H2293 H 0.31616 0.60319 0.35235 0.0
H2294 H 0.33273 0.60809 0.4271 0.0
H2295 H 0.34882 0.65918 0.41647 0.0
H2296 H 0.21238 0.35298 0.82917 0.0
H2297 H 0.18243 0.36052 0.85328 0.0
H2298 H 0.22316 0.32838 0.93272 0.0
H2299 H 0.25383 0.32126 0.90874 0.0
H2300 H 0.14367 0.31893 0.88733 0.0
H2301 H 0.2339 0.40896 0.94701 0.0
H2302 H 0.23706 0.39755 0.91643 0.0
H2303 H 0.23806 0.37639 0.94937 0.0
C2304 C 0.21515 0.34771 0.85181 0.0
C2305 C 0.23566 0.33685 0.86716 0.0
C2306 C 0.19786 0.35178 0.86548 0.0
C2307 C 0.20079 0.34516 0.89473 0.0
C2308 C 0.22082 0.3338 0.91014 0.0
H2309 H 0.11488 0.40474 0.98029 0.0
H2310 H 0.14135 0.37847 0.97482 0.0
C2311 C 0.23815 0.32962 0.89642 0.0
C2312 C 0.18318 0.35111 0.90874 0.0
H2313 H 0.18671 0.40037 0.94723 0.0
C2314 C 0.15305 0.33635 0.90092 0.0
C2315 C 0.19561 0.37368 0.92663 0.0
C2316 C 0.22792 0.39025 0.93538 0.0
C2317 C 0.13486 0.34468 0.9092 0.0
C2318 C 0.14722 0.36863 0.92524 0.0
C2319 C 0.17738 0.38208 0.93482 0.0
C2320 C 0.12954 0.38235 0.92894 0.0
C2321 C 0.10256 0.32844 0.89983 0.0
C2322 C 0.11448 0.39341 0.90494 0.0
C2323 C 0.09971 0.40862 0.90795 0.0
C2324 C 0.09977 0.41318 0.93506 0.0
C2325 C 0.11467 0.40182 0.95912 0.0
C2326 C 0.12959 0.38665 0.95607 0.0
H2327 H 0.09694 0.30615 0.89639 0.0
H2328 H 0.09155 0.32857 0.91567 0.0
H2329 H 0.09415 0.33842 0.8794 0.0
H2330 H 0.11489 0.39099 0.88383 0.0
H2331 H 0.08899 0.41757 0.88901 0.0
H2332 H 0.26408 0.39301 0.33061 0.0
H2333 H 0.23543 0.41146 0.34506 0.0
H2334 H 0.24771 0.3676 0.4276 0.0
H2335 H 0.27482 0.34764 0.41282 0.0
H2336 H 0.19124 0.35565 0.40245 0.0
H2337 H 0.25378 0.47214 0.3955 0.0
H2338 H 0.24877 0.45448 0.36551 0.0
H2339 H 0.27021 0.44751 0.39938 0.0
C2340 C 0.26091 0.38747 0.35194 0.0
C2341 C 0.27156 0.36862 0.37045 0.0
C2342 C 0.24487 0.39839 0.3603 0.0
C2343 C 0.23969 0.39112 0.3875 0.0
C2344 C 0.25159 0.37355 0.40654 0.0
H2345 H 0.15588 0.45129 0.47004 0.0
H2346 H 0.19015 0.44171 0.45409 0.0
C2347 C 0.26734 0.36237 0.39811 0.0
C2348 C 0.2194 0.39925 0.39517 0.0
H2349 H 0.20702 0.45571 0.40248 0.0
C2350 C 0.19474 0.37754 0.40255 0.0
C2351 C 0.22405 0.42778 0.39528 0.0
C2352 C 0.25075 0.45189 0.38872 0.0
C2353 C 0.17457 0.38358 0.41006 0.0
C2354 C 0.17893 0.41211 0.40962 0.0
C2355 C 0.20364 0.43386 0.40241 0.0
C2356 C 0.15858 0.41972 0.41774 0.0
C2357 C 0.1491 0.3594 0.41899 0.0
C2358 C 0.12971 0.41111 0.40211 0.0
C2359 C 0.11008 0.41655 0.41115 0.0
C2360 C 0.11913 0.43092 0.43582 0.0
C2361 C 0.14834 0.44041 0.45081 0.0
C2362 C 0.1679 0.43488 0.4418 0.0
H2363 H 0.15259 0.33952 0.42461 0.0
H2364 H 0.14482 0.36453 0.4375 0.0
H2365 H 0.12954 0.35549 0.4012 0.0
H2366 H 0.12229 0.39986 0.38314 0.0
H2367 H 0.08782 0.40942 0.39893 0.0
loop_
_geom_bond_atom_site_label_1
_geom_bond_atom_site_label_2
_geom_bond_distance
_geom_bond_site_symmetry_2
_ccdc_geom_bond_type
Ho0 C3 2.811 1_655 S
Ho0 O20 2.322 1_656 S
Ho0 O22 2.378 . S
Ho0 O23 2.524 1_655 S
Ho0 O24 2.381 . S
Ho0 O25 2.669 1_556 S
Ho0 O27 2.346 . S
Ho0 O31 2.305 1_665 S
Ho1 C12 2.811 1_455 S
Ho1 O21 2.346 . S
Ho1 O25 2.305 1_445 S
Ho1 O26 2.322 1_454 S
Ho1 O28 2.378 . S
Ho1 O29 2.524 1_455 S
Ho1 O30 2.381 . S
Ho1 O31 2.669 1_554 S
C2 O20 1.259 . S
C2 O21 1.268 1_565 S
C3 Ho0 2.811 1_455 S
C3 C4 1.488 . S
C3 O22 1.215 1_455 S
C3 O23 1.289 . S
C4 C3 1.488 . S
C4 C5 1.348 . S
C4 C9 1.413 1_455 S
C5 C4 1.348 . S
C5 C6 1.442 . S
C5 H32 0.930 . S
C6 C5 1.442 . S
C6 C7 1.381 . S
C6 H33 0.931 . S
C7 C6 1.381 . S
C7 C8 1.321 . S
C8 C7 1.321 . S
C8 C9 1.403 1_455 S
C8 H34 0.934 1_455 S
C9 C4 1.413 1_655 S
C9 C8 1.403 1_655 S
C9 H35 0.930 . S
C10 O24 1.275 1_554 S
C10 O25 1.256 . S
C11 O26 1.259 . S
C11 O27 1.268 1_545 S
C12 Ho1 2.811 1_655 S
C12 C13 1.488 . S
C12 O28 1.215 1_655 S
C12 O29 1.289 . S
C13 C12 1.488 . S
C13 C14 1.348 . S
C13 C18 1.413 1_655 S
C14 C13 1.348 . S
C14 C15 1.442 . S
C14 H36 0.930 . S
C15 C14 1.442 . S
C15 C16 1.381 . S
C15 H37 0.931 . S
C16 C15 1.381 . S
C16 C17 1.321 . S
C17 C16 1.321 . S
C17 C18 1.403 1_655 S
C17 H38 0.934 1_655 S
C18 C13 1.413 1_455 S
C18 C17 1.403 1_455 S
C18 H39 0.930 . S
C19 O30 1.275 1_556 S
C19 O31 1.256 . S
O20 Ho0 2.322 1_454 S
O20 C2 1.259 . S
O21 Ho1 2.346 . S
O21 C2 1.268 1_545 S
O22 Ho0 2.378 . S
O22 C3 1.215 1_655 S
O23 Ho0 2.524 1_455 S
O23 C3 1.289 . S
O24 Ho0 2.381 . S
O24 C10 1.275 1_556 S
O25 Ho0 2.669 1_554 S
O25 Ho1 2.305 1_665 S
O25 C10 1.256 . S
O26 Ho1 2.322 1_656 S
O26 C11 1.259 . S
O27 Ho0 2.346 . S
O27 C11 1.268 1_565 S
O28 Ho1 2.378 . S
O28 C12 1.215 1_455 S
O29 Ho1 2.524 1_655 S
O29 C12 1.289 . S
O30 Ho1 2.381 . S
O30 C19 1.275 1_554 S
O31 Ho0 2.305 1_445 S
O31 Ho1 2.669 1_556 S
O31 C19 1.256 . S
H32 C5 0.930 . S
H33 C6 0.931 . S
H34 C8 0.934 1_655 S
H35 C9 0.930 . S
H36 C14 0.930 . S
H37 C15 0.931 . S
H38 C17 0.934 1_455 S
H39 C18 0.930 . S
Ho40 C43 2.811 . S
Ho40 O60 2.322 . S
Ho40 O62 2.378 . S
Ho40 O63 2.524 . S
Ho40 O64 2.381 . S
Ho40 O65 2.669 . S
Ho40 O67 2.346 . S
Ho40 O71 2.305 . S
Ho41 C52 2.811 . S
Ho41 O61 2.346 . S
Ho41 O65 2.305 . S
Ho41 O66 2.322 . S
Ho41 O68 2.378 . S
Ho41 O69 2.524 . S
Ho41 O70 2.381 . S
Ho41 O71 2.669 . S
C42 O60 1.259 . S
C42 O61 1.268 . S
C43 Ho40 2.811 . S
C43 C44 1.488 . S
C43 O62 1.215 . S
C43 O63 1.289 . S
C44 C43 1.488 . S
C44 C45 1.348 . S
C44 C49 1.413 . S
C45 C44 1.348 . S
C45 C46 1.442 . S
C45 H72 0.930 . S
C46 C45 1.442 . S
C46 C47 1.381 . S
C46 H73 0.931 . S
C47 C46 1.381 . S
C47 C48 1.321 . S
C48 C47 1.321 . S
C48 C49 1.403 . S
C48 H74 0.934 . S
C49 C44 1.413 . S
C49 C48 1.403 . S
C49 H75 0.930 . S
C50 O64 1.275 . S
C50 O65 1.256 . S
C51 O66 1.259 . S
C51 O67 1.268 . S
C52 Ho41 2.811 . S
C52 C53 1.488 . S
C52 O68 1.215 . S
C52 O69 1.289 . S
C53 C52 1.488 . S
C53 C54 1.348 . S
C53 C58 1.413 . S
C54 C53 1.348 . S
C54 C55 1.442 . S
C54 H76 0.930 . S
C55 C54 1.442 . S
C55 C56 1.381 . S
C55 H77 0.931 . S
C56 C55 1.381 . S
C56 C57 1.321 . S
C57 C56 1.321 . S
C57 C58 1.403 . S
C57 H78 0.934 . S
C58 C53 1.413 . S
C58 C57 1.403 . S
C58 H79 0.930 . S
C59 O70 1.275 . S
C59 O71 1.256 . S
O60 Ho40 2.322 . S
O60 C42 1.259 . S
O61 Ho41 2.346 . S
O61 C42 1.268 . S
O62 Ho40 2.378 . S
O62 C43 1.215 . S
O63 Ho40 2.524 . S
O63 C43 1.289 . S
O64 Ho40 2.381 . S
O64 C50 1.275 . S
O65 Ho40 2.669 . S
O65 Ho41 2.305 . S
O65 C50 1.256 . S
O66 Ho41 2.322 . S
O66 C51 1.259 . S
O67 Ho40 2.346 . S
O67 C51 1.268 . S
O68 Ho41 2.378 . S
O68 C52 1.215 . S
O69 Ho41 2.524 . S
O69 C52 1.289 . S
O70 Ho41 2.381 . S
O70 C59 1.275 . S
O71 Ho40 2.305 . S
O71 Ho41 2.669 . S
O71 C59 1.256 . S
H72 C45 0.930 . S
H73 C46 0.931 . S
H74 C48 0.934 . S
H75 C49 0.930 . S
H76 C54 0.930 . S
H77 C55 0.931 . S
H78 C57 0.934 . S
H79 C58 0.930 . S
Ho80 C83 2.811 1_565 S
Ho80 O100 2.322 1_565 S
Ho80 O102 2.378 . S
Ho80 O103 2.524 1_565 S
Ho80 O104 2.381 . S
Ho80 O105 2.669 . S
Ho80 O107 2.346 . S
Ho80 O111 2.305 1_565 S
Ho81 C92 2.811 1_545 S
Ho81 O101 2.346 . S
Ho81 O105 2.305 1_545 S
Ho81 O106 2.322 1_545 S
Ho81 O108 2.378 . S
Ho81 O109 2.524 1_545 S
Ho81 O110 2.381 . S
Ho81 O111 2.669 . S
C82 O100 1.259 . S
C82 O101 1.268 . S
C83 Ho80 2.811 1_545 S
C83 C84 1.488 . S
C83 O102 1.215 1_545 S
C83 O103 1.289 . S
C84 C83 1.488 . S
C84 C85 1.348 . S
C84 C89 1.413 . S
C85 C84 1.348 . S
C85 C86 1.442 . S
C85 H112 0.930 . S
C86 C85 1.442 . S
C86 C87 1.381 . S
C86 H113 0.931 . S
C87 C86 1.381 . S
C87 C88 1.321 . S
C88 C87 1.321 . S
C88 C89 1.403 . S
C88 H114 0.934 . S
C89 C84 1.413 . S
C89 C88 1.403 . S
C89 H115 0.930 1_545 S
C90 O104 1.275 . S
C90 O105 1.256 . S
C91 O106 1.259 . S
C91 O107 1.268 . S
C92 Ho81 2.811 1_565 S
C92 C93 1.488 . S
C92 O108 1.215 1_565 S
C92 O109 1.289 . S
C93 C92 1.488 . S
C93 C94 1.348 . S
C93 C98 1.413 . S
C94 C93 1.348 . S
C94 C95 1.442 . S
C94 H116 0.930 . S
C95 C94 1.442 . S
C95 C96 1.381 . S
C95 H117 0.931 . S
C96 C95 1.381 . S
C96 C97 1.321 . S
C97 C96 1.321 . S
C97 C98 1.403 . S
C97 H118 0.934 . S
C98 C93 1.413 . S
C98 C97 1.403 . S
C98 H119 0.930 1_565 S
C99 O110 1.275 . S
C99 O111 1.256 . S
O100 Ho80 2.322 1_545 S
O100 C82 1.259 . S
O101 Ho81 2.346 . S
O101 C82 1.268 . S
O102 Ho80 2.378 . S
O102 C83 1.215 1_565 S
O103 Ho80 2.524 1_545 S
O103 C83 1.289 . S
O104 Ho80 2.381 . S
O104 C90 1.275 . S
O105 Ho80 2.669 . S
O105 Ho81 2.305 1_565 S
O105 C90 1.256 . S
O106 Ho81 2.322 1_565 S
O106 C91 1.259 . S
O107 Ho80 2.346 . S
O107 C91 1.268 . S
O108 Ho81 2.378 . S
O108 C92 1.215 1_545 S
O109 Ho81 2.524 1_565 S
O109 C92 1.289 . S
O110 Ho81 2.381 . S
O110 C99 1.275 . S
O111 Ho80 2.305 1_545 S
O111 Ho81 2.669 . S
O111 C99 1.256 . S
H112 C85 0.930 . S
H113 C86 0.931 . S
H114 C88 0.934 . S
H115 C89 0.930 1_565 S
H116 C94 0.930 . S
H117 C95 0.931 . S
H118 C97 0.934 . S
H119 C98 0.930 1_545 S
Ho120 C123 2.811 . S
Ho120 O140 2.322 . S
Ho120 O142 2.378 . S
Ho120 O143 2.524 . S
Ho120 O144 2.381 . S
Ho120 O145 2.669 . S
Ho120 O147 2.346 . S
Ho120 O151 2.305 . S
Ho121 C132 2.811 . S
Ho121 O141 2.346 . S
Ho121 O145 2.305 . S
Ho121 O146 2.322 . S
Ho121 O148 2.378 . S
Ho121 O149 2.524 . S
Ho121 O150 2.381 . S
Ho121 O151 2.669 . S
C122 O140 1.259 . S
C122 O141 1.268 . S
C123 Ho120 2.811 . S
C123 C124 1.488 . S
C123 O142 1.215 . S
C123 O143 1.289 . S
C124 C123 1.488 . S
C124 C125 1.348 . S
C124 C129 1.413 . S
C125 C124 1.348 . S
C125 C126 1.442 . S
C125 H152 0.930 . S
C126 C125 1.442 . S
C126 C127 1.381 . S
C126 H153 0.931 . S
C127 C126 1.381 . S
C127 C128 1.321 . S
C128 C127 1.321 . S
C128 C129 1.403 . S
C128 H154 0.934 . S
C129 C124 1.413 . S
C129 C128 1.403 . S
C129 H155 0.930 . S
C130 O144 1.275 . S
C130 O145 1.256 . S
C131 O146 1.259 . S
C131 O147 1.268 . S
C132 Ho121 2.811 . S
C132 C133 1.488 . S
C132 O148 1.215 . S
C132 O149 1.289 . S
C133 C132 1.488 . S
C133 C134 1.348 . S
C133 C138 1.413 . S
C134 C133 1.348 . S
C134 C135 1.442 . S
C134 H156 0.930 . S
C135 C134 1.442 . S
C135 C136 1.381 . S
C135 H157 0.931 . S
C136 C135 1.381 . S
C136 C137 1.321 . S
C137 C136 1.321 . S
C137 C138 1.403 . S
C137 H158 0.934 . S
C138 C133 1.413 . S
C138 C137 1.403 . S
C138 H159 0.930 . S
C139 O150 1.275 . S
C139 O151 1.256 . S
O140 Ho120 2.322 . S
O140 C122 1.259 . S
O141 Ho121 2.346 . S
O141 C122 1.268 . S
O142 Ho120 2.378 . S
O142 C123 1.215 . S
O143 Ho120 2.524 . S
O143 C123 1.289 . S
O144 Ho120 2.381 . S
O144 C130 1.275 . S
O145 Ho120 2.669 . S
O145 Ho121 2.305 . S
O145 C130 1.256 . S
O146 Ho121 2.322 . S
O146 C131 1.259 . S
O147 Ho120 2.346 . S
O147 C131 1.268 . S
O148 Ho121 2.378 . S
O148 C132 1.215 . S
O149 Ho121 2.524 . S
O149 C132 1.289 . S
O150 Ho121 2.381 . S
O150 C139 1.275 . S
O151 Ho120 2.305 . S
O151 Ho121 2.669 . S
O151 C139 1.256 . S
H152 C125 0.930 . S
H153 C126 0.931 . S
H154 C128 0.934 . S
H155 C129 0.930 . S
H156 C134 0.930 . S
H157 C135 0.931 . S
H158 C137 0.934 . S
H159 C138 0.930 . S
Ho160 C163 2.811 . S
Ho160 O180 2.322 1_455 S
Ho160 O182 2.378 . S
Ho160 O183 2.524 . S
Ho160 O184 2.381 1_455 S
Ho160 O185 2.669 1_455 S
Ho160 O187 2.346 1_565 S
Ho160 O191 2.305 1_565 S
Ho161 C172 2.811 . S
Ho161 O181 2.346 1_545 S
Ho161 O185 2.305 1_545 S
Ho161 O186 2.322 1_655 S
Ho161 O188 2.378 . S
Ho161 O189 2.524 . S
Ho161 O190 2.381 1_655 S
Ho161 O191 2.669 1_655 S
C162 O180 1.259 . S
C162 O181 1.268 . S
C163 Ho160 2.811 . S
C163 C164 1.488 . S
C163 O182 1.215 . S
C163 O183 1.289 . S
C164 C163 1.488 . S
C164 C165 1.348 . S
C164 C169 1.413 . S
C165 C164 1.348 . S
C165 C166 1.442 . S
C165 H192 0.930 . S
C166 C165 1.442 . S
C166 C167 1.381 . S
C166 H193 0.931 . S
C167 C166 1.381 . S
C167 C168 1.321 . S
C168 C167 1.321 . S
C168 C169 1.403 . S
C168 H194 0.934 . S
C169 C164 1.413 . S
C169 C168 1.403 . S
C169 H195 0.930 . S
C170 O184 1.275 . S
C170 O185 1.256 . S
C171 O186 1.259 . S
C171 O187 1.268 . S
C172 Ho161 2.811 . S
C172 C173 1.488 . S
C172 O188 1.215 . S
C172 O189 1.289 . S
C173 C172 1.488 . S
C173 C174 1.348 . S
C173 C178 1.413 . S
C174 C173 1.348 . S
C174 C175 1.442 . S
C174 H196 0.930 . S
C175 C174 1.442 . S
C175 C176 1.381 . S
C175 H197 0.931 . S
C176 C175 1.381 . S
C176 C177 1.321 . S
C177 C176 1.321 . S
C177 C178 1.403 . S
C177 H198 0.934 . S
C178 C173 1.413 . S
C178 C177 1.403 . S
C178 H199 0.930 . S
C179 O190 1.275 . S
C179 O191 1.256 . S
O180 Ho160 2.322 1_655 S
O180 C162 1.259 . S
O181 Ho161 2.346 1_565 S
O181 C162 1.268 . S
O182 Ho160 2.378 . S
O182 C163 1.215 . S
O183 Ho160 2.524 . S
O183 C163 1.289 . S
O184 Ho160 2.381 1_655 S
O184 C170 1.275 . S
O185 Ho160 2.669 1_655 S
O185 Ho161 2.305 1_565 S
O185 C170 1.256 . S
O186 Ho161 2.322 1_455 S
O186 C171 1.259 . S
O187 Ho160 2.346 1_545 S
O187 C171 1.268 . S
O188 Ho161 2.378 . S
O188 C172 1.215 . S
O189 Ho161 2.524 . S
O189 C172 1.289 . S
O190 Ho161 2.381 1_455 S
O190 C179 1.275 . S
O191 Ho160 2.305 1_545 S
O191 Ho161 2.669 1_455 S
O191 C179 1.256 . S
H192 C165 0.930 . S
H193 C166 0.931 . S
H194 C168 0.934 . S
H195 C169 0.930 . S
H196 C174 0.930 . S
H197 C175 0.931 . S
H198 C177 0.934 . S
H199 C178 0.930 . S
Ho200 C203 2.811 . S
Ho200 O220 2.322 . S
Ho200 O222 2.378 . S
Ho200 O223 2.524 . S
Ho200 O224 2.381 . S
Ho200 O225 2.669 . S
Ho200 O227 2.346 . S
Ho200 O231 2.305 . S
Ho201 C212 2.811 . S
Ho201 O221 2.346 . S
Ho201 O225 2.305 . S
Ho201 O226 2.322 . S
Ho201 O228 2.378 . S
Ho201 O229 2.524 . S
Ho201 O230 2.381 . S
Ho201 O231 2.669 . S
C202 O220 1.259 . S
C202 O221 1.268 . S
C203 Ho200 2.811 . S
C203 C204 1.488 . S
C203 O222 1.215 . S
C203 O223 1.289 . S
C204 C203 1.488 . S
C204 C205 1.348 . S
C204 C209 1.413 . S
C205 C204 1.348 . S
C205 C206 1.442 . S
C205 H232 0.930 . S
C206 C205 1.442 . S
C206 C207 1.381 . S
C206 H233 0.931 . S
C207 C206 1.381 . S
C207 C208 1.321 . S
C208 C207 1.321 . S
C208 C209 1.403 . S
C208 H234 0.934 . S
C209 C204 1.413 . S
C209 C208 1.403 . S
C209 H235 0.930 . S
C210 O224 1.275 . S
C210 O225 1.256 . S
C211 O226 1.259 . S
C211 O227 1.268 . S
C212 Ho201 2.811 . S
C212 C213 1.488 . S
C212 O228 1.215 . S
C212 O229 1.289 . S
C213 C212 1.488 . S
C213 C214 1.348 . S
C213 C218 1.413 . S
C214 C213 1.348 . S
C214 C215 1.442 . S
C214 H236 0.930 . S
C215 C214 1.442 . S
C215 C216 1.381 . S
C215 H237 0.931 . S
C216 C215 1.381 . S
C216 C217 1.321 . S
C217 C216 1.321 . S
C217 C218 1.403 . S
C217 H238 0.934 . S
C218 C213 1.413 . S
C218 C217 1.403 . S
C218 H239 0.930 . S
C219 O230 1.275 . S
C219 O231 1.256 . S
O220 Ho200 2.322 . S
O220 C202 1.259 . S
O221 Ho201 2.346 . S
O221 C202 1.268 . S
O222 Ho200 2.378 . S
O222 C203 1.215 . S
O223 Ho200 2.524 . S
O223 C203 1.289 . S
O224 Ho200 2.381 . S
O224 C210 1.275 . S
O225 Ho200 2.669 . S
O225 Ho201 2.305 . S
O225 C210 1.256 . S
O226 Ho201 2.322 . S
O226 C211 1.259 . S
O227 Ho200 2.346 . S
O227 C211 1.268 . S
O228 Ho201 2.378 . S
O228 C212 1.215 . S
O229 Ho201 2.524 . S
O229 C212 1.289 . S
O230 Ho201 2.381 . S
O230 C219 1.275 . S
O231 Ho200 2.305 . S
O231 Ho201 2.669 . S
O231 C219 1.256 . S
H232 C205 0.930 . S
H233 C206 0.931 . S
H234 C208 0.934 . S
H235 C209 0.930 . S
H236 C214 0.930 . S
H237 C215 0.931 . S
H238 C217 0.934 . S
H239 C218 0.930 . S
Ho240 C243 2.811 1_554 S
Ho240 O260 2.322 1_564 S
Ho240 O262 2.378 . S
Ho240 O263 2.524 1_554 S
Ho240 O264 2.381 1_565 S
Ho240 O265 2.669 1_565 S
Ho240 O267 2.346 . S
Ho240 O271 2.305 1_554 S
Ho241 C252 2.811 1_556 S
Ho241 O261 2.346 . S
Ho241 O265 2.305 1_556 S
Ho241 O266 2.322 1_546 S
Ho241 O268 2.378 . S
Ho241 O269 2.524 1_556 S
Ho241 O270 2.381 1_545 S
Ho241 O271 2.669 1_545 S
C242 O260 1.259 . S
C242 O261 1.268 . S
C243 Ho240 2.811 1_556 S
C243 C244 1.488 . S
C243 O262 1.215 1_556 S
C243 O263 1.289 . S
C244 C243 1.488 . S
C244 C245 1.348 . S
C244 C249 1.413 . S
C245 C244 1.348 . S
C245 C246 1.442 . S
C245 H272 0.930 . S
C246 C245 1.442 . S
C246 C247 1.381 . S
C246 H273 0.931 . S
C247 C246 1.381 . S
C247 C248 1.321 . S
C248 C247 1.321 . S
C248 C249 1.403 . S
C248 H274 0.934 . S
C249 C244 1.413 . S
C249 C248 1.403 . S
C249 H275 0.930 1_556 S
C250 O264 1.275 . S
C250 O265 1.256 . S
C251 O266 1.259 . S
C251 O267 1.268 . S
C252 Ho241 2.811 1_554 S
C252 C253 1.488 . S
C252 O268 1.215 1_554 S
C252 O269 1.289 . S
C253 C252 1.488 . S
C253 C254 1.348 . S
C253 C258 1.413 . S
C254 C253 1.348 . S
C254 C255 1.442 . S
C254 H276 0.930 . S
C255 C254 1.442 . S
C255 C256 1.381 . S
C255 H277 0.931 . S
C256 C255 1.381 . S
C256 C257 1.321 . S
C257 C256 1.321 . S
C257 C258 1.403 . S
C257 H278 0.934 . S
C258 C253 1.413 . S
C258 C257 1.403 . S
C258 H279 0.930 1_554 S
C259 O270 1.275 . S
C259 O271 1.256 . S
O260 Ho240 2.322 1_546 S
O260 C242 1.259 . S
O261 Ho241 2.346 . S
O261 C242 1.268 . S
O262 Ho240 2.378 . S
O262 C243 1.215 1_554 S
O263 Ho240 2.524 1_556 S
O263 C243 1.289 . S
O264 Ho240 2.381 1_545 S
O264 C250 1.275 . S
O265 Ho240 2.669 1_545 S
O265 Ho241 2.305 1_554 S
O265 C250 1.256 . S
O266 Ho241 2.322 1_564 S
O266 C251 1.259 . S
O267 Ho240 2.346 . S
O267 C251 1.268 . S
O268 Ho241 2.378 . S
O268 C252 1.215 1_556 S
O269 Ho241 2.524 1_554 S
O269 C252 1.289 . S
O270 Ho241 2.381 1_565 S
O270 C259 1.275 . S
O271 Ho240 2.305 1_556 S
O271 Ho241 2.669 1_565 S
O271 C259 1.256 . S
H272 C245 0.930 . S
H273 C246 0.931 . S
H274 C248 0.934 . S
H275 C249 0.930 1_554 S
H276 C254 0.930 . S
H277 C255 0.931 . S
H278 C257 0.934 . S
H279 C258 0.930 1_556 S
Ho280 C283 2.811 . S
Ho280 O300 2.322 . S
Ho280 O302 2.378 . S
Ho280 O303 2.524 . S
Ho280 O304 2.381 . S
Ho280 O305 2.669 . S
Ho280 O307 2.346 . S
Ho280 O311 2.305 . S
Ho281 C292 2.811 . S
Ho281 O301 2.346 . S
Ho281 O305 2.305 . S
Ho281 O306 2.322 . S
Ho281 O308 2.378 . S
Ho281 O309 2.524 . S
Ho281 O310 2.381 . S
Ho281 O311 2.669 . S
C282 O300 1.259 . S
C282 O301 1.268 . S
C283 Ho280 2.811 . S
C283 C284 1.488 . S
C283 O302 1.215 . S
C283 O303 1.289 . S
C284 C283 1.488 . S
C284 C285 1.348 . S
C284 C289 1.413 . S
C285 C284 1.348 . S
C285 C286 1.442 . S
C285 H312 0.930 . S
C286 C285 1.442 . S
C286 C287 1.381 . S
C286 H313 0.931 . S
C287 C286 1.381 . S
C287 C288 1.321 . S
C288 C287 1.321 . S
C288 C289 1.403 . S
C288 H314 0.934 . S
C289 C284 1.413 . S
C289 C288 1.403 . S
C289 H315 0.930 . S
C290 O304 1.275 . S
C290 O305 1.256 . S
C291 O306 1.259 . S
C291 O307 1.268 . S
C292 Ho281 2.811 . S
C292 C293 1.488 . S
C292 O308 1.215 . S
C292 O309 1.289 . S
C293 C292 1.488 . S
C293 C294 1.348 . S
C293 C298 1.413 . S
C294 C293 1.348 . S
C294 C295 1.442 . S
C294 H316 0.930 . S
C295 C294 1.442 . S
C295 C296 1.381 . S
C295 H317 0.931 . S
C296 C295 1.381 . S
C296 C297 1.321 . S
C297 C296 1.321 . S
C297 C298 1.403 . S
C297 H318 0.934 . S
C298 C293 1.413 . S
C298 C297 1.403 . S
C298 H319 0.930 . S
C299 O310 1.275 . S
C299 O311 1.256 . S
O300 Ho280 2.322 . S
O300 C282 1.259 . S
O301 Ho281 2.346 . S
O301 C282 1.268 . S
O302 Ho280 2.378 . S
O302 C283 1.215 . S
O303 Ho280 2.524 . S
O303 C283 1.289 . S
O304 Ho280 2.381 . S
O304 C290 1.275 . S
O305 Ho280 2.669 . S
O305 Ho281 2.305 . S
O305 C290 1.256 . S
O306 Ho281 2.322 . S
O306 C291 1.259 . S
O307 Ho280 2.346 . S
O307 C291 1.268 . S
O308 Ho281 2.378 . S
O308 C292 1.215 . S
O309 Ho281 2.524 . S
O309 C292 1.289 . S
O310 Ho281 2.381 . S
O310 C299 1.275 . S
O311 Ho280 2.305 . S
O311 Ho281 2.669 . S
O311 C299 1.256 . S
H312 C285 0.930 . S
H313 C286 0.931 . S
H314 C288 0.934 . S
H315 C289 0.930 . S
H316 C294 0.930 . S
H317 C295 0.931 . S
H318 C297 0.934 . S
H319 C298 0.930 . S
Ho320 C323 2.811 . S
Ho320 O340 2.322 . S
Ho320 O342 2.378 . S
Ho320 O343 2.524 . S
Ho320 O344 2.381 1_554 S
Ho320 O345 2.669 1_554 S
Ho320 O347 2.346 1_554 S
Ho320 O351 2.305 . S
Ho321 C332 2.811 . S
Ho321 O341 2.346 1_556 S
Ho321 O345 2.305 . S
Ho321 O346 2.322 . S
Ho321 O348 2.378 . S
Ho321 O349 2.524 . S
Ho321 O350 2.381 1_556 S
Ho321 O351 2.669 1_556 S
C322 O340 1.259 . S
C322 O341 1.268 . S
C323 Ho320 2.811 . S
C323 C324 1.488 . S
C323 O342 1.215 . S
C323 O343 1.289 . S
C324 C323 1.488 . S
C324 C325 1.348 . S
C324 C329 1.413 . S
C325 C324 1.348 . S
C325 C326 1.442 . S
C325 H352 0.930 . S
C326 C325 1.442 . S
C326 C327 1.381 . S
C326 H353 0.931 . S
C327 C326 1.381 . S
C327 C328 1.321 . S
C328 C327 1.321 . S
C328 C329 1.403 . S
C328 H354 0.934 . S
C329 C324 1.413 . S
C329 C328 1.403 . S
C329 H355 0.930 . S
C330 O344 1.275 . S
C330 O345 1.256 . S
C331 O346 1.259 . S
C331 O347 1.268 . S
C332 Ho321 2.811 . S
C332 C333 1.488 . S
C332 O348 1.215 . S
C332 O349 1.289 . S
C333 C332 1.488 . S
C333 C334 1.348 . S
C333 C338 1.413 . S
C334 C333 1.348 . S
C334 C335 1.442 . S
C334 H356 0.930 . S
C335 C334 1.442 . S
C335 C336 1.381 . S
C335 H357 0.931 . S
C336 C335 1.381 . S
C336 C337 1.321 . S
C337 C336 1.321 . S
C337 C338 1.403 . S
C337 H358 0.934 . S
C338 C333 1.413 . S
C338 C337 1.403 . S
C338 H359 0.930 . S
C339 O350 1.275 . S
C339 O351 1.256 . S
O340 Ho320 2.322 . S
O340 C322 1.259 . S
O341 Ho321 2.346 1_554 S
O341 C322 1.268 . S
O342 Ho320 2.378 . S
O342 C323 1.215 . S
O343 Ho320 2.524 . S
O343 C323 1.289 . S
O344 Ho320 2.381 1_556 S
O344 C330 1.275 . S
O345 Ho320 2.669 1_556 S
O345 Ho321 2.305 . S
O345 C330 1.256 . S
O346 Ho321 2.322 . S
O346 C331 1.259 . S
O347 Ho320 2.346 1_556 S
O347 C331 1.268 . S
O348 Ho321 2.378 . S
O348 C332 1.215 . S
O349 Ho321 2.524 . S
O349 C332 1.289 . S
O350 Ho321 2.381 1_554 S
O350 C339 1.275 . S
O351 Ho320 2.305 . S
O351 Ho321 2.669 1_554 S
O351 C339 1.256 . S
H352 C325 0.930 . S
H353 C326 0.931 . S
H354 C328 0.934 . S
H355 C329 0.930 . S
H356 C334 0.930 . S
H357 C335 0.931 . S
H358 C337 0.934 . S
H359 C338 0.930 . S
Ho360 C363 2.811 . S
Ho360 O380 2.322 . S
Ho360 O382 2.378 . S
Ho360 O383 2.524 . S
Ho360 O384 2.381 . S
Ho360 O385 2.669 . S
Ho360 O387 2.346 . S
Ho360 O391 2.305 . S
Ho361 C372 2.811 . S
Ho361 O381 2.346 . S
Ho361 O385 2.305 . S
Ho361 O386 2.322 . S
Ho361 O388 2.378 . S
Ho361 O389 2.524 . S
Ho361 O390 2.381 . S
Ho361 O391 2.669 . S
C362 O380 1.259 . S
C362 O381 1.268 . S
C363 Ho360 2.811 . S
C363 C364 1.488 . S
C363 O382 1.215 . S
C363 O383 1.289 . S
C364 C363 1.488 . S
C364 C365 1.348 . S
C364 C369 1.413 . S
C365 C364 1.348 . S
C365 C366 1.442 . S
C365 H392 0.930 . S
C366 C365 1.442 . S
C366 C367 1.381 . S
C366 H393 0.931 . S
C367 C366 1.381 . S
C367 C368 1.321 . S
C368 C367 1.321 . S
C368 C369 1.403 . S
C368 H394 0.934 . S
C369 C364 1.413 . S
C369 C368 1.403 . S
C369 H395 0.930 . S
C370 O384 1.275 . S
C370 O385 1.256 . S
C371 O386 1.259 . S
C371 O387 1.268 . S
C372 Ho361 2.811 . S
C372 C373 1.488 . S
C372 O388 1.215 . S
C372 O389 1.289 . S
C373 C372 1.488 . S
C373 C374 1.348 . S
C373 C378 1.413 . S
C374 C373 1.348 . S
C374 C375 1.442 . S
C374 H396 0.930 . S
C375 C374 1.442 . S
C375 C376 1.381 . S
C375 H397 0.931 . S
C376 C375 1.381 . S
C376 C377 1.321 . S
C377 C376 1.321 . S
C377 C378 1.403 . S
C377 H398 0.934 . S
C378 C373 1.413 . S
C378 C377 1.403 . S
C378 H399 0.930 . S
C379 O390 1.275 . S
C379 O391 1.256 . S
O380 Ho360 2.322 . S
O380 C362 1.259 . S
O381 Ho361 2.346 . S
O381 C362 1.268 . S
O382 Ho360 2.378 . S
O382 C363 1.215 . S
O383 Ho360 2.524 . S
O383 C363 1.289 . S
O384 Ho360 2.381 . S
O384 C370 1.275 . S
O385 Ho360 2.669 . S
O385 Ho361 2.305 . S
O385 C370 1.256 . S
O386 Ho361 2.322 . S
O386 C371 1.259 . S
O387 Ho360 2.346 . S
O387 C371 1.268 . S
O388 Ho361 2.378 . S
O388 C372 1.215 . S
O389 Ho361 2.524 . S
O389 C372 1.289 . S
O390 Ho361 2.381 . S
O390 C379 1.275 . S
O391 Ho360 2.305 . S
O391 Ho361 2.669 . S
O391 C379 1.256 . S
H392 C365 0.930 . S
H393 C366 0.931 . S
H394 C368 0.934 . S
H395 C369 0.930 . S
H396 C374 0.930 . S
H397 C375 0.931 . S
H398 C377 0.934 . S
H399 C378 0.930 . S
Ho400 C403 2.811 . S
Ho400 O420 2.322 . S
Ho400 O422 2.378 . S
Ho400 O423 2.524 . S
Ho400 O424 2.381 . S
Ho400 O425 2.669 . S
Ho400 O427 2.346 1_455 S
Ho400 O431 2.305 1_455 S
Ho401 C412 2.811 . S
Ho401 O421 2.346 1_655 S
Ho401 O425 2.305 1_655 S
Ho401 O426 2.322 . S
Ho401 O428 2.378 . S
Ho401 O429 2.524 . S
Ho401 O430 2.381 . S
Ho401 O431 2.669 . S
C402 O420 1.259 . S
C402 O421 1.268 . S
C403 Ho400 2.811 . S
C403 C404 1.488 . S
C403 O422 1.215 . S
C403 O423 1.289 . S
C404 C403 1.488 . S
C404 C405 1.348 . S
C404 C409 1.413 . S
C405 C404 1.348 . S
C405 C406 1.442 . S
C405 H432 0.930 . S
C406 C405 1.442 . S
C406 C407 1.381 . S
C406 H433 0.931 . S
C407 C406 1.381 . S
C407 C408 1.321 . S
C408 C407 1.321 . S
C408 C409 1.403 . S
C408 H434 0.934 . S
C409 C404 1.413 . S
C409 C408 1.403 . S
C409 H435 0.930 . S
C410 O424 1.275 . S
C410 O425 1.256 . S
C411 O426 1.259 . S
C411 O427 1.268 . S
C412 Ho401 2.811 . S
C412 C413 1.488 . S
C412 O428 1.215 . S
C412 O429 1.289 . S
C413 C412 1.488 . S
C413 C414 1.348 . S
C413 C418 1.413 . S
C414 C413 1.348 . S
C414 C415 1.442 . S
C414 H436 0.930 . S
C415 C414 1.442 . S
C415 C416 1.381 . S
C415 H437 0.931 . S
C416 C415 1.381 . S
C416 C417 1.321 . S
C417 C416 1.321 . S
C417 C418 1.403 . S
C417 H438 0.934 . S
C418 C413 1.413 . S
C418 C417 1.403 . S
C418 H439 0.930 . S
C419 O430 1.275 . S
C419 O431 1.256 . S
O420 Ho400 2.322 . S
O420 C402 1.259 . S
O421 Ho401 2.346 1_455 S
O421 C402 1.268 . S
O422 Ho400 2.378 . S
O422 C403 1.215 . S
O423 Ho400 2.524 . S
O423 C403 1.289 . S
O424 Ho400 2.381 . S
O424 C410 1.275 . S
O425 Ho400 2.669 . S
O425 Ho401 2.305 1_455 S
O425 C410 1.256 . S
O426 Ho401 2.322 . S
O426 C411 1.259 . S
O427 Ho400 2.346 1_655 S
O427 C411 1.268 . S
O428 Ho401 2.378 . S
O428 C412 1.215 . S
O429 Ho401 2.524 . S
O429 C412 1.289 . S
O430 Ho401 2.381 . S
O430 C419 1.275 . S
O431 Ho400 2.305 1_655 S
O431 Ho401 2.669 . S
O431 C419 1.256 . S
H432 C405 0.930 . S
H433 C406 0.931 . S
H434 C408 0.934 . S
H435 C409 0.930 . S
H436 C414 0.930 . S
H437 C415 0.931 . S
H438 C417 0.934 . S
H439 C418 0.930 . S
Ho440 C443 2.811 . S
Ho440 O460 2.322 . S
Ho440 O462 2.378 . S
Ho440 O463 2.524 . S
Ho440 O464 2.381 . S
Ho440 O465 2.669 . S
Ho440 O467 2.346 . S
Ho440 O471 2.305 . S
Ho441 C452 2.811 . S
Ho441 O461 2.346 . S
Ho441 O465 2.305 . S
Ho441 O466 2.322 . S
Ho441 O468 2.378 . S
Ho441 O469 2.524 . S
Ho441 O470 2.381 . S
Ho441 O471 2.669 . S
C442 O460 1.259 . S
C442 O461 1.268 . S
C443 Ho440 2.811 . S
C443 C444 1.488 . S
C443 O462 1.215 . S
C443 O463 1.289 . S
C444 C443 1.488 . S
C444 C445 1.348 . S
C444 C449 1.413 . S
C445 C444 1.348 . S
C445 C446 1.442 . S
C445 H472 0.930 . S
C446 C445 1.442 . S
C446 C447 1.381 . S
C446 H473 0.931 . S
C447 C446 1.381 . S
C447 C448 1.321 . S
C448 C447 1.321 . S
C448 C449 1.403 . S
C448 H474 0.934 . S
C449 C444 1.413 . S
C449 C448 1.403 . S
C449 H475 0.930 . S
C450 O464 1.275 . S
C450 O465 1.256 . S
C451 O466 1.259 . S
C451 O467 1.268 . S
C452 Ho441 2.811 . S
C452 C453 1.488 . S
C452 O468 1.215 . S
C452 O469 1.289 . S
C453 C452 1.488 . S
C453 C454 1.348 . S
C453 C458 1.413 . S
C454 C453 1.348 . S
C454 C455 1.442 . S
C454 H476 0.930 . S
C455 C454 1.442 . S
C455 C456 1.381 . S
C455 H477 0.931 . S
C456 C455 1.381 . S
C456 C457 1.321 . S
C457 C456 1.321 . S
C457 C458 1.403 . S
C457 H478 0.934 . S
C458 C453 1.413 . S
C458 C457 1.403 . S
C458 H479 0.930 . S
C459 O470 1.275 . S
C459 O471 1.256 . S
O460 Ho440 2.322 . S
O460 C442 1.259 . S
O461 Ho441 2.346 . S
O461 C442 1.268 . S
O462 Ho440 2.378 . S
O462 C443 1.215 . S
O463 Ho440 2.524 . S
O463 C443 1.289 . S
O464 Ho440 2.381 . S
O464 C450 1.275 . S
O465 Ho440 2.669 . S
O465 Ho441 2.305 . S
O465 C450 1.256 . S
O466 Ho441 2.322 . S
O466 C451 1.259 . S
O467 Ho440 2.346 . S
O467 C451 1.268 . S
O468 Ho441 2.378 . S
O468 C452 1.215 . S
O469 Ho441 2.524 . S
O469 C452 1.289 . S
O470 Ho441 2.381 . S
O470 C459 1.275 . S
O471 Ho440 2.305 . S
O471 Ho441 2.669 . S
O471 C459 1.256 . S
H472 C445 0.930 . S
H473 C446 0.931 . S
H474 C448 0.934 . S
H475 C449 0.930 . S
H476 C454 0.930 . S
H477 C455 0.931 . S
H478 C457 0.934 . S
H479 C458 0.930 . S
Ho480 C483 2.811 . S
Ho480 O500 2.322 . S
Ho480 O502 2.378 . S
Ho480 O503 2.524 . S
Ho480 O504 2.381 . S
Ho480 O505 2.669 . S
Ho480 O507 2.346 . S
Ho480 O511 2.305 . S
Ho481 C492 2.811 . S
Ho481 O501 2.346 . S
Ho481 O505 2.305 . S
Ho481 O506 2.322 . S
Ho481 O508 2.378 . S
Ho481 O509 2.524 . S
Ho481 O510 2.381 . S
Ho481 O511 2.669 . S
C482 O500 1.259 . S
C482 O501 1.268 . S
C483 Ho480 2.811 . S
C483 C484 1.488 . S
C483 O502 1.215 . S
C483 O503 1.289 . S
C484 C483 1.488 . S
C484 C485 1.348 . S
C484 C489 1.413 . S
C485 C484 1.348 . S
C485 C486 1.442 . S
C485 H512 0.930 . S
C486 C485 1.442 . S
C486 C487 1.381 . S
C486 H513 0.931 . S
C487 C486 1.381 . S
C487 C488 1.321 . S
C488 C487 1.321 . S
C488 C489 1.403 . S
C488 H514 0.934 . S
C489 C484 1.413 . S
C489 C488 1.403 . S
C489 H515 0.930 . S
C490 O504 1.275 . S
C490 O505 1.256 . S
C491 O506 1.259 . S
C491 O507 1.268 . S
C492 Ho481 2.811 . S
C492 C493 1.488 . S
C492 O508 1.215 . S
C492 O509 1.289 . S
C493 C492 1.488 . S
C493 C494 1.348 . S
C493 C498 1.413 . S
C494 C493 1.348 . S
C494 C495 1.442 . S
C494 H516 0.930 . S
C495 C494 1.442 . S
C495 C496 1.381 . S
C495 H517 0.931 . S
C496 C495 1.381 . S
C496 C497 1.321 . S
C497 C496 1.321 . S
C497 C498 1.403 . S
C497 H518 0.934 . S
C498 C493 1.413 . S
C498 C497 1.403 . S
C498 H519 0.930 . S
C499 O510 1.275 . S
C499 O511 1.256 . S
O500 Ho480 2.322 . S
O500 C482 1.259 . S
O501 Ho481 2.346 . S
O501 C482 1.268 . S
O502 Ho480 2.378 . S
O502 C483 1.215 . S
O503 Ho480 2.524 . S
O503 C483 1.289 . S
O504 Ho480 2.381 . S
O504 C490 1.275 . S
O505 Ho480 2.669 . S
O505 Ho481 2.305 . S
O505 C490 1.256 . S
O506 Ho481 2.322 . S
O506 C491 1.259 . S
O507 Ho480 2.346 . S
O507 C491 1.268 . S
O508 Ho481 2.378 . S
O508 C492 1.215 . S
O509 Ho481 2.524 . S
O509 C492 1.289 . S
O510 Ho481 2.381 . S
O510 C499 1.275 . S
O511 Ho480 2.305 . S
O511 Ho481 2.669 . S
O511 C499 1.256 . S
H512 C485 0.930 . S
H513 C486 0.931 . S
H514 C488 0.934 . S
H515 C489 0.930 . S
H516 C494 0.930 . S
H517 C495 0.931 . S
H518 C497 0.934 . S
H519 C498 0.930 . S
Ho520 C523 2.811 . S
Ho520 O540 2.322 . S
Ho520 O542 2.378 . S
Ho520 O543 2.524 . S
Ho520 O544 2.381 . S
Ho520 O545 2.669 . S
Ho520 O547 2.346 . S
Ho520 O551 2.305 . S
Ho521 C532 2.811 . S
Ho521 O541 2.346 . S
Ho521 O545 2.305 . S
Ho521 O546 2.322 . S
Ho521 O548 2.378 . S
Ho521 O549 2.524 . S
Ho521 O550 2.381 . S
Ho521 O551 2.669 . S
C522 O540 1.259 . S
C522 O541 1.268 . S
C523 Ho520 2.811 . S
C523 C524 1.488 . S
C523 O542 1.215 . S
C523 O543 1.289 . S
C524 C523 1.488 . S
C524 C525 1.348 . S
C524 C529 1.413 . S
C525 C524 1.348 . S
C525 C526 1.442 . S
C525 H552 0.930 . S
C526 C525 1.442 . S
C526 C527 1.381 . S
C526 H553 0.931 . S
C527 C526 1.381 . S
C527 C528 1.321 . S
C528 C527 1.321 . S
C528 C529 1.403 . S
C528 H554 0.934 . S
C529 C524 1.413 . S
C529 C528 1.403 . S
C529 H555 0.930 . S
C530 O544 1.275 . S
C530 O545 1.256 . S
C531 O546 1.259 . S
C531 O547 1.268 . S
C532 Ho521 2.811 . S
C532 C533 1.488 . S
C532 O548 1.215 . S
C532 O549 1.289 . S
C533 C532 1.488 . S
C533 C534 1.348 . S
C533 C538 1.413 . S
C534 C533 1.348 . S
C534 C535 1.442 . S
C534 H556 0.930 . S
C535 C534 1.442 . S
C535 C536 1.381 . S
C535 H557 0.931 . S
C536 C535 1.381 . S
C536 C537 1.321 . S
C537 C536 1.321 . S
C537 C538 1.403 . S
C537 H558 0.934 . S
C538 C533 1.413 . S
C538 C537 1.403 . S
C538 H559 0.930 . S
C539 O550 1.275 . S
C539 O551 1.256 . S
O540 Ho520 2.322 . S
O540 C522 1.259 . S
O541 Ho521 2.346 . S
O541 C522 1.268 . S
O542 Ho520 2.378 . S
O542 C523 1.215 . S
O543 Ho520 2.524 . S
O543 C523 1.289 . S
O544 Ho520 2.381 . S
O544 C530 1.275 . S
O545 Ho520 2.669 . S
O545 Ho521 2.305 . S
O545 C530 1.256 . S
O546 Ho521 2.322 . S
O546 C531 1.259 . S
O547 Ho520 2.346 . S
O547 C531 1.268 . S
O548 Ho521 2.378 . S
O548 C532 1.215 . S
O549 Ho521 2.524 . S
O549 C532 1.289 . S
O550 Ho521 2.381 . S
O550 C539 1.275 . S
O551 Ho520 2.305 . S
O551 Ho521 2.669 . S
O551 C539 1.256 . S
H552 C525 0.930 . S
H553 C526 0.931 . S
H554 C528 0.934 . S
H555 C529 0.930 . S
H556 C534 0.930 . S
H557 C535 0.931 . S
H558 C537 0.934 . S
H559 C538 0.930 . S
Ho560 C563 2.811 . S
Ho560 O580 2.322 . S
Ho560 O582 2.378 . S
Ho560 O583 2.524 . S
Ho560 O584 2.381 . S
Ho560 O585 2.669 . S
Ho560 O587 2.346 . S
Ho560 O591 2.305 . S
Ho561 C572 2.811 . S
Ho561 O581 2.346 . S
Ho561 O585 2.305 . S
Ho561 O586 2.322 . S
Ho561 O588 2.378 . S
Ho561 O589 2.524 . S
Ho561 O590 2.381 . S
Ho561 O591 2.669 . S
C562 O580 1.259 . S
C562 O581 1.268 . S
C563 Ho560 2.811 . S
C563 C564 1.488 . S
C563 O582 1.215 . S
C563 O583 1.289 . S
C564 C563 1.488 . S
C564 C565 1.348 . S
C564 C569 1.413 . S
C565 C564 1.348 . S
C565 C566 1.442 . S
C565 H592 0.930 . S
C566 C565 1.442 . S
C566 C567 1.381 . S
C566 H593 0.931 . S
C567 C566 1.381 . S
C567 C568 1.321 . S
C568 C567 1.321 . S
C568 C569 1.403 . S
C568 H594 0.934 . S
C569 C564 1.413 . S
C569 C568 1.403 . S
C569 H595 0.930 . S
C570 O584 1.275 . S
C570 O585 1.256 . S
C571 O586 1.259 . S
C571 O587 1.268 . S
C572 Ho561 2.811 . S
C572 C573 1.488 . S
C572 O588 1.215 . S
C572 O589 1.289 . S
C573 C572 1.488 . S
C573 C574 1.348 . S
C573 C578 1.413 . S
C574 C573 1.348 . S
C574 C575 1.442 . S
C574 H596 0.930 . S
C575 C574 1.442 . S
C575 C576 1.381 . S
C575 H597 0.931 . S
C576 C575 1.381 . S
C576 C577 1.321 . S
C577 C576 1.321 . S
C577 C578 1.403 . S
C577 H598 0.934 . S
C578 C573 1.413 . S
C578 C577 1.403 . S
C578 H599 0.930 . S
C579 O590 1.275 . S
C579 O591 1.256 . S
O580 Ho560 2.322 . S
O580 C562 1.259 . S
O581 Ho561 2.346 . S
O581 C562 1.268 . S
O582 Ho560 2.378 . S
O582 C563 1.215 . S
O583 Ho560 2.524 . S
O583 C563 1.289 . S
O584 Ho560 2.381 . S
O584 C570 1.275 . S
O585 Ho560 2.669 . S
O585 Ho561 2.305 . S
O585 C570 1.256 . S
O586 Ho561 2.322 . S
O586 C571 1.259 . S
O587 Ho560 2.346 . S
O587 C571 1.268 . S
O588 Ho561 2.378 . S
O588 C572 1.215 . S
O589 Ho561 2.524 . S
O589 C572 1.289 . S
O590 Ho561 2.381 . S
O590 C579 1.275 . S
O591 Ho560 2.305 . S
O591 Ho561 2.669 . S
O591 C579 1.256 . S
H592 C565 0.930 . S
H593 C566 0.931 . S
H594 C568 0.934 . S
H595 C569 0.930 . S
H596 C574 0.930 . S
H597 C575 0.931 . S
H598 C577 0.934 . S
H599 C578 0.930 . S
Ho600 C603 2.811 . S
Ho600 O620 2.322 1_554 S
Ho600 O622 2.378 . S
Ho600 O623 2.524 . S
Ho600 O624 2.381 1_554 S
Ho600 O625 2.669 1_554 S
Ho600 O627 2.346 1_655 S
Ho600 O631 2.305 1_655 S
Ho601 C612 2.811 . S
Ho601 O621 2.346 1_455 S
Ho601 O625 2.305 1_455 S
Ho601 O626 2.322 1_556 S
Ho601 O628 2.378 . S
Ho601 O629 2.524 . S
Ho601 O630 2.381 1_556 S
Ho601 O631 2.669 1_556 S
C602 O620 1.259 . S
C602 O621 1.268 . S
C603 Ho600 2.811 . S
C603 C604 1.488 . S
C603 O622 1.215 . S
C603 O623 1.289 . S
C604 C603 1.488 . S
C604 C605 1.348 . S
C604 C609 1.413 . S
C605 C604 1.348 . S
C605 C606 1.442 . S
C605 H632 0.930 . S
C606 C605 1.442 . S
C606 C607 1.381 . S
C606 H633 0.931 . S
C607 C606 1.381 . S
C607 C608 1.321 . S
C608 C607 1.321 . S
C608 C609 1.403 . S
C608 H634 0.934 . S
C609 C604 1.413 . S
C609 C608 1.403 . S
C609 H635 0.930 . S
C610 O624 1.275 . S
C610 O625 1.256 . S
C611 O626 1.259 . S
C611 O627 1.268 . S
C612 Ho601 2.811 . S
C612 C613 1.488 . S
C612 O628 1.215 . S
C612 O629 1.289 . S
C613 C612 1.488 . S
C613 C614 1.348 . S
C613 C618 1.413 . S
C614 C613 1.348 . S
C614 C615 1.442 . S
C614 H636 0.930 . S
C615 C614 1.442 . S
C615 C616 1.381 . S
C615 H637 0.931 . S
C616 C615 1.381 . S
C616 C617 1.321 . S
C617 C616 1.321 . S
C617 C618 1.403 . S
C617 H638 0.934 . S
C618 C613 1.413 . S
C618 C617 1.403 . S
C618 H639 0.930 . S
C619 O630 1.275 . S
C619 O631 1.256 . S
O620 Ho600 2.322 1_556 S
O620 C602 1.259 . S
O621 Ho601 2.346 1_655 S
O621 C602 1.268 . S
O622 Ho600 2.378 . S
O622 C603 1.215 . S
O623 Ho600 2.524 . S
O623 C603 1.289 . S
O624 Ho600 2.381 1_556 S
O624 C610 1.275 . S
O625 Ho600 2.669 1_556 S
O625 Ho601 2.305 1_655 S
O625 C610 1.256 . S
O626 Ho601 2.322 1_554 S
O626 C611 1.259 . S
O627 Ho600 2.346 1_455 S
O627 C611 1.268 . S
O628 Ho601 2.378 . S
O628 C612 1.215 . S
O629 Ho601 2.524 . S
O629 C612 1.289 . S
O630 Ho601 2.381 1_554 S
O630 C619 1.275 . S
O631 Ho600 2.305 1_455 S
O631 Ho601 2.669 1_554 S
O631 C619 1.256 . S
H632 C605 0.930 . S
H633 C606 0.931 . S
H634 C608 0.934 . S
H635 C609 0.930 . S
H636 C614 0.930 . S
H637 C615 0.931 . S
H638 C617 0.934 . S
H639 C618 0.930 . S
H640 C648 0.929 . S
H641 C650 0.930 . S
H642 C652 0.930 . S
H643 C655 0.929 . S
H644 C658 0.930 . S
H645 C660 0.960 . S
H646 C660 0.960 . S
H647 C660 0.960 . S
C648 H640 0.929 . S
C648 C649 1.377 . S
C648 C650 1.384 . S
C649 C648 1.377 . S
C649 C655 1.390 . S
C650 H641 0.930 . S
C650 C648 1.384 . S
C650 C651 1.372 . S
C651 C650 1.372 . S
C651 C652 1.400 . S
C651 C656 1.490 . S
C652 H642 0.930 . S
C652 C651 1.400 . S
C652 C655 1.386 . S
H653 C669 0.930 . S
H654 C670 0.931 . S
C655 H643 0.929 . S
C655 C649 1.390 . S
C655 C652 1.386 . S
C656 C651 1.490 . S
C656 C658 1.395 . S
C656 C659 1.403 . S
H657 C663 0.930 . S
C658 H644 0.930 . S
C658 C656 1.395 . S
C658 C661 1.403 . S
C659 C656 1.403 . S
C659 C660 1.524 . S
C659 C663 1.400 . S
C660 H645 0.960 . S
C660 H646 0.960 . S
C660 H647 0.960 . S
C660 C659 1.524 . S
C661 C658 1.403 . S
C661 C662 1.392 . S
C661 C665 1.495 . S
C662 C661 1.392 . S
C662 C663 1.385 . S
C662 C664 1.478 . S
C663 H657 0.930 . S
C663 C659 1.400 . S
C663 C662 1.385 . S
C664 C662 1.478 . S
C664 C666 1.381 . S
C664 C670 1.383 . S
C665 C661 1.495 . S
C665 H671 0.959 . S
C665 H672 0.961 . S
C665 H673 0.960 . S
C666 C664 1.381 . S
C666 C667 1.394 . S
C666 H674 0.930 . S
C667 C666 1.394 . S
C667 C668 1.383 . S
C667 H675 0.929 . S
C668 C667 1.383 . S
C668 C669 1.377 . S
C669 H653 0.930 . S
C669 C668 1.377 . S
C669 C670 1.379 . S
C670 H654 0.931 . S
C670 C664 1.383 . S
C670 C669 1.379 . S
H671 C665 0.959 . S
H672 C665 0.961 . S
H673 C665 0.960 . S
H674 C666 0.930 . S
H675 C667 0.929 . S
H676 C684 0.929 1_556 S
H677 C686 0.930 . S
H678 C688 0.930 . S
H679 C691 0.929 . S
H680 C694 0.930 . S
H681 C696 0.960 . S
H682 C696 0.960 . S
H683 C696 0.960 . S
C684 H676 0.929 1_554 S
C684 C685 1.377 . S
C684 C686 1.384 . S
C685 C684 1.377 . S
C685 C691 1.390 . S
C686 H677 0.930 . S
C686 C684 1.384 . S
C686 C687 1.372 . S
C687 C686 1.372 . S
C687 C688 1.400 . S
C687 C692 1.490 . S
C688 H678 0.930 . S
C688 C687 1.400 . S
C688 C691 1.386 . S
H689 C705 0.930 . S
H690 C706 0.931 . S
C691 H679 0.929 . S
C691 C685 1.390 . S
C691 C688 1.386 . S
C692 C687 1.490 . S
C692 C694 1.395 . S
C692 C695 1.403 . S
H693 C699 0.930 . S
C694 H680 0.930 . S
C694 C692 1.395 . S
C694 C697 1.403 . S
C695 C692 1.403 . S
C695 C696 1.524 . S
C695 C699 1.400 . S
C696 H681 0.960 . S
C696 H682 0.960 . S
C696 H683 0.960 . S
C696 C695 1.524 . S
C697 C694 1.403 . S
C697 C698 1.392 . S
C697 C701 1.495 . S
C698 C697 1.392 . S
C698 C699 1.385 . S
C698 C700 1.478 . S
C699 H693 0.930 . S
C699 C695 1.400 . S
C699 C698 1.385 . S
C700 C698 1.478 . S
C700 C702 1.381 . S
C700 C706 1.383 . S
C701 C697 1.495 . S
C701 H707 0.959 . S
C701 H708 0.961 . S
C701 H709 0.960 . S
C702 C700 1.381 . S
C702 C703 1.394 . S
C702 H710 0.930 . S
C703 C702 1.394 . S
C703 C704 1.383 . S
C703 H711 0.929 . S
C704 C703 1.383 . S
C704 C705 1.377 . S
C705 H689 0.930 . S
C705 C704 1.377 . S
C705 C706 1.379 . S
C706 H690 0.931 . S
C706 C700 1.383 . S
C706 C705 1.379 . S
H707 C701 0.959 . S
H708 C701 0.961 . S
H709 C701 0.960 . S
H710 C702 0.930 . S
H711 C703 0.929 . S
H712 C720 0.929 . S
H713 C722 0.930 . S
H714 C724 0.930 . S
H715 C727 0.929 . S
H716 C730 0.930 . S
H717 C732 0.960 . S
H718 C732 0.960 . S
H719 C732 0.960 . S
C720 H712 0.929 . S
C720 C721 1.377 . S
C720 C722 1.384 . S
C721 C720 1.377 . S
C721 C727 1.390 . S
C722 H713 0.930 . S
C722 C720 1.384 . S
C722 C723 1.372 . S
C723 C722 1.372 . S
C723 C724 1.400 . S
C723 C728 1.490 . S
C724 H714 0.930 . S
C724 C723 1.400 . S
C724 C727 1.386 . S
H725 C741 0.930 . S
H726 C742 0.931 . S
C727 H715 0.929 . S
C727 C721 1.390 . S
C727 C724 1.386 . S
C728 C723 1.490 . S
C728 C730 1.395 . S
C728 C731 1.403 . S
H729 C735 0.930 . S
C730 H716 0.930 . S
C730 C728 1.395 . S
C730 C733 1.403 . S
C731 C728 1.403 . S
C731 C732 1.524 . S
C731 C735 1.400 . S
C732 H717 0.960 . S
C732 H718 0.960 . S
C732 H719 0.960 . S
C732 C731 1.524 . S
C733 C730 1.403 . S
C733 C734 1.392 . S
C733 C737 1.495 . S
C734 C733 1.392 . S
C734 C735 1.385 . S
C734 C736 1.478 . S
C735 H729 0.930 . S
C735 C731 1.400 . S
C735 C734 1.385 . S
C736 C734 1.478 . S
C736 C738 1.381 . S
C736 C742 1.383 . S
C737 C733 1.495 . S
C737 H743 0.959 . S
C737 H744 0.961 . S
C737 H745 0.960 . S
C738 C736 1.381 . S
C738 C739 1.394 . S
C738 H746 0.930 . S
C739 C738 1.394 . S
C739 C740 1.383 . S
C739 H747 0.929 . S
C740 C739 1.383 . S
C740 C741 1.377 . S
C741 H725 0.930 . S
C741 C740 1.377 . S
C741 C742 1.379 . S
C742 H726 0.931 . S
C742 C736 1.383 . S
C742 C741 1.379 . S
H743 C737 0.959 . S
H744 C737 0.961 . S
H745 C737 0.960 . S
H746 C738 0.930 . S
H747 C739 0.929 . S
H748 C756 0.929 . S
H749 C758 0.930 . S
H750 C760 0.930 . S
H751 C763 0.929 . S
H752 C766 0.930 . S
H753 C768 0.960 . S
H754 C768 0.960 . S
H755 C768 0.960 . S
C756 H748 0.929 . S
C756 C757 1.377 . S
C756 C758 1.384 . S
C757 C756 1.377 . S
C757 C763 1.390 . S
C758 H749 0.930 . S
C758 C756 1.384 . S
C758 C759 1.372 . S
C759 C758 1.372 . S
C759 C760 1.400 . S
C759 C764 1.490 . S
C760 H750 0.930 . S
C760 C759 1.400 . S
C760 C763 1.386 . S
H761 C777 0.930 . S
H762 C778 0.931 . S
C763 H751 0.929 . S
C763 C757 1.390 . S
C763 C760 1.386 . S
C764 C759 1.490 . S
C764 C766 1.395 . S
C764 C767 1.403 . S
H765 C771 0.930 . S
C766 H752 0.930 . S
C766 C764 1.395 . S
C766 C769 1.403 . S
C767 C764 1.403 . S
C767 C768 1.524 . S
C767 C771 1.400 . S
C768 H753 0.960 . S
C768 H754 0.960 . S
C768 H755 0.960 . S
C768 C767 1.524 . S
C769 C766 1.403 . S
C769 C770 1.392 . S
C769 C773 1.495 . S
C770 C769 1.392 . S
C770 C771 1.385 . S
C770 C772 1.478 . S
C771 H765 0.930 . S
C771 C767 1.400 . S
C771 C770 1.385 . S
C772 C770 1.478 . S
C772 C774 1.381 . S
C772 C778 1.383 . S
C773 C769 1.495 . S
C773 H779 0.959 . S
C773 H780 0.961 . S
C773 H781 0.960 . S
C774 C772 1.381 . S
C774 C775 1.394 . S
C774 H782 0.930 . S
C775 C774 1.394 . S
C775 C776 1.383 . S
C775 H783 0.929 . S
C776 C775 1.383 . S
C776 C777 1.377 . S
C777 H761 0.930 . S
C777 C776 1.377 . S
C777 C778 1.379 . S
C778 H762 0.931 . S
C778 C772 1.383 . S
C778 C777 1.379 . S
H779 C773 0.959 . S
H780 C773 0.961 . S
H781 C773 0.960 . S
H782 C774 0.930 . S
H783 C775 0.929 . S
H784 C792 0.929 . S
H785 C794 0.930 . S
H786 C796 0.930 . S
H787 C799 0.929 . S
H788 C802 0.930 . S
H789 C804 0.960 . S
H790 C804 0.960 . S
H791 C804 0.960 . S
C792 H784 0.929 . S
C792 C793 1.377 . S
C792 C794 1.384 . S
C793 C792 1.377 . S
C793 C799 1.390 . S
C794 H785 0.930 . S
C794 C792 1.384 . S
C794 C795 1.372 . S
C795 C794 1.372 . S
C795 C796 1.400 . S
C795 C800 1.490 . S
C796 H786 0.930 . S
C796 C795 1.400 . S
C796 C799 1.386 . S
H797 C813 0.930 . S
H798 C814 0.931 . S
C799 H787 0.929 . S
C799 C793 1.390 . S
C799 C796 1.386 . S
C800 C795 1.490 . S
C800 C802 1.395 . S
C800 C803 1.403 . S
H801 C807 0.930 . S
C802 H788 0.930 . S
C802 C800 1.395 . S
C802 C805 1.403 . S
C803 C800 1.403 . S
C803 C804 1.524 . S
C803 C807 1.400 . S
C804 H789 0.960 . S
C804 H790 0.960 . S
C804 H791 0.960 . S
C804 C803 1.524 . S
C805 C802 1.403 . S
C805 C806 1.392 . S
C805 C809 1.495 . S
C806 C805 1.392 . S
C806 C807 1.385 . S
C806 C808 1.478 . S
C807 H801 0.930 . S
C807 C803 1.400 . S
C807 C806 1.385 . S
C808 C806 1.478 . S
C808 C810 1.381 . S
C808 C814 1.383 . S
C809 C805 1.495 . S
C809 H815 0.959 . S
C809 H816 0.961 . S
C809 H817 0.960 . S
C810 C808 1.381 . S
C810 C811 1.394 . S
C810 H818 0.930 . S
C811 C810 1.394 . S
C811 C812 1.383 . S
C811 H819 0.929 . S
C812 C811 1.383 . S
C812 C813 1.377 . S
C813 H797 0.930 . S
C813 C812 1.377 . S
C813 C814 1.379 . S
C814 H798 0.931 . S
C814 C808 1.383 . S
C814 C813 1.379 . S
H815 C809 0.959 . S
H816 C809 0.961 . S
H817 C809 0.960 . S
H818 C810 0.930 . S
H819 C811 0.929 . S
H820 C828 0.929 . S
H821 C830 0.930 . S
H822 C832 0.930 . S
H823 C835 0.929 . S
H824 C838 0.930 . S
H825 C840 0.960 . S
H826 C840 0.960 . S
H827 C840 0.960 . S
C828 H820 0.929 . S
C828 C829 1.377 . S
C828 C830 1.384 . S
C829 C828 1.377 . S
C829 C835 1.390 . S
C830 H821 0.930 . S
C830 C828 1.384 . S
C830 C831 1.372 . S
C831 C830 1.372 . S
C831 C832 1.400 . S
C831 C836 1.490 . S
C832 H822 0.930 . S
C832 C831 1.400 . S
C832 C835 1.386 . S
H833 C849 0.930 . S
H834 C850 0.931 . S
C835 H823 0.929 . S
C835 C829 1.390 . S
C835 C832 1.386 . S
C836 C831 1.490 . S
C836 C838 1.395 . S
C836 C839 1.403 . S
H837 C843 0.930 . S
C838 H824 0.930 . S
C838 C836 1.395 . S
C838 C841 1.403 . S
C839 C836 1.403 . S
C839 C840 1.524 . S
C839 C843 1.400 . S
C840 H825 0.960 . S
C840 H826 0.960 . S
C840 H827 0.960 . S
C840 C839 1.524 . S
C841 C838 1.403 . S
C841 C842 1.392 . S
C841 C845 1.495 . S
C842 C841 1.392 . S
C842 C843 1.385 . S
C842 C844 1.478 . S
C843 H837 0.930 . S
C843 C839 1.400 . S
C843 C842 1.385 . S
C844 C842 1.478 . S
C844 C846 1.381 . S
C844 C850 1.383 . S
C845 C841 1.495 . S
C845 H851 0.959 . S
C845 H852 0.961 . S
C845 H853 0.960 . S
C846 C844 1.381 . S
C846 C847 1.394 . S
C846 H854 0.930 . S
C847 C846 1.394 . S
C847 C848 1.383 . S
C847 H855 0.929 . S
C848 C847 1.383 . S
C848 C849 1.377 . S
C849 H833 0.930 . S
C849 C848 1.377 . S
C849 C850 1.379 . S
C850 H834 0.931 . S
C850 C844 1.383 . S
C850 C849 1.379 . S
H851 C845 0.959 . S
H852 C845 0.961 . S
H853 C845 0.960 . S
H854 C846 0.930 . S
H855 C847 0.929 . S
H856 C864 0.929 . S
H857 C866 0.930 . S
H858 C868 0.930 . S
H859 C871 0.929 . S
H860 C874 0.930 . S
H861 C876 0.960 . S
H862 C876 0.960 . S
H863 C876 0.960 . S
C864 H856 0.929 . S
C864 C865 1.377 . S
C864 C866 1.384 . S
C865 C864 1.377 . S
C865 C871 1.390 . S
C866 H857 0.930 . S
C866 C864 1.384 . S
C866 C867 1.372 . S
C867 C866 1.372 . S
C867 C868 1.400 . S
C867 C872 1.490 . S
C868 H858 0.930 . S
C868 C867 1.400 . S
C868 C871 1.386 . S
H869 C885 0.930 . S
H870 C886 0.931 . S
C871 H859 0.929 . S
C871 C865 1.390 . S
C871 C868 1.386 . S
C872 C867 1.490 . S
C872 C874 1.395 . S
C872 C875 1.403 . S
H873 C879 0.930 . S
C874 H860 0.930 . S
C874 C872 1.395 . S
C874 C877 1.403 . S
C875 C872 1.403 . S
C875 C876 1.524 . S
C875 C879 1.400 . S
C876 H861 0.960 . S
C876 H862 0.960 . S
C876 H863 0.960 . S
C876 C875 1.524 . S
C877 C874 1.403 . S
C877 C878 1.392 . S
C877 C881 1.495 . S
C878 C877 1.392 . S
C878 C879 1.385 . S
C878 C880 1.478 . S
C879 H873 0.930 . S
C879 C875 1.400 . S
C879 C878 1.385 . S
C880 C878 1.478 . S
C880 C882 1.381 . S
C880 C886 1.383 . S
C881 C877 1.495 . S
C881 H887 0.959 . S
C881 H888 0.961 . S
C881 H889 0.960 . S
C882 C880 1.381 . S
C882 C883 1.394 . S
C882 H890 0.930 . S
C883 C882 1.394 . S
C883 C884 1.383 . S
C883 H891 0.929 . S
C884 C883 1.383 . S
C884 C885 1.377 . S
C885 H869 0.930 . S
C885 C884 1.377 . S
C885 C886 1.379 . S
C886 H870 0.931 . S
C886 C880 1.383 . S
C886 C885 1.379 . S
H887 C881 0.959 . S
H888 C881 0.961 . S
H889 C881 0.960 . S
H890 C882 0.930 . S
H891 C883 0.929 . S
H892 C900 0.929 . S
H893 C902 0.930 . S
H894 C904 0.930 . S
H895 C907 0.929 . S
H896 C910 0.930 . S
H897 C912 0.960 . S
H898 C912 0.960 . S
H899 C912 0.960 . S
C900 H892 0.929 . S
C900 C901 1.377 . S
C900 C902 1.384 . S
C901 C900 1.377 . S
C901 C907 1.390 . S
C902 H893 0.930 . S
C902 C900 1.384 . S
C902 C903 1.372 . S
C903 C902 1.372 . S
C903 C904 1.400 . S
C903 C908 1.490 . S
C904 H894 0.930 . S
C904 C903 1.400 . S
C904 C907 1.386 . S
H905 C921 0.930 . S
H906 C922 0.931 . S
C907 H895 0.929 . S
C907 C901 1.390 . S
C907 C904 1.386 . S
C908 C903 1.490 . S
C908 C910 1.395 . S
C908 C911 1.403 . S
H909 C915 0.930 . S
C910 H896 0.930 . S
C910 C908 1.395 . S
C910 C913 1.403 . S
C911 C908 1.403 . S
C911 C912 1.524 . S
C911 C915 1.400 . S
C912 H897 0.960 . S
C912 H898 0.960 . S
C912 H899 0.960 . S
C912 C911 1.524 . S
C913 C910 1.403 . S
C913 C914 1.392 . S
C913 C917 1.495 . S
C914 C913 1.392 . S
C914 C915 1.385 . S
C914 C916 1.478 . S
C915 H909 0.930 . S
C915 C911 1.400 . S
C915 C914 1.385 . S
C916 C914 1.478 . S
C916 C918 1.381 . S
C916 C922 1.383 . S
C917 C913 1.495 . S
C917 H923 0.959 . S
C917 H924 0.961 . S
C917 H925 0.960 . S
C918 C916 1.381 . S
C918 C919 1.394 . S
C918 H926 0.930 . S
C919 C918 1.394 . S
C919 C920 1.383 . S
C919 H927 0.929 . S
C920 C919 1.383 . S
C920 C921 1.377 . S
C921 H905 0.930 . S
C921 C920 1.377 . S
C921 C922 1.379 . S
C922 H906 0.931 . S
C922 C916 1.383 . S
C922 C921 1.379 . S
H923 C917 0.959 . S
H924 C917 0.961 . S
H925 C917 0.960 . S
H926 C918 0.930 . S
H927 C919 0.929 . S
H928 C936 0.929 . S
H929 C938 0.930 . S
H930 C940 0.930 . S
H931 C943 0.929 . S
H932 C946 0.930 . S
H933 C948 0.960 . S
H934 C948 0.960 . S
H935 C948 0.960 . S
C936 H928 0.929 . S
C936 C937 1.377 . S
C936 C938 1.384 . S
C937 C936 1.377 . S
C937 C943 1.390 . S
C938 H929 0.930 . S
C938 C936 1.384 . S
C938 C939 1.372 . S
C939 C938 1.372 . S
C939 C940 1.400 . S
C939 C944 1.490 . S
C940 H930 0.930 . S
C940 C939 1.400 . S
C940 C943 1.386 . S
H941 C957 0.930 . S
H942 C958 0.931 . S
C943 H931 0.929 . S
C943 C937 1.390 . S
C943 C940 1.386 . S
C944 C939 1.490 . S
C944 C946 1.395 . S
C944 C947 1.403 . S
H945 C951 0.930 . S
C946 H932 0.930 . S
C946 C944 1.395 . S
C946 C949 1.403 . S
C947 C944 1.403 . S
C947 C948 1.524 . S
C947 C951 1.400 . S
C948 H933 0.960 . S
C948 H934 0.960 . S
C948 H935 0.960 . S
C948 C947 1.524 . S
C949 C946 1.403 . S
C949 C950 1.392 . S
C949 C953 1.495 . S
C950 C949 1.392 . S
C950 C951 1.385 . S
C950 C952 1.478 . S
C951 H945 0.930 . S
C951 C947 1.400 . S
C951 C950 1.385 . S
C952 C950 1.478 . S
C952 C954 1.381 . S
C952 C958 1.383 . S
C953 C949 1.495 . S
C953 H959 0.959 . S
C953 H960 0.961 . S
C953 H961 0.960 . S
C954 C952 1.381 . S
C954 C955 1.394 . S
C954 H962 0.930 . S
C955 C954 1.394 . S
C955 C956 1.383 . S
C955 H963 0.929 . S
C956 C955 1.383 . S
C956 C957 1.377 . S
C957 H941 0.930 . S
C957 C956 1.377 . S
C957 C958 1.379 . S
C958 H942 0.931 . S
C958 C952 1.383 . S
C958 C957 1.379 . S
H959 C953 0.959 . S
H960 C953 0.961 . S
H961 C953 0.960 . S
H962 C954 0.930 . S
H963 C955 0.929 . S
H964 C972 0.929 . S
H965 C974 0.930 . S
H966 C976 0.930 . S
H967 C979 0.929 . S
H968 C982 0.930 . S
H969 C984 0.960 . S
H970 C984 0.960 . S
H971 C984 0.960 . S
C972 H964 0.929 . S
C972 C973 1.377 . S
C972 C974 1.384 . S
C973 C972 1.377 . S
C973 C979 1.390 . S
C974 H965 0.930 . S
C974 C972 1.384 . S
C974 C975 1.372 . S
C975 C974 1.372 . S
C975 C976 1.400 . S
C975 C980 1.490 . S
C976 H966 0.930 . S
C976 C975 1.400 . S
C976 C979 1.386 . S
H977 C993 0.930 . S
H978 C994 0.931 . S
C979 H967 0.929 . S
C979 C973 1.390 . S
C979 C976 1.386 . S
C980 C975 1.490 . S
C980 C982 1.395 . S
C980 C983 1.403 . S
H981 C987 0.930 . S
C982 H968 0.930 . S
C982 C980 1.395 . S
C982 C985 1.403 . S
C983 C980 1.403 . S
C983 C984 1.524 . S
C983 C987 1.400 . S
C984 H969 0.960 . S
C984 H970 0.960 . S
C984 H971 0.960 . S
C984 C983 1.524 . S
C985 C982 1.403 . S
C985 C986 1.392 . S
C985 C989 1.495 . S
C986 C985 1.392 . S
C986 C987 1.385 . S
C986 C988 1.478 . S
C987 H981 0.930 . S
C987 C983 1.400 . S
C987 C986 1.385 . S
C988 C986 1.478 . S
C988 C990 1.381 . S
C988 C994 1.383 . S
C989 C985 1.495 . S
C989 H995 0.959 . S
C989 H996 0.961 . S
C989 H997 0.960 . S
C990 C988 1.381 . S
C990 C991 1.394 . S
C990 H998 0.930 . S
C991 C990 1.394 . S
C991 C992 1.383 . S
C991 H999 0.929 . S
C992 C991 1.383 . S
C992 C993 1.377 . S
C993 H977 0.930 . S
C993 C992 1.377 . S
C993 C994 1.379 . S
C994 H978 0.931 . S
C994 C988 1.383 . S
C994 C993 1.379 . S
H995 C989 0.959 . S
H996 C989 0.961 . S
H997 C989 0.960 . S
H998 C990 0.930 . S
H999 C991 0.929 . S
H1000 C1008 0.929 . S
H1001 C1010 0.930 . S
H1002 C1012 0.930 . S
H1003 C1015 0.929 . S
H1004 C1018 0.930 . S
H1005 C1020 0.960 . S
H1006 C1020 0.960 . S
H1007 C1020 0.960 . S
C1008 H1000 0.929 . S
C1008 C1009 1.377 . S
C1008 C1010 1.384 . S
C1009 C1008 1.377 . S
C1009 C1015 1.390 . S
C1010 H1001 0.930 . S
C1010 C1008 1.384 . S
C1010 C1011 1.372 . S
C1011 C1010 1.372 . S
C1011 C1012 1.400 . S
C1011 C1016 1.490 . S
C1012 H1002 0.930 . S
C1012 C1011 1.400 . S
C1012 C1015 1.386 . S
H1013 C1029 0.930 . S
H1014 C1030 0.931 . S
C1015 H1003 0.929 . S
C1015 C1009 1.390 . S
C1015 C1012 1.386 . S
C1016 C1011 1.490 . S
C1016 C1018 1.395 . S
C1016 C1019 1.403 . S
H1017 C1023 0.930 . S
C1018 H1004 0.930 . S
C1018 C1016 1.395 . S
C1018 C1021 1.403 . S
C1019 C1016 1.403 . S
C1019 C1020 1.524 . S
C1019 C1023 1.400 . S
C1020 H1005 0.960 . S
C1020 H1006 0.960 . S
C1020 H1007 0.960 . S
C1020 C1019 1.524 . S
C1021 C1018 1.403 . S
C1021 C1022 1.392 . S
C1021 C1025 1.495 . S
C1022 C1021 1.392 . S
C1022 C1023 1.385 . S
C1022 C1024 1.478 . S
C1023 H1017 0.930 . S
C1023 C1019 1.400 . S
C1023 C1022 1.385 . S
C1024 C1022 1.478 . S
C1024 C1026 1.381 . S
C1024 C1030 1.383 . S
C1025 C1021 1.495 . S
C1025 H1031 0.959 . S
C1025 H1032 0.961 . S
C1025 H1033 0.960 . S
C1026 C1024 1.381 . S
C1026 C1027 1.394 . S
C1026 H1034 0.930 . S
C1027 C1026 1.394 . S
C1027 C1028 1.383 . S
C1027 H1035 0.929 . S
C1028 C1027 1.383 . S
C1028 C1029 1.377 . S
C1029 H1013 0.930 . S
C1029 C1028 1.377 . S
C1029 C1030 1.379 . S
C1030 H1014 0.931 . S
C1030 C1024 1.383 . S
C1030 C1029 1.379 . S
H1031 C1025 0.959 . S
H1032 C1025 0.961 . S
H1033 C1025 0.960 . S
H1034 C1026 0.930 . S
H1035 C1027 0.929 . S
H1036 C1044 0.929 . S
H1037 C1046 0.930 . S
H1038 C1048 0.930 . S
H1039 C1051 0.929 . S
H1040 C1054 0.930 . S
H1041 C1056 0.960 . S
H1042 C1056 0.960 . S
H1043 C1056 0.960 . S
C1044 H1036 0.929 . S
C1044 C1045 1.377 . S
C1044 C1046 1.384 . S
C1045 C1044 1.377 . S
C1045 C1051 1.390 . S
C1046 H1037 0.930 . S
C1046 C1044 1.384 . S
C1046 C1047 1.372 . S
C1047 C1046 1.372 . S
C1047 C1048 1.400 . S
C1047 C1052 1.490 . S
C1048 H1038 0.930 . S
C1048 C1047 1.400 . S
C1048 C1051 1.386 . S
H1049 C1065 0.930 . S
H1050 C1066 0.931 . S
C1051 H1039 0.929 . S
C1051 C1045 1.390 . S
C1051 C1048 1.386 . S
C1052 C1047 1.490 . S
C1052 C1054 1.395 . S
C1052 C1055 1.403 . S
H1053 C1059 0.930 . S
C1054 H1040 0.930 . S
C1054 C1052 1.395 . S
C1054 C1057 1.403 . S
C1055 C1052 1.403 . S
C1055 C1056 1.524 . S
C1055 C1059 1.400 . S
C1056 H1041 0.960 . S
C1056 H1042 0.960 . S
C1056 H1043 0.960 . S
C1056 C1055 1.524 . S
C1057 C1054 1.403 . S
C1057 C1058 1.392 . S
C1057 C1061 1.495 . S
C1058 C1057 1.392 . S
C1058 C1059 1.385 . S
C1058 C1060 1.478 . S
C1059 H1053 0.930 . S
C1059 C1055 1.400 . S
C1059 C1058 1.385 . S
C1060 C1058 1.478 . S
C1060 C1062 1.381 . S
C1060 C1066 1.383 . S
C1061 C1057 1.495 . S
C1061 H1067 0.959 . S
C1061 H1068 0.961 . S
C1061 H1069 0.960 . S
C1062 C1060 1.381 . S
C1062 C1063 1.394 . S
C1062 H1070 0.930 . S
C1063 C1062 1.394 . S
C1063 C1064 1.383 . S
C1063 H1071 0.929 . S
C1064 C1063 1.383 . S
C1064 C1065 1.377 . S
C1065 H1049 0.930 . S
C1065 C1064 1.377 . S
C1065 C1066 1.379 . S
C1066 H1050 0.931 . S
C1066 C1060 1.383 . S
C1066 C1065 1.379 . S
H1067 C1061 0.959 . S
H1068 C1061 0.961 . S
H1069 C1061 0.960 . S
H1070 C1062 0.930 . S
H1071 C1063 0.929 . S
H1072 C1080 0.929 . S
H1073 C1082 0.930 . S
H1074 C1084 0.930 . S
H1075 C1087 0.929 . S
H1076 C1090 0.930 . S
H1077 C1092 0.960 . S
H1078 C1092 0.960 . S
H1079 C1092 0.960 . S
C1080 H1072 0.929 . S
C1080 C1081 1.377 . S
C1080 C1082 1.384 . S
C1081 C1080 1.377 . S
C1081 C1087 1.390 . S
C1082 H1073 0.930 . S
C1082 C1080 1.384 . S
C1082 C1083 1.372 . S
C1083 C1082 1.372 . S
C1083 C1084 1.400 . S
C1083 C1088 1.490 . S
C1084 H1074 0.930 . S
C1084 C1083 1.400 . S
C1084 C1087 1.386 . S
H1085 C1101 0.930 . S
H1086 C1102 0.931 . S
C1087 H1075 0.929 . S
C1087 C1081 1.390 . S
C1087 C1084 1.386 . S
C1088 C1083 1.490 . S
C1088 C1090 1.395 . S
C1088 C1091 1.403 . S
H1089 C1095 0.930 . S
C1090 H1076 0.930 . S
C1090 C1088 1.395 . S
C1090 C1093 1.403 . S
C1091 C1088 1.403 . S
C1091 C1092 1.524 . S
C1091 C1095 1.400 . S
C1092 H1077 0.960 . S
C1092 H1078 0.960 . S
C1092 H1079 0.960 . S
C1092 C1091 1.524 . S
C1093 C1090 1.403 . S
C1093 C1094 1.392 . S
C1093 C1097 1.495 . S
C1094 C1093 1.392 . S
C1094 C1095 1.385 . S
C1094 C1096 1.478 . S
C1095 H1089 0.930 . S
C1095 C1091 1.400 . S
C1095 C1094 1.385 . S
C1096 C1094 1.478 . S
C1096 C1098 1.381 . S
C1096 C1102 1.383 . S
C1097 C1093 1.495 . S
C1097 H1103 0.959 . S
C1097 H1104 0.961 . S
C1097 H1105 0.960 . S
C1098 C1096 1.381 . S
C1098 C1099 1.394 . S
C1098 H1106 0.930 . S
C1099 C1098 1.394 . S
C1099 C1100 1.383 . S
C1099 H1107 0.929 . S
C1100 C1099 1.383 . S
C1100 C1101 1.377 . S
C1101 H1085 0.930 . S
C1101 C1100 1.377 . S
C1101 C1102 1.379 . S
C1102 H1086 0.931 . S
C1102 C1096 1.383 . S
C1102 C1101 1.379 . S
H1103 C1097 0.959 . S
H1104 C1097 0.961 . S
H1105 C1097 0.960 . S
H1106 C1098 0.930 . S
H1107 C1099 0.929 . S
H1108 C1116 0.929 . S
H1109 C1118 0.930 . S
H1110 C1120 0.930 . S
H1111 C1123 0.929 . S
H1112 C1126 0.930 . S
H1113 C1128 0.960 . S
H1114 C1128 0.960 . S
H1115 C1128 0.960 . S
C1116 H1108 0.929 . S
C1116 C1117 1.377 . S
C1116 C1118 1.384 . S
C1117 C1116 1.377 . S
C1117 C1123 1.390 . S
C1118 H1109 0.930 . S
C1118 C1116 1.384 . S
C1118 C1119 1.372 . S
C1119 C1118 1.372 . S
C1119 C1120 1.400 . S
C1119 C1124 1.490 . S
C1120 H1110 0.930 . S
C1120 C1119 1.400 . S
C1120 C1123 1.386 . S
H1121 C1137 0.930 . S
H1122 C1138 0.931 . S
C1123 H1111 0.929 . S
C1123 C1117 1.390 . S
C1123 C1120 1.386 . S
C1124 C1119 1.490 . S
C1124 C1126 1.395 . S
C1124 C1127 1.403 . S
H1125 C1131 0.930 . S
C1126 H1112 0.930 . S
C1126 C1124 1.395 . S
C1126 C1129 1.403 . S
C1127 C1124 1.403 . S
C1127 C1128 1.524 . S
C1127 C1131 1.400 . S
C1128 H1113 0.960 . S
C1128 H1114 0.960 . S
C1128 H1115 0.960 . S
C1128 C1127 1.524 . S
C1129 C1126 1.403 . S
C1129 C1130 1.392 . S
C1129 C1133 1.495 . S
C1130 C1129 1.392 . S
C1130 C1131 1.385 . S
C1130 C1132 1.478 . S
C1131 H1125 0.930 . S
C1131 C1127 1.400 . S
C1131 C1130 1.385 . S
C1132 C1130 1.478 . S
C1132 C1134 1.381 . S
C1132 C1138 1.383 . S
C1133 C1129 1.495 . S
C1133 H1139 0.959 . S
C1133 H1140 0.961 . S
C1133 H1141 0.960 . S
C1134 C1132 1.381 . S
C1134 C1135 1.394 . S
C1134 H1142 0.930 . S
C1135 C1134 1.394 . S
C1135 C1136 1.383 . S
C1135 H1143 0.929 . S
C1136 C1135 1.383 . S
C1136 C1137 1.377 . S
C1137 H1121 0.930 . S
C1137 C1136 1.377 . S
C1137 C1138 1.379 . S
C1138 H1122 0.931 . S
C1138 C1132 1.383 . S
C1138 C1137 1.379 . S
H1139 C1133 0.959 . S
H1140 C1133 0.961 . S
H1141 C1133 0.960 . S
H1142 C1134 0.930 . S
H1143 C1135 0.929 . S
H1144 C1152 0.929 . S
H1145 C1154 0.930 . S
H1146 C1156 0.930 . S
H1147 C1159 0.929 . S
H1148 C1162 0.930 . S
H1149 C1164 0.960 . S
H1150 C1164 0.960 . S
H1151 C1164 0.960 . S
C1152 H1144 0.929 . S
C1152 C1153 1.377 . S
C1152 C1154 1.384 . S
C1153 C1152 1.377 . S
C1153 C1159 1.390 . S
C1154 H1145 0.930 . S
C1154 C1152 1.384 . S
C1154 C1155 1.372 . S
C1155 C1154 1.372 . S
C1155 C1156 1.400 . S
C1155 C1160 1.490 . S
C1156 H1146 0.930 . S
C1156 C1155 1.400 . S
C1156 C1159 1.386 . S
H1157 C1173 0.930 . S
H1158 C1174 0.931 . S
C1159 H1147 0.929 . S
C1159 C1153 1.390 . S
C1159 C1156 1.386 . S
C1160 C1155 1.490 . S
C1160 C1162 1.395 . S
C1160 C1163 1.403 . S
H1161 C1167 0.930 . S
C1162 H1148 0.930 . S
C1162 C1160 1.395 . S
C1162 C1165 1.403 . S
C1163 C1160 1.403 . S
C1163 C1164 1.524 . S
C1163 C1167 1.400 . S
C1164 H1149 0.960 . S
C1164 H1150 0.960 . S
C1164 H1151 0.960 . S
C1164 C1163 1.524 . S
C1165 C1162 1.403 . S
C1165 C1166 1.392 . S
C1165 C1169 1.495 . S
C1166 C1165 1.392 . S
C1166 C1167 1.385 . S
C1166 C1168 1.478 . S
C1167 H1161 0.930 . S
C1167 C1163 1.400 . S
C1167 C1166 1.385 . S
C1168 C1166 1.478 . S
C1168 C1170 1.381 . S
C1168 C1174 1.383 . S
C1169 C1165 1.495 . S
C1169 H1175 0.959 . S
C1169 H1176 0.961 . S
C1169 H1177 0.960 . S
C1170 C1168 1.381 . S
C1170 C1171 1.394 . S
C1170 H1178 0.930 . S
C1171 C1170 1.394 . S
C1171 C1172 1.383 . S
C1171 H1179 0.929 . S
C1172 C1171 1.383 . S
C1172 C1173 1.377 . S
C1173 H1157 0.930 . S
C1173 C1172 1.377 . S
C1173 C1174 1.379 . S
C1174 H1158 0.931 . S
C1174 C1168 1.383 . S
C1174 C1173 1.379 . S
H1175 C1169 0.959 . S
H1176 C1169 0.961 . S
H1177 C1169 0.960 . S
H1178 C1170 0.930 . S
H1179 C1171 0.929 . S
H1180 C1188 0.929 . S
H1181 C1190 0.930 . S
H1182 C1192 0.930 . S
H1183 C1195 0.929 . S
H1184 C1198 0.930 . S
H1185 C1200 0.960 . S
H1186 C1200 0.960 . S
H1187 C1200 0.960 . S
C1188 H1180 0.929 . S
C1188 C1189 1.377 . S
C1188 C1190 1.384 . S
C1189 C1188 1.377 . S
C1189 C1195 1.390 . S
C1190 H1181 0.930 . S
C1190 C1188 1.384 . S
C1190 C1191 1.372 . S
C1191 C1190 1.372 . S
C1191 C1192 1.400 . S
C1191 C1196 1.490 . S
C1192 H1182 0.930 . S
C1192 C1191 1.400 . S
C1192 C1195 1.386 . S
H1193 C1209 0.930 . S
H1194 C1210 0.931 . S
C1195 H1183 0.929 . S
C1195 C1189 1.390 . S
C1195 C1192 1.386 . S
C1196 C1191 1.490 . S
C1196 C1198 1.395 . S
C1196 C1199 1.403 . S
H1197 C1203 0.930 . S
C1198 H1184 0.930 . S
C1198 C1196 1.395 . S
C1198 C1201 1.403 . S
C1199 C1196 1.403 . S
C1199 C1200 1.524 . S
C1199 C1203 1.400 . S
C1200 H1185 0.960 . S
C1200 H1186 0.960 . S
C1200 H1187 0.960 . S
C1200 C1199 1.524 . S
C1201 C1198 1.403 . S
C1201 C1202 1.392 . S
C1201 C1205 1.495 . S
C1202 C1201 1.392 . S
C1202 C1203 1.385 . S
C1202 C1204 1.478 . S
C1203 H1197 0.930 . S
C1203 C1199 1.400 . S
C1203 C1202 1.385 . S
C1204 C1202 1.478 . S
C1204 C1206 1.381 . S
C1204 C1210 1.383 . S
C1205 C1201 1.495 . S
C1205 H1211 0.959 . S
C1205 H1212 0.961 . S
C1205 H1213 0.960 . S
C1206 C1204 1.381 . S
C1206 C1207 1.394 . S
C1206 H1214 0.930 . S
C1207 C1206 1.394 . S
C1207 C1208 1.383 . S
C1207 H1215 0.929 . S
C1208 C1207 1.383 . S
C1208 C1209 1.377 . S
C1209 H1193 0.930 . S
C1209 C1208 1.377 . S
C1209 C1210 1.379 . S
C1210 H1194 0.931 . S
C1210 C1204 1.383 . S
C1210 C1209 1.379 . S
H1211 C1205 0.959 . S
H1212 C1205 0.961 . S
H1213 C1205 0.960 . S
H1214 C1206 0.930 . S
H1215 C1207 0.929 . S
H1216 C1224 0.929 . S
H1217 C1226 0.930 . S
H1218 C1228 0.930 . S
H1219 C1231 0.929 . S
H1220 C1234 0.930 . S
H1221 C1236 0.960 . S
H1222 C1236 0.960 . S
H1223 C1236 0.960 . S
C1224 H1216 0.929 . S
C1224 C1225 1.377 . S
C1224 C1226 1.384 . S
C1225 C1224 1.377 . S
C1225 C1231 1.390 . S
C1226 H1217 0.930 . S
C1226 C1224 1.384 . S
C1226 C1227 1.372 . S
C1227 C1226 1.372 . S
C1227 C1228 1.400 . S
C1227 C1232 1.490 . S
C1228 H1218 0.930 . S
C1228 C1227 1.400 . S
C1228 C1231 1.386 . S
H1229 C1245 0.930 . S
H1230 C1246 0.931 . S
C1231 H1219 0.929 . S
C1231 C1225 1.390 . S
C1231 C1228 1.386 . S
C1232 C1227 1.490 . S
C1232 C1234 1.395 . S
C1232 C1235 1.403 . S
H1233 C1239 0.930 . S
C1234 H1220 0.930 . S
C1234 C1232 1.395 . S
C1234 C1237 1.403 . S
C1235 C1232 1.403 . S
C1235 C1236 1.524 . S
C1235 C1239 1.400 . S
C1236 H1221 0.960 . S
C1236 H1222 0.960 . S
C1236 H1223 0.960 . S
C1236 C1235 1.524 . S
C1237 C1234 1.403 . S
C1237 C1238 1.392 . S
C1237 C1241 1.495 . S
C1238 C1237 1.392 . S
C1238 C1239 1.385 . S
C1238 C1240 1.478 . S
C1239 H1233 0.930 . S
C1239 C1235 1.400 . S
C1239 C1238 1.385 . S
C1240 C1238 1.478 . S
C1240 C1242 1.381 . S
C1240 C1246 1.383 . S
C1241 C1237 1.495 . S
C1241 H1247 0.959 . S
C1241 H1248 0.961 . S
C1241 H1249 0.960 . S
C1242 C1240 1.381 . S
C1242 C1243 1.394 . S
C1242 H1250 0.930 . S
C1243 C1242 1.394 . S
C1243 C1244 1.383 . S
C1243 H1251 0.929 . S
C1244 C1243 1.383 . S
C1244 C1245 1.377 . S
C1245 H1229 0.930 . S
C1245 C1244 1.377 . S
C1245 C1246 1.379 . S
C1246 H1230 0.931 . S
C1246 C1240 1.383 . S
C1246 C1245 1.379 . S
H1247 C1241 0.959 . S
H1248 C1241 0.961 . S
H1249 C1241 0.960 . S
H1250 C1242 0.930 . S
H1251 C1243 0.929 . S
H1252 C1260 0.929 . S
H1253 C1262 0.930 . S
H1254 C1264 0.930 . S
H1255 C1267 0.929 . S
H1256 C1270 0.930 . S
H1257 C1272 0.960 . S
H1258 C1272 0.960 . S
H1259 C1272 0.960 . S
C1260 H1252 0.929 . S
C1260 C1261 1.377 . S
C1260 C1262 1.384 . S
C1261 C1260 1.377 . S
C1261 C1267 1.390 . S
C1262 H1253 0.930 . S
C1262 C1260 1.384 . S
C1262 C1263 1.372 . S
C1263 C1262 1.372 . S
C1263 C1264 1.400 . S
C1263 C1268 1.490 . S
C1264 H1254 0.930 . S
C1264 C1263 1.400 . S
C1264 C1267 1.386 . S
H1265 C1281 0.930 . S
H1266 C1282 0.931 . S
C1267 H1255 0.929 . S
C1267 C1261 1.390 . S
C1267 C1264 1.386 . S
C1268 C1263 1.490 . S
C1268 C1270 1.395 . S
C1268 C1271 1.403 . S
H1269 C1275 0.930 . S
C1270 H1256 0.930 . S
C1270 C1268 1.395 . S
C1270 C1273 1.403 . S
C1271 C1268 1.403 . S
C1271 C1272 1.524 . S
C1271 C1275 1.400 . S
C1272 H1257 0.960 . S
C1272 H1258 0.960 . S
C1272 H1259 0.960 . S
C1272 C1271 1.524 . S
C1273 C1270 1.403 . S
C1273 C1274 1.392 . S
C1273 C1277 1.495 . S
C1274 C1273 1.392 . S
C1274 C1275 1.385 . S
C1274 C1276 1.478 . S
C1275 H1269 0.930 . S
C1275 C1271 1.400 . S
C1275 C1274 1.385 . S
C1276 C1274 1.478 . S
C1276 C1278 1.381 . S
C1276 C1282 1.383 . S
C1277 C1273 1.495 . S
C1277 H1283 0.959 . S
C1277 H1284 0.961 . S
C1277 H1285 0.960 . S
C1278 C1276 1.381 . S
C1278 C1279 1.394 . S
C1278 H1286 0.930 . S
C1279 C1278 1.394 . S
C1279 C1280 1.383 . S
C1279 H1287 0.929 . S
C1280 C1279 1.383 . S
C1280 C1281 1.377 . S
C1281 H1265 0.930 . S
C1281 C1280 1.377 . S
C1281 C1282 1.379 . S
C1282 H1266 0.931 . S
C1282 C1276 1.383 . S
C1282 C1281 1.379 . S
H1283 C1277 0.959 . S
H1284 C1277 0.961 . S
H1285 C1277 0.960 . S
H1286 C1278 0.930 . S
H1287 C1279 0.929 . S
H1288 C1296 0.929 . S
H1289 C1298 0.930 . S
H1290 C1300 0.930 . S
H1291 C1303 0.929 . S
H1292 C1306 0.930 . S
H1293 C1308 0.960 . S
H1294 C1308 0.960 . S
H1295 C1308 0.960 . S
C1296 H1288 0.929 . S
C1296 C1297 1.377 . S
C1296 C1298 1.384 . S
C1297 C1296 1.377 . S
C1297 C1303 1.390 . S
C1298 H1289 0.930 . S
C1298 C1296 1.384 . S
C1298 C1299 1.372 . S
C1299 C1298 1.372 . S
C1299 C1300 1.400 . S
C1299 C1304 1.490 . S
C1300 H1290 0.930 . S
C1300 C1299 1.400 . S
C1300 C1303 1.386 . S
H1301 C1317 0.930 . S
H1302 C1318 0.931 . S
C1303 H1291 0.929 . S
C1303 C1297 1.390 . S
C1303 C1300 1.386 . S
C1304 C1299 1.490 . S
C1304 C1306 1.395 . S
C1304 C1307 1.403 . S
H1305 C1311 0.930 . S
C1306 H1292 0.930 . S
C1306 C1304 1.395 . S
C1306 C1309 1.403 . S
C1307 C1304 1.403 . S
C1307 C1308 1.524 . S
C1307 C1311 1.400 . S
C1308 H1293 0.960 . S
C1308 H1294 0.960 . S
C1308 H1295 0.960 . S
C1308 C1307 1.524 . S
C1309 C1306 1.403 . S
C1309 C1310 1.392 . S
C1309 C1313 1.495 . S
C1310 C1309 1.392 . S
C1310 C1311 1.385 . S
C1310 C1312 1.478 . S
C1311 H1305 0.930 . S
C1311 C1307 1.400 . S
C1311 C1310 1.385 . S
C1312 C1310 1.478 . S
C1312 C1314 1.381 . S
C1312 C1318 1.383 . S
C1313 C1309 1.495 . S
C1313 H1319 0.959 . S
C1313 H1320 0.961 . S
C1313 H1321 0.960 . S
C1314 C1312 1.381 . S
C1314 C1315 1.394 . S
C1314 H1322 0.930 . S
C1315 C1314 1.394 . S
C1315 C1316 1.383 . S
C1315 H1323 0.929 . S
C1316 C1315 1.383 . S
C1316 C1317 1.377 . S
C1317 H1301 0.930 . S
C1317 C1316 1.377 . S
C1317 C1318 1.379 . S
C1318 H1302 0.931 . S
C1318 C1312 1.383 . S
C1318 C1317 1.379 . S
H1319 C1313 0.959 . S
H1320 C1313 0.961 . S
H1321 C1313 0.960 . S
H1322 C1314 0.930 . S
H1323 C1315 0.929 . S
H1324 C1332 0.929 . S
H1325 C1334 0.930 . S
H1326 C1336 0.930 . S
H1327 C1339 0.929 . S
H1328 C1342 0.930 . S
H1329 C1344 0.960 . S
H1330 C1344 0.960 . S
H1331 C1344 0.960 . S
C1332 H1324 0.929 . S
C1332 C1333 1.377 . S
C1332 C1334 1.384 . S
C1333 C1332 1.377 . S
C1333 C1339 1.390 . S
C1334 H1325 0.930 . S
C1334 C1332 1.384 . S
C1334 C1335 1.372 . S
C1335 C1334 1.372 . S
C1335 C1336 1.400 . S
C1335 C1340 1.490 . S
C1336 H1326 0.930 . S
C1336 C1335 1.400 . S
C1336 C1339 1.386 . S
H1337 C1353 0.930 . S
H1338 C1354 0.931 . S
C1339 H1327 0.929 . S
C1339 C1333 1.390 . S
C1339 C1336 1.386 . S
C1340 C1335 1.490 . S
C1340 C1342 1.395 . S
C1340 C1343 1.403 . S
H1341 C1347 0.930 . S
C1342 H1328 0.930 . S
C1342 C1340 1.395 . S
C1342 C1345 1.403 . S
C1343 C1340 1.403 . S
C1343 C1344 1.524 . S
C1343 C1347 1.400 . S
C1344 H1329 0.960 . S
C1344 H1330 0.960 . S
C1344 H1331 0.960 . S
C1344 C1343 1.524 . S
C1345 C1342 1.403 . S
C1345 C1346 1.392 . S
C1345 C1349 1.495 . S
C1346 C1345 1.392 . S
C1346 C1347 1.385 . S
C1346 C1348 1.478 . S
C1347 H1341 0.930 . S
C1347 C1343 1.400 . S
C1347 C1346 1.385 . S
C1348 C1346 1.478 . S
C1348 C1350 1.381 . S
C1348 C1354 1.383 . S
C1349 C1345 1.495 . S
C1349 H1355 0.959 . S
C1349 H1356 0.961 . S
C1349 H1357 0.960 . S
C1350 C1348 1.381 . S
C1350 C1351 1.394 . S
C1350 H1358 0.930 . S
C1351 C1350 1.394 . S
C1351 C1352 1.383 . S
C1351 H1359 0.929 . S
C1352 C1351 1.383 . S
C1352 C1353 1.377 . S
C1353 H1337 0.930 . S
C1353 C1352 1.377 . S
C1353 C1354 1.379 . S
C1354 H1338 0.931 . S
C1354 C1348 1.383 . S
C1354 C1353 1.379 . S
H1355 C1349 0.959 . S
H1356 C1349 0.961 . S
H1357 C1349 0.960 . S
H1358 C1350 0.930 . S
H1359 C1351 0.929 . S
H1360 C1368 0.929 . S
H1361 C1370 0.930 . S
H1362 C1372 0.930 . S
H1363 C1375 0.929 . S
H1364 C1378 0.930 . S
H1365 C1380 0.960 . S
H1366 C1380 0.960 . S
H1367 C1380 0.960 . S
C1368 H1360 0.929 . S
C1368 C1369 1.377 . S
C1368 C1370 1.384 . S
C1369 C1368 1.377 . S
C1369 C1375 1.390 . S
C1370 H1361 0.930 . S
C1370 C1368 1.384 . S
C1370 C1371 1.372 . S
C1371 C1370 1.372 . S
C1371 C1372 1.400 . S
C1371 C1376 1.490 . S
C1372 H1362 0.930 . S
C1372 C1371 1.400 . S
C1372 C1375 1.386 . S
H1373 C1389 0.930 . S
H1374 C1390 0.931 . S
C1375 H1363 0.929 . S
C1375 C1369 1.390 . S
C1375 C1372 1.386 . S
C1376 C1371 1.490 . S
C1376 C1378 1.395 . S
C1376 C1379 1.403 . S
H1377 C1383 0.930 . S
C1378 H1364 0.930 . S
C1378 C1376 1.395 . S
C1378 C1381 1.403 . S
C1379 C1376 1.403 . S
C1379 C1380 1.524 . S
C1379 C1383 1.400 . S
C1380 H1365 0.960 . S
C1380 H1366 0.960 . S
C1380 H1367 0.960 . S
C1380 C1379 1.524 . S
C1381 C1378 1.403 . S
C1381 C1382 1.392 . S
C1381 C1385 1.495 . S
C1382 C1381 1.392 . S
C1382 C1383 1.385 . S
C1382 C1384 1.478 . S
C1383 H1377 0.930 . S
C1383 C1379 1.400 . S
C1383 C1382 1.385 . S
C1384 C1382 1.478 . S
C1384 C1386 1.381 . S
C1384 C1390 1.383 . S
C1385 C1381 1.495 . S
C1385 H1391 0.959 . S
C1385 H1392 0.961 . S
C1385 H1393 0.960 . S
C1386 C1384 1.381 . S
C1386 C1387 1.394 . S
C1386 H1394 0.930 . S
C1387 C1386 1.394 . S
C1387 C1388 1.383 . S
C1387 H1395 0.929 . S
C1388 C1387 1.383 . S
C1388 C1389 1.377 . S
C1389 H1373 0.930 . S
C1389 C1388 1.377 . S
C1389 C1390 1.379 . S
C1390 H1374 0.931 . S
C1390 C1384 1.383 . S
C1390 C1389 1.379 . S
H1391 C1385 0.959 . S
H1392 C1385 0.961 . S
H1393 C1385 0.960 . S
H1394 C1386 0.930 . S
H1395 C1387 0.929 . S
H1396 C1404 0.929 . S
H1397 C1406 0.930 . S
H1398 C1408 0.930 . S
H1399 C1411 0.929 . S
H1400 C1414 0.930 . S
H1401 C1416 0.960 . S
H1402 C1416 0.960 . S
H1403 C1416 0.960 . S
C1404 H1396 0.929 . S
C1404 C1405 1.377 . S
C1404 C1406 1.384 . S
C1405 C1404 1.377 . S
C1405 C1411 1.390 . S
C1406 H1397 0.930 . S
C1406 C1404 1.384 . S
C1406 C1407 1.372 . S
C1407 C1406 1.372 . S
C1407 C1408 1.400 . S
C1407 C1412 1.490 . S
C1408 H1398 0.930 . S
C1408 C1407 1.400 . S
C1408 C1411 1.386 . S
H1409 C1425 0.930 . S
H1410 C1426 0.931 . S
C1411 H1399 0.929 . S
C1411 C1405 1.390 . S
C1411 C1408 1.386 . S
C1412 C1407 1.490 . S
C1412 C1414 1.395 . S
C1412 C1415 1.403 . S
H1413 C1419 0.930 . S
C1414 H1400 0.930 . S
C1414 C1412 1.395 . S
C1414 C1417 1.403 . S
C1415 C1412 1.403 . S
C1415 C1416 1.524 . S
C1415 C1419 1.400 . S
C1416 H1401 0.960 . S
C1416 H1402 0.960 . S
C1416 H1403 0.960 . S
C1416 C1415 1.524 . S
C1417 C1414 1.403 . S
C1417 C1418 1.392 . S
C1417 C1421 1.495 . S
C1418 C1417 1.392 . S
C1418 C1419 1.385 . S
C1418 C1420 1.478 . S
C1419 H1413 0.930 . S
C1419 C1415 1.400 . S
C1419 C1418 1.385 . S
C1420 C1418 1.478 . S
C1420 C1422 1.381 . S
C1420 C1426 1.383 . S
C1421 C1417 1.495 . S
C1421 H1427 0.959 . S
C1421 H1428 0.961 . S
C1421 H1429 0.960 . S
C1422 C1420 1.381 . S
C1422 C1423 1.394 . S
C1422 H1430 0.930 . S
C1423 C1422 1.394 . S
C1423 C1424 1.383 . S
C1423 H1431 0.929 . S
C1424 C1423 1.383 . S
C1424 C1425 1.377 . S
C1425 H1409 0.930 . S
C1425 C1424 1.377 . S
C1425 C1426 1.379 . S
C1426 H1410 0.931 . S
C1426 C1420 1.383 . S
C1426 C1425 1.379 . S
H1427 C1421 0.959 . S
H1428 C1421 0.961 . S
H1429 C1421 0.960 . S
H1430 C1422 0.930 . S
H1431 C1423 0.929 . S
H1432 C1440 0.929 . S
H1433 C1442 0.930 . S
H1434 C1444 0.930 . S
H1435 C1447 0.929 . S
H1436 C1450 0.930 . S
H1437 C1452 0.960 . S
H1438 C1452 0.960 . S
H1439 C1452 0.960 . S
C1440 H1432 0.929 . S
C1440 C1441 1.377 . S
C1440 C1442 1.384 . S
C1441 C1440 1.377 . S
C1441 C1447 1.390 . S
C1442 H1433 0.930 . S
C1442 C1440 1.384 . S
C1442 C1443 1.372 . S
C1443 C1442 1.372 . S
C1443 C1444 1.400 . S
C1443 C1448 1.490 . S
C1444 H1434 0.930 . S
C1444 C1443 1.400 . S
C1444 C1447 1.386 . S
H1445 C1461 0.930 1_554 S
H1446 C1462 0.931 . S
C1447 H1435 0.929 . S
C1447 C1441 1.390 . S
C1447 C1444 1.386 . S
C1448 C1443 1.490 . S
C1448 C1450 1.395 . S
C1448 C1451 1.403 . S
H1449 C1455 0.930 . S
C1450 H1436 0.930 . S
C1450 C1448 1.395 . S
C1450 C1453 1.403 . S
C1451 C1448 1.403 . S
C1451 C1452 1.524 . S
C1451 C1455 1.400 . S
C1452 H1437 0.960 . S
C1452 H1438 0.960 . S
C1452 H1439 0.960 . S
C1452 C1451 1.524 . S
C1453 C1450 1.403 . S
C1453 C1454 1.392 . S
C1453 C1457 1.495 . S
C1454 C1453 1.392 . S
C1454 C1455 1.385 . S
C1454 C1456 1.478 . S
C1455 H1449 0.930 . S
C1455 C1451 1.400 . S
C1455 C1454 1.385 . S
C1456 C1454 1.478 . S
C1456 C1458 1.381 . S
C1456 C1462 1.383 . S
C1457 C1453 1.495 . S
C1457 H1463 0.959 . S
C1457 H1464 0.961 . S
C1457 H1465 0.960 . S
C1458 C1456 1.381 . S
C1458 C1459 1.394 . S
C1458 H1466 0.930 . S
C1459 C1458 1.394 . S
C1459 C1460 1.383 . S
C1459 H1467 0.929 . S
C1460 C1459 1.383 . S
C1460 C1461 1.377 . S
C1461 H1445 0.930 1_556 S
C1461 C1460 1.377 . S
C1461 C1462 1.379 . S
C1462 H1446 0.931 . S
C1462 C1456 1.383 . S
C1462 C1461 1.379 . S
H1463 C1457 0.959 . S
H1464 C1457 0.961 . S
H1465 C1457 0.960 . S
H1466 C1458 0.930 . S
H1467 C1459 0.929 . S
H1468 C1476 0.929 . S
H1469 C1478 0.930 . S
H1470 C1480 0.930 . S
H1471 C1483 0.929 . S
H1472 C1486 0.930 . S
H1473 C1488 0.960 . S
H1474 C1488 0.960 . S
H1475 C1488 0.960 . S
C1476 H1468 0.929 . S
C1476 C1477 1.377 . S
C1476 C1478 1.384 . S
C1477 C1476 1.377 . S
C1477 C1483 1.390 . S
C1478 H1469 0.930 . S
C1478 C1476 1.384 . S
C1478 C1479 1.372 . S
C1479 C1478 1.372 . S
C1479 C1480 1.400 . S
C1479 C1484 1.490 . S
C1480 H1470 0.930 . S
C1480 C1479 1.400 . S
C1480 C1483 1.386 . S
H1481 C1497 0.930 . S
H1482 C1498 0.931 . S
C1483 H1471 0.929 . S
C1483 C1477 1.390 . S
C1483 C1480 1.386 . S
C1484 C1479 1.490 . S
C1484 C1486 1.395 . S
C1484 C1487 1.403 . S
H1485 C1491 0.930 . S
C1486 H1472 0.930 . S
C1486 C1484 1.395 . S
C1486 C1489 1.403 . S
C1487 C1484 1.403 . S
C1487 C1488 1.524 . S
C1487 C1491 1.400 . S
C1488 H1473 0.960 . S
C1488 H1474 0.960 . S
C1488 H1475 0.960 . S
C1488 C1487 1.524 . S
C1489 C1486 1.403 . S
C1489 C1490 1.392 . S
C1489 C1493 1.495 . S
C1490 C1489 1.392 . S
C1490 C1491 1.385 . S
C1490 C1492 1.478 . S
C1491 H1485 0.930 . S
C1491 C1487 1.400 . S
C1491 C1490 1.385 . S
C1492 C1490 1.478 . S
C1492 C1494 1.381 . S
C1492 C1498 1.383 . S
C1493 C1489 1.495 . S
C1493 H1499 0.959 . S
C1493 H1500 0.961 . S
C1493 H1501 0.960 . S
C1494 C1492 1.381 . S
C1494 C1495 1.394 . S
C1494 H1502 0.930 . S
C1495 C1494 1.394 . S
C1495 C1496 1.383 . S
C1495 H1503 0.929 . S
C1496 C1495 1.383 . S
C1496 C1497 1.377 . S
C1497 H1481 0.930 . S
C1497 C1496 1.377 . S
C1497 C1498 1.379 . S
C1498 H1482 0.931 . S
C1498 C1492 1.383 . S
C1498 C1497 1.379 . S
H1499 C1493 0.959 . S
H1500 C1493 0.961 . S
H1501 C1493 0.960 . S
H1502 C1494 0.930 . S
H1503 C1495 0.929 . S
H1504 C1512 0.929 . S
H1505 C1514 0.930 . S
H1506 C1516 0.930 . S
H1507 C1519 0.929 . S
H1508 C1522 0.930 . S
H1509 C1524 0.960 . S
H1510 C1524 0.960 . S
H1511 C1524 0.960 . S
C1512 H1504 0.929 . S
C1512 C1513 1.377 . S
C1512 C1514 1.384 . S
C1513 C1512 1.377 . S
C1513 C1519 1.390 . S
C1514 H1505 0.930 . S
C1514 C1512 1.384 . S
C1514 C1515 1.372 . S
C1515 C1514 1.372 . S
C1515 C1516 1.400 . S
C1515 C1520 1.490 . S
C1516 H1506 0.930 . S
C1516 C1515 1.400 . S
C1516 C1519 1.386 . S
H1517 C1533 0.930 . S
H1518 C1534 0.931 . S
C1519 H1507 0.929 . S
C1519 C1513 1.390 . S
C1519 C1516 1.386 . S
C1520 C1515 1.490 . S
C1520 C1522 1.395 . S
C1520 C1523 1.403 . S
H1521 C1527 0.930 . S
C1522 H1508 0.930 . S
C1522 C1520 1.395 . S
C1522 C1525 1.403 . S
C1523 C1520 1.403 . S
C1523 C1524 1.524 . S
C1523 C1527 1.400 . S
C1524 H1509 0.960 . S
C1524 H1510 0.960 . S
C1524 H1511 0.960 . S
C1524 C1523 1.524 . S
C1525 C1522 1.403 . S
C1525 C1526 1.392 . S
C1525 C1529 1.495 . S
C1526 C1525 1.392 . S
C1526 C1527 1.385 . S
C1526 C1528 1.478 . S
C1527 H1521 0.930 . S
C1527 C1523 1.400 . S
C1527 C1526 1.385 . S
C1528 C1526 1.478 . S
C1528 C1530 1.381 . S
C1528 C1534 1.383 . S
C1529 C1525 1.495 . S
C1529 H1535 0.959 . S
C1529 H1536 0.961 . S
C1529 H1537 0.960 . S
C1530 C1528 1.381 . S
C1530 C1531 1.394 . S
C1530 H1538 0.930 . S
C1531 C1530 1.394 . S
C1531 C1532 1.383 . S
C1531 H1539 0.929 . S
C1532 C1531 1.383 . S
C1532 C1533 1.377 . S
C1533 H1517 0.930 . S
C1533 C1532 1.377 . S
C1533 C1534 1.379 . S
C1534 H1518 0.931 . S
C1534 C1528 1.383 . S
C1534 C1533 1.379 . S
H1535 C1529 0.959 . S
H1536 C1529 0.961 . S
H1537 C1529 0.960 . S
H1538 C1530 0.930 . S
H1539 C1531 0.929 . S
H1540 C1548 0.929 . S
H1541 C1550 0.930 . S
H1542 C1552 0.930 . S
H1543 C1555 0.929 . S
H1544 C1558 0.930 . S
H1545 C1560 0.960 . S
H1546 C1560 0.960 . S
H1547 C1560 0.960 . S
C1548 H1540 0.929 . S
C1548 C1549 1.377 . S
C1548 C1550 1.384 . S
C1549 C1548 1.377 . S
C1549 C1555 1.390 . S
C1550 H1541 0.930 . S
C1550 C1548 1.384 . S
C1550 C1551 1.372 . S
C1551 C1550 1.372 . S
C1551 C1552 1.400 . S
C1551 C1556 1.490 . S
C1552 H1542 0.930 . S
C1552 C1551 1.400 . S
C1552 C1555 1.386 . S
H1553 C1569 0.930 . S
H1554 C1570 0.931 . S
C1555 H1543 0.929 . S
C1555 C1549 1.390 . S
C1555 C1552 1.386 . S
C1556 C1551 1.490 . S
C1556 C1558 1.395 . S
C1556 C1559 1.403 . S
H1557 C1563 0.930 . S
C1558 H1544 0.930 . S
C1558 C1556 1.395 . S
C1558 C1561 1.403 . S
C1559 C1556 1.403 . S
C1559 C1560 1.524 . S
C1559 C1563 1.400 . S
C1560 H1545 0.960 . S
C1560 H1546 0.960 . S
C1560 H1547 0.960 . S
C1560 C1559 1.524 . S
C1561 C1558 1.403 . S
C1561 C1562 1.392 . S
C1561 C1565 1.495 . S
C1562 C1561 1.392 . S
C1562 C1563 1.385 . S
C1562 C1564 1.478 . S
C1563 H1557 0.930 . S
C1563 C1559 1.400 . S
C1563 C1562 1.385 . S
C1564 C1562 1.478 . S
C1564 C1566 1.381 . S
C1564 C1570 1.383 . S
C1565 C1561 1.495 . S
C1565 H1571 0.959 . S
C1565 H1572 0.961 . S
C1565 H1573 0.960 . S
C1566 C1564 1.381 . S
C1566 C1567 1.394 . S
C1566 H1574 0.930 . S
C1567 C1566 1.394 . S
C1567 C1568 1.383 . S
C1567 H1575 0.929 . S
C1568 C1567 1.383 . S
C1568 C1569 1.377 . S
C1569 H1553 0.930 . S
C1569 C1568 1.377 . S
C1569 C1570 1.379 . S
C1570 H1554 0.931 . S
C1570 C1564 1.383 . S
C1570 C1569 1.379 . S
H1571 C1565 0.959 . S
H1572 C1565 0.961 . S
H1573 C1565 0.960 . S
H1574 C1566 0.930 . S
H1575 C1567 0.929 . S
H1576 C1584 0.929 . S
H1577 C1586 0.930 . S
H1578 C1588 0.930 . S
H1579 C1591 0.929 . S
H1580 C1594 0.930 . S
H1581 C1596 0.960 . S
H1582 C1596 0.960 . S
H1583 C1596 0.960 . S
C1584 H1576 0.929 . S
C1584 C1585 1.377 . S
C1584 C1586 1.384 . S
C1585 C1584 1.377 . S
C1585 C1591 1.390 . S
C1586 H1577 0.930 . S
C1586 C1584 1.384 . S
C1586 C1587 1.372 . S
C1587 C1586 1.372 . S
C1587 C1588 1.400 . S
C1587 C1592 1.490 . S
C1588 H1578 0.930 . S
C1588 C1587 1.400 . S
C1588 C1591 1.386 . S
H1589 C1605 0.930 . S
H1590 C1606 0.931 . S
C1591 H1579 0.929 . S
C1591 C1585 1.390 . S
C1591 C1588 1.386 . S
C1592 C1587 1.490 . S
C1592 C1594 1.395 . S
C1592 C1595 1.403 . S
H1593 C1599 0.930 . S
C1594 H1580 0.930 . S
C1594 C1592 1.395 . S
C1594 C1597 1.403 . S
C1595 C1592 1.403 . S
C1595 C1596 1.524 . S
C1595 C1599 1.400 . S
C1596 H1581 0.960 . S
C1596 H1582 0.960 . S
C1596 H1583 0.960 . S
C1596 C1595 1.524 . S
C1597 C1594 1.403 . S
C1597 C1598 1.392 . S
C1597 C1601 1.495 . S
C1598 C1597 1.392 . S
C1598 C1599 1.385 . S
C1598 C1600 1.478 . S
C1599 H1593 0.930 . S
C1599 C1595 1.400 . S
C1599 C1598 1.385 . S
C1600 C1598 1.478 . S
C1600 C1602 1.381 . S
C1600 C1606 1.383 . S
C1601 C1597 1.495 . S
C1601 H1607 0.959 . S
C1601 H1608 0.961 . S
C1601 H1609 0.960 . S
C1602 C1600 1.381 . S
C1602 C1603 1.394 . S
C1602 H1610 0.930 . S
C1603 C1602 1.394 . S
C1603 C1604 1.383 . S
C1603 H1611 0.929 . S
C1604 C1603 1.383 . S
C1604 C1605 1.377 . S
C1605 H1589 0.930 . S
C1605 C1604 1.377 . S
C1605 C1606 1.379 . S
C1606 H1590 0.931 . S
C1606 C1600 1.383 . S
C1606 C1605 1.379 . S
H1607 C1601 0.959 . S
H1608 C1601 0.961 . S
H1609 C1601 0.960 . S
H1610 C1602 0.930 . S
H1611 C1603 0.929 . S
H1612 C1620 0.929 . S
H1613 C1622 0.930 . S
H1614 C1624 0.930 . S
H1615 C1627 0.929 . S
H1616 C1630 0.930 . S
H1617 C1632 0.960 . S
H1618 C1632 0.960 . S
H1619 C1632 0.960 . S
C1620 H1612 0.929 . S
C1620 C1621 1.377 . S
C1620 C1622 1.384 . S
C1621 C1620 1.377 . S
C1621 C1627 1.390 . S
C1622 H1613 0.930 . S
C1622 C1620 1.384 . S
C1622 C1623 1.372 . S
C1623 C1622 1.372 . S
C1623 C1624 1.400 . S
C1623 C1628 1.490 . S
C1624 H1614 0.930 . S
C1624 C1623 1.400 . S
C1624 C1627 1.386 . S
H1625 C1641 0.930 . S
H1626 C1642 0.931 . S
C1627 H1615 0.929 . S
C1627 C1621 1.390 . S
C1627 C1624 1.386 . S
C1628 C1623 1.490 . S
C1628 C1630 1.395 . S
C1628 C1631 1.403 . S
H1629 C1635 0.930 . S
C1630 H1616 0.930 . S
C1630 C1628 1.395 . S
C1630 C1633 1.403 . S
C1631 C1628 1.403 . S
C1631 C1632 1.524 . S
C1631 C1635 1.400 . S
C1632 H1617 0.960 . S
C1632 H1618 0.960 . S
C1632 H1619 0.960 . S
C1632 C1631 1.524 . S
C1633 C1630 1.403 . S
C1633 C1634 1.392 . S
C1633 C1637 1.495 . S
C1634 C1633 1.392 . S
C1634 C1635 1.385 . S
C1634 C1636 1.478 . S
C1635 H1629 0.930 . S
C1635 C1631 1.400 . S
C1635 C1634 1.385 . S
C1636 C1634 1.478 . S
C1636 C1638 1.381 . S
C1636 C1642 1.383 . S
C1637 C1633 1.495 . S
C1637 H1643 0.959 . S
C1637 H1644 0.961 . S
C1637 H1645 0.960 . S
C1638 C1636 1.381 . S
C1638 C1639 1.394 . S
C1638 H1646 0.930 . S
C1639 C1638 1.394 . S
C1639 C1640 1.383 . S
C1639 H1647 0.929 . S
C1640 C1639 1.383 . S
C1640 C1641 1.377 . S
C1641 H1625 0.930 . S
C1641 C1640 1.377 . S
C1641 C1642 1.379 . S
C1642 H1626 0.931 . S
C1642 C1636 1.383 . S
C1642 C1641 1.379 . S
H1643 C1637 0.959 . S
H1644 C1637 0.961 . S
H1645 C1637 0.960 . S
H1646 C1638 0.930 . S
H1647 C1639 0.929 . S
H1648 C1656 0.929 . S
H1649 C1658 0.930 . S
H1650 C1660 0.930 . S
H1651 C1663 0.929 . S
H1652 C1666 0.930 . S
H1653 C1668 0.960 . S
H1654 C1668 0.960 . S
H1655 C1668 0.960 . S
C1656 H1648 0.929 . S
C1656 C1657 1.377 . S
C1656 C1658 1.384 . S
C1657 C1656 1.377 . S
C1657 C1663 1.390 . S
C1658 H1649 0.930 . S
C1658 C1656 1.384 . S
C1658 C1659 1.372 . S
C1659 C1658 1.372 . S
C1659 C1660 1.400 . S
C1659 C1664 1.490 . S
C1660 H1650 0.930 . S
C1660 C1659 1.400 . S
C1660 C1663 1.386 . S
H1661 C1677 0.930 . S
H1662 C1678 0.931 . S
C1663 H1651 0.929 . S
C1663 C1657 1.390 . S
C1663 C1660 1.386 . S
C1664 C1659 1.490 . S
C1664 C1666 1.395 . S
C1664 C1667 1.403 . S
H1665 C1671 0.930 . S
C1666 H1652 0.930 . S
C1666 C1664 1.395 . S
C1666 C1669 1.403 . S
C1667 C1664 1.403 . S
C1667 C1668 1.524 . S
C1667 C1671 1.400 . S
C1668 H1653 0.960 . S
C1668 H1654 0.960 . S
C1668 H1655 0.960 . S
C1668 C1667 1.524 . S
C1669 C1666 1.403 . S
C1669 C1670 1.392 . S
C1669 C1673 1.495 . S
C1670 C1669 1.392 . S
C1670 C1671 1.385 . S
C1670 C1672 1.478 . S
C1671 H1665 0.930 . S
C1671 C1667 1.400 . S
C1671 C1670 1.385 . S
C1672 C1670 1.478 . S
C1672 C1674 1.381 . S
C1672 C1678 1.383 . S
C1673 C1669 1.495 . S
C1673 H1679 0.959 . S
C1673 H1680 0.961 . S
C1673 H1681 0.960 . S
C1674 C1672 1.381 . S
C1674 C1675 1.394 . S
C1674 H1682 0.930 . S
C1675 C1674 1.394 . S
C1675 C1676 1.383 . S
C1675 H1683 0.929 . S
C1676 C1675 1.383 . S
C1676 C1677 1.377 . S
C1677 H1661 0.930 . S
C1677 C1676 1.377 . S
C1677 C1678 1.379 . S
C1678 H1662 0.931 . S
C1678 C1672 1.383 . S
C1678 C1677 1.379 . S
H1679 C1673 0.959 . S
H1680 C1673 0.961 . S
H1681 C1673 0.960 . S
H1682 C1674 0.930 . S
H1683 C1675 0.929 . S
H1684 C1692 0.929 . S
H1685 C1694 0.930 . S
H1686 C1696 0.930 . S
H1687 C1699 0.929 . S
H1688 C1702 0.930 . S
H1689 C1704 0.960 . S
H1690 C1704 0.960 . S
H1691 C1704 0.960 . S
C1692 H1684 0.929 . S
C1692 C1693 1.377 . S
C1692 C1694 1.384 . S
C1693 C1692 1.377 . S
C1693 C1699 1.390 . S
C1694 H1685 0.930 . S
C1694 C1692 1.384 . S
C1694 C1695 1.372 . S
C1695 C1694 1.372 . S
C1695 C1696 1.400 . S
C1695 C1700 1.490 . S
C1696 H1686 0.930 . S
C1696 C1695 1.400 . S
C1696 C1699 1.386 . S
H1697 C1713 0.930 . S
H1698 C1714 0.931 . S
C1699 H1687 0.929 . S
C1699 C1693 1.390 . S
C1699 C1696 1.386 . S
C1700 C1695 1.490 . S
C1700 C1702 1.395 . S
C1700 C1703 1.403 . S
H1701 C1707 0.930 . S
C1702 H1688 0.930 . S
C1702 C1700 1.395 . S
C1702 C1705 1.403 . S
C1703 C1700 1.403 . S
C1703 C1704 1.524 . S
C1703 C1707 1.400 . S
C1704 H1689 0.960 . S
C1704 H1690 0.960 . S
C1704 H1691 0.960 . S
C1704 C1703 1.524 . S
C1705 C1702 1.403 . S
C1705 C1706 1.392 . S
C1705 C1709 1.495 . S
C1706 C1705 1.392 . S
C1706 C1707 1.385 . S
C1706 C1708 1.478 . S
C1707 H1701 0.930 . S
C1707 C1703 1.400 . S
C1707 C1706 1.385 . S
C1708 C1706 1.478 . S
C1708 C1710 1.381 . S
C1708 C1714 1.383 . S
C1709 C1705 1.495 . S
C1709 H1715 0.959 . S
C1709 H1716 0.961 . S
C1709 H1717 0.960 . S
C1710 C1708 1.381 . S
C1710 C1711 1.394 . S
C1710 H1718 0.930 . S
C1711 C1710 1.394 . S
C1711 C1712 1.383 . S
C1711 H1719 0.929 . S
C1712 C1711 1.383 . S
C1712 C1713 1.377 . S
C1713 H1697 0.930 . S
C1713 C1712 1.377 . S
C1713 C1714 1.379 . S
C1714 H1698 0.931 . S
C1714 C1708 1.383 . S
C1714 C1713 1.379 . S
H1715 C1709 0.959 . S
H1716 C1709 0.961 . S
H1717 C1709 0.960 . S
H1718 C1710 0.930 . S
H1719 C1711 0.929 . S
H1720 C1728 0.929 . S
H1721 C1730 0.930 . S
H1722 C1732 0.930 . S
H1723 C1735 0.929 . S
H1724 C1738 0.930 . S
H1725 C1740 0.960 . S
H1726 C1740 0.960 . S
H1727 C1740 0.960 . S
C1728 H1720 0.929 . S
C1728 C1729 1.377 . S
C1728 C1730 1.384 . S
C1729 C1728 1.377 . S
C1729 C1735 1.390 . S
C1730 H1721 0.930 . S
C1730 C1728 1.384 . S
C1730 C1731 1.372 . S
C1731 C1730 1.372 . S
C1731 C1732 1.400 . S
C1731 C1736 1.490 . S
C1732 H1722 0.930 . S
C1732 C1731 1.400 . S
C1732 C1735 1.386 . S
H1733 C1749 0.930 . S
H1734 C1750 0.931 . S
C1735 H1723 0.929 . S
C1735 C1729 1.390 . S
C1735 C1732 1.386 . S
C1736 C1731 1.490 . S
C1736 C1738 1.395 . S
C1736 C1739 1.403 . S
H1737 C1743 0.930 . S
C1738 H1724 0.930 . S
C1738 C1736 1.395 . S
C1738 C1741 1.403 . S
C1739 C1736 1.403 . S
C1739 C1740 1.524 . S
C1739 C1743 1.400 . S
C1740 H1725 0.960 . S
C1740 H1726 0.960 . S
C1740 H1727 0.960 . S
C1740 C1739 1.524 . S
C1741 C1738 1.403 . S
C1741 C1742 1.392 . S
C1741 C1745 1.495 . S
C1742 C1741 1.392 . S
C1742 C1743 1.385 . S
C1742 C1744 1.478 . S
C1743 H1737 0.930 . S
C1743 C1739 1.400 . S
C1743 C1742 1.385 . S
C1744 C1742 1.478 . S
C1744 C1746 1.381 . S
C1744 C1750 1.383 . S
C1745 C1741 1.495 . S
C1745 H1751 0.959 . S
C1745 H1752 0.961 . S
C1745 H1753 0.960 . S
C1746 C1744 1.381 . S
C1746 C1747 1.394 . S
C1746 H1754 0.930 . S
C1747 C1746 1.394 . S
C1747 C1748 1.383 . S
C1747 H1755 0.929 . S
C1748 C1747 1.383 . S
C1748 C1749 1.377 . S
C1749 H1733 0.930 . S
C1749 C1748 1.377 . S
C1749 C1750 1.379 . S
C1750 H1734 0.931 . S
C1750 C1744 1.383 . S
C1750 C1749 1.379 . S
H1751 C1745 0.959 . S
H1752 C1745 0.961 . S
H1753 C1745 0.960 . S
H1754 C1746 0.930 . S
H1755 C1747 0.929 . S
H1756 C1764 0.929 . S
H1757 C1766 0.930 . S
H1758 C1768 0.930 . S
H1759 C1771 0.929 . S
H1760 C1774 0.930 . S
H1761 C1776 0.960 . S
H1762 C1776 0.960 . S
H1763 C1776 0.960 . S
C1764 H1756 0.929 . S
C1764 C1765 1.377 . S
C1764 C1766 1.384 . S
C1765 C1764 1.377 . S
C1765 C1771 1.390 . S
C1766 H1757 0.930 . S
C1766 C1764 1.384 . S
C1766 C1767 1.372 . S
C1767 C1766 1.372 . S
C1767 C1768 1.400 . S
C1767 C1772 1.490 . S
C1768 H1758 0.930 . S
C1768 C1767 1.400 . S
C1768 C1771 1.386 . S
H1769 C1785 0.930 . S
H1770 C1786 0.931 . S
C1771 H1759 0.929 . S
C1771 C1765 1.390 . S
C1771 C1768 1.386 . S
C1772 C1767 1.490 . S
C1772 C1774 1.395 . S
C1772 C1775 1.403 . S
H1773 C1779 0.930 . S
C1774 H1760 0.930 . S
C1774 C1772 1.395 . S
C1774 C1777 1.403 . S
C1775 C1772 1.403 . S
C1775 C1776 1.524 . S
C1775 C1779 1.400 . S
C1776 H1761 0.960 . S
C1776 H1762 0.960 . S
C1776 H1763 0.960 . S
C1776 C1775 1.524 . S
C1777 C1774 1.403 . S
C1777 C1778 1.392 . S
C1777 C1781 1.495 . S
C1778 C1777 1.392 . S
C1778 C1779 1.385 . S
C1778 C1780 1.478 . S
C1779 H1773 0.930 . S
C1779 C1775 1.400 . S
C1779 C1778 1.385 . S
C1780 C1778 1.478 . S
C1780 C1782 1.381 . S
C1780 C1786 1.383 . S
C1781 C1777 1.495 . S
C1781 H1787 0.959 . S
C1781 H1788 0.961 . S
C1781 H1789 0.960 . S
C1782 C1780 1.381 . S
C1782 C1783 1.394 . S
C1782 H1790 0.930 . S
C1783 C1782 1.394 . S
C1783 C1784 1.383 . S
C1783 H1791 0.929 . S
C1784 C1783 1.383 . S
C1784 C1785 1.377 . S
C1785 H1769 0.930 . S
C1785 C1784 1.377 . S
C1785 C1786 1.379 . S
C1786 H1770 0.931 . S
C1786 C1780 1.383 . S
C1786 C1785 1.379 . S
H1787 C1781 0.959 . S
H1788 C1781 0.961 . S
H1789 C1781 0.960 . S
H1790 C1782 0.930 . S
H1791 C1783 0.929 . S
H1792 C1800 0.929 . S
H1793 C1802 0.930 . S
H1794 C1804 0.930 . S
H1795 C1807 0.929 . S
H1796 C1810 0.930 . S
H1797 C1812 0.960 . S
H1798 C1812 0.960 . S
H1799 C1812 0.960 . S
C1800 H1792 0.929 . S
C1800 C1801 1.377 . S
C1800 C1802 1.384 . S
C1801 C1800 1.377 . S
C1801 C1807 1.390 . S
C1802 H1793 0.930 . S
C1802 C1800 1.384 . S
C1802 C1803 1.372 . S
C1803 C1802 1.372 . S
C1803 C1804 1.400 . S
C1803 C1808 1.490 . S
C1804 H1794 0.930 . S
C1804 C1803 1.400 . S
C1804 C1807 1.386 . S
H1805 C1821 0.930 . S
H1806 C1822 0.931 . S
C1807 H1795 0.929 . S
C1807 C1801 1.390 . S
C1807 C1804 1.386 . S
C1808 C1803 1.490 . S
C1808 C1810 1.395 . S
C1808 C1811 1.403 . S
H1809 C1815 0.930 . S
C1810 H1796 0.930 . S
C1810 C1808 1.395 . S
C1810 C1813 1.403 . S
C1811 C1808 1.403 . S
C1811 C1812 1.524 . S
C1811 C1815 1.400 . S
C1812 H1797 0.960 . S
C1812 H1798 0.960 . S
C1812 H1799 0.960 . S
C1812 C1811 1.524 . S
C1813 C1810 1.403 . S
C1813 C1814 1.392 . S
C1813 C1817 1.495 . S
C1814 C1813 1.392 . S
C1814 C1815 1.385 . S
C1814 C1816 1.478 . S
C1815 H1809 0.930 . S
C1815 C1811 1.400 . S
C1815 C1814 1.385 . S
C1816 C1814 1.478 . S
C1816 C1818 1.381 . S
C1816 C1822 1.383 . S
C1817 C1813 1.495 . S
C1817 H1823 0.959 . S
C1817 H1824 0.961 . S
C1817 H1825 0.960 . S
C1818 C1816 1.381 . S
C1818 C1819 1.394 . S
C1818 H1826 0.930 . S
C1819 C1818 1.394 . S
C1819 C1820 1.383 . S
C1819 H1827 0.929 . S
C1820 C1819 1.383 . S
C1820 C1821 1.377 . S
C1821 H1805 0.930 . S
C1821 C1820 1.377 . S
C1821 C1822 1.379 . S
C1822 H1806 0.931 . S
C1822 C1816 1.383 . S
C1822 C1821 1.379 . S
H1823 C1817 0.959 . S
H1824 C1817 0.961 . S
H1825 C1817 0.960 . S
H1826 C1818 0.930 . S
H1827 C1819 0.929 . S
H1828 C1836 0.929 . S
H1829 C1838 0.930 . S
H1830 C1840 0.930 . S
H1831 C1843 0.929 . S
H1832 C1846 0.930 . S
H1833 C1848 0.960 . S
H1834 C1848 0.960 . S
H1835 C1848 0.960 . S
C1836 H1828 0.929 . S
C1836 C1837 1.377 . S
C1836 C1838 1.384 . S
C1837 C1836 1.377 . S
C1837 C1843 1.390 . S
C1838 H1829 0.930 . S
C1838 C1836 1.384 . S
C1838 C1839 1.372 . S
C1839 C1838 1.372 . S
C1839 C1840 1.400 . S
C1839 C1844 1.490 . S
C1840 H1830 0.930 . S
C1840 C1839 1.400 . S
C1840 C1843 1.386 . S
H1841 C1857 0.930 . S
H1842 C1858 0.931 . S
C1843 H1831 0.929 . S
C1843 C1837 1.390 . S
C1843 C1840 1.386 . S
C1844 C1839 1.490 . S
C1844 C1846 1.395 . S
C1844 C1847 1.403 . S
H1845 C1851 0.930 . S
C1846 H1832 0.930 . S
C1846 C1844 1.395 . S
C1846 C1849 1.403 . S
C1847 C1844 1.403 . S
C1847 C1848 1.524 . S
C1847 C1851 1.400 . S
C1848 H1833 0.960 . S
C1848 H1834 0.960 . S
C1848 H1835 0.960 . S
C1848 C1847 1.524 . S
C1849 C1846 1.403 . S
C1849 C1850 1.392 . S
C1849 C1853 1.495 . S
C1850 C1849 1.392 . S
C1850 C1851 1.385 . S
C1850 C1852 1.478 . S
C1851 H1845 0.930 . S
C1851 C1847 1.400 . S
C1851 C1850 1.385 . S
C1852 C1850 1.478 . S
C1852 C1854 1.381 . S
C1852 C1858 1.383 . S
C1853 C1849 1.495 . S
C1853 H1859 0.959 . S
C1853 H1860 0.961 . S
C1853 H1861 0.960 . S
C1854 C1852 1.381 . S
C1854 C1855 1.394 . S
C1854 H1862 0.930 . S
C1855 C1854 1.394 . S
C1855 C1856 1.383 . S
C1855 H1863 0.929 . S
C1856 C1855 1.383 . S
C1856 C1857 1.377 . S
C1857 H1841 0.930 . S
C1857 C1856 1.377 . S
C1857 C1858 1.379 . S
C1858 H1842 0.931 . S
C1858 C1852 1.383 . S
C1858 C1857 1.379 . S
H1859 C1853 0.959 . S
H1860 C1853 0.961 . S
H1861 C1853 0.960 . S
H1862 C1854 0.930 . S
H1863 C1855 0.929 . S
H1864 C1872 0.929 . S
H1865 C1874 0.930 . S
H1866 C1876 0.930 . S
H1867 C1879 0.929 . S
H1868 C1882 0.930 . S
H1869 C1884 0.960 . S
H1870 C1884 0.960 . S
H1871 C1884 0.960 . S
C1872 H1864 0.929 . S
C1872 C1873 1.377 . S
C1872 C1874 1.384 . S
C1873 C1872 1.377 . S
C1873 C1879 1.390 . S
C1874 H1865 0.930 . S
C1874 C1872 1.384 . S
C1874 C1875 1.372 . S
C1875 C1874 1.372 . S
C1875 C1876 1.400 . S
C1875 C1880 1.490 . S
C1876 H1866 0.930 . S
C1876 C1875 1.400 . S
C1876 C1879 1.386 . S
H1877 C1893 0.930 . S
H1878 C1894 0.931 . S
C1879 H1867 0.929 . S
C1879 C1873 1.390 . S
C1879 C1876 1.386 . S
C1880 C1875 1.490 . S
C1880 C1882 1.395 . S
C1880 C1883 1.403 . S
H1881 C1887 0.930 . S
C1882 H1868 0.930 . S
C1882 C1880 1.395 . S
C1882 C1885 1.403 . S
C1883 C1880 1.403 . S
C1883 C1884 1.524 . S
C1883 C1887 1.400 . S
C1884 H1869 0.960 . S
C1884 H1870 0.960 . S
C1884 H1871 0.960 . S
C1884 C1883 1.524 . S
C1885 C1882 1.403 . S
C1885 C1886 1.392 . S
C1885 C1889 1.495 . S
C1886 C1885 1.392 . S
C1886 C1887 1.385 . S
C1886 C1888 1.478 . S
C1887 H1881 0.930 . S
C1887 C1883 1.400 . S
C1887 C1886 1.385 . S
C1888 C1886 1.478 . S
C1888 C1890 1.381 . S
C1888 C1894 1.383 . S
C1889 C1885 1.495 . S
C1889 H1895 0.959 . S
C1889 H1896 0.961 . S
C1889 H1897 0.960 . S
C1890 C1888 1.381 . S
C1890 C1891 1.394 . S
C1890 H1898 0.930 . S
C1891 C1890 1.394 . S
C1891 C1892 1.383 . S
C1891 H1899 0.929 . S
C1892 C1891 1.383 . S
C1892 C1893 1.377 . S
C1893 H1877 0.930 . S
C1893 C1892 1.377 . S
C1893 C1894 1.379 . S
C1894 H1878 0.931 . S
C1894 C1888 1.383 . S
C1894 C1893 1.379 . S
H1895 C1889 0.959 . S
H1896 C1889 0.961 . S
H1897 C1889 0.960 . S
H1898 C1890 0.930 . S
H1899 C1891 0.929 . S
H1900 C1908 0.929 . S
H1901 C1910 0.930 . S
H1902 C1912 0.930 . S
H1903 C1915 0.929 . S
H1904 C1918 0.930 . S
H1905 C1920 0.960 . S
H1906 C1920 0.960 . S
H1907 C1920 0.960 . S
C1908 H1900 0.929 . S
C1908 C1909 1.377 . S
C1908 C1910 1.384 . S
C1909 C1908 1.377 . S
C1909 C1915 1.390 . S
C1910 H1901 0.930 . S
C1910 C1908 1.384 . S
C1910 C1911 1.372 . S
C1911 C1910 1.372 . S
C1911 C1912 1.400 . S
C1911 C1916 1.490 . S
C1912 H1902 0.930 . S
C1912 C1911 1.400 . S
C1912 C1915 1.386 . S
H1913 C1929 0.930 . S
H1914 C1930 0.931 . S
C1915 H1903 0.929 . S
C1915 C1909 1.390 . S
C1915 C1912 1.386 . S
C1916 C1911 1.490 . S
C1916 C1918 1.395 . S
C1916 C1919 1.403 . S
H1917 C1923 0.930 . S
C1918 H1904 0.930 . S
C1918 C1916 1.395 . S
C1918 C1921 1.403 . S
C1919 C1916 1.403 . S
C1919 C1920 1.524 . S
C1919 C1923 1.400 . S
C1920 H1905 0.960 . S
C1920 H1906 0.960 . S
C1920 H1907 0.960 . S
C1920 C1919 1.524 . S
C1921 C1918 1.403 . S
C1921 C1922 1.392 . S
C1921 C1925 1.495 . S
C1922 C1921 1.392 . S
C1922 C1923 1.385 . S
C1922 C1924 1.478 . S
C1923 H1917 0.930 . S
C1923 C1919 1.400 . S
C1923 C1922 1.385 . S
C1924 C1922 1.478 . S
C1924 C1926 1.381 . S
C1924 C1930 1.383 . S
C1925 C1921 1.495 . S
C1925 H1931 0.959 . S
C1925 H1932 0.961 . S
C1925 H1933 0.960 . S
C1926 C1924 1.381 . S
C1926 C1927 1.394 . S
C1926 H1934 0.930 . S
C1927 C1926 1.394 . S
C1927 C1928 1.383 . S
C1927 H1935 0.929 . S
C1928 C1927 1.383 . S
C1928 C1929 1.377 . S
C1929 H1913 0.930 . S
C1929 C1928 1.377 . S
C1929 C1930 1.379 . S
C1930 H1914 0.931 . S
C1930 C1924 1.383 . S
C1930 C1929 1.379 . S
H1931 C1925 0.959 . S
H1932 C1925 0.961 . S
H1933 C1925 0.960 . S
H1934 C1926 0.930 . S
H1935 C1927 0.929 . S
H1936 C1944 0.929 . S
H1937 C1946 0.930 . S
H1938 C1948 0.930 . S
H1939 C1951 0.929 . S
H1940 C1954 0.930 . S
H1941 C1956 0.960 . S
H1942 C1956 0.960 . S
H1943 C1956 0.960 . S
C1944 H1936 0.929 . S
C1944 C1945 1.377 . S
C1944 C1946 1.384 . S
C1945 C1944 1.377 . S
C1945 C1951 1.390 . S
C1946 H1937 0.930 . S
C1946 C1944 1.384 . S
C1946 C1947 1.372 . S
C1947 C1946 1.372 . S
C1947 C1948 1.400 . S
C1947 C1952 1.490 . S
C1948 H1938 0.930 . S
C1948 C1947 1.400 . S
C1948 C1951 1.386 . S
H1949 C1965 0.930 . S
H1950 C1966 0.931 . S
C1951 H1939 0.929 . S
C1951 C1945 1.390 . S
C1951 C1948 1.386 . S
C1952 C1947 1.490 . S
C1952 C1954 1.395 . S
C1952 C1955 1.403 . S
H1953 C1959 0.930 . S
C1954 H1940 0.930 . S
C1954 C1952 1.395 . S
C1954 C1957 1.403 . S
C1955 C1952 1.403 . S
C1955 C1956 1.524 . S
C1955 C1959 1.400 . S
C1956 H1941 0.960 . S
C1956 H1942 0.960 . S
C1956 H1943 0.960 . S
C1956 C1955 1.524 . S
C1957 C1954 1.403 . S
C1957 C1958 1.392 . S
C1957 C1961 1.495 . S
C1958 C1957 1.392 . S
C1958 C1959 1.385 . S
C1958 C1960 1.478 . S
C1959 H1953 0.930 . S
C1959 C1955 1.400 . S
C1959 C1958 1.385 . S
C1960 C1958 1.478 . S
C1960 C1962 1.381 . S
C1960 C1966 1.383 . S
C1961 C1957 1.495 . S
C1961 H1967 0.959 . S
C1961 H1968 0.961 . S
C1961 H1969 0.960 . S
C1962 C1960 1.381 . S
C1962 C1963 1.394 . S
C1962 H1970 0.930 . S
C1963 C1962 1.394 . S
C1963 C1964 1.383 . S
C1963 H1971 0.929 . S
C1964 C1963 1.383 . S
C1964 C1965 1.377 . S
C1965 H1949 0.930 . S
C1965 C1964 1.377 . S
C1965 C1966 1.379 . S
C1966 H1950 0.931 . S
C1966 C1960 1.383 . S
C1966 C1965 1.379 . S
H1967 C1961 0.959 . S
H1968 C1961 0.961 . S
H1969 C1961 0.960 . S
H1970 C1962 0.930 . S
H1971 C1963 0.929 . S
H1972 C1980 0.929 . S
H1973 C1982 0.930 . S
H1974 C1984 0.930 . S
H1975 C1987 0.929 . S
H1976 C1990 0.930 . S
H1977 C1992 0.960 . S
H1978 C1992 0.960 . S
H1979 C1992 0.960 . S
C1980 H1972 0.929 . S
C1980 C1981 1.377 . S
C1980 C1982 1.384 . S
C1981 C1980 1.377 . S
C1981 C1987 1.390 . S
C1982 H1973 0.930 . S
C1982 C1980 1.384 . S
C1982 C1983 1.372 . S
C1983 C1982 1.372 . S
C1983 C1984 1.400 . S
C1983 C1988 1.490 . S
C1984 H1974 0.930 . S
C1984 C1983 1.400 . S
C1984 C1987 1.386 . S
H1985 C2001 0.930 . S
H1986 C2002 0.931 . S
C1987 H1975 0.929 . S
C1987 C1981 1.390 . S
C1987 C1984 1.386 . S
C1988 C1983 1.490 . S
C1988 C1990 1.395 . S
C1988 C1991 1.403 . S
H1989 C1995 0.930 . S
C1990 H1976 0.930 . S
C1990 C1988 1.395 . S
C1990 C1993 1.403 . S
C1991 C1988 1.403 . S
C1991 C1992 1.524 . S
C1991 C1995 1.400 . S
C1992 H1977 0.960 . S
C1992 H1978 0.960 . S
C1992 H1979 0.960 . S
C1992 C1991 1.524 . S
C1993 C1990 1.403 . S
C1993 C1994 1.392 . S
C1993 C1997 1.495 . S
C1994 C1993 1.392 . S
C1994 C1995 1.385 . S
C1994 C1996 1.478 . S
C1995 H1989 0.930 . S
C1995 C1991 1.400 . S
C1995 C1994 1.385 . S
C1996 C1994 1.478 . S
C1996 C1998 1.381 . S
C1996 C2002 1.383 . S
C1997 C1993 1.495 . S
C1997 H2003 0.959 . S
C1997 H2004 0.961 . S
C1997 H2005 0.960 . S
C1998 C1996 1.381 . S
C1998 C1999 1.394 . S
C1998 H2006 0.930 . S
C1999 C1998 1.394 . S
C1999 C2000 1.383 . S
C1999 H2007 0.929 . S
C2000 C1999 1.383 . S
C2000 C2001 1.377 . S
C2001 H1985 0.930 . S
C2001 C2000 1.377 . S
C2001 C2002 1.379 . S
C2002 H1986 0.931 . S
C2002 C1996 1.383 . S
C2002 C2001 1.379 . S
H2003 C1997 0.959 . S
H2004 C1997 0.961 . S
H2005 C1997 0.960 . S
H2006 C1998 0.930 . S
H2007 C1999 0.929 . S
H2008 C2016 0.929 . S
H2009 C2018 0.930 . S
H2010 C2020 0.930 . S
H2011 C2023 0.929 . S
H2012 C2026 0.930 . S
H2013 C2028 0.960 . S
H2014 C2028 0.960 . S
H2015 C2028 0.960 . S
C2016 H2008 0.929 . S
C2016 C2017 1.377 . S
C2016 C2018 1.384 . S
C2017 C2016 1.377 . S
C2017 C2023 1.390 . S
C2018 H2009 0.930 . S
C2018 C2016 1.384 . S
C2018 C2019 1.372 . S
C2019 C2018 1.372 . S
C2019 C2020 1.400 . S
C2019 C2024 1.490 . S
C2020 H2010 0.930 . S
C2020 C2019 1.400 . S
C2020 C2023 1.386 . S
H2021 C2037 0.930 . S
H2022 C2038 0.931 . S
C2023 H2011 0.929 . S
C2023 C2017 1.390 . S
C2023 C2020 1.386 . S
C2024 C2019 1.490 . S
C2024 C2026 1.395 . S
C2024 C2027 1.403 . S
H2025 C2031 0.930 . S
C2026 H2012 0.930 . S
C2026 C2024 1.395 . S
C2026 C2029 1.403 . S
C2027 C2024 1.403 . S
C2027 C2028 1.524 . S
C2027 C2031 1.400 . S
C2028 H2013 0.960 . S
C2028 H2014 0.960 . S
C2028 H2015 0.960 . S
C2028 C2027 1.524 . S
C2029 C2026 1.403 . S
C2029 C2030 1.392 . S
C2029 C2033 1.495 . S
C2030 C2029 1.392 . S
C2030 C2031 1.385 . S
C2030 C2032 1.478 . S
C2031 H2025 0.930 . S
C2031 C2027 1.400 . S
C2031 C2030 1.385 . S
C2032 C2030 1.478 . S
C2032 C2034 1.381 . S
C2032 C2038 1.383 . S
C2033 C2029 1.495 . S
C2033 H2039 0.959 . S
C2033 H2040 0.961 . S
C2033 H2041 0.960 . S
C2034 C2032 1.381 . S
C2034 C2035 1.394 . S
C2034 H2042 0.930 . S
C2035 C2034 1.394 . S
C2035 C2036 1.383 . S
C2035 H2043 0.929 . S
C2036 C2035 1.383 . S
C2036 C2037 1.377 . S
C2037 H2021 0.930 . S
C2037 C2036 1.377 . S
C2037 C2038 1.379 . S
C2038 H2022 0.931 . S
C2038 C2032 1.383 . S
C2038 C2037 1.379 . S
H2039 C2033 0.959 . S
H2040 C2033 0.961 . S
H2041 C2033 0.960 . S
H2042 C2034 0.930 . S
H2043 C2035 0.929 . S
H2044 C2052 0.929 . S
H2045 C2054 0.930 . S
H2046 C2056 0.930 . S
H2047 C2059 0.929 . S
H2048 C2062 0.930 . S
H2049 C2064 0.960 . S
H2050 C2064 0.960 . S
H2051 C2064 0.960 . S
C2052 H2044 0.929 . S
C2052 C2053 1.377 . S
C2052 C2054 1.384 . S
C2053 C2052 1.377 . S
C2053 C2059 1.390 . S
C2054 H2045 0.930 . S
C2054 C2052 1.384 . S
C2054 C2055 1.372 . S
C2055 C2054 1.372 . S
C2055 C2056 1.400 . S
C2055 C2060 1.490 . S
C2056 H2046 0.930 . S
C2056 C2055 1.400 . S
C2056 C2059 1.386 . S
H2057 C2073 0.930 . S
H2058 C2074 0.931 . S
C2059 H2047 0.929 . S
C2059 C2053 1.390 . S
C2059 C2056 1.386 . S
C2060 C2055 1.490 . S
C2060 C2062 1.395 . S
C2060 C2063 1.403 . S
H2061 C2067 0.930 . S
C2062 H2048 0.930 . S
C2062 C2060 1.395 . S
C2062 C2065 1.403 . S
C2063 C2060 1.403 . S
C2063 C2064 1.524 . S
C2063 C2067 1.400 . S
C2064 H2049 0.960 . S
C2064 H2050 0.960 . S
C2064 H2051 0.960 . S
C2064 C2063 1.524 . S
C2065 C2062 1.403 . S
C2065 C2066 1.392 . S
C2065 C2069 1.495 . S
C2066 C2065 1.392 . S
C2066 C2067 1.385 . S
C2066 C2068 1.478 . S
C2067 H2061 0.930 . S
C2067 C2063 1.400 . S
C2067 C2066 1.385 . S
C2068 C2066 1.478 . S
C2068 C2070 1.381 . S
C2068 C2074 1.383 . S
C2069 C2065 1.495 . S
C2069 H2075 0.959 . S
C2069 H2076 0.961 . S
C2069 H2077 0.960 . S
C2070 C2068 1.381 . S
C2070 C2071 1.394 . S
C2070 H2078 0.930 . S
C2071 C2070 1.394 . S
C2071 C2072 1.383 . S
C2071 H2079 0.929 . S
C2072 C2071 1.383 . S
C2072 C2073 1.377 . S
C2073 H2057 0.930 . S
C2073 C2072 1.377 . S
C2073 C2074 1.379 . S
C2074 H2058 0.931 . S
C2074 C2068 1.383 . S
C2074 C2073 1.379 . S
H2075 C2069 0.959 . S
H2076 C2069 0.961 . S
H2077 C2069 0.960 . S
H2078 C2070 0.930 . S
H2079 C2071 0.929 . S
H2080 C2088 0.929 . S
H2081 C2090 0.930 . S
H2082 C2092 0.930 . S
H2083 C2095 0.929 . S
H2084 C2098 0.930 . S
H2085 C2100 0.960 . S
H2086 C2100 0.960 . S
H2087 C2100 0.960 . S
C2088 H2080 0.929 . S
C2088 C2089 1.377 . S
C2088 C2090 1.384 . S
C2089 C2088 1.377 . S
C2089 C2095 1.390 . S
C2090 H2081 0.930 . S
C2090 C2088 1.384 . S
C2090 C2091 1.372 . S
C2091 C2090 1.372 . S
C2091 C2092 1.400 . S
C2091 C2096 1.490 . S
C2092 H2082 0.930 . S
C2092 C2091 1.400 . S
C2092 C2095 1.386 . S
H2093 C2109 0.930 . S
H2094 C2110 0.931 . S
C2095 H2083 0.929 . S
C2095 C2089 1.390 . S
C2095 C2092 1.386 . S
C2096 C2091 1.490 . S
C2096 C2098 1.395 . S
C2096 C2099 1.403 . S
H2097 C2103 0.930 . S
C2098 H2084 0.930 . S
C2098 C2096 1.395 . S
C2098 C2101 1.403 . S
C2099 C2096 1.403 . S
C2099 C2100 1.524 . S
C2099 C2103 1.400 . S
C2100 H2085 0.960 . S
C2100 H2086 0.960 . S
C2100 H2087 0.960 . S
C2100 C2099 1.524 . S
C2101 C2098 1.403 . S
C2101 C2102 1.392 . S
C2101 C2105 1.495 . S
C2102 C2101 1.392 . S
C2102 C2103 1.385 . S
C2102 C2104 1.478 . S
C2103 H2097 0.930 . S
C2103 C2099 1.400 . S
C2103 C2102 1.385 . S
C2104 C2102 1.478 . S
C2104 C2106 1.381 . S
C2104 C2110 1.383 . S
C2105 C2101 1.495 . S
C2105 H2111 0.959 . S
C2105 H2112 0.961 . S
C2105 H2113 0.960 . S
C2106 C2104 1.381 . S
C2106 C2107 1.394 . S
C2106 H2114 0.930 . S
C2107 C2106 1.394 . S
C2107 C2108 1.383 . S
C2107 H2115 0.929 . S
C2108 C2107 1.383 . S
C2108 C2109 1.377 . S
C2109 H2093 0.930 . S
C2109 C2108 1.377 . S
C2109 C2110 1.379 . S
C2110 H2094 0.931 . S
C2110 C2104 1.383 . S
C2110 C2109 1.379 . S
H2111 C2105 0.959 . S
H2112 C2105 0.961 . S
H2113 C2105 0.960 . S
H2114 C2106 0.930 . S
H2115 C2107 0.929 . S
H2116 C2124 0.929 . S
H2117 C2126 0.930 . S
H2118 C2128 0.930 . S
H2119 C2131 0.929 . S
H2120 C2134 0.930 . S
H2121 C2136 0.960 . S
H2122 C2136 0.960 . S
H2123 C2136 0.960 . S
C2124 H2116 0.929 . S
C2124 C2125 1.377 . S
C2124 C2126 1.384 . S
C2125 C2124 1.377 . S
C2125 C2131 1.390 . S
C2126 H2117 0.930 . S
C2126 C2124 1.384 . S
C2126 C2127 1.372 . S
C2127 C2126 1.372 . S
C2127 C2128 1.400 . S
C2127 C2132 1.490 . S
C2128 H2118 0.930 . S
C2128 C2127 1.400 . S
C2128 C2131 1.386 . S
H2129 C2145 0.930 . S
H2130 C2146 0.931 . S
C2131 H2119 0.929 . S
C2131 C2125 1.390 . S
C2131 C2128 1.386 . S
C2132 C2127 1.490 . S
C2132 C2134 1.395 . S
C2132 C2135 1.403 . S
H2133 C2139 0.930 . S
C2134 H2120 0.930 . S
C2134 C2132 1.395 . S
C2134 C2137 1.403 . S
C2135 C2132 1.403 . S
C2135 C2136 1.524 . S
C2135 C2139 1.400 . S
C2136 H2121 0.960 . S
C2136 H2122 0.960 . S
C2136 H2123 0.960 . S
C2136 C2135 1.524 . S
C2137 C2134 1.403 . S
C2137 C2138 1.392 . S
C2137 C2141 1.495 . S
C2138 C2137 1.392 . S
C2138 C2139 1.385 . S
C2138 C2140 1.478 . S
C2139 H2133 0.930 . S
C2139 C2135 1.400 . S
C2139 C2138 1.385 . S
C2140 C2138 1.478 . S
C2140 C2142 1.381 . S
C2140 C2146 1.383 . S
C2141 C2137 1.495 . S
C2141 H2147 0.959 . S
C2141 H2148 0.961 . S
C2141 H2149 0.960 . S
C2142 C2140 1.381 . S
C2142 C2143 1.394 . S
C2142 H2150 0.930 . S
C2143 C2142 1.394 . S
C2143 C2144 1.383 . S
C2143 H2151 0.929 . S
C2144 C2143 1.383 . S
C2144 C2145 1.377 . S
C2145 H2129 0.930 . S
C2145 C2144 1.377 . S
C2145 C2146 1.379 . S
C2146 H2130 0.931 . S
C2146 C2140 1.383 . S
C2146 C2145 1.379 . S
H2147 C2141 0.959 . S
H2148 C2141 0.961 . S
H2149 C2141 0.960 . S
H2150 C2142 0.930 . S
H2151 C2143 0.929 . S
H2152 C2160 0.929 . S
H2153 C2162 0.930 . S
H2154 C2164 0.930 . S
H2155 C2167 0.929 . S
H2156 C2170 0.930 . S
H2157 C2172 0.960 . S
H2158 C2172 0.960 . S
H2159 C2172 0.960 . S
C2160 H2152 0.929 . S
C2160 C2161 1.377 . S
C2160 C2162 1.384 . S
C2161 C2160 1.377 . S
C2161 C2167 1.390 . S
C2162 H2153 0.930 . S
C2162 C2160 1.384 . S
C2162 C2163 1.372 . S
C2163 C2162 1.372 . S
C2163 C2164 1.400 . S
C2163 C2168 1.490 . S
C2164 H2154 0.930 . S
C2164 C2163 1.400 . S
C2164 C2167 1.386 . S
H2165 C2181 0.930 . S
H2166 C2182 0.931 . S
C2167 H2155 0.929 . S
C2167 C2161 1.390 . S
C2167 C2164 1.386 . S
C2168 C2163 1.490 . S
C2168 C2170 1.395 . S
C2168 C2171 1.403 . S
H2169 C2175 0.930 . S
C2170 H2156 0.930 . S
C2170 C2168 1.395 . S
C2170 C2173 1.403 . S
C2171 C2168 1.403 . S
C2171 C2172 1.524 . S
C2171 C2175 1.400 . S
C2172 H2157 0.960 . S
C2172 H2158 0.960 . S
C2172 H2159 0.960 . S
C2172 C2171 1.524 . S
C2173 C2170 1.403 . S
C2173 C2174 1.392 . S
C2173 C2177 1.495 . S
C2174 C2173 1.392 . S
C2174 C2175 1.385 . S
C2174 C2176 1.478 . S
C2175 H2169 0.930 . S
C2175 C2171 1.400 . S
C2175 C2174 1.385 . S
C2176 C2174 1.478 . S
C2176 C2178 1.381 . S
C2176 C2182 1.383 . S
C2177 C2173 1.495 . S
C2177 H2183 0.959 . S
C2177 H2184 0.961 . S
C2177 H2185 0.960 . S
C2178 C2176 1.381 . S
C2178 C2179 1.394 . S
C2178 H2186 0.930 . S
C2179 C2178 1.394 . S
C2179 C2180 1.383 . S
C2179 H2187 0.929 . S
C2180 C2179 1.383 . S
C2180 C2181 1.377 . S
C2181 H2165 0.930 . S
C2181 C2180 1.377 . S
C2181 C2182 1.379 . S
C2182 H2166 0.931 . S
C2182 C2176 1.383 . S
C2182 C2181 1.379 . S
H2183 C2177 0.959 . S
H2184 C2177 0.961 . S
H2185 C2177 0.960 . S
H2186 C2178 0.930 . S
H2187 C2179 0.929 . S
H2188 C2196 0.929 . S
H2189 C2198 0.930 . S
H2190 C2200 0.930 . S
H2191 C2203 0.929 . S
H2192 C2206 0.930 . S
H2193 C2208 0.960 . S
H2194 C2208 0.960 . S
H2195 C2208 0.960 . S
C2196 H2188 0.929 . S
C2196 C2197 1.377 . S
C2196 C2198 1.384 . S
C2197 C2196 1.377 . S
C2197 C2203 1.390 . S
C2198 H2189 0.930 . S
C2198 C2196 1.384 . S
C2198 C2199 1.372 . S
C2199 C2198 1.372 . S
C2199 C2200 1.400 . S
C2199 C2204 1.490 . S
C2200 H2190 0.930 . S
C2200 C2199 1.400 . S
C2200 C2203 1.386 . S
H2201 C2217 0.930 . S
H2202 C2218 0.931 . S
C2203 H2191 0.929 . S
C2203 C2197 1.390 . S
C2203 C2200 1.386 . S
C2204 C2199 1.490 . S
C2204 C2206 1.395 . S
C2204 C2207 1.403 . S
H2205 C2211 0.930 . S
C2206 H2192 0.930 . S
C2206 C2204 1.395 . S
C2206 C2209 1.403 . S
C2207 C2204 1.403 . S
C2207 C2208 1.524 . S
C2207 C2211 1.400 . S
C2208 H2193 0.960 . S
C2208 H2194 0.960 . S
C2208 H2195 0.960 . S
C2208 C2207 1.524 . S
C2209 C2206 1.403 . S
C2209 C2210 1.392 . S
C2209 C2213 1.495 . S
C2210 C2209 1.392 . S
C2210 C2211 1.385 . S
C2210 C2212 1.478 . S
C2211 H2205 0.930 . S
C2211 C2207 1.400 . S
C2211 C2210 1.385 . S
C2212 C2210 1.478 . S
C2212 C2214 1.381 . S
C2212 C2218 1.383 . S
C2213 C2209 1.495 . S
C2213 H2219 0.959 . S
C2213 H2220 0.961 . S
C2213 H2221 0.960 . S
C2214 C2212 1.381 . S
C2214 C2215 1.394 . S
C2214 H2222 0.930 . S
C2215 C2214 1.394 . S
C2215 C2216 1.383 . S
C2215 H2223 0.929 . S
C2216 C2215 1.383 . S
C2216 C2217 1.377 . S
C2217 H2201 0.930 . S
C2217 C2216 1.377 . S
C2217 C2218 1.379 . S
C2218 H2202 0.931 . S
C2218 C2212 1.383 . S
C2218 C2217 1.379 . S
H2219 C2213 0.959 . S
H2220 C2213 0.961 . S
H2221 C2213 0.960 . S
H2222 C2214 0.930 . S
H2223 C2215 0.929 . S
H2224 C2232 0.929 . S
H2225 C2234 0.930 . S
H2226 C2236 0.930 . S
H2227 C2239 0.929 . S
H2228 C2242 0.930 . S
H2229 C2244 0.960 . S
H2230 C2244 0.960 . S
H2231 C2244 0.960 . S
C2232 H2224 0.929 . S
C2232 C2233 1.377 . S
C2232 C2234 1.384 . S
C2233 C2232 1.377 . S
C2233 C2239 1.390 . S
C2234 H2225 0.930 . S
C2234 C2232 1.384 . S
C2234 C2235 1.372 . S
C2235 C2234 1.372 . S
C2235 C2236 1.400 . S
C2235 C2240 1.490 . S
C2236 H2226 0.930 . S
C2236 C2235 1.400 . S
C2236 C2239 1.386 . S
H2237 C2253 0.930 . S
H2238 C2254 0.931 . S
C2239 H2227 0.929 . S
C2239 C2233 1.390 . S
C2239 C2236 1.386 . S
C2240 C2235 1.490 . S
C2240 C2242 1.395 . S
C2240 C2243 1.403 . S
H2241 C2247 0.930 . S
C2242 H2228 0.930 . S
C2242 C2240 1.395 . S
C2242 C2245 1.403 . S
C2243 C2240 1.403 . S
C2243 C2244 1.524 . S
C2243 C2247 1.400 . S
C2244 H2229 0.960 . S
C2244 H2230 0.960 . S
C2244 H2231 0.960 . S
C2244 C2243 1.524 . S
C2245 C2242 1.403 . S
C2245 C2246 1.392 . S
C2245 C2249 1.495 . S
C2246 C2245 1.392 . S
C2246 C2247 1.385 . S
C2246 C2248 1.478 . S
C2247 H2241 0.930 . S
C2247 C2243 1.400 . S
C2247 C2246 1.385 . S
C2248 C2246 1.478 . S
C2248 C2250 1.381 . S
C2248 C2254 1.383 . S
C2249 C2245 1.495 . S
C2249 H2255 0.959 . S
C2249 H2256 0.961 . S
C2249 H2257 0.960 . S
C2250 C2248 1.381 . S
C2250 C2251 1.394 . S
C2250 H2258 0.930 . S
C2251 C2250 1.394 . S
C2251 C2252 1.383 . S
C2251 H2259 0.929 . S
C2252 C2251 1.383 . S
C2252 C2253 1.377 . S
C2253 H2237 0.930 . S
C2253 C2252 1.377 . S
C2253 C2254 1.379 . S
C2254 H2238 0.931 . S
C2254 C2248 1.383 . S
C2254 C2253 1.379 . S
H2255 C2249 0.959 . S
H2256 C2249 0.961 . S
H2257 C2249 0.960 . S
H2258 C2250 0.930 . S
H2259 C2251 0.929 . S
H2260 C2268 0.929 . S
H2261 C2270 0.930 . S
H2262 C2272 0.930 . S
H2263 C2275 0.929 . S
H2264 C2278 0.930 . S
H2265 C2280 0.960 . S
H2266 C2280 0.960 . S
H2267 C2280 0.960 . S
C2268 H2260 0.929 . S
C2268 C2269 1.377 . S
C2268 C2270 1.384 . S
C2269 C2268 1.377 . S
C2269 C2275 1.390 . S
C2270 H2261 0.930 . S
C2270 C2268 1.384 . S
C2270 C2271 1.372 . S
C2271 C2270 1.372 . S
C2271 C2272 1.400 . S
C2271 C2276 1.490 . S
C2272 H2262 0.930 . S
C2272 C2271 1.400 . S
C2272 C2275 1.386 . S
H2273 C2289 0.930 . S
H2274 C2290 0.931 . S
C2275 H2263 0.929 . S
C2275 C2269 1.390 . S
C2275 C2272 1.386 . S
C2276 C2271 1.490 . S
C2276 C2278 1.395 . S
C2276 C2279 1.403 . S
H2277 C2283 0.930 . S
C2278 H2264 0.930 . S
C2278 C2276 1.395 . S
C2278 C2281 1.403 . S
C2279 C2276 1.403 . S
C2279 C2280 1.524 . S
C2279 C2283 1.400 . S
C2280 H2265 0.960 . S
C2280 H2266 0.960 . S
C2280 H2267 0.960 . S
C2280 C2279 1.524 . S
C2281 C2278 1.403 . S
C2281 C2282 1.392 . S
C2281 C2285 1.495 . S
C2282 C2281 1.392 . S
C2282 C2283 1.385 . S
C2282 C2284 1.478 . S
C2283 H2277 0.930 . S
C2283 C2279 1.400 . S
C2283 C2282 1.385 . S
C2284 C2282 1.478 . S
C2284 C2286 1.381 . S
C2284 C2290 1.383 . S
C2285 C2281 1.495 . S
C2285 H2291 0.959 . S
C2285 H2292 0.961 . S
C2285 H2293 0.960 . S
C2286 C2284 1.381 . S
C2286 C2287 1.394 . S
C2286 H2294 0.930 . S
C2287 C2286 1.394 . S
C2287 C2288 1.383 . S
C2287 H2295 0.929 . S
C2288 C2287 1.383 . S
C2288 C2289 1.377 . S
C2289 H2273 0.930 . S
C2289 C2288 1.377 . S
C2289 C2290 1.379 . S
C2290 H2274 0.931 . S
C2290 C2284 1.383 . S
C2290 C2289 1.379 . S
H2291 C2285 0.959 . S
H2292 C2285 0.961 . S
H2293 C2285 0.960 . S
H2294 C2286 0.930 . S
H2295 C2287 0.929 . S
H2296 C2304 0.929 . S
H2297 C2306 0.930 . S
H2298 C2308 0.930 . S
H2299 C2311 0.929 . S
H2300 C2314 0.930 . S
H2301 C2316 0.960 . S
H2302 C2316 0.960 . S
H2303 C2316 0.960 . S
C2304 H2296 0.929 . S
C2304 C2305 1.377 . S
C2304 C2306 1.384 . S
C2305 C2304 1.377 . S
C2305 C2311 1.390 . S
C2306 H2297 0.930 . S
C2306 C2304 1.384 . S
C2306 C2307 1.372 . S
C2307 C2306 1.372 . S
C2307 C2308 1.400 . S
C2307 C2312 1.490 . S
C2308 H2298 0.930 . S
C2308 C2307 1.400 . S
C2308 C2311 1.386 . S
H2309 C2325 0.930 . S
H2310 C2326 0.931 . S
C2311 H2299 0.929 . S
C2311 C2305 1.390 . S
C2311 C2308 1.386 . S
C2312 C2307 1.490 . S
C2312 C2314 1.395 . S
C2312 C2315 1.403 . S
H2313 C2319 0.930 . S
C2314 H2300 0.930 . S
C2314 C2312 1.395 . S
C2314 C2317 1.403 . S
C2315 C2312 1.403 . S
C2315 C2316 1.524 . S
C2315 C2319 1.400 . S
C2316 H2301 0.960 . S
C2316 H2302 0.960 . S
C2316 H2303 0.960 . S
C2316 C2315 1.524 . S
C2317 C2314 1.403 . S
C2317 C2318 1.392 . S
C2317 C2321 1.495 . S
C2318 C2317 1.392 . S
C2318 C2319 1.385 . S
C2318 C2320 1.478 . S
C2319 H2313 0.930 . S
C2319 C2315 1.400 . S
C2319 C2318 1.385 . S
C2320 C2318 1.478 . S
C2320 C2322 1.381 . S
C2320 C2326 1.383 . S
C2321 C2317 1.495 . S
C2321 H2327 0.959 . S
C2321 H2328 0.961 . S
C2321 H2329 0.960 . S
C2322 C2320 1.381 . S
C2322 C2323 1.394 . S
C2322 H2330 0.930 . S
C2323 C2322 1.394 . S
C2323 C2324 1.383 . S
C2323 H2331 0.929 . S
C2324 C2323 1.383 . S
C2324 C2325 1.377 . S
C2325 H2309 0.930 . S
C2325 C2324 1.377 . S
C2325 C2326 1.379 . S
C2326 H2310 0.931 . S
C2326 C2320 1.383 . S
C2326 C2325 1.379 . S
H2327 C2321 0.959 . S
H2328 C2321 0.961 . S
H2329 C2321 0.960 . S
H2330 C2322 0.930 . S
H2331 C2323 0.929 . S
H2332 C2340 0.929 . S
H2333 C2342 0.930 . S
H2334 C2344 0.930 . S
H2335 C2347 0.929 . S
H2336 C2350 0.930 . S
H2337 C2352 0.960 . S
H2338 C2352 0.960 . S
H2339 C2352 0.960 . S
C2340 H2332 0.929 . S
C2340 C2341 1.377 . S
C2340 C2342 1.384 . S
C2341 C2340 1.377 . S
C2341 C2347 1.390 . S
C2342 H2333 0.930 . S
C2342 C2340 1.384 . S
C2342 C2343 1.372 . S
C2343 C2342 1.372 . S
C2343 C2344 1.400 . S
C2343 C2348 1.490 . S
C2344 H2334 0.930 . S
C2344 C2343 1.400 . S
C2344 C2347 1.386 . S
H2345 C2361 0.930 . S
H2346 C2362 0.931 . S
C2347 H2335 0.929 . S
C2347 C2341 1.390 . S
C2347 C2344 1.386 . S
C2348 C2343 1.490 . S
C2348 C2350 1.395 . S
C2348 C2351 1.403 . S
H2349 C2355 0.930 . S
C2350 H2336 0.930 . S
C2350 C2348 1.395 . S
C2350 C2353 1.403 . S
C2351 C2348 1.403 . S
C2351 C2352 1.524 . S
C2351 C2355 1.400 . S
C2352 H2337 0.960 . S
C2352 H2338 0.960 . S
C2352 H2339 0.960 . S
C2352 C2351 1.524 . S
C2353 C2350 1.403 . S
C2353 C2354 1.392 . S
C2353 C2357 1.495 . S
C2354 C2353 1.392 . S
C2354 C2355 1.385 . S
C2354 C2356 1.478 . S
C2355 H2349 0.930 . S
C2355 C2351 1.400 . S
C2355 C2354 1.385 . S
C2356 C2354 1.478 . S
C2356 C2358 1.381 . S
C2356 C2362 1.383 . S
C2357 C2353 1.495 . S
C2357 H2363 0.959 . S
C2357 H2364 0.961 . S
C2357 H2365 0.960 . S
C2358 C2356 1.381 . S
C2358 C2359 1.394 . S
C2358 H2366 0.930 . S
C2359 C2358 1.394 . S
C2359 C2360 1.383 . S
C2359 H2367 0.929 . S
C2360 C2359 1.383 . S
C2360 C2361 1.377 . S
C2361 H2345 0.930 . S
C2361 C2360 1.377 . S
C2361 C2362 1.379 . S
C2362 H2346 0.931 . S
C2362 C2356 1.383 . S
C2362 C2361 1.379 . S
H2363 C2357 0.959 . S
H2364 C2357 0.961 . S
H2365 C2357 0.960 . S
H2366 C2358 0.930 . S
H2367 C2359 0.929 . S
C649 C131 1.688 . S
C668 C19 1.700 . S
C685 C2 0.520 . S
C704 C56 0.571 . S
C721 C90 0.958 . S
C740 C59 0.941 . S
C757 C127 1.047 . S
C776 C87 1.079 . S
C793 C167 1.837 . S
C812 C202 1.811 . S
C829 C219 0.838 . S
C848 C259 0.852 . S
C865 C256 0.943 . S
C884 C287 0.932 . S
C901 C171 1.816 . S
C920 C290 1.841 . S
C937 C376 1.726 . S
C956 C16 1.716 . S
C973 C402 2.065 . S
C992 C42 2.089 . S
C1009 C91 4.397 . S
C1028 C531 4.397 . S
C1045 C330 0.495 . S
C1064 C130 0.520 . S
C1081 C450 0.628 . S
C1100 C170 0.688 . S
C1117 C571 2.937 . S
C1136 C216 2.974 . S
C1153 C242 1.325 . S
C1172 C482 1.328 . S
C1189 C611 4.236 . S
C1208 C291 4.186 . S
C1225 C331 1.671 . S
C1244 C530 1.684 . S
C1261 C362 1.230 . S
C1280 C327 1.267 . S
C1297 C419 0.474 . S
C1316 C379 0.514 . S
C1333 C570 1.786 . S
C1352 C451 1.789 . S
C1369 C499 0.424 . S
C1388 C610 0.268 . S
C1405 C442 1.686 . S
C1424 C10 1.706 . S
C1441 C487 0.527 . S
C1460 C11 0.482 . S
C1477 C490 0.965 . S
C1496 C99 0.930 . S
C1513 C96 1.057 . S
C1532 C456 1.060 . S
C1549 C371 1.827 . S
C1568 C176 1.826 . S
C1585 C370 0.838 . S
C1604 C250 0.808 . S
C1621 C536 0.939 . S
C1640 C247 0.967 . S
C1657 C162 1.822 . S
C1676 C539 1.839 . S
C1693 C207 1.727 . S
C1712 C7 1.700 . S
C1729 C411 2.066 . S
C1748 C491 2.076 . S
C1765 C82 4.399 . S
C1784 C282 4.390 . S
C1801 C339 0.522 . S
C1820 C459 0.466 . S
C1837 C139 0.630 . S
C1856 C179 0.614 . S
C1873 C367 2.973 . S
C1892 C562 2.928 . S
C1909 C251 1.326 . S
C1928 C51 1.290 . S
C1945 C602 4.234 . S
C1964 C522 4.194 . S
C1981 C322 1.676 . S
C2000 C299 1.692 . S
C2017 C336 1.250 . S
C2036 C211 1.206 . S
C2053 C410 0.454 . S
C2072 C210 0.519 . S
C2089 C122 1.791 . S
C2108 C579 1.768 . S
C2125 C50 0.448 . S
C2144 C619 0.273 . S
C2161 C496 0.519 . S
C2180 C567 0.526 . S
C2197 C447 1.127 . S
C2216 C607 1.125 . S
C2233 C416 0.834 . S
C2252 C527 0.809 . S
C2269 C576 0.487 . S
C2288 C47 0.507 . S
C2305 C136 1.123 . S
C2324 C616 1.104 . S
C2341 C296 0.835 . S
C2360 C407 0.819 . S
