# Generated by pormake.
# Topology uno, (4)-cn, num edge types: 1
# Building blocks:
#     Node 0, Type 0, BuildingBlock: ESEHIV_clean_sbu_0, # of connection points: 4
#     Node 1, Type 0, BuildingBlock: ESEHIV_clean_sbu_0, # of connection points: 4
#     Node 2, Type 0, BuildingBlock: ESEHIV_clean_sbu_0, # of connection points: 4
#     Node 3, Type 0, BuildingBlock: ESEHIV_clean_sbu_0, # of connection points: 4
#     Node 4, Type 0, BuildingBlock: ESEHIV_clean_sbu_0, # of connection points: 4
#     Node 5, Type 0, BuildingBlock: ESEHIV_clean_sbu_0, # of connection points: 4
#     Node 6, Type 0, BuildingBlock: ESEHIV_clean_sbu_0, # of connection points: 4
#     Node 7, Type 0, BuildingBlock: ESEHIV_clean_sbu_0, # of connection points: 4
#     Node 8, Type 0, BuildingBlock: ESEHIV_clean_sbu_0, # of connection points: 4
#     Node 9, Type 0, BuildingBlock: ESEHIV_clean_sbu_0, # of connection points: 4
#     Node 10, Type 0, BuildingBlock: ESEHIV_clean_sbu_0, # of connection points: 4
#     Node 11, Type 0, BuildingBlock: ESEHIV_clean_sbu_0, # of connection points: 4
#     Node 12, Type 0, BuildingBlock: ESEHIV_clean_sbu_0, # of connection points: 4
#     Node 13, Type 0, BuildingBlock: ESEHIV_clean_sbu_0, # of connection points: 4
#     Node 14, Type 0, BuildingBlock: ESEHIV_clean_sbu_0, # of connection points: 4
#     Node 15, Type 0, BuildingBlock: ESEHIV_clean_sbu_0, # of connection points: 4
#     Node 16, Type 0, BuildingBlock: ESEHIV_clean_sbu_0, # of connection points: 4
#     Node 17, Type 0, BuildingBlock: ESEHIV_clean_sbu_0, # of connection points: 4
#     Node 18, Type 0, BuildingBlock: ESEHIV_clean_sbu_0, # of connection points: 4
#     Node 19, Type 0, BuildingBlock: ESEHIV_clean_sbu_0, # of connection points: 4
#     Node 20, Type 0, BuildingBlock: ESEHIV_clean_sbu_0, # of connection points: 4
#     Node 21, Type 0, BuildingBlock: ESEHIV_clean_sbu_0, # of connection points: 4
#     Node 22, Type 0, BuildingBlock: ESEHIV_clean_sbu_0, # of connection points: 4
#     Node 23, Type 0, BuildingBlock: ESEHIV_clean_sbu_0, # of connection points: 4
#     Edge 24, Type (0, 0), BuildingBlock: EZIPEK_clean_linker_0, # of connection points: 2
#     Edge 25, Type (0, 0), BuildingBlock: EZIPEK_clean_linker_0, # of connection points: 2
#     Edge 26, Type (0, 0), BuildingBlock: EZIPEK_clean_linker_0, # of connection points: 2
#     Edge 27, Type (0, 0), BuildingBlock: EZIPEK_clean_linker_0, # of connection points: 2
#     Edge 28, Type (0, 0), BuildingBlock: EZIPEK_clean_linker_0, # of connection points: 2
#     Edge 29, Type (0, 0), BuildingBlock: EZIPEK_clean_linker_0, # of connection points: 2
#     Edge 30, Type (0, 0), BuildingBlock: EZIPEK_clean_linker_0, # of connection points: 2
#     Edge 31, Type (0, 0), BuildingBlock: EZIPEK_clean_linker_0, # of connection points: 2
#     Edge 32, Type (0, 0), BuildingBlock: EZIPEK_clean_linker_0, # of connection points: 2
#     Edge 33, Type (0, 0), BuildingBlock: EZIPEK_clean_linker_0, # of connection points: 2
#     Edge 34, Type (0, 0), BuildingBlock: EZIPEK_clean_linker_0, # of connection points: 2
#     Edge 35, Type (0, 0), BuildingBlock: EZIPEK_clean_linker_0, # of connection points: 2
#     Edge 36, Type (0, 0), BuildingBlock: EZIPEK_clean_linker_0, # of connection points: 2
#     Edge 37, Type (0, 0), BuildingBlock: EZIPEK_clean_linker_0, # of connection points: 2
#     Edge 38, Type (0, 0), BuildingBlock: EZIPEK_clean_linker_0, # of connection points: 2
#     Edge 39, Type (0, 0), BuildingBlock: EZIPEK_clean_linker_0, # of connection points: 2
#     Edge 40, Type (0, 0), BuildingBlock: EZIPEK_clean_linker_0, # of connection points: 2
#     Edge 41, Type (0, 0), BuildingBlock: EZIPEK_clean_linker_0, # of connection points: 2
#     Edge 42, Type (0, 0), BuildingBlock: EZIPEK_clean_linker_0, # of connection points: 2
#     Edge 43, Type (0, 0), BuildingBlock: EZIPEK_clean_linker_0, # of connection points: 2
#     Edge 44, Type (0, 0), BuildingBlock: EZIPEK_clean_linker_0, # of connection points: 2
#     Edge 45, Type (0, 0), BuildingBlock: EZIPEK_clean_linker_0, # of connection points: 2
#     Edge 46, Type (0, 0), BuildingBlock: EZIPEK_clean_linker_0, # of connection points: 2
#     Edge 47, Type (0, 0), BuildingBlock: EZIPEK_clean_linker_0, # of connection points: 2
#     Edge 48, Type (0, 0), BuildingBlock: EZIPEK_clean_linker_0, # of connection points: 2
#     Edge 49, Type (0, 0), BuildingBlock: EZIPEK_clean_linker_0, # of connection points: 2
#     Edge 50, Type (0, 0), BuildingBlock: EZIPEK_clean_linker_0, # of connection points: 2
#     Edge 51, Type (0, 0), BuildingBlock: EZIPEK_clean_linker_0, # of connection points: 2
#     Edge 52, Type (0, 0), BuildingBlock: EZIPEK_clean_linker_0, # of connection points: 2
#     Edge 53, Type (0, 0), BuildingBlock: EZIPEK_clean_linker_0, # of connection points: 2
#     Edge 54, Type (0, 0), BuildingBlock: EZIPEK_clean_linker_0, # of connection points: 2
#     Edge 55, Type (0, 0), BuildingBlock: EZIPEK_clean_linker_0, # of connection points: 2
#     Edge 56, Type (0, 0), BuildingBlock: EZIPEK_clean_linker_0, # of connection points: 2
#     Edge 57, Type (0, 0), BuildingBlock: EZIPEK_clean_linker_0, # of connection points: 2
#     Edge 58, Type (0, 0), BuildingBlock: EZIPEK_clean_linker_0, # of connection points: 2
#     Edge 59, Type (0, 0), BuildingBlock: EZIPEK_clean_linker_0, # of connection points: 2
#     Edge 60, Type (0, 0), BuildingBlock: EZIPEK_clean_linker_0, # of connection points: 2
#     Edge 61, Type (0, 0), BuildingBlock: EZIPEK_clean_linker_0, # of connection points: 2
#     Edge 62, Type (0, 0), BuildingBlock: EZIPEK_clean_linker_0, # of connection points: 2
#     Edge 63, Type (0, 0), BuildingBlock: EZIPEK_clean_linker_0, # of connection points: 2
#     Edge 64, Type (0, 0), BuildingBlock: EZIPEK_clean_linker_0, # of connection points: 2
#     Edge 65, Type (0, 0), BuildingBlock: EZIPEK_clean_linker_0, # of connection points: 2
#     Edge 66, Type (0, 0), BuildingBlock: EZIPEK_clean_linker_0, # of connection points: 2
#     Edge 67, Type (0, 0), BuildingBlock: EZIPEK_clean_linker_0, # of connection points: 2
#     Edge 68, Type (0, 0), BuildingBlock: EZIPEK_clean_linker_0, # of connection points: 2
#     Edge 69, Type (0, 0), BuildingBlock: EZIPEK_clean_linker_0, # of connection points: 2
#     Edge 70, Type (0, 0), BuildingBlock: EZIPEK_clean_linker_0, # of connection points: 2
#     Edge 71, Type (0, 0), BuildingBlock: EZIPEK_clean_linker_0, # of connection points: 2
# Relax obj value: 0.396
# Max RMSD: 0.222
# Mean RMSD: 0.195
data_MOF--net-uno--node1-ESEHIV_clean_sbu_0--edge1-EZIPEK_clean_linker_0
_symmetry_space_group_name_H-M    P1
_symmetry_Int_Tables_number       1
_symmetry_cell_setting            triclinic
loop_
_symmetry_equiv_pos_as_xyz
'x, y, z'
_cell_length_a     41.983217
_cell_length_b     44.215804
_cell_length_c     43.703968
_cell_angle_alpha  90.561101
_cell_angle_beta   89.803989
_cell_angle_gamma 94.007758
loop_
_atom_site_label
_atom_site_type_symbol
_atom_site_fract_x
_atom_site_fract_y
_atom_site_fract_z
_atom_type_partial_charge
Cu0 Cu 0.04021 0.23004 0.26574 0.0
N1 N 0.06767 0.21875 0.29596 0.0
N2 N 0.10663 0.19118 0.31168 0.0
C3 C 0.08207 0.1929 0.2924 0.0
C4 C 0.10774 0.21693 0.32856 0.0
C5 C 0.08324 0.234 0.3189 0.0
O6 O 0.01477 0.19253 0.25644 0.0
C7 C 0.09432 0.25584 0.23429 0.0
O8 O 0.10356 0.26467 0.26181 0.0
H9 H 0.07659 0.1769 0.27391 0.0
H10 H 0.07908 0.2569 0.32601 0.0
N11 N 0.01634 0.26214 0.27742 0.0
N12 N 0.00499 0.31049 0.28189 0.0
C13 C 0.02823 0.29092 0.28167 0.0
C14 C 0.98449 0.2635 0.27535 0.0
C15 C 0.9774 0.2934 0.27813 0.0
C16 C 0.99772 0.1797 0.27739 0.0
O17 O 0.99197 0.19511 0.30244 0.0
H18 H 0.05349 0.29774 0.28155 0.0
H19 H 0.9679 0.24447 0.26965 0.0
O20 O 0.06681 0.24209 0.23072 0.0
H21 H 0.12624 0.22383 0.34488 0.0
H22 H 0.95416 0.30218 0.27533 0.0
Cu23 Cu 0.05202 0.82446 0.46181 0.0
N24 N 0.04959 0.84268 0.42341 0.0
N25 N 0.03412 0.875 0.38831 0.0
C26 C 0.0271 0.86135 0.41522 0.0
C27 C 0.06209 0.86467 0.37914 0.0
C28 C 0.0716 0.8447 0.40087 0.0
O29 O 0.01045 0.80377 0.47079 0.0
C30 C 0.08975 0.87257 0.48347 0.0
O31 O 0.1071 0.86365 0.46047 0.0
H32 H 0.00662 0.86579 0.42927 0.0
H33 H 0.09375 0.8336 0.40091 0.0
N34 N 0.08504 0.79821 0.46381 0.0
N35 N 0.12953 0.77953 0.48113 0.0
C36 C 0.10523 0.79688 0.48759 0.0
C37 C 0.09673 0.78063 0.44171 0.0
C38 C 0.12436 0.7691 0.45235 0.0
C39 C 0.00595 0.77791 0.48333 0.0
O40 O 0.03044 0.76398 0.49335 0.0
H41 H 0.10294 0.80946 0.50874 0.0
H42 H 0.08673 0.77757 0.41903 0.0
O43 O 0.06353 0.85765 0.48982 0.0
H44 H 0.07497 0.87164 0.3586 0.0
H45 H 0.14013 0.75523 0.43961 0.0
Cu46 Cu 0.42439 0.77674 0.77518 0.0
N47 N 0.39678 0.77805 0.80872 0.0
N48 N 0.35333 0.79644 0.82973 0.0
C49 C 0.38217 0.80315 0.81663 0.0
C50 C 0.35052 0.76595 0.83157 0.0
C51 C 0.37733 0.75467 0.81863 0.0
O52 O 0.4429 0.8176 0.76727 0.0
C53 C 0.38386 0.77859 0.7229 0.0
O54 O 0.38699 0.80817 0.72642 0.0
H55 H 0.38953 0.82533 0.8077 0.0
H56 H 0.37998 0.73119 0.81267 0.0
N57 N 0.45595 0.74947 0.78025 0.0
N58 N 0.47763 0.70482 0.78095 0.0
C59 C 0.45108 0.71964 0.78618 0.0
C60 C 0.48656 0.75342 0.77086 0.0
C61 C 0.50005 0.72593 0.77148 0.0
C62 C 0.46703 0.82984 0.78146 0.0
O63 O 0.48089 0.81435 0.80251 0.0
H64 H 0.42794 0.70855 0.79142 0.0
H65 H 0.49753 0.77424 0.76166 0.0
O66 O 0.39852 0.76169 0.74063 0.0
H67 H 0.32881 0.75273 0.83776 0.0
H68 H 0.52365 0.72132 0.7634 0.0
Cu69 Cu 0.47061 0.20074 0.97768 0.0
N70 N 0.46243 0.16807 0.95042 0.0
N71 N 0.46958 0.13252 0.91472 0.0
C72 C 0.4833 0.15621 0.93081 0.0
C73 C 0.43892 0.1297 0.92413 0.0
C74 C 0.43453 0.15173 0.94598 0.0
O75 O 0.50651 0.2261 0.96116 0.0
C76 C 0.47386 0.16361 0.03302 0.0
O77 O 0.48585 0.15967 0.06029 0.0
H78 H 0.50794 0.1648 0.92827 0.0
H79 H 0.41252 0.15549 0.95787 0.0
N80 N 0.43488 0.22376 0.98245 0.0
N81 N 0.3872 0.23846 0.99727 0.0
C82 C 0.40556 0.21482 0.99324 0.0
C83 C 0.43478 0.25403 0.97937 0.0
C84 C 0.4054 0.26317 0.98845 0.0
C85 C 0.52524 0.24302 0.97793 0.0
O86 O 0.51973 0.24495 0.00745 0.0
H87 H 0.39791 0.19168 0.99855 0.0
H88 H 0.4551 0.2686 0.97206 0.0
O89 O 0.48322 0.18719 0.01801 0.0
H90 H 0.42092 0.11311 0.91544 0.0
H91 H 0.39822 0.2862 0.98942 0.0
Cu92 Cu 0.99995 0.99157 0.29253 0.0
N93 N 0.03262 0.99123 0.32112 0.0
N94 N 0.06633 0.00817 0.3576 0.0
C95 C 0.0437 0.01541 0.33781 0.0
C96 C 0.07027 0.97849 0.35288 0.0
C97 C 0.04951 0.96809 0.33012 0.0
O98 O 0.99967 0.03389 0.28042 0.0
C99 C 0.95314 0.95823 0.33239 0.0
O100 O 0.92361 0.95394 0.34223 0.0
H101 H 0.03517 0.0378 0.33579 0.0
H102 H 0.04661 0.94522 0.32108 0.0
N103 N 0.00855 0.96639 0.25923 0.0
N104 N 1.00196 0.93068 0.22258 0.0
C105 C 0.98763 0.95117 0.24026 0.0
C106 C 0.03711 0.95597 0.25271 0.0
C107 C 0.03311 0.93394 0.2304 0.0
C108 C 0.97519 0.04845 0.27508 0.0
O109 O 0.94668 0.03421 0.27491 0.0
H110 H 0.96247 0.95472 0.24021 0.0
H111 H 0.05906 0.9627 0.26458 0.0
O112 O 0.95951 0.97835 0.31203 0.0
H113 H 0.08688 0.96539 0.36509 0.0
H114 H 0.05144 0.91998 0.22185 0.0
Cu115 Cu 0.30198 0.77176 0.58064 0.0
N116 N 0.31696 0.80472 0.60545 0.0
N117 N 0.31566 0.84336 0.63886 0.0
C118 C 0.29832 0.82253 0.62186 0.0
C119 C 0.34643 0.83854 0.63302 0.0
C120 C 0.34716 0.81495 0.61214 0.0
O121 O 0.26225 0.78201 0.56122 0.0
C122 C 0.29866 0.72479 0.63038 0.0
O123 O 0.28623 0.69784 0.63812 0.0
H124 H 0.2725 0.81951 0.62232 0.0
H125 H 0.36834 0.80542 0.60337 0.0
N126 N 0.33027 0.76212 0.54895 0.0
N127 N 0.37319 0.74766 0.52358 0.0
C128 C 0.36242 0.7617 0.54882 0.0
C129 C 0.32078 0.74832 0.52254 0.0
C130 C 0.34709 0.73926 0.50697 0.0
C131 C 0.24221 0.76123 0.55128 0.0
O132 O 0.24794 0.73269 0.55509 0.0
H133 H 0.37763 0.76978 0.56742 0.0
H134 H 0.29621 0.74359 0.51577 0.0
O135 O 0.29167 0.73489 0.60415 0.0
H136 H 0.3668 0.85058 0.64382 0.0
H137 H 0.34701 0.72627 0.48584 0.0
Cu138 Cu 0.48957 0.01556 0.76533 0.0
N139 N 0.4452 0.01294 0.76821 0.0
N140 N 0.41098 0.99655 0.80472 0.0
C141 C 0.43075 0.98854 0.78213 0.0
C142 C 0.40961 0.02684 0.80166 0.0
C143 C 0.43024 0.03673 0.77892 0.0
O144 O 0.50053 0.97431 0.77279 0.0
C145 C 0.49331 0.04458 0.82414 0.0
O146 O 0.47525 0.02092 0.83308 0.0
H147 H 0.43791 0.96578 0.77845 0.0
H148 H 0.43819 0.06011 0.77502 0.0
N149 N 0.50302 0.03203 0.72803 0.0
N150 N 0.51035 0.07168 0.69693 0.0
C151 C 0.49004 0.0562 0.71605 0.0
C152 C 0.53244 0.03193 0.71565 0.0
C153 C 0.53697 0.05634 0.6963 0.0
C154 C 0.50797 0.95494 0.75277 0.0
O155 O 0.51758 0.96415 0.7256 0.0
H156 H 0.46827 0.06493 0.7247 0.0
H157 H 0.55078 0.01773 0.72322 0.0
O158 O 0.50489 0.04482 0.79713 0.0
H159 H 0.39799 0.04147 0.81758 0.0
H160 H 0.5593 0.06432 0.6857 0.0
Cu161 Cu 0.20826 0.22689 0.08883 0.0
N162 N 0.2044 0.19048 0.11088 0.0
N163 N 0.2117 0.15736 0.14818 0.0
C164 C 0.2242 0.18185 0.13294 0.0
C165 C 0.1832 0.14997 0.13499 0.0
C166 C 0.17899 0.17014 0.11171 0.0
O167 O 0.25241 0.23282 0.07395 0.0
C168 C 0.19509 0.25767 0.14441 0.0
O169 O 0.21807 0.24344 0.15683 0.0
H170 H 0.2467 0.19402 0.13863 0.0
H171 H 0.15807 0.17089 0.09742 0.0
N172 N 0.17886 0.22564 0.05658 0.0
N173 N 0.13788 0.2393 0.02856 0.0
C174 C 0.15559 0.24498 0.05387 0.0
C175 C 0.17566 0.20696 0.03209 0.0
C176 C 0.15035 0.21545 0.01462 0.0
C177 C 0.26013 0.24267 0.04741 0.0
O178 O 0.23806 0.25233 0.02945 0.0
H179 H 0.15173 0.26304 0.07007 0.0
H180 H 0.19073 0.18864 0.02721 0.0
O181 O 0.19333 0.25874 0.11545 0.0
H182 H 0.16645 0.13163 0.14209 0.0
H183 H 0.14179 0.20504 0.99341 0.0
Cu184 Cu 0.25847 0.04813 0.27197 0.0
N185 N 0.21715 0.06081 0.27369 0.0
N186 N 0.1793 0.09181 0.28522 0.0
C187 C 0.21069 0.08939 0.28082 0.0
C188 C 0.16521 0.06379 0.2811 0.0
C189 C 0.18877 0.04453 0.27425 0.0
O190 O 0.26667 0.03703 0.31405 0.0
C191 C 0.28571 0.10527 0.23945 0.0
O192 O 0.31244 0.1222 0.23603 0.0
H193 H 0.22874 0.10783 0.28401 0.0
H194 H 0.18545 0.02024 0.27156 0.0
N195 N 0.26389 0.01489 0.24547 0.0
N196 N 0.2801 0.99665 0.20047 0.0
C197 C 0.28794 0.01459 0.22488 0.0
C198 C 0.24092 0.9949 0.2346 0.0
C199 C 0.25082 0.98375 0.20687 0.0
C200 C 0.27801 0.05589 0.33404 0.0
O201 O 0.2904 0.08254 0.32531 0.0
H202 H 0.30923 0.02982 0.22619 0.0
H203 H 0.21733 0.99111 0.24424 0.0
O204 O 0.28662 0.08225 0.25711 0.0
H205 H 0.13994 0.05768 0.28377 0.0
H206 H 0.23648 0.96933 0.19129 0.0
Cu207 Cu 0.19904 0.03147 0.50818 0.0
N208 N 0.17016 0.05578 0.49028 0.0
N209 N 0.13666 0.06563 0.45295 0.0
C210 C 0.14904 0.04412 0.46968 0.0
C211 C 0.15047 0.09225 0.46315 0.0
C212 C 0.1713 0.08606 0.48646 0.0
O213 O 0.2358 0.03416 0.48062 0.0
C214 C 0.14981 0.98702 0.52001 0.0
O215 O 0.13703 0.00965 0.53405 0.0
H216 H 0.14546 0.02014 0.46457 0.0
H217 H 0.18819 0.1021 0.49763 0.0
N218 N 0.20922 0.04363 0.54826 0.0
N219 N 0.21177 0.042 0.59924 0.0
C220 C 0.19823 0.02956 0.57377 0.0
C221 C 0.23047 0.06586 0.55799 0.0
C222 C 0.2322 0.06482 0.58957 0.0
C223 C 0.23161 0.02351 0.45362 0.0
O224 O 0.20537 0.00667 0.44748 0.0
H225 H 0.18182 0.00962 0.57381 0.0
H226 H 0.24443 0.08108 0.5431 0.0
O227 O 0.17777 0.991 0.50856 0.0
H228 H 0.1476 0.11409 0.45293 0.0
H229 H 0.24781 0.07905 0.6042 0.0
Cu230 Cu 0.24725 0.95281 0.78096 0.0
N231 N 0.23452 0.91833 0.80329 0.0
N232 N 0.25161 0.87556 0.8224 0.0
C233 C 0.25688 0.90587 0.8202 0.0
C234 C 0.22372 0.86891 0.80768 0.0
C235 C 0.21313 0.89538 0.79596 0.0
O236 O 0.26749 0.97973 0.81202 0.0
C237 C 0.25945 0.92124 0.72762 0.0
O238 O 0.22815 0.91981 0.7275 0.0
H239 H 0.27975 0.91771 0.82522 0.0
H240 H 0.19437 0.8968 0.77926 0.0
N241 N 0.21558 0.97206 0.76022 0.0
N242 N 0.19651 0.99539 0.71982 0.0
C243 C 0.22273 0.98894 0.73537 0.0
C244 C 0.18349 0.96784 0.76066 0.0
C245 C 0.17159 0.9823 0.73556 0.0
C246 C 0.24984 0.99527 0.82903 0.0
O247 O 0.2198 0.99721 0.82155 0.0
H248 H 0.2469 0.99398 0.72724 0.0
H249 H 0.16996 0.9534 0.77658 0.0
O250 O 0.27438 0.93666 0.74877 0.0
H251 H 0.21432 0.84619 0.80178 0.0
H252 H 0.14696 0.98127 0.72815 0.0
Cu253 Cu 0.34497 0.01393 0.99293 0.0
N254 N 0.37151 0.98746 0.97426 0.0
N255 N 0.3894 0.9732 0.92863 0.0
C256 C 0.36367 0.97491 0.94689 0.0
C257 C 0.41466 0.98264 0.94614 0.0
C258 C 0.40354 0.99131 0.97435 0.0
O259 O 0.31754 0.02453 0.95936 0.0
C260 C 0.38446 0.06801 0.98795 0.0
O261 O 0.3794 0.06418 0.95848 0.0
H262 H 0.33938 0.97242 0.93857 0.0
H263 H 0.41731 0.00403 0.99161 0.0
N264 N 0.32418 0.99507 0.02616 0.0
N265 N 0.30973 0.98534 0.07445 0.0
C266 C 0.32786 1.00351 0.05568 0.0
C267 C 0.30367 0.97025 0.02635 0.0
C268 C 0.29437 0.96441 0.05616 0.0
C269 C 0.28817 0.01666 0.95541 0.0
O270 O 0.27079 0.00607 0.97846 0.0
H271 H 0.34301 0.02294 0.06325 0.0
H272 H 0.29594 0.95738 0.00625 0.0
O273 O 0.37108 0.04941 0.00684 0.0
H274 H 0.43889 0.98675 0.93784 0.0
H275 H 0.27751 0.94642 0.06385 0.0
Cu276 Cu 0.70366 0.29045 0.8991 0.0
N277 N 0.68797 0.26848 0.86464 0.0
N278 N 0.65275 0.25342 0.82837 0.0
C279 C 0.65726 0.25958 0.85834 0.0
C280 C 0.68181 0.25742 0.81529 0.0
C281 C 0.70353 0.26654 0.83777 0.0
O282 O 0.66914 0.29305 0.9292 0.0
C283 C 0.71448 0.34693 0.86578 0.0
O284 O 0.68366 0.34632 0.86066 0.0
H285 H 0.63786 0.26022 0.87448 0.0
H286 H 0.72826 0.27431 0.8342 0.0
N287 N 0.73634 0.27063 0.91751 0.0
N288 N 0.78373 0.26608 0.9395 0.0
C289 C 0.76066 0.28484 0.93319 0.0
C290 C 0.74411 0.24176 0.914 0.0
C291 C 0.77349 0.23891 0.92753 0.0
C292 C 0.64077 0.29879 0.92215 0.0
O293 O 0.63567 0.31209 0.89606 0.0
H294 H 0.76259 0.30899 0.93786 0.0
H295 H 0.73037 0.22456 0.90093 0.0
O296 O 0.72547 0.32783 0.88382 0.0
H297 H 0.68641 0.25669 0.79091 0.0
H298 H 0.78714 0.21902 0.92702 0.0
Cu299 Cu 0.00728 0.50551 0.20769 0.0
N300 N 0.96639 0.51934 0.20768 0.0
N301 N 0.9272 0.54354 0.18702 0.0
C302 C 0.95071 0.52506 0.18192 0.0
C303 C 0.92733 0.54947 0.21729 0.0
C304 C 0.95182 0.53446 0.23007 0.0
O305 O 0.0353 0.54242 0.21106 0.0
C306 C 0.99168 0.46171 0.16203 0.0
O307 O 0.96575 0.45738 0.17874 0.0
H308 H 0.95813 0.51813 0.15938 0.0
H309 H 0.96006 0.53652 0.25346 0.0
N310 N 0.0131 0.48093 0.24143 0.0
N311 N 0.0162 0.43863 0.26831 0.0
C312 C 0.00343 0.45139 0.2438 0.0
C313 C 0.03234 0.48713 0.26563 0.0
C314 C 0.03443 0.46092 0.28226 0.0
C315 C 0.02914 0.56481 0.19453 0.0
O316 O 0.01113 0.5599 0.17026 0.0
H317 H 0.98904 0.43883 0.22695 0.0
H318 H 0.0455 0.50869 0.26977 0.0
O319 O 0.01328 0.48197 0.17008 0.0
H320 H 0.91236 0.56501 0.22874 0.0
H321 H 0.04958 0.45796 0.30184 0.0
Cu322 Cu 0.82341 0.71893 0.43587 0.0
N323 N 0.83045 0.7403 0.3995 0.0
N324 N 0.86003 0.74675 0.35707 0.0
C325 C 0.86005 0.74633 0.38794 0.0
C326 C 0.82899 0.74289 0.34902 0.0
C327 C 0.81081 0.739 0.37519 0.0
O328 O 0.86614 0.71867 0.45324 0.0
C329 C 0.81017 0.66579 0.39997 0.0
O330 O 0.8357 0.67561 0.38477 0.0
H331 H 0.88154 0.74639 0.40156 0.0
H332 H 0.78571 0.7318 0.37605 0.0
N333 N 0.79507 0.73712 0.46222 0.0
N334 N 0.75404 0.74014 0.49455 0.0
C335 C 0.76844 0.72281 0.47385 0.0
C336 C 0.79747 0.76465 0.47582 0.0
C337 C 0.77225 0.76648 0.49607 0.0
C338 C 0.87469 0.72722 0.48005 0.0
O339 O 0.85306 0.73007 0.50147 0.0
H340 H 0.76021 0.69974 0.46796 0.0
H341 H 0.81663 0.78182 0.4719 0.0
O342 O 0.80291 0.67921 0.42465 0.0
H343 H 0.82039 0.74027 0.32575 0.0
H344 H 0.76781 0.78542 0.511 0.0
Cu345 Cu 0.9672 0.72896 0.19938 0.0
N346 N 0.92711 0.71467 0.18499 0.0
N347 N 0.88359 0.68277 0.18789 0.0
C348 C 0.91566 0.68589 0.18955 0.0
C349 C 0.8743 0.71058 0.18147 0.0
C350 C 0.9013 0.73029 0.17961 0.0
O351 O 0.99369 0.69476 0.19716 0.0
C352 C 0.94674 0.72437 0.26015 0.0
O353 O 0.94477 0.69519 0.25391 0.0
H354 H 0.93015 0.66843 0.19793 0.0
H355 H 0.90167 0.75469 0.17805 0.0
N356 N 0.98443 0.76278 0.17859 0.0
N357 N 0.99316 0.81315 0.17649 0.0
C358 C 0.97108 0.7896 0.17908 0.0
C359 C 0.01586 0.76951 0.1742 0.0
C360 C 0.02131 0.80059 0.17287 0.0
C361 C 0.01782 0.69032 0.21355 0.0
O362 O 0.02891 0.71126 0.23302 0.0
H363 H 0.9466 0.79203 0.18598 0.0
H364 H 0.03394 0.75337 0.17606 0.0
O365 O 0.96005 0.74254 0.24096 0.0
H366 H 0.84979 0.71673 0.18137 0.0
H367 H 0.04444 0.81305 0.17264 0.0
Cu368 Cu 0.53432 0.28107 0.69231 0.0
N369 N 0.57336 0.28979 0.67346 0.0
N370 N 0.61854 0.31707 0.68532 0.0
C371 C 0.58742 0.31778 0.67793 0.0
C372 C 0.62487 0.28766 0.68326 0.0
C373 C 0.59704 0.27091 0.67579 0.0
O374 O 0.5105 0.31683 0.68863 0.0
C375 C 0.54226 0.25522 0.75323 0.0
O376 O 0.51707 0.2363 0.74966 0.0
H377 H 0.57383 0.33733 0.68202 0.0
H378 H 0.59327 0.24659 0.67793 0.0
N379 N 0.51346 0.24573 0.67662 0.0
N380 N 0.50115 0.19628 0.66972 0.0
C381 C 0.52305 0.21761 0.68013 0.0
C382 C 0.48454 0.24212 0.66331 0.0
C383 C 0.47677 0.21145 0.65914 0.0
C384 C 0.49117 0.3257 0.70867 0.0
O385 O 0.48338 0.30844 0.73221 0.0
H386 H 0.54468 0.21272 0.69196 0.0
H387 H 0.4695 0.26038 0.65851 0.0
O388 O 0.54899 0.27577 0.73372 0.0
H389 H 0.64686 0.2786 0.69063 0.0
H390 H 0.45434 0.20104 0.65074 0.0
Cu391 Cu 0.50887 0.5116 0.70878 0.0
N392 N 0.54969 0.49806 0.70957 0.0
N393 N 0.59123 0.47654 0.68923 0.0
C394 C 0.56423 0.49001 0.68371 0.0
C395 C 0.59456 0.47659 0.71991 0.0
C396 C 0.56854 0.48989 0.73255 0.0
O397 O 0.48023 0.47497 0.70986 0.0
C398 C 0.4914 0.55622 0.66427 0.0
O399 O 0.46562 0.56068 0.68031 0.0
H400 H 0.55462 0.49302 0.66107 0.0
H401 H 0.56307 0.4922 0.75663 0.0
N402 N 0.5016 0.53635 0.74243 0.0
N403 N 0.49283 0.57847 0.76859 0.0
C404 C 0.50567 0.56678 0.74319 0.0
C405 C 0.4861 0.5285 0.7685 0.0
C406 C 0.48052 0.55458 0.78472 0.0
C407 C 0.48501 0.45329 0.69142 0.0
O408 O 0.5019 0.45892 0.66656 0.0
H409 H 0.51593 0.5802 0.7246 0.0
H410 H 0.47766 0.50559 0.77431 0.0
O411 O 0.50912 0.53529 0.67153 0.0
H412 H 0.6137 0.46688 0.73213 0.0
H413 H 0.46681 0.55606 0.80564 0.0
Cu414 Cu 0.95157 0.34839 0.01073 0.0
N415 N 0.93874 0.38104 0.98845 0.0
N416 N 0.90664 0.41831 0.98034 0.0
C417 C 0.90914 0.39045 0.99179 0.0
C418 C 0.93578 0.42683 0.96898 0.0
C419 C 0.95566 0.40366 0.97401 0.0
O420 O 0.91439 0.31941 0.00807 0.0
C421 C 0.98458 0.3833 0.05516 0.0
O422 O 0.00573 0.38622 0.03297 0.0
H423 H 0.89066 0.37842 0.00518 0.0
H424 H 0.98114 0.40445 0.97001 0.0
N425 N 0.98865 0.33212 0.99535 0.0
N426 N 0.03322 0.30727 0.99317 0.0
C427 C 0.00884 0.31551 0.01093 0.0
C428 C 1.00085 0.33453 0.96685 0.0
C429 C 0.02831 0.31911 0.96542 0.0
C430 C 0.90958 0.30509 0.98287 0.0
O431 O 0.93266 0.30542 0.96249 0.0
H432 H 0.00583 0.30968 0.03482 0.0
H433 H 0.99042 0.3466 0.94841 0.0
O434 O 0.9596 0.36553 0.05141 0.0
H435 H 0.9428 0.44908 0.9601 0.0
H436 H 0.04364 0.31689 0.94567 0.0
Cu437 Cu 0.57517 0.66712 0.52381 0.0
N438 N 0.58394 0.63475 0.49838 0.0
N439 N 0.61055 0.59593 0.48173 0.0
C440 C 0.6111 0.62043 0.50018 0.0
C441 C 0.58214 0.59489 0.46724 0.0
C442 C 0.56565 0.61902 0.47764 0.0
O443 O 0.61566 0.69081 0.52666 0.0
C444 C 0.56159 0.62574 0.57275 0.0
O445 O 0.58461 0.61065 0.56106 0.0
H446 H 0.63023 0.62689 0.51601 0.0
H447 H 0.54165 0.624 0.47152 0.0
N448 N 0.54642 0.69228 0.50656 0.0
N449 N 0.50124 0.71588 0.50284 0.0
C450 C 0.51433 0.68948 0.50887 0.0
C451 C 0.55376 0.72115 0.49822 0.0
C452 C 0.52598 0.73578 0.496 0.0
C453 C 0.63674 0.6921 0.54746 0.0
O454 O 0.63094 0.67855 0.57371 0.0
H455 H 0.50112 0.66948 0.51762 0.0
H456 H 0.57779 0.73156 0.49656 0.0
O457 O 0.55584 0.65135 0.56171 0.0
H458 H 0.57341 0.57714 0.45154 0.0
H459 H 0.52416 0.75966 0.49164 0.0
Cu460 Cu 0.72693 0.46326 0.53697 0.0
N461 N 0.6973 0.43532 0.55406 0.0
N462 N 0.65881 0.42875 0.58911 0.0
C463 C 0.68949 0.43801 0.58374 0.0
C464 C 0.64706 0.41853 0.56196 0.0
C465 C 0.67096 0.42262 0.54027 0.0
O466 O 0.75558 0.47501 0.57028 0.0
C467 C 0.70711 0.5134 0.50124 0.0
O468 O 0.73685 0.51742 0.49208 0.0
H469 H 0.70397 0.45161 0.59984 0.0
H470 H 0.66777 0.42108 0.51574 0.0
N471 N 0.74828 0.44661 0.50424 0.0
N472 N 0.762 0.4394 0.45559 0.0
C473 C 0.73898 0.44751 0.47492 0.0
C474 C 0.77808 0.43713 0.50351 0.0
C475 C 0.78671 0.43275 0.47332 0.0
C476 C 0.75699 0.50043 0.58413 0.0
O477 O 0.74387 0.52357 0.57196 0.0
H478 H 0.71694 0.45657 0.46769 0.0
H479 H 0.79326 0.43575 0.52332 0.0
O480 O 0.70075 0.4949 0.52285 0.0
H481 H 0.62205 0.4127 0.55735 0.0
H482 H 0.81001 0.42752 0.46496 0.0
Cu483 Cu 0.77575 0.4585 0.77012 0.0
N484 N 0.73593 0.4369 0.7703 0.0
N485 N 0.69588 0.40515 0.75361 0.0
C486 C 0.72049 0.42475 0.74564 0.0
C487 C 0.69483 0.40627 0.78448 0.0
C488 C 0.71929 0.42615 0.79467 0.0
O489 O 0.77997 0.48086 0.73221 0.0
C490 C 0.81256 0.40831 0.79055 0.0
O491 O 0.83912 0.3943 0.78985 0.0
H492 H 0.72813 0.42878 0.72231 0.0
H493 H 0.72569 0.43094 0.81824 0.0
N494 N 0.77986 0.48605 0.80235 0.0
N495 N 0.77106 0.51367 0.84391 0.0
C496 C 0.75757 0.49585 0.82158 0.0
C497 C 0.80802 0.4986 0.8125 0.0
C498 C 0.80267 0.51561 0.83824 0.0
C499 C 0.78355 0.46722 0.70683 0.0
O500 O 0.78807 0.43812 0.70668 0.0
H501 H 0.73233 0.48915 0.8201 0.0
H502 H 0.83095 0.49469 0.80242 0.0
O503 O 0.8104 0.43155 0.77375 0.0
H504 H 0.67836 0.39262 0.79868 0.0
H505 H 0.82059 0.52772 0.85233 0.0
Cu506 Cu 0.78781 0.54983 0.03903 0.0
N507 N 0.81874 0.5788 0.05333 0.0
N508 N 0.86023 0.58578 0.0852 0.0
C509 C 0.8286 0.57869 0.08255 0.0
C510 C 0.87056 0.59213 0.05661 0.0
C511 C 0.84486 0.58798 0.037 0.0
O512 O 0.76027 0.53507 0.07237 0.0
C513 C 0.80451 0.49391 0.00915 0.0
O514 O 0.77441 0.48846 1.00153 0.0
H515 H 0.81465 0.56772 0.10057 0.0
H516 H 0.84639 0.58649 0.01233 0.0
N517 N 0.76466 0.56349 0.00652 0.0
N518 N 0.74714 0.56321 0.95856 0.0
C519 C 0.77132 0.55737 0.97717 0.0
C520 C 0.73532 0.57405 0.00651 0.0
C521 C 0.72433 0.57384 0.9767 0.0
C522 C 0.75099 0.55273 0.09322 0.0
O523 O 0.75563 0.58219 0.08971 0.0
H524 H 0.79221 0.54617 0.96988 0.0
H525 H 0.72188 0.57904 0.02688 0.0
O526 O 0.81322 0.51741 0.02483 0.0
H527 H 0.8954 0.59524 0.04989 0.0
H528 H 0.70064 0.57858 0.96927 0.0
Cu529 Cu 0.7462 0.53519 0.27391 0.0
N530 N 0.78762 0.54465 0.2601 0.0
N531 N 0.82562 0.57482 0.23827 0.0
C532 C 0.79413 0.56812 0.24129 0.0
C533 C 0.83985 0.55427 0.25516 0.0
C534 C 0.81619 0.53544 0.26858 0.0
O535 O 0.72087 0.54048 0.23734 0.0
C536 C 0.74986 0.58993 0.30967 0.0
O537 O 0.75842 0.60391 0.28432 0.0
H538 H 0.77605 0.58154 0.23175 0.0
H539 H 0.81971 0.51779 0.28487 0.0
N540 N 0.74058 0.49646 0.2902 0.0
N541 N 0.74247 0.46664 0.33096 0.0
C542 C 0.7588 0.48697 0.31299 0.0
C543 C 0.71206 0.48085 0.29341 0.0
C544 C 0.71323 0.46229 0.31844 0.0
C545 C 0.71767 0.51896 0.21771 0.0
O546 O 0.71996 0.49096 0.22671 0.0
H547 H 0.78134 0.4985 0.31954 0.0
H548 H 0.69063 0.48583 0.28133 0.0
O549 O 0.7398 0.56213 0.30872 0.0
H550 H 0.86521 0.55435 0.25936 0.0
H551 H 0.69312 0.44957 0.32884 0.0
C552 C 0.14113 0.23784 0.16249 0.0
C553 C 0.16584 0.2614 0.16295 0.0
C554 C 0.13808 0.28546 0.20512 0.0
C555 C 0.1176 0.25861 0.20854 0.0
N556 N 0.10687 0.20568 0.19433 0.0
N557 N 0.18893 0.3074 0.1861 0.0
C558 C 0.12088 0.23382 0.1882 0.0
C559 C 0.16467 0.28521 0.18474 0.0
N560 N 0.13656 0.21935 0.13755 0.0
N561 N 0.13155 0.31141 0.22042 0.0
H562 H 0.20783 0.30853 0.17048 0.0
H563 H 0.19107 0.32352 0.20366 0.0
H564 H 0.11131 0.3129 0.23412 0.0
H565 H 0.14422 0.33218 0.21685 0.0
H566 H 0.11727 0.20324 0.13569 0.0
H567 H 0.14925 0.22284 0.1173 0.0
H568 H 0.1114 0.18658 0.18126 0.0
H569 H 0.09436 0.20043 0.21442 0.0
C570 C 0.01234 0.9256 0.38709 0.0
C571 C 0.01599 0.897 0.37313 0.0
C572 C 0.98392 0.91157 0.32959 0.0
C573 C 0.97745 0.93886 0.345 0.0
N574 N 0.98168 0.96996 0.39061 0.0
N575 N 1.00179 0.86072 0.33338 0.0
C576 C 0.99055 0.94533 0.37445 0.0
C577 C 1.00112 0.88954 0.34479 0.0
N578 N 0.03081 0.93436 0.4117 0.0
N579 N 0.97338 0.90656 0.30042 0.0
H580 H 0.01347 0.84388 0.34441 0.0
H581 H 0.98856 0.85269 0.31451 0.0
H582 H 0.95886 0.92123 0.28949 0.0
H583 H 0.98109 0.88925 0.28654 0.0
H584 H 0.03169 0.95613 0.42114 0.0
H585 H 0.04769 0.92069 0.42068 0.0
H586 H 0.98733 0.97373 0.41359 0.0
H587 H 0.9671 0.98578 0.38151 0.0
C588 C 0.30894 0.74534 0.6831 0.0
C589 C 0.32001 0.74173 0.65267 0.0
C590 C 0.37274 0.76417 0.66799 0.0
C591 C 0.3624 0.76492 0.69886 0.0
N592 N 0.32328 0.7477 0.7366 0.0
N593 N 0.36512 0.73936 0.61882 0.0
C594 C 0.33125 0.75301 0.70673 0.0
C595 C 0.35264 0.749 0.64571 0.0
N596 N 0.27697 0.74212 0.68936 0.0
N597 N 0.40189 0.77742 0.65995 0.0
H598 H 0.35132 0.72726 0.60248 0.0
H599 H 0.38954 0.74089 0.61416 0.0
H600 H 0.41782 0.78765 0.67584 0.0
H601 H 0.40923 0.78 0.63726 0.0
H602 H 0.26741 0.74732 0.71065 0.0
H603 H 0.25982 0.7375 0.67241 0.0
H604 H 0.30162 0.73679 0.74331 0.0
H605 H 0.33976 0.7507 0.75432 0.0
C606 C 0.47376 0.11957 0.85983 0.0
C607 C 0.48321 0.11511 0.89039 0.0
C608 C 0.50767 0.06845 0.87511 0.0
C609 C 0.49638 0.07177 0.84479 0.0
N610 N 0.47703 0.10497 0.8064 0.0
N611 N 0.51692 0.09108 0.9255 0.0
C612 C 0.4823 0.0989 0.83647 0.0
C613 C 0.50284 0.09141 0.89745 0.0
N614 N 0.45569 0.14325 0.8535 0.0
N615 N 0.52225 0.04287 0.88264 0.0
H616 H 0.51383 0.10785 0.94189 0.0
H617 H 0.53364 0.07593 0.93162 0.0
H618 H 0.52831 0.02684 0.86632 0.0
H619 H 0.52743 0.03699 0.90499 0.0
H620 H 0.4442 0.14592 0.83274 0.0
H621 H 0.45112 0.15982 0.8698 0.0
H622 H 0.46944 0.12545 0.79869 0.0
H623 H 0.48314 0.09077 0.78859 0.0
C624 C 0.1529 0.12272 0.3237 0.0
C625 C 0.16419 0.11882 0.29347 0.0
C626 C 0.1467 0.16827 0.27977 0.0
C627 C 0.13054 0.16971 0.30818 0.0
N628 N 0.11607 0.14764 0.35674 0.0
N629 N 0.16907 0.13588 0.24154 0.0
C630 C 0.13336 0.14693 0.33029 0.0
C631 C 0.16065 0.14123 0.27119 0.0
N632 N 0.16141 0.10358 0.34604 0.0
N633 N 0.14853 0.19294 0.26115 0.0
H634 H 0.17916 0.11602 0.23459 0.0
H635 H 0.16356 0.14987 0.22356 0.0
H636 H 0.13926 0.21334 0.26764 0.0
H637 H 0.16175 0.19412 0.24094 0.0
H638 H 0.15648 0.10703 0.36913 0.0
H639 H 0.17611 0.08597 0.34161 0.0
H640 H 0.11439 0.12989 0.37229 0.0
H641 H 0.10177 0.16533 0.36211 0.0
C642 C 0.08443 0.92726 0.49591 0.0
C643 C 0.10077 0.90063 0.50011 0.0
C644 C 0.14476 0.93062 0.52524 0.0
C645 C 0.13118 0.95752 0.51601 0.0
N646 N 0.0888 0.98168 0.49026 0.0
N647 N 0.14661 0.87634 0.51848 0.0
C648 C 0.1009 0.956 0.50127 0.0
C649 C 0.13088 0.90212 0.51495 0.0
N650 N 0.05343 0.92523 0.48621 0.0
N651 N 0.17042 0.93233 0.54453 0.0
H652 H 0.13629 0.85483 0.51314 0.0
H653 H 0.17035 0.87638 0.52532 0.0
H654 H 0.18066 0.95287 0.55308 0.0
H655 H 0.17958 0.91347 0.55444 0.0
H656 H 0.03922 0.94362 0.48603 0.0
H657 H 0.04082 0.90477 0.48081 0.0
H658 H 0.06932 0.9814 0.47554 0.0
H659 H 0.09942 1.00338 0.49372 0.0
C660 C 0.28286 0.84089 0.85295 0.0
C661 C 0.27692 0.85519 0.82487 0.0
C662 C 0.31802 0.82725 0.79992 0.0
C663 C 0.32673 0.81545 0.82841 0.0
N664 N 0.3194 0.81251 0.88283 0.0
N665 N 0.29525 0.86781 0.77392 0.0
C666 C 0.30955 0.82257 0.85526 0.0
C667 C 0.29639 0.85008 0.79908 0.0
N668 N 0.26297 0.84497 0.87716 0.0
N669 N 0.32921 0.81564 0.77326 0.0
H670 H 0.27919 0.88437 0.7718 0.0
H671 H 0.31229 0.86783 0.7565 0.0
H672 H 0.34387 0.79772 0.77271 0.0
H673 H 0.32102 0.82145 0.75176 0.0
H674 H 0.26413 0.83337 0.89768 0.0
H675 H 0.24397 0.85893 0.87583 0.0
H676 H 0.30975 0.81882 0.90371 0.0
H677 H 0.33884 0.79918 0.88479 0.0
C678 C 0.39586 0.11744 0.01588 0.0
C679 C 0.40731 0.09278 0.99907 0.0
C680 C 0.46244 0.1149 0.0043 0.0
C681 C 0.45082 0.13995 0.02032 0.0
N682 N 0.40821 0.16165 0.04816 0.0
N683 N 0.45075 0.06861 0.9749 0.0
C684 C 0.41799 0.14026 0.02804 0.0
C685 C 0.44044 0.09158 0.99275 0.0
N686 N 0.36369 0.11986 0.01882 0.0
N687 N 0.49467 0.11279 1.00147 0.0
H688 H 0.43561 0.05087 0.96641 0.0
H689 H 0.47401 0.06765 0.96697 0.0
H690 H 0.51143 0.13012 0.00812 0.0
H691 H 0.5051 0.09319 0.99453 0.0
H692 H 0.35365 0.13906 0.02746 0.0
H693 H 0.34674 0.10357 0.01032 0.0
H694 H 0.38545 0.16102 0.05775 0.0
H695 H 0.42348 0.17935 0.0567 0.0
C696 C 0.11654 0.03459 0.37507 0.0
C697 C 0.08335 0.02806 0.3791 0.0
C698 C 0.08509 0.0567 0.42745 0.0
C699 C 0.1187 0.05923 0.4255 0.0
N700 N 0.16721 0.05126 0.39839 0.0
N701 N 0.03545 0.03188 0.40891 0.0
C702 C 0.13464 0.04872 0.39927 0.0
C703 C 0.06728 0.03938 0.40498 0.0
N704 N 0.13041 0.02739 0.34789 0.0
N705 N 0.07057 0.07032 0.45138 0.0
H706 H 0.02183 0.01927 0.39285 0.0
H707 H 0.02281 0.03657 0.42871 0.0
H708 H 0.08362 0.08258 0.46824 0.0
H709 H 0.04599 0.07156 0.45336 0.0
H710 H 0.15429 0.03277 0.34256 0.0
H711 H 0.11724 0.01782 0.32959 0.0
H712 H 0.18087 0.04101 0.38187 0.0
H713 H 0.18066 0.0632 0.41512 0.0
C714 C 0.28574 0.85049 0.68663 0.0
C715 C 0.30367 0.86323 0.66201 0.0
C716 C 0.29722 0.91425 0.6832 0.0
C717 C 0.27602 0.90142 0.70578 0.0
N718 N 0.24529 0.85678 0.72476 0.0
N719 N 0.3234 0.9072 0.63412 0.0
C720 C 0.26865 0.86942 0.70607 0.0
C721 C 0.30886 0.89517 0.65966 0.0
N722 N 0.28638 0.82026 0.69236 0.0
N723 N 0.30567 0.94466 0.6838 0.0
H724 H 0.33143 0.89374 0.61636 0.0
H725 H 0.32516 0.93027 0.62931 0.0
H726 H 0.29618 0.95954 0.69949 0.0
H727 H 0.32349 0.95487 0.66999 0.0
H728 H 0.27637 0.80999 0.71183 0.0
H729 H 0.30025 0.80623 0.67944 0.0
H730 H 0.23649 0.83421 0.72277 0.0
H731 H 0.23336 0.86888 0.74116 0.0
C732 C 0.41232 0.95508 0.88048 0.0
C733 C 0.3897 0.97207 0.89559 0.0
C734 C 0.37214 0.98843 0.84577 0.0
C735 C 0.40089 0.98028 0.83222 0.0
N736 N 0.4515 0.95661 0.84055 0.0
N737 N 0.35378 0.01255 0.89103 0.0
C738 C 0.42174 0.96305 0.85017 0.0
C739 C 0.37034 0.99035 0.87793 0.0
N740 N 0.42574 0.93232 0.89557 0.0
N741 N 0.34802 0.99729 0.82791 0.0
H742 H 0.35628 0.01898 0.91386 0.0
H743 H 0.34187 0.02782 0.878 0.0
H744 H 0.34924 0.99616 0.80405 0.0
H745 H 0.32614 1.00268 0.83706 0.0
H746 H 0.44063 0.91756 0.88478 0.0
H747 H 0.41902 0.92637 0.91786 0.0
H748 H 0.46775 0.94697 0.85486 0.0
H749 H 0.46201 0.96343 0.82017 0.0
C750 C 0.25033 0.14647 0.22495 0.0
C751 C 0.25685 0.11537 0.22288 0.0
C752 C 0.23093 0.11181 0.17263 0.0
C753 C 0.2253 0.1429 0.17414 0.0
N754 N 0.22001 0.1871 0.2056 0.0
N755 N 0.23853 0.06715 0.20164 0.0
C756 C 0.23215 0.15952 0.20154 0.0
C757 C 0.24258 0.09758 0.19882 0.0
N758 N 0.2617 0.16347 0.24931 0.0
N759 N 0.22657 0.09604 0.1458 0.0
H760 H 0.2445 0.05739 0.22185 0.0
H761 H 0.22572 0.05292 0.18621 0.0
H762 H 0.21987 0.10609 0.12556 0.0
H763 H 0.23257 0.07371 0.14302 0.0
H764 H 0.26124 0.18696 0.25059 0.0
H765 H 0.27244 0.15381 0.26802 0.0
H766 H 0.22207 0.19963 0.22587 0.0
H767 H 0.20466 0.19579 0.18973 0.0
C768 C 0.78192 0.40426 0.84018 0.0
C769 C 0.78546 0.39511 0.80916 0.0
C770 C 0.7403 0.35713 0.81455 0.0
C771 C 0.73741 0.36521 0.846 0.0
N772 N 0.75616 0.39491 0.88964 0.0
N773 N 0.77292 0.35888 0.76873 0.0
C774 C 0.75851 0.38838 0.85909 0.0
C775 C 0.76598 0.37049 0.7969 0.0
N776 N 0.80122 0.42797 0.85144 0.0
N777 N 0.71822 0.337 0.80118 0.0
H778 H 0.79047 0.36877 0.75432 0.0
H779 H 0.76273 0.33831 0.76036 0.0
H780 H 0.69979 0.32542 0.81312 0.0
H781 H 0.71654 0.33354 0.77762 0.0
H782 H 0.79947 0.43714 0.87331 0.0
H783 H 0.81885 0.43948 0.83827 0.0
H784 H 0.77225 0.40943 0.90166 0.0
H785 H 0.73824 0.38488 0.90356 0.0
C786 C 0.88694 0.53598 0.14726 0.0
C787 C 0.90856 0.55595 0.1634 0.0
C788 C 0.89977 0.59629 0.1268 0.0
C789 C 0.87936 0.5755 0.10987 0.0
N790 N 0.86289 0.52336 0.0984 0.0
N791 N 0.93997 0.60352 0.16668 0.0
C792 C 0.87559 0.54465 0.11853 0.0
C793 C 0.91621 0.58581 0.15273 0.0
N794 N 0.87732 0.5086 0.15963 0.0
N795 N 0.90305 0.62593 0.1182 0.0
H796 H 0.95224 0.59637 0.18569 0.0
H797 H 0.94894 0.62441 0.15839 0.0
H798 H 0.89154 0.63384 0.09906 0.0
H799 H 0.91524 0.64296 0.13102 0.0
H800 H 0.85932 0.49402 0.15019 0.0
H801 H 0.88529 0.50189 0.18096 0.0
H802 H 0.86207 0.50019 0.10263 0.0
H803 H 0.85681 0.52861 0.07605 0.0
C804 C 0.75888 0.64902 0.37287 0.0
C805 C 0.78848 0.64171 0.38564 0.0
C806 C 0.78797 0.5957 0.35394 0.0
C807 C 0.75978 0.60427 0.33933 0.0
N808 N 0.71378 0.63357 0.34 0.0
N809 N 0.82548 0.6042 0.39593 0.0
C810 C 0.74367 0.62916 0.3506 0.0
C811 C 0.80102 0.61361 0.37867 0.0
N812 N 0.74623 0.67567 0.38072 0.0
N813 N 0.80341 0.5716 0.343 0.0
H814 H 0.83506 0.61704 0.41432 0.0
H815 H 0.83406 0.58274 0.3941 0.0
H816 H 0.7942 0.55721 0.32574 0.0
H817 H 0.82615 0.56665 0.34991 0.0
H818 H 0.72729 0.68443 0.36927 0.0
H819 H 0.75525 0.68966 0.3984 0.0
H820 H 0.69927 0.64963 0.34899 0.0
H821 H 0.70232 0.6192 0.32375 0.0
C822 C 0.839 0.60681 0.19365 0.0
C823 C 0.83957 0.60263 0.22571 0.0
C824 C 0.86325 0.65437 0.23303 0.0
C825 C 0.86435 0.65784 0.20083 0.0
N826 N 0.84552 0.64203 0.15124 0.0
N827 N 0.84412 0.62423 0.27639 0.0
C828 C 0.84966 0.63544 0.18133 0.0
C829 C 0.84949 0.62696 0.24563 0.0
N830 N 0.82879 0.58304 0.17519 0.0
N831 N 0.87521 0.67761 0.25135 0.0
H832 H 0.83324 0.60472 0.28616 0.0
H833 H 0.84817 0.64185 0.29215 0.0
H834 H 0.88214 0.69897 0.2427 0.0
H835 H 0.87882 0.67581 0.27478 0.0
H836 H 0.82869 0.58386 0.15147 0.0
H837 H 0.82185 0.56166 0.18378 0.0
H838 H 0.83265 0.62786 0.13588 0.0
H839 H 0.85336 0.66299 0.14212 0.0
C840 C 0.66973 0.34763 0.69216 0.0
C841 C 0.63782 0.34042 0.70145 0.0
C842 C 0.64305 0.38147 0.7393 0.0
C843 C 0.67634 0.38495 0.73399 0.0
N844 N 0.72241 0.36548 0.70876 0.0
N845 N 0.5979 0.34508 0.74105 0.0
C846 C 0.69011 0.3666 0.71117 0.0
C847 C 0.62534 0.35589 0.72698 0.0
N848 N 0.68043 0.33674 0.66497 0.0
N849 N 0.62819 0.4028 0.75573 0.0
H850 H 0.58613 0.32438 0.7352 0.0
H851 H 0.58954 0.35463 0.76119 0.0
H852 H 0.64027 0.42279 0.76356 0.0
H853 H 0.60342 0.40219 0.75816 0.0
H854 H 0.7027 0.3436 0.6558 0.0
H855 H 0.66571 0.32346 0.65019 0.0
H856 H 0.73308 0.35021 0.69433 0.0
H857 H 0.73846 0.37709 0.72343 0.0
C858 C 0.52299 0.58219 0.58652 0.0
C859 C 0.53901 0.61041 0.59488 0.0
C860 C 0.51341 0.60724 0.64546 0.0
C861 C 0.50224 0.57673 0.63891 0.0
N862 N 0.49611 0.53486 0.60322 0.0
N863 N 0.55109 0.64945 0.63274 0.0
C864 C 0.50682 0.56421 0.60933 0.0
C865 C 0.53425 0.62312 0.62432 0.0
N866 N 0.52228 0.57311 0.5565 0.0
N867 N 0.50441 0.62103 0.67192 0.0
H868 H 0.56655 0.6617 0.61796 0.0
H869 H 0.55171 0.65801 0.65503 0.0
H870 H 0.48951 0.61029 0.68812 0.0
H871 H 0.50914 0.64405 0.67653 0.0
H872 H 0.50857 0.55418 0.54845 0.0
H873 H 0.53288 0.5862 0.53899 0.0
H874 H 0.50243 0.52303 0.58365 0.0
H875 H 0.4819 0.52183 0.61848 0.0
C876 C 0.60643 0.27935 0.80952 0.0
C877 C 0.6226 0.25247 0.81261 0.0
C878 C 0.58256 0.22489 0.78026 0.0
C879 C 0.56575 0.2517 0.77808 0.0
N880 N 0.55683 0.30147 0.79761 0.0
N881 N 0.62321 0.1986 0.80675 0.0
C882 C 0.57615 0.27795 0.79511 0.0
C883 C 0.60958 0.22484 0.79992 0.0
N884 N 0.62081 0.30651 0.81885 0.0
N885 N 0.57426 0.20022 0.76217 0.0
H886 H 0.64336 0.19832 0.82066 0.0
H887 H 0.61313 0.17716 0.80082 0.0
H888 H 0.55478 0.19898 0.74747 0.0
H889 H 0.58798 0.18157 0.7602 0.0
H890 H 0.61172 0.32729 0.81417 0.0
H891 H 0.64338 0.30848 0.82876 0.0
H892 H 0.56191 0.32028 0.81175 0.0
H893 H 0.53407 0.30056 0.78795 0.0
C894 C 0.99783 0.41107 0.13749 0.0
C895 C 0.99492 0.44266 0.13414 0.0
C896 C 0.98805 0.43561 0.07866 0.0
C897 C 0.98806 0.40362 0.08245 0.0
N898 N 0.99138 0.36044 0.11523 0.0
N899 N 0.98635 0.48543 0.1023 0.0
C900 C 0.99247 0.39122 0.11184 0.0
C901 C 0.99023 0.4551 0.10485 0.0
N902 N 0.00691 0.40032 0.16513 0.0
N903 N 0.98572 0.44738 0.04998 0.0
H904 H 0.99008 0.50067 0.12046 0.0
H905 H 0.97826 0.49552 0.08266 0.0
H906 H 0.98077 0.43414 0.03051 0.0
H907 H 0.98984 0.47029 0.04505 0.0
H908 H 0.01231 0.37805 0.16885 0.0
H909 H 0.01195 0.41451 0.18393 0.0
H910 H 0.99064 0.34971 0.13633 0.0
H911 H 0.98948 0.34527 0.0968 0.0
C912 C 0.909 0.72256 0.33839 0.0
C913 C 0.88684 0.74548 0.33622 0.0
C914 C 0.90707 0.75807 0.2849 0.0
C915 C 0.92974 0.73568 0.28745 0.0
N916 N 0.95914 0.70472 0.32062 0.0
N917 N 0.87257 0.79105 0.31203 0.0
C918 C 0.93296 0.72067 0.31559 0.0
C919 C 0.88867 0.7653 0.31099 0.0
N920 N 0.90621 0.70118 0.36071 0.0
N921 N 0.90108 0.77087 0.25736 0.0
H922 H 0.85939 0.79698 0.3312 0.0
H923 H 0.8752 0.80788 0.29549 0.0
H924 H 0.91271 0.76586 0.23711 0.0
H925 H 0.88225 0.78462 0.25401 0.0
H926 H 0.91934 0.68203 0.36063 0.0
H927 H 0.88919 0.7008 0.37792 0.0
H928 H 0.96425 0.69561 0.34181 0.0
H929 H 0.97756 0.70373 0.30463 0.0
C930 C 0.61079 0.43207 0.66194 0.0
C931 C 0.61069 0.46396 0.66589 0.0
C932 C 0.63671 0.47167 0.61625 0.0
C933 C 0.64043 0.44013 0.614 0.0
N934 N 0.63235 0.39003 0.63413 0.0
N935 N 0.62727 0.51428 0.64949 0.0
C936 C 0.62786 0.4202 0.63679 0.0
C937 C 0.62484 0.48378 0.64377 0.0
N938 N 0.59332 0.41338 0.68133 0.0
N939 N 0.64338 0.4898 0.59159 0.0
H940 H 0.61946 0.5236 0.66999 0.0
H941 H 0.6397 0.52992 0.63542 0.0
H942 H 0.65106 0.48141 0.57066 0.0
H943 H 0.63835 0.51251 0.59085 0.0
H944 H 0.58979 0.39007 0.6781 0.0
H945 H 0.58029 0.42145 0.69965 0.0
H946 H 0.62518 0.37415 0.65055 0.0
H947 H 0.64453 0.38104 0.61568 0.0
C948 C 0.86 0.44507 0.96338 0.0
C949 C 0.88102 0.43748 0.98691 0.0
C950 C 0.84759 0.4612 0.02492 0.0
C951 C 0.82877 0.47222 1.00113 0.0
N952 N 0.81896 0.47739 0.94701 0.0
N953 N 0.89839 0.443 0.03921 0.0
C954 C 0.8353 0.46475 0.97008 0.0
C955 C 0.8758 0.44689 0.01746 0.0
N956 N 0.86333 0.43285 0.93484 0.0
N957 N 0.83776 0.46321 0.05467 0.0
H958 H 0.91969 0.43315 0.03436 0.0
H959 H 0.89741 0.45223 0.0612 0.0
H960 H 0.81662 0.4727 0.06105 0.0
H961 H 0.84873 0.45256 0.07256 0.0
H962 H 0.84688 0.43482 0.91732 0.0
H963 H 0.8815 0.41872 0.92948 0.0
H964 H 0.82484 0.47521 0.92397 0.0
H965 H 0.80085 0.49193 0.95092 0.0
C966 C 0.64871 0.52316 0.49695 0.0
C967 C 0.68091 0.53136 0.48857 0.0
C968 C 0.66393 0.57942 0.46835 0.0
C969 C 0.63349 0.5732 0.48187 0.0
N970 N 0.59782 0.54077 0.51231 0.0
N971 N 0.71376 0.55994 0.45181 0.0
C972 C 0.62599 0.54537 0.49677 0.0
C973 C 0.68727 0.55751 0.4701 0.0
N974 N 0.63917 0.49353 0.50246 0.0
N975 N 0.67054 0.60663 0.45435 0.0
H976 H 0.72798 0.54196 0.44785 0.0
H977 H 0.71891 0.57765 0.43669 0.0
H978 H 0.65324 0.62214 0.4512 0.0
H979 H 0.69332 0.61456 0.44739 0.0
H980 H 0.61548 0.48599 0.50654 0.0
H981 H 0.65396 0.47596 0.49821 0.0
H982 H 0.59277 0.52229 0.52658 0.0
H983 H 0.58077 0.55679 0.51325 0.0
C984 C 0.9905 0.09715 0.30247 0.0
C985 C 0.97859 0.08217 0.27564 0.0
C986 C 0.97474 0.13165 0.25116 0.0
C987 C 0.99063 0.14615 0.2766 0.0
N988 N 0.02074 0.14082 0.32328 0.0
N989 N 0.96222 0.08462 0.22302 0.0
C990 C 1.00042 0.12842 0.30143 0.0
C991 C 0.97137 0.09928 0.24956 0.0
N992 N 0.99131 0.08175 0.3294 0.0
N993 N 0.96195 0.14876 0.22908 0.0
H994 H 0.95913 0.06105 0.22126 0.0
H995 H 0.96 0.09565 0.20227 0.0
H996 H 0.96355 0.1724 0.22976 0.0
H997 H 0.94739 0.13961 0.21158 0.0
H998 H 0.99693 0.09235 0.35029 0.0
H999 H 0.98296 0.05908 0.33145 0.0
H1000 H 0.03122 0.12788 0.33979 0.0
H1001 H 0.03007 0.16325 0.32306 0.0
C1002 C 0.21494 0.78668 0.50792 0.0
C1003 C 0.21281 0.7686 0.53471 0.0
C1004 C 0.15549 0.75715 0.52532 0.0
C1005 C 0.15743 0.77637 0.49964 0.0
N1006 N 0.18666 0.81481 0.47047 0.0
N1007 N 0.17974 0.74225 0.57262 0.0
C1008 C 0.1865 0.79281 0.49219 0.0
C1009 C 0.18264 0.75542 0.54449 0.0
N1010 N 0.2441 0.79656 0.49641 0.0
N1011 N 0.12783 0.73992 0.53081 0.0
H1012 H 0.19887 0.74149 0.58771 0.0
H1013 H 0.15791 0.73476 0.58225 0.0
H1014 H 0.10758 0.74103 0.51718 0.0
H1015 H 0.12571 0.72299 0.54723 0.0
H1016 H 0.24709 0.80691 0.47519 0.0
H1017 H 0.26563 0.79216 0.50667 0.0
H1018 H 0.20633 0.82986 0.46617 0.0
H1019 H 0.16611 0.8198 0.45872 0.0
C1020 C 0.48583 0.90223 0.73657 0.0
C1021 C 0.50061 0.922 0.7591 0.0
C1022 C 0.49015 0.88219 0.79726 0.0
C1023 C 0.47971 0.86126 0.77384 0.0
N1024 N 0.47779 0.85022 0.71948 0.0
N1025 N 0.52442 0.92686 0.80938 0.0
C1026 C 0.48079 0.87086 0.74293 0.0
C1027 C 0.50522 0.91073 0.78898 0.0
N1028 N 0.47425 0.91321 0.71001 0.0
N1029 N 0.48407 0.87589 0.82734 0.0
H1030 H 0.53736 0.94703 0.80368 0.0
H1031 H 0.53033 0.91835 0.83063 0.0
H1032 H 0.47079 0.85646 0.83455 0.0
H1033 H 0.48884 0.89176 0.84482 0.0
H1034 H 0.46104 0.89947 0.69442 0.0
H1035 H 0.47378 0.9362 0.70536 0.0
H1036 H 0.48093 0.85636 0.69663 0.0
H1037 H 0.47623 0.82686 0.72292 0.0
C1038 C 0.29815 0.22381 0.00791 0.0
C1039 C 0.29327 0.24035 0.03545 0.0
C1040 C 0.35134 0.25104 0.03998 0.0
C1041 C 0.35563 0.23798 0.01065 0.0
N1042 N 0.33313 0.21529 0.96478 0.0
N1043 N 0.31509 0.27305 0.07587 0.0
C1044 C 0.32901 0.2252 0.99411 0.0
C1045 C 0.31988 0.25474 0.05114 0.0
N1046 N 0.27367 0.20566 0.99562 0.0
N1047 N 0.37749 0.25908 0.05751 0.0
H1048 H 0.29248 0.2767 0.08448 0.0
H1049 H 0.3333 0.28664 0.08625 0.0
H1050 H 0.4007 0.25609 0.05005 0.0
H1051 H 0.37609 0.26597 0.0803 0.0
H1052 H 0.27662 0.1908 0.97736 0.0
H1053 H 0.25105 0.20307 0.00558 0.0
H1054 H 0.31425 0.20872 0.95023 0.0
H1055 H 0.35545 0.21607 0.95414 0.0
C1056 C 0.29414 0.02129 0.15084 0.0
C1057 C 0.29511 0.99604 0.17062 0.0
C1058 C 0.3128 0.9656 0.12724 0.0
C1059 C 0.30567 0.98907 0.10702 0.0
N1060 N 0.28357 0.03722 0.09938 0.0
N1061 N 0.30566 0.94396 0.1779 0.0
C1062 C 0.29488 0.01645 0.11878 0.0
C1063 C 0.3047 0.96811 0.15881 0.0
N1064 N 0.29329 0.04998 0.16234 0.0
N1065 N 0.32813 0.94148 0.11636 0.0
H1066 H 0.30187 0.94593 0.20144 0.0
H1067 H 0.30889 0.92199 0.17029 0.0
H1068 H 0.33516 0.93968 0.09354 0.0
H1069 H 0.33642 0.9248 0.13034 0.0
H1070 H 0.29524 0.06918 0.14863 0.0
H1071 H 0.29509 0.05508 0.18548 0.0
H1072 H 0.27276 0.05643 0.10697 0.0
H1073 H 0.28169 0.03359 0.07584 0.0
C1074 C 0.24923 0.06418 0.4166 0.0
C1075 C 0.25201 0.03438 0.42747 0.0
C1076 C 0.28017 0.02199 0.38002 0.0
C1077 C 0.27175 0.04968 0.36709 0.0
N1078 N 0.24196 0.0945 0.37192 0.0
N1079 N 0.26994 0.98437 0.41966 0.0
C1080 C 0.25503 0.07037 0.38516 0.0
C1081 C 0.26767 0.01317 0.40925 0.0
N1082 N 0.24007 0.08647 0.43591 0.0
N1083 N 0.30052 0.00442 0.36458 0.0
H1084 H 0.26285 0.97789 0.4417 0.0
H1085 H 0.27748 0.96673 0.40611 0.0
H1086 H 0.31049 0.01057 0.34344 0.0
H1087 H 0.30982 0.98534 0.37391 0.0
H1088 H 0.24044 0.10917 0.42963 0.0
H1089 H 0.23536 0.08298 0.45904 0.0
H1090 H 0.22645 0.10808 0.38348 0.0
H1091 H 0.24329 0.09901 0.34859 0.0
C1092 C 0.19139 0.03732 0.68347 0.0
C1093 C 0.19669 0.00662 0.68898 0.0
C1094 C 0.21523 1.00063 0.63631 0.0
C1095 C 0.2076 0.03062 0.62992 0.0
N1096 N 0.18331 0.07596 0.64568 0.0
N1097 N 0.20579 0.95716 0.66912 0.0
C1098 C 0.19424 0.04862 0.65307 0.0
C1099 C 0.2062 0.98769 0.66484 0.0
N1100 N 0.18437 0.0557 0.70747 0.0
N1101 N 0.23235 0.98503 0.6156 0.0
H1102 H 0.19727 0.94716 0.6893 0.0
H1103 H 0.21018 0.94173 0.65171 0.0
H1104 H 0.2407 0.99449 0.59507 0.0
H1105 H 0.24113 0.96409 0.62018 0.0
H1106 H 0.18341 0.07908 0.70566 0.0
H1107 H 0.18143 0.04756 0.72971 0.0
H1108 H 0.17071 0.089 0.66085 0.0
H1109 H 0.18458 0.08445 0.6235 0.0
C1110 C 0.27256 0.03054 0.87062 0.0
C1111 C 0.25912 1.0016 0.86137 0.0
C1112 C 0.266 0.98249 0.91315 0.0
C1113 C 0.2766 0.01208 0.9234 0.0
N1114 N 0.28608 0.06535 0.91278 0.0
N1115 N 0.235 0.95263 0.87594 0.0
C1116 C 0.27877 0.03648 0.90234 0.0
C1117 C 0.25337 0.9784 0.88328 0.0
N1118 N 0.27995 0.05207 0.84905 0.0
N1119 N 0.26973 0.95783 0.93109 0.0
H1120 H 0.22428 0.94908 0.85464 0.0
H1121 H 0.22753 0.93636 0.89201 0.0
H1122 H 0.28036 0.9592 0.95258 0.0
H1123 H 0.26561 0.93559 0.92316 0.0
H1124 H 0.29291 0.07252 0.85376 0.0
H1125 H 0.27511 0.04847 0.82584 0.0
H1126 H 0.2852 0.08448 0.89919 0.0
H1127 H 0.2905 0.07042 0.93581 0.0
C1128 C 0.05419 0.25876 0.00888 0.0
C1129 C 0.05958 0.28997 0.00206 0.0
C1130 C 0.11717 0.28643 0.00909 0.0
C1131 C 0.11148 0.25598 0.01859 0.0
N1132 N 0.07446 0.21438 0.0323 0.0
N1133 N 0.09513 0.33494 1.00051 0.0
C1134 C 0.0799 0.24242 0.01973 0.0
C1135 C 0.09085 0.30421 0.00345 0.0
N1136 N 0.02468 0.24458 0.00401 0.0
N1137 N 0.14783 0.29798 0.00464 0.0
H1138 H 0.07616 0.34854 0.99705 0.0
H1139 H 0.11689 0.34719 0.0042 0.0
H1140 H 0.16747 0.28522 0.0081 0.0
H1141 H 0.15368 0.31909 0.99499 0.0
H1142 H 0.01984 0.22124 0.00568 0.0
H1143 H 0.00559 0.25596 0.99573 0.0
H1144 H 0.05172 0.2044 0.03666 0.0
H1145 H 0.09282 0.20213 0.04074 0.0
C1146 C 0.6089 0.25261 0.94301 0.0
C1147 C 0.61278 0.28477 0.93953 0.0
C1148 C 0.56009 0.28963 0.96366 0.0
C1149 C 0.55538 0.25753 0.96496 0.0
N1150 N 0.57408 0.20807 0.955 0.0
N1151 N 0.59217 0.33397 0.94579 0.0
C1152 C 0.57953 0.23898 0.95452 0.0
C1153 C 0.58837 0.30327 0.94975 0.0
N1154 N 0.63325 0.23483 0.93551 0.0
N1155 N 0.53748 0.30706 0.9759 0.0
H1156 H 0.61351 0.345 0.93828 0.0
H1157 H 0.57408 0.34862 0.9489 0.0
H1158 H 0.51574 0.29796 0.98457 0.0
H1159 H 0.54059 0.33044 0.97895 0.0
H1160 H 0.63389 0.2123 0.94197 0.0
H1161 H 0.65397 0.24247 0.92412 0.0
H1162 H 0.58809 0.19313 0.94345 0.0
H1163 H 0.55443 0.197 0.96575 0.0
C1164 C 0.99694 0.36162 0.30265 0.0
C1165 C 0.00919 0.343 0.27947 0.0
C1166 C 0.03154 0.38803 0.25279 0.0
C1167 C 0.01594 0.40658 0.27379 0.0
N1168 N 0.98146 0.41176 0.31716 0.0
N1169 N 0.03269 0.33837 0.22936 0.0
C1170 C 0.99809 0.39358 0.29847 0.0
C1171 C 0.0252 0.35616 0.25371 0.0
N1172 N 0.9849 0.34867 0.32885 0.0
N1173 N 0.05286 0.40102 0.23232 0.0
H1174 H 0.02666 0.31512 0.2284 0.0
H1175 H 0.04186 0.34707 0.20883 0.0
H1176 H 0.05832 0.42438 0.23156 0.0
H1177 H 0.06724 0.38855 0.21823 0.0
H1178 H 0.97813 0.36109 0.34786 0.0
H1179 H 0.98412 0.32533 0.33243 0.0
H1180 H 0.96536 0.40349 0.33376 0.0
H1181 H 0.98226 0.43523 0.31459 0.0
C1182 C 0.96526 0.7341 0.47279 0.0
C1183 C 0.97295 0.76332 0.48577 0.0
C1184 C 0.91612 0.76884 0.49579 0.0
C1185 C 0.9086 0.73867 0.48502 0.0
N1186 N 0.92715 0.69035 0.46993 0.0
N1187 N 0.95653 0.80485 0.51683 0.0
C1188 C 0.93359 0.7206 0.47564 0.0
C1189 C 0.94862 0.7795 0.49957 0.0
N1190 N 0.98757 0.71992 0.45615 0.0
N1191 N 0.89256 0.78824 0.50039 0.0
H1192 H 0.98011 0.81303 0.52064 0.0
H1193 H 0.93995 0.81577 0.52996 0.0
H1194 H 0.86847 0.78231 0.49668 0.0
H1195 H 0.89723 0.81131 0.50486 0.0
H1196 H 0.9822 0.7002 0.4434 0.0
H1197 H 0.01075 0.72927 0.45259 0.0
H1198 H 0.94487 0.67543 0.46587 0.0
H1199 H 0.90436 0.67962 0.47238 0.0
C1200 C 0.42012 0.72064 0.539 0.0
C1201 C 0.4052 0.73901 0.5178 0.0
C1202 C 0.45193 0.73741 0.48426 0.0
C1203 C 0.46856 0.72315 0.50771 0.0
N1204 N 0.47032 0.70874 0.56086 0.0
N1205 N 0.40875 0.76889 0.47205 0.0
C1206 C 0.4532 0.71682 0.53612 0.0
C1207 C 0.42163 0.74854 0.49083 0.0
N1208 N 0.40239 0.7056 0.56098 0.0
N1209 N 0.46455 0.73932 0.45547 0.0
H1210 H 0.38697 0.77797 0.47676 0.0
H1211 H 0.42101 0.77878 0.4535 0.0
H1212 H 0.48599 0.73013 0.44966 0.0
H1213 H 0.45221 0.74714 0.43682 0.0
H1214 H 0.41181 0.6901 0.57567 0.0
H1215 H 0.37759 0.7058 0.56175 0.0
H1216 H 0.4603 0.70623 0.58264 0.0
H1217 H 0.49509 0.70823 0.56051 0.0
C1218 C 0.96868 0.8825 0.21876 0.0
C1219 C 0.98822 0.90548 0.20435 0.0
C1220 C 1.0011 0.86804 0.16505 0.0
C1221 C 0.98931 0.84444 0.18471 0.0
N1222 N 0.96758 0.83065 0.23459 0.0
N1223 N 0.0199 0.92117 0.16091 0.0
C1224 C 0.97429 0.85194 0.21266 0.0
C1225 C 1.00306 0.89855 0.1762 0.0
N1226 N 0.94425 0.88948 0.23746 0.0
N1227 N 0.01019 0.86121 0.13595 0.0
H1228 H 0.01984 0.94378 0.16809 0.0
H1229 H 0.0344 0.91745 0.14205 0.0
H1230 H 0.00824 0.83907 0.1273 0.0
H1231 H 0.0169 0.87757 0.11975 0.0
H1232 H 0.92854 0.8729 0.24714 0.0
H1233 H 0.93698 0.91139 0.23946 0.0
H1234 H 0.95854 0.83617 0.25605 0.0
H1235 H 0.97492 0.80868 0.23309 0.0
C1236 C 0.5056 0.11188 0.65842 0.0
C1237 C 0.50868 0.10312 0.68929 0.0
C1238 C 0.50038 0.15459 0.70638 0.0
C1239 C 0.50104 0.16433 0.67572 0.0
N1240 N 0.50754 0.15342 0.6222 0.0
N1241 N 0.51814 0.11801 0.74185 0.0
C1242 C 0.50446 0.14325 0.6515 0.0
C1243 C 0.50873 0.12504 0.71309 0.0
N1244 N 0.50323 0.09016 0.63601 0.0
N1245 N 0.49048 0.17328 0.72895 0.0
H1246 H 0.5261 0.09689 0.74724 0.0
H1247 H 0.52144 0.13416 0.7593 0.0
H1248 H 0.48179 0.19423 0.72409 0.0
H1249 H 0.48728 0.16647 0.75158 0.0
H1250 H 0.49806 0.09467 0.61329 0.0
H1251 H 0.50441 0.06717 0.64074 0.0
H1252 H 0.51305 0.13965 0.60373 0.0
H1253 H 0.50661 0.17627 0.61677 0.0
C1254 C 0.46286 0.36842 0.68615 0.0
C1255 C 0.48373 0.35798 0.70857 0.0
C1256 C 0.49716 0.41032 0.72575 0.0
C1257 C 0.47929 0.42113 0.70101 0.0
N1258 N 0.44423 0.41112 0.65814 0.0
N1259 N 0.52038 0.36973 0.75071 0.0
C1260 C 0.46154 0.40027 0.68155 0.0
C1261 C 0.50021 0.37888 0.72881 0.0
N1262 N 0.44406 0.34773 0.66965 0.0
N1263 N 0.51302 0.42993 0.74579 0.0
H1264 H 0.52521 0.34725 0.75454 0.0
H1265 H 0.52521 0.34725 0.75454 0.0
H1266 H 0.51166 0.45328 0.74558 0.0
H1267 H 0.52703 0.42262 0.76359 0.0
H1268 H 0.42641 0.35339 0.65451 0.0
H1269 H 0.44459 0.32439 0.67275 0.0
H1270 H 0.43358 0.39767 0.64084 0.0
H1271 H 0.44118 0.43419 0.65556 0.0
C1272 C 0.82583 0.26459 0.97914 0.0
C1273 C 0.8154 0.27504 0.95055 0.0
C1274 C 0.86427 0.30821 0.94612 0.0
C1275 C 0.8765 0.29535 0.97298 0.0
N1276 N 0.87041 0.25873 0.01345 0.0
N1277 N 0.82766 0.30138 0.90362 0.0
C1278 C 0.85763 0.27285 0.98918 0.0
C1279 C 0.83551 0.29531 0.93313 0.0
N1280 N 0.80494 0.2475 0.99699 0.0
N1281 N 0.87927 0.33369 0.93371 0.0
H1282 H 0.80735 0.29133 0.89296 0.0
H1283 H 0.84297 0.31372 0.8888 0.0
H1284 H 0.89971 0.34481 0.94311 0.0
H1285 H 0.86947 0.34571 0.91609 0.0
H1286 H 0.80983 0.24155 0.0194 0.0
H1287 H 0.78163 0.24123 0.99007 0.0
H1288 H 0.85907 0.24004 0.02427 0.0
H1289 H 0.89349 0.26434 0.02139 0.0
C1290 C 0.04489 0.6492 0.18587 0.0
C1291 C 0.03025 0.6597 0.2129 0.0
C1292 C 0.02508 0.60798 0.23281 0.0
C1293 C 0.03683 0.59686 0.20449 0.0
N1294 N 0.06656 0.60711 0.15828 0.0
N1295 N 0.01004 0.64982 0.26394 0.0
C1296 C 0.04959 0.61769 0.18238 0.0
C1297 C 0.02226 0.63944 0.23708 0.0
N1298 N 0.05312 0.66929 0.16313 0.0
N1299 N 0.01489 0.58935 0.25601 0.0
H1300 H 0.00715 0.67265 0.26838 0.0
H1301 H 1.00323 0.63553 0.28204 0.0
H1302 H 0.01584 0.56586 0.25595 0.0
H1303 H 0.01584 0.56586 0.25595 0.0
H1304 H 0.0604 0.663 0.14135 0.0
H1305 H 0.05163 0.69263 0.16586 0.0
H1306 H 0.07865 0.62094 0.14229 0.0
H1307 H 0.07091 0.58424 0.15588 0.0
C1308 C 0.66999 0.73616 0.52609 0.0
C1309 C 0.66863 0.70719 0.54001 0.0
C1310 C 0.72618 0.70518 0.53114 0.0
C1311 C 0.72599 0.73106 0.51235 0.0
N1312 N 0.69656 0.7694 0.4888 0.0
N1313 N 0.69536 0.66188 0.55179 0.0
C1314 C 0.69767 0.74636 0.50925 0.0
C1315 C 0.69679 0.69118 0.54192 0.0
N1316 N 0.64487 0.75401 0.52918 0.0
N1317 N 0.75461 0.69415 0.53883 0.0
H1318 H 0.67438 0.65008 0.55896 0.0
H1319 H 0.71461 0.64829 0.55022 0.0
H1320 H 0.77648 0.70452 0.53181 0.0
H1321 H 0.75655 0.67693 0.55469 0.0
H1322 H 0.64558 0.77637 0.52175 0.0
H1323 H 0.6246 0.74749 0.54206 0.0
H1324 H 0.67555 0.77925 0.48319 0.0
H1325 H 0.71605 0.77681 0.47534 0.0
C1326 C 0.75631 0.42178 0.40199 0.0
C1327 C 0.76276 0.44559 0.4234 0.0
C1328 C 0.75553 0.48316 0.38399 0.0
C1329 C 0.75023 0.45953 0.36201 0.0
N1330 N 0.7509 0.40679 0.34846 0.0
N1331 N 0.77487 0.4991 0.43309 0.0
C1332 C 0.75226 0.42887 0.37056 0.0
C1333 C 0.76483 0.47609 0.41379 0.0
N1334 N 0.75286 0.39261 0.41205 0.0
N1335 N 0.75055 0.5125 0.37704 0.0
H1336 H 0.78324 0.49575 0.45517 0.0
H1337 H 0.78324 0.49575 0.45517 0.0
H1338 H 0.74 0.51875 0.35675 0.0
H1339 H 0.75471 0.53029 0.39274 0.0
H1340 H 0.74491 0.37428 0.3983 0.0
H1341 H 0.75644 0.38708 0.43489 0.0
H1342 H 0.75491 0.38424 0.35266 0.0
H1343 H 0.74814 0.41163 0.32534 0.0
C1344 C 0.79747 0.49363 0.62478 0.0
C1345 C 0.76616 0.5007 0.61692 0.0
C1346 C 0.74925 0.49453 0.67056 0.0
C1347 C 0.77912 0.48283 0.67732 0.0
N1348 N 0.83259 0.47281 0.66203 0.0
N1349 N 0.71158 0.50723 0.63181 0.0
C1350 C 0.80362 0.48312 0.65478 0.0
C1351 C 0.74211 0.50182 0.63981 0.0
N1352 N 0.82126 0.49737 0.60342 0.0
N1353 N 0.72714 0.49787 0.69323 0.0
H1354 H 0.7049 0.51316 0.6099 0.0
H1355 H 0.69213 0.50387 0.64643 0.0
H1356 H 0.72923 0.48982 0.71534 0.0
H1357 H 0.70728 0.51047 0.69074 0.0
H1358 H 0.84526 0.49498 0.60789 0.0
H1359 H 0.81719 0.50545 0.58151 0.0
H1360 H 0.85029 0.46886 0.64605 0.0
H1361 H 0.83872 0.46728 0.6843 0.0
C1362 C 0.7377 0.52022 0.9232 0.0
C1363 C 0.74385 0.55178 0.92782 0.0
C1364 C 0.75677 0.55808 0.87363 0.0
C1365 C 0.7562 0.52617 0.87037 0.0
N1366 N 0.74669 0.4763 0.89167 0.0
N1367 N 0.7581 0.60139 0.90846 0.0
C1368 C 0.74608 0.507 0.89486 0.0
C1369 C 0.75246 0.57102 0.90312 0.0
N1370 N 0.72436 0.50304 0.94633 0.0
N1371 N 0.76181 0.57569 0.84836 0.0
H1372 H 0.75429 0.61115 0.92989 0.0
H1373 H 0.76763 0.6166 0.89227 0.0
H1374 H 0.76483 0.56627 0.82663 0.0
H1375 H 0.76049 0.5991 0.84842 0.0
H1376 H 0.71672 0.48024 0.94388 0.0
H1377 H 0.7184 0.51241 0.96741 0.0
H1378 H 0.74355 0.46124 0.90976 0.0
H1379 H 0.7521 0.46579 0.87108 0.0
C1380 C 0.70253 0.54046 0.16695 0.0
C1381 C 0.72478 0.52605 0.18513 0.0
C1382 C 0.76102 0.52345 0.14105 0.0
C1383 C 0.74032 0.54071 0.12359 0.0
N1384 N 0.69165 0.56635 0.11972 0.0
N1385 N 0.77777 0.50869 0.19121 0.0
C1386 C 0.71113 0.54943 0.13655 0.0
C1387 C 0.75456 0.51862 0.17258 0.0
N1388 N 0.67286 0.54471 0.17853 0.0
N1389 N 0.78713 0.51164 0.12791 0.0
H1390 H 0.77471 0.50491 0.21452 0.0
H1391 H 0.80133 0.50687 0.18429 0.0
H1392 H 0.79515 0.51611 0.10582 0.0
H1393 H 0.79979 0.49514 0.13833 0.0
H1394 H 0.65421 0.55225 0.16568 0.0
H1395 H 0.6661 0.53865 0.20075 0.0
H1396 H 0.67219 0.57675 0.12878 0.0
H1397 H 0.69561 0.57097 0.0966 0.0
C1398 C 0.46375 0.6555 0.75559 0.0
C1399 C 0.47993 0.67253 0.77916 0.0
C1400 C 0.50493 0.62706 0.79596 0.0
C1401 C 0.48715 0.60983 0.77363 0.0
N1402 N 0.44433 0.60579 0.73716 0.0
N1403 N 0.51218 0.67452 0.82447 0.0
C1404 C 0.46489 0.62354 0.75495 0.0
C1405 C 0.49945 0.65824 0.80021 0.0
N1406 N 0.44873 0.67004 0.73293 0.0
N1407 N 0.5277 0.61371 0.81228 0.0
H1408 H 0.50833 0.69737 0.82792 0.0
H1409 H 0.5244 0.66501 0.84225 0.0
H1410 H 0.53183 0.59083 0.80962 0.0
H1411 H 0.54376 0.62556 0.82689 0.0
H1412 H 0.43935 0.65903 0.71344 0.0
H1413 H 0.44834 0.69356 0.73212 0.0
H1414 H 0.42557 0.61418 0.72507 0.0
H1415 H 0.44421 0.58219 0.73685 0.0
loop_
_geom_bond_atom_site_label_1
_geom_bond_atom_site_label_2
_geom_bond_distance
_geom_bond_site_symmetry_2
_ccdc_geom_bond_type
Cu0 N1 1.999 . S
Cu0 O6 1.974 . S
Cu0 N11 1.985 . S
Cu0 O20 1.959 . S
N1 Cu0 1.999 . S
N1 C3 1.263 . S
N1 C5 1.389 . S
N2 C3 1.358 . S
N2 C4 1.400 . S
C3 N1 1.263 . S
C3 N2 1.358 . S
C3 H9 0.930 . S
C4 N2 1.400 . S
C4 C5 1.351 . S
C4 H21 0.930 . S
C5 N1 1.389 . S
C5 C4 1.351 . S
C5 H10 0.930 . S
O6 Cu0 1.974 . S
O6 C16 1.282 . S
C7 O8 1.261 . S
C7 O20 1.251 . S
O8 C7 1.261 . S
H9 C3 0.930 . S
H10 C5 0.930 . S
N11 Cu0 1.985 . S
N11 C13 1.335 . S
N11 C14 1.390 . S
N12 C13 1.345 . S
N12 C15 1.336 . S
C13 N11 1.335 . S
C13 N12 1.345 . S
C13 H18 0.930 . S
C14 N11 1.390 . S
C14 C15 1.346 . S
C14 H19 0.930 . S
C15 N12 1.336 . S
C15 C14 1.346 . S
C15 H22 0.929 . S
C16 O6 1.282 . S
C16 O17 1.216 . S
O17 C16 1.216 . S
H18 C13 0.930 . S
H19 C14 0.930 . S
O20 Cu0 1.959 . S
O20 C7 1.251 . S
H21 C4 0.930 . S
H22 C15 0.929 . S
Cu23 N24 1.996 1_455 S
Cu23 O29 1.974 1_455 S
Cu23 N34 1.985 . S
Cu23 O43 1.959 . S
N24 Cu23 1.996 1_655 S
N24 C26 1.276 . S
N24 C28 1.380 1_655 S
N25 C26 1.358 . S
N25 C27 1.400 1_655 S
C26 N24 1.276 . S
C26 N25 1.358 . S
C26 H32 0.930 . S
C27 N25 1.400 1_455 S
C27 C28 1.351 . S
C27 H44 0.930 . S
C28 N24 1.380 1_455 S
C28 C27 1.351 . S
C28 H33 0.930 . S
O29 Cu23 1.974 1_655 S
O29 C39 1.282 . S
C30 O31 1.261 . S
C30 O43 1.251 . S
O31 C30 1.261 . S
H32 C26 0.930 . S
H33 C28 0.930 . S
N34 Cu23 1.985 . S
N34 C36 1.335 . S
N34 C37 1.390 1_455 S
N35 C36 1.345 . S
N35 C38 1.336 . S
C36 N34 1.335 . S
C36 N35 1.345 . S
C36 H41 0.930 . S
C37 N34 1.390 1_655 S
C37 C38 1.346 1_655 S
C37 H42 0.930 . S
C38 N35 1.336 . S
C38 C37 1.346 1_455 S
C38 H45 0.929 1_455 S
C39 O29 1.282 . S
C39 O40 1.216 . S
O40 C39 1.216 . S
H41 C36 0.930 . S
H42 C37 0.930 . S
O43 Cu23 1.959 . S
O43 C30 1.251 . S
H44 C27 0.930 . S
H45 C38 0.929 1_655 S
Cu46 N47 1.999 . S
Cu46 O52 1.974 . S
Cu46 N57 1.985 . S
Cu46 O66 1.959 . S
N47 Cu46 1.999 . S
N47 C49 1.263 . S
N47 C51 1.389 . S
N48 C49 1.358 . S
N48 C50 1.400 . S
C49 N47 1.263 . S
C49 N48 1.358 . S
C49 H55 0.930 . S
C50 N48 1.400 . S
C50 C51 1.351 . S
C50 H67 0.930 . S
C51 N47 1.389 . S
C51 C50 1.351 . S
C51 H56 0.930 . S
O52 Cu46 1.974 . S
O52 C62 1.282 . S
C53 O54 1.261 . S
C53 O66 1.251 . S
O54 C53 1.261 . S
H55 C49 0.930 . S
H56 C51 0.930 . S
N57 Cu46 1.985 . S
N57 C59 1.335 . S
N57 C60 1.390 . S
N58 C59 1.345 . S
N58 C61 1.336 . S
C59 N57 1.335 . S
C59 N58 1.345 . S
C59 H64 0.930 . S
C60 N57 1.390 . S
C60 C61 1.346 . S
C60 H65 0.930 . S
C61 N58 1.336 . S
C61 C60 1.346 . S
C61 H68 0.929 . S
C62 O52 1.282 . S
C62 O63 1.216 . S
O63 C62 1.216 . S
H64 C59 0.930 . S
H65 C60 0.930 . S
O66 Cu46 1.959 . S
O66 C53 1.251 . S
H67 C50 0.930 . S
H68 C61 0.929 . S
Cu69 N70 1.999 . S
Cu69 O75 1.974 . S
Cu69 N80 1.985 1_556 S
Cu69 O89 1.959 . S
N70 Cu69 1.999 . S
N70 C72 1.263 . S
N70 C74 1.389 . S
N71 C72 1.358 . S
N71 C73 1.400 . S
C72 N70 1.263 . S
C72 N71 1.358 . S
C72 H78 0.930 . S
C73 N71 1.400 . S
C73 C74 1.351 . S
C73 H90 0.930 . S
C74 N70 1.389 . S
C74 C73 1.351 . S
C74 H79 0.930 . S
O75 Cu69 1.974 . S
O75 C85 1.282 . S
C76 O77 1.261 . S
C76 O89 1.251 1_554 S
O77 C76 1.261 . S
H78 C72 0.930 . S
H79 C74 0.930 . S
N80 Cu69 1.985 1_554 S
N80 C82 1.335 . S
N80 C83 1.390 . S
N81 C82 1.345 . S
N81 C84 1.336 . S
C82 N80 1.335 . S
C82 N81 1.345 . S
C82 H87 0.930 . S
C83 N80 1.390 . S
C83 C84 1.346 . S
C83 H88 0.930 . S
C84 N81 1.336 . S
C84 C83 1.346 . S
C84 H91 0.929 . S
C85 O75 1.282 . S
C85 O86 1.216 1_556 S
O86 C85 1.216 1_554 S
H87 C82 0.930 . S
H88 C83 0.930 . S
O89 Cu69 1.959 . S
O89 C76 1.251 1_556 S
H90 C73 0.930 . S
H91 C84 0.929 . S
Cu92 N93 1.999 1_565 S
Cu92 O98 1.974 1_565 S
Cu92 N103 1.985 1_455 S
Cu92 O112 1.959 . S
N93 Cu92 1.999 1_545 S
N93 C95 1.263 . S
N93 C97 1.389 1_545 S
N94 C95 1.358 . S
N94 C96 1.400 . S
C95 N93 1.263 . S
C95 N94 1.358 . S
C95 H101 0.930 . S
C96 N94 1.400 . S
C96 C97 1.351 1_545 S
C96 H113 0.930 1_545 S
C97 N93 1.389 1_565 S
C97 C96 1.351 1_565 S
C97 H102 0.930 . S
O98 Cu92 1.974 1_545 S
O98 C108 1.282 . S
C99 O100 1.261 . S
C99 O112 1.251 1_655 S
O100 C99 1.261 . S
H101 C95 0.930 . S
H102 C97 0.930 . S
N103 Cu92 1.985 1_655 S
N103 C105 1.335 . S
N103 C106 1.390 1_565 S
N104 C105 1.345 . S
N104 C107 1.336 . S
C105 N103 1.335 . S
C105 N104 1.345 . S
C105 H110 0.930 . S
C106 N103 1.390 1_545 S
C106 C107 1.346 1_545 S
C106 H111 0.930 . S
C107 N104 1.336 . S
C107 C106 1.346 1_565 S
C107 H114 0.929 . S
C108 O98 1.282 . S
C108 O109 1.216 1_455 S
O109 C108 1.216 1_655 S
H110 C105 0.930 . S
H111 C106 0.930 . S
O112 Cu92 1.959 . S
O112 C99 1.251 1_455 S
H113 C96 0.930 1_565 S
H114 C107 0.929 . S
Cu115 N116 1.999 . S
Cu115 O121 1.974 . S
Cu115 N126 1.985 . S
Cu115 O135 1.959 . S
N116 Cu115 1.999 . S
N116 C118 1.263 . S
N116 C120 1.389 . S
N117 C118 1.358 . S
N117 C119 1.400 . S
C118 N116 1.263 . S
C118 N117 1.358 . S
C118 H124 0.930 . S
C119 N117 1.400 . S
C119 C120 1.351 . S
C119 H136 0.930 . S
C120 N116 1.389 . S
C120 C119 1.351 . S
C120 H125 0.930 . S
O121 Cu115 1.974 . S
O121 C131 1.282 . S
C122 O123 1.261 . S
C122 O135 1.251 . S
O123 C122 1.261 . S
H124 C118 0.930 . S
H125 C120 0.930 . S
N126 Cu115 1.985 . S
N126 C128 1.335 . S
N126 C129 1.390 . S
N127 C128 1.345 . S
N127 C130 1.336 . S
C128 N126 1.335 . S
C128 N127 1.345 . S
C128 H133 0.930 . S
C129 N126 1.390 . S
C129 C130 1.346 . S
C129 H134 0.930 . S
C130 N127 1.336 . S
C130 C129 1.346 . S
C130 H137 0.929 . S
C131 O121 1.282 . S
C131 O132 1.216 . S
O132 C131 1.216 . S
H133 C128 0.930 . S
H134 C129 0.930 . S
O135 Cu115 1.959 . S
O135 C122 1.251 . S
H136 C119 0.930 . S
H137 C130 0.929 . S
Cu138 N139 1.999 1_545 S
Cu138 O144 1.974 1_545 S
Cu138 N149 1.985 . S
Cu138 O158 1.959 . S
N139 Cu138 1.999 1_565 S
N139 C141 1.263 . S
N139 C143 1.389 1_565 S
N140 C141 1.358 . S
N140 C142 1.400 . S
C141 N139 1.263 . S
C141 N140 1.358 . S
C141 H147 0.930 . S
C142 N140 1.400 . S
C142 C143 1.351 1_565 S
C142 H159 0.930 1_565 S
C143 N139 1.389 1_545 S
C143 C142 1.351 1_545 S
C143 H148 0.930 . S
O144 Cu138 1.974 1_565 S
O144 C154 1.282 . S
C145 O146 1.261 . S
C145 O158 1.251 . S
O146 C145 1.261 . S
H147 C141 0.930 . S
H148 C143 0.930 . S
N149 Cu138 1.985 . S
N149 C151 1.335 . S
N149 C152 1.390 1_545 S
N150 C151 1.345 . S
N150 C153 1.336 . S
C151 N149 1.335 . S
C151 N150 1.345 . S
C151 H156 0.930 . S
C152 N149 1.390 1_565 S
C152 C153 1.346 1_565 S
C152 H157 0.930 . S
C153 N150 1.336 . S
C153 C152 1.346 1_545 S
C153 H160 0.929 . S
C154 O144 1.282 . S
C154 O155 1.216 . S
O155 C154 1.216 . S
H156 C151 0.930 . S
H157 C152 0.930 . S
O158 Cu138 1.959 . S
O158 C145 1.251 . S
H159 C142 0.930 1_545 S
H160 C153 0.929 . S
Cu161 N162 1.999 . S
Cu161 O167 1.974 . S
Cu161 N172 1.985 . S
Cu161 O181 1.959 . S
N162 Cu161 1.999 . S
N162 C164 1.263 . S
N162 C166 1.389 . S
N163 C164 1.358 . S
N163 C165 1.400 . S
C164 N162 1.263 . S
C164 N163 1.358 . S
C164 H170 0.930 . S
C165 N163 1.400 . S
C165 C166 1.351 . S
C165 H182 0.930 . S
C166 N162 1.389 . S
C166 C165 1.351 . S
C166 H171 0.930 . S
O167 Cu161 1.974 . S
O167 C177 1.282 . S
C168 O169 1.261 . S
C168 O181 1.251 . S
O169 C168 1.261 . S
H170 C164 0.930 . S
H171 C166 0.930 . S
N172 Cu161 1.985 . S
N172 C174 1.335 . S
N172 C175 1.390 . S
N173 C174 1.345 . S
N173 C176 1.336 . S
C174 N172 1.335 . S
C174 N173 1.345 . S
C174 H179 0.930 . S
C175 N172 1.390 . S
C175 C176 1.346 . S
C175 H180 0.930 . S
C176 N173 1.336 . S
C176 C175 1.346 . S
C176 H183 0.929 . S
C177 O167 1.282 . S
C177 O178 1.216 . S
O178 C177 1.216 . S
H179 C174 0.930 . S
H180 C175 0.930 . S
O181 Cu161 1.959 . S
O181 C168 1.251 . S
H182 C165 0.930 . S
H183 C176 0.929 . S
Cu184 N185 1.999 . S
Cu184 O190 1.974 . S
Cu184 N195 1.985 . S
Cu184 O204 1.959 . S
N185 Cu184 1.999 . S
N185 C187 1.263 . S
N185 C189 1.389 . S
N186 C187 1.358 . S
N186 C188 1.400 . S
C187 N185 1.263 . S
C187 N186 1.358 . S
C187 H193 0.930 . S
C188 N186 1.400 . S
C188 C189 1.351 . S
C188 H205 0.930 . S
C189 N185 1.389 . S
C189 C188 1.351 . S
C189 H194 0.930 . S
O190 Cu184 1.974 . S
O190 C200 1.282 . S
C191 O192 1.261 . S
C191 O204 1.251 . S
O192 C191 1.261 . S
H193 C187 0.930 . S
H194 C189 0.930 . S
N195 Cu184 1.985 . S
N195 C197 1.335 . S
N195 C198 1.390 . S
N196 C197 1.345 . S
N196 C199 1.336 . S
C197 N195 1.335 . S
C197 N196 1.345 . S
C197 H202 0.930 . S
C198 N195 1.390 . S
C198 C199 1.346 . S
C198 H203 0.930 . S
C199 N196 1.336 . S
C199 C198 1.346 . S
C199 H206 0.929 . S
C200 O190 1.282 . S
C200 O201 1.216 . S
O201 C200 1.216 . S
H202 C197 0.930 . S
H203 C198 0.930 . S
O204 Cu184 1.959 . S
O204 C191 1.251 . S
H205 C188 0.930 . S
H206 C199 0.929 . S
Cu207 N208 1.999 . S
Cu207 O213 1.974 . S
Cu207 N218 1.985 . S
Cu207 O227 1.959 1_545 S
N208 Cu207 1.999 . S
N208 C210 1.263 . S
N208 C212 1.389 . S
N209 C210 1.358 . S
N209 C211 1.400 . S
C210 N208 1.263 . S
C210 N209 1.358 . S
C210 H216 0.930 . S
C211 N209 1.400 . S
C211 C212 1.351 . S
C211 H228 0.930 . S
C212 N208 1.389 . S
C212 C211 1.351 . S
C212 H217 0.930 . S
O213 Cu207 1.974 . S
O213 C223 1.282 . S
C214 O215 1.261 . S
C214 O227 1.251 . S
O215 C214 1.261 . S
H216 C210 0.930 . S
H217 C212 0.930 . S
N218 Cu207 1.985 . S
N218 C220 1.335 1_545 S
N218 C221 1.390 . S
N219 C220 1.345 . S
N219 C222 1.336 . S
C220 N218 1.335 1_565 S
C220 N219 1.345 . S
C220 H225 0.930 . S
C221 N218 1.390 . S
C221 C222 1.346 1_545 S
C221 H226 0.930 . S
C222 N219 1.336 . S
C222 C221 1.346 1_565 S
C222 H229 0.929 . S
C223 O213 1.282 . S
C223 O224 1.216 . S
O224 C223 1.216 . S
H225 C220 0.930 . S
H226 C221 0.930 . S
O227 Cu207 1.959 1_565 S
O227 C214 1.251 . S
H228 C211 0.930 . S
H229 C222 0.929 . S
Cu230 N231 1.999 . S
Cu230 O236 1.974 . S
Cu230 N241 1.985 . S
Cu230 O250 1.959 . S
N231 Cu230 1.999 . S
N231 C233 1.263 . S
N231 C235 1.389 . S
N232 C233 1.358 . S
N232 C234 1.400 . S
C233 N231 1.263 . S
C233 N232 1.358 . S
C233 H239 0.930 . S
C234 N232 1.400 . S
C234 C235 1.351 . S
C234 H251 0.930 . S
C235 N231 1.389 . S
C235 C234 1.351 . S
C235 H240 0.930 . S
O236 Cu230 1.974 . S
O236 C246 1.282 . S
C237 O238 1.261 . S
C237 O250 1.251 . S
O238 C237 1.261 . S
H239 C233 0.930 . S
H240 C235 0.930 . S
N241 Cu230 1.985 . S
N241 C243 1.335 . S
N241 C244 1.390 . S
N242 C243 1.345 . S
N242 C245 1.336 . S
C243 N241 1.335 . S
C243 N242 1.345 . S
C243 H248 0.930 . S
C244 N241 1.390 . S
C244 C245 1.346 . S
C244 H249 0.930 . S
C245 N242 1.336 . S
C245 C244 1.346 . S
C245 H252 0.929 . S
C246 O236 1.282 . S
C246 O247 1.216 . S
O247 C246 1.216 . S
H248 C243 0.930 . S
H249 C244 0.930 . S
O250 Cu230 1.959 . S
O250 C237 1.251 . S
H251 C234 0.930 . S
H252 C245 0.929 . S
Cu253 N254 1.999 1_554 S
Cu253 O259 1.974 1_554 S
Cu253 N264 1.995 . S
Cu253 O273 1.959 1_565 S
N254 Cu253 1.999 1_556 S
N254 C256 1.263 . S
N254 C258 1.389 . S
N255 C256 1.358 . S
N255 C257 1.400 . S
C256 N254 1.263 . S
C256 N255 1.358 . S
C256 H262 0.930 . S
C257 N255 1.400 . S
C257 C258 1.351 . S
C257 H274 0.930 . S
C258 N254 1.389 . S
C258 C257 1.351 . S
C258 H263 0.930 . S
O259 Cu253 1.974 1_556 S
O259 C269 1.282 . S
C260 O261 1.261 1_554 S
C260 O273 1.251 . S
O261 C260 1.261 1_556 S
H262 C256 0.930 . S
H263 C258 0.930 . S
N264 Cu253 1.995 . S
N264 C266 1.322 1_565 S
N264 C267 1.396 . S
N265 C266 1.345 . S
N265 C268 1.336 . S
C266 N264 1.322 1_545 S
C266 N265 1.345 . S
C266 H271 0.930 . S
C267 N264 1.396 . S
C267 C268 1.346 1_565 S
C267 H272 0.930 . S
C268 N265 1.336 . S
C268 C267 1.346 1_545 S
C268 H275 0.929 . S
C269 O259 1.282 . S
C269 O270 1.216 . S
O270 C269 1.216 . S
H271 C266 0.930 . S
H272 C267 0.930 . S
O273 Cu253 1.959 1_545 S
O273 C260 1.251 . S
H274 C257 0.930 . S
H275 C268 0.929 . S
Cu276 N277 1.999 . S
Cu276 O282 1.974 . S
Cu276 N287 1.985 . S
Cu276 O296 1.959 . S
N277 Cu276 1.999 . S
N277 C279 1.263 . S
N277 C281 1.389 . S
N278 C279 1.358 . S
N278 C280 1.400 . S
C279 N277 1.263 . S
C279 N278 1.358 . S
C279 H285 0.930 . S
C280 N278 1.400 . S
C280 C281 1.351 . S
C280 H297 0.930 . S
C281 N277 1.389 . S
C281 C280 1.351 . S
C281 H286 0.930 . S
O282 Cu276 1.974 . S
O282 C292 1.282 . S
C283 O284 1.261 . S
C283 O296 1.251 . S
O284 C283 1.261 . S
H285 C279 0.930 . S
H286 C281 0.930 . S
N287 Cu276 1.985 . S
N287 C289 1.335 . S
N287 C290 1.390 . S
N288 C289 1.345 . S
N288 C291 1.336 . S
C289 N287 1.335 . S
C289 N288 1.345 . S
C289 H294 0.930 . S
C290 N287 1.390 . S
C290 C291 1.346 . S
C290 H295 0.930 . S
C291 N288 1.336 . S
C291 C290 1.346 . S
C291 H298 0.929 . S
C292 O282 1.282 . S
C292 O293 1.216 . S
O293 C292 1.216 . S
H294 C289 0.930 . S
H295 C290 0.930 . S
O296 Cu276 1.959 . S
O296 C283 1.251 . S
H297 C280 0.930 . S
H298 C291 0.929 . S
Cu299 N300 1.999 . S
Cu299 O305 1.974 . S
Cu299 N310 1.985 1_655 S
Cu299 O319 1.959 . S
N300 Cu299 1.999 . S
N300 C302 1.263 . S
N300 C304 1.389 . S
N301 C302 1.358 . S
N301 C303 1.400 . S
C302 N300 1.263 . S
C302 N301 1.358 . S
C302 H308 0.930 . S
C303 N301 1.400 . S
C303 C304 1.351 . S
C303 H320 0.930 . S
C304 N300 1.389 . S
C304 C303 1.351 . S
C304 H309 0.930 . S
O305 Cu299 1.974 . S
O305 C315 1.282 . S
C306 O307 1.261 . S
C306 O319 1.251 1_455 S
O307 C306 1.261 . S
H308 C302 0.930 . S
H309 C304 0.930 . S
N310 Cu299 1.985 1_455 S
N310 C312 1.335 . S
N310 C313 1.390 . S
N311 C312 1.345 . S
N311 C314 1.336 . S
C312 N310 1.335 . S
C312 N311 1.345 . S
C312 H317 0.930 . S
C313 N310 1.390 . S
C313 C314 1.346 . S
C313 H318 0.930 . S
C314 N311 1.336 . S
C314 C313 1.346 . S
C314 H321 0.929 . S
C315 O305 1.282 . S
C315 O316 1.216 1_655 S
O316 C315 1.216 1_455 S
H317 C312 0.930 . S
H318 C313 0.930 . S
O319 Cu299 1.959 . S
O319 C306 1.251 1_655 S
H320 C303 0.930 . S
H321 C314 0.929 . S
Cu322 N323 1.999 . S
Cu322 O328 1.974 . S
Cu322 N333 1.985 . S
Cu322 O342 1.959 . S
N323 Cu322 1.999 . S
N323 C325 1.263 . S
N323 C327 1.389 . S
N324 C325 1.358 . S
N324 C326 1.400 . S
C325 N323 1.263 . S
C325 N324 1.358 . S
C325 H331 0.930 . S
C326 N324 1.400 . S
C326 C327 1.351 . S
C326 H343 0.930 . S
C327 N323 1.389 . S
C327 C326 1.351 . S
C327 H332 0.930 . S
O328 Cu322 1.974 . S
O328 C338 1.282 . S
C329 O330 1.261 . S
C329 O342 1.251 . S
O330 C329 1.261 . S
H331 C325 0.930 . S
H332 C327 0.930 . S
N333 Cu322 1.985 . S
N333 C335 1.335 . S
N333 C336 1.390 . S
N334 C335 1.345 . S
N334 C337 1.336 . S
C335 N333 1.335 . S
C335 N334 1.345 . S
C335 H340 0.930 . S
C336 N333 1.390 . S
C336 C337 1.346 . S
C336 H341 0.930 . S
C337 N334 1.336 . S
C337 C336 1.346 . S
C337 H344 0.929 . S
C338 O328 1.282 . S
C338 O339 1.216 . S
O339 C338 1.216 . S
H340 C335 0.930 . S
H341 C336 0.930 . S
O342 Cu322 1.959 . S
O342 C329 1.251 . S
H343 C326 0.930 . S
H344 C337 0.929 . S
Cu345 N346 1.999 . S
Cu345 O351 1.974 . S
Cu345 N356 1.985 . S
Cu345 O365 1.959 . S
N346 Cu345 1.999 . S
N346 C348 1.263 . S
N346 C350 1.389 . S
N347 C348 1.358 . S
N347 C349 1.400 . S
C348 N346 1.263 . S
C348 N347 1.358 . S
C348 H354 0.930 . S
C349 N347 1.400 . S
C349 C350 1.351 . S
C349 H366 0.930 . S
C350 N346 1.389 . S
C350 C349 1.351 . S
C350 H355 0.930 . S
O351 Cu345 1.974 . S
O351 C361 1.282 . S
C352 O353 1.261 . S
C352 O365 1.251 . S
O353 C352 1.261 . S
H354 C348 0.930 . S
H355 C350 0.930 . S
N356 Cu345 1.985 . S
N356 C358 1.335 . S
N356 C359 1.390 . S
N357 C358 1.345 . S
N357 C360 1.336 . S
C358 N356 1.335 . S
C358 N357 1.345 . S
C358 H363 0.930 . S
C359 N356 1.390 . S
C359 C360 1.346 . S
C359 H364 0.930 . S
C360 N357 1.336 . S
C360 C359 1.346 . S
C360 H367 0.929 1_655 S
C361 O351 1.282 . S
C361 O362 1.216 . S
O362 C361 1.216 . S
H363 C358 0.930 . S
H364 C359 0.930 . S
O365 Cu345 1.959 . S
O365 C352 1.251 . S
H366 C349 0.930 . S
H367 C360 0.929 1_455 S
Cu368 N369 1.999 . S
Cu368 O374 1.974 . S
Cu368 N379 1.985 . S
Cu368 O388 1.959 . S
N369 Cu368 1.999 . S
N369 C371 1.263 . S
N369 C373 1.389 . S
N370 C371 1.358 . S
N370 C372 1.400 . S
C371 N369 1.263 . S
C371 N370 1.358 . S
C371 H377 0.930 . S
C372 N370 1.400 . S
C372 C373 1.351 . S
C372 H389 0.930 . S
C373 N369 1.389 . S
C373 C372 1.351 . S
C373 H378 0.930 . S
O374 Cu368 1.974 . S
O374 C384 1.282 . S
C375 O376 1.261 . S
C375 O388 1.251 . S
O376 C375 1.261 . S
H377 C371 0.930 . S
H378 C373 0.930 . S
N379 Cu368 1.985 . S
N379 C381 1.335 . S
N379 C382 1.390 . S
N380 C381 1.345 . S
N380 C383 1.336 . S
C381 N379 1.335 . S
C381 N380 1.345 . S
C381 H386 0.930 . S
C382 N379 1.390 . S
C382 C383 1.346 . S
C382 H387 0.930 . S
C383 N380 1.336 . S
C383 C382 1.346 . S
C383 H390 0.929 . S
C384 O374 1.282 . S
C384 O385 1.216 . S
O385 C384 1.216 . S
H386 C381 0.930 . S
H387 C382 0.930 . S
O388 Cu368 1.959 . S
O388 C375 1.251 . S
H389 C372 0.930 . S
H390 C383 0.929 . S
Cu391 N392 1.999 . S
Cu391 O397 1.974 . S
Cu391 N402 1.985 . S
Cu391 O411 1.959 . S
N392 Cu391 1.999 . S
N392 C394 1.263 . S
N392 C396 1.389 . S
N393 C394 1.358 . S
N393 C395 1.400 . S
C394 N392 1.263 . S
C394 N393 1.358 . S
C394 H400 0.930 . S
C395 N393 1.400 . S
C395 C396 1.351 . S
C395 H412 0.930 . S
C396 N392 1.389 . S
C396 C395 1.351 . S
C396 H401 0.930 . S
O397 Cu391 1.974 . S
O397 C407 1.282 . S
C398 O399 1.261 . S
C398 O411 1.251 . S
O399 C398 1.261 . S
H400 C394 0.930 . S
H401 C396 0.930 . S
N402 Cu391 1.985 . S
N402 C404 1.335 . S
N402 C405 1.390 . S
N403 C404 1.345 . S
N403 C406 1.336 . S
C404 N402 1.335 . S
C404 N403 1.345 . S
C404 H409 0.930 . S
C405 N402 1.390 . S
C405 C406 1.346 . S
C405 H410 0.930 . S
C406 N403 1.336 . S
C406 C405 1.346 . S
C406 H413 0.929 . S
C407 O397 1.282 . S
C407 O408 1.216 . S
O408 C407 1.216 . S
H409 C404 0.930 . S
H410 C405 0.930 . S
O411 Cu391 1.959 . S
O411 C398 1.251 . S
H412 C395 0.930 . S
H413 C406 0.929 . S
Cu414 N415 1.999 1_455 S
Cu414 O420 1.974 1_455 S
Cu414 N425 1.985 1_556 S
Cu414 O434 1.959 1_556 S
N415 Cu414 1.999 1_655 S
N415 C417 1.263 . S
N415 C419 1.389 . S
N416 C417 1.358 . S
N416 C418 1.400 . S
C417 N415 1.263 . S
C417 N416 1.358 . S
C417 H423 0.930 . S
C418 N416 1.400 . S
C418 C419 1.351 . S
C418 H435 0.930 . S
C419 N415 1.389 . S
C419 C418 1.351 . S
C419 H424 0.930 1_655 S
O420 Cu414 1.974 1_655 S
O420 C430 1.282 . S
C421 O422 1.261 1_455 S
C421 O434 1.251 . S
O422 C421 1.261 1_655 S
H423 C417 0.930 . S
H424 C419 0.930 1_455 S
N425 Cu414 1.985 1_554 S
N425 C427 1.335 . S
N425 C428 1.390 1_554 S
N426 C427 1.345 . S
N426 C429 1.336 . S
C427 N425 1.335 . S
C427 N426 1.345 . S
C427 H432 0.930 . S
C428 N425 1.390 1_556 S
C428 C429 1.346 1_556 S
C428 H433 0.930 . S
C429 N426 1.336 . S
C429 C428 1.346 1_554 S
C429 H436 0.929 . S
C430 O420 1.282 . S
C430 O431 1.216 . S
O431 C430 1.216 . S
H432 C427 0.930 . S
H433 C428 0.930 . S
O434 Cu414 1.959 1_554 S
O434 C421 1.251 . S
H435 C418 0.930 . S
H436 C429 0.929 . S
Cu437 N438 1.999 . S
Cu437 O443 1.974 . S
Cu437 N448 1.985 . S
Cu437 O457 1.959 . S
N438 Cu437 1.999 . S
N438 C440 1.263 . S
N438 C442 1.389 . S
N439 C440 1.358 . S
N439 C441 1.400 . S
C440 N438 1.263 . S
C440 N439 1.358 . S
C440 H446 0.930 . S
C441 N439 1.400 . S
C441 C442 1.351 . S
C441 H458 0.930 . S
C442 N438 1.389 . S
C442 C441 1.351 . S
C442 H447 0.930 . S
O443 Cu437 1.974 . S
O443 C453 1.282 . S
C444 O445 1.261 . S
C444 O457 1.251 . S
O445 C444 1.261 . S
H446 C440 0.930 . S
H447 C442 0.930 . S
N448 Cu437 1.985 . S
N448 C450 1.335 . S
N448 C451 1.390 . S
N449 C450 1.345 . S
N449 C452 1.336 . S
C450 N448 1.335 . S
C450 N449 1.345 . S
C450 H455 0.930 . S
C451 N448 1.390 . S
C451 C452 1.346 . S
C451 H456 0.930 . S
C452 N449 1.336 . S
C452 C451 1.346 . S
C452 H459 0.929 . S
C453 O443 1.282 . S
C453 O454 1.216 . S
O454 C453 1.216 . S
H455 C450 0.930 . S
H456 C451 0.930 . S
O457 Cu437 1.959 . S
O457 C444 1.251 . S
H458 C441 0.930 . S
H459 C452 0.929 . S
Cu460 N461 1.999 . S
Cu460 O466 1.974 . S
Cu460 N471 1.985 . S
Cu460 O480 1.959 . S
N461 Cu460 1.999 . S
N461 C463 1.263 . S
N461 C465 1.389 . S
N462 C463 1.358 . S
N462 C464 1.400 . S
C463 N461 1.263 . S
C463 N462 1.358 . S
C463 H469 0.930 . S
C464 N462 1.400 . S
C464 C465 1.351 . S
C464 H481 0.930 . S
C465 N461 1.389 . S
C465 C464 1.351 . S
C465 H470 0.930 . S
O466 Cu460 1.974 . S
O466 C476 1.282 . S
C467 O468 1.261 . S
C467 O480 1.251 . S
O468 C467 1.261 . S
H469 C463 0.930 . S
H470 C465 0.930 . S
N471 Cu460 1.985 . S
N471 C473 1.335 . S
N471 C474 1.390 . S
N472 C473 1.345 . S
N472 C475 1.336 . S
C473 N471 1.335 . S
C473 N472 1.345 . S
C473 H478 0.930 . S
C474 N471 1.390 . S
C474 C475 1.346 . S
C474 H479 0.930 . S
C475 N472 1.336 . S
C475 C474 1.346 . S
C475 H482 0.929 . S
C476 O466 1.282 . S
C476 O477 1.216 . S
O477 C476 1.216 . S
H478 C473 0.930 . S
H479 C474 0.930 . S
O480 Cu460 1.959 . S
O480 C467 1.251 . S
H481 C464 0.930 . S
H482 C475 0.929 . S
Cu483 N484 1.999 . S
Cu483 O489 1.974 . S
Cu483 N494 1.985 . S
Cu483 O503 1.959 . S
N484 Cu483 1.999 . S
N484 C486 1.263 . S
N484 C488 1.389 . S
N485 C486 1.358 . S
N485 C487 1.400 . S
C486 N484 1.263 . S
C486 N485 1.358 . S
C486 H492 0.930 . S
C487 N485 1.400 . S
C487 C488 1.351 . S
C487 H504 0.930 . S
C488 N484 1.389 . S
C488 C487 1.351 . S
C488 H493 0.930 . S
O489 Cu483 1.974 . S
O489 C499 1.282 . S
C490 O491 1.261 . S
C490 O503 1.251 . S
O491 C490 1.261 . S
H492 C486 0.930 . S
H493 C488 0.930 . S
N494 Cu483 1.985 . S
N494 C496 1.335 . S
N494 C497 1.390 . S
N495 C496 1.345 . S
N495 C498 1.336 . S
C496 N494 1.335 . S
C496 N495 1.345 . S
C496 H501 0.930 . S
C497 N494 1.390 . S
C497 C498 1.346 . S
C497 H502 0.930 . S
C498 N495 1.336 . S
C498 C497 1.346 . S
C498 H505 0.929 . S
C499 O489 1.282 . S
C499 O500 1.216 . S
O500 C499 1.216 . S
H501 C496 0.930 . S
H502 C497 0.930 . S
O503 Cu483 1.959 . S
O503 C490 1.251 . S
H504 C487 0.930 . S
H505 C498 0.929 . S
Cu506 N507 1.999 1_556 S
Cu506 O512 1.974 1_556 S
Cu506 N517 1.985 . S
Cu506 O526 1.959 . S
N507 Cu506 1.999 1_554 S
N507 C509 1.263 . S
N507 C511 1.389 . S
N508 C509 1.358 . S
N508 C510 1.400 . S
C509 N507 1.263 . S
C509 N508 1.358 . S
C509 H515 0.930 . S
C510 N508 1.400 . S
C510 C511 1.351 . S
C510 H527 0.930 . S
C511 N507 1.389 . S
C511 C510 1.351 . S
C511 H516 0.930 . S
O512 Cu506 1.974 1_554 S
O512 C522 1.282 . S
C513 O514 1.261 . S
C513 O526 1.251 . S
O514 C513 1.261 . S
H515 C509 0.930 . S
H516 C511 0.930 . S
N517 Cu506 1.985 . S
N517 C519 1.335 . S
N517 C520 1.390 . S
N518 C519 1.345 . S
N518 C521 1.336 . S
C519 N517 1.335 . S
C519 N518 1.345 . S
C519 H524 0.930 . S
C520 N517 1.390 . S
C520 C521 1.346 . S
C520 H525 0.930 . S
C521 N518 1.336 . S
C521 C520 1.346 . S
C521 H528 0.929 . S
C522 O512 1.282 . S
C522 O523 1.216 . S
O523 C522 1.216 . S
H524 C519 0.930 . S
H525 C520 0.930 . S
O526 Cu506 1.959 . S
O526 C513 1.251 . S
H527 C510 0.930 . S
H528 C521 0.929 . S
Cu529 N530 1.999 . S
Cu529 O535 1.974 . S
Cu529 N540 1.985 . S
Cu529 O549 1.959 . S
N530 Cu529 1.999 . S
N530 C532 1.263 . S
N530 C534 1.389 . S
N531 C532 1.358 . S
N531 C533 1.400 . S
C532 N530 1.263 . S
C532 N531 1.358 . S
C532 H538 0.930 . S
C533 N531 1.400 . S
C533 C534 1.351 . S
C533 H550 0.930 . S
C534 N530 1.389 . S
C534 C533 1.351 . S
C534 H539 0.930 . S
O535 Cu529 1.974 . S
O535 C545 1.282 . S
C536 O537 1.261 . S
C536 O549 1.251 . S
O537 C536 1.261 . S
H538 C532 0.930 . S
H539 C534 0.930 . S
N540 Cu529 1.985 . S
N540 C542 1.335 . S
N540 C543 1.390 . S
N541 C542 1.345 . S
N541 C544 1.336 . S
C542 N540 1.335 . S
C542 N541 1.345 . S
C542 H547 0.930 . S
C543 N540 1.390 . S
C543 C544 1.346 . S
C543 H548 0.930 . S
C544 N541 1.336 . S
C544 C543 1.346 . S
C544 H551 0.929 . S
C545 O535 1.282 . S
C545 O546 1.216 . S
O546 C545 1.216 . S
H547 C542 0.930 . S
H548 C543 0.930 . S
O549 Cu529 1.959 . S
O549 C536 1.251 . S
H550 C533 0.930 . S
H551 C544 0.929 . S
C552 C553 1.363 . S
C552 C558 1.379 . S
C552 N560 1.356 . S
C553 C552 1.363 . S
C553 C559 1.363 . S
C554 C555 1.363 . S
C554 C559 1.379 . S
C554 N561 1.356 . S
C555 C554 1.363 . S
C555 C558 1.363 . S
N556 C558 1.356 . S
N556 H568 0.984 . S
N556 H569 0.985 . S
N557 C559 1.356 . S
N557 H562 0.984 . S
N557 H563 0.985 . S
C558 C552 1.379 . S
C558 C555 1.363 . S
C558 N556 1.356 . S
C559 C553 1.363 . S
C559 C554 1.379 . S
C559 N557 1.356 . S
N560 C552 1.356 . S
N560 H566 0.984 . S
N560 H567 0.984 . S
N561 C554 1.356 . S
N561 H564 0.984 . S
N561 H565 0.985 . S
H562 N557 0.984 . S
H563 N557 0.985 . S
H564 N561 0.984 . S
H565 N561 0.985 . S
H566 N560 0.984 . S
H567 N560 0.984 . S
H568 N556 0.984 . S
H569 N556 0.985 . S
C570 C571 1.363 . S
C570 C576 1.379 . S
C570 N578 1.356 . S
C571 C570 1.363 . S
C571 C577 1.363 . S
C572 C573 1.363 . S
C572 C577 1.379 . S
C572 N579 1.356 . S
C573 C572 1.363 . S
C573 C576 1.363 . S
N574 C576 1.356 . S
N574 H586 0.984 . S
N574 H587 0.985 . S
N575 C577 1.356 . S
N575 H580 0.984 . S
N575 H581 0.985 . S
C576 C570 1.379 . S
C576 C573 1.363 . S
C576 N574 1.356 . S
C577 C571 1.363 . S
C577 C572 1.379 . S
C577 N575 1.356 . S
N578 C570 1.356 . S
N578 H584 0.984 . S
N578 H585 0.984 . S
N579 C572 1.356 . S
N579 H582 0.984 . S
N579 H583 0.985 . S
H580 N575 0.984 . S
H581 N575 0.985 . S
H582 N579 0.984 . S
H583 N579 0.985 . S
H584 N578 0.984 . S
H585 N578 0.984 . S
H586 N574 0.984 . S
H587 N574 0.985 . S
C588 C589 1.363 . S
C588 C594 1.379 . S
C588 N596 1.356 . S
C589 C588 1.363 . S
C589 C595 1.363 . S
C590 C591 1.363 . S
C590 C595 1.379 . S
C590 N597 1.356 . S
C591 C590 1.363 . S
C591 C594 1.363 . S
N592 C594 1.356 . S
N592 H604 0.984 . S
N592 H605 0.985 . S
N593 C595 1.356 . S
N593 H598 0.984 . S
N593 H599 0.985 . S
C594 C588 1.379 . S
C594 C591 1.363 . S
C594 N592 1.356 . S
C595 C589 1.363 . S
C595 C590 1.379 . S
C595 N593 1.356 . S
N596 C588 1.356 . S
N596 H602 0.984 . S
N596 H603 0.984 . S
N597 C590 1.356 . S
N597 H600 0.984 . S
N597 H601 0.985 . S
H598 N593 0.984 . S
H599 N593 0.985 . S
H600 N597 0.984 . S
H601 N597 0.985 . S
H602 N596 0.984 . S
H603 N596 0.984 . S
H604 N592 0.984 . S
H605 N592 0.985 . S
C606 C607 1.363 . S
C606 C612 1.379 . S
C606 N614 1.356 . S
C607 C606 1.363 . S
C607 C613 1.363 . S
C608 C609 1.363 . S
C608 C613 1.379 . S
C608 N615 1.356 . S
C609 C608 1.363 . S
C609 C612 1.363 . S
N610 C612 1.356 . S
N610 H622 0.984 . S
N610 H623 0.985 . S
N611 C613 1.356 . S
N611 H616 0.984 . S
N611 H617 0.985 . S
C612 C606 1.379 . S
C612 C609 1.363 . S
C612 N610 1.356 . S
C613 C607 1.363 . S
C613 C608 1.379 . S
C613 N611 1.356 . S
N614 C606 1.356 . S
N614 H620 0.984 . S
N614 H621 0.984 . S
N615 C608 1.356 . S
N615 H618 0.984 . S
N615 H619 0.985 . S
H616 N611 0.984 . S
H617 N611 0.985 . S
H618 N615 0.984 . S
H619 N615 0.985 . S
H620 N614 0.984 . S
H621 N614 0.984 . S
H622 N610 0.984 . S
H623 N610 0.985 . S
C624 C625 1.363 . S
C624 C630 1.379 . S
C624 N632 1.356 . S
C625 C624 1.363 . S
C625 C631 1.363 . S
C626 C627 1.363 . S
C626 C631 1.379 . S
C626 N633 1.356 . S
C627 C626 1.363 . S
C627 C630 1.363 . S
N628 C630 1.356 . S
N628 H640 0.984 . S
N628 H641 0.985 . S
N629 C631 1.356 . S
N629 H634 0.984 . S
N629 H635 0.985 . S
C630 C624 1.379 . S
C630 C627 1.363 . S
C630 N628 1.356 . S
C631 C625 1.363 . S
C631 C626 1.379 . S
C631 N629 1.356 . S
N632 C624 1.356 . S
N632 H638 0.984 . S
N632 H639 0.984 . S
N633 C626 1.356 . S
N633 H636 0.984 . S
N633 H637 0.985 . S
H634 N629 0.984 . S
H635 N629 0.985 . S
H636 N633 0.984 . S
H637 N633 0.985 . S
H638 N632 0.984 . S
H639 N632 0.984 . S
H640 N628 0.984 . S
H641 N628 0.985 . S
C642 C643 1.363 . S
C642 C648 1.379 . S
C642 N650 1.356 . S
C643 C642 1.363 . S
C643 C649 1.363 . S
C644 C645 1.363 . S
C644 C649 1.379 . S
C644 N651 1.356 . S
C645 C644 1.363 . S
C645 C648 1.363 . S
N646 C648 1.356 . S
N646 H658 0.984 . S
N646 H659 0.985 . S
N647 C649 1.356 . S
N647 H652 0.984 . S
N647 H653 0.985 . S
C648 C642 1.379 . S
C648 C645 1.363 . S
C648 N646 1.356 . S
C649 C643 1.363 . S
C649 C644 1.379 . S
C649 N647 1.356 . S
N650 C642 1.356 . S
N650 H656 0.984 . S
N650 H657 0.984 . S
N651 C644 1.356 . S
N651 H654 0.984 . S
N651 H655 0.985 . S
H652 N647 0.984 . S
H653 N647 0.985 . S
H654 N651 0.984 . S
H655 N651 0.985 . S
H656 N650 0.984 . S
H657 N650 0.984 . S
H658 N646 0.984 . S
H659 N646 0.985 . S
C660 C661 1.363 . S
C660 C666 1.379 . S
C660 N668 1.356 . S
C661 C660 1.363 . S
C661 C667 1.363 . S
C662 C663 1.363 . S
C662 C667 1.379 . S
C662 N669 1.356 . S
C663 C662 1.363 . S
C663 C666 1.363 . S
N664 C666 1.356 . S
N664 H676 0.984 . S
N664 H677 0.985 . S
N665 C667 1.356 . S
N665 H670 0.984 . S
N665 H671 0.985 . S
C666 C660 1.379 . S
C666 C663 1.363 . S
C666 N664 1.356 . S
C667 C661 1.363 . S
C667 C662 1.379 . S
C667 N665 1.356 . S
N668 C660 1.356 . S
N668 H674 0.984 . S
N668 H675 0.984 . S
N669 C662 1.356 . S
N669 H672 0.984 . S
N669 H673 0.985 . S
H670 N665 0.984 . S
H671 N665 0.985 . S
H672 N669 0.984 . S
H673 N669 0.985 . S
H674 N668 0.984 . S
H675 N668 0.984 . S
H676 N664 0.984 . S
H677 N664 0.985 . S
C678 C679 1.363 . S
C678 C684 1.379 . S
C678 N686 1.356 . S
C679 C678 1.363 . S
C679 C685 1.363 . S
C680 C681 1.363 . S
C680 C685 1.379 . S
C680 N687 1.356 1_554 S
C681 C680 1.363 . S
C681 C684 1.363 . S
N682 C684 1.356 . S
N682 H694 0.984 . S
N682 H695 0.985 . S
N683 C685 1.356 1_556 S
N683 H688 0.984 . S
N683 H689 0.985 . S
C684 C678 1.379 . S
C684 C681 1.363 . S
C684 N682 1.356 . S
C685 C679 1.363 . S
C685 C680 1.379 . S
C685 N683 1.356 1_554 S
N686 C678 1.356 . S
N686 H692 0.984 . S
N686 H693 0.984 . S
N687 C680 1.356 1_556 S
N687 H690 0.984 . S
N687 H691 0.985 . S
H688 N683 0.984 . S
H689 N683 0.985 . S
H690 N687 0.984 . S
H691 N687 0.985 . S
H692 N686 0.984 . S
H693 N686 0.984 . S
H694 N682 0.984 . S
H695 N682 0.985 . S
C696 C697 1.363 . S
C696 C702 1.379 . S
C696 N704 1.356 . S
C697 C696 1.363 . S
C697 C703 1.363 . S
C698 C699 1.363 . S
C698 C703 1.379 . S
C698 N705 1.356 1_545 S
C699 C698 1.363 . S
C699 C702 1.363 . S
N700 C702 1.356 . S
N700 H712 0.984 . S
N700 H713 0.985 . S
N701 C703 1.356 . S
N701 H706 0.984 . S
N701 H707 0.985 1_545 S
C702 C696 1.379 . S
C702 C699 1.363 . S
C702 N700 1.356 . S
C703 C697 1.363 . S
C703 C698 1.379 . S
C703 N701 1.356 . S
N704 C696 1.356 . S
N704 H710 0.984 . S
N704 H711 0.984 . S
N705 C698 1.356 1_565 S
N705 H708 0.984 . S
N705 H709 0.985 . S
H706 N701 0.984 . S
H707 N701 0.985 1_565 S
H708 N705 0.984 . S
H709 N705 0.985 . S
H710 N704 0.984 . S
H711 N704 0.984 . S
H712 N700 0.984 . S
H713 N700 0.985 . S
C714 C715 1.363 . S
C714 C720 1.379 . S
C714 N722 1.356 . S
C715 C714 1.363 . S
C715 C721 1.363 . S
C716 C717 1.363 . S
C716 C721 1.379 . S
C716 N723 1.356 . S
C717 C716 1.363 . S
C717 C720 1.363 . S
N718 C720 1.356 . S
N718 H730 0.984 . S
N718 H731 0.985 . S
N719 C721 1.356 . S
N719 H724 0.984 . S
N719 H725 0.985 . S
C720 C714 1.379 . S
C720 C717 1.363 . S
C720 N718 1.356 . S
C721 C715 1.363 . S
C721 C716 1.379 . S
C721 N719 1.356 . S
N722 C714 1.356 . S
N722 H728 0.984 . S
N722 H729 0.984 . S
N723 C716 1.356 . S
N723 H726 0.984 . S
N723 H727 0.985 . S
H724 N719 0.984 . S
H725 N719 0.985 . S
H726 N723 0.984 . S
H727 N723 0.985 . S
H728 N722 0.984 . S
H729 N722 0.984 . S
H730 N718 0.984 . S
H731 N718 0.985 . S
C732 C733 1.363 . S
C732 C738 1.379 . S
C732 N740 1.356 . S
C733 C732 1.363 . S
C733 C739 1.363 . S
C734 C735 1.363 . S
C734 C739 1.379 . S
C734 N741 1.356 . S
C735 C734 1.363 . S
C735 C738 1.363 . S
N736 C738 1.356 . S
N736 H748 0.984 . S
N736 H749 0.985 . S
N737 C739 1.356 . S
N737 H742 0.984 . S
N737 H743 0.985 1_565 S
C738 C732 1.379 . S
C738 C735 1.363 . S
C738 N736 1.356 . S
C739 C733 1.363 . S
C739 C734 1.379 . S
C739 N737 1.356 . S
N740 C732 1.356 . S
N740 H746 0.984 . S
N740 H747 0.984 . S
N741 C734 1.356 . S
N741 H744 0.984 . S
N741 H745 0.985 . S
H742 N737 0.984 . S
H743 N737 0.985 1_545 S
H744 N741 0.984 . S
H745 N741 0.985 . S
H746 N740 0.984 . S
H747 N740 0.984 . S
H748 N736 0.984 . S
H749 N736 0.985 . S
C750 C751 1.363 . S
C750 C756 1.379 . S
C750 N758 1.356 . S
C751 C750 1.363 . S
C751 C757 1.363 . S
C752 C753 1.363 . S
C752 C757 1.379 . S
C752 N759 1.356 . S
C753 C752 1.363 . S
C753 C756 1.363 . S
N754 C756 1.356 . S
N754 H766 0.984 . S
N754 H767 0.985 . S
N755 C757 1.356 . S
N755 H760 0.984 . S
N755 H761 0.985 . S
C756 C750 1.379 . S
C756 C753 1.363 . S
C756 N754 1.356 . S
C757 C751 1.363 . S
C757 C752 1.379 . S
C757 N755 1.356 . S
N758 C750 1.356 . S
N758 H764 0.984 . S
N758 H765 0.984 . S
N759 C752 1.356 . S
N759 H762 0.984 . S
N759 H763 0.985 . S
H760 N755 0.984 . S
H761 N755 0.985 . S
H762 N759 0.984 . S
H763 N759 0.985 . S
H764 N758 0.984 . S
H765 N758 0.984 . S
H766 N754 0.984 . S
H767 N754 0.985 . S
C768 C769 1.363 . S
C768 C774 1.379 . S
C768 N776 1.356 . S
C769 C768 1.363 . S
C769 C775 1.363 . S
C770 C771 1.363 . S
C770 C775 1.379 . S
C770 N777 1.356 . S
C771 C770 1.363 . S
C771 C774 1.363 . S
N772 C774 1.356 . S
N772 H784 0.984 . S
N772 H785 0.985 . S
N773 C775 1.356 . S
N773 H778 0.984 . S
N773 H779 0.985 . S
C774 C768 1.379 . S
C774 C771 1.363 . S
C774 N772 1.356 . S
C775 C769 1.363 . S
C775 C770 1.379 . S
C775 N773 1.356 . S
N776 C768 1.356 . S
N776 H782 0.984 . S
N776 H783 0.984 . S
N777 C770 1.356 . S
N777 H780 0.984 . S
N777 H781 0.985 . S
H778 N773 0.984 . S
H779 N773 0.985 . S
H780 N777 0.984 . S
H781 N777 0.985 . S
H782 N776 0.984 . S
H783 N776 0.984 . S
H784 N772 0.984 . S
H785 N772 0.985 . S
C786 C787 1.363 . S
C786 C792 1.379 . S
C786 N794 1.356 . S
C787 C786 1.363 . S
C787 C793 1.363 . S
C788 C789 1.363 . S
C788 C793 1.379 . S
C788 N795 1.356 . S
C789 C788 1.363 . S
C789 C792 1.363 . S
N790 C792 1.356 . S
N790 H802 0.984 . S
N790 H803 0.985 . S
N791 C793 1.356 . S
N791 H796 0.984 . S
N791 H797 0.985 . S
C792 C786 1.379 . S
C792 C789 1.363 . S
C792 N790 1.356 . S
C793 C787 1.363 . S
C793 C788 1.379 . S
C793 N791 1.356 . S
N794 C786 1.356 . S
N794 H800 0.984 . S
N794 H801 0.984 . S
N795 C788 1.356 . S
N795 H798 0.984 . S
N795 H799 0.985 . S
H796 N791 0.984 . S
H797 N791 0.985 . S
H798 N795 0.984 . S
H799 N795 0.985 . S
H800 N794 0.984 . S
H801 N794 0.984 . S
H802 N790 0.984 . S
H803 N790 0.985 . S
C804 C805 1.363 . S
C804 C810 1.379 . S
C804 N812 1.356 . S
C805 C804 1.363 . S
C805 C811 1.363 . S
C806 C807 1.363 . S
C806 C811 1.379 . S
C806 N813 1.356 . S
C807 C806 1.363 . S
C807 C810 1.363 . S
N808 C810 1.356 . S
N808 H820 0.984 . S
N808 H821 0.985 . S
N809 C811 1.356 . S
N809 H814 0.984 . S
N809 H815 0.985 . S
C810 C804 1.379 . S
C810 C807 1.363 . S
C810 N808 1.356 . S
C811 C805 1.363 . S
C811 C806 1.379 . S
C811 N809 1.356 . S
N812 C804 1.356 . S
N812 H818 0.984 . S
N812 H819 0.984 . S
N813 C806 1.356 . S
N813 H816 0.984 . S
N813 H817 0.985 . S
H814 N809 0.984 . S
H815 N809 0.985 . S
H816 N813 0.984 . S
H817 N813 0.985 . S
H818 N812 0.984 . S
H819 N812 0.984 . S
H820 N808 0.984 . S
H821 N808 0.985 . S
C822 C823 1.363 . S
C822 C828 1.379 . S
C822 N830 1.356 . S
C823 C822 1.363 . S
C823 C829 1.363 . S
C824 C825 1.363 . S
C824 C829 1.379 . S
C824 N831 1.356 . S
C825 C824 1.363 . S
C825 C828 1.363 . S
N826 C828 1.356 . S
N826 H838 0.984 . S
N826 H839 0.985 . S
N827 C829 1.356 . S
N827 H832 0.984 . S
N827 H833 0.985 . S
C828 C822 1.379 . S
C828 C825 1.363 . S
C828 N826 1.356 . S
C829 C823 1.363 . S
C829 C824 1.379 . S
C829 N827 1.356 . S
N830 C822 1.356 . S
N830 H836 0.984 . S
N830 H837 0.984 . S
N831 C824 1.356 . S
N831 H834 0.984 . S
N831 H835 0.985 . S
H832 N827 0.984 . S
H833 N827 0.985 . S
H834 N831 0.984 . S
H835 N831 0.985 . S
H836 N830 0.984 . S
H837 N830 0.984 . S
H838 N826 0.984 . S
H839 N826 0.985 . S
C840 C841 1.363 . S
C840 C846 1.379 . S
C840 N848 1.356 . S
C841 C840 1.363 . S
C841 C847 1.363 . S
C842 C843 1.363 . S
C842 C847 1.379 . S
C842 N849 1.356 . S
C843 C842 1.363 . S
C843 C846 1.363 . S
N844 C846 1.356 . S
N844 H856 0.984 . S
N844 H857 0.985 . S
N845 C847 1.356 . S
N845 H850 0.984 . S
N845 H851 0.985 . S
C846 C840 1.379 . S
C846 C843 1.363 . S
C846 N844 1.356 . S
C847 C841 1.363 . S
C847 C842 1.379 . S
C847 N845 1.356 . S
N848 C840 1.356 . S
N848 H854 0.984 . S
N848 H855 0.984 . S
N849 C842 1.356 . S
N849 H852 0.984 . S
N849 H853 0.985 . S
H850 N845 0.984 . S
H851 N845 0.985 . S
H852 N849 0.984 . S
H853 N849 0.985 . S
H854 N848 0.984 . S
H855 N848 0.984 . S
H856 N844 0.984 . S
H857 N844 0.985 . S
C858 C859 1.363 . S
C858 C864 1.379 . S
C858 N866 1.356 . S
C859 C858 1.363 . S
C859 C865 1.363 . S
C860 C861 1.363 . S
C860 C865 1.379 . S
C860 N867 1.356 . S
C861 C860 1.363 . S
C861 C864 1.363 . S
N862 C864 1.356 . S
N862 H874 0.984 . S
N862 H875 0.985 . S
N863 C865 1.356 . S
N863 H868 0.984 . S
N863 H869 0.985 . S
C864 C858 1.379 . S
C864 C861 1.363 . S
C864 N862 1.356 . S
C865 C859 1.363 . S
C865 C860 1.379 . S
C865 N863 1.356 . S
N866 C858 1.356 . S
N866 H872 0.984 . S
N866 H873 0.984 . S
N867 C860 1.356 . S
N867 H870 0.984 . S
N867 H871 0.985 . S
H868 N863 0.984 . S
H869 N863 0.985 . S
H870 N867 0.984 . S
H871 N867 0.985 . S
H872 N866 0.984 . S
H873 N866 0.984 . S
H874 N862 0.984 . S
H875 N862 0.985 . S
C876 C877 1.363 . S
C876 C882 1.379 . S
C876 N884 1.356 . S
C877 C876 1.363 . S
C877 C883 1.363 . S
C878 C879 1.363 . S
C878 C883 1.379 . S
C878 N885 1.356 . S
C879 C878 1.363 . S
C879 C882 1.363 . S
N880 C882 1.356 . S
N880 H892 0.984 . S
N880 H893 0.985 . S
N881 C883 1.356 . S
N881 H886 0.984 . S
N881 H887 0.985 . S
C882 C876 1.379 . S
C882 C879 1.363 . S
C882 N880 1.356 . S
C883 C877 1.363 . S
C883 C878 1.379 . S
C883 N881 1.356 . S
N884 C876 1.356 . S
N884 H890 0.984 . S
N884 H891 0.984 . S
N885 C878 1.356 . S
N885 H888 0.984 . S
N885 H889 0.985 . S
H886 N881 0.984 . S
H887 N881 0.985 . S
H888 N885 0.984 . S
H889 N885 0.985 . S
H890 N884 0.984 . S
H891 N884 0.984 . S
H892 N880 0.984 . S
H893 N880 0.985 . S
C894 C895 1.348 1_655 S
C894 C900 1.376 1_655 S
C894 N902 1.370 . S
C895 C894 1.348 1_455 S
C895 C901 1.363 . S
C896 C897 1.363 . S
C896 C901 1.379 . S
C896 N903 1.356 . S
C897 C896 1.363 . S
C897 C900 1.390 . S
N898 C900 1.338 1_655 S
N898 H910 0.984 . S
N898 H911 0.985 . S
N899 C901 1.356 . S
N899 H904 0.984 . S
N899 H905 0.985 . S
C900 C894 1.376 1_455 S
C900 C897 1.390 . S
C900 N898 1.338 1_455 S
C901 C895 1.363 . S
C901 C896 1.379 . S
C901 N899 1.356 . S
N902 C894 1.370 . S
N902 H908 0.984 . S
N902 H909 0.984 . S
N903 C896 1.356 . S
N903 H906 0.984 . S
N903 H907 0.985 . S
H904 N899 0.984 . S
H905 N899 0.985 . S
H906 N903 0.984 . S
H907 N903 0.985 . S
H908 N902 0.984 . S
H909 N902 0.984 . S
H910 N898 0.984 . S
H911 N898 0.985 . S
C912 C913 1.363 . S
C912 C918 1.379 . S
C912 N920 1.356 . S
C913 C912 1.363 . S
C913 C919 1.363 . S
C914 C915 1.363 . S
C914 C919 1.379 . S
C914 N921 1.356 . S
C915 C914 1.363 . S
C915 C918 1.363 . S
N916 C918 1.356 . S
N916 H928 0.984 . S
N916 H929 0.985 . S
N917 C919 1.356 . S
N917 H922 0.984 . S
N917 H923 0.985 . S
C918 C912 1.379 . S
C918 C915 1.363 . S
C918 N916 1.356 . S
C919 C913 1.363 . S
C919 C914 1.379 . S
C919 N917 1.356 . S
N920 C912 1.356 . S
N920 H926 0.984 . S
N920 H927 0.984 . S
N921 C914 1.356 . S
N921 H924 0.984 . S
N921 H925 0.985 . S
H922 N917 0.984 . S
H923 N917 0.985 . S
H924 N921 0.984 . S
H925 N921 0.985 . S
H926 N920 0.984 . S
H927 N920 0.984 . S
H928 N916 0.984 . S
H929 N916 0.985 . S
C930 C931 1.363 . S
C930 C936 1.379 . S
C930 N938 1.356 . S
C931 C930 1.363 . S
C931 C937 1.363 . S
C932 C933 1.363 . S
C932 C937 1.379 . S
C932 N939 1.356 . S
C933 C932 1.363 . S
C933 C936 1.363 . S
N934 C936 1.356 . S
N934 H946 0.984 . S
N934 H947 0.985 . S
N935 C937 1.356 . S
N935 H940 0.984 . S
N935 H941 0.985 . S
C936 C930 1.379 . S
C936 C933 1.363 . S
C936 N934 1.356 . S
C937 C931 1.363 . S
C937 C932 1.379 . S
C937 N935 1.356 . S
N938 C930 1.356 . S
N938 H944 0.984 . S
N938 H945 0.984 . S
N939 C932 1.356 . S
N939 H942 0.984 . S
N939 H943 0.985 . S
H940 N935 0.984 . S
H941 N935 0.985 . S
H942 N939 0.984 . S
H943 N939 0.985 . S
H944 N938 0.984 . S
H945 N938 0.984 . S
H946 N934 0.984 . S
H947 N934 0.985 . S
C948 C949 1.363 . S
C948 C954 1.379 . S
C948 N956 1.356 . S
C949 C948 1.363 . S
C949 C955 1.363 . S
C950 C951 1.363 . S
C950 C955 1.379 . S
C950 N957 1.356 1_556 S
C951 C950 1.363 . S
C951 C954 1.363 . S
N952 C954 1.356 . S
N952 H964 0.984 . S
N952 H965 0.985 . S
N953 C955 1.356 . S
N953 H958 0.984 . S
N953 H959 0.985 1_556 S
C954 C948 1.379 . S
C954 C951 1.363 . S
C954 N952 1.356 . S
C955 C949 1.363 . S
C955 C950 1.379 . S
C955 N953 1.356 . S
N956 C948 1.356 . S
N956 H962 0.984 . S
N956 H963 0.984 . S
N957 C950 1.356 1_554 S
N957 H960 0.984 . S
N957 H961 0.985 . S
H958 N953 0.984 . S
H959 N953 0.985 1_554 S
H960 N957 0.984 . S
H961 N957 0.985 . S
H962 N956 0.984 . S
H963 N956 0.984 . S
H964 N952 0.984 . S
H965 N952 0.985 . S
C966 C967 1.363 . S
C966 C972 1.379 . S
C966 N974 1.356 . S
C967 C966 1.363 . S
C967 C973 1.363 . S
C968 C969 1.363 . S
C968 C973 1.379 . S
C968 N975 1.356 . S
C969 C968 1.363 . S
C969 C972 1.363 . S
N970 C972 1.356 . S
N970 H982 0.984 . S
N970 H983 0.985 . S
N971 C973 1.356 . S
N971 H976 0.984 . S
N971 H977 0.985 . S
C972 C966 1.379 . S
C972 C969 1.363 . S
C972 N970 1.356 . S
C973 C967 1.363 . S
C973 C968 1.379 . S
C973 N971 1.356 . S
N974 C966 1.356 . S
N974 H980 0.984 . S
N974 H981 0.984 . S
N975 C968 1.356 . S
N975 H978 0.984 . S
N975 H979 0.985 . S
H976 N971 0.984 . S
H977 N971 0.985 . S
H978 N975 0.984 . S
H979 N975 0.985 . S
H980 N974 0.984 . S
H981 N974 0.984 . S
H982 N970 0.984 . S
H983 N970 0.985 . S
C984 C985 1.363 . S
C984 C990 1.379 . S
C984 N992 1.369 . S
C985 C984 1.363 . S
C985 C991 1.363 . S
C986 C987 1.363 . S
C986 C991 1.379 . S
C986 N993 1.356 . S
C987 C986 1.363 . S
C987 C990 1.363 . S
N988 C990 1.356 . S
N988 H1000 0.984 . S
N988 H1001 0.985 . S
N989 C991 1.356 . S
N989 H994 0.984 . S
N989 H995 0.985 . S
C990 C984 1.379 . S
C990 C987 1.363 . S
C990 N988 1.356 . S
C991 C985 1.363 . S
C991 C986 1.379 . S
C991 N989 1.356 . S
N992 C984 1.369 . S
N992 H998 0.974 1_455 S
N992 H999 0.983 1_455 S
N993 C986 1.356 . S
N993 H996 0.984 . S
N993 H997 0.985 . S
H994 N989 0.984 . S
H995 N989 0.985 . S
H996 N993 0.984 . S
H997 N993 0.985 . S
H998 N992 0.974 1_655 S
H999 N992 0.983 1_655 S
H1000 N988 0.984 . S
H1001 N988 0.985 . S
C1002 C1003 1.363 . S
C1002 C1008 1.379 . S
C1002 N1010 1.356 . S
C1003 C1002 1.363 . S
C1003 C1009 1.363 . S
C1004 C1005 1.363 . S
C1004 C1009 1.379 . S
C1004 N1011 1.356 . S
C1005 C1004 1.363 . S
C1005 C1008 1.363 . S
N1006 C1008 1.356 . S
N1006 H1018 0.984 . S
N1006 H1019 0.985 . S
N1007 C1009 1.356 . S
N1007 H1012 0.984 . S
N1007 H1013 0.985 . S
C1008 C1002 1.379 . S
C1008 C1005 1.363 . S
C1008 N1006 1.356 . S
C1009 C1003 1.363 . S
C1009 C1004 1.379 . S
C1009 N1007 1.356 . S
N1010 C1002 1.356 . S
N1010 H1016 0.984 . S
N1010 H1017 0.984 . S
N1011 C1004 1.356 . S
N1011 H1014 0.984 . S
N1011 H1015 0.985 . S
H1012 N1007 0.984 . S
H1013 N1007 0.985 . S
H1014 N1011 0.984 . S
H1015 N1011 0.985 . S
H1016 N1010 0.984 . S
H1017 N1010 0.984 . S
H1018 N1006 0.984 . S
H1019 N1006 0.985 . S
C1020 C1021 1.363 . S
C1020 C1026 1.379 . S
C1020 N1028 1.356 . S
C1021 C1020 1.363 . S
C1021 C1027 1.363 . S
C1022 C1023 1.363 . S
C1022 C1027 1.379 . S
C1022 N1029 1.356 . S
C1023 C1022 1.363 . S
C1023 C1026 1.363 . S
N1024 C1026 1.356 . S
N1024 H1036 0.984 . S
N1024 H1037 0.985 . S
N1025 C1027 1.356 . S
N1025 H1030 0.984 . S
N1025 H1031 0.985 . S
C1026 C1020 1.379 . S
C1026 C1023 1.363 . S
C1026 N1024 1.356 . S
C1027 C1021 1.363 . S
C1027 C1022 1.379 . S
C1027 N1025 1.356 . S
N1028 C1020 1.356 . S
N1028 H1034 0.984 . S
N1028 H1035 0.984 . S
N1029 C1022 1.356 . S
N1029 H1032 0.984 . S
N1029 H1033 0.985 . S
H1030 N1025 0.984 . S
H1031 N1025 0.985 . S
H1032 N1029 0.984 . S
H1033 N1029 0.985 . S
H1034 N1028 0.984 . S
H1035 N1028 0.984 . S
H1036 N1024 0.984 . S
H1037 N1024 0.985 . S
C1038 C1039 1.363 . S
C1038 C1044 1.379 . S
C1038 N1046 1.356 . S
C1039 C1038 1.363 . S
C1039 C1045 1.363 . S
C1040 C1041 1.363 . S
C1040 C1045 1.379 . S
C1040 N1047 1.356 . S
C1041 C1040 1.363 . S
C1041 C1044 1.363 . S
N1042 C1044 1.356 . S
N1042 H1054 0.984 . S
N1042 H1055 0.985 . S
N1043 C1045 1.356 . S
N1043 H1048 0.984 . S
N1043 H1049 0.985 . S
C1044 C1038 1.379 . S
C1044 C1041 1.363 . S
C1044 N1042 1.356 . S
C1045 C1039 1.363 . S
C1045 C1040 1.379 . S
C1045 N1043 1.356 . S
N1046 C1038 1.356 . S
N1046 H1052 0.984 . S
N1046 H1053 0.984 . S
N1047 C1040 1.356 . S
N1047 H1050 0.984 . S
N1047 H1051 0.985 . S
H1048 N1043 0.984 . S
H1049 N1043 0.985 . S
H1050 N1047 0.984 . S
H1051 N1047 0.985 . S
H1052 N1046 0.984 . S
H1053 N1046 0.984 . S
H1054 N1042 0.984 . S
H1055 N1042 0.985 . S
C1056 C1057 1.363 . S
C1056 C1062 1.379 . S
C1056 N1064 1.356 . S
C1057 C1056 1.363 . S
C1057 C1063 1.363 . S
C1058 C1059 1.363 . S
C1058 C1063 1.379 . S
C1058 N1065 1.356 1_545 S
C1059 C1058 1.363 . S
C1059 C1062 1.363 . S
N1060 C1062 1.356 . S
N1060 H1072 0.984 . S
N1060 H1073 0.985 . S
N1061 C1063 1.356 1_565 S
N1061 H1066 0.984 1_565 S
N1061 H1067 0.985 . S
C1062 C1056 1.379 . S
C1062 C1059 1.363 . S
C1062 N1060 1.356 . S
C1063 C1057 1.363 . S
C1063 C1058 1.379 . S
C1063 N1061 1.356 1_545 S
N1064 C1056 1.356 . S
N1064 H1070 0.984 . S
N1064 H1071 0.984 . S
N1065 C1058 1.356 1_565 S
N1065 H1068 0.984 . S
N1065 H1069 0.985 . S
H1066 N1061 0.984 1_545 S
H1067 N1061 0.985 . S
H1068 N1065 0.984 . S
H1069 N1065 0.985 . S
H1070 N1064 0.984 . S
H1071 N1064 0.984 . S
H1072 N1060 0.984 . S
H1073 N1060 0.985 . S
C1074 C1075 1.363 . S
C1074 C1080 1.379 . S
C1074 N1082 1.356 . S
C1075 C1074 1.363 . S
C1075 C1081 1.363 . S
C1076 C1077 1.363 . S
C1076 C1081 1.379 . S
C1076 N1083 1.356 . S
C1077 C1076 1.363 . S
C1077 C1080 1.363 . S
N1078 C1080 1.356 . S
N1078 H1090 0.984 . S
N1078 H1091 0.985 . S
N1079 C1081 1.356 . S
N1079 H1084 0.984 . S
N1079 H1085 0.985 . S
C1080 C1074 1.379 . S
C1080 C1077 1.363 . S
C1080 N1078 1.356 . S
C1081 C1075 1.363 . S
C1081 C1076 1.379 . S
C1081 N1079 1.356 . S
N1082 C1074 1.356 . S
N1082 H1088 0.984 . S
N1082 H1089 0.984 . S
N1083 C1076 1.356 . S
N1083 H1086 0.984 . S
N1083 H1087 0.985 . S
H1084 N1079 0.984 . S
H1085 N1079 0.985 . S
H1086 N1083 0.984 . S
H1087 N1083 0.985 . S
H1088 N1082 0.984 . S
H1089 N1082 0.984 . S
H1090 N1078 0.984 . S
H1091 N1078 0.985 . S
C1092 C1093 1.363 . S
C1092 C1098 1.379 . S
C1092 N1100 1.356 1_565 S
C1093 C1092 1.363 . S
C1093 C1099 1.363 . S
C1094 C1095 1.363 . S
C1094 C1099 1.379 . S
C1094 N1101 1.356 . S
C1095 C1094 1.363 . S
C1095 C1098 1.363 . S
N1096 C1098 1.356 1_545 S
N1096 H1108 0.984 . S
N1096 H1109 0.985 . S
N1097 C1099 1.356 . S
N1097 H1102 0.984 . S
N1097 H1103 0.985 . S
C1098 C1092 1.379 . S
C1098 C1095 1.363 . S
C1098 N1096 1.356 1_565 S
C1099 C1093 1.363 . S
C1099 C1094 1.379 . S
C1099 N1097 1.356 . S
N1100 C1092 1.356 1_545 S
N1100 H1106 0.984 . S
N1100 H1107 0.972 1_545 S
N1101 C1094 1.356 . S
N1101 H1104 0.984 . S
N1101 H1105 0.985 . S
H1102 N1097 0.984 . S
H1103 N1097 0.985 . S
H1104 N1101 0.984 . S
H1105 N1101 0.985 . S
H1106 N1100 0.984 . S
H1107 N1100 0.972 1_565 S
H1108 N1096 0.984 . S
H1109 N1096 0.985 . S
C1110 C1111 1.363 . S
C1110 C1116 1.379 . S
C1110 N1118 1.356 . S
C1111 C1110 1.363 . S
C1111 C1117 1.363 . S
C1112 C1113 1.363 . S
C1112 C1117 1.379 . S
C1112 N1119 1.356 . S
C1113 C1112 1.363 . S
C1113 C1116 1.363 . S
N1114 C1116 1.356 . S
N1114 H1126 0.984 1_565 S
N1114 H1127 0.985 . S
N1115 C1117 1.356 . S
N1115 H1120 0.984 . S
N1115 H1121 0.985 . S
C1116 C1110 1.379 . S
C1116 C1113 1.363 . S
C1116 N1114 1.356 . S
C1117 C1111 1.363 . S
C1117 C1112 1.379 . S
C1117 N1115 1.356 . S
N1118 C1110 1.356 . S
N1118 H1124 0.984 1_565 S
N1118 H1125 0.984 . S
N1119 C1112 1.356 . S
N1119 H1122 0.984 . S
N1119 H1123 0.985 . S
H1120 N1115 0.984 . S
H1121 N1115 0.985 . S
H1122 N1119 0.984 . S
H1123 N1119 0.985 . S
H1124 N1118 0.984 1_545 S
H1125 N1118 0.984 . S
H1126 N1114 0.984 1_545 S
H1127 N1114 0.985 . S
C1128 C1129 1.363 . S
C1128 C1134 1.379 . S
C1128 N1136 1.356 . S
C1129 C1128 1.363 . S
C1129 C1135 1.363 . S
C1130 C1131 1.363 . S
C1130 C1135 1.379 . S
C1130 N1137 1.356 . S
C1131 C1130 1.363 . S
C1131 C1134 1.363 . S
N1132 C1134 1.356 . S
N1132 H1144 0.984 . S
N1132 H1145 0.985 . S
N1133 C1135 1.356 . S
N1133 H1138 0.984 . S
N1133 H1139 0.985 . S
C1134 C1128 1.379 . S
C1134 C1131 1.363 . S
C1134 N1132 1.356 . S
C1135 C1129 1.363 . S
C1135 C1130 1.379 . S
C1135 N1133 1.356 . S
N1136 C1128 1.356 . S
N1136 H1142 0.984 . S
N1136 H1143 0.984 . S
N1137 C1130 1.356 . S
N1137 H1140 0.984 . S
N1137 H1141 0.985 . S
H1138 N1133 0.984 . S
H1139 N1133 0.985 . S
H1140 N1137 0.984 . S
H1141 N1137 0.985 . S
H1142 N1136 0.984 . S
H1143 N1136 0.984 . S
H1144 N1132 0.984 . S
H1145 N1132 0.985 . S
C1146 C1147 1.363 . S
C1146 C1152 1.379 . S
C1146 N1154 1.356 . S
C1147 C1146 1.363 . S
C1147 C1153 1.363 . S
C1148 C1149 1.363 . S
C1148 C1153 1.379 . S
C1148 N1155 1.356 . S
C1149 C1148 1.363 . S
C1149 C1152 1.363 . S
N1150 C1152 1.356 . S
N1150 H1162 0.984 . S
N1150 H1163 0.985 . S
N1151 C1153 1.356 . S
N1151 H1156 0.984 . S
N1151 H1157 0.985 . S
C1152 C1146 1.379 . S
C1152 C1149 1.363 . S
C1152 N1150 1.356 . S
C1153 C1147 1.363 . S
C1153 C1148 1.379 . S
C1153 N1151 1.356 . S
N1154 C1146 1.356 . S
N1154 H1160 0.984 . S
N1154 H1161 0.984 . S
N1155 C1148 1.356 . S
N1155 H1158 0.984 . S
N1155 H1159 0.985 . S
H1156 N1151 0.984 . S
H1157 N1151 0.985 . S
H1158 N1155 0.984 . S
H1159 N1155 0.985 . S
H1160 N1154 0.984 . S
H1161 N1154 0.984 . S
H1162 N1150 0.984 . S
H1163 N1150 0.985 . S
C1164 C1165 1.363 . S
C1164 C1170 1.379 . S
C1164 N1172 1.356 . S
C1165 C1164 1.363 . S
C1165 C1171 1.363 . S
C1166 C1167 1.363 . S
C1166 C1171 1.379 . S
C1166 N1173 1.356 . S
C1167 C1166 1.363 . S
C1167 C1170 1.363 . S
N1168 C1170 1.356 . S
N1168 H1180 0.984 . S
N1168 H1181 0.985 . S
N1169 C1171 1.356 . S
N1169 H1174 0.984 . S
N1169 H1175 0.985 . S
C1170 C1164 1.379 . S
C1170 C1167 1.363 . S
C1170 N1168 1.356 . S
C1171 C1165 1.363 . S
C1171 C1166 1.379 . S
C1171 N1169 1.356 . S
N1172 C1164 1.356 . S
N1172 H1178 0.984 . S
N1172 H1179 0.984 . S
N1173 C1166 1.356 . S
N1173 H1176 0.984 . S
N1173 H1177 0.985 . S
H1174 N1169 0.984 . S
H1175 N1169 0.985 . S
H1176 N1173 0.984 . S
H1177 N1173 0.985 . S
H1178 N1172 0.984 . S
H1179 N1172 0.984 . S
H1180 N1168 0.984 . S
H1181 N1168 0.985 . S
C1182 C1183 1.363 . S
C1182 C1188 1.379 . S
C1182 N1190 1.356 . S
C1183 C1182 1.363 . S
C1183 C1189 1.363 . S
C1184 C1185 1.363 . S
C1184 C1189 1.379 . S
C1184 N1191 1.356 . S
C1185 C1184 1.363 . S
C1185 C1188 1.363 . S
N1186 C1188 1.356 . S
N1186 H1198 0.984 . S
N1186 H1199 0.985 . S
N1187 C1189 1.356 . S
N1187 H1192 0.984 . S
N1187 H1193 0.985 . S
C1188 C1182 1.379 . S
C1188 C1185 1.363 . S
C1188 N1186 1.356 . S
C1189 C1183 1.363 . S
C1189 C1184 1.379 . S
C1189 N1187 1.356 . S
N1190 C1182 1.356 . S
N1190 H1196 0.984 . S
N1190 H1197 0.984 . S
N1191 C1184 1.356 . S
N1191 H1194 0.984 . S
N1191 H1195 0.985 . S
H1192 N1187 0.984 . S
H1193 N1187 0.985 . S
H1194 N1191 0.984 . S
H1195 N1191 0.985 . S
H1196 N1190 0.984 . S
H1197 N1190 0.984 . S
H1198 N1186 0.984 . S
H1199 N1186 0.985 . S
C1200 C1201 1.363 . S
C1200 C1206 1.379 . S
C1200 N1208 1.356 . S
C1201 C1200 1.363 . S
C1201 C1207 1.363 . S
C1202 C1203 1.363 . S
C1202 C1207 1.379 . S
C1202 N1209 1.356 . S
C1203 C1202 1.363 . S
C1203 C1206 1.363 . S
N1204 C1206 1.356 . S
N1204 H1216 0.984 . S
N1204 H1217 0.985 . S
N1205 C1207 1.356 . S
N1205 H1210 0.984 . S
N1205 H1211 0.985 . S
C1206 C1200 1.379 . S
C1206 C1203 1.363 . S
C1206 N1204 1.356 . S
C1207 C1201 1.363 . S
C1207 C1202 1.379 . S
C1207 N1205 1.356 . S
N1208 C1200 1.356 . S
N1208 H1214 0.984 . S
N1208 H1215 0.984 . S
N1209 C1202 1.356 . S
N1209 H1212 0.984 . S
N1209 H1213 0.985 . S
H1210 N1205 0.984 . S
H1211 N1205 0.985 . S
H1212 N1209 0.984 . S
H1213 N1209 0.985 . S
H1214 N1208 0.984 . S
H1215 N1208 0.984 . S
H1216 N1204 0.984 . S
H1217 N1204 0.985 . S
C1218 C1219 1.363 . S
C1218 C1224 1.379 . S
C1218 N1226 1.356 . S
C1219 C1218 1.363 . S
C1219 C1225 1.363 . S
C1220 C1221 1.363 . S
C1220 C1225 1.379 . S
C1220 N1227 1.356 . S
C1221 C1220 1.363 . S
C1221 C1224 1.363 . S
N1222 C1224 1.356 . S
N1222 H1234 0.984 1_655 S
N1222 H1235 0.985 . S
N1223 C1225 1.356 . S
N1223 H1228 0.984 . S
N1223 H1229 0.985 . S
C1224 C1218 1.379 . S
C1224 C1221 1.363 . S
C1224 N1222 1.356 . S
C1225 C1219 1.363 . S
C1225 C1220 1.379 . S
C1225 N1223 1.356 . S
N1226 C1218 1.356 . S
N1226 H1232 0.984 . S
N1226 H1233 0.984 . S
N1227 C1220 1.356 . S
N1227 H1230 0.984 . S
N1227 H1231 0.985 . S
H1228 N1223 0.984 . S
H1229 N1223 0.985 . S
H1230 N1227 0.984 . S
H1231 N1227 0.985 . S
H1232 N1226 0.984 . S
H1233 N1226 0.984 . S
H1234 N1222 0.984 1_455 S
H1235 N1222 0.985 . S
C1236 C1237 1.363 . S
C1236 C1242 1.379 . S
C1236 N1244 1.356 . S
C1237 C1236 1.363 . S
C1237 C1243 1.363 . S
C1238 C1239 1.363 . S
C1238 C1243 1.379 . S
C1238 N1245 1.356 . S
C1239 C1238 1.363 . S
C1239 C1242 1.363 . S
N1240 C1242 1.356 . S
N1240 H1252 0.984 . S
N1240 H1253 0.985 . S
N1241 C1243 1.356 . S
N1241 H1246 0.984 . S
N1241 H1247 0.985 . S
C1242 C1236 1.379 . S
C1242 C1239 1.363 . S
C1242 N1240 1.356 . S
C1243 C1237 1.363 . S
C1243 C1238 1.379 . S
C1243 N1241 1.356 . S
N1244 C1236 1.356 . S
N1244 H1250 0.984 . S
N1244 H1251 0.984 . S
N1245 C1238 1.356 . S
N1245 H1248 0.984 . S
N1245 H1249 0.985 . S
H1246 N1241 0.984 . S
H1247 N1241 0.985 . S
H1248 N1245 0.984 . S
H1249 N1245 0.985 . S
H1250 N1244 0.984 . S
H1251 N1244 0.984 . S
H1252 N1240 0.984 . S
H1253 N1240 0.985 . S
C1254 C1255 1.363 . S
C1254 C1260 1.379 . S
C1254 N1262 1.356 . S
C1255 C1254 1.363 . S
C1255 C1261 1.363 . S
C1256 C1257 1.363 . S
C1256 C1261 1.379 . S
C1256 N1263 1.356 . S
C1257 C1256 1.363 . S
C1257 C1260 1.363 . S
N1258 C1260 1.356 . S
N1258 H1270 0.984 . S
N1258 H1271 0.985 . S
N1259 C1261 1.356 . S
N1259 H1264 0.984 . S
N1259 H1265 0.985 . S
C1260 C1254 1.379 . S
C1260 C1257 1.363 . S
C1260 N1258 1.356 . S
C1261 C1255 1.363 . S
C1261 C1256 1.379 . S
C1261 N1259 1.356 . S
N1262 C1254 1.356 . S
N1262 H1268 0.984 . S
N1262 H1269 0.984 . S
N1263 C1256 1.356 . S
N1263 H1266 0.984 . S
N1263 H1267 0.985 . S
H1264 N1259 0.984 . S
H1265 N1259 0.985 . S
H1266 N1263 0.984 . S
H1267 N1263 0.985 . S
H1268 N1262 0.984 . S
H1269 N1262 0.984 . S
H1270 N1258 0.984 . S
H1271 N1258 0.985 . S
C1272 C1273 1.363 . S
C1272 C1278 1.379 . S
C1272 N1280 1.356 . S
C1273 C1272 1.363 . S
C1273 C1279 1.363 . S
C1274 C1275 1.363 . S
C1274 C1279 1.379 . S
C1274 N1281 1.356 . S
C1275 C1274 1.363 . S
C1275 C1278 1.363 . S
N1276 C1278 1.356 . S
N1276 H1288 0.984 1_556 S
N1276 H1289 0.985 . S
N1277 C1279 1.356 . S
N1277 H1282 0.984 . S
N1277 H1283 0.985 . S
C1278 C1272 1.379 . S
C1278 C1275 1.363 . S
C1278 N1276 1.356 . S
C1279 C1273 1.363 . S
C1279 C1274 1.379 . S
C1279 N1277 1.356 . S
N1280 C1272 1.356 . S
N1280 H1286 0.995 . S
N1280 H1287 0.984 . S
N1281 C1274 1.356 . S
N1281 H1284 0.984 . S
N1281 H1285 0.985 . S
H1282 N1277 0.984 . S
H1283 N1277 0.985 . S
H1284 N1281 0.984 . S
H1285 N1281 0.985 . S
H1286 N1280 0.995 . S
H1287 N1280 0.984 . S
H1288 N1276 0.984 1_554 S
H1289 N1276 0.985 . S
C1290 C1291 1.363 . S
C1290 C1296 1.379 . S
C1290 N1298 1.356 . S
C1291 C1290 1.363 . S
C1291 C1297 1.363 . S
C1292 C1293 1.363 . S
C1292 C1297 1.379 . S
C1292 N1299 1.356 . S
C1293 C1292 1.363 . S
C1293 C1296 1.363 . S
N1294 C1296 1.356 1_455 S
N1294 H1306 0.984 . S
N1294 H1307 0.985 . S
N1295 C1297 1.356 . S
N1295 H1300 0.984 . S
N1295 H1301 0.985 . S
C1296 C1290 1.379 . S
C1296 C1293 1.363 . S
C1296 N1294 1.356 1_655 S
C1297 C1291 1.363 . S
C1297 C1292 1.379 . S
C1297 N1295 1.356 . S
N1298 C1290 1.356 . S
N1298 H1304 0.984 1_655 S
N1298 H1305 0.984 . S
N1299 C1292 1.356 . S
N1299 H1302 0.984 . S
N1299 H1303 0.985 . S
H1300 N1295 0.984 . S
H1301 N1295 0.985 . S
H1302 N1299 0.984 . S
H1303 N1299 0.985 . S
H1304 N1298 0.984 1_455 S
H1305 N1298 0.984 . S
H1306 N1294 0.984 . S
H1307 N1294 0.985 . S
C1308 C1309 1.363 . S
C1308 C1314 1.379 . S
C1308 N1316 1.356 . S
C1309 C1308 1.363 . S
C1309 C1315 1.363 . S
C1310 C1311 1.363 . S
C1310 C1315 1.379 . S
C1310 N1317 1.356 . S
C1311 C1310 1.363 . S
C1311 C1314 1.363 . S
N1312 C1314 1.356 . S
N1312 H1324 0.984 . S
N1312 H1325 0.985 . S
N1313 C1315 1.356 . S
N1313 H1318 0.984 . S
N1313 H1319 0.985 . S
C1314 C1308 1.379 . S
C1314 C1311 1.363 . S
C1314 N1312 1.356 . S
C1315 C1309 1.363 . S
C1315 C1310 1.379 . S
C1315 N1313 1.356 . S
N1316 C1308 1.356 . S
N1316 H1322 0.984 . S
N1316 H1323 0.984 . S
N1317 C1310 1.356 . S
N1317 H1320 0.984 . S
N1317 H1321 0.985 . S
H1318 N1313 0.984 . S
H1319 N1313 0.985 . S
H1320 N1317 0.984 . S
H1321 N1317 0.985 . S
H1322 N1316 0.984 . S
H1323 N1316 0.984 . S
H1324 N1312 0.984 . S
H1325 N1312 0.985 . S
C1326 C1327 1.363 . S
C1326 C1332 1.379 . S
C1326 N1334 1.356 . S
C1327 C1326 1.363 . S
C1327 C1333 1.363 . S
C1328 C1329 1.363 . S
C1328 C1333 1.379 . S
C1328 N1335 1.356 . S
C1329 C1328 1.363 . S
C1329 C1332 1.363 . S
N1330 C1332 1.356 . S
N1330 H1342 0.984 . S
N1330 H1343 0.985 . S
N1331 C1333 1.356 . S
N1331 H1336 0.984 . S
N1331 H1337 0.985 . S
C1332 C1326 1.379 . S
C1332 C1329 1.363 . S
C1332 N1330 1.356 . S
C1333 C1327 1.363 . S
C1333 C1328 1.379 . S
C1333 N1331 1.356 . S
N1334 C1326 1.356 . S
N1334 H1340 0.984 . S
N1334 H1341 0.984 . S
N1335 C1328 1.356 . S
N1335 H1338 0.984 . S
N1335 H1339 0.985 . S
H1336 N1331 0.984 . S
H1337 N1331 0.985 . S
H1338 N1335 0.984 . S
H1339 N1335 0.985 . S
H1340 N1334 0.984 . S
H1341 N1334 0.984 . S
H1342 N1330 0.984 . S
H1343 N1330 0.985 . S
C1344 C1345 1.363 . S
C1344 C1350 1.379 . S
C1344 N1352 1.356 . S
C1345 C1344 1.363 . S
C1345 C1351 1.363 . S
C1346 C1347 1.363 . S
C1346 C1351 1.379 . S
C1346 N1353 1.356 . S
C1347 C1346 1.363 . S
C1347 C1350 1.363 . S
N1348 C1350 1.356 . S
N1348 H1360 0.984 . S
N1348 H1361 0.985 . S
N1349 C1351 1.356 . S
N1349 H1354 0.984 . S
N1349 H1355 0.985 . S
C1350 C1344 1.379 . S
C1350 C1347 1.363 . S
C1350 N1348 1.356 . S
C1351 C1345 1.363 . S
C1351 C1346 1.379 . S
C1351 N1349 1.356 . S
N1352 C1344 1.356 . S
N1352 H1358 0.984 . S
N1352 H1359 0.984 . S
N1353 C1346 1.356 . S
N1353 H1356 0.984 . S
N1353 H1357 0.985 . S
H1354 N1349 0.984 . S
H1355 N1349 0.985 . S
H1356 N1353 0.984 . S
H1357 N1353 0.985 . S
H1358 N1352 0.984 . S
H1359 N1352 0.984 . S
H1360 N1348 0.984 . S
H1361 N1348 0.985 . S
C1362 C1363 1.363 . S
C1362 C1368 1.379 . S
C1362 N1370 1.356 . S
C1363 C1362 1.363 . S
C1363 C1369 1.363 . S
C1364 C1365 1.363 . S
C1364 C1369 1.379 . S
C1364 N1371 1.356 . S
C1365 C1364 1.363 . S
C1365 C1368 1.363 . S
N1366 C1368 1.356 . S
N1366 H1378 0.984 . S
N1366 H1379 0.985 . S
N1367 C1369 1.356 . S
N1367 H1372 0.984 . S
N1367 H1373 0.985 . S
C1368 C1362 1.379 . S
C1368 C1365 1.363 . S
C1368 N1366 1.356 . S
C1369 C1363 1.363 . S
C1369 C1364 1.379 . S
C1369 N1367 1.356 . S
N1370 C1362 1.356 . S
N1370 H1376 0.984 . S
N1370 H1377 0.984 . S
N1371 C1364 1.356 . S
N1371 H1374 0.984 . S
N1371 H1375 0.985 . S
H1372 N1367 0.984 . S
H1373 N1367 0.985 . S
H1374 N1371 0.984 . S
H1375 N1371 0.985 . S
H1376 N1370 0.984 . S
H1377 N1370 0.984 . S
H1378 N1366 0.984 . S
H1379 N1366 0.985 . S
C1380 C1381 1.363 . S
C1380 C1386 1.379 . S
C1380 N1388 1.356 . S
C1381 C1380 1.363 . S
C1381 C1387 1.363 . S
C1382 C1383 1.363 . S
C1382 C1387 1.379 . S
C1382 N1389 1.356 . S
C1383 C1382 1.363 . S
C1383 C1386 1.363 . S
N1384 C1386 1.356 . S
N1384 H1396 0.984 . S
N1384 H1397 0.985 . S
N1385 C1387 1.356 . S
N1385 H1390 0.984 . S
N1385 H1391 0.985 . S
C1386 C1380 1.379 . S
C1386 C1383 1.363 . S
C1386 N1384 1.356 . S
C1387 C1381 1.363 . S
C1387 C1382 1.379 . S
C1387 N1385 1.356 . S
N1388 C1380 1.356 . S
N1388 H1394 0.984 . S
N1388 H1395 0.984 . S
N1389 C1382 1.356 . S
N1389 H1392 0.984 . S
N1389 H1393 0.985 . S
H1390 N1385 0.984 . S
H1391 N1385 0.985 . S
H1392 N1389 0.984 . S
H1393 N1389 0.985 . S
H1394 N1388 0.984 . S
H1395 N1388 0.984 . S
H1396 N1384 0.984 . S
H1397 N1384 0.985 . S
C1398 C1399 1.363 . S
C1398 C1404 1.379 . S
C1398 N1406 1.356 . S
C1399 C1398 1.363 . S
C1399 C1405 1.363 . S
C1400 C1401 1.363 . S
C1400 C1405 1.379 . S
C1400 N1407 1.356 . S
C1401 C1400 1.363 . S
C1401 C1404 1.363 . S
N1402 C1404 1.356 . S
N1402 H1414 0.984 . S
N1402 H1415 0.985 . S
N1403 C1405 1.356 . S
N1403 H1408 0.984 . S
N1403 H1409 0.985 . S
C1404 C1398 1.379 . S
C1404 C1401 1.363 . S
C1404 N1402 1.356 . S
C1405 C1399 1.363 . S
C1405 C1400 1.379 . S
C1405 N1403 1.356 . S
N1406 C1398 1.356 . S
N1406 H1412 0.984 . S
N1406 H1413 0.984 . S
N1407 C1400 1.356 . S
N1407 H1410 0.984 . S
N1407 H1411 0.985 . S
H1408 N1403 0.984 . S
H1409 N1403 0.985 . S
H1410 N1407 0.984 . S
H1411 N1407 0.985 . S
H1412 N1406 0.984 . S
H1413 N1406 0.984 . S
H1414 N1402 0.984 . S
H1415 N1402 0.985 . S
C553 C168 1.866 . S
C555 C7 1.816 . S
C571 N25 1.240 . S
C573 C99 1.343 . S
C589 C122 1.800 . S
C591 C53 1.764 . S
C607 N71 1.349 . S
C609 C145 1.456 . S
C625 N186 1.044 . S
C627 N2 1.169 . S
C643 C30 1.531 . S
C645 C214 1.512 . S
C661 N232 1.081 . S
C663 N48 1.204 . S
C679 C260 1.450 . S
C681 C76 1.440 . S
C697 N94 0.759 . S
C699 N209 0.767 . S
C715 N117 1.355 . S
C717 C237 1.524 . S
C733 N255 0.760 . S
C735 N140 0.753 . S
C751 C191 1.584 . S
C753 N163 1.419 . S
C769 C490 1.883 . S
C771 C283 1.885 . S
C787 N301 0.941 . S
C789 N508 0.877 . S
C805 C329 1.850 . S
C807 C536 1.829 . S
C823 N531 0.977 . S
C825 N347 0.958 . S
C841 N370 0.950 . S
C843 N485 0.978 . S
C859 C444 1.615 . S
C861 C398 1.573 . S
C877 N278 1.415 . S
C879 C375 1.507 . S
C895 C306 1.501 . S
C897 C421 1.529 . S
C913 N324 1.483 . S
C915 C352 1.578 . S
C931 N393 1.025 . S
C933 N462 0.962 . S
C949 N416 1.160 . S
C951 C513 1.244 . S
C967 C467 1.284 . S
C969 N439 1.205 . S
C985 C108 2.519 . S
C987 C16 2.369 . S
C1003 C131 1.901 . S
C1005 N35 1.894 . S
C1021 C154 2.666 . S
C1023 C62 2.526 . S
C1039 C177 2.167 . S
C1041 N81 2.171 . S
C1057 N196 2.283 . S
C1059 N265 2.419 . S
C1075 C223 2.115 . S
C1077 C200 2.223 . S
C1093 N242 2.130 . S
C1095 N219 2.295 . S
C1111 C246 1.854 . S
C1113 C269 1.744 . S
C1129 N426 2.194 . S
C1131 N173 2.112 . S
C1147 C292 2.098 . S
C1149 C85 2.214 . S
C1165 N12 2.283 . S
C1167 N311 2.230 . S
C1183 C39 2.407 . S
C1185 C338 2.314 . S
C1201 N127 2.021 . S
C1203 N449 2.125 . S
C1219 N104 1.629 . S
C1221 N357 1.697 . S
C1237 N150 1.662 . S
C1239 N380 1.741 . S
C1255 C384 2.171 . S
C1257 C407 2.342 . S
C1273 N288 1.873 . S
C1275 C430 1.721 . S
C1291 C361 2.145 . S
C1293 C315 2.313 . S
C1309 C453 2.098 . S
C1311 N334 2.289 . S
C1327 N472 2.350 . S
C1329 N541 2.218 . S
C1345 C476 2.275 . S
C1347 C499 2.422 . S
C1363 N518 2.489 . S
C1365 N495 2.373 . S
C1381 C545 1.862 . S
C1383 C522 1.723 . S
C1399 N58 2.525 . S
C1401 N403 2.430 . S
