# Generated by pormake.
# Topology npo, (4)-cn, num edge types: 1
# Building blocks:
#     Node 0, Type 0, BuildingBlock: KUFVIS_clean_sbu_0, # of connection points: 4
#     Node 1, Type 0, BuildingBlock: KUFVIS_clean_sbu_0, # of connection points: 4
#     Node 2, Type 0, BuildingBlock: KUFVIS_clean_sbu_0, # of connection points: 4
#     Node 3, Type 0, BuildingBlock: KUFVIS_clean_sbu_0, # of connection points: 4
#     Node 4, Type 0, BuildingBlock: KUFVIS_clean_sbu_0, # of connection points: 4
#     Node 5, Type 0, BuildingBlock: KUFVIS_clean_sbu_0, # of connection points: 4
#     Edge 6, Type (0, 0), BuildingBlock: TEMPAE_clean_linker_10, # of connection points: 2
#     Edge 7, Type (0, 0), BuildingBlock: TEMPAE_clean_linker_10, # of connection points: 2
#     Edge 8, Type (0, 0), BuildingBlock: TEMPAE_clean_linker_10, # of connection points: 2
#     Edge 9, Type (0, 0), BuildingBlock: TEMPAE_clean_linker_10, # of connection points: 2
#     Edge 10, Type (0, 0), BuildingBlock: TEMPAE_clean_linker_10, # of connection points: 2
#     Edge 11, Type (0, 0), BuildingBlock: TEMPAE_clean_linker_10, # of connection points: 2
#     Edge 12, Type (0, 0), BuildingBlock: TEMPAE_clean_linker_10, # of connection points: 2
#     Edge 13, Type (0, 0), BuildingBlock: TEMPAE_clean_linker_10, # of connection points: 2
#     Edge 14, Type (0, 0), BuildingBlock: TEMPAE_clean_linker_10, # of connection points: 2
#     Edge 15, Type (0, 0), BuildingBlock: TEMPAE_clean_linker_10, # of connection points: 2
#     Edge 16, Type (0, 0), BuildingBlock: TEMPAE_clean_linker_10, # of connection points: 2
#     Edge 17, Type (0, 0), BuildingBlock: TEMPAE_clean_linker_10, # of connection points: 2
# Relax obj value: 0.273
# Max RMSD: 0.237
# Mean RMSD: 0.233
data_MOF--net-npo--node1-KUFVIS_clean_sbu_0--edge1-TEMPAE_clean_linker_10
_symmetry_space_group_name_H-M    P1
_symmetry_Int_Tables_number       1
_symmetry_cell_setting            triclinic
loop_
_symmetry_equiv_pos_as_xyz
'x, y, z'
_cell_length_a     42.839283
_cell_length_b     45.391329
_cell_length_c     24.290533
_cell_angle_alpha  90.041649
_cell_angle_beta   91.393897
_cell_angle_gamma 122.051
loop_
_atom_site_label
_atom_site_type_symbol
_atom_site_fract_x
_atom_site_fract_y
_atom_site_fract_z
_atom_type_partial_charge
Mn0 Mn 0.56995 0.1257 0.28997 0.0
Mn1 Mn 0.6286 0.09832 0.2749 0.0
C2 C 0.63158 0.16246 0.31347 0.0
C3 C 0.54187 0.15642 0.26501 0.0
C4 C 0.57741 0.07705 0.36939 0.0
O5 O 0.54272 0.08752 0.23227 0.0
O6 O 0.58082 0.06721 0.23369 0.0
C7 C 0.64075 0.10848 0.15483 0.0
N8 N 0.65447 0.11404 0.20758 0.0
C9 C 0.71667 0.14195 0.17632 0.0
C10 C 0.70316 0.13633 0.12169 0.0
C11 C 0.66505 0.11965 0.11094 0.0
C12 C 0.69112 0.12997 0.21837 0.0
H13 H 0.61152 0.09549 0.1462 0.0
C14 C 0.55158 0.06611 0.21663 0.0
O15 O 0.52752 0.13173 0.30078 0.0
O16 O 0.57067 0.16111 0.24036 0.0
N17 N 0.67601 0.12608 0.31056 0.0
C18 C 0.68466 0.13394 0.36509 0.0
C19 C 0.72183 0.15326 0.38271 0.0
C20 C 0.74967 0.16414 0.34412 0.0
C21 C 0.74007 0.15597 0.28813 0.0
C22 C 0.70257 0.13666 0.27302 0.0
H23 H 0.66334 0.12581 0.39477 0.0
O24 O 0.60611 0.16385 0.33899 0.0
O25 O 0.62015 0.13718 0.27724 0.0
O26 O 0.55936 0.09003 0.35054 0.0
O27 O 0.6052 0.08036 0.34578 0.0
C28 C 0.76624 0.16708 0.24658 0.0
C29 C 0.75455 0.16 0.19071 0.0
H30 H 0.72182 0.14516 0.08772 0.0
H31 H 0.65443 0.11536 0.06889 0.0
H32 H 0.72902 0.15977 0.42592 0.0
H33 H 0.77831 0.17922 0.35784 0.0
H34 H 0.79545 0.18192 0.25703 0.0
H35 H 0.77495 0.16949 0.15908 0.0
Mn36 Mn 0.41338 0.54323 0.73949 0.0
Mn37 Mn 0.35162 0.45904 0.76686 0.0
C38 C 0.35149 0.5168 0.71206 0.0
C39 C 0.4429 0.60285 0.75999 0.0
C40 C 0.40593 0.48159 0.67472 0.0
O41 O 0.44026 0.53377 0.80128 0.0
O42 O 0.39655 0.47755 0.81473 0.0
C43 C 0.33521 0.47217 0.87897 0.0
N44 N 0.32333 0.45807 0.82746 0.0
C45 C 0.26016 0.43524 0.84993 0.0
C46 C 0.27167 0.44878 0.90358 0.0
C47 C 0.30941 0.46764 0.91797 0.0
C48 C 0.28722 0.44116 0.81256 0.0
H49 H 0.36415 0.48704 0.89014 0.0
C50 C 0.4278 0.50508 0.82663 0.0
O51 O 0.45683 0.59096 0.72618 0.0
O52 O 0.4133 0.57993 0.78447 0.0
N53 N 0.30603 0.43756 0.72509 0.0
C54 C 0.2992 0.42547 0.67208 0.0
C55 C 0.26282 0.40648 0.65092 0.0
C56 C 0.23363 0.39923 0.68495 0.0
C57 C 0.24114 0.41087 0.73992 0.0
C58 C 0.27801 0.42994 0.75855 0.0
H59 H 0.32128 0.43002 0.64631 0.0
O60 O 0.37684 0.54388 0.68687 0.0
O61 O 0.3633 0.50582 0.75155 0.0
O62 O 0.42229 0.51412 0.68502 0.0
O63 O 0.37889 0.45839 0.70214 0.0
C64 C 0.2134 0.40369 0.77723 0.0
C65 C 0.22291 0.41604 0.83213 0.0
H66 H 0.25181 0.44509 0.93388 0.0
H67 H 0.31859 0.47861 0.95907 0.0
H68 H 0.25727 0.39717 0.60863 0.0
H69 H 0.20557 0.38442 0.66861 0.0
H70 H 0.18464 0.38877 0.76407 0.0
H71 H 0.20134 0.41071 0.86027 0.0
Mn72 Mn 0.87661 0.45873 0.21735 0.0
Mn73 Mn 0.9203 0.4157 0.23575 0.0
C74 C 0.8428 0.39892 0.21931 0.0
C75 C 0.84562 0.48399 0.24919 0.0
C76 C 0.91855 0.44823 0.12805 0.0
O77 O 0.92583 0.49602 0.25009 0.0
O78 O 0.95212 0.46466 0.26329 0.0
C79 C 0.92707 0.41596 0.35743 0.0
N80 N 0.91521 0.3981 0.30858 0.0
C81 C 0.89603 0.34399 0.35331 0.0
C82 C 0.90818 0.36184 0.40407 0.0
C83 C 0.92361 0.39795 0.40615 0.0
C84 C 0.90031 0.36334 0.30612 0.0
H85 H 0.93925 0.44375 0.3592 0.0
C86 C 0.95224 0.49294 0.26759 0.0
O87 O 0.86167 0.4926 0.20216 0.0
O88 O 0.85015 0.46293 0.27946 0.0
N89 N 0.89184 0.368 0.2123 0.0
C90 C 0.87804 0.35438 0.16106 0.0
C91 C 0.85879 0.31819 0.15271 0.0
C92 C 0.85431 0.29646 0.19693 0.0
C93 C 0.8688 0.31111 0.24928 0.0
C94 C 0.88744 0.34731 0.25521 0.0
H95 H 0.88147 0.371 0.12696 0.0
O96 O 0.83048 0.41586 0.19332 0.0
O97 O 0.87561 0.41759 0.24234 0.0
O98 O 0.89947 0.46031 0.14411 0.0
O99 O 0.92805 0.43162 0.1592 0.0
C100 C 0.86487 0.29116 0.29601 0.0
C101 C 0.87877 0.30763 0.34791 0.0
H102 H 0.90536 0.34802 0.44179 0.0
H103 H 0.93291 0.41189 0.44519 0.0
H104 H 0.84751 0.30707 0.11226 0.0
H105 H 0.83942 0.26856 0.19033 0.0
H106 H 0.85068 0.26311 0.29266 0.0
H107 H 0.87504 0.29197 0.38369 0.0
Mn108 Mn 0.4575 0.87573 0.78223 0.0
Mn109 Mn 0.40892 0.91383 0.7604 0.0
C110 C 0.39499 0.84604 0.79613 0.0
C111 C 0.47794 0.83888 0.75776 0.0
C112 C 0.4565 0.92778 0.86223 0.0
O113 O 0.4905 0.91465 0.73047 0.0
O114 O 0.45834 0.94127 0.72682 0.0
C115 C 0.39989 0.90523 0.63882 0.0
N116 N 0.38473 0.89973 0.68936 0.0
C117 C 0.32352 0.87091 0.64865 0.0
C118 C 0.33853 0.87639 0.59627 0.0
C119 C 0.37688 0.89359 0.59136 0.0
C120 C 0.34783 0.88331 0.69449 0.0
H121 H 0.4293 0.91844 0.63456 0.0
C122 C 0.48596 0.939 0.71431 0.0
O123 O 0.49414 0.86189 0.79721 0.0
O124 O 0.45218 0.83951 0.72966 0.0
N125 N 0.36028 0.88916 0.78903 0.0
C126 C 0.34995 0.88312 0.84247 0.0
C127 C 0.31235 0.86459 0.85444 0.0
C128 C 0.28575 0.85256 0.81139 0.0
C129 C 0.297 0.85901 0.7567 0.0
C130 C 0.33488 0.87766 0.74727 0.0
H131 H 0.37021 0.89181 0.8756 0.0
O132 O 0.41582 0.83819 0.82381 0.0
O133 O 0.41159 0.8722 0.76331 0.0
O134 O 0.4707 0.91083 0.84589 0.0
O135 O 0.43165 0.92933 0.83481 0.0
C136 C 0.27209 0.84704 0.71116 0.0
C137 C 0.28534 0.85298 0.65718 0.0
H138 H 0.32086 0.86724 0.55957 0.0
H139 H 0.38869 0.89784 0.55108 0.0
H140 H 0.30389 0.85942 0.89676 0.0
H141 H 0.25676 0.83806 0.82077 0.0
H142 H 0.24267 0.83284 0.71718 0.0
H143 H 0.26588 0.84314 0.62251 0.0
Mn144 Mn 0.54204 0.4246 0.253 0.0
Mn145 Mn 0.58736 0.51103 0.28053 0.0
C146 C 0.60413 0.45994 0.23716 0.0
C147 C 0.52266 0.36705 0.27404 0.0
C148 C 0.53775 0.47756 0.17978 0.0
O149 O 0.50798 0.42806 0.30668 0.0
O150 O 0.54073 0.48629 0.32131 0.0
C151 C 0.60522 0.51131 0.39921 0.0
N152 N 0.61649 0.52194 0.34703 0.0
C153 C 0.67986 0.5571 0.37833 0.0
C154 C 0.66889 0.54666 0.43241 0.0
C155 C 0.63142 0.52361 0.44286 0.0
C156 C 0.65248 0.54424 0.33654 0.0
H157 H 0.57647 0.49359 0.40752 0.0
C158 C 0.51303 0.45565 0.33001 0.0
O159 O 0.50622 0.37434 0.2358 0.0
O160 O 0.5484 0.3931 0.30299 0.0
N161 N 0.63336 0.53737 0.24441 0.0
C162 C 0.63967 0.54248 0.1895 0.0
C163 C 0.676 0.56321 0.17177 0.0
C164 C 0.70541 0.57864 0.21062 0.0
C165 C 0.69821 0.57315 0.2669 0.0
C166 C 0.66144 0.55227 0.28216 0.0
H167 H 0.61719 0.5305 0.15943 0.0
O168 O 0.58401 0.43091 0.20986 0.0
O169 O 0.58719 0.46792 0.27209 0.0
O170 O 0.52821 0.44648 0.19081 0.0
O171 O 0.55925 0.50357 0.21087 0.0
C172 C 0.72614 0.58696 0.30839 0.0
C173 C 0.71697 0.57904 0.36407 0.0
H174 H 0.68905 0.55586 0.46614 0.0
H175 H 0.62276 0.51531 0.48446 0.0
H176 H 0.68134 0.56718 0.12824 0.0
H177 H 0.73341 0.59438 0.19676 0.0
H178 H 0.75481 0.60331 0.29786 0.0
H179 H 0.73874 0.58935 0.3955 0.0
Mn180 Mn 0.1089 0.56889 0.71783 0.0
Mn181 Mn 0.06187 0.48757 0.66498 0.0
C182 C 0.12844 0.53093 0.73486 0.0
C183 C 0.15518 0.62697 0.71687 0.0
C184 C 0.03655 0.50948 0.76275 0.0
O185 O 0.07971 0.57336 0.65496 0.0
O186 O 0.04833 0.51748 0.62491 0.0
C187 C 0.09594 0.50352 0.55561 0.0
N188 N 0.08855 0.4862 0.60404 0.0
C189 C 0.12046 0.45835 0.5765 0.0
C190 C 0.12839 0.47588 0.52636 0.0
C191 C 0.11611 0.4986 0.51592 0.0
C192 C 0.1005 0.4645 0.61466 0.0
H193 H 0.08653 0.52096 0.54725 0.0
C194 C 0.05641 0.549 0.62258 0.0
O195 O 0.12631 0.6163 0.74632 0.0
O196 O 0.15611 0.60425 0.68564 0.0
N197 N 0.07342 0.45652 0.69971 0.0
C198 C 0.06293 0.44114 0.74969 0.0
C199 C 0.07259 0.41726 0.76608 0.0
C200 C 0.09265 0.40924 0.73079 0.0
C201 C 0.10265 0.42501 0.67924 0.0
C202 C 0.09215 0.44851 0.66505 0.0
H203 H 0.04737 0.44707 0.77691 0.0
O204 O 0.13692 0.55618 0.76924 0.0
O205 O 0.10762 0.52811 0.6931 0.0
O206 O 0.06276 0.54116 0.76206 0.0
O207 O 0.03337 0.48657 0.7286 0.0
C208 C 0.12243 0.41817 0.64126 0.0
C209 C 0.13143 0.43491 0.58999 0.0
H210 H 0.14384 0.47206 0.49556 0.0
H211 H 0.12209 0.51221 0.47731 0.0
H212 H 0.06464 0.40511 0.80586 0.0
H213 H 0.10018 0.39093 0.74367 0.0
H214 H 0.13089 0.40009 0.65109 0.0
H215 H 0.14679 0.42953 0.56122 0.0
C216 C 0.50295 0.17976 0.29355 0.0
C217 C 0.53021 0.18189 0.25978 0.0
C218 C 0.49648 0.20706 0.29645 0.0
C219 C 0.5178 0.23728 0.26495 0.0
C220 C 0.54395 0.23873 0.2286 0.0
C221 C 0.54978 0.21106 0.2264 0.0
C222 C 0.46813 0.2043 0.33536 0.0
C223 C 0.56721 0.27033 0.19403 0.0
C224 C 0.49212 0.30499 0.24149 0.0
C225 C 0.51666 0.33171 0.27825 0.0
C226 C 0.49094 0.27344 0.23833 0.0
C227 C 0.51492 0.26846 0.27265 0.0
C228 C 0.53831 0.29461 0.31185 0.0
C229 C 0.53886 0.32583 0.31423 0.0
C230 C 0.46538 0.24619 0.1963 0.0
C231 C 0.56423 0.29038 0.34945 0.0
H232 H 0.48771 0.15739 0.31959 0.0
H233 H 0.57092 0.21303 0.20021 0.0
H234 H 0.48221 0.22298 0.37021 0.0
H235 H 0.4497 0.21123 0.31418 0.0
H236 H 0.45106 0.17777 0.35225 0.0
H237 H 0.58439 0.26642 0.16502 0.0
H238 H 0.54942 0.27693 0.17003 0.0
H239 H 0.58569 0.29298 0.22128 0.0
H240 H 0.47485 0.30923 0.21347 0.0
H241 H 0.55793 0.34627 0.34274 0.0
H242 H 0.4496 0.22028 0.21553 0.0
H243 H 0.48179 0.2444 0.1633 0.0
H244 H 0.44564 0.25224 0.17714 0.0
H245 H 0.54894 0.26539 0.37145 0.0
H246 H 0.57861 0.31187 0.38038 0.0
H247 H 0.58526 0.2897 0.32463 0.0
C248 C 0.30824 0.52771 0.75834 0.0
C249 C 0.31479 0.51165 0.71493 0.0
C250 C 0.27514 0.52678 0.76058 0.0
C251 C 0.24693 0.50727 0.72029 0.0
C252 C 0.25286 0.48945 0.67785 0.0
C253 C 0.2875 0.4932 0.67423 0.0
C254 C 0.27119 0.5481 0.80452 0.0
C255 C 0.22251 0.46596 0.63713 0.0
C256 C 0.15724 0.49753 0.76301 0.0
C257 C 0.15546 0.52095 0.72796 0.0
C258 C 0.18506 0.49027 0.75752 0.0
C259 C 0.21335 0.5092 0.71943 0.0
C260 C 0.21179 0.53348 0.68472 0.0
C261 C 0.18213 0.53812 0.68821 0.0
C262 C 0.18377 0.46202 0.7917 0.0
C263 C 0.24255 0.55626 0.64643 0.0
H264 H 0.32986 0.54247 0.78925 0.0
H265 H 0.29306 0.4814 0.64018 0.0
H266 H 0.26338 0.56557 0.78533 0.0
H267 H 0.24902 0.53079 0.8327 0.0
H268 H 0.29702 0.56421 0.82947 0.0
H269 H 0.23203 0.4552 0.60517 0.0
H270 H 0.2 0.44403 0.65974 0.0
H271 H 0.21077 0.47986 0.61655 0.0
H272 H 0.1368 0.48479 0.79425 0.0
H273 H 0.18088 0.55679 0.66189 0.0
H274 H 0.16245 0.45246 0.82353 0.0
H275 H 0.21082 0.47103 0.81215 0.0
H276 H 0.17711 0.43995 0.76389 0.0
H277 H 0.23822 0.5756 0.62543 0.0
H278 H 0.24487 0.54014 0.61447 0.0
H279 H 0.26924 0.57043 0.66989 0.0
C280 C 0.69092 0.20077 0.26587 0.0
C281 C 0.66785 0.19543 0.30941 0.0
C282 C 0.7231 0.23306 0.25762 0.0
C283 C 0.72944 0.26232 0.28841 0.0
C284 C 0.70508 0.25768 0.33082 0.0
C285 C 0.67602 0.22404 0.34285 0.0
C286 C 0.74991 0.23536 0.2158 0.0
C287 C 0.70726 0.28766 0.36178 0.0
C288 C 0.8185 0.3508 0.28726 0.0
C289 C 0.81579 0.36299 0.23553 0.0
C290 C 0.79126 0.31759 0.30456 0.0
C291 C 0.75882 0.29764 0.27162 0.0
C292 C 0.75436 0.31142 0.22177 0.0
C293 C 0.78354 0.34315 0.20323 0.0
C294 C 0.79702 0.30408 0.35815 0.0
C295 C 0.71874 0.29289 0.18797 0.0
H296 H 0.68288 0.18036 0.23614 0.0
H297 H 0.65779 0.22079 0.3757 0.0
H298 H 0.76406 0.26024 0.19365 0.0
H299 H 0.77165 0.23335 0.23791 0.0
H300 H 0.73615 0.21391 0.18478 0.0
H301 H 0.67993 0.28498 0.35975 0.0
H302 H 0.71369 0.28645 0.40597 0.0
H303 H 0.72794 0.31357 0.34594 0.0
H304 H 0.8414 0.36754 0.31488 0.0
H305 H 0.78046 0.35317 0.16432 0.0
H306 H 0.79533 0.27914 0.3505 0.0
H307 H 0.77523 0.29884 0.3872 0.0
H308 H 0.82387 0.32283 0.37869 0.0
H309 H 0.71754 0.27194 0.1627 0.0
H310 H 0.71642 0.31086 0.15956 0.0
H311 H 0.69457 0.28084 0.21494 0.0
C312 C 0.50589 0.80489 0.78937 0.0
C313 C 0.4834 0.80931 0.75161 0.0
C314 C 0.50525 0.77355 0.791 0.0
C315 C 0.48147 0.74592 0.75418 0.0
C316 C 0.46055 0.75114 0.7137 0.0
C317 C 0.46186 0.78273 0.71283 0.0
C318 C 0.52835 0.76929 0.83433 0.0
C319 C 0.43488 0.72251 0.6735 0.0
C320 C 0.48613 0.66501 0.73304 0.0
C321 C 0.45683 0.64058 0.76481 0.0
C322 C 0.4957 0.69987 0.73105 0.0
C323 C 0.47535 0.7105 0.76125 0.0
C324 C 0.44691 0.68629 0.79537 0.0
C325 C 0.4381 0.65176 0.79684 0.0
C326 C 0.52645 0.72488 0.69464 0.0
C327 C 0.42445 0.69641 0.82832 0.0
H328 H 0.52264 0.82524 0.81953 0.0
H329 H 0.44443 0.78584 0.68339 0.0
H330 H 0.5102 0.75139 0.8664 0.0
H331 H 0.54284 0.75755 0.81606 0.0
H332 H 0.54906 0.79445 0.85451 0.0
H333 H 0.42313 0.73166 0.64149 0.0
H334 H 0.44954 0.71168 0.65284 0.0
H335 H 0.41184 0.70101 0.69606 0.0
H336 H 0.50078 0.65666 0.70812 0.0
H337 H 0.41543 0.63315 0.82154 0.0
H338 H 0.54555 0.74953 0.71734 0.0
H339 H 0.51477 0.73136 0.65879 0.0
H340 H 0.54241 0.71387 0.67912 0.0
H341 H 0.44285 0.71983 0.85412 0.0
H342 H 0.40491 0.67523 0.85549 0.0
H343 H 0.40846 0.70303 0.79992 0.0
C344 C 0.66219 0.48368 0.29237 0.0
C345 C 0.64418 0.47564 0.24065 0.0
C346 C 0.69907 0.49342 0.29778 0.0
C347 C 0.71744 0.49273 0.25073 0.0
C348 C 0.69962 0.48542 0.19809 0.0
C349 C 0.66317 0.47722 0.19368 0.0
C350 C 0.71764 0.50224 0.35421 0.0
C351 C 0.71775 0.48305 0.14717 0.0
C352 C 0.81811 0.5207 0.24823 0.0
C353 C 0.81536 0.4892 0.25972 0.0
C354 C 0.78667 0.52303 0.24867 0.0
C355 C 0.75185 0.49269 0.25772 0.0
C356 C 0.74931 0.46104 0.27035 0.0
C357 C 0.78129 0.46 0.27265 0.0
C358 C 0.7905 0.55761 0.23876 0.0
C359 C 0.71258 0.42767 0.278 0.0
H360 H 0.64694 0.48081 0.329 0.0
H361 H 0.64883 0.47022 0.15389 0.0
H362 H 0.72376 0.48232 0.36684 0.0
H363 H 0.74431 0.52749 0.35315 0.0
H364 H 0.70035 0.5038 0.38599 0.0
H365 H 0.70149 0.48009 0.10895 0.0
H366 H 0.74574 0.5065 0.14366 0.0
H367 H 0.72081 0.46029 0.15025 0.0
H368 H 0.84461 0.54319 0.23814 0.0
H369 H 0.7792 0.43548 0.28041 0.0
H370 H 0.7815 0.56527 0.27564 0.0
H371 H 0.77237 0.55562 0.2037 0.0
H372 H 0.81931 0.57844 0.2303 0.0
H373 H 0.69824 0.43043 0.31313 0.0
H374 H 0.71551 0.40511 0.28575 0.0
H375 H 0.69466 0.42183 0.24067 0.0
C376 C 0.3408 0.81191 0.73346 0.0
C377 C 0.35582 0.8193 0.78721 0.0
C378 C 0.30521 0.7836 0.72209 0.0
C379 C 0.285 0.76104 0.76511 0.0
C380 C 0.29972 0.76869 0.81979 0.0
C381 C 0.33509 0.79794 0.83025 0.0
C382 C 0.29006 0.77673 0.66353 0.0
C383 C 0.27919 0.74476 0.86651 0.0
C384 C 0.18451 0.68981 0.74143 0.0
C385 C 0.18785 0.66208 0.72481 0.0
C386 C 0.21596 0.72254 0.75406 0.0
C387 C 0.2512 0.72703 0.75146 0.0
C388 C 0.25455 0.69893 0.73488 0.0
C389 C 0.22282 0.66696 0.72081 0.0
C390 C 0.21148 0.75232 0.76918 0.0
C391 C 0.29162 0.7024 0.73306 0.0
H392 H 0.35749 0.82745 0.69975 0.0
H393 H 0.34713 0.80337 0.87161 0.0
H394 H 0.28685 0.75236 0.6475 0.0
H395 H 0.26237 0.77323 0.66223 0.0
H396 H 0.30823 0.79817 0.63567 0.0
H397 H 0.29295 0.75594 0.90717 0.0
H398 H 0.25062 0.73908 0.8672 0.0
H399 H 0.27735 0.71966 0.86023 0.0
H400 H 0.15735 0.6859 0.7444 0.0
H401 H 0.22532 0.64528 0.70887 0.0
H402 H 0.22057 0.77069 0.7345 0.0
H403 H 0.22897 0.76689 0.80579 0.0
H404 H 0.1824 0.7434 0.77759 0.0
H405 H 0.30908 0.72211 0.70248 0.0
H406 H 0.28918 0.67749 0.72196 0.0
H407 H 0.30614 0.71144 0.77377 0.0
C408 C 0.50606 0.96585 0.93164 0.0
C409 C 0.46861 0.94594 0.91633 0.0
C410 C 0.51775 0.98439 0.98204 0.0
C411 C 0.4912 0.98178 0.01884 0.0
C412 C 0.45328 0.96075 0.00419 0.0
C413 C 0.44251 0.94368 0.95267 0.0
C414 C 0.5585 0.00745 0.99531 0.0
C415 C 0.42405 0.95623 0.04295 0.0
C416 C 0.5254 0.00902 0.1673 0.0
C417 C 0.5307 0.04223 0.16992 0.0
C418 C 0.51094 0.98836 0.11917 0.0
C419 C 0.50316 0.00189 0.07187 0.0
C420 C 0.50792 0.03523 0.07472 0.0
C421 C 0.52101 0.05472 0.12404 0.0
C422 C 0.5049 0.95243 0.11851 0.0
C423 C 0.50105 0.05109 0.02485 0.0
H424 H 0.52626 0.96778 0.90339 0.0
H425 H 0.41353 0.92807 0.94124 0.0
H426 H 0.56583 0.03458 0.00254 0.0
H427 H 0.56562 0.99884 0.03371 0.0
H428 H 0.57557 0.0073 0.96174 0.0
H429 H 0.39577 0.93705 0.02696 0.0
H430 H 0.42819 0.94751 0.08366 0.0
H431 H 0.42632 0.98146 0.0497 0.0
H432 H 0.5331 0.99944 0.20269 0.0
H433 H 0.52587 0.08072 0.12559 0.0
H434 H 0.5247 0.95176 0.09077 0.0
H435 H 0.47676 0.93315 0.10224 0.0
H436 H 0.50852 0.94437 0.16015 0.0
H437 H 0.51969 0.05377 0.99163 0.0
H438 H 0.50564 0.0771 0.03409 0.0
H439 H 0.4724 0.03388 0.00869 0.0
C440 C 0.47254 0.42395 0.4092 0.0
C441 C 0.48851 0.45276 0.37452 0.0
C442 C 0.45605 0.42446 0.45835 0.0
C443 C 0.45519 0.45429 0.47266 0.0
C444 C 0.46922 0.48249 0.43599 0.0
C445 C 0.48584 0.48144 0.38763 0.0
C446 C 0.44144 0.39391 0.4964 0.0
C447 C 0.46826 0.51454 0.44901 0.0
C448 C 0.39255 0.45307 0.58199 0.0
C449 C 0.41756 0.47071 0.62598 0.0
C450 C 0.40405 0.44628 0.5325 0.0
C451 C 0.44149 0.45717 0.52705 0.0
C452 C 0.46661 0.47385 0.57223 0.0
C453 C 0.45443 0.48087 0.62092 0.0
C454 C 0.37655 0.42922 0.48505 0.0
C455 C 0.50666 0.48544 0.56841 0.0
H456 H 0.47487 0.40187 0.39965 0.0
H457 H 0.49799 0.50374 0.36089 0.0
H458 H 0.45899 0.40185 0.53454 0.0
H459 H 0.41311 0.38536 0.50872 0.0
H460 H 0.44105 0.3715 0.47717 0.0
H461 H 0.47755 0.5329 0.41417 0.0
H462 H 0.43995 0.50719 0.45935 0.0
H463 H 0.48641 0.52829 0.48551 0.0
H464 H 0.36438 0.44626 0.58491 0.0
H465 H 0.47383 0.49473 0.65483 0.0
H466 H 0.37787 0.40738 0.46738 0.0
H467 H 0.38344 0.44836 0.45189 0.0
H468 H 0.34788 0.41923 0.49757 0.0
H469 H 0.50911 0.46371 0.55322 0.0
H470 H 0.52174 0.49485 0.60872 0.0
H471 H 0.52023 0.50677 0.5384 0.0
C472 C 0.01623 0.52323 0.84912 0.0
C473 C 0.01094 0.49859 0.80897 0.0
C474 C -0.00328 0.5131 0.89788 0.0
C475 C 0.97077 0.47748 0.90642 0.0
C476 C 0.96322 0.45268 0.86452 0.0
C477 C 0.98361 0.4635 0.81628 0.0
C478 C 0.00577 0.54035 0.94176 0.0
C479 C 0.93507 0.41455 0.87185 0.0
C480 C 0.96099 0.45217 0.05606 0.0
C481 C 0.93035 0.45363 0.07044 0.0
C482 C 0.97363 0.45871 0.00218 0.0
C483 C 0.95474 0.46624 0.9615 0.0
C484 C 0.92283 0.46625 0.97513 0.0
C485 C 0.91121 0.46031 0.0297 0.0
C486 C 0.00815 0.45901 0.9894 0.0
C487 C 0.90159 0.47344 0.93246 0.0
H488 H 0.03695 0.55048 0.84381 0.0
H489 H 0.97907 0.44428 0.78536 0.0
H490 H 0.98028 0.53835 0.95574 0.0
H491 H 0.01894 0.53596 0.9781 0.0
H492 H 0.02476 0.56717 0.92711 0.0
H493 H 0.92835 0.39955 0.83257 0.0
H494 H 0.94594 0.40362 0.90207 0.0
H495 H 0.90932 0.41085 0.8884 0.0
H496 H 0.97587 0.44699 0.08738 0.0
H497 H 0.88714 0.4609 0.04046 0.0
H498 H 0.03011 0.48555 0.97742 0.0
H499 H 0.00285 0.4413 0.95408 0.0
H500 H 0.01856 0.45103 0.02507 0.0
H501 H 0.91834 0.50098 0.91987 0.0
H502 H 0.87508 0.46847 0.94813 0.0
H503 H 0.89582 0.45709 0.89505 0.0
C504 C 0.52995 0.03923 0.43775 0.0
C505 C 0.56678 0.05819 0.42211 0.0
C506 C 0.51987 0.02053 0.48708 0.0
C507 C 0.54746 0.02183 0.52241 0.0
C508 C 0.58476 0.04159 0.50732 0.0
C509 C 0.59387 0.05901 0.45699 0.0
C510 C 0.47965 0.99901 0.50104 0.0
C511 C 0.61509 0.04455 0.54453 0.0
C512 C 0.51838 0.99702 0.67015 0.0
C513 C 0.50954 0.96255 0.67097 0.0
C514 C 0.53279 0.01732 0.62303 0.0
C515 C 0.53715 0.00232 0.57496 0.0
C516 C 0.5297 0.96796 0.57638 0.0
C517 C 0.5165 0.94865 0.62472 0.0
C518 C 0.54164 0.05425 0.6239 0.0
C519 C 0.53316 0.9507 0.52573 0.0
H520 H 0.50891 0.03833 0.41077 0.0
H521 H 0.62243 0.07378 0.44536 0.0
H522 H 0.4713 0.97159 0.50745 0.0
H523 H 0.47509 0.00869 0.54009 0.0
H524 H 0.4615 0.99966 0.46824 0.0
H525 H 0.64287 0.0621 0.52777 0.0
H526 H 0.61411 0.05454 0.58575 0.0
H527 H 0.61107 0.01854 0.55043 0.0
H528 H 0.51272 0.00768 0.70579 0.0
H529 H 0.50887 0.92173 0.62484 0.0
H530 H 0.52121 0.05607 0.59761 0.0
H531 H 0.56921 0.07204 0.60681 0.0
H532 H 0.54117 0.06335 0.66617 0.0
H533 H 0.51266 0.94764 0.49373 0.0
H534 H 0.52851 0.92467 0.53452 0.0
H535 H 0.56083 0.96712 0.5082 0.0
C536 C 0.48589 0.52661 0.88509 0.0
C537 C 0.4479 0.50343 0.87614 0.0
C538 C 0.50395 0.52459 0.93298 0.0
C539 C 0.48326 0.49967 0.97353 0.0
C540 C 0.44489 0.47669 0.96492 0.0
C541 C 0.42795 0.47837 0.91611 0.0
C542 C 0.54513 0.54875 0.93996 0.0
C543 C 0.42147 0.45037 0.00757 0.0
C544 C 0.52211 0.46514 0.07939 0.0
C545 C 0.525 0.48418 0.12676 0.0
C546 C 0.51092 0.47159 0.02837 0.0
C547 C 0.50115 0.49687 0.025 0.0
C548 C 0.50446 0.51648 0.07267 0.0
C549 C 0.51696 0.51029 0.1228 0.0
C550 C 0.50874 0.45077 0.97831 0.0
C551 C 0.49317 0.54283 0.07135 0.0
H552 H 0.50152 0.54589 0.85436 0.0
H553 H 0.3986 0.46026 0.90995 0.0
H554 H 0.55186 0.56506 0.97766 0.0
H555 H 0.55825 0.53338 0.94527 0.0
H556 H 0.55738 0.56607 0.90418 0.0
H557 H 0.39165 0.43592 0.99601 0.0
H558 H 0.42996 0.43132 0.0131 0.0
H559 H 0.42551 0.46356 0.04796 0.0
H560 H 0.52908 0.44543 0.08211 0.0
H561 H 0.51933 0.52513 0.15937 0.0
H562 H 0.52241 0.46823 0.94319 0.0
H563 H 0.47948 0.43248 0.96573 0.0
H564 H 0.52178 0.4355 0.98619 0.0
H565 H 0.50725 0.56165 0.03796 0.0
H566 H 0.49957 0.55742 0.11098 0.0
H567 H 0.46309 0.52939 0.0624 0.0
C568 C 0.06496 0.58658 0.5427 0.0
C569 C 0.04157 0.55756 0.57428 0.0
C570 C 0.05556 0.58842 0.48754 0.0
C571 C 0.02216 0.56062 0.46428 0.0
C572 C -0.00343 0.53359 0.49836 0.0
C573 C 0.00669 0.53241 0.55302 0.0
C574 C 0.08312 0.6182 0.45318 0.0
C575 C 0.96022 0.50365 0.47567 0.0
C576 C 0.97504 0.5462 0.3263 0.0
C577 C 0.98063 0.52066 0.30468 0.0
C578 C 0.99273 0.56377 0.37579 0.0
C579 C 0.0163 0.55545 0.40375 0.0
C580 C 0.02664 0.53417 0.37737 0.0
C581 C 0.00872 0.51708 0.32787 0.0
C582 C 0.98238 0.5876 0.40139 0.0
C583 C 0.05268 0.52548 0.40504 0.0
H584 H 0.09202 0.60609 0.55918 0.0
H585 H 0.9885 0.5102 0.57784 0.0
H586 H 0.1019 0.6113 0.43472 0.0
H587 H 0.06945 0.62394 0.4192 0.0
H588 H 0.10017 0.64207 0.4789 0.0
H589 H 0.94196 0.487 0.50879 0.0
H590 H 0.94549 0.51338 0.45104 0.0
H591 H 0.96534 0.48723 0.44808 0.0
H592 H 0.95415 0.55001 0.30792 0.0
H593 H 0.01412 0.49825 0.31052 0.0
H594 H 0.00586 0.60892 0.4256 0.0
H595 H 0.95942 0.57252 0.4298 0.0
H596 H 0.97303 0.59903 0.36954 0.0
H597 H 0.07704 0.54913 0.42346 0.0
H598 H 0.06231 0.51332 0.37582 0.0
H599 H 0.03838 0.50699 0.43882 0.0
loop_
_geom_bond_atom_site_label_1
_geom_bond_atom_site_label_2
_geom_bond_distance
_geom_bond_site_symmetry_2
_ccdc_geom_bond_type
Mn0 O5 2.095 . S
Mn0 O15 2.162 . S
Mn0 O16 2.297 . S
Mn0 O24 2.385 . S
Mn0 O25 2.209 . S
Mn0 O26 2.094 . S
Mn1 O6 2.121 . S
Mn1 N8 2.257 . S
Mn1 N17 2.282 . S
Mn1 O25 2.215 . S
Mn1 O27 2.117 . S
C2 O24 1.234 . S
C2 O25 1.283 . S
C3 O15 1.281 . S
C3 O16 1.236 . S
C4 O26 1.240 . S
C4 O27 1.264 . S
O5 Mn0 2.095 . S
O5 C14 1.250 . S
O6 Mn1 2.121 . S
O6 C14 1.258 . S
C7 N8 1.326 . S
C7 C11 1.460 . S
C7 H13 0.929 . S
N8 Mn1 2.257 . S
N8 C7 1.326 . S
N8 C12 1.362 . S
C9 C10 1.258 . S
C9 C12 1.431 . S
C9 C29 1.449 . S
C10 C9 1.258 . S
C10 C11 1.477 . S
C10 H30 0.931 . S
C11 C7 1.460 . S
C11 C10 1.477 . S
C11 H31 0.930 . S
C12 N8 1.362 . S
C12 C9 1.431 . S
C12 C22 1.476 . S
H13 C7 0.929 . S
C14 O5 1.250 . S
C14 O6 1.258 . S
O15 Mn0 2.162 . S
O15 C3 1.281 . S
O16 Mn0 2.297 . S
O16 C3 1.236 . S
N17 Mn1 2.282 . S
N17 C18 1.328 . S
N17 C22 1.318 . S
C18 N17 1.328 . S
C18 C19 1.457 . S
C18 H23 0.929 . S
C19 C18 1.457 . S
C19 C20 1.291 . S
C19 H32 0.931 . S
C20 C19 1.291 . S
C20 C21 1.373 . S
C20 H33 0.929 . S
C21 C20 1.373 . S
C21 C22 1.396 . S
C21 C28 1.403 . S
C22 C12 1.476 . S
C22 N17 1.318 . S
C22 C21 1.396 . S
H23 C18 0.929 . S
O24 Mn0 2.385 . S
O24 C2 1.234 . S
O25 Mn0 2.209 . S
O25 Mn1 2.215 . S
O25 C2 1.283 . S
O26 Mn0 2.094 . S
O26 C4 1.240 . S
O27 Mn1 2.117 . S
O27 C4 1.264 . S
C28 C21 1.403 . S
C28 C29 1.399 . S
C28 H34 0.929 . S
C29 C9 1.449 . S
C29 C28 1.399 . S
C29 H35 0.930 . S
H30 C10 0.931 . S
H31 C11 0.930 . S
H32 C19 0.931 . S
H33 C20 0.929 . S
H34 C28 0.929 . S
H35 C29 0.930 . S
Mn36 O41 2.095 . S
Mn36 O51 2.162 . S
Mn36 O52 2.297 . S
Mn36 O60 2.385 . S
Mn36 O61 2.209 . S
Mn36 O62 2.094 . S
Mn37 O42 2.121 . S
Mn37 N44 2.257 . S
Mn37 N53 2.282 . S
Mn37 O61 2.215 . S
Mn37 O63 2.117 . S
C38 O60 1.234 . S
C38 O61 1.283 . S
C39 O51 1.281 . S
C39 O52 1.236 . S
C40 O62 1.240 . S
C40 O63 1.264 . S
O41 Mn36 2.095 . S
O41 C50 1.250 . S
O42 Mn37 2.121 . S
O42 C50 1.258 . S
C43 N44 1.326 . S
C43 C47 1.460 . S
C43 H49 0.929 . S
N44 Mn37 2.257 . S
N44 C43 1.326 . S
N44 C48 1.362 . S
C45 C46 1.258 . S
C45 C48 1.431 . S
C45 C65 1.449 . S
C46 C45 1.258 . S
C46 C47 1.477 . S
C46 H66 0.931 . S
C47 C43 1.460 . S
C47 C46 1.477 . S
C47 H67 0.930 . S
C48 N44 1.362 . S
C48 C45 1.431 . S
C48 C58 1.476 . S
H49 C43 0.929 . S
C50 O41 1.250 . S
C50 O42 1.258 . S
O51 Mn36 2.162 . S
O51 C39 1.281 . S
O52 Mn36 2.297 . S
O52 C39 1.236 . S
N53 Mn37 2.282 . S
N53 C54 1.328 . S
N53 C58 1.318 . S
C54 N53 1.328 . S
C54 C55 1.457 . S
C54 H59 0.929 . S
C55 C54 1.457 . S
C55 C56 1.291 . S
C55 H68 0.931 . S
C56 C55 1.291 . S
C56 C57 1.373 . S
C56 H69 0.929 . S
C57 C56 1.373 . S
C57 C58 1.396 . S
C57 C64 1.403 . S
C58 C48 1.476 . S
C58 N53 1.318 . S
C58 C57 1.396 . S
H59 C54 0.929 . S
O60 Mn36 2.385 . S
O60 C38 1.234 . S
O61 Mn36 2.209 . S
O61 Mn37 2.215 . S
O61 C38 1.283 . S
O62 Mn36 2.094 . S
O62 C40 1.240 . S
O63 Mn37 2.117 . S
O63 C40 1.264 . S
C64 C57 1.403 . S
C64 C65 1.399 . S
C64 H70 0.929 . S
C65 C45 1.449 . S
C65 C64 1.399 . S
C65 H71 0.930 . S
H66 C46 0.931 . S
H67 C47 0.930 . S
H68 C55 0.931 . S
H69 C56 0.929 . S
H70 C64 0.929 . S
H71 C65 0.930 . S
Mn72 O77 2.095 . S
Mn72 O87 2.162 . S
Mn72 O88 2.297 . S
Mn72 O96 2.385 . S
Mn72 O97 2.209 . S
Mn72 O98 2.094 . S
Mn73 O78 2.121 . S
Mn73 N80 2.257 . S
Mn73 N89 2.282 . S
Mn73 O97 2.215 . S
Mn73 O99 2.117 . S
C74 O96 1.234 . S
C74 O97 1.283 . S
C75 O87 1.281 . S
C75 O88 1.236 . S
C76 O98 1.240 . S
C76 O99 1.264 . S
O77 Mn72 2.095 . S
O77 C86 1.250 . S
O78 Mn73 2.121 . S
O78 C86 1.258 . S
C79 N80 1.326 . S
C79 C83 1.460 . S
C79 H85 0.929 . S
N80 Mn73 2.257 . S
N80 C79 1.326 . S
N80 C84 1.362 . S
C81 C82 1.258 . S
C81 C84 1.431 . S
C81 C101 1.449 . S
C82 C81 1.258 . S
C82 C83 1.477 . S
C82 H102 0.931 . S
C83 C79 1.460 . S
C83 C82 1.477 . S
C83 H103 0.930 . S
C84 N80 1.362 . S
C84 C81 1.431 . S
C84 C94 1.476 . S
H85 C79 0.929 . S
C86 O77 1.250 . S
C86 O78 1.258 . S
O87 Mn72 2.162 . S
O87 C75 1.281 . S
O88 Mn72 2.297 . S
O88 C75 1.236 . S
N89 Mn73 2.282 . S
N89 C90 1.328 . S
N89 C94 1.318 . S
C90 N89 1.328 . S
C90 C91 1.457 . S
C90 H95 0.929 . S
C91 C90 1.457 . S
C91 C92 1.291 . S
C91 H104 0.931 . S
C92 C91 1.291 . S
C92 C93 1.373 . S
C92 H105 0.929 . S
C93 C92 1.373 . S
C93 C94 1.396 . S
C93 C100 1.403 . S
C94 C84 1.476 . S
C94 N89 1.318 . S
C94 C93 1.396 . S
H95 C90 0.929 . S
O96 Mn72 2.385 . S
O96 C74 1.234 . S
O97 Mn72 2.209 . S
O97 Mn73 2.215 . S
O97 C74 1.283 . S
O98 Mn72 2.094 . S
O98 C76 1.240 . S
O99 Mn73 2.117 . S
O99 C76 1.264 . S
C100 C93 1.403 . S
C100 C101 1.399 . S
C100 H106 0.929 . S
C101 C81 1.449 . S
C101 C100 1.399 . S
C101 H107 0.930 . S
H102 C82 0.931 . S
H103 C83 0.930 . S
H104 C91 0.931 . S
H105 C92 0.929 . S
H106 C100 0.929 . S
H107 C101 0.930 . S
Mn108 O113 2.095 . S
Mn108 O123 2.162 . S
Mn108 O124 2.297 . S
Mn108 O132 2.385 . S
Mn108 O133 2.209 . S
Mn108 O134 2.094 . S
Mn109 O114 2.121 . S
Mn109 N116 2.257 . S
Mn109 N125 2.282 . S
Mn109 O133 2.215 . S
Mn109 O135 2.117 . S
C110 O132 1.234 . S
C110 O133 1.283 . S
C111 O123 1.281 . S
C111 O124 1.236 . S
C112 O134 1.240 . S
C112 O135 1.264 . S
O113 Mn108 2.095 . S
O113 C122 1.250 . S
O114 Mn109 2.121 . S
O114 C122 1.258 . S
C115 N116 1.326 . S
C115 C119 1.460 . S
C115 H121 0.929 . S
N116 Mn109 2.257 . S
N116 C115 1.326 . S
N116 C120 1.362 . S
C117 C118 1.258 . S
C117 C120 1.431 . S
C117 C137 1.449 . S
C118 C117 1.258 . S
C118 C119 1.477 . S
C118 H138 0.931 . S
C119 C115 1.460 . S
C119 C118 1.477 . S
C119 H139 0.930 . S
C120 N116 1.362 . S
C120 C117 1.431 . S
C120 C130 1.476 . S
H121 C115 0.929 . S
C122 O113 1.250 . S
C122 O114 1.258 . S
O123 Mn108 2.162 . S
O123 C111 1.281 . S
O124 Mn108 2.297 . S
O124 C111 1.236 . S
N125 Mn109 2.282 . S
N125 C126 1.328 . S
N125 C130 1.318 . S
C126 N125 1.328 . S
C126 C127 1.457 . S
C126 H131 0.929 . S
C127 C126 1.457 . S
C127 C128 1.291 . S
C127 H140 0.931 . S
C128 C127 1.291 . S
C128 C129 1.373 . S
C128 H141 0.929 . S
C129 C128 1.373 . S
C129 C130 1.396 . S
C129 C136 1.403 . S
C130 C120 1.476 . S
C130 N125 1.318 . S
C130 C129 1.396 . S
H131 C126 0.929 . S
O132 Mn108 2.385 . S
O132 C110 1.234 . S
O133 Mn108 2.209 . S
O133 Mn109 2.215 . S
O133 C110 1.283 . S
O134 Mn108 2.094 . S
O134 C112 1.240 . S
O135 Mn109 2.117 . S
O135 C112 1.264 . S
C136 C129 1.403 . S
C136 C137 1.399 . S
C136 H142 0.929 . S
C137 C117 1.449 . S
C137 C136 1.399 . S
C137 H143 0.930 . S
H138 C118 0.931 . S
H139 C119 0.930 . S
H140 C127 0.931 . S
H141 C128 0.929 . S
H142 C136 0.929 . S
H143 C137 0.930 . S
Mn144 O149 2.095 . S
Mn144 O159 2.162 . S
Mn144 O160 2.297 . S
Mn144 O168 2.385 . S
Mn144 O169 2.209 . S
Mn144 O170 2.094 . S
Mn145 O150 2.121 . S
Mn145 N152 2.257 . S
Mn145 N161 2.282 . S
Mn145 O169 2.215 . S
Mn145 O171 2.117 . S
C146 O168 1.234 . S
C146 O169 1.283 . S
C147 O159 1.281 . S
C147 O160 1.236 . S
C148 O170 1.240 . S
C148 O171 1.264 . S
O149 Mn144 2.095 . S
O149 C158 1.250 . S
O150 Mn145 2.121 . S
O150 C158 1.258 . S
C151 N152 1.326 . S
C151 C155 1.460 . S
C151 H157 0.929 . S
N152 Mn145 2.257 . S
N152 C151 1.326 . S
N152 C156 1.362 . S
C153 C154 1.258 . S
C153 C156 1.431 . S
C153 C173 1.449 . S
C154 C153 1.258 . S
C154 C155 1.477 . S
C154 H174 0.931 . S
C155 C151 1.460 . S
C155 C154 1.477 . S
C155 H175 0.930 . S
C156 N152 1.362 . S
C156 C153 1.431 . S
C156 C166 1.476 . S
H157 C151 0.929 . S
C158 O149 1.250 . S
C158 O150 1.258 . S
O159 Mn144 2.162 . S
O159 C147 1.281 . S
O160 Mn144 2.297 . S
O160 C147 1.236 . S
N161 Mn145 2.282 . S
N161 C162 1.328 . S
N161 C166 1.318 . S
C162 N161 1.328 . S
C162 C163 1.457 . S
C162 H167 0.929 . S
C163 C162 1.457 . S
C163 C164 1.291 . S
C163 H176 0.931 . S
C164 C163 1.291 . S
C164 C165 1.373 . S
C164 H177 0.929 . S
C165 C164 1.373 . S
C165 C166 1.396 . S
C165 C172 1.403 . S
C166 C156 1.476 . S
C166 N161 1.318 . S
C166 C165 1.396 . S
H167 C162 0.929 . S
O168 Mn144 2.385 . S
O168 C146 1.234 . S
O169 Mn144 2.209 . S
O169 Mn145 2.215 . S
O169 C146 1.283 . S
O170 Mn144 2.094 . S
O170 C148 1.240 . S
O171 Mn145 2.117 . S
O171 C148 1.264 . S
C172 C165 1.403 . S
C172 C173 1.399 . S
C172 H178 0.929 . S
C173 C153 1.449 . S
C173 C172 1.399 . S
C173 H179 0.930 . S
H174 C154 0.931 . S
H175 C155 0.930 . S
H176 C163 0.931 . S
H177 C164 0.929 . S
H178 C172 0.929 . S
H179 C173 0.930 . S
Mn180 O185 2.095 . S
Mn180 O195 2.162 . S
Mn180 O196 2.297 . S
Mn180 O204 2.385 . S
Mn180 O205 2.209 . S
Mn180 O206 2.094 . S
Mn181 O186 2.121 . S
Mn181 N188 2.257 . S
Mn181 N197 2.282 . S
Mn181 O205 2.215 . S
Mn181 O207 2.117 . S
C182 O204 1.234 . S
C182 O205 1.283 . S
C183 O195 1.281 . S
C183 O196 1.236 . S
C184 O206 1.240 . S
C184 O207 1.264 . S
O185 Mn180 2.095 . S
O185 C194 1.250 . S
O186 Mn181 2.121 . S
O186 C194 1.258 . S
C187 N188 1.326 . S
C187 C191 1.460 . S
C187 H193 0.929 . S
N188 Mn181 2.257 . S
N188 C187 1.326 . S
N188 C192 1.362 . S
C189 C190 1.258 . S
C189 C192 1.431 . S
C189 C209 1.449 . S
C190 C189 1.258 . S
C190 C191 1.477 . S
C190 H210 0.931 . S
C191 C187 1.460 . S
C191 C190 1.477 . S
C191 H211 0.930 . S
C192 N188 1.362 . S
C192 C189 1.431 . S
C192 C202 1.476 . S
H193 C187 0.929 . S
C194 O185 1.250 . S
C194 O186 1.258 . S
O195 Mn180 2.162 . S
O195 C183 1.281 . S
O196 Mn180 2.297 . S
O196 C183 1.236 . S
N197 Mn181 2.282 . S
N197 C198 1.328 . S
N197 C202 1.318 . S
C198 N197 1.328 . S
C198 C199 1.457 . S
C198 H203 0.929 . S
C199 C198 1.457 . S
C199 C200 1.291 . S
C199 H212 0.931 . S
C200 C199 1.291 . S
C200 C201 1.373 . S
C200 H213 0.929 . S
C201 C200 1.373 . S
C201 C202 1.396 . S
C201 C208 1.403 . S
C202 C192 1.476 . S
C202 N197 1.318 . S
C202 C201 1.396 . S
H203 C198 0.929 . S
O204 Mn180 2.385 . S
O204 C182 1.234 . S
O205 Mn180 2.209 . S
O205 Mn181 2.215 . S
O205 C182 1.283 . S
O206 Mn180 2.094 . S
O206 C184 1.240 . S
O207 Mn181 2.117 . S
O207 C184 1.264 . S
C208 C201 1.403 . S
C208 C209 1.399 . S
C208 H214 0.929 . S
C209 C189 1.449 . S
C209 C208 1.399 . S
C209 H215 0.930 . S
H210 C190 0.931 . S
H211 C191 0.930 . S
H212 C199 0.931 . S
H213 C200 0.929 . S
H214 C208 0.929 . S
H215 C209 0.930 . S
C216 C217 1.391 . S
C216 C218 1.394 . S
C216 H232 0.931 . S
C217 C216 1.391 . S
C217 C221 1.376 . S
C218 C216 1.394 . S
C218 C219 1.369 . S
C218 C222 1.531 . S
C219 C218 1.369 . S
C219 C220 1.410 . S
C219 C227 1.503 . S
C220 C219 1.410 . S
C220 C221 1.392 . S
C220 C223 1.511 . S
C221 C217 1.376 . S
C221 C220 1.392 . S
C221 H233 0.929 . S
C222 C218 1.531 . S
C222 H234 0.960 . S
C222 H235 0.962 . S
C222 H236 0.960 . S
C223 C220 1.511 . S
C223 H237 0.961 . S
C223 H238 0.961 . S
C223 H239 0.961 . S
C224 C225 1.370 . S
C224 C226 1.363 . S
C224 H240 0.931 . S
C225 C224 1.370 . S
C225 C229 1.408 . S
C226 C224 1.363 . S
C226 C227 1.370 . S
C226 C230 1.524 . S
C227 C219 1.503 . S
C227 C226 1.370 . S
C227 C228 1.403 . S
C228 C227 1.403 . S
C228 C229 1.404 . S
C228 C231 1.539 . S
C229 C225 1.408 . S
C229 C228 1.404 . S
C229 H241 0.930 . S
C230 C226 1.524 . S
C230 H242 0.956 . S
C230 H243 0.961 . S
C230 H244 0.961 . S
C231 C228 1.539 . S
C231 H245 0.958 . S
C231 H246 0.961 . S
C231 H247 0.960 . S
H232 C216 0.931 . S
H233 C221 0.929 . S
H234 C222 0.960 . S
H235 C222 0.962 . S
H236 C222 0.960 . S
H237 C223 0.961 . S
H238 C223 0.961 . S
H239 C223 0.961 . S
H240 C224 0.931 . S
H241 C229 0.930 . S
H242 C230 0.956 . S
H243 C230 0.961 . S
H244 C230 0.961 . S
H245 C231 0.958 . S
H246 C231 0.961 . S
H247 C231 0.960 . S
C248 C249 1.391 . S
C248 C250 1.394 . S
C248 H264 0.931 . S
C249 C248 1.391 . S
C249 C253 1.376 . S
C250 C248 1.394 . S
C250 C251 1.369 . S
C250 C254 1.531 . S
C251 C250 1.369 . S
C251 C252 1.410 . S
C251 C259 1.503 . S
C252 C251 1.410 . S
C252 C253 1.392 . S
C252 C255 1.511 . S
C253 C249 1.376 . S
C253 C252 1.392 . S
C253 H265 0.929 . S
C254 C250 1.531 . S
C254 H266 0.960 . S
C254 H267 0.962 . S
C254 H268 0.960 . S
C255 C252 1.511 . S
C255 H269 0.961 . S
C255 H270 0.961 . S
C255 H271 0.961 . S
C256 C257 1.370 . S
C256 C258 1.363 . S
C256 H272 0.931 . S
C257 C256 1.370 . S
C257 C261 1.408 . S
C258 C256 1.363 . S
C258 C259 1.370 . S
C258 C262 1.524 . S
C259 C251 1.503 . S
C259 C258 1.370 . S
C259 C260 1.403 . S
C260 C259 1.403 . S
C260 C261 1.404 . S
C260 C263 1.539 . S
C261 C257 1.408 . S
C261 C260 1.404 . S
C261 H273 0.930 . S
C262 C258 1.524 . S
C262 H274 0.956 . S
C262 H275 0.961 . S
C262 H276 0.961 . S
C263 C260 1.539 . S
C263 H277 0.958 . S
C263 H278 0.961 . S
C263 H279 0.960 . S
H264 C248 0.931 . S
H265 C253 0.929 . S
H266 C254 0.960 . S
H267 C254 0.962 . S
H268 C254 0.960 . S
H269 C255 0.961 . S
H270 C255 0.961 . S
H271 C255 0.961 . S
H272 C256 0.931 . S
H273 C261 0.930 . S
H274 C262 0.956 . S
H275 C262 0.961 . S
H276 C262 0.961 . S
H277 C263 0.958 . S
H278 C263 0.961 . S
H279 C263 0.960 . S
C280 C281 1.391 . S
C280 C282 1.394 . S
C280 H296 0.931 . S
C281 C280 1.391 . S
C281 C285 1.376 . S
C282 C280 1.394 . S
C282 C283 1.369 . S
C282 C286 1.531 . S
C283 C282 1.369 . S
C283 C284 1.410 . S
C283 C291 1.503 . S
C284 C283 1.410 . S
C284 C285 1.392 . S
C284 C287 1.511 . S
C285 C281 1.376 . S
C285 C284 1.392 . S
C285 H297 0.929 . S
C286 C282 1.531 . S
C286 H298 0.960 . S
C286 H299 0.962 . S
C286 H300 0.960 . S
C287 C284 1.511 . S
C287 H301 0.961 . S
C287 H302 0.961 . S
C287 H303 0.961 . S
C288 C289 1.370 . S
C288 C290 1.363 . S
C288 H304 0.931 . S
C289 C288 1.370 . S
C289 C293 1.408 . S
C290 C288 1.363 . S
C290 C291 1.370 . S
C290 C294 1.524 . S
C291 C283 1.503 . S
C291 C290 1.370 . S
C291 C292 1.403 . S
C292 C291 1.403 . S
C292 C293 1.404 . S
C292 C295 1.539 . S
C293 C289 1.408 . S
C293 C292 1.404 . S
C293 H305 0.930 . S
C294 C290 1.524 . S
C294 H306 0.956 . S
C294 H307 0.961 . S
C294 H308 0.961 . S
C295 C292 1.539 . S
C295 H309 0.958 . S
C295 H310 0.961 . S
C295 H311 0.960 . S
H296 C280 0.931 . S
H297 C285 0.929 . S
H298 C286 0.960 . S
H299 C286 0.962 . S
H300 C286 0.960 . S
H301 C287 0.961 . S
H302 C287 0.961 . S
H303 C287 0.961 . S
H304 C288 0.931 . S
H305 C293 0.930 . S
H306 C294 0.956 . S
H307 C294 0.961 . S
H308 C294 0.961 . S
H309 C295 0.958 . S
H310 C295 0.961 . S
H311 C295 0.960 . S
C312 C313 1.391 . S
C312 C314 1.394 . S
C312 H328 0.931 . S
C313 C312 1.391 . S
C313 C317 1.376 . S
C314 C312 1.394 . S
C314 C315 1.369 . S
C314 C318 1.531 . S
C315 C314 1.369 . S
C315 C316 1.410 . S
C315 C323 1.503 . S
C316 C315 1.410 . S
C316 C317 1.392 . S
C316 C319 1.511 . S
C317 C313 1.376 . S
C317 C316 1.392 . S
C317 H329 0.929 . S
C318 C314 1.531 . S
C318 H330 0.960 . S
C318 H331 0.962 . S
C318 H332 0.960 . S
C319 C316 1.511 . S
C319 H333 0.961 . S
C319 H334 0.961 . S
C319 H335 0.961 . S
C320 C321 1.370 . S
C320 C322 1.363 . S
C320 H336 0.931 . S
C321 C320 1.370 . S
C321 C325 1.408 . S
C322 C320 1.363 . S
C322 C323 1.370 . S
C322 C326 1.524 . S
C323 C315 1.503 . S
C323 C322 1.370 . S
C323 C324 1.403 . S
C324 C323 1.403 . S
C324 C325 1.404 . S
C324 C327 1.539 . S
C325 C321 1.408 . S
C325 C324 1.404 . S
C325 H337 0.930 . S
C326 C322 1.524 . S
C326 H338 0.956 . S
C326 H339 0.961 . S
C326 H340 0.961 . S
C327 C324 1.539 . S
C327 H341 0.958 . S
C327 H342 0.961 . S
C327 H343 0.960 . S
H328 C312 0.931 . S
H329 C317 0.929 . S
H330 C318 0.960 . S
H331 C318 0.962 . S
H332 C318 0.960 . S
H333 C319 0.961 . S
H334 C319 0.961 . S
H335 C319 0.961 . S
H336 C320 0.931 . S
H337 C325 0.930 . S
H338 C326 0.956 . S
H339 C326 0.961 . S
H340 C326 0.961 . S
H341 C327 0.958 . S
H342 C327 0.961 . S
H343 C327 0.960 . S
C344 C345 1.391 . S
C344 C346 1.394 . S
C344 H360 0.931 . S
C345 C344 1.391 . S
C345 C349 1.376 . S
C346 C344 1.394 . S
C346 C347 1.369 . S
C346 C350 1.531 . S
C347 C346 1.369 . S
C347 C348 1.410 . S
C347 C355 1.503 . S
C348 C347 1.410 . S
C348 C349 1.392 . S
C348 C351 1.511 . S
C349 C345 1.376 . S
C349 C348 1.392 . S
C349 H361 0.929 . S
C350 C346 1.531 . S
C350 H362 0.960 . S
C350 H363 0.962 . S
C350 H364 0.960 . S
C351 C348 1.511 . S
C351 H365 0.961 . S
C351 H366 0.961 . S
C351 H367 0.961 . S
C352 C353 1.370 . S
C352 C354 1.363 . S
C352 H368 0.931 . S
C353 C352 1.370 . S
C353 C357 1.408 . S
C354 C352 1.363 . S
C354 C355 1.370 . S
C354 C358 1.524 . S
C355 C347 1.503 . S
C355 C354 1.370 . S
C355 C356 1.403 . S
C356 C355 1.403 . S
C356 C357 1.404 . S
C356 C359 1.539 . S
C357 C353 1.408 . S
C357 C356 1.404 . S
C357 H369 0.930 . S
C358 C354 1.524 . S
C358 H370 0.956 . S
C358 H371 0.961 . S
C358 H372 0.961 . S
C359 C356 1.539 . S
C359 H373 0.958 . S
C359 H374 0.961 . S
C359 H375 0.960 . S
H360 C344 0.931 . S
H361 C349 0.929 . S
H362 C350 0.960 . S
H363 C350 0.962 . S
H364 C350 0.960 . S
H365 C351 0.961 . S
H366 C351 0.961 . S
H367 C351 0.961 . S
H368 C352 0.931 . S
H369 C357 0.930 . S
H370 C358 0.956 . S
H371 C358 0.961 . S
H372 C358 0.961 . S
H373 C359 0.958 . S
H374 C359 0.961 . S
H375 C359 0.960 . S
C376 C377 1.391 . S
C376 C378 1.394 . S
C376 H392 0.931 . S
C377 C376 1.391 . S
C377 C381 1.376 . S
C378 C376 1.394 . S
C378 C379 1.369 . S
C378 C382 1.531 . S
C379 C378 1.369 . S
C379 C380 1.410 . S
C379 C387 1.503 . S
C380 C379 1.410 . S
C380 C381 1.392 . S
C380 C383 1.511 . S
C381 C377 1.376 . S
C381 C380 1.392 . S
C381 H393 0.929 . S
C382 C378 1.531 . S
C382 H394 0.960 . S
C382 H395 0.962 . S
C382 H396 0.960 . S
C383 C380 1.511 . S
C383 H397 0.961 . S
C383 H398 0.961 . S
C383 H399 0.961 . S
C384 C385 1.370 . S
C384 C386 1.363 . S
C384 H400 0.931 . S
C385 C384 1.370 . S
C385 C389 1.408 . S
C386 C384 1.363 . S
C386 C387 1.370 . S
C386 C390 1.524 . S
C387 C379 1.503 . S
C387 C386 1.370 . S
C387 C388 1.403 . S
C388 C387 1.403 . S
C388 C389 1.404 . S
C388 C391 1.539 . S
C389 C385 1.408 . S
C389 C388 1.404 . S
C389 H401 0.930 . S
C390 C386 1.524 . S
C390 H402 0.956 . S
C390 H403 0.961 . S
C390 H404 0.961 . S
C391 C388 1.539 . S
C391 H405 0.958 . S
C391 H406 0.961 . S
C391 H407 0.960 . S
H392 C376 0.931 . S
H393 C381 0.929 . S
H394 C382 0.960 . S
H395 C382 0.962 . S
H396 C382 0.960 . S
H397 C383 0.961 . S
H398 C383 0.961 . S
H399 C383 0.961 . S
H400 C384 0.931 . S
H401 C389 0.930 . S
H402 C390 0.956 . S
H403 C390 0.961 . S
H404 C390 0.961 . S
H405 C391 0.958 . S
H406 C391 0.961 . S
H407 C391 0.960 . S
C408 C409 1.391 . S
C408 C410 1.394 1_565 S
C408 H424 0.931 . S
C409 C408 1.391 . S
C409 C413 1.376 . S
C410 C408 1.394 1_545 S
C410 C411 1.369 . S
C410 C414 1.531 . S
C411 C410 1.369 . S
C411 C412 1.410 1_545 S
C411 C419 1.503 1_556 S
C412 C411 1.410 1_565 S
C412 C413 1.392 . S
C412 C415 1.511 . S
C413 C409 1.376 . S
C413 C412 1.392 . S
C413 H425 0.929 . S
C414 C410 1.531 . S
C414 H426 0.960 . S
C414 H427 0.962 . S
C414 H428 0.960 . S
C415 C412 1.511 . S
C415 H429 0.961 . S
C415 H430 0.961 1_556 S
C415 H431 0.961 . S
C416 C417 1.370 . S
C416 C418 1.363 . S
C416 H432 0.931 . S
C417 C416 1.370 . S
C417 C421 1.408 . S
C418 C416 1.363 . S
C418 C419 1.370 . S
C418 C422 1.524 1_545 S
C419 C411 1.503 1_554 S
C419 C418 1.370 . S
C419 C420 1.403 . S
C420 C419 1.403 . S
C420 C421 1.404 . S
C420 C423 1.539 1_554 S
C421 C417 1.408 . S
C421 C420 1.404 . S
C421 H433 0.930 . S
C422 C418 1.524 1_565 S
C422 H434 0.956 . S
C422 H435 0.961 . S
C422 H436 0.961 . S
C423 C420 1.539 1_556 S
C423 H437 0.958 . S
C423 H438 0.961 . S
C423 H439 0.960 . S
H424 C408 0.931 . S
H425 C413 0.929 . S
H426 C414 0.960 . S
H427 C414 0.962 . S
H428 C414 0.960 . S
H429 C415 0.961 . S
H430 C415 0.961 1_554 S
H431 C415 0.961 . S
H432 C416 0.931 . S
H433 C421 0.930 . S
H434 C422 0.956 . S
H435 C422 0.961 . S
H436 C422 0.961 . S
H437 C423 0.958 . S
H438 C423 0.961 . S
H439 C423 0.960 . S
C440 C441 1.391 . S
C440 C442 1.394 . S
C440 H456 0.931 . S
C441 C440 1.391 . S
C441 C445 1.376 . S
C442 C440 1.394 . S
C442 C443 1.369 . S
C442 C446 1.531 . S
C443 C442 1.369 . S
C443 C444 1.410 . S
C443 C451 1.503 . S
C444 C443 1.410 . S
C444 C445 1.392 . S
C444 C447 1.511 . S
C445 C441 1.376 . S
C445 C444 1.392 . S
C445 H457 0.929 . S
C446 C442 1.531 . S
C446 H458 0.960 . S
C446 H459 0.962 . S
C446 H460 0.960 . S
C447 C444 1.511 . S
C447 H461 0.961 . S
C447 H462 0.961 . S
C447 H463 0.961 . S
C448 C449 1.370 . S
C448 C450 1.363 . S
C448 H464 0.931 . S
C449 C448 1.370 . S
C449 C453 1.408 . S
C450 C448 1.363 . S
C450 C451 1.370 . S
C450 C454 1.524 . S
C451 C443 1.503 . S
C451 C450 1.370 . S
C451 C452 1.403 . S
C452 C451 1.403 . S
C452 C453 1.404 . S
C452 C455 1.539 . S
C453 C449 1.408 . S
C453 C452 1.404 . S
C453 H465 0.930 . S
C454 C450 1.524 . S
C454 H466 0.956 . S
C454 H467 0.961 . S
C454 H468 0.961 . S
C455 C452 1.539 . S
C455 H469 0.958 . S
C455 H470 0.961 . S
C455 H471 0.960 . S
H456 C440 0.931 . S
H457 C445 0.929 . S
H458 C446 0.960 . S
H459 C446 0.962 . S
H460 C446 0.960 . S
H461 C447 0.961 . S
H462 C447 0.961 . S
H463 C447 0.961 . S
H464 C448 0.931 . S
H465 C453 0.930 . S
H466 C454 0.956 . S
H467 C454 0.961 . S
H468 C454 0.961 . S
H469 C455 0.958 . S
H470 C455 0.961 . S
H471 C455 0.960 . S
C472 C473 1.391 . S
C472 C474 1.394 . S
C472 H488 0.931 . S
C473 C472 1.391 . S
C473 C477 1.376 . S
C474 C472 1.394 . S
C474 C475 1.369 . S
C474 C478 1.531 1_556 S
C475 C474 1.369 . S
C475 C476 1.410 1_455 S
C475 C483 1.503 1_456 S
C476 C475 1.410 1_655 S
C476 C477 1.392 1_655 S
C476 C479 1.511 . S
C477 C473 1.376 . S
C477 C476 1.392 1_455 S
C477 H489 0.929 . S
C478 C474 1.531 1_554 S
C478 H490 0.960 . S
C478 H491 0.962 . S
C478 H492 0.960 . S
C479 C476 1.511 . S
C479 H493 0.961 . S
C479 H494 0.961 . S
C479 H495 0.961 . S
C480 C481 1.370 . S
C480 C482 1.363 . S
C480 H496 0.931 . S
C481 C480 1.370 . S
C481 C485 1.408 . S
C482 C480 1.363 . S
C482 C483 1.370 . S
C482 C486 1.524 1_655 S
C483 C475 1.503 1_654 S
C483 C482 1.370 . S
C483 C484 1.403 . S
C484 C483 1.403 . S
C484 C485 1.404 . S
C484 C487 1.539 1_554 S
C485 C481 1.408 . S
C485 C484 1.404 . S
C485 H497 0.930 . S
C486 C482 1.524 1_455 S
C486 H498 0.956 . S
C486 H499 0.961 . S
C486 H500 0.961 . S
C487 C484 1.539 1_556 S
C487 H501 0.958 1_556 S
C487 H502 0.961 . S
C487 H503 0.960 . S
H488 C472 0.931 . S
H489 C477 0.929 . S
H490 C478 0.960 . S
H491 C478 0.962 . S
H492 C478 0.960 . S
H493 C479 0.961 . S
H494 C479 0.961 . S
H495 C479 0.961 . S
H496 C480 0.931 . S
H497 C485 0.930 . S
H498 C486 0.956 . S
H499 C486 0.961 . S
H500 C486 0.961 . S
H501 C487 0.958 1_554 S
H502 C487 0.961 . S
H503 C487 0.960 . S
C504 C505 1.391 . S
C504 C506 1.394 . S
C504 H520 0.931 . S
C505 C504 1.391 . S
C505 C509 1.376 . S
C506 C504 1.394 . S
C506 C507 1.369 . S
C506 C510 1.531 . S
C507 C506 1.369 . S
C507 C508 1.410 1_545 S
C507 C515 1.503 1_545 S
C508 C507 1.410 1_565 S
C508 C509 1.392 1_565 S
C508 C511 1.511 . S
C509 C505 1.376 . S
C509 C508 1.392 1_545 S
C509 H521 0.929 . S
C510 C506 1.531 . S
C510 H522 0.960 . S
C510 H523 0.962 . S
C510 H524 0.960 . S
C511 C508 1.511 . S
C511 H525 0.961 . S
C511 H526 0.961 . S
C511 H527 0.961 . S
C512 C513 1.370 . S
C512 C514 1.363 . S
C512 H528 0.931 . S
C513 C512 1.370 . S
C513 C517 1.408 . S
C514 C512 1.363 . S
C514 C515 1.370 . S
C514 C518 1.524 1_565 S
C515 C507 1.503 1_565 S
C515 C514 1.370 . S
C515 C516 1.403 . S
C516 C515 1.403 . S
C516 C517 1.404 . S
C516 C519 1.539 . S
C517 C513 1.408 . S
C517 C516 1.404 . S
C517 H529 0.930 . S
C518 C514 1.524 1_545 S
C518 H530 0.956 . S
C518 H531 0.961 . S
C518 H532 0.961 . S
C519 C516 1.539 . S
C519 H533 0.958 . S
C519 H534 0.961 . S
C519 H535 0.960 . S
H520 C504 0.931 . S
H521 C509 0.929 . S
H522 C510 0.960 . S
H523 C510 0.962 . S
H524 C510 0.960 . S
H525 C511 0.961 . S
H526 C511 0.961 . S
H527 C511 0.961 . S
H528 C512 0.931 . S
H529 C517 0.930 . S
H530 C518 0.956 . S
H531 C518 0.961 . S
H532 C518 0.961 . S
H533 C519 0.958 . S
H534 C519 0.961 . S
H535 C519 0.960 . S
C536 C537 1.391 . S
C536 C538 1.394 . S
C536 H552 0.931 . S
C537 C536 1.391 . S
C537 C541 1.376 . S
C538 C536 1.394 . S
C538 C539 1.369 . S
C538 C542 1.531 . S
C539 C538 1.369 . S
C539 C540 1.410 . S
C539 C547 1.503 1_556 S
C540 C539 1.410 . S
C540 C541 1.392 . S
C540 C543 1.511 . S
C541 C537 1.376 . S
C541 C540 1.392 . S
C541 H553 0.929 . S
C542 C538 1.531 . S
C542 H554 0.947 1_556 S
C542 H555 0.962 . S
C542 H556 0.960 . S
C543 C540 1.511 . S
C543 H557 0.961 . S
C543 H558 0.961 . S
C543 H559 0.961 1_556 S
C544 C545 1.370 . S
C544 C546 1.363 . S
C544 H560 0.931 . S
C545 C544 1.370 . S
C545 C549 1.408 . S
C546 C544 1.363 . S
C546 C547 1.370 . S
C546 C550 1.524 1_554 S
C547 C539 1.503 1_554 S
C547 C546 1.370 . S
C547 C548 1.403 . S
C548 C547 1.403 . S
C548 C549 1.404 . S
C548 C551 1.539 . S
C549 C545 1.408 . S
C549 C548 1.404 . S
C549 H561 0.930 . S
C550 C546 1.524 1_556 S
C550 H562 0.956 . S
C550 H563 0.961 . S
C550 H564 0.961 . S
C551 C548 1.539 . S
C551 H565 0.958 . S
C551 H566 0.961 . S
C551 H567 0.960 . S
H552 C536 0.931 . S
H553 C541 0.929 . S
H554 C542 0.947 1_554 S
H555 C542 0.962 . S
H556 C542 0.960 . S
H557 C543 0.961 . S
H558 C543 0.961 . S
H559 C543 0.961 1_554 S
H560 C544 0.931 . S
H561 C549 0.930 . S
H562 C550 0.956 . S
H563 C550 0.961 . S
H564 C550 0.961 . S
H565 C551 0.958 . S
H566 C551 0.961 . S
H567 C551 0.960 . S
C568 C569 1.391 . S
C568 C570 1.394 . S
C568 H584 0.931 . S
C569 C568 1.391 . S
C569 C573 1.376 . S
C570 C568 1.394 . S
C570 C571 1.369 . S
C570 C574 1.531 . S
C571 C570 1.369 . S
C571 C572 1.410 1_455 S
C571 C579 1.503 1_455 S
C572 C571 1.410 1_655 S
C572 C573 1.392 1_655 S
C572 C575 1.511 . S
C573 C569 1.376 . S
C573 C572 1.392 1_455 S
C573 H585 0.929 . S
C574 C570 1.531 . S
C574 H586 0.960 . S
C574 H587 0.962 . S
C574 H588 0.960 . S
C575 C572 1.511 . S
C575 H589 0.961 . S
C575 H590 0.961 . S
C575 H591 0.961 . S
C576 C577 1.370 . S
C576 C578 1.363 . S
C576 H592 0.931 . S
C577 C576 1.370 . S
C577 C581 1.408 . S
C578 C576 1.363 . S
C578 C579 1.370 . S
C578 C582 1.524 1_655 S
C579 C571 1.503 1_655 S
C579 C578 1.370 . S
C579 C580 1.403 . S
C580 C579 1.403 . S
C580 C581 1.404 . S
C580 C583 1.539 . S
C581 C577 1.408 . S
C581 C580 1.404 . S
C581 H593 0.930 . S
C582 C578 1.524 1_455 S
C582 H594 0.956 . S
C582 H595 0.961 . S
C582 H596 0.961 . S
C583 C580 1.539 . S
C583 H597 0.958 . S
C583 H598 0.961 . S
C583 H599 0.960 . S
H584 C568 0.931 . S
H585 C573 0.929 . S
H586 C574 0.960 . S
H587 C574 0.962 . S
H588 C574 0.960 . S
H589 C575 0.961 . S
H590 C575 0.961 . S
H591 C575 0.961 . S
H592 C576 0.931 . S
H593 C581 0.930 . S
H594 C582 0.956 . S
H595 C582 0.961 . S
H596 C582 0.961 . S
H597 C583 0.958 . S
H598 C583 0.961 . S
H599 C583 0.960 . S
C217 C3 1.008 . S
C225 C147 1.031 . S
C249 C38 1.045 . S
C257 C182 1.047 . S
C281 C2 1.029 . S
C289 C74 1.043 . S
C313 C111 0.982 . S
C321 C39 1.031 . S
C345 C146 1.022 . S
C353 C75 1.036 . S
C377 C110 1.024 . S
C385 C183 1.046 . S
C409 C112 1.379 . S
C417 C14 1.342 . S
C441 C158 1.349 . S
C449 C40 1.401 . S
C473 C184 1.411 . S
C481 C76 1.409 . S
C505 C4 1.405 . S
C513 C122 1.320 . S
C537 C50 1.350 . S
C545 C148 1.385 . S
C569 C194 1.289 . S
C577 C86 1.323 . S
