# Generated by pormake.
# Topology crb, (4)-cn, num edge types: 1
# Building blocks:
#     Node 0, Type 0, BuildingBlock: QUQFOY_clean_sbu_3, # of connection points: 4
#     Node 1, Type 0, BuildingBlock: QUQFOY_clean_sbu_3, # of connection points: 4
#     Node 2, Type 0, BuildingBlock: QUQFOY_clean_sbu_3, # of connection points: 4
#     Node 3, Type 0, BuildingBlock: QUQFOY_clean_sbu_3, # of connection points: 4
#     Node 4, Type 0, BuildingBlock: QUQFOY_clean_sbu_3, # of connection points: 4
#     Node 5, Type 0, BuildingBlock: QUQFOY_clean_sbu_3, # of connection points: 4
#     Node 6, Type 0, BuildingBlock: QUQFOY_clean_sbu_3, # of connection points: 4
#     Node 7, Type 0, BuildingBlock: QUQFOY_clean_sbu_3, # of connection points: 4
#     Edge 8, Type (0, 0), BuildingBlock: XIVTED_clean_linker_0, # of connection points: 2
#     Edge 9, Type (0, 0), BuildingBlock: XIVTED_clean_linker_0, # of connection points: 2
#     Edge 10, Type (0, 0), BuildingBlock: XIVTED_clean_linker_0, # of connection points: 2
#     Edge 11, Type (0, 0), BuildingBlock: XIVTED_clean_linker_0, # of connection points: 2
#     Edge 12, Type (0, 0), BuildingBlock: XIVTED_clean_linker_0, # of connection points: 2
#     Edge 13, Type (0, 0), BuildingBlock: XIVTED_clean_linker_0, # of connection points: 2
#     Edge 14, Type (0, 0), BuildingBlock: XIVTED_clean_linker_0, # of connection points: 2
#     Edge 15, Type (0, 0), BuildingBlock: XIVTED_clean_linker_0, # of connection points: 2
#     Edge 16, Type (0, 0), BuildingBlock: XIVTED_clean_linker_0, # of connection points: 2
#     Edge 17, Type (0, 0), BuildingBlock: XIVTED_clean_linker_0, # of connection points: 2
#     Edge 18, Type (0, 0), BuildingBlock: XIVTED_clean_linker_0, # of connection points: 2
#     Edge 19, Type (0, 0), BuildingBlock: XIVTED_clean_linker_0, # of connection points: 2
#     Edge 20, Type (0, 0), BuildingBlock: XIVTED_clean_linker_0, # of connection points: 2
#     Edge 21, Type (0, 0), BuildingBlock: XIVTED_clean_linker_0, # of connection points: 2
#     Edge 22, Type (0, 0), BuildingBlock: XIVTED_clean_linker_0, # of connection points: 2
#     Edge 23, Type (0, 0), BuildingBlock: XIVTED_clean_linker_0, # of connection points: 2
# Relax obj value: 0.113
# Max RMSD: 0.155
# Mean RMSD: 0.155
data_MOF--net-crb--node1-QUQFOY_clean_sbu_3--edge1-XIVTED_clean_linker_0
_symmetry_space_group_name_H-M    P1
_symmetry_Int_Tables_number       1
_symmetry_cell_setting            triclinic
loop_
_symmetry_equiv_pos_as_xyz
'x, y, z'
_cell_length_a     46.128171
_cell_length_b     45.289496
_cell_length_c     24.618005
_cell_angle_alpha  90.057779
_cell_angle_beta   90.269534
_cell_angle_gamma 90.656735
loop_
_atom_site_label
_atom_site_type_symbol
_atom_site_fract_x
_atom_site_fract_y
_atom_site_fract_z
_atom_type_partial_charge
C0 C 0.37373 0.3106 0.05225 0.0
O1 O 0.3657 0.31424 0.10105 0.0
Cd2 Cd 0.31624 0.31773 0.12793 0.0
O3 O 0.35509 0.30841 0.01399 0.0
Cd4 Cd 0.30144 0.30887 0.00491 0.0
C5 C 0.29727 0.37836 0.05478 0.0
O6 O 0.29266 0.27714 0.08191 0.0
O7 O 0.25451 0.29787 0.0496 0.0
O8 O 0.30464 0.27396 0.92896 0.0
C9 C 0.26533 0.27896 0.08146 0.0
O10 O 0.30112 0.36759 0.10197 0.0
C11 C 0.28834 0.28881 0.89779 0.0
O12 O 0.2981 0.36191 0.01302 0.0
O13 O 0.27878 0.31294 0.91634 0.0
C14 C 0.58687 0.30884 0.9754 0.0
O15 O 0.59516 0.31235 0.9267 0.0
Cd16 Cd 0.64489 0.31631 0.90086 0.0
O17 O 0.60531 0.30685 0.01394 0.0
Cd18 Cd 0.65884 0.3075 0.02435 0.0
C19 C 0.6641 0.37708 0.97469 0.0
O20 O 0.668 0.27607 0.94729 0.0
O21 O 0.70602 0.29719 0.98136 0.0
O22 O 0.65472 0.27258 0.10008 0.0
C23 C 0.69534 0.27829 0.94876 0.0
O24 O 0.6602 0.36648 0.92727 0.0
C25 C 0.67073 0.28779 0.13186 0.0
O26 O 0.66304 0.36043 0.01613 0.0
O27 O 0.68058 0.31209 0.11368 0.0
C28 C 0.58726 0.66305 0.0587 0.0
O29 O 0.59693 0.65787 0.10606 0.0
Cd30 Cd 0.64738 0.65269 0.12566 0.0
O31 O 0.60457 0.66607 0.01881 0.0
Cd32 Cd 0.65757 0.66535 0.0028 0.0
C33 C 0.66365 0.59452 0.04316 0.0
O34 O 0.67086 0.69377 0.08187 0.0
O35 O 0.7066 0.67197 0.04296 0.0
O36 O 0.65595 0.70658 0.93952 0.0
C37 C 0.69797 0.69064 0.07757 0.0
O38 O 0.66109 0.60396 0.09161 0.0
C39 C 0.66593 0.69234 0.89949 0.0
O40 O 0.66159 0.61209 0.00313 0.0
O41 O 0.6714 0.66525 0.90706 0.0
C42 C 0.37227 0.66612 -0.00024 0.0
O43 O 0.36298 0.66287 0.95146 0.0
Cd44 Cd 0.31301 0.65864 0.92736 0.0
O45 O 0.35463 0.66766 0.0394 0.0
Cd46 Cd 0.30114 0.66632 0.05152 0.0
C47 C 0.29579 0.59707 0.00015 0.0
O48 O 0.29064 0.69836 0.97598 0.0
O49 O 0.25327 0.67612 0.00926 0.0
O50 O 0.30521 0.70079 0.1283 0.0
C51 C 0.26336 0.69568 0.97758 0.0
O52 O 0.29853 0.60818 0.95294 0.0
C53 C 0.28983 0.68496 0.15982 0.0
O54 O 0.29757 0.61333 0.04212 0.0
O55 O 0.28043 0.66056 0.14105 0.0
C56 C 0.87097 0.80748 0.56119 0.0
O57 O 0.86138 0.8139 0.60807 0.0
Cd58 Cd 0.81148 0.81958 0.63354 0.0
O59 O 0.85377 0.80345 0.52103 0.0
Cd60 Cd 0.80111 0.80422 0.50119 0.0
C61 C 0.7942 0.87573 0.54646 0.0
O62 O 0.78945 0.78008 0.58444 0.0
O63 O 0.75239 0.78766 0.53324 0.0
O64 O 0.80709 0.76801 0.42793 0.0
C65 C 0.76235 0.77808 0.57779 0.0
O66 O 0.79774 0.86725 0.59535 0.0
C67 C 0.79404 0.7837 0.39286 0.0
O68 O 0.79562 0.85753 0.50717 0.0
O69 O 0.78509 0.80871 0.40841 0.0
C70 C 0.08519 0.80454 0.49673 0.0
O71 O 0.09449 0.80804 0.44868 0.0
Cd72 Cd 0.14451 0.81293 0.42601 0.0
O73 O 0.1028 0.803 0.5367 0.0
Cd74 Cd 0.15624 0.80451 0.55024 0.0
C75 C 0.16131 0.87412 0.50094 0.0
O76 O 0.16723 0.77311 0.47402 0.0
O77 O 0.2043 0.79531 0.50931 0.0
O78 O 0.15191 0.76943 0.62582 0.0
C79 C 0.19449 0.77599 0.47661 0.0
O80 O 0.15857 0.86331 0.4534 0.0
C81 C 0.16717 0.785 0.65829 0.0
O82 O 0.15964 0.85757 0.54245 0.0
O83 O 0.17662 0.80956 0.64056 0.0
C84 C 0.08493 0.16119 0.55173 0.0
O85 O 0.09333 0.15735 0.60039 0.0
Cd86 Cd 0.14297 0.15348 0.62665 0.0
O87 O 0.10328 0.16348 0.51332 0.0
Cd88 Cd 0.15687 0.16304 0.50372 0.0
C89 C 0.16108 0.09321 0.55164 0.0
O90 O 0.16639 0.19425 0.58146 0.0
O91 O 0.20417 0.17351 0.54827 0.0
O92 O 0.15318 0.19849 0.42875 0.0
C93 C 0.1937 0.19228 0.58069 0.0
O94 O 0.15756 0.10371 0.59912 0.0
C95 C 0.16935 0.18391 0.39715 0.0
O96 O 0.1601 0.10994 0.51031 0.0
O97 O 0.17902 0.15964 0.41498 0.0
C98 C 0.87122 0.16105 0.47675 0.0
O99 O 0.86264 0.15688 0.42823 0.0
Cd100 Cd 0.81282 0.15283 0.40234 0.0
O101 O 0.853 0.16356 0.51525 0.0
Cd102 Cd 0.79948 0.16301 0.52534 0.0
C103 C 0.79351 0.09294 0.47762 0.0
O104 O 0.79038 0.19386 0.44745 0.0
O105 O 0.75221 0.1736 0.48191 0.0
O106 O 0.80365 0.19827 0.60086 0.0
C107 C 0.76303 0.19209 0.44892 0.0
O108 O 0.79732 0.10295 0.42986 0.0
C109 C 0.78776 0.18308 0.63257 0.0
O110 O 0.79484 0.11007 0.51843 0.0
O111 O 0.77798 0.15869 0.61442 0.0
H112 H 0.29412 0.42104 0.13374 0.0
H113 H 0.29214 0.55439 0.92094 0.0
H114 H 0.29083 0.40894 0.95974 0.0
H115 H 0.29058 0.56617 0.09505 0.0
H116 H 0.28902 0.50097 0.9342 0.0
H117 H 0.29022 0.47428 0.12035 0.0
C118 C 0.29242 0.42953 0.09275 0.0
C119 C 0.29301 0.41047 0.04781 0.0
C120 C 0.28918 0.51527 0.96947 0.0
C121 C 0.28866 0.47142 0.03217 0.0
C122 C 0.29096 0.54579 0.96191 0.0
C123 C 0.29184 0.56482 0.00693 0.0
C124 C 0.28839 0.5037 0.02241 0.0
C125 C 0.29013 0.55238 0.05909 0.0
C126 C 0.29018 0.45995 0.08511 0.0
C127 C 0.29061 0.42277 -0.00437 0.0
N128 N 0.28868 0.52264 0.06538 0.0
N129 N 0.28873 0.45245 -0.01075 0.0
H130 H 0.39962 0.30638 0.95251 0.0
H131 H 0.56069 0.30517 0.07493 0.0
H132 H 0.41918 0.31121 0.12408 0.0
H133 H 0.54154 0.30953 0.90321 0.0
H134 H 0.50877 0.30435 0.09366 0.0
H135 H 0.45151 0.30459 0.93357 0.0
C136 C 0.41479 0.30701 -0.01379 0.0
C137 C 0.40501 0.30904 0.03996 0.0
C138 C 0.51594 0.30545 0.05188 0.0
C139 C 0.46441 0.30696 0.01856 0.0
C140 C 0.5456 0.30588 0.04114 0.0
C141 C 0.55552 0.30752 -0.01258 0.0
C142 C 0.49603 0.3066 0.0086 0.0
C143 C 0.53491 0.30836 0.94529 0.0
C144 C 0.44442 0.30602 0.97536 0.0
C145 C 0.4257 0.30975 0.08199 0.0
N146 N 0.50615 0.30792 0.95679 0.0
N147 N 0.4544 0.30873 0.07038 0.0
H148 H 0.66457 0.42087 0.89741 0.0
H149 H 0.67104 0.5505 0.11806 0.0
H150 H 0.67355 0.40658 0.07011 0.0
H151 H 0.6659 0.5659 0.94517 0.0
H152 H 0.67501 0.4977 0.10049 0.0
H153 H 0.66814 0.47412 0.91318 0.0
C154 C 0.6675 0.42888 0.93856 0.0
C155 C 0.6685 0.4092 0.98252 0.0
C156 C 0.67318 0.51264 0.06635 0.0
C157 C 0.67247 0.47007 0.00086 0.0
C158 C 0.67089 0.54282 0.07638 0.0
C159 C 0.66791 0.56268 0.03306 0.0
C160 C 0.67234 0.50216 0.01262 0.0
C161 C 0.66801 0.5514 0.97987 0.0
C162 C 0.66952 0.45929 0.94755 0.0
C163 C 0.67244 0.42088 0.03496 0.0
N164 N 0.66998 0.52188 0.97117 0.0
N165 N 0.67408 0.45051 0.04266 0.0
H166 H 0.40092 0.66803 0.09771 0.0
H167 H 0.55838 0.67054 0.96231 0.0
H168 H 0.41569 0.66759 0.92457 0.0
H169 H 0.54407 0.66067 0.13465 0.0
H170 H 0.50607 0.67303 0.94831 0.0
H171 H 0.45336 0.66889 0.11264 0.0
C172 C 0.41515 0.66822 0.06284 0.0
C173 C 0.40387 0.66762 0.00981 0.0
C174 C 0.51438 0.67036 -0.01079 0.0
C175 C 0.46385 0.66861 0.02662 0.0
C176 C 0.54427 0.66897 -0.00275 0.0
C177 C 0.55566 0.66528 0.04972 0.0
C178 C 0.49571 0.66813 0.03395 0.0
C179 C 0.53627 0.66341 0.09344 0.0
C180 C 0.44509 0.66866 0.0714 0.0
C181 C 0.42337 0.66791 0.96618 0.0
N182 N 0.50724 0.66483 0.08456 0.0
N183 N 0.45238 0.66835 0.97558 0.0
H184 H 0.79002 0.90265 0.44707 0.0
H185 H 0.78287 0.06492 0.5738 0.0
H186 H 0.78807 0.92104 0.61922 0.0
H187 H 0.7936 0.04799 0.4024 0.0
H188 H 0.77909 0.01202 0.58977 0.0
H189 H 0.78585 0.95543 0.42891 0.0
C190 C 0.78852 0.91773 0.48109 0.0
C191 C 0.78964 0.90738 0.53483 0.0
C192 C 0.78212 0.01983 0.5486 0.0
C193 C 0.78489 0.96784 0.51417 0.0
C194 C 0.78427 0.0501 0.53938 0.0
C195 C 0.78885 0.06096 0.48666 0.0
C196 C 0.7846 0.00015 0.50488 0.0
C197 C 0.79024 0.04061 0.44373 0.0
C198 C 0.78618 0.94788 0.47063 0.0
C199 C 0.7875 0.92799 0.57718 0.0
N200 N 0.78832 0.01114 0.45383 0.0
N201 N 0.78536 0.95722 0.56592 0.0
H202 H 0.04183 0.80193 0.4207 0.0
H203 H 0.91414 0.81084 0.63792 0.0
H204 H 0.0565 0.80329 0.59412 0.0
H205 H 0.89994 0.79877 0.46571 0.0
H206 H 0.96632 0.80829 0.62293 0.0
H207 H -0.01026 0.80089 0.43668 0.0
C208 C 0.03412 0.80195 0.46219 0.0
C209 C 0.0536 0.80282 0.50616 0.0
C210 C 0.95177 0.80609 0.58847 0.0
C211 C -0.00613 0.8017 0.5247 0.0
C212 C 0.92196 0.80759 0.59696 0.0
C213 C 0.90259 0.80512 0.55297 0.0
C214 C 0.96234 0.80224 0.53558 0.0
C215 C 0.91402 0.80083 0.50085 0.0
C216 C 0.00433 0.8013 0.47127 0.0
C217 C 0.04229 0.80266 0.559 0.0
N218 N 0.94314 0.79966 0.4936 0.0
N219 N 0.01315 0.80227 0.56679 0.0
H220 H 0.16767 0.0633 0.45591 0.0
H221 H 0.16742 0.90433 0.59663 0.0
H222 H 0.16354 0.04989 0.62941 0.0
H223 H 0.16411 0.9174 0.42294 0.0
H224 H 0.17076 0.95762 0.60923 0.0
H225 H 0.17112 0.01007 0.4432 0.0
C226 C 0.16765 0.0492 0.49142 0.0
C227 C 0.1651 0.06113 0.54386 0.0
C228 C 0.16943 0.94885 0.56834 0.0
C229 C 0.16899 4e-05 0.52942 0.0
C230 C 0.16755 0.91838 0.56105 0.0
C231 C 0.16526 0.90632 0.50859 0.0
C232 C 0.16903 0.96751 0.52289 0.0
C233 C 0.16569 0.92569 0.46412 0.0
C234 C 0.16959 0.01877 0.48406 0.0
C235 C 0.16532 0.04171 0.58824 0.0
N236 N 0.16738 0.95534 0.47231 0.0
N237 N 0.16708 0.01212 0.57999 0.0
H238 H 0.89808 0.16577 0.57603 0.0
H239 H 0.05825 0.16519 0.45225 0.0
H240 H 0.91604 0.15999 0.40431 0.0
H241 H 0.04005 0.16068 0.62403 0.0
H242 H 0.00621 0.16659 0.43381 0.0
H243 H 0.95015 0.16723 0.59432 0.0
C244 C 0.91294 0.16488 0.54215 0.0
C245 C 0.90265 0.16265 0.48855 0.0
C246 C 0.01363 0.16532 0.47553 0.0
C247 C 0.96228 0.16433 0.50923 0.0
C248 C 0.04335 0.16456 0.4861 0.0
C249 C 0.05356 0.16271 0.53976 0.0
C250 C -0.00602 0.16433 0.51892 0.0
C251 C 0.0332 0.162 0.58199 0.0
C252 C 0.94268 0.16568 0.55264 0.0
C253 C 0.92296 0.16161 0.4463 0.0
N254 N 0.0044 0.16278 0.57065 0.0
N255 N 0.95179 0.16243 0.45755 0.0
H256 H 0.15225 0.23491 0.34663 0.0
H257 H 0.28043 0.22899 0.13452 0.0
H258 H 0.20725 0.15924 0.32625 0.0
H259 H 0.21048 0.29082 0.11794 0.0
H260 H 0.25332 0.20325 0.20507 0.0
H261 H 0.17219 0.25596 0.26283 0.0
C262 C 0.16825 0.22258 0.32422 0.0
C263 C 0.17836 0.19545 0.34372 0.0
C264 C 0.24369 0.22226 0.18572 0.0
C265 C 0.20133 0.21943 0.24849 0.0
C266 C 0.25923 0.23703 0.1456 0.0
C267 C 0.24774 0.26216 0.12077 0.0
C268 C 0.21664 0.23299 0.20191 0.0
C269 C 0.22009 0.27152 0.13626 0.0
C270 C 0.17956 0.23457 0.27642 0.0
C271 C 0.19899 0.18033 0.313 0.0
N272 N 0.20557 0.25713 0.17651 0.0
N273 N 0.21003 0.1927 0.2673 0.0
H274 H 0.70781 0.31418 0.20396 0.0
H275 H 0.70737 0.18001 0.41474 0.0
H276 H 0.65338 0.23676 0.18303 0.0
H277 H 0.77839 0.24181 0.39446 0.0
H278 H 0.68043 0.20607 0.34329 0.0
H279 H 0.72645 0.29347 0.28836 0.0
C280 C 0.69953 0.29295 0.21741 0.0
C281 C 0.67932 0.27695 0.18604 0.0
C282 C 0.70181 0.21398 0.35499 0.0
C283 C 0.70063 0.25315 0.28259 0.0
C284 C 0.71711 0.19924 0.39572 0.0
C285 C 0.74522 0.20864 0.40992 0.0
C286 C 0.71464 0.23848 0.32924 0.0
C287 C 0.7569 0.23364 0.38419 0.0
C288 C 0.71024 0.28112 0.26553 0.0
C289 C 0.66919 0.24966 0.20575 0.0
N290 N 0.74158 0.24766 0.34504 0.0
N291 N 0.68014 0.23846 0.25269 0.0
H292 H 0.76616 0.81288 0.31177 0.0
H293 H 0.75143 0.67322 0.11458 0.0
H294 H 0.80609 0.72944 0.34861 0.0
H295 H 0.68937 0.74349 0.12546 0.0
H296 H 0.78108 0.69813 0.18484 0.0
H297 H 0.74821 0.79227 0.22644 0.0
C298 C 0.7715 0.79031 0.30161 0.0
C299 C 0.78719 0.77266 0.33781 0.0
C300 C 0.76113 0.70815 0.17118 0.0
C301 C 0.76659 0.74896 0.24019 0.0
C302 C 0.74433 0.69407 0.13116 0.0
C303 C 0.71785 0.70625 0.11491 0.0
C304 C 0.75152 0.73476 0.19385 0.0
C305 C 0.70949 0.73322 0.13747 0.0
C306 C 0.76118 0.77857 0.25292 0.0
C307 C 0.79375 0.74368 0.3221 0.0
N308 N 0.72624 0.74654 0.17584 0.0
N309 N 0.78311 0.73255 0.27456 0.0
H310 H 0.24941 0.79089 0.44284 0.0
H311 H 0.25472 0.65663 0.23213 0.0
H312 H 0.18175 0.72512 0.42305 0.0
H313 H 0.30526 0.73664 0.21147 0.0
H314 H 0.23569 0.67628 0.3168 0.0
H315 H 0.27745 0.76611 0.3717 0.0
C316 C 0.24067 0.77105 0.42405 0.0
C317 C 0.21315 0.76015 0.43825 0.0
C318 C 0.25115 0.68943 0.29399 0.0
C319 C 0.24498 0.73178 0.35788 0.0
C320 C 0.26209 0.67822 0.2457 0.0
C321 C 0.28128 0.69523 0.2143 0.0
C322 C 0.25949 0.71784 0.31118 0.0
C323 C 0.29026 0.72294 0.2342 0.0
C324 C 0.25659 0.75704 0.38347 0.0
C325 C 0.20275 0.73442 0.41278 0.0
N326 N 0.27907 0.73354 0.28128 0.0
N327 N 0.21864 0.72116 0.37376 0.0
H328 H 0.15114 0.73315 0.70821 0.0
H329 H 0.2764 0.74721 0.92705 0.0
H330 H 0.2025 0.81244 0.73205 0.0
H331 H 0.20901 0.68077 0.93976 0.0
H332 H 0.2486 0.77164 0.85615 0.0
H333 H 0.17053 0.71362 0.79367 0.0
C334 C 0.16618 0.74658 0.73173 0.0
C335 C 0.17552 0.77429 0.71269 0.0
C336 C 0.23965 0.75192 0.87477 0.0
C337 C 0.19786 0.75206 0.80983 0.0
C338 C 0.25558 0.73791 0.9151 0.0
C339 C 0.24505 0.71185 0.93885 0.0
C340 C 0.21321 0.73948 0.85722 0.0
C341 C 0.21786 0.70084 0.92228 0.0
C342 C 0.17718 0.73546 0.78048 0.0
C343 C 0.19492 0.79085 0.74487 0.0
N344 N 0.203 0.71449 0.88175 0.0
N345 N 0.20571 0.77932 0.79147 0.0
H346 H 0.25074 0.31446 0.82692 0.0
H347 H 0.24903 0.18034 0.61539 0.0
H348 H 0.30487 0.23798 0.84611 0.0
H349 H 0.17912 0.24184 0.63556 0.0
H350 H 0.27632 0.20646 0.68716 0.0
H351 H 0.23134 0.29343 0.74294 0.0
C352 C 0.25878 0.29336 0.81318 0.0
C353 C 0.27916 0.27774 0.84392 0.0
C354 C 0.2551 0.21429 0.6754 0.0
C355 C 0.25697 0.25355 0.74784 0.0
C356 C 0.23961 0.19951 0.63447 0.0
C357 C 0.21171 0.20882 0.62008 0.0
C358 C 0.24269 0.23874 0.7012 0.0
C359 C 0.20044 0.23375 0.64593 0.0
C360 C 0.24764 0.28135 0.7653 0.0
C361 C 0.28896 0.25061 0.82387 0.0
N362 N 0.21594 0.2478 0.68528 0.0
N363 N 0.27759 0.23921 0.77717 0.0
H364 H 0.75065 0.29116 0.91459 0.0
H365 H 0.75134 0.1564 0.70467 0.0
H366 H 0.68051 0.22814 0.89462 0.0
H367 H 0.80459 0.23453 0.68345 0.0
H368 H 0.73273 0.17707 0.78885 0.0
H369 H 0.77767 0.26534 0.84335 0.0
C370 C 0.74113 0.27171 0.89568 0.0
C371 C 0.71323 0.26189 0.90991 0.0
C372 C 0.74867 0.18959 0.76601 0.0
C373 C 0.74391 0.23232 0.82946 0.0
C374 C 0.75937 0.17779 0.71801 0.0
C375 C 0.77923 0.19398 0.68661 0.0
C376 C 0.75795 0.21775 0.78293 0.0
C377 C 0.78905 0.22147 0.70619 0.0
C378 C 0.75647 0.2571 0.85507 0.0
C379 C 0.70183 0.23663 0.88434 0.0
N380 N 0.77812 0.23265 0.75302 0.0
N381 N 0.71719 0.22275 0.84529 0.0
H382 H 0.67736 0.75079 0.88429 0.0
H383 H 0.71303 0.74419 0.5698 0.0
H384 H 0.67204 0.66767 0.79867 0.0
H385 H 0.76906 0.7885 0.68537 0.0
H386 H 0.68404 0.72454 0.64599 0.0
H387 H 0.69667 0.77408 0.80208 0.0
C388 C 0.67968 0.73759 0.84787 0.0
C389 C 0.67342 0.70723 0.84823 0.0
C390 C 0.70253 0.73883 0.65421 0.0
C391 C 0.69493 0.73378 0.75453 0.0
C392 C 0.71892 0.75004 0.61111 0.0
C393 C 0.74346 0.7677 0.62176 0.0
C394 C 0.71034 0.74631 0.70766 0.0
C395 C 0.75042 0.77469 0.67573 0.0
C396 C 0.69077 0.75086 0.80126 0.0
C397 C 0.67692 0.6911 0.80003 0.0
N398 N 0.73381 0.76411 0.71679 0.0
N399 N 0.68754 0.70459 0.75488 0.0
loop_
_geom_bond_atom_site_label_1
_geom_bond_atom_site_label_2
_geom_bond_distance
_geom_bond_site_symmetry_2
_ccdc_geom_bond_type
C0 O1 1.306 . S
C0 O3 1.160 1_554 S
O1 C0 1.306 . S
O1 Cd2 2.228 . S
Cd2 O1 2.228 . S
Cd2 O6 2.273 . S
Cd2 O10 2.277 . S
O3 C0 1.160 1_556 S
O3 Cd4 2.203 1_556 S
Cd4 O3 2.203 1_554 S
Cd4 O6 2.411 . S
Cd4 O7 2.333 . S
Cd4 O8 2.352 1_554 S
Cd4 O12 2.277 . S
Cd4 O13 2.356 1_554 S
C5 O10 1.209 . S
C5 O12 1.226 . S
O6 Cd2 2.273 . S
O6 Cd4 2.411 . S
O6 C9 1.320 . S
O7 Cd4 2.333 . S
O7 C9 1.214 . S
O8 Cd4 2.352 1_556 S
O8 C11 1.258 . S
C9 O6 1.320 . S
C9 O7 1.214 . S
O10 Cd2 2.277 . S
O10 C5 1.209 . S
C11 O8 1.258 . S
C11 O13 1.282 . S
O12 Cd4 2.277 . S
O12 C5 1.226 . S
O13 Cd4 2.356 1_556 S
O13 C11 1.282 . S
C14 O15 1.306 . S
C14 O17 1.160 . S
O15 C14 1.306 . S
O15 Cd16 2.228 1_554 S
Cd16 O15 2.228 1_556 S
Cd16 O20 2.273 . S
Cd16 O24 2.277 . S
O17 C14 1.160 . S
O17 Cd18 2.203 . S
Cd18 O17 2.203 . S
Cd18 O20 2.411 1_554 S
Cd18 O21 2.333 . S
Cd18 O22 2.352 . S
Cd18 O26 2.277 . S
Cd18 O27 2.356 . S
C19 O24 1.209 1_554 S
C19 O26 1.226 . S
O20 Cd16 2.273 . S
O20 Cd18 2.411 1_556 S
O20 C23 1.320 . S
O21 Cd18 2.333 . S
O21 C23 1.214 1_554 S
O22 Cd18 2.352 . S
O22 C25 1.258 . S
C23 O20 1.320 . S
C23 O21 1.214 1_556 S
O24 Cd16 2.277 . S
O24 C19 1.209 1_556 S
C25 O22 1.258 . S
C25 O27 1.282 . S
O26 Cd18 2.277 . S
O26 C19 1.226 . S
O27 Cd18 2.356 . S
O27 C25 1.282 . S
C28 O29 1.306 . S
C28 O31 1.160 1_554 S
O29 C28 1.306 . S
O29 Cd30 2.228 . S
Cd30 O29 2.228 . S
Cd30 O34 2.273 . S
Cd30 O38 2.277 . S
O31 C28 1.160 1_556 S
O31 Cd32 2.203 1_556 S
Cd32 O31 2.203 1_554 S
Cd32 O34 2.411 . S
Cd32 O35 2.333 . S
Cd32 O36 2.352 1_554 S
Cd32 O40 2.277 . S
Cd32 O41 2.356 1_554 S
C33 O38 1.209 . S
C33 O40 1.226 . S
O34 Cd30 2.273 . S
O34 Cd32 2.411 . S
O34 C37 1.320 . S
O35 Cd32 2.333 . S
O35 C37 1.214 . S
O36 Cd32 2.352 1_556 S
O36 C39 1.258 . S
C37 O34 1.320 . S
C37 O35 1.214 . S
O38 Cd30 2.277 . S
O38 C33 1.209 . S
C39 O36 1.258 . S
C39 O41 1.282 . S
O40 Cd32 2.277 . S
O40 C33 1.226 . S
O41 Cd32 2.356 1_556 S
O41 C39 1.282 . S
C42 O43 1.306 . S
C42 O45 1.160 . S
O43 C42 1.306 . S
O43 Cd44 2.228 1_554 S
Cd44 O43 2.228 1_556 S
Cd44 O48 2.273 . S
Cd44 O52 2.277 . S
O45 C42 1.160 . S
O45 Cd46 2.203 . S
Cd46 O45 2.203 . S
Cd46 O48 2.411 1_554 S
Cd46 O49 2.333 . S
Cd46 O50 2.352 . S
Cd46 O54 2.277 . S
Cd46 O55 2.356 . S
C47 O52 1.209 1_554 S
C47 O54 1.226 . S
O48 Cd44 2.273 . S
O48 Cd46 2.411 1_556 S
O48 C51 1.320 . S
O49 Cd46 2.333 . S
O49 C51 1.214 1_554 S
O50 Cd46 2.352 . S
O50 C53 1.258 . S
C51 O48 1.320 . S
C51 O49 1.214 1_556 S
O52 Cd44 2.277 . S
O52 C47 1.209 1_556 S
C53 O50 1.258 . S
C53 O55 1.282 . S
O54 Cd46 2.277 . S
O54 C47 1.226 . S
O55 Cd46 2.356 . S
O55 C53 1.282 . S
C56 O57 1.306 . S
C56 O59 1.160 . S
O57 C56 1.306 . S
O57 Cd58 2.228 . S
Cd58 O57 2.228 . S
Cd58 O62 2.273 . S
Cd58 O66 2.277 . S
O59 C56 1.160 . S
O59 Cd60 2.203 . S
Cd60 O59 2.203 . S
Cd60 O62 2.411 . S
Cd60 O63 2.333 . S
Cd60 O64 2.352 . S
Cd60 O68 2.277 . S
Cd60 O69 2.356 . S
C61 O66 1.209 . S
C61 O68 1.226 . S
O62 Cd58 2.273 . S
O62 Cd60 2.411 . S
O62 C65 1.320 . S
O63 Cd60 2.333 . S
O63 C65 1.214 . S
O64 Cd60 2.352 . S
O64 C67 1.258 . S
C65 O62 1.320 . S
C65 O63 1.214 . S
O66 Cd58 2.277 . S
O66 C61 1.209 . S
C67 O64 1.258 . S
C67 O69 1.282 . S
O68 Cd60 2.277 . S
O68 C61 1.226 . S
O69 Cd60 2.356 . S
O69 C67 1.282 . S
C70 O71 1.306 . S
C70 O73 1.160 . S
O71 C70 1.306 . S
O71 Cd72 2.228 . S
Cd72 O71 2.228 . S
Cd72 O76 2.273 . S
Cd72 O80 2.277 . S
O73 C70 1.160 . S
O73 Cd74 2.203 . S
Cd74 O73 2.203 . S
Cd74 O76 2.411 . S
Cd74 O77 2.333 . S
Cd74 O78 2.352 . S
Cd74 O82 2.277 . S
Cd74 O83 2.356 . S
C75 O80 1.209 . S
C75 O82 1.226 . S
O76 Cd72 2.273 . S
O76 Cd74 2.411 . S
O76 C79 1.320 . S
O77 Cd74 2.333 . S
O77 C79 1.214 . S
O78 Cd74 2.352 . S
O78 C81 1.258 . S
C79 O76 1.320 . S
C79 O77 1.214 . S
O80 Cd72 2.277 . S
O80 C75 1.209 . S
C81 O78 1.258 . S
C81 O83 1.282 . S
O82 Cd74 2.277 . S
O82 C75 1.226 . S
O83 Cd74 2.356 . S
O83 C81 1.282 . S
C84 O85 1.306 . S
C84 O87 1.160 . S
O85 C84 1.306 . S
O85 Cd86 2.228 . S
Cd86 O85 2.228 . S
Cd86 O90 2.273 . S
Cd86 O94 2.277 . S
O87 C84 1.160 . S
O87 Cd88 2.203 . S
Cd88 O87 2.203 . S
Cd88 O90 2.411 . S
Cd88 O91 2.333 . S
Cd88 O92 2.352 . S
Cd88 O96 2.277 . S
Cd88 O97 2.356 . S
C89 O94 1.209 . S
C89 O96 1.226 . S
O90 Cd86 2.273 . S
O90 Cd88 2.411 . S
O90 C93 1.320 . S
O91 Cd88 2.333 . S
O91 C93 1.214 . S
O92 Cd88 2.352 . S
O92 C95 1.258 . S
C93 O90 1.320 . S
C93 O91 1.214 . S
O94 Cd86 2.277 . S
O94 C89 1.209 . S
C95 O92 1.258 . S
C95 O97 1.282 . S
O96 Cd88 2.277 . S
O96 C89 1.226 . S
O97 Cd88 2.356 . S
O97 C95 1.282 . S
C98 O99 1.306 . S
C98 O101 1.160 . S
O99 C98 1.306 . S
O99 Cd100 2.228 . S
Cd100 O99 2.228 . S
Cd100 O104 2.273 . S
Cd100 O108 2.277 . S
O101 C98 1.160 . S
O101 Cd102 2.203 . S
Cd102 O101 2.203 . S
Cd102 O104 2.411 . S
Cd102 O105 2.333 . S
Cd102 O106 2.352 . S
Cd102 O110 2.277 . S
Cd102 O111 2.356 . S
C103 O108 1.209 . S
C103 O110 1.226 . S
O104 Cd100 2.273 . S
O104 Cd102 2.411 . S
O104 C107 1.320 . S
O105 Cd102 2.333 . S
O105 C107 1.214 . S
O106 Cd102 2.352 . S
O106 C109 1.258 . S
C107 O104 1.320 . S
C107 O105 1.214 . S
O108 Cd100 2.277 . S
O108 C103 1.209 . S
C109 O106 1.258 . S
C109 O111 1.282 . S
O110 Cd102 2.277 . S
O110 C103 1.226 . S
O111 Cd102 2.356 . S
O111 C109 1.282 . S
H112 C118 0.930 . S
H113 C122 0.930 . S
H114 C127 0.929 1_556 S
H115 C125 0.929 . S
H116 C120 0.929 . S
H117 C126 0.929 . S
C118 H112 0.930 . S
C118 C119 1.367 . S
C118 C126 1.378 . S
C119 C118 1.367 . S
C119 C127 1.433 . S
C120 H116 0.929 . S
C120 C122 1.378 . S
C120 C124 1.350 1_556 S
C121 C124 1.463 . S
C121 C126 1.350 . S
C121 N129 1.427 . S
C122 H113 0.930 . S
C122 C120 1.378 . S
C122 C123 1.367 1_556 S
C123 C122 1.367 1_554 S
C123 C125 1.433 . S
C124 C120 1.350 1_554 S
C124 C121 1.463 . S
C124 N128 1.427 . S
C125 H115 0.929 . S
C125 C123 1.433 . S
C125 N128 1.384 . S
C126 H117 0.929 . S
C126 C118 1.378 . S
C126 C121 1.350 . S
C127 H114 0.929 1_554 S
C127 C119 1.433 . S
C127 N129 1.384 . S
N128 C124 1.427 . S
N128 C125 1.384 . S
N129 C121 1.427 . S
N129 C127 1.384 . S
H130 C136 0.930 . S
H131 C140 0.930 . S
H132 C145 0.929 . S
H133 C143 0.929 1_556 S
H134 C138 0.929 . S
H135 C144 0.929 . S
C136 H130 0.930 . S
C136 C137 1.367 1_556 S
C136 C144 1.378 . S
C137 C136 1.367 1_554 S
C137 C145 1.433 . S
C138 H134 0.929 . S
C138 C140 1.378 . S
C138 C142 1.350 . S
C139 C142 1.463 . S
C139 C144 1.350 1_554 S
C139 N147 1.427 . S
C140 H131 0.930 . S
C140 C138 1.378 . S
C140 C141 1.367 . S
C141 C140 1.367 . S
C141 C143 1.433 . S
C142 C138 1.350 . S
C142 C139 1.463 . S
C142 N146 1.427 . S
C143 H133 0.929 1_554 S
C143 C141 1.433 . S
C143 N146 1.384 . S
C144 H135 0.929 . S
C144 C136 1.378 . S
C144 C139 1.350 1_556 S
C145 H132 0.929 . S
C145 C137 1.433 . S
C145 N147 1.384 . S
N146 C142 1.427 . S
N146 C143 1.384 . S
N147 C139 1.427 . S
N147 C145 1.384 . S
H148 C154 0.930 . S
H149 C158 0.930 . S
H150 C163 0.929 . S
H151 C161 0.929 1_556 S
H152 C156 0.929 . S
H153 C162 0.929 . S
C154 H148 0.930 . S
C154 C155 1.367 1_556 S
C154 C162 1.378 . S
C155 C154 1.367 1_554 S
C155 C163 1.433 . S
C156 H152 0.929 . S
C156 C158 1.378 . S
C156 C160 1.350 . S
C157 C160 1.463 . S
C157 C162 1.350 1_554 S
C157 N165 1.427 . S
C158 H149 0.930 . S
C158 C156 1.378 . S
C158 C159 1.367 . S
C159 C158 1.367 . S
C159 C161 1.433 . S
C160 C156 1.350 . S
C160 C157 1.463 . S
C160 N164 1.427 1_554 S
C161 H151 0.929 1_554 S
C161 C159 1.433 . S
C161 N164 1.384 1_554 S
C162 H153 0.929 . S
C162 C154 1.378 . S
C162 C157 1.350 1_556 S
C163 H150 0.929 . S
C163 C155 1.433 . S
C163 N165 1.384 . S
N164 C160 1.427 1_556 S
N164 C161 1.384 1_556 S
N165 C157 1.427 . S
N165 C163 1.384 . S
H166 C172 0.930 . S
H167 C176 0.930 . S
H168 C181 0.929 . S
H169 C179 0.929 . S
H170 C174 0.929 1_556 S
H171 C180 0.929 . S
C172 H166 0.930 . S
C172 C173 1.367 . S
C172 C180 1.378 . S
C173 C172 1.367 . S
C173 C181 1.433 . S
C174 H170 0.929 1_554 S
C174 C176 1.378 1_554 S
C174 C178 1.350 . S
C175 C178 1.463 . S
C175 C180 1.350 . S
C175 N183 1.427 . S
C176 H167 0.930 . S
C176 C174 1.378 1_556 S
C176 C177 1.367 1_556 S
C177 C176 1.367 1_554 S
C177 C179 1.433 . S
C178 C174 1.350 . S
C178 C175 1.463 . S
C178 N182 1.427 . S
C179 H169 0.929 . S
C179 C177 1.433 . S
C179 N182 1.384 . S
C180 H171 0.929 . S
C180 C172 1.378 . S
C180 C175 1.350 . S
C181 H168 0.929 . S
C181 C173 1.433 . S
C181 N183 1.384 . S
N182 C178 1.427 . S
N182 C179 1.384 . S
N183 C175 1.427 . S
N183 C181 1.384 . S
H184 C190 0.930 . S
H185 C194 0.930 . S
H186 C199 0.929 . S
H187 C197 0.929 . S
H188 C192 0.929 . S
H189 C198 0.929 . S
C190 H184 0.930 . S
C190 C191 1.367 . S
C190 C198 1.378 . S
C191 C190 1.367 . S
C191 C199 1.433 . S
C192 H188 0.929 . S
C192 C194 1.378 . S
C192 C196 1.350 . S
C193 C196 1.463 1_565 S
C193 C198 1.350 . S
C193 N201 1.427 . S
C194 H185 0.930 . S
C194 C192 1.378 . S
C194 C195 1.367 . S
C195 C194 1.367 . S
C195 C197 1.433 . S
C196 C192 1.350 . S
C196 C193 1.463 1_545 S
C196 N200 1.427 . S
C197 H187 0.929 . S
C197 C195 1.433 . S
C197 N200 1.384 . S
C198 H189 0.929 . S
C198 C190 1.378 . S
C198 C193 1.350 . S
C199 H186 0.929 . S
C199 C191 1.433 . S
C199 N201 1.384 . S
N200 C196 1.427 . S
N200 C197 1.384 . S
N201 C193 1.427 . S
N201 C199 1.384 . S
H202 C208 0.930 . S
H203 C212 0.930 . S
H204 C217 0.929 . S
H205 C215 0.929 . S
H206 C210 0.929 . S
H207 C216 0.929 . S
C208 H202 0.930 . S
C208 C209 1.367 . S
C208 C216 1.378 . S
C209 C208 1.367 . S
C209 C217 1.433 . S
C210 H206 0.929 . S
C210 C212 1.378 . S
C210 C214 1.350 . S
C211 C214 1.463 1_455 S
C211 C216 1.350 . S
C211 N219 1.427 . S
C212 H203 0.930 . S
C212 C210 1.378 . S
C212 C213 1.367 . S
C213 C212 1.367 . S
C213 C215 1.433 . S
C214 C210 1.350 . S
C214 C211 1.463 1_655 S
C214 N218 1.427 . S
C215 H205 0.929 . S
C215 C213 1.433 . S
C215 N218 1.384 . S
C216 H207 0.929 . S
C216 C208 1.378 . S
C216 C211 1.350 . S
C217 H204 0.929 . S
C217 C209 1.433 . S
C217 N219 1.384 . S
N218 C214 1.427 . S
N218 C215 1.384 . S
N219 C211 1.427 . S
N219 C217 1.384 . S
H220 C226 0.930 . S
H221 C230 0.930 . S
H222 C235 0.929 . S
H223 C233 0.929 . S
H224 C228 0.929 . S
H225 C234 0.929 . S
C226 H220 0.930 . S
C226 C227 1.367 . S
C226 C234 1.378 . S
C227 C226 1.367 . S
C227 C235 1.433 . S
C228 H224 0.929 . S
C228 C230 1.378 . S
C228 C232 1.350 . S
C229 C232 1.463 1_545 S
C229 C234 1.350 . S
C229 N237 1.427 . S
C230 H221 0.930 . S
C230 C228 1.378 . S
C230 C231 1.367 . S
C231 C230 1.367 . S
C231 C233 1.433 . S
C232 C228 1.350 . S
C232 C229 1.463 1_565 S
C232 N236 1.427 . S
C233 H223 0.929 . S
C233 C231 1.433 . S
C233 N236 1.384 . S
C234 H225 0.929 . S
C234 C226 1.378 . S
C234 C229 1.350 . S
C235 H222 0.929 . S
C235 C227 1.433 . S
C235 N237 1.384 . S
N236 C232 1.427 . S
N236 C233 1.384 . S
N237 C229 1.427 . S
N237 C235 1.384 . S
H238 C244 0.930 . S
H239 C248 0.930 . S
H240 C253 0.929 . S
H241 C251 0.929 . S
H242 C246 0.929 . S
H243 C252 0.929 . S
C244 H238 0.930 . S
C244 C245 1.367 . S
C244 C252 1.378 . S
C245 C244 1.367 . S
C245 C253 1.433 . S
C246 H242 0.929 . S
C246 C248 1.378 . S
C246 C250 1.350 . S
C247 C250 1.463 1_655 S
C247 C252 1.350 . S
C247 N255 1.427 . S
C248 H239 0.930 . S
C248 C246 1.378 . S
C248 C249 1.367 . S
C249 C248 1.367 . S
C249 C251 1.433 . S
C250 C246 1.350 . S
C250 C247 1.463 1_455 S
C250 N254 1.427 . S
C251 H241 0.929 . S
C251 C249 1.433 . S
C251 N254 1.384 . S
C252 H243 0.929 . S
C252 C244 1.378 . S
C252 C247 1.350 . S
C253 H240 0.929 . S
C253 C245 1.433 . S
C253 N255 1.384 . S
N254 C250 1.427 . S
N254 C251 1.384 . S
N255 C247 1.427 . S
N255 C253 1.384 . S
H256 C262 0.930 . S
H257 C266 0.930 . S
H258 C271 0.929 . S
H259 C269 0.929 . S
H260 C264 0.929 . S
H261 C270 0.929 . S
C262 H256 0.930 . S
C262 C263 1.367 . S
C262 C270 1.378 . S
C263 C262 1.367 . S
C263 C271 1.433 . S
C264 H260 0.929 . S
C264 C266 1.378 . S
C264 C268 1.350 . S
C265 C268 1.463 . S
C265 C270 1.350 . S
C265 N273 1.427 . S
C266 H257 0.930 . S
C266 C264 1.378 . S
C266 C267 1.367 . S
C267 C266 1.367 . S
C267 C269 1.433 . S
C268 C264 1.350 . S
C268 C265 1.463 . S
C268 N272 1.427 . S
C269 H259 0.929 . S
C269 C267 1.433 . S
C269 N272 1.384 . S
C270 H261 0.929 . S
C270 C262 1.378 . S
C270 C265 1.350 . S
C271 H258 0.929 . S
C271 C263 1.433 . S
C271 N273 1.384 . S
N272 C268 1.427 . S
N272 C269 1.384 . S
N273 C265 1.427 . S
N273 C271 1.384 . S
H274 C280 0.930 . S
H275 C284 0.930 . S
H276 C289 0.929 . S
H277 C287 0.929 . S
H278 C282 0.929 . S
H279 C288 0.929 . S
C280 H274 0.930 . S
C280 C281 1.367 . S
C280 C288 1.378 . S
C281 C280 1.367 . S
C281 C289 1.433 . S
C282 H278 0.929 . S
C282 C284 1.378 . S
C282 C286 1.350 . S
C283 C286 1.463 . S
C283 C288 1.350 . S
C283 N291 1.427 . S
C284 H275 0.930 . S
C284 C282 1.378 . S
C284 C285 1.367 . S
C285 C284 1.367 . S
C285 C287 1.433 . S
C286 C282 1.350 . S
C286 C283 1.463 . S
C286 N290 1.427 . S
C287 H277 0.929 . S
C287 C285 1.433 . S
C287 N290 1.384 . S
C288 H279 0.929 . S
C288 C280 1.378 . S
C288 C283 1.350 . S
C289 H276 0.929 . S
C289 C281 1.433 . S
C289 N291 1.384 . S
N290 C286 1.427 . S
N290 C287 1.384 . S
N291 C283 1.427 . S
N291 C289 1.384 . S
H292 C298 0.930 . S
H293 C302 0.930 . S
H294 C307 0.929 . S
H295 C305 0.929 . S
H296 C300 0.929 . S
H297 C306 0.929 . S
C298 H292 0.930 . S
C298 C299 1.367 . S
C298 C306 1.378 . S
C299 C298 1.367 . S
C299 C307 1.433 . S
C300 H296 0.929 . S
C300 C302 1.378 . S
C300 C304 1.350 . S
C301 C304 1.463 . S
C301 C306 1.350 . S
C301 N309 1.427 . S
C302 H293 0.930 . S
C302 C300 1.378 . S
C302 C303 1.367 . S
C303 C302 1.367 . S
C303 C305 1.433 . S
C304 C300 1.350 . S
C304 C301 1.463 . S
C304 N308 1.427 . S
C305 H295 0.929 . S
C305 C303 1.433 . S
C305 N308 1.384 . S
C306 H297 0.929 . S
C306 C298 1.378 . S
C306 C301 1.350 . S
C307 H294 0.929 . S
C307 C299 1.433 . S
C307 N309 1.384 . S
N308 C304 1.427 . S
N308 C305 1.384 . S
N309 C301 1.427 . S
N309 C307 1.384 . S
H310 C316 0.930 . S
H311 C320 0.930 . S
H312 C325 0.929 . S
H313 C323 0.929 . S
H314 C318 0.929 . S
H315 C324 0.929 . S
C316 H310 0.930 . S
C316 C317 1.367 . S
C316 C324 1.378 . S
C317 C316 1.367 . S
C317 C325 1.433 . S
C318 H314 0.929 . S
C318 C320 1.378 . S
C318 C322 1.350 . S
C319 C322 1.463 . S
C319 C324 1.350 . S
C319 N327 1.427 . S
C320 H311 0.930 . S
C320 C318 1.378 . S
C320 C321 1.367 . S
C321 C320 1.367 . S
C321 C323 1.433 . S
C322 C318 1.350 . S
C322 C319 1.463 . S
C322 N326 1.427 . S
C323 H313 0.929 . S
C323 C321 1.433 . S
C323 N326 1.384 . S
C324 H315 0.929 . S
C324 C316 1.378 . S
C324 C319 1.350 . S
C325 H312 0.929 . S
C325 C317 1.433 . S
C325 N327 1.384 . S
N326 C322 1.427 . S
N326 C323 1.384 . S
N327 C319 1.427 . S
N327 C325 1.384 . S
H328 C334 0.930 . S
H329 C338 0.930 . S
H330 C343 0.929 . S
H331 C341 0.929 . S
H332 C336 0.929 . S
H333 C342 0.929 . S
C334 H328 0.930 . S
C334 C335 1.367 . S
C334 C342 1.378 . S
C335 C334 1.367 . S
C335 C343 1.433 . S
C336 H332 0.929 . S
C336 C338 1.378 . S
C336 C340 1.350 . S
C337 C340 1.463 . S
C337 C342 1.350 . S
C337 N345 1.427 . S
C338 H329 0.930 . S
C338 C336 1.378 . S
C338 C339 1.367 . S
C339 C338 1.367 . S
C339 C341 1.433 . S
C340 C336 1.350 . S
C340 C337 1.463 . S
C340 N344 1.427 . S
C341 H331 0.929 . S
C341 C339 1.433 . S
C341 N344 1.384 . S
C342 H333 0.929 . S
C342 C334 1.378 . S
C342 C337 1.350 . S
C343 H330 0.929 . S
C343 C335 1.433 . S
C343 N345 1.384 . S
N344 C340 1.427 . S
N344 C341 1.384 . S
N345 C337 1.427 . S
N345 C343 1.384 . S
H346 C352 0.930 . S
H347 C356 0.930 . S
H348 C361 0.929 . S
H349 C359 0.929 . S
H350 C354 0.929 . S
H351 C360 0.929 . S
C352 H346 0.930 . S
C352 C353 1.367 . S
C352 C360 1.378 . S
C353 C352 1.367 . S
C353 C361 1.433 . S
C354 H350 0.929 . S
C354 C356 1.378 . S
C354 C358 1.350 . S
C355 C358 1.463 . S
C355 C360 1.350 . S
C355 N363 1.427 . S
C356 H347 0.930 . S
C356 C354 1.378 . S
C356 C357 1.367 . S
C357 C356 1.367 . S
C357 C359 1.433 . S
C358 C354 1.350 . S
C358 C355 1.463 . S
C358 N362 1.427 . S
C359 H349 0.929 . S
C359 C357 1.433 . S
C359 N362 1.384 . S
C360 H351 0.929 . S
C360 C352 1.378 . S
C360 C355 1.350 . S
C361 H348 0.929 . S
C361 C353 1.433 . S
C361 N363 1.384 . S
N362 C358 1.427 . S
N362 C359 1.384 . S
N363 C355 1.427 . S
N363 C361 1.384 . S
H364 C370 0.930 . S
H365 C374 0.930 . S
H366 C379 0.929 . S
H367 C377 0.929 . S
H368 C372 0.929 . S
H369 C378 0.929 . S
C370 H364 0.930 . S
C370 C371 1.367 . S
C370 C378 1.378 . S
C371 C370 1.367 . S
C371 C379 1.433 . S
C372 H368 0.929 . S
C372 C374 1.378 . S
C372 C376 1.350 . S
C373 C376 1.463 . S
C373 C378 1.350 . S
C373 N381 1.427 . S
C374 H365 0.930 . S
C374 C372 1.378 . S
C374 C375 1.367 . S
C375 C374 1.367 . S
C375 C377 1.433 . S
C376 C372 1.350 . S
C376 C373 1.463 . S
C376 N380 1.427 . S
C377 H367 0.929 . S
C377 C375 1.433 . S
C377 N380 1.384 . S
C378 H369 0.929 . S
C378 C370 1.378 . S
C378 C373 1.350 . S
C379 H366 0.929 . S
C379 C371 1.433 . S
C379 N381 1.384 . S
N380 C376 1.427 . S
N380 C377 1.384 . S
N381 C373 1.427 . S
N381 C379 1.384 . S
H382 C388 0.930 . S
H383 C392 0.930 . S
H384 C397 0.929 . S
H385 C395 0.929 . S
H386 C390 0.929 . S
H387 C396 0.929 . S
C388 H382 0.930 . S
C388 C389 1.367 . S
C388 C396 1.378 . S
C389 C388 1.367 . S
C389 C397 1.433 . S
C390 H386 0.929 . S
C390 C392 1.378 . S
C390 C394 1.350 . S
C391 C394 1.463 . S
C391 C396 1.350 . S
C391 N399 1.427 . S
C392 H383 0.930 . S
C392 C390 1.378 . S
C392 C393 1.367 . S
C393 C392 1.367 . S
C393 C395 1.433 . S
C394 C390 1.350 . S
C394 C391 1.463 . S
C394 N398 1.427 . S
C395 H385 0.929 . S
C395 C393 1.433 . S
C395 N398 1.384 . S
C396 H387 0.929 . S
C396 C388 1.378 . S
C396 C391 1.350 . S
C397 H384 0.929 . S
C397 C389 1.433 . S
C397 N399 1.384 . S
N398 C394 1.427 . S
N398 C395 1.384 . S
N399 C391 1.427 . S
N399 C397 1.384 . S
C119 C5 1.539 . S
C123 C47 1.540 . S
C137 C0 1.505 . S
C141 C14 1.503 . S
C155 C19 1.540 . S
C159 C33 1.541 . S
C173 C42 1.504 . S
C177 C28 1.500 . S
C191 C61 1.535 . S
C195 C103 1.534 . S
C209 C70 1.493 . S
C213 C56 1.495 . S
C227 C89 1.538 . S
C231 C75 1.536 . S
C245 C98 1.505 . S
C249 C84 1.503 . S
C263 C95 1.483 . S
C267 C9 1.495 . S
C281 C25 1.480 . S
C285 C107 1.496 . S
C299 C67 1.479 . S
C303 C37 1.495 . S
C317 C79 1.495 . S
C321 C53 1.479 . S
C335 C81 1.486 . S
C339 C51 1.493 . S
C353 C11 1.482 . S
C357 C93 1.493 . S
C371 C23 1.495 . S
C375 C109 1.479 . S
C389 C39 1.483 . S
C393 C65 1.493 . S
