# Generated by pormake.
# Topology ukg, (4)-cn, num edge types: 1
# Building blocks:
#     Node 0, Type 0, BuildingBlock: ICAMEG_clean_sbu_1, # of connection points: 4
#     Node 1, Type 0, BuildingBlock: ICAMEG_clean_sbu_1, # of connection points: 4
#     Node 2, Type 0, BuildingBlock: ICAMEG_clean_sbu_1, # of connection points: 4
#     Node 3, Type 0, BuildingBlock: ICAMEG_clean_sbu_1, # of connection points: 4
#     Node 4, Type 0, BuildingBlock: ICAMEG_clean_sbu_1, # of connection points: 4
#     Node 5, Type 0, BuildingBlock: ICAMEG_clean_sbu_1, # of connection points: 4
#     Node 6, Type 0, BuildingBlock: ICAMEG_clean_sbu_1, # of connection points: 4
#     Node 7, Type 0, BuildingBlock: ICAMEG_clean_sbu_1, # of connection points: 4
#     Edge 8, Type (0, 0), BuildingBlock: CIFDUS_clean_linker_0, # of connection points: 2
#     Edge 9, Type (0, 0), BuildingBlock: CIFDUS_clean_linker_0, # of connection points: 2
#     Edge 10, Type (0, 0), BuildingBlock: CIFDUS_clean_linker_0, # of connection points: 2
#     Edge 11, Type (0, 0), BuildingBlock: CIFDUS_clean_linker_0, # of connection points: 2
#     Edge 12, Type (0, 0), BuildingBlock: CIFDUS_clean_linker_0, # of connection points: 2
#     Edge 13, Type (0, 0), BuildingBlock: CIFDUS_clean_linker_0, # of connection points: 2
#     Edge 14, Type (0, 0), BuildingBlock: CIFDUS_clean_linker_0, # of connection points: 2
#     Edge 15, Type (0, 0), BuildingBlock: CIFDUS_clean_linker_0, # of connection points: 2
#     Edge 16, Type (0, 0), BuildingBlock: CIFDUS_clean_linker_0, # of connection points: 2
#     Edge 17, Type (0, 0), BuildingBlock: CIFDUS_clean_linker_0, # of connection points: 2
#     Edge 18, Type (0, 0), BuildingBlock: CIFDUS_clean_linker_0, # of connection points: 2
#     Edge 19, Type (0, 0), BuildingBlock: CIFDUS_clean_linker_0, # of connection points: 2
#     Edge 20, Type (0, 0), BuildingBlock: CIFDUS_clean_linker_0, # of connection points: 2
#     Edge 21, Type (0, 0), BuildingBlock: CIFDUS_clean_linker_0, # of connection points: 2
#     Edge 22, Type (0, 0), BuildingBlock: CIFDUS_clean_linker_0, # of connection points: 2
#     Edge 23, Type (0, 0), BuildingBlock: CIFDUS_clean_linker_0, # of connection points: 2
# Relax obj value: 0.017
# Max RMSD: 0.100
# Mean RMSD: 0.100
data_MOF--net-ukg--node1-ICAMEG_clean_sbu_1--edge1-CIFDUS_clean_linker_0
_symmetry_space_group_name_H-M    P1
_symmetry_Int_Tables_number       1
_symmetry_cell_setting            triclinic
loop_
_symmetry_equiv_pos_as_xyz
'x, y, z'
_cell_length_a     28.947386
_cell_length_b     28.955543
_cell_length_c     35.50081
_cell_angle_alpha  90.000849
_cell_angle_beta   90.03124
_cell_angle_gamma 89.862418
loop_
_atom_site_label
_atom_site_type_symbol
_atom_site_fract_x
_atom_site_fract_y
_atom_site_fract_z
_atom_type_partial_charge
Co0 Co 0.05524 0.65065 0.20797 0.0
Co1 Co 0.97736 0.66582 0.13512 0.0
O2 O 0.0382 0.65007 0.1548 0.0
C3 C 0.12148 0.7159 0.17412 0.0
O4 O 0.08568 0.73748 0.15972 0.0
C5 C 0.99485 0.57147 0.10609 0.0
O6 O 0.00598 0.55966 0.14063 0.0
O7 O 0.94642 0.62563 0.17321 0.0
O8 O 0.99498 0.62228 0.22269 0.0
H9 H 0.81114 0.71484 0.14451 0.0
H10 H 0.11871 0.60891 0.15183 0.0
O11 O 0.11586 0.67975 0.19409 0.0
H12 H 0.0799 0.48298 0.23973 0.0
H13 H 0.16687 0.63131 0.31559 0.0
H14 H 0.0078 0.67377 0.27965 0.0
H15 H 0.0482 0.56128 0.24921 0.0
H16 H 0.14265 0.62979 0.24896 0.0
O17 O 0.98151 0.61255 0.09908 0.0
H18 H 0.88858 0.69549 0.16903 0.0
H19 H 0.93605 0.66788 0.05809 0.0
H20 H 0.0304 0.6755 0.34662 0.0
H21 H 0.15143 0.53122 0.14144 0.0
H22 H 0.11048 0.65414 0.36497 0.0
H23 H 0.13194 0.46757 0.18553 0.0
O24 O 0.02716 0.71286 0.21544 0.0
H25 H 0.0972 0.70432 0.03776 0.0
H26 H 0.96135 0.76171 0.10734 0.0
H27 H 1.00037 0.81289 0.06189 0.0
H28 H 0.06878 0.78418 0.02667 0.0
H29 H 0.0574 0.65453 0.08377 0.0
H30 H 0.85902 0.68653 0.0324 0.0
H31 H 0.79599 0.71046 0.07574 0.0
O32 O 0.97278 0.71967 0.17028 0.0
C33 C 0.9562 0.61387 0.20699 0.0
C34 C 0.83836 0.70462 0.12534 0.0
C35 C 0.86522 0.68866 0.06242 0.0
N36 N 0.91687 0.68094 0.11499 0.0
C37 C 0.88231 0.69376 0.13904 0.0
C38 C 0.90873 0.67802 0.07713 0.0
C39 C 0.82987 0.7021 0.08675 0.0
C40 C 0.11044 0.5815 0.17134 0.0
N41 N 0.08181 0.58967 0.20121 0.0
C42 C 0.12891 0.53753 0.16523 0.0
C43 C 0.11791 0.50182 0.18994 0.0
C44 C 0.08869 0.51044 0.22035 0.0
C45 C 0.07079 0.55482 0.22554 0.0
C46 C 0.13184 0.64057 0.30797 0.0
C47 C 0.04258 0.66413 0.28744 0.0
C48 C 0.11795 0.63983 0.27029 0.0
N49 N 0.07371 0.65126 0.26049 0.0
C50 C 0.05524 0.66531 0.3254 0.0
C51 C 0.10019 0.65337 0.33566 0.0
C52 C 0.99405 0.73443 0.19941 0.0
C53 C 0.06741 0.71722 0.05292 0.0
C54 C 0.99129 0.74914 0.09233 0.0
C55 C 0.01313 0.77818 0.06651 0.0
C56 C 0.05148 0.76204 0.04674 0.0
N57 N 0.00714 0.70524 0.09827 0.0
C58 C 0.04467 0.68914 0.07894 0.0
Co59 Co 0.35445 0.55079 0.7058 0.0
Co60 Co 0.33667 0.48364 0.62657 0.0
O61 O 0.35159 0.5418 0.65135 0.0
C62 C 0.28353 0.61869 0.68219 0.0
O63 O 0.26232 0.58431 0.66546 0.0
C64 C 0.42879 0.50725 0.59596 0.0
O65 O 0.44154 0.51566 0.63078 0.0
O66 O 0.38071 0.44905 0.65925 0.0
O67 O 0.38692 0.49017 0.71284 0.0
H68 H 0.29464 0.31548 0.62166 0.0
H69 H 0.38862 0.62418 0.65466 0.0
O70 O 0.32149 0.61169 0.69961 0.0
H71 H 0.52301 0.57889 0.73181 0.0
H72 H 0.37736 0.64605 0.82289 0.0
H73 H 0.33918 0.49187 0.773 0.0
H74 H 0.4472 0.54207 0.74164 0.0
H75 H 0.37456 0.63224 0.75434 0.0
O76 O 0.38752 0.49444 0.58905 0.0
H77 H 0.31284 0.38945 0.65276 0.0
H78 H 0.33024 0.45397 0.54628 0.0
H79 H 0.34194 0.504 0.84173 0.0
H80 H 0.46369 0.66216 0.64409 0.0
H81 H 0.36114 0.58159 0.86709 0.0
H82 H 0.53158 0.63943 0.68276 0.0
O83 O 0.29429 0.51887 0.71339 0.0
H84 H 0.28757 0.61475 0.54286 0.0
H85 H 0.23903 0.46901 0.60256 0.0
H86 H 0.18342 0.51254 0.56356 0.0
H87 H 0.20765 0.58596 0.53333 0.0
H88 H 0.34189 0.57028 0.58238 0.0
H89 H 0.31267 0.3806 0.51403 0.0
H90 H 0.29449 0.31075 0.5518 0.0
O91 O 0.2857 0.47168 0.66349 0.0
C92 C 0.39552 0.45451 0.69282 0.0
C93 C 0.30235 0.34571 0.60489 0.0
C94 C 0.31253 0.38225 0.54448 0.0
N95 N 0.32221 0.42604 0.60135 0.0
C96 C 0.31254 0.38772 0.62234 0.0
C97 C 0.32256 0.42366 0.5629 0.0
C98 C 0.30232 0.34307 0.56569 0.0
C99 C 0.41789 0.61443 0.67184 0.0
N100 N 0.41349 0.58114 0.69887 0.0
C101 C 0.46036 0.63592 0.66562 0.0
C102 C 0.49845 0.6231 0.68729 0.0
C103 C 0.49367 0.58911 0.71481 0.0
C104 C 0.45069 0.56833 0.7202 0.0
C105 C 0.36909 0.61206 0.81219 0.0
C106 C 0.34795 0.5256 0.78383 0.0
C107 C 0.36739 0.60405 0.77341 0.0
N108 N 0.35721 0.56115 0.75972 0.0
C109 C 0.34928 0.53232 0.82277 0.0
C110 C 0.36 0.57587 0.83697 0.0
C111 C 0.27269 0.48745 0.69541 0.0
C112 C 0.27662 0.58278 0.55584 0.0
C113 C 0.24971 0.50104 0.58969 0.0
C114 C 0.21814 0.52547 0.56752 0.0
C115 C 0.23177 0.56663 0.55055 0.0
N116 N 0.29363 0.51709 0.59472 0.0
C117 C 0.30726 0.55739 0.57816 0.0
Co118 Co 0.4553 0.84886 0.19751 0.0
Co119 Co 0.53244 0.83538 0.12402 0.0
O120 O 0.47141 0.84987 0.14418 0.0
C121 C 0.38815 0.78259 0.16565 0.0
O122 O 0.42332 0.76033 0.15091 0.0
C123 C 0.51236 0.9292 0.09511 0.0
O124 O 0.50147 0.94062 0.12978 0.0
O125 O 0.56331 0.87638 0.16174 0.0
O126 O 0.51541 0.87774 0.21156 0.0
H127 H 0.69978 0.78985 0.1319 0.0
H128 H 0.39037 0.8904 0.14239 0.0
O129 O 0.3946 0.81944 0.18455 0.0
H130 H 0.42961 0.01604 0.23048 0.0
H131 H 0.34609 0.8665 0.3069 0.0
H132 H 0.50454 0.82536 0.26832 0.0
H133 H 0.4623 0.938 0.23915 0.0
H134 H 0.36871 0.86886 0.23993 0.0
O135 O 0.52659 0.88847 0.08791 0.0
H136 H 0.62235 0.80764 0.15713 0.0
H137 H 0.57255 0.83394 0.04661 0.0
H138 H 0.48351 0.82279 0.33559 0.0
H139 H 0.35664 0.96784 0.13283 0.0
H140 H 0.40376 0.84347 0.35526 0.0
H141 H 0.37635 0.03133 0.17701 0.0
O142 O 0.48404 0.78685 0.20417 0.0
H143 H 0.412 0.79418 0.0278 0.0
H144 H 0.54983 0.73964 0.09638 0.0
H145 H 0.51119 0.68755 0.05139 0.0
H146 H 0.44177 0.71482 0.01667 0.0
H147 H 0.45147 0.8449 0.07335 0.0
H148 H 0.64955 0.81685 0.02021 0.0
H149 H 0.71374 0.79438 0.06298 0.0
O150 O 0.53879 0.78171 0.15928 0.0
C151 C 0.55374 0.88739 0.19572 0.0
C152 C 0.67205 0.79945 0.11297 0.0
C153 C 0.64387 0.81467 0.05029 0.0
N154 N 0.5929 0.82145 0.10334 0.0
C155 C 0.6281 0.80942 0.12708 0.0
C156 C 0.60038 0.82443 0.06541 0.0
C157 C 0.67987 0.80205 0.0743 0.0
C158 C 0.39874 0.91775 0.16194 0.0
N159 N 0.42805 0.90965 0.1914 0.0
C160 C 0.37969 0.96157 0.1563 0.0
C161 C 0.39082 0.9972 0.18106 0.0
C162 C 0.42073 0.98865 0.21106 0.0
C163 C 0.43919 0.94441 0.21579 0.0
C164 C 0.38098 0.85753 0.29869 0.0
C165 C 0.46988 0.83473 0.27668 0.0
C166 C 0.39397 0.85875 0.26082 0.0
N167 N 0.43804 0.8477 0.25028 0.0
C168 C 0.45812 0.83306 0.31481 0.0
C169 C 0.41336 0.84462 0.32581 0.0
C170 C 0.5177 0.76609 0.1882 0.0
C171 C 0.44223 0.78191 0.04274 0.0
C172 C 0.51947 0.75159 0.08161 0.0
C173 C 0.49783 0.72203 0.05604 0.0
C174 C 0.45892 0.73737 0.03654 0.0
N175 N 0.5029 0.79521 0.08755 0.0
C176 C 0.46479 0.81051 0.0685 0.0
Co177 Co 0.13816 0.95353 0.70507 0.0
Co178 Co 0.17309 0.02682 0.63375 0.0
O179 O 0.15128 0.96751 0.65237 0.0
C180 C 0.20958 0.88503 0.68498 0.0
O181 O 0.23389 0.92018 0.67279 0.0
C182 C 0.08737 0.01084 0.58987 0.0
O183 O 0.06711 1.00093 0.62194 0.0
O184 O 0.12466 0.06046 0.66268 0.0
O185 O 0.10789 0.01533 0.71253 0.0
H186 H 0.22207 0.19255 0.64559 0.0
H187 H 0.11036 0.88729 0.64552 0.0
O188 O 0.16928 0.89163 0.69857 0.0
H189 H 0.96555 0.9335 0.70834 0.0
H190 H 0.08918 0.84863 0.8107 0.0
H191 H 0.14409 0.00444 0.77748 0.0
H192 H 0.04039 0.96455 0.72977 0.0
H193 H 0.10534 0.86901 0.74452 0.0
O194 O 0.13001 0.02186 0.58945 0.0
H195 H 0.19503 0.11704 0.66888 0.0
H196 H 0.19641 0.06335 0.55755 0.0
H197 H 0.12796 0.98575 0.84395 0.0
H198 H 0.03634 0.85512 0.62337 0.0
H199 H 0.1003 0.90731 0.86092 0.0
H200 H 0.96324 0.87835 0.65479 0.0
O201 O 0.19764 0.98098 0.72204 0.0
H202 H 0.23316 0.90122 0.54918 0.0
H203 H 0.27467 0.03871 0.62367 0.0
H204 H 0.3356 0.996 0.58974 0.0
H205 H 0.31495 0.92674 0.5521 0.0
H206 H 0.17342 0.94474 0.58388 0.0
H207 H 0.22306 0.13842 0.53299 0.0
H208 H 0.23627 0.2036 0.57718 0.0
O209 O 0.21655 0.03286 0.67748 0.0
C210 C 0.10442 0.05308 0.69404 0.0
C211 C 0.21658 0.16437 0.62607 0.0
C212 C 0.21707 0.13401 0.56287 0.0
N213 N 0.19451 0.08575 0.61464 0.0
C214 C 0.20141 0.1215 0.6391 0.0
C215 C 0.20187 0.09163 0.57692 0.0
C216 C 0.2245 0.17056 0.58768 0.0
C217 C 0.07874 0.8972 0.65957 0.0
N218 N 0.07969 0.92755 0.68902 0.0
C219 C 0.03691 0.87903 0.6468 0.0
C220 C 0.9959 0.89212 0.66441 0.0
C221 C 0.99717 0.92309 0.69444 0.0
C222 C 0.03963 0.94063 0.7064 0.0
C223 C 0.10106 0.88298 0.80365 0.0
C224 C 0.13161 0.97042 0.78461 0.0
C225 C 0.11031 0.89469 0.76625 0.0
N226 N 0.12506 0.93808 0.75712 0.0
C227 C 0.12275 0.95995 0.82231 0.0
C228 C 0.10729 0.91592 0.83182 0.0
C229 C 0.22319 0.01323 0.70929 0.0
C230 C 0.24258 0.93138 0.56544 0.0
C231 C 0.26549 0.00848 0.60754 0.0
C232 C 0.30009 0.98452 0.58827 0.0
C233 C 0.28847 0.94568 0.56713 0.0
N234 N 0.22057 0.99424 0.60575 0.0
C235 C 0.20889 0.95624 0.58505 0.0
Co236 Co 0.96549 0.35678 0.80465 0.0
Co237 Co 0.02832 0.33039 0.88448 0.0
O238 O 0.97307 0.35329 0.85917 0.0
C239 C 0.88518 0.30127 0.8289 0.0
O240 O 0.91445 0.27311 0.84545 0.0
C241 C 0.01429 0.42382 0.91591 0.0
O242 O 0.00977 0.438 0.88098 0.0
O243 O 0.06875 0.37035 0.85281 0.0
O244 O 0.03076 0.37763 0.79783 0.0
H245 H 0.19001 0.26741 0.89091 0.0
H246 H 0.89919 0.40531 0.85474 0.0
O247 O 0.89978 0.33627 0.81075 0.0
H248 H 0.9681 0.52692 0.77557 0.0
H249 H 0.87742 0.39352 0.68602 0.0
H250 H 0.02191 0.32983 0.73845 0.0
H251 H 0.99084 0.44541 0.7673 0.0
H252 H 0.88949 0.38998 0.75477 0.0
O253 O 0.0226 0.38137 0.92265 0.0
H254 H 0.11932 0.2951 0.85916 0.0
H255 H 0.05537 0.31895 0.96505 0.0
H256 H 0.01146 0.33301 0.66955 0.0
H257 H 0.8752 0.48635 0.86373 0.0
H258 H 0.93876 0.36504 0.64291 0.0
H259 H 0.90985 0.54782 0.82405 0.0
O260 O 0.98613 0.29153 0.79842 0.0
H261 H 0.88977 0.2966 0.96498 0.0
H262 H 0.03076 0.23145 0.90786 0.0
H263 H 0.9798 0.18106 0.94528 0.0
H264 H 0.90872 0.21365 0.9742 0.0
H265 H 0.94154 0.34559 0.92705 0.0
H266 H 0.12548 0.2919 0.99796 0.0
H267 H 0.19338 0.26572 0.96081 0.0
O268 O 0.03456 0.27879 0.847 0.0
C269 C 0.06635 0.38343 0.81851 0.0
C270 C 0.16059 0.27857 0.90741 0.0
C271 C 0.1244 0.29239 0.96749 0.0
N272 N 0.08316 0.30825 0.91023 0.0
C273 C 0.12044 0.29414 0.88959 0.0
C274 C 0.08484 0.30776 0.9487 0.0
C275 C 0.16248 0.27769 0.94663 0.0
C276 C 0.91407 0.4318 0.83709 0.0
N277 N 0.94618 0.4206 0.81038 0.0
C278 C 0.9005 0.47766 0.84243 0.0
C279 C 0.92002 0.51214 0.8202 0.0
C280 C 0.95272 0.50044 0.79301 0.0
C281 C 0.96552 0.45423 0.78851 0.0
C282 C 0.90929 0.37958 0.69728 0.0
C283 C 0.99033 0.34411 0.72707 0.0
C284 C 0.91627 0.37742 0.73618 0.0
N285 N 0.95653 0.36008 0.75058 0.0
C286 C 0.98454 0.34569 0.68803 0.0
C287 C 0.94373 0.36361 0.67311 0.0
C288 C 0.01551 0.26663 0.81604 0.0
C289 C 0.92066 0.282 0.95256 0.0
C290 C 0.99978 0.24577 0.92014 0.0
C291 C 0.97113 0.21714 0.94143 0.0
C292 C 0.93128 0.23545 0.95768 0.0
N293 N 0.98912 0.29137 0.91523 0.0
C294 C 0.95017 0.3096 0.93114 0.0
Co295 Co 0.6407 0.45246 0.29892 0.0
Co296 Co 0.67204 0.52342 0.37315 0.0
O297 O 0.6491 0.46547 0.35244 0.0
C298 C 0.7037 0.38059 0.32751 0.0
O299 O 0.72424 0.41339 0.34664 0.0
C300 C 0.58006 0.51099 0.40704 0.0
O301 O 0.56609 0.50187 0.37267 0.0
O302 O 0.62995 0.55995 0.34035 0.0
O303 O 0.61296 0.5151 0.29037 0.0
H304 H 0.73232 0.68583 0.3669 0.0
H305 H 0.60511 0.38665 0.35588 0.0
O306 O 0.6693 0.38974 0.30634 0.0
H307 H 0.46845 0.43776 0.28397 0.0
H308 H 0.59989 0.35083 0.18886 0.0
H309 H 0.6541 0.50484 0.22794 0.0
H310 H 0.54608 0.46652 0.26773 0.0
H311 H 0.61003 0.36947 0.25618 0.0
O312 O 0.62238 0.52099 0.41297 0.0
H313 H 0.70438 0.61202 0.34077 0.0
H314 H 0.68649 0.55853 0.45118 0.0
H315 H 0.64405 0.4879 0.16035 0.0
H316 H 0.52816 0.35679 0.37293 0.0
H317 H 0.61678 0.41035 0.14043 0.0
H318 H 0.45914 0.3825 0.33693 0.0
O319 O 0.70243 0.4778 0.28657 0.0
H320 H 0.71214 0.39612 0.46372 0.0
H321 H 0.77246 0.5282 0.39132 0.0
H322 H 0.82563 0.48235 0.43081 0.0
H323 H 0.79549 0.4158 0.4674 0.0
H324 H 0.66029 0.44266 0.4236 0.0
H325 H 0.71387 0.63189 0.47853 0.0
H326 H 0.73717 0.69611 0.43625 0.0
O327 O 0.72158 0.52671 0.33335 0.0
C328 C 0.61077 0.55317 0.30848 0.0
C329 C 0.72242 0.65805 0.38561 0.0
C330 C 0.712 0.6278 0.44826 0.0
N331 N 0.69423 0.58091 0.39443 0.0
C332 C 0.70673 0.61613 0.37098 0.0
C333 C 0.69645 0.58638 0.43263 0.0
C334 C 0.72509 0.66381 0.42453 0.0
C335 C 0.5753 0.39759 0.33982 0.0
N336 N 0.5801 0.42803 0.31069 0.0
C337 C 0.53179 0.38074 0.34971 0.0
C338 C 0.49307 0.39523 0.32954 0.0
C339 C 0.49827 0.42625 0.29983 0.0
C340 C 0.54229 0.44246 0.29079 0.0
C341 C 0.61169 0.38477 0.19719 0.0
C342 C 0.64186 0.47119 0.2195 0.0
C343 C 0.61758 0.39549 0.23525 0.0
N344 N 0.63226 0.43835 0.24596 0.0
C345 C 0.6364 0.46172 0.18118 0.0
C346 C 0.62116 0.41819 0.17003 0.0
C347 C 0.72932 0.50743 0.3015 0.0
C348 C 0.72565 0.42513 0.448 0.0
C349 C 0.75914 0.49921 0.40706 0.0
C350 C 0.78937 0.47344 0.42945 0.0
C351 C 0.77243 0.43613 0.45 0.0
N352 N 0.71331 0.48819 0.40526 0.0
C353 C 0.69642 0.45173 0.42538 0.0
Co354 Co 0.54734 0.15596 0.80147 0.0
Co355 Co 0.4745 0.17339 0.87697 0.0
O356 O 0.53358 0.15503 0.85519 0.0
C357 C 0.62447 0.21331 0.83086 0.0
O358 O 0.59394 0.24272 0.84408 0.0
C359 C 0.49007 0.07896 0.90617 0.0
O360 O 0.49815 0.06651 0.87122 0.0
O361 O 0.43977 0.1336 0.84067 0.0
O362 O 0.48387 0.13449 0.7886 0.0
H363 H 0.30969 0.22808 0.87347 0.0
H364 H 0.60909 0.10514 0.85389 0.0
O365 O 0.61161 0.17717 0.81336 0.0
H366 H 0.55246 0.98829 0.76409 0.0
H367 H 0.64925 0.12993 0.68852 0.0
H368 H 0.49818 0.18724 0.73265 0.0
H369 H 0.52866 0.06981 0.75806 0.0
H370 H 0.62934 0.12784 0.75606 0.0
O371 O 0.47895 0.12059 0.91351 0.0
H372 H 0.38491 0.20581 0.84621 0.0
H373 H 0.43803 0.17823 0.95548 0.0
H374 H 0.5165 0.18973 0.66487 0.0
H375 H 0.63404 0.02408 0.86076 0.0
H376 H 0.59255 0.1609 0.64239 0.0
H377 H 0.60555 0.96499 0.81573 0.0
O378 O 0.52522 0.22101 0.79701 0.0
H379 H 0.6016 0.20908 0.96887 0.0
H380 H 0.46373 0.27028 0.90419 0.0
H381 H 0.50731 0.3207 0.9474 0.0
H382 H 0.57677 0.29007 0.98016 0.0
H383 H 0.55722 0.16006 0.92512 0.0
H384 H 0.36327 0.1998 0.9839 0.0
H385 H 0.29851 0.22513 0.94279 0.0
O386 O 0.46965 0.22685 0.8412 0.0
C387 C 0.44641 0.12501 0.8058 0.0
C388 C 0.33768 0.21724 0.89168 0.0
C389 C 0.36773 0.2013 0.95366 0.0
N390 N 0.4159 0.19108 0.89925 0.0
C391 C 0.38039 0.20473 0.87642 0.0
C392 C 0.40995 0.18901 0.9374 0.0
C393 C 0.33142 0.21553 0.93058 0.0
C394 C 0.59695 0.07972 0.83393 0.0
N395 N 0.56769 0.09225 0.80547 0.0
C396 C 0.61103 0.03383 0.83807 0.0
C397 C 0.59497 1.00069 0.81283 0.0
C398 C 0.56515 0.01373 0.78386 0.0
C399 C 0.55173 0.05993 0.78063 0.0
C400 C 0.61597 0.14249 0.69795 0.0
C401 C 0.53119 0.17437 0.72307 0.0
C402 C 0.60452 0.14146 0.73616 0.0
N403 N 0.56246 0.15705 0.74824 0.0
C404 C 0.54144 0.17598 0.68466 0.0
C405 C 0.58413 0.15986 0.67208 0.0
C406 C 0.492 0.24262 0.81293 0.0
C407 C 0.57139 0.22282 0.95477 0.0
C408 C 0.49409 0.25687 0.91809 0.0
C409 C 0.51853 0.28549 0.94267 0.0
C410 C 0.55747 0.26827 0.96107 0.0
N411 N 0.50795 0.21234 0.91206 0.0
C412 C 0.54606 0.1952 0.93003 0.0
Co413 Co 0.86643 0.04823 0.29788 0.0
Co414 Co 0.82485 0.98274 0.37217 0.0
O415 O 0.85146 0.03912 0.35115 0.0
C416 C 0.80236 0.12423 0.31676 0.0
O417 O 0.77919 0.09449 0.33716 0.0
C418 C 0.91143 0.99531 0.41575 0.0
O419 O 0.93223 0.00292 0.38349 0.0
O420 O 0.87061 0.94349 0.345 0.0
O421 O 0.8933 0.98477 0.29462 0.0
H422 H 0.7633 0.82077 0.36692 0.0
H423 H 0.89667 0.11744 0.35415 0.0
O424 O 0.83888 0.11188 0.29942 0.0
H425 H 0.04002 0.05813 0.2966 0.0
H426 H 0.92409 0.14002 0.18711 0.0
H427 H 0.85881 0.99139 0.22865 0.0
H428 H 0.96401 0.02973 0.27547 0.0
H429 H 0.90541 0.12679 0.25404 0.0
O430 O 0.86823 0.98679 0.41637 0.0
H431 H 0.79594 0.89252 0.34067 0.0
H432 H 0.79852 0.95291 0.44968 0.0
H433 H 0.87739 0.00292 0.16152 0.0
H434 H 0.97194 0.14704 0.37597 0.0
H435 H 0.91026 0.07772 0.14036 0.0
H436 H 0.04429 0.11722 0.3472 0.0
O437 O 0.80563 0.02349 0.28164 0.0
H438 H 0.77521 0.11663 0.4527 0.0
H439 H 0.7225 0.98018 0.38172 0.0
H440 H 0.66524 0.02936 0.41404 0.0
H441 H 0.69153 0.09813 0.4499 0.0
H442 H 0.83122 0.06674 0.41961 0.0
H443 H 0.76627 0.88168 0.47716 0.0
H444 H 0.74829 0.81502 0.43563 0.0
O445 O 0.78092 0.97753 0.32854 0.0
C446 C 0.89316 0.94793 0.31435 0.0
C447 C 0.77085 0.84963 0.38528 0.0
C448 C 0.77258 0.88379 0.44716 0.0
N449 N 0.79877 0.92696 0.39357 0.0
C450 C 0.7892 0.89038 0.37057 0.0
C451 C 0.79092 0.92399 0.43146 0.0
C452 C 0.76248 0.84641 0.42385 0.0
C453 C 0.928 0.10467 0.34125 0.0
N454 N 0.92597 0.07214 0.31343 0.0
C455 C 0.97052 0.1214 0.35382 0.0
C456 C 0.0111 0.1046 0.3377 0.0
C457 C 0.00873 0.07142 0.30932 0.0
C458 C 0.96561 0.05543 0.29752 0.0
C459 C 0.90993 0.10722 0.196 0.0
C460 C 0.87353 0.02384 0.21971 0.0
C461 C 0.89924 0.09955 0.23384 0.0
N462 N 0.88158 0.05813 0.24529 0.0
C463 C 0.88379 0.03025 0.18164 0.0
C464 C 0.90217 0.07225 0.16978 0.0
C465 C 0.77679 0.99508 0.29566 0.0
C466 C 0.76333 0.08671 0.43723 0.0
C467 C 0.73416 0.01018 0.39707 0.0
C468 C 0.70161 0.03781 0.41544 0.0
C469 C 0.71638 0.07636 0.43559 0.0
N470 N 0.78013 0.02059 0.39877 0.0
C471 C 0.79491 0.05823 0.41858 0.0
H472 H 0.02686 0.40765 0.99097 0.0
H473 H 0.98862 0.51453 0.91196 0.0
H474 H 0.97856 0.56909 0.96372 0.0
H475 H 0.98089 0.58677 0.03125 0.0
H476 H 0.01999 0.48041 0.11041 0.0
H477 H 0.02929 0.42545 0.05872 0.0
C478 C 0.01633 0.44288 0.98503 0.0
C479 C 0.00864 0.4569 0.94753 0.0
C480 C 0.01066 0.47422 0.01497 0.0
C481 C 0.99501 0.50274 0.94046 0.0
C482 C 0.98915 0.53401 0.97008 0.0
C483 C 0.9913 0.55153 0.0373 0.0
C484 C 0.99955 0.53779 0.07478 0.0
C485 C 0.9969 0.52016 0.00742 0.0
C486 C 0.01326 0.49199 0.08192 0.0
C487 C 0.01865 0.46051 0.05234 0.0
H488 H 0.41474 0.48894 0.52164 0.0
H489 H 0.51901 0.53519 0.59992 0.0
H490 H 0.57501 0.54061 0.54862 0.0
H491 H 0.59469 0.5315 0.48139 0.0
H492 H 0.48976 0.48504 0.40368 0.0
H493 H 0.43401 0.48048 0.45488 0.0
C494 C 0.44968 0.50031 0.52756 0.0
C495 C 0.46255 0.51154 0.56468 0.0
C496 C 0.48175 0.50329 0.49797 0.0
C497 C 0.50806 0.52622 0.57168 0.0
C498 C 0.54018 0.52933 0.54233 0.0
C499 C 0.55963 0.52042 0.47565 0.0
C500 C 0.54657 0.50872 0.43863 0.0
C501 C 0.52747 0.51781 0.50535 0.0
C502 C 0.5009 0.49443 0.43179 0.0
C503 C 0.46888 0.49174 0.4611 0.0
H504 H 0.52711 0.91514 0.02014 0.0
H505 H 0.48368 0.01911 0.09991 0.0
H506 H 0.47262 0.07425 0.04861 0.0
H507 H 0.47518 0.09307 0.98115 0.0
H508 H 0.51824 0.98893 0.9014 0.0
H509 H 0.52934 0.93384 0.9527 0.0
C510 C 0.51534 0.9499 0.02639 0.0
C511 C 0.50644 0.96292 0.06395 0.0
C512 C 0.5088 0.98143 0.99673 0.0
C513 C 0.49098 0.00809 0.07136 0.0
C514 C 0.48456 0.03969 0.04201 0.0
C515 C 0.4869 0.0583 0.97491 0.0
C516 C 0.49572 0.04523 0.93735 0.0
C517 C 0.49331 0.02673 0.00458 0.0
C518 C 0.51098 0.99998 0.92994 0.0
C519 C 0.51744 0.96842 0.9593 0.0
H520 H 0.00279 0.0154 0.42542 0.0
H521 H 0.87989 0.97757 0.48687 0.0
H522 H 0.92327 0.97869 0.5458 0.0
H523 H 0.9961 0.99035 0.58017 0.0
H524 H 0.11891 0.02853 0.51874 0.0
H525 H 0.07559 0.02717 0.45979 0.0
C526 C 0.98545 0.00735 0.45167 0.0
C527 C 0.93807 0.99636 0.45155 0.0
C528 C 0.01062 0.00808 0.48561 0.0
C529 C 0.91627 0.98617 0.48598 0.0
C530 C 0.94108 0.98676 0.51978 0.0
C531 C 0.01345 0.99838 0.55391 0.0
C532 C 0.06078 0.00956 0.55406 0.0
C533 C 0.98827 0.99766 0.51997 0.0
C534 C 0.08256 0.01982 0.51963 0.0
C535 C 0.05778 0.01907 0.48581 0.0
H536 H 0.20255 0.66896 0.16973 0.0
H537 H 0.1448 0.80635 0.16761 0.0
H538 H 0.22238 0.83939 0.16422 0.0
H539 H 0.30686 0.82922 0.16465 0.0
H540 H 0.36453 0.69182 0.16165 0.0
H541 H 0.28689 0.6587 0.16392 0.0
C542 C 0.20709 0.70611 0.16834 0.0
C543 C 0.16821 0.73526 0.16931 0.0
C544 C 0.25172 0.7248 0.16549 0.0
C545 C 0.17431 0.78327 0.1669 0.0
C546 C 0.21862 0.80217 0.16508 0.0
C547 C 0.3023 0.79203 0.16423 0.0
C548 C 0.34122 0.76295 0.16331 0.0
C549 C 0.25759 0.77329 0.16477 0.0
C550 C 0.335 0.71487 0.16226 0.0
C551 C 0.29066 0.69593 0.16374 0.0
H552 H 0.32768 0.70118 0.68746 0.0
H553 H 0.19242 0.64086 0.67534 0.0
H554 H 0.1572 0.71773 0.67613 0.0
H555 H 0.16482 0.80246 0.68074 0.0
H556 H 0.3007 0.86266 0.68775 0.0
H557 H 0.33562 0.78578 0.68844 0.0
C558 C 0.29049 0.70493 0.68503 0.0
C559 C 0.26267 0.66541 0.68164 0.0
C560 C 0.27057 0.74929 0.68459 0.0
C561 C 0.2146 0.67077 0.67794 0.0
C562 C 0.19442 0.71471 0.67849 0.0
C563 C 0.20205 0.79864 0.68245 0.0
C564 C 0.23011 0.83815 0.68445 0.0
C565 C 0.22203 0.75425 0.68189 0.0
C566 C 0.27834 0.83277 0.68612 0.0
C567 C 0.29835 0.78881 0.68661 0.0
H568 H 0.66704 0.29671 0.83057 0.0
H569 H 0.69358 0.15044 0.83848 0.0
H570 H 0.77674 0.16484 0.84102 0.0
H571 H 0.84212 0.21887 0.83828 0.0
H572 H 0.81576 0.36455 0.82435 0.0
H573 H 0.73254 0.35069 0.82685 0.0
C574 C 0.69111 0.26812 0.83326 0.0
C575 C 0.67436 0.22266 0.8346 0.0
C576 C 0.73892 0.27656 0.83335 0.0
C577 C 0.7058 0.18576 0.8374 0.0
C578 C 0.7533 0.19396 0.83883 0.0
C579 C 0.8181 0.24756 0.83604 0.0
C580 C 0.83498 0.29263 0.83123 0.0
C581 C 0.77029 0.23918 0.8364 0.0
C582 C 0.80354 0.32947 0.8279 0.0
C583 C 0.75597 0.3216 0.8294 0.0
H584 H 0.73256 0.32349 0.27222 0.0
H585 H 0.71158 0.33175 0.39212 0.0
H586 H 0.73824 0.25177 0.39948 0.0
H587 H 0.76826 0.17961 0.37152 0.0
H588 H 0.79852 0.17502 0.25273 0.0
H589 H 0.76778 0.25334 0.24494 0.0
C590 C 0.7338 0.30749 0.29984 0.0
C591 C 0.71977 0.33273 0.33156 0.0
C592 C 0.75095 0.26233 0.30395 0.0
C593 C 0.72215 0.31248 0.3674 0.0
C594 C 0.73734 0.26691 0.37157 0.0
C595 C 0.768 0.19594 0.344 0.0
C596 C 0.78512 0.17181 0.31266 0.0
C597 C 0.75191 0.24152 0.34005 0.0
C598 C 0.78546 0.19323 0.27719 0.0
C599 C 0.76782 0.23785 0.27274 0.0
H600 H 0.80935 0.54698 0.3269 0.0
H601 H 0.74132 0.50016 0.22566 0.0
H602 H 0.80542 0.52786 0.18769 0.0
H603 H 0.87964 0.56813 0.18258 0.0
H604 H 0.95035 0.61069 0.2838 0.0
H605 H 0.88689 0.58164 0.32211 0.0
C606 C 0.80867 0.54266 0.29657 0.0
C607 C 0.77025 0.52185 0.27928 0.0
C608 C 0.84625 0.55794 0.27472 0.0
C609 C 0.77028 0.51607 0.23988 0.0
C610 C 0.80697 0.532 0.21801 0.0
C611 C 0.88132 0.57078 0.21303 0.0
C612 C 0.91961 0.59199 0.23014 0.0
C613 C 0.84495 0.55338 0.23505 0.0
C614 C 0.92138 0.5946 0.26973 0.0
C615 C 0.88495 0.57813 0.29175 0.0
H616 H 0.40041 0.43231 0.76696 0.0
H617 H 0.44886 0.38972 0.65743 0.0
H618 H 0.48694 0.32251 0.68557 0.0
H619 H 0.50214 0.2733 0.74077 0.0
H620 H 0.44671 0.3126 0.84897 0.0
H621 H 0.41612 0.38373 0.82199 0.0
C622 C 0.41978 0.40868 0.74929 0.0
C623 C 0.42188 0.4161 0.71018 0.0
C624 C 0.4402 0.36933 0.76545 0.0
C625 C 0.44662 0.38473 0.68762 0.0
C626 C 0.46838 0.34628 0.70369 0.0
C627 C 0.4838 0.29762 0.75854 0.0
C628 C 0.47689 0.28751 0.79693 0.0
C629 C 0.46477 0.33782 0.7425 0.0
C630 C 0.45258 0.31933 0.8194 0.0
C631 C 0.43498 0.36008 0.80396 0.0
H632 H 0.63335 0.92958 0.17231 0.0
H633 H 0.55546 0.89574 0.27228 0.0
H634 H 0.61698 0.92602 0.31175 0.0
H635 H 0.69438 0.95928 0.31838 0.0
H636 H 0.77075 0.99756 0.21886 0.0
H637 H 0.7085 0.96863 0.17903 0.0
C638 C 0.62969 0.9291 0.20271 0.0
C639 C 0.58984 0.9099 0.21912 0.0
C640 C 0.6651 0.94726 0.2255 0.0
C641 C 0.58563 0.91008 0.25865 0.0
C642 C 0.62094 0.92734 0.2814 0.0
C643 C 0.69736 0.9615 0.28801 0.0
C644 C 0.73744 0.98024 0.27176 0.0
C645 C 0.66106 0.94551 0.26518 0.0
C646 C 0.74037 0.9833 0.23225 0.0
C647 C 0.70478 0.96664 0.20937 0.0
H648 H 0.00886 0.23992 0.74253 0.0
H649 H 0.05414 0.19238 0.85176 0.0
H650 H 0.08071 0.12005 0.82407 0.0
H651 H 0.09571 0.07225 0.76842 0.0
H652 H 0.05764 0.12246 0.65833 0.0
H653 H 0.02326 0.1915 0.68673 0.0
C654 C 0.02412 0.21358 0.76036 0.0
C655 C 0.02928 0.22169 0.79927 0.0
C656 C 0.04071 0.17248 0.74403 0.0
C657 C 0.04966 0.18725 0.8218 0.0
C658 C 0.06491 0.14577 0.80596 0.0
C659 C 0.07921 0.0979 0.75068 0.0
C660 C 0.07893 0.09206 0.71135 0.0
C661 C 0.06117 0.13826 0.76707 0.0
C662 C 0.05821 0.12613 0.6887 0.0
C663 C 0.03868 0.16565 0.70491 0.0
H664 H 0.08742 0.38969 0.74418 0.0
H665 H 0.13702 0.4281 0.85446 0.0
H666 H 0.20412 0.46558 0.82596 0.0
H667 H 0.24919 0.4864 0.76972 0.0
H668 H 0.20166 0.44315 0.66 0.0
H669 H 0.13314 0.4088 0.68833 0.0
C670 C 0.11276 0.40641 0.76204 0.0
C671 C 0.10706 0.40623 0.80141 0.0
C672 C 0.15164 0.42706 0.74554 0.0
C673 C 0.14061 0.4276 0.82409 0.0
C674 C 0.17894 0.44914 0.80781 0.0
C675 C 0.22372 0.46972 0.75196 0.0
C676 C 0.23051 0.46769 0.7127 0.0
C677 C 0.18486 0.44897 0.76856 0.0
C678 C 0.1974 0.44533 0.69023 0.0
C679 C 0.15815 0.42563 0.70642 0.0
H680 H 0.60643 0.57498 0.23439 0.0
H681 H 0.56089 0.61993 0.34407 0.0
H682 H 0.52485 0.68832 0.31602 0.0
H683 H 0.51003 0.73725 0.26077 0.0
H684 H 0.56225 0.69562 0.15211 0.0
H685 H 0.59182 0.624 0.1792 0.0
C686 C 0.58809 0.59946 0.25203 0.0
C687 C 0.58604 0.59239 0.29114 0.0
C688 C 0.56895 0.63944 0.23591 0.0
C689 C 0.56291 0.62477 0.31385 0.0
C690 C 0.54236 0.66383 0.29785 0.0
C691 C 0.52753 0.71235 0.24296 0.0
C692 C 0.53378 0.72179 0.20442 0.0
C693 C 0.54573 0.67184 0.25897 0.0
C694 C 0.55705 0.68935 0.18183 0.0
C695 C 0.57396 0.64831 0.19731 0.0
H696 H 0.37116 0.0761 0.83037 0.0
H697 H 0.43614 0.12898 0.72978 0.0
H698 H 0.37329 0.09939 0.69153 0.0
H699 H 0.29931 0.05992 0.68622 0.0
H700 H 0.23525 0.00254 0.78539 0.0
H701 H 0.29818 0.03226 0.82437 0.0
C702 C 0.37154 0.08105 0.80009 0.0
C703 C 0.40835 0.10499 0.78313 0.0
C704 C 0.33541 0.06313 0.77788 0.0
C705 C 0.40847 0.11067 0.74375 0.0
C706 C 0.3724 0.09383 0.72172 0.0
C707 C 0.29907 0.05371 0.71632 0.0
C708 C 0.26242 0.0292 0.73277 0.0
C709 C 0.33564 0.07021 0.73846 0.0
C710 C 0.26304 0.02123 0.77188 0.0
C711 C 0.29898 0.03834 0.79426 0.0
H712 H 0.98737 0.75743 0.27336 0.0
H713 H 0.9666 0.81106 0.16129 0.0
H714 H 0.93738 0.88348 0.18729 0.0
H715 H 0.914 0.92976 0.24153 0.0
H716 H 0.92757 0.87415 0.35374 0.0
H717 H 0.96376 0.80436 0.32814 0.0
C718 C 0.97685 0.78519 0.25472 0.0
C719 C 0.97907 0.77899 0.21548 0.0
C720 C 0.95872 0.82624 0.26991 0.0
C721 C 0.96482 0.81493 0.19157 0.0
C722 C 0.94824 0.85637 0.20643 0.0
C723 C 0.92526 0.90265 0.26048 0.0
C724 C 0.91819 0.90722 0.29949 0.0
C725 C 0.94447 0.86214 0.24551 0.0
C726 C 0.93254 0.87142 0.32358 0.0
C727 C 0.95319 0.83153 0.30896 0.0
loop_
_geom_bond_atom_site_label_1
_geom_bond_atom_site_label_2
_geom_bond_distance
_geom_bond_site_symmetry_2
_ccdc_geom_bond_type
Co0 O2 2.143 . S
Co0 O8 2.074 1_455 S
Co0 O11 2.093 . S
Co0 O24 2.097 . S
Co0 N41 2.151 . S
Co0 N49 2.214 . S
Co1 O2 2.160 1_655 S
Co1 O7 2.058 . S
Co1 O17 2.057 . S
Co1 O32 2.037 . S
Co1 N36 2.145 . S
Co1 N57 2.257 . S
O2 Co0 2.143 . S
O2 Co1 2.160 1_455 S
C3 O4 1.278 . S
C3 O11 1.224 . S
O4 C3 1.278 . S
C5 O6 1.245 . S
C5 O17 1.232 1_455 S
O6 C5 1.245 . S
O7 Co1 2.058 . S
O7 C33 1.269 . S
O8 Co0 2.074 1_655 S
O8 C33 1.257 . S
H9 C34 0.930 . S
H10 C40 0.930 . S
O11 Co0 2.093 . S
O11 C3 1.224 . S
H12 C44 0.929 . S
H13 C46 0.930 . S
H14 C47 0.930 1_655 S
H15 C45 0.929 . S
H16 C48 0.928 . S
O17 Co1 2.057 . S
O17 C5 1.232 1_655 S
H18 C37 0.929 . S
H19 C38 0.929 . S
H20 C50 0.931 1_655 S
H21 C42 0.929 . S
H22 C51 0.930 . S
H23 C43 0.931 . S
O24 Co0 2.097 . S
O24 C52 1.214 1_455 S
H25 C53 0.929 . S
H26 C54 0.929 . S
H27 C55 0.930 . S
H28 C56 0.929 . S
H29 C58 0.930 . S
H30 C35 0.930 . S
H31 C39 0.930 . S
O32 Co1 2.037 . S
O32 C52 1.234 . S
C33 O7 1.269 . S
C33 O8 1.257 . S
C34 H9 0.930 . S
C34 C37 1.388 . S
C34 C39 1.418 . S
C35 H30 0.930 . S
C35 C38 1.404 . S
C35 C39 1.353 . S
N36 Co1 2.145 . S
N36 C37 1.397 . S
N36 C38 1.334 . S
C37 H18 0.929 . S
C37 C34 1.388 . S
C37 N36 1.397 . S
C38 H19 0.929 . S
C38 C35 1.404 . S
C38 N36 1.334 . S
C39 H31 0.930 . S
C39 C34 1.418 . S
C39 C35 1.353 . S
C40 H10 0.930 . S
C40 N41 1.330 . S
C40 C42 1.446 . S
N41 Co0 2.151 . S
N41 C40 1.330 . S
N41 C45 1.418 . S
C42 H21 0.929 . S
C42 C40 1.446 . S
C42 C43 1.332 . S
C43 H23 0.931 . S
C43 C42 1.332 . S
C43 C44 1.267 . S
C44 H12 0.929 . S
C44 C43 1.267 . S
C44 C45 1.251 . S
C45 H15 0.929 . S
C45 N41 1.418 . S
C45 C44 1.251 . S
C46 H13 0.930 . S
C46 C48 1.406 . S
C46 C51 1.261 . S
C47 H14 0.930 1_455 S
C47 N49 1.325 . S
C47 C50 1.357 . S
C48 H16 0.928 . S
C48 C46 1.406 . S
C48 N49 1.261 . S
N49 Co0 2.214 . S
N49 C47 1.325 . S
N49 C48 1.261 . S
C50 H20 0.931 1_455 S
C50 C47 1.357 . S
C50 C51 1.312 . S
C51 H22 0.930 . S
C51 C46 1.261 . S
C51 C50 1.312 . S
C52 O24 1.214 1_655 S
C52 O32 1.234 . S
C53 H25 0.929 . S
C53 C56 1.391 . S
C53 C58 1.391 . S
C54 H26 0.929 . S
C54 C55 1.390 . S
C54 N57 1.391 . S
C55 H27 0.930 . S
C55 C54 1.390 . S
C55 C56 1.392 1_655 S
C56 H28 0.929 . S
C56 C53 1.391 . S
C56 C55 1.392 1_455 S
N57 Co1 2.257 . S
N57 C54 1.391 . S
N57 C58 1.388 1_655 S
C58 H29 0.930 . S
C58 C53 1.391 . S
C58 N57 1.388 1_455 S
Co59 O61 2.143 . S
Co59 O67 2.074 . S
Co59 O70 2.093 . S
Co59 O83 2.097 . S
Co59 N100 2.151 . S
Co59 N108 2.214 . S
Co60 O61 2.160 . S
Co60 O66 2.058 . S
Co60 O76 2.057 . S
Co60 O91 2.037 . S
Co60 N95 2.145 . S
Co60 N116 2.257 . S
O61 Co59 2.143 . S
O61 Co60 2.160 . S
C62 O63 1.278 . S
C62 O70 1.224 . S
O63 C62 1.278 . S
C64 O65 1.245 . S
C64 O76 1.232 . S
O65 C64 1.245 . S
O66 Co60 2.058 . S
O66 C92 1.269 . S
O67 Co59 2.074 . S
O67 C92 1.257 . S
H68 C93 0.930 . S
H69 C99 0.930 . S
O70 Co59 2.093 . S
O70 C62 1.224 . S
H71 C103 0.929 . S
H72 C105 0.930 . S
H73 C106 0.930 . S
H74 C104 0.929 . S
H75 C107 0.928 . S
O76 Co60 2.057 . S
O76 C64 1.232 . S
H77 C96 0.929 . S
H78 C97 0.929 . S
H79 C109 0.931 . S
H80 C101 0.929 . S
H81 C110 0.930 . S
H82 C102 0.931 . S
O83 Co59 2.097 . S
O83 C111 1.214 . S
H84 C112 0.929 . S
H85 C113 0.929 . S
H86 C114 0.930 . S
H87 C115 0.929 . S
H88 C117 0.930 . S
H89 C94 0.930 . S
H90 C98 0.930 . S
O91 Co60 2.037 . S
O91 C111 1.234 . S
C92 O66 1.269 . S
C92 O67 1.257 . S
C93 H68 0.930 . S
C93 C96 1.388 . S
C93 C98 1.418 . S
C94 H89 0.930 . S
C94 C97 1.404 . S
C94 C98 1.353 . S
N95 Co60 2.145 . S
N95 C96 1.397 . S
N95 C97 1.334 . S
C96 H77 0.929 . S
C96 C93 1.388 . S
C96 N95 1.397 . S
C97 H78 0.929 . S
C97 C94 1.404 . S
C97 N95 1.334 . S
C98 H90 0.930 . S
C98 C93 1.418 . S
C98 C94 1.353 . S
C99 H69 0.930 . S
C99 N100 1.330 . S
C99 C101 1.446 . S
N100 Co59 2.151 . S
N100 C99 1.330 . S
N100 C104 1.418 . S
C101 H80 0.929 . S
C101 C99 1.446 . S
C101 C102 1.332 . S
C102 H82 0.931 . S
C102 C101 1.332 . S
C102 C103 1.267 . S
C103 H71 0.929 . S
C103 C102 1.267 . S
C103 C104 1.251 . S
C104 H74 0.929 . S
C104 N100 1.418 . S
C104 C103 1.251 . S
C105 H72 0.930 . S
C105 C107 1.406 . S
C105 C110 1.261 . S
C106 H73 0.930 . S
C106 N108 1.325 . S
C106 C109 1.357 . S
C107 H75 0.928 . S
C107 C105 1.406 . S
C107 N108 1.261 . S
N108 Co59 2.214 . S
N108 C106 1.325 . S
N108 C107 1.261 . S
C109 H79 0.931 . S
C109 C106 1.357 . S
C109 C110 1.312 . S
C110 H81 0.930 . S
C110 C105 1.261 . S
C110 C109 1.312 . S
C111 O83 1.214 . S
C111 O91 1.234 . S
C112 H84 0.929 . S
C112 C115 1.391 . S
C112 C117 1.391 . S
C113 H85 0.929 . S
C113 C114 1.390 . S
C113 N116 1.391 . S
C114 H86 0.930 . S
C114 C113 1.390 . S
C114 C115 1.392 . S
C115 H87 0.929 . S
C115 C112 1.391 . S
C115 C114 1.392 . S
N116 Co60 2.257 . S
N116 C113 1.391 . S
N116 C117 1.388 . S
C117 H88 0.930 . S
C117 C112 1.391 . S
C117 N116 1.388 . S
Co118 O120 2.143 . S
Co118 O126 2.074 . S
Co118 O129 2.093 . S
Co118 O142 2.097 . S
Co118 N159 2.151 . S
Co118 N167 2.214 . S
Co119 O120 2.160 . S
Co119 O125 2.058 . S
Co119 O135 2.057 . S
Co119 O150 2.037 . S
Co119 N154 2.145 . S
Co119 N175 2.257 . S
O120 Co118 2.143 . S
O120 Co119 2.160 . S
C121 O122 1.278 . S
C121 O129 1.224 . S
O122 C121 1.278 . S
C123 O124 1.245 . S
C123 O135 1.232 . S
O124 C123 1.245 . S
O125 Co119 2.058 . S
O125 C151 1.269 . S
O126 Co118 2.074 . S
O126 C151 1.257 . S
H127 C152 0.930 . S
H128 C158 0.930 . S
O129 Co118 2.093 . S
O129 C121 1.224 . S
H130 C162 0.929 . S
H131 C164 0.930 . S
H132 C165 0.930 . S
H133 C163 0.929 . S
H134 C166 0.928 . S
O135 Co119 2.057 . S
O135 C123 1.232 . S
H136 C155 0.929 . S
H137 C156 0.929 . S
H138 C168 0.931 . S
H139 C160 0.929 . S
H140 C169 0.930 . S
H141 C161 0.931 1_545 S
O142 Co118 2.097 . S
O142 C170 1.214 . S
H143 C171 0.929 . S
H144 C172 0.929 . S
H145 C173 0.930 . S
H146 C174 0.929 . S
H147 C176 0.930 . S
H148 C153 0.930 . S
H149 C157 0.930 . S
O150 Co119 2.037 . S
O150 C170 1.234 . S
C151 O125 1.269 . S
C151 O126 1.257 . S
C152 H127 0.930 . S
C152 C155 1.388 . S
C152 C157 1.418 . S
C153 H148 0.930 . S
C153 C156 1.404 . S
C153 C157 1.353 . S
N154 Co119 2.145 . S
N154 C155 1.397 . S
N154 C156 1.334 . S
C155 H136 0.929 . S
C155 C152 1.388 . S
C155 N154 1.397 . S
C156 H137 0.929 . S
C156 C153 1.404 . S
C156 N154 1.334 . S
C157 H149 0.930 . S
C157 C152 1.418 . S
C157 C153 1.353 . S
C158 H128 0.930 . S
C158 N159 1.330 . S
C158 C160 1.446 . S
N159 Co118 2.151 . S
N159 C158 1.330 . S
N159 C163 1.418 . S
C160 H139 0.929 . S
C160 C158 1.446 . S
C160 C161 1.332 . S
C161 H141 0.931 1_565 S
C161 C160 1.332 . S
C161 C162 1.267 . S
C162 H130 0.929 . S
C162 C161 1.267 . S
C162 C163 1.251 . S
C163 H133 0.929 . S
C163 N159 1.418 . S
C163 C162 1.251 . S
C164 H131 0.930 . S
C164 C166 1.406 . S
C164 C169 1.261 . S
C165 H132 0.930 . S
C165 N167 1.325 . S
C165 C168 1.357 . S
C166 H134 0.928 . S
C166 C164 1.406 . S
C166 N167 1.261 . S
N167 Co118 2.214 . S
N167 C165 1.325 . S
N167 C166 1.261 . S
C168 H138 0.931 . S
C168 C165 1.357 . S
C168 C169 1.312 . S
C169 H140 0.930 . S
C169 C164 1.261 . S
C169 C168 1.312 . S
C170 O142 1.214 . S
C170 O150 1.234 . S
C171 H143 0.929 . S
C171 C174 1.391 . S
C171 C176 1.391 . S
C172 H144 0.929 . S
C172 C173 1.390 . S
C172 N175 1.391 . S
C173 H145 0.930 . S
C173 C172 1.390 . S
C173 C174 1.392 . S
C174 H146 0.929 . S
C174 C171 1.391 . S
C174 C173 1.392 . S
N175 Co119 2.257 . S
N175 C172 1.391 . S
N175 C176 1.388 . S
C176 H147 0.930 . S
C176 C171 1.391 . S
C176 N175 1.388 . S
Co177 O179 2.143 . S
Co177 O185 2.074 1_565 S
Co177 O188 2.093 . S
Co177 O201 2.097 . S
Co177 N218 2.151 . S
Co177 N226 2.214 . S
Co178 O179 2.160 1_545 S
Co178 O184 2.058 . S
Co178 O194 2.057 . S
Co178 O209 2.037 . S
Co178 N213 2.145 . S
Co178 N234 2.257 . S
O179 Co177 2.143 . S
O179 Co178 2.160 1_565 S
C180 O181 1.278 . S
C180 O188 1.224 . S
O181 C180 1.278 . S
C182 O183 1.245 . S
C182 O194 1.232 1_565 S
O183 C182 1.245 . S
O184 Co178 2.058 . S
O184 C210 1.269 . S
O185 Co177 2.074 1_545 S
O185 C210 1.257 . S
H186 C211 0.930 . S
H187 C217 0.930 . S
O188 Co177 2.093 . S
O188 C180 1.224 . S
H189 C221 0.929 . S
H190 C223 0.930 . S
H191 C224 0.930 1_545 S
H192 C222 0.929 . S
H193 C225 0.928 . S
O194 Co178 2.057 . S
O194 C182 1.232 1_545 S
H195 C214 0.929 . S
H196 C215 0.929 . S
H197 C227 0.931 1_545 S
H198 C219 0.929 . S
H199 C228 0.930 . S
H200 C220 0.931 1_655 S
O201 Co177 2.097 . S
O201 C229 1.214 1_565 S
H202 C230 0.929 . S
H203 C231 0.929 . S
H204 C232 0.930 . S
H205 C233 0.929 . S
H206 C235 0.930 . S
H207 C212 0.930 . S
H208 C216 0.930 . S
O209 Co178 2.037 . S
O209 C229 1.234 . S
C210 O184 1.269 . S
C210 O185 1.257 . S
C211 H186 0.930 . S
C211 C214 1.388 . S
C211 C216 1.418 . S
C212 H207 0.930 . S
C212 C215 1.404 . S
C212 C216 1.353 . S
N213 Co178 2.145 . S
N213 C214 1.397 . S
N213 C215 1.334 . S
C214 H195 0.929 . S
C214 C211 1.388 . S
C214 N213 1.397 . S
C215 H196 0.929 . S
C215 C212 1.404 . S
C215 N213 1.334 . S
C216 H208 0.930 . S
C216 C211 1.418 . S
C216 C212 1.353 . S
C217 H187 0.930 . S
C217 N218 1.330 . S
C217 C219 1.446 . S
N218 Co177 2.151 . S
N218 C217 1.330 . S
N218 C222 1.418 . S
C219 H198 0.929 . S
C219 C217 1.446 . S
C219 C220 1.332 . S
C220 H200 0.931 1_455 S
C220 C219 1.332 . S
C220 C221 1.267 . S
C221 H189 0.929 . S
C221 C220 1.267 . S
C221 C222 1.251 . S
C222 H192 0.929 . S
C222 N218 1.418 . S
C222 C221 1.251 . S
C223 H190 0.930 . S
C223 C225 1.406 . S
C223 C228 1.261 . S
C224 H191 0.930 1_565 S
C224 N226 1.325 . S
C224 C227 1.357 . S
C225 H193 0.928 . S
C225 C223 1.406 . S
C225 N226 1.261 . S
N226 Co177 2.214 . S
N226 C224 1.325 . S
N226 C225 1.261 . S
C227 H197 0.931 1_565 S
C227 C224 1.357 . S
C227 C228 1.312 . S
C228 H199 0.930 . S
C228 C223 1.261 . S
C228 C227 1.312 . S
C229 O201 1.214 1_545 S
C229 O209 1.234 . S
C230 H202 0.929 . S
C230 C233 1.391 . S
C230 C235 1.391 . S
C231 H203 0.929 . S
C231 C232 1.390 . S
C231 N234 1.391 . S
C232 H204 0.930 . S
C232 C231 1.390 . S
C232 C233 1.392 1_545 S
C233 H205 0.929 . S
C233 C230 1.391 . S
C233 C232 1.392 1_565 S
N234 Co178 2.257 . S
N234 C231 1.391 . S
N234 C235 1.388 1_545 S
C235 H206 0.930 . S
C235 C230 1.391 . S
C235 N234 1.388 1_565 S
Co236 O238 2.143 . S
Co236 O244 2.074 1_655 S
Co236 O247 2.093 . S
Co236 O260 2.097 . S
Co236 N277 2.151 . S
Co236 N285 2.214 . S
Co237 O238 2.160 1_455 S
Co237 O243 2.058 . S
Co237 O253 2.057 . S
Co237 O268 2.037 . S
Co237 N272 2.145 . S
Co237 N293 2.257 . S
O238 Co236 2.143 . S
O238 Co237 2.160 1_655 S
C239 O240 1.278 . S
C239 O247 1.224 . S
O240 C239 1.278 . S
C241 O242 1.245 . S
C241 O253 1.232 1_655 S
O242 C241 1.245 . S
O243 Co237 2.058 . S
O243 C269 1.269 . S
O244 Co236 2.074 1_455 S
O244 C269 1.257 . S
H245 C270 0.930 . S
H246 C276 0.930 . S
O247 Co236 2.093 . S
O247 C239 1.224 . S
H248 C280 0.929 . S
H249 C282 0.930 . S
H250 C283 0.930 1_455 S
H251 C281 0.929 . S
H252 C284 0.928 . S
O253 Co237 2.057 . S
O253 C241 1.232 1_455 S
H254 C273 0.929 . S
H255 C274 0.929 . S
H256 C286 0.931 1_455 S
H257 C278 0.929 . S
H258 C287 0.930 . S
H259 C279 0.931 . S
O260 Co236 2.097 . S
O260 C288 1.214 1_655 S
H261 C289 0.929 . S
H262 C290 0.929 . S
H263 C291 0.930 . S
H264 C292 0.929 . S
H265 C294 0.930 . S
H266 C271 0.930 . S
H267 C275 0.930 . S
O268 Co237 2.037 . S
O268 C288 1.234 . S
C269 O243 1.269 . S
C269 O244 1.257 . S
C270 H245 0.930 . S
C270 C273 1.388 . S
C270 C275 1.418 . S
C271 H266 0.930 . S
C271 C274 1.404 . S
C271 C275 1.353 . S
N272 Co237 2.145 . S
N272 C273 1.397 . S
N272 C274 1.334 . S
C273 H254 0.929 . S
C273 C270 1.388 . S
C273 N272 1.397 . S
C274 H255 0.929 . S
C274 C271 1.404 . S
C274 N272 1.334 . S
C275 H267 0.930 . S
C275 C270 1.418 . S
C275 C271 1.353 . S
C276 H246 0.930 . S
C276 N277 1.330 . S
C276 C278 1.446 . S
N277 Co236 2.151 . S
N277 C276 1.330 . S
N277 C281 1.418 . S
C278 H257 0.929 . S
C278 C276 1.446 . S
C278 C279 1.332 . S
C279 H259 0.931 . S
C279 C278 1.332 . S
C279 C280 1.267 . S
C280 H248 0.929 . S
C280 C279 1.267 . S
C280 C281 1.251 . S
C281 H251 0.929 . S
C281 N277 1.418 . S
C281 C280 1.251 . S
C282 H249 0.930 . S
C282 C284 1.406 . S
C282 C287 1.261 . S
C283 H250 0.930 1_655 S
C283 N285 1.325 . S
C283 C286 1.357 . S
C284 H252 0.928 . S
C284 C282 1.406 . S
C284 N285 1.261 . S
N285 Co236 2.214 . S
N285 C283 1.325 . S
N285 C284 1.261 . S
C286 H256 0.931 1_655 S
C286 C283 1.357 . S
C286 C287 1.312 . S
C287 H258 0.930 . S
C287 C282 1.261 . S
C287 C286 1.312 . S
C288 O260 1.214 1_455 S
C288 O268 1.234 . S
C289 H261 0.929 . S
C289 C292 1.391 . S
C289 C294 1.391 . S
C290 H262 0.929 . S
C290 C291 1.390 . S
C290 N293 1.391 . S
C291 H263 0.930 . S
C291 C290 1.390 . S
C291 C292 1.392 1_455 S
C292 H264 0.929 . S
C292 C289 1.391 . S
C292 C291 1.392 1_655 S
N293 Co237 2.257 . S
N293 C290 1.391 . S
N293 C294 1.388 1_455 S
C294 H265 0.930 . S
C294 C289 1.391 . S
C294 N293 1.388 1_655 S
Co295 O297 2.143 . S
Co295 O303 2.074 . S
Co295 O306 2.093 . S
Co295 O319 2.097 . S
Co295 N336 2.151 . S
Co295 N344 2.214 . S
Co296 O297 2.160 . S
Co296 O302 2.058 . S
Co296 O312 2.057 . S
Co296 O327 2.037 . S
Co296 N331 2.145 . S
Co296 N352 2.257 . S
O297 Co295 2.143 . S
O297 Co296 2.160 . S
C298 O299 1.278 . S
C298 O306 1.224 . S
O299 C298 1.278 . S
C300 O301 1.245 . S
C300 O312 1.232 . S
O301 C300 1.245 . S
O302 Co296 2.058 . S
O302 C328 1.269 . S
O303 Co295 2.074 . S
O303 C328 1.257 . S
H304 C329 0.930 . S
H305 C335 0.930 . S
O306 Co295 2.093 . S
O306 C298 1.224 . S
H307 C339 0.929 . S
H308 C341 0.930 . S
H309 C342 0.930 . S
H310 C340 0.929 . S
H311 C343 0.928 . S
O312 Co296 2.057 . S
O312 C300 1.232 . S
H313 C332 0.929 . S
H314 C333 0.929 . S
H315 C345 0.931 . S
H316 C337 0.929 . S
H317 C346 0.930 . S
H318 C338 0.931 . S
O319 Co295 2.097 . S
O319 C347 1.214 . S
H320 C348 0.929 . S
H321 C349 0.929 . S
H322 C350 0.930 . S
H323 C351 0.929 . S
H324 C353 0.930 . S
H325 C330 0.930 . S
H326 C334 0.930 . S
O327 Co296 2.037 . S
O327 C347 1.234 . S
C328 O302 1.269 . S
C328 O303 1.257 . S
C329 H304 0.930 . S
C329 C332 1.388 . S
C329 C334 1.418 . S
C330 H325 0.930 . S
C330 C333 1.404 . S
C330 C334 1.353 . S
N331 Co296 2.145 . S
N331 C332 1.397 . S
N331 C333 1.334 . S
C332 H313 0.929 . S
C332 C329 1.388 . S
C332 N331 1.397 . S
C333 H314 0.929 . S
C333 C330 1.404 . S
C333 N331 1.334 . S
C334 H326 0.930 . S
C334 C329 1.418 . S
C334 C330 1.353 . S
C335 H305 0.930 . S
C335 N336 1.330 . S
C335 C337 1.446 . S
N336 Co295 2.151 . S
N336 C335 1.330 . S
N336 C340 1.418 . S
C337 H316 0.929 . S
C337 C335 1.446 . S
C337 C338 1.332 . S
C338 H318 0.931 . S
C338 C337 1.332 . S
C338 C339 1.267 . S
C339 H307 0.929 . S
C339 C338 1.267 . S
C339 C340 1.251 . S
C340 H310 0.929 . S
C340 N336 1.418 . S
C340 C339 1.251 . S
C341 H308 0.930 . S
C341 C343 1.406 . S
C341 C346 1.261 . S
C342 H309 0.930 . S
C342 N344 1.325 . S
C342 C345 1.357 . S
C343 H311 0.928 . S
C343 C341 1.406 . S
C343 N344 1.261 . S
N344 Co295 2.214 . S
N344 C342 1.325 . S
N344 C343 1.261 . S
C345 H315 0.931 . S
C345 C342 1.357 . S
C345 C346 1.312 . S
C346 H317 0.930 . S
C346 C341 1.261 . S
C346 C345 1.312 . S
C347 O319 1.214 . S
C347 O327 1.234 . S
C348 H320 0.929 . S
C348 C351 1.391 . S
C348 C353 1.391 . S
C349 H321 0.929 . S
C349 C350 1.390 . S
C349 N352 1.391 . S
C350 H322 0.930 . S
C350 C349 1.390 . S
C350 C351 1.392 . S
C351 H323 0.929 . S
C351 C348 1.391 . S
C351 C350 1.392 . S
N352 Co296 2.257 . S
N352 C349 1.391 . S
N352 C353 1.388 . S
C353 H324 0.930 . S
C353 C348 1.391 . S
C353 N352 1.388 . S
Co354 O356 2.143 . S
Co354 O362 2.074 . S
Co354 O365 2.093 . S
Co354 O378 2.097 . S
Co354 N395 2.151 . S
Co354 N403 2.214 . S
Co355 O356 2.160 . S
Co355 O361 2.058 . S
Co355 O371 2.057 . S
Co355 O386 2.037 . S
Co355 N390 2.145 . S
Co355 N411 2.257 . S
O356 Co354 2.143 . S
O356 Co355 2.160 . S
C357 O358 1.278 . S
C357 O365 1.224 . S
O358 C357 1.278 . S
C359 O360 1.245 . S
C359 O371 1.232 . S
O360 C359 1.245 . S
O361 Co355 2.058 . S
O361 C387 1.269 . S
O362 Co354 2.074 . S
O362 C387 1.257 . S
H363 C388 0.930 . S
H364 C394 0.930 . S
O365 Co354 2.093 . S
O365 C357 1.224 . S
H366 C398 0.929 . S
H367 C400 0.930 . S
H368 C401 0.930 . S
H369 C399 0.929 . S
H370 C402 0.928 . S
O371 Co355 2.057 . S
O371 C359 1.232 . S
H372 C391 0.929 . S
H373 C392 0.929 . S
H374 C404 0.931 . S
H375 C396 0.929 . S
H376 C405 0.930 . S
H377 C397 0.931 1_565 S
O378 Co354 2.097 . S
O378 C406 1.214 . S
H379 C407 0.929 . S
H380 C408 0.929 . S
H381 C409 0.930 . S
H382 C410 0.929 . S
H383 C412 0.930 . S
H384 C389 0.930 . S
H385 C393 0.930 . S
O386 Co355 2.037 . S
O386 C406 1.234 . S
C387 O361 1.269 . S
C387 O362 1.257 . S
C388 H363 0.930 . S
C388 C391 1.388 . S
C388 C393 1.418 . S
C389 H384 0.930 . S
C389 C392 1.404 . S
C389 C393 1.353 . S
N390 Co355 2.145 . S
N390 C391 1.397 . S
N390 C392 1.334 . S
C391 H372 0.929 . S
C391 C388 1.388 . S
C391 N390 1.397 . S
C392 H373 0.929 . S
C392 C389 1.404 . S
C392 N390 1.334 . S
C393 H385 0.930 . S
C393 C388 1.418 . S
C393 C389 1.353 . S
C394 H364 0.930 . S
C394 N395 1.330 . S
C394 C396 1.446 . S
N395 Co354 2.151 . S
N395 C394 1.330 . S
N395 C399 1.418 . S
C396 H375 0.929 . S
C396 C394 1.446 . S
C396 C397 1.332 . S
C397 H377 0.931 1_545 S
C397 C396 1.332 . S
C397 C398 1.267 . S
C398 H366 0.929 . S
C398 C397 1.267 . S
C398 C399 1.251 . S
C399 H369 0.929 . S
C399 N395 1.418 . S
C399 C398 1.251 . S
C400 H367 0.930 . S
C400 C402 1.406 . S
C400 C405 1.261 . S
C401 H368 0.930 . S
C401 N403 1.325 . S
C401 C404 1.357 . S
C402 H370 0.928 . S
C402 C400 1.406 . S
C402 N403 1.261 . S
N403 Co354 2.214 . S
N403 C401 1.325 . S
N403 C402 1.261 . S
C404 H374 0.931 . S
C404 C401 1.357 . S
C404 C405 1.312 . S
C405 H376 0.930 . S
C405 C400 1.261 . S
C405 C404 1.312 . S
C406 O378 1.214 . S
C406 O386 1.234 . S
C407 H379 0.929 . S
C407 C410 1.391 . S
C407 C412 1.391 . S
C408 H380 0.929 . S
C408 C409 1.390 . S
C408 N411 1.391 . S
C409 H381 0.930 . S
C409 C408 1.390 . S
C409 C410 1.392 . S
C410 H382 0.929 . S
C410 C407 1.391 . S
C410 C409 1.392 . S
N411 Co355 2.257 . S
N411 C408 1.391 . S
N411 C412 1.388 . S
C412 H383 0.930 . S
C412 C407 1.391 . S
C412 N411 1.388 . S
Co413 O415 2.143 . S
Co413 O421 2.074 1_545 S
Co413 O424 2.093 . S
Co413 O437 2.097 . S
Co413 N454 2.151 . S
Co413 N462 2.214 . S
Co414 O415 2.160 1_565 S
Co414 O420 2.058 . S
Co414 O430 2.057 . S
Co414 O445 2.037 . S
Co414 N449 2.145 . S
Co414 N470 2.257 . S
O415 Co413 2.143 . S
O415 Co414 2.160 1_545 S
C416 O417 1.278 . S
C416 O424 1.224 . S
O417 C416 1.278 . S
C418 O419 1.245 . S
C418 O430 1.232 1_545 S
O419 C418 1.245 . S
O420 Co414 2.058 . S
O420 C446 1.269 . S
O421 Co413 2.074 1_565 S
O421 C446 1.257 . S
H422 C447 0.930 . S
H423 C453 0.930 . S
O424 Co413 2.093 . S
O424 C416 1.224 . S
H425 C457 0.929 . S
H426 C459 0.930 . S
H427 C460 0.930 1_565 S
H428 C458 0.929 . S
H429 C461 0.928 . S
O430 Co414 2.057 . S
O430 C418 1.232 1_565 S
H431 C450 0.929 . S
H432 C451 0.929 . S
H433 C463 0.931 1_565 S
H434 C455 0.929 . S
H435 C464 0.930 . S
H436 C456 0.931 1_455 S
O437 Co413 2.097 . S
O437 C465 1.214 1_545 S
H438 C466 0.929 . S
H439 C467 0.929 . S
H440 C468 0.930 . S
H441 C469 0.929 . S
H442 C471 0.930 . S
H443 C448 0.930 . S
H444 C452 0.930 . S
O445 Co414 2.037 . S
O445 C465 1.234 . S
C446 O420 1.269 . S
C446 O421 1.257 . S
C447 H422 0.930 . S
C447 C450 1.388 . S
C447 C452 1.418 . S
C448 H443 0.930 . S
C448 C451 1.404 . S
C448 C452 1.353 . S
N449 Co414 2.145 . S
N449 C450 1.397 . S
N449 C451 1.334 . S
C450 H431 0.929 . S
C450 C447 1.388 . S
C450 N449 1.397 . S
C451 H432 0.929 . S
C451 C448 1.404 . S
C451 N449 1.334 . S
C452 H444 0.930 . S
C452 C447 1.418 . S
C452 C448 1.353 . S
C453 H423 0.930 . S
C453 N454 1.330 . S
C453 C455 1.446 . S
N454 Co413 2.151 . S
N454 C453 1.330 . S
N454 C458 1.418 . S
C455 H434 0.929 . S
C455 C453 1.446 . S
C455 C456 1.332 . S
C456 H436 0.931 1_655 S
C456 C455 1.332 . S
C456 C457 1.267 . S
C457 H425 0.929 . S
C457 C456 1.267 . S
C457 C458 1.251 . S
C458 H428 0.929 . S
C458 N454 1.418 . S
C458 C457 1.251 . S
C459 H426 0.930 . S
C459 C461 1.406 . S
C459 C464 1.261 . S
C460 H427 0.930 1_545 S
C460 N462 1.325 . S
C460 C463 1.357 . S
C461 H429 0.928 . S
C461 C459 1.406 . S
C461 N462 1.261 . S
N462 Co413 2.214 . S
N462 C460 1.325 . S
N462 C461 1.261 . S
C463 H433 0.931 1_545 S
C463 C460 1.357 . S
C463 C464 1.312 . S
C464 H435 0.930 . S
C464 C459 1.261 . S
C464 C463 1.312 . S
C465 O437 1.214 1_565 S
C465 O445 1.234 . S
C466 H438 0.929 . S
C466 C469 1.391 . S
C466 C471 1.391 . S
C467 H439 0.929 . S
C467 C468 1.390 . S
C467 N470 1.391 . S
C468 H440 0.930 . S
C468 C467 1.390 . S
C468 C469 1.392 1_565 S
C469 H441 0.929 . S
C469 C466 1.391 . S
C469 C468 1.392 1_545 S
N470 Co414 2.257 . S
N470 C467 1.391 . S
N470 C471 1.388 1_565 S
C471 H442 0.930 . S
C471 C466 1.391 . S
C471 N470 1.388 1_545 S
H472 C478 0.930 . S
H473 C481 0.930 . S
H474 C482 0.930 . S
H475 C483 0.930 . S
H476 C486 0.930 . S
H477 C487 0.930 . S
C478 H472 0.930 . S
C478 C479 1.355 . S
C478 C480 1.415 1_556 S
C479 C478 1.355 . S
C479 C481 1.419 1_655 S
C480 C478 1.415 1_554 S
C480 C485 1.425 1_654 S
C480 C487 1.409 . S
C481 H473 0.930 . S
C481 C479 1.419 1_455 S
C481 C482 1.362 . S
C482 H474 0.930 . S
C482 C481 1.362 . S
C482 C485 1.409 . S
C483 H475 0.930 . S
C483 C484 1.355 . S
C483 C485 1.415 1_554 S
C484 C483 1.355 . S
C484 C486 1.419 1_455 S
C485 C480 1.425 1_456 S
C485 C482 1.409 . S
C485 C483 1.415 1_556 S
C486 H476 0.930 . S
C486 C484 1.419 1_655 S
C486 C487 1.362 . S
C487 H477 0.930 . S
C487 C480 1.409 . S
C487 C486 1.362 . S
H488 C494 0.930 . S
H489 C497 0.930 . S
H490 C498 0.930 . S
H491 C499 0.930 . S
H492 C502 0.930 . S
H493 C503 0.930 . S
C494 H488 0.930 . S
C494 C495 1.355 . S
C494 C496 1.415 . S
C495 C494 1.355 . S
C495 C497 1.419 . S
C496 C494 1.415 . S
C496 C501 1.425 . S
C496 C503 1.409 . S
C497 H489 0.930 . S
C497 C495 1.419 . S
C497 C498 1.362 . S
C498 H490 0.930 . S
C498 C497 1.362 . S
C498 C501 1.409 . S
C499 H491 0.930 . S
C499 C500 1.355 . S
C499 C501 1.415 . S
C500 C499 1.355 . S
C500 C502 1.419 . S
C501 C496 1.425 . S
C501 C498 1.409 . S
C501 C499 1.415 . S
C502 H492 0.930 . S
C502 C500 1.419 . S
C502 C503 1.362 . S
C503 H493 0.930 . S
C503 C496 1.409 . S
C503 C502 1.362 . S
H504 C510 0.930 . S
H505 C513 0.930 . S
H506 C514 0.930 . S
H507 C515 0.930 . S
H508 C518 0.930 . S
H509 C519 0.930 . S
C510 H504 0.930 . S
C510 C511 1.355 . S
C510 C512 1.415 1_554 S
C511 C510 1.355 . S
C511 C513 1.419 . S
C512 C510 1.415 1_556 S
C512 C517 1.425 1_566 S
C512 C519 1.409 . S
C513 H505 0.930 . S
C513 C511 1.419 . S
C513 C514 1.362 1_565 S
C514 H506 0.930 . S
C514 C513 1.362 1_545 S
C514 C517 1.409 . S
C515 H507 0.930 . S
C515 C516 1.355 . S
C515 C517 1.415 1_556 S
C516 C515 1.355 . S
C516 C518 1.419 . S
C517 C512 1.425 1_544 S
C517 C514 1.409 . S
C517 C515 1.415 1_554 S
C518 H508 0.930 . S
C518 C516 1.419 . S
C518 C519 1.362 1_545 S
C519 H509 0.930 . S
C519 C512 1.409 . S
C519 C518 1.362 1_565 S
H520 C526 0.929 1_565 S
H521 C529 0.930 . S
H522 C530 0.930 1_565 S
H523 C531 0.929 1_545 S
H524 C534 0.930 . S
H525 C535 0.930 1_545 S
C526 H520 0.929 1_545 S
C526 C527 1.356 . S
C526 C528 1.414 1_655 S
C527 C526 1.356 . S
C527 C529 1.419 . S
C528 C526 1.414 1_455 S
C528 C533 1.425 1_445 S
C528 C535 1.409 1_545 S
C529 H521 0.930 . S
C529 C527 1.419 . S
C529 C530 1.363 . S
C530 H522 0.930 1_545 S
C530 C529 1.363 . S
C530 C533 1.409 1_545 S
C531 H523 0.929 1_565 S
C531 C532 1.356 . S
C531 C533 1.414 1_455 S
C532 C531 1.356 . S
C532 C534 1.419 . S
C533 C528 1.425 1_665 S
C533 C530 1.409 1_565 S
C533 C531 1.414 1_655 S
C534 H524 0.930 . S
C534 C532 1.419 . S
C534 C535 1.363 . S
C535 H525 0.930 1_565 S
C535 C528 1.409 1_565 S
C535 C534 1.363 . S
H536 C542 0.930 . S
H537 C545 0.930 . S
H538 C546 0.930 . S
H539 C547 0.930 . S
H540 C550 0.930 . S
H541 C551 0.930 . S
C542 H536 0.930 . S
C542 C543 1.355 . S
C542 C544 1.415 . S
C543 C542 1.355 . S
C543 C545 1.419 . S
C544 C542 1.415 . S
C544 C549 1.425 . S
C544 C551 1.409 . S
C545 H537 0.930 . S
C545 C543 1.419 . S
C545 C546 1.362 . S
C546 H538 0.930 . S
C546 C545 1.362 . S
C546 C549 1.409 . S
C547 H539 0.930 . S
C547 C548 1.355 . S
C547 C549 1.415 . S
C548 C547 1.355 . S
C548 C550 1.419 . S
C549 C544 1.425 . S
C549 C546 1.409 . S
C549 C547 1.415 . S
C550 H540 0.930 . S
C550 C548 1.419 . S
C550 C551 1.362 . S
C551 H541 0.930 . S
C551 C544 1.409 . S
C551 C550 1.362 . S
H552 C558 0.930 . S
H553 C561 0.930 . S
H554 C562 0.930 . S
H555 C563 0.930 . S
H556 C566 0.930 . S
H557 C567 0.930 . S
C558 H552 0.930 . S
C558 C559 1.355 . S
C558 C560 1.415 . S
C559 C558 1.355 . S
C559 C561 1.419 . S
C560 C558 1.415 . S
C560 C565 1.425 . S
C560 C567 1.409 . S
C561 H553 0.930 . S
C561 C559 1.419 . S
C561 C562 1.362 . S
C562 H554 0.930 . S
C562 C561 1.362 . S
C562 C565 1.409 . S
C563 H555 0.930 . S
C563 C564 1.355 . S
C563 C565 1.415 . S
C564 C563 1.355 . S
C564 C566 1.419 . S
C565 C560 1.425 . S
C565 C562 1.409 . S
C565 C563 1.415 . S
C566 H556 0.930 . S
C566 C564 1.419 . S
C566 C567 1.362 . S
C567 H557 0.930 . S
C567 C560 1.409 . S
C567 C566 1.362 . S
H568 C574 0.930 . S
H569 C577 0.930 . S
H570 C578 0.930 . S
H571 C579 0.930 . S
H572 C582 0.930 . S
H573 C583 0.930 . S
C574 H568 0.930 . S
C574 C575 1.355 . S
C574 C576 1.415 . S
C575 C574 1.355 . S
C575 C577 1.419 . S
C576 C574 1.415 . S
C576 C581 1.425 . S
C576 C583 1.409 . S
C577 H569 0.930 . S
C577 C575 1.419 . S
C577 C578 1.362 . S
C578 H570 0.930 . S
C578 C577 1.362 . S
C578 C581 1.409 . S
C579 H571 0.930 . S
C579 C580 1.355 . S
C579 C581 1.415 . S
C580 C579 1.355 . S
C580 C582 1.419 . S
C581 C576 1.425 . S
C581 C578 1.409 . S
C581 C579 1.415 . S
C582 H572 0.930 . S
C582 C580 1.419 . S
C582 C583 1.362 . S
C583 H573 0.930 . S
C583 C576 1.409 . S
C583 C582 1.362 . S
H584 C590 0.930 . S
H585 C593 0.930 . S
H586 C594 0.930 . S
H587 C595 0.930 . S
H588 C598 0.930 . S
H589 C599 0.930 . S
C590 H584 0.930 . S
C590 C591 1.355 . S
C590 C592 1.415 . S
C591 C590 1.355 . S
C591 C593 1.419 . S
C592 C590 1.415 . S
C592 C597 1.425 . S
C592 C599 1.409 . S
C593 H585 0.930 . S
C593 C591 1.419 . S
C593 C594 1.362 . S
C594 H586 0.930 . S
C594 C593 1.362 . S
C594 C597 1.409 . S
C595 H587 0.930 . S
C595 C596 1.355 . S
C595 C597 1.415 . S
C596 C595 1.355 . S
C596 C598 1.419 . S
C597 C592 1.425 . S
C597 C594 1.409 . S
C597 C595 1.415 . S
C598 H588 0.930 . S
C598 C596 1.419 . S
C598 C599 1.362 . S
C599 H589 0.930 . S
C599 C592 1.409 . S
C599 C598 1.362 . S
H600 C606 0.930 . S
H601 C609 0.930 . S
H602 C610 0.930 . S
H603 C611 0.930 . S
H604 C614 0.930 . S
H605 C615 0.930 . S
C606 H600 0.930 . S
C606 C607 1.355 . S
C606 C608 1.415 . S
C607 C606 1.355 . S
C607 C609 1.419 . S
C608 C606 1.415 . S
C608 C613 1.425 . S
C608 C615 1.409 . S
C609 H601 0.930 . S
C609 C607 1.419 . S
C609 C610 1.362 . S
C610 H602 0.930 . S
C610 C609 1.362 . S
C610 C613 1.409 . S
C611 H603 0.930 . S
C611 C612 1.355 . S
C611 C613 1.415 . S
C612 C611 1.355 . S
C612 C614 1.419 . S
C613 C608 1.425 . S
C613 C610 1.409 . S
C613 C611 1.415 . S
C614 H604 0.930 . S
C614 C612 1.419 . S
C614 C615 1.362 . S
C615 H605 0.930 . S
C615 C608 1.409 . S
C615 C614 1.362 . S
H616 C622 0.930 . S
H617 C625 0.930 . S
H618 C626 0.930 . S
H619 C627 0.930 . S
H620 C630 0.930 . S
H621 C631 0.930 . S
C622 H616 0.930 . S
C622 C623 1.355 . S
C622 C624 1.415 . S
C623 C622 1.355 . S
C623 C625 1.419 . S
C624 C622 1.415 . S
C624 C629 1.425 . S
C624 C631 1.409 . S
C625 H617 0.930 . S
C625 C623 1.419 . S
C625 C626 1.362 . S
C626 H618 0.930 . S
C626 C625 1.362 . S
C626 C629 1.409 . S
C627 H619 0.930 . S
C627 C628 1.355 . S
C627 C629 1.415 . S
C628 C627 1.355 . S
C628 C630 1.419 . S
C629 C624 1.425 . S
C629 C626 1.409 . S
C629 C627 1.415 . S
C630 H620 0.930 . S
C630 C628 1.419 . S
C630 C631 1.362 . S
C631 H621 0.930 . S
C631 C624 1.409 . S
C631 C630 1.362 . S
H632 C638 0.930 . S
H633 C641 0.930 . S
H634 C642 0.930 . S
H635 C643 0.930 . S
H636 C646 0.930 . S
H637 C647 0.930 . S
C638 H632 0.930 . S
C638 C639 1.355 . S
C638 C640 1.415 . S
C639 C638 1.355 . S
C639 C641 1.419 . S
C640 C638 1.415 . S
C640 C645 1.425 . S
C640 C647 1.409 . S
C641 H633 0.930 . S
C641 C639 1.419 . S
C641 C642 1.362 . S
C642 H634 0.930 . S
C642 C641 1.362 . S
C642 C645 1.409 . S
C643 H635 0.930 . S
C643 C644 1.355 . S
C643 C645 1.415 . S
C644 C643 1.355 . S
C644 C646 1.419 . S
C645 C640 1.425 . S
C645 C642 1.409 . S
C645 C643 1.415 . S
C646 H636 0.930 . S
C646 C644 1.419 . S
C646 C647 1.362 . S
C647 H637 0.930 . S
C647 C640 1.409 . S
C647 C646 1.362 . S
H648 C654 0.930 . S
H649 C657 0.930 . S
H650 C658 0.930 . S
H651 C659 0.930 . S
H652 C662 0.930 . S
H653 C663 0.930 . S
C654 H648 0.930 . S
C654 C655 1.355 . S
C654 C656 1.415 . S
C655 C654 1.355 . S
C655 C657 1.419 . S
C656 C654 1.415 . S
C656 C661 1.425 . S
C656 C663 1.409 . S
C657 H649 0.930 . S
C657 C655 1.419 . S
C657 C658 1.362 . S
C658 H650 0.930 . S
C658 C657 1.362 . S
C658 C661 1.409 . S
C659 H651 0.930 . S
C659 C660 1.355 . S
C659 C661 1.415 . S
C660 C659 1.355 . S
C660 C662 1.419 . S
C661 C656 1.425 . S
C661 C658 1.409 . S
C661 C659 1.415 . S
C662 H652 0.930 . S
C662 C660 1.419 . S
C662 C663 1.362 . S
C663 H653 0.930 . S
C663 C656 1.409 . S
C663 C662 1.362 . S
H664 C670 0.930 . S
H665 C673 0.930 . S
H666 C674 0.930 . S
H667 C675 0.930 . S
H668 C678 0.930 . S
H669 C679 0.930 . S
C670 H664 0.930 . S
C670 C671 1.355 . S
C670 C672 1.415 . S
C671 C670 1.355 . S
C671 C673 1.419 . S
C672 C670 1.415 . S
C672 C677 1.425 . S
C672 C679 1.409 . S
C673 H665 0.930 . S
C673 C671 1.419 . S
C673 C674 1.362 . S
C674 H666 0.930 . S
C674 C673 1.362 . S
C674 C677 1.409 . S
C675 H667 0.930 . S
C675 C676 1.355 . S
C675 C677 1.415 . S
C676 C675 1.355 . S
C676 C678 1.419 . S
C677 C672 1.425 . S
C677 C674 1.409 . S
C677 C675 1.415 . S
C678 H668 0.930 . S
C678 C676 1.419 . S
C678 C679 1.362 . S
C679 H669 0.930 . S
C679 C672 1.409 . S
C679 C678 1.362 . S
H680 C686 0.930 . S
H681 C689 0.930 . S
H682 C690 0.930 . S
H683 C691 0.930 . S
H684 C694 0.930 . S
H685 C695 0.930 . S
C686 H680 0.930 . S
C686 C687 1.355 . S
C686 C688 1.415 . S
C687 C686 1.355 . S
C687 C689 1.419 . S
C688 C686 1.415 . S
C688 C693 1.425 . S
C688 C695 1.409 . S
C689 H681 0.930 . S
C689 C687 1.419 . S
C689 C690 1.362 . S
C690 H682 0.930 . S
C690 C689 1.362 . S
C690 C693 1.409 . S
C691 H683 0.930 . S
C691 C692 1.355 . S
C691 C693 1.415 . S
C692 C691 1.355 . S
C692 C694 1.419 . S
C693 C688 1.425 . S
C693 C690 1.409 . S
C693 C691 1.415 . S
C694 H684 0.930 . S
C694 C692 1.419 . S
C694 C695 1.362 . S
C695 H685 0.930 . S
C695 C688 1.409 . S
C695 C694 1.362 . S
H696 C702 0.930 . S
H697 C705 0.930 . S
H698 C706 0.930 . S
H699 C707 0.930 . S
H700 C710 0.930 1_565 S
H701 C711 0.930 1_565 S
C702 H696 0.930 . S
C702 C703 1.355 . S
C702 C704 1.415 . S
C703 C702 1.355 . S
C703 C705 1.419 . S
C704 C702 1.415 . S
C704 C709 1.425 . S
C704 C711 1.409 . S
C705 H697 0.930 . S
C705 C703 1.419 . S
C705 C706 1.362 . S
C706 H698 0.930 . S
C706 C705 1.362 . S
C706 C709 1.409 . S
C707 H699 0.930 . S
C707 C708 1.355 . S
C707 C709 1.415 . S
C708 C707 1.355 . S
C708 C710 1.419 . S
C709 C704 1.425 . S
C709 C706 1.409 . S
C709 C707 1.415 . S
C710 H700 0.930 1_545 S
C710 C708 1.419 . S
C710 C711 1.362 . S
C711 H701 0.930 1_545 S
C711 C704 1.409 . S
C711 C710 1.362 . S
H712 C718 0.930 1_455 S
H713 C721 0.930 . S
H714 C722 0.930 . S
H715 C723 0.930 . S
H716 C726 0.930 . S
H717 C727 0.930 1_455 S
C718 H712 0.930 1_655 S
C718 C719 1.355 . S
C718 C720 1.415 . S
C719 C718 1.355 . S
C719 C721 1.419 . S
C720 C718 1.415 . S
C720 C725 1.425 . S
C720 C727 1.409 . S
C721 H713 0.930 . S
C721 C719 1.419 . S
C721 C722 1.362 . S
C722 H714 0.930 . S
C722 C721 1.362 . S
C722 C725 1.409 . S
C723 H715 0.930 . S
C723 C724 1.355 . S
C723 C725 1.415 . S
C724 C723 1.355 . S
C724 C726 1.419 . S
C725 C720 1.425 . S
C725 C722 1.409 . S
C725 C723 1.415 . S
C726 H716 0.930 . S
C726 C724 1.419 . S
C726 C727 1.362 . S
C727 H717 0.930 1_655 S
C727 C720 1.409 . S
C727 C726 1.362 . S
C479 C241 1.499 . S
C484 C5 1.499 . S
C495 C64 1.502 . S
C500 C300 1.502 . S
C511 C123 1.500 . S
C516 C359 1.500 . S
C527 C418 1.533 . S
C532 C182 1.533 . S
C543 C3 1.406 . S
C548 C121 1.412 . S
C559 C62 1.406 . S
C564 C180 1.411 . S
C575 C357 1.448 . S
C580 C239 1.457 . S
C591 C298 1.420 . S
C596 C416 1.411 . S
C607 C347 1.289 . S
C612 C33 1.276 . S
C623 C92 1.308 . S
C628 C406 1.293 . S
C639 C151 1.293 . S
C644 C465 1.286 . S
C655 C288 1.302 . S
C660 C210 1.312 . S
C671 C269 1.312 . S
C676 C111 1.299 . S
C687 C328 1.310 . S
C692 C170 1.306 . S
C703 C387 1.291 . S
C708 C229 1.286 . S
C719 C52 1.305 . S
C724 C446 1.310 . S
