# Generated by pormake.
# Topology kfi, (4)-cn, num edge types: 1
# Building blocks:
#     Node 0, Type 0, BuildingBlock: QUQFOY_clean_sbu_3, # of connection points: 4
#     Node 1, Type 0, BuildingBlock: QUQFOY_clean_sbu_3, # of connection points: 4
#     Node 2, Type 0, BuildingBlock: QUQFOY_clean_sbu_3, # of connection points: 4
#     Node 3, Type 0, BuildingBlock: QUQFOY_clean_sbu_3, # of connection points: 4
#     Node 4, Type 0, BuildingBlock: QUQFOY_clean_sbu_3, # of connection points: 4
#     Node 5, Type 0, BuildingBlock: QUQFOY_clean_sbu_3, # of connection points: 4
#     Node 6, Type 0, BuildingBlock: QUQFOY_clean_sbu_3, # of connection points: 4
#     Node 7, Type 0, BuildingBlock: QUQFOY_clean_sbu_3, # of connection points: 4
#     Node 8, Type 0, BuildingBlock: QUQFOY_clean_sbu_3, # of connection points: 4
#     Node 9, Type 0, BuildingBlock: QUQFOY_clean_sbu_3, # of connection points: 4
#     Node 10, Type 0, BuildingBlock: QUQFOY_clean_sbu_3, # of connection points: 4
#     Node 11, Type 0, BuildingBlock: QUQFOY_clean_sbu_3, # of connection points: 4
#     Node 12, Type 0, BuildingBlock: QUQFOY_clean_sbu_3, # of connection points: 4
#     Node 13, Type 0, BuildingBlock: QUQFOY_clean_sbu_3, # of connection points: 4
#     Node 14, Type 0, BuildingBlock: QUQFOY_clean_sbu_3, # of connection points: 4
#     Node 15, Type 0, BuildingBlock: QUQFOY_clean_sbu_3, # of connection points: 4
#     Node 16, Type 0, BuildingBlock: QUQFOY_clean_sbu_3, # of connection points: 4
#     Node 17, Type 0, BuildingBlock: QUQFOY_clean_sbu_3, # of connection points: 4
#     Node 18, Type 0, BuildingBlock: QUQFOY_clean_sbu_3, # of connection points: 4
#     Node 19, Type 0, BuildingBlock: QUQFOY_clean_sbu_3, # of connection points: 4
#     Node 20, Type 0, BuildingBlock: QUQFOY_clean_sbu_3, # of connection points: 4
#     Node 21, Type 0, BuildingBlock: QUQFOY_clean_sbu_3, # of connection points: 4
#     Node 22, Type 0, BuildingBlock: QUQFOY_clean_sbu_3, # of connection points: 4
#     Node 23, Type 0, BuildingBlock: QUQFOY_clean_sbu_3, # of connection points: 4
#     Node 24, Type 0, BuildingBlock: QUQFOY_clean_sbu_3, # of connection points: 4
#     Node 25, Type 0, BuildingBlock: QUQFOY_clean_sbu_3, # of connection points: 4
#     Node 26, Type 0, BuildingBlock: QUQFOY_clean_sbu_3, # of connection points: 4
#     Node 27, Type 0, BuildingBlock: QUQFOY_clean_sbu_3, # of connection points: 4
#     Node 28, Type 0, BuildingBlock: QUQFOY_clean_sbu_3, # of connection points: 4
#     Node 29, Type 0, BuildingBlock: QUQFOY_clean_sbu_3, # of connection points: 4
#     Node 30, Type 0, BuildingBlock: QUQFOY_clean_sbu_3, # of connection points: 4
#     Node 31, Type 0, BuildingBlock: QUQFOY_clean_sbu_3, # of connection points: 4
#     Node 32, Type 0, BuildingBlock: QUQFOY_clean_sbu_3, # of connection points: 4
#     Node 33, Type 0, BuildingBlock: QUQFOY_clean_sbu_3, # of connection points: 4
#     Node 34, Type 0, BuildingBlock: QUQFOY_clean_sbu_3, # of connection points: 4
#     Node 35, Type 0, BuildingBlock: QUQFOY_clean_sbu_3, # of connection points: 4
#     Node 36, Type 0, BuildingBlock: QUQFOY_clean_sbu_3, # of connection points: 4
#     Node 37, Type 0, BuildingBlock: QUQFOY_clean_sbu_3, # of connection points: 4
#     Node 38, Type 0, BuildingBlock: QUQFOY_clean_sbu_3, # of connection points: 4
#     Node 39, Type 0, BuildingBlock: QUQFOY_clean_sbu_3, # of connection points: 4
#     Node 40, Type 0, BuildingBlock: QUQFOY_clean_sbu_3, # of connection points: 4
#     Node 41, Type 0, BuildingBlock: QUQFOY_clean_sbu_3, # of connection points: 4
#     Node 42, Type 0, BuildingBlock: QUQFOY_clean_sbu_3, # of connection points: 4
#     Node 43, Type 0, BuildingBlock: QUQFOY_clean_sbu_3, # of connection points: 4
#     Node 44, Type 0, BuildingBlock: QUQFOY_clean_sbu_3, # of connection points: 4
#     Node 45, Type 0, BuildingBlock: QUQFOY_clean_sbu_3, # of connection points: 4
#     Node 46, Type 0, BuildingBlock: QUQFOY_clean_sbu_3, # of connection points: 4
#     Node 47, Type 0, BuildingBlock: QUQFOY_clean_sbu_3, # of connection points: 4
#     Node 48, Type 0, BuildingBlock: QUQFOY_clean_sbu_3, # of connection points: 4
#     Node 49, Type 0, BuildingBlock: QUQFOY_clean_sbu_3, # of connection points: 4
#     Node 50, Type 0, BuildingBlock: QUQFOY_clean_sbu_3, # of connection points: 4
#     Node 51, Type 0, BuildingBlock: QUQFOY_clean_sbu_3, # of connection points: 4
#     Node 52, Type 0, BuildingBlock: QUQFOY_clean_sbu_3, # of connection points: 4
#     Node 53, Type 0, BuildingBlock: QUQFOY_clean_sbu_3, # of connection points: 4
#     Node 54, Type 0, BuildingBlock: QUQFOY_clean_sbu_3, # of connection points: 4
#     Node 55, Type 0, BuildingBlock: QUQFOY_clean_sbu_3, # of connection points: 4
#     Node 56, Type 0, BuildingBlock: QUQFOY_clean_sbu_3, # of connection points: 4
#     Node 57, Type 0, BuildingBlock: QUQFOY_clean_sbu_3, # of connection points: 4
#     Node 58, Type 0, BuildingBlock: QUQFOY_clean_sbu_3, # of connection points: 4
#     Node 59, Type 0, BuildingBlock: QUQFOY_clean_sbu_3, # of connection points: 4
#     Node 60, Type 0, BuildingBlock: QUQFOY_clean_sbu_3, # of connection points: 4
#     Node 61, Type 0, BuildingBlock: QUQFOY_clean_sbu_3, # of connection points: 4
#     Node 62, Type 0, BuildingBlock: QUQFOY_clean_sbu_3, # of connection points: 4
#     Node 63, Type 0, BuildingBlock: QUQFOY_clean_sbu_3, # of connection points: 4
#     Node 64, Type 0, BuildingBlock: QUQFOY_clean_sbu_3, # of connection points: 4
#     Node 65, Type 0, BuildingBlock: QUQFOY_clean_sbu_3, # of connection points: 4
#     Node 66, Type 0, BuildingBlock: QUQFOY_clean_sbu_3, # of connection points: 4
#     Node 67, Type 0, BuildingBlock: QUQFOY_clean_sbu_3, # of connection points: 4
#     Node 68, Type 0, BuildingBlock: QUQFOY_clean_sbu_3, # of connection points: 4
#     Node 69, Type 0, BuildingBlock: QUQFOY_clean_sbu_3, # of connection points: 4
#     Node 70, Type 0, BuildingBlock: QUQFOY_clean_sbu_3, # of connection points: 4
#     Node 71, Type 0, BuildingBlock: QUQFOY_clean_sbu_3, # of connection points: 4
#     Node 72, Type 0, BuildingBlock: QUQFOY_clean_sbu_3, # of connection points: 4
#     Node 73, Type 0, BuildingBlock: QUQFOY_clean_sbu_3, # of connection points: 4
#     Node 74, Type 0, BuildingBlock: QUQFOY_clean_sbu_3, # of connection points: 4
#     Node 75, Type 0, BuildingBlock: QUQFOY_clean_sbu_3, # of connection points: 4
#     Node 76, Type 0, BuildingBlock: QUQFOY_clean_sbu_3, # of connection points: 4
#     Node 77, Type 0, BuildingBlock: QUQFOY_clean_sbu_3, # of connection points: 4
#     Node 78, Type 0, BuildingBlock: QUQFOY_clean_sbu_3, # of connection points: 4
#     Node 79, Type 0, BuildingBlock: QUQFOY_clean_sbu_3, # of connection points: 4
#     Node 80, Type 0, BuildingBlock: QUQFOY_clean_sbu_3, # of connection points: 4
#     Node 81, Type 0, BuildingBlock: QUQFOY_clean_sbu_3, # of connection points: 4
#     Node 82, Type 0, BuildingBlock: QUQFOY_clean_sbu_3, # of connection points: 4
#     Node 83, Type 0, BuildingBlock: QUQFOY_clean_sbu_3, # of connection points: 4
#     Node 84, Type 0, BuildingBlock: QUQFOY_clean_sbu_3, # of connection points: 4
#     Node 85, Type 0, BuildingBlock: QUQFOY_clean_sbu_3, # of connection points: 4
#     Node 86, Type 0, BuildingBlock: QUQFOY_clean_sbu_3, # of connection points: 4
#     Node 87, Type 0, BuildingBlock: QUQFOY_clean_sbu_3, # of connection points: 4
#     Node 88, Type 0, BuildingBlock: QUQFOY_clean_sbu_3, # of connection points: 4
#     Node 89, Type 0, BuildingBlock: QUQFOY_clean_sbu_3, # of connection points: 4
#     Node 90, Type 0, BuildingBlock: QUQFOY_clean_sbu_3, # of connection points: 4
#     Node 91, Type 0, BuildingBlock: QUQFOY_clean_sbu_3, # of connection points: 4
#     Node 92, Type 0, BuildingBlock: QUQFOY_clean_sbu_3, # of connection points: 4
#     Node 93, Type 0, BuildingBlock: QUQFOY_clean_sbu_3, # of connection points: 4
#     Node 94, Type 0, BuildingBlock: QUQFOY_clean_sbu_3, # of connection points: 4
#     Node 95, Type 0, BuildingBlock: QUQFOY_clean_sbu_3, # of connection points: 4
#     Edge 96, Type (0, 0), BuildingBlock: XIVTED_clean_linker_0, # of connection points: 2
#     Edge 97, Type (0, 0), BuildingBlock: XIVTED_clean_linker_0, # of connection points: 2
#     Edge 98, Type (0, 0), BuildingBlock: XIVTED_clean_linker_0, # of connection points: 2
#     Edge 99, Type (0, 0), BuildingBlock: XIVTED_clean_linker_0, # of connection points: 2
#     Edge 100, Type (0, 0), BuildingBlock: XIVTED_clean_linker_0, # of connection points: 2
#     Edge 101, Type (0, 0), BuildingBlock: XIVTED_clean_linker_0, # of connection points: 2
#     Edge 102, Type (0, 0), BuildingBlock: XIVTED_clean_linker_0, # of connection points: 2
#     Edge 103, Type (0, 0), BuildingBlock: XIVTED_clean_linker_0, # of connection points: 2
#     Edge 104, Type (0, 0), BuildingBlock: XIVTED_clean_linker_0, # of connection points: 2
#     Edge 105, Type (0, 0), BuildingBlock: XIVTED_clean_linker_0, # of connection points: 2
#     Edge 106, Type (0, 0), BuildingBlock: XIVTED_clean_linker_0, # of connection points: 2
#     Edge 107, Type (0, 0), BuildingBlock: XIVTED_clean_linker_0, # of connection points: 2
#     Edge 108, Type (0, 0), BuildingBlock: XIVTED_clean_linker_0, # of connection points: 2
#     Edge 109, Type (0, 0), BuildingBlock: XIVTED_clean_linker_0, # of connection points: 2
#     Edge 110, Type (0, 0), BuildingBlock: XIVTED_clean_linker_0, # of connection points: 2
#     Edge 111, Type (0, 0), BuildingBlock: XIVTED_clean_linker_0, # of connection points: 2
#     Edge 112, Type (0, 0), BuildingBlock: XIVTED_clean_linker_0, # of connection points: 2
#     Edge 113, Type (0, 0), BuildingBlock: XIVTED_clean_linker_0, # of connection points: 2
#     Edge 114, Type (0, 0), BuildingBlock: XIVTED_clean_linker_0, # of connection points: 2
#     Edge 115, Type (0, 0), BuildingBlock: XIVTED_clean_linker_0, # of connection points: 2
#     Edge 116, Type (0, 0), BuildingBlock: XIVTED_clean_linker_0, # of connection points: 2
#     Edge 117, Type (0, 0), BuildingBlock: XIVTED_clean_linker_0, # of connection points: 2
#     Edge 118, Type (0, 0), BuildingBlock: XIVTED_clean_linker_0, # of connection points: 2
#     Edge 119, Type (0, 0), BuildingBlock: XIVTED_clean_linker_0, # of connection points: 2
#     Edge 120, Type (0, 0), BuildingBlock: XIVTED_clean_linker_0, # of connection points: 2
#     Edge 121, Type (0, 0), BuildingBlock: XIVTED_clean_linker_0, # of connection points: 2
#     Edge 122, Type (0, 0), BuildingBlock: XIVTED_clean_linker_0, # of connection points: 2
#     Edge 123, Type (0, 0), BuildingBlock: XIVTED_clean_linker_0, # of connection points: 2
#     Edge 124, Type (0, 0), BuildingBlock: XIVTED_clean_linker_0, # of connection points: 2
#     Edge 125, Type (0, 0), BuildingBlock: XIVTED_clean_linker_0, # of connection points: 2
#     Edge 126, Type (0, 0), BuildingBlock: XIVTED_clean_linker_0, # of connection points: 2
#     Edge 127, Type (0, 0), BuildingBlock: XIVTED_clean_linker_0, # of connection points: 2
#     Edge 128, Type (0, 0), BuildingBlock: XIVTED_clean_linker_0, # of connection points: 2
#     Edge 129, Type (0, 0), BuildingBlock: XIVTED_clean_linker_0, # of connection points: 2
#     Edge 130, Type (0, 0), BuildingBlock: XIVTED_clean_linker_0, # of connection points: 2
#     Edge 131, Type (0, 0), BuildingBlock: XIVTED_clean_linker_0, # of connection points: 2
#     Edge 132, Type (0, 0), BuildingBlock: XIVTED_clean_linker_0, # of connection points: 2
#     Edge 133, Type (0, 0), BuildingBlock: XIVTED_clean_linker_0, # of connection points: 2
#     Edge 134, Type (0, 0), BuildingBlock: XIVTED_clean_linker_0, # of connection points: 2
#     Edge 135, Type (0, 0), BuildingBlock: XIVTED_clean_linker_0, # of connection points: 2
#     Edge 136, Type (0, 0), BuildingBlock: XIVTED_clean_linker_0, # of connection points: 2
#     Edge 137, Type (0, 0), BuildingBlock: XIVTED_clean_linker_0, # of connection points: 2
#     Edge 138, Type (0, 0), BuildingBlock: XIVTED_clean_linker_0, # of connection points: 2
#     Edge 139, Type (0, 0), BuildingBlock: XIVTED_clean_linker_0, # of connection points: 2
#     Edge 140, Type (0, 0), BuildingBlock: XIVTED_clean_linker_0, # of connection points: 2
#     Edge 141, Type (0, 0), BuildingBlock: XIVTED_clean_linker_0, # of connection points: 2
#     Edge 142, Type (0, 0), BuildingBlock: XIVTED_clean_linker_0, # of connection points: 2
#     Edge 143, Type (0, 0), BuildingBlock: XIVTED_clean_linker_0, # of connection points: 2
#     Edge 144, Type (0, 0), BuildingBlock: XIVTED_clean_linker_0, # of connection points: 2
#     Edge 145, Type (0, 0), BuildingBlock: XIVTED_clean_linker_0, # of connection points: 2
#     Edge 146, Type (0, 0), BuildingBlock: XIVTED_clean_linker_0, # of connection points: 2
#     Edge 147, Type (0, 0), BuildingBlock: XIVTED_clean_linker_0, # of connection points: 2
#     Edge 148, Type (0, 0), BuildingBlock: XIVTED_clean_linker_0, # of connection points: 2
#     Edge 149, Type (0, 0), BuildingBlock: XIVTED_clean_linker_0, # of connection points: 2
#     Edge 150, Type (0, 0), BuildingBlock: XIVTED_clean_linker_0, # of connection points: 2
#     Edge 151, Type (0, 0), BuildingBlock: XIVTED_clean_linker_0, # of connection points: 2
#     Edge 152, Type (0, 0), BuildingBlock: XIVTED_clean_linker_0, # of connection points: 2
#     Edge 153, Type (0, 0), BuildingBlock: XIVTED_clean_linker_0, # of connection points: 2
#     Edge 154, Type (0, 0), BuildingBlock: XIVTED_clean_linker_0, # of connection points: 2
#     Edge 155, Type (0, 0), BuildingBlock: XIVTED_clean_linker_0, # of connection points: 2
#     Edge 156, Type (0, 0), BuildingBlock: XIVTED_clean_linker_0, # of connection points: 2
#     Edge 157, Type (0, 0), BuildingBlock: XIVTED_clean_linker_0, # of connection points: 2
#     Edge 158, Type (0, 0), BuildingBlock: XIVTED_clean_linker_0, # of connection points: 2
#     Edge 159, Type (0, 0), BuildingBlock: XIVTED_clean_linker_0, # of connection points: 2
#     Edge 160, Type (0, 0), BuildingBlock: XIVTED_clean_linker_0, # of connection points: 2
#     Edge 161, Type (0, 0), BuildingBlock: XIVTED_clean_linker_0, # of connection points: 2
#     Edge 162, Type (0, 0), BuildingBlock: XIVTED_clean_linker_0, # of connection points: 2
#     Edge 163, Type (0, 0), BuildingBlock: XIVTED_clean_linker_0, # of connection points: 2
#     Edge 164, Type (0, 0), BuildingBlock: XIVTED_clean_linker_0, # of connection points: 2
#     Edge 165, Type (0, 0), BuildingBlock: XIVTED_clean_linker_0, # of connection points: 2
#     Edge 166, Type (0, 0), BuildingBlock: XIVTED_clean_linker_0, # of connection points: 2
#     Edge 167, Type (0, 0), BuildingBlock: XIVTED_clean_linker_0, # of connection points: 2
#     Edge 168, Type (0, 0), BuildingBlock: XIVTED_clean_linker_0, # of connection points: 2
#     Edge 169, Type (0, 0), BuildingBlock: XIVTED_clean_linker_0, # of connection points: 2
#     Edge 170, Type (0, 0), BuildingBlock: XIVTED_clean_linker_0, # of connection points: 2
#     Edge 171, Type (0, 0), BuildingBlock: XIVTED_clean_linker_0, # of connection points: 2
#     Edge 172, Type (0, 0), BuildingBlock: XIVTED_clean_linker_0, # of connection points: 2
#     Edge 173, Type (0, 0), BuildingBlock: XIVTED_clean_linker_0, # of connection points: 2
#     Edge 174, Type (0, 0), BuildingBlock: XIVTED_clean_linker_0, # of connection points: 2
#     Edge 175, Type (0, 0), BuildingBlock: XIVTED_clean_linker_0, # of connection points: 2
#     Edge 176, Type (0, 0), BuildingBlock: XIVTED_clean_linker_0, # of connection points: 2
#     Edge 177, Type (0, 0), BuildingBlock: XIVTED_clean_linker_0, # of connection points: 2
#     Edge 178, Type (0, 0), BuildingBlock: XIVTED_clean_linker_0, # of connection points: 2
#     Edge 179, Type (0, 0), BuildingBlock: XIVTED_clean_linker_0, # of connection points: 2
#     Edge 180, Type (0, 0), BuildingBlock: XIVTED_clean_linker_0, # of connection points: 2
#     Edge 181, Type (0, 0), BuildingBlock: XIVTED_clean_linker_0, # of connection points: 2
#     Edge 182, Type (0, 0), BuildingBlock: XIVTED_clean_linker_0, # of connection points: 2
#     Edge 183, Type (0, 0), BuildingBlock: XIVTED_clean_linker_0, # of connection points: 2
#     Edge 184, Type (0, 0), BuildingBlock: XIVTED_clean_linker_0, # of connection points: 2
#     Edge 185, Type (0, 0), BuildingBlock: XIVTED_clean_linker_0, # of connection points: 2
#     Edge 186, Type (0, 0), BuildingBlock: XIVTED_clean_linker_0, # of connection points: 2
#     Edge 187, Type (0, 0), BuildingBlock: XIVTED_clean_linker_0, # of connection points: 2
#     Edge 188, Type (0, 0), BuildingBlock: XIVTED_clean_linker_0, # of connection points: 2
#     Edge 189, Type (0, 0), BuildingBlock: XIVTED_clean_linker_0, # of connection points: 2
#     Edge 190, Type (0, 0), BuildingBlock: XIVTED_clean_linker_0, # of connection points: 2
#     Edge 191, Type (0, 0), BuildingBlock: XIVTED_clean_linker_0, # of connection points: 2
#     Edge 192, Type (0, 0), BuildingBlock: XIVTED_clean_linker_0, # of connection points: 2
#     Edge 193, Type (0, 0), BuildingBlock: XIVTED_clean_linker_0, # of connection points: 2
#     Edge 194, Type (0, 0), BuildingBlock: XIVTED_clean_linker_0, # of connection points: 2
#     Edge 195, Type (0, 0), BuildingBlock: XIVTED_clean_linker_0, # of connection points: 2
#     Edge 196, Type (0, 0), BuildingBlock: XIVTED_clean_linker_0, # of connection points: 2
#     Edge 197, Type (0, 0), BuildingBlock: XIVTED_clean_linker_0, # of connection points: 2
#     Edge 198, Type (0, 0), BuildingBlock: XIVTED_clean_linker_0, # of connection points: 2
#     Edge 199, Type (0, 0), BuildingBlock: XIVTED_clean_linker_0, # of connection points: 2
#     Edge 200, Type (0, 0), BuildingBlock: XIVTED_clean_linker_0, # of connection points: 2
#     Edge 201, Type (0, 0), BuildingBlock: XIVTED_clean_linker_0, # of connection points: 2
#     Edge 202, Type (0, 0), BuildingBlock: XIVTED_clean_linker_0, # of connection points: 2
#     Edge 203, Type (0, 0), BuildingBlock: XIVTED_clean_linker_0, # of connection points: 2
#     Edge 204, Type (0, 0), BuildingBlock: XIVTED_clean_linker_0, # of connection points: 2
#     Edge 205, Type (0, 0), BuildingBlock: XIVTED_clean_linker_0, # of connection points: 2
#     Edge 206, Type (0, 0), BuildingBlock: XIVTED_clean_linker_0, # of connection points: 2
#     Edge 207, Type (0, 0), BuildingBlock: XIVTED_clean_linker_0, # of connection points: 2
#     Edge 208, Type (0, 0), BuildingBlock: XIVTED_clean_linker_0, # of connection points: 2
#     Edge 209, Type (0, 0), BuildingBlock: XIVTED_clean_linker_0, # of connection points: 2
#     Edge 210, Type (0, 0), BuildingBlock: XIVTED_clean_linker_0, # of connection points: 2
#     Edge 211, Type (0, 0), BuildingBlock: XIVTED_clean_linker_0, # of connection points: 2
#     Edge 212, Type (0, 0), BuildingBlock: XIVTED_clean_linker_0, # of connection points: 2
#     Edge 213, Type (0, 0), BuildingBlock: XIVTED_clean_linker_0, # of connection points: 2
#     Edge 214, Type (0, 0), BuildingBlock: XIVTED_clean_linker_0, # of connection points: 2
#     Edge 215, Type (0, 0), BuildingBlock: XIVTED_clean_linker_0, # of connection points: 2
#     Edge 216, Type (0, 0), BuildingBlock: XIVTED_clean_linker_0, # of connection points: 2
#     Edge 217, Type (0, 0), BuildingBlock: XIVTED_clean_linker_0, # of connection points: 2
#     Edge 218, Type (0, 0), BuildingBlock: XIVTED_clean_linker_0, # of connection points: 2
#     Edge 219, Type (0, 0), BuildingBlock: XIVTED_clean_linker_0, # of connection points: 2
#     Edge 220, Type (0, 0), BuildingBlock: XIVTED_clean_linker_0, # of connection points: 2
#     Edge 221, Type (0, 0), BuildingBlock: XIVTED_clean_linker_0, # of connection points: 2
#     Edge 222, Type (0, 0), BuildingBlock: XIVTED_clean_linker_0, # of connection points: 2
#     Edge 223, Type (0, 0), BuildingBlock: XIVTED_clean_linker_0, # of connection points: 2
#     Edge 224, Type (0, 0), BuildingBlock: XIVTED_clean_linker_0, # of connection points: 2
#     Edge 225, Type (0, 0), BuildingBlock: XIVTED_clean_linker_0, # of connection points: 2
#     Edge 226, Type (0, 0), BuildingBlock: XIVTED_clean_linker_0, # of connection points: 2
#     Edge 227, Type (0, 0), BuildingBlock: XIVTED_clean_linker_0, # of connection points: 2
#     Edge 228, Type (0, 0), BuildingBlock: XIVTED_clean_linker_0, # of connection points: 2
#     Edge 229, Type (0, 0), BuildingBlock: XIVTED_clean_linker_0, # of connection points: 2
#     Edge 230, Type (0, 0), BuildingBlock: XIVTED_clean_linker_0, # of connection points: 2
#     Edge 231, Type (0, 0), BuildingBlock: XIVTED_clean_linker_0, # of connection points: 2
#     Edge 232, Type (0, 0), BuildingBlock: XIVTED_clean_linker_0, # of connection points: 2
#     Edge 233, Type (0, 0), BuildingBlock: XIVTED_clean_linker_0, # of connection points: 2
#     Edge 234, Type (0, 0), BuildingBlock: XIVTED_clean_linker_0, # of connection points: 2
#     Edge 235, Type (0, 0), BuildingBlock: XIVTED_clean_linker_0, # of connection points: 2
#     Edge 236, Type (0, 0), BuildingBlock: XIVTED_clean_linker_0, # of connection points: 2
#     Edge 237, Type (0, 0), BuildingBlock: XIVTED_clean_linker_0, # of connection points: 2
#     Edge 238, Type (0, 0), BuildingBlock: XIVTED_clean_linker_0, # of connection points: 2
#     Edge 239, Type (0, 0), BuildingBlock: XIVTED_clean_linker_0, # of connection points: 2
#     Edge 240, Type (0, 0), BuildingBlock: XIVTED_clean_linker_0, # of connection points: 2
#     Edge 241, Type (0, 0), BuildingBlock: XIVTED_clean_linker_0, # of connection points: 2
#     Edge 242, Type (0, 0), BuildingBlock: XIVTED_clean_linker_0, # of connection points: 2
#     Edge 243, Type (0, 0), BuildingBlock: XIVTED_clean_linker_0, # of connection points: 2
#     Edge 244, Type (0, 0), BuildingBlock: XIVTED_clean_linker_0, # of connection points: 2
#     Edge 245, Type (0, 0), BuildingBlock: XIVTED_clean_linker_0, # of connection points: 2
#     Edge 246, Type (0, 0), BuildingBlock: XIVTED_clean_linker_0, # of connection points: 2
#     Edge 247, Type (0, 0), BuildingBlock: XIVTED_clean_linker_0, # of connection points: 2
#     Edge 248, Type (0, 0), BuildingBlock: XIVTED_clean_linker_0, # of connection points: 2
#     Edge 249, Type (0, 0), BuildingBlock: XIVTED_clean_linker_0, # of connection points: 2
#     Edge 250, Type (0, 0), BuildingBlock: XIVTED_clean_linker_0, # of connection points: 2
#     Edge 251, Type (0, 0), BuildingBlock: XIVTED_clean_linker_0, # of connection points: 2
#     Edge 252, Type (0, 0), BuildingBlock: XIVTED_clean_linker_0, # of connection points: 2
#     Edge 253, Type (0, 0), BuildingBlock: XIVTED_clean_linker_0, # of connection points: 2
#     Edge 254, Type (0, 0), BuildingBlock: XIVTED_clean_linker_0, # of connection points: 2
#     Edge 255, Type (0, 0), BuildingBlock: XIVTED_clean_linker_0, # of connection points: 2
#     Edge 256, Type (0, 0), BuildingBlock: XIVTED_clean_linker_0, # of connection points: 2
#     Edge 257, Type (0, 0), BuildingBlock: XIVTED_clean_linker_0, # of connection points: 2
#     Edge 258, Type (0, 0), BuildingBlock: XIVTED_clean_linker_0, # of connection points: 2
#     Edge 259, Type (0, 0), BuildingBlock: XIVTED_clean_linker_0, # of connection points: 2
#     Edge 260, Type (0, 0), BuildingBlock: XIVTED_clean_linker_0, # of connection points: 2
#     Edge 261, Type (0, 0), BuildingBlock: XIVTED_clean_linker_0, # of connection points: 2
#     Edge 262, Type (0, 0), BuildingBlock: XIVTED_clean_linker_0, # of connection points: 2
#     Edge 263, Type (0, 0), BuildingBlock: XIVTED_clean_linker_0, # of connection points: 2
#     Edge 264, Type (0, 0), BuildingBlock: XIVTED_clean_linker_0, # of connection points: 2
#     Edge 265, Type (0, 0), BuildingBlock: XIVTED_clean_linker_0, # of connection points: 2
#     Edge 266, Type (0, 0), BuildingBlock: XIVTED_clean_linker_0, # of connection points: 2
#     Edge 267, Type (0, 0), BuildingBlock: XIVTED_clean_linker_0, # of connection points: 2
#     Edge 268, Type (0, 0), BuildingBlock: XIVTED_clean_linker_0, # of connection points: 2
#     Edge 269, Type (0, 0), BuildingBlock: XIVTED_clean_linker_0, # of connection points: 2
#     Edge 270, Type (0, 0), BuildingBlock: XIVTED_clean_linker_0, # of connection points: 2
#     Edge 271, Type (0, 0), BuildingBlock: XIVTED_clean_linker_0, # of connection points: 2
#     Edge 272, Type (0, 0), BuildingBlock: XIVTED_clean_linker_0, # of connection points: 2
#     Edge 273, Type (0, 0), BuildingBlock: XIVTED_clean_linker_0, # of connection points: 2
#     Edge 274, Type (0, 0), BuildingBlock: XIVTED_clean_linker_0, # of connection points: 2
#     Edge 275, Type (0, 0), BuildingBlock: XIVTED_clean_linker_0, # of connection points: 2
#     Edge 276, Type (0, 0), BuildingBlock: XIVTED_clean_linker_0, # of connection points: 2
#     Edge 277, Type (0, 0), BuildingBlock: XIVTED_clean_linker_0, # of connection points: 2
#     Edge 278, Type (0, 0), BuildingBlock: XIVTED_clean_linker_0, # of connection points: 2
#     Edge 279, Type (0, 0), BuildingBlock: XIVTED_clean_linker_0, # of connection points: 2
#     Edge 280, Type (0, 0), BuildingBlock: XIVTED_clean_linker_0, # of connection points: 2
#     Edge 281, Type (0, 0), BuildingBlock: XIVTED_clean_linker_0, # of connection points: 2
#     Edge 282, Type (0, 0), BuildingBlock: XIVTED_clean_linker_0, # of connection points: 2
#     Edge 283, Type (0, 0), BuildingBlock: XIVTED_clean_linker_0, # of connection points: 2
#     Edge 284, Type (0, 0), BuildingBlock: XIVTED_clean_linker_0, # of connection points: 2
#     Edge 285, Type (0, 0), BuildingBlock: XIVTED_clean_linker_0, # of connection points: 2
#     Edge 286, Type (0, 0), BuildingBlock: XIVTED_clean_linker_0, # of connection points: 2
#     Edge 287, Type (0, 0), BuildingBlock: XIVTED_clean_linker_0, # of connection points: 2
# Relax obj value: 0.152
# Max RMSD: 0.095
# Mean RMSD: 0.095
data_MOF--net-kfi--node1-QUQFOY_clean_sbu_3--edge1-XIVTED_clean_linker_0
_symmetry_space_group_name_H-M    P1
_symmetry_Int_Tables_number       1
_symmetry_cell_setting            triclinic
loop_
_symmetry_equiv_pos_as_xyz
'x, y, z'
_cell_length_a     90.618301
_cell_length_b     90.524536
_cell_length_c     90.500707
_cell_angle_alpha  89.996533
_cell_angle_beta   90.005656
_cell_angle_gamma 90.00352
loop_
_atom_site_label
_atom_site_type_symbol
_atom_site_fract_x
_atom_site_fract_y
_atom_site_fract_z
_atom_type_partial_charge
C0 C 0.09744 0.17433 0.2982 0.0
O1 O 0.10067 0.18508 0.28977 0.0
Cd2 Cd 0.08953 0.20892 0.29023 0.0
O3 O 0.08725 0.17555 0.30783 0.0
Cd4 Cd 0.06952 0.19516 0.31526 0.0
C5 C 0.09686 0.21773 0.32624 0.0
O6 O 0.06377 0.20401 0.29066 0.0
O7 O 0.05684 0.2185 0.30805 0.0
O8 O 0.05079 0.17624 0.31876 0.0
C9 C 0.05692 0.21558 0.29436 0.0
O10 O 0.09835 0.22123 0.31269 0.0
C11 C 0.04647 0.18097 0.33125 0.0
O12 O 0.08803 0.20754 0.33017 0.0
O13 O 0.05331 0.192 0.33657 0.0
C14 C 0.81733 0.09801 0.29913 0.0
O15 O 0.80751 0.101 0.28958 0.0
Cd16 Cd 0.78303 0.09177 0.28969 0.0
O17 O 0.8148 0.08877 0.30948 0.0
Cd18 Cd 0.79425 0.07177 0.31662 0.0
C19 C 0.7728 0.10092 0.32531 0.0
O20 O 0.78633 0.06582 0.29181 0.0
O21 O 0.7712 0.05917 0.30878 0.0
O22 O 0.81304 0.05314 0.32078 0.0
C23 C 0.77452 0.05922 0.29518 0.0
O24 O 0.77145 0.10294 0.31145 0.0
C25 C 0.80774 0.04847 0.33289 0.0
O26 O 0.781 0.09067 0.33036 0.0
O27 O 0.79644 0.05515 0.33785 0.0
C28 C 0.89716 0.81953 0.29925 0.0
O29 O 0.89418 0.81008 0.28931 0.0
Cd30 Cd 0.90196 0.78504 0.28937 0.0
O31 O 0.90576 0.81633 0.30994 0.0
Cd32 Cd 0.92174 0.79506 0.31727 0.0
C33 C 0.89131 0.77491 0.32467 0.0
O34 O 0.92789 0.78684 0.29259 0.0
O35 O 0.93371 0.77158 0.30975 0.0
O36 O 0.94085 0.81315 0.32208 0.0
C37 C 0.93384 0.77472 0.29611 0.0
O38 O 0.88958 0.7739 0.31074 0.0
C39 C 0.94479 0.80782 0.33444 0.0
O40 O 0.90185 0.78246 0.33013 0.0
O41 O 0.93759 0.79673 0.33916 0.0
C42 C 0.17242 0.89664 0.29693 0.0
O43 O 0.18198 0.8938 0.28707 0.0
Cd44 Cd 0.20652 0.90303 0.2868 0.0
O45 O 0.17521 0.90578 0.30728 0.0
Cd46 Cd 0.19578 0.92289 0.31396 0.0
C47 C 0.21745 0.89372 0.32214 0.0
O48 O 0.2036 0.92905 0.28905 0.0
O49 O 0.21867 0.93562 0.30612 0.0
O50 O 0.17708 0.94153 0.31861 0.0
C51 C 0.21543 0.93561 0.29251 0.0
O52 O 0.21857 0.8917 0.30825 0.0
C53 C 0.18239 0.94581 0.33086 0.0
O54 O 0.20933 0.90396 0.32731 0.0
O55 O 0.1937 0.939 0.33559 0.0
C56 C 0.0966 0.81771 0.69322 0.0
O57 O 0.09961 0.8081 0.70298 0.0
Cd58 Cd 0.0908 0.78338 0.70298 0.0
O59 O 0.08757 0.81482 0.6828 0.0
Cd60 Cd 0.07107 0.79388 0.67574 0.0
C61 C 0.10066 0.77282 0.6677 0.0
O62 O 0.06476 0.78583 0.70054 0.0
O63 O 0.05866 0.77072 0.68331 0.0
O64 O 0.05228 0.81237 0.67094 0.0
C65 C 0.05842 0.77391 0.69694 0.0
O66 O 0.10253 0.77164 0.6816 0.0
C67 C 0.04809 0.80695 0.65871 0.0
O68 O 0.09036 0.78082 0.66245 0.0
O69 O 0.05502 0.79568 0.65404 0.0
C70 C 0.17114 0.09656 0.6924 0.0
O71 O 0.1804 0.10012 0.70231 0.0
Cd72 Cd 0.20564 0.09311 0.7028 0.0
O73 O 0.17466 0.08766 0.68205 0.0
Cd74 Cd 0.19631 0.07189 0.67541 0.0
C75 C 0.21556 0.10263 0.66702 0.0
O76 O 0.20488 0.06709 0.70029 0.0
O77 O 0.22019 0.06107 0.68326 0.0
O78 O 0.17861 0.05223 0.67135 0.0
C79 C 0.21725 0.06157 0.69693 0.0
O80 O 0.21642 0.10484 0.6809 0.0
C81 C 0.18402 0.04791 0.65916 0.0
O82 O 0.20834 0.09171 0.66185 0.0
O83 O 0.19503 0.05506 0.65422 0.0
C84 C 0.89621 0.17217 0.6895 0.0
O85 O 0.89262 0.18108 0.69971 0.0
Cd86 Cd 0.89934 0.2064 0.7005 0.0
O87 O 0.90485 0.17617 0.67911 0.0
Cd88 Cd 0.9201 0.19842 0.67322 0.0
C89 C 0.88923 0.21757 0.66538 0.0
O90 O 0.92548 0.20571 0.69848 0.0
O91 O 0.93093 0.22197 0.68211 0.0
O92 O 0.93971 0.18093 0.66818 0.0
C93 C 0.93112 0.21814 0.69558 0.0
O94 O 0.88707 0.21794 0.67928 0.0
C95 C 0.94415 0.1871 0.6564 0.0
O96 O 0.90022 0.21067 0.65998 0.0
O97 O 0.93703 0.19839 0.65207 0.0
C98 C 0.81966 0.89324 0.69422 0.0
O99 O 0.8104 0.88969 0.70413 0.0
Cd100 Cd 0.78533 0.89725 0.70509 0.0
O101 O 0.81621 0.90233 0.68401 0.0
Cd102 Cd 0.79444 0.9182 0.67796 0.0
C103 C 0.77432 0.88791 0.66976 0.0
O104 O 0.78656 0.92338 0.70314 0.0
O105 O 0.771 0.92939 0.68632 0.0
O106 O 0.81177 0.93811 0.67317 0.0
C107 C 0.77431 0.92922 0.69991 0.0
O108 O 0.7736 0.88566 0.68364 0.0
C109 C 0.80585 0.94225 0.66115 0.0
O110 O 0.78175 0.89865 0.66456 0.0
O111 O 0.79488 0.9348 0.65659 0.0
C112 C 0.29886 0.09748 0.17499 0.0
O113 O 0.28913 0.10033 0.18467 0.0
Cd114 Cd 0.28914 0.0912 0.20926 0.0
O115 O 0.30931 0.08844 0.17773 0.0
Cd116 Cd 0.31641 0.0717 0.19853 0.0
C117 C 0.32429 0.10118 0.2199 0.0
O118 O 0.29165 0.06518 0.20639 0.0
O119 O 0.30878 0.05904 0.22157 0.0
O120 O 0.32143 0.05304 0.17994 0.0
C121 C 0.2952 0.05871 0.21825 0.0
O122 O 0.31041 0.10298 0.22114 0.0
C123 C 0.3336 0.04882 0.18546 0.0
O124 O 0.32955 0.09097 0.21179 0.0
O125 O 0.33813 0.05572 0.19681 0.0
C126 C 0.89361 0.29825 0.17319 0.0
O127 O 0.89019 0.2892 0.18335 0.0
Cd128 Cd 0.89975 0.28942 0.20782 0.0
O129 O 0.90346 0.30809 0.17533 0.0
Cd130 Cd 0.92086 0.31483 0.19561 0.0
C131 C 0.89246 0.32557 0.21716 0.0
O132 O 0.92581 0.29003 0.20455 0.0
O133 O 0.93318 0.30747 0.21887 0.0
O134 O 0.93996 0.31782 0.17706 0.0
C135 C 0.93265 0.29376 0.21615 0.0
O136 O 0.88983 0.3119 0.21923 0.0
C137 C 0.94447 0.33024 0.18175 0.0
O138 O 0.90269 0.3297 0.20846 0.0
O139 O 0.93758 0.33581 0.19263 0.0
C140 C 0.67656 0.90001 0.17037 0.0
O141 O 0.68144 0.91289 0.16832 0.0
Cd142 Cd 0.67529 0.92011 0.1942 0.0
O143 O 0.67051 0.89755 0.18267 0.0
Cd144 Cd 0.67074 0.92239 0.19723 0.0
C145 C 0.65654 0.90084 0.21607 0.0
O146 O 0.69753 0.92735 0.20437 0.0
O147 O 0.68157 0.92877 0.22184 0.0
O148 O 0.66995 0.94101 0.17688 0.0
C149 C 0.69495 0.92991 0.21787 0.0
O150 O 0.66925 0.89829 0.21089 0.0
C151 C 0.6591 0.94801 0.18233 0.0
O152 O 0.65051 0.91283 0.21229 0.0
O153 O 0.65363 0.94292 0.19418 0.0
C154 C 0.09737 0.69295 0.17395 0.0
O155 O 0.10094 0.70278 0.1833 0.0
Cd156 Cd 0.09373 0.70299 0.20848 0.0
O157 O 0.0885 0.68257 0.17742 0.0
Cd158 Cd 0.07293 0.67615 0.19937 0.0
C159 C 0.10342 0.66755 0.21885 0.0
O160 O 0.06757 0.70122 0.20731 0.0
O161 O 0.06199 0.68438 0.22306 0.0
O162 O 0.05295 0.67193 0.18203 0.0
C163 C 0.06172 0.69793 0.21955 0.0
O164 O 0.10566 0.68142 0.21967 0.0
C165 C 0.04857 0.65992 0.18778 0.0
O166 O 0.09253 0.66242 0.21159 0.0
O167 O 0.05598 0.65502 0.19865 0.0
C168 C 0.29604 0.89192 0.81904 0.0
O169 O 0.28619 0.8888 0.80957 0.0
Cd170 Cd 0.2861 0.89733 0.78473 0.0
O171 O 0.30635 0.90101 0.81598 0.0
Cd172 Cd 0.31284 0.91773 0.79516 0.0
C173 C 0.32171 0.88837 0.7742 0.0
O174 O 0.28801 0.92345 0.78696 0.0
O175 O 0.30522 0.92985 0.77192 0.0
O176 O 0.31595 0.93688 0.81354 0.0
C177 C 0.2916 0.92989 0.77509 0.0
O178 O 0.30786 0.88614 0.77319 0.0
C179 C 0.32828 0.94147 0.80876 0.0
O180 O 0.32677 0.89889 0.78205 0.0
O181 O 0.33386 0.93452 0.79791 0.0
C182 C 0.09687 0.29891 0.81954 0.0
O183 O 0.10011 0.28907 0.81009 0.0
Cd184 Cd 0.09174 0.28866 0.78524 0.0
O185 O 0.08774 0.30917 0.81641 0.0
Cd186 Cd 0.07132 0.31559 0.79517 0.0
C187 C 0.1011 0.32405 0.77453 0.0
O188 O 0.06564 0.29061 0.7872 0.0
O189 O 0.05961 0.30762 0.77181 0.0
O190 O 0.05196 0.31973 0.81318 0.0
C191 C 0.0595 0.29402 0.77513 0.0
O192 O 0.10324 0.31018 0.77356 0.0
C193 C 0.04755 0.33189 0.80776 0.0
O194 O 0.09055 0.3292 0.78226 0.0
O195 O 0.05467 0.33687 0.79674 0.0
C196 C 0.69632 0.10184 0.81923 0.0
O197 O 0.70574 0.10504 0.80935 0.0
Cd198 Cd 0.70511 0.09612 0.78466 0.0
O199 O 0.68611 0.0925 0.81668 0.0
Cd200 Cd 0.67908 0.07547 0.79622 0.0
C201 C 0.66912 0.10447 0.77516 0.0
O202 O 0.70365 0.07001 0.78706 0.0
O203 O 0.68597 0.06338 0.7727 0.0
O204 O 0.67658 0.05612 0.81457 0.0
C205 C 0.69971 0.06359 0.77529 0.0
O206 O 0.68289 0.10687 0.77363 0.0
C207 C 0.66395 0.05179 0.81033 0.0
O208 O 0.66448 0.09402 0.78335 0.0
O209 O 0.65803 0.05891 0.79978 0.0
C210 C 0.89636 0.69368 0.81815 0.0
O211 O 0.89376 0.70358 0.80855 0.0
Cd212 Cd 0.90332 0.70394 0.78412 0.0
O213 O 0.90538 0.68321 0.81545 0.0
Cd214 Cd 0.92247 0.67621 0.79496 0.0
C215 C 0.89339 0.66887 0.77289 0.0
O216 O 0.92919 0.70103 0.78742 0.0
O217 O 0.93558 0.68401 0.77222 0.0
O218 O 0.94077 0.67084 0.8138 0.0
C219 C 0.93577 0.69759 0.7756 0.0
O220 O 0.89172 0.68281 0.77179 0.0
C221 C 0.94484 0.6586 0.8083 0.0
O222 O 0.90338 0.66342 0.78114 0.0
O223 O 0.93805 0.65422 0.79683 0.0
C224 C 0.17435 0.29676 0.09588 0.0
O225 O 0.18412 0.28703 0.0984 0.0
Cd226 Cd 0.20864 0.28733 0.08921 0.0
O227 O 0.17693 0.30751 0.08713 0.0
Cd228 Cd 0.19745 0.31538 0.07042 0.0
C229 C 0.2191 0.32243 0.09996 0.0
O230 O 0.20532 0.29084 0.06341 0.0
O231 O 0.22031 0.30808 0.05719 0.0
O232 O 0.17876 0.32075 0.05198 0.0
C233 C 0.2171 0.29446 0.05688 0.0
O234 O 0.22039 0.30849 0.10138 0.0
C235 C 0.18402 0.33319 0.04821 0.0
O236 O 0.21091 0.32795 0.08994 0.0
O237 O 0.19529 0.33769 0.05525 0.0
C238 C 0.17168 0.6935 0.89502 0.0
O239 O 0.18123 0.70332 0.89205 0.0
Cd240 Cd 0.20598 0.70338 0.9007 0.0
O241 O 0.17465 0.683 0.90394 0.0
Cd242 Cd 0.19568 0.67596 0.9203 0.0
C243 C 0.21669 0.66823 0.89056 0.0
O244 O 0.20372 0.70072 0.92675 0.0
O245 O 0.21889 0.68346 0.93256 0.0
O246 O 0.17754 0.67119 0.93939 0.0
C247 C 0.21568 0.69707 0.93296 0.0
O248 O 0.21778 0.68215 0.88878 0.0
C249 C 0.18292 0.65889 0.94343 0.0
O250 O 0.20875 0.66287 0.90086 0.0
O251 O 0.19397 0.65414 0.93622 0.0
C252 C 0.30212 0.17659 0.8955 0.0
O253 O 0.29127 0.18494 0.89252 0.0
Cd254 Cd 0.28943 0.20972 0.90133 0.0
O255 O 0.31198 0.18058 0.90473 0.0
Cd256 Cd 0.31681 0.20127 0.92216 0.0
C257 C 0.32443 0.22223 0.89242 0.0
O258 O 0.29143 0.20814 0.92753 0.0
O259 O 0.30792 0.22393 0.93418 0.0
O260 O 0.32136 0.18283 0.94102 0.0
C261 C 0.29444 0.22023 0.93392 0.0
O262 O 0.31057 0.22234 0.89002 0.0
C263 C 0.33332 0.18846 0.94566 0.0
O264 O 0.32985 0.21499 0.90319 0.0
O265 O 0.33797 0.19989 0.93895 0.0
C266 C 0.81796 0.29984 0.89691 0.0
O267 O 0.80832 0.29006 0.89411 0.0
Cd268 Cd 0.78364 0.2903 0.90294 0.0
O269 O 0.81513 0.31041 0.90579 0.0
Cd270 Cd 0.79426 0.31767 0.92234 0.0
C271 C 0.77325 0.32551 0.89264 0.0
O272 O 0.786 0.293 0.92899 0.0
O273 O 0.77099 0.31042 0.93472 0.0
O274 O 0.81273 0.32245 0.94116 0.0
C275 C 0.77409 0.29679 0.9352 0.0
O276 O 0.77202 0.31159 0.89095 0.0
C277 C 0.80737 0.33471 0.94533 0.0
O278 O 0.78126 0.33085 0.90289 0.0
O279 O 0.79616 0.33942 0.93834 0.0
C280 C 0.69129 0.81554 0.89277 0.0
O281 O 0.70105 0.806 0.88958 0.0
Cd282 Cd 0.70438 0.78283 0.90161 0.0
O283 O 0.68236 0.81344 0.90346 0.0
Cd284 Cd 0.67761 0.79385 0.92222 0.0
C285 C 0.66943 0.76956 0.89495 0.0
O286 O 0.70308 0.78738 0.9275 0.0
O287 O 0.68689 0.77218 0.93582 0.0
O288 O 0.67317 0.81305 0.94047 0.0
C289 C 0.70035 0.77586 0.93493 0.0
O290 O 0.68328 0.76874 0.89268 0.0
C291 C 0.66127 0.8075 0.9454 0.0
O292 O 0.66419 0.77838 0.90459 0.0
O293 O 0.65657 0.79592 0.93902 0.0
C294 C 0.82015 0.69144 0.09539 0.0
O295 O 0.8108 0.70141 0.09851 0.0
Cd296 Cd 0.78616 0.70253 0.08972 0.0
O297 O 0.81704 0.68121 0.0862 0.0
Cd298 Cd 0.796 0.67509 0.06939 0.0
C299 C 0.77442 0.66736 0.09884 0.0
O300 O 0.78917 0.70032 0.06375 0.0
O301 O 0.77347 0.6841 0.05661 0.0
O302 O 0.81453 0.66985 0.05076 0.0
C303 C 0.77726 0.69757 0.05704 0.0
O304 O 0.77375 0.68126 0.10098 0.0
C305 C 0.80865 0.65795 0.04623 0.0
O306 O 0.78223 0.66203 0.08843 0.0
O307 O 0.79709 0.65366 0.05291 0.0
C308 C 0.30032 0.82032 0.09729 0.0
O309 O 0.29063 0.81086 0.10089 0.0
Cd310 Cd 0.29053 0.7858 0.09335 0.0
O311 O 0.31055 0.81705 0.08817 0.0
Cd312 Cd 0.3169 0.79531 0.07226 0.0
C313 C 0.32619 0.77601 0.1026 0.0
O314 O 0.29187 0.78714 0.06714 0.0
O315 O 0.30869 0.77146 0.06147 0.0
O316 O 0.32122 0.8128 0.05236 0.0
C317 C 0.29513 0.77487 0.06134 0.0
O318 O 0.31238 0.7749 0.10499 0.0
C319 C 0.33322 0.80701 0.04803 0.0
O320 O 0.33103 0.78338 0.09165 0.0
O321 O 0.33796 0.79602 0.05534 0.0
C322 C 0.69499 0.1769 0.09485 0.0
O323 O 0.70458 0.18683 0.09729 0.0
Cd324 Cd 0.70394 0.2112 0.08766 0.0
O325 O 0.68428 0.17922 0.08599 0.0
Cd326 Cd 0.67613 0.19935 0.06899 0.0
C327 C 0.66872 0.22112 0.09835 0.0
O328 O 0.70055 0.20739 0.06188 0.0
O329 O 0.68319 0.22214 0.05543 0.0
O330 O 0.67083 0.18016 0.05103 0.0
C331 C 0.69682 0.21904 0.05516 0.0
O332 O 0.68263 0.22269 0.09978 0.0
C333 C 0.65841 0.18533 0.04712 0.0
O334 O 0.66338 0.21277 0.08839 0.0
O335 O 0.65392 0.1968 0.05384 0.0
C336 C 0.89723 0.81778 0.69378 0.0
O337 O 0.8944 0.80833 0.70375 0.0
Cd338 Cd 0.90288 0.78351 0.70384 0.0
O339 O 0.90598 0.81471 0.68318 0.0
Cd340 Cd 0.92242 0.79363 0.67626 0.0
C341 C 0.8926 0.77268 0.66872 0.0
O342 O 0.92887 0.78582 0.70109 0.0
O343 O 0.93482 0.77049 0.68402 0.0
O344 O 0.94134 0.81191 0.67133 0.0
C345 C 0.93513 0.77384 0.69761 0.0
O346 O 0.89081 0.77172 0.68265 0.0
C347 C 0.94536 0.80651 0.65903 0.0
O348 O 0.90296 0.78047 0.66329 0.0
O349 O 0.93826 0.79533 0.65439 0.0
C350 C 0.17174 0.89616 0.69407 0.0
O351 O 0.18132 0.89347 0.70395 0.0
Cd352 Cd 0.20597 0.90232 0.70414 0.0
O353 O 0.17456 0.90499 0.68345 0.0
Cd354 Cd 0.19534 0.92171 0.67625 0.0
C355 C 0.21672 0.89208 0.66895 0.0
O356 O 0.2032 0.9282 0.70095 0.0
O357 O 0.21847 0.93422 0.68389 0.0
O358 O 0.17716 0.94072 0.67122 0.0
C359 C 0.21517 0.93445 0.69749 0.0
O360 O 0.21781 0.89041 0.68289 0.0
C361 C 0.1826 0.94465 0.65891 0.0
O362 O 0.2087 0.90225 0.66349 0.0
O363 O 0.19367 0.93739 0.65427 0.0
C364 C 0.09503 0.17292 0.69235 0.0
O365 O 0.09814 0.18215 0.70245 0.0
Cd366 Cd 0.09053 0.20724 0.703 0.0
O367 O 0.08647 0.17644 0.68173 0.0
Cd368 Cd 0.07087 0.1982 0.67499 0.0
C369 C 0.10128 0.21858 0.66815 0.0
O370 O 0.06455 0.20575 0.69993 0.0
O371 O 0.05906 0.22151 0.68309 0.0
O372 O 0.0514 0.18068 0.66951 0.0
C373 C 0.05866 0.21797 0.69663 0.0
O374 O 0.10297 0.21919 0.68212 0.0
C375 C 0.04759 0.18655 0.65735 0.0
O376 O 0.09081 0.21112 0.66246 0.0
O377 O 0.05508 0.19759 0.65301 0.0
C378 C 0.82078 0.09581 0.68898 0.0
O379 O 0.81182 0.09955 0.69908 0.0
Cd380 Cd 0.78657 0.09283 0.7 0.0
O381 O 0.81687 0.08694 0.67875 0.0
Cd382 Cd 0.79463 0.07152 0.67315 0.0
C383 C 0.77571 0.10234 0.6646 0.0
O384 O 0.78716 0.06666 0.69842 0.0
O385 O 0.77085 0.06131 0.68207 0.0
O386 O 0.81176 0.05139 0.66906 0.0
C387 C 0.77466 0.06117 0.69554 0.0
O388 O 0.77524 0.10471 0.67848 0.0
C389 C 0.80573 0.04668 0.65732 0.0
O390 O 0.7826 0.09123 0.65941 0.0
O391 O 0.79476 0.05396 0.65247 0.0
C392 C 0.89503 0.17403 0.29718 0.0
O393 O 0.89229 0.18373 0.28742 0.0
Cd394 Cd 0.90142 0.20827 0.288 0.0
O395 O 0.90403 0.1767 0.30768 0.0
Cd396 Cd 0.92121 0.19702 0.31501 0.0
C397 C 0.89177 0.21783 0.32379 0.0
O398 O 0.92736 0.2051 0.29031 0.0
O399 O 0.93379 0.22022 0.30738 0.0
O400 O 0.93937 0.17777 0.31901 0.0
C401 C 0.93385 0.21695 0.29376 0.0
O402 O 0.88983 0.21921 0.30991 0.0
C403 C 0.94401 0.18273 0.33127 0.0
O404 O 0.9022 0.20989 0.32885 0.0
O405 O 0.93765 0.19419 0.33629 0.0
C406 C 0.82 0.89514 0.2988 0.0
O407 O 0.81052 0.89139 0.28918 0.0
Cd408 Cd 0.78552 0.89921 0.28861 0.0
O409 O 0.81683 0.9045 0.30884 0.0
Cd410 Cd 0.79538 0.92072 0.31499 0.0
C411 C 0.77508 0.89092 0.3244 0.0
O412 O 0.78717 0.92536 0.28986 0.0
O413 O 0.77192 0.93206 0.30671 0.0
O414 O 0.813 0.94058 0.31874 0.0
C415 C 0.77505 0.93148 0.29308 0.0
O416 O 0.7741 0.88831 0.31059 0.0
C417 C 0.80772 0.94485 0.33101 0.0
O418 O 0.78271 0.90172 0.32918 0.0
O419 O 0.7969 0.93755 0.33614 0.0
C420 C 0.09594 0.81934 0.2996 0.0
O421 O 0.09878 0.80963 0.2899 0.0
Cd422 Cd 0.0899 0.78496 0.28973 0.0
O423 O 0.08695 0.81665 0.31012 0.0
Cd424 Cd 0.07024 0.79589 0.31743 0.0
C425 C 0.09977 0.77451 0.32513 0.0
O426 O 0.06405 0.78782 0.2927 0.0
O427 O 0.0576 0.77279 0.30983 0.0
O428 O 0.05148 0.81437 0.32243 0.0
C429 C 0.05769 0.77589 0.29618 0.0
O430 O 0.10154 0.7733 0.31121 0.0
C431 C 0.04741 0.80891 0.33469 0.0
O432 O 0.08958 0.7826 0.33045 0.0
O433 O 0.05443 0.79766 0.33928 0.0
C434 C 0.17521 0.09765 0.29673 0.0
O435 O 0.18522 0.1002 0.28726 0.0
Cd436 Cd 0.20941 0.0902 0.28777 0.0
O437 O 0.17737 0.08847 0.30722 0.0
Cd438 Cd 0.19734 0.07101 0.31489 0.0
C439 C 0.21954 0.0997 0.32332 0.0
O440 O 0.20546 0.06436 0.2903 0.0
O441 O 0.22021 0.05777 0.30762 0.0
O442 O 0.1783 0.05266 0.31925 0.0
C443 C 0.21709 0.05759 0.29398 0.0
O444 O 0.22112 0.10144 0.30944 0.0
C445 C 0.18322 0.04845 0.33169 0.0
O446 O 0.21098 0.08979 0.32842 0.0
O447 O 0.19443 0.05524 0.33668 0.0
C448 C 0.67534 0.89951 0.823 0.0
O449 O 0.68059 0.91229 0.82473 0.0
Cd450 Cd 0.67443 0.91909 0.79878 0.0
O451 O 0.66907 0.89696 0.81082 0.0
Cd452 Cd 0.66975 0.9214 0.79563 0.0
C453 C 0.65589 0.89926 0.77718 0.0
O454 O 0.69667 0.92602 0.78857 0.0
O455 O 0.68078 0.92735 0.77102 0.0
O456 O 0.66897 0.9403 0.81565 0.0
C457 C 0.69416 0.92844 0.77504 0.0
O458 O 0.66857 0.89692 0.78256 0.0
C459 C 0.65832 0.94741 0.80996 0.0
O460 O 0.64974 0.91131 0.78059 0.0
O461 O 0.65289 0.94223 0.79812 0.0
C462 C 0.09486 0.69406 0.81853 0.0
O463 O 0.09776 0.70387 0.80894 0.0
Cd464 Cd 0.08928 0.70363 0.78412 0.0
O465 O 0.08608 0.68345 0.81558 0.0
Cd466 Cd 0.06973 0.67609 0.79461 0.0
C467 C 0.09967 0.66837 0.77389 0.0
O468 O 0.06331 0.70079 0.78661 0.0
O469 O 0.05737 0.68367 0.77133 0.0
O470 O 0.05091 0.67112 0.81299 0.0
C471 C 0.05708 0.69728 0.77462 0.0
O472 O 0.10144 0.68228 0.77268 0.0
C473 C 0.04698 0.65875 0.80768 0.0
O474 O 0.08929 0.66307 0.78174 0.0
O475 O 0.05405 0.65412 0.79648 0.0
C476 C 0.31398 0.09399 0.82415 0.0
O477 O 0.30491 0.0835 0.82286 0.0
Cd478 Cd 0.3146 0.07681 0.79858 0.0
O479 O 0.32353 0.09532 0.81404 0.0
Cd480 Cd 0.32033 0.07347 0.79538 0.0
C481 C 0.33516 0.09696 0.77913 0.0
O482 O 0.2933 0.07043 0.78705 0.0
O483 O 0.30972 0.06932 0.77002 0.0
O484 O 0.32014 0.05325 0.8137 0.0
C485 C 0.29619 0.0684 0.77355 0.0
O486 O 0.32265 0.09972 0.78476 0.0
C487 C 0.33082 0.04636 0.80777 0.0
O488 O 0.34041 0.08423 0.78136 0.0
O489 O 0.33654 0.05214 0.79636 0.0
C490 C 0.89473 0.29754 0.82019 0.0
O491 O 0.89161 0.28768 0.81072 0.0
Cd492 Cd 0.89964 0.28769 0.78574 0.0
O493 O 0.90366 0.30798 0.81706 0.0
Cd494 Cd 0.92001 0.31471 0.79582 0.0
C495 C 0.89001 0.32325 0.77561 0.0
O496 O 0.92572 0.2899 0.78721 0.0
O497 O 0.93143 0.3073 0.77214 0.0
O498 O 0.9395 0.3188 0.81376 0.0
C499 C 0.93157 0.29361 0.77508 0.0
O500 O 0.88795 0.30936 0.77453 0.0
C501 C 0.94379 0.33102 0.80839 0.0
O502 O 0.90061 0.32841 0.78328 0.0
O503 O 0.93659 0.33603 0.79744 0.0
C504 C 0.69697 0.10132 0.17324 0.0
O505 O 0.7065 0.10415 0.18311 0.0
Cd506 Cd 0.70578 0.09468 0.2076 0.0
O507 O 0.68656 0.09217 0.1757 0.0
Cd508 Cd 0.67912 0.07495 0.19587 0.0
C509 C 0.67007 0.10387 0.21748 0.0
O510 O 0.70365 0.06868 0.20451 0.0
O511 O 0.686 0.06225 0.21903 0.0
O512 O 0.67611 0.05625 0.17698 0.0
C513 C 0.69969 0.06204 0.21615 0.0
O514 O 0.68392 0.10586 0.21897 0.0
C515 C 0.6635 0.05193 0.18128 0.0
O516 O 0.66511 0.09369 0.20913 0.0
O517 O 0.65779 0.05881 0.19211 0.0
C518 C 0.89541 0.69221 0.17305 0.0
O519 O 0.89209 0.70232 0.18218 0.0
Cd520 Cd 0.89924 0.70278 0.20738 0.0
O521 O 0.90408 0.68173 0.17672 0.0
Cd522 Cd 0.91975 0.67547 0.19863 0.0
C523 C 0.88911 0.66745 0.21802 0.0
O524 O 0.92534 0.70053 0.20651 0.0
O525 O 0.93053 0.68364 0.22234 0.0
O526 O 0.93952 0.67114 0.1811 0.0
C527 C 0.93097 0.69719 0.21885 0.0
O528 O 0.88709 0.68136 0.21864 0.0
C529 C 0.94406 0.65925 0.18699 0.0
O530 O 0.89996 0.66204 0.21089 0.0
O531 O 0.93683 0.65445 0.19801 0.0
C532 C 0.29872 0.89786 0.17284 0.0
O533 O 0.28849 0.89508 0.18202 0.0
Cd534 Cd 0.28778 0.90342 0.20689 0.0
O535 O 0.30929 0.90651 0.17624 0.0
Cd536 Cd 0.31582 0.92283 0.19755 0.0
C537 C 0.32254 0.89279 0.21855 0.0
O538 O 0.2909 0.9294 0.20486 0.0
O539 O 0.30766 0.93515 0.22059 0.0
O540 O 0.32116 0.94185 0.17947 0.0
C541 C 0.29415 0.93554 0.21698 0.0
O542 O 0.30858 0.89118 0.21914 0.0
C543 C 0.33332 0.94586 0.18516 0.0
O544 O 0.32829 0.90312 0.21094 0.0
O545 O 0.33773 0.93868 0.19639 0.0
C546 C 0.09817 0.29658 0.17339 0.0
O547 O 0.10181 0.28763 0.18356 0.0
Cd548 Cd 0.09257 0.28808 0.20815 0.0
O549 O 0.08833 0.30639 0.17561 0.0
Cd550 Cd 0.07123 0.31331 0.19605 0.0
C551 C 0.10004 0.32432 0.21693 0.0
O552 O 0.06645 0.2885 0.20497 0.0
O553 O 0.05908 0.30586 0.21941 0.0
O554 O 0.05224 0.31655 0.17738 0.0
C555 C 0.05961 0.29216 0.21659 0.0
O556 O 0.10274 0.31068 0.21916 0.0
C557 C 0.04765 0.32887 0.18227 0.0
O558 O 0.08962 0.32828 0.20838 0.0
O559 O 0.05439 0.33422 0.19335 0.0
C560 C 0.81886 0.69404 0.89467 0.0
O561 O 0.80916 0.70377 0.89189 0.0
Cd562 Cd 0.78476 0.70426 0.90141 0.0
O563 O 0.81628 0.68364 0.90383 0.0
Cd564 Cd 0.79576 0.67668 0.92093 0.0
C565 C 0.77339 0.66913 0.89198 0.0
O566 O 0.78852 0.70163 0.92727 0.0
O567 O 0.77341 0.68489 0.93449 0.0
O568 O 0.81434 0.67127 0.93949 0.0
C569 C 0.77688 0.69845 0.93427 0.0
O570 O 0.77232 0.68304 0.8901 0.0
C571 C 0.80881 0.65901 0.94345 0.0
O572 O 0.78167 0.66383 0.90203 0.0
O573 O 0.79749 0.65461 0.93643 0.0
C574 C 0.8169 0.29795 0.09591 0.0
O575 O 0.80729 0.28803 0.09824 0.0
Cd576 Cd 0.78281 0.28829 0.08891 0.0
O577 O 0.81418 0.30876 0.08727 0.0
Cd578 Cd 0.7936 0.31635 0.07049 0.0
C579 C 0.77196 0.32315 0.10001 0.0
O580 O 0.78586 0.29181 0.06305 0.0
O581 O 0.7706 0.30908 0.05756 0.0
O582 O 0.81222 0.32166 0.05199 0.0
C583 C 0.77399 0.29553 0.05673 0.0
O584 O 0.77083 0.30917 0.10128 0.0
C585 C 0.80689 0.33403 0.0481 0.0
O586 O 0.78009 0.32886 0.09006 0.0
O587 O 0.79565 0.33857 0.05516 0.0
C588 C 0.69205 0.81521 0.1014 0.0
O589 O 0.7017 0.80557 0.10465 0.0
Cd590 Cd 0.70479 0.78229 0.0927 0.0
O591 O 0.68312 0.81314 0.09071 0.0
Cd592 Cd 0.67817 0.79346 0.0721 0.0
C593 C 0.66982 0.76921 0.09936 0.0
O594 O 0.70357 0.78654 0.06674 0.0
O595 O 0.68702 0.77167 0.0585 0.0
O596 O 0.67394 0.81242 0.05355 0.0
C597 C 0.70056 0.77506 0.05934 0.0
O598 O 0.68366 0.7683 0.10164 0.0
C599 C 0.6618 0.80713 0.04894 0.0
O600 O 0.66465 0.7781 0.08974 0.0
O601 O 0.65689 0.79582 0.05564 0.0
C602 C 0.17189 0.69313 0.09582 0.0
O603 O 0.18137 0.70287 0.09927 0.0
Cd604 Cd 0.20639 0.70291 0.09148 0.0
O605 O 0.17507 0.68288 0.08669 0.0
Cd606 Cd 0.19642 0.67638 0.07044 0.0
C607 C 0.21605 0.66715 0.10064 0.0
O608 O 0.205 0.70127 0.06529 0.0
O609 O 0.22017 0.6841 0.05925 0.0
O610 O 0.17851 0.67224 0.05094 0.0
C611 C 0.21716 0.69777 0.05941 0.0
O612 O 0.21731 0.68097 0.10302 0.0
C613 C 0.18392 0.66004 0.04664 0.0
O614 O 0.20849 0.66235 0.08981 0.0
O615 O 0.19499 0.65516 0.05374 0.0
C616 C 0.29735 0.17377 0.09739 0.0
O617 O 0.28745 0.18331 0.10007 0.0
Cd618 Cd 0.28729 0.20792 0.09097 0.0
O619 O 0.3079 0.17663 0.0885 0.0
Cd620 Cd 0.31482 0.19749 0.07177 0.0
C621 C 0.32222 0.21904 0.10123 0.0
O622 O 0.29005 0.20516 0.06497 0.0
O623 O 0.30714 0.22054 0.05924 0.0
O624 O 0.32013 0.17925 0.05281 0.0
C625 C 0.2936 0.2171 0.05865 0.0
O626 O 0.3083 0.22011 0.10291 0.0
C627 C 0.33232 0.18491 0.04885 0.0
O628 O 0.32767 0.21096 0.09109 0.0
O629 O 0.33676 0.19609 0.05607 0.0
C630 C 0.17213 0.29907 0.89771 0.0
O631 O 0.18163 0.2891 0.89507 0.0
Cd632 Cd 0.20629 0.28882 0.90388 0.0
O633 O 0.17505 0.30972 0.90648 0.0
Cd634 Cd 0.19583 0.31687 0.9232 0.0
C635 C 0.21722 0.32395 0.89351 0.0
O636 O 0.20343 0.29207 0.92974 0.0
O637 O 0.21872 0.30901 0.93604 0.0
O638 O 0.17724 0.32222 0.94174 0.0
C639 C 0.21536 0.29543 0.93614 0.0
O640 O 0.21817 0.31 0.89188 0.0
C641 C 0.18284 0.33439 0.94587 0.0
O642 O 0.2093 0.32951 0.90371 0.0
O643 O 0.19424 0.33878 0.93899 0.0
C644 C 0.69409 0.17763 0.89724 0.0
O645 O 0.70369 0.18751 0.89463 0.0
Cd646 Cd 0.70329 0.21191 0.90415 0.0
O647 O 0.68351 0.18005 0.90622 0.0
Cd648 Cd 0.67579 0.20035 0.92326 0.0
C649 C 0.66798 0.22207 0.89399 0.0
O650 O 0.70038 0.20819 0.92999 0.0
O651 O 0.68331 0.22323 0.93651 0.0
O652 O 0.67081 0.18134 0.94149 0.0
C653 C 0.6969 0.21994 0.93667 0.0
O654 O 0.68187 0.22353 0.89234 0.0
C655 C 0.65838 0.18643 0.94546 0.0
O656 O 0.66274 0.21378 0.90406 0.0
O657 O 0.65374 0.19781 0.93869 0.0
C658 C 0.29842 0.81591 0.89629 0.0
O659 O 0.2885 0.80642 0.89345 0.0
Cd660 Cd 0.28822 0.78165 0.90195 0.0
O661 O 0.30902 0.81288 0.90506 0.0
Cd662 Cd 0.31613 0.79181 0.92146 0.0
C663 C 0.3233 0.77086 0.89147 0.0
O664 O 0.29134 0.78427 0.92786 0.0
O665 O 0.30815 0.76877 0.93399 0.0
O666 O 0.32116 0.81021 0.94024 0.0
C667 C 0.29462 0.77227 0.93418 0.0
O668 O 0.30937 0.76994 0.88981 0.0
C669 C 0.33331 0.80465 0.94446 0.0
O670 O 0.32885 0.77862 0.90181 0.0
O671 O 0.33788 0.79336 0.9375 0.0
C672 C 0.59588 0.67191 0.80097 0.0
O673 O 0.59923 0.68155 0.79135 0.0
Cd674 Cd 0.59104 0.7064 0.79164 0.0
O675 O 0.58674 0.67487 0.81128 0.0
Cd676 Cd 0.57027 0.69602 0.81803 0.0
C677 C 0.6001 0.71593 0.82753 0.0
O678 O 0.56495 0.70419 0.79311 0.0
O679 O 0.55883 0.71967 0.80998 0.0
O680 O 0.55099 0.67783 0.82179 0.0
C681 C 0.55883 0.7163 0.79639 0.0
O682 O 0.60245 0.71718 0.8137 0.0
C683 C 0.54641 0.68312 0.83394 0.0
O684 O 0.58933 0.70831 0.83234 0.0
O685 O 0.55332 0.69421 0.83904 0.0
C686 C 0.31734 0.59495 0.79875 0.0
O687 O 0.30774 0.59786 0.78895 0.0
Cd688 Cd 0.283 0.58919 0.78897 0.0
O689 O 0.31444 0.58606 0.8093 0.0
Cd690 Cd 0.29351 0.56965 0.81659 0.0
C691 C 0.27251 0.59946 0.8242 0.0
O692 O 0.28545 0.56321 0.79188 0.0
O693 O 0.27032 0.55719 0.80909 0.0
O694 O 0.31182 0.55073 0.82137 0.0
C695 C 0.27351 0.55694 0.79546 0.0
O696 O 0.27138 0.60118 0.81027 0.0
C697 C 0.30657 0.54674 0.83374 0.0
O698 O 0.28044 0.58917 0.82959 0.0
O699 O 0.29546 0.55386 0.83849 0.0
C700 C 0.39504 0.32014 0.79641 0.0
O701 O 0.39221 0.31048 0.78664 0.0
Cd702 Cd 0.40118 0.28585 0.7868 0.0
O703 O 0.40404 0.31739 0.8069 0.0
Cd704 Cd 0.42083 0.29667 0.81398 0.0
C705 C 0.39125 0.27563 0.82217 0.0
O706 O 0.42718 0.28861 0.78923 0.0
O707 O 0.43327 0.27349 0.80643 0.0
O708 O 0.43968 0.3151 0.81886 0.0
C709 C 0.43355 0.27672 0.79282 0.0
O710 O 0.38939 0.27428 0.80828 0.0
C711 C 0.44379 0.30964 0.83111 0.0
O712 O 0.40156 0.28368 0.82732 0.0
O713 O 0.43674 0.29842 0.83574 0.0
C714 C 0.67188 0.39613 0.79931 0.0
O715 O 0.68136 0.39319 0.78942 0.0
Cd716 Cd 0.70607 0.40189 0.78898 0.0
O717 O 0.67489 0.4051 0.80977 0.0
Cd718 Cd 0.69598 0.42158 0.81651 0.0
C719 C 0.7172 0.39192 0.82405 0.0
O720 O 0.70365 0.42791 0.79161 0.0
O721 O 0.71909 0.43385 0.80856 0.0
O722 O 0.67799 0.44077 0.8216 0.0
C723 C 0.71566 0.43414 0.795 0.0
O724 O 0.71815 0.39008 0.81013 0.0
C725 C 0.68356 0.44469 0.83386 0.0
O726 O 0.70929 0.4022 0.82946 0.0
O727 O 0.69463 0.43739 0.83842 0.0
C728 C 0.59646 0.31817 0.19452 0.0
O729 O 0.59969 0.30861 0.20426 0.0
Cd730 Cd 0.59153 0.28369 0.20419 0.0
O731 O 0.58748 0.31511 0.18411 0.0
Cd732 Cd 0.57131 0.29382 0.17723 0.0
C733 C 0.60141 0.27361 0.16878 0.0
O734 O 0.56542 0.28556 0.20208 0.0
O735 O 0.55951 0.27035 0.18486 0.0
O736 O 0.55194 0.31175 0.17279 0.0
C737 C 0.55929 0.27353 0.19849 0.0
O738 O 0.60347 0.27243 0.18266 0.0
C739 C 0.54782 0.30638 0.16051 0.0
O740 O 0.59079 0.28128 0.1637 0.0
O741 O 0.55507 0.2954 0.15565 0.0
C742 C 0.67391 0.5959 0.19277 0.0
O743 O 0.68342 0.599 0.20259 0.0
Cd744 Cd 0.70816 0.59053 0.20269 0.0
O745 O 0.67695 0.58696 0.1823 0.0
Cd746 Cd 0.69811 0.57059 0.17547 0.0
C747 C 0.71893 0.60036 0.1674 0.0
O748 O 0.70547 0.5645 0.20044 0.0
O749 O 0.72122 0.55839 0.18383 0.0
O750 O 0.67977 0.55167 0.17083 0.0
C751 C 0.71748 0.55813 0.19732 0.0
O752 O 0.7199 0.6023 0.18131 0.0
C753 C 0.68537 0.54713 0.15882 0.0
O754 O 0.71116 0.58991 0.16211 0.0
O755 O 0.69666 0.55399 0.1541 0.0
C756 C 0.3936 0.67239 0.19135 0.0
O757 O 0.391 0.68133 0.20186 0.0
Cd758 Cd 0.401 0.70548 0.20465 0.0
O759 O 0.40306 0.67547 0.18139 0.0
Cd760 Cd 0.42116 0.69569 0.17658 0.0
C761 C 0.39311 0.71936 0.16991 0.0
O762 O 0.42675 0.702 0.20201 0.0
O763 O 0.43478 0.71744 0.18592 0.0
O764 O 0.43952 0.67687 0.17158 0.0
C765 C 0.43379 0.71378 0.1994 0.0
O766 O 0.39095 0.71946 0.18383 0.0
C767 C 0.44395 0.68243 0.15948 0.0
O768 O 0.403 0.71116 0.16417 0.0
O769 O 0.4373 0.69393 0.15496 0.0
C770 C 0.31891 0.39407 0.19489 0.0
O771 O 0.30948 0.39063 0.20468 0.0
Cd772 Cd 0.28442 0.39837 0.20507 0.0
O773 O 0.31564 0.40309 0.18456 0.0
Cd774 Cd 0.29412 0.41894 0.17784 0.0
C775 C 0.27403 0.38859 0.1697 0.0
O776 O 0.28575 0.4245 0.20278 0.0
O777 O 0.27067 0.43057 0.18553 0.0
O778 O 0.31172 0.43857 0.17292 0.0
C779 C 0.27365 0.43046 0.1992 0.0
O780 O 0.27301 0.38648 0.18359 0.0
C781 C 0.30612 0.44241 0.16065 0.0
O782 O 0.28159 0.39925 0.16455 0.0
O783 O 0.29516 0.43496 0.15607 0.0
C784 C 0.79863 0.59741 0.67341 0.0
O785 O 0.78883 0.60062 0.6829 0.0
Cd786 Cd 0.78885 0.59243 0.70782 0.0
O787 O 0.80899 0.58839 0.67653 0.0
Cd788 Cd 0.81571 0.57207 0.69777 0.0
C789 C 0.82432 0.60213 0.71792 0.0
O790 O 0.79089 0.56629 0.70615 0.0
O791 O 0.80814 0.56054 0.72137 0.0
O792 O 0.81978 0.55273 0.67967 0.0
C793 C 0.79451 0.5603 0.71824 0.0
O794 O 0.81045 0.6042 0.71904 0.0
C795 C 0.83191 0.54827 0.68507 0.0
O796 O 0.82942 0.59149 0.71026 0.0
O797 O 0.8369 0.55533 0.69613 0.0
C798 C 0.39507 0.7979 0.67325 0.0
O799 O 0.39214 0.78791 0.68265 0.0
Cd800 Cd 0.40088 0.78745 0.70738 0.0
O801 O 0.40407 0.80828 0.67634 0.0
Cd802 Cd 0.42081 0.81483 0.69728 0.0
C803 C 0.39127 0.82274 0.71844 0.0
O804 O 0.42687 0.78991 0.70504 0.0
O805 O 0.43305 0.80687 0.72042 0.0
O806 O 0.43969 0.81908 0.67883 0.0
C807 C 0.43315 0.79328 0.71705 0.0
O808 O 0.38937 0.80882 0.71931 0.0
C809 C 0.44415 0.83127 0.68411 0.0
O810 O 0.40162 0.82814 0.7106 0.0
O811 O 0.43727 0.83624 0.69529 0.0
C812 C 0.19344 0.39817 0.6755 0.0
O813 O 0.20318 0.39552 0.68522 0.0
Cd814 Cd 0.20278 0.40437 0.7099 0.0
O815 O 0.18273 0.40692 0.6782 0.0
Cd816 Cd 0.17509 0.42356 0.69891 0.0
C817 C 0.16753 0.39384 0.72005 0.0
O818 O 0.19965 0.43027 0.70704 0.0
O819 O 0.1824 0.43625 0.72211 0.0
O820 O 0.17001 0.44207 0.6802 0.0
C821 C 0.19602 0.43658 0.71895 0.0
O822 O 0.18144 0.39226 0.72136 0.0
C823 C 0.15773 0.44616 0.68558 0.0
O824 O 0.16215 0.40403 0.71198 0.0
O825 O 0.15319 0.43929 0.69694 0.0
C826 C 0.59561 0.19466 0.67416 0.0
O827 O 0.59793 0.20473 0.68364 0.0
Cd828 Cd 0.58876 0.20477 0.70821 0.0
O829 O 0.58695 0.18391 0.677 0.0
Cd830 Cd 0.56992 0.1766 0.6975 0.0
C831 C 0.59932 0.16963 0.71915 0.0
O832 O 0.56299 0.20124 0.70535 0.0
O833 O 0.55707 0.18401 0.72051 0.0
O834 O 0.55169 0.17189 0.67847 0.0
C835 C 0.55669 0.19762 0.71728 0.0
O836 O 0.60071 0.18361 0.72007 0.0
C837 C 0.54726 0.15967 0.68372 0.0
O838 O 0.58931 0.16387 0.71112 0.0
O839 O 0.55388 0.1549 0.69515 0.0
C840 C 0.81588 0.39938 0.32258 0.0
O841 O 0.81147 0.41243 0.32462 0.0
Cd842 Cd 0.81796 0.41942 0.29875 0.0
O843 O 0.8219 0.39671 0.31031 0.0
Cd844 Cd 0.82249 0.42155 0.29577 0.0
C845 C 0.83662 0.3997 0.27724 0.0
O846 O 0.79587 0.42698 0.28848 0.0
O847 O 0.81187 0.42793 0.27102 0.0
O848 O 0.82342 0.43999 0.31628 0.0
C849 C 0.79851 0.42936 0.27496 0.0
O850 O 0.82375 0.39744 0.28219 0.0
C851 C 0.83429 0.44699 0.31088 0.0
O852 O 0.84283 0.41158 0.28109 0.0
O853 O 0.83972 0.442 0.29896 0.0
C854 C 0.59742 0.79894 0.31926 0.0
O855 O 0.60135 0.78963 0.30953 0.0
Cd856 Cd 0.59351 0.78949 0.28447 0.0
O857 O 0.58781 0.80881 0.31636 0.0
Cd858 Cd 0.57145 0.81494 0.29496 0.0
C859 C 0.60108 0.82566 0.27516 0.0
O860 O 0.56732 0.78992 0.28613 0.0
O861 O 0.56064 0.80709 0.27116 0.0
O862 O 0.55147 0.8181 0.31257 0.0
C863 C 0.56114 0.79342 0.2741 0.0
O864 O 0.60394 0.81198 0.2735 0.0
C865 C 0.54677 0.83014 0.30714 0.0
O866 O 0.59025 0.82984 0.28308 0.0
O867 O 0.55395 0.83547 0.29633 0.0
C868 C 0.198 0.59853 0.31939 0.0
O869 O 0.20778 0.601 0.30965 0.0
Cd870 Cd 0.20752 0.59115 0.28525 0.0
O871 O 0.18747 0.58954 0.31688 0.0
Cd872 Cd 0.18002 0.57225 0.29685 0.0
C873 C 0.17234 0.60101 0.27437 0.0
O874 O 0.20451 0.56525 0.28855 0.0
O875 O 0.18684 0.55866 0.27418 0.0
O876 O 0.17579 0.55382 0.31581 0.0
C877 C 0.20053 0.55847 0.27699 0.0
O878 O 0.18625 0.60264 0.2731 0.0
C879 C 0.16306 0.55008 0.3113 0.0
O880 O 0.16697 0.59115 0.28284 0.0
O881 O 0.1579 0.55715 0.30032 0.0
C882 C 0.39711 0.19382 0.32026 0.0
O883 O 0.39428 0.20389 0.31092 0.0
Cd884 Cd 0.40259 0.20413 0.28603 0.0
O885 O 0.40579 0.18321 0.31704 0.0
Cd886 Cd 0.42204 0.17627 0.29587 0.0
C887 C 0.39196 0.16913 0.27515 0.0
O888 O 0.42858 0.20104 0.28801 0.0
O889 O 0.43413 0.18395 0.27255 0.0
O890 O 0.44112 0.17103 0.3139 0.0
C891 C 0.43458 0.19753 0.2759 0.0
O892 O 0.39027 0.18308 0.27423 0.0
C893 C 0.44487 0.15868 0.30842 0.0
O894 O 0.40233 0.16361 0.28286 0.0
O895 O 0.43757 0.15418 0.29731 0.0
C896 C 0.67379 0.79598 0.59655 0.0
O897 O 0.68349 0.78622 0.59921 0.0
Cd898 Cd 0.70809 0.78652 0.5902 0.0
O899 O 0.6765 0.80665 0.58775 0.0
Cd900 Cd 0.69722 0.81421 0.57112 0.0
C901 C 0.71858 0.82166 0.60071 0.0
O902 O 0.70522 0.78958 0.56426 0.0
O903 O 0.72035 0.80685 0.55845 0.0
O904 O 0.67869 0.81944 0.55244 0.0
C905 C 0.71712 0.79325 0.55797 0.0
O906 O 0.71984 0.80773 0.60226 0.0
C907 C 0.68408 0.83178 0.54854 0.0
O908 O 0.71044 0.82709 0.59061 0.0
O909 O 0.69534 0.83628 0.55559 0.0
C910 C 0.67122 0.19194 0.39717 0.0
O911 O 0.68059 0.20199 0.39438 0.0
Cd912 Cd 0.7052 0.20289 0.40331 0.0
O913 O 0.67425 0.1815 0.40614 0.0
Cd914 Cd 0.69512 0.17485 0.42295 0.0
C915 C 0.71676 0.16785 0.3934 0.0
O916 O 0.70231 0.19984 0.42918 0.0
O917 O 0.71777 0.1832 0.4359 0.0
O918 O 0.67668 0.1696 0.44164 0.0
C919 C 0.71422 0.19674 0.43575 0.0
O920 O 0.71747 0.18179 0.39163 0.0
C921 C 0.68231 0.15745 0.44581 0.0
O922 O 0.70891 0.16224 0.40363 0.0
O923 O 0.69364 0.153 0.43885 0.0
C924 C 0.79601 0.67691 0.39578 0.0
O925 O 0.78656 0.68688 0.39301 0.0
Cd926 Cd 0.78698 0.71132 0.40247 0.0
O927 O 0.80649 0.67925 0.40491 0.0
Cd928 Cd 0.81415 0.69963 0.42191 0.0
C929 C 0.8224 0.72128 0.39267 0.0
O930 O 0.78956 0.70784 0.4284 0.0
O931 O 0.80687 0.7226 0.435 0.0
O932 O 0.81887 0.6809 0.44053 0.0
C933 C 0.79323 0.71953 0.43509 0.0
O934 O 0.80854 0.72284 0.39088 0.0
C935 C 0.83132 0.68599 0.44449 0.0
O936 O 0.82747 0.71294 0.40279 0.0
O937 O 0.8361 0.69717 0.43748 0.0
C938 C 0.31673 0.80306 0.39794 0.0
O939 O 0.30737 0.79303 0.39509 0.0
Cd940 Cd 0.28258 0.79297 0.40335 0.0
O941 O 0.31351 0.8137 0.40661 0.0
Cd942 Cd 0.29218 0.82046 0.42288 0.0
C943 C 0.27198 0.82812 0.39272 0.0
O944 O 0.28484 0.79556 0.42941 0.0
O945 O 0.26865 0.81221 0.43418 0.0
O946 O 0.31047 0.82549 0.44175 0.0
C947 C 0.27259 0.79882 0.43522 0.0
O948 O 0.27101 0.81418 0.39102 0.0
C949 C 0.30461 0.83736 0.44634 0.0
O950 O 0.27959 0.83359 0.4032 0.0
O951 O 0.29315 0.84179 0.43957 0.0
C952 C 0.19033 0.31431 0.38995 0.0
O953 O 0.19839 0.30357 0.3859 0.0
Cd954 Cd 0.20112 0.28042 0.39843 0.0
O955 O 0.1825 0.31344 0.40162 0.0
Cd956 Cd 0.17733 0.29414 0.42038 0.0
C957 C 0.16526 0.27006 0.39446 0.0
O958 O 0.20249 0.28569 0.42415 0.0
O959 O 0.18563 0.27161 0.43319 0.0
O960 O 0.17519 0.3128 0.43961 0.0
C961 C 0.19926 0.27444 0.43182 0.0
O962 O 0.17874 0.26682 0.39214 0.0
C963 C 0.16282 0.30828 0.44445 0.0
O964 O 0.16168 0.28053 0.40314 0.0
O965 O 0.15688 0.29757 0.43761 0.0
C966 C 0.31684 0.19448 0.59649 0.0
O967 O 0.30712 0.20424 0.59906 0.0
Cd968 Cd 0.28281 0.20471 0.58935 0.0
O969 O 0.31436 0.18399 0.58739 0.0
Cd970 Cd 0.29404 0.17686 0.57007 0.0
C971 C 0.27153 0.16949 0.59886 0.0
O972 O 0.2867 0.20169 0.56361 0.0
O973 O 0.27152 0.18493 0.55663 0.0
O974 O 0.31295 0.17154 0.5518 0.0
C975 C 0.27495 0.1985 0.55681 0.0
O976 O 0.27042 0.18342 0.60057 0.0
C977 C 0.30744 0.15934 0.54763 0.0
O978 O 0.27992 0.16406 0.58898 0.0
O979 O 0.29597 0.15494 0.55437 0.0
C980 C 0.79628 0.31929 0.59675 0.0
O981 O 0.78648 0.30963 0.59945 0.0
Cd982 Cd 0.78592 0.28527 0.58973 0.0
O983 O 0.80656 0.31672 0.58747 0.0
Cd984 Cd 0.81297 0.29632 0.56996 0.0
C985 C 0.82116 0.27383 0.59857 0.0
O986 O 0.78803 0.28869 0.56379 0.0
O987 O 0.80497 0.2736 0.55698 0.0
O988 O 0.81735 0.31484 0.55105 0.0
C989 C 0.7914 0.27694 0.55703 0.0
O990 O 0.80729 0.27275 0.60059 0.0
C991 C 0.82962 0.30959 0.54678 0.0
O992 O 0.82636 0.28221 0.58854 0.0
O993 O 0.83456 0.29851 0.55384 0.0
C994 C 0.19392 0.67247 0.59655 0.0
O995 O 0.20384 0.68197 0.59936 0.0
Cd996 Cd 0.2041 0.70664 0.59049 0.0
O997 O 0.18346 0.67541 0.58758 0.0
Cd998 Cd 0.17663 0.69625 0.57081 0.0
C999 C 0.16888 0.7174 0.60044 0.0
O1000 O 0.2014 0.70422 0.56449 0.0
O1001 O 0.18428 0.7195 0.5586 0.0
O1002 O 0.17197 0.67785 0.55187 0.0
C1003 C 0.19787 0.71624 0.55831 0.0
O1004 O 0.18278 0.71844 0.60223 0.0
C1005 C 0.15978 0.68328 0.54762 0.0
O1006 O 0.16349 0.70946 0.59015 0.0
O1007 O 0.15504 0.69448 0.55462 0.0
C1008 C 0.39613 0.31835 0.19439 0.0
O1009 O 0.3931 0.30876 0.20416 0.0
Cd1010 Cd 0.40123 0.28386 0.2038 0.0
O1011 O 0.40491 0.31534 0.18379 0.0
Cd1012 Cd 0.42112 0.29414 0.17663 0.0
C1013 C 0.39104 0.27387 0.16839 0.0
O1014 O 0.42728 0.28594 0.2014 0.0
O1015 O 0.43302 0.27066 0.18421 0.0
O1016 O 0.44018 0.31238 0.17203 0.0
C1017 C 0.43338 0.2739 0.19782 0.0
O1018 O 0.38915 0.27267 0.18229 0.0
C1019 C 0.44451 0.30687 0.15989 0.0
O1020 O 0.40157 0.28159 0.16319 0.0
O1021 O 0.43749 0.29569 0.15514 0.0
C1022 C 0.67297 0.39464 0.19562 0.0
O1023 O 0.68253 0.39113 0.20526 0.0
Cd1024 Cd 0.70756 0.39888 0.20531 0.0
O1025 O 0.67607 0.40377 0.18533 0.0
Cd1026 Cd 0.69746 0.4199 0.17868 0.0
C1027 C 0.71748 0.38984 0.16958 0.0
O1028 O 0.70592 0.42502 0.20364 0.0
O1029 O 0.72106 0.43128 0.18653 0.0
O1030 O 0.67972 0.43956 0.17436 0.0
C1031 C 0.71805 0.43101 0.2002 0.0
O1032 O 0.71866 0.38744 0.1834 0.0
C1033 C 0.68517 0.44368 0.16212 0.0
O1034 O 0.70983 0.4006 0.16475 0.0
O1035 O 0.69614 0.4364 0.15729 0.0
C1036 C 0.59617 0.67128 0.19262 0.0
O1037 O 0.59939 0.68089 0.20231 0.0
Cd1038 Cd 0.59109 0.70571 0.20212 0.0
O1039 O 0.58704 0.6742 0.18229 0.0
Cd1040 Cd 0.5704 0.69515 0.17542 0.0
C1041 C 0.60022 0.71522 0.16619 0.0
O1042 O 0.56505 0.70343 0.20027 0.0
O1043 O 0.55876 0.71873 0.18332 0.0
O1044 O 0.55131 0.67675 0.17151 0.0
C1045 C 0.55893 0.71552 0.19694 0.0
O1046 O 0.60249 0.71648 0.18003 0.0
C1047 C 0.54683 0.68199 0.1593 0.0
O1048 O 0.58951 0.70757 0.16129 0.0
O1049 O 0.55368 0.69316 0.15428 0.0
C1050 C 0.31657 0.59521 0.19025 0.0
O1051 O 0.30757 0.59767 0.20072 0.0
Cd1052 Cd 0.28317 0.58838 0.2024 0.0
O1053 O 0.31334 0.58625 0.17985 0.0
Cd1054 Cd 0.29255 0.56883 0.17441 0.0
C1055 C 0.27037 0.59792 0.1677 0.0
O1056 O 0.28632 0.56251 0.19968 0.0
O1057 O 0.27012 0.55611 0.18363 0.0
O1058 O 0.31103 0.55026 0.16901 0.0
C1059 C 0.27428 0.55598 0.19699 0.0
O1060 O 0.27005 0.59977 0.18166 0.0
C1061 C 0.30505 0.54566 0.15719 0.0
O1062 O 0.27819 0.58776 0.16193 0.0
O1063 O 0.2935 0.55238 0.15292 0.0
C1064 C 0.39456 0.67112 0.79712 0.0
O1065 O 0.39153 0.68073 0.78737 0.0
Cd1066 Cd 0.4002 0.70548 0.78745 0.0
O1067 O 0.40357 0.674 0.80756 0.0
Cd1068 Cd 0.42014 0.69496 0.81447 0.0
C1069 C 0.39056 0.71593 0.82283 0.0
O1070 O 0.42626 0.70299 0.78963 0.0
O1071 O 0.43235 0.71821 0.80676 0.0
O1072 O 0.43914 0.67665 0.81921 0.0
C1073 C 0.43255 0.71495 0.79315 0.0
O1074 O 0.38855 0.71716 0.80895 0.0
C1075 C 0.44325 0.68209 0.83147 0.0
O1076 O 0.40094 0.70795 0.82793 0.0
O1077 O 0.43619 0.69327 0.83614 0.0
C1078 C 0.31667 0.39538 0.79894 0.0
O1079 O 0.30686 0.39239 0.78939 0.0
Cd1080 Cd 0.28228 0.40143 0.78984 0.0
O1081 O 0.31404 0.40444 0.80941 0.0
Cd1082 Cd 0.29327 0.42105 0.8168 0.0
C1083 C 0.27218 0.39156 0.82523 0.0
O1084 O 0.28516 0.42749 0.79207 0.0
O1085 O 0.27011 0.43358 0.80932 0.0
O1086 O 0.31191 0.43973 0.82152 0.0
C1087 C 0.27334 0.43394 0.79571 0.0
O1088 O 0.27075 0.3897 0.81135 0.0
C1089 C 0.30657 0.44397 0.83377 0.0
O1090 O 0.28032 0.40183 0.83032 0.0
O1091 O 0.29528 0.43711 0.83847 0.0
C1092 C 0.59547 0.31917 0.79835 0.0
O1093 O 0.59851 0.30967 0.7885 0.0
Cd1094 Cd 0.59018 0.28482 0.7887 0.0
O1095 O 0.58658 0.31611 0.80884 0.0
Cd1096 Cd 0.57016 0.295 0.81571 0.0
C1097 C 0.6001 0.27467 0.82414 0.0
O1098 O 0.5641 0.28695 0.79087 0.0
O1099 O 0.55828 0.27157 0.80796 0.0
O1100 O 0.55111 0.3133 0.82002 0.0
C1101 C 0.55795 0.27491 0.79436 0.0
O1102 O 0.60211 0.27354 0.81026 0.0
C1103 C 0.54677 0.30799 0.83225 0.0
O1104 O 0.58952 0.28236 0.82929 0.0
O1105 O 0.55373 0.29684 0.83716 0.0
C1106 C 0.67273 0.59576 0.79958 0.0
O1107 O 0.68206 0.5988 0.78957 0.0
Cd1108 Cd 0.707 0.59081 0.78942 0.0
O1109 O 0.67603 0.58705 0.81015 0.0
Cd1110 Cd 0.69734 0.57094 0.81709 0.0
C1111 C 0.71757 0.60124 0.82465 0.0
O1112 O 0.70512 0.56478 0.79223 0.0
O1113 O 0.7207 0.55906 0.80914 0.0
O1114 O 0.67907 0.55201 0.82206 0.0
C1115 C 0.71727 0.55879 0.79557 0.0
O1116 O 0.71845 0.60304 0.81071 0.0
C1117 C 0.68471 0.54772 0.83416 0.0
O1118 O 0.71004 0.59069 0.83011 0.0
O1119 O 0.69604 0.55463 0.83868 0.0
C1120 C 0.17515 0.39937 0.32122 0.0
O1121 O 0.18006 0.41224 0.32327 0.0
Cd1122 Cd 0.17375 0.41953 0.2975 0.0
O1123 O 0.16895 0.39696 0.30897 0.0
Cd1124 Cd 0.16908 0.42176 0.29436 0.0
C1125 C 0.15573 0.39976 0.27541 0.0
O1126 O 0.19595 0.42728 0.28782 0.0
O1127 O 0.18039 0.42827 0.26996 0.0
O1128 O 0.16736 0.43998 0.31495 0.0
C1129 C 0.19365 0.42972 0.27426 0.0
O1130 O 0.16845 0.39757 0.28075 0.0
C1131 C 0.1567 0.44704 0.3092 0.0
O1132 O 0.14935 0.41162 0.27903 0.0
O1133 O 0.15175 0.44219 0.29702 0.0
C1134 C 0.59527 0.19241 0.31958 0.0
O1135 O 0.59801 0.2025 0.31024 0.0
Cd1136 Cd 0.5894 0.20296 0.28547 0.0
O1137 O 0.58656 0.1818 0.31642 0.0
Cd1138 Cd 0.57007 0.17489 0.29537 0.0
C1139 C 0.59981 0.16798 0.2741 0.0
O1140 O 0.56351 0.19977 0.28796 0.0
O1141 O 0.55751 0.18294 0.27239 0.0
O1142 O 0.55154 0.16952 0.31393 0.0
C1143 C 0.55727 0.19649 0.27591 0.0
O1144 O 0.60143 0.18194 0.27336 0.0
C1145 C 0.54732 0.15741 0.30825 0.0
O1146 O 0.58959 0.16229 0.2819 0.0
O1147 O 0.55414 0.15307 0.29678 0.0
C1148 C 0.79415 0.59954 0.31892 0.0
O1149 O 0.78457 0.60203 0.30899 0.0
Cd1150 Cd 0.78515 0.59192 0.28472 0.0
O1151 O 0.8046 0.59038 0.31669 0.0
Cd1152 Cd 0.81211 0.57276 0.29695 0.0
C1153 C 0.82066 0.60111 0.27433 0.0
O1154 O 0.7877 0.56601 0.28828 0.0
O1155 O 0.80551 0.5593 0.27412 0.0
O1156 O 0.81554 0.55434 0.31607 0.0
C1157 C 0.79178 0.55919 0.27678 0.0
O1158 O 0.80679 0.60291 0.27281 0.0
C1159 C 0.8283 0.55035 0.31189 0.0
O1160 O 0.82575 0.59128 0.28302 0.0
O1161 O 0.83386 0.55727 0.30102 0.0
C1162 C 0.39207 0.79924 0.3205 0.0
O1163 O 0.38826 0.78935 0.31131 0.0
Cd1164 Cd 0.39612 0.78799 0.28631 0.0
O1165 O 0.40151 0.8091 0.31703 0.0
Cd1166 Cd 0.4178 0.81426 0.29536 0.0
C1167 C 0.38818 0.82341 0.27464 0.0
O1168 O 0.42229 0.78874 0.28825 0.0
O1169 O 0.42945 0.80495 0.27247 0.0
O1170 O 0.43754 0.81842 0.31299 0.0
C1171 C 0.42884 0.79148 0.27622 0.0
O1172 O 0.38538 0.80963 0.27409 0.0
C1173 C 0.44222 0.83024 0.30709 0.0
O1174 O 0.39905 0.82825 0.28212 0.0
O1175 O 0.4351 0.83505 0.296 0.0
C1176 C 0.19372 0.59648 0.67429 0.0
O1177 O 0.20357 0.59924 0.68387 0.0
Cd1178 Cd 0.20346 0.59046 0.70859 0.0
O1179 O 0.18309 0.58771 0.67719 0.0
Cd1180 Cd 0.1758 0.57127 0.69814 0.0
C1181 C 0.16848 0.60103 0.71932 0.0
O1182 O 0.20048 0.56447 0.70598 0.0
O1183 O 0.18334 0.5587 0.72129 0.0
O1184 O 0.17056 0.55243 0.67982 0.0
C1185 C 0.1969 0.5582 0.71793 0.0
O1186 O 0.1824 0.60266 0.72045 0.0
C1187 C 0.15821 0.5486 0.68523 0.0
O1188 O 0.16304 0.59081 0.71134 0.0
O1189 O 0.1537 0.55578 0.69641 0.0
C1190 C 0.39423 0.19467 0.67333 0.0
O1191 O 0.39117 0.20408 0.68327 0.0
Cd1192 Cd 0.40122 0.20469 0.70752 0.0
O1193 O 0.40393 0.1847 0.67559 0.0
Cd1194 Cd 0.42139 0.17831 0.69593 0.0
C1195 C 0.3931 0.16933 0.7186 0.0
O1196 O 0.42719 0.20329 0.70372 0.0
O1197 O 0.43425 0.18635 0.71872 0.0
O1198 O 0.44038 0.17378 0.6775 0.0
C1199 C 0.43405 0.19995 0.71541 0.0
O1200 O 0.39091 0.18313 0.72026 0.0
C1201 C 0.44445 0.16143 0.68277 0.0
O1202 O 0.40297 0.16462 0.70978 0.0
O1203 O 0.43734 0.15661 0.69385 0.0
C1204 C 0.79792 0.39504 0.67519 0.0
O1205 O 0.78817 0.39213 0.68483 0.0
Cd1206 Cd 0.78778 0.40129 0.7094 0.0
O1207 O 0.80825 0.40422 0.67794 0.0
Cd1208 Cd 0.81491 0.42118 0.69874 0.0
C1209 C 0.82307 0.39197 0.72037 0.0
O1210 O 0.79003 0.42728 0.70658 0.0
O1211 O 0.80703 0.43362 0.72182 0.0
O1212 O 0.81929 0.44025 0.68041 0.0
C1213 C 0.79345 0.43372 0.71849 0.0
O1214 O 0.80919 0.39003 0.72144 0.0
C1215 C 0.83151 0.44454 0.68574 0.0
O1216 O 0.82833 0.40219 0.71225 0.0
O1217 O 0.83642 0.43747 0.69683 0.0
C1218 C 0.59774 0.79675 0.67408 0.0
O1219 O 0.60144 0.78782 0.68425 0.0
Cd1220 Cd 0.59251 0.78833 0.70894 0.0
O1221 O 0.58798 0.80663 0.67636 0.0
Cd1222 Cd 0.57121 0.81364 0.69707 0.0
C1223 C 0.60021 0.82445 0.71782 0.0
O1224 O 0.56635 0.78891 0.70625 0.0
O1225 O 0.55934 0.80638 0.72066 0.0
O1226 O 0.55179 0.81711 0.67885 0.0
C1227 C 0.5598 0.79265 0.718 0.0
O1228 O 0.60284 0.8108 0.72001 0.0
C1229 C 0.54746 0.82947 0.68386 0.0
O1230 O 0.5898 0.82849 0.7093 0.0
O1231 O 0.55454 0.83474 0.69476 0.0
C1232 C 0.31977 0.19214 0.39613 0.0
O1233 O 0.31033 0.20203 0.39304 0.0
Cd1234 Cd 0.28555 0.20254 0.40144 0.0
O1235 O 0.31667 0.1817 0.40509 0.0
Cd1236 Cd 0.29549 0.17492 0.42148 0.0
C1237 C 0.27464 0.16728 0.39156 0.0
O1238 O 0.28808 0.19989 0.42741 0.0
O1239 O 0.27244 0.18329 0.43378 0.0
O1240 O 0.31368 0.17006 0.44053 0.0
C1241 C 0.27604 0.19682 0.43374 0.0
O1242 O 0.27381 0.1812 0.38965 0.0
C1243 C 0.30811 0.15791 0.44477 0.0
O1244 O 0.28231 0.16186 0.40203 0.0
O1245 O 0.2969 0.15329 0.43772 0.0
C1246 C 0.31784 0.79849 0.59715 0.0
O1247 O 0.30834 0.78864 0.60015 0.0
Cd1248 Cd 0.28347 0.78856 0.59193 0.0
O1249 O 0.31475 0.8091 0.5884 0.0
Cd1250 Cd 0.29341 0.81619 0.57237 0.0
C1251 C 0.27273 0.82355 0.60248 0.0
O1252 O 0.28559 0.7914 0.56588 0.0
O1253 O 0.27014 0.80844 0.56021 0.0
O1254 O 0.31112 0.82167 0.55302 0.0
C1255 C 0.27354 0.79487 0.55976 0.0
O1256 O 0.2717 0.80963 0.60423 0.0
C1257 C 0.30549 0.834 0.54941 0.0
O1258 O 0.28049 0.82897 0.59209 0.0
O1259 O 0.2945 0.83837 0.55694 0.0
C1260 C 0.19466 0.32086 0.59904 0.0
O1261 O 0.20439 0.31128 0.60221 0.0
Cd1262 Cd 0.20488 0.28657 0.59334 0.0
O1263 O 0.1845 0.318 0.58972 0.0
Cd1264 Cd 0.1781 0.2971 0.57285 0.0
C1265 C 0.16937 0.27576 0.60214 0.0
O1266 O 0.20304 0.28895 0.56725 0.0
O1267 O 0.18582 0.27389 0.56089 0.0
O1268 O 0.17453 0.3151 0.5533 0.0
C1269 C 0.19943 0.27706 0.56083 0.0
O1270 O 0.18322 0.27468 0.60435 0.0
C1271 C 0.16224 0.30999 0.54893 0.0
O1272 O 0.16432 0.2838 0.59175 0.0
O1273 O 0.1569 0.29925 0.55622 0.0
C1274 C 0.6727 0.19479 0.59709 0.0
O1275 O 0.68219 0.20478 0.5997 0.0
Cd1276 Cd 0.70643 0.20585 0.58972 0.0
O1277 O 0.67542 0.18447 0.58788 0.0
Cd1278 Cd 0.69587 0.17802 0.57051 0.0
C1279 C 0.71883 0.17109 0.59911 0.0
O1280 O 0.7027 0.20307 0.56384 0.0
O1281 O 0.71806 0.18643 0.55691 0.0
O1282 O 0.67708 0.17213 0.55229 0.0
C1283 C 0.71442 0.19994 0.55694 0.0
O1284 O 0.71966 0.18503 0.60086 0.0
C1285 C 0.68282 0.15998 0.54827 0.0
O1286 O 0.71044 0.16553 0.58929 0.0
O1287 O 0.6944 0.1559 0.55506 0.0
C1288 C 0.79891 0.67351 0.59606 0.0
O1289 O 0.78919 0.68318 0.59899 0.0
Cd1290 Cd 0.78945 0.70792 0.59036 0.0
O1291 O 0.80944 0.67635 0.58714 0.0
Cd1292 Cd 0.81656 0.69727 0.57054 0.0
C1293 C 0.82484 0.71813 0.60024 0.0
O1294 O 0.79181 0.70534 0.56432 0.0
O1295 O 0.80892 0.72055 0.55826 0.0
O1296 O 0.82114 0.67878 0.55167 0.0
C1297 C 0.79533 0.71729 0.55801 0.0
O1298 O 0.81096 0.71938 0.60215 0.0
C1299 C 0.83329 0.68421 0.54731 0.0
O1300 O 0.83 0.71018 0.58985 0.0
O1301 O 0.83804 0.69547 0.55421 0.0
C1302 C 0.67305 0.80072 0.39703 0.0
O1303 O 0.68247 0.79067 0.39445 0.0
Cd1304 Cd 0.70703 0.79019 0.40353 0.0
O1305 O 0.67602 0.81132 0.40584 0.0
Cd1306 Cd 0.69687 0.81811 0.42267 0.0
C1307 C 0.71858 0.82514 0.39327 0.0
O1308 O 0.7043 0.79327 0.42943 0.0
O1309 O 0.71983 0.81018 0.43525 0.0
O1310 O 0.67836 0.82298 0.44137 0.0
C1311 C 0.71629 0.79665 0.43571 0.0
O1312 O 0.71935 0.81117 0.39174 0.0
C1313 C 0.68382 0.83514 0.4457 0.0
O1314 O 0.71058 0.83087 0.40333 0.0
O1315 O 0.69509 0.83983 0.43878 0.0
C1316 C 0.19546 0.67605 0.39589 0.0
O1317 O 0.20499 0.68593 0.39306 0.0
Cd1318 Cd 0.20458 0.71049 0.40214 0.0
O1319 O 0.18493 0.67855 0.40492 0.0
Cd1320 Cd 0.17727 0.6991 0.42176 0.0
C1321 C 0.16906 0.72027 0.39222 0.0
O1322 O 0.20186 0.70725 0.42804 0.0
O1323 O 0.18473 0.72225 0.43454 0.0
O1324 O 0.1728 0.68039 0.44044 0.0
C1325 C 0.19835 0.71907 0.43458 0.0
O1326 O 0.18294 0.7217 0.39043 0.0
C1327 C 0.16044 0.68548 0.44461 0.0
O1328 O 0.1639 0.71216 0.40248 0.0
O1329 O 0.15554 0.69667 0.4377 0.0
C1330 C 0.79891 0.31466 0.39117 0.0
O1331 O 0.78938 0.30496 0.38781 0.0
Cd1332 Cd 0.78695 0.2815 0.39949 0.0
O1333 O 0.80791 0.31256 0.4018 0.0
Cd1334 Cd 0.81316 0.29287 0.42031 0.0
C1335 C 0.82228 0.26942 0.39268 0.0
O1336 O 0.78781 0.28583 0.42548 0.0
O1337 O 0.80429 0.27089 0.43374 0.0
O1338 O 0.8173 0.31221 0.43849 0.0
C1339 C 0.79077 0.27434 0.43288 0.0
O1340 O 0.80848 0.26824 0.39025 0.0
C1341 C 0.82928 0.30688 0.44344 0.0
O1342 O 0.82715 0.27815 0.40258 0.0
O1343 O 0.83411 0.29529 0.43718 0.0
H1344 H 0.10829 0.20615 0.35157 0.0
H1345 H 0.13948 0.28118 0.38368 0.0
H1346 H 0.10562 0.24655 0.32641 0.0
H1347 H 0.16508 0.24108 0.38626 0.0
H1348 H 0.12161 0.26835 0.36778 0.0
H1349 H 0.12413 0.2188 0.36963 0.0
C1350 C 0.11092 0.21771 0.34995 0.0
C1351 C 0.10576 0.22534 0.3375 0.0
C1352 C 0.13108 0.26239 0.37199 0.0
C1353 C 0.12342 0.2398 0.35812 0.0
C1354 C 0.14119 0.26962 0.38109 0.0
C1355 C 0.15374 0.26214 0.38619 0.0
C1356 C 0.13339 0.24751 0.36837 0.0
C1357 C 0.15556 0.24722 0.38244 0.0
C1358 C 0.11995 0.22486 0.36019 0.0
C1359 C 0.10951 0.24028 0.33583 0.0
N1360 N 0.14543 0.24033 0.37379 0.0
N1361 N 0.11806 0.24709 0.34611 0.0
H1362 H 0.72926 0.17495 0.36683 0.0
H1363 H 0.76757 0.09659 0.35483 0.0
H1364 H 0.72338 0.13853 0.39708 0.0
H1365 H 0.75966 0.12744 0.31931 0.0
H1366 H 0.75396 0.11287 0.37159 0.0
H1367 H 0.74305 0.15866 0.35034 0.0
C1368 C 0.73089 0.16353 0.37003 0.0
C1369 C 0.72513 0.15808 0.38335 0.0
C1370 C 0.7552 0.11603 0.36012 0.0
C1371 C 0.74099 0.13943 0.36456 0.0
C1372 C 0.76301 0.10679 0.35057 0.0
C1373 C 0.76473 0.11065 0.33564 0.0
C1374 C 0.74927 0.12931 0.35476 0.0
C1375 C 0.75854 0.12399 0.33071 0.0
C1376 C 0.73872 0.15424 0.36058 0.0
C1377 C 0.72756 0.14317 0.38689 0.0
N1378 N 0.75115 0.13287 0.34026 0.0
N1379 N 0.73537 0.13437 0.37757 0.0
H1380 H 0.85198 0.726 0.39667 0.0
H1381 H 0.86426 0.76333 0.3179 0.0
H1382 H 0.81631 0.73461 0.36622 0.0
H1383 H 0.89484 0.76874 0.35409 0.0
H1384 H 0.84742 0.7503 0.3345 0.0
H1385 H 0.86881 0.73919 0.38016 0.0
C1386 C 0.84769 0.73064 0.38651 0.0
C1387 C 0.83271 0.72922 0.38283 0.0
C1388 C 0.8578 0.75438 0.3388 0.0
C1389 C 0.85191 0.74422 0.36389 0.0
C1390 C 0.86744 0.76177 0.32933 0.0
C1391 C 0.88098 0.76714 0.33462 0.0
C1392 C 0.86181 0.75217 0.35361 0.0
C1393 C 0.8845 0.76484 0.34956 0.0
C1394 C 0.85729 0.73821 0.37714 0.0
C1395 C 0.82776 0.73549 0.36954 0.0
N1396 N 0.875 0.75744 0.35852 0.0
N1397 N 0.83735 0.74266 0.3605 0.0
H1398 H 0.23068 0.86724 0.31598 0.0
H1399 H 0.26607 0.8576 0.39609 0.0
H1400 H 0.22301 0.89809 0.35156 0.0
H1401 H 0.26012 0.82125 0.36577 0.0
H1402 H 0.25293 0.87373 0.37884 0.0
H1403 H 0.24418 0.85132 0.33311 0.0
C1404 C 0.23186 0.87069 0.32738 0.0
C1405 C 0.22568 0.88401 0.33236 0.0
C1406 C 0.2545 0.86222 0.376 0.0
C1407 C 0.24118 0.86588 0.35196 0.0
C1408 C 0.26204 0.85302 0.38579 0.0
C1409 C 0.26416 0.83805 0.38238 0.0
C1410 C 0.24923 0.85645 0.3626 0.0
C1411 C 0.25866 0.8327 0.36889 0.0
C1412 C 0.23951 0.86157 0.33715 0.0
C1413 C 0.22753 0.88788 0.34727 0.0
N1414 N 0.2515 0.84192 0.35946 0.0
N1415 N 0.23517 0.87889 0.35653 0.0
H1416 H 0.17557 0.72997 0.62709 0.0
H1417 H 0.09669 0.76728 0.6382 0.0
H1418 H 0.13949 0.72344 0.5966 0.0
H1419 H 0.12726 0.76003 0.67408 0.0
H1420 H 0.11326 0.75373 0.62172 0.0
H1421 H 0.15895 0.74354 0.64344 0.0
C1422 C 0.16416 0.73141 0.62382 0.0
C1423 C 0.1589 0.72555 0.61046 0.0
C1424 C 0.1163 0.7551 0.63321 0.0
C1425 C 0.13988 0.74114 0.62909 0.0
C1426 C 0.10689 0.76288 0.64261 0.0
C1427 C 0.11059 0.76477 0.65755 0.0
C1428 C 0.12959 0.74936 0.63874 0.0
C1429 C 0.12394 0.75878 0.66266 0.0
C1430 C 0.15467 0.7391 0.63319 0.0
C1431 C 0.14399 0.72771 0.60682 0.0
N1432 N 0.13299 0.7514 0.65325 0.0
N1433 N 0.13501 0.73541 0.61605 0.0
H1434 H 0.26617 0.13992 0.59515 0.0
H1435 H 0.22655 0.13009 0.67308 0.0
H1436 H 0.25741 0.17636 0.62467 0.0
H1437 H 0.22218 0.09829 0.63779 0.0
H1438 H 0.23985 0.14647 0.65629 0.0
H1439 H 0.25205 0.12368 0.61151 0.0
C1440 C 0.2613 0.14451 0.60507 0.0
C1441 C 0.26298 0.15952 0.60856 0.0
C1442 C 0.23593 0.13593 0.65221 0.0
C1443 C 0.2469 0.141 0.6273 0.0
C1444 C 0.22837 0.12655 0.6618 0.0
C1445 C 0.22325 0.11279 0.65683 0.0
C1446 C 0.23856 0.13145 0.6376 0.0
C1447 C 0.22589 0.10882 0.64207 0.0
C1448 C 0.25319 0.13525 0.61435 0.0
C1449 C 0.25636 0.16487 0.62153 0.0
N1450 N 0.23346 0.11807 0.63299 0.0
N1451 N 0.24869 0.1556 0.63047 0.0
H1452 H 0.85069 0.26865 0.59441 0.0
H1453 H 0.86174 0.22822 0.67187 0.0
H1454 H 0.81477 0.25951 0.62441 0.0
H1455 H 0.89325 0.22483 0.63625 0.0
H1456 H 0.84507 0.24162 0.65543 0.0
H1457 H 0.86722 0.25453 0.61046 0.0
C1458 C 0.84628 0.2637 0.60437 0.0
C1459 C 0.83132 0.26528 0.60808 0.0
C1460 C 0.85561 0.23789 0.6512 0.0
C1461 C 0.85019 0.2492 0.62649 0.0
C1462 C 0.86516 0.23029 0.66059 0.0
C1463 C 0.87892 0.22541 0.65543 0.0
C1464 C 0.85993 0.24082 0.6366 0.0
C1465 C 0.88273 0.22835 0.64068 0.0
C1466 C 0.85571 0.25559 0.61348 0.0
C1467 C 0.82621 0.25855 0.62109 0.0
N1468 N 0.87332 0.23596 0.6318 0.0
N1469 N 0.83564 0.25088 0.62987 0.0
H1470 H 0.7626 0.86074 0.67587 0.0
H1471 H 0.72377 0.8513 0.59739 0.0
H1472 H 0.76765 0.89243 0.64057 0.0
H1473 H 0.73194 0.81474 0.62693 0.0
H1474 H 0.7375 0.86748 0.61412 0.0
H1475 H 0.74901 0.8446 0.65904 0.0
C1476 C 0.76085 0.86431 0.66458 0.0
C1477 C 0.76628 0.87796 0.65961 0.0
C1478 C 0.7363 0.85591 0.6169 0.0
C1479 C 0.75066 0.85958 0.64035 0.0
C1480 C 0.72842 0.84668 0.6074 0.0
C1481 C 0.72672 0.83163 0.61076 0.0
C1482 C 0.74235 0.8501 0.62995 0.0
C1483 C 0.73302 0.82625 0.62387 0.0
C1484 C 0.75314 0.85507 0.65497 0.0
C1485 C 0.76372 0.88199 0.64485 0.0
N1486 N 0.7405 0.83549 0.63302 0.0
N1487 N 0.75601 0.87287 0.63575 0.0
H1488 H 0.35377 0.09725 0.22526 0.0
H1489 H 0.36519 0.176 0.26293 0.0
H1490 H 0.3179 0.1277 0.23293 0.0
H1491 H 0.3956 0.13977 0.26893 0.0
H1492 H 0.34864 0.15946 0.24944 0.0
H1493 H 0.37028 0.1138 0.23879 0.0
C1494 C 0.34937 0.10742 0.22976 0.0
C1495 C 0.33443 0.11109 0.22798 0.0
C1496 C 0.35893 0.15514 0.25375 0.0
C1497 C 0.35327 0.13007 0.24338 0.0
C1498 C 0.3684 0.16458 0.2614 0.0
C1499 C 0.38179 0.15925 0.26708 0.0
C1500 C 0.36297 0.14033 0.25158 0.0
C1501 C 0.38536 0.14433 0.2648 0.0
C1502 C 0.35878 0.11682 0.23752 0.0
C1503 C 0.32933 0.1244 0.23409 0.0
N1504 N 0.37603 0.13541 0.25715 0.0
N1505 N 0.33875 0.13345 0.24146 0.0
H1506 H 0.89721 0.35541 0.21839 0.0
H1507 H 0.82761 0.37172 0.2702 0.0
H1508 H 0.86777 0.32135 0.23416 0.0
H1509 H 0.86269 0.40306 0.26249 0.0
H1510 H 0.84066 0.35374 0.25482 0.0
H1511 H 0.88309 0.37367 0.23229 0.0
C1512 C 0.88775 0.35177 0.22473 0.0
C1513 C 0.88372 0.3368 0.22516 0.0
C1514 C 0.84548 0.36456 0.25649 0.0
C1515 C 0.8675 0.35768 0.24108 0.0
C1516 C 0.83803 0.37484 0.26522 0.0
C1517 C 0.84411 0.38888 0.26765 0.0
C1518 C 0.85905 0.36841 0.25006 0.0
C1519 C 0.85764 0.39233 0.26095 0.0
C1520 C 0.87972 0.36221 0.2327 0.0
C1521 C 0.87134 0.33275 0.23356 0.0
N1522 N 0.86465 0.38217 0.25245 0.0
N1523 N 0.86366 0.34314 0.2412 0.0
H1524 H 0.63068 0.90472 0.23105 0.0
H1525 H 0.62657 0.82132 0.25941 0.0
H1526 H 0.66515 0.87275 0.22323 0.0
H1527 H 0.59636 0.85548 0.27339 0.0
H1528 H 0.64079 0.83986 0.24593 0.0
H1529 H 0.61783 0.88669 0.24643 0.0
C1530 C 0.63556 0.89391 0.2326 0.0
C1531 C 0.64896 0.8902 0.22581 0.0
C1532 C 0.63109 0.8433 0.25201 0.0
C1533 C 0.6343 0.86948 0.24335 0.0
C1534 C 0.62294 0.83272 0.25969 0.0
C1535 C 0.61019 0.83683 0.26749 0.0
C1536 C 0.6264 0.85809 0.25203 0.0
C1537 C 0.60609 0.85178 0.26751 0.0
C1538 C 0.62824 0.88363 0.24141 0.0
C1539 C 0.65482 0.87606 0.22825 0.0
N1540 N 0.61411 0.86185 0.25982 0.0
N1541 N 0.6474 0.86617 0.23676 0.0
H1542 H 0.09909 0.63829 0.22538 0.0
H1543 H 0.1792 0.62678 0.26015 0.0
H1544 H 0.13088 0.67354 0.22986 0.0
H1545 H 0.14275 0.5974 0.26918 0.0
H1546 H 0.16252 0.64277 0.24622 0.0
H1547 H 0.11594 0.62182 0.23866 0.0
C1548 C 0.10963 0.64255 0.2291 0.0
C1549 C 0.11357 0.65733 0.22655 0.0
C1550 C 0.15818 0.63283 0.25127 0.0
C1551 C 0.13287 0.63854 0.24164 0.0
C1552 C 0.1677 0.62367 0.25918 0.0
C1553 C 0.16235 0.61075 0.26588 0.0
C1554 C 0.14325 0.62897 0.24987 0.0
C1555 C 0.14732 0.6073 0.26427 0.0
C1556 C 0.11919 0.63316 0.23672 0.0
C1557 C 0.12735 0.66226 0.23165 0.0
N1558 N 0.1383 0.61633 0.25637 0.0
N1559 N 0.13652 0.65287 0.23891 0.0
H1560 H 0.31576 0.86153 0.76173 0.0
H1561 H 0.3949 0.85225 0.72436 0.0
H1562 H 0.35101 0.89298 0.76816 0.0
H1563 H 0.36479 0.8159 0.73118 0.0
H1564 H 0.37807 0.86836 0.73809 0.0
H1565 H 0.33277 0.84562 0.74815 0.0
C1566 C 0.32708 0.8651 0.76028 0.0
C1567 C 0.33197 0.87861 0.7661 0.0
C1568 C 0.3752 0.85685 0.73659 0.0
C1569 C 0.35147 0.86048 0.75049 0.0
C1570 C 0.38475 0.84766 0.72871 0.0
C1571 C 0.38126 0.8327 0.72663 0.0
C1572 C 0.36197 0.85107 0.74224 0.0
C1573 C 0.36797 0.82735 0.73256 0.0
C1574 C 0.33679 0.85599 0.75257 0.0
C1575 C 0.34678 0.88264 0.76391 0.0
N1576 N 0.35879 0.83654 0.74003 0.0
N1577 N 0.356 0.87364 0.7562 0.0
H1578 H 0.13794 0.39719 0.72525 0.0
H1579 H 0.12806 0.31798 0.7624 0.0
H1580 H 0.17433 0.36738 0.73296 0.0
H1581 H 0.0967 0.35338 0.76842 0.0
H1582 H 0.14424 0.33499 0.74909 0.0
H1583 H 0.12167 0.38024 0.73859 0.0
C1584 C 0.1425 0.38707 0.72972 0.0
C1585 C 0.15753 0.3837 0.72801 0.0
C1586 C 0.13383 0.33903 0.75336 0.0
C1587 C 0.13896 0.36427 0.74318 0.0
C1588 C 0.12456 0.32932 0.76091 0.0
C1589 C 0.11101 0.33427 0.76655 0.0
C1590 C 0.12943 0.35374 0.75125 0.0
C1591 C 0.10708 0.34911 0.76432 0.0
C1592 C 0.13322 0.37745 0.73737 0.0
C1593 C 0.16284 0.37045 0.73407 0.0
N1594 N 0.11622 0.35831 0.75677 0.0
N1595 N 0.15355 0.36118 0.74132 0.0
H1596 H 0.62554 0.17736 0.73186 0.0
H1597 H 0.63974 0.09925 0.76999 0.0
H1598 H 0.59644 0.14012 0.72553 0.0
H1599 H 0.67421 0.13126 0.76223 0.0
H1600 H 0.6225 0.11505 0.75638 0.0
H1601 H 0.64235 0.1615 0.74573 0.0
C1602 C 0.62267 0.16585 0.73341 0.0
C1603 C 0.60957 0.16005 0.7275 0.0
C1604 C 0.63385 0.11857 0.75766 0.0
C1605 C 0.62874 0.14187 0.74345 0.0
C1606 C 0.64367 0.10961 0.76548 0.0
C1607 C 0.65845 0.11394 0.76723 0.0
C1608 C 0.63879 0.13203 0.75176 0.0
C1609 C 0.66295 0.12745 0.7611 0.0
C1610 C 0.6323 0.1568 0.74128 0.0
C1611 C 0.60645 0.14503 0.72983 0.0
N1612 N 0.65314 0.13604 0.75369 0.0
N1613 N 0.61594 0.13646 0.73769 0.0
H1614 H 0.89702 0.63934 0.76736 0.0
H1615 H 0.81825 0.62929 0.72965 0.0
H1616 H 0.86725 0.67574 0.7594 0.0
H1617 H 0.85366 0.5979 0.7239 0.0
H1618 H 0.83522 0.64564 0.74278 0.0
H1619 H 0.88036 0.6231 0.75362 0.0
C1620 C 0.88698 0.64392 0.76274 0.0
C1621 C 0.88351 0.65892 0.76453 0.0
C1622 C 0.83927 0.63519 0.7386 0.0
C1623 C 0.86442 0.64039 0.74891 0.0
C1624 C 0.82959 0.62583 0.73115 0.0
C1625 C 0.83455 0.6122 0.72568 0.0
C1626 C 0.85397 0.63082 0.74077 0.0
C1627 C 0.84938 0.60832 0.7279 0.0
C1628 C 0.87752 0.63465 0.75485 0.0
C1629 C 0.87038 0.66426 0.75826 0.0
N1630 N 0.85856 0.61756 0.73536 0.0
N1631 N 0.86127 0.65497 0.75079 0.0
H1632 H 0.2244 0.35205 0.09676 0.0
H1633 H 0.26218 0.36143 0.17571 0.0
H1634 H 0.23234 0.31536 0.1262 0.0
H1635 H 0.2679 0.393 0.1404 0.0
H1636 H 0.24888 0.34524 0.15868 0.0
H1637 H 0.23799 0.36816 0.11367 0.0
C1638 C 0.22897 0.34738 0.10679 0.0
C1639 C 0.22724 0.33233 0.11007 0.0
C1640 C 0.2531 0.35569 0.15467 0.0
C1641 C 0.2427 0.35071 0.12947 0.0
C1642 C 0.26064 0.36496 0.16438 0.0
C1643 C 0.26617 0.37859 0.15947 0.0
C1644 C 0.25088 0.36017 0.13998 0.0
C1645 C 0.26388 0.38257 0.14465 0.0
C1646 C 0.23677 0.35657 0.11639 0.0
C1647 C 0.23345 0.32688 0.1232 0.0
N1648 N 0.25633 0.37343 0.13544 0.0
N1649 N 0.24084 0.33608 0.13246 0.0
H1650 H 0.22939 0.6748 0.86393 0.0
H1651 H 0.2668 0.59577 0.8537 0.0
H1652 H 0.22265 0.63885 0.89457 0.0
H1653 H 0.25987 0.62607 0.8175 0.0
H1654 H 0.25315 0.61251 0.86993 0.0
H1655 H 0.2431 0.65807 0.84777 0.0
C1656 C 0.2308 0.66339 0.86727 0.0
C1657 C 0.22485 0.6582 0.88061 0.0
C1658 C 0.25461 0.61546 0.85843 0.0
C1659 C 0.24061 0.63907 0.86223 0.0
C1660 C 0.26245 0.60595 0.84917 0.0
C1661 C 0.26446 0.60952 0.83421 0.0
C1662 C 0.24892 0.62871 0.85273 0.0
C1663 C 0.25853 0.62285 0.82894 0.0
C1664 C 0.23858 0.65385 0.85802 0.0
C1665 C 0.22699 0.6433 0.88435 0.0
N1666 N 0.25109 0.63199 0.83821 0.0
N1667 N 0.23477 0.63427 0.87524 0.0
H1668 H 0.36481 0.26242 0.81589 0.0
H1669 H 0.3535 0.22933 0.89674 0.0
H1670 H 0.39495 0.271 0.85185 0.0
H1671 H 0.31803 0.23363 0.86516 0.0
H1672 H 0.36982 0.24246 0.87969 0.0
H1673 H 0.34845 0.24959 0.83309 0.0
C1674 C 0.36801 0.26159 0.82739 0.0
C1675 C 0.38127 0.26781 0.83244 0.0
C1676 C 0.35845 0.24056 0.87653 0.0
C1677 C 0.36263 0.25308 0.85214 0.0
C1678 C 0.34914 0.23303 0.88623 0.0
C1679 C 0.33437 0.23039 0.88237 0.0
C1680 C 0.353 0.2453 0.86281 0.0
C1681 C 0.32932 0.23548 0.86862 0.0
C1682 C 0.35863 0.25431 0.83721 0.0
C1683 C 0.38481 0.26642 0.84748 0.0
N1684 N 0.33864 0.24262 0.8593 0.0
N1685 N 0.37557 0.25914 0.8568 0.0
H1686 H 0.7299 0.3653 0.81744 0.0
H1687 H 0.76769 0.35503 0.89632 0.0
H1688 H 0.72341 0.39598 0.85339 0.0
H1689 H 0.76047 0.31885 0.86607 0.0
H1690 H 0.75403 0.37131 0.87961 0.0
H1691 H 0.7437 0.34916 0.83411 0.0
C1692 C 0.73139 0.36866 0.82883 0.0
C1693 C 0.72548 0.382 0.83404 0.0
C1694 C 0.75544 0.3598 0.87667 0.0
C1695 C 0.74133 0.36363 0.85311 0.0
C1696 C 0.76328 0.35052 0.88615 0.0
C1697 C 0.7652 0.33555 0.8826 0.0
C1698 C 0.74967 0.35411 0.86344 0.0
C1699 C 0.7592 0.33029 0.86929 0.0
C1700 C 0.73922 0.35941 0.83834 0.0
C1701 C 0.72772 0.38576 0.84893 0.0
N1702 N 0.75176 0.33958 0.86016 0.0
N1703 N 0.73554 0.37665 0.85793 0.0
H1704 H 0.59548 0.72172 0.85692 0.0
H1705 H 0.67618 0.75437 0.86979 0.0
H1706 H 0.62766 0.72685 0.82211 0.0
H1707 H 0.63978 0.76445 0.8989 0.0
H1708 H 0.65934 0.74073 0.85383 0.0
H1709 H 0.61242 0.73415 0.87401 0.0
C1710 C 0.60611 0.72542 0.85288 0.0
C1711 C 0.61015 0.7233 0.83806 0.0
C1712 C 0.65505 0.74591 0.86372 0.0
C1713 C 0.62955 0.73733 0.85753 0.0
C1714 C 0.66466 0.75365 0.8729 0.0
C1715 C 0.65937 0.76064 0.88569 0.0
C1716 C 0.64005 0.74499 0.86742 0.0
C1717 C 0.64431 0.75931 0.8891 0.0
C1718 C 0.61572 0.73254 0.86262 0.0
C1719 C 0.62405 0.72833 0.83342 0.0
N1720 N 0.63515 0.75161 0.88002 0.0
N1721 N 0.63326 0.73505 0.84314 0.0
H1722 H 0.76816 0.63804 0.0946 0.0
H1723 H 0.73147 0.62707 0.17392 0.0
H1724 H 0.76178 0.6738 0.12553 0.0
H1725 H 0.72474 0.59648 0.13792 0.0
H1726 H 0.74486 0.64341 0.15714 0.0
H1727 H 0.75446 0.62167 0.11119 0.0
C1728 C 0.7639 0.64245 0.10488 0.0
C1729 C 0.76611 0.65732 0.10868 0.0
C1730 C 0.74042 0.63314 0.15291 0.0
C1731 C 0.75054 0.63863 0.12771 0.0
C1732 C 0.73282 0.62377 0.16249 0.0
C1733 C 0.72697 0.61038 0.15731 0.0
C1734 C 0.74236 0.62901 0.13809 0.0
C1735 C 0.72902 0.60672 0.14238 0.0
C1736 C 0.75604 0.63311 0.1143 0.0
C1737 C 0.7603 0.66243 0.12212 0.0
N1738 N 0.73662 0.61595 0.1333 0.0
N1739 N 0.75285 0.65309 0.13118 0.0
H1740 H 0.35551 0.7702 0.09793 0.0
H1741 H 0.3678 0.73397 0.17742 0.0
H1742 H 0.32075 0.7649 0.13014 0.0
H1743 H 0.39708 0.72604 0.1406 0.0
H1744 H 0.35199 0.74866 0.16128 0.0
H1745 H 0.37243 0.75721 0.11457 0.0
C1746 C 0.35145 0.76637 0.10852 0.0
C1747 C 0.33668 0.76856 0.11263 0.0
C1748 C 0.36189 0.74372 0.15675 0.0
C1749 C 0.35596 0.75383 0.13168 0.0
C1750 C 0.37095 0.73536 0.16595 0.0
C1751 C 0.38374 0.72867 0.16033 0.0
C1752 C 0.3657 0.74554 0.14184 0.0
C1753 C 0.38726 0.73089 0.14538 0.0
C1754 C 0.3611 0.75892 0.11797 0.0
C1755 C 0.33202 0.76335 0.12647 0.0
N1756 N 0.37828 0.73916 0.13664 0.0
N1757 N 0.34164 0.75626 0.13551 0.0
H1758 H 0.63906 0.22585 0.09514 0.0
H1759 H 0.62863 0.26196 0.17472 0.0
H1760 H 0.67549 0.23429 0.12472 0.0
H1761 H 0.59715 0.26784 0.13939 0.0
H1762 H 0.64511 0.24929 0.1575 0.0
H1763 H 0.62262 0.23878 0.11224 0.0
C1764 C 0.6436 0.23041 0.10523 0.0
C1765 C 0.65867 0.229 0.10851 0.0
C1766 C 0.6346 0.25339 0.15352 0.0
C1767 C 0.63992 0.24369 0.12812 0.0
C1768 C 0.62517 0.26056 0.16335 0.0
C1769 C 0.61149 0.26597 0.15848 0.0
C1770 C 0.63025 0.25142 0.13877 0.0
C1771 C 0.60761 0.2639 0.1436 0.0
C1772 C 0.63422 0.23783 0.11495 0.0
C1773 C 0.66396 0.23517 0.12172 0.0
N1774 N 0.61692 0.25671 0.13429 0.0
N1775 N 0.65457 0.24217 0.1311 0.0
H1776 H 0.86587 0.76031 0.67544 0.0
H1777 H 0.85434 0.72344 0.59627 0.0
H1778 H 0.89635 0.7666 0.6393 0.0
H1779 H 0.81861 0.73079 0.62697 0.0
H1780 H 0.87094 0.73673 0.61294 0.0
H1781 H 0.84938 0.74693 0.65878 0.0
C1782 C 0.86911 0.75886 0.66401 0.0
C1783 C 0.88251 0.7646 0.65875 0.0
C1784 C 0.85946 0.73544 0.61599 0.0
C1785 C 0.86373 0.74922 0.63968 0.0
C1786 C 0.84999 0.72782 0.60652 0.0
C1787 C 0.83505 0.72603 0.61022 0.0
C1788 C 0.854 0.74114 0.62934 0.0
C1789 C 0.83002 0.73197 0.62364 0.0
C1790 C 0.85967 0.75127 0.6545 0.0
C1791 C 0.88611 0.76242 0.64381 0.0
N1792 N 0.83949 0.7392 0.63275 0.0
N1793 N 0.8768 0.75483 0.63481 0.0
H1794 H 0.22244 0.89573 0.63947 0.0
H1795 H 0.26036 0.81696 0.62928 0.0
H1796 H 0.2297 0.86564 0.67578 0.0
H1797 H 0.26664 0.8529 0.59855 0.0
H1798 H 0.24673 0.83366 0.64556 0.0
H1799 H 0.23624 0.87907 0.6233 0.0
C1800 C 0.2269 0.88561 0.64404 0.0
C1801 C 0.22493 0.88208 0.65901 0.0
C1802 C 0.25113 0.83788 0.63527 0.0
C1803 C 0.24064 0.86297 0.64055 0.0
C1804 C 0.25886 0.82835 0.62595 0.0
C1805 C 0.26465 0.83355 0.61254 0.0
C1806 C 0.24899 0.85264 0.63105 0.0
C1807 C 0.26242 0.84844 0.60881 0.0
C1808 C 0.23482 0.87615 0.63481 0.0
C1809 C 0.231 0.86884 0.66433 0.0
N1810 N 0.25469 0.85745 0.61798 0.0
N1811 N 0.23853 0.85972 0.65509 0.0
H1812 H 0.128 0.23065 0.67543 0.0
H1813 H 0.13999 0.27013 0.59756 0.0
H1814 H 0.09784 0.2254 0.63885 0.0
H1815 H 0.17533 0.26254 0.62866 0.0
H1816 H 0.12336 0.25607 0.61357 0.0
H1817 H 0.14455 0.24465 0.65936 0.0
C1818 C 0.12485 0.23244 0.66402 0.0
C1819 C 0.11151 0.22683 0.65847 0.0
C1820 C 0.13476 0.25748 0.61685 0.0
C1821 C 0.13036 0.24294 0.64008 0.0
C1822 C 0.14425 0.26555 0.60776 0.0
C1823 C 0.15909 0.26749 0.61176 0.0
C1824 C 0.14011 0.25149 0.63012 0.0
C1825 C 0.164 0.26127 0.6251 0.0
C1826 C 0.13433 0.24039 0.65485 0.0
C1827 C 0.10804 0.22946 0.64358 0.0
N1828 N 0.15452 0.2536 0.63383 0.0
N1829 N 0.11737 0.2374 0.63491 0.0
H1830 H 0.76881 0.09807 0.63542 0.0
H1831 H 0.73341 0.17813 0.62465 0.0
H1832 H 0.76506 0.12994 0.67072 0.0
H1833 H 0.72459 0.14164 0.5952 0.0
H1834 H 0.74786 0.16158 0.64034 0.0
H1835 H 0.75542 0.11498 0.61914 0.0
C1836 C 0.76523 0.10864 0.63973 0.0
C1837 C 0.76801 0.11257 0.65448 0.0
C1838 C 0.74275 0.15721 0.63045 0.0
C1839 C 0.75276 0.13196 0.6359 0.0
C1840 C 0.73454 0.16665 0.62146 0.0
C1841 C 0.72773 0.16124 0.60862 0.0
C1842 C 0.74433 0.14231 0.62648 0.0
C1843 C 0.72957 0.14626 0.60505 0.0
C1844 C 0.75754 0.11825 0.63045 0.0
C1845 C 0.76308 0.1264 0.65947 0.0
N1846 N 0.73774 0.13732 0.61391 0.0
N1847 N 0.75573 0.13561 0.65019 0.0
H1848 H 0.86469 0.22952 0.31763 0.0
H1849 H 0.85188 0.26463 0.39721 0.0
H1850 H 0.8956 0.22316 0.35338 0.0
H1851 H 0.81647 0.25537 0.36664 0.0
H1852 H 0.86901 0.25172 0.38068 0.0
H1853 H 0.84779 0.2416 0.3348 0.0
C1854 C 0.86795 0.2307 0.32909 0.0
C1855 C 0.88158 0.22532 0.33409 0.0
C1856 C 0.85746 0.25247 0.37768 0.0
C1857 C 0.86229 0.23919 0.35377 0.0
C1858 C 0.8477 0.25985 0.38707 0.0
C1859 C 0.83272 0.26109 0.38329 0.0
C1860 C 0.85224 0.24652 0.36434 0.0
C1861 C 0.8279 0.25466 0.37003 0.0
C1862 C 0.85826 0.23753 0.33889 0.0
C1863 C 0.88518 0.2271 0.34908 0.0
N1864 N 0.83765 0.24776 0.36098 0.0
N1865 N 0.87561 0.23397 0.3584 0.0
H1866 H 0.76911 0.89616 0.35364 0.0
H1867 H 0.73179 0.8175 0.36723 0.0
H1868 H 0.76294 0.86377 0.31916 0.0
H1869 H 0.7248 0.85466 0.39632 0.0
H1870 H 0.74586 0.83345 0.35067 0.0
H1871 H 0.75547 0.88016 0.37067 0.0
C1872 C 0.76494 0.88567 0.34966 0.0
C1873 C 0.76714 0.88131 0.33494 0.0
C1874 C 0.74122 0.83812 0.36067 0.0
C1875 C 0.75163 0.86298 0.35436 0.0
C1876 C 0.73323 0.82901 0.37016 0.0
C1877 C 0.72708 0.83476 0.38318 0.0
C1878 C 0.74325 0.85305 0.36428 0.0
C1879 C 0.72929 0.84978 0.38636 0.0
C1880 C 0.75711 0.87659 0.35937 0.0
C1881 C 0.76145 0.86762 0.33038 0.0
N1882 N 0.73725 0.85841 0.377 0.0
N1883 N 0.75401 0.85892 0.34007 0.0
H1884 H 0.17536 0.73279 0.36546 0.0
H1885 H 0.09594 0.7689 0.35463 0.0
H1886 H 0.13957 0.72567 0.39615 0.0
H1887 H 0.12631 0.76174 0.31857 0.0
H1888 H 0.11271 0.75547 0.37104 0.0
H1889 H 0.15838 0.74588 0.34909 0.0
C1890 C 0.16393 0.734 0.36877 0.0
C1891 C 0.15887 0.72812 0.38219 0.0
C1892 C 0.11566 0.75682 0.35952 0.0
C1893 C 0.13943 0.74318 0.36355 0.0
C1894 C 0.10614 0.76453 0.35017 0.0
C1895 C 0.10974 0.76644 0.3352 0.0
C1896 C 0.12895 0.75118 0.35392 0.0
C1897 C 0.12307 0.76049 0.33001 0.0
C1898 C 0.15425 0.74142 0.35939 0.0
C1899 C 0.14393 0.72997 0.38588 0.0
N1900 N 0.13224 0.7532 0.33937 0.0
N1901 N 0.13474 0.73742 0.37663 0.0
H1902 H 0.22425 0.09574 0.35298 0.0
H1903 H 0.26291 0.17394 0.36453 0.0
H1904 H 0.23338 0.12581 0.31708 0.0
H1905 H 0.268 0.13799 0.39548 0.0
H1906 H 0.24955 0.15739 0.34794 0.0
H1907 H 0.23782 0.11209 0.36972 0.0
C1908 C 0.22908 0.10578 0.34862 0.0
C1909 C 0.2277 0.10941 0.3336 0.0
C1910 C 0.25362 0.15313 0.35835 0.0
C1911 C 0.2431 0.12816 0.35269 0.0
C1912 C 0.2612 0.16257 0.36786 0.0
C1913 C 0.26659 0.15733 0.38142 0.0
C1914 C 0.25123 0.13839 0.3625 0.0
C1915 C 0.26409 0.14247 0.38511 0.0
C1916 C 0.23686 0.11506 0.35816 0.0
C1917 C 0.23423 0.12254 0.32855 0.0
N1918 N 0.25651 0.13353 0.37573 0.0
N1919 N 0.24157 0.13148 0.3381 0.0
H1920 H 0.66476 0.87105 0.77091 0.0
H1921 H 0.59583 0.85436 0.71827 0.0
H1922 H 0.63025 0.90261 0.76167 0.0
H1923 H 0.62485 0.82037 0.73496 0.0
H1924 H 0.61003 0.87278 0.73187 0.0
H1925 H 0.65188 0.85291 0.75556 0.0
C1926 C 0.6545 0.87418 0.76561 0.0
C1927 C 0.64851 0.88833 0.76761 0.0
C1928 C 0.6133 0.86129 0.73254 0.0
C1929 C 0.63379 0.86767 0.75005 0.0
C1930 C 0.60522 0.85076 0.72475 0.0
C1931 C 0.6091 0.83576 0.72554 0.0
C1932 C 0.6254 0.85684 0.74114 0.0
C1933 C 0.6214 0.83178 0.73409 0.0
C1934 C 0.64715 0.86381 0.75688 0.0
C1935 C 0.63521 0.8918 0.76048 0.0
N1936 N 0.62911 0.84226 0.74158 0.0
N1937 N 0.6283 0.88154 0.75202 0.0
H1938 H 0.17523 0.62761 0.73207 0.0
H1939 H 0.09589 0.63888 0.76838 0.0
H1940 H 0.13906 0.59734 0.7251 0.0
H1941 H 0.12648 0.6748 0.76151 0.0
H1942 H 0.1127 0.6224 0.75514 0.0
H1943 H 0.15853 0.64404 0.74551 0.0
C1944 C 0.16379 0.6244 0.73339 0.0
C1945 C 0.15852 0.61109 0.72743 0.0
C1946 C 0.1157 0.6339 0.75652 0.0
C1947 C 0.13943 0.62978 0.74287 0.0
C1948 C 0.10615 0.6433 0.76412 0.0
C1949 C 0.10977 0.65825 0.76602 0.0
C1950 C 0.12905 0.63945 0.75097 0.0
C1951 C 0.12321 0.66337 0.76023 0.0
C1952 C 0.15427 0.63381 0.74101 0.0
C1953 C 0.14358 0.60753 0.72944 0.0
N1954 N 0.1324 0.65397 0.75302 0.0
N1955 N 0.13456 0.61679 0.73706 0.0
H1956 H 0.32818 0.12608 0.77436 0.0
H1957 H 0.39654 0.13935 0.72 0.0
H1958 H 0.36057 0.09281 0.76359 0.0
H1959 H 0.36946 0.17485 0.73677 0.0
H1960 H 0.38217 0.12186 0.73454 0.0
H1961 H 0.34197 0.14391 0.75935 0.0
C1962 C 0.33818 0.12253 0.76884 0.0
C1963 C 0.34325 0.10796 0.77023 0.0
C1964 C 0.37936 0.13348 0.73505 0.0
C1965 C 0.359 0.12821 0.75305 0.0
C1966 C 0.38755 0.14348 0.72671 0.0
C1967 C 0.38424 0.15861 0.72718 0.0
C1968 C 0.3677 0.13859 0.74389 0.0
C1969 C 0.37244 0.16329 0.7361 0.0
C1970 C 0.34604 0.13271 0.76031 0.0
C1971 C 0.35627 0.10394 0.76286 0.0
N1972 N 0.36459 0.15331 0.74411 0.0
N1973 N 0.36366 0.114 0.75457 0.0
H1974 H 0.86301 0.31704 0.76367 0.0
H1975 H 0.85257 0.3959 0.72594 0.0
H1976 H 0.89418 0.35264 0.76955 0.0
H1977 H 0.81655 0.36562 0.73358 0.0
H1978 H 0.86895 0.37933 0.73968 0.0
H1979 H 0.84672 0.3339 0.75035 0.0
C1980 C 0.86644 0.3284 0.76216 0.0
C1981 C 0.87998 0.33344 0.76774 0.0
C1982 C 0.85745 0.37636 0.73836 0.0
C1983 C 0.86142 0.35276 0.75241 0.0
C1984 C 0.84811 0.38577 0.73048 0.0
C1985 C 0.83316 0.38214 0.72862 0.0
C1986 C 0.85183 0.36315 0.74423 0.0
C1987 C 0.82797 0.36889 0.73479 0.0
C1988 C 0.85711 0.33803 0.7546 0.0
C1989 C 0.88382 0.3483 0.76549 0.0
N1990 N 0.83731 0.35984 0.74225 0.0
N1991 N 0.87462 0.35743 0.75791 0.0
H1992 H 0.67593 0.13032 0.23082 0.0
H1993 H 0.59642 0.13862 0.2675 0.0
H1994 H 0.64063 0.09929 0.22278 0.0
H1995 H 0.62634 0.1753 0.2617 0.0
H1996 H 0.61342 0.12293 0.25349 0.0
H1997 H 0.65875 0.14591 0.24457 0.0
C1998 C 0.66457 0.12677 0.23195 0.0
C1999 C 0.6597 0.11348 0.22563 0.0
C2000 C 0.61622 0.13442 0.25528 0.0
C2001 C 0.64003 0.13124 0.24144 0.0
C2002 C 0.60657 0.14336 0.26332 0.0
C2003 C 0.60997 0.15829 0.26576 0.0
C2004 C 0.62944 0.14041 0.24984 0.0
C2005 C 0.62324 0.16387 0.26004 0.0
C2006 C 0.65476 0.13571 0.23975 0.0
C2007 C 0.64484 0.10948 0.22742 0.0
N2008 N 0.63253 0.1549 0.25241 0.0
N2009 N 0.63553 0.11829 0.23524 0.0
H2010 H 0.86165 0.67403 0.22861 0.0
H2011 H 0.85028 0.59702 0.26967 0.0
H2012 H 0.89304 0.6383 0.22532 0.0
H2013 H 0.81439 0.62676 0.25966 0.0
H2014 H 0.86695 0.61292 0.25552 0.0
H2015 H 0.84493 0.6577 0.24207 0.0
C2016 C 0.86503 0.66275 0.23072 0.0
C2017 C 0.87878 0.65752 0.22585 0.0
C2018 C 0.85541 0.61592 0.25641 0.0
C2019 C 0.85972 0.63882 0.24134 0.0
C2020 C 0.84591 0.6069 0.26453 0.0
C2021 C 0.83092 0.61057 0.26586 0.0
C2022 C 0.84992 0.6288 0.24975 0.0
C2023 C 0.82585 0.62347 0.2589 0.0
C2024 C 0.85545 0.65343 0.23835 0.0
C2025 C 0.88253 0.64277 0.22883 0.0
N2026 N 0.83535 0.63216 0.25122 0.0
N2027 N 0.87309 0.63395 0.23648 0.0
H2028 H 0.31491 0.86643 0.23121 0.0
H2029 H 0.39356 0.85254 0.26834 0.0
H2030 H 0.352 0.8957 0.22485 0.0
H2031 H 0.36108 0.81814 0.26238 0.0
H2032 H 0.37762 0.86955 0.25468 0.0
H2033 H 0.33089 0.84959 0.24496 0.0
C2034 C 0.32641 0.86933 0.23272 0.0
C2035 C 0.33213 0.8825 0.22685 0.0
C2036 C 0.37402 0.85827 0.25636 0.0
C2037 C 0.35044 0.8633 0.24265 0.0
C2038 C 0.38308 0.84857 0.26419 0.0
C2039 C 0.37866 0.83388 0.26649 0.0
C2040 C 0.36038 0.85331 0.25094 0.0
C2041 C 0.36497 0.82934 0.26082 0.0
C2042 C 0.33553 0.85969 0.24052 0.0
C2043 C 0.34713 0.88565 0.22912 0.0
N2044 N 0.35629 0.83904 0.25336 0.0
N2045 N 0.35576 0.87615 0.23691 0.0
H2046 H 0.1649 0.37168 0.26899 0.0
H2047 H 0.09557 0.35421 0.21715 0.0
H2048 H 0.13009 0.40293 0.2599 0.0
H2049 H 0.1248 0.32046 0.23397 0.0
H2050 H 0.10986 0.37281 0.23039 0.0
H2051 H 0.15206 0.35337 0.2538 0.0
C2052 C 0.1546 0.37471 0.26373 0.0
C2053 C 0.1485 0.38881 0.26576 0.0
C2054 C 0.11316 0.36134 0.23116 0.0
C2055 C 0.1338 0.36797 0.24839 0.0
C2056 C 0.10502 0.3507 0.22359 0.0
C2057 C 0.10893 0.33572 0.22452 0.0
C2058 C 0.12536 0.35701 0.23969 0.0
C2059 C 0.12132 0.33186 0.233 0.0
C2060 C 0.14726 0.36425 0.25511 0.0
C2061 C 0.13513 0.39215 0.2587 0.0
N2062 N 0.12909 0.34245 0.24028 0.0
N2063 N 0.12822 0.3818 0.25034 0.0
H2064 H 0.76778 0.6397 0.8962 0.0
H2065 H 0.72933 0.62824 0.81787 0.0
H2066 H 0.75978 0.67555 0.86575 0.0
H2067 H 0.72389 0.5976 0.85403 0.0
H2068 H 0.7427 0.64489 0.83438 0.0
H2069 H 0.75388 0.6232 0.87994 0.0
C2070 C 0.76312 0.6441 0.88609 0.0
C2071 C 0.76495 0.65903 0.88232 0.0
C2072 C 0.73853 0.63454 0.8387 0.0
C2073 C 0.74913 0.64019 0.86367 0.0
C2074 C 0.73095 0.625 0.82928 0.0
C2075 C 0.72548 0.6115 0.83458 0.0
C2076 C 0.74086 0.63046 0.85348 0.0
C2077 C 0.72786 0.60792 0.84949 0.0
C2078 C 0.75514 0.63469 0.87686 0.0
C2079 C 0.75861 0.66414 0.86912 0.0
N2080 N 0.73546 0.61731 0.8584 0.0
N2081 N 0.75105 0.65471 0.86022 0.0
H2082 H 0.75884 0.31555 0.12614 0.0
H2083 H 0.72309 0.39478 0.14025 0.0
H2084 H 0.76629 0.35276 0.09723 0.0
H2085 H 0.72942 0.36258 0.17488 0.0
H2086 H 0.73622 0.37851 0.12312 0.0
H2087 H 0.74531 0.33172 0.143 0.0
C2088 C 0.75761 0.32711 0.12332 0.0
C2089 C 0.76373 0.33282 0.11027 0.0
C2090 C 0.73474 0.37504 0.13448 0.0
C2091 C 0.74819 0.35133 0.12947 0.0
C2092 C 0.72719 0.38428 0.14424 0.0
C2093 C 0.72518 0.38005 0.15903 0.0
C2094 C 0.74012 0.36139 0.13949 0.0
C2095 C 0.73078 0.36633 0.1636 0.0
C2096 C 0.74993 0.33633 0.13297 0.0
C2097 C 0.76182 0.3479 0.10721 0.0
N2098 N 0.73794 0.35746 0.15385 0.0
N2099 N 0.75415 0.35663 0.11671 0.0
H2100 H 0.67646 0.7538 0.12441 0.0
H2101 H 0.59567 0.72121 0.13682 0.0
H2102 H 0.64014 0.7643 0.09533 0.0
H2103 H 0.62777 0.72608 0.17175 0.0
H2104 H 0.61267 0.73375 0.11987 0.0
H2105 H 0.65954 0.74007 0.14021 0.0
C2106 C 0.66494 0.75316 0.12128 0.0
C2107 C 0.65969 0.76029 0.10855 0.0
C2108 C 0.61594 0.73205 0.13125 0.0
C2109 C 0.64029 0.74453 0.12662 0.0
C2110 C 0.60629 0.72487 0.14091 0.0
C2111 C 0.6103 0.72265 0.15573 0.0
C2112 C 0.62975 0.73681 0.13642 0.0
C2113 C 0.62418 0.72764 0.16045 0.0
C2114 C 0.65528 0.74536 0.13036 0.0
C2115 C 0.64463 0.75905 0.10509 0.0
N2116 N 0.63343 0.73443 0.15081 0.0
N2117 N 0.63543 0.75129 0.11408 0.0
H2118 H 0.25765 0.62429 0.17513 0.0
H2119 H 0.22088 0.63763 0.09613 0.0
H2120 H 0.26343 0.59433 0.13844 0.0
H2121 H 0.22819 0.67256 0.12779 0.0
H2122 H 0.23362 0.62043 0.11262 0.0
H2123 H 0.2439 0.64095 0.15897 0.0
C2124 C 0.25598 0.62118 0.16369 0.0
C2125 C 0.26174 0.60792 0.15811 0.0
C2126 C 0.23243 0.63187 0.11593 0.0
C2127 C 0.24597 0.62692 0.13961 0.0
C2128 C 0.22512 0.64168 0.10656 0.0
C2129 C 0.22351 0.65657 0.11057 0.0
C2130 C 0.238 0.63695 0.12948 0.0
C2131 C 0.22925 0.6612 0.12421 0.0
C2132 C 0.24818 0.63073 0.15447 0.0
C2133 C 0.25926 0.60449 0.14319 0.0
N2134 N 0.2362 0.65141 0.1332 0.0
N2135 N 0.25152 0.61392 0.13445 0.0
H2136 H 0.31544 0.23216 0.12762 0.0
H2137 H 0.39492 0.26827 0.1389 0.0
H2138 H 0.35164 0.22485 0.09747 0.0
H2139 H 0.36407 0.26183 0.17469 0.0
H2140 H 0.37809 0.25508 0.12239 0.0
H2141 H 0.33211 0.24579 0.14391 0.0
C2142 C 0.32688 0.23344 0.12441 0.0
C2143 C 0.33217 0.22733 0.11118 0.0
C2144 C 0.37503 0.25655 0.13386 0.0
C2145 C 0.35124 0.24299 0.12971 0.0
C2146 C 0.3846 0.26413 0.14328 0.0
C2147 C 0.38091 0.26612 0.15821 0.0
C2148 C 0.36161 0.25112 0.13936 0.0
C2149 C 0.36739 0.26048 0.16328 0.0
C2150 C 0.33639 0.24118 0.13374 0.0
C2151 C 0.34711 0.22931 0.1076 0.0
N2152 N 0.3582 0.25328 0.15386 0.0
N2153 N 0.35612 0.23703 0.11679 0.0
H2154 H 0.26709 0.39568 0.85477 0.0
H2155 H 0.22969 0.31692 0.86689 0.0
H2156 H 0.25926 0.36493 0.81915 0.0
H2157 H 0.22347 0.35334 0.89706 0.0
H2158 H 0.24323 0.33335 0.8503 0.0
H2159 H 0.25375 0.3792 0.87154 0.0
C2160 C 0.26261 0.38546 0.85048 0.0
C2161 C 0.26427 0.38169 0.83553 0.0
C2162 C 0.23887 0.33774 0.86054 0.0
C2163 C 0.2491 0.36279 0.85466 0.0
C2164 C 0.23119 0.32836 0.87004 0.0
C2165 C 0.22542 0.33378 0.88338 0.0
C2166 C 0.24097 0.35258 0.86448 0.0
C2167 C 0.22767 0.34872 0.88686 0.0
C2168 C 0.25495 0.3761 0.86004 0.0
C2169 C 0.25818 0.36831 0.83057 0.0
N2170 N 0.23534 0.3576 0.8775 0.0
N2171 N 0.25093 0.35931 0.84013 0.0
H2172 H 0.63836 0.22694 0.89756 0.0
H2173 H 0.62724 0.26296 0.81802 0.0
H2174 H 0.67446 0.23519 0.86754 0.0
H2175 H 0.59603 0.2689 0.85358 0.0
H2176 H 0.64383 0.25028 0.83512 0.0
H2177 H 0.62176 0.2399 0.88063 0.0
C2178 C 0.6428 0.23146 0.88741 0.0
C2179 C 0.65783 0.22999 0.88396 0.0
C2180 C 0.63336 0.25439 0.83917 0.0
C2181 C 0.63889 0.24471 0.86454 0.0
C2182 C 0.62386 0.26157 0.82941 0.0
C2183 C 0.61023 0.267 0.83438 0.0
C2184 C 0.62912 0.25243 0.85396 0.0
C2185 C 0.60646 0.26494 0.84929 0.0
C2186 C 0.63333 0.2389 0.87779 0.0
C2187 C 0.66297 0.23612 0.87067 0.0
N2188 N 0.61583 0.25774 0.85854 0.0
N2189 N 0.6535 0.24314 0.8614 0.0
H2190 H 0.31625 0.75871 0.86471 0.0
H2191 H 0.39485 0.7212 0.85232 0.0
H2192 H 0.35269 0.7646 0.8949 0.0
H2193 H 0.36392 0.72886 0.81683 0.0
H2194 H 0.3785 0.73463 0.8691 0.0
H2195 H 0.33262 0.74528 0.84798 0.0
C2196 C 0.32769 0.75716 0.86784 0.0
C2197 C 0.33312 0.7628 0.88122 0.0
C2198 C 0.37533 0.73338 0.85763 0.0
C2199 C 0.35185 0.74736 0.86216 0.0
C2200 C 0.38461 0.72567 0.84806 0.0
C2201 C 0.38075 0.72392 0.83314 0.0
C2202 C 0.362 0.73921 0.8523 0.0
C2203 C 0.36737 0.73 0.82823 0.0
C2204 C 0.33703 0.74955 0.85825 0.0
C2205 C 0.34805 0.7605 0.88466 0.0
N2206 N 0.35844 0.73731 0.83781 0.0
N2207 N 0.35689 0.75289 0.87522 0.0
H2208 H 0.04932 0.2447 0.29848 0.0
H2209 H 0.05777 0.26242 0.21252 0.0
H2210 H 0.05549 0.21175 0.26458 0.0
H2211 H 0.05148 0.2962 0.24557 0.0
H2212 H 0.05341 0.2436 0.23126 0.0
H2213 H 0.0465 0.26353 0.2792 0.0
C2214 C 0.04984 0.24139 0.28699 0.0
C2215 C 0.05286 0.22669 0.28311 0.0
C2216 C 0.05284 0.25512 0.23443 0.0
C2217 C 0.04974 0.24811 0.26107 0.0
C2218 C 0.05534 0.26588 0.22372 0.0
C2219 C 0.05518 0.28089 0.22754 0.0
C2220 C 0.05031 0.25936 0.24915 0.0
C2221 C 0.05181 0.28474 0.24218 0.0
C2222 C 0.04828 0.25214 0.276 0.0
C2223 C 0.05337 0.22299 0.26807 0.0
N2224 N 0.04969 0.27403 0.25252 0.0
N2225 N 0.05199 0.23365 0.25762 0.0
H2226 H 0.74551 0.05112 0.29862 0.0
H2227 H 0.7294 0.05952 0.21238 0.0
H2228 H 0.77899 0.05817 0.26545 0.0
H2229 H 0.69514 0.05383 0.24501 0.0
H2230 H 0.74789 0.05496 0.23139 0.0
H2231 H 0.72718 0.04804 0.27896 0.0
C2232 C 0.74904 0.05179 0.28721 0.0
C2233 C 0.76374 0.05513 0.28365 0.0
C2234 C 0.73633 0.05455 0.2344 0.0
C2235 C 0.74288 0.05169 0.26117 0.0
C2236 C 0.72576 0.05715 0.22354 0.0
C2237 C 0.71072 0.05727 0.22717 0.0
C2238 C 0.73186 0.05217 0.24907 0.0
C2239 C 0.70663 0.05396 0.24176 0.0
C2240 C 0.73858 0.05007 0.276 0.0
C2241 C 0.76774 0.05581 0.26869 0.0
N2242 N 0.71716 0.05174 0.25224 0.0
N2243 N 0.75734 0.05427 0.25802 0.0
H2244 H 0.93223 0.72695 0.21437 0.0
H2245 H 0.94161 0.74568 0.30011 0.0
H2246 H 0.93876 0.69372 0.24794 0.0
H2247 H 0.93383 0.77829 0.26619 0.0
H2248 H 0.94401 0.72676 0.28093 0.0
H2249 H 0.93616 0.74609 0.2329 0.0
C2250 C 0.93463 0.72368 0.22563 0.0
C2251 C 0.935 0.70873 0.22966 0.0
C2252 C 0.94194 0.73809 0.27769 0.0
C2253 C 0.93941 0.73061 0.251 0.0
C2254 C 0.94061 0.7489 0.28863 0.0
C2255 C 0.93734 0.76354 0.28474 0.0
C2256 C 0.93997 0.74198 0.26278 0.0
C2257 C 0.9362 0.7671 0.2697 0.0
C2258 C 0.93687 0.73462 0.23622 0.0
C2259 C 0.93827 0.70513 0.24438 0.0
N2260 N 0.93738 0.75638 0.25929 0.0
N2261 N 0.94021 0.716 0.25457 0.0
H2262 H 0.21146 0.93622 0.26263 0.0
H2263 H 0.29746 0.94466 0.2457 0.0
H2264 H 0.24417 0.94436 0.29634 0.0
H2265 H 0.26437 0.93586 0.21254 0.0
H2266 H 0.27785 0.94826 0.26394 0.0
H2267 H 0.23034 0.93979 0.24376 0.0
C2268 C 0.22259 0.93893 0.26606 0.0
C2269 C 0.2263 0.93979 0.28108 0.0
C2270 C 0.27488 0.94571 0.25263 0.0
C2271 C 0.24803 0.94376 0.25952 0.0
C2272 C 0.28607 0.94368 0.24221 0.0
C2273 C 0.28254 0.93975 0.22763 0.0
C2274 C 0.26008 0.94377 0.24843 0.0
C2275 C 0.2676 0.93871 0.2237 0.0
C2276 C 0.23338 0.94095 0.25527 0.0
C2277 C 0.24086 0.94347 0.28488 0.0
N2278 N 0.25694 0.94056 0.23407 0.0
N2279 N 0.25125 0.94513 0.27416 0.0
H2280 H 0.05536 0.72701 0.77898 0.0
H2281 H 0.0496 0.7452 0.69286 0.0
H2282 H 0.04968 0.69361 0.74543 0.0
H2283 H 0.05744 0.77776 0.72681 0.0
H2284 H 0.04566 0.72657 0.71208 0.0
H2285 H 0.05209 0.74605 0.76023 0.0
C2286 C 0.05325 0.72368 0.76768 0.0
C2287 C 0.053 0.7087 0.76372 0.0
C2288 C 0.04808 0.73783 0.71532 0.0
C2289 C 0.04939 0.73048 0.74213 0.0
C2290 C 0.0503 0.74847 0.70435 0.0
C2291 C 0.05405 0.763 0.70825 0.0
C2292 C 0.04962 0.74177 0.73025 0.0
C2293 C 0.05474 0.76665 0.7233 0.0
C2294 C 0.0514 0.73457 0.75696 0.0
C2295 C 0.05008 0.70503 0.74893 0.0
N2296 N 0.05269 0.75608 0.73373 0.0
N2297 N 0.04857 0.71586 0.73862 0.0
H2298 H 0.26646 0.06678 0.77826 0.0
H2299 H 0.24662 0.05552 0.69277 0.0
H2300 H 0.29926 0.06342 0.74384 0.0
H2301 H 0.21427 0.0633 0.72689 0.0
H2302 H 0.26599 0.05541 0.71163 0.0
H2303 H 0.24717 0.06284 0.75986 0.0
C2304 C 0.26961 0.06516 0.76683 0.0
C2305 C 0.28449 0.06553 0.76256 0.0
C2306 C 0.25463 0.05702 0.71499 0.0
C2307 C 0.26243 0.06098 0.74141 0.0
C2308 C 0.24357 0.05702 0.70424 0.0
C2309 C 0.22883 0.05955 0.70826 0.0
C2310 C 0.25091 0.05954 0.72985 0.0
C2311 C 0.2255 0.06141 0.72329 0.0
C2312 C 0.25858 0.0629 0.75632 0.0
C2313 C 0.28792 0.0633 0.7476 0.0
N2314 N 0.23646 0.06147 0.73352 0.0
N2315 N 0.27697 0.06118 0.73755 0.0
H2316 H 0.9401 0.29822 0.74637 0.0
H2317 H 0.93156 0.21294 0.72526 0.0
H2318 H 0.93112 0.26359 0.7779 0.0
H2319 H 0.9388 0.24737 0.69307 0.0
H2320 H 0.93473 0.23103 0.74497 0.0
H2321 H 0.943 0.27951 0.72707 0.0
C2322 C 0.93891 0.28668 0.74927 0.0
C2323 C 0.93519 0.28246 0.76372 0.0
C2324 C 0.93576 0.23463 0.73361 0.0
C2325 C 0.93842 0.26102 0.74171 0.0
C2326 C 0.93396 0.22429 0.72234 0.0
C2327 C 0.93475 0.22869 0.7075 0.0
C2328 C 0.93829 0.24952 0.73004 0.0
C2329 C 0.938 0.24353 0.70437 0.0
C2330 C 0.94054 0.276 0.73825 0.0
C2331 C 0.93386 0.26735 0.76687 0.0
N2332 N 0.9395 0.25345 0.71555 0.0
N2333 N 0.93534 0.25719 0.75594 0.0
H2334 H 0.69148 0.93517 0.74574 0.0
H2335 H 0.77781 0.92793 0.72989 0.0
H2336 H 0.72399 0.9284 0.77993 0.0
H2337 H 0.74549 0.93753 0.69619 0.0
H2338 H 0.75858 0.93022 0.74866 0.0
H2339 H 0.71132 0.93809 0.72774 0.0
C2340 C 0.70281 0.93441 0.74948 0.0
C2341 C 0.70609 0.93142 0.76433 0.0
C2342 C 0.75571 0.93197 0.73718 0.0
C2343 C 0.72889 0.93467 0.74376 0.0
C2344 C 0.76669 0.93068 0.72645 0.0
C2345 C 0.76321 0.93239 0.71144 0.0
C2346 C 0.74111 0.9349 0.73286 0.0
C2347 C 0.74865 0.93602 0.70763 0.0
C2348 C 0.71414 0.93609 0.7392 0.0
C2349 C 0.72097 0.93062 0.76857 0.0
N2350 N 0.7381 0.93701 0.71826 0.0
N2351 N 0.73182 0.93211 0.75831 0.0
H2352 H 0.21294 0.05556 0.26424 0.0
H2353 H 0.29905 0.04978 0.24698 0.0
H2354 H 0.24608 0.04972 0.29799 0.0
H2355 H 0.26545 0.05733 0.21403 0.0
H2356 H 0.27969 0.04561 0.26538 0.0
H2357 H 0.2318 0.05197 0.24538 0.0
C2358 C 0.22417 0.05334 0.26769 0.0
C2359 C 0.22799 0.05316 0.2827 0.0
C2360 C 0.27657 0.048 0.25408 0.0
C2361 C 0.24971 0.0492 0.26115 0.0
C2362 C 0.28761 0.05035 0.24357 0.0
C2363 C 0.28384 0.05412 0.22901 0.0
C2364 C 0.26168 0.04942 0.24997 0.0
C2365 C 0.26885 0.05464 0.22518 0.0
C2366 C 0.23495 0.0513 0.25691 0.0
C2367 C 0.24268 0.05007 0.28653 0.0
N2368 N 0.25833 0.05247 0.23562 0.0
N2369 N 0.25307 0.04841 0.27581 0.0
H2370 H 0.94167 0.29821 0.2448 0.0
H2371 H 0.93575 0.21233 0.26411 0.0
H2372 H 0.93321 0.26385 0.21284 0.0
H2373 H 0.94114 0.24623 0.29719 0.0
H2374 H 0.939 0.23088 0.24488 0.0
H2375 H 0.94554 0.27924 0.26372 0.0
C2376 C 0.94082 0.28668 0.24172 0.0
C2377 C 0.93691 0.28259 0.22727 0.0
C2378 C 0.93963 0.23428 0.25633 0.0
C2379 C 0.94129 0.26089 0.24883 0.0
C2380 C 0.93778 0.22367 0.26733 0.0
C2381 C 0.93797 0.22778 0.28227 0.0
C2382 C 0.94155 0.24916 0.26027 0.0
C2383 C 0.94081 0.24261 0.2858 0.0
C2384 C 0.943 0.27586 0.25253 0.0
C2385 C 0.93602 0.2675 0.22388 0.0
N2386 N 0.9423 0.25282 0.27486 0.0
N2387 N 0.93806 0.25722 0.23459 0.0
H2388 H 0.7785 0.93007 0.26312 0.0
H2389 H 0.69215 0.93675 0.24714 0.0
H2390 H 0.74616 0.93965 0.2968 0.0
H2391 H 0.72479 0.93013 0.21305 0.0
H2392 H 0.71195 0.93986 0.26518 0.0
H2393 H 0.75927 0.93218 0.24435 0.0
C2394 C 0.76738 0.93277 0.26656 0.0
C2395 C 0.7639 0.93453 0.28156 0.0
C2396 C 0.7148 0.93785 0.25374 0.0
C2397 C 0.74178 0.93685 0.26013 0.0
C2398 C 0.7035 0.93606 0.24343 0.0
C2399 C 0.70684 0.93305 0.22859 0.0
C2400 C 0.72957 0.93652 0.24921 0.0
C2401 C 0.72172 0.93236 0.22439 0.0
C2402 C 0.75639 0.93397 0.25583 0.0
C2403 C 0.74932 0.93811 0.28536 0.0
N2404 N 0.73254 0.93395 0.23468 0.0
N2405 N 0.73876 0.939 0.27473 0.0
H2406 H 0.0605 0.72765 0.21484 0.0
H2407 H 0.04944 0.74699 0.30022 0.0
H2408 H 0.05341 0.69465 0.24853 0.0
H2409 H 0.05815 0.77931 0.26625 0.0
H2410 H 0.04726 0.72796 0.28113 0.0
H2411 H 0.05614 0.74692 0.23314 0.0
C2412 C 0.05789 0.72446 0.22608 0.0
C2413 C 0.0575 0.70953 0.23022 0.0
C2414 C 0.04947 0.73925 0.27785 0.0
C2415 C 0.05257 0.73156 0.25129 0.0
C2416 C 0.05068 0.75012 0.28874 0.0
C2417 C 0.05417 0.76471 0.28482 0.0
C2418 C 0.05178 0.74302 0.26297 0.0
C2419 C 0.0556 0.76817 0.26978 0.0
C2420 C 0.0554 0.73547 0.23654 0.0
C2421 C 0.05394 0.70603 0.2449 0.0
N2422 N 0.05455 0.75738 0.25942 0.0
N2423 N 0.05176 0.71698 0.25496 0.0
H2424 H 0.2442 0.94229 0.69372 0.0
H2425 H 0.2619 0.93176 0.7794 0.0
H2426 H 0.21121 0.93498 0.72733 0.0
H2427 H 0.29552 0.93858 0.74632 0.0
H2428 H 0.24304 0.93661 0.76084 0.0
H2429 H 0.26291 0.94471 0.71309 0.0
C2430 C 0.24085 0.94142 0.70517 0.0
C2431 C 0.22617 0.93821 0.70892 0.0
C2432 C 0.25453 0.9372 0.75763 0.0
C2433 C 0.24748 0.94087 0.73109 0.0
C2434 C 0.26532 0.93442 0.76824 0.0
C2435 C 0.28029 0.93457 0.76434 0.0
C2436 C 0.25873 0.94002 0.74296 0.0
C2437 C 0.28409 0.93823 0.74976 0.0
C2438 C 0.25154 0.94276 0.71622 0.0
C2439 C 0.22243 0.93727 0.72393 0.0
N2440 N 0.27336 0.94064 0.73953 0.0
N2441 N 0.23304 0.93843 0.73445 0.0
H2442 H 0.05005 0.24682 0.69318 0.0
H2443 H 0.05886 0.26417 0.7792 0.0
H2444 H 0.05853 0.21375 0.72648 0.0
H2445 H 0.05108 0.29775 0.74626 0.0
H2446 H 0.05524 0.24523 0.76039 0.0
H2447 H 0.04688 0.26523 0.71272 0.0
C2448 C 0.05106 0.24339 0.70461 0.0
C2449 C 0.05475 0.22878 0.70821 0.0
C2450 C 0.05417 0.25673 0.75727 0.0
C2451 C 0.05123 0.24977 0.73059 0.0
C2452 C 0.05623 0.26756 0.76803 0.0
C2453 C 0.05546 0.28256 0.76424 0.0
C2454 C 0.05142 0.26092 0.74259 0.0
C2455 C 0.05189 0.28631 0.74962 0.0
C2456 C 0.04927 0.25391 0.71575 0.0
C2457 C 0.05584 0.22492 0.72319 0.0
N2458 N 0.05018 0.27556 0.73928 0.0
N2459 N 0.05424 0.23539 0.73381 0.0
H2460 H 0.69467 0.05461 0.74677 0.0
H2461 H 0.77996 0.06057 0.72518 0.0
H2462 H 0.72969 0.06346 0.77787 0.0
H2463 H 0.74523 0.05436 0.69313 0.0
H2464 H 0.76189 0.05803 0.74496 0.0
H2465 H 0.71317 0.05092 0.7274 0.0
C2466 C 0.70625 0.0556 0.74956 0.0
C2467 C 0.71065 0.05952 0.7639 0.0
C2468 C 0.75821 0.05709 0.73361 0.0
C2469 C 0.73183 0.05537 0.74183 0.0
C2470 C 0.76854 0.05852 0.7223 0.0
C2471 C 0.76406 0.05785 0.70748 0.0
C2472 C 0.74326 0.05504 0.73011 0.0
C2473 C 0.74914 0.05506 0.70442 0.0
C2474 C 0.7168 0.05352 0.7385 0.0
C2475 C 0.7258 0.06059 0.76693 0.0
N2476 N 0.73922 0.0539 0.71564 0.0
N2477 N 0.73582 0.05865 0.75596 0.0
H2478 H 0.93694 0.72738 0.7799 0.0
H2479 H 0.94415 0.74514 0.69384 0.0
H2480 H 0.94414 0.69394 0.74668 0.0
H2481 H 0.93587 0.77793 0.72746 0.0
H2482 H 0.948 0.72669 0.71324 0.0
H2483 H 0.94045 0.7464 0.76115 0.0
C2484 C 0.93944 0.72404 0.76868 0.0
C2485 C 0.94004 0.70906 0.7648 0.0
C2486 C 0.94552 0.73796 0.71636 0.0
C2487 C 0.94392 0.73079 0.74321 0.0
C2488 C 0.94334 0.7485 0.7053 0.0
C2489 C 0.93948 0.76304 0.70905 0.0
C2490 C 0.9438 0.74201 0.73126 0.0
C2491 C 0.93865 0.76681 0.72406 0.0
C2492 C 0.94143 0.73491 0.75796 0.0
C2493 C 0.94345 0.70537 0.75013 0.0
N2494 N 0.94064 0.75633 0.7346 0.0
N2495 N 0.94507 0.71617 0.73981 0.0
H2496 H 0.2459 0.29845 0.04833 0.0
H2497 H 0.26393 0.21259 0.05646 0.0
H2498 H 0.21315 0.26464 0.05578 0.0
H2499 H 0.29735 0.24601 0.05037 0.0
H2500 H 0.24494 0.23117 0.05213 0.0
H2501 H 0.26455 0.27917 0.04496 0.0
C2502 C 0.24259 0.28697 0.04903 0.0
C2503 C 0.22801 0.28313 0.05257 0.0
C2504 C 0.25642 0.23444 0.05157 0.0
C2505 C 0.24925 0.26107 0.04881 0.0
C2506 C 0.26728 0.22382 0.05404 0.0
C2507 C 0.28223 0.22781 0.05399 0.0
C2508 C 0.26053 0.24921 0.04915 0.0
C2509 C 0.28594 0.24249 0.05064 0.0
C2510 C 0.25324 0.27598 0.04714 0.0
C2511 C 0.2243 0.2681 0.05327 0.0
N2512 N 0.27514 0.25271 0.04854 0.0
N2513 N 0.23488 0.25763 0.05158 0.0
H2514 H 0.21182 0.72692 0.9343 0.0
H2515 H 0.29791 0.7434 0.94285 0.0
H2516 H 0.24446 0.69293 0.94136 0.0
H2517 H 0.26488 0.77676 0.93465 0.0
H2518 H 0.27825 0.72514 0.94612 0.0
H2519 H 0.23078 0.74563 0.93822 0.0
C2520 C 0.22296 0.72339 0.93684 0.0
C2521 C 0.22662 0.70835 0.9373 0.0
C2522 C 0.27531 0.73649 0.94378 0.0
C2523 C 0.24844 0.72972 0.94168 0.0
C2524 C 0.28653 0.74692 0.94194 0.0
C2525 C 0.28302 0.76157 0.93827 0.0
C2526 C 0.26052 0.74077 0.94192 0.0
C2527 C 0.26809 0.76555 0.9373 0.0
C2528 C 0.23379 0.73409 0.93907 0.0
C2529 C 0.2412 0.70441 0.94077 0.0
N2530 N 0.25741 0.75518 0.93896 0.0
N2531 N 0.25163 0.71504 0.94265 0.0
H2532 H 0.21139 0.26556 0.93613 0.0
H2533 H 0.29743 0.24849 0.94436 0.0
H2534 H 0.24416 0.29907 0.94479 0.0
H2535 H 0.26462 0.21582 0.93303 0.0
H2536 H 0.27772 0.26649 0.94845 0.0
H2537 H 0.23031 0.24663 0.93899 0.0
C2538 C 0.22254 0.26893 0.93882 0.0
C2539 C 0.22625 0.28393 0.94002 0.0
C2540 C 0.27483 0.25534 0.94522 0.0
C2541 C 0.24802 0.26229 0.94318 0.0
C2542 C 0.28607 0.24505 0.9429 0.0
C2543 C 0.28266 0.23069 0.93816 0.0
C2544 C 0.26008 0.25123 0.94277 0.0
C2545 C 0.26776 0.22682 0.93653 0.0
C2546 C 0.23336 0.2581 0.94043 0.0
C2547 C 0.24085 0.28764 0.94364 0.0
N2548 N 0.25703 0.23707 0.9387 0.0
N2549 N 0.25125 0.27689 0.94492 0.0
H2550 H 0.72651 0.21529 0.93876 0.0
H2551 H 0.74542 0.30122 0.9439 0.0
H2552 H 0.69341 0.24914 0.94418 0.0
H2553 H 0.77768 0.26691 0.93664 0.0
H2554 H 0.72663 0.28223 0.94804 0.0
H2555 H 0.74568 0.23386 0.94212 0.0
C2556 C 0.72327 0.22663 0.94084 0.0
C2557 C 0.70835 0.23072 0.94097 0.0
C2558 C 0.73786 0.27887 0.94571 0.0
C2559 C 0.73028 0.25211 0.94468 0.0
C2560 C 0.74859 0.2897 0.94337 0.0
C2561 C 0.76308 0.28563 0.93971 0.0
C2562 C 0.74167 0.26388 0.94438 0.0
C2563 C 0.7666 0.27055 0.93926 0.0
C2564 C 0.73424 0.23724 0.94274 0.0
C2565 C 0.70479 0.24553 0.94387 0.0
N2566 N 0.75594 0.26024 0.94141 0.0
N2567 N 0.7157 0.25575 0.94541 0.0
H2568 H 0.7301 0.78037 0.93332 0.0
H2569 H 0.74887 0.69519 0.94532 0.0
H2570 H 0.6977 0.74778 0.94595 0.0
H2571 H 0.78099 0.72827 0.93326 0.0
H2572 H 0.73066 0.71477 0.94923 0.0
H2573 H 0.7495 0.76204 0.93691 0.0
C2574 C 0.72708 0.7694 0.93702 0.0
C2575 C 0.71225 0.76553 0.93912 0.0
C2576 C 0.74175 0.71775 0.9459 0.0
C2577 C 0.7344 0.74442 0.94311 0.0
C2578 C 0.75215 0.70658 0.94369 0.0
C2579 C 0.76639 0.7101 0.93874 0.0
C2580 C 0.74564 0.73252 0.94309 0.0
C2581 C 0.77008 0.72504 0.9369 0.0
C2582 C 0.73817 0.75892 0.93906 0.0
C2583 C 0.70899 0.75119 0.94406 0.0
N2584 N 0.75972 0.73568 0.93891 0.0
N2585 N 0.71996 0.74109 0.9457 0.0
H2586 H 0.78221 0.72727 0.05825 0.0
H2587 H 0.69722 0.74762 0.04701 0.0
H2588 H 0.74867 0.69523 0.04728 0.0
H2589 H 0.73043 0.7785 0.06169 0.0
H2590 H 0.71653 0.72921 0.04289 0.0
H2591 H 0.76407 0.74694 0.0553 0.0
C2592 C 0.77105 0.72438 0.05505 0.0
C2593 C 0.76688 0.70957 0.05322 0.0
C2594 C 0.71961 0.74007 0.04686 0.0
C2595 C 0.74601 0.73206 0.04993 0.0
C2596 C 0.70859 0.75059 0.04919 0.0
C2597 C 0.71221 0.76455 0.05491 0.0
C2598 C 0.73433 0.74352 0.05027 0.0
C2599 C 0.72713 0.76783 0.05743 0.0
C2600 C 0.76069 0.73563 0.05339 0.0
C2601 C 0.75232 0.70649 0.04893 0.0
N2602 N 0.73762 0.75734 0.05523 0.0
N2603 N 0.74235 0.71764 0.0476 0.0
H2604 H 0.24614 0.69364 0.05156 0.0
H2605 H 0.26539 0.77935 0.06054 0.0
H2606 H 0.21388 0.72772 0.05988 0.0
H2607 H 0.29842 0.74566 0.05379 0.0
H2608 H 0.24618 0.76083 0.0571 0.0
H2609 H 0.26516 0.71271 0.04914 0.0
C2610 C 0.24302 0.70514 0.0527 0.0
C2611 C 0.22843 0.7091 0.05609 0.0
C2612 C 0.25762 0.75747 0.05625 0.0
C2613 C 0.25012 0.73093 0.05341 0.0
C2614 C 0.26861 0.76806 0.0582 0.0
C2615 C 0.28353 0.76401 0.05761 0.0
C2616 C 0.26155 0.74267 0.05376 0.0
C2617 C 0.28704 0.74924 0.05443 0.0
C2618 C 0.25389 0.71601 0.05135 0.0
C2619 C 0.22501 0.72415 0.0574 0.0
N2620 N 0.27612 0.73907 0.05277 0.0
N2621 N 0.23578 0.73449 0.05617 0.0
H2622 H 0.69266 0.24787 0.04668 0.0
H2623 H 0.77852 0.26592 0.05375 0.0
H2624 H 0.72658 0.21513 0.05358 0.0
H2625 H 0.745 0.29943 0.04884 0.0
H2626 H 0.75993 0.24697 0.04931 0.0
H2627 H 0.71185 0.26659 0.0431 0.0
C2628 C 0.70414 0.24457 0.04721 0.0
C2629 C 0.70805 0.22998 0.05066 0.0
C2630 C 0.75663 0.25847 0.04904 0.0
C2631 C 0.73001 0.25129 0.04666 0.0
C2632 C 0.76726 0.2693 0.05156 0.0
C2633 C 0.76325 0.28426 0.05189 0.0
C2634 C 0.74184 0.2626 0.04694 0.0
C2635 C 0.74854 0.28801 0.04882 0.0
C2636 C 0.71508 0.25526 0.0452 0.0
C2637 C 0.72307 0.22629 0.05114 0.0
N2638 N 0.73831 0.27723 0.04667 0.0
N2639 N 0.73349 0.23691 0.04934 0.0
H2640 H 0.5512 0.79728 0.74672 0.0
H2641 H 0.55743 0.71154 0.76672 0.0
H2642 H 0.55954 0.76271 0.71496 0.0
H2643 H 0.5518 0.74566 0.79953 0.0
H2644 H 0.5544 0.72997 0.74734 0.0
H2645 H 0.54769 0.77844 0.76585 0.0
C2646 C 0.5521 0.78573 0.74373 0.0
C2647 C 0.55584 0.78154 0.72928 0.0
C2648 C 0.55369 0.73344 0.75877 0.0
C2649 C 0.55189 0.75999 0.75106 0.0
C2650 C 0.5554 0.72291 0.76985 0.0
C2651 C 0.55506 0.72711 0.78476 0.0
C2652 C 0.55171 0.74835 0.76259 0.0
C2653 C 0.55225 0.74197 0.78817 0.0
C2654 C 0.55013 0.77499 0.75466 0.0
C2655 C 0.55683 0.76643 0.726 0.0
N2656 N 0.55085 0.75211 0.77715 0.0
N2657 N 0.55499 0.75623 0.73683 0.0
H2658 H 0.22657 0.55605 0.7135 0.0
H2659 H 0.24467 0.54858 0.79947 0.0
H2660 H 0.19314 0.55029 0.74697 0.0
H2661 H 0.27736 0.55603 0.7656 0.0
H2662 H 0.22598 0.54522 0.78022 0.0
H2663 H 0.24555 0.55204 0.73215 0.0
C2664 C 0.22322 0.55378 0.72476 0.0
C2665 C 0.20826 0.55372 0.72874 0.0
C2666 C 0.23728 0.54742 0.77701 0.0
C2667 C 0.22997 0.54925 0.75022 0.0
C2668 C 0.24796 0.5493 0.78799 0.0
C2669 C 0.26254 0.5528 0.78413 0.0
C2670 C 0.24125 0.54904 0.76208 0.0
C2671 C 0.26621 0.55353 0.76909 0.0
C2672 C 0.23407 0.5515 0.73542 0.0
C2673 C 0.20456 0.55056 0.74346 0.0
N2674 N 0.25561 0.55182 0.75863 0.0
N2675 N 0.21535 0.54864 0.75372 0.0
H2676 H 0.43511 0.2297 0.71094 0.0
H2677 H 0.44255 0.24804 0.79682 0.0
H2678 H 0.44257 0.19647 0.74431 0.0
H2679 H 0.43439 0.28061 0.76296 0.0
H2680 H 0.44639 0.22944 0.77756 0.0
H2681 H 0.4387 0.24884 0.72954 0.0
C2682 C 0.43767 0.22643 0.72217 0.0
C2683 C 0.43832 0.21148 0.72614 0.0
C2684 C 0.44394 0.2407 0.77435 0.0
C2685 C 0.44231 0.23334 0.74756 0.0
C2686 C 0.44177 0.25132 0.78534 0.0
C2687 C 0.43793 0.26584 0.78148 0.0
C2688 C 0.44224 0.24464 0.75943 0.0
C2689 C 0.43714 0.2695 0.76644 0.0
C2690 C 0.43972 0.23737 0.7328 0.0
C2691 C 0.44184 0.20788 0.74081 0.0
N2692 N 0.43912 0.25895 0.75598 0.0
N2693 N 0.44351 0.21875 0.75105 0.0
H2694 H 0.71132 0.43519 0.7652 0.0
H2695 H 0.7972 0.44291 0.74715 0.0
H2696 H 0.74461 0.44231 0.79856 0.0
H2697 H 0.76362 0.43401 0.71451 0.0
H2698 H 0.77785 0.44657 0.76566 0.0
H2699 H 0.73 0.43865 0.74612 0.0
C2700 C 0.72254 0.43765 0.76851 0.0
C2701 C 0.72646 0.43826 0.78349 0.0
C2702 C 0.77472 0.44399 0.75441 0.0
C2703 C 0.74797 0.4421 0.76168 0.0
C2704 C 0.78576 0.44192 0.74383 0.0
C2705 C 0.78201 0.43795 0.72932 0.0
C2706 C 0.75986 0.44205 0.75043 0.0
C2707 C 0.76701 0.43689 0.72561 0.0
C2708 C 0.73322 0.43961 0.7576 0.0
C2709 C 0.74114 0.44162 0.78713 0.0
N2710 N 0.75651 0.43878 0.73613 0.0
N2711 N 0.75141 0.44324 0.7763 0.0
H2712 H 0.55638 0.22626 0.28043 0.0
H2713 H 0.55022 0.2449 0.19442 0.0
H2714 H 0.54945 0.19317 0.2468 0.0
H2715 H 0.55872 0.27726 0.2284 0.0
H2716 H 0.5462 0.22627 0.21362 0.0
H2717 H 0.55343 0.24547 0.26178 0.0
C2718 C 0.55406 0.22303 0.26913 0.0
C2719 C 0.55336 0.20809 0.26512 0.0
C2720 C 0.54878 0.23748 0.21686 0.0
C2721 C 0.55011 0.23004 0.24365 0.0
C2722 C 0.55106 0.24813 0.20592 0.0
C2723 C 0.555 0.2626 0.20983 0.0
C2724 C 0.55048 0.24136 0.2318 0.0
C2725 C 0.55586 0.26619 0.22488 0.0
C2726 C 0.5524 0.23402 0.25847 0.0
C2727 C 0.55019 0.20456 0.25035 0.0
N2728 N 0.55376 0.25562 0.2353 0.0
N2729 N 0.54887 0.21546 0.2401 0.0
H2730 H 0.79699 0.54979 0.24843 0.0
H2731 H 0.71187 0.55599 0.2268 0.0
H2732 H 0.76184 0.55811 0.27952 0.0
H2733 H 0.74671 0.55053 0.19474 0.0
H2734 H 0.72975 0.55233 0.24657 0.0
H2735 H 0.77854 0.54566 0.22909 0.0
C2736 C 0.78539 0.55053 0.25124 0.0
C2737 C 0.78093 0.55452 0.26554 0.0
C2738 C 0.73349 0.55177 0.23522 0.0
C2739 C 0.75982 0.54988 0.24351 0.0
C2740 C 0.72327 0.55385 0.22391 0.0
C2741 C 0.72786 0.55379 0.20912 0.0
C2742 C 0.74845 0.54973 0.23173 0.0
C2743 C 0.74274 0.5508 0.20602 0.0
C2744 C 0.77488 0.54821 0.24019 0.0
C2745 C 0.76577 0.55525 0.26859 0.0
N2746 N 0.75256 0.54908 0.21725 0.0
N2747 N 0.75578 0.5531 0.25763 0.0
H2748 H 0.44538 0.74163 0.19692 0.0
H2749 H 0.42685 0.76173 0.28083 0.0
H2750 H 0.42956 0.71017 0.22907 0.0
H2751 H 0.4403 0.7939 0.2483 0.0
H2752 H 0.43135 0.74211 0.26291 0.0
H2753 H 0.44727 0.76019 0.21646 0.0
C2754 C 0.44249 0.73857 0.20813 0.0
C2755 C 0.43711 0.7244 0.21134 0.0
C2756 C 0.43345 0.75344 0.25972 0.0
C2757 C 0.43914 0.74559 0.23372 0.0
C2758 C 0.43089 0.76466 0.26995 0.0
C2759 C 0.43303 0.77949 0.26598 0.0
C2760 C 0.43815 0.75706 0.24538 0.0
C2761 C 0.43838 0.78262 0.25177 0.0
C2762 C 0.44354 0.74918 0.21927 0.0
C2763 C 0.43363 0.72101 0.22607 0.0
N2764 N 0.44062 0.7715 0.24193 0.0
N2765 N 0.43455 0.73157 0.23667 0.0
H2766 H 0.24511 0.43939 0.19472 0.0
H2767 H 0.22329 0.43094 0.27999 0.0
H2768 H 0.27635 0.42923 0.22927 0.0
H2769 H 0.19157 0.43581 0.24475 0.0
H2770 H 0.24323 0.43405 0.26204 0.0
H2771 H 0.2258 0.44198 0.21339 0.0
C2772 C 0.24795 0.43787 0.20625 0.0
C2773 C 0.26232 0.43391 0.21043 0.0
C2774 C 0.2319 0.43455 0.25825 0.0
C2775 C 0.24026 0.43679 0.23184 0.0
C2776 C 0.22052 0.4328 0.2685 0.0
C2777 C 0.20576 0.43297 0.26382 0.0
C2778 C 0.2285 0.4365 0.24323 0.0
C2779 C 0.2028 0.43548 0.24881 0.0
C2780 C 0.23691 0.43932 0.2169 0.0
C2781 C 0.26538 0.43216 0.22554 0.0
N2782 N 0.21407 0.43705 0.23903 0.0
N2783 N 0.25442 0.43349 0.23568 0.0
H2784 H 0.71279 0.55757 0.76581 0.0
H2785 H 0.79871 0.55178 0.74704 0.0
H2786 H 0.74649 0.55155 0.79897 0.0
H2787 H 0.76463 0.55964 0.71465 0.0
H2788 H 0.77962 0.54806 0.76582 0.0
H2789 H 0.73143 0.55463 0.74662 0.0
C2790 C 0.7241 0.55547 0.76906 0.0
C2791 C 0.72813 0.555 0.78401 0.0
C2792 C 0.77633 0.55044 0.75457 0.0
C2793 C 0.74959 0.55175 0.76207 0.0
C2794 C 0.78721 0.55254 0.74384 0.0
C2795 C 0.78324 0.55621 0.72931 0.0
C2796 C 0.76139 0.55202 0.75071 0.0
C2797 C 0.76819 0.55699 0.72576 0.0
C2798 C 0.73476 0.5538 0.75808 0.0
C2799 C 0.74293 0.5521 0.78757 0.0
N2800 N 0.75783 0.55504 0.73641 0.0
N2801 N 0.75317 0.55076 0.77667 0.0
H2802 H 0.44188 0.79688 0.74587 0.0
H2803 H 0.43381 0.71082 0.76333 0.0
H2804 H 0.43349 0.76344 0.71292 0.0
H2805 H 0.44069 0.7439 0.79698 0.0
H2806 H 0.43747 0.72964 0.74441 0.0
H2807 H 0.44523 0.77741 0.76434 0.0
C2808 C 0.44094 0.78545 0.74248 0.0
C2809 C 0.4372 0.78177 0.72788 0.0
C2810 C 0.43834 0.73278 0.75592 0.0
C2811 C 0.44095 0.75948 0.74894 0.0
C2812 C 0.43625 0.72203 0.76674 0.0
C2813 C 0.43675 0.72585 0.78175 0.0
C2814 C 0.44083 0.74751 0.76013 0.0
C2815 C 0.4401 0.74051 0.78552 0.0
C2816 C 0.44282 0.77434 0.75303 0.0
C2817 C 0.43619 0.76678 0.72408 0.0
N2818 N 0.44184 0.75086 0.77477 0.0
N2819 N 0.43791 0.75621 0.73457 0.0
H2820 H 0.27775 0.43634 0.76602 0.0
H2821 H 0.19196 0.44447 0.74797 0.0
H2822 H 0.24438 0.44198 0.79958 0.0
H2823 H 0.22582 0.43776 0.71512 0.0
H2824 H 0.21117 0.44749 0.76676 0.0
H2825 H 0.25916 0.44076 0.74708 0.0
C2826 C 0.26652 0.43867 0.76941 0.0
C2827 C 0.26256 0.43859 0.78439 0.0
C2828 C 0.21439 0.44554 0.7554 0.0
C2829 C 0.24114 0.44353 0.76272 0.0
C2830 C 0.20343 0.44385 0.74467 0.0
C2831 C 0.2073 0.44064 0.73 0.0
C2832 C 0.2293 0.444 0.75141 0.0
C2833 C 0.22233 0.44003 0.72633 0.0
C2834 C 0.25589 0.44119 0.75858 0.0
C2835 C 0.24788 0.44183 0.78814 0.0
N2836 N 0.23276 0.44153 0.73698 0.0
N2837 N 0.23765 0.44398 0.77736 0.0
H2838 H 0.55612 0.27939 0.76464 0.0
H2839 H 0.54835 0.19354 0.74616 0.0
H2840 H 0.55015 0.24582 0.79798 0.0
H2841 H 0.55586 0.2275 0.71354 0.0
H2842 H 0.54514 0.21272 0.76495 0.0
H2843 H 0.55219 0.26081 0.74555 0.0
C2844 C 0.55383 0.26812 0.76795 0.0
C2845 C 0.55366 0.26411 0.78291 0.0
C2846 C 0.54731 0.21597 0.75364 0.0
C2847 C 0.54927 0.24271 0.76109 0.0
C2848 C 0.54911 0.20503 0.7429 0.0
C2849 C 0.55258 0.20893 0.7283 0.0
C2850 C 0.549 0.23089 0.74973 0.0
C2851 C 0.55337 0.22398 0.72469 0.0
C2852 C 0.55159 0.2575 0.75703 0.0
C2853 C 0.55049 0.24937 0.78656 0.0
N2854 N 0.55175 0.23439 0.73536 0.0
N2855 N 0.5486 0.23915 0.77571 0.0
H2856 H 0.80135 0.43546 0.24551 0.0
H2857 H 0.71476 0.4305 0.23019 0.0
H2858 H 0.76872 0.4305 0.2799 0.0
H2859 H 0.74707 0.43851 0.19608 0.0
H2860 H 0.73417 0.43267 0.24877 0.0
H2861 H 0.78153 0.43867 0.22749 0.0
C2862 C 0.79001 0.43517 0.24929 0.0
C2863 C 0.78667 0.43259 0.26421 0.0
C2864 C 0.73701 0.4341 0.23724 0.0
C2865 C 0.76392 0.43617 0.24362 0.0
C2866 C 0.72592 0.43287 0.22662 0.0
C2867 C 0.72934 0.43417 0.21155 0.0
C2868 C 0.75165 0.43654 0.23277 0.0
C2869 C 0.74396 0.43734 0.20757 0.0
C2870 C 0.77869 0.43701 0.23899 0.0
C2871 C 0.77179 0.43239 0.26849 0.0
N2872 N 0.75461 0.43826 0.21811 0.0
N2873 N 0.76097 0.43402 0.25823 0.0
H2874 H 0.55251 0.79746 0.24529 0.0
H2875 H 0.55843 0.71134 0.22674 0.0
H2876 H 0.56134 0.7635 0.27758 0.0
H2877 H 0.55188 0.74484 0.19345 0.0
H2878 H 0.55604 0.73016 0.24584 0.0
H2879 H 0.54893 0.77828 0.22653 0.0
C2880 C 0.55354 0.78598 0.24847 0.0
C2881 C 0.55739 0.78207 0.26298 0.0
C2882 C 0.55499 0.73341 0.23437 0.0
C2883 C 0.55334 0.76011 0.24161 0.0
C2884 C 0.55633 0.72265 0.22345 0.0
C2885 C 0.55553 0.72656 0.20848 0.0
C2886 C 0.55291 0.74824 0.23032 0.0
C2887 C 0.55267 0.74137 0.20487 0.0
C2888 C 0.55151 0.77504 0.23776 0.0
C2889 C 0.55852 0.76702 0.2665 0.0
N2890 N 0.55162 0.75172 0.21572 0.0
N2891 N 0.55662 0.75662 0.25588 0.0
H2892 H 0.28023 0.55541 0.22652 0.0
H2893 H 0.19545 0.54795 0.24903 0.0
H2894 H 0.24531 0.54734 0.19511 0.0
H2895 H 0.23053 0.5582 0.27962 0.0
H2896 H 0.21389 0.54349 0.22979 0.0
H2897 H 0.26261 0.55219 0.24662 0.0
C2898 C 0.26888 0.55278 0.22386 0.0
C2899 C 0.26418 0.55187 0.20912 0.0
C2900 C 0.21755 0.54654 0.24076 0.0
C2901 C 0.24389 0.5483 0.2321 0.0
C2902 C 0.20704 0.54906 0.25176 0.0
C2903 C 0.21146 0.55367 0.26588 0.0
C2904 C 0.23258 0.54866 0.24394 0.0
C2905 C 0.22662 0.55484 0.26883 0.0
C2906 C 0.25881 0.55095 0.23535 0.0
C2907 C 0.24937 0.54828 0.20632 0.0
N2908 N 0.23661 0.55251 0.25791 0.0
N2909 N 0.2397 0.54682 0.21771 0.0
H2910 H 0.4361 0.22732 0.2801 0.0
H2911 H 0.4418 0.24504 0.19387 0.0
H2912 H 0.44196 0.19376 0.24673 0.0
H2913 H 0.43447 0.27788 0.22766 0.0
H2914 H 0.44561 0.22648 0.21318 0.0
H2915 H 0.4393 0.24628 0.26124 0.0
C2916 C 0.43823 0.22394 0.26882 0.0
C2917 C 0.43856 0.20894 0.26494 0.0
C2918 C 0.44333 0.23779 0.21636 0.0
C2919 C 0.4421 0.23061 0.24323 0.0
C2920 C 0.44118 0.24839 0.20535 0.0
C2921 C 0.43762 0.26298 0.20917 0.0
C2922 C 0.44189 0.24183 0.23128 0.0
C2923 C 0.43703 0.26672 0.2242 0.0
C2924 C 0.44004 0.23478 0.25804 0.0
C2925 C 0.4415 0.20521 0.25017 0.0
N2926 N 0.439 0.2562 0.23469 0.0
N2927 N 0.44297 0.21598 0.23981 0.0
H2928 H 0.79914 0.74618 0.54959 0.0
H2929 H 0.71301 0.76349 0.55598 0.0
H2930 H 0.76555 0.71317 0.5569 0.0
H2931 H 0.74616 0.79725 0.55032 0.0
H2932 H 0.73189 0.74465 0.55235 0.0
H2933 H 0.77977 0.76468 0.54593 0.0
C2934 C 0.7877 0.74278 0.55022 0.0
C2935 C 0.78394 0.72816 0.55376 0.0
C2936 C 0.73504 0.75617 0.55174 0.0
C2937 C 0.76177 0.74924 0.54965 0.0
C2938 C 0.72425 0.76694 0.5538 0.0
C2939 C 0.72807 0.78195 0.55366 0.0
C2940 C 0.7498 0.76042 0.54963 0.0
C2941 C 0.74277 0.78579 0.55064 0.0
C2942 C 0.77665 0.75335 0.54816 0.0
C2943 C 0.76895 0.72436 0.55437 0.0
N2944 N 0.75315 0.77508 0.54893 0.0
N2945 N 0.75843 0.73485 0.55249 0.0
H2946 H 0.76097 0.27867 0.43188 0.0
H2947 H 0.74267 0.19363 0.44568 0.0
H2948 H 0.79383 0.24632 0.44394 0.0
H2949 H 0.71009 0.22656 0.43449 0.0
H2950 H 0.76104 0.21324 0.44853 0.0
H2951 H 0.74174 0.26032 0.4362 0.0
C2952 C 0.76413 0.26774 0.4356 0.0
C2953 C 0.77903 0.26395 0.43735 0.0
C2954 C 0.74982 0.21619 0.44563 0.0
C2955 C 0.75706 0.24282 0.4422 0.0
C2956 C 0.73933 0.20499 0.44402 0.0
C2957 C 0.72489 0.20846 0.43963 0.0
C2958 C 0.74583 0.23092 0.44276 0.0
C2959 C 0.72114 0.22337 0.43772 0.0
C2960 C 0.75313 0.25726 0.43806 0.0
C2961 C 0.78247 0.24967 0.44232 0.0
N2962 N 0.73159 0.23403 0.43913 0.0
N2963 N 0.77158 0.23956 0.44439 0.0
H2964 H 0.79742 0.74815 0.44423 0.0
H2965 H 0.71165 0.76694 0.43732 0.0
H2966 H 0.76339 0.71583 0.43592 0.0
H2967 H 0.74532 0.80006 0.44369 0.0
H2968 H 0.73017 0.74774 0.44091 0.0
H2969 H 0.7783 0.76687 0.44811 0.0
C2970 C 0.78593 0.74494 0.44343 0.0
C2971 C 0.78198 0.73047 0.43954 0.0
C2972 C 0.73351 0.7592 0.44168 0.0
C2973 C 0.7601 0.7518 0.44388 0.0
C2974 C 0.72292 0.77017 0.43965 0.0
C2975 C 0.727 0.78511 0.43999 0.0
C2976 C 0.74832 0.76317 0.44397 0.0
C2977 C 0.74173 0.78866 0.4432 0.0
C2978 C 0.77503 0.75564 0.44561 0.0
C2979 C 0.76694 0.7269 0.43872 0.0
N2980 N 0.75191 0.77776 0.44488 0.0
N2981 N 0.75656 0.73752 0.44072 0.0
H2982 H 0.22809 0.71508 0.43487 0.0
H2983 H 0.27921 0.77061 0.44312 0.0
H2984 H 0.19463 0.74786 0.44351 0.0
H2985 H 0.24241 0.80026 0.43737 0.0
H2986 H 0.26207 0.75036 0.44712 0.0
H2987 H 0.24694 0.73367 0.4383 0.0
C2988 C 0.22473 0.72618 0.43781 0.0
C2989 C 0.20976 0.72994 0.4388 0.0
C2990 C 0.25763 0.76119 0.44478 0.0
C2991 C 0.23145 0.7515 0.44313 0.0
C2992 C 0.26747 0.77282 0.44269 0.0
C2993 C 0.26222 0.78706 0.43963 0.0
C2994 C 0.24237 0.76372 0.44343 0.0
C2995 C 0.24692 0.7894 0.43955 0.0
C2996 C 0.23557 0.73686 0.43993 0.0
C2997 C 0.20606 0.7445 0.4426 0.0
N2998 N 0.23752 0.7778 0.44119 0.0
N2999 N 0.21684 0.7548 0.44444 0.0
H3000 H 0.28084 0.22653 0.43382 0.0
H3001 H 0.19545 0.24652 0.44298 0.0
H3002 H 0.24706 0.19396 0.44215 0.0
H3003 H 0.22914 0.27767 0.4301 0.0
H3004 H 0.2146 0.22783 0.44688 0.0
H3005 H 0.26249 0.246 0.43672 0.0
C3006 C 0.26958 0.22348 0.43642 0.0
C3007 C 0.26542 0.2086 0.43754 0.0
C3008 C 0.2178 0.23881 0.44335 0.0
C3009 C 0.2443 0.23086 0.44076 0.0
C3010 C 0.20688 0.24948 0.44115 0.0
C3011 C 0.2107 0.26361 0.43602 0.0
C3012 C 0.23261 0.24232 0.44042 0.0
C3013 C 0.22568 0.26687 0.4339 0.0
C3014 C 0.25909 0.23461 0.43806 0.0
C3015 C 0.2507 0.2053 0.44107 0.0
N3016 N 0.23607 0.25627 0.43599 0.0
N3017 N 0.24062 0.21635 0.44239 0.0
H3018 H 0.22925 0.28102 0.55961 0.0
H3019 H 0.24609 0.19526 0.54815 0.0
H3020 H 0.19538 0.24842 0.55176 0.0
H3021 H 0.27932 0.22827 0.55691 0.0
H3022 H 0.2277 0.21492 0.54565 0.0
H3023 H 0.24798 0.26228 0.55494 0.0
C3024 C 0.22575 0.26994 0.55676 0.0
C3025 C 0.21073 0.26622 0.55627 0.0
C3026 C 0.23905 0.21786 0.54793 0.0
C3027 C 0.23215 0.24464 0.55101 0.0
C3028 C 0.24956 0.20665 0.54932 0.0
C3029 C 0.2642 0.21014 0.55296 0.0
C3030 C 0.24325 0.23263 0.55022 0.0
C3031 C 0.26811 0.22507 0.55428 0.0
C3032 C 0.23646 0.25922 0.55409 0.0
C3033 C 0.20684 0.25173 0.55238 0.0
N3034 N 0.25767 0.23575 0.55307 0.0
N3035 N 0.21749 0.2414 0.55007 0.0
H3036 H 0.7951 0.24864 0.54682 0.0
H3037 H 0.70968 0.2297 0.55656 0.0
H3038 H 0.76154 0.28079 0.55736 0.0
H3039 H 0.743 0.19688 0.54742 0.0
H3040 H 0.72803 0.24905 0.55281 0.0
H3041 H 0.77578 0.23014 0.543 0.0
C3042 C 0.78366 0.25186 0.54813 0.0
C3043 C 0.77992 0.26622 0.55263 0.0
C3044 C 0.73131 0.23763 0.55146 0.0
C3045 C 0.7578 0.24511 0.54835 0.0
C3046 C 0.72083 0.22657 0.55358 0.0
C3047 C 0.72488 0.21165 0.55252 0.0
C3048 C 0.746 0.23376 0.54835 0.0
C3049 C 0.73944 0.20824 0.54849 0.0
C3050 C 0.77264 0.24129 0.54597 0.0
C3051 C 0.76493 0.26981 0.55407 0.0
N3052 N 0.74954 0.21922 0.54674 0.0
N3053 N 0.75444 0.25929 0.5521 0.0
H3054 H 0.24473 0.79856 0.55116 0.0
H3055 H 0.22768 0.71226 0.55711 0.0
H3056 H 0.2778 0.76507 0.55867 0.0
H3057 H 0.19396 0.74531 0.55066 0.0
H3058 H 0.2465 0.73124 0.55394 0.0
H3059 H 0.22638 0.77909 0.54728 0.0
C3060 C 0.24817 0.78712 0.5518 0.0
C3061 C 0.26276 0.78342 0.55544 0.0
C3062 C 0.235 0.73435 0.55306 0.0
C3063 C 0.24185 0.76113 0.55108 0.0
C3064 C 0.22424 0.7235 0.55485 0.0
C3065 C 0.20923 0.72725 0.55434 0.0
C3066 C 0.23074 0.7491 0.55085 0.0
C3067 C 0.20541 0.74196 0.55126 0.0
C3068 C 0.23769 0.77601 0.54961 0.0
C3069 C 0.26663 0.76843 0.55605 0.0
N3070 N 0.2161 0.7524 0.54981 0.0
N3071 N 0.25621 0.75785 0.55404 0.0
H3072 H 0.03179 0.19205 0.35526 0.0
H3073 H 0.95865 0.15735 0.32413 0.0
H3074 H 0.02966 0.15749 0.32248 0.0
H3075 H 0.96041 0.19472 0.35368 0.0
H3076 H 0.98418 0.15155 0.33034 0.0
H3077 H 0.00601 0.18733 0.36152 0.0
C3078 C 0.02603 0.18319 0.34965 0.0
C3079 C 0.03271 0.17547 0.338 0.0
C3080 C 0.9789 0.16082 0.33574 0.0
C3081 C 0.00321 0.17015 0.34498 0.0
C3082 C 0.9643 0.16414 0.3322 0.0
C3083 C 0.95758 0.17681 0.33804 0.0
C3084 C 0.98687 0.1704 0.34498 0.0
C3085 C 0.9653 0.18502 0.34867 0.0
C3086 C 0.01128 0.18053 0.35321 0.0
C3087 C 0.0248 0.16397 0.33128 0.0
N3088 N 0.97968 0.18189 0.35153 0.0
N3089 N 0.01036 0.16187 0.33464 0.0
H3090 H 0.79503 0.95988 0.35402 0.0
H3091 H 0.83276 0.0331 0.32607 0.0
H3092 H 0.83143 0.96181 0.32333 0.0
H3093 H 0.79446 0.03182 0.35436 0.0
H3094 H 0.83738 0.00715 0.33158 0.0
H3095 H 0.79958 0.98567 0.36061 0.0
C3096 C 0.80421 0.96561 0.34894 0.0
C3097 C 0.8126 0.95885 0.3378 0.0
C3098 C 0.82814 0.0126 0.33686 0.0
C3099 C 0.81777 0.98834 0.34516 0.0
C3100 C 0.82552 0.02745 0.33373 0.0
C3101 C 0.81296 0.03448 0.33943 0.0
C3102 C 0.81799 0.00471 0.34553 0.0
C3103 C 0.80411 0.02672 0.34951 0.0
C3104 C 0.80679 0.98035 0.35268 0.0
C3105 C 0.82446 0.96672 0.33172 0.0
N3106 N 0.80658 0.01212 0.35195 0.0
N3107 N 0.82651 0.98114 0.33527 0.0
H3108 H 0.95996 0.79459 0.35706 0.0
H3109 H 0.03186 0.83417 0.32924 0.0
H3110 H 0.96089 0.8325 0.32817 0.0
H3111 H 0.03158 0.79497 0.35635 0.0
H3112 H 0.00615 0.83859 0.3358 0.0
H3113 H 0.98564 0.79942 0.36376 0.0
C3114 C 0.96543 0.80417 0.35244 0.0
C3115 C 0.95846 0.8129 0.34169 0.0
C3116 C 0.01178 0.8292 0.3406 0.0
C3117 C 0.98783 0.81837 0.34916 0.0
C3118 C 0.02648 0.82668 0.33686 0.0
C3119 C 0.0337 0.81394 0.34189 0.0
C3120 C 0.00418 0.81873 0.34918 0.0
C3121 C 0.02631 0.80477 0.35197 0.0
C3122 C 0.98012 0.80691 0.35624 0.0
C3123 C 0.966 0.82527 0.33621 0.0
N3124 N 0.01181 0.80713 0.35499 0.0
N3125 N 0.98038 0.82745 0.33976 0.0
H3126 H 0.19517 0.03321 0.35495 0.0
H3127 H 0.15729 0.9613 0.32461 0.0
H3128 H 0.15884 0.0324 0.32413 0.0
H3129 H 0.1955 0.96163 0.35306 0.0
H3130 H 0.15245 0.98695 0.33126 0.0
H3131 H 0.19011 0.00743 0.36116 0.0
C3132 C 0.18586 0.02774 0.34979 0.0
C3133 C 0.1777 0.03479 0.33866 0.0
C3134 C 0.16171 0.98134 0.33632 0.0
C3135 C 0.17199 0.0053 0.34556 0.0
C3136 C 0.16447 0.96667 0.33253 0.0
C3137 C 0.17708 0.9595 0.33794 0.0
C3138 C 0.17178 0.98893 0.34536 0.0
C3139 C 0.18583 0.96687 0.34839 0.0
C3140 C 0.18301 0.013 0.35331 0.0
C3141 C 0.16565 0.02726 0.3325 0.0
N3142 N 0.18323 0.98132 0.35148 0.0
N3143 N 0.16337 0.01281 0.33579 0.0
H3144 H 0.03266 0.83222 0.66441 0.0
H3145 H 0.96045 0.79333 0.63634 0.0
H3146 H 0.03207 0.79319 0.63706 0.0
H3147 H 0.96163 0.83106 0.66547 0.0
H3148 H 0.98617 0.79801 0.62972 0.0
H3149 H 0.00695 0.83683 0.65795 0.0
C3150 C 0.02721 0.82481 0.65676 0.0
C3151 C 0.03434 0.81206 0.65162 0.0
C3152 C 0.9807 0.80549 0.63728 0.0
C3153 C 0.00484 0.81707 0.64444 0.0
C3154 C 0.96599 0.80285 0.64103 0.0
C3155 C 0.95906 0.81156 0.65182 0.0
C3156 C 0.98849 0.81684 0.64445 0.0
C3157 C 0.96668 0.82383 0.65739 0.0
C3158 C 0.01251 0.82743 0.65308 0.0
C3159 C 0.02687 0.80299 0.64151 0.0
N3160 N 0.98109 0.82593 0.65388 0.0
N3161 N 0.01238 0.80546 0.63855 0.0
H3162 H 0.15871 0.03262 0.66488 0.0
H3163 H 0.19618 0.95966 0.63639 0.0
H3164 H 0.19797 0.03146 0.63794 0.0
H3165 H 0.15837 0.96139 0.66533 0.0
H3166 H 0.19222 0.98561 0.63012 0.0
H3167 H 0.15376 0.00697 0.65834 0.0
C3168 C 0.16612 0.02705 0.65733 0.0
C3169 C 0.17899 0.03402 0.65228 0.0
C3170 C 0.18457 0.98022 0.63755 0.0
C3171 C 0.17357 0.00457 0.64499 0.0
C3172 C 0.18679 0.96537 0.6411 0.0
C3173 C 0.17785 0.95851 0.65175 0.0
C3174 C 0.1734 0.9882 0.64478 0.0
C3175 C 0.16576 0.96637 0.65735 0.0
C3176 C 0.1633 0.01239 0.65359 0.0
C3177 C 0.18806 0.02639 0.6423 0.0
N3178 N 0.16407 0.98089 0.65405 0.0
N3179 N 0.18538 0.01194 0.63926 0.0
H3180 H 0.95956 0.1616 0.66089 0.0
H3181 H 0.03265 0.20121 0.63549 0.0
H3182 H 0.96078 0.20244 0.63632 0.0
H3183 H 0.03077 0.16213 0.66272 0.0
H3184 H 0.00679 0.19745 0.6288 0.0
H3185 H 0.98537 0.15734 0.6546 0.0
C3186 C 0.96518 0.16952 0.65389 0.0
C3187 C 0.95817 0.18259 0.64946 0.0
C3188 C 0.01213 0.18949 0.63595 0.0
C3189 C 0.98779 0.17794 0.64248 0.0
C3190 C 0.02692 0.1916 0.63973 0.0
C3191 C 0.03371 0.1822 0.65001 0.0
C3192 C 0.00414 0.17795 0.64256 0.0
C3193 C 0.02584 0.16985 0.65504 0.0
C3194 C 0.97994 0.16709 0.65031 0.0
C3195 C 0.96587 0.19233 0.64018 0.0
N3196 N 0.01138 0.16825 0.6515 0.0
N3197 N 0.9804 0.18999 0.63729 0.0
H3198 H 0.79087 0.03018 0.63672 0.0
H3199 H 0.83064 0.95859 0.6663 0.0
H3200 H 0.83001 0.03013 0.66389 0.0
H3201 H 0.79084 0.958 0.64013 0.0
H3202 H 0.83453 0.98431 0.65933 0.0
H3203 H 0.79463 0.0039 0.63175 0.0
C3204 C 0.80047 0.02474 0.64132 0.0
C3205 C 0.80993 0.03223 0.65105 0.0
C3206 C 0.82509 0.9785 0.65486 0.0
C3207 C 0.81419 0.00218 0.64556 0.0
C3208 C 0.82288 0.96379 0.65883 0.0
C3209 C 0.8102 0.95628 0.65409 0.0
C3210 C 0.81441 0.98582 0.64631 0.0
C3211 C 0.80064 0.96347 0.64423 0.0
C3212 C 0.80259 0.00971 0.63852 0.0
C3213 C 0.82226 0.02468 0.65659 0.0
N3214 N 0.80275 0.97797 0.64094 0.0
N3215 N 0.82388 0.01001 0.654 0.0
H3216 H 0.35564 0.96095 0.19894 0.0
H3217 H 0.32819 0.03348 0.16005 0.0
H3218 H 0.32737 0.96231 0.1606 0.0
H3219 H 0.355 0.0327 0.19945 0.0
H3220 H 0.33469 0.00776 0.15542 0.0
H3221 H 0.36225 0.98676 0.19462 0.0
C3222 C 0.35114 0.96655 0.18937 0.0
C3223 C 0.34059 0.95964 0.18037 0.0
C3224 C 0.33943 0.01328 0.16491 0.0
C3225 C 0.34794 0.98917 0.17548 0.0
C3226 C 0.33574 0.02799 0.16755 0.0
C3227 C 0.34072 0.03507 0.18039 0.0
C3228 C 0.34792 0.00555 0.17535 0.0
C3229 C 0.35068 0.02754 0.18956 0.0
C3230 C 0.35489 0.98131 0.18693 0.0
C3231 C 0.33526 0.96735 0.16804 0.0
N3232 N 0.35366 0.01304 0.18708 0.0
N3233 N 0.33875 0.9818 0.16613 0.0
H3234 H 0.95996 0.35356 0.19322 0.0
H3235 H 0.03214 0.32116 0.15756 0.0
H3236 H 0.96095 0.32132 0.15812 0.0
H3237 H 0.0316 0.35143 0.19438 0.0
H3238 H 0.00652 0.32748 0.1523 0.0
H3239 H 0.98589 0.35918 0.18842 0.0
C3240 C 0.96552 0.34794 0.18424 0.0
C3241 C 0.95845 0.33663 0.17635 0.0
C3242 C 0.01208 0.333 0.16134 0.0
C3243 C 0.9881 0.34285 0.17093 0.0
C3244 C 0.02673 0.32939 0.16434 0.0
C3245 C 0.03384 0.33545 0.17669 0.0
C3246 C 0.00445 0.34253 0.17092 0.0
C3247 C 0.02641 0.34627 0.18493 0.0
C3248 C 0.98034 0.35113 0.18152 0.0
C3249 C 0.9661 0.32986 0.16472 0.0
N3250 N 0.01198 0.3492 0.18212 0.0
N3251 N 0.98061 0.33285 0.16256 0.0
H3252 H 0.67046 0.96314 0.15872 0.0
H3253 H 0.6388 0.03745 0.19104 0.0
H3254 H 0.63696 0.96578 0.19251 0.0
H3255 H 0.67362 0.03479 0.15861 0.0
H3256 H 0.6326 0.01168 0.18605 0.0
H3257 H 0.66639 0.98919 0.15304 0.0
C3258 C 0.66202 0.96911 0.16472 0.0
C3259 C 0.65434 0.96242 0.17639 0.0
C3260 C 0.64139 0.01682 0.17978 0.0
C3261 C 0.64975 0.99224 0.17009 0.0
C3262 C 0.6449 0.03156 0.18259 0.0
C3263 C 0.65703 0.03811 0.17555 0.0
C3264 C 0.65017 0.0086 0.16997 0.0
C3265 C 0.66441 0.03004 0.16457 0.0
C3266 C 0.6597 0.984 0.16149 0.0
C3267 C 0.64337 0.97061 0.18365 0.0
N3268 N 0.66107 0.0156 0.16234 0.0
N3269 N 0.64162 0.98518 0.18059 0.0
H3270 H 0.0329 0.63825 0.20199 0.0
H3271 H 0.96015 0.66514 0.16219 0.0
H3272 H 0.03167 0.66672 0.16376 0.0
H3273 H 0.96066 0.63889 0.20198 0.0
H3274 H 0.98619 0.6595 0.15843 0.0
H3275 H 0.00689 0.63226 0.19799 0.0
C3276 C 0.02727 0.64294 0.19253 0.0
C3277 C 0.03434 0.65329 0.1834 0.0
C3278 C 0.98056 0.65471 0.16784 0.0
C3279 C 0.00459 0.64661 0.17887 0.0
C3280 C 0.96567 0.65791 0.16997 0.0
C3281 C 0.95835 0.65277 0.18261 0.0
C3282 C 0.98823 0.64653 0.17856 0.0
C3283 C 0.96596 0.64326 0.1922 0.0
C3284 C 0.0124 0.63955 0.19028 0.0
C3285 C 0.02656 0.65893 0.17126 0.0
N3286 N 0.9806 0.64072 0.19016 0.0
N3287 N 0.01203 0.65573 0.1695 0.0
H3288 H 0.35198 0.95667 0.7977 0.0
H3289 H 0.31977 0.03048 0.83101 0.0
H3290 H 0.31853 0.95856 0.83161 0.0
H3291 H 0.35231 0.02862 0.79624 0.0
H3292 H 0.32422 0.00439 0.8362 0.0
H3293 H 0.35744 0.98272 0.80207 0.0
C3294 C 0.34604 0.96246 0.80633 0.0
C3295 C 0.33449 0.95558 0.81401 0.0
C3296 C 0.33059 0.00975 0.82761 0.0
C3297 C 0.3405 0.98539 0.81889 0.0
C3298 C 0.32804 0.02465 0.82464 0.0
C3299 C 0.3354 0.0316 0.81292 0.0
C3300 C 0.34045 0.00175 0.81868 0.0
C3301 C 0.34616 0.0236 0.80518 0.0
C3302 C 0.34913 0.97736 0.80879 0.0
C3303 C 0.3273 0.96355 0.82519 0.0
N3304 N 0.34817 0.00901 0.80801 0.0
N3305 N 0.3302 0.97813 0.82707 0.0
H3306 H 0.03182 0.35406 0.79444 0.0
H3307 H 0.95977 0.32465 0.83316 0.0
H3308 H 0.03111 0.32467 0.83198 0.0
H3309 H 0.95987 0.35254 0.7945 0.0
H3310 H 0.98558 0.33092 0.83746 0.0
H3311 H 0.00585 0.35987 0.79887 0.0
C3312 C 0.02632 0.34913 0.80386 0.0
C3313 C 0.03349 0.33854 0.81261 0.0
C3314 C 0.9799 0.33593 0.8282 0.0
C3315 C 0.00379 0.34499 0.81762 0.0
C3316 C 0.96514 0.33236 0.82576 0.0
C3317 C 0.95781 0.33777 0.81323 0.0
C3318 C 0.98744 0.34475 0.81789 0.0
C3319 C 0.96521 0.34792 0.80415 0.0
C3320 C 0.01147 0.35242 0.80636 0.0
C3321 C 0.02589 0.33263 0.82474 0.0
N3322 N 0.97974 0.35081 0.80645 0.0
N3323 N 0.01137 0.33571 0.82671 0.0
H3324 H 0.63921 0.0374 0.80057 0.0
H3325 H 0.66969 0.96261 0.8335 0.0
H3326 H 0.67436 0.0343 0.8326 0.0
H3327 H 0.63677 0.96556 0.79915 0.0
H3328 H 0.66614 0.98883 0.83876 0.0
H3329 H 0.63286 0.01165 0.8055 0.0
C3330 C 0.64536 0.03141 0.8089 0.0
C3331 C 0.6576 0.03785 0.81589 0.0
C3332 C 0.65947 0.98368 0.83028 0.0
C3333 C 0.65053 0.00837 0.82143 0.0
C3334 C 0.66148 0.9687 0.82728 0.0
C3335 C 0.65381 0.96202 0.8156 0.0
C3336 C 0.64983 0.99202 0.82142 0.0
C3337 C 0.64316 0.97036 0.80805 0.0
C3338 C 0.64176 0.01669 0.81169 0.0
C3339 C 0.66505 0.02965 0.82672 0.0
N3340 N 0.64169 0.98501 0.81089 0.0
N3341 N 0.6616 0.01523 0.82894 0.0
H3342 H 0.96005 0.66384 0.83382 0.0
H3343 H 0.03203 0.63584 0.79473 0.0
H3344 H 0.96061 0.63675 0.79461 0.0
H3345 H 0.0309 0.66505 0.83239 0.0
H3346 H 0.00642 0.62898 0.79964 0.0
H3347 H 0.98567 0.65708 0.83856 0.0
C3348 C 0.96546 0.65617 0.8264 0.0
C3349 C 0.95837 0.65123 0.81355 0.0
C3350 C 0.01188 0.63661 0.80706 0.0
C3351 C 0.98777 0.64372 0.81869 0.0
C3352 C 0.02653 0.6405 0.80428 0.0
C3353 C 0.03342 0.65139 0.81289 0.0
C3354 C 0.00412 0.64375 0.81844 0.0
C3355 C 0.02586 0.65691 0.82523 0.0
C3356 C 0.98011 0.65233 0.82909 0.0
C3357 C 0.96578 0.64108 0.80448 0.0
N3358 N 0.0115 0.65327 0.82745 0.0
N3359 N 0.98023 0.63796 0.80701 0.0
H3360 H 0.19693 0.35626 0.03347 0.0
H3361 H 0.15739 0.32924 0.9612 0.0
H3362 H 0.15925 0.32714 0.03214 0.0
H3363 H 0.19689 0.35585 0.96189 0.0
H3364 H 0.15288 0.33573 0.98695 0.0
H3365 H 0.192 0.36335 0.00789 0.0
C3366 C 0.18737 0.35167 0.02794 0.0
C3367 C 0.17876 0.34074 0.03475 0.0
C3368 C 0.16236 0.34045 0.9814 0.0
C3369 C 0.17318 0.34865 0.00549 0.0
C3370 C 0.16493 0.33676 0.96667 0.0
C3371 C 0.17778 0.34165 0.95956 0.0
C3372 C 0.17288 0.34884 0.98912 0.0
C3373 C 0.187 0.35159 0.96707 0.0
C3374 C 0.18458 0.3557 0.01331 0.0
C3375 C 0.1664 0.33532 0.02716 0.0
N3376 N 0.18459 0.35455 0.98158 0.0
N3377 N 0.16417 0.33909 0.01282 0.0
H3378 H 0.19639 0.63651 0.95871 0.0
H3379 H 0.15872 0.66587 0.03118 0.0
H3380 H 0.1586 0.66548 0.95995 0.0
H3381 H 0.1977 0.63851 0.03049 0.0
H3382 H 0.15382 0.6591 0.00558 0.0
H3383 H 0.19225 0.63045 0.9847 0.0
C3384 C 0.18696 0.64127 0.96433 0.0
C3385 C 0.17809 0.65187 0.95732 0.0
C3386 C 0.16329 0.65431 0.01109 0.0
C3387 C 0.17343 0.64516 0.98704 0.0
C3388 C 0.16608 0.65818 0.02573 0.0
C3389 C 0.17887 0.65308 0.0328 0.0
C3390 C 0.17351 0.64552 0.00341 0.0
C3391 C 0.18786 0.64292 0.02533 0.0
C3392 C 0.18464 0.63785 0.97919 0.0
C3393 C 0.16594 0.65755 0.96506 0.0
N3394 N 0.18522 0.63975 0.01089 0.0
N3395 N 0.16416 0.65437 0.97959 0.0
H3396 H 0.32681 0.16017 0.03247 0.0
H3397 H 0.35537 0.2016 0.96172 0.0
H3398 H 0.35406 0.19925 0.0335 0.0
H3399 H 0.32672 0.16352 0.96127 0.0
H3400 H 0.36155 0.19628 0.98746 0.0
H3401 H 0.33342 0.15654 0.00661 0.0
C3402 C 0.33448 0.16779 0.02735 0.0
C3403 C 0.33955 0.18027 0.03499 0.0
C3404 C 0.35418 0.18888 0.98163 0.0
C3405 C 0.34689 0.17639 0.00532 0.0
C3406 C 0.35067 0.1919 0.96691 0.0
C3407 C 0.34017 0.18324 0.95951 0.0
C3408 C 0.34705 0.17719 0.98895 0.0
C3409 C 0.33459 0.17071 0.9667 0.0
C3410 C 0.33824 0.16574 0.01255 0.0
C3411 C 0.34966 0.18963 0.02791 0.0
N3412 N 0.33786 0.16823 0.98112 0.0
N3413 N 0.35271 0.18772 0.01334 0.0
H3414 H 0.83263 0.329 0.96076 0.0
H3415 H 0.79381 0.35687 0.03314 0.0
H3416 H 0.7936 0.35629 0.96143 0.0
H3417 H 0.83151 0.32777 0.03188 0.0
H3418 H 0.79848 0.36358 0.00741 0.0
H3419 H 0.83725 0.33541 0.98651 0.0
C3420 C 0.82522 0.33663 0.96623 0.0
C3421 C 0.81248 0.34178 0.9591 0.0
C3422 C 0.80596 0.35601 0.01287 0.0
C3423 C 0.8175 0.34889 0.98867 0.0
C3424 C 0.80333 0.35221 0.02759 0.0
C3425 C 0.81202 0.3414 0.03449 0.0
C3426 C 0.8173 0.34886 0.00505 0.0
C3427 C 0.8243 0.33587 0.02685 0.0
C3428 C 0.82785 0.34028 0.98096 0.0
C3429 C 0.80341 0.35185 0.96661 0.0
N3430 N 0.82638 0.33942 0.01243 0.0
N3431 N 0.80588 0.35478 0.98113 0.0
H3432 H 0.63862 0.7951 0.03366 0.0
H3433 H 0.6684 0.8324 0.96094 0.0
H3434 H 0.66987 0.83105 0.03238 0.0
H3435 H 0.63943 0.79458 0.96183 0.0
H3436 H 0.66259 0.83714 0.98683 0.0
H3437 H 0.6325 0.79989 0.00782 0.0
C3438 C 0.64392 0.80425 0.02807 0.0
C3439 C 0.65509 0.81242 0.03504 0.0
C3440 C 0.65723 0.82799 0.98129 0.0
C3441 C 0.64828 0.81782 0.00544 0.0
C3442 C 0.66053 0.82529 0.96648 0.0
C3443 C 0.65472 0.81282 0.95936 0.0
C3444 C 0.64824 0.81801 0.98906 0.0
C3445 C 0.64439 0.80415 0.96699 0.0
C3446 C 0.64044 0.80696 0.01328 0.0
C3447 C 0.66144 0.82426 0.02732 0.0
N3448 N 0.64175 0.80669 0.98155 0.0
N3449 N 0.65817 0.82641 0.01284 0.0
H3450 H 0.83419 0.66313 0.03108 0.0
H3451 H 0.79558 0.63611 0.95817 0.0
H3452 H 0.79448 0.63686 0.02982 0.0
H3453 H 0.83327 0.66519 0.95995 0.0
H3454 H 0.80001 0.62924 0.98389 0.0
H3455 H 0.83891 0.65676 0.00533 0.0
C3456 C 0.82664 0.65573 0.02548 0.0
C3457 C 0.81369 0.65088 0.03244 0.0
C3458 C 0.80754 0.63684 0.97855 0.0
C3459 C 0.81885 0.64379 0.00289 0.0
C3460 C 0.80504 0.64074 0.96384 0.0
C3461 C 0.8138 0.65159 0.95708 0.0
C3462 C 0.81881 0.64393 0.98652 0.0
C3463 C 0.82601 0.65706 0.96487 0.0
C3464 C 0.82933 0.6521 0.01076 0.0
C3465 C 0.80445 0.64109 0.02477 0.0
N3466 N 0.82797 0.65341 0.97928 0.0
N3467 N 0.80701 0.63816 0.01027 0.0
H3468 H 0.32741 0.8317 0.0317 0.0
H3469 H 0.35536 0.7911 0.96016 0.0
H3470 H 0.35434 0.79239 0.03208 0.0
H3471 H 0.32714 0.8295 0.96038 0.0
H3472 H 0.36159 0.79589 0.98599 0.0
H3473 H 0.33378 0.83552 0.00581 0.0
C3474 C 0.33493 0.82405 0.02641 0.0
C3475 C 0.34003 0.81149 0.03391 0.0
C3476 C 0.35432 0.80348 0.98029 0.0
C3477 C 0.34712 0.81561 0.00419 0.0
C3478 C 0.3508 0.80078 0.96551 0.0
C3479 C 0.34038 0.80968 0.95827 0.0
C3480 C 0.34729 0.8151 0.98782 0.0
C3481 C 0.33494 0.82215 0.96567 0.0
C3482 C 0.33857 0.82622 0.01161 0.0
C3483 C 0.34995 0.80208 0.02662 0.0
N3484 N 0.33822 0.82431 0.98014 0.0
N3485 N 0.35289 0.80413 0.01204 0.0
H3486 H 0.63499 0.19856 0.96033 0.0
H3487 H 0.664 0.15983 0.03198 0.0
H3488 H 0.66501 0.16157 0.96122 0.0
H3489 H 0.63595 0.19834 0.03163 0.0
H3490 H 0.65708 0.15486 0.00643 0.0
H3491 H 0.62805 0.19317 0.98585 0.0
C3492 C 0.63982 0.18905 0.96575 0.0
C3493 C 0.65096 0.1808 0.95885 0.0
C3494 C 0.65215 0.16421 0.01203 0.0
C3495 C 0.64324 0.1747 0.98804 0.0
C3496 C 0.65609 0.16703 0.02664 0.0
C3497 C 0.65093 0.17979 0.03374 0.0
C3498 C 0.64324 0.17438 0.00442 0.0
C3499 C 0.64046 0.18856 0.02643 0.0
C3500 C 0.63587 0.18599 0.98034 0.0
C3501 C 0.65667 0.16848 0.96629 0.0
N3502 N 0.63726 0.18593 0.012 0.0
N3503 N 0.65299 0.166 0.98061 0.0
H3504 H 0.45914 0.65716 0.82552 0.0
H3505 H 0.53047 0.69592 0.85626 0.0
H3506 H 0.45879 0.69573 0.85354 0.0
H3507 H 0.53031 0.65879 0.82635 0.0
H3508 H 0.50454 0.69111 0.86191 0.0
H3509 H 0.48478 0.65271 0.8324 0.0
C3510 C 0.46436 0.66451 0.83339 0.0
C3511 C 0.45699 0.67708 0.83863 0.0
C3512 C 0.51027 0.68379 0.85438 0.0
C3513 C 0.4864 0.67224 0.84631 0.0
C3514 C 0.5251 0.68651 0.85118 0.0
C3515 C 0.5324 0.67801 0.84048 0.0
C3516 C 0.50275 0.67256 0.84675 0.0
C3517 C 0.52497 0.66586 0.83439 0.0
C3518 C 0.47902 0.66197 0.83731 0.0
C3519 C 0.46418 0.68606 0.84901 0.0
N3520 N 0.51046 0.66368 0.83738 0.0
N3521 N 0.47863 0.68368 0.85223 0.0
H3522 H 0.29362 0.53167 0.85658 0.0
H3523 H 0.33184 0.45931 0.82789 0.0
H3524 H 0.331 0.53042 0.82707 0.0
H3525 H 0.2931 0.46 0.85559 0.0
H3526 H 0.33665 0.485 0.83442 0.0
H3527 H 0.29826 0.50589 0.8631 0.0
C3528 C 0.30305 0.5261 0.85178 0.0
C3529 C 0.31167 0.53302 0.84092 0.0
C3530 C 0.32727 0.47946 0.83935 0.0
C3531 C 0.31691 0.50353 0.84817 0.0
C3532 C 0.32454 0.46477 0.83563 0.0
C3533 C 0.31181 0.45768 0.84085 0.0
C3534 C 0.31705 0.48716 0.84812 0.0
C3535 C 0.30288 0.46517 0.85107 0.0
C3536 C 0.30567 0.51136 0.85548 0.0
C3537 C 0.32385 0.52536 0.83521 0.0
N3538 N 0.30546 0.47965 0.85408 0.0
N3539 N 0.32592 0.51093 0.83867 0.0
H3540 H 0.53108 0.29505 0.85468 0.0
H3541 H 0.45969 0.33459 0.82526 0.0
H3542 H 0.53079 0.33257 0.82527 0.0
H3543 H 0.4594 0.29584 0.85303 0.0
H3544 H 0.48541 0.33886 0.83193 0.0
H3545 H 0.50528 0.30001 0.86079 0.0
C3546 C 0.52572 0.30458 0.84981 0.0
C3547 C 0.53293 0.31316 0.83911 0.0
C3548 C 0.47965 0.3296 0.83684 0.0
C3549 C 0.50342 0.31877 0.8459 0.0
C3550 C 0.46494 0.32717 0.83305 0.0
C3551 C 0.45756 0.3146 0.83826 0.0
C3552 C 0.48707 0.31922 0.84568 0.0
C3553 C 0.46479 0.30552 0.84853 0.0
C3554 C 0.51096 0.30738 0.85328 0.0
C3555 C 0.52552 0.32545 0.8333 0.0
N3556 N 0.47929 0.30779 0.85161 0.0
N3557 N 0.51108 0.32771 0.83653 0.0
H3558 H 0.69725 0.45956 0.85639 0.0
H3559 H 0.65915 0.53262 0.829 0.0
H3560 H 0.65929 0.46146 0.82765 0.0
H3561 H 0.69885 0.53131 0.85527 0.0
H3562 H 0.65431 0.50693 0.83549 0.0
H3563 H 0.69319 0.48542 0.863 0.0
C3564 C 0.68781 0.46529 0.85179 0.0
C3565 C 0.67885 0.45851 0.84111 0.0
C3566 C 0.66392 0.51233 0.84011 0.0
C3567 C 0.67427 0.48809 0.84847 0.0
C3568 C 0.66667 0.52702 0.83642 0.0
C3569 C 0.67965 0.53395 0.84125 0.0
C3570 C 0.67436 0.50446 0.84847 0.0
C3571 C 0.68886 0.52628 0.85107 0.0
C3572 C 0.68553 0.48008 0.85553 0.0
C3573 C 0.6667 0.46639 0.83565 0.0
N3574 N 0.68624 0.51181 0.85406 0.0
N3575 N 0.66494 0.48085 0.83915 0.0
H3576 H 0.46009 0.33201 0.16573 0.0
H3577 H 0.53261 0.29308 0.13796 0.0
H3578 H 0.46078 0.2928 0.13864 0.0
H3579 H 0.53127 0.33063 0.16732 0.0
H3580 H 0.50681 0.29756 0.13151 0.0
H3581 H 0.48592 0.3364 0.15961 0.0
C3582 C 0.46559 0.32451 0.1582 0.0
C3583 C 0.45843 0.31179 0.15302 0.0
C3584 C 0.51226 0.30504 0.13909 0.0
C3585 C 0.48807 0.31656 0.14623 0.0
C3586 C 0.52702 0.30251 0.14275 0.0
C3587 C 0.53394 0.31125 0.15352 0.0
C3588 C 0.50443 0.31632 0.14632 0.0
C3589 C 0.52623 0.3234 0.15923 0.0
C3590 C 0.48036 0.327 0.15473 0.0
C3591 C 0.46599 0.3026 0.1431 0.0
N3592 N 0.51179 0.3254 0.15579 0.0
N3593 N 0.48053 0.30495 0.14031 0.0
H3594 H 0.66036 0.45975 0.16804 0.0
H3595 H 0.6989 0.53105 0.13702 0.0
H3596 H 0.699 0.45925 0.14018 0.0
H3597 H 0.66083 0.53104 0.16565 0.0
H3598 H 0.69452 0.50496 0.13165 0.0
H3599 H 0.65585 0.48531 0.16088 0.0
C3600 C 0.66773 0.46493 0.16016 0.0
C3601 C 0.6803 0.45753 0.15502 0.0
C3602 C 0.68691 0.51076 0.13883 0.0
C3603 C 0.67539 0.48688 0.147 0.0
C3604 C 0.68937 0.52568 0.14185 0.0
C3605 C 0.68047 0.53308 0.15215 0.0
C3606 C 0.67554 0.50324 0.14625 0.0
C3607 C 0.66819 0.52564 0.15794 0.0
C3608 C 0.66515 0.47955 0.15607 0.0
C3609 C 0.68931 0.46466 0.14463 0.0
N3610 N 0.66627 0.51104 0.15516 0.0
N3611 N 0.68689 0.47908 0.14123 0.0
H3612 H 0.53122 0.6571 0.16616 0.0
H3613 H 0.45919 0.69505 0.13658 0.0
H3614 H 0.53077 0.69499 0.13722 0.0
H3615 H 0.46008 0.65793 0.16648 0.0
H3616 H 0.48493 0.69019 0.13022 0.0
H3617 H 0.50551 0.65229 0.15985 0.0
C3618 C 0.5258 0.66422 0.15821 0.0
C3619 C 0.53297 0.67673 0.15255 0.0
C3620 C 0.4794 0.68288 0.1379 0.0
C3621 C 0.50347 0.67147 0.1455 0.0
C3622 C 0.46467 0.68563 0.14151 0.0
C3623 C 0.45766 0.67716 0.15243 0.0
C3624 C 0.48712 0.67168 0.14538 0.0
C3625 C 0.46521 0.66498 0.15829 0.0
C3626 C 0.5111 0.66147 0.15461 0.0
C3627 C 0.52554 0.68539 0.14208 0.0
N3628 N 0.47964 0.6628 0.15494 0.0
N3629 N 0.51105 0.68282 0.13917 0.0
H3630 H 0.33099 0.45864 0.16582 0.0
H3631 H 0.29094 0.52945 0.13586 0.0
H3632 H 0.29173 0.45768 0.13887 0.0
H3633 H 0.33001 0.52987 0.16311 0.0
H3634 H 0.2954 0.50342 0.13033 0.0
H3635 H 0.33513 0.4842 0.15842 0.0
C3636 C 0.32341 0.46372 0.15808 0.0
C3637 C 0.31077 0.45619 0.15328 0.0
C3638 C 0.30321 0.50929 0.13722 0.0
C3639 C 0.31525 0.48554 0.14501 0.0
C3640 C 0.30069 0.52419 0.14034 0.0
C3641 C 0.30988 0.53169 0.15032 0.0
C3642 C 0.31492 0.50189 0.14423 0.0
C3643 C 0.32244 0.52438 0.15566 0.0
C3644 C 0.32577 0.47833 0.15385 0.0
C3645 C 0.30147 0.46319 0.14305 0.0
N3646 N 0.32441 0.5098 0.15281 0.0
N3647 N 0.30369 0.47761 0.13953 0.0
H3648 H 0.8254 0.53247 0.66022 0.0
H3649 H 0.85411 0.45994 0.69871 0.0
H3650 H 0.85328 0.53192 0.69887 0.0
H3651 H 0.82426 0.46108 0.66158 0.0
H3652 H 0.86025 0.48584 0.69419 0.0
H3653 H 0.83136 0.50657 0.65584 0.0
C3654 C 0.83305 0.52698 0.6676 0.0
C3655 C 0.83853 0.53421 0.68015 0.0
C3656 C 0.85263 0.48032 0.68681 0.0
C3657 C 0.84516 0.50449 0.6754 0.0
C3658 C 0.84915 0.46551 0.68936 0.0
C3659 C 0.83834 0.45849 0.68076 0.0
C3660 C 0.84517 0.48812 0.67564 0.0
C3661 C 0.83239 0.46618 0.6687 0.0
C3662 C 0.83644 0.51217 0.66511 0.0
C3663 C 0.8486 0.52666 0.68919 0.0
N3664 N 0.83566 0.48067 0.66668 0.0
N3665 N 0.85132 0.51209 0.68685 0.0
H3666 H 0.53148 0.82231 0.65929 0.0
H3667 H 0.45997 0.8537 0.69689 0.0
H3668 H 0.5317 0.85183 0.69672 0.0
H3669 H 0.46024 0.82383 0.65974 0.0
H3670 H 0.48592 0.85931 0.69221 0.0
H3671 H 0.50583 0.82893 0.65453 0.0
C3672 C 0.52622 0.83043 0.66632 0.0
C3673 C 0.53357 0.83621 0.67866 0.0
C3674 C 0.48021 0.8518 0.68485 0.0
C3675 C 0.50414 0.84362 0.67349 0.0
C3676 C 0.46537 0.84863 0.6875 0.0
C3677 C 0.45809 0.83794 0.67896 0.0
C3678 C 0.48779 0.84413 0.67368 0.0
C3679 C 0.46556 0.83186 0.66683 0.0
C3680 C 0.51156 0.83422 0.66361 0.0
C3681 C 0.52633 0.8469 0.68724 0.0
N3682 N 0.48009 0.8348 0.66474 0.0
N3683 N 0.51188 0.84999 0.68471 0.0
H3684 H 0.13541 0.5338 0.69851 0.0
H3685 H 0.16302 0.46125 0.66 0.0
H3686 H 0.16429 0.53224 0.66064 0.0
H3687 H 0.13612 0.46222 0.69932 0.0
H3688 H 0.15639 0.48689 0.65512 0.0
H3689 H 0.12856 0.50809 0.69398 0.0
C3690 C 0.14 0.52819 0.68899 0.0
C3691 C 0.1508 0.53499 0.68021 0.0
C3692 C 0.15165 0.48142 0.66464 0.0
C3693 C 0.14316 0.50557 0.67509 0.0
C3694 C 0.15543 0.46676 0.66742 0.0
C3695 C 0.15048 0.45977 0.68033 0.0
C3696 C 0.14312 0.4892 0.67501 0.0
C3697 C 0.14043 0.46731 0.68939 0.0
C3698 C 0.13611 0.51348 0.68643 0.0
C3699 C 0.15622 0.52727 0.66792 0.0
N3700 N 0.13738 0.48177 0.68678 0.0
N3701 N 0.15259 0.51287 0.66591 0.0
H3702 H 0.45901 0.13805 0.6953 0.0
H3703 H 0.53242 0.16581 0.65819 0.0
H3704 H 0.46137 0.1687 0.65886 0.0
H3705 H 0.53065 0.13814 0.69697 0.0
H3706 H 0.50666 0.15994 0.65311 0.0
H3707 H 0.48471 0.1312 0.69085 0.0
C3708 C 0.4648 0.14305 0.68611 0.0
C3709 C 0.4582 0.15429 0.67771 0.0
C3710 C 0.51198 0.15486 0.66255 0.0
C3711 C 0.48761 0.14664 0.67268 0.0
C3712 C 0.52671 0.1582 0.66544 0.0
C3713 C 0.53353 0.15281 0.67826 0.0
C3714 C 0.50396 0.14629 0.6727 0.0
C3715 C 0.52571 0.14277 0.68711 0.0
C3716 C 0.4795 0.13916 0.6836 0.0
C3717 C 0.46616 0.16025 0.66583 0.0
N3718 N 0.5112 0.14013 0.68438 0.0
N3719 N 0.48054 0.15657 0.66386 0.0
H3720 H 0.82317 0.46175 0.33482 0.0
H3721 H 0.85343 0.53649 0.30237 0.0
H3722 H 0.85624 0.465 0.30066 0.0
H3723 H 0.81861 0.53316 0.33473 0.0
H3724 H 0.86026 0.51092 0.30753 0.0
H3725 H 0.82707 0.48779 0.34068 0.0
C3726 C 0.83149 0.46785 0.32877 0.0
C3727 C 0.83907 0.46134 0.31694 0.0
C3728 C 0.85134 0.51588 0.31376 0.0
C3729 C 0.84344 0.49115 0.32343 0.0
C3730 C 0.84747 0.53051 0.31084 0.0
C3731 C 0.83514 0.53679 0.3178 0.0
C3732 C 0.84273 0.50749 0.32358 0.0
C3733 C 0.82796 0.52861 0.32883 0.0
C3734 C 0.83371 0.48273 0.33211 0.0
C3735 C 0.84989 0.46969 0.30964 0.0
N3736 N 0.83164 0.51427 0.33114 0.0
N3737 N 0.85153 0.48426 0.31279 0.0
H3738 H 0.53062 0.82304 0.33159 0.0
H3739 H 0.45808 0.85194 0.29315 0.0
H3740 H 0.53024 0.85125 0.29316 0.0
H3741 H 0.45903 0.82304 0.33107 0.0
H3742 H 0.48415 0.85759 0.29717 0.0
H3743 H 0.50466 0.82878 0.33575 0.0
C3744 C 0.52514 0.83069 0.3242 0.0
C3745 C 0.53247 0.83639 0.3118 0.0
C3746 C 0.47857 0.85027 0.30481 0.0
C3747 C 0.50268 0.84278 0.31631 0.0
C3748 C 0.46367 0.84708 0.30255 0.0
C3749 C 0.4565 0.8367 0.31156 0.0
C3750 C 0.48633 0.84296 0.3161 0.0
C3751 C 0.46423 0.83085 0.32365 0.0
C3752 C 0.5103 0.83397 0.32657 0.0
C3753 C 0.52493 0.84644 0.30273 0.0
N3754 N 0.4788 0.83384 0.3254 0.0
N3755 N 0.51033 0.84905 0.30496 0.0
H3756 H 0.16675 0.46146 0.33382 0.0
H3757 H 0.13807 0.53658 0.30092 0.0
H3758 H 0.13522 0.4652 0.29827 0.0
H3759 H 0.17174 0.53274 0.33443 0.0
H3760 H 0.13084 0.51104 0.30569 0.0
H3761 H 0.1626 0.48741 0.33986 0.0
C3762 C 0.1587 0.46765 0.32749 0.0
C3763 C 0.15166 0.46131 0.31524 0.0
C3764 C 0.13958 0.51589 0.31225 0.0
C3765 C 0.14701 0.49103 0.32194 0.0
C3766 C 0.14369 0.5305 0.30956 0.0
C3767 C 0.15584 0.53661 0.31695 0.0
C3768 C 0.14779 0.50737 0.3223 0.0
C3769 C 0.16255 0.52832 0.32819 0.0
C3770 C 0.15634 0.48248 0.33093 0.0
C3771 C 0.14116 0.46976 0.30759 0.0
N3772 N 0.15867 0.514 0.33029 0.0
N3773 N 0.13939 0.48429 0.31086 0.0
H3774 H 0.53228 0.16234 0.33392 0.0
H3775 H 0.45951 0.13588 0.29493 0.0
H3776 H 0.53107 0.13623 0.29405 0.0
H3777 H 0.46137 0.16458 0.33295 0.0
H3778 H 0.48515 0.1288 0.29938 0.0
H3779 H 0.50658 0.15591 0.33862 0.0
C3780 C 0.52671 0.15496 0.32634 0.0
C3781 C 0.53365 0.15018 0.31334 0.0
C3782 C 0.47984 0.13636 0.30698 0.0
C3783 C 0.50416 0.14306 0.31847 0.0
C3784 C 0.46518 0.14038 0.30446 0.0
C3785 C 0.45848 0.15119 0.31332 0.0
C3786 C 0.4878 0.14328 0.31836 0.0
C3787 C 0.46625 0.1565 0.32561 0.0
C3788 C 0.51201 0.1513 0.32901 0.0
C3789 C 0.52602 0.1404 0.30406 0.0
N3790 N 0.48061 0.15273 0.32759 0.0
N3791 N 0.51153 0.13747 0.30659 0.0
H3792 H 0.69719 0.85722 0.46152 0.0
H3793 H 0.65886 0.82638 0.53292 0.0
H3794 H 0.65921 0.82846 0.46175 0.0
H3795 H 0.69767 0.854 0.53318 0.0
H3796 H 0.65408 0.83378 0.50746 0.0
H3797 H 0.69274 0.86285 0.48755 0.0
C3798 C 0.68766 0.85242 0.46692 0.0
C3799 C 0.67882 0.842 0.45962 0.0
C3800 C 0.66347 0.8385 0.51316 0.0
C3801 C 0.6738 0.8482 0.4894 0.0
C3802 C 0.66619 0.83428 0.52772 0.0
C3803 C 0.67892 0.83925 0.535 0.0
C3804 C 0.67371 0.84751 0.50576 0.0
C3805 C 0.68788 0.84968 0.52786 0.0
C3806 C 0.68515 0.8556 0.48181 0.0
C3807 C 0.66653 0.83626 0.46709 0.0
N3808 N 0.68532 0.85318 0.51348 0.0
N3809 N 0.66458 0.83919 0.48166 0.0
H3810 H 0.6959 0.13525 0.46126 0.0
H3811 H 0.65723 0.16463 0.53301 0.0
H3812 H 0.6576 0.16356 0.46195 0.0
H3813 H 0.69677 0.13809 0.53278 0.0
H3814 H 0.65239 0.15719 0.50758 0.0
H3815 H 0.69151 0.12913 0.48718 0.0
C3816 C 0.68632 0.13985 0.46673 0.0
C3817 C 0.67737 0.1503 0.45961 0.0
C3818 C 0.66196 0.1527 0.51317 0.0
C3819 C 0.67241 0.14352 0.48926 0.0
C3820 C 0.66471 0.15695 0.52772 0.0
C3821 C 0.67766 0.15233 0.53484 0.0
C3822 C 0.67238 0.14402 0.50563 0.0
C3823 C 0.68681 0.14215 0.52757 0.0
C3824 C 0.68384 0.13639 0.48156 0.0
C3825 C 0.66501 0.15575 0.46716 0.0
N3826 N 0.68421 0.13864 0.51322 0.0
N3827 N 0.66308 0.15256 0.48168 0.0
H3828 H 0.82723 0.65909 0.53175 0.0
H3829 H 0.85458 0.6984 0.45932 0.0
H3830 H 0.85473 0.698 0.53104 0.0
H3831 H 0.8245 0.66147 0.46068 0.0
H3832 H 0.86155 0.69329 0.4849 0.0
H3833 H 0.83317 0.65471 0.50584 0.0
C3834 C 0.83481 0.66652 0.52623 0.0
C3835 C 0.84014 0.67917 0.5334 0.0
C3836 C 0.8537 0.68608 0.47949 0.0
C3837 C 0.84672 0.67442 0.50368 0.0
C3838 C 0.84974 0.68897 0.46486 0.0
C3839 C 0.83861 0.68062 0.45804 0.0
C3840 C 0.84639 0.67483 0.48731 0.0
C3841 C 0.83285 0.66842 0.46566 0.0
C3842 C 0.83819 0.66403 0.51141 0.0
C3843 C 0.85014 0.68826 0.52582 0.0
N3844 N 0.83658 0.66609 0.47999 0.0
N3845 N 0.85282 0.68593 0.51124 0.0
H3846 H 0.33029 0.83237 0.46127 0.0
H3847 H 0.29158 0.85679 0.53517 0.0
H3848 H 0.28998 0.85765 0.46334 0.0
H3849 H 0.32969 0.82835 0.53236 0.0
H3850 H 0.29557 0.86421 0.50951 0.0
H3851 H 0.33491 0.83808 0.48719 0.0
C3852 C 0.32258 0.83942 0.4671 0.0
C3853 C 0.30952 0.84419 0.4603 0.0
C3854 C 0.30328 0.85663 0.51462 0.0
C3855 C 0.31456 0.8505 0.49003 0.0
C3856 C 0.30103 0.85241 0.52929 0.0
C3857 C 0.31007 0.8416 0.53574 0.0
C3858 C 0.31459 0.84992 0.5064 0.0
C3859 C 0.32224 0.83644 0.52768 0.0
C3860 C 0.32521 0.84267 0.48191 0.0
C3861 C 0.30006 0.85352 0.46826 0.0
N3862 N 0.32397 0.84042 0.51333 0.0
N3863 N 0.30258 0.85607 0.48284 0.0
H3864 H 0.13744 0.29966 0.45852 0.0
H3865 H 0.13915 0.29758 0.53387 0.0
H3866 H 0.17455 0.32922 0.46274 0.0
H3867 H 0.17099 0.33292 0.53137 0.0
H3868 H 0.13354 0.30106 0.50792 0.0
H3869 H 0.13109 0.30434 0.4842 0.0
C3870 C 0.14415 0.3073 0.46483 0.0
C3871 C 0.15682 0.3137 0.45862 0.0
C3872 C 0.14146 0.30841 0.51297 0.0
C3873 C 0.15001 0.3187 0.48832 0.0
C3874 C 0.14466 0.30639 0.52793 0.0
C3875 C 0.15584 0.3147 0.53469 0.0
C3876 C 0.14957 0.31881 0.50472 0.0
C3877 C 0.16251 0.32603 0.52651 0.0
C3878 C 0.14062 0.30987 0.47963 0.0
C3879 C 0.16488 0.32377 0.46717 0.0
N3880 N 0.15949 0.32754 0.5119 0.0
N3881 N 0.16151 0.32572 0.48165 0.0
H3882 H 0.33287 0.16478 0.53235 0.0
H3883 H 0.29472 0.13553 0.46015 0.0
H3884 H 0.29388 0.13742 0.53182 0.0
H3885 H 0.33252 0.16451 0.46118 0.0
H3886 H 0.29911 0.12935 0.48606 0.0
H3887 H 0.33774 0.15787 0.50677 0.0
C3888 C 0.32552 0.15703 0.52695 0.0
C3889 C 0.31271 0.15201 0.53405 0.0
C3890 C 0.30667 0.13678 0.48052 0.0
C3891 C 0.31802 0.14433 0.50468 0.0
C3892 C 0.30419 0.14028 0.4657 0.0
C3893 C 0.31301 0.1509 0.45866 0.0
C3894 C 0.31797 0.14404 0.4883 0.0
C3895 C 0.32522 0.15655 0.46631 0.0
C3896 C 0.32829 0.1531 0.51232 0.0
C3897 C 0.30373 0.14178 0.52665 0.0
N3898 N 0.32716 0.1533 0.48082 0.0
N3899 N 0.30635 0.13856 0.51222 0.0
H3900 H 0.82226 0.33217 0.45836 0.0
H3901 H 0.85271 0.29704 0.53178 0.0
H3902 H 0.85124 0.29439 0.46006 0.0
H3903 H 0.82179 0.33324 0.52975 0.0
H3904 H 0.85867 0.30105 0.50577 0.0
H3905 H 0.82844 0.33775 0.48399 0.0
C3906 C 0.83019 0.32524 0.46402 0.0
C3907 C 0.83591 0.31255 0.45722 0.0
C3908 C 0.85084 0.30835 0.5111 0.0
C3909 C 0.84282 0.3187 0.48664 0.0
C3910 C 0.84747 0.3061 0.52598 0.0
C3911 C 0.83641 0.31454 0.5328 0.0
C3912 C 0.84301 0.31904 0.50302 0.0
C3913 C 0.83013 0.32624 0.52481 0.0
C3914 C 0.83371 0.32841 0.47868 0.0
C3915 C 0.84634 0.30412 0.46498 0.0
N3916 N 0.83328 0.32794 0.51025 0.0
N3917 N 0.84919 0.30713 0.47941 0.0
H3918 H 0.16592 0.65834 0.53179 0.0
H3919 H 0.13743 0.69785 0.45988 0.0
H3920 H 0.13809 0.69702 0.53164 0.0
H3921 H 0.16756 0.66094 0.46064 0.0
H3922 H 0.13088 0.69265 0.48555 0.0
H3923 H 0.15975 0.6541 0.50591 0.0
C3924 C 0.15822 0.66575 0.5264 0.0
C3925 C 0.15286 0.6783 0.53372 0.0
C3926 C 0.13866 0.68546 0.48 0.0
C3927 C 0.146 0.67371 0.50403 0.0
C3928 C 0.14237 0.6884 0.46531 0.0
C3929 C 0.15339 0.68008 0.45828 0.0
C3930 C 0.1461 0.6742 0.48766 0.0
C3931 C 0.15928 0.66787 0.46578 0.0
C3932 C 0.15471 0.66334 0.5116 0.0
C3933 C 0.14271 0.68736 0.52631 0.0
N3934 N 0.15579 0.66549 0.48016 0.0
N3935 N 0.13989 0.68511 0.51174 0.0
H3936 H 0.16482 0.11319 0.27319 0.0
H3937 H 0.09956 0.15166 0.31834 0.0
H3938 H 0.15388 0.10131 0.31808 0.0
H3939 H 0.11521 0.16573 0.27553 0.0
H3940 H 0.11636 0.13043 0.31712 0.0
H3941 H 0.14355 0.1295 0.27253 0.0
C3942 C 0.15787 0.11394 0.2829 0.0
C3943 C 0.16128 0.10606 0.2958 0.0
C3944 C 0.11597 0.1381 0.30795 0.0
C3945 C 0.13688 0.1249 0.29516 0.0
C3946 C 0.10638 0.15019 0.30862 0.0
C3947 C 0.10615 0.16059 0.29711 0.0
C3948 C 0.12528 0.13641 0.29565 0.0
C3949 C 0.11517 0.15813 0.28476 0.0
C3950 C 0.1457 0.12327 0.28251 0.0
C3951 C 0.15171 0.10729 0.30795 0.0
N3952 N 0.12441 0.14637 0.28442 0.0
N3953 N 0.14003 0.11671 0.30741 0.0
H3954 H 0.88144 0.16176 0.27337 0.0
H3955 H 0.83816 0.10161 0.32099 0.0
H3956 H 0.89016 0.15417 0.31964 0.0
H3957 H 0.82889 0.11242 0.27546 0.0
H3958 H 0.86006 0.11754 0.31993 0.0
H3959 H 0.86525 0.14037 0.27313 0.0
C3960 C 0.88003 0.1555 0.28347 0.0
C3961 C 0.88695 0.1599 0.29661 0.0
C3962 C 0.85331 0.11625 0.31014 0.0
C3963 C 0.86821 0.13543 0.29648 0.0
C3964 C 0.84084 0.10715 0.31073 0.0
C3965 C 0.83156 0.1059 0.29837 0.0
C3966 C 0.85648 0.12404 0.29709 0.0
C3967 C 0.83558 0.11327 0.28534 0.0
C3968 C 0.87078 0.14326 0.28333 0.0
C3969 C 0.88493 0.15121 0.3093 0.0
N3970 N 0.84764 0.12209 0.28509 0.0
N3971 N 0.87553 0.13949 0.30899 0.0
H3972 H 0.88623 0.83331 0.27495 0.0
H3973 H 0.83973 0.89162 0.32165 0.0
H3974 H 0.89124 0.83868 0.32206 0.0
H3975 H 0.8334 0.88208 0.27536 0.0
H3976 H 0.86202 0.87618 0.32142 0.0
H3977 H 0.87064 0.85516 0.27431 0.0
C3978 C 0.88415 0.8392 0.28516 0.0
C3979 C 0.88978 0.83403 0.29862 0.0
C3980 C 0.85585 0.87767 0.31129 0.0
C3981 C 0.87169 0.85897 0.29803 0.0
C3982 C 0.84317 0.8865 0.3114 0.0
C3983 C 0.83458 0.88788 0.29857 0.0
C3984 C 0.85993 0.87033 0.29822 0.0
C3985 C 0.83953 0.88107 0.28558 0.0
C3986 C 0.87524 0.8517 0.2848 0.0
C3987 C 0.88698 0.84225 0.31147 0.0
N3988 N 0.85179 0.87251 0.28578 0.0
N3989 N 0.87788 0.8542 0.31092 0.0
H3990 H 0.10033 0.83974 0.32175 0.0
H3991 H 0.15969 0.88316 0.27332 0.0
H3992 H 0.10956 0.83137 0.27571 0.0
H3993 H 0.15299 0.89172 0.31975 0.0
H3994 H 0.13819 0.86711 0.27337 0.0
H3995 H 0.11644 0.86153 0.32065 0.0
C3996 C 0.10555 0.84261 0.31137 0.0
C3997 C 0.10382 0.8336 0.29887 0.0
C3998 C 0.1413 0.87257 0.28355 0.0
C3999 C 0.12216 0.85839 0.29754 0.0
C4000 C 0.1536 0.88174 0.28353 0.0
C4001 C 0.15827 0.88858 0.29661 0.0
C4002 C 0.13367 0.87 0.29682 0.0
C4003 C 0.14981 0.88655 0.30945 0.0
C4004 C 0.11476 0.85501 0.31077 0.0
C4005 C 0.11078 0.83784 0.2857 0.0
N4006 N 0.13802 0.87723 0.3093 0.0
N4007 N 0.11972 0.84983 0.28543 0.0
H4008 H 0.15899 0.88352 0.71813 0.0
H4009 H 0.10002 0.83816 0.67098 0.0
H4010 H 0.15229 0.89048 0.67143 0.0
H4011 H 0.1107 0.82998 0.71674 0.0
H4012 H 0.11561 0.86033 0.67166 0.0
H4013 H 0.13771 0.86719 0.71855 0.0
C4014 C 0.15294 0.8817 0.70796 0.0
C4015 C 0.15757 0.88815 0.69466 0.0
C4016 C 0.11437 0.85376 0.68158 0.0
C4017 C 0.13323 0.86924 0.69502 0.0
C4018 C 0.10546 0.84114 0.68121 0.0
C4019 C 0.10428 0.83209 0.69376 0.0
C4020 C 0.12202 0.85733 0.69461 0.0
C4021 C 0.1115 0.83649 0.70673 0.0
C4022 C 0.14076 0.87237 0.70821 0.0
C4023 C 0.14914 0.88562 0.68189 0.0
N4024 N 0.12014 0.8487 0.70677 0.0
N4025 N 0.13749 0.87614 0.68232 0.0
H4026 H 0.15194 0.10083 0.66924 0.0
H4027 H 0.10532 0.15844 0.71651 0.0
H4028 H 0.15707 0.10856 0.71602 0.0
H4029 H 0.10095 0.15413 0.66923 0.0
H4030 H 0.12044 0.13626 0.71694 0.0
H4031 H 0.12975 0.11639 0.66945 0.0
C4032 C 0.14824 0.10556 0.67959 0.0
C4033 C 0.15649 0.10366 0.69258 0.0
C4034 C 0.11608 0.14002 0.70646 0.0
C4035 C 0.13126 0.12138 0.69289 0.0
C4036 C 0.10745 0.15271 0.70621 0.0
C4037 C 0.10214 0.15827 0.69278 0.0
C4038 C 0.11969 0.13295 0.69314 0.0
C4039 C 0.10497 0.15026 0.67981 0.0
C4040 C 0.13562 0.11446 0.67969 0.0
C4041 C 0.1512 0.10998 0.70569 0.0
N4042 N 0.11382 0.13811 0.68026 0.0
N4043 N 0.13903 0.11866 0.70547 0.0
H4044 H 0.88737 0.15633 0.71332 0.0
H4045 H 0.83907 0.10093 0.66526 0.0
H4046 H 0.88992 0.15431 0.66577 0.0
H4047 H 0.83604 0.10627 0.71254 0.0
H4048 H 0.86143 0.11629 0.6653 0.0
H4049 H 0.8727 0.13383 0.71331 0.0
C4050 C 0.88495 0.15102 0.70287 0.0
C4051 C 0.88958 0.15731 0.68951 0.0
C4052 C 0.85599 0.11386 0.67568 0.0
C4053 C 0.8725 0.13167 0.68935 0.0
C4054 C 0.84328 0.10507 0.67566 0.0
C4055 C 0.83556 0.10262 0.68888 0.0
C4056 C 0.86096 0.12008 0.68902 0.0
C4057 C 0.84148 0.10817 0.70206 0.0
C4058 C 0.87657 0.13816 0.70285 0.0
C4059 C 0.88641 0.14984 0.6763 0.0
N4060 N 0.85372 0.11675 0.70176 0.0
N4061 N 0.87777 0.13754 0.67651 0.0
H4062 H 0.88599 0.83149 0.71796 0.0
H4063 H 0.83888 0.88913 0.67103 0.0
H4064 H 0.89102 0.83672 0.67084 0.0
H4065 H 0.83358 0.88079 0.71768 0.0
H4066 H 0.86113 0.87362 0.67115 0.0
H4067 H 0.87022 0.85321 0.71849 0.0
C4068 C 0.88386 0.83732 0.70772 0.0
C4069 C 0.88958 0.83216 0.6943 0.0
C4070 C 0.8552 0.87539 0.68138 0.0
C4071 C 0.87129 0.85696 0.69475 0.0
C4072 C 0.84255 0.88426 0.68133 0.0
C4073 C 0.83425 0.886 0.69431 0.0
C4074 C 0.85954 0.86835 0.69453 0.0
C4075 C 0.83948 0.87951 0.70736 0.0
C4076 C 0.87485 0.84974 0.70802 0.0
C4077 C 0.8867 0.84029 0.6814 0.0
N4078 N 0.85169 0.87088 0.70709 0.0
N4079 N 0.87751 0.85217 0.6819 0.0
H4080 H 0.2735 0.16101 0.11037 0.0
H4081 H 0.32103 0.10143 0.15457 0.0
H4082 H 0.32003 0.15427 0.10272 0.0
H4083 H 0.27525 0.11159 0.16296 0.0
H4084 H 0.32021 0.11744 0.13269 0.0
H4085 H 0.27325 0.13956 0.12652 0.0
C4086 C 0.28367 0.15492 0.112 0.0
C4087 C 0.29686 0.15958 0.1054 0.0
C4088 C 0.31032 0.11599 0.13923 0.0
C4089 C 0.29672 0.13503 0.1241 0.0
C4090 C 0.31077 0.10684 0.15169 0.0
C4091 C 0.29825 0.10539 0.16073 0.0
C4092 C 0.29724 0.12361 0.13581 0.0
C4093 C 0.28523 0.11259 0.15647 0.0
C4094 C 0.28352 0.14264 0.12123 0.0
C4095 C 0.30964 0.15111 0.1077 0.0
N4096 N 0.28511 0.12146 0.14441 0.0
N4097 N 0.30931 0.13934 0.11707 0.0
H4098 H 0.89075 0.31989 0.15203 0.0
H4099 H 0.82897 0.27387 0.10918 0.0
H4100 H 0.8779 0.27512 0.16224 0.0
H4101 H 0.83696 0.32018 0.10113 0.0
H4102 H 0.85038 0.27318 0.12533 0.0
H4103 H 0.87451 0.31925 0.13032 0.0
C4104 C 0.88469 0.30987 0.14959 0.0
C4105 C 0.88548 0.29762 0.15907 0.0
C4106 C 0.84757 0.28349 0.11997 0.0
C4107 C 0.867 0.29681 0.13436 0.0
C4108 C 0.83531 0.28389 0.11073 0.0
C4109 C 0.83102 0.29717 0.10401 0.0
C4110 C 0.85554 0.2965 0.12269 0.0
C4111 C 0.83983 0.30974 0.10621 0.0
C4112 C 0.87541 0.30953 0.13724 0.0
C4113 C 0.87744 0.28491 0.15538 0.0
N4114 N 0.85158 0.30917 0.11556 0.0
N4115 N 0.86848 0.28488 0.1434 0.0
H4116 H 0.68159 0.90255 0.14054 0.0
H4117 H 0.70078 0.81809 0.12999 0.0
H4118 H 0.67599 0.87045 0.17536 0.0
H4119 H 0.67969 0.84212 0.09459 0.0
H4120 H 0.69687 0.83919 0.14631 0.0
H4121 H 0.68549 0.88218 0.12289 0.0
C4122 C 0.68117 0.89124 0.14444 0.0
C4123 C 0.67845 0.88813 0.15939 0.0
C4124 C 0.69316 0.83984 0.13495 0.0
C4125 C 0.68318 0.86506 0.1395 0.0
C4126 C 0.69546 0.82787 0.1256 0.0
C4127 C 0.69051 0.82836 0.11092 0.0
C4128 C 0.68613 0.85252 0.12954 0.0
C4129 C 0.68359 0.84129 0.10587 0.0
C4130 C 0.68334 0.8797 0.1344 0.0
C4131 C 0.67799 0.87333 0.16391 0.0
N4132 N 0.68166 0.85296 0.11517 0.0
N4133 N 0.68049 0.86234 0.15404 0.0
H4134 H 0.15259 0.6701 0.10032 0.0
H4135 H 0.10775 0.71712 0.15959 0.0
H4136 H 0.15839 0.7167 0.10855 0.0
H4137 H 0.10269 0.66997 0.1548 0.0
H4138 H 0.12249 0.71763 0.13716 0.0
H4139 H 0.13082 0.67031 0.11648 0.0
C4140 C 0.14912 0.68042 0.10529 0.0
C4141 C 0.15745 0.69335 0.10334 0.0
C4142 C 0.11807 0.70716 0.14088 0.0
C4143 C 0.13269 0.69366 0.12174 0.0
C4144 C 0.10965 0.70687 0.15371 0.0
C4145 C 0.10424 0.69344 0.15919 0.0
C4146 C 0.12138 0.69388 0.13357 0.0
C4147 C 0.10678 0.68053 0.15098 0.0
C4148 C 0.13674 0.68052 0.11454 0.0
C4149 C 0.15246 0.70641 0.10998 0.0
N4150 N 0.11543 0.68102 0.13868 0.0
N4151 N 0.14052 0.70619 0.11898 0.0
H4152 H 0.27235 0.87951 0.8326 0.0
H4153 H 0.321 0.83562 0.89126 0.0
H4154 H 0.31904 0.88706 0.83822 0.0
H4155 H 0.27443 0.82888 0.88383 0.0
H4156 H 0.32004 0.85744 0.87516 0.0
H4157 H 0.2724 0.86413 0.85462 0.0
C4158 C 0.28261 0.87801 0.83856 0.0
C4159 C 0.29576 0.88433 0.83345 0.0
C4160 C 0.31001 0.85129 0.87726 0.0
C4161 C 0.29597 0.86651 0.85861 0.0
C4162 C 0.31054 0.83888 0.88645 0.0
C4163 C 0.29783 0.83028 0.88863 0.0
C4164 C 0.29666 0.85509 0.87031 0.0
C4165 C 0.28456 0.835 0.88221 0.0
C4166 C 0.28264 0.86923 0.85117 0.0
C4167 C 0.30868 0.88225 0.84175 0.0
N4168 N 0.28437 0.84698 0.87325 0.0
N4169 N 0.30853 0.87329 0.85382 0.0
H4170 H 0.15893 0.2749 0.88584 0.0
H4171 H 0.10058 0.32168 0.83935 0.0
H4172 H 0.15303 0.32186 0.89154 0.0
H4173 H 0.1104 0.27551 0.83259 0.0
H4174 H 0.11617 0.3214 0.86154 0.0
H4175 H 0.1375 0.27435 0.8697 0.0
C4176 C 0.15302 0.2851 0.88378 0.0
C4177 C 0.15791 0.29849 0.88981 0.0
C4178 C 0.11473 0.3113 0.85529 0.0
C4179 C 0.13342 0.298 0.8711 0.0
C4180 C 0.10581 0.31144 0.84266 0.0
C4181 C 0.10441 0.29866 0.83399 0.0
C4182 C 0.12215 0.29826 0.85925 0.0
C4183 C 0.11138 0.28569 0.83879 0.0
C4184 C 0.14076 0.28479 0.87455 0.0
C4185 C 0.14967 0.31132 0.887 0.0
N4186 N 0.12002 0.28587 0.851 0.0
N4187 N 0.13794 0.31082 0.87761 0.0
H4188 H 0.67238 0.15678 0.89303 0.0
H4189 H 0.71994 0.11596 0.83125 0.0
H4190 H 0.71792 0.1664 0.88285 0.0
H4191 H 0.67421 0.10561 0.83968 0.0
H4192 H 0.72021 0.13158 0.85309 0.0
H4193 H 0.6736 0.1353 0.87652 0.0
C4194 C 0.68268 0.15425 0.88751 0.0
C4195 C 0.69499 0.16353 0.88909 0.0
C4196 C 0.71012 0.12581 0.85029 0.0
C4197 C 0.69645 0.13911 0.87028 0.0
C4198 C 0.70996 0.1169 0.83778 0.0
C4199 C 0.69696 0.10968 0.83351 0.0
C4200 C 0.69712 0.12775 0.85851 0.0
C4201 C 0.68444 0.11108 0.84254 0.0
C4202 C 0.68336 0.14202 0.87808 0.0
C4203 C 0.70807 0.15972 0.88175 0.0
N4204 N 0.68475 0.12017 0.85452 0.0
N4205 N 0.7084 0.1479 0.87258 0.0
H4206 H 0.89209 0.67127 0.83827 0.0
H4207 H 0.83114 0.71796 0.88136 0.0
H4208 H 0.88187 0.71713 0.83008 0.0
H4209 H 0.83876 0.67163 0.88962 0.0
H4210 H 0.85272 0.7185 0.86546 0.0
H4211 H 0.87562 0.6718 0.85979 0.0
C4212 C 0.88657 0.68149 0.84112 0.0
C4213 C 0.88815 0.69411 0.83224 0.0
C4214 C 0.8498 0.70821 0.87082 0.0
C4215 C 0.86938 0.69478 0.85673 0.0
C4216 C 0.83744 0.7079 0.8799 0.0
C4217 C 0.83301 0.69467 0.88662 0.0
C4218 C 0.85773 0.69514 0.86821 0.0
C4219 C 0.84175 0.68203 0.88454 0.0
C4220 C 0.87715 0.68177 0.85337 0.0
C4221 C 0.88079 0.70706 0.83645 0.0
N4222 N 0.8536 0.68252 0.87531 0.0
N4223 N 0.87165 0.70702 0.8483 0.0
H4224 H 0.16248 0.27253 0.10906 0.0
H4225 H 0.10054 0.31809 0.15206 0.0
H4226 H 0.15401 0.31875 0.10096 0.0
H4227 H 0.11386 0.27348 0.16234 0.0
H4228 H 0.11652 0.31747 0.13016 0.0
H4229 H 0.14104 0.27162 0.12516 0.0
C4230 C 0.15602 0.28248 0.11058 0.0
C4231 C 0.16019 0.29581 0.10389 0.0
C4232 C 0.11577 0.30777 0.13713 0.0
C4233 C 0.13565 0.29489 0.12251 0.0
C4234 C 0.10664 0.3081 0.14959 0.0
C4235 C 0.10608 0.2959 0.15915 0.0
C4236 C 0.12426 0.29511 0.13423 0.0
C4237 C 0.11416 0.28323 0.15543 0.0
C4238 C 0.14375 0.28196 0.11979 0.0
C4239 C 0.15124 0.30828 0.10604 0.0
N4240 N 0.12298 0.28322 0.14334 0.0
N4241 N 0.13949 0.30759 0.11537 0.0
H4242 H 0.15153 0.67109 0.89115 0.0
H4243 H 0.10708 0.71819 0.83155 0.0
H4244 H 0.15915 0.71714 0.88137 0.0
H4245 H 0.10007 0.6715 0.83819 0.0
H4246 H 0.12278 0.71871 0.85332 0.0
H4247 H 0.12956 0.67172 0.8753 0.0
C4248 C 0.14845 0.68138 0.88587 0.0
C4249 C 0.15731 0.69401 0.88734 0.0
C4250 C 0.11772 0.70835 0.85015 0.0
C4251 C 0.13231 0.69481 0.86929 0.0
C4252 C 0.10875 0.70805 0.83769 0.0
C4253 C 0.1025 0.69472 0.83291 0.0
C4254 C 0.12068 0.69518 0.8578 0.0
C4255 C 0.10481 0.68198 0.84145 0.0
C4256 C 0.13595 0.68172 0.87681 0.0
C4257 C 0.1528 0.70706 0.88032 0.0
N4258 N 0.11395 0.68246 0.85337 0.0
N4259 N 0.14071 0.70707 0.87151 0.0
H4260 H 0.2805 0.16002 0.88262 0.0
H4261 H 0.33498 0.11361 0.83342 0.0
H4262 H 0.32757 0.16144 0.88973 0.0
H4263 H 0.29082 0.09845 0.8429 0.0
H4264 H 0.33245 0.13221 0.85292 0.0
H4265 H 0.28379 0.13825 0.86695 0.0
C4266 C 0.29151 0.15566 0.88098 0.0
C4267 C 0.30379 0.16256 0.8874 0.0
C4268 C 0.32339 0.12469 0.85082 0.0
C4269 C 0.30764 0.13789 0.86934 0.0
C4270 C 0.3248 0.11414 0.83967 0.0
C4271 C 0.31306 0.10455 0.83652 0.0
C4272 C 0.31005 0.12583 0.85862 0.0
C4273 C 0.30013 0.10565 0.84498 0.0
C4274 C 0.29337 0.14323 0.87209 0.0
C4275 C 0.31781 0.15642 0.88499 0.0
N4276 N 0.29889 0.11625 0.85552 0.0
N4277 N 0.31939 0.14455 0.87594 0.0
H4278 H 0.88232 0.27374 0.83363 0.0
H4279 H 0.83822 0.32208 0.89258 0.0
H4280 H 0.88969 0.32048 0.83948 0.0
H4281 H 0.83022 0.27598 0.88341 0.0
H4282 H 0.8601 0.32109 0.8766 0.0
H4283 H 0.86653 0.27372 0.85534 0.0
C4284 C 0.88071 0.284 0.83959 0.0
C4285 C 0.88711 0.29718 0.8346 0.0
C4286 C 0.85365 0.31117 0.87827 0.0
C4287 C 0.8688 0.2973 0.85942 0.0
C4288 C 0.8412 0.31171 0.8874 0.0
C4289 C 0.83226 0.29915 0.88911 0.0
C4290 C 0.85716 0.29795 0.87091 0.0
C4291 C 0.83663 0.286 0.8822 0.0
C4292 C 0.87168 0.28398 0.85201 0.0
C4293 C 0.88486 0.31009 0.84291 0.0
N4294 N 0.84867 0.28579 0.87333 0.0
N4295 N 0.87566 0.30989 0.8548 0.0
H4296 H 0.68087 0.90245 0.85271 0.0
H4297 H 0.69971 0.81818 0.8641 0.0
H4298 H 0.67402 0.86991 0.81852 0.0
H4299 H 0.67887 0.84245 0.89946 0.0
H4300 H 0.69555 0.8391 0.84761 0.0
H4301 H 0.68477 0.88229 0.8706 0.0
C4302 C 0.68016 0.89109 0.849 0.0
C4303 C 0.67712 0.88779 0.83415 0.0
C4304 C 0.69195 0.83984 0.859 0.0
C4305 C 0.68186 0.86496 0.8543 0.0
C4306 C 0.6944 0.82798 0.86844 0.0
C4307 C 0.68959 0.82859 0.88316 0.0
C4308 C 0.68492 0.85254 0.86436 0.0
C4309 C 0.68267 0.84154 0.88816 0.0
C4310 C 0.68233 0.87967 0.85918 0.0
C4311 C 0.67629 0.87292 0.82988 0.0
N4312 N 0.6806 0.85311 0.87877 0.0
N4313 N 0.67882 0.86206 0.83987 0.0
H4314 H 0.83918 0.66827 0.10039 0.0
H4315 H 0.88516 0.71614 0.1582 0.0
H4316 H 0.83371 0.71501 0.10799 0.0
H4317 H 0.88957 0.66883 0.15455 0.0
H4318 H 0.87007 0.71626 0.13599 0.0
H4319 H 0.86105 0.66858 0.11646 0.0
C4320 C 0.84273 0.67862 0.10523 0.0
C4321 C 0.83449 0.69158 0.10311 0.0
C4322 C 0.87443 0.70583 0.13991 0.0
C4323 C 0.85936 0.69203 0.12135 0.0
C4324 C 0.88305 0.70577 0.15261 0.0
C4325 C 0.88837 0.69242 0.15836 0.0
C4326 C 0.87084 0.69242 0.133 0.0
C4327 C 0.88555 0.67934 0.15052 0.0
C4328 C 0.85516 0.67879 0.11441 0.0
C4329 C 0.83956 0.70471 0.10956 0.0
N4330 N 0.87672 0.67962 0.13835 0.0
N4331 N 0.85157 0.70456 0.11847 0.0
H4332 H 0.32316 0.8399 0.10162 0.0
H4333 H 0.2749 0.88655 0.15857 0.0
H4334 H 0.27657 0.83392 0.10947 0.0
H4335 H 0.32205 0.89176 0.15439 0.0
H4336 H 0.2749 0.8708 0.13682 0.0
H4337 H 0.32257 0.86215 0.11717 0.0
C4338 C 0.31277 0.84342 0.10638 0.0
C4339 C 0.29994 0.83493 0.1045 0.0
C4340 C 0.28527 0.87547 0.14052 0.0
C4341 C 0.29919 0.86022 0.12218 0.0
C4342 C 0.28526 0.88447 0.15297 0.0
C4343 C 0.29853 0.89023 0.15843 0.0
C4344 C 0.29868 0.87196 0.13358 0.0
C4345 C 0.31159 0.88741 0.15058 0.0
C4346 C 0.31245 0.85607 0.11528 0.0
C4347 C 0.28678 0.83997 0.11087 0.0
N4348 N 0.31139 0.87823 0.13866 0.0
N4349 N 0.28678 0.85218 0.11951 0.0
H4350 H 0.67351 0.1558 0.09892 0.0
H4351 H 0.72057 0.11592 0.1617 0.0
H4352 H 0.71877 0.1661 0.1097 0.0
H4353 H 0.67512 0.10496 0.15248 0.0
H4354 H 0.721 0.13155 0.13987 0.0
H4355 H 0.67475 0.1345 0.11562 0.0
C4356 C 0.68376 0.15346 0.10461 0.0
C4357 C 0.69598 0.16288 0.10313 0.0
C4358 C 0.71094 0.12565 0.14251 0.0
C4359 C 0.69745 0.13865 0.12219 0.0
C4360 C 0.71069 0.11673 0.15501 0.0
C4361 C 0.69771 0.10933 0.15905 0.0
C4362 C 0.69806 0.12739 0.13405 0.0
C4363 C 0.68532 0.11058 0.14982 0.0
C4364 C 0.68445 0.14133 0.11416 0.0
C4365 C 0.70899 0.1593 0.11071 0.0
N4366 N 0.68573 0.11965 0.13784 0.0
N4367 N 0.70933 0.14757 0.12 0.0
H4368 H 0.60007 0.65192 0.82349 0.0
H4369 H 0.65893 0.60738 0.77561 0.0
H4370 H 0.6089 0.6591 0.77718 0.0
H4371 H 0.65358 0.601 0.82256 0.0
H4372 H 0.63694 0.62276 0.77538 0.0
H4373 H 0.61598 0.62996 0.82277 0.0
C4374 C 0.60514 0.64873 0.81313 0.0
C4375 C 0.60341 0.65747 0.80044 0.0
C4376 C 0.64044 0.61791 0.78574 0.0
C4377 C 0.62151 0.63251 0.79954 0.0
C4378 C 0.65303 0.60913 0.78587 0.0
C4379 C 0.65823 0.60315 0.79917 0.0
C4380 C 0.6331 0.62098 0.79905 0.0
C4381 C 0.64999 0.60553 0.81208 0.0
C4382 C 0.61423 0.63624 0.81274 0.0
C4383 C 0.61016 0.65284 0.7873 0.0
N4384 N 0.63794 0.6145 0.81176 0.0
N4385 N 0.619 0.64078 0.78723 0.0
H4386 H 0.33765 0.59894 0.82101 0.0
H4387 H 0.3819 0.65813 0.7732 0.0
H4388 H 0.3297 0.60848 0.77495 0.0
H4389 H 0.3895 0.65157 0.81982 0.0
H4390 H 0.36604 0.63648 0.77295 0.0
H4391 H 0.35964 0.61474 0.82012 0.0
C4392 C 0.34065 0.60416 0.81067 0.0
C4393 C 0.3317 0.60262 0.7981 0.0
C4394 C 0.37125 0.63965 0.78324 0.0
C4395 C 0.35673 0.62062 0.79702 0.0
C4396 C 0.38032 0.65203 0.78338 0.0
C4397 C 0.3868 0.6568 0.79661 0.0
C4398 C 0.36842 0.63205 0.79647 0.0
C4399 C 0.38459 0.64832 0.80941 0.0
C4400 C 0.35317 0.61319 0.81018 0.0
C4401 C 0.33612 0.60957 0.78499 0.0
N4402 N 0.37536 0.63647 0.80909 0.0
N4403 N 0.34823 0.61835 0.78483 0.0
H4404 H 0.38159 0.33264 0.77264 0.0
H4405 H 0.33762 0.39193 0.82071 0.0
H4406 H 0.39004 0.33981 0.81902 0.0
H4407 H 0.32834 0.3812 0.77517 0.0
H4408 H 0.35972 0.37629 0.81951 0.0
H4409 H 0.36522 0.35391 0.77254 0.0
C4410 C 0.38009 0.33879 0.7828 0.0
C4411 C 0.38697 0.3343 0.79592 0.0
C4412 C 0.35292 0.37753 0.80975 0.0
C4413 C 0.36803 0.35862 0.79596 0.0
C4414 C 0.34034 0.38647 0.81041 0.0
C4415 C 0.331 0.38765 0.79809 0.0
C4416 C 0.35616 0.36985 0.79665 0.0
C4417 C 0.33506 0.3804 0.78502 0.0
C4418 C 0.37074 0.35096 0.78274 0.0
C4419 C 0.38484 0.34285 0.80869 0.0
N4420 N 0.34725 0.37174 0.78469 0.0
N4421 N 0.37534 0.35449 0.80846 0.0
H4422 H 0.60753 0.33257 0.77437 0.0
H4423 H 0.65211 0.39168 0.82197 0.0
H4424 H 0.60075 0.3385 0.82119 0.0
H4425 H 0.65908 0.38288 0.77562 0.0
H4426 H 0.63026 0.37564 0.82137 0.0
H4427 H 0.62313 0.35441 0.77406 0.0
C4428 C 0.60924 0.33857 0.78458 0.0
C4429 C 0.60306 0.33358 0.79787 0.0
C4430 C 0.63648 0.37741 0.8113 0.0
C4431 C 0.62115 0.35854 0.79767 0.0
C4432 C 0.64891 0.38658 0.81163 0.0
C4433 C 0.65755 0.38838 0.79889 0.0
C4434 C 0.6327 0.37012 0.79812 0.0
C4435 C 0.6529 0.38157 0.78578 0.0
C4436 C 0.61815 0.35107 0.78441 0.0
C4437 C 0.60541 0.34194 0.81073 0.0
N4438 N 0.64089 0.37266 0.78578 0.0
N4439 N 0.6145 0.3539 0.81037 0.0
H4440 H 0.65935 0.38297 0.21963 0.0
H4441 H 0.60057 0.33813 0.17195 0.0
H4442 H 0.65363 0.38955 0.17276 0.0
H4443 H 0.60948 0.3311 0.21827 0.0
H4444 H 0.61634 0.36019 0.17262 0.0
H4445 H 0.63742 0.36749 0.21995 0.0
C4446 C 0.65336 0.38125 0.20941 0.0
C4447 C 0.65845 0.38731 0.1961 0.0
C4448 C 0.61464 0.35392 0.18266 0.0
C4449 C 0.63341 0.36935 0.19631 0.0
C4450 C 0.60563 0.34137 0.1823 0.0
C4451 C 0.60395 0.33264 0.19502 0.0
C4452 C 0.6219 0.35773 0.19585 0.0
C4453 C 0.6107 0.33734 0.20814 0.0
C4454 C 0.64082 0.37241 0.20958 0.0
C4455 C 0.65012 0.38496 0.18323 0.0
N4456 N 0.61946 0.34947 0.20817 0.0
N4457 N 0.63812 0.37592 0.18359 0.0
H4458 H 0.60033 0.65138 0.17002 0.0
H4459 H 0.66062 0.60774 0.2169 0.0
H4460 H 0.60966 0.65858 0.21623 0.0
H4461 H 0.65428 0.60092 0.17013 0.0
H4462 H 0.63852 0.62293 0.21749 0.0
H4463 H 0.61657 0.62967 0.17048 0.0
C4464 C 0.60558 0.64824 0.18031 0.0
C4465 C 0.60388 0.65693 0.19304 0.0
C4466 C 0.64183 0.61803 0.20709 0.0
C4467 C 0.62238 0.63226 0.19364 0.0
C4468 C 0.65448 0.60936 0.20675 0.0
C4469 C 0.65943 0.60331 0.19339 0.0
C4470 C 0.63415 0.6209 0.19393 0.0
C4471 C 0.65089 0.60552 0.18064 0.0
C4472 C 0.61486 0.6359 0.18055 0.0
C4473 C 0.61088 0.65237 0.20608 0.0
N4474 N 0.63876 0.61438 0.18116 0.0
N4475 N 0.61991 0.64045 0.206 0.0
H4476 H 0.38719 0.65521 0.16707 0.0
H4477 H 0.33164 0.60529 0.21402 0.0
H4478 H 0.38071 0.65798 0.21423 0.0
H4479 H 0.33346 0.60366 0.16641 0.0
H4480 H 0.35295 0.62155 0.21411 0.0
H4481 H 0.37065 0.63367 0.16641 0.0
C4482 C 0.38247 0.65115 0.17729 0.0
C4483 C 0.38515 0.65848 0.19071 0.0
C4484 C 0.34881 0.6176 0.20361 0.0
C4485 C 0.3664 0.63396 0.19004 0.0
C4486 C 0.33663 0.6083 0.20356 0.0
C4487 C 0.33067 0.60332 0.19018 0.0
C4488 C 0.355 0.62222 0.19016 0.0
C4489 C 0.33772 0.60734 0.17696 0.0
C4490 C 0.37302 0.63891 0.1769 0.0
C4491 C 0.37877 0.65281 0.20361 0.0
N4492 N 0.34942 0.61679 0.17725 0.0
N4493 N 0.36966 0.64097 0.20294 0.0
H4494 H 0.3847 0.3317 0.21869 0.0
H4495 H 0.33872 0.39051 0.17213 0.0
H4496 H 0.39044 0.33781 0.17176 0.0
H4497 H 0.33219 0.38092 0.21839 0.0
H4498 H 0.36093 0.37499 0.17241 0.0
H4499 H 0.36903 0.35348 0.21942 0.0
C4500 C 0.38276 0.33774 0.20854 0.0
C4501 C 0.38864 0.3328 0.1951 0.0
C4502 C 0.35474 0.37648 0.18253 0.0
C4503 C 0.37046 0.35768 0.19578 0.0
C4504 C 0.3421 0.38536 0.18239 0.0
C4505 C 0.33346 0.38676 0.1952 0.0
C4506 C 0.35874 0.36909 0.19559 0.0
C4507 C 0.33835 0.37991 0.20819 0.0
C4508 C 0.37381 0.3502 0.20895 0.0
C4509 C 0.386 0.3412 0.18233 0.0
N4510 N 0.35056 0.37128 0.20801 0.0
N4511 N 0.37686 0.35312 0.18293 0.0
H4512 H 0.77473 0.66058 0.60818 0.0
H4513 H 0.82125 0.60113 0.65345 0.0
H4514 H 0.82142 0.6539 0.60161 0.0
H4515 H 0.77518 0.611 0.66052 0.0
H4516 H 0.82089 0.61692 0.6314 0.0
H4517 H 0.77405 0.63892 0.62402 0.0
C4518 C 0.78484 0.65445 0.60998 0.0
C4519 C 0.7982 0.65919 0.6038 0.0
C4520 C 0.81083 0.61544 0.63768 0.0
C4521 C 0.79757 0.63442 0.62217 0.0
C4522 C 0.81102 0.60641 0.65023 0.0
C4523 C 0.79829 0.60498 0.65896 0.0
C4524 C 0.79781 0.62296 0.63387 0.0
C4525 C 0.78532 0.61201 0.65427 0.0
C4526 C 0.78445 0.64205 0.61904 0.0
C4527 C 0.81091 0.65066 0.60628 0.0
N4528 N 0.78547 0.62078 0.64214 0.0
N4529 N 0.81034 0.6388 0.61551 0.0
H4530 H 0.33126 0.77425 0.60861 0.0
H4531 H 0.39082 0.82078 0.65368 0.0
H4532 H 0.33728 0.82117 0.60271 0.0
H4533 H 0.38149 0.77449 0.66025 0.0
H4534 H 0.37474 0.82058 0.63185 0.0
H4535 H 0.35317 0.77357 0.62408 0.0
C4536 C 0.3373 0.78441 0.61048 0.0
C4537 C 0.3323 0.79783 0.6046 0.0
C4538 C 0.3764 0.81044 0.63797 0.0
C4539 C 0.35735 0.79719 0.62255 0.0
C4540 C 0.38559 0.81054 0.6504 0.0
C4541 C 0.38726 0.79769 0.65893 0.0
C4542 C 0.36895 0.79739 0.63409 0.0
C4543 C 0.38029 0.78472 0.65417 0.0
C4544 C 0.34983 0.78402 0.61932 0.0
C4545 C 0.34071 0.81061 0.60715 0.0
N4546 N 0.37136 0.78494 0.64216 0.0
N4547 N 0.35272 0.81003 0.61618 0.0
H4548 H 0.17214 0.34098 0.60245 0.0
H4549 H 0.21776 0.38583 0.66303 0.0
H4550 H 0.2178 0.33325 0.61362 0.0
H4551 H 0.1712 0.39253 0.65558 0.0
H4552 H 0.2187 0.36984 0.64148 0.0
H4553 H 0.1723 0.36287 0.61846 0.0
C4554 C 0.18224 0.34401 0.60808 0.0
C4555 C 0.19491 0.33515 0.60691 0.0
C4556 C 0.20828 0.37488 0.64443 0.0
C4557 C 0.19517 0.36008 0.62514 0.0
C4558 C 0.20774 0.38402 0.65676 0.0
C4559 C 0.19432 0.39029 0.66125 0.0
C4560 C 0.19527 0.37177 0.63659 0.0
C4561 C 0.18174 0.38779 0.65255 0.0
C4562 C 0.18232 0.35647 0.61723 0.0
C4563 C 0.20771 0.3396 0.6144 0.0
N4564 N 0.18246 0.3785 0.64074 0.0
N4565 N 0.20746 0.35165 0.62326 0.0
H4566 H 0.65288 0.17213 0.60135 0.0
H4567 H 0.60827 0.21873 0.66144 0.0
H4568 H 0.66058 0.21803 0.61173 0.0
H4569 H 0.60148 0.17201 0.65474 0.0
H4570 H 0.62441 0.21925 0.64001 0.0
H4571 H 0.63126 0.17243 0.61771 0.0
C4572 C 0.64991 0.18231 0.6069 0.0
C4573 C 0.65866 0.19502 0.60537 0.0
C4574 C 0.61933 0.20887 0.64311 0.0
C4575 C 0.63406 0.19543 0.62399 0.0
C4576 C 0.6101 0.20857 0.65537 0.0
C4577 C 0.60373 0.19525 0.66002 0.0
C4578 C 0.62242 0.19572 0.6355 0.0
C4579 C 0.60628 0.18249 0.65157 0.0
C4580 C 0.63761 0.18246 0.61625 0.0
C4581 C 0.6543 0.20791 0.61277 0.0
N4582 N 0.61564 0.18299 0.63982 0.0
N4583 N 0.6424 0.20774 0.62181 0.0
H4584 H 0.78939 0.3181 0.36289 0.0
H4585 H 0.81111 0.40205 0.35244 0.0
H4586 H 0.81176 0.34133 0.39804 0.0
H4587 H 0.81512 0.36987 0.31749 0.0
H4588 H 0.80653 0.3818 0.37006 0.0
H4589 H 0.79337 0.33928 0.3467 0.0
C4590 C 0.79499 0.32773 0.36726 0.0
C4591 C 0.80031 0.32795 0.38182 0.0
C4592 C 0.80847 0.37927 0.35853 0.0
C4593 C 0.80479 0.3522 0.36335 0.0
C4594 C 0.81103 0.39075 0.3485 0.0
C4595 C 0.81352 0.38757 0.33353 0.0
C4596 C 0.80801 0.36466 0.35338 0.0
C4597 C 0.81333 0.37278 0.32895 0.0
C4598 C 0.79733 0.33975 0.35798 0.0
C4599 C 0.80757 0.3407 0.38685 0.0
N4600 N 0.81046 0.36188 0.33881 0.0
N4601 N 0.80956 0.35241 0.37762 0.0
H4602 H 0.65343 0.8234 0.39194 0.0
H4603 H 0.60979 0.77518 0.33269 0.0
H4604 H 0.6603 0.7769 0.38398 0.0
H4605 H 0.60195 0.82179 0.33876 0.0
H4606 H 0.62519 0.7751 0.35467 0.0
H4607 H 0.63174 0.82261 0.37568 0.0
C4608 C 0.65024 0.813 0.38697 0.0
C4609 C 0.65882 0.80025 0.38908 0.0
C4610 C 0.62002 0.78535 0.35134 0.0
C4611 C 0.63414 0.79927 0.37058 0.0
C4612 C 0.61122 0.78539 0.33876 0.0
C4613 C 0.6048 0.79856 0.33378 0.0
C4614 C 0.62269 0.79864 0.35889 0.0
C4615 C 0.6068 0.81142 0.34221 0.0
C4616 C 0.6379 0.81256 0.37768 0.0
C4617 C 0.65419 0.78705 0.38244 0.0
N4618 N 0.61581 0.81121 0.35425 0.0
N4619 N 0.64227 0.78695 0.37341 0.0
H4620 H 0.17383 0.65503 0.39205 0.0
H4621 H 0.22156 0.61305 0.33111 0.0
H4622 H 0.21928 0.66474 0.38155 0.0
H4623 H 0.17578 0.60296 0.33958 0.0
H4624 H 0.22173 0.62924 0.35253 0.0
H4625 H 0.1751 0.63331 0.37588 0.0
C4626 C 0.18412 0.65248 0.38653 0.0
C4627 C 0.19639 0.66184 0.38793 0.0
C4628 C 0.21165 0.62341 0.34983 0.0
C4629 C 0.19791 0.63713 0.36949 0.0
C4630 C 0.21155 0.61417 0.33756 0.0
C4631 C 0.19857 0.60684 0.33341 0.0
C4632 C 0.19862 0.62555 0.35794 0.0
C4633 C 0.186 0.60851 0.34233 0.0
C4634 C 0.18483 0.64011 0.37729 0.0
C4635 C 0.20946 0.65799 0.38059 0.0
N4636 N 0.18626 0.61788 0.35408 0.0
N4637 N 0.20982 0.64603 0.3716 0.0
H4638 H 0.33957 0.16949 0.39177 0.0
H4639 H 0.38523 0.21772 0.33399 0.0
H4640 H 0.33282 0.21593 0.38334 0.0
H4641 H 0.39148 0.17074 0.33918 0.0
H4642 H 0.3694 0.21779 0.35568 0.0
H4643 H 0.36169 0.17023 0.37611 0.0
C4644 C 0.34287 0.17987 0.38683 0.0
C4645 C 0.33421 0.19261 0.38861 0.0
C4646 C 0.37432 0.20746 0.35221 0.0
C4647 C 0.35937 0.19354 0.3708 0.0
C4648 C 0.38337 0.20742 0.3398 0.0
C4649 C 0.38945 0.19416 0.33464 0.0
C4650 C 0.3711 0.1941 0.35941 0.0
C4651 C 0.38689 0.18119 0.34275 0.0
C4652 C 0.35546 0.18028 0.37788 0.0
C4653 C 0.339 0.20578 0.38203 0.0
N4654 N 0.37767 0.18142 0.35462 0.0
N4655 N 0.35116 0.20586 0.37333 0.0
H4656 H 0.66162 0.77188 0.60971 0.0
H4657 H 0.60029 0.81823 0.65273 0.0
H4658 H 0.65364 0.81817 0.6015 0.0
H4659 H 0.61293 0.7734 0.66289 0.0
H4660 H 0.61618 0.81739 0.63077 0.0
H4661 H 0.64012 0.77122 0.62575 0.0
C4662 C 0.65525 0.7819 0.61119 0.0
C4663 C 0.65958 0.79517 0.60449 0.0
C4664 C 0.6153 0.80769 0.63772 0.0
C4665 C 0.63498 0.79454 0.62305 0.0
C4666 C 0.60621 0.80815 0.65021 0.0
C4667 C 0.60551 0.79595 0.65976 0.0
C4668 C 0.62358 0.7949 0.63478 0.0
C4669 C 0.61336 0.78315 0.65598 0.0
C4670 C 0.64295 0.78152 0.62036 0.0
C4671 C 0.65075 0.80774 0.60658 0.0
N4672 N 0.62214 0.78302 0.64387 0.0
N4673 N 0.63896 0.80718 0.6159 0.0
H4674 H 0.60703 0.21641 0.33321 0.0
H4675 H 0.65186 0.16901 0.39234 0.0
H4676 H 0.60092 0.16944 0.33867 0.0
H4677 H 0.65822 0.21551 0.3839 0.0
H4678 H 0.63018 0.1694 0.37605 0.0
H4679 H 0.62253 0.21674 0.35511 0.0
C4680 C 0.60887 0.20616 0.33911 0.0
C4681 C 0.60291 0.19283 0.33397 0.0
C4682 C 0.63623 0.17954 0.37795 0.0
C4683 C 0.62088 0.19308 0.35903 0.0
C4684 C 0.64856 0.17934 0.38726 0.0
C4685 C 0.65699 0.1922 0.38924 0.0
C4686 C 0.63233 0.19271 0.37071 0.0
C4687 C 0.65222 0.20527 0.38246 0.0
C4688 C 0.61773 0.20635 0.35165 0.0
C4689 C 0.60543 0.17994 0.34222 0.0
N4690 N 0.64031 0.20515 0.37342 0.0
N4691 N 0.61446 0.18032 0.35423 0.0
H4692 H 0.77059 0.61454 0.33002 0.0
H4693 H 0.81748 0.6557 0.3922 0.0
H4694 H 0.816 0.60373 0.33958 0.0
H4695 H 0.7724 0.66603 0.38076 0.0
H4696 H 0.81632 0.63412 0.37583 0.0
H4697 H 0.77019 0.63078 0.3514 0.0
C4698 C 0.78047 0.61552 0.33669 0.0
C4699 C 0.79342 0.60796 0.33287 0.0
C4700 C 0.80665 0.64103 0.37707 0.0
C4701 C 0.7931 0.62673 0.35736 0.0
C4702 C 0.80729 0.65331 0.38643 0.0
C4703 C 0.7951 0.6628 0.38764 0.0
C4704 C 0.79371 0.63826 0.36896 0.0
C4705 C 0.78215 0.65917 0.37996 0.0
C4706 C 0.78023 0.62479 0.34893 0.0
C4707 C 0.80581 0.60946 0.34207 0.0
N4708 N 0.78185 0.64728 0.37088 0.0
N4709 N 0.80542 0.61886 0.3538 0.0
H4710 H 0.38068 0.77588 0.33537 0.0
H4711 H 0.33592 0.82592 0.39211 0.0
H4712 H 0.38706 0.82298 0.33877 0.0
H4713 H 0.33033 0.7789 0.38659 0.0
H4714 H 0.35778 0.82484 0.37608 0.0
H4715 H 0.36563 0.7765 0.35759 0.0
C4716 C 0.379 0.78636 0.34091 0.0
C4717 C 0.38488 0.79944 0.33511 0.0
C4718 C 0.35188 0.81475 0.37859 0.0
C4719 C 0.36739 0.80031 0.36047 0.0
C4720 C 0.33945 0.81535 0.38776 0.0
C4721 C 0.33116 0.80252 0.39042 0.0
C4722 C 0.356 0.80121 0.37218 0.0
C4723 C 0.33622 0.78911 0.38457 0.0
C4724 C 0.37041 0.78672 0.35362 0.0
C4725 C 0.3826 0.81267 0.34286 0.0
N4726 N 0.3482 0.78884 0.37563 0.0
N4727 N 0.37378 0.81283 0.35504 0.0
H4728 H 0.18139 0.40178 0.35082 0.0
H4729 H 0.19722 0.31627 0.36075 0.0
H4730 H 0.1737 0.36982 0.31628 0.0
H4731 H 0.18064 0.34216 0.39722 0.0
H4732 H 0.19361 0.33742 0.34443 0.0
H4733 H 0.18555 0.38136 0.3683 0.0
C4734 C 0.18056 0.3905 0.34694 0.0
C4735 C 0.17718 0.38744 0.33212 0.0
C4736 C 0.19082 0.33847 0.35602 0.0
C4737 C 0.18219 0.36427 0.35182 0.0
C4738 C 0.19297 0.32646 0.36536 0.0
C4739 C 0.18918 0.32745 0.38036 0.0
C4740 C 0.18509 0.35167 0.36173 0.0
C4741 C 0.18362 0.34092 0.3857 0.0
C4742 C 0.18289 0.37891 0.35689 0.0
C4743 C 0.17622 0.37265 0.32763 0.0
N4744 N 0.18179 0.35257 0.37638 0.0
N4745 N 0.17885 0.36162 0.33741 0.0
H4746 H 0.39073 0.17258 0.65271 0.0
H4747 H 0.32875 0.21846 0.61002 0.0
H4748 H 0.37862 0.21773 0.66214 0.0
H4749 H 0.33691 0.17223 0.60168 0.0
H4750 H 0.35017 0.21916 0.62613 0.0
H4751 H 0.37417 0.17299 0.63122 0.0
C4752 C 0.38477 0.18263 0.65014 0.0
C4753 C 0.38587 0.19507 0.65934 0.0
C4754 C 0.34739 0.20885 0.62072 0.0
C4755 C 0.36703 0.19561 0.6349 0.0
C4756 C 0.33513 0.20845 0.61151 0.0
C4757 C 0.3309 0.19521 0.6047 0.0
C4758 C 0.35544 0.19587 0.62335 0.0
C4759 C 0.33974 0.18265 0.60683 0.0
C4760 C 0.37531 0.18284 0.63792 0.0
C4761 C 0.37793 0.2078 0.65551 0.0
N4762 N 0.35151 0.18322 0.61617 0.0
N4763 N 0.3688 0.2077 0.64366 0.0
H4764 H 0.82025 0.39096 0.65493 0.0
H4765 H 0.77261 0.33173 0.6103 0.0
H4766 H 0.77439 0.38094 0.66305 0.0
H4767 H 0.81905 0.33865 0.6023 0.0
H4768 H 0.77249 0.35289 0.6268 0.0
H4769 H 0.8195 0.37494 0.63303 0.0
C4770 C 0.80999 0.38557 0.65199 0.0
C4771 C 0.79742 0.38708 0.66095 0.0
C4772 C 0.78272 0.34991 0.62137 0.0
C4773 C 0.79649 0.36885 0.63602 0.0
C4774 C 0.78278 0.3378 0.61194 0.0
C4775 C 0.79591 0.33329 0.60511 0.0
C4776 C 0.79592 0.35751 0.62422 0.0
C4777 C 0.80871 0.34172 0.60744 0.0
C4778 C 0.80958 0.37642 0.63953 0.0
C4779 C 0.78441 0.3799 0.65662 0.0
N4780 N 0.80846 0.35333 0.61701 0.0
N4781 N 0.78433 0.37104 0.64457 0.0
H4782 H 0.21783 0.60884 0.66142 0.0
H4783 H 0.17128 0.65267 0.60089 0.0
H4784 H 0.17125 0.60171 0.65453 0.0
H4785 H 0.21738 0.65993 0.61046 0.0
H4786 H 0.17164 0.63106 0.61727 0.0
H4787 H 0.21848 0.62442 0.63956 0.0
C4788 C 0.20774 0.61047 0.65522 0.0
C4789 C 0.19441 0.60419 0.65994 0.0
C4790 C 0.18171 0.63729 0.6156 0.0
C4791 C 0.19501 0.62223 0.63492 0.0
C4792 C 0.18152 0.64958 0.60624 0.0
C4793 C 0.19426 0.65825 0.60453 0.0
C4794 C 0.19474 0.63366 0.6232 0.0
C4795 C 0.20723 0.65374 0.61166 0.0
C4796 C 0.20811 0.61937 0.6427 0.0
C4797 C 0.18173 0.60646 0.65132 0.0
N4798 N 0.20709 0.64185 0.62076 0.0
N4799 N 0.18228 0.61551 0.63932 0.0
loop_
_geom_bond_atom_site_label_1
_geom_bond_atom_site_label_2
_geom_bond_distance
_geom_bond_site_symmetry_2
_ccdc_geom_bond_type
C0 O1 1.306 . S
C0 O3 1.160 . S
O1 C0 1.306 . S
O1 Cd2 2.228 . S
Cd2 O1 2.228 . S
Cd2 O6 2.273 . S
Cd2 O10 2.277 . S
O3 C0 1.160 . S
O3 Cd4 2.203 . S
Cd4 O3 2.203 . S
Cd4 O6 2.411 . S
Cd4 O7 2.333 . S
Cd4 O8 2.352 . S
Cd4 O12 2.277 . S
Cd4 O13 2.356 . S
C5 O10 1.209 . S
C5 O12 1.226 . S
O6 Cd2 2.273 . S
O6 Cd4 2.411 . S
O6 C9 1.320 . S
O7 Cd4 2.333 . S
O7 C9 1.214 . S
O8 Cd4 2.352 . S
O8 C11 1.258 . S
C9 O6 1.320 . S
C9 O7 1.214 . S
O10 Cd2 2.277 . S
O10 C5 1.209 . S
C11 O8 1.258 . S
C11 O13 1.282 . S
O12 Cd4 2.277 . S
O12 C5 1.226 . S
O13 Cd4 2.356 . S
O13 C11 1.282 . S
C14 O15 1.306 . S
C14 O17 1.160 . S
O15 C14 1.306 . S
O15 Cd16 2.228 . S
Cd16 O15 2.228 . S
Cd16 O20 2.273 . S
Cd16 O24 2.277 . S
O17 C14 1.160 . S
O17 Cd18 2.203 . S
Cd18 O17 2.203 . S
Cd18 O20 2.411 . S
Cd18 O21 2.333 . S
Cd18 O22 2.352 . S
Cd18 O26 2.277 . S
Cd18 O27 2.356 . S
C19 O24 1.209 . S
C19 O26 1.226 . S
O20 Cd16 2.273 . S
O20 Cd18 2.411 . S
O20 C23 1.320 . S
O21 Cd18 2.333 . S
O21 C23 1.214 . S
O22 Cd18 2.352 . S
O22 C25 1.258 . S
C23 O20 1.320 . S
C23 O21 1.214 . S
O24 Cd16 2.277 . S
O24 C19 1.209 . S
C25 O22 1.258 . S
C25 O27 1.282 . S
O26 Cd18 2.277 . S
O26 C19 1.226 . S
O27 Cd18 2.356 . S
O27 C25 1.282 . S
C28 O29 1.306 . S
C28 O31 1.160 . S
O29 C28 1.306 . S
O29 Cd30 2.228 . S
Cd30 O29 2.228 . S
Cd30 O34 2.273 . S
Cd30 O38 2.277 . S
O31 C28 1.160 . S
O31 Cd32 2.203 . S
Cd32 O31 2.203 . S
Cd32 O34 2.411 . S
Cd32 O35 2.333 . S
Cd32 O36 2.352 . S
Cd32 O40 2.277 . S
Cd32 O41 2.356 . S
C33 O38 1.209 . S
C33 O40 1.226 . S
O34 Cd30 2.273 . S
O34 Cd32 2.411 . S
O34 C37 1.320 . S
O35 Cd32 2.333 . S
O35 C37 1.214 . S
O36 Cd32 2.352 . S
O36 C39 1.258 . S
C37 O34 1.320 . S
C37 O35 1.214 . S
O38 Cd30 2.277 . S
O38 C33 1.209 . S
C39 O36 1.258 . S
C39 O41 1.282 . S
O40 Cd32 2.277 . S
O40 C33 1.226 . S
O41 Cd32 2.356 . S
O41 C39 1.282 . S
C42 O43 1.306 . S
C42 O45 1.160 . S
O43 C42 1.306 . S
O43 Cd44 2.228 . S
Cd44 O43 2.228 . S
Cd44 O48 2.273 . S
Cd44 O52 2.277 . S
O45 C42 1.160 . S
O45 Cd46 2.203 . S
Cd46 O45 2.203 . S
Cd46 O48 2.411 . S
Cd46 O49 2.333 . S
Cd46 O50 2.352 . S
Cd46 O54 2.277 . S
Cd46 O55 2.356 . S
C47 O52 1.209 . S
C47 O54 1.226 . S
O48 Cd44 2.273 . S
O48 Cd46 2.411 . S
O48 C51 1.320 . S
O49 Cd46 2.333 . S
O49 C51 1.214 . S
O50 Cd46 2.352 . S
O50 C53 1.258 . S
C51 O48 1.320 . S
C51 O49 1.214 . S
O52 Cd44 2.277 . S
O52 C47 1.209 . S
C53 O50 1.258 . S
C53 O55 1.282 . S
O54 Cd46 2.277 . S
O54 C47 1.226 . S
O55 Cd46 2.356 . S
O55 C53 1.282 . S
C56 O57 1.306 . S
C56 O59 1.160 . S
O57 C56 1.306 . S
O57 Cd58 2.228 . S
Cd58 O57 2.228 . S
Cd58 O62 2.273 . S
Cd58 O66 2.277 . S
O59 C56 1.160 . S
O59 Cd60 2.203 . S
Cd60 O59 2.203 . S
Cd60 O62 2.411 . S
Cd60 O63 2.333 . S
Cd60 O64 2.352 . S
Cd60 O68 2.277 . S
Cd60 O69 2.356 . S
C61 O66 1.209 . S
C61 O68 1.226 . S
O62 Cd58 2.273 . S
O62 Cd60 2.411 . S
O62 C65 1.320 . S
O63 Cd60 2.333 . S
O63 C65 1.214 . S
O64 Cd60 2.352 . S
O64 C67 1.258 . S
C65 O62 1.320 . S
C65 O63 1.214 . S
O66 Cd58 2.277 . S
O66 C61 1.209 . S
C67 O64 1.258 . S
C67 O69 1.282 . S
O68 Cd60 2.277 . S
O68 C61 1.226 . S
O69 Cd60 2.356 . S
O69 C67 1.282 . S
C70 O71 1.306 . S
C70 O73 1.160 . S
O71 C70 1.306 . S
O71 Cd72 2.228 . S
Cd72 O71 2.228 . S
Cd72 O76 2.273 . S
Cd72 O80 2.277 . S
O73 C70 1.160 . S
O73 Cd74 2.203 . S
Cd74 O73 2.203 . S
Cd74 O76 2.411 . S
Cd74 O77 2.333 . S
Cd74 O78 2.352 . S
Cd74 O82 2.277 . S
Cd74 O83 2.356 . S
C75 O80 1.209 . S
C75 O82 1.226 . S
O76 Cd72 2.273 . S
O76 Cd74 2.411 . S
O76 C79 1.320 . S
O77 Cd74 2.333 . S
O77 C79 1.214 . S
O78 Cd74 2.352 . S
O78 C81 1.258 . S
C79 O76 1.320 . S
C79 O77 1.214 . S
O80 Cd72 2.277 . S
O80 C75 1.209 . S
C81 O78 1.258 . S
C81 O83 1.282 . S
O82 Cd74 2.277 . S
O82 C75 1.226 . S
O83 Cd74 2.356 . S
O83 C81 1.282 . S
C84 O85 1.306 . S
C84 O87 1.160 . S
O85 C84 1.306 . S
O85 Cd86 2.228 . S
Cd86 O85 2.228 . S
Cd86 O90 2.273 . S
Cd86 O94 2.277 . S
O87 C84 1.160 . S
O87 Cd88 2.203 . S
Cd88 O87 2.203 . S
Cd88 O90 2.411 . S
Cd88 O91 2.333 . S
Cd88 O92 2.352 . S
Cd88 O96 2.277 . S
Cd88 O97 2.356 . S
C89 O94 1.209 . S
C89 O96 1.226 . S
O90 Cd86 2.273 . S
O90 Cd88 2.411 . S
O90 C93 1.320 . S
O91 Cd88 2.333 . S
O91 C93 1.214 . S
O92 Cd88 2.352 . S
O92 C95 1.258 . S
C93 O90 1.320 . S
C93 O91 1.214 . S
O94 Cd86 2.277 . S
O94 C89 1.209 . S
C95 O92 1.258 . S
C95 O97 1.282 . S
O96 Cd88 2.277 . S
O96 C89 1.226 . S
O97 Cd88 2.356 . S
O97 C95 1.282 . S
C98 O99 1.306 . S
C98 O101 1.160 . S
O99 C98 1.306 . S
O99 Cd100 2.228 . S
Cd100 O99 2.228 . S
Cd100 O104 2.273 . S
Cd100 O108 2.277 . S
O101 C98 1.160 . S
O101 Cd102 2.203 . S
Cd102 O101 2.203 . S
Cd102 O104 2.411 . S
Cd102 O105 2.333 . S
Cd102 O106 2.352 . S
Cd102 O110 2.277 . S
Cd102 O111 2.356 . S
C103 O108 1.209 . S
C103 O110 1.226 . S
O104 Cd100 2.273 . S
O104 Cd102 2.411 . S
O104 C107 1.320 . S
O105 Cd102 2.333 . S
O105 C107 1.214 . S
O106 Cd102 2.352 . S
O106 C109 1.258 . S
C107 O104 1.320 . S
C107 O105 1.214 . S
O108 Cd100 2.277 . S
O108 C103 1.209 . S
C109 O106 1.258 . S
C109 O111 1.282 . S
O110 Cd102 2.277 . S
O110 C103 1.226 . S
O111 Cd102 2.356 . S
O111 C109 1.282 . S
C112 O113 1.306 . S
C112 O115 1.160 . S
O113 C112 1.306 . S
O113 Cd114 2.228 . S
Cd114 O113 2.228 . S
Cd114 O118 2.273 . S
Cd114 O122 2.277 . S
O115 C112 1.160 . S
O115 Cd116 2.203 . S
Cd116 O115 2.203 . S
Cd116 O118 2.411 . S
Cd116 O119 2.333 . S
Cd116 O120 2.352 . S
Cd116 O124 2.277 . S
Cd116 O125 2.356 . S
C117 O122 1.209 . S
C117 O124 1.226 . S
O118 Cd114 2.273 . S
O118 Cd116 2.411 . S
O118 C121 1.320 . S
O119 Cd116 2.333 . S
O119 C121 1.214 . S
O120 Cd116 2.352 . S
O120 C123 1.258 . S
C121 O118 1.320 . S
C121 O119 1.214 . S
O122 Cd114 2.277 . S
O122 C117 1.209 . S
C123 O120 1.258 . S
C123 O125 1.282 . S
O124 Cd116 2.277 . S
O124 C117 1.226 . S
O125 Cd116 2.356 . S
O125 C123 1.282 . S
C126 O127 1.306 . S
C126 O129 1.160 . S
O127 C126 1.306 . S
O127 Cd128 2.228 . S
Cd128 O127 2.228 . S
Cd128 O132 2.273 . S
Cd128 O136 2.277 . S
O129 C126 1.160 . S
O129 Cd130 2.203 . S
Cd130 O129 2.203 . S
Cd130 O132 2.411 . S
Cd130 O133 2.333 . S
Cd130 O134 2.352 . S
Cd130 O138 2.277 . S
Cd130 O139 2.356 . S
C131 O136 1.209 . S
C131 O138 1.226 . S
O132 Cd128 2.273 . S
O132 Cd130 2.411 . S
O132 C135 1.320 . S
O133 Cd130 2.333 . S
O133 C135 1.214 . S
O134 Cd130 2.352 . S
O134 C137 1.258 . S
C135 O132 1.320 . S
C135 O133 1.214 . S
O136 Cd128 2.277 . S
O136 C131 1.209 . S
C137 O134 1.258 . S
C137 O139 1.282 . S
O138 Cd130 2.277 . S
O138 C131 1.226 . S
O139 Cd130 2.356 . S
O139 C137 1.282 . S
C140 O141 1.306 . S
C140 O143 1.160 . S
O141 C140 1.306 . S
O141 Cd142 2.228 . S
Cd142 O141 2.228 . S
Cd142 O146 2.273 . S
Cd142 O150 2.277 . S
O143 C140 1.160 . S
O143 Cd144 2.203 . S
Cd144 O143 2.203 . S
Cd144 O146 2.411 . S
Cd144 O147 2.333 . S
Cd144 O148 2.352 . S
Cd144 O152 2.277 . S
Cd144 O153 2.356 . S
C145 O150 1.209 . S
C145 O152 1.226 . S
O146 Cd142 2.273 . S
O146 Cd144 2.411 . S
O146 C149 1.320 . S
O147 Cd144 2.333 . S
O147 C149 1.214 . S
O148 Cd144 2.352 . S
O148 C151 1.258 . S
C149 O146 1.320 . S
C149 O147 1.214 . S
O150 Cd142 2.277 . S
O150 C145 1.209 . S
C151 O148 1.258 . S
C151 O153 1.282 . S
O152 Cd144 2.277 . S
O152 C145 1.226 . S
O153 Cd144 2.356 . S
O153 C151 1.282 . S
C154 O155 1.306 . S
C154 O157 1.160 . S
O155 C154 1.306 . S
O155 Cd156 2.228 . S
Cd156 O155 2.228 . S
Cd156 O160 2.273 . S
Cd156 O164 2.277 . S
O157 C154 1.160 . S
O157 Cd158 2.203 . S
Cd158 O157 2.203 . S
Cd158 O160 2.411 . S
Cd158 O161 2.333 . S
Cd158 O162 2.352 . S
Cd158 O166 2.277 . S
Cd158 O167 2.356 . S
C159 O164 1.209 . S
C159 O166 1.226 . S
O160 Cd156 2.273 . S
O160 Cd158 2.411 . S
O160 C163 1.320 . S
O161 Cd158 2.333 . S
O161 C163 1.214 . S
O162 Cd158 2.352 . S
O162 C165 1.258 . S
C163 O160 1.320 . S
C163 O161 1.214 . S
O164 Cd156 2.277 . S
O164 C159 1.209 . S
C165 O162 1.258 . S
C165 O167 1.282 . S
O166 Cd158 2.277 . S
O166 C159 1.226 . S
O167 Cd158 2.356 . S
O167 C165 1.282 . S
C168 O169 1.306 . S
C168 O171 1.160 . S
O169 C168 1.306 . S
O169 Cd170 2.228 . S
Cd170 O169 2.228 . S
Cd170 O174 2.273 . S
Cd170 O178 2.277 . S
O171 C168 1.160 . S
O171 Cd172 2.203 . S
Cd172 O171 2.203 . S
Cd172 O174 2.411 . S
Cd172 O175 2.333 . S
Cd172 O176 2.352 . S
Cd172 O180 2.277 . S
Cd172 O181 2.356 . S
C173 O178 1.209 . S
C173 O180 1.226 . S
O174 Cd170 2.273 . S
O174 Cd172 2.411 . S
O174 C177 1.320 . S
O175 Cd172 2.333 . S
O175 C177 1.214 . S
O176 Cd172 2.352 . S
O176 C179 1.258 . S
C177 O174 1.320 . S
C177 O175 1.214 . S
O178 Cd170 2.277 . S
O178 C173 1.209 . S
C179 O176 1.258 . S
C179 O181 1.282 . S
O180 Cd172 2.277 . S
O180 C173 1.226 . S
O181 Cd172 2.356 . S
O181 C179 1.282 . S
C182 O183 1.306 . S
C182 O185 1.160 . S
O183 C182 1.306 . S
O183 Cd184 2.228 . S
Cd184 O183 2.228 . S
Cd184 O188 2.273 . S
Cd184 O192 2.277 . S
O185 C182 1.160 . S
O185 Cd186 2.203 . S
Cd186 O185 2.203 . S
Cd186 O188 2.411 . S
Cd186 O189 2.333 . S
Cd186 O190 2.352 . S
Cd186 O194 2.277 . S
Cd186 O195 2.356 . S
C187 O192 1.209 . S
C187 O194 1.226 . S
O188 Cd184 2.273 . S
O188 Cd186 2.411 . S
O188 C191 1.320 . S
O189 Cd186 2.333 . S
O189 C191 1.214 . S
O190 Cd186 2.352 . S
O190 C193 1.258 . S
C191 O188 1.320 . S
C191 O189 1.214 . S
O192 Cd184 2.277 . S
O192 C187 1.209 . S
C193 O190 1.258 . S
C193 O195 1.282 . S
O194 Cd186 2.277 . S
O194 C187 1.226 . S
O195 Cd186 2.356 . S
O195 C193 1.282 . S
C196 O197 1.306 . S
C196 O199 1.160 . S
O197 C196 1.306 . S
O197 Cd198 2.228 . S
Cd198 O197 2.228 . S
Cd198 O202 2.273 . S
Cd198 O206 2.277 . S
O199 C196 1.160 . S
O199 Cd200 2.203 . S
Cd200 O199 2.203 . S
Cd200 O202 2.411 . S
Cd200 O203 2.333 . S
Cd200 O204 2.352 . S
Cd200 O208 2.277 . S
Cd200 O209 2.356 . S
C201 O206 1.209 . S
C201 O208 1.226 . S
O202 Cd198 2.273 . S
O202 Cd200 2.411 . S
O202 C205 1.320 . S
O203 Cd200 2.333 . S
O203 C205 1.214 . S
O204 Cd200 2.352 . S
O204 C207 1.258 . S
C205 O202 1.320 . S
C205 O203 1.214 . S
O206 Cd198 2.277 . S
O206 C201 1.209 . S
C207 O204 1.258 . S
C207 O209 1.282 . S
O208 Cd200 2.277 . S
O208 C201 1.226 . S
O209 Cd200 2.356 . S
O209 C207 1.282 . S
C210 O211 1.306 . S
C210 O213 1.160 . S
O211 C210 1.306 . S
O211 Cd212 2.228 . S
Cd212 O211 2.228 . S
Cd212 O216 2.273 . S
Cd212 O220 2.277 . S
O213 C210 1.160 . S
O213 Cd214 2.203 . S
Cd214 O213 2.203 . S
Cd214 O216 2.411 . S
Cd214 O217 2.333 . S
Cd214 O218 2.352 . S
Cd214 O222 2.277 . S
Cd214 O223 2.356 . S
C215 O220 1.209 . S
C215 O222 1.226 . S
O216 Cd212 2.273 . S
O216 Cd214 2.411 . S
O216 C219 1.320 . S
O217 Cd214 2.333 . S
O217 C219 1.214 . S
O218 Cd214 2.352 . S
O218 C221 1.258 . S
C219 O216 1.320 . S
C219 O217 1.214 . S
O220 Cd212 2.277 . S
O220 C215 1.209 . S
C221 O218 1.258 . S
C221 O223 1.282 . S
O222 Cd214 2.277 . S
O222 C215 1.226 . S
O223 Cd214 2.356 . S
O223 C221 1.282 . S
C224 O225 1.306 . S
C224 O227 1.160 . S
O225 C224 1.306 . S
O225 Cd226 2.228 . S
Cd226 O225 2.228 . S
Cd226 O230 2.273 . S
Cd226 O234 2.277 . S
O227 C224 1.160 . S
O227 Cd228 2.203 . S
Cd228 O227 2.203 . S
Cd228 O230 2.411 . S
Cd228 O231 2.333 . S
Cd228 O232 2.352 . S
Cd228 O236 2.277 . S
Cd228 O237 2.356 . S
C229 O234 1.209 . S
C229 O236 1.226 . S
O230 Cd226 2.273 . S
O230 Cd228 2.411 . S
O230 C233 1.320 . S
O231 Cd228 2.333 . S
O231 C233 1.214 . S
O232 Cd228 2.352 . S
O232 C235 1.258 . S
C233 O230 1.320 . S
C233 O231 1.214 . S
O234 Cd226 2.277 . S
O234 C229 1.209 . S
C235 O232 1.258 . S
C235 O237 1.282 . S
O236 Cd228 2.277 . S
O236 C229 1.226 . S
O237 Cd228 2.356 . S
O237 C235 1.282 . S
C238 O239 1.306 . S
C238 O241 1.160 . S
O239 C238 1.306 . S
O239 Cd240 2.228 . S
Cd240 O239 2.228 . S
Cd240 O244 2.273 . S
Cd240 O248 2.277 . S
O241 C238 1.160 . S
O241 Cd242 2.203 . S
Cd242 O241 2.203 . S
Cd242 O244 2.411 . S
Cd242 O245 2.333 . S
Cd242 O246 2.352 . S
Cd242 O250 2.277 . S
Cd242 O251 2.356 . S
C243 O248 1.209 . S
C243 O250 1.226 . S
O244 Cd240 2.273 . S
O244 Cd242 2.411 . S
O244 C247 1.320 . S
O245 Cd242 2.333 . S
O245 C247 1.214 . S
O246 Cd242 2.352 . S
O246 C249 1.258 . S
C247 O244 1.320 . S
C247 O245 1.214 . S
O248 Cd240 2.277 . S
O248 C243 1.209 . S
C249 O246 1.258 . S
C249 O251 1.282 . S
O250 Cd242 2.277 . S
O250 C243 1.226 . S
O251 Cd242 2.356 . S
O251 C249 1.282 . S
C252 O253 1.306 . S
C252 O255 1.160 . S
O253 C252 1.306 . S
O253 Cd254 2.228 . S
Cd254 O253 2.228 . S
Cd254 O258 2.273 . S
Cd254 O262 2.277 . S
O255 C252 1.160 . S
O255 Cd256 2.203 . S
Cd256 O255 2.203 . S
Cd256 O258 2.411 . S
Cd256 O259 2.333 . S
Cd256 O260 2.352 . S
Cd256 O264 2.277 . S
Cd256 O265 2.356 . S
C257 O262 1.209 . S
C257 O264 1.226 . S
O258 Cd254 2.273 . S
O258 Cd256 2.411 . S
O258 C261 1.320 . S
O259 Cd256 2.333 . S
O259 C261 1.214 . S
O260 Cd256 2.352 . S
O260 C263 1.258 . S
C261 O258 1.320 . S
C261 O259 1.214 . S
O262 Cd254 2.277 . S
O262 C257 1.209 . S
C263 O260 1.258 . S
C263 O265 1.282 . S
O264 Cd256 2.277 . S
O264 C257 1.226 . S
O265 Cd256 2.356 . S
O265 C263 1.282 . S
C266 O267 1.306 . S
C266 O269 1.160 . S
O267 C266 1.306 . S
O267 Cd268 2.228 . S
Cd268 O267 2.228 . S
Cd268 O272 2.273 . S
Cd268 O276 2.277 . S
O269 C266 1.160 . S
O269 Cd270 2.203 . S
Cd270 O269 2.203 . S
Cd270 O272 2.411 . S
Cd270 O273 2.333 . S
Cd270 O274 2.352 . S
Cd270 O278 2.277 . S
Cd270 O279 2.356 . S
C271 O276 1.209 . S
C271 O278 1.226 . S
O272 Cd268 2.273 . S
O272 Cd270 2.411 . S
O272 C275 1.320 . S
O273 Cd270 2.333 . S
O273 C275 1.214 . S
O274 Cd270 2.352 . S
O274 C277 1.258 . S
C275 O272 1.320 . S
C275 O273 1.214 . S
O276 Cd268 2.277 . S
O276 C271 1.209 . S
C277 O274 1.258 . S
C277 O279 1.282 . S
O278 Cd270 2.277 . S
O278 C271 1.226 . S
O279 Cd270 2.356 . S
O279 C277 1.282 . S
C280 O281 1.306 . S
C280 O283 1.160 . S
O281 C280 1.306 . S
O281 Cd282 2.228 . S
Cd282 O281 2.228 . S
Cd282 O286 2.273 . S
Cd282 O290 2.277 . S
O283 C280 1.160 . S
O283 Cd284 2.203 . S
Cd284 O283 2.203 . S
Cd284 O286 2.411 . S
Cd284 O287 2.333 . S
Cd284 O288 2.352 . S
Cd284 O292 2.277 . S
Cd284 O293 2.356 . S
C285 O290 1.209 . S
C285 O292 1.226 . S
O286 Cd282 2.273 . S
O286 Cd284 2.411 . S
O286 C289 1.320 . S
O287 Cd284 2.333 . S
O287 C289 1.214 . S
O288 Cd284 2.352 . S
O288 C291 1.258 . S
C289 O286 1.320 . S
C289 O287 1.214 . S
O290 Cd282 2.277 . S
O290 C285 1.209 . S
C291 O288 1.258 . S
C291 O293 1.282 . S
O292 Cd284 2.277 . S
O292 C285 1.226 . S
O293 Cd284 2.356 . S
O293 C291 1.282 . S
C294 O295 1.306 . S
C294 O297 1.160 . S
O295 C294 1.306 . S
O295 Cd296 2.228 . S
Cd296 O295 2.228 . S
Cd296 O300 2.273 . S
Cd296 O304 2.277 . S
O297 C294 1.160 . S
O297 Cd298 2.203 . S
Cd298 O297 2.203 . S
Cd298 O300 2.411 . S
Cd298 O301 2.333 . S
Cd298 O302 2.352 . S
Cd298 O306 2.277 . S
Cd298 O307 2.356 . S
C299 O304 1.209 . S
C299 O306 1.226 . S
O300 Cd296 2.273 . S
O300 Cd298 2.411 . S
O300 C303 1.320 . S
O301 Cd298 2.333 . S
O301 C303 1.214 . S
O302 Cd298 2.352 . S
O302 C305 1.258 . S
C303 O300 1.320 . S
C303 O301 1.214 . S
O304 Cd296 2.277 . S
O304 C299 1.209 . S
C305 O302 1.258 . S
C305 O307 1.282 . S
O306 Cd298 2.277 . S
O306 C299 1.226 . S
O307 Cd298 2.356 . S
O307 C305 1.282 . S
C308 O309 1.306 . S
C308 O311 1.160 . S
O309 C308 1.306 . S
O309 Cd310 2.228 . S
Cd310 O309 2.228 . S
Cd310 O314 2.273 . S
Cd310 O318 2.277 . S
O311 C308 1.160 . S
O311 Cd312 2.203 . S
Cd312 O311 2.203 . S
Cd312 O314 2.411 . S
Cd312 O315 2.333 . S
Cd312 O316 2.352 . S
Cd312 O320 2.277 . S
Cd312 O321 2.356 . S
C313 O318 1.209 . S
C313 O320 1.226 . S
O314 Cd310 2.273 . S
O314 Cd312 2.411 . S
O314 C317 1.320 . S
O315 Cd312 2.333 . S
O315 C317 1.214 . S
O316 Cd312 2.352 . S
O316 C319 1.258 . S
C317 O314 1.320 . S
C317 O315 1.214 . S
O318 Cd310 2.277 . S
O318 C313 1.209 . S
C319 O316 1.258 . S
C319 O321 1.282 . S
O320 Cd312 2.277 . S
O320 C313 1.226 . S
O321 Cd312 2.356 . S
O321 C319 1.282 . S
C322 O323 1.306 . S
C322 O325 1.160 . S
O323 C322 1.306 . S
O323 Cd324 2.228 . S
Cd324 O323 2.228 . S
Cd324 O328 2.273 . S
Cd324 O332 2.277 . S
O325 C322 1.160 . S
O325 Cd326 2.203 . S
Cd326 O325 2.203 . S
Cd326 O328 2.411 . S
Cd326 O329 2.333 . S
Cd326 O330 2.352 . S
Cd326 O334 2.277 . S
Cd326 O335 2.356 . S
C327 O332 1.209 . S
C327 O334 1.226 . S
O328 Cd324 2.273 . S
O328 Cd326 2.411 . S
O328 C331 1.320 . S
O329 Cd326 2.333 . S
O329 C331 1.214 . S
O330 Cd326 2.352 . S
O330 C333 1.258 . S
C331 O328 1.320 . S
C331 O329 1.214 . S
O332 Cd324 2.277 . S
O332 C327 1.209 . S
C333 O330 1.258 . S
C333 O335 1.282 . S
O334 Cd326 2.277 . S
O334 C327 1.226 . S
O335 Cd326 2.356 . S
O335 C333 1.282 . S
C336 O337 1.306 . S
C336 O339 1.160 . S
O337 C336 1.306 . S
O337 Cd338 2.228 . S
Cd338 O337 2.228 . S
Cd338 O342 2.273 . S
Cd338 O346 2.277 . S
O339 C336 1.160 . S
O339 Cd340 2.203 . S
Cd340 O339 2.203 . S
Cd340 O342 2.411 . S
Cd340 O343 2.333 . S
Cd340 O344 2.352 . S
Cd340 O348 2.277 . S
Cd340 O349 2.356 . S
C341 O346 1.209 . S
C341 O348 1.226 . S
O342 Cd338 2.273 . S
O342 Cd340 2.411 . S
O342 C345 1.320 . S
O343 Cd340 2.333 . S
O343 C345 1.214 . S
O344 Cd340 2.352 . S
O344 C347 1.258 . S
C345 O342 1.320 . S
C345 O343 1.214 . S
O346 Cd338 2.277 . S
O346 C341 1.209 . S
C347 O344 1.258 . S
C347 O349 1.282 . S
O348 Cd340 2.277 . S
O348 C341 1.226 . S
O349 Cd340 2.356 . S
O349 C347 1.282 . S
C350 O351 1.306 . S
C350 O353 1.160 . S
O351 C350 1.306 . S
O351 Cd352 2.228 . S
Cd352 O351 2.228 . S
Cd352 O356 2.273 . S
Cd352 O360 2.277 . S
O353 C350 1.160 . S
O353 Cd354 2.203 . S
Cd354 O353 2.203 . S
Cd354 O356 2.411 . S
Cd354 O357 2.333 . S
Cd354 O358 2.352 . S
Cd354 O362 2.277 . S
Cd354 O363 2.356 . S
C355 O360 1.209 . S
C355 O362 1.226 . S
O356 Cd352 2.273 . S
O356 Cd354 2.411 . S
O356 C359 1.320 . S
O357 Cd354 2.333 . S
O357 C359 1.214 . S
O358 Cd354 2.352 . S
O358 C361 1.258 . S
C359 O356 1.320 . S
C359 O357 1.214 . S
O360 Cd352 2.277 . S
O360 C355 1.209 . S
C361 O358 1.258 . S
C361 O363 1.282 . S
O362 Cd354 2.277 . S
O362 C355 1.226 . S
O363 Cd354 2.356 . S
O363 C361 1.282 . S
C364 O365 1.306 . S
C364 O367 1.160 . S
O365 C364 1.306 . S
O365 Cd366 2.228 . S
Cd366 O365 2.228 . S
Cd366 O370 2.273 . S
Cd366 O374 2.277 . S
O367 C364 1.160 . S
O367 Cd368 2.203 . S
Cd368 O367 2.203 . S
Cd368 O370 2.411 . S
Cd368 O371 2.333 . S
Cd368 O372 2.352 . S
Cd368 O376 2.277 . S
Cd368 O377 2.356 . S
C369 O374 1.209 . S
C369 O376 1.226 . S
O370 Cd366 2.273 . S
O370 Cd368 2.411 . S
O370 C373 1.320 . S
O371 Cd368 2.333 . S
O371 C373 1.214 . S
O372 Cd368 2.352 . S
O372 C375 1.258 . S
C373 O370 1.320 . S
C373 O371 1.214 . S
O374 Cd366 2.277 . S
O374 C369 1.209 . S
C375 O372 1.258 . S
C375 O377 1.282 . S
O376 Cd368 2.277 . S
O376 C369 1.226 . S
O377 Cd368 2.356 . S
O377 C375 1.282 . S
C378 O379 1.306 . S
C378 O381 1.160 . S
O379 C378 1.306 . S
O379 Cd380 2.228 . S
Cd380 O379 2.228 . S
Cd380 O384 2.273 . S
Cd380 O388 2.277 . S
O381 C378 1.160 . S
O381 Cd382 2.203 . S
Cd382 O381 2.203 . S
Cd382 O384 2.411 . S
Cd382 O385 2.333 . S
Cd382 O386 2.352 . S
Cd382 O390 2.277 . S
Cd382 O391 2.356 . S
C383 O388 1.209 . S
C383 O390 1.226 . S
O384 Cd380 2.273 . S
O384 Cd382 2.411 . S
O384 C387 1.320 . S
O385 Cd382 2.333 . S
O385 C387 1.214 . S
O386 Cd382 2.352 . S
O386 C389 1.258 . S
C387 O384 1.320 . S
C387 O385 1.214 . S
O388 Cd380 2.277 . S
O388 C383 1.209 . S
C389 O386 1.258 . S
C389 O391 1.282 . S
O390 Cd382 2.277 . S
O390 C383 1.226 . S
O391 Cd382 2.356 . S
O391 C389 1.282 . S
C392 O393 1.306 . S
C392 O395 1.160 . S
O393 C392 1.306 . S
O393 Cd394 2.228 . S
Cd394 O393 2.228 . S
Cd394 O398 2.273 . S
Cd394 O402 2.277 . S
O395 C392 1.160 . S
O395 Cd396 2.203 . S
Cd396 O395 2.203 . S
Cd396 O398 2.411 . S
Cd396 O399 2.333 . S
Cd396 O400 2.352 . S
Cd396 O404 2.277 . S
Cd396 O405 2.356 . S
C397 O402 1.209 . S
C397 O404 1.226 . S
O398 Cd394 2.273 . S
O398 Cd396 2.411 . S
O398 C401 1.320 . S
O399 Cd396 2.333 . S
O399 C401 1.214 . S
O400 Cd396 2.352 . S
O400 C403 1.258 . S
C401 O398 1.320 . S
C401 O399 1.214 . S
O402 Cd394 2.277 . S
O402 C397 1.209 . S
C403 O400 1.258 . S
C403 O405 1.282 . S
O404 Cd396 2.277 . S
O404 C397 1.226 . S
O405 Cd396 2.356 . S
O405 C403 1.282 . S
C406 O407 1.306 . S
C406 O409 1.160 . S
O407 C406 1.306 . S
O407 Cd408 2.228 . S
Cd408 O407 2.228 . S
Cd408 O412 2.273 . S
Cd408 O416 2.277 . S
O409 C406 1.160 . S
O409 Cd410 2.203 . S
Cd410 O409 2.203 . S
Cd410 O412 2.411 . S
Cd410 O413 2.333 . S
Cd410 O414 2.352 . S
Cd410 O418 2.277 . S
Cd410 O419 2.356 . S
C411 O416 1.209 . S
C411 O418 1.226 . S
O412 Cd408 2.273 . S
O412 Cd410 2.411 . S
O412 C415 1.320 . S
O413 Cd410 2.333 . S
O413 C415 1.214 . S
O414 Cd410 2.352 . S
O414 C417 1.258 . S
C415 O412 1.320 . S
C415 O413 1.214 . S
O416 Cd408 2.277 . S
O416 C411 1.209 . S
C417 O414 1.258 . S
C417 O419 1.282 . S
O418 Cd410 2.277 . S
O418 C411 1.226 . S
O419 Cd410 2.356 . S
O419 C417 1.282 . S
C420 O421 1.306 . S
C420 O423 1.160 . S
O421 C420 1.306 . S
O421 Cd422 2.228 . S
Cd422 O421 2.228 . S
Cd422 O426 2.273 . S
Cd422 O430 2.277 . S
O423 C420 1.160 . S
O423 Cd424 2.203 . S
Cd424 O423 2.203 . S
Cd424 O426 2.411 . S
Cd424 O427 2.333 . S
Cd424 O428 2.352 . S
Cd424 O432 2.277 . S
Cd424 O433 2.356 . S
C425 O430 1.209 . S
C425 O432 1.226 . S
O426 Cd422 2.273 . S
O426 Cd424 2.411 . S
O426 C429 1.320 . S
O427 Cd424 2.333 . S
O427 C429 1.214 . S
O428 Cd424 2.352 . S
O428 C431 1.258 . S
C429 O426 1.320 . S
C429 O427 1.214 . S
O430 Cd422 2.277 . S
O430 C425 1.209 . S
C431 O428 1.258 . S
C431 O433 1.282 . S
O432 Cd424 2.277 . S
O432 C425 1.226 . S
O433 Cd424 2.356 . S
O433 C431 1.282 . S
C434 O435 1.306 . S
C434 O437 1.160 . S
O435 C434 1.306 . S
O435 Cd436 2.228 . S
Cd436 O435 2.228 . S
Cd436 O440 2.273 . S
Cd436 O444 2.277 . S
O437 C434 1.160 . S
O437 Cd438 2.203 . S
Cd438 O437 2.203 . S
Cd438 O440 2.411 . S
Cd438 O441 2.333 . S
Cd438 O442 2.352 . S
Cd438 O446 2.277 . S
Cd438 O447 2.356 . S
C439 O444 1.209 . S
C439 O446 1.226 . S
O440 Cd436 2.273 . S
O440 Cd438 2.411 . S
O440 C443 1.320 . S
O441 Cd438 2.333 . S
O441 C443 1.214 . S
O442 Cd438 2.352 . S
O442 C445 1.258 . S
C443 O440 1.320 . S
C443 O441 1.214 . S
O444 Cd436 2.277 . S
O444 C439 1.209 . S
C445 O442 1.258 . S
C445 O447 1.282 . S
O446 Cd438 2.277 . S
O446 C439 1.226 . S
O447 Cd438 2.356 . S
O447 C445 1.282 . S
C448 O449 1.306 . S
C448 O451 1.160 . S
O449 C448 1.306 . S
O449 Cd450 2.228 . S
Cd450 O449 2.228 . S
Cd450 O454 2.273 . S
Cd450 O458 2.277 . S
O451 C448 1.160 . S
O451 Cd452 2.203 . S
Cd452 O451 2.203 . S
Cd452 O454 2.411 . S
Cd452 O455 2.333 . S
Cd452 O456 2.352 . S
Cd452 O460 2.277 . S
Cd452 O461 2.356 . S
C453 O458 1.209 . S
C453 O460 1.226 . S
O454 Cd450 2.273 . S
O454 Cd452 2.411 . S
O454 C457 1.320 . S
O455 Cd452 2.333 . S
O455 C457 1.214 . S
O456 Cd452 2.352 . S
O456 C459 1.258 . S
C457 O454 1.320 . S
C457 O455 1.214 . S
O458 Cd450 2.277 . S
O458 C453 1.209 . S
C459 O456 1.258 . S
C459 O461 1.282 . S
O460 Cd452 2.277 . S
O460 C453 1.226 . S
O461 Cd452 2.356 . S
O461 C459 1.282 . S
C462 O463 1.306 . S
C462 O465 1.160 . S
O463 C462 1.306 . S
O463 Cd464 2.228 . S
Cd464 O463 2.228 . S
Cd464 O468 2.273 . S
Cd464 O472 2.277 . S
O465 C462 1.160 . S
O465 Cd466 2.203 . S
Cd466 O465 2.203 . S
Cd466 O468 2.411 . S
Cd466 O469 2.333 . S
Cd466 O470 2.352 . S
Cd466 O474 2.277 . S
Cd466 O475 2.356 . S
C467 O472 1.209 . S
C467 O474 1.226 . S
O468 Cd464 2.273 . S
O468 Cd466 2.411 . S
O468 C471 1.320 . S
O469 Cd466 2.333 . S
O469 C471 1.214 . S
O470 Cd466 2.352 . S
O470 C473 1.258 . S
C471 O468 1.320 . S
C471 O469 1.214 . S
O472 Cd464 2.277 . S
O472 C467 1.209 . S
C473 O470 1.258 . S
C473 O475 1.282 . S
O474 Cd466 2.277 . S
O474 C467 1.226 . S
O475 Cd466 2.356 . S
O475 C473 1.282 . S
C476 O477 1.306 . S
C476 O479 1.160 . S
O477 C476 1.306 . S
O477 Cd478 2.228 . S
Cd478 O477 2.228 . S
Cd478 O482 2.273 . S
Cd478 O486 2.277 . S
O479 C476 1.160 . S
O479 Cd480 2.203 . S
Cd480 O479 2.203 . S
Cd480 O482 2.411 . S
Cd480 O483 2.333 . S
Cd480 O484 2.352 . S
Cd480 O488 2.277 . S
Cd480 O489 2.356 . S
C481 O486 1.209 . S
C481 O488 1.226 . S
O482 Cd478 2.273 . S
O482 Cd480 2.411 . S
O482 C485 1.320 . S
O483 Cd480 2.333 . S
O483 C485 1.214 . S
O484 Cd480 2.352 . S
O484 C487 1.258 . S
C485 O482 1.320 . S
C485 O483 1.214 . S
O486 Cd478 2.277 . S
O486 C481 1.209 . S
C487 O484 1.258 . S
C487 O489 1.282 . S
O488 Cd480 2.277 . S
O488 C481 1.226 . S
O489 Cd480 2.356 . S
O489 C487 1.282 . S
C490 O491 1.306 . S
C490 O493 1.160 . S
O491 C490 1.306 . S
O491 Cd492 2.228 . S
Cd492 O491 2.228 . S
Cd492 O496 2.273 . S
Cd492 O500 2.277 . S
O493 C490 1.160 . S
O493 Cd494 2.203 . S
Cd494 O493 2.203 . S
Cd494 O496 2.411 . S
Cd494 O497 2.333 . S
Cd494 O498 2.352 . S
Cd494 O502 2.277 . S
Cd494 O503 2.356 . S
C495 O500 1.209 . S
C495 O502 1.226 . S
O496 Cd492 2.273 . S
O496 Cd494 2.411 . S
O496 C499 1.320 . S
O497 Cd494 2.333 . S
O497 C499 1.214 . S
O498 Cd494 2.352 . S
O498 C501 1.258 . S
C499 O496 1.320 . S
C499 O497 1.214 . S
O500 Cd492 2.277 . S
O500 C495 1.209 . S
C501 O498 1.258 . S
C501 O503 1.282 . S
O502 Cd494 2.277 . S
O502 C495 1.226 . S
O503 Cd494 2.356 . S
O503 C501 1.282 . S
C504 O505 1.306 . S
C504 O507 1.160 . S
O505 C504 1.306 . S
O505 Cd506 2.228 . S
Cd506 O505 2.228 . S
Cd506 O510 2.273 . S
Cd506 O514 2.277 . S
O507 C504 1.160 . S
O507 Cd508 2.203 . S
Cd508 O507 2.203 . S
Cd508 O510 2.411 . S
Cd508 O511 2.333 . S
Cd508 O512 2.352 . S
Cd508 O516 2.277 . S
Cd508 O517 2.356 . S
C509 O514 1.209 . S
C509 O516 1.226 . S
O510 Cd506 2.273 . S
O510 Cd508 2.411 . S
O510 C513 1.320 . S
O511 Cd508 2.333 . S
O511 C513 1.214 . S
O512 Cd508 2.352 . S
O512 C515 1.258 . S
C513 O510 1.320 . S
C513 O511 1.214 . S
O514 Cd506 2.277 . S
O514 C509 1.209 . S
C515 O512 1.258 . S
C515 O517 1.282 . S
O516 Cd508 2.277 . S
O516 C509 1.226 . S
O517 Cd508 2.356 . S
O517 C515 1.282 . S
C518 O519 1.306 . S
C518 O521 1.160 . S
O519 C518 1.306 . S
O519 Cd520 2.228 . S
Cd520 O519 2.228 . S
Cd520 O524 2.273 . S
Cd520 O528 2.277 . S
O521 C518 1.160 . S
O521 Cd522 2.203 . S
Cd522 O521 2.203 . S
Cd522 O524 2.411 . S
Cd522 O525 2.333 . S
Cd522 O526 2.352 . S
Cd522 O530 2.277 . S
Cd522 O531 2.356 . S
C523 O528 1.209 . S
C523 O530 1.226 . S
O524 Cd520 2.273 . S
O524 Cd522 2.411 . S
O524 C527 1.320 . S
O525 Cd522 2.333 . S
O525 C527 1.214 . S
O526 Cd522 2.352 . S
O526 C529 1.258 . S
C527 O524 1.320 . S
C527 O525 1.214 . S
O528 Cd520 2.277 . S
O528 C523 1.209 . S
C529 O526 1.258 . S
C529 O531 1.282 . S
O530 Cd522 2.277 . S
O530 C523 1.226 . S
O531 Cd522 2.356 . S
O531 C529 1.282 . S
C532 O533 1.306 . S
C532 O535 1.160 . S
O533 C532 1.306 . S
O533 Cd534 2.228 . S
Cd534 O533 2.228 . S
Cd534 O538 2.273 . S
Cd534 O542 2.277 . S
O535 C532 1.160 . S
O535 Cd536 2.203 . S
Cd536 O535 2.203 . S
Cd536 O538 2.411 . S
Cd536 O539 2.333 . S
Cd536 O540 2.352 . S
Cd536 O544 2.277 . S
Cd536 O545 2.356 . S
C537 O542 1.209 . S
C537 O544 1.226 . S
O538 Cd534 2.273 . S
O538 Cd536 2.411 . S
O538 C541 1.320 . S
O539 Cd536 2.333 . S
O539 C541 1.214 . S
O540 Cd536 2.352 . S
O540 C543 1.258 . S
C541 O538 1.320 . S
C541 O539 1.214 . S
O542 Cd534 2.277 . S
O542 C537 1.209 . S
C543 O540 1.258 . S
C543 O545 1.282 . S
O544 Cd536 2.277 . S
O544 C537 1.226 . S
O545 Cd536 2.356 . S
O545 C543 1.282 . S
C546 O547 1.306 . S
C546 O549 1.160 . S
O547 C546 1.306 . S
O547 Cd548 2.228 . S
Cd548 O547 2.228 . S
Cd548 O552 2.273 . S
Cd548 O556 2.277 . S
O549 C546 1.160 . S
O549 Cd550 2.203 . S
Cd550 O549 2.203 . S
Cd550 O552 2.411 . S
Cd550 O553 2.333 . S
Cd550 O554 2.352 . S
Cd550 O558 2.277 . S
Cd550 O559 2.356 . S
C551 O556 1.209 . S
C551 O558 1.226 . S
O552 Cd548 2.273 . S
O552 Cd550 2.411 . S
O552 C555 1.320 . S
O553 Cd550 2.333 . S
O553 C555 1.214 . S
O554 Cd550 2.352 . S
O554 C557 1.258 . S
C555 O552 1.320 . S
C555 O553 1.214 . S
O556 Cd548 2.277 . S
O556 C551 1.209 . S
C557 O554 1.258 . S
C557 O559 1.282 . S
O558 Cd550 2.277 . S
O558 C551 1.226 . S
O559 Cd550 2.356 . S
O559 C557 1.282 . S
C560 O561 1.306 . S
C560 O563 1.160 . S
O561 C560 1.306 . S
O561 Cd562 2.228 . S
Cd562 O561 2.228 . S
Cd562 O566 2.273 . S
Cd562 O570 2.277 . S
O563 C560 1.160 . S
O563 Cd564 2.203 . S
Cd564 O563 2.203 . S
Cd564 O566 2.411 . S
Cd564 O567 2.333 . S
Cd564 O568 2.352 . S
Cd564 O572 2.277 . S
Cd564 O573 2.356 . S
C565 O570 1.209 . S
C565 O572 1.226 . S
O566 Cd562 2.273 . S
O566 Cd564 2.411 . S
O566 C569 1.320 . S
O567 Cd564 2.333 . S
O567 C569 1.214 . S
O568 Cd564 2.352 . S
O568 C571 1.258 . S
C569 O566 1.320 . S
C569 O567 1.214 . S
O570 Cd562 2.277 . S
O570 C565 1.209 . S
C571 O568 1.258 . S
C571 O573 1.282 . S
O572 Cd564 2.277 . S
O572 C565 1.226 . S
O573 Cd564 2.356 . S
O573 C571 1.282 . S
C574 O575 1.306 . S
C574 O577 1.160 . S
O575 C574 1.306 . S
O575 Cd576 2.228 . S
Cd576 O575 2.228 . S
Cd576 O580 2.273 . S
Cd576 O584 2.277 . S
O577 C574 1.160 . S
O577 Cd578 2.203 . S
Cd578 O577 2.203 . S
Cd578 O580 2.411 . S
Cd578 O581 2.333 . S
Cd578 O582 2.352 . S
Cd578 O586 2.277 . S
Cd578 O587 2.356 . S
C579 O584 1.209 . S
C579 O586 1.226 . S
O580 Cd576 2.273 . S
O580 Cd578 2.411 . S
O580 C583 1.320 . S
O581 Cd578 2.333 . S
O581 C583 1.214 . S
O582 Cd578 2.352 . S
O582 C585 1.258 . S
C583 O580 1.320 . S
C583 O581 1.214 . S
O584 Cd576 2.277 . S
O584 C579 1.209 . S
C585 O582 1.258 . S
C585 O587 1.282 . S
O586 Cd578 2.277 . S
O586 C579 1.226 . S
O587 Cd578 2.356 . S
O587 C585 1.282 . S
C588 O589 1.306 . S
C588 O591 1.160 . S
O589 C588 1.306 . S
O589 Cd590 2.228 . S
Cd590 O589 2.228 . S
Cd590 O594 2.273 . S
Cd590 O598 2.277 . S
O591 C588 1.160 . S
O591 Cd592 2.203 . S
Cd592 O591 2.203 . S
Cd592 O594 2.411 . S
Cd592 O595 2.333 . S
Cd592 O596 2.352 . S
Cd592 O600 2.277 . S
Cd592 O601 2.356 . S
C593 O598 1.209 . S
C593 O600 1.226 . S
O594 Cd590 2.273 . S
O594 Cd592 2.411 . S
O594 C597 1.320 . S
O595 Cd592 2.333 . S
O595 C597 1.214 . S
O596 Cd592 2.352 . S
O596 C599 1.258 . S
C597 O594 1.320 . S
C597 O595 1.214 . S
O598 Cd590 2.277 . S
O598 C593 1.209 . S
C599 O596 1.258 . S
C599 O601 1.282 . S
O600 Cd592 2.277 . S
O600 C593 1.226 . S
O601 Cd592 2.356 . S
O601 C599 1.282 . S
C602 O603 1.306 . S
C602 O605 1.160 . S
O603 C602 1.306 . S
O603 Cd604 2.228 . S
Cd604 O603 2.228 . S
Cd604 O608 2.273 . S
Cd604 O612 2.277 . S
O605 C602 1.160 . S
O605 Cd606 2.203 . S
Cd606 O605 2.203 . S
Cd606 O608 2.411 . S
Cd606 O609 2.333 . S
Cd606 O610 2.352 . S
Cd606 O614 2.277 . S
Cd606 O615 2.356 . S
C607 O612 1.209 . S
C607 O614 1.226 . S
O608 Cd604 2.273 . S
O608 Cd606 2.411 . S
O608 C611 1.320 . S
O609 Cd606 2.333 . S
O609 C611 1.214 . S
O610 Cd606 2.352 . S
O610 C613 1.258 . S
C611 O608 1.320 . S
C611 O609 1.214 . S
O612 Cd604 2.277 . S
O612 C607 1.209 . S
C613 O610 1.258 . S
C613 O615 1.282 . S
O614 Cd606 2.277 . S
O614 C607 1.226 . S
O615 Cd606 2.356 . S
O615 C613 1.282 . S
C616 O617 1.306 . S
C616 O619 1.160 . S
O617 C616 1.306 . S
O617 Cd618 2.228 . S
Cd618 O617 2.228 . S
Cd618 O622 2.273 . S
Cd618 O626 2.277 . S
O619 C616 1.160 . S
O619 Cd620 2.203 . S
Cd620 O619 2.203 . S
Cd620 O622 2.411 . S
Cd620 O623 2.333 . S
Cd620 O624 2.352 . S
Cd620 O628 2.277 . S
Cd620 O629 2.356 . S
C621 O626 1.209 . S
C621 O628 1.226 . S
O622 Cd618 2.273 . S
O622 Cd620 2.411 . S
O622 C625 1.320 . S
O623 Cd620 2.333 . S
O623 C625 1.214 . S
O624 Cd620 2.352 . S
O624 C627 1.258 . S
C625 O622 1.320 . S
C625 O623 1.214 . S
O626 Cd618 2.277 . S
O626 C621 1.209 . S
C627 O624 1.258 . S
C627 O629 1.282 . S
O628 Cd620 2.277 . S
O628 C621 1.226 . S
O629 Cd620 2.356 . S
O629 C627 1.282 . S
C630 O631 1.306 . S
C630 O633 1.160 . S
O631 C630 1.306 . S
O631 Cd632 2.228 . S
Cd632 O631 2.228 . S
Cd632 O636 2.273 . S
Cd632 O640 2.277 . S
O633 C630 1.160 . S
O633 Cd634 2.203 . S
Cd634 O633 2.203 . S
Cd634 O636 2.411 . S
Cd634 O637 2.333 . S
Cd634 O638 2.352 . S
Cd634 O642 2.277 . S
Cd634 O643 2.356 . S
C635 O640 1.209 . S
C635 O642 1.226 . S
O636 Cd632 2.273 . S
O636 Cd634 2.411 . S
O636 C639 1.320 . S
O637 Cd634 2.333 . S
O637 C639 1.214 . S
O638 Cd634 2.352 . S
O638 C641 1.258 . S
C639 O636 1.320 . S
C639 O637 1.214 . S
O640 Cd632 2.277 . S
O640 C635 1.209 . S
C641 O638 1.258 . S
C641 O643 1.282 . S
O642 Cd634 2.277 . S
O642 C635 1.226 . S
O643 Cd634 2.356 . S
O643 C641 1.282 . S
C644 O645 1.306 . S
C644 O647 1.160 . S
O645 C644 1.306 . S
O645 Cd646 2.228 . S
Cd646 O645 2.228 . S
Cd646 O650 2.273 . S
Cd646 O654 2.277 . S
O647 C644 1.160 . S
O647 Cd648 2.203 . S
Cd648 O647 2.203 . S
Cd648 O650 2.411 . S
Cd648 O651 2.333 . S
Cd648 O652 2.352 . S
Cd648 O656 2.277 . S
Cd648 O657 2.356 . S
C649 O654 1.209 . S
C649 O656 1.226 . S
O650 Cd646 2.273 . S
O650 Cd648 2.411 . S
O650 C653 1.320 . S
O651 Cd648 2.333 . S
O651 C653 1.214 . S
O652 Cd648 2.352 . S
O652 C655 1.258 . S
C653 O650 1.320 . S
C653 O651 1.214 . S
O654 Cd646 2.277 . S
O654 C649 1.209 . S
C655 O652 1.258 . S
C655 O657 1.282 . S
O656 Cd648 2.277 . S
O656 C649 1.226 . S
O657 Cd648 2.356 . S
O657 C655 1.282 . S
C658 O659 1.306 . S
C658 O661 1.160 . S
O659 C658 1.306 . S
O659 Cd660 2.228 . S
Cd660 O659 2.228 . S
Cd660 O664 2.273 . S
Cd660 O668 2.277 . S
O661 C658 1.160 . S
O661 Cd662 2.203 . S
Cd662 O661 2.203 . S
Cd662 O664 2.411 . S
Cd662 O665 2.333 . S
Cd662 O666 2.352 . S
Cd662 O670 2.277 . S
Cd662 O671 2.356 . S
C663 O668 1.209 . S
C663 O670 1.226 . S
O664 Cd660 2.273 . S
O664 Cd662 2.411 . S
O664 C667 1.320 . S
O665 Cd662 2.333 . S
O665 C667 1.214 . S
O666 Cd662 2.352 . S
O666 C669 1.258 . S
C667 O664 1.320 . S
C667 O665 1.214 . S
O668 Cd660 2.277 . S
O668 C663 1.209 . S
C669 O666 1.258 . S
C669 O671 1.282 . S
O670 Cd662 2.277 . S
O670 C663 1.226 . S
O671 Cd662 2.356 . S
O671 C669 1.282 . S
C672 O673 1.306 . S
C672 O675 1.160 . S
O673 C672 1.306 . S
O673 Cd674 2.228 . S
Cd674 O673 2.228 . S
Cd674 O678 2.273 . S
Cd674 O682 2.277 . S
O675 C672 1.160 . S
O675 Cd676 2.203 . S
Cd676 O675 2.203 . S
Cd676 O678 2.411 . S
Cd676 O679 2.333 . S
Cd676 O680 2.352 . S
Cd676 O684 2.277 . S
Cd676 O685 2.356 . S
C677 O682 1.209 . S
C677 O684 1.226 . S
O678 Cd674 2.273 . S
O678 Cd676 2.411 . S
O678 C681 1.320 . S
O679 Cd676 2.333 . S
O679 C681 1.214 . S
O680 Cd676 2.352 . S
O680 C683 1.258 . S
C681 O678 1.320 . S
C681 O679 1.214 . S
O682 Cd674 2.277 . S
O682 C677 1.209 . S
C683 O680 1.258 . S
C683 O685 1.282 . S
O684 Cd676 2.277 . S
O684 C677 1.226 . S
O685 Cd676 2.356 . S
O685 C683 1.282 . S
C686 O687 1.306 . S
C686 O689 1.160 . S
O687 C686 1.306 . S
O687 Cd688 2.228 . S
Cd688 O687 2.228 . S
Cd688 O692 2.273 . S
Cd688 O696 2.277 . S
O689 C686 1.160 . S
O689 Cd690 2.203 . S
Cd690 O689 2.203 . S
Cd690 O692 2.411 . S
Cd690 O693 2.333 . S
Cd690 O694 2.352 . S
Cd690 O698 2.277 . S
Cd690 O699 2.356 . S
C691 O696 1.209 . S
C691 O698 1.226 . S
O692 Cd688 2.273 . S
O692 Cd690 2.411 . S
O692 C695 1.320 . S
O693 Cd690 2.333 . S
O693 C695 1.214 . S
O694 Cd690 2.352 . S
O694 C697 1.258 . S
C695 O692 1.320 . S
C695 O693 1.214 . S
O696 Cd688 2.277 . S
O696 C691 1.209 . S
C697 O694 1.258 . S
C697 O699 1.282 . S
O698 Cd690 2.277 . S
O698 C691 1.226 . S
O699 Cd690 2.356 . S
O699 C697 1.282 . S
C700 O701 1.306 . S
C700 O703 1.160 . S
O701 C700 1.306 . S
O701 Cd702 2.228 . S
Cd702 O701 2.228 . S
Cd702 O706 2.273 . S
Cd702 O710 2.277 . S
O703 C700 1.160 . S
O703 Cd704 2.203 . S
Cd704 O703 2.203 . S
Cd704 O706 2.411 . S
Cd704 O707 2.333 . S
Cd704 O708 2.352 . S
Cd704 O712 2.277 . S
Cd704 O713 2.356 . S
C705 O710 1.209 . S
C705 O712 1.226 . S
O706 Cd702 2.273 . S
O706 Cd704 2.411 . S
O706 C709 1.320 . S
O707 Cd704 2.333 . S
O707 C709 1.214 . S
O708 Cd704 2.352 . S
O708 C711 1.258 . S
C709 O706 1.320 . S
C709 O707 1.214 . S
O710 Cd702 2.277 . S
O710 C705 1.209 . S
C711 O708 1.258 . S
C711 O713 1.282 . S
O712 Cd704 2.277 . S
O712 C705 1.226 . S
O713 Cd704 2.356 . S
O713 C711 1.282 . S
C714 O715 1.306 . S
C714 O717 1.160 . S
O715 C714 1.306 . S
O715 Cd716 2.228 . S
Cd716 O715 2.228 . S
Cd716 O720 2.273 . S
Cd716 O724 2.277 . S
O717 C714 1.160 . S
O717 Cd718 2.203 . S
Cd718 O717 2.203 . S
Cd718 O720 2.411 . S
Cd718 O721 2.333 . S
Cd718 O722 2.352 . S
Cd718 O726 2.277 . S
Cd718 O727 2.356 . S
C719 O724 1.209 . S
C719 O726 1.226 . S
O720 Cd716 2.273 . S
O720 Cd718 2.411 . S
O720 C723 1.320 . S
O721 Cd718 2.333 . S
O721 C723 1.214 . S
O722 Cd718 2.352 . S
O722 C725 1.258 . S
C723 O720 1.320 . S
C723 O721 1.214 . S
O724 Cd716 2.277 . S
O724 C719 1.209 . S
C725 O722 1.258 . S
C725 O727 1.282 . S
O726 Cd718 2.277 . S
O726 C719 1.226 . S
O727 Cd718 2.356 . S
O727 C725 1.282 . S
C728 O729 1.306 . S
C728 O731 1.160 . S
O729 C728 1.306 . S
O729 Cd730 2.228 . S
Cd730 O729 2.228 . S
Cd730 O734 2.273 . S
Cd730 O738 2.277 . S
O731 C728 1.160 . S
O731 Cd732 2.203 . S
Cd732 O731 2.203 . S
Cd732 O734 2.411 . S
Cd732 O735 2.333 . S
Cd732 O736 2.352 . S
Cd732 O740 2.277 . S
Cd732 O741 2.356 . S
C733 O738 1.209 . S
C733 O740 1.226 . S
O734 Cd730 2.273 . S
O734 Cd732 2.411 . S
O734 C737 1.320 . S
O735 Cd732 2.333 . S
O735 C737 1.214 . S
O736 Cd732 2.352 . S
O736 C739 1.258 . S
C737 O734 1.320 . S
C737 O735 1.214 . S
O738 Cd730 2.277 . S
O738 C733 1.209 . S
C739 O736 1.258 . S
C739 O741 1.282 . S
O740 Cd732 2.277 . S
O740 C733 1.226 . S
O741 Cd732 2.356 . S
O741 C739 1.282 . S
C742 O743 1.306 . S
C742 O745 1.160 . S
O743 C742 1.306 . S
O743 Cd744 2.228 . S
Cd744 O743 2.228 . S
Cd744 O748 2.273 . S
Cd744 O752 2.277 . S
O745 C742 1.160 . S
O745 Cd746 2.203 . S
Cd746 O745 2.203 . S
Cd746 O748 2.411 . S
Cd746 O749 2.333 . S
Cd746 O750 2.352 . S
Cd746 O754 2.277 . S
Cd746 O755 2.356 . S
C747 O752 1.209 . S
C747 O754 1.226 . S
O748 Cd744 2.273 . S
O748 Cd746 2.411 . S
O748 C751 1.320 . S
O749 Cd746 2.333 . S
O749 C751 1.214 . S
O750 Cd746 2.352 . S
O750 C753 1.258 . S
C751 O748 1.320 . S
C751 O749 1.214 . S
O752 Cd744 2.277 . S
O752 C747 1.209 . S
C753 O750 1.258 . S
C753 O755 1.282 . S
O754 Cd746 2.277 . S
O754 C747 1.226 . S
O755 Cd746 2.356 . S
O755 C753 1.282 . S
C756 O757 1.306 . S
C756 O759 1.160 . S
O757 C756 1.306 . S
O757 Cd758 2.228 . S
Cd758 O757 2.228 . S
Cd758 O762 2.273 . S
Cd758 O766 2.277 . S
O759 C756 1.160 . S
O759 Cd760 2.203 . S
Cd760 O759 2.203 . S
Cd760 O762 2.411 . S
Cd760 O763 2.333 . S
Cd760 O764 2.352 . S
Cd760 O768 2.277 . S
Cd760 O769 2.356 . S
C761 O766 1.209 . S
C761 O768 1.226 . S
O762 Cd758 2.273 . S
O762 Cd760 2.411 . S
O762 C765 1.320 . S
O763 Cd760 2.333 . S
O763 C765 1.214 . S
O764 Cd760 2.352 . S
O764 C767 1.258 . S
C765 O762 1.320 . S
C765 O763 1.214 . S
O766 Cd758 2.277 . S
O766 C761 1.209 . S
C767 O764 1.258 . S
C767 O769 1.282 . S
O768 Cd760 2.277 . S
O768 C761 1.226 . S
O769 Cd760 2.356 . S
O769 C767 1.282 . S
C770 O771 1.306 . S
C770 O773 1.160 . S
O771 C770 1.306 . S
O771 Cd772 2.228 . S
Cd772 O771 2.228 . S
Cd772 O776 2.273 . S
Cd772 O780 2.277 . S
O773 C770 1.160 . S
O773 Cd774 2.203 . S
Cd774 O773 2.203 . S
Cd774 O776 2.411 . S
Cd774 O777 2.333 . S
Cd774 O778 2.352 . S
Cd774 O782 2.277 . S
Cd774 O783 2.356 . S
C775 O780 1.209 . S
C775 O782 1.226 . S
O776 Cd772 2.273 . S
O776 Cd774 2.411 . S
O776 C779 1.320 . S
O777 Cd774 2.333 . S
O777 C779 1.214 . S
O778 Cd774 2.352 . S
O778 C781 1.258 . S
C779 O776 1.320 . S
C779 O777 1.214 . S
O780 Cd772 2.277 . S
O780 C775 1.209 . S
C781 O778 1.258 . S
C781 O783 1.282 . S
O782 Cd774 2.277 . S
O782 C775 1.226 . S
O783 Cd774 2.356 . S
O783 C781 1.282 . S
C784 O785 1.306 . S
C784 O787 1.160 . S
O785 C784 1.306 . S
O785 Cd786 2.228 . S
Cd786 O785 2.228 . S
Cd786 O790 2.273 . S
Cd786 O794 2.277 . S
O787 C784 1.160 . S
O787 Cd788 2.203 . S
Cd788 O787 2.203 . S
Cd788 O790 2.411 . S
Cd788 O791 2.333 . S
Cd788 O792 2.352 . S
Cd788 O796 2.277 . S
Cd788 O797 2.356 . S
C789 O794 1.209 . S
C789 O796 1.226 . S
O790 Cd786 2.273 . S
O790 Cd788 2.411 . S
O790 C793 1.320 . S
O791 Cd788 2.333 . S
O791 C793 1.214 . S
O792 Cd788 2.352 . S
O792 C795 1.258 . S
C793 O790 1.320 . S
C793 O791 1.214 . S
O794 Cd786 2.277 . S
O794 C789 1.209 . S
C795 O792 1.258 . S
C795 O797 1.282 . S
O796 Cd788 2.277 . S
O796 C789 1.226 . S
O797 Cd788 2.356 . S
O797 C795 1.282 . S
C798 O799 1.306 . S
C798 O801 1.160 . S
O799 C798 1.306 . S
O799 Cd800 2.228 . S
Cd800 O799 2.228 . S
Cd800 O804 2.273 . S
Cd800 O808 2.277 . S
O801 C798 1.160 . S
O801 Cd802 2.203 . S
Cd802 O801 2.203 . S
Cd802 O804 2.411 . S
Cd802 O805 2.333 . S
Cd802 O806 2.352 . S
Cd802 O810 2.277 . S
Cd802 O811 2.356 . S
C803 O808 1.209 . S
C803 O810 1.226 . S
O804 Cd800 2.273 . S
O804 Cd802 2.411 . S
O804 C807 1.320 . S
O805 Cd802 2.333 . S
O805 C807 1.214 . S
O806 Cd802 2.352 . S
O806 C809 1.258 . S
C807 O804 1.320 . S
C807 O805 1.214 . S
O808 Cd800 2.277 . S
O808 C803 1.209 . S
C809 O806 1.258 . S
C809 O811 1.282 . S
O810 Cd802 2.277 . S
O810 C803 1.226 . S
O811 Cd802 2.356 . S
O811 C809 1.282 . S
C812 O813 1.306 . S
C812 O815 1.160 . S
O813 C812 1.306 . S
O813 Cd814 2.228 . S
Cd814 O813 2.228 . S
Cd814 O818 2.273 . S
Cd814 O822 2.277 . S
O815 C812 1.160 . S
O815 Cd816 2.203 . S
Cd816 O815 2.203 . S
Cd816 O818 2.411 . S
Cd816 O819 2.333 . S
Cd816 O820 2.352 . S
Cd816 O824 2.277 . S
Cd816 O825 2.356 . S
C817 O822 1.209 . S
C817 O824 1.226 . S
O818 Cd814 2.273 . S
O818 Cd816 2.411 . S
O818 C821 1.320 . S
O819 Cd816 2.333 . S
O819 C821 1.214 . S
O820 Cd816 2.352 . S
O820 C823 1.258 . S
C821 O818 1.320 . S
C821 O819 1.214 . S
O822 Cd814 2.277 . S
O822 C817 1.209 . S
C823 O820 1.258 . S
C823 O825 1.282 . S
O824 Cd816 2.277 . S
O824 C817 1.226 . S
O825 Cd816 2.356 . S
O825 C823 1.282 . S
C826 O827 1.306 . S
C826 O829 1.160 . S
O827 C826 1.306 . S
O827 Cd828 2.228 . S
Cd828 O827 2.228 . S
Cd828 O832 2.273 . S
Cd828 O836 2.277 . S
O829 C826 1.160 . S
O829 Cd830 2.203 . S
Cd830 O829 2.203 . S
Cd830 O832 2.411 . S
Cd830 O833 2.333 . S
Cd830 O834 2.352 . S
Cd830 O838 2.277 . S
Cd830 O839 2.356 . S
C831 O836 1.209 . S
C831 O838 1.226 . S
O832 Cd828 2.273 . S
O832 Cd830 2.411 . S
O832 C835 1.320 . S
O833 Cd830 2.333 . S
O833 C835 1.214 . S
O834 Cd830 2.352 . S
O834 C837 1.258 . S
C835 O832 1.320 . S
C835 O833 1.214 . S
O836 Cd828 2.277 . S
O836 C831 1.209 . S
C837 O834 1.258 . S
C837 O839 1.282 . S
O838 Cd830 2.277 . S
O838 C831 1.226 . S
O839 Cd830 2.356 . S
O839 C837 1.282 . S
C840 O841 1.306 . S
C840 O843 1.160 . S
O841 C840 1.306 . S
O841 Cd842 2.228 . S
Cd842 O841 2.228 . S
Cd842 O846 2.273 . S
Cd842 O850 2.277 . S
O843 C840 1.160 . S
O843 Cd844 2.203 . S
Cd844 O843 2.203 . S
Cd844 O846 2.411 . S
Cd844 O847 2.333 . S
Cd844 O848 2.352 . S
Cd844 O852 2.277 . S
Cd844 O853 2.356 . S
C845 O850 1.209 . S
C845 O852 1.226 . S
O846 Cd842 2.273 . S
O846 Cd844 2.411 . S
O846 C849 1.320 . S
O847 Cd844 2.333 . S
O847 C849 1.214 . S
O848 Cd844 2.352 . S
O848 C851 1.258 . S
C849 O846 1.320 . S
C849 O847 1.214 . S
O850 Cd842 2.277 . S
O850 C845 1.209 . S
C851 O848 1.258 . S
C851 O853 1.282 . S
O852 Cd844 2.277 . S
O852 C845 1.226 . S
O853 Cd844 2.356 . S
O853 C851 1.282 . S
C854 O855 1.306 . S
C854 O857 1.160 . S
O855 C854 1.306 . S
O855 Cd856 2.228 . S
Cd856 O855 2.228 . S
Cd856 O860 2.273 . S
Cd856 O864 2.277 . S
O857 C854 1.160 . S
O857 Cd858 2.203 . S
Cd858 O857 2.203 . S
Cd858 O860 2.411 . S
Cd858 O861 2.333 . S
Cd858 O862 2.352 . S
Cd858 O866 2.277 . S
Cd858 O867 2.356 . S
C859 O864 1.209 . S
C859 O866 1.226 . S
O860 Cd856 2.273 . S
O860 Cd858 2.411 . S
O860 C863 1.320 . S
O861 Cd858 2.333 . S
O861 C863 1.214 . S
O862 Cd858 2.352 . S
O862 C865 1.258 . S
C863 O860 1.320 . S
C863 O861 1.214 . S
O864 Cd856 2.277 . S
O864 C859 1.209 . S
C865 O862 1.258 . S
C865 O867 1.282 . S
O866 Cd858 2.277 . S
O866 C859 1.226 . S
O867 Cd858 2.356 . S
O867 C865 1.282 . S
C868 O869 1.306 . S
C868 O871 1.160 . S
O869 C868 1.306 . S
O869 Cd870 2.228 . S
Cd870 O869 2.228 . S
Cd870 O874 2.273 . S
Cd870 O878 2.277 . S
O871 C868 1.160 . S
O871 Cd872 2.203 . S
Cd872 O871 2.203 . S
Cd872 O874 2.411 . S
Cd872 O875 2.333 . S
Cd872 O876 2.352 . S
Cd872 O880 2.277 . S
Cd872 O881 2.356 . S
C873 O878 1.209 . S
C873 O880 1.226 . S
O874 Cd870 2.273 . S
O874 Cd872 2.411 . S
O874 C877 1.320 . S
O875 Cd872 2.333 . S
O875 C877 1.214 . S
O876 Cd872 2.352 . S
O876 C879 1.258 . S
C877 O874 1.320 . S
C877 O875 1.214 . S
O878 Cd870 2.277 . S
O878 C873 1.209 . S
C879 O876 1.258 . S
C879 O881 1.282 . S
O880 Cd872 2.277 . S
O880 C873 1.226 . S
O881 Cd872 2.356 . S
O881 C879 1.282 . S
C882 O883 1.306 . S
C882 O885 1.160 . S
O883 C882 1.306 . S
O883 Cd884 2.228 . S
Cd884 O883 2.228 . S
Cd884 O888 2.273 . S
Cd884 O892 2.277 . S
O885 C882 1.160 . S
O885 Cd886 2.203 . S
Cd886 O885 2.203 . S
Cd886 O888 2.411 . S
Cd886 O889 2.333 . S
Cd886 O890 2.352 . S
Cd886 O894 2.277 . S
Cd886 O895 2.356 . S
C887 O892 1.209 . S
C887 O894 1.226 . S
O888 Cd884 2.273 . S
O888 Cd886 2.411 . S
O888 C891 1.320 . S
O889 Cd886 2.333 . S
O889 C891 1.214 . S
O890 Cd886 2.352 . S
O890 C893 1.258 . S
C891 O888 1.320 . S
C891 O889 1.214 . S
O892 Cd884 2.277 . S
O892 C887 1.209 . S
C893 O890 1.258 . S
C893 O895 1.282 . S
O894 Cd886 2.277 . S
O894 C887 1.226 . S
O895 Cd886 2.356 . S
O895 C893 1.282 . S
C896 O897 1.306 . S
C896 O899 1.160 . S
O897 C896 1.306 . S
O897 Cd898 2.228 . S
Cd898 O897 2.228 . S
Cd898 O902 2.273 . S
Cd898 O906 2.277 . S
O899 C896 1.160 . S
O899 Cd900 2.203 . S
Cd900 O899 2.203 . S
Cd900 O902 2.411 . S
Cd900 O903 2.333 . S
Cd900 O904 2.352 . S
Cd900 O908 2.277 . S
Cd900 O909 2.356 . S
C901 O906 1.209 . S
C901 O908 1.226 . S
O902 Cd898 2.273 . S
O902 Cd900 2.411 . S
O902 C905 1.320 . S
O903 Cd900 2.333 . S
O903 C905 1.214 . S
O904 Cd900 2.352 . S
O904 C907 1.258 . S
C905 O902 1.320 . S
C905 O903 1.214 . S
O906 Cd898 2.277 . S
O906 C901 1.209 . S
C907 O904 1.258 . S
C907 O909 1.282 . S
O908 Cd900 2.277 . S
O908 C901 1.226 . S
O909 Cd900 2.356 . S
O909 C907 1.282 . S
C910 O911 1.306 . S
C910 O913 1.160 . S
O911 C910 1.306 . S
O911 Cd912 2.228 . S
Cd912 O911 2.228 . S
Cd912 O916 2.273 . S
Cd912 O920 2.277 . S
O913 C910 1.160 . S
O913 Cd914 2.203 . S
Cd914 O913 2.203 . S
Cd914 O916 2.411 . S
Cd914 O917 2.333 . S
Cd914 O918 2.352 . S
Cd914 O922 2.277 . S
Cd914 O923 2.356 . S
C915 O920 1.209 . S
C915 O922 1.226 . S
O916 Cd912 2.273 . S
O916 Cd914 2.411 . S
O916 C919 1.320 . S
O917 Cd914 2.333 . S
O917 C919 1.214 . S
O918 Cd914 2.352 . S
O918 C921 1.258 . S
C919 O916 1.320 . S
C919 O917 1.214 . S
O920 Cd912 2.277 . S
O920 C915 1.209 . S
C921 O918 1.258 . S
C921 O923 1.282 . S
O922 Cd914 2.277 . S
O922 C915 1.226 . S
O923 Cd914 2.356 . S
O923 C921 1.282 . S
C924 O925 1.306 . S
C924 O927 1.160 . S
O925 C924 1.306 . S
O925 Cd926 2.228 . S
Cd926 O925 2.228 . S
Cd926 O930 2.273 . S
Cd926 O934 2.277 . S
O927 C924 1.160 . S
O927 Cd928 2.203 . S
Cd928 O927 2.203 . S
Cd928 O930 2.411 . S
Cd928 O931 2.333 . S
Cd928 O932 2.352 . S
Cd928 O936 2.277 . S
Cd928 O937 2.356 . S
C929 O934 1.209 . S
C929 O936 1.226 . S
O930 Cd926 2.273 . S
O930 Cd928 2.411 . S
O930 C933 1.320 . S
O931 Cd928 2.333 . S
O931 C933 1.214 . S
O932 Cd928 2.352 . S
O932 C935 1.258 . S
C933 O930 1.320 . S
C933 O931 1.214 . S
O934 Cd926 2.277 . S
O934 C929 1.209 . S
C935 O932 1.258 . S
C935 O937 1.282 . S
O936 Cd928 2.277 . S
O936 C929 1.226 . S
O937 Cd928 2.356 . S
O937 C935 1.282 . S
C938 O939 1.306 . S
C938 O941 1.160 . S
O939 C938 1.306 . S
O939 Cd940 2.228 . S
Cd940 O939 2.228 . S
Cd940 O944 2.273 . S
Cd940 O948 2.277 . S
O941 C938 1.160 . S
O941 Cd942 2.203 . S
Cd942 O941 2.203 . S
Cd942 O944 2.411 . S
Cd942 O945 2.333 . S
Cd942 O946 2.352 . S
Cd942 O950 2.277 . S
Cd942 O951 2.356 . S
C943 O948 1.209 . S
C943 O950 1.226 . S
O944 Cd940 2.273 . S
O944 Cd942 2.411 . S
O944 C947 1.320 . S
O945 Cd942 2.333 . S
O945 C947 1.214 . S
O946 Cd942 2.352 . S
O946 C949 1.258 . S
C947 O944 1.320 . S
C947 O945 1.214 . S
O948 Cd940 2.277 . S
O948 C943 1.209 . S
C949 O946 1.258 . S
C949 O951 1.282 . S
O950 Cd942 2.277 . S
O950 C943 1.226 . S
O951 Cd942 2.356 . S
O951 C949 1.282 . S
C952 O953 1.306 . S
C952 O955 1.160 . S
O953 C952 1.306 . S
O953 Cd954 2.228 . S
Cd954 O953 2.228 . S
Cd954 O958 2.273 . S
Cd954 O962 2.277 . S
O955 C952 1.160 . S
O955 Cd956 2.203 . S
Cd956 O955 2.203 . S
Cd956 O958 2.411 . S
Cd956 O959 2.333 . S
Cd956 O960 2.352 . S
Cd956 O964 2.277 . S
Cd956 O965 2.356 . S
C957 O962 1.209 . S
C957 O964 1.226 . S
O958 Cd954 2.273 . S
O958 Cd956 2.411 . S
O958 C961 1.320 . S
O959 Cd956 2.333 . S
O959 C961 1.214 . S
O960 Cd956 2.352 . S
O960 C963 1.258 . S
C961 O958 1.320 . S
C961 O959 1.214 . S
O962 Cd954 2.277 . S
O962 C957 1.209 . S
C963 O960 1.258 . S
C963 O965 1.282 . S
O964 Cd956 2.277 . S
O964 C957 1.226 . S
O965 Cd956 2.356 . S
O965 C963 1.282 . S
C966 O967 1.306 . S
C966 O969 1.160 . S
O967 C966 1.306 . S
O967 Cd968 2.228 . S
Cd968 O967 2.228 . S
Cd968 O972 2.273 . S
Cd968 O976 2.277 . S
O969 C966 1.160 . S
O969 Cd970 2.203 . S
Cd970 O969 2.203 . S
Cd970 O972 2.411 . S
Cd970 O973 2.333 . S
Cd970 O974 2.352 . S
Cd970 O978 2.277 . S
Cd970 O979 2.356 . S
C971 O976 1.209 . S
C971 O978 1.226 . S
O972 Cd968 2.273 . S
O972 Cd970 2.411 . S
O972 C975 1.320 . S
O973 Cd970 2.333 . S
O973 C975 1.214 . S
O974 Cd970 2.352 . S
O974 C977 1.258 . S
C975 O972 1.320 . S
C975 O973 1.214 . S
O976 Cd968 2.277 . S
O976 C971 1.209 . S
C977 O974 1.258 . S
C977 O979 1.282 . S
O978 Cd970 2.277 . S
O978 C971 1.226 . S
O979 Cd970 2.356 . S
O979 C977 1.282 . S
C980 O981 1.306 . S
C980 O983 1.160 . S
O981 C980 1.306 . S
O981 Cd982 2.228 . S
Cd982 O981 2.228 . S
Cd982 O986 2.273 . S
Cd982 O990 2.277 . S
O983 C980 1.160 . S
O983 Cd984 2.203 . S
Cd984 O983 2.203 . S
Cd984 O986 2.411 . S
Cd984 O987 2.333 . S
Cd984 O988 2.352 . S
Cd984 O992 2.277 . S
Cd984 O993 2.356 . S
C985 O990 1.209 . S
C985 O992 1.226 . S
O986 Cd982 2.273 . S
O986 Cd984 2.411 . S
O986 C989 1.320 . S
O987 Cd984 2.333 . S
O987 C989 1.214 . S
O988 Cd984 2.352 . S
O988 C991 1.258 . S
C989 O986 1.320 . S
C989 O987 1.214 . S
O990 Cd982 2.277 . S
O990 C985 1.209 . S
C991 O988 1.258 . S
C991 O993 1.282 . S
O992 Cd984 2.277 . S
O992 C985 1.226 . S
O993 Cd984 2.356 . S
O993 C991 1.282 . S
C994 O995 1.306 . S
C994 O997 1.160 . S
O995 C994 1.306 . S
O995 Cd996 2.228 . S
Cd996 O995 2.228 . S
Cd996 O1000 2.273 . S
Cd996 O1004 2.277 . S
O997 C994 1.160 . S
O997 Cd998 2.203 . S
Cd998 O997 2.203 . S
Cd998 O1000 2.411 . S
Cd998 O1001 2.333 . S
Cd998 O1002 2.352 . S
Cd998 O1006 2.277 . S
Cd998 O1007 2.356 . S
C999 O1004 1.209 . S
C999 O1006 1.226 . S
O1000 Cd996 2.273 . S
O1000 Cd998 2.411 . S
O1000 C1003 1.320 . S
O1001 Cd998 2.333 . S
O1001 C1003 1.214 . S
O1002 Cd998 2.352 . S
O1002 C1005 1.258 . S
C1003 O1000 1.320 . S
C1003 O1001 1.214 . S
O1004 Cd996 2.277 . S
O1004 C999 1.209 . S
C1005 O1002 1.258 . S
C1005 O1007 1.282 . S
O1006 Cd998 2.277 . S
O1006 C999 1.226 . S
O1007 Cd998 2.356 . S
O1007 C1005 1.282 . S
C1008 O1009 1.306 . S
C1008 O1011 1.160 . S
O1009 C1008 1.306 . S
O1009 Cd1010 2.228 . S
Cd1010 O1009 2.228 . S
Cd1010 O1014 2.273 . S
Cd1010 O1018 2.277 . S
O1011 C1008 1.160 . S
O1011 Cd1012 2.203 . S
Cd1012 O1011 2.203 . S
Cd1012 O1014 2.411 . S
Cd1012 O1015 2.333 . S
Cd1012 O1016 2.352 . S
Cd1012 O1020 2.277 . S
Cd1012 O1021 2.356 . S
C1013 O1018 1.209 . S
C1013 O1020 1.226 . S
O1014 Cd1010 2.273 . S
O1014 Cd1012 2.411 . S
O1014 C1017 1.320 . S
O1015 Cd1012 2.333 . S
O1015 C1017 1.214 . S
O1016 Cd1012 2.352 . S
O1016 C1019 1.258 . S
C1017 O1014 1.320 . S
C1017 O1015 1.214 . S
O1018 Cd1010 2.277 . S
O1018 C1013 1.209 . S
C1019 O1016 1.258 . S
C1019 O1021 1.282 . S
O1020 Cd1012 2.277 . S
O1020 C1013 1.226 . S
O1021 Cd1012 2.356 . S
O1021 C1019 1.282 . S
C1022 O1023 1.306 . S
C1022 O1025 1.160 . S
O1023 C1022 1.306 . S
O1023 Cd1024 2.228 . S
Cd1024 O1023 2.228 . S
Cd1024 O1028 2.273 . S
Cd1024 O1032 2.277 . S
O1025 C1022 1.160 . S
O1025 Cd1026 2.203 . S
Cd1026 O1025 2.203 . S
Cd1026 O1028 2.411 . S
Cd1026 O1029 2.333 . S
Cd1026 O1030 2.352 . S
Cd1026 O1034 2.277 . S
Cd1026 O1035 2.356 . S
C1027 O1032 1.209 . S
C1027 O1034 1.226 . S
O1028 Cd1024 2.273 . S
O1028 Cd1026 2.411 . S
O1028 C1031 1.320 . S
O1029 Cd1026 2.333 . S
O1029 C1031 1.214 . S
O1030 Cd1026 2.352 . S
O1030 C1033 1.258 . S
C1031 O1028 1.320 . S
C1031 O1029 1.214 . S
O1032 Cd1024 2.277 . S
O1032 C1027 1.209 . S
C1033 O1030 1.258 . S
C1033 O1035 1.282 . S
O1034 Cd1026 2.277 . S
O1034 C1027 1.226 . S
O1035 Cd1026 2.356 . S
O1035 C1033 1.282 . S
C1036 O1037 1.306 . S
C1036 O1039 1.160 . S
O1037 C1036 1.306 . S
O1037 Cd1038 2.228 . S
Cd1038 O1037 2.228 . S
Cd1038 O1042 2.273 . S
Cd1038 O1046 2.277 . S
O1039 C1036 1.160 . S
O1039 Cd1040 2.203 . S
Cd1040 O1039 2.203 . S
Cd1040 O1042 2.411 . S
Cd1040 O1043 2.333 . S
Cd1040 O1044 2.352 . S
Cd1040 O1048 2.277 . S
Cd1040 O1049 2.356 . S
C1041 O1046 1.209 . S
C1041 O1048 1.226 . S
O1042 Cd1038 2.273 . S
O1042 Cd1040 2.411 . S
O1042 C1045 1.320 . S
O1043 Cd1040 2.333 . S
O1043 C1045 1.214 . S
O1044 Cd1040 2.352 . S
O1044 C1047 1.258 . S
C1045 O1042 1.320 . S
C1045 O1043 1.214 . S
O1046 Cd1038 2.277 . S
O1046 C1041 1.209 . S
C1047 O1044 1.258 . S
C1047 O1049 1.282 . S
O1048 Cd1040 2.277 . S
O1048 C1041 1.226 . S
O1049 Cd1040 2.356 . S
O1049 C1047 1.282 . S
C1050 O1051 1.306 . S
C1050 O1053 1.160 . S
O1051 C1050 1.306 . S
O1051 Cd1052 2.228 . S
Cd1052 O1051 2.228 . S
Cd1052 O1056 2.273 . S
Cd1052 O1060 2.277 . S
O1053 C1050 1.160 . S
O1053 Cd1054 2.203 . S
Cd1054 O1053 2.203 . S
Cd1054 O1056 2.411 . S
Cd1054 O1057 2.333 . S
Cd1054 O1058 2.352 . S
Cd1054 O1062 2.277 . S
Cd1054 O1063 2.356 . S
C1055 O1060 1.209 . S
C1055 O1062 1.226 . S
O1056 Cd1052 2.273 . S
O1056 Cd1054 2.411 . S
O1056 C1059 1.320 . S
O1057 Cd1054 2.333 . S
O1057 C1059 1.214 . S
O1058 Cd1054 2.352 . S
O1058 C1061 1.258 . S
C1059 O1056 1.320 . S
C1059 O1057 1.214 . S
O1060 Cd1052 2.277 . S
O1060 C1055 1.209 . S
C1061 O1058 1.258 . S
C1061 O1063 1.282 . S
O1062 Cd1054 2.277 . S
O1062 C1055 1.226 . S
O1063 Cd1054 2.356 . S
O1063 C1061 1.282 . S
C1064 O1065 1.306 . S
C1064 O1067 1.160 . S
O1065 C1064 1.306 . S
O1065 Cd1066 2.228 . S
Cd1066 O1065 2.228 . S
Cd1066 O1070 2.273 . S
Cd1066 O1074 2.277 . S
O1067 C1064 1.160 . S
O1067 Cd1068 2.203 . S
Cd1068 O1067 2.203 . S
Cd1068 O1070 2.411 . S
Cd1068 O1071 2.333 . S
Cd1068 O1072 2.352 . S
Cd1068 O1076 2.277 . S
Cd1068 O1077 2.356 . S
C1069 O1074 1.209 . S
C1069 O1076 1.226 . S
O1070 Cd1066 2.273 . S
O1070 Cd1068 2.411 . S
O1070 C1073 1.320 . S
O1071 Cd1068 2.333 . S
O1071 C1073 1.214 . S
O1072 Cd1068 2.352 . S
O1072 C1075 1.258 . S
C1073 O1070 1.320 . S
C1073 O1071 1.214 . S
O1074 Cd1066 2.277 . S
O1074 C1069 1.209 . S
C1075 O1072 1.258 . S
C1075 O1077 1.282 . S
O1076 Cd1068 2.277 . S
O1076 C1069 1.226 . S
O1077 Cd1068 2.356 . S
O1077 C1075 1.282 . S
C1078 O1079 1.306 . S
C1078 O1081 1.160 . S
O1079 C1078 1.306 . S
O1079 Cd1080 2.228 . S
Cd1080 O1079 2.228 . S
Cd1080 O1084 2.273 . S
Cd1080 O1088 2.277 . S
O1081 C1078 1.160 . S
O1081 Cd1082 2.203 . S
Cd1082 O1081 2.203 . S
Cd1082 O1084 2.411 . S
Cd1082 O1085 2.333 . S
Cd1082 O1086 2.352 . S
Cd1082 O1090 2.277 . S
Cd1082 O1091 2.356 . S
C1083 O1088 1.209 . S
C1083 O1090 1.226 . S
O1084 Cd1080 2.273 . S
O1084 Cd1082 2.411 . S
O1084 C1087 1.320 . S
O1085 Cd1082 2.333 . S
O1085 C1087 1.214 . S
O1086 Cd1082 2.352 . S
O1086 C1089 1.258 . S
C1087 O1084 1.320 . S
C1087 O1085 1.214 . S
O1088 Cd1080 2.277 . S
O1088 C1083 1.209 . S
C1089 O1086 1.258 . S
C1089 O1091 1.282 . S
O1090 Cd1082 2.277 . S
O1090 C1083 1.226 . S
O1091 Cd1082 2.356 . S
O1091 C1089 1.282 . S
C1092 O1093 1.306 . S
C1092 O1095 1.160 . S
O1093 C1092 1.306 . S
O1093 Cd1094 2.228 . S
Cd1094 O1093 2.228 . S
Cd1094 O1098 2.273 . S
Cd1094 O1102 2.277 . S
O1095 C1092 1.160 . S
O1095 Cd1096 2.203 . S
Cd1096 O1095 2.203 . S
Cd1096 O1098 2.411 . S
Cd1096 O1099 2.333 . S
Cd1096 O1100 2.352 . S
Cd1096 O1104 2.277 . S
Cd1096 O1105 2.356 . S
C1097 O1102 1.209 . S
C1097 O1104 1.226 . S
O1098 Cd1094 2.273 . S
O1098 Cd1096 2.411 . S
O1098 C1101 1.320 . S
O1099 Cd1096 2.333 . S
O1099 C1101 1.214 . S
O1100 Cd1096 2.352 . S
O1100 C1103 1.258 . S
C1101 O1098 1.320 . S
C1101 O1099 1.214 . S
O1102 Cd1094 2.277 . S
O1102 C1097 1.209 . S
C1103 O1100 1.258 . S
C1103 O1105 1.282 . S
O1104 Cd1096 2.277 . S
O1104 C1097 1.226 . S
O1105 Cd1096 2.356 . S
O1105 C1103 1.282 . S
C1106 O1107 1.306 . S
C1106 O1109 1.160 . S
O1107 C1106 1.306 . S
O1107 Cd1108 2.228 . S
Cd1108 O1107 2.228 . S
Cd1108 O1112 2.273 . S
Cd1108 O1116 2.277 . S
O1109 C1106 1.160 . S
O1109 Cd1110 2.203 . S
Cd1110 O1109 2.203 . S
Cd1110 O1112 2.411 . S
Cd1110 O1113 2.333 . S
Cd1110 O1114 2.352 . S
Cd1110 O1118 2.277 . S
Cd1110 O1119 2.356 . S
C1111 O1116 1.209 . S
C1111 O1118 1.226 . S
O1112 Cd1108 2.273 . S
O1112 Cd1110 2.411 . S
O1112 C1115 1.320 . S
O1113 Cd1110 2.333 . S
O1113 C1115 1.214 . S
O1114 Cd1110 2.352 . S
O1114 C1117 1.258 . S
C1115 O1112 1.320 . S
C1115 O1113 1.214 . S
O1116 Cd1108 2.277 . S
O1116 C1111 1.209 . S
C1117 O1114 1.258 . S
C1117 O1119 1.282 . S
O1118 Cd1110 2.277 . S
O1118 C1111 1.226 . S
O1119 Cd1110 2.356 . S
O1119 C1117 1.282 . S
C1120 O1121 1.306 . S
C1120 O1123 1.160 . S
O1121 C1120 1.306 . S
O1121 Cd1122 2.228 . S
Cd1122 O1121 2.228 . S
Cd1122 O1126 2.273 . S
Cd1122 O1130 2.277 . S
O1123 C1120 1.160 . S
O1123 Cd1124 2.203 . S
Cd1124 O1123 2.203 . S
Cd1124 O1126 2.411 . S
Cd1124 O1127 2.333 . S
Cd1124 O1128 2.352 . S
Cd1124 O1132 2.277 . S
Cd1124 O1133 2.356 . S
C1125 O1130 1.209 . S
C1125 O1132 1.226 . S
O1126 Cd1122 2.273 . S
O1126 Cd1124 2.411 . S
O1126 C1129 1.320 . S
O1127 Cd1124 2.333 . S
O1127 C1129 1.214 . S
O1128 Cd1124 2.352 . S
O1128 C1131 1.258 . S
C1129 O1126 1.320 . S
C1129 O1127 1.214 . S
O1130 Cd1122 2.277 . S
O1130 C1125 1.209 . S
C1131 O1128 1.258 . S
C1131 O1133 1.282 . S
O1132 Cd1124 2.277 . S
O1132 C1125 1.226 . S
O1133 Cd1124 2.356 . S
O1133 C1131 1.282 . S
C1134 O1135 1.306 . S
C1134 O1137 1.160 . S
O1135 C1134 1.306 . S
O1135 Cd1136 2.228 . S
Cd1136 O1135 2.228 . S
Cd1136 O1140 2.273 . S
Cd1136 O1144 2.277 . S
O1137 C1134 1.160 . S
O1137 Cd1138 2.203 . S
Cd1138 O1137 2.203 . S
Cd1138 O1140 2.411 . S
Cd1138 O1141 2.333 . S
Cd1138 O1142 2.352 . S
Cd1138 O1146 2.277 . S
Cd1138 O1147 2.356 . S
C1139 O1144 1.209 . S
C1139 O1146 1.226 . S
O1140 Cd1136 2.273 . S
O1140 Cd1138 2.411 . S
O1140 C1143 1.320 . S
O1141 Cd1138 2.333 . S
O1141 C1143 1.214 . S
O1142 Cd1138 2.352 . S
O1142 C1145 1.258 . S
C1143 O1140 1.320 . S
C1143 O1141 1.214 . S
O1144 Cd1136 2.277 . S
O1144 C1139 1.209 . S
C1145 O1142 1.258 . S
C1145 O1147 1.282 . S
O1146 Cd1138 2.277 . S
O1146 C1139 1.226 . S
O1147 Cd1138 2.356 . S
O1147 C1145 1.282 . S
C1148 O1149 1.306 . S
C1148 O1151 1.160 . S
O1149 C1148 1.306 . S
O1149 Cd1150 2.228 . S
Cd1150 O1149 2.228 . S
Cd1150 O1154 2.273 . S
Cd1150 O1158 2.277 . S
O1151 C1148 1.160 . S
O1151 Cd1152 2.203 . S
Cd1152 O1151 2.203 . S
Cd1152 O1154 2.411 . S
Cd1152 O1155 2.333 . S
Cd1152 O1156 2.352 . S
Cd1152 O1160 2.277 . S
Cd1152 O1161 2.356 . S
C1153 O1158 1.209 . S
C1153 O1160 1.226 . S
O1154 Cd1150 2.273 . S
O1154 Cd1152 2.411 . S
O1154 C1157 1.320 . S
O1155 Cd1152 2.333 . S
O1155 C1157 1.214 . S
O1156 Cd1152 2.352 . S
O1156 C1159 1.258 . S
C1157 O1154 1.320 . S
C1157 O1155 1.214 . S
O1158 Cd1150 2.277 . S
O1158 C1153 1.209 . S
C1159 O1156 1.258 . S
C1159 O1161 1.282 . S
O1160 Cd1152 2.277 . S
O1160 C1153 1.226 . S
O1161 Cd1152 2.356 . S
O1161 C1159 1.282 . S
C1162 O1163 1.306 . S
C1162 O1165 1.160 . S
O1163 C1162 1.306 . S
O1163 Cd1164 2.228 . S
Cd1164 O1163 2.228 . S
Cd1164 O1168 2.273 . S
Cd1164 O1172 2.277 . S
O1165 C1162 1.160 . S
O1165 Cd1166 2.203 . S
Cd1166 O1165 2.203 . S
Cd1166 O1168 2.411 . S
Cd1166 O1169 2.333 . S
Cd1166 O1170 2.352 . S
Cd1166 O1174 2.277 . S
Cd1166 O1175 2.356 . S
C1167 O1172 1.209 . S
C1167 O1174 1.226 . S
O1168 Cd1164 2.273 . S
O1168 Cd1166 2.411 . S
O1168 C1171 1.320 . S
O1169 Cd1166 2.333 . S
O1169 C1171 1.214 . S
O1170 Cd1166 2.352 . S
O1170 C1173 1.258 . S
C1171 O1168 1.320 . S
C1171 O1169 1.214 . S
O1172 Cd1164 2.277 . S
O1172 C1167 1.209 . S
C1173 O1170 1.258 . S
C1173 O1175 1.282 . S
O1174 Cd1166 2.277 . S
O1174 C1167 1.226 . S
O1175 Cd1166 2.356 . S
O1175 C1173 1.282 . S
C1176 O1177 1.306 . S
C1176 O1179 1.160 . S
O1177 C1176 1.306 . S
O1177 Cd1178 2.228 . S
Cd1178 O1177 2.228 . S
Cd1178 O1182 2.273 . S
Cd1178 O1186 2.277 . S
O1179 C1176 1.160 . S
O1179 Cd1180 2.203 . S
Cd1180 O1179 2.203 . S
Cd1180 O1182 2.411 . S
Cd1180 O1183 2.333 . S
Cd1180 O1184 2.352 . S
Cd1180 O1188 2.277 . S
Cd1180 O1189 2.356 . S
C1181 O1186 1.209 . S
C1181 O1188 1.226 . S
O1182 Cd1178 2.273 . S
O1182 Cd1180 2.411 . S
O1182 C1185 1.320 . S
O1183 Cd1180 2.333 . S
O1183 C1185 1.214 . S
O1184 Cd1180 2.352 . S
O1184 C1187 1.258 . S
C1185 O1182 1.320 . S
C1185 O1183 1.214 . S
O1186 Cd1178 2.277 . S
O1186 C1181 1.209 . S
C1187 O1184 1.258 . S
C1187 O1189 1.282 . S
O1188 Cd1180 2.277 . S
O1188 C1181 1.226 . S
O1189 Cd1180 2.356 . S
O1189 C1187 1.282 . S
C1190 O1191 1.306 . S
C1190 O1193 1.160 . S
O1191 C1190 1.306 . S
O1191 Cd1192 2.228 . S
Cd1192 O1191 2.228 . S
Cd1192 O1196 2.273 . S
Cd1192 O1200 2.277 . S
O1193 C1190 1.160 . S
O1193 Cd1194 2.203 . S
Cd1194 O1193 2.203 . S
Cd1194 O1196 2.411 . S
Cd1194 O1197 2.333 . S
Cd1194 O1198 2.352 . S
Cd1194 O1202 2.277 . S
Cd1194 O1203 2.356 . S
C1195 O1200 1.209 . S
C1195 O1202 1.226 . S
O1196 Cd1192 2.273 . S
O1196 Cd1194 2.411 . S
O1196 C1199 1.320 . S
O1197 Cd1194 2.333 . S
O1197 C1199 1.214 . S
O1198 Cd1194 2.352 . S
O1198 C1201 1.258 . S
C1199 O1196 1.320 . S
C1199 O1197 1.214 . S
O1200 Cd1192 2.277 . S
O1200 C1195 1.209 . S
C1201 O1198 1.258 . S
C1201 O1203 1.282 . S
O1202 Cd1194 2.277 . S
O1202 C1195 1.226 . S
O1203 Cd1194 2.356 . S
O1203 C1201 1.282 . S
C1204 O1205 1.306 . S
C1204 O1207 1.160 . S
O1205 C1204 1.306 . S
O1205 Cd1206 2.228 . S
Cd1206 O1205 2.228 . S
Cd1206 O1210 2.273 . S
Cd1206 O1214 2.277 . S
O1207 C1204 1.160 . S
O1207 Cd1208 2.203 . S
Cd1208 O1207 2.203 . S
Cd1208 O1210 2.411 . S
Cd1208 O1211 2.333 . S
Cd1208 O1212 2.352 . S
Cd1208 O1216 2.277 . S
Cd1208 O1217 2.356 . S
C1209 O1214 1.209 . S
C1209 O1216 1.226 . S
O1210 Cd1206 2.273 . S
O1210 Cd1208 2.411 . S
O1210 C1213 1.320 . S
O1211 Cd1208 2.333 . S
O1211 C1213 1.214 . S
O1212 Cd1208 2.352 . S
O1212 C1215 1.258 . S
C1213 O1210 1.320 . S
C1213 O1211 1.214 . S
O1214 Cd1206 2.277 . S
O1214 C1209 1.209 . S
C1215 O1212 1.258 . S
C1215 O1217 1.282 . S
O1216 Cd1208 2.277 . S
O1216 C1209 1.226 . S
O1217 Cd1208 2.356 . S
O1217 C1215 1.282 . S
C1218 O1219 1.306 . S
C1218 O1221 1.160 . S
O1219 C1218 1.306 . S
O1219 Cd1220 2.228 . S
Cd1220 O1219 2.228 . S
Cd1220 O1224 2.273 . S
Cd1220 O1228 2.277 . S
O1221 C1218 1.160 . S
O1221 Cd1222 2.203 . S
Cd1222 O1221 2.203 . S
Cd1222 O1224 2.411 . S
Cd1222 O1225 2.333 . S
Cd1222 O1226 2.352 . S
Cd1222 O1230 2.277 . S
Cd1222 O1231 2.356 . S
C1223 O1228 1.209 . S
C1223 O1230 1.226 . S
O1224 Cd1220 2.273 . S
O1224 Cd1222 2.411 . S
O1224 C1227 1.320 . S
O1225 Cd1222 2.333 . S
O1225 C1227 1.214 . S
O1226 Cd1222 2.352 . S
O1226 C1229 1.258 . S
C1227 O1224 1.320 . S
C1227 O1225 1.214 . S
O1228 Cd1220 2.277 . S
O1228 C1223 1.209 . S
C1229 O1226 1.258 . S
C1229 O1231 1.282 . S
O1230 Cd1222 2.277 . S
O1230 C1223 1.226 . S
O1231 Cd1222 2.356 . S
O1231 C1229 1.282 . S
C1232 O1233 1.306 . S
C1232 O1235 1.160 . S
O1233 C1232 1.306 . S
O1233 Cd1234 2.228 . S
Cd1234 O1233 2.228 . S
Cd1234 O1238 2.273 . S
Cd1234 O1242 2.277 . S
O1235 C1232 1.160 . S
O1235 Cd1236 2.203 . S
Cd1236 O1235 2.203 . S
Cd1236 O1238 2.411 . S
Cd1236 O1239 2.333 . S
Cd1236 O1240 2.352 . S
Cd1236 O1244 2.277 . S
Cd1236 O1245 2.356 . S
C1237 O1242 1.209 . S
C1237 O1244 1.226 . S
O1238 Cd1234 2.273 . S
O1238 Cd1236 2.411 . S
O1238 C1241 1.320 . S
O1239 Cd1236 2.333 . S
O1239 C1241 1.214 . S
O1240 Cd1236 2.352 . S
O1240 C1243 1.258 . S
C1241 O1238 1.320 . S
C1241 O1239 1.214 . S
O1242 Cd1234 2.277 . S
O1242 C1237 1.209 . S
C1243 O1240 1.258 . S
C1243 O1245 1.282 . S
O1244 Cd1236 2.277 . S
O1244 C1237 1.226 . S
O1245 Cd1236 2.356 . S
O1245 C1243 1.282 . S
C1246 O1247 1.306 . S
C1246 O1249 1.160 . S
O1247 C1246 1.306 . S
O1247 Cd1248 2.228 . S
Cd1248 O1247 2.228 . S
Cd1248 O1252 2.273 . S
Cd1248 O1256 2.277 . S
O1249 C1246 1.160 . S
O1249 Cd1250 2.203 . S
Cd1250 O1249 2.203 . S
Cd1250 O1252 2.411 . S
Cd1250 O1253 2.333 . S
Cd1250 O1254 2.352 . S
Cd1250 O1258 2.277 . S
Cd1250 O1259 2.356 . S
C1251 O1256 1.209 . S
C1251 O1258 1.226 . S
O1252 Cd1248 2.273 . S
O1252 Cd1250 2.411 . S
O1252 C1255 1.320 . S
O1253 Cd1250 2.333 . S
O1253 C1255 1.214 . S
O1254 Cd1250 2.352 . S
O1254 C1257 1.258 . S
C1255 O1252 1.320 . S
C1255 O1253 1.214 . S
O1256 Cd1248 2.277 . S
O1256 C1251 1.209 . S
C1257 O1254 1.258 . S
C1257 O1259 1.282 . S
O1258 Cd1250 2.277 . S
O1258 C1251 1.226 . S
O1259 Cd1250 2.356 . S
O1259 C1257 1.282 . S
C1260 O1261 1.306 . S
C1260 O1263 1.160 . S
O1261 C1260 1.306 . S
O1261 Cd1262 2.228 . S
Cd1262 O1261 2.228 . S
Cd1262 O1266 2.273 . S
Cd1262 O1270 2.277 . S
O1263 C1260 1.160 . S
O1263 Cd1264 2.203 . S
Cd1264 O1263 2.203 . S
Cd1264 O1266 2.411 . S
Cd1264 O1267 2.333 . S
Cd1264 O1268 2.352 . S
Cd1264 O1272 2.277 . S
Cd1264 O1273 2.356 . S
C1265 O1270 1.209 . S
C1265 O1272 1.226 . S
O1266 Cd1262 2.273 . S
O1266 Cd1264 2.411 . S
O1266 C1269 1.320 . S
O1267 Cd1264 2.333 . S
O1267 C1269 1.214 . S
O1268 Cd1264 2.352 . S
O1268 C1271 1.258 . S
C1269 O1266 1.320 . S
C1269 O1267 1.214 . S
O1270 Cd1262 2.277 . S
O1270 C1265 1.209 . S
C1271 O1268 1.258 . S
C1271 O1273 1.282 . S
O1272 Cd1264 2.277 . S
O1272 C1265 1.226 . S
O1273 Cd1264 2.356 . S
O1273 C1271 1.282 . S
C1274 O1275 1.306 . S
C1274 O1277 1.160 . S
O1275 C1274 1.306 . S
O1275 Cd1276 2.228 . S
Cd1276 O1275 2.228 . S
Cd1276 O1280 2.273 . S
Cd1276 O1284 2.277 . S
O1277 C1274 1.160 . S
O1277 Cd1278 2.203 . S
Cd1278 O1277 2.203 . S
Cd1278 O1280 2.411 . S
Cd1278 O1281 2.333 . S
Cd1278 O1282 2.352 . S
Cd1278 O1286 2.277 . S
Cd1278 O1287 2.356 . S
C1279 O1284 1.209 . S
C1279 O1286 1.226 . S
O1280 Cd1276 2.273 . S
O1280 Cd1278 2.411 . S
O1280 C1283 1.320 . S
O1281 Cd1278 2.333 . S
O1281 C1283 1.214 . S
O1282 Cd1278 2.352 . S
O1282 C1285 1.258 . S
C1283 O1280 1.320 . S
C1283 O1281 1.214 . S
O1284 Cd1276 2.277 . S
O1284 C1279 1.209 . S
C1285 O1282 1.258 . S
C1285 O1287 1.282 . S
O1286 Cd1278 2.277 . S
O1286 C1279 1.226 . S
O1287 Cd1278 2.356 . S
O1287 C1285 1.282 . S
C1288 O1289 1.306 . S
C1288 O1291 1.160 . S
O1289 C1288 1.306 . S
O1289 Cd1290 2.228 . S
Cd1290 O1289 2.228 . S
Cd1290 O1294 2.273 . S
Cd1290 O1298 2.277 . S
O1291 C1288 1.160 . S
O1291 Cd1292 2.203 . S
Cd1292 O1291 2.203 . S
Cd1292 O1294 2.411 . S
Cd1292 O1295 2.333 . S
Cd1292 O1296 2.352 . S
Cd1292 O1300 2.277 . S
Cd1292 O1301 2.356 . S
C1293 O1298 1.209 . S
C1293 O1300 1.226 . S
O1294 Cd1290 2.273 . S
O1294 Cd1292 2.411 . S
O1294 C1297 1.320 . S
O1295 Cd1292 2.333 . S
O1295 C1297 1.214 . S
O1296 Cd1292 2.352 . S
O1296 C1299 1.258 . S
C1297 O1294 1.320 . S
C1297 O1295 1.214 . S
O1298 Cd1290 2.277 . S
O1298 C1293 1.209 . S
C1299 O1296 1.258 . S
C1299 O1301 1.282 . S
O1300 Cd1292 2.277 . S
O1300 C1293 1.226 . S
O1301 Cd1292 2.356 . S
O1301 C1299 1.282 . S
C1302 O1303 1.306 . S
C1302 O1305 1.160 . S
O1303 C1302 1.306 . S
O1303 Cd1304 2.228 . S
Cd1304 O1303 2.228 . S
Cd1304 O1308 2.273 . S
Cd1304 O1312 2.277 . S
O1305 C1302 1.160 . S
O1305 Cd1306 2.203 . S
Cd1306 O1305 2.203 . S
Cd1306 O1308 2.411 . S
Cd1306 O1309 2.333 . S
Cd1306 O1310 2.352 . S
Cd1306 O1314 2.277 . S
Cd1306 O1315 2.356 . S
C1307 O1312 1.209 . S
C1307 O1314 1.226 . S
O1308 Cd1304 2.273 . S
O1308 Cd1306 2.411 . S
O1308 C1311 1.320 . S
O1309 Cd1306 2.333 . S
O1309 C1311 1.214 . S
O1310 Cd1306 2.352 . S
O1310 C1313 1.258 . S
C1311 O1308 1.320 . S
C1311 O1309 1.214 . S
O1312 Cd1304 2.277 . S
O1312 C1307 1.209 . S
C1313 O1310 1.258 . S
C1313 O1315 1.282 . S
O1314 Cd1306 2.277 . S
O1314 C1307 1.226 . S
O1315 Cd1306 2.356 . S
O1315 C1313 1.282 . S
C1316 O1317 1.306 . S
C1316 O1319 1.160 . S
O1317 C1316 1.306 . S
O1317 Cd1318 2.228 . S
Cd1318 O1317 2.228 . S
Cd1318 O1322 2.273 . S
Cd1318 O1326 2.277 . S
O1319 C1316 1.160 . S
O1319 Cd1320 2.203 . S
Cd1320 O1319 2.203 . S
Cd1320 O1322 2.411 . S
Cd1320 O1323 2.333 . S
Cd1320 O1324 2.352 . S
Cd1320 O1328 2.277 . S
Cd1320 O1329 2.356 . S
C1321 O1326 1.209 . S
C1321 O1328 1.226 . S
O1322 Cd1318 2.273 . S
O1322 Cd1320 2.411 . S
O1322 C1325 1.320 . S
O1323 Cd1320 2.333 . S
O1323 C1325 1.214 . S
O1324 Cd1320 2.352 . S
O1324 C1327 1.258 . S
C1325 O1322 1.320 . S
C1325 O1323 1.214 . S
O1326 Cd1318 2.277 . S
O1326 C1321 1.209 . S
C1327 O1324 1.258 . S
C1327 O1329 1.282 . S
O1328 Cd1320 2.277 . S
O1328 C1321 1.226 . S
O1329 Cd1320 2.356 . S
O1329 C1327 1.282 . S
C1330 O1331 1.306 . S
C1330 O1333 1.160 . S
O1331 C1330 1.306 . S
O1331 Cd1332 2.228 . S
Cd1332 O1331 2.228 . S
Cd1332 O1336 2.273 . S
Cd1332 O1340 2.277 . S
O1333 C1330 1.160 . S
O1333 Cd1334 2.203 . S
Cd1334 O1333 2.203 . S
Cd1334 O1336 2.411 . S
Cd1334 O1337 2.333 . S
Cd1334 O1338 2.352 . S
Cd1334 O1342 2.277 . S
Cd1334 O1343 2.356 . S
C1335 O1340 1.209 . S
C1335 O1342 1.226 . S
O1336 Cd1332 2.273 . S
O1336 Cd1334 2.411 . S
O1336 C1339 1.320 . S
O1337 Cd1334 2.333 . S
O1337 C1339 1.214 . S
O1338 Cd1334 2.352 . S
O1338 C1341 1.258 . S
C1339 O1336 1.320 . S
C1339 O1337 1.214 . S
O1340 Cd1332 2.277 . S
O1340 C1335 1.209 . S
C1341 O1338 1.258 . S
C1341 O1343 1.282 . S
O1342 Cd1334 2.277 . S
O1342 C1335 1.226 . S
O1343 Cd1334 2.356 . S
O1343 C1341 1.282 . S
H1344 C1350 0.930 . S
H1345 C1354 0.930 . S
H1346 C1359 0.929 . S
H1347 C1357 0.929 . S
H1348 C1352 0.929 . S
H1349 C1358 0.929 . S
C1350 H1344 0.930 . S
C1350 C1351 1.367 . S
C1350 C1358 1.378 . S
C1351 C1350 1.367 . S
C1351 C1359 1.433 . S
C1352 H1348 0.929 . S
C1352 C1354 1.378 . S
C1352 C1356 1.350 . S
C1353 C1356 1.463 . S
C1353 C1358 1.350 . S
C1353 N1361 1.427 . S
C1354 H1345 0.930 . S
C1354 C1352 1.378 . S
C1354 C1355 1.367 . S
C1355 C1354 1.367 . S
C1355 C1357 1.433 . S
C1356 C1352 1.350 . S
C1356 C1353 1.463 . S
C1356 N1360 1.427 . S
C1357 H1347 0.929 . S
C1357 C1355 1.433 . S
C1357 N1360 1.384 . S
C1358 H1349 0.929 . S
C1358 C1350 1.378 . S
C1358 C1353 1.350 . S
C1359 H1346 0.929 . S
C1359 C1351 1.433 . S
C1359 N1361 1.384 . S
N1360 C1356 1.427 . S
N1360 C1357 1.384 . S
N1361 C1353 1.427 . S
N1361 C1359 1.384 . S
H1362 C1368 0.930 . S
H1363 C1372 0.930 . S
H1364 C1377 0.929 . S
H1365 C1375 0.929 . S
H1366 C1370 0.929 . S
H1367 C1376 0.929 . S
C1368 H1362 0.930 . S
C1368 C1369 1.367 . S
C1368 C1376 1.378 . S
C1369 C1368 1.367 . S
C1369 C1377 1.433 . S
C1370 H1366 0.929 . S
C1370 C1372 1.378 . S
C1370 C1374 1.350 . S
C1371 C1374 1.463 . S
C1371 C1376 1.350 . S
C1371 N1379 1.427 . S
C1372 H1363 0.930 . S
C1372 C1370 1.378 . S
C1372 C1373 1.367 . S
C1373 C1372 1.367 . S
C1373 C1375 1.433 . S
C1374 C1370 1.350 . S
C1374 C1371 1.463 . S
C1374 N1378 1.427 . S
C1375 H1365 0.929 . S
C1375 C1373 1.433 . S
C1375 N1378 1.384 . S
C1376 H1367 0.929 . S
C1376 C1368 1.378 . S
C1376 C1371 1.350 . S
C1377 H1364 0.929 . S
C1377 C1369 1.433 . S
C1377 N1379 1.384 . S
N1378 C1374 1.427 . S
N1378 C1375 1.384 . S
N1379 C1371 1.427 . S
N1379 C1377 1.384 . S
H1380 C1386 0.930 . S
H1381 C1390 0.930 . S
H1382 C1395 0.929 . S
H1383 C1393 0.929 . S
H1384 C1388 0.929 . S
H1385 C1394 0.929 . S
C1386 H1380 0.930 . S
C1386 C1387 1.367 . S
C1386 C1394 1.378 . S
C1387 C1386 1.367 . S
C1387 C1395 1.433 . S
C1388 H1384 0.929 . S
C1388 C1390 1.378 . S
C1388 C1392 1.350 . S
C1389 C1392 1.463 . S
C1389 C1394 1.350 . S
C1389 N1397 1.427 . S
C1390 H1381 0.930 . S
C1390 C1388 1.378 . S
C1390 C1391 1.367 . S
C1391 C1390 1.367 . S
C1391 C1393 1.433 . S
C1392 C1388 1.350 . S
C1392 C1389 1.463 . S
C1392 N1396 1.427 . S
C1393 H1383 0.929 . S
C1393 C1391 1.433 . S
C1393 N1396 1.384 . S
C1394 H1385 0.929 . S
C1394 C1386 1.378 . S
C1394 C1389 1.350 . S
C1395 H1382 0.929 . S
C1395 C1387 1.433 . S
C1395 N1397 1.384 . S
N1396 C1392 1.427 . S
N1396 C1393 1.384 . S
N1397 C1389 1.427 . S
N1397 C1395 1.384 . S
H1398 C1404 0.930 . S
H1399 C1408 0.930 . S
H1400 C1413 0.929 . S
H1401 C1411 0.929 . S
H1402 C1406 0.929 . S
H1403 C1412 0.929 . S
C1404 H1398 0.930 . S
C1404 C1405 1.367 . S
C1404 C1412 1.378 . S
C1405 C1404 1.367 . S
C1405 C1413 1.433 . S
C1406 H1402 0.929 . S
C1406 C1408 1.378 . S
C1406 C1410 1.350 . S
C1407 C1410 1.463 . S
C1407 C1412 1.350 . S
C1407 N1415 1.427 . S
C1408 H1399 0.930 . S
C1408 C1406 1.378 . S
C1408 C1409 1.367 . S
C1409 C1408 1.367 . S
C1409 C1411 1.433 . S
C1410 C1406 1.350 . S
C1410 C1407 1.463 . S
C1410 N1414 1.427 . S
C1411 H1401 0.929 . S
C1411 C1409 1.433 . S
C1411 N1414 1.384 . S
C1412 H1403 0.929 . S
C1412 C1404 1.378 . S
C1412 C1407 1.350 . S
C1413 H1400 0.929 . S
C1413 C1405 1.433 . S
C1413 N1415 1.384 . S
N1414 C1410 1.427 . S
N1414 C1411 1.384 . S
N1415 C1407 1.427 . S
N1415 C1413 1.384 . S
H1416 C1422 0.930 . S
H1417 C1426 0.930 . S
H1418 C1431 0.929 . S
H1419 C1429 0.929 . S
H1420 C1424 0.929 . S
H1421 C1430 0.929 . S
C1422 H1416 0.930 . S
C1422 C1423 1.367 . S
C1422 C1430 1.378 . S
C1423 C1422 1.367 . S
C1423 C1431 1.433 . S
C1424 H1420 0.929 . S
C1424 C1426 1.378 . S
C1424 C1428 1.350 . S
C1425 C1428 1.463 . S
C1425 C1430 1.350 . S
C1425 N1433 1.427 . S
C1426 H1417 0.930 . S
C1426 C1424 1.378 . S
C1426 C1427 1.367 . S
C1427 C1426 1.367 . S
C1427 C1429 1.433 . S
C1428 C1424 1.350 . S
C1428 C1425 1.463 . S
C1428 N1432 1.427 . S
C1429 H1419 0.929 . S
C1429 C1427 1.433 . S
C1429 N1432 1.384 . S
C1430 H1421 0.929 . S
C1430 C1422 1.378 . S
C1430 C1425 1.350 . S
C1431 H1418 0.929 . S
C1431 C1423 1.433 . S
C1431 N1433 1.384 . S
N1432 C1428 1.427 . S
N1432 C1429 1.384 . S
N1433 C1425 1.427 . S
N1433 C1431 1.384 . S
H1434 C1440 0.930 . S
H1435 C1444 0.930 . S
H1436 C1449 0.929 . S
H1437 C1447 0.929 . S
H1438 C1442 0.929 . S
H1439 C1448 0.929 . S
C1440 H1434 0.930 . S
C1440 C1441 1.367 . S
C1440 C1448 1.378 . S
C1441 C1440 1.367 . S
C1441 C1449 1.433 . S
C1442 H1438 0.929 . S
C1442 C1444 1.378 . S
C1442 C1446 1.350 . S
C1443 C1446 1.463 . S
C1443 C1448 1.350 . S
C1443 N1451 1.427 . S
C1444 H1435 0.930 . S
C1444 C1442 1.378 . S
C1444 C1445 1.367 . S
C1445 C1444 1.367 . S
C1445 C1447 1.433 . S
C1446 C1442 1.350 . S
C1446 C1443 1.463 . S
C1446 N1450 1.427 . S
C1447 H1437 0.929 . S
C1447 C1445 1.433 . S
C1447 N1450 1.384 . S
C1448 H1439 0.929 . S
C1448 C1440 1.378 . S
C1448 C1443 1.350 . S
C1449 H1436 0.929 . S
C1449 C1441 1.433 . S
C1449 N1451 1.384 . S
N1450 C1446 1.427 . S
N1450 C1447 1.384 . S
N1451 C1443 1.427 . S
N1451 C1449 1.384 . S
H1452 C1458 0.930 . S
H1453 C1462 0.930 . S
H1454 C1467 0.929 . S
H1455 C1465 0.929 . S
H1456 C1460 0.929 . S
H1457 C1466 0.929 . S
C1458 H1452 0.930 . S
C1458 C1459 1.367 . S
C1458 C1466 1.378 . S
C1459 C1458 1.367 . S
C1459 C1467 1.433 . S
C1460 H1456 0.929 . S
C1460 C1462 1.378 . S
C1460 C1464 1.350 . S
C1461 C1464 1.463 . S
C1461 C1466 1.350 . S
C1461 N1469 1.427 . S
C1462 H1453 0.930 . S
C1462 C1460 1.378 . S
C1462 C1463 1.367 . S
C1463 C1462 1.367 . S
C1463 C1465 1.433 . S
C1464 C1460 1.350 . S
C1464 C1461 1.463 . S
C1464 N1468 1.427 . S
C1465 H1455 0.929 . S
C1465 C1463 1.433 . S
C1465 N1468 1.384 . S
C1466 H1457 0.929 . S
C1466 C1458 1.378 . S
C1466 C1461 1.350 . S
C1467 H1454 0.929 . S
C1467 C1459 1.433 . S
C1467 N1469 1.384 . S
N1468 C1464 1.427 . S
N1468 C1465 1.384 . S
N1469 C1461 1.427 . S
N1469 C1467 1.384 . S
H1470 C1476 0.930 . S
H1471 C1480 0.930 . S
H1472 C1485 0.929 . S
H1473 C1483 0.929 . S
H1474 C1478 0.929 . S
H1475 C1484 0.929 . S
C1476 H1470 0.930 . S
C1476 C1477 1.367 . S
C1476 C1484 1.378 . S
C1477 C1476 1.367 . S
C1477 C1485 1.433 . S
C1478 H1474 0.929 . S
C1478 C1480 1.378 . S
C1478 C1482 1.350 . S
C1479 C1482 1.463 . S
C1479 C1484 1.350 . S
C1479 N1487 1.427 . S
C1480 H1471 0.930 . S
C1480 C1478 1.378 . S
C1480 C1481 1.367 . S
C1481 C1480 1.367 . S
C1481 C1483 1.433 . S
C1482 C1478 1.350 . S
C1482 C1479 1.463 . S
C1482 N1486 1.427 . S
C1483 H1473 0.929 . S
C1483 C1481 1.433 . S
C1483 N1486 1.384 . S
C1484 H1475 0.929 . S
C1484 C1476 1.378 . S
C1484 C1479 1.350 . S
C1485 H1472 0.929 . S
C1485 C1477 1.433 . S
C1485 N1487 1.384 . S
N1486 C1482 1.427 . S
N1486 C1483 1.384 . S
N1487 C1479 1.427 . S
N1487 C1485 1.384 . S
H1488 C1494 0.930 . S
H1489 C1498 0.930 . S
H1490 C1503 0.929 . S
H1491 C1501 0.929 . S
H1492 C1496 0.929 . S
H1493 C1502 0.929 . S
C1494 H1488 0.930 . S
C1494 C1495 1.367 . S
C1494 C1502 1.378 . S
C1495 C1494 1.367 . S
C1495 C1503 1.433 . S
C1496 H1492 0.929 . S
C1496 C1498 1.378 . S
C1496 C1500 1.350 . S
C1497 C1500 1.463 . S
C1497 C1502 1.350 . S
C1497 N1505 1.427 . S
C1498 H1489 0.930 . S
C1498 C1496 1.378 . S
C1498 C1499 1.367 . S
C1499 C1498 1.367 . S
C1499 C1501 1.433 . S
C1500 C1496 1.350 . S
C1500 C1497 1.463 . S
C1500 N1504 1.427 . S
C1501 H1491 0.929 . S
C1501 C1499 1.433 . S
C1501 N1504 1.384 . S
C1502 H1493 0.929 . S
C1502 C1494 1.378 . S
C1502 C1497 1.350 . S
C1503 H1490 0.929 . S
C1503 C1495 1.433 . S
C1503 N1505 1.384 . S
N1504 C1500 1.427 . S
N1504 C1501 1.384 . S
N1505 C1497 1.427 . S
N1505 C1503 1.384 . S
H1506 C1512 0.930 . S
H1507 C1516 0.930 . S
H1508 C1521 0.929 . S
H1509 C1519 0.929 . S
H1510 C1514 0.929 . S
H1511 C1520 0.929 . S
C1512 H1506 0.930 . S
C1512 C1513 1.367 . S
C1512 C1520 1.378 . S
C1513 C1512 1.367 . S
C1513 C1521 1.433 . S
C1514 H1510 0.929 . S
C1514 C1516 1.378 . S
C1514 C1518 1.350 . S
C1515 C1518 1.463 . S
C1515 C1520 1.350 . S
C1515 N1523 1.427 . S
C1516 H1507 0.930 . S
C1516 C1514 1.378 . S
C1516 C1517 1.367 . S
C1517 C1516 1.367 . S
C1517 C1519 1.433 . S
C1518 C1514 1.350 . S
C1518 C1515 1.463 . S
C1518 N1522 1.427 . S
C1519 H1509 0.929 . S
C1519 C1517 1.433 . S
C1519 N1522 1.384 . S
C1520 H1511 0.929 . S
C1520 C1512 1.378 . S
C1520 C1515 1.350 . S
C1521 H1508 0.929 . S
C1521 C1513 1.433 . S
C1521 N1523 1.384 . S
N1522 C1518 1.427 . S
N1522 C1519 1.384 . S
N1523 C1515 1.427 . S
N1523 C1521 1.384 . S
H1524 C1530 0.930 . S
H1525 C1534 0.930 . S
H1526 C1539 0.929 . S
H1527 C1537 0.929 . S
H1528 C1532 0.929 . S
H1529 C1538 0.929 . S
C1530 H1524 0.930 . S
C1530 C1531 1.367 . S
C1530 C1538 1.378 . S
C1531 C1530 1.367 . S
C1531 C1539 1.433 . S
C1532 H1528 0.929 . S
C1532 C1534 1.378 . S
C1532 C1536 1.350 . S
C1533 C1536 1.463 . S
C1533 C1538 1.350 . S
C1533 N1541 1.427 . S
C1534 H1525 0.930 . S
C1534 C1532 1.378 . S
C1534 C1535 1.367 . S
C1535 C1534 1.367 . S
C1535 C1537 1.433 . S
C1536 C1532 1.350 . S
C1536 C1533 1.463 . S
C1536 N1540 1.427 . S
C1537 H1527 0.929 . S
C1537 C1535 1.433 . S
C1537 N1540 1.384 . S
C1538 H1529 0.929 . S
C1538 C1530 1.378 . S
C1538 C1533 1.350 . S
C1539 H1526 0.929 . S
C1539 C1531 1.433 . S
C1539 N1541 1.384 . S
N1540 C1536 1.427 . S
N1540 C1537 1.384 . S
N1541 C1533 1.427 . S
N1541 C1539 1.384 . S
H1542 C1548 0.930 . S
H1543 C1552 0.930 . S
H1544 C1557 0.929 . S
H1545 C1555 0.929 . S
H1546 C1550 0.929 . S
H1547 C1556 0.929 . S
C1548 H1542 0.930 . S
C1548 C1549 1.367 . S
C1548 C1556 1.378 . S
C1549 C1548 1.367 . S
C1549 C1557 1.433 . S
C1550 H1546 0.929 . S
C1550 C1552 1.378 . S
C1550 C1554 1.350 . S
C1551 C1554 1.463 . S
C1551 C1556 1.350 . S
C1551 N1559 1.427 . S
C1552 H1543 0.930 . S
C1552 C1550 1.378 . S
C1552 C1553 1.367 . S
C1553 C1552 1.367 . S
C1553 C1555 1.433 . S
C1554 C1550 1.350 . S
C1554 C1551 1.463 . S
C1554 N1558 1.427 . S
C1555 H1545 0.929 . S
C1555 C1553 1.433 . S
C1555 N1558 1.384 . S
C1556 H1547 0.929 . S
C1556 C1548 1.378 . S
C1556 C1551 1.350 . S
C1557 H1544 0.929 . S
C1557 C1549 1.433 . S
C1557 N1559 1.384 . S
N1558 C1554 1.427 . S
N1558 C1555 1.384 . S
N1559 C1551 1.427 . S
N1559 C1557 1.384 . S
H1560 C1566 0.930 . S
H1561 C1570 0.930 . S
H1562 C1575 0.929 . S
H1563 C1573 0.929 . S
H1564 C1568 0.929 . S
H1565 C1574 0.929 . S
C1566 H1560 0.930 . S
C1566 C1567 1.367 . S
C1566 C1574 1.378 . S
C1567 C1566 1.367 . S
C1567 C1575 1.433 . S
C1568 H1564 0.929 . S
C1568 C1570 1.378 . S
C1568 C1572 1.350 . S
C1569 C1572 1.463 . S
C1569 C1574 1.350 . S
C1569 N1577 1.427 . S
C1570 H1561 0.930 . S
C1570 C1568 1.378 . S
C1570 C1571 1.367 . S
C1571 C1570 1.367 . S
C1571 C1573 1.433 . S
C1572 C1568 1.350 . S
C1572 C1569 1.463 . S
C1572 N1576 1.427 . S
C1573 H1563 0.929 . S
C1573 C1571 1.433 . S
C1573 N1576 1.384 . S
C1574 H1565 0.929 . S
C1574 C1566 1.378 . S
C1574 C1569 1.350 . S
C1575 H1562 0.929 . S
C1575 C1567 1.433 . S
C1575 N1577 1.384 . S
N1576 C1572 1.427 . S
N1576 C1573 1.384 . S
N1577 C1569 1.427 . S
N1577 C1575 1.384 . S
H1578 C1584 0.930 . S
H1579 C1588 0.930 . S
H1580 C1593 0.929 . S
H1581 C1591 0.929 . S
H1582 C1586 0.929 . S
H1583 C1592 0.929 . S
C1584 H1578 0.930 . S
C1584 C1585 1.367 . S
C1584 C1592 1.378 . S
C1585 C1584 1.367 . S
C1585 C1593 1.433 . S
C1586 H1582 0.929 . S
C1586 C1588 1.378 . S
C1586 C1590 1.350 . S
C1587 C1590 1.463 . S
C1587 C1592 1.350 . S
C1587 N1595 1.427 . S
C1588 H1579 0.930 . S
C1588 C1586 1.378 . S
C1588 C1589 1.367 . S
C1589 C1588 1.367 . S
C1589 C1591 1.433 . S
C1590 C1586 1.350 . S
C1590 C1587 1.463 . S
C1590 N1594 1.427 . S
C1591 H1581 0.929 . S
C1591 C1589 1.433 . S
C1591 N1594 1.384 . S
C1592 H1583 0.929 . S
C1592 C1584 1.378 . S
C1592 C1587 1.350 . S
C1593 H1580 0.929 . S
C1593 C1585 1.433 . S
C1593 N1595 1.384 . S
N1594 C1590 1.427 . S
N1594 C1591 1.384 . S
N1595 C1587 1.427 . S
N1595 C1593 1.384 . S
H1596 C1602 0.930 . S
H1597 C1606 0.930 . S
H1598 C1611 0.929 . S
H1599 C1609 0.929 . S
H1600 C1604 0.929 . S
H1601 C1610 0.929 . S
C1602 H1596 0.930 . S
C1602 C1603 1.367 . S
C1602 C1610 1.378 . S
C1603 C1602 1.367 . S
C1603 C1611 1.433 . S
C1604 H1600 0.929 . S
C1604 C1606 1.378 . S
C1604 C1608 1.350 . S
C1605 C1608 1.463 . S
C1605 C1610 1.350 . S
C1605 N1613 1.427 . S
C1606 H1597 0.930 . S
C1606 C1604 1.378 . S
C1606 C1607 1.367 . S
C1607 C1606 1.367 . S
C1607 C1609 1.433 . S
C1608 C1604 1.350 . S
C1608 C1605 1.463 . S
C1608 N1612 1.427 . S
C1609 H1599 0.929 . S
C1609 C1607 1.433 . S
C1609 N1612 1.384 . S
C1610 H1601 0.929 . S
C1610 C1602 1.378 . S
C1610 C1605 1.350 . S
C1611 H1598 0.929 . S
C1611 C1603 1.433 . S
C1611 N1613 1.384 . S
N1612 C1608 1.427 . S
N1612 C1609 1.384 . S
N1613 C1605 1.427 . S
N1613 C1611 1.384 . S
H1614 C1620 0.930 . S
H1615 C1624 0.930 . S
H1616 C1629 0.929 . S
H1617 C1627 0.929 . S
H1618 C1622 0.929 . S
H1619 C1628 0.929 . S
C1620 H1614 0.930 . S
C1620 C1621 1.367 . S
C1620 C1628 1.378 . S
C1621 C1620 1.367 . S
C1621 C1629 1.433 . S
C1622 H1618 0.929 . S
C1622 C1624 1.378 . S
C1622 C1626 1.350 . S
C1623 C1626 1.463 . S
C1623 C1628 1.350 . S
C1623 N1631 1.427 . S
C1624 H1615 0.930 . S
C1624 C1622 1.378 . S
C1624 C1625 1.367 . S
C1625 C1624 1.367 . S
C1625 C1627 1.433 . S
C1626 C1622 1.350 . S
C1626 C1623 1.463 . S
C1626 N1630 1.427 . S
C1627 H1617 0.929 . S
C1627 C1625 1.433 . S
C1627 N1630 1.384 . S
C1628 H1619 0.929 . S
C1628 C1620 1.378 . S
C1628 C1623 1.350 . S
C1629 H1616 0.929 . S
C1629 C1621 1.433 . S
C1629 N1631 1.384 . S
N1630 C1626 1.427 . S
N1630 C1627 1.384 . S
N1631 C1623 1.427 . S
N1631 C1629 1.384 . S
H1632 C1638 0.930 . S
H1633 C1642 0.930 . S
H1634 C1647 0.929 . S
H1635 C1645 0.929 . S
H1636 C1640 0.929 . S
H1637 C1646 0.929 . S
C1638 H1632 0.930 . S
C1638 C1639 1.367 . S
C1638 C1646 1.378 . S
C1639 C1638 1.367 . S
C1639 C1647 1.433 . S
C1640 H1636 0.929 . S
C1640 C1642 1.378 . S
C1640 C1644 1.350 . S
C1641 C1644 1.463 . S
C1641 C1646 1.350 . S
C1641 N1649 1.427 . S
C1642 H1633 0.930 . S
C1642 C1640 1.378 . S
C1642 C1643 1.367 . S
C1643 C1642 1.367 . S
C1643 C1645 1.433 . S
C1644 C1640 1.350 . S
C1644 C1641 1.463 . S
C1644 N1648 1.427 . S
C1645 H1635 0.929 . S
C1645 C1643 1.433 . S
C1645 N1648 1.384 . S
C1646 H1637 0.929 . S
C1646 C1638 1.378 . S
C1646 C1641 1.350 . S
C1647 H1634 0.929 . S
C1647 C1639 1.433 . S
C1647 N1649 1.384 . S
N1648 C1644 1.427 . S
N1648 C1645 1.384 . S
N1649 C1641 1.427 . S
N1649 C1647 1.384 . S
H1650 C1656 0.930 . S
H1651 C1660 0.930 . S
H1652 C1665 0.929 . S
H1653 C1663 0.929 . S
H1654 C1658 0.929 . S
H1655 C1664 0.929 . S
C1656 H1650 0.930 . S
C1656 C1657 1.367 . S
C1656 C1664 1.378 . S
C1657 C1656 1.367 . S
C1657 C1665 1.433 . S
C1658 H1654 0.929 . S
C1658 C1660 1.378 . S
C1658 C1662 1.350 . S
C1659 C1662 1.463 . S
C1659 C1664 1.350 . S
C1659 N1667 1.427 . S
C1660 H1651 0.930 . S
C1660 C1658 1.378 . S
C1660 C1661 1.367 . S
C1661 C1660 1.367 . S
C1661 C1663 1.433 . S
C1662 C1658 1.350 . S
C1662 C1659 1.463 . S
C1662 N1666 1.427 . S
C1663 H1653 0.929 . S
C1663 C1661 1.433 . S
C1663 N1666 1.384 . S
C1664 H1655 0.929 . S
C1664 C1656 1.378 . S
C1664 C1659 1.350 . S
C1665 H1652 0.929 . S
C1665 C1657 1.433 . S
C1665 N1667 1.384 . S
N1666 C1662 1.427 . S
N1666 C1663 1.384 . S
N1667 C1659 1.427 . S
N1667 C1665 1.384 . S
H1668 C1674 0.930 . S
H1669 C1678 0.930 . S
H1670 C1683 0.929 . S
H1671 C1681 0.929 . S
H1672 C1676 0.929 . S
H1673 C1682 0.929 . S
C1674 H1668 0.930 . S
C1674 C1675 1.367 . S
C1674 C1682 1.378 . S
C1675 C1674 1.367 . S
C1675 C1683 1.433 . S
C1676 H1672 0.929 . S
C1676 C1678 1.378 . S
C1676 C1680 1.350 . S
C1677 C1680 1.463 . S
C1677 C1682 1.350 . S
C1677 N1685 1.427 . S
C1678 H1669 0.930 . S
C1678 C1676 1.378 . S
C1678 C1679 1.367 . S
C1679 C1678 1.367 . S
C1679 C1681 1.433 . S
C1680 C1676 1.350 . S
C1680 C1677 1.463 . S
C1680 N1684 1.427 . S
C1681 H1671 0.929 . S
C1681 C1679 1.433 . S
C1681 N1684 1.384 . S
C1682 H1673 0.929 . S
C1682 C1674 1.378 . S
C1682 C1677 1.350 . S
C1683 H1670 0.929 . S
C1683 C1675 1.433 . S
C1683 N1685 1.384 . S
N1684 C1680 1.427 . S
N1684 C1681 1.384 . S
N1685 C1677 1.427 . S
N1685 C1683 1.384 . S
H1686 C1692 0.930 . S
H1687 C1696 0.930 . S
H1688 C1701 0.929 . S
H1689 C1699 0.929 . S
H1690 C1694 0.929 . S
H1691 C1700 0.929 . S
C1692 H1686 0.930 . S
C1692 C1693 1.367 . S
C1692 C1700 1.378 . S
C1693 C1692 1.367 . S
C1693 C1701 1.433 . S
C1694 H1690 0.929 . S
C1694 C1696 1.378 . S
C1694 C1698 1.350 . S
C1695 C1698 1.463 . S
C1695 C1700 1.350 . S
C1695 N1703 1.427 . S
C1696 H1687 0.930 . S
C1696 C1694 1.378 . S
C1696 C1697 1.367 . S
C1697 C1696 1.367 . S
C1697 C1699 1.433 . S
C1698 C1694 1.350 . S
C1698 C1695 1.463 . S
C1698 N1702 1.427 . S
C1699 H1689 0.929 . S
C1699 C1697 1.433 . S
C1699 N1702 1.384 . S
C1700 H1691 0.929 . S
C1700 C1692 1.378 . S
C1700 C1695 1.350 . S
C1701 H1688 0.929 . S
C1701 C1693 1.433 . S
C1701 N1703 1.384 . S
N1702 C1698 1.427 . S
N1702 C1699 1.384 . S
N1703 C1695 1.427 . S
N1703 C1701 1.384 . S
H1704 C1710 0.930 . S
H1705 C1714 0.930 . S
H1706 C1719 0.929 . S
H1707 C1717 0.929 . S
H1708 C1712 0.929 . S
H1709 C1718 0.929 . S
C1710 H1704 0.930 . S
C1710 C1711 1.367 . S
C1710 C1718 1.378 . S
C1711 C1710 1.367 . S
C1711 C1719 1.433 . S
C1712 H1708 0.929 . S
C1712 C1714 1.378 . S
C1712 C1716 1.350 . S
C1713 C1716 1.463 . S
C1713 C1718 1.350 . S
C1713 N1721 1.427 . S
C1714 H1705 0.930 . S
C1714 C1712 1.378 . S
C1714 C1715 1.367 . S
C1715 C1714 1.367 . S
C1715 C1717 1.433 . S
C1716 C1712 1.350 . S
C1716 C1713 1.463 . S
C1716 N1720 1.427 . S
C1717 H1707 0.929 . S
C1717 C1715 1.433 . S
C1717 N1720 1.384 . S
C1718 H1709 0.929 . S
C1718 C1710 1.378 . S
C1718 C1713 1.350 . S
C1719 H1706 0.929 . S
C1719 C1711 1.433 . S
C1719 N1721 1.384 . S
N1720 C1716 1.427 . S
N1720 C1717 1.384 . S
N1721 C1713 1.427 . S
N1721 C1719 1.384 . S
H1722 C1728 0.930 . S
H1723 C1732 0.930 . S
H1724 C1737 0.929 . S
H1725 C1735 0.929 . S
H1726 C1730 0.929 . S
H1727 C1736 0.929 . S
C1728 H1722 0.930 . S
C1728 C1729 1.367 . S
C1728 C1736 1.378 . S
C1729 C1728 1.367 . S
C1729 C1737 1.433 . S
C1730 H1726 0.929 . S
C1730 C1732 1.378 . S
C1730 C1734 1.350 . S
C1731 C1734 1.463 . S
C1731 C1736 1.350 . S
C1731 N1739 1.427 . S
C1732 H1723 0.930 . S
C1732 C1730 1.378 . S
C1732 C1733 1.367 . S
C1733 C1732 1.367 . S
C1733 C1735 1.433 . S
C1734 C1730 1.350 . S
C1734 C1731 1.463 . S
C1734 N1738 1.427 . S
C1735 H1725 0.929 . S
C1735 C1733 1.433 . S
C1735 N1738 1.384 . S
C1736 H1727 0.929 . S
C1736 C1728 1.378 . S
C1736 C1731 1.350 . S
C1737 H1724 0.929 . S
C1737 C1729 1.433 . S
C1737 N1739 1.384 . S
N1738 C1734 1.427 . S
N1738 C1735 1.384 . S
N1739 C1731 1.427 . S
N1739 C1737 1.384 . S
H1740 C1746 0.930 . S
H1741 C1750 0.930 . S
H1742 C1755 0.929 . S
H1743 C1753 0.929 . S
H1744 C1748 0.929 . S
H1745 C1754 0.929 . S
C1746 H1740 0.930 . S
C1746 C1747 1.367 . S
C1746 C1754 1.378 . S
C1747 C1746 1.367 . S
C1747 C1755 1.433 . S
C1748 H1744 0.929 . S
C1748 C1750 1.378 . S
C1748 C1752 1.350 . S
C1749 C1752 1.463 . S
C1749 C1754 1.350 . S
C1749 N1757 1.427 . S
C1750 H1741 0.930 . S
C1750 C1748 1.378 . S
C1750 C1751 1.367 . S
C1751 C1750 1.367 . S
C1751 C1753 1.433 . S
C1752 C1748 1.350 . S
C1752 C1749 1.463 . S
C1752 N1756 1.427 . S
C1753 H1743 0.929 . S
C1753 C1751 1.433 . S
C1753 N1756 1.384 . S
C1754 H1745 0.929 . S
C1754 C1746 1.378 . S
C1754 C1749 1.350 . S
C1755 H1742 0.929 . S
C1755 C1747 1.433 . S
C1755 N1757 1.384 . S
N1756 C1752 1.427 . S
N1756 C1753 1.384 . S
N1757 C1749 1.427 . S
N1757 C1755 1.384 . S
H1758 C1764 0.930 . S
H1759 C1768 0.930 . S
H1760 C1773 0.929 . S
H1761 C1771 0.929 . S
H1762 C1766 0.929 . S
H1763 C1772 0.929 . S
C1764 H1758 0.930 . S
C1764 C1765 1.367 . S
C1764 C1772 1.378 . S
C1765 C1764 1.367 . S
C1765 C1773 1.433 . S
C1766 H1762 0.929 . S
C1766 C1768 1.378 . S
C1766 C1770 1.350 . S
C1767 C1770 1.463 . S
C1767 C1772 1.350 . S
C1767 N1775 1.427 . S
C1768 H1759 0.930 . S
C1768 C1766 1.378 . S
C1768 C1769 1.367 . S
C1769 C1768 1.367 . S
C1769 C1771 1.433 . S
C1770 C1766 1.350 . S
C1770 C1767 1.463 . S
C1770 N1774 1.427 . S
C1771 H1761 0.929 . S
C1771 C1769 1.433 . S
C1771 N1774 1.384 . S
C1772 H1763 0.929 . S
C1772 C1764 1.378 . S
C1772 C1767 1.350 . S
C1773 H1760 0.929 . S
C1773 C1765 1.433 . S
C1773 N1775 1.384 . S
N1774 C1770 1.427 . S
N1774 C1771 1.384 . S
N1775 C1767 1.427 . S
N1775 C1773 1.384 . S
H1776 C1782 0.930 . S
H1777 C1786 0.930 . S
H1778 C1791 0.929 . S
H1779 C1789 0.929 . S
H1780 C1784 0.929 . S
H1781 C1790 0.929 . S
C1782 H1776 0.930 . S
C1782 C1783 1.367 . S
C1782 C1790 1.378 . S
C1783 C1782 1.367 . S
C1783 C1791 1.433 . S
C1784 H1780 0.929 . S
C1784 C1786 1.378 . S
C1784 C1788 1.350 . S
C1785 C1788 1.463 . S
C1785 C1790 1.350 . S
C1785 N1793 1.427 . S
C1786 H1777 0.930 . S
C1786 C1784 1.378 . S
C1786 C1787 1.367 . S
C1787 C1786 1.367 . S
C1787 C1789 1.433 . S
C1788 C1784 1.350 . S
C1788 C1785 1.463 . S
C1788 N1792 1.427 . S
C1789 H1779 0.929 . S
C1789 C1787 1.433 . S
C1789 N1792 1.384 . S
C1790 H1781 0.929 . S
C1790 C1782 1.378 . S
C1790 C1785 1.350 . S
C1791 H1778 0.929 . S
C1791 C1783 1.433 . S
C1791 N1793 1.384 . S
N1792 C1788 1.427 . S
N1792 C1789 1.384 . S
N1793 C1785 1.427 . S
N1793 C1791 1.384 . S
H1794 C1800 0.930 . S
H1795 C1804 0.930 . S
H1796 C1809 0.929 . S
H1797 C1807 0.929 . S
H1798 C1802 0.929 . S
H1799 C1808 0.929 . S
C1800 H1794 0.930 . S
C1800 C1801 1.367 . S
C1800 C1808 1.378 . S
C1801 C1800 1.367 . S
C1801 C1809 1.433 . S
C1802 H1798 0.929 . S
C1802 C1804 1.378 . S
C1802 C1806 1.350 . S
C1803 C1806 1.463 . S
C1803 C1808 1.350 . S
C1803 N1811 1.427 . S
C1804 H1795 0.930 . S
C1804 C1802 1.378 . S
C1804 C1805 1.367 . S
C1805 C1804 1.367 . S
C1805 C1807 1.433 . S
C1806 C1802 1.350 . S
C1806 C1803 1.463 . S
C1806 N1810 1.427 . S
C1807 H1797 0.929 . S
C1807 C1805 1.433 . S
C1807 N1810 1.384 . S
C1808 H1799 0.929 . S
C1808 C1800 1.378 . S
C1808 C1803 1.350 . S
C1809 H1796 0.929 . S
C1809 C1801 1.433 . S
C1809 N1811 1.384 . S
N1810 C1806 1.427 . S
N1810 C1807 1.384 . S
N1811 C1803 1.427 . S
N1811 C1809 1.384 . S
H1812 C1818 0.930 . S
H1813 C1822 0.930 . S
H1814 C1827 0.929 . S
H1815 C1825 0.929 . S
H1816 C1820 0.929 . S
H1817 C1826 0.929 . S
C1818 H1812 0.930 . S
C1818 C1819 1.367 . S
C1818 C1826 1.378 . S
C1819 C1818 1.367 . S
C1819 C1827 1.433 . S
C1820 H1816 0.929 . S
C1820 C1822 1.378 . S
C1820 C1824 1.350 . S
C1821 C1824 1.463 . S
C1821 C1826 1.350 . S
C1821 N1829 1.427 . S
C1822 H1813 0.930 . S
C1822 C1820 1.378 . S
C1822 C1823 1.367 . S
C1823 C1822 1.367 . S
C1823 C1825 1.433 . S
C1824 C1820 1.350 . S
C1824 C1821 1.463 . S
C1824 N1828 1.427 . S
C1825 H1815 0.929 . S
C1825 C1823 1.433 . S
C1825 N1828 1.384 . S
C1826 H1817 0.929 . S
C1826 C1818 1.378 . S
C1826 C1821 1.350 . S
C1827 H1814 0.929 . S
C1827 C1819 1.433 . S
C1827 N1829 1.384 . S
N1828 C1824 1.427 . S
N1828 C1825 1.384 . S
N1829 C1821 1.427 . S
N1829 C1827 1.384 . S
H1830 C1836 0.930 . S
H1831 C1840 0.930 . S
H1832 C1845 0.929 . S
H1833 C1843 0.929 . S
H1834 C1838 0.929 . S
H1835 C1844 0.929 . S
C1836 H1830 0.930 . S
C1836 C1837 1.367 . S
C1836 C1844 1.378 . S
C1837 C1836 1.367 . S
C1837 C1845 1.433 . S
C1838 H1834 0.929 . S
C1838 C1840 1.378 . S
C1838 C1842 1.350 . S
C1839 C1842 1.463 . S
C1839 C1844 1.350 . S
C1839 N1847 1.427 . S
C1840 H1831 0.930 . S
C1840 C1838 1.378 . S
C1840 C1841 1.367 . S
C1841 C1840 1.367 . S
C1841 C1843 1.433 . S
C1842 C1838 1.350 . S
C1842 C1839 1.463 . S
C1842 N1846 1.427 . S
C1843 H1833 0.929 . S
C1843 C1841 1.433 . S
C1843 N1846 1.384 . S
C1844 H1835 0.929 . S
C1844 C1836 1.378 . S
C1844 C1839 1.350 . S
C1845 H1832 0.929 . S
C1845 C1837 1.433 . S
C1845 N1847 1.384 . S
N1846 C1842 1.427 . S
N1846 C1843 1.384 . S
N1847 C1839 1.427 . S
N1847 C1845 1.384 . S
H1848 C1854 0.930 . S
H1849 C1858 0.930 . S
H1850 C1863 0.929 . S
H1851 C1861 0.929 . S
H1852 C1856 0.929 . S
H1853 C1862 0.929 . S
C1854 H1848 0.930 . S
C1854 C1855 1.367 . S
C1854 C1862 1.378 . S
C1855 C1854 1.367 . S
C1855 C1863 1.433 . S
C1856 H1852 0.929 . S
C1856 C1858 1.378 . S
C1856 C1860 1.350 . S
C1857 C1860 1.463 . S
C1857 C1862 1.350 . S
C1857 N1865 1.427 . S
C1858 H1849 0.930 . S
C1858 C1856 1.378 . S
C1858 C1859 1.367 . S
C1859 C1858 1.367 . S
C1859 C1861 1.433 . S
C1860 C1856 1.350 . S
C1860 C1857 1.463 . S
C1860 N1864 1.427 . S
C1861 H1851 0.929 . S
C1861 C1859 1.433 . S
C1861 N1864 1.384 . S
C1862 H1853 0.929 . S
C1862 C1854 1.378 . S
C1862 C1857 1.350 . S
C1863 H1850 0.929 . S
C1863 C1855 1.433 . S
C1863 N1865 1.384 . S
N1864 C1860 1.427 . S
N1864 C1861 1.384 . S
N1865 C1857 1.427 . S
N1865 C1863 1.384 . S
H1866 C1872 0.930 . S
H1867 C1876 0.930 . S
H1868 C1881 0.929 . S
H1869 C1879 0.929 . S
H1870 C1874 0.929 . S
H1871 C1880 0.929 . S
C1872 H1866 0.930 . S
C1872 C1873 1.367 . S
C1872 C1880 1.378 . S
C1873 C1872 1.367 . S
C1873 C1881 1.433 . S
C1874 H1870 0.929 . S
C1874 C1876 1.378 . S
C1874 C1878 1.350 . S
C1875 C1878 1.463 . S
C1875 C1880 1.350 . S
C1875 N1883 1.427 . S
C1876 H1867 0.930 . S
C1876 C1874 1.378 . S
C1876 C1877 1.367 . S
C1877 C1876 1.367 . S
C1877 C1879 1.433 . S
C1878 C1874 1.350 . S
C1878 C1875 1.463 . S
C1878 N1882 1.427 . S
C1879 H1869 0.929 . S
C1879 C1877 1.433 . S
C1879 N1882 1.384 . S
C1880 H1871 0.929 . S
C1880 C1872 1.378 . S
C1880 C1875 1.350 . S
C1881 H1868 0.929 . S
C1881 C1873 1.433 . S
C1881 N1883 1.384 . S
N1882 C1878 1.427 . S
N1882 C1879 1.384 . S
N1883 C1875 1.427 . S
N1883 C1881 1.384 . S
H1884 C1890 0.930 . S
H1885 C1894 0.930 . S
H1886 C1899 0.929 . S
H1887 C1897 0.929 . S
H1888 C1892 0.929 . S
H1889 C1898 0.929 . S
C1890 H1884 0.930 . S
C1890 C1891 1.367 . S
C1890 C1898 1.378 . S
C1891 C1890 1.367 . S
C1891 C1899 1.433 . S
C1892 H1888 0.929 . S
C1892 C1894 1.378 . S
C1892 C1896 1.350 . S
C1893 C1896 1.463 . S
C1893 C1898 1.350 . S
C1893 N1901 1.427 . S
C1894 H1885 0.930 . S
C1894 C1892 1.378 . S
C1894 C1895 1.367 . S
C1895 C1894 1.367 . S
C1895 C1897 1.433 . S
C1896 C1892 1.350 . S
C1896 C1893 1.463 . S
C1896 N1900 1.427 . S
C1897 H1887 0.929 . S
C1897 C1895 1.433 . S
C1897 N1900 1.384 . S
C1898 H1889 0.929 . S
C1898 C1890 1.378 . S
C1898 C1893 1.350 . S
C1899 H1886 0.929 . S
C1899 C1891 1.433 . S
C1899 N1901 1.384 . S
N1900 C1896 1.427 . S
N1900 C1897 1.384 . S
N1901 C1893 1.427 . S
N1901 C1899 1.384 . S
H1902 C1908 0.930 . S
H1903 C1912 0.930 . S
H1904 C1917 0.929 . S
H1905 C1915 0.929 . S
H1906 C1910 0.929 . S
H1907 C1916 0.929 . S
C1908 H1902 0.930 . S
C1908 C1909 1.367 . S
C1908 C1916 1.378 . S
C1909 C1908 1.367 . S
C1909 C1917 1.433 . S
C1910 H1906 0.929 . S
C1910 C1912 1.378 . S
C1910 C1914 1.350 . S
C1911 C1914 1.463 . S
C1911 C1916 1.350 . S
C1911 N1919 1.427 . S
C1912 H1903 0.930 . S
C1912 C1910 1.378 . S
C1912 C1913 1.367 . S
C1913 C1912 1.367 . S
C1913 C1915 1.433 . S
C1914 C1910 1.350 . S
C1914 C1911 1.463 . S
C1914 N1918 1.427 . S
C1915 H1905 0.929 . S
C1915 C1913 1.433 . S
C1915 N1918 1.384 . S
C1916 H1907 0.929 . S
C1916 C1908 1.378 . S
C1916 C1911 1.350 . S
C1917 H1904 0.929 . S
C1917 C1909 1.433 . S
C1917 N1919 1.384 . S
N1918 C1914 1.427 . S
N1918 C1915 1.384 . S
N1919 C1911 1.427 . S
N1919 C1917 1.384 . S
H1920 C1926 0.930 . S
H1921 C1930 0.930 . S
H1922 C1935 0.929 . S
H1923 C1933 0.929 . S
H1924 C1928 0.929 . S
H1925 C1934 0.929 . S
C1926 H1920 0.930 . S
C1926 C1927 1.367 . S
C1926 C1934 1.378 . S
C1927 C1926 1.367 . S
C1927 C1935 1.433 . S
C1928 H1924 0.929 . S
C1928 C1930 1.378 . S
C1928 C1932 1.350 . S
C1929 C1932 1.463 . S
C1929 C1934 1.350 . S
C1929 N1937 1.427 . S
C1930 H1921 0.930 . S
C1930 C1928 1.378 . S
C1930 C1931 1.367 . S
C1931 C1930 1.367 . S
C1931 C1933 1.433 . S
C1932 C1928 1.350 . S
C1932 C1929 1.463 . S
C1932 N1936 1.427 . S
C1933 H1923 0.929 . S
C1933 C1931 1.433 . S
C1933 N1936 1.384 . S
C1934 H1925 0.929 . S
C1934 C1926 1.378 . S
C1934 C1929 1.350 . S
C1935 H1922 0.929 . S
C1935 C1927 1.433 . S
C1935 N1937 1.384 . S
N1936 C1932 1.427 . S
N1936 C1933 1.384 . S
N1937 C1929 1.427 . S
N1937 C1935 1.384 . S
H1938 C1944 0.930 . S
H1939 C1948 0.930 . S
H1940 C1953 0.929 . S
H1941 C1951 0.929 . S
H1942 C1946 0.929 . S
H1943 C1952 0.929 . S
C1944 H1938 0.930 . S
C1944 C1945 1.367 . S
C1944 C1952 1.378 . S
C1945 C1944 1.367 . S
C1945 C1953 1.433 . S
C1946 H1942 0.929 . S
C1946 C1948 1.378 . S
C1946 C1950 1.350 . S
C1947 C1950 1.463 . S
C1947 C1952 1.350 . S
C1947 N1955 1.427 . S
C1948 H1939 0.930 . S
C1948 C1946 1.378 . S
C1948 C1949 1.367 . S
C1949 C1948 1.367 . S
C1949 C1951 1.433 . S
C1950 C1946 1.350 . S
C1950 C1947 1.463 . S
C1950 N1954 1.427 . S
C1951 H1941 0.929 . S
C1951 C1949 1.433 . S
C1951 N1954 1.384 . S
C1952 H1943 0.929 . S
C1952 C1944 1.378 . S
C1952 C1947 1.350 . S
C1953 H1940 0.929 . S
C1953 C1945 1.433 . S
C1953 N1955 1.384 . S
N1954 C1950 1.427 . S
N1954 C1951 1.384 . S
N1955 C1947 1.427 . S
N1955 C1953 1.384 . S
H1956 C1962 0.930 . S
H1957 C1966 0.930 . S
H1958 C1971 0.929 . S
H1959 C1969 0.929 . S
H1960 C1964 0.929 . S
H1961 C1970 0.929 . S
C1962 H1956 0.930 . S
C1962 C1963 1.367 . S
C1962 C1970 1.378 . S
C1963 C1962 1.367 . S
C1963 C1971 1.433 . S
C1964 H1960 0.929 . S
C1964 C1966 1.378 . S
C1964 C1968 1.350 . S
C1965 C1968 1.463 . S
C1965 C1970 1.350 . S
C1965 N1973 1.427 . S
C1966 H1957 0.930 . S
C1966 C1964 1.378 . S
C1966 C1967 1.367 . S
C1967 C1966 1.367 . S
C1967 C1969 1.433 . S
C1968 C1964 1.350 . S
C1968 C1965 1.463 . S
C1968 N1972 1.427 . S
C1969 H1959 0.929 . S
C1969 C1967 1.433 . S
C1969 N1972 1.384 . S
C1970 H1961 0.929 . S
C1970 C1962 1.378 . S
C1970 C1965 1.350 . S
C1971 H1958 0.929 . S
C1971 C1963 1.433 . S
C1971 N1973 1.384 . S
N1972 C1968 1.427 . S
N1972 C1969 1.384 . S
N1973 C1965 1.427 . S
N1973 C1971 1.384 . S
H1974 C1980 0.930 . S
H1975 C1984 0.930 . S
H1976 C1989 0.929 . S
H1977 C1987 0.929 . S
H1978 C1982 0.929 . S
H1979 C1988 0.929 . S
C1980 H1974 0.930 . S
C1980 C1981 1.367 . S
C1980 C1988 1.378 . S
C1981 C1980 1.367 . S
C1981 C1989 1.433 . S
C1982 H1978 0.929 . S
C1982 C1984 1.378 . S
C1982 C1986 1.350 . S
C1983 C1986 1.463 . S
C1983 C1988 1.350 . S
C1983 N1991 1.427 . S
C1984 H1975 0.930 . S
C1984 C1982 1.378 . S
C1984 C1985 1.367 . S
C1985 C1984 1.367 . S
C1985 C1987 1.433 . S
C1986 C1982 1.350 . S
C1986 C1983 1.463 . S
C1986 N1990 1.427 . S
C1987 H1977 0.929 . S
C1987 C1985 1.433 . S
C1987 N1990 1.384 . S
C1988 H1979 0.929 . S
C1988 C1980 1.378 . S
C1988 C1983 1.350 . S
C1989 H1976 0.929 . S
C1989 C1981 1.433 . S
C1989 N1991 1.384 . S
N1990 C1986 1.427 . S
N1990 C1987 1.384 . S
N1991 C1983 1.427 . S
N1991 C1989 1.384 . S
H1992 C1998 0.930 . S
H1993 C2002 0.930 . S
H1994 C2007 0.929 . S
H1995 C2005 0.929 . S
H1996 C2000 0.929 . S
H1997 C2006 0.929 . S
C1998 H1992 0.930 . S
C1998 C1999 1.367 . S
C1998 C2006 1.378 . S
C1999 C1998 1.367 . S
C1999 C2007 1.433 . S
C2000 H1996 0.929 . S
C2000 C2002 1.378 . S
C2000 C2004 1.350 . S
C2001 C2004 1.463 . S
C2001 C2006 1.350 . S
C2001 N2009 1.427 . S
C2002 H1993 0.930 . S
C2002 C2000 1.378 . S
C2002 C2003 1.367 . S
C2003 C2002 1.367 . S
C2003 C2005 1.433 . S
C2004 C2000 1.350 . S
C2004 C2001 1.463 . S
C2004 N2008 1.427 . S
C2005 H1995 0.929 . S
C2005 C2003 1.433 . S
C2005 N2008 1.384 . S
C2006 H1997 0.929 . S
C2006 C1998 1.378 . S
C2006 C2001 1.350 . S
C2007 H1994 0.929 . S
C2007 C1999 1.433 . S
C2007 N2009 1.384 . S
N2008 C2004 1.427 . S
N2008 C2005 1.384 . S
N2009 C2001 1.427 . S
N2009 C2007 1.384 . S
H2010 C2016 0.930 . S
H2011 C2020 0.930 . S
H2012 C2025 0.929 . S
H2013 C2023 0.929 . S
H2014 C2018 0.929 . S
H2015 C2024 0.929 . S
C2016 H2010 0.930 . S
C2016 C2017 1.367 . S
C2016 C2024 1.378 . S
C2017 C2016 1.367 . S
C2017 C2025 1.433 . S
C2018 H2014 0.929 . S
C2018 C2020 1.378 . S
C2018 C2022 1.350 . S
C2019 C2022 1.463 . S
C2019 C2024 1.350 . S
C2019 N2027 1.427 . S
C2020 H2011 0.930 . S
C2020 C2018 1.378 . S
C2020 C2021 1.367 . S
C2021 C2020 1.367 . S
C2021 C2023 1.433 . S
C2022 C2018 1.350 . S
C2022 C2019 1.463 . S
C2022 N2026 1.427 . S
C2023 H2013 0.929 . S
C2023 C2021 1.433 . S
C2023 N2026 1.384 . S
C2024 H2015 0.929 . S
C2024 C2016 1.378 . S
C2024 C2019 1.350 . S
C2025 H2012 0.929 . S
C2025 C2017 1.433 . S
C2025 N2027 1.384 . S
N2026 C2022 1.427 . S
N2026 C2023 1.384 . S
N2027 C2019 1.427 . S
N2027 C2025 1.384 . S
H2028 C2034 0.930 . S
H2029 C2038 0.930 . S
H2030 C2043 0.929 . S
H2031 C2041 0.929 . S
H2032 C2036 0.929 . S
H2033 C2042 0.929 . S
C2034 H2028 0.930 . S
C2034 C2035 1.367 . S
C2034 C2042 1.378 . S
C2035 C2034 1.367 . S
C2035 C2043 1.433 . S
C2036 H2032 0.929 . S
C2036 C2038 1.378 . S
C2036 C2040 1.350 . S
C2037 C2040 1.463 . S
C2037 C2042 1.350 . S
C2037 N2045 1.427 . S
C2038 H2029 0.930 . S
C2038 C2036 1.378 . S
C2038 C2039 1.367 . S
C2039 C2038 1.367 . S
C2039 C2041 1.433 . S
C2040 C2036 1.350 . S
C2040 C2037 1.463 . S
C2040 N2044 1.427 . S
C2041 H2031 0.929 . S
C2041 C2039 1.433 . S
C2041 N2044 1.384 . S
C2042 H2033 0.929 . S
C2042 C2034 1.378 . S
C2042 C2037 1.350 . S
C2043 H2030 0.929 . S
C2043 C2035 1.433 . S
C2043 N2045 1.384 . S
N2044 C2040 1.427 . S
N2044 C2041 1.384 . S
N2045 C2037 1.427 . S
N2045 C2043 1.384 . S
H2046 C2052 0.930 . S
H2047 C2056 0.930 . S
H2048 C2061 0.929 . S
H2049 C2059 0.929 . S
H2050 C2054 0.929 . S
H2051 C2060 0.929 . S
C2052 H2046 0.930 . S
C2052 C2053 1.367 . S
C2052 C2060 1.378 . S
C2053 C2052 1.367 . S
C2053 C2061 1.433 . S
C2054 H2050 0.929 . S
C2054 C2056 1.378 . S
C2054 C2058 1.350 . S
C2055 C2058 1.463 . S
C2055 C2060 1.350 . S
C2055 N2063 1.427 . S
C2056 H2047 0.930 . S
C2056 C2054 1.378 . S
C2056 C2057 1.367 . S
C2057 C2056 1.367 . S
C2057 C2059 1.433 . S
C2058 C2054 1.350 . S
C2058 C2055 1.463 . S
C2058 N2062 1.427 . S
C2059 H2049 0.929 . S
C2059 C2057 1.433 . S
C2059 N2062 1.384 . S
C2060 H2051 0.929 . S
C2060 C2052 1.378 . S
C2060 C2055 1.350 . S
C2061 H2048 0.929 . S
C2061 C2053 1.433 . S
C2061 N2063 1.384 . S
N2062 C2058 1.427 . S
N2062 C2059 1.384 . S
N2063 C2055 1.427 . S
N2063 C2061 1.384 . S
H2064 C2070 0.930 . S
H2065 C2074 0.930 . S
H2066 C2079 0.929 . S
H2067 C2077 0.929 . S
H2068 C2072 0.929 . S
H2069 C2078 0.929 . S
C2070 H2064 0.930 . S
C2070 C2071 1.367 . S
C2070 C2078 1.378 . S
C2071 C2070 1.367 . S
C2071 C2079 1.433 . S
C2072 H2068 0.929 . S
C2072 C2074 1.378 . S
C2072 C2076 1.350 . S
C2073 C2076 1.463 . S
C2073 C2078 1.350 . S
C2073 N2081 1.427 . S
C2074 H2065 0.930 . S
C2074 C2072 1.378 . S
C2074 C2075 1.367 . S
C2075 C2074 1.367 . S
C2075 C2077 1.433 . S
C2076 C2072 1.350 . S
C2076 C2073 1.463 . S
C2076 N2080 1.427 . S
C2077 H2067 0.929 . S
C2077 C2075 1.433 . S
C2077 N2080 1.384 . S
C2078 H2069 0.929 . S
C2078 C2070 1.378 . S
C2078 C2073 1.350 . S
C2079 H2066 0.929 . S
C2079 C2071 1.433 . S
C2079 N2081 1.384 . S
N2080 C2076 1.427 . S
N2080 C2077 1.384 . S
N2081 C2073 1.427 . S
N2081 C2079 1.384 . S
H2082 C2088 0.930 . S
H2083 C2092 0.930 . S
H2084 C2097 0.929 . S
H2085 C2095 0.929 . S
H2086 C2090 0.929 . S
H2087 C2096 0.929 . S
C2088 H2082 0.930 . S
C2088 C2089 1.367 . S
C2088 C2096 1.378 . S
C2089 C2088 1.367 . S
C2089 C2097 1.433 . S
C2090 H2086 0.929 . S
C2090 C2092 1.378 . S
C2090 C2094 1.350 . S
C2091 C2094 1.463 . S
C2091 C2096 1.350 . S
C2091 N2099 1.427 . S
C2092 H2083 0.930 . S
C2092 C2090 1.378 . S
C2092 C2093 1.367 . S
C2093 C2092 1.367 . S
C2093 C2095 1.433 . S
C2094 C2090 1.350 . S
C2094 C2091 1.463 . S
C2094 N2098 1.427 . S
C2095 H2085 0.929 . S
C2095 C2093 1.433 . S
C2095 N2098 1.384 . S
C2096 H2087 0.929 . S
C2096 C2088 1.378 . S
C2096 C2091 1.350 . S
C2097 H2084 0.929 . S
C2097 C2089 1.433 . S
C2097 N2099 1.384 . S
N2098 C2094 1.427 . S
N2098 C2095 1.384 . S
N2099 C2091 1.427 . S
N2099 C2097 1.384 . S
H2100 C2106 0.930 . S
H2101 C2110 0.930 . S
H2102 C2115 0.929 . S
H2103 C2113 0.929 . S
H2104 C2108 0.929 . S
H2105 C2114 0.929 . S
C2106 H2100 0.930 . S
C2106 C2107 1.367 . S
C2106 C2114 1.378 . S
C2107 C2106 1.367 . S
C2107 C2115 1.433 . S
C2108 H2104 0.929 . S
C2108 C2110 1.378 . S
C2108 C2112 1.350 . S
C2109 C2112 1.463 . S
C2109 C2114 1.350 . S
C2109 N2117 1.427 . S
C2110 H2101 0.930 . S
C2110 C2108 1.378 . S
C2110 C2111 1.367 . S
C2111 C2110 1.367 . S
C2111 C2113 1.433 . S
C2112 C2108 1.350 . S
C2112 C2109 1.463 . S
C2112 N2116 1.427 . S
C2113 H2103 0.929 . S
C2113 C2111 1.433 . S
C2113 N2116 1.384 . S
C2114 H2105 0.929 . S
C2114 C2106 1.378 . S
C2114 C2109 1.350 . S
C2115 H2102 0.929 . S
C2115 C2107 1.433 . S
C2115 N2117 1.384 . S
N2116 C2112 1.427 . S
N2116 C2113 1.384 . S
N2117 C2109 1.427 . S
N2117 C2115 1.384 . S
H2118 C2124 0.930 . S
H2119 C2128 0.930 . S
H2120 C2133 0.929 . S
H2121 C2131 0.929 . S
H2122 C2126 0.929 . S
H2123 C2132 0.929 . S
C2124 H2118 0.930 . S
C2124 C2125 1.367 . S
C2124 C2132 1.378 . S
C2125 C2124 1.367 . S
C2125 C2133 1.433 . S
C2126 H2122 0.929 . S
C2126 C2128 1.378 . S
C2126 C2130 1.350 . S
C2127 C2130 1.463 . S
C2127 C2132 1.350 . S
C2127 N2135 1.427 . S
C2128 H2119 0.930 . S
C2128 C2126 1.378 . S
C2128 C2129 1.367 . S
C2129 C2128 1.367 . S
C2129 C2131 1.433 . S
C2130 C2126 1.350 . S
C2130 C2127 1.463 . S
C2130 N2134 1.427 . S
C2131 H2121 0.929 . S
C2131 C2129 1.433 . S
C2131 N2134 1.384 . S
C2132 H2123 0.929 . S
C2132 C2124 1.378 . S
C2132 C2127 1.350 . S
C2133 H2120 0.929 . S
C2133 C2125 1.433 . S
C2133 N2135 1.384 . S
N2134 C2130 1.427 . S
N2134 C2131 1.384 . S
N2135 C2127 1.427 . S
N2135 C2133 1.384 . S
H2136 C2142 0.930 . S
H2137 C2146 0.930 . S
H2138 C2151 0.929 . S
H2139 C2149 0.929 . S
H2140 C2144 0.929 . S
H2141 C2150 0.929 . S
C2142 H2136 0.930 . S
C2142 C2143 1.367 . S
C2142 C2150 1.378 . S
C2143 C2142 1.367 . S
C2143 C2151 1.433 . S
C2144 H2140 0.929 . S
C2144 C2146 1.378 . S
C2144 C2148 1.350 . S
C2145 C2148 1.463 . S
C2145 C2150 1.350 . S
C2145 N2153 1.427 . S
C2146 H2137 0.930 . S
C2146 C2144 1.378 . S
C2146 C2147 1.367 . S
C2147 C2146 1.367 . S
C2147 C2149 1.433 . S
C2148 C2144 1.350 . S
C2148 C2145 1.463 . S
C2148 N2152 1.427 . S
C2149 H2139 0.929 . S
C2149 C2147 1.433 . S
C2149 N2152 1.384 . S
C2150 H2141 0.929 . S
C2150 C2142 1.378 . S
C2150 C2145 1.350 . S
C2151 H2138 0.929 . S
C2151 C2143 1.433 . S
C2151 N2153 1.384 . S
N2152 C2148 1.427 . S
N2152 C2149 1.384 . S
N2153 C2145 1.427 . S
N2153 C2151 1.384 . S
H2154 C2160 0.930 . S
H2155 C2164 0.930 . S
H2156 C2169 0.929 . S
H2157 C2167 0.929 . S
H2158 C2162 0.929 . S
H2159 C2168 0.929 . S
C2160 H2154 0.930 . S
C2160 C2161 1.367 . S
C2160 C2168 1.378 . S
C2161 C2160 1.367 . S
C2161 C2169 1.433 . S
C2162 H2158 0.929 . S
C2162 C2164 1.378 . S
C2162 C2166 1.350 . S
C2163 C2166 1.463 . S
C2163 C2168 1.350 . S
C2163 N2171 1.427 . S
C2164 H2155 0.930 . S
C2164 C2162 1.378 . S
C2164 C2165 1.367 . S
C2165 C2164 1.367 . S
C2165 C2167 1.433 . S
C2166 C2162 1.350 . S
C2166 C2163 1.463 . S
C2166 N2170 1.427 . S
C2167 H2157 0.929 . S
C2167 C2165 1.433 . S
C2167 N2170 1.384 . S
C2168 H2159 0.929 . S
C2168 C2160 1.378 . S
C2168 C2163 1.350 . S
C2169 H2156 0.929 . S
C2169 C2161 1.433 . S
C2169 N2171 1.384 . S
N2170 C2166 1.427 . S
N2170 C2167 1.384 . S
N2171 C2163 1.427 . S
N2171 C2169 1.384 . S
H2172 C2178 0.930 . S
H2173 C2182 0.930 . S
H2174 C2187 0.929 . S
H2175 C2185 0.929 . S
H2176 C2180 0.929 . S
H2177 C2186 0.929 . S
C2178 H2172 0.930 . S
C2178 C2179 1.367 . S
C2178 C2186 1.378 . S
C2179 C2178 1.367 . S
C2179 C2187 1.433 . S
C2180 H2176 0.929 . S
C2180 C2182 1.378 . S
C2180 C2184 1.350 . S
C2181 C2184 1.463 . S
C2181 C2186 1.350 . S
C2181 N2189 1.427 . S
C2182 H2173 0.930 . S
C2182 C2180 1.378 . S
C2182 C2183 1.367 . S
C2183 C2182 1.367 . S
C2183 C2185 1.433 . S
C2184 C2180 1.350 . S
C2184 C2181 1.463 . S
C2184 N2188 1.427 . S
C2185 H2175 0.929 . S
C2185 C2183 1.433 . S
C2185 N2188 1.384 . S
C2186 H2177 0.929 . S
C2186 C2178 1.378 . S
C2186 C2181 1.350 . S
C2187 H2174 0.929 . S
C2187 C2179 1.433 . S
C2187 N2189 1.384 . S
N2188 C2184 1.427 . S
N2188 C2185 1.384 . S
N2189 C2181 1.427 . S
N2189 C2187 1.384 . S
H2190 C2196 0.930 . S
H2191 C2200 0.930 . S
H2192 C2205 0.929 . S
H2193 C2203 0.929 . S
H2194 C2198 0.929 . S
H2195 C2204 0.929 . S
C2196 H2190 0.930 . S
C2196 C2197 1.367 . S
C2196 C2204 1.378 . S
C2197 C2196 1.367 . S
C2197 C2205 1.433 . S
C2198 H2194 0.929 . S
C2198 C2200 1.378 . S
C2198 C2202 1.350 . S
C2199 C2202 1.463 . S
C2199 C2204 1.350 . S
C2199 N2207 1.427 . S
C2200 H2191 0.930 . S
C2200 C2198 1.378 . S
C2200 C2201 1.367 . S
C2201 C2200 1.367 . S
C2201 C2203 1.433 . S
C2202 C2198 1.350 . S
C2202 C2199 1.463 . S
C2202 N2206 1.427 . S
C2203 H2193 0.929 . S
C2203 C2201 1.433 . S
C2203 N2206 1.384 . S
C2204 H2195 0.929 . S
C2204 C2196 1.378 . S
C2204 C2199 1.350 . S
C2205 H2192 0.929 . S
C2205 C2197 1.433 . S
C2205 N2207 1.384 . S
N2206 C2202 1.427 . S
N2206 C2203 1.384 . S
N2207 C2199 1.427 . S
N2207 C2205 1.384 . S
H2208 C2214 0.930 . S
H2209 C2218 0.930 . S
H2210 C2223 0.929 . S
H2211 C2221 0.929 . S
H2212 C2216 0.929 . S
H2213 C2222 0.929 . S
C2214 H2208 0.930 . S
C2214 C2215 1.367 . S
C2214 C2222 1.378 . S
C2215 C2214 1.367 . S
C2215 C2223 1.433 . S
C2216 H2212 0.929 . S
C2216 C2218 1.378 . S
C2216 C2220 1.350 . S
C2217 C2220 1.463 . S
C2217 C2222 1.350 . S
C2217 N2225 1.427 . S
C2218 H2209 0.930 . S
C2218 C2216 1.378 . S
C2218 C2219 1.367 . S
C2219 C2218 1.367 . S
C2219 C2221 1.433 . S
C2220 C2216 1.350 . S
C2220 C2217 1.463 . S
C2220 N2224 1.427 . S
C2221 H2211 0.929 . S
C2221 C2219 1.433 . S
C2221 N2224 1.384 . S
C2222 H2213 0.929 . S
C2222 C2214 1.378 . S
C2222 C2217 1.350 . S
C2223 H2210 0.929 . S
C2223 C2215 1.433 . S
C2223 N2225 1.384 . S
N2224 C2220 1.427 . S
N2224 C2221 1.384 . S
N2225 C2217 1.427 . S
N2225 C2223 1.384 . S
H2226 C2232 0.930 . S
H2227 C2236 0.930 . S
H2228 C2241 0.929 . S
H2229 C2239 0.929 . S
H2230 C2234 0.929 . S
H2231 C2240 0.929 . S
C2232 H2226 0.930 . S
C2232 C2233 1.367 . S
C2232 C2240 1.378 . S
C2233 C2232 1.367 . S
C2233 C2241 1.433 . S
C2234 H2230 0.929 . S
C2234 C2236 1.378 . S
C2234 C2238 1.350 . S
C2235 C2238 1.463 . S
C2235 C2240 1.350 . S
C2235 N2243 1.427 . S
C2236 H2227 0.930 . S
C2236 C2234 1.378 . S
C2236 C2237 1.367 . S
C2237 C2236 1.367 . S
C2237 C2239 1.433 . S
C2238 C2234 1.350 . S
C2238 C2235 1.463 . S
C2238 N2242 1.427 . S
C2239 H2229 0.929 . S
C2239 C2237 1.433 . S
C2239 N2242 1.384 . S
C2240 H2231 0.929 . S
C2240 C2232 1.378 . S
C2240 C2235 1.350 . S
C2241 H2228 0.929 . S
C2241 C2233 1.433 . S
C2241 N2243 1.384 . S
N2242 C2238 1.427 . S
N2242 C2239 1.384 . S
N2243 C2235 1.427 . S
N2243 C2241 1.384 . S
H2244 C2250 0.930 . S
H2245 C2254 0.930 . S
H2246 C2259 0.929 . S
H2247 C2257 0.929 . S
H2248 C2252 0.929 . S
H2249 C2258 0.929 . S
C2250 H2244 0.930 . S
C2250 C2251 1.367 . S
C2250 C2258 1.378 . S
C2251 C2250 1.367 . S
C2251 C2259 1.433 . S
C2252 H2248 0.929 . S
C2252 C2254 1.378 . S
C2252 C2256 1.350 . S
C2253 C2256 1.463 . S
C2253 C2258 1.350 . S
C2253 N2261 1.427 . S
C2254 H2245 0.930 . S
C2254 C2252 1.378 . S
C2254 C2255 1.367 . S
C2255 C2254 1.367 . S
C2255 C2257 1.433 . S
C2256 C2252 1.350 . S
C2256 C2253 1.463 . S
C2256 N2260 1.427 . S
C2257 H2247 0.929 . S
C2257 C2255 1.433 . S
C2257 N2260 1.384 . S
C2258 H2249 0.929 . S
C2258 C2250 1.378 . S
C2258 C2253 1.350 . S
C2259 H2246 0.929 . S
C2259 C2251 1.433 . S
C2259 N2261 1.384 . S
N2260 C2256 1.427 . S
N2260 C2257 1.384 . S
N2261 C2253 1.427 . S
N2261 C2259 1.384 . S
H2262 C2268 0.930 . S
H2263 C2272 0.930 . S
H2264 C2277 0.929 . S
H2265 C2275 0.929 . S
H2266 C2270 0.929 . S
H2267 C2276 0.929 . S
C2268 H2262 0.930 . S
C2268 C2269 1.367 . S
C2268 C2276 1.378 . S
C2269 C2268 1.367 . S
C2269 C2277 1.433 . S
C2270 H2266 0.929 . S
C2270 C2272 1.378 . S
C2270 C2274 1.350 . S
C2271 C2274 1.463 . S
C2271 C2276 1.350 . S
C2271 N2279 1.427 . S
C2272 H2263 0.930 . S
C2272 C2270 1.378 . S
C2272 C2273 1.367 . S
C2273 C2272 1.367 . S
C2273 C2275 1.433 . S
C2274 C2270 1.350 . S
C2274 C2271 1.463 . S
C2274 N2278 1.427 . S
C2275 H2265 0.929 . S
C2275 C2273 1.433 . S
C2275 N2278 1.384 . S
C2276 H2267 0.929 . S
C2276 C2268 1.378 . S
C2276 C2271 1.350 . S
C2277 H2264 0.929 . S
C2277 C2269 1.433 . S
C2277 N2279 1.384 . S
N2278 C2274 1.427 . S
N2278 C2275 1.384 . S
N2279 C2271 1.427 . S
N2279 C2277 1.384 . S
H2280 C2286 0.930 . S
H2281 C2290 0.930 . S
H2282 C2295 0.929 . S
H2283 C2293 0.929 . S
H2284 C2288 0.929 . S
H2285 C2294 0.929 . S
C2286 H2280 0.930 . S
C2286 C2287 1.367 . S
C2286 C2294 1.378 . S
C2287 C2286 1.367 . S
C2287 C2295 1.433 . S
C2288 H2284 0.929 . S
C2288 C2290 1.378 . S
C2288 C2292 1.350 . S
C2289 C2292 1.463 . S
C2289 C2294 1.350 . S
C2289 N2297 1.427 . S
C2290 H2281 0.930 . S
C2290 C2288 1.378 . S
C2290 C2291 1.367 . S
C2291 C2290 1.367 . S
C2291 C2293 1.433 . S
C2292 C2288 1.350 . S
C2292 C2289 1.463 . S
C2292 N2296 1.427 . S
C2293 H2283 0.929 . S
C2293 C2291 1.433 . S
C2293 N2296 1.384 . S
C2294 H2285 0.929 . S
C2294 C2286 1.378 . S
C2294 C2289 1.350 . S
C2295 H2282 0.929 . S
C2295 C2287 1.433 . S
C2295 N2297 1.384 . S
N2296 C2292 1.427 . S
N2296 C2293 1.384 . S
N2297 C2289 1.427 . S
N2297 C2295 1.384 . S
H2298 C2304 0.930 . S
H2299 C2308 0.930 . S
H2300 C2313 0.929 . S
H2301 C2311 0.929 . S
H2302 C2306 0.929 . S
H2303 C2312 0.929 . S
C2304 H2298 0.930 . S
C2304 C2305 1.367 . S
C2304 C2312 1.378 . S
C2305 C2304 1.367 . S
C2305 C2313 1.433 . S
C2306 H2302 0.929 . S
C2306 C2308 1.378 . S
C2306 C2310 1.350 . S
C2307 C2310 1.463 . S
C2307 C2312 1.350 . S
C2307 N2315 1.427 . S
C2308 H2299 0.930 . S
C2308 C2306 1.378 . S
C2308 C2309 1.367 . S
C2309 C2308 1.367 . S
C2309 C2311 1.433 . S
C2310 C2306 1.350 . S
C2310 C2307 1.463 . S
C2310 N2314 1.427 . S
C2311 H2301 0.929 . S
C2311 C2309 1.433 . S
C2311 N2314 1.384 . S
C2312 H2303 0.929 . S
C2312 C2304 1.378 . S
C2312 C2307 1.350 . S
C2313 H2300 0.929 . S
C2313 C2305 1.433 . S
C2313 N2315 1.384 . S
N2314 C2310 1.427 . S
N2314 C2311 1.384 . S
N2315 C2307 1.427 . S
N2315 C2313 1.384 . S
H2316 C2322 0.930 . S
H2317 C2326 0.930 . S
H2318 C2331 0.929 . S
H2319 C2329 0.929 . S
H2320 C2324 0.929 . S
H2321 C2330 0.929 . S
C2322 H2316 0.930 . S
C2322 C2323 1.367 . S
C2322 C2330 1.378 . S
C2323 C2322 1.367 . S
C2323 C2331 1.433 . S
C2324 H2320 0.929 . S
C2324 C2326 1.378 . S
C2324 C2328 1.350 . S
C2325 C2328 1.463 . S
C2325 C2330 1.350 . S
C2325 N2333 1.427 . S
C2326 H2317 0.930 . S
C2326 C2324 1.378 . S
C2326 C2327 1.367 . S
C2327 C2326 1.367 . S
C2327 C2329 1.433 . S
C2328 C2324 1.350 . S
C2328 C2325 1.463 . S
C2328 N2332 1.427 . S
C2329 H2319 0.929 . S
C2329 C2327 1.433 . S
C2329 N2332 1.384 . S
C2330 H2321 0.929 . S
C2330 C2322 1.378 . S
C2330 C2325 1.350 . S
C2331 H2318 0.929 . S
C2331 C2323 1.433 . S
C2331 N2333 1.384 . S
N2332 C2328 1.427 . S
N2332 C2329 1.384 . S
N2333 C2325 1.427 . S
N2333 C2331 1.384 . S
H2334 C2340 0.930 . S
H2335 C2344 0.930 . S
H2336 C2349 0.929 . S
H2337 C2347 0.929 . S
H2338 C2342 0.929 . S
H2339 C2348 0.929 . S
C2340 H2334 0.930 . S
C2340 C2341 1.367 . S
C2340 C2348 1.378 . S
C2341 C2340 1.367 . S
C2341 C2349 1.433 . S
C2342 H2338 0.929 . S
C2342 C2344 1.378 . S
C2342 C2346 1.350 . S
C2343 C2346 1.463 . S
C2343 C2348 1.350 . S
C2343 N2351 1.427 . S
C2344 H2335 0.930 . S
C2344 C2342 1.378 . S
C2344 C2345 1.367 . S
C2345 C2344 1.367 . S
C2345 C2347 1.433 . S
C2346 C2342 1.350 . S
C2346 C2343 1.463 . S
C2346 N2350 1.427 . S
C2347 H2337 0.929 . S
C2347 C2345 1.433 . S
C2347 N2350 1.384 . S
C2348 H2339 0.929 . S
C2348 C2340 1.378 . S
C2348 C2343 1.350 . S
C2349 H2336 0.929 . S
C2349 C2341 1.433 . S
C2349 N2351 1.384 . S
N2350 C2346 1.427 . S
N2350 C2347 1.384 . S
N2351 C2343 1.427 . S
N2351 C2349 1.384 . S
H2352 C2358 0.930 . S
H2353 C2362 0.930 . S
H2354 C2367 0.929 . S
H2355 C2365 0.929 . S
H2356 C2360 0.929 . S
H2357 C2366 0.929 . S
C2358 H2352 0.930 . S
C2358 C2359 1.367 . S
C2358 C2366 1.378 . S
C2359 C2358 1.367 . S
C2359 C2367 1.433 . S
C2360 H2356 0.929 . S
C2360 C2362 1.378 . S
C2360 C2364 1.350 . S
C2361 C2364 1.463 . S
C2361 C2366 1.350 . S
C2361 N2369 1.427 . S
C2362 H2353 0.930 . S
C2362 C2360 1.378 . S
C2362 C2363 1.367 . S
C2363 C2362 1.367 . S
C2363 C2365 1.433 . S
C2364 C2360 1.350 . S
C2364 C2361 1.463 . S
C2364 N2368 1.427 . S
C2365 H2355 0.929 . S
C2365 C2363 1.433 . S
C2365 N2368 1.384 . S
C2366 H2357 0.929 . S
C2366 C2358 1.378 . S
C2366 C2361 1.350 . S
C2367 H2354 0.929 . S
C2367 C2359 1.433 . S
C2367 N2369 1.384 . S
N2368 C2364 1.427 . S
N2368 C2365 1.384 . S
N2369 C2361 1.427 . S
N2369 C2367 1.384 . S
H2370 C2376 0.930 . S
H2371 C2380 0.930 . S
H2372 C2385 0.929 . S
H2373 C2383 0.929 . S
H2374 C2378 0.929 . S
H2375 C2384 0.929 . S
C2376 H2370 0.930 . S
C2376 C2377 1.367 . S
C2376 C2384 1.378 . S
C2377 C2376 1.367 . S
C2377 C2385 1.433 . S
C2378 H2374 0.929 . S
C2378 C2380 1.378 . S
C2378 C2382 1.350 . S
C2379 C2382 1.463 . S
C2379 C2384 1.350 . S
C2379 N2387 1.427 . S
C2380 H2371 0.930 . S
C2380 C2378 1.378 . S
C2380 C2381 1.367 . S
C2381 C2380 1.367 . S
C2381 C2383 1.433 . S
C2382 C2378 1.350 . S
C2382 C2379 1.463 . S
C2382 N2386 1.427 . S
C2383 H2373 0.929 . S
C2383 C2381 1.433 . S
C2383 N2386 1.384 . S
C2384 H2375 0.929 . S
C2384 C2376 1.378 . S
C2384 C2379 1.350 . S
C2385 H2372 0.929 . S
C2385 C2377 1.433 . S
C2385 N2387 1.384 . S
N2386 C2382 1.427 . S
N2386 C2383 1.384 . S
N2387 C2379 1.427 . S
N2387 C2385 1.384 . S
H2388 C2394 0.930 . S
H2389 C2398 0.930 . S
H2390 C2403 0.929 . S
H2391 C2401 0.929 . S
H2392 C2396 0.929 . S
H2393 C2402 0.929 . S
C2394 H2388 0.930 . S
C2394 C2395 1.367 . S
C2394 C2402 1.378 . S
C2395 C2394 1.367 . S
C2395 C2403 1.433 . S
C2396 H2392 0.929 . S
C2396 C2398 1.378 . S
C2396 C2400 1.350 . S
C2397 C2400 1.463 . S
C2397 C2402 1.350 . S
C2397 N2405 1.427 . S
C2398 H2389 0.930 . S
C2398 C2396 1.378 . S
C2398 C2399 1.367 . S
C2399 C2398 1.367 . S
C2399 C2401 1.433 . S
C2400 C2396 1.350 . S
C2400 C2397 1.463 . S
C2400 N2404 1.427 . S
C2401 H2391 0.929 . S
C2401 C2399 1.433 . S
C2401 N2404 1.384 . S
C2402 H2393 0.929 . S
C2402 C2394 1.378 . S
C2402 C2397 1.350 . S
C2403 H2390 0.929 . S
C2403 C2395 1.433 . S
C2403 N2405 1.384 . S
N2404 C2400 1.427 . S
N2404 C2401 1.384 . S
N2405 C2397 1.427 . S
N2405 C2403 1.384 . S
H2406 C2412 0.930 . S
H2407 C2416 0.930 . S
H2408 C2421 0.929 . S
H2409 C2419 0.929 . S
H2410 C2414 0.929 . S
H2411 C2420 0.929 . S
C2412 H2406 0.930 . S
C2412 C2413 1.367 . S
C2412 C2420 1.378 . S
C2413 C2412 1.367 . S
C2413 C2421 1.433 . S
C2414 H2410 0.929 . S
C2414 C2416 1.378 . S
C2414 C2418 1.350 . S
C2415 C2418 1.463 . S
C2415 C2420 1.350 . S
C2415 N2423 1.427 . S
C2416 H2407 0.930 . S
C2416 C2414 1.378 . S
C2416 C2417 1.367 . S
C2417 C2416 1.367 . S
C2417 C2419 1.433 . S
C2418 C2414 1.350 . S
C2418 C2415 1.463 . S
C2418 N2422 1.427 . S
C2419 H2409 0.929 . S
C2419 C2417 1.433 . S
C2419 N2422 1.384 . S
C2420 H2411 0.929 . S
C2420 C2412 1.378 . S
C2420 C2415 1.350 . S
C2421 H2408 0.929 . S
C2421 C2413 1.433 . S
C2421 N2423 1.384 . S
N2422 C2418 1.427 . S
N2422 C2419 1.384 . S
N2423 C2415 1.427 . S
N2423 C2421 1.384 . S
H2424 C2430 0.930 . S
H2425 C2434 0.930 . S
H2426 C2439 0.929 . S
H2427 C2437 0.929 . S
H2428 C2432 0.929 . S
H2429 C2438 0.929 . S
C2430 H2424 0.930 . S
C2430 C2431 1.367 . S
C2430 C2438 1.378 . S
C2431 C2430 1.367 . S
C2431 C2439 1.433 . S
C2432 H2428 0.929 . S
C2432 C2434 1.378 . S
C2432 C2436 1.350 . S
C2433 C2436 1.463 . S
C2433 C2438 1.350 . S
C2433 N2441 1.427 . S
C2434 H2425 0.930 . S
C2434 C2432 1.378 . S
C2434 C2435 1.367 . S
C2435 C2434 1.367 . S
C2435 C2437 1.433 . S
C2436 C2432 1.350 . S
C2436 C2433 1.463 . S
C2436 N2440 1.427 . S
C2437 H2427 0.929 . S
C2437 C2435 1.433 . S
C2437 N2440 1.384 . S
C2438 H2429 0.929 . S
C2438 C2430 1.378 . S
C2438 C2433 1.350 . S
C2439 H2426 0.929 . S
C2439 C2431 1.433 . S
C2439 N2441 1.384 . S
N2440 C2436 1.427 . S
N2440 C2437 1.384 . S
N2441 C2433 1.427 . S
N2441 C2439 1.384 . S
H2442 C2448 0.930 . S
H2443 C2452 0.930 . S
H2444 C2457 0.929 . S
H2445 C2455 0.929 . S
H2446 C2450 0.929 . S
H2447 C2456 0.929 . S
C2448 H2442 0.930 . S
C2448 C2449 1.367 . S
C2448 C2456 1.378 . S
C2449 C2448 1.367 . S
C2449 C2457 1.433 . S
C2450 H2446 0.929 . S
C2450 C2452 1.378 . S
C2450 C2454 1.350 . S
C2451 C2454 1.463 . S
C2451 C2456 1.350 . S
C2451 N2459 1.427 . S
C2452 H2443 0.930 . S
C2452 C2450 1.378 . S
C2452 C2453 1.367 . S
C2453 C2452 1.367 . S
C2453 C2455 1.433 . S
C2454 C2450 1.350 . S
C2454 C2451 1.463 . S
C2454 N2458 1.427 . S
C2455 H2445 0.929 . S
C2455 C2453 1.433 . S
C2455 N2458 1.384 . S
C2456 H2447 0.929 . S
C2456 C2448 1.378 . S
C2456 C2451 1.350 . S
C2457 H2444 0.929 . S
C2457 C2449 1.433 . S
C2457 N2459 1.384 . S
N2458 C2454 1.427 . S
N2458 C2455 1.384 . S
N2459 C2451 1.427 . S
N2459 C2457 1.384 . S
H2460 C2466 0.930 . S
H2461 C2470 0.930 . S
H2462 C2475 0.929 . S
H2463 C2473 0.929 . S
H2464 C2468 0.929 . S
H2465 C2474 0.929 . S
C2466 H2460 0.930 . S
C2466 C2467 1.367 . S
C2466 C2474 1.378 . S
C2467 C2466 1.367 . S
C2467 C2475 1.433 . S
C2468 H2464 0.929 . S
C2468 C2470 1.378 . S
C2468 C2472 1.350 . S
C2469 C2472 1.463 . S
C2469 C2474 1.350 . S
C2469 N2477 1.427 . S
C2470 H2461 0.930 . S
C2470 C2468 1.378 . S
C2470 C2471 1.367 . S
C2471 C2470 1.367 . S
C2471 C2473 1.433 . S
C2472 C2468 1.350 . S
C2472 C2469 1.463 . S
C2472 N2476 1.427 . S
C2473 H2463 0.929 . S
C2473 C2471 1.433 . S
C2473 N2476 1.384 . S
C2474 H2465 0.929 . S
C2474 C2466 1.378 . S
C2474 C2469 1.350 . S
C2475 H2462 0.929 . S
C2475 C2467 1.433 . S
C2475 N2477 1.384 . S
N2476 C2472 1.427 . S
N2476 C2473 1.384 . S
N2477 C2469 1.427 . S
N2477 C2475 1.384 . S
H2478 C2484 0.930 . S
H2479 C2488 0.930 . S
H2480 C2493 0.929 . S
H2481 C2491 0.929 . S
H2482 C2486 0.929 . S
H2483 C2492 0.929 . S
C2484 H2478 0.930 . S
C2484 C2485 1.367 . S
C2484 C2492 1.378 . S
C2485 C2484 1.367 . S
C2485 C2493 1.433 . S
C2486 H2482 0.929 . S
C2486 C2488 1.378 . S
C2486 C2490 1.350 . S
C2487 C2490 1.463 . S
C2487 C2492 1.350 . S
C2487 N2495 1.427 . S
C2488 H2479 0.930 . S
C2488 C2486 1.378 . S
C2488 C2489 1.367 . S
C2489 C2488 1.367 . S
C2489 C2491 1.433 . S
C2490 C2486 1.350 . S
C2490 C2487 1.463 . S
C2490 N2494 1.427 . S
C2491 H2481 0.929 . S
C2491 C2489 1.433 . S
C2491 N2494 1.384 . S
C2492 H2483 0.929 . S
C2492 C2484 1.378 . S
C2492 C2487 1.350 . S
C2493 H2480 0.929 . S
C2493 C2485 1.433 . S
C2493 N2495 1.384 . S
N2494 C2490 1.427 . S
N2494 C2491 1.384 . S
N2495 C2487 1.427 . S
N2495 C2493 1.384 . S
H2496 C2502 0.930 . S
H2497 C2506 0.930 . S
H2498 C2511 0.929 . S
H2499 C2509 0.929 . S
H2500 C2504 0.929 . S
H2501 C2510 0.929 . S
C2502 H2496 0.930 . S
C2502 C2503 1.367 . S
C2502 C2510 1.378 . S
C2503 C2502 1.367 . S
C2503 C2511 1.433 . S
C2504 H2500 0.929 . S
C2504 C2506 1.378 . S
C2504 C2508 1.350 . S
C2505 C2508 1.463 . S
C2505 C2510 1.350 . S
C2505 N2513 1.427 . S
C2506 H2497 0.930 . S
C2506 C2504 1.378 . S
C2506 C2507 1.367 . S
C2507 C2506 1.367 . S
C2507 C2509 1.433 . S
C2508 C2504 1.350 . S
C2508 C2505 1.463 . S
C2508 N2512 1.427 . S
C2509 H2499 0.929 . S
C2509 C2507 1.433 . S
C2509 N2512 1.384 . S
C2510 H2501 0.929 . S
C2510 C2502 1.378 . S
C2510 C2505 1.350 . S
C2511 H2498 0.929 . S
C2511 C2503 1.433 . S
C2511 N2513 1.384 . S
N2512 C2508 1.427 . S
N2512 C2509 1.384 . S
N2513 C2505 1.427 . S
N2513 C2511 1.384 . S
H2514 C2520 0.930 . S
H2515 C2524 0.930 . S
H2516 C2529 0.929 . S
H2517 C2527 0.929 . S
H2518 C2522 0.929 . S
H2519 C2528 0.929 . S
C2520 H2514 0.930 . S
C2520 C2521 1.367 . S
C2520 C2528 1.378 . S
C2521 C2520 1.367 . S
C2521 C2529 1.433 . S
C2522 H2518 0.929 . S
C2522 C2524 1.378 . S
C2522 C2526 1.350 . S
C2523 C2526 1.463 . S
C2523 C2528 1.350 . S
C2523 N2531 1.427 . S
C2524 H2515 0.930 . S
C2524 C2522 1.378 . S
C2524 C2525 1.367 . S
C2525 C2524 1.367 . S
C2525 C2527 1.433 . S
C2526 C2522 1.350 . S
C2526 C2523 1.463 . S
C2526 N2530 1.427 . S
C2527 H2517 0.929 . S
C2527 C2525 1.433 . S
C2527 N2530 1.384 . S
C2528 H2519 0.929 . S
C2528 C2520 1.378 . S
C2528 C2523 1.350 . S
C2529 H2516 0.929 . S
C2529 C2521 1.433 . S
C2529 N2531 1.384 . S
N2530 C2526 1.427 . S
N2530 C2527 1.384 . S
N2531 C2523 1.427 . S
N2531 C2529 1.384 . S
H2532 C2538 0.930 . S
H2533 C2542 0.930 . S
H2534 C2547 0.929 . S
H2535 C2545 0.929 . S
H2536 C2540 0.929 . S
H2537 C2546 0.929 . S
C2538 H2532 0.930 . S
C2538 C2539 1.367 . S
C2538 C2546 1.378 . S
C2539 C2538 1.367 . S
C2539 C2547 1.433 . S
C2540 H2536 0.929 . S
C2540 C2542 1.378 . S
C2540 C2544 1.350 . S
C2541 C2544 1.463 . S
C2541 C2546 1.350 . S
C2541 N2549 1.427 . S
C2542 H2533 0.930 . S
C2542 C2540 1.378 . S
C2542 C2543 1.367 . S
C2543 C2542 1.367 . S
C2543 C2545 1.433 . S
C2544 C2540 1.350 . S
C2544 C2541 1.463 . S
C2544 N2548 1.427 . S
C2545 H2535 0.929 . S
C2545 C2543 1.433 . S
C2545 N2548 1.384 . S
C2546 H2537 0.929 . S
C2546 C2538 1.378 . S
C2546 C2541 1.350 . S
C2547 H2534 0.929 . S
C2547 C2539 1.433 . S
C2547 N2549 1.384 . S
N2548 C2544 1.427 . S
N2548 C2545 1.384 . S
N2549 C2541 1.427 . S
N2549 C2547 1.384 . S
H2550 C2556 0.930 . S
H2551 C2560 0.930 . S
H2552 C2565 0.929 . S
H2553 C2563 0.929 . S
H2554 C2558 0.929 . S
H2555 C2564 0.929 . S
C2556 H2550 0.930 . S
C2556 C2557 1.367 . S
C2556 C2564 1.378 . S
C2557 C2556 1.367 . S
C2557 C2565 1.433 . S
C2558 H2554 0.929 . S
C2558 C2560 1.378 . S
C2558 C2562 1.350 . S
C2559 C2562 1.463 . S
C2559 C2564 1.350 . S
C2559 N2567 1.427 . S
C2560 H2551 0.930 . S
C2560 C2558 1.378 . S
C2560 C2561 1.367 . S
C2561 C2560 1.367 . S
C2561 C2563 1.433 . S
C2562 C2558 1.350 . S
C2562 C2559 1.463 . S
C2562 N2566 1.427 . S
C2563 H2553 0.929 . S
C2563 C2561 1.433 . S
C2563 N2566 1.384 . S
C2564 H2555 0.929 . S
C2564 C2556 1.378 . S
C2564 C2559 1.350 . S
C2565 H2552 0.929 . S
C2565 C2557 1.433 . S
C2565 N2567 1.384 . S
N2566 C2562 1.427 . S
N2566 C2563 1.384 . S
N2567 C2559 1.427 . S
N2567 C2565 1.384 . S
H2568 C2574 0.930 . S
H2569 C2578 0.930 . S
H2570 C2583 0.929 . S
H2571 C2581 0.929 . S
H2572 C2576 0.929 . S
H2573 C2582 0.929 . S
C2574 H2568 0.930 . S
C2574 C2575 1.367 . S
C2574 C2582 1.378 . S
C2575 C2574 1.367 . S
C2575 C2583 1.433 . S
C2576 H2572 0.929 . S
C2576 C2578 1.378 . S
C2576 C2580 1.350 . S
C2577 C2580 1.463 . S
C2577 C2582 1.350 . S
C2577 N2585 1.427 . S
C2578 H2569 0.930 . S
C2578 C2576 1.378 . S
C2578 C2579 1.367 . S
C2579 C2578 1.367 . S
C2579 C2581 1.433 . S
C2580 C2576 1.350 . S
C2580 C2577 1.463 . S
C2580 N2584 1.427 . S
C2581 H2571 0.929 . S
C2581 C2579 1.433 . S
C2581 N2584 1.384 . S
C2582 H2573 0.929 . S
C2582 C2574 1.378 . S
C2582 C2577 1.350 . S
C2583 H2570 0.929 . S
C2583 C2575 1.433 . S
C2583 N2585 1.384 . S
N2584 C2580 1.427 . S
N2584 C2581 1.384 . S
N2585 C2577 1.427 . S
N2585 C2583 1.384 . S
H2586 C2592 0.930 . S
H2587 C2596 0.930 . S
H2588 C2601 0.929 . S
H2589 C2599 0.929 . S
H2590 C2594 0.929 . S
H2591 C2600 0.929 . S
C2592 H2586 0.930 . S
C2592 C2593 1.367 . S
C2592 C2600 1.378 . S
C2593 C2592 1.367 . S
C2593 C2601 1.433 . S
C2594 H2590 0.929 . S
C2594 C2596 1.378 . S
C2594 C2598 1.350 . S
C2595 C2598 1.463 . S
C2595 C2600 1.350 . S
C2595 N2603 1.427 . S
C2596 H2587 0.930 . S
C2596 C2594 1.378 . S
C2596 C2597 1.367 . S
C2597 C2596 1.367 . S
C2597 C2599 1.433 . S
C2598 C2594 1.350 . S
C2598 C2595 1.463 . S
C2598 N2602 1.427 . S
C2599 H2589 0.929 . S
C2599 C2597 1.433 . S
C2599 N2602 1.384 . S
C2600 H2591 0.929 . S
C2600 C2592 1.378 . S
C2600 C2595 1.350 . S
C2601 H2588 0.929 . S
C2601 C2593 1.433 . S
C2601 N2603 1.384 . S
N2602 C2598 1.427 . S
N2602 C2599 1.384 . S
N2603 C2595 1.427 . S
N2603 C2601 1.384 . S
H2604 C2610 0.930 . S
H2605 C2614 0.930 . S
H2606 C2619 0.929 . S
H2607 C2617 0.929 . S
H2608 C2612 0.929 . S
H2609 C2618 0.929 . S
C2610 H2604 0.930 . S
C2610 C2611 1.367 . S
C2610 C2618 1.378 . S
C2611 C2610 1.367 . S
C2611 C2619 1.433 . S
C2612 H2608 0.929 . S
C2612 C2614 1.378 . S
C2612 C2616 1.350 . S
C2613 C2616 1.463 . S
C2613 C2618 1.350 . S
C2613 N2621 1.427 . S
C2614 H2605 0.930 . S
C2614 C2612 1.378 . S
C2614 C2615 1.367 . S
C2615 C2614 1.367 . S
C2615 C2617 1.433 . S
C2616 C2612 1.350 . S
C2616 C2613 1.463 . S
C2616 N2620 1.427 . S
C2617 H2607 0.929 . S
C2617 C2615 1.433 . S
C2617 N2620 1.384 . S
C2618 H2609 0.929 . S
C2618 C2610 1.378 . S
C2618 C2613 1.350 . S
C2619 H2606 0.929 . S
C2619 C2611 1.433 . S
C2619 N2621 1.384 . S
N2620 C2616 1.427 . S
N2620 C2617 1.384 . S
N2621 C2613 1.427 . S
N2621 C2619 1.384 . S
H2622 C2628 0.930 . S
H2623 C2632 0.930 . S
H2624 C2637 0.929 . S
H2625 C2635 0.929 . S
H2626 C2630 0.929 . S
H2627 C2636 0.929 . S
C2628 H2622 0.930 . S
C2628 C2629 1.367 . S
C2628 C2636 1.378 . S
C2629 C2628 1.367 . S
C2629 C2637 1.433 . S
C2630 H2626 0.929 . S
C2630 C2632 1.378 . S
C2630 C2634 1.350 . S
C2631 C2634 1.463 . S
C2631 C2636 1.350 . S
C2631 N2639 1.427 . S
C2632 H2623 0.930 . S
C2632 C2630 1.378 . S
C2632 C2633 1.367 . S
C2633 C2632 1.367 . S
C2633 C2635 1.433 . S
C2634 C2630 1.350 . S
C2634 C2631 1.463 . S
C2634 N2638 1.427 . S
C2635 H2625 0.929 . S
C2635 C2633 1.433 . S
C2635 N2638 1.384 . S
C2636 H2627 0.929 . S
C2636 C2628 1.378 . S
C2636 C2631 1.350 . S
C2637 H2624 0.929 . S
C2637 C2629 1.433 . S
C2637 N2639 1.384 . S
N2638 C2634 1.427 . S
N2638 C2635 1.384 . S
N2639 C2631 1.427 . S
N2639 C2637 1.384 . S
H2640 C2646 0.930 . S
H2641 C2650 0.930 . S
H2642 C2655 0.929 . S
H2643 C2653 0.929 . S
H2644 C2648 0.929 . S
H2645 C2654 0.929 . S
C2646 H2640 0.930 . S
C2646 C2647 1.367 . S
C2646 C2654 1.378 . S
C2647 C2646 1.367 . S
C2647 C2655 1.433 . S
C2648 H2644 0.929 . S
C2648 C2650 1.378 . S
C2648 C2652 1.350 . S
C2649 C2652 1.463 . S
C2649 C2654 1.350 . S
C2649 N2657 1.427 . S
C2650 H2641 0.930 . S
C2650 C2648 1.378 . S
C2650 C2651 1.367 . S
C2651 C2650 1.367 . S
C2651 C2653 1.433 . S
C2652 C2648 1.350 . S
C2652 C2649 1.463 . S
C2652 N2656 1.427 . S
C2653 H2643 0.929 . S
C2653 C2651 1.433 . S
C2653 N2656 1.384 . S
C2654 H2645 0.929 . S
C2654 C2646 1.378 . S
C2654 C2649 1.350 . S
C2655 H2642 0.929 . S
C2655 C2647 1.433 . S
C2655 N2657 1.384 . S
N2656 C2652 1.427 . S
N2656 C2653 1.384 . S
N2657 C2649 1.427 . S
N2657 C2655 1.384 . S
H2658 C2664 0.930 . S
H2659 C2668 0.930 . S
H2660 C2673 0.929 . S
H2661 C2671 0.929 . S
H2662 C2666 0.929 . S
H2663 C2672 0.929 . S
C2664 H2658 0.930 . S
C2664 C2665 1.367 . S
C2664 C2672 1.378 . S
C2665 C2664 1.367 . S
C2665 C2673 1.433 . S
C2666 H2662 0.929 . S
C2666 C2668 1.378 . S
C2666 C2670 1.350 . S
C2667 C2670 1.463 . S
C2667 C2672 1.350 . S
C2667 N2675 1.427 . S
C2668 H2659 0.930 . S
C2668 C2666 1.378 . S
C2668 C2669 1.367 . S
C2669 C2668 1.367 . S
C2669 C2671 1.433 . S
C2670 C2666 1.350 . S
C2670 C2667 1.463 . S
C2670 N2674 1.427 . S
C2671 H2661 0.929 . S
C2671 C2669 1.433 . S
C2671 N2674 1.384 . S
C2672 H2663 0.929 . S
C2672 C2664 1.378 . S
C2672 C2667 1.350 . S
C2673 H2660 0.929 . S
C2673 C2665 1.433 . S
C2673 N2675 1.384 . S
N2674 C2670 1.427 . S
N2674 C2671 1.384 . S
N2675 C2667 1.427 . S
N2675 C2673 1.384 . S
H2676 C2682 0.930 . S
H2677 C2686 0.930 . S
H2678 C2691 0.929 . S
H2679 C2689 0.929 . S
H2680 C2684 0.929 . S
H2681 C2690 0.929 . S
C2682 H2676 0.930 . S
C2682 C2683 1.367 . S
C2682 C2690 1.378 . S
C2683 C2682 1.367 . S
C2683 C2691 1.433 . S
C2684 H2680 0.929 . S
C2684 C2686 1.378 . S
C2684 C2688 1.350 . S
C2685 C2688 1.463 . S
C2685 C2690 1.350 . S
C2685 N2693 1.427 . S
C2686 H2677 0.930 . S
C2686 C2684 1.378 . S
C2686 C2687 1.367 . S
C2687 C2686 1.367 . S
C2687 C2689 1.433 . S
C2688 C2684 1.350 . S
C2688 C2685 1.463 . S
C2688 N2692 1.427 . S
C2689 H2679 0.929 . S
C2689 C2687 1.433 . S
C2689 N2692 1.384 . S
C2690 H2681 0.929 . S
C2690 C2682 1.378 . S
C2690 C2685 1.350 . S
C2691 H2678 0.929 . S
C2691 C2683 1.433 . S
C2691 N2693 1.384 . S
N2692 C2688 1.427 . S
N2692 C2689 1.384 . S
N2693 C2685 1.427 . S
N2693 C2691 1.384 . S
H2694 C2700 0.930 . S
H2695 C2704 0.930 . S
H2696 C2709 0.929 . S
H2697 C2707 0.929 . S
H2698 C2702 0.929 . S
H2699 C2708 0.929 . S
C2700 H2694 0.930 . S
C2700 C2701 1.367 . S
C2700 C2708 1.378 . S
C2701 C2700 1.367 . S
C2701 C2709 1.433 . S
C2702 H2698 0.929 . S
C2702 C2704 1.378 . S
C2702 C2706 1.350 . S
C2703 C2706 1.463 . S
C2703 C2708 1.350 . S
C2703 N2711 1.427 . S
C2704 H2695 0.930 . S
C2704 C2702 1.378 . S
C2704 C2705 1.367 . S
C2705 C2704 1.367 . S
C2705 C2707 1.433 . S
C2706 C2702 1.350 . S
C2706 C2703 1.463 . S
C2706 N2710 1.427 . S
C2707 H2697 0.929 . S
C2707 C2705 1.433 . S
C2707 N2710 1.384 . S
C2708 H2699 0.929 . S
C2708 C2700 1.378 . S
C2708 C2703 1.350 . S
C2709 H2696 0.929 . S
C2709 C2701 1.433 . S
C2709 N2711 1.384 . S
N2710 C2706 1.427 . S
N2710 C2707 1.384 . S
N2711 C2703 1.427 . S
N2711 C2709 1.384 . S
H2712 C2718 0.930 . S
H2713 C2722 0.930 . S
H2714 C2727 0.929 . S
H2715 C2725 0.929 . S
H2716 C2720 0.929 . S
H2717 C2726 0.929 . S
C2718 H2712 0.930 . S
C2718 C2719 1.367 . S
C2718 C2726 1.378 . S
C2719 C2718 1.367 . S
C2719 C2727 1.433 . S
C2720 H2716 0.929 . S
C2720 C2722 1.378 . S
C2720 C2724 1.350 . S
C2721 C2724 1.463 . S
C2721 C2726 1.350 . S
C2721 N2729 1.427 . S
C2722 H2713 0.930 . S
C2722 C2720 1.378 . S
C2722 C2723 1.367 . S
C2723 C2722 1.367 . S
C2723 C2725 1.433 . S
C2724 C2720 1.350 . S
C2724 C2721 1.463 . S
C2724 N2728 1.427 . S
C2725 H2715 0.929 . S
C2725 C2723 1.433 . S
C2725 N2728 1.384 . S
C2726 H2717 0.929 . S
C2726 C2718 1.378 . S
C2726 C2721 1.350 . S
C2727 H2714 0.929 . S
C2727 C2719 1.433 . S
C2727 N2729 1.384 . S
N2728 C2724 1.427 . S
N2728 C2725 1.384 . S
N2729 C2721 1.427 . S
N2729 C2727 1.384 . S
H2730 C2736 0.930 . S
H2731 C2740 0.930 . S
H2732 C2745 0.929 . S
H2733 C2743 0.929 . S
H2734 C2738 0.929 . S
H2735 C2744 0.929 . S
C2736 H2730 0.930 . S
C2736 C2737 1.367 . S
C2736 C2744 1.378 . S
C2737 C2736 1.367 . S
C2737 C2745 1.433 . S
C2738 H2734 0.929 . S
C2738 C2740 1.378 . S
C2738 C2742 1.350 . S
C2739 C2742 1.463 . S
C2739 C2744 1.350 . S
C2739 N2747 1.427 . S
C2740 H2731 0.930 . S
C2740 C2738 1.378 . S
C2740 C2741 1.367 . S
C2741 C2740 1.367 . S
C2741 C2743 1.433 . S
C2742 C2738 1.350 . S
C2742 C2739 1.463 . S
C2742 N2746 1.427 . S
C2743 H2733 0.929 . S
C2743 C2741 1.433 . S
C2743 N2746 1.384 . S
C2744 H2735 0.929 . S
C2744 C2736 1.378 . S
C2744 C2739 1.350 . S
C2745 H2732 0.929 . S
C2745 C2737 1.433 . S
C2745 N2747 1.384 . S
N2746 C2742 1.427 . S
N2746 C2743 1.384 . S
N2747 C2739 1.427 . S
N2747 C2745 1.384 . S
H2748 C2754 0.930 . S
H2749 C2758 0.930 . S
H2750 C2763 0.929 . S
H2751 C2761 0.929 . S
H2752 C2756 0.929 . S
H2753 C2762 0.929 . S
C2754 H2748 0.930 . S
C2754 C2755 1.367 . S
C2754 C2762 1.378 . S
C2755 C2754 1.367 . S
C2755 C2763 1.433 . S
C2756 H2752 0.929 . S
C2756 C2758 1.378 . S
C2756 C2760 1.350 . S
C2757 C2760 1.463 . S
C2757 C2762 1.350 . S
C2757 N2765 1.427 . S
C2758 H2749 0.930 . S
C2758 C2756 1.378 . S
C2758 C2759 1.367 . S
C2759 C2758 1.367 . S
C2759 C2761 1.433 . S
C2760 C2756 1.350 . S
C2760 C2757 1.463 . S
C2760 N2764 1.427 . S
C2761 H2751 0.929 . S
C2761 C2759 1.433 . S
C2761 N2764 1.384 . S
C2762 H2753 0.929 . S
C2762 C2754 1.378 . S
C2762 C2757 1.350 . S
C2763 H2750 0.929 . S
C2763 C2755 1.433 . S
C2763 N2765 1.384 . S
N2764 C2760 1.427 . S
N2764 C2761 1.384 . S
N2765 C2757 1.427 . S
N2765 C2763 1.384 . S
H2766 C2772 0.930 . S
H2767 C2776 0.930 . S
H2768 C2781 0.929 . S
H2769 C2779 0.929 . S
H2770 C2774 0.929 . S
H2771 C2780 0.929 . S
C2772 H2766 0.930 . S
C2772 C2773 1.367 . S
C2772 C2780 1.378 . S
C2773 C2772 1.367 . S
C2773 C2781 1.433 . S
C2774 H2770 0.929 . S
C2774 C2776 1.378 . S
C2774 C2778 1.350 . S
C2775 C2778 1.463 . S
C2775 C2780 1.350 . S
C2775 N2783 1.427 . S
C2776 H2767 0.930 . S
C2776 C2774 1.378 . S
C2776 C2777 1.367 . S
C2777 C2776 1.367 . S
C2777 C2779 1.433 . S
C2778 C2774 1.350 . S
C2778 C2775 1.463 . S
C2778 N2782 1.427 . S
C2779 H2769 0.929 . S
C2779 C2777 1.433 . S
C2779 N2782 1.384 . S
C2780 H2771 0.929 . S
C2780 C2772 1.378 . S
C2780 C2775 1.350 . S
C2781 H2768 0.929 . S
C2781 C2773 1.433 . S
C2781 N2783 1.384 . S
N2782 C2778 1.427 . S
N2782 C2779 1.384 . S
N2783 C2775 1.427 . S
N2783 C2781 1.384 . S
H2784 C2790 0.930 . S
H2785 C2794 0.930 . S
H2786 C2799 0.929 . S
H2787 C2797 0.929 . S
H2788 C2792 0.929 . S
H2789 C2798 0.929 . S
C2790 H2784 0.930 . S
C2790 C2791 1.367 . S
C2790 C2798 1.378 . S
C2791 C2790 1.367 . S
C2791 C2799 1.433 . S
C2792 H2788 0.929 . S
C2792 C2794 1.378 . S
C2792 C2796 1.350 . S
C2793 C2796 1.463 . S
C2793 C2798 1.350 . S
C2793 N2801 1.427 . S
C2794 H2785 0.930 . S
C2794 C2792 1.378 . S
C2794 C2795 1.367 . S
C2795 C2794 1.367 . S
C2795 C2797 1.433 . S
C2796 C2792 1.350 . S
C2796 C2793 1.463 . S
C2796 N2800 1.427 . S
C2797 H2787 0.929 . S
C2797 C2795 1.433 . S
C2797 N2800 1.384 . S
C2798 H2789 0.929 . S
C2798 C2790 1.378 . S
C2798 C2793 1.350 . S
C2799 H2786 0.929 . S
C2799 C2791 1.433 . S
C2799 N2801 1.384 . S
N2800 C2796 1.427 . S
N2800 C2797 1.384 . S
N2801 C2793 1.427 . S
N2801 C2799 1.384 . S
H2802 C2808 0.930 . S
H2803 C2812 0.930 . S
H2804 C2817 0.929 . S
H2805 C2815 0.929 . S
H2806 C2810 0.929 . S
H2807 C2816 0.929 . S
C2808 H2802 0.930 . S
C2808 C2809 1.367 . S
C2808 C2816 1.378 . S
C2809 C2808 1.367 . S
C2809 C2817 1.433 . S
C2810 H2806 0.929 . S
C2810 C2812 1.378 . S
C2810 C2814 1.350 . S
C2811 C2814 1.463 . S
C2811 C2816 1.350 . S
C2811 N2819 1.427 . S
C2812 H2803 0.930 . S
C2812 C2810 1.378 . S
C2812 C2813 1.367 . S
C2813 C2812 1.367 . S
C2813 C2815 1.433 . S
C2814 C2810 1.350 . S
C2814 C2811 1.463 . S
C2814 N2818 1.427 . S
C2815 H2805 0.929 . S
C2815 C2813 1.433 . S
C2815 N2818 1.384 . S
C2816 H2807 0.929 . S
C2816 C2808 1.378 . S
C2816 C2811 1.350 . S
C2817 H2804 0.929 . S
C2817 C2809 1.433 . S
C2817 N2819 1.384 . S
N2818 C2814 1.427 . S
N2818 C2815 1.384 . S
N2819 C2811 1.427 . S
N2819 C2817 1.384 . S
H2820 C2826 0.930 . S
H2821 C2830 0.930 . S
H2822 C2835 0.929 . S
H2823 C2833 0.929 . S
H2824 C2828 0.929 . S
H2825 C2834 0.929 . S
C2826 H2820 0.930 . S
C2826 C2827 1.367 . S
C2826 C2834 1.378 . S
C2827 C2826 1.367 . S
C2827 C2835 1.433 . S
C2828 H2824 0.929 . S
C2828 C2830 1.378 . S
C2828 C2832 1.350 . S
C2829 C2832 1.463 . S
C2829 C2834 1.350 . S
C2829 N2837 1.427 . S
C2830 H2821 0.930 . S
C2830 C2828 1.378 . S
C2830 C2831 1.367 . S
C2831 C2830 1.367 . S
C2831 C2833 1.433 . S
C2832 C2828 1.350 . S
C2832 C2829 1.463 . S
C2832 N2836 1.427 . S
C2833 H2823 0.929 . S
C2833 C2831 1.433 . S
C2833 N2836 1.384 . S
C2834 H2825 0.929 . S
C2834 C2826 1.378 . S
C2834 C2829 1.350 . S
C2835 H2822 0.929 . S
C2835 C2827 1.433 . S
C2835 N2837 1.384 . S
N2836 C2832 1.427 . S
N2836 C2833 1.384 . S
N2837 C2829 1.427 . S
N2837 C2835 1.384 . S
H2838 C2844 0.930 . S
H2839 C2848 0.930 . S
H2840 C2853 0.929 . S
H2841 C2851 0.929 . S
H2842 C2846 0.929 . S
H2843 C2852 0.929 . S
C2844 H2838 0.930 . S
C2844 C2845 1.367 . S
C2844 C2852 1.378 . S
C2845 C2844 1.367 . S
C2845 C2853 1.433 . S
C2846 H2842 0.929 . S
C2846 C2848 1.378 . S
C2846 C2850 1.350 . S
C2847 C2850 1.463 . S
C2847 C2852 1.350 . S
C2847 N2855 1.427 . S
C2848 H2839 0.930 . S
C2848 C2846 1.378 . S
C2848 C2849 1.367 . S
C2849 C2848 1.367 . S
C2849 C2851 1.433 . S
C2850 C2846 1.350 . S
C2850 C2847 1.463 . S
C2850 N2854 1.427 . S
C2851 H2841 0.929 . S
C2851 C2849 1.433 . S
C2851 N2854 1.384 . S
C2852 H2843 0.929 . S
C2852 C2844 1.378 . S
C2852 C2847 1.350 . S
C2853 H2840 0.929 . S
C2853 C2845 1.433 . S
C2853 N2855 1.384 . S
N2854 C2850 1.427 . S
N2854 C2851 1.384 . S
N2855 C2847 1.427 . S
N2855 C2853 1.384 . S
H2856 C2862 0.930 . S
H2857 C2866 0.930 . S
H2858 C2871 0.929 . S
H2859 C2869 0.929 . S
H2860 C2864 0.929 . S
H2861 C2870 0.929 . S
C2862 H2856 0.930 . S
C2862 C2863 1.367 . S
C2862 C2870 1.378 . S
C2863 C2862 1.367 . S
C2863 C2871 1.433 . S
C2864 H2860 0.929 . S
C2864 C2866 1.378 . S
C2864 C2868 1.350 . S
C2865 C2868 1.463 . S
C2865 C2870 1.350 . S
C2865 N2873 1.427 . S
C2866 H2857 0.930 . S
C2866 C2864 1.378 . S
C2866 C2867 1.367 . S
C2867 C2866 1.367 . S
C2867 C2869 1.433 . S
C2868 C2864 1.350 . S
C2868 C2865 1.463 . S
C2868 N2872 1.427 . S
C2869 H2859 0.929 . S
C2869 C2867 1.433 . S
C2869 N2872 1.384 . S
C2870 H2861 0.929 . S
C2870 C2862 1.378 . S
C2870 C2865 1.350 . S
C2871 H2858 0.929 . S
C2871 C2863 1.433 . S
C2871 N2873 1.384 . S
N2872 C2868 1.427 . S
N2872 C2869 1.384 . S
N2873 C2865 1.427 . S
N2873 C2871 1.384 . S
H2874 C2880 0.930 . S
H2875 C2884 0.930 . S
H2876 C2889 0.929 . S
H2877 C2887 0.929 . S
H2878 C2882 0.929 . S
H2879 C2888 0.929 . S
C2880 H2874 0.930 . S
C2880 C2881 1.367 . S
C2880 C2888 1.378 . S
C2881 C2880 1.367 . S
C2881 C2889 1.433 . S
C2882 H2878 0.929 . S
C2882 C2884 1.378 . S
C2882 C2886 1.350 . S
C2883 C2886 1.463 . S
C2883 C2888 1.350 . S
C2883 N2891 1.427 . S
C2884 H2875 0.930 . S
C2884 C2882 1.378 . S
C2884 C2885 1.367 . S
C2885 C2884 1.367 . S
C2885 C2887 1.433 . S
C2886 C2882 1.350 . S
C2886 C2883 1.463 . S
C2886 N2890 1.427 . S
C2887 H2877 0.929 . S
C2887 C2885 1.433 . S
C2887 N2890 1.384 . S
C2888 H2879 0.929 . S
C2888 C2880 1.378 . S
C2888 C2883 1.350 . S
C2889 H2876 0.929 . S
C2889 C2881 1.433 . S
C2889 N2891 1.384 . S
N2890 C2886 1.427 . S
N2890 C2887 1.384 . S
N2891 C2883 1.427 . S
N2891 C2889 1.384 . S
H2892 C2898 0.930 . S
H2893 C2902 0.930 . S
H2894 C2907 0.929 . S
H2895 C2905 0.929 . S
H2896 C2900 0.929 . S
H2897 C2906 0.929 . S
C2898 H2892 0.930 . S
C2898 C2899 1.367 . S
C2898 C2906 1.378 . S
C2899 C2898 1.367 . S
C2899 C2907 1.433 . S
C2900 H2896 0.929 . S
C2900 C2902 1.378 . S
C2900 C2904 1.350 . S
C2901 C2904 1.463 . S
C2901 C2906 1.350 . S
C2901 N2909 1.427 . S
C2902 H2893 0.930 . S
C2902 C2900 1.378 . S
C2902 C2903 1.367 . S
C2903 C2902 1.367 . S
C2903 C2905 1.433 . S
C2904 C2900 1.350 . S
C2904 C2901 1.463 . S
C2904 N2908 1.427 . S
C2905 H2895 0.929 . S
C2905 C2903 1.433 . S
C2905 N2908 1.384 . S
C2906 H2897 0.929 . S
C2906 C2898 1.378 . S
C2906 C2901 1.350 . S
C2907 H2894 0.929 . S
C2907 C2899 1.433 . S
C2907 N2909 1.384 . S
N2908 C2904 1.427 . S
N2908 C2905 1.384 . S
N2909 C2901 1.427 . S
N2909 C2907 1.384 . S
H2910 C2916 0.930 . S
H2911 C2920 0.930 . S
H2912 C2925 0.929 . S
H2913 C2923 0.929 . S
H2914 C2918 0.929 . S
H2915 C2924 0.929 . S
C2916 H2910 0.930 . S
C2916 C2917 1.367 . S
C2916 C2924 1.378 . S
C2917 C2916 1.367 . S
C2917 C2925 1.433 . S
C2918 H2914 0.929 . S
C2918 C2920 1.378 . S
C2918 C2922 1.350 . S
C2919 C2922 1.463 . S
C2919 C2924 1.350 . S
C2919 N2927 1.427 . S
C2920 H2911 0.930 . S
C2920 C2918 1.378 . S
C2920 C2921 1.367 . S
C2921 C2920 1.367 . S
C2921 C2923 1.433 . S
C2922 C2918 1.350 . S
C2922 C2919 1.463 . S
C2922 N2926 1.427 . S
C2923 H2913 0.929 . S
C2923 C2921 1.433 . S
C2923 N2926 1.384 . S
C2924 H2915 0.929 . S
C2924 C2916 1.378 . S
C2924 C2919 1.350 . S
C2925 H2912 0.929 . S
C2925 C2917 1.433 . S
C2925 N2927 1.384 . S
N2926 C2922 1.427 . S
N2926 C2923 1.384 . S
N2927 C2919 1.427 . S
N2927 C2925 1.384 . S
H2928 C2934 0.930 . S
H2929 C2938 0.930 . S
H2930 C2943 0.929 . S
H2931 C2941 0.929 . S
H2932 C2936 0.929 . S
H2933 C2942 0.929 . S
C2934 H2928 0.930 . S
C2934 C2935 1.367 . S
C2934 C2942 1.378 . S
C2935 C2934 1.367 . S
C2935 C2943 1.433 . S
C2936 H2932 0.929 . S
C2936 C2938 1.378 . S
C2936 C2940 1.350 . S
C2937 C2940 1.463 . S
C2937 C2942 1.350 . S
C2937 N2945 1.427 . S
C2938 H2929 0.930 . S
C2938 C2936 1.378 . S
C2938 C2939 1.367 . S
C2939 C2938 1.367 . S
C2939 C2941 1.433 . S
C2940 C2936 1.350 . S
C2940 C2937 1.463 . S
C2940 N2944 1.427 . S
C2941 H2931 0.929 . S
C2941 C2939 1.433 . S
C2941 N2944 1.384 . S
C2942 H2933 0.929 . S
C2942 C2934 1.378 . S
C2942 C2937 1.350 . S
C2943 H2930 0.929 . S
C2943 C2935 1.433 . S
C2943 N2945 1.384 . S
N2944 C2940 1.427 . S
N2944 C2941 1.384 . S
N2945 C2937 1.427 . S
N2945 C2943 1.384 . S
H2946 C2952 0.930 . S
H2947 C2956 0.930 . S
H2948 C2961 0.929 . S
H2949 C2959 0.929 . S
H2950 C2954 0.929 . S
H2951 C2960 0.929 . S
C2952 H2946 0.930 . S
C2952 C2953 1.367 . S
C2952 C2960 1.378 . S
C2953 C2952 1.367 . S
C2953 C2961 1.433 . S
C2954 H2950 0.929 . S
C2954 C2956 1.378 . S
C2954 C2958 1.350 . S
C2955 C2958 1.463 . S
C2955 C2960 1.350 . S
C2955 N2963 1.427 . S
C2956 H2947 0.930 . S
C2956 C2954 1.378 . S
C2956 C2957 1.367 . S
C2957 C2956 1.367 . S
C2957 C2959 1.433 . S
C2958 C2954 1.350 . S
C2958 C2955 1.463 . S
C2958 N2962 1.427 . S
C2959 H2949 0.929 . S
C2959 C2957 1.433 . S
C2959 N2962 1.384 . S
C2960 H2951 0.929 . S
C2960 C2952 1.378 . S
C2960 C2955 1.350 . S
C2961 H2948 0.929 . S
C2961 C2953 1.433 . S
C2961 N2963 1.384 . S
N2962 C2958 1.427 . S
N2962 C2959 1.384 . S
N2963 C2955 1.427 . S
N2963 C2961 1.384 . S
H2964 C2970 0.930 . S
H2965 C2974 0.930 . S
H2966 C2979 0.929 . S
H2967 C2977 0.929 . S
H2968 C2972 0.929 . S
H2969 C2978 0.929 . S
C2970 H2964 0.930 . S
C2970 C2971 1.367 . S
C2970 C2978 1.378 . S
C2971 C2970 1.367 . S
C2971 C2979 1.433 . S
C2972 H2968 0.929 . S
C2972 C2974 1.378 . S
C2972 C2976 1.350 . S
C2973 C2976 1.463 . S
C2973 C2978 1.350 . S
C2973 N2981 1.427 . S
C2974 H2965 0.930 . S
C2974 C2972 1.378 . S
C2974 C2975 1.367 . S
C2975 C2974 1.367 . S
C2975 C2977 1.433 . S
C2976 C2972 1.350 . S
C2976 C2973 1.463 . S
C2976 N2980 1.427 . S
C2977 H2967 0.929 . S
C2977 C2975 1.433 . S
C2977 N2980 1.384 . S
C2978 H2969 0.929 . S
C2978 C2970 1.378 . S
C2978 C2973 1.350 . S
C2979 H2966 0.929 . S
C2979 C2971 1.433 . S
C2979 N2981 1.384 . S
N2980 C2976 1.427 . S
N2980 C2977 1.384 . S
N2981 C2973 1.427 . S
N2981 C2979 1.384 . S
H2982 C2988 0.930 . S
H2983 C2992 0.930 . S
H2984 C2997 0.929 . S
H2985 C2995 0.929 . S
H2986 C2990 0.929 . S
H2987 C2996 0.929 . S
C2988 H2982 0.930 . S
C2988 C2989 1.367 . S
C2988 C2996 1.378 . S
C2989 C2988 1.367 . S
C2989 C2997 1.433 . S
C2990 H2986 0.929 . S
C2990 C2992 1.378 . S
C2990 C2994 1.350 . S
C2991 C2994 1.463 . S
C2991 C2996 1.350 . S
C2991 N2999 1.427 . S
C2992 H2983 0.930 . S
C2992 C2990 1.378 . S
C2992 C2993 1.367 . S
C2993 C2992 1.367 . S
C2993 C2995 1.433 . S
C2994 C2990 1.350 . S
C2994 C2991 1.463 . S
C2994 N2998 1.427 . S
C2995 H2985 0.929 . S
C2995 C2993 1.433 . S
C2995 N2998 1.384 . S
C2996 H2987 0.929 . S
C2996 C2988 1.378 . S
C2996 C2991 1.350 . S
C2997 H2984 0.929 . S
C2997 C2989 1.433 . S
C2997 N2999 1.384 . S
N2998 C2994 1.427 . S
N2998 C2995 1.384 . S
N2999 C2991 1.427 . S
N2999 C2997 1.384 . S
H3000 C3006 0.930 . S
H3001 C3010 0.930 . S
H3002 C3015 0.929 . S
H3003 C3013 0.929 . S
H3004 C3008 0.929 . S
H3005 C3014 0.929 . S
C3006 H3000 0.930 . S
C3006 C3007 1.367 . S
C3006 C3014 1.378 . S
C3007 C3006 1.367 . S
C3007 C3015 1.433 . S
C3008 H3004 0.929 . S
C3008 C3010 1.378 . S
C3008 C3012 1.350 . S
C3009 C3012 1.463 . S
C3009 C3014 1.350 . S
C3009 N3017 1.427 . S
C3010 H3001 0.930 . S
C3010 C3008 1.378 . S
C3010 C3011 1.367 . S
C3011 C3010 1.367 . S
C3011 C3013 1.433 . S
C3012 C3008 1.350 . S
C3012 C3009 1.463 . S
C3012 N3016 1.427 . S
C3013 H3003 0.929 . S
C3013 C3011 1.433 . S
C3013 N3016 1.384 . S
C3014 H3005 0.929 . S
C3014 C3006 1.378 . S
C3014 C3009 1.350 . S
C3015 H3002 0.929 . S
C3015 C3007 1.433 . S
C3015 N3017 1.384 . S
N3016 C3012 1.427 . S
N3016 C3013 1.384 . S
N3017 C3009 1.427 . S
N3017 C3015 1.384 . S
H3018 C3024 0.930 . S
H3019 C3028 0.930 . S
H3020 C3033 0.929 . S
H3021 C3031 0.929 . S
H3022 C3026 0.929 . S
H3023 C3032 0.929 . S
C3024 H3018 0.930 . S
C3024 C3025 1.367 . S
C3024 C3032 1.378 . S
C3025 C3024 1.367 . S
C3025 C3033 1.433 . S
C3026 H3022 0.929 . S
C3026 C3028 1.378 . S
C3026 C3030 1.350 . S
C3027 C3030 1.463 . S
C3027 C3032 1.350 . S
C3027 N3035 1.427 . S
C3028 H3019 0.930 . S
C3028 C3026 1.378 . S
C3028 C3029 1.367 . S
C3029 C3028 1.367 . S
C3029 C3031 1.433 . S
C3030 C3026 1.350 . S
C3030 C3027 1.463 . S
C3030 N3034 1.427 . S
C3031 H3021 0.929 . S
C3031 C3029 1.433 . S
C3031 N3034 1.384 . S
C3032 H3023 0.929 . S
C3032 C3024 1.378 . S
C3032 C3027 1.350 . S
C3033 H3020 0.929 . S
C3033 C3025 1.433 . S
C3033 N3035 1.384 . S
N3034 C3030 1.427 . S
N3034 C3031 1.384 . S
N3035 C3027 1.427 . S
N3035 C3033 1.384 . S
H3036 C3042 0.930 . S
H3037 C3046 0.930 . S
H3038 C3051 0.929 . S
H3039 C3049 0.929 . S
H3040 C3044 0.929 . S
H3041 C3050 0.929 . S
C3042 H3036 0.930 . S
C3042 C3043 1.367 . S
C3042 C3050 1.378 . S
C3043 C3042 1.367 . S
C3043 C3051 1.433 . S
C3044 H3040 0.929 . S
C3044 C3046 1.378 . S
C3044 C3048 1.350 . S
C3045 C3048 1.463 . S
C3045 C3050 1.350 . S
C3045 N3053 1.427 . S
C3046 H3037 0.930 . S
C3046 C3044 1.378 . S
C3046 C3047 1.367 . S
C3047 C3046 1.367 . S
C3047 C3049 1.433 . S
C3048 C3044 1.350 . S
C3048 C3045 1.463 . S
C3048 N3052 1.427 . S
C3049 H3039 0.929 . S
C3049 C3047 1.433 . S
C3049 N3052 1.384 . S
C3050 H3041 0.929 . S
C3050 C3042 1.378 . S
C3050 C3045 1.350 . S
C3051 H3038 0.929 . S
C3051 C3043 1.433 . S
C3051 N3053 1.384 . S
N3052 C3048 1.427 . S
N3052 C3049 1.384 . S
N3053 C3045 1.427 . S
N3053 C3051 1.384 . S
H3054 C3060 0.930 . S
H3055 C3064 0.930 . S
H3056 C3069 0.929 . S
H3057 C3067 0.929 . S
H3058 C3062 0.929 . S
H3059 C3068 0.929 . S
C3060 H3054 0.930 . S
C3060 C3061 1.367 . S
C3060 C3068 1.378 . S
C3061 C3060 1.367 . S
C3061 C3069 1.433 . S
C3062 H3058 0.929 . S
C3062 C3064 1.378 . S
C3062 C3066 1.350 . S
C3063 C3066 1.463 . S
C3063 C3068 1.350 . S
C3063 N3071 1.427 . S
C3064 H3055 0.930 . S
C3064 C3062 1.378 . S
C3064 C3065 1.367 . S
C3065 C3064 1.367 . S
C3065 C3067 1.433 . S
C3066 C3062 1.350 . S
C3066 C3063 1.463 . S
C3066 N3070 1.427 . S
C3067 H3057 0.929 . S
C3067 C3065 1.433 . S
C3067 N3070 1.384 . S
C3068 H3059 0.929 . S
C3068 C3060 1.378 . S
C3068 C3063 1.350 . S
C3069 H3056 0.929 . S
C3069 C3061 1.433 . S
C3069 N3071 1.384 . S
N3070 C3066 1.427 . S
N3070 C3067 1.384 . S
N3071 C3063 1.427 . S
N3071 C3069 1.384 . S
H3072 C3078 0.930 . S
H3073 C3082 0.930 . S
H3074 C3087 0.929 . S
H3075 C3085 0.929 . S
H3076 C3080 0.929 . S
H3077 C3086 0.929 . S
C3078 H3072 0.930 . S
C3078 C3079 1.367 . S
C3078 C3086 1.378 . S
C3079 C3078 1.367 . S
C3079 C3087 1.433 . S
C3080 H3076 0.929 . S
C3080 C3082 1.378 . S
C3080 C3084 1.350 . S
C3081 C3084 1.463 1_455 S
C3081 C3086 1.350 . S
C3081 N3089 1.427 . S
C3082 H3073 0.930 . S
C3082 C3080 1.378 . S
C3082 C3083 1.367 . S
C3083 C3082 1.367 . S
C3083 C3085 1.433 . S
C3084 C3080 1.350 . S
C3084 C3081 1.463 1_655 S
C3084 N3088 1.427 . S
C3085 H3075 0.929 . S
C3085 C3083 1.433 . S
C3085 N3088 1.384 . S
C3086 H3077 0.929 . S
C3086 C3078 1.378 . S
C3086 C3081 1.350 . S
C3087 H3074 0.929 . S
C3087 C3079 1.433 . S
C3087 N3089 1.384 . S
N3088 C3084 1.427 . S
N3088 C3085 1.384 . S
N3089 C3081 1.427 . S
N3089 C3087 1.384 . S
H3090 C3096 0.930 . S
H3091 C3100 0.930 . S
H3092 C3105 0.929 . S
H3093 C3103 0.929 . S
H3094 C3098 0.929 . S
H3095 C3104 0.929 . S
C3096 H3090 0.930 . S
C3096 C3097 1.367 . S
C3096 C3104 1.378 . S
C3097 C3096 1.367 . S
C3097 C3105 1.433 . S
C3098 H3094 0.929 . S
C3098 C3100 1.378 . S
C3098 C3102 1.350 . S
C3099 C3102 1.463 1_565 S
C3099 C3104 1.350 . S
C3099 N3107 1.427 . S
C3100 H3091 0.930 . S
C3100 C3098 1.378 . S
C3100 C3101 1.367 . S
C3101 C3100 1.367 . S
C3101 C3103 1.433 . S
C3102 C3098 1.350 . S
C3102 C3099 1.463 1_545 S
C3102 N3106 1.427 . S
C3103 H3093 0.929 . S
C3103 C3101 1.433 . S
C3103 N3106 1.384 . S
C3104 H3095 0.929 . S
C3104 C3096 1.378 . S
C3104 C3099 1.350 . S
C3105 H3092 0.929 . S
C3105 C3097 1.433 . S
C3105 N3107 1.384 . S
N3106 C3102 1.427 . S
N3106 C3103 1.384 . S
N3107 C3099 1.427 . S
N3107 C3105 1.384 . S
H3108 C3114 0.930 . S
H3109 C3118 0.930 . S
H3110 C3123 0.929 . S
H3111 C3121 0.929 . S
H3112 C3116 0.929 . S
H3113 C3122 0.929 . S
C3114 H3108 0.930 . S
C3114 C3115 1.367 . S
C3114 C3122 1.378 . S
C3115 C3114 1.367 . S
C3115 C3123 1.433 . S
C3116 H3112 0.929 . S
C3116 C3118 1.378 . S
C3116 C3120 1.350 . S
C3117 C3120 1.463 1_655 S
C3117 C3122 1.350 . S
C3117 N3125 1.427 . S
C3118 H3109 0.930 . S
C3118 C3116 1.378 . S
C3118 C3119 1.367 . S
C3119 C3118 1.367 . S
C3119 C3121 1.433 . S
C3120 C3116 1.350 . S
C3120 C3117 1.463 1_455 S
C3120 N3124 1.427 . S
C3121 H3111 0.929 . S
C3121 C3119 1.433 . S
C3121 N3124 1.384 . S
C3122 H3113 0.929 . S
C3122 C3114 1.378 . S
C3122 C3117 1.350 . S
C3123 H3110 0.929 . S
C3123 C3115 1.433 . S
C3123 N3125 1.384 . S
N3124 C3120 1.427 . S
N3124 C3121 1.384 . S
N3125 C3117 1.427 . S
N3125 C3123 1.384 . S
H3126 C3132 0.930 . S
H3127 C3136 0.930 . S
H3128 C3141 0.929 . S
H3129 C3139 0.929 . S
H3130 C3134 0.929 . S
H3131 C3140 0.929 . S
C3132 H3126 0.930 . S
C3132 C3133 1.367 . S
C3132 C3140 1.378 . S
C3133 C3132 1.367 . S
C3133 C3141 1.433 . S
C3134 H3130 0.929 . S
C3134 C3136 1.378 . S
C3134 C3138 1.350 . S
C3135 C3138 1.463 1_545 S
C3135 C3140 1.350 . S
C3135 N3143 1.427 . S
C3136 H3127 0.930 . S
C3136 C3134 1.378 . S
C3136 C3137 1.367 . S
C3137 C3136 1.367 . S
C3137 C3139 1.433 . S
C3138 C3134 1.350 . S
C3138 C3135 1.463 1_565 S
C3138 N3142 1.427 . S
C3139 H3129 0.929 . S
C3139 C3137 1.433 . S
C3139 N3142 1.384 . S
C3140 H3131 0.929 . S
C3140 C3132 1.378 . S
C3140 C3135 1.350 . S
C3141 H3128 0.929 . S
C3141 C3133 1.433 . S
C3141 N3143 1.384 . S
N3142 C3138 1.427 . S
N3142 C3139 1.384 . S
N3143 C3135 1.427 . S
N3143 C3141 1.384 . S
H3144 C3150 0.930 . S
H3145 C3154 0.930 . S
H3146 C3159 0.929 . S
H3147 C3157 0.929 . S
H3148 C3152 0.929 . S
H3149 C3158 0.929 . S
C3150 H3144 0.930 . S
C3150 C3151 1.367 . S
C3150 C3158 1.378 . S
C3151 C3150 1.367 . S
C3151 C3159 1.433 . S
C3152 H3148 0.929 . S
C3152 C3154 1.378 . S
C3152 C3156 1.350 . S
C3153 C3156 1.463 1_455 S
C3153 C3158 1.350 . S
C3153 N3161 1.427 . S
C3154 H3145 0.930 . S
C3154 C3152 1.378 . S
C3154 C3155 1.367 . S
C3155 C3154 1.367 . S
C3155 C3157 1.433 . S
C3156 C3152 1.350 . S
C3156 C3153 1.463 1_655 S
C3156 N3160 1.427 . S
C3157 H3147 0.929 . S
C3157 C3155 1.433 . S
C3157 N3160 1.384 . S
C3158 H3149 0.929 . S
C3158 C3150 1.378 . S
C3158 C3153 1.350 . S
C3159 H3146 0.929 . S
C3159 C3151 1.433 . S
C3159 N3161 1.384 . S
N3160 C3156 1.427 . S
N3160 C3157 1.384 . S
N3161 C3153 1.427 . S
N3161 C3159 1.384 . S
H3162 C3168 0.930 . S
H3163 C3172 0.930 . S
H3164 C3177 0.929 . S
H3165 C3175 0.929 . S
H3166 C3170 0.929 . S
H3167 C3176 0.929 . S
C3168 H3162 0.930 . S
C3168 C3169 1.367 . S
C3168 C3176 1.378 . S
C3169 C3168 1.367 . S
C3169 C3177 1.433 . S
C3170 H3166 0.929 . S
C3170 C3172 1.378 . S
C3170 C3174 1.350 . S
C3171 C3174 1.463 1_545 S
C3171 C3176 1.350 . S
C3171 N3179 1.427 . S
C3172 H3163 0.930 . S
C3172 C3170 1.378 . S
C3172 C3173 1.367 . S
C3173 C3172 1.367 . S
C3173 C3175 1.433 . S
C3174 C3170 1.350 . S
C3174 C3171 1.463 1_565 S
C3174 N3178 1.427 . S
C3175 H3165 0.929 . S
C3175 C3173 1.433 . S
C3175 N3178 1.384 . S
C3176 H3167 0.929 . S
C3176 C3168 1.378 . S
C3176 C3171 1.350 . S
C3177 H3164 0.929 . S
C3177 C3169 1.433 . S
C3177 N3179 1.384 . S
N3178 C3174 1.427 . S
N3178 C3175 1.384 . S
N3179 C3171 1.427 . S
N3179 C3177 1.384 . S
H3180 C3186 0.930 . S
H3181 C3190 0.930 . S
H3182 C3195 0.929 . S
H3183 C3193 0.929 . S
H3184 C3188 0.929 . S
H3185 C3194 0.929 . S
C3186 H3180 0.930 . S
C3186 C3187 1.367 . S
C3186 C3194 1.378 . S
C3187 C3186 1.367 . S
C3187 C3195 1.433 . S
C3188 H3184 0.929 . S
C3188 C3190 1.378 . S
C3188 C3192 1.350 . S
C3189 C3192 1.463 1_655 S
C3189 C3194 1.350 . S
C3189 N3197 1.427 . S
C3190 H3181 0.930 . S
C3190 C3188 1.378 . S
C3190 C3191 1.367 . S
C3191 C3190 1.367 . S
C3191 C3193 1.433 . S
C3192 C3188 1.350 . S
C3192 C3189 1.463 1_455 S
C3192 N3196 1.427 . S
C3193 H3183 0.929 . S
C3193 C3191 1.433 . S
C3193 N3196 1.384 . S
C3194 H3185 0.929 . S
C3194 C3186 1.378 . S
C3194 C3189 1.350 . S
C3195 H3182 0.929 . S
C3195 C3187 1.433 . S
C3195 N3197 1.384 . S
N3196 C3192 1.427 . S
N3196 C3193 1.384 . S
N3197 C3189 1.427 . S
N3197 C3195 1.384 . S
H3198 C3204 0.930 . S
H3199 C3208 0.930 . S
H3200 C3213 0.929 . S
H3201 C3211 0.929 . S
H3202 C3206 0.929 . S
H3203 C3212 0.929 . S
C3204 H3198 0.930 . S
C3204 C3205 1.367 . S
C3204 C3212 1.378 . S
C3205 C3204 1.367 . S
C3205 C3213 1.433 . S
C3206 H3202 0.929 . S
C3206 C3208 1.378 . S
C3206 C3210 1.350 . S
C3207 C3210 1.463 1_545 S
C3207 C3212 1.350 . S
C3207 N3215 1.427 . S
C3208 H3199 0.930 . S
C3208 C3206 1.378 . S
C3208 C3209 1.367 . S
C3209 C3208 1.367 . S
C3209 C3211 1.433 . S
C3210 C3206 1.350 . S
C3210 C3207 1.463 1_565 S
C3210 N3214 1.427 . S
C3211 H3201 0.929 . S
C3211 C3209 1.433 . S
C3211 N3214 1.384 . S
C3212 H3203 0.929 . S
C3212 C3204 1.378 . S
C3212 C3207 1.350 . S
C3213 H3200 0.929 . S
C3213 C3205 1.433 . S
C3213 N3215 1.384 . S
N3214 C3210 1.427 . S
N3214 C3211 1.384 . S
N3215 C3207 1.427 . S
N3215 C3213 1.384 . S
H3216 C3222 0.930 . S
H3217 C3226 0.930 . S
H3218 C3231 0.929 . S
H3219 C3229 0.929 . S
H3220 C3224 0.929 . S
H3221 C3230 0.929 . S
C3222 H3216 0.930 . S
C3222 C3223 1.367 . S
C3222 C3230 1.378 . S
C3223 C3222 1.367 . S
C3223 C3231 1.433 . S
C3224 H3220 0.929 . S
C3224 C3226 1.378 . S
C3224 C3228 1.350 . S
C3225 C3228 1.463 1_565 S
C3225 C3230 1.350 . S
C3225 N3233 1.427 . S
C3226 H3217 0.930 . S
C3226 C3224 1.378 . S
C3226 C3227 1.367 . S
C3227 C3226 1.367 . S
C3227 C3229 1.433 . S
C3228 C3224 1.350 . S
C3228 C3225 1.463 1_545 S
C3228 N3232 1.427 . S
C3229 H3219 0.929 . S
C3229 C3227 1.433 . S
C3229 N3232 1.384 . S
C3230 H3221 0.929 . S
C3230 C3222 1.378 . S
C3230 C3225 1.350 . S
C3231 H3218 0.929 . S
C3231 C3223 1.433 . S
C3231 N3233 1.384 . S
N3232 C3228 1.427 . S
N3232 C3229 1.384 . S
N3233 C3225 1.427 . S
N3233 C3231 1.384 . S
H3234 C3240 0.930 . S
H3235 C3244 0.930 . S
H3236 C3249 0.929 . S
H3237 C3247 0.929 . S
H3238 C3242 0.929 . S
H3239 C3248 0.929 . S
C3240 H3234 0.930 . S
C3240 C3241 1.367 . S
C3240 C3248 1.378 . S
C3241 C3240 1.367 . S
C3241 C3249 1.433 . S
C3242 H3238 0.929 . S
C3242 C3244 1.378 . S
C3242 C3246 1.350 . S
C3243 C3246 1.463 1_655 S
C3243 C3248 1.350 . S
C3243 N3251 1.427 . S
C3244 H3235 0.930 . S
C3244 C3242 1.378 . S
C3244 C3245 1.367 . S
C3245 C3244 1.367 . S
C3245 C3247 1.433 . S
C3246 C3242 1.350 . S
C3246 C3243 1.463 1_455 S
C3246 N3250 1.427 . S
C3247 H3237 0.929 . S
C3247 C3245 1.433 . S
C3247 N3250 1.384 . S
C3248 H3239 0.929 . S
C3248 C3240 1.378 . S
C3248 C3243 1.350 . S
C3249 H3236 0.929 . S
C3249 C3241 1.433 . S
C3249 N3251 1.384 . S
N3250 C3246 1.427 . S
N3250 C3247 1.384 . S
N3251 C3243 1.427 . S
N3251 C3249 1.384 . S
H3252 C3258 0.930 . S
H3253 C3262 0.930 . S
H3254 C3267 0.929 . S
H3255 C3265 0.929 . S
H3256 C3260 0.929 . S
H3257 C3266 0.929 . S
C3258 H3252 0.930 . S
C3258 C3259 1.367 . S
C3258 C3266 1.378 . S
C3259 C3258 1.367 . S
C3259 C3267 1.433 . S
C3260 H3256 0.929 . S
C3260 C3262 1.378 . S
C3260 C3264 1.350 . S
C3261 C3264 1.463 1_565 S
C3261 C3266 1.350 . S
C3261 N3269 1.427 . S
C3262 H3253 0.930 . S
C3262 C3260 1.378 . S
C3262 C3263 1.367 . S
C3263 C3262 1.367 . S
C3263 C3265 1.433 . S
C3264 C3260 1.350 . S
C3264 C3261 1.463 1_545 S
C3264 N3268 1.427 . S
C3265 H3255 0.929 . S
C3265 C3263 1.433 . S
C3265 N3268 1.384 . S
C3266 H3257 0.929 . S
C3266 C3258 1.378 . S
C3266 C3261 1.350 . S
C3267 H3254 0.929 . S
C3267 C3259 1.433 . S
C3267 N3269 1.384 . S
N3268 C3264 1.427 . S
N3268 C3265 1.384 . S
N3269 C3261 1.427 . S
N3269 C3267 1.384 . S
H3270 C3276 0.930 . S
H3271 C3280 0.930 . S
H3272 C3285 0.929 . S
H3273 C3283 0.929 . S
H3274 C3278 0.929 . S
H3275 C3284 0.929 . S
C3276 H3270 0.930 . S
C3276 C3277 1.367 . S
C3276 C3284 1.378 . S
C3277 C3276 1.367 . S
C3277 C3285 1.433 . S
C3278 H3274 0.929 . S
C3278 C3280 1.378 . S
C3278 C3282 1.350 . S
C3279 C3282 1.463 1_455 S
C3279 C3284 1.350 . S
C3279 N3287 1.427 . S
C3280 H3271 0.930 . S
C3280 C3278 1.378 . S
C3280 C3281 1.367 . S
C3281 C3280 1.367 . S
C3281 C3283 1.433 . S
C3282 C3278 1.350 . S
C3282 C3279 1.463 1_655 S
C3282 N3286 1.427 . S
C3283 H3273 0.929 . S
C3283 C3281 1.433 . S
C3283 N3286 1.384 . S
C3284 H3275 0.929 . S
C3284 C3276 1.378 . S
C3284 C3279 1.350 . S
C3285 H3272 0.929 . S
C3285 C3277 1.433 . S
C3285 N3287 1.384 . S
N3286 C3282 1.427 . S
N3286 C3283 1.384 . S
N3287 C3279 1.427 . S
N3287 C3285 1.384 . S
H3288 C3294 0.930 . S
H3289 C3298 0.930 . S
H3290 C3303 0.929 . S
H3291 C3301 0.929 . S
H3292 C3296 0.929 . S
H3293 C3302 0.929 . S
C3294 H3288 0.930 . S
C3294 C3295 1.367 . S
C3294 C3302 1.378 . S
C3295 C3294 1.367 . S
C3295 C3303 1.433 . S
C3296 H3292 0.929 . S
C3296 C3298 1.378 . S
C3296 C3300 1.350 . S
C3297 C3300 1.463 1_565 S
C3297 C3302 1.350 . S
C3297 N3305 1.427 . S
C3298 H3289 0.930 . S
C3298 C3296 1.378 . S
C3298 C3299 1.367 . S
C3299 C3298 1.367 . S
C3299 C3301 1.433 . S
C3300 C3296 1.350 . S
C3300 C3297 1.463 1_545 S
C3300 N3304 1.427 . S
C3301 H3291 0.929 . S
C3301 C3299 1.433 . S
C3301 N3304 1.384 . S
C3302 H3293 0.929 . S
C3302 C3294 1.378 . S
C3302 C3297 1.350 . S
C3303 H3290 0.929 . S
C3303 C3295 1.433 . S
C3303 N3305 1.384 . S
N3304 C3300 1.427 . S
N3304 C3301 1.384 . S
N3305 C3297 1.427 . S
N3305 C3303 1.384 . S
H3306 C3312 0.930 . S
H3307 C3316 0.930 . S
H3308 C3321 0.929 . S
H3309 C3319 0.929 . S
H3310 C3314 0.929 . S
H3311 C3320 0.929 . S
C3312 H3306 0.930 . S
C3312 C3313 1.367 . S
C3312 C3320 1.378 . S
C3313 C3312 1.367 . S
C3313 C3321 1.433 . S
C3314 H3310 0.929 . S
C3314 C3316 1.378 . S
C3314 C3318 1.350 . S
C3315 C3318 1.463 1_455 S
C3315 C3320 1.350 . S
C3315 N3323 1.427 . S
C3316 H3307 0.930 . S
C3316 C3314 1.378 . S
C3316 C3317 1.367 . S
C3317 C3316 1.367 . S
C3317 C3319 1.433 . S
C3318 C3314 1.350 . S
C3318 C3315 1.463 1_655 S
C3318 N3322 1.427 . S
C3319 H3309 0.929 . S
C3319 C3317 1.433 . S
C3319 N3322 1.384 . S
C3320 H3311 0.929 . S
C3320 C3312 1.378 . S
C3320 C3315 1.350 . S
C3321 H3308 0.929 . S
C3321 C3313 1.433 . S
C3321 N3323 1.384 . S
N3322 C3318 1.427 . S
N3322 C3319 1.384 . S
N3323 C3315 1.427 . S
N3323 C3321 1.384 . S
H3324 C3330 0.930 . S
H3325 C3334 0.930 . S
H3326 C3339 0.929 . S
H3327 C3337 0.929 . S
H3328 C3332 0.929 . S
H3329 C3338 0.929 . S
C3330 H3324 0.930 . S
C3330 C3331 1.367 . S
C3330 C3338 1.378 . S
C3331 C3330 1.367 . S
C3331 C3339 1.433 . S
C3332 H3328 0.929 . S
C3332 C3334 1.378 . S
C3332 C3336 1.350 . S
C3333 C3336 1.463 1_545 S
C3333 C3338 1.350 . S
C3333 N3341 1.427 . S
C3334 H3325 0.930 . S
C3334 C3332 1.378 . S
C3334 C3335 1.367 . S
C3335 C3334 1.367 . S
C3335 C3337 1.433 . S
C3336 C3332 1.350 . S
C3336 C3333 1.463 1_565 S
C3336 N3340 1.427 . S
C3337 H3327 0.929 . S
C3337 C3335 1.433 . S
C3337 N3340 1.384 . S
C3338 H3329 0.929 . S
C3338 C3330 1.378 . S
C3338 C3333 1.350 . S
C3339 H3326 0.929 . S
C3339 C3331 1.433 . S
C3339 N3341 1.384 . S
N3340 C3336 1.427 . S
N3340 C3337 1.384 . S
N3341 C3333 1.427 . S
N3341 C3339 1.384 . S
H3342 C3348 0.930 . S
H3343 C3352 0.930 . S
H3344 C3357 0.929 . S
H3345 C3355 0.929 . S
H3346 C3350 0.929 . S
H3347 C3356 0.929 . S
C3348 H3342 0.930 . S
C3348 C3349 1.367 . S
C3348 C3356 1.378 . S
C3349 C3348 1.367 . S
C3349 C3357 1.433 . S
C3350 H3346 0.929 . S
C3350 C3352 1.378 . S
C3350 C3354 1.350 . S
C3351 C3354 1.463 1_655 S
C3351 C3356 1.350 . S
C3351 N3359 1.427 . S
C3352 H3343 0.930 . S
C3352 C3350 1.378 . S
C3352 C3353 1.367 . S
C3353 C3352 1.367 . S
C3353 C3355 1.433 . S
C3354 C3350 1.350 . S
C3354 C3351 1.463 1_455 S
C3354 N3358 1.427 . S
C3355 H3345 0.929 . S
C3355 C3353 1.433 . S
C3355 N3358 1.384 . S
C3356 H3347 0.929 . S
C3356 C3348 1.378 . S
C3356 C3351 1.350 . S
C3357 H3344 0.929 . S
C3357 C3349 1.433 . S
C3357 N3359 1.384 . S
N3358 C3354 1.427 . S
N3358 C3355 1.384 . S
N3359 C3351 1.427 . S
N3359 C3357 1.384 . S
H3360 C3366 0.930 . S
H3361 C3370 0.930 . S
H3362 C3375 0.929 . S
H3363 C3373 0.929 . S
H3364 C3368 0.929 . S
H3365 C3374 0.929 . S
C3366 H3360 0.930 . S
C3366 C3367 1.367 . S
C3366 C3374 1.378 . S
C3367 C3366 1.367 . S
C3367 C3375 1.433 . S
C3368 H3364 0.929 . S
C3368 C3370 1.378 . S
C3368 C3372 1.350 . S
C3369 C3372 1.463 1_554 S
C3369 C3374 1.350 . S
C3369 N3377 1.427 . S
C3370 H3361 0.930 . S
C3370 C3368 1.378 . S
C3370 C3371 1.367 . S
C3371 C3370 1.367 . S
C3371 C3373 1.433 . S
C3372 C3368 1.350 . S
C3372 C3369 1.463 1_556 S
C3372 N3376 1.427 . S
C3373 H3363 0.929 . S
C3373 C3371 1.433 . S
C3373 N3376 1.384 . S
C3374 H3365 0.929 . S
C3374 C3366 1.378 . S
C3374 C3369 1.350 . S
C3375 H3362 0.929 . S
C3375 C3367 1.433 . S
C3375 N3377 1.384 . S
N3376 C3372 1.427 . S
N3376 C3373 1.384 . S
N3377 C3369 1.427 . S
N3377 C3375 1.384 . S
H3378 C3384 0.930 . S
H3379 C3388 0.930 . S
H3380 C3393 0.929 . S
H3381 C3391 0.929 . S
H3382 C3386 0.929 . S
H3383 C3392 0.929 . S
C3384 H3378 0.930 . S
C3384 C3385 1.367 . S
C3384 C3392 1.378 . S
C3385 C3384 1.367 . S
C3385 C3393 1.433 . S
C3386 H3382 0.929 . S
C3386 C3388 1.378 . S
C3386 C3390 1.350 . S
C3387 C3390 1.463 1_556 S
C3387 C3392 1.350 . S
C3387 N3395 1.427 . S
C3388 H3379 0.930 . S
C3388 C3386 1.378 . S
C3388 C3389 1.367 . S
C3389 C3388 1.367 . S
C3389 C3391 1.433 . S
C3390 C3386 1.350 . S
C3390 C3387 1.463 1_554 S
C3390 N3394 1.427 . S
C3391 H3381 0.929 . S
C3391 C3389 1.433 . S
C3391 N3394 1.384 . S
C3392 H3383 0.929 . S
C3392 C3384 1.378 . S
C3392 C3387 1.350 . S
C3393 H3380 0.929 . S
C3393 C3385 1.433 . S
C3393 N3395 1.384 . S
N3394 C3390 1.427 . S
N3394 C3391 1.384 . S
N3395 C3387 1.427 . S
N3395 C3393 1.384 . S
H3396 C3402 0.930 . S
H3397 C3406 0.930 . S
H3398 C3411 0.929 . S
H3399 C3409 0.929 . S
H3400 C3404 0.929 . S
H3401 C3410 0.929 . S
C3402 H3396 0.930 . S
C3402 C3403 1.367 . S
C3402 C3410 1.378 . S
C3403 C3402 1.367 . S
C3403 C3411 1.433 . S
C3404 H3400 0.929 . S
C3404 C3406 1.378 . S
C3404 C3408 1.350 . S
C3405 C3408 1.463 1_554 S
C3405 C3410 1.350 . S
C3405 N3413 1.427 . S
C3406 H3397 0.930 . S
C3406 C3404 1.378 . S
C3406 C3407 1.367 . S
C3407 C3406 1.367 . S
C3407 C3409 1.433 . S
C3408 C3404 1.350 . S
C3408 C3405 1.463 1_556 S
C3408 N3412 1.427 . S
C3409 H3399 0.929 . S
C3409 C3407 1.433 . S
C3409 N3412 1.384 . S
C3410 H3401 0.929 . S
C3410 C3402 1.378 . S
C3410 C3405 1.350 . S
C3411 H3398 0.929 . S
C3411 C3403 1.433 . S
C3411 N3413 1.384 . S
N3412 C3408 1.427 . S
N3412 C3409 1.384 . S
N3413 C3405 1.427 . S
N3413 C3411 1.384 . S
H3414 C3420 0.930 . S
H3415 C3424 0.930 . S
H3416 C3429 0.929 . S
H3417 C3427 0.929 . S
H3418 C3422 0.929 . S
H3419 C3428 0.929 . S
C3420 H3414 0.930 . S
C3420 C3421 1.367 . S
C3420 C3428 1.378 . S
C3421 C3420 1.367 . S
C3421 C3429 1.433 . S
C3422 H3418 0.929 . S
C3422 C3424 1.378 . S
C3422 C3426 1.350 . S
C3423 C3426 1.463 1_556 S
C3423 C3428 1.350 . S
C3423 N3431 1.427 . S
C3424 H3415 0.930 . S
C3424 C3422 1.378 . S
C3424 C3425 1.367 . S
C3425 C3424 1.367 . S
C3425 C3427 1.433 . S
C3426 C3422 1.350 . S
C3426 C3423 1.463 1_554 S
C3426 N3430 1.427 . S
C3427 H3417 0.929 . S
C3427 C3425 1.433 . S
C3427 N3430 1.384 . S
C3428 H3419 0.929 . S
C3428 C3420 1.378 . S
C3428 C3423 1.350 . S
C3429 H3416 0.929 . S
C3429 C3421 1.433 . S
C3429 N3431 1.384 . S
N3430 C3426 1.427 . S
N3430 C3427 1.384 . S
N3431 C3423 1.427 . S
N3431 C3429 1.384 . S
H3432 C3438 0.930 . S
H3433 C3442 0.930 . S
H3434 C3447 0.929 . S
H3435 C3445 0.929 . S
H3436 C3440 0.929 . S
H3437 C3446 0.929 . S
C3438 H3432 0.930 . S
C3438 C3439 1.367 . S
C3438 C3446 1.378 . S
C3439 C3438 1.367 . S
C3439 C3447 1.433 . S
C3440 H3436 0.929 . S
C3440 C3442 1.378 . S
C3440 C3444 1.350 . S
C3441 C3444 1.463 1_554 S
C3441 C3446 1.350 . S
C3441 N3449 1.427 . S
C3442 H3433 0.930 . S
C3442 C3440 1.378 . S
C3442 C3443 1.367 . S
C3443 C3442 1.367 . S
C3443 C3445 1.433 . S
C3444 C3440 1.350 . S
C3444 C3441 1.463 1_556 S
C3444 N3448 1.427 . S
C3445 H3435 0.929 . S
C3445 C3443 1.433 . S
C3445 N3448 1.384 . S
C3446 H3437 0.929 . S
C3446 C3438 1.378 . S
C3446 C3441 1.350 . S
C3447 H3434 0.929 . S
C3447 C3439 1.433 . S
C3447 N3449 1.384 . S
N3448 C3444 1.427 . S
N3448 C3445 1.384 . S
N3449 C3441 1.427 . S
N3449 C3447 1.384 . S
H3450 C3456 0.930 . S
H3451 C3460 0.930 . S
H3452 C3465 0.929 . S
H3453 C3463 0.929 . S
H3454 C3458 0.929 . S
H3455 C3464 0.929 . S
C3456 H3450 0.930 . S
C3456 C3457 1.367 . S
C3456 C3464 1.378 . S
C3457 C3456 1.367 . S
C3457 C3465 1.433 . S
C3458 H3454 0.929 . S
C3458 C3460 1.378 . S
C3458 C3462 1.350 . S
C3459 C3462 1.463 1_554 S
C3459 C3464 1.350 . S
C3459 N3467 1.427 . S
C3460 H3451 0.930 . S
C3460 C3458 1.378 . S
C3460 C3461 1.367 . S
C3461 C3460 1.367 . S
C3461 C3463 1.433 . S
C3462 C3458 1.350 . S
C3462 C3459 1.463 1_556 S
C3462 N3466 1.427 . S
C3463 H3453 0.929 . S
C3463 C3461 1.433 . S
C3463 N3466 1.384 . S
C3464 H3455 0.929 . S
C3464 C3456 1.378 . S
C3464 C3459 1.350 . S
C3465 H3452 0.929 . S
C3465 C3457 1.433 . S
C3465 N3467 1.384 . S
N3466 C3462 1.427 . S
N3466 C3463 1.384 . S
N3467 C3459 1.427 . S
N3467 C3465 1.384 . S
H3468 C3474 0.930 . S
H3469 C3478 0.930 . S
H3470 C3483 0.929 . S
H3471 C3481 0.929 . S
H3472 C3476 0.929 . S
H3473 C3482 0.929 . S
C3474 H3468 0.930 . S
C3474 C3475 1.367 . S
C3474 C3482 1.378 . S
C3475 C3474 1.367 . S
C3475 C3483 1.433 . S
C3476 H3472 0.929 . S
C3476 C3478 1.378 . S
C3476 C3480 1.350 . S
C3477 C3480 1.463 1_554 S
C3477 C3482 1.350 . S
C3477 N3485 1.427 . S
C3478 H3469 0.930 . S
C3478 C3476 1.378 . S
C3478 C3479 1.367 . S
C3479 C3478 1.367 . S
C3479 C3481 1.433 . S
C3480 C3476 1.350 . S
C3480 C3477 1.463 1_556 S
C3480 N3484 1.427 . S
C3481 H3471 0.929 . S
C3481 C3479 1.433 . S
C3481 N3484 1.384 . S
C3482 H3473 0.929 . S
C3482 C3474 1.378 . S
C3482 C3477 1.350 . S
C3483 H3470 0.929 . S
C3483 C3475 1.433 . S
C3483 N3485 1.384 . S
N3484 C3480 1.427 . S
N3484 C3481 1.384 . S
N3485 C3477 1.427 . S
N3485 C3483 1.384 . S
H3486 C3492 0.930 . S
H3487 C3496 0.930 . S
H3488 C3501 0.929 . S
H3489 C3499 0.929 . S
H3490 C3494 0.929 . S
H3491 C3500 0.929 . S
C3492 H3486 0.930 . S
C3492 C3493 1.367 . S
C3492 C3500 1.378 . S
C3493 C3492 1.367 . S
C3493 C3501 1.433 . S
C3494 H3490 0.929 . S
C3494 C3496 1.378 . S
C3494 C3498 1.350 . S
C3495 C3498 1.463 1_556 S
C3495 C3500 1.350 . S
C3495 N3503 1.427 . S
C3496 H3487 0.930 . S
C3496 C3494 1.378 . S
C3496 C3497 1.367 . S
C3497 C3496 1.367 . S
C3497 C3499 1.433 . S
C3498 C3494 1.350 . S
C3498 C3495 1.463 1_554 S
C3498 N3502 1.427 . S
C3499 H3489 0.929 . S
C3499 C3497 1.433 . S
C3499 N3502 1.384 . S
C3500 H3491 0.929 . S
C3500 C3492 1.378 . S
C3500 C3495 1.350 . S
C3501 H3488 0.929 . S
C3501 C3493 1.433 . S
C3501 N3503 1.384 . S
N3502 C3498 1.427 . S
N3502 C3499 1.384 . S
N3503 C3495 1.427 . S
N3503 C3501 1.384 . S
H3504 C3510 0.930 . S
H3505 C3514 0.930 . S
H3506 C3519 0.929 . S
H3507 C3517 0.929 . S
H3508 C3512 0.929 . S
H3509 C3518 0.929 . S
C3510 H3504 0.930 . S
C3510 C3511 1.367 . S
C3510 C3518 1.378 . S
C3511 C3510 1.367 . S
C3511 C3519 1.433 . S
C3512 H3508 0.929 . S
C3512 C3514 1.378 . S
C3512 C3516 1.350 . S
C3513 C3516 1.463 . S
C3513 C3518 1.350 . S
C3513 N3521 1.427 . S
C3514 H3505 0.930 . S
C3514 C3512 1.378 . S
C3514 C3515 1.367 . S
C3515 C3514 1.367 . S
C3515 C3517 1.433 . S
C3516 C3512 1.350 . S
C3516 C3513 1.463 . S
C3516 N3520 1.427 . S
C3517 H3507 0.929 . S
C3517 C3515 1.433 . S
C3517 N3520 1.384 . S
C3518 H3509 0.929 . S
C3518 C3510 1.378 . S
C3518 C3513 1.350 . S
C3519 H3506 0.929 . S
C3519 C3511 1.433 . S
C3519 N3521 1.384 . S
N3520 C3516 1.427 . S
N3520 C3517 1.384 . S
N3521 C3513 1.427 . S
N3521 C3519 1.384 . S
H3522 C3528 0.930 . S
H3523 C3532 0.930 . S
H3524 C3537 0.929 . S
H3525 C3535 0.929 . S
H3526 C3530 0.929 . S
H3527 C3536 0.929 . S
C3528 H3522 0.930 . S
C3528 C3529 1.367 . S
C3528 C3536 1.378 . S
C3529 C3528 1.367 . S
C3529 C3537 1.433 . S
C3530 H3526 0.929 . S
C3530 C3532 1.378 . S
C3530 C3534 1.350 . S
C3531 C3534 1.463 . S
C3531 C3536 1.350 . S
C3531 N3539 1.427 . S
C3532 H3523 0.930 . S
C3532 C3530 1.378 . S
C3532 C3533 1.367 . S
C3533 C3532 1.367 . S
C3533 C3535 1.433 . S
C3534 C3530 1.350 . S
C3534 C3531 1.463 . S
C3534 N3538 1.427 . S
C3535 H3525 0.929 . S
C3535 C3533 1.433 . S
C3535 N3538 1.384 . S
C3536 H3527 0.929 . S
C3536 C3528 1.378 . S
C3536 C3531 1.350 . S
C3537 H3524 0.929 . S
C3537 C3529 1.433 . S
C3537 N3539 1.384 . S
N3538 C3534 1.427 . S
N3538 C3535 1.384 . S
N3539 C3531 1.427 . S
N3539 C3537 1.384 . S
H3540 C3546 0.930 . S
H3541 C3550 0.930 . S
H3542 C3555 0.929 . S
H3543 C3553 0.929 . S
H3544 C3548 0.929 . S
H3545 C3554 0.929 . S
C3546 H3540 0.930 . S
C3546 C3547 1.367 . S
C3546 C3554 1.378 . S
C3547 C3546 1.367 . S
C3547 C3555 1.433 . S
C3548 H3544 0.929 . S
C3548 C3550 1.378 . S
C3548 C3552 1.350 . S
C3549 C3552 1.463 . S
C3549 C3554 1.350 . S
C3549 N3557 1.427 . S
C3550 H3541 0.930 . S
C3550 C3548 1.378 . S
C3550 C3551 1.367 . S
C3551 C3550 1.367 . S
C3551 C3553 1.433 . S
C3552 C3548 1.350 . S
C3552 C3549 1.463 . S
C3552 N3556 1.427 . S
C3553 H3543 0.929 . S
C3553 C3551 1.433 . S
C3553 N3556 1.384 . S
C3554 H3545 0.929 . S
C3554 C3546 1.378 . S
C3554 C3549 1.350 . S
C3555 H3542 0.929 . S
C3555 C3547 1.433 . S
C3555 N3557 1.384 . S
N3556 C3552 1.427 . S
N3556 C3553 1.384 . S
N3557 C3549 1.427 . S
N3557 C3555 1.384 . S
H3558 C3564 0.930 . S
H3559 C3568 0.930 . S
H3560 C3573 0.929 . S
H3561 C3571 0.929 . S
H3562 C3566 0.929 . S
H3563 C3572 0.929 . S
C3564 H3558 0.930 . S
C3564 C3565 1.367 . S
C3564 C3572 1.378 . S
C3565 C3564 1.367 . S
C3565 C3573 1.433 . S
C3566 H3562 0.929 . S
C3566 C3568 1.378 . S
C3566 C3570 1.350 . S
C3567 C3570 1.463 . S
C3567 C3572 1.350 . S
C3567 N3575 1.427 . S
C3568 H3559 0.930 . S
C3568 C3566 1.378 . S
C3568 C3569 1.367 . S
C3569 C3568 1.367 . S
C3569 C3571 1.433 . S
C3570 C3566 1.350 . S
C3570 C3567 1.463 . S
C3570 N3574 1.427 . S
C3571 H3561 0.929 . S
C3571 C3569 1.433 . S
C3571 N3574 1.384 . S
C3572 H3563 0.929 . S
C3572 C3564 1.378 . S
C3572 C3567 1.350 . S
C3573 H3560 0.929 . S
C3573 C3565 1.433 . S
C3573 N3575 1.384 . S
N3574 C3570 1.427 . S
N3574 C3571 1.384 . S
N3575 C3567 1.427 . S
N3575 C3573 1.384 . S
H3576 C3582 0.930 . S
H3577 C3586 0.930 . S
H3578 C3591 0.929 . S
H3579 C3589 0.929 . S
H3580 C3584 0.929 . S
H3581 C3590 0.929 . S
C3582 H3576 0.930 . S
C3582 C3583 1.367 . S
C3582 C3590 1.378 . S
C3583 C3582 1.367 . S
C3583 C3591 1.433 . S
C3584 H3580 0.929 . S
C3584 C3586 1.378 . S
C3584 C3588 1.350 . S
C3585 C3588 1.463 . S
C3585 C3590 1.350 . S
C3585 N3593 1.427 . S
C3586 H3577 0.930 . S
C3586 C3584 1.378 . S
C3586 C3587 1.367 . S
C3587 C3586 1.367 . S
C3587 C3589 1.433 . S
C3588 C3584 1.350 . S
C3588 C3585 1.463 . S
C3588 N3592 1.427 . S
C3589 H3579 0.929 . S
C3589 C3587 1.433 . S
C3589 N3592 1.384 . S
C3590 H3581 0.929 . S
C3590 C3582 1.378 . S
C3590 C3585 1.350 . S
C3591 H3578 0.929 . S
C3591 C3583 1.433 . S
C3591 N3593 1.384 . S
N3592 C3588 1.427 . S
N3592 C3589 1.384 . S
N3593 C3585 1.427 . S
N3593 C3591 1.384 . S
H3594 C3600 0.930 . S
H3595 C3604 0.930 . S
H3596 C3609 0.929 . S
H3597 C3607 0.929 . S
H3598 C3602 0.929 . S
H3599 C3608 0.929 . S
C3600 H3594 0.930 . S
C3600 C3601 1.367 . S
C3600 C3608 1.378 . S
C3601 C3600 1.367 . S
C3601 C3609 1.433 . S
C3602 H3598 0.929 . S
C3602 C3604 1.378 . S
C3602 C3606 1.350 . S
C3603 C3606 1.463 . S
C3603 C3608 1.350 . S
C3603 N3611 1.427 . S
C3604 H3595 0.930 . S
C3604 C3602 1.378 . S
C3604 C3605 1.367 . S
C3605 C3604 1.367 . S
C3605 C3607 1.433 . S
C3606 C3602 1.350 . S
C3606 C3603 1.463 . S
C3606 N3610 1.427 . S
C3607 H3597 0.929 . S
C3607 C3605 1.433 . S
C3607 N3610 1.384 . S
C3608 H3599 0.929 . S
C3608 C3600 1.378 . S
C3608 C3603 1.350 . S
C3609 H3596 0.929 . S
C3609 C3601 1.433 . S
C3609 N3611 1.384 . S
N3610 C3606 1.427 . S
N3610 C3607 1.384 . S
N3611 C3603 1.427 . S
N3611 C3609 1.384 . S
H3612 C3618 0.930 . S
H3613 C3622 0.930 . S
H3614 C3627 0.929 . S
H3615 C3625 0.929 . S
H3616 C3620 0.929 . S
H3617 C3626 0.929 . S
C3618 H3612 0.930 . S
C3618 C3619 1.367 . S
C3618 C3626 1.378 . S
C3619 C3618 1.367 . S
C3619 C3627 1.433 . S
C3620 H3616 0.929 . S
C3620 C3622 1.378 . S
C3620 C3624 1.350 . S
C3621 C3624 1.463 . S
C3621 C3626 1.350 . S
C3621 N3629 1.427 . S
C3622 H3613 0.930 . S
C3622 C3620 1.378 . S
C3622 C3623 1.367 . S
C3623 C3622 1.367 . S
C3623 C3625 1.433 . S
C3624 C3620 1.350 . S
C3624 C3621 1.463 . S
C3624 N3628 1.427 . S
C3625 H3615 0.929 . S
C3625 C3623 1.433 . S
C3625 N3628 1.384 . S
C3626 H3617 0.929 . S
C3626 C3618 1.378 . S
C3626 C3621 1.350 . S
C3627 H3614 0.929 . S
C3627 C3619 1.433 . S
C3627 N3629 1.384 . S
N3628 C3624 1.427 . S
N3628 C3625 1.384 . S
N3629 C3621 1.427 . S
N3629 C3627 1.384 . S
H3630 C3636 0.930 . S
H3631 C3640 0.930 . S
H3632 C3645 0.929 . S
H3633 C3643 0.929 . S
H3634 C3638 0.929 . S
H3635 C3644 0.929 . S
C3636 H3630 0.930 . S
C3636 C3637 1.367 . S
C3636 C3644 1.378 . S
C3637 C3636 1.367 . S
C3637 C3645 1.433 . S
C3638 H3634 0.929 . S
C3638 C3640 1.378 . S
C3638 C3642 1.350 . S
C3639 C3642 1.463 . S
C3639 C3644 1.350 . S
C3639 N3647 1.427 . S
C3640 H3631 0.930 . S
C3640 C3638 1.378 . S
C3640 C3641 1.367 . S
C3641 C3640 1.367 . S
C3641 C3643 1.433 . S
C3642 C3638 1.350 . S
C3642 C3639 1.463 . S
C3642 N3646 1.427 . S
C3643 H3633 0.929 . S
C3643 C3641 1.433 . S
C3643 N3646 1.384 . S
C3644 H3635 0.929 . S
C3644 C3636 1.378 . S
C3644 C3639 1.350 . S
C3645 H3632 0.929 . S
C3645 C3637 1.433 . S
C3645 N3647 1.384 . S
N3646 C3642 1.427 . S
N3646 C3643 1.384 . S
N3647 C3639 1.427 . S
N3647 C3645 1.384 . S
H3648 C3654 0.930 . S
H3649 C3658 0.930 . S
H3650 C3663 0.929 . S
H3651 C3661 0.929 . S
H3652 C3656 0.929 . S
H3653 C3662 0.929 . S
C3654 H3648 0.930 . S
C3654 C3655 1.367 . S
C3654 C3662 1.378 . S
C3655 C3654 1.367 . S
C3655 C3663 1.433 . S
C3656 H3652 0.929 . S
C3656 C3658 1.378 . S
C3656 C3660 1.350 . S
C3657 C3660 1.463 . S
C3657 C3662 1.350 . S
C3657 N3665 1.427 . S
C3658 H3649 0.930 . S
C3658 C3656 1.378 . S
C3658 C3659 1.367 . S
C3659 C3658 1.367 . S
C3659 C3661 1.433 . S
C3660 C3656 1.350 . S
C3660 C3657 1.463 . S
C3660 N3664 1.427 . S
C3661 H3651 0.929 . S
C3661 C3659 1.433 . S
C3661 N3664 1.384 . S
C3662 H3653 0.929 . S
C3662 C3654 1.378 . S
C3662 C3657 1.350 . S
C3663 H3650 0.929 . S
C3663 C3655 1.433 . S
C3663 N3665 1.384 . S
N3664 C3660 1.427 . S
N3664 C3661 1.384 . S
N3665 C3657 1.427 . S
N3665 C3663 1.384 . S
H3666 C3672 0.930 . S
H3667 C3676 0.930 . S
H3668 C3681 0.929 . S
H3669 C3679 0.929 . S
H3670 C3674 0.929 . S
H3671 C3680 0.929 . S
C3672 H3666 0.930 . S
C3672 C3673 1.367 . S
C3672 C3680 1.378 . S
C3673 C3672 1.367 . S
C3673 C3681 1.433 . S
C3674 H3670 0.929 . S
C3674 C3676 1.378 . S
C3674 C3678 1.350 . S
C3675 C3678 1.463 . S
C3675 C3680 1.350 . S
C3675 N3683 1.427 . S
C3676 H3667 0.930 . S
C3676 C3674 1.378 . S
C3676 C3677 1.367 . S
C3677 C3676 1.367 . S
C3677 C3679 1.433 . S
C3678 C3674 1.350 . S
C3678 C3675 1.463 . S
C3678 N3682 1.427 . S
C3679 H3669 0.929 . S
C3679 C3677 1.433 . S
C3679 N3682 1.384 . S
C3680 H3671 0.929 . S
C3680 C3672 1.378 . S
C3680 C3675 1.350 . S
C3681 H3668 0.929 . S
C3681 C3673 1.433 . S
C3681 N3683 1.384 . S
N3682 C3678 1.427 . S
N3682 C3679 1.384 . S
N3683 C3675 1.427 . S
N3683 C3681 1.384 . S
H3684 C3690 0.930 . S
H3685 C3694 0.930 . S
H3686 C3699 0.929 . S
H3687 C3697 0.929 . S
H3688 C3692 0.929 . S
H3689 C3698 0.929 . S
C3690 H3684 0.930 . S
C3690 C3691 1.367 . S
C3690 C3698 1.378 . S
C3691 C3690 1.367 . S
C3691 C3699 1.433 . S
C3692 H3688 0.929 . S
C3692 C3694 1.378 . S
C3692 C3696 1.350 . S
C3693 C3696 1.463 . S
C3693 C3698 1.350 . S
C3693 N3701 1.427 . S
C3694 H3685 0.930 . S
C3694 C3692 1.378 . S
C3694 C3695 1.367 . S
C3695 C3694 1.367 . S
C3695 C3697 1.433 . S
C3696 C3692 1.350 . S
C3696 C3693 1.463 . S
C3696 N3700 1.427 . S
C3697 H3687 0.929 . S
C3697 C3695 1.433 . S
C3697 N3700 1.384 . S
C3698 H3689 0.929 . S
C3698 C3690 1.378 . S
C3698 C3693 1.350 . S
C3699 H3686 0.929 . S
C3699 C3691 1.433 . S
C3699 N3701 1.384 . S
N3700 C3696 1.427 . S
N3700 C3697 1.384 . S
N3701 C3693 1.427 . S
N3701 C3699 1.384 . S
H3702 C3708 0.930 . S
H3703 C3712 0.930 . S
H3704 C3717 0.929 . S
H3705 C3715 0.929 . S
H3706 C3710 0.929 . S
H3707 C3716 0.929 . S
C3708 H3702 0.930 . S
C3708 C3709 1.367 . S
C3708 C3716 1.378 . S
C3709 C3708 1.367 . S
C3709 C3717 1.433 . S
C3710 H3706 0.929 . S
C3710 C3712 1.378 . S
C3710 C3714 1.350 . S
C3711 C3714 1.463 . S
C3711 C3716 1.350 . S
C3711 N3719 1.427 . S
C3712 H3703 0.930 . S
C3712 C3710 1.378 . S
C3712 C3713 1.367 . S
C3713 C3712 1.367 . S
C3713 C3715 1.433 . S
C3714 C3710 1.350 . S
C3714 C3711 1.463 . S
C3714 N3718 1.427 . S
C3715 H3705 0.929 . S
C3715 C3713 1.433 . S
C3715 N3718 1.384 . S
C3716 H3707 0.929 . S
C3716 C3708 1.378 . S
C3716 C3711 1.350 . S
C3717 H3704 0.929 . S
C3717 C3709 1.433 . S
C3717 N3719 1.384 . S
N3718 C3714 1.427 . S
N3718 C3715 1.384 . S
N3719 C3711 1.427 . S
N3719 C3717 1.384 . S
H3720 C3726 0.930 . S
H3721 C3730 0.930 . S
H3722 C3735 0.929 . S
H3723 C3733 0.929 . S
H3724 C3728 0.929 . S
H3725 C3734 0.929 . S
C3726 H3720 0.930 . S
C3726 C3727 1.367 . S
C3726 C3734 1.378 . S
C3727 C3726 1.367 . S
C3727 C3735 1.433 . S
C3728 H3724 0.929 . S
C3728 C3730 1.378 . S
C3728 C3732 1.350 . S
C3729 C3732 1.463 . S
C3729 C3734 1.350 . S
C3729 N3737 1.427 . S
C3730 H3721 0.930 . S
C3730 C3728 1.378 . S
C3730 C3731 1.367 . S
C3731 C3730 1.367 . S
C3731 C3733 1.433 . S
C3732 C3728 1.350 . S
C3732 C3729 1.463 . S
C3732 N3736 1.427 . S
C3733 H3723 0.929 . S
C3733 C3731 1.433 . S
C3733 N3736 1.384 . S
C3734 H3725 0.929 . S
C3734 C3726 1.378 . S
C3734 C3729 1.350 . S
C3735 H3722 0.929 . S
C3735 C3727 1.433 . S
C3735 N3737 1.384 . S
N3736 C3732 1.427 . S
N3736 C3733 1.384 . S
N3737 C3729 1.427 . S
N3737 C3735 1.384 . S
H3738 C3744 0.930 . S
H3739 C3748 0.930 . S
H3740 C3753 0.929 . S
H3741 C3751 0.929 . S
H3742 C3746 0.929 . S
H3743 C3752 0.929 . S
C3744 H3738 0.930 . S
C3744 C3745 1.367 . S
C3744 C3752 1.378 . S
C3745 C3744 1.367 . S
C3745 C3753 1.433 . S
C3746 H3742 0.929 . S
C3746 C3748 1.378 . S
C3746 C3750 1.350 . S
C3747 C3750 1.463 . S
C3747 C3752 1.350 . S
C3747 N3755 1.427 . S
C3748 H3739 0.930 . S
C3748 C3746 1.378 . S
C3748 C3749 1.367 . S
C3749 C3748 1.367 . S
C3749 C3751 1.433 . S
C3750 C3746 1.350 . S
C3750 C3747 1.463 . S
C3750 N3754 1.427 . S
C3751 H3741 0.929 . S
C3751 C3749 1.433 . S
C3751 N3754 1.384 . S
C3752 H3743 0.929 . S
C3752 C3744 1.378 . S
C3752 C3747 1.350 . S
C3753 H3740 0.929 . S
C3753 C3745 1.433 . S
C3753 N3755 1.384 . S
N3754 C3750 1.427 . S
N3754 C3751 1.384 . S
N3755 C3747 1.427 . S
N3755 C3753 1.384 . S
H3756 C3762 0.930 . S
H3757 C3766 0.930 . S
H3758 C3771 0.929 . S
H3759 C3769 0.929 . S
H3760 C3764 0.929 . S
H3761 C3770 0.929 . S
C3762 H3756 0.930 . S
C3762 C3763 1.367 . S
C3762 C3770 1.378 . S
C3763 C3762 1.367 . S
C3763 C3771 1.433 . S
C3764 H3760 0.929 . S
C3764 C3766 1.378 . S
C3764 C3768 1.350 . S
C3765 C3768 1.463 . S
C3765 C3770 1.350 . S
C3765 N3773 1.427 . S
C3766 H3757 0.930 . S
C3766 C3764 1.378 . S
C3766 C3767 1.367 . S
C3767 C3766 1.367 . S
C3767 C3769 1.433 . S
C3768 C3764 1.350 . S
C3768 C3765 1.463 . S
C3768 N3772 1.427 . S
C3769 H3759 0.929 . S
C3769 C3767 1.433 . S
C3769 N3772 1.384 . S
C3770 H3761 0.929 . S
C3770 C3762 1.378 . S
C3770 C3765 1.350 . S
C3771 H3758 0.929 . S
C3771 C3763 1.433 . S
C3771 N3773 1.384 . S
N3772 C3768 1.427 . S
N3772 C3769 1.384 . S
N3773 C3765 1.427 . S
N3773 C3771 1.384 . S
H3774 C3780 0.930 . S
H3775 C3784 0.930 . S
H3776 C3789 0.929 . S
H3777 C3787 0.929 . S
H3778 C3782 0.929 . S
H3779 C3788 0.929 . S
C3780 H3774 0.930 . S
C3780 C3781 1.367 . S
C3780 C3788 1.378 . S
C3781 C3780 1.367 . S
C3781 C3789 1.433 . S
C3782 H3778 0.929 . S
C3782 C3784 1.378 . S
C3782 C3786 1.350 . S
C3783 C3786 1.463 . S
C3783 C3788 1.350 . S
C3783 N3791 1.427 . S
C3784 H3775 0.930 . S
C3784 C3782 1.378 . S
C3784 C3785 1.367 . S
C3785 C3784 1.367 . S
C3785 C3787 1.433 . S
C3786 C3782 1.350 . S
C3786 C3783 1.463 . S
C3786 N3790 1.427 . S
C3787 H3777 0.929 . S
C3787 C3785 1.433 . S
C3787 N3790 1.384 . S
C3788 H3779 0.929 . S
C3788 C3780 1.378 . S
C3788 C3783 1.350 . S
C3789 H3776 0.929 . S
C3789 C3781 1.433 . S
C3789 N3791 1.384 . S
N3790 C3786 1.427 . S
N3790 C3787 1.384 . S
N3791 C3783 1.427 . S
N3791 C3789 1.384 . S
H3792 C3798 0.930 . S
H3793 C3802 0.930 . S
H3794 C3807 0.929 . S
H3795 C3805 0.929 . S
H3796 C3800 0.929 . S
H3797 C3806 0.929 . S
C3798 H3792 0.930 . S
C3798 C3799 1.367 . S
C3798 C3806 1.378 . S
C3799 C3798 1.367 . S
C3799 C3807 1.433 . S
C3800 H3796 0.929 . S
C3800 C3802 1.378 . S
C3800 C3804 1.350 . S
C3801 C3804 1.463 . S
C3801 C3806 1.350 . S
C3801 N3809 1.427 . S
C3802 H3793 0.930 . S
C3802 C3800 1.378 . S
C3802 C3803 1.367 . S
C3803 C3802 1.367 . S
C3803 C3805 1.433 . S
C3804 C3800 1.350 . S
C3804 C3801 1.463 . S
C3804 N3808 1.427 . S
C3805 H3795 0.929 . S
C3805 C3803 1.433 . S
C3805 N3808 1.384 . S
C3806 H3797 0.929 . S
C3806 C3798 1.378 . S
C3806 C3801 1.350 . S
C3807 H3794 0.929 . S
C3807 C3799 1.433 . S
C3807 N3809 1.384 . S
N3808 C3804 1.427 . S
N3808 C3805 1.384 . S
N3809 C3801 1.427 . S
N3809 C3807 1.384 . S
H3810 C3816 0.930 . S
H3811 C3820 0.930 . S
H3812 C3825 0.929 . S
H3813 C3823 0.929 . S
H3814 C3818 0.929 . S
H3815 C3824 0.929 . S
C3816 H3810 0.930 . S
C3816 C3817 1.367 . S
C3816 C3824 1.378 . S
C3817 C3816 1.367 . S
C3817 C3825 1.433 . S
C3818 H3814 0.929 . S
C3818 C3820 1.378 . S
C3818 C3822 1.350 . S
C3819 C3822 1.463 . S
C3819 C3824 1.350 . S
C3819 N3827 1.427 . S
C3820 H3811 0.930 . S
C3820 C3818 1.378 . S
C3820 C3821 1.367 . S
C3821 C3820 1.367 . S
C3821 C3823 1.433 . S
C3822 C3818 1.350 . S
C3822 C3819 1.463 . S
C3822 N3826 1.427 . S
C3823 H3813 0.929 . S
C3823 C3821 1.433 . S
C3823 N3826 1.384 . S
C3824 H3815 0.929 . S
C3824 C3816 1.378 . S
C3824 C3819 1.350 . S
C3825 H3812 0.929 . S
C3825 C3817 1.433 . S
C3825 N3827 1.384 . S
N3826 C3822 1.427 . S
N3826 C3823 1.384 . S
N3827 C3819 1.427 . S
N3827 C3825 1.384 . S
H3828 C3834 0.930 . S
H3829 C3838 0.930 . S
H3830 C3843 0.929 . S
H3831 C3841 0.929 . S
H3832 C3836 0.929 . S
H3833 C3842 0.929 . S
C3834 H3828 0.930 . S
C3834 C3835 1.367 . S
C3834 C3842 1.378 . S
C3835 C3834 1.367 . S
C3835 C3843 1.433 . S
C3836 H3832 0.929 . S
C3836 C3838 1.378 . S
C3836 C3840 1.350 . S
C3837 C3840 1.463 . S
C3837 C3842 1.350 . S
C3837 N3845 1.427 . S
C3838 H3829 0.930 . S
C3838 C3836 1.378 . S
C3838 C3839 1.367 . S
C3839 C3838 1.367 . S
C3839 C3841 1.433 . S
C3840 C3836 1.350 . S
C3840 C3837 1.463 . S
C3840 N3844 1.427 . S
C3841 H3831 0.929 . S
C3841 C3839 1.433 . S
C3841 N3844 1.384 . S
C3842 H3833 0.929 . S
C3842 C3834 1.378 . S
C3842 C3837 1.350 . S
C3843 H3830 0.929 . S
C3843 C3835 1.433 . S
C3843 N3845 1.384 . S
N3844 C3840 1.427 . S
N3844 C3841 1.384 . S
N3845 C3837 1.427 . S
N3845 C3843 1.384 . S
H3846 C3852 0.930 . S
H3847 C3856 0.930 . S
H3848 C3861 0.929 . S
H3849 C3859 0.929 . S
H3850 C3854 0.929 . S
H3851 C3860 0.929 . S
C3852 H3846 0.930 . S
C3852 C3853 1.367 . S
C3852 C3860 1.378 . S
C3853 C3852 1.367 . S
C3853 C3861 1.433 . S
C3854 H3850 0.929 . S
C3854 C3856 1.378 . S
C3854 C3858 1.350 . S
C3855 C3858 1.463 . S
C3855 C3860 1.350 . S
C3855 N3863 1.427 . S
C3856 H3847 0.930 . S
C3856 C3854 1.378 . S
C3856 C3857 1.367 . S
C3857 C3856 1.367 . S
C3857 C3859 1.433 . S
C3858 C3854 1.350 . S
C3858 C3855 1.463 . S
C3858 N3862 1.427 . S
C3859 H3849 0.929 . S
C3859 C3857 1.433 . S
C3859 N3862 1.384 . S
C3860 H3851 0.929 . S
C3860 C3852 1.378 . S
C3860 C3855 1.350 . S
C3861 H3848 0.929 . S
C3861 C3853 1.433 . S
C3861 N3863 1.384 . S
N3862 C3858 1.427 . S
N3862 C3859 1.384 . S
N3863 C3855 1.427 . S
N3863 C3861 1.384 . S
H3864 C3870 0.930 . S
H3865 C3874 0.930 . S
H3866 C3879 0.929 . S
H3867 C3877 0.929 . S
H3868 C3872 0.929 . S
H3869 C3878 0.929 . S
C3870 H3864 0.930 . S
C3870 C3871 1.367 . S
C3870 C3878 1.378 . S
C3871 C3870 1.367 . S
C3871 C3879 1.433 . S
C3872 H3868 0.929 . S
C3872 C3874 1.378 . S
C3872 C3876 1.350 . S
C3873 C3876 1.463 . S
C3873 C3878 1.350 . S
C3873 N3881 1.427 . S
C3874 H3865 0.930 . S
C3874 C3872 1.378 . S
C3874 C3875 1.367 . S
C3875 C3874 1.367 . S
C3875 C3877 1.433 . S
C3876 C3872 1.350 . S
C3876 C3873 1.463 . S
C3876 N3880 1.427 . S
C3877 H3867 0.929 . S
C3877 C3875 1.433 . S
C3877 N3880 1.384 . S
C3878 H3869 0.929 . S
C3878 C3870 1.378 . S
C3878 C3873 1.350 . S
C3879 H3866 0.929 . S
C3879 C3871 1.433 . S
C3879 N3881 1.384 . S
N3880 C3876 1.427 . S
N3880 C3877 1.384 . S
N3881 C3873 1.427 . S
N3881 C3879 1.384 . S
H3882 C3888 0.930 . S
H3883 C3892 0.930 . S
H3884 C3897 0.929 . S
H3885 C3895 0.929 . S
H3886 C3890 0.929 . S
H3887 C3896 0.929 . S
C3888 H3882 0.930 . S
C3888 C3889 1.367 . S
C3888 C3896 1.378 . S
C3889 C3888 1.367 . S
C3889 C3897 1.433 . S
C3890 H3886 0.929 . S
C3890 C3892 1.378 . S
C3890 C3894 1.350 . S
C3891 C3894 1.463 . S
C3891 C3896 1.350 . S
C3891 N3899 1.427 . S
C3892 H3883 0.930 . S
C3892 C3890 1.378 . S
C3892 C3893 1.367 . S
C3893 C3892 1.367 . S
C3893 C3895 1.433 . S
C3894 C3890 1.350 . S
C3894 C3891 1.463 . S
C3894 N3898 1.427 . S
C3895 H3885 0.929 . S
C3895 C3893 1.433 . S
C3895 N3898 1.384 . S
C3896 H3887 0.929 . S
C3896 C3888 1.378 . S
C3896 C3891 1.350 . S
C3897 H3884 0.929 . S
C3897 C3889 1.433 . S
C3897 N3899 1.384 . S
N3898 C3894 1.427 . S
N3898 C3895 1.384 . S
N3899 C3891 1.427 . S
N3899 C3897 1.384 . S
H3900 C3906 0.930 . S
H3901 C3910 0.930 . S
H3902 C3915 0.929 . S
H3903 C3913 0.929 . S
H3904 C3908 0.929 . S
H3905 C3914 0.929 . S
C3906 H3900 0.930 . S
C3906 C3907 1.367 . S
C3906 C3914 1.378 . S
C3907 C3906 1.367 . S
C3907 C3915 1.433 . S
C3908 H3904 0.929 . S
C3908 C3910 1.378 . S
C3908 C3912 1.350 . S
C3909 C3912 1.463 . S
C3909 C3914 1.350 . S
C3909 N3917 1.427 . S
C3910 H3901 0.930 . S
C3910 C3908 1.378 . S
C3910 C3911 1.367 . S
C3911 C3910 1.367 . S
C3911 C3913 1.433 . S
C3912 C3908 1.350 . S
C3912 C3909 1.463 . S
C3912 N3916 1.427 . S
C3913 H3903 0.929 . S
C3913 C3911 1.433 . S
C3913 N3916 1.384 . S
C3914 H3905 0.929 . S
C3914 C3906 1.378 . S
C3914 C3909 1.350 . S
C3915 H3902 0.929 . S
C3915 C3907 1.433 . S
C3915 N3917 1.384 . S
N3916 C3912 1.427 . S
N3916 C3913 1.384 . S
N3917 C3909 1.427 . S
N3917 C3915 1.384 . S
H3918 C3924 0.930 . S
H3919 C3928 0.930 . S
H3920 C3933 0.929 . S
H3921 C3931 0.929 . S
H3922 C3926 0.929 . S
H3923 C3932 0.929 . S
C3924 H3918 0.930 . S
C3924 C3925 1.367 . S
C3924 C3932 1.378 . S
C3925 C3924 1.367 . S
C3925 C3933 1.433 . S
C3926 H3922 0.929 . S
C3926 C3928 1.378 . S
C3926 C3930 1.350 . S
C3927 C3930 1.463 . S
C3927 C3932 1.350 . S
C3927 N3935 1.427 . S
C3928 H3919 0.930 . S
C3928 C3926 1.378 . S
C3928 C3929 1.367 . S
C3929 C3928 1.367 . S
C3929 C3931 1.433 . S
C3930 C3926 1.350 . S
C3930 C3927 1.463 . S
C3930 N3934 1.427 . S
C3931 H3921 0.929 . S
C3931 C3929 1.433 . S
C3931 N3934 1.384 . S
C3932 H3923 0.929 . S
C3932 C3924 1.378 . S
C3932 C3927 1.350 . S
C3933 H3920 0.929 . S
C3933 C3925 1.433 . S
C3933 N3935 1.384 . S
N3934 C3930 1.427 . S
N3934 C3931 1.384 . S
N3935 C3927 1.427 . S
N3935 C3933 1.384 . S
H3936 C3942 0.930 . S
H3937 C3946 0.930 . S
H3938 C3951 0.929 . S
H3939 C3949 0.929 . S
H3940 C3944 0.929 . S
H3941 C3950 0.929 . S
C3942 H3936 0.930 . S
C3942 C3943 1.367 . S
C3942 C3950 1.378 . S
C3943 C3942 1.367 . S
C3943 C3951 1.433 . S
C3944 H3940 0.929 . S
C3944 C3946 1.378 . S
C3944 C3948 1.350 . S
C3945 C3948 1.463 . S
C3945 C3950 1.350 . S
C3945 N3953 1.427 . S
C3946 H3937 0.930 . S
C3946 C3944 1.378 . S
C3946 C3947 1.367 . S
C3947 C3946 1.367 . S
C3947 C3949 1.433 . S
C3948 C3944 1.350 . S
C3948 C3945 1.463 . S
C3948 N3952 1.427 . S
C3949 H3939 0.929 . S
C3949 C3947 1.433 . S
C3949 N3952 1.384 . S
C3950 H3941 0.929 . S
C3950 C3942 1.378 . S
C3950 C3945 1.350 . S
C3951 H3938 0.929 . S
C3951 C3943 1.433 . S
C3951 N3953 1.384 . S
N3952 C3948 1.427 . S
N3952 C3949 1.384 . S
N3953 C3945 1.427 . S
N3953 C3951 1.384 . S
H3954 C3960 0.930 . S
H3955 C3964 0.930 . S
H3956 C3969 0.929 . S
H3957 C3967 0.929 . S
H3958 C3962 0.929 . S
H3959 C3968 0.929 . S
C3960 H3954 0.930 . S
C3960 C3961 1.367 . S
C3960 C3968 1.378 . S
C3961 C3960 1.367 . S
C3961 C3969 1.433 . S
C3962 H3958 0.929 . S
C3962 C3964 1.378 . S
C3962 C3966 1.350 . S
C3963 C3966 1.463 . S
C3963 C3968 1.350 . S
C3963 N3971 1.427 . S
C3964 H3955 0.930 . S
C3964 C3962 1.378 . S
C3964 C3965 1.367 . S
C3965 C3964 1.367 . S
C3965 C3967 1.433 . S
C3966 C3962 1.350 . S
C3966 C3963 1.463 . S
C3966 N3970 1.427 . S
C3967 H3957 0.929 . S
C3967 C3965 1.433 . S
C3967 N3970 1.384 . S
C3968 H3959 0.929 . S
C3968 C3960 1.378 . S
C3968 C3963 1.350 . S
C3969 H3956 0.929 . S
C3969 C3961 1.433 . S
C3969 N3971 1.384 . S
N3970 C3966 1.427 . S
N3970 C3967 1.384 . S
N3971 C3963 1.427 . S
N3971 C3969 1.384 . S
H3972 C3978 0.930 . S
H3973 C3982 0.930 . S
H3974 C3987 0.929 . S
H3975 C3985 0.929 . S
H3976 C3980 0.929 . S
H3977 C3986 0.929 . S
C3978 H3972 0.930 . S
C3978 C3979 1.367 . S
C3978 C3986 1.378 . S
C3979 C3978 1.367 . S
C3979 C3987 1.433 . S
C3980 H3976 0.929 . S
C3980 C3982 1.378 . S
C3980 C3984 1.350 . S
C3981 C3984 1.463 . S
C3981 C3986 1.350 . S
C3981 N3989 1.427 . S
C3982 H3973 0.930 . S
C3982 C3980 1.378 . S
C3982 C3983 1.367 . S
C3983 C3982 1.367 . S
C3983 C3985 1.433 . S
C3984 C3980 1.350 . S
C3984 C3981 1.463 . S
C3984 N3988 1.427 . S
C3985 H3975 0.929 . S
C3985 C3983 1.433 . S
C3985 N3988 1.384 . S
C3986 H3977 0.929 . S
C3986 C3978 1.378 . S
C3986 C3981 1.350 . S
C3987 H3974 0.929 . S
C3987 C3979 1.433 . S
C3987 N3989 1.384 . S
N3988 C3984 1.427 . S
N3988 C3985 1.384 . S
N3989 C3981 1.427 . S
N3989 C3987 1.384 . S
H3990 C3996 0.930 . S
H3991 C4000 0.930 . S
H3992 C4005 0.929 . S
H3993 C4003 0.929 . S
H3994 C3998 0.929 . S
H3995 C4004 0.929 . S
C3996 H3990 0.930 . S
C3996 C3997 1.367 . S
C3996 C4004 1.378 . S
C3997 C3996 1.367 . S
C3997 C4005 1.433 . S
C3998 H3994 0.929 . S
C3998 C4000 1.378 . S
C3998 C4002 1.350 . S
C3999 C4002 1.463 . S
C3999 C4004 1.350 . S
C3999 N4007 1.427 . S
C4000 H3991 0.930 . S
C4000 C3998 1.378 . S
C4000 C4001 1.367 . S
C4001 C4000 1.367 . S
C4001 C4003 1.433 . S
C4002 C3998 1.350 . S
C4002 C3999 1.463 . S
C4002 N4006 1.427 . S
C4003 H3993 0.929 . S
C4003 C4001 1.433 . S
C4003 N4006 1.384 . S
C4004 H3995 0.929 . S
C4004 C3996 1.378 . S
C4004 C3999 1.350 . S
C4005 H3992 0.929 . S
C4005 C3997 1.433 . S
C4005 N4007 1.384 . S
N4006 C4002 1.427 . S
N4006 C4003 1.384 . S
N4007 C3999 1.427 . S
N4007 C4005 1.384 . S
H4008 C4014 0.930 . S
H4009 C4018 0.930 . S
H4010 C4023 0.929 . S
H4011 C4021 0.929 . S
H4012 C4016 0.929 . S
H4013 C4022 0.929 . S
C4014 H4008 0.930 . S
C4014 C4015 1.367 . S
C4014 C4022 1.378 . S
C4015 C4014 1.367 . S
C4015 C4023 1.433 . S
C4016 H4012 0.929 . S
C4016 C4018 1.378 . S
C4016 C4020 1.350 . S
C4017 C4020 1.463 . S
C4017 C4022 1.350 . S
C4017 N4025 1.427 . S
C4018 H4009 0.930 . S
C4018 C4016 1.378 . S
C4018 C4019 1.367 . S
C4019 C4018 1.367 . S
C4019 C4021 1.433 . S
C4020 C4016 1.350 . S
C4020 C4017 1.463 . S
C4020 N4024 1.427 . S
C4021 H4011 0.929 . S
C4021 C4019 1.433 . S
C4021 N4024 1.384 . S
C4022 H4013 0.929 . S
C4022 C4014 1.378 . S
C4022 C4017 1.350 . S
C4023 H4010 0.929 . S
C4023 C4015 1.433 . S
C4023 N4025 1.384 . S
N4024 C4020 1.427 . S
N4024 C4021 1.384 . S
N4025 C4017 1.427 . S
N4025 C4023 1.384 . S
H4026 C4032 0.930 . S
H4027 C4036 0.930 . S
H4028 C4041 0.929 . S
H4029 C4039 0.929 . S
H4030 C4034 0.929 . S
H4031 C4040 0.929 . S
C4032 H4026 0.930 . S
C4032 C4033 1.367 . S
C4032 C4040 1.378 . S
C4033 C4032 1.367 . S
C4033 C4041 1.433 . S
C4034 H4030 0.929 . S
C4034 C4036 1.378 . S
C4034 C4038 1.350 . S
C4035 C4038 1.463 . S
C4035 C4040 1.350 . S
C4035 N4043 1.427 . S
C4036 H4027 0.930 . S
C4036 C4034 1.378 . S
C4036 C4037 1.367 . S
C4037 C4036 1.367 . S
C4037 C4039 1.433 . S
C4038 C4034 1.350 . S
C4038 C4035 1.463 . S
C4038 N4042 1.427 . S
C4039 H4029 0.929 . S
C4039 C4037 1.433 . S
C4039 N4042 1.384 . S
C4040 H4031 0.929 . S
C4040 C4032 1.378 . S
C4040 C4035 1.350 . S
C4041 H4028 0.929 . S
C4041 C4033 1.433 . S
C4041 N4043 1.384 . S
N4042 C4038 1.427 . S
N4042 C4039 1.384 . S
N4043 C4035 1.427 . S
N4043 C4041 1.384 . S
H4044 C4050 0.930 . S
H4045 C4054 0.930 . S
H4046 C4059 0.929 . S
H4047 C4057 0.929 . S
H4048 C4052 0.929 . S
H4049 C4058 0.929 . S
C4050 H4044 0.930 . S
C4050 C4051 1.367 . S
C4050 C4058 1.378 . S
C4051 C4050 1.367 . S
C4051 C4059 1.433 . S
C4052 H4048 0.929 . S
C4052 C4054 1.378 . S
C4052 C4056 1.350 . S
C4053 C4056 1.463 . S
C4053 C4058 1.350 . S
C4053 N4061 1.427 . S
C4054 H4045 0.930 . S
C4054 C4052 1.378 . S
C4054 C4055 1.367 . S
C4055 C4054 1.367 . S
C4055 C4057 1.433 . S
C4056 C4052 1.350 . S
C4056 C4053 1.463 . S
C4056 N4060 1.427 . S
C4057 H4047 0.929 . S
C4057 C4055 1.433 . S
C4057 N4060 1.384 . S
C4058 H4049 0.929 . S
C4058 C4050 1.378 . S
C4058 C4053 1.350 . S
C4059 H4046 0.929 . S
C4059 C4051 1.433 . S
C4059 N4061 1.384 . S
N4060 C4056 1.427 . S
N4060 C4057 1.384 . S
N4061 C4053 1.427 . S
N4061 C4059 1.384 . S
H4062 C4068 0.930 . S
H4063 C4072 0.930 . S
H4064 C4077 0.929 . S
H4065 C4075 0.929 . S
H4066 C4070 0.929 . S
H4067 C4076 0.929 . S
C4068 H4062 0.930 . S
C4068 C4069 1.367 . S
C4068 C4076 1.378 . S
C4069 C4068 1.367 . S
C4069 C4077 1.433 . S
C4070 H4066 0.929 . S
C4070 C4072 1.378 . S
C4070 C4074 1.350 . S
C4071 C4074 1.463 . S
C4071 C4076 1.350 . S
C4071 N4079 1.427 . S
C4072 H4063 0.930 . S
C4072 C4070 1.378 . S
C4072 C4073 1.367 . S
C4073 C4072 1.367 . S
C4073 C4075 1.433 . S
C4074 C4070 1.350 . S
C4074 C4071 1.463 . S
C4074 N4078 1.427 . S
C4075 H4065 0.929 . S
C4075 C4073 1.433 . S
C4075 N4078 1.384 . S
C4076 H4067 0.929 . S
C4076 C4068 1.378 . S
C4076 C4071 1.350 . S
C4077 H4064 0.929 . S
C4077 C4069 1.433 . S
C4077 N4079 1.384 . S
N4078 C4074 1.427 . S
N4078 C4075 1.384 . S
N4079 C4071 1.427 . S
N4079 C4077 1.384 . S
H4080 C4086 0.930 . S
H4081 C4090 0.930 . S
H4082 C4095 0.929 . S
H4083 C4093 0.929 . S
H4084 C4088 0.929 . S
H4085 C4094 0.929 . S
C4086 H4080 0.930 . S
C4086 C4087 1.367 . S
C4086 C4094 1.378 . S
C4087 C4086 1.367 . S
C4087 C4095 1.433 . S
C4088 H4084 0.929 . S
C4088 C4090 1.378 . S
C4088 C4092 1.350 . S
C4089 C4092 1.463 . S
C4089 C4094 1.350 . S
C4089 N4097 1.427 . S
C4090 H4081 0.930 . S
C4090 C4088 1.378 . S
C4090 C4091 1.367 . S
C4091 C4090 1.367 . S
C4091 C4093 1.433 . S
C4092 C4088 1.350 . S
C4092 C4089 1.463 . S
C4092 N4096 1.427 . S
C4093 H4083 0.929 . S
C4093 C4091 1.433 . S
C4093 N4096 1.384 . S
C4094 H4085 0.929 . S
C4094 C4086 1.378 . S
C4094 C4089 1.350 . S
C4095 H4082 0.929 . S
C4095 C4087 1.433 . S
C4095 N4097 1.384 . S
N4096 C4092 1.427 . S
N4096 C4093 1.384 . S
N4097 C4089 1.427 . S
N4097 C4095 1.384 . S
H4098 C4104 0.930 . S
H4099 C4108 0.930 . S
H4100 C4113 0.929 . S
H4101 C4111 0.929 . S
H4102 C4106 0.929 . S
H4103 C4112 0.929 . S
C4104 H4098 0.930 . S
C4104 C4105 1.367 . S
C4104 C4112 1.378 . S
C4105 C4104 1.367 . S
C4105 C4113 1.433 . S
C4106 H4102 0.929 . S
C4106 C4108 1.378 . S
C4106 C4110 1.350 . S
C4107 C4110 1.463 . S
C4107 C4112 1.350 . S
C4107 N4115 1.427 . S
C4108 H4099 0.930 . S
C4108 C4106 1.378 . S
C4108 C4109 1.367 . S
C4109 C4108 1.367 . S
C4109 C4111 1.433 . S
C4110 C4106 1.350 . S
C4110 C4107 1.463 . S
C4110 N4114 1.427 . S
C4111 H4101 0.929 . S
C4111 C4109 1.433 . S
C4111 N4114 1.384 . S
C4112 H4103 0.929 . S
C4112 C4104 1.378 . S
C4112 C4107 1.350 . S
C4113 H4100 0.929 . S
C4113 C4105 1.433 . S
C4113 N4115 1.384 . S
N4114 C4110 1.427 . S
N4114 C4111 1.384 . S
N4115 C4107 1.427 . S
N4115 C4113 1.384 . S
H4116 C4122 0.930 . S
H4117 C4126 0.930 . S
H4118 C4131 0.929 . S
H4119 C4129 0.929 . S
H4120 C4124 0.929 . S
H4121 C4130 0.929 . S
C4122 H4116 0.930 . S
C4122 C4123 1.367 . S
C4122 C4130 1.378 . S
C4123 C4122 1.367 . S
C4123 C4131 1.433 . S
C4124 H4120 0.929 . S
C4124 C4126 1.378 . S
C4124 C4128 1.350 . S
C4125 C4128 1.463 . S
C4125 C4130 1.350 . S
C4125 N4133 1.427 . S
C4126 H4117 0.930 . S
C4126 C4124 1.378 . S
C4126 C4127 1.367 . S
C4127 C4126 1.367 . S
C4127 C4129 1.433 . S
C4128 C4124 1.350 . S
C4128 C4125 1.463 . S
C4128 N4132 1.427 . S
C4129 H4119 0.929 . S
C4129 C4127 1.433 . S
C4129 N4132 1.384 . S
C4130 H4121 0.929 . S
C4130 C4122 1.378 . S
C4130 C4125 1.350 . S
C4131 H4118 0.929 . S
C4131 C4123 1.433 . S
C4131 N4133 1.384 . S
N4132 C4128 1.427 . S
N4132 C4129 1.384 . S
N4133 C4125 1.427 . S
N4133 C4131 1.384 . S
H4134 C4140 0.930 . S
H4135 C4144 0.930 . S
H4136 C4149 0.929 . S
H4137 C4147 0.929 . S
H4138 C4142 0.929 . S
H4139 C4148 0.929 . S
C4140 H4134 0.930 . S
C4140 C4141 1.367 . S
C4140 C4148 1.378 . S
C4141 C4140 1.367 . S
C4141 C4149 1.433 . S
C4142 H4138 0.929 . S
C4142 C4144 1.378 . S
C4142 C4146 1.350 . S
C4143 C4146 1.463 . S
C4143 C4148 1.350 . S
C4143 N4151 1.427 . S
C4144 H4135 0.930 . S
C4144 C4142 1.378 . S
C4144 C4145 1.367 . S
C4145 C4144 1.367 . S
C4145 C4147 1.433 . S
C4146 C4142 1.350 . S
C4146 C4143 1.463 . S
C4146 N4150 1.427 . S
C4147 H4137 0.929 . S
C4147 C4145 1.433 . S
C4147 N4150 1.384 . S
C4148 H4139 0.929 . S
C4148 C4140 1.378 . S
C4148 C4143 1.350 . S
C4149 H4136 0.929 . S
C4149 C4141 1.433 . S
C4149 N4151 1.384 . S
N4150 C4146 1.427 . S
N4150 C4147 1.384 . S
N4151 C4143 1.427 . S
N4151 C4149 1.384 . S
H4152 C4158 0.930 . S
H4153 C4162 0.930 . S
H4154 C4167 0.929 . S
H4155 C4165 0.929 . S
H4156 C4160 0.929 . S
H4157 C4166 0.929 . S
C4158 H4152 0.930 . S
C4158 C4159 1.367 . S
C4158 C4166 1.378 . S
C4159 C4158 1.367 . S
C4159 C4167 1.433 . S
C4160 H4156 0.929 . S
C4160 C4162 1.378 . S
C4160 C4164 1.350 . S
C4161 C4164 1.463 . S
C4161 C4166 1.350 . S
C4161 N4169 1.427 . S
C4162 H4153 0.930 . S
C4162 C4160 1.378 . S
C4162 C4163 1.367 . S
C4163 C4162 1.367 . S
C4163 C4165 1.433 . S
C4164 C4160 1.350 . S
C4164 C4161 1.463 . S
C4164 N4168 1.427 . S
C4165 H4155 0.929 . S
C4165 C4163 1.433 . S
C4165 N4168 1.384 . S
C4166 H4157 0.929 . S
C4166 C4158 1.378 . S
C4166 C4161 1.350 . S
C4167 H4154 0.929 . S
C4167 C4159 1.433 . S
C4167 N4169 1.384 . S
N4168 C4164 1.427 . S
N4168 C4165 1.384 . S
N4169 C4161 1.427 . S
N4169 C4167 1.384 . S
H4170 C4176 0.930 . S
H4171 C4180 0.930 . S
H4172 C4185 0.929 . S
H4173 C4183 0.929 . S
H4174 C4178 0.929 . S
H4175 C4184 0.929 . S
C4176 H4170 0.930 . S
C4176 C4177 1.367 . S
C4176 C4184 1.378 . S
C4177 C4176 1.367 . S
C4177 C4185 1.433 . S
C4178 H4174 0.929 . S
C4178 C4180 1.378 . S
C4178 C4182 1.350 . S
C4179 C4182 1.463 . S
C4179 C4184 1.350 . S
C4179 N4187 1.427 . S
C4180 H4171 0.930 . S
C4180 C4178 1.378 . S
C4180 C4181 1.367 . S
C4181 C4180 1.367 . S
C4181 C4183 1.433 . S
C4182 C4178 1.350 . S
C4182 C4179 1.463 . S
C4182 N4186 1.427 . S
C4183 H4173 0.929 . S
C4183 C4181 1.433 . S
C4183 N4186 1.384 . S
C4184 H4175 0.929 . S
C4184 C4176 1.378 . S
C4184 C4179 1.350 . S
C4185 H4172 0.929 . S
C4185 C4177 1.433 . S
C4185 N4187 1.384 . S
N4186 C4182 1.427 . S
N4186 C4183 1.384 . S
N4187 C4179 1.427 . S
N4187 C4185 1.384 . S
H4188 C4194 0.930 . S
H4189 C4198 0.930 . S
H4190 C4203 0.929 . S
H4191 C4201 0.929 . S
H4192 C4196 0.929 . S
H4193 C4202 0.929 . S
C4194 H4188 0.930 . S
C4194 C4195 1.367 . S
C4194 C4202 1.378 . S
C4195 C4194 1.367 . S
C4195 C4203 1.433 . S
C4196 H4192 0.929 . S
C4196 C4198 1.378 . S
C4196 C4200 1.350 . S
C4197 C4200 1.463 . S
C4197 C4202 1.350 . S
C4197 N4205 1.427 . S
C4198 H4189 0.930 . S
C4198 C4196 1.378 . S
C4198 C4199 1.367 . S
C4199 C4198 1.367 . S
C4199 C4201 1.433 . S
C4200 C4196 1.350 . S
C4200 C4197 1.463 . S
C4200 N4204 1.427 . S
C4201 H4191 0.929 . S
C4201 C4199 1.433 . S
C4201 N4204 1.384 . S
C4202 H4193 0.929 . S
C4202 C4194 1.378 . S
C4202 C4197 1.350 . S
C4203 H4190 0.929 . S
C4203 C4195 1.433 . S
C4203 N4205 1.384 . S
N4204 C4200 1.427 . S
N4204 C4201 1.384 . S
N4205 C4197 1.427 . S
N4205 C4203 1.384 . S
H4206 C4212 0.930 . S
H4207 C4216 0.930 . S
H4208 C4221 0.929 . S
H4209 C4219 0.929 . S
H4210 C4214 0.929 . S
H4211 C4220 0.929 . S
C4212 H4206 0.930 . S
C4212 C4213 1.367 . S
C4212 C4220 1.378 . S
C4213 C4212 1.367 . S
C4213 C4221 1.433 . S
C4214 H4210 0.929 . S
C4214 C4216 1.378 . S
C4214 C4218 1.350 . S
C4215 C4218 1.463 . S
C4215 C4220 1.350 . S
C4215 N4223 1.427 . S
C4216 H4207 0.930 . S
C4216 C4214 1.378 . S
C4216 C4217 1.367 . S
C4217 C4216 1.367 . S
C4217 C4219 1.433 . S
C4218 C4214 1.350 . S
C4218 C4215 1.463 . S
C4218 N4222 1.427 . S
C4219 H4209 0.929 . S
C4219 C4217 1.433 . S
C4219 N4222 1.384 . S
C4220 H4211 0.929 . S
C4220 C4212 1.378 . S
C4220 C4215 1.350 . S
C4221 H4208 0.929 . S
C4221 C4213 1.433 . S
C4221 N4223 1.384 . S
N4222 C4218 1.427 . S
N4222 C4219 1.384 . S
N4223 C4215 1.427 . S
N4223 C4221 1.384 . S
H4224 C4230 0.930 . S
H4225 C4234 0.930 . S
H4226 C4239 0.929 . S
H4227 C4237 0.929 . S
H4228 C4232 0.929 . S
H4229 C4238 0.929 . S
C4230 H4224 0.930 . S
C4230 C4231 1.367 . S
C4230 C4238 1.378 . S
C4231 C4230 1.367 . S
C4231 C4239 1.433 . S
C4232 H4228 0.929 . S
C4232 C4234 1.378 . S
C4232 C4236 1.350 . S
C4233 C4236 1.463 . S
C4233 C4238 1.350 . S
C4233 N4241 1.427 . S
C4234 H4225 0.930 . S
C4234 C4232 1.378 . S
C4234 C4235 1.367 . S
C4235 C4234 1.367 . S
C4235 C4237 1.433 . S
C4236 C4232 1.350 . S
C4236 C4233 1.463 . S
C4236 N4240 1.427 . S
C4237 H4227 0.929 . S
C4237 C4235 1.433 . S
C4237 N4240 1.384 . S
C4238 H4229 0.929 . S
C4238 C4230 1.378 . S
C4238 C4233 1.350 . S
C4239 H4226 0.929 . S
C4239 C4231 1.433 . S
C4239 N4241 1.384 . S
N4240 C4236 1.427 . S
N4240 C4237 1.384 . S
N4241 C4233 1.427 . S
N4241 C4239 1.384 . S
H4242 C4248 0.930 . S
H4243 C4252 0.930 . S
H4244 C4257 0.929 . S
H4245 C4255 0.929 . S
H4246 C4250 0.929 . S
H4247 C4256 0.929 . S
C4248 H4242 0.930 . S
C4248 C4249 1.367 . S
C4248 C4256 1.378 . S
C4249 C4248 1.367 . S
C4249 C4257 1.433 . S
C4250 H4246 0.929 . S
C4250 C4252 1.378 . S
C4250 C4254 1.350 . S
C4251 C4254 1.463 . S
C4251 C4256 1.350 . S
C4251 N4259 1.427 . S
C4252 H4243 0.930 . S
C4252 C4250 1.378 . S
C4252 C4253 1.367 . S
C4253 C4252 1.367 . S
C4253 C4255 1.433 . S
C4254 C4250 1.350 . S
C4254 C4251 1.463 . S
C4254 N4258 1.427 . S
C4255 H4245 0.929 . S
C4255 C4253 1.433 . S
C4255 N4258 1.384 . S
C4256 H4247 0.929 . S
C4256 C4248 1.378 . S
C4256 C4251 1.350 . S
C4257 H4244 0.929 . S
C4257 C4249 1.433 . S
C4257 N4259 1.384 . S
N4258 C4254 1.427 . S
N4258 C4255 1.384 . S
N4259 C4251 1.427 . S
N4259 C4257 1.384 . S
H4260 C4266 0.930 . S
H4261 C4270 0.930 . S
H4262 C4275 0.929 . S
H4263 C4273 0.929 . S
H4264 C4268 0.929 . S
H4265 C4274 0.929 . S
C4266 H4260 0.930 . S
C4266 C4267 1.367 . S
C4266 C4274 1.378 . S
C4267 C4266 1.367 . S
C4267 C4275 1.433 . S
C4268 H4264 0.929 . S
C4268 C4270 1.378 . S
C4268 C4272 1.350 . S
C4269 C4272 1.463 . S
C4269 C4274 1.350 . S
C4269 N4277 1.427 . S
C4270 H4261 0.930 . S
C4270 C4268 1.378 . S
C4270 C4271 1.367 . S
C4271 C4270 1.367 . S
C4271 C4273 1.433 . S
C4272 C4268 1.350 . S
C4272 C4269 1.463 . S
C4272 N4276 1.427 . S
C4273 H4263 0.929 . S
C4273 C4271 1.433 . S
C4273 N4276 1.384 . S
C4274 H4265 0.929 . S
C4274 C4266 1.378 . S
C4274 C4269 1.350 . S
C4275 H4262 0.929 . S
C4275 C4267 1.433 . S
C4275 N4277 1.384 . S
N4276 C4272 1.427 . S
N4276 C4273 1.384 . S
N4277 C4269 1.427 . S
N4277 C4275 1.384 . S
H4278 C4284 0.930 . S
H4279 C4288 0.930 . S
H4280 C4293 0.929 . S
H4281 C4291 0.929 . S
H4282 C4286 0.929 . S
H4283 C4292 0.929 . S
C4284 H4278 0.930 . S
C4284 C4285 1.367 . S
C4284 C4292 1.378 . S
C4285 C4284 1.367 . S
C4285 C4293 1.433 . S
C4286 H4282 0.929 . S
C4286 C4288 1.378 . S
C4286 C4290 1.350 . S
C4287 C4290 1.463 . S
C4287 C4292 1.350 . S
C4287 N4295 1.427 . S
C4288 H4279 0.930 . S
C4288 C4286 1.378 . S
C4288 C4289 1.367 . S
C4289 C4288 1.367 . S
C4289 C4291 1.433 . S
C4290 C4286 1.350 . S
C4290 C4287 1.463 . S
C4290 N4294 1.427 . S
C4291 H4281 0.929 . S
C4291 C4289 1.433 . S
C4291 N4294 1.384 . S
C4292 H4283 0.929 . S
C4292 C4284 1.378 . S
C4292 C4287 1.350 . S
C4293 H4280 0.929 . S
C4293 C4285 1.433 . S
C4293 N4295 1.384 . S
N4294 C4290 1.427 . S
N4294 C4291 1.384 . S
N4295 C4287 1.427 . S
N4295 C4293 1.384 . S
H4296 C4302 0.930 . S
H4297 C4306 0.930 . S
H4298 C4311 0.929 . S
H4299 C4309 0.929 . S
H4300 C4304 0.929 . S
H4301 C4310 0.929 . S
C4302 H4296 0.930 . S
C4302 C4303 1.367 . S
C4302 C4310 1.378 . S
C4303 C4302 1.367 . S
C4303 C4311 1.433 . S
C4304 H4300 0.929 . S
C4304 C4306 1.378 . S
C4304 C4308 1.350 . S
C4305 C4308 1.463 . S
C4305 C4310 1.350 . S
C4305 N4313 1.427 . S
C4306 H4297 0.930 . S
C4306 C4304 1.378 . S
C4306 C4307 1.367 . S
C4307 C4306 1.367 . S
C4307 C4309 1.433 . S
C4308 C4304 1.350 . S
C4308 C4305 1.463 . S
C4308 N4312 1.427 . S
C4309 H4299 0.929 . S
C4309 C4307 1.433 . S
C4309 N4312 1.384 . S
C4310 H4301 0.929 . S
C4310 C4302 1.378 . S
C4310 C4305 1.350 . S
C4311 H4298 0.929 . S
C4311 C4303 1.433 . S
C4311 N4313 1.384 . S
N4312 C4308 1.427 . S
N4312 C4309 1.384 . S
N4313 C4305 1.427 . S
N4313 C4311 1.384 . S
H4314 C4320 0.930 . S
H4315 C4324 0.930 . S
H4316 C4329 0.929 . S
H4317 C4327 0.929 . S
H4318 C4322 0.929 . S
H4319 C4328 0.929 . S
C4320 H4314 0.930 . S
C4320 C4321 1.367 . S
C4320 C4328 1.378 . S
C4321 C4320 1.367 . S
C4321 C4329 1.433 . S
C4322 H4318 0.929 . S
C4322 C4324 1.378 . S
C4322 C4326 1.350 . S
C4323 C4326 1.463 . S
C4323 C4328 1.350 . S
C4323 N4331 1.427 . S
C4324 H4315 0.930 . S
C4324 C4322 1.378 . S
C4324 C4325 1.367 . S
C4325 C4324 1.367 . S
C4325 C4327 1.433 . S
C4326 C4322 1.350 . S
C4326 C4323 1.463 . S
C4326 N4330 1.427 . S
C4327 H4317 0.929 . S
C4327 C4325 1.433 . S
C4327 N4330 1.384 . S
C4328 H4319 0.929 . S
C4328 C4320 1.378 . S
C4328 C4323 1.350 . S
C4329 H4316 0.929 . S
C4329 C4321 1.433 . S
C4329 N4331 1.384 . S
N4330 C4326 1.427 . S
N4330 C4327 1.384 . S
N4331 C4323 1.427 . S
N4331 C4329 1.384 . S
H4332 C4338 0.930 . S
H4333 C4342 0.930 . S
H4334 C4347 0.929 . S
H4335 C4345 0.929 . S
H4336 C4340 0.929 . S
H4337 C4346 0.929 . S
C4338 H4332 0.930 . S
C4338 C4339 1.367 . S
C4338 C4346 1.378 . S
C4339 C4338 1.367 . S
C4339 C4347 1.433 . S
C4340 H4336 0.929 . S
C4340 C4342 1.378 . S
C4340 C4344 1.350 . S
C4341 C4344 1.463 . S
C4341 C4346 1.350 . S
C4341 N4349 1.427 . S
C4342 H4333 0.930 . S
C4342 C4340 1.378 . S
C4342 C4343 1.367 . S
C4343 C4342 1.367 . S
C4343 C4345 1.433 . S
C4344 C4340 1.350 . S
C4344 C4341 1.463 . S
C4344 N4348 1.427 . S
C4345 H4335 0.929 . S
C4345 C4343 1.433 . S
C4345 N4348 1.384 . S
C4346 H4337 0.929 . S
C4346 C4338 1.378 . S
C4346 C4341 1.350 . S
C4347 H4334 0.929 . S
C4347 C4339 1.433 . S
C4347 N4349 1.384 . S
N4348 C4344 1.427 . S
N4348 C4345 1.384 . S
N4349 C4341 1.427 . S
N4349 C4347 1.384 . S
H4350 C4356 0.930 . S
H4351 C4360 0.930 . S
H4352 C4365 0.929 . S
H4353 C4363 0.929 . S
H4354 C4358 0.929 . S
H4355 C4364 0.929 . S
C4356 H4350 0.930 . S
C4356 C4357 1.367 . S
C4356 C4364 1.378 . S
C4357 C4356 1.367 . S
C4357 C4365 1.433 . S
C4358 H4354 0.929 . S
C4358 C4360 1.378 . S
C4358 C4362 1.350 . S
C4359 C4362 1.463 . S
C4359 C4364 1.350 . S
C4359 N4367 1.427 . S
C4360 H4351 0.930 . S
C4360 C4358 1.378 . S
C4360 C4361 1.367 . S
C4361 C4360 1.367 . S
C4361 C4363 1.433 . S
C4362 C4358 1.350 . S
C4362 C4359 1.463 . S
C4362 N4366 1.427 . S
C4363 H4353 0.929 . S
C4363 C4361 1.433 . S
C4363 N4366 1.384 . S
C4364 H4355 0.929 . S
C4364 C4356 1.378 . S
C4364 C4359 1.350 . S
C4365 H4352 0.929 . S
C4365 C4357 1.433 . S
C4365 N4367 1.384 . S
N4366 C4362 1.427 . S
N4366 C4363 1.384 . S
N4367 C4359 1.427 . S
N4367 C4365 1.384 . S
H4368 C4374 0.930 . S
H4369 C4378 0.930 . S
H4370 C4383 0.929 . S
H4371 C4381 0.929 . S
H4372 C4376 0.929 . S
H4373 C4382 0.929 . S
C4374 H4368 0.930 . S
C4374 C4375 1.367 . S
C4374 C4382 1.378 . S
C4375 C4374 1.367 . S
C4375 C4383 1.433 . S
C4376 H4372 0.929 . S
C4376 C4378 1.378 . S
C4376 C4380 1.350 . S
C4377 C4380 1.463 . S
C4377 C4382 1.350 . S
C4377 N4385 1.427 . S
C4378 H4369 0.930 . S
C4378 C4376 1.378 . S
C4378 C4379 1.367 . S
C4379 C4378 1.367 . S
C4379 C4381 1.433 . S
C4380 C4376 1.350 . S
C4380 C4377 1.463 . S
C4380 N4384 1.427 . S
C4381 H4371 0.929 . S
C4381 C4379 1.433 . S
C4381 N4384 1.384 . S
C4382 H4373 0.929 . S
C4382 C4374 1.378 . S
C4382 C4377 1.350 . S
C4383 H4370 0.929 . S
C4383 C4375 1.433 . S
C4383 N4385 1.384 . S
N4384 C4380 1.427 . S
N4384 C4381 1.384 . S
N4385 C4377 1.427 . S
N4385 C4383 1.384 . S
H4386 C4392 0.930 . S
H4387 C4396 0.930 . S
H4388 C4401 0.929 . S
H4389 C4399 0.929 . S
H4390 C4394 0.929 . S
H4391 C4400 0.929 . S
C4392 H4386 0.930 . S
C4392 C4393 1.367 . S
C4392 C4400 1.378 . S
C4393 C4392 1.367 . S
C4393 C4401 1.433 . S
C4394 H4390 0.929 . S
C4394 C4396 1.378 . S
C4394 C4398 1.350 . S
C4395 C4398 1.463 . S
C4395 C4400 1.350 . S
C4395 N4403 1.427 . S
C4396 H4387 0.930 . S
C4396 C4394 1.378 . S
C4396 C4397 1.367 . S
C4397 C4396 1.367 . S
C4397 C4399 1.433 . S
C4398 C4394 1.350 . S
C4398 C4395 1.463 . S
C4398 N4402 1.427 . S
C4399 H4389 0.929 . S
C4399 C4397 1.433 . S
C4399 N4402 1.384 . S
C4400 H4391 0.929 . S
C4400 C4392 1.378 . S
C4400 C4395 1.350 . S
C4401 H4388 0.929 . S
C4401 C4393 1.433 . S
C4401 N4403 1.384 . S
N4402 C4398 1.427 . S
N4402 C4399 1.384 . S
N4403 C4395 1.427 . S
N4403 C4401 1.384 . S
H4404 C4410 0.930 . S
H4405 C4414 0.930 . S
H4406 C4419 0.929 . S
H4407 C4417 0.929 . S
H4408 C4412 0.929 . S
H4409 C4418 0.929 . S
C4410 H4404 0.930 . S
C4410 C4411 1.367 . S
C4410 C4418 1.378 . S
C4411 C4410 1.367 . S
C4411 C4419 1.433 . S
C4412 H4408 0.929 . S
C4412 C4414 1.378 . S
C4412 C4416 1.350 . S
C4413 C4416 1.463 . S
C4413 C4418 1.350 . S
C4413 N4421 1.427 . S
C4414 H4405 0.930 . S
C4414 C4412 1.378 . S
C4414 C4415 1.367 . S
C4415 C4414 1.367 . S
C4415 C4417 1.433 . S
C4416 C4412 1.350 . S
C4416 C4413 1.463 . S
C4416 N4420 1.427 . S
C4417 H4407 0.929 . S
C4417 C4415 1.433 . S
C4417 N4420 1.384 . S
C4418 H4409 0.929 . S
C4418 C4410 1.378 . S
C4418 C4413 1.350 . S
C4419 H4406 0.929 . S
C4419 C4411 1.433 . S
C4419 N4421 1.384 . S
N4420 C4416 1.427 . S
N4420 C4417 1.384 . S
N4421 C4413 1.427 . S
N4421 C4419 1.384 . S
H4422 C4428 0.930 . S
H4423 C4432 0.930 . S
H4424 C4437 0.929 . S
H4425 C4435 0.929 . S
H4426 C4430 0.929 . S
H4427 C4436 0.929 . S
C4428 H4422 0.930 . S
C4428 C4429 1.367 . S
C4428 C4436 1.378 . S
C4429 C4428 1.367 . S
C4429 C4437 1.433 . S
C4430 H4426 0.929 . S
C4430 C4432 1.378 . S
C4430 C4434 1.350 . S
C4431 C4434 1.463 . S
C4431 C4436 1.350 . S
C4431 N4439 1.427 . S
C4432 H4423 0.930 . S
C4432 C4430 1.378 . S
C4432 C4433 1.367 . S
C4433 C4432 1.367 . S
C4433 C4435 1.433 . S
C4434 C4430 1.350 . S
C4434 C4431 1.463 . S
C4434 N4438 1.427 . S
C4435 H4425 0.929 . S
C4435 C4433 1.433 . S
C4435 N4438 1.384 . S
C4436 H4427 0.929 . S
C4436 C4428 1.378 . S
C4436 C4431 1.350 . S
C4437 H4424 0.929 . S
C4437 C4429 1.433 . S
C4437 N4439 1.384 . S
N4438 C4434 1.427 . S
N4438 C4435 1.384 . S
N4439 C4431 1.427 . S
N4439 C4437 1.384 . S
H4440 C4446 0.930 . S
H4441 C4450 0.930 . S
H4442 C4455 0.929 . S
H4443 C4453 0.929 . S
H4444 C4448 0.929 . S
H4445 C4454 0.929 . S
C4446 H4440 0.930 . S
C4446 C4447 1.367 . S
C4446 C4454 1.378 . S
C4447 C4446 1.367 . S
C4447 C4455 1.433 . S
C4448 H4444 0.929 . S
C4448 C4450 1.378 . S
C4448 C4452 1.350 . S
C4449 C4452 1.463 . S
C4449 C4454 1.350 . S
C4449 N4457 1.427 . S
C4450 H4441 0.930 . S
C4450 C4448 1.378 . S
C4450 C4451 1.367 . S
C4451 C4450 1.367 . S
C4451 C4453 1.433 . S
C4452 C4448 1.350 . S
C4452 C4449 1.463 . S
C4452 N4456 1.427 . S
C4453 H4443 0.929 . S
C4453 C4451 1.433 . S
C4453 N4456 1.384 . S
C4454 H4445 0.929 . S
C4454 C4446 1.378 . S
C4454 C4449 1.350 . S
C4455 H4442 0.929 . S
C4455 C4447 1.433 . S
C4455 N4457 1.384 . S
N4456 C4452 1.427 . S
N4456 C4453 1.384 . S
N4457 C4449 1.427 . S
N4457 C4455 1.384 . S
H4458 C4464 0.930 . S
H4459 C4468 0.930 . S
H4460 C4473 0.929 . S
H4461 C4471 0.929 . S
H4462 C4466 0.929 . S
H4463 C4472 0.929 . S
C4464 H4458 0.930 . S
C4464 C4465 1.367 . S
C4464 C4472 1.378 . S
C4465 C4464 1.367 . S
C4465 C4473 1.433 . S
C4466 H4462 0.929 . S
C4466 C4468 1.378 . S
C4466 C4470 1.350 . S
C4467 C4470 1.463 . S
C4467 C4472 1.350 . S
C4467 N4475 1.427 . S
C4468 H4459 0.930 . S
C4468 C4466 1.378 . S
C4468 C4469 1.367 . S
C4469 C4468 1.367 . S
C4469 C4471 1.433 . S
C4470 C4466 1.350 . S
C4470 C4467 1.463 . S
C4470 N4474 1.427 . S
C4471 H4461 0.929 . S
C4471 C4469 1.433 . S
C4471 N4474 1.384 . S
C4472 H4463 0.929 . S
C4472 C4464 1.378 . S
C4472 C4467 1.350 . S
C4473 H4460 0.929 . S
C4473 C4465 1.433 . S
C4473 N4475 1.384 . S
N4474 C4470 1.427 . S
N4474 C4471 1.384 . S
N4475 C4467 1.427 . S
N4475 C4473 1.384 . S
H4476 C4482 0.930 . S
H4477 C4486 0.930 . S
H4478 C4491 0.929 . S
H4479 C4489 0.929 . S
H4480 C4484 0.929 . S
H4481 C4490 0.929 . S
C4482 H4476 0.930 . S
C4482 C4483 1.367 . S
C4482 C4490 1.378 . S
C4483 C4482 1.367 . S
C4483 C4491 1.433 . S
C4484 H4480 0.929 . S
C4484 C4486 1.378 . S
C4484 C4488 1.350 . S
C4485 C4488 1.463 . S
C4485 C4490 1.350 . S
C4485 N4493 1.427 . S
C4486 H4477 0.930 . S
C4486 C4484 1.378 . S
C4486 C4487 1.367 . S
C4487 C4486 1.367 . S
C4487 C4489 1.433 . S
C4488 C4484 1.350 . S
C4488 C4485 1.463 . S
C4488 N4492 1.427 . S
C4489 H4479 0.929 . S
C4489 C4487 1.433 . S
C4489 N4492 1.384 . S
C4490 H4481 0.929 . S
C4490 C4482 1.378 . S
C4490 C4485 1.350 . S
C4491 H4478 0.929 . S
C4491 C4483 1.433 . S
C4491 N4493 1.384 . S
N4492 C4488 1.427 . S
N4492 C4489 1.384 . S
N4493 C4485 1.427 . S
N4493 C4491 1.384 . S
H4494 C4500 0.930 . S
H4495 C4504 0.930 . S
H4496 C4509 0.929 . S
H4497 C4507 0.929 . S
H4498 C4502 0.929 . S
H4499 C4508 0.929 . S
C4500 H4494 0.930 . S
C4500 C4501 1.367 . S
C4500 C4508 1.378 . S
C4501 C4500 1.367 . S
C4501 C4509 1.433 . S
C4502 H4498 0.929 . S
C4502 C4504 1.378 . S
C4502 C4506 1.350 . S
C4503 C4506 1.463 . S
C4503 C4508 1.350 . S
C4503 N4511 1.427 . S
C4504 H4495 0.930 . S
C4504 C4502 1.378 . S
C4504 C4505 1.367 . S
C4505 C4504 1.367 . S
C4505 C4507 1.433 . S
C4506 C4502 1.350 . S
C4506 C4503 1.463 . S
C4506 N4510 1.427 . S
C4507 H4497 0.929 . S
C4507 C4505 1.433 . S
C4507 N4510 1.384 . S
C4508 H4499 0.929 . S
C4508 C4500 1.378 . S
C4508 C4503 1.350 . S
C4509 H4496 0.929 . S
C4509 C4501 1.433 . S
C4509 N4511 1.384 . S
N4510 C4506 1.427 . S
N4510 C4507 1.384 . S
N4511 C4503 1.427 . S
N4511 C4509 1.384 . S
H4512 C4518 0.930 . S
H4513 C4522 0.930 . S
H4514 C4527 0.929 . S
H4515 C4525 0.929 . S
H4516 C4520 0.929 . S
H4517 C4526 0.929 . S
C4518 H4512 0.930 . S
C4518 C4519 1.367 . S
C4518 C4526 1.378 . S
C4519 C4518 1.367 . S
C4519 C4527 1.433 . S
C4520 H4516 0.929 . S
C4520 C4522 1.378 . S
C4520 C4524 1.350 . S
C4521 C4524 1.463 . S
C4521 C4526 1.350 . S
C4521 N4529 1.427 . S
C4522 H4513 0.930 . S
C4522 C4520 1.378 . S
C4522 C4523 1.367 . S
C4523 C4522 1.367 . S
C4523 C4525 1.433 . S
C4524 C4520 1.350 . S
C4524 C4521 1.463 . S
C4524 N4528 1.427 . S
C4525 H4515 0.929 . S
C4525 C4523 1.433 . S
C4525 N4528 1.384 . S
C4526 H4517 0.929 . S
C4526 C4518 1.378 . S
C4526 C4521 1.350 . S
C4527 H4514 0.929 . S
C4527 C4519 1.433 . S
C4527 N4529 1.384 . S
N4528 C4524 1.427 . S
N4528 C4525 1.384 . S
N4529 C4521 1.427 . S
N4529 C4527 1.384 . S
H4530 C4536 0.930 . S
H4531 C4540 0.930 . S
H4532 C4545 0.929 . S
H4533 C4543 0.929 . S
H4534 C4538 0.929 . S
H4535 C4544 0.929 . S
C4536 H4530 0.930 . S
C4536 C4537 1.367 . S
C4536 C4544 1.378 . S
C4537 C4536 1.367 . S
C4537 C4545 1.433 . S
C4538 H4534 0.929 . S
C4538 C4540 1.378 . S
C4538 C4542 1.350 . S
C4539 C4542 1.463 . S
C4539 C4544 1.350 . S
C4539 N4547 1.427 . S
C4540 H4531 0.930 . S
C4540 C4538 1.378 . S
C4540 C4541 1.367 . S
C4541 C4540 1.367 . S
C4541 C4543 1.433 . S
C4542 C4538 1.350 . S
C4542 C4539 1.463 . S
C4542 N4546 1.427 . S
C4543 H4533 0.929 . S
C4543 C4541 1.433 . S
C4543 N4546 1.384 . S
C4544 H4535 0.929 . S
C4544 C4536 1.378 . S
C4544 C4539 1.350 . S
C4545 H4532 0.929 . S
C4545 C4537 1.433 . S
C4545 N4547 1.384 . S
N4546 C4542 1.427 . S
N4546 C4543 1.384 . S
N4547 C4539 1.427 . S
N4547 C4545 1.384 . S
H4548 C4554 0.930 . S
H4549 C4558 0.930 . S
H4550 C4563 0.929 . S
H4551 C4561 0.929 . S
H4552 C4556 0.929 . S
H4553 C4562 0.929 . S
C4554 H4548 0.930 . S
C4554 C4555 1.367 . S
C4554 C4562 1.378 . S
C4555 C4554 1.367 . S
C4555 C4563 1.433 . S
C4556 H4552 0.929 . S
C4556 C4558 1.378 . S
C4556 C4560 1.350 . S
C4557 C4560 1.463 . S
C4557 C4562 1.350 . S
C4557 N4565 1.427 . S
C4558 H4549 0.930 . S
C4558 C4556 1.378 . S
C4558 C4559 1.367 . S
C4559 C4558 1.367 . S
C4559 C4561 1.433 . S
C4560 C4556 1.350 . S
C4560 C4557 1.463 . S
C4560 N4564 1.427 . S
C4561 H4551 0.929 . S
C4561 C4559 1.433 . S
C4561 N4564 1.384 . S
C4562 H4553 0.929 . S
C4562 C4554 1.378 . S
C4562 C4557 1.350 . S
C4563 H4550 0.929 . S
C4563 C4555 1.433 . S
C4563 N4565 1.384 . S
N4564 C4560 1.427 . S
N4564 C4561 1.384 . S
N4565 C4557 1.427 . S
N4565 C4563 1.384 . S
H4566 C4572 0.930 . S
H4567 C4576 0.930 . S
H4568 C4581 0.929 . S
H4569 C4579 0.929 . S
H4570 C4574 0.929 . S
H4571 C4580 0.929 . S
C4572 H4566 0.930 . S
C4572 C4573 1.367 . S
C4572 C4580 1.378 . S
C4573 C4572 1.367 . S
C4573 C4581 1.433 . S
C4574 H4570 0.929 . S
C4574 C4576 1.378 . S
C4574 C4578 1.350 . S
C4575 C4578 1.463 . S
C4575 C4580 1.350 . S
C4575 N4583 1.427 . S
C4576 H4567 0.930 . S
C4576 C4574 1.378 . S
C4576 C4577 1.367 . S
C4577 C4576 1.367 . S
C4577 C4579 1.433 . S
C4578 C4574 1.350 . S
C4578 C4575 1.463 . S
C4578 N4582 1.427 . S
C4579 H4569 0.929 . S
C4579 C4577 1.433 . S
C4579 N4582 1.384 . S
C4580 H4571 0.929 . S
C4580 C4572 1.378 . S
C4580 C4575 1.350 . S
C4581 H4568 0.929 . S
C4581 C4573 1.433 . S
C4581 N4583 1.384 . S
N4582 C4578 1.427 . S
N4582 C4579 1.384 . S
N4583 C4575 1.427 . S
N4583 C4581 1.384 . S
H4584 C4590 0.930 . S
H4585 C4594 0.930 . S
H4586 C4599 0.929 . S
H4587 C4597 0.929 . S
H4588 C4592 0.929 . S
H4589 C4598 0.929 . S
C4590 H4584 0.930 . S
C4590 C4591 1.367 . S
C4590 C4598 1.378 . S
C4591 C4590 1.367 . S
C4591 C4599 1.433 . S
C4592 H4588 0.929 . S
C4592 C4594 1.378 . S
C4592 C4596 1.350 . S
C4593 C4596 1.463 . S
C4593 C4598 1.350 . S
C4593 N4601 1.427 . S
C4594 H4585 0.930 . S
C4594 C4592 1.378 . S
C4594 C4595 1.367 . S
C4595 C4594 1.367 . S
C4595 C4597 1.433 . S
C4596 C4592 1.350 . S
C4596 C4593 1.463 . S
C4596 N4600 1.427 . S
C4597 H4587 0.929 . S
C4597 C4595 1.433 . S
C4597 N4600 1.384 . S
C4598 H4589 0.929 . S
C4598 C4590 1.378 . S
C4598 C4593 1.350 . S
C4599 H4586 0.929 . S
C4599 C4591 1.433 . S
C4599 N4601 1.384 . S
N4600 C4596 1.427 . S
N4600 C4597 1.384 . S
N4601 C4593 1.427 . S
N4601 C4599 1.384 . S
H4602 C4608 0.930 . S
H4603 C4612 0.930 . S
H4604 C4617 0.929 . S
H4605 C4615 0.929 . S
H4606 C4610 0.929 . S
H4607 C4616 0.929 . S
C4608 H4602 0.930 . S
C4608 C4609 1.367 . S
C4608 C4616 1.378 . S
C4609 C4608 1.367 . S
C4609 C4617 1.433 . S
C4610 H4606 0.929 . S
C4610 C4612 1.378 . S
C4610 C4614 1.350 . S
C4611 C4614 1.463 . S
C4611 C4616 1.350 . S
C4611 N4619 1.427 . S
C4612 H4603 0.930 . S
C4612 C4610 1.378 . S
C4612 C4613 1.367 . S
C4613 C4612 1.367 . S
C4613 C4615 1.433 . S
C4614 C4610 1.350 . S
C4614 C4611 1.463 . S
C4614 N4618 1.427 . S
C4615 H4605 0.929 . S
C4615 C4613 1.433 . S
C4615 N4618 1.384 . S
C4616 H4607 0.929 . S
C4616 C4608 1.378 . S
C4616 C4611 1.350 . S
C4617 H4604 0.929 . S
C4617 C4609 1.433 . S
C4617 N4619 1.384 . S
N4618 C4614 1.427 . S
N4618 C4615 1.384 . S
N4619 C4611 1.427 . S
N4619 C4617 1.384 . S
H4620 C4626 0.930 . S
H4621 C4630 0.930 . S
H4622 C4635 0.929 . S
H4623 C4633 0.929 . S
H4624 C4628 0.929 . S
H4625 C4634 0.929 . S
C4626 H4620 0.930 . S
C4626 C4627 1.367 . S
C4626 C4634 1.378 . S
C4627 C4626 1.367 . S
C4627 C4635 1.433 . S
C4628 H4624 0.929 . S
C4628 C4630 1.378 . S
C4628 C4632 1.350 . S
C4629 C4632 1.463 . S
C4629 C4634 1.350 . S
C4629 N4637 1.427 . S
C4630 H4621 0.930 . S
C4630 C4628 1.378 . S
C4630 C4631 1.367 . S
C4631 C4630 1.367 . S
C4631 C4633 1.433 . S
C4632 C4628 1.350 . S
C4632 C4629 1.463 . S
C4632 N4636 1.427 . S
C4633 H4623 0.929 . S
C4633 C4631 1.433 . S
C4633 N4636 1.384 . S
C4634 H4625 0.929 . S
C4634 C4626 1.378 . S
C4634 C4629 1.350 . S
C4635 H4622 0.929 . S
C4635 C4627 1.433 . S
C4635 N4637 1.384 . S
N4636 C4632 1.427 . S
N4636 C4633 1.384 . S
N4637 C4629 1.427 . S
N4637 C4635 1.384 . S
H4638 C4644 0.930 . S
H4639 C4648 0.930 . S
H4640 C4653 0.929 . S
H4641 C4651 0.929 . S
H4642 C4646 0.929 . S
H4643 C4652 0.929 . S
C4644 H4638 0.930 . S
C4644 C4645 1.367 . S
C4644 C4652 1.378 . S
C4645 C4644 1.367 . S
C4645 C4653 1.433 . S
C4646 H4642 0.929 . S
C4646 C4648 1.378 . S
C4646 C4650 1.350 . S
C4647 C4650 1.463 . S
C4647 C4652 1.350 . S
C4647 N4655 1.427 . S
C4648 H4639 0.930 . S
C4648 C4646 1.378 . S
C4648 C4649 1.367 . S
C4649 C4648 1.367 . S
C4649 C4651 1.433 . S
C4650 C4646 1.350 . S
C4650 C4647 1.463 . S
C4650 N4654 1.427 . S
C4651 H4641 0.929 . S
C4651 C4649 1.433 . S
C4651 N4654 1.384 . S
C4652 H4643 0.929 . S
C4652 C4644 1.378 . S
C4652 C4647 1.350 . S
C4653 H4640 0.929 . S
C4653 C4645 1.433 . S
C4653 N4655 1.384 . S
N4654 C4650 1.427 . S
N4654 C4651 1.384 . S
N4655 C4647 1.427 . S
N4655 C4653 1.384 . S
H4656 C4662 0.930 . S
H4657 C4666 0.930 . S
H4658 C4671 0.929 . S
H4659 C4669 0.929 . S
H4660 C4664 0.929 . S
H4661 C4670 0.929 . S
C4662 H4656 0.930 . S
C4662 C4663 1.367 . S
C4662 C4670 1.378 . S
C4663 C4662 1.367 . S
C4663 C4671 1.433 . S
C4664 H4660 0.929 . S
C4664 C4666 1.378 . S
C4664 C4668 1.350 . S
C4665 C4668 1.463 . S
C4665 C4670 1.350 . S
C4665 N4673 1.427 . S
C4666 H4657 0.930 . S
C4666 C4664 1.378 . S
C4666 C4667 1.367 . S
C4667 C4666 1.367 . S
C4667 C4669 1.433 . S
C4668 C4664 1.350 . S
C4668 C4665 1.463 . S
C4668 N4672 1.427 . S
C4669 H4659 0.929 . S
C4669 C4667 1.433 . S
C4669 N4672 1.384 . S
C4670 H4661 0.929 . S
C4670 C4662 1.378 . S
C4670 C4665 1.350 . S
C4671 H4658 0.929 . S
C4671 C4663 1.433 . S
C4671 N4673 1.384 . S
N4672 C4668 1.427 . S
N4672 C4669 1.384 . S
N4673 C4665 1.427 . S
N4673 C4671 1.384 . S
H4674 C4680 0.930 . S
H4675 C4684 0.930 . S
H4676 C4689 0.929 . S
H4677 C4687 0.929 . S
H4678 C4682 0.929 . S
H4679 C4688 0.929 . S
C4680 H4674 0.930 . S
C4680 C4681 1.367 . S
C4680 C4688 1.378 . S
C4681 C4680 1.367 . S
C4681 C4689 1.433 . S
C4682 H4678 0.929 . S
C4682 C4684 1.378 . S
C4682 C4686 1.350 . S
C4683 C4686 1.463 . S
C4683 C4688 1.350 . S
C4683 N4691 1.427 . S
C4684 H4675 0.930 . S
C4684 C4682 1.378 . S
C4684 C4685 1.367 . S
C4685 C4684 1.367 . S
C4685 C4687 1.433 . S
C4686 C4682 1.350 . S
C4686 C4683 1.463 . S
C4686 N4690 1.427 . S
C4687 H4677 0.929 . S
C4687 C4685 1.433 . S
C4687 N4690 1.384 . S
C4688 H4679 0.929 . S
C4688 C4680 1.378 . S
C4688 C4683 1.350 . S
C4689 H4676 0.929 . S
C4689 C4681 1.433 . S
C4689 N4691 1.384 . S
N4690 C4686 1.427 . S
N4690 C4687 1.384 . S
N4691 C4683 1.427 . S
N4691 C4689 1.384 . S
H4692 C4698 0.930 . S
H4693 C4702 0.930 . S
H4694 C4707 0.929 . S
H4695 C4705 0.929 . S
H4696 C4700 0.929 . S
H4697 C4706 0.929 . S
C4698 H4692 0.930 . S
C4698 C4699 1.367 . S
C4698 C4706 1.378 . S
C4699 C4698 1.367 . S
C4699 C4707 1.433 . S
C4700 H4696 0.929 . S
C4700 C4702 1.378 . S
C4700 C4704 1.350 . S
C4701 C4704 1.463 . S
C4701 C4706 1.350 . S
C4701 N4709 1.427 . S
C4702 H4693 0.930 . S
C4702 C4700 1.378 . S
C4702 C4703 1.367 . S
C4703 C4702 1.367 . S
C4703 C4705 1.433 . S
C4704 C4700 1.350 . S
C4704 C4701 1.463 . S
C4704 N4708 1.427 . S
C4705 H4695 0.929 . S
C4705 C4703 1.433 . S
C4705 N4708 1.384 . S
C4706 H4697 0.929 . S
C4706 C4698 1.378 . S
C4706 C4701 1.350 . S
C4707 H4694 0.929 . S
C4707 C4699 1.433 . S
C4707 N4709 1.384 . S
N4708 C4704 1.427 . S
N4708 C4705 1.384 . S
N4709 C4701 1.427 . S
N4709 C4707 1.384 . S
H4710 C4716 0.930 . S
H4711 C4720 0.930 . S
H4712 C4725 0.929 . S
H4713 C4723 0.929 . S
H4714 C4718 0.929 . S
H4715 C4724 0.929 . S
C4716 H4710 0.930 . S
C4716 C4717 1.367 . S
C4716 C4724 1.378 . S
C4717 C4716 1.367 . S
C4717 C4725 1.433 . S
C4718 H4714 0.929 . S
C4718 C4720 1.378 . S
C4718 C4722 1.350 . S
C4719 C4722 1.463 . S
C4719 C4724 1.350 . S
C4719 N4727 1.427 . S
C4720 H4711 0.930 . S
C4720 C4718 1.378 . S
C4720 C4721 1.367 . S
C4721 C4720 1.367 . S
C4721 C4723 1.433 . S
C4722 C4718 1.350 . S
C4722 C4719 1.463 . S
C4722 N4726 1.427 . S
C4723 H4713 0.929 . S
C4723 C4721 1.433 . S
C4723 N4726 1.384 . S
C4724 H4715 0.929 . S
C4724 C4716 1.378 . S
C4724 C4719 1.350 . S
C4725 H4712 0.929 . S
C4725 C4717 1.433 . S
C4725 N4727 1.384 . S
N4726 C4722 1.427 . S
N4726 C4723 1.384 . S
N4727 C4719 1.427 . S
N4727 C4725 1.384 . S
H4728 C4734 0.930 . S
H4729 C4738 0.930 . S
H4730 C4743 0.929 . S
H4731 C4741 0.929 . S
H4732 C4736 0.929 . S
H4733 C4742 0.929 . S
C4734 H4728 0.930 . S
C4734 C4735 1.367 . S
C4734 C4742 1.378 . S
C4735 C4734 1.367 . S
C4735 C4743 1.433 . S
C4736 H4732 0.929 . S
C4736 C4738 1.378 . S
C4736 C4740 1.350 . S
C4737 C4740 1.463 . S
C4737 C4742 1.350 . S
C4737 N4745 1.427 . S
C4738 H4729 0.930 . S
C4738 C4736 1.378 . S
C4738 C4739 1.367 . S
C4739 C4738 1.367 . S
C4739 C4741 1.433 . S
C4740 C4736 1.350 . S
C4740 C4737 1.463 . S
C4740 N4744 1.427 . S
C4741 H4731 0.929 . S
C4741 C4739 1.433 . S
C4741 N4744 1.384 . S
C4742 H4733 0.929 . S
C4742 C4734 1.378 . S
C4742 C4737 1.350 . S
C4743 H4730 0.929 . S
C4743 C4735 1.433 . S
C4743 N4745 1.384 . S
N4744 C4740 1.427 . S
N4744 C4741 1.384 . S
N4745 C4737 1.427 . S
N4745 C4743 1.384 . S
H4746 C4752 0.930 . S
H4747 C4756 0.930 . S
H4748 C4761 0.929 . S
H4749 C4759 0.929 . S
H4750 C4754 0.929 . S
H4751 C4760 0.929 . S
C4752 H4746 0.930 . S
C4752 C4753 1.367 . S
C4752 C4760 1.378 . S
C4753 C4752 1.367 . S
C4753 C4761 1.433 . S
C4754 H4750 0.929 . S
C4754 C4756 1.378 . S
C4754 C4758 1.350 . S
C4755 C4758 1.463 . S
C4755 C4760 1.350 . S
C4755 N4763 1.427 . S
C4756 H4747 0.930 . S
C4756 C4754 1.378 . S
C4756 C4757 1.367 . S
C4757 C4756 1.367 . S
C4757 C4759 1.433 . S
C4758 C4754 1.350 . S
C4758 C4755 1.463 . S
C4758 N4762 1.427 . S
C4759 H4749 0.929 . S
C4759 C4757 1.433 . S
C4759 N4762 1.384 . S
C4760 H4751 0.929 . S
C4760 C4752 1.378 . S
C4760 C4755 1.350 . S
C4761 H4748 0.929 . S
C4761 C4753 1.433 . S
C4761 N4763 1.384 . S
N4762 C4758 1.427 . S
N4762 C4759 1.384 . S
N4763 C4755 1.427 . S
N4763 C4761 1.384 . S
H4764 C4770 0.930 . S
H4765 C4774 0.930 . S
H4766 C4779 0.929 . S
H4767 C4777 0.929 . S
H4768 C4772 0.929 . S
H4769 C4778 0.929 . S
C4770 H4764 0.930 . S
C4770 C4771 1.367 . S
C4770 C4778 1.378 . S
C4771 C4770 1.367 . S
C4771 C4779 1.433 . S
C4772 H4768 0.929 . S
C4772 C4774 1.378 . S
C4772 C4776 1.350 . S
C4773 C4776 1.463 . S
C4773 C4778 1.350 . S
C4773 N4781 1.427 . S
C4774 H4765 0.930 . S
C4774 C4772 1.378 . S
C4774 C4775 1.367 . S
C4775 C4774 1.367 . S
C4775 C4777 1.433 . S
C4776 C4772 1.350 . S
C4776 C4773 1.463 . S
C4776 N4780 1.427 . S
C4777 H4767 0.929 . S
C4777 C4775 1.433 . S
C4777 N4780 1.384 . S
C4778 H4769 0.929 . S
C4778 C4770 1.378 . S
C4778 C4773 1.350 . S
C4779 H4766 0.929 . S
C4779 C4771 1.433 . S
C4779 N4781 1.384 . S
N4780 C4776 1.427 . S
N4780 C4777 1.384 . S
N4781 C4773 1.427 . S
N4781 C4779 1.384 . S
H4782 C4788 0.930 . S
H4783 C4792 0.930 . S
H4784 C4797 0.929 . S
H4785 C4795 0.929 . S
H4786 C4790 0.929 . S
H4787 C4796 0.929 . S
C4788 H4782 0.930 . S
C4788 C4789 1.367 . S
C4788 C4796 1.378 . S
C4789 C4788 1.367 . S
C4789 C4797 1.433 . S
C4790 H4786 0.929 . S
C4790 C4792 1.378 . S
C4790 C4794 1.350 . S
C4791 C4794 1.463 . S
C4791 C4796 1.350 . S
C4791 N4799 1.427 . S
C4792 H4783 0.930 . S
C4792 C4790 1.378 . S
C4792 C4793 1.367 . S
C4793 C4792 1.367 . S
C4793 C4795 1.433 . S
C4794 C4790 1.350 . S
C4794 C4791 1.463 . S
C4794 N4798 1.427 . S
C4795 H4785 0.929 . S
C4795 C4793 1.433 . S
C4795 N4798 1.384 . S
C4796 H4787 0.929 . S
C4796 C4788 1.378 . S
C4796 C4791 1.350 . S
C4797 H4784 0.929 . S
C4797 C4789 1.433 . S
C4797 N4799 1.384 . S
N4798 C4794 1.427 . S
N4798 C4795 1.384 . S
N4799 C4791 1.427 . S
N4799 C4797 1.384 . S
C1351 C5 1.656 . S
C1355 C957 1.656 . S
C1369 C915 1.653 . S
C1373 C19 1.655 . S
C1387 C929 1.653 . S
C1391 C33 1.651 . S
C1405 C47 1.652 . S
C1409 C943 1.654 . S
C1423 C999 1.652 . S
C1427 C61 1.654 . S
C1441 C971 1.656 . S
C1445 C75 1.655 . S
C1459 C985 1.656 . S
C1463 C89 1.655 . S
C1477 C103 1.651 . S
C1481 C901 1.653 . S
C1495 C117 1.654 . S
C1499 C887 1.652 . S
C1513 C131 1.656 . S
C1517 C845 1.656 . S
C1531 C145 1.655 . S
C1535 C859 1.653 . S
C1549 C159 1.653 . S
C1553 C873 1.651 . S
C1567 C173 1.652 . S
C1571 C803 1.655 . S
C1585 C817 1.654 . S
C1589 C187 1.652 . S
C1603 C831 1.654 . S
C1607 C201 1.656 . S
C1621 C215 1.656 . S
C1625 C789 1.655 . S
C1639 C229 1.655 . S
C1643 C775 1.653 . S
C1657 C243 1.653 . S
C1661 C691 1.655 . S
C1675 C705 1.653 . S
C1679 C257 1.655 . S
C1693 C719 1.651 . S
C1697 C271 1.653 . S
C1711 C677 1.656 . S
C1715 C285 1.656 . S
C1729 C299 1.655 . S
C1733 C747 1.653 . S
C1747 C313 1.652 . S
C1751 C761 1.652 . S
C1765 C327 1.654 . S
C1769 C733 1.652 . S
C1783 C341 1.652 . S
C1787 C1293 1.655 . S
C1801 C355 1.656 . S
C1805 C1251 1.655 . S
C1819 C369 1.652 . S
C1823 C1265 1.655 . S
C1837 C383 1.654 . S
C1841 C1279 1.652 . S
C1855 C397 1.652 . S
C1859 C1335 1.652 . S
C1873 C411 1.653 . S
C1877 C1307 1.651 . S
C1891 C1321 1.656 . S
C1895 C425 1.656 . S
C1909 C439 1.656 . S
C1913 C1237 1.655 . S
C1927 C453 1.651 . S
C1931 C1223 1.653 . S
C1945 C1181 1.652 . S
C1949 C467 1.654 . S
C1963 C481 1.656 . S
C1967 C1195 1.656 . S
C1981 C495 1.653 . S
C1985 C1209 1.655 . S
C1999 C509 1.654 . S
C2003 C1139 1.656 . S
C2017 C523 1.655 . S
C2021 C1153 1.656 . S
C2035 C537 1.656 . S
C2039 C1167 1.656 . S
C2053 C1125 1.656 . S
C2057 C551 1.656 . S
C2071 C565 1.656 . S
C2075 C1111 1.654 . S
C2089 C579 1.652 . S
C2093 C1027 1.653 . S
C2107 C593 1.652 . S
C2111 C1041 1.654 . S
C2125 C1055 1.652 . S
C2129 C607 1.653 . S
C2143 C621 1.652 . S
C2147 C1013 1.653 . S
C2161 C1083 1.654 . S
C2165 C635 1.652 . S
C2179 C649 1.656 . S
C2183 C1097 1.655 . S
C2197 C663 1.652 . S
C2201 C1069 1.654 . S
C2215 C9 1.514 . S
C2219 C555 1.516 . S
C2233 C23 1.513 . S
C2237 C513 1.517 . S
C2251 C527 1.517 . S
C2255 C37 1.513 . S
C2269 C51 1.517 . S
C2273 C541 1.513 . S
C2287 C471 1.517 . S
C2291 C65 1.513 . S
C2305 C485 1.515 . S
C2309 C79 1.515 . S
C2323 C499 1.513 . S
C2327 C93 1.517 . S
C2341 C457 1.516 . S
C2345 C107 1.514 . S
C2359 C443 1.515 . S
C2363 C121 1.515 . S
C2377 C135 1.514 . S
C2381 C401 1.517 . S
C2395 C415 1.517 . S
C2399 C149 1.514 . S
C2413 C163 1.517 . S
C2417 C429 1.513 . S
C2431 C359 1.516 . S
C2435 C177 1.514 . S
C2449 C373 1.513 . S
C2453 C191 1.517 . S
C2467 C205 1.514 . S
C2471 C387 1.516 . S
C2485 C219 1.515 . S
C2489 C345 1.515 . S
C2503 C233 1.514 . S
C2507 C625 1.517 . S
C2521 C247 1.517 . S
C2525 C667 1.513 . S
C2539 C639 1.517 . S
C2543 C261 1.514 . S
C2557 C653 1.517 . S
C2561 C275 1.513 . S
C2575 C289 1.517 . S
C2579 C569 1.513 . S
C2593 C303 1.517 . S
C2597 C597 1.514 . S
C2611 C611 1.513 . S
C2615 C317 1.517 . S
C2629 C331 1.513 . S
C2633 C583 1.517 . S
C2647 C1227 1.513 . S
C2651 C681 1.517 . S
C2665 C1185 1.517 . S
C2669 C695 1.513 . S
C2683 C1199 1.517 . S
C2687 C709 1.513 . S
C2701 C723 1.516 . S
C2705 C1213 1.514 . S
C2719 C1143 1.515 . S
C2723 C737 1.515 . S
C2737 C1157 1.514 . S
C2741 C751 1.517 . S
C2755 C765 1.515 . S
C2759 C1171 1.516 . S
C2773 C779 1.513 . S
C2777 C1129 1.517 . S
C2791 C1115 1.514 . S
C2795 C793 1.516 . S
C2809 C807 1.513 . S
C2813 C1073 1.517 . S
C2827 C1087 1.516 . S
C2831 C821 1.514 . S
C2845 C1101 1.516 . S
C2849 C835 1.514 . S
C2863 C849 1.513 . S
C2867 C1031 1.517 . S
C2881 C863 1.515 . S
C2885 C1045 1.516 . S
C2899 C1059 1.516 . S
C2903 C877 1.515 . S
C2917 C891 1.517 . S
C2921 C1017 1.514 . S
C2935 C1297 1.513 . S
C2939 C905 1.517 . S
C2953 C1339 1.515 . S
C2957 C919 1.515 . S
C2971 C933 1.513 . S
C2975 C1311 1.517 . S
C2989 C1325 1.516 . S
C2993 C947 1.514 . S
C3007 C1241 1.517 . S
C3011 C961 1.513 . S
C3025 C1269 1.517 . S
C3029 C975 1.513 . S
C3043 C989 1.513 . S
C3047 C1283 1.517 . S
C3061 C1255 1.513 . S
C3065 C1003 1.517 . S
C3079 C11 1.227 . S
C3083 C403 1.224 . S
C3097 C417 1.230 . S
C3101 C25 1.221 . S
C3115 C39 1.219 . S
C3119 C431 1.232 . S
C3133 C445 1.230 . S
C3137 C53 1.221 . S
C3151 C67 1.222 . S
C3155 C347 1.229 . S
C3169 C81 1.230 . S
C3173 C361 1.221 . S
C3187 C95 1.232 . S
C3191 C375 1.219 . S
C3205 C389 1.220 . S
C3209 C109 1.231 . S
C3223 C543 1.222 . S
C3227 C123 1.230 . S
C3241 C137 1.220 . S
C3245 C557 1.231 . S
C3259 C151 1.220 . S
C3263 C515 1.231 . S
C3277 C165 1.220 . S
C3281 C529 1.231 . S
C3295 C179 1.231 . S
C3299 C487 1.220 . S
C3313 C193 1.230 . S
C3317 C501 1.221 . S
C3331 C207 1.231 . S
C3335 C459 1.220 . S
C3349 C221 1.231 . S
C3353 C473 1.220 . S
C3367 C235 1.221 . S
C3371 C641 1.230 . S
C3385 C249 1.221 . S
C3389 C613 1.230 . S
C3403 C627 1.232 . S
C3407 C263 1.220 . S
C3421 C277 1.229 . S
C3425 C585 1.222 . S
C3439 C599 1.220 . S
C3443 C291 1.231 . S
C3457 C305 1.228 . S
C3461 C571 1.223 . S
C3475 C319 1.232 . S
C3479 C669 1.219 . S
C3493 C655 1.222 . S
C3497 C333 1.229 . S
C3511 C1075 1.232 . S
C3515 C683 1.219 . S
C3529 C697 1.221 . S
C3533 C1089 1.231 . S
C3547 C1103 1.228 . S
C3551 C711 1.223 . S
C3565 C725 1.220 . S
C3569 C1117 1.231 . S
C3583 C1019 1.221 . S
C3587 C739 1.230 . S
C3601 C1033 1.222 . S
C3605 C753 1.229 . S
C3619 C1047 1.224 . S
C3623 C767 1.227 . S
C3637 C781 1.230 . S
C3641 C1061 1.221 . S
C3655 C795 1.221 . S
C3659 C1215 1.230 . S
C3673 C1229 1.221 . S
C3677 C809 1.230 . S
C3691 C1187 1.220 . S
C3695 C823 1.231 . S
C3709 C1201 1.224 . S
C3713 C837 1.227 . S
C3727 C851 1.222 . S
C3731 C1159 1.229 . S
C3745 C865 1.231 . S
C3749 C1173 1.220 . S
C3763 C1131 1.229 . S
C3767 C879 1.222 . S
C3781 C1145 1.225 . S
C3785 C893 1.226 . S
C3799 C1313 1.230 . S
C3803 C907 1.221 . S
C3817 C921 1.221 . S
C3821 C1285 1.230 . S
C3835 C1299 1.231 . S
C3839 C935 1.220 . S
C3853 C949 1.230 . S
C3857 C1257 1.221 . S
C3871 C963 1.220 . S
C3875 C1271 1.231 . S
C3889 C977 1.230 . S
C3893 C1243 1.221 . S
C3907 C1341 1.229 . S
C3911 C991 1.222 . S
C3925 C1005 1.223 . S
C3929 C1327 1.228 . S
C3943 C434 1.245 . S
C3947 C0 1.254 . S
C3961 C392 1.248 . S
C3965 C14 1.251 . S
C3979 C28 1.253 . S
C3983 C406 1.246 . S
C3997 C420 1.253 . S
C4001 C42 1.246 . S
C4015 C350 1.246 . S
C4019 C56 1.253 . S
C4033 C70 1.251 . S
C4037 C364 1.248 . S
C4051 C84 1.255 . S
C4055 C378 1.244 . S
C4069 C336 1.254 . S
C4073 C98 1.245 . S
C4087 C616 1.250 . S
C4091 C112 1.249 . S
C4105 C126 1.244 . S
C4109 C574 1.255 . S
C4123 C140 1.257 . S
C4127 C588 1.242 . S
C4141 C602 1.249 . S
C4145 C154 1.251 . S
C4159 C168 1.256 . S
C4163 C658 1.243 . S
C4177 C630 1.252 . S
C4181 C182 1.247 . S
C4195 C644 1.252 . S
C4199 C196 1.247 . S
C4213 C210 1.254 . S
C4217 C560 1.245 . S
C4231 C224 1.247 . S
C4235 C546 1.252 . S
C4249 C238 1.254 . S
C4253 C462 1.245 . S
C4267 C252 1.257 . S
C4271 C476 1.242 . S
C4285 C490 1.252 . S
C4289 C266 1.247 . S
C4303 C448 1.257 . S
C4307 C280 1.242 . S
C4321 C294 1.249 . S
C4325 C518 1.250 . S
C4339 C308 1.244 . S
C4343 C532 1.255 . S
C4357 C322 1.253 . S
C4361 C504 1.246 . S
C4375 C672 1.255 . S
C4379 C1106 1.244 . S
C4393 C686 1.254 . S
C4397 C1064 1.246 . S
C4411 C700 1.244 . S
C4415 C1078 1.255 . S
C4429 C1092 1.254 . S
C4433 C714 1.245 . S
C4447 C1022 1.250 . S
C4451 C728 1.249 . S
C4465 C1036 1.247 . S
C4469 C742 1.252 . S
C4483 C756 1.242 . S
C4487 C1050 1.257 . S
C4501 C1008 1.252 . S
C4505 C770 1.247 . S
C4519 C1288 1.252 . S
C4523 C784 1.247 . S
C4537 C1246 1.253 . S
C4541 C798 1.246 . S
C4555 C1260 1.253 . S
C4559 C812 1.246 . S
C4573 C1274 1.244 . S
C4577 C826 1.255 . S
C4591 C1330 1.243 . S
C4595 C840 1.256 . S
C4609 C1302 1.244 . S
C4613 C854 1.255 . S
C4627 C1316 1.254 . S
C4631 C868 1.245 . S
C4645 C1232 1.248 . S
C4649 C882 1.251 . S
C4663 C896 1.246 . S
C4667 C1218 1.253 . S
C4681 C1134 1.254 . S
C4685 C910 1.245 . S
C4699 C1148 1.250 . S
C4703 C924 1.249 . S
C4717 C1162 1.252 . S
C4721 C938 1.247 . S
C4735 C1120 1.257 . S
C4739 C952 1.242 . S
C4753 C1190 1.245 . S
C4757 C966 1.254 . S
C4771 C1204 1.244 . S
C4775 C980 1.255 . S
C4789 C1176 1.254 . S
C4793 C994 1.245 . S
