# Generated by pormake.
# Topology vby, (6)-cn, num edge types: 1
# Building blocks:
#     Node 0, Type 0, BuildingBlock: NUHQIS_clean_sbu_0, # of connection points: 6
#     Node 1, Type 0, BuildingBlock: NUHQIS_clean_sbu_0, # of connection points: 6
#     Node 2, Type 0, BuildingBlock: NUHQIS_clean_sbu_0, # of connection points: 6
#     Node 3, Type 0, BuildingBlock: NUHQIS_clean_sbu_0, # of connection points: 6
#     Node 4, Type 0, BuildingBlock: NUHQIS_clean_sbu_0, # of connection points: 6
#     Node 5, Type 0, BuildingBlock: NUHQIS_clean_sbu_0, # of connection points: 6
#     Node 6, Type 0, BuildingBlock: NUHQIS_clean_sbu_0, # of connection points: 6
#     Node 7, Type 0, BuildingBlock: NUHQIS_clean_sbu_0, # of connection points: 6
#     Edge 8, Type (0, 0), None
#     Edge 9, Type (0, 0), None
#     Edge 10, Type (0, 0), None
#     Edge 11, Type (0, 0), None
#     Edge 12, Type (0, 0), None
#     Edge 13, Type (0, 0), None
#     Edge 14, Type (0, 0), None
#     Edge 15, Type (0, 0), None
#     Edge 16, Type (0, 0), None
#     Edge 17, Type (0, 0), None
#     Edge 18, Type (0, 0), None
#     Edge 19, Type (0, 0), None
#     Edge 20, Type (0, 0), None
#     Edge 21, Type (0, 0), None
#     Edge 22, Type (0, 0), None
#     Edge 23, Type (0, 0), None
#     Edge 24, Type (0, 0), None
#     Edge 25, Type (0, 0), None
#     Edge 26, Type (0, 0), None
#     Edge 27, Type (0, 0), None
#     Edge 28, Type (0, 0), None
#     Edge 29, Type (0, 0), None
#     Edge 30, Type (0, 0), None
#     Edge 31, Type (0, 0), None
# Relax obj value: 0.185
# Max RMSD: 0.246
# Mean RMSD: 0.235
data_MOF--net-vby--node1-NUHQIS_clean_sbu_0--edge1-none
_symmetry_space_group_name_H-M    P1
_symmetry_Int_Tables_number       1
_symmetry_cell_setting            triclinic
loop_
_symmetry_equiv_pos_as_xyz
'x, y, z'
_cell_length_a     6.9136329
_cell_length_b     67.77909
_cell_length_c     13.533746
_cell_angle_alpha  87.43945
_cell_angle_beta   89.294116
_cell_angle_gamma 90.092704
loop_
_atom_site_label
_atom_site_type_symbol
_atom_site_fract_x
_atom_site_fract_y
_atom_site_fract_z
_atom_type_partial_charge
Tb0 Tb 1.04998 0.45751 0.92457 0.0
Eu1 Eu 1.04679 0.40727 0.93366 0.0
C2 C 1.07352 0.43258 0.1257 0.0
C3 C 0.44528 0.43298 0.93062 0.0
C4 C 0.90103 0.51075 0.94466 0.0
C5 C 0.84949 0.54313 0.01128 0.0
C6 C 0.97204 0.52738 -0.00924 0.0
C7 C 0.70395 0.51003 0.92066 0.0
C8 C 0.58132 0.52582 0.94086 0.0
C9 C 0.65253 0.54263 -0.01387 0.0
C10 C 1.03655 0.49489 0.91812 0.0
O11 O 0.14159 0.44783 0.77987 0.0
O12 O 0.97152 0.41884 0.7814 0.0
O13 O 0.74081 0.41646 0.96035 0.0
O14 O 0.74824 0.44935 0.90582 0.0
C15 C 1.0627 0.4333 0.73357 0.0
O16 O 0.10078 0.38019 0.85764 0.0
O17 O 0.97154 0.37857 0.00501 0.0
O18 O 0.13912 0.41702 0.08193 0.0
O19 O 0.98821 0.44729 0.07695 0.0
O20 O 0.35435 0.44987 0.9392 0.0
O21 O 0.35972 0.41587 0.92028 0.0
C22 C 0.65555 0.43303 0.93323 0.0
O23 O 0.11241 0.48437 -0.00926 0.0
O24 O 0.9866 0.48398 0.84564 0.0
C25 C 0.14271 0.34992 0.9526 0.0
C26 C 0.30526 0.31174 0.98087 0.0
C27 C 0.3591 0.32405 0.89863 0.0
C28 C 0.27863 0.34287 0.88455 0.0
C29 C 0.09049 0.33774 0.03549 0.0
C30 C 0.1713 0.31891 0.04968 0.0
C31 C 1.0378 0.36867 0.9311 0.0
H32 H 0.91033 0.55589 0.04513 0.0
H33 H 0.1232 0.5283 0.01001 0.0
H34 H 0.64467 0.49734 0.88546 0.0
H35 H 0.43051 0.52477 0.92135 0.0
H36 H 0.45945 0.31895 0.84331 0.0
H37 H 0.31935 0.35165 0.81871 0.0
H38 H 0.98384 0.3426 0.08841 0.0
H39 H 0.12829 0.30997 0.11459 0.0
Tb40 Tb 0.12605 0.64545 0.06055 0.0
Eu41 Eu 0.12902 0.69573 0.04937 0.0
C42 C 0.10852 0.67001 0.2503 0.0
C43 C 0.73061 0.66996 0.05262 0.0
C44 C 0.27714 0.5919 0.04682 0.0
C45 C 0.54046 0.56969 0.09497 0.0
C46 C 0.41919 0.58558 0.11474 0.0
C47 C 0.25806 0.58173 0.95912 0.0
C48 C 0.37965 0.56582 0.93925 0.0
C49 C 0.52259 0.55958 0.00694 0.0
C50 C 0.14101 0.60805 0.07047 0.0
O51 O 0.18996 0.65538 0.90826 0.0
O52 O 1.0407 0.68576 0.90058 0.0
O53 O 0.43501 0.68645 0.02389 0.0
O54 O 0.42771 0.65363 0.07929 0.0
C55 C 0.10687 0.67005 0.8582 0.0
O56 O 0.21551 0.72416 0.97834 0.0
O57 O 1.066 0.72313 0.12095 0.0
O58 O 0.19985 0.68457 0.20319 0.0
O59 O 1.03057 0.65554 0.20341 0.0
O60 O 0.82164 0.65303 0.04511 0.0
O61 O 0.81599 0.68713 0.0613 0.0
C62 C 0.5203 0.66989 0.05092 0.0
O63 O 0.18847 0.61927 0.14223 0.0
O64 O 1.06549 0.61833 -0.00323 0.0
C65 C 1.04772 0.75331 0.02383 0.0
C66 C 0.88764 0.79148 -0.00579 0.0
C67 C 1.0831 0.78792 0.97099 0.0
C68 C 0.16182 0.76904 -0.01445 0.0
C69 C 0.85149 0.75663 0.04535 0.0
C70 C 0.77228 0.77553 0.03063 0.0
C71 C 0.14263 0.73431 0.04965 0.0
H72 H 0.64599 0.5651 0.14976 0.0
H73 H 0.43563 0.59276 0.18409 0.0
H74 H 0.14805 0.58596 0.90602 0.0
H75 H 0.36233 0.5585 0.87037 0.0
H76 H 0.17715 0.79983 0.94407 0.0
H77 H 0.31386 0.76684 0.96925 0.0
H78 H 0.76027 0.74474 0.07518 0.0
H79 H 0.62074 0.77766 0.04804 0.0
Tb80 Tb 1.07205 0.69407 0.55075 0.0
Eu81 Eu 1.07045 0.64372 0.56038 0.0
C82 C 0.09179 0.66997 0.35832 0.0
C83 C 0.67893 0.66947 0.55505 0.0
C84 C 0.14827 0.75061 0.5243 0.0
C85 C 0.1033 0.78503 0.4702 0.0
C86 C 1.0307 0.76586 0.48554 0.0
C87 C 0.34225 0.75478 0.54537 0.0
C88 C 0.4154 0.77401 0.52985 0.0
C89 C 0.29605 0.78946 0.49326 0.0
C90 C 1.05685 0.73139 0.55254 0.0
O91 O 1.00143 0.68321 0.7007 0.0
O92 O 0.16653 0.65394 0.70724 0.0
O93 O 0.38282 0.65233 0.54613 0.0
O94 O 0.37801 0.68651 0.55992 0.0
C95 C 0.09344 0.66917 0.75051 0.0
O96 O 1.00339 0.6159 0.64009 0.0
O97 O 0.12945 0.61553 0.49253 0.0
O98 O 1.00872 0.65476 0.40501 0.0
O99 O 0.16046 0.68505 0.40467 0.0
O100 O 0.77253 0.68568 0.52723 0.0
O101 O 0.76341 0.65294 0.58367 0.0
C102 C 0.46857 0.66953 0.55287 0.0
O103 O 0.98239 0.72113 0.48306 0.0
O104 O 0.13833 0.72018 0.62094 0.0
C105 C 0.91244 0.58945 0.54089 0.0
C106 C 0.65575 0.55836 0.49943 0.0
C107 C 0.58845 0.57522 0.54621 0.0
C108 C 0.71514 0.59062 0.56638 0.0
C109 C 0.97975 0.57276 0.49345 0.0
C110 C 0.85299 0.55739 0.47282 0.0
C111 C 1.0507 0.6051 0.56601 0.0
H112 H 1.00612 0.79652 0.44321 0.0
H113 H 0.88 0.76306 0.46994 0.0
H114 H 0.43614 0.74332 0.57577 0.0
H115 H 0.56524 0.77679 0.54704 0.0
H116 H 0.43738 0.57661 0.5666 0.0
H117 H 0.65867 0.6034 0.60243 0.0
H118 H 0.13101 0.57152 0.47295 0.0
H119 H 0.9104 0.54458 0.43752 0.0
Tb120 Tb 0.1048 0.45747 0.42322 0.0
Eu121 Eu 0.10553 0.40713 0.43389 0.0
C122 C 0.09026 0.43304 0.23345 0.0
C123 C 0.70813 0.43289 0.43123 0.0
C124 C 0.26511 0.51058 0.43722 0.0
C125 C 0.53502 0.53228 0.38841 0.0
C126 C 0.40844 0.5169 0.36804 0.0
C127 C 0.25016 0.52024 0.52682 0.0
C128 C 0.37688 0.53566 0.5472 0.0
C129 C 0.52104 0.54188 0.47823 0.0
C130 C 0.1252 0.49483 0.41343 0.0
O131 O 0.16227 0.44767 0.57569 0.0
O132 O 1.01262 0.41723 0.58277 0.0
O133 O 0.41067 0.41633 0.45981 0.0
O134 O 0.4067 0.44913 0.40392 0.0
C135 C 1.07834 0.43286 0.62556 0.0
O136 O 0.17854 0.37848 0.50557 0.0
O137 O 1.05226 0.37988 0.35923 0.0
O138 O 0.18199 0.41867 0.28043 0.0
O139 O 1.01237 0.44761 0.28036 0.0
O140 O 0.79933 0.44981 0.43928 0.0
O141 O 0.79343 0.41573 0.42202 0.0
C142 C 0.49764 0.43292 0.43284 0.0
O143 O 0.17275 0.48359 0.34126 0.0
O144 O 1.04451 0.48464 0.48708 0.0
C145 C 1.01658 0.34923 0.45349 0.0
C146 C 0.87066 0.31014 0.48027 0.0
C147 C 0.99733 0.31792 0.5494 0.0
C148 C 1.06983 0.33719 0.53598 0.0
C149 C 0.88792 0.34157 0.3851 0.0
C150 C 0.8156 0.32232 0.39845 0.0
C151 C 0.11554 0.36846 0.4321 0.0
H152 H 0.64168 0.5369 0.33278 0.0
H153 H 0.42201 0.5101 0.29736 0.0
H154 H 0.13956 0.51599 0.58105 0.0
H155 H 0.36251 0.54262 0.6174 0.0
H156 H 1.04101 0.30911 0.61402 0.0
H157 H 0.17131 0.34249 0.58913 0.0
H158 H 0.84699 0.35022 0.31946 0.0
H159 H 0.7207 0.31679 0.34289 0.0
Tb160 Tb 0.54998 0.95751 0.92457 0.0
Eu161 Eu 0.54679 0.90727 0.93366 0.0
C162 C 0.57352 0.93258 0.1257 0.0
C163 C 0.94528 0.93298 0.93062 0.0
C164 C 0.40103 1.01075 0.94466 0.0
C165 C 0.34949 1.04313 0.01128 0.0
C166 C 0.47204 1.02738 -0.00924 0.0
C167 C 0.20395 1.01003 0.92066 0.0
C168 C 1.08132 1.02582 0.94086 0.0
C169 C 0.15253 1.04263 -0.01387 0.0
C170 C 0.53655 0.99489 0.91812 0.0
O171 O 0.64159 0.94783 0.77987 0.0
O172 O 0.47152 0.91884 0.7814 0.0
O173 O 0.24081 0.91646 0.96035 0.0
O174 O 0.24824 0.94935 0.90582 0.0
C175 C 0.5627 0.9333 0.73357 0.0
O176 O 0.60078 0.88019 0.85764 0.0
O177 O 0.47154 0.87857 0.00501 0.0
O178 O 0.63912 0.91702 0.08193 0.0
O179 O 0.48821 0.94729 0.07695 0.0
O180 O 0.85435 0.94987 0.9392 0.0
O181 O 0.85972 0.91587 0.92028 0.0
C182 C 0.15555 0.93303 0.93323 0.0
O183 O 0.61241 0.98437 -0.00926 0.0
O184 O 0.4866 0.98398 0.84564 0.0
C185 C 0.64271 0.84992 0.9526 0.0
C186 C 0.80526 0.81174 0.98087 0.0
C187 C 0.8591 0.82405 0.89862 0.0
C188 C 0.77862 0.84287 0.88455 0.0
C189 C 0.59049 0.83774 0.03548 0.0
C190 C 0.6713 0.81891 0.04968 0.0
C191 C 0.5378 0.86867 0.93109 0.0
H192 H 0.41033 0.05589 0.04513 0.0
H193 H 0.6232 1.0283 0.01001 0.0
H194 H 0.14467 0.99735 0.88546 0.0
H195 H 0.93051 1.02477 0.92135 0.0
H196 H 0.95945 0.81895 0.8433 0.0
H197 H 0.81935 0.85165 0.81871 0.0
H198 H 0.48384 0.8426 0.08841 0.0
H199 H 0.62829 0.80997 0.11458 0.0
Tb200 Tb 0.62605 0.14545 0.06055 0.0
Eu201 Eu 0.62902 0.19573 0.04937 0.0
C202 C 0.60852 0.17001 0.25031 0.0
C203 C 0.23061 0.16996 0.05263 0.0
C204 C 0.77714 0.0919 0.04682 0.0
C205 C 1.04046 0.06969 0.09497 0.0
C206 C 0.91919 0.08558 0.11474 0.0
C207 C 0.75806 0.08173 0.95912 0.0
C208 C 0.87965 0.06582 0.93925 0.0
C209 C 1.02259 0.05958 0.00694 0.0
C210 C 0.64101 0.10805 0.07047 0.0
O211 O 0.68996 0.15538 0.90826 0.0
O212 O 0.5407 0.18576 0.90058 0.0
O213 O 0.93501 0.18645 0.0239 0.0
O214 O 0.92771 0.15363 0.07929 0.0
C215 C 0.60687 0.17005 0.8582 0.0
O216 O 0.71551 0.22416 0.97834 0.0
O217 O 0.566 0.22313 0.12095 0.0
O218 O 0.69985 0.18457 0.2032 0.0
O219 O 0.53057 0.15554 0.20341 0.0
O220 O 0.32164 0.15303 0.04511 0.0
O221 O 0.31599 0.18713 0.0613 0.0
C222 C 1.0203 0.16989 0.05092 0.0
O223 O 0.68847 0.11927 0.14223 0.0
O224 O 0.56549 0.11833 -0.00323 0.0
C225 C 0.54772 0.25331 0.02383 0.0
C226 C 0.38764 0.29148 -0.00578 0.0
C227 C 0.5831 0.28792 0.97099 0.0
C228 C 0.66182 0.26904 -0.01445 0.0
C229 C 0.35149 0.25663 0.04535 0.0
C230 C 0.27228 0.27553 0.03063 0.0
C231 C 0.64263 0.23431 0.04965 0.0
H232 H 0.14599 0.0651 0.14976 0.0
H233 H 0.93562 0.09276 0.18409 0.0
H234 H 0.64805 0.08596 0.90602 0.0
H235 H 0.86233 0.05851 0.87037 0.0
H236 H 0.67715 0.29983 0.94407 0.0
H237 H 0.81387 0.26684 0.96925 0.0
H238 H 0.26027 0.24474 0.07518 0.0
H239 H 0.12074 0.27766 0.04804 0.0
Tb240 Tb 0.57205 0.19407 0.55075 0.0
Eu241 Eu 0.57045 0.14372 0.56038 0.0
C242 C 0.59179 0.16997 0.35832 0.0
C243 C 0.17893 0.16947 0.55505 0.0
C244 C 0.64827 0.25061 0.52431 0.0
C245 C 0.6033 0.28503 0.47021 0.0
C246 C 0.5307 0.26586 0.48554 0.0
C247 C 0.84225 0.25478 0.54538 0.0
C248 C 0.91539 0.27401 0.52985 0.0
C249 C 0.79605 0.28946 0.49326 0.0
C250 C 0.55685 0.23139 0.55254 0.0
O251 O 0.50143 0.18321 0.70071 0.0
O252 O 0.66653 0.15394 0.70724 0.0
O253 O 0.88282 0.15233 0.54613 0.0
O254 O 0.87801 0.18651 0.55993 0.0
C255 C 0.59344 0.16917 0.75051 0.0
O256 O 0.50339 0.1159 0.64009 0.0
O257 O 0.62945 0.11553 0.49253 0.0
O258 O 0.50872 0.15476 0.40502 0.0
O259 O 0.66046 0.18505 0.40467 0.0
O260 O 0.27253 0.18568 0.52723 0.0
O261 O 0.26341 0.15294 0.58367 0.0
C262 C 0.96857 0.16953 0.55288 0.0
O263 O 0.48239 0.22113 0.48306 0.0
O264 O 0.63833 0.22018 0.62095 0.0
C265 C 0.41244 0.08945 0.54089 0.0
C266 C 0.15575 0.05836 0.49943 0.0
C267 C 0.08845 0.07522 0.54621 0.0
C268 C 0.21514 0.09062 0.56638 0.0
C269 C 0.47975 0.07276 0.49345 0.0
C270 C 0.35299 0.05739 0.47282 0.0
C271 C 0.5507 0.1051 0.56601 0.0
H272 H 0.50612 0.29652 0.44321 0.0
H273 H 0.38 0.26306 0.46995 0.0
H274 H 0.93614 0.24332 0.57578 0.0
H275 H 1.06524 0.27679 0.54704 0.0
H276 H 0.93738 0.07661 0.56661 0.0
H277 H 0.15867 0.1034 0.60243 0.0
H278 H 0.63101 0.07152 0.47295 0.0
H279 H 0.4104 1.04458 0.43752 0.0
Tb280 Tb 0.6048 0.95747 0.42321 0.0
Eu281 Eu 0.60553 0.90713 0.43389 0.0
C282 C 0.59026 0.93304 0.23345 0.0
C283 C 0.20813 0.93289 0.43123 0.0
C284 C 0.76511 1.01058 0.43722 0.0
C285 C 1.03502 1.03228 0.38841 0.0
C286 C 0.90844 1.0169 0.36803 0.0
C287 C 0.75016 1.02024 0.52682 0.0
C288 C 0.87687 1.03566 0.5472 0.0
C289 C 1.02104 1.04188 0.47823 0.0
C290 C 0.6252 0.99483 0.41342 0.0
O291 O 0.66227 0.94767 0.57569 0.0
O292 O 0.51262 0.91723 0.58277 0.0
O293 O 0.91067 0.91633 0.45981 0.0
O294 O 0.9067 0.94913 0.40392 0.0
C295 C 0.57834 0.93286 0.62556 0.0
O296 O 0.67854 0.87848 0.50557 0.0
O297 O 0.55226 0.87988 0.35923 0.0
O298 O 0.68199 0.91867 0.28043 0.0
O299 O 0.51237 0.94761 0.28036 0.0
O300 O 0.29933 0.94981 0.43928 0.0
O301 O 0.29343 0.91573 0.42202 0.0
C302 C 0.99764 0.93292 0.43283 0.0
O303 O 0.67275 0.98359 0.34126 0.0
O304 O 0.54451 0.98464 0.48707 0.0
C305 C 0.51658 0.84923 0.45349 0.0
C306 C 0.37066 0.81014 0.48027 0.0
C307 C 0.49733 0.81792 0.5494 0.0
C308 C 0.56983 0.83719 0.53598 0.0
C309 C 0.38792 0.84157 0.38509 0.0
C310 C 0.3156 0.82232 0.39845 0.0
C311 C 0.61554 0.86846 0.4321 0.0
H312 H 0.14168 1.0369 0.33278 0.0
H313 H 0.92201 1.0101 0.29736 0.0
H314 H 0.63956 1.01599 0.58105 0.0
H315 H 0.86251 1.04262 0.6174 0.0
H316 H 0.541 0.80911 0.61402 0.0
H317 H 0.67131 0.84249 0.58913 0.0
H318 H 0.34699 0.85022 0.31946 0.0
H319 H 0.2207 0.81679 0.34288 0.0
loop_
_geom_bond_atom_site_label_1
_geom_bond_atom_site_label_2
_geom_bond_distance
_geom_bond_site_symmetry_2
_ccdc_geom_bond_type
Tb0 C10 2.825 1_454 S
Tb0 O11 2.347 1_554 S
Tb0 O14 2.366 1_455 S
Tb0 O19 2.418 . S
Tb0 O20 2.384 . S
Tb0 O23 2.479 . S
Tb0 O24 2.471 1_454 S
Eu1 O12 2.418 1_655 S
Eu1 O13 2.384 . S
Eu1 O16 2.479 1_655 S
Eu1 O17 2.471 1_656 S
Eu1 O18 2.347 1_656 S
Eu1 O21 2.366 1_655 S
Eu1 C31 2.825 1_656 S
C2 O18 1.259 . S
C2 O19 1.265 . S
C3 O20 1.254 1_556 S
C3 O21 1.266 . S
C4 C6 1.380 1_556 S
C4 C7 1.374 . S
C4 C10 1.507 . S
C5 C6 1.384 . S
C5 C9 1.387 1_554 S
C5 H32 0.930 . S
C6 C4 1.380 1_554 S
C6 C5 1.384 . S
C6 H33 0.931 . S
C7 C4 1.374 . S
C7 C8 1.390 . S
C7 H34 0.930 . S
C8 C7 1.390 . S
C8 C9 1.391 . S
C8 H35 0.930 . S
C9 C5 1.387 1_556 S
C9 C8 1.391 . S
C10 Tb0 2.825 1_656 S
C10 C4 1.507 . S
C10 O23 1.238 1_656 S
C10 O24 1.247 . S
O11 Tb0 2.347 1_556 S
O11 C15 1.259 . S
O12 Eu1 2.418 1_455 S
O12 C15 1.265 . S
O13 Eu1 2.384 . S
O13 C22 1.255 1_556 S
O14 Tb0 2.366 1_655 S
O14 C22 1.265 . S
C15 O11 1.259 . S
C15 O12 1.265 . S
O16 Eu1 2.479 1_455 S
O16 C31 1.238 1_556 S
O17 Eu1 2.471 1_454 S
O17 C31 1.247 . S
O18 Eu1 2.347 1_454 S
O18 C2 1.259 . S
O19 Tb0 2.418 . S
O19 C2 1.265 . S
O20 Tb0 2.384 . S
O20 C3 1.254 1_554 S
O21 Eu1 2.366 1_455 S
O21 C3 1.266 . S
C22 O13 1.255 1_554 S
C22 O14 1.265 . S
O23 Tb0 2.479 . S
O23 C10 1.238 1_454 S
O24 Tb0 2.471 1_656 S
O24 C10 1.247 . S
C25 C28 1.380 1_554 S
C25 C29 1.374 . S
C25 C31 1.507 . S
C26 C27 1.387 1_554 S
C26 C30 1.391 . S
C27 C26 1.387 1_556 S
C27 C28 1.384 . S
C27 H36 0.930 . S
C28 C25 1.380 1_556 S
C28 C27 1.384 . S
C28 H37 0.931 . S
C29 C25 1.374 . S
C29 C30 1.390 . S
C29 H38 0.930 . S
C30 C26 1.391 . S
C30 C29 1.390 . S
C30 H39 0.930 . S
C31 Eu1 2.825 1_454 S
C31 O16 1.238 1_554 S
C31 O17 1.247 . S
C31 C25 1.507 . S
H32 C5 0.930 . S
H33 C6 0.931 . S
H34 C7 0.930 . S
H35 C8 0.930 . S
H36 C27 0.930 . S
H37 C28 0.931 . S
H38 C29 0.930 . S
H39 C30 0.930 . S
Tb40 C50 2.825 1_655 S
Tb40 O51 2.347 1_554 S
Tb40 O54 2.366 1_655 S
Tb40 O59 2.418 . S
Tb40 O60 2.384 . S
Tb40 O63 2.479 . S
Tb40 O64 2.471 1_654 S
Eu41 O52 2.418 1_455 S
Eu41 O53 2.384 . S
Eu41 O56 2.479 1_455 S
Eu41 O57 2.471 1_456 S
Eu41 O58 2.347 1_456 S
Eu41 O61 2.366 1_455 S
Eu41 C71 2.825 1_455 S
C42 O58 1.259 . S
C42 O59 1.265 . S
C43 O60 1.255 . S
C43 O61 1.265 1_554 S
C44 C46 1.380 . S
C44 C47 1.374 1_554 S
C44 C50 1.507 . S
C45 C46 1.384 . S
C45 C49 1.387 1_554 S
C45 H72 0.930 . S
C46 C44 1.380 . S
C46 C45 1.384 . S
C46 H73 0.931 . S
C47 C44 1.374 1_556 S
C47 C48 1.390 . S
C47 H74 0.930 . S
C48 C47 1.390 . S
C48 C49 1.391 . S
C48 H75 0.930 . S
C49 C45 1.387 1_556 S
C49 C48 1.391 . S
C50 Tb40 2.825 1_455 S
C50 C44 1.507 . S
C50 O63 1.238 1_455 S
C50 O64 1.247 1_554 S
O51 Tb40 2.347 1_556 S
O51 C55 1.259 . S
O52 Eu41 2.418 1_655 S
O52 C55 1.265 . S
O53 Eu41 2.384 . S
O53 C62 1.255 1_556 S
O54 Tb40 2.366 1_455 S
O54 C62 1.265 . S
C55 O51 1.259 . S
C55 O52 1.265 . S
O56 Eu41 2.479 1_655 S
O56 C71 1.238 . S
O57 Eu41 2.471 1_654 S
O57 C71 1.247 1_554 S
O58 Eu41 2.347 1_654 S
O58 C42 1.259 . S
O59 Tb40 2.418 . S
O59 C42 1.265 . S
O60 Tb40 2.384 . S
O60 C43 1.255 . S
O61 Eu41 2.366 1_655 S
O61 C43 1.265 1_556 S
C62 O53 1.255 1_554 S
C62 O54 1.265 . S
O63 Tb40 2.479 . S
O63 C50 1.238 1_655 S
O64 Tb40 2.471 1_456 S
O64 C50 1.247 1_556 S
C65 C68 1.380 1_554 S
C65 C69 1.374 . S
C65 C71 1.507 1_554 S
C66 C67 1.387 1_554 S
C66 C70 1.391 . S
C67 C66 1.387 1_556 S
C67 C68 1.384 . S
C67 H76 0.930 . S
C68 C65 1.380 1_556 S
C68 C67 1.384 . S
C68 H77 0.931 . S
C69 C65 1.374 . S
C69 C70 1.390 . S
C69 H78 0.930 . S
C70 C66 1.391 . S
C70 C69 1.390 . S
C70 H79 0.930 . S
C71 Eu41 2.825 1_655 S
C71 O56 1.238 . S
C71 O57 1.247 1_556 S
C71 C65 1.507 1_556 S
H72 C45 0.930 . S
H73 C46 0.931 . S
H74 C47 0.930 . S
H75 C48 0.930 . S
H76 C67 0.930 . S
H77 C68 0.931 . S
H78 C69 0.930 . S
H79 C70 0.930 . S
Tb80 C90 2.826 1_655 S
Tb80 O91 2.347 1_655 S
Tb80 O94 2.367 1_655 S
Tb80 O99 2.418 1_655 S
Tb80 O100 2.383 . S
Tb80 O103 2.479 1_655 S
Tb80 O104 2.472 1_655 S
Eu81 O92 2.418 . S
Eu81 O93 2.384 . S
Eu81 O96 2.479 . S
Eu81 O97 2.471 1_455 S
Eu81 O98 2.347 . S
Eu81 O101 2.366 1_455 S
Eu81 C111 2.825 1_455 S
C82 O98 1.259 . S
C82 O99 1.265 . S
C83 O100 1.255 . S
C83 O101 1.265 . S
C84 C86 1.380 . S
C84 C87 1.374 . S
C84 C90 1.507 . S
C85 C86 1.384 . S
C85 C89 1.387 . S
C85 H112 0.930 . S
C86 C84 1.380 . S
C86 C85 1.384 . S
C86 H113 0.931 . S
C87 C84 1.374 . S
C87 C88 1.390 . S
C87 H114 0.930 . S
C88 C87 1.390 . S
C88 C89 1.391 . S
C88 H115 0.930 . S
C89 C85 1.387 . S
C89 C88 1.391 . S
C90 Tb80 2.826 1_455 S
C90 C84 1.507 . S
C90 O103 1.238 . S
C90 O104 1.247 . S
O91 Tb80 2.347 1_455 S
O91 C95 1.259 . S
O92 Eu81 2.418 . S
O92 C95 1.265 . S
O93 Eu81 2.384 . S
O93 C102 1.255 . S
O94 Tb80 2.367 1_455 S
O94 C102 1.265 . S
C95 O91 1.259 . S
C95 O92 1.265 . S
O96 Eu81 2.479 . S
O96 C111 1.238 1_455 S
O97 Eu81 2.471 1_655 S
O97 C111 1.247 . S
O98 Eu81 2.347 . S
O98 C82 1.259 . S
O99 Tb80 2.418 1_455 S
O99 C82 1.265 . S
O100 Tb80 2.383 . S
O100 C83 1.255 . S
O101 Eu81 2.366 1_655 S
O101 C83 1.265 . S
C102 O93 1.255 . S
C102 O94 1.265 . S
O103 Tb80 2.479 1_455 S
O103 C90 1.238 . S
O104 Tb80 2.472 1_455 S
O104 C90 1.247 . S
C105 C108 1.380 . S
C105 C109 1.374 . S
C105 C111 1.507 . S
C106 C107 1.387 . S
C106 C110 1.391 . S
C107 C106 1.387 . S
C107 C108 1.384 . S
C107 H116 0.930 . S
C108 C105 1.380 . S
C108 C107 1.384 . S
C108 H117 0.931 . S
C109 C105 1.374 . S
C109 C110 1.390 . S
C109 H118 0.930 . S
C110 C106 1.391 . S
C110 C109 1.390 . S
C110 H119 0.930 . S
C111 Eu81 2.825 1_655 S
C111 O96 1.238 1_655 S
C111 O97 1.247 . S
C111 C105 1.507 . S
H112 C85 0.930 . S
H113 C86 0.931 . S
H114 C87 0.930 . S
H115 C88 0.930 . S
H116 C107 0.930 . S
H117 C108 0.931 . S
H118 C109 0.930 . S
H119 C110 0.930 . S
Tb120 C130 2.825 1_655 S
Tb120 O131 2.347 . S
Tb120 O134 2.366 1_655 S
Tb120 O139 2.418 . S
Tb120 O140 2.384 . S
Tb120 O143 2.479 . S
Tb120 O144 2.471 1_655 S
Eu121 O132 2.418 1_455 S
Eu121 O133 2.384 . S
Eu121 O136 2.479 1_455 S
Eu121 O137 2.471 1_455 S
Eu121 O138 2.347 1_455 S
Eu121 O141 2.366 1_455 S
Eu121 C151 2.825 1_455 S
C122 O138 1.259 . S
C122 O139 1.265 . S
C123 O140 1.255 . S
C123 O141 1.265 . S
C124 C126 1.380 . S
C124 C127 1.374 . S
C124 C130 1.507 . S
C125 C126 1.384 . S
C125 C129 1.387 . S
C125 H152 0.930 . S
C126 C124 1.380 . S
C126 C125 1.384 . S
C126 H153 0.931 . S
C127 C124 1.374 . S
C127 C128 1.390 . S
C127 H154 0.930 . S
C128 C127 1.390 . S
C128 C129 1.391 . S
C128 H155 0.930 . S
C129 C125 1.387 . S
C129 C128 1.391 . S
C130 Tb120 2.825 1_455 S
C130 C124 1.507 . S
C130 O143 1.238 1_455 S
C130 O144 1.247 . S
O131 Tb120 2.347 . S
O131 C135 1.259 . S
O132 Eu121 2.418 1_655 S
O132 C135 1.265 . S
O133 Eu121 2.384 . S
O133 C142 1.255 . S
O134 Tb120 2.366 1_455 S
O134 C142 1.265 . S
C135 O131 1.259 . S
C135 O132 1.265 . S
O136 Eu121 2.479 1_655 S
O136 C151 1.238 . S
O137 Eu121 2.471 1_655 S
O137 C151 1.247 . S
O138 Eu121 2.347 1_655 S
O138 C122 1.259 . S
O139 Tb120 2.418 . S
O139 C122 1.265 . S
O140 Tb120 2.384 . S
O140 C123 1.255 . S
O141 Eu121 2.366 1_655 S
O141 C123 1.265 . S
C142 O133 1.255 . S
C142 O134 1.265 . S
O143 Tb120 2.479 . S
O143 C130 1.238 1_655 S
O144 Tb120 2.471 1_455 S
O144 C130 1.247 . S
C145 C148 1.380 . S
C145 C149 1.374 . S
C145 C151 1.507 . S
C146 C147 1.387 . S
C146 C150 1.391 . S
C147 C146 1.387 . S
C147 C148 1.384 . S
C147 H156 0.930 . S
C148 C145 1.380 . S
C148 C147 1.384 . S
C148 H157 0.931 . S
C149 C145 1.374 . S
C149 C150 1.390 . S
C149 H158 0.930 . S
C150 C146 1.391 . S
C150 C149 1.390 . S
C150 H159 0.930 . S
C151 Eu121 2.825 1_655 S
C151 O136 1.238 . S
C151 O137 1.247 . S
C151 C145 1.507 . S
H152 C125 0.930 . S
H153 C126 0.931 . S
H154 C127 0.930 . S
H155 C128 0.930 . S
H156 C147 0.930 . S
H157 C148 0.931 . S
H158 C149 0.930 . S
H159 C150 0.930 . S
Tb160 C170 2.825 1_554 S
Tb160 O171 2.347 1_554 S
Tb160 O174 2.366 . S
Tb160 O179 2.418 . S
Tb160 O180 2.384 . S
Tb160 O183 2.479 . S
Tb160 O184 2.471 1_554 S
Eu161 O172 2.418 . S
Eu161 O173 2.384 . S
Eu161 O176 2.479 . S
Eu161 O177 2.471 1_556 S
Eu161 O178 2.347 1_556 S
Eu161 O181 2.366 . S
Eu161 C191 2.825 1_556 S
C162 O178 1.259 . S
C162 O179 1.265 . S
C163 O180 1.256 1_556 S
C163 O181 1.264 . S
C164 C166 1.380 1_556 S
C164 C167 1.374 . S
C164 C170 1.507 . S
C165 C166 1.384 . S
C165 C169 1.387 1_554 S
C165 H192 0.930 . S
C166 C164 1.380 1_554 S
C166 C165 1.384 . S
C166 H193 0.931 . S
C167 C164 1.374 . S
C167 C168 1.390 . S
C167 H194 0.930 . S
C168 C167 1.390 . S
C168 C169 1.391 . S
C168 H195 0.930 . S
C169 C165 1.387 1_556 S
C169 C168 1.391 . S
C170 Tb160 2.825 1_556 S
C170 C164 1.507 . S
C170 O183 1.238 1_556 S
C170 O184 1.247 . S
O171 Tb160 2.347 1_556 S
O171 C175 1.259 . S
O172 Eu161 2.418 . S
O172 C175 1.265 . S
O173 Eu161 2.384 . S
O173 C182 1.255 1_556 S
O174 Tb160 2.366 . S
O174 C182 1.265 . S
C175 O171 1.259 . S
C175 O172 1.265 . S
O176 Eu161 2.479 . S
O176 C191 1.238 1_556 S
O177 Eu161 2.471 1_554 S
O177 C191 1.247 . S
O178 Eu161 2.347 1_554 S
O178 C162 1.259 . S
O179 Tb160 2.418 . S
O179 C162 1.265 . S
O180 Tb160 2.384 . S
O180 C163 1.256 1_554 S
O181 Eu161 2.366 . S
O181 C163 1.264 . S
C182 O173 1.255 1_554 S
C182 O174 1.265 . S
O183 Tb160 2.479 . S
O183 C170 1.238 1_554 S
O184 Tb160 2.471 1_556 S
O184 C170 1.247 . S
C185 C188 1.380 1_554 S
C185 C189 1.374 . S
C185 C191 1.507 . S
C186 C187 1.387 1_554 S
C186 C190 1.391 . S
C187 C186 1.387 1_556 S
C187 C188 1.384 . S
C187 H196 0.930 . S
C188 C185 1.380 1_556 S
C188 C187 1.384 . S
C188 H197 0.931 . S
C189 C185 1.374 . S
C189 C190 1.390 . S
C189 H198 0.930 . S
C190 C186 1.391 . S
C190 C189 1.390 . S
C190 H199 0.930 . S
C191 Eu161 2.825 1_554 S
C191 O176 1.238 1_554 S
C191 O177 1.247 . S
C191 C185 1.507 . S
H192 C165 0.930 . S
H193 C166 0.931 . S
H194 C167 0.930 . S
H195 C168 0.930 . S
H196 C187 0.930 . S
H197 C188 0.931 . S
H198 C189 0.930 . S
H199 C190 0.930 . S
Tb200 C210 2.825 . S
Tb200 O211 2.347 1_554 S
Tb200 O214 2.366 . S
Tb200 O219 2.418 . S
Tb200 O220 2.384 . S
Tb200 O223 2.479 . S
Tb200 O224 2.471 1_554 S
Eu201 O212 2.418 . S
Eu201 O213 2.384 . S
Eu201 O216 2.479 . S
Eu201 O217 2.471 1_556 S
Eu201 O218 2.347 1_556 S
Eu201 O221 2.366 . S
Eu201 C231 2.825 . S
C202 O218 1.259 . S
C202 O219 1.265 . S
C203 O220 1.255 . S
C203 O221 1.265 1_554 S
C204 C206 1.380 . S
C204 C207 1.374 1_554 S
C204 C210 1.507 . S
C205 C206 1.384 . S
C205 C209 1.387 1_554 S
C205 H232 0.930 . S
C206 C204 1.380 . S
C206 C205 1.384 . S
C206 H233 0.931 . S
C207 C204 1.374 1_556 S
C207 C208 1.390 . S
C207 H234 0.930 . S
C208 C207 1.390 . S
C208 C209 1.391 . S
C208 H235 0.930 . S
C209 C205 1.387 1_556 S
C209 C208 1.391 . S
C210 Tb200 2.825 . S
C210 C204 1.507 . S
C210 O223 1.238 . S
C210 O224 1.247 1_554 S
O211 Tb200 2.347 1_556 S
O211 C215 1.259 . S
O212 Eu201 2.418 . S
O212 C215 1.265 . S
O213 Eu201 2.384 . S
O213 C222 1.255 1_556 S
O214 Tb200 2.366 . S
O214 C222 1.265 . S
C215 O211 1.259 . S
C215 O212 1.265 . S
O216 Eu201 2.479 . S
O216 C231 1.238 . S
O217 Eu201 2.471 1_554 S
O217 C231 1.247 1_554 S
O218 Eu201 2.347 1_554 S
O218 C202 1.259 . S
O219 Tb200 2.418 . S
O219 C202 1.265 . S
O220 Tb200 2.384 . S
O220 C203 1.255 . S
O221 Eu201 2.366 . S
O221 C203 1.265 1_556 S
C222 O213 1.255 1_554 S
C222 O214 1.265 . S
O223 Tb200 2.479 . S
O223 C210 1.238 . S
O224 Tb200 2.471 1_556 S
O224 C210 1.247 1_556 S
C225 C228 1.380 1_554 S
C225 C229 1.374 . S
C225 C231 1.507 1_554 S
C226 C227 1.387 1_554 S
C226 C230 1.391 . S
C227 C226 1.387 1_556 S
C227 C228 1.384 . S
C227 H236 0.930 . S
C228 C225 1.380 1_556 S
C228 C227 1.384 . S
C228 H237 0.931 . S
C229 C225 1.374 . S
C229 C230 1.390 . S
C229 H238 0.930 . S
C230 C226 1.391 . S
C230 C229 1.390 . S
C230 H239 0.930 . S
C231 Eu201 2.825 . S
C231 O216 1.238 . S
C231 O217 1.247 1_556 S
C231 C225 1.507 1_556 S
H232 C205 0.930 . S
H233 C206 0.931 . S
H234 C207 0.930 . S
H235 C208 0.930 . S
H236 C227 0.930 . S
H237 C228 0.931 . S
H238 C229 0.930 . S
H239 C230 0.930 . S
Tb240 C250 2.825 . S
Tb240 O251 2.347 . S
Tb240 O254 2.366 . S
Tb240 O259 2.418 . S
Tb240 O260 2.384 . S
Tb240 O263 2.479 . S
Tb240 O264 2.471 . S
Eu241 O252 2.418 . S
Eu241 O253 2.384 . S
Eu241 O256 2.479 . S
Eu241 O257 2.471 . S
Eu241 O258 2.347 . S
Eu241 O261 2.366 . S
Eu241 C271 2.825 . S
C242 O258 1.259 . S
C242 O259 1.265 . S
C243 O260 1.255 . S
C243 O261 1.265 . S
C244 C246 1.380 . S
C244 C247 1.374 . S
C244 C250 1.507 . S
C245 C246 1.384 . S
C245 C249 1.387 . S
C245 H272 0.930 . S
C246 C244 1.380 . S
C246 C245 1.384 . S
C246 H273 0.931 . S
C247 C244 1.374 . S
C247 C248 1.390 . S
C247 H274 0.930 . S
C248 C247 1.390 . S
C248 C249 1.391 . S
C248 H275 0.930 . S
C249 C245 1.387 . S
C249 C248 1.391 . S
C250 Tb240 2.825 . S
C250 C244 1.507 . S
C250 O263 1.238 . S
C250 O264 1.247 . S
O251 Tb240 2.347 . S
O251 C255 1.259 . S
O252 Eu241 2.418 . S
O252 C255 1.265 . S
O253 Eu241 2.384 . S
O253 C262 1.255 . S
O254 Tb240 2.366 . S
O254 C262 1.265 . S
C255 O251 1.259 . S
C255 O252 1.265 . S
O256 Eu241 2.479 . S
O256 C271 1.238 . S
O257 Eu241 2.471 . S
O257 C271 1.247 . S
O258 Eu241 2.347 . S
O258 C242 1.259 . S
O259 Tb240 2.418 . S
O259 C242 1.265 . S
O260 Tb240 2.384 . S
O260 C243 1.255 . S
O261 Eu241 2.366 . S
O261 C243 1.265 . S
C262 O253 1.255 . S
C262 O254 1.265 . S
O263 Tb240 2.479 . S
O263 C250 1.238 . S
O264 Tb240 2.471 . S
O264 C250 1.247 . S
C265 C268 1.380 . S
C265 C269 1.374 . S
C265 C271 1.507 . S
C266 C267 1.387 . S
C266 C270 1.391 . S
C267 C266 1.387 . S
C267 C268 1.384 . S
C267 H276 0.930 . S
C268 C265 1.380 . S
C268 C267 1.384 . S
C268 H277 0.931 . S
C269 C265 1.374 . S
C269 C270 1.390 . S
C269 H278 0.930 . S
C270 C266 1.391 . S
C270 C269 1.390 . S
C270 H279 0.930 . S
C271 Eu241 2.825 . S
C271 O256 1.238 . S
C271 O257 1.247 . S
C271 C265 1.507 . S
H272 C245 0.930 . S
H273 C246 0.931 . S
H274 C247 0.930 . S
H275 C248 0.930 . S
H276 C267 0.930 . S
H277 C268 0.931 . S
H278 C269 0.930 . S
H279 C270 0.930 . S
Tb280 C290 2.825 . S
Tb280 O291 2.347 . S
Tb280 O294 2.366 . S
Tb280 O299 2.418 . S
Tb280 O300 2.384 . S
Tb280 O303 2.479 . S
Tb280 O304 2.471 . S
Eu281 O292 2.418 . S
Eu281 O293 2.384 . S
Eu281 O296 2.479 . S
Eu281 O297 2.471 . S
Eu281 O298 2.347 . S
Eu281 O301 2.366 . S
Eu281 C311 2.825 . S
C282 O298 1.259 . S
C282 O299 1.265 . S
C283 O300 1.255 . S
C283 O301 1.265 . S
C284 C286 1.380 . S
C284 C287 1.374 . S
C284 C290 1.507 . S
C285 C286 1.384 . S
C285 C289 1.387 . S
C285 H312 0.930 . S
C286 C284 1.380 . S
C286 C285 1.384 . S
C286 H313 0.931 . S
C287 C284 1.374 . S
C287 C288 1.390 . S
C287 H314 0.930 . S
C288 C287 1.390 . S
C288 C289 1.391 . S
C288 H315 0.930 . S
C289 C285 1.387 . S
C289 C288 1.391 . S
C290 Tb280 2.825 . S
C290 C284 1.507 . S
C290 O303 1.238 . S
C290 O304 1.247 . S
O291 Tb280 2.347 . S
O291 C295 1.259 . S
O292 Eu281 2.418 . S
O292 C295 1.265 . S
O293 Eu281 2.384 . S
O293 C302 1.255 . S
O294 Tb280 2.366 . S
O294 C302 1.265 . S
C295 O291 1.259 . S
C295 O292 1.265 . S
O296 Eu281 2.479 . S
O296 C311 1.238 . S
O297 Eu281 2.471 . S
O297 C311 1.247 . S
O298 Eu281 2.347 . S
O298 C282 1.259 . S
O299 Tb280 2.418 . S
O299 C282 1.265 . S
O300 Tb280 2.384 . S
O300 C283 1.255 . S
O301 Eu281 2.366 . S
O301 C283 1.265 . S
C302 O293 1.255 . S
C302 O294 1.265 . S
O303 Tb280 2.479 . S
O303 C290 1.238 . S
O304 Tb280 2.471 . S
O304 C290 1.247 . S
C305 C308 1.380 . S
C305 C309 1.374 . S
C305 C311 1.507 . S
C306 C307 1.387 . S
C306 C310 1.391 . S
C307 C306 1.387 . S
C307 C308 1.384 . S
C307 H316 0.930 . S
C308 C305 1.380 . S
C308 C307 1.384 . S
C308 H317 0.931 . S
C309 C305 1.374 . S
C309 C310 1.390 . S
C309 H318 0.930 . S
C310 C306 1.391 . S
C310 C309 1.390 . S
C310 H319 0.930 . S
C311 Eu281 2.825 . S
C311 O296 1.238 . S
C311 O297 1.247 . S
C311 C305 1.507 . S
H312 C285 0.930 . S
H313 C286 0.931 . S
H314 C287 0.930 . S
H315 C288 0.930 . S
H316 C307 0.930 . S
H317 C308 0.931 . S
H318 C309 0.930 . S
H319 C310 0.930 . S
C3 C22 3.099 1_556 S
C62 C43 3.085 . S
C83 C102 3.090 . S
C123 C142 3.090 . S
C163 C182 3.100 1_656 S
C203 C222 3.085 1_455 S
C243 C262 3.090 1_455 S
C302 C283 3.090 1_655 S
C49 C9 4.119 . S
C129 C106 4.094 . S
C169 C209 4.117 1_465 S
C266 C289 4.092 1_445 S
C26 C226 3.731 . S
C186 C66 3.730 . S
C89 C306 3.730 . S
C146 C249 3.729 . S
C2 C122 1.614 1_455 S
C42 C82 1.760 1_655 S
C55 C95 1.639 1_655 S
C135 C15 1.715 1_655 S
C162 C282 1.612 . S
C202 C242 1.759 . S
C215 C255 1.636 . S
C295 C175 1.715 . S
