# Generated by pormake.
# Topology smc, (6)-cn, num edge types: 1
# Building blocks:
#     Node 0, Type 0, BuildingBlock: MIFKUJ_clean_sbu_0, # of connection points: 6
#     Node 1, Type 0, BuildingBlock: MIFKUJ_clean_sbu_0, # of connection points: 6
#     Node 2, Type 0, BuildingBlock: MIFKUJ_clean_sbu_0, # of connection points: 6
#     Node 3, Type 0, BuildingBlock: MIFKUJ_clean_sbu_0, # of connection points: 6
#     Node 4, Type 0, BuildingBlock: MIFKUJ_clean_sbu_0, # of connection points: 6
#     Node 5, Type 0, BuildingBlock: MIFKUJ_clean_sbu_0, # of connection points: 6
#     Node 6, Type 0, BuildingBlock: MIFKUJ_clean_sbu_0, # of connection points: 6
#     Node 7, Type 0, BuildingBlock: MIFKUJ_clean_sbu_0, # of connection points: 6
#     Node 8, Type 0, BuildingBlock: MIFKUJ_clean_sbu_0, # of connection points: 6
#     Edge 9, Type (0, 0), BuildingBlock: MIFKUJ_clean_linker_0, # of connection points: 2
#     Edge 10, Type (0, 0), BuildingBlock: MIFKUJ_clean_linker_0, # of connection points: 2
#     Edge 11, Type (0, 0), BuildingBlock: MIFKUJ_clean_linker_0, # of connection points: 2
#     Edge 12, Type (0, 0), BuildingBlock: MIFKUJ_clean_linker_0, # of connection points: 2
#     Edge 13, Type (0, 0), BuildingBlock: MIFKUJ_clean_linker_0, # of connection points: 2
#     Edge 14, Type (0, 0), BuildingBlock: MIFKUJ_clean_linker_0, # of connection points: 2
#     Edge 15, Type (0, 0), BuildingBlock: MIFKUJ_clean_linker_0, # of connection points: 2
#     Edge 16, Type (0, 0), BuildingBlock: MIFKUJ_clean_linker_0, # of connection points: 2
#     Edge 17, Type (0, 0), BuildingBlock: MIFKUJ_clean_linker_0, # of connection points: 2
#     Edge 18, Type (0, 0), BuildingBlock: MIFKUJ_clean_linker_0, # of connection points: 2
#     Edge 19, Type (0, 0), BuildingBlock: MIFKUJ_clean_linker_0, # of connection points: 2
#     Edge 20, Type (0, 0), BuildingBlock: MIFKUJ_clean_linker_0, # of connection points: 2
#     Edge 21, Type (0, 0), BuildingBlock: MIFKUJ_clean_linker_0, # of connection points: 2
#     Edge 22, Type (0, 0), BuildingBlock: MIFKUJ_clean_linker_0, # of connection points: 2
#     Edge 23, Type (0, 0), BuildingBlock: MIFKUJ_clean_linker_0, # of connection points: 2
#     Edge 24, Type (0, 0), BuildingBlock: MIFKUJ_clean_linker_0, # of connection points: 2
#     Edge 25, Type (0, 0), BuildingBlock: MIFKUJ_clean_linker_0, # of connection points: 2
#     Edge 26, Type (0, 0), BuildingBlock: MIFKUJ_clean_linker_0, # of connection points: 2
#     Edge 27, Type (0, 0), BuildingBlock: MIFKUJ_clean_linker_0, # of connection points: 2
#     Edge 28, Type (0, 0), BuildingBlock: MIFKUJ_clean_linker_0, # of connection points: 2
#     Edge 29, Type (0, 0), BuildingBlock: MIFKUJ_clean_linker_0, # of connection points: 2
#     Edge 30, Type (0, 0), BuildingBlock: MIFKUJ_clean_linker_0, # of connection points: 2
#     Edge 31, Type (0, 0), BuildingBlock: MIFKUJ_clean_linker_0, # of connection points: 2
#     Edge 32, Type (0, 0), BuildingBlock: MIFKUJ_clean_linker_0, # of connection points: 2
#     Edge 33, Type (0, 0), BuildingBlock: MIFKUJ_clean_linker_0, # of connection points: 2
#     Edge 34, Type (0, 0), BuildingBlock: MIFKUJ_clean_linker_0, # of connection points: 2
#     Edge 35, Type (0, 0), BuildingBlock: MIFKUJ_clean_linker_0, # of connection points: 2
# Relax obj value: 0.172
# Max RMSD: 0.285
# Mean RMSD: 0.279
data_MOF--net-smc--node1-MIFKUJ_clean_sbu_0--edge1-MIFKUJ_clean_linker_0
_symmetry_space_group_name_H-M    P1
_symmetry_Int_Tables_number       1
_symmetry_cell_setting            triclinic
loop_
_symmetry_equiv_pos_as_xyz
'x, y, z'
_cell_length_a     43.386961
_cell_length_b     42.048599
_cell_length_c     52.150386
_cell_angle_alpha  91.173104
_cell_angle_beta   91.16383
_cell_angle_gamma 120.36613
loop_
_atom_site_label
_atom_site_type_symbol
_atom_site_fract_x
_atom_site_fract_y
_atom_site_fract_z
_atom_type_partial_charge
Zn0 Zn 0.03958 0.42908 0.00324 0.0
Zn1 Zn 0.97701 0.43727 0.00934 0.0
C2 C 0.0717 0.50302 0.98229 0.0
O3 O 0.07493 0.4867 0.96162 0.0
C4 C 0.91514 0.38028 0.03155 0.0
O5 O 0.92158 0.4085 0.04667 0.0
O6 O 0.08496 0.42851 0.00022 0.0
O7 O 0.02199 0.41101 0.03757 0.0
O8 O 0.01061 0.45605 0.04125 0.0
C9 C 0.11026 0.45344 0.01422 0.0
O10 O 0.10373 0.47442 0.02945 0.0
O11 O 0.05522 0.48364 0.00119 0.0
C12 C 0.92421 0.4515 0.99401 0.0
O13 O 0.91857 0.42461 0.97778 0.0
O14 O 0.95057 0.46421 0.00995 0.0
O15 O 0.99047 0.4391 0.97174 0.0
O16 O 0.00646 0.3977 0.9753 0.0
O17 O 0.93774 0.38466 0.01478 0.0
C18 C 0.01893 0.43415 0.05146 0.0
C19 C 0.99251 0.41229 0.96207 0.0
Zn20 Zn 0.61484 0.58118 0.00507 0.0
Zn21 Zn 0.5458 0.57435 0.99309 0.0
C22 C 0.5808 0.50717 0.02123 0.0
O23 O 0.6038 0.52495 0.04039 0.0
C24 C 0.55423 0.63968 0.97132 0.0
O25 O 0.53887 0.61627 0.9517 0.0
O26 O 0.66119 0.58276 0.00976 0.0
O27 O 0.61866 0.60572 0.97256 0.0
O28 O 0.56506 0.56122 0.96124 0.0
C29 C 0.6661 0.56541 0.9916 0.0
O30 O 0.64223 0.55091 0.97254 0.0
O31 O 0.57813 0.5258 0.00327 0.0
C32 C 0.47917 0.56474 0.00145 0.0
O33 O 0.49994 0.59242 0.01738 0.0
O34 O 0.49289 0.55008 0.98777 0.0
O35 O 0.55184 0.5658 0.03114 0.0
O36 O 0.60863 0.60794 0.03395 0.0
O37 O 0.56266 0.62872 0.99137 0.0
C38 C 0.59599 0.58623 0.95502 0.0
C39 C 0.5784 0.59141 0.0439 0.0
Zn40 Zn 0.40539 0.94296 0.99429 0.0
Zn41 Zn 0.47239 0.05998 0.00885 0.0
C42 C 0.42359 0.88764 0.98172 0.0
O43 O 0.39408 0.87491 0.96751 0.0
C44 C 0.47616 0.12638 0.02269 0.0
O45 O 0.49105 0.12012 0.04266 0.0
O46 O 0.35319 0.90286 0.99522 0.0
O47 O 0.42017 0.97924 0.02578 0.0
O48 O 0.45188 0.03619 0.04244 0.0
C49 C 0.34244 0.87792 0.01169 0.0
O50 O 0.36541 0.87909 0.02904 0.0
O51 O 0.43496 0.91774 0.99466 0.0
C52 C 0.5446 0.11053 0.99717 0.0
O53 O 0.5279 0.12327 0.98327 0.0
O54 O 0.52631 0.08108 0.00926 0.0
O55 O 0.44557 0.01858 0.98359 0.0
O56 O 0.41062 0.96932 0.96077 0.0
O57 O 0.46325 0.10233 0.00433 0.0
C58 C 0.42953 1.00194 0.04505 0.0
C59 C 0.42973 0.0042 0.96227 0.0
Zn60 Zn 0.71823 0.77483 0.33294 0.0
Zn61 Zn 0.64453 0.77702 0.34164 0.0
C62 C 0.74431 0.85052 0.31758 0.0
O63 O 0.73991 0.83663 0.29411 0.0
C64 C 0.58071 0.71892 0.36194 0.0
O65 O 0.58682 0.74619 0.37794 0.0
O66 O 0.76437 0.77482 0.32897 0.0
O67 O 0.69706 0.75012 0.36492 0.0
O68 O 0.67826 0.78897 0.37358 0.0
C69 C 0.78919 0.79354 0.34573 0.0
O70 O 0.78266 0.80962 0.36503 0.0
O71 O 0.73417 0.82904 0.33631 0.0
C72 C 0.59218 0.79524 0.32955 0.0
O73 O 0.58408 0.76761 0.31329 0.0
O74 O 0.61982 0.80701 0.34431 0.0
O75 O 0.65844 0.78013 0.30395 0.0
O76 O 0.68578 0.74795 0.30334 0.0
O77 O 0.60358 0.72443 0.34511 0.0
C78 C 0.68878 0.7672 0.38103 0.0
C79 C 0.66553 0.75763 0.29263 0.0
Zn80 Zn 0.22406 0.94418 0.32233 0.0
Zn81 Zn 0.24839 0.87521 0.33411 0.0
C82 C 0.15269 0.89915 0.30065 0.0
O83 O 0.16556 0.92155 0.2815 0.0
C84 C 0.3247 0.89912 0.34458 0.0
O85 O 0.32796 0.92853 0.35652 0.0
O86 O 0.22014 0.98916 0.31848 0.0
O87 O 0.23885 0.94858 0.35844 0.0
O88 O 0.25012 0.90398 0.36688 0.0
C89 C 0.19761 0.991 0.33268 0.0
O90 O 0.17795 0.96335 0.34737 0.0
O91 O 0.17396 0.90092 0.31847 0.0
C92 C 0.21446 0.80017 0.32121 0.0
O93 O 0.23514 0.81474 0.30166 0.0
O94 O 0.21312 0.82152 0.3382 0.0
O95 O 0.24319 0.8879 0.29715 0.0
O96 O 0.25935 0.94675 0.29733 0.0
O97 O 0.29469 0.87528 0.33439 0.0
C98 C 0.24682 0.93115 0.37413 0.0
C99 C 0.25948 0.91925 0.28709 0.0
Zn100 Zn 0.06673 0.30277 0.33236 0.0
Zn101 Zn 0.14291 0.37324 0.34058 0.0
C102 C 0.09643 0.26039 0.3185 0.0
O103 O 0.06934 0.24877 0.30195 0.0
C104 C 0.13204 0.43153 0.36165 0.0
O105 O 0.14228 0.42478 0.38375 0.0
O106 O 0.01887 0.25547 0.33157 0.0
O107 O 0.06878 0.33254 0.3623 0.0
O108 O 0.12194 0.34197 0.37253 0.0
C109 C 0.01496 0.23211 0.34822 0.0
O110 O 0.04067 0.24117 0.36561 0.0
O111 O 0.10323 0.2868 0.3342 0.0
C112 C 0.21336 0.43421 0.33513 0.0
O113 O 0.19453 0.44538 0.32216 0.0
O114 O 0.19737 0.40249 0.34486 0.0
O115 O 0.13113 0.3547 0.30273 0.0
O116 O 0.07228 0.32875 0.30108 0.0
O117 O 0.12857 0.41162 0.34194 0.0
C118 C 0.09091 0.33437 0.37918 0.0
C119 C 0.10195 0.34502 0.2902 0.0
Zn120 Zn 0.3776 0.10156 0.67113 0.0
Zn121 Zn 0.30853 0.10074 0.67848 0.0
C122 C 0.40988 0.1737 0.65244 0.0
O123 O 0.41528 0.15589 0.6337 0.0
C124 C 0.25276 0.03501 0.69882 0.0
O125 O 0.25909 0.05789 0.71843 0.0
O126 O 0.42392 0.10388 0.66743 0.0
O127 O 0.36105 0.07908 0.70435 0.0
O128 O 0.34035 0.11613 0.71188 0.0
C129 C 0.44827 0.12583 0.6834 0.0
O130 O 0.44071 0.14353 0.70091 0.0
O131 O 0.39102 0.15542 0.67097 0.0
C132 C 0.25539 0.11678 0.66325 0.0
O133 O 0.25412 0.09665 0.64322 0.0
O134 O 0.27786 0.1235 0.68156 0.0
O135 O 0.3245 0.10871 0.64091 0.0
O136 O 0.3474 0.07272 0.64149 0.0
O137 O 0.27269 0.04665 0.67967 0.0
C138 C 0.3545 0.09794 0.72007 0.0
C139 C 0.33254 0.08719 0.62917 0.0
Zn140 Zn 0.95132 0.25255 0.67758 0.0
Zn141 Zn 0.88273 0.24825 0.66057 0.0
C142 C 0.91681 0.17882 0.69166 0.0
O143 O 0.9366 0.19663 0.71222 0.0
C144 C 0.90103 0.32065 0.64435 0.0
O145 O 0.8934 0.30441 0.62143 0.0
O146 O 0.99776 0.2554 0.68616 0.0
O147 O 0.95889 0.27954 0.64559 0.0
O148 O 0.90593 0.23788 0.63028 0.0
C149 C 0.00938 0.24529 0.6674 0.0
O150 O 0.99124 0.23554 0.64539 0.0
O151 O 0.91659 0.19744 0.67279 0.0
C152 C 0.81688 0.24019 0.6668 0.0
O153 O 0.83665 0.26332 0.6856 0.0
O154 O 0.83104 0.22764 0.6516 0.0
O155 O 0.88223 0.23193 0.6972 0.0
O156 O 0.93818 0.27403 0.70617 0.0
O157 O 0.90151 0.30291 0.66362 0.0
C158 C 0.93853 0.26125 0.62662 0.0
C159 C 0.90618 0.25517 0.7129 0.0
Zn160 Zn 0.74912 0.61732 0.66131 0.0
Zn161 Zn 0.80983 0.73119 0.67662 0.0
C162 C 0.80521 0.59859 0.65111 0.0
O163 O 0.81342 0.61991 0.63132 0.0
C164 C 0.82038 0.80127 0.69331 0.0
O165 O 0.83479 0.79425 0.7132 0.0
O166 O 0.69978 0.57201 0.65773 0.0
O167 O 0.75127 0.64608 0.69351 0.0
O168 O 0.78235 0.70456 0.7075 0.0
C169 C 0.68593 0.55202 0.67693 0.0
O170 O 0.70333 0.56209 0.69925 0.0
O171 O 0.78114 0.59586 0.66589 0.0
C172 C 0.88301 0.77483 0.66596 0.0
O173 O 0.86884 0.78777 0.64977 0.0
O174 O 0.86272 0.7485 0.68011 0.0
O175 O 0.78819 0.7024 0.64363 0.0
O176 O 0.7571 0.64489 0.62858 0.0
O177 O 0.80678 0.77751 0.67483 0.0
C178 C 0.75885 0.67102 0.71078 0.0
C179 C 0.7729 0.67936 0.62498 0.0
H180 H 0.42594 0.49863 0.98098 0.0
H181 H 0.36147 0.475 0.98132 0.0
H182 H 0.3814 0.57694 0.01805 0.0
H183 H 0.44547 0.60018 0.01842 0.0
H184 H 0.33273 0.52021 0.0423 0.0
H185 H 0.35452 0.55491 0.95395 0.0
H186 H 0.37524 0.55444 0.91033 0.0
H187 H 0.30271 0.43762 0.9023 0.0
H188 H 0.28186 0.43734 0.94602 0.0
H189 H 0.17095 0.51635 0.02907 0.0
H190 H 0.23224 0.53024 0.025 0.0
H191 H 0.1943 0.42176 0.9909 0.0
H192 H 0.13242 0.40806 0.99407 0.0
H193 H 0.24992 0.47384 0.96586 0.0
H194 H 0.22473 0.4417 0.05399 0.0
H195 H 0.20293 0.44508 0.0967 0.0
H196 H 0.28208 0.56015 0.10461 0.0
H197 H 0.30406 0.55759 0.06181 0.0
C198 C 0.41648 0.51602 0.98894 0.0
C199 C 0.44058 0.55106 -0.00012 0.0
C200 C 0.37973 0.50257 0.98904 0.0
C201 C 0.36674 0.52428 -0.00033 0.0
C202 C 0.3909 0.55966 0.00993 0.0
C203 C 0.42747 0.57289 0.01012 0.0
C204 C 0.32798 0.50983 0.00134 0.0
C205 C 0.31468 0.51033 0.02555 0.0
C206 C 0.30432 0.4959 0.97959 0.0
C207 C 0.31696 0.49603 0.95337 0.0
C208 C 0.34323 0.52907 0.94297 0.0
C209 C 0.35494 0.52895 0.91821 0.0
C210 C 0.34039 0.496 0.90359 0.0
C211 C 0.31402 0.46311 0.91367 0.0
C212 C 0.30223 0.46308 0.93843 0.0
C213 C 0.17559 0.49533 0.02084 0.0
C214 C 0.14702 0.46097 0.01213 0.0
C215 C 0.21062 0.50329 0.01856 0.0
C216 C 0.2177 0.47672 0.00817 0.0
C217 C 0.18926 0.4425 -0.00087 0.0
C218 C 0.15406 0.43469 0.00102 0.0
C219 C 0.25499 0.48514 0.0067 0.0
C220 C 0.26795 0.4833 0.98262 0.0
C221 C 0.27848 0.49812 0.02855 0.0
C222 C 0.26596 0.49945 0.05464 0.0
C223 C 0.23743 0.46774 0.06481 0.0
C224 C 0.22503 0.46952 0.08903 0.0
C225 C 0.24108 0.50281 0.10335 0.0
C226 C 0.26968 0.53437 0.09351 0.0
C227 C 0.28217 0.53275 0.0693 0.0
H228 H 0.23139 0.50415 0.12207 0.0
H229 H 0.34948 0.49597 0.88442 0.0
H230 H 0.40388 0.82146 0.95786 0.0
H231 H 0.43339 0.78542 0.96049 0.0
H232 H 0.51468 0.86831 0.01204 0.0
H233 H 0.48526 0.90498 0.00925 0.0
H234 H 0.54571 0.84772 0.97891 0.0
H235 H 0.45463 0.77922 0.03714 0.0
H236 H 0.39622 0.74323 0.05711 0.0
H237 H 0.35566 0.6694 0.99093 0.0
H238 H 0.4141 0.70453 0.97082 0.0
H239 H 0.57758 0.6919 0.0107 0.0
H240 H 0.56594 0.74311 0.01473 0.0
H241 H 0.51805 0.71737 0.93837 0.0
H242 H 0.52998 0.66674 0.9339 0.0
H243 H 0.47607 0.7128 0.99095 0.0
H244 H 0.5787 0.78718 0.93692 0.0
H245 H 0.6432 0.8176 0.92913 0.0
H246 H 0.66668 0.88047 7e-05 0.0
H247 H 0.60229 0.84994 0.00847 0.0
C248 C 0.42796 0.83209 0.96986 0.0
C249 C 0.44214 0.86615 0.98336 0.0
C250 C 0.4447 0.81122 0.97153 0.0
C251 C 0.476 0.82374 0.98683 0.0
C252 C 0.49047 0.85792 0.00021 0.0
C253 C 0.47362 0.87887 0.99859 0.0
C254 C 0.49408 0.80162 0.98764 0.0
C255 C 0.53049 0.81831 0.9819 0.0
C256 C 0.47476 0.76331 0.9919 0.0
C257 C 0.43853 0.7447 0.00239 0.0
C258 C 0.43308 0.7556 0.02672 0.0
C259 C 0.40016 0.73505 0.03822 0.0
C260 C 0.37233 0.70394 0.02535 0.0
C261 C 0.37728 0.69343 0.0009 0.0
C262 C 0.41033 0.71353 0.9895 0.0
C263 C 0.56556 0.69784 0.99446 0.0
C264 C 0.55434 0.67497 0.97206 0.0
C265 C 0.55904 0.72715 0.99681 0.0
C266 C 0.54131 0.73396 0.9768 0.0
C267 C 0.53208 0.71266 0.9539 0.0
C268 C 0.53885 0.68366 0.95144 0.0
C269 C 0.52676 0.7586 0.98113 0.0
C270 C 0.49109 0.74227 0.98801 0.0
C271 C 0.54716 0.7972 0.97884 0.0
C272 C 0.58572 0.81597 0.97346 0.0
C273 C 0.59762 0.80721 0.95098 0.0
C274 C 0.63416 0.82454 0.94642 0.0
C275 C 0.65903 0.85086 0.96413 0.0
C276 C 0.6474 0.86003 0.98639 0.0
C277 C 0.61089 0.84276 0.99104 0.0
H278 H 0.68731 0.86422 0.96058 0.0
H279 H 0.34686 0.68807 0.03428 0.0
H280 H 0.3052 0.8309 0.04918 0.0
H281 H 0.24993 0.77135 0.04391 0.0
H282 H 0.24256 0.79068 0.96377 0.0
H283 H 0.29749 0.85102 0.96906 0.0
H284 H 0.17206 0.7459 0.99013 0.0
H285 H 0.27904 0.74281 0.96821 0.0
H286 H 0.34388 0.77354 0.97802 0.0
H287 H 0.32351 0.73666 0.05527 0.0
H288 H 0.25841 0.70558 0.04583 0.0
H289 H 0.09425 0.55342 0.94451 0.0
H290 H 0.13368 0.62059 0.94955 0.0
H291 H 0.13699 0.6114 0.03159 0.0
H292 H 0.09676 0.54457 0.02683 0.0
H293 H 0.20819 0.65212 0.00225 0.0
H294 H 0.09495 0.64569 0.01782 0.0
H295 H 0.03253 0.62741 0.00661 0.0
H296 H 0.06605 0.6877 0.93737 0.0
H297 H 0.12866 0.70587 0.94801 0.0
C298 C 0.29133 0.82294 0.03059 0.0
C299 C 0.30594 0.84534 0.00945 0.0
C300 C 0.25962 0.78902 0.02764 0.0
C301 C 0.24234 0.77649 0.00341 0.0
C302 C 0.25532 0.79997 0.98266 0.0
C303 C 0.28685 0.8343 0.9857 0.0
C304 C 0.21556 0.73676 0.99902 0.0
C305 C 0.17987 0.72535 0.99255 0.0
C306 C 0.2259 0.71005 0.00192 0.0
C307 C 0.26403 0.72176 0.00629 0.0
C308 C 0.28845 0.74055 0.98711 0.0
C309 C 0.32518 0.75829 0.99265 0.0
C310 C 0.33775 0.75738 0.01731 0.0
C311 C 0.31365 0.73746 0.03621 0.0
C312 C 0.27682 0.71949 0.03072 0.0
C313 C 0.10294 0.56582 0.96363 0.0
C314 C 0.09227 0.54376 0.98527 0.0
C315 C 0.12546 0.60411 0.96647 0.0
C316 C 0.13825 0.62082 0.99093 0.0
C317 C 0.12734 0.59896 0.01257 0.0
C318 C 0.10417 0.56083 0.0098 0.0
C319 C 0.16417 0.66091 0.99389 0.0
C320 C 0.20011 0.67247 -0.00015 0.0
C321 C 0.15396 0.68759 0.98994 0.0
C322 C 0.1164 0.67674 0.98355 0.0
C323 C 0.08896 0.6547 7e-05 0.0
C324 C 0.05356 0.64444 0.99385 0.0
C325 C 0.04531 0.65628 0.97125 0.0
C326 C 0.07247 0.67849 0.95485 0.0
C327 C 0.10791 0.68879 0.96097 0.0
H328 H 0.01789 0.64833 0.96647 0.0
H329 H 0.36618 0.77231 0.02174 0.0
H330 H 0.45471 0.15255 0.98219 0.0
H331 H 0.46312 0.21454 0.97849 0.0
H332 H 0.5122 0.24416 0.05461 0.0
H333 H 0.5033 0.18256 0.05863 0.0
H334 H 0.4683 0.26981 0.0482 0.0
H335 H 0.56253 0.26954 -0.00024 0.0
H336 H 0.5852 0.24584 0.96578 0.0
H337 H 0.5265 0.26799 0.90861 0.0
H338 H 0.50328 0.29157 0.94232 0.0
H339 H 0.58098 0.4612 0.05717 0.0
H340 H 0.55431 0.39456 0.05374 0.0
H341 H 0.51069 0.3928 0.97833 0.0
H342 H 0.53806 0.46023 0.98145 0.0
H343 H 0.54173 0.3503 0.9792 0.0
H344 H 0.45581 0.36047 0.02944 0.0
H345 H 0.43462 0.38364 0.06473 0.0
H346 H 0.47911 0.34222 0.11996 0.0
H347 H 0.50099 0.31923 0.08504 0.0
C348 C 0.46693 0.17219 0.99822 0.0
C349 C 0.47839 0.16261 0.02069 0.0
C350 C 0.47193 0.20768 0.99602 0.0
C351 C 0.48867 0.2342 0.01617 0.0
C352 C 0.4992 0.22424 0.03881 0.0
C353 C 0.49414 0.18893 0.04104 0.0
C354 C 0.49621 0.2727 0.01389 0.0
C355 C 0.48445 0.28744 0.03315 0.0
C356 C 0.51644 0.29547 0.99386 0.0
C357 C 0.53094 0.28201 0.97356 0.0
C358 C 0.55436 0.26921 0.97995 0.0
C359 C 0.56732 0.25583 0.96075 0.0
C360 C 0.55722 0.25533 0.93506 0.0
C361 C 0.53427 0.26837 0.92852 0.0
C362 C 0.52125 0.28181 0.94766 0.0
C363 C 0.56544 0.44677 0.0399 0.0
C364 C 0.56158 0.46618 0.01962 0.0
C365 C 0.55005 0.4085 0.03801 0.0
C366 C 0.53006 0.38846 0.01591 0.0
C367 C 0.52587 0.40763 0.99562 0.0
C368 C 0.54135 0.44613 0.9975 0.0
C369 C 0.51476 0.34774 0.01404 0.0
C370 C 0.52501 0.33255 0.99399 0.0
C371 C 0.49339 0.32453 0.03352 0.0
C372 C 0.48021 0.3383 0.05459 0.0
C373 C 0.46128 0.35651 0.04911 0.0
C374 C 0.44911 0.36958 0.06906 0.0
C375 C 0.45556 0.36445 0.09457 0.0
C376 C 0.47413 0.34618 0.1002 0.0
C377 C 0.48637 0.33307 0.08033 0.0
H378 H 0.44611 0.37459 0.10998 0.0
H379 H 0.56724 0.24491 0.92022 0.0
H380 H 0.58296 0.18464 0.00218 0.0
H381 H 0.64725 0.22411 0.00883 0.0
H382 H 0.65944 0.12834 0.00762 0.0
H383 H 0.59404 0.08828 0.0028 0.0
H384 H 0.7057 0.17592 0.04063 0.0
H385 H 0.6781 0.1857 0.95364 0.0
H386 H 0.64419 0.19311 0.91805 0.0
H387 H 0.67585 0.30209 0.94701 0.0
H388 H 0.7097 0.29522 0.98293 0.0
H389 H 0.89444 0.31163 0.01049 0.0
H390 H 0.83297 0.25913 0.0047 0.0
H391 H 0.79302 0.32262 0.04228 0.0
H392 H 0.8539 0.37444 0.04882 0.0
H393 H 0.76458 0.28512 0.98616 0.0
H394 H 0.78639 0.26774 0.07655 0.0
H395 H 0.82169 0.25818 0.10995 0.0
H396 H 0.80361 0.15989 0.06951 0.0
H397 H 0.76865 0.16925 0.03564 0.0
C398 C 0.59932 0.17195 0.00333 0.0
C399 C 0.58368 0.13348 0.00153 0.0
C400 C 0.63617 0.19457 0.007 0.0
C401 C 0.65856 0.17942 0.00778 0.0
C402 C 0.64286 0.14078 0.00677 0.0
C403 C 0.60559 0.11793 0.00392 0.0
C404 C 0.69814 0.20438 0.0093 0.0
C405 C 0.71856 0.19936 0.02837 0.0
C406 C 0.7154 0.23495 0.99319 0.0
C407 C 0.69633 0.23987 0.97103 0.0
C408 C 0.67783 0.21125 0.95242 0.0
C409 C 0.65859 0.21534 0.9322 0.0
C410 C 0.65782 0.24803 0.9303 0.0
C411 C 0.6765 0.2768 0.94851 0.0
C412 C 0.69581 0.27287 0.96876 0.0
C413 C 0.87256 0.31408 0.0179 0.0
C414 C 0.87903 0.34705 0.03027 0.0
C415 C 0.83757 0.28417 0.01454 0.0
C416 C 0.80865 0.28716 0.02309 0.0
C417 C 0.81509 0.31983 0.03566 0.0
C418 C 0.84994 0.34932 0.03951 0.0
C419 C 0.77135 0.25715 0.01792 0.0
C420 C 0.75157 0.26125 0.99805 0.0
C421 C 0.75502 0.22544 0.03282 0.0
C422 C 0.7753 0.21942 0.05344 0.0
C423 C 0.79022 0.24428 0.07467 0.0
C424 C 0.8101 0.23886 0.09371 0.0
C425 C 0.81499 0.20851 0.09181 0.0
C426 C 0.79986 0.18342 0.07093 0.0
C427 C 0.77999 0.18876 0.05182 0.0
H428 H 0.83042 0.20438 0.10655 0.0
H429 H 0.64277 0.25108 0.9147 0.0
H430 H 0.91986 0.49532 0.03131 0.0
H431 H 0.87631 0.51588 0.0333 0.0
H432 H 0.82691 0.4569 0.96169 0.0
H433 H 0.87016 0.43605 0.95953 0.0
H434 H 0.84503 0.53107 0.96347 0.0
H435 H 0.78542 0.42298 0.01344 0.0
H436 H 0.77982 0.38208 0.04845 0.0
H437 H 0.7976 0.46682 0.10417 0.0
H438 H 0.80402 0.50853 0.06945 0.0
H439 H 0.68149 0.52754 0.95643 0.0
H440 H 0.72948 0.51359 0.95871 0.0
H441 H 0.76639 0.57306 0.03169 0.0
H442 H 0.7184 0.58768 0.02939 0.0
H443 H 0.75791 0.50287 0.0319 0.0
H444 H 0.81766 0.61084 0.98237 0.0
H445 H 0.82921 0.65408 0.94766 0.0
H446 H 0.8127 0.57024 0.89157 0.0
H447 H 0.80088 0.52644 0.92594 0.0
C448 C 0.89974 0.48678 0.01598 0.0
C449 C 0.89852 0.46439 0.99513 0.0
C450 C 0.87478 0.49826 0.01728 0.0
C451 C 0.84849 0.48764 0.99772 0.0
C452 C 0.8471 0.46521 0.97696 0.0
C453 C 0.87182 0.45345 0.97574 0.0
C454 C 0.82371 0.50176 0.99802 0.0
C455 C 0.82562 0.52457 0.97823 0.0
C456 C 0.79951 0.49415 0.01789 0.0
C457 C 0.79568 0.46909 0.03881 0.0
C458 C 0.78856 0.43308 0.03314 0.0
C459 C 0.78515 0.4097 0.05294 0.0
C460 C 0.78846 0.42188 0.07852 0.0
C461 C 0.79512 0.45745 0.08434 0.0
C462 C 0.79865 0.48097 0.06461 0.0
C463 C 0.70012 0.53821 0.97277 0.0
C464 C 0.6964 0.55896 0.99262 0.0
C465 C 0.72752 0.53021 0.97404 0.0
C466 C 0.75156 0.54265 0.99524 0.0
C467 C 0.7481 0.56347 0.01511 0.0
C468 C 0.72078 0.5718 0.01375 0.0
C469 C 0.77889 0.53183 0.99705 0.0
C470 C 0.77747 0.5096 0.01724 0.0
C471 C 0.80364 0.53993 0.97754 0.0
C472 C 0.8082 0.56532 0.95673 0.0
C473 C 0.81606 0.60149 0.96262 0.0
C474 C 0.82293 0.62618 0.94302 0.0
C475 C 0.82196 0.61498 0.91745 0.0
C476 C 0.81366 0.57894 0.91139 0.0
C477 C 0.80692 0.55419 0.93092 0.0
H478 H 0.82742 0.63417 0.90231 0.0
H479 H 0.78577 0.40374 0.09382 0.0
H480 H 0.81256 0.76536 0.30794 0.0
H481 H 0.87371 0.77903 0.30162 0.0
H482 H 0.90946 0.8492 0.3702 0.0
H483 H 0.84859 0.83638 0.37626 0.0
H484 H 0.95288 0.88285 0.33285 0.0
H485 H 0.90346 0.76497 0.36904 0.0
H486 H 0.86024 0.699 0.3742 0.0
H487 H 0.88211 0.67383 0.2989 0.0
H488 H 0.92511 0.73978 0.29312 0.0
H489 H 0.12026 0.88258 0.34659 0.0
H490 H 0.05744 0.86109 0.35442 0.0
H491 H 0.03439 0.85108 0.27292 0.0
H492 H 0.09775 0.87412 0.26483 0.0
H493 H 0.98583 0.78696 0.31816 0.0
H494 H 0.03127 0.91019 0.28233 0.0
H495 H 0.07419 0.97685 0.28038 0.0
H496 H 0.0602 0.99148 0.36016 0.0
H497 H 0.0177 0.92461 0.3627 0.0
C498 C 0.83338 0.78346 0.32179 0.0
C499 C 0.82565 0.79965 0.34267 0.0
C500 C 0.86832 0.79114 0.31821 0.0
C501 C 0.89619 0.81492 0.33555 0.0
C502 C 0.88844 0.83077 0.35656 0.0
C503 C 0.85355 0.82321 0.36009 0.0
C504 C 0.93361 0.82443 0.33116 0.0
C505 C 0.96002 0.86179 0.32988 0.0
C506 C 0.9431 0.79708 0.32719 0.0
C507 C 0.91724 0.75739 0.33055 0.0
C508 C 0.89883 0.74542 0.35349 0.0
C509 C 0.87441 0.70802 0.35654 0.0
C510 C 0.86836 0.68225 0.33686 0.0
C511 C 0.88679 0.69384 0.31411 0.0
C512 C 0.91121 0.73122 0.31094 0.0
C513 C 0.10177 0.87519 0.33028 0.0
C514 C 0.11391 0.87999 0.30504 0.0
C515 C 0.06595 0.86314 0.33483 0.0
C516 C 0.04156 0.85495 0.31425 0.0
C517 C 0.05305 0.85762 0.28902 0.0
C518 C 0.08911 0.8706 0.28444 0.0
C519 C 0.00442 0.84507 0.31926 0.0
C520 C 0.97834 0.80777 0.32098 0.0
C521 C 0.99528 0.87244 0.32402 0.0
C522 C 0.02185 0.91231 0.3228 0.0
C523 C 0.03789 0.92747 0.29958 0.0
C524 C 0.06198 0.96531 0.29834 0.0
C525 C 0.06992 0.98836 0.32013 0.0
C526 C 0.05403 0.97356 0.3433 0.0
C527 C 0.02999 0.93569 0.34466 0.0
H528 H 0.08817 0.0177 0.31898 0.0
H529 H 0.84945 0.6533 0.33926 0.0
H530 H 0.16562 0.28546 0.33468 0.0
H531 H 0.19447 0.24824 0.34023 0.0
H532 H 0.09592 0.15034 0.31613 0.0
H533 H 0.06747 0.18712 0.30968 0.0
H534 H 0.14886 0.16395 0.37108 0.0
H535 H 0.12924 0.15553 0.27429 0.0
H536 H 0.13939 0.18742 0.23345 0.0
H537 H 0.25236 0.24832 0.25095 0.0
H538 H 0.24267 0.21725 0.29218 0.0
H539 H 0.14213 0.99691 0.35022 0.0
H540 H 0.1366 0.05168 0.35203 0.0
H541 H 0.2409 0.11532 0.32013 0.0
H542 H 0.24597 0.05999 0.31742 0.0
H543 H 0.20008 0.13221 0.29737 0.0
H544 H 0.22295 0.12666 0.38568 0.0
H545 H 0.2176 0.09886 0.42774 0.0
H546 H 0.10797 0.07125 0.43013 0.0
H547 H 0.11251 0.0985 0.38796 0.0
C548 C 0.15035 0.25603 0.33041 0.0
C549 C 0.11457 0.23912 0.32145 0.0
C550 C 0.16674 0.23494 0.33362 0.0
C551 C 0.1472 0.19678 0.3284 0.0
C552 C 0.11135 0.17986 0.31997 0.0
C553 C 0.09528 0.20091 0.31618 0.0
C554 C 0.16357 0.17384 0.33168 0.0
C555 C 0.16027 0.15696 0.35513 0.0
C556 C 0.17953 0.16606 0.3111 0.0
C557 C 0.18518 0.18462 0.28643 0.0
C558 C 0.15616 0.1761 0.26958 0.0
C559 C 0.16183 0.19394 0.24634 0.0
C560 C 0.19648 0.22002 0.23966 0.0
C561 C 0.22552 0.22825 0.25619 0.0
C562 C 0.21995 0.21058 0.2795 0.0
C563 C 0.16395 0.02261 0.34369 0.0
C564 C 0.19444 0.02423 0.33363 0.0
C565 C 0.16093 0.05404 0.34494 0.0
C566 C 0.18862 0.0879 0.33666 0.0
C567 C 0.21922 0.08957 0.32671 0.0
C568 C 0.22204 0.05794 0.32509 0.0
C569 C 0.18418 0.12063 0.33667 0.0
C570 C 0.18967 0.13955 0.31378 0.0
C571 C 0.17094 0.13078 0.35807 0.0
C572 C 0.16808 0.11457 0.38359 0.0
C573 C 0.19765 0.11452 0.39511 0.0
C574 C 0.19477 0.09887 0.41899 0.0
C575 C 0.16246 0.08328 0.43158 0.0
C576 C 0.13299 0.08338 0.42036 0.0
C577 C 0.13573 0.09901 0.3965 0.0
H578 H 0.16028 0.07115 0.45005 0.0
H579 H 0.20083 0.23375 0.22164 0.0
H580 H 0.00489 0.17356 0.37602 0.0
H581 H 0.9565 0.10957 0.37094 0.0
H582 H 0.90707 0.13977 0.31109 0.0
H583 H 0.95554 0.20413 0.31604 0.0
H584 H 0.85816 0.09198 0.34482 0.0
H585 H 0.95372 0.1006 0.29574 0.0
H586 H 0.01525 0.11542 0.28745 0.0
H587 H 0.00765 0.03899 0.34381 0.0
H588 H 0.94634 0.02434 0.35292 0.0
H589 H 0.75427 0.90599 0.28613 0.0
H590 H 0.7974 0.97225 0.29275 0.0
H591 H 0.83078 0.95152 0.36584 0.0
H592 H 0.78698 0.88568 0.35987 0.0
H593 H 0.88697 0.99434 0.32423 0.0
H594 H 0.79361 0.98979 0.37546 0.0
H595 H 0.73213 0.97501 0.38382 0.0
H596 H 0.73609 0.04347 0.32251 0.0
H597 H 0.79748 0.05816 0.31349 0.0
C598 C 0.98361 0.16674 0.3619 0.0
C599 C 0.98413 0.19396 0.34636 0.0
C600 C 0.95606 0.13008 0.35894 0.0
C601 C 0.92844 0.11985 0.34042 0.0
C602 C 0.92821 0.1471 0.32544 0.0
C603 C 0.95594 0.18382 0.32827 0.0
C604 C 0.90017 0.0806 0.33651 0.0
C605 C 0.86444 0.07072 0.33997 0.0
C606 C 0.90847 0.05278 0.3306 0.0
C607 C 0.94548 0.06166 0.32523 0.0
C608 C 0.96527 0.08725 0.30659 0.0
C609 C 0.00011 0.09559 0.30172 0.0
C610 C 0.01536 0.07821 0.31513 0.0
C611 C 0.99581 0.05248 0.33347 0.0
C612 C 0.96102 0.04417 0.33851 0.0
C613 C 0.77037 0.91571 0.3038 0.0
C614 C 0.76712 0.89075 0.32254 0.0
C615 C 0.79497 0.95344 0.30752 0.0
C616 C 0.81721 0.96658 0.32974 0.0
C617 C 0.81374 0.94181 0.3486 0.0
C618 C 0.78855 0.90429 0.34522 0.0
C619 C 0.84524 0.00592 0.33278 0.0
C620 C 0.88085 0.01573 0.32903 0.0
C621 C 0.8369 0.03366 0.33838 0.0
C622 C 0.7999 0.02457 0.34353 0.0
C623 C 0.78119 1.00126 0.36351 0.0
C624 C 0.74641 0.99301 0.36844 0.0
C625 C 0.73015 0.00816 0.35363 0.0
C626 C 0.74868 0.03166 0.33391 0.0
C627 C 0.78347 0.03996 0.32888 0.0
H628 H 0.70323 1.00178 0.3575 0.0
H629 H 0.04226 0.08456 0.31126 0.0
H630 H 0.21071 0.74764 0.28772 0.0
H631 H 0.18959 0.683 0.29592 0.0
H632 H 0.16004 0.69747 0.37187 0.0
H633 H 0.1813 0.76245 0.36389 0.0
H634 H 0.20266 0.66369 0.36999 0.0
H635 H 0.09613 0.65097 0.32659 0.0
H636 H 0.06526 0.66148 0.29038 0.0
H637 H 0.09931 0.60536 0.2387 0.0
H638 H 0.13077 0.59495 0.27454 0.0
H639 H 0.12892 0.47658 0.39895 0.0
H640 H 0.13483 0.5371 0.39328 0.0
H641 H 0.1418 0.52533 0.31149 0.0
H642 H 0.13412 0.4645 0.31688 0.0
H643 H 0.10736 0.55805 0.31816 0.0
H644 H 0.21723 0.57541 0.35266 0.0
H645 H 0.25724 0.56776 0.38289 0.0
H646 H 0.2293 0.6179 0.44372 0.0
H647 H 0.18869 0.62539 0.41388 0.0
C648 C 0.19928 0.73702 0.30606 0.0
C649 C 0.19764 0.76017 0.32515 0.0
C650 C 0.1872 0.70005 0.31069 0.0
C651 C 0.17315 0.68551 0.33445 0.0
C652 C 0.17079 0.70827 0.3534 0.0
C653 C 0.18273 0.74528 0.34874 0.0
C654 C 0.16231 0.6469 0.3398 0.0
C655 C 0.18131 0.64044 0.35908 0.0
C656 C 0.13571 0.61692 0.32463 0.0
C657 C 0.11592 0.62232 0.30325 0.0
C658 C 0.09713 0.64099 0.30749 0.0
C659 C 0.07953 0.64693 0.28703 0.0
C660 C 0.08035 0.63413 0.26225 0.0
C661 C 0.09867 0.61524 0.2579 0.0
C662 C 0.11633 0.60926 0.27829 0.0
C663 C 0.13113 0.48673 0.37975 0.0
C664 C 0.13126 0.46591 0.3584 0.0
C665 C 0.13476 0.52139 0.37653 0.0
C666 C 0.13954 0.53616 0.352 0.0
C667 C 0.13816 0.51464 0.33061 0.0
C668 C 0.13382 0.4798 0.33375 0.0
C669 C 0.1476 0.57456 0.34852 0.0
C670 C 0.1283 0.58109 0.32947 0.0
C671 C 0.17508 0.60481 0.36311 0.0
C672 C 0.19958 0.60054 0.38112 0.0
C673 C 0.21941 0.58455 0.37253 0.0
C674 C 0.24223 0.58028 0.38958 0.0
C675 C 0.24572 0.59223 0.41523 0.0
C676 C 0.2265 0.60859 0.42385 0.0
C677 C 0.20358 0.61287 0.40688 0.0
H678 H 0.2634 0.5889 0.42842 0.0
H679 H 0.06677 0.63882 0.24643 0.0
H680 H 0.24813 0.50867 0.33907 0.0
H681 H 0.31222 0.55152 0.34356 0.0
H682 H 0.33118 0.46013 0.34334 0.0
H683 H 0.26629 0.4168 0.34033 0.0
H684 H 0.37669 0.50991 0.37513 0.0
H685 H 0.3443 0.5145 0.28862 0.0
H686 H 0.30959 0.51921 0.25239 0.0
H687 H 0.33835 0.62845 0.27886 0.0
H688 H 0.37287 0.62423 0.31545 0.0
H689 H 0.56167 0.65126 0.33979 0.0
H690 H 0.50109 0.59691 0.33513 0.0
H691 H 0.4589 0.65656 0.37509 0.0
H692 H 0.51896 0.71022 0.38051 0.0
H693 H 0.42908 0.61719 0.31866 0.0
H694 H 0.45593 0.60429 0.4091 0.0
H695 H 0.4934 0.59738 0.44216 0.0
H696 H 0.47823 0.49976 0.40242 0.0
H697 H 0.44112 0.50649 0.36889 0.0
C698 C 0.26594 0.49766 0.34003 0.0
C699 C 0.2523 0.45943 0.33903 0.0
C700 C 0.30267 0.52222 0.34242 0.0
C701 C 0.32683 0.50924 0.34292 0.0
C702 C 0.3132 0.47092 0.34273 0.0
C703 C 0.27617 0.44618 0.34099 0.0
C704 C 0.3661 0.536 0.34365 0.0
C705 C 0.38811 0.53296 0.36245 0.0
C706 C 0.38151 0.56609 0.32699 0.0
C707 C 0.36101 0.56893 0.30488 0.0
C708 C 0.34307 0.53945 0.2868 0.0
C709 C 0.32344 0.54204 0.26619 0.0
C710 C 0.32172 0.57409 0.26335 0.0
C711 C 0.3397 0.60364 0.28108 0.0
C712 C 0.35936 0.60119 0.30175 0.0
C713 C 0.53951 0.65251 0.34789 0.0
C714 C 0.54511 0.68492 0.36066 0.0
C715 C 0.50502 0.62154 0.3452 0.0
C716 C 0.4757 0.62285 0.35484 0.0
C717 C 0.48128 0.65503 0.36767 0.0
C718 C 0.51567 0.6856 0.37084 0.0
C719 C 0.43878 0.59154 0.35059 0.0
C720 C 0.41744 0.59375 0.33102 0.0
C721 C 0.42429 0.56038 0.36605 0.0
C722 C 0.4462 0.55618 0.38634 0.0
C723 C 0.46092 0.5816 0.40727 0.0
C724 C 0.48201 0.57766 0.42613 0.0
C725 C 0.4883 0.54823 0.42434 0.0
C726 C 0.4734 0.52259 0.40375 0.0
C727 C 0.45233 0.52645 0.38482 0.0
H728 H 0.50463 0.54522 0.43896 0.0
H729 H 0.30649 0.57603 0.24738 0.0
H730 H 0.32549 0.84082 0.32149 0.0
H731 H 0.37408 0.82768 0.32163 0.0
H732 H 0.44129 0.92843 0.36582 0.0
H733 H 0.39253 0.94205 0.36574 0.0
H734 H 0.47618 0.91593 0.32506 0.0
H735 H 0.4054 0.85071 0.39606 0.0
H736 H 0.34934 0.8092 0.41724 0.0
H737 H 0.33183 0.71967 0.36626 0.0
H738 H 0.38757 0.76079 0.34451 0.0
H739 H 0.60409 0.859 0.35439 0.0
H740 H 0.56139 0.88069 0.35908 0.0
H741 H 0.48133 0.78457 0.31586 0.0
H742 H 0.52362 0.76303 0.31084 0.0
H743 H 0.45565 0.7984 0.36059 0.0
H744 H 0.52027 0.862 0.28709 0.0
H745 H 0.57374 0.90198 0.26279 0.0
H746 H 0.60054 0.99257 0.31572 0.0
H747 H 0.54741 0.9529 0.34056 0.0
C748 C 0.35058 0.86034 0.33122 0.0
C749 C 0.35504 0.8924 0.34379 0.0
C750 C 0.37831 0.85269 0.33132 0.0
C751 C 0.41107 0.8768 0.34405 0.0
C752 C 0.4161 0.9094 0.35599 0.0
C753 C 0.38823 0.91708 0.35596 0.0
C754 C 0.43969 0.8674 0.34497 0.0
C755 C 0.47206 0.89066 0.33334 0.0
C756 C 0.43383 0.83393 0.3552 0.0
C757 C 0.40059 0.80893 0.36854 0.0
C758 C 0.38951 0.82223 0.38926 0.0
C759 C 0.35779 0.79876 0.40138 0.0
C760 C 0.33701 0.76184 0.39307 0.0
C761 C 0.34796 0.74828 0.37267 0.0
C762 C 0.37965 0.77165 0.36046 0.0
C763 C 0.57742 0.84262 0.34583 0.0
C764 C 0.56731 0.80943 0.33214 0.0
C765 C 0.5531 0.85503 0.3485 0.0
C766 C 0.51822 0.83421 0.33779 0.0
C767 C 0.50807 0.80099 0.32431 0.0
C768 C 0.53241 0.78887 0.32134 0.0
C769 C 0.49206 0.84679 0.34049 0.0
C770 C 0.46007 0.82403 0.35275 0.0
C771 C 0.49812 0.88051 0.33063 0.0
C772 C 0.53019 0.90435 0.31589 0.0
C773 C 0.53779 0.89033 0.29371 0.0
C774 C 0.56797 0.91295 0.2798 0.0
C775 C 0.5906 0.94975 0.28777 0.0
C776 C 0.58303 0.96402 0.30962 0.0
C777 C 0.55288 0.94149 0.32362 0.0
H778 H 0.61395 0.96724 0.27696 0.0
H779 H 0.31244 0.74372 0.40246 0.0
H780 H 0.78189 0.2675 0.69358 0.0
H781 H 0.7178 0.24398 0.69321 0.0
H782 H 0.701 0.16214 0.63478 0.0
H783 H 0.76556 0.1856 0.63494 0.0
H784 H 0.6598 0.19795 0.62752 0.0
H785 H 0.68601 0.13405 0.69192 0.0
H786 H 0.71835 0.12877 0.7295 0.0
H787 H 0.68738 0.193 0.77568 0.0
H788 H 0.65531 0.19916 0.73827 0.0
H789 H 0.47306 0.09561 0.6485 0.0
H790 H 0.535 0.11139 0.64331 0.0
H791 H 0.56843 0.18987 0.70726 0.0
H792 H 0.50656 0.17362 0.71302 0.0
H793 H 0.60007 0.14939 0.70958 0.0
H794 H 0.57824 0.21786 0.64604 0.0
H795 H 0.54617 0.22526 0.60918 0.0
H796 H 0.56922 0.15534 0.56213 0.0
H797 H 0.60098 0.14706 0.59885 0.0
C798 C 0.76468 0.24461 0.68053 0.0
C799 C 0.77861 0.22795 0.66457 0.0
C800 C 0.72811 0.23127 0.68035 0.0
C801 C 0.70489 0.20101 0.66431 0.0
C802 C 0.71872 0.18542 0.64738 0.0
C803 C 0.75546 0.19877 0.64754 0.0
C804 C 0.66609 0.18491 0.66628 0.0
C805 C 0.64646 0.18666 0.64525 0.0
C806 C 0.64921 0.17098 0.68967 0.0
C807 C 0.66852 0.16733 0.71221 0.0
C808 C 0.68637 0.14733 0.71002 0.0
C809 C 0.7046 0.14413 0.73131 0.0
C810 C 0.70499 0.16061 0.75495 0.0
C811 C 0.68709 0.18028 0.75736 0.0
C812 C 0.66886 0.18361 0.73612 0.0
C813 C 0.49359 0.11604 0.66156 0.0
C814 C 0.48509 0.1336 0.68107 0.0
C815 C 0.52891 0.12513 0.65847 0.0
C816 C 0.55618 0.1521 0.67469 0.0
C817 C 0.54766 0.16901 0.69454 0.0
C818 C 0.51236 0.15979 0.69774 0.0
C819 C 0.59377 0.16303 0.67098 0.0
C820 C 0.61321 0.16026 0.69171 0.0
C821 C 0.61047 0.17631 0.64741 0.0
C822 C 0.59164 0.18151 0.62526 0.0
C823 C 0.57623 0.20383 0.62789 0.0
C824 C 0.55814 0.20822 0.60702 0.0
C825 C 0.55558 0.1907 0.58335 0.0
C826 C 0.57118 0.16884 0.58049 0.0
C827 C 0.58924 0.1643 0.60132 0.0
H828 H 0.54157 0.19413 0.56721 0.0
H829 H 0.7191 0.15807 0.77141 0.0
H830 H 0.88383 0.3447 0.6877 0.0
H831 H 0.87281 0.39613 0.69193 0.0
H832 H 0.90591 0.42631 0.61453 0.0
H833 H 0.91595 0.37405 0.60976 0.0
H834 H 0.92955 0.48626 0.66709 0.0
H835 H 0.83444 0.3918 0.60654 0.0
H836 H 0.78953 0.32651 0.59666 0.0
H837 H 0.74025 0.32052 0.66837 0.0
H838 H 0.78525 0.38572 0.67878 0.0
H839 H 0.86202 0.60122 0.62705 0.0
H840 H 0.88335 0.55742 0.63025 0.0
H841 H 0.80338 0.49654 0.68542 0.0
H842 H 0.78212 0.54022 0.68255 0.0
H843 H 0.80355 0.45124 0.64759 0.0
H844 H 0.8859 0.5432 0.70596 0.0
H845 H 0.93042 0.60522 0.72307 0.0
H846 H 0.0031 0.61393 0.66525 0.0
H847 H 0.95872 0.55213 0.64747 0.0
C848 C 0.88957 0.36275 0.67175 0.0
C849 C 0.90074 0.35537 0.64835 0.0
C850 C 0.88317 0.39203 0.67421 0.0
C851 C 0.88851 0.41478 0.65353 0.0
C852 C 0.90172 0.40894 0.63068 0.0
C853 C 0.9074 0.37914 0.62799 0.0
C854 C 0.87714 0.44242 0.65499 0.0
C855 C 0.90221 0.47895 0.66243 0.0
C856 C 0.84107 0.43215 0.65017 0.0
C857 C 0.81338 0.39343 0.64354 0.0
C858 C 0.81417 0.37646 0.62026 0.0
C859 C 0.78868 0.33951 0.61455 0.0
C860 C 0.76212 0.31933 0.63192 0.0
C861 C 0.76087 0.33616 0.65496 0.0
C862 C 0.78633 0.37312 0.66075 0.0
C863 C 0.84925 0.57875 0.64008 0.0
C864 C 0.82038 0.57424 0.65452 0.0
C865 C 0.8615 0.55379 0.64192 0.0
C866 C 0.84493 0.52373 0.65808 0.0
C867 C 0.81649 0.51949 0.67281 0.0
C868 C 0.80452 0.54464 0.67121 0.0
C869 C 0.85632 0.49589 0.65875 0.0
C870 C 0.83107 0.459 0.652 0.0
C871 C 0.89209 0.50576 0.66485 0.0
C872 C 0.91876 0.5432 0.67515 0.0
C873 C 0.91119 0.55851 0.69667 0.0
C874 C 0.93644 0.59359 0.70654 0.0
C875 C 0.96952 0.61357 0.69519 0.0
C876 C 0.97742 0.59846 0.67397 0.0
C877 C 0.95222 0.56338 0.66399 0.0
H878 H 0.98907 0.64071 0.70289 0.0
H879 H 0.74247 0.2907 0.62752 0.0
H880 H 0.6589 0.50792 0.63361 0.0
H881 H 0.60671 0.44591 0.62962 0.0
H882 H 0.58408 0.45355 0.70904 0.0
H883 H 0.63764 0.51479 0.71342 0.0
H884 H 0.57725 0.3909 0.70099 0.0
H885 H 0.53236 0.45722 0.65418 0.0
H886 H 0.53328 0.49913 0.6214 0.0
H887 H 0.53564 0.42842 0.56185 0.0
H888 H 0.53517 0.38632 0.59428 0.0
H889 H 0.4139 0.22022 0.69182 0.0
H890 H 0.45453 0.28705 0.69603 0.0
H891 H 0.49389 0.28622 0.62088 0.0
H892 H 0.4531 0.21981 0.61634 0.0
H893 H 0.48791 0.34636 0.62848 0.0
H894 H 0.53983 0.28501 0.67491 0.0
H895 H 0.5401 0.24293 0.70703 0.0
H896 H 0.52414 0.30436 0.76682 0.0
H897 H 0.52378 0.34687 0.73498 0.0
C898 C 0.64251 0.49652 0.65011 0.0
C899 C 0.65227 0.51618 0.67381 0.0
C900 C 0.61248 0.46108 0.6478 0.0
C901 C 0.59084 0.44503 0.6689 0.0
C902 C 0.6002 0.46516 0.69244 0.0
C903 C 0.63076 0.50022 0.69493 0.0
C904 C 0.55984 0.40652 0.6669 0.0
C905 C 0.55733 0.38152 0.6854 0.0
C906 C 0.53414 0.39367 0.64625 0.0
C907 C 0.53394 0.41873 0.6267 0.0
C908 C 0.53324 0.4507 0.63411 0.0
C909 C 0.53367 0.47448 0.61558 0.0
C910 C 0.53457 0.46647 0.58956 0.0
C911 C 0.53494 0.4346 0.58201 0.0
C912 C 0.53453 0.41073 0.60045 0.0
C913 C 0.43075 0.23437 0.67601 0.0
C914 C 0.43043 0.2146 0.65382 0.0
C915 C 0.45412 0.27254 0.67851 0.0
C916 C 0.4777 0.29157 0.65894 0.0
C917 C 0.47604 0.27216 0.63626 0.0
C918 C 0.45271 0.2341 0.63373 0.0
C919 C 0.50558 0.33117 0.66251 0.0
C920 C 0.50757 0.35616 0.64427 0.0
C921 C 0.53081 0.34409 0.68337 0.0
C922 C 0.53141 0.31885 0.70255 0.0
C923 C 0.53619 0.28941 0.69489 0.0
C924 C 0.53639 0.26551 0.71305 0.0
C925 C 0.53192 0.27082 0.73894 0.0
C926 C 0.52751 0.30023 0.74675 0.0
C927 C 0.5274 0.32429 0.72867 0.0
H928 H 0.532 0.25223 0.75297 0.0
H929 H 0.53494 0.48494 0.57526 0.0
H930 H 0.79692 0.82668 0.65378 0.0
H931 H 0.80315 0.88771 0.65072 0.0
H932 H 0.85438 0.91841 0.72612 0.0
H933 H 0.84793 0.85754 0.72947 0.0
H934 H 0.80642 0.94181 0.71934 0.0
H935 H 0.90368 0.94452 0.67237 0.0
H936 H 0.92748 0.92154 0.63876 0.0
H937 H 0.86811 0.94168 0.58092 0.0
H938 H 0.84367 0.96443 0.61427 0.0
H939 H 0.91409 0.13312 0.72881 0.0
H940 H 0.88779 0.06659 0.72578 0.0
H941 H 0.85032 0.0646 0.64817 0.0
H942 H 0.87754 0.13198 0.65088 0.0
H943 H 0.88082 0.02338 0.65108 0.0
H944 H 0.79107 0.03008 0.69706 0.0
H945 H 0.76603 0.05218 0.73029 0.0
H946 H 0.80807 0.01319 0.78913 0.0
H947 H 0.83382 0.99131 0.75629 0.0
C948 C 0.80926 0.84633 0.66979 0.0
C949 C 0.8221 0.83729 0.69183 0.0
C950 C 0.81288 0.88123 0.66798 0.0
C951 C 0.82954 0.90774 0.6881 0.0
C952 C 0.8414 0.89838 0.71038 0.0
C953 C 0.83782 0.86358 0.71221 0.0
C954 C 0.83606 0.9458 0.68578 0.0
C955 C 0.8228 0.95974 0.70449 0.0
C956 C 0.85632 0.96874 0.66585 0.0
C957 C 0.87162 0.95584 0.6458 0.0
C958 C 0.8956 0.94389 0.65249 0.0
C959 C 0.90921 0.93092 0.63349 0.0
C960 C 0.89924 0.93006 0.60772 0.0
C961 C 0.87577 0.94233 0.60089 0.0
C962 C 0.86207 0.9553 0.61982 0.0
C963 C 0.89997 0.11865 0.71113 0.0
C964 C 0.8979 0.13795 0.69009 0.0
C965 C 0.88472 0.08044 0.70948 0.0
C966 C 0.86657 0.0604 0.68688 0.0
C967 C 0.86405 0.07946 0.66586 0.0
C968 C 0.87948 0.11792 0.66746 0.0
C969 C 0.85209 0.01988 0.68515 0.0
C970 C 0.86385 0.00539 0.66568 0.0
C971 C 0.8302 0.99633 0.7043 0.0
C972 C 0.81455 0.00922 0.72418 0.0
C973 C 0.79518 0.02642 0.7171 0.0
C974 C 0.78083 0.03888 0.73587 0.0
C975 C 0.7855 0.03413 0.76181 0.0
C976 C 0.80447 0.01684 0.76903 0.0
C977 C 0.8189 0.00434 0.75034 0.0
H978 H 0.77437 0.04382 0.77631 0.0
H979 H 0.90976 0.91996 0.59305 0.0
H980 H 0.93198 0.75715 0.64962 0.0
H981 H 0.9974 0.79555 0.65437 0.0
H982 H 0.98613 0.8773 0.69801 0.0
H983 H 0.92106 0.83965 0.6922 0.0
H984 H 0.03521 0.91084 0.66575 0.0
H985 H 0.00986 0.81411 0.72545 0.0
H986 H 0.986 0.7499 0.73832 0.0
H987 H 0.05212 0.73624 0.68425 0.0
H988 H 0.0761 0.80027 0.67088 0.0
H989 H 0.2037 0.00234 0.73581 0.0
H990 H 0.14317 0.94933 0.73002 0.0
H991 H 0.16425 0.93388 0.65176 0.0
H992 H 0.225 0.98677 0.65728 0.0
H993 H 0.11317 0.86512 0.69931 0.0
H994 H 0.11377 0.956 0.63033 0.0
H995 H 0.14502 0.02248 0.6214 0.0
H996 H 0.1314 0.04771 0.69906 0.0
H997 H 0.09989 0.98134 0.70833 0.0
C998 C 0.9437 0.78314 0.66045 0.0
C999 C 0.92187 0.79546 0.67085 0.0
C1000 C 0.98099 0.80505 0.66322 0.0
C1001 C 0.99686 0.83925 0.67683 0.0
C1002 C 0.97469 0.85114 0.68741 0.0
C1003 C 0.93757 0.82956 0.68429 0.0
C1004 C 0.03644 0.86332 0.67962 0.0
C1005 C 0.05196 0.90052 0.67309 0.0
C1006 C 0.05889 0.85026 0.68894 0.0
C1007 C 0.04447 0.81182 0.69699 0.0
C1008 C 0.01911 0.79731 0.71619 0.0
C1009 C 0.00561 0.76098 0.72359 0.0
C1010 C 0.01745 0.73897 0.71206 0.0
C1011 C 0.04292 0.75329 0.69314 0.0
C1012 C 0.0565 0.7896 0.68566 0.0
C1013 C 0.19588 0.98708 0.71757 0.0
C1014 C 0.21908 0.99898 0.69695 0.0
C1015 C 0.16135 0.95668 0.71438 0.0
C1016 C 0.14951 0.93772 0.69055 0.0
C1017 C 0.1732 0.948 0.67038 0.0
C1018 C 0.20783 0.97832 0.67357 0.0
C1019 C 0.11097 0.91179 0.6856 0.0
C1020 C 0.09597 0.87472 0.69169 0.0
C1021 C 0.08885 0.92473 0.67608 0.0
C1022 C 0.1042 0.96392 0.66988 0.0
C1023 C 0.11701 0.97576 0.64534 0.0
C1024 C 0.13499 0.01337 0.6403 0.0
C1025 C 0.14031 0.03924 0.6597 0.0
C1026 C 0.12734 0.02759 0.68411 0.0
C1027 C 0.10925 0.99002 0.68921 0.0
H1028 H 0.15411 0.06827 0.65576 0.0
H1029 H 0.00696 0.71085 0.71782 0.0
H1030 H 0.22917 0.13101 0.70618 0.0
H1031 H 0.18675 0.15324 0.70831 0.0
H1032 H 0.18375 0.15675 0.62578 0.0
H1033 H 0.22511 0.13323 0.62341 0.0
H1034 H 0.20255 0.2262 0.67722 0.0
H1035 H 0.11971 0.118 0.61908 0.0
H1036 H 0.08622 0.05186 0.60634 0.0
H1037 H 0.04546 0.02532 0.68207 0.0
H1038 H 0.07939 0.09138 0.69535 0.0
H1039 H 0.05616 0.25242 0.63135 0.0
H1040 H 0.10165 0.2344 0.63451 0.0
H1041 H 0.07536 0.20556 0.71316 0.0
H1042 H 0.03053 0.22478 0.71044 0.0
H1043 H 0.07072 0.14834 0.6659 0.0
H1044 H 0.14339 0.26054 0.7186 0.0
H1045 H 0.17185 0.32762 0.72708 0.0
H1046 H 0.22998 0.34775 0.65787 0.0
H1047 H 0.20138 0.28072 0.64879 0.0
C1048 C 0.21931 0.13639 0.68851 0.0
C1049 C 0.23033 0.13051 0.66464 0.0
C1050 C 0.19499 0.14879 0.68975 0.0
C1051 C 0.18176 0.15584 0.66717 0.0
C1052 C 0.19303 0.15045 0.64333 0.0
C1053 C 0.21681 0.13737 0.64204 0.0
C1054 C 0.15818 0.17141 0.66878 0.0
C1055 C 0.17373 0.20925 0.67468 0.0
C1056 C 0.1207 0.14915 0.6656 0.0
C1057 C 0.10279 0.10942 0.65837 0.0
C1058 C 0.10428 0.09797 0.63316 0.0
C1059 C 0.08494 0.06055 0.62577 0.0
C1060 C 0.06371 0.03439 0.64338 0.0
C1061 C 0.06192 0.04561 0.66845 0.0
C1062 C 0.08134 0.083 0.67595 0.0
C1063 C 0.06074 0.24308 0.64949 0.0
C1064 C 0.04008 0.23997 0.67068 0.0
C1065 C 0.08662 0.23287 0.65125 0.0
C1066 C 0.09167 0.21885 0.67406 0.0
C1067 C 0.07185 0.2167 0.69551 0.0
C1068 C 0.04649 0.22777 0.69396 0.0
C1069 C 0.11507 0.20304 0.67438 0.0
C1070 C 0.09952 0.1652 0.66875 0.0
C1071 C 0.15251 0.22543 0.67736 0.0
C1072 C 0.16994 0.26567 0.68288 0.0
C1073 C 0.16194 0.27928 0.70505 0.0
C1074 C 0.17817 0.31728 0.71 0.0
C1075 C 0.20263 0.34194 0.69298 0.0
C1076 C 0.21099 0.32863 0.67102 0.0
C1077 C 0.1948 0.29063 0.66597 0.0
H1078 H 0.21517 0.37136 0.69685 0.0
H1079 H 0.04876 0.00544 0.63764 0.0
H1080 H 0.04464 0.31789 0.25729 0.0
H1081 H 0.04121 0.33981 0.21544 0.0
H1082 H 0.15502 0.41602 0.21935 0.0
H1083 H 0.15858 0.3948 0.26236 0.0
H1084 H 0.11794 0.44927 0.20474 0.0
H1085 H 0.11979 0.34182 0.17682 0.0
H1086 H 0.10333 0.27646 0.17705 0.0
H1087 H 0.99406 0.24318 0.15833 0.0
H1088 H 0.00972 0.30827 0.15832 0.0
H1089 H 0.08285 0.48373 0.07401 0.0
H1090 H 0.10662 0.47563 0.11481 0.0
H1091 H 0.00221 0.38405 0.13048 0.0
H1092 H 0.97929 0.39078 0.08895 0.0
H1093 H 0.0497 0.36355 0.13138 0.0
H1094 H 0.04617 0.47 0.16662 0.0
H1095 H 0.06168 0.53514 0.16818 0.0
H1096 H 0.17332 0.56995 0.17336 0.0
H1097 H 0.15847 0.50501 0.17157 0.0
C1098 C 0.06916 0.33897 0.24924 0.0
C1099 C 0.10191 0.35469 0.26318 0.0
C1100 C 0.06716 0.35133 0.22515 0.0
C1101 C 0.09792 0.37919 0.21412 0.0
C1102 C 0.13101 0.39432 0.22754 0.0
C1103 C 0.13304 0.382 0.25195 0.0
C1104 C 0.09415 0.39354 0.18933 0.0
C1105 C 0.10377 0.43079 0.1884 0.0
C1106 C 0.07539 0.36929 0.16817 0.0
C1107 C 0.06598 0.33002 0.16758 0.0
C1108 C 0.09223 0.32058 0.17282 0.0
C1109 C 0.08303 0.28355 0.17292 0.0
C1110 C 0.04768 0.25569 0.16771 0.0
C1111 C 0.02146 0.26479 0.16232 0.0
C1112 C 0.0305 0.30176 0.1622 0.0
C1113 C 0.06491 0.46262 0.0866 0.0
C1114 C 0.02942 0.43773 0.0786 0.0
C1115 C 0.07843 0.45808 0.10992 0.0
C1116 C 0.05626 0.42904 0.12561 0.0
C1117 C 0.01986 0.40643 0.11854 0.0
C1118 C 0.00665 0.41046 0.09503 0.0
C1119 C 0.07137 0.41871 0.14744 0.0
C1120 C 0.06433 0.38225 0.14753 0.0
C1121 C 0.0924 0.44369 0.16772 0.0
C1122 C 0.10122 0.48267 0.16867 0.0
C1123 C 0.07403 0.49155 0.16787 0.0
C1124 C 0.0827 0.52844 0.16885 0.0
C1125 C 0.11846 0.55666 0.17079 0.0
C1126 C 0.14563 0.54807 0.17182 0.0
C1127 C 0.13711 0.51124 0.17085 0.0
H1128 H 0.12511 0.58519 0.17157 0.0
H1129 H 0.0406 0.22705 0.16785 0.0
H1130 H 0.65505 0.78911 0.25022 0.0
H1131 H 0.63022 0.75861 0.20798 0.0
H1132 H 0.60935 0.65492 0.23824 0.0
H1133 H 0.63613 0.68574 0.27953 0.0
H1134 H 0.64016 0.66301 0.19691 0.0
H1135 H 0.54204 0.67871 0.22138 0.0
H1136 H 0.51329 0.71353 0.23552 0.0
H1137 H 0.54816 0.77822 0.16826 0.0
H1138 H 0.5776 0.74419 0.15391 0.0
H1139 H 0.54905 0.55174 0.08659 0.0
H1140 H 0.55242 0.57742 0.13015 0.0
H1141 H 0.6013 0.68686 0.10055 0.0
H1142 H 0.59882 0.66148 0.05741 0.0
H1143 H 0.55203 0.67368 0.14122 0.0
H1144 H 0.6542 0.66221 0.11972 0.0
H1145 H 0.68369 0.62829 0.10528 0.0
H1146 H 0.64055 0.5557 0.16812 0.0
H1147 H 0.61017 0.58878 0.18262 0.0
C1148 C 0.64487 0.75978 0.24771 0.0
C1149 C 0.64783 0.73976 0.26784 0.0
C1150 C 0.63042 0.74227 0.22369 0.0
C1151 C 0.61765 0.70429 0.21987 0.0
C1152 C 0.61926 0.68423 0.24052 0.0
C1153 C 0.63457 0.70184 0.26412 0.0
C1154 C 0.60532 0.68563 0.19408 0.0
C1155 C 0.62025 0.66479 0.1851 0.0
C1156 C 0.58018 0.68874 0.17812 0.0
C1157 C 0.56231 0.7091 0.18669 0.0
C1158 C 0.54381 0.70054 0.20969 0.0
C1159 C 0.52735 0.72012 0.21773 0.0
C1160 C 0.52897 0.74812 0.20282 0.0
C1161 C 0.54697 0.75655 0.1798 0.0
C1162 C 0.56352 0.73711 0.1717 0.0
C1163 C 0.55967 0.58111 0.08944 0.0
C1164 C 0.57406 0.60483 0.06897 0.0
C1165 C 0.56157 0.59572 0.11418 0.0
C1166 C 0.57726 0.63404 0.11847 0.0
C1167 C 0.58901 0.65727 0.0976 0.0
C1168 C 0.58783 0.64281 0.07308 0.0
C1169 C 0.58622 0.6506 0.14479 0.0
C1170 C 0.57121 0.6714 0.15355 0.0
C1171 C 0.6112 0.64747 0.16071 0.0
C1172 C 0.62947 0.62759 0.15201 0.0
C1173 C 0.65065 0.63874 0.13027 0.0
C1174 C 0.66758 0.61972 0.12211 0.0
C1175 C 0.66388 0.58976 0.13572 0.0
C1176 C 0.6433 0.57883 0.15755 0.0
C1177 C 0.62619 0.59768 0.16573 0.0
H1178 H 0.67706 0.5751 0.12939 0.0
H1179 H 0.51622 0.76325 0.20908 0.0
H1180 H 0.37415 0.93396 0.05669 0.0
H1181 H 0.34639 0.91381 0.09804 0.0
H1182 H 0.42019 0.02118 0.13205 0.0
H1183 H 0.44882 0.04101 0.09095 0.0
H1184 H 0.40975 0.96796 0.16455 0.0
H1185 H 0.33523 0.99817 0.1127 0.0
H1186 H 0.29939 0.99376 0.07403 0.0
H1187 H 0.22958 0.87809 0.08495 0.0
H1188 H 0.26528 0.88177 0.12355 0.0
H1189 H 0.31294 0.98232 0.26784 0.0
H1190 H 0.34213 0.98966 0.22698 0.0
H1191 H 0.27421 0.87344 0.209 0.0
H1192 H 0.24532 0.86562 0.25028 0.0
H1193 H 0.28014 0.92412 0.16852 0.0
H1194 H 0.35168 0.89575 0.22326 0.0
H1195 H 0.38691 0.90137 0.26255 0.0
H1196 H 0.46204 0.01414 0.2467 0.0
H1197 H 0.42687 0.00941 0.20753 0.0
C1198 C 0.38493 0.95301 0.07304 0.0
C1199 C 0.41381 0.98899 0.07044 0.0
C1200 C 0.36882 0.94159 0.09667 0.0
C1201 C 0.38093 0.96611 0.11813 0.0
C1202 C 0.41038 1.00174 0.11579 0.0
C1203 C 0.42661 0.01309 0.0922 0.0
C1204 C 0.36197 0.95536 0.1427 0.0
C1205 C 0.38148 0.9586 0.16542 0.0
C1206 C 0.32486 0.94233 0.14383 0.0
C1207 C 0.30311 0.94017 0.12084 0.0
C1208 C 0.31235 0.97176 0.10676 0.0
C1209 C 0.29206 0.9694 0.08487 0.0
C1210 C 0.26229 0.93564 0.077 0.0
C1211 C 0.25268 0.90421 0.09105 0.0
C1212 C 0.2729 0.90642 0.11295 0.0
C1213 C 0.30417 0.9583 0.25521 0.0
C1214 C 0.27677 0.92341 0.26223 0.0
C1215 C 0.32097 0.96253 0.23193 0.0
C1216 C 0.31035 0.93207 0.21506 0.0
C1217 C 0.28275 0.89723 0.22183 0.0
C1218 C 0.26639 0.89283 0.2454 0.0
C1219 C 0.32802 0.93712 0.19025 0.0
C1220 C 0.30831 0.93298 0.16755 0.0
C1221 C 0.3649 0.94939 0.18917 0.0
C1222 C 0.38643 0.95232 0.21256 0.0
C1223 C 0.37554 0.92186 0.22826 0.0
C1224 C 0.39552 0.92486 0.25049 0.0
C1225 C 0.42665 0.95812 0.25714 0.0
C1226 C 0.4379 0.98841 0.24153 0.0
C1227 C 0.41796 0.98557 0.21929 0.0
H1228 H 0.44209 0.96039 0.27436 0.0
H1229 H 0.24662 0.93386 0.06004 0.0
H1230 H 0.37077 0.00598 0.948 0.0
H1231 H 0.36188 0.03435 0.91029 0.0
H1232 H 0.47227 0.0779 0.89159 0.0
H1233 H 0.48156 0.05095 0.93043 0.0
H1234 H 0.45224 0.12408 0.87605 0.0
H1235 H 0.40653 0.99652 0.86432 0.0
H1236 H 0.37291 0.93032 0.87338 0.0
H1237 H 0.27429 0.93083 0.86772 0.0
H1238 H 0.30741 0.99725 0.85903 0.0
H1239 H 0.41019 0.09189 0.73815 0.0
H1240 H 0.42694 0.08949 0.78267 0.0
H1241 H 0.34131 0.10476 0.80822 0.0
H1242 H 0.32502 0.10867 0.76328 0.0
H1243 H 0.34962 0.03314 0.82053 0.0
H1244 H 0.40595 0.16729 0.82652 0.0
H1245 H 0.44691 0.22907 0.81054 0.0
H1246 H 0.53487 0.21003 0.819 0.0
H1247 H 0.49431 0.1479 0.83468 0.0
C1248 C 0.39329 0.02235 0.93612 0.0
C1249 C 0.42672 0.02617 0.94183 0.0
C1250 C 0.3882 0.0384 0.91452 0.0
C1251 C 0.41612 0.05743 0.89763 0.0
C1252 C 0.45025 0.06319 0.90421 0.0
C1253 C 0.45556 0.04776 0.92629 0.0
C1254 C 0.40845 0.06794 0.87217 0.0
C1255 C 0.42981 0.10417 0.86395 0.0
C1256 C 0.37961 0.04188 0.85597 0.0
C1257 C 0.35949 1.00197 0.86135 0.0
C1258 C 0.3777 0.9826 0.86525 0.0
C1259 C 0.35873 0.94503 0.87028 0.0
C1260 C 0.32149 0.92641 0.87121 0.0
C1261 C 0.30314 0.94532 0.86706 0.0
C1262 C 0.322 0.98293 0.86208 0.0
C1263 C 0.3953 0.09552 0.7532 0.0
C1264 C 0.36616 0.10034 0.74724 0.0
C1265 C 0.40507 0.09431 0.77863 0.0
C1266 C 0.38553 0.0972 0.79864 0.0
C1267 C 0.35691 0.1029 0.79293 0.0
C1268 C 0.34763 0.10507 0.76735 0.0
C1269 C 0.39245 0.08937 0.82499 0.0
C1270 C 0.37137 0.05325 0.83306 0.0
C1271 C 0.42246 0.11504 0.84031 0.0
C1272 C 0.44701 0.1528 0.83158 0.0
C1273 C 0.43397 0.17616 0.8248 0.0
C1274 C 0.45713 0.21127 0.81583 0.0
C1275 C 0.49346 0.22343 0.81369 0.0
C1276 C 0.50672 0.20057 0.82066 0.0
C1277 C 0.48367 0.16543 0.82963 0.0
H1278 H 0.51132 0.25057 0.80667 0.0
H1279 H 0.30685 0.8973 0.87508 0.0
H1280 H 0.97251 0.44312 0.92388 0.0
H1281 H 0.94918 0.41676 0.88049 0.0
H1282 H 0.95467 0.32015 0.89915 0.0
H1283 H 0.97878 0.34652 0.94173 0.0
H1284 H 0.98416 0.34554 0.85518 0.0
H1285 H 0.87487 0.32273 0.89596 0.0
H1286 H 0.83729 0.34253 0.91802 0.0
H1287 H 0.84365 0.40822 0.85417 0.0
H1288 H 0.88173 0.38925 0.83189 0.0
H1289 H 0.8964 0.21866 0.7569 0.0
H1290 H 0.89955 0.2444 0.80019 0.0
H1291 H 0.90116 0.33873 0.76761 0.0
H1292 H 0.89787 0.31288 0.72442 0.0
H1293 H 0.8683 0.3204 0.81621 0.0
H1294 H 0.97595 0.34489 0.77553 0.0
H1295 H 0.01502 0.32819 0.75237 0.0
H1296 H 0.01465 0.26415 0.81558 0.0
H1297 H 0.97484 0.27978 0.83887 0.0
C1298 C 0.96868 0.41627 0.91862 0.0
C1299 C 0.9778 0.39704 0.93607 0.0
C1300 C 0.95516 0.40116 0.89395 0.0
C1301 C 0.95005 0.36641 0.88667 0.0
C1302 C 0.95859 0.34708 0.9043 0.0
C1303 C 0.97244 0.36226 0.92865 0.0
C1304 C 0.93742 0.35021 0.86044 0.0
C1305 C 0.9586 0.33969 0.84686 0.0
C1306 C 0.90479 0.34397 0.84911 0.0
C1307 C 0.88145 0.35486 0.86238 0.0
C1308 C 0.86845 0.34159 0.8867 0.0
C1309 C 0.84704 0.35265 0.89924 0.0
C1310 C 0.83817 0.3767 0.88754 0.0
C1311 C 0.85059 0.38964 0.86323 0.0
C1312 C 0.87207 0.37873 0.85064 0.0
C1313 C 0.89577 0.24401 0.75913 0.0
C1314 C 0.89685 0.26395 0.73769 0.0
C1315 C 0.89766 0.25873 0.78374 0.0
C1316 C 0.90109 0.29368 0.78696 0.0
C1317 C 0.89844 0.31173 0.76547 0.0
C1318 C 0.89664 0.29704 0.7409 0.0
C1319 C 0.91425 0.31418 0.81184 0.0
C1320 C 0.89366 0.32609 0.82478 0.0
C1321 C 0.94768 0.32217 0.82263 0.0
C1322 C 0.97205 0.31314 0.80881 0.0
C1323 C 0.98392 0.32696 0.78439 0.0
C1324 C 0.00622 0.31771 0.77125 0.0
C1325 C 0.01723 0.29503 0.78246 0.0
C1326 C 0.00602 0.28164 0.80688 0.0
C1327 C 0.98357 0.29066 0.82006 0.0
H1328 H 0.03452 0.28792 0.77227 0.0
H1329 H 0.82162 0.38526 0.89728 0.0
H1330 H 0.69195 0.61353 0.71834 0.0
H1331 H 0.66039 0.59582 0.75856 0.0
H1332 H 0.75044 0.68811 0.79819 0.0
H1333 H 0.78239 0.70572 0.75797 0.0
H1334 H 0.7249 0.62349 0.82429 0.0
H1335 H 0.67904 0.69349 0.78476 0.0
H1336 H 0.6513 0.71077 0.75019 0.0
H1337 H 0.55634 0.60408 0.75137 0.0
H1338 H 0.58375 0.58595 0.78574 0.0
H1339 H 0.65587 0.64427 0.93754 0.0
H1340 H 0.67776 0.65391 0.89433 0.0
H1341 H 0.58405 0.55272 0.86778 0.0
H1342 H 0.56132 0.54279 0.91159 0.0
H1343 H 0.60759 0.61557 0.83407 0.0
H1344 H 0.65693 0.54555 0.87293 0.0
H1345 H 0.68508 0.532 0.90941 0.0
H1346 H 0.77279 0.64373 0.91147 0.0
H1347 H 0.74569 0.65748 0.87447 0.0
C1348 C 0.70522 0.62973 0.73569 0.0
C1349 C 0.73983 0.66068 0.73511 0.0
C1350 C 0.687 0.61983 0.75858 0.0
C1351 C 0.70305 0.64072 0.78131 0.0
C1352 C 0.73764 0.67161 0.78083 0.0
C1353 C 0.75577 0.68171 0.75787 0.0
C1354 C 0.68383 0.63018 0.80564 0.0
C1355 C 0.69933 0.62192 0.82638 0.0
C1356 C 0.65014 0.62746 0.80828 0.0
C1357 C 0.63361 0.6382 0.78759 0.0
C1358 C 0.65238 0.67357 0.77747 0.0
C1359 C 0.63669 0.68356 0.75795 0.0
C1360 C 0.60213 0.6585 0.74853 0.0
C1361 C 0.58315 0.62343 0.75866 0.0
C1362 C 0.59874 0.61329 0.77816 0.0
C1363 C 0.63965 0.62398 0.9226 0.0
C1364 C 0.60701 0.59245 0.92808 0.0
C1365 C 0.65229 0.6296 0.89787 0.0
C1366 C 0.63283 0.60373 0.87801 0.0
C1367 C 0.59949 0.57288 0.88298 0.0
C1368 C 0.58661 0.56723 0.90794 0.0
C1369 C 0.64871 0.60894 0.8525 0.0
C1370 C 0.63276 0.6164 0.83164 0.0
C1371 C 0.68207 0.61116 0.84968 0.0
C1372 C 0.69937 0.60248 0.87099 0.0
C1373 C 0.68237 0.56709 0.88109 0.0
C1374 C 0.69817 0.55936 0.90181 0.0
C1375 C 0.73074 0.58696 0.91277 0.0
C1376 C 0.74775 0.62225 0.90285 0.0
C1377 C 0.73235 0.62995 0.88186 0.0
H1378 H 0.74278 0.58103 0.92895 0.0
H1379 H 0.59001 0.66629 0.73343 0.0
H1380 H 0.7255 0.82206 0.41762 0.0
H1381 H 0.74346 0.81446 0.4612 0.0
H1382 H 0.6838 0.69629 0.44869 0.0
H1383 H 0.66684 0.70382 0.40521 0.0
H1384 H 0.6744 0.72272 0.49762 0.0
H1385 H 0.76586 0.73575 0.43992 0.0
H1386 H 0.8131 0.7672 0.40873 0.0
H1387 H 0.87272 0.85717 0.46317 0.0
H1388 H 0.82542 0.82664 0.49451 0.0
H1389 H 0.73417 0.63827 0.58251 0.0
H1390 H 0.72353 0.6607 0.54242 0.0
H1391 H 0.79452 0.77297 0.56927 0.0
H1392 H 0.80537 0.75085 0.60964 0.0
H1393 H 0.80093 0.75892 0.51598 0.0
H1394 H 0.71189 0.74373 0.57489 0.0
H1395 H 0.66578 0.71098 0.60661 0.0
H1396 H 0.60232 0.62524 0.55019 0.0
H1397 H 0.64835 0.65721 0.51822 0.0
C1398 C 0.71571 0.79456 0.42451 0.0
C1399 C 0.69466 0.76346 0.40834 0.0
C1400 C 0.72617 0.79026 0.4492 0.0
C1401 C 0.71505 0.75481 0.45799 0.0
C1402 C 0.6926 0.72382 0.44222 0.0
C1403 C 0.68289 0.72813 0.41748 0.0
C1404 C 0.72756 0.74939 0.48321 0.0
C1405 C 0.70206 0.73064 0.50165 0.0
C1406 C 0.76381 0.76042 0.48855 0.0
C1407 C 0.79179 0.77918 0.46943 0.0
C1408 C 0.78874 0.76252 0.44511 0.0
C1409 C 0.8156 0.78011 0.42742 0.0
C1410 C 0.84585 0.81419 0.43395 0.0
C1411 C 0.84923 0.83081 0.45813 0.0
C1412 C 0.82238 0.8134 0.47584 0.0
C1413 C 0.74798 0.66773 0.57982 0.0
C1414 C 0.77032 0.69276 0.59942 0.0
C1415 C 0.74178 0.68049 0.5569 0.0
C1416 C 0.75785 0.71847 0.55309 0.0
C1417 C 0.78178 0.74356 0.57193 0.0
C1418 C 0.78784 0.73083 0.59499 0.0
C1419 C 0.74759 0.73161 0.53013 0.0
C1420 C 0.77344 0.75169 0.51214 0.0
C1421 C 0.71165 0.7219 0.52514 0.0
C1422 C 0.68371 0.70273 0.54422 0.0
C1423 C 0.68823 0.71775 0.5693 0.0
C1424 C 0.66209 0.69935 0.58732 0.0
C1425 C 0.63117 0.66602 0.58044 0.0
C1426 C 0.62629 0.65106 0.55549 0.0
C1427 C 0.65239 0.66932 0.53741 0.0
H1428 H 0.61096 0.65181 0.59441 0.0
H1429 H 0.86679 0.82764 0.42036 0.0
H1430 H 0.28953 0.92695 0.41196 0.0
H1431 H 0.29944 0.95266 0.45605 0.0
H1432 H 0.22086 0.98504 0.44196 0.0
H1433 H 0.21207 0.9609 0.39796 0.0
H1434 H 0.2758 0.03982 0.46257 0.0
H1435 H 0.20659 0.91363 0.48313 0.0
H1436 H 0.18769 0.84765 0.48418 0.0
H1437 H 0.28829 0.87507 0.5204 0.0
H1438 H 0.30799 0.94125 0.51928 0.0
H1439 H 0.28207 0.09069 0.59829 0.0
H1440 H 0.26377 0.06548 0.55407 0.0
H1441 H 0.34762 0.03883 0.55349 0.0
H1442 H 0.36545 0.06314 0.59736 0.0
H1443 H 0.28295 0.97952 0.54127 0.0
H1444 H 0.35055 0.10855 0.51854 0.0
H1445 H 0.3645 0.17313 0.51789 0.0
H1446 H 0.25928 0.13753 0.48655 0.0
H1447 H 0.24451 0.07271 0.48738 0.0
C1448 C 0.27416 0.93917 0.41848 0.0
C1449 C 0.25044 0.9424 0.40151 0.0
C1450 C 0.27965 0.9537 0.44367 0.0
C1451 C 0.26084 0.97081 0.45238 0.0
C1452 C 0.23596 0.97237 0.43568 0.0
C1453 C 0.23097 0.95854 0.41052 0.0
C1454 C 0.26886 0.98954 0.47814 0.0
C1455 C 0.27677 0.02636 0.47984 0.0
C1456 C 0.27032 0.97219 0.5007 0.0
C1457 C 0.25891 0.93245 0.50086 0.0
C1458 C 0.22484 0.90562 0.49106 0.0
C1459 C 0.21395 0.86817 0.49174 0.0
C1460 C 0.23681 0.85718 0.50228 0.0
C1461 C 0.27063 0.88362 0.5122 0.0
C1462 C 0.28166 0.9211 0.51157 0.0
C1463 C 0.29689 0.08001 0.58852 0.0
C1464 C 0.32472 0.07822 0.60142 0.0
C1465 C 0.28647 0.06568 0.56328 0.0
C1466 C 0.30414 0.04993 0.55063 0.0
C1467 C 0.33335 0.05042 0.56301 0.0
C1468 C 0.34349 0.06433 0.5881 0.0
C1469 C 0.29085 0.02995 0.52547 0.0
C1470 C 0.28171 0.99278 0.52396 0.0
C1471 C 0.28756 0.04677 0.50322 0.0
C1472 C 0.29626 0.08573 0.50339 0.0
C1473 C 0.33023 0.11445 0.51184 0.0
C1474 C 0.33832 0.15112 0.51136 0.0
C1475 C 0.31275 0.15942 0.50229 0.0
C1476 C 0.27903 0.13108 0.49366 0.0
C1477 C 0.27079 0.09438 0.49414 0.0
H1478 H 0.31911 0.18783 0.50187 0.0
H1479 H 0.2283 0.82817 0.50283 0.0
H1480 H 0.90378 0.23706 0.57939 0.0
H1481 H 0.93138 0.24598 0.53755 0.0
H1482 H 0.03604 0.30248 0.57513 0.0
H1483 H 0.009 0.29567 0.61635 0.0
H1484 H 0.03702 0.33899 0.53682 0.0
H1485 H 0.99369 0.20989 0.54917 0.0
H1486 H 0.9483 0.14537 0.55706 0.0
H1487 H 0.88897 0.14126 0.48892 0.0
H1488 H 0.93375 0.20592 0.4808 0.0
H1489 H 0.13042 0.34468 0.42386 0.0
H1490 H 0.10714 0.32772 0.46719 0.0
H1491 H -0.00051 0.28155 0.43602 0.0
H1492 H 0.02209 0.29788 0.3933 0.0
H1493 H 0.00329 0.23805 0.47178 0.0
H1494 H 0.04337 0.36749 0.46159 0.0
H1495 H 0.08807 0.43207 0.4532 0.0
H1496 H 0.15302 0.43499 0.51748 0.0
H1497 H 0.10894 0.37019 0.52598 0.0
C1498 C 0.93264 0.25134 0.57862 0.0
C1499 C 0.95416 0.26555 0.60115 0.0
C1500 C 0.9484 0.25619 0.55476 0.0
C1501 C 0.98584 0.27447 0.55322 0.0
C1502 C 0.00716 0.28836 0.57578 0.0
C1503 C 0.99155 0.28429 0.5994 0.0
C1504 C 0.0033 0.28065 0.52821 0.0
C1505 C 0.03002 0.31671 0.52283 0.0
C1506 C 0.99378 0.2518 0.50969 0.0
C1507 C 0.96693 0.21285 0.51451 0.0
C1508 C 0.97084 0.19531 0.53596 0.0
C1509 C 0.94523 0.1587 0.54046 0.0
C1510 C 0.91573 0.13926 0.52353 0.0
C1511 C 0.91181 0.15636 0.50203 0.0
C1512 C 0.93731 0.19297 0.49746 0.0
C1513 C 0.10183 0.33065 0.42634 0.0
C1514 C 0.07817 0.32307 0.40527 0.0
C1515 C 0.08858 0.32102 0.451 0.0
C1516 C 0.0516 0.3036 0.45473 0.0
C1517 C 0.02807 0.29489 0.43356 0.0
C1518 C 0.04117 0.30462 0.40915 0.0
C1519 C 0.03689 0.29619 0.48064 0.0
C1520 C 0.01059 0.26004 0.48608 0.0
C1521 C 0.04674 0.3249 0.49924 0.0
C1522 C 0.0731 0.36389 0.49422 0.0
C1523 C 0.06733 0.38182 0.47379 0.0
C1524 C 0.09253 0.41847 0.46904 0.0
C1525 C 0.12342 0.43759 0.48475 0.0
C1526 C 0.12913 0.42012 0.50529 0.0
C1527 C 0.10406 0.38344 0.51008 0.0
H1528 H 0.14289 0.46596 0.48105 0.0
H1529 H 0.89594 0.11092 0.52705 0.0
loop_
_geom_bond_atom_site_label_1
_geom_bond_atom_site_label_2
_geom_bond_distance
_geom_bond_site_symmetry_2
_ccdc_geom_bond_type
Zn0 O6 1.961 1_554 S
Zn0 O7 1.991 . S
Zn0 O11 2.032 . S
Zn0 O16 1.939 1_554 S
Zn1 O8 1.969 . S
Zn1 O14 1.969 . S
Zn1 O15 1.965 1_554 S
Zn1 O17 2.028 . S
C2 O3 1.229 . S
C2 O11 1.058 1_556 S
O3 C2 1.229 . S
C4 O5 1.229 . S
C4 O17 1.073 . S
O5 C4 1.229 . S
O6 Zn0 1.961 1_556 S
O6 C9 1.267 1_556 S
O7 Zn0 1.991 . S
O7 C18 1.260 . S
O8 Zn1 1.969 . S
O8 C18 1.258 1_655 S
C9 O6 1.267 1_554 S
C9 O10 1.228 . S
O10 C9 1.228 . S
O11 Zn0 2.032 . S
O11 C2 1.058 1_554 S
C12 O13 1.228 1_554 S
C12 O14 1.267 . S
O13 C12 1.228 1_556 S
O14 Zn1 1.969 . S
O14 C12 1.267 . S
O15 Zn1 1.965 1_556 S
O15 C19 1.260 1_655 S
O16 Zn0 1.939 1_556 S
O16 C19 1.258 . S
O17 Zn1 2.028 . S
O17 C4 1.073 . S
C18 O7 1.260 . S
C18 O8 1.258 1_455 S
C19 O15 1.260 1_455 S
C19 O16 1.258 . S
Zn20 O26 1.969 . S
Zn20 O27 1.965 1_554 S
Zn20 O31 2.024 1_554 S
Zn20 O36 1.969 . S
Zn21 O28 1.969 . S
Zn21 O34 1.969 . S
Zn21 O35 1.965 1_556 S
Zn21 O37 2.024 1_556 S
C22 O23 1.229 . S
C22 O31 1.058 1_554 S
O23 C22 1.229 . S
C24 O25 1.229 . S
C24 O37 1.058 1_556 S
O25 C24 1.229 . S
O26 Zn20 1.969 . S
O26 C29 1.286 . S
O27 Zn20 1.965 1_556 S
O27 C38 1.260 . S
O28 Zn21 1.969 . S
O28 C38 1.258 . S
C29 O26 1.286 . S
C29 O30 1.207 1_554 S
O30 C29 1.207 1_556 S
O31 Zn20 2.024 1_556 S
O31 C22 1.058 1_556 S
C32 O33 1.228 . S
C32 O34 1.267 1_554 S
O33 C32 1.228 . S
O34 Zn21 1.969 . S
O34 C32 1.267 1_556 S
O35 Zn21 1.965 1_554 S
O35 C39 1.260 . S
O36 Zn20 1.969 . S
O36 C39 1.258 . S
O37 Zn21 2.024 1_554 S
O37 C24 1.058 1_554 S
C38 O27 1.260 . S
C38 O28 1.258 . S
C39 O35 1.260 . S
C39 O36 1.258 . S
Zn40 O46 1.978 . S
Zn40 O47 1.937 1_556 S
Zn40 O51 2.015 1_556 S
Zn40 O56 2.004 . S
Zn41 O48 1.969 . S
Zn41 O54 1.969 . S
Zn41 O55 1.965 1_554 S
Zn41 O57 2.024 . S
C42 O43 1.229 . S
C42 O51 1.058 1_556 S
O43 C42 1.229 . S
C44 O45 1.229 . S
C44 O57 1.058 . S
O45 C44 1.229 . S
O46 Zn40 1.978 . S
O46 C49 1.267 1_556 S
O47 Zn40 1.937 1_554 S
O47 C58 1.253 1_565 S
O48 Zn41 1.969 . S
O48 C58 1.275 . S
C49 O46 1.267 1_554 S
C49 O50 1.228 . S
O50 C49 1.228 . S
O51 Zn40 2.015 1_554 S
O51 C42 1.058 1_554 S
C52 O53 1.228 1_554 S
C52 O54 1.267 . S
O53 C52 1.228 1_556 S
O54 Zn41 1.969 . S
O54 C52 1.267 . S
O55 Zn41 1.965 1_556 S
O55 C59 1.260 . S
O56 Zn40 2.004 . S
O56 C59 1.258 1_565 S
O57 Zn41 2.024 . S
O57 C44 1.058 . S
C58 O47 1.253 1_545 S
C58 O48 1.275 . S
C59 O55 1.260 . S
C59 O56 1.258 1_545 S
Zn60 O66 1.969 . S
Zn60 O67 1.965 . S
Zn60 O71 2.024 . S
Zn60 O76 1.969 . S
Zn61 O68 1.969 . S
Zn61 O74 1.969 . S
Zn61 O75 1.965 . S
Zn61 O77 2.024 . S
C62 O63 1.229 . S
C62 O71 1.058 . S
O63 C62 1.229 . S
C64 O65 1.229 . S
C64 O77 1.058 . S
O65 C64 1.229 . S
O66 Zn60 1.969 . S
O66 C69 1.267 . S
O67 Zn60 1.965 . S
O67 C78 1.260 . S
O68 Zn61 1.969 . S
O68 C78 1.258 . S
C69 O66 1.267 . S
C69 O70 1.228 . S
O70 C69 1.228 . S
O71 Zn60 2.024 . S
O71 C62 1.058 . S
C72 O73 1.228 . S
C72 O74 1.267 . S
O73 C72 1.228 . S
O74 Zn61 1.969 . S
O74 C72 1.267 . S
O75 Zn61 1.965 . S
O75 C79 1.260 . S
O76 Zn60 1.969 . S
O76 C79 1.258 . S
O77 Zn61 2.024 . S
O77 C64 1.058 . S
C78 O67 1.260 . S
C78 O68 1.258 . S
C79 O75 1.260 . S
C79 O76 1.258 . S
Zn80 O86 1.969 . S
Zn80 O87 1.965 . S
Zn80 O91 2.024 . S
Zn80 O96 1.969 . S
Zn81 O88 1.969 . S
Zn81 O94 1.969 . S
Zn81 O95 1.965 . S
Zn81 O97 2.024 . S
C82 O83 1.229 . S
C82 O91 1.058 . S
O83 C82 1.229 . S
C84 O85 1.229 . S
C84 O97 1.058 . S
O85 C84 1.229 . S
O86 Zn80 1.969 . S
O86 C89 1.267 . S
O87 Zn80 1.965 . S
O87 C98 1.260 . S
O88 Zn81 1.969 . S
O88 C98 1.258 . S
C89 O86 1.267 . S
C89 O90 1.228 . S
O90 C89 1.228 . S
O91 Zn80 2.024 . S
O91 C82 1.058 . S
C92 O93 1.228 . S
C92 O94 1.267 . S
O93 C92 1.228 . S
O94 Zn81 1.969 . S
O94 C92 1.267 . S
O95 Zn81 1.965 . S
O95 C99 1.260 . S
O96 Zn80 1.969 . S
O96 C99 1.258 . S
O97 Zn81 2.024 . S
O97 C84 1.058 . S
C98 O87 1.260 . S
C98 O88 1.258 . S
C99 O95 1.260 . S
C99 O96 1.258 . S
Zn100 O106 1.969 . S
Zn100 O107 1.965 . S
Zn100 O111 2.024 . S
Zn100 O116 1.969 . S
Zn101 O108 1.969 . S
Zn101 O114 1.969 . S
Zn101 O115 1.965 . S
Zn101 O117 2.024 . S
C102 O103 1.229 . S
C102 O111 1.058 . S
O103 C102 1.229 . S
C104 O105 1.229 . S
C104 O117 1.058 . S
O105 C104 1.229 . S
O106 Zn100 1.969 . S
O106 C109 1.267 . S
O107 Zn100 1.965 . S
O107 C118 1.260 . S
O108 Zn101 1.969 . S
O108 C118 1.258 . S
C109 O106 1.267 . S
C109 O110 1.228 . S
O110 C109 1.228 . S
O111 Zn100 2.024 . S
O111 C102 1.058 . S
C112 O113 1.228 . S
C112 O114 1.267 . S
O113 C112 1.228 . S
O114 Zn101 1.969 . S
O114 C112 1.267 . S
O115 Zn101 1.965 . S
O115 C119 1.260 . S
O116 Zn100 1.969 . S
O116 C119 1.258 . S
O117 Zn101 2.024 . S
O117 C104 1.058 . S
C118 O107 1.260 . S
C118 O108 1.258 . S
C119 O115 1.260 . S
C119 O116 1.258 . S
Zn120 O126 1.969 . S
Zn120 O127 1.965 . S
Zn120 O131 2.024 . S
Zn120 O136 1.969 . S
Zn121 O128 1.969 . S
Zn121 O134 1.969 . S
Zn121 O135 1.965 . S
Zn121 O137 2.024 . S
C122 O123 1.229 . S
C122 O131 1.058 . S
O123 C122 1.229 . S
C124 O125 1.229 . S
C124 O137 1.058 . S
O125 C124 1.229 . S
O126 Zn120 1.969 . S
O126 C129 1.267 . S
O127 Zn120 1.965 . S
O127 C138 1.260 . S
O128 Zn121 1.969 . S
O128 C138 1.258 . S
C129 O126 1.267 . S
C129 O130 1.228 . S
O130 C129 1.228 . S
O131 Zn120 2.024 . S
O131 C122 1.058 . S
C132 O133 1.228 . S
C132 O134 1.267 . S
O133 C132 1.228 . S
O134 Zn121 1.969 . S
O134 C132 1.267 . S
O135 Zn121 1.965 . S
O135 C139 1.260 . S
O136 Zn120 1.969 . S
O136 C139 1.258 . S
O137 Zn121 2.024 . S
O137 C124 1.058 . S
C138 O127 1.260 . S
C138 O128 1.258 . S
C139 O135 1.260 . S
C139 O136 1.258 . S
Zn140 O146 1.969 . S
Zn140 O147 1.965 . S
Zn140 O151 2.024 . S
Zn140 O156 1.969 . S
Zn141 O148 1.969 . S
Zn141 O154 1.969 . S
Zn141 O155 1.965 . S
Zn141 O157 2.024 . S
C142 O143 1.229 . S
C142 O151 1.058 . S
O143 C142 1.229 . S
C144 O145 1.229 . S
C144 O157 1.058 . S
O145 C144 1.229 . S
O146 Zn140 1.969 . S
O146 C149 1.267 . S
O147 Zn140 1.965 . S
O147 C158 1.260 . S
O148 Zn141 1.969 . S
O148 C158 1.258 . S
C149 O146 1.267 . S
C149 O150 1.228 . S
O150 C149 1.228 . S
O151 Zn140 2.024 . S
O151 C142 1.058 . S
C152 O153 1.228 . S
C152 O154 1.267 . S
O153 C152 1.228 . S
O154 Zn141 1.969 . S
O154 C152 1.267 . S
O155 Zn141 1.965 . S
O155 C159 1.260 . S
O156 Zn140 1.969 . S
O156 C159 1.258 . S
O157 Zn141 2.024 . S
O157 C144 1.058 . S
C158 O147 1.260 . S
C158 O148 1.258 . S
C159 O155 1.260 . S
C159 O156 1.258 . S
Zn160 O166 1.969 . S
Zn160 O167 1.965 . S
Zn160 O171 2.024 . S
Zn160 O176 1.969 . S
Zn161 O168 1.969 . S
Zn161 O174 1.969 . S
Zn161 O175 1.965 . S
Zn161 O177 2.024 . S
C162 O163 1.229 . S
C162 O171 1.058 . S
O163 C162 1.229 . S
C164 O165 1.229 . S
C164 O177 1.058 . S
O165 C164 1.229 . S
O166 Zn160 1.969 . S
O166 C169 1.267 . S
O167 Zn160 1.965 . S
O167 C178 1.260 . S
O168 Zn161 1.969 . S
O168 C178 1.258 . S
C169 O166 1.267 . S
C169 O170 1.228 . S
O170 C169 1.228 . S
O171 Zn160 2.024 . S
O171 C162 1.058 . S
C172 O173 1.228 . S
C172 O174 1.267 . S
O173 C172 1.228 . S
O174 Zn161 1.969 . S
O174 C172 1.267 . S
O175 Zn161 1.965 . S
O175 C179 1.260 . S
O176 Zn160 1.969 . S
O176 C179 1.258 . S
O177 Zn161 2.024 . S
O177 C164 1.058 . S
C178 O167 1.260 . S
C178 O168 1.258 . S
C179 O175 1.260 . S
C179 O176 1.258 . S
H180 C198 0.951 . S
H181 C200 0.951 . S
H182 C202 0.950 . S
H183 C203 0.950 . S
H184 C205 0.950 . S
H185 C208 0.950 . S
H186 C209 0.950 . S
H187 C211 0.950 . S
H188 C212 0.950 . S
H189 C213 0.951 . S
H190 C215 0.951 . S
H191 C217 0.950 . S
H192 C218 0.950 . S
H193 C220 0.950 . S
H194 C223 0.950 . S
H195 C224 0.950 . S
H196 C226 0.950 . S
H197 C227 0.950 . S
C198 H180 0.951 . S
C198 C199 1.366 1_556 S
C198 C200 1.388 . S
C199 C198 1.366 1_554 S
C199 C203 1.385 . S
C200 H181 0.951 . S
C200 C198 1.388 . S
C200 C201 1.366 1_556 S
C201 C200 1.366 1_554 S
C201 C202 1.414 . S
C201 C204 1.499 . S
C202 H182 0.950 . S
C202 C201 1.414 . S
C202 C203 1.374 . S
C203 H183 0.950 . S
C203 C199 1.385 . S
C203 C202 1.374 . S
C204 C201 1.499 . S
C204 C205 1.373 . S
C204 C206 1.389 1_554 S
C205 H184 0.950 . S
C205 C204 1.373 . S
C205 C221 1.377 . S
C206 C204 1.389 1_556 S
C206 C207 1.524 . S
C206 C220 1.377 . S
C207 C206 1.524 . S
C207 C208 1.397 . S
C207 C212 1.363 . S
C208 H185 0.950 . S
C208 C207 1.397 . S
C208 C209 1.334 . S
C209 H186 0.950 . S
C209 C208 1.334 . S
C209 C210 1.287 . S
C210 C209 1.287 . S
C210 C211 1.524 . S
C210 H229 0.913 . S
C211 H187 0.950 . S
C211 C210 1.524 . S
C211 C212 1.415 . S
C212 H188 0.950 . S
C212 C207 1.363 . S
C212 C211 1.415 . S
C213 H189 0.951 . S
C213 C214 1.366 . S
C213 C215 1.388 . S
C214 C213 1.366 . S
C214 C218 1.385 1_554 S
C215 H190 0.951 . S
C215 C213 1.388 . S
C215 C216 1.366 . S
C216 C215 1.366 . S
C216 C217 1.414 1_554 S
C216 C219 1.499 . S
C217 H191 0.950 . S
C217 C216 1.414 1_556 S
C217 C218 1.374 . S
C218 H192 0.950 . S
C218 C214 1.385 1_556 S
C218 C217 1.374 . S
C219 C216 1.499 . S
C219 C220 1.373 1_554 S
C219 C221 1.389 . S
C220 H193 0.950 . S
C220 C206 1.377 . S
C220 C219 1.373 1_556 S
C221 C205 1.377 . S
C221 C219 1.389 . S
C221 C222 1.524 . S
C222 C221 1.524 . S
C222 C223 1.397 . S
C222 C227 1.363 . S
C223 H194 0.950 . S
C223 C222 1.397 . S
C223 C224 1.334 . S
C224 H195 0.950 . S
C224 C223 1.334 . S
C224 C225 1.287 . S
C225 C224 1.287 . S
C225 C226 1.524 . S
C225 H228 0.999 . S
C226 H196 0.950 . S
C226 C225 1.524 . S
C226 C227 1.415 . S
C227 H197 0.950 . S
C227 C222 1.363 . S
C227 C226 1.415 . S
H228 C225 0.999 . S
H229 C210 0.913 . S
H230 C248 0.951 . S
H231 C250 0.951 . S
H232 C252 0.950 . S
H233 C253 0.950 . S
H234 C255 0.950 . S
H235 C258 0.950 . S
H236 C259 0.950 . S
H237 C261 0.950 . S
H238 C262 0.950 . S
H239 C263 0.951 . S
H240 C265 0.951 . S
H241 C267 0.950 . S
H242 C268 0.950 . S
H243 C270 0.950 . S
H244 C273 0.950 . S
H245 C274 0.950 . S
H246 C276 0.950 1_554 S
H247 C277 0.948 . S
C248 H230 0.951 . S
C248 C249 1.366 . S
C248 C250 1.388 . S
C249 C248 1.366 . S
C249 C253 1.385 1_556 S
C250 H231 0.951 . S
C250 C248 1.388 . S
C250 C251 1.366 . S
C251 C250 1.366 . S
C251 C252 1.414 1_556 S
C251 C254 1.499 . S
C252 H232 0.950 . S
C252 C251 1.414 1_554 S
C252 C253 1.374 . S
C253 H233 0.950 . S
C253 C249 1.385 1_554 S
C253 C252 1.374 . S
C254 C251 1.499 . S
C254 C255 1.373 . S
C254 C256 1.389 . S
C255 H234 0.950 . S
C255 C254 1.373 . S
C255 C271 1.377 . S
C256 C254 1.389 . S
C256 C257 1.524 1_556 S
C256 C270 1.377 . S
C257 C256 1.524 1_554 S
C257 C258 1.397 . S
C257 C262 1.363 1_554 S
C258 H235 0.950 . S
C258 C257 1.397 . S
C258 C259 1.334 . S
C259 H236 0.950 . S
C259 C258 1.334 . S
C259 C260 1.287 . S
C260 C259 1.287 . S
C260 C261 1.524 1_554 S
C260 H279 0.913 . S
C261 H237 0.950 . S
C261 C260 1.524 1_556 S
C261 C262 1.415 . S
C262 H238 0.950 . S
C262 C257 1.363 1_556 S
C262 C261 1.415 . S
C263 H239 0.951 . S
C263 C264 1.366 1_554 S
C263 C265 1.388 . S
C264 C263 1.366 1_556 S
C264 C268 1.385 . S
C265 H240 0.951 . S
C265 C263 1.388 . S
C265 C266 1.366 1_554 S
C266 C265 1.366 1_556 S
C266 C267 1.414 . S
C266 C269 1.499 . S
C267 H241 0.950 . S
C267 C266 1.414 . S
C267 C268 1.374 . S
C268 H242 0.950 . S
C268 C264 1.385 . S
C268 C267 1.374 . S
C269 C266 1.499 . S
C269 C270 1.373 . S
C269 C271 1.389 . S
C270 H243 0.950 . S
C270 C256 1.377 . S
C270 C269 1.373 . S
C271 C255 1.377 . S
C271 C269 1.389 . S
C271 C272 1.524 . S
C272 C271 1.524 . S
C272 C273 1.397 . S
C272 C277 1.364 1_556 S
C273 H244 0.950 . S
C273 C272 1.397 . S
C273 C274 1.334 . S
C274 H245 0.950 . S
C274 C273 1.334 . S
C274 C275 1.287 . S
C275 C274 1.287 . S
C275 C276 1.524 . S
C275 H278 0.999 . S
C276 H246 0.950 1_556 S
C276 C275 1.524 . S
C276 C277 1.416 1_556 S
C277 H247 0.948 . S
C277 C272 1.364 1_554 S
C277 C276 1.416 1_554 S
H278 C275 0.999 . S
H279 C260 0.913 . S
H280 C298 0.951 . S
H281 C300 0.951 . S
H282 C302 0.950 . S
H283 C303 0.950 . S
H284 C305 0.950 . S
H285 C308 0.950 . S
H286 C309 0.950 . S
H287 C311 0.950 . S
H288 C312 0.950 . S
H289 C313 0.951 . S
H290 C315 0.951 . S
H291 C317 0.950 . S
H292 C318 0.950 . S
H293 C320 0.950 . S
H294 C323 0.950 . S
H295 C324 0.950 . S
H296 C326 0.950 . S
H297 C327 0.950 . S
C298 H280 0.951 . S
C298 C299 1.366 . S
C298 C300 1.388 . S
C299 C298 1.366 . S
C299 C303 1.385 1_554 S
C300 H281 0.951 . S
C300 C298 1.388 . S
C300 C301 1.366 . S
C301 C300 1.366 . S
C301 C302 1.414 1_554 S
C301 C304 1.499 . S
C302 H282 0.950 . S
C302 C301 1.414 1_556 S
C302 C303 1.374 . S
C303 H283 0.950 . S
C303 C299 1.385 1_556 S
C303 C302 1.374 . S
C304 C301 1.499 . S
C304 C305 1.372 1_554 S
C304 C306 1.391 . S
C305 H284 0.950 . S
C305 C304 1.372 1_556 S
C305 C321 1.377 . S
C306 C304 1.391 . S
C306 C307 1.524 . S
C306 C320 1.377 . S
C307 C306 1.524 . S
C307 C308 1.397 1_554 S
C307 C312 1.363 . S
C308 H285 0.950 . S
C308 C307 1.397 1_556 S
C308 C309 1.334 . S
C309 H286 0.950 . S
C309 C308 1.334 . S
C309 C310 1.287 1_556 S
C310 C309 1.287 1_554 S
C310 C311 1.524 . S
C310 H329 0.913 . S
C311 H287 0.950 . S
C311 C310 1.524 . S
C311 C312 1.415 . S
C312 H288 0.950 . S
C312 C307 1.363 . S
C312 C311 1.415 . S
C313 H289 0.951 . S
C313 C314 1.366 . S
C313 C315 1.388 . S
C314 C313 1.366 . S
C314 C318 1.385 1_556 S
C315 H290 0.951 . S
C315 C313 1.388 . S
C315 C316 1.368 1_556 S
C316 C315 1.368 1_554 S
C316 C317 1.411 . S
C316 C319 1.499 . S
C317 H291 0.950 . S
C317 C316 1.411 . S
C317 C318 1.374 . S
C318 H292 0.950 . S
C318 C314 1.385 1_554 S
C318 C317 1.374 . S
C319 C316 1.499 . S
C319 C320 1.373 . S
C319 C321 1.389 1_554 S
C320 H293 0.950 . S
C320 C306 1.377 . S
C320 C319 1.373 . S
C321 C305 1.377 . S
C321 C319 1.389 1_556 S
C321 C322 1.524 . S
C322 C321 1.524 . S
C322 C323 1.397 1_556 S
C322 C327 1.363 . S
C323 H294 0.950 . S
C323 C322 1.397 1_554 S
C323 C324 1.334 . S
C324 H295 0.950 . S
C324 C323 1.334 . S
C324 C325 1.287 1_554 S
C325 C324 1.287 1_556 S
C325 C326 1.524 . S
C325 H328 0.999 . S
C326 H296 0.950 . S
C326 C325 1.524 . S
C326 C327 1.415 . S
C327 H297 0.950 . S
C327 C322 1.363 . S
C327 C326 1.415 . S
H328 C325 0.999 . S
H329 C310 0.913 . S
H330 C348 0.951 . S
H331 C350 0.951 . S
H332 C352 0.950 . S
H333 C353 0.950 . S
H334 C355 0.950 . S
H335 C358 0.950 . S
H336 C359 0.950 . S
H337 C361 0.950 . S
H338 C362 0.950 . S
H339 C363 0.951 . S
H340 C365 0.951 . S
H341 C367 0.950 . S
H342 C368 0.950 . S
H343 C370 0.950 . S
H344 C373 0.950 . S
H345 C374 0.950 . S
H346 C376 0.950 . S
H347 C377 0.950 . S
C348 H330 0.951 . S
C348 C349 1.366 1_556 S
C348 C350 1.388 . S
C349 C348 1.366 1_554 S
C349 C353 1.385 . S
C350 H331 0.951 . S
C350 C348 1.388 . S
C350 C351 1.366 1_556 S
C351 C350 1.366 1_554 S
C351 C352 1.414 . S
C351 C354 1.499 . S
C352 H332 0.950 . S
C352 C351 1.414 . S
C352 C353 1.374 . S
C353 H333 0.950 . S
C353 C349 1.385 . S
C353 C352 1.374 . S
C354 C351 1.499 . S
C354 C355 1.373 . S
C354 C356 1.389 1_554 S
C355 H334 0.950 . S
C355 C354 1.373 . S
C355 C371 1.377 . S
C356 C354 1.389 1_556 S
C356 C357 1.524 . S
C356 C370 1.377 . S
C357 C356 1.524 . S
C357 C358 1.397 . S
C357 C362 1.363 . S
C358 H335 0.950 . S
C358 C357 1.397 . S
C358 C359 1.334 . S
C359 H336 0.950 . S
C359 C358 1.334 . S
C359 C360 1.287 . S
C360 C359 1.287 . S
C360 C361 1.524 . S
C360 H379 0.913 . S
C361 H337 0.950 . S
C361 C360 1.524 . S
C361 C362 1.415 . S
C362 H338 0.950 . S
C362 C357 1.363 . S
C362 C361 1.415 . S
C363 H339 0.951 . S
C363 C364 1.366 . S
C363 C365 1.388 . S
C364 C363 1.366 . S
C364 C368 1.385 1_554 S
C365 H340 0.951 . S
C365 C363 1.388 . S
C365 C366 1.366 . S
C366 C365 1.366 . S
C366 C367 1.414 1_554 S
C366 C369 1.499 . S
C367 H341 0.950 . S
C367 C366 1.414 1_556 S
C367 C368 1.374 . S
C368 H342 0.950 . S
C368 C364 1.385 1_556 S
C368 C367 1.374 . S
C369 C366 1.499 . S
C369 C370 1.373 1_554 S
C369 C371 1.389 . S
C370 H343 0.950 . S
C370 C356 1.377 . S
C370 C369 1.373 1_556 S
C371 C355 1.377 . S
C371 C369 1.389 . S
C371 C372 1.524 . S
C372 C371 1.524 . S
C372 C373 1.397 . S
C372 C377 1.363 . S
C373 H344 0.950 . S
C373 C372 1.397 . S
C373 C374 1.334 . S
C374 H345 0.950 . S
C374 C373 1.334 . S
C374 C375 1.287 . S
C375 C374 1.287 . S
C375 C376 1.524 . S
C375 H378 0.999 . S
C376 H346 0.950 . S
C376 C375 1.524 . S
C376 C377 1.415 . S
C377 H347 0.950 . S
C377 C372 1.363 . S
C377 C376 1.415 . S
H378 C375 0.999 . S
H379 C360 0.913 . S
H380 C398 0.951 . S
H381 C400 0.951 . S
H382 C402 0.950 . S
H383 C403 0.950 . S
H384 C405 0.950 . S
H385 C408 0.950 . S
H386 C409 0.950 . S
H387 C411 0.950 . S
H388 C412 0.950 . S
H389 C413 0.951 . S
H390 C415 0.951 . S
H391 C417 0.950 . S
H392 C418 0.950 . S
H393 C420 0.950 . S
H394 C423 0.950 . S
H395 C424 0.950 . S
H396 C426 0.950 . S
H397 C427 0.950 . S
C398 H380 0.951 . S
C398 C399 1.366 . S
C398 C400 1.388 . S
C399 C398 1.366 . S
C399 C403 1.385 . S
C400 H381 0.951 . S
C400 C398 1.388 . S
C400 C401 1.366 . S
C401 C400 1.366 . S
C401 C402 1.414 . S
C401 C404 1.499 . S
C402 H382 0.950 . S
C402 C401 1.414 . S
C402 C403 1.374 . S
C403 H383 0.950 . S
C403 C399 1.385 . S
C403 C402 1.374 . S
C404 C401 1.499 . S
C404 C405 1.373 . S
C404 C406 1.389 1_554 S
C405 H384 0.950 . S
C405 C404 1.373 . S
C405 C421 1.377 . S
C406 C404 1.389 1_556 S
C406 C407 1.524 . S
C406 C420 1.377 . S
C407 C406 1.524 . S
C407 C408 1.397 . S
C407 C412 1.363 . S
C408 H385 0.950 . S
C408 C407 1.397 . S
C408 C409 1.334 . S
C409 H386 0.950 . S
C409 C408 1.334 . S
C409 C410 1.287 . S
C410 C409 1.287 . S
C410 C411 1.524 . S
C410 H429 0.913 . S
C411 H387 0.950 . S
C411 C410 1.524 . S
C411 C412 1.415 . S
C412 H388 0.950 . S
C412 C407 1.363 . S
C412 C411 1.415 . S
C413 H389 0.951 . S
C413 C414 1.366 . S
C413 C415 1.388 . S
C414 C413 1.366 . S
C414 C418 1.385 . S
C415 H390 0.951 . S
C415 C413 1.388 . S
C415 C416 1.366 . S
C416 C415 1.366 . S
C416 C417 1.414 . S
C416 C419 1.499 . S
C417 H391 0.950 . S
C417 C416 1.414 . S
C417 C418 1.374 . S
C418 H392 0.950 . S
C418 C414 1.385 . S
C418 C417 1.374 . S
C419 C416 1.499 . S
C419 C420 1.373 1_554 S
C419 C421 1.389 . S
C420 H393 0.950 . S
C420 C406 1.377 . S
C420 C419 1.373 1_556 S
C421 C405 1.377 . S
C421 C419 1.389 . S
C421 C422 1.524 . S
C422 C421 1.524 . S
C422 C423 1.397 . S
C422 C427 1.363 . S
C423 H394 0.950 . S
C423 C422 1.397 . S
C423 C424 1.334 . S
C424 H395 0.950 . S
C424 C423 1.334 . S
C424 C425 1.287 . S
C425 C424 1.287 . S
C425 C426 1.524 . S
C425 H428 0.999 . S
C426 H396 0.950 . S
C426 C425 1.524 . S
C426 C427 1.415 . S
C427 H397 0.950 . S
C427 C422 1.363 . S
C427 C426 1.415 . S
H428 C425 0.999 . S
H429 C410 0.913 . S
H430 C448 0.951 . S
H431 C450 0.951 . S
H432 C452 0.950 . S
H433 C453 0.950 . S
H434 C455 0.950 . S
H435 C458 0.950 . S
H436 C459 0.950 . S
H437 C461 0.950 . S
H438 C462 0.950 . S
H439 C463 0.951 . S
H440 C465 0.951 . S
H441 C467 0.950 . S
H442 C468 0.950 . S
H443 C470 0.950 . S
H444 C473 0.950 . S
H445 C474 0.950 . S
H446 C476 0.950 . S
H447 C477 0.950 . S
C448 H430 0.951 . S
C448 C449 1.366 . S
C448 C450 1.388 . S
C449 C448 1.366 . S
C449 C453 1.385 1_554 S
C450 H431 0.951 . S
C450 C448 1.388 . S
C450 C451 1.366 . S
C451 C450 1.366 . S
C451 C452 1.414 1_554 S
C451 C454 1.499 . S
C452 H432 0.950 . S
C452 C451 1.414 1_556 S
C452 C453 1.374 . S
C453 H433 0.950 . S
C453 C449 1.385 1_556 S
C453 C452 1.374 . S
C454 C451 1.499 . S
C454 C455 1.373 1_554 S
C454 C456 1.389 . S
C455 H434 0.950 . S
C455 C454 1.373 1_556 S
C455 C471 1.377 . S
C456 C454 1.389 . S
C456 C457 1.524 . S
C456 C470 1.377 . S
C457 C456 1.524 . S
C457 C458 1.397 . S
C457 C462 1.363 . S
C458 H435 0.950 . S
C458 C457 1.397 . S
C458 C459 1.334 . S
C459 H436 0.950 . S
C459 C458 1.334 . S
C459 C460 1.287 . S
C460 C459 1.287 . S
C460 C461 1.524 . S
C460 H479 0.913 . S
C461 H437 0.950 . S
C461 C460 1.524 . S
C461 C462 1.415 . S
C462 H438 0.950 . S
C462 C457 1.363 . S
C462 C461 1.415 . S
C463 H439 0.951 . S
C463 C464 1.366 1_556 S
C463 C465 1.388 . S
C464 C463 1.366 1_554 S
C464 C468 1.385 . S
C465 H440 0.951 . S
C465 C463 1.388 . S
C465 C466 1.366 1_556 S
C466 C465 1.366 1_554 S
C466 C467 1.414 . S
C466 C469 1.499 . S
C467 H441 0.950 . S
C467 C466 1.414 . S
C467 C468 1.374 . S
C468 H442 0.950 . S
C468 C464 1.385 . S
C468 C467 1.374 . S
C469 C466 1.499 . S
C469 C470 1.373 . S
C469 C471 1.389 1_554 S
C470 H443 0.950 . S
C470 C456 1.377 . S
C470 C469 1.373 . S
C471 C455 1.377 . S
C471 C469 1.389 1_556 S
C471 C472 1.524 . S
C472 C471 1.524 . S
C472 C473 1.397 . S
C472 C477 1.363 . S
C473 H444 0.950 . S
C473 C472 1.397 . S
C473 C474 1.334 . S
C474 H445 0.950 . S
C474 C473 1.334 . S
C474 C475 1.287 . S
C475 C474 1.287 . S
C475 C476 1.524 . S
C475 H478 0.999 . S
C476 H446 0.950 . S
C476 C475 1.524 . S
C476 C477 1.415 . S
C477 H447 0.950 . S
C477 C472 1.363 . S
C477 C476 1.415 . S
H478 C475 0.999 . S
H479 C460 0.913 . S
H480 C498 0.951 . S
H481 C500 0.951 . S
H482 C502 0.950 . S
H483 C503 0.950 . S
H484 C505 0.950 . S
H485 C508 0.950 . S
H486 C509 0.950 . S
H487 C511 0.950 . S
H488 C512 0.950 . S
H489 C513 0.951 . S
H490 C515 0.951 . S
H491 C517 0.950 . S
H492 C518 0.950 . S
H493 C520 0.950 . S
H494 C523 0.950 . S
H495 C524 0.950 . S
H496 C526 0.950 . S
H497 C527 0.950 1_655 S
C498 H480 0.951 . S
C498 C499 1.366 . S
C498 C500 1.388 . S
C499 C498 1.366 . S
C499 C503 1.385 . S
C500 H481 0.951 . S
C500 C498 1.388 . S
C500 C501 1.366 . S
C501 C500 1.366 . S
C501 C502 1.414 . S
C501 C504 1.499 . S
C502 H482 0.950 . S
C502 C501 1.414 . S
C502 C503 1.374 . S
C503 H483 0.950 . S
C503 C499 1.385 . S
C503 C502 1.374 . S
C504 C501 1.499 . S
C504 C505 1.373 . S
C504 C506 1.389 . S
C505 H484 0.950 . S
C505 C504 1.373 . S
C505 C521 1.377 . S
C506 C504 1.389 . S
C506 C507 1.524 . S
C506 C520 1.377 . S
C507 C506 1.524 . S
C507 C508 1.397 . S
C507 C512 1.363 . S
C508 H485 0.950 . S
C508 C507 1.397 . S
C508 C509 1.334 . S
C509 H486 0.950 . S
C509 C508 1.334 . S
C509 C510 1.287 . S
C510 C509 1.287 . S
C510 C511 1.524 . S
C510 H529 0.913 . S
C511 H487 0.950 . S
C511 C510 1.524 . S
C511 C512 1.415 . S
C512 H488 0.950 . S
C512 C507 1.363 . S
C512 C511 1.415 . S
C513 H489 0.951 . S
C513 C514 1.366 . S
C513 C515 1.388 . S
C514 C513 1.366 . S
C514 C518 1.385 . S
C515 H490 0.951 . S
C515 C513 1.388 . S
C515 C516 1.366 . S
C516 C515 1.366 . S
C516 C517 1.414 . S
C516 C519 1.499 1_455 S
C517 H491 0.950 . S
C517 C516 1.414 . S
C517 C518 1.374 . S
C518 H492 0.950 . S
C518 C514 1.385 . S
C518 C517 1.374 . S
C519 C516 1.499 1_655 S
C519 C520 1.373 . S
C519 C521 1.389 . S
C520 H493 0.950 . S
C520 C506 1.377 . S
C520 C519 1.373 . S
C521 C505 1.377 . S
C521 C519 1.389 . S
C521 C522 1.524 1_655 S
C522 C521 1.524 1_455 S
C522 C523 1.397 . S
C522 C527 1.363 . S
C523 H494 0.950 . S
C523 C522 1.397 . S
C523 C524 1.334 . S
C524 H495 0.950 . S
C524 C523 1.334 . S
C524 C525 1.287 . S
C525 C524 1.287 . S
C525 C526 1.524 . S
C525 H528 0.999 1_565 S
C526 H496 0.950 . S
C526 C525 1.524 . S
C526 C527 1.415 . S
C527 H497 0.950 1_455 S
C527 C522 1.363 . S
C527 C526 1.415 . S
H528 C525 0.999 1_545 S
H529 C510 0.913 . S
H530 C548 0.951 . S
H531 C550 0.951 . S
H532 C552 0.950 . S
H533 C553 0.950 . S
H534 C555 0.950 . S
H535 C558 0.950 . S
H536 C559 0.950 . S
H537 C561 0.950 . S
H538 C562 0.950 . S
H539 C563 0.951 1_565 S
H540 C565 0.951 . S
H541 C567 0.950 . S
H542 C568 0.950 . S
H543 C570 0.950 . S
H544 C573 0.950 . S
H545 C574 0.950 . S
H546 C576 0.950 . S
H547 C577 0.950 . S
C548 H530 0.951 . S
C548 C549 1.366 . S
C548 C550 1.388 . S
C549 C548 1.366 . S
C549 C553 1.385 . S
C550 H531 0.951 . S
C550 C548 1.388 . S
C550 C551 1.366 . S
C551 C550 1.366 . S
C551 C552 1.414 . S
C551 C554 1.499 . S
C552 H532 0.950 . S
C552 C551 1.414 . S
C552 C553 1.374 . S
C553 H533 0.950 . S
C553 C549 1.385 . S
C553 C552 1.374 . S
C554 C551 1.499 . S
C554 C555 1.373 . S
C554 C556 1.389 . S
C555 H534 0.950 . S
C555 C554 1.373 . S
C555 C571 1.377 . S
C556 C554 1.389 . S
C556 C557 1.524 . S
C556 C570 1.377 . S
C557 C556 1.524 . S
C557 C558 1.397 . S
C557 C562 1.363 . S
C558 H535 0.950 . S
C558 C557 1.397 . S
C558 C559 1.334 . S
C559 H536 0.950 . S
C559 C558 1.334 . S
C559 C560 1.287 . S
C560 C559 1.287 . S
C560 C561 1.524 . S
C560 H579 0.913 . S
C561 H537 0.950 . S
C561 C560 1.524 . S
C561 C562 1.415 . S
C562 H538 0.950 . S
C562 C557 1.363 . S
C562 C561 1.415 . S
C563 H539 0.951 1_545 S
C563 C564 1.366 . S
C563 C565 1.388 . S
C564 C563 1.366 . S
C564 C568 1.385 . S
C565 H540 0.951 . S
C565 C563 1.388 . S
C565 C566 1.366 . S
C566 C565 1.366 . S
C566 C567 1.414 . S
C566 C569 1.499 . S
C567 H541 0.950 . S
C567 C566 1.414 . S
C567 C568 1.374 . S
C568 H542 0.950 . S
C568 C564 1.385 . S
C568 C567 1.374 . S
C569 C566 1.499 . S
C569 C570 1.373 . S
C569 C571 1.389 . S
C570 H543 0.950 . S
C570 C556 1.377 . S
C570 C569 1.373 . S
C571 C555 1.377 . S
C571 C569 1.389 . S
C571 C572 1.524 . S
C572 C571 1.524 . S
C572 C573 1.397 . S
C572 C577 1.363 . S
C573 H544 0.950 . S
C573 C572 1.397 . S
C573 C574 1.334 . S
C574 H545 0.950 . S
C574 C573 1.334 . S
C574 C575 1.287 . S
C575 C574 1.287 . S
C575 C576 1.524 . S
C575 H578 0.999 . S
C576 H546 0.950 . S
C576 C575 1.524 . S
C576 C577 1.415 . S
C577 H547 0.950 . S
C577 C572 1.363 . S
C577 C576 1.415 . S
H578 C575 0.999 . S
H579 C560 0.913 . S
H580 C598 0.951 . S
H581 C600 0.951 . S
H582 C602 0.950 . S
H583 C603 0.950 . S
H584 C605 0.950 . S
H585 C608 0.950 . S
H586 C609 0.950 . S
H587 C611 0.950 . S
H588 C612 0.950 . S
H589 C613 0.951 . S
H590 C615 0.951 . S
H591 C617 0.950 . S
H592 C618 0.950 . S
H593 C620 0.950 . S
H594 C623 0.950 . S
H595 C624 0.950 1_565 S
H596 C626 0.950 . S
H597 C627 0.950 . S
C598 H580 0.951 . S
C598 C599 1.366 1_455 S
C598 C600 1.388 1_455 S
C599 C598 1.366 1_655 S
C599 C603 1.385 . S
C600 H581 0.951 . S
C600 C598 1.388 1_655 S
C600 C601 1.366 . S
C601 C600 1.366 . S
C601 C602 1.414 . S
C601 C604 1.499 . S
C602 H582 0.950 . S
C602 C601 1.414 . S
C602 C603 1.374 . S
C603 H583 0.950 . S
C603 C599 1.385 . S
C603 C602 1.374 . S
C604 C601 1.499 . S
C604 C605 1.373 . S
C604 C606 1.389 . S
C605 H584 0.950 . S
C605 C604 1.373 . S
C605 C621 1.377 . S
C606 C604 1.389 . S
C606 C607 1.524 . S
C606 C620 1.377 . S
C607 C606 1.524 . S
C607 C608 1.397 . S
C607 C612 1.363 . S
C608 H585 0.950 . S
C608 C607 1.397 . S
C608 C609 1.334 1_655 S
C609 H586 0.950 . S
C609 C608 1.334 1_455 S
C609 C610 1.287 . S
C610 C609 1.287 . S
C610 C611 1.524 . S
C610 H629 0.913 . S
C611 H587 0.950 . S
C611 C610 1.524 . S
C611 C612 1.415 1_455 S
C612 H588 0.950 . S
C612 C607 1.363 . S
C612 C611 1.415 1_655 S
C613 H589 0.951 . S
C613 C614 1.366 . S
C613 C615 1.388 . S
C614 C613 1.366 . S
C614 C618 1.385 . S
C615 H590 0.951 . S
C615 C613 1.388 . S
C615 C616 1.366 . S
C616 C615 1.366 . S
C616 C617 1.414 . S
C616 C619 1.499 1_565 S
C617 H591 0.950 . S
C617 C616 1.414 . S
C617 C618 1.374 . S
C618 H592 0.950 . S
C618 C614 1.385 . S
C618 C617 1.374 . S
C619 C616 1.499 1_545 S
C619 C620 1.373 . S
C619 C621 1.389 . S
C620 H593 0.950 . S
C620 C606 1.377 . S
C620 C619 1.373 . S
C621 C605 1.377 . S
C621 C619 1.389 . S
C621 C622 1.524 . S
C622 C621 1.524 . S
C622 C623 1.397 . S
C622 C627 1.363 . S
C623 H594 0.950 . S
C623 C622 1.397 . S
C623 C624 1.334 . S
C624 H595 0.950 1_545 S
C624 C623 1.334 . S
C624 C625 1.287 . S
C625 C624 1.287 . S
C625 C626 1.524 . S
C625 H628 0.999 . S
C626 H596 0.950 . S
C626 C625 1.524 . S
C626 C627 1.415 . S
C627 H597 0.950 . S
C627 C622 1.363 . S
C627 C626 1.415 . S
H628 C625 0.999 . S
H629 C610 0.913 . S
H630 C648 0.951 . S
H631 C650 0.951 . S
H632 C652 0.950 . S
H633 C653 0.950 . S
H634 C655 0.950 . S
H635 C658 0.950 . S
H636 C659 0.950 . S
H637 C661 0.950 . S
H638 C662 0.950 . S
H639 C663 0.951 . S
H640 C665 0.951 . S
H641 C667 0.950 . S
H642 C668 0.950 . S
H643 C670 0.950 . S
H644 C673 0.950 . S
H645 C674 0.950 . S
H646 C676 0.950 . S
H647 C677 0.950 . S
C648 H630 0.951 . S
C648 C649 1.366 . S
C648 C650 1.388 . S
C649 C648 1.366 . S
C649 C653 1.385 . S
C650 H631 0.951 . S
C650 C648 1.388 . S
C650 C651 1.366 . S
C651 C650 1.366 . S
C651 C652 1.414 . S
C651 C654 1.499 . S
C652 H632 0.950 . S
C652 C651 1.414 . S
C652 C653 1.374 . S
C653 H633 0.950 . S
C653 C649 1.385 . S
C653 C652 1.374 . S
C654 C651 1.499 . S
C654 C655 1.373 . S
C654 C656 1.389 . S
C655 H634 0.950 . S
C655 C654 1.373 . S
C655 C671 1.377 . S
C656 C654 1.389 . S
C656 C657 1.524 . S
C656 C670 1.377 . S
C657 C656 1.524 . S
C657 C658 1.397 . S
C657 C662 1.363 . S
C658 H635 0.950 . S
C658 C657 1.397 . S
C658 C659 1.334 . S
C659 H636 0.950 . S
C659 C658 1.334 . S
C659 C660 1.287 . S
C660 C659 1.287 . S
C660 C661 1.524 . S
C660 H679 0.913 . S
C661 H637 0.950 . S
C661 C660 1.524 . S
C661 C662 1.415 . S
C662 H638 0.950 . S
C662 C657 1.363 . S
C662 C661 1.415 . S
C663 H639 0.951 . S
C663 C664 1.366 . S
C663 C665 1.388 . S
C664 C663 1.366 . S
C664 C668 1.385 . S
C665 H640 0.951 . S
C665 C663 1.388 . S
C665 C666 1.366 . S
C666 C665 1.366 . S
C666 C667 1.414 . S
C666 C669 1.499 . S
C667 H641 0.950 . S
C667 C666 1.414 . S
C667 C668 1.374 . S
C668 H642 0.950 . S
C668 C664 1.385 . S
C668 C667 1.374 . S
C669 C666 1.499 . S
C669 C670 1.373 . S
C669 C671 1.389 . S
C670 H643 0.950 . S
C670 C656 1.377 . S
C670 C669 1.373 . S
C671 C655 1.377 . S
C671 C669 1.389 . S
C671 C672 1.524 . S
C672 C671 1.524 . S
C672 C673 1.397 . S
C672 C677 1.363 . S
C673 H644 0.950 . S
C673 C672 1.397 . S
C673 C674 1.334 . S
C674 H645 0.950 . S
C674 C673 1.334 . S
C674 C675 1.287 . S
C675 C674 1.287 . S
C675 C676 1.524 . S
C675 H678 0.999 . S
C676 H646 0.950 . S
C676 C675 1.524 . S
C676 C677 1.415 . S
C677 H647 0.950 . S
C677 C672 1.363 . S
C677 C676 1.415 . S
H678 C675 0.999 . S
H679 C660 0.913 . S
H680 C698 0.951 . S
H681 C700 0.951 . S
H682 C702 0.950 . S
H683 C703 0.950 . S
H684 C705 0.950 . S
H685 C708 0.950 . S
H686 C709 0.950 . S
H687 C711 0.950 . S
H688 C712 0.950 . S
H689 C713 0.951 . S
H690 C715 0.951 . S
H691 C717 0.950 . S
H692 C718 0.950 . S
H693 C720 0.950 . S
H694 C723 0.950 . S
H695 C724 0.950 . S
H696 C726 0.950 . S
H697 C727 0.950 . S
C698 H680 0.951 . S
C698 C699 1.366 . S
C698 C700 1.388 . S
C699 C698 1.366 . S
C699 C703 1.385 . S
C700 H681 0.951 . S
C700 C698 1.388 . S
C700 C701 1.366 . S
C701 C700 1.366 . S
C701 C702 1.414 . S
C701 C704 1.499 . S
C702 H682 0.950 . S
C702 C701 1.414 . S
C702 C703 1.374 . S
C703 H683 0.950 . S
C703 C699 1.385 . S
C703 C702 1.374 . S
C704 C701 1.499 . S
C704 C705 1.373 . S
C704 C706 1.389 . S
C705 H684 0.950 . S
C705 C704 1.373 . S
C705 C721 1.377 . S
C706 C704 1.389 . S
C706 C707 1.524 . S
C706 C720 1.377 . S
C707 C706 1.524 . S
C707 C708 1.397 . S
C707 C712 1.363 . S
C708 H685 0.950 . S
C708 C707 1.397 . S
C708 C709 1.334 . S
C709 H686 0.950 . S
C709 C708 1.334 . S
C709 C710 1.287 . S
C710 C709 1.287 . S
C710 C711 1.524 . S
C710 H729 0.913 . S
C711 H687 0.950 . S
C711 C710 1.524 . S
C711 C712 1.415 . S
C712 H688 0.950 . S
C712 C707 1.363 . S
C712 C711 1.415 . S
C713 H689 0.951 . S
C713 C714 1.366 . S
C713 C715 1.388 . S
C714 C713 1.366 . S
C714 C718 1.385 . S
C715 H690 0.951 . S
C715 C713 1.388 . S
C715 C716 1.366 . S
C716 C715 1.366 . S
C716 C717 1.414 . S
C716 C719 1.499 . S
C717 H691 0.950 . S
C717 C716 1.414 . S
C717 C718 1.374 . S
C718 H692 0.950 . S
C718 C714 1.385 . S
C718 C717 1.374 . S
C719 C716 1.499 . S
C719 C720 1.373 . S
C719 C721 1.389 . S
C720 H693 0.950 . S
C720 C706 1.377 . S
C720 C719 1.373 . S
C721 C705 1.377 . S
C721 C719 1.389 . S
C721 C722 1.524 . S
C722 C721 1.524 . S
C722 C723 1.397 . S
C722 C727 1.363 . S
C723 H694 0.950 . S
C723 C722 1.397 . S
C723 C724 1.334 . S
C724 H695 0.950 . S
C724 C723 1.334 . S
C724 C725 1.287 . S
C725 C724 1.287 . S
C725 C726 1.524 . S
C725 H728 0.999 . S
C726 H696 0.950 . S
C726 C725 1.524 . S
C726 C727 1.415 . S
C727 H697 0.950 . S
C727 C722 1.363 . S
C727 C726 1.415 . S
H728 C725 0.999 . S
H729 C710 0.913 . S
H730 C748 0.951 . S
H731 C750 0.951 . S
H732 C752 0.950 . S
H733 C753 0.950 . S
H734 C755 0.950 . S
H735 C758 0.950 . S
H736 C759 0.950 . S
H737 C761 0.950 . S
H738 C762 0.950 . S
H739 C763 0.951 . S
H740 C765 0.951 . S
H741 C767 0.950 . S
H742 C768 0.950 . S
H743 C770 0.950 . S
H744 C773 0.950 . S
H745 C774 0.950 . S
H746 C776 0.950 . S
H747 C777 0.950 . S
C748 H730 0.951 . S
C748 C749 1.366 . S
C748 C750 1.388 . S
C749 C748 1.366 . S
C749 C753 1.385 . S
C750 H731 0.951 . S
C750 C748 1.388 . S
C750 C751 1.366 . S
C751 C750 1.366 . S
C751 C752 1.414 . S
C751 C754 1.499 . S
C752 H732 0.950 . S
C752 C751 1.414 . S
C752 C753 1.374 . S
C753 H733 0.950 . S
C753 C749 1.385 . S
C753 C752 1.374 . S
C754 C751 1.499 . S
C754 C755 1.373 . S
C754 C756 1.389 . S
C755 H734 0.950 . S
C755 C754 1.373 . S
C755 C771 1.377 . S
C756 C754 1.389 . S
C756 C757 1.524 . S
C756 C770 1.377 . S
C757 C756 1.524 . S
C757 C758 1.397 . S
C757 C762 1.363 . S
C758 H735 0.950 . S
C758 C757 1.397 . S
C758 C759 1.334 . S
C759 H736 0.950 . S
C759 C758 1.334 . S
C759 C760 1.287 . S
C760 C759 1.287 . S
C760 C761 1.524 . S
C760 H779 0.913 . S
C761 H737 0.950 . S
C761 C760 1.524 . S
C761 C762 1.415 . S
C762 H738 0.950 . S
C762 C757 1.363 . S
C762 C761 1.415 . S
C763 H739 0.951 . S
C763 C764 1.366 . S
C763 C765 1.388 . S
C764 C763 1.366 . S
C764 C768 1.385 . S
C765 H740 0.951 . S
C765 C763 1.388 . S
C765 C766 1.366 . S
C766 C765 1.366 . S
C766 C767 1.414 . S
C766 C769 1.499 . S
C767 H741 0.950 . S
C767 C766 1.414 . S
C767 C768 1.374 . S
C768 H742 0.950 . S
C768 C764 1.385 . S
C768 C767 1.374 . S
C769 C766 1.499 . S
C769 C770 1.373 . S
C769 C771 1.389 . S
C770 H743 0.950 . S
C770 C756 1.377 . S
C770 C769 1.373 . S
C771 C755 1.377 . S
C771 C769 1.389 . S
C771 C772 1.524 . S
C772 C771 1.524 . S
C772 C773 1.397 . S
C772 C777 1.363 . S
C773 H744 0.950 . S
C773 C772 1.397 . S
C773 C774 1.334 . S
C774 H745 0.950 . S
C774 C773 1.334 . S
C774 C775 1.287 . S
C775 C774 1.287 . S
C775 C776 1.524 . S
C775 H778 0.999 . S
C776 H746 0.950 . S
C776 C775 1.524 . S
C776 C777 1.415 . S
C777 H747 0.950 . S
C777 C772 1.363 . S
C777 C776 1.415 . S
H778 C775 0.999 . S
H779 C760 0.913 . S
H780 C798 0.951 . S
H781 C800 0.951 . S
H782 C802 0.950 . S
H783 C803 0.950 . S
H784 C805 0.950 . S
H785 C808 0.950 . S
H786 C809 0.950 . S
H787 C811 0.950 . S
H788 C812 0.950 . S
H789 C813 0.951 . S
H790 C815 0.951 . S
H791 C817 0.950 . S
H792 C818 0.950 . S
H793 C820 0.950 . S
H794 C823 0.950 . S
H795 C824 0.950 . S
H796 C826 0.950 . S
H797 C827 0.950 . S
C798 H780 0.951 . S
C798 C799 1.366 . S
C798 C800 1.388 . S
C799 C798 1.366 . S
C799 C803 1.385 . S
C800 H781 0.951 . S
C800 C798 1.388 . S
C800 C801 1.366 . S
C801 C800 1.366 . S
C801 C802 1.414 . S
C801 C804 1.499 . S
C802 H782 0.950 . S
C802 C801 1.414 . S
C802 C803 1.374 . S
C803 H783 0.950 . S
C803 C799 1.385 . S
C803 C802 1.374 . S
C804 C801 1.499 . S
C804 C805 1.373 . S
C804 C806 1.389 . S
C805 H784 0.950 . S
C805 C804 1.373 . S
C805 C821 1.377 . S
C806 C804 1.389 . S
C806 C807 1.524 . S
C806 C820 1.377 . S
C807 C806 1.524 . S
C807 C808 1.397 . S
C807 C812 1.363 . S
C808 H785 0.950 . S
C808 C807 1.397 . S
C808 C809 1.334 . S
C809 H786 0.950 . S
C809 C808 1.334 . S
C809 C810 1.287 . S
C810 C809 1.287 . S
C810 C811 1.524 . S
C810 H829 0.913 . S
C811 H787 0.950 . S
C811 C810 1.524 . S
C811 C812 1.415 . S
C812 H788 0.950 . S
C812 C807 1.363 . S
C812 C811 1.415 . S
C813 H789 0.951 . S
C813 C814 1.366 . S
C813 C815 1.388 . S
C814 C813 1.366 . S
C814 C818 1.385 . S
C815 H790 0.951 . S
C815 C813 1.388 . S
C815 C816 1.366 . S
C816 C815 1.366 . S
C816 C817 1.414 . S
C816 C819 1.499 . S
C817 H791 0.950 . S
C817 C816 1.414 . S
C817 C818 1.374 . S
C818 H792 0.950 . S
C818 C814 1.385 . S
C818 C817 1.374 . S
C819 C816 1.499 . S
C819 C820 1.373 . S
C819 C821 1.389 . S
C820 H793 0.950 . S
C820 C806 1.377 . S
C820 C819 1.373 . S
C821 C805 1.377 . S
C821 C819 1.389 . S
C821 C822 1.524 . S
C822 C821 1.524 . S
C822 C823 1.397 . S
C822 C827 1.363 . S
C823 H794 0.950 . S
C823 C822 1.397 . S
C823 C824 1.334 . S
C824 H795 0.950 . S
C824 C823 1.334 . S
C824 C825 1.287 . S
C825 C824 1.287 . S
C825 C826 1.524 . S
C825 H828 0.999 . S
C826 H796 0.950 . S
C826 C825 1.524 . S
C826 C827 1.415 . S
C827 H797 0.950 . S
C827 C822 1.363 . S
C827 C826 1.415 . S
H828 C825 0.999 . S
H829 C810 0.913 . S
H830 C848 0.951 . S
H831 C850 0.951 . S
H832 C852 0.950 . S
H833 C853 0.950 . S
H834 C855 0.950 . S
H835 C858 0.950 . S
H836 C859 0.950 . S
H837 C861 0.950 . S
H838 C862 0.950 . S
H839 C863 0.951 . S
H840 C865 0.951 . S
H841 C867 0.950 . S
H842 C868 0.950 . S
H843 C870 0.950 . S
H844 C873 0.950 . S
H845 C874 0.950 . S
H846 C876 0.950 . S
H847 C877 0.950 . S
C848 H830 0.951 . S
C848 C849 1.366 . S
C848 C850 1.388 . S
C849 C848 1.366 . S
C849 C853 1.385 . S
C850 H831 0.951 . S
C850 C848 1.388 . S
C850 C851 1.366 . S
C851 C850 1.366 . S
C851 C852 1.414 . S
C851 C854 1.499 . S
C852 H832 0.950 . S
C852 C851 1.414 . S
C852 C853 1.374 . S
C853 H833 0.950 . S
C853 C849 1.385 . S
C853 C852 1.374 . S
C854 C851 1.499 . S
C854 C855 1.373 . S
C854 C856 1.389 . S
C855 H834 0.950 . S
C855 C854 1.373 . S
C855 C871 1.377 . S
C856 C854 1.389 . S
C856 C857 1.524 . S
C856 C870 1.377 . S
C857 C856 1.524 . S
C857 C858 1.397 . S
C857 C862 1.363 . S
C858 H835 0.950 . S
C858 C857 1.397 . S
C858 C859 1.334 . S
C859 H836 0.950 . S
C859 C858 1.334 . S
C859 C860 1.287 . S
C860 C859 1.287 . S
C860 C861 1.524 . S
C860 H879 0.913 . S
C861 H837 0.950 . S
C861 C860 1.524 . S
C861 C862 1.415 . S
C862 H838 0.950 . S
C862 C857 1.363 . S
C862 C861 1.415 . S
C863 H839 0.951 . S
C863 C864 1.366 . S
C863 C865 1.388 . S
C864 C863 1.366 . S
C864 C868 1.385 . S
C865 H840 0.951 . S
C865 C863 1.388 . S
C865 C866 1.366 . S
C866 C865 1.366 . S
C866 C867 1.414 . S
C866 C869 1.499 . S
C867 H841 0.950 . S
C867 C866 1.414 . S
C867 C868 1.374 . S
C868 H842 0.950 . S
C868 C864 1.385 . S
C868 C867 1.374 . S
C869 C866 1.499 . S
C869 C870 1.373 . S
C869 C871 1.389 . S
C870 H843 0.950 . S
C870 C856 1.377 . S
C870 C869 1.373 . S
C871 C855 1.377 . S
C871 C869 1.389 . S
C871 C872 1.524 . S
C872 C871 1.524 . S
C872 C873 1.397 . S
C872 C877 1.363 . S
C873 H844 0.950 . S
C873 C872 1.397 . S
C873 C874 1.334 . S
C874 H845 0.950 . S
C874 C873 1.334 . S
C874 C875 1.287 . S
C875 C874 1.287 . S
C875 C876 1.524 . S
C875 H878 0.999 . S
C876 H846 0.950 . S
C876 C875 1.524 . S
C876 C877 1.415 . S
C877 H847 0.950 . S
C877 C872 1.363 . S
C877 C876 1.415 . S
H878 C875 0.999 . S
H879 C860 0.913 . S
H880 C898 0.951 . S
H881 C900 0.951 . S
H882 C902 0.950 . S
H883 C903 0.950 . S
H884 C905 0.950 . S
H885 C908 0.950 . S
H886 C909 0.950 . S
H887 C911 0.950 . S
H888 C912 0.950 . S
H889 C913 0.951 . S
H890 C915 0.951 . S
H891 C917 0.950 . S
H892 C918 0.950 . S
H893 C920 0.950 . S
H894 C923 0.950 . S
H895 C924 0.950 . S
H896 C926 0.950 . S
H897 C927 0.950 . S
C898 H880 0.951 . S
C898 C899 1.366 . S
C898 C900 1.388 . S
C899 C898 1.366 . S
C899 C903 1.385 . S
C900 H881 0.951 . S
C900 C898 1.388 . S
C900 C901 1.366 . S
C901 C900 1.366 . S
C901 C902 1.414 . S
C901 C904 1.499 . S
C902 H882 0.950 . S
C902 C901 1.414 . S
C902 C903 1.374 . S
C903 H883 0.950 . S
C903 C899 1.385 . S
C903 C902 1.374 . S
C904 C901 1.499 . S
C904 C905 1.373 . S
C904 C906 1.389 . S
C905 H884 0.950 . S
C905 C904 1.373 . S
C905 C921 1.377 . S
C906 C904 1.389 . S
C906 C907 1.524 . S
C906 C920 1.377 . S
C907 C906 1.524 . S
C907 C908 1.397 . S
C907 C912 1.363 . S
C908 H885 0.950 . S
C908 C907 1.397 . S
C908 C909 1.334 . S
C909 H886 0.950 . S
C909 C908 1.334 . S
C909 C910 1.287 . S
C910 C909 1.287 . S
C910 C911 1.524 . S
C910 H929 0.913 . S
C911 H887 0.950 . S
C911 C910 1.524 . S
C911 C912 1.415 . S
C912 H888 0.950 . S
C912 C907 1.363 . S
C912 C911 1.415 . S
C913 H889 0.951 . S
C913 C914 1.366 . S
C913 C915 1.388 . S
C914 C913 1.366 . S
C914 C918 1.385 . S
C915 H890 0.951 . S
C915 C913 1.388 . S
C915 C916 1.366 . S
C916 C915 1.366 . S
C916 C917 1.414 . S
C916 C919 1.499 . S
C917 H891 0.950 . S
C917 C916 1.414 . S
C917 C918 1.374 . S
C918 H892 0.950 . S
C918 C914 1.385 . S
C918 C917 1.374 . S
C919 C916 1.499 . S
C919 C920 1.373 . S
C919 C921 1.389 . S
C920 H893 0.950 . S
C920 C906 1.377 . S
C920 C919 1.373 . S
C921 C905 1.377 . S
C921 C919 1.389 . S
C921 C922 1.524 . S
C922 C921 1.524 . S
C922 C923 1.397 . S
C922 C927 1.363 . S
C923 H894 0.950 . S
C923 C922 1.397 . S
C923 C924 1.334 . S
C924 H895 0.950 . S
C924 C923 1.334 . S
C924 C925 1.287 . S
C925 C924 1.287 . S
C925 C926 1.524 . S
C925 H928 0.999 . S
C926 H896 0.950 . S
C926 C925 1.524 . S
C926 C927 1.415 . S
C927 H897 0.950 . S
C927 C922 1.363 . S
C927 C926 1.415 . S
H928 C925 0.999 . S
H929 C910 0.913 . S
H930 C948 0.951 . S
H931 C950 0.951 . S
H932 C952 0.950 . S
H933 C953 0.950 . S
H934 C955 0.950 . S
H935 C958 0.950 . S
H936 C959 0.950 . S
H937 C961 0.950 . S
H938 C962 0.950 . S
H939 C963 0.951 . S
H940 C965 0.951 . S
H941 C967 0.950 . S
H942 C968 0.950 . S
H943 C970 0.950 . S
H944 C973 0.950 . S
H945 C974 0.950 . S
H946 C976 0.950 . S
H947 C977 0.950 . S
C948 H930 0.951 . S
C948 C949 1.366 . S
C948 C950 1.388 . S
C949 C948 1.366 . S
C949 C953 1.385 . S
C950 H931 0.951 . S
C950 C948 1.388 . S
C950 C951 1.366 . S
C951 C950 1.366 . S
C951 C952 1.414 . S
C951 C954 1.499 . S
C952 H932 0.950 . S
C952 C951 1.414 . S
C952 C953 1.374 . S
C953 H933 0.950 . S
C953 C949 1.385 . S
C953 C952 1.374 . S
C954 C951 1.499 . S
C954 C955 1.373 . S
C954 C956 1.389 . S
C955 H934 0.950 . S
C955 C954 1.373 . S
C955 C971 1.377 . S
C956 C954 1.389 . S
C956 C957 1.524 . S
C956 C970 1.377 . S
C957 C956 1.524 . S
C957 C958 1.397 . S
C957 C962 1.363 . S
C958 H935 0.950 . S
C958 C957 1.397 . S
C958 C959 1.334 . S
C959 H936 0.950 . S
C959 C958 1.334 . S
C959 C960 1.287 . S
C960 C959 1.287 . S
C960 C961 1.524 . S
C960 H979 0.913 . S
C961 H937 0.950 . S
C961 C960 1.524 . S
C961 C962 1.415 . S
C962 H938 0.950 . S
C962 C957 1.363 . S
C962 C961 1.415 . S
C963 H939 0.951 . S
C963 C964 1.366 . S
C963 C965 1.388 . S
C964 C963 1.366 . S
C964 C968 1.385 . S
C965 H940 0.951 . S
C965 C963 1.388 . S
C965 C966 1.366 . S
C966 C965 1.366 . S
C966 C967 1.414 . S
C966 C969 1.499 1_545 S
C967 H941 0.950 . S
C967 C966 1.414 . S
C967 C968 1.374 . S
C968 H942 0.950 . S
C968 C964 1.385 . S
C968 C967 1.374 . S
C969 C966 1.499 1_565 S
C969 C970 1.373 . S
C969 C971 1.389 . S
C970 H943 0.950 . S
C970 C956 1.377 . S
C970 C969 1.373 . S
C971 C955 1.377 . S
C971 C969 1.389 . S
C971 C972 1.524 . S
C972 C971 1.524 . S
C972 C973 1.397 . S
C972 C977 1.363 . S
C973 H944 0.950 . S
C973 C972 1.397 . S
C973 C974 1.334 1_565 S
C974 H945 0.950 . S
C974 C973 1.334 1_545 S
C974 C975 1.286 . S
C975 C974 1.286 . S
C975 C976 1.525 1_545 S
C975 H978 0.998 . S
C976 H946 0.950 . S
C976 C975 1.525 1_565 S
C976 C977 1.415 . S
C977 H947 0.950 . S
C977 C972 1.363 . S
C977 C976 1.415 . S
H978 C975 0.998 . S
H979 C960 0.913 . S
H980 C998 0.951 . S
H981 C1000 0.951 1_455 S
H982 C1002 0.950 . S
H983 C1003 0.950 . S
H984 C1005 0.950 . S
H985 C1008 0.950 . S
H986 C1009 0.950 . S
H987 C1011 0.950 . S
H988 C1012 0.950 . S
H989 C1013 0.951 . S
H990 C1015 0.951 . S
H991 C1017 0.950 . S
H992 C1018 0.950 . S
H993 C1020 0.950 . S
H994 C1023 0.950 . S
H995 C1024 0.950 . S
H996 C1026 0.950 . S
H997 C1027 0.950 . S
C998 H980 0.951 . S
C998 C999 1.366 . S
C998 C1000 1.388 . S
C999 C998 1.366 . S
C999 C1003 1.385 . S
C1000 H981 0.951 1_655 S
C1000 C998 1.388 . S
C1000 C1001 1.366 1_655 S
C1001 C1000 1.366 1_455 S
C1001 C1002 1.414 1_455 S
C1001 C1004 1.499 . S
C1002 H982 0.950 . S
C1002 C1001 1.414 1_655 S
C1002 C1003 1.374 . S
C1003 H983 0.950 . S
C1003 C999 1.385 . S
C1003 C1002 1.374 . S
C1004 C1001 1.499 . S
C1004 C1005 1.373 . S
C1004 C1006 1.389 . S
C1005 H984 0.950 . S
C1005 C1004 1.373 . S
C1005 C1021 1.377 . S
C1006 C1004 1.389 . S
C1006 C1007 1.524 . S
C1006 C1020 1.377 . S
C1007 C1006 1.524 . S
C1007 C1008 1.397 . S
C1007 C1012 1.363 . S
C1008 H985 0.950 . S
C1008 C1007 1.397 . S
C1008 C1009 1.334 . S
C1009 H986 0.950 . S
C1009 C1008 1.334 . S
C1009 C1010 1.287 . S
C1010 C1009 1.287 . S
C1010 C1011 1.524 . S
C1010 H1029 0.913 . S
C1011 H987 0.950 . S
C1011 C1010 1.524 . S
C1011 C1012 1.415 . S
C1012 H988 0.950 . S
C1012 C1007 1.363 . S
C1012 C1011 1.415 . S
C1013 H989 0.951 . S
C1013 C1014 1.366 . S
C1013 C1015 1.388 1_545 S
C1014 C1013 1.366 . S
C1014 C1018 1.385 1_545 S
C1015 H990 0.951 . S
C1015 C1013 1.388 1_565 S
C1015 C1016 1.366 . S
C1016 C1015 1.366 . S
C1016 C1017 1.414 . S
C1016 C1019 1.499 . S
C1017 H991 0.950 . S
C1017 C1016 1.414 . S
C1017 C1018 1.374 . S
C1018 H992 0.950 . S
C1018 C1014 1.385 1_565 S
C1018 C1017 1.374 . S
C1019 C1016 1.499 . S
C1019 C1020 1.373 . S
C1019 C1021 1.389 . S
C1020 H993 0.950 . S
C1020 C1006 1.377 . S
C1020 C1019 1.373 . S
C1021 C1005 1.377 . S
C1021 C1019 1.389 . S
C1021 C1022 1.524 . S
C1022 C1021 1.524 . S
C1022 C1023 1.397 . S
C1022 C1027 1.363 . S
C1023 H994 0.950 . S
C1023 C1022 1.397 . S
C1023 C1024 1.334 1_565 S
C1024 H995 0.950 . S
C1024 C1023 1.334 1_545 S
C1024 C1025 1.287 . S
C1025 C1024 1.287 . S
C1025 C1026 1.524 . S
C1025 H1028 0.999 . S
C1026 H996 0.950 . S
C1026 C1025 1.524 . S
C1026 C1027 1.415 1_545 S
C1027 H997 0.950 . S
C1027 C1022 1.363 . S
C1027 C1026 1.415 1_565 S
H1028 C1025 0.999 . S
H1029 C1010 0.913 . S
H1030 C1048 0.951 . S
H1031 C1050 0.951 . S
H1032 C1052 0.950 . S
H1033 C1053 0.950 . S
H1034 C1055 0.950 . S
H1035 C1058 0.950 . S
H1036 C1059 0.950 . S
H1037 C1061 0.950 . S
H1038 C1062 0.950 . S
H1039 C1063 0.951 . S
H1040 C1065 0.951 . S
H1041 C1067 0.950 . S
H1042 C1068 0.950 1_655 S
H1043 C1070 0.950 . S
H1044 C1073 0.950 . S
H1045 C1074 0.950 . S
H1046 C1076 0.950 . S
H1047 C1077 0.950 . S
C1048 H1030 0.951 . S
C1048 C1049 1.366 . S
C1048 C1050 1.388 . S
C1049 C1048 1.366 . S
C1049 C1053 1.385 . S
C1050 H1031 0.951 . S
C1050 C1048 1.388 . S
C1050 C1051 1.366 . S
C1051 C1050 1.366 . S
C1051 C1052 1.414 . S
C1051 C1054 1.499 . S
C1052 H1032 0.950 . S
C1052 C1051 1.414 . S
C1052 C1053 1.374 . S
C1053 H1033 0.950 . S
C1053 C1049 1.385 . S
C1053 C1052 1.374 . S
C1054 C1051 1.499 . S
C1054 C1055 1.373 . S
C1054 C1056 1.389 . S
C1055 H1034 0.950 . S
C1055 C1054 1.373 . S
C1055 C1071 1.377 . S
C1056 C1054 1.389 . S
C1056 C1057 1.524 . S
C1056 C1070 1.377 . S
C1057 C1056 1.524 . S
C1057 C1058 1.397 . S
C1057 C1062 1.363 . S
C1058 H1035 0.950 . S
C1058 C1057 1.397 . S
C1058 C1059 1.334 . S
C1059 H1036 0.950 . S
C1059 C1058 1.334 . S
C1059 C1060 1.287 . S
C1060 C1059 1.287 . S
C1060 C1061 1.524 . S
C1060 H1079 0.913 . S
C1061 H1037 0.950 . S
C1061 C1060 1.524 . S
C1061 C1062 1.415 . S
C1062 H1038 0.950 . S
C1062 C1057 1.363 . S
C1062 C1061 1.415 . S
C1063 H1039 0.951 . S
C1063 C1064 1.366 . S
C1063 C1065 1.388 . S
C1064 C1063 1.366 . S
C1064 C1068 1.385 . S
C1065 H1040 0.951 . S
C1065 C1063 1.388 . S
C1065 C1066 1.366 . S
C1066 C1065 1.366 . S
C1066 C1067 1.414 . S
C1066 C1069 1.499 . S
C1067 H1041 0.950 . S
C1067 C1066 1.414 . S
C1067 C1068 1.374 . S
C1068 H1042 0.950 1_455 S
C1068 C1064 1.385 . S
C1068 C1067 1.374 . S
C1069 C1066 1.499 . S
C1069 C1070 1.373 . S
C1069 C1071 1.389 . S
C1070 H1043 0.950 . S
C1070 C1056 1.377 . S
C1070 C1069 1.373 . S
C1071 C1055 1.377 . S
C1071 C1069 1.389 . S
C1071 C1072 1.524 . S
C1072 C1071 1.524 . S
C1072 C1073 1.397 . S
C1072 C1077 1.363 . S
C1073 H1044 0.950 . S
C1073 C1072 1.397 . S
C1073 C1074 1.334 . S
C1074 H1045 0.950 . S
C1074 C1073 1.334 . S
C1074 C1075 1.287 . S
C1075 C1074 1.287 . S
C1075 C1076 1.524 . S
C1075 H1078 0.999 . S
C1076 H1046 0.950 . S
C1076 C1075 1.524 . S
C1076 C1077 1.415 . S
C1077 H1047 0.950 . S
C1077 C1072 1.363 . S
C1077 C1076 1.415 . S
H1078 C1075 0.999 . S
H1079 C1060 0.913 . S
H1080 C1098 0.951 . S
H1081 C1100 0.951 . S
H1082 C1102 0.950 . S
H1083 C1103 0.950 . S
H1084 C1105 0.950 . S
H1085 C1108 0.950 . S
H1086 C1109 0.950 . S
H1087 C1111 0.936 1_655 S
H1088 C1112 0.950 1_655 S
H1089 C1113 0.951 . S
H1090 C1115 0.951 . S
H1091 C1117 0.953 . S
H1092 C1118 0.950 1_655 S
H1093 C1120 0.950 . S
H1094 C1123 0.950 . S
H1095 C1124 0.950 . S
H1096 C1126 0.950 . S
H1097 C1127 0.950 . S
C1098 H1080 0.951 . S
C1098 C1099 1.366 . S
C1098 C1100 1.388 . S
C1099 C1098 1.366 . S
C1099 C1103 1.385 . S
C1100 H1081 0.951 . S
C1100 C1098 1.388 . S
C1100 C1101 1.366 . S
C1101 C1100 1.366 . S
C1101 C1102 1.414 . S
C1101 C1104 1.499 . S
C1102 H1082 0.950 . S
C1102 C1101 1.414 . S
C1102 C1103 1.374 . S
C1103 H1083 0.950 . S
C1103 C1099 1.385 . S
C1103 C1102 1.374 . S
C1104 C1101 1.499 . S
C1104 C1105 1.373 . S
C1104 C1106 1.389 . S
C1105 H1084 0.950 . S
C1105 C1104 1.373 . S
C1105 C1121 1.377 . S
C1106 C1104 1.389 . S
C1106 C1107 1.524 . S
C1106 C1120 1.377 . S
C1107 C1106 1.524 . S
C1107 C1108 1.397 . S
C1107 C1112 1.363 . S
C1108 H1085 0.950 . S
C1108 C1107 1.397 . S
C1108 C1109 1.334 . S
C1109 H1086 0.950 . S
C1109 C1108 1.334 . S
C1109 C1110 1.287 . S
C1110 C1109 1.287 . S
C1110 C1111 1.543 . S
C1110 H1129 0.913 . S
C1111 H1087 0.936 1_455 S
C1111 C1110 1.543 . S
C1111 C1112 1.412 . S
C1112 H1088 0.950 1_455 S
C1112 C1107 1.363 . S
C1112 C1111 1.412 . S
C1113 H1089 0.951 . S
C1113 C1114 1.366 . S
C1113 C1115 1.388 . S
C1114 C1113 1.366 . S
C1114 C1118 1.385 . S
C1115 H1090 0.951 . S
C1115 C1113 1.388 . S
C1115 C1116 1.366 . S
C1116 C1115 1.366 . S
C1116 C1117 1.414 . S
C1116 C1119 1.499 . S
C1117 H1091 0.953 . S
C1117 C1116 1.414 . S
C1117 C1118 1.374 . S
C1118 H1092 0.950 1_455 S
C1118 C1114 1.385 . S
C1118 C1117 1.374 . S
C1119 C1116 1.499 . S
C1119 C1120 1.373 . S
C1119 C1121 1.389 . S
C1120 H1093 0.950 . S
C1120 C1106 1.377 . S
C1120 C1119 1.373 . S
C1121 C1105 1.377 . S
C1121 C1119 1.389 . S
C1121 C1122 1.524 . S
C1122 C1121 1.524 . S
C1122 C1123 1.397 . S
C1122 C1127 1.363 . S
C1123 H1094 0.950 . S
C1123 C1122 1.397 . S
C1123 C1124 1.334 . S
C1124 H1095 0.950 . S
C1124 C1123 1.334 . S
C1124 C1125 1.287 . S
C1125 C1124 1.287 . S
C1125 C1126 1.524 . S
C1125 H1128 0.999 . S
C1126 H1096 0.950 . S
C1126 C1125 1.524 . S
C1126 C1127 1.415 . S
C1127 H1097 0.950 . S
C1127 C1122 1.363 . S
C1127 C1126 1.415 . S
H1128 C1125 0.999 . S
H1129 C1110 0.913 . S
H1130 C1148 0.951 . S
H1131 C1150 0.951 . S
H1132 C1152 0.950 . S
H1133 C1153 0.950 . S
H1134 C1155 0.950 . S
H1135 C1158 0.950 . S
H1136 C1159 0.950 . S
H1137 C1161 0.950 . S
H1138 C1162 0.950 . S
H1139 C1163 0.951 . S
H1140 C1165 0.951 . S
H1141 C1167 0.950 . S
H1142 C1168 0.950 . S
H1143 C1170 0.950 . S
H1144 C1173 0.950 . S
H1145 C1174 0.950 . S
H1146 C1176 0.950 . S
H1147 C1177 0.950 . S
C1148 H1130 0.951 . S
C1148 C1149 1.366 . S
C1148 C1150 1.388 . S
C1149 C1148 1.366 . S
C1149 C1153 1.385 . S
C1150 H1131 0.951 . S
C1150 C1148 1.388 . S
C1150 C1151 1.366 . S
C1151 C1150 1.366 . S
C1151 C1152 1.414 . S
C1151 C1154 1.499 . S
C1152 H1132 0.950 . S
C1152 C1151 1.414 . S
C1152 C1153 1.374 . S
C1153 H1133 0.950 . S
C1153 C1149 1.385 . S
C1153 C1152 1.374 . S
C1154 C1151 1.499 . S
C1154 C1155 1.373 . S
C1154 C1156 1.389 . S
C1155 H1134 0.950 . S
C1155 C1154 1.373 . S
C1155 C1171 1.377 . S
C1156 C1154 1.389 . S
C1156 C1157 1.524 . S
C1156 C1170 1.377 . S
C1157 C1156 1.524 . S
C1157 C1158 1.397 . S
C1157 C1162 1.363 . S
C1158 H1135 0.950 . S
C1158 C1157 1.397 . S
C1158 C1159 1.334 . S
C1159 H1136 0.950 . S
C1159 C1158 1.334 . S
C1159 C1160 1.287 . S
C1160 C1159 1.287 . S
C1160 C1161 1.524 . S
C1160 H1179 0.913 . S
C1161 H1137 0.950 . S
C1161 C1160 1.524 . S
C1161 C1162 1.415 . S
C1162 H1138 0.950 . S
C1162 C1157 1.363 . S
C1162 C1161 1.415 . S
C1163 H1139 0.951 . S
C1163 C1164 1.366 . S
C1163 C1165 1.388 . S
C1164 C1163 1.366 . S
C1164 C1168 1.385 . S
C1165 H1140 0.951 . S
C1165 C1163 1.388 . S
C1165 C1166 1.366 . S
C1166 C1165 1.366 . S
C1166 C1167 1.414 . S
C1166 C1169 1.499 . S
C1167 H1141 0.950 . S
C1167 C1166 1.414 . S
C1167 C1168 1.374 . S
C1168 H1142 0.950 . S
C1168 C1164 1.385 . S
C1168 C1167 1.374 . S
C1169 C1166 1.499 . S
C1169 C1170 1.373 . S
C1169 C1171 1.389 . S
C1170 H1143 0.950 . S
C1170 C1156 1.377 . S
C1170 C1169 1.373 . S
C1171 C1155 1.377 . S
C1171 C1169 1.389 . S
C1171 C1172 1.524 . S
C1172 C1171 1.524 . S
C1172 C1173 1.397 . S
C1172 C1177 1.363 . S
C1173 H1144 0.950 . S
C1173 C1172 1.397 . S
C1173 C1174 1.334 . S
C1174 H1145 0.950 . S
C1174 C1173 1.334 . S
C1174 C1175 1.287 . S
C1175 C1174 1.287 . S
C1175 C1176 1.524 . S
C1175 H1178 0.999 . S
C1176 H1146 0.950 . S
C1176 C1175 1.524 . S
C1176 C1177 1.415 . S
C1177 H1147 0.950 . S
C1177 C1172 1.363 . S
C1177 C1176 1.415 . S
H1178 C1175 0.999 . S
H1179 C1160 0.913 . S
H1180 C1198 0.951 . S
H1181 C1200 0.951 . S
H1182 C1202 0.950 1_545 S
H1183 C1203 0.950 . S
H1184 C1205 0.950 . S
H1185 C1208 0.950 . S
H1186 C1209 0.950 . S
H1187 C1211 0.950 . S
H1188 C1212 0.950 . S
H1189 C1213 0.951 . S
H1190 C1215 0.951 . S
H1191 C1217 0.950 . S
H1192 C1218 0.950 . S
H1193 C1220 0.950 . S
H1194 C1223 0.950 . S
H1195 C1224 0.950 . S
H1196 C1226 0.950 . S
H1197 C1227 0.950 . S
C1198 H1180 0.951 . S
C1198 C1199 1.366 . S
C1198 C1200 1.388 . S
C1199 C1198 1.366 . S
C1199 C1203 1.385 1_565 S
C1200 H1181 0.951 . S
C1200 C1198 1.388 . S
C1200 C1201 1.366 . S
C1201 C1200 1.366 . S
C1201 C1202 1.414 . S
C1201 C1204 1.499 . S
C1202 H1182 0.950 1_565 S
C1202 C1201 1.414 . S
C1202 C1203 1.374 1_565 S
C1203 H1183 0.950 . S
C1203 C1199 1.385 1_545 S
C1203 C1202 1.374 1_545 S
C1204 C1201 1.499 . S
C1204 C1205 1.373 . S
C1204 C1206 1.389 . S
C1205 H1184 0.950 . S
C1205 C1204 1.373 . S
C1205 C1221 1.377 . S
C1206 C1204 1.389 . S
C1206 C1207 1.524 . S
C1206 C1220 1.377 . S
C1207 C1206 1.524 . S
C1207 C1208 1.397 . S
C1207 C1212 1.363 . S
C1208 H1185 0.950 . S
C1208 C1207 1.397 . S
C1208 C1209 1.334 . S
C1209 H1186 0.950 . S
C1209 C1208 1.334 . S
C1209 C1210 1.287 . S
C1210 C1209 1.287 . S
C1210 C1211 1.524 . S
C1210 H1229 0.913 . S
C1211 H1187 0.950 . S
C1211 C1210 1.524 . S
C1211 C1212 1.415 . S
C1212 H1188 0.950 . S
C1212 C1207 1.363 . S
C1212 C1211 1.415 . S
C1213 H1189 0.951 . S
C1213 C1214 1.366 . S
C1213 C1215 1.388 . S
C1214 C1213 1.366 . S
C1214 C1218 1.385 . S
C1215 H1190 0.951 . S
C1215 C1213 1.388 . S
C1215 C1216 1.366 . S
C1216 C1215 1.366 . S
C1216 C1217 1.414 . S
C1216 C1219 1.499 . S
C1217 H1191 0.950 . S
C1217 C1216 1.414 . S
C1217 C1218 1.374 . S
C1218 H1192 0.950 . S
C1218 C1214 1.385 . S
C1218 C1217 1.374 . S
C1219 C1216 1.499 . S
C1219 C1220 1.373 . S
C1219 C1221 1.389 . S
C1220 H1193 0.950 . S
C1220 C1206 1.377 . S
C1220 C1219 1.373 . S
C1221 C1205 1.377 . S
C1221 C1219 1.389 . S
C1221 C1222 1.524 . S
C1222 C1221 1.524 . S
C1222 C1223 1.397 . S
C1222 C1227 1.363 . S
C1223 H1194 0.950 . S
C1223 C1222 1.397 . S
C1223 C1224 1.334 . S
C1224 H1195 0.950 . S
C1224 C1223 1.334 . S
C1224 C1225 1.287 . S
C1225 C1224 1.287 . S
C1225 C1226 1.524 . S
C1225 H1228 0.999 . S
C1226 H1196 0.950 . S
C1226 C1225 1.524 . S
C1226 C1227 1.415 . S
C1227 H1197 0.950 . S
C1227 C1222 1.363 . S
C1227 C1226 1.415 . S
H1228 C1225 0.999 . S
H1229 C1210 0.913 . S
H1230 C1248 0.951 . S
H1231 C1250 0.951 . S
H1232 C1252 0.950 . S
H1233 C1253 0.950 . S
H1234 C1255 0.950 . S
H1235 C1258 0.950 . S
H1236 C1259 0.950 . S
H1237 C1261 0.950 . S
H1238 C1262 0.950 . S
H1239 C1263 0.951 . S
H1240 C1265 0.951 . S
H1241 C1267 0.950 . S
H1242 C1268 0.950 . S
H1243 C1270 0.950 . S
H1244 C1273 0.950 . S
H1245 C1274 0.950 . S
H1246 C1276 0.950 . S
H1247 C1277 0.950 . S
C1248 H1230 0.951 . S
C1248 C1249 1.366 . S
C1248 C1250 1.388 . S
C1249 C1248 1.366 . S
C1249 C1253 1.385 . S
C1250 H1231 0.951 . S
C1250 C1248 1.388 . S
C1250 C1251 1.366 . S
C1251 C1250 1.366 . S
C1251 C1252 1.414 . S
C1251 C1254 1.499 . S
C1252 H1232 0.950 . S
C1252 C1251 1.414 . S
C1252 C1253 1.374 . S
C1253 H1233 0.950 . S
C1253 C1249 1.385 . S
C1253 C1252 1.374 . S
C1254 C1251 1.499 . S
C1254 C1255 1.373 . S
C1254 C1256 1.389 . S
C1255 H1234 0.950 . S
C1255 C1254 1.373 . S
C1255 C1271 1.377 . S
C1256 C1254 1.389 . S
C1256 C1257 1.524 1_545 S
C1256 C1270 1.377 . S
C1257 C1256 1.524 1_565 S
C1257 C1258 1.397 . S
C1257 C1262 1.363 . S
C1258 H1235 0.950 . S
C1258 C1257 1.397 . S
C1258 C1259 1.334 . S
C1259 H1236 0.950 . S
C1259 C1258 1.334 . S
C1259 C1260 1.287 . S
C1260 C1259 1.287 . S
C1260 C1261 1.524 . S
C1260 H1279 0.913 . S
C1261 H1237 0.950 . S
C1261 C1260 1.524 . S
C1261 C1262 1.415 . S
C1262 H1238 0.950 . S
C1262 C1257 1.363 . S
C1262 C1261 1.415 . S
C1263 H1239 0.951 . S
C1263 C1264 1.366 . S
C1263 C1265 1.388 . S
C1264 C1263 1.366 . S
C1264 C1268 1.385 . S
C1265 H1240 0.951 . S
C1265 C1263 1.388 . S
C1265 C1266 1.366 . S
C1266 C1265 1.366 . S
C1266 C1267 1.414 . S
C1266 C1269 1.499 . S
C1267 H1241 0.950 . S
C1267 C1266 1.414 . S
C1267 C1268 1.374 . S
C1268 H1242 0.950 . S
C1268 C1264 1.385 . S
C1268 C1267 1.374 . S
C1269 C1266 1.499 . S
C1269 C1270 1.373 . S
C1269 C1271 1.389 . S
C1270 H1243 0.950 . S
C1270 C1256 1.377 . S
C1270 C1269 1.373 . S
C1271 C1255 1.377 . S
C1271 C1269 1.389 . S
C1271 C1272 1.524 . S
C1272 C1271 1.524 . S
C1272 C1273 1.397 . S
C1272 C1277 1.363 . S
C1273 H1244 0.950 . S
C1273 C1272 1.397 . S
C1273 C1274 1.334 . S
C1274 H1245 0.950 . S
C1274 C1273 1.334 . S
C1274 C1275 1.287 . S
C1275 C1274 1.287 . S
C1275 C1276 1.524 . S
C1275 H1278 0.999 . S
C1276 H1246 0.950 . S
C1276 C1275 1.524 . S
C1276 C1277 1.415 . S
C1277 H1247 0.950 . S
C1277 C1272 1.363 . S
C1277 C1276 1.415 . S
H1278 C1275 0.999 . S
H1279 C1260 0.913 . S
H1280 C1298 0.951 . S
H1281 C1300 0.951 . S
H1282 C1302 0.950 . S
H1283 C1303 0.950 . S
H1284 C1305 0.950 . S
H1285 C1308 0.950 . S
H1286 C1309 0.950 . S
H1287 C1311 0.950 . S
H1288 C1312 0.950 . S
H1289 C1313 0.951 . S
H1290 C1315 0.951 . S
H1291 C1317 0.950 . S
H1292 C1318 0.950 . S
H1293 C1320 0.950 . S
H1294 C1323 0.950 1_655 S
H1295 C1324 0.950 . S
H1296 C1326 0.950 . S
H1297 C1327 0.950 . S
C1298 H1280 0.951 . S
C1298 C1299 1.366 . S
C1298 C1300 1.388 . S
C1299 C1298 1.366 . S
C1299 C1303 1.385 . S
C1300 H1281 0.951 . S
C1300 C1298 1.388 . S
C1300 C1301 1.366 . S
C1301 C1300 1.366 . S
C1301 C1302 1.414 . S
C1301 C1304 1.499 . S
C1302 H1282 0.950 . S
C1302 C1301 1.414 . S
C1302 C1303 1.374 . S
C1303 H1283 0.950 . S
C1303 C1299 1.385 . S
C1303 C1302 1.374 . S
C1304 C1301 1.499 . S
C1304 C1305 1.373 . S
C1304 C1306 1.389 . S
C1305 H1284 0.950 . S
C1305 C1304 1.373 . S
C1305 C1321 1.377 . S
C1306 C1304 1.389 . S
C1306 C1307 1.524 . S
C1306 C1320 1.377 . S
C1307 C1306 1.524 . S
C1307 C1308 1.397 . S
C1307 C1312 1.363 . S
C1308 H1285 0.950 . S
C1308 C1307 1.397 . S
C1308 C1309 1.334 . S
C1309 H1286 0.950 . S
C1309 C1308 1.334 . S
C1309 C1310 1.287 . S
C1310 C1309 1.287 . S
C1310 C1311 1.524 . S
C1310 H1329 0.913 . S
C1311 H1287 0.950 . S
C1311 C1310 1.524 . S
C1311 C1312 1.415 . S
C1312 H1288 0.950 . S
C1312 C1307 1.363 . S
C1312 C1311 1.415 . S
C1313 H1289 0.951 . S
C1313 C1314 1.366 . S
C1313 C1315 1.388 . S
C1314 C1313 1.366 . S
C1314 C1318 1.385 . S
C1315 H1290 0.951 . S
C1315 C1313 1.388 . S
C1315 C1316 1.366 . S
C1316 C1315 1.366 . S
C1316 C1317 1.414 . S
C1316 C1319 1.499 . S
C1317 H1291 0.950 . S
C1317 C1316 1.414 . S
C1317 C1318 1.374 . S
C1318 H1292 0.950 . S
C1318 C1314 1.385 . S
C1318 C1317 1.374 . S
C1319 C1316 1.499 . S
C1319 C1320 1.373 . S
C1319 C1321 1.389 . S
C1320 H1293 0.950 . S
C1320 C1306 1.377 . S
C1320 C1319 1.373 . S
C1321 C1305 1.377 . S
C1321 C1319 1.389 . S
C1321 C1322 1.524 . S
C1322 C1321 1.524 . S
C1322 C1323 1.397 1_655 S
C1322 C1327 1.363 . S
C1323 H1294 0.950 1_455 S
C1323 C1322 1.397 1_455 S
C1323 C1324 1.334 . S
C1324 H1295 0.950 . S
C1324 C1323 1.334 . S
C1324 C1325 1.287 . S
C1325 C1324 1.287 . S
C1325 C1326 1.524 . S
C1325 H1328 0.999 . S
C1326 H1296 0.950 . S
C1326 C1325 1.524 . S
C1326 C1327 1.415 1_455 S
C1327 H1297 0.950 . S
C1327 C1322 1.363 . S
C1327 C1326 1.415 1_655 S
H1328 C1325 0.999 . S
H1329 C1310 0.913 . S
H1330 C1348 0.951 . S
H1331 C1350 0.951 . S
H1332 C1352 0.950 . S
H1333 C1353 0.950 . S
H1334 C1355 0.950 . S
H1335 C1358 0.950 . S
H1336 C1359 0.950 . S
H1337 C1361 0.950 . S
H1338 C1362 0.950 . S
H1339 C1363 0.951 . S
H1340 C1365 0.951 . S
H1341 C1367 0.950 . S
H1342 C1368 0.950 . S
H1343 C1370 0.950 . S
H1344 C1373 0.950 . S
H1345 C1374 0.950 . S
H1346 C1376 0.950 . S
H1347 C1377 0.950 . S
C1348 H1330 0.951 . S
C1348 C1349 1.366 . S
C1348 C1350 1.388 . S
C1349 C1348 1.366 . S
C1349 C1353 1.385 . S
C1350 H1331 0.951 . S
C1350 C1348 1.388 . S
C1350 C1351 1.366 . S
C1351 C1350 1.366 . S
C1351 C1352 1.414 . S
C1351 C1354 1.499 . S
C1352 H1332 0.950 . S
C1352 C1351 1.414 . S
C1352 C1353 1.374 . S
C1353 H1333 0.950 . S
C1353 C1349 1.385 . S
C1353 C1352 1.374 . S
C1354 C1351 1.499 . S
C1354 C1355 1.373 . S
C1354 C1356 1.389 . S
C1355 H1334 0.950 . S
C1355 C1354 1.373 . S
C1355 C1371 1.377 . S
C1356 C1354 1.389 . S
C1356 C1357 1.524 . S
C1356 C1370 1.377 . S
C1357 C1356 1.524 . S
C1357 C1358 1.397 . S
C1357 C1362 1.363 . S
C1358 H1335 0.950 . S
C1358 C1357 1.397 . S
C1358 C1359 1.334 . S
C1359 H1336 0.950 . S
C1359 C1358 1.334 . S
C1359 C1360 1.287 . S
C1360 C1359 1.287 . S
C1360 C1361 1.524 . S
C1360 H1379 0.913 . S
C1361 H1337 0.950 . S
C1361 C1360 1.524 . S
C1361 C1362 1.415 . S
C1362 H1338 0.950 . S
C1362 C1357 1.363 . S
C1362 C1361 1.415 . S
C1363 H1339 0.951 . S
C1363 C1364 1.366 . S
C1363 C1365 1.388 . S
C1364 C1363 1.366 . S
C1364 C1368 1.385 . S
C1365 H1340 0.951 . S
C1365 C1363 1.388 . S
C1365 C1366 1.366 . S
C1366 C1365 1.366 . S
C1366 C1367 1.414 . S
C1366 C1369 1.499 . S
C1367 H1341 0.950 . S
C1367 C1366 1.414 . S
C1367 C1368 1.374 . S
C1368 H1342 0.950 . S
C1368 C1364 1.385 . S
C1368 C1367 1.374 . S
C1369 C1366 1.499 . S
C1369 C1370 1.373 . S
C1369 C1371 1.389 . S
C1370 H1343 0.950 . S
C1370 C1356 1.377 . S
C1370 C1369 1.373 . S
C1371 C1355 1.377 . S
C1371 C1369 1.389 . S
C1371 C1372 1.524 . S
C1372 C1371 1.524 . S
C1372 C1373 1.397 . S
C1372 C1377 1.363 . S
C1373 H1344 0.950 . S
C1373 C1372 1.397 . S
C1373 C1374 1.334 . S
C1374 H1345 0.950 . S
C1374 C1373 1.334 . S
C1374 C1375 1.287 . S
C1375 C1374 1.287 . S
C1375 C1376 1.524 . S
C1375 H1378 0.999 . S
C1376 H1346 0.950 . S
C1376 C1375 1.524 . S
C1376 C1377 1.415 . S
C1377 H1347 0.950 . S
C1377 C1372 1.363 . S
C1377 C1376 1.415 . S
H1378 C1375 0.999 . S
H1379 C1360 0.913 . S
H1380 C1398 0.951 . S
H1381 C1400 0.951 . S
H1382 C1402 0.950 . S
H1383 C1403 0.950 . S
H1384 C1405 0.950 . S
H1385 C1408 0.950 . S
H1386 C1409 0.950 . S
H1387 C1411 0.950 . S
H1388 C1412 0.950 . S
H1389 C1413 0.951 . S
H1390 C1415 0.951 . S
H1391 C1417 0.950 . S
H1392 C1418 0.950 . S
H1393 C1420 0.950 . S
H1394 C1423 0.950 . S
H1395 C1424 0.950 . S
H1396 C1426 0.950 . S
H1397 C1427 0.950 . S
C1398 H1380 0.951 . S
C1398 C1399 1.366 . S
C1398 C1400 1.388 . S
C1399 C1398 1.366 . S
C1399 C1403 1.385 . S
C1400 H1381 0.951 . S
C1400 C1398 1.388 . S
C1400 C1401 1.366 . S
C1401 C1400 1.366 . S
C1401 C1402 1.414 . S
C1401 C1404 1.499 . S
C1402 H1382 0.950 . S
C1402 C1401 1.414 . S
C1402 C1403 1.374 . S
C1403 H1383 0.950 . S
C1403 C1399 1.385 . S
C1403 C1402 1.374 . S
C1404 C1401 1.499 . S
C1404 C1405 1.373 . S
C1404 C1406 1.389 . S
C1405 H1384 0.950 . S
C1405 C1404 1.373 . S
C1405 C1421 1.377 . S
C1406 C1404 1.389 . S
C1406 C1407 1.524 . S
C1406 C1420 1.377 . S
C1407 C1406 1.524 . S
C1407 C1408 1.397 . S
C1407 C1412 1.363 . S
C1408 H1385 0.950 . S
C1408 C1407 1.397 . S
C1408 C1409 1.334 . S
C1409 H1386 0.950 . S
C1409 C1408 1.334 . S
C1409 C1410 1.287 . S
C1410 C1409 1.287 . S
C1410 C1411 1.524 . S
C1410 H1429 0.913 . S
C1411 H1387 0.950 . S
C1411 C1410 1.524 . S
C1411 C1412 1.415 . S
C1412 H1388 0.950 . S
C1412 C1407 1.363 . S
C1412 C1411 1.415 . S
C1413 H1389 0.951 . S
C1413 C1414 1.366 . S
C1413 C1415 1.388 . S
C1414 C1413 1.366 . S
C1414 C1418 1.385 . S
C1415 H1390 0.951 . S
C1415 C1413 1.388 . S
C1415 C1416 1.366 . S
C1416 C1415 1.366 . S
C1416 C1417 1.414 . S
C1416 C1419 1.499 . S
C1417 H1391 0.950 . S
C1417 C1416 1.414 . S
C1417 C1418 1.374 . S
C1418 H1392 0.950 . S
C1418 C1414 1.385 . S
C1418 C1417 1.374 . S
C1419 C1416 1.499 . S
C1419 C1420 1.373 . S
C1419 C1421 1.389 . S
C1420 H1393 0.950 . S
C1420 C1406 1.377 . S
C1420 C1419 1.373 . S
C1421 C1405 1.377 . S
C1421 C1419 1.389 . S
C1421 C1422 1.524 . S
C1422 C1421 1.524 . S
C1422 C1423 1.397 . S
C1422 C1427 1.363 . S
C1423 H1394 0.950 . S
C1423 C1422 1.397 . S
C1423 C1424 1.334 . S
C1424 H1395 0.950 . S
C1424 C1423 1.334 . S
C1424 C1425 1.287 . S
C1425 C1424 1.287 . S
C1425 C1426 1.524 . S
C1425 H1428 0.999 . S
C1426 H1396 0.950 . S
C1426 C1425 1.524 . S
C1426 C1427 1.415 . S
C1427 H1397 0.950 . S
C1427 C1422 1.363 . S
C1427 C1426 1.415 . S
H1428 C1425 0.999 . S
H1429 C1410 0.913 . S
H1430 C1448 0.951 . S
H1431 C1450 0.951 . S
H1432 C1452 0.950 . S
H1433 C1453 0.950 . S
H1434 C1455 0.950 . S
H1435 C1458 0.950 . S
H1436 C1459 0.950 . S
H1437 C1461 0.950 . S
H1438 C1462 0.950 . S
H1439 C1463 0.951 . S
H1440 C1465 0.951 . S
H1441 C1467 0.950 . S
H1442 C1468 0.950 . S
H1443 C1470 0.933 1_565 S
H1444 C1473 0.950 . S
H1445 C1474 0.950 . S
H1446 C1476 0.950 . S
H1447 C1477 0.950 . S
C1448 H1430 0.951 . S
C1448 C1449 1.366 . S
C1448 C1450 1.388 . S
C1449 C1448 1.366 . S
C1449 C1453 1.385 . S
C1450 H1431 0.951 . S
C1450 C1448 1.388 . S
C1450 C1451 1.366 . S
C1451 C1450 1.366 . S
C1451 C1452 1.414 . S
C1451 C1454 1.499 . S
C1452 H1432 0.950 . S
C1452 C1451 1.414 . S
C1452 C1453 1.374 . S
C1453 H1433 0.950 . S
C1453 C1449 1.385 . S
C1453 C1452 1.374 . S
C1454 C1451 1.499 . S
C1454 C1455 1.373 1_565 S
C1454 C1456 1.389 . S
C1455 H1434 0.950 . S
C1455 C1454 1.373 1_545 S
C1455 C1471 1.377 . S
C1456 C1454 1.389 . S
C1456 C1457 1.524 . S
C1456 C1470 1.360 1_565 S
C1457 C1456 1.524 . S
C1457 C1458 1.397 . S
C1457 C1462 1.363 . S
C1458 H1435 0.950 . S
C1458 C1457 1.397 . S
C1458 C1459 1.334 . S
C1459 H1436 0.950 . S
C1459 C1458 1.334 . S
C1459 C1460 1.287 . S
C1460 C1459 1.287 . S
C1460 C1461 1.524 . S
C1460 H1479 0.913 . S
C1461 H1437 0.950 . S
C1461 C1460 1.524 . S
C1461 C1462 1.415 . S
C1462 H1438 0.950 . S
C1462 C1457 1.363 . S
C1462 C1461 1.415 . S
C1463 H1439 0.951 . S
C1463 C1464 1.366 . S
C1463 C1465 1.388 . S
C1464 C1463 1.366 . S
C1464 C1468 1.385 . S
C1465 H1440 0.951 . S
C1465 C1463 1.388 . S
C1465 C1466 1.366 . S
C1466 C1465 1.366 . S
C1466 C1467 1.414 . S
C1466 C1469 1.499 . S
C1467 H1441 0.950 . S
C1467 C1466 1.414 . S
C1467 C1468 1.374 . S
C1468 H1442 0.950 . S
C1468 C1464 1.385 . S
C1468 C1467 1.374 . S
C1469 C1466 1.499 . S
C1469 C1470 1.408 . S
C1469 C1471 1.389 . S
C1470 H1443 0.933 1_545 S
C1470 C1456 1.360 1_545 S
C1470 C1469 1.408 . S
C1471 C1455 1.377 . S
C1471 C1469 1.389 . S
C1471 C1472 1.524 . S
C1472 C1471 1.524 . S
C1472 C1473 1.397 . S
C1472 C1477 1.363 . S
C1473 H1444 0.950 . S
C1473 C1472 1.397 . S
C1473 C1474 1.334 . S
C1474 H1445 0.950 . S
C1474 C1473 1.334 . S
C1474 C1475 1.287 . S
C1475 C1474 1.287 . S
C1475 C1476 1.524 . S
C1475 H1478 0.999 . S
C1476 H1446 0.950 . S
C1476 C1475 1.524 . S
C1476 C1477 1.415 . S
C1477 H1447 0.950 . S
C1477 C1472 1.363 . S
C1477 C1476 1.415 . S
H1478 C1475 0.999 . S
H1479 C1460 0.913 . S
H1480 C1498 0.951 . S
H1481 C1500 0.951 . S
H1482 C1502 0.950 1_455 S
H1483 C1503 0.950 . S
H1484 C1505 0.950 . S
H1485 C1508 0.950 . S
H1486 C1509 0.950 . S
H1487 C1511 0.950 . S
H1488 C1512 0.950 . S
H1489 C1513 0.951 . S
H1490 C1515 0.951 . S
H1491 C1517 0.950 . S
H1492 C1518 0.950 . S
H1493 C1520 0.950 1_655 S
H1494 C1523 0.950 . S
H1495 C1524 0.950 . S
H1496 C1526 0.950 . S
H1497 C1527 0.950 . S
C1498 H1480 0.951 . S
C1498 C1499 1.366 . S
C1498 C1500 1.388 . S
C1499 C1498 1.366 . S
C1499 C1503 1.385 . S
C1500 H1481 0.951 . S
C1500 C1498 1.388 . S
C1500 C1501 1.366 . S
C1501 C1500 1.366 . S
C1501 C1502 1.414 . S
C1501 C1504 1.499 . S
C1502 H1482 0.950 1_655 S
C1502 C1501 1.414 . S
C1502 C1503 1.374 . S
C1503 H1483 0.950 . S
C1503 C1499 1.385 . S
C1503 C1502 1.374 . S
C1504 C1501 1.499 . S
C1504 C1505 1.373 1_655 S
C1504 C1506 1.389 . S
C1505 H1484 0.950 . S
C1505 C1504 1.373 1_455 S
C1505 C1521 1.377 . S
C1506 C1504 1.389 . S
C1506 C1507 1.524 . S
C1506 C1520 1.377 1_655 S
C1507 C1506 1.524 . S
C1507 C1508 1.397 . S
C1507 C1512 1.363 . S
C1508 H1485 0.950 . S
C1508 C1507 1.397 . S
C1508 C1509 1.334 . S
C1509 H1486 0.950 . S
C1509 C1508 1.334 . S
C1509 C1510 1.287 . S
C1510 C1509 1.287 . S
C1510 C1511 1.524 . S
C1510 H1529 0.913 . S
C1511 H1487 0.950 . S
C1511 C1510 1.524 . S
C1511 C1512 1.415 . S
C1512 H1488 0.950 . S
C1512 C1507 1.363 . S
C1512 C1511 1.415 . S
C1513 H1489 0.951 . S
C1513 C1514 1.366 . S
C1513 C1515 1.388 . S
C1514 C1513 1.366 . S
C1514 C1518 1.385 . S
C1515 H1490 0.951 . S
C1515 C1513 1.388 . S
C1515 C1516 1.366 . S
C1516 C1515 1.366 . S
C1516 C1517 1.414 . S
C1516 C1519 1.499 . S
C1517 H1491 0.950 . S
C1517 C1516 1.414 . S
C1517 C1518 1.374 . S
C1518 H1492 0.950 . S
C1518 C1514 1.385 . S
C1518 C1517 1.374 . S
C1519 C1516 1.499 . S
C1519 C1520 1.373 . S
C1519 C1521 1.389 . S
C1520 H1493 0.950 1_455 S
C1520 C1506 1.377 1_455 S
C1520 C1519 1.373 . S
C1521 C1505 1.377 . S
C1521 C1519 1.389 . S
C1521 C1522 1.524 . S
C1522 C1521 1.524 . S
C1522 C1523 1.397 . S
C1522 C1527 1.363 . S
C1523 H1494 0.950 . S
C1523 C1522 1.397 . S
C1523 C1524 1.334 . S
C1524 H1495 0.950 . S
C1524 C1523 1.334 . S
C1524 C1525 1.287 . S
C1525 C1524 1.287 . S
C1525 C1526 1.524 . S
C1525 H1528 0.999 . S
C1526 H1496 0.950 . S
C1526 C1525 1.524 . S
C1526 C1527 1.415 . S
C1527 H1497 0.950 . S
C1527 C1522 1.363 . S
C1527 C1526 1.415 . S
H1528 C1525 0.999 . S
H1529 C1510 0.913 . S
C199 C32 1.040 . S
C214 C9 0.973 . S
C249 C42 1.230 . S
C264 C24 1.098 . S
C299 C49 1.047 . S
C314 C2 1.099 . S
C349 C44 1.209 . S
C364 C22 1.343 . S
C399 C52 1.234 . S
C414 C4 1.082 . S
C449 C12 1.088 . S
C464 C29 1.017 . S
C499 C69 1.199 . S
C514 C82 1.280 . S
C549 C102 0.981 . S
C564 C89 0.937 1_545 S
C599 C109 1.077 1_655 S
C614 C62 1.131 . S
C649 C92 1.077 . S
C664 C104 0.971 . S
C699 C112 1.194 . S
C714 C64 1.050 . S
C749 C84 1.194 . S
C764 C72 1.356 . S
C799 C152 0.982 . S
C814 C129 0.927 . S
C849 C144 1.109 . S
C864 C162 1.233 . S
C899 C169 1.039 . S
C914 C122 1.092 . S
C949 C164 1.166 . S
C964 C142 1.288 . S
C999 C172 1.226 . S
C1014 C124 1.079 . S
C1049 C132 1.094 . S
C1064 C149 1.022 1_455 S
C1099 C119 2.239 . S
C1114 C18 2.178 . S
C1149 C79 2.190 . S
C1164 C39 2.189 . S
C1199 C58 2.293 1_565 S
C1214 C99 2.362 . S
C1249 C59 2.249 . S
C1264 C138 2.175 . S
C1299 C19 2.118 1_655 S
C1314 C159 2.120 . S
C1349 C178 2.294 . S
C1364 C38 2.292 . S
C1399 C78 2.190 . S
C1414 C179 2.251 . S
C1449 C98 2.063 . S
C1464 C139 2.122 . S
C1499 C158 2.227 . S
C1514 C118 2.225 . S
