# Generated by pormake.
# Topology ukf, (4)-cn, num edge types: 1
# Building blocks:
#     Node 0, Type 0, BuildingBlock: KUFVIS_clean_sbu_0, # of connection points: 4
#     Node 1, Type 0, BuildingBlock: KUFVIS_clean_sbu_0, # of connection points: 4
#     Node 2, Type 0, BuildingBlock: KUFVIS_clean_sbu_0, # of connection points: 4
#     Node 3, Type 0, BuildingBlock: KUFVIS_clean_sbu_0, # of connection points: 4
#     Node 4, Type 0, BuildingBlock: KUFVIS_clean_sbu_0, # of connection points: 4
#     Node 5, Type 0, BuildingBlock: KUFVIS_clean_sbu_0, # of connection points: 4
#     Node 6, Type 0, BuildingBlock: KUFVIS_clean_sbu_0, # of connection points: 4
#     Node 7, Type 0, BuildingBlock: KUFVIS_clean_sbu_0, # of connection points: 4
#     Node 8, Type 0, BuildingBlock: KUFVIS_clean_sbu_0, # of connection points: 4
#     Node 9, Type 0, BuildingBlock: KUFVIS_clean_sbu_0, # of connection points: 4
#     Node 10, Type 0, BuildingBlock: KUFVIS_clean_sbu_0, # of connection points: 4
#     Node 11, Type 0, BuildingBlock: KUFVIS_clean_sbu_0, # of connection points: 4
#     Edge 12, Type (0, 0), BuildingBlock: XUDNAN_clean_linker_2, # of connection points: 2
#     Edge 13, Type (0, 0), BuildingBlock: XUDNAN_clean_linker_2, # of connection points: 2
#     Edge 14, Type (0, 0), BuildingBlock: XUDNAN_clean_linker_2, # of connection points: 2
#     Edge 15, Type (0, 0), BuildingBlock: XUDNAN_clean_linker_2, # of connection points: 2
#     Edge 16, Type (0, 0), BuildingBlock: XUDNAN_clean_linker_2, # of connection points: 2
#     Edge 17, Type (0, 0), BuildingBlock: XUDNAN_clean_linker_2, # of connection points: 2
#     Edge 18, Type (0, 0), BuildingBlock: XUDNAN_clean_linker_2, # of connection points: 2
#     Edge 19, Type (0, 0), BuildingBlock: XUDNAN_clean_linker_2, # of connection points: 2
#     Edge 20, Type (0, 0), BuildingBlock: XUDNAN_clean_linker_2, # of connection points: 2
#     Edge 21, Type (0, 0), BuildingBlock: XUDNAN_clean_linker_2, # of connection points: 2
#     Edge 22, Type (0, 0), BuildingBlock: XUDNAN_clean_linker_2, # of connection points: 2
#     Edge 23, Type (0, 0), BuildingBlock: XUDNAN_clean_linker_2, # of connection points: 2
#     Edge 24, Type (0, 0), BuildingBlock: XUDNAN_clean_linker_2, # of connection points: 2
#     Edge 25, Type (0, 0), BuildingBlock: XUDNAN_clean_linker_2, # of connection points: 2
#     Edge 26, Type (0, 0), BuildingBlock: XUDNAN_clean_linker_2, # of connection points: 2
#     Edge 27, Type (0, 0), BuildingBlock: XUDNAN_clean_linker_2, # of connection points: 2
#     Edge 28, Type (0, 0), BuildingBlock: XUDNAN_clean_linker_2, # of connection points: 2
#     Edge 29, Type (0, 0), BuildingBlock: XUDNAN_clean_linker_2, # of connection points: 2
#     Edge 30, Type (0, 0), BuildingBlock: XUDNAN_clean_linker_2, # of connection points: 2
#     Edge 31, Type (0, 0), BuildingBlock: XUDNAN_clean_linker_2, # of connection points: 2
#     Edge 32, Type (0, 0), BuildingBlock: XUDNAN_clean_linker_2, # of connection points: 2
#     Edge 33, Type (0, 0), BuildingBlock: XUDNAN_clean_linker_2, # of connection points: 2
#     Edge 34, Type (0, 0), BuildingBlock: XUDNAN_clean_linker_2, # of connection points: 2
#     Edge 35, Type (0, 0), BuildingBlock: XUDNAN_clean_linker_2, # of connection points: 2
# Relax obj value: 0.098
# Max RMSD: 0.095
# Mean RMSD: 0.095
data_MOF--net-ukf--node1-KUFVIS_clean_sbu_0--edge1-XUDNAN_clean_linker_2
_symmetry_space_group_name_H-M    P1
_symmetry_Int_Tables_number       1
_symmetry_cell_setting            triclinic
loop_
_symmetry_equiv_pos_as_xyz
'x, y, z'
_cell_length_a     32.499016
_cell_length_b     32.591652
_cell_length_c     63.130057
_cell_angle_alpha  89.980601
_cell_angle_beta   90.026078
_cell_angle_gamma 119.93969
loop_
_atom_site_label
_atom_site_type_symbol
_atom_site_fract_x
_atom_site_fract_y
_atom_site_fract_z
_atom_type_partial_charge
Mn0 Mn 0.42526 0.24639 0.04674 0.0
Mn1 Mn 0.514 0.30612 0.08152 0.0
C2 C 0.50373 0.27417 0.03601 0.0
C3 C 0.36929 0.17393 0.03151 0.0
C4 C 0.46501 0.35101 0.05818 0.0
O5 O 0.38987 0.22836 0.07497 0.0
O6 O 0.45256 0.26963 0.09631 0.0
C7 C 0.51061 0.22255 0.10179 0.0
N8 N 0.53561 0.26499 0.09172 0.0
C9 C 0.60879 0.26446 0.09618 0.0
C10 C 0.58391 0.22076 0.10663 0.0
C11 C 0.53453 0.19955 0.1093 0.0
C12 C 0.5828 0.28495 0.08847 0.0
H13 H 0.47276 0.20651 0.10415 0.0
C14 C 0.40825 0.242 0.09324 0.0
O15 O 0.36367 0.21071 0.03072 0.0
O16 O 0.40634 0.1791 0.04149 0.0
N17 N 0.57657 0.34401 0.07046 0.0
C18 C 0.5956 0.3876 0.06126 0.0
C19 C 0.64493 0.41478 0.05841 0.0
C20 C 0.67433 0.39755 0.06563 0.0
C21 C 0.65409 0.35306 0.07547 0.0
C22 C 0.60468 0.32739 0.0777 0.0
H23 H 0.57342 0.40185 0.05635 0.0
O24 O 0.4702 0.26614 0.02265 0.0
O25 O 0.49033 0.26689 0.05579 0.0
O26 O 0.43526 0.3141 0.04796 0.0
O27 O 0.49482 0.35116 0.07137 0.0
C28 C 0.68114 0.33354 0.08344 0.0
C29 C 0.65843 0.28892 0.09348 0.0
H30 H 0.60238 0.20334 0.11277 0.0
H31 H 0.51506 0.16586 0.11736 0.0
H32 H 0.66032 0.44925 0.05098 0.0
H33 H 0.71242 0.41883 0.06359 0.0
H34 H 0.71944 0.35248 0.08184 0.0
H35 H 0.67958 0.27415 0.09941 0.0
Mn36 Mn 0.21153 0.41839 0.38542 0.0
Mn37 Mn 0.24074 0.51491 0.41591 0.0
C38 C 0.26849 0.49298 0.37401 0.0
C39 C 0.22502 0.35674 0.37474 0.0
C40 C 0.14939 0.46463 0.3907 0.0
O41 O 0.18744 0.38952 0.41478 0.0
O42 O 0.21233 0.45702 0.43348 0.0
C43 C 0.31646 0.5161 0.44243 0.0
N44 N 0.30166 0.53833 0.42871 0.0
C45 C 0.37642 0.61096 0.43127 0.0
C46 C 0.39245 0.58889 0.44548 0.0
C47 C 0.36238 0.54123 0.45104 0.0
C48 C 0.3302 0.58424 0.42333 0.0
H49 H 0.29336 0.47953 0.44679 0.0
C50 C 0.19266 0.41188 0.43214 0.0
O51 O 0.18428 0.35421 0.37161 0.0
O52 O 0.25658 0.3936 0.38489 0.0
N53 N 0.26906 0.57347 0.40071 0.0
C54 C 0.24981 0.5879 0.38526 0.0
C55 C 0.27627 0.63392 0.37704 0.0
C56 C 0.32205 0.66469 0.38487 0.0
C57 C 0.34099 0.6491 0.40086 0.0
C58 C 0.3129 0.60289 0.40849 0.0
H59 H 0.21464 0.56438 0.37919 0.0
O60 O 0.24567 0.45903 0.36049 0.0
O61 O 0.25665 0.48274 0.39376 0.0
O62 O 0.15673 0.4335 0.38182 0.0
O63 O 0.17809 0.49524 0.40378 0.0
C64 C 0.38719 0.67706 0.40905 0.0
C65 C 0.40487 0.65802 0.42426 0.0
H66 H 0.42795 0.60804 0.45205 0.0
H67 H 0.37456 0.52393 0.46195 0.0
H68 H 0.26146 0.64563 0.36466 0.0
H69 H 0.34254 0.69999 0.37832 0.0
H70 H 0.40978 0.7129 0.40342 0.0
H71 H 0.44076 0.67956 0.43013 0.0
Mn72 Mn 0.77707 0.17754 0.71149 0.0
Mn73 Mn 0.71345 0.20975 0.74209 0.0
C74 C 0.74882 0.22464 0.69655 0.0
C75 C 0.85279 0.19571 0.69905 0.0
C76 C 0.67428 0.11084 0.72371 0.0
O77 O 0.79194 0.16492 0.74156 0.0
O78 O 0.75834 0.20004 0.75969 0.0
C79 C 0.78916 0.30317 0.7574 0.0
N80 N 0.74584 0.27583 0.74835 0.0
C81 C 0.72678 0.33798 0.7515 0.0
C82 C 0.771 0.36674 0.76113 0.0
C83 C 0.80263 0.34948 0.7638 0.0
C84 C 0.71619 0.29286 0.74477 0.0
H85 H 0.81295 0.28955 0.75975 0.0
C86 C 0.78417 0.18073 0.75867 0.0
O87 O 0.81725 0.15253 0.69864 0.0
O88 O 0.84456 0.2272 0.70726 0.0
N89 N 0.66807 0.22102 0.72791 0.0
C90 C 0.62837 0.18999 0.71701 0.0
C91 C 0.59387 0.20249 0.71214 0.0
C92 C 0.59969 0.24598 0.71918 0.0
C93 C 0.64056 0.2771 0.73059 0.0
C94 C 0.67452 0.26346 0.73427 0.0
H95 H 0.62271 0.15574 0.7123 0.0
O96 O 0.75936 0.19807 0.68515 0.0
O97 O 0.75363 0.22147 0.71689 0.0
O98 O 0.70996 0.11902 0.71226 0.0
O99 O 0.67467 0.14101 0.73669 0.0
C100 C 0.64902 0.32115 0.73846 0.0
C101 C 0.69249 0.35193 0.74859 0.0
H102 H 0.78106 0.4021 0.76648 0.0
H103 H 0.83691 0.3715 0.77112 0.0
H104 H 0.56232 0.17818 0.70342 0.0
H105 H 0.5726 0.25513 0.71572 0.0
H106 H 0.62314 0.33243 0.73611 0.0
H107 H 0.69927 0.38631 0.75397 0.0
Mn108 Mn 0.58853 0.78876 0.0485 0.0
Mn109 Mn 0.48683 0.71859 0.07536 0.0
C110 C 0.51596 0.7731 0.03479 0.0
C111 C 0.65151 0.8641 0.03995 0.0
C112 C 0.54129 0.68064 0.05138 0.0
O113 O 0.61261 0.79006 0.07864 0.0
O114 O 0.5419 0.74513 0.09476 0.0
C115 C 0.48194 0.78952 0.10291 0.0
N116 N 0.4618 0.7547 0.08806 0.0
C117 C 0.38901 0.75714 0.08887 0.0
C118 C 0.40895 0.793 0.10421 0.0
C119 C 0.45565 0.80932 0.11121 0.0
C120 C 0.4168 0.73854 0.08128 0.0
H121 H 0.51773 0.80195 0.10841 0.0
C122 C 0.58729 0.77057 0.09509 0.0
O123 O 0.65467 0.82638 0.03678 0.0
O124 O 0.61331 0.85814 0.04916 0.0
N125 N 0.43078 0.69112 0.05825 0.0
C126 C 0.41866 0.65971 0.04198 0.0
C127 C 0.37399 0.64173 0.03235 0.0
C128 C 0.34218 0.65597 0.03963 0.0
C129 C 0.35542 0.68821 0.05645 0.0
C130 C 0.40037 0.70485 0.06546 0.0
H131 H 0.44298 0.64865 0.03636 0.0
O132 O 0.55195 0.78516 0.02234 0.0
O133 O 0.52298 0.76913 0.05476 0.0
O134 O 0.57435 0.71994 0.04408 0.0
O135 O 0.50795 0.67695 0.0632 0.0
C136 C 0.32634 0.70553 0.06423 0.0
C137 C 0.3431 0.73993 0.08045 0.0
H138 H 0.38891 0.80858 0.11056 0.0
H139 H 0.4713 0.83705 0.123 0.0
H140 H 0.36411 0.61701 0.01932 0.0
H141 H 0.30794 0.64237 0.03201 0.0
H142 H 0.29142 0.69336 0.05755 0.0
H143 H 0.32077 0.75362 0.08601 0.0
Mn144 Mn 0.83684 0.59097 0.37549 0.0
Mn145 Mn 0.8057 0.5008 0.40946 0.0
C146 C 0.78777 0.51293 0.36391 0.0
C147 C 0.81838 0.64712 0.36149 0.0
C148 C 0.90337 0.55511 0.38905 0.0
O149 O 0.8533 0.62367 0.40452 0.0
O150 O 0.81855 0.55856 0.42514 0.0
C151 C 0.71407 0.48965 0.4241 0.0
N152 N 0.73942 0.47065 0.41573 0.0
C153 C 0.67095 0.39252 0.4161 0.0
C154 C 0.64425 0.41112 0.42507 0.0
C155 C 0.66581 0.46002 0.42888 0.0
C156 C 0.71857 0.42404 0.4112 0.0
H157 H 0.73057 0.52708 0.42702 0.0
C158 C 0.83872 0.60336 0.42244 0.0
O159 O 0.86125 0.65371 0.36041 0.0
O160 O 0.78736 0.60913 0.37106 0.0
N161 N 0.79151 0.44191 0.39672 0.0
C162 C 0.8221 0.42963 0.38786 0.0
C163 C 0.80646 0.38188 0.38342 0.0
C164 C 0.75989 0.3471 0.38856 0.0
C165 C 0.72899 0.36048 0.39767 0.0
C166 C 0.74646 0.40864 0.40158 0.0
H167 H 0.85845 0.45582 0.38453 0.0
O168 O 0.81148 0.5472 0.35065 0.0
O169 O 0.79402 0.52592 0.38358 0.0
O170 O 0.89457 0.58075 0.37657 0.0
O171 O 0.87432 0.52839 0.40329 0.0
C172 C 0.68162 0.32784 0.40317 0.0
C173 C 0.65238 0.34393 0.41204 0.0
H174 H 0.60718 0.38823 0.42903 0.0
H175 H 0.6454 0.47476 0.43564 0.0
H176 H 0.83051 0.37183 0.37639 0.0
H177 H 0.74811 0.31022 0.38532 0.0
H178 H 0.66711 0.29033 0.40034 0.0
H179 H 0.6158 0.31859 0.41585 0.0
Mn180 Mn 0.22982 0.80972 0.71478 0.0
Mn181 Mn 0.29278 0.77837 0.74701 0.0
C182 C 0.24696 0.75198 0.7041 0.0
C183 C 0.15526 0.79695 0.70351 0.0
C184 C 0.33646 0.87102 0.72253 0.0
O185 O 0.22459 0.83484 0.74378 0.0
O186 O 0.25805 0.8022 0.76425 0.0
C187 C 0.21746 0.698 0.77113 0.0
N188 N 0.25585 0.71567 0.75806 0.0
C189 C 0.25661 0.64219 0.75903 0.0
C190 C 0.21704 0.62326 0.7725 0.0
C191 C 0.19736 0.65129 0.77856 0.0
C192 C 0.27541 0.68916 0.75232 0.0
H193 H 0.20244 0.71945 0.77587 0.0
C194 C 0.2354 0.82474 0.76177 0.0
O195 O 0.19369 0.83728 0.70025 0.0
O196 O 0.16012 0.76563 0.71409 0.0
N197 N 0.32689 0.75394 0.73178 0.0
C198 C 0.36172 0.77578 0.71698 0.0
C199 C 0.38319 0.75149 0.70823 0.0
C200 C 0.36889 0.70514 0.71487 0.0
C201 C 0.33294 0.68336 0.73009 0.0
C202 C 0.31286 0.70934 0.73828 0.0
H203 H 0.37283 0.81134 0.71176 0.0
O204 O 0.23663 0.77481 0.69023 0.0
O205 O 0.24761 0.76404 0.72375 0.0
O206 O 0.29997 0.86291 0.71161 0.0
O207 O 0.33579 0.84305 0.7368 0.0
C208 C 0.31531 0.6364 0.737 0.0
C209 C 0.27726 0.61588 0.75152 0.0
H210 H 0.20118 0.5871 0.77811 0.0
H211 H 0.16678 0.63693 0.78892 0.0
H212 H 0.41063 0.7684 0.69635 0.0
H213 H 0.38528 0.68638 0.70796 0.0
H214 H 0.3301 0.61543 0.73092 0.0
H215 H 0.26344 0.57946 0.7564 0.0
Mn216 Mn 0.78465 0.57321 0.61263 0.0
Mn217 Mn 0.74597 0.48201 0.57837 0.0
C218 C 0.7713 0.50032 0.6239 0.0
C219 C 0.85029 0.63708 0.62917 0.0
C220 C 0.6795 0.50986 0.59932 0.0
O221 O 0.79899 0.60699 0.5842 0.0
O222 O 0.76756 0.54275 0.56306 0.0
C223 C 0.8398 0.51189 0.55897 0.0
N224 N 0.80042 0.47864 0.56934 0.0
C225 C 0.83076 0.42471 0.57011 0.0
C226 C 0.87147 0.45828 0.55933 0.0
C227 C 0.87601 0.50208 0.55377 0.0
C228 C 0.79581 0.43646 0.57485 0.0
H229 H 0.84365 0.54571 0.55471 0.0
C230 C 0.7878 0.58753 0.56602 0.0
O231 O 0.80921 0.63497 0.6288 0.0
O232 O 0.8532 0.6041 0.61922 0.0
N233 N 0.72473 0.42086 0.5906 0.0
C234 C 0.68353 0.39241 0.60111 0.0
C235 C 0.67303 0.34688 0.60736 0.0
C236 C 0.70537 0.33127 0.60309 0.0
C237 C 0.74751 0.36105 0.5922 0.0
C238 C 0.75543 0.40561 0.58584 0.0
H239 H 0.6593 0.40463 0.60505 0.0
O240 O 0.7716 0.53044 0.63736 0.0
O241 O 0.77917 0.51383 0.60424 0.0
O242 O 0.71167 0.54713 0.60883 0.0
O243 O 0.68882 0.48311 0.58786 0.0
C244 C 0.78203 0.34834 0.58746 0.0
C245 C 0.82371 0.38021 0.57649 0.0
H246 H 0.89953 0.45088 0.55533 0.0
H247 H 0.9074 0.52826 0.54552 0.0
H248 H 0.6402 0.32405 0.61559 0.0
H249 H 0.6975 0.2964 0.60825 0.0
H250 H 0.77699 0.31423 0.59229 0.0
H251 H 0.85014 0.37016 0.57306 0.0
Mn252 Mn 0.18775 0.78072 0.95458 0.0
Mn253 Mn 0.21082 0.7076 0.92553 0.0
C254 C 0.22811 0.747 0.97082 0.0
C255 C 0.20884 0.85692 0.96673 0.0
C256 C 0.11487 0.67716 0.94478 0.0
O257 O 0.18002 0.79818 0.92461 0.0
O258 O 0.19565 0.74764 0.9071 0.0
C259 C 0.2991 0.77871 0.90424 0.0
N260 N 0.27461 0.73788 0.91549 0.0
C261 C 0.33493 0.71701 0.90948 0.0
C262 C 0.36106 0.75897 0.89788 0.0
C263 C 0.34326 0.79016 0.89541 0.0
C264 C 0.2918 0.70813 0.9183 0.0
H265 H 0.28469 0.80191 0.90182 0.0
C266 C 0.18473 0.78023 0.90759 0.0
O267 O 0.16482 0.82312 0.96624 0.0
O268 O 0.24015 0.8467 0.95978 0.0
N269 N 0.22594 0.66535 0.9399 0.0
C270 C 0.19872 0.62931 0.95342 0.0
C271 C 0.21227 0.59565 0.9583 0.0
C272 C 0.25284 0.59875 0.94878 0.0
C273 C 0.28015 0.63613 0.93483 0.0
C274 C 0.26546 0.66909 0.93095 0.0
H275 H 0.16652 0.62587 0.96008 0.0
O276 O 0.2023 0.7603 0.98116 0.0
O277 O 0.2286 0.75206 0.95012 0.0
O278 O 0.1248 0.71665 0.9532 0.0
O279 O 0.14455 0.67083 0.93433 0.0
C280 C 0.32228 0.64298 0.92518 0.0
C281 C 0.34998 0.68373 0.91276 0.0
H282 H 0.39485 0.76764 0.89084 0.0
H283 H 0.36315 0.82253 0.88644 0.0
H284 H 0.19101 0.5669 0.96907 0.0
H285 H 0.26301 0.57257 0.9525 0.0
H286 H 0.33457 0.61802 0.92784 0.0
H287 H 0.383 0.68933 0.90596 0.0
Mn288 Mn 0.43898 0.19873 0.28207 0.0
Mn289 Mn 0.52672 0.2525 0.2464 0.0
C290 C 0.51557 0.25347 0.29296 0.0
C291 C 0.37872 0.20467 0.30032 0.0
C292 C 0.49004 0.15116 0.2618 0.0
O293 O 0.40305 0.18361 0.25386 0.0
O294 O 0.46445 0.23017 0.23247 0.0
C295 C 0.51469 0.33549 0.23845 0.0
N296 N 0.54286 0.31737 0.24409 0.0
C297 C 0.60983 0.39543 0.24932 0.0
C298 C 0.58174 0.41492 0.24319 0.0
C299 C 0.53386 0.38479 0.23785 0.0
C300 C 0.58859 0.34602 0.2498 0.0
H301 H 0.47779 0.31249 0.23467 0.0
C302 C 0.42011 0.20279 0.23596 0.0
O303 O 0.37733 0.16414 0.29882 0.0
O304 O 0.41315 0.23986 0.29068 0.0
N305 N 0.58935 0.27663 0.25761 0.0
C306 C 0.61167 0.25221 0.26316 0.0
C307 C 0.66031 0.27702 0.26792 0.0
C308 C 0.68553 0.32666 0.26698 0.0
C309 C 0.6617 0.35112 0.26169 0.0
C310 C 0.61348 0.32444 0.25652 0.0
H311 H 0.5928 0.21407 0.26358 0.0
O312 O 0.4849 0.22436 0.30648 0.0
O313 O 0.49983 0.24994 0.2739 0.0
O314 O 0.46027 0.14951 0.27568 0.0
O315 O 0.5129 0.18633 0.24921 0.0
C316 C 0.68406 0.4009 0.26105 0.0
C317 C 0.65799 0.42305 0.2551 0.0
H318 H 0.59645 0.45294 0.24267 0.0
H319 H 0.51177 0.39952 0.23333 0.0
H320 H 0.67843 0.25792 0.27215 0.0
H321 H 0.72321 0.34563 0.27041 0.0
H322 H 0.72123 0.42246 0.26517 0.0
H323 H 0.67541 0.46135 0.25486 0.0
Mn324 Mn 0.25053 0.4203 0.62539 0.0
Mn325 Mn 0.31842 0.5191 0.59672 0.0
C326 C 0.28127 0.49377 0.64233 0.0
C327 C 0.17497 0.36266 0.63792 0.0
C328 C 0.35447 0.45572 0.6138 0.0
O329 O 0.23309 0.39564 0.59535 0.0
O330 O 0.27662 0.46446 0.57816 0.0
C331 C 0.24346 0.53558 0.57891 0.0
N332 N 0.28653 0.5521 0.58828 0.0
C333 C 0.30742 0.63298 0.58195 0.0
C334 C 0.2636 0.61692 0.57177 0.0
C335 C 0.23121 0.568 0.5705 0.0
C336 C 0.31724 0.59899 0.5902 0.0
H337 H 0.21897 0.49807 0.57791 0.0
C338 C 0.24686 0.42002 0.57848 0.0
O339 O 0.21 0.3542 0.63691 0.0
O340 O 0.18367 0.40382 0.63132 0.0
N341 N 0.36142 0.57623 0.61097 0.0
C342 C 0.39702 0.58504 0.62477 0.0
C343 C 0.43132 0.63216 0.62931 0.0
C344 C 0.42861 0.66952 0.6195 0.0
C345 C 0.39065 0.65941 0.60581 0.0
C346 C 0.35765 0.61187 0.60197 0.0
H347 H 0.39911 0.55627 0.63214 0.0
O348 O 0.27087 0.45497 0.65227 0.0
O349 O 0.27584 0.48962 0.62167 0.0
O350 O 0.31597 0.42435 0.62243 0.0
O351 O 0.35789 0.49123 0.60393 0.0
C352 C 0.38283 0.69448 0.5967 0.0
C353 C 0.34111 0.68126 0.58486 0.0
H354 H 0.25409 0.6418 0.56525 0.0
H355 H 0.1971 0.55533 0.56292 0.0
H356 H 0.45995 0.63969 0.64021 0.0
H357 H 0.45497 0.7058 0.62312 0.0
H358 H 0.40776 0.73166 0.59935 0.0
H359 H 0.33471 0.70849 0.57856 0.0
Mn360 Mn 0.81475 0.23894 0.95089 0.0
Mn361 Mn 0.77443 0.2917 0.91744 0.0
C362 C 0.76 0.2597 0.96219 0.0
C363 C 0.80524 0.16882 0.96573 0.0
C364 C 0.86935 0.34508 0.93977 0.0
O365 O 0.83402 0.22563 0.92198 0.0
O366 O 0.80543 0.26228 0.90142 0.0
C367 C 0.69975 0.20384 0.89728 0.0
N368 N 0.71257 0.24435 0.90834 0.0
C369 C 0.63138 0.22659 0.91043 0.0
C370 C 0.61735 0.1848 0.89898 0.0
C371 C 0.65169 0.17335 0.89241 0.0
C372 C 0.67976 0.25546 0.91491 0.0
H373 H 0.72597 0.19475 0.89226 0.0
C374 C 0.82664 0.23846 0.90393 0.0
O375 O 0.84619 0.20764 0.96633 0.0
O376 O 0.77147 0.17049 0.95567 0.0
N377 N 0.74299 0.32127 0.9307 0.0
C378 C 0.76259 0.36359 0.94103 0.0
C379 C 0.73328 0.38123 0.94785 0.0
C380 C 0.6842 0.3552 0.94398 0.0
C381 C 0.66486 0.31181 0.93331 0.0
C382 C 0.69596 0.29655 0.92646 0.0
H383 H 0.80036 0.38397 0.94386 0.0
O384 O 0.78588 0.25289 0.97579 0.0
O385 O 0.7666 0.25354 0.94246 0.0
O386 O 0.867 0.30956 0.94965 0.0
O387 O 0.83733 0.34209 0.92704 0.0
C388 C 0.61603 0.28344 0.92893 0.0
C389 C 0.59925 0.24068 0.91762 0.0
H390 H 0.58031 0.16122 0.89518 0.0
H391 H 0.64113 0.14109 0.88363 0.0
H392 H 0.74851 0.4149 0.95598 0.0
H393 H 0.66173 0.36909 0.94909 0.0
H394 H 0.59108 0.29418 0.93418 0.0
H395 H 0.56161 0.21907 0.91442 0.0
Mn396 Mn 0.5934 0.82339 0.29084 0.0
Mn397 Mn 0.49144 0.79384 0.26463 0.0
C398 C 0.52165 0.78457 0.3096 0.0
C399 C 0.6508 0.80374 0.30214 0.0
C400 C 0.56068 0.8938 0.27922 0.0
O401 O 0.6137 0.8271 0.26012 0.0
O402 O 0.54263 0.80206 0.24485 0.0
C403 C 0.46789 0.69948 0.24803 0.0
N404 N 0.45464 0.72842 0.25761 0.0
C405 C 0.37179 0.6713 0.25342 0.0
C406 C 0.38441 0.64114 0.243 0.0
C407 C 0.43269 0.65499 0.2406 0.0
C408 C 0.40843 0.71474 0.26072 0.0
H409 H 0.50496 0.71048 0.24611 0.0
C410 C 0.58683 0.8152 0.24396 0.0
O411 O 0.66075 0.84751 0.30061 0.0
O412 O 0.60823 0.77187 0.29674 0.0
N413 N 0.43717 0.78397 0.28036 0.0
C414 C 0.43186 0.81404 0.29353 0.0
C415 C 0.38594 0.80391 0.29923 0.0
C416 C 0.3461 0.76356 0.29095 0.0
C417 C 0.35257 0.73304 0.27745 0.0
C418 C 0.39911 0.74457 0.27268 0.0
H419 H 0.46243 0.84567 0.29933 0.0
O420 O 0.56212 0.81224 0.31859 0.0
O421 O 0.52325 0.78166 0.28891 0.0
O422 O 0.59189 0.88592 0.28754 0.0
O423 O 0.52333 0.86197 0.27031 0.0
C424 C 0.31483 0.69069 0.26918 0.0
C425 C 0.32445 0.6596 0.25737 0.0
H426 H 0.35738 0.60692 0.23717 0.0
H427 H 0.44271 0.63165 0.23285 0.0
H428 H 0.38125 0.82756 0.3097 0.0
H429 H 0.31076 0.75597 0.29532 0.0
H430 H 0.27835 0.68082 0.27253 0.0
H431 H 0.29522 0.62638 0.25176 0.0
H432 H 0.29659 0.92247 0.98118 0.0
H433 H 0.15395 0.8986 0.97239 0.0
H434 H 0.17928 0.97823 0.9872 0.0
H435 H 0.31685 0.98125 0.03116 0.0
H436 H 0.37887 0.0216 0.02609 0.0
H437 H 0.34974 0.964 0.01387 0.0
H438 H 0.37566 1.00301 0.97685 0.0
H439 H 0.40485 0.06074 0.98896 0.0
H440 H 0.36048 0.0469 0.96882 0.0
H441 H 0.22215 0.06264 0.00252 0.0
H442 H 0.27637 0.1402 0.01929 0.0
H443 H 0.3885 0.10483 0.01982 0.0
C444 C 0.27071 0.93409 0.9822 0.0
C445 C 0.22338 0.90453 0.97544 0.0
C446 C 0.19043 0.92074 0.97742 0.0
C447 C 0.20455 0.96595 0.98577 0.0
C448 C 0.25159 0.99423 0.99232 0.0
C449 C 0.28397 0.97859 0.99081 0.0
C450 C 0.33181 0.01458 0.99977 0.0
C451 C 0.34507 0.99413 0.01885 0.0
C452 C 0.37047 0.03235 0.98257 0.0
C453 C 0.32151 0.05311 0.00652 0.0
C454 C 0.27527 0.04116 0.00191 0.0
C455 C 0.25831 0.0721 0.00631 0.0
C456 C 0.28932 0.11609 0.01579 0.0
C457 C 0.33644 0.12834 0.02104 0.0
C458 C 0.35248 0.09628 0.01625 0.0
H459 H 0.31335 0.37181 0.36586 0.0
H460 H 0.16467 0.2646 0.3617 0.0
H461 H 0.18712 0.20993 0.34451 0.0
H462 H 0.34389 0.3503 0.31513 0.0
H463 H 0.40242 0.36282 0.32287 0.0
H464 H 0.37428 0.39053 0.33666 0.0
H465 H 0.38522 0.35748 0.37227 0.0
H466 H 0.41336 0.32957 0.35856 0.0
H467 H 0.36234 0.29471 0.37509 0.0
H468 H 0.2284 0.16723 0.32681 0.0
H469 H 0.28223 0.14561 0.30787 0.0
H470 H 0.40138 0.28432 0.32209 0.0
C471 C 0.28543 0.33651 0.36172 0.0
C472 C 0.23726 0.32219 0.36547 0.0
C473 C 0.20185 0.27617 0.35917 0.0
C474 C 0.21433 0.24488 0.34944 0.0
C475 C 0.26237 0.26038 0.34583 0.0
C476 C 0.29719 0.30547 0.35165 0.0
C477 C 0.34586 0.31563 0.34462 0.0
C478 C 0.36788 0.35727 0.32889 0.0
C479 C 0.37861 0.32488 0.36378 0.0
C480 C 0.33334 0.26937 0.33388 0.0
C481 C 0.28522 0.23738 0.33494 0.0
C482 C 0.26609 0.19221 0.32592 0.0
C483 C 0.29684 0.18004 0.31529 0.0
C484 C 0.34585 0.21333 0.31343 0.0
C485 C 0.36398 0.25815 0.32312 0.0
H486 H 0.91983 0.2842 0.68665 0.0
H487 H 0.89255 0.13988 0.69 0.0
H488 H 0.97247 0.16613 0.67481 0.0
H489 H 0.98085 0.31222 0.63663 0.0
H490 H 0.02162 0.37276 0.64389 0.0
H491 H 0.96313 0.3422 0.65538 0.0
H492 H 1.00009 0.36074 0.69297 0.0
H493 H 0.0587 0.39129 0.68161 0.0
H494 H 0.04301 0.34333 0.69996 0.0
H495 H 0.05838 0.21074 0.66018 0.0
H496 H 0.13788 0.26719 0.64559 0.0
H497 H 0.10481 0.38033 0.65037 0.0
C498 C 0.93064 0.25801 0.68431 0.0
C499 C 0.9001 0.20999 0.68973 0.0
C500 C 0.9154 0.17684 0.68603 0.0
C501 C 0.96076 0.19151 0.67744 0.0
C502 C 0.99008 0.23932 0.67236 0.0
C503 C 0.9752 0.27186 0.67549 0.0
C504 C 0.01234 0.32087 0.66822 0.0
C505 C 0.99334 0.338 0.64994 0.0
C506 C 0.02955 0.35612 0.6868 0.0
C507 C 0.05093 0.31123 0.6607 0.0
C508 C 0.0378 0.26412 0.6633 0.0
C509 C 0.06869 0.24756 0.65795 0.0
C510 C 0.11383 0.27988 0.64971 0.0
C511 C 0.12753 0.32812 0.64666 0.0
C512 C 0.09536 0.34363 0.65226 0.0
H513 H 0.6345 0.93462 0.02907 0.0
H514 H 0.74578 0.89818 0.02961 0.0
H515 H 0.80047 0.97496 0.01222 0.0
H516 H 0.65928 0.98318 0.97778 0.0
H517 H 0.64411 0.02813 0.98368 0.0
H518 H 0.61649 0.97329 0.99818 0.0
H519 H 0.64509 0.0195 0.03356 0.0
H520 H 0.67263 0.07455 0.01916 0.0
H521 H 0.70733 0.06129 0.03726 0.0
H522 H 0.84271 0.05797 0.99417 0.0
H523 H 0.86462 0.13286 0.9749 0.0
H524 H 0.72172 0.10774 0.98398 0.0
C525 C 0.67069 0.94311 0.02596 0.0
C526 C 0.68624 0.9109 0.03106 0.0
C527 C 0.73337 0.92269 0.02605 0.0
C528 C 0.76461 0.9662 0.0162 0.0
C529 C 0.7478 0.99701 0.01115 0.0
C530 C 0.70164 0.9855 0.01574 0.0
C531 C 0.69037 0.02214 0.00727 0.0
C532 C 0.6502 1.00037 0.99075 0.0
C533 C 0.67815 0.04577 0.0254 0.0
C534 C 0.7373 0.0563 0.99714 0.0
C535 C 0.7705 0.04199 0.99977 0.0
C536 C 0.81676 0.06917 0.99195 0.0
C537 C 0.82898 0.11161 0.98107 0.0
C538 C 0.79468 0.12561 0.97772 0.0
C539 C 0.74852 0.09753 0.98599 0.0
H540 H 0.63165 0.71698 0.31679 0.0
H541 H 0.748 0.85945 0.306 0.0
H542 H 0.80471 0.83542 0.31936 0.0
H543 H 0.67642 0.69828 0.36562 0.0
H544 H 0.65496 0.63646 0.36047 0.0
H545 H 0.62451 0.66487 0.34937 0.0
H546 H 0.63391 0.6387 0.31177 0.0
H547 H 0.66445 0.61026 0.32277 0.0
H548 H 0.69226 0.65427 0.30231 0.0
H549 H 0.8491 0.79354 0.33341 0.0
H550 H 0.87526 0.74015 0.34886 0.0
H551 H 0.72848 0.62742 0.35199 0.0
C552 C 0.6691 0.74316 0.31711 0.0
C553 C 0.68541 0.79007 0.31016 0.0
C554 C 0.73466 0.8233 0.31118 0.0
C555 C 0.76713 0.8099 0.31871 0.0
C556 C 0.74978 0.76325 0.32542 0.0
C557 C 0.70175 0.73059 0.32485 0.0
C558 C 0.69163 0.68315 0.33362 0.0
C559 C 0.66002 0.66994 0.35345 0.0
C560 C 0.66925 0.64431 0.3166 0.0
C561 C 0.74141 0.69395 0.33915 0.0
C562 C 0.7747 0.74013 0.33416 0.0
C563 C 0.82317 0.75744 0.33748 0.0
C564 C 0.83778 0.72688 0.34623 0.0
C565 C 0.80399 0.67974 0.35182 0.0
C566 C 0.75526 0.6634 0.34814 0.0
H567 H 0.90683 0.61677 0.6525 0.0
H568 H 0.88685 0.73389 0.63454 0.0
H569 H 0.96221 0.7896 0.65308 0.0
H570 H 0.95599 0.6613 0.70508 0.0
H571 H 0.99571 0.63781 0.70347 0.0
H572 H 0.93964 0.60869 0.68974 0.0
H573 H 0.9835 0.61536 0.6545 0.0
H574 H 0.03965 0.64475 0.66806 0.0
H575 H 0.02943 0.67268 0.6456 0.0
H576 H 0.04649 0.83261 0.67081 0.0
H577 H 0.12382 0.85648 0.68835 0.0
H578 H 0.08195 0.70857 0.69611 0.0
C579 C 0.91795 0.65414 0.65268 0.0
C580 C 0.89129 0.6712 0.64206 0.0
C581 C 0.90674 0.72018 0.64272 0.0
C582 C 0.94957 0.75195 0.65313 0.0
C583 C 0.97567 0.73384 0.66311 0.0
C584 C 0.95962 0.68576 0.66324 0.0
C585 C 0.99348 0.67437 0.67475 0.0
C586 C 0.96978 0.64374 0.69443 0.0
C587 C 0.01264 0.6504 0.65983 0.0
C588 C 0.03192 0.72357 0.68084 0.0
C589 C 0.02161 0.75773 0.67393 0.0
C590 C 0.05424 0.80594 0.67659 0.0
C591 C 0.09812 0.81923 0.68653 0.0
C592 C 0.10863 0.78442 0.69393 0.0
C593 C 0.07469 0.73613 0.69111 0.0
H594 H 0.75204 0.32341 0.98734 0.0
H595 H 0.67073 0.18968 0.95462 0.0
H596 H 0.59762 0.17699 0.97256 0.0
H597 H 0.68933 0.28698 0.03666 0.0
H598 H 0.69735 0.34529 0.04038 0.0
H599 H 0.7387 0.33808 0.02461 0.0
H600 H 0.71949 0.38326 0.99436 0.0
H601 H 0.67753 0.38591 0.01207 0.0
H602 H 0.65815 0.35913 0.98649 0.0
H603 H 0.53643 0.1748 0.99687 0.0
H604 H 0.48445 0.19144 0.01916 0.0
H605 H 0.60221 0.33183 0.03213 0.0
C606 C 0.71845 0.29222 0.98359 0.0
C607 C 0.71638 0.25769 0.96956 0.0
C608 C 0.67244 0.21672 0.96516 0.0
C609 C 0.631 0.20911 0.97538 0.0
C610 C 0.63432 0.24322 0.98966 0.0
C611 C 0.67641 0.28485 0.99311 0.0
C612 C 0.6701 0.31557 0.00928 0.0
C613 C 0.70056 0.32164 0.0289 0.0
C614 C 0.6821 0.36382 0.99993 0.0
C615 C 0.61743 0.28528 0.01397 0.0
C616 C 0.59819 0.24291 0.00305 0.0
C617 C 0.55087 0.20814 0.00524 0.0
C618 C 0.52175 0.21788 0.01805 0.0
C619 C 0.5394 0.26263 0.02791 0.0
C620 C 0.58803 0.29666 0.0259 0.0
H621 H 0.28261 0.54308 0.33753 0.0
H622 H 0.35389 0.53603 0.39412 0.0
H623 H 0.42429 0.61324 0.3851 0.0
H624 H 0.38999 0.58826 0.30561 0.0
H625 H 0.37519 0.62389 0.28907 0.0
H626 H 0.32861 0.57014 0.30051 0.0
H627 H 0.2915 0.61561 0.31749 0.0
H628 H 0.33782 0.67092 0.30724 0.0
H629 H 0.32655 0.6646 0.33507 0.0
H630 H 0.47927 0.69831 0.37264 0.0
H631 H 0.52994 0.7692 0.35156 0.0
H632 H 0.43316 0.70873 0.29875 0.0
C633 C 0.31301 0.55805 0.34805 0.0
C634 C 0.31168 0.53632 0.36749 0.0
C635 C 0.35311 0.55472 0.38009 0.0
C636 C 0.39329 0.5981 0.37497 0.0
C637 C 0.392 0.62096 0.35658 0.0
C638 C 0.35415 0.60015 0.34272 0.0
C639 C 0.36394 0.62919 0.32284 0.0
C640 C 0.36443 0.60118 0.30336 0.0
C641 C 0.32764 0.64593 0.32054 0.0
C642 C 0.41292 0.67021 0.32776 0.0
C643 C 0.42745 0.66571 0.34771 0.0
C644 C 0.469 0.70144 0.35667 0.0
C645 C 0.49739 0.74186 0.34448 0.0
C646 C 0.48547 0.74557 0.3231 0.0
C647 C 0.44258 0.70876 0.31487 0.0
H648 H 0.69459 0.26907 0.69279 0.0
H649 H 0.82992 0.28188 0.6762 0.0
H650 H 0.84917 0.35182 0.65443 0.0
H651 H 0.66605 0.30095 0.64796 0.0
H652 H 0.64649 0.34093 0.65714 0.0
H653 H 0.64209 0.29461 0.67418 0.0
H654 H 0.69389 0.35126 0.70324 0.0
H655 H 0.69298 0.39807 0.68863 0.0
H656 H 0.74873 0.40357 0.69697 0.0
H657 H 0.85205 0.41763 0.63297 0.0
H658 H 0.84218 0.48135 0.61667 0.0
H659 H 0.70899 0.4307 0.64998 0.0
C660 C 0.72915 0.28779 0.68562 0.0
C661 C 0.76099 0.27037 0.68664 0.0
C662 C 0.80493 0.29472 0.6757 0.0
C663 C 0.81627 0.33446 0.66327 0.0
C664 C 0.78385 0.35035 0.66236 0.0
C665 C 0.74201 0.32891 0.6738 0.0
C666 C 0.71433 0.35443 0.67051 0.0
C667 C 0.66428 0.32079 0.6619 0.0
C668 C 0.71242 0.37844 0.69105 0.0
C669 C 0.74551 0.39136 0.65449 0.0
C670 C 0.78576 0.38871 0.65013 0.0
C671 C 0.82075 0.42017 0.63632 0.0
C672 C 0.81478 0.45593 0.62707 0.0
C673 C 0.77424 0.45965 0.63174 0.0
C674 C 0.73961 0.42752 0.64583 0.0
H675 H 0.30558 0.73736 0.95758 0.0
H676 H 0.24269 0.76208 0.0132 0.0
H677 H 0.31393 0.78111 0.0335 0.0
H678 H 0.34846 0.66991 0.99187 0.0
H679 H 0.39869 0.68562 0.97474 0.0
H680 H 0.3442 0.67832 0.96419 0.0
H681 H 0.39095 0.76274 0.94781 0.0
H682 H 0.4451 0.77057 0.95934 0.0
H683 H 0.42537 0.81216 0.96515 0.0
H684 H 0.39812 0.81167 0.04561 0.0
H685 H 0.47361 0.81522 0.05515 0.0
H686 H 0.47023 0.74501 0.99646 0.0
C687 C 0.30509 0.74381 0.97411 0.0
C688 C 0.26756 0.74769 0.98331 0.0
C689 C 0.27069 0.75925 0.00525 0.0
C690 C 0.31132 0.77056 0.01708 0.0
C691 C 0.34777 0.76744 0.00726 0.0
C692 C 0.34375 0.75113 0.98679 0.0
C693 C 0.38526 0.74392 0.98139 0.0
C694 C 0.36826 0.6913 0.97786 0.0
C695 C 0.41333 0.77416 0.96228 0.0
C696 C 0.41387 0.76085 0.00161 0.0
C697 C 0.39236 0.77604 0.01598 0.0
C698 C 0.41383 0.79712 0.03506 0.0
C699 C 0.45619 0.79842 0.04046 0.0
C700 C 0.47479 0.77633 0.02743 0.0
C701 C 0.45499 0.7597 0.00722 0.0
H702 H 0.59842 0.26671 0.31075 0.0
H703 H 0.52123 0.3382 0.29329 0.0
H704 H 0.58067 0.41033 0.31186 0.0
H705 H 0.63524 0.3167 0.3621 0.0
H706 H 0.69152 0.31868 0.35901 0.0
H707 H 0.64105 0.2763 0.34449 0.0
H708 H 0.69574 0.31197 0.31081 0.0
H709 H 0.74246 0.35534 0.32717 0.0
H710 H 0.72088 0.37466 0.30535 0.0
H711 H 0.64205 0.47032 0.33511 0.0
H712 H 0.71411 0.52421 0.35511 0.0
H713 H 0.75845 0.41892 0.35438 0.0
C714 C 0.59504 0.29812 0.31047 0.0
C715 C 0.55581 0.29754 0.30067 0.0
C716 C 0.55156 0.33859 0.30066 0.0
C717 C 0.58488 0.37945 0.31123 0.0
C718 C 0.62254 0.37866 0.32134 0.0
C719 C 0.62908 0.33996 0.32033 0.0
C720 C 0.673 0.34897 0.33255 0.0
C721 C 0.65929 0.31313 0.35067 0.0
C722 C 0.71013 0.34759 0.31803 0.0
C723 C 0.69008 0.39881 0.3406 0.0
C724 C 0.6595 0.41449 0.33431 0.0
C725 C 0.66665 0.4588 0.3399 0.0
C726 C 0.70747 0.48898 0.35135 0.0
C727 C 0.74125 0.47531 0.35656 0.0
C728 C 0.73242 0.42954 0.35125 0.0
H729 H 0.29646 0.58321 0.63082 0.0
H730 H 0.25066 0.48463 0.68324 0.0
H731 H 0.23142 0.53691 0.70349 0.0
H732 H 0.35935 0.68747 0.66782 0.0
H733 H 0.34926 0.72494 0.65004 0.0
H734 H 0.35641 0.67744 0.6399 0.0
H735 H 0.27414 0.64415 0.62034 0.0
H736 H 0.26841 0.69197 0.63132 0.0
H737 H 0.22272 0.63143 0.63581 0.0
H738 H 0.20505 0.59475 0.71535 0.0
H739 H 0.20089 0.66674 0.72394 0.0
H740 H 0.28542 0.73703 0.66864 0.0
C741 C 0.28506 0.57352 0.6467 0.0
C742 C 0.27648 0.52987 0.65507 0.0
C743 C 0.2581 0.5178 0.67606 0.0
C744 C 0.24663 0.54716 0.6878 0.0
C745 C 0.25566 0.58975 0.67886 0.0
C746 C 0.2768 0.60412 0.65927 0.0
C747 C 0.28759 0.65407 0.65437 0.0
C748 C 0.34134 0.68808 0.65296 0.0
C749 C 0.26168 0.65551 0.63427 0.0
C750 C 0.26765 0.66459 0.67384 0.0
C751 C 0.24791 0.62639 0.68747 0.0
C752 C 0.2229 0.62589 0.70543 0.0
C753 C 0.22124 0.66697 0.71033 0.0
C754 C 0.24658 0.70838 0.69799 0.0
C755 C 0.26818 0.70653 0.67899 0.0
H756 H 0.40696 0.29314 0.12626 0.0
H757 H 0.34927 0.14938 0.10404 0.0
H758 H 0.32535 0.11989 0.14069 0.0
H759 H 0.46323 0.2852 0.16662 0.0
H760 H 0.45383 0.32204 0.18501 0.0
H761 H 0.45103 0.33027 0.15714 0.0
H762 H 0.36613 0.31766 0.16108 0.0
H763 H 0.36883 0.30991 0.18924 0.0
H764 H 0.32064 0.265 0.17386 0.0
H765 H 0.32982 0.10896 0.18 0.0
H766 H 0.36042 0.11817 0.21672 0.0
H767 H 0.41317 0.26873 0.21322 0.0
C768 C 0.38668 0.25532 0.12903 0.0
C769 C 0.37907 0.2234 0.11246 0.0
C770 C 0.35414 0.1742 0.11652 0.0
C771 C 0.34067 0.15726 0.13734 0.0
C772 C 0.35159 0.19002 0.15371 0.0
C773 C 0.37307 0.23814 0.14962 0.0
C774 C 0.38859 0.26684 0.16984 0.0
C775 C 0.44231 0.30313 0.16962 0.0
C776 C 0.35928 0.29128 0.17374 0.0
C777 C 0.37645 0.22791 0.18582 0.0
C778 C 0.35382 0.18361 0.17644 0.0
C779 C 0.34586 0.14323 0.18764 0.0
C780 C 0.36313 0.14863 0.20852 0.0
C781 C 0.38845 0.1941 0.21776 0.0
C782 C 0.3931 0.23357 0.20659 0.0
H783 H 0.15568 0.43174 0.46603 0.0
H784 H 0.20622 0.33868 0.44452 0.0
H785 H 0.2108 0.31716 0.48175 0.0
H786 H 0.23409 0.4825 0.50363 0.0
H787 H 0.19708 0.48964 0.52282 0.0
H788 H 0.1827 0.48566 0.49522 0.0
H789 H 0.09874 0.41447 0.50233 0.0
H790 H 0.11234 0.41882 0.53022 0.0
H791 H 0.0924 0.36358 0.51649 0.0
H792 H 0.22787 0.3212 0.52132 0.0
H793 H 0.25315 0.34886 0.55826 0.0
H794 H 0.19425 0.44162 0.55273 0.0
C795 C 0.16532 0.40493 0.46915 0.0
C796 C 0.18008 0.38642 0.45252 0.0
C797 C 0.19372 0.35239 0.45706 0.0
C798 C 0.19669 0.34024 0.47819 0.0
C799 C 0.18517 0.36196 0.49442 0.0
C800 C 0.16881 0.39297 0.49001 0.0
C801 C 0.1661 0.41774 0.50974 0.0
C802 C 0.19684 0.47204 0.50772 0.0
C803 C 0.11431 0.40273 0.51501 0.0
C804 C 0.18644 0.39837 0.52577 0.0
C805 C 0.19607 0.36524 0.51693 0.0
C806 C 0.2193 0.34617 0.52849 0.0
C807 C 0.23361 0.36204 0.54939 0.0
C808 C 0.22546 0.39724 0.55818 0.0
C809 C 0.20069 0.41458 0.54638 0.0
H810 H 0.86699 0.29135 0.86918 0.0
H811 H 0.8106 0.14969 0.89413 0.0
H812 H 0.80985 0.11988 0.85791 0.0
H813 H 0.79631 0.26326 0.828 0.0
H814 H 0.83818 0.30536 0.80941 0.0
H815 H 0.84704 0.31714 0.83725 0.0
H816 H 0.93081 0.32625 0.83467 0.0
H817 H 0.92242 0.31495 0.80659 0.0
H818 H 0.9377 0.27944 0.82313 0.0
H819 H 0.79638 0.10349 0.81833 0.0
H820 H 0.77467 0.10352 0.78058 0.0
H821 H 0.8428 0.25623 0.78212 0.0
C822 C 0.85676 0.25447 0.86709 0.0
C823 C 0.83947 0.22286 0.88433 0.0
C824 C 0.82504 0.17459 0.88112 0.0
C825 C 0.82433 0.1574 0.86057 0.0
C826 C 0.83917 0.18921 0.84361 0.0
C827 C 0.85621 0.23707 0.84682 0.0
C828 C 0.86381 0.26319 0.82612 0.0
C829 C 0.83457 0.28866 0.82515 0.0
C830 C 0.91685 0.29801 0.82241 0.0
C831 C 0.84529 0.22225 0.81076 0.0
C832 C 0.8321 0.17986 0.82093 0.0
C833 C 0.80809 0.13667 0.81013 0.0
C834 C 0.79601 0.13689 0.78868 0.0
C835 C 0.80765 0.17998 0.77851 0.0
C836 C 0.83413 0.22295 0.78949 0.0
H837 H 0.55297 0.71386 0.12928 0.0
H838 H 0.66917 0.84951 0.10908 0.0
H839 H 0.69167 0.87162 0.14667 0.0
H840 H 0.5146 0.75717 0.16717 0.0
H841 H 0.49596 0.7088 0.18559 0.0
H842 H 0.49779 0.69861 0.15779 0.0
H843 H 0.55386 0.6648 0.16463 0.0
H844 H 0.55161 0.67419 0.19265 0.0
H845 H 0.60808 0.69937 0.1793 0.0
H846 H 0.69157 0.88355 0.18702 0.0
H847 H 0.66781 0.88412 0.22445 0.0
H848 H 0.54787 0.74304 0.21612 0.0
C849 C 0.5843 0.74758 0.13269 0.0
C850 C 0.60945 0.77991 0.11631 0.0
C851 C 0.64986 0.8239 0.1214 0.0
C852 C 0.66273 0.83676 0.14273 0.0
C853 C 0.63504 0.80499 0.1586 0.0
C854 C 0.5969 0.761 0.15367 0.0
C855 C 0.56799 0.73585 0.17301 0.0
C856 C 0.51608 0.72451 0.17074 0.0
C857 C 0.57057 0.6909 0.17767 0.0
C858 C 0.59424 0.77332 0.18955 0.0
C859 C 0.63366 0.81251 0.18127 0.0
C860 C 0.66125 0.85264 0.19367 0.0
C861 C 0.64759 0.85275 0.21486 0.0
C862 C 0.60606 0.81354 0.22306 0.0
C863 C 0.57987 0.77332 0.21031 0.0
H864 H 0.73339 0.57957 0.53222 0.0
H865 H 0.87688 0.65828 0.55627 0.0
H866 H 0.9061 0.68951 0.5203 0.0
H867 H 0.75547 0.53877 0.48932 0.0
H868 H 0.71425 0.54317 0.47165 0.0
H869 H 0.70362 0.53863 0.4996 0.0
H870 H 0.70029 0.61645 0.49907 0.0
H871 H 0.7107 0.6211 0.47088 0.0
H872 H 0.74908 0.66945 0.48803 0.0
H873 H 0.92107 0.69183 0.48104 0.0
H874 H 0.91876 0.66867 0.44344 0.0
H875 H 0.76545 0.59586 0.44495 0.0
C876 C 0.77056 0.60546 0.53001 0.0
C877 C 0.80288 0.61723 0.54687 0.0
C878 C 0.85154 0.64989 0.54354 0.0
C879 C 0.86838 0.66764 0.52314 0.0
C880 C 0.83584 0.65338 0.50647 0.0
C881 C 0.78761 0.62406 0.50987 0.0
C882 C 0.76055 0.60862 0.48921 0.0
C883 C 0.73188 0.55413 0.48735 0.0
C884 C 0.72825 0.63022 0.48665 0.0
C885 C 0.8013 0.63019 0.47364 0.0
C886 C 0.84452 0.65673 0.48374 0.0
C887 C 0.8874 0.67289 0.47285 0.0
C888 C 0.88592 0.65987 0.45146 0.0
C889 C 0.84188 0.6311 0.44137 0.0
C890 C 0.79946 0.61846 0.4523 0.0
H891 H 0.13884 0.73036 0.87267 0.0
H892 H 0.22471 0.87323 0.8963 0.0
H893 H 0.2337 0.90431 0.85974 0.0
H894 H 0.20304 0.73968 0.83025 0.0
H895 H 0.15468 0.70394 0.81254 0.0
H896 H 0.14653 0.69487 0.84056 0.0
H897 H 0.0744 0.70844 0.83874 0.0
H898 H 0.08269 0.71772 0.81054 0.0
H899 H 0.08146 0.76212 0.82712 0.0
H900 H 0.25023 0.91659 0.82049 0.0
H901 H 0.26757 0.90871 0.78289 0.0
H902 H 0.16367 0.75948 0.78489 0.0
C903 C 0.15782 0.76831 0.87016 0.0
C904 C 0.18082 0.79955 0.88711 0.0
C905 C 0.2062 0.84892 0.88343 0.0
C906 C 0.21149 0.8668 0.86274 0.0
C907 C 0.18992 0.83481 0.84611 0.0
C908 C 0.16247 0.7866 0.84973 0.0
C909 C 0.14725 0.75905 0.82923 0.0
C910 C 0.16392 0.72229 0.8281 0.0
C911 C 0.09324 0.73545 0.82624 0.0
C912 C 0.17333 0.79877 0.81352 0.0
C913 C 0.19734 0.84242 0.82342 0.0
C914 C 0.23009 0.88299 0.81244 0.0
C915 C 0.23965 0.87838 0.7911 0.0
C916 C 0.21623 0.83365 0.78113 0.0
C917 C 0.18129 0.79412 0.79219 0.0
H918 H 0.55561 0.62439 0.07817 0.0
H919 H 0.51679 0.63416 0.01357 0.0
H920 H 0.49128 0.54932 0.00798 0.0
H921 H 0.59903 0.53983 0.06739 0.0
H922 H 0.57629 0.51006 0.09231 0.0
H923 H 0.59598 0.57225 0.0899 0.0
H924 H 0.51386 0.55591 0.10342 0.0
H925 H 0.49339 0.49354 0.10525 0.0
H926 H 0.46089 0.51401 0.08952 0.0
H927 H 0.46111 0.4604 0.0113 0.0
H928 H 0.44088 0.37887 0.02125 0.0
H929 H 0.50161 0.42931 0.08355 0.0
C930 C 0.54359 0.60902 0.0626 0.0
C931 C 0.53934 0.63578 0.04607 0.0
C932 C 0.52172 0.61439 0.02614 0.0
C933 C 0.5066 0.56616 0.02296 0.0
C934 C 0.50972 0.54017 0.03987 0.0
C935 C 0.52893 0.56126 0.05914 0.0
C936 C 0.5272 0.5256 0.075 0.0
C937 C 0.57762 0.53765 0.08153 0.0
C938 C 0.49704 0.52208 0.09444 0.0
C939 C 0.50317 0.48088 0.06185 0.0
C940 C 0.493 0.48973 0.04167 0.0
C941 C 0.46946 0.45326 0.02699 0.0
C942 C 0.45757 0.40694 0.03286 0.0
C943 C 0.46958 0.39762 0.05318 0.0
C944 C 0.49199 0.43519 0.06787 0.0
H945 H 0.95142 0.53169 0.41788 0.0
H946 H 0.94861 0.56286 0.35129 0.0
H947 H 1.00713 0.53716 0.34376 0.0
H948 H 0.07868 0.57207 0.42012 0.0
H949 H 0.07023 0.52667 0.4388 0.0
H950 H 0.02971 0.54922 0.43849 0.0
H951 H 0.95963 0.46361 0.43376 0.0
H952 H 1.00008 0.44094 0.43341 0.0
H953 H 0.95968 0.42869 0.41163 0.0
H954 H 0.06228 0.50152 0.3434 0.0
H955 H 0.11944 0.47388 0.35127 0.0
H956 H 0.0879 0.46982 0.41812 0.0
C957 C 0.96385 0.53408 0.40176 0.0
C958 C 0.94559 0.54965 0.3852 0.0
C959 C 0.9626 0.55187 0.36431 0.0
C960 C 0.9954 0.5367 0.35984 0.0
C961 C 0.01137 0.51994 0.37646 0.0
C962 C 0.99699 0.51977 0.39709 0.0
C963 C 0.02009 0.50124 0.41224 0.0
C964 C 0.05155 0.53959 0.42836 0.0
C965 C 0.98263 0.45593 0.42341 0.0
C966 C 0.04957 0.49069 0.39696 0.0
C967 C 0.04361 0.50092 0.37633 0.0
C968 C 0.06724 0.49357 0.35952 0.0
C969 C 0.09912 0.47723 0.36406 0.0
C970 C 0.10742 0.469 0.38523 0.0
C971 C 0.08162 0.47512 0.40175 0.0
H972 H 0.60201 0.06337 0.75206 0.0
H973 H 0.63903 0.06464 0.68601 0.0
H974 H 0.55494 0.00701 0.6778 0.0
H975 H 0.51293 0.93647 0.75427 0.0
H976 H 0.47578 0.94643 0.77228 0.0
H977 H 0.53912 0.98546 0.77256 0.0
H978 H 0.52589 0.05682 0.76694 0.0
H979 H 0.46257 0.01789 0.76594 0.0
H980 H 0.49265 0.05769 0.74424 0.0
H981 H 0.464 0.95431 0.67655 0.0
H982 H 0.37833 0.89976 0.68357 0.0
H983 H 0.40278 0.93099 0.75058 0.0
C984 C 0.59267 0.05058 0.73595 0.0
C985 C 0.62725 0.06822 0.71971 0.0
C986 C 0.61342 0.05097 0.69879 0.0
C987 C 0.56556 0.01874 0.69394 0.0
C988 C 0.53204 1.00356 0.71022 0.0
C989 C 0.54535 0.01798 0.73091 0.0
C990 C 0.50289 0.9961 0.74563 0.0
C991 C 0.50798 0.96421 0.76215 0.0
C992 C 0.49559 0.03442 0.75631 0.0
C993 C 0.46342 0.96736 0.73003 0.0
C994 C 0.48064 0.97261 0.7096 0.0
C995 C 0.4503 0.94982 0.69252 0.0
C996 C 0.40158 0.91944 0.69658 0.0
C997 C 0.3839 0.91171 0.71756 0.0
C998 C 0.41526 0.93672 0.73435 0.0
H999 H 0.63607 0.56172 0.61149 0.0
H1000 H 0.6048 0.42073 0.59294 0.0
H1001 H 0.52036 0.39036 0.59908 0.0
H1002 H 0.54117 0.52773 0.65068 0.0
H1003 H 0.52668 0.57179 0.64213 0.0
H1004 H 0.58642 0.58249 0.63923 0.0
H1005 H 0.58391 0.59744 0.59905 0.0
H1006 H 0.52444 0.58726 0.60194 0.0
H1007 H 0.53656 0.55309 0.5831 0.0
H1008 H 0.43784 0.37369 0.60724 0.0
H1009 H 0.36301 0.37618 0.61055 0.0
H1010 H 0.44553 0.52847 0.61868 0.0
C1011 C 0.61153 0.52438 0.60904 0.0
C1012 C 0.62801 0.49353 0.60252 0.0
C1013 C 0.5941 0.44516 0.59871 0.0
C1014 C 0.54557 0.42729 0.60209 0.0
C1015 C 0.53055 0.45826 0.60871 0.0
C1016 C 0.56227 0.50604 0.6116 0.0
C1017 C 0.53581 0.53241 0.61623 0.0
C1018 C 0.54827 0.55493 0.63839 0.0
C1019 C 0.54577 0.56974 0.59905 0.0
C1020 C 0.48471 0.49203 0.61532 0.0
C1021 C 0.48246 0.44933 0.61154 0.0
C1022 C 0.43908 0.407 0.61016 0.0
C1023 C 0.39676 0.4086 0.61217 0.0
C1024 C 0.39828 0.45236 0.61494 0.0
C1025 C 0.44298 0.49437 0.61673 0.0
H1026 H 0.05238 0.61687 0.91578 0.0
H1027 H 0.07891 0.63793 0.98318 0.0
H1028 H 0.01857 0.55388 0.98956 0.0
H1029 H 0.9212 0.53108 0.92023 0.0
H1030 H 0.9226 0.49798 0.89764 0.0
H1031 H 0.9632 0.56081 0.89917 0.0
H1032 H 0.03338 0.54534 0.89403 0.0
H1033 H 0.99328 0.48243 0.89324 0.0
H1034 H 0.04093 0.50707 0.91231 0.0
H1035 H 0.96487 0.4642 0.98761 0.0
H1036 H 0.90969 0.3802 0.97841 0.0
H1037 H 0.915 0.41951 0.91245 0.0
C1038 C 0.04374 0.60424 0.93194 0.0
C1039 C 0.06927 0.63395 0.94906 0.0
C1040 C 0.05852 0.61601 0.96996 0.0
C1041 C 0.02486 0.56817 0.97366 0.0
C1042 C 1.00181 0.53914 0.9563 0.0
C1043 C 0.00968 0.55695 0.9359 0.0
C1044 C 0.98139 0.51831 0.9199 0.0
C1045 C 0.94492 0.52759 0.90857 0.0
C1046 C 0.01422 0.513 0.90394 0.0
C1047 C 0.95731 0.47569 0.93437 0.0
C1048 C 0.96991 0.48821 0.95529 0.0
C1049 C 0.95414 0.45421 0.97133 0.0
C1050 C 0.92336 0.40652 0.96593 0.0
C1051 C 0.90824 0.39343 0.94473 0.0
C1052 C 0.92593 0.42855 0.9288 0.0
H1053 H 0.51137 0.92744 0.30127 0.0
H1054 H 0.62062 0.96599 0.25372 0.0
H1055 H 0.61375 0.03607 0.2442 0.0
H1056 H 0.43804 0.95474 0.27219 0.0
H1057 H 0.42018 0.97878 0.2937 0.0
H1058 H 0.43777 0.9354 0.29897 0.0
H1059 H 0.5019 0.99235 0.32536 0.0
H1060 H 0.48372 0.03553 0.32061 0.0
H1061 H 0.54489 0.05133 0.31692 0.0
H1062 H 0.5863 0.09362 0.23622 0.0
H1063 H 0.55194 0.14539 0.23433 0.0
H1064 H 0.46159 0.07269 0.28832 0.0
C1065 C 0.53501 0.95164 0.2894 0.0
C1066 C 0.5673 0.94198 0.27848 0.0
C1067 C 0.59682 0.97368 0.26267 0.0
C1068 C 0.59262 0.01313 0.257 0.0
C1069 C 0.55893 0.02048 0.26742 0.0
C1070 C 0.53151 0.99142 0.2837 0.0
C1071 C 0.49688 0.0064 0.29182 0.0
C1072 C 0.44516 0.96645 0.289 0.0
C1073 C 0.5075 0.02237 0.31505 0.0
C1074 C 0.50835 0.04784 0.27722 0.0
C1075 C 0.54397 0.05486 0.26319 0.0
C1076 C 0.55918 0.08913 0.24744 0.0
C1077 C 0.53898 0.11827 0.24646 0.0
C1078 C 0.50417 0.11391 0.26135 0.0
C1079 C 0.48814 0.07737 0.27673 0.0
loop_
_geom_bond_atom_site_label_1
_geom_bond_atom_site_label_2
_geom_bond_distance
_geom_bond_site_symmetry_2
_ccdc_geom_bond_type
Mn0 O5 2.095 . S
Mn0 O15 2.162 . S
Mn0 O16 2.297 . S
Mn0 O24 2.385 . S
Mn0 O25 2.209 . S
Mn0 O26 2.094 . S
Mn1 O6 2.121 . S
Mn1 N8 2.257 . S
Mn1 N17 2.282 . S
Mn1 O25 2.215 . S
Mn1 O27 2.117 . S
C2 O24 1.234 . S
C2 O25 1.283 . S
C3 O15 1.281 . S
C3 O16 1.236 . S
C4 O26 1.240 . S
C4 O27 1.264 . S
O5 Mn0 2.095 . S
O5 C14 1.250 . S
O6 Mn1 2.121 . S
O6 C14 1.258 . S
C7 N8 1.326 . S
C7 C11 1.460 . S
C7 H13 0.929 . S
N8 Mn1 2.257 . S
N8 C7 1.326 . S
N8 C12 1.362 . S
C9 C10 1.258 . S
C9 C12 1.431 . S
C9 C29 1.449 . S
C10 C9 1.258 . S
C10 C11 1.477 . S
C10 H30 0.931 . S
C11 C7 1.460 . S
C11 C10 1.477 . S
C11 H31 0.930 . S
C12 N8 1.362 . S
C12 C9 1.431 . S
C12 C22 1.476 . S
H13 C7 0.929 . S
C14 O5 1.250 . S
C14 O6 1.258 . S
O15 Mn0 2.162 . S
O15 C3 1.281 . S
O16 Mn0 2.297 . S
O16 C3 1.236 . S
N17 Mn1 2.282 . S
N17 C18 1.328 . S
N17 C22 1.318 . S
C18 N17 1.328 . S
C18 C19 1.457 . S
C18 H23 0.929 . S
C19 C18 1.457 . S
C19 C20 1.291 . S
C19 H32 0.931 . S
C20 C19 1.291 . S
C20 C21 1.373 . S
C20 H33 0.929 . S
C21 C20 1.373 . S
C21 C22 1.396 . S
C21 C28 1.403 . S
C22 C12 1.476 . S
C22 N17 1.318 . S
C22 C21 1.396 . S
H23 C18 0.929 . S
O24 Mn0 2.385 . S
O24 C2 1.234 . S
O25 Mn0 2.209 . S
O25 Mn1 2.215 . S
O25 C2 1.283 . S
O26 Mn0 2.094 . S
O26 C4 1.240 . S
O27 Mn1 2.117 . S
O27 C4 1.264 . S
C28 C21 1.403 . S
C28 C29 1.399 . S
C28 H34 0.929 . S
C29 C9 1.449 . S
C29 C28 1.399 . S
C29 H35 0.930 . S
H30 C10 0.931 . S
H31 C11 0.930 . S
H32 C19 0.931 . S
H33 C20 0.929 . S
H34 C28 0.929 . S
H35 C29 0.930 . S
Mn36 O41 2.095 . S
Mn36 O51 2.162 . S
Mn36 O52 2.297 . S
Mn36 O60 2.385 . S
Mn36 O61 2.209 . S
Mn36 O62 2.094 . S
Mn37 O42 2.121 . S
Mn37 N44 2.257 . S
Mn37 N53 2.282 . S
Mn37 O61 2.215 . S
Mn37 O63 2.117 . S
C38 O60 1.234 . S
C38 O61 1.283 . S
C39 O51 1.281 . S
C39 O52 1.236 . S
C40 O62 1.240 . S
C40 O63 1.264 . S
O41 Mn36 2.095 . S
O41 C50 1.250 . S
O42 Mn37 2.121 . S
O42 C50 1.258 . S
C43 N44 1.326 . S
C43 C47 1.460 . S
C43 H49 0.929 . S
N44 Mn37 2.257 . S
N44 C43 1.326 . S
N44 C48 1.362 . S
C45 C46 1.258 . S
C45 C48 1.431 . S
C45 C65 1.449 . S
C46 C45 1.258 . S
C46 C47 1.477 . S
C46 H66 0.931 . S
C47 C43 1.460 . S
C47 C46 1.477 . S
C47 H67 0.930 . S
C48 N44 1.362 . S
C48 C45 1.431 . S
C48 C58 1.476 . S
H49 C43 0.929 . S
C50 O41 1.250 . S
C50 O42 1.258 . S
O51 Mn36 2.162 . S
O51 C39 1.281 . S
O52 Mn36 2.297 . S
O52 C39 1.236 . S
N53 Mn37 2.282 . S
N53 C54 1.328 . S
N53 C58 1.318 . S
C54 N53 1.328 . S
C54 C55 1.457 . S
C54 H59 0.929 . S
C55 C54 1.457 . S
C55 C56 1.291 . S
C55 H68 0.931 . S
C56 C55 1.291 . S
C56 C57 1.373 . S
C56 H69 0.929 . S
C57 C56 1.373 . S
C57 C58 1.396 . S
C57 C64 1.403 . S
C58 C48 1.476 . S
C58 N53 1.318 . S
C58 C57 1.396 . S
H59 C54 0.929 . S
O60 Mn36 2.385 . S
O60 C38 1.234 . S
O61 Mn36 2.209 . S
O61 Mn37 2.215 . S
O61 C38 1.283 . S
O62 Mn36 2.094 . S
O62 C40 1.240 . S
O63 Mn37 2.117 . S
O63 C40 1.264 . S
C64 C57 1.403 . S
C64 C65 1.399 . S
C64 H70 0.929 . S
C65 C45 1.449 . S
C65 C64 1.399 . S
C65 H71 0.930 . S
H66 C46 0.931 . S
H67 C47 0.930 . S
H68 C55 0.931 . S
H69 C56 0.929 . S
H70 C64 0.929 . S
H71 C65 0.930 . S
Mn72 O77 2.095 . S
Mn72 O87 2.162 . S
Mn72 O88 2.297 . S
Mn72 O96 2.385 . S
Mn72 O97 2.209 . S
Mn72 O98 2.094 . S
Mn73 O78 2.121 . S
Mn73 N80 2.257 . S
Mn73 N89 2.282 . S
Mn73 O97 2.215 . S
Mn73 O99 2.117 . S
C74 O96 1.234 . S
C74 O97 1.283 . S
C75 O87 1.281 . S
C75 O88 1.236 . S
C76 O98 1.240 . S
C76 O99 1.264 . S
O77 Mn72 2.095 . S
O77 C86 1.250 . S
O78 Mn73 2.121 . S
O78 C86 1.258 . S
C79 N80 1.326 . S
C79 C83 1.460 . S
C79 H85 0.929 . S
N80 Mn73 2.257 . S
N80 C79 1.326 . S
N80 C84 1.362 . S
C81 C82 1.258 . S
C81 C84 1.431 . S
C81 C101 1.449 . S
C82 C81 1.258 . S
C82 C83 1.477 . S
C82 H102 0.931 . S
C83 C79 1.460 . S
C83 C82 1.477 . S
C83 H103 0.930 . S
C84 N80 1.362 . S
C84 C81 1.431 . S
C84 C94 1.476 . S
H85 C79 0.929 . S
C86 O77 1.250 . S
C86 O78 1.258 . S
O87 Mn72 2.162 . S
O87 C75 1.281 . S
O88 Mn72 2.297 . S
O88 C75 1.236 . S
N89 Mn73 2.282 . S
N89 C90 1.328 . S
N89 C94 1.318 . S
C90 N89 1.328 . S
C90 C91 1.457 . S
C90 H95 0.929 . S
C91 C90 1.457 . S
C91 C92 1.291 . S
C91 H104 0.931 . S
C92 C91 1.291 . S
C92 C93 1.373 . S
C92 H105 0.929 . S
C93 C92 1.373 . S
C93 C94 1.396 . S
C93 C100 1.403 . S
C94 C84 1.476 . S
C94 N89 1.318 . S
C94 C93 1.396 . S
H95 C90 0.929 . S
O96 Mn72 2.385 . S
O96 C74 1.234 . S
O97 Mn72 2.209 . S
O97 Mn73 2.215 . S
O97 C74 1.283 . S
O98 Mn72 2.094 . S
O98 C76 1.240 . S
O99 Mn73 2.117 . S
O99 C76 1.264 . S
C100 C93 1.403 . S
C100 C101 1.399 . S
C100 H106 0.929 . S
C101 C81 1.449 . S
C101 C100 1.399 . S
C101 H107 0.930 . S
H102 C82 0.931 . S
H103 C83 0.930 . S
H104 C91 0.931 . S
H105 C92 0.929 . S
H106 C100 0.929 . S
H107 C101 0.930 . S
Mn108 O113 2.095 . S
Mn108 O123 2.162 . S
Mn108 O124 2.297 . S
Mn108 O132 2.385 . S
Mn108 O133 2.209 . S
Mn108 O134 2.094 . S
Mn109 O114 2.121 . S
Mn109 N116 2.257 . S
Mn109 N125 2.282 . S
Mn109 O133 2.215 . S
Mn109 O135 2.117 . S
C110 O132 1.234 . S
C110 O133 1.283 . S
C111 O123 1.281 . S
C111 O124 1.236 . S
C112 O134 1.240 . S
C112 O135 1.264 . S
O113 Mn108 2.095 . S
O113 C122 1.250 . S
O114 Mn109 2.121 . S
O114 C122 1.258 . S
C115 N116 1.326 . S
C115 C119 1.460 . S
C115 H121 0.929 . S
N116 Mn109 2.257 . S
N116 C115 1.326 . S
N116 C120 1.362 . S
C117 C118 1.258 . S
C117 C120 1.431 . S
C117 C137 1.449 . S
C118 C117 1.258 . S
C118 C119 1.477 . S
C118 H138 0.931 . S
C119 C115 1.460 . S
C119 C118 1.477 . S
C119 H139 0.930 . S
C120 N116 1.362 . S
C120 C117 1.431 . S
C120 C130 1.476 . S
H121 C115 0.929 . S
C122 O113 1.250 . S
C122 O114 1.258 . S
O123 Mn108 2.162 . S
O123 C111 1.281 . S
O124 Mn108 2.297 . S
O124 C111 1.236 . S
N125 Mn109 2.282 . S
N125 C126 1.328 . S
N125 C130 1.318 . S
C126 N125 1.328 . S
C126 C127 1.457 . S
C126 H131 0.929 . S
C127 C126 1.457 . S
C127 C128 1.291 . S
C127 H140 0.931 . S
C128 C127 1.291 . S
C128 C129 1.373 . S
C128 H141 0.929 . S
C129 C128 1.373 . S
C129 C130 1.396 . S
C129 C136 1.403 . S
C130 C120 1.476 . S
C130 N125 1.318 . S
C130 C129 1.396 . S
H131 C126 0.929 . S
O132 Mn108 2.385 . S
O132 C110 1.234 . S
O133 Mn108 2.209 . S
O133 Mn109 2.215 . S
O133 C110 1.283 . S
O134 Mn108 2.094 . S
O134 C112 1.240 . S
O135 Mn109 2.117 . S
O135 C112 1.264 . S
C136 C129 1.403 . S
C136 C137 1.399 . S
C136 H142 0.929 . S
C137 C117 1.449 . S
C137 C136 1.399 . S
C137 H143 0.930 . S
H138 C118 0.931 . S
H139 C119 0.930 . S
H140 C127 0.931 . S
H141 C128 0.929 . S
H142 C136 0.929 . S
H143 C137 0.930 . S
Mn144 O149 2.095 . S
Mn144 O159 2.162 . S
Mn144 O160 2.297 . S
Mn144 O168 2.385 . S
Mn144 O169 2.209 . S
Mn144 O170 2.094 . S
Mn145 O150 2.121 . S
Mn145 N152 2.257 . S
Mn145 N161 2.282 . S
Mn145 O169 2.215 . S
Mn145 O171 2.117 . S
C146 O168 1.234 . S
C146 O169 1.283 . S
C147 O159 1.281 . S
C147 O160 1.236 . S
C148 O170 1.240 . S
C148 O171 1.264 . S
O149 Mn144 2.095 . S
O149 C158 1.250 . S
O150 Mn145 2.121 . S
O150 C158 1.258 . S
C151 N152 1.326 . S
C151 C155 1.460 . S
C151 H157 0.929 . S
N152 Mn145 2.257 . S
N152 C151 1.326 . S
N152 C156 1.362 . S
C153 C154 1.258 . S
C153 C156 1.431 . S
C153 C173 1.449 . S
C154 C153 1.258 . S
C154 C155 1.477 . S
C154 H174 0.931 . S
C155 C151 1.460 . S
C155 C154 1.477 . S
C155 H175 0.930 . S
C156 N152 1.362 . S
C156 C153 1.431 . S
C156 C166 1.476 . S
H157 C151 0.929 . S
C158 O149 1.250 . S
C158 O150 1.258 . S
O159 Mn144 2.162 . S
O159 C147 1.281 . S
O160 Mn144 2.297 . S
O160 C147 1.236 . S
N161 Mn145 2.282 . S
N161 C162 1.328 . S
N161 C166 1.318 . S
C162 N161 1.328 . S
C162 C163 1.457 . S
C162 H167 0.929 . S
C163 C162 1.457 . S
C163 C164 1.291 . S
C163 H176 0.931 . S
C164 C163 1.291 . S
C164 C165 1.373 . S
C164 H177 0.929 . S
C165 C164 1.373 . S
C165 C166 1.396 . S
C165 C172 1.403 . S
C166 C156 1.476 . S
C166 N161 1.318 . S
C166 C165 1.396 . S
H167 C162 0.929 . S
O168 Mn144 2.385 . S
O168 C146 1.234 . S
O169 Mn144 2.209 . S
O169 Mn145 2.215 . S
O169 C146 1.283 . S
O170 Mn144 2.094 . S
O170 C148 1.240 . S
O171 Mn145 2.117 . S
O171 C148 1.264 . S
C172 C165 1.403 . S
C172 C173 1.399 . S
C172 H178 0.929 . S
C173 C153 1.449 . S
C173 C172 1.399 . S
C173 H179 0.930 . S
H174 C154 0.931 . S
H175 C155 0.930 . S
H176 C163 0.931 . S
H177 C164 0.929 . S
H178 C172 0.929 . S
H179 C173 0.930 . S
Mn180 O185 2.095 . S
Mn180 O195 2.162 . S
Mn180 O196 2.297 . S
Mn180 O204 2.385 . S
Mn180 O205 2.209 . S
Mn180 O206 2.094 . S
Mn181 O186 2.121 . S
Mn181 N188 2.257 . S
Mn181 N197 2.282 . S
Mn181 O205 2.215 . S
Mn181 O207 2.117 . S
C182 O204 1.234 . S
C182 O205 1.283 . S
C183 O195 1.281 . S
C183 O196 1.236 . S
C184 O206 1.240 . S
C184 O207 1.264 . S
O185 Mn180 2.095 . S
O185 C194 1.250 . S
O186 Mn181 2.121 . S
O186 C194 1.258 . S
C187 N188 1.326 . S
C187 C191 1.460 . S
C187 H193 0.929 . S
N188 Mn181 2.257 . S
N188 C187 1.326 . S
N188 C192 1.362 . S
C189 C190 1.258 . S
C189 C192 1.431 . S
C189 C209 1.449 . S
C190 C189 1.258 . S
C190 C191 1.477 . S
C190 H210 0.931 . S
C191 C187 1.460 . S
C191 C190 1.477 . S
C191 H211 0.930 . S
C192 N188 1.362 . S
C192 C189 1.431 . S
C192 C202 1.476 . S
H193 C187 0.929 . S
C194 O185 1.250 . S
C194 O186 1.258 . S
O195 Mn180 2.162 . S
O195 C183 1.281 . S
O196 Mn180 2.297 . S
O196 C183 1.236 . S
N197 Mn181 2.282 . S
N197 C198 1.328 . S
N197 C202 1.318 . S
C198 N197 1.328 . S
C198 C199 1.457 . S
C198 H203 0.929 . S
C199 C198 1.457 . S
C199 C200 1.291 . S
C199 H212 0.931 . S
C200 C199 1.291 . S
C200 C201 1.373 . S
C200 H213 0.929 . S
C201 C200 1.373 . S
C201 C202 1.396 . S
C201 C208 1.403 . S
C202 C192 1.476 . S
C202 N197 1.318 . S
C202 C201 1.396 . S
H203 C198 0.929 . S
O204 Mn180 2.385 . S
O204 C182 1.234 . S
O205 Mn180 2.209 . S
O205 Mn181 2.215 . S
O205 C182 1.283 . S
O206 Mn180 2.094 . S
O206 C184 1.240 . S
O207 Mn181 2.117 . S
O207 C184 1.264 . S
C208 C201 1.403 . S
C208 C209 1.399 . S
C208 H214 0.929 . S
C209 C189 1.449 . S
C209 C208 1.399 . S
C209 H215 0.930 . S
H210 C190 0.931 . S
H211 C191 0.930 . S
H212 C199 0.931 . S
H213 C200 0.929 . S
H214 C208 0.929 . S
H215 C209 0.930 . S
Mn216 O221 2.095 . S
Mn216 O231 2.162 . S
Mn216 O232 2.297 . S
Mn216 O240 2.385 . S
Mn216 O241 2.209 . S
Mn216 O242 2.094 . S
Mn217 O222 2.121 . S
Mn217 N224 2.257 . S
Mn217 N233 2.282 . S
Mn217 O241 2.215 . S
Mn217 O243 2.117 . S
C218 O240 1.234 . S
C218 O241 1.283 . S
C219 O231 1.281 . S
C219 O232 1.236 . S
C220 O242 1.240 . S
C220 O243 1.264 . S
O221 Mn216 2.095 . S
O221 C230 1.250 . S
O222 Mn217 2.121 . S
O222 C230 1.258 . S
C223 N224 1.326 . S
C223 C227 1.460 . S
C223 H229 0.929 . S
N224 Mn217 2.257 . S
N224 C223 1.326 . S
N224 C228 1.362 . S
C225 C226 1.258 . S
C225 C228 1.431 . S
C225 C245 1.449 . S
C226 C225 1.258 . S
C226 C227 1.477 . S
C226 H246 0.931 . S
C227 C223 1.460 . S
C227 C226 1.477 . S
C227 H247 0.930 . S
C228 N224 1.362 . S
C228 C225 1.431 . S
C228 C238 1.476 . S
H229 C223 0.929 . S
C230 O221 1.250 . S
C230 O222 1.258 . S
O231 Mn216 2.162 . S
O231 C219 1.281 . S
O232 Mn216 2.297 . S
O232 C219 1.236 . S
N233 Mn217 2.282 . S
N233 C234 1.328 . S
N233 C238 1.318 . S
C234 N233 1.328 . S
C234 C235 1.457 . S
C234 H239 0.929 . S
C235 C234 1.457 . S
C235 C236 1.291 . S
C235 H248 0.931 . S
C236 C235 1.291 . S
C236 C237 1.373 . S
C236 H249 0.929 . S
C237 C236 1.373 . S
C237 C238 1.396 . S
C237 C244 1.403 . S
C238 C228 1.476 . S
C238 N233 1.318 . S
C238 C237 1.396 . S
H239 C234 0.929 . S
O240 Mn216 2.385 . S
O240 C218 1.234 . S
O241 Mn216 2.209 . S
O241 Mn217 2.215 . S
O241 C218 1.283 . S
O242 Mn216 2.094 . S
O242 C220 1.240 . S
O243 Mn217 2.117 . S
O243 C220 1.264 . S
C244 C237 1.403 . S
C244 C245 1.399 . S
C244 H250 0.929 . S
C245 C225 1.449 . S
C245 C244 1.399 . S
C245 H251 0.930 . S
H246 C226 0.931 . S
H247 C227 0.930 . S
H248 C235 0.931 . S
H249 C236 0.929 . S
H250 C244 0.929 . S
H251 C245 0.930 . S
Mn252 O257 2.095 . S
Mn252 O267 2.162 . S
Mn252 O268 2.297 . S
Mn252 O276 2.385 . S
Mn252 O277 2.209 . S
Mn252 O278 2.094 . S
Mn253 O258 2.121 . S
Mn253 N260 2.257 . S
Mn253 N269 2.282 . S
Mn253 O277 2.215 . S
Mn253 O279 2.117 . S
C254 O276 1.234 . S
C254 O277 1.283 . S
C255 O267 1.281 . S
C255 O268 1.236 . S
C256 O278 1.240 . S
C256 O279 1.264 . S
O257 Mn252 2.095 . S
O257 C266 1.250 . S
O258 Mn253 2.121 . S
O258 C266 1.258 . S
C259 N260 1.326 . S
C259 C263 1.460 . S
C259 H265 0.929 . S
N260 Mn253 2.257 . S
N260 C259 1.326 . S
N260 C264 1.362 . S
C261 C262 1.258 . S
C261 C264 1.431 . S
C261 C281 1.449 . S
C262 C261 1.258 . S
C262 C263 1.477 . S
C262 H282 0.931 . S
C263 C259 1.460 . S
C263 C262 1.477 . S
C263 H283 0.930 . S
C264 N260 1.362 . S
C264 C261 1.431 . S
C264 C274 1.476 . S
H265 C259 0.929 . S
C266 O257 1.250 . S
C266 O258 1.258 . S
O267 Mn252 2.162 . S
O267 C255 1.281 . S
O268 Mn252 2.297 . S
O268 C255 1.236 . S
N269 Mn253 2.282 . S
N269 C270 1.328 . S
N269 C274 1.318 . S
C270 N269 1.328 . S
C270 C271 1.457 . S
C270 H275 0.929 . S
C271 C270 1.457 . S
C271 C272 1.291 . S
C271 H284 0.931 . S
C272 C271 1.291 . S
C272 C273 1.373 . S
C272 H285 0.929 . S
C273 C272 1.373 . S
C273 C274 1.396 . S
C273 C280 1.403 . S
C274 C264 1.476 . S
C274 N269 1.318 . S
C274 C273 1.396 . S
H275 C270 0.929 . S
O276 Mn252 2.385 . S
O276 C254 1.234 . S
O277 Mn252 2.209 . S
O277 Mn253 2.215 . S
O277 C254 1.283 . S
O278 Mn252 2.094 . S
O278 C256 1.240 . S
O279 Mn253 2.117 . S
O279 C256 1.264 . S
C280 C273 1.403 . S
C280 C281 1.399 . S
C280 H286 0.929 . S
C281 C261 1.449 . S
C281 C280 1.399 . S
C281 H287 0.930 . S
H282 C262 0.931 . S
H283 C263 0.930 . S
H284 C271 0.931 . S
H285 C272 0.929 . S
H286 C280 0.929 . S
H287 C281 0.930 . S
Mn288 O293 2.095 . S
Mn288 O303 2.162 . S
Mn288 O304 2.297 . S
Mn288 O312 2.385 . S
Mn288 O313 2.209 . S
Mn288 O314 2.094 . S
Mn289 O294 2.121 . S
Mn289 N296 2.257 . S
Mn289 N305 2.282 . S
Mn289 O313 2.215 . S
Mn289 O315 2.117 . S
C290 O312 1.234 . S
C290 O313 1.283 . S
C291 O303 1.281 . S
C291 O304 1.236 . S
C292 O314 1.240 . S
C292 O315 1.264 . S
O293 Mn288 2.095 . S
O293 C302 1.250 . S
O294 Mn289 2.121 . S
O294 C302 1.258 . S
C295 N296 1.326 . S
C295 C299 1.460 . S
C295 H301 0.929 . S
N296 Mn289 2.257 . S
N296 C295 1.326 . S
N296 C300 1.362 . S
C297 C298 1.258 . S
C297 C300 1.431 . S
C297 C317 1.449 . S
C298 C297 1.258 . S
C298 C299 1.477 . S
C298 H318 0.931 . S
C299 C295 1.460 . S
C299 C298 1.477 . S
C299 H319 0.930 . S
C300 N296 1.362 . S
C300 C297 1.431 . S
C300 C310 1.476 . S
H301 C295 0.929 . S
C302 O293 1.250 . S
C302 O294 1.258 . S
O303 Mn288 2.162 . S
O303 C291 1.281 . S
O304 Mn288 2.297 . S
O304 C291 1.236 . S
N305 Mn289 2.282 . S
N305 C306 1.328 . S
N305 C310 1.318 . S
C306 N305 1.328 . S
C306 C307 1.457 . S
C306 H311 0.929 . S
C307 C306 1.457 . S
C307 C308 1.291 . S
C307 H320 0.931 . S
C308 C307 1.291 . S
C308 C309 1.373 . S
C308 H321 0.929 . S
C309 C308 1.373 . S
C309 C310 1.396 . S
C309 C316 1.403 . S
C310 C300 1.476 . S
C310 N305 1.318 . S
C310 C309 1.396 . S
H311 C306 0.929 . S
O312 Mn288 2.385 . S
O312 C290 1.234 . S
O313 Mn288 2.209 . S
O313 Mn289 2.215 . S
O313 C290 1.283 . S
O314 Mn288 2.094 . S
O314 C292 1.240 . S
O315 Mn289 2.117 . S
O315 C292 1.264 . S
C316 C309 1.403 . S
C316 C317 1.399 . S
C316 H322 0.929 . S
C317 C297 1.449 . S
C317 C316 1.399 . S
C317 H323 0.930 . S
H318 C298 0.931 . S
H319 C299 0.930 . S
H320 C307 0.931 . S
H321 C308 0.929 . S
H322 C316 0.929 . S
H323 C317 0.930 . S
Mn324 O329 2.095 . S
Mn324 O339 2.162 . S
Mn324 O340 2.297 . S
Mn324 O348 2.385 . S
Mn324 O349 2.209 . S
Mn324 O350 2.094 . S
Mn325 O330 2.121 . S
Mn325 N332 2.257 . S
Mn325 N341 2.282 . S
Mn325 O349 2.215 . S
Mn325 O351 2.117 . S
C326 O348 1.234 . S
C326 O349 1.283 . S
C327 O339 1.281 . S
C327 O340 1.236 . S
C328 O350 1.240 . S
C328 O351 1.264 . S
O329 Mn324 2.095 . S
O329 C338 1.250 . S
O330 Mn325 2.121 . S
O330 C338 1.258 . S
C331 N332 1.326 . S
C331 C335 1.460 . S
C331 H337 0.929 . S
N332 Mn325 2.257 . S
N332 C331 1.326 . S
N332 C336 1.362 . S
C333 C334 1.258 . S
C333 C336 1.431 . S
C333 C353 1.449 . S
C334 C333 1.258 . S
C334 C335 1.477 . S
C334 H354 0.931 . S
C335 C331 1.460 . S
C335 C334 1.477 . S
C335 H355 0.930 . S
C336 N332 1.362 . S
C336 C333 1.431 . S
C336 C346 1.476 . S
H337 C331 0.929 . S
C338 O329 1.250 . S
C338 O330 1.258 . S
O339 Mn324 2.162 . S
O339 C327 1.281 . S
O340 Mn324 2.297 . S
O340 C327 1.236 . S
N341 Mn325 2.282 . S
N341 C342 1.328 . S
N341 C346 1.318 . S
C342 N341 1.328 . S
C342 C343 1.457 . S
C342 H347 0.929 . S
C343 C342 1.457 . S
C343 C344 1.291 . S
C343 H356 0.931 . S
C344 C343 1.291 . S
C344 C345 1.373 . S
C344 H357 0.929 . S
C345 C344 1.373 . S
C345 C346 1.396 . S
C345 C352 1.403 . S
C346 C336 1.476 . S
C346 N341 1.318 . S
C346 C345 1.396 . S
H347 C342 0.929 . S
O348 Mn324 2.385 . S
O348 C326 1.234 . S
O349 Mn324 2.209 . S
O349 Mn325 2.215 . S
O349 C326 1.283 . S
O350 Mn324 2.094 . S
O350 C328 1.240 . S
O351 Mn325 2.117 . S
O351 C328 1.264 . S
C352 C345 1.403 . S
C352 C353 1.399 . S
C352 H358 0.929 . S
C353 C333 1.449 . S
C353 C352 1.399 . S
C353 H359 0.930 . S
H354 C334 0.931 . S
H355 C335 0.930 . S
H356 C343 0.931 . S
H357 C344 0.929 . S
H358 C352 0.929 . S
H359 C353 0.930 . S
Mn360 O365 2.095 . S
Mn360 O375 2.162 . S
Mn360 O376 2.297 . S
Mn360 O384 2.385 . S
Mn360 O385 2.209 . S
Mn360 O386 2.094 . S
Mn361 O366 2.121 . S
Mn361 N368 2.257 . S
Mn361 N377 2.282 . S
Mn361 O385 2.215 . S
Mn361 O387 2.117 . S
C362 O384 1.234 . S
C362 O385 1.283 . S
C363 O375 1.281 . S
C363 O376 1.236 . S
C364 O386 1.240 . S
C364 O387 1.264 . S
O365 Mn360 2.095 . S
O365 C374 1.250 . S
O366 Mn361 2.121 . S
O366 C374 1.258 . S
C367 N368 1.326 . S
C367 C371 1.460 . S
C367 H373 0.929 . S
N368 Mn361 2.257 . S
N368 C367 1.326 . S
N368 C372 1.362 . S
C369 C370 1.258 . S
C369 C372 1.431 . S
C369 C389 1.449 . S
C370 C369 1.258 . S
C370 C371 1.477 . S
C370 H390 0.931 . S
C371 C367 1.460 . S
C371 C370 1.477 . S
C371 H391 0.930 . S
C372 N368 1.362 . S
C372 C369 1.431 . S
C372 C382 1.476 . S
H373 C367 0.929 . S
C374 O365 1.250 . S
C374 O366 1.258 . S
O375 Mn360 2.162 . S
O375 C363 1.281 . S
O376 Mn360 2.297 . S
O376 C363 1.236 . S
N377 Mn361 2.282 . S
N377 C378 1.328 . S
N377 C382 1.318 . S
C378 N377 1.328 . S
C378 C379 1.457 . S
C378 H383 0.929 . S
C379 C378 1.457 . S
C379 C380 1.291 . S
C379 H392 0.931 . S
C380 C379 1.291 . S
C380 C381 1.373 . S
C380 H393 0.929 . S
C381 C380 1.373 . S
C381 C382 1.396 . S
C381 C388 1.403 . S
C382 C372 1.476 . S
C382 N377 1.318 . S
C382 C381 1.396 . S
H383 C378 0.929 . S
O384 Mn360 2.385 . S
O384 C362 1.234 . S
O385 Mn360 2.209 . S
O385 Mn361 2.215 . S
O385 C362 1.283 . S
O386 Mn360 2.094 . S
O386 C364 1.240 . S
O387 Mn361 2.117 . S
O387 C364 1.264 . S
C388 C381 1.403 . S
C388 C389 1.399 . S
C388 H394 0.929 . S
C389 C369 1.449 . S
C389 C388 1.399 . S
C389 H395 0.930 . S
H390 C370 0.931 . S
H391 C371 0.930 . S
H392 C379 0.931 . S
H393 C380 0.929 . S
H394 C388 0.929 . S
H395 C389 0.930 . S
Mn396 O401 2.095 . S
Mn396 O411 2.162 . S
Mn396 O412 2.297 . S
Mn396 O420 2.385 . S
Mn396 O421 2.209 . S
Mn396 O422 2.094 . S
Mn397 O402 2.121 . S
Mn397 N404 2.257 . S
Mn397 N413 2.282 . S
Mn397 O421 2.215 . S
Mn397 O423 2.117 . S
C398 O420 1.234 . S
C398 O421 1.283 . S
C399 O411 1.281 . S
C399 O412 1.236 . S
C400 O422 1.240 . S
C400 O423 1.264 . S
O401 Mn396 2.095 . S
O401 C410 1.250 . S
O402 Mn397 2.121 . S
O402 C410 1.258 . S
C403 N404 1.326 . S
C403 C407 1.460 . S
C403 H409 0.929 . S
N404 Mn397 2.257 . S
N404 C403 1.326 . S
N404 C408 1.362 . S
C405 C406 1.258 . S
C405 C408 1.431 . S
C405 C425 1.449 . S
C406 C405 1.258 . S
C406 C407 1.477 . S
C406 H426 0.931 . S
C407 C403 1.460 . S
C407 C406 1.477 . S
C407 H427 0.930 . S
C408 N404 1.362 . S
C408 C405 1.431 . S
C408 C418 1.476 . S
H409 C403 0.929 . S
C410 O401 1.250 . S
C410 O402 1.258 . S
O411 Mn396 2.162 . S
O411 C399 1.281 . S
O412 Mn396 2.297 . S
O412 C399 1.236 . S
N413 Mn397 2.282 . S
N413 C414 1.328 . S
N413 C418 1.318 . S
C414 N413 1.328 . S
C414 C415 1.457 . S
C414 H419 0.929 . S
C415 C414 1.457 . S
C415 C416 1.291 . S
C415 H428 0.931 . S
C416 C415 1.291 . S
C416 C417 1.373 . S
C416 H429 0.929 . S
C417 C416 1.373 . S
C417 C418 1.396 . S
C417 C424 1.403 . S
C418 C408 1.476 . S
C418 N413 1.318 . S
C418 C417 1.396 . S
H419 C414 0.929 . S
O420 Mn396 2.385 . S
O420 C398 1.234 . S
O421 Mn396 2.209 . S
O421 Mn397 2.215 . S
O421 C398 1.283 . S
O422 Mn396 2.094 . S
O422 C400 1.240 . S
O423 Mn397 2.117 . S
O423 C400 1.264 . S
C424 C417 1.403 . S
C424 C425 1.399 . S
C424 H430 0.929 . S
C425 C405 1.449 . S
C425 C424 1.399 . S
C425 H431 0.930 . S
H426 C406 0.931 . S
H427 C407 0.930 . S
H428 C415 0.931 . S
H429 C416 0.929 . S
H430 C424 0.929 . S
H431 C425 0.930 . S
H432 C444 0.930 1_554 S
H433 C446 0.930 . S
H434 C447 0.930 . S
H435 C451 0.959 . S
H436 C451 0.959 . S
H437 C451 0.961 . S
H438 C452 0.960 . S
H439 C452 0.961 . S
H440 C452 0.959 . S
H441 C455 0.929 . S
H442 C456 0.931 1_556 S
H443 C458 0.930 . S
C444 H432 0.930 1_556 S
C444 C445 1.399 . S
C444 C449 1.399 1_556 S
C445 C444 1.399 . S
C445 C446 1.376 . S
C446 H433 0.930 . S
C446 C445 1.376 . S
C446 C447 1.388 . S
C447 H434 0.930 . S
C447 C446 1.388 . S
C447 C448 1.390 . S
C448 C447 1.390 . S
C448 C449 1.394 1_556 S
C448 C454 1.465 1_565 S
C449 C444 1.399 1_554 S
C449 C448 1.394 1_554 S
C449 C450 1.516 . S
C450 C449 1.516 . S
C450 C451 1.502 . S
C450 C452 1.561 . S
C450 C453 1.526 1_565 S
C451 H435 0.959 . S
C451 H436 0.959 . S
C451 H437 0.961 . S
C451 C450 1.502 . S
C452 H438 0.960 . S
C452 H439 0.961 . S
C452 H440 0.959 . S
C452 C450 1.561 . S
C453 C450 1.526 1_545 S
C453 C454 1.396 1_554 S
C453 C458 1.390 . S
C454 C448 1.465 1_545 S
C454 C453 1.396 1_556 S
C454 C455 1.399 . S
C455 H441 0.929 . S
C455 C454 1.399 . S
C455 C456 1.385 1_556 S
C456 H442 0.931 1_554 S
C456 C455 1.385 1_554 S
C456 C457 1.389 . S
C457 C456 1.389 . S
C457 C458 1.387 . S
C458 H443 0.930 . S
C458 C453 1.390 . S
C458 C457 1.387 . S
H459 C471 0.930 . S
H460 C473 0.930 . S
H461 C474 0.930 . S
H462 C478 0.959 . S
H463 C478 0.959 . S
H464 C478 0.961 . S
H465 C479 0.960 . S
H466 C479 0.961 . S
H467 C479 0.959 . S
H468 C482 0.929 . S
H469 C483 0.931 . S
H470 C485 0.930 . S
C471 H459 0.930 . S
C471 C472 1.399 . S
C471 C476 1.399 . S
C472 C471 1.399 . S
C472 C473 1.376 . S
C473 H460 0.930 . S
C473 C472 1.376 . S
C473 C474 1.388 . S
C474 H461 0.930 . S
C474 C473 1.388 . S
C474 C475 1.390 . S
C475 C474 1.390 . S
C475 C476 1.394 . S
C475 C481 1.465 . S
C476 C471 1.399 . S
C476 C475 1.394 . S
C476 C477 1.516 . S
C477 C476 1.516 . S
C477 C478 1.502 . S
C477 C479 1.561 . S
C477 C480 1.526 . S
C478 H462 0.959 . S
C478 H463 0.959 . S
C478 H464 0.961 . S
C478 C477 1.502 . S
C479 H465 0.960 . S
C479 H466 0.961 . S
C479 H467 0.959 . S
C479 C477 1.561 . S
C480 C477 1.526 . S
C480 C481 1.396 . S
C480 C485 1.390 . S
C481 C475 1.465 . S
C481 C480 1.396 . S
C481 C482 1.399 . S
C482 H468 0.929 . S
C482 C481 1.399 . S
C482 C483 1.385 . S
C483 H469 0.931 . S
C483 C482 1.385 . S
C483 C484 1.389 . S
C484 C483 1.389 . S
C484 C485 1.387 . S
C485 H470 0.930 . S
C485 C480 1.390 . S
C485 C484 1.387 . S
H486 C498 0.930 . S
H487 C500 0.930 . S
H488 C501 0.930 . S
H489 C505 0.959 1_455 S
H490 C505 0.959 1_455 S
H491 C505 0.961 . S
H492 C506 0.960 . S
H493 C506 0.961 . S
H494 C506 0.959 . S
H495 C509 0.929 . S
H496 C510 0.931 . S
H497 C512 0.930 . S
C498 H486 0.930 . S
C498 C499 1.399 . S
C498 C503 1.399 . S
C499 C498 1.399 . S
C499 C500 1.376 . S
C500 H487 0.930 . S
C500 C499 1.376 . S
C500 C501 1.388 . S
C501 H488 0.930 . S
C501 C500 1.388 . S
C501 C502 1.390 . S
C502 C501 1.390 . S
C502 C503 1.394 . S
C502 C508 1.465 1_655 S
C503 C498 1.399 . S
C503 C502 1.394 . S
C503 C504 1.516 . S
C504 C503 1.516 . S
C504 C505 1.502 . S
C504 C506 1.561 . S
C504 C507 1.526 1_655 S
C505 H489 0.959 1_655 S
C505 H490 0.959 1_655 S
C505 H491 0.961 . S
C505 C504 1.502 . S
C506 H492 0.960 . S
C506 H493 0.961 . S
C506 H494 0.959 . S
C506 C504 1.561 . S
C507 C504 1.526 1_455 S
C507 C508 1.396 . S
C507 C512 1.390 . S
C508 C502 1.465 1_455 S
C508 C507 1.396 . S
C508 C509 1.399 . S
C509 H495 0.929 . S
C509 C508 1.399 . S
C509 C510 1.385 . S
C510 H496 0.931 . S
C510 C509 1.385 . S
C510 C511 1.389 . S
C511 C510 1.389 . S
C511 C512 1.387 . S
C512 H497 0.930 . S
C512 C507 1.390 . S
C512 C511 1.387 . S
H513 C525 0.930 . S
H514 C527 0.930 1_556 S
H515 C528 0.930 . S
H516 C532 0.959 . S
H517 C532 0.959 . S
H518 C532 0.961 . S
H519 C533 0.960 . S
H520 C533 0.961 . S
H521 C533 0.959 . S
H522 C536 0.929 . S
H523 C537 0.931 . S
H524 C539 0.930 1_554 S
C525 H513 0.930 . S
C525 C526 1.399 . S
C525 C530 1.399 . S
C526 C525 1.399 . S
C526 C527 1.376 . S
C527 H514 0.930 1_554 S
C527 C526 1.376 . S
C527 C528 1.388 1_554 S
C528 H515 0.930 . S
C528 C527 1.388 1_556 S
C528 C529 1.390 . S
C529 C528 1.390 . S
C529 C530 1.394 1_556 S
C529 C535 1.465 1_565 S
C530 C525 1.399 . S
C530 C529 1.394 1_554 S
C530 C531 1.516 1_565 S
C531 C530 1.516 1_545 S
C531 C532 1.502 . S
C531 C533 1.561 . S
C531 C534 1.526 . S
C532 H516 0.959 . S
C532 H517 0.959 . S
C532 H518 0.961 . S
C532 C531 1.502 . S
C533 H519 0.960 . S
C533 H520 0.961 . S
C533 H521 0.959 . S
C533 C531 1.561 . S
C534 C531 1.526 . S
C534 C535 1.396 1_554 S
C534 C539 1.390 1_554 S
C535 C529 1.465 1_545 S
C535 C534 1.396 1_556 S
C535 C536 1.399 . S
C536 H522 0.929 . S
C536 C535 1.399 . S
C536 C537 1.385 . S
C537 H523 0.931 . S
C537 C536 1.385 . S
C537 C538 1.389 . S
C538 C537 1.389 . S
C538 C539 1.387 . S
C539 H524 0.930 1_556 S
C539 C534 1.390 1_556 S
C539 C538 1.387 . S
H540 C552 0.930 . S
H541 C554 0.930 . S
H542 C555 0.930 . S
H543 C559 0.959 . S
H544 C559 0.959 . S
H545 C559 0.961 . S
H546 C560 0.960 . S
H547 C560 0.961 . S
H548 C560 0.959 . S
H549 C563 0.929 . S
H550 C564 0.931 . S
H551 C566 0.930 . S
C552 H540 0.930 . S
C552 C553 1.399 . S
C552 C557 1.399 . S
C553 C552 1.399 . S
C553 C554 1.376 . S
C554 H541 0.930 . S
C554 C553 1.376 . S
C554 C555 1.388 . S
C555 H542 0.930 . S
C555 C554 1.388 . S
C555 C556 1.390 . S
C556 C555 1.390 . S
C556 C557 1.394 . S
C556 C562 1.465 . S
C557 C552 1.399 . S
C557 C556 1.394 . S
C557 C558 1.516 . S
C558 C557 1.516 . S
C558 C559 1.502 . S
C558 C560 1.561 . S
C558 C561 1.526 . S
C559 H543 0.959 . S
C559 H544 0.959 . S
C559 H545 0.961 . S
C559 C558 1.502 . S
C560 H546 0.960 . S
C560 H547 0.961 . S
C560 H548 0.959 . S
C560 C558 1.561 . S
C561 C558 1.526 . S
C561 C562 1.396 . S
C561 C566 1.390 . S
C562 C556 1.465 . S
C562 C561 1.396 . S
C562 C563 1.399 . S
C563 H549 0.929 . S
C563 C562 1.399 . S
C563 C564 1.385 . S
C564 H550 0.931 . S
C564 C563 1.385 . S
C564 C565 1.389 . S
C565 C564 1.389 . S
C565 C566 1.387 . S
C566 H551 0.930 . S
C566 C561 1.390 . S
C566 C565 1.387 . S
H567 C579 0.930 . S
H568 C581 0.930 . S
H569 C582 0.930 . S
H570 C586 0.959 . S
H571 C586 0.959 . S
H572 C586 0.961 . S
H573 C587 0.960 . S
H574 C587 0.961 . S
H575 C587 0.959 . S
H576 C590 0.929 . S
H577 C591 0.931 . S
H578 C593 0.930 . S
C579 H567 0.930 . S
C579 C580 1.399 . S
C579 C584 1.399 . S
C580 C579 1.399 . S
C580 C581 1.376 . S
C581 H568 0.930 . S
C581 C580 1.376 . S
C581 C582 1.388 . S
C582 H569 0.930 . S
C582 C581 1.388 . S
C582 C583 1.390 . S
C583 C582 1.390 . S
C583 C584 1.394 . S
C583 C589 1.465 1_655 S
C584 C579 1.399 . S
C584 C583 1.394 . S
C584 C585 1.516 1_655 S
C585 C584 1.516 1_455 S
C585 C586 1.502 . S
C585 C587 1.561 . S
C585 C588 1.526 . S
C586 H570 0.959 . S
C586 H571 0.959 . S
C586 H572 0.961 . S
C586 C585 1.502 . S
C587 H573 0.960 . S
C587 H574 0.961 . S
C587 H575 0.959 . S
C587 C585 1.561 . S
C588 C585 1.526 . S
C588 C589 1.396 . S
C588 C593 1.390 . S
C589 C583 1.465 1_455 S
C589 C588 1.396 . S
C589 C590 1.399 . S
C590 H576 0.929 . S
C590 C589 1.399 . S
C590 C591 1.385 . S
C591 H577 0.931 . S
C591 C590 1.385 . S
C591 C592 1.389 . S
C592 C591 1.389 . S
C592 C593 1.387 . S
C593 H578 0.930 . S
C593 C588 1.390 . S
C593 C592 1.387 . S
H594 C606 0.930 . S
H595 C608 0.930 . S
H596 C609 0.930 . S
H597 C613 0.959 . S
H598 C613 0.959 . S
H599 C613 0.961 . S
H600 C614 0.960 . S
H601 C614 0.983 . S
H602 C614 0.959 . S
H603 C617 0.929 . S
H604 C618 0.931 . S
H605 C620 0.930 . S
C606 H594 0.930 . S
C606 C607 1.399 . S
C606 C611 1.399 . S
C607 C606 1.399 . S
C607 C608 1.376 . S
C608 H595 0.930 . S
C608 C607 1.376 . S
C608 C609 1.388 . S
C609 H596 0.930 . S
C609 C608 1.388 . S
C609 C610 1.390 . S
C610 C609 1.390 . S
C610 C611 1.394 . S
C610 C616 1.465 . S
C611 C606 1.399 . S
C611 C610 1.394 . S
C611 C612 1.516 1_556 S
C612 C611 1.516 1_554 S
C612 C613 1.502 . S
C612 C614 1.561 1_554 S
C612 C615 1.526 . S
C613 H597 0.959 . S
C613 H598 0.959 . S
C613 H599 0.961 . S
C613 C612 1.502 . S
C614 H600 0.960 . S
C614 H601 0.983 . S
C614 H602 0.959 . S
C614 C612 1.561 1_556 S
C615 C612 1.526 . S
C615 C616 1.396 1_554 S
C615 C620 1.390 . S
C616 C610 1.465 . S
C616 C615 1.396 1_556 S
C616 C617 1.399 . S
C617 H603 0.929 . S
C617 C616 1.399 . S
C617 C618 1.385 1_556 S
C618 H604 0.931 . S
C618 C617 1.385 1_554 S
C618 C619 1.389 . S
C619 C618 1.389 . S
C619 C620 1.387 . S
C620 H605 0.930 . S
C620 C615 1.390 . S
C620 C619 1.387 . S
H621 C633 0.930 . S
H622 C635 0.930 . S
H623 C636 0.930 . S
H624 C640 0.959 . S
H625 C640 0.959 . S
H626 C640 0.961 . S
H627 C641 0.960 . S
H628 C641 0.961 . S
H629 C641 0.959 . S
H630 C644 0.929 . S
H631 C645 0.931 . S
H632 C647 0.930 . S
C633 H621 0.930 . S
C633 C634 1.399 . S
C633 C638 1.399 . S
C634 C633 1.399 . S
C634 C635 1.376 . S
C635 H622 0.930 . S
C635 C634 1.376 . S
C635 C636 1.388 . S
C636 H623 0.930 . S
C636 C635 1.388 . S
C636 C637 1.390 . S
C637 C636 1.390 . S
C637 C638 1.394 . S
C637 C643 1.465 . S
C638 C633 1.399 . S
C638 C637 1.394 . S
C638 C639 1.516 . S
C639 C638 1.516 . S
C639 C640 1.502 . S
C639 C641 1.561 . S
C639 C642 1.526 . S
C640 H624 0.959 . S
C640 H625 0.959 . S
C640 H626 0.961 . S
C640 C639 1.502 . S
C641 H627 0.960 . S
C641 H628 0.961 . S
C641 H629 0.959 . S
C641 C639 1.561 . S
C642 C639 1.526 . S
C642 C643 1.396 . S
C642 C647 1.390 . S
C643 C637 1.465 . S
C643 C642 1.396 . S
C643 C644 1.399 . S
C644 H630 0.929 . S
C644 C643 1.399 . S
C644 C645 1.385 . S
C645 H631 0.931 . S
C645 C644 1.385 . S
C645 C646 1.389 . S
C646 C645 1.389 . S
C646 C647 1.387 . S
C647 H632 0.930 . S
C647 C642 1.390 . S
C647 C646 1.387 . S
H648 C660 0.930 . S
H649 C662 0.930 . S
H650 C663 0.930 . S
H651 C667 0.959 . S
H652 C667 0.959 . S
H653 C667 0.961 . S
H654 C668 0.960 . S
H655 C668 0.961 . S
H656 C668 0.959 . S
H657 C671 0.929 . S
H658 C672 0.931 . S
H659 C674 0.930 . S
C660 H648 0.930 . S
C660 C661 1.399 . S
C660 C665 1.399 . S
C661 C660 1.399 . S
C661 C662 1.376 . S
C662 H649 0.930 . S
C662 C661 1.376 . S
C662 C663 1.388 . S
C663 H650 0.930 . S
C663 C662 1.388 . S
C663 C664 1.390 . S
C664 C663 1.390 . S
C664 C665 1.394 . S
C664 C670 1.465 . S
C665 C660 1.399 . S
C665 C664 1.394 . S
C665 C666 1.516 . S
C666 C665 1.516 . S
C666 C667 1.502 . S
C666 C668 1.561 . S
C666 C669 1.526 . S
C667 H651 0.959 . S
C667 H652 0.959 . S
C667 H653 0.961 . S
C667 C666 1.502 . S
C668 H654 0.960 . S
C668 H655 0.961 . S
C668 H656 0.959 . S
C668 C666 1.561 . S
C669 C666 1.526 . S
C669 C670 1.396 . S
C669 C674 1.390 . S
C670 C664 1.465 . S
C670 C669 1.396 . S
C670 C671 1.399 . S
C671 H657 0.929 . S
C671 C670 1.399 . S
C671 C672 1.385 . S
C672 H658 0.931 . S
C672 C671 1.385 . S
C672 C673 1.389 . S
C673 C672 1.389 . S
C673 C674 1.387 . S
C674 H659 0.930 . S
C674 C669 1.390 . S
C674 C673 1.387 . S
H675 C687 0.930 . S
H676 C689 0.930 1_554 S
H677 C690 0.930 . S
H678 C694 0.959 . S
H679 C694 0.959 . S
H680 C694 0.961 . S
H681 C695 0.960 . S
H682 C695 0.961 . S
H683 C695 0.959 1_554 S
H684 C698 0.929 . S
H685 C699 0.931 . S
H686 C701 0.930 1_556 S
C687 H675 0.930 . S
C687 C688 1.399 . S
C687 C692 1.399 . S
C688 C687 1.399 . S
C688 C689 1.376 . S
C689 H676 0.930 1_556 S
C689 C688 1.376 . S
C689 C690 1.388 1_556 S
C690 H677 0.930 . S
C690 C689 1.388 1_554 S
C690 C691 1.390 . S
C691 C690 1.390 . S
C691 C692 1.394 1_554 S
C691 C697 1.465 . S
C692 C687 1.399 . S
C692 C691 1.394 1_556 S
C692 C693 1.516 . S
C693 C692 1.516 . S
C693 C694 1.502 . S
C693 C695 1.561 . S
C693 C696 1.526 1_556 S
C694 H678 0.959 . S
C694 H679 0.959 . S
C694 H680 0.961 . S
C694 C693 1.502 . S
C695 H681 0.960 . S
C695 H682 0.961 . S
C695 H683 0.959 1_556 S
C695 C693 1.561 . S
C696 C693 1.526 1_554 S
C696 C697 1.396 . S
C696 C701 1.390 . S
C697 C691 1.465 . S
C697 C696 1.396 . S
C697 C698 1.399 . S
C698 H684 0.929 . S
C698 C697 1.399 . S
C698 C699 1.385 . S
C699 H685 0.931 . S
C699 C698 1.385 . S
C699 C700 1.389 . S
C700 C699 1.389 . S
C700 C701 1.387 . S
C701 H686 0.930 1_554 S
C701 C696 1.390 . S
C701 C700 1.387 . S
H702 C714 0.930 . S
H703 C716 0.930 . S
H704 C717 0.930 . S
H705 C721 0.959 . S
H706 C721 0.959 . S
H707 C721 0.961 . S
H708 C722 0.960 . S
H709 C722 0.961 . S
H710 C722 0.959 . S
H711 C725 0.929 . S
H712 C726 0.931 . S
H713 C728 0.930 . S
C714 H702 0.930 . S
C714 C715 1.399 . S
C714 C719 1.399 . S
C715 C714 1.399 . S
C715 C716 1.376 . S
C716 H703 0.930 . S
C716 C715 1.376 . S
C716 C717 1.388 . S
C717 H704 0.930 . S
C717 C716 1.388 . S
C717 C718 1.390 . S
C718 C717 1.390 . S
C718 C719 1.394 . S
C718 C724 1.465 . S
C719 C714 1.399 . S
C719 C718 1.394 . S
C719 C720 1.516 . S
C720 C719 1.516 . S
C720 C721 1.502 . S
C720 C722 1.561 . S
C720 C723 1.526 . S
C721 H705 0.959 . S
C721 H706 0.959 . S
C721 H707 0.961 . S
C721 C720 1.502 . S
C722 H708 0.960 . S
C722 H709 0.961 . S
C722 H710 0.959 . S
C722 C720 1.561 . S
C723 C720 1.526 . S
C723 C724 1.396 . S
C723 C728 1.390 . S
C724 C718 1.465 . S
C724 C723 1.396 . S
C724 C725 1.399 . S
C725 H711 0.929 . S
C725 C724 1.399 . S
C725 C726 1.385 . S
C726 H712 0.931 . S
C726 C725 1.385 . S
C726 C727 1.389 . S
C727 C726 1.389 . S
C727 C728 1.387 . S
C728 H713 0.930 . S
C728 C723 1.390 . S
C728 C727 1.387 . S
H729 C741 0.930 . S
H730 C743 0.930 . S
H731 C744 0.930 . S
H732 C748 0.959 . S
H733 C748 0.959 . S
H734 C748 0.961 . S
H735 C749 0.960 . S
H736 C749 0.961 . S
H737 C749 0.959 . S
H738 C752 0.929 . S
H739 C753 0.931 . S
H740 C755 0.930 . S
C741 H729 0.930 . S
C741 C742 1.399 . S
C741 C746 1.399 . S
C742 C741 1.399 . S
C742 C743 1.376 . S
C743 H730 0.930 . S
C743 C742 1.376 . S
C743 C744 1.388 . S
C744 H731 0.930 . S
C744 C743 1.388 . S
C744 C745 1.390 . S
C745 C744 1.390 . S
C745 C746 1.394 . S
C745 C751 1.465 . S
C746 C741 1.399 . S
C746 C745 1.394 . S
C746 C747 1.516 . S
C747 C746 1.516 . S
C747 C748 1.502 . S
C747 C749 1.561 . S
C747 C750 1.526 . S
C748 H732 0.959 . S
C748 H733 0.959 . S
C748 H734 0.961 . S
C748 C747 1.502 . S
C749 H735 0.960 . S
C749 H736 0.961 . S
C749 H737 0.959 . S
C749 C747 1.561 . S
C750 C747 1.526 . S
C750 C751 1.396 . S
C750 C755 1.390 . S
C751 C745 1.465 . S
C751 C750 1.396 . S
C751 C752 1.399 . S
C752 H738 0.929 . S
C752 C751 1.399 . S
C752 C753 1.385 . S
C753 H739 0.931 . S
C753 C752 1.385 . S
C753 C754 1.389 . S
C754 C753 1.389 . S
C754 C755 1.387 . S
C755 H740 0.930 . S
C755 C750 1.390 . S
C755 C754 1.387 . S
H756 C768 0.930 . S
H757 C770 0.930 . S
H758 C771 0.930 . S
H759 C775 0.959 . S
H760 C775 0.959 . S
H761 C775 0.961 . S
H762 C776 0.960 . S
H763 C776 0.961 . S
H764 C776 0.959 . S
H765 C779 0.929 . S
H766 C780 0.931 . S
H767 C782 0.930 . S
C768 H756 0.930 . S
C768 C769 1.399 . S
C768 C773 1.399 . S
C769 C768 1.399 . S
C769 C770 1.376 . S
C770 H757 0.930 . S
C770 C769 1.376 . S
C770 C771 1.388 . S
C771 H758 0.930 . S
C771 C770 1.388 . S
C771 C772 1.390 . S
C772 C771 1.390 . S
C772 C773 1.394 . S
C772 C778 1.465 . S
C773 C768 1.399 . S
C773 C772 1.394 . S
C773 C774 1.516 . S
C774 C773 1.516 . S
C774 C775 1.502 . S
C774 C776 1.561 . S
C774 C777 1.526 . S
C775 H759 0.959 . S
C775 H760 0.959 . S
C775 H761 0.961 . S
C775 C774 1.502 . S
C776 H762 0.960 . S
C776 H763 0.961 . S
C776 H764 0.959 . S
C776 C774 1.561 . S
C777 C774 1.526 . S
C777 C778 1.396 . S
C777 C782 1.390 . S
C778 C772 1.465 . S
C778 C777 1.396 . S
C778 C779 1.399 . S
C779 H765 0.929 . S
C779 C778 1.399 . S
C779 C780 1.385 . S
C780 H766 0.931 . S
C780 C779 1.385 . S
C780 C781 1.389 . S
C781 C780 1.389 . S
C781 C782 1.387 . S
C782 H767 0.930 . S
C782 C777 1.390 . S
C782 C781 1.387 . S
H783 C795 0.930 . S
H784 C797 0.930 . S
H785 C798 0.930 . S
H786 C802 0.959 . S
H787 C802 0.959 . S
H788 C802 0.961 . S
H789 C803 0.960 . S
H790 C803 0.961 . S
H791 C803 0.959 . S
H792 C806 0.929 . S
H793 C807 0.931 . S
H794 C809 0.930 . S
C795 H783 0.930 . S
C795 C796 1.399 . S
C795 C800 1.399 . S
C796 C795 1.399 . S
C796 C797 1.376 . S
C797 H784 0.930 . S
C797 C796 1.376 . S
C797 C798 1.388 . S
C798 H785 0.930 . S
C798 C797 1.388 . S
C798 C799 1.390 . S
C799 C798 1.390 . S
C799 C800 1.394 . S
C799 C805 1.465 . S
C800 C795 1.399 . S
C800 C799 1.394 . S
C800 C801 1.516 . S
C801 C800 1.516 . S
C801 C802 1.502 . S
C801 C803 1.561 . S
C801 C804 1.526 . S
C802 H786 0.959 . S
C802 H787 0.959 . S
C802 H788 0.961 . S
C802 C801 1.502 . S
C803 H789 0.960 . S
C803 H790 0.961 . S
C803 H791 0.959 . S
C803 C801 1.561 . S
C804 C801 1.526 . S
C804 C805 1.396 . S
C804 C809 1.390 . S
C805 C799 1.465 . S
C805 C804 1.396 . S
C805 C806 1.399 . S
C806 H792 0.929 . S
C806 C805 1.399 . S
C806 C807 1.385 . S
C807 H793 0.931 . S
C807 C806 1.385 . S
C807 C808 1.389 . S
C808 C807 1.389 . S
C808 C809 1.387 . S
C809 H794 0.930 . S
C809 C804 1.390 . S
C809 C808 1.387 . S
H810 C822 0.930 . S
H811 C824 0.930 . S
H812 C825 0.930 . S
H813 C829 0.959 . S
H814 C829 0.959 . S
H815 C829 0.961 . S
H816 C830 0.960 . S
H817 C830 0.961 . S
H818 C830 0.959 . S
H819 C833 0.929 . S
H820 C834 0.931 . S
H821 C836 0.930 . S
C822 H810 0.930 . S
C822 C823 1.399 . S
C822 C827 1.399 . S
C823 C822 1.399 . S
C823 C824 1.376 . S
C824 H811 0.930 . S
C824 C823 1.376 . S
C824 C825 1.388 . S
C825 H812 0.930 . S
C825 C824 1.388 . S
C825 C826 1.390 . S
C826 C825 1.390 . S
C826 C827 1.394 . S
C826 C832 1.465 . S
C827 C822 1.399 . S
C827 C826 1.394 . S
C827 C828 1.516 . S
C828 C827 1.516 . S
C828 C829 1.502 . S
C828 C830 1.561 . S
C828 C831 1.526 . S
C829 H813 0.959 . S
C829 H814 0.959 . S
C829 H815 0.961 . S
C829 C828 1.502 . S
C830 H816 0.960 . S
C830 H817 0.961 . S
C830 H818 0.959 . S
C830 C828 1.561 . S
C831 C828 1.526 . S
C831 C832 1.396 . S
C831 C836 1.390 . S
C832 C826 1.465 . S
C832 C831 1.396 . S
C832 C833 1.399 . S
C833 H819 0.929 . S
C833 C832 1.399 . S
C833 C834 1.385 . S
C834 H820 0.931 . S
C834 C833 1.385 . S
C834 C835 1.389 . S
C835 C834 1.389 . S
C835 C836 1.387 . S
C836 H821 0.930 . S
C836 C831 1.390 . S
C836 C835 1.387 . S
H837 C849 0.930 . S
H838 C851 0.930 . S
H839 C852 0.930 . S
H840 C856 0.959 . S
H841 C856 0.959 . S
H842 C856 0.961 . S
H843 C857 0.960 . S
H844 C857 0.961 . S
H845 C857 0.959 . S
H846 C860 0.929 . S
H847 C861 0.931 . S
H848 C863 0.930 . S
C849 H837 0.930 . S
C849 C850 1.399 . S
C849 C854 1.399 . S
C850 C849 1.399 . S
C850 C851 1.376 . S
C851 H838 0.930 . S
C851 C850 1.376 . S
C851 C852 1.388 . S
C852 H839 0.930 . S
C852 C851 1.388 . S
C852 C853 1.390 . S
C853 C852 1.390 . S
C853 C854 1.394 . S
C853 C859 1.465 . S
C854 C849 1.399 . S
C854 C853 1.394 . S
C854 C855 1.516 . S
C855 C854 1.516 . S
C855 C856 1.502 . S
C855 C857 1.561 . S
C855 C858 1.526 . S
C856 H840 0.959 . S
C856 H841 0.959 . S
C856 H842 0.961 . S
C856 C855 1.502 . S
C857 H843 0.960 . S
C857 H844 0.961 . S
C857 H845 0.959 . S
C857 C855 1.561 . S
C858 C855 1.526 . S
C858 C859 1.396 . S
C858 C863 1.390 . S
C859 C853 1.465 . S
C859 C858 1.396 . S
C859 C860 1.399 . S
C860 H846 0.929 . S
C860 C859 1.399 . S
C860 C861 1.385 . S
C861 H847 0.931 . S
C861 C860 1.385 . S
C861 C862 1.389 . S
C862 C861 1.389 . S
C862 C863 1.387 . S
C863 H848 0.930 . S
C863 C858 1.390 . S
C863 C862 1.387 . S
H864 C876 0.930 . S
H865 C878 0.930 . S
H866 C879 0.930 . S
H867 C883 0.959 . S
H868 C883 0.959 . S
H869 C883 0.961 . S
H870 C884 0.960 . S
H871 C884 0.961 . S
H872 C884 0.959 . S
H873 C887 0.929 . S
H874 C888 0.931 . S
H875 C890 0.930 . S
C876 H864 0.930 . S
C876 C877 1.399 . S
C876 C881 1.399 . S
C877 C876 1.399 . S
C877 C878 1.376 . S
C878 H865 0.930 . S
C878 C877 1.376 . S
C878 C879 1.388 . S
C879 H866 0.930 . S
C879 C878 1.388 . S
C879 C880 1.390 . S
C880 C879 1.390 . S
C880 C881 1.394 . S
C880 C886 1.465 . S
C881 C876 1.399 . S
C881 C880 1.394 . S
C881 C882 1.516 . S
C882 C881 1.516 . S
C882 C883 1.502 . S
C882 C884 1.561 . S
C882 C885 1.526 . S
C883 H867 0.959 . S
C883 H868 0.959 . S
C883 H869 0.961 . S
C883 C882 1.502 . S
C884 H870 0.960 . S
C884 H871 0.961 . S
C884 H872 0.959 . S
C884 C882 1.561 . S
C885 C882 1.526 . S
C885 C886 1.396 . S
C885 C890 1.390 . S
C886 C880 1.465 . S
C886 C885 1.396 . S
C886 C887 1.399 . S
C887 H873 0.929 . S
C887 C886 1.399 . S
C887 C888 1.385 . S
C888 H874 0.931 . S
C888 C887 1.385 . S
C888 C889 1.389 . S
C889 C888 1.389 . S
C889 C890 1.387 . S
C890 H875 0.930 . S
C890 C885 1.390 . S
C890 C889 1.387 . S
H891 C903 0.930 . S
H892 C905 0.930 . S
H893 C906 0.930 . S
H894 C910 0.959 . S
H895 C910 0.959 . S
H896 C910 0.961 . S
H897 C911 0.960 . S
H898 C911 0.961 . S
H899 C911 0.959 . S
H900 C914 0.929 . S
H901 C915 0.931 . S
H902 C917 0.930 . S
C903 H891 0.930 . S
C903 C904 1.399 . S
C903 C908 1.399 . S
C904 C903 1.399 . S
C904 C905 1.376 . S
C905 H892 0.930 . S
C905 C904 1.376 . S
C905 C906 1.388 . S
C906 H893 0.930 . S
C906 C905 1.388 . S
C906 C907 1.390 . S
C907 C906 1.390 . S
C907 C908 1.394 . S
C907 C913 1.465 . S
C908 C903 1.399 . S
C908 C907 1.394 . S
C908 C909 1.516 . S
C909 C908 1.516 . S
C909 C910 1.502 . S
C909 C911 1.561 . S
C909 C912 1.526 . S
C910 H894 0.959 . S
C910 H895 0.959 . S
C910 H896 0.961 . S
C910 C909 1.502 . S
C911 H897 0.960 . S
C911 H898 0.961 . S
C911 H899 0.959 . S
C911 C909 1.561 . S
C912 C909 1.526 . S
C912 C913 1.396 . S
C912 C917 1.390 . S
C913 C907 1.465 . S
C913 C912 1.396 . S
C913 C914 1.399 . S
C914 H900 0.929 . S
C914 C913 1.399 . S
C914 C915 1.385 . S
C915 H901 0.931 . S
C915 C914 1.385 . S
C915 C916 1.389 . S
C916 C915 1.389 . S
C916 C917 1.387 . S
C917 H902 0.930 . S
C917 C912 1.390 . S
C917 C916 1.387 . S
H918 C930 0.930 . S
H919 C932 0.930 . S
H920 C933 0.930 . S
H921 C937 0.959 . S
H922 C937 0.959 . S
H923 C937 0.961 . S
H924 C938 0.960 . S
H925 C938 0.961 . S
H926 C938 0.959 . S
H927 C941 0.929 . S
H928 C942 0.931 . S
H929 C944 0.930 . S
C930 H918 0.930 . S
C930 C931 1.399 . S
C930 C935 1.399 . S
C931 C930 1.399 . S
C931 C932 1.376 . S
C932 H919 0.930 . S
C932 C931 1.376 . S
C932 C933 1.388 . S
C933 H920 0.930 . S
C933 C932 1.388 . S
C933 C934 1.390 . S
C934 C933 1.390 . S
C934 C935 1.394 . S
C934 C940 1.465 . S
C935 C930 1.399 . S
C935 C934 1.394 . S
C935 C936 1.516 . S
C936 C935 1.516 . S
C936 C937 1.502 . S
C936 C938 1.561 . S
C936 C939 1.526 . S
C937 H921 0.959 . S
C937 H922 0.959 . S
C937 H923 0.961 . S
C937 C936 1.502 . S
C938 H924 0.960 . S
C938 H925 0.961 . S
C938 H926 0.959 . S
C938 C936 1.561 . S
C939 C936 1.526 . S
C939 C940 1.396 . S
C939 C944 1.390 . S
C940 C934 1.465 . S
C940 C939 1.396 . S
C940 C941 1.399 . S
C941 H927 0.929 . S
C941 C940 1.399 . S
C941 C942 1.385 . S
C942 H928 0.931 . S
C942 C941 1.385 . S
C942 C943 1.389 . S
C943 C942 1.389 . S
C943 C944 1.387 . S
C944 H929 0.930 . S
C944 C939 1.390 . S
C944 C943 1.387 . S
H945 C957 0.930 . S
H946 C959 0.930 . S
H947 C960 0.930 . S
H948 C964 0.959 . S
H949 C964 0.959 . S
H950 C964 0.961 . S
H951 C965 0.960 . S
H952 C965 0.961 . S
H953 C965 0.959 . S
H954 C968 0.929 . S
H955 C969 0.931 . S
H956 C971 0.930 . S
C957 H945 0.930 . S
C957 C958 1.399 . S
C957 C962 1.399 . S
C958 C957 1.399 . S
C958 C959 1.376 . S
C959 H946 0.930 . S
C959 C958 1.376 . S
C959 C960 1.388 . S
C960 H947 0.930 . S
C960 C959 1.388 . S
C960 C961 1.390 . S
C961 C960 1.390 . S
C961 C962 1.394 . S
C961 C967 1.465 1_655 S
C962 C957 1.399 . S
C962 C961 1.394 . S
C962 C963 1.516 1_655 S
C963 C962 1.516 1_455 S
C963 C964 1.502 . S
C963 C965 1.561 1_455 S
C963 C966 1.526 . S
C964 H948 0.959 . S
C964 H949 0.959 . S
C964 H950 0.961 . S
C964 C963 1.502 . S
C965 H951 0.960 . S
C965 H952 0.961 . S
C965 H953 0.959 . S
C965 C963 1.561 1_655 S
C966 C963 1.526 . S
C966 C967 1.396 . S
C966 C971 1.390 . S
C967 C961 1.465 1_455 S
C967 C966 1.396 . S
C967 C968 1.399 . S
C968 H954 0.929 . S
C968 C967 1.399 . S
C968 C969 1.385 . S
C969 H955 0.931 . S
C969 C968 1.385 . S
C969 C970 1.389 . S
C970 C969 1.389 . S
C970 C971 1.387 . S
C971 H956 0.930 . S
C971 C966 1.390 . S
C971 C970 1.387 . S
H972 C984 0.930 . S
H973 C986 0.930 . S
H974 C987 0.930 . S
H975 C991 0.959 . S
H976 C991 0.959 . S
H977 C991 0.961 . S
H978 C992 0.960 . S
H979 C992 0.961 1_565 S
H980 C992 0.959 . S
H981 C995 0.929 1_545 S
H982 C996 0.931 . S
H983 C998 0.930 . S
C984 H972 0.930 . S
C984 C985 1.399 . S
C984 C989 1.399 . S
C985 C984 1.399 . S
C985 C986 1.376 . S
C986 H973 0.930 . S
C986 C985 1.376 . S
C986 C987 1.388 . S
C987 H974 0.930 . S
C987 C986 1.388 . S
C987 C988 1.390 . S
C988 C987 1.390 . S
C988 C989 1.394 . S
C988 C994 1.465 1_545 S
C989 C984 1.399 . S
C989 C988 1.394 . S
C989 C990 1.516 1_545 S
C990 C989 1.516 1_565 S
C990 C991 1.502 . S
C990 C992 1.561 1_565 S
C990 C993 1.526 . S
C991 H975 0.959 . S
C991 H976 0.959 . S
C991 H977 0.961 . S
C991 C990 1.502 . S
C992 H978 0.960 . S
C992 H979 0.961 1_545 S
C992 H980 0.959 . S
C992 C990 1.561 1_545 S
C993 C990 1.526 . S
C993 C994 1.396 . S
C993 C998 1.390 . S
C994 C988 1.465 1_565 S
C994 C993 1.396 . S
C994 C995 1.399 . S
C995 H981 0.929 1_565 S
C995 C994 1.399 . S
C995 C996 1.385 . S
C996 H982 0.931 . S
C996 C995 1.385 . S
C996 C997 1.389 . S
C997 C996 1.389 . S
C997 C998 1.387 . S
C998 H983 0.930 . S
C998 C993 1.390 . S
C998 C997 1.387 . S
H999 C1011 0.930 . S
H1000 C1013 0.930 . S
H1001 C1014 0.930 . S
H1002 C1018 0.959 . S
H1003 C1018 0.959 . S
H1004 C1018 0.961 . S
H1005 C1019 0.960 . S
H1006 C1019 0.961 . S
H1007 C1019 0.959 . S
H1008 C1022 0.929 . S
H1009 C1023 0.931 . S
H1010 C1025 0.930 . S
C1011 H999 0.930 . S
C1011 C1012 1.399 . S
C1011 C1016 1.399 . S
C1012 C1011 1.399 . S
C1012 C1013 1.376 . S
C1013 H1000 0.930 . S
C1013 C1012 1.376 . S
C1013 C1014 1.388 . S
C1014 H1001 0.930 . S
C1014 C1013 1.388 . S
C1014 C1015 1.390 . S
C1015 C1014 1.390 . S
C1015 C1016 1.394 . S
C1015 C1021 1.465 . S
C1016 C1011 1.399 . S
C1016 C1015 1.394 . S
C1016 C1017 1.516 . S
C1017 C1016 1.516 . S
C1017 C1018 1.502 . S
C1017 C1019 1.561 . S
C1017 C1020 1.526 . S
C1018 H1002 0.959 . S
C1018 H1003 0.959 . S
C1018 H1004 0.961 . S
C1018 C1017 1.502 . S
C1019 H1005 0.960 . S
C1019 H1006 0.961 . S
C1019 H1007 0.959 . S
C1019 C1017 1.561 . S
C1020 C1017 1.526 . S
C1020 C1021 1.396 . S
C1020 C1025 1.390 . S
C1021 C1015 1.465 . S
C1021 C1020 1.396 . S
C1021 C1022 1.399 . S
C1022 H1008 0.929 . S
C1022 C1021 1.399 . S
C1022 C1023 1.385 . S
C1023 H1009 0.931 . S
C1023 C1022 1.385 . S
C1023 C1024 1.389 . S
C1024 C1023 1.389 . S
C1024 C1025 1.387 . S
C1025 H1010 0.930 . S
C1025 C1020 1.390 . S
C1025 C1024 1.387 . S
H1026 C1038 0.930 . S
H1027 C1040 0.930 . S
H1028 C1041 0.930 . S
H1029 C1045 0.959 . S
H1030 C1045 0.959 . S
H1031 C1045 0.961 . S
H1032 C1046 0.960 . S
H1033 C1046 0.961 . S
H1034 C1046 0.959 . S
H1035 C1049 0.929 1_455 S
H1036 C1050 0.931 . S
H1037 C1052 0.930 . S
C1038 H1026 0.930 . S
C1038 C1039 1.399 . S
C1038 C1043 1.399 . S
C1039 C1038 1.399 . S
C1039 C1040 1.376 . S
C1040 H1027 0.930 . S
C1040 C1039 1.376 . S
C1040 C1041 1.388 . S
C1041 H1028 0.930 . S
C1041 C1040 1.388 . S
C1041 C1042 1.390 . S
C1042 C1041 1.390 . S
C1042 C1043 1.394 . S
C1042 C1048 1.465 1_455 S
C1043 C1038 1.399 . S
C1043 C1042 1.394 . S
C1043 C1044 1.516 1_455 S
C1044 C1043 1.516 1_655 S
C1044 C1045 1.502 . S
C1044 C1046 1.561 1_655 S
C1044 C1047 1.526 . S
C1045 H1029 0.959 . S
C1045 H1030 0.959 . S
C1045 H1031 0.961 . S
C1045 C1044 1.502 . S
C1046 H1032 0.960 . S
C1046 H1033 0.961 . S
C1046 H1034 0.959 . S
C1046 C1044 1.561 1_455 S
C1047 C1044 1.526 . S
C1047 C1048 1.396 . S
C1047 C1052 1.390 . S
C1048 C1042 1.465 1_655 S
C1048 C1047 1.396 . S
C1048 C1049 1.399 . S
C1049 H1035 0.929 1_655 S
C1049 C1048 1.399 . S
C1049 C1050 1.385 . S
C1050 H1036 0.931 . S
C1050 C1049 1.385 . S
C1050 C1051 1.389 . S
C1051 C1050 1.389 . S
C1051 C1052 1.387 . S
C1052 H1037 0.930 . S
C1052 C1047 1.390 . S
C1052 C1051 1.387 . S
H1053 C1065 0.930 . S
H1054 C1067 0.930 . S
H1055 C1068 0.930 . S
H1056 C1072 0.959 . S
H1057 C1072 0.959 . S
H1058 C1072 0.961 . S
H1059 C1073 0.960 . S
H1060 C1073 0.961 . S
H1061 C1073 0.959 . S
H1062 C1076 0.929 . S
H1063 C1077 0.931 . S
H1064 C1079 0.930 . S
C1065 H1053 0.930 . S
C1065 C1066 1.399 . S
C1065 C1070 1.399 . S
C1066 C1065 1.399 . S
C1066 C1067 1.376 . S
C1067 H1054 0.930 . S
C1067 C1066 1.376 . S
C1067 C1068 1.388 . S
C1068 H1055 0.930 . S
C1068 C1067 1.388 . S
C1068 C1069 1.390 . S
C1069 C1068 1.390 . S
C1069 C1070 1.394 . S
C1069 C1075 1.465 1_565 S
C1070 C1065 1.399 . S
C1070 C1069 1.394 . S
C1070 C1071 1.516 . S
C1071 C1070 1.516 . S
C1071 C1072 1.502 . S
C1071 C1073 1.561 1_565 S
C1071 C1074 1.526 1_565 S
C1072 H1056 0.959 . S
C1072 H1057 0.959 . S
C1072 H1058 0.961 . S
C1072 C1071 1.502 . S
C1073 H1059 0.960 . S
C1073 H1060 0.961 . S
C1073 H1061 0.959 . S
C1073 C1071 1.561 1_545 S
C1074 C1071 1.526 1_545 S
C1074 C1075 1.396 . S
C1074 C1079 1.390 . S
C1075 C1069 1.465 1_545 S
C1075 C1074 1.396 . S
C1075 C1076 1.399 . S
C1076 H1062 0.929 . S
C1076 C1075 1.399 . S
C1076 C1077 1.385 . S
C1077 H1063 0.931 . S
C1077 C1076 1.385 . S
C1077 C1078 1.389 . S
C1078 C1077 1.389 . S
C1078 C1079 1.387 . S
C1079 H1064 0.930 . S
C1079 C1074 1.390 . S
C1079 C1078 1.387 . S
C445 C255 1.305 . S
C457 C3 1.314 . S
C472 C39 1.309 . S
C484 C291 1.320 . S
C499 C75 1.305 . S
C511 C327 1.310 . S
C526 C111 1.343 . S
C538 C363 1.335 . S
C553 C399 1.343 . S
C565 C147 1.335 . S
C580 C219 1.338 . S
C592 C183 1.327 . S
C607 C362 1.386 . S
C619 C2 1.375 . S
C634 C38 1.393 . S
C646 C398 1.378 . S
C661 C74 1.374 . S
C673 C218 1.389 . S
C688 C254 1.377 . S
C700 C110 1.393 . S
C715 C290 1.393 . S
C727 C146 1.377 . S
C742 C326 1.374 . S
C754 C182 1.388 . S
C769 C14 1.615 . S
C781 C302 1.601 . S
C796 C50 1.561 . S
C808 C338 1.540 . S
C823 C374 1.615 . S
C835 C86 1.603 . S
C850 C122 1.615 . S
C862 C410 1.586 . S
C877 C230 1.558 . S
C889 C158 1.540 . S
C904 C266 1.580 . S
C916 C194 1.545 . S
C931 C112 1.276 . S
C943 C4 1.333 . S
C958 C148 1.282 . S
C970 C40 1.328 . S
C985 C76 1.274 . S
C997 C184 1.334 . S
C1012 C220 1.307 . S
C1024 C328 1.282 . S
C1039 C256 1.280 . S
C1051 C364 1.329 . S
C1066 C400 1.318 . S
C1078 C292 1.273 . S
