# Generated by pormake.
# Topology sog, (5)-cn, num edge types: 1
# Building blocks:
#     Node 0, Type 0, BuildingBlock: XOMCOT_clean_sbu_0, # of connection points: 5
#     Node 1, Type 0, BuildingBlock: XOMCOT_clean_sbu_0, # of connection points: 5
#     Node 2, Type 0, BuildingBlock: XOMCOT_clean_sbu_0, # of connection points: 5
#     Node 3, Type 0, BuildingBlock: XOMCOT_clean_sbu_0, # of connection points: 5
#     Node 4, Type 0, BuildingBlock: XOMCOT_clean_sbu_0, # of connection points: 5
#     Node 5, Type 0, BuildingBlock: XOMCOT_clean_sbu_0, # of connection points: 5
#     Node 6, Type 0, BuildingBlock: XOMCOT_clean_sbu_0, # of connection points: 5
#     Node 7, Type 0, BuildingBlock: XOMCOT_clean_sbu_0, # of connection points: 5
#     Node 8, Type 0, BuildingBlock: XOMCOT_clean_sbu_0, # of connection points: 5
#     Node 9, Type 0, BuildingBlock: XOMCOT_clean_sbu_0, # of connection points: 5
#     Node 10, Type 0, BuildingBlock: XOMCOT_clean_sbu_0, # of connection points: 5
#     Node 11, Type 0, BuildingBlock: XOMCOT_clean_sbu_0, # of connection points: 5
#     Node 12, Type 0, BuildingBlock: XOMCOT_clean_sbu_0, # of connection points: 5
#     Node 13, Type 0, BuildingBlock: XOMCOT_clean_sbu_0, # of connection points: 5
#     Node 14, Type 0, BuildingBlock: XOMCOT_clean_sbu_0, # of connection points: 5
#     Node 15, Type 0, BuildingBlock: XOMCOT_clean_sbu_0, # of connection points: 5
#     Node 16, Type 0, BuildingBlock: XOMCOT_clean_sbu_0, # of connection points: 5
#     Node 17, Type 0, BuildingBlock: XOMCOT_clean_sbu_0, # of connection points: 5
#     Node 18, Type 0, BuildingBlock: XOMCOT_clean_sbu_0, # of connection points: 5
#     Node 19, Type 0, BuildingBlock: XOMCOT_clean_sbu_0, # of connection points: 5
#     Node 20, Type 0, BuildingBlock: XOMCOT_clean_sbu_0, # of connection points: 5
#     Node 21, Type 0, BuildingBlock: XOMCOT_clean_sbu_0, # of connection points: 5
#     Node 22, Type 0, BuildingBlock: XOMCOT_clean_sbu_0, # of connection points: 5
#     Node 23, Type 0, BuildingBlock: XOMCOT_clean_sbu_0, # of connection points: 5
#     Node 24, Type 0, BuildingBlock: XOMCOT_clean_sbu_0, # of connection points: 5
#     Node 25, Type 0, BuildingBlock: XOMCOT_clean_sbu_0, # of connection points: 5
#     Node 26, Type 0, BuildingBlock: XOMCOT_clean_sbu_0, # of connection points: 5
#     Node 27, Type 0, BuildingBlock: XOMCOT_clean_sbu_0, # of connection points: 5
#     Node 28, Type 0, BuildingBlock: XOMCOT_clean_sbu_0, # of connection points: 5
#     Node 29, Type 0, BuildingBlock: XOMCOT_clean_sbu_0, # of connection points: 5
#     Node 30, Type 0, BuildingBlock: XOMCOT_clean_sbu_0, # of connection points: 5
#     Node 31, Type 0, BuildingBlock: XOMCOT_clean_sbu_0, # of connection points: 5
#     Edge 32, Type (0, 0), BuildingBlock: OJICUG_clean_linker_0, # of connection points: 2
#     Edge 33, Type (0, 0), BuildingBlock: OJICUG_clean_linker_0, # of connection points: 2
#     Edge 34, Type (0, 0), BuildingBlock: OJICUG_clean_linker_0, # of connection points: 2
#     Edge 35, Type (0, 0), BuildingBlock: OJICUG_clean_linker_0, # of connection points: 2
#     Edge 36, Type (0, 0), BuildingBlock: OJICUG_clean_linker_0, # of connection points: 2
#     Edge 37, Type (0, 0), BuildingBlock: OJICUG_clean_linker_0, # of connection points: 2
#     Edge 38, Type (0, 0), BuildingBlock: OJICUG_clean_linker_0, # of connection points: 2
#     Edge 39, Type (0, 0), BuildingBlock: OJICUG_clean_linker_0, # of connection points: 2
#     Edge 40, Type (0, 0), BuildingBlock: OJICUG_clean_linker_0, # of connection points: 2
#     Edge 41, Type (0, 0), BuildingBlock: OJICUG_clean_linker_0, # of connection points: 2
#     Edge 42, Type (0, 0), BuildingBlock: OJICUG_clean_linker_0, # of connection points: 2
#     Edge 43, Type (0, 0), BuildingBlock: OJICUG_clean_linker_0, # of connection points: 2
#     Edge 44, Type (0, 0), BuildingBlock: OJICUG_clean_linker_0, # of connection points: 2
#     Edge 45, Type (0, 0), BuildingBlock: OJICUG_clean_linker_0, # of connection points: 2
#     Edge 46, Type (0, 0), BuildingBlock: OJICUG_clean_linker_0, # of connection points: 2
#     Edge 47, Type (0, 0), BuildingBlock: OJICUG_clean_linker_0, # of connection points: 2
#     Edge 48, Type (0, 0), BuildingBlock: OJICUG_clean_linker_0, # of connection points: 2
#     Edge 49, Type (0, 0), BuildingBlock: OJICUG_clean_linker_0, # of connection points: 2
#     Edge 50, Type (0, 0), BuildingBlock: OJICUG_clean_linker_0, # of connection points: 2
#     Edge 51, Type (0, 0), BuildingBlock: OJICUG_clean_linker_0, # of connection points: 2
#     Edge 52, Type (0, 0), BuildingBlock: OJICUG_clean_linker_0, # of connection points: 2
#     Edge 53, Type (0, 0), BuildingBlock: OJICUG_clean_linker_0, # of connection points: 2
#     Edge 54, Type (0, 0), BuildingBlock: OJICUG_clean_linker_0, # of connection points: 2
#     Edge 55, Type (0, 0), BuildingBlock: OJICUG_clean_linker_0, # of connection points: 2
#     Edge 56, Type (0, 0), BuildingBlock: OJICUG_clean_linker_0, # of connection points: 2
#     Edge 57, Type (0, 0), BuildingBlock: OJICUG_clean_linker_0, # of connection points: 2
#     Edge 58, Type (0, 0), BuildingBlock: OJICUG_clean_linker_0, # of connection points: 2
#     Edge 59, Type (0, 0), BuildingBlock: OJICUG_clean_linker_0, # of connection points: 2
#     Edge 60, Type (0, 0), BuildingBlock: OJICUG_clean_linker_0, # of connection points: 2
#     Edge 61, Type (0, 0), BuildingBlock: OJICUG_clean_linker_0, # of connection points: 2
#     Edge 62, Type (0, 0), BuildingBlock: OJICUG_clean_linker_0, # of connection points: 2
#     Edge 63, Type (0, 0), BuildingBlock: OJICUG_clean_linker_0, # of connection points: 2
#     Edge 64, Type (0, 0), BuildingBlock: OJICUG_clean_linker_0, # of connection points: 2
#     Edge 65, Type (0, 0), BuildingBlock: OJICUG_clean_linker_0, # of connection points: 2
#     Edge 66, Type (0, 0), BuildingBlock: OJICUG_clean_linker_0, # of connection points: 2
#     Edge 67, Type (0, 0), BuildingBlock: OJICUG_clean_linker_0, # of connection points: 2
#     Edge 68, Type (0, 0), BuildingBlock: OJICUG_clean_linker_0, # of connection points: 2
#     Edge 69, Type (0, 0), BuildingBlock: OJICUG_clean_linker_0, # of connection points: 2
#     Edge 70, Type (0, 0), BuildingBlock: OJICUG_clean_linker_0, # of connection points: 2
#     Edge 71, Type (0, 0), BuildingBlock: OJICUG_clean_linker_0, # of connection points: 2
#     Edge 72, Type (0, 0), BuildingBlock: OJICUG_clean_linker_0, # of connection points: 2
#     Edge 73, Type (0, 0), BuildingBlock: OJICUG_clean_linker_0, # of connection points: 2
#     Edge 74, Type (0, 0), BuildingBlock: OJICUG_clean_linker_0, # of connection points: 2
#     Edge 75, Type (0, 0), BuildingBlock: OJICUG_clean_linker_0, # of connection points: 2
#     Edge 76, Type (0, 0), BuildingBlock: OJICUG_clean_linker_0, # of connection points: 2
#     Edge 77, Type (0, 0), BuildingBlock: OJICUG_clean_linker_0, # of connection points: 2
#     Edge 78, Type (0, 0), BuildingBlock: OJICUG_clean_linker_0, # of connection points: 2
#     Edge 79, Type (0, 0), BuildingBlock: OJICUG_clean_linker_0, # of connection points: 2
#     Edge 80, Type (0, 0), BuildingBlock: OJICUG_clean_linker_0, # of connection points: 2
#     Edge 81, Type (0, 0), BuildingBlock: OJICUG_clean_linker_0, # of connection points: 2
#     Edge 82, Type (0, 0), BuildingBlock: OJICUG_clean_linker_0, # of connection points: 2
#     Edge 83, Type (0, 0), BuildingBlock: OJICUG_clean_linker_0, # of connection points: 2
#     Edge 84, Type (0, 0), BuildingBlock: OJICUG_clean_linker_0, # of connection points: 2
#     Edge 85, Type (0, 0), BuildingBlock: OJICUG_clean_linker_0, # of connection points: 2
#     Edge 86, Type (0, 0), BuildingBlock: OJICUG_clean_linker_0, # of connection points: 2
#     Edge 87, Type (0, 0), BuildingBlock: OJICUG_clean_linker_0, # of connection points: 2
#     Edge 88, Type (0, 0), BuildingBlock: OJICUG_clean_linker_0, # of connection points: 2
#     Edge 89, Type (0, 0), BuildingBlock: OJICUG_clean_linker_0, # of connection points: 2
#     Edge 90, Type (0, 0), BuildingBlock: OJICUG_clean_linker_0, # of connection points: 2
#     Edge 91, Type (0, 0), BuildingBlock: OJICUG_clean_linker_0, # of connection points: 2
#     Edge 92, Type (0, 0), BuildingBlock: OJICUG_clean_linker_0, # of connection points: 2
#     Edge 93, Type (0, 0), BuildingBlock: OJICUG_clean_linker_0, # of connection points: 2
#     Edge 94, Type (0, 0), BuildingBlock: OJICUG_clean_linker_0, # of connection points: 2
#     Edge 95, Type (0, 0), BuildingBlock: OJICUG_clean_linker_0, # of connection points: 2
#     Edge 96, Type (0, 0), BuildingBlock: OJICUG_clean_linker_0, # of connection points: 2
#     Edge 97, Type (0, 0), BuildingBlock: OJICUG_clean_linker_0, # of connection points: 2
#     Edge 98, Type (0, 0), BuildingBlock: OJICUG_clean_linker_0, # of connection points: 2
#     Edge 99, Type (0, 0), BuildingBlock: OJICUG_clean_linker_0, # of connection points: 2
#     Edge 100, Type (0, 0), BuildingBlock: OJICUG_clean_linker_0, # of connection points: 2
#     Edge 101, Type (0, 0), BuildingBlock: OJICUG_clean_linker_0, # of connection points: 2
#     Edge 102, Type (0, 0), BuildingBlock: OJICUG_clean_linker_0, # of connection points: 2
#     Edge 103, Type (0, 0), BuildingBlock: OJICUG_clean_linker_0, # of connection points: 2
#     Edge 104, Type (0, 0), BuildingBlock: OJICUG_clean_linker_0, # of connection points: 2
#     Edge 105, Type (0, 0), BuildingBlock: OJICUG_clean_linker_0, # of connection points: 2
#     Edge 106, Type (0, 0), BuildingBlock: OJICUG_clean_linker_0, # of connection points: 2
#     Edge 107, Type (0, 0), BuildingBlock: OJICUG_clean_linker_0, # of connection points: 2
#     Edge 108, Type (0, 0), BuildingBlock: OJICUG_clean_linker_0, # of connection points: 2
#     Edge 109, Type (0, 0), BuildingBlock: OJICUG_clean_linker_0, # of connection points: 2
#     Edge 110, Type (0, 0), BuildingBlock: OJICUG_clean_linker_0, # of connection points: 2
#     Edge 111, Type (0, 0), BuildingBlock: OJICUG_clean_linker_0, # of connection points: 2
# Relax obj value: 0.174
# Max RMSD: 0.192
# Mean RMSD: 0.192
data_MOF--net-sog--node1-XOMCOT_clean_sbu_0--edge1-OJICUG_clean_linker_0
_symmetry_space_group_name_H-M    P1
_symmetry_Int_Tables_number       1
_symmetry_cell_setting            triclinic
loop_
_symmetry_equiv_pos_as_xyz
'x, y, z'
_cell_length_a     61.355012
_cell_length_b     13.441083
_cell_length_c     90.113526
_cell_angle_alpha  90.0012
_cell_angle_beta   89.999286
_cell_angle_gamma 89.996782
loop_
_atom_site_label
_atom_site_type_symbol
_atom_site_fract_x
_atom_site_fract_y
_atom_site_fract_z
_atom_type_partial_charge
Co0 Co 0.45185 0.15788 0.04139 0.0
C1 C 0.44959 0.93864 0.04355 0.0
C2 C 0.41903 0.99862 0.03649 0.0
C3 C 0.41785 0.89611 0.03591 0.0
N4 N 0.43886 0.0255 0.0416 0.0
N5 N 0.43715 0.85882 0.04038 0.0
H6 H 0.46678 0.93315 0.04592 0.0
H7 H 0.40666 0.0493 0.03254 0.0
C8 C 0.40583 0.21545 0.05017 0.0
O9 O 0.40575 0.14845 0.06079 0.0
N10 N 0.46468 0.28897 0.04084 0.0
C11 C 0.48408 0.31627 0.0465 0.0
C12 C 0.48535 0.41868 0.04632 0.0
C13 C 0.45456 0.37454 0.03714 0.0
N14 N 0.46666 0.4552 0.04056 0.0
C15 C 0.46605 0.08827 0.06988 0.0
C16 C 0.44542 0.23112 0.08684 0.0
C17 C 0.45627 0.15277 0.09394 0.0
C18 C 0.46727 0.08267 0.08529 0.0
C19 C 0.4451 0.2352 0.07132 0.0
N20 N 0.45392 0.15997 0.06303 0.0
H21 H 0.4752 0.0353 0.0635 0.0
H22 H 0.43741 0.29806 0.066 0.0
H23 H 0.49593 0.26564 0.05118 0.0
H24 H 0.4381 0.37822 0.03291 0.0
O25 O 0.47991 0.09955 0.03707 0.0
O26 O 0.45566 0.14467 0.02014 0.0
O27 O 0.42208 0.22287 0.04139 0.0
C28 C 0.47444 0.10393 0.02315 0.0
H29 H 0.40413 0.85278 0.03201 0.0
H30 H 0.49871 0.46261 0.05062 0.0
H31 H 0.43747 0.28898 0.09322 0.0
H32 H 0.47645 0.02293 0.0904 0.0
Co33 Co 0.79877 0.0999 0.04136 0.0
C34 C 0.80103 0.31915 0.04354 0.0
C35 C 0.83159 0.25917 0.03649 0.0
C36 C 0.83277 0.36167 0.03591 0.0
N37 N 0.81176 0.23228 0.04159 0.0
N38 N 0.81347 0.39896 0.04037 0.0
H39 H 0.78384 0.32463 0.04589 0.0
H40 H 0.84397 0.20849 0.03255 0.0
C41 C 0.84477 0.04223 0.05014 0.0
O42 O 0.84485 0.10917 0.06077 0.0
N43 N 0.78593 0.96882 0.04079 0.0
C44 C 0.76652 0.94152 0.04643 0.0
C45 C 0.76525 0.83911 0.04626 0.0
C46 C 0.79605 0.88324 0.03709 0.0
N47 N 0.78395 0.80258 0.0405 0.0
C48 C 0.78456 0.1694 0.06985 0.0
C49 C 0.80516 0.02637 0.0868 0.0
C50 C 0.79432 0.10473 0.09391 0.0
C51 C 0.78334 0.17491 0.08527 0.0
C52 C 0.80549 0.02238 0.07128 0.0
N53 N 0.79668 0.09768 0.063 0.0
H54 H 0.77543 0.22244 0.06349 0.0
H55 H 0.81317 0.95952 0.06595 0.0
H56 H 0.75466 0.99215 0.05111 0.0
H57 H 0.81252 0.87955 0.03288 0.0
O58 O 0.77071 0.15829 0.03704 0.0
O59 O 0.79496 0.11327 0.02011 0.0
O60 O 0.82854 0.03489 0.04136 0.0
C61 C 0.77619 0.15403 0.02312 0.0
H62 H 0.8465 0.405 0.03201 0.0
H63 H 0.75187 0.79518 0.05054 0.0
H64 H 0.8131 0.96845 0.09317 0.0
H65 H 0.77417 0.23466 0.09038 0.0
Co66 Co 0.45174 0.10094 0.21015 0.0
C67 C 0.44948 0.32019 0.20798 0.0
C68 C 0.41892 0.26022 0.21504 0.0
C69 C 0.41774 0.36273 0.21562 0.0
N70 N 0.43876 0.23333 0.20993 0.0
N71 N 0.43705 0.40001 0.21115 0.0
H72 H 0.46667 0.32567 0.20562 0.0
H73 H 0.40655 0.20955 0.21899 0.0
C74 C 0.40573 0.04335 0.20137 0.0
O75 O 0.40565 0.11031 0.19075 0.0
N76 N 0.46458 0.96985 0.21071 0.0
C77 C 0.48398 0.94254 0.20505 0.0
C78 C 0.48526 0.84013 0.20523 0.0
C79 C 0.45446 0.88428 0.21441 0.0
N80 N 0.46656 0.80362 0.21099 0.0
C81 C 0.46597 0.17049 0.18167 0.0
C82 C 0.44535 0.02761 0.1647 0.0
C83 C 0.45622 0.10593 0.1576 0.0
C84 C 0.4672 0.17604 0.16625 0.0
C85 C 0.44501 0.02358 0.18023 0.0
N86 N 0.45383 0.09881 0.18851 0.0
H87 H 0.47511 0.22346 0.18804 0.0
H88 H 0.43732 0.96074 0.18554 0.0
H89 H 0.49583 0.99316 0.20037 0.0
H90 H 0.438 0.8806 0.21863 0.0
O91 O 0.4798 0.15927 0.21448 0.0
O92 O 0.45556 0.1142 0.2314 0.0
O93 O 0.42198 0.03596 0.21015 0.0
C94 C 0.47433 0.15494 0.22839 0.0
H95 H 0.40402 0.40606 0.21952 0.0
H96 H 0.49862 0.79619 0.20094 0.0
H97 H 0.43741 0.96974 0.15832 0.0
H98 H 0.47639 0.23575 0.16114 0.0
Co99 Co 0.79884 0.15687 0.21012 0.0
C100 C 0.8011 0.93762 0.20797 0.0
C101 C 0.83166 0.99759 0.21503 0.0
C102 C 0.83284 0.89508 0.21561 0.0
N103 N 0.81183 0.02448 0.20991 0.0
N104 N 0.81354 0.8578 0.21113 0.0
H105 H 0.78391 0.93214 0.2056 0.0
H106 H 0.84403 0.04826 0.21897 0.0
C107 C 0.84487 0.21441 0.20135 0.0
O108 O 0.84496 0.14741 0.19073 0.0
N109 N 0.78601 0.28796 0.21066 0.0
C110 C 0.76662 0.31527 0.20499 0.0
C111 C 0.76535 0.41769 0.20517 0.0
C112 C 0.79613 0.37353 0.21437 0.0
N113 N 0.78404 0.45419 0.21094 0.0
C114 C 0.78462 0.08721 0.18164 0.0
C115 C 0.80526 0.22993 0.16466 0.0
C116 C 0.79438 0.1516 0.15757 0.0
C117 C 0.78339 0.08157 0.16623 0.0
C118 C 0.8056 0.23404 0.18018 0.0
N119 N 0.79677 0.15888 0.18848 0.0
H120 H 0.77546 0.0343 0.18802 0.0
H121 H 0.8133 0.29689 0.18549 0.0
H122 H 0.75477 0.26465 0.20031 0.0
H123 H 0.81258 0.3772 0.2186 0.0
O124 O 0.77078 0.09857 0.21445 0.0
O125 O 0.79503 0.14373 0.23137 0.0
O126 O 0.82861 0.22184 0.21011 0.0
C127 C 0.77625 0.103 0.22836 0.0
H128 H 0.84656 0.85175 0.21951 0.0
H129 H 0.75199 0.46162 0.20087 0.0
H130 H 0.81321 0.28774 0.15827 0.0
H131 H 0.77418 0.02187 0.16113 0.0
Co132 Co 0.5489 0.85122 0.96015 0.0
C133 C 0.55116 0.07047 0.95799 0.0
C134 C 0.58173 0.01049 0.96504 0.0
C135 C 0.58291 0.113 0.96562 0.0
N136 N 0.56189 0.9836 0.95993 0.0
N137 N 0.5636 0.15028 0.96115 0.0
H138 H 0.53397 0.07595 0.95563 0.0
H139 H 0.5941 0.95981 0.96898 0.0
C140 C 0.59492 0.79359 0.95137 0.0
O141 O 0.595 0.86054 0.94075 0.0
N142 N 0.53607 0.72013 0.96071 0.0
C143 C 0.51667 0.69283 0.95505 0.0
C144 C 0.51539 0.59042 0.95523 0.0
C145 C 0.54619 0.63456 0.96441 0.0
N146 N 0.53409 0.5539 0.96099 0.0
C147 C 0.5347 0.92078 0.93166 0.0
C148 C 0.55531 0.77781 0.91471 0.0
C149 C 0.54445 0.85615 0.9076 0.0
C150 C 0.53347 0.92631 0.91625 0.0
C151 C 0.55564 0.77381 0.93023 0.0
N152 N 0.54683 0.84908 0.93851 0.0
H153 H 0.52556 0.97379 0.93803 0.0
H154 H 0.56332 0.71096 0.93555 0.0
H155 H 0.50481 0.74347 0.95037 0.0
H156 H 0.56265 0.63087 0.96863 0.0
O157 O 0.52084 0.90957 0.96447 0.0
O158 O 0.54509 0.86449 0.9814 0.0
O159 O 0.57867 0.78622 0.96015 0.0
C160 C 0.52631 0.90522 0.97839 0.0
H161 H 0.59663 0.15632 0.96951 0.0
H162 H 0.50202 0.5465 0.95095 0.0
H163 H 0.56325 0.71991 0.90833 0.0
H164 H 0.52429 0.98604 0.91113 0.0
Co165 Co 0.20192 0.90804 0.96014 0.0
C166 C 0.19966 0.68879 0.95797 0.0
C167 C 0.16909 0.74877 0.96502 0.0
C168 C 0.16791 0.64627 0.9656 0.0
N169 N 0.18893 0.77566 0.95992 0.0
N170 N 0.18722 0.60898 0.96114 0.0
H171 H 0.21685 0.68331 0.95561 0.0
H172 H 0.15672 0.79945 0.96897 0.0
C173 C 0.1559 0.96566 0.95135 0.0
O174 O 0.15582 0.8987 0.94073 0.0
N175 N 0.21475 0.03913 0.9607 0.0
C176 C 0.23415 0.06642 0.95504 0.0
C177 C 0.23543 0.16884 0.95522 0.0
C178 C 0.20463 0.1247 0.9644 0.0
N179 N 0.21673 0.20536 0.96098 0.0
C180 C 0.21613 0.83845 0.93165 0.0
C181 C 0.19551 0.98135 0.91469 0.0
C182 C 0.20636 0.90298 0.90759 0.0
C183 C 0.21735 0.83286 0.91624 0.0
C184 C 0.19519 0.9854 0.93021 0.0
N185 N 0.204 0.91016 0.9385 0.0
H186 H 0.22527 0.78546 0.93802 0.0
H187 H 0.1875 0.04827 0.93553 0.0
H188 H 0.24601 0.01579 0.95036 0.0
H189 H 0.18817 0.12839 0.96862 0.0
O190 O 0.22997 0.84969 0.96447 0.0
O191 O 0.20572 0.89479 0.98139 0.0
O192 O 0.17215 0.97303 0.96013 0.0
C193 C 0.22449 0.85405 0.97838 0.0
H194 H 0.15419 0.60294 0.9695 0.0
H195 H 0.2488 0.21276 0.95093 0.0
H196 H 0.18756 0.03922 0.90831 0.0
H197 H 0.22653 0.77312 0.91113 0.0
Co198 Co 0.54893 0.90764 0.79139 0.0
C199 C 0.55119 0.6884 0.79355 0.0
C200 C 0.58175 0.74836 0.7865 0.0
C201 C 0.58293 0.64585 0.78592 0.0
N202 N 0.56192 0.77525 0.79161 0.0
N203 N 0.56363 0.60858 0.79039 0.0
H204 H 0.534 0.68292 0.79591 0.0
H205 H 0.59413 0.79903 0.78255 0.0
C206 C 0.59495 0.9652 0.80017 0.0
O207 O 0.59502 0.89823 0.81079 0.0
N208 N 0.5361 0.03874 0.79082 0.0
C209 C 0.5167 0.06605 0.79648 0.0
C210 C 0.51542 0.16846 0.7963 0.0
C211 C 0.54622 0.12431 0.78713 0.0
N212 N 0.53412 0.20497 0.79054 0.0
C213 C 0.53472 0.83811 0.81987 0.0
C214 C 0.55532 0.98105 0.83683 0.0
C215 C 0.54447 0.90273 0.84394 0.0
C216 C 0.53349 0.83258 0.83529 0.0
C217 C 0.55566 0.98505 0.82131 0.0
N218 N 0.54685 0.90979 0.81302 0.0
H219 H 0.52558 0.78511 0.8135 0.0
H220 H 0.56335 0.04789 0.81599 0.0
H221 H 0.50484 0.01542 0.80116 0.0
H222 H 0.56268 0.12799 0.78291 0.0
O223 O 0.52088 0.84931 0.78706 0.0
O224 O 0.54513 0.89437 0.77013 0.0
O225 O 0.5787 0.97262 0.79139 0.0
C226 C 0.52635 0.85365 0.77314 0.0
H227 H 0.59666 0.60252 0.78202 0.0
H228 H 0.50205 0.21239 0.80058 0.0
H229 H 0.56327 0.03895 0.84321 0.0
H230 H 0.5243 0.77287 0.8404 0.0
Co231 Co 0.20185 0.85114 0.79138 0.0
C232 C 0.19959 0.07039 0.79354 0.0
C233 C 0.16903 0.01042 0.78648 0.0
C234 C 0.16785 0.11292 0.7859 0.0
N235 N 0.18886 0.98352 0.79159 0.0
N236 N 0.18715 0.1502 0.79037 0.0
H237 H 0.21678 0.07587 0.7959 0.0
H238 H 0.15665 0.95974 0.78254 0.0
C239 C 0.15583 0.79353 0.80015 0.0
O240 O 0.15574 0.86049 0.81077 0.0
N241 N 0.21468 0.72004 0.79082 0.0
C242 C 0.23408 0.69273 0.79648 0.0
C243 C 0.23536 0.59032 0.79631 0.0
C244 C 0.20457 0.63448 0.78712 0.0
N245 N 0.21666 0.55381 0.79054 0.0
C246 C 0.21606 0.92071 0.81986 0.0
C247 C 0.19545 0.77784 0.83683 0.0
C248 C 0.20631 0.85616 0.84393 0.0
C249 C 0.2173 0.92627 0.83527 0.0
C250 C 0.19511 0.7738 0.8213 0.0
N251 N 0.20392 0.84903 0.81301 0.0
H252 H 0.22521 0.97369 0.81349 0.0
H253 H 0.18741 0.71096 0.81599 0.0
H254 H 0.24593 0.74336 0.80116 0.0
H255 H 0.18811 0.6308 0.78289 0.0
O256 O 0.22991 0.90947 0.78705 0.0
O257 O 0.20567 0.86438 0.77012 0.0
O258 O 0.17208 0.78615 0.79137 0.0
C259 C 0.22444 0.90511 0.77314 0.0
H260 H 0.15412 0.15626 0.78201 0.0
H261 H 0.24872 0.54639 0.8006 0.0
H262 H 0.1875 0.71997 0.84321 0.0
H263 H 0.22649 0.98599 0.84038 0.0
Co264 Co 0.4518 0.65783 0.54139 0.0
C265 C 0.44954 0.43858 0.54355 0.0
C266 C 0.41898 0.49856 0.5365 0.0
C267 C 0.4178 0.39605 0.53592 0.0
N268 N 0.43882 0.52545 0.54161 0.0
N269 N 0.43711 0.35877 0.54039 0.0
H270 H 0.46674 0.43309 0.54591 0.0
H271 H 0.40661 0.54924 0.53256 0.0
C272 C 0.40579 0.71543 0.55017 0.0
O273 O 0.40571 0.64848 0.56079 0.0
N274 N 0.46464 0.78891 0.54083 0.0
C275 C 0.48404 0.81622 0.54648 0.0
C276 C 0.48532 0.91863 0.5463 0.0
C277 C 0.45452 0.87449 0.53713 0.0
N278 N 0.46662 0.95514 0.54054 0.0
C279 C 0.46603 0.58825 0.56987 0.0
C280 C 0.44542 0.73116 0.58684 0.0
C281 C 0.45628 0.65282 0.59394 0.0
C282 C 0.46726 0.5827 0.58528 0.0
C283 C 0.44508 0.73519 0.57131 0.0
N284 N 0.45389 0.65995 0.56302 0.0
H285 H 0.47517 0.53527 0.56349 0.0
H286 H 0.43738 0.79804 0.566 0.0
H287 H 0.4959 0.76558 0.55116 0.0
H288 H 0.43806 0.87817 0.53291 0.0
O289 O 0.47986 0.59949 0.53706 0.0
O290 O 0.45561 0.64458 0.52013 0.0
O291 O 0.42204 0.72282 0.54139 0.0
C292 C 0.47438 0.60384 0.52314 0.0
H293 H 0.40408 0.35273 0.53202 0.0
H294 H 0.49868 0.96256 0.55059 0.0
H295 H 0.43747 0.78903 0.59322 0.0
H296 H 0.47645 0.52297 0.59039 0.0
Co297 Co 0.79881 0.60104 0.54139 0.0
C298 C 0.80107 0.82028 0.54356 0.0
C299 C 0.83163 0.7603 0.53649 0.0
C300 C 0.83281 0.86281 0.53591 0.0
N301 N 0.8118 0.73342 0.54161 0.0
N302 N 0.81351 0.90009 0.54039 0.0
H303 H 0.78388 0.82577 0.54593 0.0
H304 H 0.844 0.70962 0.53254 0.0
C305 C 0.84483 0.54347 0.55016 0.0
O306 O 0.84491 0.61046 0.56078 0.0
N307 N 0.78597 0.46995 0.54084 0.0
C308 C 0.76658 0.44265 0.5465 0.0
C309 C 0.7653 0.34024 0.54632 0.0
C310 C 0.79609 0.38437 0.53714 0.0
N311 N 0.784 0.30372 0.54056 0.0
C312 C 0.7846 0.6706 0.56988 0.0
C313 C 0.80523 0.52773 0.58684 0.0
C314 C 0.79437 0.60605 0.59395 0.0
C315 C 0.78338 0.67616 0.5853 0.0
C316 C 0.80556 0.52369 0.57132 0.0
N317 N 0.79674 0.59892 0.56303 0.0
H318 H 0.77545 0.72357 0.56351 0.0
H319 H 0.81325 0.46085 0.566 0.0
H320 H 0.75473 0.49329 0.55118 0.0
H321 H 0.81255 0.38068 0.53291 0.0
O322 O 0.77075 0.65938 0.53707 0.0
O323 O 0.795 0.61427 0.52014 0.0
O324 O 0.82858 0.53604 0.54139 0.0
C325 C 0.77622 0.65502 0.52315 0.0
H326 H 0.84652 0.90613 0.53201 0.0
H327 H 0.75194 0.29631 0.55061 0.0
H328 H 0.81319 0.46986 0.59322 0.0
H329 H 0.77419 0.73587 0.59041 0.0
Co330 Co 0.45189 0.60094 0.71015 0.0
C331 C 0.44963 0.82018 0.70798 0.0
C332 C 0.41907 0.76022 0.71505 0.0
C333 C 0.41789 0.86273 0.71563 0.0
N334 N 0.43891 0.73332 0.70993 0.0
N335 N 0.4372 0.9 0.71115 0.0
H336 H 0.46682 0.82566 0.70562 0.0
H337 H 0.4067 0.70955 0.71899 0.0
C338 C 0.40587 0.54339 0.70137 0.0
O339 O 0.40579 0.61038 0.69075 0.0
N340 N 0.46473 0.46984 0.7107 0.0
C341 C 0.48412 0.44253 0.70504 0.0
C342 C 0.4854 0.34012 0.70521 0.0
C343 C 0.45461 0.38427 0.7144 0.0
N344 N 0.4667 0.30361 0.71098 0.0
C345 C 0.4661 0.67052 0.68166 0.0
C346 C 0.44547 0.52767 0.6647 0.0
C347 C 0.45632 0.606 0.65759 0.0
C348 C 0.46732 0.6761 0.66625 0.0
C349 C 0.44514 0.52361 0.68022 0.0
N350 N 0.45397 0.59883 0.68851 0.0
H351 H 0.47525 0.72348 0.68803 0.0
H352 H 0.43745 0.46076 0.68554 0.0
H353 H 0.49598 0.49316 0.70035 0.0
H354 H 0.43815 0.3806 0.71863 0.0
O355 O 0.47995 0.65926 0.71447 0.0
O356 O 0.45571 0.61417 0.7314 0.0
O357 O 0.42212 0.53596 0.71015 0.0
C358 C 0.47448 0.6549 0.72839 0.0
H359 H 0.40417 0.90606 0.71953 0.0
H360 H 0.49876 0.29618 0.70092 0.0
H361 H 0.43751 0.46981 0.65832 0.0
H362 H 0.4765 0.73583 0.66113 0.0
Co363 Co 0.79892 0.65753 0.71016 0.0
C364 C 0.80118 0.43828 0.70799 0.0
C365 C 0.83176 0.49824 0.715 0.0
C366 C 0.83294 0.39573 0.71558 0.0
N367 N 0.81191 0.52514 0.70992 0.0
N368 N 0.81363 0.35846 0.71114 0.0
H369 H 0.78398 0.4328 0.70565 0.0
H370 H 0.84415 0.54891 0.71893 0.0
C371 C 0.84492 0.71525 0.70135 0.0
O372 O 0.84499 0.64836 0.69072 0.0
N373 N 0.78609 0.78862 0.71073 0.0
C374 C 0.76667 0.81593 0.70509 0.0
C375 C 0.7654 0.91834 0.70527 0.0
C376 C 0.79621 0.87419 0.71442 0.0
N377 N 0.78411 0.95485 0.71101 0.0
C378 C 0.7847 0.588 0.68167 0.0
C379 C 0.80526 0.73107 0.66471 0.0
C380 C 0.79441 0.65271 0.65761 0.0
C381 C 0.78345 0.58249 0.66626 0.0
C382 C 0.80561 0.73504 0.68024 0.0
N383 N 0.79682 0.65972 0.68852 0.0
H384 H 0.77558 0.53493 0.68804 0.0
H385 H 0.81329 0.79789 0.68555 0.0
H386 H 0.75481 0.7653 0.70042 0.0
H387 H 0.81268 0.87787 0.71863 0.0
O388 O 0.77087 0.59917 0.71449 0.0
O389 O 0.79513 0.6442 0.73141 0.0
O390 O 0.82869 0.72252 0.71014 0.0
C391 C 0.77636 0.60347 0.7284 0.0
H392 H 0.84668 0.3524 0.71946 0.0
H393 H 0.75202 0.96227 0.701 0.0
H394 H 0.81319 0.789 0.65833 0.0
H395 H 0.77428 0.52274 0.66115 0.0
Co396 Co 0.54881 0.35103 0.46014 0.0
C397 C 0.55107 0.57027 0.45797 0.0
C398 C 0.58163 0.51029 0.46503 0.0
C399 C 0.58281 0.6128 0.46561 0.0
N400 N 0.5618 0.48341 0.45992 0.0
N401 N 0.56351 0.65008 0.46114 0.0
H402 H 0.53388 0.57576 0.45561 0.0
H403 H 0.59401 0.45961 0.46897 0.0
C404 C 0.59483 0.29343 0.45136 0.0
O405 O 0.59491 0.3604 0.44073 0.0
N406 N 0.53598 0.21994 0.46069 0.0
C407 C 0.51658 0.19264 0.45503 0.0
C408 C 0.5153 0.09023 0.45521 0.0
C409 C 0.5461 0.13436 0.46439 0.0
N410 N 0.534 0.05371 0.46097 0.0
C411 C 0.53459 0.4206 0.43165 0.0
C412 C 0.55521 0.27774 0.41469 0.0
C413 C 0.54434 0.35607 0.40759 0.0
C414 C 0.53336 0.42618 0.41624 0.0
C415 C 0.55555 0.27369 0.43021 0.0
N416 N 0.54673 0.34892 0.4385 0.0
H417 H 0.52544 0.47357 0.43803 0.0
H418 H 0.56324 0.21084 0.43552 0.0
H419 H 0.50472 0.24327 0.45035 0.0
H420 H 0.56256 0.13068 0.46861 0.0
O421 O 0.52075 0.40936 0.46446 0.0
O422 O 0.545 0.36426 0.48139 0.0
O423 O 0.57858 0.28603 0.46013 0.0
C424 C 0.52623 0.405 0.47838 0.0
H425 H 0.59654 0.65612 0.4695 0.0
H426 H 0.50194 0.0463 0.45092 0.0
H427 H 0.56316 0.21987 0.4083 0.0
H428 H 0.52417 0.4859 0.41113 0.0
Co429 Co 0.20178 0.40752 0.46013 0.0
C430 C 0.19952 0.18828 0.45797 0.0
C431 C 0.16896 0.24826 0.46503 0.0
C432 C 0.16778 0.14575 0.46561 0.0
N433 N 0.18879 0.27514 0.45992 0.0
N434 N 0.18708 0.10847 0.46114 0.0
H435 H 0.21671 0.18279 0.45561 0.0
H436 H 0.15659 0.29894 0.46898 0.0
C437 C 0.15576 0.46508 0.45135 0.0
O438 O 0.15568 0.39808 0.44073 0.0
N439 N 0.21461 0.53861 0.46068 0.0
C440 C 0.23401 0.56591 0.45502 0.0
C441 C 0.23528 0.66832 0.45519 0.0
C442 C 0.2045 0.62418 0.46438 0.0
N443 N 0.21659 0.70484 0.46096 0.0
C444 C 0.216 0.33789 0.43165 0.0
C445 C 0.19537 0.48068 0.41468 0.0
C446 C 0.20624 0.40234 0.40758 0.0
C447 C 0.21723 0.33227 0.41624 0.0
C448 C 0.19504 0.48477 0.4302 0.0
N449 N 0.20386 0.40958 0.43849 0.0
H450 H 0.22515 0.28496 0.43803 0.0
H451 H 0.18734 0.54763 0.43551 0.0
H452 H 0.24586 0.51528 0.45033 0.0
H453 H 0.18804 0.62787 0.46861 0.0
O454 O 0.22984 0.3492 0.46446 0.0
O455 O 0.20559 0.39433 0.48138 0.0
O456 O 0.17201 0.47251 0.46013 0.0
C457 C 0.22437 0.35359 0.47838 0.0
H458 H 0.15406 0.10243 0.46951 0.0
H459 H 0.24865 0.71225 0.4509 0.0
H460 H 0.18741 0.53852 0.40829 0.0
H461 H 0.22642 0.27255 0.41113 0.0
Co462 Co 0.54876 0.40788 0.29138 0.0
C463 C 0.55102 0.18864 0.29354 0.0
C464 C 0.58158 0.2486 0.28648 0.0
C465 C 0.58276 0.14609 0.2859 0.0
N466 N 0.56175 0.2755 0.2916 0.0
N467 N 0.56346 0.10882 0.29037 0.0
H468 H 0.53383 0.18316 0.29591 0.0
H469 H 0.59395 0.29927 0.28253 0.0
C470 C 0.59478 0.46543 0.30016 0.0
O471 O 0.59485 0.39845 0.31078 0.0
N472 N 0.53593 0.53898 0.29082 0.0
C473 C 0.51653 0.56629 0.29648 0.0
C474 C 0.51525 0.6687 0.2963 0.0
C475 C 0.54605 0.62455 0.28712 0.0
N476 N 0.53395 0.70521 0.29054 0.0
C477 C 0.53455 0.33833 0.31986 0.0
C478 C 0.55517 0.48122 0.33682 0.0
C479 C 0.54432 0.40288 0.34393 0.0
C480 C 0.53333 0.33276 0.33528 0.0
C481 C 0.5555 0.48526 0.3213 0.0
N482 N 0.54668 0.41002 0.31302 0.0
H483 H 0.5254 0.28535 0.31349 0.0
H484 H 0.56319 0.54811 0.31598 0.0
H485 H 0.50467 0.51566 0.30116 0.0
H486 H 0.56251 0.62822 0.2829 0.0
O487 O 0.5207 0.34955 0.28705 0.0
O488 O 0.54495 0.39462 0.27012 0.0
O489 O 0.57853 0.47286 0.29138 0.0
C490 C 0.52618 0.35389 0.27314 0.0
H491 H 0.59648 0.10276 0.282 0.0
H492 H 0.50188 0.71264 0.30059 0.0
H493 H 0.56312 0.53909 0.3432 0.0
H494 H 0.52414 0.27304 0.34039 0.0
Co495 Co 0.20179 0.35039 0.29137 0.0
C496 C 0.19953 0.56964 0.29354 0.0
C497 C 0.16897 0.50967 0.28648 0.0
C498 C 0.16779 0.61218 0.2859 0.0
N499 N 0.1888 0.48278 0.29159 0.0
N500 N 0.1871 0.64946 0.29037 0.0
H501 H 0.21672 0.57511 0.29591 0.0
H502 H 0.1566 0.459 0.28253 0.0
C503 C 0.15578 0.29283 0.30015 0.0
O504 O 0.1557 0.35981 0.31077 0.0
N505 N 0.21463 0.2193 0.29081 0.0
C506 C 0.23403 0.19199 0.29647 0.0
C507 C 0.23531 0.08958 0.29629 0.0
C508 C 0.20451 0.13373 0.28711 0.0
N509 N 0.21661 0.05307 0.29053 0.0
C510 C 0.21601 0.41993 0.31986 0.0
C511 C 0.19539 0.27706 0.33682 0.0
C512 C 0.20625 0.35539 0.34392 0.0
C513 C 0.21724 0.42549 0.33527 0.0
C514 C 0.19505 0.27302 0.3213 0.0
N515 N 0.20387 0.34825 0.31301 0.0
H516 H 0.22516 0.4729 0.31348 0.0
H517 H 0.18736 0.21018 0.31598 0.0
H518 H 0.24588 0.24262 0.30114 0.0
H519 H 0.18805 0.13004 0.28289 0.0
O520 O 0.22985 0.40873 0.28705 0.0
O521 O 0.2056 0.36367 0.27012 0.0
O522 O 0.17202 0.28541 0.29137 0.0
C523 C 0.22437 0.40442 0.27313 0.0
H524 H 0.15407 0.65551 0.282 0.0
H525 H 0.24867 0.04565 0.30057 0.0
H526 H 0.18743 0.2192 0.3432 0.0
H527 H 0.22643 0.48521 0.34038 0.0
Co528 Co 0.95182 0.15795 0.54137 0.0
C529 C 0.94955 0.93871 0.54354 0.0
C530 C 0.919 0.99868 0.53648 0.0
C531 C 0.91782 0.89618 0.5359 0.0
N532 N 0.93883 0.02557 0.54159 0.0
N533 N 0.93712 0.85889 0.54037 0.0
H534 H 0.96675 0.93322 0.5459 0.0
H535 H 0.90662 0.04936 0.53254 0.0
C536 C 0.9058 0.21555 0.55015 0.0
O537 O 0.90573 0.14857 0.56078 0.0
N538 N 0.96465 0.28904 0.54081 0.0
C539 C 0.98405 0.31634 0.54646 0.0
C540 C 0.98533 0.41875 0.54628 0.0
C541 C 0.95453 0.37461 0.53711 0.0
N542 N 0.96663 0.45527 0.54053 0.0
C543 C 0.96603 0.08842 0.56986 0.0
C544 C 0.94542 0.23134 0.58682 0.0
C545 C 0.95627 0.153 0.59392 0.0
C546 C 0.96726 0.08287 0.58527 0.0
C547 C 0.94508 0.23536 0.57129 0.0
N548 N 0.9539 0.16011 0.56301 0.0
H549 H 0.97518 0.03543 0.56349 0.0
H550 H 0.93739 0.29821 0.56598 0.0
H551 H 0.99591 0.26571 0.55114 0.0
H552 H 0.93807 0.3783 0.53289 0.0
O553 O 0.97987 0.09959 0.53705 0.0
O554 O 0.95562 0.14466 0.52012 0.0
O555 O 0.92205 0.22295 0.54137 0.0
C556 C 0.9744 0.10391 0.52313 0.0
H557 H 0.90409 0.85285 0.532 0.0
H558 H 0.9987 0.46268 0.55057 0.0
H559 H 0.93747 0.28922 0.5932 0.0
H560 H 0.97645 0.02315 0.59038 0.0
Co561 Co 0.29883 0.10103 0.54138 0.0
C562 C 0.30109 0.32027 0.54354 0.0
C563 C 0.33165 0.26029 0.53648 0.0
C564 C 0.33283 0.3628 0.5359 0.0
N565 N 0.31182 0.23341 0.5416 0.0
N566 N 0.31353 0.40008 0.54038 0.0
H567 H 0.2839 0.32576 0.54591 0.0
H568 H 0.34402 0.20961 0.53254 0.0
C569 C 0.34485 0.04345 0.55016 0.0
O570 O 0.34493 0.11045 0.56078 0.0
N571 N 0.28599 0.96994 0.54083 0.0
C572 C 0.2666 0.94264 0.54649 0.0
C573 C 0.26532 0.84023 0.54631 0.0
C574 C 0.29611 0.88437 0.53713 0.0
N575 N 0.28402 0.80371 0.54055 0.0
C576 C 0.28462 0.17063 0.56987 0.0
C577 C 0.30524 0.02776 0.58683 0.0
C578 C 0.29439 0.10611 0.59394 0.0
C579 C 0.2834 0.17622 0.58528 0.0
C580 C 0.30557 0.0237 0.57131 0.0
N581 N 0.29675 0.09893 0.56302 0.0
H582 H 0.27547 0.22361 0.5635 0.0
H583 H 0.31326 0.96084 0.56599 0.0
H584 H 0.25474 0.99327 0.55117 0.0
H585 H 0.31257 0.88068 0.5329 0.0
O586 O 0.27077 0.15936 0.53706 0.0
O587 O 0.29502 0.11425 0.52013 0.0
O588 O 0.3286 0.03604 0.54138 0.0
C589 C 0.27624 0.15498 0.52314 0.0
H590 H 0.34655 0.40612 0.532 0.0
H591 H 0.25196 0.7963 0.5506 0.0
H592 H 0.3132 0.96989 0.59321 0.0
H593 H 0.27422 0.23595 0.59039 0.0
Co594 Co 0.95182 0.10111 0.71013 0.0
C595 C 0.94956 0.32036 0.70797 0.0
C596 C 0.919 0.26039 0.71503 0.0
C597 C 0.91782 0.36289 0.71561 0.0
N598 N 0.93884 0.23349 0.70992 0.0
N599 N 0.93712 0.40017 0.71114 0.0
H600 H 0.96675 0.32584 0.70561 0.0
H601 H 0.90663 0.20971 0.71897 0.0
C602 C 0.90581 0.04348 0.70136 0.0
O603 O 0.90572 0.11046 0.69074 0.0
N604 N 0.96466 0.97001 0.71069 0.0
C605 C 0.98406 0.9427 0.70502 0.0
C606 C 0.98533 0.84029 0.7052 0.0
C607 C 0.95454 0.88445 0.71439 0.0
N608 N 0.96663 0.80378 0.71096 0.0
C609 C 0.96603 0.17071 0.68165 0.0
C610 C 0.94541 0.02785 0.66468 0.0
C611 C 0.95627 0.10619 0.65758 0.0
C612 C 0.96726 0.1763 0.66623 0.0
C613 C 0.94508 0.02379 0.68021 0.0
N614 N 0.9539 0.09901 0.68849 0.0
H615 H 0.97518 0.22368 0.68802 0.0
H616 H 0.93739 0.96093 0.68552 0.0
H617 H 0.99591 0.99332 0.70034 0.0
H618 H 0.93808 0.88078 0.71862 0.0
O619 O 0.97988 0.15944 0.71446 0.0
O620 O 0.95564 0.11434 0.73139 0.0
O621 O 0.92206 0.03612 0.71013 0.0
C622 C 0.97442 0.15507 0.72837 0.0
H623 H 0.9041 0.40623 0.7195 0.0
H624 H 0.99869 0.79635 0.7009 0.0
H625 H 0.93746 0.96999 0.6583 0.0
H626 H 0.97644 0.23603 0.66113 0.0
Co627 Co 0.29889 0.15788 0.71014 0.0
C628 C 0.30115 0.93864 0.70798 0.0
C629 C 0.33171 0.9986 0.71504 0.0
C630 C 0.33289 0.89609 0.71562 0.0
N631 N 0.31188 0.0255 0.70993 0.0
N632 N 0.31359 0.85882 0.71115 0.0
H633 H 0.28396 0.93316 0.70562 0.0
H634 H 0.34409 0.04927 0.71898 0.0
C635 C 0.34491 0.21546 0.70137 0.0
O636 O 0.34499 0.14849 0.69074 0.0
N637 N 0.28606 0.28898 0.7107 0.0
C638 C 0.26666 0.31629 0.70504 0.0
C639 C 0.26538 0.4187 0.70522 0.0
C640 C 0.29618 0.37455 0.7144 0.0
N641 N 0.28408 0.45521 0.71098 0.0
C642 C 0.28468 0.08832 0.68166 0.0
C643 C 0.30529 0.23121 0.6647 0.0
C644 C 0.29443 0.15289 0.65759 0.0
C645 C 0.28344 0.08277 0.66625 0.0
C646 C 0.30563 0.23524 0.68022 0.0
N647 N 0.29681 0.16001 0.68851 0.0
H648 H 0.27553 0.03534 0.68803 0.0
H649 H 0.31332 0.29808 0.68554 0.0
H650 H 0.25481 0.26566 0.70036 0.0
H651 H 0.31264 0.37823 0.71862 0.0
O652 O 0.27083 0.09956 0.71447 0.0
O653 O 0.29508 0.14464 0.7314 0.0
O654 O 0.32866 0.22286 0.71014 0.0
C655 C 0.27631 0.10391 0.72839 0.0
H656 H 0.34662 0.85276 0.71951 0.0
H657 H 0.25202 0.46263 0.70093 0.0
H658 H 0.31324 0.28909 0.65832 0.0
H659 H 0.27426 0.02305 0.66114 0.0
Co660 Co 0.04879 0.85068 0.46014 0.0
C661 C 0.05105 0.06992 0.45797 0.0
C662 C 0.08161 0.00995 0.46502 0.0
C663 C 0.08279 0.11245 0.4656 0.0
N664 N 0.06178 0.98306 0.45992 0.0
N665 N 0.06349 0.14974 0.46114 0.0
H666 H 0.03386 0.07541 0.45561 0.0
H667 H 0.09399 0.95927 0.46897 0.0
C668 C 0.0948 0.79306 0.45136 0.0
O669 O 0.09487 0.86001 0.44073 0.0
N670 N 0.03595 0.71959 0.46071 0.0
C671 C 0.01655 0.69229 0.45505 0.0
C672 C 0.01527 0.58988 0.45523 0.0
C673 C 0.04607 0.63402 0.4644 0.0
N674 N 0.03397 0.55336 0.46099 0.0
C675 C 0.03457 0.92021 0.43166 0.0
C676 C 0.05518 0.77728 0.41469 0.0
C677 C 0.04432 0.85562 0.40759 0.0
C678 C 0.03334 0.92576 0.41624 0.0
C679 C 0.05551 0.77326 0.43022 0.0
N680 N 0.0467 0.84852 0.4385 0.0
H681 H 0.02543 0.97321 0.43803 0.0
H682 H 0.0632 0.71041 0.43554 0.0
H683 H 0.00469 0.74292 0.45038 0.0
H684 H 0.06254 0.63033 0.46862 0.0
O685 O 0.02073 0.90904 0.46447 0.0
O686 O 0.04498 0.86398 0.48139 0.0
O687 O 0.07856 0.78568 0.46014 0.0
C688 C 0.02621 0.90473 0.47838 0.0
H689 H 0.09652 0.15578 0.4695 0.0
H690 H 0.0019 0.54595 0.45095 0.0
H691 H 0.06312 0.71939 0.40832 0.0
H692 H 0.02415 0.98549 0.41113 0.0
Co693 Co 0.70179 0.90782 0.46015 0.0
C694 C 0.69953 0.68857 0.45799 0.0
C695 C 0.66896 0.74855 0.46504 0.0
C696 C 0.66778 0.64604 0.46562 0.0
N697 N 0.6888 0.77544 0.45993 0.0
N698 N 0.68709 0.60876 0.46115 0.0
H699 H 0.71672 0.68308 0.45563 0.0
H700 H 0.65659 0.79923 0.46898 0.0
C701 C 0.65577 0.96542 0.45137 0.0
O702 O 0.6557 0.89845 0.44074 0.0
N703 N 0.71462 0.0389 0.46071 0.0
C704 C 0.73402 0.0662 0.45506 0.0
C705 C 0.7353 0.16861 0.45524 0.0
C706 C 0.7045 0.12448 0.46441 0.0
N707 N 0.7166 0.20513 0.461 0.0
C708 C 0.716 0.83824 0.43167 0.0
C709 C 0.69539 0.98118 0.41471 0.0
C710 C 0.70625 0.90283 0.4076 0.0
C711 C 0.71723 0.83269 0.41625 0.0
C712 C 0.69506 0.98521 0.43023 0.0
N713 N 0.70387 0.90995 0.43851 0.0
H714 H 0.72514 0.78524 0.43804 0.0
H715 H 0.68737 0.04807 0.43555 0.0
H716 H 0.74588 0.01557 0.45038 0.0
H717 H 0.68804 0.12817 0.46863 0.0
O718 O 0.72984 0.84947 0.46448 0.0
O719 O 0.70559 0.89456 0.48141 0.0
O720 O 0.67202 0.97281 0.46015 0.0
C721 C 0.72437 0.85382 0.4784 0.0
H722 H 0.65406 0.60272 0.46951 0.0
H723 H 0.74867 0.21254 0.45095 0.0
H724 H 0.68745 0.03907 0.40833 0.0
H725 H 0.72641 0.77295 0.41114 0.0
Co726 Co 0.04878 0.90739 0.29138 0.0
C727 C 0.05104 0.68814 0.29355 0.0
C728 C 0.0816 0.7481 0.28649 0.0
C729 C 0.08278 0.6456 0.28591 0.0
N730 N 0.06177 0.775 0.2916 0.0
N731 N 0.06347 0.60832 0.29038 0.0
H732 H 0.03385 0.68266 0.29592 0.0
H733 H 0.09397 0.79877 0.28254 0.0
C734 C 0.0948 0.96496 0.30016 0.0
O735 O 0.09487 0.89798 0.31078 0.0
N736 N 0.03594 0.03848 0.29082 0.0
C737 C 0.01654 0.06579 0.29648 0.0
C738 C 0.01527 0.1682 0.2963 0.0
C739 C 0.04606 0.12405 0.28712 0.0
N740 N 0.03396 0.20471 0.29054 0.0
C741 C 0.03456 0.83786 0.31987 0.0
C742 C 0.05518 0.98072 0.33683 0.0
C743 C 0.04432 0.9024 0.34393 0.0
C744 C 0.03333 0.8323 0.33528 0.0
C745 C 0.05552 0.98475 0.3213 0.0
N746 N 0.0467 0.90953 0.31302 0.0
H747 H 0.02541 0.78489 0.31349 0.0
H748 H 0.06321 0.04759 0.31599 0.0
H749 H 0.00469 0.01516 0.30116 0.0
H750 H 0.06252 0.12773 0.2829 0.0
O751 O 0.02072 0.84904 0.28706 0.0
O752 O 0.04497 0.89411 0.27013 0.0
O753 O 0.07855 0.97237 0.29138 0.0
C754 C 0.0262 0.85337 0.27314 0.0
H755 H 0.0965 0.60226 0.28201 0.0
H756 H 0.0019 0.21213 0.30059 0.0
H757 H 0.06314 0.03858 0.34321 0.0
H758 H 0.02414 0.77259 0.34039 0.0
Co759 Co 0.70177 0.85083 0.29139 0.0
C760 C 0.69951 0.07007 0.29355 0.0
C761 C 0.66895 0.01011 0.28648 0.0
C762 C 0.66777 0.11262 0.2859 0.0
N763 N 0.68878 0.98322 0.2916 0.0
N764 N 0.68708 0.14989 0.29038 0.0
H765 H 0.7167 0.07555 0.29592 0.0
H766 H 0.65658 0.95943 0.28253 0.0
C767 C 0.65575 0.79332 0.30017 0.0
O768 O 0.65566 0.86033 0.31079 0.0
N769 N 0.7146 0.71973 0.29084 0.0
C770 C 0.734 0.69242 0.29651 0.0
C771 C 0.73527 0.59001 0.29633 0.0
C772 C 0.70448 0.63416 0.28714 0.0
N773 N 0.71658 0.5535 0.29056 0.0
C774 C 0.71599 0.92045 0.31987 0.0
C775 C 0.69536 0.77767 0.33684 0.0
C776 C 0.70622 0.856 0.34394 0.0
C777 C 0.71722 0.92606 0.33529 0.0
C778 C 0.69502 0.77359 0.32132 0.0
N779 N 0.70384 0.84878 0.31303 0.0
H780 H 0.72514 0.97338 0.3135 0.0
H781 H 0.68732 0.71074 0.31601 0.0
H782 H 0.74585 0.74305 0.30119 0.0
H783 H 0.68803 0.63049 0.28291 0.0
O784 O 0.72983 0.90913 0.28706 0.0
O785 O 0.70558 0.86399 0.27014 0.0
O786 O 0.672 0.78586 0.2914 0.0
C787 C 0.72436 0.90471 0.27315 0.0
H788 H 0.65405 0.15595 0.282 0.0
H789 H 0.74863 0.54607 0.30062 0.0
H790 H 0.6874 0.71984 0.34323 0.0
H791 H 0.72641 0.98576 0.34039 0.0
Co792 Co 0.95174 0.65668 0.04139 0.0
C793 C 0.94948 0.43743 0.04354 0.0
C794 C 0.91893 0.49741 0.03646 0.0
C795 C 0.91775 0.39491 0.03588 0.0
N796 N 0.93876 0.52429 0.04159 0.0
N797 N 0.93705 0.35762 0.04037 0.0
H798 H 0.96667 0.43194 0.04592 0.0
H799 H 0.90657 0.5481 0.03251 0.0
C800 C 0.90571 0.71418 0.05015 0.0
O801 O 0.90562 0.64715 0.06076 0.0
N802 N 0.96457 0.78777 0.04086 0.0
C803 C 0.98396 0.81507 0.04654 0.0
C804 C 0.98523 0.91748 0.04637 0.0
C805 C 0.95446 0.87333 0.03715 0.0
N806 N 0.96655 0.95399 0.04058 0.0
C807 C 0.96595 0.58699 0.06987 0.0
C808 C 0.9453 0.72975 0.08685 0.0
C809 C 0.95618 0.65144 0.09395 0.0
C810 C 0.96717 0.58139 0.08529 0.0
C811 C 0.94497 0.73384 0.07132 0.0
N812 N 0.9538 0.65867 0.06303 0.0
H813 H 0.97511 0.53408 0.0635 0.0
H814 H 0.93727 0.79669 0.06601 0.0
H815 H 0.9958 0.76444 0.05123 0.0
H816 H 0.93801 0.87701 0.03291 0.0
O817 O 0.97981 0.59839 0.03707 0.0
O818 O 0.95558 0.64358 0.02014 0.0
O819 O 0.92197 0.72165 0.04139 0.0
C820 C 0.97435 0.60286 0.02315 0.0
H821 H 0.90404 0.35158 0.03197 0.0
H822 H 0.99859 0.96142 0.05067 0.0
H823 H 0.93734 0.78758 0.09323 0.0
H824 H 0.97637 0.52169 0.09039 0.0
Co825 Co 0.29888 0.60112 0.0414 0.0
C826 C 0.30114 0.82037 0.04356 0.0
C827 C 0.3317 0.76039 0.03652 0.0
C828 C 0.33289 0.86289 0.03594 0.0
N829 N 0.31187 0.7335 0.04162 0.0
N830 N 0.31358 0.90018 0.0404 0.0
H831 H 0.28394 0.82585 0.04592 0.0
H832 H 0.34408 0.70971 0.03258 0.0
C833 C 0.34489 0.54349 0.05019 0.0
O834 O 0.34496 0.61043 0.06082 0.0
N835 N 0.28604 0.47003 0.04083 0.0
C836 C 0.26664 0.44274 0.04648 0.0
C837 C 0.26536 0.34033 0.04631 0.0
C838 C 0.29617 0.38446 0.03714 0.0
N839 N 0.28407 0.3038 0.04055 0.0
C840 C 0.28464 0.67068 0.06988 0.0
C841 C 0.30524 0.52777 0.08685 0.0
C842 C 0.29438 0.60611 0.09395 0.0
C843 C 0.2834 0.67624 0.08529 0.0
C844 C 0.30559 0.52374 0.07132 0.0
N845 N 0.29678 0.59899 0.06303 0.0
H846 H 0.2755 0.72367 0.0635 0.0
H847 H 0.31329 0.4609 0.06601 0.0
H848 H 0.25478 0.49337 0.05116 0.0
H849 H 0.31263 0.38077 0.03292 0.0
O850 O 0.27082 0.65947 0.03706 0.0
O851 O 0.29508 0.61438 0.02014 0.0
O852 O 0.32865 0.53613 0.04141 0.0
C853 C 0.27631 0.65513 0.02315 0.0
H854 H 0.34661 0.90622 0.03205 0.0
H855 H 0.25199 0.2964 0.05059 0.0
H856 H 0.31319 0.46989 0.09323 0.0
H857 H 0.27421 0.73596 0.0904 0.0
Co858 Co 0.9518 0.60008 0.21016 0.0
C859 C 0.94954 0.81933 0.20799 0.0
C860 C 0.91898 0.75937 0.21503 0.0
C861 C 0.9178 0.86188 0.21561 0.0
N862 N 0.93881 0.73247 0.20993 0.0
N863 N 0.9371 0.89915 0.21115 0.0
H864 H 0.96674 0.8248 0.20563 0.0
H865 H 0.9066 0.7087 0.21897 0.0
C866 C 0.9058 0.54245 0.20137 0.0
O867 O 0.90573 0.60939 0.19074 0.0
N868 N 0.96464 0.46899 0.21073 0.0
C869 C 0.98405 0.44168 0.20509 0.0
C870 C 0.98533 0.33927 0.20527 0.0
C871 C 0.95452 0.38342 0.21443 0.0
N872 N 0.96662 0.30276 0.21102 0.0
C873 C 0.966 0.66957 0.18167 0.0
C874 C 0.94541 0.52648 0.16472 0.0
C875 C 0.95625 0.60484 0.15761 0.0
C876 C 0.96722 0.67506 0.16625 0.0
C877 C 0.94509 0.52253 0.18025 0.0
N878 N 0.95389 0.59785 0.18852 0.0
H879 H 0.97513 0.72264 0.18803 0.0
H880 H 0.93741 0.45968 0.18557 0.0
H881 H 0.99591 0.4923 0.20041 0.0
H882 H 0.93805 0.37974 0.21864 0.0
O883 O 0.97986 0.65845 0.21448 0.0
O884 O 0.95561 0.61343 0.23141 0.0
O885 O 0.92203 0.5351 0.21016 0.0
C886 C 0.97438 0.65417 0.2284 0.0
H887 H 0.90407 0.90521 0.2195 0.0
H888 H 0.9987 0.29534 0.20099 0.0
H889 H 0.93747 0.46854 0.15835 0.0
H890 H 0.97639 0.73481 0.16113 0.0
Co891 Co 0.29877 0.65772 0.21016 0.0
C892 C 0.30104 0.43847 0.20798 0.0
C893 C 0.3316 0.49844 0.21504 0.0
C894 C 0.33278 0.39593 0.21562 0.0
N895 N 0.31176 0.52533 0.20993 0.0
N896 N 0.31347 0.35865 0.21115 0.0
H897 H 0.28385 0.433 0.20562 0.0
H898 H 0.34397 0.54911 0.21899 0.0
C899 C 0.34479 0.71533 0.20138 0.0
O900 O 0.34487 0.64838 0.19075 0.0
N901 N 0.28594 0.78881 0.21072 0.0
C902 C 0.26653 0.81612 0.20507 0.0
C903 C 0.26526 0.91853 0.20525 0.0
C904 C 0.29606 0.87438 0.21442 0.0
N905 N 0.28396 0.95504 0.21101 0.0
C906 C 0.28457 0.58821 0.18167 0.0
C907 C 0.30518 0.73117 0.16471 0.0
C908 C 0.29433 0.65283 0.15761 0.0
C909 C 0.28335 0.58268 0.16625 0.0
C910 C 0.30551 0.73517 0.18024 0.0
N911 N 0.29669 0.6599 0.18852 0.0
H912 H 0.27543 0.5352 0.18804 0.0
H913 H 0.31319 0.79802 0.18556 0.0
H914 H 0.25468 0.76549 0.20039 0.0
H915 H 0.31252 0.87807 0.21864 0.0
O916 O 0.27072 0.59936 0.21448 0.0
O917 O 0.29496 0.6444 0.23141 0.0
O918 O 0.32854 0.72271 0.21016 0.0
C919 C 0.27619 0.60366 0.2284 0.0
H920 H 0.3465 0.3526 0.21952 0.0
H921 H 0.25189 0.96246 0.20096 0.0
H922 H 0.31313 0.78906 0.15834 0.0
H923 H 0.27417 0.52295 0.16114 0.0
Co924 Co 0.04896 0.35128 0.96013 0.0
C925 C 0.05122 0.57053 0.95798 0.0
C926 C 0.08177 0.51055 0.96505 0.0
C927 C 0.08295 0.61305 0.96563 0.0
N928 N 0.06194 0.48367 0.95993 0.0
N929 N 0.06365 0.65034 0.96115 0.0
H930 H 0.03403 0.57602 0.95561 0.0
H931 H 0.09414 0.45986 0.96899 0.0
C932 C 0.09498 0.29375 0.95136 0.0
O933 O 0.09507 0.36077 0.94074 0.0
N934 N 0.03612 0.22019 0.96066 0.0
C935 C 0.01674 0.19289 0.95499 0.0
C936 C 0.01546 0.09048 0.95517 0.0
C937 C 0.04624 0.13462 0.96437 0.0
N938 N 0.03415 0.05396 0.96094 0.0
C939 C 0.03476 0.42095 0.93164 0.0
C940 C 0.05539 0.27811 0.91467 0.0
C941 C 0.04452 0.35644 0.90757 0.0
C942 C 0.03353 0.42654 0.91623 0.0
C943 C 0.05572 0.27405 0.9302 0.0
N944 N 0.0469 0.34926 0.93849 0.0
H945 H 0.02561 0.4739 0.93801 0.0
H946 H 0.06341 0.21119 0.93551 0.0
H947 H 0.00489 0.24352 0.9503 0.0
H948 H 0.06269 0.13095 0.96861 0.0
O949 O 0.02089 0.40958 0.96445 0.0
O950 O 0.04513 0.3644 0.98138 0.0
O951 O 0.07873 0.28631 0.96013 0.0
C952 C 0.02635 0.40512 0.97837 0.0
H953 H 0.09667 0.65638 0.96953 0.0
H954 H 0.0021 0.04654 0.95087 0.0
H955 H 0.06334 0.22025 0.90829 0.0
H956 H 0.02434 0.48625 0.91112 0.0
Co957 Co 0.70184 0.40778 0.96017 0.0
C958 C 0.69958 0.18854 0.95799 0.0
C959 C 0.66902 0.24852 0.96504 0.0
C960 C 0.66784 0.14601 0.96562 0.0
N961 N 0.68886 0.27541 0.95994 0.0
N962 N 0.68714 0.10873 0.96115 0.0
H963 H 0.71677 0.18305 0.95564 0.0
H964 H 0.65664 0.2992 0.96898 0.0
C965 C 0.65584 0.46545 0.95138 0.0
O966 O 0.65576 0.39851 0.94075 0.0
N967 N 0.71468 0.53887 0.96074 0.0
C968 C 0.73409 0.56617 0.95509 0.0
C969 C 0.73536 0.66858 0.95526 0.0
C970 C 0.70456 0.62444 0.96443 0.0
N971 N 0.71666 0.7051 0.96102 0.0
C972 C 0.71607 0.33827 0.93168 0.0
C973 C 0.69547 0.4812 0.91472 0.0
C974 C 0.70633 0.40287 0.90762 0.0
C975 C 0.71731 0.33273 0.91627 0.0
C976 C 0.69513 0.48522 0.93024 0.0
N977 N 0.70394 0.40996 0.93853 0.0
H978 H 0.72521 0.28527 0.93806 0.0
H979 H 0.68744 0.54807 0.93556 0.0
H980 H 0.74595 0.51554 0.95041 0.0
H981 H 0.68809 0.62814 0.96864 0.0
O982 O 0.7299 0.34941 0.96449 0.0
O983 O 0.70565 0.39445 0.98142 0.0
O984 O 0.67208 0.4728 0.96016 0.0
C985 C 0.72442 0.35368 0.97841 0.0
H986 H 0.65411 0.10269 0.96951 0.0
H987 H 0.74873 0.71251 0.95098 0.0
H988 H 0.68753 0.53909 0.90834 0.0
H989 H 0.7265 0.273 0.91116 0.0
Co990 Co 0.04889 0.40785 0.79136 0.0
C991 C 0.05115 0.1886 0.79352 0.0
C992 C 0.08171 0.24857 0.78647 0.0
C993 C 0.08289 0.14606 0.78589 0.0
N994 N 0.06188 0.27546 0.79158 0.0
N995 N 0.06359 0.10878 0.79036 0.0
H996 H 0.03396 0.18313 0.79588 0.0
H997 H 0.09409 0.29923 0.78252 0.0
C998 C 0.09491 0.46546 0.80013 0.0
O999 O 0.09499 0.39849 0.81075 0.0
N1000 N 0.03605 0.53894 0.79079 0.0
C1001 C 0.01666 0.56625 0.79645 0.0
C1002 C 0.01538 0.66867 0.79628 0.0
C1003 C 0.04617 0.62451 0.78709 0.0
N1004 N 0.03408 0.70518 0.79051 0.0
C1005 C 0.03471 0.33832 0.81985 0.0
C1006 C 0.05531 0.48133 0.8368 0.0
C1007 C 0.04447 0.40299 0.84391 0.0
C1008 C 0.03349 0.3328 0.83527 0.0
C1009 C 0.05563 0.48532 0.82127 0.0
N1010 N 0.04682 0.41003 0.81299 0.0
H1011 H 0.02557 0.28528 0.81349 0.0
H1012 H 0.06331 0.54817 0.81595 0.0
H1013 H 0.0048 0.51563 0.80113 0.0
H1014 H 0.06264 0.62819 0.78287 0.0
O1015 O 0.02083 0.34951 0.78704 0.0
O1016 O 0.04507 0.39456 0.7701 0.0
O1017 O 0.07866 0.47284 0.79135 0.0
C1018 C 0.0263 0.35384 0.77312 0.0
H1019 H 0.09662 0.10272 0.78199 0.0
H1020 H 0.00201 0.7126 0.80056 0.0
H1021 H 0.06325 0.53925 0.84317 0.0
H1022 H 0.02432 0.27307 0.84038 0.0
Co1023 Co 0.70195 0.3506 0.79141 0.0
C1024 C 0.69969 0.56985 0.79357 0.0
C1025 C 0.66913 0.50988 0.7865 0.0
C1026 C 0.66795 0.61239 0.78592 0.0
N1027 N 0.68896 0.48299 0.79162 0.0
N1028 N 0.68725 0.64967 0.7904 0.0
H1029 H 0.71688 0.57533 0.79594 0.0
H1030 H 0.65676 0.45921 0.78255 0.0
C1031 C 0.65593 0.29307 0.80018 0.0
O1032 O 0.65584 0.36008 0.8108 0.0
N1033 N 0.71478 0.21951 0.79086 0.0
C1034 C 0.73418 0.1922 0.79653 0.0
C1035 C 0.73545 0.08979 0.79635 0.0
C1036 C 0.70467 0.13394 0.78716 0.0
N1037 N 0.71676 0.05328 0.79058 0.0
C1038 C 0.71617 0.42023 0.81989 0.0
C1039 C 0.69552 0.2775 0.83686 0.0
C1040 C 0.70638 0.35584 0.84396 0.0
C1041 C 0.71738 0.42587 0.8353 0.0
C1042 C 0.6952 0.27338 0.82134 0.0
N1043 N 0.70402 0.34854 0.81305 0.0
H1044 H 0.72533 0.47314 0.81351 0.0
H1045 H 0.6875 0.21052 0.81603 0.0
H1046 H 0.74603 0.24283 0.80121 0.0
H1047 H 0.68821 0.13026 0.78293 0.0
O1048 O 0.73001 0.40892 0.78708 0.0
O1049 O 0.70576 0.36379 0.77016 0.0
O1050 O 0.67218 0.28562 0.79141 0.0
C1051 C 0.72454 0.40454 0.77316 0.0
H1052 H 0.65423 0.65572 0.78202 0.0
H1053 H 0.74881 0.04585 0.80064 0.0
H1054 H 0.68756 0.21969 0.84325 0.0
H1055 H 0.72658 0.48559 0.84041 0.0
C1056 C 0.47599 0.13562 0.11808 0.0
C1057 C 0.45625 0.14327 0.11028 0.0
H1058 H 0.49139 0.11835 0.1393 0.0
C1059 C 0.43649 0.13681 0.11808 0.0
H1060 H 0.49141 0.14018 0.11227 0.0
C1061 C 0.43647 0.12188 0.13345 0.0
C1062 C 0.45622 0.11537 0.14126 0.0
H1063 H 0.42108 0.14157 0.11225 0.0
H1064 H 0.42106 0.11718 0.13927 0.0
C1065 C 0.47598 0.12295 0.13347 0.0
C1066 C 0.81411 0.12054 0.11805 0.0
C1067 C 0.79434 0.11416 0.11025 0.0
H1068 H 0.82954 0.14015 0.13924 0.0
C1069 C 0.77461 0.12188 0.11805 0.0
H1070 H 0.82951 0.11573 0.11221 0.0
C1071 C 0.77462 0.13456 0.13344 0.0
C1072 C 0.79438 0.14209 0.14123 0.0
H1073 H 0.75918 0.11738 0.11224 0.0
H1074 H 0.75921 0.13923 0.13927 0.0
C1075 C 0.81413 0.13549 0.13342 0.0
C1076 C 0.56422 0.87199 0.88345 0.0
C1077 C 0.54447 0.86557 0.89126 0.0
H1078 H 0.57964 0.89154 0.86226 0.0
C1079 C 0.52472 0.87317 0.88346 0.0
H1080 H 0.57963 0.86727 0.88928 0.0
C1081 C 0.52472 0.88576 0.86807 0.0
C1082 C 0.54447 0.89332 0.86028 0.0
H1083 H 0.5093 0.86863 0.88928 0.0
H1084 H 0.50931 0.89033 0.86225 0.0
C1085 C 0.56423 0.88685 0.86809 0.0
C1086 C 0.22607 0.87317 0.86805 0.0
C1087 C 0.20631 0.86561 0.86027 0.0
H1088 H 0.2415 0.89038 0.88926 0.0
C1089 C 0.18656 0.87213 0.86808 0.0
H1090 H 0.24148 0.86856 0.86223 0.0
C1091 C 0.18658 0.88706 0.88345 0.0
C1092 C 0.20634 0.89349 0.89125 0.0
H1093 H 0.17115 0.86744 0.86226 0.0
H1094 H 0.17117 0.89182 0.88928 0.0
C1095 C 0.22608 0.88583 0.88344 0.0
C1096 C 0.43654 0.62196 0.63345 0.0
C1097 C 0.4563 0.61549 0.64125 0.0
H1098 H 0.42112 0.64161 0.61226 0.0
C1099 C 0.47605 0.62311 0.63345 0.0
H1100 H 0.42114 0.61723 0.63929 0.0
C1101 C 0.47603 0.63577 0.61806 0.0
C1102 C 0.45628 0.64337 0.61028 0.0
H1103 H 0.49147 0.61853 0.63927 0.0
H1104 H 0.49145 0.64035 0.61224 0.0
C1105 C 0.43653 0.63689 0.61809 0.0
C1106 C 0.77466 0.63562 0.63348 0.0
C1107 C 0.79441 0.6433 0.64127 0.0
H1108 H 0.75923 0.61837 0.61227 0.0
C1109 C 0.81416 0.63695 0.63345 0.0
H1110 H 0.75924 0.64011 0.6393 0.0
C1111 C 0.81415 0.62206 0.61808 0.0
C1112 C 0.79439 0.61551 0.61028 0.0
H1113 H 0.82958 0.64173 0.63928 0.0
H1114 H 0.82956 0.61742 0.61225 0.0
C1115 C 0.77465 0.62301 0.61809 0.0
C1116 C 0.5641 0.37203 0.38344 0.0
C1117 C 0.54435 0.36553 0.39125 0.0
H1118 H 0.5795 0.39169 0.36224 0.0
C1119 C 0.5246 0.37313 0.38346 0.0
H1120 H 0.57951 0.36731 0.38926 0.0
C1121 C 0.52459 0.38579 0.36807 0.0
C1122 C 0.54433 0.39342 0.36027 0.0
H1123 H 0.50918 0.36854 0.38928 0.0
H1124 H 0.50917 0.39036 0.36225 0.0
C1125 C 0.56409 0.38695 0.36807 0.0
C1126 C 0.22598 0.3725 0.36806 0.0
C1127 C 0.20623 0.36487 0.36026 0.0
H1128 H 0.2414 0.38979 0.38927 0.0
C1129 C 0.18648 0.37136 0.36807 0.0
H1130 H 0.2414 0.36791 0.36224 0.0
C1131 C 0.18647 0.38632 0.38343 0.0
C1132 C 0.20623 0.39282 0.39124 0.0
H1133 H 0.17107 0.36662 0.36224 0.0
H1134 H 0.17106 0.39106 0.38926 0.0
C1135 C 0.22598 0.38519 0.38345 0.0
C1136 C 0.97601 0.12327 0.63345 0.0
C1137 C 0.95626 0.11567 0.64124 0.0
H1138 H 0.99143 0.14049 0.61224 0.0
C1139 C 0.9365 0.12217 0.63343 0.0
H1140 H 0.99143 0.11867 0.63927 0.0
C1141 C 0.93651 0.1371 0.61807 0.0
C1142 C 0.95626 0.14355 0.61026 0.0
H1143 H 0.92109 0.11745 0.63926 0.0
H1144 H 0.9211 0.14183 0.61224 0.0
C1145 C 0.97601 0.13592 0.61806 0.0
C1146 C 0.27467 0.12322 0.61807 0.0
C1147 C 0.29441 0.11559 0.61027 0.0
H1148 H 0.25926 0.14045 0.63929 0.0
C1149 C 0.31417 0.12204 0.61808 0.0
H1150 H 0.25925 0.11865 0.61226 0.0
C1151 C 0.31418 0.13696 0.63344 0.0
C1152 C 0.29443 0.14345 0.64125 0.0
H1153 H 0.32958 0.1173 0.61224 0.0
H1154 H 0.32959 0.14167 0.63927 0.0
C1155 C 0.27468 0.13586 0.63346 0.0
C1156 C 0.02458 0.87271 0.38346 0.0
C1157 C 0.04433 0.86507 0.39125 0.0
H1158 H 0.00916 0.88996 0.36225 0.0
C1159 C 0.06409 0.87151 0.38344 0.0
H1160 H 0.00916 0.86815 0.38928 0.0
C1161 C 0.06409 0.88644 0.36808 0.0
C1162 C 0.04433 0.89294 0.36027 0.0
H1163 H 0.07949 0.86677 0.38927 0.0
H1164 H 0.07949 0.89114 0.36225 0.0
C1165 C 0.02458 0.88536 0.36807 0.0
C1166 C 0.72597 0.87304 0.36807 0.0
C1167 C 0.70622 0.86549 0.36028 0.0
H1168 H 0.7414 0.89022 0.38928 0.0
C1169 C 0.68647 0.87204 0.36809 0.0
H1170 H 0.74139 0.8684 0.36225 0.0
C1171 C 0.68647 0.88697 0.38346 0.0
C1172 C 0.70623 0.89337 0.39126 0.0
H1173 H 0.67105 0.86736 0.36226 0.0
H1174 H 0.67106 0.89175 0.38929 0.0
C1175 C 0.72597 0.88569 0.38346 0.0
C1176 C 0.97596 0.62195 0.13346 0.0
C1177 C 0.95622 0.61423 0.14127 0.0
H1178 H 0.99135 0.63922 0.11225 0.0
C1179 C 0.93646 0.62053 0.13347 0.0
H1180 H 0.99138 0.61751 0.13928 0.0
C1181 C 0.93644 0.63539 0.1181 0.0
C1182 C 0.95618 0.64199 0.11028 0.0
H1183 H 0.92105 0.61571 0.1393 0.0
H1184 H 0.92102 0.63999 0.11228 0.0
C1185 C 0.97594 0.63454 0.11807 0.0
C1186 C 0.27462 0.62314 0.11807 0.0
C1187 C 0.29438 0.61555 0.11029 0.0
H1188 H 0.25919 0.64033 0.13928 0.0
C1189 C 0.31413 0.62204 0.1181 0.0
H1190 H 0.25921 0.61856 0.11225 0.0
C1191 C 0.31411 0.63694 0.13347 0.0
C1192 C 0.29435 0.64339 0.14127 0.0
H1193 H 0.32954 0.61733 0.11228 0.0
H1194 H 0.32952 0.64167 0.1393 0.0
C1195 C 0.27461 0.63578 0.13346 0.0
C1196 C 0.06426 0.38725 0.86805 0.0
C1197 C 0.04449 0.3936 0.86025 0.0
H1198 H 0.07968 0.36776 0.88924 0.0
C1199 C 0.02475 0.38594 0.86805 0.0
H1200 H 0.07966 0.39202 0.86222 0.0
C1201 C 0.02477 0.37336 0.88344 0.0
C1202 C 0.04452 0.36587 0.89123 0.0
H1203 H 0.00933 0.39042 0.86224 0.0
H1204 H 0.00935 0.36874 0.88927 0.0
C1205 C 0.06427 0.3724 0.88342 0.0
C1206 C 0.6866 0.37192 0.8681 0.0
C1207 C 0.70636 0.3654 0.8603 0.0
H1208 H 0.67117 0.39165 0.88929 0.0
C1209 C 0.7261 0.37305 0.8681 0.0
H1210 H 0.67119 0.36717 0.86226 0.0
C1211 C 0.72609 0.38577 0.88349 0.0
C1212 C 0.70634 0.39341 0.89128 0.0
H1213 H 0.74152 0.36844 0.86229 0.0
H1214 H 0.7415 0.39036 0.88931 0.0
C1215 C 0.68659 0.38691 0.88346 0.0
C1216 C 0.51956 0.95518 0.00482 0.0
C1217 C 0.51277 0.95346 0.98994 0.0
H1218 H 0.5129 0.00494 0.02693 0.0
C1219 C 0.49346 1.00348 0.98601 0.0
H1220 H 0.53442 0.91803 0.00819 0.0
C1221 C 0.4812 0.05399 0.99672 0.0
C1222 C 0.48799 0.0557 0.0116 0.0
H1223 H 0.48785 1.00423 0.97461 0.0
H1224 H 0.46634 0.09114 0.99335 0.0
C1225 C 0.50729 0.00569 0.01553 0.0
C1226 C 0.74337 0.25255 0.01552 0.0
C1227 C 0.76267 0.20248 0.01158 0.0
H1228 H 0.71628 0.3405 0.0082 0.0
C1229 C 0.76947 0.20441 0.99671 0.0
H1230 H 0.73775 0.25315 0.02692 0.0
C1231 C 0.75724 0.25517 0.98601 0.0
C1232 C 0.73794 0.30524 0.98995 0.0
H1233 H 0.78433 0.16722 0.99333 0.0
H1234 H 0.76286 0.25457 0.97462 0.0
C1235 C 0.73113 0.30332 0.00482 0.0
C1236 C 0.50717 0.25325 0.236 0.0
C1237 C 0.48787 0.20323 0.23994 0.0
H1238 H 0.53429 0.34098 0.24334 0.0
C1239 C 0.48108 0.20501 0.25482 0.0
H1240 H 0.51278 0.25395 0.22461 0.0
C1241 C 0.49333 0.25558 0.26552 0.0
C1242 C 0.51263 0.3056 0.26159 0.0
H1243 H 0.46621 0.16785 0.25819 0.0
H1244 H 0.48772 0.25488 0.27692 0.0
C1245 C 0.51943 0.30382 0.24671 0.0
C1246 C 0.76949 0.05325 0.2548 0.0
C1247 C 0.7627 0.05487 0.23992 0.0
H1248 H 0.76282 1.00367 0.27691 0.0
C1249 C 0.74339 0.00487 0.23599 0.0
H1250 H 0.78435 0.0904 0.25817 0.0
C1251 C 0.73112 0.95447 0.24671 0.0
C1252 C 0.73791 0.95285 0.26159 0.0
H1253 H 0.73779 1.00405 0.2246 0.0
H1254 H 0.71626 0.91732 0.24334 0.0
C1255 C 0.75722 1.00285 0.26552 0.0
C1256 C 0.25733 0.75572 0.98601 0.0
C1257 C 0.23803 0.80577 0.98994 0.0
H1258 H 0.28444 0.66798 0.99335 0.0
C1259 C 0.23123 0.80402 0.00481 0.0
H1260 H 0.26295 0.75499 0.97461 0.0
C1261 C 0.24347 0.75346 0.01552 0.0
C1262 C 0.26278 0.70341 0.01159 0.0
H1263 H 0.21636 0.8412 0.00818 0.0
H1264 H 0.23785 0.75419 0.02692 0.0
C1265 C 0.26958 0.70516 0.99672 0.0
C1266 C 0.48124 0.70487 0.75481 0.0
C1267 C 0.48803 0.70314 0.73994 0.0
H1268 H 0.48789 0.75466 0.77692 0.0
C1269 C 0.50734 0.75314 0.736 0.0
H1270 H 0.46638 0.66773 0.75819 0.0
C1271 C 0.5196 0.80366 0.74672 0.0
C1272 C 0.51281 0.8054 0.76159 0.0
H1273 H 0.51295 0.75387 0.72461 0.0
H1274 H 0.53446 0.84081 0.74334 0.0
C1275 C 0.4935 0.75539 0.76553 0.0
C1276 C 0.24346 0.00564 0.736 0.0
C1277 C 0.26276 0.05565 0.73994 0.0
H1278 H 0.21633 0.91796 0.74334 0.0
C1279 C 0.26955 0.05391 0.75481 0.0
H1280 H 0.23785 0.00491 0.7246 0.0
C1281 C 0.25729 1.00337 0.76552 0.0
C1282 C 0.23798 0.95336 0.76159 0.0
H1283 H 0.28441 0.09106 0.75819 0.0
H1284 H 0.2629 1.0041 0.77692 0.0
C1285 C 0.2312 0.95511 0.74671 0.0
C1286 C 0.50723 0.50555 0.51552 0.0
C1287 C 0.48792 0.55557 0.51159 0.0
H1288 H 0.53435 0.41784 0.50818 0.0
C1289 C 0.48113 0.55383 0.49671 0.0
H1290 H 0.51284 0.50482 0.52691 0.0
C1291 C 0.49338 0.50329 0.486 0.0
C1292 C 0.51269 0.45326 0.48993 0.0
H1293 H 0.46627 0.59099 0.49334 0.0
H1294 H 0.48777 0.50402 0.47461 0.0
C1295 C 0.51949 0.455 0.50481 0.0
C1296 C 0.73111 0.80383 0.50482 0.0
C1297 C 0.73791 0.80556 0.48995 0.0
H1298 H 0.73776 0.75403 0.52693 0.0
C1299 C 0.75721 0.75554 0.48601 0.0
H1300 H 0.71625 0.84099 0.50819 0.0
C1301 C 0.76947 0.705 0.49673 0.0
C1302 C 0.76268 0.70327 0.5116 0.0
H1303 H 0.76283 0.7548 0.47462 0.0
H1304 H 0.78433 0.66784 0.49335 0.0
C1305 C 0.74337 0.75329 0.51553 0.0
C1306 C 0.75738 0.50282 0.76554 0.0
C1307 C 0.73807 0.4528 0.76161 0.0
H1308 H 0.78449 0.59055 0.7582 0.0
C1309 C 0.73127 0.45456 0.74674 0.0
H1310 H 0.763 0.50354 0.77694 0.0
C1311 C 0.74352 0.50513 0.73603 0.0
C1312 C 0.76283 0.55516 0.73996 0.0
H1313 H 0.71641 0.4174 0.74337 0.0
H1314 H 0.7379 0.50442 0.72463 0.0
C1315 C 0.76963 0.55339 0.75483 0.0
C1316 C 0.26948 0.20489 0.49671 0.0
C1317 C 0.2627 0.2032 0.51159 0.0
H1318 H 0.26283 0.2546 0.4746 0.0
C1319 C 0.24339 0.25322 0.51552 0.0
H1320 H 0.28435 0.16773 0.49334 0.0
C1321 C 0.23112 0.3037 0.50481 0.0
C1322 C 0.23791 0.30539 0.48993 0.0
H1323 H 0.23778 0.25398 0.52692 0.0
H1324 H 0.21626 0.34086 0.50818 0.0
C1325 C 0.25722 0.25537 0.486 0.0
C1326 C 0.26946 0.55346 0.25482 0.0
C1327 C 0.26266 0.5553 0.23994 0.0
H1328 H 0.26282 0.50347 0.27692 0.0
C1329 C 0.24336 0.50525 0.236 0.0
H1330 H 0.28431 0.59063 0.25819 0.0
C1331 C 0.23111 0.4546 0.24671 0.0
C1332 C 0.23791 0.45277 0.26158 0.0
H1333 H 0.23774 0.50459 0.22461 0.0
H1334 H 0.21625 0.41744 0.24333 0.0
C1335 C 0.25721 0.50281 0.26552 0.0
C1336 C 0.01948 0.95489 0.50481 0.0
C1337 C 0.01268 0.95307 0.48993 0.0
H1338 H 0.01285 0.00485 0.52691 0.0
C1339 C 0.99337 1.00311 0.486 0.0
H1340 H 0.03434 0.91772 0.50818 0.0
C1341 C 0.98113 0.05375 0.49671 0.0
C1342 C 0.98793 0.05557 0.51158 0.0
H1343 H 0.98776 1.00379 0.4746 0.0
H1344 H 0.96627 0.09092 0.49333 0.0
C1345 C 0.00723 0.00553 0.51551 0.0
C1346 C 0.00727 0.25332 0.73599 0.0
C1347 C 0.98797 0.20331 0.73992 0.0
H1348 H 0.03439 0.341 0.74332 0.0
C1349 C 0.98118 0.20505 0.7548 0.0
H1350 H 0.01288 0.25406 0.72459 0.0
C1351 C 0.99345 0.25557 0.76551 0.0
C1352 C 0.01275 0.30558 0.76157 0.0
H1353 H 0.96632 0.16789 0.75817 0.0
H1354 H 0.98784 0.25483 0.77691 0.0
C1355 C 0.01953 0.30384 0.74669 0.0
C1356 C 0.99336 0.75499 0.26553 0.0
C1357 C 0.01266 0.80503 0.26159 0.0
H1358 H 0.96625 0.66719 0.25819 0.0
C1359 C 0.01946 0.80321 0.24672 0.0
H1360 H 0.98774 0.75433 0.27692 0.0
C1361 C 0.00721 0.75257 0.23601 0.0
C1362 C 0.98791 0.70253 0.23995 0.0
H1363 H 0.03432 0.84037 0.24334 0.0
H1364 H 0.01283 0.75324 0.22462 0.0
C1365 C 0.98111 0.70436 0.25482 0.0
C1366 C 0.99346 0.5031 0.98599 0.0
C1367 C 0.01278 0.45313 0.98992 0.0
H1368 H 0.9663 0.59049 0.99334 0.0
C1369 C 0.01954 0.45464 0.00481 0.0
H1370 H 0.98787 0.504 0.97459 0.0
C1371 C 0.00724 0.50489 0.01553 0.0
C1372 C 0.98793 0.55486 0.0116 0.0
H1373 H 0.0344 0.4175 0.00818 0.0
H1374 H 0.01283 0.50399 0.02693 0.0
C1375 C 0.98117 0.55335 0.99671 0.0
C1376 C 0.461 0.72598 0.05011 0.0
C1377 C 0.44425 0.75649 0.04048 0.0
H1378 H 0.48113 0.60719 0.05778 0.0
C1379 C 0.43515 0.68633 0.03072 0.0
H1380 H 0.46812 0.77768 0.05793 0.0
C1381 C 0.44275 0.58813 0.03055 0.0
C1382 C 0.45954 0.55765 0.04019 0.0
H1383 H 0.42245 0.70763 0.02302 0.0
H1384 H 0.43556 0.5364 0.02277 0.0
C1385 C 0.46855 0.62801 0.04997 0.0
C1386 C 0.78204 0.62979 0.04992 0.0
C1387 C 0.79107 0.70013 0.04015 0.0
H1388 H 0.78246 0.48014 0.05789 0.0
C1389 C 0.80788 0.66963 0.03053 0.0
H1390 H 0.76944 0.65062 0.05771 0.0
C1391 C 0.81548 0.57144 0.0307 0.0
C1392 C 0.80636 0.5013 0.04046 0.0
H1393 H 0.81508 0.72135 0.02274 0.0
H1394 H 0.82819 0.55013 0.02301 0.0
C1395 C 0.7896 0.53182 0.05007 0.0
C1396 C 0.44264 0.67069 0.22099 0.0
C1397 C 0.45944 0.70117 0.21135 0.0
H1398 H 0.42234 0.5512 0.22851 0.0
C1399 C 0.46846 0.63081 0.20158 0.0
H1400 H 0.43545 0.72242 0.22877 0.0
C1401 C 0.4609 0.53285 0.20144 0.0
C1402 C 0.44415 0.50234 0.21106 0.0
H1403 H 0.48104 0.65162 0.19377 0.0
H1404 H 0.46803 0.48115 0.19361 0.0
C1405 C 0.43504 0.5725 0.22081 0.0
C1406 C 0.80794 0.58711 0.22095 0.0
C1407 C 0.79115 0.55664 0.21131 0.0
H1408 H 0.82823 0.70659 0.2285 0.0
C1409 C 0.78215 0.627 0.20153 0.0
H1410 H 0.81512 0.53537 0.22874 0.0
C1411 C 0.7897 0.72497 0.2014 0.0
C1412 C 0.80644 0.75547 0.21103 0.0
H1413 H 0.76957 0.6062 0.19372 0.0
H1414 H 0.78259 0.77668 0.19357 0.0
C1415 C 0.81554 0.6853 0.22079 0.0
C1416 C 0.56561 0.32277 0.97081 0.0
C1417 C 0.5565 0.25262 0.96106 0.0
H1418 H 0.5652 0.4727 0.97877 0.0
C1419 C 0.53974 0.28313 0.95144 0.0
H1420 H 0.57831 0.30147 0.97851 0.0
C1421 C 0.53219 0.3811 0.95158 0.0
C1422 C 0.5412 0.45145 0.96135 0.0
H1423 H 0.53261 0.23143 0.94361 0.0
H1424 H 0.5196 0.40191 0.94378 0.0
C1425 C 0.55801 0.42097 0.97098 0.0
C1426 C 0.21863 0.37816 0.95157 0.0
C1427 C 0.20962 0.30781 0.96134 0.0
H1428 H 0.21821 0.52782 0.9436 0.0
C1429 C 0.19281 0.33829 0.97097 0.0
H1430 H 0.23122 0.35734 0.94377 0.0
C1431 C 0.18521 0.43649 0.9708 0.0
C1432 C 0.19432 0.50664 0.96105 0.0
H1433 H 0.18561 0.28657 0.97875 0.0
H1434 H 0.17251 0.45779 0.9785 0.0
C1435 C 0.21108 0.47613 0.95142 0.0
C1436 C 0.53977 0.47573 0.8001 0.0
C1437 C 0.55653 0.50624 0.79048 0.0
H1438 H 0.51963 0.35695 0.80776 0.0
C1439 C 0.56563 0.43609 0.78072 0.0
H1440 H 0.53265 0.52743 0.80792 0.0
C1441 C 0.55804 0.33789 0.78055 0.0
C1442 C 0.54123 0.30741 0.79018 0.0
H1443 H 0.57834 0.45739 0.77302 0.0
H1444 H 0.56523 0.28616 0.77277 0.0
C1445 C 0.53222 0.37777 0.79995 0.0
C1446 C 0.18515 0.3227 0.78071 0.0
C1447 C 0.19425 0.25254 0.79047 0.0
H1448 H 0.18555 0.47262 0.77276 0.0
C1449 C 0.211 0.28304 0.80009 0.0
H1450 H 0.17245 0.3014 0.77301 0.0
C1451 C 0.21855 0.38101 0.79995 0.0
C1452 C 0.20955 0.45137 0.79018 0.0
H1453 H 0.21812 0.23134 0.80792 0.0
H1454 H 0.23114 0.40182 0.80776 0.0
C1455 C 0.19274 0.42089 0.78054 0.0
C1456 C 0.4351 0.18628 0.53072 0.0
C1457 C 0.44421 0.25643 0.54047 0.0
H1458 H 0.4355 0.03635 0.52277 0.0
C1459 C 0.46097 0.22592 0.5501 0.0
H1460 H 0.42239 0.20758 0.52303 0.0
C1461 C 0.46852 0.12795 0.54995 0.0
C1462 C 0.4595 0.0576 0.54018 0.0
H1463 H 0.46809 0.27762 0.55792 0.0
H1464 H 0.48111 0.10713 0.55775 0.0
C1465 C 0.4427 0.08808 0.53055 0.0
C1466 C 0.78966 0.03295 0.55011 0.0
C1467 C 0.8064 1.00243 0.54048 0.0
H1468 H 0.76952 0.15175 0.55778 0.0
C1469 C 0.8155 0.07258 0.53072 0.0
H1470 H 0.78254 0.98126 0.55794 0.0
C1471 C 0.8079 0.17078 0.53055 0.0
C1472 C 0.79111 0.20127 0.54019 0.0
H1473 H 0.8282 0.05127 0.52302 0.0
H1474 H 0.81509 0.2225 0.52277 0.0
C1475 C 0.7821 0.13092 0.54997 0.0
C1476 C 0.46104 0.03284 0.70143 0.0
C1477 C 0.4443 1.00234 0.71106 0.0
H1478 H 0.48118 0.15162 0.69376 0.0
C1479 C 0.4352 0.0725 0.72081 0.0
H1480 H 0.46817 0.98114 0.6936 0.0
C1481 C 0.44279 0.17069 0.72098 0.0
C1482 C 0.45959 0.20116 0.71134 0.0
H1483 H 0.4225 0.0512 0.72852 0.0
H1484 H 0.43561 0.22242 0.72877 0.0
C1485 C 0.4686 0.1308 0.70157 0.0
C1486 C 0.80806 0.08777 0.72098 0.0
C1487 C 0.79122 0.0573 0.71137 0.0
H1488 H 0.82838 0.20725 0.72848 0.0
C1489 C 0.78218 0.12766 0.70161 0.0
H1490 H 0.81527 0.03604 0.72875 0.0
C1491 C 0.78974 0.22562 0.70145 0.0
C1492 C 0.80652 0.25612 0.71105 0.0
H1493 H 0.76957 0.10685 0.69382 0.0
H1494 H 0.78259 0.27732 0.69364 0.0
C1495 C 0.81566 0.18596 0.7208 0.0
C1496 C 0.53966 0.78293 0.45142 0.0
C1497 C 0.55641 0.75242 0.46105 0.0
H1498 H 0.51952 0.90172 0.44376 0.0
C1499 C 0.56551 0.82257 0.4708 0.0
H1500 H 0.53253 0.73123 0.44359 0.0
C1501 C 0.55791 0.92077 0.47097 0.0
C1502 C 0.54111 0.95126 0.46134 0.0
H1503 H 0.57821 0.80127 0.4785 0.0
H1504 H 0.56511 0.9725 0.47875 0.0
C1505 C 0.5321 0.8809 0.45156 0.0
C1506 C 0.18509 0.93597 0.4708 0.0
C1507 C 0.19418 0.00613 0.46105 0.0
H1508 H 0.18549 0.78604 0.47875 0.0
C1509 C 0.21093 0.97562 0.45141 0.0
H1510 H 0.17239 0.95727 0.4785 0.0
C1511 C 0.21848 0.87765 0.45155 0.0
C1512 C 0.20948 0.80729 0.46133 0.0
H1513 H 0.21805 0.02732 0.44359 0.0
H1514 H 0.23107 0.85683 0.44374 0.0
C1515 C 0.19268 0.83777 0.47097 0.0
C1516 C 0.53961 0.97597 0.30009 0.0
C1517 C 0.55636 0.00648 0.29046 0.0
H1518 H 0.51947 0.8572 0.30775 0.0
C1519 C 0.56546 0.93633 0.28071 0.0
H1520 H 0.53248 0.02767 0.30792 0.0
C1521 C 0.55786 0.83813 0.28054 0.0
C1522 C 0.54106 0.80766 0.29017 0.0
H1523 H 0.57816 0.95762 0.27301 0.0
H1524 H 0.56505 0.7864 0.27275 0.0
C1525 C 0.53205 0.87801 0.29995 0.0
C1526 C 0.21095 0.7823 0.30009 0.0
C1527 C 0.1942 0.75179 0.29046 0.0
H1528 H 0.23109 0.90109 0.30775 0.0
C1529 C 0.1851 0.82194 0.2807 0.0
H1530 H 0.21807 0.73061 0.30791 0.0
C1531 C 0.19269 0.92013 0.28053 0.0
C1532 C 0.20949 0.95062 0.29017 0.0
H1533 H 0.17239 0.80064 0.27301 0.0
H1534 H 0.1855 0.97186 0.27275 0.0
C1535 C 0.2185 0.88027 0.29994 0.0
C1536 C 0.94271 0.58821 0.53053 0.0
C1537 C 0.95952 0.55772 0.54017 0.0
H1538 H 0.92241 0.70771 0.52301 0.0
C1539 C 0.96853 0.62807 0.54994 0.0
H1540 H 0.93552 0.53649 0.52275 0.0
C1541 C 0.96098 0.72604 0.55008 0.0
C1542 C 0.94422 0.75656 0.54046 0.0
H1543 H 0.98112 0.60724 0.55774 0.0
H1544 H 0.9681 0.77773 0.55791 0.0
C1545 C 0.93512 0.68641 0.53071 0.0
C1546 C 0.28968 0.53294 0.5501 0.0
C1547 C 0.30642 0.50242 0.54047 0.0
H1548 H 0.26954 0.65172 0.55776 0.0
C1549 C 0.31553 0.57258 0.53071 0.0
H1550 H 0.28255 0.48124 0.55792 0.0
C1551 C 0.30793 0.67077 0.53055 0.0
C1552 C 0.29113 0.70126 0.54018 0.0
H1553 H 0.32823 0.55127 0.52301 0.0
H1554 H 0.31512 0.7225 0.52276 0.0
C1555 C 0.28212 0.63091 0.54996 0.0
C1556 C 0.93512 0.57267 0.7208 0.0
C1557 C 0.94422 0.50251 0.71104 0.0
H1558 H 0.93553 0.7226 0.72875 0.0
C1559 C 0.96097 0.53301 0.70141 0.0
H1560 H 0.92242 0.55138 0.7285 0.0
C1561 C 0.96853 0.63097 0.70156 0.0
C1562 C 0.95952 0.70134 0.71133 0.0
H1563 H 0.9681 0.4813 0.69359 0.0
H1564 H 0.98111 0.65178 0.69375 0.0
C1565 C 0.94272 0.67087 0.72096 0.0
C1566 C 0.31559 0.68633 0.72081 0.0
C1567 C 0.30649 0.75649 0.71106 0.0
H1568 H 0.31519 0.53641 0.72876 0.0
C1569 C 0.28974 0.72598 0.70143 0.0
H1570 H 0.32829 0.70763 0.72851 0.0
C1571 C 0.28218 0.62801 0.70157 0.0
C1572 C 0.29119 0.55766 0.71135 0.0
H1573 H 0.28261 0.77768 0.6936 0.0
H1574 H 0.2696 0.6072 0.69377 0.0
C1575 C 0.308 0.58814 0.72098 0.0
C1576 C 0.03962 0.28259 0.45143 0.0
C1577 C 0.05638 0.25207 0.46105 0.0
H1578 H 0.01948 0.40138 0.44378 0.0
C1579 C 0.06549 0.32222 0.4708 0.0
H1580 H 0.03249 0.2309 0.44361 0.0
C1581 C 0.0579 0.42042 0.47098 0.0
C1582 C 0.04109 0.45091 0.46135 0.0
H1583 H 0.0782 0.30092 0.4785 0.0
H1584 H 0.06509 0.47215 0.47876 0.0
C1585 C 0.03207 0.38056 0.45158 0.0
C1586 C 0.68508 0.43627 0.47081 0.0
C1587 C 0.69419 0.50642 0.46106 0.0
H1588 H 0.68548 0.28635 0.47877 0.0
C1589 C 0.71095 0.4759 0.45144 0.0
H1590 H 0.67237 0.45757 0.47851 0.0
C1591 C 0.7185 0.37794 0.45159 0.0
C1592 C 0.70948 0.30759 0.46136 0.0
H1593 H 0.71808 0.5276 0.44362 0.0
H1594 H 0.73109 0.35712 0.44378 0.0
C1595 C 0.69268 0.33807 0.47098 0.0
C1596 C 0.03207 0.37751 0.29995 0.0
C1597 C 0.04108 0.30716 0.29018 0.0
H1598 H 0.0325 0.52717 0.30793 0.0
C1599 C 0.05788 0.33764 0.28054 0.0
H1600 H 0.01948 0.35669 0.30776 0.0
C1601 C 0.06547 0.43584 0.28072 0.0
C1602 C 0.05637 0.50599 0.29047 0.0
H1603 H 0.06507 0.28592 0.27276 0.0
H1604 H 0.07818 0.45713 0.27301 0.0
C1605 C 0.03962 0.47548 0.3001 0.0
C1606 C 0.68508 0.32239 0.28072 0.0
C1607 C 0.69418 0.25222 0.29047 0.0
H1608 H 0.68549 0.47232 0.27277 0.0
C1609 C 0.71092 0.28273 0.30011 0.0
H1610 H 0.67239 0.30109 0.27301 0.0
C1611 C 0.71847 0.3807 0.29997 0.0
C1612 C 0.70947 0.45106 0.2902 0.0
H1613 H 0.71803 0.23102 0.30794 0.0
H1614 H 0.73105 0.40151 0.30778 0.0
C1615 C 0.69267 0.42058 0.28055 0.0
C1616 C 0.96842 0.12681 0.04999 0.0
C1617 C 0.95944 0.05644 0.04021 0.0
H1618 H 0.96798 0.27649 0.05795 0.0
C1619 C 0.94266 0.08692 0.03055 0.0
H1620 H 0.98099 0.10599 0.05781 0.0
C1621 C 0.93507 0.18512 0.03071 0.0
C1622 C 0.94415 0.25528 0.04047 0.0
H1623 H 0.93549 0.03518 0.02276 0.0
H1624 H 0.92238 0.20641 0.02299 0.0
C1625 C 0.96087 0.22478 0.05012 0.0
C1626 C 0.31559 0.07267 0.03074 0.0
C1627 C 0.30648 1.00252 0.04049 0.0
H1628 H 0.31519 0.22259 0.02279 0.0
C1629 C 0.28971 0.03303 0.05011 0.0
H1630 H 0.3283 0.05137 0.02305 0.0
C1631 C 0.28216 0.131 0.04996 0.0
C1632 C 0.29118 0.20135 0.04019 0.0
H1633 H 0.28258 0.98134 0.05793 0.0
H1634 H 0.26956 0.15182 0.05776 0.0
C1635 C 0.30799 0.17087 0.03057 0.0
C1636 C 0.96098 0.032 0.20145 0.0
C1637 C 0.94421 1.00148 0.21107 0.0
H1638 H 0.98113 0.15078 0.19381 0.0
C1639 C 0.93509 0.07163 0.22082 0.0
H1640 H 0.96811 0.9803 0.19363 0.0
C1641 C 0.94269 0.16982 0.22099 0.0
C1642 C 0.95951 0.20031 0.21137 0.0
H1643 H 0.92238 0.05033 0.22851 0.0
H1644 H 0.93549 0.22155 0.22877 0.0
C1645 C 0.96853 0.12996 0.2016 0.0
C1646 C 0.28961 0.2258 0.20144 0.0
C1647 C 0.30637 0.25632 0.21106 0.0
H1648 H 0.26947 0.10702 0.19379 0.0
C1649 C 0.31548 0.18617 0.22082 0.0
H1650 H 0.28248 0.2775 0.19362 0.0
C1651 C 0.30788 0.08798 0.22099 0.0
C1652 C 0.29107 0.05749 0.21136 0.0
H1653 H 0.32819 0.20747 0.22851 0.0
H1654 H 0.31508 0.03626 0.22878 0.0
C1655 C 0.28206 0.12784 0.20159 0.0
C1656 C 0.05805 0.92104 0.97096 0.0
C1657 C 0.04126 0.95152 0.96132 0.0
H1658 H 0.07833 0.80155 0.97852 0.0
C1659 C 0.03227 0.88115 0.95154 0.0
H1660 H 0.06522 0.97278 0.97875 0.0
C1661 C 0.03982 0.78318 0.95141 0.0
C1662 C 0.05655 0.75268 0.96105 0.0
H1663 H 0.0197 0.90196 0.94372 0.0
H1664 H 0.03271 0.73147 0.94357 0.0
C1665 C 0.06564 0.82284 0.97081 0.0
C1666 C 0.69273 0.83805 0.971 0.0
C1667 C 0.70954 0.80755 0.96137 0.0
H1668 H 0.67242 0.95755 0.97851 0.0
C1669 C 0.71857 0.8779 0.9516 0.0
H1670 H 0.68553 0.78633 0.97878 0.0
C1671 C 0.71101 0.97586 0.95145 0.0
C1672 C 0.69425 0.00639 0.96107 0.0
H1673 H 0.73116 0.85707 0.94381 0.0
H1674 H 0.71814 0.02755 0.94363 0.0
C1675 C 0.68513 0.93624 0.97082 0.0
C1676 C 0.05799 0.8381 0.78052 0.0
C1677 C 0.04119 0.80762 0.79015 0.0
H1678 H 0.0783 0.95759 0.77299 0.0
C1679 C 0.03218 0.87798 0.79992 0.0
H1680 H 0.06519 0.78637 0.77274 0.0
C1681 C 0.03973 0.97594 0.80007 0.0
C1682 C 0.05649 0.00645 0.79045 0.0
H1683 H 0.01959 0.85717 0.80773 0.0
H1684 H 0.03261 0.02764 0.8079 0.0
C1685 C 0.06559 0.93629 0.78069 0.0
C1686 C 0.69285 0.92035 0.78057 0.0
C1687 C 0.70965 0.95083 0.79022 0.0
H1688 H 0.67256 0.80087 0.77303 0.0
C1689 C 0.71865 0.88047 0.79999 0.0
H1690 H 0.68567 0.97209 0.77279 0.0
C1691 C 0.7111 0.78251 0.80013 0.0
C1692 C 0.69435 0.752 0.7905 0.0
H1693 H 0.73123 0.90128 0.8078 0.0
H1694 H 0.71821 0.7308 0.80796 0.0
C1695 C 0.68526 0.82216 0.78074 0.0
C1696 C 0.36848 0.42104 0.06355 0.0
C1697 C 0.36126 0.46268 0.05012 0.0
H1698 H 0.38764 0.30748 0.07406 0.0
C1699 C 0.3682 0.42013 0.03669 0.0
H1700 H 0.36305 0.45126 0.07407 0.0
C1701 C 0.38253 0.33894 0.03668 0.0
C1702 C 0.38946 0.29627 0.05011 0.0
H1703 H 0.36267 0.4502 0.02619 0.0
H1704 H 0.38807 0.30896 0.02618 0.0
C1705 C 0.38222 0.33779 0.06355 0.0
C1706 C 0.86834 0.91972 0.06352 0.0
C1707 C 0.86114 0.9614 0.05009 0.0
H1708 H 0.88748 0.80612 0.07403 0.0
C1709 C 0.8681 0.91887 0.03665 0.0
H1710 H 0.86289 0.94991 0.07403 0.0
C1711 C 0.88243 0.83768 0.03665 0.0
C1712 C 0.88934 0.79498 0.05009 0.0
H1713 H 0.86258 0.94897 0.02615 0.0
H1714 H 0.88799 0.80773 0.02615 0.0
C1715 C 0.88208 0.83646 0.06352 0.0
C1716 C 0.36838 0.83774 0.188 0.0
C1717 C 0.36115 0.79615 0.20144 0.0
H1718 H 0.38754 0.95124 0.17749 0.0
C1719 C 0.3681 0.83875 0.21487 0.0
H1720 H 0.36295 0.80748 0.17749 0.0
C1721 C 0.38243 0.91993 0.21487 0.0
C1722 C 0.38936 0.96254 0.20143 0.0
H1723 H 0.36256 0.80872 0.22537 0.0
H1724 H 0.38797 0.94994 0.22537 0.0
C1725 C 0.38212 0.92098 0.188 0.0
C1726 C 0.86815 0.33786 0.21485 0.0
C1727 C 0.86124 0.2952 0.20141 0.0
H1728 H 0.888 0.44911 0.22536 0.0
C1729 C 0.86849 0.33673 0.18798 0.0
H1730 H 0.8626 0.30787 0.22535 0.0
C1731 C 0.88223 0.41999 0.18799 0.0
C1732 C 0.88944 0.46162 0.20142 0.0
H1733 H 0.86309 0.30643 0.17747 0.0
H1734 H 0.88767 0.45022 0.17748 0.0
C1735 C 0.88248 0.41904 0.21485 0.0
C1736 C 0.63225 0.58788 0.938 0.0
C1737 C 0.63948 0.5463 0.95144 0.0
H1738 H 0.61309 0.70142 0.92749 0.0
C1739 C 0.63254 0.58893 0.96487 0.0
H1740 H 0.63767 0.5576 0.92749 0.0
C1741 C 0.61822 0.67014 0.96487 0.0
C1742 C 0.61128 0.71275 0.95144 0.0
H1743 H 0.63808 0.55891 0.97537 0.0
H1744 H 0.61268 0.70018 0.97537 0.0
C1745 C 0.61851 0.67115 0.938 0.0
C1746 C 0.13259 0.08905 0.96485 0.0
C1747 C 0.13954 0.04649 0.95141 0.0
H1748 H 0.11272 0.20024 0.97535 0.0
C1749 C 0.13233 0.08814 0.93798 0.0
H1750 H 0.13812 0.05897 0.97535 0.0
C1751 C 0.11859 0.17141 0.93798 0.0
C1752 C 0.11135 0.21294 0.95142 0.0
H1753 H 0.13776 0.05791 0.92747 0.0
H1754 H 0.11318 0.20173 0.92747 0.0
C1755 C 0.11827 0.17026 0.96485 0.0
C1756 C 0.63262 0.16969 0.78668 0.0
C1757 C 0.63955 0.2123 0.80012 0.0
H1758 H 0.61274 0.05853 0.77618 0.0
C1759 C 0.6323 0.17076 0.81355 0.0
H1760 H 0.63817 0.19969 0.77619 0.0
C1761 C 0.61855 0.08756 0.81355 0.0
C1762 C 0.61132 0.04598 0.80011 0.0
H1763 H 0.63772 0.20103 0.82407 0.0
H1764 H 0.61311 0.05732 0.82406 0.0
C1765 C 0.61828 0.08856 0.78668 0.0
C1766 C 0.11821 0.58892 0.78664 0.0
C1767 C 0.11127 0.54629 0.80007 0.0
H1768 H 0.13808 0.70014 0.77615 0.0
C1769 C 0.11849 0.58787 0.81351 0.0
H1770 H 0.11268 0.55889 0.77614 0.0
C1771 C 0.13223 0.67112 0.81351 0.0
C1772 C 0.13947 0.71271 0.80008 0.0
H1773 H 0.11307 0.55759 0.82402 0.0
H1774 H 0.13765 0.70138 0.82403 0.0
C1775 C 0.13253 0.67011 0.78665 0.0
C1776 C 0.38219 0.83785 0.56354 0.0
C1777 C 0.38942 0.79624 0.55011 0.0
H1778 H 0.36303 0.95139 0.57405 0.0
C1779 C 0.38248 0.83882 0.53667 0.0
H1780 H 0.38762 0.80761 0.57405 0.0
C1781 C 0.36815 0.92 0.53667 0.0
C1782 C 0.36121 0.96264 0.5501 0.0
H1783 H 0.38802 0.80877 0.52617 0.0
H1784 H 0.36261 0.95 0.52617 0.0
C1785 C 0.36845 0.9211 0.56354 0.0
C1786 C 0.86845 0.42114 0.56353 0.0
C1787 C 0.86121 0.46269 0.5501 0.0
H1788 H 0.88763 0.30767 0.57404 0.0
C1789 C 0.86814 0.42008 0.53667 0.0
H1790 H 0.86303 0.4514 0.57405 0.0
C1791 C 0.88248 0.33893 0.53666 0.0
C1792 C 0.88943 0.29634 0.5501 0.0
H1793 H 0.8626 0.45009 0.52617 0.0
H1794 H 0.88802 0.30891 0.52616 0.0
C1795 C 0.8822 0.33792 0.56353 0.0
C1796 C 0.36822 0.33883 0.71486 0.0
C1797 C 0.36128 0.29625 0.70143 0.0
H1798 H 0.3881 0.44998 0.72536 0.0
C1799 C 0.36852 0.33782 0.688 0.0
H1800 H 0.36268 0.3088 0.72536 0.0
C1801 C 0.38226 0.42105 0.688 0.0
C1802 C 0.3895 0.46259 0.70143 0.0
H1803 H 0.36309 0.30758 0.67748 0.0
H1804 H 0.38769 0.45131 0.67748 0.0
C1805 C 0.38256 0.41998 0.71486 0.0
C1806 C 0.86847 0.83783 0.68798 0.0
C1807 C 0.86128 0.79612 0.70141 0.0
H1808 H 0.8876 0.9515 0.67747 0.0
C1809 C 0.86823 0.83864 0.71485 0.0
H1810 H 0.86303 0.80764 0.67747 0.0
C1811 C 0.88255 0.91988 0.71485 0.0
C1812 C 0.88945 0.96262 0.70142 0.0
H1813 H 0.86272 0.80851 0.72535 0.0
H1814 H 0.8881 0.94983 0.72535 0.0
C1815 C 0.8822 0.92113 0.68798 0.0
C1816 C 0.63246 0.08883 0.46485 0.0
C1817 C 0.63941 0.04623 0.45142 0.0
H1818 H 0.61258 0.20003 0.47535 0.0
C1819 C 0.63218 0.08782 0.43799 0.0
H1820 H 0.63799 0.0588 0.47536 0.0
C1821 C 0.61844 0.17106 0.43799 0.0
C1822 C 0.6112 0.21263 0.45142 0.0
H1823 H 0.63761 0.05756 0.42748 0.0
H1824 H 0.61302 0.20133 0.42747 0.0
C1825 C 0.61813 0.17001 0.46485 0.0
C1826 C 0.1184 0.67065 0.43798 0.0
C1827 C 0.11117 0.71225 0.45142 0.0
H1828 H 0.13756 0.55714 0.42747 0.0
C1829 C 0.11812 0.66968 0.46485 0.0
H1830 H 0.11296 0.70088 0.42747 0.0
C1831 C 0.13245 0.58851 0.46485 0.0
C1832 C 0.13939 0.54588 0.45141 0.0
H1833 H 0.11258 0.69972 0.47535 0.0
H1834 H 0.138 0.55852 0.47535 0.0
C1835 C 0.13214 0.58742 0.43798 0.0
C1836 C 0.6181 0.5888 0.28667 0.0
C1837 C 0.61115 0.54622 0.3001 0.0
H1838 H 0.63798 0.69995 0.27617 0.0
C1839 C 0.61838 0.58779 0.31353 0.0
H1840 H 0.61256 0.55878 0.27617 0.0
C1841 C 0.63212 0.67101 0.31354 0.0
C1842 C 0.63937 0.71255 0.3001 0.0
H1843 H 0.61294 0.55755 0.32405 0.0
H1844 H 0.63755 0.70127 0.32405 0.0
C1845 C 0.63243 0.66995 0.28667 0.0
C1846 C 0.13246 0.16945 0.28666 0.0
C1847 C 0.1394 0.21204 0.30009 0.0
H1848 H 0.11257 0.0583 0.27616 0.0
C1849 C 0.13216 0.1705 0.31352 0.0
H1850 H 0.138 0.19945 0.27616 0.0
C1851 C 0.11841 0.0873 0.31353 0.0
C1852 C 0.11117 0.04573 0.30009 0.0
H1853 H 0.13759 0.20076 0.32404 0.0
H1854 H 0.11298 0.05706 0.32404 0.0
C1855 C 0.11811 0.08831 0.28666 0.0
loop_
_geom_bond_atom_site_label_1
_geom_bond_atom_site_label_2
_geom_bond_distance
_geom_bond_site_symmetry_2
_ccdc_geom_bond_type
Co0 N4 2.148 . S
Co0 N10 2.128 . S
Co0 N20 2.194 . S
Co0 O25 2.351 . S
Co0 O26 2.155 . S
Co0 O27 2.096 . S
C1 N4 1.301 1_565 S
C1 N5 1.328 . S
C1 H6 0.930 . S
C2 C3 1.333 1_545 S
C2 N4 1.317 . S
C2 H7 0.930 . S
C3 C2 1.333 1_565 S
C3 N5 1.350 . S
C3 H29 0.931 . S
N4 Co0 2.148 . S
N4 C1 1.301 1_545 S
N4 C2 1.317 . S
N5 C1 1.328 . S
N5 C3 1.350 . S
H6 C1 0.930 . S
H7 C2 0.930 . S
C8 O9 1.224 . S
C8 O27 1.247 . S
O9 C8 1.224 . S
N10 Co0 2.128 . S
N10 C11 1.355 . S
N10 C13 1.311 . S
C11 N10 1.355 . S
C11 C12 1.363 . S
C11 H23 0.929 . S
C12 C11 1.363 . S
C12 N14 1.375 . S
C12 H30 0.931 . S
C13 N10 1.311 . S
C13 N14 1.347 . S
C13 H24 0.929 . S
N14 C12 1.375 . S
N14 C13 1.347 . S
C15 C18 1.365 . S
C15 N20 1.328 . S
C15 H21 0.929 . S
C16 C17 1.362 . S
C16 C19 1.378 . S
C16 H31 0.929 . S
C17 C16 1.362 . S
C17 C18 1.366 . S
C18 C15 1.365 . S
C18 C17 1.366 . S
C18 H32 0.930 . S
C19 C16 1.378 . S
C19 N20 1.315 . S
C19 H22 0.930 . S
N20 Co0 2.194 . S
N20 C15 1.328 . S
N20 C19 1.315 . S
H21 C15 0.929 . S
H22 C19 0.930 . S
H23 C11 0.929 . S
H24 C13 0.929 . S
O25 Co0 2.351 . S
O25 C28 1.244 . S
O26 Co0 2.155 . S
O26 C28 1.240 . S
O27 Co0 2.096 . S
O27 C8 1.247 . S
C28 O25 1.244 . S
C28 O26 1.240 . S
H29 C3 0.931 . S
H30 C12 0.931 . S
H31 C16 0.929 . S
H32 C18 0.930 . S
Co33 N37 2.148 . S
Co33 N43 2.128 1_545 S
Co33 N53 2.194 . S
Co33 O58 2.351 . S
Co33 O59 2.155 . S
Co33 O60 2.096 . S
C34 N37 1.301 . S
C34 N38 1.328 . S
C34 H39 0.930 . S
C35 C36 1.333 . S
C35 N37 1.317 . S
C35 H40 0.930 . S
C36 C35 1.333 . S
C36 N38 1.350 . S
C36 H62 0.931 . S
N37 Co33 2.148 . S
N37 C34 1.301 . S
N37 C35 1.317 . S
N38 C34 1.328 . S
N38 C36 1.350 . S
H39 C34 0.930 . S
H40 C35 0.930 . S
C41 O42 1.224 . S
C41 O60 1.247 1_565 S
O42 C41 1.224 . S
N43 Co33 2.128 1_565 S
N43 C44 1.355 . S
N43 C46 1.311 . S
C44 N43 1.355 . S
C44 C45 1.363 . S
C44 H56 0.929 . S
C45 C44 1.363 . S
C45 N47 1.375 . S
C45 H63 0.931 . S
C46 N43 1.311 . S
C46 N47 1.347 . S
C46 H57 0.929 . S
N47 C45 1.375 . S
N47 C46 1.347 . S
C48 C51 1.365 . S
C48 N53 1.328 . S
C48 H54 0.929 . S
C49 C50 1.362 . S
C49 C52 1.378 . S
C49 H64 0.929 . S
C50 C49 1.362 . S
C50 C51 1.366 . S
C51 C48 1.365 . S
C51 C50 1.366 . S
C51 H65 0.930 . S
C52 C49 1.378 . S
C52 N53 1.315 . S
C52 H55 0.930 . S
N53 Co33 2.194 . S
N53 C48 1.328 . S
N53 C52 1.315 . S
H54 C48 0.929 . S
H55 C52 0.930 . S
H56 C44 0.929 . S
H57 C46 0.929 . S
O58 Co33 2.351 . S
O58 C61 1.244 . S
O59 Co33 2.155 . S
O59 C61 1.240 . S
O60 Co33 2.096 . S
O60 C41 1.247 1_545 S
C61 O58 1.244 . S
C61 O59 1.240 . S
H62 C36 0.931 . S
H63 C45 0.931 . S
H64 C49 0.929 . S
H65 C51 0.930 . S
Co66 N70 2.148 . S
Co66 N76 2.128 1_545 S
Co66 N86 2.194 . S
Co66 O91 2.351 . S
Co66 O92 2.155 . S
Co66 O93 2.096 . S
C67 N70 1.301 . S
C67 N71 1.328 . S
C67 H72 0.930 . S
C68 C69 1.333 . S
C68 N70 1.317 . S
C68 H73 0.930 . S
C69 C68 1.333 . S
C69 N71 1.350 . S
C69 H95 0.931 . S
N70 Co66 2.148 . S
N70 C67 1.301 . S
N70 C68 1.317 . S
N71 C67 1.328 . S
N71 C69 1.350 . S
H72 C67 0.930 . S
H73 C68 0.930 . S
C74 O75 1.224 . S
C74 O93 1.247 1_565 S
O75 C74 1.224 . S
N76 Co66 2.128 1_565 S
N76 C77 1.355 . S
N76 C79 1.311 . S
C77 N76 1.355 . S
C77 C78 1.363 . S
C77 H89 0.929 . S
C78 C77 1.363 . S
C78 N80 1.375 . S
C78 H96 0.931 . S
C79 N76 1.311 . S
C79 N80 1.347 . S
C79 H90 0.929 . S
N80 C78 1.375 . S
N80 C79 1.347 . S
C81 C84 1.365 . S
C81 N86 1.328 . S
C81 H87 0.929 . S
C82 C83 1.362 . S
C82 C85 1.378 . S
C82 H97 0.929 . S
C83 C82 1.362 . S
C83 C84 1.366 . S
C84 C81 1.365 . S
C84 C83 1.366 . S
C84 H98 0.930 . S
C85 C82 1.378 . S
C85 N86 1.315 . S
C85 H88 0.930 . S
N86 Co66 2.194 . S
N86 C81 1.328 . S
N86 C85 1.315 . S
H87 C81 0.929 . S
H88 C85 0.930 . S
H89 C77 0.929 . S
H90 C79 0.929 . S
O91 Co66 2.351 . S
O91 C94 1.244 . S
O92 Co66 2.155 . S
O92 C94 1.240 . S
O93 Co66 2.096 . S
O93 C74 1.247 1_545 S
C94 O91 1.244 . S
C94 O92 1.240 . S
H95 C69 0.931 . S
H96 C78 0.931 . S
H97 C82 0.929 . S
H98 C84 0.930 . S
Co99 N103 2.148 . S
Co99 N109 2.128 . S
Co99 N119 2.194 . S
Co99 O124 2.351 . S
Co99 O125 2.155 . S
Co99 O126 2.096 . S
C100 N103 1.301 1_565 S
C100 N104 1.328 . S
C100 H105 0.930 . S
C101 C102 1.333 1_545 S
C101 N103 1.317 . S
C101 H106 0.930 . S
C102 C101 1.333 1_565 S
C102 N104 1.350 . S
C102 H128 0.931 . S
N103 Co99 2.148 . S
N103 C100 1.301 1_545 S
N103 C101 1.317 . S
N104 C100 1.328 . S
N104 C102 1.350 . S
H105 C100 0.930 . S
H106 C101 0.930 . S
C107 O108 1.224 . S
C107 O126 1.247 . S
O108 C107 1.224 . S
N109 Co99 2.128 . S
N109 C110 1.355 . S
N109 C112 1.311 . S
C110 N109 1.355 . S
C110 C111 1.363 . S
C110 H122 0.929 . S
C111 C110 1.363 . S
C111 N113 1.375 . S
C111 H129 0.931 . S
C112 N109 1.311 . S
C112 N113 1.347 . S
C112 H123 0.929 . S
N113 C111 1.375 . S
N113 C112 1.347 . S
C114 C117 1.365 . S
C114 N119 1.328 . S
C114 H120 0.929 . S
C115 C116 1.362 . S
C115 C118 1.378 . S
C115 H130 0.929 . S
C116 C115 1.362 . S
C116 C117 1.366 . S
C117 C114 1.365 . S
C117 C116 1.366 . S
C117 H131 0.930 . S
C118 C115 1.378 . S
C118 N119 1.315 . S
C118 H121 0.930 . S
N119 Co99 2.194 . S
N119 C114 1.328 . S
N119 C118 1.315 . S
H120 C114 0.929 . S
H121 C118 0.930 . S
H122 C110 0.929 . S
H123 C112 0.929 . S
O124 Co99 2.351 . S
O124 C127 1.244 . S
O125 Co99 2.155 . S
O125 C127 1.240 . S
O126 Co99 2.096 . S
O126 C107 1.247 . S
C127 O124 1.244 . S
C127 O125 1.240 . S
H128 C102 0.931 . S
H129 C111 0.931 . S
H130 C115 0.929 . S
H131 C117 0.930 . S
Co132 N136 2.148 . S
Co132 N142 2.128 . S
Co132 N152 2.194 . S
Co132 O157 2.351 . S
Co132 O158 2.155 . S
Co132 O159 2.096 . S
C133 N136 1.301 1_545 S
C133 N137 1.328 . S
C133 H138 0.930 . S
C134 C135 1.333 1_565 S
C134 N136 1.317 . S
C134 H139 0.930 . S
C135 C134 1.333 1_545 S
C135 N137 1.350 . S
C135 H161 0.931 . S
N136 Co132 2.148 . S
N136 C133 1.301 1_565 S
N136 C134 1.317 . S
N137 C133 1.328 . S
N137 C135 1.350 . S
H138 C133 0.930 . S
H139 C134 0.930 . S
C140 O141 1.224 . S
C140 O159 1.247 . S
O141 C140 1.224 . S
N142 Co132 2.128 . S
N142 C143 1.355 . S
N142 C145 1.311 . S
C143 N142 1.355 . S
C143 C144 1.363 . S
C143 H155 0.929 . S
C144 C143 1.363 . S
C144 N146 1.375 . S
C144 H162 0.931 . S
C145 N142 1.311 . S
C145 N146 1.347 . S
C145 H156 0.929 . S
N146 C144 1.375 . S
N146 C145 1.347 . S
C147 C150 1.365 . S
C147 N152 1.328 . S
C147 H153 0.929 . S
C148 C149 1.362 . S
C148 C151 1.378 . S
C148 H163 0.929 . S
C149 C148 1.362 . S
C149 C150 1.366 . S
C150 C147 1.365 . S
C150 C149 1.366 . S
C150 H164 0.930 . S
C151 C148 1.378 . S
C151 N152 1.315 . S
C151 H154 0.930 . S
N152 Co132 2.194 . S
N152 C147 1.328 . S
N152 C151 1.315 . S
H153 C147 0.929 . S
H154 C151 0.930 . S
H155 C143 0.929 . S
H156 C145 0.929 . S
O157 Co132 2.351 . S
O157 C160 1.244 . S
O158 Co132 2.155 . S
O158 C160 1.240 . S
O159 Co132 2.096 . S
O159 C140 1.247 . S
C160 O157 1.244 . S
C160 O158 1.240 . S
H161 C135 0.931 . S
H162 C144 0.931 . S
H163 C148 0.929 . S
H164 C150 0.930 . S
Co165 N169 2.148 . S
Co165 N175 2.128 1_565 S
Co165 N185 2.194 . S
Co165 O190 2.351 . S
Co165 O191 2.155 . S
Co165 O192 2.096 . S
C166 N169 1.301 . S
C166 N170 1.328 . S
C166 H171 0.930 . S
C167 C168 1.333 . S
C167 N169 1.317 . S
C167 H172 0.930 . S
C168 C167 1.333 . S
C168 N170 1.350 . S
C168 H194 0.931 . S
N169 Co165 2.148 . S
N169 C166 1.301 . S
N169 C167 1.317 . S
N170 C166 1.328 . S
N170 C168 1.350 . S
H171 C166 0.930 . S
H172 C167 0.930 . S
C173 O174 1.224 . S
C173 O192 1.247 1_545 S
O174 C173 1.224 . S
N175 Co165 2.128 1_545 S
N175 C176 1.355 . S
N175 C178 1.311 . S
C176 N175 1.355 . S
C176 C177 1.363 . S
C176 H188 0.929 . S
C177 C176 1.363 . S
C177 N179 1.375 . S
C177 H195 0.931 . S
C178 N175 1.311 . S
C178 N179 1.347 . S
C178 H189 0.929 . S
N179 C177 1.375 . S
N179 C178 1.347 . S
C180 C183 1.365 . S
C180 N185 1.328 . S
C180 H186 0.929 . S
C181 C182 1.362 . S
C181 C184 1.378 . S
C181 H196 0.929 . S
C182 C181 1.362 . S
C182 C183 1.366 . S
C183 C180 1.365 . S
C183 C182 1.366 . S
C183 H197 0.930 . S
C184 C181 1.378 . S
C184 N185 1.315 . S
C184 H187 0.930 . S
N185 Co165 2.194 . S
N185 C180 1.328 . S
N185 C184 1.315 . S
H186 C180 0.929 . S
H187 C184 0.930 . S
H188 C176 0.929 . S
H189 C178 0.929 . S
O190 Co165 2.351 . S
O190 C193 1.244 . S
O191 Co165 2.155 . S
O191 C193 1.240 . S
O192 Co165 2.096 . S
O192 C173 1.247 1_565 S
C193 O190 1.244 . S
C193 O191 1.240 . S
H194 C168 0.931 . S
H195 C177 0.931 . S
H196 C181 0.929 . S
H197 C183 0.930 . S
Co198 N202 2.148 . S
Co198 N208 2.128 1_565 S
Co198 N218 2.194 . S
Co198 O223 2.351 . S
Co198 O224 2.155 . S
Co198 O225 2.096 . S
C199 N202 1.301 . S
C199 N203 1.328 . S
C199 H204 0.930 . S
C200 C201 1.333 . S
C200 N202 1.317 . S
C200 H205 0.930 . S
C201 C200 1.333 . S
C201 N203 1.350 . S
C201 H227 0.931 . S
N202 Co198 2.148 . S
N202 C199 1.301 . S
N202 C200 1.317 . S
N203 C199 1.328 . S
N203 C201 1.350 . S
H204 C199 0.930 . S
H205 C200 0.930 . S
C206 O207 1.224 . S
C206 O225 1.247 1_545 S
O207 C206 1.224 . S
N208 Co198 2.128 1_545 S
N208 C209 1.355 . S
N208 C211 1.311 . S
C209 N208 1.355 . S
C209 C210 1.363 . S
C209 H221 0.929 . S
C210 C209 1.363 . S
C210 N212 1.375 . S
C210 H228 0.931 . S
C211 N208 1.311 . S
C211 N212 1.347 . S
C211 H222 0.929 . S
N212 C210 1.375 . S
N212 C211 1.347 . S
C213 C216 1.365 . S
C213 N218 1.328 . S
C213 H219 0.929 . S
C214 C215 1.362 . S
C214 C217 1.378 . S
C214 H229 0.929 . S
C215 C214 1.362 . S
C215 C216 1.366 . S
C216 C213 1.365 . S
C216 C215 1.366 . S
C216 H230 0.930 . S
C217 C214 1.378 . S
C217 N218 1.315 . S
C217 H220 0.930 . S
N218 Co198 2.194 . S
N218 C213 1.328 . S
N218 C217 1.315 . S
H219 C213 0.929 . S
H220 C217 0.930 . S
H221 C209 0.929 . S
H222 C211 0.929 . S
O223 Co198 2.351 . S
O223 C226 1.244 . S
O224 Co198 2.155 . S
O224 C226 1.240 . S
O225 Co198 2.096 . S
O225 C206 1.247 1_565 S
C226 O223 1.244 . S
C226 O224 1.240 . S
H227 C201 0.931 . S
H228 C210 0.931 . S
H229 C214 0.929 . S
H230 C216 0.930 . S
Co231 N235 2.148 . S
Co231 N241 2.128 . S
Co231 N251 2.194 . S
Co231 O256 2.351 . S
Co231 O257 2.155 . S
Co231 O258 2.096 . S
C232 N235 1.301 1_545 S
C232 N236 1.328 . S
C232 H237 0.930 . S
C233 C234 1.333 1_565 S
C233 N235 1.317 . S
C233 H238 0.930 . S
C234 C233 1.333 1_545 S
C234 N236 1.350 . S
C234 H260 0.931 . S
N235 Co231 2.148 . S
N235 C232 1.301 1_565 S
N235 C233 1.317 . S
N236 C232 1.328 . S
N236 C234 1.350 . S
H237 C232 0.930 . S
H238 C233 0.930 . S
C239 O240 1.224 . S
C239 O258 1.247 . S
O240 C239 1.224 . S
N241 Co231 2.128 . S
N241 C242 1.355 . S
N241 C244 1.311 . S
C242 N241 1.355 . S
C242 C243 1.363 . S
C242 H254 0.929 . S
C243 C242 1.363 . S
C243 N245 1.375 . S
C243 H261 0.931 . S
C244 N241 1.311 . S
C244 N245 1.347 . S
C244 H255 0.929 . S
N245 C243 1.375 . S
N245 C244 1.347 . S
C246 C249 1.365 . S
C246 N251 1.328 . S
C246 H252 0.929 . S
C247 C248 1.362 . S
C247 C250 1.378 . S
C247 H262 0.929 . S
C248 C247 1.362 . S
C248 C249 1.366 . S
C249 C246 1.365 . S
C249 C248 1.366 . S
C249 H263 0.930 . S
C250 C247 1.378 . S
C250 N251 1.315 . S
C250 H253 0.930 . S
N251 Co231 2.194 . S
N251 C246 1.328 . S
N251 C250 1.315 . S
H252 C246 0.929 . S
H253 C250 0.930 . S
H254 C242 0.929 . S
H255 C244 0.929 . S
O256 Co231 2.351 . S
O256 C259 1.244 . S
O257 Co231 2.155 . S
O257 C259 1.240 . S
O258 Co231 2.096 . S
O258 C239 1.247 . S
C259 O256 1.244 . S
C259 O257 1.240 . S
H260 C234 0.931 . S
H261 C243 0.931 . S
H262 C247 0.929 . S
H263 C249 0.930 . S
Co264 N268 2.148 . S
Co264 N274 2.128 . S
Co264 N284 2.194 . S
Co264 O289 2.351 . S
Co264 O290 2.155 . S
Co264 O291 2.096 . S
C265 N268 1.301 . S
C265 N269 1.328 . S
C265 H270 0.930 . S
C266 C267 1.333 . S
C266 N268 1.317 . S
C266 H271 0.930 . S
C267 C266 1.333 . S
C267 N269 1.350 . S
C267 H293 0.931 . S
N268 Co264 2.148 . S
N268 C265 1.301 . S
N268 C266 1.317 . S
N269 C265 1.328 . S
N269 C267 1.350 . S
H270 C265 0.930 . S
H271 C266 0.930 . S
C272 O273 1.224 . S
C272 O291 1.247 . S
O273 C272 1.224 . S
N274 Co264 2.128 . S
N274 C275 1.355 . S
N274 C277 1.311 . S
C275 N274 1.355 . S
C275 C276 1.363 . S
C275 H287 0.929 . S
C276 C275 1.363 . S
C276 N278 1.375 . S
C276 H294 0.931 . S
C277 N274 1.311 . S
C277 N278 1.347 . S
C277 H288 0.929 . S
N278 C276 1.375 . S
N278 C277 1.347 . S
C279 C282 1.365 . S
C279 N284 1.328 . S
C279 H285 0.929 . S
C280 C281 1.362 . S
C280 C283 1.378 . S
C280 H295 0.929 . S
C281 C280 1.362 . S
C281 C282 1.366 . S
C282 C279 1.365 . S
C282 C281 1.366 . S
C282 H296 0.930 . S
C283 C280 1.378 . S
C283 N284 1.315 . S
C283 H286 0.930 . S
N284 Co264 2.194 . S
N284 C279 1.328 . S
N284 C283 1.315 . S
H285 C279 0.929 . S
H286 C283 0.930 . S
H287 C275 0.929 . S
H288 C277 0.929 . S
O289 Co264 2.351 . S
O289 C292 1.244 . S
O290 Co264 2.155 . S
O290 C292 1.240 . S
O291 Co264 2.096 . S
O291 C272 1.247 . S
C292 O289 1.244 . S
C292 O290 1.240 . S
H293 C267 0.931 . S
H294 C276 0.931 . S
H295 C280 0.929 . S
H296 C282 0.930 . S
Co297 N301 2.148 . S
Co297 N307 2.128 . S
Co297 N317 2.194 . S
Co297 O322 2.351 . S
Co297 O323 2.155 . S
Co297 O324 2.096 . S
C298 N301 1.301 . S
C298 N302 1.328 . S
C298 H303 0.930 . S
C299 C300 1.333 . S
C299 N301 1.317 . S
C299 H304 0.930 . S
C300 C299 1.333 . S
C300 N302 1.350 . S
C300 H326 0.931 . S
N301 Co297 2.148 . S
N301 C298 1.301 . S
N301 C299 1.317 . S
N302 C298 1.328 . S
N302 C300 1.350 . S
H303 C298 0.930 . S
H304 C299 0.930 . S
C305 O306 1.224 . S
C305 O324 1.247 . S
O306 C305 1.224 . S
N307 Co297 2.128 . S
N307 C308 1.355 . S
N307 C310 1.311 . S
C308 N307 1.355 . S
C308 C309 1.363 . S
C308 H320 0.929 . S
C309 C308 1.363 . S
C309 N311 1.375 . S
C309 H327 0.931 . S
C310 N307 1.311 . S
C310 N311 1.347 . S
C310 H321 0.929 . S
N311 C309 1.375 . S
N311 C310 1.347 . S
C312 C315 1.365 . S
C312 N317 1.328 . S
C312 H318 0.929 . S
C313 C314 1.362 . S
C313 C316 1.378 . S
C313 H328 0.929 . S
C314 C313 1.362 . S
C314 C315 1.366 . S
C315 C312 1.365 . S
C315 C314 1.366 . S
C315 H329 0.930 . S
C316 C313 1.378 . S
C316 N317 1.315 . S
C316 H319 0.930 . S
N317 Co297 2.194 . S
N317 C312 1.328 . S
N317 C316 1.315 . S
H318 C312 0.929 . S
H319 C316 0.930 . S
H320 C308 0.929 . S
H321 C310 0.929 . S
O322 Co297 2.351 . S
O322 C325 1.244 . S
O323 Co297 2.155 . S
O323 C325 1.240 . S
O324 Co297 2.096 . S
O324 C305 1.247 . S
C325 O322 1.244 . S
C325 O323 1.240 . S
H326 C300 0.931 . S
H327 C309 0.931 . S
H328 C313 0.929 . S
H329 C315 0.930 . S
Co330 N334 2.148 . S
Co330 N340 2.128 . S
Co330 N350 2.194 . S
Co330 O355 2.351 . S
Co330 O356 2.155 . S
Co330 O357 2.096 . S
C331 N334 1.301 . S
C331 N335 1.328 . S
C331 H336 0.930 . S
C332 C333 1.333 . S
C332 N334 1.317 . S
C332 H337 0.930 . S
C333 C332 1.333 . S
C333 N335 1.350 . S
C333 H359 0.931 . S
N334 Co330 2.148 . S
N334 C331 1.301 . S
N334 C332 1.317 . S
N335 C331 1.328 . S
N335 C333 1.350 . S
H336 C331 0.930 . S
H337 C332 0.930 . S
C338 O339 1.224 . S
C338 O357 1.247 . S
O339 C338 1.224 . S
N340 Co330 2.128 . S
N340 C341 1.355 . S
N340 C343 1.311 . S
C341 N340 1.355 . S
C341 C342 1.363 . S
C341 H353 0.929 . S
C342 C341 1.363 . S
C342 N344 1.375 . S
C342 H360 0.931 . S
C343 N340 1.311 . S
C343 N344 1.347 . S
C343 H354 0.929 . S
N344 C342 1.375 . S
N344 C343 1.347 . S
C345 C348 1.365 . S
C345 N350 1.328 . S
C345 H351 0.929 . S
C346 C347 1.362 . S
C346 C349 1.378 . S
C346 H361 0.929 . S
C347 C346 1.362 . S
C347 C348 1.366 . S
C348 C345 1.365 . S
C348 C347 1.366 . S
C348 H362 0.930 . S
C349 C346 1.378 . S
C349 N350 1.315 . S
C349 H352 0.930 . S
N350 Co330 2.194 . S
N350 C345 1.328 . S
N350 C349 1.315 . S
H351 C345 0.929 . S
H352 C349 0.930 . S
H353 C341 0.929 . S
H354 C343 0.929 . S
O355 Co330 2.351 . S
O355 C358 1.244 . S
O356 Co330 2.155 . S
O356 C358 1.240 . S
O357 Co330 2.096 . S
O357 C338 1.247 . S
C358 O355 1.244 . S
C358 O356 1.240 . S
H359 C333 0.931 . S
H360 C342 0.931 . S
H361 C346 0.929 . S
H362 C348 0.930 . S
Co363 N367 2.148 . S
Co363 N373 2.128 . S
Co363 N383 2.194 . S
Co363 O388 2.351 . S
Co363 O389 2.155 . S
Co363 O390 2.096 . S
C364 N367 1.301 . S
C364 N368 1.328 . S
C364 H369 0.930 . S
C365 C366 1.333 . S
C365 N367 1.317 . S
C365 H370 0.930 . S
C366 C365 1.333 . S
C366 N368 1.350 . S
C366 H392 0.931 . S
N367 Co363 2.148 . S
N367 C364 1.301 . S
N367 C365 1.317 . S
N368 C364 1.328 . S
N368 C366 1.350 . S
H369 C364 0.930 . S
H370 C365 0.930 . S
C371 O372 1.224 . S
C371 O390 1.247 . S
O372 C371 1.224 . S
N373 Co363 2.128 . S
N373 C374 1.355 . S
N373 C376 1.311 . S
C374 N373 1.355 . S
C374 C375 1.363 . S
C374 H386 0.929 . S
C375 C374 1.363 . S
C375 N377 1.375 . S
C375 H393 0.931 . S
C376 N373 1.311 . S
C376 N377 1.347 . S
C376 H387 0.929 . S
N377 C375 1.375 . S
N377 C376 1.347 . S
C378 C381 1.365 . S
C378 N383 1.328 . S
C378 H384 0.929 . S
C379 C380 1.362 . S
C379 C382 1.378 . S
C379 H394 0.929 . S
C380 C379 1.362 . S
C380 C381 1.366 . S
C381 C378 1.365 . S
C381 C380 1.366 . S
C381 H395 0.930 . S
C382 C379 1.378 . S
C382 N383 1.315 . S
C382 H385 0.930 . S
N383 Co363 2.194 . S
N383 C378 1.328 . S
N383 C382 1.315 . S
H384 C378 0.929 . S
H385 C382 0.930 . S
H386 C374 0.929 . S
H387 C376 0.929 . S
O388 Co363 2.351 . S
O388 C391 1.244 . S
O389 Co363 2.155 . S
O389 C391 1.240 . S
O390 Co363 2.096 . S
O390 C371 1.247 . S
C391 O388 1.244 . S
C391 O389 1.240 . S
H392 C366 0.931 . S
H393 C375 0.931 . S
H394 C379 0.929 . S
H395 C381 0.930 . S
Co396 N400 2.148 . S
Co396 N406 2.128 . S
Co396 N416 2.194 . S
Co396 O421 2.351 . S
Co396 O422 2.155 . S
Co396 O423 2.096 . S
C397 N400 1.301 . S
C397 N401 1.328 . S
C397 H402 0.930 . S
C398 C399 1.333 . S
C398 N400 1.317 . S
C398 H403 0.930 . S
C399 C398 1.333 . S
C399 N401 1.350 . S
C399 H425 0.931 . S
N400 Co396 2.148 . S
N400 C397 1.301 . S
N400 C398 1.317 . S
N401 C397 1.328 . S
N401 C399 1.350 . S
H402 C397 0.930 . S
H403 C398 0.930 . S
C404 O405 1.224 . S
C404 O423 1.247 . S
O405 C404 1.224 . S
N406 Co396 2.128 . S
N406 C407 1.355 . S
N406 C409 1.311 . S
C407 N406 1.355 . S
C407 C408 1.363 . S
C407 H419 0.929 . S
C408 C407 1.363 . S
C408 N410 1.375 . S
C408 H426 0.931 . S
C409 N406 1.311 . S
C409 N410 1.347 . S
C409 H420 0.929 . S
N410 C408 1.375 . S
N410 C409 1.347 . S
C411 C414 1.365 . S
C411 N416 1.328 . S
C411 H417 0.929 . S
C412 C413 1.362 . S
C412 C415 1.378 . S
C412 H427 0.929 . S
C413 C412 1.362 . S
C413 C414 1.366 . S
C414 C411 1.365 . S
C414 C413 1.366 . S
C414 H428 0.930 . S
C415 C412 1.378 . S
C415 N416 1.315 . S
C415 H418 0.930 . S
N416 Co396 2.194 . S
N416 C411 1.328 . S
N416 C415 1.315 . S
H417 C411 0.929 . S
H418 C415 0.930 . S
H419 C407 0.929 . S
H420 C409 0.929 . S
O421 Co396 2.351 . S
O421 C424 1.244 . S
O422 Co396 2.155 . S
O422 C424 1.240 . S
O423 Co396 2.096 . S
O423 C404 1.247 . S
C424 O421 1.244 . S
C424 O422 1.240 . S
H425 C399 0.931 . S
H426 C408 0.931 . S
H427 C412 0.929 . S
H428 C414 0.930 . S
Co429 N433 2.148 . S
Co429 N439 2.128 . S
Co429 N449 2.194 . S
Co429 O454 2.351 . S
Co429 O455 2.155 . S
Co429 O456 2.096 . S
C430 N433 1.301 . S
C430 N434 1.328 . S
C430 H435 0.930 . S
C431 C432 1.333 . S
C431 N433 1.317 . S
C431 H436 0.930 . S
C432 C431 1.333 . S
C432 N434 1.350 . S
C432 H458 0.931 . S
N433 Co429 2.148 . S
N433 C430 1.301 . S
N433 C431 1.317 . S
N434 C430 1.328 . S
N434 C432 1.350 . S
H435 C430 0.930 . S
H436 C431 0.930 . S
C437 O438 1.224 . S
C437 O456 1.247 . S
O438 C437 1.224 . S
N439 Co429 2.128 . S
N439 C440 1.355 . S
N439 C442 1.311 . S
C440 N439 1.355 . S
C440 C441 1.363 . S
C440 H452 0.929 . S
C441 C440 1.363 . S
C441 N443 1.375 . S
C441 H459 0.931 . S
C442 N439 1.311 . S
C442 N443 1.347 . S
C442 H453 0.929 . S
N443 C441 1.375 . S
N443 C442 1.347 . S
C444 C447 1.365 . S
C444 N449 1.328 . S
C444 H450 0.929 . S
C445 C446 1.362 . S
C445 C448 1.378 . S
C445 H460 0.929 . S
C446 C445 1.362 . S
C446 C447 1.366 . S
C447 C444 1.365 . S
C447 C446 1.366 . S
C447 H461 0.930 . S
C448 C445 1.378 . S
C448 N449 1.315 . S
C448 H451 0.930 . S
N449 Co429 2.194 . S
N449 C444 1.328 . S
N449 C448 1.315 . S
H450 C444 0.929 . S
H451 C448 0.930 . S
H452 C440 0.929 . S
H453 C442 0.929 . S
O454 Co429 2.351 . S
O454 C457 1.244 . S
O455 Co429 2.155 . S
O455 C457 1.240 . S
O456 Co429 2.096 . S
O456 C437 1.247 . S
C457 O454 1.244 . S
C457 O455 1.240 . S
H458 C432 0.931 . S
H459 C441 0.931 . S
H460 C445 0.929 . S
H461 C447 0.930 . S
Co462 N466 2.148 . S
Co462 N472 2.128 . S
Co462 N482 2.194 . S
Co462 O487 2.351 . S
Co462 O488 2.155 . S
Co462 O489 2.096 . S
C463 N466 1.301 . S
C463 N467 1.328 . S
C463 H468 0.930 . S
C464 C465 1.333 . S
C464 N466 1.317 . S
C464 H469 0.930 . S
C465 C464 1.333 . S
C465 N467 1.350 . S
C465 H491 0.931 . S
N466 Co462 2.148 . S
N466 C463 1.301 . S
N466 C464 1.317 . S
N467 C463 1.328 . S
N467 C465 1.350 . S
H468 C463 0.930 . S
H469 C464 0.930 . S
C470 O471 1.224 . S
C470 O489 1.247 . S
O471 C470 1.224 . S
N472 Co462 2.128 . S
N472 C473 1.355 . S
N472 C475 1.311 . S
C473 N472 1.355 . S
C473 C474 1.363 . S
C473 H485 0.929 . S
C474 C473 1.363 . S
C474 N476 1.375 . S
C474 H492 0.931 . S
C475 N472 1.311 . S
C475 N476 1.347 . S
C475 H486 0.929 . S
N476 C474 1.375 . S
N476 C475 1.347 . S
C477 C480 1.365 . S
C477 N482 1.328 . S
C477 H483 0.929 . S
C478 C479 1.362 . S
C478 C481 1.378 . S
C478 H493 0.929 . S
C479 C478 1.362 . S
C479 C480 1.366 . S
C480 C477 1.365 . S
C480 C479 1.366 . S
C480 H494 0.930 . S
C481 C478 1.378 . S
C481 N482 1.315 . S
C481 H484 0.930 . S
N482 Co462 2.194 . S
N482 C477 1.328 . S
N482 C481 1.315 . S
H483 C477 0.929 . S
H484 C481 0.930 . S
H485 C473 0.929 . S
H486 C475 0.929 . S
O487 Co462 2.351 . S
O487 C490 1.244 . S
O488 Co462 2.155 . S
O488 C490 1.240 . S
O489 Co462 2.096 . S
O489 C470 1.247 . S
C490 O487 1.244 . S
C490 O488 1.240 . S
H491 C465 0.931 . S
H492 C474 0.931 . S
H493 C478 0.929 . S
H494 C480 0.930 . S
Co495 N499 2.148 . S
Co495 N505 2.128 . S
Co495 N515 2.194 . S
Co495 O520 2.351 . S
Co495 O521 2.155 . S
Co495 O522 2.096 . S
C496 N499 1.301 . S
C496 N500 1.328 . S
C496 H501 0.930 . S
C497 C498 1.333 . S
C497 N499 1.317 . S
C497 H502 0.930 . S
C498 C497 1.333 . S
C498 N500 1.350 . S
C498 H524 0.931 . S
N499 Co495 2.148 . S
N499 C496 1.301 . S
N499 C497 1.317 . S
N500 C496 1.328 . S
N500 C498 1.350 . S
H501 C496 0.930 . S
H502 C497 0.930 . S
C503 O504 1.224 . S
C503 O522 1.247 . S
O504 C503 1.224 . S
N505 Co495 2.128 . S
N505 C506 1.355 . S
N505 C508 1.311 . S
C506 N505 1.355 . S
C506 C507 1.363 . S
C506 H518 0.929 . S
C507 C506 1.363 . S
C507 N509 1.375 . S
C507 H525 0.931 . S
C508 N505 1.311 . S
C508 N509 1.347 . S
C508 H519 0.929 . S
N509 C507 1.375 . S
N509 C508 1.347 . S
C510 C513 1.365 . S
C510 N515 1.328 . S
C510 H516 0.929 . S
C511 C512 1.362 . S
C511 C514 1.378 . S
C511 H526 0.929 . S
C512 C511 1.362 . S
C512 C513 1.366 . S
C513 C510 1.365 . S
C513 C512 1.366 . S
C513 H527 0.930 . S
C514 C511 1.378 . S
C514 N515 1.315 . S
C514 H517 0.930 . S
N515 Co495 2.194 . S
N515 C510 1.328 . S
N515 C514 1.315 . S
H516 C510 0.929 . S
H517 C514 0.930 . S
H518 C506 0.929 . S
H519 C508 0.929 . S
O520 Co495 2.351 . S
O520 C523 1.244 . S
O521 Co495 2.155 . S
O521 C523 1.240 . S
O522 Co495 2.096 . S
O522 C503 1.247 . S
C523 O520 1.244 . S
C523 O521 1.240 . S
H524 C498 0.931 . S
H525 C507 0.931 . S
H526 C511 0.929 . S
H527 C513 0.930 . S
Co528 N532 2.148 . S
Co528 N538 2.128 . S
Co528 N548 2.194 . S
Co528 O553 2.351 . S
Co528 O554 2.155 . S
Co528 O555 2.096 . S
C529 N532 1.301 1_565 S
C529 N533 1.328 . S
C529 H534 0.930 . S
C530 C531 1.333 1_545 S
C530 N532 1.317 . S
C530 H535 0.930 . S
C531 C530 1.333 1_565 S
C531 N533 1.350 . S
C531 H557 0.931 . S
N532 Co528 2.148 . S
N532 C529 1.301 1_545 S
N532 C530 1.317 . S
N533 C529 1.328 . S
N533 C531 1.350 . S
H534 C529 0.930 . S
H535 C530 0.930 . S
C536 O537 1.224 . S
C536 O555 1.247 . S
O537 C536 1.224 . S
N538 Co528 2.128 . S
N538 C539 1.355 . S
N538 C541 1.311 . S
C539 N538 1.355 . S
C539 C540 1.363 . S
C539 H551 0.929 . S
C540 C539 1.363 . S
C540 N542 1.375 . S
C540 H558 0.944 . S
C541 N538 1.311 . S
C541 N542 1.347 . S
C541 H552 0.929 . S
N542 C540 1.375 . S
N542 C541 1.347 . S
C543 C546 1.365 . S
C543 N548 1.328 . S
C543 H549 0.929 . S
C544 C545 1.362 . S
C544 C547 1.378 . S
C544 H559 0.929 . S
C545 C544 1.362 . S
C545 C546 1.366 . S
C546 C543 1.365 . S
C546 C545 1.366 . S
C546 H560 0.930 1_655 S
C547 C544 1.378 . S
C547 N548 1.315 . S
C547 H550 0.930 . S
N548 Co528 2.194 . S
N548 C543 1.328 . S
N548 C547 1.315 . S
H549 C543 0.929 . S
H550 C547 0.930 . S
H551 C539 0.929 . S
H552 C541 0.929 . S
O553 Co528 2.351 . S
O553 C556 1.244 . S
O554 Co528 2.155 . S
O554 C556 1.240 . S
O555 Co528 2.096 . S
O555 C536 1.247 . S
C556 O553 1.244 . S
C556 O554 1.240 . S
H557 C531 0.931 . S
H558 C540 0.944 . S
H559 C544 0.929 . S
H560 C546 0.930 1_455 S
Co561 N565 2.148 . S
Co561 N571 2.128 1_545 S
Co561 N581 2.194 . S
Co561 O586 2.351 . S
Co561 O587 2.155 . S
Co561 O588 2.096 . S
C562 N565 1.301 . S
C562 N566 1.328 . S
C562 H567 0.930 . S
C563 C564 1.333 . S
C563 N565 1.317 . S
C563 H568 0.930 . S
C564 C563 1.333 . S
C564 N566 1.350 . S
C564 H590 0.931 . S
N565 Co561 2.148 . S
N565 C562 1.301 . S
N565 C563 1.317 . S
N566 C562 1.328 . S
N566 C564 1.350 . S
H567 C562 0.930 . S
H568 C563 0.930 . S
C569 O570 1.224 . S
C569 O588 1.247 1_565 S
O570 C569 1.224 . S
N571 Co561 2.128 1_565 S
N571 C572 1.355 . S
N571 C574 1.311 . S
C572 N571 1.355 . S
C572 C573 1.363 . S
C572 H584 0.929 . S
C573 C572 1.363 . S
C573 N575 1.375 . S
C573 H591 0.931 . S
C574 N571 1.311 . S
C574 N575 1.347 . S
C574 H585 0.929 . S
N575 C573 1.375 . S
N575 C574 1.347 . S
C576 C579 1.365 . S
C576 N581 1.328 . S
C576 H582 0.929 . S
C577 C578 1.362 . S
C577 C580 1.378 . S
C577 H592 0.929 . S
C578 C577 1.362 . S
C578 C579 1.366 . S
C579 C576 1.365 . S
C579 C578 1.366 . S
C579 H593 0.930 . S
C580 C577 1.378 . S
C580 N581 1.315 . S
C580 H583 0.930 . S
N581 Co561 2.194 . S
N581 C576 1.328 . S
N581 C580 1.315 . S
H582 C576 0.929 . S
H583 C580 0.930 . S
H584 C572 0.929 . S
H585 C574 0.929 . S
O586 Co561 2.351 . S
O586 C589 1.244 . S
O587 Co561 2.155 . S
O587 C589 1.240 . S
O588 Co561 2.096 . S
O588 C569 1.247 1_545 S
C589 O586 1.244 . S
C589 O587 1.240 . S
H590 C564 0.931 . S
H591 C573 0.931 . S
H592 C577 0.929 . S
H593 C579 0.930 . S
Co594 N598 2.148 . S
Co594 N604 2.128 1_545 S
Co594 N614 2.194 . S
Co594 O619 2.351 . S
Co594 O620 2.155 . S
Co594 O621 2.096 . S
C595 N598 1.301 . S
C595 N599 1.328 . S
C595 H600 0.930 . S
C596 C597 1.333 . S
C596 N598 1.317 . S
C596 H601 0.930 . S
C597 C596 1.333 . S
C597 N599 1.350 . S
C597 H623 0.931 . S
N598 Co594 2.148 . S
N598 C595 1.301 . S
N598 C596 1.317 . S
N599 C595 1.328 . S
N599 C597 1.350 . S
H600 C595 0.930 . S
H601 C596 0.930 . S
C602 O603 1.224 . S
C602 O621 1.247 1_565 S
O603 C602 1.224 . S
N604 Co594 2.128 1_565 S
N604 C605 1.355 . S
N604 C607 1.311 . S
C605 N604 1.355 . S
C605 C606 1.363 . S
C605 H617 0.929 . S
C606 C605 1.363 . S
C606 N608 1.375 . S
C606 H624 0.944 . S
C607 N604 1.311 . S
C607 N608 1.347 . S
C607 H618 0.929 . S
N608 C606 1.375 . S
N608 C607 1.347 . S
C609 C612 1.365 . S
C609 N614 1.328 . S
C609 H615 0.929 . S
C610 C611 1.362 . S
C610 C613 1.378 . S
C610 H625 0.929 . S
C611 C610 1.362 . S
C611 C612 1.366 . S
C612 C609 1.365 . S
C612 C611 1.366 . S
C612 H626 0.930 1_655 S
C613 C610 1.378 . S
C613 N614 1.315 . S
C613 H616 0.930 . S
N614 Co594 2.194 . S
N614 C609 1.328 . S
N614 C613 1.315 . S
H615 C609 0.929 . S
H616 C613 0.930 . S
H617 C605 0.929 . S
H618 C607 0.929 . S
O619 Co594 2.351 . S
O619 C622 1.244 . S
O620 Co594 2.155 . S
O620 C622 1.240 . S
O621 Co594 2.096 . S
O621 C602 1.247 1_545 S
C622 O619 1.244 . S
C622 O620 1.240 . S
H623 C597 0.931 . S
H624 C606 0.944 . S
H625 C610 0.929 . S
H626 C612 0.930 1_455 S
Co627 N631 2.148 . S
Co627 N637 2.128 . S
Co627 N647 2.194 . S
Co627 O652 2.351 . S
Co627 O653 2.155 . S
Co627 O654 2.096 . S
C628 N631 1.301 1_565 S
C628 N632 1.328 . S
C628 H633 0.930 . S
C629 C630 1.333 1_545 S
C629 N631 1.317 . S
C629 H634 0.930 . S
C630 C629 1.333 1_565 S
C630 N632 1.350 . S
C630 H656 0.931 . S
N631 Co627 2.148 . S
N631 C628 1.301 1_545 S
N631 C629 1.317 . S
N632 C628 1.328 . S
N632 C630 1.350 . S
H633 C628 0.930 . S
H634 C629 0.930 . S
C635 O636 1.224 . S
C635 O654 1.247 . S
O636 C635 1.224 . S
N637 Co627 2.128 . S
N637 C638 1.355 . S
N637 C640 1.311 . S
C638 N637 1.355 . S
C638 C639 1.363 . S
C638 H650 0.929 . S
C639 C638 1.363 . S
C639 N641 1.375 . S
C639 H657 0.931 . S
C640 N637 1.311 . S
C640 N641 1.347 . S
C640 H651 0.929 . S
N641 C639 1.375 . S
N641 C640 1.347 . S
C642 C645 1.365 . S
C642 N647 1.328 . S
C642 H648 0.929 . S
C643 C644 1.362 . S
C643 C646 1.378 . S
C643 H658 0.929 . S
C644 C643 1.362 . S
C644 C645 1.366 . S
C645 C642 1.365 . S
C645 C644 1.366 . S
C645 H659 0.930 . S
C646 C643 1.378 . S
C646 N647 1.315 . S
C646 H649 0.930 . S
N647 Co627 2.194 . S
N647 C642 1.328 . S
N647 C646 1.315 . S
H648 C642 0.929 . S
H649 C646 0.930 . S
H650 C638 0.929 . S
H651 C640 0.929 . S
O652 Co627 2.351 . S
O652 C655 1.244 . S
O653 Co627 2.155 . S
O653 C655 1.240 . S
O654 Co627 2.096 . S
O654 C635 1.247 . S
C655 O652 1.244 . S
C655 O653 1.240 . S
H656 C630 0.931 . S
H657 C639 0.931 . S
H658 C643 0.929 . S
H659 C645 0.930 . S
Co660 N664 2.148 . S
Co660 N670 2.128 . S
Co660 N680 2.194 . S
Co660 O685 2.351 . S
Co660 O686 2.155 . S
Co660 O687 2.096 . S
C661 N664 1.301 1_545 S
C661 N665 1.328 . S
C661 H666 0.930 . S
C662 C663 1.333 1_565 S
C662 N664 1.317 . S
C662 H667 0.930 . S
C663 C662 1.333 1_545 S
C663 N665 1.350 . S
C663 H689 0.931 . S
N664 Co660 2.148 . S
N664 C661 1.301 1_565 S
N664 C662 1.317 . S
N665 C661 1.328 . S
N665 C663 1.350 . S
H666 C661 0.930 . S
H667 C662 0.930 . S
C668 O669 1.224 . S
C668 O687 1.247 . S
O669 C668 1.224 . S
N670 Co660 2.128 . S
N670 C671 1.355 . S
N670 C673 1.311 . S
C671 N670 1.355 . S
C671 C672 1.363 . S
C671 H683 0.929 . S
C672 C671 1.363 . S
C672 N674 1.375 . S
C672 H690 0.944 . S
C673 N670 1.311 . S
C673 N674 1.347 . S
C673 H684 0.929 . S
N674 C672 1.375 . S
N674 C673 1.347 . S
C675 C678 1.365 . S
C675 N680 1.328 . S
C675 H681 0.929 . S
C676 C677 1.362 . S
C676 C679 1.378 . S
C676 H691 0.929 . S
C677 C676 1.362 . S
C677 C678 1.366 . S
C678 C675 1.365 . S
C678 C677 1.366 . S
C678 H692 0.930 1_455 S
C679 C676 1.378 . S
C679 N680 1.315 . S
C679 H682 0.930 . S
N680 Co660 2.194 . S
N680 C675 1.328 . S
N680 C679 1.315 . S
H681 C675 0.929 . S
H682 C679 0.930 . S
H683 C671 0.929 . S
H684 C673 0.929 . S
O685 Co660 2.351 . S
O685 C688 1.244 . S
O686 Co660 2.155 . S
O686 C688 1.240 . S
O687 Co660 2.096 . S
O687 C668 1.247 . S
C688 O685 1.244 . S
C688 O686 1.240 . S
H689 C663 0.931 . S
H690 C672 0.944 . S
H691 C676 0.929 . S
H692 C678 0.930 1_655 S
Co693 N697 2.148 . S
Co693 N703 2.128 1_565 S
Co693 N713 2.194 . S
Co693 O718 2.351 . S
Co693 O719 2.155 . S
Co693 O720 2.096 . S
C694 N697 1.301 . S
C694 N698 1.328 . S
C694 H699 0.930 . S
C695 C696 1.333 . S
C695 N697 1.317 . S
C695 H700 0.930 . S
C696 C695 1.333 . S
C696 N698 1.350 . S
C696 H722 0.931 . S
N697 Co693 2.148 . S
N697 C694 1.301 . S
N697 C695 1.317 . S
N698 C694 1.328 . S
N698 C696 1.350 . S
H699 C694 0.930 . S
H700 C695 0.930 . S
C701 O702 1.224 . S
C701 O720 1.247 1_545 S
O702 C701 1.224 . S
N703 Co693 2.128 1_545 S
N703 C704 1.355 . S
N703 C706 1.311 . S
C704 N703 1.355 . S
C704 C705 1.363 . S
C704 H716 0.929 . S
C705 C704 1.363 . S
C705 N707 1.375 . S
C705 H723 0.931 . S
C706 N703 1.311 . S
C706 N707 1.347 . S
C706 H717 0.929 . S
N707 C705 1.375 . S
N707 C706 1.347 . S
C708 C711 1.365 . S
C708 N713 1.328 . S
C708 H714 0.929 . S
C709 C710 1.362 . S
C709 C712 1.378 . S
C709 H724 0.929 . S
C710 C709 1.362 . S
C710 C711 1.366 . S
C711 C708 1.365 . S
C711 C710 1.366 . S
C711 H725 0.930 . S
C712 C709 1.378 . S
C712 N713 1.315 . S
C712 H715 0.930 . S
N713 Co693 2.194 . S
N713 C708 1.328 . S
N713 C712 1.315 . S
H714 C708 0.929 . S
H715 C712 0.930 . S
H716 C704 0.929 . S
H717 C706 0.929 . S
O718 Co693 2.351 . S
O718 C721 1.244 . S
O719 Co693 2.155 . S
O719 C721 1.240 . S
O720 Co693 2.096 . S
O720 C701 1.247 1_565 S
C721 O718 1.244 . S
C721 O719 1.240 . S
H722 C696 0.931 . S
H723 C705 0.931 . S
H724 C709 0.929 . S
H725 C711 0.930 . S
Co726 N730 2.148 . S
Co726 N736 2.128 1_565 S
Co726 N746 2.194 . S
Co726 O751 2.351 . S
Co726 O752 2.155 . S
Co726 O753 2.096 . S
C727 N730 1.301 . S
C727 N731 1.328 . S
C727 H732 0.930 . S
C728 C729 1.333 . S
C728 N730 1.317 . S
C728 H733 0.930 . S
C729 C728 1.333 . S
C729 N731 1.350 . S
C729 H755 0.931 . S
N730 Co726 2.148 . S
N730 C727 1.301 . S
N730 C728 1.317 . S
N731 C727 1.328 . S
N731 C729 1.350 . S
H732 C727 0.930 . S
H733 C728 0.930 . S
C734 O735 1.224 . S
C734 O753 1.247 1_545 S
O735 C734 1.224 . S
N736 Co726 2.128 1_545 S
N736 C737 1.355 . S
N736 C739 1.311 . S
C737 N736 1.355 . S
C737 C738 1.363 . S
C737 H749 0.929 . S
C738 C737 1.363 . S
C738 N740 1.375 . S
C738 H756 0.944 . S
C739 N736 1.311 . S
C739 N740 1.347 . S
C739 H750 0.929 . S
N740 C738 1.375 . S
N740 C739 1.347 . S
C741 C744 1.365 . S
C741 N746 1.328 . S
C741 H747 0.929 . S
C742 C743 1.362 . S
C742 C745 1.378 . S
C742 H757 0.929 . S
C743 C742 1.362 . S
C743 C744 1.366 . S
C744 C741 1.365 . S
C744 C743 1.366 . S
C744 H758 0.930 1_455 S
C745 C742 1.378 . S
C745 N746 1.315 . S
C745 H748 0.930 . S
N746 Co726 2.194 . S
N746 C741 1.328 . S
N746 C745 1.315 . S
H747 C741 0.929 . S
H748 C745 0.930 . S
H749 C737 0.929 . S
H750 C739 0.929 . S
O751 Co726 2.351 . S
O751 C754 1.244 . S
O752 Co726 2.155 . S
O752 C754 1.240 . S
O753 Co726 2.096 . S
O753 C734 1.247 1_565 S
C754 O751 1.244 . S
C754 O752 1.240 . S
H755 C729 0.931 . S
H756 C738 0.944 . S
H757 C742 0.929 . S
H758 C744 0.930 1_655 S
Co759 N763 2.148 . S
Co759 N769 2.128 . S
Co759 N779 2.194 . S
Co759 O784 2.351 . S
Co759 O785 2.155 . S
Co759 O786 2.096 . S
C760 N763 1.301 1_545 S
C760 N764 1.328 . S
C760 H765 0.930 . S
C761 C762 1.333 1_565 S
C761 N763 1.317 . S
C761 H766 0.930 . S
C762 C761 1.333 1_545 S
C762 N764 1.350 . S
C762 H788 0.931 . S
N763 Co759 2.148 . S
N763 C760 1.301 1_565 S
N763 C761 1.317 . S
N764 C760 1.328 . S
N764 C762 1.350 . S
H765 C760 0.930 . S
H766 C761 0.930 . S
C767 O768 1.224 . S
C767 O786 1.247 . S
O768 C767 1.224 . S
N769 Co759 2.128 . S
N769 C770 1.355 . S
N769 C772 1.311 . S
C770 N769 1.355 . S
C770 C771 1.363 . S
C770 H782 0.929 . S
C771 C770 1.363 . S
C771 N773 1.375 . S
C771 H789 0.931 . S
C772 N769 1.311 . S
C772 N773 1.347 . S
C772 H783 0.929 . S
N773 C771 1.375 . S
N773 C772 1.347 . S
C774 C777 1.365 . S
C774 N779 1.328 . S
C774 H780 0.929 . S
C775 C776 1.362 . S
C775 C778 1.378 . S
C775 H790 0.929 . S
C776 C775 1.362 . S
C776 C777 1.366 . S
C777 C774 1.365 . S
C777 C776 1.366 . S
C777 H791 0.930 . S
C778 C775 1.378 . S
C778 N779 1.315 . S
C778 H781 0.930 . S
N779 Co759 2.194 . S
N779 C774 1.328 . S
N779 C778 1.315 . S
H780 C774 0.929 . S
H781 C778 0.930 . S
H782 C770 0.929 . S
H783 C772 0.929 . S
O784 Co759 2.351 . S
O784 C787 1.244 . S
O785 Co759 2.155 . S
O785 C787 1.240 . S
O786 Co759 2.096 . S
O786 C767 1.247 . S
C787 O784 1.244 . S
C787 O785 1.240 . S
H788 C762 0.931 . S
H789 C771 0.931 . S
H790 C775 0.929 . S
H791 C777 0.930 . S
Co792 N796 2.148 . S
Co792 N802 2.128 . S
Co792 N812 2.194 . S
Co792 O817 2.351 . S
Co792 O818 2.155 . S
Co792 O819 2.096 . S
C793 N796 1.301 . S
C793 N797 1.328 . S
C793 H798 0.930 . S
C794 C795 1.333 . S
C794 N796 1.317 . S
C794 H799 0.930 . S
C795 C794 1.333 . S
C795 N797 1.350 . S
C795 H821 0.931 . S
N796 Co792 2.148 . S
N796 C793 1.301 . S
N796 C794 1.317 . S
N797 C793 1.328 . S
N797 C795 1.350 . S
H798 C793 0.930 . S
H799 C794 0.930 . S
C800 O801 1.224 . S
C800 O819 1.247 . S
O801 C800 1.224 . S
N802 Co792 2.128 . S
N802 C803 1.355 . S
N802 C805 1.311 . S
C803 N802 1.355 . S
C803 C804 1.363 . S
C803 H815 0.929 . S
C804 C803 1.363 . S
C804 N806 1.375 . S
C804 H822 0.945 . S
C805 N802 1.311 . S
C805 N806 1.347 . S
C805 H816 0.929 . S
N806 C804 1.375 . S
N806 C805 1.347 . S
C807 C810 1.365 . S
C807 N812 1.328 . S
C807 H813 0.929 . S
C808 C809 1.362 . S
C808 C811 1.378 . S
C808 H823 0.929 . S
C809 C808 1.362 . S
C809 C810 1.366 . S
C810 C807 1.365 . S
C810 C809 1.366 . S
C810 H824 0.930 1_655 S
C811 C808 1.378 . S
C811 N812 1.315 . S
C811 H814 0.930 . S
N812 Co792 2.194 . S
N812 C807 1.328 . S
N812 C811 1.315 . S
H813 C807 0.929 . S
H814 C811 0.930 . S
H815 C803 0.929 . S
H816 C805 0.929 . S
O817 Co792 2.351 . S
O817 C820 1.244 . S
O818 Co792 2.155 . S
O818 C820 1.240 . S
O819 Co792 2.096 . S
O819 C800 1.247 . S
C820 O817 1.244 . S
C820 O818 1.240 . S
H821 C795 0.931 . S
H822 C804 0.945 . S
H823 C808 0.929 . S
H824 C810 0.930 1_455 S
Co825 N829 2.148 . S
Co825 N835 2.128 . S
Co825 N845 2.194 . S
Co825 O850 2.351 . S
Co825 O851 2.155 . S
Co825 O852 2.096 . S
C826 N829 1.301 . S
C826 N830 1.328 . S
C826 H831 0.930 . S
C827 C828 1.333 . S
C827 N829 1.317 . S
C827 H832 0.930 . S
C828 C827 1.333 . S
C828 N830 1.350 . S
C828 H854 0.931 . S
N829 Co825 2.148 . S
N829 C826 1.301 . S
N829 C827 1.317 . S
N830 C826 1.328 . S
N830 C828 1.350 . S
H831 C826 0.930 . S
H832 C827 0.930 . S
C833 O834 1.224 . S
C833 O852 1.247 . S
O834 C833 1.224 . S
N835 Co825 2.128 . S
N835 C836 1.355 . S
N835 C838 1.311 . S
C836 N835 1.355 . S
C836 C837 1.363 . S
C836 H848 0.929 . S
C837 C836 1.363 . S
C837 N839 1.375 . S
C837 H855 0.931 . S
C838 N835 1.311 . S
C838 N839 1.347 . S
C838 H849 0.929 . S
N839 C837 1.375 . S
N839 C838 1.347 . S
C840 C843 1.365 . S
C840 N845 1.328 . S
C840 H846 0.929 . S
C841 C842 1.362 . S
C841 C844 1.378 . S
C841 H856 0.929 . S
C842 C841 1.362 . S
C842 C843 1.366 . S
C843 C840 1.365 . S
C843 C842 1.366 . S
C843 H857 0.930 . S
C844 C841 1.378 . S
C844 N845 1.315 . S
C844 H847 0.930 . S
N845 Co825 2.194 . S
N845 C840 1.328 . S
N845 C844 1.315 . S
H846 C840 0.929 . S
H847 C844 0.930 . S
H848 C836 0.929 . S
H849 C838 0.929 . S
O850 Co825 2.351 . S
O850 C853 1.244 . S
O851 Co825 2.155 . S
O851 C853 1.240 . S
O852 Co825 2.096 . S
O852 C833 1.247 . S
C853 O850 1.244 . S
C853 O851 1.240 . S
H854 C828 0.931 . S
H855 C837 0.931 . S
H856 C841 0.929 . S
H857 C843 0.930 . S
Co858 N862 2.148 . S
Co858 N868 2.128 . S
Co858 N878 2.194 . S
Co858 O883 2.351 . S
Co858 O884 2.155 . S
Co858 O885 2.096 . S
C859 N862 1.301 . S
C859 N863 1.328 . S
C859 H864 0.930 . S
C860 C861 1.333 . S
C860 N862 1.317 . S
C860 H865 0.930 . S
C861 C860 1.333 . S
C861 N863 1.350 . S
C861 H887 0.931 . S
N862 Co858 2.148 . S
N862 C859 1.301 . S
N862 C860 1.317 . S
N863 C859 1.328 . S
N863 C861 1.350 . S
H864 C859 0.930 . S
H865 C860 0.930 . S
C866 O867 1.224 . S
C866 O885 1.247 . S
O867 C866 1.224 . S
N868 Co858 2.128 . S
N868 C869 1.355 . S
N868 C871 1.311 . S
C869 N868 1.355 . S
C869 C870 1.363 . S
C869 H881 0.929 . S
C870 C869 1.363 . S
C870 N872 1.375 . S
C870 H888 0.944 . S
C871 N868 1.311 . S
C871 N872 1.347 . S
C871 H882 0.929 . S
N872 C870 1.375 . S
N872 C871 1.347 . S
C873 C876 1.365 . S
C873 N878 1.328 . S
C873 H879 0.929 . S
C874 C875 1.362 . S
C874 C877 1.378 . S
C874 H889 0.929 . S
C875 C874 1.362 . S
C875 C876 1.366 . S
C876 C873 1.365 . S
C876 C875 1.366 . S
C876 H890 0.930 1_655 S
C877 C874 1.378 . S
C877 N878 1.315 . S
C877 H880 0.930 . S
N878 Co858 2.194 . S
N878 C873 1.328 . S
N878 C877 1.315 . S
H879 C873 0.929 . S
H880 C877 0.930 . S
H881 C869 0.929 . S
H882 C871 0.929 . S
O883 Co858 2.351 . S
O883 C886 1.244 . S
O884 Co858 2.155 . S
O884 C886 1.240 . S
O885 Co858 2.096 . S
O885 C866 1.247 . S
C886 O883 1.244 . S
C886 O884 1.240 . S
H887 C861 0.931 . S
H888 C870 0.944 . S
H889 C874 0.929 . S
H890 C876 0.930 1_455 S
Co891 N895 2.148 . S
Co891 N901 2.128 . S
Co891 N911 2.194 . S
Co891 O916 2.351 . S
Co891 O917 2.155 . S
Co891 O918 2.096 . S
C892 N895 1.301 . S
C892 N896 1.328 . S
C892 H897 0.930 . S
C893 C894 1.333 . S
C893 N895 1.317 . S
C893 H898 0.930 . S
C894 C893 1.333 . S
C894 N896 1.350 . S
C894 H920 0.931 . S
N895 Co891 2.148 . S
N895 C892 1.301 . S
N895 C893 1.317 . S
N896 C892 1.328 . S
N896 C894 1.350 . S
H897 C892 0.930 . S
H898 C893 0.930 . S
C899 O900 1.224 . S
C899 O918 1.247 . S
O900 C899 1.224 . S
N901 Co891 2.128 . S
N901 C902 1.355 . S
N901 C904 1.311 . S
C902 N901 1.355 . S
C902 C903 1.363 . S
C902 H914 0.929 . S
C903 C902 1.363 . S
C903 N905 1.375 . S
C903 H921 0.931 . S
C904 N901 1.311 . S
C904 N905 1.347 . S
C904 H915 0.929 . S
N905 C903 1.375 . S
N905 C904 1.347 . S
C906 C909 1.365 . S
C906 N911 1.328 . S
C906 H912 0.929 . S
C907 C908 1.362 . S
C907 C910 1.378 . S
C907 H922 0.929 . S
C908 C907 1.362 . S
C908 C909 1.366 . S
C909 C906 1.365 . S
C909 C908 1.366 . S
C909 H923 0.930 . S
C910 C907 1.378 . S
C910 N911 1.315 . S
C910 H913 0.930 . S
N911 Co891 2.194 . S
N911 C906 1.328 . S
N911 C910 1.315 . S
H912 C906 0.929 . S
H913 C910 0.930 . S
H914 C902 0.929 . S
H915 C904 0.929 . S
O916 Co891 2.351 . S
O916 C919 1.244 . S
O917 Co891 2.155 . S
O917 C919 1.240 . S
O918 Co891 2.096 . S
O918 C899 1.247 . S
C919 O916 1.244 . S
C919 O917 1.240 . S
H920 C894 0.931 . S
H921 C903 0.931 . S
H922 C907 0.929 . S
H923 C909 0.930 . S
Co924 N928 2.148 . S
Co924 N934 2.128 . S
Co924 N944 2.194 . S
Co924 O949 2.351 . S
Co924 O950 2.155 . S
Co924 O951 2.096 . S
C925 N928 1.301 . S
C925 N929 1.328 . S
C925 H930 0.930 . S
C926 C927 1.333 . S
C926 N928 1.317 . S
C926 H931 0.930 . S
C927 C926 1.333 . S
C927 N929 1.350 . S
C927 H953 0.931 . S
N928 Co924 2.148 . S
N928 C925 1.301 . S
N928 C926 1.317 . S
N929 C925 1.328 . S
N929 C927 1.350 . S
H930 C925 0.930 . S
H931 C926 0.930 . S
C932 O933 1.224 . S
C932 O951 1.247 . S
O933 C932 1.224 . S
N934 Co924 2.128 . S
N934 C935 1.355 . S
N934 C937 1.311 . S
C935 N934 1.355 . S
C935 C936 1.363 . S
C935 H947 0.929 . S
C936 C935 1.363 . S
C936 N938 1.375 . S
C936 H954 0.945 . S
C937 N934 1.311 . S
C937 N938 1.347 . S
C937 H948 0.929 . S
N938 C936 1.375 . S
N938 C937 1.347 . S
C939 C942 1.365 . S
C939 N944 1.328 . S
C939 H945 0.929 . S
C940 C941 1.362 . S
C940 C943 1.378 . S
C940 H955 0.929 . S
C941 C940 1.362 . S
C941 C942 1.366 . S
C942 C939 1.365 . S
C942 C941 1.366 . S
C942 H956 0.930 1_455 S
C943 C940 1.378 . S
C943 N944 1.315 . S
C943 H946 0.930 . S
N944 Co924 2.194 . S
N944 C939 1.328 . S
N944 C943 1.315 . S
H945 C939 0.929 . S
H946 C943 0.930 . S
H947 C935 0.929 . S
H948 C937 0.929 . S
O949 Co924 2.351 . S
O949 C952 1.244 . S
O950 Co924 2.155 . S
O950 C952 1.240 . S
O951 Co924 2.096 . S
O951 C932 1.247 . S
C952 O949 1.244 . S
C952 O950 1.240 . S
H953 C927 0.931 . S
H954 C936 0.945 . S
H955 C940 0.929 . S
H956 C942 0.930 1_655 S
Co957 N961 2.148 . S
Co957 N967 2.128 . S
Co957 N977 2.194 . S
Co957 O982 2.351 . S
Co957 O983 2.155 . S
Co957 O984 2.096 . S
C958 N961 1.301 . S
C958 N962 1.328 . S
C958 H963 0.930 . S
C959 C960 1.333 . S
C959 N961 1.317 . S
C959 H964 0.930 . S
C960 C959 1.333 . S
C960 N962 1.350 . S
C960 H986 0.931 . S
N961 Co957 2.148 . S
N961 C958 1.301 . S
N961 C959 1.317 . S
N962 C958 1.328 . S
N962 C960 1.350 . S
H963 C958 0.930 . S
H964 C959 0.930 . S
C965 O966 1.224 . S
C965 O984 1.247 . S
O966 C965 1.224 . S
N967 Co957 2.128 . S
N967 C968 1.355 . S
N967 C970 1.311 . S
C968 N967 1.355 . S
C968 C969 1.363 . S
C968 H980 0.929 . S
C969 C968 1.363 . S
C969 N971 1.375 . S
C969 H987 0.931 . S
C970 N967 1.311 . S
C970 N971 1.347 . S
C970 H981 0.929 . S
N971 C969 1.375 . S
N971 C970 1.347 . S
C972 C975 1.365 . S
C972 N977 1.328 . S
C972 H978 0.929 . S
C973 C974 1.362 . S
C973 C976 1.378 . S
C973 H988 0.929 . S
C974 C973 1.362 . S
C974 C975 1.366 . S
C975 C972 1.365 . S
C975 C974 1.366 . S
C975 H989 0.930 . S
C976 C973 1.378 . S
C976 N977 1.315 . S
C976 H979 0.930 . S
N977 Co957 2.194 . S
N977 C972 1.328 . S
N977 C976 1.315 . S
H978 C972 0.929 . S
H979 C976 0.930 . S
H980 C968 0.929 . S
H981 C970 0.929 . S
O982 Co957 2.351 . S
O982 C985 1.244 . S
O983 Co957 2.155 . S
O983 C985 1.240 . S
O984 Co957 2.096 . S
O984 C965 1.247 . S
C985 O982 1.244 . S
C985 O983 1.240 . S
H986 C960 0.931 . S
H987 C969 0.931 . S
H988 C973 0.929 . S
H989 C975 0.930 . S
Co990 N994 2.148 . S
Co990 N1000 2.128 . S
Co990 N1010 2.194 . S
Co990 O1015 2.351 . S
Co990 O1016 2.155 . S
Co990 O1017 2.096 . S
C991 N994 1.301 . S
C991 N995 1.328 . S
C991 H996 0.930 . S
C992 C993 1.333 . S
C992 N994 1.317 . S
C992 H997 0.930 . S
C993 C992 1.333 . S
C993 N995 1.350 . S
C993 H1019 0.931 . S
N994 Co990 2.148 . S
N994 C991 1.301 . S
N994 C992 1.317 . S
N995 C991 1.328 . S
N995 C993 1.350 . S
H996 C991 0.930 . S
H997 C992 0.930 . S
C998 O999 1.224 . S
C998 O1017 1.247 . S
O999 C998 1.224 . S
N1000 Co990 2.128 . S
N1000 C1001 1.355 . S
N1000 C1003 1.311 . S
C1001 N1000 1.355 . S
C1001 C1002 1.363 . S
C1001 H1013 0.929 . S
C1002 C1001 1.363 . S
C1002 N1004 1.375 . S
C1002 H1020 0.944 . S
C1003 N1000 1.311 . S
C1003 N1004 1.347 . S
C1003 H1014 0.929 . S
N1004 C1002 1.375 . S
N1004 C1003 1.347 . S
C1005 C1008 1.365 . S
C1005 N1010 1.328 . S
C1005 H1011 0.929 . S
C1006 C1007 1.362 . S
C1006 C1009 1.378 . S
C1006 H1021 0.929 . S
C1007 C1006 1.362 . S
C1007 C1008 1.366 . S
C1008 C1005 1.365 . S
C1008 C1007 1.366 . S
C1008 H1022 0.930 1_455 S
C1009 C1006 1.378 . S
C1009 N1010 1.315 . S
C1009 H1012 0.930 . S
N1010 Co990 2.194 . S
N1010 C1005 1.328 . S
N1010 C1009 1.315 . S
H1011 C1005 0.929 . S
H1012 C1009 0.930 . S
H1013 C1001 0.929 . S
H1014 C1003 0.929 . S
O1015 Co990 2.351 . S
O1015 C1018 1.244 . S
O1016 Co990 2.155 . S
O1016 C1018 1.240 . S
O1017 Co990 2.096 . S
O1017 C998 1.247 . S
C1018 O1015 1.244 . S
C1018 O1016 1.240 . S
H1019 C993 0.931 . S
H1020 C1002 0.944 . S
H1021 C1006 0.929 . S
H1022 C1008 0.930 1_655 S
Co1023 N1027 2.148 . S
Co1023 N1033 2.128 . S
Co1023 N1043 2.194 . S
Co1023 O1048 2.351 . S
Co1023 O1049 2.155 . S
Co1023 O1050 2.096 . S
C1024 N1027 1.301 . S
C1024 N1028 1.328 . S
C1024 H1029 0.930 . S
C1025 C1026 1.333 . S
C1025 N1027 1.317 . S
C1025 H1030 0.930 . S
C1026 C1025 1.333 . S
C1026 N1028 1.350 . S
C1026 H1052 0.931 . S
N1027 Co1023 2.148 . S
N1027 C1024 1.301 . S
N1027 C1025 1.317 . S
N1028 C1024 1.328 . S
N1028 C1026 1.350 . S
H1029 C1024 0.930 . S
H1030 C1025 0.930 . S
C1031 O1032 1.224 . S
C1031 O1050 1.247 . S
O1032 C1031 1.224 . S
N1033 Co1023 2.128 . S
N1033 C1034 1.355 . S
N1033 C1036 1.311 . S
C1034 N1033 1.355 . S
C1034 C1035 1.363 . S
C1034 H1046 0.929 . S
C1035 C1034 1.363 . S
C1035 N1037 1.375 . S
C1035 H1053 0.931 . S
C1036 N1033 1.311 . S
C1036 N1037 1.347 . S
C1036 H1047 0.929 . S
N1037 C1035 1.375 . S
N1037 C1036 1.347 . S
C1038 C1041 1.365 . S
C1038 N1043 1.328 . S
C1038 H1044 0.929 . S
C1039 C1040 1.362 . S
C1039 C1042 1.378 . S
C1039 H1054 0.929 . S
C1040 C1039 1.362 . S
C1040 C1041 1.366 . S
C1041 C1038 1.365 . S
C1041 C1040 1.366 . S
C1041 H1055 0.930 . S
C1042 C1039 1.378 . S
C1042 N1043 1.315 . S
C1042 H1045 0.930 . S
N1043 Co1023 2.194 . S
N1043 C1038 1.328 . S
N1043 C1042 1.315 . S
H1044 C1038 0.929 . S
H1045 C1042 0.930 . S
H1046 C1034 0.929 . S
H1047 C1036 0.929 . S
O1048 Co1023 2.351 . S
O1048 C1051 1.244 . S
O1049 Co1023 2.155 . S
O1049 C1051 1.240 . S
O1050 Co1023 2.096 . S
O1050 C1031 1.247 . S
C1051 O1048 1.244 . S
C1051 O1049 1.240 . S
H1052 C1026 0.931 . S
H1053 C1035 0.931 . S
H1054 C1039 0.929 . S
H1055 C1041 0.930 . S
C1056 C1057 1.387 . S
C1056 H1060 0.950 . S
C1056 C1065 1.390 . S
C1057 C1056 1.387 . S
C1057 C1059 1.387 . S
H1058 C1065 0.950 . S
C1059 C1057 1.387 . S
C1059 C1061 1.390 . S
C1059 H1063 0.950 . S
H1060 C1056 0.950 . S
C1061 C1059 1.390 . S
C1061 C1062 1.387 . S
C1061 H1064 0.950 . S
C1062 C1061 1.387 . S
C1062 C1065 1.387 . S
H1063 C1059 0.950 . S
H1064 C1061 0.950 . S
C1065 C1056 1.390 . S
C1065 H1058 0.950 . S
C1065 C1062 1.387 . S
C1066 C1067 1.387 . S
C1066 H1070 0.950 . S
C1066 C1075 1.390 . S
C1067 C1066 1.387 . S
C1067 C1069 1.387 . S
H1068 C1075 0.950 . S
C1069 C1067 1.387 . S
C1069 C1071 1.390 . S
C1069 H1073 0.950 . S
H1070 C1066 0.950 . S
C1071 C1069 1.390 . S
C1071 C1072 1.387 . S
C1071 H1074 0.950 . S
C1072 C1071 1.387 . S
C1072 C1075 1.387 . S
H1073 C1069 0.950 . S
H1074 C1071 0.950 . S
C1075 C1066 1.390 . S
C1075 H1068 0.950 . S
C1075 C1072 1.387 . S
C1076 C1077 1.387 . S
C1076 H1080 0.950 . S
C1076 C1085 1.390 . S
C1077 C1076 1.387 . S
C1077 C1079 1.387 . S
H1078 C1085 0.950 . S
C1079 C1077 1.387 . S
C1079 C1081 1.390 . S
C1079 H1083 0.950 . S
H1080 C1076 0.950 . S
C1081 C1079 1.390 . S
C1081 C1082 1.387 . S
C1081 H1084 0.950 . S
C1082 C1081 1.387 . S
C1082 C1085 1.387 . S
H1083 C1079 0.950 . S
H1084 C1081 0.950 . S
C1085 C1076 1.390 . S
C1085 H1078 0.950 . S
C1085 C1082 1.387 . S
C1086 C1087 1.387 . S
C1086 H1090 0.950 . S
C1086 C1095 1.390 . S
C1087 C1086 1.387 . S
C1087 C1089 1.387 . S
H1088 C1095 0.950 . S
C1089 C1087 1.387 . S
C1089 C1091 1.390 . S
C1089 H1093 0.950 . S
H1090 C1086 0.950 . S
C1091 C1089 1.390 . S
C1091 C1092 1.387 . S
C1091 H1094 0.950 . S
C1092 C1091 1.387 . S
C1092 C1095 1.387 . S
H1093 C1089 0.950 . S
H1094 C1091 0.950 . S
C1095 C1086 1.390 . S
C1095 H1088 0.950 . S
C1095 C1092 1.387 . S
C1096 C1097 1.387 . S
C1096 H1100 0.950 . S
C1096 C1105 1.390 . S
C1097 C1096 1.387 . S
C1097 C1099 1.387 . S
H1098 C1105 0.950 . S
C1099 C1097 1.387 . S
C1099 C1101 1.390 . S
C1099 H1103 0.950 . S
H1100 C1096 0.950 . S
C1101 C1099 1.390 . S
C1101 C1102 1.387 . S
C1101 H1104 0.950 . S
C1102 C1101 1.387 . S
C1102 C1105 1.387 . S
H1103 C1099 0.950 . S
H1104 C1101 0.950 . S
C1105 C1096 1.390 . S
C1105 H1098 0.950 . S
C1105 C1102 1.387 . S
C1106 C1107 1.387 . S
C1106 H1110 0.950 . S
C1106 C1115 1.390 . S
C1107 C1106 1.387 . S
C1107 C1109 1.387 . S
H1108 C1115 0.950 . S
C1109 C1107 1.387 . S
C1109 C1111 1.390 . S
C1109 H1113 0.950 . S
H1110 C1106 0.950 . S
C1111 C1109 1.390 . S
C1111 C1112 1.387 . S
C1111 H1114 0.950 . S
C1112 C1111 1.387 . S
C1112 C1115 1.387 . S
H1113 C1109 0.950 . S
H1114 C1111 0.950 . S
C1115 C1106 1.390 . S
C1115 H1108 0.950 . S
C1115 C1112 1.387 . S
C1116 C1117 1.387 . S
C1116 H1120 0.950 . S
C1116 C1125 1.390 . S
C1117 C1116 1.387 . S
C1117 C1119 1.387 . S
H1118 C1125 0.950 . S
C1119 C1117 1.387 . S
C1119 C1121 1.390 . S
C1119 H1123 0.950 . S
H1120 C1116 0.950 . S
C1121 C1119 1.390 . S
C1121 C1122 1.387 . S
C1121 H1124 0.950 . S
C1122 C1121 1.387 . S
C1122 C1125 1.387 . S
H1123 C1119 0.950 . S
H1124 C1121 0.950 . S
C1125 C1116 1.390 . S
C1125 H1118 0.950 . S
C1125 C1122 1.387 . S
C1126 C1127 1.387 . S
C1126 H1130 0.950 . S
C1126 C1135 1.390 . S
C1127 C1126 1.387 . S
C1127 C1129 1.387 . S
H1128 C1135 0.950 . S
C1129 C1127 1.387 . S
C1129 C1131 1.390 . S
C1129 H1133 0.950 . S
H1130 C1126 0.950 . S
C1131 C1129 1.390 . S
C1131 C1132 1.387 . S
C1131 H1134 0.950 . S
C1132 C1131 1.387 . S
C1132 C1135 1.387 . S
H1133 C1129 0.950 . S
H1134 C1131 0.950 . S
C1135 C1126 1.390 . S
C1135 H1128 0.950 . S
C1135 C1132 1.387 . S
C1136 C1137 1.364 1_455 S
C1136 H1140 0.973 . S
C1136 C1145 1.390 . S
C1137 C1136 1.364 1_655 S
C1137 C1139 1.387 . S
H1138 C1145 0.973 . S
C1139 C1137 1.387 . S
C1139 C1141 1.390 . S
C1139 H1143 0.950 . S
H1140 C1136 0.973 . S
C1141 C1139 1.390 . S
C1141 C1142 1.387 . S
C1141 H1144 0.950 . S
C1142 C1141 1.387 . S
C1142 C1145 1.364 1_655 S
H1143 C1139 0.950 . S
H1144 C1141 0.950 . S
C1145 C1136 1.390 . S
C1145 H1138 0.973 . S
C1145 C1142 1.364 1_455 S
C1146 C1147 1.387 . S
C1146 H1150 0.950 . S
C1146 C1155 1.390 . S
C1147 C1146 1.387 . S
C1147 C1149 1.387 . S
H1148 C1155 0.950 . S
C1149 C1147 1.387 . S
C1149 C1151 1.390 . S
C1149 H1153 0.950 . S
H1150 C1146 0.950 . S
C1151 C1149 1.390 . S
C1151 C1152 1.387 . S
C1151 H1154 0.950 . S
C1152 C1151 1.387 . S
C1152 C1155 1.387 . S
H1153 C1149 0.950 . S
H1154 C1151 0.950 . S
C1155 C1146 1.390 . S
C1155 H1148 0.950 . S
C1155 C1152 1.387 . S
C1156 C1157 1.364 1_655 S
C1156 H1160 0.973 . S
C1156 C1165 1.390 . S
C1157 C1156 1.364 1_455 S
C1157 C1159 1.387 . S
H1158 C1165 0.973 . S
C1159 C1157 1.387 . S
C1159 C1161 1.390 . S
C1159 H1163 0.950 . S
H1160 C1156 0.973 . S
C1161 C1159 1.390 . S
C1161 C1162 1.387 . S
C1161 H1164 0.950 . S
C1162 C1161 1.387 . S
C1162 C1165 1.364 1_455 S
H1163 C1159 0.950 . S
H1164 C1161 0.950 . S
C1165 C1156 1.390 . S
C1165 H1158 0.973 . S
C1165 C1162 1.364 1_655 S
C1166 C1167 1.387 . S
C1166 H1170 0.950 . S
C1166 C1175 1.390 . S
C1167 C1166 1.387 . S
C1167 C1169 1.387 . S
H1168 C1175 0.950 . S
C1169 C1167 1.387 . S
C1169 C1171 1.390 . S
C1169 H1173 0.950 . S
H1170 C1166 0.950 . S
C1171 C1169 1.390 . S
C1171 C1172 1.387 . S
C1171 H1174 0.950 . S
C1172 C1171 1.387 . S
C1172 C1175 1.387 . S
H1173 C1169 0.950 . S
H1174 C1171 0.950 . S
C1175 C1166 1.390 . S
C1175 H1168 0.950 . S
C1175 C1172 1.387 . S
C1176 C1177 1.364 1_455 S
C1176 H1180 0.973 . S
C1176 C1185 1.390 . S
C1177 C1176 1.364 1_655 S
C1177 C1179 1.387 . S
H1178 C1185 0.973 . S
C1179 C1177 1.387 . S
C1179 C1181 1.390 . S
C1179 H1183 0.950 . S
H1180 C1176 0.973 . S
C1181 C1179 1.390 . S
C1181 C1182 1.387 . S
C1181 H1184 0.950 . S
C1182 C1181 1.387 . S
C1182 C1185 1.364 1_655 S
H1183 C1179 0.950 . S
H1184 C1181 0.950 . S
C1185 C1176 1.390 . S
C1185 H1178 0.973 . S
C1185 C1182 1.364 1_455 S
C1186 C1187 1.387 . S
C1186 H1190 0.950 . S
C1186 C1195 1.390 . S
C1187 C1186 1.387 . S
C1187 C1189 1.387 . S
H1188 C1195 0.950 . S
C1189 C1187 1.387 . S
C1189 C1191 1.390 . S
C1189 H1193 0.950 . S
H1190 C1186 0.950 . S
C1191 C1189 1.390 . S
C1191 C1192 1.387 . S
C1191 H1194 0.950 . S
C1192 C1191 1.387 . S
C1192 C1195 1.387 . S
H1193 C1189 0.950 . S
H1194 C1191 0.950 . S
C1195 C1186 1.390 . S
C1195 H1188 0.950 . S
C1195 C1192 1.387 . S
C1196 C1197 1.387 . S
C1196 H1200 0.950 . S
C1196 C1205 1.390 . S
C1197 C1196 1.387 . S
C1197 C1199 1.364 1_455 S
H1198 C1205 0.950 . S
C1199 C1197 1.364 1_655 S
C1199 C1201 1.390 . S
C1199 H1203 0.973 . S
H1200 C1196 0.950 . S
C1201 C1199 1.390 . S
C1201 C1202 1.364 1_655 S
C1201 H1204 0.973 . S
C1202 C1201 1.364 1_455 S
C1202 C1205 1.387 . S
H1203 C1199 0.973 . S
H1204 C1201 0.973 . S
C1205 C1196 1.390 . S
C1205 H1198 0.950 . S
C1205 C1202 1.387 . S
C1206 C1207 1.387 . S
C1206 H1210 0.950 . S
C1206 C1215 1.390 . S
C1207 C1206 1.387 . S
C1207 C1209 1.387 . S
H1208 C1215 0.950 . S
C1209 C1207 1.387 . S
C1209 C1211 1.390 . S
C1209 H1213 0.950 . S
H1210 C1206 0.950 . S
C1211 C1209 1.390 . S
C1211 C1212 1.387 . S
C1211 H1214 0.950 . S
C1212 C1211 1.387 . S
C1212 C1215 1.387 . S
H1213 C1209 0.950 . S
H1214 C1211 0.950 . S
C1215 C1206 1.390 . S
C1215 H1208 0.950 . S
C1215 C1212 1.387 . S
C1216 C1217 1.387 1_554 S
C1216 H1220 0.950 . S
C1216 C1225 1.390 . S
C1217 C1216 1.387 1_556 S
C1217 C1219 1.387 1_565 S
H1218 C1225 0.950 . S
C1219 C1217 1.387 1_545 S
C1219 C1221 1.390 . S
C1219 H1223 0.950 . S
H1220 C1216 0.950 . S
C1221 C1219 1.390 . S
C1221 C1222 1.387 1_556 S
C1221 H1224 0.950 . S
C1222 C1221 1.387 1_554 S
C1222 C1225 1.387 1_545 S
H1223 C1219 0.950 . S
H1224 C1221 0.950 . S
C1225 C1216 1.390 . S
C1225 H1218 0.950 . S
C1225 C1222 1.387 1_565 S
C1226 C1227 1.387 . S
C1226 H1230 0.950 . S
C1226 C1235 1.390 1_554 S
C1227 C1226 1.387 . S
C1227 C1229 1.387 . S
H1228 C1235 0.950 . S
C1229 C1227 1.387 . S
C1229 C1231 1.390 1_554 S
C1229 H1233 0.950 . S
H1230 C1226 0.950 . S
C1231 C1229 1.390 1_556 S
C1231 C1232 1.387 . S
C1231 H1234 0.950 . S
C1232 C1231 1.387 . S
C1232 C1235 1.387 . S
H1233 C1229 0.950 . S
H1234 C1231 0.950 . S
C1235 C1226 1.390 1_556 S
C1235 H1228 0.950 . S
C1235 C1232 1.387 . S
C1236 C1237 1.387 . S
C1236 H1240 0.950 . S
C1236 C1245 1.390 . S
C1237 C1236 1.387 . S
C1237 C1239 1.387 . S
H1238 C1245 0.950 . S
C1239 C1237 1.387 . S
C1239 C1241 1.390 . S
C1239 H1243 0.950 . S
H1240 C1236 0.950 . S
C1241 C1239 1.390 . S
C1241 C1242 1.387 . S
C1241 H1244 0.950 . S
C1242 C1241 1.387 . S
C1242 C1245 1.387 . S
H1243 C1239 0.950 . S
H1244 C1241 0.950 . S
C1245 C1236 1.390 . S
C1245 H1238 0.950 . S
C1245 C1242 1.387 . S
C1246 C1247 1.387 . S
C1246 H1250 0.950 . S
C1246 C1255 1.390 . S
C1247 C1246 1.387 . S
C1247 C1249 1.387 1_545 S
H1248 C1255 0.950 . S
C1249 C1247 1.387 1_565 S
C1249 C1251 1.390 . S
C1249 H1253 0.950 . S
H1250 C1246 0.950 . S
C1251 C1249 1.390 . S
C1251 C1252 1.387 . S
C1251 H1254 0.950 . S
C1252 C1251 1.387 . S
C1252 C1255 1.387 1_565 S
H1253 C1249 0.950 . S
H1254 C1251 0.950 . S
C1255 C1246 1.390 . S
C1255 H1248 0.950 . S
C1255 C1252 1.387 1_545 S
C1256 C1257 1.387 . S
C1256 H1260 0.950 . S
C1256 C1265 1.390 . S
C1257 C1256 1.387 . S
C1257 C1259 1.387 1_556 S
H1258 C1265 0.950 . S
C1259 C1257 1.387 1_554 S
C1259 C1261 1.390 . S
C1259 H1263 0.950 . S
H1260 C1256 0.950 . S
C1261 C1259 1.390 . S
C1261 C1262 1.387 . S
C1261 H1264 0.950 . S
C1262 C1261 1.387 . S
C1262 C1265 1.387 1_554 S
H1263 C1259 0.950 . S
H1264 C1261 0.950 . S
C1265 C1256 1.390 . S
C1265 H1258 0.950 . S
C1265 C1262 1.387 1_556 S
C1266 C1267 1.387 . S
C1266 H1270 0.950 . S
C1266 C1275 1.390 . S
C1267 C1266 1.387 . S
C1267 C1269 1.387 . S
H1268 C1275 0.950 . S
C1269 C1267 1.387 . S
C1269 C1271 1.390 . S
C1269 H1273 0.950 . S
H1270 C1266 0.950 . S
C1271 C1269 1.390 . S
C1271 C1272 1.387 . S
C1271 H1274 0.950 . S
C1272 C1271 1.387 . S
C1272 C1275 1.387 . S
H1273 C1269 0.950 . S
H1274 C1271 0.950 . S
C1275 C1266 1.390 . S
C1275 H1268 0.950 . S
C1275 C1272 1.387 . S
C1276 C1277 1.387 . S
C1276 H1280 0.950 . S
C1276 C1285 1.390 1_545 S
C1277 C1276 1.387 . S
C1277 C1279 1.387 . S
H1278 C1285 0.950 . S
C1279 C1277 1.387 . S
C1279 C1281 1.390 1_545 S
C1279 H1283 0.950 . S
H1280 C1276 0.950 . S
C1281 C1279 1.390 1_565 S
C1281 C1282 1.387 . S
C1281 H1284 0.950 . S
C1282 C1281 1.387 . S
C1282 C1285 1.387 . S
H1283 C1279 0.950 . S
H1284 C1281 0.950 . S
C1285 C1276 1.390 1_565 S
C1285 H1278 0.950 . S
C1285 C1282 1.387 . S
C1286 C1287 1.387 . S
C1286 H1290 0.950 . S
C1286 C1295 1.390 . S
C1287 C1286 1.387 . S
C1287 C1289 1.387 . S
H1288 C1295 0.950 . S
C1289 C1287 1.387 . S
C1289 C1291 1.390 . S
C1289 H1293 0.950 . S
H1290 C1286 0.950 . S
C1291 C1289 1.390 . S
C1291 C1292 1.387 . S
C1291 H1294 0.950 . S
C1292 C1291 1.387 . S
C1292 C1295 1.387 . S
H1293 C1289 0.950 . S
H1294 C1291 0.950 . S
C1295 C1286 1.390 . S
C1295 H1288 0.950 . S
C1295 C1292 1.387 . S
C1296 C1297 1.387 . S
C1296 H1300 0.950 . S
C1296 C1305 1.390 . S
C1297 C1296 1.387 . S
C1297 C1299 1.387 . S
H1298 C1305 0.950 . S
C1299 C1297 1.387 . S
C1299 C1301 1.390 . S
C1299 H1303 0.950 . S
H1300 C1296 0.950 . S
C1301 C1299 1.390 . S
C1301 C1302 1.387 . S
C1301 H1304 0.950 . S
C1302 C1301 1.387 . S
C1302 C1305 1.387 . S
H1303 C1299 0.950 . S
H1304 C1301 0.950 . S
C1305 C1296 1.390 . S
C1305 H1298 0.950 . S
C1305 C1302 1.387 . S
C1306 C1307 1.387 . S
C1306 H1310 0.950 . S
C1306 C1315 1.390 . S
C1307 C1306 1.387 . S
C1307 C1309 1.387 . S
H1308 C1315 0.950 . S
C1309 C1307 1.387 . S
C1309 C1311 1.390 . S
C1309 H1313 0.950 . S
H1310 C1306 0.950 . S
C1311 C1309 1.390 . S
C1311 C1312 1.387 . S
C1311 H1314 0.950 . S
C1312 C1311 1.387 . S
C1312 C1315 1.387 . S
H1313 C1309 0.950 . S
H1314 C1311 0.950 . S
C1315 C1306 1.390 . S
C1315 H1308 0.950 . S
C1315 C1312 1.387 . S
C1316 C1317 1.387 . S
C1316 H1320 0.950 . S
C1316 C1325 1.390 . S
C1317 C1316 1.387 . S
C1317 C1319 1.387 . S
H1318 C1325 0.950 . S
C1319 C1317 1.387 . S
C1319 C1321 1.390 . S
C1319 H1323 0.950 . S
H1320 C1316 0.950 . S
C1321 C1319 1.390 . S
C1321 C1322 1.387 . S
C1321 H1324 0.950 . S
C1322 C1321 1.387 . S
C1322 C1325 1.387 . S
H1323 C1319 0.950 . S
H1324 C1321 0.950 . S
C1325 C1316 1.390 . S
C1325 H1318 0.950 . S
C1325 C1322 1.387 . S
C1326 C1327 1.387 . S
C1326 H1330 0.950 . S
C1326 C1335 1.390 . S
C1327 C1326 1.387 . S
C1327 C1329 1.387 . S
H1328 C1335 0.950 . S
C1329 C1327 1.387 . S
C1329 C1331 1.390 . S
C1329 H1333 0.950 . S
H1330 C1326 0.950 . S
C1331 C1329 1.390 . S
C1331 C1332 1.387 . S
C1331 H1334 0.950 . S
C1332 C1331 1.387 . S
C1332 C1335 1.387 . S
H1333 C1329 0.950 . S
H1334 C1331 0.950 . S
C1335 C1326 1.390 . S
C1335 H1328 0.950 . S
C1335 C1332 1.387 . S
C1336 C1337 1.387 . S
C1336 H1340 0.950 . S
C1336 C1345 1.390 1_565 S
C1337 C1336 1.387 . S
C1337 C1339 1.387 1_455 S
H1338 C1345 0.950 . S
C1339 C1337 1.387 1_655 S
C1339 C1341 1.390 1_565 S
C1339 H1343 0.950 . S
H1340 C1336 0.950 . S
C1341 C1339 1.390 1_545 S
C1341 C1342 1.387 . S
C1341 H1344 0.950 . S
C1342 C1341 1.387 . S
C1342 C1345 1.387 1_655 S
H1343 C1339 0.950 . S
H1344 C1341 0.950 . S
C1345 C1336 1.390 1_545 S
C1345 H1338 0.950 . S
C1345 C1342 1.387 1_455 S
C1346 C1347 1.387 1_455 S
C1346 H1350 0.950 . S
C1346 C1355 1.390 . S
C1347 C1346 1.387 1_655 S
C1347 C1349 1.387 . S
H1348 C1355 0.950 . S
C1349 C1347 1.387 . S
C1349 C1351 1.390 . S
C1349 H1353 0.950 . S
H1350 C1346 0.950 . S
C1351 C1349 1.390 . S
C1351 C1352 1.387 1_655 S
C1351 H1354 0.950 . S
C1352 C1351 1.387 1_455 S
C1352 C1355 1.387 . S
H1353 C1349 0.950 . S
H1354 C1351 0.950 . S
C1355 C1346 1.390 . S
C1355 H1348 0.950 . S
C1355 C1352 1.387 . S
C1356 C1357 1.387 1_655 S
C1356 H1360 0.950 . S
C1356 C1365 1.390 . S
C1357 C1356 1.387 1_455 S
C1357 C1359 1.387 . S
H1358 C1365 0.950 . S
C1359 C1357 1.387 . S
C1359 C1361 1.390 . S
C1359 H1363 0.950 . S
H1360 C1356 0.950 . S
C1361 C1359 1.390 . S
C1361 C1362 1.387 1_455 S
C1361 H1364 0.950 . S
C1362 C1361 1.387 1_655 S
C1362 C1365 1.387 . S
H1363 C1359 0.950 . S
H1364 C1361 0.950 . S
C1365 C1356 1.390 . S
C1365 H1358 0.950 . S
C1365 C1362 1.387 . S
C1366 C1367 1.387 . S
C1366 H1370 0.950 . S
C1366 C1375 1.390 . S
C1367 C1366 1.387 . S
C1367 C1369 1.387 1_456 S
H1368 C1375 0.950 . S
C1369 C1367 1.387 1_654 S
C1369 C1371 1.390 . S
C1369 H1373 0.950 . S
H1370 C1366 0.950 . S
C1371 C1369 1.390 . S
C1371 C1372 1.387 . S
C1371 H1374 0.950 . S
C1372 C1371 1.387 . S
C1372 C1375 1.387 1_654 S
H1373 C1369 0.950 . S
H1374 C1371 0.950 . S
C1375 C1366 1.390 . S
C1375 H1368 0.950 . S
C1375 C1372 1.387 1_456 S
C1376 C1377 1.387 . S
C1376 H1380 0.950 . S
C1376 C1385 1.390 . S
C1377 C1376 1.387 . S
C1377 C1379 1.387 . S
H1378 C1385 0.950 . S
C1379 C1377 1.387 . S
C1379 C1381 1.390 . S
C1379 H1383 0.950 . S
H1380 C1376 0.950 . S
C1381 C1379 1.390 . S
C1381 C1382 1.387 . S
C1381 H1384 0.950 . S
C1382 C1381 1.387 . S
C1382 C1385 1.387 . S
H1383 C1379 0.950 . S
H1384 C1381 0.950 . S
C1385 C1376 1.390 . S
C1385 H1378 0.950 . S
C1385 C1382 1.387 . S
C1386 C1387 1.387 . S
C1386 H1390 0.950 . S
C1386 C1395 1.390 . S
C1387 C1386 1.387 . S
C1387 C1389 1.387 . S
H1388 C1395 0.950 . S
C1389 C1387 1.387 . S
C1389 C1391 1.390 . S
C1389 H1393 0.950 . S
H1390 C1386 0.950 . S
C1391 C1389 1.390 . S
C1391 C1392 1.387 . S
C1391 H1394 0.950 . S
C1392 C1391 1.387 . S
C1392 C1395 1.387 . S
H1393 C1389 0.950 . S
H1394 C1391 0.950 . S
C1395 C1386 1.390 . S
C1395 H1388 0.950 . S
C1395 C1392 1.387 . S
C1396 C1397 1.387 . S
C1396 H1400 0.950 . S
C1396 C1405 1.390 . S
C1397 C1396 1.387 . S
C1397 C1399 1.387 . S
H1398 C1405 0.950 . S
C1399 C1397 1.387 . S
C1399 C1401 1.390 . S
C1399 H1403 0.950 . S
H1400 C1396 0.950 . S
C1401 C1399 1.390 . S
C1401 C1402 1.387 . S
C1401 H1404 0.950 . S
C1402 C1401 1.387 . S
C1402 C1405 1.387 . S
H1403 C1399 0.950 . S
H1404 C1401 0.950 . S
C1405 C1396 1.390 . S
C1405 H1398 0.950 . S
C1405 C1402 1.387 . S
C1406 C1407 1.387 . S
C1406 H1410 0.950 . S
C1406 C1415 1.390 . S
C1407 C1406 1.387 . S
C1407 C1409 1.387 . S
H1408 C1415 0.950 . S
C1409 C1407 1.387 . S
C1409 C1411 1.390 . S
C1409 H1413 0.950 . S
H1410 C1406 0.950 . S
C1411 C1409 1.390 . S
C1411 C1412 1.387 . S
C1411 H1414 0.950 . S
C1412 C1411 1.387 . S
C1412 C1415 1.387 . S
H1413 C1409 0.950 . S
H1414 C1411 0.950 . S
C1415 C1406 1.390 . S
C1415 H1408 0.950 . S
C1415 C1412 1.387 . S
C1416 C1417 1.387 . S
C1416 H1420 0.950 . S
C1416 C1425 1.390 . S
C1417 C1416 1.387 . S
C1417 C1419 1.387 . S
H1418 C1425 0.950 . S
C1419 C1417 1.387 . S
C1419 C1421 1.390 . S
C1419 H1423 0.950 . S
H1420 C1416 0.950 . S
C1421 C1419 1.390 . S
C1421 C1422 1.387 . S
C1421 H1424 0.950 . S
C1422 C1421 1.387 . S
C1422 C1425 1.387 . S
H1423 C1419 0.950 . S
H1424 C1421 0.950 . S
C1425 C1416 1.390 . S
C1425 H1418 0.950 . S
C1425 C1422 1.387 . S
C1426 C1427 1.387 . S
C1426 H1430 0.950 . S
C1426 C1435 1.390 . S
C1427 C1426 1.387 . S
C1427 C1429 1.387 . S
H1428 C1435 0.950 . S
C1429 C1427 1.387 . S
C1429 C1431 1.390 . S
C1429 H1433 0.950 . S
H1430 C1426 0.950 . S
C1431 C1429 1.390 . S
C1431 C1432 1.387 . S
C1431 H1434 0.950 . S
C1432 C1431 1.387 . S
C1432 C1435 1.387 . S
H1433 C1429 0.950 . S
H1434 C1431 0.950 . S
C1435 C1426 1.390 . S
C1435 H1428 0.950 . S
C1435 C1432 1.387 . S
C1436 C1437 1.387 . S
C1436 H1440 0.950 . S
C1436 C1445 1.390 . S
C1437 C1436 1.387 . S
C1437 C1439 1.387 . S
H1438 C1445 0.950 . S
C1439 C1437 1.387 . S
C1439 C1441 1.390 . S
C1439 H1443 0.950 . S
H1440 C1436 0.950 . S
C1441 C1439 1.390 . S
C1441 C1442 1.387 . S
C1441 H1444 0.950 . S
C1442 C1441 1.387 . S
C1442 C1445 1.387 . S
H1443 C1439 0.950 . S
H1444 C1441 0.950 . S
C1445 C1436 1.390 . S
C1445 H1438 0.950 . S
C1445 C1442 1.387 . S
C1446 C1447 1.387 . S
C1446 H1450 0.950 . S
C1446 C1455 1.390 . S
C1447 C1446 1.387 . S
C1447 C1449 1.387 . S
H1448 C1455 0.950 . S
C1449 C1447 1.387 . S
C1449 C1451 1.390 . S
C1449 H1453 0.950 . S
H1450 C1446 0.950 . S
C1451 C1449 1.390 . S
C1451 C1452 1.387 . S
C1451 H1454 0.950 . S
C1452 C1451 1.387 . S
C1452 C1455 1.387 . S
H1453 C1449 0.950 . S
H1454 C1451 0.950 . S
C1455 C1446 1.390 . S
C1455 H1448 0.950 . S
C1455 C1452 1.387 . S
C1456 C1457 1.387 . S
C1456 H1460 0.950 . S
C1456 C1465 1.390 . S
C1457 C1456 1.387 . S
C1457 C1459 1.387 . S
H1458 C1465 0.950 . S
C1459 C1457 1.387 . S
C1459 C1461 1.390 . S
C1459 H1463 0.950 . S
H1460 C1456 0.950 . S
C1461 C1459 1.390 . S
C1461 C1462 1.387 . S
C1461 H1464 0.950 . S
C1462 C1461 1.387 . S
C1462 C1465 1.387 . S
H1463 C1459 0.950 . S
H1464 C1461 0.950 . S
C1465 C1456 1.390 . S
C1465 H1458 0.950 . S
C1465 C1462 1.387 . S
C1466 C1467 1.387 1_545 S
C1466 H1470 0.950 1_545 S
C1466 C1475 1.390 . S
C1467 C1466 1.387 1_565 S
C1467 C1469 1.387 1_565 S
H1468 C1475 0.950 . S
C1469 C1467 1.387 1_545 S
C1469 C1471 1.390 . S
C1469 H1473 0.950 1_545 S
H1470 C1466 0.950 1_565 S
C1471 C1469 1.390 . S
C1471 C1472 1.387 . S
C1471 H1474 0.950 . S
C1472 C1471 1.387 . S
C1472 C1475 1.387 . S
H1473 C1469 0.950 1_565 S
H1474 C1471 0.950 . S
C1475 C1466 1.390 . S
C1475 H1468 0.950 . S
C1475 C1472 1.387 . S
C1476 C1477 1.387 1_545 S
C1476 H1480 0.950 1_545 S
C1476 C1485 1.390 . S
C1477 C1476 1.387 1_565 S
C1477 C1479 1.387 1_565 S
H1478 C1485 0.950 . S
C1479 C1477 1.387 1_545 S
C1479 C1481 1.390 . S
C1479 H1483 0.950 1_545 S
H1480 C1476 0.950 1_565 S
C1481 C1479 1.390 . S
C1481 C1482 1.387 . S
C1481 H1484 0.950 . S
C1482 C1481 1.387 . S
C1482 C1485 1.387 . S
H1483 C1479 0.950 1_565 S
H1484 C1481 0.950 . S
C1485 C1476 1.390 . S
C1485 H1478 0.950 . S
C1485 C1482 1.387 . S
C1486 C1487 1.387 . S
C1486 H1490 0.950 . S
C1486 C1495 1.390 . S
C1487 C1486 1.387 . S
C1487 C1489 1.387 . S
H1488 C1495 0.950 . S
C1489 C1487 1.387 . S
C1489 C1491 1.390 . S
C1489 H1493 0.950 . S
H1490 C1486 0.950 . S
C1491 C1489 1.390 . S
C1491 C1492 1.387 . S
C1491 H1494 0.950 . S
C1492 C1491 1.387 . S
C1492 C1495 1.387 . S
H1493 C1489 0.950 . S
H1494 C1491 0.950 . S
C1495 C1486 1.390 . S
C1495 H1488 0.950 . S
C1495 C1492 1.387 . S
C1496 C1497 1.387 . S
C1496 H1500 0.950 . S
C1496 C1505 1.390 . S
C1497 C1496 1.387 . S
C1497 C1499 1.387 . S
H1498 C1505 0.950 . S
C1499 C1497 1.387 . S
C1499 C1501 1.390 . S
C1499 H1503 0.950 . S
H1500 C1496 0.950 . S
C1501 C1499 1.390 . S
C1501 C1502 1.387 . S
C1501 H1504 0.950 . S
C1502 C1501 1.387 . S
C1502 C1505 1.387 . S
H1503 C1499 0.950 . S
H1504 C1501 0.950 . S
C1505 C1496 1.390 . S
C1505 H1498 0.950 . S
C1505 C1502 1.387 . S
C1506 C1507 1.387 1_565 S
C1506 H1510 0.950 1_565 S
C1506 C1515 1.390 . S
C1507 C1506 1.387 1_545 S
C1507 C1509 1.387 1_545 S
H1508 C1515 0.950 . S
C1509 C1507 1.387 1_565 S
C1509 C1511 1.390 . S
C1509 H1513 0.950 1_565 S
H1510 C1506 0.950 1_545 S
C1511 C1509 1.390 . S
C1511 C1512 1.387 . S
C1511 H1514 0.950 . S
C1512 C1511 1.387 . S
C1512 C1515 1.387 . S
H1513 C1509 0.950 1_545 S
H1514 C1511 0.950 . S
C1515 C1506 1.390 . S
C1515 H1508 0.950 . S
C1515 C1512 1.387 . S
C1516 C1517 1.387 1_565 S
C1516 H1520 0.950 1_565 S
C1516 C1525 1.390 . S
C1517 C1516 1.387 1_545 S
C1517 C1519 1.387 1_545 S
H1518 C1525 0.950 . S
C1519 C1517 1.387 1_565 S
C1519 C1521 1.390 . S
C1519 H1523 0.950 1_565 S
H1520 C1516 0.950 1_545 S
C1521 C1519 1.390 . S
C1521 C1522 1.387 . S
C1521 H1524 0.950 . S
C1522 C1521 1.387 . S
C1522 C1525 1.387 . S
H1523 C1519 0.950 1_545 S
H1524 C1521 0.950 . S
C1525 C1516 1.390 . S
C1525 H1518 0.950 . S
C1525 C1522 1.387 . S
C1526 C1527 1.387 . S
C1526 H1530 0.950 . S
C1526 C1535 1.390 . S
C1527 C1526 1.387 . S
C1527 C1529 1.387 . S
H1528 C1535 0.950 . S
C1529 C1527 1.387 . S
C1529 C1531 1.390 . S
C1529 H1533 0.950 . S
H1530 C1526 0.950 . S
C1531 C1529 1.390 . S
C1531 C1532 1.387 . S
C1531 H1534 0.950 . S
C1532 C1531 1.387 . S
C1532 C1535 1.387 . S
H1533 C1529 0.950 . S
H1534 C1531 0.950 . S
C1535 C1526 1.390 . S
C1535 H1528 0.950 . S
C1535 C1532 1.387 . S
C1536 C1537 1.387 . S
C1536 H1540 0.950 . S
C1536 C1545 1.390 . S
C1537 C1536 1.387 . S
C1537 C1539 1.387 . S
H1538 C1545 0.950 . S
C1539 C1537 1.387 . S
C1539 C1541 1.390 . S
C1539 H1543 0.950 . S
H1540 C1536 0.950 . S
C1541 C1539 1.390 . S
C1541 C1542 1.387 . S
C1541 H1544 0.950 . S
C1542 C1541 1.387 . S
C1542 C1545 1.387 . S
H1543 C1539 0.950 . S
H1544 C1541 0.950 . S
C1545 C1536 1.390 . S
C1545 H1538 0.950 . S
C1545 C1542 1.387 . S
C1546 C1547 1.387 . S
C1546 H1550 0.950 . S
C1546 C1555 1.390 . S
C1547 C1546 1.387 . S
C1547 C1549 1.387 . S
H1548 C1555 0.950 . S
C1549 C1547 1.387 . S
C1549 C1551 1.390 . S
C1549 H1553 0.950 . S
H1550 C1546 0.950 . S
C1551 C1549 1.390 . S
C1551 C1552 1.387 . S
C1551 H1554 0.950 . S
C1552 C1551 1.387 . S
C1552 C1555 1.387 . S
H1553 C1549 0.950 . S
H1554 C1551 0.950 . S
C1555 C1546 1.390 . S
C1555 H1548 0.950 . S
C1555 C1552 1.387 . S
C1556 C1557 1.387 . S
C1556 H1560 0.950 . S
C1556 C1565 1.390 . S
C1557 C1556 1.387 . S
C1557 C1559 1.387 . S
H1558 C1565 0.950 . S
C1559 C1557 1.387 . S
C1559 C1561 1.390 . S
C1559 H1563 0.950 . S
H1560 C1556 0.950 . S
C1561 C1559 1.390 . S
C1561 C1562 1.387 . S
C1561 H1564 0.950 . S
C1562 C1561 1.387 . S
C1562 C1565 1.387 . S
H1563 C1559 0.950 . S
H1564 C1561 0.950 . S
C1565 C1556 1.390 . S
C1565 H1558 0.950 . S
C1565 C1562 1.387 . S
C1566 C1567 1.387 . S
C1566 H1570 0.950 . S
C1566 C1575 1.390 . S
C1567 C1566 1.387 . S
C1567 C1569 1.387 . S
H1568 C1575 0.950 . S
C1569 C1567 1.387 . S
C1569 C1571 1.390 . S
C1569 H1573 0.950 . S
H1570 C1566 0.950 . S
C1571 C1569 1.390 . S
C1571 C1572 1.387 . S
C1571 H1574 0.950 . S
C1572 C1571 1.387 . S
C1572 C1575 1.387 . S
H1573 C1569 0.950 . S
H1574 C1571 0.950 . S
C1575 C1566 1.390 . S
C1575 H1568 0.950 . S
C1575 C1572 1.387 . S
C1576 C1577 1.387 . S
C1576 H1580 0.950 . S
C1576 C1585 1.390 . S
C1577 C1576 1.387 . S
C1577 C1579 1.387 . S
H1578 C1585 0.950 . S
C1579 C1577 1.387 . S
C1579 C1581 1.390 . S
C1579 H1583 0.950 . S
H1580 C1576 0.950 . S
C1581 C1579 1.390 . S
C1581 C1582 1.387 . S
C1581 H1584 0.950 . S
C1582 C1581 1.387 . S
C1582 C1585 1.387 . S
H1583 C1579 0.950 . S
H1584 C1581 0.950 . S
C1585 C1576 1.390 . S
C1585 H1578 0.950 . S
C1585 C1582 1.387 . S
C1586 C1587 1.387 . S
C1586 H1590 0.950 . S
C1586 C1595 1.390 . S
C1587 C1586 1.387 . S
C1587 C1589 1.387 . S
H1588 C1595 0.950 . S
C1589 C1587 1.387 . S
C1589 C1591 1.390 . S
C1589 H1593 0.950 . S
H1590 C1586 0.950 . S
C1591 C1589 1.390 . S
C1591 C1592 1.387 . S
C1591 H1594 0.950 . S
C1592 C1591 1.387 . S
C1592 C1595 1.387 . S
H1593 C1589 0.950 . S
H1594 C1591 0.950 . S
C1595 C1586 1.390 . S
C1595 H1588 0.950 . S
C1595 C1592 1.387 . S
C1596 C1597 1.387 . S
C1596 H1600 0.950 . S
C1596 C1605 1.390 . S
C1597 C1596 1.387 . S
C1597 C1599 1.387 . S
H1598 C1605 0.950 . S
C1599 C1597 1.387 . S
C1599 C1601 1.390 . S
C1599 H1603 0.950 . S
H1600 C1596 0.950 . S
C1601 C1599 1.390 . S
C1601 C1602 1.387 . S
C1601 H1604 0.950 . S
C1602 C1601 1.387 . S
C1602 C1605 1.387 . S
H1603 C1599 0.950 . S
H1604 C1601 0.950 . S
C1605 C1596 1.390 . S
C1605 H1598 0.950 . S
C1605 C1602 1.387 . S
C1606 C1607 1.387 . S
C1606 H1610 0.950 . S
C1606 C1615 1.390 . S
C1607 C1606 1.387 . S
C1607 C1609 1.387 . S
H1608 C1615 0.950 . S
C1609 C1607 1.387 . S
C1609 C1611 1.390 . S
C1609 H1613 0.950 . S
H1610 C1606 0.950 . S
C1611 C1609 1.390 . S
C1611 C1612 1.387 . S
C1611 H1614 0.950 . S
C1612 C1611 1.387 . S
C1612 C1615 1.387 . S
H1613 C1609 0.950 . S
H1614 C1611 0.950 . S
C1615 C1606 1.390 . S
C1615 H1608 0.950 . S
C1615 C1612 1.387 . S
C1616 C1617 1.387 . S
C1616 H1620 0.950 . S
C1616 C1625 1.390 . S
C1617 C1616 1.387 . S
C1617 C1619 1.387 . S
H1618 C1625 0.950 . S
C1619 C1617 1.387 . S
C1619 C1621 1.390 . S
C1619 H1623 0.950 . S
H1620 C1616 0.950 . S
C1621 C1619 1.390 . S
C1621 C1622 1.387 . S
C1621 H1624 0.950 . S
C1622 C1621 1.387 . S
C1622 C1625 1.387 . S
H1623 C1619 0.950 . S
H1624 C1621 0.950 . S
C1625 C1616 1.390 . S
C1625 H1618 0.950 . S
C1625 C1622 1.387 . S
C1626 C1627 1.387 1_545 S
C1626 H1630 0.950 1_545 S
C1626 C1635 1.390 . S
C1627 C1626 1.387 1_565 S
C1627 C1629 1.387 1_565 S
H1628 C1635 0.950 . S
C1629 C1627 1.387 1_545 S
C1629 C1631 1.390 . S
C1629 H1633 0.950 1_545 S
H1630 C1626 0.950 1_565 S
C1631 C1629 1.390 . S
C1631 C1632 1.387 . S
C1631 H1634 0.950 . S
C1632 C1631 1.387 . S
C1632 C1635 1.387 . S
H1633 C1629 0.950 1_565 S
H1634 C1631 0.950 . S
C1635 C1626 1.390 . S
C1635 H1628 0.950 . S
C1635 C1632 1.387 . S
C1636 C1637 1.387 1_545 S
C1636 H1640 0.950 1_545 S
C1636 C1645 1.390 . S
C1637 C1636 1.387 1_565 S
C1637 C1639 1.387 1_565 S
H1638 C1645 0.950 . S
C1639 C1637 1.387 1_545 S
C1639 C1641 1.390 . S
C1639 H1643 0.950 1_545 S
H1640 C1636 0.950 1_565 S
C1641 C1639 1.390 . S
C1641 C1642 1.387 . S
C1641 H1644 0.950 . S
C1642 C1641 1.387 . S
C1642 C1645 1.387 . S
H1643 C1639 0.950 1_565 S
H1644 C1641 0.950 . S
C1645 C1636 1.390 . S
C1645 H1638 0.950 . S
C1645 C1642 1.387 . S
C1646 C1647 1.387 . S
C1646 H1650 0.950 . S
C1646 C1655 1.390 . S
C1647 C1646 1.387 . S
C1647 C1649 1.387 . S
H1648 C1655 0.950 . S
C1649 C1647 1.387 . S
C1649 C1651 1.390 . S
C1649 H1653 0.950 . S
H1650 C1646 0.950 . S
C1651 C1649 1.390 . S
C1651 C1652 1.387 . S
C1651 H1654 0.950 . S
C1652 C1651 1.387 . S
C1652 C1655 1.387 . S
H1653 C1649 0.950 . S
H1654 C1651 0.950 . S
C1655 C1646 1.390 . S
C1655 H1648 0.950 . S
C1655 C1652 1.387 . S
C1656 C1657 1.387 . S
C1656 H1660 0.950 . S
C1656 C1665 1.390 . S
C1657 C1656 1.387 . S
C1657 C1659 1.387 . S
H1658 C1665 0.950 . S
C1659 C1657 1.387 . S
C1659 C1661 1.390 . S
C1659 H1663 0.950 . S
H1660 C1656 0.950 . S
C1661 C1659 1.390 . S
C1661 C1662 1.387 . S
C1661 H1664 0.950 . S
C1662 C1661 1.387 . S
C1662 C1665 1.387 . S
H1663 C1659 0.950 . S
H1664 C1661 0.950 . S
C1665 C1656 1.390 . S
C1665 H1658 0.950 . S
C1665 C1662 1.387 . S
C1666 C1667 1.387 . S
C1666 H1670 0.950 . S
C1666 C1675 1.390 . S
C1667 C1666 1.387 . S
C1667 C1669 1.387 . S
H1668 C1675 0.950 1_545 S
C1669 C1667 1.387 . S
C1669 C1671 1.390 . S
C1669 H1673 0.950 . S
H1670 C1666 0.950 . S
C1671 C1669 1.390 . S
C1671 C1672 1.387 1_565 S
C1671 H1674 0.950 1_565 S
C1672 C1671 1.387 1_545 S
C1672 C1675 1.387 1_545 S
H1673 C1669 0.950 . S
H1674 C1671 0.950 1_545 S
C1675 C1666 1.390 . S
C1675 H1668 0.950 1_565 S
C1675 C1672 1.387 1_565 S
C1676 C1677 1.387 . S
C1676 H1680 0.950 . S
C1676 C1685 1.390 . S
C1677 C1676 1.387 . S
C1677 C1679 1.387 . S
H1678 C1685 0.950 1_545 S
C1679 C1677 1.387 . S
C1679 C1681 1.390 . S
C1679 H1683 0.950 . S
H1680 C1676 0.950 . S
C1681 C1679 1.390 . S
C1681 C1682 1.387 1_565 S
C1681 H1684 0.950 1_565 S
C1682 C1681 1.387 1_545 S
C1682 C1685 1.387 1_545 S
H1683 C1679 0.950 . S
H1684 C1681 0.950 1_545 S
C1685 C1676 1.390 . S
C1685 H1678 0.950 1_565 S
C1685 C1682 1.387 1_565 S
C1686 C1687 1.387 . S
C1686 H1690 0.950 . S
C1686 C1695 1.390 . S
C1687 C1686 1.387 . S
C1687 C1689 1.387 . S
H1688 C1695 0.950 . S
C1689 C1687 1.387 . S
C1689 C1691 1.390 . S
C1689 H1693 0.950 . S
H1690 C1686 0.950 . S
C1691 C1689 1.390 . S
C1691 C1692 1.387 . S
C1691 H1694 0.950 . S
C1692 C1691 1.387 . S
C1692 C1695 1.387 . S
H1693 C1689 0.950 . S
H1694 C1691 0.950 . S
C1695 C1686 1.390 . S
C1695 H1688 0.950 . S
C1695 C1692 1.387 . S
C1696 C1697 1.387 . S
C1696 H1700 0.950 . S
C1696 C1705 1.390 . S
C1697 C1696 1.387 . S
C1697 C1699 1.387 . S
H1698 C1705 0.950 . S
C1699 C1697 1.387 . S
C1699 C1701 1.390 . S
C1699 H1703 0.950 . S
H1700 C1696 0.950 . S
C1701 C1699 1.390 . S
C1701 C1702 1.387 . S
C1701 H1704 0.950 . S
C1702 C1701 1.387 . S
C1702 C1705 1.387 . S
H1703 C1699 0.950 . S
H1704 C1701 0.950 . S
C1705 C1696 1.390 . S
C1705 H1698 0.950 . S
C1705 C1702 1.387 . S
C1706 C1707 1.387 . S
C1706 H1710 0.950 . S
C1706 C1715 1.390 . S
C1707 C1706 1.387 . S
C1707 C1709 1.387 . S
H1708 C1715 0.950 . S
C1709 C1707 1.387 . S
C1709 C1711 1.390 . S
C1709 H1713 0.950 . S
H1710 C1706 0.950 . S
C1711 C1709 1.390 . S
C1711 C1712 1.387 . S
C1711 H1714 0.950 . S
C1712 C1711 1.387 . S
C1712 C1715 1.387 . S
H1713 C1709 0.950 . S
H1714 C1711 0.950 . S
C1715 C1706 1.390 . S
C1715 H1708 0.950 . S
C1715 C1712 1.387 . S
C1716 C1717 1.387 . S
C1716 H1720 0.950 . S
C1716 C1725 1.390 . S
C1717 C1716 1.387 . S
C1717 C1719 1.387 . S
H1718 C1725 0.950 . S
C1719 C1717 1.387 . S
C1719 C1721 1.390 . S
C1719 H1723 0.950 . S
H1720 C1716 0.950 . S
C1721 C1719 1.390 . S
C1721 C1722 1.387 . S
C1721 H1724 0.950 . S
C1722 C1721 1.387 . S
C1722 C1725 1.387 . S
H1723 C1719 0.950 . S
H1724 C1721 0.950 . S
C1725 C1716 1.390 . S
C1725 H1718 0.950 . S
C1725 C1722 1.387 . S
C1726 C1727 1.387 . S
C1726 H1730 0.950 . S
C1726 C1735 1.390 . S
C1727 C1726 1.387 . S
C1727 C1729 1.387 . S
H1728 C1735 0.950 . S
C1729 C1727 1.387 . S
C1729 C1731 1.390 . S
C1729 H1733 0.950 . S
H1730 C1726 0.950 . S
C1731 C1729 1.390 . S
C1731 C1732 1.387 . S
C1731 H1734 0.950 . S
C1732 C1731 1.387 . S
C1732 C1735 1.387 . S
H1733 C1729 0.950 . S
H1734 C1731 0.950 . S
C1735 C1726 1.390 . S
C1735 H1728 0.950 . S
C1735 C1732 1.387 . S
C1736 C1737 1.387 . S
C1736 H1740 0.950 . S
C1736 C1745 1.390 . S
C1737 C1736 1.387 . S
C1737 C1739 1.387 . S
H1738 C1745 0.950 . S
C1739 C1737 1.387 . S
C1739 C1741 1.390 . S
C1739 H1743 0.950 . S
H1740 C1736 0.950 . S
C1741 C1739 1.390 . S
C1741 C1742 1.387 . S
C1741 H1744 0.950 . S
C1742 C1741 1.387 . S
C1742 C1745 1.387 . S
H1743 C1739 0.950 . S
H1744 C1741 0.950 . S
C1745 C1736 1.390 . S
C1745 H1738 0.950 . S
C1745 C1742 1.387 . S
C1746 C1747 1.387 . S
C1746 H1750 0.950 . S
C1746 C1755 1.390 . S
C1747 C1746 1.387 . S
C1747 C1749 1.387 . S
H1748 C1755 0.950 . S
C1749 C1747 1.387 . S
C1749 C1751 1.390 . S
C1749 H1753 0.950 . S
H1750 C1746 0.950 . S
C1751 C1749 1.390 . S
C1751 C1752 1.387 . S
C1751 H1754 0.950 . S
C1752 C1751 1.387 . S
C1752 C1755 1.387 . S
H1753 C1749 0.950 . S
H1754 C1751 0.950 . S
C1755 C1746 1.390 . S
C1755 H1748 0.950 . S
C1755 C1752 1.387 . S
C1756 C1757 1.387 . S
C1756 H1760 0.950 . S
C1756 C1765 1.390 . S
C1757 C1756 1.387 . S
C1757 C1759 1.387 . S
H1758 C1765 0.950 . S
C1759 C1757 1.387 . S
C1759 C1761 1.390 . S
C1759 H1763 0.950 . S
H1760 C1756 0.950 . S
C1761 C1759 1.390 . S
C1761 C1762 1.387 . S
C1761 H1764 0.950 . S
C1762 C1761 1.387 . S
C1762 C1765 1.387 . S
H1763 C1759 0.950 . S
H1764 C1761 0.950 . S
C1765 C1756 1.390 . S
C1765 H1758 0.950 . S
C1765 C1762 1.387 . S
C1766 C1767 1.387 . S
C1766 H1770 0.950 . S
C1766 C1775 1.390 . S
C1767 C1766 1.387 . S
C1767 C1769 1.387 . S
H1768 C1775 0.950 . S
C1769 C1767 1.387 . S
C1769 C1771 1.390 . S
C1769 H1773 0.950 . S
H1770 C1766 0.950 . S
C1771 C1769 1.390 . S
C1771 C1772 1.387 . S
C1771 H1774 0.950 . S
C1772 C1771 1.387 . S
C1772 C1775 1.387 . S
H1773 C1769 0.950 . S
H1774 C1771 0.950 . S
C1775 C1766 1.390 . S
C1775 H1768 0.950 . S
C1775 C1772 1.387 . S
C1776 C1777 1.387 . S
C1776 H1780 0.950 . S
C1776 C1785 1.390 . S
C1777 C1776 1.387 . S
C1777 C1779 1.387 . S
H1778 C1785 0.950 . S
C1779 C1777 1.387 . S
C1779 C1781 1.390 . S
C1779 H1783 0.950 . S
H1780 C1776 0.950 . S
C1781 C1779 1.390 . S
C1781 C1782 1.387 . S
C1781 H1784 0.950 . S
C1782 C1781 1.387 . S
C1782 C1785 1.387 . S
H1783 C1779 0.950 . S
H1784 C1781 0.950 . S
C1785 C1776 1.390 . S
C1785 H1778 0.950 . S
C1785 C1782 1.387 . S
C1786 C1787 1.387 . S
C1786 H1790 0.950 . S
C1786 C1795 1.390 . S
C1787 C1786 1.387 . S
C1787 C1789 1.387 . S
H1788 C1795 0.950 . S
C1789 C1787 1.387 . S
C1789 C1791 1.390 . S
C1789 H1793 0.950 . S
H1790 C1786 0.950 . S
C1791 C1789 1.390 . S
C1791 C1792 1.387 . S
C1791 H1794 0.950 . S
C1792 C1791 1.387 . S
C1792 C1795 1.387 . S
H1793 C1789 0.950 . S
H1794 C1791 0.950 . S
C1795 C1786 1.390 . S
C1795 H1788 0.950 . S
C1795 C1792 1.387 . S
C1796 C1797 1.387 . S
C1796 H1800 0.950 . S
C1796 C1805 1.390 . S
C1797 C1796 1.387 . S
C1797 C1799 1.387 . S
H1798 C1805 0.950 . S
C1799 C1797 1.387 . S
C1799 C1801 1.390 . S
C1799 H1803 0.950 . S
H1800 C1796 0.950 . S
C1801 C1799 1.390 . S
C1801 C1802 1.387 . S
C1801 H1804 0.950 . S
C1802 C1801 1.387 . S
C1802 C1805 1.387 . S
H1803 C1799 0.950 . S
H1804 C1801 0.950 . S
C1805 C1796 1.390 . S
C1805 H1798 0.950 . S
C1805 C1802 1.387 . S
C1806 C1807 1.387 . S
C1806 H1810 0.950 . S
C1806 C1815 1.390 . S
C1807 C1806 1.387 . S
C1807 C1809 1.387 . S
H1808 C1815 0.950 . S
C1809 C1807 1.387 . S
C1809 C1811 1.390 . S
C1809 H1813 0.950 . S
H1810 C1806 0.950 . S
C1811 C1809 1.390 . S
C1811 C1812 1.387 . S
C1811 H1814 0.950 . S
C1812 C1811 1.387 . S
C1812 C1815 1.387 . S
H1813 C1809 0.950 . S
H1814 C1811 0.950 . S
C1815 C1806 1.390 . S
C1815 H1808 0.950 . S
C1815 C1812 1.387 . S
C1816 C1817 1.387 . S
C1816 H1820 0.950 . S
C1816 C1825 1.390 . S
C1817 C1816 1.387 . S
C1817 C1819 1.387 . S
H1818 C1825 0.950 . S
C1819 C1817 1.387 . S
C1819 C1821 1.390 . S
C1819 H1823 0.950 . S
H1820 C1816 0.950 . S
C1821 C1819 1.390 . S
C1821 C1822 1.387 . S
C1821 H1824 0.950 . S
C1822 C1821 1.387 . S
C1822 C1825 1.387 . S
H1823 C1819 0.950 . S
H1824 C1821 0.950 . S
C1825 C1816 1.390 . S
C1825 H1818 0.950 . S
C1825 C1822 1.387 . S
C1826 C1827 1.387 . S
C1826 H1830 0.950 . S
C1826 C1835 1.390 . S
C1827 C1826 1.387 . S
C1827 C1829 1.387 . S
H1828 C1835 0.950 . S
C1829 C1827 1.387 . S
C1829 C1831 1.390 . S
C1829 H1833 0.950 . S
H1830 C1826 0.950 . S
C1831 C1829 1.390 . S
C1831 C1832 1.387 . S
C1831 H1834 0.950 . S
C1832 C1831 1.387 . S
C1832 C1835 1.387 . S
H1833 C1829 0.950 . S
H1834 C1831 0.950 . S
C1835 C1826 1.390 . S
C1835 H1828 0.950 . S
C1835 C1832 1.387 . S
C1836 C1837 1.387 . S
C1836 H1840 0.950 . S
C1836 C1845 1.390 . S
C1837 C1836 1.387 . S
C1837 C1839 1.387 . S
H1838 C1845 0.950 . S
C1839 C1837 1.387 . S
C1839 C1841 1.390 . S
C1839 H1843 0.950 . S
H1840 C1836 0.950 . S
C1841 C1839 1.390 . S
C1841 C1842 1.387 . S
C1841 H1844 0.950 . S
C1842 C1841 1.387 . S
C1842 C1845 1.387 . S
H1843 C1839 0.950 . S
H1844 C1841 0.950 . S
C1845 C1836 1.390 . S
C1845 H1838 0.950 . S
C1845 C1842 1.387 . S
C1846 C1847 1.387 . S
C1846 H1850 0.950 . S
C1846 C1855 1.390 . S
C1847 C1846 1.387 . S
C1847 C1849 1.387 . S
H1848 C1855 0.950 . S
C1849 C1847 1.387 . S
C1849 C1851 1.390 . S
C1849 H1853 0.950 . S
H1850 C1846 0.950 . S
C1851 C1849 1.390 . S
C1851 C1852 1.387 . S
C1851 H1854 0.950 . S
C1852 C1851 1.387 . S
C1852 C1855 1.387 . S
H1853 C1849 0.950 . S
H1854 C1851 0.950 . S
C1855 C1846 1.390 . S
C1855 H1848 0.950 . S
C1855 C1852 1.387 . S
C1057 C17 1.568 . S
C1062 C83 1.568 . S
C1067 C50 1.569 . S
C1072 C116 1.569 . S
C1077 C149 1.568 . S
C1082 C215 1.568 . S
C1087 C248 1.569 . S
C1092 C182 1.569 . S
C1097 C347 1.569 . S
C1102 C281 1.569 . S
C1107 C380 1.568 . S
C1112 C314 1.568 . S
C1117 C413 1.568 . S
C1122 C479 1.568 . S
C1127 C512 1.569 . S
C1132 C446 1.569 . S
C1137 C611 1.568 . S
C1142 C545 1.568 . S
C1147 C578 1.568 . S
C1152 C644 1.568 . S
C1157 C677 1.569 . S
C1162 C743 1.569 . S
C1167 C776 1.569 . S
C1172 C710 1.569 . S
C1177 C875 1.568 . S
C1182 C809 1.568 . S
C1187 C842 1.568 . S
C1192 C908 1.568 . S
C1197 C1007 1.568 . S
C1202 C941 1.568 . S
C1207 C1040 1.568 . S
C1212 C974 1.568 . S
C1217 C160 1.378 . S
C1222 C28 1.378 . S
C1227 C61 1.377 . S
C1232 C985 1.377 . S
C1237 C94 1.378 . S
C1242 C490 1.378 . S
C1247 C127 1.375 . S
C1252 C787 1.375 . S
C1257 C193 1.375 . S
C1262 C853 1.375 . S
C1267 C358 1.375 . S
C1272 C226 1.375 . S
C1277 C655 1.378 . S
C1282 C259 1.378 . S
C1287 C292 1.378 . S
C1292 C424 1.378 . S
C1297 C721 1.379 . S
C1302 C325 1.379 . S
C1307 C1051 1.375 . S
C1312 C391 1.375 . S
C1317 C589 1.375 . S
C1322 C457 1.375 . S
C1327 C919 1.376 . S
C1332 C523 1.376 . S
C1337 C688 1.378 . S
C1342 C556 1.378 . S
C1347 C622 1.378 . S
C1352 C1018 1.378 . S
C1357 C754 1.375 . S
C1362 C886 1.375 . S
C1367 C952 1.376 . S
C1372 C820 1.376 . S
C1377 N5 1.357 . S
C1382 N14 1.357 . S
C1387 N47 1.357 . S
C1392 N38 1.357 . S
C1397 N80 1.358 . S
C1402 N71 1.358 . S
C1407 N113 1.358 . S
C1412 N104 1.358 . S
C1417 N137 1.357 . S
C1422 N146 1.357 . S
C1427 N179 1.358 . S
C1432 N170 1.358 . S
C1437 N203 1.358 . S
C1442 N212 1.358 . S
C1447 N236 1.357 . S
C1452 N245 1.357 . S
C1457 N269 1.358 . S
C1462 N278 1.358 1_545 S
C1467 N302 1.357 . S
C1472 N311 1.357 . S
C1477 N335 1.357 . S
C1482 N344 1.357 . S
C1487 N377 1.358 1_545 S
C1492 N368 1.358 . S
C1497 N401 1.358 . S
C1502 N410 1.358 1_565 S
C1507 N434 1.357 . S
C1512 N443 1.357 . S
C1517 N467 1.358 . S
C1522 N476 1.358 . S
C1527 N500 1.358 . S
C1532 N509 1.358 1_565 S
C1537 N542 1.358 . S
C1542 N533 1.358 . S
C1547 N566 1.357 . S
C1552 N575 1.357 . S
C1557 N599 1.358 . S
C1562 N608 1.358 . S
C1567 N632 1.358 . S
C1572 N641 1.358 . S
C1577 N665 1.358 . S
C1582 N674 1.358 . S
C1587 N698 1.357 . S
C1592 N707 1.357 . S
C1597 N740 1.358 . S
C1602 N731 1.358 . S
C1607 N764 1.357 . S
C1612 N773 1.357 . S
C1617 N806 1.357 1_545 S
C1622 N797 1.357 . S
C1627 N830 1.358 . S
C1632 N839 1.358 . S
C1637 N863 1.357 . S
C1642 N872 1.357 . S
C1647 N896 1.357 . S
C1652 N905 1.357 1_545 S
C1657 N938 1.357 1_565 S
C1662 N929 1.357 . S
C1667 N971 1.357 . S
C1672 N962 1.357 . S
C1677 N1004 1.357 . S
C1682 N995 1.357 . S
C1687 N1037 1.357 1_565 S
C1692 N1028 1.357 . S
C1697 C833 1.543 . S
C1702 C8 1.543 . S
C1707 C41 1.543 . S
C1712 C800 1.543 . S
C1717 C899 1.543 . S
C1722 C74 1.543 . S
C1727 C107 1.541 . S
C1732 C866 1.541 . S
C1737 C965 1.541 . S
C1742 C140 1.541 . S
C1747 C173 1.543 . S
C1752 C932 1.543 . S
C1757 C1031 1.543 . S
C1762 C206 1.543 . S
C1767 C998 1.543 . S
C1772 C239 1.543 . S
C1777 C272 1.543 . S
C1782 C569 1.543 . S
C1787 C305 1.543 . S
C1792 C536 1.543 . S
C1797 C635 1.541 . S
C1802 C338 1.541 . S
C1807 C371 1.543 . S
C1812 C602 1.543 . S
C1817 C701 1.543 . S
C1822 C404 1.543 . S
C1827 C668 1.541 . S
C1832 C437 1.541 . S
C1837 C470 1.543 . S
C1842 C767 1.543 . S
C1847 C503 1.543 . S
C1852 C734 1.543 . S
