# Generated by pormake.
# Topology sml, (6)-cn, num edge types: 1
# Building blocks:
#     Node 0, Type 0, BuildingBlock: GEDQOX_clean_sbu_0, # of connection points: 6
#     Node 1, Type 0, BuildingBlock: GEDQOX_clean_sbu_0, # of connection points: 6
#     Node 2, Type 0, BuildingBlock: GEDQOX_clean_sbu_0, # of connection points: 6
#     Node 3, Type 0, BuildingBlock: GEDQOX_clean_sbu_0, # of connection points: 6
#     Node 4, Type 0, BuildingBlock: GEDQOX_clean_sbu_0, # of connection points: 6
#     Node 5, Type 0, BuildingBlock: GEDQOX_clean_sbu_0, # of connection points: 6
#     Edge 6, Type (0, 0), BuildingBlock: FUNLAD_clean_linker_0, # of connection points: 2
#     Edge 7, Type (0, 0), BuildingBlock: FUNLAD_clean_linker_0, # of connection points: 2
#     Edge 8, Type (0, 0), BuildingBlock: FUNLAD_clean_linker_0, # of connection points: 2
#     Edge 9, Type (0, 0), BuildingBlock: FUNLAD_clean_linker_0, # of connection points: 2
#     Edge 10, Type (0, 0), BuildingBlock: FUNLAD_clean_linker_0, # of connection points: 2
#     Edge 11, Type (0, 0), BuildingBlock: FUNLAD_clean_linker_0, # of connection points: 2
#     Edge 12, Type (0, 0), BuildingBlock: FUNLAD_clean_linker_0, # of connection points: 2
#     Edge 13, Type (0, 0), BuildingBlock: FUNLAD_clean_linker_0, # of connection points: 2
#     Edge 14, Type (0, 0), BuildingBlock: FUNLAD_clean_linker_0, # of connection points: 2
#     Edge 15, Type (0, 0), BuildingBlock: FUNLAD_clean_linker_0, # of connection points: 2
#     Edge 16, Type (0, 0), BuildingBlock: FUNLAD_clean_linker_0, # of connection points: 2
#     Edge 17, Type (0, 0), BuildingBlock: FUNLAD_clean_linker_0, # of connection points: 2
#     Edge 18, Type (0, 0), BuildingBlock: FUNLAD_clean_linker_0, # of connection points: 2
#     Edge 19, Type (0, 0), BuildingBlock: FUNLAD_clean_linker_0, # of connection points: 2
#     Edge 20, Type (0, 0), BuildingBlock: FUNLAD_clean_linker_0, # of connection points: 2
#     Edge 21, Type (0, 0), BuildingBlock: FUNLAD_clean_linker_0, # of connection points: 2
#     Edge 22, Type (0, 0), BuildingBlock: FUNLAD_clean_linker_0, # of connection points: 2
#     Edge 23, Type (0, 0), BuildingBlock: FUNLAD_clean_linker_0, # of connection points: 2
# Relax obj value: 0.228
# Max RMSD: 0.227
# Mean RMSD: 0.227
data_MOF--net-sml--node1-GEDQOX_clean_sbu_0--edge1-FUNLAD_clean_linker_0
_symmetry_space_group_name_H-M    P1
_symmetry_Int_Tables_number       1
_symmetry_cell_setting            triclinic
loop_
_symmetry_equiv_pos_as_xyz
'x, y, z'
_cell_length_a     59.561062
_cell_length_b     59.437855
_cell_length_c     18.103309
_cell_angle_alpha  89.929723
_cell_angle_beta   90.093695
_cell_angle_gamma 119.97398
loop_
_atom_site_label
_atom_site_type_symbol
_atom_site_fract_x
_atom_site_fract_y
_atom_site_fract_z
_atom_type_partial_charge
Nd0 Nd 0.23032 0.41525 0.03607 0.0
Nd1 Nd 0.20459 0.45165 0.03972 0.0
C2 C 0.25636 0.39035 1.01715 0.0
C3 C 0.27265 0.38371 0.9703 0.0
C4 C 0.29804 0.39132 0.99283 0.0
C5 C 0.31223 0.38147 0.95759 0.0
C6 C 0.30128 0.36358 0.89921 0.0
C7 C 0.27628 0.35691 0.87447 0.0
C8 C 0.26212 0.36682 0.90961 0.0
C9 C 0.17854 0.39193 0.07281 0.0
C10 C 0.21398 0.4322 0.88059 0.0
C11 C 0.17269 0.47001 0.05651 0.0
C12 C 0.17433 0.49372 0.08798 0.0
C13 C 0.15399 0.49186 0.13148 0.0
C14 C 0.15528 0.51422 0.1614 0.0
C15 C 0.17689 0.53886 0.14781 0.0
C16 C 0.19737 0.54058 0.10489 0.0
C17 C 0.19616 0.51826 0.07556 0.0
C18 C 0.25801 0.48187 0.0286 0.0
C19 C 0.22537 0.43792 0.19368 0.0
O20 O 0.26671 0.41357 0.04673 0.0
O21 O 0.23183 0.38054 0.99996 0.0
O22 O 0.19451 0.38553 0.10176 0.0
O23 O 0.18971 0.40905 0.02384 0.0
O24 O 0.22942 0.4252 0.91358 0.0
O25 O 0.19946 0.43933 0.91803 0.0
O26 O 0.17399 0.45394 0.10366 0.0
O27 O 0.18583 0.4729 0.99573 0.0
O28 O 0.24269 0.49147 0.03242 0.0
O29 O 0.24459 0.45759 0.0328 0.0
O30 O 0.20893 0.44391 0.16226 0.0
O31 O 0.23903 0.43004 0.15511 0.0
H32 H 0.30655 0.40401 0.04004 0.0
H33 H 0.3313 0.38687 0.97866 0.0
H34 H 0.26739 0.34351 0.82893 0.0
H35 H 0.24256 0.36045 0.8909 0.0
H36 H 0.13703 0.47311 0.14204 0.0
H37 H 0.13916 0.51227 0.19393 0.0
H38 H 0.21447 0.55922 0.09442 0.0
H39 H 0.21231 0.52023 0.04307 0.0
Nd40 Nd 0.81864 0.22322 0.34934 0.0
Nd41 Nd 0.76068 0.19828 0.34682 0.0
C42 C 0.86983 0.25073 0.33429 0.0
C43 C 0.8933 0.26382 0.28702 0.0
C44 C 0.90803 0.29108 0.28571 0.0
C45 C 0.93254 0.3038 0.25252 0.0
C46 C 0.94304 0.28955 0.22027 0.0
C47 C 0.9278 0.26228 0.21888 0.0
C48 C 0.90327 0.24956 0.25196 0.0
C49 C 0.79232 0.171 0.38395 0.0
C50 C 0.78784 0.20281 0.19247 0.0
C51 C 0.70985 0.17142 0.36878 0.0
C52 C 0.69084 0.17589 0.40837 0.0
C53 C 0.66625 0.15498 0.42534 0.0
C54 C 0.64786 0.15925 0.46115 0.0
C55 C 0.65376 0.18457 0.4806 0.0
C56 C 0.67858 0.20543 0.46366 0.0
C57 C 0.69694 0.20112 0.42822 0.0
C58 C 0.78576 0.25052 0.31517 0.0
C59 C 0.79189 0.21815 0.50638 0.0
O60 O 0.85527 0.26131 0.34229 0.0
O61 O 0.85662 0.22535 0.33592 0.0
O62 O 0.81303 0.18813 0.41798 0.0
O63 O 0.78645 0.18134 0.33219 0.0
O64 O 0.8089 0.22115 0.22519 0.0
O65 O 0.76733 0.18681 0.23178 0.0
O66 O 0.72648 0.16868 0.40951 0.0
O67 O 0.72065 0.18613 0.31113 0.0
O68 O 0.7644 0.2334 0.2844 0.0
O69 O 0.79252 0.24027 0.36515 0.0
O70 O 0.76978 0.20284 0.47213 0.0
O71 O 0.81372 0.23134 0.46945 0.0
H72 H 0.9011 0.30262 0.31327 0.0
H73 H 0.94377 0.32479 0.25536 0.0
H74 H 0.93507 0.25068 0.19353 0.0
H75 H 0.89258 0.22853 0.25234 0.0
H76 H 0.66124 0.13535 0.41062 0.0
H77 H 0.62912 0.1427 0.47409 0.0
H78 H 0.68374 0.22523 0.47653 0.0
H79 H 0.71583 0.21754 0.41553 0.0
Nd80 Nd 0.59664 0.81302 0.6848 0.0
Nd81 Nd 0.56574 0.75388 0.68547 0.0
C82 C 0.61532 0.86367 0.66636 0.0
C83 C 0.63152 0.8876 0.6226 0.0
C84 C 0.62152 0.89367 0.56002 0.0
C85 C 0.63547 0.91807 0.52605 0.0
C86 C 0.6597 0.93707 0.55401 0.0
C87 C 0.67001 0.93062 0.61515 0.0
C88 C 0.65607 0.90627 0.64908 0.0
C89 C 0.62569 0.78919 0.70796 0.0
C90 C 0.58638 0.78132 0.52816 0.0
C91 C 0.54491 0.7033 0.70957 0.0
C92 C 0.52283 0.68353 0.75226 0.0
C93 C 0.51594 0.65733 0.74708 0.0
C94 C 0.49402 0.63822 0.78402 0.0
C95 C 0.47856 0.64499 0.82682 0.0
C96 C 0.48585 0.67142 0.83255 0.0
C97 C 0.50776 0.69049 0.7956 0.0
C98 C 0.53602 0.77681 0.66342 0.0
C99 C 0.57749 0.78576 0.84254 0.0
O100 O 0.59307 0.84584 0.63932 0.0
O101 O 0.62692 0.85397 0.7056 0.0
O102 O 0.6306 0.81081 0.73911 0.0
O103 O 0.6074 0.78197 0.66236 0.0
O104 O 0.59016 0.80285 0.5607 0.0
O105 O 0.58146 0.76055 0.56723 0.0
O106 O 0.56447 0.72099 0.74758 0.0
O107 O 0.53891 0.71306 0.65333 0.0
O108 O 0.53136 0.75515 0.63352 0.0
O109 O 0.5546 0.7847 0.70855 0.0
O110 O 0.57346 0.76428 0.80929 0.0
O111 O 0.58232 0.80659 0.80419 0.0
H112 H 0.60256 0.87989 0.53849 0.0
H113 H 0.62706 0.92218 0.47849 0.0
H114 H 0.6884 0.94479 0.63896 0.0
H115 H 0.66414 0.90243 0.69796 0.0
H116 H 0.52735 0.65162 0.71374 0.0
H117 H 0.48918 0.61813 0.77906 0.0
H118 H 0.47424 0.67736 0.86401 0.0
H119 H 0.51271 0.71064 0.79978 0.0
Nd120 Nd 0.79279 0.60227 0.0325 0.0
Nd121 Nd 0.81697 0.56456 0.03655 0.0
C122 C 0.7688 0.62926 1.01446 0.0
C123 C 0.75503 0.63892 0.96751 0.0
C124 C 0.73093 0.62228 0.93452 0.0
C125 C 0.71726 0.63254 0.89764 0.0
C126 C 0.72737 0.65962 0.89334 0.0
C127 C 0.75176 0.67608 0.92527 0.0
C128 C 0.76536 0.66586 0.96173 0.0
C129 C 0.84425 0.62421 0.07108 0.0
C130 C 0.80872 0.58499 0.87699 0.0
C131 C 0.84744 0.54447 0.0536 0.0
C132 C 0.84434 0.52077 0.08909 0.0
C133 C 0.8603 0.51074 0.06858 0.0
C134 C 0.85611 0.48713 0.09799 0.0
C135 C 0.83579 0.47309 0.14832 0.0
C136 C 0.8203 0.48368 0.17012 0.0
C137 C 0.82448 0.50722 0.1406 0.0
C138 C 0.76346 0.53556 0.02579 0.0
C139 C 0.79644 0.57856 0.1901 0.0
O140 O 0.75685 0.6049 0.03598 0.0
O141 O 0.79369 0.63891 1.00357 0.0
O142 O 0.82844 0.63073 0.10019 0.0
O143 O 0.83309 0.60744 1.02114 0.0
O144 O 0.79412 0.59305 0.90968 0.0
O145 O 0.82233 0.57674 0.91464 0.0
O146 O 0.84791 0.56216 0.0979 0.0
O147 O 0.83325 0.5407 0.9945 0.0
O148 O 0.77822 0.52534 0.02996 0.0
O149 O 0.77741 0.55979 0.02961 0.0
O150 O 0.81253 0.57205 0.15909 0.0
O151 O 0.78333 0.58707 0.15119 0.0
H152 H 0.72242 0.6014 0.93838 0.0
H153 H 0.69869 0.61925 0.87303 0.0
H154 H 0.76003 0.69696 0.9246 0.0
H155 H 0.78371 0.67912 0.98765 0.0
H156 H 0.87563 0.52087 0.02852 0.0
H157 H 0.8682 0.47944 0.07925 0.0
H158 H 0.80473 0.47363 0.2095 0.0
H159 H 0.81188 0.51461 0.15701 0.0
Nd160 Nd 0.20358 0.79015 0.35274 0.0
Nd161 Nd 0.26136 0.81208 0.33749 0.0
C162 C 0.15218 0.76507 0.34652 0.0
C163 C 0.12822 0.75234 0.30114 0.0
C164 C 0.11782 0.72664 0.27586 0.0
C165 C 0.09307 0.71353 0.24375 0.0
C166 C 0.07811 0.72574 0.23693 0.0
C167 C 0.08903 0.75177 0.25941 0.0
C168 C 0.11371 0.76485 0.29127 0.0
C169 C 0.23361 0.84272 0.37885 0.0
C170 C 0.23047 0.80632 0.18889 0.0
C171 C 0.31248 0.83771 0.35158 0.0
C172 C 0.3314 0.83467 0.39663 0.0
C173 C 0.35571 0.85624 0.41214 0.0
C174 C 0.37409 0.85329 0.45289 0.0
C175 C 0.36848 0.82864 0.47867 0.0
C176 C 0.34383 0.80716 0.4638 0.0
C177 C 0.32545 0.81017 0.4236 0.0
C178 C 0.23284 0.75995 0.3094 0.0
C179 C 0.23399 0.79529 0.50357 0.0
O180 O 0.16571 0.75341 0.3556 0.0
O181 O 0.16655 0.79037 0.34346 0.0
O182 O 0.21343 0.82735 0.41788 0.0
O183 O 0.23686 0.83051 0.3271 0.0
O184 O 0.20977 0.78986 0.22702 0.0
O185 O 0.25265 0.82179 0.22244 0.0
O186 O 0.29738 0.84412 0.38701 0.0
O187 O 0.30006 0.8198 0.30171 0.0
O188 O 0.25377 0.77581 0.27428 0.0
O189 O 0.2283 0.77123 0.3616 0.0
O190 O 0.25541 0.80816 0.46415 0.0
O191 O 0.21092 0.78368 0.47226 0.0
H192 H 0.12834 0.71631 0.28335 0.0
H193 H 0.08518 0.69344 0.22748 0.0
H194 H 0.07823 0.7619 0.25393 0.0
H195 H 0.12103 0.78453 0.31077 0.0
H196 H 0.36056 0.87534 0.39225 0.0
H197 H 0.39268 0.87032 0.46415 0.0
H198 H 0.33886 0.78781 0.4815 0.0
H199 H 0.30671 0.79327 0.41255 0.0
Nd200 Nd 0.42177 0.19904 0.69626 0.0
Nd201 Nd 0.45843 0.26119 0.70035 0.0
C202 C 0.39652 0.148 0.67904 0.0
C203 C 0.38753 0.12459 0.63234 0.0
C204 C 0.39187 0.10462 0.6564 0.0
C205 C 0.37938 0.08026 0.62208 0.0
C206 C 0.3621 0.07527 0.56308 0.0
C207 C 0.35889 0.09575 0.53644 0.0
C208 C 0.37146 0.12015 0.57067 0.0
C209 C 0.39884 0.22795 0.73209 0.0
C210 C 0.43888 0.23231 0.54061 0.0
C211 C 0.4769 0.31158 0.71654 0.0
C212 C 0.4994 0.33249 0.75516 0.0
C213 C 0.50621 0.35849 0.74437 0.0
C214 C 0.52805 0.37843 0.77967 0.0
C215 C 0.54341 0.37265 0.82647 0.0
C216 C 0.53634 0.34645 0.83715 0.0
C217 C 0.51457 0.32659 0.80182 0.0
C218 C 0.48831 0.23753 0.69304 0.0
C219 C 0.44457 0.22672 0.85413 0.0
O220 O 0.42081 0.16101 0.70041 0.0
O221 O 0.3861 0.16264 0.66841 0.0
O222 O 0.39244 0.20565 0.76169 0.0
O223 O 0.41593 0.23373 0.6832 0.0
O224 O 0.43091 0.20963 0.57345 0.0
O225 O 0.44693 0.25417 0.578 0.0
O226 O 0.45871 0.29402 0.75888 0.0
O227 O 0.4823 0.30152 0.65961 0.0
O228 O 0.49803 0.26247 0.6973 0.0
O229 O 0.46406 0.22682 0.6951 0.0
O230 O 0.45078 0.24927 0.82289 0.0
O231 O 0.43652 0.20513 0.81545 0.0
H232 H 0.40392 0.10743 0.70432 0.0
H233 H 0.38216 0.06493 0.64454 0.0
H234 H 0.34605 0.09271 0.49038 0.0
H235 H 0.3677 0.13514 0.55074 0.0
H236 H 0.49471 0.36338 0.70843 0.0
H237 H 0.5328 0.39835 0.77071 0.0
H238 H 0.54793 0.34129 0.87171 0.0
H239 H 0.50968 0.3066 0.81038 0.0
C240 C 0.39406 0.26746 0.71647 0.0
C241 C 0.38696 0.24383 0.75224 0.0
C242 C 0.38203 0.28186 0.73498 0.0
C243 C 0.36267 0.27287 0.78991 0.0
C244 C 0.3558 0.24928 0.82552 0.0
C245 C 0.36783 0.23501 0.80719 0.0
C246 C 0.34831 0.28661 0.81015 0.0
C247 C 0.35645 0.31183 0.7956 0.0
C248 C 0.34173 0.32489 0.81907 0.0
C249 C 0.35517 0.35181 0.83175 0.0
C250 C 0.34208 0.3645 0.85641 0.0
C251 C 0.31512 0.35061 0.86805 0.0
H252 H 0.30337 0.29054 0.81702 0.0
C253 C 0.30156 0.32381 0.85287 0.0
C254 C 0.31464 0.31112 0.82852 0.0
H255 H 0.28083 0.31241 0.86155 0.0
H256 H 0.40869 0.27467 0.67359 0.0
H257 H 0.38758 0.29961 0.70495 0.0
H258 H 0.34094 0.24175 0.86778 0.0
H259 H 0.36192 0.21687 0.83578 0.0
H260 H 0.33064 0.27549 0.84179 0.0
H261 H 0.37518 0.32383 0.76979 0.0
H262 H 0.37597 0.36302 0.82396 0.0
H263 H 0.35311 0.38522 0.86651 0.0
C264 C 0.13433 0.38714 0.05785 0.0
C265 C 0.15087 0.38008 0.09358 0.0
C266 C 0.10801 0.37527 0.07704 0.0
C267 C 0.09768 0.35603 0.13261 0.0
C268 C 0.11451 0.3494 0.16867 0.0
C269 C 0.14069 0.36121 0.14942 0.0
C270 C 0.06979 0.34221 0.15552 0.0
C271 C 0.05064 0.34441 0.12226 0.0
C272 C 0.02298 0.32972 0.14685 0.0
C273 C 1.00656 0.33975 0.13101 0.0
C274 C 0.98061 0.32667 0.1539 0.0
C275 C 0.9703 0.303 0.19248 0.0
H276 H 0.02411 0.29677 0.19523 0.0
C277 C 0.98657 0.29263 0.20667 0.0
C278 C 0.01251 0.30573 0.18401 0.0
H279 H 0.97942 0.27455 0.23664 0.0
H280 H 0.14171 0.40176 1.01479 0.0
H281 H 0.0961 0.38139 0.04809 0.0
H282 H 0.10734 0.33481 0.21181 0.0
H283 H 0.15296 0.35541 0.17821 0.0
H284 H 0.06493 0.32946 0.20304 0.0
H285 H 0.05509 0.35778 0.07661 0.0
H286 H 0.01391 0.35797 0.10158 0.0
H287 H 0.96858 0.33508 0.1411 0.0
C288 C 0.75547 0.12547 0.36417 0.0
C289 C 0.77797 0.14299 0.40286 0.0
C290 C 0.74209 0.09898 0.38272 0.0
C291 C 0.75092 0.0895 0.44078 0.0
C292 C 0.77352 0.10716 0.47887 0.0
C293 C 0.78681 0.13354 0.46042 0.0
C294 C 0.73779 0.06149 0.46261 0.0
C295 C 0.71307 0.04372 0.44541 0.0
C296 C 0.69999 0.0161 0.47105 0.0
C297 C 0.6728 1.00201 0.47505 0.0
C298 C 0.65976 0.97633 0.50064 0.0
C299 C 0.67356 0.96391 0.52239 0.0
H300 H 0.73469 0.01317 0.48603 0.0
C301 C 0.70076 0.97776 0.51634 0.0
C302 C 0.71381 1.00346 0.49079 0.0
H303 H 0.71202 0.96868 0.53104 0.0
H304 H 0.74826 0.1322 0.31933 0.0
H305 H 0.72517 0.0861 0.35057 0.0
H306 H 0.78093 0.10054 0.52351 0.0
H307 H 0.80409 0.14654 0.4913 0.0
H308 H 0.74878 0.05571 0.49792 0.0
H309 H 0.70125 0.04981 0.41528 0.0
H310 H 0.66156 0.01107 0.45976 0.0
H311 H 0.63885 0.96646 0.5052 0.0
C312 C 0.63069 0.7498 0.69646 0.0
C313 C 0.6395 0.77486 0.72472 0.0
C314 C 0.64353 0.73612 0.71418 0.0
C315 C 0.66555 0.74736 0.76025 0.0
C316 C 0.67449 0.77257 0.78736 0.0
C317 C 0.6615 0.78608 0.77038 0.0
C318 C 0.68027 0.73393 0.77952 0.0
C319 C 0.6697 0.70787 0.7823 0.0
C320 C 0.6846 0.69506 0.80625 0.0
C321 C 0.67162 0.67091 0.84223 0.0
C322 C 0.68531 0.65905 0.86882 0.0
C323 C 0.71231 0.67091 0.85912 0.0
H324 H 0.72195 0.72456 0.76392 0.0
C325 C 0.72505 0.69451 0.81988 0.0
C326 C 0.71141 0.70645 0.7939 0.0
H327 H 0.74568 0.70391 0.80944 0.0
H328 H 0.6138 0.7407 0.66091 0.0
H329 H 0.63641 0.717 0.69071 0.0
H330 H 0.69148 0.78181 0.8225 0.0
H331 H 0.66877 0.80538 0.79288 0.0
H332 H 0.70028 0.74615 0.79678 0.0
H333 H 0.64908 0.6955 0.77216 0.0
H334 H 0.65093 0.66155 0.85187 0.0
H335 H 0.6748 0.64101 0.89915 0.0
C336 C 0.0315 0.71396 0.248 0.0
C337 C 0.05067 0.71108 0.21111 0.0
C338 C 1.00564 0.7002 0.2252 0.0
C339 C 0.99818 0.68332 0.16403 0.0
C340 C 0.01726 0.68005 0.12798 0.0
C341 C 0.04321 0.69377 0.15114 0.0
C342 C 0.97066 0.6683 0.1382 0.0
C343 C 0.95309 0.67581 0.15197 0.0
C344 C 0.92515 0.66117 0.13036 0.0
C345 C 0.90834 0.6682 0.16419 0.0
C346 C 0.88212 0.65587 0.14539 0.0
C347 C 0.87195 0.63626 0.09163 0.0
H348 H 0.92716 0.63547 0.0483 0.0
C349 C 0.88854 0.62896 0.05762 0.0
C350 C 0.91493 0.64128 0.07676 0.0
H351 H 0.88119 0.61392 1.01579 0.0
H352 H 0.0364 0.7265 0.2958 0.0
H353 H 0.99159 0.70252 0.25702 0.0
H354 H 0.01212 0.66699 0.08131 0.0
H355 H 0.05747 0.69106 0.12155 0.0
H356 H 0.96504 0.65075 0.10674 0.0
H357 H 0.95925 0.69379 0.1818 0.0
H358 H 0.91552 0.6834 0.20555 0.0
H359 H 0.86985 0.66195 0.17267 0.0
C360 C 0.35629 0.03183 0.52433 0.0
C361 C 0.34591 0.04833 0.53392 0.0
C362 C 0.34042 1.0059 0.50259 0.0
C363 C 0.31373 0.99587 0.48999 0.0
C364 C 0.3035 0.01247 0.49882 0.0
C365 C 0.31936 0.03836 0.5201 0.0
C366 C 0.29561 0.96797 0.47221 0.0
C367 C 0.30294 0.95196 0.44154 0.0
C368 C 0.28448 0.92401 0.42546 0.0
C369 C 0.29034 0.91162 0.36884 0.0
C370 C 0.27369 0.88531 0.35305 0.0
C371 C 0.25096 0.87068 0.39437 0.0
H372 H 0.25689 0.9178 0.51267 0.0
C373 C 0.24519 0.8829 0.45164 0.0
C374 C 0.26174 0.90926 0.46708 0.0
H375 H 0.22794 0.87204 0.48489 0.0
H376 H 0.37666 0.03887 0.53441 0.0
H377 H 0.34903 0.99369 0.49809 0.0
H378 H 0.28302 1.0053 0.49018 0.0
H379 H 0.31056 0.05031 0.52821 0.0
H380 H 0.27517 0.96066 0.48274 0.0
H381 H 0.32293 0.9597 0.42447 0.0
H382 H 0.30782 0.92238 0.33638 0.0
H383 H 0.27872 0.87637 0.30883 0.0
C384 C 0.22888 0.42565 0.75669 0.0
C385 C 0.21326 0.43243 0.79854 0.0
C386 C 0.22869 0.42647 0.67941 0.0
C387 C 0.21291 0.43422 0.642 0.0
C388 C 0.197 0.44056 0.68389 0.0
C389 C 0.19723 0.43979 0.7611 0.0
C390 C 0.2118 0.43526 0.5598 0.0
C391 C 0.23059 0.43714 0.51421 0.0
C392 C 0.22924 0.43809 0.43203 0.0
C393 C 0.24439 0.43098 0.38935 0.0
C394 C 0.24346 0.43124 0.3121 0.0
C395 C 0.22746 0.43884 0.27554 0.0
H396 H 0.20247 0.45294 0.42575 0.0
C397 C 0.21281 0.44662 0.31822 0.0
C398 C 0.21373 0.44635 0.39541 0.0
H399 H 0.20046 0.45286 0.2921 0.0
H400 H 0.24134 0.41969 0.78353 0.0
H401 H 0.24064 0.42059 0.64966 0.0
H402 H 0.18446 0.44637 0.65676 0.0
H403 H 0.18487 0.44508 0.79133 0.0
H404 H 0.19473 0.4347 0.53652 0.0
H405 H 0.24763 0.43759 0.53726 0.0
H406 H 0.25674 0.42482 0.41587 0.0
H407 H 0.25509 0.4252 0.28117 0.0
C408 C 0.80842 0.21852 0.0681 0.0
C409 C 0.7868 0.20131 0.11052 0.0
C410 C 0.80705 0.21836 0.9909 0.0
C411 C 0.78391 0.20107 0.95403 0.0
C412 C 0.76257 0.18338 0.99645 0.0
C413 C 0.76394 0.18354 0.0737 0.0
C414 C 0.78134 0.20042 0.87183 0.0
C415 C 0.79686 0.22042 0.8271 0.0
C416 C 0.7946 0.2197 0.74492 0.0
C417 C 0.81645 0.23666 0.70311 0.0
C418 C 0.81547 0.23646 0.6259 0.0
C419 C 0.79244 0.21948 0.58837 0.0
H420 H 0.75379 0.19034 0.73739 0.0
C421 C 0.7703 0.20302 0.63014 0.0
C422 C 0.77134 0.20311 0.70748 0.0
H423 H 0.75218 0.18978 0.60314 0.0
H424 H 0.82644 0.23233 0.0945 0.0
H425 H 0.82431 0.23169 0.96079 0.0
H426 H 0.74458 0.16962 0.96977 0.0
H427 H 0.74692 0.16996 0.1045 0.0
H428 H 0.76578 0.18275 0.84784 0.0
H429 H 0.81242 0.23812 0.85089 0.0
H430 H 0.83456 0.24986 0.73028 0.0
H431 H 0.83288 0.2495 0.59569 0.0
C432 C 0.592 0.80227 0.40398 0.0
C433 C 0.58727 0.78047 0.44635 0.0
C434 C 0.59148 0.80115 0.32679 0.0
C435 C 0.58603 0.7781 0.28999 0.0
C436 C 0.58202 0.75659 0.33238 0.0
C437 C 0.58251 0.75769 0.40961 0.0
C438 C 0.58489 0.77584 0.20788 0.0
C439 C 0.57997 0.79101 0.1629 0.0
C440 C 0.57879 0.78882 0.08079 0.0
C441 C 0.58254 0.81031 0.03877 0.0
C442 C 0.58183 0.80927 0.96156 0.0
C443 C 0.57709 0.78655 0.92442 0.0
H444 H 0.56954 0.74853 0.07359 0.0
C445 C 0.5727 0.7648 0.9664 0.0
C446 C 0.57347 0.76586 0.04363 0.0
H447 H 0.56876 0.74689 0.93968 0.0
H448 H 0.59598 0.82024 0.43036 0.0
H449 H 0.59565 0.81851 0.29658 0.0
H450 H 0.57808 0.73867 0.30565 0.0
H451 H 0.57886 0.74055 0.44041 0.0
H452 H 0.58784 0.76074 0.18431 0.0
H453 H 0.57698 0.80608 0.18654 0.0
H454 H 0.5864 0.82816 0.06576 0.0
H455 H 0.58522 0.82638 0.93109 0.0
C456 C 0.79439 0.59226 0.75284 0.0
C457 C 0.80942 0.58472 0.79493 0.0
C458 C 0.7944 0.59124 0.67557 0.0
C459 C 0.8094 0.58253 0.63839 0.0
C460 C 0.82476 0.57547 0.6805 0.0
C461 C 0.82471 0.57644 0.75771 0.0
C462 C 0.81023 0.58117 0.5562 0.0
C463 C 0.79167 0.57994 0.51061 0.0
C464 C 0.79277 0.57869 0.42845 0.0
C465 C 0.77822 0.58656 0.38554 0.0
C466 C 0.77902 0.58615 0.30829 0.0
C467 C 0.79427 0.57762 0.27196 0.0
H468 H 0.81819 0.56226 0.42259 0.0
C469 C 0.80824 0.56902 0.31487 0.0
C470 C 0.80746 0.56945 0.39206 0.0
H471 H 0.81999 0.56204 0.28893 0.0
H472 H 0.7825 0.59893 0.77948 0.0
H473 H 0.78291 0.59768 0.64563 0.0
H474 H 0.83671 0.56892 0.65356 0.0
H475 H 0.8366 0.57055 0.78811 0.0
H476 H 0.82688 0.58092 0.53292 0.0
H477 H 0.77505 0.5803 0.53365 0.0
H478 H 0.76648 0.59348 0.41189 0.0
H479 H 0.76792 0.59283 0.27718 0.0
C480 C 0.21344 0.78328 0.62926 0.0
C481 C 0.23591 0.79531 0.58541 0.0
C482 C 0.21514 0.78504 0.70638 0.0
C483 C 0.23941 0.79907 0.74163 0.0
C484 C 0.26187 0.8103 0.69781 0.0
C485 C 0.26017 0.80855 0.62071 0.0
C486 C 0.24223 0.80212 0.82355 0.0
C487 C 0.22315 0.79956 0.86905 0.0
C488 C 0.22583 0.80235 0.95091 0.0
C489 C 0.20336 0.78984 0.99435 0.0
C490 C 0.20485 0.79151 0.07138 0.0
C491 C 0.2289 0.8061 0.10704 0.0
H492 H 0.2676 0.82812 0.95502 0.0
C493 C 0.25137 0.81932 0.06364 0.0
C494 C 0.24989 0.81747 0.98642 0.0
H495 H 0.2702 0.8308 0.08929 0.0
H496 H 0.19443 0.77271 0.60408 0.0
H497 H 0.19735 0.77521 0.73772 0.0
H498 H 0.28084 0.82093 0.72325 0.0
H499 H 0.27791 0.81798 0.58884 0.0
H500 H 0.26097 0.80704 0.84664 0.0
H501 H 0.20439 0.79463 0.84624 0.0
H502 H 0.18454 0.7783 0.96863 0.0
H503 H 0.18711 0.78115 0.10294 0.0
C504 C 0.43164 0.21072 0.41661 0.0
C505 C 0.43909 0.23328 0.4586 0.0
C506 C 0.43249 0.21176 0.33935 0.0
C507 C 0.44095 0.23548 0.30214 0.0
C508 C 0.44793 0.25788 0.34415 0.0
C509 C 0.44714 0.25686 0.42133 0.0
C510 C 0.44208 0.23767 0.22 0.0
C511 C 0.44361 0.22051 0.17447 0.0
C512 C 0.44469 0.22288 0.09235 0.0
C513 C 0.43709 0.2005 0.04955 0.0
C514 C 0.43739 0.20174 0.97232 0.0
C515 C 0.44551 0.22549 0.93595 0.0
H516 H 0.46047 0.26469 0.0864 0.0
C517 C 0.45381 0.24803 0.97875 0.0
C518 C 0.4535 0.24679 0.05592 0.0
H519 H 0.46047 0.26673 0.95274 0.0
H520 H 0.42514 0.19216 0.44332 0.0
H521 H 0.42611 0.19384 0.30942 0.0
H522 H 0.45429 0.27638 0.31715 0.0
H523 H 0.45295 0.27463 0.45167 0.0
H524 H 0.44193 0.25443 0.19675 0.0
H525 H 0.44366 0.20368 0.19754 0.0
H526 H 0.43051 0.18187 0.07595 0.0
H527 H 0.43095 0.18399 0.94127 0.0
C528 C 0.18685 0.58484 0.13187 0.0
C529 C 0.17808 0.56282 0.17712 0.0
C530 C 0.1889 0.60774 0.15935 0.0
C531 C 0.1821 0.60922 0.23297 0.0
C532 C 0.17335 0.5872 0.27829 0.0
C533 C 0.17111 0.56415 0.25051 0.0
C534 C 0.18596 0.63404 0.26488 0.0
C535 C 0.18519 0.65246 0.22323 0.0
C536 C 0.19457 0.67954 0.24834 0.0
C537 C 0.20518 0.69925 0.19493 0.0
C538 C 0.21677 0.72527 0.21542 0.0
C539 C 0.21743 0.73225 0.28967 0.0
H540 H 0.18566 0.67166 0.36516 0.0
C541 C 0.2054 0.71266 0.34315 0.0
C542 C 0.19424 0.6864 0.32276 0.0
H543 H 0.20566 0.71766 0.40079 0.0
H544 H 0.19226 0.58442 0.075 0.0
H545 H 0.19661 0.62445 0.12314 0.0
H546 H 0.16836 0.58788 0.33545 0.0
H547 H 0.16456 0.54759 0.28701 0.0
H548 H 0.19081 0.63757 0.32313 0.0
H549 H 0.17984 0.64842 0.16537 0.0
H550 H 0.20551 0.69458 0.13723 0.0
H551 H 0.22572 0.74004 0.17305 0.0
C552 C 0.60783 0.17551 0.49708 0.0
C553 C 0.63417 0.18941 0.51755 0.0
C554 C 0.58983 0.1813 0.52886 0.0
C555 C 0.59782 0.20115 0.58195 0.0
C556 C 0.624 0.21462 0.60328 0.0
C557 C 0.64188 0.20874 0.572 0.0
C558 C 0.58025 0.20995 0.61232 0.0
C559 C 0.55413 0.19525 0.61568 0.0
C560 C 0.53693 0.20518 0.64287 0.0
C561 C 0.51016 0.19094 0.62749 0.0
C562 C 0.49378 0.20064 0.64696 0.0
C563 C 0.50397 0.22489 0.68175 0.0
H564 H 0.56662 0.23996 0.69871 0.0
C565 C 0.53035 0.23852 0.70033 0.0
C566 C 0.54657 0.2287 0.68213 0.0
H567 H 0.53862 0.25711 0.72818 0.0
H568 H 0.60122 0.16075 0.45458 0.0
H569 H 0.57 0.17087 0.5095 0.0
H570 H 0.63075 0.23 0.64399 0.0
H571 H 0.66185 0.21954 0.59032 0.0
H572 H 0.5898 0.22979 0.63207 0.0
H573 H 0.54478 0.17537 0.59584 0.0
H574 H 0.502 0.17261 0.5983 0.0
H575 H 0.47347 0.18977 0.63193 0.0
C576 C 0.29818 0.52466 1.01543 0.0
C577 C 0.2861 0.49747 1.01362 0.0
C578 C 0.3241 0.54007 0.99494 0.0
C579 C 0.33872 0.52863 0.97229 0.0
C580 C 0.32668 0.50135 0.97135 0.0
C581 C 0.30064 0.48588 0.9923 0.0
C582 C 0.36573 0.54466 0.94398 0.0
C583 C 0.3814 0.56971 0.9635 0.0
C584 C 0.40722 0.58733 0.92978 0.0
C585 C 0.42416 0.61056 0.96653 0.0
C586 C 0.44753 0.62891 0.93409 0.0
C587 C 0.45452 0.62462 0.86357 0.0
H588 H 0.40171 0.5655 0.82851 0.0
C589 C 0.43782 0.60114 0.82726 0.0
C590 C 0.41443 0.58274 0.8598 0.0
H591 H 0.44236 0.59736 0.77237 0.0
H592 H 0.28738 0.53414 0.03099 0.0
H593 H 0.3322 0.56091 0.99423 0.0
H594 H 0.33735 0.49198 0.95338 0.0
H595 H 0.29171 0.46494 0.98964 0.0
H596 H 0.37273 0.5354 0.90608 0.0
H597 H 0.37512 0.57799 1.00666 0.0
H598 H 0.41914 0.61473 1.0203 0.0
H599 H 0.46004 0.64657 0.96417 0.0
C600 C 0.78796 0.28678 0.24139 0.0
C601 C 0.79733 0.27866 0.3009 0.0
C602 C 0.79725 0.31309 0.22831 0.0
C603 C 0.81601 0.33209 0.27505 0.0
C604 C 0.82624 0.32406 0.33286 0.0
C605 C 0.81692 0.29752 0.34591 0.0
C606 C 0.82522 0.36025 0.26345 0.0
C607 C 0.80971 0.36851 0.23422 0.0
C608 C 0.8175 0.39604 0.21753 0.0
C609 C 0.79784 0.40176 0.20092 0.0
C610 C 0.80382 0.42675 0.17988 0.0
C611 C 0.82972 0.44684 0.17458 0.0
H612 H 0.8593 0.41259 0.22411 0.0
C613 C 0.84951 0.44129 0.19189 0.0
C614 C 0.8435 0.41617 0.21311 0.0
H615 H 0.86968 0.45634 0.18876 0.0
H616 H 0.77324 0.27272 0.20476 0.0
H617 H 0.78971 0.31841 0.18113 0.0
H618 H 0.84103 0.33829 0.36896 0.0
H619 H 0.82466 0.29179 0.39177 0.0
H620 H 0.84464 0.37419 0.28185 0.0
H621 H 0.78963 0.35421 0.22266 0.0
H622 H 0.77764 0.38669 0.20309 0.0
H623 H 0.78806 0.43009 0.16568 0.0
C624 C 0.41465 0.83883 0.49677 0.0
C625 C 0.38843 0.82499 0.5183 0.0
C626 C 0.43288 0.83351 0.52906 0.0
C627 C 0.42527 0.81413 0.58349 0.0
C628 C 0.39933 0.80095 0.60669 0.0
C629 C 0.38119 0.80645 0.57508 0.0
C630 C 0.44294 0.80503 0.61064 0.0
C631 C 0.469 0.81977 0.61208 0.0
C632 C 0.48578 0.80846 0.62871 0.0
C633 C 0.5095 0.82319 0.66584 0.0
C634 C 0.5258 0.81285 0.67912 0.0
C635 C 0.51886 0.78789 0.6536 0.0
H636 H 0.46117 0.77184 0.57303 0.0
C637 C 0.49529 0.77336 0.61585 0.0
C638 C 0.47891 0.78345 0.60379 0.0
H639 H 0.48948 0.75412 0.59508 0.0
H640 H 0.42092 0.85296 0.45253 0.0
H641 H 0.45256 0.84363 0.50844 0.0
H642 H 0.39293 0.7859 0.6484 0.0
H643 H 0.36134 0.79578 0.59431 0.0
H644 H 0.43396 0.78499 0.62933 0.0
H645 H 0.47828 0.84044 0.60064 0.0
H646 H 0.51537 0.84264 0.68481 0.0
H647 H 0.54393 0.82449 0.70813 0.0
C648 C 0.72252 0.49338 1.016 0.0
C649 C 0.73532 0.52057 1.01114 0.0
C650 C 0.69657 0.47837 0.99539 0.0
C651 C 0.68266 0.4902 0.96948 0.0
C652 C 0.6954 0.51748 0.96555 0.0
C653 C 0.72148 0.53258 0.98674 0.0
C654 C 0.65569 0.4744 0.94069 0.0
C655 C 0.63941 0.44989 0.96356 0.0
C656 C 0.61377 0.432 0.92936 0.0
C657 C 0.59637 0.40954 0.9684 0.0
C658 C 0.57327 0.39071 0.93584 0.0
C659 C 0.56702 0.39374 0.86297 0.0
H660 H 0.62031 0.45206 0.82417 0.0
C661 C 0.58407 0.41653 0.82438 0.0
C662 C 0.60723 0.43543 0.85703 0.0
H663 H 0.58005 0.41933 0.76781 0.0
H664 H 0.73279 0.48358 0.034 0.0
H665 H 0.6879 0.45746 0.99703 0.0
H666 H 0.68528 0.52712 0.945 0.0
H667 H 0.731 0.55351 0.98163 0.0
H668 H 0.64932 0.48328 0.89945 0.0
H669 H 0.64515 0.4422 1.00976 0.0
H670 H 0.60086 0.40629 0.02404 0.0
H671 H 0.56042 0.37361 0.96764 0.0
loop_
_geom_bond_atom_site_label_1
_geom_bond_atom_site_label_2
_geom_bond_distance
_geom_bond_site_symmetry_2
_ccdc_geom_bond_type
Nd0 C2 2.836 1_554 S
Nd0 O20 2.500 1_554 S
Nd0 O21 2.492 1_554 S
Nd0 O22 2.487 . S
Nd0 O23 2.682 . S
Nd0 O24 2.410 1_554 S
Nd0 O29 2.414 1_554 S
Nd0 O31 2.424 . S
Nd1 C11 2.836 1_556 S
Nd1 O23 2.414 1_556 S
Nd1 O25 2.424 . S
Nd1 O26 2.500 1_556 S
Nd1 O27 2.492 1_556 S
Nd1 O28 2.487 . S
Nd1 O29 2.682 . S
Nd1 O30 2.410 1_556 S
C2 Nd0 2.836 1_556 S
C2 C3 1.498 . S
C2 O20 1.258 . S
C2 O21 1.239 . S
C3 C2 1.498 . S
C3 C4 1.366 . S
C3 C8 1.407 . S
C4 C3 1.366 . S
C4 C5 1.392 . S
C4 H32 0.930 . S
C5 C4 1.392 . S
C5 C6 1.398 . S
C5 H33 0.929 . S
C6 C5 1.398 . S
C6 C7 1.352 . S
C7 C6 1.352 . S
C7 C8 1.384 . S
C7 H34 0.930 . S
C8 C3 1.407 . S
C8 C7 1.384 . S
C8 H35 0.929 . S
C9 O22 1.241 . S
C9 O23 1.273 . S
C10 O24 1.251 . S
C10 O25 1.268 . S
C11 Nd1 2.836 1_554 S
C11 C12 1.498 . S
C11 O26 1.258 . S
C11 O27 1.239 . S
C12 C11 1.498 . S
C12 C13 1.366 . S
C12 C17 1.407 . S
C13 C12 1.366 . S
C13 C14 1.392 . S
C13 H36 0.930 . S
C14 C13 1.392 . S
C14 C15 1.398 . S
C14 H37 0.929 . S
C15 C14 1.398 . S
C15 C16 1.352 . S
C16 C15 1.352 . S
C16 C17 1.384 . S
C16 H38 0.930 . S
C17 C12 1.407 . S
C17 C16 1.384 . S
C17 H39 0.929 . S
C18 O28 1.241 . S
C18 O29 1.273 . S
C19 O30 1.251 . S
C19 O31 1.268 . S
O20 Nd0 2.500 1_556 S
O20 C2 1.258 . S
O21 Nd0 2.492 1_556 S
O21 C2 1.239 . S
O22 Nd0 2.487 . S
O22 C9 1.241 . S
O23 Nd0 2.682 . S
O23 Nd1 2.414 1_554 S
O23 C9 1.273 . S
O24 Nd0 2.410 1_556 S
O24 C10 1.251 . S
O25 Nd1 2.424 . S
O25 C10 1.268 . S
O26 Nd1 2.500 1_554 S
O26 C11 1.258 . S
O27 Nd1 2.492 1_554 S
O27 C11 1.239 . S
O28 Nd1 2.487 . S
O28 C18 1.241 . S
O29 Nd0 2.414 1_556 S
O29 Nd1 2.682 . S
O29 C18 1.273 . S
O30 Nd1 2.410 1_554 S
O30 C19 1.251 . S
O31 Nd0 2.424 . S
O31 C19 1.268 . S
H32 C4 0.930 . S
H33 C5 0.929 . S
H34 C7 0.930 . S
H35 C8 0.929 . S
H36 C13 0.930 . S
H37 C14 0.929 . S
H38 C16 0.930 . S
H39 C17 0.929 . S
Nd40 C42 2.836 . S
Nd40 O60 2.500 . S
Nd40 O61 2.492 . S
Nd40 O62 2.487 . S
Nd40 O63 2.682 . S
Nd40 O64 2.410 . S
Nd40 O69 2.414 . S
Nd40 O71 2.424 . S
Nd41 C51 2.836 . S
Nd41 O63 2.414 . S
Nd41 O65 2.424 . S
Nd41 O66 2.500 . S
Nd41 O67 2.492 . S
Nd41 O68 2.487 . S
Nd41 O69 2.682 . S
Nd41 O70 2.410 . S
C42 Nd40 2.836 . S
C42 C43 1.498 . S
C42 O60 1.258 . S
C42 O61 1.239 . S
C43 C42 1.498 . S
C43 C44 1.366 . S
C43 C48 1.407 . S
C44 C43 1.366 . S
C44 C45 1.392 . S
C44 H72 0.930 . S
C45 C44 1.392 . S
C45 C46 1.398 . S
C45 H73 0.929 . S
C46 C45 1.398 . S
C46 C47 1.352 . S
C47 C46 1.352 . S
C47 C48 1.384 . S
C47 H74 0.930 . S
C48 C43 1.407 . S
C48 C47 1.384 . S
C48 H75 0.929 . S
C49 O62 1.241 . S
C49 O63 1.273 . S
C50 O64 1.251 . S
C50 O65 1.268 . S
C51 Nd41 2.836 . S
C51 C52 1.498 . S
C51 O66 1.258 . S
C51 O67 1.239 . S
C52 C51 1.498 . S
C52 C53 1.366 . S
C52 C57 1.407 . S
C53 C52 1.366 . S
C53 C54 1.392 . S
C53 H76 0.930 . S
C54 C53 1.392 . S
C54 C55 1.398 . S
C54 H77 0.929 . S
C55 C54 1.398 . S
C55 C56 1.352 . S
C56 C55 1.352 . S
C56 C57 1.384 . S
C56 H78 0.930 . S
C57 C52 1.407 . S
C57 C56 1.384 . S
C57 H79 0.929 . S
C58 O68 1.241 . S
C58 O69 1.273 . S
C59 O70 1.251 . S
C59 O71 1.268 . S
O60 Nd40 2.500 . S
O60 C42 1.258 . S
O61 Nd40 2.492 . S
O61 C42 1.239 . S
O62 Nd40 2.487 . S
O62 C49 1.241 . S
O63 Nd40 2.682 . S
O63 Nd41 2.414 . S
O63 C49 1.273 . S
O64 Nd40 2.410 . S
O64 C50 1.251 . S
O65 Nd41 2.424 . S
O65 C50 1.268 . S
O66 Nd41 2.500 . S
O66 C51 1.258 . S
O67 Nd41 2.492 . S
O67 C51 1.239 . S
O68 Nd41 2.487 . S
O68 C58 1.241 . S
O69 Nd40 2.414 . S
O69 Nd41 2.682 . S
O69 C58 1.273 . S
O70 Nd41 2.410 . S
O70 C59 1.251 . S
O71 Nd40 2.424 . S
O71 C59 1.268 . S
H72 C44 0.930 . S
H73 C45 0.929 . S
H74 C47 0.930 . S
H75 C48 0.929 . S
H76 C53 0.930 . S
H77 C54 0.929 . S
H78 C56 0.930 . S
H79 C57 0.929 . S
Nd80 C82 2.836 . S
Nd80 O100 2.500 . S
Nd80 O101 2.492 . S
Nd80 O102 2.487 . S
Nd80 O103 2.682 . S
Nd80 O104 2.410 . S
Nd80 O109 2.414 . S
Nd80 O111 2.424 . S
Nd81 C91 2.836 . S
Nd81 O103 2.414 . S
Nd81 O105 2.424 . S
Nd81 O106 2.500 . S
Nd81 O107 2.492 . S
Nd81 O108 2.487 . S
Nd81 O109 2.682 . S
Nd81 O110 2.410 . S
C82 Nd80 2.836 . S
C82 C83 1.498 . S
C82 O100 1.258 . S
C82 O101 1.239 . S
C83 C82 1.498 . S
C83 C84 1.366 . S
C83 C88 1.407 . S
C84 C83 1.366 . S
C84 C85 1.392 . S
C84 H112 0.930 . S
C85 C84 1.392 . S
C85 C86 1.398 . S
C85 H113 0.929 . S
C86 C85 1.398 . S
C86 C87 1.352 . S
C87 C86 1.352 . S
C87 C88 1.384 . S
C87 H114 0.930 . S
C88 C83 1.407 . S
C88 C87 1.384 . S
C88 H115 0.929 . S
C89 O102 1.241 . S
C89 O103 1.273 . S
C90 O104 1.251 . S
C90 O105 1.268 . S
C91 Nd81 2.836 . S
C91 C92 1.498 . S
C91 O106 1.258 . S
C91 O107 1.239 . S
C92 C91 1.498 . S
C92 C93 1.366 . S
C92 C97 1.407 . S
C93 C92 1.366 . S
C93 C94 1.392 . S
C93 H116 0.930 . S
C94 C93 1.392 . S
C94 C95 1.398 . S
C94 H117 0.929 . S
C95 C94 1.398 . S
C95 C96 1.352 . S
C96 C95 1.352 . S
C96 C97 1.384 . S
C96 H118 0.930 . S
C97 C92 1.407 . S
C97 C96 1.384 . S
C97 H119 0.929 . S
C98 O108 1.241 . S
C98 O109 1.273 . S
C99 O110 1.251 . S
C99 O111 1.268 . S
O100 Nd80 2.500 . S
O100 C82 1.258 . S
O101 Nd80 2.492 . S
O101 C82 1.239 . S
O102 Nd80 2.487 . S
O102 C89 1.241 . S
O103 Nd80 2.682 . S
O103 Nd81 2.414 . S
O103 C89 1.273 . S
O104 Nd80 2.410 . S
O104 C90 1.251 . S
O105 Nd81 2.424 . S
O105 C90 1.268 . S
O106 Nd81 2.500 . S
O106 C91 1.258 . S
O107 Nd81 2.492 . S
O107 C91 1.239 . S
O108 Nd81 2.487 . S
O108 C98 1.241 . S
O109 Nd80 2.414 . S
O109 Nd81 2.682 . S
O109 C98 1.273 . S
O110 Nd81 2.410 . S
O110 C99 1.251 . S
O111 Nd80 2.424 . S
O111 C99 1.268 . S
H112 C84 0.930 . S
H113 C85 0.929 . S
H114 C87 0.930 . S
H115 C88 0.929 . S
H116 C93 0.930 . S
H117 C94 0.929 . S
H118 C96 0.930 . S
H119 C97 0.929 . S
Nd120 C122 2.836 1_554 S
Nd120 O140 2.500 1_554 S
Nd120 O141 2.492 1_554 S
Nd120 O142 2.487 . S
Nd120 O143 2.682 . S
Nd120 O144 2.410 1_554 S
Nd120 O149 2.414 1_554 S
Nd120 O151 2.424 . S
Nd121 C131 2.836 1_556 S
Nd121 O143 2.414 1_556 S
Nd121 O145 2.424 . S
Nd121 O146 2.500 1_556 S
Nd121 O147 2.492 1_556 S
Nd121 O148 2.487 . S
Nd121 O149 2.682 . S
Nd121 O150 2.410 1_556 S
C122 Nd120 2.836 1_556 S
C122 C123 1.498 . S
C122 O140 1.258 . S
C122 O141 1.239 . S
C123 C122 1.498 . S
C123 C124 1.366 . S
C123 C128 1.407 . S
C124 C123 1.366 . S
C124 C125 1.392 . S
C124 H152 0.930 . S
C125 C124 1.392 . S
C125 C126 1.398 . S
C125 H153 0.929 . S
C126 C125 1.398 . S
C126 C127 1.352 . S
C127 C126 1.352 . S
C127 C128 1.384 . S
C127 H154 0.930 . S
C128 C123 1.407 . S
C128 C127 1.384 . S
C128 H155 0.929 . S
C129 O142 1.241 . S
C129 O143 1.273 . S
C130 O144 1.251 . S
C130 O145 1.268 . S
C131 Nd121 2.836 1_554 S
C131 C132 1.498 . S
C131 O146 1.258 . S
C131 O147 1.239 . S
C132 C131 1.498 . S
C132 C133 1.366 . S
C132 C137 1.407 . S
C133 C132 1.366 . S
C133 C134 1.392 . S
C133 H156 0.930 . S
C134 C133 1.392 . S
C134 C135 1.398 . S
C134 H157 0.929 . S
C135 C134 1.398 . S
C135 C136 1.352 . S
C136 C135 1.352 . S
C136 C137 1.384 . S
C136 H158 0.930 . S
C137 C132 1.407 . S
C137 C136 1.384 . S
C137 H159 0.929 . S
C138 O148 1.241 . S
C138 O149 1.273 . S
C139 O150 1.251 . S
C139 O151 1.268 . S
O140 Nd120 2.500 1_556 S
O140 C122 1.258 . S
O141 Nd120 2.492 1_556 S
O141 C122 1.239 . S
O142 Nd120 2.487 . S
O142 C129 1.241 . S
O143 Nd120 2.682 . S
O143 Nd121 2.414 1_554 S
O143 C129 1.273 . S
O144 Nd120 2.410 1_556 S
O144 C130 1.251 . S
O145 Nd121 2.424 . S
O145 C130 1.268 . S
O146 Nd121 2.500 1_554 S
O146 C131 1.258 . S
O147 Nd121 2.492 1_554 S
O147 C131 1.239 . S
O148 Nd121 2.487 . S
O148 C138 1.241 . S
O149 Nd120 2.414 1_556 S
O149 Nd121 2.682 . S
O149 C138 1.273 . S
O150 Nd121 2.410 1_554 S
O150 C139 1.251 . S
O151 Nd120 2.424 . S
O151 C139 1.268 . S
H152 C124 0.930 . S
H153 C125 0.929 . S
H154 C127 0.930 . S
H155 C128 0.929 . S
H156 C133 0.930 . S
H157 C134 0.929 . S
H158 C136 0.930 . S
H159 C137 0.929 . S
Nd160 C162 2.836 . S
Nd160 O180 2.500 . S
Nd160 O181 2.492 . S
Nd160 O182 2.487 . S
Nd160 O183 2.682 . S
Nd160 O184 2.410 . S
Nd160 O189 2.414 . S
Nd160 O191 2.424 . S
Nd161 C171 2.836 . S
Nd161 O183 2.414 . S
Nd161 O185 2.424 . S
Nd161 O186 2.500 . S
Nd161 O187 2.492 . S
Nd161 O188 2.487 . S
Nd161 O189 2.682 . S
Nd161 O190 2.410 . S
C162 Nd160 2.836 . S
C162 C163 1.498 . S
C162 O180 1.258 . S
C162 O181 1.239 . S
C163 C162 1.498 . S
C163 C164 1.366 . S
C163 C168 1.407 . S
C164 C163 1.366 . S
C164 C165 1.392 . S
C164 H192 0.930 . S
C165 C164 1.392 . S
C165 C166 1.398 . S
C165 H193 0.929 . S
C166 C165 1.398 . S
C166 C167 1.352 . S
C167 C166 1.352 . S
C167 C168 1.384 . S
C167 H194 0.930 . S
C168 C163 1.407 . S
C168 C167 1.384 . S
C168 H195 0.929 . S
C169 O182 1.241 . S
C169 O183 1.273 . S
C170 O184 1.251 . S
C170 O185 1.268 . S
C171 Nd161 2.836 . S
C171 C172 1.498 . S
C171 O186 1.258 . S
C171 O187 1.239 . S
C172 C171 1.498 . S
C172 C173 1.366 . S
C172 C177 1.407 . S
C173 C172 1.366 . S
C173 C174 1.392 . S
C173 H196 0.930 . S
C174 C173 1.392 . S
C174 C175 1.398 . S
C174 H197 0.929 . S
C175 C174 1.398 . S
C175 C176 1.352 . S
C176 C175 1.352 . S
C176 C177 1.384 . S
C176 H198 0.930 . S
C177 C172 1.407 . S
C177 C176 1.384 . S
C177 H199 0.929 . S
C178 O188 1.241 . S
C178 O189 1.273 . S
C179 O190 1.251 . S
C179 O191 1.268 . S
O180 Nd160 2.500 . S
O180 C162 1.258 . S
O181 Nd160 2.492 . S
O181 C162 1.239 . S
O182 Nd160 2.487 . S
O182 C169 1.241 . S
O183 Nd160 2.682 . S
O183 Nd161 2.414 . S
O183 C169 1.273 . S
O184 Nd160 2.410 . S
O184 C170 1.251 . S
O185 Nd161 2.424 . S
O185 C170 1.268 . S
O186 Nd161 2.500 . S
O186 C171 1.258 . S
O187 Nd161 2.492 . S
O187 C171 1.239 . S
O188 Nd161 2.487 . S
O188 C178 1.241 . S
O189 Nd160 2.414 . S
O189 Nd161 2.682 . S
O189 C178 1.273 . S
O190 Nd161 2.410 . S
O190 C179 1.251 . S
O191 Nd160 2.424 . S
O191 C179 1.268 . S
H192 C164 0.930 . S
H193 C165 0.929 . S
H194 C167 0.930 . S
H195 C168 0.929 . S
H196 C173 0.930 . S
H197 C174 0.929 . S
H198 C176 0.930 . S
H199 C177 0.929 . S
Nd200 C202 2.836 . S
Nd200 O220 2.500 . S
Nd200 O221 2.492 . S
Nd200 O222 2.487 . S
Nd200 O223 2.682 . S
Nd200 O224 2.410 . S
Nd200 O229 2.414 . S
Nd200 O231 2.424 . S
Nd201 C211 2.836 . S
Nd201 O223 2.414 . S
Nd201 O225 2.424 . S
Nd201 O226 2.500 . S
Nd201 O227 2.492 . S
Nd201 O228 2.487 . S
Nd201 O229 2.682 . S
Nd201 O230 2.410 . S
C202 Nd200 2.836 . S
C202 C203 1.498 . S
C202 O220 1.258 . S
C202 O221 1.239 . S
C203 C202 1.498 . S
C203 C204 1.366 . S
C203 C208 1.407 . S
C204 C203 1.366 . S
C204 C205 1.392 . S
C204 H232 0.930 . S
C205 C204 1.392 . S
C205 C206 1.398 . S
C205 H233 0.929 . S
C206 C205 1.398 . S
C206 C207 1.352 . S
C207 C206 1.352 . S
C207 C208 1.384 . S
C207 H234 0.930 . S
C208 C203 1.407 . S
C208 C207 1.384 . S
C208 H235 0.929 . S
C209 O222 1.241 . S
C209 O223 1.273 . S
C210 O224 1.251 . S
C210 O225 1.268 . S
C211 Nd201 2.836 . S
C211 C212 1.498 . S
C211 O226 1.258 . S
C211 O227 1.239 . S
C212 C211 1.498 . S
C212 C213 1.366 . S
C212 C217 1.407 . S
C213 C212 1.366 . S
C213 C214 1.392 . S
C213 H236 0.930 . S
C214 C213 1.392 . S
C214 C215 1.398 . S
C214 H237 0.929 . S
C215 C214 1.398 . S
C215 C216 1.352 . S
C216 C215 1.352 . S
C216 C217 1.384 . S
C216 H238 0.930 . S
C217 C212 1.407 . S
C217 C216 1.384 . S
C217 H239 0.929 . S
C218 O228 1.241 . S
C218 O229 1.273 . S
C219 O230 1.251 . S
C219 O231 1.268 . S
O220 Nd200 2.500 . S
O220 C202 1.258 . S
O221 Nd200 2.492 . S
O221 C202 1.239 . S
O222 Nd200 2.487 . S
O222 C209 1.241 . S
O223 Nd200 2.682 . S
O223 Nd201 2.414 . S
O223 C209 1.273 . S
O224 Nd200 2.410 . S
O224 C210 1.251 . S
O225 Nd201 2.424 . S
O225 C210 1.268 . S
O226 Nd201 2.500 . S
O226 C211 1.258 . S
O227 Nd201 2.492 . S
O227 C211 1.239 . S
O228 Nd201 2.487 . S
O228 C218 1.241 . S
O229 Nd200 2.414 . S
O229 Nd201 2.682 . S
O229 C218 1.273 . S
O230 Nd201 2.410 . S
O230 C219 1.251 . S
O231 Nd200 2.424 . S
O231 C219 1.268 . S
H232 C204 0.930 . S
H233 C205 0.929 . S
H234 C207 0.930 . S
H235 C208 0.929 . S
H236 C213 0.930 . S
H237 C214 0.929 . S
H238 C216 0.930 . S
H239 C217 0.929 . S
C240 C241 1.386 . S
C240 C242 1.383 . S
C240 H256 0.951 . S
C241 C240 1.386 . S
C241 C245 1.383 . S
C242 C240 1.383 . S
C242 C243 1.402 . S
C242 H257 0.951 . S
C243 C242 1.402 . S
C243 C244 1.375 . S
C243 C246 1.481 . S
C244 C243 1.375 . S
C244 C245 1.367 . S
C244 H258 0.951 . S
C245 C241 1.383 . S
C245 C244 1.367 . S
C245 H259 0.950 . S
C246 C243 1.481 . S
C246 C247 1.297 . S
C246 H260 0.950 . S
C247 C246 1.297 . S
C247 C248 1.479 . S
C247 H261 0.950 . S
C248 C247 1.479 . S
C248 C249 1.375 . S
C248 C254 1.404 . S
C249 C248 1.375 . S
C249 C250 1.369 . S
C249 H262 0.950 . S
C250 C249 1.369 . S
C250 C251 1.392 . S
C250 H263 0.951 . S
C251 C250 1.392 . S
C251 C253 1.384 . S
H252 C254 0.949 . S
C253 C251 1.384 . S
C253 C254 1.385 . S
C253 H255 0.950 . S
C254 C248 1.404 . S
C254 H252 0.949 . S
C254 C253 1.385 . S
H255 C253 0.950 . S
H256 C240 0.951 . S
H257 C242 0.951 . S
H258 C244 0.951 . S
H259 C245 0.950 . S
H260 C246 0.950 . S
H261 C247 0.950 . S
H262 C249 0.950 . S
H263 C250 0.951 . S
C264 C265 1.386 1_556 S
C264 C266 1.383 1_556 S
C264 H280 0.951 . S
C265 C264 1.386 1_554 S
C265 C269 1.383 . S
C266 C264 1.383 1_554 S
C266 C267 1.402 . S
C266 H281 0.951 1_554 S
C267 C266 1.402 . S
C267 C268 1.375 . S
C267 C270 1.481 . S
C268 C267 1.375 . S
C268 C269 1.367 . S
C268 H282 0.951 . S
C269 C265 1.383 . S
C269 C268 1.367 . S
C269 H283 0.950 . S
C270 C267 1.481 . S
C270 C271 1.297 . S
C270 H284 0.950 . S
C271 C270 1.297 . S
C271 C272 1.479 . S
C271 H285 0.950 . S
C272 C271 1.479 . S
C272 C273 1.375 1_455 S
C272 C278 1.404 . S
C273 C272 1.375 1_655 S
C273 C274 1.369 . S
C273 H286 0.950 1_654 S
C274 C273 1.369 . S
C274 C275 1.392 . S
C274 H287 0.949 1_554 S
C275 C274 1.392 . S
C275 C277 1.384 . S
H276 C278 0.949 . S
C277 C275 1.384 . S
C277 C278 1.385 1_655 S
C277 H279 0.950 . S
C278 C272 1.404 . S
C278 H276 0.949 . S
C278 C277 1.385 1_455 S
H279 C277 0.950 . S
H280 C264 0.951 . S
H281 C266 0.951 1_556 S
H282 C268 0.951 . S
H283 C269 0.950 . S
H284 C270 0.950 . S
H285 C271 0.950 . S
H286 C273 0.950 1_456 S
H287 C274 0.949 1_556 S
C288 C289 1.386 . S
C288 C290 1.383 . S
C288 H304 0.951 . S
C289 C288 1.386 . S
C289 C293 1.383 . S
C290 C288 1.383 . S
C290 C291 1.402 . S
C290 H305 0.951 . S
C291 C290 1.402 . S
C291 C292 1.375 . S
C291 C294 1.481 . S
C292 C291 1.375 . S
C292 C293 1.367 . S
C292 H306 0.951 . S
C293 C289 1.383 . S
C293 C292 1.367 . S
C293 H307 0.950 . S
C294 C291 1.481 . S
C294 C295 1.297 . S
C294 H308 0.950 . S
C295 C294 1.297 . S
C295 C296 1.479 . S
C295 H309 0.950 . S
C296 C295 1.479 . S
C296 C297 1.375 1_545 S
C296 C302 1.404 . S
C297 C296 1.375 1_565 S
C297 C298 1.369 . S
C297 H310 0.950 . S
C298 C297 1.369 . S
C298 C299 1.392 . S
C298 H311 0.951 . S
C299 C298 1.392 . S
C299 C301 1.384 . S
H300 C302 0.949 . S
C301 C299 1.384 . S
C301 C302 1.385 1_565 S
C301 H303 0.950 . S
C302 C296 1.404 . S
C302 H300 0.949 . S
C302 C301 1.385 1_545 S
H303 C301 0.950 . S
H304 C288 0.951 . S
H305 C290 0.951 . S
H306 C292 0.951 . S
H307 C293 0.950 . S
H308 C294 0.950 . S
H309 C295 0.950 . S
H310 C297 0.950 . S
H311 C298 0.951 . S
C312 C313 1.386 . S
C312 C314 1.383 . S
C312 H328 0.951 . S
C313 C312 1.386 . S
C313 C317 1.383 . S
C314 C312 1.383 . S
C314 C315 1.402 . S
C314 H329 0.951 . S
C315 C314 1.402 . S
C315 C316 1.375 . S
C315 C318 1.481 . S
C316 C315 1.375 . S
C316 C317 1.367 . S
C316 H330 0.951 . S
C317 C313 1.383 . S
C317 C316 1.367 . S
C317 H331 0.950 . S
C318 C315 1.481 . S
C318 C319 1.297 . S
C318 H332 0.950 . S
C319 C318 1.297 . S
C319 C320 1.479 . S
C319 H333 0.950 . S
C320 C319 1.479 . S
C320 C321 1.375 . S
C320 C326 1.404 . S
C321 C320 1.375 . S
C321 C322 1.369 . S
C321 H334 0.950 . S
C322 C321 1.369 . S
C322 C323 1.392 . S
C322 H335 0.951 . S
C323 C322 1.392 . S
C323 C325 1.384 . S
H324 C326 0.949 . S
C325 C323 1.384 . S
C325 C326 1.385 . S
C325 H327 0.950 . S
C326 C320 1.404 . S
C326 H324 0.949 . S
C326 C325 1.385 . S
H327 C325 0.950 . S
H328 C312 0.951 . S
H329 C314 0.951 . S
H330 C316 0.951 . S
H331 C317 0.950 . S
H332 C318 0.950 . S
H333 C319 0.950 . S
H334 C321 0.950 . S
H335 C322 0.951 . S
C336 C337 1.386 . S
C336 C338 1.383 1_455 S
C336 H352 0.951 . S
C337 C336 1.386 . S
C337 C341 1.383 . S
C338 C336 1.383 1_655 S
C338 C339 1.402 . S
C338 H353 0.951 . S
C339 C338 1.402 . S
C339 C340 1.375 1_655 S
C339 C342 1.481 . S
C340 C339 1.375 1_455 S
C340 C341 1.367 . S
C340 H354 0.951 1_554 S
C341 C337 1.383 . S
C341 C340 1.367 . S
C341 H355 0.950 . S
C342 C339 1.481 . S
C342 C343 1.297 . S
C342 H356 0.950 1_554 S
C343 C342 1.297 . S
C343 C344 1.479 . S
C343 H357 0.950 . S
C344 C343 1.479 . S
C344 C345 1.375 . S
C344 C350 1.404 1_554 S
C345 C344 1.375 . S
C345 C346 1.369 . S
C345 H358 0.950 . S
C346 C345 1.369 . S
C346 C347 1.392 . S
C346 H359 0.951 . S
C347 C346 1.392 . S
C347 C349 1.384 1_554 S
H348 C350 0.949 . S
C349 C347 1.384 1_556 S
C349 C350 1.385 . S
C349 H351 0.950 . S
C350 C344 1.404 1_556 S
C350 H348 0.949 . S
C350 C349 1.385 . S
H351 C349 0.950 . S
H352 C336 0.951 . S
H353 C338 0.951 . S
H354 C340 0.951 1_556 S
H355 C341 0.950 . S
H356 C342 0.950 1_556 S
H357 C343 0.950 . S
H358 C345 0.950 . S
H359 C346 0.951 . S
C360 C361 1.386 . S
C360 C362 1.383 . S
C360 H376 0.951 . S
C361 C360 1.386 . S
C361 C365 1.383 . S
C362 C360 1.383 . S
C362 C363 1.402 1_545 S
C362 H377 0.951 1_545 S
C363 C362 1.402 1_565 S
C363 C364 1.374 1_565 S
C363 C366 1.481 . S
C364 C363 1.374 1_545 S
C364 C365 1.368 . S
C364 H378 0.950 1_545 S
C365 C361 1.383 . S
C365 C364 1.368 . S
C365 H379 0.950 . S
C366 C363 1.481 . S
C366 C367 1.297 . S
C366 H380 0.950 . S
C367 C366 1.297 . S
C367 C368 1.479 . S
C367 H381 0.950 . S
C368 C367 1.479 . S
C368 C369 1.375 . S
C368 C374 1.404 . S
C369 C368 1.375 . S
C369 C370 1.369 . S
C369 H382 0.950 . S
C370 C369 1.369 . S
C370 C371 1.392 . S
C370 H383 0.951 . S
C371 C370 1.392 . S
C371 C373 1.384 . S
H372 C374 0.949 . S
C373 C371 1.384 . S
C373 C374 1.385 . S
C373 H375 0.950 . S
C374 C368 1.404 . S
C374 H372 0.949 . S
C374 C373 1.385 . S
H375 C373 0.950 . S
H376 C360 0.951 . S
H377 C362 0.951 1_565 S
H378 C364 0.950 1_565 S
H379 C365 0.950 . S
H380 C366 0.950 . S
H381 C367 0.950 . S
H382 C369 0.950 . S
H383 C370 0.951 . S
C384 C385 1.386 . S
C384 C386 1.383 . S
C384 H400 0.951 . S
C385 C384 1.386 . S
C385 C389 1.383 . S
C386 C384 1.383 . S
C386 C387 1.402 . S
C386 H401 0.951 . S
C387 C386 1.402 . S
C387 C388 1.375 . S
C387 C390 1.481 . S
C388 C387 1.375 . S
C388 C389 1.367 . S
C388 H402 0.951 . S
C389 C385 1.383 . S
C389 C388 1.367 . S
C389 H403 0.950 . S
C390 C387 1.481 . S
C390 C391 1.297 . S
C390 H404 0.950 . S
C391 C390 1.297 . S
C391 C392 1.479 . S
C391 H405 0.950 . S
C392 C391 1.479 . S
C392 C393 1.375 . S
C392 C398 1.404 . S
C393 C392 1.375 . S
C393 C394 1.369 . S
C393 H406 0.950 . S
C394 C393 1.369 . S
C394 C395 1.392 . S
C394 H407 0.951 . S
C395 C394 1.392 . S
C395 C397 1.384 . S
H396 C398 0.949 . S
C397 C395 1.384 . S
C397 C398 1.385 . S
C397 H399 0.950 . S
C398 C392 1.404 . S
C398 H396 0.949 . S
C398 C397 1.385 . S
H399 C397 0.950 . S
H400 C384 0.951 . S
H401 C386 0.951 . S
H402 C388 0.951 . S
H403 C389 0.950 . S
H404 C390 0.950 . S
H405 C391 0.950 . S
H406 C393 0.950 . S
H407 C394 0.951 . S
C408 C409 1.386 . S
C408 C410 1.383 1_554 S
C408 H424 0.951 . S
C409 C408 1.386 . S
C409 C413 1.383 . S
C410 C408 1.383 1_556 S
C410 C411 1.402 . S
C410 H425 0.951 . S
C411 C410 1.402 . S
C411 C412 1.375 . S
C411 C414 1.481 . S
C412 C411 1.375 . S
C412 C413 1.367 1_556 S
C412 H426 0.951 . S
C413 C409 1.383 . S
C413 C412 1.367 1_554 S
C413 H427 0.950 . S
C414 C411 1.481 . S
C414 C415 1.297 . S
C414 H428 0.950 . S
C415 C414 1.297 . S
C415 C416 1.479 . S
C415 H429 0.950 . S
C416 C415 1.479 . S
C416 C417 1.375 . S
C416 C422 1.404 . S
C417 C416 1.375 . S
C417 C418 1.369 . S
C417 H430 0.950 . S
C418 C417 1.369 . S
C418 C419 1.392 . S
C418 H431 0.951 . S
C419 C418 1.392 . S
C419 C421 1.384 . S
H420 C422 0.949 . S
C421 C419 1.384 . S
C421 C422 1.385 . S
C421 H423 0.950 . S
C422 C416 1.404 . S
C422 H420 0.949 . S
C422 C421 1.385 . S
H423 C421 0.950 . S
H424 C408 0.951 . S
H425 C410 0.951 . S
H426 C412 0.951 . S
H427 C413 0.950 . S
H428 C414 0.950 . S
H429 C415 0.950 . S
H430 C417 0.950 . S
H431 C418 0.951 . S
C432 C433 1.386 . S
C432 C434 1.383 . S
C432 H448 0.951 . S
C433 C432 1.386 . S
C433 C437 1.383 . S
C434 C432 1.383 . S
C434 C435 1.402 . S
C434 H449 0.951 . S
C435 C434 1.402 . S
C435 C436 1.375 . S
C435 C438 1.481 . S
C436 C435 1.375 . S
C436 C437 1.367 . S
C436 H450 0.951 . S
C437 C433 1.383 . S
C437 C436 1.367 . S
C437 H451 0.950 . S
C438 C435 1.481 . S
C438 C439 1.297 . S
C438 H452 0.950 . S
C439 C438 1.297 . S
C439 C440 1.479 . S
C439 H453 0.950 . S
C440 C439 1.479 . S
C440 C441 1.375 . S
C440 C446 1.404 . S
C441 C440 1.375 . S
C441 C442 1.369 1_554 S
C441 H454 0.950 . S
C442 C441 1.369 1_556 S
C442 C443 1.392 . S
C442 H455 0.951 . S
C443 C442 1.392 . S
C443 C445 1.384 . S
H444 C446 0.949 . S
C445 C443 1.384 . S
C445 C446 1.385 1_556 S
C445 H447 0.950 . S
C446 C440 1.404 . S
C446 H444 0.949 . S
C446 C445 1.385 1_554 S
H447 C445 0.950 . S
H448 C432 0.951 . S
H449 C434 0.951 . S
H450 C436 0.951 . S
H451 C437 0.950 . S
H452 C438 0.950 . S
H453 C439 0.950 . S
H454 C441 0.950 . S
H455 C442 0.951 . S
C456 C457 1.386 . S
C456 C458 1.383 . S
C456 H472 0.951 . S
C457 C456 1.386 . S
C457 C461 1.383 . S
C458 C456 1.383 . S
C458 C459 1.402 . S
C458 H473 0.951 . S
C459 C458 1.402 . S
C459 C460 1.375 . S
C459 C462 1.481 . S
C460 C459 1.375 . S
C460 C461 1.367 . S
C460 H474 0.951 . S
C461 C457 1.383 . S
C461 C460 1.367 . S
C461 H475 0.950 . S
C462 C459 1.481 . S
C462 C463 1.297 . S
C462 H476 0.950 . S
C463 C462 1.297 . S
C463 C464 1.479 . S
C463 H477 0.950 . S
C464 C463 1.479 . S
C464 C465 1.375 . S
C464 C470 1.404 . S
C465 C464 1.375 . S
C465 C466 1.369 . S
C465 H478 0.950 . S
C466 C465 1.369 . S
C466 C467 1.392 . S
C466 H479 0.951 . S
C467 C466 1.392 . S
C467 C469 1.384 . S
H468 C470 0.949 . S
C469 C467 1.384 . S
C469 C470 1.385 . S
C469 H471 0.950 . S
C470 C464 1.404 . S
C470 H468 0.949 . S
C470 C469 1.385 . S
H471 C469 0.950 . S
H472 C456 0.951 . S
H473 C458 0.951 . S
H474 C460 0.951 . S
H475 C461 0.950 . S
H476 C462 0.950 . S
H477 C463 0.950 . S
H478 C465 0.950 . S
H479 C466 0.951 . S
C480 C481 1.386 . S
C480 C482 1.383 . S
C480 H496 0.951 . S
C481 C480 1.386 . S
C481 C485 1.383 . S
C482 C480 1.383 . S
C482 C483 1.402 . S
C482 H497 0.951 . S
C483 C482 1.402 . S
C483 C484 1.375 . S
C483 C486 1.481 . S
C484 C483 1.375 . S
C484 C485 1.367 . S
C484 H498 0.951 . S
C485 C481 1.383 . S
C485 C484 1.367 . S
C485 H499 0.950 . S
C486 C483 1.481 . S
C486 C487 1.297 . S
C486 H500 0.950 . S
C487 C486 1.297 . S
C487 C488 1.479 . S
C487 H501 0.950 . S
C488 C487 1.479 . S
C488 C489 1.375 . S
C488 C494 1.404 . S
C489 C488 1.375 . S
C489 C490 1.369 1_556 S
C489 H502 0.950 . S
C490 C489 1.369 1_554 S
C490 C491 1.392 . S
C490 H503 0.951 . S
C491 C490 1.392 . S
C491 C493 1.384 . S
H492 C494 0.949 . S
C493 C491 1.384 . S
C493 C494 1.385 1_554 S
C493 H495 0.950 . S
C494 C488 1.404 . S
C494 H492 0.949 . S
C494 C493 1.385 1_556 S
H495 C493 0.950 . S
H496 C480 0.951 . S
H497 C482 0.951 . S
H498 C484 0.951 . S
H499 C485 0.950 . S
H500 C486 0.950 . S
H501 C487 0.950 . S
H502 C489 0.950 . S
H503 C490 0.951 . S
C504 C505 1.386 . S
C504 C506 1.383 . S
C504 H520 0.951 . S
C505 C504 1.386 . S
C505 C509 1.383 . S
C506 C504 1.383 . S
C506 C507 1.402 . S
C506 H521 0.951 . S
C507 C506 1.402 . S
C507 C508 1.375 . S
C507 C510 1.481 . S
C508 C507 1.375 . S
C508 C509 1.367 . S
C508 H522 0.951 . S
C509 C505 1.383 . S
C509 C508 1.367 . S
C509 H523 0.950 . S
C510 C507 1.481 . S
C510 C511 1.297 . S
C510 H524 0.950 . S
C511 C510 1.297 . S
C511 C512 1.479 . S
C511 H525 0.950 . S
C512 C511 1.479 . S
C512 C513 1.375 . S
C512 C518 1.404 . S
C513 C512 1.375 . S
C513 C514 1.369 1_554 S
C513 H526 0.950 . S
C514 C513 1.369 1_556 S
C514 C515 1.392 . S
C514 H527 0.951 . S
C515 C514 1.392 . S
C515 C517 1.384 . S
H516 C518 0.949 . S
C517 C515 1.384 . S
C517 C518 1.385 1_556 S
C517 H519 0.950 . S
C518 C512 1.404 . S
C518 H516 0.949 . S
C518 C517 1.385 1_554 S
H519 C517 0.950 . S
H520 C504 0.951 . S
H521 C506 0.951 . S
H522 C508 0.951 . S
H523 C509 0.950 . S
H524 C510 0.950 . S
H525 C511 0.950 . S
H526 C513 0.950 . S
H527 C514 0.951 . S
C528 C529 1.386 . S
C528 C530 1.383 . S
C528 H544 0.951 . S
C529 C528 1.386 . S
C529 C533 1.383 . S
C530 C528 1.383 . S
C530 C531 1.402 . S
C530 H545 0.951 . S
C531 C530 1.402 . S
C531 C532 1.375 . S
C531 C534 1.481 . S
C532 C531 1.375 . S
C532 C533 1.367 . S
C532 H546 0.951 . S
C533 C529 1.383 . S
C533 C532 1.367 . S
C533 H547 0.950 . S
C534 C531 1.481 . S
C534 C535 1.297 . S
C534 H548 0.950 . S
C535 C534 1.297 . S
C535 C536 1.479 . S
C535 H549 0.950 . S
C536 C535 1.479 . S
C536 C537 1.375 . S
C536 C542 1.404 . S
C537 C536 1.375 . S
C537 C538 1.369 . S
C537 H550 0.950 . S
C538 C537 1.369 . S
C538 C539 1.392 . S
C538 H551 0.951 . S
C539 C538 1.392 . S
C539 C541 1.384 . S
H540 C542 0.949 . S
C541 C539 1.384 . S
C541 C542 1.385 . S
C541 H543 0.950 . S
C542 C536 1.404 . S
C542 H540 0.949 . S
C542 C541 1.385 . S
H543 C541 0.950 . S
H544 C528 0.951 . S
H545 C530 0.951 . S
H546 C532 0.951 . S
H547 C533 0.950 . S
H548 C534 0.950 . S
H549 C535 0.950 . S
H550 C537 0.950 . S
H551 C538 0.951 . S
C552 C553 1.386 . S
C552 C554 1.383 . S
C552 H568 0.951 . S
C553 C552 1.386 . S
C553 C557 1.383 . S
C554 C552 1.383 . S
C554 C555 1.402 . S
C554 H569 0.951 . S
C555 C554 1.402 . S
C555 C556 1.375 . S
C555 C558 1.481 . S
C556 C555 1.375 . S
C556 C557 1.367 . S
C556 H570 0.951 . S
C557 C553 1.383 . S
C557 C556 1.367 . S
C557 H571 0.950 . S
C558 C555 1.481 . S
C558 C559 1.297 . S
C558 H572 0.950 . S
C559 C558 1.297 . S
C559 C560 1.479 . S
C559 H573 0.950 . S
C560 C559 1.479 . S
C560 C561 1.375 . S
C560 C566 1.404 . S
C561 C560 1.375 . S
C561 C562 1.369 . S
C561 H574 0.950 . S
C562 C561 1.369 . S
C562 C563 1.392 . S
C562 H575 0.951 . S
C563 C562 1.392 . S
C563 C565 1.384 . S
H564 C566 0.949 . S
C565 C563 1.384 . S
C565 C566 1.385 . S
C565 H567 0.950 . S
C566 C560 1.404 . S
C566 H564 0.949 . S
C566 C565 1.385 . S
H567 C565 0.950 . S
H568 C552 0.951 . S
H569 C554 0.951 . S
H570 C556 0.951 . S
H571 C557 0.950 . S
H572 C558 0.950 . S
H573 C559 0.950 . S
H574 C561 0.950 . S
H575 C562 0.951 . S
C576 C577 1.386 . S
C576 C578 1.383 . S
C576 H592 0.951 . S
C577 C576 1.386 . S
C577 C581 1.383 . S
C578 C576 1.383 . S
C578 C579 1.402 . S
C578 H593 0.951 . S
C579 C578 1.402 . S
C579 C580 1.375 . S
C579 C582 1.481 . S
C580 C579 1.375 . S
C580 C581 1.367 . S
C580 H594 0.951 . S
C581 C577 1.383 . S
C581 C580 1.367 . S
C581 H595 0.950 . S
C582 C579 1.481 . S
C582 C583 1.297 . S
C582 H596 0.950 . S
C583 C582 1.297 . S
C583 C584 1.479 . S
C583 H597 0.950 . S
C584 C583 1.479 . S
C584 C585 1.375 . S
C584 C590 1.404 . S
C585 C584 1.375 . S
C585 C586 1.369 . S
C585 H598 0.950 . S
C586 C585 1.369 . S
C586 C587 1.392 . S
C586 H599 0.951 . S
C587 C586 1.392 . S
C587 C589 1.384 . S
H588 C590 0.949 . S
C589 C587 1.384 . S
C589 C590 1.385 . S
C589 H591 0.950 . S
C590 C584 1.404 . S
C590 H588 0.949 . S
C590 C589 1.385 . S
H591 C589 0.950 . S
H592 C576 0.951 . S
H593 C578 0.951 . S
H594 C580 0.951 . S
H595 C581 0.950 . S
H596 C582 0.950 . S
H597 C583 0.950 . S
H598 C585 0.950 . S
H599 C586 0.951 . S
C600 C601 1.386 . S
C600 C602 1.383 . S
C600 H616 0.951 . S
C601 C600 1.386 . S
C601 C605 1.383 . S
C602 C600 1.383 . S
C602 C603 1.402 . S
C602 H617 0.951 . S
C603 C602 1.402 . S
C603 C604 1.375 . S
C603 C606 1.481 . S
C604 C603 1.375 . S
C604 C605 1.367 . S
C604 H618 0.951 . S
C605 C601 1.383 . S
C605 C604 1.367 . S
C605 H619 0.950 . S
C606 C603 1.481 . S
C606 C607 1.297 . S
C606 H620 0.950 . S
C607 C606 1.297 . S
C607 C608 1.479 . S
C607 H621 0.950 . S
C608 C607 1.479 . S
C608 C609 1.375 . S
C608 C614 1.404 . S
C609 C608 1.375 . S
C609 C610 1.369 . S
C609 H622 0.950 . S
C610 C609 1.369 . S
C610 C611 1.392 . S
C610 H623 0.951 . S
C611 C610 1.392 . S
C611 C613 1.384 . S
H612 C614 0.949 . S
C613 C611 1.384 . S
C613 C614 1.385 . S
C613 H615 0.950 . S
C614 C608 1.404 . S
C614 H612 0.949 . S
C614 C613 1.385 . S
H615 C613 0.950 . S
H616 C600 0.951 . S
H617 C602 0.951 . S
H618 C604 0.951 . S
H619 C605 0.950 . S
H620 C606 0.950 . S
H621 C607 0.950 . S
H622 C609 0.950 . S
H623 C610 0.951 . S
C624 C625 1.386 . S
C624 C626 1.383 . S
C624 H640 0.951 . S
C625 C624 1.386 . S
C625 C629 1.383 . S
C626 C624 1.383 . S
C626 C627 1.402 . S
C626 H641 0.951 . S
C627 C626 1.402 . S
C627 C628 1.375 . S
C627 C630 1.481 . S
C628 C627 1.375 . S
C628 C629 1.367 . S
C628 H642 0.951 . S
C629 C625 1.383 . S
C629 C628 1.367 . S
C629 H643 0.950 . S
C630 C627 1.481 . S
C630 C631 1.297 . S
C630 H644 0.950 . S
C631 C630 1.297 . S
C631 C632 1.479 . S
C631 H645 0.950 . S
C632 C631 1.479 . S
C632 C633 1.375 . S
C632 C638 1.404 . S
C633 C632 1.375 . S
C633 C634 1.369 . S
C633 H646 0.950 . S
C634 C633 1.369 . S
C634 C635 1.392 . S
C634 H647 0.951 . S
C635 C634 1.392 . S
C635 C637 1.384 . S
H636 C638 0.949 . S
C637 C635 1.384 . S
C637 C638 1.385 . S
C637 H639 0.950 . S
C638 C632 1.404 . S
C638 H636 0.949 . S
C638 C637 1.385 . S
H639 C637 0.950 . S
H640 C624 0.951 . S
H641 C626 0.951 . S
H642 C628 0.951 . S
H643 C629 0.950 . S
H644 C630 0.950 . S
H645 C631 0.950 . S
H646 C633 0.950 . S
H647 C634 0.951 . S
C648 C649 1.386 . S
C648 C650 1.383 . S
C648 H664 0.951 . S
C649 C648 1.386 . S
C649 C653 1.383 . S
C650 C648 1.383 . S
C650 C651 1.402 . S
C650 H665 0.951 . S
C651 C650 1.402 . S
C651 C652 1.375 . S
C651 C654 1.481 . S
C652 C651 1.375 . S
C652 C653 1.367 . S
C652 H666 0.951 . S
C653 C649 1.383 . S
C653 C652 1.367 . S
C653 H667 0.954 . S
C654 C651 1.481 . S
C654 C655 1.297 . S
C654 H668 0.950 . S
C655 C654 1.297 . S
C655 C656 1.479 . S
C655 H669 0.950 . S
C656 C655 1.479 . S
C656 C657 1.375 . S
C656 C662 1.404 . S
C657 C656 1.375 . S
C657 C658 1.369 . S
C657 H670 0.950 . S
C658 C657 1.369 . S
C658 C659 1.392 . S
C658 H671 0.951 . S
C659 C658 1.392 . S
C659 C661 1.384 . S
H660 C662 0.949 . S
C661 C659 1.384 . S
C661 C662 1.385 . S
C661 H663 0.950 . S
C662 C656 1.404 . S
C662 H660 0.949 . S
C662 C661 1.385 . S
H663 C661 0.950 . S
H664 C648 0.951 . S
H665 C650 0.951 . S
H666 C652 0.951 . S
H667 C653 0.954 . S
H668 C654 0.950 . S
H669 C655 0.950 . S
H670 C657 0.950 . S
H671 C658 0.951 . S
C241 C209 1.618 . S
C251 C6 1.631 . S
C265 C9 1.624 . S
C275 C46 1.617 . S
C289 C49 1.615 . S
C299 C86 1.633 . S
C313 C89 1.622 . S
C323 C126 1.614 . S
C337 C166 1.624 . S
C347 C129 1.594 . S
C361 C206 1.572 . S
C371 C169 1.655 . S
C385 C10 2.098 . S
C395 C19 2.122 . S
C409 C50 2.098 . S
C419 C59 2.092 . S
C433 C90 2.097 . S
C443 C99 2.121 . S
C457 C130 2.097 . S
C467 C139 2.121 . S
C481 C179 2.112 . S
C491 C170 2.113 . S
C505 C210 2.094 . S
C515 C219 2.116 . S
C529 C15 1.566 . S
C539 C178 1.569 . S
C553 C55 1.529 . S
C563 C218 1.500 . S
C577 C18 1.544 . S
C587 C95 1.564 . S
C601 C58 1.508 . S
C611 C135 1.508 . S
C625 C175 1.540 . S
C635 C98 1.520 . S
C649 C138 1.538 . S
C659 C215 1.554 . S
