# Generated by pormake.
# Topology smc, (6)-cn, num edge types: 1
# Building blocks:
#     Node 0, Type 0, BuildingBlock: MIDCAF_clean_sbu_0, # of connection points: 6
#     Node 1, Type 0, BuildingBlock: MIDCAF_clean_sbu_0, # of connection points: 6
#     Node 2, Type 0, BuildingBlock: MIDCAF_clean_sbu_0, # of connection points: 6
#     Node 3, Type 0, BuildingBlock: MIDCAF_clean_sbu_0, # of connection points: 6
#     Node 4, Type 0, BuildingBlock: MIDCAF_clean_sbu_0, # of connection points: 6
#     Node 5, Type 0, BuildingBlock: MIDCAF_clean_sbu_0, # of connection points: 6
#     Node 6, Type 0, BuildingBlock: MIDCAF_clean_sbu_0, # of connection points: 6
#     Node 7, Type 0, BuildingBlock: MIDCAF_clean_sbu_0, # of connection points: 6
#     Node 8, Type 0, BuildingBlock: MIDCAF_clean_sbu_0, # of connection points: 6
#     Edge 9, Type (0, 0), BuildingBlock: ZUJKAS_clean_linker_0, # of connection points: 2
#     Edge 10, Type (0, 0), BuildingBlock: ZUJKAS_clean_linker_0, # of connection points: 2
#     Edge 11, Type (0, 0), BuildingBlock: ZUJKAS_clean_linker_0, # of connection points: 2
#     Edge 12, Type (0, 0), BuildingBlock: ZUJKAS_clean_linker_0, # of connection points: 2
#     Edge 13, Type (0, 0), BuildingBlock: ZUJKAS_clean_linker_0, # of connection points: 2
#     Edge 14, Type (0, 0), BuildingBlock: ZUJKAS_clean_linker_0, # of connection points: 2
#     Edge 15, Type (0, 0), BuildingBlock: ZUJKAS_clean_linker_0, # of connection points: 2
#     Edge 16, Type (0, 0), BuildingBlock: ZUJKAS_clean_linker_0, # of connection points: 2
#     Edge 17, Type (0, 0), BuildingBlock: ZUJKAS_clean_linker_0, # of connection points: 2
#     Edge 18, Type (0, 0), BuildingBlock: ZUJKAS_clean_linker_0, # of connection points: 2
#     Edge 19, Type (0, 0), BuildingBlock: ZUJKAS_clean_linker_0, # of connection points: 2
#     Edge 20, Type (0, 0), BuildingBlock: ZUJKAS_clean_linker_0, # of connection points: 2
#     Edge 21, Type (0, 0), BuildingBlock: ZUJKAS_clean_linker_0, # of connection points: 2
#     Edge 22, Type (0, 0), BuildingBlock: ZUJKAS_clean_linker_0, # of connection points: 2
#     Edge 23, Type (0, 0), BuildingBlock: ZUJKAS_clean_linker_0, # of connection points: 2
#     Edge 24, Type (0, 0), BuildingBlock: ZUJKAS_clean_linker_0, # of connection points: 2
#     Edge 25, Type (0, 0), BuildingBlock: ZUJKAS_clean_linker_0, # of connection points: 2
#     Edge 26, Type (0, 0), BuildingBlock: ZUJKAS_clean_linker_0, # of connection points: 2
#     Edge 27, Type (0, 0), BuildingBlock: ZUJKAS_clean_linker_0, # of connection points: 2
#     Edge 28, Type (0, 0), BuildingBlock: ZUJKAS_clean_linker_0, # of connection points: 2
#     Edge 29, Type (0, 0), BuildingBlock: ZUJKAS_clean_linker_0, # of connection points: 2
#     Edge 30, Type (0, 0), BuildingBlock: ZUJKAS_clean_linker_0, # of connection points: 2
#     Edge 31, Type (0, 0), BuildingBlock: ZUJKAS_clean_linker_0, # of connection points: 2
#     Edge 32, Type (0, 0), BuildingBlock: ZUJKAS_clean_linker_0, # of connection points: 2
#     Edge 33, Type (0, 0), BuildingBlock: ZUJKAS_clean_linker_0, # of connection points: 2
#     Edge 34, Type (0, 0), BuildingBlock: ZUJKAS_clean_linker_0, # of connection points: 2
#     Edge 35, Type (0, 0), BuildingBlock: ZUJKAS_clean_linker_0, # of connection points: 2
# Relax obj value: 0.333
# Max RMSD: 0.258
# Mean RMSD: 0.258
data_MOF--net-smc--node1-MIDCAF_clean_sbu_0--edge1-ZUJKAS_clean_linker_0
_symmetry_space_group_name_H-M    P1
_symmetry_Int_Tables_number       1
_symmetry_cell_setting            triclinic
loop_
_symmetry_equiv_pos_as_xyz
'x, y, z'
_cell_length_a     35.850197
_cell_length_b     35.9931
_cell_length_c     57.536578
_cell_angle_alpha  89.963183
_cell_angle_beta   89.927651
_cell_angle_gamma 119.7413
loop_
_atom_site_label
_atom_site_type_symbol
_atom_site_fract_x
_atom_site_fract_y
_atom_site_fract_z
_atom_type_partial_charge
Zn0 Zn 0.06609 0.47924 0.99662 0.0
Zn1 Zn 0.9591 0.44705 0.04819 0.0
Zn2 Zn 0.00544 0.44538 0.02159 0.0
C3 C 0.93658 0.3625 0.035 0.0
C4 C 0.01306 0.43014 0.07376 0.0
O5 O 0.03931 0.50634 0.03754 0.0
O6 O 0.08952 0.53775 0.01108 0.0
C7 C -0.00174 0.44456 0.96562 0.0
O8 O 0.97784 0.38111 0.03564 0.0
O9 O 0.91877 0.38516 0.03715 0.0
O10 O -0.00108 0.45605 0.07528 0.0
O11 O 0.01032 0.41186 0.05398 0.0
O12 O 0.03863 0.46804 0.96552 0.0
O13 O 0.97831 0.43277 0.98527 0.0
O14 O 0.02596 0.39965 0.02998 0.0
O15 O 0.08307 0.43626 0.00766 0.0
C16 C 0.0611 0.40477 0.02104 0.0
O17 O 0.95464 0.44922 1.00239 0.0
O18 O 0.95873 0.49381 0.02959 0.0
C19 C 0.07166 0.53969 0.02965 0.0
C20 C 0.9484 0.47979 0.00908 0.0
Zn21 Zn 0.50322 0.58164 0.97124 0.0
Zn22 Zn 0.53191 0.49805 0.01883 0.0
Zn23 Zn 0.53837 0.55079 0.99319 0.0
C24 C 0.61929 0.55766 0.00954 0.0
C25 C 0.54965 0.56832 0.04557 0.0
O26 O 0.47584 0.51976 0.00801 0.0
O27 O 0.44549 0.54887 0.98763 0.0
C28 C 0.53722 0.55072 0.93747 0.0
O29 O 0.60265 0.5821 0.00788 0.0
O30 O 0.59482 0.51782 0.01236 0.0
O31 O 0.52156 0.52886 0.04569 0.0
O32 O 0.5702 0.58516 0.02642 0.0
O33 O 0.51193 0.56564 0.93902 0.0
O34 O 0.55131 0.54242 0.95621 0.0
O35 O 0.58422 0.61555 1.00379 0.0
O36 O 0.54925 0.63973 0.98256 0.0
C37 C 0.58042 0.64686 0.99575 0.0
O38 O 0.53915 0.50147 0.97209 0.0
O39 O 0.49023 0.45473 0.99583 0.0
C40 C 0.44306 0.52318 1.00339 0.0
C41 C 0.50895 0.46312 0.97621 0.0
Zn42 Zn 0.47654 0.07305 0.02252 0.0
Zn43 Zn 0.4197 0.93698 0.97056 0.0
Zn44 Zn 0.44735 0.00452 0.99794 0.0
C45 C 0.36385 0.91656 0.00934 0.0
C46 C 0.41769 -0.00207 0.94273 0.0
O47 O 0.51559 0.0263 1.00498 0.0
O48 O 0.53859 0.09191 0.01804 0.0
C49 C 0.41891 0.00865 0.05135 0.0
O50 O 0.39238 0.9541 0.01609 0.0
O51 O 0.36665 0.90261 0.98963 0.0
O52 O 0.41478 0.96166 0.94096 0.0
O53 O 0.42762 0.01761 0.96252 0.0
O54 O 0.4499 0.04645 0.05273 0.0
O55 O 0.41018 0.98866 0.03172 0.0
O56 O 0.44294 0.05386 0.97702 0.0
O57 O 0.45197 0.10189 1.00365 0.0
C58 C 0.44352 0.08867 0.98296 0.0
O59 O 0.49684 0.98445 0.99658 0.0
O60 O 0.46861 0.92634 0.97462 0.0
C61 C 0.54634 0.06295 0.01152 0.0
C62 C 0.49874 0.95276 0.98737 0.0
Zn63 Zn 0.72749 0.79826 0.30735 0.0
Zn64 Zn 0.5928 0.74274 0.34012 0.0
Zn65 Zn 0.66262 0.77077 0.32914 0.0
C66 C 0.60785 0.6767 0.33416 0.0
C67 C 0.63924 0.74454 0.38035 0.0
O68 O 0.6943 0.8395 0.33731 0.0
O69 O 0.75142 0.85996 0.31519 0.0
C70 C 0.66281 0.75504 0.27465 0.0
O71 O 0.64255 0.70637 0.34346 0.0
O72 O 0.58148 0.68669 0.32564 0.0
O73 O 0.60945 0.75261 0.37554 0.0
O74 O 0.6597 0.73943 0.3632 0.0
O75 O 0.70312 0.77837 0.27594 0.0
O76 O 0.64027 0.74697 0.29326 0.0
O77 O 0.69523 0.74252 0.34903 0.0
O78 O 0.75025 0.76575 0.32479 0.0
C79 C 0.73113 0.74525 0.34293 0.0
O80 O 0.64661 0.82153 0.33833 0.0
O81 O 0.58182 0.78549 0.3236 0.0
C82 C 0.73038 0.86928 0.32938 0.0
C83 C 0.61231 0.82056 0.33088 0.0
Zn84 Zn 0.24867 0.85009 0.34255 0.0
Zn85 Zn 0.18804 0.92151 0.3083 0.0
Zn86 Zn 0.22248 0.8933 0.33123 0.0
C87 C 0.25383 0.98878 0.33655 0.0
C88 C 0.22616 0.89333 0.27644 0.0
O89 O 0.17129 0.82902 0.34303 0.0
O90 O 0.20301 0.79518 0.32875 0.0
C91 C 0.25031 0.90194 0.38095 0.0
O92 O 0.25601 0.95782 0.34649 0.0
O93 O 0.22934 0.98105 0.31921 0.0
O94 O 0.19737 0.90385 0.27687 0.0
O95 O 0.24175 0.8892 0.29562 0.0
O96 O 0.24296 0.86408 0.37737 0.0
O97 O 0.25569 0.92605 0.36313 0.0
O98 O 0.29016 0.9356 0.34303 0.0
O99 O 0.30346 0.88912 0.32573 0.0
C100 C 0.31722 0.92648 0.33358 0.0
O101 O 0.15546 0.85927 0.34386 0.0
O102 O 0.12965 0.89235 0.32279 0.0
C103 C 0.16948 0.79403 0.33646 0.0
C104 C 0.12421 0.8656 0.33852 0.0
Zn105 Zn 0.16747 0.41076 0.38162 0.0
Zn106 Zn 0.07819 0.2625 0.30918 0.0
Zn107 Zn 0.12655 0.35894 0.35455 0.0
C108 C 0.04553 0.29018 0.3525 0.0
C109 C 0.11041 0.36273 0.30762 0.0
O110 O 0.18787 0.35957 0.36024 0.0
O111 O 0.22535 0.4273 0.37023 0.0
C112 C 0.10597 0.34571 0.40827 0.0
O113 O 0.0616 0.31933 0.36801 0.0
O114 O 0.07005 0.29514 0.33553 0.0
O115 O 0.09962 0.32572 0.31523 0.0
O116 O 0.12651 0.39223 0.32273 0.0
O117 O 0.14591 0.37133 0.40986 0.0
O118 O 0.08778 0.34136 0.38823 0.0
O119 O 0.08165 0.3741 0.37248 0.0
O120 O 0.13475 0.44068 0.37298 0.0
C121 C 0.09475 0.41451 0.37322 0.0
O122 O 0.15276 0.3136 0.35038 0.0
O123 O 0.12755 0.25844 0.32457 0.0
C124 C 0.22431 0.39306 0.36421 0.0
C125 C 0.15341 0.28117 0.34082 0.0
Zn126 Zn 0.39159 0.1268 0.64604 0.0
Zn127 Zn 0.25101 0.06049 0.67441 0.0
Zn128 Zn 0.32225 0.09277 0.66524 0.0
C129 C 0.27174 -0.00169 0.67043 0.0
C130 C 0.29545 0.06561 0.71611 0.0
O131 O 0.34827 0.1607 0.67342 0.0
O132 O 0.4064 0.18765 0.65151 0.0
C133 C 0.33034 0.07545 0.61229 0.0
O134 O 0.30463 0.02949 0.68028 0.0
O135 O 0.24584 0.00667 0.65985 0.0
O136 O 0.26392 0.07044 0.71044 0.0
O137 O 0.3182 0.06253 0.69954 0.0
O138 O 0.3703 0.09981 0.61497 0.0
O139 O 0.30512 0.06874 0.62953 0.0
O140 O 0.35479 0.06685 0.68663 0.0
O141 O 0.41677 0.10164 0.66786 0.0
C142 C 0.39426 0.07651 0.68395 0.0
O143 O 0.30039 0.13933 0.67345 0.0
O144 O 0.23747 0.10072 0.657 0.0
C145 C 0.38238 0.19323 0.6655 0.0
C146 C 0.2658 0.1363 0.66501 0.0
Zn147 Zn 0.88174 0.19124 0.71255 0.0
Zn148 Zn 0.85924 0.27517 0.66257 0.0
Zn149 Zn 0.89039 0.24309 0.68604 0.0
C150 C 0.92637 0.33925 0.69203 0.0
C151 C 0.901 0.24835 0.63105 0.0
O152 O 0.89716 0.19548 0.66595 0.0
O153 O 0.84629 0.14725 0.68823 0.0
C154 C 0.89093 0.25876 0.73853 0.0
O155 O 0.9318 0.30825 0.69905 0.0
O156 O 0.89727 0.33229 0.6774 0.0
O157 O 0.87642 0.26418 0.63136 0.0
O158 O 0.91106 0.23746 0.65034 0.0
O159 O 0.86376 0.21904 0.73781 0.0
O160 O 0.91455 0.27635 0.72039 0.0
O161 O 0.95172 0.27596 0.70467 0.0
O162 O 0.94606 0.21305 0.71099 0.0
C163 C 0.96964 0.25318 0.70886 0.0
O164 O 0.82418 0.20864 0.69676 0.0
O165 O 0.79839 0.239 0.67381 0.0
C166 C 0.86778 0.15648 0.66948 0.0
C167 C 0.79238 0.21175 0.68939 0.0
Zn168 Zn 0.7928 0.73545 0.69517 0.0
Zn169 Zn 0.75794 0.61198 0.63644 0.0
Zn170 Zn 0.7745 0.67377 0.66495 0.0
C171 C 0.6914 0.58084 0.66961 0.0
C172 C 0.75633 0.67469 0.60885 0.0
O173 O 0.84124 0.69762 0.67677 0.0
O174 O 0.85317 0.74939 0.70154 0.0
C175 C 0.72442 0.66532 0.71502 0.0
O176 O 0.7145 0.61882 0.67788 0.0
O177 O 0.70295 0.56983 0.65134 0.0
O178 O 0.75559 0.63936 0.60711 0.0
O179 O 0.76186 0.69245 0.62907 0.0
O180 O 0.74915 0.70445 0.71924 0.0
O181 O 0.72839 0.64912 0.69572 0.0
O182 O 0.77526 0.72709 0.64503 0.0
O183 O 0.7835 0.77245 0.67321 0.0
C184 C 0.77836 0.76259 0.65194 0.0
O185 O 0.82738 0.65721 0.66655 0.0
O186 O 0.80733 0.60335 0.64216 0.0
C187 C 0.86649 0.72773 0.69068 0.0
C188 C 0.83353 0.62809 0.65715 0.0
H189 H 0.42484 0.46088 0.0362 0.0
H190 H 0.35542 0.41486 0.05525 0.0
H191 H 0.29978 0.47897 0.01748 0.0
H192 H 0.36844 0.52496 0.99864 0.0
H193 H 0.28157 0.46638 0.06773 0.0
H194 H 0.24754 0.31778 0.02044 0.0
H195 H 0.29764 0.34913 0.03558 0.0
H196 H 0.28729 0.36939 0.00936 0.0
C197 C 0.39781 0.46528 0.03208 0.0
C198 C 0.40208 0.49649 0.01582 0.0
C199 C 0.35824 0.43889 0.04294 0.0
C200 C 0.32255 0.44345 0.03767 0.0
C201 C 0.32705 0.47506 0.02181 0.0
H202 H 0.10729 0.38123 0.99415 0.0
H203 H 0.16413 0.36924 0.00812 0.0
C204 C 0.36632 0.50127 0.011 0.0
C205 C 0.27957 0.41514 0.04771 0.0
H206 H 0.18834 0.32279 0.03393 0.0
C207 C 0.26112 0.43425 0.06117 0.0
C208 C 0.25352 0.37299 0.0395 0.0
C209 C 0.27221 0.35079 0.02542 0.0
C210 C 0.21643 0.41511 0.0636 0.0
C211 C 0.18972 0.37541 0.05243 0.0
C212 C 0.20876 0.35334 0.04224 0.0
C213 C 0.14609 0.36461 0.04446 0.0
C214 C 0.19851 0.44039 0.07543 0.0
C215 C 0.11419 0.36155 0.05986 0.0
C216 C 0.0816 0.36901 0.05174 0.0
C217 C 0.08058 0.37894 0.02823 0.0
C218 C 0.10793 0.37446 0.01246 0.0
C219 C 0.14044 0.3674 0.0205 0.0
H220 H 0.22414 0.47132 0.08249 0.0
H221 H 0.17912 0.44733 0.06297 0.0
H222 H 0.17747 0.4216 0.0901 0.0
H223 H 0.11694 0.35785 0.07834 0.0
H224 H 0.06054 0.37179 0.06413 0.0
H225 H 0.54129 0.92626 0.95883 0.0
H226 H 0.58413 0.89363 0.97068 0.0
H227 H 0.57422 0.923 0.0423 0.0
H228 H 0.52979 0.95407 0.0305 0.0
H229 H 0.66058 0.91597 0.99907 0.0
H230 H 0.50652 0.79113 0.03839 0.0
H231 H 0.50853 0.83154 0.01909 0.0
H232 H 0.52796 0.84523 0.04834 0.0
C233 C 0.54947 0.92695 0.97701 0.0
C234 C 0.53302 0.94337 0.99374 0.0
C235 C 0.57405 0.90848 0.98376 0.0
C236 C 0.58213 0.90567 0.00738 0.0
C237 C 0.56834 0.92485 0.02399 0.0
H238 H 0.59369 0.67839 0.0397 0.0
H239 H 0.61295 0.75176 0.04972 0.0
C240 C 0.54354 0.94316 0.01722 0.0
C241 C 0.59824 0.87655 0.01445 0.0
H242 H 0.56104 0.77481 0.03405 0.0
C243 C 0.63928 0.88543 0.00722 0.0
C244 C 0.5706 0.83692 0.02532 0.0
C245 C 0.52585 0.82526 0.03317 0.0
C246 C 0.65236 0.85462 0.0093 0.0
C247 C 0.62318 0.81358 0.01824 0.0
C248 C 0.58359 0.80617 0.02721 0.0
C249 C 0.62854 0.77556 0.01441 0.0
C250 C 0.69678 0.866 1.00119 0.0
C251 C 0.63386 0.76506 0.9916 0.0
C252 C 0.6239 0.7234 0.98607 0.0
C253 C 0.60818 0.69139 1.00319 0.0
C254 C 0.60731 0.70275 0.0264 0.0
C255 C 0.61768 0.74466 0.03202 0.0
H256 H 0.72007 0.9 0.00517 0.0
H257 H 0.70804 0.84541 0.00941 0.0
H258 H 0.69653 0.8622 0.98204 0.0
H259 H 0.641 0.78758 0.97751 0.0
H260 H 0.62401 0.71517 0.96796 0.0
H261 H 0.36903 0.9023 0.05529 0.0
H262 H 0.31192 0.84882 0.07993 0.0
H263 H 0.2242 0.81034 0.02203 0.0
H264 H 0.28062 0.8651 0.99781 0.0
H265 H 0.18318 0.80675 0.06237 0.0
H266 H 0.28232 0.72766 0.07426 0.0
H267 H 0.30198 0.78032 0.08595 0.0
H268 H 0.29963 0.77268 0.05498 0.0
C269 C 0.33701 0.88349 0.04821 0.0
C270 C 0.32875 0.88817 0.02489 0.0
C271 C 0.30454 0.85266 0.06223 0.0
C272 C 0.26375 0.82542 0.05291 0.0
C273 C 0.25527 0.83125 0.02975 0.0
H274 H 0.09602 0.61572 0.0095 0.0
H275 H 0.13246 0.686 0.02772 0.0
C276 C 0.28753 0.86225 0.01585 0.0
C277 C 0.23098 0.78732 0.06563 0.0
H278 H 0.20845 0.68526 0.07681 0.0
C279 C 0.18886 0.78051 0.06639 0.0
C280 C 0.23843 0.75331 0.07156 0.0
C281 C 0.28291 0.75853 0.07164 0.0
C282 C 0.1537 0.73923 0.06914 0.0
C283 C 0.16113 0.70443 0.07136 0.0
C284 C 0.20309 0.71221 0.07475 0.0
C285 C 0.12964 0.66175 0.06253 0.0
C286 C 0.10887 0.73247 0.06697 0.0
C287 C 0.11548 0.62477 0.07615 0.0
C288 C 0.09395 0.58431 0.06571 0.0
C289 C 0.08798 0.58088 0.04151 0.0
C290 C 0.10062 0.61778 0.02817 0.0
C291 C 0.1209 0.65783 0.03862 0.0
H292 H 0.10722 0.76049 0.07379 0.0
H293 H 0.09974 0.72875 0.04834 0.0
H294 H 0.08528 0.70322 0.07641 0.0
H295 H 0.12275 0.6273 0.09454 0.0
H296 H 0.08441 0.55603 0.07624 0.0
H297 H 0.47714 0.10853 0.93907 0.0
H298 H 0.48521 0.16902 0.91537 0.0
H299 H 0.409 0.1923 0.96509 0.0
H300 H 0.40093 0.13233 0.9886 0.0
H301 H 0.39953 0.21057 0.91538 0.0
H302 H 0.56841 0.28592 0.94759 0.0
H303 H 0.54597 0.23693 0.93121 0.0
H304 H 0.52723 0.23659 0.96018 0.0
C305 C 0.46077 0.12561 0.94438 0.0
C306 C 0.43863 0.11613 0.96568 0.0
C307 C 0.46555 0.16019 0.93091 0.0
C308 C 0.44812 0.18538 0.93866 0.0
C309 C 0.42261 0.17321 0.95878 0.0
H310 H 0.43594 0.38624 0.97573 0.0
H311 H 0.42292 0.32273 0.95467 0.0
C312 C 0.41816 0.13908 0.97226 0.0
C313 C 0.46214 0.22845 0.92898 0.0
H314 H 0.54106 0.33097 0.93901 0.0
C315 C 0.43101 0.23701 0.9197 0.0
C316 C 0.50347 0.26292 0.9342 0.0
C317 C 0.53839 0.25551 0.94386 0.0
C318 C 0.43865 0.27915 0.91798 0.0
C319 C 0.47779 0.31318 0.92645 0.0
C320 C 0.5108 0.30493 0.93279 0.0
C321 C 0.48151 0.35422 0.93431 0.0
C322 C 0.40361 0.28645 0.90853 0.0
C323 C 0.51874 0.39368 0.92988 0.0
C324 C 0.52662 0.43036 0.94234 0.0
C325 C 0.49761 0.42786 0.95956 0.0
C326 C 0.45909 0.38915 0.96271 0.0
C327 C 0.45125 0.35277 0.95033 0.0
H328 H 0.38719 0.26454 0.89373 0.0
H329 H 0.3791 0.27907 0.92224 0.0
H330 H 0.4163 0.31997 0.90262 0.0
H331 H 0.5428 0.39553 0.91779 0.0
H332 H 0.55662 0.45978 0.93959 0.0
H333 H 0.58238 0.02488 0.03682 0.0
H334 H 0.65921 0.0482 0.04008 0.0
H335 H 0.68789 0.14982 0.99108 0.0
H336 H 0.61123 0.12491 0.98693 0.0
H337 H 0.74208 0.11439 0.9861 0.0
H338 H 0.73028 0.15554 0.07841 0.0
H339 H 0.69908 0.10066 0.06944 0.0
H340 H 0.68607 0.13963 0.05857 0.0
C341 C 0.60506 0.05068 0.02589 0.0
C342 C 0.59114 0.07243 0.01116 0.0
C343 C 0.64894 0.06454 0.0281 0.0
C344 C 0.67931 0.10098 0.01597 0.0
C345 C 0.66504 0.12144 1.00047 0.0
H346 H 0.87273 0.32656 1.00418 0.0
H347 H 0.82065 0.25099 0.99956 0.0
C348 C 0.62135 0.1074 0.99817 0.0
C349 C 0.72583 0.12192 0.02119 0.0
H350 H 0.79728 0.19148 0.06062 0.0
C351 C 0.75443 0.13011 1.00266 0.0
C352 C 0.74207 0.14194 0.04292 0.0
C353 C 0.71298 0.1343 0.06352 0.0
C354 C 0.79782 0.16158 1.00446 0.0
C355 C 0.81267 0.18544 0.0252 0.0
C356 C 0.7856 0.1732 0.04469 0.0
C357 C 0.85001 0.22926 0.02506 0.0
C358 C 0.82652 0.1718 0.98349 0.0
C359 C 0.88415 0.24221 0.04085 0.0
C360 C 0.91452 0.2858 0.0433 0.0
C361 C 0.90988 0.31653 0.03055 0.0
C362 C 0.87668 0.30329 0.01427 0.0
C363 C 0.84724 0.26011 0.01143 0.0
H364 H 0.81687 0.1427 0.97283 0.0
H365 H 0.82348 0.19548 0.97247 0.0
H366 H 0.86072 0.18558 0.98863 0.0
H367 H 0.88633 0.21887 0.05179 0.0
H368 H 0.93995 0.2956 0.05601 0.0
H369 H 0.88799 0.43965 0.97465 0.0
H370 H 0.8385 0.46311 0.96007 0.0
H371 H 0.90818 0.58088 0.99861 0.0
H372 H 0.95783 0.55859 0.01214 0.0
H373 H 0.78695 0.47002 0.98763 0.0
H374 H 0.87498 0.62712 0.94596 0.0
H375 H 0.89922 0.59399 0.9501 0.0
H376 H 0.90226 0.63051 0.97254 0.0
C377 C 0.89367 0.4713 0.97907 0.0
C378 C 0.9262 0.49701 0.99482 0.0
C379 C 0.86534 0.48467 0.97083 0.0
C380 C 0.8695 0.52397 0.97813 0.0
C381 C 0.90455 0.55103 0.99213 0.0
H382 H 0.67495 0.55351 0.03953 0.0
H383 H 0.73929 0.55071 0.02817 0.0
C384 C 0.93272 0.53788 1.00019 0.0
C385 C 0.83349 0.53312 0.97562 0.0
H386 H 0.81372 0.6166 0.9712 0.0
C387 C 0.79268 0.50178 0.98334 0.0
C388 C 0.84017 0.57426 0.96969 0.0
C389 C 0.88151 0.60807 0.95886 0.0
C390 C 0.75989 0.51147 0.98732 0.0
C391 C 0.76848 0.55404 0.98427 0.0
C392 C 0.80774 0.58441 0.97443 0.0
C393 C 0.73732 0.56718 0.99217 0.0
C394 C 0.71664 0.47611 0.99541 0.0
C395 C 0.71753 0.58146 0.97623 0.0
C396 C 0.68156 0.58453 0.98297 0.0
C397 C 0.66507 0.57309 0.00563 0.0
C398 C 0.68753 0.56307 0.02207 0.0
C399 C 0.72381 0.56079 0.01548 0.0
H400 H 0.711 0.44426 0.98968 0.0
H401 H 0.71555 0.47594 0.01469 0.0
H402 H 0.69016 0.48072 0.98874 0.0
H403 H 0.72767 0.58687 0.95822 0.0
H404 H 0.66407 0.59135 0.96988 0.0
H405 H 0.7675 0.69983 0.32809 0.0
H406 H 0.8275 0.69858 0.34641 0.0
H407 H 0.80715 0.75311 0.40874 0.0
H408 H 0.74927 0.75806 0.38921 0.0
H409 H 0.88017 0.80198 0.39653 0.0
H410 H 0.87483 0.64903 0.38851 0.0
H411 H 0.85854 0.65712 0.36053 0.0
H412 H 0.82628 0.65219 0.38584 0.0
C413 C 0.77451 0.70961 0.34611 0.0
C414 C 0.75338 0.7285 0.35734 0.0
C415 C 0.80878 0.70845 0.3568 0.0
C416 C 0.82225 0.7255 0.3792 0.0
C417 C 0.79757 0.73962 0.3915 0.0
H418 H 0.09896 0.80621 0.37414 0.0
H419 H 0.02781 0.76846 0.39294 0.0
C420 C 0.76378 0.74172 0.38051 0.0
C421 C 0.86711 0.73872 0.38647 0.0
H422 H 0.94521 0.71354 0.37424 0.0
C423 C 0.89394 0.78183 0.39262 0.0
C424 C 0.8861 0.71289 0.38233 0.0
C425 C 0.85957 0.66512 0.37923 0.0
C426 C 0.93871 0.80098 0.39111 0.0
C427 C 0.95708 0.77688 0.38253 0.0
C428 C 0.93098 0.7325 0.37991 0.0
C429 C 0.0004 0.79859 0.37179 0.0
C430 C 0.96575 0.84789 0.39683 0.0
C431 C 0.00805 0.82691 0.35331 0.0
C432 C 0.04809 0.84818 0.34261 0.0
C433 C 0.08163 0.84144 0.34995 0.0
C434 C 0.07382 0.81221 0.36814 0.0
C435 C 0.0333 0.7907 0.37892 0.0
H436 H 0.9509 0.85692 0.4111 0.0
H437 H -0.00119 0.85615 0.40202 0.0
H438 H 0.96776 0.86719 0.38134 0.0
H439 H 0.98279 0.83255 0.34704 0.0
H440 H 0.05264 0.87005 0.32854 0.0
H441 H 0.18503 0.2851 0.38479 0.0
H442 H 0.23058 0.25545 0.39755 0.0
H443 H 0.23982 0.22198 0.32666 0.0
H444 H 0.19407 0.25045 0.31402 0.0
H445 H 0.20297 0.16603 0.38848 0.0
H446 H 0.36425 0.27196 0.35216 0.0
H447 H 0.32647 0.29016 0.35849 0.0
H448 H 0.32246 0.2623 0.33182 0.0
C449 C 0.19763 0.2722 0.37195 0.0
C450 C 0.18568 0.26957 0.34846 0.0
C451 C 0.22364 0.2554 0.37923 0.0
C452 C 0.23902 0.23701 0.36301 0.0
C453 C 0.22899 0.2367 0.33943 0.0
H454 H 0.27778 0.06075 0.31178 0.0
H455 H 0.28936 0.12854 0.32668 0.0
C456 C 0.20245 0.25256 0.33225 0.0
C457 C 0.25971 0.21205 0.37039 0.0
H458 H 0.34186 0.19577 0.35394 0.0
C459 C 0.23409 0.17301 0.3818 0.0
C460 C 0.30044 0.22154 0.36184 0.0
C461 C 0.3302 0.26402 0.3506 0.0
C462 C 0.24547 0.14084 0.38205 0.0
C463 C 0.28406 0.1485 0.371 0.0
C464 C 0.31218 0.18966 0.36227 0.0
C465 C 0.28969 0.11229 0.3629 0.0
C466 C 0.2137 0.09746 0.39177 0.0
C467 C 0.28935 0.08149 0.37814 0.0
C468 C 0.28255 0.04207 0.36949 0.0
C469 C 0.2757 0.03313 0.34561 0.0
C470 C 0.28182 0.06622 0.33035 0.0
C471 C 0.28865 0.10525 0.33889 0.0
H472 H 0.18371 0.09612 0.39801 0.0
H473 H 0.20503 0.07238 0.37833 0.0
H474 H 0.22837 0.08976 0.40663 0.0
H475 H 0.29152 0.08675 0.39673 0.0
H476 H 0.27938 0.01771 0.38157 0.0
H477 H 0.00014 0.23264 0.31887 0.0
H478 H 0.93223 0.16603 0.32269 0.0
H479 H 0.9268 0.19163 0.39547 0.0
H480 H 0.99561 0.25867 0.39175 0.0
H481 H 0.91253 0.10901 0.38629 0.0
H482 H 0.8097 0.14454 0.32993 0.0
H483 H 0.85935 0.15768 0.31577 0.0
H484 H 0.85994 0.18601 0.3417 0.0
C485 C 0.98449 0.22432 0.33569 0.0
C486 C 0.00328 0.25091 0.35504 0.0
C487 C 0.94536 0.18642 0.33779 0.0
C488 C 0.92396 0.17425 0.35925 0.0
C489 C 0.94251 0.20072 0.37867 0.0
H490 H 0.71538 0.90234 0.36929 0.0
H491 H 0.75325 0.978 0.38151 0.0
C492 C 0.98174 0.23899 0.37653 0.0
C493 C 0.88415 0.13212 0.36132 0.0
H494 H 0.78963 0.06931 0.33311 0.0
C495 C 0.88492 0.1005 0.37527 0.0
C496 C 0.848 0.1212 0.34711 0.0
C497 C 0.84396 0.15433 0.33298 0.0
C498 C 0.85253 0.05741 0.37355 0.0
C499 C 0.81853 0.04596 0.35762 0.0
C500 C 0.81583 0.07815 0.34526 0.0
C501 C 0.79125 0.00102 0.35007 0.0
C502 C 0.85678 0.02392 0.38721 0.0
C503 C 0.79922 0.98934 0.3282 0.0
C504 C 0.77805 0.94667 0.32133 0.0
C505 C 0.74807 0.9146 0.33609 0.0
C506 C 0.73829 0.92644 0.35757 0.0
C507 C 0.76 0.96949 0.36459 0.0
H508 H 0.88597 0.03803 0.39829 0.0
H509 H 0.82819 0.00614 0.39854 0.0
H510 H 0.85812 0.00051 0.37517 0.0
H511 H 0.82316 0.01317 0.31673 0.0
H512 H 0.786 0.9387 0.30457 0.0
H513 H 0.11864 0.73977 0.30303 0.0
H514 H 0.06926 0.66294 0.30774 0.0
H515 H 0.08956 0.67615 0.38194 0.0
H516 H 0.1366 0.75319 0.37718 0.0
H517 H 0.09958 0.61663 0.32046 0.0
H518 H 0.96987 0.58133 0.38276 0.0
H519 H 0.00032 0.63328 0.36926 0.0
H520 H 0.01979 0.62037 0.39524 0.0
C521 C 0.1106 0.72639 0.3204 0.0
C522 C 0.13085 0.7521 0.33978 0.0
C523 C 0.08259 0.68248 0.32311 0.0
C524 C 0.07535 0.66334 0.34522 0.0
C525 C 0.09335 0.68985 0.36476 0.0
H526 H 0.09539 0.47059 0.40431 0.0
H527 H 0.07186 0.52232 0.39637 0.0
C528 C 0.12053 0.73397 0.36206 0.0
C529 C 0.0574 0.61617 0.34733 0.0
H530 H -0.0026 0.53046 0.38276 0.0
C531 C 0.07604 0.59745 0.33355 0.0
C532 C 0.02674 0.59081 0.36441 0.0
C533 C 0.00277 0.60752 0.37854 0.0
C534 C 0.06783 0.55566 0.33762 0.0
C535 C 0.03981 0.53148 0.35592 0.0
C536 C 0.01884 0.54898 0.36873 0.0
C537 C 0.03899 0.49214 0.36445 0.0
C538 C 0.09214 0.53912 0.32353 0.0
C539 C 0.02532 0.45602 0.35013 0.0
C540 C 0.03859 0.42606 0.35479 0.0
C541 C 0.06554 0.43215 0.3738 0.0
C542 C 0.07439 0.46516 0.38963 0.0
C543 C 0.06098 0.49479 0.38507 0.0
H544 H 0.1163 0.56389 0.31177 0.0
H545 H 0.10895 0.52759 0.33518 0.0
H546 H 0.06924 0.51177 0.31271 0.0
H547 H 0.00803 0.45323 0.33421 0.0
H548 H 0.03191 0.40117 0.34219 0.0
H549 H 0.29087 0.43101 0.39366 0.0
H550 H 0.36533 0.45189 0.3856 0.0
H551 H 0.32687 0.37859 0.32213 0.0
H552 H 0.25147 0.35806 0.33008 0.0
H553 H 0.41903 0.41787 0.37408 0.0
H554 H 0.3943 0.50293 0.29968 0.0
H555 H 0.35388 0.47684 0.3218 0.0
H556 H 0.36281 0.44556 0.30052 0.0
C557 C 0.29807 0.41821 0.37832 0.0
C558 C 0.26562 0.39356 0.36228 0.0
C559 C 0.34069 0.43 0.37379 0.0
C560 C 0.3519 0.41769 0.353 0.0
C561 C 0.31899 0.38906 0.33811 0.0
H562 H 0.5936 0.61816 0.30094 0.0
H563 H 0.53959 0.54233 0.30369 0.0
C564 C 0.27592 0.37705 0.34272 0.0
C565 C 0.3977 0.44159 0.34563 0.0
H566 H 0.46397 0.52712 0.31188 0.0
C567 C 0.42907 0.44101 0.36004 0.0
C568 C 0.41092 0.47178 0.3273 0.0
C569 C 0.37892 0.47473 0.31144 0.0
C570 C 0.4729 0.47161 0.35757 0.0
C571 C 0.48557 0.50417 0.34058 0.0
C572 C 0.45456 0.50235 0.32496 0.0
C573 C 0.52851 0.5439 0.34059 0.0
C574 C 0.50485 0.46942 0.3737 0.0
C575 C 0.54294 0.56946 0.3607 0.0
C576 C 0.57495 0.61254 0.35922 0.0
C577 C 0.59234 0.63088 0.33756 0.0
C578 C 0.58123 0.60444 0.31791 0.0
C579 C 0.54998 0.56118 0.31946 0.0
H580 H 0.49498 0.43564 0.3779 0.0
H581 H 0.53764 0.48508 0.36607 0.0
H582 H 0.5058 0.48561 0.39028 0.0
H583 H 0.52646 0.55762 0.37712 0.0
H584 H 0.58218 0.63261 0.37448 0.0
H585 H 0.37445 0.94249 0.29952 0.0
H586 H 0.44705 0.95554 0.30547 0.0
H587 H 0.43972 0.98266 0.37785 0.0
H588 H 0.36549 0.96748 0.37199 0.0
H589 H 0.52498 0.00969 0.3207 0.0
H590 H 0.44513 0.87505 0.38399 0.0
H591 H 0.41489 0.89252 0.3667 0.0
H592 H 0.44525 0.92352 0.39133 0.0
C593 C 0.38898 0.9531 0.31649 0.0
C594 C 0.36427 0.95354 0.33533 0.0
C595 C 0.43057 0.96038 0.31994 0.0
C596 C 0.44844 0.96841 0.34232 0.0
C597 C 0.42609 0.975 0.36057 0.0
H598 H 0.63397 0.87815 0.36651 0.0
H599 H 0.60631 0.9279 0.37255 0.0
C600 C 0.38398 0.96724 0.35714 0.0
C601 C 0.48643 0.96269 0.34649 0.0
H602 H 0.5126 0.89163 0.37052 0.0
C603 C 0.5227 0.98458 0.33205 0.0
C604 C 0.48372 0.9298 0.36128 0.0
C605 C 0.44514 0.90359 0.37661 0.0
C606 C 0.55435 0.97236 0.33071 0.0
C607 C 0.5499 0.93764 0.34425 0.0
C608 C 0.51592 0.91835 0.3602 0.0
C609 C 0.57468 0.91552 0.33916 0.0
C610 C 0.59113 -0.00487 0.31388 0.0
C611 C 0.56678 0.89277 0.31826 0.0
C612 C 0.58181 0.86402 0.315 0.0
C613 C 0.60564 0.85786 0.33241 0.0
C614 C 0.61625 0.88284 0.35268 0.0
C615 C 0.60033 0.91108 0.35617 0.0
H616 H 0.59729 0.02794 0.31 0.0
H617 H 0.62096 -0.00288 0.32084 0.0
H618 H 0.58303 0.97697 0.29733 0.0
H619 H 0.54647 0.89506 0.30507 0.0
H620 H 0.57298 0.84499 0.29927 0.0
H621 H 0.76387 0.14133 0.71806 0.0
H622 H 0.68887 0.09074 0.72898 0.0
H623 H 0.64704 0.16673 0.69099 0.0
H624 H 0.72084 0.21686 0.68007 0.0
H625 H 0.61992 0.10979 0.75116 0.0
H626 H 0.58379 0.03945 0.66302 0.0
H627 H 0.63744 0.06618 0.67505 0.0
H628 H 0.61519 0.09685 0.66264 0.0
C629 C 0.73865 0.14739 0.71227 0.0
C630 C 0.74826 0.18289 0.698 0.0
C631 C 0.69595 0.11852 0.71852 0.0
C632 C 0.66259 0.12489 0.71053 0.0
C633 C 0.6724 0.16111 0.69711 0.0
H634 H 0.44621 0.12354 0.71835 0.0
H635 H 0.50537 0.11623 0.73337 0.0
C636 C 0.71467 0.18973 0.69088 0.0
C637 C 0.61689 0.0936 0.71492 0.0
H638 H 0.52507 0.03953 0.6836 0.0
C639 C 0.59893 0.09306 0.73666 0.0
C640 C 0.58967 0.07061 0.69627 0.0
C641 C 0.6075 0.06784 0.67297 0.0
C642 C 0.55419 0.07446 0.73937 0.0
C643 C 0.52728 0.05742 0.71965 0.0
C644 C 0.54523 0.05306 0.69878 0.0
C645 C 0.48399 0.05356 0.71834 0.0
C646 C 0.53655 0.07535 0.76302 0.0
C647 C 0.45062 0.02005 0.70571 0.0
C648 C 0.41696 0.02482 0.69665 0.0
C649 C 0.41603 0.06279 0.7005 0.0
C650 C 0.44609 0.0937 0.71552 0.0
C651 C 0.4799 0.08928 0.72428 0.0
H652 H 0.55379 0.06795 0.77668 0.0
H653 H 0.54211 0.10802 0.76656 0.0
H654 H 0.50164 0.05211 0.7644 0.0
H655 H 0.45291 0.99217 0.70085 0.0
H656 H 0.39433 0.0009 0.6848 0.0
H657 H 0.00833 0.4073 0.68772 0.0
H658 H 0.02757 0.48211 0.69434 0.0
H659 H 0.90241 0.43849 0.72501 0.0
H660 H 0.88589 0.36538 0.72063 0.0
H661 H 0.00057 0.51939 0.67291 0.0
H662 H 0.9551 0.54261 0.75889 0.0
H663 H 0.96217 0.49718 0.75328 0.0
H664 H 0.90974 0.49292 0.75073 0.0
C665 C 0.98646 0.41415 0.69735 0.0
C666 C 0.94584 0.38084 0.70389 0.0
C667 C -0.00297 0.45694 0.70081 0.0
C668 C 0.96657 0.46686 0.71018 0.0
C669 C 0.92756 0.43296 0.71855 0.0
H670 H 0.8625 0.58096 0.63484 0.0
H671 H 0.90852 0.55544 0.64983 0.0
C672 C 0.91776 0.39064 0.71584 0.0
C673 C 0.97049 0.50997 0.70669 0.0
H674 H 0.92268 0.5658 0.72597 0.0
C675 C 0.98488 0.53032 0.685 0.0
C676 C 0.95266 0.52716 0.72252 0.0
C677 C 0.94472 0.51396 0.74773 0.0
C678 C 0.97623 0.56251 0.67767 0.0
C679 C 0.94964 0.57242 0.69156 0.0
C680 C 0.94092 0.55684 0.71451 0.0
C681 C 0.9256 0.59286 0.68157 0.0
C682 C 0.99484 0.5845 0.6548 0.0
C683 C 0.91763 0.62135 0.6946 0.0
C684 C 0.88885 0.63422 0.68647 0.0
C685 C 0.86859 0.62016 0.66479 0.0
C686 C 0.87799 0.59314 0.65145 0.0
C687 C 0.90525 0.57904 0.6599 0.0
H688 H 0.02843 0.59108 0.65297 0.0
H689 H 0.97623 0.56298 0.64029 0.0
H690 H 0.99476 0.6152 0.65316 0.0
H691 H 0.9322 0.63226 0.71152 0.0
H692 H 0.88082 0.65322 0.69774 0.0
H693 H 0.6293 0.59217 0.69135 0.0
H694 H 0.55898 0.5351 0.70555 0.0
H695 H 0.59521 0.44076 0.68795 0.0
H696 H 0.66429 0.49685 0.67379 0.0
H697 H 0.50041 0.46878 0.67592 0.0
H698 H 0.53721 0.3986 0.75131 0.0
H699 H 0.57216 0.45324 0.74201 0.0
H700 H 0.57592 0.40985 0.72873 0.0
C701 C 0.62238 0.55926 0.69111 0.0
C702 C 0.65197 0.54872 0.68143 0.0
C703 C 0.58237 0.52681 0.6992 0.0
C704 C 0.57216 0.48375 0.69816 0.0
C705 C 0.6027 0.47376 0.68947 0.0
H706 H 0.42932 0.26561 0.64059 0.0
H707 H 0.45994 0.33903 0.65387 0.0
C708 C 0.64203 0.50582 0.68114 0.0
C709 C 0.52814 0.44802 0.70263 0.0
H710 H 0.48176 0.34676 0.72444 0.0
C711 C 0.49548 0.4426 0.68724 0.0
C712 C 0.521 0.41421 0.7178 0.0
C713 C 0.55336 0.4195 0.73608 0.0
C714 C 0.45882 0.40229 0.68423 0.0
C715 C 0.4554 0.36677 0.69661 0.0
C716 C 0.48476 0.37374 0.7145 0.0
C717 C 0.42918 0.32253 0.68766 0.0
C718 C 0.42588 0.39739 0.66642 0.0
C719 C 0.40136 0.28851 0.70218 0.0
C720 C 0.38363 0.24606 0.69451 0.0
C721 C 0.39437 0.23725 0.67246 0.0
C722 C 0.42061 0.27142 0.65769 0.0
C723 C 0.43775 0.31352 0.66519 0.0
H724 H 0.42258 0.42648 0.66587 0.0
H725 H 0.4366 0.39343 0.64895 0.0
H726 H 0.39398 0.36913 0.67016 0.0
H727 H 0.3948 0.29471 0.71969 0.0
H728 H 0.36368 0.22024 0.70628 0.0
H729 H 0.72937 0.79994 0.65357 0.0
H730 H 0.7474 0.86894 0.63671 0.0
H731 H 0.85154 0.87 0.5985 0.0
H732 H 0.83283 0.79996 0.61531 0.0
H733 H 0.87776 0.93706 0.62925 0.0
H734 H 0.74506 0.92764 0.57683 0.0
H735 H 0.7247 0.89692 0.60298 0.0
H736 H 0.75185 0.88173 0.58185 0.0
C737 C 0.75468 0.81386 0.64064 0.0
C738 C 0.77956 0.79468 0.63561 0.0
C739 C 0.76499 0.85334 0.63094 0.0
C740 C 0.80072 0.87471 0.61619 0.0
C741 C 0.82358 0.85393 0.60964 0.0
H742 H 0.91955 0.15545 0.63406 0.0
H743 H 0.90895 0.09226 0.612 0.0
C744 C 0.81274 0.81386 0.61912 0.0
C745 C 0.81847 0.92128 0.61203 0.0
H746 H 0.78473 0.99285 0.60038 0.0
C747 C 0.85824 0.94965 0.62214 0.0
C748 C 0.79315 0.93771 0.60266 0.0
C749 C 0.75152 0.90934 0.59025 0.0
C750 C 0.87089 0.99296 0.62568 0.0
C751 C 0.84329 0.00842 0.61848 0.0
C752 C 0.80578 0.98103 0.60608 0.0
C753 C 0.84778 0.04886 0.62803 0.0
C754 C 0.91151 0.02063 0.63916 0.0
C755 C 0.81606 0.04599 0.64339 0.0
C756 C 0.82191 0.08169 0.65578 0.0
C757 C 0.85968 0.12138 0.65317 0.0
C758 C 0.89027 0.1252 0.63658 0.0
C759 C 0.88437 0.08909 0.62409 0.0
H760 H 0.92696 0.00237 0.64552 0.0
H761 H 0.93484 0.04691 0.62785 0.0
H762 H 0.90452 0.03525 0.65434 0.0
H763 H 0.78753 0.01545 0.64672 0.0
H764 H 0.79736 0.07768 0.66815 0.0
H765 H 0.91332 0.75096 0.73047 0.0
H766 H 0.99047 0.77767 0.73453 0.0
H767 H -0.00084 0.75794 0.66122 0.0
H768 H 0.92141 0.72897 0.65739 0.0
H769 H 0.05598 0.74386 0.68599 0.0
H770 H 0.06787 0.8977 0.71294 0.0
H771 H 0.03549 0.8538 0.73193 0.0
H772 H 0.01858 0.85342 0.70243 0.0
C773 C 0.93166 0.75174 0.71532 0.0
C774 C 0.91172 0.73865 0.69355 0.0
C775 C 0.97571 0.76706 0.71763 0.0
C776 C 0.00089 0.77109 0.69805 0.0
C777 C 0.98048 0.75544 0.67655 0.0
H778 H 0.23621 0.92947 0.6422 0.0
H779 H 0.17575 0.86116 0.654 0.0
C780 C 0.93615 0.73912 0.67434 0.0
C781 C 0.04859 0.79578 0.69936 0.0
H782 H 0.13179 0.89601 0.71028 0.0
C783 C 0.07264 0.777 0.69157 0.0
C784 C 0.07043 0.83912 0.70659 0.0
C785 C 0.04686 0.86238 0.71374 0.0
C786 C 0.11779 0.80078 0.69019 0.0
C787 C 0.13934 0.84436 0.69678 0.0
C788 C 0.11538 0.86238 0.70562 0.0
C789 C 0.18503 0.87443 0.69088 0.0
C790 C 0.14194 0.7794 0.68119 0.0
C791 C 0.2127 0.90333 0.70769 0.0
C792 C 0.24774 0.94255 0.70087 0.0
C793 C 0.25487 0.95334 0.6772 0.0
C794 C 0.23143 0.92172 0.66056 0.0
C795 C 0.19669 0.88251 0.66735 0.0
H796 H 0.12431 0.74455 0.68502 0.0
H797 H 0.14521 0.78333 0.66203 0.0
H798 H 0.1746 0.79379 0.68884 0.0
H799 H 0.20429 0.8978 0.72595 0.0
H800 H 0.26507 0.96648 0.71405 0.0
H801 H 0.22614 0.15935 0.6328 0.0
H802 H 0.19406 0.20464 0.63883 0.0
H803 H 0.24731 0.23432 0.70802 0.0
H804 H 0.2813 0.19061 0.70145 0.0
H805 H 0.13343 0.18085 0.66904 0.0
H806 H 0.25614 0.34651 0.69161 0.0
H807 H 0.26984 0.30942 0.67826 0.0
H808 H 0.26074 0.30776 0.70913 0.0
C809 C 0.23236 0.17693 0.64894 0.0
C810 C 0.25606 0.17151 0.66668 0.0
C811 C 0.21398 0.20277 0.65242 0.0
C812 C 0.21806 0.22298 0.67391 0.0
C813 C 0.24432 0.21995 0.69111 0.0
H814 H 0.01499 0.23579 0.74018 0.0
H815 H 0.08454 0.24098 0.73276 0.0
C816 C 0.26364 0.19479 0.6874 0.0
C817 C 0.18878 0.24003 0.67952 0.0
H818 H 0.18298 0.3244 0.70312 0.0
C819 C 0.14459 0.2126 0.67605 0.0
C820 C 0.20301 0.28135 0.68888 0.0
C821 C 0.25008 0.3131 0.69197 0.0
C822 C 0.11434 0.22474 0.68208 0.0
C823 C 0.12832 0.2652 0.6923 0.0
C824 C 0.17244 0.29329 0.69539 0.0
C825 C 0.09627 0.27661 0.70076 0.0
C826 C 0.06725 0.19365 0.67801 0.0
C827 C 0.08129 0.29748 0.686 0.0
C828 C 0.04167 0.29511 0.69044 0.0
C829 C 0.01657 0.27129 0.70946 0.0
C830 C 0.03393 0.25459 0.7255 0.0
C831 C 0.07365 0.25751 0.72127 0.0
H832 H 0.06218 0.16614 0.66703 0.0
H833 H 0.05101 0.18101 0.69496 0.0
H834 H 0.05158 0.21003 0.66949 0.0
H835 H 0.0981 0.31193 0.66995 0.0
H836 H 0.0286 0.3076 0.67763 0.0
H837 H 0.1307 0.4385 0.2854 0.0
H838 H 0.11782 0.44831 0.24443 0.0
H839 H 0.06382 0.31302 0.23265 0.0
H840 H 0.07622 0.30296 0.27326 0.0
H841 H 0.14701 0.42687 0.20243 0.0
H842 H 0.96912 0.33665 0.20948 0.0
H843 H 0.00363 0.3556 0.23463 0.0
H844 H 0.99532 0.30825 0.2197 0.0
C845 C 0.11616 0.41089 0.27406 0.0
C846 C 0.10438 0.36993 0.28271 0.0
C847 C 0.10884 0.41653 0.25063 0.0
C848 C 0.08924 0.38129 0.23548 0.0
C849 C 0.07823 0.34059 0.24403 0.0
H850 H -0.00111 0.35248 0.09072 0.0
H851 H 0.02085 0.33891 0.12894 0.0
C852 C 0.0856 0.33496 0.26731 0.0
C853 C 0.08008 0.38675 0.21076 0.0
H854 H -0.00174 0.35738 0.17169 0.0
C855 C 0.11448 0.41178 0.19573 0.0
C856 C 0.03766 0.36673 0.20187 0.0
C857 C -0.00078 0.34058 0.21725 0.0
C858 C 0.10765 0.41707 0.17212 0.0
C859 C 0.06517 0.39756 0.16332 0.0
C860 C 0.03083 0.37214 0.1783 0.0
C861 C 0.05538 0.40555 0.13918 0.0
C862 C 0.1461 0.44304 0.15672 0.0
C863 C 0.06753 0.44738 0.1321 0.0
C864 C 0.05525 0.45505 0.11037 0.0
C865 C 0.03057 0.42118 0.09506 0.0
C866 C 0.01888 0.37929 0.10189 0.0
C867 C 0.03109 0.37154 0.1238 0.0
H868 H 0.17543 0.44399 0.16373 0.0
H869 H 0.14048 0.42993 0.1388 0.0
H870 H 0.15231 0.47643 0.15582 0.0
H871 H 0.08524 0.47409 0.14374 0.0
H872 H 0.06419 0.48762 0.10573 0.0
H873 H 0.70186 0.78293 0.23286 0.0
H874 H 0.67731 0.75148 0.19474 0.0
H875 H 0.55747 0.65529 0.2244 0.0
H876 H 0.58216 0.687 0.2633 0.0
H877 H 0.65476 0.66617 0.18307 0.0
H878 H 0.52167 0.69988 0.16601 0.0
H879 H 0.56244 0.72874 0.18764 0.0
H880 H 0.52071 0.67496 0.19331 0.0
C881 C 0.67002 0.75527 0.23146 0.0
C882 C 0.64409 0.73742 0.25134 0.0
C883 C 0.65605 0.73731 0.2095 0.0
C884 C 0.61558 0.70104 0.20656 0.0
C885 C 0.58873 0.68361 0.22617 0.0
H886 H 0.49584 0.55089 0.08227 0.0
H887 H 0.512 0.58369 0.12072 0.0
C888 C 0.60283 0.70173 0.2484 0.0
C889 C 0.60344 0.68085 0.18306 0.0
H890 H 0.53625 0.66255 0.137 0.0
C891 C 0.62874 0.66527 0.17302 0.0
C892 C 0.56957 0.67968 0.16991 0.0
C893 C 0.54205 0.6969 0.17958 0.0
C894 C 0.62107 0.64841 0.15034 0.0
C895 C 0.58779 0.64808 0.13691 0.0
C896 C 0.56207 0.66317 0.14709 0.0
C897 C 0.57793 0.63036 0.11274 0.0
C898 C 0.64815 0.63019 0.14123 0.0
C899 C 0.60925 0.64616 0.09499 0.0
C900 C 0.60012 0.6271 0.07284 0.0
C901 C 0.55928 0.59229 0.0679 0.0
C902 C 0.52769 0.57762 0.08546 0.0
C903 C 0.53683 0.59646 0.1075 0.0
H904 H 0.66377 0.62224 0.15555 0.0
H905 H 0.62855 0.60085 0.13083 0.0
H906 H 0.67388 0.65424 0.1299 0.0
H907 H 0.64099 0.67287 0.09836 0.0
H908 H 0.62528 0.63885 0.05982 0.0
H909 H 0.4558 0.00763 0.09188 0.0
H910 H 0.42129 0.97816 0.12926 0.0
H911 H 0.297 0.93409 0.09807 0.0
H912 H 0.33182 0.96334 0.06028 0.0
H913 H 0.37192 0.00345 0.15348 0.0
H914 H 0.27622 0.82866 0.13576 0.0
H915 H 0.32398 0.86408 0.11956 0.0
H916 H 0.27445 0.86385 0.11414 0.0
C917 C 0.42104 0.99111 0.09292 0.0
C918 C 0.39642 0.98728 0.07315 0.0
C919 C 0.40135 0.97423 0.11429 0.0
C920 C 0.35648 0.95328 0.11652 0.0
C921 C 0.33161 0.94914 0.09672 0.0
H922 H 0.18617 0.87671 0.23454 0.0
H923 H 0.21887 0.88743 0.19608 0.0
C924 C 0.35145 0.966 0.07517 0.0
C925 C 0.33664 0.93932 0.14002 0.0
H926 H 0.26684 0.85233 0.17229 0.0
C927 C 0.34911 0.97035 0.15758 0.0
C928 C 0.30698 0.89611 0.14548 0.0
C929 C 0.29462 0.86101 0.12785 0.0
C930 C 0.33229 0.95957 0.18022 0.0
C931 C 0.30243 0.91645 0.18562 0.0
C932 C 0.28988 0.88533 0.16813 0.0
C933 C 0.28184 0.90389 0.20893 0.0
C934 C 0.34575 0.99461 0.19808 0.0
C935 C 0.30595 0.9078 0.22899 0.0
C936 C 0.28716 0.90128 0.25114 0.0
C937 C 0.24406 0.8911 0.25353 0.0
C938 C 0.21951 0.88473 0.23331 0.0
C939 C 0.23813 0.89083 0.21128 0.0
H940 H 0.36304 0.02698 0.1901 0.0
H941 H 0.31734 0.99131 0.20765 0.0
H942 H 0.36748 0.99203 0.21088 0.0
H943 H 0.33967 0.9174 0.22754 0.0
H944 H 0.30696 0.90663 0.26636 0.0
H945 H 0.37221 0.04106 0.93827 0.0
H946 H 0.34865 0.05852 0.90157 0.0
H947 H 0.41974 0.01157 0.86284 0.0
H948 H 0.44299 0.99417 0.89906 0.0
H949 H 0.39369 0.10858 0.85971 0.0
H950 H 0.29375 0.93518 0.84171 0.0
H951 H 0.31549 0.95567 0.87014 0.0
H952 H 0.34871 0.95128 0.84808 0.0
C953 C 0.38362 0.03558 0.9219 0.0
C954 C 0.40944 0.01626 0.92152 0.0
C955 C 0.36994 0.04527 0.90096 0.0
C956 C 0.38168 0.03548 0.87942 0.0
C957 C 0.40955 0.01864 0.87918 0.0
H958 H 0.34592 0.03439 0.73264 0.0
H959 H 0.36429 0.02943 0.77293 0.0
C960 C 0.42298 0.00889 0.89993 0.0
C961 C 0.36325 0.04006 0.85707 0.0
H962 H 0.30648 0.98232 0.80974 0.0
C963 C 0.37406 0.08099 0.84891 0.0
C964 C 0.33745 0.00401 0.84299 0.0
C965 C 0.32277 0.95901 0.85123 0.0
C966 C 0.36157 0.08689 0.82656 0.0
C967 C 0.33731 0.0509 0.81214 0.0
C968 C 0.32529 0.00995 0.82069 0.0
C969 C 0.3261 0.05493 0.78765 0.0
C970 C 0.37599 0.13168 0.81812 0.0
C971 C 0.29794 0.07038 0.78238 0.0
C972 C 0.28729 0.07324 0.7592 0.0
C973 C 0.30471 0.06082 0.74083 0.0
C974 C 0.33241 0.04486 0.74625 0.0
C975 C 0.34283 0.04182 0.76934 0.0
H976 H 0.40058 0.15633 0.8297 0.0
H977 H 0.38942 0.1363 0.80027 0.0
H978 H 0.34792 0.13679 0.81749 0.0
H979 H 0.28399 0.07997 0.7962 0.0
H980 H 0.26584 0.08564 0.75565 0.0
H981 H 0.02655 0.48364 0.92385 0.0
H982 H 0.0001 0.45439 0.88544 0.0
H983 H 0.8944 0.34253 0.91645 0.0
H984 H 0.92137 0.37178 0.95543 0.0
H985 H 0.93928 0.32257 0.88475 0.0
H986 H 0.90259 0.44043 0.84472 0.0
H987 H 0.95555 0.4653 0.8569 0.0
H988 H 0.90948 0.43817 0.87567 0.0
C989 C -0.00295 0.45322 0.9226 0.0
C990 C 0.97613 0.43002 0.9428 0.0
C991 C 0.98177 0.43662 0.9005 0.0
C992 C 0.94495 0.39639 0.89786 0.0
C993 C 0.92276 0.3738 0.91798 0.0
H994 H 0.8402 0.23044 0.77707 0.0
H995 H 0.85197 0.26466 0.81492 0.0
C996 C 0.938 0.39063 0.94027 0.0
C997 C 0.93286 0.37652 0.87426 0.0
H998 H 0.91277 0.39441 0.81834 0.0
C999 C 0.93286 0.33801 0.87033 0.0
C1000 C 0.92505 0.39684 0.85525 0.0
C1001 C 0.92274 0.43726 0.85837 0.0
C1002 C 0.92648 0.31996 0.84799 0.0
C1003 C 0.91913 0.34049 0.82894 0.0
C1004 C 0.91869 0.37879 0.83285 0.0
C1005 C 0.91061 0.32174 0.80507 0.0
C1006 C 0.92894 0.27959 0.84484 0.0
C1007 C 0.93869 0.34317 0.78644 0.0
C1008 C 0.93194 0.3236 0.76448 0.0
C1009 C 0.89686 0.28231 0.76078 0.0
C1010 C 0.86791 0.26198 0.77927 0.0
C1011 C 0.87464 0.28146 0.80104 0.0
H1012 H 0.94579 0.27424 0.85955 0.0
H1013 H 0.89591 0.25176 0.84399 0.0
H1014 H 0.94582 0.2807 0.82844 0.0
H1015 H 0.96652 0.37447 0.78906 0.0
H1016 H 0.95479 0.34024 0.75066 0.0
H1017 H 0.68382 0.69019 0.74568 0.0
H1018 H 0.64836 0.65488 0.78185 0.0
H1019 H 0.66255 0.54626 0.764 0.0
H1020 H 0.69852 0.58184 0.72744 0.0
H1021 H 0.58003 0.52702 0.78758 0.0
H1022 H 0.72579 0.64684 0.83387 0.0
H1023 H 0.70469 0.67016 0.81392 0.0
H1024 H 0.72534 0.63704 0.80306 0.0
C1025 C 0.67858 0.65835 0.74914 0.0
C1026 C 0.69411 0.63889 0.73369 0.0
C1027 C 0.65847 0.63829 0.76991 0.0
C1028 C 0.65366 0.59838 0.77591 0.0
C1029 C 0.66623 0.57724 0.7598 0.0
H1030 H 0.60601 0.54012 0.9256 0.0
H1031 H 0.63385 0.54179 0.8863 0.0
C1032 C 0.68645 0.59743 0.73883 0.0
C1033 C 0.63853 0.58107 0.79973 0.0
H1034 H 0.66241 0.608 0.85691 0.0
C1035 C 0.59827 0.54428 0.80277 0.0
C1036 C 0.66269 0.60296 0.81962 0.0
C1037 C 0.70723 0.64121 0.81754 0.0
C1038 C 0.58044 0.5305 0.82512 0.0
C1039 C 0.60319 0.55453 0.84492 0.0
C1040 C 0.64463 0.58965 0.84186 0.0
C1041 C 0.58328 0.54681 0.86856 0.0
C1042 C 0.53716 0.49061 0.82725 0.0
C1043 C 0.54537 0.54856 0.87181 0.0
C1044 C 0.52949 0.54756 0.89414 0.0
C1045 C 0.55119 0.5451 0.91395 0.0
C1046 C 0.5883 0.54169 0.91075 0.0
C1047 C 0.60432 0.5428 0.88827 0.0
H1048 H 0.53176 0.46811 0.81275 0.0
H1049 H 0.5339 0.47387 0.84398 0.0
H1050 H 0.51164 0.49947 0.82632 0.0
H1051 H 0.52902 0.55278 0.8571 0.0
H1052 H 0.50086 0.55031 0.89587 0.0
H1053 H 0.62467 0.77861 0.41962 0.0
H1054 H 0.64597 0.77461 0.45969 0.0
H1055 H 0.69714 0.6948 0.43679 0.0
H1056 H 0.67521 0.6981 0.39685 0.0
H1057 H 0.62469 0.70421 0.48937 0.0
H1058 H 0.79944 0.79255 0.47086 0.0
H1059 H 0.76027 0.79209 0.45099 0.0
H1060 H 0.7695 0.74738 0.45218 0.0
C1061 C 0.64023 0.75999 0.42315 0.0
C1062 C 0.64921 0.73952 0.40492 0.0
C1063 C 0.65252 0.75783 0.44608 0.0
C1064 C 0.67418 0.73529 0.45128 0.0
C1065 C 0.6816 0.71342 0.43321 0.0
H1066 H 0.77456 0.66167 0.56496 0.0
H1067 H 0.75563 0.68211 0.5285 0.0
C1068 C 0.66913 0.71539 0.41034 0.0
C1069 C 0.68887 0.73438 0.47552 0.0
H1070 H 0.77811 0.75716 0.5075 0.0
C1071 C 0.65828 0.71622 0.49342 0.0
C1072 C 0.73276 0.75031 0.48091 0.0
C1073 C 0.76749 0.77206 0.4628 0.0
C1074 C 0.67006 0.71151 0.51619 0.0
C1075 C 0.71386 0.72629 0.52143 0.0
C1076 C 0.74456 0.74584 0.50365 0.0
C1077 C 0.72801 0.71747 0.5443 0.0
C1078 C 0.63519 0.68877 0.5341 0.0
C1079 C 0.72016 0.73155 0.5657 0.0
C1080 C 0.73103 0.71966 0.58692 0.0
C1081 C 0.75009 0.69361 0.58709 0.0
C1082 C 0.75962 0.68145 0.5656 0.0
C1083 C 0.74886 0.69324 0.54461 0.0
H1084 H 0.60274 0.67175 0.52611 0.0
H1085 H 0.64042 0.66524 0.54398 0.0
H1086 H 0.6358 0.71254 0.54659 0.0
H1087 H 0.70495 0.75108 0.56602 0.0
H1088 H 0.72287 0.72927 0.60309 0.0
H1089 H 0.2846 0.88463 0.4191 0.0
H1090 H 0.28935 0.91138 0.4588 0.0
H1091 H 0.2261 0.98084 0.43681 0.0
H1092 H 0.2219 0.95449 0.39709 0.0
H1093 H 0.29209 0.03003 0.46297 0.0
H1094 H 0.19961 0.87509 0.50833 0.0
H1095 H 0.24383 0.87764 0.4924 0.0
H1096 H 0.20097 0.87944 0.47706 0.0
C1097 C 0.27172 0.90559 0.4228 0.0
C1098 C 0.25373 0.91828 0.40494 0.0
C1099 C 0.27403 0.92055 0.44556 0.0
C1100 C 0.25742 0.94764 0.45104 0.0
C1101 C 0.23918 0.96003 0.43314 0.0
H1102 H 0.24667 0.02172 0.59735 0.0
H1103 H 0.22365 0.99033 0.55829 0.0
C1104 C 0.23723 0.94538 0.41038 0.0
C1105 C 0.261 0.96479 0.4751 0.0
H1106 H 0.2434 0.93603 0.53252 0.0
C1107 C 0.28091 0.00932 0.47811 0.0
C1108 C 0.24566 0.938 0.49499 0.0
C1109 C 0.2209 0.88989 0.49304 0.0
C1110 C 0.28772 0.02776 0.50033 0.0
C1111 C 0.27527 0.00113 0.52027 0.0
C1112 C 0.25345 0.95654 0.5173 0.0
C1113 C 0.28806 0.01927 0.54413 0.0
C1114 C 0.30853 0.07579 0.50219 0.0
C1115 C 0.33173 0.0451 0.54932 0.0
C1116 C 0.34481 0.06301 0.57134 0.0
C1117 C 0.31464 0.05533 0.58906 0.0
C1118 C 0.27074 0.02859 0.5841 0.0
C1119 C 0.25758 0.01059 0.56181 0.0
H1120 H 0.30265 0.08981 0.48636 0.0
H1121 H 0.29644 0.08534 0.51754 0.0
H1122 H 0.34378 0.0897 0.504 0.0
H1123 H 0.35597 0.05138 0.53626 0.0
H1124 H 0.37894 0.08295 0.57441 0.0
H1125 H 0.97706 0.24932 0.62153 0.0
H1126 H 0.01027 0.2575 0.58293 0.0
H1127 H 0.89699 0.24705 0.55069 0.0
H1128 H 0.86431 0.23976 0.58879 0.0
H1129 H 0.9859 0.20946 0.54003 0.0
H1130 H 0.99226 0.36578 0.53029 0.0
H1131 H 0.98137 0.3381 0.55777 0.0
H1132 H 0.93943 0.32232 0.53652 0.0
C1133 C 0.95902 0.24794 0.60615 0.0
C1134 C 0.91835 0.24458 0.60824 0.0
C1135 C 0.97804 0.25277 0.58412 0.0
C1136 C 0.95656 0.25408 0.56393 0.0
C1137 C 0.91467 0.24732 0.566 0.0
H1138 H 0.02123 0.31955 0.4176 0.0
H1139 H 0.98317 0.29253 0.45473 0.0
C1140 C 0.89595 0.24293 0.58784 0.0
C1141 C 0.9783 0.2651 0.5408 0.0
H1142 H 0.00851 0.33832 0.49671 0.0
C1143 C 0.99109 0.23774 0.5306 0.0
C1144 C 0.98511 0.30206 0.52845 0.0
C1145 C 0.97423 0.33401 0.53887 0.0
C1146 C 0.00954 0.24584 0.5082 0.0
C1147 C 0.01582 0.28253 0.49578 0.0
C1148 C 0.00325 0.30994 0.50607 0.0
C1149 C 0.03722 0.29443 0.47258 0.0
C1150 C 0.02138 0.21461 0.49781 0.0
C1151 C 0.08014 0.30437 0.47018 0.0
C1152 C 0.10179 0.31967 0.44904 0.0
C1153 C 0.08103 0.32534 0.42973 0.0
C1154 C 0.03777 0.3146 0.43196 0.0
C1155 C 0.01614 0.29948 0.45323 0.0
H1156 H 0.00415 0.18288 0.50651 0.0
H1157 H 0.01407 0.21028 0.47893 0.0
H1158 H 0.05638 0.22724 0.50001 0.0
H1159 H 0.09745 0.30171 0.48491 0.0
H1160 H 0.13519 0.32788 0.44794 0.0
loop_
_geom_bond_atom_site_label_1
_geom_bond_atom_site_label_2
_geom_bond_distance
_geom_bond_site_symmetry_2
_ccdc_geom_bond_type
Zn0 O6 1.920 . S
Zn0 O12 1.898 . S
Zn0 O15 1.905 . S
Zn1 O9 1.905 . S
Zn1 O10 1.898 . S
Zn1 O18 1.920 . S
Zn2 O5 2.080 . S
Zn2 O8 2.114 1_455 S
Zn2 O11 2.120 . S
Zn2 O13 2.120 1_454 S
Zn2 O14 2.114 . S
Zn2 O17 2.080 1_455 S
C3 O8 1.166 . S
C3 O9 1.182 . S
C4 O10 1.167 . S
C4 O11 1.299 1_655 S
O5 Zn2 2.080 . S
O5 C19 1.305 1_554 S
O6 Zn0 1.920 . S
O6 C19 1.234 . S
C7 O12 1.167 . S
C7 O13 1.299 1_455 S
O8 Zn2 2.114 1_655 S
O8 C3 1.166 . S
O9 Zn1 1.905 . S
O9 C3 1.182 . S
O10 Zn1 1.898 . S
O10 C4 1.167 . S
O11 Zn2 2.120 . S
O11 C4 1.299 1_455 S
O12 Zn0 1.898 . S
O12 C7 1.167 . S
O13 Zn2 2.120 1_656 S
O13 C7 1.299 1_655 S
O14 Zn2 2.114 . S
O14 C16 1.166 . S
O15 Zn0 1.905 . S
O15 C16 1.182 1_556 S
C16 O14 1.166 . S
C16 O15 1.182 1_554 S
O17 Zn2 2.080 1_655 S
O17 C20 1.305 . S
O18 Zn1 1.920 . S
O18 C20 1.234 . S
C19 O5 1.305 1_556 S
C19 O6 1.234 . S
C20 O17 1.305 . S
C20 O18 1.234 . S
Zn21 O27 1.920 . S
Zn21 O33 1.898 . S
Zn21 O36 1.905 . S
Zn22 O30 1.905 . S
Zn22 O31 1.898 . S
Zn22 O39 1.920 . S
Zn23 O26 2.080 . S
Zn23 O29 2.114 . S
Zn23 O32 2.120 . S
Zn23 O34 2.120 1_554 S
Zn23 O35 2.114 . S
Zn23 O38 2.080 . S
C24 O29 1.166 . S
C24 O30 1.182 . S
C25 O31 1.167 . S
C25 O32 1.299 . S
O26 Zn23 2.080 . S
O26 C40 1.305 1_554 S
O27 Zn21 1.920 . S
O27 C40 1.234 . S
C28 O33 1.167 . S
C28 O34 1.299 . S
O29 Zn23 2.114 . S
O29 C24 1.166 . S
O30 Zn22 1.905 . S
O30 C24 1.182 . S
O31 Zn22 1.898 . S
O31 C25 1.167 . S
O32 Zn23 2.120 . S
O32 C25 1.299 . S
O33 Zn21 1.898 . S
O33 C28 1.167 . S
O34 Zn23 2.120 1_556 S
O34 C28 1.299 . S
O35 Zn23 2.114 . S
O35 C37 1.166 . S
O36 Zn21 1.905 . S
O36 C37 1.182 1_556 S
C37 O35 1.166 . S
C37 O36 1.182 1_554 S
O38 Zn23 2.080 . S
O38 C41 1.305 . S
O39 Zn22 1.920 . S
O39 C41 1.234 . S
C40 O26 1.305 1_556 S
C40 O27 1.234 . S
C41 O38 1.305 . S
C41 O39 1.234 . S
Zn42 O48 1.920 . S
Zn42 O54 1.898 . S
Zn42 O57 1.905 . S
Zn43 O51 1.905 . S
Zn43 O52 1.898 . S
Zn43 O60 1.920 . S
Zn44 O47 2.080 . S
Zn44 O50 2.114 1_545 S
Zn44 O53 2.120 1_554 S
Zn44 O55 2.117 1_545 S
Zn44 O56 2.114 . S
Zn44 O59 2.080 1_545 S
C45 O50 1.166 . S
C45 O51 1.182 1_554 S
C46 O52 1.167 . S
C46 O53 1.299 1_565 S
O47 Zn44 2.080 . S
O47 C61 1.305 . S
O48 Zn42 1.920 . S
O48 C61 1.234 . S
C49 O54 1.167 . S
C49 O55 1.283 1_545 S
O50 Zn44 2.114 1_565 S
O50 C45 1.166 . S
O51 Zn43 1.905 . S
O51 C45 1.182 1_556 S
O52 Zn43 1.898 . S
O52 C46 1.167 . S
O53 Zn44 2.120 1_556 S
O53 C46 1.299 1_545 S
O54 Zn42 1.898 . S
O54 C49 1.167 . S
O55 Zn44 2.117 1_565 S
O55 C49 1.283 1_565 S
O56 Zn44 2.114 . S
O56 C58 1.166 . S
O57 Zn42 1.905 . S
O57 C58 1.182 . S
C58 O56 1.166 . S
C58 O57 1.182 . S
O59 Zn44 2.080 1_565 S
O59 C62 1.305 1_554 S
O60 Zn43 1.920 . S
O60 C62 1.234 . S
C61 O47 1.305 . S
C61 O48 1.234 . S
C62 O59 1.305 1_556 S
C62 O60 1.234 . S
Zn63 O69 1.920 . S
Zn63 O75 1.898 . S
Zn63 O78 1.905 . S
Zn64 O72 1.905 . S
Zn64 O73 1.898 . S
Zn64 O81 1.920 . S
Zn65 O68 2.080 . S
Zn65 O71 2.114 . S
Zn65 O74 2.120 . S
Zn65 O76 2.120 . S
Zn65 O77 2.114 . S
Zn65 O80 2.080 . S
C66 O71 1.166 . S
C66 O72 1.182 . S
C67 O73 1.167 . S
C67 O74 1.299 . S
O68 Zn65 2.080 . S
O68 C82 1.305 . S
O69 Zn63 1.920 . S
O69 C82 1.234 . S
C70 O75 1.167 . S
C70 O76 1.299 . S
O71 Zn65 2.114 . S
O71 C66 1.166 . S
O72 Zn64 1.905 . S
O72 C66 1.182 . S
O73 Zn64 1.898 . S
O73 C67 1.167 . S
O74 Zn65 2.120 . S
O74 C67 1.299 . S
O75 Zn63 1.898 . S
O75 C70 1.167 . S
O76 Zn65 2.120 . S
O76 C70 1.299 . S
O77 Zn65 2.114 . S
O77 C79 1.166 . S
O78 Zn63 1.905 . S
O78 C79 1.182 . S
C79 O77 1.166 . S
C79 O78 1.182 . S
O80 Zn65 2.080 . S
O80 C83 1.305 . S
O81 Zn64 1.920 . S
O81 C83 1.234 . S
C82 O68 1.305 . S
C82 O69 1.234 . S
C83 O80 1.305 . S
C83 O81 1.234 . S
Zn84 O90 1.920 . S
Zn84 O96 1.898 . S
Zn84 O99 1.905 . S
Zn85 O93 1.905 1_565 S
Zn85 O94 1.898 . S
Zn85 O102 1.920 . S
Zn86 O89 2.080 . S
Zn86 O92 2.114 . S
Zn86 O95 2.120 . S
Zn86 O97 2.120 . S
Zn86 O98 2.114 . S
Zn86 O101 2.080 . S
C87 O92 1.166 1_545 S
C87 O93 1.182 . S
C88 O94 1.167 . S
C88 O95 1.299 . S
O89 Zn86 2.080 . S
O89 C103 1.305 . S
O90 Zn84 1.920 . S
O90 C103 1.234 . S
C91 O96 1.167 . S
C91 O97 1.299 . S
O92 Zn86 2.114 . S
O92 C87 1.166 1_565 S
O93 Zn85 1.905 1_545 S
O93 C87 1.182 . S
O94 Zn85 1.898 . S
O94 C88 1.167 . S
O95 Zn86 2.120 . S
O95 C88 1.299 . S
O96 Zn84 1.898 . S
O96 C91 1.167 . S
O97 Zn86 2.120 . S
O97 C91 1.299 . S
O98 Zn86 2.114 . S
O98 C100 1.166 . S
O99 Zn84 1.905 . S
O99 C100 1.182 . S
C100 O98 1.166 . S
C100 O99 1.182 . S
O101 Zn86 2.080 . S
O101 C104 1.305 . S
O102 Zn85 1.920 . S
O102 C104 1.234 . S
C103 O89 1.305 . S
C103 O90 1.234 . S
C104 O101 1.305 . S
C104 O102 1.234 . S
Zn105 O111 1.920 . S
Zn105 O117 1.898 . S
Zn105 O120 1.905 . S
Zn106 O114 1.905 . S
Zn106 O115 1.898 . S
Zn106 O123 1.920 . S
Zn107 O110 2.080 . S
Zn107 O113 2.114 . S
Zn107 O116 2.120 . S
Zn107 O118 2.120 . S
Zn107 O119 2.114 . S
Zn107 O122 2.080 . S
C108 O113 1.166 . S
C108 O114 1.182 . S
C109 O115 1.167 . S
C109 O116 1.299 . S
O110 Zn107 2.080 . S
O110 C124 1.305 . S
O111 Zn105 1.920 . S
O111 C124 1.234 . S
C112 O117 1.167 . S
C112 O118 1.299 . S
O113 Zn107 2.114 . S
O113 C108 1.166 . S
O114 Zn106 1.905 . S
O114 C108 1.182 . S
O115 Zn106 1.898 . S
O115 C109 1.167 . S
O116 Zn107 2.120 . S
O116 C109 1.299 . S
O117 Zn105 1.898 . S
O117 C112 1.167 . S
O118 Zn107 2.120 . S
O118 C112 1.299 . S
O119 Zn107 2.114 . S
O119 C121 1.166 . S
O120 Zn105 1.905 . S
O120 C121 1.182 . S
C121 O119 1.166 . S
C121 O120 1.182 . S
O122 Zn107 2.080 . S
O122 C125 1.305 . S
O123 Zn106 1.920 . S
O123 C125 1.234 . S
C124 O110 1.305 . S
C124 O111 1.234 . S
C125 O122 1.305 . S
C125 O123 1.234 . S
Zn126 O132 1.920 . S
Zn126 O138 1.898 . S
Zn126 O141 1.905 . S
Zn127 O135 1.905 . S
Zn127 O136 1.898 . S
Zn127 O144 1.920 . S
Zn128 O131 2.080 . S
Zn128 O134 2.114 . S
Zn128 O137 2.120 . S
Zn128 O139 2.120 . S
Zn128 O140 2.114 . S
Zn128 O143 2.080 . S
C129 O134 1.166 . S
C129 O135 1.182 . S
C130 O136 1.167 . S
C130 O137 1.299 . S
O131 Zn128 2.080 . S
O131 C145 1.305 . S
O132 Zn126 1.920 . S
O132 C145 1.234 . S
C133 O138 1.167 . S
C133 O139 1.299 . S
O134 Zn128 2.114 . S
O134 C129 1.166 . S
O135 Zn127 1.905 . S
O135 C129 1.182 . S
O136 Zn127 1.898 . S
O136 C130 1.167 . S
O137 Zn128 2.120 . S
O137 C130 1.299 . S
O138 Zn126 1.898 . S
O138 C133 1.167 . S
O139 Zn128 2.120 . S
O139 C133 1.299 . S
O140 Zn128 2.114 . S
O140 C142 1.166 . S
O141 Zn126 1.905 . S
O141 C142 1.182 . S
C142 O140 1.166 . S
C142 O141 1.182 . S
O143 Zn128 2.080 . S
O143 C146 1.305 . S
O144 Zn127 1.920 . S
O144 C146 1.234 . S
C145 O131 1.305 . S
C145 O132 1.234 . S
C146 O143 1.305 . S
C146 O144 1.234 . S
Zn147 O153 1.920 . S
Zn147 O159 1.898 . S
Zn147 O162 1.905 1_655 S
Zn148 O156 1.905 . S
Zn148 O157 1.898 . S
Zn148 O165 1.920 . S
Zn149 O152 2.080 . S
Zn149 O155 2.114 . S
Zn149 O158 2.120 . S
Zn149 O160 2.120 . S
Zn149 O161 2.114 . S
Zn149 O164 2.080 . S
C150 O155 1.166 . S
C150 O156 1.182 . S
C151 O157 1.167 . S
C151 O158 1.299 . S
O152 Zn149 2.080 . S
O152 C166 1.305 . S
O153 Zn147 1.920 . S
O153 C166 1.234 . S
C154 O159 1.167 . S
C154 O160 1.299 . S
O155 Zn149 2.114 . S
O155 C150 1.166 . S
O156 Zn148 1.905 . S
O156 C150 1.182 . S
O157 Zn148 1.898 . S
O157 C151 1.167 . S
O158 Zn149 2.120 . S
O158 C151 1.299 . S
O159 Zn147 1.898 . S
O159 C154 1.167 . S
O160 Zn149 2.120 . S
O160 C154 1.299 . S
O161 Zn149 2.114 . S
O161 C163 1.166 1_655 S
O162 Zn147 1.905 1_455 S
O162 C163 1.182 . S
C163 O161 1.166 1_455 S
C163 O162 1.182 . S
O164 Zn149 2.080 . S
O164 C167 1.305 . S
O165 Zn148 1.920 . S
O165 C167 1.234 . S
C166 O152 1.305 . S
C166 O153 1.234 . S
C167 O164 1.305 . S
C167 O165 1.234 . S
Zn168 O174 1.920 . S
Zn168 O180 1.898 . S
Zn168 O183 1.905 . S
Zn169 O177 1.905 . S
Zn169 O178 1.898 . S
Zn169 O186 1.920 . S
Zn170 O173 2.080 . S
Zn170 O176 2.114 . S
Zn170 O179 2.120 . S
Zn170 O181 2.120 . S
Zn170 O182 2.114 . S
Zn170 O185 2.080 . S
C171 O176 1.166 . S
C171 O177 1.182 . S
C172 O178 1.167 . S
C172 O179 1.299 . S
O173 Zn170 2.080 . S
O173 C187 1.305 . S
O174 Zn168 1.920 . S
O174 C187 1.234 . S
C175 O180 1.167 . S
C175 O181 1.299 . S
O176 Zn170 2.114 . S
O176 C171 1.166 . S
O177 Zn169 1.905 . S
O177 C171 1.182 . S
O178 Zn169 1.898 . S
O178 C172 1.167 . S
O179 Zn170 2.120 . S
O179 C172 1.299 . S
O180 Zn168 1.898 . S
O180 C175 1.167 . S
O181 Zn170 2.120 . S
O181 C175 1.299 . S
O182 Zn170 2.114 . S
O182 C184 1.166 . S
O183 Zn168 1.905 . S
O183 C184 1.182 . S
C184 O182 1.166 . S
C184 O183 1.182 . S
O185 Zn170 2.080 . S
O185 C188 1.305 . S
O186 Zn169 1.920 . S
O186 C188 1.234 . S
C187 O173 1.305 . S
C187 O174 1.234 . S
C188 O185 1.305 . S
C188 O186 1.234 . S
H189 C197 0.929 . S
H190 C199 0.930 . S
H191 C201 0.930 . S
H192 C204 0.929 . S
H193 C207 0.930 . S
H194 C209 0.960 . S
H195 C209 0.960 . S
H196 C209 0.957 1_556 S
C197 H189 0.929 . S
C197 C198 1.377 1_554 S
C197 C199 1.384 . S
C198 C197 1.377 1_556 S
C198 C204 1.390 . S
C199 H190 0.930 . S
C199 C197 1.384 . S
C199 C200 1.371 . S
C200 C199 1.371 . S
C200 C201 1.401 1_554 S
C200 C205 1.490 . S
C201 H191 0.930 . S
C201 C200 1.401 1_556 S
C201 C204 1.386 . S
H202 C218 0.930 . S
H203 C219 0.931 . S
C204 H192 0.929 . S
C204 C198 1.390 . S
C204 C201 1.386 . S
C205 C200 1.490 . S
C205 C207 1.395 1_554 S
C205 C208 1.403 . S
H206 C212 0.930 . S
C207 H193 0.930 . S
C207 C205 1.395 1_556 S
C207 C210 1.405 . S
C208 C205 1.403 . S
C208 C209 1.524 . S
C208 C212 1.400 . S
C209 H194 0.960 . S
C209 H195 0.960 . S
C209 H196 0.957 1_554 S
C209 C208 1.524 . S
C210 C207 1.405 . S
C210 C211 1.387 1_556 S
C210 C214 1.501 . S
C211 C210 1.387 1_554 S
C211 C212 1.385 . S
C211 C213 1.478 . S
C212 H206 0.930 . S
C212 C208 1.400 . S
C212 C211 1.385 . S
C213 C211 1.478 . S
C213 C215 1.381 . S
C213 C219 1.383 1_554 S
C214 C210 1.501 . S
C214 H220 0.959 . S
C214 H221 0.961 . S
C214 H222 0.960 1_556 S
C215 C213 1.381 . S
C215 C216 1.394 . S
C215 H223 0.930 . S
C216 C215 1.394 . S
C216 C217 1.383 . S
C216 H224 0.929 . S
C217 C216 1.383 . S
C217 C218 1.377 1_554 S
C218 H202 0.930 . S
C218 C217 1.377 1_556 S
C218 C219 1.379 . S
C219 H203 0.931 . S
C219 C213 1.383 1_556 S
C219 C218 1.379 . S
H220 C214 0.959 . S
H221 C214 0.961 . S
H222 C214 0.960 1_554 S
H223 C215 0.930 . S
H224 C216 0.929 . S
H225 C233 0.929 . S
H226 C235 0.930 . S
H227 C237 0.930 . S
H228 C240 0.929 . S
H229 C243 0.930 . S
H230 C245 0.960 . S
H231 C245 0.960 . S
H232 C245 0.960 . S
C233 H225 0.929 . S
C233 C234 1.377 . S
C233 C235 1.384 . S
C234 C233 1.377 . S
C234 C240 1.390 1_556 S
C235 H226 0.930 . S
C235 C233 1.384 . S
C235 C236 1.372 . S
C236 C235 1.372 . S
C236 C237 1.400 1_556 S
C236 C241 1.492 . S
C237 H227 0.930 . S
C237 C236 1.400 1_554 S
C237 C240 1.386 . S
H238 C254 0.930 . S
H239 C255 0.931 . S
C240 H228 0.929 . S
C240 C234 1.390 1_554 S
C240 C237 1.386 . S
C241 C236 1.492 . S
C241 C243 1.422 . S
C241 C244 1.374 1_556 S
H242 C248 0.930 . S
C243 H229 0.930 . S
C243 C241 1.422 . S
C243 C246 1.403 . S
C244 C241 1.374 1_554 S
C244 C245 1.524 . S
C244 C248 1.400 . S
C245 H230 0.960 . S
C245 H231 0.960 . S
C245 H232 0.960 . S
C245 C244 1.524 . S
C246 C243 1.403 . S
C246 C247 1.375 1_556 S
C246 C250 1.495 . S
C247 C246 1.375 1_554 S
C247 C248 1.402 . S
C247 C249 1.480 . S
C248 H242 0.930 . S
C248 C244 1.400 . S
C248 C247 1.402 . S
C249 C247 1.480 . S
C249 C251 1.381 1_554 S
C249 C255 1.383 . S
C250 C246 1.495 . S
C250 H256 0.959 . S
C250 H257 0.961 . S
C250 H258 0.960 . S
C251 C249 1.381 1_556 S
C251 C252 1.394 . S
C251 H259 0.930 . S
C252 C251 1.394 . S
C252 C253 1.383 1_556 S
C252 H260 0.929 . S
C253 C252 1.383 1_554 S
C253 C254 1.377 . S
C254 H238 0.930 . S
C254 C253 1.377 . S
C254 C255 1.379 . S
C255 H239 0.931 . S
C255 C249 1.383 . S
C255 C254 1.379 . S
H256 C250 0.959 . S
H257 C250 0.961 . S
H258 C250 0.960 . S
H259 C251 0.930 . S
H260 C252 0.929 . S
H261 C269 0.929 . S
H262 C271 0.930 . S
H263 C273 0.930 . S
H264 C276 0.929 . S
H265 C279 0.930 . S
H266 C281 0.960 . S
H267 C281 0.960 1_554 S
H268 C281 0.960 . S
C269 H261 0.929 . S
C269 C270 1.377 . S
C269 C271 1.384 . S
C270 C269 1.377 . S
C270 C276 1.390 1_554 S
C271 H262 0.930 . S
C271 C269 1.384 . S
C271 C272 1.372 . S
C272 C271 1.372 . S
C272 C273 1.400 1_554 S
C272 C277 1.490 . S
C273 H263 0.930 . S
C273 C272 1.400 1_556 S
C273 C276 1.386 . S
H274 C290 0.930 . S
H275 C291 0.931 . S
C276 H264 0.929 . S
C276 C270 1.390 1_556 S
C276 C273 1.386 . S
C277 C272 1.490 . S
C277 C279 1.395 . S
C277 C280 1.411 . S
H278 C284 0.930 . S
C279 H265 0.930 . S
C279 C277 1.395 . S
C279 C282 1.403 . S
C280 C277 1.411 . S
C280 C281 1.520 1_554 S
C280 C284 1.398 1_554 S
C281 H266 0.960 . S
C281 H267 0.960 1_556 S
C281 H268 0.960 . S
C281 C280 1.520 1_556 S
C282 C279 1.403 . S
C282 C283 1.392 . S
C282 C286 1.495 . S
C283 C282 1.392 . S
C283 C284 1.385 1_554 S
C283 C285 1.477 . S
C284 H278 0.930 . S
C284 C280 1.398 1_556 S
C284 C283 1.385 1_556 S
C285 C283 1.477 . S
C285 C287 1.379 . S
C285 C291 1.385 1_554 S
C286 C282 1.495 . S
C286 H292 0.959 . S
C286 H293 0.961 1_554 S
C286 H294 0.960 . S
C287 C285 1.379 . S
C287 C288 1.394 . S
C287 H295 0.930 . S
C288 C287 1.394 . S
C288 C289 1.383 1_554 S
C288 H296 0.929 . S
C289 C288 1.383 1_556 S
C289 C290 1.377 . S
C290 H274 0.930 . S
C290 C289 1.377 . S
C290 C291 1.379 . S
C291 H275 0.931 . S
C291 C285 1.385 1_556 S
C291 C290 1.379 . S
H292 C286 0.959 . S
H293 C286 0.961 1_556 S
H294 C286 0.960 . S
H295 C287 0.930 . S
H296 C288 0.929 . S
H297 C305 0.929 . S
H298 C307 0.930 . S
H299 C309 0.930 . S
H300 C312 0.929 . S
H301 C315 0.930 . S
H302 C317 0.960 . S
H303 C317 0.960 . S
H304 C317 0.960 . S
C305 H297 0.929 . S
C305 C306 1.377 . S
C305 C307 1.384 . S
C306 C305 1.377 . S
C306 C312 1.390 1_554 S
C307 H298 0.930 . S
C307 C305 1.384 . S
C307 C308 1.372 . S
C308 C307 1.372 . S
C308 C309 1.400 1_554 S
C308 C313 1.490 . S
C309 H299 0.930 . S
C309 C308 1.400 1_556 S
C309 C312 1.386 . S
H310 C326 0.930 1_556 S
H311 C327 0.912 1_556 S
C312 H300 0.929 . S
C312 C306 1.390 1_556 S
C312 C309 1.386 . S
C313 C308 1.490 . S
C313 C315 1.395 1_554 S
C313 C316 1.403 . S
H314 C320 0.930 . S
C315 H301 0.930 . S
C315 C313 1.395 1_556 S
C315 C318 1.403 . S
C316 C313 1.403 . S
C316 C317 1.524 . S
C316 C320 1.400 . S
C317 H302 0.960 . S
C317 H303 0.960 . S
C317 H304 0.960 . S
C317 C316 1.524 . S
C318 C315 1.403 . S
C318 C319 1.392 1_556 S
C318 C322 1.495 . S
C319 C318 1.392 1_554 S
C319 C320 1.385 . S
C319 C321 1.478 . S
C320 H314 0.930 . S
C320 C316 1.400 . S
C320 C319 1.385 . S
C321 C319 1.478 . S
C321 C323 1.381 . S
C321 C327 1.398 . S
C322 C318 1.495 . S
C322 H328 0.959 . S
C322 H329 0.961 . S
C322 H330 0.960 . S
C323 C321 1.381 . S
C323 C324 1.394 . S
C323 H331 0.930 . S
C324 C323 1.394 . S
C324 C325 1.383 . S
C324 H332 0.929 . S
C325 C324 1.383 . S
C325 C326 1.377 . S
C326 H310 0.930 1_554 S
C326 C325 1.377 . S
C326 C327 1.385 . S
C327 H311 0.912 1_554 S
C327 C321 1.398 . S
C327 C326 1.385 . S
H328 C322 0.959 . S
H329 C322 0.961 . S
H330 C322 0.960 . S
H331 C323 0.930 . S
H332 C324 0.929 . S
H333 C341 0.929 . S
H334 C343 0.930 . S
H335 C345 0.905 1_556 S
H336 C348 0.929 1_556 S
H337 C351 0.930 1_556 S
H338 C353 0.960 . S
H339 C353 0.960 . S
H340 C353 0.960 . S
C341 H333 0.929 . S
C341 C342 1.377 . S
C341 C343 1.384 . S
C342 C341 1.377 . S
C342 C348 1.390 . S
C343 H334 0.930 . S
C343 C341 1.384 . S
C343 C344 1.372 . S
C344 C343 1.372 . S
C344 C345 1.423 . S
C344 C349 1.490 . S
C345 H335 0.905 1_554 S
C345 C344 1.423 . S
C345 C348 1.389 . S
H346 C362 0.930 . S
H347 C363 0.931 . S
C348 H336 0.929 1_554 S
C348 C342 1.390 . S
C348 C345 1.389 . S
C349 C344 1.490 . S
C349 C351 1.395 . S
C349 C352 1.403 . S
H350 C356 0.930 . S
C351 H337 0.930 1_554 S
C351 C349 1.395 . S
C351 C354 1.402 1_554 S
C352 C349 1.403 . S
C352 C353 1.524 . S
C352 C356 1.400 . S
C353 H338 0.960 . S
C353 H339 0.960 . S
C353 H340 0.960 . S
C353 C352 1.524 . S
C354 C351 1.402 1_556 S
C354 C355 1.389 1_556 S
C354 C358 1.500 . S
C355 C354 1.389 1_554 S
C355 C356 1.385 . S
C355 C357 1.478 . S
C356 H350 0.930 . S
C356 C352 1.400 . S
C356 C355 1.385 . S
C357 C355 1.478 . S
C357 C359 1.381 . S
C357 C363 1.383 1_554 S
C358 C354 1.500 . S
C358 H364 0.959 . S
C358 H365 0.961 . S
C358 H366 0.960 1_556 S
C359 C357 1.381 . S
C359 C360 1.394 . S
C359 H367 0.930 . S
C360 C359 1.394 . S
C360 C361 1.385 1_554 S
C360 H368 0.929 . S
C361 C360 1.385 1_556 S
C361 C362 1.375 . S
C362 H346 0.930 . S
C362 C361 1.375 . S
C362 C363 1.379 . S
C363 H347 0.931 . S
C363 C357 1.383 1_556 S
C363 C362 1.379 . S
H364 C358 0.959 . S
H365 C358 0.961 . S
H366 C358 0.960 1_554 S
H367 C359 0.930 . S
H368 C360 0.929 . S
H369 C377 0.929 1_556 S
H370 C379 0.932 1_556 S
H371 C381 0.930 . S
H372 C384 0.929 . S
H373 C387 0.930 . S
H374 C389 0.960 . S
H375 C389 0.960 . S
H376 C389 0.960 1_554 S
C377 H369 0.929 1_554 S
C377 C378 1.377 . S
C377 C379 1.384 . S
C378 C377 1.377 . S
C378 C384 1.390 . S
C379 H370 0.932 1_554 S
C379 C377 1.384 . S
C379 C380 1.370 . S
C380 C379 1.370 . S
C380 C381 1.400 . S
C380 C385 1.490 . S
C381 H371 0.930 . S
C381 C380 1.400 . S
C381 C384 1.386 . S
H382 C398 0.930 . S
H383 C399 0.931 . S
C384 H372 0.929 . S
C384 C378 1.390 . S
C384 C381 1.386 . S
C385 C380 1.490 . S
C385 C387 1.395 . S
C385 C388 1.410 . S
H386 C392 0.932 1_556 S
C387 H373 0.930 . S
C387 C385 1.395 . S
C387 C390 1.403 . S
C388 C385 1.410 . S
C388 C389 1.517 1_554 S
C388 C392 1.400 . S
C389 H374 0.960 . S
C389 H375 0.960 . S
C389 H376 0.960 1_556 S
C389 C388 1.517 1_556 S
C390 C387 1.403 . S
C390 C391 1.392 . S
C390 C394 1.495 . S
C391 C390 1.392 . S
C391 C392 1.383 . S
C391 C393 1.478 . S
C392 H386 0.932 1_554 S
C392 C388 1.400 . S
C392 C391 1.383 . S
C393 C391 1.478 . S
C393 C395 1.381 1_554 S
C393 C399 1.383 . S
C394 C390 1.495 . S
C394 H400 0.959 . S
C394 H401 0.961 . S
C394 H402 0.960 . S
C395 C393 1.381 1_556 S
C395 C396 1.394 . S
C395 H403 0.930 . S
C396 C395 1.394 . S
C396 C397 1.383 1_556 S
C396 H404 0.929 . S
C397 C396 1.383 1_554 S
C397 C398 1.377 . S
C398 H382 0.930 . S
C398 C397 1.377 . S
C398 C399 1.379 . S
C399 H383 0.931 . S
C399 C393 1.383 . S
C399 C398 1.379 . S
H400 C394 0.959 . S
H401 C394 0.961 . S
H402 C394 0.960 . S
H403 C395 0.930 . S
H404 C396 0.929 . S
H405 C413 0.929 . S
H406 C415 0.930 . S
H407 C417 0.930 . S
H408 C420 0.929 . S
H409 C423 0.930 . S
H410 C425 0.960 . S
H411 C425 0.960 . S
H412 C425 0.960 . S
C413 H405 0.929 . S
C413 C414 1.377 . S
C413 C415 1.384 . S
C414 C413 1.377 . S
C414 C420 1.390 . S
C415 H406 0.930 . S
C415 C413 1.384 . S
C415 C416 1.372 . S
C416 C415 1.372 . S
C416 C417 1.400 . S
C416 C421 1.490 . S
C417 H407 0.930 . S
C417 C416 1.400 . S
C417 C420 1.386 . S
H418 C434 0.930 . S
H419 C435 0.931 . S
C420 H408 0.929 . S
C420 C414 1.390 . S
C420 C417 1.386 . S
C421 C416 1.490 . S
C421 C423 1.395 . S
C421 C424 1.403 . S
H422 C428 0.930 . S
C423 H409 0.930 . S
C423 C421 1.395 . S
C423 C426 1.403 . S
C424 C421 1.403 . S
C424 C425 1.524 . S
C424 C428 1.400 . S
C425 H410 0.960 . S
C425 H411 0.960 . S
C425 H412 0.960 . S
C425 C424 1.524 . S
C426 C423 1.403 . S
C426 C427 1.392 . S
C426 C430 1.495 1_655 S
C427 C426 1.392 . S
C427 C428 1.385 . S
C427 C429 1.478 1_655 S
C428 H422 0.930 . S
C428 C424 1.400 . S
C428 C427 1.385 . S
C429 C427 1.478 1_455 S
C429 C431 1.381 . S
C429 C435 1.383 . S
C430 C426 1.495 1_455 S
C430 H436 0.959 1_455 S
C430 H437 0.961 . S
C430 H438 0.960 . S
C431 C429 1.381 . S
C431 C432 1.394 . S
C431 H439 0.930 . S
C432 C431 1.394 . S
C432 C433 1.383 . S
C432 H440 0.929 . S
C433 C432 1.383 . S
C433 C434 1.377 . S
C434 H418 0.930 . S
C434 C433 1.377 . S
C434 C435 1.379 . S
C435 H419 0.931 . S
C435 C429 1.383 . S
C435 C434 1.379 . S
H436 C430 0.959 1_655 S
H437 C430 0.961 . S
H438 C430 0.960 . S
H439 C431 0.930 . S
H440 C432 0.929 . S
H441 C449 0.929 . S
H442 C451 0.930 . S
H443 C453 0.930 . S
H444 C456 0.929 . S
H445 C459 0.930 . S
H446 C461 0.960 . S
H447 C461 0.960 . S
H448 C461 0.960 . S
C449 H441 0.929 . S
C449 C450 1.377 . S
C449 C451 1.384 . S
C450 C449 1.377 . S
C450 C456 1.390 . S
C451 H442 0.930 . S
C451 C449 1.384 . S
C451 C452 1.372 . S
C452 C451 1.372 . S
C452 C453 1.400 . S
C452 C457 1.490 . S
C453 H443 0.930 . S
C453 C452 1.400 . S
C453 C456 1.386 . S
H454 C470 0.930 . S
H455 C471 0.931 . S
C456 H444 0.929 . S
C456 C450 1.390 . S
C456 C453 1.386 . S
C457 C452 1.490 . S
C457 C459 1.395 . S
C457 C460 1.403 . S
H458 C464 0.930 . S
C459 H445 0.930 . S
C459 C457 1.395 . S
C459 C462 1.403 . S
C460 C457 1.403 . S
C460 C461 1.524 . S
C460 C464 1.400 . S
C461 H446 0.960 . S
C461 H447 0.960 . S
C461 H448 0.960 . S
C461 C460 1.524 . S
C462 C459 1.403 . S
C462 C463 1.392 . S
C462 C466 1.495 . S
C463 C462 1.392 . S
C463 C464 1.385 . S
C463 C465 1.478 . S
C464 H458 0.930 . S
C464 C460 1.400 . S
C464 C463 1.385 . S
C465 C463 1.478 . S
C465 C467 1.381 . S
C465 C471 1.383 . S
C466 C462 1.495 . S
C466 H472 0.959 . S
C466 H473 0.961 . S
C466 H474 0.960 . S
C467 C465 1.381 . S
C467 C468 1.394 . S
C467 H475 0.930 . S
C468 C467 1.394 . S
C468 C469 1.383 . S
C468 H476 0.911 1_545 S
C469 C468 1.383 . S
C469 C470 1.377 . S
C470 H454 0.930 . S
C470 C469 1.377 . S
C470 C471 1.379 . S
C471 H455 0.931 . S
C471 C465 1.383 . S
C471 C470 1.379 . S
H472 C466 0.959 . S
H473 C466 0.961 . S
H474 C466 0.960 . S
H475 C467 0.930 . S
H476 C468 0.911 1_565 S
H477 C485 0.929 1_455 S
H478 C487 0.930 . S
H479 C489 0.930 . S
H480 C492 0.929 . S
H481 C495 0.930 . S
H482 C497 0.960 . S
H483 C497 0.960 . S
H484 C497 0.960 . S
C485 H477 0.929 1_655 S
C485 C486 1.377 . S
C485 C487 1.384 . S
C486 C485 1.377 . S
C486 C492 1.390 . S
C487 H478 0.930 . S
C487 C485 1.384 . S
C487 C488 1.372 . S
C488 C487 1.372 . S
C488 C489 1.400 . S
C488 C493 1.490 . S
C489 H479 0.930 . S
C489 C488 1.400 . S
C489 C492 1.386 . S
H490 C506 0.930 . S
H491 C507 0.931 . S
C492 H480 0.929 . S
C492 C486 1.390 . S
C492 C489 1.386 . S
C493 C488 1.490 . S
C493 C495 1.395 . S
C493 C496 1.403 . S
H494 C500 0.930 . S
C495 H481 0.930 . S
C495 C493 1.395 . S
C495 C498 1.403 . S
C496 C493 1.403 . S
C496 C497 1.524 . S
C496 C500 1.400 . S
C497 H482 0.960 . S
C497 H483 0.960 . S
C497 H484 0.960 . S
C497 C496 1.524 . S
C498 C495 1.403 . S
C498 C499 1.392 . S
C498 C502 1.495 . S
C499 C498 1.392 . S
C499 C500 1.385 . S
C499 C501 1.478 1_545 S
C500 H494 0.930 . S
C500 C496 1.400 . S
C500 C499 1.385 . S
C501 C499 1.478 1_565 S
C501 C503 1.381 . S
C501 C507 1.383 . S
C502 C498 1.495 . S
C502 H508 0.959 . S
C502 H509 0.961 1_545 S
C502 H510 0.960 1_545 S
C503 C501 1.381 . S
C503 C504 1.394 . S
C503 H511 0.930 . S
C504 C503 1.394 . S
C504 C505 1.383 . S
C504 H512 0.929 . S
C505 C504 1.383 . S
C505 C506 1.377 . S
C506 H490 0.930 . S
C506 C505 1.377 . S
C506 C507 1.379 . S
C507 H491 0.931 . S
C507 C501 1.383 . S
C507 C506 1.379 . S
H508 C502 0.959 . S
H509 C502 0.961 1_565 S
H510 C502 0.960 1_565 S
H511 C503 0.930 . S
H512 C504 0.929 . S
H513 C521 0.929 . S
H514 C523 0.930 . S
H515 C525 0.930 . S
H516 C528 0.929 . S
H517 C531 0.930 . S
H518 C533 0.960 . S
H519 C533 0.960 . S
H520 C533 0.960 . S
C521 H513 0.929 . S
C521 C522 1.377 . S
C521 C523 1.384 . S
C522 C521 1.377 . S
C522 C528 1.390 . S
C523 H514 0.930 . S
C523 C521 1.384 . S
C523 C524 1.372 . S
C524 C523 1.372 . S
C524 C525 1.400 . S
C524 C529 1.490 . S
C525 H515 0.930 . S
C525 C524 1.400 . S
C525 C528 1.386 . S
H526 C542 0.930 . S
H527 C543 0.931 . S
C528 H516 0.929 . S
C528 C522 1.390 . S
C528 C525 1.386 . S
C529 C524 1.490 . S
C529 C531 1.395 . S
C529 C532 1.403 . S
H530 C536 0.930 . S
C531 H517 0.930 . S
C531 C529 1.395 . S
C531 C534 1.403 . S
C532 C529 1.403 . S
C532 C533 1.524 . S
C532 C536 1.400 . S
C533 H518 0.960 . S
C533 H519 0.960 . S
C533 H520 0.960 . S
C533 C532 1.524 . S
C534 C531 1.403 . S
C534 C535 1.392 . S
C534 C538 1.495 . S
C535 C534 1.392 . S
C535 C536 1.385 . S
C535 C537 1.478 . S
C536 H530 0.930 . S
C536 C532 1.400 . S
C536 C535 1.385 . S
C537 C535 1.478 . S
C537 C539 1.381 . S
C537 C543 1.383 . S
C538 C534 1.495 . S
C538 H544 0.959 . S
C538 H545 0.961 . S
C538 H546 0.960 . S
C539 C537 1.381 . S
C539 C540 1.394 . S
C539 H547 0.930 . S
C540 C539 1.394 . S
C540 C541 1.383 . S
C540 H548 0.929 . S
C541 C540 1.383 . S
C541 C542 1.377 . S
C542 H526 0.930 . S
C542 C541 1.377 . S
C542 C543 1.379 . S
C543 H527 0.931 . S
C543 C537 1.383 . S
C543 C542 1.379 . S
H544 C538 0.959 . S
H545 C538 0.961 . S
H546 C538 0.960 . S
H547 C539 0.930 . S
H548 C540 0.929 . S
H549 C557 0.929 . S
H550 C559 0.930 . S
H551 C561 0.930 . S
H552 C564 0.929 . S
H553 C567 0.930 . S
H554 C569 0.960 . S
H555 C569 0.960 . S
H556 C569 0.960 . S
C557 H549 0.929 . S
C557 C558 1.377 . S
C557 C559 1.384 . S
C558 C557 1.377 . S
C558 C564 1.390 . S
C559 H550 0.930 . S
C559 C557 1.384 . S
C559 C560 1.372 . S
C560 C559 1.372 . S
C560 C561 1.400 . S
C560 C565 1.490 . S
C561 H551 0.930 . S
C561 C560 1.400 . S
C561 C564 1.386 . S
H562 C578 0.930 . S
H563 C579 0.931 . S
C564 H552 0.929 . S
C564 C558 1.390 . S
C564 C561 1.386 . S
C565 C560 1.490 . S
C565 C567 1.395 . S
C565 C568 1.403 . S
H566 C572 0.930 . S
C567 H553 0.930 . S
C567 C565 1.395 . S
C567 C570 1.403 . S
C568 C565 1.403 . S
C568 C569 1.524 . S
C568 C572 1.400 . S
C569 H554 0.960 . S
C569 H555 0.960 . S
C569 H556 0.960 . S
C569 C568 1.524 . S
C570 C567 1.403 . S
C570 C571 1.392 . S
C570 C574 1.495 . S
C571 C570 1.392 . S
C571 C572 1.385 . S
C571 C573 1.478 . S
C572 H566 0.930 . S
C572 C568 1.400 . S
C572 C571 1.385 . S
C573 C571 1.478 . S
C573 C575 1.381 . S
C573 C579 1.383 . S
C574 C570 1.495 . S
C574 H580 0.959 . S
C574 H581 0.961 . S
C574 H582 0.960 . S
C575 C573 1.381 . S
C575 C576 1.394 . S
C575 H583 0.930 . S
C576 C575 1.394 . S
C576 C577 1.383 . S
C576 H584 0.929 . S
C577 C576 1.383 . S
C577 C578 1.377 . S
C578 H562 0.930 . S
C578 C577 1.377 . S
C578 C579 1.379 . S
C579 H563 0.931 . S
C579 C573 1.383 . S
C579 C578 1.379 . S
H580 C574 0.959 . S
H581 C574 0.961 . S
H582 C574 0.960 . S
H583 C575 0.930 . S
H584 C576 0.929 . S
H585 C593 0.929 . S
H586 C595 0.930 . S
H587 C597 0.930 . S
H588 C600 0.929 . S
H589 C603 0.930 . S
H590 C605 0.960 . S
H591 C605 0.960 . S
H592 C605 0.960 . S
C593 H585 0.929 . S
C593 C594 1.377 . S
C593 C595 1.384 . S
C594 C593 1.377 . S
C594 C600 1.390 . S
C595 H586 0.930 . S
C595 C593 1.384 . S
C595 C596 1.372 . S
C596 C595 1.372 . S
C596 C597 1.400 . S
C596 C601 1.490 . S
C597 H587 0.930 . S
C597 C596 1.400 . S
C597 C600 1.386 . S
H598 C614 0.930 . S
H599 C615 0.931 . S
C600 H588 0.929 . S
C600 C594 1.390 . S
C600 C597 1.386 . S
C601 C596 1.490 . S
C601 C603 1.395 . S
C601 C604 1.403 . S
H602 C608 0.930 . S
C603 H589 0.930 . S
C603 C601 1.395 . S
C603 C606 1.403 . S
C604 C601 1.403 . S
C604 C605 1.524 . S
C604 C608 1.400 . S
C605 H590 0.960 . S
C605 H591 0.960 . S
C605 H592 0.960 . S
C605 C604 1.524 . S
C606 C603 1.403 . S
C606 C607 1.392 . S
C606 C610 1.495 . S
C607 C606 1.392 . S
C607 C608 1.385 . S
C607 C609 1.478 . S
C608 H602 0.930 . S
C608 C604 1.400 . S
C608 C607 1.385 . S
C609 C607 1.478 . S
C609 C611 1.381 . S
C609 C615 1.383 . S
C610 C606 1.495 . S
C610 H616 0.959 . S
C610 H617 0.961 . S
C610 H618 0.960 . S
C611 C609 1.381 . S
C611 C612 1.394 . S
C611 H619 0.930 . S
C612 C611 1.394 . S
C612 C613 1.383 . S
C612 H620 0.929 . S
C613 C612 1.383 . S
C613 C614 1.377 . S
C614 H598 0.930 . S
C614 C613 1.377 . S
C614 C615 1.379 . S
C615 H599 0.931 . S
C615 C609 1.383 . S
C615 C614 1.379 . S
H616 C610 0.959 . S
H617 C610 0.961 . S
H618 C610 0.960 . S
H619 C611 0.930 . S
H620 C612 0.929 . S
H621 C629 0.929 . S
H622 C631 0.930 . S
H623 C633 0.930 . S
H624 C636 0.929 . S
H625 C639 0.930 . S
H626 C641 0.960 . S
H627 C641 0.960 . S
H628 C641 0.960 . S
C629 H621 0.929 . S
C629 C630 1.377 . S
C629 C631 1.384 . S
C630 C629 1.377 . S
C630 C636 1.390 . S
C631 H622 0.930 . S
C631 C629 1.384 . S
C631 C632 1.372 . S
C632 C631 1.372 . S
C632 C633 1.400 . S
C632 C637 1.490 . S
C633 H623 0.930 . S
C633 C632 1.400 . S
C633 C636 1.386 . S
H634 C650 0.930 . S
H635 C651 0.931 . S
C636 H624 0.929 . S
C636 C630 1.390 . S
C636 C633 1.386 . S
C637 C632 1.490 . S
C637 C639 1.395 . S
C637 C640 1.403 . S
H638 C644 0.930 . S
C639 H625 0.930 . S
C639 C637 1.395 . S
C639 C642 1.403 . S
C640 C637 1.403 . S
C640 C641 1.524 . S
C640 C644 1.400 . S
C641 H626 0.960 . S
C641 H627 0.960 . S
C641 H628 0.960 . S
C641 C640 1.524 . S
C642 C639 1.403 . S
C642 C643 1.392 . S
C642 C646 1.495 . S
C643 C642 1.392 . S
C643 C644 1.385 . S
C643 C645 1.478 . S
C644 H638 0.930 . S
C644 C640 1.400 . S
C644 C643 1.385 . S
C645 C643 1.478 . S
C645 C647 1.381 . S
C645 C651 1.383 . S
C646 C642 1.495 . S
C646 H652 0.959 . S
C646 H653 0.961 . S
C646 H654 0.960 . S
C647 C645 1.381 . S
C647 C648 1.394 . S
C647 H655 0.930 . S
C648 C647 1.394 . S
C648 C649 1.383 . S
C648 H656 0.929 . S
C649 C648 1.383 . S
C649 C650 1.377 . S
C650 H634 0.930 . S
C650 C649 1.377 . S
C650 C651 1.379 . S
C651 H635 0.931 . S
C651 C645 1.383 . S
C651 C650 1.379 . S
H652 C646 0.959 . S
H653 C646 0.961 . S
H654 C646 0.960 . S
H655 C647 0.930 . S
H656 C648 0.929 . S
H657 C665 0.929 . S
H658 C667 0.930 . S
H659 C669 0.930 . S
H660 C672 0.929 . S
H661 C675 0.930 . S
H662 C677 0.960 . S
H663 C677 0.960 . S
H664 C677 0.960 . S
C665 H657 0.929 . S
C665 C666 1.377 . S
C665 C667 1.384 . S
C666 C665 1.377 . S
C666 C672 1.390 . S
C667 H658 0.930 . S
C667 C665 1.384 . S
C667 C668 1.372 . S
C668 C667 1.372 . S
C668 C669 1.400 . S
C668 C673 1.490 . S
C669 H659 0.930 . S
C669 C668 1.400 . S
C669 C672 1.386 . S
H670 C686 0.930 . S
H671 C687 0.931 . S
C672 H660 0.929 . S
C672 C666 1.390 . S
C672 C669 1.386 . S
C673 C668 1.490 . S
C673 C675 1.395 . S
C673 C676 1.403 . S
H674 C680 0.930 . S
C675 H661 0.930 . S
C675 C673 1.395 . S
C675 C678 1.403 . S
C676 C673 1.403 . S
C676 C677 1.524 . S
C676 C680 1.400 . S
C677 H662 0.960 . S
C677 H663 0.960 . S
C677 H664 0.960 . S
C677 C676 1.524 . S
C678 C675 1.403 . S
C678 C679 1.392 . S
C678 C682 1.495 . S
C679 C678 1.392 . S
C679 C680 1.385 . S
C679 C681 1.478 . S
C680 H674 0.930 . S
C680 C676 1.400 . S
C680 C679 1.385 . S
C681 C679 1.478 . S
C681 C683 1.381 . S
C681 C687 1.383 . S
C682 C678 1.495 . S
C682 H688 0.959 . S
C682 H689 0.961 . S
C682 H690 0.960 . S
C683 C681 1.381 . S
C683 C684 1.394 . S
C683 H691 0.930 . S
C684 C683 1.394 . S
C684 C685 1.383 . S
C684 H692 0.929 . S
C685 C684 1.383 . S
C685 C686 1.377 . S
C686 H670 0.930 . S
C686 C685 1.377 . S
C686 C687 1.379 . S
C687 H671 0.931 . S
C687 C681 1.383 . S
C687 C686 1.379 . S
H688 C682 0.959 . S
H689 C682 0.961 . S
H690 C682 0.960 . S
H691 C683 0.930 . S
H692 C684 0.929 . S
H693 C701 0.929 . S
H694 C703 0.930 . S
H695 C705 0.930 . S
H696 C708 0.929 . S
H697 C711 0.930 . S
H698 C713 0.960 . S
H699 C713 0.960 . S
H700 C713 0.960 . S
C701 H693 0.929 . S
C701 C702 1.377 . S
C701 C703 1.384 . S
C702 C701 1.377 . S
C702 C708 1.390 . S
C703 H694 0.930 . S
C703 C701 1.384 . S
C703 C704 1.372 . S
C704 C703 1.372 . S
C704 C705 1.400 . S
C704 C709 1.490 . S
C705 H695 0.930 . S
C705 C704 1.400 . S
C705 C708 1.386 . S
H706 C722 0.930 . S
H707 C723 0.931 . S
C708 H696 0.929 . S
C708 C702 1.390 . S
C708 C705 1.386 . S
C709 C704 1.490 . S
C709 C711 1.395 . S
C709 C712 1.403 . S
H710 C716 0.930 . S
C711 H697 0.930 . S
C711 C709 1.395 . S
C711 C714 1.403 . S
C712 C709 1.403 . S
C712 C713 1.524 . S
C712 C716 1.400 . S
C713 H698 0.960 . S
C713 H699 0.960 . S
C713 H700 0.960 . S
C713 C712 1.524 . S
C714 C711 1.403 . S
C714 C715 1.392 . S
C714 C718 1.495 . S
C715 C714 1.392 . S
C715 C716 1.385 . S
C715 C717 1.478 . S
C716 H710 0.930 . S
C716 C712 1.400 . S
C716 C715 1.385 . S
C717 C715 1.478 . S
C717 C719 1.381 . S
C717 C723 1.383 . S
C718 C714 1.495 . S
C718 H724 0.959 . S
C718 H725 0.961 . S
C718 H726 0.960 . S
C719 C717 1.381 . S
C719 C720 1.394 . S
C719 H727 0.930 . S
C720 C719 1.394 . S
C720 C721 1.383 . S
C720 H728 0.929 . S
C721 C720 1.383 . S
C721 C722 1.377 . S
C722 H706 0.930 . S
C722 C721 1.377 . S
C722 C723 1.379 . S
C723 H707 0.931 . S
C723 C717 1.383 . S
C723 C722 1.379 . S
H724 C718 0.959 . S
H725 C718 0.961 . S
H726 C718 0.960 . S
H727 C719 0.930 . S
H728 C720 0.929 . S
H729 C737 0.929 . S
H730 C739 0.930 . S
H731 C741 0.930 . S
H732 C744 0.929 . S
H733 C747 0.930 . S
H734 C749 0.960 . S
H735 C749 0.960 . S
H736 C749 0.960 . S
C737 H729 0.929 . S
C737 C738 1.377 . S
C737 C739 1.384 . S
C738 C737 1.377 . S
C738 C744 1.390 . S
C739 H730 0.930 . S
C739 C737 1.384 . S
C739 C740 1.372 . S
C740 C739 1.372 . S
C740 C741 1.400 . S
C740 C745 1.490 . S
C741 H731 0.930 . S
C741 C740 1.400 . S
C741 C744 1.386 . S
H742 C758 0.930 . S
H743 C759 0.931 . S
C744 H732 0.929 . S
C744 C738 1.390 . S
C744 C741 1.386 . S
C745 C740 1.490 . S
C745 C747 1.395 . S
C745 C748 1.403 . S
H746 C752 0.941 . S
C747 H733 0.930 . S
C747 C745 1.395 . S
C747 C750 1.403 . S
C748 C745 1.403 . S
C748 C749 1.524 . S
C748 C752 1.400 . S
C749 H734 0.960 . S
C749 H735 0.960 . S
C749 H736 0.960 . S
C749 C748 1.524 . S
C750 C747 1.403 . S
C750 C751 1.392 . S
C750 C754 1.495 . S
C751 C750 1.392 . S
C751 C752 1.385 . S
C751 C753 1.478 1_565 S
C752 H746 0.941 . S
C752 C748 1.400 . S
C752 C751 1.385 . S
C753 C751 1.478 1_545 S
C753 C755 1.381 . S
C753 C759 1.383 . S
C754 C750 1.495 . S
C754 H760 0.959 . S
C754 H761 0.961 . S
C754 H762 0.960 . S
C755 C753 1.381 . S
C755 C756 1.394 . S
C755 H763 0.930 . S
C756 C755 1.394 . S
C756 C757 1.383 . S
C756 H764 0.929 . S
C757 C756 1.383 . S
C757 C758 1.377 . S
C758 H742 0.930 . S
C758 C757 1.377 . S
C758 C759 1.379 . S
C759 H743 0.931 . S
C759 C753 1.383 . S
C759 C758 1.379 . S
H760 C754 0.959 . S
H761 C754 0.961 . S
H762 C754 0.960 . S
H763 C755 0.930 . S
H764 C756 0.929 . S
H765 C773 0.929 . S
H766 C775 0.930 . S
H767 C777 0.930 . S
H768 C780 0.929 . S
H769 C783 0.930 . S
H770 C785 0.960 . S
H771 C785 0.960 1_655 S
H772 C785 0.960 1_655 S
C773 H765 0.929 . S
C773 C774 1.377 . S
C773 C775 1.384 . S
C774 C773 1.377 . S
C774 C780 1.390 . S
C775 H766 0.930 . S
C775 C773 1.384 . S
C775 C776 1.372 . S
C776 C775 1.372 . S
C776 C777 1.400 . S
C776 C781 1.490 1_655 S
C777 H767 0.930 . S
C777 C776 1.400 . S
C777 C780 1.386 . S
H778 C794 0.930 . S
H779 C795 0.931 . S
C780 H768 0.929 . S
C780 C774 1.390 . S
C780 C777 1.386 . S
C781 C776 1.490 1_455 S
C781 C783 1.395 . S
C781 C784 1.403 . S
H782 C788 0.930 . S
C783 H769 0.930 . S
C783 C781 1.395 . S
C783 C786 1.403 . S
C784 C781 1.403 . S
C784 C785 1.524 . S
C784 C788 1.400 . S
C785 H770 0.960 . S
C785 H771 0.960 1_455 S
C785 H772 0.960 1_455 S
C785 C784 1.524 . S
C786 C783 1.403 . S
C786 C787 1.392 . S
C786 C790 1.495 . S
C787 C786 1.392 . S
C787 C788 1.385 . S
C787 C789 1.478 . S
C788 H782 0.930 . S
C788 C784 1.400 . S
C788 C787 1.385 . S
C789 C787 1.478 . S
C789 C791 1.381 . S
C789 C795 1.383 . S
C790 C786 1.495 . S
C790 H796 0.959 . S
C790 H797 0.961 . S
C790 H798 0.960 . S
C791 C789 1.381 . S
C791 C792 1.394 . S
C791 H799 0.930 . S
C792 C791 1.394 . S
C792 C793 1.383 . S
C792 H800 0.929 . S
C793 C792 1.383 . S
C793 C794 1.377 . S
C794 H778 0.930 . S
C794 C793 1.377 . S
C794 C795 1.379 . S
C795 H779 0.931 . S
C795 C789 1.383 . S
C795 C794 1.379 . S
H796 C790 0.959 . S
H797 C790 0.961 . S
H798 C790 0.960 . S
H799 C791 0.930 . S
H800 C792 0.929 . S
H801 C809 0.929 . S
H802 C811 0.930 . S
H803 C813 0.930 . S
H804 C816 0.929 . S
H805 C819 0.930 . S
H806 C821 0.960 . S
H807 C821 0.960 . S
H808 C821 0.960 . S
C809 H801 0.929 . S
C809 C810 1.377 . S
C809 C811 1.384 . S
C810 C809 1.377 . S
C810 C816 1.390 . S
C811 H802 0.930 . S
C811 C809 1.384 . S
C811 C812 1.372 . S
C812 C811 1.372 . S
C812 C813 1.400 . S
C812 C817 1.490 . S
C813 H803 0.930 . S
C813 C812 1.400 . S
C813 C816 1.386 . S
H814 C830 0.930 . S
H815 C831 0.931 . S
C816 H804 0.929 . S
C816 C810 1.390 . S
C816 C813 1.386 . S
C817 C812 1.490 . S
C817 C819 1.395 . S
C817 C820 1.403 . S
H818 C824 0.930 . S
C819 H805 0.930 . S
C819 C817 1.395 . S
C819 C822 1.403 . S
C820 C817 1.403 . S
C820 C821 1.524 . S
C820 C824 1.400 . S
C821 H806 0.960 . S
C821 H807 0.960 . S
C821 H808 0.960 . S
C821 C820 1.524 . S
C822 C819 1.403 . S
C822 C823 1.392 . S
C822 C826 1.495 . S
C823 C822 1.392 . S
C823 C824 1.385 . S
C823 C825 1.478 . S
C824 H818 0.930 . S
C824 C820 1.400 . S
C824 C823 1.385 . S
C825 C823 1.478 . S
C825 C827 1.381 . S
C825 C831 1.383 . S
C826 C822 1.495 . S
C826 H832 0.959 . S
C826 H833 0.961 . S
C826 H834 0.960 . S
C827 C825 1.381 . S
C827 C828 1.394 . S
C827 H835 0.930 . S
C828 C827 1.394 . S
C828 C829 1.383 . S
C828 H836 0.942 . S
C829 C828 1.383 . S
C829 C830 1.377 . S
C830 H814 0.930 . S
C830 C829 1.377 . S
C830 C831 1.379 . S
C831 H815 0.931 . S
C831 C825 1.383 . S
C831 C830 1.379 . S
H832 C826 0.959 . S
H833 C826 0.961 . S
H834 C826 0.960 . S
H835 C827 0.930 . S
H836 C828 0.942 . S
H837 C845 0.929 . S
H838 C847 0.930 . S
H839 C849 0.930 . S
H840 C852 0.929 . S
H841 C855 0.930 . S
H842 C857 0.960 . S
H843 C857 0.960 . S
H844 C857 0.960 . S
C845 H837 0.929 . S
C845 C846 1.377 . S
C845 C847 1.384 . S
C846 C845 1.377 . S
C846 C852 1.390 . S
C847 H838 0.930 . S
C847 C845 1.384 . S
C847 C848 1.372 . S
C848 C847 1.372 . S
C848 C849 1.400 . S
C848 C853 1.490 . S
C849 H839 0.930 . S
C849 C848 1.400 . S
C849 C852 1.386 . S
H850 C866 0.930 . S
H851 C867 0.931 . S
C852 H840 0.929 . S
C852 C846 1.390 . S
C852 C849 1.386 . S
C853 C848 1.490 . S
C853 C855 1.395 . S
C853 C856 1.403 . S
H854 C860 0.930 1_655 S
C855 H841 0.930 . S
C855 C853 1.395 . S
C855 C858 1.403 . S
C856 C853 1.403 . S
C856 C857 1.524 1_455 S
C856 C860 1.400 . S
C857 H842 0.960 . S
C857 H843 0.960 . S
C857 H844 0.960 . S
C857 C856 1.524 1_655 S
C858 C855 1.403 . S
C858 C859 1.392 . S
C858 C862 1.495 . S
C859 C858 1.392 . S
C859 C860 1.385 . S
C859 C861 1.478 . S
C860 H854 0.930 1_455 S
C860 C856 1.400 . S
C860 C859 1.385 . S
C861 C859 1.478 . S
C861 C863 1.381 . S
C861 C867 1.383 . S
C862 C858 1.495 . S
C862 H868 0.959 . S
C862 H869 0.961 . S
C862 H870 0.960 . S
C863 C861 1.381 . S
C863 C864 1.394 . S
C863 H871 0.930 . S
C864 C863 1.394 . S
C864 C865 1.383 . S
C864 H872 0.929 . S
C865 C864 1.383 . S
C865 C866 1.377 . S
C866 H850 0.930 . S
C866 C865 1.377 . S
C866 C867 1.379 . S
C867 H851 0.931 . S
C867 C861 1.383 . S
C867 C866 1.379 . S
H868 C862 0.959 . S
H869 C862 0.961 . S
H870 C862 0.960 . S
H871 C863 0.930 . S
H872 C864 0.929 . S
H873 C881 0.929 . S
H874 C883 0.930 . S
H875 C885 0.930 . S
H876 C888 0.929 . S
H877 C891 0.930 . S
H878 C893 0.960 . S
H879 C893 0.960 . S
H880 C893 0.960 . S
C881 H873 0.929 . S
C881 C882 1.377 . S
C881 C883 1.384 . S
C882 C881 1.377 . S
C882 C888 1.390 . S
C883 H874 0.930 . S
C883 C881 1.384 . S
C883 C884 1.372 . S
C884 C883 1.372 . S
C884 C885 1.400 . S
C884 C889 1.490 . S
C885 H875 0.930 . S
C885 C884 1.400 . S
C885 C888 1.386 . S
H886 C902 0.930 . S
H887 C903 0.931 . S
C888 H876 0.929 . S
C888 C882 1.390 . S
C888 C885 1.386 . S
C889 C884 1.490 . S
C889 C891 1.395 . S
C889 C892 1.403 . S
H890 C896 0.930 . S
C891 H877 0.930 . S
C891 C889 1.395 . S
C891 C894 1.403 . S
C892 C889 1.403 . S
C892 C893 1.524 . S
C892 C896 1.400 . S
C893 H878 0.960 . S
C893 H879 0.960 . S
C893 H880 0.960 . S
C893 C892 1.524 . S
C894 C891 1.403 . S
C894 C895 1.392 . S
C894 C898 1.495 . S
C895 C894 1.392 . S
C895 C896 1.385 . S
C895 C897 1.478 . S
C896 H890 0.930 . S
C896 C892 1.400 . S
C896 C895 1.385 . S
C897 C895 1.478 . S
C897 C899 1.381 . S
C897 C903 1.383 . S
C898 C894 1.495 . S
C898 H904 0.959 . S
C898 H905 0.961 . S
C898 H906 0.960 . S
C899 C897 1.381 . S
C899 C900 1.394 . S
C899 H907 0.930 . S
C900 C899 1.394 . S
C900 C901 1.383 . S
C900 H908 0.929 . S
C901 C900 1.383 . S
C901 C902 1.377 . S
C902 H886 0.930 . S
C902 C901 1.377 . S
C902 C903 1.379 . S
C903 H887 0.931 . S
C903 C897 1.383 . S
C903 C902 1.379 . S
H904 C898 0.959 . S
H905 C898 0.961 . S
H906 C898 0.960 . S
H907 C899 0.930 . S
H908 C900 0.929 . S
H909 C917 0.929 . S
H910 C919 0.930 . S
H911 C921 0.930 . S
H912 C924 0.929 . S
H913 C927 0.930 1_545 S
H914 C929 0.960 . S
H915 C929 0.960 . S
H916 C929 0.960 . S
C917 H909 0.929 . S
C917 C918 1.377 . S
C917 C919 1.384 . S
C918 C917 1.377 . S
C918 C924 1.390 . S
C919 H910 0.930 . S
C919 C917 1.384 . S
C919 C920 1.372 . S
C920 C919 1.372 . S
C920 C921 1.400 . S
C920 C925 1.490 . S
C921 H911 0.930 . S
C921 C920 1.400 . S
C921 C924 1.386 . S
H922 C938 0.930 . S
H923 C939 0.931 . S
C924 H912 0.929 . S
C924 C918 1.390 . S
C924 C921 1.386 . S
C925 C920 1.490 . S
C925 C927 1.395 . S
C925 C928 1.403 . S
H926 C932 0.930 . S
C927 H913 0.930 1_565 S
C927 C925 1.395 . S
C927 C930 1.403 . S
C928 C925 1.403 . S
C928 C929 1.524 . S
C928 C932 1.400 . S
C929 H914 0.960 . S
C929 H915 0.960 . S
C929 H916 0.960 . S
C929 C928 1.524 . S
C930 C927 1.403 . S
C930 C931 1.392 . S
C930 C934 1.495 1_565 S
C931 C930 1.392 . S
C931 C932 1.385 . S
C931 C933 1.478 . S
C932 H926 0.930 . S
C932 C928 1.400 . S
C932 C931 1.385 . S
C933 C931 1.478 . S
C933 C935 1.381 . S
C933 C939 1.383 . S
C934 C930 1.495 1_545 S
C934 H940 0.959 . S
C934 H941 0.961 . S
C934 H942 0.960 . S
C935 C933 1.381 . S
C935 C936 1.394 . S
C935 H943 0.930 . S
C936 C935 1.394 . S
C936 C937 1.383 . S
C936 H944 0.929 . S
C937 C936 1.383 . S
C937 C938 1.377 . S
C938 H922 0.930 . S
C938 C937 1.377 . S
C938 C939 1.379 . S
C939 H923 0.931 . S
C939 C933 1.383 . S
C939 C938 1.379 . S
H940 C934 0.959 . S
H941 C934 0.961 . S
H942 C934 0.960 . S
H943 C935 0.930 . S
H944 C936 0.929 . S
H945 C953 0.929 . S
H946 C955 0.930 . S
H947 C957 0.930 1_565 S
H948 C960 0.929 . S
H949 C963 0.930 . S
H950 C965 0.960 . S
H951 C965 0.960 . S
H952 C965 0.960 . S
C953 H945 0.929 . S
C953 C954 1.377 . S
C953 C955 1.384 . S
C954 C953 1.377 . S
C954 C960 1.390 1_545 S
C955 H946 0.930 . S
C955 C953 1.384 . S
C955 C956 1.372 . S
C956 C955 1.372 . S
C956 C957 1.400 . S
C956 C961 1.490 . S
C957 H947 0.930 1_545 S
C957 C956 1.400 . S
C957 C960 1.386 1_545 S
H958 C974 0.930 . S
H959 C975 0.931 . S
C960 H948 0.929 . S
C960 C954 1.390 1_565 S
C960 C957 1.386 1_565 S
C961 C956 1.490 . S
C961 C963 1.395 . S
C961 C964 1.403 . S
H962 C968 0.930 . S
C963 H949 0.930 . S
C963 C961 1.395 . S
C963 C966 1.403 . S
C964 C961 1.403 . S
C964 C965 1.524 1_545 S
C964 C968 1.400 . S
C965 H950 0.960 . S
C965 H951 0.960 . S
C965 H952 0.960 . S
C965 C964 1.524 1_565 S
C966 C963 1.403 . S
C966 C967 1.392 . S
C966 C970 1.495 . S
C967 C966 1.392 . S
C967 C968 1.385 . S
C967 C969 1.478 . S
C968 H962 0.930 . S
C968 C964 1.400 . S
C968 C967 1.385 . S
C969 C967 1.478 . S
C969 C971 1.381 . S
C969 C975 1.383 . S
C970 C966 1.495 . S
C970 H976 0.959 . S
C970 H977 0.961 . S
C970 H978 0.960 . S
C971 C969 1.381 . S
C971 C972 1.394 . S
C971 H979 0.930 . S
C972 C971 1.394 . S
C972 C973 1.383 . S
C972 H980 0.929 . S
C973 C972 1.383 . S
C973 C974 1.377 . S
C974 H958 0.930 . S
C974 C973 1.377 . S
C974 C975 1.379 . S
C975 H959 0.931 . S
C975 C969 1.383 . S
C975 C974 1.379 . S
H976 C970 0.959 . S
H977 C970 0.961 . S
H978 C970 0.960 . S
H979 C971 0.930 . S
H980 C972 0.929 . S
H981 C989 0.929 . S
H982 C991 0.930 . S
H983 C993 0.930 . S
H984 C996 0.929 . S
H985 C999 0.930 1_455 S
H986 C1001 0.960 . S
H987 C1001 0.960 . S
H988 C1001 0.960 . S
C989 H981 0.929 . S
C989 C990 1.377 1_455 S
C989 C991 1.384 . S
C990 C989 1.377 1_655 S
C990 C996 1.390 . S
C991 H982 0.930 . S
C991 C989 1.384 . S
C991 C992 1.372 1_455 S
C992 C991 1.372 1_655 S
C992 C993 1.400 . S
C992 C997 1.490 . S
C993 H983 0.930 . S
C993 C992 1.400 . S
C993 C996 1.386 . S
H994 C1010 0.930 . S
H995 C1011 0.931 . S
C996 H984 0.929 . S
C996 C990 1.390 . S
C996 C993 1.386 . S
C997 C992 1.490 . S
C997 C999 1.395 . S
C997 C1000 1.403 . S
H998 C1004 0.930 . S
C999 H985 0.930 1_655 S
C999 C997 1.395 . S
C999 C1002 1.403 . S
C1000 C997 1.403 . S
C1000 C1001 1.524 . S
C1000 C1004 1.400 . S
C1001 H986 0.960 . S
C1001 H987 0.960 . S
C1001 H988 0.960 . S
C1001 C1000 1.524 . S
C1002 C999 1.403 . S
C1002 C1003 1.392 . S
C1002 C1006 1.495 1_655 S
C1003 C1002 1.392 . S
C1003 C1004 1.385 . S
C1003 C1005 1.478 . S
C1004 H998 0.930 . S
C1004 C1000 1.400 . S
C1004 C1003 1.385 . S
C1005 C1003 1.478 . S
C1005 C1007 1.381 . S
C1005 C1011 1.383 . S
C1006 C1002 1.495 1_455 S
C1006 H1012 0.959 . S
C1006 H1013 0.961 1_455 S
C1006 H1014 0.960 . S
C1007 C1005 1.381 . S
C1007 C1008 1.394 . S
C1007 H1015 0.930 1_655 S
C1008 C1007 1.394 . S
C1008 C1009 1.383 . S
C1008 H1016 0.929 . S
C1009 C1008 1.383 . S
C1009 C1010 1.377 . S
C1010 H994 0.930 . S
C1010 C1009 1.377 . S
C1010 C1011 1.379 . S
C1011 H995 0.931 . S
C1011 C1005 1.383 . S
C1011 C1010 1.379 . S
H1012 C1006 0.959 . S
H1013 C1006 0.961 1_655 S
H1014 C1006 0.960 . S
H1015 C1007 0.930 1_455 S
H1016 C1008 0.929 . S
H1017 C1025 0.929 . S
H1018 C1027 0.930 . S
H1019 C1029 0.930 . S
H1020 C1032 0.929 . S
H1021 C1035 0.930 . S
H1022 C1037 0.960 . S
H1023 C1037 0.960 . S
H1024 C1037 0.960 . S
C1025 H1017 0.929 . S
C1025 C1026 1.377 . S
C1025 C1027 1.384 . S
C1026 C1025 1.377 . S
C1026 C1032 1.390 . S
C1027 H1018 0.930 . S
C1027 C1025 1.384 . S
C1027 C1028 1.372 . S
C1028 C1027 1.372 . S
C1028 C1029 1.400 . S
C1028 C1033 1.490 . S
C1029 H1019 0.930 . S
C1029 C1028 1.400 . S
C1029 C1032 1.386 . S
H1030 C1046 0.930 . S
H1031 C1047 0.931 . S
C1032 H1020 0.929 . S
C1032 C1026 1.390 . S
C1032 C1029 1.386 . S
C1033 C1028 1.490 . S
C1033 C1035 1.395 . S
C1033 C1036 1.403 . S
H1034 C1040 0.930 . S
C1035 H1021 0.930 . S
C1035 C1033 1.395 . S
C1035 C1038 1.403 . S
C1036 C1033 1.403 . S
C1036 C1037 1.524 . S
C1036 C1040 1.400 . S
C1037 H1022 0.960 . S
C1037 H1023 0.960 . S
C1037 H1024 0.960 . S
C1037 C1036 1.524 . S
C1038 C1035 1.403 . S
C1038 C1039 1.392 . S
C1038 C1042 1.495 . S
C1039 C1038 1.392 . S
C1039 C1040 1.385 . S
C1039 C1041 1.478 . S
C1040 H1034 0.930 . S
C1040 C1036 1.400 . S
C1040 C1039 1.385 . S
C1041 C1039 1.478 . S
C1041 C1043 1.381 . S
C1041 C1047 1.383 . S
C1042 C1038 1.495 . S
C1042 H1048 0.959 . S
C1042 H1049 0.961 . S
C1042 H1050 0.960 . S
C1043 C1041 1.381 . S
C1043 C1044 1.394 . S
C1043 H1051 0.930 . S
C1044 C1043 1.394 . S
C1044 C1045 1.383 . S
C1044 H1052 0.929 . S
C1045 C1044 1.383 . S
C1045 C1046 1.377 . S
C1046 H1030 0.930 . S
C1046 C1045 1.377 . S
C1046 C1047 1.379 . S
C1047 H1031 0.931 . S
C1047 C1041 1.383 . S
C1047 C1046 1.379 . S
H1048 C1042 0.959 . S
H1049 C1042 0.961 . S
H1050 C1042 0.960 . S
H1051 C1043 0.930 . S
H1052 C1044 0.929 . S
H1053 C1061 0.929 . S
H1054 C1063 0.930 . S
H1055 C1065 0.930 . S
H1056 C1068 0.929 . S
H1057 C1071 0.930 . S
H1058 C1073 0.960 . S
H1059 C1073 0.960 . S
H1060 C1073 0.960 . S
C1061 H1053 0.929 . S
C1061 C1062 1.377 . S
C1061 C1063 1.384 . S
C1062 C1061 1.377 . S
C1062 C1068 1.390 . S
C1063 H1054 0.930 . S
C1063 C1061 1.384 . S
C1063 C1064 1.372 . S
C1064 C1063 1.372 . S
C1064 C1065 1.400 . S
C1064 C1069 1.490 . S
C1065 H1055 0.930 . S
C1065 C1064 1.400 . S
C1065 C1068 1.386 . S
H1066 C1082 0.930 . S
H1067 C1083 0.931 . S
C1068 H1056 0.929 . S
C1068 C1062 1.390 . S
C1068 C1065 1.386 . S
C1069 C1064 1.490 . S
C1069 C1071 1.395 . S
C1069 C1072 1.403 . S
H1070 C1076 0.930 . S
C1071 H1057 0.930 . S
C1071 C1069 1.395 . S
C1071 C1074 1.403 . S
C1072 C1069 1.403 . S
C1072 C1073 1.524 . S
C1072 C1076 1.400 . S
C1073 H1058 0.960 . S
C1073 H1059 0.960 . S
C1073 H1060 0.960 . S
C1073 C1072 1.524 . S
C1074 C1071 1.403 . S
C1074 C1075 1.392 . S
C1074 C1078 1.495 . S
C1075 C1074 1.392 . S
C1075 C1076 1.385 . S
C1075 C1077 1.478 . S
C1076 H1070 0.930 . S
C1076 C1072 1.400 . S
C1076 C1075 1.385 . S
C1077 C1075 1.478 . S
C1077 C1079 1.381 . S
C1077 C1083 1.383 . S
C1078 C1074 1.495 . S
C1078 H1084 0.959 . S
C1078 H1085 0.961 . S
C1078 H1086 0.960 . S
C1079 C1077 1.381 . S
C1079 C1080 1.394 . S
C1079 H1087 0.930 . S
C1080 C1079 1.394 . S
C1080 C1081 1.383 . S
C1080 H1088 0.929 . S
C1081 C1080 1.383 . S
C1081 C1082 1.377 . S
C1082 H1066 0.930 . S
C1082 C1081 1.377 . S
C1082 C1083 1.379 . S
C1083 H1067 0.931 . S
C1083 C1077 1.383 . S
C1083 C1082 1.379 . S
H1084 C1078 0.959 . S
H1085 C1078 0.961 . S
H1086 C1078 0.960 . S
H1087 C1079 0.930 . S
H1088 C1080 0.929 . S
H1089 C1097 0.929 . S
H1090 C1099 0.930 1_545 S
H1091 C1101 0.930 . S
H1092 C1104 0.929 . S
H1093 C1107 0.930 . S
H1094 C1109 0.960 . S
H1095 C1109 0.960 . S
H1096 C1109 0.960 . S
C1097 H1089 0.929 . S
C1097 C1098 1.377 . S
C1097 C1099 1.384 . S
C1098 C1097 1.377 . S
C1098 C1104 1.390 . S
C1099 H1090 0.930 1_565 S
C1099 C1097 1.384 . S
C1099 C1100 1.372 . S
C1100 C1099 1.372 . S
C1100 C1101 1.400 . S
C1100 C1105 1.490 . S
C1101 H1091 0.930 . S
C1101 C1100 1.400 . S
C1101 C1104 1.386 . S
H1102 C1118 0.930 . S
H1103 C1119 0.931 . S
C1104 H1092 0.929 . S
C1104 C1098 1.390 . S
C1104 C1101 1.386 . S
C1105 C1100 1.490 . S
C1105 C1107 1.395 1_565 S
C1105 C1108 1.403 . S
H1106 C1112 0.930 . S
C1107 H1093 0.930 . S
C1107 C1105 1.395 1_545 S
C1107 C1110 1.403 . S
C1108 C1105 1.403 . S
C1108 C1109 1.524 . S
C1108 C1112 1.400 . S
C1109 H1094 0.960 . S
C1109 H1095 0.960 . S
C1109 H1096 0.960 . S
C1109 C1108 1.524 . S
C1110 C1107 1.403 . S
C1110 C1111 1.392 . S
C1110 C1114 1.495 . S
C1111 C1110 1.392 . S
C1111 C1112 1.385 1_545 S
C1111 C1113 1.478 . S
C1112 H1106 0.930 . S
C1112 C1108 1.400 . S
C1112 C1111 1.385 1_565 S
C1113 C1111 1.478 . S
C1113 C1115 1.381 . S
C1113 C1119 1.383 . S
C1114 C1110 1.495 . S
C1114 H1120 0.959 . S
C1114 H1121 0.961 . S
C1114 H1122 0.960 . S
C1115 C1113 1.381 . S
C1115 C1116 1.394 . S
C1115 H1123 0.930 . S
C1116 C1115 1.394 . S
C1116 C1117 1.383 . S
C1116 H1124 0.929 . S
C1117 C1116 1.383 . S
C1117 C1118 1.377 . S
C1118 H1102 0.930 . S
C1118 C1117 1.377 . S
C1118 C1119 1.379 . S
C1119 H1103 0.931 . S
C1119 C1113 1.383 . S
C1119 C1118 1.379 . S
H1120 C1114 0.959 . S
H1121 C1114 0.961 . S
H1122 C1114 0.960 . S
H1123 C1115 0.930 . S
H1124 C1116 0.929 . S
H1125 C1133 0.929 1_455 S
H1126 C1135 0.944 . S
H1127 C1137 0.930 . S
H1128 C1140 0.929 . S
H1129 C1143 0.930 . S
H1130 C1145 0.960 . S
H1131 C1145 0.960 . S
H1132 C1145 0.960 1_655 S
C1133 H1125 0.929 1_655 S
C1133 C1134 1.377 . S
C1133 C1135 1.380 1_655 S
C1134 C1133 1.377 . S
C1134 C1140 1.390 . S
C1135 H1126 0.944 . S
C1135 C1133 1.380 1_455 S
C1135 C1136 1.362 1_455 S
C1136 C1135 1.362 1_655 S
C1136 C1137 1.400 . S
C1136 C1141 1.490 . S
C1137 H1127 0.930 . S
C1137 C1136 1.400 . S
C1137 C1140 1.386 . S
H1138 C1154 0.930 . S
H1139 C1155 0.931 1_655 S
C1140 H1128 0.929 . S
C1140 C1134 1.390 . S
C1140 C1137 1.386 . S
C1141 C1136 1.490 . S
C1141 C1143 1.395 . S
C1141 C1144 1.403 1_655 S
H1142 C1148 0.930 . S
C1143 H1129 0.930 . S
C1143 C1141 1.395 . S
C1143 C1146 1.403 1_655 S
C1144 C1141 1.403 1_455 S
C1144 C1145 1.524 . S
C1144 C1148 1.400 . S
C1145 H1130 0.960 . S
C1145 H1131 0.960 . S
C1145 H1132 0.960 1_455 S
C1145 C1144 1.524 . S
C1146 C1143 1.403 1_455 S
C1146 C1147 1.392 . S
C1146 C1150 1.495 . S
C1147 C1146 1.392 . S
C1147 C1148 1.385 . S
C1147 C1149 1.478 . S
C1148 H1142 0.930 . S
C1148 C1144 1.400 . S
C1148 C1147 1.385 . S
C1149 C1147 1.478 . S
C1149 C1151 1.381 . S
C1149 C1155 1.383 . S
C1150 C1146 1.495 . S
C1150 H1156 0.959 . S
C1150 H1157 0.961 1_455 S
C1150 H1158 0.960 . S
C1151 C1149 1.381 . S
C1151 C1152 1.394 . S
C1151 H1159 0.930 . S
C1152 C1151 1.394 . S
C1152 C1153 1.383 . S
C1152 H1160 0.929 . S
C1153 C1152 1.383 . S
C1153 C1154 1.377 . S
C1154 H1138 0.930 . S
C1154 C1153 1.377 . S
C1154 C1155 1.379 . S
C1155 H1139 0.931 1_455 S
C1155 C1149 1.383 . S
C1155 C1154 1.379 . S
H1156 C1150 0.959 . S
H1157 C1150 0.961 1_655 S
H1158 C1150 0.960 . S
H1159 C1151 0.930 . S
H1160 C1152 0.929 . S
C198 C40 0.889 . S
C217 C16 0.757 . S
C234 C62 0.869 . S
C253 C37 0.816 . S
C270 C45 0.834 . S
C289 C19 0.940 . S
C306 C58 0.813 . S
C325 C41 0.858 . S
C342 C61 0.876 . S
C361 C3 0.907 1_556 S
C378 C20 0.887 . S
C397 C24 0.749 . S
C414 C79 0.818 . S
C433 C104 0.834 . S
C450 C125 0.889 . S
C469 C87 0.758 . S
C486 C108 0.816 1_655 S
C505 C82 0.842 . S
C522 C103 0.893 . S
C541 C121 0.786 . S
C558 C124 0.870 . S
C577 C66 0.873 . S
C594 C100 0.825 . S
C613 C83 0.940 . S
C630 C167 0.882 . S
C649 C142 0.913 . S
C666 C150 0.843 . S
C685 C188 0.921 . S
C702 C171 0.829 . S
C721 C145 0.942 . S
C738 C184 0.846 . S
C757 C166 0.899 . S
C774 C187 0.871 . S
C793 C129 0.884 1_565 S
C810 C146 0.890 . S
C829 C163 0.760 . S
C846 C109 1.451 . S
C865 C4 1.479 1_455 S
C882 C70 1.440 . S
C901 C25 1.409 . S
C918 C49 1.453 1_565 S
C937 C88 1.451 . S
C954 C46 1.448 1_545 S
C973 C130 1.469 . S
C990 C7 1.442 1_655 S
C1009 C154 1.408 . S
C1026 C175 1.448 . S
C1045 C28 1.470 . S
C1062 C67 1.451 . S
C1081 C172 1.435 . S
C1098 C91 1.440 . S
C1117 C133 1.424 . S
C1134 C151 1.450 . S
C1153 C112 1.476 . S
