# Generated by pormake.
# Topology uke, (4)-cn, num edge types: 1
# Building blocks:
#     Node 0, Type 0, BuildingBlock: CEKHIL_clean_sbu_0, # of connection points: 4
#     Node 1, Type 0, BuildingBlock: CEKHIL_clean_sbu_0, # of connection points: 4
#     Node 2, Type 0, BuildingBlock: CEKHIL_clean_sbu_0, # of connection points: 4
#     Node 3, Type 0, BuildingBlock: CEKHIL_clean_sbu_0, # of connection points: 4
#     Node 4, Type 0, BuildingBlock: CEKHIL_clean_sbu_0, # of connection points: 4
#     Node 5, Type 0, BuildingBlock: CEKHIL_clean_sbu_0, # of connection points: 4
#     Node 6, Type 0, BuildingBlock: CEKHIL_clean_sbu_0, # of connection points: 4
#     Node 7, Type 0, BuildingBlock: CEKHIL_clean_sbu_0, # of connection points: 4
#     Node 8, Type 0, BuildingBlock: CEKHIL_clean_sbu_0, # of connection points: 4
#     Node 9, Type 0, BuildingBlock: CEKHIL_clean_sbu_0, # of connection points: 4
#     Node 10, Type 0, BuildingBlock: CEKHIL_clean_sbu_0, # of connection points: 4
#     Node 11, Type 0, BuildingBlock: CEKHIL_clean_sbu_0, # of connection points: 4
#     Node 12, Type 0, BuildingBlock: CEKHIL_clean_sbu_0, # of connection points: 4
#     Node 13, Type 0, BuildingBlock: CEKHIL_clean_sbu_0, # of connection points: 4
#     Node 14, Type 0, BuildingBlock: CEKHIL_clean_sbu_0, # of connection points: 4
#     Node 15, Type 0, BuildingBlock: CEKHIL_clean_sbu_0, # of connection points: 4
#     Node 16, Type 0, BuildingBlock: CEKHIL_clean_sbu_0, # of connection points: 4
#     Node 17, Type 0, BuildingBlock: CEKHIL_clean_sbu_0, # of connection points: 4
#     Node 18, Type 0, BuildingBlock: CEKHIL_clean_sbu_0, # of connection points: 4
#     Node 19, Type 0, BuildingBlock: CEKHIL_clean_sbu_0, # of connection points: 4
#     Node 20, Type 0, BuildingBlock: CEKHIL_clean_sbu_0, # of connection points: 4
#     Node 21, Type 0, BuildingBlock: CEKHIL_clean_sbu_0, # of connection points: 4
#     Node 22, Type 0, BuildingBlock: CEKHIL_clean_sbu_0, # of connection points: 4
#     Node 23, Type 0, BuildingBlock: CEKHIL_clean_sbu_0, # of connection points: 4
#     Node 24, Type 0, BuildingBlock: CEKHIL_clean_sbu_0, # of connection points: 4
#     Node 25, Type 0, BuildingBlock: CEKHIL_clean_sbu_0, # of connection points: 4
#     Node 26, Type 0, BuildingBlock: CEKHIL_clean_sbu_0, # of connection points: 4
#     Node 27, Type 0, BuildingBlock: CEKHIL_clean_sbu_0, # of connection points: 4
#     Node 28, Type 0, BuildingBlock: CEKHIL_clean_sbu_0, # of connection points: 4
#     Node 29, Type 0, BuildingBlock: CEKHIL_clean_sbu_0, # of connection points: 4
#     Node 30, Type 0, BuildingBlock: CEKHIL_clean_sbu_0, # of connection points: 4
#     Node 31, Type 0, BuildingBlock: CEKHIL_clean_sbu_0, # of connection points: 4
#     Edge 32, Type (0, 0), BuildingBlock: ZUJKAS_clean_linker_0, # of connection points: 2
#     Edge 33, Type (0, 0), BuildingBlock: ZUJKAS_clean_linker_0, # of connection points: 2
#     Edge 34, Type (0, 0), BuildingBlock: ZUJKAS_clean_linker_0, # of connection points: 2
#     Edge 35, Type (0, 0), BuildingBlock: ZUJKAS_clean_linker_0, # of connection points: 2
#     Edge 36, Type (0, 0), BuildingBlock: ZUJKAS_clean_linker_0, # of connection points: 2
#     Edge 37, Type (0, 0), BuildingBlock: ZUJKAS_clean_linker_0, # of connection points: 2
#     Edge 38, Type (0, 0), BuildingBlock: ZUJKAS_clean_linker_0, # of connection points: 2
#     Edge 39, Type (0, 0), BuildingBlock: ZUJKAS_clean_linker_0, # of connection points: 2
#     Edge 40, Type (0, 0), BuildingBlock: ZUJKAS_clean_linker_0, # of connection points: 2
#     Edge 41, Type (0, 0), BuildingBlock: ZUJKAS_clean_linker_0, # of connection points: 2
#     Edge 42, Type (0, 0), BuildingBlock: ZUJKAS_clean_linker_0, # of connection points: 2
#     Edge 43, Type (0, 0), BuildingBlock: ZUJKAS_clean_linker_0, # of connection points: 2
#     Edge 44, Type (0, 0), BuildingBlock: ZUJKAS_clean_linker_0, # of connection points: 2
#     Edge 45, Type (0, 0), BuildingBlock: ZUJKAS_clean_linker_0, # of connection points: 2
#     Edge 46, Type (0, 0), BuildingBlock: ZUJKAS_clean_linker_0, # of connection points: 2
#     Edge 47, Type (0, 0), BuildingBlock: ZUJKAS_clean_linker_0, # of connection points: 2
#     Edge 48, Type (0, 0), BuildingBlock: ZUJKAS_clean_linker_0, # of connection points: 2
#     Edge 49, Type (0, 0), BuildingBlock: ZUJKAS_clean_linker_0, # of connection points: 2
#     Edge 50, Type (0, 0), BuildingBlock: ZUJKAS_clean_linker_0, # of connection points: 2
#     Edge 51, Type (0, 0), BuildingBlock: ZUJKAS_clean_linker_0, # of connection points: 2
#     Edge 52, Type (0, 0), BuildingBlock: ZUJKAS_clean_linker_0, # of connection points: 2
#     Edge 53, Type (0, 0), BuildingBlock: ZUJKAS_clean_linker_0, # of connection points: 2
#     Edge 54, Type (0, 0), BuildingBlock: ZUJKAS_clean_linker_0, # of connection points: 2
#     Edge 55, Type (0, 0), BuildingBlock: ZUJKAS_clean_linker_0, # of connection points: 2
#     Edge 56, Type (0, 0), BuildingBlock: ZUJKAS_clean_linker_0, # of connection points: 2
#     Edge 57, Type (0, 0), BuildingBlock: ZUJKAS_clean_linker_0, # of connection points: 2
#     Edge 58, Type (0, 0), BuildingBlock: ZUJKAS_clean_linker_0, # of connection points: 2
#     Edge 59, Type (0, 0), BuildingBlock: ZUJKAS_clean_linker_0, # of connection points: 2
#     Edge 60, Type (0, 0), BuildingBlock: ZUJKAS_clean_linker_0, # of connection points: 2
#     Edge 61, Type (0, 0), BuildingBlock: ZUJKAS_clean_linker_0, # of connection points: 2
#     Edge 62, Type (0, 0), BuildingBlock: ZUJKAS_clean_linker_0, # of connection points: 2
#     Edge 63, Type (0, 0), BuildingBlock: ZUJKAS_clean_linker_0, # of connection points: 2
#     Edge 64, Type (0, 0), BuildingBlock: ZUJKAS_clean_linker_0, # of connection points: 2
#     Edge 65, Type (0, 0), BuildingBlock: ZUJKAS_clean_linker_0, # of connection points: 2
#     Edge 66, Type (0, 0), BuildingBlock: ZUJKAS_clean_linker_0, # of connection points: 2
#     Edge 67, Type (0, 0), BuildingBlock: ZUJKAS_clean_linker_0, # of connection points: 2
#     Edge 68, Type (0, 0), BuildingBlock: ZUJKAS_clean_linker_0, # of connection points: 2
#     Edge 69, Type (0, 0), BuildingBlock: ZUJKAS_clean_linker_0, # of connection points: 2
#     Edge 70, Type (0, 0), BuildingBlock: ZUJKAS_clean_linker_0, # of connection points: 2
#     Edge 71, Type (0, 0), BuildingBlock: ZUJKAS_clean_linker_0, # of connection points: 2
#     Edge 72, Type (0, 0), BuildingBlock: ZUJKAS_clean_linker_0, # of connection points: 2
#     Edge 73, Type (0, 0), BuildingBlock: ZUJKAS_clean_linker_0, # of connection points: 2
#     Edge 74, Type (0, 0), BuildingBlock: ZUJKAS_clean_linker_0, # of connection points: 2
#     Edge 75, Type (0, 0), BuildingBlock: ZUJKAS_clean_linker_0, # of connection points: 2
#     Edge 76, Type (0, 0), BuildingBlock: ZUJKAS_clean_linker_0, # of connection points: 2
#     Edge 77, Type (0, 0), BuildingBlock: ZUJKAS_clean_linker_0, # of connection points: 2
#     Edge 78, Type (0, 0), BuildingBlock: ZUJKAS_clean_linker_0, # of connection points: 2
#     Edge 79, Type (0, 0), BuildingBlock: ZUJKAS_clean_linker_0, # of connection points: 2
#     Edge 80, Type (0, 0), BuildingBlock: ZUJKAS_clean_linker_0, # of connection points: 2
#     Edge 81, Type (0, 0), BuildingBlock: ZUJKAS_clean_linker_0, # of connection points: 2
#     Edge 82, Type (0, 0), BuildingBlock: ZUJKAS_clean_linker_0, # of connection points: 2
#     Edge 83, Type (0, 0), BuildingBlock: ZUJKAS_clean_linker_0, # of connection points: 2
#     Edge 84, Type (0, 0), BuildingBlock: ZUJKAS_clean_linker_0, # of connection points: 2
#     Edge 85, Type (0, 0), BuildingBlock: ZUJKAS_clean_linker_0, # of connection points: 2
#     Edge 86, Type (0, 0), BuildingBlock: ZUJKAS_clean_linker_0, # of connection points: 2
#     Edge 87, Type (0, 0), BuildingBlock: ZUJKAS_clean_linker_0, # of connection points: 2
#     Edge 88, Type (0, 0), BuildingBlock: ZUJKAS_clean_linker_0, # of connection points: 2
#     Edge 89, Type (0, 0), BuildingBlock: ZUJKAS_clean_linker_0, # of connection points: 2
#     Edge 90, Type (0, 0), BuildingBlock: ZUJKAS_clean_linker_0, # of connection points: 2
#     Edge 91, Type (0, 0), BuildingBlock: ZUJKAS_clean_linker_0, # of connection points: 2
#     Edge 92, Type (0, 0), BuildingBlock: ZUJKAS_clean_linker_0, # of connection points: 2
#     Edge 93, Type (0, 0), BuildingBlock: ZUJKAS_clean_linker_0, # of connection points: 2
#     Edge 94, Type (0, 0), BuildingBlock: ZUJKAS_clean_linker_0, # of connection points: 2
#     Edge 95, Type (0, 0), BuildingBlock: ZUJKAS_clean_linker_0, # of connection points: 2
# Relax obj value: 0.084
# Max RMSD: 0.185
# Mean RMSD: 0.185
data_MOF--net-uke--node1-CEKHIL_clean_sbu_0--edge1-ZUJKAS_clean_linker_0
_symmetry_space_group_name_H-M    P1
_symmetry_Int_Tables_number       1
_symmetry_cell_setting            triclinic
loop_
_symmetry_equiv_pos_as_xyz
'x, y, z'
_cell_length_a     25.469572
_cell_length_b     141.81637
_cell_length_c     69.709179
_cell_angle_alpha  90.006674
_cell_angle_beta   89.995989
_cell_angle_gamma 89.99565
loop_
_atom_site_label
_atom_site_type_symbol
_atom_site_fract_x
_atom_site_fract_y
_atom_site_fract_z
_atom_type_partial_charge
Co0 Co 0.08608 0.05369 0.27201 0.0
O1 O 0.07053 0.05184 0.29847 0.0
O2 O 0.01468 0.05789 0.27752 0.0
C3 C 0.12266 0.03958 0.26714 0.0
O4 O 0.09136 0.05611 0.243 0.0
Co5 Co 0.20446 0.05425 0.26135 0.0
O6 O 0.17486 0.05238 0.23533 0.0
C7 C 0.15715 0.07073 0.27958 0.0
C8 C 0.02474 0.05542 0.29517 0.0
C9 C 0.12773 0.05432 0.23055 0.0
O10 O 0.11237 0.06667 0.278 0.0
O11 O 0.20038 0.06679 0.27474 0.0
O12 O 0.07192 0.0405 0.26661 0.0
O13 O 0.14855 0.0469 0.27286 0.0
Co14 Co 0.15722 0.18719 0.26985 0.0
O15 O 0.17511 0.18903 0.29613 0.0
O16 O 0.23076 0.18391 0.27408 0.0
C17 C 0.11425 0.20083 0.26626 0.0
O18 O 0.1497 0.18496 0.24088 0.0
Co19 Co 0.03831 0.18517 0.26093 0.0
O20 O 0.06396 0.18736 0.23445 0.0
C21 C 0.09421 0.16927 0.27813 0.0
C22 C 0.22185 0.18612 0.29196 0.0
C23 C 0.11132 0.18616 0.22898 0.0
O24 O 0.13717 0.17383 0.27563 0.0
O25 O 0.04902 0.17279 0.27445 0.0
O26 O 0.16511 0.20058 0.26484 0.0
O27 O 0.09223 0.19312 0.272 0.0
Co28 Co 0.0815 0.18474 0.98415 0.0
O29 O 0.05747 0.18762 0.95888 0.0
O30 O 0.00858 0.18083 0.9813 0.0
C31 C 0.1214 0.19856 0.98945 0.0
O32 O 0.09503 0.18131 0.01228 0.0
Co33 Co 0.20181 0.18328 0.98962 0.0
O34 O 0.18223 0.18279 0.01712 0.0
C35 C 0.14693 0.16786 0.97058 0.0
C36 C 0.01294 0.18397 0.96379 0.0
C37 C 0.13575 0.18142 0.02334 0.0
O38 O 0.10371 0.1719 0.97524 0.0
O39 O 0.19188 0.1716 0.97367 0.0
O40 O 0.07107 0.19772 0.99204 0.0
O41 O 0.1444 0.1914 0.9816 0.0
Co42 Co 0.16082 0.05451 0.98637 0.0
O43 O 0.18468 0.05141 0.96123 0.0
O44 O 0.23204 0.05921 0.98265 0.0
C45 C 0.12653 0.04031 0.9928 0.0
O46 O 0.14731 0.05838 0.01429 0.0
Co47 Co 0.04103 0.05478 0.99253 0.0
O48 O 0.06079 0.05632 0.0198 0.0
C49 C 0.08917 0.0704 0.97203 0.0
C50 C 0.22792 0.05572 0.9654 0.0
C51 C 0.10706 0.05825 0.02557 0.0
O52 O 0.13377 0.06683 0.97644 0.0
O53 O 0.04552 0.06642 0.97611 0.0
O54 O 0.17635 0.04189 0.99526 0.0
O55 O 0.10037 0.04704 0.98461 0.0
Co56 Co 0.89102 0.93778 0.73001 0.0
O57 O 0.90425 0.93915 0.70322 0.0
O58 O 0.96395 0.93464 0.72436 0.0
C59 C 0.84785 0.95138 0.73382 0.0
O60 O 0.88867 0.93602 0.75924 0.0
Co61 Co 0.77436 0.93555 0.74185 0.0
O62 O 0.80412 0.93849 0.76744 0.0
C63 C 0.8292 0.91936 0.7254 0.0
C64 C 0.95185 0.93642 0.70654 0.0
C65 C 0.85235 0.93743 0.77189 0.0
O66 O 0.87139 0.92428 0.72574 0.0
O67 O 0.78435 0.92267 0.73024 0.0
O68 O 0.89885 0.95123 0.7339 0.0
O69 O 0.82515 0.94356 0.72902 0.0
Co70 Co 0.86037 0.80188 0.73387 0.0
O71 O 0.85235 0.80261 0.70673 0.0
O72 O 0.78775 0.80494 0.7274 0.0
C73 C 0.90589 0.78839 0.73383 0.0
O74 O 0.85737 0.80136 0.76328 0.0
Co75 Co 0.97463 0.80375 0.74891 0.0
O76 O 0.94116 0.79926 0.77292 0.0
C77 C 0.91943 0.8206 0.73562 0.0
C78 C 0.80349 0.80463 0.70959 0.0
C79 C 0.89199 0.79959 0.77635 0.0
O80 O 0.8775 0.81563 0.73463 0.0
O81 O 0.96451 0.81708 0.73949 0.0
O82 O 0.85501 0.78825 0.73287 0.0
O83 O 0.9276 0.79661 0.7326 0.0
Co84 Co 0.9022 0.8021 0.02079 0.0
O85 O 0.92154 0.79971 0.04675 0.0
O86 O 0.97586 0.80535 0.02476 0.0
C87 C 0.85916 0.78853 0.01622 0.0
O88 O 0.89339 0.80491 0.99212 0.0
Co89 Co 0.78313 0.80447 0.01321 0.0
O90 O 0.80633 0.80437 0.98608 0.0
C91 C 0.84013 0.81984 0.03154 0.0
C92 C 0.96794 0.80276 0.04249 0.0
C93 C 0.85387 0.80508 0.98049 0.0
O94 O 0.88266 0.81535 0.02785 0.0
O95 O 0.79457 0.81638 0.02833 0.0
O96 O 0.90992 0.78886 0.01449 0.0
O97 O 0.83723 0.79608 0.02288 0.0
Co98 Co 0.863 0.93503 0.01696 0.0
O99 O 0.84905 0.93824 0.04302 0.0
O100 O 0.78967 0.93242 0.02311 0.0
C101 C 0.90723 0.9482 0.00979 0.0
O102 O 0.86574 0.9314 0.9885 0.0
Co103 Co 0.97926 0.93162 0.00672 0.0
O104 O 0.95139 0.93124 0.98022 0.0
C105 C 0.92339 0.91717 0.02819 0.0
C106 C 0.80142 0.93539 0.04031 0.0
C107 C 0.90281 0.93071 0.97592 0.0
O108 O 0.88133 0.92191 0.0252 0.0
O109 O 0.96881 0.92009 0.02312 0.0
O110 O 0.85625 0.94807 0.00926 0.0
O111 O 0.92937 0.94074 0.01682 0.0
Co112 Co 0.09003 0.55399 0.77068 0.0
O113 O 0.06882 0.5509 0.79616 0.0
O114 O 0.01777 0.55804 0.77491 0.0
C115 C 0.12803 0.54011 0.76417 0.0
O116 O 0.10062 0.5577 0.74251 0.0
Co117 Co 0.20974 0.5552 0.76355 0.0
O118 O 0.18742 0.55641 0.73645 0.0
C119 C 0.15833 0.57057 0.78397 0.0
C120 C 0.02399 0.5547 0.7922 0.0
C121 C 0.14032 0.55785 0.73096 0.0
O122 O 0.11431 0.56668 0.7798 0.0
O123 O 0.20258 0.56675 0.78008 0.0
O124 O 0.07756 0.54113 0.76237 0.0
O125 O 0.15258 0.54712 0.77197 0.0
Co126 Co 0.17549 0.68398 0.77127 0.0
O127 O 0.20829 0.68681 0.79517 0.0
O128 O 0.24645 0.67882 0.77162 0.0
C129 C 0.14139 0.69827 0.76645 0.0
O130 O 0.15198 0.68038 0.74409 0.0
Co131 Co 0.05437 0.6844 0.7704 0.0
O132 O 0.0662 0.68414 0.74231 0.0
C133 C 0.10607 0.66828 0.78802 0.0
C134 C 0.24881 0.68225 0.78897 0.0
C135 C 0.10923 0.68164 0.73443 0.0
O136 O 0.14973 0.67174 0.78217 0.0
O137 O 0.06202 0.67246 0.78573 0.0
O138 O 0.18991 0.69657 0.7618 0.0
O139 O 0.11737 0.69169 0.77585 0.0
Co140 Co 0.08939 0.6861 0.48715 0.0
O141 O 0.07921 0.68713 0.46014 0.0
O142 O 0.01717 0.68284 0.48057 0.0
C143 C 0.13198 0.69975 0.49072 0.0
O144 O 0.0887 0.68465 0.51645 0.0
Co145 Co 0.20506 0.68426 0.50087 0.0
O146 O 0.17209 0.68746 0.52582 0.0
C147 C 0.15341 0.668 0.48321 0.0
C148 C 0.03135 0.68441 0.46286 0.0
C149 C 0.12346 0.68631 0.52955 0.0
O150 O 0.11015 0.67261 0.48375 0.0
O151 O 0.19756 0.67159 0.48812 0.0
O152 O 0.08099 0.69961 0.49024 0.0
O153 O 0.15502 0.69187 0.48679 0.0
Co154 Co 0.15565 0.55207 0.48458 0.0
O155 O 0.16766 0.55085 0.45775 0.0
O156 O 0.22723 0.55598 0.47835 0.0
C157 C 0.11736 0.53802 0.48828 0.0
O158 O 0.15388 0.5538 0.51385 0.0
Co159 Co 0.03875 0.5529 0.49705 0.0
O160 O 0.07075 0.55026 0.52239 0.0
C161 C 0.08659 0.56952 0.47952 0.0
C162 C 0.21442 0.55408 0.46062 0.0
C163 C 0.11861 0.5519 0.52663 0.0
O164 O 0.13095 0.56527 0.48028 0.0
O165 O 0.04329 0.56568 0.48458 0.0
O166 O 0.16822 0.53872 0.48837 0.0
O167 O 0.09201 0.54561 0.48382 0.0
Co168 Co 0.94094 0.43599 0.23591 0.0
O169 O 0.96621 0.43645 0.21016 0.0
O170 O 0.01291 0.43137 0.23499 0.0
C171 C 0.90495 0.45037 0.23616 0.0
O172 O 0.92508 0.43492 0.26469 0.0
Co173 Co 0.81964 0.43638 0.24102 0.0
O174 O 0.83961 0.43874 0.2681 0.0
C175 C 0.87032 0.41906 0.22772 0.0
C176 C 0.00957 0.43293 0.2166 0.0
C177 C 0.88473 0.43694 0.27518 0.0
O178 O 0.9149 0.42288 0.23126 0.0
O179 O 0.82669 0.42348 0.22932 0.0
O180 O 0.95492 0.44936 0.23932 0.0
O181 O 0.88034 0.44286 0.23074 0.0
Co182 Co 0.8138 0.30241 0.23355 0.0
O183 O 0.79171 0.30294 0.20741 0.0
O184 O 0.74279 0.30745 0.23214 0.0
C185 C 0.84761 0.28788 0.23243 0.0
O186 O 0.8262 0.30257 0.26261 0.0
Co187 Co 0.93403 0.30125 0.24073 0.0
O188 O 0.91012 0.29796 0.26699 0.0
C189 C 0.88778 0.31916 0.22855 0.0
C190 C 0.7483 0.30654 0.21363 0.0
C191 C 0.86454 0.29991 0.27347 0.0
O192 O 0.84233 0.31547 0.23099 0.0
O193 O 0.93058 0.31451 0.23043 0.0
O194 O 0.79747 0.28904 0.23499 0.0
O195 O 0.87398 0.29541 0.22846 0.0
Co196 Co 0.90872 0.30448 0.52044 0.0
O197 O 0.9228 0.30443 0.5473 0.0
O198 O 0.98022 0.30882 0.52511 0.0
C199 C 0.87175 0.29021 0.51912 0.0
O200 O 0.90481 0.30508 0.49107 0.0
Co201 Co 0.79068 0.30435 0.50892 0.0
O202 O 0.82157 0.30093 0.4837 0.0
C203 C 0.83701 0.32144 0.52521 0.0
C204 C 0.96888 0.30768 0.54321 0.0
C205 C 0.86906 0.30257 0.47893 0.0
O206 O 0.8824 0.3177 0.52288 0.0
O207 O 0.79412 0.31701 0.52194 0.0
O208 O 0.92255 0.29103 0.51869 0.0
O209 O 0.846 0.29786 0.52267 0.0
Co210 Co 0.82283 0.43574 0.51995 0.0
O211 O 0.80093 0.43895 0.54525 0.0
O212 O 0.74952 0.43221 0.52358 0.0
C213 C 0.86413 0.44928 0.51383 0.0
O214 O 0.83458 0.43197 0.49187 0.0
Co215 Co 0.94296 0.43372 0.51396 0.0
O216 O 0.92191 0.43298 0.48665 0.0
C217 C 0.88671 0.41877 0.53388 0.0
C218 C 0.75554 0.43545 0.54098 0.0
C219 C 0.87506 0.43177 0.48068 0.0
O220 O 0.84388 0.42294 0.52928 0.0
O221 O 0.93211 0.4222 0.53026 0.0
O222 O 0.81357 0.44865 0.5116 0.0
O223 O 0.8866 0.4421 0.52181 0.0
Co224 Co 0.56302 0.0536 0.77336 0.0
O225 O 0.5365 0.05435 0.79892 0.0
O226 O 0.49286 0.05904 0.77303 0.0
C227 C 0.59389 0.03886 0.77543 0.0
O228 O 0.58017 0.05344 0.74461 0.0
Co229 Co 0.68386 0.05174 0.76888 0.0
O230 O 0.66341 0.04811 0.7424 0.0
C231 C 0.63898 0.06996 0.77984 0.0
C232 C 0.49478 0.0581 0.79162 0.0
C233 C 0.6194 0.05024 0.73481 0.0
O234 O 0.59339 0.06654 0.77629 0.0
O235 O 0.68103 0.06502 0.77913 0.0
O236 O 0.5445 0.04032 0.77182 0.0
O237 O 0.62097 0.04626 0.77989 0.0
Co238 Co 0.68825 0.1865 0.76811 0.0
O239 O 0.71757 0.18804 0.79308 0.0
O240 O 0.76068 0.18202 0.76827 0.0
C241 C 0.65106 0.20079 0.76667 0.0
O242 O 0.66829 0.18446 0.73986 0.0
Co243 Co 0.5668 0.18625 0.7656 0.0
O244 O 0.58168 0.18757 0.73784 0.0
C245 C 0.621 0.16954 0.77987 0.0
C246 C 0.76024 0.18439 0.78635 0.0
C247 C 0.62594 0.18585 0.73001 0.0
O248 O 0.66446 0.1735 0.77523 0.0
O249 O 0.57647 0.17365 0.77834 0.0
O250 O 0.70043 0.19973 0.76245 0.0
O251 O 0.62785 0.19343 0.77364 0.0
Co252 Co 0.59079 0.18707 0.48263 0.0
O253 O 0.5766 0.1862 0.45582 0.0
O254 O 0.51943 0.18249 0.47861 0.0
C255 C 0.62723 0.20139 0.4819 0.0
O256 O 0.59482 0.18735 0.51206 0.0
Co257 Co 0.70862 0.18772 0.49423 0.0
O258 O 0.67795 0.19162 0.51914 0.0
C259 C 0.66208 0.16974 0.48263 0.0
C260 C 0.53066 0.18304 0.46038 0.0
C261 C 0.63058 0.18999 0.52409 0.0
O262 O 0.61723 0.17383 0.48215 0.0
O263 O 0.70503 0.17411 0.48615 0.0
O264 O 0.57649 0.2005 0.48253 0.0
O265 O 0.65342 0.19367 0.47943 0.0
Co266 Co 0.67127 0.05287 0.48874 0.0
O267 O 0.68115 0.05536 0.4621 0.0
O268 O 0.74266 0.05733 0.48423 0.0
C269 C 0.63259 0.03883 0.48502 0.0
O270 O 0.67175 0.05081 0.51783 0.0
Co271 Co 0.55515 0.05184 0.50254 0.0
O272 O 0.5893 0.04636 0.5256 0.0
C273 C 0.60285 0.07025 0.495 0.0
C274 C 0.72848 0.05792 0.46628 0.0
C275 C 0.63753 0.04761 0.52986 0.0
O276 O 0.64706 0.0661 0.4926 0.0
O277 O 0.55953 0.06583 0.49749 0.0
O278 O 0.68343 0.03951 0.48478 0.0
O279 O 0.60726 0.04673 0.48523 0.0
Co280 Co 0.42351 0.93865 0.23074 0.0
O281 O 0.43886 0.93716 0.20414 0.0
O282 O 0.49661 0.93488 0.22747 0.0
C283 C 0.38207 0.95249 0.22805 0.0
O284 O 0.41845 0.9398 0.26005 0.0
Co285 Co 0.3053 0.9384 0.24197 0.0
O286 O 0.33395 0.94345 0.26635 0.0
C287 C 0.35841 0.92061 0.23288 0.0
C288 C 0.48595 0.93482 0.20916 0.0
C289 C 0.3816 0.94245 0.27162 0.0
O290 O 0.40195 0.92512 0.23201 0.0
O291 O 0.31402 0.92466 0.23544 0.0
O292 O 0.43298 0.95219 0.22893 0.0
O293 O 0.35875 0.94442 0.22653 0.0
Co294 Co 0.32228 0.80241 0.23496 0.0
O295 O 0.3079 0.80453 0.20845 0.0
O296 O 0.25018 0.80678 0.23183 0.0
C297 C 0.36054 0.78833 0.23123 0.0
O298 O 0.32655 0.80071 0.26414 0.0
Co299 Co 0.44037 0.80156 0.24634 0.0
O300 O 0.41011 0.79634 0.27031 0.0
C301 C 0.39165 0.81987 0.23837 0.0
C302 C 0.26132 0.80712 0.21358 0.0
C303 C 0.36264 0.7976 0.27556 0.0
O304 O 0.34702 0.81572 0.23735 0.0
O305 O 0.43509 0.81543 0.24041 0.0
O306 O 0.30973 0.78899 0.23204 0.0
O307 O 0.38568 0.79624 0.23042 0.0
Co308 Co 0.42167 0.80244 0.52107 0.0
O309 O 0.43771 0.80317 0.54773 0.0
O310 O 0.49291 0.80718 0.52456 0.0
C311 C 0.38671 0.78801 0.52193 0.0
O312 O 0.41563 0.80221 0.49169 0.0
Co313 Co 0.30328 0.80152 0.51054 0.0
O314 O 0.33293 0.79732 0.48566 0.0
C315 C 0.34843 0.81944 0.52315 0.0
C316 C 0.48314 0.80646 0.54288 0.0
C317 C 0.37966 0.79912 0.48021 0.0
O318 O 0.39395 0.8156 0.52226 0.0
O319 O 0.30574 0.81492 0.52007 0.0
O320 O 0.43727 0.78906 0.52074 0.0
O321 O 0.35994 0.79564 0.52476 0.0
Co322 Co 0.33835 0.93637 0.51703 0.0
O323 O 0.32341 0.93727 0.54376 0.0
O324 O 0.26583 0.93263 0.52187 0.0
C325 C 0.37854 0.9503 0.51409 0.0
O326 O 0.34329 0.93493 0.48778 0.0
Co327 Co 0.4573 0.93515 0.50695 0.0
O328 O 0.42967 0.9359 0.48045 0.0
C329 C 0.40494 0.91868 0.5231 0.0
C330 C 0.27692 0.93415 0.53989 0.0
C331 C 0.38153 0.93523 0.47558 0.0
O332 O 0.36113 0.92301 0.52104 0.0
O333 O 0.44944 0.9225 0.51964 0.0
O334 O 0.32761 0.94982 0.51361 0.0
O335 O 0.4025 0.94261 0.51884 0.0
Co336 Co 0.59375 0.55118 0.26929 0.0
O337 O 0.58164 0.55155 0.29628 0.0
O338 O 0.5212 0.55477 0.2744 0.0
C339 C 0.63588 0.53735 0.26895 0.0
O340 O 0.59501 0.55116 0.23984 0.0
Co341 Co 0.71026 0.55211 0.25613 0.0
O342 O 0.67862 0.54775 0.23171 0.0
C343 C 0.65832 0.56933 0.26941 0.0
C344 C 0.53407 0.55413 0.29247 0.0
C345 C 0.63034 0.54884 0.22738 0.0
O346 O 0.61498 0.56474 0.27008 0.0
O347 O 0.70238 0.5655 0.26523 0.0
O348 O 0.58488 0.53758 0.26895 0.0
O349 O 0.65909 0.54537 0.27144 0.0
Co350 Co 0.65918 0.6869 0.26964 0.0
O351 O 0.67095 0.68694 0.29663 0.0
O352 O 0.73134 0.68311 0.27514 0.0
C353 C 0.61869 0.70087 0.26815 0.0
O354 O 0.65763 0.68641 0.24019 0.0
Co355 Co 0.54196 0.6861 0.25707 0.0
O356 O 0.57372 0.68968 0.23216 0.0
C357 C 0.59267 0.66896 0.27124 0.0
C358 C 0.71818 0.68409 0.29313 0.0
C359 C 0.62184 0.68847 0.22769 0.0
O360 O 0.63645 0.67343 0.27137 0.0
O361 O 0.54879 0.67287 0.26711 0.0
O362 O 0.66965 0.70045 0.26831 0.0
O363 O 0.59464 0.69299 0.27133 0.0
Co364 Co 0.56941 0.68539 0.98413 0.0
O365 O 0.54154 0.68745 0.95907 0.0
O366 O 0.49806 0.6805 0.98275 0.0
C367 C 0.60433 0.69977 0.98769 0.0
O368 O 0.58746 0.68268 0.01226 0.0
Co369 Co 0.69066 0.68559 0.98781 0.0
O370 O 0.67449 0.6852 0.0156 0.0
C371 C 0.63998 0.66908 0.97111 0.0
C372 C 0.49926 0.68331 0.96495 0.0
C373 C 0.62935 0.68339 0.02262 0.0
O374 O 0.59572 0.6727 0.97587 0.0
O375 O 0.68369 0.67339 0.97335 0.0
O376 O 0.55478 0.69838 0.99115 0.0
O377 O 0.62915 0.69274 0.98008 0.0
Co378 Co 0.68027 0.55292 0.98385 0.0
O379 O 0.71108 0.55226 0.95889 0.0
O380 O 0.75144 0.55792 0.98465 0.0
C381 C 0.64644 0.53836 0.98398 0.0
O382 O 0.6589 0.55417 0.01211 0.0
Co383 Co 0.55889 0.55228 0.98579 0.0
O384 O 0.57302 0.55042 0.01349 0.0
C385 C 0.60963 0.56966 0.97324 0.0
C386 C 0.75245 0.55606 0.96635 0.0
C387 C 0.61668 0.55225 0.02165 0.0
O388 O 0.65364 0.56589 0.97787 0.0
O389 O 0.56602 0.56519 0.97405 0.0
O390 O 0.69548 0.53971 0.98834 0.0
O391 O 0.62165 0.54566 0.97744 0.0
Co392 Co 0.39352 0.43473 0.73286 0.0
O393 O 0.41404 0.43569 0.70661 0.0
O394 O 0.46523 0.43019 0.72982 0.0
C395 C 0.35767 0.44909 0.73531 0.0
O396 O 0.3831 0.43303 0.76183 0.0
Co397 Co 0.27389 0.43459 0.74058 0.0
O398 O 0.29696 0.43533 0.76767 0.0
C399 C 0.32272 0.41778 0.72444 0.0
C400 C 0.45834 0.43199 0.71165 0.0
C401 C 0.34382 0.43391 0.77344 0.0
O402 O 0.36729 0.42168 0.72755 0.0
O403 O 0.27896 0.42196 0.72749 0.0
O404 O 0.40803 0.44796 0.73721 0.0
O405 O 0.33185 0.44172 0.72969 0.0
Co406 Co 0.34606 0.30238 0.73363 0.0
O407 O 0.32722 0.29952 0.70781 0.0
O408 O 0.27253 0.30553 0.72926 0.0
C409 C 0.38911 0.28893 0.73943 0.0
O410 O 0.35421 0.30576 0.76207 0.0
Co411 Co 0.46488 0.30492 0.7415 0.0
O412 O 0.44097 0.30513 0.76853 0.0
C413 C 0.40802 0.32006 0.7223 0.0
C414 C 0.28081 0.30269 0.7117 0.0
C415 C 0.39334 0.30605 0.77387 0.0
O416 O 0.36558 0.31548 0.72557 0.0
O417 O 0.45356 0.31682 0.72637 0.0
O418 O 0.33829 0.28928 0.74096 0.0
O419 O 0.41117 0.29634 0.73221 0.0
Co420 Co 0.40555 0.30238 0.01984 0.0
O421 O 0.42659 0.3005 0.04578 0.0
O422 O 0.47796 0.30655 0.02328 0.0
C423 C 0.36781 0.28822 0.01627 0.0
O424 O 0.39473 0.30476 0.99108 0.0
Co425 Co 0.28598 0.3031 0.01232 0.0
O426 O 0.30964 0.30142 0.98545 0.0
C427 C 0.33708 0.31961 0.029 0.0
C428 C 0.47167 0.304 0.04111 0.0
C429 C 0.35598 0.30321 0.97953 0.0
O430 O 0.38117 0.31544 0.02638 0.0
O431 O 0.2929 0.31568 0.02547 0.0
O432 O 0.4182 0.28919 0.01416 0.0
O433 O 0.34313 0.29558 0.02257 0.0
Co434 Co 0.34493 0.43662 0.01973 0.0
O435 O 0.32524 0.43906 0.04565 0.0
O436 O 0.27091 0.4336 0.02344 0.0
C437 C 0.38918 0.45009 0.01531 0.0
O438 O 0.35397 0.43386 0.99101 0.0
Co439 Co 0.46357 0.43395 0.01197 0.0
O440 O 0.44027 0.43579 0.98511 0.0
C441 C 0.40493 0.41841 0.02913 0.0
C442 C 0.27861 0.43623 0.04116 0.0
C443 C 0.39313 0.43471 0.97933 0.0
O444 O 0.36308 0.42329 0.02669 0.0
O445 O 0.45079 0.42156 0.02524 0.0
O446 O 0.33841 0.44989 0.01353 0.0
O447 O 0.41049 0.44247 0.02197 0.0
H448 H 0.03716 0.06679 0.04916 0.0
H449 H 0.03949 0.06767 0.0841 0.0
H450 H 0.19111 0.05409 0.08416 0.0
H451 H 0.18966 0.0535 0.04897 0.0
H452 H 0.03914 0.05313 0.10767 0.0
H453 H 0.21611 0.07457 0.1227 0.0
H454 H 0.18752 0.07382 0.09906 0.0
H455 H 0.23003 0.06461 0.10771 0.0
C456 C 0.07157 0.06418 0.0566 0.0
C457 C 0.11332 0.06009 0.04634 0.0
C458 C 0.07276 0.06466 0.07659 0.0
C459 C 0.11551 0.061 0.08685 0.0
C460 C 0.15816 0.05717 0.0766 0.0
H461 H 0.1827 0.04565 0.20234 0.0
H462 H 0.17432 0.04766 0.16785 0.0
C463 C 0.15734 0.05681 0.05649 0.0
C464 C 0.11311 0.06052 0.10817 0.0
H465 H 0.1802 0.06595 0.14913 0.0
C466 C 0.0697 0.05604 0.11673 0.0
C467 C 0.15284 0.06434 0.12004 0.0
C468 C 0.19897 0.06969 0.11192 0.0
C469 C 0.06582 0.05502 0.13674 0.0
C470 C 0.10627 0.0586 0.14851 0.0
C471 C 0.14917 0.06322 0.14003 0.0
C472 C 0.10726 0.05696 0.16953 0.0
C473 C 0.01956 0.04982 0.14514 0.0
C474 C 0.07138 0.06136 0.18199 0.0
C475 C 0.076 0.06023 0.20196 0.0
C476 C 0.11685 0.05473 0.20965 0.0
C477 C 0.1512 0.05006 0.19697 0.0
C478 C 0.14654 0.05119 0.1772 0.0
H479 H 0.99517 0.04639 0.13392 0.0
H480 H 0.03319 0.04436 0.15541 0.0
H481 H 0.99448 0.05486 0.15317 0.0
H482 H 0.0409 0.0659 0.17632 0.0
H483 H 0.04909 0.06393 0.21133 0.0
H484 H 0.05025 0.18573 0.04586 0.0
H485 H 0.04716 0.186 0.08113 0.0
H486 H 0.20503 0.1751 0.08344 0.0
H487 H 0.20848 0.1748 0.04847 0.0
H488 H 0.13185 0.16678 0.11063 0.0
H489 H 0.13512 0.20599 0.11189 0.0
H490 H 0.08478 0.20066 0.0974 0.0
H491 H 0.15248 0.19926 0.09082 0.0
C492 C 0.08386 0.18323 0.0539 0.0
C493 C 0.12973 0.18032 0.04438 0.0
C494 C 0.08223 0.18346 0.07402 0.0
C495 C 0.12623 0.18071 0.08485 0.0
C496 C 0.17083 0.17731 0.07536 0.0
H497 H 0.19643 0.17912 0.20883 0.0
H498 H 0.20506 0.17786 0.17373 0.0
C499 C 0.17269 0.17717 0.05536 0.0
C500 C 0.1272 0.18175 0.10602 0.0
H501 H 0.12829 0.19823 0.14173 0.0
C502 C 0.13111 0.17364 0.11748 0.0
C503 C 0.12692 0.19073 0.11485 0.0
C504 C 0.12502 0.19969 0.10317 0.0
C505 C 0.13306 0.17426 0.1376 0.0
C506 C 0.13232 0.18325 0.14645 0.0
C507 C 0.12916 0.19135 0.13494 0.0
C508 C 0.13 0.18439 0.16763 0.0
C509 C 0.13412 0.16529 0.14923 0.0
C510 C 0.08611 0.18878 0.17578 0.0
C511 C 0.08132 0.18956 0.19562 0.0
C512 C 0.12041 0.18598 0.20793 0.0
C513 C 0.16555 0.1819 0.19977 0.0
C514 C 0.17027 0.18111 0.17975 0.0
H515 H 0.12343 0.15903 0.14047 0.0
H516 H 0.17429 0.16418 0.15496 0.0
H517 H 0.1067 0.16576 0.16158 0.0
H518 H 0.05476 0.19144 0.16676 0.0
H519 H 0.0463 0.19287 0.2013 0.0
H520 H 0.81813 0.93772 0.95604 0.0
H521 H 0.80788 0.93823 0.92093 0.0
H522 H 0.95036 0.92214 0.91435 0.0
H523 H 0.96076 0.9216 0.94909 0.0
H524 H 0.8871 0.9465 0.89645 0.0
H525 H 0.84748 0.90923 0.87687 0.0
H526 H 0.83693 0.91377 0.90078 0.0
H527 H 0.90209 0.91088 0.89284 0.0
C528 C 0.84636 0.93407 0.94708 0.0
C529 C 0.89025 0.92963 0.9553 0.0
C530 C 0.84069 0.93442 0.92706 0.0
C531 C 0.87824 0.93017 0.91505 0.0
C532 C 0.92056 0.92535 0.92331 0.0
H533 H 0.93424 0.92873 0.79089 0.0
H534 H 0.94544 0.92739 0.82589 0.0
C535 C 0.92654 0.92509 0.94319 0.0
C536 C 0.87648 0.93149 0.89394 0.0
H537 H 0.87053 0.91958 0.85139 0.0
C538 C 0.88303 0.94063 0.88658 0.0
C539 C 0.87215 0.9238 0.88112 0.0
C540 C 0.86383 0.91387 0.88824 0.0
C541 C 0.88585 0.94227 0.86674 0.0
C542 C 0.88099 0.93459 0.85389 0.0
C543 C 0.87473 0.92544 0.86125 0.0
C544 C 0.87785 0.936 0.83281 0.0
C545 C 0.89487 0.95221 0.85973 0.0
C546 C 0.83662 0.94134 0.82515 0.0
C547 C 0.83026 0.94211 0.80536 0.0
C548 C 0.86481 0.93752 0.79267 0.0
C549 C 0.90726 0.93241 0.80029 0.0
C550 C 0.91346 0.93159 0.82025 0.0
H551 H 0.91393 0.95663 0.8709 0.0
H552 H 0.91971 0.95229 0.84664 0.0
H553 H 0.8565 0.95547 0.85618 0.0
H554 H 0.80818 0.94468 0.8345 0.0
H555 H 0.79723 0.94614 0.8 0.0
H556 H 0.93645 0.79833 0.95905 0.0
H557 H 0.94125 0.79748 0.9238 0.0
H558 H 0.7941 0.81235 0.91959 0.0
H559 H 0.78892 0.81319 0.95448 0.0
H560 H 0.85665 0.78857 0.90059 0.0
H561 H 0.89342 0.82595 0.88071 0.0
H562 H 0.90913 0.82127 0.90412 0.0
H563 H 0.84235 0.82402 0.89808 0.0
C564 C 0.90585 0.8016 0.95057 0.0
C565 C 0.86231 0.80581 0.95952 0.0
C566 C 0.90843 0.80106 0.93048 0.0
C567 C 0.86809 0.80489 0.91912 0.0
C568 C 0.82587 0.80944 0.92806 0.0
H569 H 0.80915 0.80782 0.79545 0.0
H570 H 0.79654 0.80838 0.83045 0.0
C571 C 0.82294 0.80988 0.94802 0.0
C572 C 0.86756 0.80357 0.89802 0.0
H573 H 0.87062 0.81552 0.85551 0.0
C574 C 0.86006 0.79445 0.89071 0.0
C575 C 0.87094 0.81127 0.88521 0.0
C576 C 0.87978 0.82119 0.89234 0.0
C577 C 0.85559 0.79282 0.87089 0.0
C578 C 0.85989 0.80051 0.85801 0.0
C579 C 0.8669 0.80965 0.86537 0.0
C580 C 0.86195 0.79915 0.83688 0.0
C581 C 0.84547 0.78291 0.86396 0.0
C582 C 0.90203 0.79363 0.82889 0.0
C583 C 0.90909 0.79329 0.80907 0.0
C584 C 0.87647 0.79851 0.79672 0.0
C585 C 0.83453 0.80366 0.80459 0.0
C586 C 0.8276 0.80404 0.82457 0.0
H587 H 0.8258 0.7786 0.87517 0.0
H588 H 0.82074 0.78287 0.85084 0.0
H589 H 0.88349 0.77948 0.86053 0.0
H590 H 0.92963 0.78995 0.83803 0.0
H591 H 0.94174 0.78924 0.80345 0.0
H592 H 0.20505 0.56709 0.70653 0.0
H593 H 0.20249 0.56697 0.67149 0.0
H594 H 0.05761 0.55128 0.67302 0.0
H595 H 0.05961 0.55147 0.70834 0.0
H596 H 0.1508 0.54314 0.65128 0.0
H597 H 0.10127 0.58006 0.63112 0.0
H598 H 0.14876 0.57843 0.64997 0.0
H599 H 0.08189 0.57495 0.6538 0.0
C600 C 0.17193 0.56381 0.69941 0.0
C601 C 0.13247 0.55929 0.71014 0.0
C602 C 0.17051 0.56377 0.6794 0.0
C603 C 0.12986 0.55914 0.66969 0.0
C604 C 0.08917 0.55494 0.68031 0.0
H605 H 0.07002 0.54187 0.55443 0.0
H606 H 0.07925 0.54346 0.58895 0.0
C607 C 0.09014 0.5551 0.70043 0.0
C608 C 0.13306 0.55792 0.6486 0.0
H609 H 0.12685 0.56981 0.60607 0.0
C610 C 0.14533 0.54896 0.64137 0.0
C611 C 0.12715 0.56556 0.63579 0.0
C612 C 0.11374 0.57531 0.64294 0.0
C613 C 0.15162 0.54742 0.6216 0.0
C614 C 0.14419 0.555 0.60867 0.0
C615 C 0.13282 0.56401 0.61597 0.0
C616 C 0.14291 0.55354 0.58756 0.0
C617 C 0.16677 0.53769 0.61479 0.0
C618 C 0.17568 0.55869 0.57513 0.0
C619 C 0.17037 0.55781 0.55514 0.0
C620 C 0.13158 0.55188 0.54737 0.0
C621 C 0.10019 0.54653 0.55992 0.0
C622 C 0.10564 0.54738 0.57973 0.0
H623 H 0.1882 0.53373 0.6261 0.0
H624 H 0.13068 0.53366 0.61127 0.0
H625 H 0.19177 0.53802 0.60175 0.0
H626 H 0.20454 0.56353 0.5809 0.0
H627 H 0.19478 0.56208 0.54583 0.0
H628 H 0.02376 0.68092 0.71099 0.0
H629 H 0.02147 0.68093 0.67613 0.0
H630 H 0.19058 0.68017 0.67437 0.0
H631 H 0.19349 0.68013 0.70963 0.0
H632 H 0.06695 0.6951 0.65316 0.0
H633 H 0.14433 0.65948 0.63552 0.0
H634 H 0.11941 0.66246 0.65902 0.0
H635 H 0.18351 0.66636 0.65181 0.0
C636 C 0.0607 0.68065 0.7033 0.0
C637 C 0.10894 0.68057 0.71321 0.0
C638 C 0.05918 0.68066 0.68331 0.0
C639 C 0.10573 0.68052 0.67264 0.0
C640 C 0.1541 0.68015 0.68235 0.0
H641 H 0.16464 0.69756 0.55697 0.0
H642 H 0.15372 0.69626 0.59164 0.0
C643 C 0.15572 0.68014 0.7025 0.0
C644 C 0.10302 0.68139 0.65144 0.0
H645 H 0.13051 0.66996 0.60947 0.0
C646 C 0.08067 0.68959 0.64361 0.0
C647 C 0.12031 0.67414 0.63902 0.0
C648 C 0.14289 0.66507 0.64669 0.0
C649 C 0.07623 0.69083 0.62369 0.0
C650 C 0.09479 0.6837 0.61126 0.0
C651 C 0.11611 0.6754 0.61906 0.0
C652 C 0.09635 0.68505 0.59017 0.0
C653 C 0.05183 0.69977 0.61607 0.0
C654 C 0.06697 0.67926 0.57778 0.0
C655 C 0.0727 0.68007 0.55781 0.0
C656 C 0.10873 0.68654 0.55006 0.0
C657 C 0.13659 0.69251 0.56254 0.0
C658 C 0.13036 0.69179 0.58236 0.0
H659 H 0.02794 0.70341 0.62717 0.0
H660 H 0.08342 0.70465 0.61143 0.0
H661 H 0.02656 0.69826 0.60345 0.0
H662 H 0.04061 0.67399 0.58358 0.0
H663 H 0.05123 0.67531 0.54853 0.0
H664 H 0.94441 0.42371 0.45617 0.0
H665 H 0.943 0.42407 0.4212 0.0
H666 H 0.79105 0.43747 0.42247 0.0
H667 H 0.79228 0.43716 0.45778 0.0
H668 H 0.87068 0.41716 0.39312 0.0
H669 H 0.88822 0.45627 0.39322 0.0
H670 H 0.89995 0.44923 0.41437 0.0
H671 H 0.83397 0.45146 0.40652 0.0
C672 C 0.91025 0.42661 0.44904 0.0
C673 C 0.86861 0.43049 0.45973 0.0
C674 C 0.90953 0.4268 0.42904 0.0
C675 C 0.86743 0.43095 0.41926 0.0
C676 C 0.8243 0.43436 0.4298 0.0
H677 H 0.81605 0.44466 0.30059 0.0
H678 H 0.81504 0.44311 0.33529 0.0
C679 C 0.82478 0.43409 0.44993 0.0
C680 C 0.87072 0.43213 0.39814 0.0
H681 H 0.88391 0.44878 0.36307 0.0
C682 C 0.87345 0.42407 0.38651 0.0
C683 C 0.87499 0.44115 0.38962 0.0
C684 C 0.87458 0.45004 0.40152 0.0
C685 C 0.87918 0.42478 0.3665 0.0
C686 C 0.88351 0.43381 0.35797 0.0
C687 C 0.88093 0.44187 0.36964 0.0
C688 C 0.88707 0.43508 0.33685 0.0
C689 C 0.87917 0.41588 0.35463 0.0
C690 C 0.9289 0.43131 0.32611 0.0
C691 C 0.92966 0.43217 0.30604 0.0
C692 C 0.88854 0.43682 0.29644 0.0
C693 C 0.84807 0.44092 0.30741 0.0
C694 C 0.84742 0.44007 0.32733 0.0
H695 H 0.86359 0.40976 0.3628 0.0
H696 H 0.85528 0.4168 0.34144 0.0
H697 H 0.92001 0.41421 0.35025 0.0
H698 H 0.96059 0.42761 0.33322 0.0
H699 H 0.96148 0.42897 0.29805 0.0
H700 H 0.8025 0.31112 0.29631 0.0
H701 H 0.80542 0.3122 0.33151 0.0
H702 H 0.91487 0.289 0.33323 0.0
H703 H 0.91333 0.28809 0.2983 0.0
H704 H 0.78399 0.30046 0.36075 0.0
H705 H 0.99597 0.3088 0.362 0.0
H706 H 0.95811 0.30877 0.34013 0.0
H707 H 0.98328 0.2979 0.34984 0.0
C708 C 0.82656 0.30618 0.30426 0.0
C709 C 0.85818 0.2996 0.29457 0.0
C710 C 0.82849 0.30684 0.32434 0.0
C711 C 0.86182 0.30089 0.33498 0.0
C712 C 0.89046 0.2939 0.32533 0.0
H713 H 0.84192 0.28831 0.45539 0.0
H714 H 0.84392 0.28822 0.42036 0.0
C715 C 0.88911 0.29333 0.30536 0.0
C716 C 0.86712 0.30195 0.35613 0.0
H717 H 0.95788 0.30414 0.39203 0.0
C718 C 0.82196 0.30135 0.36757 0.0
C719 C 0.91654 0.30334 0.36507 0.0
C720 C 0.96612 0.30485 0.35361 0.0
C721 C 0.82506 0.3017 0.38767 0.0
C722 C 0.8749 0.3024 0.39664 0.0
C723 C 0.91983 0.30342 0.38519 0.0
C724 C 0.88089 0.30191 0.41785 0.0
C725 C 0.77469 0.30139 0.39908 0.0
C726 C 0.90492 0.30928 0.42814 0.0
C727 C 0.90518 0.3092 0.44828 0.0
C728 C 0.88112 0.30178 0.4583 0.0
C729 C 0.86038 0.29414 0.44796 0.0
C730 C 0.86092 0.29415 0.42795 0.0
H731 H 0.74082 0.30392 0.39044 0.0
H732 H 0.76645 0.294 0.40335 0.0
H733 H 0.77752 0.30576 0.41225 0.0
H734 H 0.92122 0.31529 0.42063 0.0
H735 H 0.92101 0.31521 0.45596 0.0
H736 H 0.667 0.03705 0.71277 0.0
H737 H 0.67208 0.03645 0.67786 0.0
H738 H 0.57089 0.06077 0.67405 0.0
H739 H 0.56422 0.06121 0.70925 0.0
H740 H 0.54797 0.04813 0.64668 0.0
H741 H 0.76263 0.05393 0.64693 0.0
H742 H 0.74479 0.04372 0.66062 0.0
H743 H 0.72299 0.05522 0.66821 0.0
C744 C 0.64542 0.04223 0.7045 0.0
C745 C 0.6157 0.04925 0.71373 0.0
C746 C 0.64878 0.04193 0.68454 0.0
C747 C 0.6235 0.04877 0.67332 0.0
C748 C 0.5914 0.0555 0.68243 0.0
H749 H 0.69582 0.05934 0.55248 0.0
H750 H 0.69528 0.05966 0.5877 0.0
C751 C 0.58736 0.05572 0.70251 0.0
C752 C 0.63102 0.04886 0.65216 0.0
H753 H 0.7254 0.04869 0.61724 0.0
C754 C 0.58674 0.04832 0.64025 0.0
C755 C 0.6816 0.04931 0.64369 0.0
C756 C 0.73064 0.05068 0.65553 0.0
C757 C 0.59166 0.04791 0.62019 0.0
C758 C 0.6424 0.04775 0.6118 0.0
C759 C 0.68661 0.04861 0.62366 0.0
C760 C 0.65002 0.04681 0.59072 0.0
C761 C 0.54228 0.04783 0.60822 0.0
C762 C 0.62777 0.03919 0.58078 0.0
C763 C 0.62771 0.03905 0.56075 0.0
C764 C 0.65116 0.04639 0.55029 0.0
C765 C 0.67797 0.05354 0.56021 0.0
C766 C 0.67722 0.05377 0.58032 0.0
H767 H 0.50845 0.05086 0.61617 0.0
H768 H 0.5476 0.05187 0.59471 0.0
H769 H 0.53221 0.04044 0.60449 0.0
H770 H 0.60822 0.03357 0.58849 0.0
H771 H 0.60694 0.03344 0.55342 0.0
H772 H 0.71152 0.18426 0.70566 0.0
H773 H 0.71069 0.18492 0.67035 0.0
H774 H 0.54215 0.18756 0.67098 0.0
H775 H 0.54225 0.18692 0.70576 0.0
H776 H 0.65124 0.17313 0.64241 0.0
H777 H 0.5959 0.21099 0.64054 0.0
H778 H 0.62368 0.20545 0.66154 0.0
H779 H 0.55557 0.20378 0.65577 0.0
C780 C 0.67431 0.18493 0.69826 0.0
C781 C 0.62708 0.18563 0.70866 0.0
C782 C 0.6739 0.18531 0.67811 0.0
C783 C 0.62637 0.18644 0.66811 0.0
C784 C 0.5793 0.18684 0.67842 0.0
H785 H 0.55992 0.1796 0.54527 0.0
H786 H 0.5551 0.17872 0.5805 0.0
C787 C 0.5796 0.18646 0.69839 0.0
C788 C 0.62512 0.18738 0.64692 0.0
H789 H 0.591 0.20264 0.6111 0.0
C790 C 0.63833 0.17958 0.63552 0.0
C791 C 0.60834 0.19583 0.63801 0.0
C792 C 0.59545 0.20453 0.64954 0.0
C793 C 0.63454 0.17997 0.61539 0.0
C794 C 0.61643 0.18835 0.60651 0.0
C795 C 0.60398 0.19618 0.61794 0.0
C796 C 0.61446 0.1894 0.58531 0.0
C797 C 0.65095 0.1715 0.60378 0.0
C798 C 0.64735 0.196 0.57641 0.0
C799 C 0.64988 0.19654 0.55646 0.0
C800 C 0.61925 0.19055 0.5449 0.0
C801 C 0.58379 0.18433 0.55379 0.0
C802 C 0.58154 0.18374 0.57389 0.0
H803 H 0.67371 0.16636 0.61248 0.0
H804 H 0.61542 0.16787 0.59825 0.0
H805 H 0.67512 0.17367 0.59128 0.0
H806 H 0.6727 0.20049 0.58492 0.0
H807 H 0.67733 0.20146 0.55005 0.0
H808 H 0.30481 0.94424 0.45466 0.0
H809 H 0.30151 0.94566 0.4194 0.0
H810 H 0.43435 0.92695 0.41466 0.0
H811 H 0.43777 0.92553 0.44947 0.0
H812 H 0.38925 0.95269 0.39713 0.0
H813 H 0.33145 0.91672 0.37419 0.0
H814 H 0.31966 0.9211 0.39814 0.0
H815 H 0.38374 0.91691 0.39146 0.0
C816 C 0.33215 0.94023 0.446 0.0
C817 C 0.3714 0.93476 0.45473 0.0
C818 C 0.33057 0.9411 0.42592 0.0
C819 C 0.36752 0.93635 0.41442 0.0
C820 C 0.405 0.93056 0.42319 0.0
H821 H 0.45438 0.9332 0.29383 0.0
H822 H 0.45594 0.93254 0.32907 0.0
C823 C 0.40697 0.92978 0.4431 0.0
C824 C 0.37054 0.938 0.39342 0.0
H825 H 0.3694 0.9266 0.35027 0.0
C826 C 0.3843 0.94702 0.38684 0.0
C827 C 0.36491 0.93056 0.38007 0.0
C828 C 0.34868 0.92079 0.38626 0.0
C829 C 0.39369 0.94876 0.36727 0.0
C830 C 0.38833 0.9413 0.35392 0.0
C831 C 0.37417 0.93229 0.36052 0.0
C832 C 0.39368 0.94277 0.3329 0.0
C833 C 0.41055 0.9585 0.36116 0.0
C834 C 0.35929 0.94891 0.32341 0.0
C835 C 0.35849 0.94931 0.30342 0.0
C836 C 0.39188 0.94353 0.29242 0.0
C837 C 0.42858 0.93779 0.30191 0.0
C838 C 0.42917 0.93736 0.32202 0.0
H839 H 0.42838 0.96248 0.37324 0.0
H840 H 0.43928 0.95818 0.34919 0.0
H841 H 0.37566 0.96249 0.35617 0.0
H842 H 0.33099 0.95304 0.33142 0.0
H843 H 0.32978 0.95382 0.29653 0.0
H844 H 0.3476 0.78473 0.45782 0.0
H845 H 0.34682 0.78411 0.42284 0.0
H846 H 0.42992 0.8106 0.42062 0.0
H847 H 0.43214 0.81108 0.45588 0.0
H848 H 0.29632 0.79657 0.4007 0.0
H849 H 0.50675 0.79559 0.38012 0.0
H850 H 0.48486 0.79334 0.40431 0.0
H851 H 0.48971 0.80524 0.39559 0.0
C852 C 0.36703 0.7903 0.44986 0.0
C853 C 0.39013 0.79794 0.45952 0.0
C854 C 0.36626 0.78997 0.42987 0.0
C855 C 0.38816 0.79731 0.41904 0.0
C856 C 0.41349 0.80477 0.42864 0.0
H857 H 0.30157 0.80848 0.29918 0.0
H858 H 0.30344 0.80846 0.33441 0.0
C859 C 0.4149 0.80504 0.44877 0.0
C860 C 0.38046 0.79741 0.39787 0.0
H861 H 0.4452 0.79775 0.35501 0.0
C862 C 0.32892 0.79681 0.3907 0.0
C863 C 0.42292 0.79768 0.38482 0.0
C864 C 0.47921 0.79791 0.39155 0.0
C865 C 0.3187 0.79638 0.37091 0.0
C866 C 0.36112 0.79678 0.35785 0.0
C867 C 0.41263 0.79747 0.36501 0.0
C868 C 0.35359 0.79617 0.33672 0.0
C869 C 0.26273 0.79522 0.36422 0.0
C870 C 0.38021 0.78919 0.32629 0.0
C871 C 0.37951 0.78925 0.30628 0.0
C872 C 0.3519 0.79627 0.29621 0.0
C873 C 0.3224 0.8029 0.30659 0.0
C874 C 0.32363 0.80291 0.32672 0.0
H875 H 0.23699 0.7925 0.37583 0.0
H876 H 0.2472 0.80218 0.35967 0.0
H877 H 0.26037 0.79034 0.3518 0.0
H878 H 0.40327 0.78389 0.33365 0.0
H879 H 0.40265 0.78405 0.29864 0.0
H880 H 0.70039 0.55507 0.04632 0.0
H881 H 0.69926 0.55417 0.08156 0.0
H882 H 0.53336 0.54822 0.08035 0.0
H883 H 0.53386 0.54902 0.04557 0.0
H884 H 0.63686 0.56471 0.10874 0.0
H885 H 0.59514 0.52634 0.112 0.0
H886 H 0.61894 0.53206 0.09056 0.0
H887 H 0.55075 0.53286 0.09702 0.0
C888 C 0.66371 0.55358 0.05356 0.0
C889 C 0.61737 0.55206 0.043 0.0
C890 C 0.66312 0.55307 0.07369 0.0
C891 C 0.61634 0.55098 0.08353 0.0
C892 C 0.57006 0.54966 0.07305 0.0
H893 H 0.55449 0.55828 0.20675 0.0
H894 H 0.5459 0.55868 0.17157 0.0
C895 C 0.57053 0.55017 0.05308 0.0
C896 C 0.61517 0.55018 0.10475 0.0
H897 H 0.58705 0.53487 0.14118 0.0
C898 C 0.62615 0.55819 0.11587 0.0
C899 C 0.60135 0.54165 0.11399 0.0
C900 C 0.59132 0.53271 0.10282 0.0
C901 C 0.62317 0.55791 0.13601 0.0
C902 C 0.60806 0.54944 0.14523 0.0
C903 C 0.59764 0.54141 0.13409 0.0
C904 C 0.60782 0.54852 0.16645 0.0
C905 C 0.63749 0.56662 0.14728 0.0
C906 C 0.64339 0.54233 0.17519 0.0
C907 C 0.64808 0.54206 0.19511 0.0
C908 C 0.61703 0.54793 0.20679 0.0
C909 C 0.57883 0.55367 0.19812 0.0
C910 C 0.57437 0.55398 0.17805 0.0
H911 H 0.65823 0.57191 0.1383 0.0
H912 H 0.60116 0.56993 0.15293 0.0
H913 H 0.66288 0.56479 0.15968 0.0
H914 H 0.66921 0.53798 0.16656 0.0
H915 H 0.67753 0.53748 0.20137 0.0
H916 H 0.56788 0.69803 0.20047 0.0
H917 H 0.57573 0.69667 0.16587 0.0
H918 H 0.7116 0.67882 0.17268 0.0
H919 H 0.70285 0.67992 0.20778 0.0
H920 H 0.64898 0.70094 0.13997 0.0
H921 H 0.61596 0.66219 0.14083 0.0
H922 H 0.60742 0.66942 0.16188 0.0
H923 H 0.6722 0.6661 0.15417 0.0
C924 C 0.59979 0.69386 0.19469 0.0
C925 C 0.63424 0.68894 0.20692 0.0
C926 C 0.60427 0.69311 0.17484 0.0
C927 C 0.64335 0.68745 0.16663 0.0
C928 C 0.6802 0.68303 0.17871 0.0
H929 H 0.70582 0.67699 0.04639 0.0
H930 H 0.70745 0.67747 0.08141 0.0
C931 C 0.67564 0.68376 0.19875 0.0
C932 C 0.64335 0.68603 0.14548 0.0
H933 H 0.62799 0.66931 0.11052 0.0
C934 C 0.64452 0.69402 0.13355 0.0
C935 C 0.63693 0.67699 0.13708 0.0
C936 C 0.63255 0.66818 0.14911 0.0
C937 C 0.63943 0.69323 0.11356 0.0
C938 C 0.63288 0.68422 0.10524 0.0
C939 C 0.63259 0.67621 0.11703 0.0
C940 C 0.62881 0.68301 0.08419 0.0
C941 C 0.64136 0.70201 0.10138 0.0
C942 C 0.58326 0.6857 0.07419 0.0
C943 C 0.58191 0.68533 0.05408 0.0
C944 C 0.62639 0.6824 0.04375 0.0
C945 C 0.67103 0.67935 0.05393 0.0
C946 C 0.67208 0.67961 0.07394 0.0
H947 H 0.65325 0.70832 0.10977 0.0
H948 H 0.6693 0.70105 0.0893 0.0
H949 H 0.60194 0.70334 0.09514 0.0
H950 H 0.54936 0.68831 0.08193 0.0
H951 H 0.54714 0.68777 0.04663 0.0
H952 H 0.26928 0.43051 0.8005 0.0
H953 H 0.27899 0.43033 0.8352 0.0
H954 H 0.44505 0.43546 0.82934 0.0
H955 H 0.43571 0.4357 0.7942 0.0
H956 H 0.34365 0.41874 0.85892 0.0
H957 H 0.3905 0.45693 0.86514 0.0
H958 H 0.36221 0.45187 0.84373 0.0
H959 H 0.4307 0.45025 0.84884 0.0
C960 C 0.30806 0.4316 0.80648 0.0
C961 C 0.35172 0.43321 0.7945 0.0
C962 C 0.31346 0.43145 0.82637 0.0
C963 C 0.36251 0.43299 0.83485 0.0
C964 C 0.40664 0.43438 0.82304 0.0
H965 H 0.46598 0.43802 0.95154 0.0
H966 H 0.45531 0.43742 0.91701 0.0
C967 C 0.40134 0.43446 0.80299 0.0
C968 C 0.36654 0.43328 0.85608 0.0
H969 H 0.39073 0.44804 0.89374 0.0
C970 C 0.35399 0.42513 0.86657 0.0
C971 C 0.37947 0.44166 0.86597 0.0
C972 C 0.39112 0.45071 0.85543 0.0
C973 C 0.35515 0.42509 0.88674 0.0
C974 C 0.36817 0.43347 0.89665 0.0
C975 C 0.38046 0.44163 0.88612 0.0
C976 C 0.37293 0.4338 0.91787 0.0
C977 C 0.34381 0.41602 0.89725 0.0
C978 C 0.32981 0.43205 0.92998 0.0
C979 C 0.33571 0.43237 0.95001 0.0
C980 C 0.38485 0.43445 0.95821 0.0
C981 C 0.42753 0.43631 0.94589 0.0
C982 C 0.42158 0.43601 0.92604 0.0
H983 H 0.34563 0.4098 0.88756 0.0
H984 H 0.3721 0.41496 0.90917 0.0
H985 H 0.30376 0.41636 0.90348 0.0
H986 H 0.2916 0.43049 0.92396 0.0
H987 H 0.30199 0.43095 0.95903 0.0
H988 H 0.46166 0.31316 0.80001 0.0
H989 H 0.45345 0.31326 0.83482 0.0
H990 H 0.29727 0.30175 0.83021 0.0
H991 H 0.30531 0.30157 0.79502 0.0
H992 H 0.37932 0.32168 0.86003 0.0
H993 H 0.37912 0.28251 0.86387 0.0
H994 H 0.3981 0.28884 0.84251 0.0
H995 H 0.32993 0.28766 0.84863 0.0
C996 C 0.42527 0.31071 0.80633 0.0
C997 C 0.38429 0.30725 0.79474 0.0
C998 C 0.42066 0.31081 0.82626 0.0
C999 C 0.37519 0.30737 0.8351 0.0
C1000 C 0.33307 0.30431 0.82362 0.0
H1001 H 0.28796 0.29719 0.95205 0.0
H1002 H 0.29607 0.29843 0.91747 0.0
C1003 C 0.3375 0.30428 0.80355 0.0
C1004 C 0.37343 0.30665 0.85633 0.0
H1005 H 0.37014 0.29075 0.89309 0.0
C1006 C 0.37725 0.31493 0.86729 0.0
C1007 C 0.37148 0.29782 0.86572 0.0
C1008 C 0.36987 0.28868 0.85465 0.0
C1009 C 0.37782 0.31462 0.88745 0.0
C1010 C 0.37555 0.30579 0.89685 0.0
C1011 C 0.37213 0.29752 0.88585 0.0
C1012 C 0.37268 0.30498 0.91807 0.0
C1013 C 0.37941 0.32376 0.89853 0.0
C1014 C 0.41366 0.30811 0.93001 0.0
C1015 C 0.4092 0.30742 0.95005 0.0
C1016 C 0.36363 0.3036 0.9584 0.0
C1017 C 0.32345 0.30028 0.94625 0.0
C1018 C 0.32799 0.30095 0.92639 0.0
H1019 H 0.37 0.32992 0.88931 0.0
H1020 H 0.3513 0.32358 0.91071 0.0
H1021 H 0.4194 0.32479 0.90449 0.0
H1022 H 0.44899 0.31109 0.92385 0.0
H1023 H 0.44094 0.31 0.95896 0.0
H1024 H 0.42389 0.96994 0.23255 0.0
H1025 H 0.37699 0.98473 0.2377 0.0
H1026 H 0.22904 0.97008 0.23368 0.0
H1027 H 0.27578 0.95516 0.22843 0.0
H1028 H 0.23943 0.98802 0.21196 0.0
H1029 H 0.29642 0.99051 0.2888 0.0
H1030 H 0.3495 0.98836 0.27237 0.0
H1031 H 0.2993 0.9796 0.27546 0.0
C1032 C 0.38136 0.96985 0.23269 0.0
C1033 C 0.35337 0.96141 0.23022 0.0
C1034 C 0.35474 0.9783 0.23567 0.0
C1035 C 0.29981 0.97841 0.23628 0.0
C1036 C 0.27156 0.97006 0.23332 0.0
H1037 H 0.07575 0.02331 0.2557 0.0
H1038 H 0.1184 0.00848 0.24705 0.0
C1039 C 0.29823 0.96158 0.23035 0.0
C1040 C 0.27219 0.98729 0.24038 0.0
H1041 H 0.25544 0.00391 0.27514 0.0
C1042 C 0.24251 0.99149 0.22578 0.0
C1043 C 0.27669 0.99174 0.25843 0.0
C1044 C 0.30682 0.9873 0.27475 0.0
C1045 C 0.21803 0.00023 0.22864 0.0
C1046 C 0.2229 0.00472 0.24666 0.0
C1047 C 0.25219 0.00045 0.2613 0.0
C1048 C 0.19733 0.0138 0.25084 0.0
C1049 C 0.18829 0.00469 0.21226 0.0
C1050 C 0.22775 0.02163 0.25612 0.0
C1051 C 0.20353 0.03008 0.26125 0.0
C1052 C 0.14856 0.03079 0.26124 0.0
C1053 C 0.11824 0.02296 0.25578 0.0
C1054 C 0.14247 0.01451 0.2507 0.0
H1055 H 0.19957 0.00159 0.19822 0.0
H1056 H 0.14562 0.0035 0.21435 0.0
H1057 H 0.19522 0.01242 0.21176 0.0
H1058 H 0.2702 0.02116 0.2564 0.0
H1059 H 0.22778 0.03602 0.26538 0.0
H1060 H 0.95177 0.28375 0.22947 0.0
H1061 H 0.99367 0.26839 0.23419 0.0
H1062 H 0.84263 0.25588 0.24581 0.0
H1063 H 0.80032 0.27118 0.24096 0.0
H1064 H 0.98788 0.25741 0.26831 0.0
H1065 H 0.90848 0.23834 0.20489 0.0
H1066 H 0.90793 0.25105 0.20673 0.0
H1067 H 0.86061 0.24416 0.21969 0.0
C1068 C 0.92747 0.27771 0.23289 0.0
C1069 C 0.87284 0.27863 0.23481 0.0
C1070 C 0.95142 0.26897 0.23558 0.0
C1071 C 0.92105 0.26103 0.24009 0.0
C1072 C 0.8665 0.26191 0.24198 0.0
H1073 H 0.00791 0.20324 0.26767 0.0
H1074 H 0.95899 0.21782 0.2614 0.0
C1075 C 0.84251 0.27065 0.23932 0.0
C1076 C 0.94688 0.25191 0.24373 0.0
H1077 H 0.95785 0.22936 0.22715 0.0
C1078 C 0.98146 0.25128 0.25931 0.0
C1079 C 0.93787 0.24395 0.23199 0.0
C1080 C 0.90203 0.24438 0.21478 0.0
C1081 C 0.00745 0.24283 0.26352 0.0
C1082 C 0.99914 0.23491 0.25162 0.0
C1083 C 0.96397 0.23549 0.23619 0.0
C1084 C 0.02808 0.22605 0.25465 0.0
C1085 C 0.04323 0.24243 0.28077 0.0
C1086 C 0.08275 0.22588 0.25249 0.0
C1087 C 0.11064 0.21762 0.25605 0.0
C1088 C 0.08419 0.20939 0.26175 0.0
C1089 C 0.02923 0.20951 0.26341 0.0
C1090 C 0.0013 0.21779 0.25982 0.0
H1091 H 0.03496 0.24824 0.29104 0.0
H1092 H 0.03918 0.2356 0.28838 0.0
H1093 H 0.08457 0.24313 0.27595 0.0
H1094 H 0.10386 0.23216 0.24818 0.0
H1095 H 0.15296 0.21771 0.25452 0.0
H1096 H 0.22556 0.20252 0.98444 0.0
H1097 H 0.26968 0.21762 0.99033 0.0
H1098 H 0.1237 0.22954 0.01026 0.0
H1099 H 0.07967 0.21451 0.00472 0.0
H1100 H 0.24336 0.23471 0.97296 0.0
H1101 H 0.22693 0.2373 0.05214 0.0
H1102 H 0.21727 0.22637 0.03934 0.0
H1103 H 0.16559 0.23499 0.04037 0.0
C1104 C 0.20311 0.20833 0.9903 0.0
C1105 C 0.14924 0.20736 0.99411 0.0
C1106 C 0.22829 0.21693 0.99364 0.0
C1107 C 0.20001 0.22463 1.00094 0.0
C1108 C 0.14643 0.22362 0.005 0.0
H1109 H 0.2641 0.28384 0.02124 0.0
H1110 H 0.2226 0.26839 0.01668 0.0
C1111 C 0.12129 0.21504 1.00171 0.0
C1112 C 0.22548 0.23392 0.00311 0.0
H1113 H 0.25179 0.2513 0.03555 0.0
C1114 C 0.24565 0.23831 0.98666 0.0
C1115 C 0.22796 0.2386 0.021 0.0
C1116 C 0.20873 0.23405 0.03926 0.0
C1117 C 0.26741 0.24738 0.98754 0.0
C1118 C 0.26959 0.25208 0.0054 0.0
C1119 C 0.24963 0.24768 0.02187 0.0
C1120 C 0.29394 0.26146 0.0074 0.0
C1121 C 0.2869 0.25192 0.9693 0.0
C1122 C 0.34762 0.26262 0.00372 0.0
C1123 C 0.37127 0.27139 0.00627 0.0
C1124 C 0.34166 0.27914 0.01269 0.0
C1125 C 0.28777 0.27799 0.01625 0.0
C1126 C 0.26411 0.26919 0.01369 0.0
H1127 H 0.27023 0.24848 0.95635 0.0
H1128 H 0.27685 0.25954 0.96896 0.0
H1129 H 0.33028 0.25127 0.96861 0.0
H1130 H 0.37143 0.25669 0.99918 0.0
H1131 H 0.41294 0.27205 0.00348 0.0
H1132 H 0.17604 0.02504 0.00785 0.0
H1133 H 0.14278 0.00893 0.0099 0.0
H1134 H 0.99339 0.01812 0.98754 0.0
H1135 H 0.02668 0.0343 0.98515 0.0
H1136 H 0.05612 0.00144 0.02933 0.0
H1137 H 0.03851 -0.00297 0.95042 0.0
H1138 H 0.07481 0.00659 0.96123 0.0
H1139 H 0.00438 0.00709 0.95991 0.0
C1140 C 0.13596 0.02366 0.00349 0.0
C1141 C 0.10406 0.0309 0.99614 0.0
C1142 C 0.1171 0.01445 0.00467 0.0
C1143 C 0.06613 0.01233 0.99848 0.0
C1144 C 0.03331 0.01961 0.99196 0.0
H1145 H 0.86805 0.96417 0.99398 0.0
H1146 H 0.91225 0.9793 0.99032 0.0
C1147 C 0.05219 0.02884 0.99075 0.0
C1148 C 0.04768 0.00247 0.99869 0.0
H1149 H 0.00307 0.9848 0.96978 0.0
C1150 C 0.04486 -0.00225 0.01633 0.0
C1151 C 0.03356 -0.00229 0.98163 0.0
C1152 C 0.03836 0.00232 0.96218 0.0
C1153 C 0.02633 0.98847 0.01746 0.0
C1154 C 0.01119 0.98377 1.00044 0.0
C1155 C 0.01499 0.98843 0.98276 0.0
C1156 C 0.9871 0.97432 1.00092 0.0
C1157 C 0.02122 0.98387 0.03691 0.0
C1158 C 0.01522 0.96644 0.00749 0.0
C1159 C 0.98998 0.95775 0.00964 0.0
C1160 C 0.9364 0.95687 0.00521 0.0
C1161 C 0.90928 0.96466 0.99767 0.0
C1162 C 0.93445 0.9733 0.99553 0.0
H1163 H 0.02526 0.98905 0.04878 0.0
H1164 H 0.98267 0.98028 0.03831 0.0
H1165 H 0.05244 0.97848 0.03858 0.0
H1166 H 0.05624 0.96708 0.01138 0.0
H1167 H 0.01183 0.95183 0.01536 0.0
H1168 H 0.54437 0.02243 0.76657 0.0
H1169 H 0.58454 0.00701 0.76095 0.0
H1170 H 0.73724 0.0187 0.77319 0.0
H1171 H 0.69741 0.03418 0.77875 0.0
H1172 H 0.72825 0.00844 0.73785 0.0
H1173 H 0.65001 0.98836 0.80015 0.0
H1174 H 0.60231 -0.0052 0.78636 0.0
H1175 H 0.65169 0.00109 0.79954 0.0
C1176 C 0.58645 0.0217 0.76824 0.0
C1177 C 0.61785 0.02949 0.7731 0.0
C1178 C 0.60922 0.01288 0.76514 0.0
C1179 C 0.66364 0.01174 0.7669 0.0
C1180 C 0.69506 0.01948 0.7719 0.0
H1181 H 0.88875 0.96801 0.74587 0.0
H1182 H 0.84162 0.98243 0.75394 0.0
C1183 C 0.6723 0.02829 0.77507 0.0
C1184 C 0.6882 0.0026 0.76231 0.0
H1185 H 0.69663 0.97965 0.77666 0.0
C1186 C 0.72151 0.00214 0.74634 0.0
C1187 C 0.67869 -0.00557 0.77336 0.0
C1188 C 0.64405 -0.00535 0.79091 0.0
C1189 C 0.74569 0.99367 0.74106 0.0
C1190 C 0.73697 0.98552 0.75229 0.0
C1191 C 0.70307 0.98594 0.76812 0.0
C1192 C 0.76466 0.97662 0.74823 0.0
C1193 C 0.77996 0.9935 0.72339 0.0
C1194 C 0.73668 0.96849 0.74298 0.0
C1195 C 0.76355 0.96019 0.73844 0.0
C1196 C 0.81864 0.95994 0.73918 0.0
C1197 C 0.84629 0.96802 0.74497 0.0
C1198 C 0.8195 0.97628 0.74952 0.0
H1199 H 0.77109 -0.00052 0.71362 0.0
H1200 H 0.82172 0.99407 0.72777 0.0
H1201 H 0.77497 0.9868 0.71535 0.0
H1202 H 0.69422 0.96864 0.74207 0.0
H1203 H 0.74132 0.95403 0.73415 0.0
H1204 H 0.0677 0.70761 0.78719 0.0
H1205 H 0.03056 0.72315 0.78038 0.0
H1206 H 0.11983 0.72447 0.72776 0.0
H1207 H 0.15981 0.70922 0.73533 0.0
H1208 H 0.12504 0.74045 0.74409 0.0
H1209 H 0.91638 0.72991 0.74508 0.0
H1210 H 0.94673 0.72722 0.76758 0.0
H1211 H 0.96869 0.72138 0.74603 0.0
C1212 C 0.07894 0.71121 0.77412 0.0
C1213 C 0.11624 0.70727 0.76171 0.0
C1214 C 0.05748 0.72005 0.77015 0.0
C1215 C 0.07138 0.7249 0.75331 0.0
C1216 C 0.10837 0.72087 0.74081 0.0
H1217 H 0.88315 0.77215 0.71575 0.0
H1218 H 0.92808 0.75704 0.71869 0.0
C1219 C 0.13104 0.71216 0.74509 0.0
C1220 C 0.04879 0.7343 0.74904 0.0
H1221 H 0.93357 0.74646 0.74727 0.0
C1222 C 0.08308 0.74175 0.74455 0.0
C1223 C 0.99403 0.73597 0.74927 0.0
C1224 C 0.95442 0.72816 0.75203 0.0
C1225 C 0.0642 0.75083 0.74053 0.0
C1226 C 0.0097 0.75262 0.74201 0.0
C1227 C 0.97545 0.74515 0.74633 0.0
C1228 C 0.98664 0.7621 0.73878 0.0
C1229 C 0.10286 0.75828 0.73424 0.0
C1230 C 0.00516 0.77006 0.74875 0.0
C1231 C 0.98054 0.77881 0.74648 0.0
C1232 C 0.93587 0.77959 0.73486 0.0
C1233 C 0.91751 0.77167 0.72487 0.0
C1234 C 0.94307 0.76304 0.7266 0.0
H1235 H 0.13815 0.75507 0.72751 0.0
H1236 H 0.08498 0.76326 0.72384 0.0
H1237 H 0.11623 0.76231 0.74698 0.0
H1238 H 0.03761 0.76948 0.7587 0.0
H1239 H 0.99493 0.78483 0.75445 0.0
H1240 H 0.55842 0.71563 1.00186 0.0
H1241 H 0.59918 0.73103 0.00693 0.0
H1242 H 0.74739 0.72004 0.98702 0.0
H1243 H 0.70699 0.70455 0.98201 0.0
H1244 H 0.7514 0.73088 0.02192 0.0
H1245 H 0.64403 0.74928 0.96337 0.0
H1246 H 0.60379 0.74293 0.98017 0.0
H1247 H 0.64816 0.73658 0.96486 0.0
C1248 C 0.59972 0.71648 0.99858 0.0
C1249 C 0.62954 0.70892 0.99142 0.0
C1250 C 0.62279 0.72529 1.00138 0.0
C1251 C 0.67593 0.72667 0.99703 0.0
C1252 C 0.70615 0.71909 0.99031 0.0
H1253 H 0.898 0.77214 1.00204 0.0
H1254 H 0.85134 0.75728 0.99748 0.0
C1255 C 0.68307 0.71027 0.98746 0.0
C1256 C 0.70019 0.73601 0.99969 0.0
H1257 H 0.69806 0.75868 0.98329 0.0
C1258 C 0.73987 0.73696 0.01348 0.0
C1259 C 0.68461 0.74391 0.98869 0.0
C1260 C 0.6431 0.74316 0.97332 0.0
C1261 C 0.76445 0.74566 0.01663 0.0
C1262 C 0.74946 0.75352 0.00543 0.0
C1263 C 0.70929 0.75261 0.99182 0.0
C1264 C 0.77648 0.76267 0.00723 0.0
C1265 C 0.80587 0.74638 0.03205 0.0
C1266 C 0.74917 0.77069 0.0135 0.0
C1267 C 0.77568 0.77923 0.01603 0.0
C1268 C 0.82974 0.77983 0.01222 0.0
C1269 C 0.85642 0.77186 0.00526 0.0
C1270 C 0.82995 0.76336 0.00274 0.0
H1271 H 0.80278 0.74052 0.04258 0.0
H1272 H 0.8453 0.74601 0.02532 0.0
H1273 H 0.80281 0.75319 0.03985 0.0
H1274 H 0.7077 0.77028 0.01685 0.0
H1275 H 0.75417 0.78528 0.02131 0.0
H1276 H 0.08269 0.52439 0.7493 0.0
H1277 H 0.1237 0.50908 0.74364 0.0
H1278 H 0.27309 0.52029 0.76181 0.0
H1279 H 0.23206 0.53565 0.76783 0.0
H1280 H 0.20788 0.50379 0.72005 0.0
H1281 H 0.25033 0.49746 0.79723 0.0
H1282 H 0.2065 0.50665 0.78917 0.0
H1283 H 0.27635 0.50827 0.78771 0.0
C1284 C 0.12435 0.52362 0.75201 0.0
C1285 C 0.15414 0.53117 0.75921 0.0
C1286 C 0.14767 0.51488 0.74874 0.0
C1287 C 0.2011 0.51353 0.75264 0.0
C1288 C 0.2315 0.52116 0.7591 0.0
H1289 H 0.40523 0.46517 0.74723 0.0
H1290 H 0.36595 0.48075 0.75107 0.0
C1291 C 0.20813 0.52992 0.76243 0.0
C1292 C 0.22441 0.50407 0.75034 0.0
H1293 H 0.28167 0.48609 0.77522 0.0
C1294 C 0.22399 0.4999 0.73209 0.0
C1295 C 0.24502 0.49903 0.76614 0.0
C1296 C 0.24429 0.50302 0.78621 0.0
C1297 C 0.24452 0.49084 0.72914 0.0
C1298 C 0.26516 0.48582 0.74494 0.0
C1299 C 0.26563 0.48999 0.76318 0.0
C1300 C 0.28796 0.47631 0.74278 0.0
C1301 C 0.24495 0.48679 0.70913 0.0
C1302 C 0.25672 0.46864 0.73716 0.0
C1303 C 0.27906 0.4597 0.73495 0.0
C1304 C 0.33286 0.45834 0.7384 0.0
C1305 C 0.36368 0.46601 0.7444 0.0
C1306 C 0.34137 0.47491 0.74661 0.0
H1307 H 0.23822 0.49229 0.69806 0.0
H1308 H 0.28293 0.48324 0.70611 0.0
H1309 H 0.21328 0.48145 0.70784 0.0
H1310 H 0.21516 0.46957 0.73448 0.0
H1311 H 0.2544 0.45389 0.7304 0.0
H1312 H 0.28217 0.78381 0.52282 0.0
H1313 H 0.24189 0.76823 0.5191 0.0
H1314 H 0.39529 0.75574 0.51259 0.0
H1315 H 0.4358 0.77125 0.51608 0.0
H1316 H 0.32176 0.75028 0.48456 0.0
H1317 H 0.24281 0.74648 0.55844 0.0
H1318 H 0.2249 0.75727 0.54661 0.0
H1319 H 0.29259 0.75503 0.55228 0.0
C1320 C 0.30724 0.77773 0.52068 0.0
C1321 C 0.36202 0.77871 0.51981 0.0
C1322 C 0.28426 0.76886 0.51867 0.0
C1323 C 0.31582 0.76087 0.51589 0.0
C1324 C 0.37046 0.76184 0.51487 0.0
H1325 H 0.23825 0.70195 0.49324 0.0
H1326 H 0.28613 0.71655 0.50024 0.0
C1327 C 0.39344 0.7707 0.51686 0.0
C1328 C 0.29178 0.75152 0.51333 0.0
H1329 H 0.21453 0.73518 0.53543 0.0
C1330 C 0.29866 0.74692 0.4957 0.0
C1331 C 0.26195 0.74721 0.52799 0.0
C1332 C 0.2554 0.75169 0.54747 0.0
C1333 C 0.2749 0.7382 0.49208 0.0
C1334 C 0.2443 0.73396 0.50663 0.0
C1335 C 0.23814 0.73849 0.52437 0.0
C1336 C 0.21609 0.72506 0.50332 0.0
C1337 C 0.28124 0.73374 0.47256 0.0
C1338 C 0.16111 0.72504 0.50329 0.0
C1339 C 0.1338 0.71675 0.49939 0.0
C1340 C 0.16116 0.70837 0.49553 0.0
C1341 C 0.21628 0.70835 0.49603 0.0
C1342 C 0.24361 0.71666 0.49995 0.0
H1343 H 0.29721 0.73878 0.46185 0.0
H1344 H 0.3088 0.7277 0.47364 0.0
H1345 H 0.24305 0.73101 0.46724 0.0
H1346 H 0.13936 0.73147 0.50593 0.0
H1347 H 0.09129 0.71695 0.49919 0.0
H1348 H 0.82315 0.46547 0.49949 0.0
H1349 H 0.86868 0.4804 0.49424 0.0
H1350 H 0.01448 0.46769 0.51219 0.0
H1351 H 0.96918 0.45266 0.5175 0.0
H1352 H 0.92656 0.48985 0.52509 0.0
H1353 H 0.04743 0.48187 0.46052 0.0
H1354 H 0.9893 0.47522 0.46665 0.0
H1355 H 0.04915 0.47337 0.47969 0.0
C1356 C 0.86504 0.46581 0.5021 0.0
C1357 C 0.8927 0.45795 0.50901 0.0
C1358 C 0.89086 0.47433 0.49911 0.0
C1359 C 0.94473 0.47508 0.50278 0.0
C1360 C 0.97289 0.46717 0.50911 0.0
H1361 H 0.16306 0.52148 0.49854 0.0
H1362 H 0.12019 0.50625 0.50316 0.0
C1363 C 0.947 0.45863 0.51219 0.0
C1364 C 0.97053 0.48431 0.50123 0.0
H1365 H 0.061 0.49664 0.47546 0.0
C1366 C 0.9559 0.49138 0.51424 0.0
C1367 C 0.00876 0.48616 0.48709 0.0
C1368 C 0.02454 0.4788 0.47256 0.0
C1369 C 0.97911 0.50031 0.51359 0.0
C1370 C 0.01703 0.50221 0.49933 0.0
C1371 C 0.0318 0.49511 0.48636 0.0
C1372 C 0.04199 0.51152 0.49756 0.0
C1373 C 0.96363 0.50758 0.52836 0.0
C1374 C 0.01192 0.5195 0.49297 0.0
C1375 C 0.03624 0.52822 0.49039 0.0
C1376 C 0.09094 0.52903 0.49219 0.0
C1377 C 0.1208 0.52105 0.49703 0.0
C1378 C 0.09647 0.51235 0.49965 0.0
H1379 H 0.9444 0.5043 0.54102 0.0
H1380 H 0.99837 0.51164 0.53331 0.0
H1381 H 0.93541 0.51261 0.52184 0.0
H1382 H 0.96986 0.51893 0.491 0.0
H1383 H 0.0124 0.53426 0.4866 0.0
H1384 H 0.74208 0.53479 0.26883 0.0
H1385 H 0.78962 0.52005 0.26274 0.0
H1386 H 0.64255 0.50545 0.25511 0.0
H1387 H 0.5948 0.5201 0.26111 0.0
H1388 H 0.77628 0.50233 0.28383 0.0
H1389 H 0.7305 0.4994 0.20606 0.0
H1390 H 0.72504 0.51036 0.21911 0.0
H1391 H 0.67517 0.50149 0.2215 0.0
C1392 C 0.71997 0.52844 0.26581 0.0
C1393 C 0.66485 0.52857 0.26539 0.0
C1394 C 0.7471 0.52006 0.26236 0.0
C1395 C 0.71941 0.51175 0.25828 0.0
C1396 C 0.66444 0.51185 0.25796 0.0
H1397 H 0.80007 0.45397 0.23337 0.0
H1398 H 0.7555 0.46898 0.23934 0.0
C1399 C 0.63731 0.5202 0.26147 0.0
C1400 C 0.74783 0.50289 0.25478 0.0
H1401 H 0.77126 0.4862 0.22067 0.0
C1402 C 0.7756 0.49881 0.27002 0.0
C1403 C 0.7463 0.49836 0.23675 0.0
C1404 C 0.71802 0.50264 0.21983 0.0
C1405 C 0.80122 0.49014 0.26779 0.0
C1406 C 0.79974 0.4856 0.24973 0.0
C1407 C 0.77214 0.48972 0.23448 0.0
C1408 C 0.8267 0.47657 0.24634 0.0
C1409 C 0.82849 0.4858 0.28487 0.0
C1410 C 0.8814 0.47595 0.2481 0.0
C1411 C 0.90686 0.4674 0.24479 0.0
C1412 C 0.87797 0.45938 0.23947 0.0
C1413 C 0.82324 0.46005 0.23747 0.0
C1414 C 0.79779 0.46859 0.24086 0.0
H1415 H 0.81445 0.48889 0.29859 0.0
H1416 H 0.82226 0.47806 0.28529 0.0
H1417 H 0.87131 0.48714 0.28378 0.0
H1418 H 0.90441 0.48209 0.25193 0.0
H1419 H 0.94915 0.4671 0.24632 0.0
H1420 H 0.76649 0.28677 0.51719 0.0
H1421 H 0.72364 0.27172 0.50999 0.0
H1422 H 0.87511 0.2584 0.50427 0.0
H1423 H 0.91824 0.27341 0.51119 0.0
H1424 H 0.80315 0.25424 0.47437 0.0
H1425 H 0.71674 0.24897 0.54686 0.0
H1426 H 0.70203 0.2601 0.53576 0.0
H1427 H 0.76855 0.25737 0.54229 0.0
C1428 C 0.79059 0.28063 0.51444 0.0
C1429 C 0.84561 0.28122 0.51486 0.0
C1430 C 0.76611 0.27205 0.51041 0.0
C1431 C 0.79637 0.26397 0.50688 0.0
C1432 C 0.85125 0.26458 0.50704 0.0
H1433 H 0.73228 0.20522 0.48249 0.0
H1434 H 0.77389 0.22057 0.48788 0.0
C1435 C 0.87574 0.27314 0.51104 0.0
C1436 C 0.77093 0.25486 0.50291 0.0
H1437 H 0.69293 0.23798 0.52286 0.0
C1438 C 0.77911 0.25066 0.48495 0.0
C1439 C 0.73977 0.25026 0.51682 0.0
C1440 C 0.73147 0.25435 0.53658 0.0
C1441 C 0.75622 0.24196 0.4804 0.0
C1442 C 0.72516 0.23736 0.49433 0.0
C1443 C 0.71686 0.24158 0.51227 0.0
C1444 C 0.7005 0.22816 0.49058 0.0
C1445 C 0.7646 0.23784 0.46068 0.0
C1446 C 0.6457 0.22739 0.49065 0.0
C1447 C 0.62195 0.21866 0.48768 0.0
C1448 C 0.65273 0.21058 0.4847 0.0
C1449 C 0.70768 0.21136 0.48466 0.0
C1450 C 0.73144 0.2201 0.48763 0.0
H1451 H 0.7792 0.24321 0.45036 0.0
H1452 H 0.79417 0.23211 0.46156 0.0
H1453 H 0.7276 0.23478 0.45502 0.0
H1454 H 0.62133 0.23354 0.49301 0.0
H1455 H 0.57948 0.21826 0.48782 0.0
H1456 H 0.49405 0.28555 0.73466 0.0
H1457 H 0.54034 0.27063 0.74039 0.0
H1458 H 0.39679 0.25816 0.7612 0.0
H1459 H 0.35029 0.27293 0.75538 0.0
H1460 H 0.55016 0.25943 0.77486 0.0
H1461 H 0.44344 0.24084 0.71652 0.0
H1462 H 0.44426 0.25353 0.71866 0.0
H1463 H 0.40196 0.24661 0.73374 0.0
C1464 C 0.47254 0.27964 0.74056 0.0
C1465 C 0.41852 0.28034 0.74435 0.0
C1466 C 0.49896 0.27115 0.74383 0.0
C1467 C 0.47158 0.26329 0.75086 0.0
C1468 C 0.41822 0.26411 0.75541 0.0
H1469 H 0.54825 0.20494 0.77394 0.0
H1470 H 0.50514 0.22031 0.77068 0.0
C1471 C 0.39184 0.27256 0.75214 0.0
C1472 C 0.49827 0.25413 0.75301 0.0
H1473 H 0.49705 0.23146 0.73671 0.0
C1474 C 0.53885 0.25332 0.76648 0.0
C1475 C 0.48315 0.24621 0.74201 0.0
C1476 C 0.44113 0.24682 0.72679 0.0
C1477 C 0.56417 0.24467 0.76955 0.0
C1478 C 0.54883 0.23673 0.75862 0.0
C1479 C 0.50839 0.23757 0.7451 0.0
C1480 C 0.57491 0.22752 0.76073 0.0
C1481 C 0.60638 0.24404 0.78468 0.0
C1482 C 0.62798 0.22651 0.75586 0.0
C1483 C 0.65255 0.21777 0.75765 0.0
C1484 C 0.62433 0.2099 0.76427 0.0
C1485 C 0.57093 0.2109 0.76887 0.0
C1486 C 0.54633 0.21965 0.76703 0.0
H1487 H 0.60453 0.25005 0.79488 0.0
H1488 H 0.60303 0.23735 0.7929 0.0
H1489 H 0.64545 0.24415 0.77764 0.0
H1490 H 0.6503 0.23247 0.75059 0.0
H1491 H 0.69371 0.2172 0.75392 0.0
H1492 H 0.67899 0.02161 0.4862 0.0
H1493 H 0.63612 0.00627 0.48887 0.0
H1494 H 0.48455 0.01984 0.48893 0.0
H1495 H 0.52719 0.03528 0.48618 0.0
H1496 H 0.56618 0.00117 0.51972 0.0
H1497 H 0.47364 -0.00149 0.44762 0.0
H1498 H 0.52763 0.0064 0.45263 0.0
H1499 H 0.46251 0.00933 0.46046 0.0
C1500 C 0.6365 0.02134 0.48664 0.0
C1501 C 0.6063 0.02962 0.48599 0.0
C1502 C 0.61218 0.01258 0.48815 0.0
C1503 C 0.55737 0.01197 0.48888 0.0
C1504 C 0.52696 0.02021 0.48807 0.0
H1505 H 0.33524 0.96732 0.50601 0.0
H1506 H 0.38091 0.98209 0.49934 0.0
C1507 C 0.55131 0.029 0.4866 0.0
C1508 C 0.53231 0.00273 0.49161 0.0
H1509 H 0.45169 0.98668 0.47024 0.0
C1510 C 0.54134 -0.00205 0.5089 0.0
C1511 C 0.50003 -0.00136 0.47741 0.0
C1512 C 0.49052 0.00342 0.4584 0.0
C1513 C 0.51786 0.98922 0.51259 0.0
C1514 C 0.48554 0.98511 0.49839 0.0
C1515 C 0.47675 0.98987 0.48103 0.0
C1516 C 0.45867 0.97605 0.50164 0.0
C1517 C 0.52657 0.98461 0.53185 0.0
C1518 C 0.48748 0.96777 0.50482 0.0
C1519 C 0.46151 0.95932 0.50879 0.0
C1520 C 0.40643 0.95907 0.50942 0.0
C1521 C 0.37776 0.96733 0.5057 0.0
C1522 C 0.40371 0.97576 0.50184 0.0
H1523 H 0.54195 0.98968 0.54262 0.0
H1524 H 0.48952 0.98152 0.53741 0.0
H1525 H 0.55568 0.97884 0.53027 0.0
H1526 H 0.52998 0.96785 0.50435 0.0
H1527 H 0.48447 0.95303 0.51142 0.0
H1528 H 0.66172 0.71804 0.26107 0.0
H1529 H 0.61576 0.73267 0.25331 0.0
H1530 H 0.46729 0.71811 0.25642 0.0
H1531 H 0.51297 0.70343 0.26445 0.0
H1532 H 0.54694 0.73635 0.22225 0.0
H1533 H 0.44992 0.74068 0.2932 0.0
H1534 H 0.50422 0.73271 0.28945 0.0
H1535 H 0.43935 0.72949 0.28174 0.0
C1536 C 0.61926 0.71796 0.26016 0.0
C1537 C 0.59078 0.70964 0.26349 0.0
C1538 C 0.59317 0.7263 0.25568 0.0
C1539 C 0.53828 0.72645 0.25453 0.0
C1540 C 0.5097 0.71813 0.25757 0.0
H1541 H 0.31494 0.77108 0.23393 0.0
H1542 H 0.35861 0.75588 0.23801 0.0
C1543 C 0.53579 0.70977 0.2621 0.0
C1544 C 0.5111 0.73536 0.25017 0.0
H1545 H 0.42696 0.75159 0.269 0.0
C1546 C 0.52069 0.73971 0.23244 0.0
C1547 C 0.47712 0.73967 0.26358 0.0
C1548 C 0.46724 0.73546 0.28313 0.0
C1549 C 0.49658 0.74827 0.22765 0.0
C1550 C 0.46273 0.75258 0.24108 0.0
C1551 C 0.45295 0.74821 0.25876 0.0
C1552 C 0.43711 0.76168 0.23722 0.0
C1553 C 0.50683 0.75257 0.20821 0.0
C1554 C 0.46706 0.76994 0.23541 0.0
C1555 C 0.44225 0.77864 0.23309 0.0
C1556 C 0.38722 0.77917 0.23266 0.0
C1557 C 0.35744 0.77087 0.23422 0.0
C1558 C 0.38224 0.76219 0.23654 0.0
H1559 H 0.5239 0.74737 0.19804 0.0
H1560 H 0.47005 0.75544 0.20196 0.0
H1561 H 0.53504 0.75848 0.20979 0.0
H1562 H 0.50951 0.76966 0.23624 0.0
H1563 H 0.46608 0.78494 0.23199 0.0
H1564 H 0.35164 0.46633 1.00003 0.0
H1565 H 0.40001 0.48078 0.99323 0.0
H1566 H 0.54331 0.46761 0.01246 0.0
H1567 H 0.49482 0.45305 0.01951 0.0
H1568 H 0.52194 0.48553 0.02894 0.0
H1569 H 0.50389 0.48641 0.94965 0.0
H1570 H 0.44262 0.48471 0.9619 0.0
H1571 H 0.49286 0.47584 0.96351 0.0
C1572 C 0.39354 0.46646 0.00267 0.0
C1573 C 0.41954 0.45858 0.01033 0.0
C1574 C 0.42114 0.47471 0.99865 0.0
C1575 C 0.47525 0.47519 1.00209 0.0
C1576 C 0.50154 0.46732 0.00959 0.0
H1577 H 0.69267 0.52221 0.99631 0.0
H1578 H 0.65197 0.50678 1.00069 0.0
C1579 C 0.47389 0.45903 0.0136 0.0
C1580 C 0.50335 0.48416 0.99894 0.0
H1581 H 0.53157 0.50065 0.96484 0.0
C1582 C 0.52465 0.4888 0.01491 0.0
C1583 C 0.50628 0.48841 0.98063 0.0
C1584 C 0.48562 0.48355 0.9629 0.0
C1585 C 0.54763 0.49773 0.01314 0.0
C1586 C 0.55005 0.50203 0.99485 0.0
C1587 C 0.52932 0.49734 0.97884 0.0
C1588 C 0.5745 0.51136 0.99202 0.0
C1589 C 0.56774 0.50262 0.03092 0.0
C1590 C 0.54455 0.51897 0.98525 0.0
C1591 C 0.56778 0.5278 0.98261 0.0
C1592 C 0.62132 0.5291 0.98662 0.0
C1593 C 0.65123 0.52143 0.99321 0.0
C1594 C 0.62804 0.51262 0.99581 0.0
H1595 H 0.55111 0.49949 0.04421 0.0
H1596 H 0.61108 0.5019 0.03157 0.0
H1597 H 0.55811 0.51026 0.03063 0.0
H1598 H 0.50315 0.51809 0.98216 0.0
H1599 H 0.54388 0.5336 0.97748 0.0
H1600 H 0.01538 0.15615 0.28165 0.0
H1601 H 0.02527 0.13934 0.28877 0.0
H1602 H 0.19225 0.14314 0.29558 0.0
H1603 H 0.18288 0.15987 0.28896 0.0
H1604 H 0.08293 0.12764 0.26615 0.0
H1605 H 0.15861 0.12612 0.34059 0.0
H1606 H 0.1279 0.13654 0.33076 0.0
H1607 H 0.19564 0.13397 0.32561 0.0
C1608 C 0.05404 0.15345 0.28505 0.0
C1609 C 0.09834 0.15936 0.28455 0.0
C1610 C 0.0596 0.14385 0.28914 0.0
C1611 C 0.10941 0.14003 0.29292 0.0
C1612 C 0.15332 0.14597 0.29315 0.0
H1613 H 0.23231 0.08426 0.27357 0.0
H1614 H 0.22324 0.10124 0.27959 0.0
C1615 C 0.14785 0.15554 0.28912 0.0
C1616 C 0.11663 0.12971 0.29419 0.0
H1617 H 0.17038 0.11216 0.32145 0.0
C1618 C 0.10146 0.12425 0.27835 0.0
C1619 C 0.14113 0.12532 0.31008 0.0
C1620 C 0.1563 0.13078 0.3278 0.0
C1621 C 0.11124 0.11455 0.27776 0.0
C1622 C 0.13692 0.11022 0.29339 0.0
C1623 C 0.15129 0.11559 0.30942 0.0
C1624 C 0.14728 0.10003 0.29322 0.0
C1625 C 0.09457 0.10895 0.26039 0.0
C1626 C 0.10818 0.09382 0.29945 0.0
C1627 C 0.11299 0.08419 0.29593 0.0
C1628 C 0.1571 0.08062 0.28616 0.0
C1629 C 0.19796 0.08681 0.28113 0.0
C1630 C 0.1929 0.09648 0.28456 0.0
H1631 H 0.07519 0.1134 0.24936 0.0
H1632 H 0.12934 0.10549 0.25384 0.0
H1633 H 0.06691 0.10329 0.26479 0.0
H1634 H 0.0727 0.09648 0.3061 0.0
H1635 H 0.08109 0.07959 0.30019 0.0
H1636 H 0.22774 0.15575 0.96169 0.0
H1637 H 0.22031 0.13912 0.95272 0.0
H1638 H 0.05144 0.14145 0.9532 0.0
H1639 H 0.05829 0.15802 0.9615 0.0
H1640 H 0.17678 0.12655 0.97592 0.0
H1641 H 0.07108 0.1252 0.90678 0.0
H1642 H 0.10085 0.13589 0.91571 0.0
H1643 H 0.03668 0.13234 0.92387 0.0
C1644 C 0.18907 0.15278 0.95942 0.0
C1645 C 0.14367 0.15821 0.96256 0.0
C1646 C 0.18488 0.14328 0.95426 0.0
C1647 C 0.13531 0.13905 0.95208 0.0
C1648 C 0.0901 0.14458 0.95431 0.0
H1649 H 0.01239 0.08399 0.97295 0.0
H1650 H 0.02302 0.10065 0.96416 0.0
C1651 C 0.09419 0.15406 0.95933 0.0
C1652 C 0.1304 0.12868 0.95043 0.0
H1653 H 0.06634 0.11108 0.9264 0.0
C1654 C 0.15348 0.12316 0.96486 0.0
C1655 C 0.09959 0.12427 0.93609 0.0
C1656 C 0.07611 0.12974 0.91964 0.0
C1657 C 0.14498 0.11343 0.96579 0.0
C1658 C 0.11276 0.10908 0.95187 0.0
C1659 C 0.09066 0.1145 0.93712 0.0
C1660 C 0.10158 0.0989 0.95292 0.0
C1661 C 0.16919 0.10787 0.98202 0.0
C1662 C 0.14143 0.09242 0.94873 0.0
C1663 C 0.13567 0.08298 0.95382 0.0
C1664 C 0.08982 0.07985 0.96313 0.0
C1665 C 0.0481 0.0862 0.96581 0.0
C1666 C 0.05408 0.0957 0.96079 0.0
H1667 H 0.18708 0.11251 0.99308 0.0
H1668 H 0.13917 0.10335 0.98899 0.0
H1669 H 0.2003 0.10319 0.97623 0.0
H1670 H 0.17825 0.09479 0.9426 0.0
H1671 H 0.16826 0.07822 0.95131 0.0
H1672 H 0.91382 0.91077 0.70912 0.0
H1673 H 0.9299 0.8939 0.70613 0.0
H1674 H 0.77458 0.88809 0.72767 0.0
H1675 H 0.75789 0.90505 0.73088 0.0
H1676 H 0.92217 0.8822 0.74061 0.0
H1677 H 0.79649 0.86981 0.68041 0.0
H1678 H 0.81816 0.88191 0.6826 0.0
H1679 H 0.76621 0.87758 0.69758 0.0
C1680 C 0.88258 0.90594 0.71295 0.0
C1681 C 0.83473 0.90926 0.72051 0.0
C1682 C 0.89191 0.8963 0.71116 0.0
C1683 C 0.85346 0.8898 0.71667 0.0
C1684 C 0.8045 0.89304 0.72316 0.0
H1685 H 0.8293 0.83083 0.73674 0.0
H1686 H 0.81807 0.8476 0.73108 0.0
C1687 C 0.79508 0.90272 0.72501 0.0
C1688 C 0.86696 0.8797 0.7178 0.0
H1689 H 0.83715 0.85808 0.69953 0.0
C1690 C 0.90402 0.8769 0.73154 0.0
C1691 C 0.84302 0.8729 0.70593 0.0
C1692 C 0.80398 0.87566 0.69067 0.0
C1693 C 0.91645 0.86737 0.73427 0.0
C1694 C 0.89211 0.86051 0.72254 0.0
C1695 C 0.8559 0.86336 0.70846 0.0
C1696 C 0.90034 0.85029 0.72565 0.0
C1697 C 0.95367 0.86473 0.75024 0.0
C1698 C 0.95052 0.84621 0.72445 0.0
C1699 C 0.95733 0.83656 0.72797 0.0
C1700 C 0.91387 0.83085 0.73238 0.0
C1701 C 0.86369 0.83499 0.73331 0.0
C1702 C 0.85708 0.84459 0.73003 0.0
H1703 H 0.95887 0.87057 0.76069 0.0
H1704 H 0.93942 0.85841 0.75809 0.0
H1705 H 0.99272 0.86306 0.74406 0.0
H1706 H 0.98431 0.85046 0.7207 0.0
H1707 H 0.99633 0.83356 0.72694 0.0
H1708 H 0.83681 0.91004 0.04596 0.0
H1709 H 0.82048 0.8937 0.05489 0.0
H1710 H 0.97854 0.88633 0.0386 0.0
H1711 H 0.99551 0.90274 0.02948 0.0
H1712 H 0.83197 0.87976 0.02501 0.0
H1713 H 0.95013 0.87142 0.08984 0.0
H1714 H 0.92983 0.88328 0.08385 0.0
H1715 H 0.98334 0.87788 0.07121 0.0
C1716 C 0.86859 0.905 0.04457 0.0
C1717 C 0.9173 0.90767 0.03668 0.0
C1718 C 0.85916 0.89568 0.04981 0.0
C1719 C 0.89832 0.88885 0.04747 0.0
C1720 C 0.94808 0.89156 0.04077 0.0
H1721 H 0.93034 0.82993 0.03633 0.0
H1722 H 0.93888 0.84662 0.04348 0.0
C1723 C 0.95762 0.90092 0.03547 0.0
C1724 C 0.88452 0.87878 0.04908 0.0
H1725 H 0.91384 0.85841 0.07276 0.0
C1726 C 0.8492 0.87509 0.03561 0.0
C1727 C 0.90739 0.87277 0.06288 0.0
C1728 C 0.94453 0.87651 0.0779 0.0
C1729 C 0.83789 0.86544 0.03494 0.0
C1730 C 0.8614 0.85935 0.04855 0.0
C1731 C 0.89554 0.8631 0.06245 0.0
C1732 C 0.85556 0.84899 0.04714 0.0
C1733 C 0.80328 0.86181 0.01897 0.0
C1734 C 0.8059 0.84468 0.0475 0.0
C1735 C 0.80062 0.8351 0.04305 0.0
C1736 C 0.8451 0.82967 0.03849 0.0
C1737 C 0.89505 0.8339 0.03953 0.0
C1738 C 0.90015 0.84345 0.04374 0.0
H1739 H 0.79817 0.8671 0.00736 0.0
H1740 H 0.81988 0.85528 0.01258 0.0
H1741 H 0.76385 0.86013 0.02481 0.0
H1742 H 0.77108 0.84879 0.05058 0.0
H1743 H 0.76169 0.83204 0.04268 0.0
H1744 H 0.2408 0.5826 0.79099 0.0
H1745 H 0.23538 0.59919 0.80049 0.0
H1746 H 0.06687 0.5969 0.80459 0.0
H1747 H 0.07184 0.58037 0.7957 0.0
H1748 H 0.18631 0.6119 0.77866 0.0
H1749 H 0.09733 0.61282 0.85097 0.0
H1750 H 0.12532 0.60221 0.8409 0.0
H1751 H 0.05955 0.60575 0.83471 0.0
C1752 C 0.20272 0.58556 0.79438 0.0
C1753 C 0.15676 0.58017 0.79234 0.0
C1754 C 0.19969 0.59504 0.79983 0.0
C1755 C 0.15076 0.59926 0.80344 0.0
C1756 C 0.10515 0.59376 0.80233 0.0
H1757 H 0.02781 0.65498 0.789 0.0
H1758 H 0.03856 0.63818 0.79655 0.0
C1759 C 0.10811 0.58431 0.79698 0.0
C1760 C 0.14639 0.60963 0.80551 0.0
H1761 H 0.08986 0.62712 0.83223 0.0
C1762 C 0.16607 0.61523 0.79056 0.0
C1763 C 0.11948 0.61396 0.82096 0.0
C1764 C 0.09969 0.60837 0.83788 0.0
C1765 C 0.15806 0.62499 0.79027 0.0
C1766 C 0.12993 0.62927 0.80541 0.0
C1767 C 0.1111 0.62376 0.82061 0.0
C1768 C 0.11977 0.63951 0.80521 0.0
C1769 C 0.17845 0.63064 0.7735 0.0
C1770 C 0.16126 0.64579 0.80838 0.0
C1771 C 0.15539 0.65531 0.804 0.0
C1772 C 0.10783 0.65872 0.79641 0.0
C1773 C 0.06486 0.65255 0.7948 0.0
C1774 C 0.07092 0.64297 0.79912 0.0
H1775 H 0.19295 0.62608 0.76168 0.0
H1776 H 0.14717 0.63532 0.76779 0.0
H1777 H 0.21135 0.63518 0.77837 0.0
H1778 H 0.19915 0.64322 0.81314 0.0
H1779 H 0.18897 0.65993 0.80567 0.0
H1780 H 0.23358 0.65503 0.48103 0.0
H1781 H 0.22565 0.63819 0.47368 0.0
H1782 H 0.05887 0.64156 0.46537 0.0
H1783 H 0.06631 0.65827 0.47212 0.0
H1784 H 0.16879 0.62601 0.49489 0.0
H1785 H 0.0958 0.62518 0.42017 0.0
H1786 H 0.12465 0.63561 0.43068 0.0
H1787 H 0.05678 0.63276 0.43503 0.0
C1788 C 0.19541 0.65221 0.47731 0.0
C1789 C 0.15061 0.658 0.4773 0.0
C1790 C 0.19096 0.64261 0.47307 0.0
C1791 C 0.1418 0.63867 0.46868 0.0
C1792 C 0.09739 0.64448 0.46819 0.0
H1793 H 0.01624 0.58347 0.48849 0.0
H1794 H 0.0281 0.60045 0.48314 0.0
C1795 C 0.10175 0.65405 0.47231 0.0
C1796 C 0.13537 0.62836 0.46689 0.0
H1797 H 0.08025 0.61117 0.43908 0.0
C1798 C 0.15016 0.62276 0.48256 0.0
C1799 C 0.11094 0.62414 0.45079 0.0
C1800 C 0.09663 0.62973 0.43315 0.0
C1801 C 0.13945 0.61309 0.48286 0.0
C1802 C 0.113 0.60897 0.46718 0.0
C1803 C 0.09969 0.61445 0.45121 0.0
C1804 C 0.10046 0.59886 0.46722 0.0
C1805 C 0.15581 0.6073 0.50003 0.0
C1806 C 0.13647 0.59247 0.45949 0.0
C1807 C 0.1301 0.58284 0.46262 0.0
C1808 C 0.08745 0.57948 0.47349 0.0
C1809 C 0.04937 0.58587 0.48006 0.0
C1810 C 0.05607 0.59554 0.47703 0.0
H1811 H 0.17854 0.6115 0.51062 0.0
H1812 H 0.12041 0.60442 0.50723 0.0
H1813 H 0.18015 0.60123 0.49531 0.0
H1814 H 0.17095 0.59496 0.45192 0.0
H1815 H 0.15976 0.57806 0.45718 0.0
H1816 H 0.97273 0.33117 0.22909 0.0
H1817 H 0.97111 0.34835 0.22438 0.0
H1818 H 0.80504 0.34715 0.21275 0.0
H1819 H 0.80588 0.33016 0.21739 0.0
H1820 H 0.92031 0.36016 0.18997 0.0
H1821 H 0.83375 0.36438 0.26288 0.0
H1822 H 0.87195 0.35417 0.25616 0.0
H1823 H 0.80586 0.35544 0.24765 0.0
C1824 C 0.93607 0.33456 0.22527 0.0
C1825 C 0.88936 0.32932 0.22388 0.0
C1826 C 0.93527 0.34434 0.22255 0.0
C1827 C 0.88786 0.34893 0.21838 0.0
C1828 C 0.84186 0.34368 0.21607 0.0
H1829 H 0.78588 0.40712 0.22437 0.0
H1830 H 0.78845 0.39005 0.21906 0.0
C1831 C 0.84252 0.33397 0.21881 0.0
C1832 C 0.8849 0.35928 0.21793 0.0
H1833 H 0.84008 0.37801 0.24377 0.0
C1834 C 0.90304 0.36411 0.20171 0.0
C1835 C 0.86177 0.3643 0.23324 0.0
C1836 C 0.84241 0.35936 0.25106 0.0
C1837 C 0.89818 0.37395 0.20035 0.0
C1838 C 0.87536 0.37899 0.21576 0.0
C1839 C 0.85711 0.37411 0.23192 0.0
C1840 C 0.87297 0.38938 0.21613 0.0
C1841 C 0.91675 0.37884 0.18237 0.0
C1842 C 0.91957 0.39461 0.21603 0.0
C1843 C 0.91828 0.40431 0.21907 0.0
C1844 C 0.87032 0.40897 0.22244 0.0
C1845 C 0.82342 0.40375 0.22184 0.0
C1846 C 0.8248 0.39402 0.21879 0.0
H1847 H 0.91814 0.37391 0.16998 0.0
H1848 H 0.89087 0.38487 0.17866 0.0
H1849 H 0.95703 0.38158 0.18472 0.0
H1850 H 0.9572 0.39114 0.21443 0.0
H1851 H 0.9552 0.4081 0.21937 0.0
H1852 H 0.92037 0.3327 0.53386 0.0
H1853 H 0.91936 0.34908 0.54369 0.0
H1854 H 0.75003 0.34911 0.5424 0.0
H1855 H 0.75047 0.33259 0.53201 0.0
H1856 H 0.79114 0.36347 0.52255 0.0
H1857 H 0.88776 0.36227 0.59335 0.0
H1858 H 0.92643 0.35622 0.57575 0.0
H1859 H 0.8621 0.35184 0.5818 0.0
C1860 C 0.88269 0.33611 0.53578 0.0
C1861 C 0.8354 0.33132 0.53198 0.0
C1862 C 0.88227 0.34547 0.54171 0.0
C1863 C 0.83465 0.35025 0.54424 0.0
C1864 C 0.78721 0.34549 0.54077 0.0
H1865 H 0.80178 0.4113 0.55199 0.0
H1866 H 0.78627 0.39468 0.55914 0.0
C1867 C 0.78754 0.33608 0.53474 0.0
C1868 C 0.83533 0.36048 0.54818 0.0
H1869 H 0.89437 0.37719 0.57613 0.0
C1870 C 0.81255 0.36648 0.53453 0.0
C1871 C 0.86342 0.36438 0.56381 0.0
C1872 C 0.8858 0.35832 0.5796 0.0
C1873 C 0.81995 0.37624 0.5354 0.0
C1874 C 0.85058 0.38008 0.5504 0.0
C1875 C 0.8713 0.37416 0.56458 0.0
C1876 C 0.86385 0.39018 0.55057 0.0
C1877 C 0.79725 0.38236 0.51972 0.0
C1878 C 0.91358 0.39313 0.54434 0.0
C1879 C 0.92271 0.40263 0.5402 0.0
C1880 C 0.88198 0.40924 0.54216 0.0
C1881 C 0.83368 0.40633 0.55001 0.0
C1882 C 0.82473 0.39687 0.5542 0.0
H1883 H 0.78023 0.37814 0.50783 0.0
H1884 H 0.76575 0.38687 0.5258 0.0
H1885 H 0.82796 0.38708 0.51375 0.0
H1886 H 0.94415 0.388 0.54146 0.0
H1887 H 0.96031 0.40467 0.53424 0.0
H1888 H 0.72693 0.08078 0.78649 0.0
H1889 H 0.72989 0.09777 0.79302 0.0
H1890 H 0.56089 0.09902 0.79013 0.0
H1891 H 0.55729 0.0822 0.78399 0.0
H1892 H 0.69404 0.11146 0.76889 0.0
H1893 H 0.58931 0.11414 0.83816 0.0
H1894 H 0.61455 0.10311 0.82909 0.0
H1895 H 0.55239 0.10758 0.8208 0.0
C1896 C 0.6904 0.08466 0.7875 0.0
C1897 C 0.64194 0.08011 0.78467 0.0
C1898 C 0.69216 0.09435 0.79128 0.0
C1899 C 0.64554 0.09961 0.79243 0.0
C1900 C 0.59725 0.09506 0.78984 0.0
H1901 H 0.5413 0.1565 0.78087 0.0
H1902 H 0.55003 0.13952 0.78676 0.0
C1903 C 0.5954 0.08543 0.78611 0.0
C1904 C 0.64696 0.10999 0.79436 0.0
H1905 H 0.59315 0.12838 0.81917 0.0
C1906 C 0.67287 0.11517 0.78009 0.0
C1907 C 0.619 0.11479 0.80895 0.0
C1908 C 0.5927 0.10961 0.82522 0.0
C1909 C 0.66951 0.12502 0.77946 0.0
C1910 C 0.64003 0.1298 0.79365 0.0
C1911 C 0.61542 0.12466 0.80827 0.0
C1912 C 0.63319 0.14013 0.79297 0.0
C1913 C 0.6957 0.13022 0.76316 0.0
C1914 C 0.67664 0.14606 0.79527 0.0
C1915 C 0.67188 0.1557 0.79183 0.0
C1916 C 0.62345 0.15959 0.78616 0.0
C1917 C 0.57912 0.15371 0.78514 0.0
C1918 C 0.58403 0.14403 0.7885 0.0
H1919 H 0.70799 0.12539 0.75144 0.0
H1920 H 0.66894 0.13564 0.75709 0.0
H1921 H 0.73121 0.13388 0.76861 0.0
H1922 H 0.71468 0.14318 0.79902 0.0
H1923 H 0.70661 0.16007 0.79306 0.0
H1924 H 0.73618 0.15701 0.49471 0.0
H1925 H 0.72736 0.13978 0.49494 0.0
H1926 H 0.57847 0.1421 0.46582 0.0
H1927 H 0.58724 0.15917 0.4652 0.0
H1928 H 0.64378 0.1309 0.51375 0.0
H1929 H 0.64967 0.12063 0.43697 0.0
H1930 H 0.67357 0.13188 0.44546 0.0
H1931 H 0.60438 0.13001 0.44201 0.0
C1932 C 0.70233 0.15382 0.4879 0.0
C1933 C 0.66222 0.15943 0.4801 0.0
C1934 C 0.69724 0.144 0.48812 0.0
C1935 C 0.65241 0.1397 0.4803 0.0
C1936 C 0.61373 0.14527 0.47164 0.0
H1937 H 0.52416 0.08255 0.48487 0.0
H1938 H 0.53144 0.09982 0.48234 0.0
C1939 C 0.61866 0.15504 0.47147 0.0
C1940 C 0.64298 0.12953 0.48296 0.0
H1941 H 0.6174 0.1091 0.45891 0.0
C1942 C 0.6384 0.12612 0.50177 0.0
C1943 C 0.63524 0.12337 0.46727 0.0
C1944 C 0.64141 0.12663 0.44679 0.0
C1945 C 0.62603 0.11666 0.50532 0.0
C1946 C 0.61844 0.11051 0.48966 0.0
C1947 C 0.62258 0.11392 0.47085 0.0
C1948 C 0.61168 0.10031 0.4925 0.0
C1949 C 0.62103 0.11329 0.52578 0.0
C1950 C 0.65426 0.09501 0.49911 0.0
C1951 C 0.65041 0.08526 0.5004 0.0
C1952 C 0.60378 0.08062 0.49514 0.0
C1953 C 0.5604 0.08596 0.48908 0.0
C1954 C 0.56455 0.09578 0.48758 0.0
H1955 H 0.61577 0.11926 0.53594 0.0
H1956 H 0.58735 0.10838 0.5273 0.0
H1957 H 0.65725 0.10944 0.52986 0.0
H1958 H 0.69103 0.0984 0.5028 0.0
H1959 H 0.68439 0.08133 0.50527 0.0
H1960 H 0.44508 0.90986 0.22584 0.0
H1961 H 0.45152 0.89275 0.22549 0.0
H1962 H 0.28542 0.89054 0.23653 0.0
H1963 H 0.27818 0.90778 0.23695 0.0
H1964 H 0.42112 0.8807 0.25725 0.0
H1965 H 0.31467 0.87297 0.18933 0.0
H1966 H 0.34183 0.88445 0.19464 0.0
H1967 H 0.28205 0.88071 0.20595 0.0
C1968 C 0.40965 0.90579 0.22809 0.0
C1969 C 0.36101 0.91021 0.23149 0.0
C1970 C 0.41356 0.896 0.22787 0.0
C1971 C 0.36896 0.89045 0.23088 0.0
C1972 C 0.32014 0.89477 0.23396 0.0
H1973 H 0.30649 0.83145 0.23921 0.0
H1974 H 0.30475 0.84854 0.2375 0.0
C1975 C 0.31613 0.9046 0.23424 0.0
C1976 C 0.3743 0.88011 0.23156 0.0
H1977 H 0.33992 0.85991 0.20831 0.0
C1978 C 0.40361 0.87613 0.24654 0.0
C1979 C 0.35145 0.87426 0.2175 0.0
C1980 C 0.32102 0.87828 0.20083 0.0
C1981 C 0.40955 0.86634 0.24813 0.0
C1982 C 0.38648 0.86046 0.23409 0.0
C1983 C 0.35768 0.86447 0.21899 0.0
C1984 C 0.38902 0.85008 0.23538 0.0
C1985 C 0.43896 0.86237 0.2651 0.0
C1986 C 0.4372 0.84528 0.23469 0.0
C1987 C 0.43852 0.83543 0.2358 0.0
C1988 C 0.39157 0.83028 0.23739 0.0
C1989 C 0.34348 0.83517 0.23794 0.0
C1990 C 0.34229 0.84496 0.23696 0.0
H1991 H 0.44368 0.86766 0.27672 0.0
H1992 H 0.41841 0.85611 0.27103 0.0
H1993 H 0.47869 0.86012 0.26043 0.0
H1994 H 0.47364 0.84914 0.23312 0.0
H1995 H 0.47611 0.83188 0.23522 0.0
H1996 H 0.32397 0.90967 0.54072 0.0
H1997 H 0.31337 0.89274 0.54536 0.0
H1998 H 0.4685 0.888 0.52251 0.0
H1999 H 0.47951 0.90501 0.51765 0.0
H2000 H 0.38396 0.87825 0.50366 0.0
H2001 H 0.38008 0.87332 0.58277 0.0
H2002 H 0.33925 0.88264 0.57366 0.0
H2003 H 0.40931 0.88352 0.57148 0.0
C2004 C 0.35626 0.90505 0.53696 0.0
C2005 C 0.40243 0.90865 0.52862 0.0
C2006 C 0.35022 0.89539 0.53978 0.0
C2007 C 0.39024 0.88917 0.53436 0.0
C2008 C 0.43733 0.89274 0.52685 0.0
H2009 H 0.42306 0.82959 0.54165 0.0
H2010 H 0.4269 0.84663 0.54575 0.0
C2011 C 0.4436 0.90244 0.52413 0.0
C2012 C 0.3804 0.87893 0.53448 0.0
H2013 H 0.355 0.86018 0.56369 0.0
C2014 C 0.37772 0.87428 0.51676 0.0
C2015 C 0.37203 0.87385 0.55164 0.0
C2016 C 0.37566 0.87854 0.57101 0.0
C2017 C 0.367 0.86462 0.51572 0.0
C2018 C 0.35819 0.85954 0.53285 0.0
C2019 C 0.36094 0.86418 0.5506 0.0
C2020 C 0.35144 0.84922 0.53257 0.0
C2021 C 0.36647 0.85985 0.49635 0.0
C2022 C 0.30685 0.84506 0.52429 0.0
C2023 C 0.30441 0.83527 0.52189 0.0
C2024 C 0.3468 0.82959 0.52763 0.0
C2025 C 0.3901 0.8338 0.53679 0.0
C2026 C 0.39228 0.84352 0.53929 0.0
H2027 H 0.38202 0.8645 0.48484 0.0
H2028 H 0.39018 0.85328 0.49671 0.0
H2029 H 0.32555 0.8579 0.4926 0.0
H2030 H 0.27479 0.8494 0.51917 0.0
H2031 H 0.27054 0.83222 0.51486 0.0
H2032 H 0.51785 0.6556 0.26329 0.0
H2033 H 0.52687 0.63847 0.26665 0.0
H2034 H 0.68115 0.64217 0.291 0.0
H2035 H 0.6725 0.6592 0.28793 0.0
H2036 H 0.60868 0.62822 0.2483 0.0
H2037 H 0.61072 0.62299 0.32724 0.0
H2038 H 0.58502 0.63353 0.31611 0.0
H2039 H 0.65466 0.63198 0.31876 0.0
C2040 C 0.55322 0.65277 0.26971 0.0
C2041 C 0.59456 0.65874 0.27521 0.0
C2042 C 0.55834 0.643 0.27157 0.0
C2043 C 0.60449 0.6391 0.27921 0.0
C2044 C 0.64493 0.64506 0.28536 0.0
H2045 H 0.73061 0.58292 0.25992 0.0
H2046 H 0.72025 0.60005 0.2633 0.0
C2047 C 0.64 0.65479 0.28343 0.0
C2048 C 0.61268 0.62882 0.27913 0.0
H2049 H 0.6382 0.60997 0.30808 0.0
C2050 C 0.61483 0.62421 0.26136 0.0
C2051 C 0.62076 0.62366 0.29622 0.0
C2052 C 0.61726 0.62826 0.3157 0.0
C2053 C 0.62548 0.61454 0.26018 0.0
C2054 C 0.63475 0.60942 0.27724 0.0
C2055 C 0.63186 0.61399 0.29505 0.0
C2056 C 0.64395 0.59917 0.27684 0.0
C2057 C 0.626 0.60983 0.24077 0.0
C2058 C 0.6052 0.59311 0.2839 0.0
C2059 C 0.61088 0.58339 0.28198 0.0
C2060 C 0.65566 0.57957 0.27306 0.0
C2061 C 0.69567 0.58566 0.26681 0.0
C2062 C 0.68974 0.59542 0.26864 0.0
H2063 H 0.60914 0.61442 0.22942 0.0
H2064 H 0.66708 0.60812 0.23676 0.0
H2065 H 0.6035 0.60312 0.24118 0.0
H2066 H 0.56973 0.59591 0.29033 0.0
H2067 H 0.57959 0.57889 0.28718 0.0
H2068 H 0.72339 0.65694 0.96753 0.0
H2069 H 0.71922 0.63997 0.96129 0.0
H2070 H 0.55157 0.64191 0.95353 0.0
H2071 H 0.55531 0.65882 0.95936 0.0
H2072 H 0.6623 0.62851 0.98552 0.0
H2073 H 0.59325 0.62387 0.91066 0.0
H2074 H 0.62116 0.63479 0.91926 0.0
H2075 H 0.55392 0.63189 0.92446 0.0
C2076 C 0.68586 0.65381 0.96398 0.0
C2077 C 0.63964 0.65922 0.96419 0.0
C2078 C 0.68354 0.64411 0.96043 0.0
C2079 C 0.63514 0.63971 0.95683 0.0
C2080 C 0.58944 0.64518 0.95592 0.0
H2081 H 0.52609 0.58182 0.96847 0.0
H2082 H 0.53067 0.59888 0.96254 0.0
C2083 C 0.59167 0.65485 0.95948 0.0
C2084 C 0.6312 0.6293 0.95684 0.0
H2085 H 0.58777 0.61033 0.93112 0.0
C2086 C 0.64654 0.62453 0.97354 0.0
C2087 C 0.6098 0.62416 0.9413 0.0
C2088 C 0.59399 0.62892 0.92283 0.0
C2089 C 0.64058 0.61476 0.97524 0.0
C2090 C 0.61936 0.60961 0.95972 0.0
C2091 C 0.60383 0.61434 0.94299 0.0
C2092 C 0.61541 0.59925 0.9606 0.0
C2093 C 0.65642 0.61002 0.99375 0.0
C2094 C 0.66139 0.59386 0.96091 0.0
C2095 C 0.659 0.58421 0.9644 0.0
C2096 C 0.61047 0.57972 0.96754 0.0
C2097 C 0.56407 0.58506 0.96618 0.0
C2098 C 0.56657 0.59479 0.96276 0.0
H2099 H 0.66126 0.61516 0.00564 0.0
H2100 H 0.62681 0.60468 0.99807 0.0
H2101 H 0.69445 0.60634 0.99163 0.0
H2102 H 0.69937 0.59719 0.95913 0.0
H2103 H 0.69552 0.58033 0.96518 0.0
H2104 H 0.24618 0.40424 0.72837 0.0
H2105 H 0.25576 0.38729 0.72179 0.0
H2106 H 0.41077 0.39217 0.69906 0.0
H2107 H 0.40208 0.40896 0.70573 0.0
H2108 H 0.32838 0.3773 0.67914 0.0
H2109 H 0.38401 0.37401 0.75629 0.0
H2110 H 0.32825 0.38115 0.74972 0.0
H2111 H 0.3931 0.3849 0.74332 0.0
C2112 C 0.28173 0.40172 0.72155 0.0
C2113 C 0.32359 0.4079 0.71777 0.0
C2114 C 0.28708 0.39207 0.71779 0.0
C2115 C 0.33396 0.38856 0.70996 0.0
C2116 C 0.37426 0.39479 0.70501 0.0
H2117 H 0.48141 0.33422 0.72256 0.0
H2118 H 0.46571 0.35095 0.71602 0.0
C2119 C 0.36925 0.40437 0.70895 0.0
C2120 C 0.34443 0.37836 0.70937 0.0
H2121 H 0.38871 0.36037 0.73743 0.0
C2122 C 0.34119 0.37354 0.69185 0.0
C2123 C 0.36212 0.37361 0.72595 0.0
C2124 C 0.36739 0.37863 0.74495 0.0
C2125 C 0.35498 0.36396 0.69055 0.0
C2126 C 0.37232 0.35919 0.70721 0.0
C2127 C 0.37574 0.36407 0.72466 0.0
C2128 C 0.38484 0.34902 0.70734 0.0
C2129 C 0.3517 0.35906 0.67139 0.0
C2130 C 0.34498 0.34242 0.7041 0.0
C2131 C 0.35375 0.33289 0.70784 0.0
C2132 C 0.40252 0.32981 0.71503 0.0
C2133 C 0.44346 0.33637 0.71707 0.0
C2134 C 0.43454 0.34592 0.71336 0.0
H2135 H 0.35118 0.36418 0.65933 0.0
H2136 H 0.38524 0.35415 0.66939 0.0
H2137 H 0.31492 0.35488 0.67076 0.0
H2138 H 0.30614 0.34468 0.69975 0.0
H2139 H 0.32145 0.32801 0.70594 0.0
H2140 H 0.47845 0.40419 0.02939 0.0
H2141 H 0.46253 0.3874 0.03546 0.0
H2142 H 0.30085 0.39341 0.04895 0.0
H2143 H 0.31601 0.41014 0.04306 0.0
H2144 H 0.40495 0.37727 0.07086 0.0
H2145 H 0.3103 0.37527 0.99884 0.0
H2146 H 0.35743 0.38433 0.00478 0.0
H2147 H 0.29232 0.38485 0.01449 0.0
C2148 C 0.43978 0.40197 0.03401 0.0
C2149 C 0.39837 0.4085 0.03546 0.0
C2150 C 0.43081 0.39239 0.03749 0.0
C2151 C 0.38046 0.38922 0.04248 0.0
C2152 C 0.33988 0.39575 0.04502 0.0
H2153 H 0.25517 0.33218 0.03212 0.0
H2154 H 0.26111 0.3491 0.03894 0.0
C2155 C 0.34871 0.40531 0.04157 0.0
C2156 C 0.36888 0.37903 0.04318 0.0
H2157 H 0.31418 0.36133 0.01683 0.0
C2158 C 0.38495 0.37376 0.05913 0.0
C2159 C 0.34224 0.37456 0.02793 0.0
C2160 C 0.32463 0.37998 0.01044 0.0
C2161 C 0.37542 0.36401 0.0601 0.0
C2162 C 0.35029 0.35946 0.04452 0.0
C2163 C 0.33319 0.36483 0.02881 0.0
C2164 C 0.34527 0.34906 0.04329 0.0
C2165 C 0.3921 0.35871 0.07784 0.0
C2166 C 0.39044 0.34343 0.04369 0.0
C2167 C 0.38719 0.3338 0.03989 0.0
C2168 C 0.33868 0.32959 0.03531 0.0
C2169 C 0.2931 0.33519 0.03557 0.0
C2170 C 0.29643 0.34485 0.03946 0.0
H2171 H 0.39309 0.36341 0.09059 0.0
H2172 H 0.36537 0.3527 0.08088 0.0
H2173 H 0.43233 0.35589 0.07568 0.0
H2174 H 0.4287 0.34654 0.04612 0.0
H2175 H 0.42319 0.32973 0.03989 0.0
H2176 H 0.03607 0.04875 0.33122 0.0
H2177 H 0.9826 0.05206 0.35923 0.0
H2178 H 0.87805 0.06892 0.32474 0.0
H2179 H 0.93215 0.06561 0.29616 0.0
H2180 H 0.95896 0.07068 0.37437 0.0
H2181 H 0.78238 0.04963 0.35433 0.0
H2182 H 0.84542 0.04773 0.34312 0.0
H2183 H 0.80745 0.05796 0.33712 0.0
C2184 C 0.00158 0.05313 0.32943 0.0
C2185 C 0.98836 0.05693 0.31142 0.0
C2186 C 0.97118 0.05504 0.34554 0.0
C2187 C 0.92661 0.06075 0.34407 0.0
C2188 C 0.91233 0.06445 0.32609 0.0
H2189 H 0.69932 0.06806 0.43549 0.0
H2190 H 0.74948 0.07078 0.40622 0.0
C2191 C 0.94306 0.06254 0.30981 0.0
C2192 C 0.89593 0.0627 0.36166 0.0
H2193 H 0.78379 0.05637 0.38499 0.0
C2194 C 0.92029 0.06767 0.37666 0.0
C2195 C 0.84572 0.05875 0.36455 0.0
C2196 C 0.81851 0.05317 0.34903 0.0
C2197 C 0.8961 0.06863 0.39466 0.0
C2198 C 0.84678 0.06434 0.39781 0.0
C2199 C 0.82171 0.05965 0.38258 0.0
C2200 C 0.82065 0.06431 0.41684 0.0
C2201 C 0.92363 0.07419 0.41012 0.0
C2202 C 0.84466 0.06008 0.43289 0.0
C2203 C 0.8161 0.05864 0.44985 0.0
C2204 C 0.76303 0.06124 0.45075 0.0
C2205 C 0.74019 0.06594 0.43509 0.0
C2206 C 0.76874 0.06749 0.41835 0.0
H2207 H 0.95189 0.07932 0.40391 0.0
H2208 H 0.89507 0.07807 0.41921 0.0
H2209 H 0.94601 0.06928 0.41942 0.0
H2210 H 0.88439 0.05741 0.43194 0.0
H2211 H 0.83429 0.0549 0.46167 0.0
H2212 H 0.21608 0.19369 0.32741 0.0
H2213 H 0.2721 0.19058 0.3549 0.0
H2214 H 0.37084 0.17278 0.32007 0.0
H2215 H 0.31418 0.17588 0.29207 0.0
H2216 H 0.2932 0.17174 0.37016 0.0
H2217 H 0.47211 0.19173 0.34848 0.0
H2218 H 0.40865 0.19406 0.33793 0.0
H2219 H 0.44393 0.18358 0.33154 0.0
C2220 C 0.24994 0.18916 0.32544 0.0
C2221 C 0.26065 0.185 0.30756 0.0
C2222 C 0.2818 0.18738 0.34123 0.0
C2223 C 0.3253 0.18142 0.33954 0.0
C2224 C 0.3374 0.17744 0.3216 0.0
H2225 H 0.5574 0.17317 0.42902 0.0
H2226 H 0.5053 0.17078 0.40006 0.0
C2227 C 0.30525 0.17923 0.30564 0.0
C2228 C 0.35667 0.17938 0.35691 0.0
H2229 H 0.47126 0.18511 0.37926 0.0
C2230 C 0.33247 0.17454 0.37212 0.0
C2231 C 0.40769 0.18306 0.35936 0.0
C2232 C 0.43486 0.18845 0.34356 0.0
C2233 C 0.35765 0.17344 0.3899 0.0
C2234 C 0.40786 0.17748 0.39264 0.0
C2235 C 0.43268 0.18204 0.37718 0.0
C2236 C 0.43524 0.17735 0.41144 0.0
C2237 C 0.33023 0.16799 0.40554 0.0
C2238 C 0.41253 0.18151 0.42781 0.0
C2239 C 0.44216 0.18273 0.4446 0.0
C2240 C 0.49502 0.17998 0.44499 0.0
C2241 C 0.51666 0.17539 0.42899 0.0
C2242 C 0.48701 0.17403 0.41244 0.0
H2243 H 0.30122 0.16294 0.39951 0.0
H2244 H 0.35872 0.16403 0.4145 0.0
H2245 H 0.30865 0.17299 0.41492 0.0
H2246 H 0.37299 0.1843 0.42728 0.0
H2247 H 0.42497 0.1864 0.4567 0.0
H2248 H 0.81721 0.1974 0.80501 0.0
H2249 H 0.86157 0.19496 0.83569 0.0
H2250 H 0.83765 0.16496 0.83042 0.0
H2251 H 0.7947 0.16742 0.79929 0.0
H2252 H 0.80106 0.18725 0.86482 0.0
H2253 H 0.9845 0.16648 0.85472 0.0
H2254 H 0.95411 0.17296 0.83536 0.0
H2255 H 0.92642 0.16199 0.84325 0.0
C2256 C 0.82414 0.19026 0.80991 0.0
C2257 C 0.80354 0.18258 0.79971 0.0
C2258 C 0.84885 0.18887 0.82754 0.0
C2259 C 0.85271 0.17978 0.83541 0.0
C2260 C 0.83587 0.17201 0.82452 0.0
H2261 H 0.95824 0.1681 0.954 0.0
H2262 H 0.90957 0.16573 0.92379 0.0
C2263 C 0.81164 0.17341 0.80668 0.0
C2264 C 0.86692 0.17875 0.85596 0.0
H2265 H 0.95988 0.17008 0.88654 0.0
C2266 C 0.83563 0.18343 0.86956 0.0
C2267 C 0.91135 0.17362 0.86217 0.0
C2268 C 0.94638 0.16851 0.84816 0.0
C2269 C 0.84886 0.18348 0.88907 0.0
C2270 C 0.89475 0.17878 0.89517 0.0
C2271 C 0.92456 0.17365 0.88178 0.0
C2272 C 0.91647 0.18026 0.91465 0.0
C2273 C 0.81439 0.18879 0.90298 0.0
C2274 C 0.93515 0.18923 0.91962 0.0
C2275 C 0.96287 0.19056 0.93664 0.0
C2276 C 0.97187 0.18298 0.94913 0.0
C2277 C 0.95055 0.1741 0.94478 0.0
C2278 C 0.92339 0.17272 0.92748 0.0
H2279 H 0.77383 0.18962 0.89735 0.0
H2280 H 0.81266 0.18515 0.91707 0.0
H2281 H 0.83094 0.19594 0.90529 0.0
H2282 H 0.93088 0.19511 0.90981 0.0
H2283 H 0.97977 0.19743 0.93956 0.0
H2284 H 0.29315 0.07094 0.95986 0.0
H2285 H 0.33987 0.07477 0.92984 0.0
H2286 H 0.29391 0.04793 0.90616 0.0
H2287 H 0.2477 0.0441 0.93576 0.0
H2288 H 0.42036 0.0627 0.90582 0.0
H2289 H 0.22836 0.06999 0.87116 0.0
H2290 H 0.23792 0.07054 0.89684 0.0
H2291 H 0.23108 0.05933 0.88511 0.0
C2292 C 0.29461 0.06576 0.94845 0.0
C2293 C 0.2668 0.05724 0.95005 0.0
C2294 C 0.32077 0.06799 0.9313 0.0
C2295 C 0.31924 0.0617 0.91573 0.0
C2296 C 0.29478 0.05293 0.91792 0.0
H2297 H 0.4079 0.04877 0.80341 0.0
H2298 H 0.36047 0.05192 0.83337 0.0
C2299 C 0.26869 0.05073 0.93488 0.0
C2300 C 0.34029 0.06428 0.89669 0.0
H2301 H 0.30117 0.0673 0.85022 0.0
C2302 C 0.3946 0.06394 0.89369 0.0
C2303 C 0.30629 0.06585 0.88096 0.0
C2304 C 0.24763 0.06653 0.88362 0.0
C2305 C 0.41572 0.06455 0.87511 0.0
C2306 C 0.38145 0.06567 0.85924 0.0
C2307 C 0.32728 0.06646 0.86239 0.0
C2308 C 0.40095 0.06503 0.83926 0.0
C2309 C 0.47421 0.06339 0.87249 0.0
C2310 C 0.43693 0.07165 0.83211 0.0
C2311 C 0.46361 0.06988 0.81496 0.0
C2312 C 0.45401 0.06155 0.80464 0.0
C2313 C 0.41479 0.05535 0.81091 0.0
C2314 C 0.38815 0.05711 0.82809 0.0
H2315 H 0.49389 0.06099 0.88585 0.0
H2316 H 0.48271 0.05824 0.86091 0.0
H2317 H 0.49162 0.07026 0.86829 0.0
H2318 H 0.44689 0.07785 0.84042 0.0
H2319 H 0.49467 0.07463 0.81057 0.0
H2320 H 0.16907 0.93587 0.54127 0.0
H2321 H 0.11394 0.93457 0.57027 0.0
H2322 H 0.24952 0.92609 0.60308 0.0
H2323 H 0.30434 0.92761 0.57461 0.0
H2324 H 0.09439 0.91988 0.59758 0.0
H2325 H 0.20077 0.94996 0.6306 0.0
H2326 H 0.2064 0.94709 0.60547 0.0
H2327 H 0.24263 0.94048 0.62307 0.0
C2328 C 0.18666 0.93361 0.55465 0.0
C2329 C 0.24094 0.93201 0.55586 0.0
C2330 C 0.15534 0.93289 0.57117 0.0
C2331 C 0.17807 0.93049 0.58892 0.0
C2332 C 0.23151 0.92822 0.58968 0.0
H2333 H 0.05485 0.93025 0.70699 0.0
H2334 H 0.11226 0.9278 0.67893 0.0
C2335 C 0.2627 0.92906 0.57338 0.0
C2336 C 0.14714 0.93081 0.60691 0.0
H2337 H 0.1405 0.94184 0.65044 0.0
C2338 C 0.10437 0.92469 0.60913 0.0
C2339 C 0.16053 0.93706 0.62202 0.0
C2340 C 0.20478 0.94408 0.62017 0.0
C2341 C 0.07465 0.92462 0.62611 0.0
C2342 C 0.08774 0.93094 0.6411 0.0
C2343 C 0.13098 0.93695 0.639 0.0
C2344 C 0.05378 0.93211 0.65817 0.0
C2345 C 0.02946 0.9178 0.6279 0.0
C2346 C 0.00271 0.93553 0.65574 0.0
C2347 C 0.9704 0.93699 0.67155 0.0
C2348 C 0.9884 0.9351 0.69025 0.0
C2349 C 0.03993 0.93177 0.69277 0.0
C2350 C 0.07257 0.93034 0.67679 0.0
H2351 H 0.03382 0.91174 0.61793 0.0
H2352 H 0.02609 0.91508 0.64279 0.0
H2353 H 0.99236 0.9215 0.62427 0.0
H2354 H 0.9879 0.93716 0.64155 0.0
H2355 H 0.93105 0.93961 0.66903 0.0
H2356 H 0.6961 0.80763 0.7087 0.0
H2357 H 0.6413 0.80977 0.67982 0.0
H2358 H 0.77935 0.80795 0.64425 0.0
H2359 H 0.83368 0.80581 0.6725 0.0
H2360 H 0.65598 0.82416 0.64686 0.0
H2361 H 0.67556 0.78649 0.62586 0.0
H2362 H 0.6856 0.79053 0.65016 0.0
H2363 H 0.7356 0.79234 0.63238 0.0
C2364 C 0.71459 0.80774 0.69471 0.0
C2365 C 0.76909 0.80644 0.69289 0.0
C2366 C 0.68339 0.80898 0.67828 0.0
C2367 C 0.70645 0.8089 0.65996 0.0
C2368 C 0.76084 0.80791 0.65825 0.0
H2369 H 0.59126 0.80612 0.54218 0.0
H2370 H 0.6498 0.80819 0.57003 0.0
C2371 C 0.79178 0.80668 0.67448 0.0
C2372 C 0.67441 0.80952 0.64233 0.0
H2373 H 0.63874 0.7968 0.60287 0.0
C2374 C 0.65177 0.81818 0.63727 0.0
C2375 C 0.66983 0.80173 0.62979 0.0
C2376 C 0.69255 0.79221 0.63481 0.0
C2377 C 0.62491 0.81927 0.6198 0.0
C2378 C 0.62019 0.81145 0.60728 0.0
C2379 C 0.64306 0.80281 0.61237 0.0
C2380 C 0.58721 0.81174 0.58979 0.0
C2381 C 0.60242 0.82879 0.61477 0.0
C2382 C 0.53311 0.8132 0.59166 0.0
C2383 C 0.50004 0.81196 0.57597 0.0
C2384 C 0.52031 0.80924 0.55806 0.0
C2385 C 0.5748 0.80827 0.55582 0.0
C2386 C 0.60808 0.80942 0.57169 0.0
H2387 H 0.62287 0.83455 0.62257 0.0
H2388 H 0.60517 0.83016 0.59911 0.0
H2389 H 0.56038 0.82899 0.61892 0.0
H2390 H 0.51602 0.81481 0.60551 0.0
H2391 H 0.45814 0.81281 0.57807 0.0
H2392 H 0.28213 0.81907 0.1847 0.0
H2393 H 0.23106 0.82125 0.1554 0.0
H2394 H 0.10863 0.80356 0.17857 0.0
H2395 H 0.15923 0.80167 0.20832 0.0
H2396 H 0.21163 0.80692 0.13231 0.0
H2397 H 0.0226 0.82348 0.15211 0.0
H2398 H 0.07859 0.82348 0.168 0.0
H2399 H 0.03656 0.8133 0.16648 0.0
C2400 C 0.24339 0.81594 0.18379 0.0
C2401 C 0.2243 0.81025 0.1987 0.0
C2402 C 0.21439 0.81715 0.16701 0.0
C2403 C 0.16599 0.81258 0.16472 0.0
C2404 C 0.14536 0.80732 0.18012 0.0
H2405 H 0.97002 0.79312 0.07578 0.0
H2406 H 0.02285 0.79639 0.10409 0.0
C2407 C 0.17418 0.80624 0.19713 0.0
C2408 C 0.14104 0.81229 0.14547 0.0
H2409 H 0.02486 0.81528 0.12187 0.0
C2410 C 0.17103 0.80891 0.12996 0.0
C2411 C 0.08817 0.81491 0.14237 0.0
C2412 C 0.05479 0.81909 0.15809 0.0
C2413 C 0.14889 0.80767 0.11169 0.0
C2414 C 0.09548 0.80989 0.10886 0.0
C2415 C 0.06592 0.81357 0.12414 0.0
C2416 C 0.06792 0.80753 0.0908 0.0
C2417 C 0.1819 0.80359 0.09577 0.0
C2418 C 0.07701 0.81253 0.0737 0.0
C2419 C 0.04682 0.81063 0.05729 0.0
C2420 C 0.00713 0.80375 0.05795 0.0
C2421 C 0.00011 0.7985 0.07486 0.0
C2422 C 0.0301 0.80038 0.09109 0.0
H2423 H 0.2214 0.80138 0.10083 0.0
H2424 H 0.16183 0.79739 0.08934 0.0
H2425 H 0.18695 0.80893 0.08429 0.0
H2426 H 0.106 0.81812 0.07327 0.0
H2427 H 0.05263 0.81484 0.0445 0.0
H2428 H 0.81674 0.94326 0.07514 0.0
H2429 H 0.76333 0.94169 0.10375 0.0
H2430 H 0.64947 0.92545 0.072 0.0
H2431 H 0.70417 0.92681 0.04297 0.0
H2432 H 0.66433 0.94743 0.11094 0.0
H2433 H 0.67973 0.90848 0.11808 0.0
H2434 H 0.72057 0.91515 0.10185 0.0
H2435 H 0.65359 0.91259 0.09565 0.0
C2436 C 0.7803 0.93936 0.07411 0.0
C2437 C 0.76483 0.9351 0.05677 0.0
C2438 C 0.74977 0.93847 0.09054 0.0
C2439 C 0.70291 0.93332 0.09013 0.0
C2440 C 0.68616 0.92929 0.07272 0.0
H2441 H 0.46493 0.92617 0.17567 0.0
H2442 H 0.52221 0.92482 0.14776 0.0
C2443 C 0.71704 0.93016 0.05612 0.0
C2444 C 0.67217 0.93237 0.10811 0.0
H2445 H 0.62731 0.91644 0.14104 0.0
C2446 C 0.65635 0.94065 0.11753 0.0
C2447 C 0.66214 0.92352 0.11674 0.0
C2448 C 0.68021 0.91442 0.10769 0.0
C2449 C 0.63045 0.94033 0.13526 0.0
C2450 C 0.62051 0.93149 0.1439 0.0
C2451 C 0.63577 0.9232 0.13445 0.0
C2452 C 0.58997 0.9308 0.1619 0.0
C2453 C 0.6129 0.94943 0.14446 0.0
C2454 C 0.60993 0.93425 0.17936 0.0
C2455 C 0.57723 0.93496 0.1955 0.0
C2456 C 0.52424 0.93233 0.19415 0.0
C2457 C 0.50559 0.92833 0.17701 0.0
C2458 C 0.53824 0.92752 0.16107 0.0
H2459 H 0.61633 0.95553 0.13452 0.0
H2460 H 0.5715 0.94888 0.14933 0.0
H2461 H 0.63761 0.95087 0.15724 0.0
H2462 H 0.65001 0.93677 0.18024 0.0
H2463 H 0.59238 0.9381 0.20854 0.0
H2464 H 0.00417 0.54216 0.82017 0.0
H2465 H 0.95773 0.54501 0.8502 0.0
H2466 H 0.91331 0.57269 0.83029 0.0
H2467 H 0.95933 0.56974 0.79979 0.0
H2468 H 0.98886 0.55964 0.87462 0.0
H2469 H 0.77734 0.56252 0.85514 0.0
H2470 H 0.82483 0.55698 0.83954 0.0
H2471 H 0.82287 0.56959 0.84163 0.0
C2472 C 0.98311 0.54874 0.82195 0.0
C2473 C 0.98503 0.55571 0.80768 0.0
C2474 C 0.95691 0.55039 0.83915 0.0
C2475 C 0.93233 0.55907 0.84254 0.0
C2476 C 0.93154 0.56589 0.82788 0.0
H2477 H 0.7701 0.573 0.94987 0.0
H2478 H 0.82126 0.57565 0.92052 0.0
C2479 C 0.95752 0.56419 0.81045 0.0
C2480 C 0.91197 0.5611 0.86205 0.0
H2481 H 0.7992 0.5641 0.88777 0.0
C2482 C 0.94743 0.56071 0.87749 0.0
C2483 C 0.85806 0.56259 0.86573 0.0
C2484 C 0.8183 0.5629 0.84971 0.0
C2485 C 0.93014 0.5614 0.89654 0.0
C2486 C 0.87599 0.56243 0.90026 0.0
C2487 C 0.84079 0.56331 0.88483 0.0
C2488 C 0.85422 0.5616 0.9199 0.0
C2489 C 0.96979 0.56082 0.91257 0.0
C2490 C 0.85726 0.55293 0.92959 0.0
C2491 C 0.82808 0.55142 0.94629 0.0
C2492 C 0.79609 0.5586 0.95367 0.0
C2493 C 0.79579 0.56747 0.94473 0.0
C2494 C 0.8245 0.56895 0.92789 0.0
H2495 H 0.00979 0.56274 0.90754 0.0
H2496 H 0.95873 0.56553 0.92464 0.0
H2497 H 0.9712 0.55348 0.91805 0.0
H2498 H 0.87915 0.54711 0.92348 0.0
H2499 H 0.82748 0.54445 0.95263 0.0
H2500 H 0.28634 0.66507 0.79986 0.0
H2501 H 0.32844 0.66186 0.83098 0.0
H2502 H 0.34481 0.69175 0.84064 0.0
H2503 H 0.30198 0.69494 0.80996 0.0
H2504 H 0.4278 0.66917 0.85224 0.0
H2505 H 0.23604 0.68085 0.88157 0.0
H2506 H 0.24435 0.67711 0.85698 0.0
H2507 H 0.26396 0.68876 0.8642 0.0
C2508 C 0.30136 0.67091 0.80823 0.0
C2509 C 0.29138 0.68025 0.80256 0.0
C2510 C 0.32484 0.66908 0.82607 0.0
C2511 C 0.33869 0.67658 0.8382 0.0
C2512 C 0.33382 0.68587 0.83154 0.0
H2513 H 0.45519 0.69573 0.94074 0.0
H2514 H 0.40758 0.692 0.91127 0.0
C2515 C 0.30993 0.68769 0.81394 0.0
C2516 C 0.3518 0.67498 0.85862 0.0
H2517 H 0.30832 0.68057 0.90355 0.0
C2518 C 0.40135 0.67143 0.86354 0.0
C2519 C 0.31682 0.67785 0.87329 0.0
C2520 C 0.26209 0.68128 0.86882 0.0
C2521 C 0.4183 0.67135 0.88275 0.0
C2522 C 0.38464 0.67488 0.89724 0.0
C2523 C 0.33393 0.67786 0.89241 0.0
C2524 C 0.40452 0.677 0.91671 0.0
C2525 C 0.4733 0.66812 0.88735 0.0
C2526 C 0.41608 0.66983 0.92997 0.0
C2527 C 0.44236 0.672 0.94711 0.0
C2528 C 0.45768 0.68133 0.95093 0.0
C2529 C 0.44306 0.68852 0.93819 0.0
C2530 C 0.41625 0.68638 0.92132 0.0
H2531 H 0.49535 0.66595 0.87432 0.0
H2532 H 0.49523 0.67386 0.89463 0.0
H2533 H 0.47164 0.66204 0.89735 0.0
H2534 H 0.40711 0.66255 0.92663 0.0
H2535 H 0.45436 0.66633 0.95654 0.0
H2536 H 0.9252 0.68032 0.46205 0.0
H2537 H 0.87021 0.6782 0.43325 0.0
H2538 H 0.00531 0.68304 0.3973 0.0
H2539 H 0.05981 0.68512 0.42552 0.0
H2540 H 0.85663 0.69189 0.40333 0.0
H2541 H 0.94198 0.65876 0.3749 0.0
H2542 H 0.95044 0.66247 0.39949 0.0
H2543 H 0.99015 0.66753 0.38081 0.0
C2544 C 0.94304 0.68086 0.44799 0.0
C2545 C 0.99677 0.6829 0.44608 0.0
C2546 C 0.91174 0.67963 0.43159 0.0
C2547 C 0.93403 0.68029 0.41317 0.0
C2548 C 0.98757 0.68228 0.41135 0.0
H2549 H 0.82655 0.68462 0.29479 0.0
H2550 H 0.88068 0.68301 0.324 0.0
C2551 C 0.01856 0.68356 0.42757 0.0
C2552 C 0.9014 0.6796 0.39565 0.0
H2553 H 0.89012 0.66784 0.35302 0.0
C2554 C 0.8634 0.68656 0.39244 0.0
C2555 C 0.91099 0.67271 0.38136 0.0
C2556 C 0.95029 0.66489 0.38434 0.0
C2557 C 0.8356 0.68699 0.3751 0.0
C2558 C 0.8454 0.68014 0.36074 0.0
C2559 C 0.88304 0.67311 0.364 0.0
C2560 C 0.81484 0.68001 0.34268 0.0
C2561 C 0.7968 0.6949 0.37209 0.0
C2562 C 0.76063 0.67848 0.34348 0.0
C2563 C 0.73007 0.67946 0.32707 0.0
C2564 C 0.7531 0.68187 0.3094 0.0
C2565 C 0.80791 0.68278 0.30825 0.0
C2566 C 0.83869 0.68188 0.32488 0.0
H2567 H 0.80365 0.70083 0.3822 0.0
H2568 H 0.79895 0.69764 0.35719 0.0
H2569 H 0.75645 0.69221 0.37455 0.0
H2570 H 0.74167 0.67682 0.35698 0.0
H2571 H 0.68798 0.67853 0.32833 0.0
H2572 H 0.56137 0.55869 0.32869 0.0
H2573 H 0.50452 0.56048 0.35651 0.0
H2574 H 0.36842 0.55631 0.3207 0.0
H2575 H 0.42575 0.55446 0.29245 0.0
H2576 H 0.41847 0.57276 0.36511 0.0
H2577 H 0.36303 0.53483 0.36149 0.0
H2578 H 0.41738 0.53964 0.34807 0.0
H2579 H 0.35122 0.54165 0.34018 0.0
C2580 C 0.51929 0.55822 0.32664 0.0
C2581 C 0.49794 0.55628 0.30844 0.0
C2582 C 0.48689 0.55931 0.34256 0.0
C2583 C 0.43245 0.55841 0.3407 0.0
C2584 C 0.41054 0.55692 0.32241 0.0
H2585 H 0.1863 0.5533 0.42335 0.0
H2586 H 0.24096 0.55516 0.39517 0.0
C2587 C 0.44316 0.5559 0.30632 0.0
C2588 C 0.39972 0.55834 0.35825 0.0
H2589 H 0.32665 0.54378 0.38659 0.0
C2590 C 0.39811 0.56645 0.36981 0.0
C2591 C 0.37411 0.55004 0.36444 0.0
C2592 C 0.37666 0.54101 0.35303 0.0
C2593 C 0.3705 0.56653 0.38728 0.0
C2594 C 0.34475 0.55823 0.3934 0.0
C2595 C 0.34666 0.55013 0.38186 0.0
C2596 C 0.31227 0.5579 0.41101 0.0
C2597 C 0.36808 0.57551 0.39884 0.0
C2598 C 0.33423 0.55892 0.42943 0.0
C2599 C 0.3027 0.55786 0.44584 0.0
C2600 C 0.24912 0.5557 0.44393 0.0
C2601 C 0.22753 0.55487 0.42542 0.0
C2602 C 0.25868 0.55595 0.40921 0.0
H2603 H 0.38158 0.58171 0.39044 0.0
H2604 H 0.32743 0.57683 0.40393 0.0
H2605 H 0.39369 0.5748 0.41163 0.0
H2606 H 0.37579 0.5603 0.4311 0.0
H2607 H 0.32034 0.55854 0.45991 0.0
H2608 H 0.01224 0.41746 0.19437 0.0
H2609 H 0.05824 0.41617 0.16364 0.0
H2610 H 0.14015 0.44213 0.17558 0.0
H2611 H 0.09369 0.44344 0.20632 0.0
H2612 H 0.07587 0.44218 0.14215 0.0
H2613 H 0.20801 0.41094 0.14318 0.0
H2614 H 0.1426 0.40917 0.15221 0.0
H2615 H 0.18684 0.41681 0.16487 0.0
C2616 C 0.04222 0.4226 0.19085 0.0
C2617 C 0.05059 0.43043 0.20281 0.0
C2618 C 0.06825 0.42189 0.17326 0.0
C2619 C 0.10277 0.42903 0.16737 0.0
C2620 C 0.11394 0.43651 0.17996 0.0
H2621 H 0.26681 0.44834 0.07042 0.0
H2622 H 0.21497 0.44613 0.09941 0.0
C2623 C 0.08796 0.43721 0.19758 0.0
C2624 C 0.12045 0.42951 0.14713 0.0
H2625 H 0.19667 0.41867 0.1134 0.0
C2626 C 0.10228 0.43704 0.13587 0.0
C2627 C 0.15374 0.42265 0.13885 0.0
C2628 C 0.17434 0.41445 0.15037 0.0
C2629 C 0.11767 0.43805 0.11667 0.0
C2630 C 0.1529 0.43145 0.10861 0.0
C2631 C 0.16947 0.4237 0.11962 0.0
C2632 C 0.17843 0.43318 0.08984 0.0
C2633 C 0.09648 0.44624 0.10525 0.0
C2634 C 0.17464 0.42668 0.07466 0.0
C2635 C 0.20414 0.428 0.05784 0.0
C2636 C 0.23839 0.43572 0.0563 0.0
C2637 C 0.24043 0.44236 0.07122 0.0
C2638 C 0.21074 0.44111 0.08778 0.0
H2639 H 0.05808 0.44867 0.11097 0.0
H2640 H 0.12441 0.45223 0.10621 0.0
H2641 H 0.09159 0.44435 0.08989 0.0
H2642 H 0.15015 0.42048 0.07606 0.0
H2643 H 0.20267 0.42271 0.04665 0.0
H2644 H 0.76298 0.32103 0.18957 0.0
H2645 H 0.71385 0.32419 0.16012 0.0
H2646 H 0.60323 0.30237 0.17527 0.0
H2647 H 0.65173 0.29943 0.20509 0.0
H2648 H 0.70786 0.31111 0.13291 0.0
H2649 H 0.50639 0.3219 0.15256 0.0
H2650 H 0.56009 0.32223 0.16947 0.0
H2651 H 0.52578 0.31136 0.16486 0.0
C2652 C 0.72672 0.31723 0.18699 0.0
C2653 C 0.71032 0.31012 0.19964 0.0
C2654 C 0.69897 0.31898 0.17011 0.0
C2655 C 0.65469 0.31356 0.16549 0.0
C2656 C 0.63651 0.30681 0.17872 0.0
H2657 H 0.48566 0.29301 0.07206 0.0
H2658 H 0.53568 0.29668 0.10088 0.0
C2659 C 0.66408 0.30513 0.19577 0.0
C2660 C 0.63254 0.31398 0.14581 0.0
H2661 H 0.51732 0.3151 0.12097 0.0
C2662 C 0.66635 0.3122 0.13025 0.0
C2663 C 0.57848 0.31543 0.14232 0.0
C2664 C 0.54072 0.31794 0.15819 0.0
C2665 C 0.64701 0.31126 0.11149 0.0
C2666 C 0.5926 0.31215 0.10824 0.0
C2667 C 0.55913 0.3144 0.12358 0.0
C2668 C 0.56856 0.3096 0.08964 0.0
C2669 C 0.6842 0.30879 0.09542 0.0
C2670 C 0.57222 0.31549 0.07348 0.0
C2671 C 0.5438 0.31335 0.05676 0.0
C2672 C 0.5113 0.30535 0.05625 0.0
C2673 C 0.51029 0.29924 0.07211 0.0
C2674 C 0.53862 0.30135 0.08861 0.0
H2675 H 0.72521 0.30788 0.10053 0.0
H2676 H 0.67129 0.30217 0.08834 0.0
H2677 H 0.68355 0.31446 0.08445 0.0
H2678 H 0.5951 0.32192 0.07408 0.0
H2679 H 0.54463 0.31822 0.0448 0.0
H2680 H 0.0746 0.30412 0.5464 0.0
H2681 H 0.12656 0.30515 0.57617 0.0
H2682 H 0.99448 0.3178 0.60514 0.0
H2683 H 0.94246 0.31652 0.57585 0.0
H2684 H 0.15449 0.3196 0.60254 0.0
H2685 H 0.01864 0.29356 0.63546 0.0
H2686 H 0.01894 0.29605 0.61008 0.0
H2687 H 0.98684 0.30396 0.62649 0.0
C2688 C 0.05735 0.30732 0.55904 0.0
C2689 C 0.00457 0.31014 0.55902 0.0
C2690 C 0.08681 0.30787 0.57601 0.0
C2691 C 0.06375 0.31131 0.59298 0.0
C2692 C 0.01251 0.31488 0.59238 0.0
H2693 H 0.18759 0.31265 0.71137 0.0
H2694 H 0.131 0.31554 0.68325 0.0
C2695 C 0.98301 0.3142 0.57562 0.0
C2696 C 0.0914 0.31054 0.61161 0.0
H2697 H 0.08383 0.30002 0.65568 0.0
C2698 C 0.13898 0.31535 0.61417 0.0
C2699 C 0.071 0.30497 0.62679 0.0
C2700 C 0.02132 0.29927 0.62457 0.0
C2701 C 0.16682 0.31471 0.63151 0.0
C2702 C 0.14661 0.30909 0.64655 0.0
C2703 C 0.09866 0.30442 0.64416 0.0
C2704 C 0.17794 0.30709 0.66391 0.0
C2705 C 0.21809 0.31993 0.63362 0.0
C2706 C 0.22152 0.30114 0.66235 0.0
C2707 C 0.25319 0.29942 0.67822 0.0
C2708 C 0.24203 0.30363 0.69605 0.0
C2709 C 0.19701 0.3093 0.69784 0.0
C2710 C 0.16497 0.31099 0.68181 0.0
H2711 H 0.22293 0.32545 0.62244 0.0
H2712 H 0.2208 0.32328 0.64799 0.0
H2713 H 0.25106 0.31485 0.63228 0.0
H2714 H 0.23155 0.29795 0.64871 0.0
H2715 H 0.28731 0.29496 0.67635 0.0
H2716 H 0.43734 0.4205 0.68222 0.0
H2717 H 0.48923 0.41828 0.65316 0.0
H2718 H 0.61162 0.4358 0.67694 0.0
H2719 H 0.56031 0.43762 0.70659 0.0
H2720 H 0.50997 0.43229 0.63005 0.0
H2721 H 0.69833 0.41586 0.65118 0.0
H2722 H 0.64196 0.41603 0.66688 0.0
H2723 H 0.68415 0.42618 0.6651 0.0
C2724 C 0.47629 0.42355 0.68152 0.0
C2725 C 0.49536 0.42912 0.69662 0.0
C2726 C 0.50573 0.42234 0.66486 0.0
C2727 C 0.55444 0.42683 0.66282 0.0
C2728 C 0.57472 0.43207 0.67832 0.0
H2729 H 0.74915 0.44596 0.57309 0.0
H2730 H 0.69587 0.44295 0.60144 0.0
C2731 C 0.54549 0.43313 0.69524 0.0
C2732 C 0.58014 0.42703 0.6437 0.0
H2733 H 0.69693 0.42377 0.62061 0.0
C2734 C 0.55061 0.43026 0.62794 0.0
C2735 C 0.6331 0.42436 0.6409 0.0
C2736 C 0.66605 0.42032 0.65689 0.0
C2737 C 0.57318 0.43126 0.6097 0.0
C2738 C 0.6266 0.42899 0.60715 0.0
C2739 C 0.65582 0.4255 0.62268 0.0
C2740 C 0.65441 0.43113 0.58907 0.0
C2741 C 0.54062 0.43514 0.59344 0.0
C2742 C 0.64739 0.42563 0.57248 0.0
C2743 C 0.67784 0.42737 0.55607 0.0
C2744 C 0.71566 0.43458 0.55622 0.0
C2745 C 0.7205 0.44032 0.57258 0.0
C2746 C 0.69028 0.43859 0.58882 0.0
H2747 H 0.50045 0.43715 0.59811 0.0
H2748 H 0.56019 0.44142 0.58716 0.0
H2749 H 0.53731 0.42975 0.58195 0.0
H2750 H 0.61982 0.41982 0.57248 0.0
H2751 H 0.67379 0.42279 0.54372 0.0
loop_
_geom_bond_atom_site_label_1
_geom_bond_atom_site_label_2
_geom_bond_distance
_geom_bond_site_symmetry_2
_ccdc_geom_bond_type
Co0 O1 2.216 . S
Co0 O2 2.091 1_455 S
Co0 O4 2.004 . S
Co0 O10 2.021 . S
Co0 O12 2.137 . S
Co0 O13 2.244 . S
O1 Co0 2.216 . S
O1 C8 1.247 . S
O2 Co0 2.091 1_655 S
O2 C8 1.261 1_655 S
C3 O12 1.247 . S
C3 O13 1.272 . S
O4 Co0 2.004 . S
O4 C9 1.259 . S
Co5 O6 2.061 . S
Co5 O11 2.052 . S
Co5 O13 2.135 . S
O6 Co5 2.061 . S
O6 C9 1.235 . S
C7 O10 1.238 . S
C7 O11 1.241 . S
C8 O1 1.247 . S
C8 O2 1.261 1_455 S
C9 O4 1.259 . S
C9 O6 1.235 . S
O10 Co0 2.021 . S
O10 C7 1.238 . S
O11 Co5 2.052 . S
O11 C7 1.241 . S
O12 Co0 2.137 . S
O12 C3 1.247 . S
O13 Co0 2.244 . S
O13 C3 1.272 . S
O13 Co5 2.135 . S
Co14 O15 2.216 . S
Co14 O16 2.091 . S
Co14 O18 2.004 . S
Co14 O24 2.021 . S
Co14 O26 2.137 . S
Co14 O27 2.244 . S
O15 Co14 2.216 . S
O15 C22 1.247 . S
O16 Co14 2.091 . S
O16 C22 1.261 . S
C17 O26 1.247 . S
C17 O27 1.272 . S
O18 Co14 2.004 . S
O18 C23 1.259 . S
Co19 O20 2.061 . S
Co19 O25 2.052 . S
Co19 O27 2.135 . S
O20 Co19 2.061 . S
O20 C23 1.235 . S
C21 O24 1.238 . S
C21 O25 1.241 . S
C22 O15 1.247 . S
C22 O16 1.261 . S
C23 O18 1.259 . S
C23 O20 1.235 . S
O24 Co14 2.021 . S
O24 C21 1.238 . S
O25 Co19 2.052 . S
O25 C21 1.241 . S
O26 Co14 2.137 . S
O26 C17 1.247 . S
O27 Co14 2.244 . S
O27 C17 1.272 . S
O27 Co19 2.135 . S
Co28 O29 2.216 . S
Co28 O30 2.091 1_455 S
Co28 O32 2.004 1_556 S
Co28 O38 2.021 . S
Co28 O40 2.137 . S
Co28 O41 2.244 . S
O29 Co28 2.216 . S
O29 C36 1.247 . S
O30 Co28 2.091 1_655 S
O30 C36 1.261 1_655 S
C31 O40 1.247 . S
C31 O41 1.272 . S
O32 Co28 2.004 1_554 S
O32 C37 1.259 . S
Co33 O34 2.061 . S
Co33 O39 2.052 1_554 S
Co33 O41 2.135 1_554 S
O34 Co33 2.061 . S
O34 C37 1.235 . S
C35 O38 1.238 . S
C35 O39 1.241 . S
C36 O29 1.247 . S
C36 O30 1.261 1_455 S
C37 O32 1.259 . S
C37 O34 1.235 . S
O38 Co28 2.021 . S
O38 C35 1.238 . S
O39 Co33 2.052 1_556 S
O39 C35 1.241 . S
O40 Co28 2.137 . S
O40 C31 1.247 . S
O41 Co28 2.244 . S
O41 C31 1.272 . S
O41 Co33 2.135 1_556 S
Co42 O43 2.216 . S
Co42 O44 2.091 . S
Co42 O46 2.004 1_556 S
Co42 O52 2.021 . S
Co42 O54 2.137 . S
Co42 O55 2.244 . S
O43 Co42 2.216 . S
O43 C50 1.247 . S
O44 Co42 2.091 . S
O44 C50 1.261 . S
C45 O54 1.247 . S
C45 O55 1.272 . S
O46 Co42 2.004 1_554 S
O46 C51 1.259 . S
Co47 O48 2.061 . S
Co47 O53 2.052 1_554 S
Co47 O55 2.135 1_554 S
O48 Co47 2.061 . S
O48 C51 1.235 . S
C49 O52 1.238 . S
C49 O53 1.241 . S
C50 O43 1.247 . S
C50 O44 1.261 . S
C51 O46 1.259 . S
C51 O48 1.235 . S
O52 Co42 2.021 . S
O52 C49 1.238 . S
O53 Co47 2.052 1_556 S
O53 C49 1.241 . S
O54 Co42 2.137 . S
O54 C45 1.247 . S
O55 Co42 2.244 . S
O55 C45 1.272 . S
O55 Co47 2.135 1_556 S
Co56 O57 2.216 . S
Co56 O58 2.091 1_655 S
Co56 O60 2.004 . S
Co56 O66 2.021 . S
Co56 O68 2.137 . S
Co56 O69 2.244 . S
O57 Co56 2.216 . S
O57 C64 1.247 . S
O58 Co56 2.091 1_455 S
O58 C64 1.261 1_455 S
C59 O68 1.247 . S
C59 O69 1.272 . S
O60 Co56 2.004 . S
O60 C65 1.259 . S
Co61 O62 2.061 . S
Co61 O67 2.052 . S
Co61 O69 2.135 . S
O62 Co61 2.061 . S
O62 C65 1.235 . S
C63 O66 1.238 . S
C63 O67 1.241 . S
C64 O57 1.247 . S
C64 O58 1.261 1_655 S
C65 O60 1.259 . S
C65 O62 1.235 . S
O66 Co56 2.021 . S
O66 C63 1.238 . S
O67 Co61 2.052 . S
O67 C63 1.241 . S
O68 Co56 2.137 . S
O68 C59 1.247 . S
O69 Co56 2.244 . S
O69 C59 1.272 . S
O69 Co61 2.135 . S
Co70 O71 2.216 . S
Co70 O72 2.091 . S
Co70 O74 2.004 . S
Co70 O80 2.021 . S
Co70 O82 2.137 . S
Co70 O83 2.244 . S
O71 Co70 2.216 . S
O71 C78 1.247 . S
O72 Co70 2.091 . S
O72 C78 1.261 . S
C73 O82 1.247 . S
C73 O83 1.272 . S
O74 Co70 2.004 . S
O74 C79 1.259 . S
Co75 O76 2.061 . S
Co75 O81 2.052 . S
Co75 O83 2.135 . S
O76 Co75 2.061 . S
O76 C79 1.235 . S
C77 O80 1.238 . S
C77 O81 1.241 . S
C78 O71 1.247 . S
C78 O72 1.261 . S
C79 O74 1.259 . S
C79 O76 1.235 . S
O80 Co70 2.021 . S
O80 C77 1.238 . S
O81 Co75 2.052 . S
O81 C77 1.241 . S
O82 Co70 2.137 . S
O82 C73 1.247 . S
O83 Co70 2.244 . S
O83 C73 1.272 . S
O83 Co75 2.135 . S
Co84 O85 2.216 . S
Co84 O86 2.091 1_655 S
Co84 O88 2.004 1_554 S
Co84 O94 2.021 . S
Co84 O96 2.137 . S
Co84 O97 2.244 . S
O85 Co84 2.216 . S
O85 C92 1.247 . S
O86 Co84 2.091 1_455 S
O86 C92 1.261 1_455 S
C87 O96 1.247 . S
C87 O97 1.272 . S
O88 Co84 2.004 1_556 S
O88 C93 1.259 . S
Co89 O90 2.061 . S
Co89 O95 2.052 1_556 S
Co89 O97 2.135 1_556 S
O90 Co89 2.061 . S
O90 C93 1.235 . S
C91 O94 1.238 . S
C91 O95 1.241 . S
C92 O85 1.247 . S
C92 O86 1.261 1_655 S
C93 O88 1.259 . S
C93 O90 1.235 . S
O94 Co84 2.021 . S
O94 C91 1.238 . S
O95 Co89 2.052 1_554 S
O95 C91 1.241 . S
O96 Co84 2.137 . S
O96 C87 1.247 . S
O97 Co84 2.244 . S
O97 C87 1.272 . S
O97 Co89 2.135 1_554 S
Co98 O99 2.216 . S
Co98 O100 2.091 . S
Co98 O102 2.004 1_554 S
Co98 O108 2.021 . S
Co98 O110 2.137 . S
Co98 O111 2.244 . S
O99 Co98 2.216 . S
O99 C106 1.247 . S
O100 Co98 2.091 . S
O100 C106 1.261 . S
C101 O110 1.247 . S
C101 O111 1.272 . S
O102 Co98 2.004 1_556 S
O102 C107 1.259 . S
Co103 O104 2.061 . S
Co103 O109 2.052 1_556 S
Co103 O111 2.135 1_556 S
O104 Co103 2.061 . S
O104 C107 1.235 . S
C105 O108 1.238 . S
C105 O109 1.241 . S
C106 O99 1.247 . S
C106 O100 1.261 . S
C107 O102 1.259 . S
C107 O104 1.235 . S
O108 Co98 2.021 . S
O108 C105 1.238 . S
O109 Co103 2.052 1_554 S
O109 C105 1.241 . S
O110 Co98 2.137 . S
O110 C101 1.247 . S
O111 Co98 2.244 . S
O111 C101 1.272 . S
O111 Co103 2.135 1_554 S
Co112 O113 2.216 . S
Co112 O114 2.091 1_455 S
Co112 O116 2.004 . S
Co112 O122 2.021 . S
Co112 O124 2.137 . S
Co112 O125 2.244 . S
O113 Co112 2.216 . S
O113 C120 1.247 . S
O114 Co112 2.091 1_655 S
O114 C120 1.261 1_655 S
C115 O124 1.247 . S
C115 O125 1.272 . S
O116 Co112 2.004 . S
O116 C121 1.259 . S
Co117 O118 2.061 . S
Co117 O123 2.052 . S
Co117 O125 2.135 . S
O118 Co117 2.061 . S
O118 C121 1.235 . S
C119 O122 1.238 . S
C119 O123 1.241 . S
C120 O113 1.247 . S
C120 O114 1.261 1_455 S
C121 O116 1.259 . S
C121 O118 1.235 . S
O122 Co112 2.021 . S
O122 C119 1.238 . S
O123 Co117 2.052 . S
O123 C119 1.241 . S
O124 Co112 2.137 . S
O124 C115 1.247 . S
O125 Co112 2.244 . S
O125 C115 1.272 . S
O125 Co117 2.135 . S
Co126 O127 2.216 . S
Co126 O128 2.091 . S
Co126 O130 2.004 . S
Co126 O136 2.021 . S
Co126 O138 2.137 . S
Co126 O139 2.244 . S
O127 Co126 2.216 . S
O127 C134 1.247 . S
O128 Co126 2.091 . S
O128 C134 1.261 . S
C129 O138 1.247 . S
C129 O139 1.272 . S
O130 Co126 2.004 . S
O130 C135 1.259 . S
Co131 O132 2.061 . S
Co131 O137 2.052 . S
Co131 O139 2.135 . S
O132 Co131 2.061 . S
O132 C135 1.235 . S
C133 O136 1.238 . S
C133 O137 1.241 . S
C134 O127 1.247 . S
C134 O128 1.261 . S
C135 O130 1.259 . S
C135 O132 1.235 . S
O136 Co126 2.021 . S
O136 C133 1.238 . S
O137 Co131 2.052 . S
O137 C133 1.241 . S
O138 Co126 2.137 . S
O138 C129 1.247 . S
O139 Co126 2.244 . S
O139 C129 1.272 . S
O139 Co131 2.135 . S
Co140 O141 2.216 . S
Co140 O142 2.091 1_455 S
Co140 O144 2.004 . S
Co140 O150 2.021 . S
Co140 O152 2.137 . S
Co140 O153 2.244 . S
O141 Co140 2.216 . S
O141 C148 1.247 . S
O142 Co140 2.091 1_655 S
O142 C148 1.261 1_655 S
C143 O152 1.247 . S
C143 O153 1.272 . S
O144 Co140 2.004 . S
O144 C149 1.259 . S
Co145 O146 2.061 . S
Co145 O151 2.052 . S
Co145 O153 2.135 . S
O146 Co145 2.061 . S
O146 C149 1.235 . S
C147 O150 1.238 . S
C147 O151 1.241 . S
C148 O141 1.247 . S
C148 O142 1.261 1_455 S
C149 O144 1.259 . S
C149 O146 1.235 . S
O150 Co140 2.021 . S
O150 C147 1.238 . S
O151 Co145 2.052 . S
O151 C147 1.241 . S
O152 Co140 2.137 . S
O152 C143 1.247 . S
O153 Co140 2.244 . S
O153 C143 1.272 . S
O153 Co145 2.135 . S
Co154 O155 2.216 . S
Co154 O156 2.091 . S
Co154 O158 2.004 . S
Co154 O164 2.021 . S
Co154 O166 2.137 . S
Co154 O167 2.244 . S
O155 Co154 2.216 . S
O155 C162 1.247 . S
O156 Co154 2.091 . S
O156 C162 1.261 . S
C157 O166 1.247 . S
C157 O167 1.272 . S
O158 Co154 2.004 . S
O158 C163 1.259 . S
Co159 O160 2.061 . S
Co159 O165 2.052 . S
Co159 O167 2.135 . S
O160 Co159 2.061 . S
O160 C163 1.235 . S
C161 O164 1.238 . S
C161 O165 1.241 . S
C162 O155 1.247 . S
C162 O156 1.261 . S
C163 O158 1.259 . S
C163 O160 1.235 . S
O164 Co154 2.021 . S
O164 C161 1.238 . S
O165 Co159 2.052 . S
O165 C161 1.241 . S
O166 Co154 2.137 . S
O166 C157 1.247 . S
O167 Co154 2.244 . S
O167 C157 1.272 . S
O167 Co159 2.135 . S
Co168 O169 2.216 . S
Co168 O170 2.091 1_655 S
Co168 O172 2.004 . S
Co168 O178 2.021 . S
Co168 O180 2.137 . S
Co168 O181 2.244 . S
O169 Co168 2.216 . S
O169 C176 1.247 . S
O170 Co168 2.091 1_455 S
O170 C176 1.261 1_455 S
C171 O180 1.247 . S
C171 O181 1.272 . S
O172 Co168 2.004 . S
O172 C177 1.259 . S
Co173 O174 2.061 . S
Co173 O179 2.052 . S
Co173 O181 2.135 . S
O174 Co173 2.061 . S
O174 C177 1.235 . S
C175 O178 1.238 . S
C175 O179 1.241 . S
C176 O169 1.247 . S
C176 O170 1.261 1_655 S
C177 O172 1.259 . S
C177 O174 1.235 . S
O178 Co168 2.021 . S
O178 C175 1.238 . S
O179 Co173 2.052 . S
O179 C175 1.241 . S
O180 Co168 2.137 . S
O180 C171 1.247 . S
O181 Co168 2.244 . S
O181 C171 1.272 . S
O181 Co173 2.135 . S
Co182 O183 2.216 . S
Co182 O184 2.091 . S
Co182 O186 2.004 . S
Co182 O192 2.021 . S
Co182 O194 2.137 . S
Co182 O195 2.244 . S
O183 Co182 2.216 . S
O183 C190 1.247 . S
O184 Co182 2.091 . S
O184 C190 1.261 . S
C185 O194 1.247 . S
C185 O195 1.272 . S
O186 Co182 2.004 . S
O186 C191 1.259 . S
Co187 O188 2.061 . S
Co187 O193 2.052 . S
Co187 O195 2.135 . S
O188 Co187 2.061 . S
O188 C191 1.235 . S
C189 O192 1.238 . S
C189 O193 1.241 . S
C190 O183 1.247 . S
C190 O184 1.261 . S
C191 O186 1.259 . S
C191 O188 1.235 . S
O192 Co182 2.021 . S
O192 C189 1.238 . S
O193 Co187 2.052 . S
O193 C189 1.241 . S
O194 Co182 2.137 . S
O194 C185 1.247 . S
O195 Co182 2.244 . S
O195 C185 1.272 . S
O195 Co187 2.135 . S
Co196 O197 2.216 . S
Co196 O198 2.091 1_655 S
Co196 O200 2.004 . S
Co196 O206 2.021 . S
Co196 O208 2.137 . S
Co196 O209 2.244 . S
O197 Co196 2.216 . S
O197 C204 1.247 . S
O198 Co196 2.091 1_455 S
O198 C204 1.261 1_455 S
C199 O208 1.247 . S
C199 O209 1.272 . S
O200 Co196 2.004 . S
O200 C205 1.259 . S
Co201 O202 2.061 . S
Co201 O207 2.052 . S
Co201 O209 2.135 . S
O202 Co201 2.061 . S
O202 C205 1.235 . S
C203 O206 1.238 . S
C203 O207 1.241 . S
C204 O197 1.247 . S
C204 O198 1.261 1_655 S
C205 O200 1.259 . S
C205 O202 1.235 . S
O206 Co196 2.021 . S
O206 C203 1.238 . S
O207 Co201 2.052 . S
O207 C203 1.241 . S
O208 Co196 2.137 . S
O208 C199 1.247 . S
O209 Co196 2.244 . S
O209 C199 1.272 . S
O209 Co201 2.135 . S
Co210 O211 2.216 . S
Co210 O212 2.091 . S
Co210 O214 2.004 . S
Co210 O220 2.021 . S
Co210 O222 2.137 . S
Co210 O223 2.244 . S
O211 Co210 2.216 . S
O211 C218 1.247 . S
O212 Co210 2.091 . S
O212 C218 1.261 . S
C213 O222 1.247 . S
C213 O223 1.272 . S
O214 Co210 2.004 . S
O214 C219 1.259 . S
Co215 O216 2.061 . S
Co215 O221 2.052 . S
Co215 O223 2.135 . S
O216 Co215 2.061 . S
O216 C219 1.235 . S
C217 O220 1.238 . S
C217 O221 1.241 . S
C218 O211 1.247 . S
C218 O212 1.261 . S
C219 O214 1.259 . S
C219 O216 1.235 . S
O220 Co210 2.021 . S
O220 C217 1.238 . S
O221 Co215 2.052 . S
O221 C217 1.241 . S
O222 Co210 2.137 . S
O222 C213 1.247 . S
O223 Co210 2.244 . S
O223 C213 1.272 . S
O223 Co215 2.135 . S
Co224 O225 2.216 . S
Co224 O226 2.091 . S
Co224 O228 2.004 . S
Co224 O234 2.021 . S
Co224 O236 2.137 . S
Co224 O237 2.244 . S
O225 Co224 2.216 . S
O225 C232 1.247 . S
O226 Co224 2.091 . S
O226 C232 1.261 . S
C227 O236 1.247 . S
C227 O237 1.272 . S
O228 Co224 2.004 . S
O228 C233 1.259 . S
Co229 O230 2.061 . S
Co229 O235 2.052 . S
Co229 O237 2.135 . S
O230 Co229 2.061 . S
O230 C233 1.235 . S
C231 O234 1.238 . S
C231 O235 1.241 . S
C232 O225 1.247 . S
C232 O226 1.261 . S
C233 O228 1.259 . S
C233 O230 1.235 . S
O234 Co224 2.021 . S
O234 C231 1.238 . S
O235 Co229 2.052 . S
O235 C231 1.241 . S
O236 Co224 2.137 . S
O236 C227 1.247 . S
O237 Co224 2.244 . S
O237 C227 1.272 . S
O237 Co229 2.135 . S
Co238 O239 2.216 . S
Co238 O240 2.091 . S
Co238 O242 2.004 . S
Co238 O248 2.021 . S
Co238 O250 2.137 . S
Co238 O251 2.244 . S
O239 Co238 2.216 . S
O239 C246 1.247 . S
O240 Co238 2.091 . S
O240 C246 1.261 . S
C241 O250 1.247 . S
C241 O251 1.272 . S
O242 Co238 2.004 . S
O242 C247 1.259 . S
Co243 O244 2.061 . S
Co243 O249 2.052 . S
Co243 O251 2.135 . S
O244 Co243 2.061 . S
O244 C247 1.235 . S
C245 O248 1.238 . S
C245 O249 1.241 . S
C246 O239 1.247 . S
C246 O240 1.261 . S
C247 O242 1.259 . S
C247 O244 1.235 . S
O248 Co238 2.021 . S
O248 C245 1.238 . S
O249 Co243 2.052 . S
O249 C245 1.241 . S
O250 Co238 2.137 . S
O250 C241 1.247 . S
O251 Co238 2.244 . S
O251 C241 1.272 . S
O251 Co243 2.135 . S
Co252 O253 2.216 . S
Co252 O254 2.091 . S
Co252 O256 2.004 . S
Co252 O262 2.021 . S
Co252 O264 2.137 . S
Co252 O265 2.244 . S
O253 Co252 2.216 . S
O253 C260 1.247 . S
O254 Co252 2.091 . S
O254 C260 1.261 . S
C255 O264 1.247 . S
C255 O265 1.272 . S
O256 Co252 2.004 . S
O256 C261 1.259 . S
Co257 O258 2.061 . S
Co257 O263 2.052 . S
Co257 O265 2.135 . S
O258 Co257 2.061 . S
O258 C261 1.235 . S
C259 O262 1.238 . S
C259 O263 1.241 . S
C260 O253 1.247 . S
C260 O254 1.261 . S
C261 O256 1.259 . S
C261 O258 1.235 . S
O262 Co252 2.021 . S
O262 C259 1.238 . S
O263 Co257 2.052 . S
O263 C259 1.241 . S
O264 Co252 2.137 . S
O264 C255 1.247 . S
O265 Co252 2.244 . S
O265 C255 1.272 . S
O265 Co257 2.135 . S
Co266 O267 2.216 . S
Co266 O268 2.091 . S
Co266 O270 2.004 . S
Co266 O276 2.021 . S
Co266 O278 2.137 . S
Co266 O279 2.244 . S
O267 Co266 2.216 . S
O267 C274 1.247 . S
O268 Co266 2.091 . S
O268 C274 1.261 . S
C269 O278 1.247 . S
C269 O279 1.272 . S
O270 Co266 2.004 . S
O270 C275 1.259 . S
Co271 O272 2.061 . S
Co271 O277 2.052 . S
Co271 O279 2.135 . S
O272 Co271 2.061 . S
O272 C275 1.235 . S
C273 O276 1.238 . S
C273 O277 1.241 . S
C274 O267 1.247 . S
C274 O268 1.261 . S
C275 O270 1.259 . S
C275 O272 1.235 . S
O276 Co266 2.021 . S
O276 C273 1.238 . S
O277 Co271 2.052 . S
O277 C273 1.241 . S
O278 Co266 2.137 . S
O278 C269 1.247 . S
O279 Co266 2.244 . S
O279 C269 1.272 . S
O279 Co271 2.135 . S
Co280 O281 2.216 . S
Co280 O282 2.091 . S
Co280 O284 2.004 . S
Co280 O290 2.021 . S
Co280 O292 2.137 . S
Co280 O293 2.244 . S
O281 Co280 2.216 . S
O281 C288 1.247 . S
O282 Co280 2.091 . S
O282 C288 1.261 . S
C283 O292 1.247 . S
C283 O293 1.272 . S
O284 Co280 2.004 . S
O284 C289 1.259 . S
Co285 O286 2.061 . S
Co285 O291 2.052 . S
Co285 O293 2.135 . S
O286 Co285 2.061 . S
O286 C289 1.235 . S
C287 O290 1.238 . S
C287 O291 1.241 . S
C288 O281 1.247 . S
C288 O282 1.261 . S
C289 O284 1.259 . S
C289 O286 1.235 . S
O290 Co280 2.021 . S
O290 C287 1.238 . S
O291 Co285 2.052 . S
O291 C287 1.241 . S
O292 Co280 2.137 . S
O292 C283 1.247 . S
O293 Co280 2.244 . S
O293 C283 1.272 . S
O293 Co285 2.135 . S
Co294 O295 2.216 . S
Co294 O296 2.091 . S
Co294 O298 2.004 . S
Co294 O304 2.021 . S
Co294 O306 2.137 . S
Co294 O307 2.244 . S
O295 Co294 2.216 . S
O295 C302 1.247 . S
O296 Co294 2.091 . S
O296 C302 1.261 . S
C297 O306 1.247 . S
C297 O307 1.272 . S
O298 Co294 2.004 . S
O298 C303 1.259 . S
Co299 O300 2.061 . S
Co299 O305 2.052 . S
Co299 O307 2.135 . S
O300 Co299 2.061 . S
O300 C303 1.235 . S
C301 O304 1.238 . S
C301 O305 1.241 . S
C302 O295 1.247 . S
C302 O296 1.261 . S
C303 O298 1.259 . S
C303 O300 1.235 . S
O304 Co294 2.021 . S
O304 C301 1.238 . S
O305 Co299 2.052 . S
O305 C301 1.241 . S
O306 Co294 2.137 . S
O306 C297 1.247 . S
O307 Co294 2.244 . S
O307 C297 1.272 . S
O307 Co299 2.135 . S
Co308 O309 2.216 . S
Co308 O310 2.091 . S
Co308 O312 2.004 . S
Co308 O318 2.021 . S
Co308 O320 2.137 . S
Co308 O321 2.244 . S
O309 Co308 2.216 . S
O309 C316 1.247 . S
O310 Co308 2.091 . S
O310 C316 1.261 . S
C311 O320 1.247 . S
C311 O321 1.272 . S
O312 Co308 2.004 . S
O312 C317 1.259 . S
Co313 O314 2.061 . S
Co313 O319 2.052 . S
Co313 O321 2.135 . S
O314 Co313 2.061 . S
O314 C317 1.235 . S
C315 O318 1.238 . S
C315 O319 1.241 . S
C316 O309 1.247 . S
C316 O310 1.261 . S
C317 O312 1.259 . S
C317 O314 1.235 . S
O318 Co308 2.021 . S
O318 C315 1.238 . S
O319 Co313 2.052 . S
O319 C315 1.241 . S
O320 Co308 2.137 . S
O320 C311 1.247 . S
O321 Co308 2.244 . S
O321 C311 1.272 . S
O321 Co313 2.135 . S
Co322 O323 2.216 . S
Co322 O324 2.091 . S
Co322 O326 2.004 . S
Co322 O332 2.021 . S
Co322 O334 2.137 . S
Co322 O335 2.244 . S
O323 Co322 2.216 . S
O323 C330 1.247 . S
O324 Co322 2.091 . S
O324 C330 1.261 . S
C325 O334 1.247 . S
C325 O335 1.272 . S
O326 Co322 2.004 . S
O326 C331 1.259 . S
Co327 O328 2.061 . S
Co327 O333 2.052 . S
Co327 O335 2.135 . S
O328 Co327 2.061 . S
O328 C331 1.235 . S
C329 O332 1.238 . S
C329 O333 1.241 . S
C330 O323 1.247 . S
C330 O324 1.261 . S
C331 O326 1.259 . S
C331 O328 1.235 . S
O332 Co322 2.021 . S
O332 C329 1.238 . S
O333 Co327 2.052 . S
O333 C329 1.241 . S
O334 Co322 2.137 . S
O334 C325 1.247 . S
O335 Co322 2.244 . S
O335 C325 1.272 . S
O335 Co327 2.135 . S
Co336 O337 2.216 . S
Co336 O338 2.091 . S
Co336 O340 2.004 . S
Co336 O346 2.021 . S
Co336 O348 2.137 . S
Co336 O349 2.244 . S
O337 Co336 2.216 . S
O337 C344 1.247 . S
O338 Co336 2.091 . S
O338 C344 1.261 . S
C339 O348 1.247 . S
C339 O349 1.272 . S
O340 Co336 2.004 . S
O340 C345 1.259 . S
Co341 O342 2.061 . S
Co341 O347 2.052 . S
Co341 O349 2.135 . S
O342 Co341 2.061 . S
O342 C345 1.235 . S
C343 O346 1.238 . S
C343 O347 1.241 . S
C344 O337 1.247 . S
C344 O338 1.261 . S
C345 O340 1.259 . S
C345 O342 1.235 . S
O346 Co336 2.021 . S
O346 C343 1.238 . S
O347 Co341 2.052 . S
O347 C343 1.241 . S
O348 Co336 2.137 . S
O348 C339 1.247 . S
O349 Co336 2.244 . S
O349 C339 1.272 . S
O349 Co341 2.135 . S
Co350 O351 2.216 . S
Co350 O352 2.091 . S
Co350 O354 2.004 . S
Co350 O360 2.021 . S
Co350 O362 2.137 . S
Co350 O363 2.244 . S
O351 Co350 2.216 . S
O351 C358 1.247 . S
O352 Co350 2.091 . S
O352 C358 1.261 . S
C353 O362 1.247 . S
C353 O363 1.272 . S
O354 Co350 2.004 . S
O354 C359 1.259 . S
Co355 O356 2.061 . S
Co355 O361 2.052 . S
Co355 O363 2.135 . S
O356 Co355 2.061 . S
O356 C359 1.235 . S
C357 O360 1.238 . S
C357 O361 1.241 . S
C358 O351 1.247 . S
C358 O352 1.261 . S
C359 O354 1.259 . S
C359 O356 1.235 . S
O360 Co350 2.021 . S
O360 C357 1.238 . S
O361 Co355 2.052 . S
O361 C357 1.241 . S
O362 Co350 2.137 . S
O362 C353 1.247 . S
O363 Co350 2.244 . S
O363 C353 1.272 . S
O363 Co355 2.135 . S
Co364 O365 2.216 . S
Co364 O366 2.091 . S
Co364 O368 2.004 1_556 S
Co364 O374 2.021 . S
Co364 O376 2.137 . S
Co364 O377 2.244 . S
O365 Co364 2.216 . S
O365 C372 1.247 . S
O366 Co364 2.091 . S
O366 C372 1.261 . S
C367 O376 1.247 . S
C367 O377 1.272 . S
O368 Co364 2.004 1_554 S
O368 C373 1.259 . S
Co369 O370 2.061 . S
Co369 O375 2.052 1_554 S
Co369 O377 2.135 1_554 S
O370 Co369 2.061 . S
O370 C373 1.235 . S
C371 O374 1.238 . S
C371 O375 1.241 . S
C372 O365 1.247 . S
C372 O366 1.261 . S
C373 O368 1.259 . S
C373 O370 1.235 . S
O374 Co364 2.021 . S
O374 C371 1.238 . S
O375 Co369 2.052 1_556 S
O375 C371 1.241 . S
O376 Co364 2.137 . S
O376 C367 1.247 . S
O377 Co364 2.244 . S
O377 C367 1.272 . S
O377 Co369 2.135 1_556 S
Co378 O379 2.216 . S
Co378 O380 2.091 . S
Co378 O382 2.004 1_556 S
Co378 O388 2.021 . S
Co378 O390 2.137 . S
Co378 O391 2.244 . S
O379 Co378 2.216 . S
O379 C386 1.247 . S
O380 Co378 2.091 . S
O380 C386 1.261 . S
C381 O390 1.247 . S
C381 O391 1.272 . S
O382 Co378 2.004 1_554 S
O382 C387 1.259 . S
Co383 O384 2.061 . S
Co383 O389 2.052 1_554 S
Co383 O391 2.135 1_554 S
O384 Co383 2.061 . S
O384 C387 1.235 . S
C385 O388 1.238 . S
C385 O389 1.241 . S
C386 O379 1.247 . S
C386 O380 1.261 . S
C387 O382 1.259 . S
C387 O384 1.235 . S
O388 Co378 2.021 . S
O388 C385 1.238 . S
O389 Co383 2.052 1_556 S
O389 C385 1.241 . S
O390 Co378 2.137 . S
O390 C381 1.247 . S
O391 Co378 2.244 . S
O391 C381 1.272 . S
O391 Co383 2.135 1_556 S
Co392 O393 2.216 . S
Co392 O394 2.091 . S
Co392 O396 2.004 . S
Co392 O402 2.021 . S
Co392 O404 2.137 . S
Co392 O405 2.244 . S
O393 Co392 2.216 . S
O393 C400 1.247 . S
O394 Co392 2.091 . S
O394 C400 1.261 . S
C395 O404 1.247 . S
C395 O405 1.272 . S
O396 Co392 2.004 . S
O396 C401 1.259 . S
Co397 O398 2.061 . S
Co397 O403 2.052 . S
Co397 O405 2.135 . S
O398 Co397 2.061 . S
O398 C401 1.235 . S
C399 O402 1.238 . S
C399 O403 1.241 . S
C400 O393 1.247 . S
C400 O394 1.261 . S
C401 O396 1.259 . S
C401 O398 1.235 . S
O402 Co392 2.021 . S
O402 C399 1.238 . S
O403 Co397 2.052 . S
O403 C399 1.241 . S
O404 Co392 2.137 . S
O404 C395 1.247 . S
O405 Co392 2.244 . S
O405 C395 1.272 . S
O405 Co397 2.135 . S
Co406 O407 2.216 . S
Co406 O408 2.091 . S
Co406 O410 2.004 . S
Co406 O416 2.021 . S
Co406 O418 2.137 . S
Co406 O419 2.244 . S
O407 Co406 2.216 . S
O407 C414 1.247 . S
O408 Co406 2.091 . S
O408 C414 1.261 . S
C409 O418 1.247 . S
C409 O419 1.272 . S
O410 Co406 2.004 . S
O410 C415 1.259 . S
Co411 O412 2.061 . S
Co411 O417 2.052 . S
Co411 O419 2.135 . S
O412 Co411 2.061 . S
O412 C415 1.235 . S
C413 O416 1.238 . S
C413 O417 1.241 . S
C414 O407 1.247 . S
C414 O408 1.261 . S
C415 O410 1.259 . S
C415 O412 1.235 . S
O416 Co406 2.021 . S
O416 C413 1.238 . S
O417 Co411 2.052 . S
O417 C413 1.241 . S
O418 Co406 2.137 . S
O418 C409 1.247 . S
O419 Co406 2.244 . S
O419 C409 1.272 . S
O419 Co411 2.135 . S
Co420 O421 2.216 . S
Co420 O422 2.091 . S
Co420 O424 2.004 1_554 S
Co420 O430 2.021 . S
Co420 O432 2.137 . S
Co420 O433 2.244 . S
O421 Co420 2.216 . S
O421 C428 1.247 . S
O422 Co420 2.091 . S
O422 C428 1.261 . S
C423 O432 1.247 . S
C423 O433 1.272 . S
O424 Co420 2.004 1_556 S
O424 C429 1.259 . S
Co425 O426 2.061 . S
Co425 O431 2.052 1_556 S
Co425 O433 2.135 1_556 S
O426 Co425 2.061 . S
O426 C429 1.235 . S
C427 O430 1.238 . S
C427 O431 1.241 . S
C428 O421 1.247 . S
C428 O422 1.261 . S
C429 O424 1.259 . S
C429 O426 1.235 . S
O430 Co420 2.021 . S
O430 C427 1.238 . S
O431 Co425 2.052 1_554 S
O431 C427 1.241 . S
O432 Co420 2.137 . S
O432 C423 1.247 . S
O433 Co420 2.244 . S
O433 C423 1.272 . S
O433 Co425 2.135 1_554 S
Co434 O435 2.216 . S
Co434 O436 2.091 . S
Co434 O438 2.004 1_554 S
Co434 O444 2.021 . S
Co434 O446 2.137 . S
Co434 O447 2.244 . S
O435 Co434 2.216 . S
O435 C442 1.247 . S
O436 Co434 2.091 . S
O436 C442 1.261 . S
C437 O446 1.247 . S
C437 O447 1.272 . S
O438 Co434 2.004 1_556 S
O438 C443 1.259 . S
Co439 O440 2.061 . S
Co439 O445 2.052 1_556 S
Co439 O447 2.135 1_556 S
O440 Co439 2.061 . S
O440 C443 1.235 . S
C441 O444 1.238 . S
C441 O445 1.241 . S
C442 O435 1.247 . S
C442 O436 1.261 . S
C443 O438 1.259 . S
C443 O440 1.235 . S
O444 Co434 2.021 . S
O444 C441 1.238 . S
O445 Co439 2.052 1_554 S
O445 C441 1.241 . S
O446 Co434 2.137 . S
O446 C437 1.247 . S
O447 Co434 2.244 . S
O447 C437 1.272 . S
O447 Co439 2.135 1_554 S
H448 C456 0.929 . S
H449 C458 0.930 . S
H450 C460 0.930 . S
H451 C463 0.929 . S
H452 C466 0.930 . S
H453 C468 0.960 . S
H454 C468 0.960 . S
H455 C468 0.960 . S
C456 H448 0.929 . S
C456 C457 1.377 . S
C456 C458 1.384 . S
C457 C456 1.377 . S
C457 C463 1.390 . S
C458 H449 0.930 . S
C458 C456 1.384 . S
C458 C459 1.372 . S
C459 C458 1.372 . S
C459 C460 1.400 . S
C459 C464 1.490 . S
C460 H450 0.930 . S
C460 C459 1.400 . S
C460 C463 1.386 . S
H461 C477 0.930 . S
H462 C478 0.931 . S
C463 H451 0.929 . S
C463 C457 1.390 . S
C463 C460 1.386 . S
C464 C459 1.490 . S
C464 C466 1.395 . S
C464 C467 1.403 . S
H465 C471 0.930 . S
C466 H452 0.930 . S
C466 C464 1.395 . S
C466 C469 1.403 . S
C467 C464 1.403 . S
C467 C468 1.524 . S
C467 C471 1.400 . S
C468 H453 0.960 . S
C468 H454 0.960 . S
C468 H455 0.960 . S
C468 C467 1.524 . S
C469 C466 1.403 . S
C469 C470 1.392 . S
C469 C473 1.495 . S
C470 C469 1.392 . S
C470 C471 1.385 . S
C470 C472 1.478 . S
C471 H465 0.930 . S
C471 C467 1.400 . S
C471 C470 1.385 . S
C472 C470 1.478 . S
C472 C474 1.381 . S
C472 C478 1.383 . S
C473 C469 1.495 . S
C473 H479 0.959 1_455 S
C473 H480 0.961 . S
C473 H481 0.960 1_455 S
C474 C472 1.381 . S
C474 C475 1.394 . S
C474 H482 0.930 . S
C475 C474 1.394 . S
C475 C476 1.383 . S
C475 H483 0.929 . S
C476 C475 1.383 . S
C476 C477 1.377 . S
C477 H461 0.930 . S
C477 C476 1.377 . S
C477 C478 1.379 . S
C478 H462 0.931 . S
C478 C472 1.383 . S
C478 C477 1.379 . S
H479 C473 0.959 1_655 S
H480 C473 0.961 . S
H481 C473 0.960 1_655 S
H482 C474 0.930 . S
H483 C475 0.929 . S
H484 C492 0.929 . S
H485 C494 0.930 . S
H486 C496 0.930 . S
H487 C499 0.929 . S
H488 C502 0.930 . S
H489 C504 0.960 . S
H490 C504 0.960 . S
H491 C504 0.960 . S
C492 H484 0.929 . S
C492 C493 1.377 . S
C492 C494 1.384 . S
C493 C492 1.377 . S
C493 C499 1.390 . S
C494 H485 0.930 . S
C494 C492 1.384 . S
C494 C495 1.372 . S
C495 C494 1.372 . S
C495 C496 1.400 . S
C495 C500 1.490 . S
C496 H486 0.930 . S
C496 C495 1.400 . S
C496 C499 1.386 . S
H497 C513 0.930 . S
H498 C514 0.931 . S
C499 H487 0.929 . S
C499 C493 1.390 . S
C499 C496 1.386 . S
C500 C495 1.490 . S
C500 C502 1.395 . S
C500 C503 1.403 . S
H501 C507 0.930 . S
C502 H488 0.930 . S
C502 C500 1.395 . S
C502 C505 1.403 . S
C503 C500 1.403 . S
C503 C504 1.524 . S
C503 C507 1.400 . S
C504 H489 0.960 . S
C504 H490 0.960 . S
C504 H491 0.960 . S
C504 C503 1.524 . S
C505 C502 1.403 . S
C505 C506 1.392 . S
C505 C509 1.495 . S
C506 C505 1.392 . S
C506 C507 1.385 . S
C506 C508 1.478 . S
C507 H501 0.930 . S
C507 C503 1.400 . S
C507 C506 1.385 . S
C508 C506 1.478 . S
C508 C510 1.381 . S
C508 C514 1.383 . S
C509 C505 1.495 . S
C509 H515 0.959 . S
C509 H516 0.961 . S
C509 H517 0.960 . S
C510 C508 1.381 . S
C510 C511 1.394 . S
C510 H518 0.930 . S
C511 C510 1.394 . S
C511 C512 1.383 . S
C511 H519 0.929 . S
C512 C511 1.383 . S
C512 C513 1.377 . S
C513 H497 0.930 . S
C513 C512 1.377 . S
C513 C514 1.379 . S
C514 H498 0.931 . S
C514 C508 1.383 . S
C514 C513 1.379 . S
H515 C509 0.959 . S
H516 C509 0.961 . S
H517 C509 0.960 . S
H518 C510 0.930 . S
H519 C511 0.929 . S
H520 C528 0.929 . S
H521 C530 0.930 . S
H522 C532 0.930 . S
H523 C535 0.929 . S
H524 C538 0.930 . S
H525 C540 0.960 . S
H526 C540 0.960 . S
H527 C540 0.960 . S
C528 H520 0.929 . S
C528 C529 1.377 . S
C528 C530 1.384 . S
C529 C528 1.377 . S
C529 C535 1.390 . S
C530 H521 0.930 . S
C530 C528 1.384 . S
C530 C531 1.372 . S
C531 C530 1.372 . S
C531 C532 1.400 . S
C531 C536 1.490 . S
C532 H522 0.930 . S
C532 C531 1.400 . S
C532 C535 1.386 . S
H533 C549 0.930 . S
H534 C550 0.931 . S
C535 H523 0.929 . S
C535 C529 1.390 . S
C535 C532 1.386 . S
C536 C531 1.490 . S
C536 C538 1.395 . S
C536 C539 1.403 . S
H537 C543 0.930 . S
C538 H524 0.930 . S
C538 C536 1.395 . S
C538 C541 1.403 . S
C539 C536 1.403 . S
C539 C540 1.524 . S
C539 C543 1.400 . S
C540 H525 0.960 . S
C540 H526 0.960 . S
C540 H527 0.960 . S
C540 C539 1.524 . S
C541 C538 1.403 . S
C541 C542 1.392 . S
C541 C545 1.495 . S
C542 C541 1.392 . S
C542 C543 1.385 . S
C542 C544 1.478 . S
C543 H537 0.930 . S
C543 C539 1.400 . S
C543 C542 1.385 . S
C544 C542 1.478 . S
C544 C546 1.381 . S
C544 C550 1.383 . S
C545 C541 1.495 . S
C545 H551 0.959 . S
C545 H552 0.961 . S
C545 H553 0.960 . S
C546 C544 1.381 . S
C546 C547 1.394 . S
C546 H554 0.930 . S
C547 C546 1.394 . S
C547 C548 1.383 . S
C547 H555 0.929 . S
C548 C547 1.383 . S
C548 C549 1.377 . S
C549 H533 0.930 . S
C549 C548 1.377 . S
C549 C550 1.379 . S
C550 H534 0.931 . S
C550 C544 1.383 . S
C550 C549 1.379 . S
H551 C545 0.959 . S
H552 C545 0.961 . S
H553 C545 0.960 . S
H554 C546 0.930 . S
H555 C547 0.929 . S
H556 C564 0.929 . S
H557 C566 0.930 . S
H558 C568 0.930 . S
H559 C571 0.929 . S
H560 C574 0.930 . S
H561 C576 0.960 . S
H562 C576 0.960 . S
H563 C576 0.960 . S
C564 H556 0.929 . S
C564 C565 1.377 . S
C564 C566 1.384 . S
C565 C564 1.377 . S
C565 C571 1.390 . S
C566 H557 0.930 . S
C566 C564 1.384 . S
C566 C567 1.372 . S
C567 C566 1.372 . S
C567 C568 1.400 . S
C567 C572 1.490 . S
C568 H558 0.930 . S
C568 C567 1.400 . S
C568 C571 1.386 . S
H569 C585 0.930 . S
H570 C586 0.931 . S
C571 H559 0.929 . S
C571 C565 1.390 . S
C571 C568 1.386 . S
C572 C567 1.490 . S
C572 C574 1.395 . S
C572 C575 1.403 . S
H573 C579 0.930 . S
C574 H560 0.930 . S
C574 C572 1.395 . S
C574 C577 1.403 . S
C575 C572 1.403 . S
C575 C576 1.524 . S
C575 C579 1.400 . S
C576 H561 0.960 . S
C576 H562 0.960 . S
C576 H563 0.960 . S
C576 C575 1.524 . S
C577 C574 1.403 . S
C577 C578 1.392 . S
C577 C581 1.495 . S
C578 C577 1.392 . S
C578 C579 1.385 . S
C578 C580 1.478 . S
C579 H573 0.930 . S
C579 C575 1.400 . S
C579 C578 1.385 . S
C580 C578 1.478 . S
C580 C582 1.381 . S
C580 C586 1.383 . S
C581 C577 1.495 . S
C581 H587 0.959 . S
C581 H588 0.961 . S
C581 H589 0.960 . S
C582 C580 1.381 . S
C582 C583 1.394 . S
C582 H590 0.930 . S
C583 C582 1.394 . S
C583 C584 1.383 . S
C583 H591 0.929 . S
C584 C583 1.383 . S
C584 C585 1.377 . S
C585 H569 0.930 . S
C585 C584 1.377 . S
C585 C586 1.379 . S
C586 H570 0.931 . S
C586 C580 1.383 . S
C586 C585 1.379 . S
H587 C581 0.959 . S
H588 C581 0.961 . S
H589 C581 0.960 . S
H590 C582 0.930 . S
H591 C583 0.929 . S
H592 C600 0.929 . S
H593 C602 0.930 . S
H594 C604 0.930 . S
H595 C607 0.929 . S
H596 C610 0.930 . S
H597 C612 0.960 . S
H598 C612 0.960 . S
H599 C612 0.960 . S
C600 H592 0.929 . S
C600 C601 1.377 . S
C600 C602 1.384 . S
C601 C600 1.377 . S
C601 C607 1.390 . S
C602 H593 0.930 . S
C602 C600 1.384 . S
C602 C603 1.372 . S
C603 C602 1.372 . S
C603 C604 1.400 . S
C603 C608 1.490 . S
C604 H594 0.930 . S
C604 C603 1.400 . S
C604 C607 1.386 . S
H605 C621 0.930 . S
H606 C622 0.931 . S
C607 H595 0.929 . S
C607 C601 1.390 . S
C607 C604 1.386 . S
C608 C603 1.490 . S
C608 C610 1.395 . S
C608 C611 1.403 . S
H609 C615 0.930 . S
C610 H596 0.930 . S
C610 C608 1.395 . S
C610 C613 1.403 . S
C611 C608 1.403 . S
C611 C612 1.524 . S
C611 C615 1.400 . S
C612 H597 0.960 . S
C612 H598 0.960 . S
C612 H599 0.960 . S
C612 C611 1.524 . S
C613 C610 1.403 . S
C613 C614 1.392 . S
C613 C617 1.495 . S
C614 C613 1.392 . S
C614 C615 1.385 . S
C614 C616 1.478 . S
C615 H609 0.930 . S
C615 C611 1.400 . S
C615 C614 1.385 . S
C616 C614 1.478 . S
C616 C618 1.381 . S
C616 C622 1.383 . S
C617 C613 1.495 . S
C617 H623 0.959 . S
C617 H624 0.961 . S
C617 H625 0.960 . S
C618 C616 1.381 . S
C618 C619 1.394 . S
C618 H626 0.930 . S
C619 C618 1.394 . S
C619 C620 1.383 . S
C619 H627 0.929 . S
C620 C619 1.383 . S
C620 C621 1.377 . S
C621 H605 0.930 . S
C621 C620 1.377 . S
C621 C622 1.379 . S
C622 H606 0.931 . S
C622 C616 1.383 . S
C622 C621 1.379 . S
H623 C617 0.959 . S
H624 C617 0.961 . S
H625 C617 0.960 . S
H626 C618 0.930 . S
H627 C619 0.929 . S
H628 C636 0.929 . S
H629 C638 0.930 . S
H630 C640 0.930 . S
H631 C643 0.929 . S
H632 C646 0.930 . S
H633 C648 0.960 . S
H634 C648 0.960 . S
H635 C648 0.960 . S
C636 H628 0.929 . S
C636 C637 1.377 . S
C636 C638 1.384 . S
C637 C636 1.377 . S
C637 C643 1.390 . S
C638 H629 0.930 . S
C638 C636 1.384 . S
C638 C639 1.372 . S
C639 C638 1.372 . S
C639 C640 1.400 . S
C639 C644 1.490 . S
C640 H630 0.930 . S
C640 C639 1.400 . S
C640 C643 1.386 . S
H641 C657 0.930 . S
H642 C658 0.931 . S
C643 H631 0.929 . S
C643 C637 1.390 . S
C643 C640 1.386 . S
C644 C639 1.490 . S
C644 C646 1.395 . S
C644 C647 1.403 . S
H645 C651 0.930 . S
C646 H632 0.930 . S
C646 C644 1.395 . S
C646 C649 1.403 . S
C647 C644 1.403 . S
C647 C648 1.524 . S
C647 C651 1.400 . S
C648 H633 0.960 . S
C648 H634 0.960 . S
C648 H635 0.960 . S
C648 C647 1.524 . S
C649 C646 1.403 . S
C649 C650 1.392 . S
C649 C653 1.495 . S
C650 C649 1.392 . S
C650 C651 1.385 . S
C650 C652 1.478 . S
C651 H645 0.930 . S
C651 C647 1.400 . S
C651 C650 1.385 . S
C652 C650 1.478 . S
C652 C654 1.381 . S
C652 C658 1.383 . S
C653 C649 1.495 . S
C653 H659 0.959 . S
C653 H660 0.961 . S
C653 H661 0.960 . S
C654 C652 1.381 . S
C654 C655 1.394 . S
C654 H662 0.930 . S
C655 C654 1.394 . S
C655 C656 1.383 . S
C655 H663 0.929 . S
C656 C655 1.383 . S
C656 C657 1.377 . S
C657 H641 0.930 . S
C657 C656 1.377 . S
C657 C658 1.379 . S
C658 H642 0.931 . S
C658 C652 1.383 . S
C658 C657 1.379 . S
H659 C653 0.959 . S
H660 C653 0.961 . S
H661 C653 0.960 . S
H662 C654 0.930 . S
H663 C655 0.929 . S
H664 C672 0.929 . S
H665 C674 0.930 . S
H666 C676 0.930 . S
H667 C679 0.929 . S
H668 C682 0.930 . S
H669 C684 0.960 . S
H670 C684 0.960 . S
H671 C684 0.960 . S
C672 H664 0.929 . S
C672 C673 1.377 . S
C672 C674 1.384 . S
C673 C672 1.377 . S
C673 C679 1.390 . S
C674 H665 0.930 . S
C674 C672 1.384 . S
C674 C675 1.372 . S
C675 C674 1.372 . S
C675 C676 1.400 . S
C675 C680 1.490 . S
C676 H666 0.930 . S
C676 C675 1.400 . S
C676 C679 1.386 . S
H677 C693 0.930 . S
H678 C694 0.931 . S
C679 H667 0.929 . S
C679 C673 1.390 . S
C679 C676 1.386 . S
C680 C675 1.490 . S
C680 C682 1.395 . S
C680 C683 1.403 . S
H681 C687 0.930 . S
C682 H668 0.930 . S
C682 C680 1.395 . S
C682 C685 1.403 . S
C683 C680 1.403 . S
C683 C684 1.524 . S
C683 C687 1.400 . S
C684 H669 0.960 . S
C684 H670 0.960 . S
C684 H671 0.960 . S
C684 C683 1.524 . S
C685 C682 1.403 . S
C685 C686 1.392 . S
C685 C689 1.495 . S
C686 C685 1.392 . S
C686 C687 1.385 . S
C686 C688 1.478 . S
C687 H681 0.930 . S
C687 C683 1.400 . S
C687 C686 1.385 . S
C688 C686 1.478 . S
C688 C690 1.381 . S
C688 C694 1.383 . S
C689 C685 1.495 . S
C689 H695 0.959 . S
C689 H696 0.961 . S
C689 H697 0.960 . S
C690 C688 1.381 . S
C690 C691 1.394 . S
C690 H698 0.930 . S
C691 C690 1.394 . S
C691 C692 1.383 . S
C691 H699 0.929 . S
C692 C691 1.383 . S
C692 C693 1.377 . S
C693 H677 0.930 . S
C693 C692 1.377 . S
C693 C694 1.379 . S
C694 H678 0.931 . S
C694 C688 1.383 . S
C694 C693 1.379 . S
H695 C689 0.959 . S
H696 C689 0.961 . S
H697 C689 0.960 . S
H698 C690 0.930 . S
H699 C691 0.929 . S
H700 C708 0.929 . S
H701 C710 0.930 . S
H702 C712 0.930 . S
H703 C715 0.929 . S
H704 C718 0.930 . S
H705 C720 0.960 . S
H706 C720 0.960 . S
H707 C720 0.960 . S
C708 H700 0.929 . S
C708 C709 1.377 . S
C708 C710 1.384 . S
C709 C708 1.377 . S
C709 C715 1.390 . S
C710 H701 0.930 . S
C710 C708 1.384 . S
C710 C711 1.372 . S
C711 C710 1.372 . S
C711 C712 1.400 . S
C711 C716 1.490 . S
C712 H702 0.930 . S
C712 C711 1.400 . S
C712 C715 1.386 . S
H713 C729 0.930 . S
H714 C730 0.931 . S
C715 H703 0.929 . S
C715 C709 1.390 . S
C715 C712 1.386 . S
C716 C711 1.490 . S
C716 C718 1.395 . S
C716 C719 1.403 . S
H717 C723 0.930 . S
C718 H704 0.930 . S
C718 C716 1.395 . S
C718 C721 1.403 . S
C719 C716 1.403 . S
C719 C720 1.524 . S
C719 C723 1.400 . S
C720 H705 0.960 . S
C720 H706 0.960 . S
C720 H707 0.960 . S
C720 C719 1.524 . S
C721 C718 1.403 . S
C721 C722 1.392 . S
C721 C725 1.495 . S
C722 C721 1.392 . S
C722 C723 1.385 . S
C722 C724 1.478 . S
C723 H717 0.930 . S
C723 C719 1.400 . S
C723 C722 1.385 . S
C724 C722 1.478 . S
C724 C726 1.381 . S
C724 C730 1.383 . S
C725 C721 1.495 . S
C725 H731 0.959 . S
C725 H732 0.961 . S
C725 H733 0.960 . S
C726 C724 1.381 . S
C726 C727 1.394 . S
C726 H734 0.930 . S
C727 C726 1.394 . S
C727 C728 1.383 . S
C727 H735 0.929 . S
C728 C727 1.383 . S
C728 C729 1.377 . S
C729 H713 0.930 . S
C729 C728 1.377 . S
C729 C730 1.379 . S
C730 H714 0.931 . S
C730 C724 1.383 . S
C730 C729 1.379 . S
H731 C725 0.959 . S
H732 C725 0.961 . S
H733 C725 0.960 . S
H734 C726 0.930 . S
H735 C727 0.929 . S
H736 C744 0.929 . S
H737 C746 0.930 . S
H738 C748 0.930 . S
H739 C751 0.929 . S
H740 C754 0.930 . S
H741 C756 0.960 . S
H742 C756 0.960 . S
H743 C756 0.960 . S
C744 H736 0.929 . S
C744 C745 1.377 . S
C744 C746 1.384 . S
C745 C744 1.377 . S
C745 C751 1.390 . S
C746 H737 0.930 . S
C746 C744 1.384 . S
C746 C747 1.372 . S
C747 C746 1.372 . S
C747 C748 1.400 . S
C747 C752 1.490 . S
C748 H738 0.930 . S
C748 C747 1.400 . S
C748 C751 1.386 . S
H749 C765 0.930 . S
H750 C766 0.931 . S
C751 H739 0.929 . S
C751 C745 1.390 . S
C751 C748 1.386 . S
C752 C747 1.490 . S
C752 C754 1.395 . S
C752 C755 1.403 . S
H753 C759 0.930 . S
C754 H740 0.930 . S
C754 C752 1.395 . S
C754 C757 1.403 . S
C755 C752 1.403 . S
C755 C756 1.524 . S
C755 C759 1.400 . S
C756 H741 0.960 . S
C756 H742 0.960 . S
C756 H743 0.960 . S
C756 C755 1.524 . S
C757 C754 1.403 . S
C757 C758 1.392 . S
C757 C761 1.495 . S
C758 C757 1.392 . S
C758 C759 1.385 . S
C758 C760 1.478 . S
C759 H753 0.930 . S
C759 C755 1.400 . S
C759 C758 1.385 . S
C760 C758 1.478 . S
C760 C762 1.381 . S
C760 C766 1.383 . S
C761 C757 1.495 . S
C761 H767 0.959 . S
C761 H768 0.961 . S
C761 H769 0.960 . S
C762 C760 1.381 . S
C762 C763 1.394 . S
C762 H770 0.930 . S
C763 C762 1.394 . S
C763 C764 1.383 . S
C763 H771 0.929 . S
C764 C763 1.383 . S
C764 C765 1.377 . S
C765 H749 0.930 . S
C765 C764 1.377 . S
C765 C766 1.379 . S
C766 H750 0.931 . S
C766 C760 1.383 . S
C766 C765 1.379 . S
H767 C761 0.959 . S
H768 C761 0.961 . S
H769 C761 0.960 . S
H770 C762 0.930 . S
H771 C763 0.929 . S
H772 C780 0.929 . S
H773 C782 0.930 . S
H774 C784 0.930 . S
H775 C787 0.929 . S
H776 C790 0.930 . S
H777 C792 0.960 . S
H778 C792 0.960 . S
H779 C792 0.960 . S
C780 H772 0.929 . S
C780 C781 1.377 . S
C780 C782 1.384 . S
C781 C780 1.377 . S
C781 C787 1.390 . S
C782 H773 0.930 . S
C782 C780 1.384 . S
C782 C783 1.372 . S
C783 C782 1.372 . S
C783 C784 1.400 . S
C783 C788 1.490 . S
C784 H774 0.930 . S
C784 C783 1.400 . S
C784 C787 1.386 . S
H785 C801 0.930 . S
H786 C802 0.931 . S
C787 H775 0.929 . S
C787 C781 1.390 . S
C787 C784 1.386 . S
C788 C783 1.490 . S
C788 C790 1.395 . S
C788 C791 1.403 . S
H789 C795 0.930 . S
C790 H776 0.930 . S
C790 C788 1.395 . S
C790 C793 1.403 . S
C791 C788 1.403 . S
C791 C792 1.524 . S
C791 C795 1.400 . S
C792 H777 0.960 . S
C792 H778 0.960 . S
C792 H779 0.960 . S
C792 C791 1.524 . S
C793 C790 1.403 . S
C793 C794 1.392 . S
C793 C797 1.495 . S
C794 C793 1.392 . S
C794 C795 1.385 . S
C794 C796 1.478 . S
C795 H789 0.930 . S
C795 C791 1.400 . S
C795 C794 1.385 . S
C796 C794 1.478 . S
C796 C798 1.381 . S
C796 C802 1.383 . S
C797 C793 1.495 . S
C797 H803 0.959 . S
C797 H804 0.961 . S
C797 H805 0.960 . S
C798 C796 1.381 . S
C798 C799 1.394 . S
C798 H806 0.930 . S
C799 C798 1.394 . S
C799 C800 1.383 . S
C799 H807 0.929 . S
C800 C799 1.383 . S
C800 C801 1.377 . S
C801 H785 0.930 . S
C801 C800 1.377 . S
C801 C802 1.379 . S
C802 H786 0.931 . S
C802 C796 1.383 . S
C802 C801 1.379 . S
H803 C797 0.959 . S
H804 C797 0.961 . S
H805 C797 0.960 . S
H806 C798 0.930 . S
H807 C799 0.929 . S
H808 C816 0.929 . S
H809 C818 0.930 . S
H810 C820 0.930 . S
H811 C823 0.929 . S
H812 C826 0.930 . S
H813 C828 0.960 . S
H814 C828 0.960 . S
H815 C828 0.960 . S
C816 H808 0.929 . S
C816 C817 1.377 . S
C816 C818 1.384 . S
C817 C816 1.377 . S
C817 C823 1.390 . S
C818 H809 0.930 . S
C818 C816 1.384 . S
C818 C819 1.372 . S
C819 C818 1.372 . S
C819 C820 1.400 . S
C819 C824 1.490 . S
C820 H810 0.930 . S
C820 C819 1.400 . S
C820 C823 1.386 . S
H821 C837 0.930 . S
H822 C838 0.931 . S
C823 H811 0.929 . S
C823 C817 1.390 . S
C823 C820 1.386 . S
C824 C819 1.490 . S
C824 C826 1.395 . S
C824 C827 1.403 . S
H825 C831 0.930 . S
C826 H812 0.930 . S
C826 C824 1.395 . S
C826 C829 1.403 . S
C827 C824 1.403 . S
C827 C828 1.524 . S
C827 C831 1.400 . S
C828 H813 0.960 . S
C828 H814 0.960 . S
C828 H815 0.960 . S
C828 C827 1.524 . S
C829 C826 1.403 . S
C829 C830 1.392 . S
C829 C833 1.495 . S
C830 C829 1.392 . S
C830 C831 1.385 . S
C830 C832 1.478 . S
C831 H825 0.930 . S
C831 C827 1.400 . S
C831 C830 1.385 . S
C832 C830 1.478 . S
C832 C834 1.381 . S
C832 C838 1.383 . S
C833 C829 1.495 . S
C833 H839 0.959 . S
C833 H840 0.961 . S
C833 H841 0.960 . S
C834 C832 1.381 . S
C834 C835 1.394 . S
C834 H842 0.930 . S
C835 C834 1.394 . S
C835 C836 1.383 . S
C835 H843 0.929 . S
C836 C835 1.383 . S
C836 C837 1.377 . S
C837 H821 0.930 . S
C837 C836 1.377 . S
C837 C838 1.379 . S
C838 H822 0.931 . S
C838 C832 1.383 . S
C838 C837 1.379 . S
H839 C833 0.959 . S
H840 C833 0.961 . S
H841 C833 0.960 . S
H842 C834 0.930 . S
H843 C835 0.929 . S
H844 C852 0.929 . S
H845 C854 0.930 . S
H846 C856 0.930 . S
H847 C859 0.929 . S
H848 C862 0.930 . S
H849 C864 0.960 . S
H850 C864 0.960 . S
H851 C864 0.960 . S
C852 H844 0.929 . S
C852 C853 1.377 . S
C852 C854 1.384 . S
C853 C852 1.377 . S
C853 C859 1.390 . S
C854 H845 0.930 . S
C854 C852 1.384 . S
C854 C855 1.372 . S
C855 C854 1.372 . S
C855 C856 1.400 . S
C855 C860 1.490 . S
C856 H846 0.930 . S
C856 C855 1.400 . S
C856 C859 1.386 . S
H857 C873 0.930 . S
H858 C874 0.931 . S
C859 H847 0.929 . S
C859 C853 1.390 . S
C859 C856 1.386 . S
C860 C855 1.490 . S
C860 C862 1.395 . S
C860 C863 1.403 . S
H861 C867 0.930 . S
C862 H848 0.930 . S
C862 C860 1.395 . S
C862 C865 1.403 . S
C863 C860 1.403 . S
C863 C864 1.524 . S
C863 C867 1.400 . S
C864 H849 0.960 . S
C864 H850 0.960 . S
C864 H851 0.960 . S
C864 C863 1.524 . S
C865 C862 1.403 . S
C865 C866 1.392 . S
C865 C869 1.495 . S
C866 C865 1.392 . S
C866 C867 1.385 . S
C866 C868 1.478 . S
C867 H861 0.930 . S
C867 C863 1.400 . S
C867 C866 1.385 . S
C868 C866 1.478 . S
C868 C870 1.381 . S
C868 C874 1.383 . S
C869 C865 1.495 . S
C869 H875 0.959 . S
C869 H876 0.961 . S
C869 H877 0.960 . S
C870 C868 1.381 . S
C870 C871 1.394 . S
C870 H878 0.930 . S
C871 C870 1.394 . S
C871 C872 1.383 . S
C871 H879 0.929 . S
C872 C871 1.383 . S
C872 C873 1.377 . S
C873 H857 0.930 . S
C873 C872 1.377 . S
C873 C874 1.379 . S
C874 H858 0.931 . S
C874 C868 1.383 . S
C874 C873 1.379 . S
H875 C869 0.959 . S
H876 C869 0.961 . S
H877 C869 0.960 . S
H878 C870 0.930 . S
H879 C871 0.929 . S
H880 C888 0.929 . S
H881 C890 0.930 . S
H882 C892 0.930 . S
H883 C895 0.929 . S
H884 C898 0.930 . S
H885 C900 0.960 . S
H886 C900 0.960 . S
H887 C900 0.960 . S
C888 H880 0.929 . S
C888 C889 1.377 . S
C888 C890 1.384 . S
C889 C888 1.377 . S
C889 C895 1.390 . S
C890 H881 0.930 . S
C890 C888 1.384 . S
C890 C891 1.372 . S
C891 C890 1.372 . S
C891 C892 1.400 . S
C891 C896 1.490 . S
C892 H882 0.930 . S
C892 C891 1.400 . S
C892 C895 1.386 . S
H893 C909 0.930 . S
H894 C910 0.931 . S
C895 H883 0.929 . S
C895 C889 1.390 . S
C895 C892 1.386 . S
C896 C891 1.490 . S
C896 C898 1.395 . S
C896 C899 1.403 . S
H897 C903 0.930 . S
C898 H884 0.930 . S
C898 C896 1.395 . S
C898 C901 1.403 . S
C899 C896 1.403 . S
C899 C900 1.524 . S
C899 C903 1.400 . S
C900 H885 0.960 . S
C900 H886 0.960 . S
C900 H887 0.960 . S
C900 C899 1.524 . S
C901 C898 1.403 . S
C901 C902 1.392 . S
C901 C905 1.495 . S
C902 C901 1.392 . S
C902 C903 1.385 . S
C902 C904 1.478 . S
C903 H897 0.930 . S
C903 C899 1.400 . S
C903 C902 1.385 . S
C904 C902 1.478 . S
C904 C906 1.381 . S
C904 C910 1.383 . S
C905 C901 1.495 . S
C905 H911 0.959 . S
C905 H912 0.961 . S
C905 H913 0.960 . S
C906 C904 1.381 . S
C906 C907 1.394 . S
C906 H914 0.930 . S
C907 C906 1.394 . S
C907 C908 1.383 . S
C907 H915 0.929 . S
C908 C907 1.383 . S
C908 C909 1.377 . S
C909 H893 0.930 . S
C909 C908 1.377 . S
C909 C910 1.379 . S
C910 H894 0.931 . S
C910 C904 1.383 . S
C910 C909 1.379 . S
H911 C905 0.959 . S
H912 C905 0.961 . S
H913 C905 0.960 . S
H914 C906 0.930 . S
H915 C907 0.929 . S
H916 C924 0.929 . S
H917 C926 0.930 . S
H918 C928 0.930 . S
H919 C931 0.929 . S
H920 C934 0.930 . S
H921 C936 0.960 . S
H922 C936 0.960 . S
H923 C936 0.960 . S
C924 H916 0.929 . S
C924 C925 1.377 . S
C924 C926 1.384 . S
C925 C924 1.377 . S
C925 C931 1.390 . S
C926 H917 0.930 . S
C926 C924 1.384 . S
C926 C927 1.372 . S
C927 C926 1.372 . S
C927 C928 1.400 . S
C927 C932 1.490 . S
C928 H918 0.930 . S
C928 C927 1.400 . S
C928 C931 1.386 . S
H929 C945 0.930 . S
H930 C946 0.931 . S
C931 H919 0.929 . S
C931 C925 1.390 . S
C931 C928 1.386 . S
C932 C927 1.490 . S
C932 C934 1.395 . S
C932 C935 1.403 . S
H933 C939 0.930 . S
C934 H920 0.930 . S
C934 C932 1.395 . S
C934 C937 1.403 . S
C935 C932 1.403 . S
C935 C936 1.524 . S
C935 C939 1.400 . S
C936 H921 0.960 . S
C936 H922 0.960 . S
C936 H923 0.960 . S
C936 C935 1.524 . S
C937 C934 1.403 . S
C937 C938 1.392 . S
C937 C941 1.495 . S
C938 C937 1.392 . S
C938 C939 1.385 . S
C938 C940 1.478 . S
C939 H933 0.930 . S
C939 C935 1.400 . S
C939 C938 1.385 . S
C940 C938 1.478 . S
C940 C942 1.381 . S
C940 C946 1.383 . S
C941 C937 1.495 . S
C941 H947 0.959 . S
C941 H948 0.961 . S
C941 H949 0.960 . S
C942 C940 1.381 . S
C942 C943 1.394 . S
C942 H950 0.930 . S
C943 C942 1.394 . S
C943 C944 1.383 . S
C943 H951 0.929 . S
C944 C943 1.383 . S
C944 C945 1.377 . S
C945 H929 0.930 . S
C945 C944 1.377 . S
C945 C946 1.379 . S
C946 H930 0.931 . S
C946 C940 1.383 . S
C946 C945 1.379 . S
H947 C941 0.959 . S
H948 C941 0.961 . S
H949 C941 0.960 . S
H950 C942 0.930 . S
H951 C943 0.929 . S
H952 C960 0.929 . S
H953 C962 0.930 . S
H954 C964 0.930 . S
H955 C967 0.929 . S
H956 C970 0.930 . S
H957 C972 0.960 . S
H958 C972 0.960 . S
H959 C972 0.960 . S
C960 H952 0.929 . S
C960 C961 1.377 . S
C960 C962 1.384 . S
C961 C960 1.377 . S
C961 C967 1.390 . S
C962 H953 0.930 . S
C962 C960 1.384 . S
C962 C963 1.372 . S
C963 C962 1.372 . S
C963 C964 1.400 . S
C963 C968 1.490 . S
C964 H954 0.930 . S
C964 C963 1.400 . S
C964 C967 1.386 . S
H965 C981 0.930 . S
H966 C982 0.931 . S
C967 H955 0.929 . S
C967 C961 1.390 . S
C967 C964 1.386 . S
C968 C963 1.490 . S
C968 C970 1.395 . S
C968 C971 1.403 . S
H969 C975 0.930 . S
C970 H956 0.930 . S
C970 C968 1.395 . S
C970 C973 1.403 . S
C971 C968 1.403 . S
C971 C972 1.524 . S
C971 C975 1.400 . S
C972 H957 0.960 . S
C972 H958 0.960 . S
C972 H959 0.960 . S
C972 C971 1.524 . S
C973 C970 1.403 . S
C973 C974 1.392 . S
C973 C977 1.495 . S
C974 C973 1.392 . S
C974 C975 1.385 . S
C974 C976 1.478 . S
C975 H969 0.930 . S
C975 C971 1.400 . S
C975 C974 1.385 . S
C976 C974 1.478 . S
C976 C978 1.381 . S
C976 C982 1.383 . S
C977 C973 1.495 . S
C977 H983 0.959 . S
C977 H984 0.961 . S
C977 H985 0.960 . S
C978 C976 1.381 . S
C978 C979 1.394 . S
C978 H986 0.930 . S
C979 C978 1.394 . S
C979 C980 1.383 . S
C979 H987 0.929 . S
C980 C979 1.383 . S
C980 C981 1.377 . S
C981 H965 0.930 . S
C981 C980 1.377 . S
C981 C982 1.379 . S
C982 H966 0.931 . S
C982 C976 1.383 . S
C982 C981 1.379 . S
H983 C977 0.959 . S
H984 C977 0.961 . S
H985 C977 0.960 . S
H986 C978 0.930 . S
H987 C979 0.929 . S
H988 C996 0.929 . S
H989 C998 0.930 . S
H990 C1000 0.930 . S
H991 C1003 0.929 . S
H992 C1006 0.930 . S
H993 C1008 0.960 . S
H994 C1008 0.960 . S
H995 C1008 0.960 . S
C996 H988 0.929 . S
C996 C997 1.377 . S
C996 C998 1.384 . S
C997 C996 1.377 . S
C997 C1003 1.390 . S
C998 H989 0.930 . S
C998 C996 1.384 . S
C998 C999 1.372 . S
C999 C998 1.372 . S
C999 C1000 1.400 . S
C999 C1004 1.490 . S
C1000 H990 0.930 . S
C1000 C999 1.400 . S
C1000 C1003 1.386 . S
H1001 C1017 0.930 . S
H1002 C1018 0.931 . S
C1003 H991 0.929 . S
C1003 C997 1.390 . S
C1003 C1000 1.386 . S
C1004 C999 1.490 . S
C1004 C1006 1.395 . S
C1004 C1007 1.403 . S
H1005 C1011 0.930 . S
C1006 H992 0.930 . S
C1006 C1004 1.395 . S
C1006 C1009 1.403 . S
C1007 C1004 1.403 . S
C1007 C1008 1.524 . S
C1007 C1011 1.400 . S
C1008 H993 0.960 . S
C1008 H994 0.960 . S
C1008 H995 0.960 . S
C1008 C1007 1.524 . S
C1009 C1006 1.403 . S
C1009 C1010 1.392 . S
C1009 C1013 1.495 . S
C1010 C1009 1.392 . S
C1010 C1011 1.385 . S
C1010 C1012 1.478 . S
C1011 H1005 0.930 . S
C1011 C1007 1.400 . S
C1011 C1010 1.385 . S
C1012 C1010 1.478 . S
C1012 C1014 1.381 . S
C1012 C1018 1.383 . S
C1013 C1009 1.495 . S
C1013 H1019 0.959 . S
C1013 H1020 0.961 . S
C1013 H1021 0.960 . S
C1014 C1012 1.381 . S
C1014 C1015 1.394 . S
C1014 H1022 0.930 . S
C1015 C1014 1.394 . S
C1015 C1016 1.383 . S
C1015 H1023 0.929 . S
C1016 C1015 1.383 . S
C1016 C1017 1.377 . S
C1017 H1001 0.930 . S
C1017 C1016 1.377 . S
C1017 C1018 1.379 . S
C1018 H1002 0.931 . S
C1018 C1012 1.383 . S
C1018 C1017 1.379 . S
H1019 C1013 0.959 . S
H1020 C1013 0.961 . S
H1021 C1013 0.960 . S
H1022 C1014 0.930 . S
H1023 C1015 0.929 . S
H1024 C1032 0.929 . S
H1025 C1034 0.930 . S
H1026 C1036 0.930 . S
H1027 C1039 0.929 . S
H1028 C1042 0.930 . S
H1029 C1044 0.958 1_545 S
H1030 C1044 0.960 . S
H1031 C1044 0.960 . S
C1032 H1024 0.929 . S
C1032 C1033 1.377 . S
C1032 C1034 1.384 . S
C1033 C1032 1.377 . S
C1033 C1039 1.390 . S
C1034 H1025 0.930 . S
C1034 C1032 1.384 . S
C1034 C1035 1.372 . S
C1035 C1034 1.372 . S
C1035 C1036 1.400 . S
C1035 C1040 1.490 . S
C1036 H1026 0.930 . S
C1036 C1035 1.400 . S
C1036 C1039 1.386 . S
H1037 C1053 0.930 . S
H1038 C1054 0.931 . S
C1039 H1027 0.929 . S
C1039 C1033 1.390 . S
C1039 C1036 1.386 . S
C1040 C1035 1.490 . S
C1040 C1042 1.395 . S
C1040 C1043 1.403 . S
H1041 C1047 0.930 . S
C1042 H1028 0.930 . S
C1042 C1040 1.395 . S
C1042 C1045 1.403 1_565 S
C1043 C1040 1.403 . S
C1043 C1044 1.524 . S
C1043 C1047 1.400 1_565 S
C1044 H1029 0.958 1_565 S
C1044 H1030 0.960 . S
C1044 H1031 0.960 . S
C1044 C1043 1.524 . S
C1045 C1042 1.403 1_545 S
C1045 C1046 1.392 . S
C1045 C1049 1.495 . S
C1046 C1045 1.392 . S
C1046 C1047 1.385 . S
C1046 C1048 1.478 . S
C1047 H1041 0.930 . S
C1047 C1043 1.400 1_545 S
C1047 C1046 1.385 . S
C1048 C1046 1.478 . S
C1048 C1050 1.381 . S
C1048 C1054 1.383 . S
C1049 C1045 1.495 . S
C1049 H1055 0.997 . S
C1049 H1056 0.961 . S
C1049 H1057 0.960 . S
C1050 C1048 1.381 . S
C1050 C1051 1.394 . S
C1050 H1058 0.930 . S
C1051 C1050 1.394 . S
C1051 C1052 1.383 . S
C1051 H1059 0.929 . S
C1052 C1051 1.383 . S
C1052 C1053 1.377 . S
C1053 H1037 0.930 . S
C1053 C1052 1.377 . S
C1053 C1054 1.379 . S
C1054 H1038 0.931 . S
C1054 C1048 1.383 . S
C1054 C1053 1.379 . S
H1055 C1049 0.997 . S
H1056 C1049 0.961 . S
H1057 C1049 0.960 . S
H1058 C1050 0.930 . S
H1059 C1051 0.929 . S
H1060 C1068 0.929 . S
H1061 C1070 0.930 1_455 S
H1062 C1072 0.930 . S
H1063 C1075 0.929 . S
H1064 C1078 0.930 . S
H1065 C1080 0.960 . S
H1066 C1080 0.960 . S
H1067 C1080 0.960 . S
C1068 H1060 0.929 . S
C1068 C1069 1.377 . S
C1068 C1070 1.384 . S
C1069 C1068 1.377 . S
C1069 C1075 1.390 . S
C1070 H1061 0.930 1_655 S
C1070 C1068 1.384 . S
C1070 C1071 1.372 . S
C1071 C1070 1.372 . S
C1071 C1072 1.400 . S
C1071 C1076 1.490 . S
C1072 H1062 0.930 . S
C1072 C1071 1.400 . S
C1072 C1075 1.386 . S
H1073 C1089 0.930 . S
H1074 C1090 0.931 1_655 S
C1075 H1063 0.929 . S
C1075 C1069 1.390 . S
C1075 C1072 1.386 . S
C1076 C1071 1.490 . S
C1076 C1078 1.395 1_655 S
C1076 C1079 1.403 . S
H1077 C1083 0.930 . S
C1078 H1064 0.930 . S
C1078 C1076 1.395 1_455 S
C1078 C1081 1.403 . S
C1079 C1076 1.403 . S
C1079 C1080 1.524 . S
C1079 C1083 1.400 . S
C1080 H1065 0.960 . S
C1080 H1066 0.960 . S
C1080 H1067 0.960 . S
C1080 C1079 1.524 . S
C1081 C1078 1.403 . S
C1081 C1082 1.392 . S
C1081 C1085 1.495 . S
C1082 C1081 1.392 . S
C1082 C1083 1.385 1_455 S
C1082 C1084 1.478 . S
C1083 H1077 0.930 . S
C1083 C1079 1.400 . S
C1083 C1082 1.385 1_655 S
C1084 C1082 1.478 . S
C1084 C1086 1.381 . S
C1084 C1090 1.383 . S
C1085 C1081 1.495 . S
C1085 H1091 0.959 . S
C1085 H1092 0.961 . S
C1085 H1093 0.960 . S
C1086 C1084 1.381 . S
C1086 C1087 1.394 . S
C1086 H1094 0.930 . S
C1087 C1086 1.394 . S
C1087 C1088 1.383 . S
C1087 H1095 0.929 . S
C1088 C1087 1.383 . S
C1088 C1089 1.377 . S
C1089 H1073 0.930 . S
C1089 C1088 1.377 . S
C1089 C1090 1.379 . S
C1090 H1074 0.931 1_455 S
C1090 C1084 1.383 . S
C1090 C1089 1.379 . S
H1091 C1085 0.959 . S
H1092 C1085 0.961 . S
H1093 C1085 0.960 . S
H1094 C1086 0.930 . S
H1095 C1087 0.929 . S
H1096 C1104 0.929 . S
H1097 C1106 0.930 . S
H1098 C1108 0.930 . S
H1099 C1111 0.929 . S
H1100 C1114 0.930 . S
H1101 C1116 0.960 . S
H1102 C1116 0.960 . S
H1103 C1116 0.960 1_556 S
C1104 H1096 0.929 . S
C1104 C1105 1.377 1_554 S
C1104 C1106 1.384 . S
C1105 C1104 1.377 1_556 S
C1105 C1111 1.390 . S
C1106 H1097 0.930 . S
C1106 C1104 1.384 . S
C1106 C1107 1.372 1_554 S
C1107 C1106 1.372 1_556 S
C1107 C1108 1.400 . S
C1107 C1112 1.490 . S
C1108 H1098 0.930 . S
C1108 C1107 1.400 . S
C1108 C1111 1.386 . S
H1109 C1125 0.930 . S
H1110 C1126 0.931 . S
C1111 H1099 0.929 . S
C1111 C1105 1.390 . S
C1111 C1108 1.386 . S
C1112 C1107 1.490 . S
C1112 C1114 1.395 . S
C1112 C1115 1.403 1_556 S
H1113 C1119 0.930 . S
C1114 H1100 0.930 . S
C1114 C1112 1.395 . S
C1114 C1117 1.403 . S
C1115 C1112 1.403 1_554 S
C1115 C1116 1.524 . S
C1115 C1119 1.400 . S
C1116 H1101 0.960 . S
C1116 H1102 0.960 . S
C1116 H1103 0.960 1_554 S
C1116 C1115 1.524 . S
C1117 C1114 1.403 . S
C1117 C1118 1.392 1_556 S
C1117 C1121 1.495 . S
C1118 C1117 1.392 1_554 S
C1118 C1119 1.385 . S
C1118 C1120 1.478 . S
C1119 H1113 0.930 . S
C1119 C1115 1.400 . S
C1119 C1118 1.385 . S
C1120 C1118 1.478 . S
C1120 C1122 1.381 . S
C1120 C1126 1.383 1_554 S
C1121 C1117 1.495 . S
C1121 H1127 0.959 . S
C1121 H1128 0.961 . S
C1121 H1129 0.960 1_556 S
C1122 C1120 1.381 . S
C1122 C1123 1.394 . S
C1122 H1130 0.930 . S
C1123 C1122 1.394 . S
C1123 C1124 1.383 . S
C1123 H1131 0.929 . S
C1124 C1123 1.383 . S
C1124 C1125 1.377 1_554 S
C1125 H1109 0.930 . S
C1125 C1124 1.377 1_556 S
C1125 C1126 1.379 . S
C1126 H1110 0.931 . S
C1126 C1120 1.383 1_556 S
C1126 C1125 1.379 . S
H1127 C1121 0.959 . S
H1128 C1121 0.961 . S
H1129 C1121 0.960 1_554 S
H1130 C1122 0.930 . S
H1131 C1123 0.929 . S
H1132 C1140 0.929 . S
H1133 C1142 0.930 . S
H1134 C1144 0.930 . S
H1135 C1147 0.929 . S
H1136 C1150 0.930 . S
H1137 C1152 0.960 . S
H1138 C1152 0.960 1_556 S
H1139 C1152 0.960 . S
C1140 H1132 0.929 . S
C1140 C1141 1.377 . S
C1140 C1142 1.384 . S
C1141 C1140 1.377 . S
C1141 C1147 1.390 1_556 S
C1142 H1133 0.930 . S
C1142 C1140 1.384 . S
C1142 C1143 1.372 . S
C1143 C1142 1.372 . S
C1143 C1144 1.400 1_556 S
C1143 C1148 1.490 . S
C1144 H1134 0.930 . S
C1144 C1143 1.400 1_554 S
C1144 C1147 1.386 . S
H1145 C1161 0.930 . S
H1146 C1162 0.931 . S
C1147 H1135 0.929 . S
C1147 C1141 1.390 1_554 S
C1147 C1144 1.386 . S
C1148 C1143 1.490 . S
C1148 C1150 1.395 . S
C1148 C1151 1.400 1_456 S
H1149 C1155 0.930 . S
C1150 H1136 0.930 . S
C1150 C1148 1.395 . S
C1150 C1153 1.403 1_545 S
C1151 C1148 1.400 1_654 S
C1151 C1152 1.525 . S
C1151 C1155 1.402 1_545 S
C1152 H1137 0.960 . S
C1152 H1138 0.960 1_554 S
C1152 H1139 0.960 . S
C1152 C1151 1.525 . S
C1153 C1150 1.403 1_565 S
C1153 C1154 1.392 1_456 S
C1153 C1157 1.495 . S
C1154 C1153 1.392 1_654 S
C1154 C1155 1.385 . S
C1154 C1156 1.478 . S
C1155 H1149 0.930 . S
C1155 C1151 1.402 1_565 S
C1155 C1154 1.385 . S
C1156 C1154 1.478 . S
C1156 C1158 1.381 1_554 S
C1156 C1162 1.383 . S
C1157 C1153 1.495 . S
C1157 H1163 0.959 . S
C1157 H1164 0.961 1_556 S
C1157 H1165 0.960 . S
C1158 C1156 1.381 1_556 S
C1158 C1159 1.394 . S
C1158 H1166 0.930 . S
C1159 C1158 1.394 . S
C1159 C1160 1.383 1_556 S
C1159 H1167 0.929 . S
C1160 C1159 1.383 1_554 S
C1160 C1161 1.377 . S
C1161 H1145 0.930 . S
C1161 C1160 1.377 . S
C1161 C1162 1.379 . S
C1162 H1146 0.931 . S
C1162 C1156 1.383 . S
C1162 C1161 1.379 . S
H1163 C1157 0.959 . S
H1164 C1157 0.961 1_554 S
H1165 C1157 0.960 . S
H1166 C1158 0.930 . S
H1167 C1159 0.929 . S
H1168 C1176 0.929 . S
H1169 C1178 0.930 . S
H1170 C1180 0.930 . S
H1171 C1183 0.929 . S
H1172 C1186 0.930 . S
H1173 C1188 0.849 1_565 S
H1174 C1188 1.009 . S
H1175 C1188 1.034 . S
C1176 H1168 0.929 . S
C1176 C1177 1.377 . S
C1176 C1178 1.384 . S
C1177 C1176 1.377 . S
C1177 C1183 1.390 . S
C1178 H1169 0.930 . S
C1178 C1176 1.384 . S
C1178 C1179 1.372 . S
C1179 C1178 1.372 . S
C1179 C1180 1.400 . S
C1179 C1184 1.490 . S
C1180 H1170 0.930 . S
C1180 C1179 1.400 . S
C1180 C1183 1.386 . S
H1181 C1197 0.930 . S
H1182 C1198 0.931 . S
C1183 H1171 0.929 . S
C1183 C1177 1.390 . S
C1183 C1180 1.386 . S
C1184 C1179 1.490 . S
C1184 C1186 1.395 . S
C1184 C1187 1.497 . S
H1185 C1191 0.930 . S
C1186 H1172 0.930 . S
C1186 C1184 1.395 . S
C1186 C1189 1.378 1_545 S
C1187 C1184 1.497 . S
C1187 C1188 1.524 . S
C1187 C1191 1.304 1_545 S
C1188 H1173 0.849 1_545 S
C1188 H1174 1.009 . S
C1188 H1175 1.034 . S
C1188 C1187 1.524 . S
C1189 C1186 1.378 1_565 S
C1189 C1190 1.417 . S
C1189 C1193 1.495 . S
C1190 C1189 1.417 . S
C1190 C1191 1.385 . S
C1190 C1192 1.478 . S
C1191 H1185 0.930 . S
C1191 C1187 1.304 1_565 S
C1191 C1190 1.385 . S
C1192 C1190 1.478 . S
C1192 C1194 1.381 . S
C1192 C1198 1.383 . S
C1193 C1189 1.495 . S
C1193 H1199 0.898 1_565 S
C1193 H1200 0.988 . S
C1193 H1201 1.000 . S
C1194 C1192 1.381 . S
C1194 C1195 1.394 . S
C1194 H1202 0.930 . S
C1195 C1194 1.394 . S
C1195 C1196 1.383 . S
C1195 H1203 0.929 . S
C1196 C1195 1.383 . S
C1196 C1197 1.377 . S
C1197 H1181 0.930 . S
C1197 C1196 1.377 . S
C1197 C1198 1.379 . S
C1198 H1182 0.931 . S
C1198 C1192 1.383 . S
C1198 C1197 1.379 . S
H1199 C1193 0.898 1_545 S
H1200 C1193 0.988 . S
H1201 C1193 1.000 . S
H1202 C1194 0.930 . S
H1203 C1195 0.929 . S
H1204 C1212 0.929 . S
H1205 C1214 0.930 . S
H1206 C1216 0.930 . S
H1207 C1219 0.929 . S
H1208 C1222 0.930 . S
H1209 C1224 0.960 . S
H1210 C1224 0.960 . S
H1211 C1224 0.960 . S
C1212 H1204 0.929 . S
C1212 C1213 1.377 . S
C1212 C1214 1.384 . S
C1213 C1212 1.377 . S
C1213 C1219 1.390 . S
C1214 H1205 0.930 . S
C1214 C1212 1.384 . S
C1214 C1215 1.372 . S
C1215 C1214 1.372 . S
C1215 C1216 1.400 . S
C1215 C1220 1.490 . S
C1216 H1206 0.930 . S
C1216 C1215 1.400 . S
C1216 C1219 1.386 . S
H1217 C1233 0.930 . S
H1218 C1234 0.931 . S
C1219 H1207 0.929 . S
C1219 C1213 1.390 . S
C1219 C1216 1.386 . S
C1220 C1215 1.490 . S
C1220 C1222 1.395 . S
C1220 C1223 1.403 1_455 S
H1221 C1227 0.930 . S
C1222 H1208 0.930 . S
C1222 C1220 1.395 . S
C1222 C1225 1.403 . S
C1223 C1220 1.403 1_655 S
C1223 C1224 1.524 . S
C1223 C1227 1.400 . S
C1224 H1209 0.960 . S
C1224 H1210 0.960 . S
C1224 H1211 0.960 . S
C1224 C1223 1.524 . S
C1225 C1222 1.403 . S
C1225 C1226 1.392 1_455 S
C1225 C1229 1.495 . S
C1226 C1225 1.392 1_655 S
C1226 C1227 1.385 . S
C1226 C1228 1.478 . S
C1227 H1221 0.930 . S
C1227 C1223 1.400 . S
C1227 C1226 1.385 . S
C1228 C1226 1.478 . S
C1228 C1230 1.381 . S
C1228 C1234 1.383 . S
C1229 C1225 1.495 . S
C1229 H1235 0.959 . S
C1229 H1236 0.961 . S
C1229 H1237 0.960 . S
C1230 C1228 1.381 . S
C1230 C1231 1.394 . S
C1230 H1238 0.930 . S
C1231 C1230 1.394 . S
C1231 C1232 1.383 . S
C1231 H1239 0.929 . S
C1232 C1231 1.383 . S
C1232 C1233 1.377 . S
C1233 H1217 0.930 . S
C1233 C1232 1.377 . S
C1233 C1234 1.379 . S
C1234 H1218 0.931 . S
C1234 C1228 1.383 . S
C1234 C1233 1.379 . S
H1235 C1229 0.959 . S
H1236 C1229 0.961 . S
H1237 C1229 0.960 . S
H1238 C1230 0.930 . S
H1239 C1231 0.929 . S
H1240 C1248 0.929 . S
H1241 C1250 0.930 . S
H1242 C1252 0.930 . S
H1243 C1255 0.929 . S
H1244 C1258 0.930 . S
H1245 C1260 0.960 . S
H1246 C1260 0.960 . S
H1247 C1260 0.960 . S
C1248 H1240 0.929 . S
C1248 C1249 1.377 1_554 S
C1248 C1250 1.384 . S
C1249 C1248 1.377 1_556 S
C1249 C1255 1.390 . S
C1250 H1241 0.930 . S
C1250 C1248 1.384 . S
C1250 C1251 1.372 1_554 S
C1251 C1250 1.372 1_556 S
C1251 C1252 1.400 . S
C1251 C1256 1.490 . S
C1252 H1242 0.930 . S
C1252 C1251 1.400 . S
C1252 C1255 1.386 . S
H1253 C1269 0.930 . S
H1254 C1270 0.931 . S
C1255 H1243 0.929 . S
C1255 C1249 1.390 . S
C1255 C1252 1.386 . S
C1256 C1251 1.490 . S
C1256 C1258 1.395 1_556 S
C1256 C1259 1.403 . S
H1257 C1263 0.930 . S
C1258 H1244 0.930 . S
C1258 C1256 1.395 1_554 S
C1258 C1261 1.403 . S
C1259 C1256 1.403 . S
C1259 C1260 1.524 . S
C1259 C1263 1.400 . S
C1260 H1245 0.960 . S
C1260 H1246 0.960 . S
C1260 H1247 0.960 . S
C1260 C1259 1.524 . S
C1261 C1258 1.403 . S
C1261 C1262 1.392 . S
C1261 C1265 1.495 . S
C1262 C1261 1.392 . S
C1262 C1263 1.385 1_554 S
C1262 C1264 1.478 . S
C1263 H1257 0.930 . S
C1263 C1259 1.400 . S
C1263 C1262 1.385 1_556 S
C1264 C1262 1.478 . S
C1264 C1266 1.381 . S
C1264 C1270 1.383 1_554 S
C1265 C1261 1.495 . S
C1265 H1271 0.959 . S
C1265 H1272 0.961 . S
C1265 H1273 0.960 . S
C1266 C1264 1.381 . S
C1266 C1267 1.394 . S
C1266 H1274 0.930 . S
C1267 C1266 1.394 . S
C1267 C1268 1.383 . S
C1267 H1275 0.929 . S
C1268 C1267 1.383 . S
C1268 C1269 1.377 1_554 S
C1269 H1253 0.930 . S
C1269 C1268 1.377 1_556 S
C1269 C1270 1.379 . S
C1270 H1254 0.931 . S
C1270 C1264 1.383 1_556 S
C1270 C1269 1.379 . S
H1271 C1265 0.959 . S
H1272 C1265 0.961 . S
H1273 C1265 0.960 . S
H1274 C1266 0.930 . S
H1275 C1267 0.929 . S
H1276 C1284 0.929 . S
H1277 C1286 0.930 . S
H1278 C1288 0.930 . S
H1279 C1291 0.929 . S
H1280 C1294 0.930 . S
H1281 C1296 0.960 . S
H1282 C1296 0.960 . S
H1283 C1296 0.960 . S
C1284 H1276 0.929 . S
C1284 C1285 1.377 . S
C1284 C1286 1.384 . S
C1285 C1284 1.377 . S
C1285 C1291 1.390 . S
C1286 H1277 0.930 . S
C1286 C1284 1.384 . S
C1286 C1287 1.372 . S
C1287 C1286 1.372 . S
C1287 C1288 1.400 . S
C1287 C1292 1.490 . S
C1288 H1278 0.930 . S
C1288 C1287 1.400 . S
C1288 C1291 1.386 . S
H1289 C1305 0.930 . S
H1290 C1306 0.931 . S
C1291 H1279 0.929 . S
C1291 C1285 1.390 . S
C1291 C1288 1.386 . S
C1292 C1287 1.490 . S
C1292 C1294 1.395 . S
C1292 C1295 1.403 . S
H1293 C1299 0.930 . S
C1294 H1280 0.930 . S
C1294 C1292 1.395 . S
C1294 C1297 1.403 . S
C1295 C1292 1.403 . S
C1295 C1296 1.524 . S
C1295 C1299 1.400 . S
C1296 H1281 0.960 . S
C1296 H1282 0.960 . S
C1296 H1283 0.960 . S
C1296 C1295 1.524 . S
C1297 C1294 1.403 . S
C1297 C1298 1.392 . S
C1297 C1301 1.495 . S
C1298 C1297 1.392 . S
C1298 C1299 1.385 . S
C1298 C1300 1.478 . S
C1299 H1293 0.930 . S
C1299 C1295 1.400 . S
C1299 C1298 1.385 . S
C1300 C1298 1.478 . S
C1300 C1302 1.381 . S
C1300 C1306 1.383 . S
C1301 C1297 1.495 . S
C1301 H1307 0.959 . S
C1301 H1308 0.961 . S
C1301 H1309 0.960 . S
C1302 C1300 1.381 . S
C1302 C1303 1.394 . S
C1302 H1310 0.930 . S
C1303 C1302 1.394 . S
C1303 C1304 1.383 . S
C1303 H1311 0.929 . S
C1304 C1303 1.383 . S
C1304 C1305 1.377 . S
C1305 H1289 0.930 . S
C1305 C1304 1.377 . S
C1305 C1306 1.379 . S
C1306 H1290 0.931 . S
C1306 C1300 1.383 . S
C1306 C1305 1.379 . S
H1307 C1301 0.959 . S
H1308 C1301 0.961 . S
H1309 C1301 0.960 . S
H1310 C1302 0.930 . S
H1311 C1303 0.929 . S
H1312 C1320 0.929 . S
H1313 C1322 0.930 . S
H1314 C1324 0.930 . S
H1315 C1327 0.929 . S
H1316 C1330 0.930 . S
H1317 C1332 0.960 . S
H1318 C1332 0.960 . S
H1319 C1332 0.960 . S
C1320 H1312 0.929 . S
C1320 C1321 1.377 . S
C1320 C1322 1.384 . S
C1321 C1320 1.377 . S
C1321 C1327 1.390 . S
C1322 H1313 0.930 . S
C1322 C1320 1.384 . S
C1322 C1323 1.372 . S
C1323 C1322 1.372 . S
C1323 C1324 1.400 . S
C1323 C1328 1.490 . S
C1324 H1314 0.930 . S
C1324 C1323 1.400 . S
C1324 C1327 1.386 . S
H1325 C1341 0.930 . S
H1326 C1342 0.931 . S
C1327 H1315 0.929 . S
C1327 C1321 1.390 . S
C1327 C1324 1.386 . S
C1328 C1323 1.490 . S
C1328 C1330 1.395 . S
C1328 C1331 1.403 . S
H1329 C1335 0.930 . S
C1330 H1316 0.930 . S
C1330 C1328 1.395 . S
C1330 C1333 1.403 . S
C1331 C1328 1.403 . S
C1331 C1332 1.524 . S
C1331 C1335 1.400 . S
C1332 H1317 0.960 . S
C1332 H1318 0.960 . S
C1332 H1319 0.960 . S
C1332 C1331 1.524 . S
C1333 C1330 1.403 . S
C1333 C1334 1.392 . S
C1333 C1337 1.495 . S
C1334 C1333 1.392 . S
C1334 C1335 1.385 . S
C1334 C1336 1.478 . S
C1335 H1329 0.930 . S
C1335 C1331 1.400 . S
C1335 C1334 1.385 . S
C1336 C1334 1.478 . S
C1336 C1338 1.381 . S
C1336 C1342 1.383 . S
C1337 C1333 1.495 . S
C1337 H1343 0.959 . S
C1337 H1344 0.961 . S
C1337 H1345 0.960 . S
C1338 C1336 1.381 . S
C1338 C1339 1.394 . S
C1338 H1346 0.930 . S
C1339 C1338 1.394 . S
C1339 C1340 1.383 . S
C1339 H1347 0.929 . S
C1340 C1339 1.383 . S
C1340 C1341 1.377 . S
C1341 H1325 0.930 . S
C1341 C1340 1.377 . S
C1341 C1342 1.379 . S
C1342 H1326 0.931 . S
C1342 C1336 1.383 . S
C1342 C1341 1.379 . S
H1343 C1337 0.959 . S
H1344 C1337 0.961 . S
H1345 C1337 0.960 . S
H1346 C1338 0.930 . S
H1347 C1339 0.929 . S
H1348 C1356 0.929 . S
H1349 C1358 0.930 . S
H1350 C1360 0.930 1_455 S
H1351 C1363 0.929 . S
H1352 C1366 0.930 . S
H1353 C1368 0.960 . S
H1354 C1368 0.960 . S
H1355 C1368 0.960 . S
C1356 H1348 0.929 . S
C1356 C1357 1.377 . S
C1356 C1358 1.384 . S
C1357 C1356 1.377 . S
C1357 C1363 1.390 . S
C1358 H1349 0.930 . S
C1358 C1356 1.384 . S
C1358 C1359 1.372 . S
C1359 C1358 1.372 . S
C1359 C1360 1.400 . S
C1359 C1364 1.490 . S
C1360 H1350 0.930 1_655 S
C1360 C1359 1.400 . S
C1360 C1363 1.386 . S
H1361 C1377 0.930 . S
H1362 C1378 0.931 . S
C1363 H1351 0.929 . S
C1363 C1357 1.390 . S
C1363 C1360 1.386 . S
C1364 C1359 1.490 . S
C1364 C1366 1.395 . S
C1364 C1367 1.403 1_655 S
H1365 C1371 0.930 . S
C1366 H1352 0.930 . S
C1366 C1364 1.395 . S
C1366 C1369 1.403 . S
C1367 C1364 1.403 1_455 S
C1367 C1368 1.524 . S
C1367 C1371 1.400 . S
C1368 H1353 0.960 . S
C1368 H1354 0.960 . S
C1368 H1355 0.960 . S
C1368 C1367 1.524 . S
C1369 C1366 1.403 . S
C1369 C1370 1.392 1_655 S
C1369 C1373 1.495 . S
C1370 C1369 1.392 1_455 S
C1370 C1371 1.385 . S
C1370 C1372 1.478 . S
C1371 H1365 0.930 . S
C1371 C1367 1.400 . S
C1371 C1370 1.385 . S
C1372 C1370 1.478 . S
C1372 C1374 1.381 . S
C1372 C1378 1.383 . S
C1373 C1369 1.495 . S
C1373 H1379 0.959 . S
C1373 H1380 0.961 . S
C1373 H1381 0.960 . S
C1374 C1372 1.381 . S
C1374 C1375 1.394 . S
C1374 H1382 0.930 1_455 S
C1375 C1374 1.394 . S
C1375 C1376 1.383 . S
C1375 H1383 0.929 . S
C1376 C1375 1.383 . S
C1376 C1377 1.377 . S
C1377 H1361 0.930 . S
C1377 C1376 1.377 . S
C1377 C1378 1.379 . S
C1378 H1362 0.931 . S
C1378 C1372 1.383 . S
C1378 C1377 1.379 . S
H1379 C1373 0.959 . S
H1380 C1373 0.961 . S
H1381 C1373 0.960 . S
H1382 C1374 0.930 1_655 S
H1383 C1375 0.929 . S
H1384 C1392 0.929 . S
H1385 C1394 0.930 . S
H1386 C1396 0.930 . S
H1387 C1399 0.929 . S
H1388 C1402 0.930 . S
H1389 C1404 0.960 . S
H1390 C1404 0.960 . S
H1391 C1404 0.960 . S
C1392 H1384 0.929 . S
C1392 C1393 1.377 . S
C1392 C1394 1.384 . S
C1393 C1392 1.377 . S
C1393 C1399 1.390 . S
C1394 H1385 0.930 . S
C1394 C1392 1.384 . S
C1394 C1395 1.372 . S
C1395 C1394 1.372 . S
C1395 C1396 1.400 . S
C1395 C1400 1.490 . S
C1396 H1386 0.930 . S
C1396 C1395 1.400 . S
C1396 C1399 1.386 . S
H1397 C1413 0.930 . S
H1398 C1414 0.931 . S
C1399 H1387 0.929 . S
C1399 C1393 1.390 . S
C1399 C1396 1.386 . S
C1400 C1395 1.490 . S
C1400 C1402 1.395 . S
C1400 C1403 1.403 . S
H1401 C1407 0.930 . S
C1402 H1388 0.930 . S
C1402 C1400 1.395 . S
C1402 C1405 1.403 . S
C1403 C1400 1.403 . S
C1403 C1404 1.524 . S
C1403 C1407 1.400 . S
C1404 H1389 0.960 . S
C1404 H1390 0.960 . S
C1404 H1391 0.960 . S
C1404 C1403 1.524 . S
C1405 C1402 1.403 . S
C1405 C1406 1.392 . S
C1405 C1409 1.495 . S
C1406 C1405 1.392 . S
C1406 C1407 1.385 . S
C1406 C1408 1.478 . S
C1407 H1401 0.930 . S
C1407 C1403 1.400 . S
C1407 C1406 1.385 . S
C1408 C1406 1.478 . S
C1408 C1410 1.381 . S
C1408 C1414 1.383 . S
C1409 C1405 1.495 . S
C1409 H1415 0.959 . S
C1409 H1416 0.961 . S
C1409 H1417 0.960 . S
C1410 C1408 1.381 . S
C1410 C1411 1.394 . S
C1410 H1418 0.930 . S
C1411 C1410 1.394 . S
C1411 C1412 1.383 . S
C1411 H1419 0.929 . S
C1412 C1411 1.383 . S
C1412 C1413 1.377 . S
C1413 H1397 0.930 . S
C1413 C1412 1.377 . S
C1413 C1414 1.379 . S
C1414 H1398 0.931 . S
C1414 C1408 1.383 . S
C1414 C1413 1.379 . S
H1415 C1409 0.959 . S
H1416 C1409 0.961 . S
H1417 C1409 0.960 . S
H1418 C1410 0.930 . S
H1419 C1411 0.929 . S
H1420 C1428 0.929 . S
H1421 C1430 0.930 . S
H1422 C1432 0.930 . S
H1423 C1435 0.929 . S
H1424 C1438 0.930 . S
H1425 C1440 0.960 . S
H1426 C1440 0.960 . S
H1427 C1440 0.960 . S
C1428 H1420 0.929 . S
C1428 C1429 1.377 . S
C1428 C1430 1.384 . S
C1429 C1428 1.377 . S
C1429 C1435 1.390 . S
C1430 H1421 0.930 . S
C1430 C1428 1.384 . S
C1430 C1431 1.372 . S
C1431 C1430 1.372 . S
C1431 C1432 1.400 . S
C1431 C1436 1.490 . S
C1432 H1422 0.930 . S
C1432 C1431 1.400 . S
C1432 C1435 1.386 . S
H1433 C1449 0.930 . S
H1434 C1450 0.931 . S
C1435 H1423 0.929 . S
C1435 C1429 1.390 . S
C1435 C1432 1.386 . S
C1436 C1431 1.490 . S
C1436 C1438 1.395 . S
C1436 C1439 1.403 . S
H1437 C1443 0.930 . S
C1438 H1424 0.930 . S
C1438 C1436 1.395 . S
C1438 C1441 1.403 . S
C1439 C1436 1.403 . S
C1439 C1440 1.524 . S
C1439 C1443 1.400 . S
C1440 H1425 0.960 . S
C1440 H1426 0.960 . S
C1440 H1427 0.960 . S
C1440 C1439 1.524 . S
C1441 C1438 1.403 . S
C1441 C1442 1.392 . S
C1441 C1445 1.495 . S
C1442 C1441 1.392 . S
C1442 C1443 1.385 . S
C1442 C1444 1.478 . S
C1443 H1437 0.930 . S
C1443 C1439 1.400 . S
C1443 C1442 1.385 . S
C1444 C1442 1.478 . S
C1444 C1446 1.381 . S
C1444 C1450 1.383 . S
C1445 C1441 1.495 . S
C1445 H1451 0.959 . S
C1445 H1452 0.961 . S
C1445 H1453 0.960 . S
C1446 C1444 1.381 . S
C1446 C1447 1.394 . S
C1446 H1454 0.930 . S
C1447 C1446 1.394 . S
C1447 C1448 1.383 . S
C1447 H1455 0.929 . S
C1448 C1447 1.383 . S
C1448 C1449 1.377 . S
C1449 H1433 0.930 . S
C1449 C1448 1.377 . S
C1449 C1450 1.379 . S
C1450 H1434 0.931 . S
C1450 C1444 1.383 . S
C1450 C1449 1.379 . S
H1451 C1445 0.959 . S
H1452 C1445 0.961 . S
H1453 C1445 0.960 . S
H1454 C1446 0.930 . S
H1455 C1447 0.929 . S
H1456 C1464 0.929 . S
H1457 C1466 0.930 . S
H1458 C1468 0.930 . S
H1459 C1471 0.929 . S
H1460 C1474 0.930 . S
H1461 C1476 0.960 . S
H1462 C1476 0.960 . S
H1463 C1476 0.960 . S
C1464 H1456 0.929 . S
C1464 C1465 1.377 . S
C1464 C1466 1.384 . S
C1465 C1464 1.377 . S
C1465 C1471 1.390 . S
C1466 H1457 0.930 . S
C1466 C1464 1.384 . S
C1466 C1467 1.372 . S
C1467 C1466 1.372 . S
C1467 C1468 1.400 . S
C1467 C1472 1.490 . S
C1468 H1458 0.930 . S
C1468 C1467 1.400 . S
C1468 C1471 1.386 . S
H1469 C1485 0.930 . S
H1470 C1486 0.931 . S
C1471 H1459 0.929 . S
C1471 C1465 1.390 . S
C1471 C1468 1.386 . S
C1472 C1467 1.490 . S
C1472 C1474 1.395 . S
C1472 C1475 1.403 . S
H1473 C1479 0.930 . S
C1474 H1460 0.930 . S
C1474 C1472 1.395 . S
C1474 C1477 1.403 . S
C1475 C1472 1.403 . S
C1475 C1476 1.524 . S
C1475 C1479 1.400 . S
C1476 H1461 0.960 . S
C1476 H1462 0.960 . S
C1476 H1463 0.960 . S
C1476 C1475 1.524 . S
C1477 C1474 1.403 . S
C1477 C1478 1.392 . S
C1477 C1481 1.495 . S
C1478 C1477 1.392 . S
C1478 C1479 1.385 . S
C1478 C1480 1.478 . S
C1479 H1473 0.930 . S
C1479 C1475 1.400 . S
C1479 C1478 1.385 . S
C1480 C1478 1.478 . S
C1480 C1482 1.381 . S
C1480 C1486 1.383 . S
C1481 C1477 1.495 . S
C1481 H1487 0.959 . S
C1481 H1488 0.961 . S
C1481 H1489 0.960 . S
C1482 C1480 1.381 . S
C1482 C1483 1.394 . S
C1482 H1490 0.930 . S
C1483 C1482 1.394 . S
C1483 C1484 1.383 . S
C1483 H1491 0.929 . S
C1484 C1483 1.383 . S
C1484 C1485 1.377 . S
C1485 H1469 0.930 . S
C1485 C1484 1.377 . S
C1485 C1486 1.379 . S
C1486 H1470 0.931 . S
C1486 C1480 1.383 . S
C1486 C1485 1.379 . S
H1487 C1481 0.959 . S
H1488 C1481 0.961 . S
H1489 C1481 0.960 . S
H1490 C1482 0.930 . S
H1491 C1483 0.929 . S
H1492 C1500 0.929 . S
H1493 C1502 0.930 . S
H1494 C1504 0.930 . S
H1495 C1507 0.929 . S
H1496 C1510 0.930 . S
H1497 C1512 0.960 . S
H1498 C1512 0.960 . S
H1499 C1512 0.960 . S
C1500 H1492 0.929 . S
C1500 C1501 1.377 . S
C1500 C1502 1.384 . S
C1501 C1500 1.377 . S
C1501 C1507 1.390 . S
C1502 H1493 0.930 . S
C1502 C1500 1.384 . S
C1502 C1503 1.372 . S
C1503 C1502 1.372 . S
C1503 C1504 1.400 . S
C1503 C1508 1.490 . S
C1504 H1494 0.930 . S
C1504 C1503 1.400 . S
C1504 C1507 1.386 . S
H1505 C1521 0.930 . S
H1506 C1522 0.931 . S
C1507 H1495 0.929 . S
C1507 C1501 1.390 . S
C1507 C1504 1.386 . S
C1508 C1503 1.490 . S
C1508 C1510 1.395 . S
C1508 C1511 1.403 . S
H1509 C1515 0.930 . S
C1510 H1496 0.930 . S
C1510 C1508 1.395 . S
C1510 C1513 1.403 1_545 S
C1511 C1508 1.403 . S
C1511 C1512 1.524 . S
C1511 C1515 1.400 1_545 S
C1512 H1497 0.960 . S
C1512 H1498 0.960 . S
C1512 H1499 0.960 . S
C1512 C1511 1.524 . S
C1513 C1510 1.403 1_565 S
C1513 C1514 1.392 . S
C1513 C1517 1.495 . S
C1514 C1513 1.392 . S
C1514 C1515 1.385 . S
C1514 C1516 1.478 . S
C1515 H1509 0.930 . S
C1515 C1511 1.400 1_565 S
C1515 C1514 1.385 . S
C1516 C1514 1.478 . S
C1516 C1518 1.381 . S
C1516 C1522 1.383 . S
C1517 C1513 1.495 . S
C1517 H1523 0.959 . S
C1517 H1524 0.961 . S
C1517 H1525 0.960 . S
C1518 C1516 1.381 . S
C1518 C1519 1.394 . S
C1518 H1526 0.930 . S
C1519 C1518 1.394 . S
C1519 C1520 1.383 . S
C1519 H1527 0.929 . S
C1520 C1519 1.383 . S
C1520 C1521 1.377 . S
C1521 H1505 0.930 . S
C1521 C1520 1.377 . S
C1521 C1522 1.379 . S
C1522 H1506 0.931 . S
C1522 C1516 1.383 . S
C1522 C1521 1.379 . S
H1523 C1517 0.959 . S
H1524 C1517 0.961 . S
H1525 C1517 0.960 . S
H1526 C1518 0.930 . S
H1527 C1519 0.929 . S
H1528 C1536 0.929 . S
H1529 C1538 0.930 . S
H1530 C1540 0.930 . S
H1531 C1543 0.929 . S
H1532 C1546 0.930 . S
H1533 C1548 0.960 . S
H1534 C1548 0.960 . S
H1535 C1548 0.960 . S
C1536 H1528 0.929 . S
C1536 C1537 1.377 . S
C1536 C1538 1.384 . S
C1537 C1536 1.377 . S
C1537 C1543 1.390 . S
C1538 H1529 0.930 . S
C1538 C1536 1.384 . S
C1538 C1539 1.372 . S
C1539 C1538 1.372 . S
C1539 C1540 1.400 . S
C1539 C1544 1.490 . S
C1540 H1530 0.930 . S
C1540 C1539 1.400 . S
C1540 C1543 1.386 . S
H1541 C1557 0.930 . S
H1542 C1558 0.931 . S
C1543 H1531 0.929 . S
C1543 C1537 1.390 . S
C1543 C1540 1.386 . S
C1544 C1539 1.490 . S
C1544 C1546 1.395 . S
C1544 C1547 1.403 . S
H1545 C1551 0.930 . S
C1546 H1532 0.930 . S
C1546 C1544 1.395 . S
C1546 C1549 1.403 . S
C1547 C1544 1.403 . S
C1547 C1548 1.524 . S
C1547 C1551 1.400 . S
C1548 H1533 0.960 . S
C1548 H1534 0.960 . S
C1548 H1535 0.960 . S
C1548 C1547 1.524 . S
C1549 C1546 1.403 . S
C1549 C1550 1.392 . S
C1549 C1553 1.495 . S
C1550 C1549 1.392 . S
C1550 C1551 1.385 . S
C1550 C1552 1.478 . S
C1551 H1545 0.930 . S
C1551 C1547 1.400 . S
C1551 C1550 1.385 . S
C1552 C1550 1.478 . S
C1552 C1554 1.381 . S
C1552 C1558 1.383 . S
C1553 C1549 1.495 . S
C1553 H1559 0.959 . S
C1553 H1560 0.961 . S
C1553 H1561 0.960 . S
C1554 C1552 1.381 . S
C1554 C1555 1.394 . S
C1554 H1562 0.930 . S
C1555 C1554 1.394 . S
C1555 C1556 1.383 . S
C1555 H1563 0.929 . S
C1556 C1555 1.383 . S
C1556 C1557 1.377 . S
C1557 H1541 0.930 . S
C1557 C1556 1.377 . S
C1557 C1558 1.379 . S
C1558 H1542 0.931 . S
C1558 C1552 1.383 . S
C1558 C1557 1.379 . S
H1559 C1553 0.959 . S
H1560 C1553 0.961 . S
H1561 C1553 0.960 . S
H1562 C1554 0.930 . S
H1563 C1555 0.929 . S
H1564 C1572 0.929 . S
H1565 C1574 0.930 . S
H1566 C1576 0.930 . S
H1567 C1579 0.929 . S
H1568 C1582 0.930 . S
H1569 C1584 0.960 . S
H1570 C1584 0.960 . S
H1571 C1584 0.960 . S
C1572 H1564 0.929 . S
C1572 C1573 1.377 . S
C1572 C1574 1.384 . S
C1573 C1572 1.377 . S
C1573 C1579 1.390 1_554 S
C1574 H1565 0.930 . S
C1574 C1572 1.384 . S
C1574 C1575 1.372 . S
C1575 C1574 1.372 . S
C1575 C1576 1.400 1_554 S
C1575 C1580 1.490 . S
C1576 H1566 0.930 . S
C1576 C1575 1.400 1_556 S
C1576 C1579 1.386 . S
H1577 C1593 0.930 . S
H1578 C1594 0.931 . S
C1579 H1567 0.929 . S
C1579 C1573 1.390 1_556 S
C1579 C1576 1.386 . S
C1580 C1575 1.490 . S
C1580 C1582 1.395 . S
C1580 C1583 1.403 1_554 S
H1581 C1587 0.930 . S
C1582 H1568 0.930 . S
C1582 C1580 1.395 . S
C1582 C1585 1.403 . S
C1583 C1580 1.403 1_556 S
C1583 C1584 1.524 . S
C1583 C1587 1.400 . S
C1584 H1569 0.960 . S
C1584 H1570 0.960 . S
C1584 H1571 0.960 . S
C1584 C1583 1.524 . S
C1585 C1582 1.403 . S
C1585 C1586 1.392 . S
C1585 C1589 1.495 . S
C1586 C1585 1.392 . S
C1586 C1587 1.385 1_554 S
C1586 C1588 1.478 1_554 S
C1587 H1581 0.930 . S
C1587 C1583 1.400 . S
C1587 C1586 1.385 1_556 S
C1588 C1586 1.478 1_556 S
C1588 C1590 1.381 1_556 S
C1588 C1594 1.383 . S
C1589 C1585 1.495 . S
C1589 H1595 0.959 . S
C1589 H1596 0.961 . S
C1589 H1597 0.960 . S
C1590 C1588 1.381 1_554 S
C1590 C1591 1.394 . S
C1590 H1598 0.930 . S
C1591 C1590 1.394 . S
C1591 C1592 1.383 1_554 S
C1591 H1599 0.929 . S
C1592 C1591 1.383 1_556 S
C1592 C1593 1.377 . S
C1593 H1577 0.930 . S
C1593 C1592 1.377 . S
C1593 C1594 1.379 . S
C1594 H1578 0.931 . S
C1594 C1588 1.383 . S
C1594 C1593 1.379 . S
H1595 C1589 0.959 . S
H1596 C1589 0.961 . S
H1597 C1589 0.960 . S
H1598 C1590 0.930 . S
H1599 C1591 0.929 . S
H1600 C1608 0.929 . S
H1601 C1610 0.930 . S
H1602 C1612 0.930 . S
H1603 C1615 0.929 . S
H1604 C1618 0.930 . S
H1605 C1620 0.960 . S
H1606 C1620 0.960 . S
H1607 C1620 0.960 . S
C1608 H1600 0.929 . S
C1608 C1609 1.377 . S
C1608 C1610 1.384 . S
C1609 C1608 1.377 . S
C1609 C1615 1.390 . S
C1610 H1601 0.930 . S
C1610 C1608 1.384 . S
C1610 C1611 1.372 . S
C1611 C1610 1.372 . S
C1611 C1612 1.400 . S
C1611 C1616 1.490 . S
C1612 H1602 0.930 . S
C1612 C1611 1.400 . S
C1612 C1615 1.386 . S
H1613 C1629 0.930 . S
H1614 C1630 0.931 . S
C1615 H1603 0.929 . S
C1615 C1609 1.390 . S
C1615 C1612 1.386 . S
C1616 C1611 1.490 . S
C1616 C1618 1.395 . S
C1616 C1619 1.403 . S
H1617 C1623 0.930 . S
C1618 H1604 0.930 . S
C1618 C1616 1.395 . S
C1618 C1621 1.403 . S
C1619 C1616 1.403 . S
C1619 C1620 1.524 . S
C1619 C1623 1.400 . S
C1620 H1605 0.960 . S
C1620 H1606 0.960 . S
C1620 H1607 0.960 . S
C1620 C1619 1.524 . S
C1621 C1618 1.403 . S
C1621 C1622 1.392 . S
C1621 C1625 1.495 . S
C1622 C1621 1.392 . S
C1622 C1623 1.385 . S
C1622 C1624 1.478 . S
C1623 H1617 0.930 . S
C1623 C1619 1.400 . S
C1623 C1622 1.385 . S
C1624 C1622 1.478 . S
C1624 C1626 1.381 . S
C1624 C1630 1.383 . S
C1625 C1621 1.495 . S
C1625 H1631 0.959 1_455 S
C1625 H1632 0.961 . S
C1625 H1633 0.960 . S
C1626 C1624 1.381 . S
C1626 C1627 1.394 . S
C1626 H1634 0.930 . S
C1627 C1626 1.394 . S
C1627 C1628 1.383 . S
C1627 H1635 0.929 . S
C1628 C1627 1.383 . S
C1628 C1629 1.377 . S
C1629 H1613 0.930 . S
C1629 C1628 1.377 . S
C1629 C1630 1.379 . S
C1630 H1614 0.931 . S
C1630 C1624 1.383 . S
C1630 C1629 1.379 . S
H1631 C1625 0.959 1_655 S
H1632 C1625 0.961 . S
H1633 C1625 0.960 . S
H1634 C1626 0.930 . S
H1635 C1627 0.929 . S
H1636 C1644 0.929 . S
H1637 C1646 0.930 . S
H1638 C1648 0.930 1_554 S
H1639 C1651 0.898 1_554 S
H1640 C1654 0.931 . S
H1641 C1656 0.960 . S
H1642 C1656 0.960 . S
H1643 C1656 0.960 . S
C1644 H1636 0.929 . S
C1644 C1645 1.377 . S
C1644 C1646 1.384 . S
C1645 C1644 1.377 . S
C1645 C1651 1.423 . S
C1646 H1637 0.930 . S
C1646 C1644 1.384 . S
C1646 C1647 1.372 . S
C1647 C1646 1.372 . S
C1647 C1648 1.400 . S
C1647 C1652 1.490 . S
C1648 H1638 0.930 1_556 S
C1648 C1647 1.400 . S
C1648 C1651 1.388 . S
H1649 C1665 0.930 . S
H1650 C1666 0.931 . S
C1651 H1639 0.898 1_556 S
C1651 C1645 1.423 . S
C1651 C1648 1.388 . S
C1652 C1647 1.490 . S
C1652 C1654 1.395 . S
C1652 C1655 1.403 . S
H1653 C1659 0.930 . S
C1654 H1640 0.931 . S
C1654 C1652 1.395 . S
C1654 C1657 1.403 . S
C1655 C1652 1.403 . S
C1655 C1656 1.524 . S
C1655 C1659 1.400 . S
C1656 H1641 0.960 . S
C1656 H1642 0.960 . S
C1656 H1643 0.960 . S
C1656 C1655 1.524 . S
C1657 C1654 1.403 . S
C1657 C1658 1.392 . S
C1657 C1661 1.495 1_556 S
C1658 C1657 1.392 . S
C1658 C1659 1.385 . S
C1658 C1660 1.478 . S
C1659 H1653 0.930 . S
C1659 C1655 1.400 . S
C1659 C1658 1.385 . S
C1660 C1658 1.478 . S
C1660 C1662 1.381 . S
C1660 C1666 1.383 1_556 S
C1661 C1657 1.495 1_554 S
C1661 H1667 0.959 . S
C1661 H1668 0.961 . S
C1661 H1669 0.960 1_554 S
C1662 C1660 1.381 . S
C1662 C1663 1.394 . S
C1662 H1670 0.930 . S
C1663 C1662 1.394 . S
C1663 C1664 1.383 . S
C1663 H1671 0.929 . S
C1664 C1663 1.383 . S
C1664 C1665 1.377 1_556 S
C1665 H1649 0.930 . S
C1665 C1664 1.377 1_554 S
C1665 C1666 1.379 . S
C1666 H1650 0.931 . S
C1666 C1660 1.383 1_554 S
C1666 C1665 1.379 . S
H1667 C1661 0.959 . S
H1668 C1661 0.961 . S
H1669 C1661 0.960 1_556 S
H1670 C1662 0.930 . S
H1671 C1663 0.929 . S
H1672 C1680 0.929 . S
H1673 C1682 0.930 . S
H1674 C1684 0.930 . S
H1675 C1687 0.929 . S
H1676 C1690 0.930 . S
H1677 C1692 0.960 . S
H1678 C1692 0.960 . S
H1679 C1692 0.960 . S
C1680 H1672 0.929 . S
C1680 C1681 1.377 . S
C1680 C1682 1.384 . S
C1681 C1680 1.377 . S
C1681 C1687 1.390 . S
C1682 H1673 0.930 . S
C1682 C1680 1.384 . S
C1682 C1683 1.372 . S
C1683 C1682 1.372 . S
C1683 C1684 1.400 . S
C1683 C1688 1.490 . S
C1684 H1674 0.930 . S
C1684 C1683 1.400 . S
C1684 C1687 1.386 . S
H1685 C1701 0.930 . S
H1686 C1702 0.931 . S
C1687 H1675 0.929 . S
C1687 C1681 1.390 . S
C1687 C1684 1.386 . S
C1688 C1683 1.490 . S
C1688 C1690 1.395 . S
C1688 C1691 1.403 . S
H1689 C1695 0.930 . S
C1690 H1676 0.930 . S
C1690 C1688 1.395 . S
C1690 C1693 1.403 . S
C1691 C1688 1.403 . S
C1691 C1692 1.524 . S
C1691 C1695 1.400 . S
C1692 H1677 0.960 . S
C1692 H1678 0.960 . S
C1692 H1679 0.960 . S
C1692 C1691 1.524 . S
C1693 C1690 1.403 . S
C1693 C1694 1.392 . S
C1693 C1697 1.495 . S
C1694 C1693 1.392 . S
C1694 C1695 1.385 . S
C1694 C1696 1.478 . S
C1695 H1689 0.930 . S
C1695 C1691 1.400 . S
C1695 C1694 1.385 . S
C1696 C1694 1.478 . S
C1696 C1698 1.381 . S
C1696 C1702 1.383 . S
C1697 C1693 1.495 . S
C1697 H1703 0.959 1_655 S
C1697 H1704 0.961 . S
C1697 H1705 0.960 . S
C1698 C1696 1.381 . S
C1698 C1699 1.394 . S
C1698 H1706 0.930 . S
C1699 C1698 1.394 . S
C1699 C1700 1.383 . S
C1699 H1707 0.929 . S
C1700 C1699 1.383 . S
C1700 C1701 1.377 . S
C1701 H1685 0.930 . S
C1701 C1700 1.377 . S
C1701 C1702 1.379 . S
C1702 H1686 0.931 . S
C1702 C1696 1.383 . S
C1702 C1701 1.379 . S
H1703 C1697 0.959 1_455 S
H1704 C1697 0.961 . S
H1705 C1697 0.960 . S
H1706 C1698 0.930 . S
H1707 C1699 0.929 . S
H1708 C1716 0.929 . S
H1709 C1718 0.930 . S
H1710 C1720 0.930 . S
H1711 C1723 0.929 . S
H1712 C1726 0.930 . S
H1713 C1728 0.960 . S
H1714 C1728 0.960 . S
H1715 C1728 0.960 . S
C1716 H1708 0.929 . S
C1716 C1717 1.377 . S
C1716 C1718 1.384 . S
C1717 C1716 1.377 . S
C1717 C1723 1.390 . S
C1718 H1709 0.930 . S
C1718 C1716 1.384 . S
C1718 C1719 1.372 . S
C1719 C1718 1.372 . S
C1719 C1720 1.400 . S
C1719 C1724 1.490 . S
C1720 H1710 0.930 . S
C1720 C1719 1.400 . S
C1720 C1723 1.386 . S
H1721 C1737 0.930 . S
H1722 C1738 0.931 . S
C1723 H1711 0.929 . S
C1723 C1717 1.390 . S
C1723 C1720 1.386 . S
C1724 C1719 1.490 . S
C1724 C1726 1.395 1_554 S
C1724 C1727 1.403 . S
H1725 C1731 0.930 . S
C1726 H1712 0.930 . S
C1726 C1724 1.395 1_556 S
C1726 C1729 1.403 . S
C1727 C1724 1.403 . S
C1727 C1728 1.524 . S
C1727 C1731 1.400 . S
C1728 H1713 0.960 . S
C1728 H1714 0.960 . S
C1728 H1715 0.960 . S
C1728 C1727 1.524 . S
C1729 C1726 1.403 . S
C1729 C1730 1.392 1_556 S
C1729 C1733 1.495 . S
C1730 C1729 1.392 1_554 S
C1730 C1731 1.385 . S
C1730 C1732 1.478 . S
C1731 H1725 0.930 . S
C1731 C1727 1.400 . S
C1731 C1730 1.385 . S
C1732 C1730 1.478 . S
C1732 C1734 1.381 . S
C1732 C1738 1.383 . S
C1733 C1729 1.495 . S
C1733 H1739 0.959 . S
C1733 H1740 0.961 . S
C1733 H1741 0.960 . S
C1734 C1732 1.381 . S
C1734 C1735 1.394 . S
C1734 H1742 0.930 . S
C1735 C1734 1.394 . S
C1735 C1736 1.383 . S
C1735 H1743 0.929 . S
C1736 C1735 1.383 . S
C1736 C1737 1.377 . S
C1737 H1721 0.930 . S
C1737 C1736 1.377 . S
C1737 C1738 1.379 . S
C1738 H1722 0.931 . S
C1738 C1732 1.383 . S
C1738 C1737 1.379 . S
H1739 C1733 0.959 . S
H1740 C1733 0.961 . S
H1741 C1733 0.960 . S
H1742 C1734 0.930 . S
H1743 C1735 0.929 . S
H1744 C1752 0.929 . S
H1745 C1754 0.930 . S
H1746 C1756 0.930 . S
H1747 C1759 0.929 . S
H1748 C1762 0.930 . S
H1749 C1764 0.960 . S
H1750 C1764 0.960 . S
H1751 C1764 0.960 . S
C1752 H1744 0.929 . S
C1752 C1753 1.377 . S
C1752 C1754 1.384 . S
C1753 C1752 1.377 . S
C1753 C1759 1.390 . S
C1754 H1745 0.930 . S
C1754 C1752 1.384 . S
C1754 C1755 1.372 . S
C1755 C1754 1.372 . S
C1755 C1756 1.400 . S
C1755 C1760 1.490 . S
C1756 H1746 0.930 . S
C1756 C1755 1.400 . S
C1756 C1759 1.386 . S
H1757 C1773 0.930 . S
H1758 C1774 0.931 . S
C1759 H1747 0.929 . S
C1759 C1753 1.390 . S
C1759 C1756 1.386 . S
C1760 C1755 1.490 . S
C1760 C1762 1.395 . S
C1760 C1763 1.403 . S
H1761 C1767 0.930 . S
C1762 H1748 0.930 . S
C1762 C1760 1.395 . S
C1762 C1765 1.403 . S
C1763 C1760 1.403 . S
C1763 C1764 1.524 . S
C1763 C1767 1.400 . S
C1764 H1749 0.960 . S
C1764 H1750 0.960 . S
C1764 H1751 0.960 . S
C1764 C1763 1.524 . S
C1765 C1762 1.403 . S
C1765 C1766 1.392 . S
C1765 C1769 1.495 . S
C1766 C1765 1.392 . S
C1766 C1767 1.385 . S
C1766 C1768 1.478 . S
C1767 H1761 0.930 . S
C1767 C1763 1.400 . S
C1767 C1766 1.385 . S
C1768 C1766 1.478 . S
C1768 C1770 1.381 . S
C1768 C1774 1.383 . S
C1769 C1765 1.495 . S
C1769 H1775 0.959 . S
C1769 H1776 0.961 . S
C1769 H1777 0.960 . S
C1770 C1768 1.381 . S
C1770 C1771 1.394 . S
C1770 H1778 0.930 . S
C1771 C1770 1.394 . S
C1771 C1772 1.383 . S
C1771 H1779 0.929 . S
C1772 C1771 1.383 . S
C1772 C1773 1.377 . S
C1773 H1757 0.930 . S
C1773 C1772 1.377 . S
C1773 C1774 1.379 . S
C1774 H1758 0.931 . S
C1774 C1768 1.383 . S
C1774 C1773 1.379 . S
H1775 C1769 0.959 . S
H1776 C1769 0.961 . S
H1777 C1769 0.960 . S
H1778 C1770 0.930 . S
H1779 C1771 0.929 . S
H1780 C1788 0.929 . S
H1781 C1790 0.930 . S
H1782 C1792 0.930 . S
H1783 C1795 0.929 . S
H1784 C1798 0.930 . S
H1785 C1800 0.960 . S
H1786 C1800 0.960 . S
H1787 C1800 0.960 . S
C1788 H1780 0.929 . S
C1788 C1789 1.377 . S
C1788 C1790 1.384 . S
C1789 C1788 1.377 . S
C1789 C1795 1.390 . S
C1790 H1781 0.930 . S
C1790 C1788 1.384 . S
C1790 C1791 1.372 . S
C1791 C1790 1.372 . S
C1791 C1792 1.400 . S
C1791 C1796 1.490 . S
C1792 H1782 0.930 . S
C1792 C1791 1.400 . S
C1792 C1795 1.386 . S
H1793 C1809 0.930 . S
H1794 C1810 0.931 . S
C1795 H1783 0.929 . S
C1795 C1789 1.390 . S
C1795 C1792 1.386 . S
C1796 C1791 1.490 . S
C1796 C1798 1.395 . S
C1796 C1799 1.403 . S
H1797 C1803 0.930 . S
C1798 H1784 0.930 . S
C1798 C1796 1.395 . S
C1798 C1801 1.403 . S
C1799 C1796 1.403 . S
C1799 C1800 1.524 . S
C1799 C1803 1.400 . S
C1800 H1785 0.960 . S
C1800 H1786 0.960 . S
C1800 H1787 0.960 . S
C1800 C1799 1.524 . S
C1801 C1798 1.403 . S
C1801 C1802 1.392 . S
C1801 C1805 1.495 . S
C1802 C1801 1.392 . S
C1802 C1803 1.385 . S
C1802 C1804 1.478 . S
C1803 H1797 0.930 . S
C1803 C1799 1.400 . S
C1803 C1802 1.385 . S
C1804 C1802 1.478 . S
C1804 C1806 1.381 . S
C1804 C1810 1.383 . S
C1805 C1801 1.495 . S
C1805 H1811 0.959 . S
C1805 H1812 0.961 . S
C1805 H1813 0.960 . S
C1806 C1804 1.381 . S
C1806 C1807 1.394 . S
C1806 H1814 0.930 . S
C1807 C1806 1.394 . S
C1807 C1808 1.383 . S
C1807 H1815 0.929 . S
C1808 C1807 1.383 . S
C1808 C1809 1.377 . S
C1809 H1793 0.930 . S
C1809 C1808 1.377 . S
C1809 C1810 1.379 . S
C1810 H1794 0.931 . S
C1810 C1804 1.383 . S
C1810 C1809 1.379 . S
H1811 C1805 0.959 . S
H1812 C1805 0.961 . S
H1813 C1805 0.960 . S
H1814 C1806 0.930 . S
H1815 C1807 0.929 . S
H1816 C1824 0.929 . S
H1817 C1826 0.930 . S
H1818 C1828 0.930 . S
H1819 C1831 0.929 . S
H1820 C1834 0.930 . S
H1821 C1836 0.960 . S
H1822 C1836 0.960 . S
H1823 C1836 0.960 . S
C1824 H1816 0.929 . S
C1824 C1825 1.377 . S
C1824 C1826 1.384 . S
C1825 C1824 1.377 . S
C1825 C1831 1.390 . S
C1826 H1817 0.930 . S
C1826 C1824 1.384 . S
C1826 C1827 1.372 . S
C1827 C1826 1.372 . S
C1827 C1828 1.400 . S
C1827 C1832 1.490 . S
C1828 H1818 0.930 . S
C1828 C1827 1.400 . S
C1828 C1831 1.386 . S
H1829 C1845 0.930 . S
H1830 C1846 0.931 . S
C1831 H1819 0.929 . S
C1831 C1825 1.390 . S
C1831 C1828 1.386 . S
C1832 C1827 1.490 . S
C1832 C1834 1.395 . S
C1832 C1835 1.403 . S
H1833 C1839 0.930 . S
C1834 H1820 0.930 . S
C1834 C1832 1.395 . S
C1834 C1837 1.403 . S
C1835 C1832 1.403 . S
C1835 C1836 1.524 . S
C1835 C1839 1.400 . S
C1836 H1821 0.960 . S
C1836 H1822 0.960 . S
C1836 H1823 0.960 . S
C1836 C1835 1.524 . S
C1837 C1834 1.403 . S
C1837 C1838 1.392 . S
C1837 C1841 1.495 . S
C1838 C1837 1.392 . S
C1838 C1839 1.385 . S
C1838 C1840 1.478 . S
C1839 H1833 0.930 . S
C1839 C1835 1.400 . S
C1839 C1838 1.385 . S
C1840 C1838 1.478 . S
C1840 C1842 1.381 . S
C1840 C1846 1.383 . S
C1841 C1837 1.495 . S
C1841 H1847 0.950 1_655 S
C1841 H1848 0.961 . S
C1841 H1849 0.960 . S
C1842 C1840 1.381 . S
C1842 C1843 1.394 . S
C1842 H1850 0.930 . S
C1843 C1842 1.394 . S
C1843 C1844 1.383 . S
C1843 H1851 0.929 . S
C1844 C1843 1.383 . S
C1844 C1845 1.377 . S
C1845 H1829 0.930 . S
C1845 C1844 1.377 . S
C1845 C1846 1.379 . S
C1846 H1830 0.931 . S
C1846 C1840 1.383 . S
C1846 C1845 1.379 . S
H1847 C1841 0.950 1_455 S
H1848 C1841 0.961 . S
H1849 C1841 0.960 . S
H1850 C1842 0.930 . S
H1851 C1843 0.929 . S
H1852 C1860 0.929 . S
H1853 C1862 0.930 . S
H1854 C1864 0.930 . S
H1855 C1867 0.929 . S
H1856 C1870 0.930 . S
H1857 C1872 0.960 . S
H1858 C1872 0.960 . S
H1859 C1872 0.960 . S
C1860 H1852 0.929 . S
C1860 C1861 1.377 . S
C1860 C1862 1.384 . S
C1861 C1860 1.377 . S
C1861 C1867 1.390 . S
C1862 H1853 0.930 . S
C1862 C1860 1.384 . S
C1862 C1863 1.372 . S
C1863 C1862 1.372 . S
C1863 C1864 1.400 . S
C1863 C1868 1.490 . S
C1864 H1854 0.930 . S
C1864 C1863 1.400 . S
C1864 C1867 1.386 . S
H1865 C1881 0.930 . S
H1866 C1882 0.931 . S
C1867 H1855 0.929 . S
C1867 C1861 1.390 . S
C1867 C1864 1.386 . S
C1868 C1863 1.490 . S
C1868 C1870 1.395 . S
C1868 C1871 1.403 . S
H1869 C1875 0.930 . S
C1870 H1856 0.930 . S
C1870 C1868 1.395 . S
C1870 C1873 1.403 . S
C1871 C1868 1.403 . S
C1871 C1872 1.524 . S
C1871 C1875 1.400 . S
C1872 H1857 0.960 . S
C1872 H1858 0.960 . S
C1872 H1859 0.960 . S
C1872 C1871 1.524 . S
C1873 C1870 1.403 . S
C1873 C1874 1.392 . S
C1873 C1877 1.495 . S
C1874 C1873 1.392 . S
C1874 C1875 1.385 . S
C1874 C1876 1.478 . S
C1875 H1869 0.930 . S
C1875 C1871 1.400 . S
C1875 C1874 1.385 . S
C1876 C1874 1.478 . S
C1876 C1878 1.381 . S
C1876 C1882 1.383 . S
C1877 C1873 1.495 . S
C1877 H1883 0.959 . S
C1877 H1884 0.961 . S
C1877 H1885 0.960 . S
C1878 C1876 1.381 . S
C1878 C1879 1.394 . S
C1878 H1886 0.930 . S
C1879 C1878 1.394 . S
C1879 C1880 1.383 . S
C1879 H1887 0.929 . S
C1880 C1879 1.383 . S
C1880 C1881 1.377 . S
C1881 H1865 0.930 . S
C1881 C1880 1.377 . S
C1881 C1882 1.379 . S
C1882 H1866 0.931 . S
C1882 C1876 1.383 . S
C1882 C1881 1.379 . S
H1883 C1877 0.959 . S
H1884 C1877 0.961 . S
H1885 C1877 0.960 . S
H1886 C1878 0.930 . S
H1887 C1879 0.929 . S
H1888 C1896 0.929 . S
H1889 C1898 0.930 . S
H1890 C1900 0.930 . S
H1891 C1903 0.929 . S
H1892 C1906 0.930 . S
H1893 C1908 0.960 . S
H1894 C1908 0.960 . S
H1895 C1908 0.960 . S
C1896 H1888 0.929 . S
C1896 C1897 1.377 . S
C1896 C1898 1.384 . S
C1897 C1896 1.377 . S
C1897 C1903 1.390 . S
C1898 H1889 0.930 . S
C1898 C1896 1.384 . S
C1898 C1899 1.372 . S
C1899 C1898 1.372 . S
C1899 C1900 1.400 . S
C1899 C1904 1.490 . S
C1900 H1890 0.930 . S
C1900 C1899 1.400 . S
C1900 C1903 1.386 . S
H1901 C1917 0.930 . S
H1902 C1918 0.931 . S
C1903 H1891 0.929 . S
C1903 C1897 1.390 . S
C1903 C1900 1.386 . S
C1904 C1899 1.490 . S
C1904 C1906 1.395 . S
C1904 C1907 1.403 . S
H1905 C1911 0.930 . S
C1906 H1892 0.930 . S
C1906 C1904 1.395 . S
C1906 C1909 1.403 . S
C1907 C1904 1.403 . S
C1907 C1908 1.524 . S
C1907 C1911 1.400 . S
C1908 H1893 0.960 . S
C1908 H1894 0.960 . S
C1908 H1895 0.960 . S
C1908 C1907 1.524 . S
C1909 C1906 1.403 . S
C1909 C1910 1.392 . S
C1909 C1913 1.495 . S
C1910 C1909 1.392 . S
C1910 C1911 1.385 . S
C1910 C1912 1.478 . S
C1911 H1905 0.930 . S
C1911 C1907 1.400 . S
C1911 C1910 1.385 . S
C1912 C1910 1.478 . S
C1912 C1914 1.381 . S
C1912 C1918 1.383 . S
C1913 C1909 1.495 . S
C1913 H1919 0.959 . S
C1913 H1920 0.961 . S
C1913 H1921 0.960 . S
C1914 C1912 1.381 . S
C1914 C1915 1.394 . S
C1914 H1922 0.930 . S
C1915 C1914 1.394 . S
C1915 C1916 1.383 . S
C1915 H1923 0.929 . S
C1916 C1915 1.383 . S
C1916 C1917 1.377 . S
C1917 H1901 0.930 . S
C1917 C1916 1.377 . S
C1917 C1918 1.379 . S
C1918 H1902 0.931 . S
C1918 C1912 1.383 . S
C1918 C1917 1.379 . S
H1919 C1913 0.959 . S
H1920 C1913 0.961 . S
H1921 C1913 0.960 . S
H1922 C1914 0.930 . S
H1923 C1915 0.929 . S
H1924 C1932 0.929 . S
H1925 C1934 0.930 . S
H1926 C1936 0.930 . S
H1927 C1939 0.929 . S
H1928 C1942 0.930 . S
H1929 C1944 0.960 . S
H1930 C1944 0.960 . S
H1931 C1944 0.960 . S
C1932 H1924 0.929 . S
C1932 C1933 1.377 . S
C1932 C1934 1.384 . S
C1933 C1932 1.377 . S
C1933 C1939 1.390 . S
C1934 H1925 0.930 . S
C1934 C1932 1.384 . S
C1934 C1935 1.372 . S
C1935 C1934 1.372 . S
C1935 C1936 1.400 . S
C1935 C1940 1.490 . S
C1936 H1926 0.930 . S
C1936 C1935 1.400 . S
C1936 C1939 1.386 . S
H1937 C1953 0.930 . S
H1938 C1954 0.931 . S
C1939 H1927 0.929 . S
C1939 C1933 1.390 . S
C1939 C1936 1.386 . S
C1940 C1935 1.490 . S
C1940 C1942 1.395 . S
C1940 C1943 1.403 . S
H1941 C1947 0.930 . S
C1942 H1928 0.930 . S
C1942 C1940 1.395 . S
C1942 C1945 1.403 . S
C1943 C1940 1.403 . S
C1943 C1944 1.524 . S
C1943 C1947 1.400 . S
C1944 H1929 0.960 . S
C1944 H1930 0.960 . S
C1944 H1931 0.960 . S
C1944 C1943 1.524 . S
C1945 C1942 1.403 . S
C1945 C1946 1.392 . S
C1945 C1949 1.495 . S
C1946 C1945 1.392 . S
C1946 C1947 1.385 . S
C1946 C1948 1.478 . S
C1947 H1941 0.930 . S
C1947 C1943 1.400 . S
C1947 C1946 1.385 . S
C1948 C1946 1.478 . S
C1948 C1950 1.381 . S
C1948 C1954 1.383 . S
C1949 C1945 1.495 . S
C1949 H1955 0.959 . S
C1949 H1956 0.961 . S
C1949 H1957 0.960 . S
C1950 C1948 1.381 . S
C1950 C1951 1.394 . S
C1950 H1958 0.930 . S
C1951 C1950 1.394 . S
C1951 C1952 1.383 . S
C1951 H1959 0.929 . S
C1952 C1951 1.383 . S
C1952 C1953 1.377 . S
C1953 H1937 0.930 . S
C1953 C1952 1.377 . S
C1953 C1954 1.379 . S
C1954 H1938 0.931 . S
C1954 C1948 1.383 . S
C1954 C1953 1.379 . S
H1955 C1949 0.959 . S
H1956 C1949 0.961 . S
H1957 C1949 0.960 . S
H1958 C1950 0.930 . S
H1959 C1951 0.929 . S
H1960 C1968 0.929 . S
H1961 C1970 0.930 . S
H1962 C1972 0.930 . S
H1963 C1975 0.929 . S
H1964 C1978 0.930 . S
H1965 C1980 0.960 . S
H1966 C1980 0.960 . S
H1967 C1980 0.960 . S
C1968 H1960 0.929 . S
C1968 C1969 1.377 . S
C1968 C1970 1.384 . S
C1969 C1968 1.377 . S
C1969 C1975 1.390 . S
C1970 H1961 0.930 . S
C1970 C1968 1.384 . S
C1970 C1971 1.372 . S
C1971 C1970 1.372 . S
C1971 C1972 1.400 . S
C1971 C1976 1.490 . S
C1972 H1962 0.930 . S
C1972 C1971 1.400 . S
C1972 C1975 1.386 . S
H1973 C1989 0.930 . S
H1974 C1990 0.931 . S
C1975 H1963 0.929 . S
C1975 C1969 1.390 . S
C1975 C1972 1.386 . S
C1976 C1971 1.490 . S
C1976 C1978 1.395 . S
C1976 C1979 1.403 . S
H1977 C1983 0.930 . S
C1978 H1964 0.930 . S
C1978 C1976 1.395 . S
C1978 C1981 1.403 . S
C1979 C1976 1.403 . S
C1979 C1980 1.524 . S
C1979 C1983 1.400 . S
C1980 H1965 0.960 . S
C1980 H1966 0.960 . S
C1980 H1967 0.960 . S
C1980 C1979 1.524 . S
C1981 C1978 1.403 . S
C1981 C1982 1.392 . S
C1981 C1985 1.495 . S
C1982 C1981 1.392 . S
C1982 C1983 1.385 . S
C1982 C1984 1.478 . S
C1983 H1977 0.930 . S
C1983 C1979 1.400 . S
C1983 C1982 1.385 . S
C1984 C1982 1.478 . S
C1984 C1986 1.381 . S
C1984 C1990 1.383 . S
C1985 C1981 1.495 . S
C1985 H1991 0.959 . S
C1985 H1992 0.961 . S
C1985 H1993 0.960 . S
C1986 C1984 1.381 . S
C1986 C1987 1.394 . S
C1986 H1994 0.930 . S
C1987 C1986 1.394 . S
C1987 C1988 1.383 . S
C1987 H1995 0.929 . S
C1988 C1987 1.383 . S
C1988 C1989 1.377 . S
C1989 H1973 0.930 . S
C1989 C1988 1.377 . S
C1989 C1990 1.379 . S
C1990 H1974 0.931 . S
C1990 C1984 1.383 . S
C1990 C1989 1.379 . S
H1991 C1985 0.959 . S
H1992 C1985 0.961 . S
H1993 C1985 0.960 . S
H1994 C1986 0.930 . S
H1995 C1987 0.929 . S
H1996 C2004 0.929 . S
H1997 C2006 0.930 . S
H1998 C2008 0.930 . S
H1999 C2011 0.929 . S
H2000 C2014 0.930 . S
H2001 C2016 0.960 . S
H2002 C2016 0.960 . S
H2003 C2016 0.960 . S
C2004 H1996 0.929 . S
C2004 C2005 1.377 . S
C2004 C2006 1.384 . S
C2005 C2004 1.377 . S
C2005 C2011 1.390 . S
C2006 H1997 0.930 . S
C2006 C2004 1.384 . S
C2006 C2007 1.372 . S
C2007 C2006 1.372 . S
C2007 C2008 1.400 . S
C2007 C2012 1.490 . S
C2008 H1998 0.930 . S
C2008 C2007 1.400 . S
C2008 C2011 1.386 . S
H2009 C2025 0.930 . S
H2010 C2026 0.931 . S
C2011 H1999 0.929 . S
C2011 C2005 1.390 . S
C2011 C2008 1.386 . S
C2012 C2007 1.490 . S
C2012 C2014 1.395 . S
C2012 C2015 1.403 . S
H2013 C2019 0.930 . S
C2014 H2000 0.930 . S
C2014 C2012 1.395 . S
C2014 C2017 1.403 . S
C2015 C2012 1.403 . S
C2015 C2016 1.524 . S
C2015 C2019 1.400 . S
C2016 H2001 0.960 . S
C2016 H2002 0.960 . S
C2016 H2003 0.960 . S
C2016 C2015 1.524 . S
C2017 C2014 1.403 . S
C2017 C2018 1.392 . S
C2017 C2021 1.495 . S
C2018 C2017 1.392 . S
C2018 C2019 1.385 . S
C2018 C2020 1.478 . S
C2019 H2013 0.930 . S
C2019 C2015 1.400 . S
C2019 C2018 1.385 . S
C2020 C2018 1.478 . S
C2020 C2022 1.381 . S
C2020 C2026 1.383 . S
C2021 C2017 1.495 . S
C2021 H2027 0.959 . S
C2021 H2028 0.961 . S
C2021 H2029 0.960 . S
C2022 C2020 1.381 . S
C2022 C2023 1.394 . S
C2022 H2030 0.930 . S
C2023 C2022 1.394 . S
C2023 C2024 1.383 . S
C2023 H2031 0.929 . S
C2024 C2023 1.383 . S
C2024 C2025 1.377 . S
C2025 H2009 0.930 . S
C2025 C2024 1.377 . S
C2025 C2026 1.379 . S
C2026 H2010 0.931 . S
C2026 C2020 1.383 . S
C2026 C2025 1.379 . S
H2027 C2021 0.959 . S
H2028 C2021 0.961 . S
H2029 C2021 0.960 . S
H2030 C2022 0.930 . S
H2031 C2023 0.929 . S
H2032 C2040 0.929 . S
H2033 C2042 0.930 . S
H2034 C2044 0.930 . S
H2035 C2047 0.929 . S
H2036 C2050 0.930 . S
H2037 C2052 0.960 . S
H2038 C2052 0.960 . S
H2039 C2052 0.960 . S
C2040 H2032 0.929 . S
C2040 C2041 1.377 . S
C2040 C2042 1.384 . S
C2041 C2040 1.377 . S
C2041 C2047 1.390 . S
C2042 H2033 0.930 . S
C2042 C2040 1.384 . S
C2042 C2043 1.372 . S
C2043 C2042 1.372 . S
C2043 C2044 1.400 . S
C2043 C2048 1.490 . S
C2044 H2034 0.930 . S
C2044 C2043 1.400 . S
C2044 C2047 1.386 . S
H2045 C2061 0.930 . S
H2046 C2062 0.931 . S
C2047 H2035 0.929 . S
C2047 C2041 1.390 . S
C2047 C2044 1.386 . S
C2048 C2043 1.490 . S
C2048 C2050 1.395 . S
C2048 C2051 1.403 . S
H2049 C2055 0.930 . S
C2050 H2036 0.930 . S
C2050 C2048 1.395 . S
C2050 C2053 1.403 . S
C2051 C2048 1.403 . S
C2051 C2052 1.524 . S
C2051 C2055 1.400 . S
C2052 H2037 0.960 . S
C2052 H2038 0.960 . S
C2052 H2039 0.960 . S
C2052 C2051 1.524 . S
C2053 C2050 1.403 . S
C2053 C2054 1.392 . S
C2053 C2057 1.495 . S
C2054 C2053 1.392 . S
C2054 C2055 1.385 . S
C2054 C2056 1.478 . S
C2055 H2049 0.930 . S
C2055 C2051 1.400 . S
C2055 C2054 1.385 . S
C2056 C2054 1.478 . S
C2056 C2058 1.381 . S
C2056 C2062 1.383 . S
C2057 C2053 1.495 . S
C2057 H2063 0.959 . S
C2057 H2064 0.961 . S
C2057 H2065 0.960 . S
C2058 C2056 1.381 . S
C2058 C2059 1.394 . S
C2058 H2066 0.930 . S
C2059 C2058 1.394 . S
C2059 C2060 1.383 . S
C2059 H2067 0.929 . S
C2060 C2059 1.383 . S
C2060 C2061 1.377 . S
C2061 H2045 0.930 . S
C2061 C2060 1.377 . S
C2061 C2062 1.379 . S
C2062 H2046 0.931 . S
C2062 C2056 1.383 . S
C2062 C2061 1.379 . S
H2063 C2057 0.959 . S
H2064 C2057 0.961 . S
H2065 C2057 0.960 . S
H2066 C2058 0.930 . S
H2067 C2059 0.929 . S
H2068 C2076 0.929 . S
H2069 C2078 0.930 . S
H2070 C2080 0.930 . S
H2071 C2083 0.929 . S
H2072 C2086 0.930 . S
H2073 C2088 0.960 . S
H2074 C2088 0.960 . S
H2075 C2088 0.960 . S
C2076 H2068 0.929 . S
C2076 C2077 1.377 . S
C2076 C2078 1.384 . S
C2077 C2076 1.377 . S
C2077 C2083 1.390 . S
C2078 H2069 0.930 . S
C2078 C2076 1.384 . S
C2078 C2079 1.372 . S
C2079 C2078 1.372 . S
C2079 C2080 1.400 . S
C2079 C2084 1.490 . S
C2080 H2070 0.930 . S
C2080 C2079 1.400 . S
C2080 C2083 1.386 . S
H2081 C2097 0.930 . S
H2082 C2098 0.931 . S
C2083 H2071 0.929 . S
C2083 C2077 1.390 . S
C2083 C2080 1.386 . S
C2084 C2079 1.490 . S
C2084 C2086 1.395 1_556 S
C2084 C2087 1.403 . S
H2085 C2091 0.930 . S
C2086 H2072 0.930 . S
C2086 C2084 1.395 1_554 S
C2086 C2089 1.403 . S
C2087 C2084 1.403 . S
C2087 C2088 1.524 . S
C2087 C2091 1.400 . S
C2088 H2073 0.960 . S
C2088 H2074 0.960 . S
C2088 H2075 0.960 . S
C2088 C2087 1.524 . S
C2089 C2086 1.403 . S
C2089 C2090 1.392 1_554 S
C2089 C2093 1.495 . S
C2090 C2089 1.392 1_556 S
C2090 C2091 1.385 . S
C2090 C2092 1.478 . S
C2091 H2085 0.930 . S
C2091 C2087 1.400 . S
C2091 C2090 1.385 . S
C2092 C2090 1.478 . S
C2092 C2094 1.381 . S
C2092 C2098 1.383 . S
C2093 C2089 1.495 . S
C2093 H2099 0.959 . S
C2093 H2100 0.961 . S
C2093 H2101 0.960 . S
C2094 C2092 1.381 . S
C2094 C2095 1.394 . S
C2094 H2102 0.930 . S
C2095 C2094 1.394 . S
C2095 C2096 1.383 . S
C2095 H2103 0.929 . S
C2096 C2095 1.383 . S
C2096 C2097 1.377 . S
C2097 H2081 0.930 . S
C2097 C2096 1.377 . S
C2097 C2098 1.379 . S
C2098 H2082 0.931 . S
C2098 C2092 1.383 . S
C2098 C2097 1.379 . S
H2099 C2093 0.959 . S
H2100 C2093 0.961 . S
H2101 C2093 0.960 . S
H2102 C2094 0.930 . S
H2103 C2095 0.929 . S
H2104 C2112 0.929 . S
H2105 C2114 0.930 . S
H2106 C2116 0.930 . S
H2107 C2119 0.929 . S
H2108 C2122 0.930 . S
H2109 C2124 0.960 . S
H2110 C2124 0.960 . S
H2111 C2124 0.960 . S
C2112 H2104 0.929 . S
C2112 C2113 1.377 . S
C2112 C2114 1.384 . S
C2113 C2112 1.377 . S
C2113 C2119 1.390 . S
C2114 H2105 0.930 . S
C2114 C2112 1.384 . S
C2114 C2115 1.372 . S
C2115 C2114 1.372 . S
C2115 C2116 1.400 . S
C2115 C2120 1.490 . S
C2116 H2106 0.930 . S
C2116 C2115 1.400 . S
C2116 C2119 1.386 . S
H2117 C2133 0.930 . S
H2118 C2134 0.931 . S
C2119 H2107 0.929 . S
C2119 C2113 1.390 . S
C2119 C2116 1.386 . S
C2120 C2115 1.490 . S
C2120 C2122 1.395 . S
C2120 C2123 1.403 . S
H2121 C2127 0.930 . S
C2122 H2108 0.930 . S
C2122 C2120 1.395 . S
C2122 C2125 1.403 . S
C2123 C2120 1.403 . S
C2123 C2124 1.524 . S
C2123 C2127 1.400 . S
C2124 H2109 0.960 . S
C2124 H2110 0.960 . S
C2124 H2111 0.960 . S
C2124 C2123 1.524 . S
C2125 C2122 1.403 . S
C2125 C2126 1.392 . S
C2125 C2129 1.495 . S
C2126 C2125 1.392 . S
C2126 C2127 1.385 . S
C2126 C2128 1.478 . S
C2127 H2121 0.930 . S
C2127 C2123 1.400 . S
C2127 C2126 1.385 . S
C2128 C2126 1.478 . S
C2128 C2130 1.381 . S
C2128 C2134 1.383 . S
C2129 C2125 1.495 . S
C2129 H2135 0.959 . S
C2129 H2136 0.961 . S
C2129 H2137 0.960 . S
C2130 C2128 1.381 . S
C2130 C2131 1.394 . S
C2130 H2138 0.930 . S
C2131 C2130 1.394 . S
C2131 C2132 1.383 . S
C2131 H2139 0.929 . S
C2132 C2131 1.383 . S
C2132 C2133 1.377 . S
C2133 H2117 0.930 . S
C2133 C2132 1.377 . S
C2133 C2134 1.379 . S
C2134 H2118 0.931 . S
C2134 C2128 1.383 . S
C2134 C2133 1.379 . S
H2135 C2129 0.959 . S
H2136 C2129 0.961 . S
H2137 C2129 0.960 . S
H2138 C2130 0.930 . S
H2139 C2131 0.929 . S
H2140 C2148 0.929 . S
H2141 C2150 0.930 . S
H2142 C2152 0.930 . S
H2143 C2155 0.929 . S
H2144 C2158 0.930 . S
H2145 C2160 0.960 . S
H2146 C2160 0.960 . S
H2147 C2160 0.960 . S
C2148 H2140 0.929 . S
C2148 C2149 1.377 . S
C2148 C2150 1.384 . S
C2149 C2148 1.377 . S
C2149 C2155 1.390 . S
C2150 H2141 0.930 . S
C2150 C2148 1.384 . S
C2150 C2151 1.372 . S
C2151 C2150 1.372 . S
C2151 C2152 1.400 . S
C2151 C2156 1.490 . S
C2152 H2142 0.930 . S
C2152 C2151 1.400 . S
C2152 C2155 1.386 . S
H2153 C2169 0.930 . S
H2154 C2170 0.931 . S
C2155 H2143 0.929 . S
C2155 C2149 1.390 . S
C2155 C2152 1.386 . S
C2156 C2151 1.490 . S
C2156 C2158 1.395 . S
C2156 C2159 1.403 1_554 S
H2157 C2163 0.930 . S
C2158 H2144 0.930 . S
C2158 C2156 1.395 . S
C2158 C2161 1.403 . S
C2159 C2156 1.403 1_556 S
C2159 C2160 1.524 . S
C2159 C2163 1.400 . S
C2160 H2145 0.960 . S
C2160 H2146 0.960 . S
C2160 H2147 0.960 . S
C2160 C2159 1.524 . S
C2161 C2158 1.403 . S
C2161 C2162 1.392 . S
C2161 C2165 1.495 . S
C2162 C2161 1.392 . S
C2162 C2163 1.385 1_554 S
C2162 C2164 1.478 . S
C2163 H2157 0.930 . S
C2163 C2159 1.400 . S
C2163 C2162 1.385 1_556 S
C2164 C2162 1.478 . S
C2164 C2166 1.381 . S
C2164 C2170 1.383 . S
C2165 C2161 1.495 . S
C2165 H2171 0.959 . S
C2165 H2172 0.961 . S
C2165 H2173 0.960 . S
C2166 C2164 1.381 . S
C2166 C2167 1.394 . S
C2166 H2174 0.930 . S
C2167 C2166 1.394 . S
C2167 C2168 1.383 . S
C2167 H2175 0.929 . S
C2168 C2167 1.383 . S
C2168 C2169 1.377 . S
C2169 H2153 0.930 . S
C2169 C2168 1.377 . S
C2169 C2170 1.379 . S
C2170 H2154 0.931 . S
C2170 C2164 1.383 . S
C2170 C2169 1.379 . S
H2171 C2165 0.959 . S
H2172 C2165 0.961 . S
H2173 C2165 0.960 . S
H2174 C2166 0.930 . S
H2175 C2167 0.929 . S
H2176 C2184 0.929 . S
H2177 C2186 0.930 1_455 S
H2178 C2188 0.930 . S
H2179 C2191 0.929 . S
H2180 C2194 0.930 . S
H2181 C2196 0.960 . S
H2182 C2196 0.960 . S
H2183 C2196 0.960 . S
C2184 H2176 0.929 . S
C2184 C2185 1.377 1_455 S
C2184 C2186 1.384 1_455 S
C2185 C2184 1.377 1_655 S
C2185 C2191 1.390 . S
C2186 H2177 0.930 1_655 S
C2186 C2184 1.384 1_655 S
C2186 C2187 1.372 . S
C2187 C2186 1.372 . S
C2187 C2188 1.400 . S
C2187 C2192 1.490 . S
C2188 H2178 0.930 . S
C2188 C2187 1.400 . S
C2188 C2191 1.386 . S
H2189 C2205 0.930 . S
H2190 C2206 0.931 . S
C2191 H2179 0.929 . S
C2191 C2185 1.390 . S
C2191 C2188 1.386 . S
C2192 C2187 1.490 . S
C2192 C2194 1.395 . S
C2192 C2195 1.403 . S
H2193 C2199 0.930 . S
C2194 H2180 0.930 . S
C2194 C2192 1.395 . S
C2194 C2197 1.403 . S
C2195 C2192 1.403 . S
C2195 C2196 1.524 . S
C2195 C2199 1.400 . S
C2196 H2181 0.960 . S
C2196 H2182 0.960 . S
C2196 H2183 0.960 . S
C2196 C2195 1.524 . S
C2197 C2194 1.403 . S
C2197 C2198 1.392 . S
C2197 C2201 1.495 . S
C2198 C2197 1.392 . S
C2198 C2199 1.385 . S
C2198 C2200 1.478 . S
C2199 H2193 0.930 . S
C2199 C2195 1.400 . S
C2199 C2198 1.385 . S
C2200 C2198 1.478 . S
C2200 C2202 1.381 . S
C2200 C2206 1.383 . S
C2201 C2197 1.495 . S
C2201 H2207 0.959 . S
C2201 H2208 0.961 . S
C2201 H2209 0.960 . S
C2202 C2200 1.381 . S
C2202 C2203 1.394 . S
C2202 H2210 0.930 . S
C2203 C2202 1.394 . S
C2203 C2204 1.383 . S
C2203 H2211 0.929 . S
C2204 C2203 1.383 . S
C2204 C2205 1.377 . S
C2205 H2189 0.930 . S
C2205 C2204 1.377 . S
C2205 C2206 1.379 . S
C2206 H2190 0.931 . S
C2206 C2200 1.383 . S
C2206 C2205 1.379 . S
H2207 C2201 0.959 . S
H2208 C2201 0.961 . S
H2209 C2201 0.960 . S
H2210 C2202 0.930 . S
H2211 C2203 0.929 . S
H2212 C2220 0.929 . S
H2213 C2222 0.930 . S
H2214 C2224 0.930 . S
H2215 C2227 0.929 . S
H2216 C2230 0.930 . S
H2217 C2232 0.960 . S
H2218 C2232 0.960 . S
H2219 C2232 0.960 . S
C2220 H2212 0.929 . S
C2220 C2221 1.377 . S
C2220 C2222 1.384 . S
C2221 C2220 1.377 . S
C2221 C2227 1.390 . S
C2222 H2213 0.930 . S
C2222 C2220 1.384 . S
C2222 C2223 1.372 . S
C2223 C2222 1.372 . S
C2223 C2224 1.400 . S
C2223 C2228 1.490 . S
C2224 H2214 0.930 . S
C2224 C2223 1.400 . S
C2224 C2227 1.386 . S
H2225 C2241 0.930 . S
H2226 C2242 0.931 . S
C2227 H2215 0.929 . S
C2227 C2221 1.390 . S
C2227 C2224 1.386 . S
C2228 C2223 1.490 . S
C2228 C2230 1.395 . S
C2228 C2231 1.403 . S
H2229 C2235 0.930 . S
C2230 H2216 0.930 . S
C2230 C2228 1.395 . S
C2230 C2233 1.403 . S
C2231 C2228 1.403 . S
C2231 C2232 1.524 . S
C2231 C2235 1.400 . S
C2232 H2217 0.960 . S
C2232 H2218 0.960 . S
C2232 H2219 0.960 . S
C2232 C2231 1.524 . S
C2233 C2230 1.403 . S
C2233 C2234 1.392 . S
C2233 C2237 1.495 . S
C2234 C2233 1.392 . S
C2234 C2235 1.385 . S
C2234 C2236 1.478 . S
C2235 H2229 0.930 . S
C2235 C2231 1.400 . S
C2235 C2234 1.385 . S
C2236 C2234 1.478 . S
C2236 C2238 1.381 . S
C2236 C2242 1.383 . S
C2237 C2233 1.495 . S
C2237 H2243 0.959 . S
C2237 H2244 0.961 . S
C2237 H2245 0.960 . S
C2238 C2236 1.381 . S
C2238 C2239 1.394 . S
C2238 H2246 0.930 . S
C2239 C2238 1.394 . S
C2239 C2240 1.383 . S
C2239 H2247 0.929 . S
C2240 C2239 1.383 . S
C2240 C2241 1.377 . S
C2241 H2225 0.930 . S
C2241 C2240 1.377 . S
C2241 C2242 1.379 . S
C2242 H2226 0.931 . S
C2242 C2236 1.383 . S
C2242 C2241 1.379 . S
H2243 C2237 0.959 . S
H2244 C2237 0.961 . S
H2245 C2237 0.960 . S
H2246 C2238 0.930 . S
H2247 C2239 0.929 . S
H2248 C2256 0.929 . S
H2249 C2258 0.930 . S
H2250 C2260 0.930 . S
H2251 C2263 0.929 . S
H2252 C2266 0.930 . S
H2253 C2268 0.960 . S
H2254 C2268 0.960 . S
H2255 C2268 0.960 . S
C2256 H2248 0.929 . S
C2256 C2257 1.377 . S
C2256 C2258 1.384 . S
C2257 C2256 1.377 . S
C2257 C2263 1.390 . S
C2258 H2249 0.930 . S
C2258 C2256 1.384 . S
C2258 C2259 1.372 . S
C2259 C2258 1.372 . S
C2259 C2260 1.400 . S
C2259 C2264 1.490 . S
C2260 H2250 0.930 . S
C2260 C2259 1.400 . S
C2260 C2263 1.386 . S
H2261 C2277 0.930 . S
H2262 C2278 0.931 . S
C2263 H2251 0.929 . S
C2263 C2257 1.390 . S
C2263 C2260 1.386 . S
C2264 C2259 1.490 . S
C2264 C2266 1.395 . S
C2264 C2267 1.403 . S
H2265 C2271 0.930 . S
C2266 H2252 0.930 . S
C2266 C2264 1.395 . S
C2266 C2269 1.403 . S
C2267 C2264 1.403 . S
C2267 C2268 1.524 . S
C2267 C2271 1.400 . S
C2268 H2253 0.960 . S
C2268 H2254 0.960 . S
C2268 H2255 0.960 . S
C2268 C2267 1.524 . S
C2269 C2266 1.403 . S
C2269 C2270 1.392 . S
C2269 C2273 1.495 . S
C2270 C2269 1.392 . S
C2270 C2271 1.385 . S
C2270 C2272 1.478 . S
C2271 H2265 0.930 . S
C2271 C2267 1.400 . S
C2271 C2270 1.385 . S
C2272 C2270 1.478 . S
C2272 C2274 1.381 . S
C2272 C2278 1.383 . S
C2273 C2269 1.495 . S
C2273 H2279 0.959 . S
C2273 H2280 0.961 . S
C2273 H2281 0.960 . S
C2274 C2272 1.381 . S
C2274 C2275 1.394 . S
C2274 H2282 0.930 . S
C2275 C2274 1.394 . S
C2275 C2276 1.383 . S
C2275 H2283 0.929 1_655 S
C2276 C2275 1.383 . S
C2276 C2277 1.377 . S
C2277 H2261 0.930 . S
C2277 C2276 1.377 . S
C2277 C2278 1.379 . S
C2278 H2262 0.931 . S
C2278 C2272 1.383 . S
C2278 C2277 1.379 . S
H2279 C2273 0.959 . S
H2280 C2273 0.961 . S
H2281 C2273 0.960 . S
H2282 C2274 0.930 . S
H2283 C2275 0.929 1_455 S
H2284 C2292 0.929 . S
H2285 C2294 0.930 . S
H2286 C2296 0.930 . S
H2287 C2299 0.929 . S
H2288 C2302 0.930 . S
H2289 C2304 0.960 . S
H2290 C2304 0.960 . S
H2291 C2304 0.960 . S
C2292 H2284 0.929 . S
C2292 C2293 1.377 . S
C2292 C2294 1.384 . S
C2293 C2292 1.377 . S
C2293 C2299 1.390 . S
C2294 H2285 0.930 . S
C2294 C2292 1.384 . S
C2294 C2295 1.372 . S
C2295 C2294 1.372 . S
C2295 C2296 1.400 . S
C2295 C2300 1.490 . S
C2296 H2286 0.930 . S
C2296 C2295 1.400 . S
C2296 C2299 1.386 . S
H2297 C2313 0.930 . S
H2298 C2314 0.931 . S
C2299 H2287 0.929 . S
C2299 C2293 1.390 . S
C2299 C2296 1.386 . S
C2300 C2295 1.490 . S
C2300 C2302 1.395 . S
C2300 C2303 1.403 . S
H2301 C2307 0.930 . S
C2302 H2288 0.930 . S
C2302 C2300 1.395 . S
C2302 C2305 1.403 . S
C2303 C2300 1.403 . S
C2303 C2304 1.524 . S
C2303 C2307 1.400 . S
C2304 H2289 0.960 . S
C2304 H2290 0.960 . S
C2304 H2291 0.960 . S
C2304 C2303 1.524 . S
C2305 C2302 1.403 . S
C2305 C2306 1.392 . S
C2305 C2309 1.495 . S
C2306 C2305 1.392 . S
C2306 C2307 1.385 . S
C2306 C2308 1.478 . S
C2307 H2301 0.930 . S
C2307 C2303 1.400 . S
C2307 C2306 1.385 . S
C2308 C2306 1.478 . S
C2308 C2310 1.381 . S
C2308 C2314 1.383 . S
C2309 C2305 1.495 . S
C2309 H2315 0.959 . S
C2309 H2316 0.961 . S
C2309 H2317 0.960 . S
C2310 C2308 1.381 . S
C2310 C2311 1.394 . S
C2310 H2318 0.930 . S
C2311 C2310 1.394 . S
C2311 C2312 1.383 . S
C2311 H2319 0.929 . S
C2312 C2311 1.383 . S
C2312 C2313 1.377 . S
C2313 H2297 0.930 . S
C2313 C2312 1.377 . S
C2313 C2314 1.379 . S
C2314 H2298 0.931 . S
C2314 C2308 1.383 . S
C2314 C2313 1.379 . S
H2315 C2309 0.959 . S
H2316 C2309 0.961 . S
H2317 C2309 0.960 . S
H2318 C2310 0.930 . S
H2319 C2311 0.929 . S
H2320 C2328 0.929 . S
H2321 C2330 0.930 . S
H2322 C2332 0.930 . S
H2323 C2335 0.929 . S
H2324 C2338 0.930 . S
H2325 C2340 0.960 . S
H2326 C2340 0.960 . S
H2327 C2340 0.960 . S
C2328 H2320 0.929 . S
C2328 C2329 1.377 . S
C2328 C2330 1.384 . S
C2329 C2328 1.377 . S
C2329 C2335 1.390 . S
C2330 H2321 0.930 . S
C2330 C2328 1.384 . S
C2330 C2331 1.372 . S
C2331 C2330 1.372 . S
C2331 C2332 1.400 . S
C2331 C2336 1.490 . S
C2332 H2322 0.930 . S
C2332 C2331 1.400 . S
C2332 C2335 1.386 . S
H2333 C2349 0.930 . S
H2334 C2350 0.931 . S
C2335 H2323 0.929 . S
C2335 C2329 1.390 . S
C2335 C2332 1.386 . S
C2336 C2331 1.490 . S
C2336 C2338 1.395 . S
C2336 C2339 1.403 . S
H2337 C2343 0.930 . S
C2338 H2324 0.930 . S
C2338 C2336 1.395 . S
C2338 C2341 1.403 . S
C2339 C2336 1.403 . S
C2339 C2340 1.524 . S
C2339 C2343 1.400 . S
C2340 H2325 0.960 . S
C2340 H2326 0.960 . S
C2340 H2327 0.960 . S
C2340 C2339 1.524 . S
C2341 C2338 1.403 . S
C2341 C2342 1.392 . S
C2341 C2345 1.495 . S
C2342 C2341 1.392 . S
C2342 C2343 1.385 . S
C2342 C2344 1.478 . S
C2343 H2337 0.930 . S
C2343 C2339 1.400 . S
C2343 C2342 1.385 . S
C2344 C2342 1.478 . S
C2344 C2346 1.381 . S
C2344 C2350 1.383 . S
C2345 C2341 1.495 . S
C2345 H2351 0.959 . S
C2345 H2352 0.961 . S
C2345 H2353 0.960 1_455 S
C2346 C2344 1.381 . S
C2346 C2347 1.394 1_455 S
C2346 H2354 0.930 . S
C2347 C2346 1.394 1_655 S
C2347 C2348 1.383 1_655 S
C2347 H2355 0.929 . S
C2348 C2347 1.383 1_455 S
C2348 C2349 1.377 . S
C2349 H2333 0.930 . S
C2349 C2348 1.377 . S
C2349 C2350 1.379 . S
C2350 H2334 0.931 . S
C2350 C2344 1.383 . S
C2350 C2349 1.379 . S
H2351 C2345 0.959 . S
H2352 C2345 0.961 . S
H2353 C2345 0.960 1_655 S
H2354 C2346 0.930 . S
H2355 C2347 0.929 . S
H2356 C2364 0.929 . S
H2357 C2366 0.930 . S
H2358 C2368 0.930 . S
H2359 C2371 0.929 . S
H2360 C2374 0.930 . S
H2361 C2376 0.960 . S
H2362 C2376 0.960 . S
H2363 C2376 0.960 . S
C2364 H2356 0.929 . S
C2364 C2365 1.377 . S
C2364 C2366 1.384 . S
C2365 C2364 1.377 . S
C2365 C2371 1.390 . S
C2366 H2357 0.930 . S
C2366 C2364 1.384 . S
C2366 C2367 1.372 . S
C2367 C2366 1.372 . S
C2367 C2368 1.400 . S
C2367 C2372 1.490 . S
C2368 H2358 0.930 . S
C2368 C2367 1.400 . S
C2368 C2371 1.386 . S
H2369 C2385 0.930 . S
H2370 C2386 0.931 . S
C2371 H2359 0.929 . S
C2371 C2365 1.390 . S
C2371 C2368 1.386 . S
C2372 C2367 1.490 . S
C2372 C2374 1.395 . S
C2372 C2375 1.403 . S
H2373 C2379 0.930 . S
C2374 H2360 0.930 . S
C2374 C2372 1.395 . S
C2374 C2377 1.403 . S
C2375 C2372 1.403 . S
C2375 C2376 1.524 . S
C2375 C2379 1.400 . S
C2376 H2361 0.960 . S
C2376 H2362 0.960 . S
C2376 H2363 0.960 . S
C2376 C2375 1.524 . S
C2377 C2374 1.403 . S
C2377 C2378 1.392 . S
C2377 C2381 1.495 . S
C2378 C2377 1.392 . S
C2378 C2379 1.385 . S
C2378 C2380 1.478 . S
C2379 H2373 0.930 . S
C2379 C2375 1.400 . S
C2379 C2378 1.385 . S
C2380 C2378 1.478 . S
C2380 C2382 1.381 . S
C2380 C2386 1.383 . S
C2381 C2377 1.495 . S
C2381 H2387 0.959 . S
C2381 H2388 0.961 . S
C2381 H2389 0.960 . S
C2382 C2380 1.381 . S
C2382 C2383 1.394 . S
C2382 H2390 0.930 . S
C2383 C2382 1.394 . S
C2383 C2384 1.383 . S
C2383 H2391 0.929 . S
C2384 C2383 1.383 . S
C2384 C2385 1.377 . S
C2385 H2369 0.930 . S
C2385 C2384 1.377 . S
C2385 C2386 1.379 . S
C2386 H2370 0.931 . S
C2386 C2380 1.383 . S
C2386 C2385 1.379 . S
H2387 C2381 0.959 . S
H2388 C2381 0.961 . S
H2389 C2381 0.960 . S
H2390 C2382 0.930 . S
H2391 C2383 0.929 . S
H2392 C2400 0.929 . S
H2393 C2402 0.930 . S
H2394 C2404 0.930 . S
H2395 C2407 0.929 . S
H2396 C2410 0.930 . S
H2397 C2412 0.960 . S
H2398 C2412 0.960 . S
H2399 C2412 0.960 . S
C2400 H2392 0.929 . S
C2400 C2401 1.377 . S
C2400 C2402 1.384 . S
C2401 C2400 1.377 . S
C2401 C2407 1.390 . S
C2402 H2393 0.930 . S
C2402 C2400 1.384 . S
C2402 C2403 1.372 . S
C2403 C2402 1.372 . S
C2403 C2404 1.400 . S
C2403 C2408 1.490 . S
C2404 H2394 0.930 . S
C2404 C2403 1.400 . S
C2404 C2407 1.386 . S
H2405 C2421 0.930 1_655 S
H2406 C2422 0.931 . S
C2407 H2395 0.929 . S
C2407 C2401 1.390 . S
C2407 C2404 1.386 . S
C2408 C2403 1.490 . S
C2408 C2410 1.395 . S
C2408 C2411 1.403 . S
H2409 C2415 0.930 . S
C2410 H2396 0.930 . S
C2410 C2408 1.395 . S
C2410 C2413 1.403 . S
C2411 C2408 1.403 . S
C2411 C2412 1.524 . S
C2411 C2415 1.400 . S
C2412 H2397 0.960 . S
C2412 H2398 0.960 . S
C2412 H2399 0.960 . S
C2412 C2411 1.524 . S
C2413 C2410 1.403 . S
C2413 C2414 1.392 . S
C2413 C2417 1.495 . S
C2414 C2413 1.392 . S
C2414 C2415 1.385 . S
C2414 C2416 1.478 . S
C2415 H2409 0.930 . S
C2415 C2411 1.400 . S
C2415 C2414 1.385 . S
C2416 C2414 1.478 . S
C2416 C2418 1.381 . S
C2416 C2422 1.383 . S
C2417 C2413 1.495 . S
C2417 H2423 0.959 . S
C2417 H2424 0.961 . S
C2417 H2425 0.960 . S
C2418 C2416 1.381 . S
C2418 C2419 1.394 . S
C2418 H2426 0.930 . S
C2419 C2418 1.394 . S
C2419 C2420 1.383 . S
C2419 H2427 0.929 . S
C2420 C2419 1.383 . S
C2420 C2421 1.377 . S
C2421 H2405 0.930 1_455 S
C2421 C2420 1.377 . S
C2421 C2422 1.379 . S
C2422 H2406 0.931 . S
C2422 C2416 1.383 . S
C2422 C2421 1.379 . S
H2423 C2417 0.959 . S
H2424 C2417 0.961 . S
H2425 C2417 0.960 . S
H2426 C2418 0.930 . S
H2427 C2419 0.929 . S
H2428 C2436 0.929 . S
H2429 C2438 0.930 . S
H2430 C2440 0.930 . S
H2431 C2443 0.929 . S
H2432 C2446 0.930 . S
H2433 C2448 0.960 . S
H2434 C2448 0.960 . S
H2435 C2448 0.960 . S
C2436 H2428 0.929 . S
C2436 C2437 1.377 . S
C2436 C2438 1.384 . S
C2437 C2436 1.377 . S
C2437 C2443 1.390 . S
C2438 H2429 0.930 . S
C2438 C2436 1.384 . S
C2438 C2439 1.372 . S
C2439 C2438 1.372 . S
C2439 C2440 1.400 . S
C2439 C2444 1.490 . S
C2440 H2430 0.930 . S
C2440 C2439 1.400 . S
C2440 C2443 1.386 . S
H2441 C2457 0.930 . S
H2442 C2458 0.931 . S
C2443 H2431 0.929 . S
C2443 C2437 1.390 . S
C2443 C2440 1.386 . S
C2444 C2439 1.490 . S
C2444 C2446 1.395 . S
C2444 C2447 1.403 . S
H2445 C2451 0.930 . S
C2446 H2432 0.930 . S
C2446 C2444 1.395 . S
C2446 C2449 1.403 . S
C2447 C2444 1.403 . S
C2447 C2448 1.524 . S
C2447 C2451 1.400 . S
C2448 H2433 0.960 . S
C2448 H2434 0.960 . S
C2448 H2435 0.960 . S
C2448 C2447 1.524 . S
C2449 C2446 1.403 . S
C2449 C2450 1.392 . S
C2449 C2453 1.495 . S
C2450 C2449 1.392 . S
C2450 C2451 1.385 . S
C2450 C2452 1.478 . S
C2451 H2445 0.930 . S
C2451 C2447 1.400 . S
C2451 C2450 1.385 . S
C2452 C2450 1.478 . S
C2452 C2454 1.381 . S
C2452 C2458 1.383 . S
C2453 C2449 1.495 . S
C2453 H2459 0.959 . S
C2453 H2460 0.961 . S
C2453 H2461 0.960 . S
C2454 C2452 1.381 . S
C2454 C2455 1.394 . S
C2454 H2462 0.930 . S
C2455 C2454 1.394 . S
C2455 C2456 1.383 . S
C2455 H2463 0.929 . S
C2456 C2455 1.383 . S
C2456 C2457 1.377 . S
C2457 H2441 0.930 . S
C2457 C2456 1.377 . S
C2457 C2458 1.379 . S
C2458 H2442 0.931 . S
C2458 C2452 1.383 . S
C2458 C2457 1.379 . S
H2459 C2453 0.959 . S
H2460 C2453 0.961 . S
H2461 C2453 0.960 . S
H2462 C2454 0.930 . S
H2463 C2455 0.929 . S
H2464 C2472 0.929 1_455 S
H2465 C2474 0.930 . S
H2466 C2476 0.930 . S
H2467 C2479 0.929 . S
H2468 C2482 0.930 . S
H2469 C2484 0.960 . S
H2470 C2484 0.960 . S
H2471 C2484 0.960 . S
C2472 H2464 0.929 1_655 S
C2472 C2473 1.377 . S
C2472 C2474 1.384 . S
C2473 C2472 1.377 . S
C2473 C2479 1.390 . S
C2474 H2465 0.930 . S
C2474 C2472 1.384 . S
C2474 C2475 1.372 . S
C2475 C2474 1.372 . S
C2475 C2476 1.400 . S
C2475 C2480 1.490 . S
C2476 H2466 0.930 . S
C2476 C2475 1.400 . S
C2476 C2479 1.386 . S
H2477 C2493 0.930 . S
H2478 C2494 0.931 . S
C2479 H2467 0.929 . S
C2479 C2473 1.390 . S
C2479 C2476 1.386 . S
C2480 C2475 1.490 . S
C2480 C2482 1.395 . S
C2480 C2483 1.403 . S
H2481 C2487 0.930 . S
C2482 H2468 0.930 . S
C2482 C2480 1.395 . S
C2482 C2485 1.403 . S
C2483 C2480 1.403 . S
C2483 C2484 1.524 . S
C2483 C2487 1.400 . S
C2484 H2469 0.960 . S
C2484 H2470 0.960 . S
C2484 H2471 0.960 . S
C2484 C2483 1.524 . S
C2485 C2482 1.403 . S
C2485 C2486 1.392 . S
C2485 C2489 1.495 . S
C2486 C2485 1.392 . S
C2486 C2487 1.385 . S
C2486 C2488 1.478 . S
C2487 H2481 0.930 . S
C2487 C2483 1.400 . S
C2487 C2486 1.385 . S
C2488 C2486 1.478 . S
C2488 C2490 1.381 . S
C2488 C2494 1.383 . S
C2489 C2485 1.495 . S
C2489 H2495 0.959 . S
C2489 H2496 0.961 . S
C2489 H2497 0.960 . S
C2490 C2488 1.381 . S
C2490 C2491 1.394 . S
C2490 H2498 0.930 . S
C2491 C2490 1.394 . S
C2491 C2492 1.383 . S
C2491 H2499 0.929 . S
C2492 C2491 1.383 . S
C2492 C2493 1.377 . S
C2493 H2477 0.930 . S
C2493 C2492 1.377 . S
C2493 C2494 1.379 . S
C2494 H2478 0.931 . S
C2494 C2488 1.383 . S
C2494 C2493 1.379 . S
H2495 C2489 0.959 . S
H2496 C2489 0.961 . S
H2497 C2489 0.960 . S
H2498 C2490 0.930 . S
H2499 C2491 0.929 . S
H2500 C2508 0.929 . S
H2501 C2510 0.930 . S
H2502 C2512 0.930 . S
H2503 C2515 0.929 . S
H2504 C2518 0.930 . S
H2505 C2520 0.960 . S
H2506 C2520 0.960 . S
H2507 C2520 0.960 . S
C2508 H2500 0.929 . S
C2508 C2509 1.377 . S
C2508 C2510 1.384 . S
C2509 C2508 1.377 . S
C2509 C2515 1.390 . S
C2510 H2501 0.930 . S
C2510 C2508 1.384 . S
C2510 C2511 1.372 . S
C2511 C2510 1.372 . S
C2511 C2512 1.400 . S
C2511 C2516 1.490 . S
C2512 H2502 0.930 . S
C2512 C2511 1.400 . S
C2512 C2515 1.386 . S
H2513 C2529 0.930 . S
H2514 C2530 0.931 . S
C2515 H2503 0.929 . S
C2515 C2509 1.390 . S
C2515 C2512 1.386 . S
C2516 C2511 1.490 . S
C2516 C2518 1.395 . S
C2516 C2519 1.403 . S
H2517 C2523 0.930 . S
C2518 H2504 0.930 . S
C2518 C2516 1.395 . S
C2518 C2521 1.403 . S
C2519 C2516 1.403 . S
C2519 C2520 1.524 . S
C2519 C2523 1.400 . S
C2520 H2505 0.960 . S
C2520 H2506 0.960 . S
C2520 H2507 0.960 . S
C2520 C2519 1.524 . S
C2521 C2518 1.403 . S
C2521 C2522 1.392 . S
C2521 C2525 1.495 . S
C2522 C2521 1.392 . S
C2522 C2523 1.385 . S
C2522 C2524 1.478 . S
C2523 H2517 0.930 . S
C2523 C2519 1.400 . S
C2523 C2522 1.385 . S
C2524 C2522 1.478 . S
C2524 C2526 1.381 . S
C2524 C2530 1.383 . S
C2525 C2521 1.495 . S
C2525 H2531 0.959 . S
C2525 H2532 0.961 . S
C2525 H2533 0.960 . S
C2526 C2524 1.381 . S
C2526 C2527 1.394 . S
C2526 H2534 0.930 . S
C2527 C2526 1.394 . S
C2527 C2528 1.383 . S
C2527 H2535 0.929 . S
C2528 C2527 1.383 . S
C2528 C2529 1.377 . S
C2529 H2513 0.930 . S
C2529 C2528 1.377 . S
C2529 C2530 1.379 . S
C2530 H2514 0.931 . S
C2530 C2524 1.383 . S
C2530 C2529 1.379 . S
H2531 C2525 0.959 . S
H2532 C2525 0.961 . S
H2533 C2525 0.960 . S
H2534 C2526 0.930 . S
H2535 C2527 0.929 . S
H2536 C2544 0.929 . S
H2537 C2546 0.930 . S
H2538 C2548 0.930 . S
H2539 C2551 0.929 . S
H2540 C2554 0.930 . S
H2541 C2556 0.960 . S
H2542 C2556 0.960 . S
H2543 C2556 0.960 . S
C2544 H2536 0.929 . S
C2544 C2545 1.377 . S
C2544 C2546 1.384 . S
C2545 C2544 1.377 . S
C2545 C2551 1.390 1_655 S
C2546 H2537 0.930 . S
C2546 C2544 1.384 . S
C2546 C2547 1.372 . S
C2547 C2546 1.372 . S
C2547 C2548 1.400 . S
C2547 C2552 1.490 . S
C2548 H2538 0.930 . S
C2548 C2547 1.400 . S
C2548 C2551 1.386 1_655 S
H2549 C2565 0.930 . S
H2550 C2566 0.931 . S
C2551 H2539 0.929 . S
C2551 C2545 1.390 1_455 S
C2551 C2548 1.386 1_455 S
C2552 C2547 1.490 . S
C2552 C2554 1.395 . S
C2552 C2555 1.403 . S
H2553 C2559 0.930 . S
C2554 H2540 0.930 . S
C2554 C2552 1.395 . S
C2554 C2557 1.403 . S
C2555 C2552 1.403 . S
C2555 C2556 1.524 . S
C2555 C2559 1.400 . S
C2556 H2541 0.960 . S
C2556 H2542 0.960 . S
C2556 H2543 0.960 . S
C2556 C2555 1.524 . S
C2557 C2554 1.403 . S
C2557 C2558 1.392 . S
C2557 C2561 1.495 . S
C2558 C2557 1.392 . S
C2558 C2559 1.385 . S
C2558 C2560 1.478 . S
C2559 H2553 0.930 . S
C2559 C2555 1.400 . S
C2559 C2558 1.385 . S
C2560 C2558 1.478 . S
C2560 C2562 1.381 . S
C2560 C2566 1.383 . S
C2561 C2557 1.495 . S
C2561 H2567 0.959 . S
C2561 H2568 0.961 . S
C2561 H2569 0.960 . S
C2562 C2560 1.381 . S
C2562 C2563 1.394 . S
C2562 H2570 0.930 . S
C2563 C2562 1.394 . S
C2563 C2564 1.383 . S
C2563 H2571 0.929 . S
C2564 C2563 1.383 . S
C2564 C2565 1.377 . S
C2565 H2549 0.930 . S
C2565 C2564 1.377 . S
C2565 C2566 1.379 . S
C2566 H2550 0.931 . S
C2566 C2560 1.383 . S
C2566 C2565 1.379 . S
H2567 C2561 0.959 . S
H2568 C2561 0.961 . S
H2569 C2561 0.960 . S
H2570 C2562 0.930 . S
H2571 C2563 0.929 . S
H2572 C2580 0.929 . S
H2573 C2582 0.930 . S
H2574 C2584 0.930 . S
H2575 C2587 0.929 . S
H2576 C2590 0.930 . S
H2577 C2592 0.960 . S
H2578 C2592 0.960 . S
H2579 C2592 0.960 . S
C2580 H2572 0.929 . S
C2580 C2581 1.377 . S
C2580 C2582 1.384 . S
C2581 C2580 1.377 . S
C2581 C2587 1.390 . S
C2582 H2573 0.930 . S
C2582 C2580 1.384 . S
C2582 C2583 1.372 . S
C2583 C2582 1.372 . S
C2583 C2584 1.400 . S
C2583 C2588 1.490 . S
C2584 H2574 0.930 . S
C2584 C2583 1.400 . S
C2584 C2587 1.386 . S
H2585 C2601 0.930 . S
H2586 C2602 0.931 . S
C2587 H2575 0.929 . S
C2587 C2581 1.390 . S
C2587 C2584 1.386 . S
C2588 C2583 1.490 . S
C2588 C2590 1.395 . S
C2588 C2591 1.403 . S
H2589 C2595 0.930 . S
C2590 H2576 0.930 . S
C2590 C2588 1.395 . S
C2590 C2593 1.403 . S
C2591 C2588 1.403 . S
C2591 C2592 1.524 . S
C2591 C2595 1.400 . S
C2592 H2577 0.960 . S
C2592 H2578 0.960 . S
C2592 H2579 0.960 . S
C2592 C2591 1.524 . S
C2593 C2590 1.403 . S
C2593 C2594 1.392 . S
C2593 C2597 1.495 . S
C2594 C2593 1.392 . S
C2594 C2595 1.385 . S
C2594 C2596 1.478 . S
C2595 H2589 0.930 . S
C2595 C2591 1.400 . S
C2595 C2594 1.385 . S
C2596 C2594 1.478 . S
C2596 C2598 1.381 . S
C2596 C2602 1.383 . S
C2597 C2593 1.495 . S
C2597 H2603 0.959 . S
C2597 H2604 0.961 . S
C2597 H2605 0.960 . S
C2598 C2596 1.381 . S
C2598 C2599 1.394 . S
C2598 H2606 0.930 . S
C2599 C2598 1.394 . S
C2599 C2600 1.383 . S
C2599 H2607 0.929 . S
C2600 C2599 1.383 . S
C2600 C2601 1.377 . S
C2601 H2585 0.930 . S
C2601 C2600 1.377 . S
C2601 C2602 1.379 . S
C2602 H2586 0.931 . S
C2602 C2596 1.383 . S
C2602 C2601 1.379 . S
H2603 C2597 0.959 . S
H2604 C2597 0.961 . S
H2605 C2597 0.960 . S
H2606 C2598 0.930 . S
H2607 C2599 0.929 . S
H2608 C2616 0.929 . S
H2609 C2618 0.930 1_655 S
H2610 C2620 0.930 . S
H2611 C2623 0.929 . S
H2612 C2626 0.930 . S
H2613 C2628 0.960 . S
H2614 C2628 0.960 . S
H2615 C2628 0.960 . S
C2616 H2608 0.929 . S
C2616 C2617 1.377 1_655 S
C2616 C2618 1.384 1_655 S
C2617 C2616 1.377 1_455 S
C2617 C2623 1.390 . S
C2618 H2609 0.930 1_455 S
C2618 C2616 1.384 1_455 S
C2618 C2619 1.372 . S
C2619 C2618 1.372 . S
C2619 C2620 1.400 . S
C2619 C2624 1.490 . S
C2620 H2610 0.930 . S
C2620 C2619 1.400 . S
C2620 C2623 1.386 . S
H2621 C2637 0.930 . S
H2622 C2638 0.931 . S
C2623 H2611 0.929 . S
C2623 C2617 1.390 . S
C2623 C2620 1.386 . S
C2624 C2619 1.490 . S
C2624 C2626 1.395 . S
C2624 C2627 1.403 . S
H2625 C2631 0.930 . S
C2626 H2612 0.930 . S
C2626 C2624 1.395 . S
C2626 C2629 1.403 . S
C2627 C2624 1.403 . S
C2627 C2628 1.524 . S
C2627 C2631 1.400 . S
C2628 H2613 0.960 . S
C2628 H2614 0.960 . S
C2628 H2615 0.960 . S
C2628 C2627 1.524 . S
C2629 C2626 1.403 . S
C2629 C2630 1.392 . S
C2629 C2633 1.495 . S
C2630 C2629 1.392 . S
C2630 C2631 1.385 . S
C2630 C2632 1.478 . S
C2631 H2625 0.930 . S
C2631 C2627 1.400 . S
C2631 C2630 1.385 . S
C2632 C2630 1.478 . S
C2632 C2634 1.381 . S
C2632 C2638 1.383 . S
C2633 C2629 1.495 . S
C2633 H2639 0.959 . S
C2633 H2640 0.961 . S
C2633 H2641 0.960 . S
C2634 C2632 1.381 . S
C2634 C2635 1.394 . S
C2634 H2642 0.930 . S
C2635 C2634 1.394 . S
C2635 C2636 1.383 . S
C2635 H2643 0.929 . S
C2636 C2635 1.383 . S
C2636 C2637 1.377 . S
C2637 H2621 0.930 . S
C2637 C2636 1.377 . S
C2637 C2638 1.379 . S
C2638 H2622 0.931 . S
C2638 C2632 1.383 . S
C2638 C2637 1.379 . S
H2639 C2633 0.959 . S
H2640 C2633 0.961 . S
H2641 C2633 0.960 . S
H2642 C2634 0.930 . S
H2643 C2635 0.929 . S
H2644 C2652 0.929 . S
H2645 C2654 0.930 . S
H2646 C2656 0.930 . S
H2647 C2659 0.929 . S
H2648 C2662 0.930 . S
H2649 C2664 0.960 . S
H2650 C2664 0.960 . S
H2651 C2664 0.960 . S
C2652 H2644 0.929 . S
C2652 C2653 1.377 . S
C2652 C2654 1.384 . S
C2653 C2652 1.377 . S
C2653 C2659 1.390 . S
C2654 H2645 0.930 . S
C2654 C2652 1.384 . S
C2654 C2655 1.372 . S
C2655 C2654 1.372 . S
C2655 C2656 1.400 . S
C2655 C2660 1.490 . S
C2656 H2646 0.930 . S
C2656 C2655 1.400 . S
C2656 C2659 1.386 . S
H2657 C2673 0.930 . S
H2658 C2674 0.931 . S
C2659 H2647 0.929 . S
C2659 C2653 1.390 . S
C2659 C2656 1.386 . S
C2660 C2655 1.490 . S
C2660 C2662 1.395 . S
C2660 C2663 1.403 . S
H2661 C2667 0.930 . S
C2662 H2648 0.930 . S
C2662 C2660 1.395 . S
C2662 C2665 1.403 . S
C2663 C2660 1.403 . S
C2663 C2664 1.524 . S
C2663 C2667 1.400 . S
C2664 H2649 0.960 . S
C2664 H2650 0.960 . S
C2664 H2651 0.960 . S
C2664 C2663 1.524 . S
C2665 C2662 1.403 . S
C2665 C2666 1.392 . S
C2665 C2669 1.495 . S
C2666 C2665 1.392 . S
C2666 C2667 1.385 . S
C2666 C2668 1.478 . S
C2667 H2661 0.930 . S
C2667 C2663 1.400 . S
C2667 C2666 1.385 . S
C2668 C2666 1.478 . S
C2668 C2670 1.381 . S
C2668 C2674 1.383 . S
C2669 C2665 1.495 . S
C2669 H2675 0.959 . S
C2669 H2676 0.961 . S
C2669 H2677 0.960 . S
C2670 C2668 1.381 . S
C2670 C2671 1.394 . S
C2670 H2678 0.930 . S
C2671 C2670 1.394 . S
C2671 C2672 1.383 . S
C2671 H2679 0.929 . S
C2672 C2671 1.383 . S
C2672 C2673 1.377 . S
C2673 H2657 0.930 . S
C2673 C2672 1.377 . S
C2673 C2674 1.379 . S
C2674 H2658 0.931 . S
C2674 C2668 1.383 . S
C2674 C2673 1.379 . S
H2675 C2669 0.959 . S
H2676 C2669 0.961 . S
H2677 C2669 0.960 . S
H2678 C2670 0.930 . S
H2679 C2671 0.929 . S
H2680 C2688 0.929 . S
H2681 C2690 0.930 . S
H2682 C2692 0.930 . S
H2683 C2695 0.929 . S
H2684 C2698 0.930 . S
H2685 C2700 0.960 . S
H2686 C2700 0.960 . S
H2687 C2700 0.960 . S
C2688 H2680 0.929 . S
C2688 C2689 1.377 . S
C2688 C2690 1.384 . S
C2689 C2688 1.377 . S
C2689 C2695 1.390 1_455 S
C2690 H2681 0.930 . S
C2690 C2688 1.384 . S
C2690 C2691 1.372 . S
C2691 C2690 1.372 . S
C2691 C2692 1.400 . S
C2691 C2696 1.490 . S
C2692 H2682 0.930 . S
C2692 C2691 1.400 . S
C2692 C2695 1.386 1_455 S
H2693 C2709 0.930 . S
H2694 C2710 0.931 . S
C2695 H2683 0.929 . S
C2695 C2689 1.390 1_655 S
C2695 C2692 1.386 1_655 S
C2696 C2691 1.490 . S
C2696 C2698 1.395 . S
C2696 C2699 1.403 . S
H2697 C2703 0.930 . S
C2698 H2684 0.930 . S
C2698 C2696 1.395 . S
C2698 C2701 1.403 . S
C2699 C2696 1.403 . S
C2699 C2700 1.524 . S
C2699 C2703 1.400 . S
C2700 H2685 0.960 . S
C2700 H2686 0.960 . S
C2700 H2687 0.960 . S
C2700 C2699 1.524 . S
C2701 C2698 1.403 . S
C2701 C2702 1.392 . S
C2701 C2705 1.495 . S
C2702 C2701 1.392 . S
C2702 C2703 1.385 . S
C2702 C2704 1.478 . S
C2703 H2697 0.930 . S
C2703 C2699 1.400 . S
C2703 C2702 1.385 . S
C2704 C2702 1.478 . S
C2704 C2706 1.381 . S
C2704 C2710 1.383 . S
C2705 C2701 1.495 . S
C2705 H2711 0.959 . S
C2705 H2712 0.961 . S
C2705 H2713 0.960 . S
C2706 C2704 1.381 . S
C2706 C2707 1.394 . S
C2706 H2714 0.930 . S
C2707 C2706 1.394 . S
C2707 C2708 1.383 . S
C2707 H2715 0.929 . S
C2708 C2707 1.383 . S
C2708 C2709 1.377 . S
C2709 H2693 0.930 . S
C2709 C2708 1.377 . S
C2709 C2710 1.379 . S
C2710 H2694 0.931 . S
C2710 C2704 1.383 . S
C2710 C2709 1.379 . S
H2711 C2705 0.959 . S
H2712 C2705 0.961 . S
H2713 C2705 0.960 . S
H2714 C2706 0.930 . S
H2715 C2707 0.929 . S
H2716 C2724 0.929 . S
H2717 C2726 0.930 . S
H2718 C2728 0.930 . S
H2719 C2731 0.929 . S
H2720 C2734 0.930 . S
H2721 C2736 0.960 . S
H2722 C2736 0.960 . S
H2723 C2736 0.960 . S
C2724 H2716 0.929 . S
C2724 C2725 1.377 . S
C2724 C2726 1.384 . S
C2725 C2724 1.377 . S
C2725 C2731 1.390 . S
C2726 H2717 0.930 . S
C2726 C2724 1.384 . S
C2726 C2727 1.372 . S
C2727 C2726 1.372 . S
C2727 C2728 1.400 . S
C2727 C2732 1.490 . S
C2728 H2718 0.930 . S
C2728 C2727 1.400 . S
C2728 C2731 1.386 . S
H2729 C2745 0.930 . S
H2730 C2746 0.931 . S
C2731 H2719 0.929 . S
C2731 C2725 1.390 . S
C2731 C2728 1.386 . S
C2732 C2727 1.490 . S
C2732 C2734 1.395 . S
C2732 C2735 1.403 . S
H2733 C2739 0.930 . S
C2734 H2720 0.930 . S
C2734 C2732 1.395 . S
C2734 C2737 1.403 . S
C2735 C2732 1.403 . S
C2735 C2736 1.524 . S
C2735 C2739 1.400 . S
C2736 H2721 0.960 . S
C2736 H2722 0.960 . S
C2736 H2723 0.960 . S
C2736 C2735 1.524 . S
C2737 C2734 1.403 . S
C2737 C2738 1.392 . S
C2737 C2741 1.495 . S
C2738 C2737 1.392 . S
C2738 C2739 1.385 . S
C2738 C2740 1.478 . S
C2739 H2733 0.930 . S
C2739 C2735 1.400 . S
C2739 C2738 1.385 . S
C2740 C2738 1.478 . S
C2740 C2742 1.381 . S
C2740 C2746 1.383 . S
C2741 C2737 1.495 . S
C2741 H2747 0.959 . S
C2741 H2748 0.961 . S
C2741 H2749 0.960 . S
C2742 C2740 1.381 . S
C2742 C2743 1.394 . S
C2742 H2750 0.930 . S
C2743 C2742 1.394 . S
C2743 C2744 1.383 . S
C2743 H2751 0.929 . S
C2744 C2743 1.383 . S
C2744 C2745 1.377 . S
C2745 H2729 0.930 . S
C2745 C2744 1.377 . S
C2745 C2746 1.379 . S
C2746 H2730 0.931 . S
C2746 C2740 1.383 . S
C2746 C2745 1.379 . S
H2747 C2741 0.959 . S
H2748 C2741 0.961 . S
H2749 C2741 0.960 . S
H2750 C2742 0.930 . S
H2751 C2743 0.929 . S
C457 C51 0.909 . S
C476 C9 0.952 . S
C493 C37 0.913 . S
C512 C23 0.873 . S
C529 C107 0.918 . S
C548 C65 0.913 . S
C565 C93 0.919 . S
C584 C79 0.932 . S
C601 C121 0.907 . S
C620 C163 0.947 . S
C637 C135 0.905 . S
C656 C149 0.942 . S
C673 C219 0.901 . S
C692 C177 0.906 . S
C709 C191 0.909 . S
C728 C205 0.868 . S
C745 C233 0.902 . S
C764 C275 0.864 . S
C781 C247 0.914 . S
C800 C261 0.876 . S
C817 C331 0.919 . S
C836 C289 0.927 . S
C853 C317 0.919 . S
C872 C303 0.949 . S
C889 C387 0.913 . S
C908 C345 0.875 . S
C925 C359 0.900 . S
C944 C373 0.905 . S
C961 C401 0.901 . S
C980 C443 0.904 . S
C997 C415 0.899 . S
C1016 C429 0.880 . S
C1033 C283 1.164 . S
C1052 C3 1.140 . S
C1069 C185 1.171 . S
C1088 C17 1.161 . S
C1105 C31 1.163 . S
C1124 C423 1.140 . S
C1141 C45 1.171 . S
C1160 C101 1.183 . S
C1177 C227 1.162 . S
C1196 C59 1.153 . S
C1213 C129 1.171 . S
C1232 C73 1.183 . S
C1249 C367 1.162 . S
C1268 C87 1.161 . S
C1285 C115 1.169 . S
C1304 C395 1.189 . S
C1321 C311 1.170 . S
C1340 C143 1.189 . S
C1357 C213 1.164 . S
C1376 C157 1.174 . S
C1393 C339 1.169 . S
C1412 C171 1.151 . S
C1429 C199 1.169 . S
C1448 C255 1.190 . S
C1465 C409 1.169 . S
C1484 C241 1.150 . S
C1501 C269 1.170 . S
C1520 C325 1.187 . S
C1537 C353 1.168 . S
C1556 C297 1.189 . S
C1573 C437 1.162 . S
C1592 C381 1.146 . S
C1609 C21 1.242 . S
C1628 C7 1.237 . S
C1645 C35 1.243 . S
C1664 C49 1.230 . S
C1681 C63 1.241 . S
C1700 C77 1.232 . S
C1717 C105 1.242 . S
C1736 C91 1.216 . S
C1753 C119 1.241 . S
C1772 C133 1.220 . S
C1789 C147 1.242 . S
C1808 C161 1.242 . S
C1825 C189 1.234 . S
C1844 C175 1.249 . S
C1861 C203 1.239 . S
C1880 C217 1.220 . S
C1897 C231 1.242 . S
C1916 C245 1.232 . S
C1933 C259 1.241 . S
C1952 C273 1.217 . S
C1969 C287 1.242 . S
C1988 C301 1.216 . S
C2005 C329 1.241 . S
C2024 C315 1.216 . S
C2041 C357 1.240 . S
C2060 C343 1.217 . S
C2077 C371 1.241 . S
C2096 C385 1.218 . S
C2113 C399 1.234 . S
C2132 C413 1.254 . S
C2149 C441 1.234 . S
C2168 C427 1.256 . S
C2185 C8 1.504 1_655 S
C2204 C274 1.507 . S
C2221 C22 1.505 . S
C2240 C260 1.508 . S
C2257 C246 1.507 . S
C2276 C36 1.507 1_655 S
C2293 C50 1.504 . S
C2312 C232 1.494 . S
C2329 C330 1.505 . S
C2348 C64 1.494 1_455 S
C2365 C78 1.507 . S
C2384 C316 1.504 . S
C2401 C302 1.505 . S
C2420 C92 1.509 1_455 S
C2437 C106 1.503 . S
C2456 C288 1.503 . S
C2473 C120 1.506 1_655 S
C2492 C386 1.510 . S
C2509 C134 1.504 . S
C2528 C372 1.494 . S
C2545 C148 1.505 1_655 S
C2564 C358 1.496 . S
C2581 C344 1.504 . S
C2600 C162 1.501 . S
C2617 C176 1.504 1_455 S
C2636 C442 1.507 . S
C2653 C190 1.505 . S
C2672 C428 1.510 . S
C2689 C204 1.505 1_455 S
C2708 C414 1.495 . S
C2725 C400 1.505 . S
C2744 C218 1.509 . S
