# Generated by pormake.
# Topology uka, (4)-cn, num edge types: 1
# Building blocks:
#     Node 0, Type 0, BuildingBlock: ICAMEG_clean_sbu_1, # of connection points: 4
#     Node 1, Type 0, BuildingBlock: ICAMEG_clean_sbu_1, # of connection points: 4
#     Node 2, Type 0, BuildingBlock: ICAMEG_clean_sbu_1, # of connection points: 4
#     Node 3, Type 0, BuildingBlock: ICAMEG_clean_sbu_1, # of connection points: 4
#     Node 4, Type 0, BuildingBlock: ICAMEG_clean_sbu_1, # of connection points: 4
#     Node 5, Type 0, BuildingBlock: ICAMEG_clean_sbu_1, # of connection points: 4
#     Node 6, Type 0, BuildingBlock: ICAMEG_clean_sbu_1, # of connection points: 4
#     Node 7, Type 0, BuildingBlock: ICAMEG_clean_sbu_1, # of connection points: 4
#     Node 8, Type 0, BuildingBlock: ICAMEG_clean_sbu_1, # of connection points: 4
#     Node 9, Type 0, BuildingBlock: ICAMEG_clean_sbu_1, # of connection points: 4
#     Node 10, Type 0, BuildingBlock: ICAMEG_clean_sbu_1, # of connection points: 4
#     Node 11, Type 0, BuildingBlock: ICAMEG_clean_sbu_1, # of connection points: 4
#     Node 12, Type 0, BuildingBlock: ICAMEG_clean_sbu_1, # of connection points: 4
#     Node 13, Type 0, BuildingBlock: ICAMEG_clean_sbu_1, # of connection points: 4
#     Node 14, Type 0, BuildingBlock: ICAMEG_clean_sbu_1, # of connection points: 4
#     Node 15, Type 0, BuildingBlock: ICAMEG_clean_sbu_1, # of connection points: 4
#     Node 16, Type 0, BuildingBlock: ICAMEG_clean_sbu_1, # of connection points: 4
#     Node 17, Type 0, BuildingBlock: ICAMEG_clean_sbu_1, # of connection points: 4
#     Node 18, Type 0, BuildingBlock: ICAMEG_clean_sbu_1, # of connection points: 4
#     Node 19, Type 0, BuildingBlock: ICAMEG_clean_sbu_1, # of connection points: 4
#     Node 20, Type 0, BuildingBlock: ICAMEG_clean_sbu_1, # of connection points: 4
#     Node 21, Type 0, BuildingBlock: ICAMEG_clean_sbu_1, # of connection points: 4
#     Node 22, Type 0, BuildingBlock: ICAMEG_clean_sbu_1, # of connection points: 4
#     Node 23, Type 0, BuildingBlock: ICAMEG_clean_sbu_1, # of connection points: 4
#     Node 24, Type 0, BuildingBlock: ICAMEG_clean_sbu_1, # of connection points: 4
#     Node 25, Type 0, BuildingBlock: ICAMEG_clean_sbu_1, # of connection points: 4
#     Node 26, Type 0, BuildingBlock: ICAMEG_clean_sbu_1, # of connection points: 4
#     Node 27, Type 0, BuildingBlock: ICAMEG_clean_sbu_1, # of connection points: 4
#     Node 28, Type 0, BuildingBlock: ICAMEG_clean_sbu_1, # of connection points: 4
#     Node 29, Type 0, BuildingBlock: ICAMEG_clean_sbu_1, # of connection points: 4
#     Node 30, Type 0, BuildingBlock: ICAMEG_clean_sbu_1, # of connection points: 4
#     Node 31, Type 0, BuildingBlock: ICAMEG_clean_sbu_1, # of connection points: 4
#     Edge 32, Type (0, 0), BuildingBlock: KIFKEQ_clean_linker_1, # of connection points: 2
#     Edge 33, Type (0, 0), BuildingBlock: KIFKEQ_clean_linker_1, # of connection points: 2
#     Edge 34, Type (0, 0), BuildingBlock: KIFKEQ_clean_linker_1, # of connection points: 2
#     Edge 35, Type (0, 0), BuildingBlock: KIFKEQ_clean_linker_1, # of connection points: 2
#     Edge 36, Type (0, 0), BuildingBlock: KIFKEQ_clean_linker_1, # of connection points: 2
#     Edge 37, Type (0, 0), BuildingBlock: KIFKEQ_clean_linker_1, # of connection points: 2
#     Edge 38, Type (0, 0), BuildingBlock: KIFKEQ_clean_linker_1, # of connection points: 2
#     Edge 39, Type (0, 0), BuildingBlock: KIFKEQ_clean_linker_1, # of connection points: 2
#     Edge 40, Type (0, 0), BuildingBlock: KIFKEQ_clean_linker_1, # of connection points: 2
#     Edge 41, Type (0, 0), BuildingBlock: KIFKEQ_clean_linker_1, # of connection points: 2
#     Edge 42, Type (0, 0), BuildingBlock: KIFKEQ_clean_linker_1, # of connection points: 2
#     Edge 43, Type (0, 0), BuildingBlock: KIFKEQ_clean_linker_1, # of connection points: 2
#     Edge 44, Type (0, 0), BuildingBlock: KIFKEQ_clean_linker_1, # of connection points: 2
#     Edge 45, Type (0, 0), BuildingBlock: KIFKEQ_clean_linker_1, # of connection points: 2
#     Edge 46, Type (0, 0), BuildingBlock: KIFKEQ_clean_linker_1, # of connection points: 2
#     Edge 47, Type (0, 0), BuildingBlock: KIFKEQ_clean_linker_1, # of connection points: 2
#     Edge 48, Type (0, 0), BuildingBlock: KIFKEQ_clean_linker_1, # of connection points: 2
#     Edge 49, Type (0, 0), BuildingBlock: KIFKEQ_clean_linker_1, # of connection points: 2
#     Edge 50, Type (0, 0), BuildingBlock: KIFKEQ_clean_linker_1, # of connection points: 2
#     Edge 51, Type (0, 0), BuildingBlock: KIFKEQ_clean_linker_1, # of connection points: 2
#     Edge 52, Type (0, 0), BuildingBlock: KIFKEQ_clean_linker_1, # of connection points: 2
#     Edge 53, Type (0, 0), BuildingBlock: KIFKEQ_clean_linker_1, # of connection points: 2
#     Edge 54, Type (0, 0), BuildingBlock: KIFKEQ_clean_linker_1, # of connection points: 2
#     Edge 55, Type (0, 0), BuildingBlock: KIFKEQ_clean_linker_1, # of connection points: 2
#     Edge 56, Type (0, 0), BuildingBlock: KIFKEQ_clean_linker_1, # of connection points: 2
#     Edge 57, Type (0, 0), BuildingBlock: KIFKEQ_clean_linker_1, # of connection points: 2
#     Edge 58, Type (0, 0), BuildingBlock: KIFKEQ_clean_linker_1, # of connection points: 2
#     Edge 59, Type (0, 0), BuildingBlock: KIFKEQ_clean_linker_1, # of connection points: 2
#     Edge 60, Type (0, 0), BuildingBlock: KIFKEQ_clean_linker_1, # of connection points: 2
#     Edge 61, Type (0, 0), BuildingBlock: KIFKEQ_clean_linker_1, # of connection points: 2
#     Edge 62, Type (0, 0), BuildingBlock: KIFKEQ_clean_linker_1, # of connection points: 2
#     Edge 63, Type (0, 0), BuildingBlock: KIFKEQ_clean_linker_1, # of connection points: 2
#     Edge 64, Type (0, 0), BuildingBlock: KIFKEQ_clean_linker_1, # of connection points: 2
#     Edge 65, Type (0, 0), BuildingBlock: KIFKEQ_clean_linker_1, # of connection points: 2
#     Edge 66, Type (0, 0), BuildingBlock: KIFKEQ_clean_linker_1, # of connection points: 2
#     Edge 67, Type (0, 0), BuildingBlock: KIFKEQ_clean_linker_1, # of connection points: 2
#     Edge 68, Type (0, 0), BuildingBlock: KIFKEQ_clean_linker_1, # of connection points: 2
#     Edge 69, Type (0, 0), BuildingBlock: KIFKEQ_clean_linker_1, # of connection points: 2
#     Edge 70, Type (0, 0), BuildingBlock: KIFKEQ_clean_linker_1, # of connection points: 2
#     Edge 71, Type (0, 0), BuildingBlock: KIFKEQ_clean_linker_1, # of connection points: 2
#     Edge 72, Type (0, 0), BuildingBlock: KIFKEQ_clean_linker_1, # of connection points: 2
#     Edge 73, Type (0, 0), BuildingBlock: KIFKEQ_clean_linker_1, # of connection points: 2
#     Edge 74, Type (0, 0), BuildingBlock: KIFKEQ_clean_linker_1, # of connection points: 2
#     Edge 75, Type (0, 0), BuildingBlock: KIFKEQ_clean_linker_1, # of connection points: 2
#     Edge 76, Type (0, 0), BuildingBlock: KIFKEQ_clean_linker_1, # of connection points: 2
#     Edge 77, Type (0, 0), BuildingBlock: KIFKEQ_clean_linker_1, # of connection points: 2
#     Edge 78, Type (0, 0), BuildingBlock: KIFKEQ_clean_linker_1, # of connection points: 2
#     Edge 79, Type (0, 0), BuildingBlock: KIFKEQ_clean_linker_1, # of connection points: 2
#     Edge 80, Type (0, 0), BuildingBlock: KIFKEQ_clean_linker_1, # of connection points: 2
#     Edge 81, Type (0, 0), BuildingBlock: KIFKEQ_clean_linker_1, # of connection points: 2
#     Edge 82, Type (0, 0), BuildingBlock: KIFKEQ_clean_linker_1, # of connection points: 2
#     Edge 83, Type (0, 0), BuildingBlock: KIFKEQ_clean_linker_1, # of connection points: 2
#     Edge 84, Type (0, 0), BuildingBlock: KIFKEQ_clean_linker_1, # of connection points: 2
#     Edge 85, Type (0, 0), BuildingBlock: KIFKEQ_clean_linker_1, # of connection points: 2
#     Edge 86, Type (0, 0), BuildingBlock: KIFKEQ_clean_linker_1, # of connection points: 2
#     Edge 87, Type (0, 0), BuildingBlock: KIFKEQ_clean_linker_1, # of connection points: 2
#     Edge 88, Type (0, 0), BuildingBlock: KIFKEQ_clean_linker_1, # of connection points: 2
#     Edge 89, Type (0, 0), BuildingBlock: KIFKEQ_clean_linker_1, # of connection points: 2
#     Edge 90, Type (0, 0), BuildingBlock: KIFKEQ_clean_linker_1, # of connection points: 2
#     Edge 91, Type (0, 0), BuildingBlock: KIFKEQ_clean_linker_1, # of connection points: 2
#     Edge 92, Type (0, 0), BuildingBlock: KIFKEQ_clean_linker_1, # of connection points: 2
#     Edge 93, Type (0, 0), BuildingBlock: KIFKEQ_clean_linker_1, # of connection points: 2
#     Edge 94, Type (0, 0), BuildingBlock: KIFKEQ_clean_linker_1, # of connection points: 2
#     Edge 95, Type (0, 0), BuildingBlock: KIFKEQ_clean_linker_1, # of connection points: 2
# Relax obj value: 0.036
# Max RMSD: 0.067
# Mean RMSD: 0.067
data_MOF--net-uka--node1-ICAMEG_clean_sbu_1--edge1-KIFKEQ_clean_linker_1
_symmetry_space_group_name_H-M    P1
_symmetry_Int_Tables_number       1
_symmetry_cell_setting            triclinic
loop_
_symmetry_equiv_pos_as_xyz
'x, y, z'
_cell_length_a     64.117439
_cell_length_b     64.120959
_cell_length_c     47.62625
_cell_angle_alpha  89.992407
_cell_angle_beta   90.006843
_cell_angle_gamma 89.995316
loop_
_atom_site_label
_atom_site_type_symbol
_atom_site_fract_x
_atom_site_fract_y
_atom_site_fract_z
_atom_type_partial_charge
Co0 Co 0.10415 0.28158 0.26487 0.0
Co1 Co 0.14496 0.29733 0.30641 0.0
O2 O 0.13312 0.2904 0.2697 0.0
C3 C 0.1098 0.31438 0.22116 0.0
O4 O 0.12111 0.3253 0.2388 0.0
C5 C 0.17483 0.26713 0.28198 0.0
O6 O 0.15874 0.25544 0.27546 0.0
O7 O 0.13556 0.27012 0.32236 0.0
O8 O 0.10451 0.26615 0.30135 0.0
H9 H 0.14474 0.30364 0.41156 0.0
H10 H 0.13427 0.27386 0.21886 0.0
O11 O 0.10245 0.29671 0.22823 0.0
H12 H 0.1087 0.20432 0.24664 0.0
H13 H 0.0431 0.25427 0.20959 0.0
H14 H 0.06699 0.27958 0.30192 0.0
H15 H 0.0955 0.23596 0.2701 0.0
H16 H 0.07948 0.26565 0.21637 0.0
O17 O 0.17212 0.2843 0.29492 0.0
H18 H 0.12978 0.29537 0.36516 0.0
H19 H 0.18624 0.31348 0.3254 0.0
H20 H 0.03049 0.26817 0.29612 0.0
H21 H 0.14774 0.24263 0.19464 0.0
H22 H 0.01848 0.2552 0.24971 0.0
H23 H 0.13499 0.20755 0.20857 0.0
O24 O 0.09414 0.30695 0.2846 0.0
H25 H 0.17933 0.34341 0.23468 0.0
H26 H 0.14167 0.34168 0.32492 0.0
H27 H 0.15274 0.37548 0.30526 0.0
H28 H 0.17178 0.37649 0.25985 0.0
H29 H 0.16773 0.30997 0.25493 0.0
H30 H 0.20187 0.32178 0.37139 0.0
H31 H 0.18104 0.31694 0.41488 0.0
O32 O 0.11808 0.3107 0.31866 0.0
C33 C 0.11774 0.26142 0.3203 0.0
C34 C 0.15395 0.30587 0.39276 0.0
C35 C 0.18603 0.31603 0.37021 0.0
N36 N 0.15707 0.30408 0.3426 0.0
C37 C 0.14555 0.30127 0.36642 0.0
C38 C 0.17711 0.31126 0.34424 0.0
C39 C 0.17433 0.31332 0.3946 0.0
C40 C 0.12848 0.25866 0.22482 0.0
N41 N 0.11406 0.25675 0.24578 0.0
C42 C 0.13624 0.24103 0.21112 0.0
C43 C 0.1291 0.22135 0.21899 0.0
C44 C 0.11437 0.21952 0.24037 0.0
C45 C 0.107 0.2375 0.25364 0.0
C46 C 0.04822 0.25976 0.22994 0.0
C47 C 0.06185 0.27391 0.2817 0.0
C48 C 0.06879 0.26626 0.2339 0.0
N49 N 0.07542 0.27299 0.25963 0.0
C50 C 0.04116 0.26754 0.27852 0.0
C51 C 0.03439 0.26033 0.25247 0.0
C52 C 0.10038 0.31493 0.30765 0.0
C53 C 0.1711 0.34317 0.25452 0.0
C54 C 0.14982 0.34199 0.30507 0.0
C55 C 0.15612 0.36117 0.29409 0.0
C56 C 0.16682 0.36173 0.26863 0.0
N57 N 0.15408 0.32385 0.29111 0.0
C58 C 0.16458 0.32427 0.26615 0.0
Co59 Co 0.96741 0.8544 0.51559 0.0
Co60 Co 0.9532 0.89597 0.55604 0.0
O61 O 0.95946 0.88362 0.51949 0.0
C62 C 0.9348 0.86003 0.4718 0.0
O63 O 0.92366 0.87077 0.48983 0.0
C64 C 0.98312 0.92611 0.53113 0.0
O65 O 0.99618 0.91055 0.52759 0.0
O66 O 0.98086 0.88693 0.57088 0.0
O67 O 0.98265 0.85485 0.5523 0.0
H68 H 0.94991 0.89797 0.66142 0.0
H69 H 0.97663 0.88401 0.46953 0.0
O70 O 0.95256 0.85282 0.47874 0.0
H71 H 0.04489 0.85568 0.49819 0.0
H72 H 0.99185 0.7911 0.46234 0.0
H73 H 0.96794 0.81792 0.55387 0.0
H74 H 0.01259 0.84383 0.52133 0.0
H75 H 0.98269 0.82823 0.46804 0.0
O76 O 0.96548 0.92299 0.5427 0.0
H77 H 0.95714 0.88214 0.61524 0.0
H78 H 0.93699 0.93741 0.57423 0.0
H79 H 0.97711 0.78074 0.54916 0.0
H80 H 0.00854 0.89618 0.44565 0.0
H81 H 0.98911 0.76712 0.50312 0.0
H82 H 0.04298 0.88202 0.46003 0.0
O83 O 0.94152 0.84566 0.53519 0.0
H84 H 0.9048 0.92834 0.48536 0.0
H85 H 0.90942 0.89259 0.57683 0.0
H86 H 0.87498 0.90288 0.55842 0.0
H87 H 0.87252 0.92095 0.5124 0.0
H88 H 0.93891 0.91753 0.50436 0.0
H89 H 0.92969 0.9539 0.61998 0.0
H90 H 0.93607 0.9341 0.66399 0.0
O91 O 0.94048 0.86918 0.57006 0.0
C92 C 0.98859 0.86862 0.56991 0.0
C93 C 0.94699 0.90672 0.64239 0.0
C94 C 0.93567 0.93812 0.61913 0.0
N95 N 0.9473 0.90876 0.59207 0.0
C96 C 0.95099 0.89782 0.61618 0.0
C97 C 0.93987 0.92872 0.59329 0.0
C98 C 0.93925 0.92701 0.64382 0.0
C99 C 0.99154 0.87764 0.4757 0.0
N100 N 0.99273 0.86315 0.49667 0.0
C101 C 0.00956 0.88465 0.46219 0.0
C102 C 0.02889 0.87672 0.4703 0.0
C103 C 0.02997 0.86195 0.49172 0.0
C104 C 0.01163 0.85533 0.50478 0.0
C105 C 0.98667 0.79687 0.48252 0.0
C106 C 0.97332 0.81215 0.53383 0.0
C107 C 0.98144 0.81787 0.48587 0.0
N108 N 0.97498 0.82528 0.51134 0.0
C109 C 0.97843 0.79106 0.53126 0.0
C110 C 0.98515 0.78342 0.50542 0.0
C111 C 0.93494 0.85186 0.55902 0.0
C112 C 0.90567 0.92053 0.50547 0.0
C113 C 0.90848 0.90033 0.55671 0.0
C114 C 0.88893 0.90619 0.54644 0.0
C115 C 0.88757 0.91635 0.52063 0.0
N116 N 0.92617 0.9045 0.54172 0.0
C117 C 0.92495 0.91446 0.51641 0.0
Co118 Co 0.39387 0.72285 0.76628 0.0
Co119 Co 0.3538 0.70219 0.8063 0.0
O120 O 0.36596 0.71096 0.77045 0.0
C121 C 0.39297 0.68742 0.72596 0.0
O122 O 0.38243 0.67645 0.74439 0.0
C123 C 0.32348 0.73211 0.78241 0.0
O124 O 0.33942 0.74423 0.77666 0.0
O125 O 0.36192 0.72892 0.82481 0.0
O126 O 0.38997 0.74013 0.80068 0.0
H127 H 0.35267 0.69108 0.91073 0.0
H128 H 0.36434 0.7243 0.71843 0.0
O129 O 0.39858 0.70602 0.73149 0.0
H130 H 0.38103 0.79773 0.73943 0.0
H131 H 0.45415 0.75281 0.71174 0.0
H132 H 0.42867 0.73199 0.80534 0.0
H133 H 0.39726 0.76929 0.7666 0.0
H134 H 0.4187 0.73849 0.71761 0.0
O135 O 0.32637 0.71477 0.79491 0.0
H136 H 0.368 0.702 0.86556 0.0
H137 H 0.31282 0.68387 0.82268 0.0
H138 H 0.46418 0.74638 0.80046 0.0
H139 H 0.3479 0.75225 0.69057 0.0
H140 H 0.47713 0.75688 0.75338 0.0
H141 H 0.35616 0.78928 0.70108 0.0
O142 O 0.40634 0.69999 0.7891 0.0
H143 H 0.32276 0.65804 0.72977 0.0
H144 H 0.35845 0.65729 0.82149 0.0
H145 H 0.34921 0.624 0.79876 0.0
H146 H 0.3312 0.62424 0.75258 0.0
H147 H 0.33247 0.69097 0.7531 0.0
H148 H 0.29682 0.67292 0.86741 0.0
H149 H 0.31682 0.67642 0.91183 0.0
O150 O 0.38086 0.68944 0.81823 0.0
C151 C 0.37702 0.74152 0.82087 0.0
C152 C 0.34382 0.68942 0.8915 0.0
C153 C 0.31246 0.67926 0.86719 0.0
N154 N 0.34137 0.69345 0.8415 0.0
C155 C 0.35244 0.69553 0.86586 0.0
C156 C 0.32158 0.68554 0.84194 0.0
C157 C 0.32369 0.68122 0.89211 0.0
C158 C 0.36819 0.74036 0.72292 0.0
N159 N 0.38181 0.74514 0.74402 0.0
C160 C 0.35876 0.75613 0.70716 0.0
C161 C 0.36338 0.7769 0.7131 0.0
C162 C 0.37732 0.78165 0.73462 0.0
C163 C 0.38643 0.76548 0.74997 0.0
C164 C 0.44867 0.74833 0.73238 0.0
C165 C 0.43415 0.73667 0.78482 0.0
C166 C 0.42862 0.74018 0.73582 0.0
N167 N 0.42157 0.73456 0.76183 0.0
C168 C 0.45429 0.74474 0.78217 0.0
C169 C 0.46155 0.75061 0.75574 0.0
C170 C 0.39971 0.68903 0.80961 0.0
C171 C 0.33054 0.65773 0.74993 0.0
C172 C 0.35069 0.65753 0.80135 0.0
C173 C 0.34544 0.63863 0.78861 0.0
C174 C 0.33532 0.63878 0.76272 0.0
N175 N 0.34594 0.67607 0.78869 0.0
C176 C 0.33599 0.67633 0.76331 0.0
Co177 Co 0.53189 0.14718 0.01437 0.0
Co178 Co 0.54681 0.10705 0.05717 0.0
O179 O 0.54039 0.11827 0.01998 0.0
C180 C 0.56531 0.14187 0.9716 0.0
O181 O 0.57735 0.13378 0.99107 0.0
C182 C 0.51755 0.07652 0.03235 0.0
O183 O 0.50564 0.0924 0.02562 0.0
O184 O 0.51917 0.11636 0.07171 0.0
O185 O 0.51651 0.14764 0.05097 0.0
H186 H 0.55058 0.10844 0.16253 0.0
H187 H 0.52349 0.1163 0.96947 0.0
O188 O 0.54684 0.14768 0.97756 0.0
H189 H 0.45453 0.14379 0.99652 0.0
H190 H 0.50654 0.20814 0.95707 0.0
H191 H 0.53052 0.18491 0.05036 0.0
H192 H 0.48647 0.15683 0.0194 0.0
H193 H 0.51633 0.17142 0.96517 0.0
O194 O 0.53451 0.07956 0.04569 0.0
H195 H 0.54307 0.12274 0.11552 0.0
H196 H 0.56335 0.06633 0.07761 0.0
H197 H 0.52071 0.22173 0.04325 0.0
H198 H 0.49195 0.10299 0.94583 0.0
H199 H 0.50867 0.23355 0.9963 0.0
H200 H 0.45715 0.1167 0.95941 0.0
O201 O 0.55749 0.15707 0.03372 0.0
H202 H 0.59505 0.07349 0.98736 0.0
H203 H 0.59066 0.11104 0.07753 0.0
H204 H 0.62507 0.10058 0.05921 0.0
H205 H 0.62742 0.08162 0.01384 0.0
H206 H 0.56096 0.08441 0.00632 0.0
H207 H 0.57092 0.05134 0.12423 0.0
H208 H 0.56461 0.07249 0.16709 0.0
O209 O 0.5595 0.13429 0.06943 0.0
C210 C 0.511 0.13443 0.06959 0.0
C211 C 0.55346 0.0991 0.14401 0.0
C212 C 0.56485 0.06704 0.12251 0.0
N213 N 0.55295 0.09546 0.09385 0.0
C214 C 0.5493 0.10714 0.11733 0.0
C215 C 0.5605 0.0756 0.09618 0.0
C216 C 0.56132 0.07892 0.14655 0.0
C217 C 0.50842 0.12251 0.97527 0.0
N218 N 0.50683 0.13737 0.99572 0.0
C219 C 0.49061 0.11484 0.96191 0.0
C220 C 0.47109 0.12251 0.96957 0.0
C221 C 0.4696 0.1377 0.99041 0.0
C222 C 0.48774 0.14498 0.00336 0.0
C223 C 0.51173 0.20316 0.97764 0.0
C224 C 0.52512 0.1899 0.02994 0.0
C225 C 0.51733 0.1824 0.98234 0.0
N226 N 0.52381 0.17599 0.00828 0.0
C227 C 0.51966 0.21079 0.02601 0.0
C228 C 0.51291 0.21741 0.99966 0.0
C229 C 0.56454 0.15147 0.05759 0.0
C230 C 0.59423 0.08168 0.0072 0.0
C231 C 0.59155 0.10285 0.05773 0.0
C232 C 0.61108 0.09693 0.04749 0.0
C233 C 0.61238 0.08628 0.02205 0.0
N234 N 0.5738 0.09825 0.04307 0.0
C235 C 0.57496 0.08783 0.0181 0.0
Co236 Co 0.11187 0.72611 0.23593 0.0
Co237 Co 0.14809 0.70037 0.19476 0.0
O238 O 0.13838 0.71182 0.23045 0.0
C239 C 0.11076 0.69167 0.27745 0.0
O240 O 0.11785 0.6792 0.25778 0.0
C241 C 0.1809 0.73013 0.21165 0.0
O242 O 0.16592 0.74389 0.21477 0.0
O243 O 0.14051 0.72643 0.174 0.0
O244 O 0.11544 0.74163 0.20006 0.0
H245 H 0.14358 0.6832 0.09199 0.0
H246 H 0.14374 0.7268 0.28101 0.0
O247 O 0.10766 0.7109 0.27218 0.0
H248 H 0.13207 0.80051 0.25596 0.0
H249 H 0.05704 0.7629 0.29316 0.0
H250 H 0.07611 0.73681 0.19919 0.0
H251 H 0.11226 0.77257 0.23242 0.0
H252 H 0.09085 0.74546 0.28535 0.0
O253 O 0.17664 0.71182 0.2029 0.0
H254 H 0.13105 0.6976 0.13696 0.0
H255 H 0.18714 0.67884 0.17715 0.0
H256 H 0.04221 0.75429 0.20601 0.0
H257 H 0.16379 0.75427 0.30525 0.0
H258 H 0.03248 0.76746 0.25328 0.0
H259 H 0.15805 0.79142 0.29268 0.0
O260 O 0.09655 0.70365 0.21565 0.0
H261 H 0.17961 0.65874 0.2735 0.0
H262 H 0.1403 0.65515 0.18463 0.0
H263 H 0.14846 0.6227 0.21016 0.0
H264 H 0.16827 0.62437 0.25492 0.0
H265 H 0.17096 0.69082 0.24743 0.0
H266 H 0.20036 0.6644 0.13256 0.0
H267 H 0.17848 0.66647 0.0896 0.0
O268 O 0.11978 0.68878 0.18644 0.0
C269 C 0.12692 0.74062 0.17831 0.0
C270 C 0.15324 0.68216 0.11058 0.0
C271 C 0.18512 0.67164 0.13334 0.0
N272 N 0.15829 0.68893 0.15968 0.0
C273 C 0.1462 0.69023 0.13612 0.0
C274 C 0.17758 0.67988 0.15851 0.0
C275 C 0.17283 0.67279 0.10925 0.0
C276 C 0.141 0.74295 0.27565 0.0
N277 N 0.12676 0.74808 0.25546 0.0
C278 C 0.15246 0.75843 0.28935 0.0
C279 C 0.14926 0.77927 0.28226 0.0
C280 C 0.13469 0.78438 0.26166 0.0
C281 C 0.12354 0.76849 0.24837 0.0
C282 C 0.06112 0.75726 0.27245 0.0
C283 C 0.07204 0.74263 0.21978 0.0
C284 C 0.08021 0.74733 0.26792 0.0
N285 N 0.08549 0.74024 0.24181 0.0
C286 C 0.0528 0.75246 0.22353 0.0
C287 C 0.04734 0.75982 0.25007 0.0
C288 C 0.10132 0.69086 0.19612 0.0
C289 C 0.17101 0.6578 0.25398 0.0
C290 C 0.14888 0.65601 0.20413 0.0
C291 C 0.15349 0.63758 0.21846 0.0
C292 C 0.16462 0.63853 0.24357 0.0
N293 N 0.15522 0.67486 0.21446 0.0
C294 C 0.16615 0.67591 0.23906 0.0
Co295 Co 0.53128 0.85766 0.48713 0.0
Co296 Co 0.54873 0.89758 0.44406 0.0
O297 O 0.54217 0.88584 0.48108 0.0
C298 C 0.56786 0.86074 0.52597 0.0
O299 O 0.57712 0.87395 0.50906 0.0
C300 C 0.51884 0.92736 0.46927 0.0
O301 O 0.50756 0.91118 0.47663 0.0
O302 O 0.52155 0.88811 0.428 0.0
O303 O 0.51234 0.86051 0.4542 0.0
H304 H 0.55489 0.89687 0.33889 0.0
H305 H 0.53151 0.88818 0.53378 0.0
O306 O 0.54986 0.85351 0.52037 0.0
H307 H 0.45772 0.86865 0.52123 0.0
H308 H 0.50551 0.7974 0.54549 0.0
H309 H 0.52123 0.82211 0.44974 0.0
H310 H 0.48509 0.8527 0.49189 0.0
H311 H 0.51863 0.83308 0.53763 0.0
O312 O 0.53566 0.92475 0.45546 0.0
H313 H 0.54679 0.8821 0.38544 0.0
H314 H 0.56462 0.93885 0.42465 0.0
H315 H 0.50796 0.78636 0.45665 0.0
H316 H 0.50469 0.9044 0.5638 0.0
H317 H 0.50002 0.77379 0.50481 0.0
H318 H 0.46747 0.89471 0.55753 0.0
O319 O 0.55333 0.8455 0.46275 0.0
H320 H 0.59506 0.93288 0.51474 0.0
H321 H 0.593 0.89401 0.42544 0.0
H322 H 0.62687 0.9054 0.44458 0.0
H323 H 0.62804 0.92505 0.4895 0.0
H324 H 0.56155 0.92093 0.49506 0.0
H325 H 0.57276 0.9543 0.3785 0.0
H326 H 0.56797 0.93324 0.33521 0.0
O327 O 0.56195 0.87075 0.4321 0.0
C328 C 0.50965 0.87268 0.43337 0.0
C329 C 0.55709 0.90619 0.3576 0.0
C330 C 0.5671 0.93843 0.37983 0.0
N331 N 0.55535 0.90955 0.40774 0.0
C332 C 0.55259 0.89789 0.38402 0.0
C333 C 0.56242 0.92962 0.4059 0.0
C334 C 0.56442 0.9266 0.35555 0.0
C335 C 0.51537 0.88375 0.53111 0.0
N336 N 0.50987 0.86951 0.51109 0.0
C337 C 0.50024 0.89304 0.5481 0.0
C338 C 0.47936 0.88762 0.54453 0.0
C339 C 0.47388 0.87302 0.52415 0.0
C340 C 0.48943 0.86409 0.50751 0.0
C341 C 0.50886 0.80271 0.5244 0.0
C342 C 0.51766 0.8168 0.47075 0.0
C343 C 0.51634 0.82289 0.51982 0.0
N344 N 0.52053 0.82973 0.49322 0.0
C345 C 0.51021 0.79652 0.47453 0.0
C346 C 0.50578 0.78947 0.50156 0.0
C347 C 0.56326 0.85208 0.44129 0.0
C348 C 0.59475 0.92438 0.49511 0.0
C349 C 0.59338 0.90241 0.4451 0.0
C350 C 0.6126 0.9089 0.45578 0.0
C351 C 0.61325 0.91994 0.48097 0.0
N352 N 0.5753 0.90684 0.45909 0.0
C353 C 0.5758 0.91767 0.48379 0.0
Co354 Co 0.39725 0.28318 0.73609 0.0
Co355 Co 0.35612 0.29834 0.69465 0.0
O356 O 0.36814 0.29164 0.7314 0.0
C357 C 0.39168 0.31631 0.77923 0.0
O358 O 0.38019 0.32701 0.76155 0.0
C359 C 0.32628 0.26829 0.71974 0.0
O360 O 0.34234 0.25671 0.72672 0.0
O361 O 0.36568 0.27109 0.67894 0.0
O362 O 0.39682 0.26753 0.69983 0.0
H363 H 0.35603 0.30411 0.58944 0.0
H364 H 0.36744 0.2754 0.78241 0.0
O365 O 0.39899 0.29856 0.77246 0.0
H366 H 0.3938 0.20601 0.75534 0.0
H367 H 0.4594 0.25786 0.7911 0.0
H368 H 0.43416 0.28148 0.69861 0.0
H369 H 0.4065 0.23765 0.73139 0.0
H370 H 0.42258 0.26786 0.78448 0.0
O371 O 0.32903 0.28527 0.70636 0.0
H372 H 0.37113 0.29612 0.63585 0.0
H373 H 0.31471 0.31423 0.6757 0.0
H374 H 0.47106 0.27146 0.70424 0.0
H375 H 0.35446 0.24417 0.80712 0.0
H376 H 0.4839 0.25954 0.75076 0.0
H377 H 0.36761 0.20916 0.79354 0.0
O378 O 0.40687 0.30853 0.71608 0.0
H379 H 0.32176 0.34458 0.7662 0.0
H380 H 0.35902 0.34262 0.67567 0.0
H381 H 0.34781 0.37645 0.6951 0.0
H382 H 0.32897 0.37757 0.74065 0.0
H383 H 0.3335 0.31111 0.74618 0.0
H384 H 0.29893 0.32225 0.62971 0.0
H385 H 0.31967 0.31728 0.58617 0.0
O386 O 0.38285 0.31183 0.68208 0.0
C387 C 0.38359 0.26256 0.68101 0.0
C388 C 0.34685 0.3064 0.60826 0.0
C389 C 0.3148 0.31655 0.63087 0.0
N390 N 0.34387 0.30484 0.65846 0.0
C391 C 0.35534 0.30195 0.6346 0.0
C392 C 0.3238 0.31194 0.65684 0.0
C393 C 0.32645 0.31377 0.60645 0.0
C394 C 0.3734 0.26023 0.77661 0.0
N395 N 0.38776 0.25836 0.75557 0.0
C396 C 0.36592 0.2426 0.79058 0.0
C397 C 0.37328 0.22296 0.78291 0.0
C398 C 0.38796 0.22118 0.76146 0.0
C399 C 0.39505 0.23915 0.74792 0.0
C400 C 0.45398 0.26295 0.7707 0.0
C401 C 0.43958 0.27613 0.71885 0.0
C402 C 0.43315 0.26865 0.76682 0.0
N403 N 0.42616 0.275 0.74108 0.0
C404 C 0.46051 0.27056 0.72194 0.0
C405 C 0.46771 0.2639 0.74806 0.0
C406 C 0.40051 0.31632 0.69299 0.0
C407 C 0.3299 0.34429 0.74629 0.0
C408 C 0.35096 0.34298 0.69558 0.0
C409 C 0.34458 0.36218 0.70643 0.0
C410 C 0.33399 0.3628 0.73197 0.0
N411 N 0.34689 0.32489 0.70975 0.0
C412 C 0.3365 0.32537 0.73479 0.0
Co413 Co 0.97935 0.14118 0.9838 0.0
Co414 Co 0.95291 0.10436 0.94453 0.0
O415 O 0.96508 0.11457 0.97951 0.0
C416 C 0.94584 0.14275 0.02648 0.0
O417 O 0.93301 0.1357 0.0072 0.0
C418 C 0.98292 0.07175 0.96135 0.0
O419 O 0.9968 0.08672 0.96345 0.0
O420 O 0.97857 0.11155 0.92268 0.0
O421 O 0.99396 0.13733 0.94729 0.0
H422 H 0.93373 0.1073 0.8423 0.0
H423 H 0.98135 0.10988 0.02952 0.0
O424 O 0.965 0.14569 0.02063 0.0
H425 H 0.05432 0.12146 0.00075 0.0
H426 H 0.01725 0.19677 0.03833 0.0
H427 H 0.98899 0.1766 0.94592 0.0
H428 H 0.0257 0.1409 0.97811 0.0
H429 H 0.99977 0.16282 0.03194 0.0
O430 O 0.96446 0.07592 0.95311 0.0
H431 H 0.94906 0.12048 0.88637 0.0
H432 H 0.93095 0.06511 0.92882 0.0
H433 H 0.00648 0.21063 0.95132 0.0
H434 H 0.00951 0.09021 0.05288 0.0
H435 H 0.02074 0.22091 0.9978 0.0
H436 H 0.04629 0.09591 0.03844 0.0
O437 O 0.95635 0.15616 0.96423 0.0
H438 H 0.91274 0.07425 0.02561 0.0
H439 H 0.90752 0.11214 0.93577 0.0
H440 H 0.87556 0.10452 0.96268 0.0
H441 H 0.87805 0.08542 0.00793 0.0
H442 H 0.94433 0.08235 0.99816 0.0
H443 H 0.91558 0.05124 0.88514 0.0
H444 H 0.91684 0.07244 0.84151 0.0
O445 O 0.9412 0.13258 0.93579 0.0
C446 C 0.99263 0.12543 0.92596 0.0
C447 C 0.93303 0.09794 0.86119 0.0
C448 C 0.92287 0.06647 0.88523 0.0
N449 N 0.94077 0.09364 0.91016 0.0
C450 C 0.94163 0.10535 0.88622 0.0
C451 C 0.93165 0.07437 0.90987 0.0
C452 C 0.92358 0.07837 0.86076 0.0
C453 C 0.99734 0.1126 0.02334 0.0
N454 N 0.00188 0.12661 0.00262 0.0
C455 C 0.01321 0.10135 0.03655 0.0
C456 C 0.03384 0.10454 0.02841 0.0
C457 C 0.03835 0.11887 0.00726 0.0
C458 C 0.02208 0.12981 0.99449 0.0
C459 C 0.01113 0.19245 0.01796 0.0
C460 C 0.99528 0.18091 0.96617 0.0
C461 C 0.00118 0.17327 0.01423 0.0
N462 N 0.99349 0.16769 0.98855 0.0
C463 C 0.00511 0.20022 0.96912 0.0
C464 C 0.01309 0.20599 0.99521 0.0
C465 C 0.94332 0.15114 0.94511 0.0
C466 C 0.91145 0.08253 0.00588 0.0
C467 C 0.90874 0.10387 0.95547 0.0
C468 C 0.89058 0.09956 0.97059 0.0
C469 C 0.89199 0.08883 0.99597 0.0
N470 N 0.92777 0.09762 0.96531 0.0
C471 C 0.92927 0.08708 0.99018 0.0
Co472 Co 0.89136 0.72428 0.73868 0.0
Co473 Co 0.8538 0.70049 0.69719 0.0
O474 O 0.86465 0.71015 0.73342 0.0
C475 C 0.89271 0.68803 0.77787 0.0
O476 O 0.88165 0.67704 0.76005 0.0
C477 C 0.82217 0.72978 0.71906 0.0
O478 O 0.83774 0.74226 0.7252 0.0
O479 O 0.86156 0.72716 0.67805 0.0
O480 O 0.88606 0.74211 0.70524 0.0
H481 H 0.85602 0.68737 0.59322 0.0
H482 H 0.86145 0.72161 0.78597 0.0
O483 O 0.89759 0.70686 0.77253 0.0
H484 H 0.87191 0.79682 0.76958 0.0
H485 H 0.94859 0.75771 0.79546 0.0
H486 H 0.92527 0.73777 0.7005 0.0
H487 H 0.89077 0.77079 0.74115 0.0
H488 H 0.91458 0.7405 0.78844 0.0
O489 O 0.82568 0.71242 0.7069 0.0
H490 H 0.86975 0.69952 0.63875 0.0
H491 H 0.81383 0.68079 0.67935 0.0
H492 H 0.95934 0.75509 0.70655 0.0
H493 H 0.84238 0.74711 0.81504 0.0
H494 H 0.9712 0.76516 0.75431 0.0
H495 H 0.8475 0.78501 0.80684 0.0
O496 O 0.90589 0.70335 0.71479 0.0
H497 H 0.82191 0.65659 0.77338 0.0
H498 H 0.86028 0.65555 0.68366 0.0
H499 H 0.85139 0.62234 0.70687 0.0
H500 H 0.83202 0.62273 0.75204 0.0
H501 H 0.83131 0.68944 0.74962 0.0
H502 H 0.79941 0.6686 0.63421 0.0
H503 H 0.8206 0.67178 0.59076 0.0
O504 O 0.88163 0.68849 0.68711 0.0
C505 C 0.87452 0.7417 0.68351 0.0
C506 C 0.84665 0.68585 0.61202 0.0
C507 C 0.81487 0.67534 0.63502 0.0
N508 N 0.84265 0.69076 0.66169 0.0
C509 C 0.85437 0.69266 0.63787 0.0
C510 C 0.82309 0.68232 0.6605 0.0
C511 C 0.82677 0.67713 0.61065 0.0
C512 C 0.86393 0.73808 0.78249 0.0
N513 N 0.87728 0.7447 0.762 0.0
C514 C 0.85302 0.75244 0.79893 0.0
C515 C 0.85588 0.77371 0.79429 0.0
C516 C 0.86956 0.78034 0.77338 0.0
C517 C 0.88017 0.76553 0.75731 0.0
C518 C 0.94357 0.75344 0.77454 0.0
C519 C 0.93027 0.74225 0.72133 0.0
C520 C 0.92435 0.74365 0.77043 0.0
N521 N 0.91789 0.73828 0.74406 0.0
C522 C 0.94959 0.75199 0.72463 0.0
C523 C 0.95625 0.75762 0.75144 0.0
C524 C 0.90046 0.69075 0.69536 0.0
C525 C 0.83029 0.65622 0.75367 0.0
C526 C 0.85194 0.65586 0.70337 0.0
C527 C 0.84689 0.637 0.71638 0.0
C528 C 0.83601 0.63722 0.7417 0.0
N529 N 0.84626 0.67442 0.71522 0.0
C530 C 0.83557 0.67477 0.74004 0.0
Co531 Co 0.02605 0.14117 0.48993 0.0
Co532 Co 0.04803 0.10434 0.44586 0.0
O533 O 0.03911 0.11421 0.48284 0.0
C534 C 0.06196 0.14046 0.52966 0.0
O535 O 0.0737 0.13255 0.50976 0.0
C536 C 0.01871 0.07244 0.46665 0.0
O537 O 0.00623 0.08796 0.47301 0.0
O538 O 0.02106 0.11284 0.42801 0.0
O539 O 0.00881 0.1386 0.45536 0.0
H540 H 0.05915 0.10923 0.34163 0.0
H541 H 0.02637 0.1087 0.53419 0.0
O542 O 0.04284 0.14456 0.52499 0.0
H543 H 0.95208 0.12395 0.51702 0.0
H544 H 0.99385 0.19684 0.55068 0.0
H545 H 0.01504 0.17761 0.45458 0.0
H546 H 0.97951 0.14292 0.49124 0.0
H547 H 0.00965 0.16249 0.5411 0.0
O548 O 0.03611 0.07607 0.45466 0.0
H549 H 0.04799 0.12183 0.3882 0.0
H550 H 0.06712 0.06476 0.42545 0.0
H551 H 0.99914 0.21204 0.46317 0.0
H552 H 0.99947 0.08948 0.56066 0.0
H553 H 0.98845 0.22187 0.51153 0.0
H554 H 0.96201 0.09701 0.55204 0.0
O555 O 0.04813 0.1558 0.46804 0.0
H556 H 0.09305 0.0708 0.51953 0.0
H557 H 0.09276 0.11061 0.43094 0.0
H558 H 0.12632 0.10112 0.45279 0.0
H559 H 0.1266 0.08104 0.4974 0.0
H560 H 0.05985 0.08078 0.4971 0.0
H561 H 0.07834 0.05147 0.37924 0.0
H562 H 0.07445 0.0738 0.33695 0.0
O563 O 0.06008 0.13236 0.43672 0.0
C564 C 0.00789 0.12721 0.43347 0.0
C565 C 0.06098 0.09937 0.35992 0.0
C566 C 0.07172 0.06694 0.38102 0.0
N567 N 0.05702 0.09409 0.40952 0.0
C568 C 0.05474 0.10644 0.38635 0.0
C569 C 0.06529 0.07453 0.40711 0.0
C570 C 0.06954 0.07949 0.3573 0.0
C571 C 0.01011 0.1122 0.53051 0.0
N572 N 0.00451 0.12691 0.51116 0.0
C573 C 0.99494 0.10121 0.54549 0.0
C574 C 0.97393 0.10541 0.54061 0.0
C575 C 0.96834 0.12051 0.52093 0.0
C576 C 0.98394 0.13115 0.50631 0.0
C577 C 0.99843 0.19274 0.52952 0.0
C578 C 0.01032 0.18171 0.47565 0.0
C579 C 0.00744 0.17333 0.52398 0.0
N580 N 0.01319 0.16802 0.49729 0.0
C581 C 0.00137 0.20126 0.4804 0.0
C582 C 0.99539 0.20677 0.50754 0.0
C583 C 0.05945 0.15075 0.44704 0.0
C584 C 0.09313 0.0795 0.50006 0.0
C585 C 0.09275 0.10194 0.4504 0.0
C586 C 0.1118 0.09656 0.46264 0.0
C587 C 0.11195 0.08528 0.48765 0.0
N588 N 0.07436 0.0962 0.46268 0.0
C589 C 0.07438 0.08513 0.4872 0.0
Co590 Co 0.61196 0.27688 0.23592 0.0
Co591 Co 0.64851 0.30227 0.19466 0.0
O592 O 0.6385 0.29124 0.23055 0.0
C593 C 0.61119 0.31181 0.27701 0.0
O594 O 0.62109 0.32354 0.25881 0.0
C595 C 0.68095 0.27227 0.2122 0.0
O596 O 0.66582 0.25874 0.21581 0.0
O597 O 0.64073 0.27613 0.17419 0.0
O598 O 0.61647 0.26043 0.20106 0.0
H599 H 0.64451 0.31867 0.09162 0.0
H600 H 0.64304 0.27776 0.28195 0.0
O601 O 0.60662 0.29297 0.27119 0.0
H602 H 0.63217 0.20327 0.26075 0.0
H603 H 0.55621 0.24115 0.29279 0.0
H604 H 0.57715 0.26478 0.19836 0.0
H605 H 0.61265 0.23035 0.23501 0.0
H606 H 0.58999 0.25874 0.28548 0.0
O607 O 0.67689 0.29052 0.20308 0.0
H608 H 0.63166 0.30481 0.13674 0.0
H609 H 0.68788 0.32315 0.17694 0.0
H610 H 0.54329 0.24712 0.20469 0.0
H611 H 0.66278 0.25118 0.30837 0.0
H612 H 0.53262 0.23519 0.25219 0.0
H613 H 0.65743 0.21364 0.29776 0.0
O614 O 0.59683 0.29865 0.21416 0.0
H615 H 0.68097 0.34416 0.27245 0.0
H616 H 0.64112 0.34749 0.18399 0.0
H617 H 0.64986 0.38006 0.20889 0.0
H618 H 0.66996 0.37852 0.25343 0.0
H619 H 0.6717 0.31197 0.24704 0.0
H620 H 0.70141 0.33705 0.13219 0.0
H621 H 0.67963 0.33492 0.08916 0.0
O622 O 0.62037 0.31414 0.18601 0.0
C623 C 0.62772 0.26152 0.17909 0.0
C624 C 0.65413 0.31974 0.11025 0.0
C625 C 0.68608 0.33003 0.13301 0.0
N626 N 0.65896 0.3133 0.15947 0.0
C627 C 0.64691 0.31197 0.13587 0.0
C628 C 0.67836 0.32209 0.15826 0.0
C629 C 0.67384 0.32884 0.10887 0.0
C630 C 0.64049 0.26144 0.27741 0.0
N631 N 0.62663 0.25561 0.25709 0.0
C632 C 0.65177 0.24647 0.29236 0.0
C633 C 0.64878 0.22541 0.28636 0.0
C634 C 0.63462 0.21958 0.2656 0.0
C635 C 0.62364 0.23499 0.25106 0.0
C636 C 0.5607 0.24624 0.27198 0.0
C637 C 0.57268 0.25949 0.21906 0.0
C638 C 0.57979 0.25624 0.26772 0.0
N639 N 0.58559 0.26263 0.24148 0.0
C640 C 0.55346 0.24956 0.22253 0.0
C641 C 0.54747 0.24289 0.24919 0.0
C642 C 0.60176 0.31167 0.195 0.0
C643 C 0.67225 0.34504 0.25302 0.0
C644 C 0.64979 0.34668 0.20342 0.0
C645 C 0.65475 0.36518 0.21738 0.0
C646 C 0.66604 0.36431 0.24236 0.0
N647 N 0.65594 0.32785 0.21399 0.0
C648 C 0.66704 0.32687 0.23846 0.0
Co649 Co 0.47099 0.85871 0.98344 0.0
Co650 Co 0.4542 0.89902 0.94259 0.0
O651 O 0.46177 0.88747 0.97908 0.0
C652 C 0.43878 0.86286 0.02799 0.0
O653 O 0.42586 0.87033 0.00911 0.0
C654 C 0.48348 0.9304 0.9657 0.0
O655 O 0.49698 0.91521 0.96912 0.0
O656 O 0.48186 0.89085 0.92687 0.0
O657 O 0.48524 0.85905 0.94602 0.0
H658 H 0.44843 0.89941 0.83737 0.0
H659 H 0.48025 0.88951 0.02813 0.0
O660 O 0.45721 0.85757 0.02103 0.0
H661 H 0.54875 0.86314 0.99724 0.0
H662 H 0.49897 0.79744 0.03788 0.0
H663 H 0.47225 0.82154 0.94636 0.0
H664 H 0.51635 0.84974 0.97595 0.0
H665 H 0.48821 0.83405 0.03126 0.0
O666 O 0.46571 0.92668 0.9548 0.0
H667 H 0.45733 0.88453 0.8836 0.0
H668 H 0.43598 0.93953 0.92411 0.0
H669 H 0.48299 0.78485 0.95199 0.0
H670 H 0.51226 0.90321 0.05017 0.0
H671 H 0.49646 0.77258 0.99803 0.0
H672 H 0.54682 0.89004 0.03467 0.0
O673 O 0.44504 0.84858 0.96516 0.0
H674 H 0.40615 0.92966 0.01502 0.0
H675 H 0.41016 0.89387 0.92353 0.0
H676 H 0.37575 0.90282 0.94329 0.0
H677 H 0.3736 0.92089 0.98933 0.0
H678 H 0.44023 0.92024 0.99463 0.0
H679 H 0.42701 0.9551 0.8783 0.0
H680 H 0.43315 0.93495 0.83452 0.0
O681 O 0.44225 0.87156 0.92979 0.0
C682 C 0.49027 0.87284 0.92794 0.0
C683 C 0.44561 0.90831 0.8563 0.0
C684 C 0.43361 0.93958 0.87927 0.0
N685 N 0.44699 0.91106 0.90653 0.0
C686 C 0.45055 0.89994 0.88254 0.0
C687 C 0.43876 0.9307 0.90514 0.0
C688 C 0.43706 0.92826 0.85472 0.0
C689 C 0.49522 0.88357 0.02147 0.0
N690 N 0.49642 0.86877 0.00089 0.0
C691 C 0.5133 0.89144 0.03394 0.0
C692 C 0.53269 0.88407 0.0252 0.0
C693 C 0.53378 0.86898 0.00419 0.0
C694 C 0.51538 0.86149 0.99217 0.0
C695 C 0.49317 0.80261 0.0177 0.0
C696 C 0.47824 0.81637 0.9664 0.0
C697 C 0.48702 0.82332 0.01384 0.0
N698 N 0.47978 0.82998 0.98837 0.0
C699 C 0.48423 0.79555 0.96949 0.0
C700 C 0.49177 0.78867 0.99533 0.0
C701 C 0.43769 0.85417 0.94144 0.0
C702 C 0.40689 0.92184 0.99491 0.0
C703 C 0.40936 0.90167 0.94363 0.0
C704 C 0.38983 0.90674 0.95467 0.0
C705 C 0.38863 0.91689 0.9805 0.0
N706 N 0.4272 0.90662 0.95786 0.0
C707 C 0.42614 0.91655 0.9832 0.0
Co708 Co 0.89755 0.28415 0.7678 0.0
Co709 Co 0.8562 0.29865 0.80857 0.0
O710 O 0.86835 0.29225 0.77189 0.0
C711 C 0.89174 0.31647 0.7236 0.0
O712 O 0.88047 0.3275 0.74115 0.0
C713 C 0.8257 0.26881 0.78412 0.0
O714 O 0.8412 0.25573 0.78029 0.0
O715 O 0.86519 0.27099 0.82347 0.0
O716 O 0.89715 0.26902 0.80456 0.0
H717 H 0.85481 0.30219 0.91396 0.0
H718 H 0.86775 0.27496 0.72196 0.0
O719 O 0.89918 0.29888 0.7309 0.0
H720 H 0.89587 0.20664 0.75074 0.0
H721 H 0.96054 0.25908 0.71433 0.0
H722 H 0.9342 0.28358 0.80583 0.0
H723 H 0.90793 0.23894 0.77369 0.0
H724 H 0.92351 0.26858 0.72017 0.0
O725 O 0.82899 0.28646 0.7956 0.0
H726 H 0.87034 0.29478 0.86765 0.0
H727 H 0.81494 0.31511 0.82712 0.0
H728 H 0.97129 0.27408 0.80099 0.0
H729 H 0.85538 0.24305 0.69827 0.0
H730 H 0.98469 0.26171 0.75497 0.0
H731 H 0.86944 0.20858 0.7127 0.0
O732 O 0.90647 0.31005 0.78719 0.0
H733 H 0.82343 0.34699 0.73815 0.0
H734 H 0.85996 0.34247 0.82908 0.0
H735 H 0.84964 0.3769 0.81067 0.0
H736 H 0.83118 0.37931 0.76493 0.0
H737 H 0.83429 0.3129 0.75714 0.0
H738 H 0.79874 0.32258 0.87301 0.0
H739 H 0.81875 0.31619 0.91684 0.0
O740 O 0.88314 0.31128 0.82228 0.0
C741 C 0.88348 0.2632 0.82237 0.0
C742 C 0.84596 0.30511 0.89501 0.0
C743 C 0.81448 0.31653 0.87202 0.0
N744 N 0.84364 0.3047 0.84471 0.0
C745 C 0.8547 0.30101 0.86872 0.0
C746 C 0.82372 0.31223 0.84611 0.0
C747 C 0.82572 0.31295 0.89661 0.0
C748 C 0.87407 0.26003 0.72816 0.0
N749 N 0.88862 0.25882 0.74906 0.0
C750 C 0.86695 0.24201 0.71476 0.0
C751 C 0.87482 0.22267 0.72289 0.0
C752 C 0.88965 0.22157 0.74424 0.0
C753 C 0.89638 0.23991 0.7572 0.0
C754 C 0.95487 0.26439 0.73451 0.0
C755 C 0.93986 0.27807 0.7858 0.0
C756 C 0.93393 0.26981 0.73794 0.0
N757 N 0.92664 0.27642 0.76341 0.0
C758 C 0.9609 0.27278 0.78316 0.0
C759 C 0.96842 0.26586 0.75732 0.0
C760 C 0.90044 0.31671 0.81106 0.0
C761 C 0.83142 0.34614 0.75814 0.0
C762 C 0.85206 0.34339 0.80906 0.0
C763 C 0.84618 0.36293 0.7988 0.0
C764 C 0.8358 0.36427 0.77315 0.0
N765 N 0.8477 0.32567 0.79422 0.0
C766 C 0.83752 0.32686 0.76907 0.0
Co767 Co 0.47741 0.14304 0.51262 0.0
Co768 Co 0.45259 0.10562 0.55315 0.0
O769 O 0.46326 0.1163 0.51739 0.0
C770 C 0.44225 0.14413 0.47185 0.0
O771 O 0.43076 0.13374 0.48982 0.0
C772 C 0.4823 0.07337 0.53385 0.0
O773 O 0.49581 0.08849 0.53014 0.0
O774 O 0.47895 0.11308 0.57335 0.0
O775 O 0.49414 0.13807 0.54717 0.0
H776 H 0.43727 0.10784 0.65658 0.0
H777 H 0.47642 0.1127 0.46572 0.0
O778 O 0.46105 0.14887 0.47766 0.0
H779 H 0.55098 0.12376 0.48633 0.0
H780 H 0.51227 0.20003 0.45699 0.0
H781 H 0.48954 0.17731 0.55106 0.0
H782 H 0.52395 0.14268 0.51294 0.0
H783 H 0.49506 0.16596 0.46351 0.0
O784 O 0.46425 0.07738 0.54369 0.0
H785 H 0.45064 0.12146 0.6116 0.0
H786 H 0.4319 0.06593 0.57006 0.0
H787 H 0.50682 0.21143 0.54551 0.0
H788 H 0.50295 0.09357 0.43844 0.0
H789 H 0.51829 0.223 0.49819 0.0
H790 H 0.54053 0.099 0.44876 0.0
O791 O 0.45567 0.15768 0.53508 0.0
H792 H 0.40996 0.07441 0.47516 0.0
H793 H 0.40745 0.11268 0.5649 0.0
H794 H 0.37465 0.10428 0.54034 0.0
H795 H 0.37578 0.08497 0.49515 0.0
H796 H 0.4424 0.08334 0.50024 0.0
H797 H 0.41849 0.05163 0.61463 0.0
H798 H 0.42106 0.07268 0.65827 0.0
O799 O 0.44073 0.13357 0.56288 0.0
C800 C 0.49339 0.12633 0.56871 0.0
C801 C 0.43601 0.09854 0.63769 0.0
C802 C 0.42549 0.06698 0.61415 0.0
N803 N 0.44193 0.09456 0.58822 0.0
C804 C 0.44351 0.10619 0.61215 0.0
C805 C 0.43317 0.07513 0.58899 0.0
C806 C 0.42693 0.07881 0.63863 0.0
C807 C 0.49275 0.1153 0.47013 0.0
N808 N 0.49863 0.12887 0.49077 0.0
C809 C 0.5077 0.10436 0.4547 0.0
C810 C 0.52878 0.10739 0.46053 0.0
C811 C 0.53466 0.12127 0.48161 0.0
C812 C 0.51928 0.13192 0.49664 0.0
C813 C 0.50738 0.19514 0.47772 0.0
C814 C 0.49463 0.18217 0.53044 0.0
C815 C 0.4976 0.17589 0.48154 0.0
N816 N 0.49144 0.1696 0.50768 0.0
C817 C 0.50435 0.20153 0.52741 0.0
C818 C 0.51076 0.20803 0.50085 0.0
C819 C 0.44291 0.15232 0.55435 0.0
C820 C 0.40927 0.08278 0.49487 0.0
C821 C 0.40808 0.10437 0.54518 0.0
C822 C 0.38945 0.09959 0.53141 0.0
C823 C 0.39009 0.08874 0.50608 0.0
N824 N 0.42683 0.09847 0.53406 0.0
C825 C 0.42758 0.0878 0.50924 0.0
Co826 Co 0.6064 0.71861 0.26296 0.0
Co827 Co 0.64637 0.7016 0.30606 0.0
O828 O 0.63462 0.7079 0.26903 0.0
C829 C 0.60992 0.6823 0.22367 0.0
O830 O 0.62266 0.67275 0.24097 0.0
C831 C 0.67654 0.7316 0.28192 0.0
O832 O 0.66067 0.74398 0.27681 0.0
O833 O 0.63726 0.72909 0.32152 0.0
O834 O 0.60903 0.73746 0.29601 0.0
H835 H 0.64616 0.69688 0.41137 0.0
H836 H 0.6374 0.71891 0.21687 0.0
O837 O 0.60262 0.70024 0.22945 0.0
H838 H 0.61662 0.79237 0.22916 0.0
H839 H 0.54613 0.74424 0.20448 0.0
H840 H 0.57068 0.7283 0.30024 0.0
H841 H 0.6008 0.76473 0.25817 0.0
H842 H 0.58185 0.73124 0.21242 0.0
O843 O 0.67361 0.71411 0.29398 0.0
H844 H 0.63125 0.70459 0.36477 0.0
H845 H 0.68752 0.6854 0.32545 0.0
H846 H 0.53489 0.74144 0.29326 0.0
H847 H 0.65349 0.746 0.18717 0.0
H848 H 0.52242 0.74952 0.24509 0.0
H849 H 0.64316 0.78306 0.19331 0.0
O850 O 0.59433 0.69636 0.28721 0.0
H851 H 0.68081 0.65392 0.23625 0.0
H852 H 0.64225 0.65762 0.32571 0.0
H853 H 0.6531 0.62337 0.30726 0.0
H854 H 0.67258 0.62137 0.26227 0.0
H855 H 0.6694 0.68783 0.25523 0.0
H856 H 0.7031 0.67763 0.37165 0.0
H857 H 0.68234 0.6833 0.41501 0.0
O858 O 0.61944 0.68892 0.31861 0.0
C859 C 0.62153 0.74067 0.31636 0.0
C860 C 0.65534 0.69429 0.39262 0.0
C861 C 0.68731 0.68351 0.37033 0.0
N862 N 0.65844 0.6953 0.34242 0.0
C863 C 0.64696 0.69857 0.36618 0.0
C864 C 0.67842 0.68797 0.34424 0.0
C865 C 0.67565 0.68669 0.39465 0.0
C866 C 0.63272 0.73497 0.21952 0.0
N867 N 0.61818 0.74023 0.23926 0.0
C868 C 0.64193 0.75026 0.2027 0.0
C869 C 0.63615 0.77105 0.20618 0.0
C870 C 0.62127 0.77629 0.22631 0.0
C871 C 0.61242 0.76058 0.24278 0.0
C872 C 0.5514 0.74083 0.22557 0.0
C873 C 0.56541 0.73191 0.27923 0.0
C874 C 0.5716 0.73342 0.2302 0.0
N875 N 0.57841 0.72917 0.2568 0.0
C876 C 0.5451 0.73928 0.2754 0.0
C877 C 0.5381 0.74378 0.24837 0.0
C878 C 0.60086 0.68712 0.30926 0.0
C879 C 0.67237 0.65459 0.25592 0.0
C880 C 0.65058 0.65688 0.306 0.0
C881 C 0.65676 0.63744 0.29572 0.0
C882 C 0.66772 0.63633 0.2705 0.0
N883 N 0.6552 0.67473 0.29158 0.0
C884 C 0.66596 0.67376 0.26684 0.0
Co885 Co 0.02966 0.85667 0.01254 0.0
Co886 Co 0.04977 0.89647 0.05354 0.0
O887 O 0.04163 0.88448 0.01729 0.0
C888 C 0.06523 0.85798 0.97222 0.0
O889 O 0.07585 0.86954 0.98987 0.0
C890 C 0.02014 0.92673 0.02915 0.0
O891 O 0.00806 0.91073 0.02357 0.0
O892 O 0.02276 0.8884 0.07116 0.0
O893 O 0.012 0.8604 0.04664 0.0
H894 H 0.05872 0.89753 0.15835 0.0
H895 H 0.02886 0.8865 0.96505 0.0
O896 O 0.04683 0.85192 0.97808 0.0
H897 H 0.95513 0.86998 0.98432 0.0
H898 H 0.99961 0.79705 0.95688 0.0
H899 H 0.02 0.82167 0.05107 0.0
H900 H 0.9832 0.85344 0.01186 0.0
H901 H 0.01439 0.83223 0.96334 0.0
O902 O 0.03744 0.92394 0.04181 0.0
H903 H 0.04861 0.88228 0.11279 0.0
H904 H 0.06803 0.9373 0.07061 0.0
H905 H 0.00512 0.7864 0.04557 0.0
H906 H 0.00129 0.90326 0.93682 0.0
H907 H 0.99477 0.77394 0.9982 0.0
H908 H 0.96412 0.89508 0.94648 0.0
O909 O 0.05232 0.84409 0.0356 0.0
H910 H 0.09546 0.92821 0.97917 0.0
H911 H 0.09435 0.89131 0.07002 0.0
H912 H 0.12809 0.90071 0.04865 0.0
H913 H 0.12879 0.91935 0.00293 0.0
H914 H 0.06207 0.91829 0.0011 0.0
H915 H 0.07819 0.95323 0.11573 0.0
H916 H 0.07363 0.93326 0.16001 0.0
O917 O 0.06215 0.86925 0.06581 0.0
C918 C 0.01028 0.87328 0.06685 0.0
C919 C 0.06085 0.90636 0.1392 0.0
C920 C 0.07176 0.93763 0.11528 0.0
N921 N 0.05791 0.90881 0.08906 0.0
C922 C 0.05522 0.89778 0.11334 0.0
C923 C 0.06594 0.92854 0.0898 0.0
C924 C 0.0692 0.92641 0.14011 0.0
C925 C 0.01273 0.88268 0.96915 0.0
N926 N 0.00766 0.86894 0.98998 0.0
C927 C 0.99719 0.89229 0.95319 0.0
C928 C 0.97633 0.88773 0.95865 0.0
C929 C 0.97127 0.87365 0.9799 0.0
C930 C 0.98723 0.86437 0.99546 0.0
C931 C 0.00401 0.80234 0.97763 0.0
C932 C 0.01543 0.81637 0.03041 0.0
C933 C 0.01242 0.82223 0.98142 0.0
N934 N 0.01788 0.82905 0.0076 0.0
C935 C 0.00708 0.79637 0.02742 0.0
C936 C 0.0013 0.78937 0.00083 0.0
C937 C 0.06279 0.85052 0.05669 0.0
C938 C 0.09536 0.92015 0.99914 0.0
C939 C 0.09452 0.89931 0.05004 0.0
C940 C 0.11368 0.90466 0.03809 0.0
C941 C 0.11406 0.91514 0.01246 0.0
N942 N 0.07625 0.9043 0.03686 0.0
C943 C 0.07649 0.91458 0.01173 0.0
Co944 Co 0.60531 0.77781 0.76113 0.0
Co945 Co 0.64464 0.79679 0.8029 0.0
O946 O 0.6337 0.78796 0.76652 0.0
C947 C 0.60996 0.81053 0.7176 0.0
O948 O 0.61921 0.82231 0.73638 0.0
C949 C 0.67583 0.76617 0.78267 0.0
O950 O 0.66043 0.7529 0.77936 0.0
O951 O 0.63575 0.76998 0.82069 0.0
O952 O 0.60573 0.76321 0.79816 0.0
H953 H 0.64274 0.8076 0.90736 0.0
H954 H 0.63696 0.77049 0.71691 0.0
O955 O 0.60385 0.79223 0.72396 0.0
H956 H 0.61339 0.70051 0.7459 0.0
H957 H 0.54602 0.74807 0.70449 0.0
H958 H 0.56767 0.77472 0.79711 0.0
H959 H 0.59826 0.73204 0.76749 0.0
H960 H 0.58208 0.76015 0.71233 0.0
O961 O 0.6723 0.78426 0.79267 0.0
H962 H 0.62869 0.79687 0.86134 0.0
H963 H 0.68518 0.81486 0.82156 0.0
H964 H 0.53151 0.76264 0.79027 0.0
H965 H 0.6524 0.73938 0.69461 0.0
H966 H 0.52047 0.7492 0.74367 0.0
H967 H 0.64065 0.70408 0.70915 0.0
O968 O 0.59381 0.80303 0.77956 0.0
H969 H 0.67819 0.84101 0.72837 0.0
H970 H 0.63987 0.84168 0.81812 0.0
H971 H 0.65 0.87499 0.79614 0.0
H972 H 0.66935 0.87479 0.75096 0.0
H973 H 0.66752 0.80807 0.7509 0.0
H974 H 0.69991 0.82562 0.86717 0.0
H975 H 0.67859 0.82209 0.91046 0.0
O976 O 0.61717 0.80978 0.81355 0.0
C977 C 0.61859 0.76007 0.81814 0.0
C978 C 0.65215 0.80927 0.88863 0.0
C979 C 0.68425 0.81935 0.86608 0.0
N980 N 0.65605 0.80538 0.83878 0.0
C981 C 0.64427 0.80328 0.86251 0.0
C982 C 0.67585 0.81319 0.84033 0.0
C983 C 0.67228 0.81738 0.89036 0.0
C984 C 0.63163 0.75518 0.72314 0.0
N985 N 0.61665 0.75308 0.74334 0.0
C986 C 0.64049 0.73762 0.71053 0.0
C987 C 0.63391 0.71782 0.71873 0.0
C988 C 0.61862 0.71581 0.73936 0.0
C989 C 0.61014 0.73371 0.75155 0.0
C990 C 0.55065 0.75383 0.72492 0.0
C991 C 0.56304 0.76871 0.77686 0.0
C992 C 0.57105 0.76071 0.72948 0.0
N993 N 0.57704 0.76792 0.75525 0.0
C994 C 0.54252 0.76197 0.77307 0.0
C995 C 0.53633 0.75446 0.74691 0.0
C996 C 0.59938 0.81243 0.80194 0.0
C997 C 0.66981 0.8413 0.74809 0.0
C998 C 0.64817 0.84146 0.79839 0.0
C999 C 0.65394 0.86037 0.78608 0.0
C1000 C 0.66482 0.86025 0.76075 0.0
N1001 N 0.65312 0.82294 0.78584 0.0
C1002 C 0.66381 0.8227 0.76102 0.0
Co1003 Co 0.46733 0.35477 0.01754 0.0
Co1004 Co 0.45304 0.39649 0.05784 0.0
O1005 O 0.45927 0.384 0.02131 0.0
C1006 C 0.43455 0.36011 0.97388 0.0
O1007 O 0.42377 0.37174 0.99129 0.0
C1008 C 0.48301 0.4265 0.03269 0.0
O1009 O 0.49595 0.41087 0.02897 0.0
O1010 O 0.48067 0.38747 0.0728 0.0
O1011 O 0.48279 0.35548 0.05403 0.0
H1012 H 0.44967 0.39876 0.1632 0.0
H1013 H 0.47607 0.38413 0.97106 0.0
O1014 O 0.45222 0.35278 0.98097 0.0
H1015 H 0.54468 0.35632 0.99916 0.0
H1016 H 0.49176 0.29126 0.96469 0.0
H1017 H 0.4682 0.3185 0.05616 0.0
H1018 H 0.5126 0.34446 0.02285 0.0
H1019 H 0.48245 0.32838 0.97009 0.0
O1020 O 0.46541 0.42347 0.04441 0.0
H1021 H 0.45687 0.38279 0.1171 0.0
H1022 H 0.43694 0.43803 0.07582 0.0
H1023 H 0.47752 0.28133 0.05175 0.0
H1024 H 0.50774 0.3963 0.94662 0.0
H1025 H 0.48937 0.26749 0.00574 0.0
H1026 H 0.54236 0.3824 0.96071 0.0
O1027 O 0.44159 0.34602 0.03741 0.0
H1028 H 0.4048 0.42906 0.98712 0.0
H1029 H 0.40923 0.39323 0.07855 0.0
H1030 H 0.37484 0.40367 0.06013 0.0
H1031 H 0.37247 0.42179 0.01414 0.0
H1032 H 0.43885 0.41808 0.00612 0.0
H1033 H 0.42968 0.45466 0.12149 0.0
H1034 H 0.43597 0.43496 0.16559 0.0
O1035 O 0.44021 0.36977 0.07197 0.0
C1036 C 0.4886 0.36924 0.07171 0.0
C1037 C 0.44679 0.40748 0.14413 0.0
C1038 C 0.4356 0.43887 0.12072 0.0
N1039 N 0.44714 0.40939 0.0938 0.0
C1040 C 0.45078 0.3985 0.11796 0.0
C1041 C 0.43978 0.42938 0.09493 0.0
C1042 C 0.43913 0.4278 0.14546 0.0
C1043 C 0.49106 0.37788 0.97711 0.0
N1044 N 0.49247 0.36353 0.99823 0.0
C1045 C 0.50895 0.38488 0.96329 0.0
C1046 C 0.52837 0.3771 0.97123 0.0
C1047 C 0.52968 0.36248 0.99281 0.0
C1048 C 0.51147 0.35585 0.00619 0.0
C1049 C 0.48667 0.29713 0.98486 0.0
C1050 C 0.47351 0.31263 0.03613 0.0
C1051 C 0.48136 0.31812 0.98805 0.0
N1052 N 0.47501 0.32565 0.01351 0.0
C1053 C 0.4787 0.29155 0.03374 0.0
C1054 C 0.48534 0.28379 0.00791 0.0
C1055 C 0.43479 0.35238 0.06104 0.0
C1056 C 0.40563 0.42123 0.00722 0.0
C1057 C 0.40833 0.40097 0.05843 0.0
C1058 C 0.38881 0.40692 0.04816 0.0
C1059 C 0.3875 0.41711 0.02237 0.0
N1060 N 0.42605 0.40507 0.04345 0.0
C1061 C 0.42488 0.41506 0.01816 0.0
Co1062 Co 0.89815 0.22322 0.26112 0.0
Co1063 Co 0.85692 0.20388 0.29905 0.0
O1064 O 0.86965 0.21272 0.26374 0.0
C1065 C 0.89698 0.19049 0.21722 0.0
O1066 O 0.88833 0.17798 0.23568 0.0
C1067 C 0.82682 0.23394 0.27513 0.0
O1068 O 0.84271 0.24641 0.27067 0.0
O1069 O 0.86457 0.23078 0.31758 0.0
O1070 O 0.89577 0.23751 0.29818 0.0
H1071 H 0.8539 0.19285 0.40342 0.0
H1072 H 0.86914 0.23043 0.21364 0.0
O1073 O 0.90157 0.20915 0.22395 0.0
H1074 H 0.88932 0.30052 0.24642 0.0
H1075 H 0.95892 0.25609 0.211 0.0
H1076 H 0.93388 0.22655 0.30045 0.0
H1077 H 0.90379 0.26909 0.26903 0.0
H1078 H 0.92333 0.24178 0.21484 0.0
O1079 O 0.82967 0.21627 0.28676 0.0
H1080 H 0.86998 0.20392 0.35878 0.0
H1081 H 0.81579 0.18527 0.31405 0.0
H1082 H 0.96953 0.24087 0.29762 0.0
H1083 H 0.85447 0.26145 0.19023 0.0
H1084 H 0.98207 0.25606 0.25274 0.0
H1085 H 0.8645 0.29681 0.20669 0.0
O1086 O 0.90908 0.19799 0.28048 0.0
H1087 H 0.82818 0.15951 0.22117 0.0
H1088 H 0.8613 0.159 0.31462 0.0
H1089 H 0.85292 0.12565 0.29146 0.0
H1090 H 0.83621 0.12577 0.2444 0.0
H1091 H 0.83701 0.19251 0.24498 0.0
H1092 H 0.79905 0.17418 0.35823 0.0
H1093 H 0.81818 0.17785 0.40331 0.0
O1094 O 0.88389 0.19117 0.31198 0.0
C1095 C 0.88184 0.24063 0.31678 0.0
C1096 C 0.84543 0.19112 0.3839 0.0
C1097 C 0.81463 0.18066 0.35854 0.0
N1098 N 0.84389 0.19511 0.33384 0.0
C1099 C 0.85447 0.19731 0.35856 0.0
C1100 C 0.82417 0.18703 0.33361 0.0
C1101 C 0.82538 0.18272 0.38383 0.0
C1102 C 0.87377 0.24576 0.2207 0.0
N1103 N 0.88738 0.24793 0.24258 0.0
C1104 C 0.86533 0.26327 0.20745 0.0
C1105 C 0.87093 0.28311 0.21673 0.0
C1106 C 0.88485 0.2852 0.23904 0.0
C1107 C 0.89294 0.26734 0.25182 0.0
C1108 C 0.95354 0.24963 0.23071 0.0
C1109 C 0.93928 0.23309 0.28085 0.0
C1110 C 0.93344 0.24146 0.23299 0.0
N1111 N 0.92645 0.23359 0.25795 0.0
C1112 C 0.95949 0.24112 0.27935 0.0
C1113 C 0.96656 0.24956 0.25413 0.0
C1114 C 0.90229 0.18855 0.30223 0.0
C1115 C 0.8354 0.15925 0.24171 0.0
C1116 C 0.85409 0.15919 0.29411 0.0
C1117 C 0.84933 0.14025 0.28113 0.0
C1118 C 0.83994 0.14033 0.25474 0.0
N1119 N 0.84957 0.17769 0.28121 0.0
C1120 C 0.84036 0.17789 0.25535 0.0
Co1121 Co 0.02995 0.64646 0.51133 0.0
Co1122 Co 0.04638 0.60578 0.55248 0.0
O1123 O 0.0389 0.61755 0.51596 0.0
C1124 C 0.06291 0.6425 0.46773 0.0
O1125 O 0.0753 0.63428 0.48669 0.0
C1126 C 0.0163 0.57549 0.52862 0.0
O1127 O 0.00434 0.59141 0.52223 0.0
O1128 O 0.01924 0.61499 0.56893 0.0
O1129 O 0.01513 0.64616 0.54824 0.0
H1130 H 0.05395 0.60611 0.65748 0.0
H1131 H 0.02144 0.61616 0.46577 0.0
O1132 O 0.04439 0.64778 0.47421 0.0
H1133 H 0.95241 0.64197 0.49538 0.0
H1134 H 0.00291 0.70776 0.45618 0.0
H1135 H 0.02854 0.6837 0.54827 0.0
H1136 H 0.98445 0.65522 0.51779 0.0
H1137 H 0.01326 0.67109 0.46318 0.0
O1138 O 0.03356 0.57845 0.54125 0.0
H1139 H 0.04492 0.62094 0.61125 0.0
H1140 H 0.06321 0.56468 0.57114 0.0
H1141 H 0.01819 0.72048 0.54226 0.0
H1142 H 0.98981 0.60264 0.44258 0.0
H1143 H 0.00534 0.73271 0.49589 0.0
H1144 H 0.95498 0.61551 0.45745 0.0
O1145 O 0.0556 0.6566 0.5304 0.0
H1146 H 0.09204 0.57299 0.47898 0.0
H1147 H 0.09088 0.6091 0.57038 0.0
H1148 H 0.12459 0.59872 0.54974 0.0
H1149 H 0.12531 0.58049 0.50373 0.0
H1150 H 0.05869 0.58382 0.50026 0.0
H1151 H 0.07226 0.54917 0.61696 0.0
H1152 H 0.06773 0.56997 0.66053 0.0
O1153 O 0.05964 0.63274 0.56447 0.0
C1154 C 0.01055 0.63284 0.56715 0.0
C1155 C 0.05605 0.59691 0.63864 0.0
C1156 C 0.0663 0.56494 0.6159 0.0
N1157 N 0.05367 0.59374 0.58852 0.0
C1158 C 0.05101 0.60524 0.6124 0.0
C1159 C 0.0611 0.57379 0.59002 0.0
C1160 C 0.06376 0.57663 0.64033 0.0
C1161 C 0.00635 0.622 0.47213 0.0
N1162 N 0.00481 0.63651 0.49303 0.0
C1163 C 0.98849 0.61422 0.45902 0.0
C1164 C 0.96895 0.62142 0.46741 0.0
C1165 C 0.9675 0.63624 0.48871 0.0
C1166 C 0.9857 0.64365 0.50139 0.0
C1167 C 0.00846 0.7026 0.47649 0.0
C1168 C 0.02277 0.68887 0.52812 0.0
C1169 C 0.01437 0.68186 0.48057 0.0
N1170 N 0.02132 0.67521 0.50619 0.0
C1171 C 0.017 0.70973 0.52481 0.0
C1172 C 0.0098 0.71659 0.49879 0.0
C1173 C 0.06379 0.6504 0.55335 0.0
C1174 C 0.09193 0.58087 0.49907 0.0
C1175 C 0.09106 0.60124 0.55031 0.0
C1176 C 0.1102 0.59535 0.53876 0.0
C1177 C 0.11059 0.58511 0.51295 0.0
N1178 N 0.07282 0.59699 0.53659 0.0
C1179 C 0.07308 0.58697 0.51128 0.0
Co1180 Co 0.60811 0.21898 0.73565 0.0
Co1181 Co 0.64871 0.204 0.69382 0.0
O1182 O 0.6371 0.21044 0.73079 0.0
C1183 C 0.61268 0.18591 0.77915 0.0
O1184 O 0.62081 0.17353 0.76011 0.0
C1185 C 0.67934 0.23297 0.71926 0.0
O1186 O 0.66351 0.24499 0.72588 0.0
O1187 O 0.63978 0.23176 0.67922 0.0
O1188 O 0.60807 0.23404 0.69882 0.0
H1189 H 0.64845 0.20051 0.58843 0.0
H1190 H 0.63841 0.22777 0.78112 0.0
O1191 O 0.60716 0.20437 0.77267 0.0
H1192 H 0.6112 0.29648 0.75244 0.0
H1193 H 0.54645 0.24496 0.79105 0.0
H1194 H 0.57082 0.21999 0.69879 0.0
H1195 H 0.59849 0.26435 0.72971 0.0
H1196 H 0.58323 0.23497 0.78403 0.0
O1197 O 0.67623 0.21605 0.70587 0.0
H1198 H 0.6337 0.20803 0.63517 0.0
H1199 H 0.68951 0.18714 0.67413 0.0
H1200 H 0.53395 0.22998 0.70481 0.0
H1201 H 0.65138 0.2595 0.80463 0.0
H1202 H 0.52155 0.24257 0.75122 0.0
H1203 H 0.6378 0.29417 0.79023 0.0
O1204 O 0.59849 0.19323 0.7164 0.0
H1205 H 0.68102 0.15534 0.76417 0.0
H1206 H 0.64462 0.16024 0.67318 0.0
H1207 H 0.65458 0.1257 0.6916 0.0
H1208 H 0.67296 0.1231 0.73738 0.0
H1209 H 0.67061 0.18956 0.74509 0.0
H1210 H 0.70494 0.17957 0.62779 0.0
H1211 H 0.68433 0.18617 0.58453 0.0
O1212 O 0.62148 0.19156 0.68092 0.0
C1213 C 0.62157 0.2397 0.68067 0.0
C1214 C 0.65756 0.19749 0.60712 0.0
C1215 C 0.68928 0.18576 0.62922 0.0
N1216 N 0.66065 0.19784 0.65735 0.0
C1217 C 0.64927 0.20166 0.63365 0.0
C1218 C 0.68047 0.19012 0.65539 0.0
C1219 C 0.6777 0.18947 0.60495 0.0
C1220 C 0.63226 0.24279 0.77496 0.0
N1221 N 0.61767 0.24419 0.75414 0.0
C1222 C 0.63974 0.26071 0.78825 0.0
C1223 C 0.63214 0.28016 0.78012 0.0
C1224 C 0.61723 0.28146 0.7589 0.0
C1225 C 0.61014 0.26321 0.74604 0.0
C1226 C 0.55167 0.23954 0.77071 0.0
C1227 C 0.56558 0.22559 0.71899 0.0
C1228 C 0.57248 0.23383 0.76662 0.0
N1229 N 0.57922 0.22709 0.74094 0.0
C1230 C 0.54466 0.23117 0.7223 0.0
C1231 C 0.53771 0.23821 0.74835 0.0
C1232 C 0.60421 0.18641 0.69245 0.0
C1233 C 0.67308 0.15627 0.74416 0.0
C1234 C 0.65255 0.15924 0.69317 0.0
C1235 C 0.6582 0.13964 0.70346 0.0
C1236 C 0.66852 0.13819 0.72913 0.0
N1237 N 0.65713 0.17691 0.70799 0.0
C1238 C 0.66722 0.17561 0.7332 0.0
Co1239 Co 0.03166 0.36016 0.98715 0.0
Co1240 Co 0.05259 0.39961 0.94608 0.0
O1241 O 0.04415 0.38779 0.98236 0.0
C1242 C 0.06759 0.36063 0.02712 0.0
O1243 O 0.07815 0.37256 0.00985 0.0
C1244 C 0.02319 0.43039 0.96993 0.0
O1245 O 0.01107 0.41458 0.9763 0.0
O1246 O 0.02559 0.39162 0.92813 0.0
O1247 O 0.01365 0.36455 0.95356 0.0
H1248 H 0.0625 0.39979 0.84143 0.0
H1249 H 0.03216 0.38984 0.03482 0.0
O1250 O 0.04915 0.35475 0.02118 0.0
H1251 H 0.95785 0.37482 0.01745 0.0
H1252 H 0.0013 0.30064 0.0428 0.0
H1253 H 0.0207 0.32569 0.94844 0.0
H1254 H 0.98517 0.35783 0.98909 0.0
H1255 H 0.01646 0.33568 0.03642 0.0
O1256 O 0.04039 0.42725 0.95722 0.0
H1257 H 0.05197 0.38493 0.88704 0.0
H1258 H 0.07115 0.44026 0.92871 0.0
H1259 H 0.00544 0.29059 0.95385 0.0
H1260 H 0.00535 0.40705 0.06386 0.0
H1261 H 0.99564 0.27786 0.00131 0.0
H1262 H 0.96788 0.39963 0.05516 0.0
O1263 O 0.05368 0.34709 0.96343 0.0
H1264 H 0.0979 0.43141 0.02082 0.0
H1265 H 0.09726 0.39419 0.93021 0.0
H1266 H 0.1309 0.40351 0.95197 0.0
H1267 H 0.13135 0.4223 0.99756 0.0
H1268 H 0.06461 0.42156 0.99851 0.0
H1269 H 0.08174 0.45579 0.88352 0.0
H1270 H 0.07751 0.43548 0.83948 0.0
O1271 O 0.0649 0.37234 0.93435 0.0
C1272 C 0.01245 0.37713 0.93294 0.0
C1273 C 0.06447 0.40878 0.86048 0.0
C1274 C 0.07524 0.44022 0.8841 0.0
N1275 N 0.06106 0.41166 0.91052 0.0
C1276 C 0.05858 0.40043 0.88637 0.0
C1277 C 0.06917 0.43136 0.90962 0.0
C1278 C 0.07288 0.42881 0.8594 0.0
C1279 C 0.0159 0.38636 0.03112 0.0
N1280 N 0.01025 0.37279 0.01037 0.0
C1281 C 1.00079 0.39622 0.04755 0.0
C1282 C 0.97976 0.39208 0.04262 0.0
C1283 C 0.97412 0.37817 0.02146 0.0
C1284 C 0.98966 0.36863 0.00542 0.0
C1285 C 0.00546 0.30603 0.02201 0.0
C1286 C 0.01634 0.32031 0.96914 0.0
C1287 C 0.01409 0.32584 0.01827 0.0
N1288 N 0.01931 0.33278 0.99205 0.0
C1289 C 0.00776 0.3004 0.97208 0.0
C1290 C 0.00229 0.29326 0.99872 0.0
C1291 C 0.06477 0.35347 0.9429 0.0
C1292 C 0.0979 0.42328 0.00091 0.0
C1293 C 0.09732 0.40226 0.95013 0.0
C1294 C 0.11642 0.40756 0.9623 0.0
C1295 C 0.11667 0.41813 0.98787 0.0
N1296 N 0.07898 0.40739 0.96303 0.0
C1297 C 0.0791 0.41775 0.9881 0.0
Co1298 Co 0.89266 0.78391 0.23762 0.0
Co1299 Co 0.8527 0.7997 0.19371 0.0
O1300 O 0.86441 0.79448 0.23118 0.0
C1301 C 0.88854 0.82014 0.27729 0.0
O1302 O 0.87467 0.82909 0.26104 0.0
C1303 C 0.82248 0.77142 0.22084 0.0
O1304 O 0.83854 0.76009 0.22855 0.0
O1305 O 0.86132 0.77162 0.18009 0.0
O1306 O 0.89029 0.76471 0.20477 0.0
H1307 H 0.85282 0.80037 0.0882 0.0
H1308 H 0.86194 0.78383 0.28405 0.0
O1309 O 0.89645 0.80257 0.2709 0.0
H1310 H 0.88255 0.71029 0.27205 0.0
H1311 H 0.95296 0.75895 0.2966 0.0
H1312 H 0.92853 0.77427 0.20059 0.0
H1313 H 0.89818 0.73777 0.24259 0.0
H1314 H 0.91716 0.77164 0.28839 0.0
O1315 O 0.82526 0.78787 0.20631 0.0
H1316 H 0.86763 0.79411 0.13525 0.0
H1317 H 0.81189 0.81605 0.17328 0.0
H1318 H 0.9644 0.76143 0.20784 0.0
H1319 H 0.84606 0.75689 0.3142 0.0
H1320 H 0.97683 0.75369 0.25614 0.0
H1321 H 0.8563 0.71979 0.30821 0.0
O1322 O 0.90452 0.80608 0.21322 0.0
H1323 H 0.81853 0.85021 0.26003 0.0
H1324 H 0.85772 0.8429 0.17149 0.0
H1325 H 0.84728 0.87791 0.18767 0.0
H1326 H 0.82747 0.88172 0.23219 0.0
H1327 H 0.82957 0.81552 0.24333 0.0
H1328 H 0.7964 0.82239 0.12664 0.0
H1329 H 0.81694 0.81461 0.08369 0.0
O1330 O 0.87991 0.81151 0.1803 0.0
C1331 C 0.87745 0.76063 0.18509 0.0
C1332 C 0.84375 0.8039 0.10676 0.0
C1333 C 0.81207 0.81623 0.12834 0.0
N1334 N 0.84073 0.80491 0.15697 0.0
C1335 C 0.85208 0.80047 0.13345 0.0
C1336 C 0.82091 0.81258 0.15469 0.0
C1337 C 0.82361 0.81187 0.10424 0.0
C1338 C 0.86664 0.76775 0.28152 0.0
N1339 N 0.881 0.76239 0.2616 0.0
C1340 C 0.85752 0.75255 0.29857 0.0
C1341 C 0.86324 0.73174 0.29516 0.0
C1342 C 0.87795 0.72639 0.27486 0.0
C1343 C 0.8867 0.74201 0.25815 0.0
C1344 C 0.94771 0.76222 0.27545 0.0
C1345 C 0.93378 0.7708 0.22166 0.0
C1346 C 0.92747 0.76945 0.27067 0.0
N1347 N 0.92071 0.77354 0.24401 0.0
C1348 C 0.95412 0.76359 0.22564 0.0
C1349 C 0.96109 0.75927 0.25274 0.0
C1350 C 0.89824 0.81413 0.19023 0.0
C1351 C 0.82711 0.84874 0.24057 0.0
C1352 C 0.84927 0.84444 0.19102 0.0
C1353 C 0.84331 0.8643 0.20001 0.0
C1354 C 0.83217 0.86642 0.22497 0.0
N1355 N 0.84426 0.82717 0.20645 0.0
C1356 C 0.83331 0.82913 0.23092 0.0
Co1357 Co 0.46909 0.64405 0.49128 0.0
Co1358 Co 0.45218 0.60397 0.44811 0.0
O1359 O 0.45848 0.61573 0.48524 0.0
C1360 C 0.43362 0.63964 0.53223 0.0
O1361 O 0.42481 0.62519 0.51678 0.0
C1362 C 0.48189 0.57402 0.47337 0.0
O1363 O 0.49313 0.59013 0.48115 0.0
O1364 O 0.47952 0.61335 0.43254 0.0
O1365 O 0.48788 0.64151 0.45812 0.0
H1366 H 0.44705 0.60478 0.34283 0.0
H1367 H 0.46966 0.61328 0.5377 0.0
O1368 O 0.45078 0.64799 0.52491 0.0
H1369 H 0.54303 0.63406 0.52451 0.0
H1370 H 0.49467 0.70452 0.54943 0.0
H1371 H 0.47842 0.67979 0.45386 0.0
H1372 H 0.51523 0.64967 0.49555 0.0
H1373 H 0.48189 0.66871 0.54167 0.0
O1374 O 0.4651 0.57676 0.45955 0.0
H1375 H 0.45478 0.61947 0.38954 0.0
H1376 H 0.43625 0.56279 0.42837 0.0
H1377 H 0.49134 0.71567 0.46065 0.0
H1378 H 0.49691 0.59742 0.56735 0.0
H1379 H 0.49954 0.72826 0.50872 0.0
H1380 H 0.53392 0.60774 0.56076 0.0
O1381 O 0.44671 0.65601 0.46715 0.0
H1382 H 0.40521 0.56822 0.51759 0.0
H1383 H 0.40805 0.60785 0.42893 0.0
H1384 H 0.37402 0.59638 0.4474 0.0
H1385 H 0.37245 0.57635 0.49199 0.0
H1386 H 0.43889 0.5803 0.49862 0.0
H1387 H 0.42847 0.54742 0.38206 0.0
H1388 H 0.4338 0.56849 0.33889 0.0
O1389 O 0.43916 0.63082 0.43594 0.0
C1390 C 0.49104 0.6291 0.43766 0.0
C1391 C 0.4446 0.59546 0.3615 0.0
C1392 C 0.43421 0.56326 0.38351 0.0
N1393 N 0.44584 0.59205 0.41166 0.0
C1394 C 0.4489 0.60371 0.38801 0.0
C1395 C 0.43868 0.57203 0.40967 0.0
C1396 C 0.43719 0.57509 0.3593 0.0
C1397 C 0.48569 0.61801 0.5349 0.0
N1398 N 0.49083 0.63242 0.51492 0.0
C1399 C 0.50107 0.60891 0.55167 0.0
C1400 C 0.52184 0.61468 0.54793 0.0
C1401 C 0.52696 0.62943 0.52757 0.0
C1402 C 0.51117 0.63816 0.51115 0.0
C1403 C 0.49119 0.69921 0.52837 0.0
C1404 C 0.4821 0.6851 0.47482 0.0
C1405 C 0.48391 0.67895 0.52385 0.0
N1406 N 0.47957 0.6721 0.4973 0.0
C1407 C 0.48935 0.70546 0.47855 0.0
C1408 C 0.49393 0.71252 0.50553 0.0
C1409 C 0.43733 0.6494 0.44526 0.0
C1410 C 0.40569 0.57691 0.49811 0.0
C1411 C 0.4075 0.59932 0.44848 0.0
C1412 C 0.38818 0.59277 0.45877 0.0
C1413 C 0.38732 0.5815 0.48376 0.0
N1414 N 0.42546 0.59475 0.46268 0.0
C1415 C 0.42474 0.58369 0.48718 0.0
Co1416 Co 0.39101 0.22631 0.24042 0.0
Co1417 Co 0.35381 0.20127 0.19972 0.0
O1418 O 0.36451 0.21169 0.23561 0.0
C1419 C 0.39293 0.19073 0.28065 0.0
O1420 O 0.38198 0.17936 0.26315 0.0
C1421 C 0.32132 0.23054 0.21949 0.0
O1422 O 0.33636 0.24411 0.22346 0.0
O1423 O 0.36094 0.22786 0.17987 0.0
O1424 O 0.38537 0.24349 0.20651 0.0
H1425 H 0.35593 0.18687 0.09605 0.0
H1426 H 0.36108 0.22388 0.28771 0.0
O1427 O 0.39758 0.20954 0.27478 0.0
H1428 H 0.37041 0.29898 0.26931 0.0
H1429 H 0.44767 0.26164 0.29614 0.0
H1430 H 0.42463 0.23985 0.20179 0.0
H1431 H 0.38967 0.27282 0.24159 0.0
H1432 H 0.41399 0.24367 0.28967 0.0
O1433 O 0.32547 0.21257 0.20946 0.0
H1434 H 0.36954 0.19996 0.14118 0.0
H1435 H 0.31426 0.18036 0.18264 0.0
H1436 H 0.45836 0.25791 0.20728 0.0
H1437 H 0.34163 0.24951 0.3161 0.0
H1438 H 0.47008 0.26892 0.25474 0.0
H1439 H 0.3462 0.28737 0.3069 0.0
O1440 O 0.40592 0.20528 0.21704 0.0
H1441 H 0.32304 0.15761 0.277 0.0
H1442 H 0.36133 0.15633 0.18723 0.0
H1443 H 0.35324 0.12322 0.21121 0.0
H1444 H 0.33391 0.12372 0.2564 0.0
H1445 H 0.33169 0.19037 0.25249 0.0
H1446 H 0.29998 0.16722 0.13791 0.0
H1447 H 0.32091 0.17037 0.09423 0.0
O1448 O 0.38185 0.18982 0.18967 0.0
C1449 C 0.37374 0.24264 0.18488 0.0
C1450 C 0.34669 0.18536 0.11495 0.0
C1451 C 0.31527 0.17436 0.13844 0.0
N1452 N 0.34276 0.19081 0.16453 0.0
C1453 C 0.35433 0.1927 0.14058 0.0
C1454 C 0.32341 0.18188 0.16369 0.0
C1455 C 0.32703 0.17612 0.11394 0.0
C1456 C 0.3633 0.24033 0.28378 0.0
N1457 N 0.37658 0.24685 0.26314 0.0
C1458 C 0.35219 0.25477 0.29984 0.0
C1459 C 0.35473 0.27601 0.29464 0.0
C1460 C 0.36831 0.28253 0.27355 0.0
C1461 C 0.37915 0.26765 0.25789 0.0
C1462 C 0.44272 0.25695 0.27535 0.0
C1463 C 0.42956 0.24473 0.22249 0.0
C1464 C 0.42368 0.24674 0.27156 0.0
N1465 N 0.41729 0.24085 0.24535 0.0
C1466 C 0.4487 0.25489 0.22547 0.0
C1467 C 0.45528 0.26104 0.25211 0.0
C1468 C 0.40065 0.19247 0.19778 0.0
C1469 C 0.33142 0.15718 0.25728 0.0
C1470 C 0.35303 0.15669 0.20696 0.0
C1471 C 0.34842 0.13788 0.2204 0.0
C1472 C 0.33756 0.13818 0.24574 0.0
N1473 N 0.34696 0.17527 0.21841 0.0
C1474 C 0.33628 0.17568 0.24324 0.0
Co1475 Co 0.52859 0.6414 0.991 0.0
Co1476 Co 0.54901 0.60402 0.94618 0.0
O1477 O 0.54115 0.61419 0.98354 0.0
C1478 C 0.56516 0.6393 0.02995 0.0
O1479 O 0.57559 0.62811 0.01167 0.0
C1480 C 0.51954 0.5727 0.96842 0.0
O1481 O 0.50764 0.58845 0.97573 0.0
O1482 O 0.52186 0.61311 0.92939 0.0
O1483 O 0.5101 0.63852 0.95769 0.0
H1484 H 0.55793 0.60863 0.84155 0.0
H1485 H 0.53025 0.60933 0.03572 0.0
O1486 O 0.54665 0.64535 0.02479 0.0
H1487 H 0.45557 0.62521 0.02337 0.0
H1488 H 0.49918 0.69819 0.05245 0.0
H1489 H 0.51652 0.67743 0.95553 0.0
H1490 H 0.48219 0.64366 0.99545 0.0
H1491 H 0.51437 0.6636 0.04271 0.0
O1492 O 0.53661 0.57603 0.95546 0.0
H1493 H 0.54811 0.62149 0.88853 0.0
H1494 H 0.56669 0.56399 0.92506 0.0
H1495 H 0.5012 0.7121 0.96431 0.0
H1496 H 0.50419 0.59062 0.06429 0.0
H1497 H 0.49244 0.72269 0.01307 0.0
H1498 H 0.46653 0.59847 0.05811 0.0
O1499 O 0.55 0.65559 0.96755 0.0
H1500 H 0.59479 0.56861 0.0174 0.0
H1501 H 0.59354 0.60945 0.92968 0.0
H1502 H 0.62731 0.59886 0.94993 0.0
H1503 H 0.62808 0.57824 0.99408 0.0
H1504 H 0.56138 0.57976 0.99661 0.0
H1505 H 0.57657 0.55043 0.87844 0.0
H1506 H 0.57227 0.57285 0.83629 0.0
O1507 O 0.56154 0.63175 0.93652 0.0
C1508 C 0.50872 0.62731 0.9357 0.0
C1509 C 0.55993 0.59873 0.85977 0.0
C1510 C 0.57036 0.56606 0.88047 0.0
N1511 N 0.55694 0.59355 0.90952 0.0
C1512 C 0.55445 0.60595 0.88643 0.0
C1513 C 0.56469 0.5738 0.9068 0.0
C1514 C 0.56795 0.57865 0.85683 0.0
C1515 C 0.51391 0.61297 0.0331 0.0
N1516 N 0.50774 0.62758 0.01392 0.0
C1517 C 0.49922 0.60227 0.04926 0.0
C1518 C 0.47809 0.60665 0.04575 0.0
C1519 C 0.47193 0.62163 0.02623 0.0
C1520 C 0.48706 0.63198 0.0104 0.0
C1521 C 0.50289 0.69374 0.03111 0.0
C1522 C 0.51261 0.68186 0.97679 0.0
C1523 C 0.51154 0.67419 0.02547 0.0
N1524 N 0.5162 0.66844 0.99855 0.0
C1525 C 0.504 0.70154 0.98164 0.0
C1526 C 0.49911 0.70748 0.009 0.0
C1527 C 0.5611 0.65025 0.94648 0.0
C1528 C 0.59466 0.57755 0.99812 0.0
C1529 C 0.59374 0.6006 0.94898 0.0
C1530 C 0.61292 0.59457 0.9603 0.0
C1531 C 0.61333 0.58298 0.98505 0.0
N1532 N 0.5755 0.5952 0.96191 0.0
C1533 C 0.57578 0.58382 0.98617 0.0
Co1534 Co 0.10848 0.77659 0.73896 0.0
Co1535 Co 0.14602 0.79808 0.6955 0.0
O1536 O 0.13568 0.78935 0.73236 0.0
C1537 C 0.1101 0.81224 0.77924 0.0
O1538 O 0.12092 0.82318 0.76109 0.0
C1539 C 0.17782 0.76831 0.71593 0.0
O1540 O 0.16249 0.75515 0.72039 0.0
O1541 O 0.13756 0.77107 0.6777 0.0
O1542 O 0.11149 0.7591 0.70472 0.0
H1543 H 0.14252 0.80863 0.59106 0.0
H1544 H 0.14044 0.77697 0.78384 0.0
O1545 O 0.1044 0.79369 0.77363 0.0
H1546 H 0.12465 0.70269 0.76754 0.0
H1547 H 0.05152 0.74543 0.79852 0.0
H1548 H 0.07256 0.76556 0.70268 0.0
H1549 H 0.10625 0.73009 0.74094 0.0
H1550 H 0.08614 0.76088 0.78976 0.0
O1551 O 0.17408 0.78613 0.70519 0.0
H1552 H 0.12928 0.79778 0.63744 0.0
H1553 H 0.18595 0.81687 0.67582 0.0
H1554 H 0.03786 0.75001 0.71048 0.0
H1555 H 0.15911 0.75011 0.81111 0.0
H1556 H 0.02713 0.73985 0.75869 0.0
H1557 H 0.1513 0.71265 0.80295 0.0
O1558 O 0.09436 0.79864 0.71655 0.0
H1559 H 0.1799 0.84331 0.76867 0.0
H1560 H 0.13988 0.84277 0.68026 0.0
H1561 H 0.14967 0.87639 0.70168 0.0
H1562 H 0.16988 0.87679 0.74617 0.0
H1563 H 0.16955 0.81006 0.74675 0.0
H1564 H 0.19987 0.82779 0.62982 0.0
H1565 H 0.17807 0.82375 0.58705 0.0
O1566 O 0.11819 0.81026 0.68557 0.0
C1567 C 0.12309 0.75798 0.68307 0.0
C1568 C 0.15215 0.81052 0.60955 0.0
C1569 C 0.18435 0.82124 0.6313 0.0
N1570 N 0.15677 0.80682 0.65932 0.0
C1571 C 0.14472 0.80446 0.63588 0.0
C1572 C 0.1764 0.81499 0.65728 0.0
C1573 C 0.1721 0.81898 0.60731 0.0
C1574 C 0.13684 0.76071 0.78034 0.0
N1575 N 0.12226 0.7551 0.76083 0.0
C1576 C 0.14751 0.74557 0.79577 0.0
C1577 C 0.14314 0.72456 0.79116 0.0
C1578 C 0.1282 0.71896 0.77128 0.0
C1579 C 0.11788 0.73453 0.7562 0.0
C1580 C 0.05603 0.74975 0.77741 0.0
C1581 C 0.06807 0.76104 0.7237 0.0
C1582 C 0.0756 0.75855 0.77232 0.0
N1583 N 0.08142 0.76398 0.7457 0.0
C1584 C 0.04837 0.7523 0.72799 0.0
C1585 C 0.04235 0.74662 0.75505 0.0
C1586 C 0.0997 0.80984 0.69558 0.0
C1587 C 0.17114 0.84334 0.74925 0.0
C1588 C 0.14854 0.84281 0.69972 0.0
C1589 C 0.15412 0.8619 0.71169 0.0
C1590 C 0.16548 0.86212 0.73664 0.0
N1591 N 0.15415 0.82446 0.7122 0.0
C1592 C 0.16532 0.82455 0.73665 0.0
Co1593 Co 0.97012 0.3588 0.48964 0.0
Co1594 Co 0.95043 0.39688 0.44549 0.0
O1595 O 0.95806 0.38633 0.48274 0.0
C1596 C 0.93395 0.3611 0.52915 0.0
O1597 O 0.92355 0.3726 0.51118 0.0
C1598 C 0.97987 0.42857 0.46731 0.0
O1599 O 0.99288 0.41322 0.47243 0.0
O1600 O 0.97787 0.38829 0.4291 0.0
O1601 O 0.98827 0.36148 0.45595 0.0
H1602 H 0.94318 0.39391 0.34051 0.0
H1603 H 0.96976 0.39061 0.53468 0.0
O1604 O 0.95239 0.35495 0.52377 0.0
H1605 H 0.04389 0.37302 0.52059 0.0
H1606 H 0.9989 0.30087 0.54973 0.0
H1607 H 0.98076 0.32272 0.4535 0.0
H1608 H 0.01652 0.35548 0.49293 0.0
H1609 H 0.98456 0.33594 0.54074 0.0
O1610 O 0.96228 0.42484 0.45589 0.0
H1611 H 0.9524 0.38037 0.38738 0.0
H1612 H 0.93247 0.437 0.42506 0.0
H1613 H 0.99521 0.28757 0.46152 0.0
H1614 H 0.9966 0.40843 0.563 0.0
H1615 H 0.00435 0.27643 0.50994 0.0
H1616 H 0.03398 0.3997 0.55596 0.0
O1617 O 0.94811 0.34528 0.46663 0.0
H1618 H 0.90335 0.43107 0.51625 0.0
H1619 H 0.90616 0.39109 0.42788 0.0
H1620 H 0.87203 0.40118 0.44748 0.0
H1621 H 0.87048 0.42137 0.49194 0.0
H1622 H 0.93714 0.42041 0.49613 0.0
H1623 H 0.92317 0.45121 0.37857 0.0
H1624 H 0.92846 0.42958 0.3359 0.0
O1625 O 0.93827 0.36919 0.43471 0.0
C1626 C 0.99037 0.37336 0.4347 0.0
C1627 C 0.94074 0.40346 0.35896 0.0
C1628 C 0.92954 0.43563 0.38032 0.0
N1629 N 0.94283 0.40782 0.40893 0.0
C1630 C 0.94587 0.39586 0.38556 0.0
C1631 C 0.93487 0.42752 0.40657 0.0
C1632 C 0.9325 0.42348 0.35638 0.0
C1633 C 0.98599 0.38663 0.53166 0.0
N1634 N 0.99157 0.37201 0.5122 0.0
C1635 C 0.00112 0.39681 0.54768 0.0
C1636 C 0.02209 0.39193 0.5437 0.0
C1637 C 0.02766 0.37697 0.52384 0.0
C1638 C 0.0121 0.36714 0.50816 0.0
C1639 C 0.99502 0.30556 0.52853 0.0
C1640 C 0.98486 0.31805 0.4746 0.0
C1641 C 0.98686 0.32539 0.52332 0.0
N1642 N 0.98198 0.33143 0.49658 0.0
C1643 C 0.99297 0.2981 0.47902 0.0
C1644 C 0.99808 0.29185 0.5062 0.0
C1645 C 0.93776 0.35078 0.44497 0.0
C1646 C 0.90383 0.42231 0.49683 0.0
C1647 C 0.90562 0.39974 0.44735 0.0
C1648 C 0.88625 0.40548 0.45828 0.0
C1649 C 0.88539 0.41684 0.48321 0.0
N1650 N 0.92364 0.40517 0.46082 0.0
C1651 C 0.92292 0.41632 0.48526 0.0
Co1652 Co 0.39694 0.77854 0.25985 0.0
Co1653 Co 0.35667 0.79678 0.30125 0.0
O1654 O 0.36875 0.78947 0.26482 0.0
C1655 C 0.39551 0.81446 0.22019 0.0
O1656 O 0.3864 0.82577 0.23963 0.0
C1657 C 0.32671 0.76702 0.27636 0.0
O1658 O 0.34278 0.75515 0.27034 0.0
O1659 O 0.36532 0.76958 0.31806 0.0
O1660 O 0.39425 0.76096 0.29417 0.0
H1661 H 0.35583 0.80414 0.40628 0.0
H1662 H 0.36645 0.77651 0.2132 0.0
O1663 O 0.40048 0.7956 0.22511 0.0
H1664 H 0.38676 0.70356 0.23125 0.0
H1665 H 0.45735 0.75064 0.20359 0.0
H1666 H 0.43262 0.77049 0.29792 0.0
H1667 H 0.40242 0.73227 0.25849 0.0
H1668 H 0.42158 0.76385 0.21045 0.0
O1669 O 0.32941 0.7842 0.2893 0.0
H1670 H 0.37115 0.79514 0.36035 0.0
H1671 H 0.3155 0.81389 0.31907 0.0
H1672 H 0.46846 0.75718 0.29205 0.0
H1673 H 0.35055 0.74833 0.18522 0.0
H1674 H 0.48102 0.74714 0.24461 0.0
H1675 H 0.36062 0.71153 0.19427 0.0
O1676 O 0.40887 0.80168 0.28278 0.0
H1677 H 0.32497 0.84306 0.22753 0.0
H1678 H 0.36056 0.84116 0.31929 0.0
H1679 H 0.35079 0.87506 0.29867 0.0
H1680 H 0.33283 0.87616 0.25248 0.0
H1681 H 0.33518 0.80951 0.24879 0.0
H1682 H 0.29951 0.82294 0.36458 0.0
H1683 H 0.31975 0.81815 0.40858 0.0
O1684 O 0.38358 0.80953 0.31372 0.0
C1685 C 0.38134 0.75813 0.31417 0.0
C1686 C 0.34687 0.80635 0.38724 0.0
C1687 C 0.31525 0.81688 0.36384 0.0
N1688 N 0.34428 0.80411 0.33706 0.0
C1689 C 0.35549 0.80133 0.36117 0.0
C1690 C 0.32437 0.81168 0.33814 0.0
C1691 C 0.32662 0.81419 0.38852 0.0
C1692 C 0.37105 0.76055 0.2171 0.0
N1693 N 0.38531 0.75603 0.23754 0.0
C1694 C 0.36193 0.74465 0.20125 0.0
C1695 C 0.36756 0.72401 0.20638 0.0
C1696 C 0.3822 0.71953 0.22715 0.0
C1697 C 0.39095 0.73583 0.24262 0.0
C1698 C 0.45204 0.75494 0.22437 0.0
C1699 C 0.43794 0.76605 0.27723 0.0
C1700 C 0.43182 0.76248 0.22837 0.0
N1701 N 0.42498 0.76783 0.25459 0.0
C1702 C 0.45827 0.75858 0.27403 0.0
C1703 C 0.46532 0.75297 0.2474 0.0
C1704 C 0.40218 0.8113 0.30446 0.0
C1705 C 0.33273 0.84279 0.24771 0.0
C1706 C 0.3528 0.8415 0.29914 0.0
C1707 C 0.34727 0.86075 0.2876 0.0
C1708 C 0.33717 0.86135 0.2617 0.0
N1709 N 0.34836 0.82336 0.28532 0.0
C1710 C 0.33847 0.82383 0.25991 0.0
Co1711 Co 0.9699 0.6483 0.0164 0.0
Co1712 Co 0.95395 0.60638 0.05546 0.0
O1713 O 0.96144 0.6191 0.01951 0.0
C1714 C 0.93814 0.64333 0.97137 0.0
O1715 O 0.92699 0.6317 0.98835 0.0
C1716 C 0.98479 0.57649 0.03212 0.0
O1717 O 0.99783 0.59214 0.02923 0.0
O1718 O 0.98102 0.6153 0.07235 0.0
O1719 O 0.98447 0.64716 0.05348 0.0
H1720 H 0.94658 0.60364 0.16043 0.0
H1721 H 0.97929 0.61911 0.96993 0.0
O1722 O 0.95563 0.65068 0.97921 0.0
H1723 H 0.0476 0.64574 0.00122 0.0
H1724 H 0.99664 0.71165 0.96528 0.0
H1725 H 0.97037 0.68436 0.05538 0.0
H1726 H 0.01516 0.6579 0.02372 0.0
H1727 H 0.98644 0.67471 0.96985 0.0
O1728 O 0.96678 0.5795 0.04267 0.0
H1729 H 0.95547 0.61983 0.11501 0.0
H1730 H 0.9373 0.56472 0.072 0.0
H1731 H 0.98055 0.72136 0.0518 0.0
H1732 H 0.01135 0.60665 0.94668 0.0
H1733 H 0.99386 0.73519 0.00651 0.0
H1734 H 0.04581 0.61996 0.96237 0.0
O1735 O 0.9439 0.65735 0.03543 0.0
H1736 H 0.90836 0.57416 0.98135 0.0
H1737 H 0.90943 0.60953 0.07329 0.0
H1738 H 0.87576 0.59918 0.05252 0.0
H1739 H 0.87508 0.5813 0.00627 0.0
H1740 H 0.94167 0.58504 0.00269 0.0
H1741 H 0.92836 0.54787 0.11699 0.0
H1742 H 0.93291 0.5674 0.16161 0.0
O1743 O 0.94064 0.63295 0.06892 0.0
C1744 C 0.98932 0.63337 0.07163 0.0
C1745 C 0.94446 0.59499 0.14113 0.0
C1746 C 0.93427 0.56368 0.11674 0.0
N1747 N 0.94675 0.59329 0.09087 0.0
C1748 C 0.94942 0.6041 0.11533 0.0
C1749 C 0.93939 0.57329 0.09134 0.0
C1750 C 0.93682 0.57465 0.14177 0.0
C1751 C 0.99423 0.6251 0.97668 0.0
N1752 N 0.99534 0.63929 0.99802 0.0
C1753 C 0.01233 0.61794 0.96352 0.0
C1754 C 0.03166 0.62539 0.97237 0.0
C1755 C 0.03267 0.63985 0.99418 0.0
C1756 C 0.01425 0.64664 0.00687 0.0
C1757 C 0.99095 0.70578 0.98516 0.0
C1758 C 0.97628 0.69024 0.03566 0.0
C1759 C 0.98513 0.68488 0.98787 0.0
N1760 N 0.97806 0.67732 0.01297 0.0
C1761 C 0.98195 0.71122 0.03373 0.0
C1762 C 0.98938 0.71898 0.0083 0.0
C1763 C 0.93608 0.65071 0.05836 0.0
C1764 C 0.90845 0.5819 0.00155 0.0
C1765 C 0.90927 0.60189 0.05306 0.0
C1766 C 0.89015 0.59599 0.04146 0.0
C1767 C 0.88979 0.58594 0.01552 0.0
N1768 N 0.92751 0.59787 0.03923 0.0
C1769 C 0.92728 0.588 0.01381 0.0
Co1770 Co 0.1093 0.22282 0.76052 0.0
Co1771 Co 0.14746 0.20407 0.80459 0.0
O1772 O 0.13711 0.21168 0.76738 0.0
C1773 C 0.1117 0.18775 0.7195 0.0
O1774 O 0.1184 0.17538 0.73955 0.0
C1775 C 0.17955 0.23312 0.78306 0.0
O1776 O 0.16439 0.24648 0.77854 0.0
O1777 O 0.13908 0.23166 0.82053 0.0
O1778 O 0.1103 0.23953 0.79585 0.0
H1779 H 0.14444 0.19755 0.90965 0.0
H1780 H 0.14226 0.22609 0.71719 0.0
O1781 O 0.10757 0.20677 0.72468 0.0
H1782 H 0.12052 0.29849 0.73616 0.0
H1783 H 0.05162 0.25205 0.70037 0.0
H1784 H 0.07188 0.23002 0.79576 0.0
H1785 H 0.1036 0.26909 0.76052 0.0
H1786 H 0.08702 0.23868 0.70973 0.0
O1787 O 0.17558 0.21544 0.79405 0.0
H1788 H 0.13108 0.20683 0.86272 0.0
H1789 H 0.18723 0.18546 0.82516 0.0
H1790 H 0.03638 0.24349 0.78739 0.0
H1791 H 0.15949 0.25498 0.69208 0.0
H1792 H 0.02605 0.2546 0.7394 0.0
H1793 H 0.14869 0.29151 0.7016 0.0
O1794 O 0.09637 0.1991 0.7813 0.0
H1795 H 0.17989 0.15609 0.73347 0.0
H1796 H 0.14123 0.16001 0.82282 0.0
H1797 H 0.15041 0.12561 0.80323 0.0
H1798 H 0.16992 0.1235 0.75827 0.0
H1799 H 0.17024 0.19016 0.75367 0.0
H1800 H 0.20127 0.17609 0.87172 0.0
H1801 H 0.17978 0.18206 0.91437 0.0
O1802 O 0.11963 0.1924 0.81549 0.0
C1803 C 0.12281 0.24268 0.81623 0.0
C1804 C 0.15392 0.19481 0.89122 0.0
C1805 C 0.18583 0.18279 0.86993 0.0
N1806 N 0.15829 0.19653 0.84122 0.0
C1807 C 0.14642 0.19998 0.86458 0.0
C1808 C 0.17782 0.18817 0.84364 0.0
C1809 C 0.17376 0.18614 0.89385 0.0
C1810 C 0.13738 0.24193 0.72131 0.0
N1811 N 0.12198 0.2459 0.74041 0.0
C1812 C 0.14723 0.25823 0.70708 0.0
C1813 C 0.14119 0.27872 0.71246 0.0
C1814 C 0.12541 0.28265 0.73187 0.0
C1815 C 0.11594 0.26595 0.74573 0.0
C1816 C 0.05594 0.24728 0.72138 0.0
C1817 C 0.06754 0.23495 0.77486 0.0
C1818 C 0.07595 0.23964 0.72679 0.0
N1819 N 0.08155 0.23369 0.75331 0.0
C1820 C 0.0474 0.24251 0.77023 0.0
C1821 C 0.04161 0.24872 0.74329 0.0
C1822 C 0.1017 0.19015 0.80416 0.0
C1823 C 0.17145 0.1568 0.75312 0.0
C1824 C 0.14967 0.15922 0.8032 0.0
C1825 C 0.15486 0.1397 0.79225 0.0
C1826 C 0.16582 0.13853 0.76702 0.0
N1827 N 0.15529 0.17708 0.78948 0.0
C1828 C 0.16601 0.17605 0.76472 0.0
Co1829 Co 0.52892 0.35745 0.50871 0.0
Co1830 Co 0.5502 0.39531 0.55198 0.0
O1831 O 0.54176 0.38469 0.5151 0.0
C1832 C 0.56502 0.35866 0.4691 0.0
O1833 O 0.57553 0.37028 0.48679 0.0
C1834 C 0.52049 0.427 0.53106 0.0
O1835 O 0.50753 0.4116 0.52599 0.0
O1836 O 0.52306 0.38696 0.56947 0.0
O1837 O 0.51091 0.36106 0.54232 0.0
H1838 H 0.55987 0.3924 0.6566 0.0
H1839 H 0.53025 0.38879 0.46307 0.0
O1840 O 0.54654 0.35272 0.47466 0.0
H1841 H 0.45561 0.37382 0.47768 0.0
H1842 H 0.49819 0.29997 0.44964 0.0
H1843 H 0.51702 0.32211 0.54551 0.0
H1844 H 0.48243 0.3556 0.50553 0.0
H1845 H 0.51381 0.33457 0.45801 0.0
O1846 O 0.53824 0.42329 0.54201 0.0
H1847 H 0.54941 0.3789 0.61018 0.0
H1848 H 0.56884 0.43536 0.57155 0.0
H1849 H 0.50128 0.28744 0.5381 0.0
H1850 H 0.50397 0.40725 0.43455 0.0
H1851 H 0.49178 0.27616 0.48987 0.0
H1852 H 0.46633 0.39985 0.44186 0.0
O1853 O 0.5505 0.34342 0.53206 0.0
H1854 H 0.59583 0.42904 0.47914 0.0
H1855 H 0.59481 0.38936 0.56783 0.0
H1856 H 0.62854 0.39916 0.54674 0.0
H1857 H 0.62919 0.4192 0.50212 0.0
H1858 H 0.56246 0.41866 0.50074 0.0
H1859 H 0.57936 0.44953 0.61758 0.0
H1860 H 0.57496 0.42796 0.6605 0.0
O1861 O 0.56238 0.3676 0.56233 0.0
C1862 C 0.50974 0.37275 0.56387 0.0
C1863 C 0.56192 0.40192 0.63804 0.0
C1864 C 0.57283 0.434 0.61614 0.0
N1865 N 0.55865 0.40627 0.58818 0.0
C1866 C 0.55609 0.39434 0.6117 0.0
C1867 C 0.5668 0.42591 0.59015 0.0
C1868 C 0.57037 0.42188 0.64022 0.0
C1869 C 0.51392 0.38536 0.4662 0.0
N1870 N 0.50789 0.3711 0.48591 0.0
C1871 C 0.4991 0.39591 0.45006 0.0
C1872 C 0.47799 0.39177 0.4542 0.0
C1873 C 0.47196 0.37718 0.47431 0.0
C1874 C 0.48721 0.36696 0.49009 0.0
C1875 C 0.50223 0.30472 0.47076 0.0
C1876 C 0.51278 0.31737 0.52448 0.0
C1877 C 0.51112 0.32428 0.47562 0.0
N1878 N 0.51619 0.33041 0.50225 0.0
C1879 C 0.50394 0.2977 0.52041 0.0
C1880 C 0.49863 0.29137 0.49334 0.0
C1881 C 0.56177 0.34897 0.55285 0.0
C1882 C 0.59575 0.42034 0.49862 0.0
C1883 C 0.59496 0.39793 0.5483 0.0
C1884 C 0.61411 0.40352 0.53652 0.0
C1885 C 0.61446 0.41479 0.5115 0.0
N1886 N 0.57667 0.40343 0.53554 0.0
C1887 C 0.5769 0.41451 0.51103 0.0
H1888 H 0.09066 0.1464 0.40797 0.0
H1889 H 0.05507 0.19299 0.45286 0.0
H1890 H 0.10714 0.1739 0.38017 0.0
H1891 H 0.07135 0.22027 0.4247 0.0
H1892 H 0.07829 0.25229 0.33672 0.0
H1893 H 0.06687 0.22626 0.37049 0.0
H1894 H 0.13083 0.20851 0.38543 0.0
H1895 H 0.14251 0.23514 0.35165 0.0
C1896 C 0.08655 0.16248 0.41222 0.0
C1897 C 0.0714 0.16743 0.43256 0.0
C1898 C 0.09609 0.1782 0.39637 0.0
C1899 C 0.09043 0.19916 0.40023 0.0
C1900 C 0.07591 0.2042 0.42124 0.0
C1901 C 0.06663 0.18855 0.4374 0.0
C1902 C 0.09 0.24293 0.34719 0.0
C1903 C 0.11132 0.24572 0.34141 0.0
C1904 C 0.08343 0.22812 0.36671 0.0
C1905 C 0.09796 0.21547 0.38063 0.0
C1906 C 0.11933 0.21812 0.37493 0.0
C1907 C 0.12598 0.23335 0.35572 0.0
H1908 H 0.99616 0.82946 0.58877 0.0
H1909 H 0.0168 0.89321 0.59832 0.0
H1910 H 0.02257 0.81802 0.62196 0.0
H1911 H 0.04375 0.88149 0.63161 0.0
H1912 H 0.10445 0.83972 0.65467 0.0
H1913 H 0.07701 0.85644 0.62698 0.0
H1914 H 0.03027 0.8237 0.67494 0.0
H1915 H 0.05746 0.80714 0.70287 0.0
C1916 C 0.00636 0.84106 0.59796 0.0
C1917 C 0.00444 0.86225 0.59083 0.0
C1918 C 0.02139 0.83449 0.61715 0.0
C1919 C 0.03512 0.84888 0.62942 0.0
C1920 C 0.03332 0.87011 0.62239 0.0
C1921 C 0.0179 0.8768 0.60348 0.0
C1922 C 0.08832 0.83633 0.65965 0.0
C1923 C 0.08321 0.82192 0.68089 0.0
C1924 C 0.07264 0.84601 0.64387 0.0
C1925 C 0.05157 0.84126 0.64875 0.0
C1926 C 0.04642 0.82753 0.67065 0.0
C1927 C 0.06203 0.81808 0.68667 0.0
H1928 H 0.4153 0.82086 0.96145 0.0
H1929 H 0.43164 0.85298 0.88488 0.0
H1930 H 0.39642 0.79473 0.93426 0.0
H1931 H 0.41413 0.82642 0.85765 0.0
H1932 H 0.37344 0.78293 0.8112 0.0
H1933 H 0.38405 0.81131 0.84214 0.0
H1934 H 0.40138 0.76617 0.90564 0.0
H1935 H 0.38919 0.73812 0.87515 0.0
C1936 C 0.41484 0.82233 0.9388 0.0
C1937 C 0.42494 0.83902 0.92536 0.0
C1938 C 0.40415 0.80724 0.92312 0.0
C1939 C 0.40367 0.80823 0.89356 0.0
C1940 C 0.41358 0.8252 0.88029 0.0
C1941 C 0.42384 0.84047 0.89597 0.0
C1942 C 0.37904 0.77927 0.8321 0.0
C1943 C 0.38041 0.75851 0.84102 0.0
C1944 C 0.38542 0.79547 0.84976 0.0
C1945 C 0.39402 0.7912 0.87641 0.0
C1946 C 0.39463 0.77028 0.88556 0.0
C1947 C 0.38772 0.75412 0.8681 0.0
H1948 H 0.44266 0.19992 0.19946 0.0
H1949 H 0.3967 0.1594 0.16149 0.0
H1950 H 0.46972 0.18404 0.17057 0.0
H1951 H 0.42401 0.1434 0.13284 0.0
H1952 H 0.48596 0.11005 0.10329 0.0
H1953 H 0.45951 0.12206 0.13701 0.0
H1954 H 0.47422 0.18594 0.11655 0.0
H1955 H 0.50013 0.17419 0.08288 0.0
C1956 C 0.43833 0.18741 0.18533 0.0
C1957 C 0.41742 0.18107 0.18269 0.0
C1958 C 0.45386 0.17837 0.16873 0.0
C1959 C 0.44891 0.16258 0.1494 0.0
C1960 C 0.42824 0.15547 0.1477 0.0
C1961 C 0.41261 0.16472 0.16403 0.0
C1962 C 0.48352 0.12664 0.10606 0.0
C1963 C 0.4951 0.14115 0.09031 0.0
C1964 C 0.46839 0.13348 0.12527 0.0
C1965 C 0.46496 0.15492 0.12948 0.0
C1966 C 0.4767 0.16934 0.11396 0.0
C1967 C 0.49145 0.16256 0.0945 0.0
H1968 H 0.10927 0.73501 0.12732 0.0
H1969 H 0.13517 0.78193 0.1818 0.0
H1970 H 0.09599 0.76207 0.09612 0.0
H1971 H 0.12344 0.8092 0.14975 0.0
H1972 H 0.07478 0.85219 0.11155 0.0
H1973 H 0.09319 0.82593 0.13838 0.0
H1974 H 0.09957 0.78823 0.06349 0.0
H1975 H 0.07978 0.81411 0.03712 0.0
C1976 C 0.11278 0.75118 0.13193 0.0
C1977 C 0.1233 0.75652 0.15668 0.0
C1978 C 0.10522 0.76678 0.11405 0.0
C1979 C 0.10833 0.78805 0.12038 0.0
C1980 C 0.12012 0.79313 0.14444 0.0
C1981 C 0.12718 0.77754 0.16263 0.0
C1982 C 0.08022 0.83836 0.10076 0.0
C1983 C 0.07568 0.83519 0.07224 0.0
C1984 C 0.09102 0.82326 0.11614 0.0
C1985 C 0.09805 0.80475 0.10329 0.0
C1986 C 0.0941 0.80198 0.07441 0.0
C1987 C 0.08286 0.8169 0.05916 0.0
H1988 H 0.39443 0.83279 0.35298 0.0
H1989 H 0.44356 0.81932 0.29342 0.0
H1990 H 0.41932 0.85096 0.38271 0.0
H1991 H 0.46847 0.83762 0.32347 0.0
H1992 H 0.50463 0.88502 0.37843 0.0
H1993 H 0.47783 0.87318 0.34528 0.0
H1994 H 0.44912 0.83687 0.41109 0.0
H1995 H 0.47567 0.84837 0.44386 0.0
C1996 C 0.41047 0.83387 0.346 0.0
C1997 C 0.41698 0.82433 0.32086 0.0
C1998 C 0.42474 0.84428 0.36313 0.0
C1999 C 0.44586 0.84557 0.35553 0.0
C2000 C 0.45225 0.83699 0.32977 0.0
C2001 C 0.43798 0.8264 0.31265 0.0
C2002 C 0.49241 0.87476 0.38588 0.0
C2003 C 0.49231 0.86768 0.41386 0.0
C2004 C 0.47717 0.86789 0.36686 0.0
C2005 C 0.46137 0.85413 0.37562 0.0
C2006 C 0.46093 0.84766 0.40377 0.0
C2007 C 0.47624 0.85423 0.42257 0.0
H2008 H 0.35904 0.23702 0.64813 0.0
H2009 H 0.42322 0.25251 0.66639 0.0
H2010 H 0.37101 0.21049 0.6144 0.0
H2011 H 0.43492 0.2266 0.63278 0.0
H2012 H 0.44867 0.19452 0.55069 0.0
H2013 H 0.43207 0.22161 0.57876 0.0
H2014 H 0.39354 0.17533 0.61913 0.0
H2015 H 0.41025 0.14797 0.59128 0.0
C2016 C 0.37561 0.23488 0.64485 0.0
C2017 C 0.39016 0.2468 0.66004 0.0
C2018 C 0.38244 0.21971 0.62566 0.0
C2019 C 0.40388 0.21665 0.6209 0.0
C2020 C 0.41831 0.22879 0.6358 0.0
C2021 C 0.41156 0.24355 0.65523 0.0
C2022 C 0.43646 0.19005 0.56521 0.0
C2023 C 0.43097 0.16898 0.56887 0.0
C2024 C 0.42699 0.2056 0.58131 0.0
C2025 C 0.41161 0.20052 0.60117 0.0
C2026 C 0.40527 0.17966 0.60383 0.0
C2027 C 0.41495 0.16401 0.58798 0.0
H2028 H 0.0646 0.17441 0.7843 0.0
H2029 H 0.10338 0.17668 0.85843 0.0
H2030 H 0.03855 0.15443 0.81025 0.0
H2031 H 0.07714 0.15792 0.88462 0.0
H2032 H 0.03352 0.11502 0.92641 0.0
H2033 H 0.06034 0.12691 0.89371 0.0
H2034 H 0.01293 0.15826 0.8446 0.0
H2035 H 0.98622 0.14503 0.87649 0.0
C2036 C 0.06757 0.17067 0.80612 0.0
C2037 C 0.0861 0.1772 0.81924 0.0
C2038 C 0.05256 0.1593 0.8211 0.0
C2039 C 0.05559 0.15444 0.84968 0.0
C2040 C 0.07431 0.16081 0.86255 0.0
C2041 C 0.08938 0.17183 0.84752 0.0
C2042 C 0.02892 0.12387 0.90803 0.0
C2043 C 0.00794 0.12893 0.90357 0.0
C2044 C 0.04426 0.131 0.8895 0.0
C2045 C 0.03898 0.14395 0.86663 0.0
C2046 C 0.01771 0.14816 0.86164 0.0
C2047 C 0.00235 0.14062 0.87989 0.0
H2048 H 0.90974 0.82017 0.5405 0.0
H2049 H 0.93134 0.85062 0.61591 0.0
H2050 H 0.89057 0.79496 0.56888 0.0
H2051 H 0.91359 0.82487 0.64425 0.0
H2052 H 0.8735 0.78322 0.69383 0.0
H2053 H 0.88375 0.81126 0.66225 0.0
H2054 H 0.89479 0.76592 0.59653 0.0
H2055 H 0.88285 0.73828 0.62777 0.0
C2056 C 0.91037 0.82147 0.56316 0.0
C2057 C 0.92201 0.83742 0.57594 0.0
C2058 C 0.89952 0.8069 0.57951 0.0
C2059 C 0.90045 0.80764 0.60908 0.0
C2060 C 0.91191 0.82389 0.62168 0.0
C2061 C 0.92231 0.83869 0.60536 0.0
C2062 C 0.87764 0.77945 0.67237 0.0
C2063 C 0.87739 0.75871 0.66312 0.0
C2064 C 0.88382 0.79546 0.6543 0.0
C2065 C 0.89066 0.791 0.6268 0.0
C2066 C 0.88947 0.77019 0.6173 0.0
C2067 C 0.88267 0.75425 0.63521 0.0
H2068 H 0.00552 0.11649 0.37752 0.0
H2069 H 0.97221 0.14913 0.44303 0.0
H2070 H 0.97916 0.12785 0.3434 0.0
H2071 H 0.94622 0.16023 0.40935 0.0
H2072 H 0.89369 0.1652 0.34892 0.0
H2073 H 0.91821 0.1466 0.37875 0.0
H2074 H 0.9685 0.16274 0.32254 0.0
H2075 H 0.94394 0.1813 0.29233 0.0
C2076 C 0.99246 0.12575 0.38476 0.0
C2077 C 0.99101 0.13186 0.41307 0.0
C2078 C 0.97746 0.13236 0.3652 0.0
C2079 C 0.96058 0.14488 0.37371 0.0
C2080 C 0.95884 0.15035 0.40215 0.0
C2081 C 0.97386 0.14403 0.4215 0.0
C2082 C 0.90991 0.1646 0.3426 0.0
C2083 C 0.91683 0.17501 0.31832 0.0
C2084 C 0.92397 0.15394 0.35979 0.0
C2085 C 0.94532 0.15338 0.35316 0.0
C2086 C 0.95212 0.16278 0.32811 0.0
C2087 C 0.93803 0.17352 0.31089 0.0
H2088 H 0.57154 0.15216 0.11397 0.0
H2089 H 0.58722 0.1845 0.03729 0.0
H2090 H 0.59014 0.1781 0.14093 0.0
H2091 H 0.60714 0.21002 0.06421 0.0
H2092 H 0.61572 0.26599 0.12476 0.0
H2093 H 0.60316 0.23848 0.09363 0.0
H2094 H 0.62104 0.19222 0.15534 0.0
H2095 H 0.63202 0.21999 0.18696 0.0
C2096 C 0.5794 0.16459 0.10278 0.0
C2097 C 0.5778 0.16628 0.07346 0.0
C2098 C 0.5903 0.17949 0.11829 0.0
C2099 C 0.60035 0.19632 0.10492 0.0
C2100 C 0.59934 0.19758 0.07541 0.0
C2101 C 0.58804 0.18284 0.0599 0.0
C2102 C 0.6173 0.24986 0.13124 0.0
C2103 C 0.62473 0.24499 0.15812 0.0
C2104 C 0.61014 0.23402 0.11343 0.0
C2105 C 0.61067 0.21297 0.12201 0.0
C2106 C 0.61966 0.20819 0.14824 0.0
C2107 C 0.62626 0.22405 0.16627 0.0
H2108 H 0.51997 0.8973 0.90243 0.0
H2109 H 0.49555 0.83457 0.9053 0.0
H2110 H 0.54692 0.88576 0.86895 0.0
H2111 H 0.52187 0.82333 0.87171 0.0
H2112 H 0.55768 0.8156 0.79052 0.0
H2113 H 0.53108 0.83301 0.8185 0.0
H2114 H 0.57851 0.85666 0.87426 0.0
H2115 H 0.60535 0.83888 0.84665 0.0
C2116 C 0.52022 0.88118 0.89565 0.0
C2117 C 0.50577 0.8668 0.90651 0.0
C2118 C 0.53562 0.87459 0.87667 0.0
C2119 C 0.53633 0.8537 0.86774 0.0
C2120 C 0.52154 0.83955 0.87809 0.0
C2121 C 0.50656 0.84597 0.89743 0.0
C2122 C 0.56259 0.82474 0.80846 0.0
C2123 C 0.5837 0.8256 0.81649 0.0
C2124 C 0.54731 0.83471 0.82445 0.0
C2125 C 0.55279 0.84608 0.84851 0.0
C2126 C 0.57394 0.84808 0.85566 0.0
C2127 C 0.58926 0.8378 0.83991 0.0
H2128 H 0.9229 0.25475 0.83954 0.0
H2129 H 0.8589 0.23596 0.85257 0.0
H2130 H 0.93452 0.22838 0.87255 0.0
H2131 H 0.87079 0.20906 0.8858 0.0
H2132 H 0.91102 0.14735 0.90752 0.0
H2133 H 0.89405 0.17523 0.88099 0.0
H2134 H 0.93093 0.22094 0.92518 0.0
H2135 H 0.94786 0.19329 0.95185 0.0
C2136 C 0.91126 0.24499 0.84948 0.0
C2137 C 0.88995 0.2474 0.84331 0.0
C2138 C 0.91795 0.22998 0.8686 0.0
C2139 C 0.90356 0.21676 0.88184 0.0
C2140 C 0.8822 0.21909 0.87583 0.0
C2141 C 0.87541 0.23448 0.85694 0.0
C2142 C 0.91528 0.16336 0.91196 0.0
C2143 C 0.931 0.16802 0.93165 0.0
C2144 C 0.90545 0.17931 0.89685 0.0
C2145 C 0.9113 0.20019 0.90091 0.0
C2146 C 0.92626 0.20493 0.92149 0.0
C2147 C 0.93592 0.18906 0.9368 0.0
H2148 H 0.6034 0.18085 0.63579 0.0
H2149 H 0.5711 0.16333 0.71176 0.0
H2150 H 0.57728 0.16319 0.60802 0.0
H2151 H 0.54542 0.1443 0.68398 0.0
H2152 H 0.48928 0.13697 0.62363 0.0
H2153 H 0.51691 0.14886 0.65503 0.0
H2154 H 0.56286 0.13303 0.59189 0.0
H2155 H 0.53493 0.12279 0.56008 0.0
C2156 C 0.59095 0.17276 0.64663 0.0
C2157 C 0.58934 0.17358 0.67602 0.0
C2158 C 0.57594 0.1624 0.63064 0.0
C2159 C 0.55906 0.1521 0.64355 0.0
C2160 C 0.55788 0.15231 0.67311 0.0
C2161 C 0.57272 0.1631 0.68912 0.0
C2162 C 0.50537 0.13572 0.61685 0.0
C2163 C 0.51009 0.12906 0.58956 0.0
C2164 C 0.52129 0.14248 0.63483 0.0
C2165 C 0.5423 0.14232 0.62602 0.0
C2166 C 0.54693 0.13414 0.59925 0.0
C2167 C 0.53098 0.12796 0.58108 0.0
H2168 H 0.59604 0.77371 0.30556 0.0
H2169 H 0.63583 0.74783 0.37004 0.0
H2170 H 0.58571 0.8015 0.33706 0.0
H2171 H 0.62509 0.77588 0.40199 0.0
H2172 H 0.57224 0.81137 0.4546 0.0
H2173 H 0.58998 0.78562 0.42532 0.0
H2174 H 0.60094 0.83265 0.3622 0.0
H2175 H 0.58331 0.85845 0.39125 0.0
C2176 C 0.60284 0.77406 0.32634 0.0
C2177 C 0.61685 0.7585 0.33517 0.0
C2178 C 0.59694 0.7901 0.34439 0.0
C2179 C 0.60465 0.79091 0.37194 0.0
C2180 C 0.61889 0.77559 0.38083 0.0
C2181 C 0.6251 0.75962 0.36251 0.0
C2182 C 0.57868 0.81633 0.43466 0.0
C2183 C 0.57608 0.83697 0.42517 0.0
C2184 C 0.58897 0.80158 0.418 0.0
C2185 C 0.5967 0.80712 0.39143 0.0
C2186 C 0.59494 0.82792 0.38249 0.0
C2187 C 0.58484 0.8427 0.3992 0.0
H2188 H 0.8991 0.81848 0.13342 0.0
H2189 H 0.93171 0.83672 0.20878 0.0
H2190 H 0.92552 0.83532 0.10504 0.0
H2191 H 0.95756 0.85505 0.18053 0.0
H2192 H 0.01372 0.86216 0.12146 0.0
H2193 H 0.98592 0.84998 0.15222 0.0
H2194 H 0.94056 0.86474 0.08779 0.0
H2195 H 0.9688 0.87528 0.05657 0.0
C2196 C 0.91171 0.82655 0.14394 0.0
C2197 C 0.91338 0.82619 0.17332 0.0
C2198 C 0.92688 0.83643 0.12763 0.0
C2199 C 0.9439 0.84671 0.14028 0.0
C2200 C 0.94506 0.84695 0.16984 0.0
C2201 C 0.93014 0.83659 0.18613 0.0
C2202 C 0.99772 0.86305 0.11423 0.0
C2203 C 0.99325 0.86963 0.08684 0.0
C2204 C 0.98169 0.85615 0.13185 0.0
C2205 C 0.96078 0.85609 0.1226 0.0
C2206 C 0.9564 0.86389 0.09554 0.0
C2207 C 0.97251 0.87023 0.0777 0.0
H2208 H 0.55729 0.69251 0.95238 0.0
H2209 H 0.59171 0.64553 0.90656 0.0
H2210 H 0.57359 0.71962 0.924 0.0
H2211 H 0.60823 0.67291 0.87851 0.0
H2212 H 0.64377 0.73442 0.84982 0.0
H2213 H 0.63241 0.70785 0.88396 0.0
H2214 H 0.56827 0.72513 0.86939 0.0
H2215 H 0.57939 0.75105 0.83526 0.0
C2216 C 0.5686 0.68794 0.93665 0.0
C2217 C 0.57302 0.66677 0.93163 0.0
C2218 C 0.5779 0.7035 0.9204 0.0
C2219 C 0.5921 0.69831 0.89908 0.0
C2220 C 0.59744 0.6773 0.89498 0.0
C2221 C 0.58787 0.66165 0.91095 0.0
C2222 C 0.62729 0.73255 0.8541 0.0
C2223 C 0.61246 0.74471 0.83978 0.0
C2224 C 0.62081 0.71736 0.87349 0.0
C2225 C 0.59949 0.71457 0.87933 0.0
C2226 C 0.58481 0.72708 0.86545 0.0
C2227 C 0.59119 0.74182 0.84576 0.0
H2228 H 0.60515 0.34382 0.15705 0.0
H2229 H 0.55968 0.30622 0.20111 0.0
H2230 H 0.57708 0.36014 0.1301 0.0
H2231 H 0.53187 0.32248 0.17403 0.0
H2232 H 0.49805 0.32991 0.08839 0.0
H2233 H 0.52474 0.31873 0.12121 0.0
H2234 H 0.54268 0.3828 0.13492 0.0
H2235 H 0.51545 0.39425 0.1019 0.0
C2236 C 0.5892 0.33924 0.16132 0.0
C2237 C 0.58474 0.32352 0.1811 0.0
C2238 C 0.57314 0.34869 0.14597 0.0
C2239 C 0.55235 0.34245 0.14987 0.0
C2240 C 0.5478 0.32745 0.17047 0.0
C2241 C 0.56377 0.31818 0.18601 0.0
C2242 C 0.50758 0.34171 0.09838 0.0
C2243 C 0.50466 0.363 0.09244 0.0
C2244 C 0.52279 0.33527 0.11738 0.0
C2245 C 0.53569 0.3499 0.13072 0.0
C2246 C 0.5329 0.37122 0.12488 0.0
C2247 C 0.51732 0.37775 0.10611 0.0
H2248 H 0.85646 0.27012 0.34113 0.0
H2249 H 0.919 0.24522 0.34239 0.0
H2250 H 0.867 0.29702 0.37532 0.0
H2251 H 0.92931 0.27152 0.37649 0.0
H2252 H 0.93698 0.30881 0.45539 0.0
H2253 H 0.92038 0.28167 0.4275 0.0
H2254 H 0.89427 0.32838 0.37258 0.0
H2255 H 0.91099 0.35578 0.40033 0.0
C2256 C 0.8723 0.27023 0.34904 0.0
C2257 C 0.88697 0.25572 0.3391 0.0
C2258 C 0.87834 0.28561 0.3684 0.0
C2259 C 0.89894 0.28626 0.37858 0.0
C2260 C 0.9133 0.27128 0.36923 0.0
C2261 C 0.90743 0.25632 0.34957 0.0
C2262 C 0.92748 0.31343 0.43764 0.0
C2263 C 0.92555 0.33454 0.42998 0.0
C2264 C 0.91798 0.29783 0.42167 0.0
C2265 C 0.90614 0.30294 0.39784 0.0
C2266 C 0.9032 0.32404 0.39099 0.0
C2267 C 0.91291 0.3397 0.4068 0.0
H2268 H 0.94264 0.69664 0.69886 0.0
H2269 H 0.89611 0.65859 0.65762 0.0
H2270 H 0.96972 0.68042 0.67043 0.0
H2271 H 0.92348 0.64224 0.62937 0.0
H2272 H 0.98502 0.60801 0.59963 0.0
H2273 H 0.95852 0.61969 0.63359 0.0
H2274 H 0.97495 0.68373 0.61667 0.0
H2275 H 1.00087 0.67232 0.58285 0.0
C2276 C 0.93817 0.6846 0.68409 0.0
C2277 C 0.91711 0.67909 0.68039 0.0
C2278 C 0.95372 0.67534 0.66778 0.0
C2279 C 0.94866 0.66016 0.64764 0.0
C2280 C 0.9278 0.65382 0.64488 0.0
C2281 C 0.91214 0.66328 0.66096 0.0
C2282 C 0.98297 0.62455 0.60332 0.0
C2283 C 0.99497 0.63923 0.58846 0.0
C2284 C 0.96781 0.63121 0.62262 0.0
C2285 C 0.96482 0.6526 0.62782 0.0
C2286 C 0.97707 0.66716 0.6133 0.0
C2287 C 0.99183 0.66058 0.59375 0.0
H2288 H 0.59232 0.35421 0.59271 0.0
H2289 H 0.55827 0.30663 0.5475 0.0
H2290 H 0.60918 0.32718 0.62096 0.0
H2291 H 0.57496 0.27985 0.57602 0.0
H2292 H 0.58207 0.24763 0.66337 0.0
H2293 H 0.57025 0.27349 0.62967 0.0
H2294 H 0.63377 0.29344 0.61649 0.0
H2295 H 0.64588 0.26702 0.65028 0.0
C2296 C 0.58862 0.33803 0.5885 0.0
C2297 C 0.57379 0.33264 0.56792 0.0
C2298 C 0.59838 0.32258 0.6046 0.0
C2299 C 0.59328 0.30148 0.60072 0.0
C2300 C 0.57908 0.29603 0.57951 0.0
C2301 C 0.56955 0.31141 0.56315 0.0
C2302 C 0.59361 0.25745 0.65332 0.0
C2303 C 0.61493 0.25533 0.6596 0.0
C2304 C 0.58681 0.27216 0.63384 0.0
C2305 C 0.6011 0.28537 0.62041 0.0
C2306 C 0.62246 0.2834 0.62661 0.0
C2307 C 0.62936 0.26829 0.64582 0.0
H2308 H 0.01499 0.36855 0.87725 0.0
H2309 H 0.97114 0.37756 0.94468 0.0
H2310 H 0.98691 0.35647 0.84681 0.0
H2311 H 0.94261 0.36713 0.91395 0.0
H2312 H 0.90238 0.32 0.86796 0.0
H2313 H 0.92858 0.33751 0.89588 0.0
H2314 H 0.95751 0.36092 0.82004 0.0
H2315 H 0.93188 0.34198 0.79207 0.0
C2316 C 0.99915 0.36859 0.88517 0.0
C2317 C 0.99512 0.37389 0.91318 0.0
C2318 C 0.98295 0.36173 0.86773 0.0
C2319 C 0.9623 0.36046 0.87783 0.0
C2320 C 0.95828 0.36717 0.90551 0.0
C2321 C 0.97456 0.37343 0.9231 0.0
C2322 C 0.9142 0.32907 0.85724 0.0
C2323 C 0.91508 0.32954 0.82779 0.0
C2324 C 0.92926 0.33932 0.87331 0.0
C2325 C 0.94538 0.35081 0.86044 0.0
C2326 C 0.94571 0.35193 0.83087 0.0
C2327 C 0.93089 0.34122 0.81476 0.0
H2328 H 0.92288 0.69013 0.04439 0.0
H2329 H 0.91921 0.6439 0.11036 0.0
H2330 H 0.90521 0.71524 0.07469 0.0
H2331 H 0.90162 0.66905 0.14044 0.0
H2332 H 0.90559 0.72946 0.1945 0.0
H2333 H 0.91588 0.70162 0.16295 0.0
H2334 H 0.87141 0.72328 0.10145 0.0
H2335 H 0.86076 0.75131 0.13336 0.0
C2336 C 0.91801 0.68517 0.06512 0.0
C2337 C 0.92273 0.66502 0.075 0.0
C2338 C 0.90779 0.69956 0.08241 0.0
C2339 C 0.90222 0.69414 0.10999 0.0
C2340 C 0.90597 0.67372 0.11938 0.0
C2341 C 0.91602 0.6593 0.10206 0.0
C2342 C 0.89769 0.7282 0.17449 0.0
C2343 C 0.88227 0.74266 0.16657 0.0
C2344 C 0.90357 0.71214 0.15642 0.0
C2345 C 0.8944 0.71023 0.12978 0.0
C2346 C 0.87876 0.72444 0.12187 0.0
C2347 C 0.87262 0.7404 0.1402 0.0
H2348 H 0.55994 0.67806 0.29692 0.0
H2349 H 0.60757 0.66793 0.35981 0.0
H2350 H 0.53444 0.66078 0.32714 0.0
H2351 H 0.58205 0.6508 0.38977 0.0
H2352 H 0.52382 0.65518 0.44756 0.0
H2353 H 0.55104 0.66586 0.41529 0.0
H2354 H 0.52518 0.62587 0.35124 0.0
H2355 H 0.49775 0.6148 0.38391 0.0
C2356 C 0.56507 0.67193 0.31696 0.0
C2357 C 0.58581 0.67463 0.32599 0.0
C2358 C 0.55046 0.66192 0.33418 0.0
C2359 C 0.55624 0.65458 0.36087 0.0
C2360 C 0.57712 0.6565 0.36941 0.0
C2361 C 0.59174 0.66631 0.35216 0.0
C2362 C 0.524 0.64834 0.4268 0.0
C2363 C 0.50857 0.63404 0.41844 0.0
C2364 C 0.5397 0.65445 0.4083 0.0
C2365 C 0.54028 0.64666 0.38077 0.0
C2366 C 0.52506 0.63216 0.37235 0.0
C2367 C 0.50945 0.62575 0.3911 0.0
H2368 H 0.41003 0.32054 0.04207 0.0
H2369 H 0.43001 0.35162 0.11783 0.0
H2370 H 0.39046 0.29542 0.07005 0.0
H2371 H 0.41179 0.32596 0.14585 0.0
H2372 H 0.37123 0.28417 0.19442 0.0
H2373 H 0.38153 0.31217 0.16278 0.0
H2374 H 0.3948 0.26655 0.09818 0.0
H2375 H 0.38289 0.2389 0.12944 0.0
C2376 C 0.41021 0.322 0.06473 0.0
C2377 C 0.42156 0.33808 0.07773 0.0
C2378 C 0.39912 0.30748 0.08085 0.0
C2379 C 0.39948 0.30841 0.11041 0.0
C2380 C 0.41058 0.32483 0.12324 0.0
C2381 C 0.42125 0.33957 0.10713 0.0
C2382 C 0.37584 0.28032 0.17315 0.0
C2383 C 0.37625 0.2595 0.16423 0.0
C2384 C 0.38204 0.29631 0.15507 0.0
C2385 C 0.38955 0.29177 0.12793 0.0
C2386 C 0.38896 0.27086 0.11868 0.0
C2387 C 0.38216 0.25492 0.13658 0.0
H2388 H 0.50557 0.618 0.87941 0.0
H2389 H 0.47263 0.6479 0.94756 0.0
H2390 H 0.47843 0.62972 0.84669 0.0
H2391 H 0.44583 0.6594 0.91522 0.0
H2392 H 0.39229 0.66461 0.85573 0.0
H2393 H 0.41764 0.64605 0.88438 0.0
H2394 H 0.46693 0.66514 0.82825 0.0
H2395 H 0.44158 0.68372 0.79929 0.0
C2396 C 0.49242 0.62672 0.88751 0.0
C2397 C 0.49132 0.63201 0.91615 0.0
C2398 C 0.47698 0.63355 0.86875 0.0
C2399 C 0.45999 0.64546 0.87839 0.0
C2400 C 0.45856 0.65003 0.90715 0.0
C2401 C 0.47404 0.64349 0.92572 0.0
C2402 C 0.40848 0.66471 0.8492 0.0
C2403 C 0.41487 0.67591 0.82529 0.0
C2404 C 0.42301 0.65407 0.86571 0.0
C2405 C 0.4443 0.65426 0.85869 0.0
C2406 C 0.45061 0.66458 0.83408 0.0
C2407 C 0.43607 0.67534 0.81759 0.0
H2408 H 0.10007 0.723 0.69255 0.0
H2409 H 0.13557 0.75423 0.62785 0.0
H2410 H 0.08972 0.69645 0.65935 0.0
H2411 H 0.125 0.72723 0.59419 0.0
H2412 H 0.07286 0.69139 0.54133 0.0
H2413 H 0.09102 0.71639 0.57131 0.0
H2414 H 0.10376 0.6675 0.63124 0.0
H2415 H 0.08547 0.64259 0.60169 0.0
C2416 C 0.10596 0.72408 0.67132 0.0
C2417 C 0.11873 0.74081 0.66298 0.0
C2418 C 0.10007 0.70871 0.65224 0.0
C2419 C 0.1066 0.70965 0.62414 0.0
C2420 C 0.11968 0.72613 0.61572 0.0
C2421 C 0.12583 0.7415 0.63503 0.0
C2422 C 0.07982 0.68587 0.56067 0.0
C2423 C 0.07739 0.66499 0.56923 0.0
C2424 C 0.09034 0.70021 0.57777 0.0
C2425 C 0.09862 0.69397 0.60379 0.0
C2426 C 0.09726 0.67286 0.61152 0.0
C2427 C 0.08679 0.65856 0.59449 0.0
H2428 H 0.02381 0.3482 0.4447 0.0
H2429 H 0.99674 0.38767 0.38073 0.0
H2430 H 0.05122 0.33805 0.41262 0.0
H2431 H 0.02456 0.37725 0.34824 0.0
H2432 H 0.06014 0.32579 0.29404 0.0
H2433 H 0.03475 0.3436 0.32377 0.0
H2434 H 0.08188 0.35217 0.38746 0.0
H2435 H 0.10724 0.3343 0.35805 0.0
C2436 C 0.02383 0.35499 0.4239 0.0
C2437 C 0.00801 0.36884 0.41542 0.0
C2438 C 0.03969 0.3492 0.40549 0.0
C2439 C 0.04015 0.35691 0.37792 0.0
C2440 C 0.02457 0.37102 0.36937 0.0
C2441 C 0.00872 0.37706 0.38802 0.0
C2442 C 0.06522 0.33177 0.31418 0.0
C2443 C 0.08572 0.32832 0.32375 0.0
C2444 C 0.05066 0.34208 0.33115 0.0
C2445 C 0.05626 0.3491 0.35807 0.0
C2446 C 0.07702 0.34667 0.36698 0.0
C2447 C 0.09158 0.33645 0.35003 0.0
H2448 H 0.41752 0.64232 0.39528 0.0
H2449 H 0.42858 0.69048 0.45714 0.0
H2450 H 0.40061 0.66773 0.36496 0.0
H2451 H 0.41146 0.71588 0.42653 0.0
H2452 H 0.36595 0.7523 0.36763 0.0
H2453 H 0.37621 0.7252 0.40137 0.0
H2454 H 0.41739 0.69839 0.33945 0.0
H2455 H 0.40764 0.72528 0.30626 0.0
C2456 C 0.41612 0.65823 0.40266 0.0
C2457 C 0.4247 0.66436 0.42858 0.0
C2458 C 0.40642 0.67279 0.38521 0.0
C2459 C 0.40486 0.69378 0.39332 0.0
C2460 C 0.41234 0.69975 0.41985 0.0
C2461 C 0.42225 0.68521 0.43728 0.0
C2462 C 0.377 0.74046 0.36116 0.0
C2463 C 0.38588 0.74095 0.33413 0.0
C2464 C 0.38293 0.72505 0.3805 0.0
C2465 C 0.39749 0.70964 0.37293 0.0
C2466 C 0.40591 0.70987 0.34575 0.0
C2467 C 0.40032 0.72538 0.32671 0.0
H2468 H 0.01599 0.60815 0.10178 0.0
H2469 H 0.99758 0.67241 0.09029 0.0
H2470 H 0.04271 0.61939 0.13568 0.0
H2471 H 0.02377 0.68341 0.12396 0.0
H2472 H 0.05922 0.69571 0.20319 0.0
H2473 H 0.03134 0.67926 0.17639 0.0
H2474 H 0.07663 0.64236 0.13143 0.0
H2475 H 0.10471 0.65884 0.15807 0.0
C2476 C 0.0175 0.62458 0.10668 0.0
C2477 C 0.00478 0.6394 0.09324 0.0
C2478 C 0.03279 0.631 0.12594 0.0
C2479 C 0.0352 0.65226 0.13252 0.0
C2480 C 0.02211 0.66691 0.11957 0.0
C2481 C 0.00721 0.66059 0.10007 0.0
C2482 C 0.0633 0.68386 0.18795 0.0
C2483 C 0.08428 0.6788 0.18262 0.0
C2484 C 0.0473 0.67447 0.17257 0.0
C2485 C 0.05185 0.65964 0.15173 0.0
C2486 C 0.07268 0.65365 0.14749 0.0
C2487 C 0.08875 0.66321 0.16267 0.0
H2488 H 0.09548 0.27456 0.80749 0.0
H2489 H 0.13753 0.24946 0.86991 0.0
H2490 H 0.08507 0.3018 0.83977 0.0
H2491 H 0.12643 0.27684 0.90283 0.0
H2492 H 0.07206 0.31228 0.95586 0.0
H2493 H 0.08949 0.28615 0.92665 0.0
H2494 H 0.10291 0.33328 0.8646 0.0
H2495 H 0.08583 0.35945 0.8936 0.0
C2496 C 0.10273 0.27494 0.82798 0.0
C2497 C 0.11755 0.25986 0.83591 0.0
C2498 C 0.09672 0.29063 0.8465 0.0
C2499 C 0.10503 0.29149 0.8737 0.0
C2500 C 0.11983 0.27649 0.8819 0.0
C2501 C 0.12622 0.26092 0.86303 0.0
C2502 C 0.079 0.31716 0.9362 0.0
C2503 C 0.07729 0.33797 0.92698 0.0
C2504 C 0.08909 0.3022 0.9196 0.0
C2505 C 0.09742 0.30772 0.89336 0.0
C2506 C 0.09649 0.32862 0.88469 0.0
C2507 C 0.08668 0.3436 0.90136 0.0
H2508 H 0.4749 0.34953 0.55418 0.0
H2509 H 0.5049 0.38668 0.61827 0.0
H2510 H 0.44764 0.34013 0.58685 0.0
H2511 H 0.47717 0.37714 0.65135 0.0
H2512 H 0.44105 0.32651 0.70562 0.0
H2513 H 0.46621 0.34412 0.67544 0.0
H2514 H 0.41812 0.35427 0.61345 0.0
H2515 H 0.393 0.33643 0.64328 0.0
C2516 C 0.47556 0.35599 0.57514 0.0
C2517 C 0.49218 0.3689 0.58351 0.0
C2518 C 0.45977 0.35067 0.5939 0.0
C2519 C 0.46016 0.35795 0.62168 0.0
C2520 C 0.4765 0.37123 0.63006 0.0
C2521 C 0.4923 0.37677 0.61109 0.0
C2522 C 0.43571 0.33279 0.68577 0.0
C2523 C 0.41502 0.32974 0.67674 0.0
C2524 C 0.45015 0.34301 0.66854 0.0
C2525 C 0.44421 0.35038 0.64193 0.0
C2526 C 0.42325 0.34845 0.63366 0.0
C2527 C 0.40883 0.33826 0.65083 0.0
H2528 H 0.30563 0.26872 0.2338 0.0
H2529 H 0.288 0.2041 0.2242 0.0
H2530 H 0.27023 0.27723 0.2482 0.0
H2531 H 0.25278 0.21239 0.23976 0.0
H2532 H 0.18612 0.2376 0.24331 0.0
H2533 H 0.22121 0.2289 0.22737 0.0
H2534 H 0.24684 0.27371 0.28578 0.0
H2535 H 0.21179 0.28294 0.30076 0.0
C2536 C 0.29421 0.2563 0.2349 0.0
C2537 C 0.29965 0.23574 0.2278 0.0
C2538 C 0.27389 0.26114 0.24339 0.0
C2539 C 0.25853 0.2455 0.24536 0.0
C2540 C 0.26402 0.22493 0.23812 0.0
C2541 C 0.28429 0.22014 0.22933 0.0
C2542 C 0.19928 0.24552 0.25279 0.0
C2543 C 0.19616 0.26099 0.27326 0.0
C2544 C 0.21944 0.24048 0.24374 0.0
C2545 C 0.23699 0.25063 0.25515 0.0
C2546 C 0.23378 0.26585 0.27601 0.0
C2547 C 0.21364 0.27105 0.2848 0.0
H2548 H 0.95679 0.95905 0.52369 0.0
H2549 H 0.02146 0.94119 0.51564 0.0
H2550 H 0.96512 0.99382 0.5069 0.0
H2551 H 0.03008 0.97639 0.50004 0.0
H2552 H 0.03616 0.03589 0.44843 0.0
H2553 H 0.02746 1.0005 0.46304 0.0
H2554 H 0.98097 0.02507 0.51991 0.0
H2555 H 0.98903 0.06025 0.50429 0.0
C2556 C 0.97287 0.96262 0.51859 0.0
C2557 C 0.98848 0.94734 0.5211 0.0
C2558 C 0.9777 0.98267 0.5091 0.0
C2559 C 0.99834 0.98813 0.50221 0.0
C2560 C 0.01396 0.97277 0.5047 0.0
C2561 C 0.00906 0.95259 0.51386 0.0
C2562 C 0.02399 0.03368 0.46393 0.0
C2563 C 0.01319 0.05088 0.47506 0.0
C2564 C 0.0191 0.01337 0.47252 0.0
C2565 C 0.00347 0.00977 0.49273 0.0
C2566 C 0.99278 0.02707 0.5039 0.0
C2567 C 0.99747 0.04733 0.49503 0.0
H2568 H 0.28639 0.71579 0.80006 0.0
H2569 H 0.3125 0.76147 0.74346 0.0
H2570 H 0.25147 0.72477 0.78415 0.0
H2571 H 0.27764 0.76985 0.72652 0.0
H2572 H 0.21119 0.79454 0.72121 0.0
H2573 H 0.24608 0.78621 0.73783 0.0
H2574 H 0.22826 0.72148 0.74648 0.0
H2575 H 0.19308 0.73008 0.73109 0.0
C2576 C 0.28466 0.72769 0.78409 0.0
C2577 C 0.30222 0.73796 0.77311 0.0
C2578 C 0.26461 0.73274 0.77475 0.0
C2579 C 0.26158 0.748 0.75387 0.0
C2580 C 0.27923 0.75828 0.74293 0.0
C2581 C 0.29928 0.75341 0.75257 0.0
C2582 C 0.21474 0.77851 0.72659 0.0
C2583 C 0.19934 0.76297 0.72481 0.0
C2584 C 0.23484 0.77368 0.73601 0.0
C2585 C 0.24015 0.75313 0.74358 0.0
C2586 C 0.22474 0.73755 0.7414 0.0
C2587 C 0.20456 0.74244 0.73233 0.0
H2588 H 0.53406 0.0397 0.0508 0.0
H2589 H 0.48863 0.06494 0.9931 0.0
H2590 H 0.5256 0.00457 0.03517 0.0
H2591 H 0.48074 0.02988 0.97653 0.0
H2592 H 0.45676 0.96329 0.9716 0.0
H2593 H 0.46458 0.99822 0.98843 0.0
H2594 H 0.52949 0.98122 0.99749 0.0
H2595 H 0.52143 0.94597 0.98178 0.0
C2596 C 0.52231 0.03775 0.03466 0.0
C2597 C 0.51197 0.05513 0.02326 0.0
C2598 C 0.51756 0.01757 0.0255 0.0
C2599 C 0.50252 0.01425 0.00444 0.0
C2600 C 0.49216 0.0317 0.9931 0.0
C2601 C 0.49674 0.05187 0.00251 0.0
C2602 C 0.47272 0.96701 0.97715 0.0
C2603 C 0.48848 0.95182 0.97531 0.0
C2604 C 0.47725 0.98714 0.98668 0.0
C2605 C 0.4977 0.99271 0.99433 0.0
C2606 C 0.51349 0.97749 0.99228 0.0
C2607 C 0.50891 0.95727 0.98306 0.0
H2608 H 0.2141 0.7037 0.21781 0.0
H2609 H 0.19663 0.76858 0.22445 0.0
H2610 H 0.24917 0.7122 0.23376 0.0
H2611 H 0.2319 0.77726 0.23927 0.0
H2612 H 0.28958 0.78349 0.29355 0.0
H2613 H 0.2547 0.77428 0.27777 0.0
H2614 H 0.28094 0.72843 0.22134 0.0
H2615 H 0.31582 0.73713 0.23804 0.0
C2616 C 0.21782 0.71984 0.22233 0.0
C2617 C 0.20255 0.73546 0.21988 0.0
C2618 C 0.238 0.72475 0.23136 0.0
C2619 C 0.24348 0.74544 0.23793 0.0
C2620 C 0.22822 0.76109 0.23498 0.0
C2621 C 0.208 0.75615 0.22624 0.0
C2622 C 0.2879 0.77139 0.27784 0.0
C2623 C 0.30548 0.76101 0.2671 0.0
C2624 C 0.26787 0.7662 0.2686 0.0
C2625 C 0.26489 0.75067 0.24809 0.0
C2626 C 0.28253 0.74025 0.23743 0.0
C2627 C 0.30258 0.74529 0.24693 0.0
H2628 H 0.53412 0.96449 0.45012 0.0
H2629 H 0.48999 0.9384 0.50895 0.0
H2630 H 0.52498 0.99945 0.46564 0.0
H2631 H 0.48138 0.97338 0.52534 0.0
H2632 H 0.45606 0.03988 0.52943 0.0
H2633 H 0.46439 0.00482 0.51333 0.0
H2634 H 0.52898 0.02275 0.50347 0.0
H2635 H 0.52043 0.05802 0.51849 0.0
C2636 C 0.52251 0.96622 0.46648 0.0
C2637 C 0.51275 0.94865 0.47824 0.0
C2638 C 0.51737 0.98631 0.47557 0.0
C2639 C 0.50251 0.98936 0.49693 0.0
C2640 C 0.49267 0.97173 0.50859 0.0
C2641 C 0.49766 0.95163 0.49926 0.0
C2642 C 0.47206 0.03632 0.5239 0.0
C2643 C 0.48758 0.05178 0.52525 0.0
C2644 C 0.47687 0.01614 0.51478 0.0
C2645 C 0.49738 0.01083 0.507 0.0
C2646 C 0.51294 0.02629 0.50874 0.0
C2647 C 0.50808 0.04652 0.51759 0.0
H2648 H 0.2129 0.20666 0.77946 0.0
H2649 H 0.19515 0.27096 0.7668 0.0
H2650 H 0.2481 0.21459 0.76362 0.0
H2651 H 0.23059 0.27915 0.75212 0.0
H2652 H 0.28941 0.28373 0.70004 0.0
H2653 H 0.25428 0.27488 0.71509 0.0
H2654 H 0.27959 0.23127 0.7754 0.0
H2655 H 0.31476 0.23955 0.75938 0.0
C2656 C 0.21658 0.22257 0.77359 0.0
C2657 C 0.20118 0.23818 0.77439 0.0
C2658 C 0.23685 0.22716 0.76463 0.0
C2659 C 0.24234 0.24754 0.7565 0.0
C2660 C 0.22694 0.26319 0.75766 0.0
C2661 C 0.2066 0.25854 0.7663 0.0
C2662 C 0.28747 0.27217 0.71643 0.0
C2663 C 0.3049 0.26232 0.72848 0.0
C2664 C 0.26728 0.26721 0.72527 0.0
C2665 C 0.26394 0.25244 0.74667 0.0
C2666 C 0.28144 0.24249 0.7586 0.0
C2667 C 0.30165 0.24729 0.7495 0.0
H2668 H 0.95652 0.03878 0.96947 0.0
H2669 H 0.02154 0.05612 0.97364 0.0
H2670 H 0.96517 0.00399 0.98632 0.0
H2671 H 0.03036 0.02109 0.98938 0.0
H2672 H 0.03729 0.96397 0.04485 0.0
H2673 H 0.02804 0.99872 0.02847 0.0
H2674 H 0.98102 0.97205 0.97419 0.0
H2675 H 0.98975 0.93738 0.99148 0.0
C2676 C 0.97271 0.03508 0.97364 0.0
C2677 C 0.98834 0.05024 0.97019 0.0
C2678 C 0.97771 0.01506 0.9832 0.0
C2679 C 0.99849 0.00961 0.9893 0.0
C2680 C 0.01414 0.02475 0.98544 0.0
C2681 C 0.00911 0.04484 0.97616 0.0
C2682 C 0.02492 0.96554 0.0295 0.0
C2683 C 0.01421 0.9479 0.01955 0.0
C2684 C 0.01971 0.98549 0.0199 0.0
C2685 C 0.00382 0.98831 0.99984 0.0
C2686 C 0.99311 0.9706 0.98995 0.0
C2687 C 0.99817 0.95066 0.99978 0.0
H2688 H 0.78549 0.71228 0.70147 0.0
H2689 H 0.81028 0.75957 0.75673 0.0
H2690 H 0.75021 0.72111 0.71639 0.0
H2691 H 0.77519 0.76779 0.77263 0.0
H2692 H 0.70901 0.79231 0.77567 0.0
H2693 H 0.74388 0.7837 0.75947 0.0
H2694 H 0.72634 0.71872 0.75375 0.0
H2695 H 0.69108 0.72758 0.76877 0.0
C2696 C 0.7834 0.7245 0.71691 0.0
C2697 C 0.80068 0.73531 0.72777 0.0
C2698 C 0.76316 0.72947 0.72568 0.0
C2699 C 0.7597 0.74519 0.7458 0.0
C2700 C 0.77709 0.75589 0.75671 0.0
C2701 C 0.79728 0.75111 0.74768 0.0
C2702 C 0.71259 0.77616 0.77101 0.0
C2703 C 0.69725 0.76062 0.7736 0.0
C2704 C 0.73269 0.77118 0.76185 0.0
C2705 C 0.73812 0.75046 0.75534 0.0
C2706 C 0.72274 0.73489 0.75809 0.0
C2707 C 0.70252 0.73994 0.76694 0.0
H2708 H 0.6966 0.23351 0.22335 0.0
H2709 H 0.71418 0.29847 0.21937 0.0
H2710 H 0.73191 0.2244 0.23753 0.0
H2711 H 0.74926 0.28954 0.2348 0.0
H2712 H 0.81587 0.26484 0.23834 0.0
H2713 H 0.78099 0.27384 0.22194 0.0
H2714 H 0.75489 0.22613 0.27566 0.0
H2715 H 0.78978 0.2166 0.29099 0.0
C2716 C 0.708 0.24587 0.22562 0.0
C2717 C 0.70258 0.2667 0.22017 0.0
C2718 C 0.72825 0.24067 0.234 0.0
C2719 C 0.74355 0.25622 0.23754 0.0
C2720 C 0.73808 0.27707 0.23191 0.0
C2721 C 0.71789 0.28223 0.22318 0.0
C2722 C 0.80265 0.25632 0.24666 0.0
C2723 C 0.8056 0.24 0.26594 0.0
C2724 C 0.7826 0.26154 0.23736 0.0
C2725 C 0.76498 0.25071 0.24737 0.0
C2726 C 0.76802 0.23455 0.26696 0.0
C2727 C 0.78806 0.22917 0.27596 0.0
H2728 H 0.69104 0.26191 0.75842 0.0
H2729 H 0.71617 0.21648 0.70067 0.0
H2730 H 0.72616 0.2701 0.77448 0.0
H2731 H 0.75137 0.22527 0.71576 0.0
H2732 H 0.8107 0.23064 0.7678 0.0
H2733 H 0.77543 0.22199 0.7526 0.0
H2734 H 0.7574 0.28658 0.76223 0.0
H2735 H 0.79232 0.29494 0.77858 0.0
C2736 C 0.7041 0.25385 0.74889 0.0
C2737 C 0.70079 0.23856 0.72825 0.0
C2738 C 0.72431 0.25862 0.75801 0.0
C2739 C 0.74178 0.24839 0.74646 0.0
C2740 C 0.73839 0.23322 0.72558 0.0
C2741 C 0.71816 0.22828 0.71673 0.0
C2742 C 0.79917 0.24296 0.76673 0.0
C2743 C 0.80433 0.26345 0.77455 0.0
C2744 C 0.77893 0.23805 0.75781 0.0
C2745 C 0.76339 0.25355 0.75612 0.0
C2746 C 0.76871 0.27409 0.76375 0.0
C2747 C 0.78884 0.27894 0.77298 0.0
H2748 H 0.78548 0.7858 0.19995 0.0
H2749 H 0.8112 0.74372 0.26173 0.0
H2750 H 0.75037 0.77608 0.21432 0.0
H2751 H 0.77612 0.73463 0.27701 0.0
H2752 H 0.71108 0.70679 0.27932 0.0
H2753 H 0.746 0.71622 0.26407 0.0
H2754 H 0.72549 0.77964 0.25025 0.0
H2755 H 0.69027 0.76989 0.26436 0.0
C2756 C 0.78362 0.77456 0.21676 0.0
C2757 C 0.80113 0.76546 0.22961 0.0
C2758 C 0.76346 0.76908 0.22517 0.0
C2759 C 0.76027 0.75456 0.24692 0.0
C2760 C 0.77786 0.74556 0.25986 0.0
C2761 C 0.79803 0.75085 0.25119 0.0
C2762 C 0.71402 0.72276 0.27304 0.0
C2763 C 0.69788 0.7376 0.27309 0.0
C2764 C 0.73413 0.72822 0.26444 0.0
C2765 C 0.73873 0.74875 0.25597 0.0
C2766 C 0.72254 0.76361 0.25617 0.0
C2767 C 0.70234 0.75807 0.26445 0.0
H2768 H 0.45702 0.45989 0.02658 0.0
H2769 H 0.52125 0.44117 0.01603 0.0
H2770 H 0.46553 0.49466 0.00993 0.0
H2771 H 0.53006 0.47634 0.00051 0.0
H2772 H 0.53588 0.53596 0.9491 0.0
H2773 H 0.52693 0.50065 0.96372 0.0
H2774 H 0.48218 0.52563 0.02273 0.0
H2775 H 0.49051 0.56078 0.00718 0.0
C2776 C 0.47304 0.46326 0.02096 0.0
C2777 C 0.48847 0.44774 0.02274 0.0
C2778 C 0.47797 0.48331 0.01154 0.0
C2779 C 0.49854 0.48852 0.00396 0.0
C2780 C 0.51398 0.47292 0.00572 0.0
C2781 C 0.50898 0.45275 0.01483 0.0
C2782 C 0.52404 0.53387 0.96508 0.0
C2783 C 0.51382 0.55119 0.97684 0.0
C2784 C 0.51901 0.5136 0.97366 0.0
C2785 C 0.50381 0.51013 0.99449 0.0
C2786 C 0.49366 0.52754 0.00626 0.0
C2787 C 0.4985 0.54778 0.99743 0.0
H2788 H 0.01794 0.44389 0.48313 0.0
H2789 H 0.95372 0.46212 0.47103 0.0
H2790 H 0.02654 0.47934 0.49736 0.0
H2791 H 0.96202 0.49731 0.4865 0.0
H2792 H 0.98712 0.56375 0.48976 0.0
H2793 H 0.97862 0.52853 0.47428 0.0
H2794 H 0.02302 0.50351 0.53377 0.0
H2795 H 0.03213 0.53873 0.5482 0.0
C2796 C 0.00562 0.45545 0.48367 0.0
C2797 C 0.98518 0.45018 0.47583 0.0
C2798 C 0.0105 0.4758 0.49207 0.0
C2799 C 0.99499 0.49135 0.49324 0.0
C2800 C 0.97451 0.48597 0.48543 0.0
C2801 C 0.9697 0.4657 0.47668 0.0
C2802 C 0.995 0.5507 0.49957 0.0
C2803 C 0.01031 0.55405 0.52018 0.0
C2804 C 0.99007 0.53044 0.49079 0.0
C2805 C 1.00013 0.513 0.50267 0.0
C2806 C 0.01523 0.51645 0.52364 0.0
C2807 C 0.02035 0.5367 0.53212 0.0
H2808 H 0.99342 0.44212 0.00783 0.0
H2809 H 0.03998 0.46715 0.95164 0.0
H2810 H 0.98468 0.47727 0.02314 0.0
H2811 H 0.03068 0.5024 0.966 0.0
H2812 H 0.02355 0.56187 0.01776 0.0
H2813 H 0.03291 0.52663 0.00308 0.0
H2814 H 0.9682 0.50819 0.00912 0.0
H2815 H 0.95909 0.54303 0.02489 0.0
C2816 C 0.00161 0.45516 0.99848 0.0
C2817 C 0.01736 0.45183 0.97848 0.0
C2818 C 0.99654 0.47538 0.00716 0.0
C2819 C 0.00691 0.49282 0.99581 0.0
C2820 C 0.02258 0.48942 0.97562 0.0
C2821 C 0.02782 0.46918 0.96719 0.0
C2822 C 0.01136 0.55025 0.01599 0.0
C2823 C 0.99061 0.55524 0.02266 0.0
C2824 C 0.01668 0.53004 0.00739 0.0
C2825 C 0.00134 0.51441 0.00492 0.0
C2826 C 0.98054 0.51959 0.01131 0.0
C2827 C 0.97528 0.53967 0.02021 0.0
H2828 H 0.48228 0.44187 0.51517 0.0
H2829 H 0.54604 0.46109 0.52889 0.0
H2830 H 0.47313 0.47739 0.50192 0.0
H2831 H 0.53715 0.49641 0.51451 0.0
H2832 H 0.51038 0.56232 0.51318 0.0
H2833 H 0.51942 0.52703 0.52785 0.0
H2834 H 0.47698 0.50205 0.46582 0.0
H2835 H 0.46736 0.53728 0.45208 0.0
C2836 C 0.49437 0.45366 0.51521 0.0
C2837 C 0.51486 0.44864 0.52317 0.0
C2838 C 0.48917 0.47404 0.5074 0.0
C2839 C 0.50439 0.48989 0.507 0.0
C2840 C 0.52491 0.48479 0.51498 0.0
C2841 C 0.53005 0.46446 0.52309 0.0
C2842 C 0.50305 0.54927 0.50265 0.0
C2843 C 0.48814 0.55261 0.48149 0.0
C2844 C 0.50829 0.52899 0.51097 0.0
C2845 C 0.49892 0.51155 0.49811 0.0
C2846 C 0.48422 0.515 0.47666 0.0
C2847 C 0.47881 0.53525 0.46859 0.0
H2848 H 0.06204 0.32345 0.05254 0.0
H2849 H 0.09338 0.38253 0.06231 0.0
H2850 H 0.07414 0.31259 0.0985 0.0
H2851 H 0.10445 0.37233 0.10961 0.0
H2852 H 0.07481 0.30683 0.19132 0.0
H2853 H 0.06605 0.31877 0.14461 0.0
H2854 H 0.12495 0.35152 0.13967 0.0
H2855 H 0.13305 0.34044 0.18772 0.0
C2856 C 0.0715 0.33416 0.06471 0.0
C2857 C 0.07667 0.35386 0.05404 0.0
C2858 C 0.07827 0.32805 0.09126 0.0
C2859 C 0.08986 0.34175 0.10832 0.0
C2860 C 0.09565 0.36129 0.09716 0.0
C2861 C 0.08927 0.3672 0.07011 0.0
C2862 C 0.08588 0.31663 0.18029 0.0
C2863 C 0.10468 0.32257 0.19303 0.0
C2864 C 0.08097 0.32335 0.15329 0.0
C2865 C 0.09498 0.33576 0.13784 0.0
C2866 C 0.1137 0.34207 0.15086 0.0
C2867 C 0.11842 0.33568 0.17833 0.0
H2868 H 0.86464 0.84175 0.31517 0.0
H2869 H 0.92723 0.82006 0.29937 0.0
H2870 H 0.87507 0.85272 0.36247 0.0
H2871 H 0.93805 0.83207 0.34542 0.0
H2872 H 0.9057 0.88193 0.44124 0.0
H2873 H 0.89444 0.875 0.39293 0.0
H2874 H 0.934 0.82036 0.39102 0.0
H2875 H 0.94584 0.82791 0.43812 0.0
C2876 C 0.88073 0.83984 0.32162 0.0
C2877 C 0.89509 0.82986 0.3039 0.0
C2878 C 0.88675 0.84614 0.34866 0.0
C2879 C 0.90733 0.84287 0.35814 0.0
C2880 C 0.9219 0.83417 0.3394 0.0
C2881 C 0.91578 0.82746 0.31283 0.0
C2882 C 0.91194 0.86848 0.43032 0.0
C2883 C 0.92684 0.85561 0.44329 0.0
C2884 C 0.90545 0.86445 0.4027 0.0
C2885 C 0.91356 0.84731 0.38773 0.0
C2886 C 0.92792 0.83413 0.40132 0.0
C2887 C 0.93462 0.83835 0.42854 0.0
H2888 H 0.42575 0.69794 0.69316 0.0
H2889 H 0.37225 0.65714 0.69624 0.0
H2890 H 0.43407 0.6854 0.64653 0.0
H2891 H 0.37987 0.64524 0.64843 0.0
H2892 H 0.41266 0.61565 0.57069 0.0
H2893 H 0.40218 0.62602 0.61818 0.0
H2894 H 0.42259 0.68904 0.60083 0.0
H2895 H 0.43411 0.67828 0.55455 0.0
C2896 C 0.41565 0.68635 0.68368 0.0
C2897 C 0.39828 0.67862 0.69822 0.0
C2898 C 0.42029 0.67927 0.65675 0.0
C2899 C 0.40738 0.66462 0.64325 0.0
C2900 C 0.39022 0.65646 0.65813 0.0
C2901 C 0.3858 0.6633 0.68547 0.0
C2902 C 0.41466 0.63173 0.57713 0.0
C2903 C 0.42438 0.64613 0.55919 0.0
C2904 C 0.40864 0.63772 0.60429 0.0
C2905 C 0.41193 0.6583 0.61371 0.0
C2906 C 0.42049 0.67288 0.59486 0.0
C2907 C 0.4269 0.6668 0.56814 0.0
H2908 H 0.59539 0.20788 0.82206 0.0
H2909 H 0.62033 0.14704 0.80183 0.0
H2910 H 0.58539 0.19542 0.86817 0.0
H2911 H 0.61018 0.13455 0.84869 0.0
H2912 H 0.6041 0.13271 0.94976 0.0
H2913 H 0.61739 0.14199 0.90298 0.0
H2914 H 0.55765 0.16883 0.88205 0.0
H2915 H 0.5444 0.15969 0.92809 0.0
C2916 C 0.59887 0.19185 0.82745 0.0
C2917 C 0.60843 0.17838 0.80802 0.0
C2918 C 0.59307 0.18471 0.85392 0.0
C2919 C 0.59675 0.16396 0.86183 0.0
C2920 C 0.60716 0.15063 0.84305 0.0
C2921 C 0.61288 0.15777 0.81625 0.0
C2922 C 0.59379 0.14044 0.93504 0.0
C2923 C 0.57327 0.14569 0.94283 0.0
C2924 C 0.60138 0.14566 0.9083 0.0
C2925 C 0.58861 0.15637 0.88911 0.0
C2926 C 0.56794 0.16089 0.8966 0.0
C2927 C 0.56035 0.15558 0.92303 0.0
H2928 H 0.10167 0.63469 0.44499 0.0
H2929 H 0.04134 0.6611 0.42538 0.0
H2930 H 0.11444 0.64542 0.39857 0.0
H2931 H 0.05407 0.67167 0.3796 0.0
H2932 H 0.09101 0.71226 0.31974 0.0
H2933 H 0.08051 0.69878 0.36524 0.0
H2934 H 0.10775 0.63907 0.34505 0.0
H2935 H 0.11841 0.6526 0.29902 0.0
C2936 C 0.09111 0.6426 0.43079 0.0
C2937 C 0.07056 0.64724 0.43906 0.0
C2938 C 0.0984 0.64866 0.40423 0.0
C2939 C 0.08531 0.65961 0.38569 0.0
C2940 C 0.06461 0.66358 0.39365 0.0
C2941 C 0.05732 0.65743 0.41992 0.0
C2942 C 0.09489 0.69627 0.3249 0.0
C2943 C 0.1054 0.68345 0.3056 0.0
C2944 C 0.08878 0.68853 0.35097 0.0
C2945 C 0.09313 0.66782 0.35855 0.0
C2946 C 0.10423 0.65511 0.33972 0.0
C2947 C 0.11021 0.66283 0.31336 0.0
H2948 H 0.63044 0.84141 0.68867 0.0
H2949 H 0.57926 0.79791 0.68255 0.0
H2950 H 0.62324 0.85351 0.64084 0.0
H2951 H 0.57126 0.81061 0.636 0.0
H2952 H 0.56961 0.82135 0.54521 0.0
H2953 H 0.58252 0.80929 0.59028 0.0
H2954 H 0.60036 0.87245 0.61152 0.0
H2955 H 0.58868 0.88412 0.56508 0.0
C2956 C 0.61757 0.83458 0.67716 0.0
C2957 C 0.60556 0.81857 0.68916 0.0
C2958 C 0.61336 0.84156 0.64982 0.0
C2959 C 0.59684 0.83286 0.63419 0.0
C2960 C 0.58457 0.81723 0.64677 0.0
C2961 C 0.58903 0.81002 0.67368 0.0
C2962 C 0.57663 0.83256 0.55939 0.0
C2963 C 0.57808 0.85363 0.5519 0.0
C2964 C 0.58383 0.82573 0.5854 0.0
C2965 C 0.59199 0.83996 0.60506 0.0
C2966 C 0.59426 0.861 0.59698 0.0
C2967 C 0.58754 0.86774 0.57046 0.0
H2968 H 0.42765 0.31016 0.80729 0.0
H2969 H 0.36848 0.34191 0.8134 0.0
H2970 H 0.43704 0.32221 0.85375 0.0
H2971 H 0.3773 0.35311 0.86123 0.0
H2972 H 0.4092 0.38318 0.93922 0.0
H2973 H 0.39823 0.37414 0.89138 0.0
H2974 H 0.42897 0.31439 0.89972 0.0
H2975 H 0.4408 0.32398 0.94621 0.0
C2976 C 0.41655 0.31962 0.8188 0.0
C2977 C 0.39725 0.32492 0.80693 0.0
C2978 C 0.42184 0.32641 0.84562 0.0
C2979 C 0.40773 0.33821 0.86173 0.0
C2980 C 0.38859 0.34408 0.84948 0.0
C2981 C 0.38347 0.33763 0.82217 0.0
C2982 C 0.4135 0.36814 0.93064 0.0
C2983 C 0.42611 0.35441 0.94613 0.0
C2984 C 0.40717 0.3629 0.90332 0.0
C2985 C 0.41307 0.34368 0.89131 0.0
C2986 C 0.42477 0.32964 0.90767 0.0
C2987 C 0.43143 0.33505 0.9345 0.0
H2988 H 0.88825 0.15242 0.19332 0.0
H2989 H 0.91843 0.21145 0.17674 0.0
H2990 H 0.89938 0.13976 0.1471 0.0
H2991 H 0.92934 0.19886 0.13098 0.0
H2992 H 0.96745 0.16149 0.06877 0.0
H2993 H 0.95466 0.17202 0.11465 0.0
H2994 H 0.89391 0.14702 0.09474 0.0
H2995 H 0.90676 0.13627 0.04849 0.0
C2996 C 0.89714 0.16271 0.17983 0.0
C2997 C 0.90257 0.18288 0.18883 0.0
C2998 C 0.90342 0.15549 0.15336 0.0
C2999 C 0.91541 0.16826 0.13559 0.0
C3000 C 0.92042 0.18854 0.1444 0.0
C3001 C 0.91404 0.19578 0.17062 0.0
C3002 C 0.95138 0.15812 0.0741 0.0
C3003 C 0.93808 0.14818 0.05483 0.0
C3004 C 0.94403 0.16426 0.10039 0.0
C3005 C 0.92324 0.16053 0.10817 0.0
C3006 C 0.91004 0.15004 0.08931 0.0
C3007 C 0.91736 0.144 0.0628 0.0
H3008 H 0.91334 0.62016 0.93628 0.0
H3009 H 0.94531 0.67915 0.94315 0.0
H3010 H 0.9027 0.62903 0.88836 0.0
H3011 H 0.93365 0.68872 0.89657 0.0
H3012 H 0.92917 0.69511 0.80454 0.0
H3013 H 0.94009 0.68254 0.85026 0.0
H3014 H 0.88175 0.64916 0.85877 0.0
H3015 H 0.87164 0.66067 0.81169 0.0
C3016 C 0.91782 0.63513 0.92762 0.0
C3017 C 0.93033 0.64887 0.9432 0.0
C3018 C 0.91166 0.6403 0.90022 0.0
C3019 C 0.91755 0.65951 0.88816 0.0
C3020 C 0.92941 0.67347 0.90447 0.0
C3021 C 0.93595 0.66809 0.9314 0.0
C3022 C 0.91881 0.68489 0.81611 0.0
C3023 C 0.89955 0.67894 0.80475 0.0
C3024 C 0.92492 0.67784 0.84253 0.0
C3025 C 0.91162 0.66519 0.85878 0.0
C3026 C 0.89251 0.65874 0.84696 0.0
C3027 C 0.88664 0.66538 0.82003 0.0
H3028 H 0.11574 0.14753 0.69946 0.0
H3029 H 0.09837 0.20999 0.67435 0.0
H3030 H 0.10551 0.13464 0.6528 0.0
H3031 H 0.08823 0.19712 0.62851 0.0
H3032 H 0.04331 0.16273 0.57117 0.0
H3033 H 0.05752 0.1727 0.61637 0.0
H3034 H 0.11462 0.13995 0.59757 0.0
H3035 H 0.10036 0.12983 0.55156 0.0
C3036 C 0.10997 0.15851 0.68402 0.0
C3037 C 0.10757 0.17973 0.69083 0.0
C3038 C 0.10422 0.15114 0.65734 0.0
C3039 C 0.09586 0.16488 0.63727 0.0
C3040 C 0.09434 0.18615 0.64375 0.0
C3041 C 0.10018 0.1935 0.6701 0.0
C3042 C 0.05887 0.15751 0.57651 0.0
C3043 C 0.07076 0.1456 0.55758 0.0
C3044 C 0.06702 0.1633 0.60245 0.0
C3045 C 0.08721 0.15724 0.61032 0.0
C3046 C 0.09899 0.14479 0.59193 0.0
C3047 C 0.09087 0.13913 0.56562 0.0
H3048 H 0.58952 0.38143 0.43336 0.0
H3049 H 0.56118 0.32101 0.44453 0.0
H3050 H 0.60102 0.37125 0.38629 0.0
H3051 H 0.57388 0.31013 0.39889 0.0
H3052 H 0.57657 0.30204 0.30649 0.0
H3053 H 0.56638 0.31435 0.35257 0.0
H3054 H 0.6225 0.35175 0.35693 0.0
H3055 H 0.63178 0.34041 0.30948 0.0
C3056 C 0.58619 0.36582 0.4259 0.0
C3057 C 0.57432 0.35205 0.44229 0.0
C3058 C 0.59281 0.35991 0.39898 0.0
C3059 C 0.58808 0.33994 0.3883 0.0
C3060 C 0.57718 0.3259 0.40568 0.0
C3061 C 0.57009 0.332 0.43207 0.0
C3062 C 0.58664 0.313 0.31727 0.0
C3063 C 0.60499 0.32021 0.30456 0.0
C3064 C 0.58095 0.31992 0.34392 0.0
C3065 C 0.59381 0.33375 0.35905 0.0
C3066 C 0.61207 0.34125 0.346 0.0
C3067 C 0.61748 0.33471 0.31886 0.0
H3068 H 0.46264 0.84974 0.07176 0.0
H3069 H 0.39957 0.86786 0.05075 0.0
H3070 H 0.4514 0.84035 0.11871 0.0
H3071 H 0.38829 0.85822 0.09829 0.0
H3072 H 0.38391 0.85246 0.19786 0.0
H3073 H 0.39372 0.86672 0.15176 0.0
H3074 H 0.42852 0.81062 0.134 0.0
H3075 H 0.41897 0.79651 0.17935 0.0
C3076 C 0.44637 0.85185 0.07717 0.0
C3077 C 0.43193 0.85924 0.05729 0.0
C3078 C 0.43994 0.84644 0.10413 0.0
C3079 C 0.41893 0.84828 0.112 0.0
C3080 C 0.4046 0.85668 0.09273 0.0
C3081 C 0.41104 0.86208 0.06553 0.0
C3082 C 0.39366 0.84324 0.18405 0.0
C3083 C 0.40076 0.82341 0.19239 0.0
C3084 C 0.39916 0.85135 0.15768 0.0
C3085 C 0.41206 0.83986 0.13949 0.0
C3086 C 0.41885 0.81999 0.14776 0.0
C3087 C 0.41326 0.81186 0.17378 0.0
H3088 H 0.90898 0.38396 0.56437 0.0
H3089 H 0.9379 0.32369 0.55425 0.0
H3090 H 0.8977 0.37412 0.61178 0.0
H3091 H 0.9256 0.31326 0.60029 0.0
H3092 H 0.92623 0.30803 0.69313 0.0
H3093 H 0.93474 0.31961 0.64619 0.0
H3094 H 0.87661 0.35376 0.64217 0.0
H3095 H 0.86872 0.34297 0.69043 0.0
C3096 C 0.91248 0.36846 0.57212 0.0
C3097 C 0.92451 0.35466 0.55597 0.0
C3098 C 0.906 0.36276 0.5992 0.0
C3099 C 0.91113 0.34302 0.61028 0.0
C3100 C 0.92202 0.32887 0.59309 0.0
C3101 C 0.92891 0.33473 0.56652 0.0
C3102 C 0.91526 0.31805 0.68227 0.0
C3103 C 0.89673 0.32445 0.69531 0.0
C3104 C 0.92003 0.32457 0.65514 0.0
C3105 C 0.90615 0.33726 0.6399 0.0
C3106 C 0.88772 0.34406 0.65322 0.0
C3107 C 0.88314 0.33784 0.6808 0.0
H3108 H 0.42988 0.19771 0.30618 0.0
H3109 H 0.37191 0.16441 0.31584 0.0
H3110 H 0.44152 0.1852 0.35158 0.0
H3111 H 0.38265 0.15312 0.36269 0.0
H3112 H 0.41477 0.12296 0.43844 0.0
H3113 H 0.40304 0.13269 0.3914 0.0
H3114 H 0.43758 0.19052 0.39815 0.0
H3115 H 0.45045 0.17983 0.44377 0.0
C3116 C 0.41956 0.1878 0.31829 0.0
C3117 C 0.40002 0.18204 0.30765 0.0
C3118 C 0.42608 0.18079 0.34457 0.0
C3119 C 0.41291 0.16843 0.36144 0.0
C3120 C 0.3934 0.16239 0.35041 0.0
C3121 C 0.38714 0.16892 0.32361 0.0
C3122 C 0.41976 0.13773 0.42966 0.0
C3123 C 0.43362 0.15057 0.44451 0.0
C3124 C 0.41298 0.14341 0.40274 0.0
C3125 C 0.41951 0.16234 0.39046 0.0
C3126 C 0.43273 0.17549 0.40614 0.0
C3127 C 0.43997 0.16951 0.43255 0.0
H3128 H 0.55804 0.67457 0.05922 0.0
H3129 H 0.59293 0.61705 0.06212 0.0
H3130 H 0.57018 0.68347 0.10585 0.0
H3131 H 0.60436 0.62538 0.11002 0.0
H3132 H 0.57257 0.68526 0.19811 0.0
H3133 H 0.56298 0.67329 0.1516 0.0
H3134 H 0.62463 0.64709 0.14067 0.0
H3135 H 0.63376 0.65819 0.18845 0.0
C3136 C 0.5683 0.66377 0.07 0.0
C3137 C 0.57441 0.64505 0.05722 0.0
C3138 C 0.57512 0.66875 0.09691 0.0
C3139 C 0.5878 0.65489 0.11217 0.0
C3140 C 0.5946 0.63643 0.09894 0.0
C3141 C 0.58806 0.63163 0.07156 0.0
C3142 C 0.58399 0.67671 0.18588 0.0
C3143 C 0.60394 0.67278 0.19669 0.0
C3144 C 0.5786 0.67003 0.15905 0.0
C3145 C 0.59321 0.65973 0.14192 0.0
C3146 C 0.61297 0.65497 0.15323 0.0
C3147 C 0.61823 0.66132 0.18054 0.0
H3148 H 0.13221 0.83917 0.81266 0.0
H3149 H 0.07426 0.80524 0.80727 0.0
H3150 H 0.1231 0.85051 0.86026 0.0
H3151 H 0.06442 0.81751 0.85349 0.0
H3152 H 0.05967 0.82123 0.94575 0.0
H3153 H 0.07195 0.81102 0.89965 0.0
H3154 H 0.10222 0.87094 0.89018 0.0
H3155 H 0.09096 0.88048 0.93765 0.0
C3156 C 0.11737 0.83449 0.82152 0.0
C3157 C 0.10403 0.82115 0.80655 0.0
C3158 C 0.11208 0.84101 0.84873 0.0
C3159 C 0.09317 0.83461 0.86116 0.0
C3160 C 0.07947 0.82215 0.84528 0.0
C3161 C 0.08497 0.81526 0.81857 0.0
C3162 C 0.06913 0.83213 0.93389 0.0
C3163 C 0.07427 0.85167 0.94509 0.0
C3164 C 0.07601 0.8264 0.90725 0.0
C3165 C 0.08767 0.84034 0.89064 0.0
C3166 C 0.09336 0.85974 0.90229 0.0
C3167 C 0.08688 0.86526 0.92943 0.0
loop_
_geom_bond_atom_site_label_1
_geom_bond_atom_site_label_2
_geom_bond_distance
_geom_bond_site_symmetry_2
_ccdc_geom_bond_type
Co0 O2 2.143 . S
Co0 O8 2.074 . S
Co0 O11 2.093 . S
Co0 O24 2.097 . S
Co0 N41 2.151 . S
Co0 N49 2.214 . S
Co1 O2 2.160 . S
Co1 O7 2.058 . S
Co1 O17 2.057 . S
Co1 O32 2.037 . S
Co1 N36 2.145 . S
Co1 N57 2.257 . S
O2 Co0 2.143 . S
O2 Co1 2.160 . S
C3 O4 1.278 . S
C3 O11 1.224 . S
O4 C3 1.278 . S
C5 O6 1.245 . S
C5 O17 1.232 . S
O6 C5 1.245 . S
O7 Co1 2.058 . S
O7 C33 1.269 . S
O8 Co0 2.074 . S
O8 C33 1.257 . S
H9 C34 0.930 . S
H10 C40 0.930 . S
O11 Co0 2.093 . S
O11 C3 1.224 . S
H12 C44 0.929 . S
H13 C46 0.930 . S
H14 C47 0.930 . S
H15 C45 0.929 . S
H16 C48 0.928 . S
O17 Co1 2.057 . S
O17 C5 1.232 . S
H18 C37 0.929 . S
H19 C38 0.929 . S
H20 C50 0.931 . S
H21 C42 0.929 . S
H22 C51 0.930 . S
H23 C43 0.931 . S
O24 Co0 2.097 . S
O24 C52 1.214 . S
H25 C53 0.929 . S
H26 C54 0.929 . S
H27 C55 0.930 . S
H28 C56 0.929 . S
H29 C58 0.930 . S
H30 C35 0.930 . S
H31 C39 0.930 . S
O32 Co1 2.037 . S
O32 C52 1.234 . S
C33 O7 1.269 . S
C33 O8 1.257 . S
C34 H9 0.930 . S
C34 C37 1.388 . S
C34 C39 1.418 . S
C35 H30 0.930 . S
C35 C38 1.404 . S
C35 C39 1.353 . S
N36 Co1 2.145 . S
N36 C37 1.397 . S
N36 C38 1.334 . S
C37 H18 0.929 . S
C37 C34 1.388 . S
C37 N36 1.397 . S
C38 H19 0.929 . S
C38 C35 1.404 . S
C38 N36 1.334 . S
C39 H31 0.930 . S
C39 C34 1.418 . S
C39 C35 1.353 . S
C40 H10 0.930 . S
C40 N41 1.330 . S
C40 C42 1.446 . S
N41 Co0 2.151 . S
N41 C40 1.330 . S
N41 C45 1.418 . S
C42 H21 0.929 . S
C42 C40 1.446 . S
C42 C43 1.332 . S
C43 H23 0.931 . S
C43 C42 1.332 . S
C43 C44 1.267 . S
C44 H12 0.929 . S
C44 C43 1.267 . S
C44 C45 1.251 . S
C45 H15 0.929 . S
C45 N41 1.418 . S
C45 C44 1.251 . S
C46 H13 0.930 . S
C46 C48 1.406 . S
C46 C51 1.261 . S
C47 H14 0.930 . S
C47 N49 1.325 . S
C47 C50 1.357 . S
C48 H16 0.928 . S
C48 C46 1.406 . S
C48 N49 1.261 . S
N49 Co0 2.214 . S
N49 C47 1.325 . S
N49 C48 1.261 . S
C50 H20 0.931 . S
C50 C47 1.357 . S
C50 C51 1.312 . S
C51 H22 0.930 . S
C51 C46 1.261 . S
C51 C50 1.312 . S
C52 O24 1.214 . S
C52 O32 1.234 . S
C53 H25 0.929 . S
C53 C56 1.391 . S
C53 C58 1.391 . S
C54 H26 0.929 . S
C54 C55 1.390 . S
C54 N57 1.391 . S
C55 H27 0.930 . S
C55 C54 1.390 . S
C55 C56 1.392 . S
C56 H28 0.929 . S
C56 C53 1.391 . S
C56 C55 1.392 . S
N57 Co1 2.257 . S
N57 C54 1.391 . S
N57 C58 1.388 . S
C58 H29 0.930 . S
C58 C53 1.391 . S
C58 N57 1.388 . S
Co59 O61 2.143 . S
Co59 O67 2.074 . S
Co59 O70 2.093 . S
Co59 O83 2.097 . S
Co59 N100 2.151 . S
Co59 N108 2.214 . S
Co60 O61 2.160 . S
Co60 O66 2.058 . S
Co60 O76 2.057 . S
Co60 O91 2.037 . S
Co60 N95 2.145 . S
Co60 N116 2.257 . S
O61 Co59 2.143 . S
O61 Co60 2.160 . S
C62 O63 1.278 . S
C62 O70 1.224 . S
O63 C62 1.278 . S
C64 O65 1.245 . S
C64 O76 1.232 . S
O65 C64 1.245 . S
O66 Co60 2.058 . S
O66 C92 1.269 . S
O67 Co59 2.074 . S
O67 C92 1.257 . S
H68 C93 0.930 . S
H69 C99 0.930 . S
O70 Co59 2.093 . S
O70 C62 1.224 . S
H71 C103 0.929 . S
H72 C105 0.930 . S
H73 C106 0.930 . S
H74 C104 0.929 . S
H75 C107 0.928 . S
O76 Co60 2.057 . S
O76 C64 1.232 . S
H77 C96 0.929 . S
H78 C97 0.929 . S
H79 C109 0.931 . S
H80 C101 0.929 . S
H81 C110 0.930 . S
H82 C102 0.931 . S
O83 Co59 2.097 . S
O83 C111 1.214 . S
H84 C112 0.929 . S
H85 C113 0.929 . S
H86 C114 0.930 . S
H87 C115 0.929 . S
H88 C117 0.930 . S
H89 C94 0.930 . S
H90 C98 0.930 . S
O91 Co60 2.037 . S
O91 C111 1.234 . S
C92 O66 1.269 . S
C92 O67 1.257 . S
C93 H68 0.930 . S
C93 C96 1.388 . S
C93 C98 1.418 . S
C94 H89 0.930 . S
C94 C97 1.404 . S
C94 C98 1.353 . S
N95 Co60 2.145 . S
N95 C96 1.397 . S
N95 C97 1.334 . S
C96 H77 0.929 . S
C96 C93 1.388 . S
C96 N95 1.397 . S
C97 H78 0.929 . S
C97 C94 1.404 . S
C97 N95 1.334 . S
C98 H90 0.930 . S
C98 C93 1.418 . S
C98 C94 1.353 . S
C99 H69 0.930 . S
C99 N100 1.330 . S
C99 C101 1.467 . S
N100 Co59 2.151 . S
N100 C99 1.330 . S
N100 C104 1.418 1_655 S
C101 H80 0.929 . S
C101 C99 1.467 . S
C101 C102 1.311 1_655 S
C102 H82 0.931 . S
C102 C101 1.311 1_455 S
C102 C103 1.267 . S
C103 H71 0.929 . S
C103 C102 1.267 . S
C103 C104 1.251 . S
C104 H74 0.929 . S
C104 N100 1.418 1_455 S
C104 C103 1.251 . S
C105 H72 0.930 . S
C105 C107 1.406 . S
C105 C110 1.261 . S
C106 H73 0.930 . S
C106 N108 1.325 . S
C106 C109 1.357 . S
C107 H75 0.928 . S
C107 C105 1.406 . S
C107 N108 1.261 . S
N108 Co59 2.214 . S
N108 C106 1.325 . S
N108 C107 1.261 . S
C109 H79 0.931 . S
C109 C106 1.357 . S
C109 C110 1.312 . S
C110 H81 0.930 . S
C110 C105 1.261 . S
C110 C109 1.312 . S
C111 O83 1.214 . S
C111 O91 1.234 . S
C112 H84 0.929 . S
C112 C115 1.391 . S
C112 C117 1.391 . S
C113 H85 0.929 . S
C113 C114 1.390 . S
C113 N116 1.391 . S
C114 H86 0.930 . S
C114 C113 1.390 . S
C114 C115 1.392 . S
C115 H87 0.929 . S
C115 C112 1.391 . S
C115 C114 1.392 . S
N116 Co60 2.257 . S
N116 C113 1.391 . S
N116 C117 1.388 . S
C117 H88 0.930 . S
C117 C112 1.391 . S
C117 N116 1.388 . S
Co118 O120 2.143 . S
Co118 O126 2.074 . S
Co118 O129 2.093 . S
Co118 O142 2.097 . S
Co118 N159 2.151 . S
Co118 N167 2.214 . S
Co119 O120 2.160 . S
Co119 O125 2.058 . S
Co119 O135 2.057 . S
Co119 O150 2.037 . S
Co119 N154 2.145 . S
Co119 N175 2.257 . S
O120 Co118 2.143 . S
O120 Co119 2.160 . S
C121 O122 1.278 . S
C121 O129 1.224 . S
O122 C121 1.278 . S
C123 O124 1.245 . S
C123 O135 1.232 . S
O124 C123 1.245 . S
O125 Co119 2.058 . S
O125 C151 1.269 . S
O126 Co118 2.074 . S
O126 C151 1.257 . S
H127 C152 0.930 . S
H128 C158 0.930 . S
O129 Co118 2.093 . S
O129 C121 1.224 . S
H130 C162 0.929 . S
H131 C164 0.930 . S
H132 C165 0.930 . S
H133 C163 0.929 . S
H134 C166 0.928 . S
O135 Co119 2.057 . S
O135 C123 1.232 . S
H136 C155 0.929 . S
H137 C156 0.929 . S
H138 C168 0.931 . S
H139 C160 0.929 . S
H140 C169 0.930 . S
H141 C161 0.931 . S
O142 Co118 2.097 . S
O142 C170 1.214 . S
H143 C171 0.929 . S
H144 C172 0.929 . S
H145 C173 0.930 . S
H146 C174 0.929 . S
H147 C176 0.930 . S
H148 C153 0.930 . S
H149 C157 0.930 . S
O150 Co119 2.037 . S
O150 C170 1.234 . S
C151 O125 1.269 . S
C151 O126 1.257 . S
C152 H127 0.930 . S
C152 C155 1.388 . S
C152 C157 1.418 . S
C153 H148 0.930 . S
C153 C156 1.404 . S
C153 C157 1.353 . S
N154 Co119 2.145 . S
N154 C155 1.397 . S
N154 C156 1.334 . S
C155 H136 0.929 . S
C155 C152 1.388 . S
C155 N154 1.397 . S
C156 H137 0.929 . S
C156 C153 1.404 . S
C156 N154 1.334 . S
C157 H149 0.930 . S
C157 C152 1.418 . S
C157 C153 1.353 . S
C158 H128 0.930 . S
C158 N159 1.330 . S
C158 C160 1.446 . S
N159 Co118 2.151 . S
N159 C158 1.330 . S
N159 C163 1.418 . S
C160 H139 0.929 . S
C160 C158 1.446 . S
C160 C161 1.332 . S
C161 H141 0.931 . S
C161 C160 1.332 . S
C161 C162 1.267 . S
C162 H130 0.929 . S
C162 C161 1.267 . S
C162 C163 1.251 . S
C163 H133 0.929 . S
C163 N159 1.418 . S
C163 C162 1.251 . S
C164 H131 0.930 . S
C164 C166 1.406 . S
C164 C169 1.261 . S
C165 H132 0.930 . S
C165 N167 1.325 . S
C165 C168 1.357 . S
C166 H134 0.928 . S
C166 C164 1.406 . S
C166 N167 1.261 . S
N167 Co118 2.214 . S
N167 C165 1.325 . S
N167 C166 1.261 . S
C168 H138 0.931 . S
C168 C165 1.357 . S
C168 C169 1.312 . S
C169 H140 0.930 . S
C169 C164 1.261 . S
C169 C168 1.312 . S
C170 O142 1.214 . S
C170 O150 1.234 . S
C171 H143 0.929 . S
C171 C174 1.391 . S
C171 C176 1.391 . S
C172 H144 0.929 . S
C172 C173 1.390 . S
C172 N175 1.391 . S
C173 H145 0.930 . S
C173 C172 1.390 . S
C173 C174 1.392 . S
C174 H146 0.929 . S
C174 C171 1.391 . S
C174 C173 1.392 . S
N175 Co119 2.257 . S
N175 C172 1.391 . S
N175 C176 1.388 . S
C176 H147 0.930 . S
C176 C171 1.391 . S
C176 N175 1.388 . S
Co177 O179 2.143 . S
Co177 O185 2.074 . S
Co177 O188 2.093 1_554 S
Co177 O201 2.097 . S
Co177 N218 2.151 1_554 S
Co177 N226 2.214 . S
Co178 O179 2.160 . S
Co178 O184 2.058 . S
Co178 O194 2.057 . S
Co178 O209 2.037 . S
Co178 N213 2.145 . S
Co178 N234 2.257 . S
O179 Co177 2.143 . S
O179 Co178 2.160 . S
C180 O181 1.278 . S
C180 O188 1.224 . S
O181 C180 1.278 . S
C182 O183 1.245 . S
C182 O194 1.232 . S
O183 C182 1.245 . S
O184 Co178 2.058 . S
O184 C210 1.269 . S
O185 Co177 2.074 . S
O185 C210 1.257 . S
H186 C211 0.930 . S
H187 C217 0.930 . S
O188 Co177 2.093 1_556 S
O188 C180 1.224 . S
H189 C221 0.929 . S
H190 C223 0.930 1_556 S
H191 C224 0.930 . S
H192 C222 0.929 1_554 S
H193 C225 0.940 . S
O194 Co178 2.057 . S
O194 C182 1.232 . S
H195 C214 0.929 . S
H196 C215 0.929 . S
H197 C227 0.931 . S
H198 C219 0.929 . S
H199 C228 0.930 . S
H200 C220 0.931 . S
O201 Co177 2.097 . S
O201 C229 1.214 . S
H202 C230 0.929 . S
H203 C231 0.929 . S
H204 C232 0.930 . S
H205 C233 0.929 . S
H206 C235 0.930 . S
H207 C212 0.930 . S
H208 C216 0.930 . S
O209 Co178 2.037 . S
O209 C229 1.234 . S
C210 O184 1.269 . S
C210 O185 1.257 . S
C211 H186 0.930 . S
C211 C214 1.388 . S
C211 C216 1.418 . S
C212 H207 0.930 . S
C212 C215 1.404 . S
C212 C216 1.353 . S
N213 Co178 2.145 . S
N213 C214 1.397 . S
N213 C215 1.334 . S
C214 H195 0.929 . S
C214 C211 1.388 . S
C214 N213 1.397 . S
C215 H196 0.929 . S
C215 C212 1.404 . S
C215 N213 1.334 . S
C216 H208 0.930 . S
C216 C211 1.418 . S
C216 C212 1.353 . S
C217 H187 0.930 . S
C217 N218 1.330 . S
C217 C219 1.446 . S
N218 Co177 2.151 1_556 S
N218 C217 1.330 . S
N218 C222 1.418 . S
C219 H198 0.929 . S
C219 C217 1.446 . S
C219 C220 1.332 . S
C220 H200 0.931 . S
C220 C219 1.332 . S
C220 C221 1.267 . S
C221 H189 0.929 . S
C221 C220 1.267 . S
C221 C222 1.251 . S
C222 H192 0.929 1_556 S
C222 N218 1.418 . S
C222 C221 1.251 . S
C223 H190 0.930 1_554 S
C223 C225 1.404 1_554 S
C223 C228 1.261 . S
C224 H191 0.930 . S
C224 N226 1.325 . S
C224 C227 1.357 . S
C225 H193 0.940 . S
C225 C223 1.404 1_556 S
C225 N226 1.251 1_556 S
N226 Co177 2.214 . S
N226 C224 1.325 . S
N226 C225 1.251 1_554 S
C227 H197 0.931 . S
C227 C224 1.357 . S
C227 C228 1.312 . S
C228 H199 0.930 . S
C228 C223 1.261 . S
C228 C227 1.312 . S
C229 O201 1.214 . S
C229 O209 1.234 . S
C230 H202 0.929 . S
C230 C233 1.391 . S
C230 C235 1.391 . S
C231 H203 0.929 . S
C231 C232 1.390 . S
C231 N234 1.391 . S
C232 H204 0.930 . S
C232 C231 1.390 . S
C232 C233 1.392 . S
C233 H205 0.929 . S
C233 C230 1.391 . S
C233 C232 1.392 . S
N234 Co178 2.257 . S
N234 C231 1.391 . S
N234 C235 1.388 . S
C235 H206 0.930 . S
C235 C230 1.391 . S
C235 N234 1.388 . S
Co236 O238 2.143 . S
Co236 O244 2.074 . S
Co236 O247 2.093 . S
Co236 O260 2.097 . S
Co236 N277 2.151 . S
Co236 N285 2.214 . S
Co237 O238 2.160 . S
Co237 O243 2.058 . S
Co237 O253 2.057 . S
Co237 O268 2.037 . S
Co237 N272 2.145 . S
Co237 N293 2.257 . S
O238 Co236 2.143 . S
O238 Co237 2.160 . S
C239 O240 1.278 . S
C239 O247 1.224 . S
O240 C239 1.278 . S
C241 O242 1.245 . S
C241 O253 1.232 . S
O242 C241 1.245 . S
O243 Co237 2.058 . S
O243 C269 1.269 . S
O244 Co236 2.074 . S
O244 C269 1.257 . S
H245 C270 0.930 . S
H246 C276 0.930 . S
O247 Co236 2.093 . S
O247 C239 1.224 . S
H248 C280 0.929 . S
H249 C282 0.930 . S
H250 C283 0.930 . S
H251 C281 0.929 . S
H252 C284 0.928 . S
O253 Co237 2.057 . S
O253 C241 1.232 . S
H254 C273 0.929 . S
H255 C274 0.929 . S
H256 C286 0.931 . S
H257 C278 0.929 . S
H258 C287 0.930 . S
H259 C279 0.931 . S
O260 Co236 2.097 . S
O260 C288 1.214 . S
H261 C289 0.929 . S
H262 C290 0.929 . S
H263 C291 0.930 . S
H264 C292 0.929 . S
H265 C294 0.930 . S
H266 C271 0.930 . S
H267 C275 0.930 . S
O268 Co237 2.037 . S
O268 C288 1.234 . S
C269 O243 1.269 . S
C269 O244 1.257 . S
C270 H245 0.930 . S
C270 C273 1.388 . S
C270 C275 1.418 . S
C271 H266 0.930 . S
C271 C274 1.404 . S
C271 C275 1.353 . S
N272 Co237 2.145 . S
N272 C273 1.397 . S
N272 C274 1.334 . S
C273 H254 0.929 . S
C273 C270 1.388 . S
C273 N272 1.397 . S
C274 H255 0.929 . S
C274 C271 1.404 . S
C274 N272 1.334 . S
C275 H267 0.930 . S
C275 C270 1.418 . S
C275 C271 1.353 . S
C276 H246 0.930 . S
C276 N277 1.330 . S
C276 C278 1.446 . S
N277 Co236 2.151 . S
N277 C276 1.330 . S
N277 C281 1.418 . S
C278 H257 0.929 . S
C278 C276 1.446 . S
C278 C279 1.332 . S
C279 H259 0.931 . S
C279 C278 1.332 . S
C279 C280 1.267 . S
C280 H248 0.929 . S
C280 C279 1.267 . S
C280 C281 1.251 . S
C281 H251 0.929 . S
C281 N277 1.418 . S
C281 C280 1.251 . S
C282 H249 0.930 . S
C282 C284 1.406 . S
C282 C287 1.261 . S
C283 H250 0.930 . S
C283 N285 1.325 . S
C283 C286 1.357 . S
C284 H252 0.928 . S
C284 C282 1.406 . S
C284 N285 1.261 . S
N285 Co236 2.214 . S
N285 C283 1.325 . S
N285 C284 1.261 . S
C286 H256 0.931 . S
C286 C283 1.357 . S
C286 C287 1.312 . S
C287 H258 0.930 . S
C287 C282 1.261 . S
C287 C286 1.312 . S
C288 O260 1.214 . S
C288 O268 1.234 . S
C289 H261 0.929 . S
C289 C292 1.391 . S
C289 C294 1.391 . S
C290 H262 0.929 . S
C290 C291 1.390 . S
C290 N293 1.391 . S
C291 H263 0.930 . S
C291 C290 1.390 . S
C291 C292 1.392 . S
C292 H264 0.929 . S
C292 C289 1.391 . S
C292 C291 1.392 . S
N293 Co237 2.257 . S
N293 C290 1.391 . S
N293 C294 1.388 . S
C294 H265 0.930 . S
C294 C289 1.391 . S
C294 N293 1.388 . S
Co295 O297 2.143 . S
Co295 O303 2.074 . S
Co295 O306 2.093 . S
Co295 O319 2.097 . S
Co295 N336 2.151 . S
Co295 N344 2.214 . S
Co296 O297 2.160 . S
Co296 O302 2.058 . S
Co296 O312 2.057 . S
Co296 O327 2.037 . S
Co296 N331 2.145 . S
Co296 N352 2.257 . S
O297 Co295 2.143 . S
O297 Co296 2.160 . S
C298 O299 1.278 . S
C298 O306 1.224 . S
O299 C298 1.278 . S
C300 O301 1.245 . S
C300 O312 1.232 . S
O301 C300 1.245 . S
O302 Co296 2.058 . S
O302 C328 1.269 . S
O303 Co295 2.074 . S
O303 C328 1.257 . S
H304 C329 0.930 . S
H305 C335 0.930 . S
O306 Co295 2.093 . S
O306 C298 1.224 . S
H307 C339 0.929 . S
H308 C341 0.930 . S
H309 C342 0.930 . S
H310 C340 0.929 . S
H311 C343 0.928 . S
O312 Co296 2.057 . S
O312 C300 1.232 . S
H313 C332 0.929 . S
H314 C333 0.929 . S
H315 C345 0.931 . S
H316 C337 0.929 . S
H317 C346 0.930 . S
H318 C338 0.931 . S
O319 Co295 2.097 . S
O319 C347 1.214 . S
H320 C348 0.929 . S
H321 C349 0.929 . S
H322 C350 0.930 . S
H323 C351 0.929 . S
H324 C353 0.930 . S
H325 C330 0.930 . S
H326 C334 0.930 . S
O327 Co296 2.037 . S
O327 C347 1.234 . S
C328 O302 1.269 . S
C328 O303 1.257 . S
C329 H304 0.930 . S
C329 C332 1.388 . S
C329 C334 1.418 . S
C330 H325 0.930 . S
C330 C333 1.404 . S
C330 C334 1.353 . S
N331 Co296 2.145 . S
N331 C332 1.397 . S
N331 C333 1.334 . S
C332 H313 0.929 . S
C332 C329 1.388 . S
C332 N331 1.397 . S
C333 H314 0.929 . S
C333 C330 1.404 . S
C333 N331 1.334 . S
C334 H326 0.930 . S
C334 C329 1.418 . S
C334 C330 1.353 . S
C335 H305 0.930 . S
C335 N336 1.330 . S
C335 C337 1.446 . S
N336 Co295 2.151 . S
N336 C335 1.330 . S
N336 C340 1.418 . S
C337 H316 0.929 . S
C337 C335 1.446 . S
C337 C338 1.332 . S
C338 H318 0.931 . S
C338 C337 1.332 . S
C338 C339 1.267 . S
C339 H307 0.929 . S
C339 C338 1.267 . S
C339 C340 1.251 . S
C340 H310 0.929 . S
C340 N336 1.418 . S
C340 C339 1.251 . S
C341 H308 0.930 . S
C341 C343 1.406 . S
C341 C346 1.261 . S
C342 H309 0.930 . S
C342 N344 1.325 . S
C342 C345 1.357 . S
C343 H311 0.928 . S
C343 C341 1.406 . S
C343 N344 1.261 . S
N344 Co295 2.214 . S
N344 C342 1.325 . S
N344 C343 1.261 . S
C345 H315 0.931 . S
C345 C342 1.357 . S
C345 C346 1.312 . S
C346 H317 0.930 . S
C346 C341 1.261 . S
C346 C345 1.312 . S
C347 O319 1.214 . S
C347 O327 1.234 . S
C348 H320 0.929 . S
C348 C351 1.391 . S
C348 C353 1.391 . S
C349 H321 0.929 . S
C349 C350 1.390 . S
C349 N352 1.391 . S
C350 H322 0.930 . S
C350 C349 1.390 . S
C350 C351 1.392 . S
C351 H323 0.929 . S
C351 C348 1.391 . S
C351 C350 1.392 . S
N352 Co296 2.257 . S
N352 C349 1.391 . S
N352 C353 1.388 . S
C353 H324 0.930 . S
C353 C348 1.391 . S
C353 N352 1.388 . S
Co354 O356 2.143 . S
Co354 O362 2.074 . S
Co354 O365 2.093 . S
Co354 O378 2.097 . S
Co354 N395 2.151 . S
Co354 N403 2.214 . S
Co355 O356 2.160 . S
Co355 O361 2.058 . S
Co355 O371 2.057 . S
Co355 O386 2.037 . S
Co355 N390 2.145 . S
Co355 N411 2.257 . S
O356 Co354 2.143 . S
O356 Co355 2.160 . S
C357 O358 1.278 . S
C357 O365 1.224 . S
O358 C357 1.278 . S
C359 O360 1.245 . S
C359 O371 1.232 . S
O360 C359 1.245 . S
O361 Co355 2.058 . S
O361 C387 1.269 . S
O362 Co354 2.074 . S
O362 C387 1.257 . S
H363 C388 0.930 . S
H364 C394 0.930 . S
O365 Co354 2.093 . S
O365 C357 1.224 . S
H366 C398 0.929 . S
H367 C400 0.930 . S
H368 C401 0.930 . S
H369 C399 0.929 . S
H370 C402 0.928 . S
O371 Co355 2.057 . S
O371 C359 1.232 . S
H372 C391 0.929 . S
H373 C392 0.929 . S
H374 C404 0.931 . S
H375 C396 0.929 . S
H376 C405 0.930 . S
H377 C397 0.931 . S
O378 Co354 2.097 . S
O378 C406 1.214 . S
H379 C407 0.929 . S
H380 C408 0.929 . S
H381 C409 0.930 . S
H382 C410 0.929 . S
H383 C412 0.930 . S
H384 C389 0.930 . S
H385 C393 0.930 . S
O386 Co355 2.037 . S
O386 C406 1.234 . S
C387 O361 1.269 . S
C387 O362 1.257 . S
C388 H363 0.930 . S
C388 C391 1.388 . S
C388 C393 1.418 . S
C389 H384 0.930 . S
C389 C392 1.404 . S
C389 C393 1.353 . S
N390 Co355 2.145 . S
N390 C391 1.397 . S
N390 C392 1.334 . S
C391 H372 0.929 . S
C391 C388 1.388 . S
C391 N390 1.397 . S
C392 H373 0.929 . S
C392 C389 1.404 . S
C392 N390 1.334 . S
C393 H385 0.930 . S
C393 C388 1.418 . S
C393 C389 1.353 . S
C394 H364 0.930 . S
C394 N395 1.330 . S
C394 C396 1.446 . S
N395 Co354 2.151 . S
N395 C394 1.330 . S
N395 C399 1.418 . S
C396 H375 0.929 . S
C396 C394 1.446 . S
C396 C397 1.332 . S
C397 H377 0.931 . S
C397 C396 1.332 . S
C397 C398 1.267 . S
C398 H366 0.929 . S
C398 C397 1.267 . S
C398 C399 1.251 . S
C399 H369 0.929 . S
C399 N395 1.418 . S
C399 C398 1.251 . S
C400 H367 0.930 . S
C400 C402 1.406 . S
C400 C405 1.261 . S
C401 H368 0.930 . S
C401 N403 1.325 . S
C401 C404 1.357 . S
C402 H370 0.928 . S
C402 C400 1.406 . S
C402 N403 1.261 . S
N403 Co354 2.214 . S
N403 C401 1.325 . S
N403 C402 1.261 . S
C404 H374 0.931 . S
C404 C401 1.357 . S
C404 C405 1.312 . S
C405 H376 0.930 . S
C405 C400 1.261 . S
C405 C404 1.312 . S
C406 O378 1.214 . S
C406 O386 1.234 . S
C407 H379 0.929 . S
C407 C410 1.391 . S
C407 C412 1.391 . S
C408 H380 0.929 . S
C408 C409 1.390 . S
C408 N411 1.391 . S
C409 H381 0.930 . S
C409 C408 1.390 . S
C409 C410 1.392 . S
C410 H382 0.929 . S
C410 C407 1.391 . S
C410 C409 1.392 . S
N411 Co355 2.257 . S
N411 C408 1.391 . S
N411 C412 1.388 . S
C412 H383 0.930 . S
C412 C407 1.391 . S
C412 N411 1.388 . S
Co413 O415 2.143 . S
Co413 O421 2.074 . S
Co413 O424 2.093 1_556 S
Co413 O437 2.097 . S
Co413 N454 2.151 1_556 S
Co413 N462 2.214 . S
Co414 O415 2.160 . S
Co414 O420 2.058 . S
Co414 O430 2.057 . S
Co414 O445 2.037 . S
Co414 N449 2.145 . S
Co414 N470 2.257 . S
O415 Co413 2.143 . S
O415 Co414 2.160 . S
C416 O417 1.278 . S
C416 O424 1.224 . S
O417 C416 1.278 . S
C418 O419 1.245 . S
C418 O430 1.232 . S
O419 C418 1.245 . S
O420 Co414 2.058 . S
O420 C446 1.269 . S
O421 Co413 2.074 . S
O421 C446 1.257 . S
H422 C447 0.930 . S
H423 C453 0.930 . S
O424 Co413 2.093 1_554 S
O424 C416 1.224 . S
H425 C457 0.929 . S
H426 C459 0.930 1_554 S
H427 C460 0.930 . S
H428 C458 0.929 1_556 S
H429 C461 0.940 . S
O430 Co414 2.057 . S
O430 C418 1.232 . S
H431 C450 0.929 . S
H432 C451 0.929 . S
H433 C463 0.931 . S
H434 C455 0.929 . S
H435 C464 0.930 . S
H436 C456 0.931 . S
O437 Co413 2.097 . S
O437 C465 1.214 . S
H438 C466 0.929 . S
H439 C467 0.929 . S
H440 C468 0.930 . S
H441 C469 0.929 . S
H442 C471 0.930 . S
H443 C448 0.930 . S
H444 C452 0.930 . S
O445 Co414 2.037 . S
O445 C465 1.234 . S
C446 O420 1.269 . S
C446 O421 1.257 . S
C447 H422 0.930 . S
C447 C450 1.388 . S
C447 C452 1.418 . S
C448 H443 0.930 . S
C448 C451 1.404 . S
C448 C452 1.353 . S
N449 Co414 2.145 . S
N449 C450 1.397 . S
N449 C451 1.334 . S
C450 H431 0.929 . S
C450 C447 1.388 . S
C450 N449 1.397 . S
C451 H432 0.929 . S
C451 C448 1.404 . S
C451 N449 1.334 . S
C452 H444 0.930 . S
C452 C447 1.418 . S
C452 C448 1.353 . S
C453 H423 0.930 . S
C453 N454 1.330 . S
C453 C455 1.467 . S
N454 Co413 2.151 1_554 S
N454 C453 1.330 . S
N454 C458 1.418 1_655 S
C455 H434 0.929 . S
C455 C453 1.467 . S
C455 C456 1.310 1_655 S
C456 H436 0.931 . S
C456 C455 1.310 1_455 S
C456 C457 1.267 . S
C457 H425 0.929 . S
C457 C456 1.267 . S
C457 C458 1.251 . S
C458 H428 0.929 1_554 S
C458 N454 1.418 1_455 S
C458 C457 1.251 . S
C459 H426 0.930 1_556 S
C459 C461 1.404 1_556 S
C459 C464 1.261 . S
C460 H427 0.930 . S
C460 N462 1.325 . S
C460 C463 1.357 . S
C461 H429 0.940 . S
C461 C459 1.404 1_554 S
C461 N462 1.251 1_554 S
N462 Co413 2.214 . S
N462 C460 1.325 . S
N462 C461 1.251 1_556 S
C463 H433 0.931 . S
C463 C460 1.357 . S
C463 C464 1.312 . S
C464 H435 0.930 . S
C464 C459 1.261 . S
C464 C463 1.312 . S
C465 O437 1.214 . S
C465 O445 1.234 . S
C466 H438 0.929 . S
C466 C469 1.391 . S
C466 C471 1.391 . S
C467 H439 0.929 . S
C467 C468 1.390 . S
C467 N470 1.391 . S
C468 H440 0.930 . S
C468 C467 1.390 . S
C468 C469 1.392 . S
C469 H441 0.929 . S
C469 C466 1.391 . S
C469 C468 1.392 . S
N470 Co414 2.257 . S
N470 C467 1.391 . S
N470 C471 1.388 . S
C471 H442 0.930 . S
C471 C466 1.391 . S
C471 N470 1.388 . S
Co472 O474 2.143 . S
Co472 O480 2.074 . S
Co472 O483 2.093 . S
Co472 O496 2.097 . S
Co472 N513 2.151 . S
Co472 N521 2.214 . S
Co473 O474 2.160 . S
Co473 O479 2.058 . S
Co473 O489 2.057 . S
Co473 O504 2.037 . S
Co473 N508 2.145 . S
Co473 N529 2.257 . S
O474 Co472 2.143 . S
O474 Co473 2.160 . S
C475 O476 1.278 . S
C475 O483 1.224 . S
O476 C475 1.278 . S
C477 O478 1.245 . S
C477 O489 1.232 . S
O478 C477 1.245 . S
O479 Co473 2.058 . S
O479 C505 1.269 . S
O480 Co472 2.074 . S
O480 C505 1.257 . S
H481 C506 0.930 . S
H482 C512 0.930 . S
O483 Co472 2.093 . S
O483 C475 1.224 . S
H484 C516 0.929 . S
H485 C518 0.930 . S
H486 C519 0.930 . S
H487 C517 0.929 . S
H488 C520 0.928 . S
O489 Co473 2.057 . S
O489 C477 1.232 . S
H490 C509 0.929 . S
H491 C510 0.929 . S
H492 C522 0.931 . S
H493 C514 0.929 . S
H494 C523 0.930 . S
H495 C515 0.931 . S
O496 Co472 2.097 . S
O496 C524 1.214 . S
H497 C525 0.929 . S
H498 C526 0.929 . S
H499 C527 0.930 . S
H500 C528 0.929 . S
H501 C530 0.930 . S
H502 C507 0.930 . S
H503 C511 0.930 . S
O504 Co473 2.037 . S
O504 C524 1.234 . S
C505 O479 1.269 . S
C505 O480 1.257 . S
C506 H481 0.930 . S
C506 C509 1.388 . S
C506 C511 1.418 . S
C507 H502 0.930 . S
C507 C510 1.404 . S
C507 C511 1.353 . S
N508 Co473 2.145 . S
N508 C509 1.397 . S
N508 C510 1.334 . S
C509 H490 0.929 . S
C509 C506 1.388 . S
C509 N508 1.397 . S
C510 H491 0.929 . S
C510 C507 1.404 . S
C510 N508 1.334 . S
C511 H503 0.930 . S
C511 C506 1.418 . S
C511 C507 1.353 . S
C512 H482 0.930 . S
C512 N513 1.330 . S
C512 C514 1.446 . S
N513 Co472 2.151 . S
N513 C512 1.330 . S
N513 C517 1.418 . S
C514 H493 0.929 . S
C514 C512 1.446 . S
C514 C515 1.332 . S
C515 H495 0.931 . S
C515 C514 1.332 . S
C515 C516 1.267 . S
C516 H484 0.929 . S
C516 C515 1.267 . S
C516 C517 1.251 . S
C517 H487 0.929 . S
C517 N513 1.418 . S
C517 C516 1.251 . S
C518 H485 0.930 . S
C518 C520 1.406 . S
C518 C523 1.261 . S
C519 H486 0.930 . S
C519 N521 1.325 . S
C519 C522 1.357 . S
C520 H488 0.928 . S
C520 C518 1.406 . S
C520 N521 1.261 . S
N521 Co472 2.214 . S
N521 C519 1.325 . S
N521 C520 1.261 . S
C522 H492 0.931 . S
C522 C519 1.357 . S
C522 C523 1.312 . S
C523 H494 0.930 . S
C523 C518 1.261 . S
C523 C522 1.312 . S
C524 O496 1.214 . S
C524 O504 1.234 . S
C525 H497 0.929 . S
C525 C528 1.391 . S
C525 C530 1.391 . S
C526 H498 0.929 . S
C526 C527 1.390 . S
C526 N529 1.391 . S
C527 H499 0.930 . S
C527 C526 1.390 . S
C527 C528 1.392 . S
C528 H500 0.929 . S
C528 C525 1.391 . S
C528 C527 1.392 . S
N529 Co473 2.257 . S
N529 C526 1.391 . S
N529 C530 1.388 . S
C530 H501 0.930 . S
C530 C525 1.391 . S
C530 N529 1.388 . S
Co531 O533 2.143 . S
Co531 O539 2.074 . S
Co531 O542 2.093 . S
Co531 O555 2.097 . S
Co531 N572 2.151 . S
Co531 N580 2.214 . S
Co532 O533 2.160 . S
Co532 O538 2.058 . S
Co532 O548 2.057 . S
Co532 O563 2.037 . S
Co532 N567 2.145 . S
Co532 N588 2.257 . S
O533 Co531 2.143 . S
O533 Co532 2.160 . S
C534 O535 1.278 . S
C534 O542 1.224 . S
O535 C534 1.278 . S
C536 O537 1.245 . S
C536 O548 1.232 . S
O537 C536 1.245 . S
O538 Co532 2.058 . S
O538 C564 1.269 . S
O539 Co531 2.074 . S
O539 C564 1.257 . S
H540 C565 0.930 . S
H541 C571 0.930 . S
O542 Co531 2.093 . S
O542 C534 1.224 . S
H543 C575 0.929 . S
H544 C577 0.930 . S
H545 C578 0.930 . S
H546 C576 0.929 . S
H547 C579 0.928 . S
O548 Co532 2.057 . S
O548 C536 1.232 . S
H549 C568 0.929 . S
H550 C569 0.929 . S
H551 C581 0.931 . S
H552 C573 0.929 . S
H553 C582 0.930 . S
H554 C574 0.931 . S
O555 Co531 2.097 . S
O555 C583 1.214 . S
H556 C584 0.929 . S
H557 C585 0.929 . S
H558 C586 0.930 . S
H559 C587 0.929 . S
H560 C589 0.930 . S
H561 C566 0.930 . S
H562 C570 0.930 . S
O563 Co532 2.037 . S
O563 C583 1.234 . S
C564 O538 1.269 . S
C564 O539 1.257 . S
C565 H540 0.930 . S
C565 C568 1.388 . S
C565 C570 1.418 . S
C566 H561 0.930 . S
C566 C569 1.404 . S
C566 C570 1.353 . S
N567 Co532 2.145 . S
N567 C568 1.397 . S
N567 C569 1.334 . S
C568 H549 0.929 . S
C568 C565 1.388 . S
C568 N567 1.397 . S
C569 H550 0.929 . S
C569 C566 1.404 . S
C569 N567 1.334 . S
C570 H562 0.930 . S
C570 C565 1.418 . S
C570 C566 1.353 . S
C571 H541 0.930 . S
C571 N572 1.330 . S
C571 C573 1.467 . S
N572 Co531 2.151 . S
N572 C571 1.330 . S
N572 C576 1.418 1_455 S
C573 H552 0.929 . S
C573 C571 1.467 . S
C573 C574 1.311 1_455 S
C574 H554 0.931 . S
C574 C573 1.311 1_655 S
C574 C575 1.267 . S
C575 H543 0.929 . S
C575 C574 1.267 . S
C575 C576 1.251 . S
C576 H546 0.929 . S
C576 N572 1.418 1_655 S
C576 C575 1.251 . S
C577 H544 0.930 . S
C577 C579 1.406 . S
C577 C582 1.261 . S
C578 H545 0.930 . S
C578 N580 1.325 . S
C578 C581 1.357 . S
C579 H547 0.928 . S
C579 C577 1.406 . S
C579 N580 1.261 . S
N580 Co531 2.214 . S
N580 C578 1.325 . S
N580 C579 1.261 . S
C581 H551 0.931 . S
C581 C578 1.357 . S
C581 C582 1.312 . S
C582 H553 0.930 . S
C582 C577 1.261 . S
C582 C581 1.312 . S
C583 O555 1.214 . S
C583 O563 1.234 . S
C584 H556 0.929 . S
C584 C587 1.391 . S
C584 C589 1.391 . S
C585 H557 0.929 . S
C585 C586 1.390 . S
C585 N588 1.391 . S
C586 H558 0.930 . S
C586 C585 1.390 . S
C586 C587 1.392 . S
C587 H559 0.929 . S
C587 C584 1.391 . S
C587 C586 1.392 . S
N588 Co532 2.257 . S
N588 C585 1.391 . S
N588 C589 1.388 . S
C589 H560 0.930 . S
C589 C584 1.391 . S
C589 N588 1.388 . S
Co590 O592 2.143 . S
Co590 O598 2.074 . S
Co590 O601 2.093 . S
Co590 O614 2.097 . S
Co590 N631 2.151 . S
Co590 N639 2.214 . S
Co591 O592 2.160 . S
Co591 O597 2.058 . S
Co591 O607 2.057 . S
Co591 O622 2.037 . S
Co591 N626 2.145 . S
Co591 N647 2.257 . S
O592 Co590 2.143 . S
O592 Co591 2.160 . S
C593 O594 1.278 . S
C593 O601 1.224 . S
O594 C593 1.278 . S
C595 O596 1.245 . S
C595 O607 1.232 . S
O596 C595 1.245 . S
O597 Co591 2.058 . S
O597 C623 1.269 . S
O598 Co590 2.074 . S
O598 C623 1.257 . S
H599 C624 0.930 . S
H600 C630 0.930 . S
O601 Co590 2.093 . S
O601 C593 1.224 . S
H602 C634 0.929 . S
H603 C636 0.930 . S
H604 C637 0.930 . S
H605 C635 0.929 . S
H606 C638 0.928 . S
O607 Co591 2.057 . S
O607 C595 1.232 . S
H608 C627 0.929 . S
H609 C628 0.929 . S
H610 C640 0.931 . S
H611 C632 0.929 . S
H612 C641 0.930 . S
H613 C633 0.931 . S
O614 Co590 2.097 . S
O614 C642 1.214 . S
H615 C643 0.929 . S
H616 C644 0.929 . S
H617 C645 0.930 . S
H618 C646 0.929 . S
H619 C648 0.930 . S
H620 C625 0.930 . S
H621 C629 0.930 . S
O622 Co591 2.037 . S
O622 C642 1.234 . S
C623 O597 1.269 . S
C623 O598 1.257 . S
C624 H599 0.930 . S
C624 C627 1.388 . S
C624 C629 1.418 . S
C625 H620 0.930 . S
C625 C628 1.404 . S
C625 C629 1.353 . S
N626 Co591 2.145 . S
N626 C627 1.397 . S
N626 C628 1.334 . S
C627 H608 0.929 . S
C627 C624 1.388 . S
C627 N626 1.397 . S
C628 H609 0.929 . S
C628 C625 1.404 . S
C628 N626 1.334 . S
C629 H621 0.930 . S
C629 C624 1.418 . S
C629 C625 1.353 . S
C630 H600 0.930 . S
C630 N631 1.330 . S
C630 C632 1.446 . S
N631 Co590 2.151 . S
N631 C630 1.330 . S
N631 C635 1.418 . S
C632 H611 0.929 . S
C632 C630 1.446 . S
C632 C633 1.332 . S
C633 H613 0.931 . S
C633 C632 1.332 . S
C633 C634 1.267 . S
C634 H602 0.929 . S
C634 C633 1.267 . S
C634 C635 1.251 . S
C635 H605 0.929 . S
C635 N631 1.418 . S
C635 C634 1.251 . S
C636 H603 0.930 . S
C636 C638 1.406 . S
C636 C641 1.261 . S
C637 H604 0.930 . S
C637 N639 1.325 . S
C637 C640 1.357 . S
C638 H606 0.928 . S
C638 C636 1.406 . S
C638 N639 1.261 . S
N639 Co590 2.214 . S
N639 C637 1.325 . S
N639 C638 1.261 . S
C640 H610 0.931 . S
C640 C637 1.357 . S
C640 C641 1.312 . S
C641 H612 0.930 . S
C641 C636 1.261 . S
C641 C640 1.312 . S
C642 O614 1.214 . S
C642 O622 1.234 . S
C643 H615 0.929 . S
C643 C646 1.391 . S
C643 C648 1.391 . S
C644 H616 0.929 . S
C644 C645 1.390 . S
C644 N647 1.391 . S
C645 H617 0.930 . S
C645 C644 1.390 . S
C645 C646 1.392 . S
C646 H618 0.929 . S
C646 C643 1.391 . S
C646 C645 1.392 . S
N647 Co591 2.257 . S
N647 C644 1.391 . S
N647 C648 1.388 . S
C648 H619 0.930 . S
C648 C643 1.391 . S
C648 N647 1.388 . S
Co649 O651 2.143 . S
Co649 O657 2.074 . S
Co649 O660 2.093 1_556 S
Co649 O673 2.097 . S
Co649 N690 2.151 1_556 S
Co649 N698 2.214 . S
Co650 O651 2.160 . S
Co650 O656 2.058 . S
Co650 O666 2.057 . S
Co650 O681 2.037 . S
Co650 N685 2.145 . S
Co650 N706 2.257 . S
O651 Co649 2.143 . S
O651 Co650 2.160 . S
C652 O653 1.278 . S
C652 O660 1.224 . S
O653 C652 1.278 . S
C654 O655 1.245 . S
C654 O666 1.232 . S
O655 C654 1.245 . S
O656 Co650 2.058 . S
O656 C682 1.269 . S
O657 Co649 2.074 . S
O657 C682 1.257 . S
H658 C683 0.930 . S
H659 C689 0.930 . S
O660 Co649 2.093 1_554 S
O660 C652 1.224 . S
H661 C693 0.929 . S
H662 C695 0.930 1_554 S
H663 C696 0.930 . S
H664 C694 0.929 1_556 S
H665 C697 0.940 . S
O666 Co650 2.057 . S
O666 C654 1.232 . S
H667 C686 0.929 . S
H668 C687 0.929 . S
H669 C699 0.931 . S
H670 C691 0.929 . S
H671 C700 0.930 . S
H672 C692 0.931 . S
O673 Co649 2.097 . S
O673 C701 1.214 . S
H674 C702 0.929 . S
H675 C703 0.929 . S
H676 C704 0.930 . S
H677 C705 0.929 . S
H678 C707 0.930 . S
H679 C684 0.930 . S
H680 C688 0.930 . S
O681 Co650 2.037 . S
O681 C701 1.234 . S
C682 O656 1.269 . S
C682 O657 1.257 . S
C683 H658 0.930 . S
C683 C686 1.388 . S
C683 C688 1.418 . S
C684 H679 0.930 . S
C684 C687 1.404 . S
C684 C688 1.353 . S
N685 Co650 2.145 . S
N685 C686 1.397 . S
N685 C687 1.334 . S
C686 H667 0.929 . S
C686 C683 1.388 . S
C686 N685 1.397 . S
C687 H668 0.929 . S
C687 C684 1.404 . S
C687 N685 1.334 . S
C688 H680 0.930 . S
C688 C683 1.418 . S
C688 C684 1.353 . S
C689 H659 0.930 . S
C689 N690 1.330 . S
C689 C691 1.446 . S
N690 Co649 2.151 1_554 S
N690 C689 1.330 . S
N690 C694 1.418 . S
C691 H670 0.929 . S
C691 C689 1.446 . S
C691 C692 1.332 . S
C692 H672 0.931 . S
C692 C691 1.332 . S
C692 C693 1.267 . S
C693 H661 0.929 . S
C693 C692 1.267 . S
C693 C694 1.251 . S
C694 H664 0.929 1_554 S
C694 N690 1.418 . S
C694 C693 1.251 . S
C695 H662 0.930 1_556 S
C695 C697 1.404 1_556 S
C695 C700 1.261 . S
C696 H663 0.930 . S
C696 N698 1.325 . S
C696 C699 1.357 . S
C697 H665 0.940 . S
C697 C695 1.404 1_554 S
C697 N698 1.251 1_554 S
N698 Co649 2.214 . S
N698 C696 1.325 . S
N698 C697 1.251 1_556 S
C699 H669 0.931 . S
C699 C696 1.357 . S
C699 C700 1.312 . S
C700 H671 0.930 . S
C700 C695 1.261 . S
C700 C699 1.312 . S
C701 O673 1.214 . S
C701 O681 1.234 . S
C702 H674 0.929 . S
C702 C705 1.391 . S
C702 C707 1.391 . S
C703 H675 0.929 . S
C703 C704 1.390 . S
C703 N706 1.391 . S
C704 H676 0.930 . S
C704 C703 1.390 . S
C704 C705 1.392 . S
C705 H677 0.929 . S
C705 C702 1.391 . S
C705 C704 1.392 . S
N706 Co650 2.257 . S
N706 C703 1.391 . S
N706 C707 1.388 . S
C707 H678 0.930 . S
C707 C702 1.391 . S
C707 N706 1.388 . S
Co708 O710 2.143 . S
Co708 O716 2.074 . S
Co708 O719 2.093 . S
Co708 O732 2.097 . S
Co708 N749 2.151 . S
Co708 N757 2.214 . S
Co709 O710 2.160 . S
Co709 O715 2.058 . S
Co709 O725 2.057 . S
Co709 O740 2.037 . S
Co709 N744 2.145 . S
Co709 N765 2.257 . S
O710 Co708 2.143 . S
O710 Co709 2.160 . S
C711 O712 1.278 . S
C711 O719 1.224 . S
O712 C711 1.278 . S
C713 O714 1.245 . S
C713 O725 1.232 . S
O714 C713 1.245 . S
O715 Co709 2.058 . S
O715 C741 1.269 . S
O716 Co708 2.074 . S
O716 C741 1.257 . S
H717 C742 0.930 . S
H718 C748 0.930 . S
O719 Co708 2.093 . S
O719 C711 1.224 . S
H720 C752 0.929 . S
H721 C754 0.930 . S
H722 C755 0.930 . S
H723 C753 0.929 . S
H724 C756 0.928 . S
O725 Co709 2.057 . S
O725 C713 1.232 . S
H726 C745 0.929 . S
H727 C746 0.929 . S
H728 C758 0.931 . S
H729 C750 0.929 . S
H730 C759 0.930 . S
H731 C751 0.931 . S
O732 Co708 2.097 . S
O732 C760 1.214 . S
H733 C761 0.929 . S
H734 C762 0.929 . S
H735 C763 0.930 . S
H736 C764 0.929 . S
H737 C766 0.930 . S
H738 C743 0.930 . S
H739 C747 0.930 . S
O740 Co709 2.037 . S
O740 C760 1.234 . S
C741 O715 1.269 . S
C741 O716 1.257 . S
C742 H717 0.930 . S
C742 C745 1.388 . S
C742 C747 1.418 . S
C743 H738 0.930 . S
C743 C746 1.404 . S
C743 C747 1.353 . S
N744 Co709 2.145 . S
N744 C745 1.397 . S
N744 C746 1.334 . S
C745 H726 0.929 . S
C745 C742 1.388 . S
C745 N744 1.397 . S
C746 H727 0.929 . S
C746 C743 1.404 . S
C746 N744 1.334 . S
C747 H739 0.930 . S
C747 C742 1.418 . S
C747 C743 1.353 . S
C748 H718 0.930 . S
C748 N749 1.330 . S
C748 C750 1.446 . S
N749 Co708 2.151 . S
N749 C748 1.330 . S
N749 C753 1.418 . S
C750 H729 0.929 . S
C750 C748 1.446 . S
C750 C751 1.332 . S
C751 H731 0.931 . S
C751 C750 1.332 . S
C751 C752 1.267 . S
C752 H720 0.929 . S
C752 C751 1.267 . S
C752 C753 1.251 . S
C753 H723 0.929 . S
C753 N749 1.418 . S
C753 C752 1.251 . S
C754 H721 0.930 . S
C754 C756 1.406 . S
C754 C759 1.261 . S
C755 H722 0.930 . S
C755 N757 1.325 . S
C755 C758 1.357 . S
C756 H724 0.928 . S
C756 C754 1.406 . S
C756 N757 1.261 . S
N757 Co708 2.214 . S
N757 C755 1.325 . S
N757 C756 1.261 . S
C758 H728 0.931 . S
C758 C755 1.357 . S
C758 C759 1.312 . S
C759 H730 0.930 . S
C759 C754 1.261 . S
C759 C758 1.312 . S
C760 O732 1.214 . S
C760 O740 1.234 . S
C761 H733 0.929 . S
C761 C764 1.391 . S
C761 C766 1.391 . S
C762 H734 0.929 . S
C762 C763 1.390 . S
C762 N765 1.391 . S
C763 H735 0.930 . S
C763 C762 1.390 . S
C763 C764 1.392 . S
C764 H736 0.929 . S
C764 C761 1.391 . S
C764 C763 1.392 . S
N765 Co709 2.257 . S
N765 C762 1.391 . S
N765 C766 1.388 . S
C766 H737 0.930 . S
C766 C761 1.391 . S
C766 N765 1.388 . S
Co767 O769 2.143 . S
Co767 O775 2.074 . S
Co767 O778 2.093 . S
Co767 O791 2.097 . S
Co767 N808 2.151 . S
Co767 N816 2.214 . S
Co768 O769 2.160 . S
Co768 O774 2.058 . S
Co768 O784 2.057 . S
Co768 O799 2.037 . S
Co768 N803 2.145 . S
Co768 N824 2.257 . S
O769 Co767 2.143 . S
O769 Co768 2.160 . S
C770 O771 1.278 . S
C770 O778 1.224 . S
O771 C770 1.278 . S
C772 O773 1.245 . S
C772 O784 1.232 . S
O773 C772 1.245 . S
O774 Co768 2.058 . S
O774 C800 1.269 . S
O775 Co767 2.074 . S
O775 C800 1.257 . S
H776 C801 0.930 . S
H777 C807 0.930 . S
O778 Co767 2.093 . S
O778 C770 1.224 . S
H779 C811 0.929 . S
H780 C813 0.930 . S
H781 C814 0.930 . S
H782 C812 0.929 . S
H783 C815 0.928 . S
O784 Co768 2.057 . S
O784 C772 1.232 . S
H785 C804 0.929 . S
H786 C805 0.929 . S
H787 C817 0.931 . S
H788 C809 0.929 . S
H789 C818 0.930 . S
H790 C810 0.931 . S
O791 Co767 2.097 . S
O791 C819 1.214 . S
H792 C820 0.929 . S
H793 C821 0.929 . S
H794 C822 0.930 . S
H795 C823 0.929 . S
H796 C825 0.930 . S
H797 C802 0.930 . S
H798 C806 0.930 . S
O799 Co768 2.037 . S
O799 C819 1.234 . S
C800 O774 1.269 . S
C800 O775 1.257 . S
C801 H776 0.930 . S
C801 C804 1.388 . S
C801 C806 1.418 . S
C802 H797 0.930 . S
C802 C805 1.404 . S
C802 C806 1.353 . S
N803 Co768 2.145 . S
N803 C804 1.397 . S
N803 C805 1.334 . S
C804 H785 0.929 . S
C804 C801 1.388 . S
C804 N803 1.397 . S
C805 H786 0.929 . S
C805 C802 1.404 . S
C805 N803 1.334 . S
C806 H798 0.930 . S
C806 C801 1.418 . S
C806 C802 1.353 . S
C807 H777 0.930 . S
C807 N808 1.330 . S
C807 C809 1.446 . S
N808 Co767 2.151 . S
N808 C807 1.330 . S
N808 C812 1.418 . S
C809 H788 0.929 . S
C809 C807 1.446 . S
C809 C810 1.332 . S
C810 H790 0.931 . S
C810 C809 1.332 . S
C810 C811 1.267 . S
C811 H779 0.929 . S
C811 C810 1.267 . S
C811 C812 1.251 . S
C812 H782 0.929 . S
C812 N808 1.418 . S
C812 C811 1.251 . S
C813 H780 0.930 . S
C813 C815 1.406 . S
C813 C818 1.261 . S
C814 H781 0.930 . S
C814 N816 1.325 . S
C814 C817 1.357 . S
C815 H783 0.928 . S
C815 C813 1.406 . S
C815 N816 1.261 . S
N816 Co767 2.214 . S
N816 C814 1.325 . S
N816 C815 1.261 . S
C817 H787 0.931 . S
C817 C814 1.357 . S
C817 C818 1.312 . S
C818 H789 0.930 . S
C818 C813 1.261 . S
C818 C817 1.312 . S
C819 O791 1.214 . S
C819 O799 1.234 . S
C820 H792 0.929 . S
C820 C823 1.391 . S
C820 C825 1.391 . S
C821 H793 0.929 . S
C821 C822 1.390 . S
C821 N824 1.391 . S
C822 H794 0.930 . S
C822 C821 1.390 . S
C822 C823 1.392 . S
C823 H795 0.929 . S
C823 C820 1.391 . S
C823 C822 1.392 . S
N824 Co768 2.257 . S
N824 C821 1.391 . S
N824 C825 1.388 . S
C825 H796 0.930 . S
C825 C820 1.391 . S
C825 N824 1.388 . S
Co826 O828 2.143 . S
Co826 O834 2.074 . S
Co826 O837 2.093 . S
Co826 O850 2.097 . S
Co826 N867 2.151 . S
Co826 N875 2.214 . S
Co827 O828 2.160 . S
Co827 O833 2.058 . S
Co827 O843 2.057 . S
Co827 O858 2.037 . S
Co827 N862 2.145 . S
Co827 N883 2.257 . S
O828 Co826 2.143 . S
O828 Co827 2.160 . S
C829 O830 1.278 . S
C829 O837 1.224 . S
O830 C829 1.278 . S
C831 O832 1.245 . S
C831 O843 1.232 . S
O832 C831 1.245 . S
O833 Co827 2.058 . S
O833 C859 1.269 . S
O834 Co826 2.074 . S
O834 C859 1.257 . S
H835 C860 0.930 . S
H836 C866 0.930 . S
O837 Co826 2.093 . S
O837 C829 1.224 . S
H838 C870 0.929 . S
H839 C872 0.930 . S
H840 C873 0.930 . S
H841 C871 0.929 . S
H842 C874 0.928 . S
O843 Co827 2.057 . S
O843 C831 1.232 . S
H844 C863 0.929 . S
H845 C864 0.929 . S
H846 C876 0.931 . S
H847 C868 0.929 . S
H848 C877 0.930 . S
H849 C869 0.931 . S
O850 Co826 2.097 . S
O850 C878 1.214 . S
H851 C879 0.929 . S
H852 C880 0.929 . S
H853 C881 0.930 . S
H854 C882 0.929 . S
H855 C884 0.930 . S
H856 C861 0.930 . S
H857 C865 0.930 . S
O858 Co827 2.037 . S
O858 C878 1.234 . S
C859 O833 1.269 . S
C859 O834 1.257 . S
C860 H835 0.930 . S
C860 C863 1.388 . S
C860 C865 1.418 . S
C861 H856 0.930 . S
C861 C864 1.404 . S
C861 C865 1.353 . S
N862 Co827 2.145 . S
N862 C863 1.397 . S
N862 C864 1.334 . S
C863 H844 0.929 . S
C863 C860 1.388 . S
C863 N862 1.397 . S
C864 H845 0.929 . S
C864 C861 1.404 . S
C864 N862 1.334 . S
C865 H857 0.930 . S
C865 C860 1.418 . S
C865 C861 1.353 . S
C866 H836 0.930 . S
C866 N867 1.330 . S
C866 C868 1.446 . S
N867 Co826 2.151 . S
N867 C866 1.330 . S
N867 C871 1.418 . S
C868 H847 0.929 . S
C868 C866 1.446 . S
C868 C869 1.332 . S
C869 H849 0.931 . S
C869 C868 1.332 . S
C869 C870 1.267 . S
C870 H838 0.929 . S
C870 C869 1.267 . S
C870 C871 1.251 . S
C871 H841 0.929 . S
C871 N867 1.418 . S
C871 C870 1.251 . S
C872 H839 0.930 . S
C872 C874 1.406 . S
C872 C877 1.261 . S
C873 H840 0.930 . S
C873 N875 1.325 . S
C873 C876 1.357 . S
C874 H842 0.928 . S
C874 C872 1.406 . S
C874 N875 1.261 . S
N875 Co826 2.214 . S
N875 C873 1.325 . S
N875 C874 1.261 . S
C876 H846 0.931 . S
C876 C873 1.357 . S
C876 C877 1.312 . S
C877 H848 0.930 . S
C877 C872 1.261 . S
C877 C876 1.312 . S
C878 O850 1.214 . S
C878 O858 1.234 . S
C879 H851 0.929 . S
C879 C882 1.391 . S
C879 C884 1.391 . S
C880 H852 0.929 . S
C880 C881 1.390 . S
C880 N883 1.391 . S
C881 H853 0.930 . S
C881 C880 1.390 . S
C881 C882 1.392 . S
C882 H854 0.929 . S
C882 C879 1.391 . S
C882 C881 1.392 . S
N883 Co827 2.257 . S
N883 C880 1.391 . S
N883 C884 1.388 . S
C884 H855 0.930 . S
C884 C879 1.391 . S
C884 N883 1.388 . S
Co885 O887 2.143 . S
Co885 O893 2.074 . S
Co885 O896 2.093 1_554 S
Co885 O909 2.097 . S
Co885 N926 2.151 1_554 S
Co885 N934 2.214 . S
Co886 O887 2.160 . S
Co886 O892 2.058 . S
Co886 O902 2.057 . S
Co886 O917 2.037 . S
Co886 N921 2.145 . S
Co886 N942 2.257 . S
O887 Co885 2.143 . S
O887 Co886 2.160 . S
C888 O889 1.278 . S
C888 O896 1.224 . S
O889 C888 1.278 . S
C890 O891 1.245 . S
C890 O902 1.232 . S
O891 C890 1.245 . S
O892 Co886 2.058 . S
O892 C918 1.269 . S
O893 Co885 2.074 . S
O893 C918 1.257 . S
H894 C919 0.930 . S
H895 C925 0.930 . S
O896 Co885 2.093 1_556 S
O896 C888 1.224 . S
H897 C929 0.929 . S
H898 C931 0.930 1_556 S
H899 C932 0.930 . S
H900 C930 0.929 1_554 S
H901 C933 0.940 . S
O902 Co886 2.057 . S
O902 C890 1.232 . S
H903 C922 0.929 . S
H904 C923 0.929 . S
H905 C935 0.931 . S
H906 C927 0.929 . S
H907 C936 0.930 . S
H908 C928 0.931 . S
O909 Co885 2.097 . S
O909 C937 1.214 . S
H910 C938 0.929 . S
H911 C939 0.929 . S
H912 C940 0.930 . S
H913 C941 0.929 . S
H914 C943 0.930 . S
H915 C920 0.930 . S
H916 C924 0.930 . S
O917 Co886 2.037 . S
O917 C937 1.234 . S
C918 O892 1.269 . S
C918 O893 1.257 . S
C919 H894 0.930 . S
C919 C922 1.388 . S
C919 C924 1.418 . S
C920 H915 0.930 . S
C920 C923 1.404 . S
C920 C924 1.353 . S
N921 Co886 2.145 . S
N921 C922 1.397 . S
N921 C923 1.334 . S
C922 H903 0.929 . S
C922 C919 1.388 . S
C922 N921 1.397 . S
C923 H904 0.929 . S
C923 C920 1.404 . S
C923 N921 1.334 . S
C924 H916 0.930 . S
C924 C919 1.418 . S
C924 C920 1.353 . S
C925 H895 0.930 . S
C925 N926 1.330 . S
C925 C927 1.467 . S
N926 Co885 2.151 1_556 S
N926 C925 1.330 . S
N926 C930 1.418 1_455 S
C927 H906 0.929 . S
C927 C925 1.467 . S
C927 C928 1.310 1_455 S
C928 H908 0.931 . S
C928 C927 1.310 1_655 S
C928 C929 1.267 . S
C929 H897 0.929 . S
C929 C928 1.267 . S
C929 C930 1.251 . S
C930 H900 0.929 1_556 S
C930 N926 1.418 1_655 S
C930 C929 1.251 . S
C931 H898 0.930 1_554 S
C931 C933 1.404 1_554 S
C931 C936 1.261 . S
C932 H899 0.930 . S
C932 N934 1.325 . S
C932 C935 1.357 . S
C933 H901 0.940 . S
C933 C931 1.404 1_556 S
C933 N934 1.251 1_556 S
N934 Co885 2.214 . S
N934 C932 1.325 . S
N934 C933 1.251 1_554 S
C935 H905 0.931 . S
C935 C932 1.357 . S
C935 C936 1.312 . S
C936 H907 0.930 . S
C936 C931 1.261 . S
C936 C935 1.312 . S
C937 O909 1.214 . S
C937 O917 1.234 . S
C938 H910 0.929 . S
C938 C941 1.391 . S
C938 C943 1.391 . S
C939 H911 0.929 . S
C939 C940 1.390 . S
C939 N942 1.391 . S
C940 H912 0.930 . S
C940 C939 1.390 . S
C940 C941 1.392 . S
C941 H913 0.929 . S
C941 C938 1.391 . S
C941 C940 1.392 . S
N942 Co886 2.257 . S
N942 C939 1.391 . S
N942 C943 1.388 . S
C943 H914 0.930 . S
C943 C938 1.391 . S
C943 N942 1.388 . S
Co944 O946 2.143 . S
Co944 O952 2.074 . S
Co944 O955 2.093 . S
Co944 O968 2.097 . S
Co944 N985 2.151 . S
Co944 N993 2.214 . S
Co945 O946 2.160 . S
Co945 O951 2.058 . S
Co945 O961 2.057 . S
Co945 O976 2.037 . S
Co945 N980 2.145 . S
Co945 N1001 2.257 . S
O946 Co944 2.143 . S
O946 Co945 2.160 . S
C947 O948 1.278 . S
C947 O955 1.224 . S
O948 C947 1.278 . S
C949 O950 1.245 . S
C949 O961 1.232 . S
O950 C949 1.245 . S
O951 Co945 2.058 . S
O951 C977 1.269 . S
O952 Co944 2.074 . S
O952 C977 1.257 . S
H953 C978 0.930 . S
H954 C984 0.930 . S
O955 Co944 2.093 . S
O955 C947 1.224 . S
H956 C988 0.929 . S
H957 C990 0.930 . S
H958 C991 0.930 . S
H959 C989 0.929 . S
H960 C992 0.928 . S
O961 Co945 2.057 . S
O961 C949 1.232 . S
H962 C981 0.929 . S
H963 C982 0.929 . S
H964 C994 0.931 . S
H965 C986 0.929 . S
H966 C995 0.930 . S
H967 C987 0.931 . S
O968 Co944 2.097 . S
O968 C996 1.214 . S
H969 C997 0.929 . S
H970 C998 0.929 . S
H971 C999 0.930 . S
H972 C1000 0.929 . S
H973 C1002 0.930 . S
H974 C979 0.930 . S
H975 C983 0.930 . S
O976 Co945 2.037 . S
O976 C996 1.234 . S
C977 O951 1.269 . S
C977 O952 1.257 . S
C978 H953 0.930 . S
C978 C981 1.388 . S
C978 C983 1.418 . S
C979 H974 0.930 . S
C979 C982 1.404 . S
C979 C983 1.353 . S
N980 Co945 2.145 . S
N980 C981 1.397 . S
N980 C982 1.334 . S
C981 H962 0.929 . S
C981 C978 1.388 . S
C981 N980 1.397 . S
C982 H963 0.929 . S
C982 C979 1.404 . S
C982 N980 1.334 . S
C983 H975 0.930 . S
C983 C978 1.418 . S
C983 C979 1.353 . S
C984 H954 0.930 . S
C984 N985 1.330 . S
C984 C986 1.446 . S
N985 Co944 2.151 . S
N985 C984 1.330 . S
N985 C989 1.418 . S
C986 H965 0.929 . S
C986 C984 1.446 . S
C986 C987 1.332 . S
C987 H967 0.931 . S
C987 C986 1.332 . S
C987 C988 1.267 . S
C988 H956 0.929 . S
C988 C987 1.267 . S
C988 C989 1.251 . S
C989 H959 0.929 . S
C989 N985 1.418 . S
C989 C988 1.251 . S
C990 H957 0.930 . S
C990 C992 1.406 . S
C990 C995 1.261 . S
C991 H958 0.930 . S
C991 N993 1.325 . S
C991 C994 1.357 . S
C992 H960 0.928 . S
C992 C990 1.406 . S
C992 N993 1.261 . S
N993 Co944 2.214 . S
N993 C991 1.325 . S
N993 C992 1.261 . S
C994 H964 0.931 . S
C994 C991 1.357 . S
C994 C995 1.312 . S
C995 H966 0.930 . S
C995 C990 1.261 . S
C995 C994 1.312 . S
C996 O968 1.214 . S
C996 O976 1.234 . S
C997 H969 0.929 . S
C997 C1000 1.391 . S
C997 C1002 1.391 . S
C998 H970 0.929 . S
C998 C999 1.390 . S
C998 N1001 1.391 . S
C999 H971 0.930 . S
C999 C998 1.390 . S
C999 C1000 1.392 . S
C1000 H972 0.929 . S
C1000 C997 1.391 . S
C1000 C999 1.392 . S
N1001 Co945 2.257 . S
N1001 C998 1.391 . S
N1001 C1002 1.388 . S
C1002 H973 0.930 . S
C1002 C997 1.391 . S
C1002 N1001 1.388 . S
Co1003 O1005 2.143 . S
Co1003 O1011 2.074 . S
Co1003 O1014 2.093 1_554 S
Co1003 O1027 2.097 . S
Co1003 N1044 2.151 1_554 S
Co1003 N1052 2.214 . S
Co1004 O1005 2.160 . S
Co1004 O1010 2.058 . S
Co1004 O1020 2.057 . S
Co1004 O1035 2.037 . S
Co1004 N1039 2.145 . S
Co1004 N1060 2.257 . S
O1005 Co1003 2.143 . S
O1005 Co1004 2.160 . S
C1006 O1007 1.278 . S
C1006 O1014 1.224 . S
O1007 C1006 1.278 . S
C1008 O1009 1.245 . S
C1008 O1020 1.232 . S
O1009 C1008 1.245 . S
O1010 Co1004 2.058 . S
O1010 C1036 1.269 . S
O1011 Co1003 2.074 . S
O1011 C1036 1.257 . S
H1012 C1037 0.930 . S
H1013 C1043 0.930 . S
O1014 Co1003 2.093 1_556 S
O1014 C1006 1.224 . S
H1015 C1047 0.929 . S
H1016 C1049 0.930 1_556 S
H1017 C1050 0.930 . S
H1018 C1048 0.929 1_554 S
H1019 C1051 0.940 . S
O1020 Co1004 2.057 . S
O1020 C1008 1.232 . S
H1021 C1040 0.929 . S
H1022 C1041 0.929 . S
H1023 C1053 0.931 . S
H1024 C1045 0.929 . S
H1025 C1054 0.930 . S
H1026 C1046 0.931 . S
O1027 Co1003 2.097 . S
O1027 C1055 1.214 . S
H1028 C1056 0.929 . S
H1029 C1057 0.929 . S
H1030 C1058 0.930 . S
H1031 C1059 0.929 . S
H1032 C1061 0.930 . S
H1033 C1038 0.930 . S
H1034 C1042 0.930 . S
O1035 Co1004 2.037 . S
O1035 C1055 1.234 . S
C1036 O1010 1.269 . S
C1036 O1011 1.257 . S
C1037 H1012 0.930 . S
C1037 C1040 1.388 . S
C1037 C1042 1.418 . S
C1038 H1033 0.930 . S
C1038 C1041 1.404 . S
C1038 C1042 1.353 . S
N1039 Co1004 2.145 . S
N1039 C1040 1.397 . S
N1039 C1041 1.334 . S
C1040 H1021 0.929 . S
C1040 C1037 1.388 . S
C1040 N1039 1.397 . S
C1041 H1022 0.929 . S
C1041 C1038 1.404 . S
C1041 N1039 1.334 . S
C1042 H1034 0.930 . S
C1042 C1037 1.418 . S
C1042 C1038 1.353 . S
C1043 H1013 0.930 . S
C1043 N1044 1.330 . S
C1043 C1045 1.446 . S
N1044 Co1003 2.151 1_556 S
N1044 C1043 1.330 . S
N1044 C1048 1.418 . S
C1045 H1024 0.929 . S
C1045 C1043 1.446 . S
C1045 C1046 1.332 . S
C1046 H1026 0.931 . S
C1046 C1045 1.332 . S
C1046 C1047 1.267 . S
C1047 H1015 0.929 . S
C1047 C1046 1.267 . S
C1047 C1048 1.251 . S
C1048 H1018 0.929 1_556 S
C1048 N1044 1.418 . S
C1048 C1047 1.251 . S
C1049 H1016 0.930 1_554 S
C1049 C1051 1.404 1_554 S
C1049 C1054 1.261 . S
C1050 H1017 0.930 . S
C1050 N1052 1.325 . S
C1050 C1053 1.357 . S
C1051 H1019 0.940 . S
C1051 C1049 1.404 1_556 S
C1051 N1052 1.251 1_556 S
N1052 Co1003 2.214 . S
N1052 C1050 1.325 . S
N1052 C1051 1.251 1_554 S
C1053 H1023 0.931 . S
C1053 C1050 1.357 . S
C1053 C1054 1.312 . S
C1054 H1025 0.930 . S
C1054 C1049 1.261 . S
C1054 C1053 1.312 . S
C1055 O1027 1.214 . S
C1055 O1035 1.234 . S
C1056 H1028 0.929 . S
C1056 C1059 1.391 . S
C1056 C1061 1.391 . S
C1057 H1029 0.929 . S
C1057 C1058 1.390 . S
C1057 N1060 1.391 . S
C1058 H1030 0.930 . S
C1058 C1057 1.390 . S
C1058 C1059 1.392 . S
C1059 H1031 0.929 . S
C1059 C1056 1.391 . S
C1059 C1058 1.392 . S
N1060 Co1004 2.257 . S
N1060 C1057 1.391 . S
N1060 C1061 1.388 . S
C1061 H1032 0.930 . S
C1061 C1056 1.391 . S
C1061 N1060 1.388 . S
Co1062 O1064 2.143 . S
Co1062 O1070 2.074 . S
Co1062 O1073 2.093 . S
Co1062 O1086 2.097 . S
Co1062 N1103 2.151 . S
Co1062 N1111 2.214 . S
Co1063 O1064 2.160 . S
Co1063 O1069 2.058 . S
Co1063 O1079 2.057 . S
Co1063 O1094 2.037 . S
Co1063 N1098 2.145 . S
Co1063 N1119 2.257 . S
O1064 Co1062 2.143 . S
O1064 Co1063 2.160 . S
C1065 O1066 1.278 . S
C1065 O1073 1.224 . S
O1066 C1065 1.278 . S
C1067 O1068 1.245 . S
C1067 O1079 1.232 . S
O1068 C1067 1.245 . S
O1069 Co1063 2.058 . S
O1069 C1095 1.269 . S
O1070 Co1062 2.074 . S
O1070 C1095 1.257 . S
H1071 C1096 0.930 . S
H1072 C1102 0.930 . S
O1073 Co1062 2.093 . S
O1073 C1065 1.224 . S
H1074 C1106 0.929 . S
H1075 C1108 0.930 . S
H1076 C1109 0.930 . S
H1077 C1107 0.929 . S
H1078 C1110 0.928 . S
O1079 Co1063 2.057 . S
O1079 C1067 1.232 . S
H1080 C1099 0.929 . S
H1081 C1100 0.929 . S
H1082 C1112 0.931 . S
H1083 C1104 0.929 . S
H1084 C1113 0.930 . S
H1085 C1105 0.931 . S
O1086 Co1062 2.097 . S
O1086 C1114 1.214 . S
H1087 C1115 0.929 . S
H1088 C1116 0.929 . S
H1089 C1117 0.930 . S
H1090 C1118 0.929 . S
H1091 C1120 0.930 . S
H1092 C1097 0.930 . S
H1093 C1101 0.930 . S
O1094 Co1063 2.037 . S
O1094 C1114 1.234 . S
C1095 O1069 1.269 . S
C1095 O1070 1.257 . S
C1096 H1071 0.930 . S
C1096 C1099 1.388 . S
C1096 C1101 1.418 . S
C1097 H1092 0.930 . S
C1097 C1100 1.404 . S
C1097 C1101 1.353 . S
N1098 Co1063 2.145 . S
N1098 C1099 1.397 . S
N1098 C1100 1.334 . S
C1099 H1080 0.929 . S
C1099 C1096 1.388 . S
C1099 N1098 1.397 . S
C1100 H1081 0.929 . S
C1100 C1097 1.404 . S
C1100 N1098 1.334 . S
C1101 H1093 0.930 . S
C1101 C1096 1.418 . S
C1101 C1097 1.353 . S
C1102 H1072 0.930 . S
C1102 N1103 1.330 . S
C1102 C1104 1.446 . S
N1103 Co1062 2.151 . S
N1103 C1102 1.330 . S
N1103 C1107 1.418 . S
C1104 H1083 0.929 . S
C1104 C1102 1.446 . S
C1104 C1105 1.332 . S
C1105 H1085 0.931 . S
C1105 C1104 1.332 . S
C1105 C1106 1.267 . S
C1106 H1074 0.929 . S
C1106 C1105 1.267 . S
C1106 C1107 1.251 . S
C1107 H1077 0.929 . S
C1107 N1103 1.418 . S
C1107 C1106 1.251 . S
C1108 H1075 0.930 . S
C1108 C1110 1.406 . S
C1108 C1113 1.261 . S
C1109 H1076 0.930 . S
C1109 N1111 1.325 . S
C1109 C1112 1.357 . S
C1110 H1078 0.928 . S
C1110 C1108 1.406 . S
C1110 N1111 1.261 . S
N1111 Co1062 2.214 . S
N1111 C1109 1.325 . S
N1111 C1110 1.261 . S
C1112 H1082 0.931 . S
C1112 C1109 1.357 . S
C1112 C1113 1.312 . S
C1113 H1084 0.930 . S
C1113 C1108 1.261 . S
C1113 C1112 1.312 . S
C1114 O1086 1.214 . S
C1114 O1094 1.234 . S
C1115 H1087 0.929 . S
C1115 C1118 1.391 . S
C1115 C1120 1.391 . S
C1116 H1088 0.929 . S
C1116 C1117 1.390 . S
C1116 N1119 1.391 . S
C1117 H1089 0.930 . S
C1117 C1116 1.390 . S
C1117 C1118 1.392 . S
C1118 H1090 0.929 . S
C1118 C1115 1.391 . S
C1118 C1117 1.392 . S
N1119 Co1063 2.257 . S
N1119 C1116 1.391 . S
N1119 C1120 1.388 . S
C1120 H1091 0.930 . S
C1120 C1115 1.391 . S
C1120 N1119 1.388 . S
Co1121 O1123 2.143 . S
Co1121 O1129 2.074 . S
Co1121 O1132 2.093 . S
Co1121 O1145 2.097 . S
Co1121 N1162 2.151 . S
Co1121 N1170 2.214 . S
Co1122 O1123 2.160 . S
Co1122 O1128 2.058 . S
Co1122 O1138 2.057 . S
Co1122 O1153 2.037 . S
Co1122 N1157 2.145 . S
Co1122 N1178 2.257 . S
O1123 Co1121 2.143 . S
O1123 Co1122 2.160 . S
C1124 O1125 1.278 . S
C1124 O1132 1.224 . S
O1125 C1124 1.278 . S
C1126 O1127 1.245 . S
C1126 O1138 1.232 . S
O1127 C1126 1.245 . S
O1128 Co1122 2.058 . S
O1128 C1154 1.269 . S
O1129 Co1121 2.074 . S
O1129 C1154 1.257 . S
H1130 C1155 0.930 . S
H1131 C1161 0.930 . S
O1132 Co1121 2.093 . S
O1132 C1124 1.224 . S
H1133 C1165 0.929 . S
H1134 C1167 0.930 . S
H1135 C1168 0.930 . S
H1136 C1166 0.929 . S
H1137 C1169 0.928 . S
O1138 Co1122 2.057 . S
O1138 C1126 1.232 . S
H1139 C1158 0.929 . S
H1140 C1159 0.929 . S
H1141 C1171 0.931 . S
H1142 C1163 0.929 . S
H1143 C1172 0.930 . S
H1144 C1164 0.931 . S
O1145 Co1121 2.097 . S
O1145 C1173 1.214 . S
H1146 C1174 0.929 . S
H1147 C1175 0.929 . S
H1148 C1176 0.930 . S
H1149 C1177 0.929 . S
H1150 C1179 0.930 . S
H1151 C1156 0.930 . S
H1152 C1160 0.930 . S
O1153 Co1122 2.037 . S
O1153 C1173 1.234 . S
C1154 O1128 1.269 . S
C1154 O1129 1.257 . S
C1155 H1130 0.930 . S
C1155 C1158 1.388 . S
C1155 C1160 1.418 . S
C1156 H1151 0.930 . S
C1156 C1159 1.404 . S
C1156 C1160 1.353 . S
N1157 Co1122 2.145 . S
N1157 C1158 1.397 . S
N1157 C1159 1.334 . S
C1158 H1139 0.929 . S
C1158 C1155 1.388 . S
C1158 N1157 1.397 . S
C1159 H1140 0.929 . S
C1159 C1156 1.404 . S
C1159 N1157 1.334 . S
C1160 H1152 0.930 . S
C1160 C1155 1.418 . S
C1160 C1156 1.353 . S
C1161 H1131 0.930 . S
C1161 N1162 1.330 . S
C1161 C1163 1.467 . S
N1162 Co1121 2.151 . S
N1162 C1161 1.330 . S
N1162 C1166 1.418 1_455 S
C1163 H1142 0.929 . S
C1163 C1161 1.467 . S
C1163 C1164 1.311 1_455 S
C1164 H1144 0.931 . S
C1164 C1163 1.311 1_655 S
C1164 C1165 1.267 . S
C1165 H1133 0.929 . S
C1165 C1164 1.267 . S
C1165 C1166 1.251 . S
C1166 H1136 0.929 . S
C1166 N1162 1.418 1_655 S
C1166 C1165 1.251 . S
C1167 H1134 0.930 . S
C1167 C1169 1.406 . S
C1167 C1172 1.261 . S
C1168 H1135 0.930 . S
C1168 N1170 1.325 . S
C1168 C1171 1.357 . S
C1169 H1137 0.928 . S
C1169 C1167 1.406 . S
C1169 N1170 1.261 . S
N1170 Co1121 2.214 . S
N1170 C1168 1.325 . S
N1170 C1169 1.261 . S
C1171 H1141 0.931 . S
C1171 C1168 1.357 . S
C1171 C1172 1.312 . S
C1172 H1143 0.930 . S
C1172 C1167 1.261 . S
C1172 C1171 1.312 . S
C1173 O1145 1.214 . S
C1173 O1153 1.234 . S
C1174 H1146 0.929 . S
C1174 C1177 1.391 . S
C1174 C1179 1.391 . S
C1175 H1147 0.929 . S
C1175 C1176 1.390 . S
C1175 N1178 1.391 . S
C1176 H1148 0.930 . S
C1176 C1175 1.390 . S
C1176 C1177 1.392 . S
C1177 H1149 0.929 . S
C1177 C1174 1.391 . S
C1177 C1176 1.392 . S
N1178 Co1122 2.257 . S
N1178 C1175 1.391 . S
N1178 C1179 1.388 . S
C1179 H1150 0.930 . S
C1179 C1174 1.391 . S
C1179 N1178 1.388 . S
Co1180 O1182 2.143 . S
Co1180 O1188 2.074 . S
Co1180 O1191 2.093 . S
Co1180 O1204 2.097 . S
Co1180 N1221 2.151 . S
Co1180 N1229 2.214 . S
Co1181 O1182 2.160 . S
Co1181 O1187 2.058 . S
Co1181 O1197 2.057 . S
Co1181 O1212 2.037 . S
Co1181 N1216 2.145 . S
Co1181 N1237 2.257 . S
O1182 Co1180 2.143 . S
O1182 Co1181 2.160 . S
C1183 O1184 1.278 . S
C1183 O1191 1.224 . S
O1184 C1183 1.278 . S
C1185 O1186 1.245 . S
C1185 O1197 1.232 . S
O1186 C1185 1.245 . S
O1187 Co1181 2.058 . S
O1187 C1213 1.269 . S
O1188 Co1180 2.074 . S
O1188 C1213 1.257 . S
H1189 C1214 0.930 . S
H1190 C1220 0.930 . S
O1191 Co1180 2.093 . S
O1191 C1183 1.224 . S
H1192 C1224 0.929 . S
H1193 C1226 0.930 . S
H1194 C1227 0.930 . S
H1195 C1225 0.929 . S
H1196 C1228 0.928 . S
O1197 Co1181 2.057 . S
O1197 C1185 1.232 . S
H1198 C1217 0.929 . S
H1199 C1218 0.929 . S
H1200 C1230 0.931 . S
H1201 C1222 0.929 . S
H1202 C1231 0.930 . S
H1203 C1223 0.931 . S
O1204 Co1180 2.097 . S
O1204 C1232 1.214 . S
H1205 C1233 0.929 . S
H1206 C1234 0.929 . S
H1207 C1235 0.930 . S
H1208 C1236 0.929 . S
H1209 C1238 0.930 . S
H1210 C1215 0.930 . S
H1211 C1219 0.930 . S
O1212 Co1181 2.037 . S
O1212 C1232 1.234 . S
C1213 O1187 1.269 . S
C1213 O1188 1.257 . S
C1214 H1189 0.930 . S
C1214 C1217 1.388 . S
C1214 C1219 1.418 . S
C1215 H1210 0.930 . S
C1215 C1218 1.404 . S
C1215 C1219 1.353 . S
N1216 Co1181 2.145 . S
N1216 C1217 1.397 . S
N1216 C1218 1.334 . S
C1217 H1198 0.929 . S
C1217 C1214 1.388 . S
C1217 N1216 1.397 . S
C1218 H1199 0.929 . S
C1218 C1215 1.404 . S
C1218 N1216 1.334 . S
C1219 H1211 0.930 . S
C1219 C1214 1.418 . S
C1219 C1215 1.353 . S
C1220 H1190 0.930 . S
C1220 N1221 1.330 . S
C1220 C1222 1.446 . S
N1221 Co1180 2.151 . S
N1221 C1220 1.330 . S
N1221 C1225 1.418 . S
C1222 H1201 0.929 . S
C1222 C1220 1.446 . S
C1222 C1223 1.332 . S
C1223 H1203 0.931 . S
C1223 C1222 1.332 . S
C1223 C1224 1.267 . S
C1224 H1192 0.929 . S
C1224 C1223 1.267 . S
C1224 C1225 1.251 . S
C1225 H1195 0.929 . S
C1225 N1221 1.418 . S
C1225 C1224 1.251 . S
C1226 H1193 0.930 . S
C1226 C1228 1.406 . S
C1226 C1231 1.261 . S
C1227 H1194 0.930 . S
C1227 N1229 1.325 . S
C1227 C1230 1.357 . S
C1228 H1196 0.928 . S
C1228 C1226 1.406 . S
C1228 N1229 1.261 . S
N1229 Co1180 2.214 . S
N1229 C1227 1.325 . S
N1229 C1228 1.261 . S
C1230 H1200 0.931 . S
C1230 C1227 1.357 . S
C1230 C1231 1.312 . S
C1231 H1202 0.930 . S
C1231 C1226 1.261 . S
C1231 C1230 1.312 . S
C1232 O1204 1.214 . S
C1232 O1212 1.234 . S
C1233 H1205 0.929 . S
C1233 C1236 1.391 . S
C1233 C1238 1.391 . S
C1234 H1206 0.929 . S
C1234 C1235 1.390 . S
C1234 N1237 1.391 . S
C1235 H1207 0.930 . S
C1235 C1234 1.390 . S
C1235 C1236 1.392 . S
C1236 H1208 0.929 . S
C1236 C1233 1.391 . S
C1236 C1235 1.392 . S
N1237 Co1181 2.257 . S
N1237 C1234 1.391 . S
N1237 C1238 1.388 . S
C1238 H1209 0.930 . S
C1238 C1233 1.391 . S
C1238 N1237 1.388 . S
Co1239 O1241 2.143 . S
Co1239 O1247 2.074 . S
Co1239 O1250 2.093 1_556 S
Co1239 O1263 2.097 . S
Co1239 N1280 2.151 1_556 S
Co1239 N1288 2.214 . S
Co1240 O1241 2.160 . S
Co1240 O1246 2.058 . S
Co1240 O1256 2.057 . S
Co1240 O1271 2.037 . S
Co1240 N1275 2.145 . S
Co1240 N1296 2.257 . S
O1241 Co1239 2.143 . S
O1241 Co1240 2.160 . S
C1242 O1243 1.278 . S
C1242 O1250 1.224 . S
O1243 C1242 1.278 . S
C1244 O1245 1.245 . S
C1244 O1256 1.232 . S
O1245 C1244 1.245 . S
O1246 Co1240 2.058 . S
O1246 C1272 1.269 . S
O1247 Co1239 2.074 . S
O1247 C1272 1.257 . S
H1248 C1273 0.930 . S
H1249 C1279 0.930 . S
O1250 Co1239 2.093 1_554 S
O1250 C1242 1.224 . S
H1251 C1283 0.929 . S
H1252 C1285 0.930 1_554 S
H1253 C1286 0.930 . S
H1254 C1284 0.929 1_556 S
H1255 C1287 0.940 . S
O1256 Co1240 2.057 . S
O1256 C1244 1.232 . S
H1257 C1276 0.929 . S
H1258 C1277 0.929 . S
H1259 C1289 0.931 . S
H1260 C1281 0.929 . S
H1261 C1290 0.930 . S
H1262 C1282 0.931 . S
O1263 Co1239 2.097 . S
O1263 C1291 1.214 . S
H1264 C1292 0.929 . S
H1265 C1293 0.929 . S
H1266 C1294 0.930 . S
H1267 C1295 0.929 . S
H1268 C1297 0.930 . S
H1269 C1274 0.930 . S
H1270 C1278 0.930 . S
O1271 Co1240 2.037 . S
O1271 C1291 1.234 . S
C1272 O1246 1.269 . S
C1272 O1247 1.257 . S
C1273 H1248 0.930 . S
C1273 C1276 1.388 . S
C1273 C1278 1.418 . S
C1274 H1269 0.930 . S
C1274 C1277 1.404 . S
C1274 C1278 1.353 . S
N1275 Co1240 2.145 . S
N1275 C1276 1.397 . S
N1275 C1277 1.334 . S
C1276 H1257 0.929 . S
C1276 C1273 1.388 . S
C1276 N1275 1.397 . S
C1277 H1258 0.929 . S
C1277 C1274 1.404 . S
C1277 N1275 1.334 . S
C1278 H1270 0.930 . S
C1278 C1273 1.418 . S
C1278 C1274 1.353 . S
C1279 H1249 0.930 . S
C1279 N1280 1.330 . S
C1279 C1281 1.467 . S
N1280 Co1239 2.151 1_554 S
N1280 C1279 1.330 . S
N1280 C1284 1.418 1_455 S
C1281 H1260 0.929 . S
C1281 C1279 1.467 . S
C1281 C1282 1.310 1_455 S
C1282 H1262 0.931 . S
C1282 C1281 1.310 1_655 S
C1282 C1283 1.267 . S
C1283 H1251 0.929 . S
C1283 C1282 1.267 . S
C1283 C1284 1.251 . S
C1284 H1254 0.929 1_554 S
C1284 N1280 1.418 1_655 S
C1284 C1283 1.251 . S
C1285 H1252 0.930 1_556 S
C1285 C1287 1.404 1_556 S
C1285 C1290 1.261 . S
C1286 H1253 0.930 . S
C1286 N1288 1.325 . S
C1286 C1289 1.357 . S
C1287 H1255 0.940 . S
C1287 C1285 1.404 1_554 S
C1287 N1288 1.251 1_554 S
N1288 Co1239 2.214 . S
N1288 C1286 1.325 . S
N1288 C1287 1.251 1_556 S
C1289 H1259 0.931 . S
C1289 C1286 1.357 . S
C1289 C1290 1.312 . S
C1290 H1261 0.930 . S
C1290 C1285 1.261 . S
C1290 C1289 1.312 . S
C1291 O1263 1.214 . S
C1291 O1271 1.234 . S
C1292 H1264 0.929 . S
C1292 C1295 1.391 . S
C1292 C1297 1.391 . S
C1293 H1265 0.929 . S
C1293 C1294 1.390 . S
C1293 N1296 1.391 . S
C1294 H1266 0.930 . S
C1294 C1293 1.390 . S
C1294 C1295 1.392 . S
C1295 H1267 0.929 . S
C1295 C1292 1.391 . S
C1295 C1294 1.392 . S
N1296 Co1240 2.257 . S
N1296 C1293 1.391 . S
N1296 C1297 1.388 . S
C1297 H1268 0.930 . S
C1297 C1292 1.391 . S
C1297 N1296 1.388 . S
Co1298 O1300 2.143 . S
Co1298 O1306 2.074 . S
Co1298 O1309 2.093 . S
Co1298 O1322 2.097 . S
Co1298 N1339 2.151 . S
Co1298 N1347 2.214 . S
Co1299 O1300 2.160 . S
Co1299 O1305 2.058 . S
Co1299 O1315 2.057 . S
Co1299 O1330 2.037 . S
Co1299 N1334 2.145 . S
Co1299 N1355 2.257 . S
O1300 Co1298 2.143 . S
O1300 Co1299 2.160 . S
C1301 O1302 1.278 . S
C1301 O1309 1.224 . S
O1302 C1301 1.278 . S
C1303 O1304 1.245 . S
C1303 O1315 1.232 . S
O1304 C1303 1.245 . S
O1305 Co1299 2.058 . S
O1305 C1331 1.269 . S
O1306 Co1298 2.074 . S
O1306 C1331 1.257 . S
H1307 C1332 0.930 . S
H1308 C1338 0.930 . S
O1309 Co1298 2.093 . S
O1309 C1301 1.224 . S
H1310 C1342 0.929 . S
H1311 C1344 0.930 . S
H1312 C1345 0.930 . S
H1313 C1343 0.929 . S
H1314 C1346 0.928 . S
O1315 Co1299 2.057 . S
O1315 C1303 1.232 . S
H1316 C1335 0.929 . S
H1317 C1336 0.929 . S
H1318 C1348 0.931 . S
H1319 C1340 0.929 . S
H1320 C1349 0.930 . S
H1321 C1341 0.931 . S
O1322 Co1298 2.097 . S
O1322 C1350 1.214 . S
H1323 C1351 0.929 . S
H1324 C1352 0.929 . S
H1325 C1353 0.930 . S
H1326 C1354 0.929 . S
H1327 C1356 0.930 . S
H1328 C1333 0.930 . S
H1329 C1337 0.930 . S
O1330 Co1299 2.037 . S
O1330 C1350 1.234 . S
C1331 O1305 1.269 . S
C1331 O1306 1.257 . S
C1332 H1307 0.930 . S
C1332 C1335 1.388 . S
C1332 C1337 1.418 . S
C1333 H1328 0.930 . S
C1333 C1336 1.404 . S
C1333 C1337 1.353 . S
N1334 Co1299 2.145 . S
N1334 C1335 1.397 . S
N1334 C1336 1.334 . S
C1335 H1316 0.929 . S
C1335 C1332 1.388 . S
C1335 N1334 1.397 . S
C1336 H1317 0.929 . S
C1336 C1333 1.404 . S
C1336 N1334 1.334 . S
C1337 H1329 0.930 . S
C1337 C1332 1.418 . S
C1337 C1333 1.353 . S
C1338 H1308 0.930 . S
C1338 N1339 1.330 . S
C1338 C1340 1.446 . S
N1339 Co1298 2.151 . S
N1339 C1338 1.330 . S
N1339 C1343 1.418 . S
C1340 H1319 0.929 . S
C1340 C1338 1.446 . S
C1340 C1341 1.332 . S
C1341 H1321 0.931 . S
C1341 C1340 1.332 . S
C1341 C1342 1.267 . S
C1342 H1310 0.929 . S
C1342 C1341 1.267 . S
C1342 C1343 1.251 . S
C1343 H1313 0.929 . S
C1343 N1339 1.418 . S
C1343 C1342 1.251 . S
C1344 H1311 0.930 . S
C1344 C1346 1.406 . S
C1344 C1349 1.261 . S
C1345 H1312 0.930 . S
C1345 N1347 1.325 . S
C1345 C1348 1.357 . S
C1346 H1314 0.928 . S
C1346 C1344 1.406 . S
C1346 N1347 1.261 . S
N1347 Co1298 2.214 . S
N1347 C1345 1.325 . S
N1347 C1346 1.261 . S
C1348 H1318 0.931 . S
C1348 C1345 1.357 . S
C1348 C1349 1.312 . S
C1349 H1320 0.930 . S
C1349 C1344 1.261 . S
C1349 C1348 1.312 . S
C1350 O1322 1.214 . S
C1350 O1330 1.234 . S
C1351 H1323 0.929 . S
C1351 C1354 1.391 . S
C1351 C1356 1.391 . S
C1352 H1324 0.929 . S
C1352 C1353 1.390 . S
C1352 N1355 1.391 . S
C1353 H1325 0.930 . S
C1353 C1352 1.390 . S
C1353 C1354 1.392 . S
C1354 H1326 0.929 . S
C1354 C1351 1.391 . S
C1354 C1353 1.392 . S
N1355 Co1299 2.257 . S
N1355 C1352 1.391 . S
N1355 C1356 1.388 . S
C1356 H1327 0.930 . S
C1356 C1351 1.391 . S
C1356 N1355 1.388 . S
Co1357 O1359 2.143 . S
Co1357 O1365 2.074 . S
Co1357 O1368 2.093 . S
Co1357 O1381 2.097 . S
Co1357 N1398 2.151 . S
Co1357 N1406 2.214 . S
Co1358 O1359 2.160 . S
Co1358 O1364 2.058 . S
Co1358 O1374 2.057 . S
Co1358 O1389 2.037 . S
Co1358 N1393 2.145 . S
Co1358 N1414 2.257 . S
O1359 Co1357 2.143 . S
O1359 Co1358 2.160 . S
C1360 O1361 1.278 . S
C1360 O1368 1.224 . S
O1361 C1360 1.278 . S
C1362 O1363 1.245 . S
C1362 O1374 1.232 . S
O1363 C1362 1.245 . S
O1364 Co1358 2.058 . S
O1364 C1390 1.269 . S
O1365 Co1357 2.074 . S
O1365 C1390 1.257 . S
H1366 C1391 0.930 . S
H1367 C1397 0.930 . S
O1368 Co1357 2.093 . S
O1368 C1360 1.224 . S
H1369 C1401 0.929 . S
H1370 C1403 0.930 . S
H1371 C1404 0.930 . S
H1372 C1402 0.929 . S
H1373 C1405 0.928 . S
O1374 Co1358 2.057 . S
O1374 C1362 1.232 . S
H1375 C1394 0.929 . S
H1376 C1395 0.929 . S
H1377 C1407 0.931 . S
H1378 C1399 0.929 . S
H1379 C1408 0.930 . S
H1380 C1400 0.931 . S
O1381 Co1357 2.097 . S
O1381 C1409 1.214 . S
H1382 C1410 0.929 . S
H1383 C1411 0.929 . S
H1384 C1412 0.930 . S
H1385 C1413 0.929 . S
H1386 C1415 0.930 . S
H1387 C1392 0.930 . S
H1388 C1396 0.930 . S
O1389 Co1358 2.037 . S
O1389 C1409 1.234 . S
C1390 O1364 1.269 . S
C1390 O1365 1.257 . S
C1391 H1366 0.930 . S
C1391 C1394 1.388 . S
C1391 C1396 1.418 . S
C1392 H1387 0.930 . S
C1392 C1395 1.404 . S
C1392 C1396 1.353 . S
N1393 Co1358 2.145 . S
N1393 C1394 1.397 . S
N1393 C1395 1.334 . S
C1394 H1375 0.929 . S
C1394 C1391 1.388 . S
C1394 N1393 1.397 . S
C1395 H1376 0.929 . S
C1395 C1392 1.404 . S
C1395 N1393 1.334 . S
C1396 H1388 0.930 . S
C1396 C1391 1.418 . S
C1396 C1392 1.353 . S
C1397 H1367 0.930 . S
C1397 N1398 1.330 . S
C1397 C1399 1.446 . S
N1398 Co1357 2.151 . S
N1398 C1397 1.330 . S
N1398 C1402 1.418 . S
C1399 H1378 0.929 . S
C1399 C1397 1.446 . S
C1399 C1400 1.332 . S
C1400 H1380 0.931 . S
C1400 C1399 1.332 . S
C1400 C1401 1.267 . S
C1401 H1369 0.929 . S
C1401 C1400 1.267 . S
C1401 C1402 1.251 . S
C1402 H1372 0.929 . S
C1402 N1398 1.418 . S
C1402 C1401 1.251 . S
C1403 H1370 0.930 . S
C1403 C1405 1.406 . S
C1403 C1408 1.261 . S
C1404 H1371 0.930 . S
C1404 N1406 1.325 . S
C1404 C1407 1.357 . S
C1405 H1373 0.928 . S
C1405 C1403 1.406 . S
C1405 N1406 1.261 . S
N1406 Co1357 2.214 . S
N1406 C1404 1.325 . S
N1406 C1405 1.261 . S
C1407 H1377 0.931 . S
C1407 C1404 1.357 . S
C1407 C1408 1.312 . S
C1408 H1379 0.930 . S
C1408 C1403 1.261 . S
C1408 C1407 1.312 . S
C1409 O1381 1.214 . S
C1409 O1389 1.234 . S
C1410 H1382 0.929 . S
C1410 C1413 1.391 . S
C1410 C1415 1.391 . S
C1411 H1383 0.929 . S
C1411 C1412 1.390 . S
C1411 N1414 1.391 . S
C1412 H1384 0.930 . S
C1412 C1411 1.390 . S
C1412 C1413 1.392 . S
C1413 H1385 0.929 . S
C1413 C1410 1.391 . S
C1413 C1412 1.392 . S
N1414 Co1358 2.257 . S
N1414 C1411 1.391 . S
N1414 C1415 1.388 . S
C1415 H1386 0.930 . S
C1415 C1410 1.391 . S
C1415 N1414 1.388 . S
Co1416 O1418 2.143 . S
Co1416 O1424 2.074 . S
Co1416 O1427 2.093 . S
Co1416 O1440 2.097 . S
Co1416 N1457 2.151 . S
Co1416 N1465 2.214 . S
Co1417 O1418 2.160 . S
Co1417 O1423 2.058 . S
Co1417 O1433 2.057 . S
Co1417 O1448 2.037 . S
Co1417 N1452 2.145 . S
Co1417 N1473 2.257 . S
O1418 Co1416 2.143 . S
O1418 Co1417 2.160 . S
C1419 O1420 1.278 . S
C1419 O1427 1.224 . S
O1420 C1419 1.278 . S
C1421 O1422 1.245 . S
C1421 O1433 1.232 . S
O1422 C1421 1.245 . S
O1423 Co1417 2.058 . S
O1423 C1449 1.269 . S
O1424 Co1416 2.074 . S
O1424 C1449 1.257 . S
H1425 C1450 0.930 . S
H1426 C1456 0.930 . S
O1427 Co1416 2.093 . S
O1427 C1419 1.224 . S
H1428 C1460 0.929 . S
H1429 C1462 0.930 . S
H1430 C1463 0.930 . S
H1431 C1461 0.929 . S
H1432 C1464 0.928 . S
O1433 Co1417 2.057 . S
O1433 C1421 1.232 . S
H1434 C1453 0.929 . S
H1435 C1454 0.929 . S
H1436 C1466 0.931 . S
H1437 C1458 0.929 . S
H1438 C1467 0.930 . S
H1439 C1459 0.931 . S
O1440 Co1416 2.097 . S
O1440 C1468 1.214 . S
H1441 C1469 0.929 . S
H1442 C1470 0.929 . S
H1443 C1471 0.930 . S
H1444 C1472 0.929 . S
H1445 C1474 0.930 . S
H1446 C1451 0.930 . S
H1447 C1455 0.930 . S
O1448 Co1417 2.037 . S
O1448 C1468 1.234 . S
C1449 O1423 1.269 . S
C1449 O1424 1.257 . S
C1450 H1425 0.930 . S
C1450 C1453 1.388 . S
C1450 C1455 1.418 . S
C1451 H1446 0.930 . S
C1451 C1454 1.404 . S
C1451 C1455 1.353 . S
N1452 Co1417 2.145 . S
N1452 C1453 1.397 . S
N1452 C1454 1.334 . S
C1453 H1434 0.929 . S
C1453 C1450 1.388 . S
C1453 N1452 1.397 . S
C1454 H1435 0.929 . S
C1454 C1451 1.404 . S
C1454 N1452 1.334 . S
C1455 H1447 0.930 . S
C1455 C1450 1.418 . S
C1455 C1451 1.353 . S
C1456 H1426 0.930 . S
C1456 N1457 1.330 . S
C1456 C1458 1.446 . S
N1457 Co1416 2.151 . S
N1457 C1456 1.330 . S
N1457 C1461 1.418 . S
C1458 H1437 0.929 . S
C1458 C1456 1.446 . S
C1458 C1459 1.332 . S
C1459 H1439 0.931 . S
C1459 C1458 1.332 . S
C1459 C1460 1.267 . S
C1460 H1428 0.929 . S
C1460 C1459 1.267 . S
C1460 C1461 1.251 . S
C1461 H1431 0.929 . S
C1461 N1457 1.418 . S
C1461 C1460 1.251 . S
C1462 H1429 0.930 . S
C1462 C1464 1.406 . S
C1462 C1467 1.261 . S
C1463 H1430 0.930 . S
C1463 N1465 1.325 . S
C1463 C1466 1.357 . S
C1464 H1432 0.928 . S
C1464 C1462 1.406 . S
C1464 N1465 1.261 . S
N1465 Co1416 2.214 . S
N1465 C1463 1.325 . S
N1465 C1464 1.261 . S
C1466 H1436 0.931 . S
C1466 C1463 1.357 . S
C1466 C1467 1.312 . S
C1467 H1438 0.930 . S
C1467 C1462 1.261 . S
C1467 C1466 1.312 . S
C1468 O1440 1.214 . S
C1468 O1448 1.234 . S
C1469 H1441 0.929 . S
C1469 C1472 1.391 . S
C1469 C1474 1.391 . S
C1470 H1442 0.929 . S
C1470 C1471 1.390 . S
C1470 N1473 1.391 . S
C1471 H1443 0.930 . S
C1471 C1470 1.390 . S
C1471 C1472 1.392 . S
C1472 H1444 0.929 . S
C1472 C1469 1.391 . S
C1472 C1471 1.392 . S
N1473 Co1417 2.257 . S
N1473 C1470 1.391 . S
N1473 C1474 1.388 . S
C1474 H1445 0.930 . S
C1474 C1469 1.391 . S
C1474 N1473 1.388 . S
Co1475 O1477 2.143 . S
Co1475 O1483 2.074 . S
Co1475 O1486 2.093 1_556 S
Co1475 O1499 2.097 . S
Co1475 N1516 2.151 1_556 S
Co1475 N1524 2.214 . S
Co1476 O1477 2.160 . S
Co1476 O1482 2.058 . S
Co1476 O1492 2.057 . S
Co1476 O1507 2.037 . S
Co1476 N1511 2.145 . S
Co1476 N1532 2.257 . S
O1477 Co1475 2.143 . S
O1477 Co1476 2.160 . S
C1478 O1479 1.278 . S
C1478 O1486 1.224 . S
O1479 C1478 1.278 . S
C1480 O1481 1.245 . S
C1480 O1492 1.232 . S
O1481 C1480 1.245 . S
O1482 Co1476 2.058 . S
O1482 C1508 1.269 . S
O1483 Co1475 2.074 . S
O1483 C1508 1.257 . S
H1484 C1509 0.930 . S
H1485 C1515 0.930 . S
O1486 Co1475 2.093 1_554 S
O1486 C1478 1.224 . S
H1487 C1519 0.929 . S
H1488 C1521 0.930 1_554 S
H1489 C1522 0.930 . S
H1490 C1520 0.929 1_556 S
H1491 C1523 0.940 . S
O1492 Co1476 2.057 . S
O1492 C1480 1.232 . S
H1493 C1512 0.929 . S
H1494 C1513 0.929 . S
H1495 C1525 0.931 . S
H1496 C1517 0.929 . S
H1497 C1526 0.930 . S
H1498 C1518 0.931 . S
O1499 Co1475 2.097 . S
O1499 C1527 1.214 . S
H1500 C1528 0.929 . S
H1501 C1529 0.929 . S
H1502 C1530 0.930 . S
H1503 C1531 0.929 . S
H1504 C1533 0.930 . S
H1505 C1510 0.930 . S
H1506 C1514 0.930 . S
O1507 Co1476 2.037 . S
O1507 C1527 1.234 . S
C1508 O1482 1.269 . S
C1508 O1483 1.257 . S
C1509 H1484 0.930 . S
C1509 C1512 1.388 . S
C1509 C1514 1.418 . S
C1510 H1505 0.930 . S
C1510 C1513 1.404 . S
C1510 C1514 1.353 . S
N1511 Co1476 2.145 . S
N1511 C1512 1.397 . S
N1511 C1513 1.334 . S
C1512 H1493 0.929 . S
C1512 C1509 1.388 . S
C1512 N1511 1.397 . S
C1513 H1494 0.929 . S
C1513 C1510 1.404 . S
C1513 N1511 1.334 . S
C1514 H1506 0.930 . S
C1514 C1509 1.418 . S
C1514 C1510 1.353 . S
C1515 H1485 0.930 . S
C1515 N1516 1.330 . S
C1515 C1517 1.446 . S
N1516 Co1475 2.151 1_554 S
N1516 C1515 1.330 . S
N1516 C1520 1.418 . S
C1517 H1496 0.929 . S
C1517 C1515 1.446 . S
C1517 C1518 1.332 . S
C1518 H1498 0.931 . S
C1518 C1517 1.332 . S
C1518 C1519 1.267 . S
C1519 H1487 0.929 . S
C1519 C1518 1.267 . S
C1519 C1520 1.251 . S
C1520 H1490 0.929 1_554 S
C1520 N1516 1.418 . S
C1520 C1519 1.251 . S
C1521 H1488 0.930 1_556 S
C1521 C1523 1.404 1_556 S
C1521 C1526 1.261 . S
C1522 H1489 0.930 . S
C1522 N1524 1.325 . S
C1522 C1525 1.357 . S
C1523 H1491 0.940 . S
C1523 C1521 1.404 1_554 S
C1523 N1524 1.251 1_554 S
N1524 Co1475 2.214 . S
N1524 C1522 1.325 . S
N1524 C1523 1.251 1_556 S
C1525 H1495 0.931 . S
C1525 C1522 1.357 . S
C1525 C1526 1.312 . S
C1526 H1497 0.930 . S
C1526 C1521 1.261 . S
C1526 C1525 1.312 . S
C1527 O1499 1.214 . S
C1527 O1507 1.234 . S
C1528 H1500 0.929 . S
C1528 C1531 1.391 . S
C1528 C1533 1.391 . S
C1529 H1501 0.929 . S
C1529 C1530 1.390 . S
C1529 N1532 1.391 . S
C1530 H1502 0.930 . S
C1530 C1529 1.390 . S
C1530 C1531 1.392 . S
C1531 H1503 0.929 . S
C1531 C1528 1.391 . S
C1531 C1530 1.392 . S
N1532 Co1476 2.257 . S
N1532 C1529 1.391 . S
N1532 C1533 1.388 . S
C1533 H1504 0.930 . S
C1533 C1528 1.391 . S
C1533 N1532 1.388 . S
Co1534 O1536 2.143 . S
Co1534 O1542 2.074 . S
Co1534 O1545 2.093 . S
Co1534 O1558 2.097 . S
Co1534 N1575 2.151 . S
Co1534 N1583 2.214 . S
Co1535 O1536 2.160 . S
Co1535 O1541 2.058 . S
Co1535 O1551 2.057 . S
Co1535 O1566 2.037 . S
Co1535 N1570 2.145 . S
Co1535 N1591 2.257 . S
O1536 Co1534 2.143 . S
O1536 Co1535 2.160 . S
C1537 O1538 1.278 . S
C1537 O1545 1.224 . S
O1538 C1537 1.278 . S
C1539 O1540 1.245 . S
C1539 O1551 1.232 . S
O1540 C1539 1.245 . S
O1541 Co1535 2.058 . S
O1541 C1567 1.269 . S
O1542 Co1534 2.074 . S
O1542 C1567 1.257 . S
H1543 C1568 0.930 . S
H1544 C1574 0.930 . S
O1545 Co1534 2.093 . S
O1545 C1537 1.224 . S
H1546 C1578 0.929 . S
H1547 C1580 0.930 . S
H1548 C1581 0.930 . S
H1549 C1579 0.929 . S
H1550 C1582 0.928 . S
O1551 Co1535 2.057 . S
O1551 C1539 1.232 . S
H1552 C1571 0.929 . S
H1553 C1572 0.929 . S
H1554 C1584 0.931 . S
H1555 C1576 0.929 . S
H1556 C1585 0.930 . S
H1557 C1577 0.931 . S
O1558 Co1534 2.097 . S
O1558 C1586 1.214 . S
H1559 C1587 0.929 . S
H1560 C1588 0.929 . S
H1561 C1589 0.930 . S
H1562 C1590 0.929 . S
H1563 C1592 0.930 . S
H1564 C1569 0.930 . S
H1565 C1573 0.930 . S
O1566 Co1535 2.037 . S
O1566 C1586 1.234 . S
C1567 O1541 1.269 . S
C1567 O1542 1.257 . S
C1568 H1543 0.930 . S
C1568 C1571 1.388 . S
C1568 C1573 1.418 . S
C1569 H1564 0.930 . S
C1569 C1572 1.404 . S
C1569 C1573 1.353 . S
N1570 Co1535 2.145 . S
N1570 C1571 1.397 . S
N1570 C1572 1.334 . S
C1571 H1552 0.929 . S
C1571 C1568 1.388 . S
C1571 N1570 1.397 . S
C1572 H1553 0.929 . S
C1572 C1569 1.404 . S
C1572 N1570 1.334 . S
C1573 H1565 0.930 . S
C1573 C1568 1.418 . S
C1573 C1569 1.353 . S
C1574 H1544 0.930 . S
C1574 N1575 1.330 . S
C1574 C1576 1.446 . S
N1575 Co1534 2.151 . S
N1575 C1574 1.330 . S
N1575 C1579 1.418 . S
C1576 H1555 0.929 . S
C1576 C1574 1.446 . S
C1576 C1577 1.332 . S
C1577 H1557 0.931 . S
C1577 C1576 1.332 . S
C1577 C1578 1.267 . S
C1578 H1546 0.929 . S
C1578 C1577 1.267 . S
C1578 C1579 1.251 . S
C1579 H1549 0.929 . S
C1579 N1575 1.418 . S
C1579 C1578 1.251 . S
C1580 H1547 0.930 . S
C1580 C1582 1.406 . S
C1580 C1585 1.261 . S
C1581 H1548 0.930 . S
C1581 N1583 1.325 . S
C1581 C1584 1.357 . S
C1582 H1550 0.928 . S
C1582 C1580 1.406 . S
C1582 N1583 1.261 . S
N1583 Co1534 2.214 . S
N1583 C1581 1.325 . S
N1583 C1582 1.261 . S
C1584 H1554 0.931 . S
C1584 C1581 1.357 . S
C1584 C1585 1.312 . S
C1585 H1556 0.930 . S
C1585 C1580 1.261 . S
C1585 C1584 1.312 . S
C1586 O1558 1.214 . S
C1586 O1566 1.234 . S
C1587 H1559 0.929 . S
C1587 C1590 1.391 . S
C1587 C1592 1.391 . S
C1588 H1560 0.929 . S
C1588 C1589 1.390 . S
C1588 N1591 1.391 . S
C1589 H1561 0.930 . S
C1589 C1588 1.390 . S
C1589 C1590 1.392 . S
C1590 H1562 0.929 . S
C1590 C1587 1.391 . S
C1590 C1589 1.392 . S
N1591 Co1535 2.257 . S
N1591 C1588 1.391 . S
N1591 C1592 1.388 . S
C1592 H1563 0.930 . S
C1592 C1587 1.391 . S
C1592 N1591 1.388 . S
Co1593 O1595 2.143 . S
Co1593 O1601 2.074 . S
Co1593 O1604 2.093 . S
Co1593 O1617 2.097 . S
Co1593 N1634 2.151 . S
Co1593 N1642 2.214 . S
Co1594 O1595 2.160 . S
Co1594 O1600 2.058 . S
Co1594 O1610 2.057 . S
Co1594 O1625 2.037 . S
Co1594 N1629 2.145 . S
Co1594 N1650 2.257 . S
O1595 Co1593 2.143 . S
O1595 Co1594 2.160 . S
C1596 O1597 1.278 . S
C1596 O1604 1.224 . S
O1597 C1596 1.278 . S
C1598 O1599 1.245 . S
C1598 O1610 1.232 . S
O1599 C1598 1.245 . S
O1600 Co1594 2.058 . S
O1600 C1626 1.269 . S
O1601 Co1593 2.074 . S
O1601 C1626 1.257 . S
H1602 C1627 0.930 . S
H1603 C1633 0.930 . S
O1604 Co1593 2.093 . S
O1604 C1596 1.224 . S
H1605 C1637 0.929 . S
H1606 C1639 0.930 . S
H1607 C1640 0.930 . S
H1608 C1638 0.929 . S
H1609 C1641 0.928 . S
O1610 Co1594 2.057 . S
O1610 C1598 1.232 . S
H1611 C1630 0.929 . S
H1612 C1631 0.929 . S
H1613 C1643 0.931 . S
H1614 C1635 0.929 . S
H1615 C1644 0.930 . S
H1616 C1636 0.931 . S
O1617 Co1593 2.097 . S
O1617 C1645 1.214 . S
H1618 C1646 0.929 . S
H1619 C1647 0.929 . S
H1620 C1648 0.930 . S
H1621 C1649 0.929 . S
H1622 C1651 0.930 . S
H1623 C1628 0.930 . S
H1624 C1632 0.930 . S
O1625 Co1594 2.037 . S
O1625 C1645 1.234 . S
C1626 O1600 1.269 . S
C1626 O1601 1.257 . S
C1627 H1602 0.930 . S
C1627 C1630 1.388 . S
C1627 C1632 1.418 . S
C1628 H1623 0.930 . S
C1628 C1631 1.404 . S
C1628 C1632 1.353 . S
N1629 Co1594 2.145 . S
N1629 C1630 1.397 . S
N1629 C1631 1.334 . S
C1630 H1611 0.929 . S
C1630 C1627 1.388 . S
C1630 N1629 1.397 . S
C1631 H1612 0.929 . S
C1631 C1628 1.404 . S
C1631 N1629 1.334 . S
C1632 H1624 0.930 . S
C1632 C1627 1.418 . S
C1632 C1628 1.353 . S
C1633 H1603 0.930 . S
C1633 N1634 1.330 . S
C1633 C1635 1.467 . S
N1634 Co1593 2.151 . S
N1634 C1633 1.330 . S
N1634 C1638 1.418 1_655 S
C1635 H1614 0.929 . S
C1635 C1633 1.467 . S
C1635 C1636 1.311 1_655 S
C1636 H1616 0.931 . S
C1636 C1635 1.311 1_455 S
C1636 C1637 1.267 . S
C1637 H1605 0.929 . S
C1637 C1636 1.267 . S
C1637 C1638 1.251 . S
C1638 H1608 0.929 . S
C1638 N1634 1.418 1_455 S
C1638 C1637 1.251 . S
C1639 H1606 0.930 . S
C1639 C1641 1.406 . S
C1639 C1644 1.261 . S
C1640 H1607 0.930 . S
C1640 N1642 1.325 . S
C1640 C1643 1.357 . S
C1641 H1609 0.928 . S
C1641 C1639 1.406 . S
C1641 N1642 1.261 . S
N1642 Co1593 2.214 . S
N1642 C1640 1.325 . S
N1642 C1641 1.261 . S
C1643 H1613 0.931 . S
C1643 C1640 1.357 . S
C1643 C1644 1.312 . S
C1644 H1615 0.930 . S
C1644 C1639 1.261 . S
C1644 C1643 1.312 . S
C1645 O1617 1.214 . S
C1645 O1625 1.234 . S
C1646 H1618 0.929 . S
C1646 C1649 1.391 . S
C1646 C1651 1.391 . S
C1647 H1619 0.929 . S
C1647 C1648 1.390 . S
C1647 N1650 1.391 . S
C1648 H1620 0.930 . S
C1648 C1647 1.390 . S
C1648 C1649 1.392 . S
C1649 H1621 0.929 . S
C1649 C1646 1.391 . S
C1649 C1648 1.392 . S
N1650 Co1594 2.257 . S
N1650 C1647 1.391 . S
N1650 C1651 1.388 . S
C1651 H1622 0.930 . S
C1651 C1646 1.391 . S
C1651 N1650 1.388 . S
Co1652 O1654 2.143 . S
Co1652 O1660 2.074 . S
Co1652 O1663 2.093 . S
Co1652 O1676 2.097 . S
Co1652 N1693 2.151 . S
Co1652 N1701 2.214 . S
Co1653 O1654 2.160 . S
Co1653 O1659 2.058 . S
Co1653 O1669 2.057 . S
Co1653 O1684 2.037 . S
Co1653 N1688 2.145 . S
Co1653 N1709 2.257 . S
O1654 Co1652 2.143 . S
O1654 Co1653 2.160 . S
C1655 O1656 1.278 . S
C1655 O1663 1.224 . S
O1656 C1655 1.278 . S
C1657 O1658 1.245 . S
C1657 O1669 1.232 . S
O1658 C1657 1.245 . S
O1659 Co1653 2.058 . S
O1659 C1685 1.269 . S
O1660 Co1652 2.074 . S
O1660 C1685 1.257 . S
H1661 C1686 0.930 . S
H1662 C1692 0.930 . S
O1663 Co1652 2.093 . S
O1663 C1655 1.224 . S
H1664 C1696 0.929 . S
H1665 C1698 0.930 . S
H1666 C1699 0.930 . S
H1667 C1697 0.929 . S
H1668 C1700 0.928 . S
O1669 Co1653 2.057 . S
O1669 C1657 1.232 . S
H1670 C1689 0.929 . S
H1671 C1690 0.929 . S
H1672 C1702 0.931 . S
H1673 C1694 0.929 . S
H1674 C1703 0.930 . S
H1675 C1695 0.931 . S
O1676 Co1652 2.097 . S
O1676 C1704 1.214 . S
H1677 C1705 0.929 . S
H1678 C1706 0.929 . S
H1679 C1707 0.930 . S
H1680 C1708 0.929 . S
H1681 C1710 0.930 . S
H1682 C1687 0.930 . S
H1683 C1691 0.930 . S
O1684 Co1653 2.037 . S
O1684 C1704 1.234 . S
C1685 O1659 1.269 . S
C1685 O1660 1.257 . S
C1686 H1661 0.930 . S
C1686 C1689 1.388 . S
C1686 C1691 1.418 . S
C1687 H1682 0.930 . S
C1687 C1690 1.404 . S
C1687 C1691 1.353 . S
N1688 Co1653 2.145 . S
N1688 C1689 1.397 . S
N1688 C1690 1.334 . S
C1689 H1670 0.929 . S
C1689 C1686 1.388 . S
C1689 N1688 1.397 . S
C1690 H1671 0.929 . S
C1690 C1687 1.404 . S
C1690 N1688 1.334 . S
C1691 H1683 0.930 . S
C1691 C1686 1.418 . S
C1691 C1687 1.353 . S
C1692 H1662 0.930 . S
C1692 N1693 1.330 . S
C1692 C1694 1.446 . S
N1693 Co1652 2.151 . S
N1693 C1692 1.330 . S
N1693 C1697 1.418 . S
C1694 H1673 0.929 . S
C1694 C1692 1.446 . S
C1694 C1695 1.332 . S
C1695 H1675 0.931 . S
C1695 C1694 1.332 . S
C1695 C1696 1.267 . S
C1696 H1664 0.929 . S
C1696 C1695 1.267 . S
C1696 C1697 1.251 . S
C1697 H1667 0.929 . S
C1697 N1693 1.418 . S
C1697 C1696 1.251 . S
C1698 H1665 0.930 . S
C1698 C1700 1.406 . S
C1698 C1703 1.261 . S
C1699 H1666 0.930 . S
C1699 N1701 1.325 . S
C1699 C1702 1.357 . S
C1700 H1668 0.928 . S
C1700 C1698 1.406 . S
C1700 N1701 1.261 . S
N1701 Co1652 2.214 . S
N1701 C1699 1.325 . S
N1701 C1700 1.261 . S
C1702 H1672 0.931 . S
C1702 C1699 1.357 . S
C1702 C1703 1.312 . S
C1703 H1674 0.930 . S
C1703 C1698 1.261 . S
C1703 C1702 1.312 . S
C1704 O1676 1.214 . S
C1704 O1684 1.234 . S
C1705 H1677 0.929 . S
C1705 C1708 1.391 . S
C1705 C1710 1.391 . S
C1706 H1678 0.929 . S
C1706 C1707 1.390 . S
C1706 N1709 1.391 . S
C1707 H1679 0.930 . S
C1707 C1706 1.390 . S
C1707 C1708 1.392 . S
C1708 H1680 0.929 . S
C1708 C1705 1.391 . S
C1708 C1707 1.392 . S
N1709 Co1653 2.257 . S
N1709 C1706 1.391 . S
N1709 C1710 1.388 . S
C1710 H1681 0.930 . S
C1710 C1705 1.391 . S
C1710 N1709 1.388 . S
Co1711 O1713 2.143 . S
Co1711 O1719 2.074 . S
Co1711 O1722 2.093 1_554 S
Co1711 O1735 2.097 . S
Co1711 N1752 2.151 1_554 S
Co1711 N1760 2.214 . S
Co1712 O1713 2.160 . S
Co1712 O1718 2.058 . S
Co1712 O1728 2.057 . S
Co1712 O1743 2.037 . S
Co1712 N1747 2.145 . S
Co1712 N1768 2.257 . S
O1713 Co1711 2.143 . S
O1713 Co1712 2.160 . S
C1714 O1715 1.278 . S
C1714 O1722 1.224 . S
O1715 C1714 1.278 . S
C1716 O1717 1.245 . S
C1716 O1728 1.232 . S
O1717 C1716 1.245 . S
O1718 Co1712 2.058 . S
O1718 C1744 1.269 . S
O1719 Co1711 2.074 . S
O1719 C1744 1.257 . S
H1720 C1745 0.930 . S
H1721 C1751 0.930 . S
O1722 Co1711 2.093 1_556 S
O1722 C1714 1.224 . S
H1723 C1755 0.929 . S
H1724 C1757 0.930 1_556 S
H1725 C1758 0.930 . S
H1726 C1756 0.929 1_554 S
H1727 C1759 0.940 . S
O1728 Co1712 2.057 . S
O1728 C1716 1.232 . S
H1729 C1748 0.929 . S
H1730 C1749 0.929 . S
H1731 C1761 0.931 . S
H1732 C1753 0.929 . S
H1733 C1762 0.930 . S
H1734 C1754 0.931 . S
O1735 Co1711 2.097 . S
O1735 C1763 1.214 . S
H1736 C1764 0.929 . S
H1737 C1765 0.929 . S
H1738 C1766 0.930 . S
H1739 C1767 0.929 . S
H1740 C1769 0.930 . S
H1741 C1746 0.930 . S
H1742 C1750 0.930 . S
O1743 Co1712 2.037 . S
O1743 C1763 1.234 . S
C1744 O1718 1.269 . S
C1744 O1719 1.257 . S
C1745 H1720 0.930 . S
C1745 C1748 1.388 . S
C1745 C1750 1.418 . S
C1746 H1741 0.930 . S
C1746 C1749 1.404 . S
C1746 C1750 1.353 . S
N1747 Co1712 2.145 . S
N1747 C1748 1.397 . S
N1747 C1749 1.334 . S
C1748 H1729 0.929 . S
C1748 C1745 1.388 . S
C1748 N1747 1.397 . S
C1749 H1730 0.929 . S
C1749 C1746 1.404 . S
C1749 N1747 1.334 . S
C1750 H1742 0.930 . S
C1750 C1745 1.418 . S
C1750 C1746 1.353 . S
C1751 H1721 0.930 . S
C1751 N1752 1.330 . S
C1751 C1753 1.467 . S
N1752 Co1711 2.151 1_556 S
N1752 C1751 1.330 . S
N1752 C1756 1.418 1_655 S
C1753 H1732 0.929 . S
C1753 C1751 1.467 . S
C1753 C1754 1.310 1_655 S
C1754 H1734 0.931 . S
C1754 C1753 1.310 1_455 S
C1754 C1755 1.267 . S
C1755 H1723 0.929 . S
C1755 C1754 1.267 . S
C1755 C1756 1.251 . S
C1756 H1726 0.929 1_556 S
C1756 N1752 1.418 1_455 S
C1756 C1755 1.251 . S
C1757 H1724 0.930 1_554 S
C1757 C1759 1.404 1_554 S
C1757 C1762 1.261 . S
C1758 H1725 0.930 . S
C1758 N1760 1.325 . S
C1758 C1761 1.357 . S
C1759 H1727 0.940 . S
C1759 C1757 1.404 1_556 S
C1759 N1760 1.251 1_556 S
N1760 Co1711 2.214 . S
N1760 C1758 1.325 . S
N1760 C1759 1.251 1_554 S
C1761 H1731 0.931 . S
C1761 C1758 1.357 . S
C1761 C1762 1.312 . S
C1762 H1733 0.930 . S
C1762 C1757 1.261 . S
C1762 C1761 1.312 . S
C1763 O1735 1.214 . S
C1763 O1743 1.234 . S
C1764 H1736 0.929 . S
C1764 C1767 1.391 . S
C1764 C1769 1.391 . S
C1765 H1737 0.929 . S
C1765 C1766 1.390 . S
C1765 N1768 1.391 . S
C1766 H1738 0.930 . S
C1766 C1765 1.390 . S
C1766 C1767 1.392 . S
C1767 H1739 0.929 . S
C1767 C1764 1.391 . S
C1767 C1766 1.392 . S
N1768 Co1712 2.257 . S
N1768 C1765 1.391 . S
N1768 C1769 1.388 . S
C1769 H1740 0.930 . S
C1769 C1764 1.391 . S
C1769 N1768 1.388 . S
Co1770 O1772 2.143 . S
Co1770 O1778 2.074 . S
Co1770 O1781 2.093 . S
Co1770 O1794 2.097 . S
Co1770 N1811 2.151 . S
Co1770 N1819 2.214 . S
Co1771 O1772 2.160 . S
Co1771 O1777 2.058 . S
Co1771 O1787 2.057 . S
Co1771 O1802 2.037 . S
Co1771 N1806 2.145 . S
Co1771 N1827 2.257 . S
O1772 Co1770 2.143 . S
O1772 Co1771 2.160 . S
C1773 O1774 1.278 . S
C1773 O1781 1.224 . S
O1774 C1773 1.278 . S
C1775 O1776 1.245 . S
C1775 O1787 1.232 . S
O1776 C1775 1.245 . S
O1777 Co1771 2.058 . S
O1777 C1803 1.269 . S
O1778 Co1770 2.074 . S
O1778 C1803 1.257 . S
H1779 C1804 0.930 . S
H1780 C1810 0.930 . S
O1781 Co1770 2.093 . S
O1781 C1773 1.224 . S
H1782 C1814 0.929 . S
H1783 C1816 0.930 . S
H1784 C1817 0.930 . S
H1785 C1815 0.929 . S
H1786 C1818 0.928 . S
O1787 Co1771 2.057 . S
O1787 C1775 1.232 . S
H1788 C1807 0.929 . S
H1789 C1808 0.929 . S
H1790 C1820 0.931 . S
H1791 C1812 0.929 . S
H1792 C1821 0.930 . S
H1793 C1813 0.931 . S
O1794 Co1770 2.097 . S
O1794 C1822 1.214 . S
H1795 C1823 0.929 . S
H1796 C1824 0.929 . S
H1797 C1825 0.930 . S
H1798 C1826 0.929 . S
H1799 C1828 0.930 . S
H1800 C1805 0.930 . S
H1801 C1809 0.930 . S
O1802 Co1771 2.037 . S
O1802 C1822 1.234 . S
C1803 O1777 1.269 . S
C1803 O1778 1.257 . S
C1804 H1779 0.930 . S
C1804 C1807 1.388 . S
C1804 C1809 1.418 . S
C1805 H1800 0.930 . S
C1805 C1808 1.404 . S
C1805 C1809 1.353 . S
N1806 Co1771 2.145 . S
N1806 C1807 1.397 . S
N1806 C1808 1.334 . S
C1807 H1788 0.929 . S
C1807 C1804 1.388 . S
C1807 N1806 1.397 . S
C1808 H1789 0.929 . S
C1808 C1805 1.404 . S
C1808 N1806 1.334 . S
C1809 H1801 0.930 . S
C1809 C1804 1.418 . S
C1809 C1805 1.353 . S
C1810 H1780 0.930 . S
C1810 N1811 1.330 . S
C1810 C1812 1.446 . S
N1811 Co1770 2.151 . S
N1811 C1810 1.330 . S
N1811 C1815 1.418 . S
C1812 H1791 0.929 . S
C1812 C1810 1.446 . S
C1812 C1813 1.332 . S
C1813 H1793 0.931 . S
C1813 C1812 1.332 . S
C1813 C1814 1.267 . S
C1814 H1782 0.929 . S
C1814 C1813 1.267 . S
C1814 C1815 1.251 . S
C1815 H1785 0.929 . S
C1815 N1811 1.418 . S
C1815 C1814 1.251 . S
C1816 H1783 0.930 . S
C1816 C1818 1.406 . S
C1816 C1821 1.261 . S
C1817 H1784 0.930 . S
C1817 N1819 1.325 . S
C1817 C1820 1.357 . S
C1818 H1786 0.928 . S
C1818 C1816 1.406 . S
C1818 N1819 1.261 . S
N1819 Co1770 2.214 . S
N1819 C1817 1.325 . S
N1819 C1818 1.261 . S
C1820 H1790 0.931 . S
C1820 C1817 1.357 . S
C1820 C1821 1.312 . S
C1821 H1792 0.930 . S
C1821 C1816 1.261 . S
C1821 C1820 1.312 . S
C1822 O1794 1.214 . S
C1822 O1802 1.234 . S
C1823 H1795 0.929 . S
C1823 C1826 1.391 . S
C1823 C1828 1.391 . S
C1824 H1796 0.929 . S
C1824 C1825 1.390 . S
C1824 N1827 1.391 . S
C1825 H1797 0.930 . S
C1825 C1824 1.390 . S
C1825 C1826 1.392 . S
C1826 H1798 0.929 . S
C1826 C1823 1.391 . S
C1826 C1825 1.392 . S
N1827 Co1771 2.257 . S
N1827 C1824 1.391 . S
N1827 C1828 1.388 . S
C1828 H1799 0.930 . S
C1828 C1823 1.391 . S
C1828 N1827 1.388 . S
Co1829 O1831 2.143 . S
Co1829 O1837 2.074 . S
Co1829 O1840 2.093 . S
Co1829 O1853 2.097 . S
Co1829 N1870 2.151 . S
Co1829 N1878 2.214 . S
Co1830 O1831 2.160 . S
Co1830 O1836 2.058 . S
Co1830 O1846 2.057 . S
Co1830 O1861 2.037 . S
Co1830 N1865 2.145 . S
Co1830 N1886 2.257 . S
O1831 Co1829 2.143 . S
O1831 Co1830 2.160 . S
C1832 O1833 1.278 . S
C1832 O1840 1.224 . S
O1833 C1832 1.278 . S
C1834 O1835 1.245 . S
C1834 O1846 1.232 . S
O1835 C1834 1.245 . S
O1836 Co1830 2.058 . S
O1836 C1862 1.269 . S
O1837 Co1829 2.074 . S
O1837 C1862 1.257 . S
H1838 C1863 0.930 . S
H1839 C1869 0.930 . S
O1840 Co1829 2.093 . S
O1840 C1832 1.224 . S
H1841 C1873 0.929 . S
H1842 C1875 0.930 . S
H1843 C1876 0.930 . S
H1844 C1874 0.929 . S
H1845 C1877 0.928 . S
O1846 Co1830 2.057 . S
O1846 C1834 1.232 . S
H1847 C1866 0.929 . S
H1848 C1867 0.929 . S
H1849 C1879 0.931 . S
H1850 C1871 0.929 . S
H1851 C1880 0.930 . S
H1852 C1872 0.931 . S
O1853 Co1829 2.097 . S
O1853 C1881 1.214 . S
H1854 C1882 0.929 . S
H1855 C1883 0.929 . S
H1856 C1884 0.930 . S
H1857 C1885 0.929 . S
H1858 C1887 0.930 . S
H1859 C1864 0.930 . S
H1860 C1868 0.930 . S
O1861 Co1830 2.037 . S
O1861 C1881 1.234 . S
C1862 O1836 1.269 . S
C1862 O1837 1.257 . S
C1863 H1838 0.930 . S
C1863 C1866 1.388 . S
C1863 C1868 1.418 . S
C1864 H1859 0.930 . S
C1864 C1867 1.404 . S
C1864 C1868 1.353 . S
N1865 Co1830 2.145 . S
N1865 C1866 1.397 . S
N1865 C1867 1.334 . S
C1866 H1847 0.929 . S
C1866 C1863 1.388 . S
C1866 N1865 1.397 . S
C1867 H1848 0.929 . S
C1867 C1864 1.404 . S
C1867 N1865 1.334 . S
C1868 H1860 0.930 . S
C1868 C1863 1.418 . S
C1868 C1864 1.353 . S
C1869 H1839 0.930 . S
C1869 N1870 1.330 . S
C1869 C1871 1.446 . S
N1870 Co1829 2.151 . S
N1870 C1869 1.330 . S
N1870 C1874 1.418 . S
C1871 H1850 0.929 . S
C1871 C1869 1.446 . S
C1871 C1872 1.332 . S
C1872 H1852 0.931 . S
C1872 C1871 1.332 . S
C1872 C1873 1.267 . S
C1873 H1841 0.929 . S
C1873 C1872 1.267 . S
C1873 C1874 1.251 . S
C1874 H1844 0.929 . S
C1874 N1870 1.418 . S
C1874 C1873 1.251 . S
C1875 H1842 0.930 . S
C1875 C1877 1.406 . S
C1875 C1880 1.261 . S
C1876 H1843 0.930 . S
C1876 N1878 1.325 . S
C1876 C1879 1.357 . S
C1877 H1845 0.928 . S
C1877 C1875 1.406 . S
C1877 N1878 1.261 . S
N1878 Co1829 2.214 . S
N1878 C1876 1.325 . S
N1878 C1877 1.261 . S
C1879 H1849 0.931 . S
C1879 C1876 1.357 . S
C1879 C1880 1.312 . S
C1880 H1851 0.930 . S
C1880 C1875 1.261 . S
C1880 C1879 1.312 . S
C1881 O1853 1.214 . S
C1881 O1861 1.234 . S
C1882 H1854 0.929 . S
C1882 C1885 1.391 . S
C1882 C1887 1.391 . S
C1883 H1855 0.929 . S
C1883 C1884 1.390 . S
C1883 N1886 1.391 . S
C1884 H1856 0.930 . S
C1884 C1883 1.390 . S
C1884 C1885 1.392 . S
C1885 H1857 0.929 . S
C1885 C1882 1.391 . S
C1885 C1884 1.392 . S
N1886 Co1830 2.257 . S
N1886 C1883 1.391 . S
N1886 C1887 1.388 . S
C1887 H1858 0.930 . S
C1887 C1882 1.391 . S
C1887 N1886 1.388 . S
H1888 C1896 0.950 . S
H1889 C1901 0.950 . S
H1890 C1898 0.950 . S
H1891 C1900 0.950 . S
H1892 C1902 0.950 . S
H1893 C1904 0.950 . S
H1894 C1906 0.950 . S
H1895 C1907 0.950 . S
C1896 H1888 0.950 . S
C1896 C1897 1.386 . S
C1896 C1898 1.391 . S
C1897 C1896 1.386 . S
C1897 C1901 1.393 . S
C1898 H1890 0.950 . S
C1898 C1896 1.391 . S
C1898 C1899 1.400 . S
C1899 C1898 1.400 . S
C1899 C1900 1.398 . S
C1899 C1905 1.491 . S
C1900 H1891 0.950 . S
C1900 C1899 1.398 . S
C1900 C1901 1.391 . S
C1901 H1889 0.950 . S
C1901 C1897 1.393 . S
C1901 C1900 1.391 . S
C1902 H1892 0.950 . S
C1902 C1903 1.386 . S
C1902 C1904 1.391 . S
C1903 C1902 1.386 . S
C1903 C1907 1.393 . S
C1904 H1893 0.950 . S
C1904 C1902 1.391 . S
C1904 C1905 1.400 . S
C1905 C1899 1.491 . S
C1905 C1904 1.400 . S
C1905 C1906 1.398 . S
C1906 H1894 0.950 . S
C1906 C1905 1.398 . S
C1906 C1907 1.391 . S
C1907 H1895 0.950 . S
C1907 C1903 1.393 . S
C1907 C1906 1.391 . S
H1908 C1916 0.950 1_655 S
H1909 C1921 0.950 . S
H1910 C1918 0.950 . S
H1911 C1920 0.950 . S
H1912 C1922 0.950 . S
H1913 C1924 0.950 . S
H1914 C1926 0.950 . S
H1915 C1927 0.950 . S
C1916 H1908 0.950 1_455 S
C1916 C1917 1.386 . S
C1916 C1918 1.391 . S
C1917 C1916 1.386 . S
C1917 C1921 1.393 . S
C1918 H1910 0.950 . S
C1918 C1916 1.391 . S
C1918 C1919 1.400 . S
C1919 C1918 1.400 . S
C1919 C1920 1.398 . S
C1919 C1925 1.491 . S
C1920 H1911 0.950 . S
C1920 C1919 1.398 . S
C1920 C1921 1.391 . S
C1921 H1909 0.950 . S
C1921 C1917 1.393 . S
C1921 C1920 1.391 . S
C1922 H1912 0.950 . S
C1922 C1923 1.386 . S
C1922 C1924 1.391 . S
C1923 C1922 1.386 . S
C1923 C1927 1.393 . S
C1924 H1913 0.950 . S
C1924 C1922 1.391 . S
C1924 C1925 1.400 . S
C1925 C1919 1.491 . S
C1925 C1924 1.400 . S
C1925 C1926 1.398 . S
C1926 H1914 0.950 . S
C1926 C1925 1.398 . S
C1926 C1927 1.391 . S
C1927 H1915 0.950 . S
C1927 C1923 1.393 . S
C1927 C1926 1.391 . S
H1928 C1936 0.950 . S
H1929 C1941 0.950 . S
H1930 C1938 0.950 . S
H1931 C1940 0.950 . S
H1932 C1942 0.950 . S
H1933 C1944 0.950 . S
H1934 C1946 0.950 . S
H1935 C1947 0.950 . S
C1936 H1928 0.950 . S
C1936 C1937 1.386 . S
C1936 C1938 1.391 . S
C1937 C1936 1.386 . S
C1937 C1941 1.393 . S
C1938 H1930 0.950 . S
C1938 C1936 1.391 . S
C1938 C1939 1.400 . S
C1939 C1938 1.400 . S
C1939 C1940 1.398 . S
C1939 C1945 1.491 . S
C1940 H1931 0.950 . S
C1940 C1939 1.398 . S
C1940 C1941 1.391 . S
C1941 H1929 0.950 . S
C1941 C1937 1.393 . S
C1941 C1940 1.391 . S
C1942 H1932 0.950 . S
C1942 C1943 1.386 . S
C1942 C1944 1.391 . S
C1943 C1942 1.386 . S
C1943 C1947 1.393 . S
C1944 H1933 0.950 . S
C1944 C1942 1.391 . S
C1944 C1945 1.400 . S
C1945 C1939 1.491 . S
C1945 C1944 1.400 . S
C1945 C1946 1.398 . S
C1946 H1934 0.950 . S
C1946 C1945 1.398 . S
C1946 C1947 1.391 . S
C1947 H1935 0.950 . S
C1947 C1943 1.393 . S
C1947 C1946 1.391 . S
H1948 C1956 0.950 . S
H1949 C1961 0.950 . S
H1950 C1958 0.950 . S
H1951 C1960 0.950 . S
H1952 C1962 0.950 . S
H1953 C1964 0.950 . S
H1954 C1966 0.950 . S
H1955 C1967 0.950 . S
C1956 H1948 0.950 . S
C1956 C1957 1.386 . S
C1956 C1958 1.391 . S
C1957 C1956 1.386 . S
C1957 C1961 1.393 . S
C1958 H1950 0.950 . S
C1958 C1956 1.391 . S
C1958 C1959 1.400 . S
C1959 C1958 1.400 . S
C1959 C1960 1.398 . S
C1959 C1965 1.491 . S
C1960 H1951 0.950 . S
C1960 C1959 1.398 . S
C1960 C1961 1.391 . S
C1961 H1949 0.950 . S
C1961 C1957 1.393 . S
C1961 C1960 1.391 . S
C1962 H1952 0.950 . S
C1962 C1963 1.386 . S
C1962 C1964 1.391 . S
C1963 C1962 1.386 . S
C1963 C1967 1.393 . S
C1964 H1953 0.950 . S
C1964 C1962 1.391 . S
C1964 C1965 1.400 . S
C1965 C1959 1.491 . S
C1965 C1964 1.400 . S
C1965 C1966 1.398 . S
C1966 H1954 0.950 . S
C1966 C1965 1.398 . S
C1966 C1967 1.391 . S
C1967 H1955 0.950 . S
C1967 C1963 1.393 . S
C1967 C1966 1.391 . S
H1968 C1976 0.950 . S
H1969 C1981 0.950 . S
H1970 C1978 0.950 . S
H1971 C1980 0.950 . S
H1972 C1982 0.950 . S
H1973 C1984 0.950 . S
H1974 C1986 0.950 . S
H1975 C1987 0.950 . S
C1976 H1968 0.950 . S
C1976 C1977 1.386 . S
C1976 C1978 1.391 . S
C1977 C1976 1.386 . S
C1977 C1981 1.393 . S
C1978 H1970 0.950 . S
C1978 C1976 1.391 . S
C1978 C1979 1.400 . S
C1979 C1978 1.400 . S
C1979 C1980 1.398 . S
C1979 C1985 1.491 . S
C1980 H1971 0.950 . S
C1980 C1979 1.398 . S
C1980 C1981 1.391 . S
C1981 H1969 0.950 . S
C1981 C1977 1.393 . S
C1981 C1980 1.391 . S
C1982 H1972 0.950 . S
C1982 C1983 1.386 . S
C1982 C1984 1.391 . S
C1983 C1982 1.386 . S
C1983 C1987 1.393 . S
C1984 H1973 0.950 . S
C1984 C1982 1.391 . S
C1984 C1985 1.400 . S
C1985 C1979 1.491 . S
C1985 C1984 1.400 . S
C1985 C1986 1.398 . S
C1986 H1974 0.950 . S
C1986 C1985 1.398 . S
C1986 C1987 1.391 . S
C1987 H1975 0.950 . S
C1987 C1983 1.393 . S
C1987 C1986 1.391 . S
H1988 C1996 0.950 . S
H1989 C2001 0.950 . S
H1990 C1998 0.950 . S
H1991 C2000 0.950 . S
H1992 C2002 0.950 . S
H1993 C2004 0.950 . S
H1994 C2006 0.950 . S
H1995 C2007 0.950 . S
C1996 H1988 0.950 . S
C1996 C1997 1.386 . S
C1996 C1998 1.391 . S
C1997 C1996 1.386 . S
C1997 C2001 1.393 . S
C1998 H1990 0.950 . S
C1998 C1996 1.391 . S
C1998 C1999 1.400 . S
C1999 C1998 1.400 . S
C1999 C2000 1.398 . S
C1999 C2005 1.491 . S
C2000 H1991 0.950 . S
C2000 C1999 1.398 . S
C2000 C2001 1.391 . S
C2001 H1989 0.950 . S
C2001 C1997 1.393 . S
C2001 C2000 1.391 . S
C2002 H1992 0.950 . S
C2002 C2003 1.386 . S
C2002 C2004 1.391 . S
C2003 C2002 1.386 . S
C2003 C2007 1.393 . S
C2004 H1993 0.950 . S
C2004 C2002 1.391 . S
C2004 C2005 1.400 . S
C2005 C1999 1.491 . S
C2005 C2004 1.400 . S
C2005 C2006 1.398 . S
C2006 H1994 0.950 . S
C2006 C2005 1.398 . S
C2006 C2007 1.391 . S
C2007 H1995 0.950 . S
C2007 C2003 1.393 . S
C2007 C2006 1.391 . S
H2008 C2016 0.950 . S
H2009 C2021 0.950 . S
H2010 C2018 0.950 . S
H2011 C2020 0.950 . S
H2012 C2022 0.950 . S
H2013 C2024 0.950 . S
H2014 C2026 0.950 . S
H2015 C2027 0.950 . S
C2016 H2008 0.950 . S
C2016 C2017 1.386 . S
C2016 C2018 1.391 . S
C2017 C2016 1.386 . S
C2017 C2021 1.393 . S
C2018 H2010 0.950 . S
C2018 C2016 1.391 . S
C2018 C2019 1.400 . S
C2019 C2018 1.400 . S
C2019 C2020 1.398 . S
C2019 C2025 1.491 . S
C2020 H2011 0.950 . S
C2020 C2019 1.398 . S
C2020 C2021 1.391 . S
C2021 H2009 0.950 . S
C2021 C2017 1.393 . S
C2021 C2020 1.391 . S
C2022 H2012 0.950 . S
C2022 C2023 1.386 . S
C2022 C2024 1.391 . S
C2023 C2022 1.386 . S
C2023 C2027 1.393 . S
C2024 H2013 0.950 . S
C2024 C2022 1.391 . S
C2024 C2025 1.400 . S
C2025 C2019 1.491 . S
C2025 C2024 1.400 . S
C2025 C2026 1.398 . S
C2026 H2014 0.950 . S
C2026 C2025 1.398 . S
C2026 C2027 1.391 . S
C2027 H2015 0.950 . S
C2027 C2023 1.393 . S
C2027 C2026 1.391 . S
H2028 C2036 0.950 . S
H2029 C2041 0.950 . S
H2030 C2038 0.950 . S
H2031 C2040 0.950 . S
H2032 C2042 0.950 . S
H2033 C2044 0.950 . S
H2034 C2046 0.950 . S
H2035 C2047 0.926 1_655 S
C2036 H2028 0.950 . S
C2036 C2037 1.386 . S
C2036 C2038 1.391 . S
C2037 C2036 1.386 . S
C2037 C2041 1.393 . S
C2038 H2030 0.950 . S
C2038 C2036 1.391 . S
C2038 C2039 1.400 . S
C2039 C2038 1.400 . S
C2039 C2040 1.398 . S
C2039 C2045 1.491 . S
C2040 H2031 0.950 . S
C2040 C2039 1.398 . S
C2040 C2041 1.391 . S
C2041 H2029 0.950 . S
C2041 C2037 1.393 . S
C2041 C2040 1.391 . S
C2042 H2032 0.950 . S
C2042 C2043 1.386 . S
C2042 C2044 1.391 . S
C2043 C2042 1.386 . S
C2043 C2047 1.394 . S
C2044 H2033 0.950 . S
C2044 C2042 1.391 . S
C2044 C2045 1.400 . S
C2045 C2039 1.491 . S
C2045 C2044 1.400 . S
C2045 C2046 1.398 . S
C2046 H2034 0.950 . S
C2046 C2045 1.398 . S
C2046 C2047 1.413 . S
C2047 H2035 0.926 1_455 S
C2047 C2043 1.394 . S
C2047 C2046 1.413 . S
H2048 C2056 0.950 . S
H2049 C2061 0.950 . S
H2050 C2058 0.950 . S
H2051 C2060 0.950 . S
H2052 C2062 0.950 . S
H2053 C2064 0.950 . S
H2054 C2066 0.950 . S
H2055 C2067 0.950 . S
C2056 H2048 0.950 . S
C2056 C2057 1.386 . S
C2056 C2058 1.391 . S
C2057 C2056 1.386 . S
C2057 C2061 1.393 . S
C2058 H2050 0.950 . S
C2058 C2056 1.391 . S
C2058 C2059 1.400 . S
C2059 C2058 1.400 . S
C2059 C2060 1.398 . S
C2059 C2065 1.491 . S
C2060 H2051 0.950 . S
C2060 C2059 1.398 . S
C2060 C2061 1.391 . S
C2061 H2049 0.950 . S
C2061 C2057 1.393 . S
C2061 C2060 1.391 . S
C2062 H2052 0.950 . S
C2062 C2063 1.386 . S
C2062 C2064 1.391 . S
C2063 C2062 1.386 . S
C2063 C2067 1.393 . S
C2064 H2053 0.950 . S
C2064 C2062 1.391 . S
C2064 C2065 1.400 . S
C2065 C2059 1.491 . S
C2065 C2064 1.400 . S
C2065 C2066 1.398 . S
C2066 H2054 0.950 . S
C2066 C2065 1.398 . S
C2066 C2067 1.391 . S
C2067 H2055 0.950 . S
C2067 C2063 1.393 . S
C2067 C2066 1.391 . S
H2068 C2076 0.950 . S
H2069 C2081 0.950 . S
H2070 C2078 0.950 . S
H2071 C2080 0.950 . S
H2072 C2082 0.950 . S
H2073 C2084 0.950 . S
H2074 C2086 0.950 . S
H2075 C2087 0.950 . S
C2076 H2068 0.950 . S
C2076 C2077 1.386 . S
C2076 C2078 1.391 . S
C2077 C2076 1.386 . S
C2077 C2081 1.393 . S
C2078 H2070 0.950 . S
C2078 C2076 1.391 . S
C2078 C2079 1.400 . S
C2079 C2078 1.400 . S
C2079 C2080 1.398 . S
C2079 C2085 1.491 . S
C2080 H2071 0.950 . S
C2080 C2079 1.398 . S
C2080 C2081 1.391 . S
C2081 H2069 0.950 . S
C2081 C2077 1.393 . S
C2081 C2080 1.391 . S
C2082 H2072 0.950 . S
C2082 C2083 1.386 . S
C2082 C2084 1.391 . S
C2083 C2082 1.386 . S
C2083 C2087 1.393 . S
C2084 H2073 0.950 . S
C2084 C2082 1.391 . S
C2084 C2085 1.400 . S
C2085 C2079 1.491 . S
C2085 C2084 1.400 . S
C2085 C2086 1.398 . S
C2086 H2074 0.950 . S
C2086 C2085 1.398 . S
C2086 C2087 1.391 . S
C2087 H2075 0.950 . S
C2087 C2083 1.393 . S
C2087 C2086 1.391 . S
H2088 C2096 0.950 . S
H2089 C2101 0.950 . S
H2090 C2098 0.950 . S
H2091 C2100 0.950 . S
H2092 C2102 0.950 . S
H2093 C2104 0.950 . S
H2094 C2106 0.950 . S
H2095 C2107 0.950 . S
C2096 H2088 0.950 . S
C2096 C2097 1.386 . S
C2096 C2098 1.391 . S
C2097 C2096 1.386 . S
C2097 C2101 1.393 . S
C2098 H2090 0.950 . S
C2098 C2096 1.391 . S
C2098 C2099 1.400 . S
C2099 C2098 1.400 . S
C2099 C2100 1.398 . S
C2099 C2105 1.491 . S
C2100 H2091 0.950 . S
C2100 C2099 1.398 . S
C2100 C2101 1.391 . S
C2101 H2089 0.950 . S
C2101 C2097 1.393 . S
C2101 C2100 1.391 . S
C2102 H2092 0.950 . S
C2102 C2103 1.386 . S
C2102 C2104 1.391 . S
C2103 C2102 1.386 . S
C2103 C2107 1.393 . S
C2104 H2093 0.950 . S
C2104 C2102 1.391 . S
C2104 C2105 1.400 . S
C2105 C2099 1.491 . S
C2105 C2104 1.400 . S
C2105 C2106 1.398 . S
C2106 H2094 0.950 . S
C2106 C2105 1.398 . S
C2106 C2107 1.391 . S
C2107 H2095 0.950 . S
C2107 C2103 1.393 . S
C2107 C2106 1.391 . S
H2108 C2116 0.950 . S
H2109 C2121 0.950 . S
H2110 C2118 0.950 . S
H2111 C2120 0.950 . S
H2112 C2122 0.950 . S
H2113 C2124 0.950 . S
H2114 C2126 0.950 . S
H2115 C2127 0.950 . S
C2116 H2108 0.950 . S
C2116 C2117 1.386 . S
C2116 C2118 1.391 . S
C2117 C2116 1.386 . S
C2117 C2121 1.393 . S
C2118 H2110 0.950 . S
C2118 C2116 1.391 . S
C2118 C2119 1.400 . S
C2119 C2118 1.400 . S
C2119 C2120 1.398 . S
C2119 C2125 1.491 . S
C2120 H2111 0.950 . S
C2120 C2119 1.398 . S
C2120 C2121 1.391 . S
C2121 H2109 0.950 . S
C2121 C2117 1.393 . S
C2121 C2120 1.391 . S
C2122 H2112 0.950 . S
C2122 C2123 1.386 . S
C2122 C2124 1.391 . S
C2123 C2122 1.386 . S
C2123 C2127 1.393 . S
C2124 H2113 0.950 . S
C2124 C2122 1.391 . S
C2124 C2125 1.400 . S
C2125 C2119 1.491 . S
C2125 C2124 1.400 . S
C2125 C2126 1.398 . S
C2126 H2114 0.950 . S
C2126 C2125 1.398 . S
C2126 C2127 1.391 . S
C2127 H2115 0.950 . S
C2127 C2123 1.393 . S
C2127 C2126 1.391 . S
H2128 C2136 0.950 . S
H2129 C2141 0.950 . S
H2130 C2138 0.950 . S
H2131 C2140 0.950 . S
H2132 C2142 0.950 . S
H2133 C2144 0.950 . S
H2134 C2146 0.950 . S
H2135 C2147 0.950 . S
C2136 H2128 0.950 . S
C2136 C2137 1.386 . S
C2136 C2138 1.391 . S
C2137 C2136 1.386 . S
C2137 C2141 1.393 . S
C2138 H2130 0.950 . S
C2138 C2136 1.391 . S
C2138 C2139 1.400 . S
C2139 C2138 1.400 . S
C2139 C2140 1.398 . S
C2139 C2145 1.491 . S
C2140 H2131 0.950 . S
C2140 C2139 1.398 . S
C2140 C2141 1.391 . S
C2141 H2129 0.950 . S
C2141 C2137 1.393 . S
C2141 C2140 1.391 . S
C2142 H2132 0.950 . S
C2142 C2143 1.386 . S
C2142 C2144 1.391 . S
C2143 C2142 1.386 . S
C2143 C2147 1.393 . S
C2144 H2133 0.950 . S
C2144 C2142 1.391 . S
C2144 C2145 1.400 . S
C2145 C2139 1.491 . S
C2145 C2144 1.400 . S
C2145 C2146 1.398 . S
C2146 H2134 0.950 . S
C2146 C2145 1.398 . S
C2146 C2147 1.391 . S
C2147 H2135 0.950 . S
C2147 C2143 1.393 . S
C2147 C2146 1.391 . S
H2148 C2156 0.950 . S
H2149 C2161 0.950 . S
H2150 C2158 0.950 . S
H2151 C2160 0.950 . S
H2152 C2162 0.950 . S
H2153 C2164 0.950 . S
H2154 C2166 0.950 . S
H2155 C2167 0.950 . S
C2156 H2148 0.950 . S
C2156 C2157 1.386 . S
C2156 C2158 1.391 . S
C2157 C2156 1.386 . S
C2157 C2161 1.393 . S
C2158 H2150 0.950 . S
C2158 C2156 1.391 . S
C2158 C2159 1.400 . S
C2159 C2158 1.400 . S
C2159 C2160 1.398 . S
C2159 C2165 1.491 . S
C2160 H2151 0.950 . S
C2160 C2159 1.398 . S
C2160 C2161 1.391 . S
C2161 H2149 0.950 . S
C2161 C2157 1.393 . S
C2161 C2160 1.391 . S
C2162 H2152 0.950 . S
C2162 C2163 1.386 . S
C2162 C2164 1.391 . S
C2163 C2162 1.386 . S
C2163 C2167 1.393 . S
C2164 H2153 0.950 . S
C2164 C2162 1.391 . S
C2164 C2165 1.400 . S
C2165 C2159 1.491 . S
C2165 C2164 1.400 . S
C2165 C2166 1.398 . S
C2166 H2154 0.950 . S
C2166 C2165 1.398 . S
C2166 C2167 1.391 . S
C2167 H2155 0.950 . S
C2167 C2163 1.393 . S
C2167 C2166 1.391 . S
H2168 C2176 0.950 . S
H2169 C2181 0.950 . S
H2170 C2178 0.950 . S
H2171 C2180 0.950 . S
H2172 C2182 0.950 . S
H2173 C2184 0.950 . S
H2174 C2186 0.950 . S
H2175 C2187 0.950 . S
C2176 H2168 0.950 . S
C2176 C2177 1.386 . S
C2176 C2178 1.391 . S
C2177 C2176 1.386 . S
C2177 C2181 1.393 . S
C2178 H2170 0.950 . S
C2178 C2176 1.391 . S
C2178 C2179 1.400 . S
C2179 C2178 1.400 . S
C2179 C2180 1.398 . S
C2179 C2185 1.491 . S
C2180 H2171 0.950 . S
C2180 C2179 1.398 . S
C2180 C2181 1.391 . S
C2181 H2169 0.950 . S
C2181 C2177 1.393 . S
C2181 C2180 1.391 . S
C2182 H2172 0.950 . S
C2182 C2183 1.386 . S
C2182 C2184 1.391 . S
C2183 C2182 1.386 . S
C2183 C2187 1.393 . S
C2184 H2173 0.950 . S
C2184 C2182 1.391 . S
C2184 C2185 1.400 . S
C2185 C2179 1.491 . S
C2185 C2184 1.400 . S
C2185 C2186 1.398 . S
C2186 H2174 0.950 . S
C2186 C2185 1.398 . S
C2186 C2187 1.391 . S
C2187 H2175 0.950 . S
C2187 C2183 1.393 . S
C2187 C2186 1.391 . S
H2188 C2196 0.950 . S
H2189 C2201 0.950 . S
H2190 C2198 0.950 . S
H2191 C2200 0.950 . S
H2192 C2202 0.950 1_455 S
H2193 C2204 0.950 . S
H2194 C2206 0.950 . S
H2195 C2207 0.950 . S
C2196 H2188 0.950 . S
C2196 C2197 1.386 . S
C2196 C2198 1.391 . S
C2197 C2196 1.386 . S
C2197 C2201 1.393 . S
C2198 H2190 0.950 . S
C2198 C2196 1.391 . S
C2198 C2199 1.400 . S
C2199 C2198 1.400 . S
C2199 C2200 1.398 . S
C2199 C2205 1.491 . S
C2200 H2191 0.950 . S
C2200 C2199 1.398 . S
C2200 C2201 1.391 . S
C2201 H2189 0.950 . S
C2201 C2197 1.393 . S
C2201 C2200 1.391 . S
C2202 H2192 0.950 1_655 S
C2202 C2203 1.386 . S
C2202 C2204 1.391 . S
C2203 C2202 1.386 . S
C2203 C2207 1.393 . S
C2204 H2193 0.950 . S
C2204 C2202 1.391 . S
C2204 C2205 1.400 . S
C2205 C2199 1.491 . S
C2205 C2204 1.400 . S
C2205 C2206 1.398 . S
C2206 H2194 0.950 . S
C2206 C2205 1.398 . S
C2206 C2207 1.391 . S
C2207 H2195 0.950 . S
C2207 C2203 1.393 . S
C2207 C2206 1.391 . S
H2208 C2216 0.950 . S
H2209 C2221 0.950 . S
H2210 C2218 0.950 . S
H2211 C2220 0.950 . S
H2212 C2222 0.950 . S
H2213 C2224 0.950 . S
H2214 C2226 0.950 . S
H2215 C2227 0.950 . S
C2216 H2208 0.950 . S
C2216 C2217 1.386 . S
C2216 C2218 1.391 . S
C2217 C2216 1.386 . S
C2217 C2221 1.393 . S
C2218 H2210 0.950 . S
C2218 C2216 1.391 . S
C2218 C2219 1.400 . S
C2219 C2218 1.400 . S
C2219 C2220 1.398 . S
C2219 C2225 1.491 . S
C2220 H2211 0.950 . S
C2220 C2219 1.398 . S
C2220 C2221 1.391 . S
C2221 H2209 0.950 . S
C2221 C2217 1.393 . S
C2221 C2220 1.391 . S
C2222 H2212 0.950 . S
C2222 C2223 1.386 . S
C2222 C2224 1.391 . S
C2223 C2222 1.386 . S
C2223 C2227 1.393 . S
C2224 H2213 0.950 . S
C2224 C2222 1.391 . S
C2224 C2225 1.400 . S
C2225 C2219 1.491 . S
C2225 C2224 1.400 . S
C2225 C2226 1.398 . S
C2226 H2214 0.950 . S
C2226 C2225 1.398 . S
C2226 C2227 1.391 . S
C2227 H2215 0.950 . S
C2227 C2223 1.393 . S
C2227 C2226 1.391 . S
H2228 C2236 0.950 . S
H2229 C2241 0.950 . S
H2230 C2238 0.950 . S
H2231 C2240 0.950 . S
H2232 C2242 0.950 . S
H2233 C2244 0.950 . S
H2234 C2246 0.950 . S
H2235 C2247 0.950 . S
C2236 H2228 0.950 . S
C2236 C2237 1.386 . S
C2236 C2238 1.391 . S
C2237 C2236 1.386 . S
C2237 C2241 1.393 . S
C2238 H2230 0.950 . S
C2238 C2236 1.391 . S
C2238 C2239 1.400 . S
C2239 C2238 1.400 . S
C2239 C2240 1.398 . S
C2239 C2245 1.491 . S
C2240 H2231 0.950 . S
C2240 C2239 1.398 . S
C2240 C2241 1.391 . S
C2241 H2229 0.950 . S
C2241 C2237 1.393 . S
C2241 C2240 1.391 . S
C2242 H2232 0.950 . S
C2242 C2243 1.386 . S
C2242 C2244 1.391 . S
C2243 C2242 1.386 . S
C2243 C2247 1.393 . S
C2244 H2233 0.950 . S
C2244 C2242 1.391 . S
C2244 C2245 1.400 . S
C2245 C2239 1.491 . S
C2245 C2244 1.400 . S
C2245 C2246 1.398 . S
C2246 H2234 0.950 . S
C2246 C2245 1.398 . S
C2246 C2247 1.391 . S
C2247 H2235 0.950 . S
C2247 C2243 1.393 . S
C2247 C2246 1.391 . S
H2248 C2256 0.950 . S
H2249 C2261 0.950 . S
H2250 C2258 0.950 . S
H2251 C2260 0.950 . S
H2252 C2262 0.950 . S
H2253 C2264 0.950 . S
H2254 C2266 0.950 . S
H2255 C2267 0.950 . S
C2256 H2248 0.950 . S
C2256 C2257 1.386 . S
C2256 C2258 1.391 . S
C2257 C2256 1.386 . S
C2257 C2261 1.393 . S
C2258 H2250 0.950 . S
C2258 C2256 1.391 . S
C2258 C2259 1.400 . S
C2259 C2258 1.400 . S
C2259 C2260 1.398 . S
C2259 C2265 1.491 . S
C2260 H2251 0.950 . S
C2260 C2259 1.398 . S
C2260 C2261 1.391 . S
C2261 H2249 0.950 . S
C2261 C2257 1.393 . S
C2261 C2260 1.391 . S
C2262 H2252 0.950 . S
C2262 C2263 1.386 . S
C2262 C2264 1.391 . S
C2263 C2262 1.386 . S
C2263 C2267 1.393 . S
C2264 H2253 0.950 . S
C2264 C2262 1.391 . S
C2264 C2265 1.400 . S
C2265 C2259 1.491 . S
C2265 C2264 1.400 . S
C2265 C2266 1.398 . S
C2266 H2254 0.950 . S
C2266 C2265 1.398 . S
C2266 C2267 1.391 . S
C2267 H2255 0.950 . S
C2267 C2263 1.393 . S
C2267 C2266 1.391 . S
H2268 C2276 0.950 . S
H2269 C2281 0.950 . S
H2270 C2278 0.950 . S
H2271 C2280 0.950 . S
H2272 C2282 0.950 . S
H2273 C2284 0.950 . S
H2274 C2286 0.950 . S
H2275 C2287 0.950 1_455 S
C2276 H2268 0.950 . S
C2276 C2277 1.386 . S
C2276 C2278 1.391 . S
C2277 C2276 1.386 . S
C2277 C2281 1.393 . S
C2278 H2270 0.950 . S
C2278 C2276 1.391 . S
C2278 C2279 1.400 . S
C2279 C2278 1.400 . S
C2279 C2280 1.398 . S
C2279 C2285 1.491 . S
C2280 H2271 0.950 . S
C2280 C2279 1.398 . S
C2280 C2281 1.391 . S
C2281 H2269 0.950 . S
C2281 C2277 1.393 . S
C2281 C2280 1.391 . S
C2282 H2272 0.950 . S
C2282 C2283 1.386 . S
C2282 C2284 1.391 . S
C2283 C2282 1.386 . S
C2283 C2287 1.393 . S
C2284 H2273 0.950 . S
C2284 C2282 1.391 . S
C2284 C2285 1.400 . S
C2285 C2279 1.491 . S
C2285 C2284 1.400 . S
C2285 C2286 1.398 . S
C2286 H2274 0.950 . S
C2286 C2285 1.398 . S
C2286 C2287 1.391 . S
C2287 H2275 0.950 1_655 S
C2287 C2283 1.393 . S
C2287 C2286 1.391 . S
H2288 C2296 0.950 . S
H2289 C2301 0.950 . S
H2290 C2298 0.950 . S
H2291 C2300 0.950 . S
H2292 C2302 0.950 . S
H2293 C2304 0.950 . S
H2294 C2306 0.950 . S
H2295 C2307 0.950 . S
C2296 H2288 0.950 . S
C2296 C2297 1.386 . S
C2296 C2298 1.391 . S
C2297 C2296 1.386 . S
C2297 C2301 1.393 . S
C2298 H2290 0.950 . S
C2298 C2296 1.391 . S
C2298 C2299 1.400 . S
C2299 C2298 1.400 . S
C2299 C2300 1.398 . S
C2299 C2305 1.491 . S
C2300 H2291 0.950 . S
C2300 C2299 1.398 . S
C2300 C2301 1.391 . S
C2301 H2289 0.950 . S
C2301 C2297 1.393 . S
C2301 C2300 1.391 . S
C2302 H2292 0.950 . S
C2302 C2303 1.386 . S
C2302 C2304 1.391 . S
C2303 C2302 1.386 . S
C2303 C2307 1.393 . S
C2304 H2293 0.950 . S
C2304 C2302 1.391 . S
C2304 C2305 1.400 . S
C2305 C2299 1.491 . S
C2305 C2304 1.400 . S
C2305 C2306 1.398 . S
C2306 H2294 0.950 . S
C2306 C2305 1.398 . S
C2306 C2307 1.391 . S
C2307 H2295 0.950 . S
C2307 C2303 1.393 . S
C2307 C2306 1.391 . S
H2308 C2316 0.950 1_455 S
H2309 C2321 0.950 . S
H2310 C2318 0.950 . S
H2311 C2320 0.950 . S
H2312 C2322 0.950 . S
H2313 C2324 0.950 . S
H2314 C2326 0.950 . S
H2315 C2327 0.950 . S
C2316 H2308 0.950 1_655 S
C2316 C2317 1.386 . S
C2316 C2318 1.391 . S
C2317 C2316 1.386 . S
C2317 C2321 1.393 . S
C2318 H2310 0.950 . S
C2318 C2316 1.391 . S
C2318 C2319 1.400 . S
C2319 C2318 1.400 . S
C2319 C2320 1.398 . S
C2319 C2325 1.491 . S
C2320 H2311 0.950 . S
C2320 C2319 1.398 . S
C2320 C2321 1.391 . S
C2321 H2309 0.950 . S
C2321 C2317 1.393 . S
C2321 C2320 1.391 . S
C2322 H2312 0.950 . S
C2322 C2323 1.386 . S
C2322 C2324 1.391 . S
C2323 C2322 1.386 . S
C2323 C2327 1.393 . S
C2324 H2313 0.950 . S
C2324 C2322 1.391 . S
C2324 C2325 1.400 . S
C2325 C2319 1.491 . S
C2325 C2324 1.400 . S
C2325 C2326 1.398 . S
C2326 H2314 0.950 . S
C2326 C2325 1.398 . S
C2326 C2327 1.391 . S
C2327 H2315 0.950 . S
C2327 C2323 1.393 . S
C2327 C2326 1.391 . S
H2328 C2336 0.950 . S
H2329 C2341 0.950 . S
H2330 C2338 0.950 . S
H2331 C2340 0.950 . S
H2332 C2342 0.950 . S
H2333 C2344 0.950 . S
H2334 C2346 0.950 . S
H2335 C2347 0.950 . S
C2336 H2328 0.950 . S
C2336 C2337 1.386 . S
C2336 C2338 1.391 . S
C2337 C2336 1.386 . S
C2337 C2341 1.393 . S
C2338 H2330 0.950 . S
C2338 C2336 1.391 . S
C2338 C2339 1.400 . S
C2339 C2338 1.400 . S
C2339 C2340 1.398 . S
C2339 C2345 1.491 . S
C2340 H2331 0.950 . S
C2340 C2339 1.398 . S
C2340 C2341 1.391 . S
C2341 H2329 0.950 . S
C2341 C2337 1.393 . S
C2341 C2340 1.391 . S
C2342 H2332 0.950 . S
C2342 C2343 1.386 . S
C2342 C2344 1.391 . S
C2343 C2342 1.386 . S
C2343 C2347 1.393 . S
C2344 H2333 0.950 . S
C2344 C2342 1.391 . S
C2344 C2345 1.400 . S
C2345 C2339 1.491 . S
C2345 C2344 1.400 . S
C2345 C2346 1.398 . S
C2346 H2334 0.950 . S
C2346 C2345 1.398 . S
C2346 C2347 1.391 . S
C2347 H2335 0.950 . S
C2347 C2343 1.393 . S
C2347 C2346 1.391 . S
H2348 C2356 0.950 . S
H2349 C2361 0.950 . S
H2350 C2358 0.950 . S
H2351 C2360 0.950 . S
H2352 C2362 0.950 . S
H2353 C2364 0.950 . S
H2354 C2366 0.950 . S
H2355 C2367 0.950 . S
C2356 H2348 0.950 . S
C2356 C2357 1.386 . S
C2356 C2358 1.391 . S
C2357 C2356 1.386 . S
C2357 C2361 1.393 . S
C2358 H2350 0.950 . S
C2358 C2356 1.391 . S
C2358 C2359 1.400 . S
C2359 C2358 1.400 . S
C2359 C2360 1.398 . S
C2359 C2365 1.491 . S
C2360 H2351 0.950 . S
C2360 C2359 1.398 . S
C2360 C2361 1.391 . S
C2361 H2349 0.950 . S
C2361 C2357 1.393 . S
C2361 C2360 1.391 . S
C2362 H2352 0.950 . S
C2362 C2363 1.386 . S
C2362 C2364 1.391 . S
C2363 C2362 1.386 . S
C2363 C2367 1.393 . S
C2364 H2353 0.950 . S
C2364 C2362 1.391 . S
C2364 C2365 1.400 . S
C2365 C2359 1.491 . S
C2365 C2364 1.400 . S
C2365 C2366 1.398 . S
C2366 H2354 0.950 . S
C2366 C2365 1.398 . S
C2366 C2367 1.391 . S
C2367 H2355 0.950 . S
C2367 C2363 1.393 . S
C2367 C2366 1.391 . S
H2368 C2376 0.950 . S
H2369 C2381 0.950 . S
H2370 C2378 0.950 . S
H2371 C2380 0.950 . S
H2372 C2382 0.950 . S
H2373 C2384 0.950 . S
H2374 C2386 0.950 . S
H2375 C2387 0.950 . S
C2376 H2368 0.950 . S
C2376 C2377 1.386 . S
C2376 C2378 1.391 . S
C2377 C2376 1.386 . S
C2377 C2381 1.393 . S
C2378 H2370 0.950 . S
C2378 C2376 1.391 . S
C2378 C2379 1.400 . S
C2379 C2378 1.400 . S
C2379 C2380 1.398 . S
C2379 C2385 1.491 . S
C2380 H2371 0.950 . S
C2380 C2379 1.398 . S
C2380 C2381 1.391 . S
C2381 H2369 0.950 . S
C2381 C2377 1.393 . S
C2381 C2380 1.391 . S
C2382 H2372 0.950 . S
C2382 C2383 1.386 . S
C2382 C2384 1.391 . S
C2383 C2382 1.386 . S
C2383 C2387 1.393 . S
C2384 H2373 0.950 . S
C2384 C2382 1.391 . S
C2384 C2385 1.400 . S
C2385 C2379 1.491 . S
C2385 C2384 1.400 . S
C2385 C2386 1.398 . S
C2386 H2374 0.950 . S
C2386 C2385 1.398 . S
C2386 C2387 1.391 . S
C2387 H2375 0.950 . S
C2387 C2383 1.393 . S
C2387 C2386 1.391 . S
H2388 C2396 0.950 . S
H2389 C2401 0.950 . S
H2390 C2398 0.950 . S
H2391 C2400 0.950 . S
H2392 C2402 0.950 . S
H2393 C2404 0.950 . S
H2394 C2406 0.950 . S
H2395 C2407 0.950 . S
C2396 H2388 0.950 . S
C2396 C2397 1.386 . S
C2396 C2398 1.391 . S
C2397 C2396 1.386 . S
C2397 C2401 1.393 . S
C2398 H2390 0.950 . S
C2398 C2396 1.391 . S
C2398 C2399 1.400 . S
C2399 C2398 1.400 . S
C2399 C2400 1.398 . S
C2399 C2405 1.491 . S
C2400 H2391 0.950 . S
C2400 C2399 1.398 . S
C2400 C2401 1.391 . S
C2401 H2389 0.950 . S
C2401 C2397 1.393 . S
C2401 C2400 1.391 . S
C2402 H2392 0.950 . S
C2402 C2403 1.386 . S
C2402 C2404 1.391 . S
C2403 C2402 1.386 . S
C2403 C2407 1.393 . S
C2404 H2393 0.950 . S
C2404 C2402 1.391 . S
C2404 C2405 1.400 . S
C2405 C2399 1.491 . S
C2405 C2404 1.400 . S
C2405 C2406 1.398 . S
C2406 H2394 0.950 . S
C2406 C2405 1.398 . S
C2406 C2407 1.391 . S
C2407 H2395 0.950 . S
C2407 C2403 1.393 . S
C2407 C2406 1.391 . S
H2408 C2416 0.950 . S
H2409 C2421 0.950 . S
H2410 C2418 0.950 . S
H2411 C2420 0.950 . S
H2412 C2422 0.950 . S
H2413 C2424 0.950 . S
H2414 C2426 0.950 . S
H2415 C2427 0.950 . S
C2416 H2408 0.950 . S
C2416 C2417 1.386 . S
C2416 C2418 1.391 . S
C2417 C2416 1.386 . S
C2417 C2421 1.393 . S
C2418 H2410 0.950 . S
C2418 C2416 1.391 . S
C2418 C2419 1.400 . S
C2419 C2418 1.400 . S
C2419 C2420 1.398 . S
C2419 C2425 1.491 . S
C2420 H2411 0.950 . S
C2420 C2419 1.398 . S
C2420 C2421 1.391 . S
C2421 H2409 0.950 . S
C2421 C2417 1.393 . S
C2421 C2420 1.391 . S
C2422 H2412 0.950 . S
C2422 C2423 1.386 . S
C2422 C2424 1.391 . S
C2423 C2422 1.386 . S
C2423 C2427 1.393 . S
C2424 H2413 0.950 . S
C2424 C2422 1.391 . S
C2424 C2425 1.400 . S
C2425 C2419 1.491 . S
C2425 C2424 1.400 . S
C2425 C2426 1.398 . S
C2426 H2414 0.950 . S
C2426 C2425 1.398 . S
C2426 C2427 1.391 . S
C2427 H2415 0.950 . S
C2427 C2423 1.393 . S
C2427 C2426 1.391 . S
H2428 C2436 0.950 . S
H2429 C2441 0.950 . S
H2430 C2438 0.950 . S
H2431 C2440 0.950 . S
H2432 C2442 0.950 . S
H2433 C2444 0.950 . S
H2434 C2446 0.950 . S
H2435 C2447 0.950 . S
C2436 H2428 0.950 . S
C2436 C2437 1.386 . S
C2436 C2438 1.391 . S
C2437 C2436 1.386 . S
C2437 C2441 1.393 . S
C2438 H2430 0.950 . S
C2438 C2436 1.391 . S
C2438 C2439 1.400 . S
C2439 C2438 1.400 . S
C2439 C2440 1.398 . S
C2439 C2445 1.491 . S
C2440 H2431 0.950 . S
C2440 C2439 1.398 . S
C2440 C2441 1.391 . S
C2441 H2429 0.950 . S
C2441 C2437 1.393 . S
C2441 C2440 1.391 . S
C2442 H2432 0.950 . S
C2442 C2443 1.386 . S
C2442 C2444 1.391 . S
C2443 C2442 1.386 . S
C2443 C2447 1.393 . S
C2444 H2433 0.950 . S
C2444 C2442 1.391 . S
C2444 C2445 1.400 . S
C2445 C2439 1.491 . S
C2445 C2444 1.400 . S
C2445 C2446 1.398 . S
C2446 H2434 0.950 . S
C2446 C2445 1.398 . S
C2446 C2447 1.391 . S
C2447 H2435 0.950 . S
C2447 C2443 1.393 . S
C2447 C2446 1.391 . S
H2448 C2456 0.950 . S
H2449 C2461 0.950 . S
H2450 C2458 0.950 . S
H2451 C2460 0.950 . S
H2452 C2462 0.950 . S
H2453 C2464 0.950 . S
H2454 C2466 0.950 . S
H2455 C2467 0.950 . S
C2456 H2448 0.950 . S
C2456 C2457 1.386 . S
C2456 C2458 1.391 . S
C2457 C2456 1.386 . S
C2457 C2461 1.393 . S
C2458 H2450 0.950 . S
C2458 C2456 1.391 . S
C2458 C2459 1.400 . S
C2459 C2458 1.400 . S
C2459 C2460 1.398 . S
C2459 C2465 1.491 . S
C2460 H2451 0.950 . S
C2460 C2459 1.398 . S
C2460 C2461 1.391 . S
C2461 H2449 0.950 . S
C2461 C2457 1.393 . S
C2461 C2460 1.391 . S
C2462 H2452 0.950 . S
C2462 C2463 1.386 . S
C2462 C2464 1.391 . S
C2463 C2462 1.386 . S
C2463 C2467 1.393 . S
C2464 H2453 0.950 . S
C2464 C2462 1.391 . S
C2464 C2465 1.400 . S
C2465 C2459 1.491 . S
C2465 C2464 1.400 . S
C2465 C2466 1.398 . S
C2466 H2454 0.950 . S
C2466 C2465 1.398 . S
C2466 C2467 1.391 . S
C2467 H2455 0.950 . S
C2467 C2463 1.393 . S
C2467 C2466 1.391 . S
H2468 C2476 0.950 . S
H2469 C2481 0.959 . S
H2470 C2478 0.950 . S
H2471 C2480 0.950 . S
H2472 C2482 0.950 . S
H2473 C2484 0.950 . S
H2474 C2486 0.950 . S
H2475 C2487 0.950 . S
C2476 H2468 0.950 . S
C2476 C2477 1.386 . S
C2476 C2478 1.391 . S
C2477 C2476 1.386 . S
C2477 C2481 1.392 1_455 S
C2478 H2470 0.950 . S
C2478 C2476 1.391 . S
C2478 C2479 1.400 . S
C2479 C2478 1.400 . S
C2479 C2480 1.398 . S
C2479 C2485 1.491 . S
C2480 H2471 0.950 . S
C2480 C2479 1.398 . S
C2480 C2481 1.382 1_455 S
C2481 H2469 0.959 . S
C2481 C2477 1.392 1_655 S
C2481 C2480 1.382 1_655 S
C2482 H2472 0.950 . S
C2482 C2483 1.386 . S
C2482 C2484 1.391 . S
C2483 C2482 1.386 . S
C2483 C2487 1.393 . S
C2484 H2473 0.950 . S
C2484 C2482 1.391 . S
C2484 C2485 1.400 . S
C2485 C2479 1.491 . S
C2485 C2484 1.400 . S
C2485 C2486 1.398 . S
C2486 H2474 0.950 . S
C2486 C2485 1.398 . S
C2486 C2487 1.391 . S
C2487 H2475 0.950 . S
C2487 C2483 1.393 . S
C2487 C2486 1.391 . S
H2488 C2496 0.950 . S
H2489 C2501 0.950 . S
H2490 C2498 0.950 . S
H2491 C2500 0.950 . S
H2492 C2502 0.950 . S
H2493 C2504 0.950 . S
H2494 C2506 0.950 . S
H2495 C2507 0.950 . S
C2496 H2488 0.950 . S
C2496 C2497 1.386 . S
C2496 C2498 1.391 . S
C2497 C2496 1.386 . S
C2497 C2501 1.393 . S
C2498 H2490 0.950 . S
C2498 C2496 1.391 . S
C2498 C2499 1.400 . S
C2499 C2498 1.400 . S
C2499 C2500 1.398 . S
C2499 C2505 1.491 . S
C2500 H2491 0.950 . S
C2500 C2499 1.398 . S
C2500 C2501 1.391 . S
C2501 H2489 0.950 . S
C2501 C2497 1.393 . S
C2501 C2500 1.391 . S
C2502 H2492 0.950 . S
C2502 C2503 1.386 . S
C2502 C2504 1.391 . S
C2503 C2502 1.386 . S
C2503 C2507 1.393 . S
C2504 H2493 0.950 . S
C2504 C2502 1.391 . S
C2504 C2505 1.400 . S
C2505 C2499 1.491 . S
C2505 C2504 1.400 . S
C2505 C2506 1.398 . S
C2506 H2494 0.950 . S
C2506 C2505 1.398 . S
C2506 C2507 1.391 . S
C2507 H2495 0.950 . S
C2507 C2503 1.393 . S
C2507 C2506 1.391 . S
H2508 C2516 0.950 . S
H2509 C2521 0.950 . S
H2510 C2518 0.950 . S
H2511 C2520 0.950 . S
H2512 C2522 0.950 . S
H2513 C2524 0.950 . S
H2514 C2526 0.950 . S
H2515 C2527 0.950 . S
C2516 H2508 0.950 . S
C2516 C2517 1.386 . S
C2516 C2518 1.391 . S
C2517 C2516 1.386 . S
C2517 C2521 1.393 . S
C2518 H2510 0.950 . S
C2518 C2516 1.391 . S
C2518 C2519 1.400 . S
C2519 C2518 1.400 . S
C2519 C2520 1.398 . S
C2519 C2525 1.491 . S
C2520 H2511 0.950 . S
C2520 C2519 1.398 . S
C2520 C2521 1.391 . S
C2521 H2509 0.950 . S
C2521 C2517 1.393 . S
C2521 C2520 1.391 . S
C2522 H2512 0.950 . S
C2522 C2523 1.386 . S
C2522 C2524 1.391 . S
C2523 C2522 1.386 . S
C2523 C2527 1.393 . S
C2524 H2513 0.950 . S
C2524 C2522 1.391 . S
C2524 C2525 1.400 . S
C2525 C2519 1.491 . S
C2525 C2524 1.400 . S
C2525 C2526 1.398 . S
C2526 H2514 0.950 . S
C2526 C2525 1.398 . S
C2526 C2527 1.391 . S
C2527 H2515 0.950 . S
C2527 C2523 1.393 . S
C2527 C2526 1.391 . S
H2528 C2536 0.950 . S
H2529 C2541 0.950 . S
H2530 C2538 0.950 . S
H2531 C2540 0.950 . S
H2532 C2542 0.950 . S
H2533 C2544 0.950 . S
H2534 C2546 0.950 . S
H2535 C2547 0.950 . S
C2536 H2528 0.950 . S
C2536 C2537 1.386 . S
C2536 C2538 1.391 . S
C2537 C2536 1.386 . S
C2537 C2541 1.393 . S
C2538 H2530 0.950 . S
C2538 C2536 1.391 . S
C2538 C2539 1.400 . S
C2539 C2538 1.400 . S
C2539 C2540 1.398 . S
C2539 C2545 1.491 . S
C2540 H2531 0.950 . S
C2540 C2539 1.398 . S
C2540 C2541 1.391 . S
C2541 H2529 0.950 . S
C2541 C2537 1.393 . S
C2541 C2540 1.391 . S
C2542 H2532 0.950 . S
C2542 C2543 1.386 . S
C2542 C2544 1.391 . S
C2543 C2542 1.386 . S
C2543 C2547 1.393 . S
C2544 H2533 0.950 . S
C2544 C2542 1.391 . S
C2544 C2545 1.400 . S
C2545 C2539 1.491 . S
C2545 C2544 1.400 . S
C2545 C2546 1.398 . S
C2546 H2534 0.950 . S
C2546 C2545 1.398 . S
C2546 C2547 1.391 . S
C2547 H2535 0.950 . S
C2547 C2543 1.393 . S
C2547 C2546 1.391 . S
H2548 C2556 0.950 . S
H2549 C2561 0.950 . S
H2550 C2558 0.950 1_545 S
H2551 C2560 0.950 . S
H2552 C2562 0.950 . S
H2553 C2564 0.950 1_565 S
H2554 C2566 0.950 . S
H2555 C2567 0.950 . S
C2556 H2548 0.950 . S
C2556 C2557 1.386 . S
C2556 C2558 1.391 . S
C2557 C2556 1.386 . S
C2557 C2561 1.393 . S
C2558 H2550 0.950 1_565 S
C2558 C2556 1.391 . S
C2558 C2559 1.400 . S
C2559 C2558 1.400 . S
C2559 C2560 1.398 1_655 S
C2559 C2565 1.491 1_665 S
C2560 H2551 0.950 . S
C2560 C2559 1.398 1_455 S
C2560 C2561 1.391 1_455 S
C2561 H2549 0.950 . S
C2561 C2557 1.393 . S
C2561 C2560 1.391 1_655 S
C2562 H2552 0.950 . S
C2562 C2563 1.386 . S
C2562 C2564 1.391 . S
C2563 C2562 1.386 . S
C2563 C2567 1.393 . S
C2564 H2553 0.950 1_545 S
C2564 C2562 1.391 . S
C2564 C2565 1.400 . S
C2565 C2559 1.491 1_445 S
C2565 C2564 1.400 . S
C2565 C2566 1.398 1_455 S
C2566 H2554 0.950 . S
C2566 C2565 1.398 1_655 S
C2566 C2567 1.391 1_655 S
C2567 H2555 0.950 . S
C2567 C2563 1.393 . S
C2567 C2566 1.391 1_455 S
H2568 C2576 0.950 . S
H2569 C2581 0.950 . S
H2570 C2578 0.950 . S
H2571 C2580 0.950 . S
H2572 C2582 0.950 . S
H2573 C2584 0.950 . S
H2574 C2586 0.950 . S
H2575 C2587 0.950 . S
C2576 H2568 0.950 . S
C2576 C2577 1.386 . S
C2576 C2578 1.391 . S
C2577 C2576 1.386 . S
C2577 C2581 1.393 . S
C2578 H2570 0.950 . S
C2578 C2576 1.391 . S
C2578 C2579 1.400 . S
C2579 C2578 1.400 . S
C2579 C2580 1.398 . S
C2579 C2585 1.491 . S
C2580 H2571 0.950 . S
C2580 C2579 1.398 . S
C2580 C2581 1.391 . S
C2581 H2569 0.950 . S
C2581 C2577 1.393 . S
C2581 C2580 1.391 . S
C2582 H2572 0.950 . S
C2582 C2583 1.386 . S
C2582 C2584 1.391 . S
C2583 C2582 1.386 . S
C2583 C2587 1.393 . S
C2584 H2573 0.950 . S
C2584 C2582 1.391 . S
C2584 C2585 1.400 . S
C2585 C2579 1.491 . S
C2585 C2584 1.400 . S
C2585 C2586 1.398 . S
C2586 H2574 0.950 . S
C2586 C2585 1.398 . S
C2586 C2587 1.391 . S
C2587 H2575 0.950 . S
C2587 C2583 1.393 . S
C2587 C2586 1.391 . S
H2588 C2596 0.950 . S
H2589 C2601 0.950 . S
H2590 C2598 0.950 1_565 S
H2591 C2600 0.969 . S
H2592 C2602 0.950 . S
H2593 C2604 0.950 1_545 S
H2594 C2606 0.969 . S
H2595 C2607 0.950 . S
C2596 H2588 0.950 . S
C2596 C2597 1.386 . S
C2596 C2598 1.391 . S
C2597 C2596 1.386 . S
C2597 C2601 1.393 . S
C2598 H2590 0.950 1_545 S
C2598 C2596 1.391 . S
C2598 C2599 1.400 . S
C2599 C2598 1.400 . S
C2599 C2600 1.391 1_554 S
C2599 C2605 1.491 1_544 S
C2600 H2591 0.969 . S
C2600 C2599 1.391 1_556 S
C2600 C2601 1.381 1_556 S
C2601 H2589 0.950 . S
C2601 C2597 1.393 . S
C2601 C2600 1.381 1_554 S
C2602 H2592 0.950 . S
C2602 C2603 1.386 . S
C2602 C2604 1.391 . S
C2603 C2602 1.386 . S
C2603 C2607 1.393 . S
C2604 H2593 0.950 1_565 S
C2604 C2602 1.391 . S
C2604 C2605 1.400 . S
C2605 C2599 1.491 1_566 S
C2605 C2604 1.400 . S
C2605 C2606 1.391 1_556 S
C2606 H2594 0.969 . S
C2606 C2605 1.391 1_554 S
C2606 C2607 1.381 1_554 S
C2607 H2595 0.950 . S
C2607 C2603 1.393 . S
C2607 C2606 1.381 1_556 S
H2608 C2616 0.950 . S
H2609 C2621 0.950 . S
H2610 C2618 0.950 . S
H2611 C2620 0.950 . S
H2612 C2622 0.950 . S
H2613 C2624 0.950 . S
H2614 C2626 0.950 . S
H2615 C2627 0.950 . S
C2616 H2608 0.950 . S
C2616 C2617 1.386 . S
C2616 C2618 1.391 . S
C2617 C2616 1.386 . S
C2617 C2621 1.393 . S
C2618 H2610 0.950 . S
C2618 C2616 1.391 . S
C2618 C2619 1.400 . S
C2619 C2618 1.400 . S
C2619 C2620 1.398 . S
C2619 C2625 1.491 . S
C2620 H2611 0.950 . S
C2620 C2619 1.398 . S
C2620 C2621 1.391 . S
C2621 H2609 0.950 . S
C2621 C2617 1.393 . S
C2621 C2620 1.391 . S
C2622 H2612 0.950 . S
C2622 C2623 1.386 . S
C2622 C2624 1.391 . S
C2623 C2622 1.386 . S
C2623 C2627 1.393 . S
C2624 H2613 0.950 . S
C2624 C2622 1.391 . S
C2624 C2625 1.400 . S
C2625 C2619 1.491 . S
C2625 C2624 1.400 . S
C2625 C2626 1.398 . S
C2626 H2614 0.950 . S
C2626 C2625 1.398 . S
C2626 C2627 1.391 . S
C2627 H2615 0.950 . S
C2627 C2623 1.393 . S
C2627 C2626 1.391 . S
H2628 C2636 0.950 . S
H2629 C2641 0.950 . S
H2630 C2638 0.950 1_545 S
H2631 C2640 0.950 . S
H2632 C2642 0.950 . S
H2633 C2644 0.950 1_565 S
H2634 C2646 0.950 . S
H2635 C2647 0.950 . S
C2636 H2628 0.950 . S
C2636 C2637 1.386 . S
C2636 C2638 1.391 . S
C2637 C2636 1.386 . S
C2637 C2641 1.393 . S
C2638 H2630 0.950 1_565 S
C2638 C2636 1.391 . S
C2638 C2639 1.400 . S
C2639 C2638 1.400 . S
C2639 C2640 1.398 . S
C2639 C2645 1.491 1_565 S
C2640 H2631 0.950 . S
C2640 C2639 1.398 . S
C2640 C2641 1.391 . S
C2641 H2629 0.950 . S
C2641 C2637 1.393 . S
C2641 C2640 1.391 . S
C2642 H2632 0.950 . S
C2642 C2643 1.386 . S
C2642 C2644 1.391 . S
C2643 C2642 1.386 . S
C2643 C2647 1.393 . S
C2644 H2633 0.950 1_545 S
C2644 C2642 1.391 . S
C2644 C2645 1.400 . S
C2645 C2639 1.491 1_545 S
C2645 C2644 1.400 . S
C2645 C2646 1.398 . S
C2646 H2634 0.950 . S
C2646 C2645 1.398 . S
C2646 C2647 1.391 . S
C2647 H2635 0.950 . S
C2647 C2643 1.393 . S
C2647 C2646 1.391 . S
H2648 C2656 0.950 . S
H2649 C2661 0.950 . S
H2650 C2658 0.950 . S
H2651 C2660 0.950 . S
H2652 C2662 0.950 . S
H2653 C2664 0.950 . S
H2654 C2666 0.950 . S
H2655 C2667 0.950 . S
C2656 H2648 0.950 . S
C2656 C2657 1.386 . S
C2656 C2658 1.391 . S
C2657 C2656 1.386 . S
C2657 C2661 1.393 . S
C2658 H2650 0.950 . S
C2658 C2656 1.391 . S
C2658 C2659 1.400 . S
C2659 C2658 1.400 . S
C2659 C2660 1.398 . S
C2659 C2665 1.491 . S
C2660 H2651 0.950 . S
C2660 C2659 1.398 . S
C2660 C2661 1.391 . S
C2661 H2649 0.950 . S
C2661 C2657 1.393 . S
C2661 C2660 1.391 . S
C2662 H2652 0.950 . S
C2662 C2663 1.386 . S
C2662 C2664 1.391 . S
C2663 C2662 1.386 . S
C2663 C2667 1.393 . S
C2664 H2653 0.950 . S
C2664 C2662 1.391 . S
C2664 C2665 1.400 . S
C2665 C2659 1.491 . S
C2665 C2664 1.400 . S
C2665 C2666 1.398 . S
C2666 H2654 0.950 . S
C2666 C2665 1.398 . S
C2666 C2667 1.391 . S
C2667 H2655 0.950 . S
C2667 C2663 1.393 . S
C2667 C2666 1.391 . S
H2668 C2676 0.950 . S
H2669 C2681 0.950 1_554 S
H2670 C2678 0.950 1_565 S
H2671 C2680 0.952 . S
H2672 C2682 0.950 . S
H2673 C2684 0.950 1_545 S
H2674 C2686 0.952 . S
H2675 C2687 0.950 1_556 S
C2676 H2668 0.950 . S
C2676 C2677 1.386 . S
C2676 C2678 1.391 . S
C2677 C2676 1.386 . S
C2677 C2681 1.393 . S
C2678 H2670 0.950 1_545 S
C2678 C2676 1.391 . S
C2678 C2679 1.400 . S
C2679 C2678 1.400 . S
C2679 C2680 1.397 1_656 S
C2679 C2685 1.491 1_646 S
C2680 H2671 0.952 . S
C2680 C2679 1.397 1_454 S
C2680 C2681 1.389 1_454 S
C2681 H2669 0.950 1_556 S
C2681 C2677 1.393 . S
C2681 C2680 1.389 1_656 S
C2682 H2672 0.950 . S
C2682 C2683 1.386 . S
C2682 C2684 1.391 . S
C2683 C2682 1.386 . S
C2683 C2687 1.393 . S
C2684 H2673 0.950 1_565 S
C2684 C2682 1.391 . S
C2684 C2685 1.400 . S
C2685 C2679 1.491 1_464 S
C2685 C2684 1.400 . S
C2685 C2686 1.397 1_454 S
C2686 H2674 0.952 . S
C2686 C2685 1.397 1_656 S
C2686 C2687 1.389 1_656 S
C2687 H2675 0.950 1_554 S
C2687 C2683 1.393 . S
C2687 C2686 1.389 1_454 S
H2688 C2696 0.950 . S
H2689 C2701 0.950 . S
H2690 C2698 0.950 . S
H2691 C2700 0.950 . S
H2692 C2702 0.950 . S
H2693 C2704 0.950 . S
H2694 C2706 0.950 . S
H2695 C2707 0.950 . S
C2696 H2688 0.950 . S
C2696 C2697 1.386 . S
C2696 C2698 1.391 . S
C2697 C2696 1.386 . S
C2697 C2701 1.393 . S
C2698 H2690 0.950 . S
C2698 C2696 1.391 . S
C2698 C2699 1.400 . S
C2699 C2698 1.400 . S
C2699 C2700 1.398 . S
C2699 C2705 1.491 . S
C2700 H2691 0.950 . S
C2700 C2699 1.398 . S
C2700 C2701 1.391 . S
C2701 H2689 0.950 . S
C2701 C2697 1.393 . S
C2701 C2700 1.391 . S
C2702 H2692 0.950 . S
C2702 C2703 1.386 . S
C2702 C2704 1.391 . S
C2703 C2702 1.386 . S
C2703 C2707 1.393 . S
C2704 H2693 0.950 . S
C2704 C2702 1.391 . S
C2704 C2705 1.400 . S
C2705 C2699 1.491 . S
C2705 C2704 1.400 . S
C2705 C2706 1.398 . S
C2706 H2694 0.950 . S
C2706 C2705 1.398 . S
C2706 C2707 1.391 . S
C2707 H2695 0.950 . S
C2707 C2703 1.393 . S
C2707 C2706 1.391 . S
H2708 C2716 0.950 . S
H2709 C2721 0.950 . S
H2710 C2718 0.950 . S
H2711 C2720 0.950 . S
H2712 C2722 0.950 . S
H2713 C2724 0.950 . S
H2714 C2726 0.950 . S
H2715 C2727 0.950 . S
C2716 H2708 0.950 . S
C2716 C2717 1.386 . S
C2716 C2718 1.391 . S
C2717 C2716 1.386 . S
C2717 C2721 1.393 . S
C2718 H2710 0.950 . S
C2718 C2716 1.391 . S
C2718 C2719 1.400 . S
C2719 C2718 1.400 . S
C2719 C2720 1.398 . S
C2719 C2725 1.491 . S
C2720 H2711 0.950 . S
C2720 C2719 1.398 . S
C2720 C2721 1.391 . S
C2721 H2709 0.950 . S
C2721 C2717 1.393 . S
C2721 C2720 1.391 . S
C2722 H2712 0.950 . S
C2722 C2723 1.386 . S
C2722 C2724 1.391 . S
C2723 C2722 1.386 . S
C2723 C2727 1.393 . S
C2724 H2713 0.950 . S
C2724 C2722 1.391 . S
C2724 C2725 1.400 . S
C2725 C2719 1.491 . S
C2725 C2724 1.400 . S
C2725 C2726 1.398 . S
C2726 H2714 0.950 . S
C2726 C2725 1.398 . S
C2726 C2727 1.391 . S
C2727 H2715 0.950 . S
C2727 C2723 1.393 . S
C2727 C2726 1.391 . S
H2728 C2736 0.950 . S
H2729 C2741 0.950 . S
H2730 C2738 0.950 . S
H2731 C2740 0.950 . S
H2732 C2742 0.950 . S
H2733 C2744 0.950 . S
H2734 C2746 0.950 . S
H2735 C2747 0.950 . S
C2736 H2728 0.950 . S
C2736 C2737 1.386 . S
C2736 C2738 1.391 . S
C2737 C2736 1.386 . S
C2737 C2741 1.393 . S
C2738 H2730 0.950 . S
C2738 C2736 1.391 . S
C2738 C2739 1.400 . S
C2739 C2738 1.400 . S
C2739 C2740 1.398 . S
C2739 C2745 1.491 . S
C2740 H2731 0.950 . S
C2740 C2739 1.398 . S
C2740 C2741 1.391 . S
C2741 H2729 0.950 . S
C2741 C2737 1.393 . S
C2741 C2740 1.391 . S
C2742 H2732 0.950 . S
C2742 C2743 1.386 . S
C2742 C2744 1.391 . S
C2743 C2742 1.386 . S
C2743 C2747 1.393 . S
C2744 H2733 0.950 . S
C2744 C2742 1.391 . S
C2744 C2745 1.400 . S
C2745 C2739 1.491 . S
C2745 C2744 1.400 . S
C2745 C2746 1.398 . S
C2746 H2734 0.950 . S
C2746 C2745 1.398 . S
C2746 C2747 1.391 . S
C2747 H2735 0.950 . S
C2747 C2743 1.393 . S
C2747 C2746 1.391 . S
H2748 C2756 0.950 . S
H2749 C2761 0.950 . S
H2750 C2758 0.950 . S
H2751 C2760 0.950 . S
H2752 C2762 0.950 . S
H2753 C2764 0.950 . S
H2754 C2766 0.950 . S
H2755 C2767 0.950 . S
C2756 H2748 0.950 . S
C2756 C2757 1.386 . S
C2756 C2758 1.391 . S
C2757 C2756 1.386 . S
C2757 C2761 1.393 . S
C2758 H2750 0.950 . S
C2758 C2756 1.391 . S
C2758 C2759 1.400 . S
C2759 C2758 1.400 . S
C2759 C2760 1.398 . S
C2759 C2765 1.491 . S
C2760 H2751 0.950 . S
C2760 C2759 1.398 . S
C2760 C2761 1.391 . S
C2761 H2749 0.950 . S
C2761 C2757 1.393 . S
C2761 C2760 1.391 . S
C2762 H2752 0.950 . S
C2762 C2763 1.386 . S
C2762 C2764 1.391 . S
C2763 C2762 1.386 . S
C2763 C2767 1.393 . S
C2764 H2753 0.950 . S
C2764 C2762 1.391 . S
C2764 C2765 1.400 . S
C2765 C2759 1.491 . S
C2765 C2764 1.400 . S
C2765 C2766 1.398 . S
C2766 H2754 0.950 . S
C2766 C2765 1.398 . S
C2766 C2767 1.391 . S
C2767 H2755 0.950 . S
C2767 C2763 1.393 . S
C2767 C2766 1.391 . S
H2768 C2776 0.950 . S
H2769 C2781 0.950 . S
H2770 C2778 0.950 . S
H2771 C2780 0.950 1_556 S
H2772 C2782 0.950 . S
H2773 C2784 0.950 . S
H2774 C2786 0.950 1_554 S
H2775 C2787 0.950 . S
C2776 H2768 0.950 . S
C2776 C2777 1.386 . S
C2776 C2778 1.391 . S
C2777 C2776 1.386 . S
C2777 C2781 1.393 . S
C2778 H2770 0.950 . S
C2778 C2776 1.391 . S
C2778 C2779 1.400 . S
C2779 C2778 1.400 . S
C2779 C2780 1.398 . S
C2779 C2785 1.491 1_554 S
C2780 H2771 0.950 1_554 S
C2780 C2779 1.398 . S
C2780 C2781 1.391 . S
C2781 H2769 0.950 . S
C2781 C2777 1.393 . S
C2781 C2780 1.391 . S
C2782 H2772 0.950 . S
C2782 C2783 1.386 . S
C2782 C2784 1.391 . S
C2783 C2782 1.386 . S
C2783 C2787 1.393 . S
C2784 H2773 0.950 . S
C2784 C2782 1.391 . S
C2784 C2785 1.400 . S
C2785 C2779 1.491 1_556 S
C2785 C2784 1.400 . S
C2785 C2786 1.398 . S
C2786 H2774 0.950 1_556 S
C2786 C2785 1.398 . S
C2786 C2787 1.391 . S
C2787 H2775 0.950 . S
C2787 C2783 1.393 . S
C2787 C2786 1.391 . S
H2788 C2796 0.950 . S
H2789 C2801 0.950 . S
H2790 C2798 0.950 . S
H2791 C2800 0.950 . S
H2792 C2802 0.950 . S
H2793 C2804 0.950 . S
H2794 C2806 0.950 . S
H2795 C2807 0.950 . S
C2796 H2788 0.950 . S
C2796 C2797 1.386 . S
C2796 C2798 1.391 . S
C2797 C2796 1.386 . S
C2797 C2801 1.393 . S
C2798 H2790 0.950 . S
C2798 C2796 1.391 . S
C2798 C2799 1.400 . S
C2799 C2798 1.400 . S
C2799 C2800 1.398 1_655 S
C2799 C2805 1.491 1_655 S
C2800 H2791 0.950 . S
C2800 C2799 1.398 1_455 S
C2800 C2801 1.391 1_455 S
C2801 H2789 0.950 . S
C2801 C2797 1.393 . S
C2801 C2800 1.391 1_655 S
C2802 H2792 0.950 . S
C2802 C2803 1.386 . S
C2802 C2804 1.391 . S
C2803 C2802 1.386 . S
C2803 C2807 1.393 . S
C2804 H2793 0.950 . S
C2804 C2802 1.391 . S
C2804 C2805 1.400 . S
C2805 C2799 1.491 1_455 S
C2805 C2804 1.400 . S
C2805 C2806 1.398 1_455 S
C2806 H2794 0.950 . S
C2806 C2805 1.398 1_655 S
C2806 C2807 1.391 1_655 S
C2807 H2795 0.950 . S
C2807 C2803 1.393 . S
C2807 C2806 1.391 1_455 S
H2808 C2816 0.950 . S
H2809 C2821 0.950 . S
H2810 C2818 0.969 . S
H2811 C2820 0.950 . S
H2812 C2822 0.950 . S
H2813 C2824 0.969 . S
H2814 C2826 0.950 . S
H2815 C2827 0.950 . S
C2816 H2808 0.950 . S
C2816 C2817 1.386 1_554 S
C2816 C2818 1.391 . S
C2817 C2816 1.386 1_556 S
C2817 C2821 1.393 . S
C2818 H2810 0.969 . S
C2818 C2816 1.391 . S
C2818 C2819 1.400 1_554 S
C2819 C2818 1.400 1_556 S
C2819 C2820 1.398 . S
C2819 C2825 1.491 1_456 S
C2820 H2811 0.950 . S
C2820 C2819 1.398 . S
C2820 C2821 1.391 . S
C2821 H2809 0.950 . S
C2821 C2817 1.393 . S
C2821 C2820 1.391 . S
C2822 H2812 0.950 . S
C2822 C2823 1.386 1_556 S
C2822 C2824 1.391 . S
C2823 C2822 1.386 1_554 S
C2823 C2827 1.393 . S
C2824 H2813 0.969 . S
C2824 C2822 1.391 . S
C2824 C2825 1.400 1_556 S
C2825 C2819 1.491 1_654 S
C2825 C2824 1.400 1_554 S
C2825 C2826 1.398 . S
C2826 H2814 0.950 . S
C2826 C2825 1.398 . S
C2826 C2827 1.391 . S
C2827 H2815 0.950 . S
C2827 C2823 1.393 . S
C2827 C2826 1.391 . S
H2828 C2836 0.950 . S
H2829 C2841 0.950 . S
H2830 C2838 0.950 . S
H2831 C2840 0.950 . S
H2832 C2842 0.950 . S
H2833 C2844 0.950 . S
H2834 C2846 0.950 . S
H2835 C2847 0.950 . S
C2836 H2828 0.950 . S
C2836 C2837 1.386 . S
C2836 C2838 1.391 . S
C2837 C2836 1.386 . S
C2837 C2841 1.393 . S
C2838 H2830 0.950 . S
C2838 C2836 1.391 . S
C2838 C2839 1.400 . S
C2839 C2838 1.400 . S
C2839 C2840 1.398 . S
C2839 C2845 1.491 . S
C2840 H2831 0.950 . S
C2840 C2839 1.398 . S
C2840 C2841 1.391 . S
C2841 H2829 0.950 . S
C2841 C2837 1.393 . S
C2841 C2840 1.391 . S
C2842 H2832 0.950 . S
C2842 C2843 1.386 . S
C2842 C2844 1.391 . S
C2843 C2842 1.386 . S
C2843 C2847 1.393 . S
C2844 H2833 0.950 . S
C2844 C2842 1.391 . S
C2844 C2845 1.400 . S
C2845 C2839 1.491 . S
C2845 C2844 1.400 . S
C2845 C2846 1.398 . S
C2846 H2834 0.950 . S
C2846 C2845 1.398 . S
C2846 C2847 1.391 . S
C2847 H2835 0.950 . S
C2847 C2843 1.393 . S
C2847 C2846 1.391 . S
H2848 C2856 0.950 . S
H2849 C2861 0.950 . S
H2850 C2858 0.950 . S
H2851 C2860 0.950 . S
H2852 C2862 0.950 . S
H2853 C2864 0.950 . S
H2854 C2866 0.950 . S
H2855 C2867 0.950 . S
C2856 H2848 0.950 . S
C2856 C2857 1.386 . S
C2856 C2858 1.391 . S
C2857 C2856 1.386 . S
C2857 C2861 1.393 . S
C2858 H2850 0.950 . S
C2858 C2856 1.391 . S
C2858 C2859 1.400 . S
C2859 C2858 1.400 . S
C2859 C2860 1.398 . S
C2859 C2865 1.491 . S
C2860 H2851 0.950 . S
C2860 C2859 1.398 . S
C2860 C2861 1.391 . S
C2861 H2849 0.950 . S
C2861 C2857 1.393 . S
C2861 C2860 1.391 . S
C2862 H2852 0.950 . S
C2862 C2863 1.386 . S
C2862 C2864 1.391 . S
C2863 C2862 1.386 . S
C2863 C2867 1.393 . S
C2864 H2853 0.950 . S
C2864 C2862 1.391 . S
C2864 C2865 1.400 . S
C2865 C2859 1.491 . S
C2865 C2864 1.400 . S
C2865 C2866 1.398 . S
C2866 H2854 0.950 . S
C2866 C2865 1.398 . S
C2866 C2867 1.391 . S
C2867 H2855 0.950 . S
C2867 C2863 1.393 . S
C2867 C2866 1.391 . S
H2868 C2876 0.950 . S
H2869 C2881 0.950 . S
H2870 C2878 0.950 . S
H2871 C2880 0.950 . S
H2872 C2882 0.950 . S
H2873 C2884 0.950 . S
H2874 C2886 0.950 . S
H2875 C2887 0.950 . S
C2876 H2868 0.950 . S
C2876 C2877 1.386 . S
C2876 C2878 1.391 . S
C2877 C2876 1.386 . S
C2877 C2881 1.393 . S
C2878 H2870 0.950 . S
C2878 C2876 1.391 . S
C2878 C2879 1.400 . S
C2879 C2878 1.400 . S
C2879 C2880 1.398 . S
C2879 C2885 1.491 . S
C2880 H2871 0.950 . S
C2880 C2879 1.398 . S
C2880 C2881 1.391 . S
C2881 H2869 0.950 . S
C2881 C2877 1.393 . S
C2881 C2880 1.391 . S
C2882 H2872 0.950 . S
C2882 C2883 1.386 . S
C2882 C2884 1.391 . S
C2883 C2882 1.386 . S
C2883 C2887 1.393 . S
C2884 H2873 0.950 . S
C2884 C2882 1.391 . S
C2884 C2885 1.400 . S
C2885 C2879 1.491 . S
C2885 C2884 1.400 . S
C2885 C2886 1.398 . S
C2886 H2874 0.950 . S
C2886 C2885 1.398 . S
C2886 C2887 1.391 . S
C2887 H2875 0.950 . S
C2887 C2883 1.393 . S
C2887 C2886 1.391 . S
H2888 C2896 0.950 . S
H2889 C2901 0.950 . S
H2890 C2898 0.950 . S
H2891 C2900 0.950 . S
H2892 C2902 0.950 . S
H2893 C2904 0.950 . S
H2894 C2906 0.950 . S
H2895 C2907 0.950 . S
C2896 H2888 0.950 . S
C2896 C2897 1.386 . S
C2896 C2898 1.391 . S
C2897 C2896 1.386 . S
C2897 C2901 1.393 . S
C2898 H2890 0.950 . S
C2898 C2896 1.391 . S
C2898 C2899 1.400 . S
C2899 C2898 1.400 . S
C2899 C2900 1.398 . S
C2899 C2905 1.491 . S
C2900 H2891 0.950 . S
C2900 C2899 1.398 . S
C2900 C2901 1.391 . S
C2901 H2889 0.950 . S
C2901 C2897 1.393 . S
C2901 C2900 1.391 . S
C2902 H2892 0.950 . S
C2902 C2903 1.386 . S
C2902 C2904 1.391 . S
C2903 C2902 1.386 . S
C2903 C2907 1.393 . S
C2904 H2893 0.950 . S
C2904 C2902 1.391 . S
C2904 C2905 1.400 . S
C2905 C2899 1.491 . S
C2905 C2904 1.400 . S
C2905 C2906 1.398 . S
C2906 H2894 0.950 . S
C2906 C2905 1.398 . S
C2906 C2907 1.391 . S
C2907 H2895 0.950 . S
C2907 C2903 1.393 . S
C2907 C2906 1.391 . S
H2908 C2916 0.950 . S
H2909 C2921 0.950 . S
H2910 C2918 0.950 . S
H2911 C2920 0.950 . S
H2912 C2922 0.950 . S
H2913 C2924 0.950 . S
H2914 C2926 0.950 . S
H2915 C2927 0.950 . S
C2916 H2908 0.950 . S
C2916 C2917 1.386 . S
C2916 C2918 1.391 . S
C2917 C2916 1.386 . S
C2917 C2921 1.393 . S
C2918 H2910 0.950 . S
C2918 C2916 1.391 . S
C2918 C2919 1.400 . S
C2919 C2918 1.400 . S
C2919 C2920 1.398 . S
C2919 C2925 1.491 . S
C2920 H2911 0.950 . S
C2920 C2919 1.398 . S
C2920 C2921 1.391 . S
C2921 H2909 0.950 . S
C2921 C2917 1.393 . S
C2921 C2920 1.391 . S
C2922 H2912 0.950 . S
C2922 C2923 1.386 . S
C2922 C2924 1.391 . S
C2923 C2922 1.386 . S
C2923 C2927 1.393 . S
C2924 H2913 0.950 . S
C2924 C2922 1.391 . S
C2924 C2925 1.400 . S
C2925 C2919 1.491 . S
C2925 C2924 1.400 . S
C2925 C2926 1.398 . S
C2926 H2914 0.950 . S
C2926 C2925 1.398 . S
C2926 C2927 1.391 . S
C2927 H2915 0.950 . S
C2927 C2923 1.393 . S
C2927 C2926 1.391 . S
H2928 C2936 0.950 . S
H2929 C2941 0.950 . S
H2930 C2938 0.950 . S
H2931 C2940 0.950 . S
H2932 C2942 0.950 . S
H2933 C2944 0.950 . S
H2934 C2946 0.950 . S
H2935 C2947 0.950 . S
C2936 H2928 0.950 . S
C2936 C2937 1.386 . S
C2936 C2938 1.391 . S
C2937 C2936 1.386 . S
C2937 C2941 1.393 . S
C2938 H2930 0.950 . S
C2938 C2936 1.391 . S
C2938 C2939 1.400 . S
C2939 C2938 1.400 . S
C2939 C2940 1.398 . S
C2939 C2945 1.491 . S
C2940 H2931 0.950 . S
C2940 C2939 1.398 . S
C2940 C2941 1.391 . S
C2941 H2929 0.950 . S
C2941 C2937 1.393 . S
C2941 C2940 1.391 . S
C2942 H2932 0.950 . S
C2942 C2943 1.386 . S
C2942 C2944 1.391 . S
C2943 C2942 1.386 . S
C2943 C2947 1.393 . S
C2944 H2933 0.950 . S
C2944 C2942 1.391 . S
C2944 C2945 1.400 . S
C2945 C2939 1.491 . S
C2945 C2944 1.400 . S
C2945 C2946 1.398 . S
C2946 H2934 0.950 . S
C2946 C2945 1.398 . S
C2946 C2947 1.391 . S
C2947 H2935 0.950 . S
C2947 C2943 1.393 . S
C2947 C2946 1.391 . S
H2948 C2956 0.950 . S
H2949 C2961 0.950 . S
H2950 C2958 0.950 . S
H2951 C2960 0.950 . S
H2952 C2962 0.950 . S
H2953 C2964 0.950 . S
H2954 C2966 0.950 . S
H2955 C2967 0.950 . S
C2956 H2948 0.950 . S
C2956 C2957 1.386 . S
C2956 C2958 1.391 . S
C2957 C2956 1.386 . S
C2957 C2961 1.393 . S
C2958 H2950 0.950 . S
C2958 C2956 1.391 . S
C2958 C2959 1.400 . S
C2959 C2958 1.400 . S
C2959 C2960 1.398 . S
C2959 C2965 1.491 . S
C2960 H2951 0.950 . S
C2960 C2959 1.398 . S
C2960 C2961 1.391 . S
C2961 H2949 0.950 . S
C2961 C2957 1.393 . S
C2961 C2960 1.391 . S
C2962 H2952 0.950 . S
C2962 C2963 1.386 . S
C2962 C2964 1.391 . S
C2963 C2962 1.386 . S
C2963 C2967 1.393 . S
C2964 H2953 0.950 . S
C2964 C2962 1.391 . S
C2964 C2965 1.400 . S
C2965 C2959 1.491 . S
C2965 C2964 1.400 . S
C2965 C2966 1.398 . S
C2966 H2954 0.950 . S
C2966 C2965 1.398 . S
C2966 C2967 1.391 . S
C2967 H2955 0.950 . S
C2967 C2963 1.393 . S
C2967 C2966 1.391 . S
H2968 C2976 0.950 . S
H2969 C2981 0.950 . S
H2970 C2978 0.950 . S
H2971 C2980 0.950 . S
H2972 C2982 0.950 . S
H2973 C2984 0.950 . S
H2974 C2986 0.950 . S
H2975 C2987 0.950 . S
C2976 H2968 0.950 . S
C2976 C2977 1.386 . S
C2976 C2978 1.391 . S
C2977 C2976 1.386 . S
C2977 C2981 1.393 . S
C2978 H2970 0.950 . S
C2978 C2976 1.391 . S
C2978 C2979 1.400 . S
C2979 C2978 1.400 . S
C2979 C2980 1.398 . S
C2979 C2985 1.491 . S
C2980 H2971 0.950 . S
C2980 C2979 1.398 . S
C2980 C2981 1.391 . S
C2981 H2969 0.950 . S
C2981 C2977 1.393 . S
C2981 C2980 1.391 . S
C2982 H2972 0.950 . S
C2982 C2983 1.386 . S
C2982 C2984 1.391 . S
C2983 C2982 1.386 . S
C2983 C2987 1.393 . S
C2984 H2973 0.950 . S
C2984 C2982 1.391 . S
C2984 C2985 1.400 . S
C2985 C2979 1.491 . S
C2985 C2984 1.400 . S
C2985 C2986 1.398 . S
C2986 H2974 0.950 . S
C2986 C2985 1.398 . S
C2986 C2987 1.391 . S
C2987 H2975 0.950 . S
C2987 C2983 1.393 . S
C2987 C2986 1.391 . S
H2988 C2996 0.950 . S
H2989 C3001 0.950 . S
H2990 C2998 0.950 . S
H2991 C3000 0.950 . S
H2992 C3002 0.950 . S
H2993 C3004 0.950 . S
H2994 C3006 0.950 . S
H2995 C3007 0.950 . S
C2996 H2988 0.950 . S
C2996 C2997 1.386 . S
C2996 C2998 1.391 . S
C2997 C2996 1.386 . S
C2997 C3001 1.393 . S
C2998 H2990 0.950 . S
C2998 C2996 1.391 . S
C2998 C2999 1.400 . S
C2999 C2998 1.400 . S
C2999 C3000 1.398 . S
C2999 C3005 1.491 . S
C3000 H2991 0.950 . S
C3000 C2999 1.398 . S
C3000 C3001 1.391 . S
C3001 H2989 0.950 . S
C3001 C2997 1.393 . S
C3001 C3000 1.391 . S
C3002 H2992 0.950 . S
C3002 C3003 1.386 . S
C3002 C3004 1.391 . S
C3003 C3002 1.386 . S
C3003 C3007 1.393 . S
C3004 H2993 0.950 . S
C3004 C3002 1.391 . S
C3004 C3005 1.400 . S
C3005 C2999 1.491 . S
C3005 C3004 1.400 . S
C3005 C3006 1.398 . S
C3006 H2994 0.950 . S
C3006 C3005 1.398 . S
C3006 C3007 1.391 . S
C3007 H2995 0.950 . S
C3007 C3003 1.393 . S
C3007 C3006 1.391 . S
H3008 C3016 0.950 . S
H3009 C3021 0.950 . S
H3010 C3018 0.950 . S
H3011 C3020 0.950 . S
H3012 C3022 0.950 . S
H3013 C3024 0.950 . S
H3014 C3026 0.950 . S
H3015 C3027 0.950 . S
C3016 H3008 0.950 . S
C3016 C3017 1.386 . S
C3016 C3018 1.391 . S
C3017 C3016 1.386 . S
C3017 C3021 1.393 . S
C3018 H3010 0.950 . S
C3018 C3016 1.391 . S
C3018 C3019 1.400 . S
C3019 C3018 1.400 . S
C3019 C3020 1.398 . S
C3019 C3025 1.491 . S
C3020 H3011 0.950 . S
C3020 C3019 1.398 . S
C3020 C3021 1.391 . S
C3021 H3009 0.950 . S
C3021 C3017 1.393 . S
C3021 C3020 1.391 . S
C3022 H3012 0.950 . S
C3022 C3023 1.386 . S
C3022 C3024 1.391 . S
C3023 C3022 1.386 . S
C3023 C3027 1.393 . S
C3024 H3013 0.950 . S
C3024 C3022 1.391 . S
C3024 C3025 1.400 . S
C3025 C3019 1.491 . S
C3025 C3024 1.400 . S
C3025 C3026 1.398 . S
C3026 H3014 0.950 . S
C3026 C3025 1.398 . S
C3026 C3027 1.391 . S
C3027 H3015 0.950 . S
C3027 C3023 1.393 . S
C3027 C3026 1.391 . S
H3028 C3036 0.950 . S
H3029 C3041 0.950 . S
H3030 C3038 0.950 . S
H3031 C3040 0.950 . S
H3032 C3042 0.950 . S
H3033 C3044 0.950 . S
H3034 C3046 0.950 . S
H3035 C3047 0.950 . S
C3036 H3028 0.950 . S
C3036 C3037 1.386 . S
C3036 C3038 1.391 . S
C3037 C3036 1.386 . S
C3037 C3041 1.393 . S
C3038 H3030 0.950 . S
C3038 C3036 1.391 . S
C3038 C3039 1.400 . S
C3039 C3038 1.400 . S
C3039 C3040 1.398 . S
C3039 C3045 1.491 . S
C3040 H3031 0.950 . S
C3040 C3039 1.398 . S
C3040 C3041 1.391 . S
C3041 H3029 0.950 . S
C3041 C3037 1.393 . S
C3041 C3040 1.391 . S
C3042 H3032 0.950 . S
C3042 C3043 1.386 . S
C3042 C3044 1.391 . S
C3043 C3042 1.386 . S
C3043 C3047 1.393 . S
C3044 H3033 0.950 . S
C3044 C3042 1.391 . S
C3044 C3045 1.400 . S
C3045 C3039 1.491 . S
C3045 C3044 1.400 . S
C3045 C3046 1.398 . S
C3046 H3034 0.950 . S
C3046 C3045 1.398 . S
C3046 C3047 1.391 . S
C3047 H3035 0.950 . S
C3047 C3043 1.393 . S
C3047 C3046 1.391 . S
H3048 C3056 0.950 . S
H3049 C3061 0.950 . S
H3050 C3058 0.950 . S
H3051 C3060 0.950 . S
H3052 C3062 0.950 . S
H3053 C3064 0.950 . S
H3054 C3066 0.950 . S
H3055 C3067 0.950 . S
C3056 H3048 0.950 . S
C3056 C3057 1.386 . S
C3056 C3058 1.391 . S
C3057 C3056 1.386 . S
C3057 C3061 1.393 . S
C3058 H3050 0.950 . S
C3058 C3056 1.391 . S
C3058 C3059 1.400 . S
C3059 C3058 1.400 . S
C3059 C3060 1.398 . S
C3059 C3065 1.491 . S
C3060 H3051 0.950 . S
C3060 C3059 1.398 . S
C3060 C3061 1.391 . S
C3061 H3049 0.950 . S
C3061 C3057 1.393 . S
C3061 C3060 1.391 . S
C3062 H3052 0.950 . S
C3062 C3063 1.386 . S
C3062 C3064 1.391 . S
C3063 C3062 1.386 . S
C3063 C3067 1.393 . S
C3064 H3053 0.950 . S
C3064 C3062 1.391 . S
C3064 C3065 1.400 . S
C3065 C3059 1.491 . S
C3065 C3064 1.400 . S
C3065 C3066 1.398 . S
C3066 H3054 0.950 . S
C3066 C3065 1.398 . S
C3066 C3067 1.391 . S
C3067 H3055 0.950 . S
C3067 C3063 1.393 . S
C3067 C3066 1.391 . S
H3068 C3076 0.950 . S
H3069 C3081 0.950 . S
H3070 C3078 0.950 . S
H3071 C3080 0.950 . S
H3072 C3082 0.950 . S
H3073 C3084 0.950 . S
H3074 C3086 0.950 . S
H3075 C3087 0.950 . S
C3076 H3068 0.950 . S
C3076 C3077 1.386 . S
C3076 C3078 1.391 . S
C3077 C3076 1.386 . S
C3077 C3081 1.393 . S
C3078 H3070 0.950 . S
C3078 C3076 1.391 . S
C3078 C3079 1.400 . S
C3079 C3078 1.400 . S
C3079 C3080 1.398 . S
C3079 C3085 1.491 . S
C3080 H3071 0.950 . S
C3080 C3079 1.398 . S
C3080 C3081 1.391 . S
C3081 H3069 0.950 . S
C3081 C3077 1.393 . S
C3081 C3080 1.391 . S
C3082 H3072 0.950 . S
C3082 C3083 1.386 . S
C3082 C3084 1.391 . S
C3083 C3082 1.386 . S
C3083 C3087 1.393 . S
C3084 H3073 0.950 . S
C3084 C3082 1.391 . S
C3084 C3085 1.400 . S
C3085 C3079 1.491 . S
C3085 C3084 1.400 . S
C3085 C3086 1.398 . S
C3086 H3074 0.950 . S
C3086 C3085 1.398 . S
C3086 C3087 1.391 . S
C3087 H3075 0.950 . S
C3087 C3083 1.393 . S
C3087 C3086 1.391 . S
H3088 C3096 0.950 . S
H3089 C3101 0.950 . S
H3090 C3098 0.950 . S
H3091 C3100 0.950 . S
H3092 C3102 0.950 . S
H3093 C3104 0.950 . S
H3094 C3106 0.950 . S
H3095 C3107 0.950 . S
C3096 H3088 0.950 . S
C3096 C3097 1.386 . S
C3096 C3098 1.391 . S
C3097 C3096 1.386 . S
C3097 C3101 1.393 . S
C3098 H3090 0.950 . S
C3098 C3096 1.391 . S
C3098 C3099 1.400 . S
C3099 C3098 1.400 . S
C3099 C3100 1.398 . S
C3099 C3105 1.491 . S
C3100 H3091 0.950 . S
C3100 C3099 1.398 . S
C3100 C3101 1.391 . S
C3101 H3089 0.950 . S
C3101 C3097 1.393 . S
C3101 C3100 1.391 . S
C3102 H3092 0.950 . S
C3102 C3103 1.386 . S
C3102 C3104 1.391 . S
C3103 C3102 1.386 . S
C3103 C3107 1.393 . S
C3104 H3093 0.950 . S
C3104 C3102 1.391 . S
C3104 C3105 1.400 . S
C3105 C3099 1.491 . S
C3105 C3104 1.400 . S
C3105 C3106 1.398 . S
C3106 H3094 0.950 . S
C3106 C3105 1.398 . S
C3106 C3107 1.391 . S
C3107 H3095 0.950 . S
C3107 C3103 1.393 . S
C3107 C3106 1.391 . S
H3108 C3116 0.950 . S
H3109 C3121 0.950 . S
H3110 C3118 0.950 . S
H3111 C3120 0.950 . S
H3112 C3122 0.950 . S
H3113 C3124 0.950 . S
H3114 C3126 0.950 . S
H3115 C3127 0.950 . S
C3116 H3108 0.950 . S
C3116 C3117 1.386 . S
C3116 C3118 1.391 . S
C3117 C3116 1.386 . S
C3117 C3121 1.393 . S
C3118 H3110 0.950 . S
C3118 C3116 1.391 . S
C3118 C3119 1.400 . S
C3119 C3118 1.400 . S
C3119 C3120 1.398 . S
C3119 C3125 1.491 . S
C3120 H3111 0.950 . S
C3120 C3119 1.398 . S
C3120 C3121 1.391 . S
C3121 H3109 0.950 . S
C3121 C3117 1.393 . S
C3121 C3120 1.391 . S
C3122 H3112 0.950 . S
C3122 C3123 1.386 . S
C3122 C3124 1.391 . S
C3123 C3122 1.386 . S
C3123 C3127 1.393 . S
C3124 H3113 0.950 . S
C3124 C3122 1.391 . S
C3124 C3125 1.400 . S
C3125 C3119 1.491 . S
C3125 C3124 1.400 . S
C3125 C3126 1.398 . S
C3126 H3114 0.950 . S
C3126 C3125 1.398 . S
C3126 C3127 1.391 . S
C3127 H3115 0.950 . S
C3127 C3123 1.393 . S
C3127 C3126 1.391 . S
H3128 C3136 0.950 . S
H3129 C3141 0.950 . S
H3130 C3138 0.950 . S
H3131 C3140 0.950 . S
H3132 C3142 0.950 . S
H3133 C3144 0.950 . S
H3134 C3146 0.950 . S
H3135 C3147 0.950 . S
C3136 H3128 0.950 . S
C3136 C3137 1.386 . S
C3136 C3138 1.391 . S
C3137 C3136 1.386 . S
C3137 C3141 1.393 . S
C3138 H3130 0.950 . S
C3138 C3136 1.391 . S
C3138 C3139 1.400 . S
C3139 C3138 1.400 . S
C3139 C3140 1.398 . S
C3139 C3145 1.491 . S
C3140 H3131 0.950 . S
C3140 C3139 1.398 . S
C3140 C3141 1.391 . S
C3141 H3129 0.950 . S
C3141 C3137 1.393 . S
C3141 C3140 1.391 . S
C3142 H3132 0.950 . S
C3142 C3143 1.386 . S
C3142 C3144 1.391 . S
C3143 C3142 1.386 . S
C3143 C3147 1.393 . S
C3144 H3133 0.950 . S
C3144 C3142 1.391 . S
C3144 C3145 1.400 . S
C3145 C3139 1.491 . S
C3145 C3144 1.400 . S
C3145 C3146 1.398 . S
C3146 H3134 0.950 . S
C3146 C3145 1.398 . S
C3146 C3147 1.391 . S
C3147 H3135 0.950 . S
C3147 C3143 1.393 . S
C3147 C3146 1.391 . S
H3148 C3156 0.950 . S
H3149 C3161 0.950 . S
H3150 C3158 0.950 . S
H3151 C3160 0.950 . S
H3152 C3162 0.950 . S
H3153 C3164 0.950 . S
H3154 C3166 0.950 . S
H3155 C3167 0.950 . S
C3156 H3148 0.950 . S
C3156 C3157 1.386 . S
C3156 C3158 1.391 . S
C3157 C3156 1.386 . S
C3157 C3161 1.393 . S
C3158 H3150 0.950 . S
C3158 C3156 1.391 . S
C3158 C3159 1.400 . S
C3159 C3158 1.400 . S
C3159 C3160 1.398 . S
C3159 C3165 1.491 . S
C3160 H3151 0.950 . S
C3160 C3159 1.398 . S
C3160 C3161 1.391 . S
C3161 H3149 0.950 . S
C3161 C3157 1.393 . S
C3161 C3160 1.391 . S
C3162 H3152 0.950 . S
C3162 C3163 1.386 . S
C3162 C3164 1.391 . S
C3163 C3162 1.386 . S
C3163 C3167 1.393 . S
C3164 H3153 0.950 . S
C3164 C3162 1.391 . S
C3164 C3165 1.400 . S
C3165 C3159 1.491 . S
C3165 C3164 1.400 . S
C3165 C3166 1.398 . S
C3166 H3154 0.950 . S
C3166 C3165 1.398 . S
C3166 C3167 1.391 . S
C3167 H3155 0.950 . S
C3167 C3163 1.393 . S
C3167 C3166 1.391 . S
C1897 C583 1.445 . S
C1903 C33 1.468 . S
C1917 C92 1.465 1_455 S
C1923 C1586 1.454 . S
C1937 C701 1.456 . S
C1943 C151 1.466 . S
C1957 C1468 1.456 . S
C1963 C210 1.466 . S
C1977 C269 1.465 . S
C1983 C937 1.454 . S
C1997 C1704 1.441 . S
C2003 C328 1.467 . S
C2017 C387 1.468 . S
C2023 C819 1.442 . S
C2037 C1822 1.455 . S
C2043 C446 1.466 1_455 S
C2057 C111 1.443 . S
C2063 C505 1.468 . S
C2077 C564 1.466 1_655 S
C2083 C1114 1.441 . S
C2097 C229 1.456 . S
C2103 C623 1.466 . S
C2117 C682 1.465 . S
C2123 C996 1.453 . S
C2137 C741 1.468 . S
C2143 C465 1.443 . S
C2157 C1232 1.455 . S
C2163 C800 1.466 . S
C2177 C859 1.468 . S
C2183 C347 1.452 . S
C2197 C1350 1.455 . S
C2203 C918 1.466 1_655 S
C2217 C1527 1.449 . S
C2223 C977 1.465 . S
C2237 C642 1.443 . S
C2243 C1036 1.468 . S
C2257 C1095 1.468 . S
C2263 C1645 1.443 . S
C2277 C524 1.456 . S
C2283 C1154 1.466 1_655 S
C2297 C1881 1.447 . S
C2303 C1213 1.468 . S
C2317 C1272 1.466 1_655 S
C2323 C760 1.455 . S
C2337 C1763 1.455 . S
C2343 C1331 1.467 . S
C2357 C878 1.456 . S
C2363 C1390 1.467 . S
C2377 C1055 1.441 . S
C2383 C1449 1.468 . S
C2397 C1508 1.467 . S
C2403 C170 1.440 . S
C2417 C1567 1.466 . S
C2423 C1173 1.457 . S
C2437 C1626 1.467 1_455 S
C2443 C52 1.456 . S
C2457 C1409 1.455 . S
C2463 C1685 1.467 . S
C2477 C1744 1.466 1_455 S
C2483 C288 1.454 . S
C2497 C1803 1.468 . S
C2503 C1291 1.448 . S
C2517 C1862 1.468 . S
C2523 C406 1.449 . S
C2537 C1421 1.425 . S
C2543 C5 1.425 . S
C2557 C64 1.432 . S
C2563 C536 1.432 . S
C2577 C123 1.426 . S
C2583 C1539 1.426 . S
C2597 C182 1.431 . S
C2603 C654 1.431 . S
C2617 C241 1.424 . S
C2623 C1657 1.424 . S
C2637 C300 1.436 . S
C2643 C772 1.436 . S
C2657 C1775 1.446 . S
C2663 C359 1.446 . S
C2677 C418 1.431 . S
C2683 C890 1.431 . S
C2697 C477 1.432 . S
C2703 C949 1.432 . S
C2717 C595 1.425 . S
C2723 C1067 1.425 . S
C2737 C1185 1.432 . S
C2743 C713 1.432 . S
C2757 C1303 1.431 . S
C2763 C831 1.431 . S
C2777 C1008 1.433 . S
C2783 C1480 1.433 . S
C2797 C1598 1.425 . S
C2803 C1126 1.425 . S
C2817 C1244 1.444 . S
C2823 C1716 1.444 . S
C2837 C1834 1.426 . S
C2843 C1362 1.426 . S
C2857 C1242 1.605 . S
C2863 C3 1.598 . S
C2877 C1301 1.597 . S
C2883 C62 1.604 . S
C2897 C121 1.595 . S
C2903 C1360 1.600 . S
C2917 C1183 1.596 . S
C2923 C180 1.602 . S
C2937 C1124 1.603 . S
C2943 C239 1.606 . S
C2957 C947 1.605 . S
C2963 C298 1.600 . S
C2977 C357 1.596 . S
C2983 C1006 1.596 . S
C2997 C1065 1.602 . S
C3003 C416 1.606 . S
C3017 C1714 1.595 . S
C3023 C475 1.598 . S
C3037 C1773 1.597 . S
C3043 C534 1.604 . S
C3057 C1832 1.595 . S
C3063 C593 1.598 . S
C3077 C652 1.605 . S
C3083 C1655 1.599 . S
C3097 C1596 1.600 . S
C3103 C711 1.595 . S
C3117 C1419 1.602 . S
C3123 C770 1.606 . S
C3137 C1478 1.598 . S
C3143 C829 1.605 . S
C3157 C1537 1.595 . S
C3163 C888 1.601 . S
