# Generated by pormake.
# Topology smq, (6)-cn, num edge types: 1
# Building blocks:
#     Node 0, Type 0, BuildingBlock: OJICUG_clean_sbu_0, # of connection points: 6
#     Node 1, Type 0, BuildingBlock: OJICUG_clean_sbu_0, # of connection points: 6
#     Node 2, Type 0, BuildingBlock: OJICUG_clean_sbu_0, # of connection points: 6
#     Node 3, Type 0, BuildingBlock: OJICUG_clean_sbu_0, # of connection points: 6
#     Node 4, Type 0, BuildingBlock: OJICUG_clean_sbu_0, # of connection points: 6
#     Node 5, Type 0, BuildingBlock: OJICUG_clean_sbu_0, # of connection points: 6
#     Node 6, Type 0, BuildingBlock: OJICUG_clean_sbu_0, # of connection points: 6
#     Node 7, Type 0, BuildingBlock: OJICUG_clean_sbu_0, # of connection points: 6
#     Node 8, Type 0, BuildingBlock: OJICUG_clean_sbu_0, # of connection points: 6
#     Node 9, Type 0, BuildingBlock: OJICUG_clean_sbu_0, # of connection points: 6
#     Node 10, Type 0, BuildingBlock: OJICUG_clean_sbu_0, # of connection points: 6
#     Node 11, Type 0, BuildingBlock: OJICUG_clean_sbu_0, # of connection points: 6
#     Node 12, Type 0, BuildingBlock: OJICUG_clean_sbu_0, # of connection points: 6
#     Node 13, Type 0, BuildingBlock: OJICUG_clean_sbu_0, # of connection points: 6
#     Node 14, Type 0, BuildingBlock: OJICUG_clean_sbu_0, # of connection points: 6
#     Node 15, Type 0, BuildingBlock: OJICUG_clean_sbu_0, # of connection points: 6
#     Node 16, Type 0, BuildingBlock: OJICUG_clean_sbu_0, # of connection points: 6
#     Node 17, Type 0, BuildingBlock: OJICUG_clean_sbu_0, # of connection points: 6
#     Node 18, Type 0, BuildingBlock: OJICUG_clean_sbu_0, # of connection points: 6
#     Node 19, Type 0, BuildingBlock: OJICUG_clean_sbu_0, # of connection points: 6
#     Node 20, Type 0, BuildingBlock: OJICUG_clean_sbu_0, # of connection points: 6
#     Node 21, Type 0, BuildingBlock: OJICUG_clean_sbu_0, # of connection points: 6
#     Node 22, Type 0, BuildingBlock: OJICUG_clean_sbu_0, # of connection points: 6
#     Node 23, Type 0, BuildingBlock: OJICUG_clean_sbu_0, # of connection points: 6
#     Edge 24, Type (0, 0), BuildingBlock: XIVTED_clean_linker_0, # of connection points: 2
#     Edge 25, Type (0, 0), BuildingBlock: XIVTED_clean_linker_0, # of connection points: 2
#     Edge 26, Type (0, 0), BuildingBlock: XIVTED_clean_linker_0, # of connection points: 2
#     Edge 27, Type (0, 0), BuildingBlock: XIVTED_clean_linker_0, # of connection points: 2
#     Edge 28, Type (0, 0), BuildingBlock: XIVTED_clean_linker_0, # of connection points: 2
#     Edge 29, Type (0, 0), BuildingBlock: XIVTED_clean_linker_0, # of connection points: 2
#     Edge 30, Type (0, 0), BuildingBlock: XIVTED_clean_linker_0, # of connection points: 2
#     Edge 31, Type (0, 0), BuildingBlock: XIVTED_clean_linker_0, # of connection points: 2
#     Edge 32, Type (0, 0), BuildingBlock: XIVTED_clean_linker_0, # of connection points: 2
#     Edge 33, Type (0, 0), BuildingBlock: XIVTED_clean_linker_0, # of connection points: 2
#     Edge 34, Type (0, 0), BuildingBlock: XIVTED_clean_linker_0, # of connection points: 2
#     Edge 35, Type (0, 0), BuildingBlock: XIVTED_clean_linker_0, # of connection points: 2
#     Edge 36, Type (0, 0), BuildingBlock: XIVTED_clean_linker_0, # of connection points: 2
#     Edge 37, Type (0, 0), BuildingBlock: XIVTED_clean_linker_0, # of connection points: 2
#     Edge 38, Type (0, 0), BuildingBlock: XIVTED_clean_linker_0, # of connection points: 2
#     Edge 39, Type (0, 0), BuildingBlock: XIVTED_clean_linker_0, # of connection points: 2
#     Edge 40, Type (0, 0), BuildingBlock: XIVTED_clean_linker_0, # of connection points: 2
#     Edge 41, Type (0, 0), BuildingBlock: XIVTED_clean_linker_0, # of connection points: 2
#     Edge 42, Type (0, 0), BuildingBlock: XIVTED_clean_linker_0, # of connection points: 2
#     Edge 43, Type (0, 0), BuildingBlock: XIVTED_clean_linker_0, # of connection points: 2
#     Edge 44, Type (0, 0), BuildingBlock: XIVTED_clean_linker_0, # of connection points: 2
#     Edge 45, Type (0, 0), BuildingBlock: XIVTED_clean_linker_0, # of connection points: 2
#     Edge 46, Type (0, 0), BuildingBlock: XIVTED_clean_linker_0, # of connection points: 2
#     Edge 47, Type (0, 0), BuildingBlock: XIVTED_clean_linker_0, # of connection points: 2
#     Edge 48, Type (0, 0), BuildingBlock: XIVTED_clean_linker_0, # of connection points: 2
#     Edge 49, Type (0, 0), BuildingBlock: XIVTED_clean_linker_0, # of connection points: 2
#     Edge 50, Type (0, 0), BuildingBlock: XIVTED_clean_linker_0, # of connection points: 2
#     Edge 51, Type (0, 0), BuildingBlock: XIVTED_clean_linker_0, # of connection points: 2
#     Edge 52, Type (0, 0), BuildingBlock: XIVTED_clean_linker_0, # of connection points: 2
#     Edge 53, Type (0, 0), BuildingBlock: XIVTED_clean_linker_0, # of connection points: 2
#     Edge 54, Type (0, 0), BuildingBlock: XIVTED_clean_linker_0, # of connection points: 2
#     Edge 55, Type (0, 0), BuildingBlock: XIVTED_clean_linker_0, # of connection points: 2
#     Edge 56, Type (0, 0), BuildingBlock: XIVTED_clean_linker_0, # of connection points: 2
#     Edge 57, Type (0, 0), BuildingBlock: XIVTED_clean_linker_0, # of connection points: 2
#     Edge 58, Type (0, 0), BuildingBlock: XIVTED_clean_linker_0, # of connection points: 2
#     Edge 59, Type (0, 0), BuildingBlock: XIVTED_clean_linker_0, # of connection points: 2
#     Edge 60, Type (0, 0), BuildingBlock: XIVTED_clean_linker_0, # of connection points: 2
#     Edge 61, Type (0, 0), BuildingBlock: XIVTED_clean_linker_0, # of connection points: 2
#     Edge 62, Type (0, 0), BuildingBlock: XIVTED_clean_linker_0, # of connection points: 2
#     Edge 63, Type (0, 0), BuildingBlock: XIVTED_clean_linker_0, # of connection points: 2
#     Edge 64, Type (0, 0), BuildingBlock: XIVTED_clean_linker_0, # of connection points: 2
#     Edge 65, Type (0, 0), BuildingBlock: XIVTED_clean_linker_0, # of connection points: 2
#     Edge 66, Type (0, 0), BuildingBlock: XIVTED_clean_linker_0, # of connection points: 2
#     Edge 67, Type (0, 0), BuildingBlock: XIVTED_clean_linker_0, # of connection points: 2
#     Edge 68, Type (0, 0), BuildingBlock: XIVTED_clean_linker_0, # of connection points: 2
#     Edge 69, Type (0, 0), BuildingBlock: XIVTED_clean_linker_0, # of connection points: 2
#     Edge 70, Type (0, 0), BuildingBlock: XIVTED_clean_linker_0, # of connection points: 2
#     Edge 71, Type (0, 0), BuildingBlock: XIVTED_clean_linker_0, # of connection points: 2
#     Edge 72, Type (0, 0), BuildingBlock: XIVTED_clean_linker_0, # of connection points: 2
#     Edge 73, Type (0, 0), BuildingBlock: XIVTED_clean_linker_0, # of connection points: 2
#     Edge 74, Type (0, 0), BuildingBlock: XIVTED_clean_linker_0, # of connection points: 2
#     Edge 75, Type (0, 0), BuildingBlock: XIVTED_clean_linker_0, # of connection points: 2
#     Edge 76, Type (0, 0), BuildingBlock: XIVTED_clean_linker_0, # of connection points: 2
#     Edge 77, Type (0, 0), BuildingBlock: XIVTED_clean_linker_0, # of connection points: 2
#     Edge 78, Type (0, 0), BuildingBlock: XIVTED_clean_linker_0, # of connection points: 2
#     Edge 79, Type (0, 0), BuildingBlock: XIVTED_clean_linker_0, # of connection points: 2
#     Edge 80, Type (0, 0), BuildingBlock: XIVTED_clean_linker_0, # of connection points: 2
#     Edge 81, Type (0, 0), BuildingBlock: XIVTED_clean_linker_0, # of connection points: 2
#     Edge 82, Type (0, 0), BuildingBlock: XIVTED_clean_linker_0, # of connection points: 2
#     Edge 83, Type (0, 0), BuildingBlock: XIVTED_clean_linker_0, # of connection points: 2
#     Edge 84, Type (0, 0), BuildingBlock: XIVTED_clean_linker_0, # of connection points: 2
#     Edge 85, Type (0, 0), BuildingBlock: XIVTED_clean_linker_0, # of connection points: 2
#     Edge 86, Type (0, 0), BuildingBlock: XIVTED_clean_linker_0, # of connection points: 2
#     Edge 87, Type (0, 0), BuildingBlock: XIVTED_clean_linker_0, # of connection points: 2
#     Edge 88, Type (0, 0), BuildingBlock: XIVTED_clean_linker_0, # of connection points: 2
#     Edge 89, Type (0, 0), BuildingBlock: XIVTED_clean_linker_0, # of connection points: 2
#     Edge 90, Type (0, 0), BuildingBlock: XIVTED_clean_linker_0, # of connection points: 2
#     Edge 91, Type (0, 0), BuildingBlock: XIVTED_clean_linker_0, # of connection points: 2
#     Edge 92, Type (0, 0), BuildingBlock: XIVTED_clean_linker_0, # of connection points: 2
#     Edge 93, Type (0, 0), BuildingBlock: XIVTED_clean_linker_0, # of connection points: 2
#     Edge 94, Type (0, 0), BuildingBlock: XIVTED_clean_linker_0, # of connection points: 2
#     Edge 95, Type (0, 0), BuildingBlock: XIVTED_clean_linker_0, # of connection points: 2
# Relax obj value: 0.157
# Max RMSD: 0.181
# Mean RMSD: 0.181
data_MOF--net-smq--node1-OJICUG_clean_sbu_0--edge1-XIVTED_clean_linker_0
_symmetry_space_group_name_H-M    P1
_symmetry_Int_Tables_number       1
_symmetry_cell_setting            triclinic
loop_
_symmetry_equiv_pos_as_xyz
'x, y, z'
_cell_length_a     46.56137
_cell_length_b     46.601287
_cell_length_c     46.657913
_cell_angle_alpha  90.01113
_cell_angle_beta   90.09611
_cell_angle_gamma 90.068928
loop_
_atom_site_label
_atom_site_type_symbol
_atom_site_fract_x
_atom_site_fract_y
_atom_site_fract_z
_atom_type_partial_charge
Sc0 Sc 0.01361 0.20958 0.26325 0.0
Sc1 Sc -0.00173 0.27525 0.29517 0.0
Sc2 Sc 0.00078 0.21151 0.33673 0.0
O3 O 0.00393 0.23205 0.29849 0.0
C4 C 0.96655 0.17068 0.29379 0.0
C5 C 0.96734 0.25542 0.23985 0.0
C6 C 0.95186 0.25816 0.34257 0.0
C7 C 0.04577 0.26422 0.24676 0.0
C8 C 0.05233 0.17715 0.30931 0.0
C9 C 0.03868 0.26743 0.34938 0.0
O10 O 0.97904 0.18035 0.27154 0.0
O11 O 0.96603 0.27136 0.26202 0.0
O12 O 0.96211 0.2334 0.3468 0.0
O13 O 0.04829 0.23783 0.25285 0.0
O14 O 0.03908 0.18612 0.33125 0.0
O15 O 0.03173 0.28103 0.32668 0.0
O16 O 0.04466 0.18296 0.28393 0.0
O17 O 0.02864 0.28042 0.26044 0.0
O18 O 0.02729 0.24373 0.35702 0.0
O19 O 0.9845 0.23431 0.23774 0.0
O20 O 0.97346 0.17821 0.31914 0.0
O21 O 0.96428 0.27678 0.32699 0.0
Sc22 Sc 0.36132 0.49846 0.7697 0.0
Sc23 Sc 0.28684 0.49454 0.78137 0.0
Sc24 Sc 0.33494 0.49585 0.84018 0.0
O25 O 0.32761 0.49623 0.79705 0.0
C26 C 0.38374 0.45436 0.81707 0.0
C27 C 0.32019 0.45468 0.7369 0.0
C28 C 0.28297 0.45148 0.8342 0.0
C29 C 0.31598 0.53802 0.73745 0.0
C30 C 0.3802 0.54246 0.81858 0.0
C31 C 0.2808 0.53719 0.83439 0.0
O32 O 0.38455 0.4662 0.79259 0.0
O33 O 0.29745 0.46253 0.7498 0.0
O34 O 0.30452 0.46184 0.84738 0.0
O35 O 0.34153 0.53024 0.74298 0.0
O36 O 0.36556 0.53081 0.83839 0.0
O37 O 0.27207 0.5269 0.8107 0.0
O38 O 0.38079 0.53271 0.7932 0.0
O39 O 0.29422 0.52753 0.75007 0.0
O40 O 0.30303 0.52819 0.84742 0.0
O41 O 0.3448 0.46518 0.74241 0.0
O42 O 0.36703 0.46264 0.83692 0.0
O43 O 0.27418 0.461 0.81026 0.0
Sc44 Sc 0.97889 0.77881 0.26351 0.0
Sc45 Sc 0.99168 0.71199 0.29424 0.0
Sc46 Sc 0.99445 0.77523 0.33642 0.0
O47 O 0.98866 0.75539 0.29812 0.0
C48 C 0.02865 0.81518 0.29288 0.0
C49 C 0.02141 0.73061 0.2379 0.0
C50 C 0.04082 0.72591 0.33995 0.0
C51 C 0.94274 0.72612 0.24808 0.0
C52 C 0.94349 0.81233 0.31138 0.0
C53 C 0.95435 0.72127 0.35002 0.0
O54 O 0.01534 0.80607 0.27083 0.0
O55 O 0.02271 0.71438 0.25987 0.0
O56 O 0.03262 0.75141 0.34443 0.0
O57 O 0.94226 0.75268 0.25401 0.0
O58 O 0.95689 0.80212 0.33274 0.0
O59 O 0.95926 0.70774 0.3268 0.0
O60 O 0.95017 0.80684 0.28566 0.0
O61 O 0.95962 0.70897 0.26087 0.0
O62 O 0.96767 0.74399 0.35752 0.0
O63 O 0.0055 0.75275 0.2367 0.0
O64 O 0.02209 0.80776 0.3183 0.0
O65 O 0.02646 0.70817 0.32496 0.0
Sc66 Sc 0.65963 0.49551 0.83506 0.0
Sc67 Sc 0.7087 0.49493 0.77714 0.0
Sc68 Sc 0.63424 0.49299 0.76423 0.0
O69 O 0.66764 0.4945 0.79211 0.0
C70 C 0.6134 0.45002 0.81307 0.0
C71 C 0.71244 0.45223 0.83033 0.0
C72 C 0.67882 0.45219 0.73269 0.0
C73 C 0.71291 0.53826 0.82989 0.0
C74 C 0.61245 0.53827 0.81073 0.0
C75 C 0.67706 0.53588 0.73246 0.0
O76 O 0.62831 0.46129 0.83294 0.0
O77 O 0.72179 0.46181 0.80658 0.0
O78 O 0.6534 0.46037 0.73813 0.0
O79 O 0.69061 0.5289 0.84245 0.0
O80 O 0.61177 0.52625 0.78633 0.0
O81 O 0.69952 0.52759 0.74567 0.0
O82 O 0.62836 0.52947 0.83105 0.0
O83 O 0.72215 0.52796 0.80646 0.0
O84 O 0.65224 0.5256 0.73729 0.0
O85 O 0.69062 0.46247 0.84306 0.0
O86 O 0.61323 0.45959 0.78761 0.0
O87 O 0.70074 0.4624 0.74537 0.0
Sc88 Sc 0.99329 0.78122 0.65036 0.0
Sc89 Sc -0.00403 0.71818 0.69257 0.0
Sc90 Sc -0.00042 0.78601 0.72408 0.0
O91 O -0.00366 0.7616 0.68893 0.0
C92 C 0.04232 0.81672 0.68268 0.0
C93 C 0.03518 0.72954 0.63724 0.0
C94 C 0.03837 0.73181 0.74203 0.0
C95 C 0.94802 0.73002 0.6455 0.0
C96 C 0.95673 0.82383 0.68621 0.0
C97 C 0.95872 0.73888 0.74691 0.0
O98 O 0.02621 0.81279 0.6609 0.0
O99 O 0.02459 0.71272 0.65605 0.0
O100 O 0.02666 0.75607 0.74582 0.0
O101 O 0.96037 0.75236 0.63588 0.0
O102 O 0.97229 0.81993 0.70824 0.0
O103 O 0.96972 0.71953 0.73098 0.0
O104 O 0.95919 0.80891 0.6637 0.0
O105 O 0.95763 0.71576 0.66669 0.0
O106 O 0.96286 0.76558 0.7427 0.0
O107 O 0.02656 0.75509 0.63365 0.0
O108 O 0.03701 0.80621 0.70721 0.0
O109 O 0.03298 0.71611 0.7204 0.0
Sc110 Sc 0.63443 0.49678 0.22725 0.0
Sc111 Sc 0.70874 0.49407 0.21414 0.0
Sc112 Sc 0.65933 0.49544 0.15635 0.0
O113 O 0.66763 0.49539 0.19928 0.0
C114 C 0.61093 0.45341 0.17957 0.0
C115 C 0.67606 0.45333 0.25881 0.0
C116 C 0.71061 0.45039 0.16184 0.0
C117 C 0.68046 0.53689 0.25876 0.0
C118 C 0.61584 0.5424 0.1799 0.0
C119 C 0.71407 0.53632 0.16062 0.0
O120 O 0.61035 0.465 0.20419 0.0
O121 O 0.69865 0.46265 0.24659 0.0
O122 O 0.68927 0.46127 0.14879 0.0
O123 O 0.65511 0.52766 0.25451 0.0
O124 O 0.62916 0.53055 0.15931 0.0
O125 O 0.72351 0.52584 0.18395 0.0
O126 O 0.61546 0.53205 0.20505 0.0
O127 O 0.70206 0.5278 0.24487 0.0
O128 O 0.69121 0.52768 0.14849 0.0
O129 O 0.65108 0.46258 0.25296 0.0
O130 O 0.62719 0.4623 0.15965 0.0
O131 O 0.7201 0.45983 0.18558 0.0
Sc132 Sc 0.00163 0.21562 0.6598 0.0
Sc133 Sc -0.00224 0.2841 0.69314 0.0
Sc134 Sc 0.01134 0.22272 0.73327 0.0
O135 O 0.00312 0.24074 0.69529 0.0
C136 C 0.96568 0.17989 0.70574 0.0
C137 C 0.95424 0.26161 0.64511 0.0
C138 C 0.96316 0.27003 0.74801 0.0
C139 C 0.04135 0.26927 0.64301 0.0
C140 C 0.05244 0.18587 0.69339 0.0
C141 C 0.04355 0.27915 0.74401 0.0
O142 O 0.97299 0.18481 0.67987 0.0
O143 O 0.96594 0.28175 0.65933 0.0
O144 O 0.98034 0.24964 0.75381 0.0
O145 O 0.02986 0.24494 0.63775 0.0
O146 O 0.04376 0.19471 0.7175 0.0
O147 O 0.02635 0.29365 0.72862 0.0
O148 O 0.03954 0.19132 0.67012 0.0
O149 O 0.0329 0.28592 0.66303 0.0
O150 O 0.04546 0.25216 0.74172 0.0
O151 O 0.96398 0.23631 0.64473 0.0
O152 O 0.97773 0.19198 0.72705 0.0
O153 O 0.96365 0.28396 0.7245 0.0
Sc154 Sc 0.32512 0.49471 0.15084 0.0
Sc155 Sc 0.28137 0.49628 0.2123 0.0
Sc156 Sc 0.35702 0.49563 0.2192 0.0
O157 O 0.32113 0.49557 0.19423 0.0
C158 C 0.37381 0.45084 0.17027 0.0
C159 C 0.27334 0.45144 0.16158 0.0
C160 C 0.31534 0.45559 0.2558 0.0
C161 C 0.27261 0.53778 0.15877 0.0
C162 C 0.3739 0.53895 0.16884 0.0
C163 C 0.3161 0.53831 0.25365 0.0
O164 O 0.35648 0.46086 0.15181 0.0
O165 O 0.26566 0.46212 0.18541 0.0
O166 O 0.34031 0.46375 0.24826 0.0
O167 O 0.29365 0.52769 0.14478 0.0
O168 O 0.37726 0.52866 0.19386 0.0
O169 O 0.29297 0.52967 0.2419 0.0
O170 O 0.35623 0.52878 0.15077 0.0
O171 O 0.26524 0.52845 0.18326 0.0
O172 O 0.34074 0.5286 0.247 0.0
O173 O 0.29404 0.46118 0.14681 0.0
O174 O 0.37689 0.46155 0.19513 0.0
O175 O 0.2925 0.46491 0.24412 0.0
Sc176 Sc 0.17172 0.99159 0.19083 0.0
Sc177 Sc 0.23448 0.99123 0.23248 0.0
Sc178 Sc 0.23879 -0.00489 0.15716 0.0
O179 O 0.21511 0.99286 0.19353 0.0
C180 C 0.18958 0.95239 0.13795 0.0
C181 C 0.18344 0.94565 0.23857 0.0
C182 C 0.27485 0.95092 0.19531 0.0
C183 C 0.18153 0.02996 0.24711 0.0
C184 C 0.18686 0.03891 0.14527 0.0
C185 C 0.27437 0.03592 0.19794 0.0
O186 O 0.17089 0.96389 0.15399 0.0
O187 O 0.2053 0.9585 0.24891 0.0
O188 O 0.26949 0.96359 0.17175 0.0
O189 O 0.1659 0.01811 0.22814 0.0
O190 O 0.21089 0.02746 0.13897 0.0
O191 O 0.26601 0.02335 0.22072 0.0
O192 O 0.17048 0.02935 0.16481 0.0
O193 O 0.20822 0.02504 0.24975 0.0
O194 O 0.26504 0.02933 0.17322 0.0
O195 O 0.1703 0.95385 0.21623 0.0
O196 O 0.21563 0.96038 0.13767 0.0
O197 O 0.26261 0.95745 0.21878 0.0
Sc198 Sc 0.48997 0.81463 0.71918 0.0
Sc199 Sc 0.49653 0.78481 0.78927 0.0
Sc200 Sc 0.48622 0.74068 0.7288 0.0
O201 O 0.49092 0.78007 0.7459 0.0
C202 C 0.44015 0.77552 0.69287 0.0
C203 C 0.45366 0.83586 0.7729 0.0
C204 C 0.45147 0.73373 0.78755 0.0
C205 C 0.53986 0.83129 0.76304 0.0
C206 C 0.52529 0.77104 0.68145 0.0
C207 C 0.53479 0.72974 0.77559 0.0
O208 O 0.45322 0.79942 0.69485 0.0
O209 O 0.46478 0.81888 0.79122 0.0
O210 O 0.45801 0.72698 0.76205 0.0
O211 O 0.52628 0.83375 0.73959 0.0
O212 O 0.51407 0.74917 0.69316 0.0
O213 O 0.52767 0.7503 0.79211 0.0
O214 O 0.5196 0.79651 0.68908 0.0
O215 O 0.53182 0.81461 0.78311 0.0
O216 O 0.52255 0.72481 0.75173 0.0
O217 O 0.46086 0.83629 0.74669 0.0
O218 O 0.44911 0.75278 0.70482 0.0
O219 O 0.46299 0.75462 0.80084 0.0
Sc220 Sc 0.74877 0.99181 0.16717 0.0
Sc221 Sc 0.75504 -0.00334 0.24239 0.0
Sc222 Sc 0.81674 -0.00478 0.19878 0.0
O223 O 0.77342 0.99444 0.20289 0.0
C224 C 0.79986 0.94777 0.15357 0.0
C225 C 0.7144 0.9516 0.20936 0.0
C226 C 0.80845 0.95727 0.25549 0.0
C227 C 0.71319 0.03614 0.20571 0.0
C228 C 0.7971 0.03467 0.14654 0.0
C229 C 0.807 0.04156 0.2469 0.0
O230 O 0.77567 0.95926 0.14817 0.0
O231 O 0.723 0.96442 0.23196 0.0
O232 O 0.8234 0.96831 0.23558 0.0
O233 O 0.71863 0.02339 0.18225 0.0
O234 O 0.81635 0.0235 0.16226 0.0
O235 O 0.78479 0.02963 0.25754 0.0
O236 O 0.77121 0.02623 0.14672 0.0
O237 O 0.72585 0.0301 0.22916 0.0
O238 O 0.8196 0.03263 0.22456 0.0
O239 O 0.72339 0.95785 0.18448 0.0
O240 O 0.81703 0.95749 0.17241 0.0
O241 O 0.78209 0.96309 0.25943 0.0
Sc242 Sc 0.50379 0.24874 0.72828 0.0
Sc243 Sc 0.49517 0.20733 0.79069 0.0
Sc244 Sc 0.49783 0.17439 0.72174 0.0
O245 O 0.49883 0.21014 0.74702 0.0
C246 C 0.4621 0.21797 0.68341 0.0
C247 C 0.45745 0.26243 0.77693 0.0
C248 C 0.44984 0.16068 0.76811 0.0
C249 C 0.54081 0.25795 0.78501 0.0
C250 C 0.54776 0.21066 0.69263 0.0
C251 C 0.53632 0.15507 0.775 0.0
O252 O 0.47328 0.23999 0.69491 0.0
O253 O 0.46348 0.24127 0.79315 0.0
O254 O 0.46099 0.15841 0.74345 0.0
O255 O 0.53476 0.26273 0.75896 0.0
O256 O 0.53499 0.1869 0.69684 0.0
O257 O 0.52786 0.17446 0.79223 0.0
O258 O 0.53878 0.23432 0.70261 0.0
O259 O 0.52829 0.23879 0.79981 0.0
O260 O 0.52648 0.15189 0.7498 0.0
O261 O 0.46987 0.26697 0.7531 0.0
O262 O 0.46852 0.19257 0.69083 0.0
O263 O 0.4604 0.17633 0.78786 0.0
Sc264 Sc 0.2403 0.99374 0.83126 0.0
Sc265 Sc 0.23644 0.9942 0.75578 0.0
Sc266 Sc 0.17354 -0.00191 0.79667 0.0
O267 O 0.21687 -0.00484 0.79457 0.0
C268 C 0.18739 0.95133 0.84371 0.0
C269 C 0.27516 0.95064 0.79235 0.0
C270 C 0.18213 0.95701 0.74222 0.0
C271 C 0.27741 0.03557 0.79169 0.0
C272 C 0.19213 0.03839 0.84861 0.0
C273 C 0.18758 0.04116 0.74691 0.0
O274 O 0.21175 0.96228 0.84979 0.0
O275 O 0.26663 0.96197 0.76907 0.0
O276 O 0.16693 0.97041 0.76039 0.0
O277 O 0.27128 0.02449 0.81585 0.0
O278 O 0.17333 0.02728 0.83233 0.0
O279 O 0.2088 0.02681 0.73758 0.0
O280 O 0.21777 0.02935 0.84974 0.0
O281 O 0.26567 0.02767 0.76832 0.0
O282 O 0.1739 0.03493 0.76958 0.0
O283 O 0.26639 0.95874 0.81678 0.0
O284 O 0.17104 0.96117 0.82417 0.0
O285 O 0.20906 0.96051 0.73982 0.0
Sc286 Sc 0.49936 0.73522 0.24902 0.0
Sc287 Sc 0.4959 0.78344 0.19134 0.0
Sc288 Sc 0.49273 0.80802 0.26337 0.0
O289 O 0.49583 0.77561 0.23442 0.0
C290 C 0.45216 0.75998 0.29067 0.0
C291 C 0.46106 0.72576 0.19258 0.0
C292 C 0.44822 0.82677 0.2153 0.0
C293 C 0.54335 0.73427 0.19794 0.0
C294 C 0.53811 0.76882 0.29455 0.0
C295 C 0.53507 0.83379 0.21627 0.0
O296 O 0.46194 0.73949 0.27555 0.0
O297 O 0.46423 0.7506 0.18172 0.0
O298 O 0.45672 0.82536 0.24112 0.0
O299 O 0.53676 0.72824 0.22365 0.0
O300 O 0.52894 0.79376 0.28861 0.0
O301 O 0.5288 0.81599 0.19648 0.0
O302 O 0.52751 0.74632 0.28352 0.0
O303 O 0.52949 0.75223 0.1827 0.0
O304 O 0.52227 0.83432 0.24025 0.0
O305 O 0.47318 0.71789 0.21562 0.0
O306 O 0.46259 0.78519 0.28995 0.0
O307 O 0.46125 0.8145 0.19466 0.0
Sc308 Sc 0.81455 -0.00197 0.80232 0.0
Sc309 Sc 0.75786 0.0003 0.75358 0.0
Sc310 Sc 0.74551 0.98828 0.82648 0.0
O311 O 0.77251 -0.00474 0.79387 0.0
C312 C 0.79798 0.94679 0.8409 0.0
C313 C 0.8139 0.96656 0.7414 0.0
C314 C 0.71815 0.94973 0.77955 0.0
C315 C 0.80758 0.04783 0.75882 0.0
C316 C 0.78776 0.03159 0.85442 0.0
C317 C 0.71003 0.03226 0.78784 0.0
O318 O 0.81455 0.95636 0.82152 0.0
O319 O 0.78694 0.96807 0.73721 0.0
O320 O 0.72746 0.95208 0.80507 0.0
O321 O 0.81588 0.03954 0.7834 0.0
O322 O 0.76189 0.02525 0.84859 0.0
O323 O 0.72766 0.0329 0.76701 0.0
O324 O 0.80882 0.01832 0.84338 0.0
O325 O 0.78923 0.03402 0.74376 0.0
O326 O 0.71252 0.01517 0.80888 0.0
O327 O 0.82639 0.97884 0.76229 0.0
O328 O 0.77474 0.95932 0.84793 0.0
O329 O 0.72523 0.96706 0.75949 0.0
Sc330 Sc 0.49176 0.17984 0.26384 0.0
Sc331 Sc 0.49514 0.20691 0.19319 0.0
Sc332 Sc 0.49793 0.25244 0.25232 0.0
O333 O 0.49457 0.21285 0.23627 0.0
C334 C 0.44867 0.22698 0.28955 0.0
C335 C 0.44901 0.16039 0.21492 0.0
C336 C 0.46217 0.26414 0.19461 0.0
C337 C 0.53579 0.15718 0.21657 0.0
C338 C 0.53286 0.21801 0.29972 0.0
C339 C 0.54201 0.25686 0.20384 0.0
O340 O 0.46081 0.20242 0.29049 0.0
O341 O 0.46192 0.1735 0.19461 0.0
O342 O 0.47629 0.27165 0.21664 0.0
O343 O 0.52201 0.15488 0.23996 0.0
O344 O 0.52078 0.24057 0.29058 0.0
O345 O 0.52688 0.2412 0.18708 0.0
O346 O 0.52753 0.19349 0.28941 0.0
O347 O 0.52966 0.17583 0.19748 0.0
O348 O 0.53794 0.25756 0.23077 0.0
O349 O 0.45663 0.16245 0.24091 0.0
O350 O 0.45785 0.24751 0.27405 0.0
O351 O 0.46176 0.23846 0.18537 0.0
Sc352 Sc 0.09344 0.24549 0.99394 0.0
Sc353 Sc 0.16657 0.26444 -0.003 0.0
Sc354 Sc 0.11357 0.31839 -0.00336 0.0
O355 O 0.12459 0.27606 -0.00422 0.0
C356 C 0.0708 0.29298 0.94993 0.0
C357 C 0.14108 0.21855 0.95301 0.0
C358 C 0.16848 0.31891 0.95582 0.0
C359 C 0.13806 0.21697 0.03717 0.0
C360 C 0.06786 0.29034 0.03888 0.0
C361 C 0.16499 0.31619 0.04153 0.0
O362 O 0.07161 0.26755 0.95976 0.0
O363 O 0.16164 0.2333 0.96332 0.0
O364 O 0.14511 0.32971 0.96484 0.0
O365 O 0.11281 0.21958 0.02705 0.0
O366 O 0.08181 0.31175 0.02942 0.0
O367 O 0.17631 0.29363 0.0313 0.0
O368 O 0.06897 0.26572 0.02724 0.0
O369 O 0.15915 0.23195 0.02853 0.0
O370 O 0.14256 0.32762 0.03111 0.0
O371 O 0.11528 0.22102 0.96154 0.0
O372 O 0.08385 0.31378 0.96175 0.0
O373 O 0.17881 0.2956 0.96545 0.0
Sc374 Sc 0.10983 0.67169 0.99215 0.0
Sc375 Sc 0.16351 0.72518 0.99304 0.0
Sc376 Sc 0.09063 0.74485 0.99073 0.0
O377 O 0.1214 0.71394 0.99204 0.0
C378 C 0.06765 0.69863 0.94561 0.0
C379 C 0.16434 0.6714 0.951 0.0
C380 C 0.1382 0.77175 0.9497 0.0
C381 C 0.16195 0.6723 0.03653 0.0
C382 C 0.06412 0.69937 0.03453 0.0
C383 C 0.13592 0.77272 0.03376 0.0
O384 O 0.08049 0.67735 0.95681 0.0
O385 O 0.17505 0.6945 0.96077 0.0
O386 O 0.11246 0.7695 0.95843 0.0
O387 O 0.139 0.66141 0.02649 0.0
O388 O 0.06594 0.72428 0.02364 0.0
O389 O 0.1568 0.7575 0.02508 0.0
O390 O 0.07794 0.67799 0.02488 0.0
O391 O 0.17324 0.69506 0.02658 0.0
O392 O 0.11057 0.7702 0.02387 0.0
O393 O 0.1411 0.6606 0.96029 0.0
O394 O 0.0684 0.72362 0.95646 0.0
O395 O 0.15866 0.75681 0.95983 0.0
Sc396 Sc 0.74386 0.64896 0.50194 0.0
Sc397 Sc 0.72286 0.72048 0.49567 0.0
Sc398 Sc 0.67292 0.6652 0.49013 0.0
O399 O 0.71328 0.6785 0.49602 0.0
C400 C 0.70838 0.62165 0.4528 0.0
C401 C 0.77646 0.69605 0.46474 0.0
C402 C 0.67705 0.71387 0.44475 0.0
C403 C 0.76281 0.69456 0.54608 0.0
C404 C 0.69274 0.62507 0.53915 0.0
C405 C 0.66432 0.72166 0.52779 0.0
O406 O 0.7329 0.62976 0.4616 0.0
O407 O 0.75601 0.7141 0.46398 0.0
O408 O 0.67078 0.68794 0.45052 0.0
O409 O 0.75627 0.66844 0.54148 0.0
O410 O 0.67423 0.64299 0.5303 0.0
O411 O 0.69046 0.72965 0.52744 0.0
O412 O 0.71608 0.62046 0.52578 0.0
O413 O 0.75436 0.71507 0.52991 0.0
O414 O 0.65499 0.70111 0.51249 0.0
O415 O 0.77597 0.67358 0.48008 0.0
O416 O 0.68544 0.62745 0.46636 0.0
O417 O 0.69258 0.72959 0.46101 0.0
Sc418 Sc 0.87018 0.31385 -0.00421 0.0
Sc419 Sc 0.81576 0.26099 -0.0028 0.0
Sc420 Sc 0.88848 0.24068 -0.00471 0.0
O421 O 0.85805 0.27181 -0.00387 0.0
C422 C 0.912 0.28584 0.94972 0.0
C423 C 0.81594 0.31418 0.95421 0.0
C424 C 0.83998 0.2132 0.95529 0.0
C425 C 0.81802 0.31412 0.03994 0.0
C426 C 0.91591 0.28655 0.03824 0.0
C427 C 0.84354 0.21415 0.03901 0.0
O428 O 0.90025 0.30753 0.96127 0.0
O429 O 0.80443 0.29179 0.96472 0.0
O430 O 0.86561 0.21507 0.9645 0.0
O431 O 0.84072 0.32492 0.02938 0.0
O432 O 0.91447 0.26181 0.02693 0.0
O433 O 0.82243 0.22856 0.02938 0.0
O434 O 0.90139 0.30772 0.0292 0.0
O435 O 0.80661 0.29117 0.03063 0.0
O436 O 0.86901 0.21699 0.02965 0.0
O437 O 0.83958 0.32445 0.96314 0.0
O438 O 0.90996 0.2607 0.96003 0.0
O439 O 0.81983 0.2292 0.96421 0.0
Sc440 Sc 0.24983 0.35028 0.5007 0.0
Sc441 Sc 0.26943 0.27812 0.49356 0.0
Sc442 Sc 0.32117 0.33234 0.49113 0.0
O443 O 0.28004 0.32002 0.49538 0.0
C444 C 0.28862 0.37823 0.45364 0.0
C445 C 0.21768 0.30513 0.46027 0.0
C446 C 0.31673 0.28473 0.44425 0.0
C447 C 0.22716 0.30335 0.54228 0.0
C448 C 0.30074 0.37196 0.54082 0.0
C449 C 0.32706 0.27474 0.52801 0.0
O450 O 0.26368 0.37129 0.46214 0.0
O451 O 0.23702 0.28587 0.46119 0.0
O452 O 0.32426 0.30995 0.45142 0.0
O453 O 0.23354 0.3296 0.53826 0.0
O454 O 0.31943 0.35468 0.53116 0.0
O455 O 0.30091 0.26698 0.52602 0.0
O456 O 0.27677 0.37621 0.52835 0.0
O457 O 0.23715 0.28306 0.52681 0.0
O458 O 0.33717 0.2959 0.51414 0.0
O459 O 0.21864 0.32789 0.47519 0.0
O460 O 0.31119 0.37043 0.46682 0.0
O461 O 0.29997 0.26919 0.45933 0.0
Sc462 Sc 0.89472 0.74738 -0.00304 0.0
Sc463 Sc 0.82242 0.72541 -0.00331 0.0
Sc464 Sc 0.87771 0.67371 -0.00485 0.0
O465 O 0.86487 0.7155 -0.00374 0.0
C466 C 0.92128 0.70339 0.95185 0.0
C467 C 0.84792 0.77278 0.9543 0.0
C468 C 0.82373 0.67268 0.95308 0.0
C469 C 0.84739 0.77289 0.03919 0.0
C470 C 0.92051 0.70176 0.04069 0.0
C471 C 0.82496 0.67145 0.03862 0.0
O472 O 0.91976 0.72774 0.96391 0.0
O473 O 0.82739 0.75769 0.96414 0.0
O474 O 0.84736 0.66249 0.96214 0.0
O475 O 0.87283 0.7716 0.02951 0.0
O476 O 0.90864 0.6801 0.02906 0.0
O477 O 0.81316 0.69422 0.02934 0.0
O478 O 0.91797 0.72702 0.03083 0.0
O479 O 0.82715 0.75716 0.0298 0.0
O480 O 0.84818 0.66145 0.02839 0.0
O481 O 0.8735 0.77117 0.96371 0.0
O482 O 0.90769 0.68156 0.96089 0.0
O483 O 0.81228 0.69508 0.96353 0.0
Sc484 Sc 0.67376 0.31985 0.49854 0.0
Sc485 Sc 0.72639 0.26639 0.49106 0.0
Sc486 Sc 0.74549 0.3398 0.49167 0.0
O487 O 0.71534 0.30854 0.49359 0.0
C488 C 0.69519 0.36367 0.45171 0.0
C489 C 0.66833 0.26563 0.4567 0.0
C490 C 0.76914 0.29572 0.44573 0.0
C491 C 0.67926 0.26753 0.54086 0.0
C492 C 0.70451 0.36511 0.53918 0.0
C493 C 0.77608 0.29231 0.53014 0.0
O494 O 0.67564 0.34743 0.46167 0.0
O495 O 0.69407 0.25688 0.45904 0.0
O496 O 0.76575 0.32114 0.45495 0.0
O497 O 0.67009 0.29255 0.5351 0.0
O498 O 0.72944 0.36097 0.52918 0.0
O499 O 0.7599 0.27155 0.5227 0.0
O500 O 0.68223 0.35423 0.52794 0.0
O501 O 0.69743 0.25415 0.52546 0.0
O502 O 0.77379 0.31742 0.51988 0.0
O503 O 0.65861 0.28665 0.47093 0.0
O504 O 0.72026 0.36515 0.46252 0.0
O505 O 0.75688 0.27402 0.45698 0.0
Sc506 Sc 0.31765 0.65836 0.49566 0.0
Sc507 Sc 0.26449 0.71188 0.48936 0.0
Sc508 Sc 0.24514 0.63844 0.49347 0.0
O509 O 0.27566 0.66968 0.49288 0.0
C510 C 0.29279 0.61187 0.4524 0.0
C511 C 0.31915 0.70785 0.44867 0.0
C512 C 0.21954 0.68177 0.44714 0.0
C513 C 0.31505 0.71392 0.53543 0.0
C514 C 0.28928 0.61604 0.54069 0.0
C515 C 0.21643 0.6869 0.53176 0.0
O516 O 0.31348 0.62586 0.46334 0.0
O517 O 0.29615 0.72037 0.45634 0.0
O518 O 0.22136 0.65717 0.45871 0.0
O519 O 0.32579 0.69011 0.52777 0.0
O520 O 0.26452 0.61663 0.52928 0.0
O521 O 0.2309 0.70759 0.52119 0.0
O522 O 0.31062 0.62931 0.5303 0.0
O523 O 0.29343 0.72527 0.52322 0.0
O524 O 0.21969 0.66096 0.52414 0.0
O525 O 0.32929 0.68613 0.46146 0.0
O526 O 0.26724 0.61345 0.46177 0.0
O527 O 0.23408 0.70329 0.45563 0.0
H528 H 0.04135 0.31793 0.22227 0.0
H529 H 0.03851 0.24875 0.06821 0.0
H530 H 0.06858 0.23116 0.20415 0.0
H531 H 0.07061 0.33538 0.07711 0.0
H532 H 0.0342 0.24575 0.12017 0.0
H533 H 0.04179 0.32805 0.17057 0.0
C534 C 0.04812 0.30123 0.20762 0.0
C535 C 0.05466 0.27351 0.21771 0.0
C536 C 0.04179 0.26553 0.1106 0.0
C537 C 0.05386 0.28472 0.1589 0.0
C538 C 0.04394 0.26744 0.08093 0.0
C539 C 0.05572 0.29209 0.06819 0.0
C540 C 0.05105 0.28851 0.12767 0.0
C541 C 0.06187 0.31577 0.08597 0.0
C542 C 0.048 0.30699 0.17818 0.0
C543 C 0.06317 0.25277 0.19758 0.0
N544 N 0.05988 0.31327 0.11496 0.0
N545 N 0.06192 0.25863 0.16916 0.0
H546 H 0.3562 0.56659 0.70551 0.0
H547 H 0.2475 0.59353 0.57557 0.0
H548 H 0.26504 0.54979 0.71039 0.0
H549 H 0.33885 0.60951 0.5715 0.0
H550 H 0.25307 0.57865 0.62545 0.0
H551 H 0.34935 0.58622 0.65763 0.0
C552 C 0.33465 0.56748 0.69675 0.0
C553 C 0.31123 0.5561 0.71188 0.0
C554 C 0.27189 0.58532 0.61357 0.0
C555 C 0.30335 0.57803 0.65677 0.0
C556 C 0.26878 0.59353 0.58498 0.0
C557 C 0.29274 0.60278 0.56924 0.0
C558 C 0.29913 0.58637 0.62648 0.0
C559 C 0.31974 0.60257 0.58272 0.0
C560 C 0.33079 0.5785 0.66928 0.0
C561 C 0.28379 0.5581 0.69948 0.0
N562 N 0.32216 0.59461 0.61057 0.0
N563 N 0.28066 0.56847 0.67247 0.0
H564 H 0.9173 0.65506 0.07684 0.0
H565 H 0.9156 0.75944 0.20813 0.0
H566 H 0.94761 0.74268 0.07283 0.0
H567 H 0.94573 0.6729 0.22249 0.0
H568 H 0.91412 0.74972 0.15691 0.0
H569 H 0.91997 0.65741 0.12934 0.0
C570 C 0.92532 0.67448 0.08683 0.0
C571 C 0.93157 0.69899 0.07033 0.0
C572 C 0.92069 0.73279 0.17141 0.0
C573 C 0.93345 0.70192 0.12997 0.0
C574 C 0.92112 0.73812 0.20072 0.0
C575 C 0.93151 0.7172 0.21973 0.0
C576 C 0.93009 0.7062 0.16102 0.0
C577 C 0.93799 0.68984 0.20862 0.0
C578 C 0.92649 0.67582 0.11676 0.0
C579 C 0.94193 0.72346 0.08457 0.0
N580 N 0.93752 0.68517 0.17983 0.0
N581 N 0.94182 0.72455 0.11358 0.0
H582 H 0.63805 0.42422 0.7008 0.0
H583 H 0.74713 0.386 0.57427 0.0
H584 H 0.72959 0.43865 0.70616 0.0
H585 H 0.65494 0.37672 0.56836 0.0
H586 H 0.74164 0.40369 0.62323 0.0
H587 H 0.64468 0.40274 0.65371 0.0
C588 C 0.65962 0.42247 0.69231 0.0
C589 C 0.68325 0.43362 0.70738 0.0
C590 C 0.72263 0.39789 0.61113 0.0
C591 C 0.6909 0.40949 0.65313 0.0
C592 C 0.72571 0.38803 0.58307 0.0
C593 C 0.70146 0.37985 0.56708 0.0
C594 C 0.69513 0.39953 0.62332 0.0
C595 C 0.67428 0.38276 0.57977 0.0
C596 C 0.66336 0.41038 0.66528 0.0
C597 C 0.7107 0.43051 0.69531 0.0
N598 N 0.67189 0.39224 0.60715 0.0
N599 N 0.71373 0.41903 0.66873 0.0
H600 H 0.0722 0.75996 0.77993 0.0
H601 H 0.07298 0.65284 0.90836 0.0
H602 H 0.03466 0.67699 0.76302 0.0
H603 H 0.04003 0.73934 0.91377 0.0
H604 H 0.06999 0.65586 0.85581 0.0
H605 H 0.07729 0.74684 0.83032 0.0
C606 C 0.06615 0.73851 0.78661 0.0
C607 C 0.05274 0.71964 0.76739 0.0
C608 C 0.06299 0.67384 0.86874 0.0
C609 C 0.05789 0.70485 0.82495 0.0
C610 C 0.06438 0.67213 0.89868 0.0
C611 C 0.05731 0.69613 0.91563 0.0
C612 C 0.05504 0.69983 0.85596 0.0
C613 C 0.04628 0.72049 0.90175 0.0
C614 C 0.06861 0.73125 0.81538 0.0
C615 C 0.0452 0.6921 0.7772 0.0
N616 N 0.04617 0.72196 0.87275 0.0
N617 N 0.04739 0.6856 0.80561 0.0
H618 H 0.64023 0.56407 0.29162 0.0
H619 H 0.75141 0.60788 0.41489 0.0
H620 H 0.73182 0.55154 0.28386 0.0
H621 H 0.65923 0.60516 0.42532 0.0
H622 H 0.74547 0.59122 0.36547 0.0
H623 H 0.64783 0.58565 0.33852 0.0
C624 C 0.662 0.56624 0.29956 0.0
C625 C 0.68538 0.55555 0.28391 0.0
C626 C 0.72661 0.59417 0.37869 0.0
C627 C 0.69417 0.57984 0.33792 0.0
C628 C 0.72997 0.60345 0.40697 0.0
C629 C 0.70579 0.60786 0.42438 0.0
C630 C 0.69889 0.58948 0.36776 0.0
C631 C 0.67854 0.60201 0.41283 0.0
C632 C 0.6663 0.57838 0.32647 0.0
C633 C 0.71313 0.55929 0.29523 0.0
N634 N 0.67585 0.59327 0.38525 0.0
N635 N 0.71674 0.57084 0.32174 0.0
H636 H 0.96035 0.32318 0.77244 0.0
H637 H 0.93898 0.24469 0.91812 0.0
H638 H 0.92804 0.23677 0.7794 0.0
H639 H 0.91054 0.33287 0.91372 0.0
H640 H 0.94606 0.24504 0.86654 0.0
H641 H 0.94811 0.3312 0.8232 0.0
C642 C 0.94932 0.30646 0.78423 0.0
C643 C 0.94505 0.2793 0.7719 0.0
C644 C 0.93845 0.26437 0.87696 0.0
C645 C 0.93265 0.28776 0.82957 0.0
C646 C 0.93472 0.26434 0.90647 0.0
C647 C 0.92363 0.28863 0.92033 0.0
C648 C 0.93145 0.28892 0.86109 0.0
C649 C 0.91892 0.31357 0.90391 0.0
C650 C 0.94285 0.31087 0.81321 0.0
C651 C 0.93156 0.258 0.78821 0.0
N652 N 0.92267 0.31305 0.87496 0.0
N653 N 0.92647 0.26245 0.81642 0.0
H654 H 0.35786 0.43781 0.29262 0.0
H655 H 0.24646 0.3928 0.41511 0.0
H656 H 0.26586 0.43547 0.28048 0.0
H657 H 0.3385 0.39447 0.42702 0.0
H658 H 0.25318 0.40838 0.36565 0.0
H659 H 0.35132 0.41937 0.3411 0.0
C660 C 0.33632 0.43293 0.29989 0.0
C661 C 0.31236 0.43854 0.28243 0.0
C662 C 0.27189 0.40548 0.37915 0.0
C663 C 0.30472 0.41797 0.33824 0.0
C664 C 0.26806 0.39685 0.40752 0.0
C665 C 0.29194 0.39229 0.42537 0.0
C666 C 0.29979 0.40957 0.36847 0.0
C667 C 0.31941 0.39771 0.41415 0.0
C668 C 0.33259 0.42265 0.32772 0.0
C669 C 0.28499 0.43175 0.29316 0.0
N670 N 0.32258 0.40592 0.38641 0.0
N671 N 0.28191 0.42212 0.32045 0.0
H672 H 0.1297 0.02405 0.27259 0.0
H673 H 0.10525 0.18532 0.2871 0.0
H674 H 0.20154 0.08206 0.26553 0.0
H675 H 0.05537 0.12606 0.33752 0.0
H676 H 0.14268 0.14889 0.28194 0.0
H677 H 0.10323 0.06069 0.29906 0.0
C678 C 0.14 0.04444 0.27704 0.0
C679 C 0.16758 0.05034 0.26663 0.0
C680 C 0.12398 0.14409 0.29487 0.0
C681 C 0.13739 0.09238 0.29639 0.0
C682 C 0.10267 0.16482 0.29777 0.0
C683 C 0.07736 0.15842 0.31263 0.0
C684 C 0.11934 0.11653 0.30605 0.0
C685 C 0.07473 0.13166 0.32597 0.0
C686 C 0.12501 0.06522 0.29232 0.0
C687 C 0.1802 0.07687 0.27314 0.0
N688 N 0.09519 0.11131 0.32172 0.0
N689 N 0.16469 0.09728 0.28703 0.0
H690 H 0.4571 0.71338 0.84253 0.0
H691 H 0.37396 0.57918 0.86488 0.0
H692 H 0.4054 0.70569 0.76612 0.0
H693 H 0.41614 0.5713 0.7828 0.0
H694 H 0.38753 0.63042 0.8659 0.0
H695 H 0.43851 0.66654 0.85881 0.0
C696 C 0.44083 0.70256 0.82989 0.0
C697 C 0.43294 0.71315 0.80279 0.0
C698 C 0.39414 0.61708 0.84809 0.0
C699 C 0.41252 0.65999 0.82082 0.0
C700 C 0.38662 0.58791 0.84748 0.0
C701 C 0.3936 0.57092 0.82351 0.0
C702 C 0.40823 0.62901 0.82441 0.0
C703 C 0.40987 0.58348 0.80153 0.0
C704 C 0.43048 0.67583 0.83909 0.0
C705 C 0.41223 0.69808 0.78698 0.0
N706 N 0.41603 0.61185 0.80224 0.0
N707 N 0.40341 0.67184 0.79581 0.0
H708 H 0.94252 0.86365 0.33951 0.0
H709 H 0.78928 0.90475 0.2736 0.0
H710 H 0.88937 0.80469 0.29193 0.0
H711 H 0.86076 0.96329 0.28008 0.0
H712 H 0.81822 0.86789 0.29803 0.0
H713 H 0.90437 0.9 0.33569 0.0
C714 C 0.92242 0.85812 0.32916 0.0
C715 C 0.91891 0.83144 0.31582 0.0
C716 C 0.82722 0.88906 0.29467 0.0
C717 C 0.87563 0.87239 0.31144 0.0
C718 C 0.81076 0.91001 0.28086 0.0
C719 C 0.82296 0.93676 0.27455 0.0
C720 C 0.85568 0.89532 0.30261 0.0
C721 C 0.85086 0.94267 0.28424 0.0
C722 C 0.90081 0.87879 0.32684 0.0
C723 C 0.89274 0.82521 0.30231 0.0
N724 N 0.86639 0.92203 0.29764 0.0
N725 N 0.87212 0.84565 0.30023 0.0
H726 H 0.57222 0.4248 0.78015 0.0
H727 H 0.53635 0.27973 0.83951 0.0
H728 H 0.62296 0.41097 0.85654 0.0
H729 H 0.58567 0.28664 0.76161 0.0
H730 H 0.55449 0.32722 0.85427 0.0
H731 H 0.55845 0.37431 0.78084 0.0
C732 C 0.57993 0.41137 0.79748 0.0
C733 C 0.59915 0.42207 0.81807 0.0
C734 C 0.56206 0.31767 0.83451 0.0
C735 C 0.58334 0.36442 0.81881 0.0
C736 C 0.55198 0.29057 0.82617 0.0
C737 C 0.55927 0.2795 0.7991 0.0
C738 C 0.5792 0.33339 0.8155 0.0
C739 C 0.57924 0.2946 0.78244 0.0
C740 C 0.57213 0.38261 0.79774 0.0
C741 C 0.60817 0.40357 0.8402 0.0
N742 N 0.58788 0.32116 0.79053 0.0
N743 N 0.60052 0.37531 0.83979 0.0
H744 H 0.19901 0.9029 0.72692 0.0
H745 H 0.04739 0.86774 0.65419 0.0
H746 H 0.13141 0.96496 0.71507 0.0
H747 H 0.0947 0.80768 0.7063 0.0
H748 H 0.08708 0.90227 0.65928 0.0
H749 H 0.16919 0.86686 0.70222 0.0
C750 C 0.17822 0.90905 0.71847 0.0
C751 C 0.16727 0.9366 0.72335 0.0
C752 C 0.08897 0.88123 0.66896 0.0
C753 C 0.13365 0.89611 0.69497 0.0
C754 C 0.06647 0.86159 0.66598 0.0
C755 C 0.06777 0.8352 0.68027 0.0
C756 C 0.1129 0.87403 0.68587 0.0
C757 C 0.09283 0.82811 0.69538 0.0
C758 C 0.16128 0.88859 0.7045 0.0
C759 C 0.14027 0.9437 0.71209 0.0
N760 N 0.11437 0.84754 0.69802 0.0
N761 N 0.12425 0.9235 0.69857 0.0
H762 H 0.59405 0.71659 0.22004 0.0
H763 H 0.60635 0.5731 0.1298 0.0
H764 H 0.53856 0.7064 0.14668 0.0
H765 H 0.60211 0.57994 0.22211 0.0
H766 H 0.59555 0.62494 0.12646 0.0
H767 H 0.61613 0.67038 0.20915 0.0
C768 C 0.58745 0.70519 0.20087 0.0
C769 C 0.56424 0.71496 0.18447 0.0
C770 C 0.59702 0.61476 0.14728 0.0
C771 C 0.5886 0.66193 0.17253 0.0
C772 C 0.60287 0.58529 0.14925 0.0
C773 C 0.60498 0.57203 0.17627 0.0
C774 C 0.59432 0.63089 0.1725 0.0
C775 C 0.60053 0.58893 0.20077 0.0
C776 C 0.59978 0.67874 0.19487 0.0
C777 C 0.55639 0.69941 0.15986 0.0
N778 N 0.59578 0.61742 0.19827 0.0
N779 N 0.56802 0.67305 0.155 0.0
H780 H 0.82562 0.05597 0.70336 0.0
H781 H 0.9392 0.1718 0.75708 0.0
H782 H 0.82604 0.09497 0.78719 0.0
H783 H 0.93398 0.14643 0.66813 0.0
H784 H 0.89645 0.14416 0.76701 0.0
H785 H 0.8624 0.09061 0.6879 0.0
C786 C 0.83278 0.07239 0.71818 0.0
C787 C 0.82305 0.07255 0.74664 0.0
C788 C 0.90449 0.14457 0.74525 0.0
C789 C 0.86528 0.1115 0.72946 0.0
C790 C 0.92921 0.16022 0.73956 0.0
C791 C 0.9405 0.16133 0.7117 0.0
C792 C 0.89079 0.12949 0.72307 0.0
C793 C 0.92616 0.14605 0.68996 0.0
C794 C 0.85396 0.09192 0.70947 0.0
C795 C 0.83323 0.09396 0.76514 0.0
N796 N 0.90208 0.13057 0.69613 0.0
N797 N 0.85399 0.1123 0.75633 0.0
H798 H 0.49074 0.30961 0.17441 0.0
H799 H 0.3523 0.40443 0.14172 0.0
H800 H 0.40572 0.27321 0.17862 0.0
H801 H 0.42804 0.4349 0.18556 0.0
H802 H 0.37413 0.35646 0.13848 0.0
H803 H 0.47013 0.35544 0.15985 0.0
C804 C 0.46771 0.3111 0.17133 0.0
C805 C 0.44981 0.28778 0.1778 0.0
C806 C 0.38608 0.37385 0.14828 0.0
C807 C 0.42612 0.34024 0.16173 0.0
C808 C 0.37382 0.40119 0.14997 0.0
C809 C 0.3885 0.42356 0.16395 0.0
C810 C 0.41342 0.36923 0.15998 0.0
C811 C 0.41605 0.4182 0.1747 0.0
C812 C 0.456 0.33728 0.16326 0.0
C813 C 0.42015 0.29074 0.17366 0.0
N814 N 0.42764 0.39157 0.17246 0.0
N815 N 0.40907 0.31682 0.16626 0.0
H816 H 0.18992 0.20229 0.06036 0.0
H817 H 0.13339 0.06341 0.14247 0.0
H818 H 0.1003 0.17795 0.06054 0.0
H819 H 0.22097 0.07512 0.11432 0.0
H820 H 0.12049 0.10872 0.1192 0.0
H821 H 0.20105 0.15973 0.0883 0.0
C822 C 0.17247 0.1882 0.06651 0.0
C823 C 0.14412 0.19357 0.05769 0.0
C824 C 0.14248 0.10126 0.11813 0.0
C825 C 0.15692 0.14461 0.08965 0.0
C826 C 0.14988 0.07545 0.13136 0.0
C827 C 0.1783 0.06541 0.13022 0.0
C828 C 0.16373 0.11727 0.10409 0.0
C829 C 0.19877 0.08188 0.11555 0.0
C830 C 0.17893 0.16378 0.08234 0.0
C831 C 0.12248 0.17455 0.06662 0.0
N832 N 0.1911 0.10706 0.10318 0.0
N833 N 0.12936 0.15075 0.08201 0.0
H834 H 0.19145 0.78934 0.9321 0.0
H835 H 0.13463 0.92475 0.84374 0.0
H836 H 0.10113 0.80773 0.9212 0.0
H837 H 0.22087 0.91665 0.87709 0.0
H838 H 0.12228 0.8789 0.86627 0.0
H839 H 0.20296 0.83227 0.90467 0.0
C840 C 0.17399 0.80215 0.92364 0.0
C841 C 0.14524 0.79503 0.92931 0.0
C842 C 0.14386 0.88728 0.86866 0.0
C843 C 0.1584 0.84446 0.89806 0.0
C844 C 0.15092 0.91344 0.85588 0.0
C845 C 0.1788 0.92468 0.85864 0.0
C846 C 0.16492 0.87211 0.88396 0.0
C847 C 0.19904 0.90902 0.87455 0.0
C848 C 0.18062 0.8268 0.90814 0.0
C849 C 0.1236 0.81251 0.91762 0.0
N850 N 0.19172 0.88351 0.88649 0.0
N851 N 0.13063 0.83655 0.90269 0.0
H852 H 0.55928 0.80609 0.3357 0.0
H853 H 0.66746 0.68692 0.39434 0.0
H854 H 0.5738 0.72306 0.2973 0.0
H855 H 0.65625 0.76843 0.43663 0.0
H856 H 0.63832 0.7039 0.35459 0.0
H857 H 0.59888 0.79652 0.36942 0.0
C858 C 0.57089 0.78602 0.33423 0.0
C859 C 0.56285 0.7651 0.31407 0.0
C860 C 0.64237 0.71833 0.37234 0.0
C861 C 0.60806 0.75422 0.35209 0.0
C862 C 0.65909 0.70861 0.39501 0.0
C863 C 0.66393 0.72621 0.41884 0.0
C864 C 0.62982 0.7457 0.37368 0.0
C865 C 0.6529 0.75423 0.41856 0.0
C866 C 0.59345 0.78059 0.3534 0.0
C867 C 0.57874 0.73957 0.31289 0.0
N868 N 0.63584 0.76301 0.3965 0.0
N869 N 0.60037 0.73485 0.33167 0.0
H870 H 0.87643 0.17415 0.93097 0.0
H871 H 0.75015 0.07243 0.87413 0.0
H872 H 0.7865 0.19611 0.93724 0.0
H873 H 0.84008 0.04964 0.87385 0.0
H874 H 0.76263 0.11818 0.89664 0.0
H875 H 0.86319 0.1296 0.90715 0.0
C876 C 0.85391 0.16982 0.92703 0.0
C877 C 0.83255 0.18884 0.93641 0.0
C878 C 0.77957 0.10305 0.89178 0.0
C879 C 0.81722 0.13754 0.90949 0.0
C880 C 0.77244 0.07683 0.87917 0.0
C881 C 0.7941 0.05718 0.87199 0.0
C882 C 0.80853 0.10963 0.89716 0.0
C883 C 0.82264 0.06414 0.87885 0.0
C884 C 0.84634 0.14424 0.91359 0.0
C885 C 0.80372 0.18206 0.93052 0.0
N886 N 0.82901 0.08983 0.89089 0.0
N887 N 0.79688 0.15683 0.91764 0.0
H888 H 0.32885 0.22852 0.43118 0.0
H889 H 0.41359 0.27392 0.28942 0.0
H890 H 0.33325 0.31454 0.39718 0.0
H891 H 0.4263 0.19257 0.33198 0.0
H892 H 0.37552 0.28512 0.32319 0.0
H893 H 0.35608 0.21135 0.38948 0.0
C894 C 0.33511 0.24366 0.41471 0.0
C895 C 0.32925 0.27302 0.41776 0.0
C896 C 0.3865 0.26472 0.32506 0.0
C897 C 0.3601 0.25368 0.37033 0.0
C898 C 0.40831 0.2583 0.30578 0.0
C899 C 0.42361 0.23249 0.30819 0.0
C900 C 0.37992 0.2453 0.34707 0.0
C901 C 0.41533 0.21289 0.32954 0.0
C902 C 0.35072 0.2339 0.39106 0.0
C903 C 0.33779 0.29178 0.39589 0.0
N904 N 0.39423 0.21985 0.34842 0.0
N905 N 0.35292 0.28182 0.37322 0.0
H906 H 0.79425 0.78939 0.05807 0.0
H907 H 0.85243 0.92121 0.15127 0.0
H908 H 0.88456 0.8084 0.06816 0.0
H909 H 0.76499 0.9134 0.12109 0.0
H910 H 0.86422 0.87644 0.12656 0.0
H911 H 0.78286 0.83079 0.08786 0.0
C912 C 0.81173 0.80203 0.06681 0.0
C913 C 0.84043 0.79553 0.0603 0.0
C914 C 0.84248 0.88459 0.12537 0.0
C915 C 0.82743 0.84314 0.09431 0.0
C916 C 0.83572 0.91014 0.13944 0.0
C917 C 0.80771 0.92121 0.1381 0.0
C918 C 0.82102 0.86987 0.11015 0.0
C919 C 0.78693 0.90587 0.12251 0.0
C920 C 0.80517 0.82579 0.08368 0.0
C921 C 0.86212 0.81273 0.07236 0.0
N922 N 0.79401 0.88097 0.10921 0.0
N923 N 0.85516 0.83586 0.08866 0.0
H924 H 0.56322 0.17539 0.64783 0.0
H925 H 0.67274 0.29226 0.5926 0.0
H926 H 0.59165 0.24849 0.6971 0.0
H927 H 0.66 0.21231 0.54785 0.0
H928 H 0.64756 0.27277 0.63384 0.0
H929 H 0.60254 0.18409 0.61378 0.0
C930 C 0.57808 0.19285 0.65178 0.0
C931 C 0.57384 0.2117 0.67484 0.0
C932 C 0.65051 0.25918 0.61525 0.0
C933 C 0.61849 0.22176 0.63629 0.0
C934 C 0.66486 0.27038 0.59171 0.0
C935 C 0.66806 0.2539 0.56688 0.0
C936 C 0.63852 0.23153 0.61369 0.0
C937 C 0.65779 0.22561 0.56674 0.0
C938 C 0.60045 0.19784 0.63237 0.0
C939 C 0.59371 0.2339 0.67916 0.0
N940 N 0.64286 0.21542 0.58967 0.0
N941 N 0.6149 0.2385 0.65989 0.0
H942 H 0.32587 0.77126 0.54537 0.0
H943 H 0.3977 0.73577 0.69688 0.0
H944 H 0.33216 0.68727 0.58369 0.0
H945 H 0.42422 0.80898 0.64676 0.0
H946 H 0.36098 0.72512 0.6613 0.0
H947 H 0.35081 0.7916 0.58755 0.0
C948 C 0.33215 0.75726 0.56281 0.0
C949 C 0.32742 0.72757 0.56106 0.0
C950 C 0.37458 0.74374 0.65822 0.0
C951 C 0.35501 0.75048 0.60902 0.0
C952 C 0.39555 0.74986 0.67853 0.0
C953 C 0.41449 0.77289 0.67439 0.0
C954 C 0.3726 0.76059 0.6334 0.0
C955 C 0.41024 0.79081 0.65055 0.0
C956 C 0.34634 0.7688 0.58671 0.0
C957 C 0.33584 0.71023 0.58408 0.0
N958 N 0.38998 0.78398 0.63056 0.0
N959 N 0.34922 0.72193 0.60705 0.0
H960 H 0.95635 0.74333 0.92715 0.0
H961 H 0.95095 0.68424 0.76831 0.0
H962 H 0.91467 0.66221 0.91002 0.0
H963 H 0.94236 0.77376 0.79103 0.0
H964 H 0.94576 0.67162 0.81914 0.0
H965 H 0.9641 0.74949 0.8759 0.0
C966 C 0.94942 0.72646 0.91272 0.0
C967 C 0.93422 0.70252 0.92291 0.0
C968 C 0.94469 0.69393 0.81273 0.0
C969 C 0.9427 0.70976 0.86422 0.0
C970 C 0.94731 0.7012 0.78376 0.0
C971 C 0.9474 0.73019 0.77528 0.0
C972 C 0.9427 0.71584 0.83321 0.0
C973 C 0.94269 0.75116 0.79638 0.0
C974 C 0.95356 0.73018 0.88346 0.0
C975 C 0.92621 0.68116 0.90311 0.0
N976 N 0.94107 0.74359 0.82437 0.0
N977 N 0.93018 0.68546 0.87454 0.0
H978 H 0.64598 0.36454 0.41896 0.0
H979 H 0.72569 0.43747 0.28608 0.0
H980 H 0.7335 0.39555 0.42082 0.0
H981 H 0.63355 0.42674 0.28968 0.0
H982 H 0.72958 0.41514 0.3331 0.0
H983 H 0.64124 0.38284 0.37003 0.0
C984 C 0.66406 0.3755 0.4093 0.0
C985 C 0.6902 0.37845 0.4241 0.0
C986 C 0.70853 0.41749 0.32349 0.0
C987 C 0.68507 0.39875 0.36799 0.0
C988 C 0.7063 0.42997 0.29647 0.0
C989 C 0.67921 0.43438 0.28402 0.0
C990 C 0.68353 0.40924 0.33814 0.0
C991 C 0.65487 0.4241 0.29858 0.0
C992 C 0.66138 0.38574 0.3813 0.0
C993 C 0.71292 0.39273 0.41037 0.0
N994 N 0.65758 0.41222 0.32502 0.0
N995 N 0.70987 0.40214 0.38305 0.0
H996 H 0.08725 0.25944 0.7775 0.0
H997 H 0.0458 0.25301 0.91489 0.0
H998 H 0.0232 0.32626 0.77284 0.0
H999 H 0.0716 0.34216 0.91711 0.0
H1000 H 0.04207 0.25613 0.86283 0.0
H1001 H 0.09106 0.26758 0.82911 0.0
C1002 C 0.0748 0.27655 0.78709 0.0
C1003 C 0.05446 0.29177 0.77094 0.0
C1004 C 0.04807 0.27506 0.87495 0.0
C1005 C 0.05851 0.30075 0.82971 0.0
C1006 C 0.04996 0.27344 0.90464 0.0
C1007 C 0.05972 0.29717 0.92045 0.0
C1008 C 0.05567 0.30057 0.86101 0.0
C1009 C 0.06443 0.32319 0.90577 0.0
C1010 C 0.07677 0.28091 0.8165 0.0
C1011 C 0.03902 0.31389 0.78453 0.0
N1012 N 0.06276 0.32414 0.87665 0.0
N1013 N 0.04088 0.31736 0.81344 0.0
H1014 H 0.35961 0.55942 0.28753 0.0
H1015 H 0.2531 0.58461 0.4186 0.0
H1016 H 0.26708 0.55591 0.28077 0.0
H1017 H 0.34305 0.60745 0.42197 0.0
H1018 H 0.25911 0.5703 0.36882 0.0
H1019 H 0.3548 0.57654 0.33676 0.0
C1020 C 0.33828 0.56281 0.29611 0.0
C1021 C 0.31371 0.55578 0.28002 0.0
C1022 C 0.27757 0.57832 0.3805 0.0
C1023 C 0.30817 0.57465 0.33655 0.0
C1024 C 0.27425 0.58617 0.40909 0.0
C1025 C 0.29757 0.59744 0.42457 0.0
C1026 C 0.30441 0.58158 0.36724 0.0
C1027 C 0.32443 0.59894 0.41093 0.0
C1028 C 0.33558 0.57234 0.32433 0.0
C1029 C 0.28667 0.56075 0.29234 0.0
N1030 N 0.32708 0.59126 0.38298 0.0
N1031 N 0.28464 0.56946 0.31999 0.0
H1032 H 0.95474 0.2495 0.06173 0.0
H1033 H 0.9551 0.30971 0.22016 0.0
H1034 H 0.90889 0.32804 0.07957 0.0
H1035 H 0.94877 0.22004 0.19786 0.0
H1036 H 0.94606 0.32213 0.16956 0.0
H1037 H 0.9658 0.24509 0.1126 0.0
C1038 C 0.94755 0.26619 0.07621 0.0
C1039 C 0.93026 0.2888 0.06644 0.0
C1040 C 0.94621 0.29982 0.17605 0.0
C1041 C 0.94241 0.28351 0.12468 0.0
C1042 C 0.95084 0.29273 0.20488 0.0
C1043 C 0.95277 0.2638 0.21311 0.0
C1044 C 0.94407 0.27775 0.15567 0.0
C1045 C 0.94767 0.2426 0.19238 0.0
C1046 C 0.9536 0.26347 0.10526 0.0
C1047 C 0.92201 0.31007 0.08622 0.0
N1048 N 0.94409 0.24999 0.16457 0.0
N1049 N 0.92776 0.30668 0.11462 0.0
H1050 H 0.27071 0.43672 0.71056 0.0
H1051 H 0.35007 0.37225 0.57326 0.0
H1052 H 0.36312 0.43135 0.70403 0.0
H1053 H 0.26169 0.40041 0.57398 0.0
H1054 H 0.35503 0.38844 0.62293 0.0
H1055 H 0.26659 0.41563 0.66296 0.0
C1056 C 0.29015 0.43063 0.69941 0.0
C1057 C 0.31733 0.43621 0.71125 0.0
C1058 C 0.33463 0.39118 0.61209 0.0
C1059 C 0.31269 0.41246 0.65646 0.0
C1060 C 0.33181 0.38211 0.5837 0.0
C1061 C 0.30544 0.38505 0.56933 0.0
C1062 C 0.31083 0.40293 0.62628 0.0
C1063 C 0.28249 0.39784 0.58404 0.0
C1064 C 0.28776 0.41886 0.67206 0.0
C1065 C 0.34172 0.42774 0.69567 0.0
N1066 N 0.28568 0.40612 0.61173 0.0
N1067 N 0.33883 0.41651 0.66894 0.0
H1068 H 0.02651 0.73677 0.05934 0.0
H1069 H 0.0303 0.67586 0.21749 0.0
H1070 H 0.07131 0.65717 0.07513 0.0
H1071 H 0.0394 0.76527 0.19514 0.0
H1072 H 0.03662 0.66326 0.16651 0.0
H1073 H 0.0171 0.74087 0.11055 0.0
C1074 C 0.03378 0.71978 0.07345 0.0
C1075 C 0.05036 0.69698 0.06298 0.0
C1076 C 0.03765 0.68554 0.17306 0.0
C1077 C 0.04009 0.70189 0.12159 0.0
C1078 C 0.03457 0.69271 0.20208 0.0
C1079 C 0.03424 0.72167 0.21047 0.0
C1080 C 0.03983 0.70757 0.15266 0.0
C1081 C 0.03928 0.7427 0.18957 0.0
C1082 C 0.02866 0.72231 0.10268 0.0
C1083 C 0.05874 0.67532 0.08231 0.0
N1084 N 0.04133 0.73528 0.16162 0.0
N1085 N 0.05395 0.67854 0.11091 0.0
H1086 H 0.72655 0.5507 0.70444 0.0
H1087 H 0.64525 0.62676 0.574 0.0
H1088 H 0.63474 0.564 0.70284 0.0
H1089 H 0.73161 0.59324 0.56938 0.0
H1090 H 0.64182 0.60906 0.62325 0.0
H1091 H 0.73004 0.57372 0.65764 0.0
C1092 C 0.70719 0.55895 0.69455 0.0
C1093 C 0.68026 0.55506 0.70745 0.0
C1094 C 0.66143 0.6055 0.61133 0.0
C1095 C 0.68409 0.58098 0.65366 0.0
C1096 C 0.66335 0.61542 0.58317 0.0
C1097 C 0.68871 0.61138 0.56743 0.0
C1098 C 0.68513 0.59174 0.62389 0.0
C1099 C 0.71155 0.59671 0.58054 0.0
C1100 C 0.70917 0.57181 0.66767 0.0
C1101 C 0.65592 0.56621 0.69353 0.0
N1102 N 0.70926 0.58758 0.60803 0.0
N1103 N 0.65838 0.57845 0.66725 0.0
H1104 H 0.8683 0.9787 0.72592 0.0
H1105 H 0.90341 0.82449 0.66117 0.0
H1106 H 0.80168 0.9153 0.71439 0.0
H1107 H 0.96099 0.87511 0.71323 0.0
H1108 H 0.86654 0.86206 0.66643 0.0
H1109 H 0.90288 0.94578 0.70484 0.0
C1110 C 0.86087 0.95796 0.71842 0.0
C1111 C 0.8323 0.94936 0.72244 0.0
C1112 C 0.8874 0.86492 0.67635 0.0
C1113 C 0.87182 0.91155 0.69864 0.0
C1114 C 0.90837 0.84367 0.67334 0.0
C1115 C 0.93507 0.84674 0.68705 0.0
C1116 C 0.89367 0.88954 0.6925 0.0
C1117 C 0.94054 0.87181 0.70264 0.0
C1118 C 0.88061 0.9392 0.70649 0.0
C1119 C 0.82362 0.92254 0.71184 0.0
N1120 N 0.92002 0.89226 0.7049 0.0
N1121 N 0.84353 0.9042 0.70083 0.0
H1122 H 0.53888 0.28144 0.15018 0.0
H1123 H 0.57615 0.42655 0.21821 0.0
H1124 H 0.58389 0.28726 0.23098 0.0
H1125 H 0.61307 0.41551 0.13396 0.0
H1126 H 0.56316 0.37597 0.21846 0.0
H1127 H 0.55515 0.33037 0.13858 0.0
C1128 C 0.55305 0.29246 0.16498 0.0
C1129 C 0.55961 0.28043 0.19187 0.0
C1130 C 0.57374 0.38484 0.19978 0.0
C1131 C 0.57719 0.33617 0.17908 0.0
C1132 C 0.58098 0.41376 0.19945 0.0
C1133 C 0.59625 0.42533 0.17624 0.0
C1134 C 0.58129 0.36735 0.17661 0.0
C1135 C 0.60154 0.40747 0.15242 0.0
C1136 C 0.56202 0.32042 0.15842 0.0
C1137 C 0.57785 0.29584 0.21027 0.0
N1138 N 0.59427 0.37913 0.15328 0.0
N1139 N 0.58532 0.3232 0.20389 0.0
H1140 H 0.1686 0.04421 0.69161 0.0
H1141 H 0.09912 0.19587 0.72607 0.0
H1142 H 0.18403 0.09493 0.76732 0.0
H1143 H 0.0673 0.13984 0.6596 0.0
H1144 H 0.14118 0.16546 0.73131 0.0
H1145 H 0.14218 0.08482 0.67047 0.0
C1146 C 0.16715 0.06425 0.7033 0.0
C1147 C 0.17806 0.06649 0.73119 0.0
C1148 C 0.12522 0.15988 0.71532 0.0
C1149 C 0.14823 0.11239 0.70757 0.0
C1150 C 0.10118 0.17717 0.71241 0.0
C1151 C 0.07947 0.16975 0.69298 0.0
C1152 C 0.12726 0.13458 0.69916 0.0
C1153 C 0.08348 0.14588 0.67517 0.0
C1154 C 0.15203 0.08725 0.69137 0.0
C1155 C 0.1756 0.09252 0.7458 0.0
N1156 N 0.10671 0.12862 0.67915 0.0
N1157 N 0.16071 0.1144 0.7339 0.0
H1158 H 0.35133 0.58497 0.14083 0.0
H1159 H 0.48923 0.68219 0.16854 0.0
H1160 H 0.42851 0.55534 0.18258 0.0
H1161 H 0.4039 0.7157 0.18066 0.0
H1162 H 0.46868 0.63617 0.15391 0.0
H1163 H 0.37251 0.63323 0.1373 0.0
C1164 C 0.37304 0.58846 0.14851 0.0
C1165 C 0.38831 0.56626 0.16203 0.0
C1166 C 0.45445 0.65383 0.15897 0.0
C1167 C 0.41247 0.62088 0.1577 0.0
C1168 C 0.46608 0.68008 0.16705 0.0
C1169 C 0.44812 0.70258 0.17568 0.0
C1170 C 0.42463 0.65006 0.15952 0.0
C1171 C 0.41833 0.69883 0.17387 0.0
C1172 C 0.38492 0.61594 0.14665 0.0
C1173 C 0.41609 0.57192 0.17207 0.0
N1174 N 0.40739 0.67275 0.16627 0.0
N1175 N 0.42731 0.59871 0.16968 0.0
H1176 H 0.82963 0.04454 0.30093 0.0
H1177 H 0.93713 0.16207 0.24413 0.0
H1178 H 0.81712 0.09318 0.22342 0.0
H1179 H 0.93665 0.13859 0.33372 0.0
H1180 H 0.89295 0.13554 0.23729 0.0
H1181 H 0.86682 0.07907 0.31592 0.0
C1182 C 0.83385 0.0632 0.28774 0.0
C1183 C 0.82045 0.06625 0.26099 0.0
C1184 C 0.90235 0.1362 0.25852 0.0
C1185 C 0.86327 0.10479 0.27723 0.0
C1186 C 0.9279 0.15109 0.2624 0.0
C1187 C 0.94086 0.15242 0.28953 0.0
C1188 C 0.88961 0.12204 0.2818 0.0
C1189 C 0.92747 0.13801 0.31239 0.0
C1190 C 0.85527 0.08265 0.29608 0.0
C1191 C 0.82704 0.09024 0.24423 0.0
N1192 N 0.90262 0.12316 0.30797 0.0
N1193 N 0.8483 0.10833 0.25241 0.0
H1194 H 0.44513 0.27676 0.83296 0.0
H1195 H 0.42902 0.43565 0.78555 0.0
H1196 H 0.42934 0.30246 0.74541 0.0
H1197 H 0.37268 0.40984 0.85438 0.0
H1198 H 0.4439 0.38591 0.77991 0.0
H1199 H 0.42794 0.32414 0.84906 0.0
C1200 C 0.43722 0.29192 0.81722 0.0
C1201 C 0.43912 0.28588 0.78774 0.0
C1202 C 0.42866 0.3913 0.79658 0.0
C1203 C 0.42077 0.33974 0.80591 0.0
C1204 C 0.42032 0.41966 0.8 0.0
C1205 C 0.39912 0.42682 0.82006 0.0
C1206 C 0.416 0.36995 0.81349 0.0
C1207 C 0.38894 0.40517 0.8385 0.0
C1208 C 0.42776 0.31893 0.82644 0.0
C1209 C 0.42878 0.30636 0.76829 0.0
N1210 N 0.39718 0.3774 0.8345 0.0
N1211 N 0.42071 0.3326 0.77767 0.0
H1212 H 0.17518 0.89338 0.21575 0.0
H1213 H 0.05789 0.84852 0.33213 0.0
H1214 H 0.16192 0.94236 0.29291 0.0
H1215 H 0.05904 0.8215 0.24356 0.0
H1216 H 0.10228 0.87588 0.32369 0.0
H1217 H 0.14091 0.85767 0.23278 0.0
C1218 C 0.16569 0.89601 0.23679 0.0
C1219 C 0.17121 0.92063 0.25304 0.0
C1220 C 0.09274 0.86384 0.30624 0.0
C1221 C 0.13108 0.88076 0.27207 0.0
C1222 C 0.06739 0.84838 0.31096 0.0
C1223 C 0.05451 0.83302 0.28841 0.0
C1224 C 0.10541 0.86342 0.27897 0.0
C1225 C 0.06787 0.83336 0.26149 0.0
C1226 C 0.14588 0.87588 0.24635 0.0
C1227 C 0.15825 0.92341 0.27998 0.0
N1228 N 0.09254 0.84825 0.25759 0.0
N1229 N 0.13822 0.9039 0.28852 0.0
H1230 H 0.56985 0.69684 0.74313 0.0
H1231 H 0.619 0.57984 0.85259 0.0
H1232 H 0.54385 0.71093 0.83076 0.0
H1233 H 0.57374 0.56149 0.77372 0.0
H1234 H 0.60426 0.63047 0.84826 0.0
H1235 H 0.58936 0.65033 0.75693 0.0
C1236 C 0.56905 0.69052 0.76547 0.0
C1237 C 0.55479 0.70747 0.78575 0.0
C1238 C 0.59734 0.61505 0.8323 0.0
C1239 C 0.5767 0.65427 0.80146 0.0
C1240 C 0.60545 0.58619 0.83481 0.0
C1241 C 0.59798 0.56641 0.81322 0.0
C1242 C 0.58228 0.6239 0.80784 0.0
C1243 C 0.58048 0.57593 0.79063 0.0
C1244 C 0.57993 0.66393 0.77323 0.0
C1245 C 0.55461 0.69837 0.81449 0.0
N1246 N 0.57376 0.60406 0.78824 0.0
N1247 N 0.56497 0.67193 0.82153 0.0
H1248 H 0.7628 0.91299 0.87313 0.0
H1249 H 0.88556 0.80642 0.92395 0.0
H1250 H 0.84978 0.91864 0.84151 0.0
H1251 H 0.79496 0.79004 0.93568 0.0
H1252 H 0.87354 0.8473 0.89344 0.0
H1253 H 0.77488 0.86815 0.89689 0.0
C1254 C 0.78451 0.90486 0.87126 0.0
C1255 C 0.8054 0.91973 0.85551 0.0
C1256 C 0.85634 0.83453 0.90245 0.0
C1257 C 0.81931 0.86821 0.8826 0.0
C1258 C 0.86316 0.8112 0.91989 0.0
C1259 C 0.84123 0.79497 0.93272 0.0
C1260 C 0.82743 0.84181 0.89811 0.0
C1261 C 0.8126 0.80202 0.92646 0.0
C1262 C 0.79132 0.8791 0.88466 0.0
C1263 C 0.83305 0.90792 0.85353 0.0
N1264 N 0.80655 0.82512 0.90988 0.0
N1265 N 0.83929 0.88291 0.86714 0.0
H1266 H 0.88222 0.17909 0.06637 0.0
H1267 H 0.76079 0.06885 0.11554 0.0
H1268 H 0.79118 0.19462 0.0572 0.0
H1269 H 0.85002 0.0598 0.13949 0.0
H1270 H 0.77228 0.11404 0.09208 0.0
H1271 H 0.87139 0.13527 0.09297 0.0
C1272 C 0.85997 0.17354 0.07026 0.0
C1273 C 0.83758 0.19049 0.05926 0.0
C1274 C 0.78937 0.10216 0.10244 0.0
C1275 C 0.82511 0.14013 0.08927 0.0
C1276 C 0.78287 0.07618 0.11565 0.0
C1277 C 0.80447 0.06042 0.12955 0.0
C1278 C 0.81769 0.11249 0.10295 0.0
C1279 C 0.83267 0.07118 0.12905 0.0
C1280 C 0.85382 0.14844 0.08535 0.0
C1281 C 0.80918 0.18223 0.06511 0.0
N1282 N 0.83846 0.09658 0.11598 0.0
N1283 N 0.80377 0.15749 0.07944 0.0
H1284 H 0.4165 0.18396 0.66683 0.0
H1285 H 0.38517 0.27922 0.52931 0.0
H1286 H 0.46129 0.26234 0.64596 0.0
H1287 H 0.31471 0.23718 0.57251 0.0
H1288 H 0.41772 0.26174 0.56591 0.0
H1289 H 0.38268 0.19348 0.62711 0.0
C1290 C 0.41928 0.20301 0.65383 0.0
C1291 C 0.44163 0.22247 0.65966 0.0
C1292 C 0.39516 0.25617 0.56732 0.0
C1293 C 0.40375 0.23299 0.6144 0.0
C1294 C 0.37648 0.2661 0.5464 0.0
C1295 C 0.34694 0.2602 0.54812 0.0
C1296 C 0.38451 0.23999 0.59022 0.0
C1297 C 0.33725 0.24248 0.57052 0.0
C1298 C 0.39999 0.20843 0.63138 0.0
C1299 C 0.44427 0.24689 0.64236 0.0
N1300 N 0.35602 0.23314 0.59098 0.0
N1301 N 0.42571 0.25132 0.62044 0.0
H1302 H 0.09834 0.81178 0.05704 0.0
H1303 H 0.22464 0.91543 0.10881 0.0
H1304 H 0.18834 0.7893 0.05456 0.0
H1305 H 0.13549 0.93047 0.1295 0.0
H1306 H 0.21101 0.87046 0.08588 0.0
H1307 H 0.11088 0.85589 0.08255 0.0
C1308 C 0.12067 0.81586 0.06218 0.0
C1309 C 0.14232 0.79685 0.05337 0.0
C1310 C 0.19442 0.88362 0.09541 0.0
C1311 C 0.15678 0.8475 0.08206 0.0
C1312 C 0.20215 0.90947 0.10828 0.0
C1313 C 0.18119 0.9268 0.12115 0.0
C1314 C 0.1655 0.87506 0.0952 0.0
C1315 C 0.1524 0.91779 0.1199 0.0
C1316 C 0.12781 0.84112 0.07662 0.0
C1317 C 0.17088 0.80332 0.06072 0.0
N1318 N 0.1454 0.89251 0.10717 0.0
N1319 N 0.17728 0.82822 0.07435 0.0
H1320 H 0.67474 0.76029 0.57166 0.0
H1321 H 0.52656 0.72587 0.64482 0.0
H1322 H 0.60664 0.713 0.52979 0.0
H1323 H 0.5697 0.80567 0.66403 0.0
H1324 H 0.56006 0.7178 0.60565 0.0
H1325 H 0.64008 0.77576 0.60833 0.0
C1326 C 0.65256 0.75349 0.56993 0.0
C1327 C 0.64374 0.73489 0.5479 0.0
C1328 C 0.56212 0.73718 0.61832 0.0
C1329 C 0.60452 0.75208 0.58963 0.0
C1330 C 0.54314 0.74168 0.64079 0.0
C1331 C 0.54541 0.76646 0.65761 0.0
C1332 C 0.58388 0.75731 0.61292 0.0
C1333 C 0.56721 0.78636 0.65136 0.0
C1334 C 0.63288 0.7623 0.59081 0.0
C1335 C 0.61467 0.72686 0.54662 0.0
N1336 N 0.58591 0.78122 0.62958 0.0
N1337 N 0.59627 0.73516 0.56739 0.0
H1338 H 0.10382 0.18297 0.92429 0.0
H1339 H 0.22784 0.07388 0.87911 0.0
H1340 H 0.1943 0.19957 0.93683 0.0
H1341 H 0.13901 0.06311 0.85437 0.0
H1342 H 0.21548 0.11939 0.90168 0.0
H1343 H 0.11603 0.13922 0.89827 0.0
C1344 C 0.12626 0.17767 0.92126 0.0
C1345 C 0.14805 0.19491 0.93304 0.0
C1346 C 0.19869 0.10705 0.89133 0.0
C1347 C 0.16211 0.14458 0.90367 0.0
C1348 C 0.20568 0.08091 0.87864 0.0
C1349 C 0.18443 0.06456 0.86482 0.0
C1350 C 0.17022 0.11692 0.89036 0.0
C1351 C 0.15612 0.07495 0.86477 0.0
C1352 C 0.13319 0.15259 0.9065 0.0
C1353 C 0.17674 0.18695 0.92828 0.0
N1354 N 0.14984 0.10047 0.87734 0.0
N1355 N 0.18291 0.16221 0.91424 0.0
H1356 H 0.34509 0.67312 0.4106 0.0
H1357 H 0.42396 0.79785 0.32596 0.0
H1358 H 0.32682 0.76242 0.42678 0.0
H1359 H 0.42567 0.70857 0.30099 0.0
H1360 H 0.38718 0.78648 0.36158 0.0
H1361 H 0.3733 0.68666 0.36911 0.0
C1362 C 0.34705 0.69569 0.40532 0.0
C1363 C 0.33404 0.71677 0.42235 0.0
C1364 C 0.39543 0.7695 0.34807 0.0
C1365 C 0.36655 0.73252 0.37475 0.0
C1366 C 0.41651 0.77591 0.32779 0.0
C1367 C 0.42829 0.75404 0.31069 0.0
C1368 C 0.38623 0.74102 0.35137 0.0
C1369 C 0.41754 0.7261 0.31385 0.0
C1370 C 0.36305 0.70341 0.3815 0.0
C1371 C 0.33672 0.7456 0.41422 0.0
N1372 N 0.39735 0.72039 0.33396 0.0
N1373 N 0.35311 0.75273 0.39112 0.0
H1374 H 0.57938 0.18404 0.31269 0.0
H1375 H 0.61028 0.26887 0.45719 0.0
H1376 H 0.53189 0.25803 0.34172 0.0
H1377 H 0.68045 0.23122 0.40983 0.0
H1378 H 0.57716 0.25282 0.42042 0.0
H1379 H 0.61309 0.19072 0.35302 0.0
C1380 C 0.57597 0.2015 0.32764 0.0
C1381 C 0.55298 0.22064 0.32391 0.0
C1382 C 0.59978 0.2479 0.41812 0.0
C1383 C 0.5907 0.2279 0.36977 0.0
C1384 C 0.61877 0.25705 0.43909 0.0
C1385 C 0.64834 0.25199 0.43623 0.0
C1386 C 0.61023 0.23349 0.394 0.0
C1387 C 0.65786 0.23585 0.41266 0.0
C1388 C 0.59518 0.20531 0.35043 0.0
C1389 C 0.54947 0.24296 0.34367 0.0
N1390 N 0.6388 0.22738 0.39211 0.0
N1391 N 0.56805 0.24587 0.36581 0.0
H1392 H 0.21305 0.28031 0.40701 0.0
H1393 H 0.04501 0.2678 0.40743 0.0
H1394 H 0.16327 0.31921 0.47455 0.0
H1395 H 0.08917 0.28821 0.32883 0.0
H1396 H 0.08922 0.27835 0.43422 0.0
H1397 H 0.1685 0.27394 0.379 0.0
C1398 C 0.19277 0.28738 0.4159 0.0
C1399 C 0.19168 0.30039 0.44294 0.0
C1400 C 0.08904 0.28079 0.41113 0.0
C1401 C 0.14124 0.29282 0.41163 0.0
C1402 C 0.06393 0.27488 0.39593 0.0
C1403 C 0.06352 0.27751 0.36603 0.0
C1404 C 0.11403 0.28838 0.39617 0.0
C1405 C 0.08862 0.28641 0.35196 0.0
C1406 C 0.16755 0.28395 0.39993 0.0
C1407 C 0.16497 0.3093 0.45362 0.0
N1408 N 0.11311 0.29111 0.36714 0.0
N1409 N 0.14072 0.30506 0.43807 0.0
H1410 H 0.14437 0.62959 0.9149 0.0
H1411 H 0.29963 0.57677 0.87317 0.0
H1412 H 0.2211 0.67679 0.93729 0.0
H1413 H 0.22418 0.55042 0.82602 0.0
H1414 H 0.27101 0.61313 0.89757 0.0
H1415 H 0.17282 0.59993 0.88242 0.0
C1416 C 0.16715 0.63385 0.91282 0.0
C1417 C 0.18048 0.65545 0.92906 0.0
C1418 C 0.26079 0.59959 0.88167 0.0
C1419 C 0.21305 0.62155 0.89221 0.0
C1420 C 0.27705 0.57872 0.8679 0.0
C1421 C 0.26415 0.5604 0.84779 0.0
C1422 C 0.23134 0.60181 0.87565 0.0
C1423 C 0.23492 0.56409 0.84146 0.0
C1424 C 0.18332 0.61702 0.89419 0.0
C1425 C 0.20998 0.66029 0.92527 0.0
N1426 N 0.21935 0.58417 0.85566 0.0
N1427 N 0.22537 0.64318 0.90752 0.0
H1428 H 0.90372 0.69864 0.33133 0.0
H1429 H 0.83073 0.69088 0.48409 0.0
H1430 H 0.94799 0.72637 0.40784 0.0
H1431 H 0.78173 0.71219 0.40852 0.0
H1432 H 0.875 0.69488 0.45623 0.0
H1433 H 0.85956 0.69309 0.35942 0.0
C1434 C 0.90429 0.7029 0.35416 0.0
C1435 C 0.92946 0.71287 0.36741 0.0
C1436 C 0.85458 0.69883 0.4458 0.0
C1437 C 0.87933 0.70683 0.39928 0.0
C1438 C 0.82942 0.69659 0.4616 0.0
C1439 C 0.80278 0.70136 0.44844 0.0
C1440 C 0.85297 0.70517 0.41651 0.0
C1441 C 0.80201 0.70865 0.41935 0.0
C1442 C 0.87907 0.70013 0.36999 0.0
C1443 C 0.92898 0.71862 0.39689 0.0
N1444 N 0.82687 0.71003 0.40414 0.0
N1445 N 0.90427 0.71543 0.41191 0.0
H1446 H 0.7682 0.43528 0.82248 0.0
H1447 H 0.75893 0.31105 0.94014 0.0
H1448 H 0.69106 0.41435 0.86936 0.0
H1449 H 0.8382 0.3529 0.91629 0.0
H1450 H 0.73333 0.34104 0.90553 0.0
H1451 H 0.79358 0.39731 0.8485 0.0
C1452 C 0.75656 0.42253 0.83803 0.0
C1453 C 0.72763 0.4282 0.84412 0.0
C1454 C 0.75637 0.34343 0.90775 0.0
C1455 C 0.75634 0.38482 0.87359 0.0
C1456 C 0.771 0.32628 0.92739 0.0
C1457 C 0.80065 0.32983 0.93139 0.0
C1458 C 0.77157 0.36398 0.89185 0.0
C1459 C 0.81524 0.34982 0.91422 0.0
C1460 C 0.77105 0.40097 0.85287 0.0
C1461 C 0.71351 0.411 0.86438 0.0
N1462 N 0.80051 0.36628 0.89528 0.0
N1463 N 0.72805 0.39012 0.87847 0.0
H1464 H 0.18854 0.64973 0.56768 0.0
H1465 H 0.05939 0.75786 0.5923 0.0
H1466 H 0.18917 0.73819 0.54006 0.0
H1467 H 0.06935 0.68155 0.644 0.0
H1468 H 0.10484 0.7477 0.56925 0.0
H1469 H 0.14394 0.65875 0.5938 0.0
C1470 C 0.17951 0.67115 0.5674 0.0
C1471 C 0.19248 0.69323 0.55145 0.0
C1472 C 0.09713 0.73313 0.58561 0.0
C1473 C 0.14133 0.7034 0.58084 0.0
C1474 C 0.07099 0.73876 0.5987 0.0
C1475 C 0.06054 0.72064 0.62039 0.0
C1476 C 0.11303 0.70906 0.59397 0.0
C1477 C 0.07655 0.69611 0.62742 0.0
C1478 C 0.15405 0.67621 0.58227 0.0
C1479 C 0.17995 0.72054 0.55203 0.0
N1480 N 0.10214 0.69104 0.61427 0.0
N1481 N 0.15487 0.72476 0.56617 0.0
H1482 H 0.69369 0.57697 0.12399 0.0
H1483 H 0.84681 0.62853 0.07243 0.0
H1484 H 0.77159 0.54816 0.16516 0.0
H1485 H 0.76921 0.67661 0.05611 0.0
H1486 H 0.82023 0.59833 0.1061 0.0
H1487 H 0.72135 0.61307 0.09815 0.0
C1488 C 0.71663 0.57833 0.12765 0.0
C1489 C 0.73045 0.55941 0.14653 0.0
C1490 C 0.80916 0.61572 0.09538 0.0
C1491 C 0.76223 0.60055 0.11692 0.0
C1492 C 0.82426 0.63288 0.07607 0.0
C1493 C 0.81012 0.65492 0.06117 0.0
C1494 C 0.77968 0.62039 0.09944 0.0
C1495 C 0.78097 0.65979 0.06699 0.0
C1496 C 0.73238 0.59904 0.11303 0.0
C1497 C 0.76015 0.56234 0.15075 0.0
N1498 N 0.76663 0.64241 0.08538 0.0
N1499 N 0.77518 0.58231 0.13573 0.0
H1500 H 0.79768 0.2407 0.54845 0.0
H1501 H 0.9257 0.3128 0.63786 0.0
H1502 H 0.8083 0.3323 0.55839 0.0
H1503 H 0.92102 0.22258 0.61674 0.0
H1504 H 0.88014 0.32016 0.61274 0.0
H1505 H 0.84004 0.23331 0.5785 0.0
C1506 C 0.80872 0.25923 0.55716 0.0
C1507 C 0.79966 0.28714 0.5506 0.0
C1508 C 0.88917 0.29878 0.61365 0.0
C1509 C 0.84814 0.27889 0.58476 0.0
C1510 C 0.9152 0.29459 0.62791 0.0
C1511 C 0.92733 0.26709 0.62928 0.0
C1512 C 0.8752 0.27529 0.60085 0.0
C1513 C 0.91265 0.24423 0.61611 0.0
C1514 C 0.83298 0.25502 0.57418 0.0
C1515 C 0.81476 0.31038 0.56254 0.0
N1516 N 0.88739 0.24886 0.60248 0.0
N1517 N 0.83837 0.30573 0.57892 0.0
H1518 H 0.29443 0.40909 0.12776 0.0
H1519 H 0.14249 0.35653 0.07764 0.0
H1520 H 0.21677 0.43743 0.16942 0.0
H1521 H 0.22014 0.30898 0.06034 0.0
H1522 H 0.16855 0.38487 0.11322 0.0
H1523 H 0.2674 0.37079 0.10454 0.0
C1524 C 0.27166 0.40708 0.13213 0.0
C1525 C 0.25763 0.42664 0.1501 0.0
C1526 C 0.17974 0.36792 0.10196 0.0
C1527 C 0.22657 0.38306 0.1235 0.0
C1528 C 0.16495 0.35187 0.08153 0.0
C1529 C 0.17935 0.33077 0.06562 0.0
C1530 C 0.20919 0.36311 0.10612 0.0
C1531 C 0.20829 0.32525 0.07189 0.0
C1532 C 0.25629 0.3851 0.11905 0.0
C1533 C 0.22827 0.42283 0.15551 0.0
N1534 N 0.2224 0.3417 0.09133 0.0
N1535 N 0.21352 0.40172 0.1418 0.0
H1536 H 0.30283 0.05374 0.24608 0.0
H1537 H 0.41468 0.15686 0.16616 0.0
H1538 H 0.29951 0.06706 0.15448 0.0
H1539 H 0.42527 0.12177 0.25126 0.0
H1540 H 0.37021 0.1284 0.16104 0.0
H1541 H 0.34464 0.08483 0.24857 0.0
C1542 C 0.31071 0.06337 0.22648 0.0
C1543 C 0.29772 0.05746 0.20001 0.0
C1544 C 0.38248 0.12704 0.18072 0.0
C1545 C 0.34606 0.09305 0.20266 0.0
C1546 C 0.40786 0.14312 0.18359 0.0
C1547 C 0.42364 0.14198 0.20926 0.0
C1548 C 0.37298 0.11 0.20375 0.0
C1549 C 0.41376 0.12382 0.23119 0.0
C1550 C 0.33476 0.08105 0.22788 0.0
C1551 C 0.30896 0.07082 0.17536 0.0
N1552 N 0.38913 0.10879 0.22796 0.0
N1553 N 0.33263 0.0879 0.17725 0.0
H1554 H 0.30271 0.93128 0.74461 0.0
H1555 H 0.41796 0.83189 0.82007 0.0
H1556 H 0.30189 0.9222 0.83683 0.0
H1557 H 0.43353 0.88188 0.74365 0.0
H1558 H 0.37246 0.85803 0.82676 0.0
H1559 H 0.34656 0.90325 0.74287 0.0
C1560 C 0.31151 0.92313 0.76451 0.0
C1561 C 0.2988 0.92956 0.79095 0.0
C1562 C 0.38616 0.8633 0.80877 0.0
C1563 C 0.34928 0.89758 0.78902 0.0
C1564 C 0.41213 0.84862 0.80504 0.0
C1565 C 0.42934 0.85441 0.78102 0.0
C1566 C 0.37751 0.88343 0.78811 0.0
C1567 C 0.42074 0.87626 0.76218 0.0
C1568 C 0.3367 0.9073 0.76349 0.0
C1569 C 0.31117 0.91803 0.81598 0.0
N1570 N 0.39531 0.88964 0.76593 0.0
N1571 N 0.33595 0.90267 0.81445 0.0
H1572 H 0.69662 0.91308 0.16871 0.0
H1573 H 0.55136 0.87761 0.25153 0.0
H1574 H 0.67721 0.94324 0.25405 0.0
H1575 H 0.57675 0.83312 0.17437 0.0
H1576 H 0.59615 0.90425 0.25053 0.0
H1577 H 0.65259 0.88459 0.16923 0.0
C1578 C 0.68329 0.91346 0.18771 0.0
C1579 C 0.69054 0.93076 0.21133 0.0
C1580 C 0.59196 0.88872 0.23376 0.0
C1581 C 0.63992 0.89853 0.21179 0.0
C1582 C 0.56623 0.87357 0.23417 0.0
C1583 C 0.56027 0.85288 0.21306 0.0
C1584 C 0.61199 0.88333 0.21204 0.0
C1585 C 0.58039 0.84886 0.19105 0.0
C1586 C 0.65811 0.89724 0.18791 0.0
C1587 C 0.67253 0.93024 0.23538 0.0
N1588 N 0.60547 0.86389 0.19117 0.0
N1589 N 0.6479 0.91462 0.23486 0.0
H1590 H 0.65637 0.01728 0.80382 0.0
H1591 H 0.58786 0.17225 0.79653 0.0
H1592 H 0.70551 0.08863 0.7711 0.0
H1593 H 0.54056 0.09726 0.76977 0.0
H1594 H 0.63141 0.14258 0.80089 0.0
H1595 H 0.61346 0.04753 0.80428 0.0
C1596 C 0.65808 0.0394 0.79683 0.0
C1597 C 0.68436 0.05057 0.78728 0.0
C1598 C 0.61134 0.13269 0.79446 0.0
C1599 C 0.63571 0.08521 0.78845 0.0
C1600 C 0.58655 0.14941 0.79235 0.0
C1601 C 0.56076 0.13695 0.78302 0.0
C1602 C 0.6099 0.10337 0.78787 0.0
C1603 C 0.56011 0.10748 0.77719 0.0
C1604 C 0.63367 0.05653 0.79709 0.0
C1605 C 0.68551 0.07926 0.77835 0.0
N1606 N 0.58436 0.09158 0.77986 0.0
N1607 N 0.66145 0.09581 0.77938 0.0
H1608 H 0.78489 0.65753 0.58609 0.0
H1609 H 0.91053 0.68785 0.66304 0.0
H1610 H 0.79237 0.7446 0.55522 0.0
H1611 H 0.92058 0.75527 0.60027 0.0
H1612 H 0.86208 0.67914 0.64503 0.0
H1613 H 0.8288 0.66405 0.61355 0.0
C1614 C 0.79536 0.6783 0.58566 0.0
C1615 C 0.78505 0.70045 0.56798 0.0
C1616 C 0.87503 0.69547 0.63483 0.0
C1617 C 0.83545 0.70817 0.59967 0.0
C1618 C 0.90277 0.70048 0.64515 0.0
C1619 C 0.91985 0.72217 0.63303 0.0
C1620 C 0.86437 0.71223 0.61215 0.0
C1621 C 0.90839 0.7382 0.61024 0.0
C1622 C 0.82051 0.68205 0.60151 0.0
C1623 C 0.79953 0.72686 0.56837 0.0
N1624 N 0.8814 0.73295 0.60066 0.0
N1625 N 0.82424 0.7298 0.58356 0.0
H1626 H 0.84048 0.35474 0.07592 0.0
H1627 H 0.68903 0.41223 0.12304 0.0
H1628 H 0.76186 0.30955 0.05607 0.0
H1629 H 0.76633 0.43373 0.16963 0.0
H1630 H 0.71543 0.37483 0.09764 0.0
H1631 H 0.81409 0.38437 0.11015 0.0
C1632 C 0.81773 0.3509 0.07895 0.0
C1633 C 0.80324 0.32992 0.06291 0.0
C1634 C 0.72651 0.38751 0.11367 0.0
C1635 C 0.77303 0.36377 0.10172 0.0
C1636 C 0.71153 0.40895 0.12802 0.0
C1637 C 0.72564 0.42624 0.14821 0.0
C1638 C 0.7559 0.38375 0.11918 0.0
C1639 C 0.75469 0.42089 0.15414 0.0
C1640 C 0.80274 0.36769 0.09857 0.0
C1641 C 0.77384 0.32559 0.06791 0.0
N1642 N 0.76903 0.40034 0.13934 0.0
N1643 N 0.75959 0.3427 0.08658 0.0
H1644 H 0.07518 0.31756 0.64823 0.0
H1645 H 0.19993 0.25189 0.55068 0.0
H1646 H 0.06925 0.23685 0.60293 0.0
H1647 H 0.19972 0.34013 0.5792 0.0
H1648 H 0.15487 0.24415 0.57596 0.0
H1649 H 0.12266 0.32522 0.62708 0.0
C1650 C 0.08362 0.30162 0.63361 0.0
C1651 C 0.06808 0.27651 0.62741 0.0
C1652 C 0.1648 0.26516 0.57686 0.0
C1653 C 0.12262 0.28487 0.60373 0.0
C1654 C 0.19073 0.26954 0.56266 0.0
C1655 C 0.20353 0.29682 0.56245 0.0
C1656 C 0.15156 0.28817 0.59106 0.0
C1657 C 0.19051 0.3188 0.57849 0.0
C1658 C 0.11082 0.30593 0.62172 0.0
C1659 C 0.08029 0.25656 0.60841 0.0
N1660 N 0.16509 0.31406 0.59194 0.0
N1661 N 0.10685 0.2611 0.59743 0.0
H1662 H 0.21579 0.55079 0.16684 0.0
H1663 H 0.21765 0.67942 0.05378 0.0
H1664 H 0.29135 0.57764 0.12049 0.0
H1665 H 0.14139 0.62966 0.07156 0.0
H1666 H 0.24426 0.64992 0.08788 0.0
H1667 H 0.18777 0.58725 0.14109 0.0
C1668 C 0.22652 0.56458 0.15152 0.0
C1669 C 0.25582 0.56105 0.14549 0.0
C1670 C 0.22164 0.64566 0.08446 0.0
C1671 C 0.22415 0.6027 0.11643 0.0
C1672 C 0.20638 0.66255 0.06511 0.0
C1673 C 0.17731 0.65675 0.05951 0.0
C1674 C 0.2077 0.62303 0.09857 0.0
C1675 C 0.16387 0.63462 0.07492 0.0
C1676 C 0.21054 0.58523 0.13681 0.0
C1677 C 0.26871 0.57941 0.12546 0.0
N1678 N 0.17923 0.61843 0.09369 0.0
N1679 N 0.25278 0.59944 0.11162 0.0
H1680 H 0.80053 0.33608 0.41635 0.0
H1681 H 0.915 0.22004 0.36706 0.0
H1682 H 0.78894 0.24446 0.42487 0.0
H1683 H 0.9231 0.30994 0.34579 0.0
H1684 H 0.86774 0.2292 0.3865 0.0
H1685 H 0.84337 0.32745 0.38752 0.0
C1686 C 0.80666 0.31413 0.4118 0.0
C1687 C 0.79132 0.29094 0.42355 0.0
C1688 C 0.87972 0.24698 0.37754 0.0
C1689 C 0.84054 0.28104 0.39081 0.0
C1690 C 0.90694 0.24184 0.36659 0.0
C1691 C 0.92332 0.26435 0.35501 0.0
C1692 C 0.86863 0.27493 0.37727 0.0
C1693 C 0.91134 0.29199 0.35468 0.0
C1694 C 0.8312 0.30927 0.39538 0.0
C1695 C 0.80019 0.26304 0.41661 0.0
N1696 N 0.88474 0.29656 0.36588 0.0
N1697 N 0.82442 0.2589 0.40105 0.0
H1698 H 0.2255 0.31327 0.94331 0.0
H1699 H 0.22696 0.43651 0.82477 0.0
H1700 H 0.14968 0.36091 0.91923 0.0
H1701 H 0.30128 0.41403 0.87548 0.0
H1702 H 0.19874 0.40104 0.85128 0.0
H1703 H 0.25375 0.34251 0.91026 0.0
C1704 C 0.21472 0.32966 0.93086 0.0
C1705 C 0.18522 0.33487 0.93423 0.0
C1706 C 0.22128 0.40379 0.85639 0.0
C1707 C 0.21743 0.36817 0.89637 0.0
C1708 C 0.23743 0.42388 0.84123 0.0
C1709 C 0.26644 0.42838 0.84814 0.0
C1710 C 0.23436 0.38783 0.87828 0.0
C1711 C 0.27889 0.41146 0.8697 0.0
C1712 C 0.2309 0.34638 0.91212 0.0
C1713 C 0.17243 0.35641 0.91754 0.0
N1714 N 0.26275 0.39192 0.88405 0.0
N1715 N 0.18864 0.37234 0.89932 0.0
H1716 H 0.20798 0.73106 0.41735 0.0
H1717 H 0.06242 0.6714 0.34801 0.0
H1718 H 0.18034 0.64294 0.4261 0.0
H1719 H 0.08361 0.76107 0.35844 0.0
H1720 H 0.10923 0.65882 0.36888 0.0
H1721 H 0.16666 0.74027 0.38672 0.0
C1722 C 0.19344 0.71352 0.41259 0.0
C1723 C 0.1974 0.68631 0.42481 0.0
C1724 C 0.10355 0.68121 0.36642 0.0
C1725 C 0.14979 0.69685 0.38991 0.0
C1726 C 0.07689 0.68839 0.35457 0.0
C1727 C 0.06892 0.71731 0.35188 0.0
C1728 C 0.12236 0.70314 0.37521 0.0
C1729 C 0.08858 0.73848 0.36054 0.0
C1730 C 0.16976 0.71884 0.39516 0.0
C1731 C 0.17796 0.66437 0.41748 0.0
N1732 N 0.11429 0.73096 0.37183 0.0
N1733 N 0.15477 0.6702 0.40076 0.0
H1734 H 0.76962 0.55196 0.82251 0.0
H1735 H 0.76725 0.67833 0.93799 0.0
H1736 H 0.69366 0.57733 0.86901 0.0
H1737 H 0.84405 0.63085 0.91707 0.0
H1738 H 0.74028 0.64871 0.90421 0.0
H1739 H 0.79725 0.58812 0.84891 0.0
C1740 C 0.7587 0.56534 0.83802 0.0
C1741 C 0.72937 0.56147 0.84381 0.0
C1742 C 0.76308 0.64496 0.90689 0.0
C1743 C 0.76074 0.60281 0.87378 0.0
C1744 C 0.77854 0.66191 0.92607 0.0
C1745 C 0.80791 0.65683 0.93062 0.0
C1746 C 0.77711 0.62299 0.89193 0.0
C1747 C 0.82137 0.63526 0.9145 0.0
C1748 C 0.7745 0.58584 0.85312 0.0
C1749 C 0.71631 0.57936 0.86415 0.0
N1750 N 0.80582 0.61902 0.8959 0.0
N1751 N 0.73211 0.59925 0.87844 0.0
H1752 H 0.57903 0.83032 0.80743 0.0
H1753 H 0.68422 0.94329 0.73175 0.0
H1754 H 0.56314 0.86905 0.72476 0.0
H1755 H 0.69986 0.90709 0.81558 0.0
H1756 H 0.64194 0.91263 0.72709 0.0
H1757 H 0.6249 0.85597 0.80981 0.0
C1758 C 0.58506 0.84427 0.78987 0.0
C1759 C 0.56706 0.84758 0.76594 0.0
C1760 C 0.65477 0.91124 0.74641 0.0
C1761 C 0.61961 0.8767 0.76837 0.0
C1762 C 0.67906 0.92862 0.749 0.0
C1763 C 0.69548 0.92807 0.77422 0.0
C1764 C 0.64681 0.89321 0.76922 0.0
C1765 C 0.68768 0.90854 0.79585 0.0
C1766 C 0.61132 0.85879 0.79117 0.0
C1767 C 0.57616 0.86582 0.74372 0.0
N1768 N 0.66377 0.8921 0.79296 0.0
N1769 N 0.60173 0.87965 0.74551 0.0
H1770 H 0.55958 0.12191 0.25666 0.0
H1771 H 0.68559 0.06096 0.15985 0.0
H1772 H 0.5715 0.15099 0.16952 0.0
H1773 H 0.68606 0.05904 0.25241 0.0
H1774 H 0.64267 0.09129 0.16123 0.0
H1775 H 0.60381 0.09488 0.25338 0.0
C1776 C 0.57133 0.12249 0.23665 0.0
C1777 C 0.56162 0.13886 0.21327 0.0
C1778 C 0.65239 0.08441 0.18118 0.0
C1779 C 0.61287 0.10777 0.20957 0.0
C1780 C 0.67687 0.06709 0.18046 0.0
C1781 C 0.68939 0.05722 0.20608 0.0
C1782 C 0.64015 0.09155 0.20767 0.0
C1783 C 0.67721 0.06603 0.23211 0.0
C1784 C 0.59683 0.10715 0.23493 0.0
C1785 C 0.57811 0.13869 0.18806 0.0
N1786 N 0.65313 0.08241 0.23221 0.0
N1787 N 0.60295 0.12329 0.18683 0.0
H1788 H 0.31168 0.05579 0.83545 0.0
H1789 H 0.41273 0.14126 0.72768 0.0
H1790 H 0.29519 0.06587 0.74484 0.0
H1791 H 0.42478 0.14491 0.81942 0.0
H1792 H 0.36889 0.11423 0.73468 0.0
H1793 H 0.35205 0.08926 0.83125 0.0
C1794 C 0.31634 0.06518 0.81474 0.0
C1795 C 0.30019 0.05768 0.79037 0.0
C1796 C 0.38095 0.12096 0.75338 0.0
C1797 C 0.34631 0.09583 0.78551 0.0
C1798 C 0.40618 0.1363 0.7494 0.0
C1799 C 0.42268 0.14507 0.77302 0.0
C1800 C 0.37207 0.11395 0.78122 0.0
C1801 C 0.41274 0.13843 0.80063 0.0
C1802 C 0.33938 0.08428 0.8124 0.0
C1803 C 0.30715 0.07067 0.76417 0.0
N1804 N 0.38813 0.12296 0.804 0.0
N1805 N 0.32978 0.08889 0.76243 0.0
H1806 H 0.4268 0.84703 0.16384 0.0
H1807 H 0.28873 0.9153 0.23968 0.0
H1808 H 0.40795 0.84233 0.25435 0.0
H1809 H 0.31272 0.93576 0.15262 0.0
H1810 H 0.329 0.88237 0.24254 0.0
H1811 H 0.38213 0.8743 0.15678 0.0
C1812 C 0.41329 0.85163 0.18215 0.0
C1813 C 0.42132 0.84268 0.20977 0.0
C1814 C 0.32545 0.89395 0.22274 0.0
C1815 C 0.37035 0.87338 0.20182 0.0
C1816 C 0.30237 0.91279 0.22107 0.0
C1817 C 0.29751 0.92868 0.19601 0.0
C1818 C 0.34401 0.89095 0.19924 0.0
C1819 C 0.31577 0.92411 0.17246 0.0
C1820 C 0.38787 0.86716 0.17811 0.0
C1821 C 0.40295 0.84911 0.23272 0.0
N1822 N 0.33842 0.90582 0.17473 0.0
N1823 N 0.37845 0.86403 0.22821 0.0
loop_
_geom_bond_atom_site_label_1
_geom_bond_atom_site_label_2
_geom_bond_distance
_geom_bond_site_symmetry_2
_ccdc_geom_bond_type
Sc0 O3 2.025 . S
Sc0 O10 2.105 1_455 S
Sc0 O13 2.105 . S
Sc0 O16 2.105 . S
Sc0 O19 2.105 1_455 S
Sc1 O3 2.025 . S
Sc1 O11 2.105 1_455 S
Sc1 O15 2.105 . S
Sc1 O17 2.105 . S
Sc1 O21 2.105 1_455 S
Sc2 O3 2.025 . S
Sc2 O12 2.105 1_455 S
Sc2 O14 2.105 . S
Sc2 O18 2.105 . S
Sc2 O20 2.105 1_455 S
O3 Sc0 2.025 . S
O3 Sc1 2.025 . S
O3 Sc2 2.025 . S
C4 O10 1.268 . S
C4 O20 1.268 . S
C5 O11 1.268 . S
C5 O19 1.268 . S
C6 O12 1.268 . S
C6 O21 1.268 . S
C7 O13 1.268 . S
C7 O17 1.268 . S
C8 O14 1.268 . S
C8 O16 1.268 . S
C9 O15 1.268 . S
C9 O18 1.268 . S
O10 Sc0 2.105 1_655 S
O10 C4 1.268 . S
O11 Sc1 2.105 1_655 S
O11 C5 1.268 . S
O12 Sc2 2.105 1_655 S
O12 C6 1.268 . S
O13 Sc0 2.105 . S
O13 C7 1.268 . S
O14 Sc2 2.105 . S
O14 C8 1.268 . S
O15 Sc1 2.105 . S
O15 C9 1.268 . S
O16 Sc0 2.105 . S
O16 C8 1.268 . S
O17 Sc1 2.105 . S
O17 C7 1.268 . S
O18 Sc2 2.105 . S
O18 C9 1.268 . S
O19 Sc0 2.105 1_655 S
O19 C5 1.268 . S
O20 Sc2 2.105 1_655 S
O20 C4 1.268 . S
O21 Sc1 2.105 1_655 S
O21 C6 1.268 . S
Sc22 O25 2.025 . S
Sc22 O32 2.105 . S
Sc22 O35 2.105 . S
Sc22 O38 2.105 . S
Sc22 O41 2.105 . S
Sc23 O25 2.025 . S
Sc23 O33 2.105 . S
Sc23 O37 2.105 . S
Sc23 O39 2.105 . S
Sc23 O43 2.105 . S
Sc24 O25 2.025 . S
Sc24 O34 2.105 . S
Sc24 O36 2.105 . S
Sc24 O40 2.105 . S
Sc24 O42 2.105 . S
O25 Sc22 2.025 . S
O25 Sc23 2.025 . S
O25 Sc24 2.025 . S
C26 O32 1.268 . S
C26 O42 1.268 . S
C27 O33 1.268 . S
C27 O41 1.268 . S
C28 O34 1.268 . S
C28 O43 1.268 . S
C29 O35 1.268 . S
C29 O39 1.268 . S
C30 O36 1.268 . S
C30 O38 1.268 . S
C31 O37 1.268 . S
C31 O40 1.268 . S
O32 Sc22 2.105 . S
O32 C26 1.268 . S
O33 Sc23 2.105 . S
O33 C27 1.268 . S
O34 Sc24 2.105 . S
O34 C28 1.268 . S
O35 Sc22 2.105 . S
O35 C29 1.268 . S
O36 Sc24 2.105 . S
O36 C30 1.268 . S
O37 Sc23 2.105 . S
O37 C31 1.268 . S
O38 Sc22 2.105 . S
O38 C30 1.268 . S
O39 Sc23 2.105 . S
O39 C29 1.268 . S
O40 Sc24 2.105 . S
O40 C31 1.268 . S
O41 Sc22 2.105 . S
O41 C27 1.268 . S
O42 Sc24 2.105 . S
O42 C26 1.268 . S
O43 Sc23 2.105 . S
O43 C28 1.268 . S
Sc44 O47 2.025 . S
Sc44 O54 2.105 . S
Sc44 O57 2.105 1_455 S
Sc44 O60 2.105 1_455 S
Sc44 O63 2.105 . S
Sc45 O47 2.025 . S
Sc45 O55 2.105 . S
Sc45 O59 2.105 1_455 S
Sc45 O61 2.105 1_455 S
Sc45 O65 2.105 . S
Sc46 O47 2.025 . S
Sc46 O56 2.105 . S
Sc46 O58 2.105 1_455 S
Sc46 O62 2.105 1_455 S
Sc46 O64 2.105 . S
O47 Sc44 2.025 . S
O47 Sc45 2.025 . S
O47 Sc46 2.025 . S
C48 O54 1.268 . S
C48 O64 1.268 . S
C49 O55 1.268 . S
C49 O63 1.268 . S
C50 O56 1.268 . S
C50 O65 1.268 . S
C51 O57 1.268 . S
C51 O61 1.268 . S
C52 O58 1.268 . S
C52 O60 1.268 . S
C53 O59 1.268 . S
C53 O62 1.268 . S
O54 Sc44 2.105 . S
O54 C48 1.268 . S
O55 Sc45 2.105 . S
O55 C49 1.268 . S
O56 Sc46 2.105 . S
O56 C50 1.268 . S
O57 Sc44 2.105 1_655 S
O57 C51 1.268 . S
O58 Sc46 2.105 1_655 S
O58 C52 1.268 . S
O59 Sc45 2.105 1_655 S
O59 C53 1.268 . S
O60 Sc44 2.105 1_655 S
O60 C52 1.268 . S
O61 Sc45 2.105 1_655 S
O61 C51 1.268 . S
O62 Sc46 2.105 1_655 S
O62 C53 1.268 . S
O63 Sc44 2.105 . S
O63 C49 1.268 . S
O64 Sc46 2.105 . S
O64 C48 1.268 . S
O65 Sc45 2.105 . S
O65 C50 1.268 . S
Sc66 O69 2.025 . S
Sc66 O76 2.105 . S
Sc66 O79 2.105 . S
Sc66 O82 2.105 . S
Sc66 O85 2.105 . S
Sc67 O69 2.025 . S
Sc67 O77 2.105 . S
Sc67 O81 2.105 . S
Sc67 O83 2.105 . S
Sc67 O87 2.105 . S
Sc68 O69 2.025 . S
Sc68 O78 2.105 . S
Sc68 O80 2.105 . S
Sc68 O84 2.105 . S
Sc68 O86 2.105 . S
O69 Sc66 2.025 . S
O69 Sc67 2.025 . S
O69 Sc68 2.025 . S
C70 O76 1.268 . S
C70 O86 1.268 . S
C71 O77 1.268 . S
C71 O85 1.268 . S
C72 O78 1.268 . S
C72 O87 1.268 . S
C73 O79 1.268 . S
C73 O83 1.268 . S
C74 O80 1.268 . S
C74 O82 1.268 . S
C75 O81 1.268 . S
C75 O84 1.268 . S
O76 Sc66 2.105 . S
O76 C70 1.268 . S
O77 Sc67 2.105 . S
O77 C71 1.268 . S
O78 Sc68 2.105 . S
O78 C72 1.268 . S
O79 Sc66 2.105 . S
O79 C73 1.268 . S
O80 Sc68 2.105 . S
O80 C74 1.268 . S
O81 Sc67 2.105 . S
O81 C75 1.268 . S
O82 Sc66 2.105 . S
O82 C74 1.268 . S
O83 Sc67 2.105 . S
O83 C73 1.268 . S
O84 Sc68 2.105 . S
O84 C75 1.268 . S
O85 Sc66 2.105 . S
O85 C71 1.268 . S
O86 Sc68 2.105 . S
O86 C70 1.268 . S
O87 Sc67 2.105 . S
O87 C72 1.268 . S
Sc88 O91 2.025 . S
Sc88 O98 2.105 . S
Sc88 O101 2.105 1_455 S
Sc88 O104 2.105 1_455 S
Sc88 O107 2.105 . S
Sc89 O91 2.025 . S
Sc89 O99 2.105 . S
Sc89 O103 2.105 1_455 S
Sc89 O105 2.105 1_455 S
Sc89 O109 2.105 . S
Sc90 O91 2.025 . S
Sc90 O100 2.105 . S
Sc90 O102 2.105 1_455 S
Sc90 O106 2.105 1_455 S
Sc90 O108 2.105 . S
O91 Sc88 2.025 . S
O91 Sc89 2.025 . S
O91 Sc90 2.025 . S
C92 O98 1.268 . S
C92 O108 1.268 . S
C93 O99 1.268 . S
C93 O107 1.268 . S
C94 O100 1.268 . S
C94 O109 1.268 . S
C95 O101 1.268 . S
C95 O105 1.268 . S
C96 O102 1.268 . S
C96 O104 1.268 . S
C97 O103 1.268 . S
C97 O106 1.268 . S
O98 Sc88 2.105 . S
O98 C92 1.268 . S
O99 Sc89 2.105 . S
O99 C93 1.268 . S
O100 Sc90 2.105 . S
O100 C94 1.268 . S
O101 Sc88 2.105 1_655 S
O101 C95 1.268 . S
O102 Sc90 2.105 1_655 S
O102 C96 1.268 . S
O103 Sc89 2.105 1_655 S
O103 C97 1.268 . S
O104 Sc88 2.105 1_655 S
O104 C96 1.268 . S
O105 Sc89 2.105 1_655 S
O105 C95 1.268 . S
O106 Sc90 2.105 1_655 S
O106 C97 1.268 . S
O107 Sc88 2.105 . S
O107 C93 1.268 . S
O108 Sc90 2.105 . S
O108 C92 1.268 . S
O109 Sc89 2.105 . S
O109 C94 1.268 . S
Sc110 O113 2.025 . S
Sc110 O120 2.105 . S
Sc110 O123 2.105 . S
Sc110 O126 2.105 . S
Sc110 O129 2.105 . S
Sc111 O113 2.025 . S
Sc111 O121 2.105 . S
Sc111 O125 2.105 . S
Sc111 O127 2.105 . S
Sc111 O131 2.105 . S
Sc112 O113 2.025 . S
Sc112 O122 2.105 . S
Sc112 O124 2.105 . S
Sc112 O128 2.105 . S
Sc112 O130 2.105 . S
O113 Sc110 2.025 . S
O113 Sc111 2.025 . S
O113 Sc112 2.025 . S
C114 O120 1.268 . S
C114 O130 1.268 . S
C115 O121 1.268 . S
C115 O129 1.268 . S
C116 O122 1.268 . S
C116 O131 1.268 . S
C117 O123 1.268 . S
C117 O127 1.268 . S
C118 O124 1.268 . S
C118 O126 1.268 . S
C119 O125 1.268 . S
C119 O128 1.268 . S
O120 Sc110 2.105 . S
O120 C114 1.268 . S
O121 Sc111 2.105 . S
O121 C115 1.268 . S
O122 Sc112 2.105 . S
O122 C116 1.268 . S
O123 Sc110 2.105 . S
O123 C117 1.268 . S
O124 Sc112 2.105 . S
O124 C118 1.268 . S
O125 Sc111 2.105 . S
O125 C119 1.268 . S
O126 Sc110 2.105 . S
O126 C118 1.268 . S
O127 Sc111 2.105 . S
O127 C117 1.268 . S
O128 Sc112 2.105 . S
O128 C119 1.268 . S
O129 Sc110 2.105 . S
O129 C115 1.268 . S
O130 Sc112 2.105 . S
O130 C114 1.268 . S
O131 Sc111 2.105 . S
O131 C116 1.268 . S
Sc132 O135 2.025 . S
Sc132 O142 2.105 1_455 S
Sc132 O145 2.105 . S
Sc132 O148 2.105 . S
Sc132 O151 2.105 1_455 S
Sc133 O135 2.025 . S
Sc133 O143 2.105 1_455 S
Sc133 O147 2.105 . S
Sc133 O149 2.105 . S
Sc133 O153 2.105 1_455 S
Sc134 O135 2.025 . S
Sc134 O144 2.105 1_455 S
Sc134 O146 2.105 . S
Sc134 O150 2.105 . S
Sc134 O152 2.105 1_455 S
O135 Sc132 2.025 . S
O135 Sc133 2.025 . S
O135 Sc134 2.025 . S
C136 O142 1.268 . S
C136 O152 1.268 . S
C137 O143 1.268 . S
C137 O151 1.268 . S
C138 O144 1.268 . S
C138 O153 1.268 . S
C139 O145 1.268 . S
C139 O149 1.268 . S
C140 O146 1.268 . S
C140 O148 1.268 . S
C141 O147 1.268 . S
C141 O150 1.268 . S
O142 Sc132 2.105 1_655 S
O142 C136 1.268 . S
O143 Sc133 2.105 1_655 S
O143 C137 1.268 . S
O144 Sc134 2.105 1_655 S
O144 C138 1.268 . S
O145 Sc132 2.105 . S
O145 C139 1.268 . S
O146 Sc134 2.105 . S
O146 C140 1.268 . S
O147 Sc133 2.105 . S
O147 C141 1.268 . S
O148 Sc132 2.105 . S
O148 C140 1.268 . S
O149 Sc133 2.105 . S
O149 C139 1.268 . S
O150 Sc134 2.105 . S
O150 C141 1.268 . S
O151 Sc132 2.105 1_655 S
O151 C137 1.268 . S
O152 Sc134 2.105 1_655 S
O152 C136 1.268 . S
O153 Sc133 2.105 1_655 S
O153 C138 1.268 . S
Sc154 O157 2.025 . S
Sc154 O164 2.105 . S
Sc154 O167 2.105 . S
Sc154 O170 2.105 . S
Sc154 O173 2.105 . S
Sc155 O157 2.025 . S
Sc155 O165 2.105 . S
Sc155 O169 2.105 . S
Sc155 O171 2.105 . S
Sc155 O175 2.105 . S
Sc156 O157 2.025 . S
Sc156 O166 2.105 . S
Sc156 O168 2.105 . S
Sc156 O172 2.105 . S
Sc156 O174 2.105 . S
O157 Sc154 2.025 . S
O157 Sc155 2.025 . S
O157 Sc156 2.025 . S
C158 O164 1.268 . S
C158 O174 1.268 . S
C159 O165 1.268 . S
C159 O173 1.268 . S
C160 O166 1.268 . S
C160 O175 1.268 . S
C161 O167 1.268 . S
C161 O171 1.268 . S
C162 O168 1.268 . S
C162 O170 1.268 . S
C163 O169 1.268 . S
C163 O172 1.268 . S
O164 Sc154 2.105 . S
O164 C158 1.268 . S
O165 Sc155 2.105 . S
O165 C159 1.268 . S
O166 Sc156 2.105 . S
O166 C160 1.268 . S
O167 Sc154 2.105 . S
O167 C161 1.268 . S
O168 Sc156 2.105 . S
O168 C162 1.268 . S
O169 Sc155 2.105 . S
O169 C163 1.268 . S
O170 Sc154 2.105 . S
O170 C162 1.268 . S
O171 Sc155 2.105 . S
O171 C161 1.268 . S
O172 Sc156 2.105 . S
O172 C163 1.268 . S
O173 Sc154 2.105 . S
O173 C159 1.268 . S
O174 Sc156 2.105 . S
O174 C158 1.268 . S
O175 Sc155 2.105 . S
O175 C160 1.268 . S
Sc176 O179 2.025 . S
Sc176 O186 2.105 1_545 S
Sc176 O189 2.105 . S
Sc176 O192 2.105 . S
Sc176 O195 2.105 1_545 S
Sc177 O179 2.025 . S
Sc177 O187 2.105 1_545 S
Sc177 O191 2.105 . S
Sc177 O193 2.105 . S
Sc177 O197 2.105 1_545 S
Sc178 O179 2.025 . S
Sc178 O188 2.105 1_545 S
Sc178 O190 2.105 . S
Sc178 O194 2.105 . S
Sc178 O196 2.105 1_545 S
O179 Sc176 2.025 . S
O179 Sc177 2.025 . S
O179 Sc178 2.025 . S
C180 O186 1.268 . S
C180 O196 1.268 . S
C181 O187 1.268 . S
C181 O195 1.268 . S
C182 O188 1.268 . S
C182 O197 1.268 . S
C183 O189 1.268 . S
C183 O193 1.268 . S
C184 O190 1.268 . S
C184 O192 1.268 . S
C185 O191 1.268 . S
C185 O194 1.268 . S
O186 Sc176 2.105 1_565 S
O186 C180 1.268 . S
O187 Sc177 2.105 1_565 S
O187 C181 1.268 . S
O188 Sc178 2.105 1_565 S
O188 C182 1.268 . S
O189 Sc176 2.105 . S
O189 C183 1.268 . S
O190 Sc178 2.105 . S
O190 C184 1.268 . S
O191 Sc177 2.105 . S
O191 C185 1.268 . S
O192 Sc176 2.105 . S
O192 C184 1.268 . S
O193 Sc177 2.105 . S
O193 C183 1.268 . S
O194 Sc178 2.105 . S
O194 C185 1.268 . S
O195 Sc176 2.105 1_565 S
O195 C181 1.268 . S
O196 Sc178 2.105 1_565 S
O196 C180 1.268 . S
O197 Sc177 2.105 1_565 S
O197 C182 1.268 . S
Sc198 O201 2.025 . S
Sc198 O208 2.105 . S
Sc198 O211 2.105 . S
Sc198 O214 2.105 . S
Sc198 O217 2.105 . S
Sc199 O201 2.025 . S
Sc199 O209 2.105 . S
Sc199 O213 2.105 . S
Sc199 O215 2.105 . S
Sc199 O219 2.105 . S
Sc200 O201 2.025 . S
Sc200 O210 2.105 . S
Sc200 O212 2.105 . S
Sc200 O216 2.105 . S
Sc200 O218 2.105 . S
O201 Sc198 2.025 . S
O201 Sc199 2.025 . S
O201 Sc200 2.025 . S
C202 O208 1.268 . S
C202 O218 1.268 . S
C203 O209 1.268 . S
C203 O217 1.268 . S
C204 O210 1.268 . S
C204 O219 1.268 . S
C205 O211 1.268 . S
C205 O215 1.268 . S
C206 O212 1.268 . S
C206 O214 1.268 . S
C207 O213 1.268 . S
C207 O216 1.268 . S
O208 Sc198 2.105 . S
O208 C202 1.268 . S
O209 Sc199 2.105 . S
O209 C203 1.268 . S
O210 Sc200 2.105 . S
O210 C204 1.268 . S
O211 Sc198 2.105 . S
O211 C205 1.268 . S
O212 Sc200 2.105 . S
O212 C206 1.268 . S
O213 Sc199 2.105 . S
O213 C207 1.268 . S
O214 Sc198 2.105 . S
O214 C206 1.268 . S
O215 Sc199 2.105 . S
O215 C205 1.268 . S
O216 Sc200 2.105 . S
O216 C207 1.268 . S
O217 Sc198 2.105 . S
O217 C203 1.268 . S
O218 Sc200 2.105 . S
O218 C202 1.268 . S
O219 Sc199 2.105 . S
O219 C204 1.268 . S
Sc220 O223 2.025 . S
Sc220 O230 2.105 1_545 S
Sc220 O233 2.105 . S
Sc220 O236 2.105 . S
Sc220 O239 2.105 1_545 S
Sc221 O223 2.025 . S
Sc221 O231 2.105 1_545 S
Sc221 O235 2.105 . S
Sc221 O237 2.105 . S
Sc221 O241 2.105 1_545 S
Sc222 O223 2.025 . S
Sc222 O232 2.105 1_545 S
Sc222 O234 2.105 . S
Sc222 O238 2.105 . S
Sc222 O240 2.105 1_545 S
O223 Sc220 2.025 . S
O223 Sc221 2.025 . S
O223 Sc222 2.025 . S
C224 O230 1.268 . S
C224 O240 1.268 . S
C225 O231 1.268 . S
C225 O239 1.268 . S
C226 O232 1.268 . S
C226 O241 1.268 . S
C227 O233 1.268 . S
C227 O237 1.268 . S
C228 O234 1.268 . S
C228 O236 1.268 . S
C229 O235 1.268 . S
C229 O238 1.268 . S
O230 Sc220 2.105 1_565 S
O230 C224 1.268 . S
O231 Sc221 2.105 1_565 S
O231 C225 1.268 . S
O232 Sc222 2.105 1_565 S
O232 C226 1.268 . S
O233 Sc220 2.105 . S
O233 C227 1.268 . S
O234 Sc222 2.105 . S
O234 C228 1.268 . S
O235 Sc221 2.105 . S
O235 C229 1.268 . S
O236 Sc220 2.105 . S
O236 C228 1.268 . S
O237 Sc221 2.105 . S
O237 C227 1.268 . S
O238 Sc222 2.105 . S
O238 C229 1.268 . S
O239 Sc220 2.105 1_565 S
O239 C225 1.268 . S
O240 Sc222 2.105 1_565 S
O240 C224 1.268 . S
O241 Sc221 2.105 1_565 S
O241 C226 1.268 . S
Sc242 O245 2.025 . S
Sc242 O252 2.105 . S
Sc242 O255 2.105 . S
Sc242 O258 2.105 . S
Sc242 O261 2.105 . S
Sc243 O245 2.025 . S
Sc243 O253 2.105 . S
Sc243 O257 2.105 . S
Sc243 O259 2.105 . S
Sc243 O263 2.105 . S
Sc244 O245 2.025 . S
Sc244 O254 2.105 . S
Sc244 O256 2.105 . S
Sc244 O260 2.105 . S
Sc244 O262 2.105 . S
O245 Sc242 2.025 . S
O245 Sc243 2.025 . S
O245 Sc244 2.025 . S
C246 O252 1.268 . S
C246 O262 1.268 . S
C247 O253 1.268 . S
C247 O261 1.268 . S
C248 O254 1.268 . S
C248 O263 1.268 . S
C249 O255 1.268 . S
C249 O259 1.268 . S
C250 O256 1.268 . S
C250 O258 1.268 . S
C251 O257 1.268 . S
C251 O260 1.268 . S
O252 Sc242 2.105 . S
O252 C246 1.268 . S
O253 Sc243 2.105 . S
O253 C247 1.268 . S
O254 Sc244 2.105 . S
O254 C248 1.268 . S
O255 Sc242 2.105 . S
O255 C249 1.268 . S
O256 Sc244 2.105 . S
O256 C250 1.268 . S
O257 Sc243 2.105 . S
O257 C251 1.268 . S
O258 Sc242 2.105 . S
O258 C250 1.268 . S
O259 Sc243 2.105 . S
O259 C249 1.268 . S
O260 Sc244 2.105 . S
O260 C251 1.268 . S
O261 Sc242 2.105 . S
O261 C247 1.268 . S
O262 Sc244 2.105 . S
O262 C246 1.268 . S
O263 Sc243 2.105 . S
O263 C248 1.268 . S
Sc264 O267 2.025 . S
Sc264 O274 2.105 1_545 S
Sc264 O277 2.105 . S
Sc264 O280 2.105 . S
Sc264 O283 2.105 1_545 S
Sc265 O267 2.025 . S
Sc265 O275 2.105 1_545 S
Sc265 O279 2.105 . S
Sc265 O281 2.105 . S
Sc265 O285 2.105 1_545 S
Sc266 O267 2.025 . S
Sc266 O276 2.105 1_545 S
Sc266 O278 2.105 . S
Sc266 O282 2.105 . S
Sc266 O284 2.105 1_545 S
O267 Sc264 2.025 . S
O267 Sc265 2.025 . S
O267 Sc266 2.025 . S
C268 O274 1.268 . S
C268 O284 1.268 . S
C269 O275 1.268 . S
C269 O283 1.268 . S
C270 O276 1.268 . S
C270 O285 1.268 . S
C271 O277 1.268 . S
C271 O281 1.268 . S
C272 O278 1.268 . S
C272 O280 1.268 . S
C273 O279 1.268 . S
C273 O282 1.268 . S
O274 Sc264 2.105 1_565 S
O274 C268 1.268 . S
O275 Sc265 2.105 1_565 S
O275 C269 1.268 . S
O276 Sc266 2.105 1_565 S
O276 C270 1.268 . S
O277 Sc264 2.105 . S
O277 C271 1.268 . S
O278 Sc266 2.105 . S
O278 C272 1.268 . S
O279 Sc265 2.105 . S
O279 C273 1.268 . S
O280 Sc264 2.105 . S
O280 C272 1.268 . S
O281 Sc265 2.105 . S
O281 C271 1.268 . S
O282 Sc266 2.105 . S
O282 C273 1.268 . S
O283 Sc264 2.105 1_565 S
O283 C269 1.268 . S
O284 Sc266 2.105 1_565 S
O284 C268 1.268 . S
O285 Sc265 2.105 1_565 S
O285 C270 1.268 . S
Sc286 O289 2.025 . S
Sc286 O296 2.105 . S
Sc286 O299 2.105 . S
Sc286 O302 2.105 . S
Sc286 O305 2.105 . S
Sc287 O289 2.025 . S
Sc287 O297 2.105 . S
Sc287 O301 2.105 . S
Sc287 O303 2.105 . S
Sc287 O307 2.105 . S
Sc288 O289 2.025 . S
Sc288 O298 2.105 . S
Sc288 O300 2.105 . S
Sc288 O304 2.105 . S
Sc288 O306 2.105 . S
O289 Sc286 2.025 . S
O289 Sc287 2.025 . S
O289 Sc288 2.025 . S
C290 O296 1.268 . S
C290 O306 1.268 . S
C291 O297 1.268 . S
C291 O305 1.268 . S
C292 O298 1.268 . S
C292 O307 1.268 . S
C293 O299 1.268 . S
C293 O303 1.268 . S
C294 O300 1.268 . S
C294 O302 1.268 . S
C295 O301 1.268 . S
C295 O304 1.268 . S
O296 Sc286 2.105 . S
O296 C290 1.268 . S
O297 Sc287 2.105 . S
O297 C291 1.268 . S
O298 Sc288 2.105 . S
O298 C292 1.268 . S
O299 Sc286 2.105 . S
O299 C293 1.268 . S
O300 Sc288 2.105 . S
O300 C294 1.268 . S
O301 Sc287 2.105 . S
O301 C295 1.268 . S
O302 Sc286 2.105 . S
O302 C294 1.268 . S
O303 Sc287 2.105 . S
O303 C293 1.268 . S
O304 Sc288 2.105 . S
O304 C295 1.268 . S
O305 Sc286 2.105 . S
O305 C291 1.268 . S
O306 Sc288 2.105 . S
O306 C290 1.268 . S
O307 Sc287 2.105 . S
O307 C292 1.268 . S
Sc308 O311 2.025 . S
Sc308 O318 2.105 1_545 S
Sc308 O321 2.105 . S
Sc308 O324 2.105 . S
Sc308 O327 2.105 1_545 S
Sc309 O311 2.025 . S
Sc309 O319 2.105 1_545 S
Sc309 O323 2.105 . S
Sc309 O325 2.105 . S
Sc309 O329 2.105 1_545 S
Sc310 O311 2.025 . S
Sc310 O320 2.105 1_545 S
Sc310 O322 2.105 . S
Sc310 O326 2.105 . S
Sc310 O328 2.105 1_545 S
O311 Sc308 2.025 . S
O311 Sc309 2.025 . S
O311 Sc310 2.025 . S
C312 O318 1.268 . S
C312 O328 1.268 . S
C313 O319 1.268 . S
C313 O327 1.268 . S
C314 O320 1.268 . S
C314 O329 1.268 . S
C315 O321 1.268 . S
C315 O325 1.268 . S
C316 O322 1.268 . S
C316 O324 1.268 . S
C317 O323 1.268 . S
C317 O326 1.268 . S
O318 Sc308 2.105 1_565 S
O318 C312 1.268 . S
O319 Sc309 2.105 1_565 S
O319 C313 1.268 . S
O320 Sc310 2.105 1_565 S
O320 C314 1.268 . S
O321 Sc308 2.105 . S
O321 C315 1.268 . S
O322 Sc310 2.105 . S
O322 C316 1.268 . S
O323 Sc309 2.105 . S
O323 C317 1.268 . S
O324 Sc308 2.105 . S
O324 C316 1.268 . S
O325 Sc309 2.105 . S
O325 C315 1.268 . S
O326 Sc310 2.105 . S
O326 C317 1.268 . S
O327 Sc308 2.105 1_565 S
O327 C313 1.268 . S
O328 Sc310 2.105 1_565 S
O328 C312 1.268 . S
O329 Sc309 2.105 1_565 S
O329 C314 1.268 . S
Sc330 O333 2.025 . S
Sc330 O340 2.105 . S
Sc330 O343 2.105 . S
Sc330 O346 2.105 . S
Sc330 O349 2.105 . S
Sc331 O333 2.025 . S
Sc331 O341 2.105 . S
Sc331 O345 2.105 . S
Sc331 O347 2.105 . S
Sc331 O351 2.105 . S
Sc332 O333 2.025 . S
Sc332 O342 2.105 . S
Sc332 O344 2.105 . S
Sc332 O348 2.105 . S
Sc332 O350 2.105 . S
O333 Sc330 2.025 . S
O333 Sc331 2.025 . S
O333 Sc332 2.025 . S
C334 O340 1.268 . S
C334 O350 1.268 . S
C335 O341 1.268 . S
C335 O349 1.268 . S
C336 O342 1.268 . S
C336 O351 1.268 . S
C337 O343 1.268 . S
C337 O347 1.268 . S
C338 O344 1.268 . S
C338 O346 1.268 . S
C339 O345 1.268 . S
C339 O348 1.268 . S
O340 Sc330 2.105 . S
O340 C334 1.268 . S
O341 Sc331 2.105 . S
O341 C335 1.268 . S
O342 Sc332 2.105 . S
O342 C336 1.268 . S
O343 Sc330 2.105 . S
O343 C337 1.268 . S
O344 Sc332 2.105 . S
O344 C338 1.268 . S
O345 Sc331 2.105 . S
O345 C339 1.268 . S
O346 Sc330 2.105 . S
O346 C338 1.268 . S
O347 Sc331 2.105 . S
O347 C337 1.268 . S
O348 Sc332 2.105 . S
O348 C339 1.268 . S
O349 Sc330 2.105 . S
O349 C335 1.268 . S
O350 Sc332 2.105 . S
O350 C334 1.268 . S
O351 Sc331 2.105 . S
O351 C336 1.268 . S
Sc352 O355 2.025 . S
Sc352 O362 2.105 1_554 S
Sc352 O365 2.105 . S
Sc352 O368 2.105 . S
Sc352 O371 2.105 1_554 S
Sc353 O355 2.025 . S
Sc353 O363 2.105 1_554 S
Sc353 O367 2.105 . S
Sc353 O369 2.105 . S
Sc353 O373 2.105 1_554 S
Sc354 O355 2.025 . S
Sc354 O364 2.105 1_554 S
Sc354 O366 2.105 . S
Sc354 O370 2.105 . S
Sc354 O372 2.105 1_554 S
O355 Sc352 2.025 . S
O355 Sc353 2.025 . S
O355 Sc354 2.025 . S
C356 O362 1.268 . S
C356 O372 1.268 . S
C357 O363 1.268 . S
C357 O371 1.268 . S
C358 O364 1.268 . S
C358 O373 1.268 . S
C359 O365 1.268 . S
C359 O369 1.268 . S
C360 O366 1.268 . S
C360 O368 1.268 . S
C361 O367 1.268 . S
C361 O370 1.268 . S
O362 Sc352 2.105 1_556 S
O362 C356 1.268 . S
O363 Sc353 2.105 1_556 S
O363 C357 1.268 . S
O364 Sc354 2.105 1_556 S
O364 C358 1.268 . S
O365 Sc352 2.105 . S
O365 C359 1.268 . S
O366 Sc354 2.105 . S
O366 C360 1.268 . S
O367 Sc353 2.105 . S
O367 C361 1.268 . S
O368 Sc352 2.105 . S
O368 C360 1.268 . S
O369 Sc353 2.105 . S
O369 C359 1.268 . S
O370 Sc354 2.105 . S
O370 C361 1.268 . S
O371 Sc352 2.105 1_556 S
O371 C357 1.268 . S
O372 Sc354 2.105 1_556 S
O372 C356 1.268 . S
O373 Sc353 2.105 1_556 S
O373 C358 1.268 . S
Sc374 O377 2.025 . S
Sc374 O384 2.105 1_554 S
Sc374 O387 2.105 . S
Sc374 O390 2.105 . S
Sc374 O393 2.105 1_554 S
Sc375 O377 2.025 . S
Sc375 O385 2.105 1_554 S
Sc375 O389 2.105 . S
Sc375 O391 2.105 . S
Sc375 O395 2.105 1_554 S
Sc376 O377 2.025 . S
Sc376 O386 2.105 1_554 S
Sc376 O388 2.105 . S
Sc376 O392 2.105 . S
Sc376 O394 2.105 1_554 S
O377 Sc374 2.025 . S
O377 Sc375 2.025 . S
O377 Sc376 2.025 . S
C378 O384 1.268 . S
C378 O394 1.268 . S
C379 O385 1.268 . S
C379 O393 1.268 . S
C380 O386 1.268 . S
C380 O395 1.268 . S
C381 O387 1.268 . S
C381 O391 1.268 . S
C382 O388 1.268 . S
C382 O390 1.268 . S
C383 O389 1.268 . S
C383 O392 1.268 . S
O384 Sc374 2.105 1_556 S
O384 C378 1.268 . S
O385 Sc375 2.105 1_556 S
O385 C379 1.268 . S
O386 Sc376 2.105 1_556 S
O386 C380 1.268 . S
O387 Sc374 2.105 . S
O387 C381 1.268 . S
O388 Sc376 2.105 . S
O388 C382 1.268 . S
O389 Sc375 2.105 . S
O389 C383 1.268 . S
O390 Sc374 2.105 . S
O390 C382 1.268 . S
O391 Sc375 2.105 . S
O391 C381 1.268 . S
O392 Sc376 2.105 . S
O392 C383 1.268 . S
O393 Sc374 2.105 1_556 S
O393 C379 1.268 . S
O394 Sc376 2.105 1_556 S
O394 C378 1.268 . S
O395 Sc375 2.105 1_556 S
O395 C380 1.268 . S
Sc396 O399 2.025 . S
Sc396 O406 2.105 . S
Sc396 O409 2.105 . S
Sc396 O412 2.105 . S
Sc396 O415 2.105 . S
Sc397 O399 2.025 . S
Sc397 O407 2.105 . S
Sc397 O411 2.105 . S
Sc397 O413 2.105 . S
Sc397 O417 2.105 . S
Sc398 O399 2.025 . S
Sc398 O408 2.105 . S
Sc398 O410 2.105 . S
Sc398 O414 2.105 . S
Sc398 O416 2.105 . S
O399 Sc396 2.025 . S
O399 Sc397 2.025 . S
O399 Sc398 2.025 . S
C400 O406 1.268 . S
C400 O416 1.268 . S
C401 O407 1.268 . S
C401 O415 1.268 . S
C402 O408 1.268 . S
C402 O417 1.268 . S
C403 O409 1.268 . S
C403 O413 1.268 . S
C404 O410 1.268 . S
C404 O412 1.268 . S
C405 O411 1.268 . S
C405 O414 1.268 . S
O406 Sc396 2.105 . S
O406 C400 1.268 . S
O407 Sc397 2.105 . S
O407 C401 1.268 . S
O408 Sc398 2.105 . S
O408 C402 1.268 . S
O409 Sc396 2.105 . S
O409 C403 1.268 . S
O410 Sc398 2.105 . S
O410 C404 1.268 . S
O411 Sc397 2.105 . S
O411 C405 1.268 . S
O412 Sc396 2.105 . S
O412 C404 1.268 . S
O413 Sc397 2.105 . S
O413 C403 1.268 . S
O414 Sc398 2.105 . S
O414 C405 1.268 . S
O415 Sc396 2.105 . S
O415 C401 1.268 . S
O416 Sc398 2.105 . S
O416 C400 1.268 . S
O417 Sc397 2.105 . S
O417 C402 1.268 . S
Sc418 O421 2.025 . S
Sc418 O428 2.105 1_554 S
Sc418 O431 2.105 . S
Sc418 O434 2.105 . S
Sc418 O437 2.105 1_554 S
Sc419 O421 2.025 . S
Sc419 O429 2.105 1_554 S
Sc419 O433 2.105 . S
Sc419 O435 2.105 . S
Sc419 O439 2.105 1_554 S
Sc420 O421 2.025 . S
Sc420 O430 2.105 1_554 S
Sc420 O432 2.105 . S
Sc420 O436 2.105 . S
Sc420 O438 2.105 1_554 S
O421 Sc418 2.025 . S
O421 Sc419 2.025 . S
O421 Sc420 2.025 . S
C422 O428 1.268 . S
C422 O438 1.268 . S
C423 O429 1.268 . S
C423 O437 1.268 . S
C424 O430 1.268 . S
C424 O439 1.268 . S
C425 O431 1.268 . S
C425 O435 1.268 . S
C426 O432 1.268 . S
C426 O434 1.268 . S
C427 O433 1.268 . S
C427 O436 1.268 . S
O428 Sc418 2.105 1_556 S
O428 C422 1.268 . S
O429 Sc419 2.105 1_556 S
O429 C423 1.268 . S
O430 Sc420 2.105 1_556 S
O430 C424 1.268 . S
O431 Sc418 2.105 . S
O431 C425 1.268 . S
O432 Sc420 2.105 . S
O432 C426 1.268 . S
O433 Sc419 2.105 . S
O433 C427 1.268 . S
O434 Sc418 2.105 . S
O434 C426 1.268 . S
O435 Sc419 2.105 . S
O435 C425 1.268 . S
O436 Sc420 2.105 . S
O436 C427 1.268 . S
O437 Sc418 2.105 1_556 S
O437 C423 1.268 . S
O438 Sc420 2.105 1_556 S
O438 C422 1.268 . S
O439 Sc419 2.105 1_556 S
O439 C424 1.268 . S
Sc440 O443 2.025 . S
Sc440 O450 2.105 . S
Sc440 O453 2.105 . S
Sc440 O456 2.105 . S
Sc440 O459 2.105 . S
Sc441 O443 2.025 . S
Sc441 O451 2.105 . S
Sc441 O455 2.105 . S
Sc441 O457 2.105 . S
Sc441 O461 2.105 . S
Sc442 O443 2.025 . S
Sc442 O452 2.105 . S
Sc442 O454 2.105 . S
Sc442 O458 2.105 . S
Sc442 O460 2.105 . S
O443 Sc440 2.025 . S
O443 Sc441 2.025 . S
O443 Sc442 2.025 . S
C444 O450 1.268 . S
C444 O460 1.268 . S
C445 O451 1.268 . S
C445 O459 1.268 . S
C446 O452 1.268 . S
C446 O461 1.268 . S
C447 O453 1.268 . S
C447 O457 1.268 . S
C448 O454 1.268 . S
C448 O456 1.268 . S
C449 O455 1.268 . S
C449 O458 1.268 . S
O450 Sc440 2.105 . S
O450 C444 1.268 . S
O451 Sc441 2.105 . S
O451 C445 1.268 . S
O452 Sc442 2.105 . S
O452 C446 1.268 . S
O453 Sc440 2.105 . S
O453 C447 1.268 . S
O454 Sc442 2.105 . S
O454 C448 1.268 . S
O455 Sc441 2.105 . S
O455 C449 1.268 . S
O456 Sc440 2.105 . S
O456 C448 1.268 . S
O457 Sc441 2.105 . S
O457 C447 1.268 . S
O458 Sc442 2.105 . S
O458 C449 1.268 . S
O459 Sc440 2.105 . S
O459 C445 1.268 . S
O460 Sc442 2.105 . S
O460 C444 1.268 . S
O461 Sc441 2.105 . S
O461 C446 1.268 . S
Sc462 O465 2.025 . S
Sc462 O472 2.105 1_554 S
Sc462 O475 2.105 . S
Sc462 O478 2.105 . S
Sc462 O481 2.105 1_554 S
Sc463 O465 2.025 . S
Sc463 O473 2.105 1_554 S
Sc463 O477 2.105 . S
Sc463 O479 2.105 . S
Sc463 O483 2.105 1_554 S
Sc464 O465 2.025 . S
Sc464 O474 2.105 1_554 S
Sc464 O476 2.105 . S
Sc464 O480 2.105 . S
Sc464 O482 2.105 1_554 S
O465 Sc462 2.025 . S
O465 Sc463 2.025 . S
O465 Sc464 2.025 . S
C466 O472 1.268 . S
C466 O482 1.268 . S
C467 O473 1.268 . S
C467 O481 1.268 . S
C468 O474 1.268 . S
C468 O483 1.268 . S
C469 O475 1.268 . S
C469 O479 1.268 . S
C470 O476 1.268 . S
C470 O478 1.268 . S
C471 O477 1.268 . S
C471 O480 1.268 . S
O472 Sc462 2.105 1_556 S
O472 C466 1.268 . S
O473 Sc463 2.105 1_556 S
O473 C467 1.268 . S
O474 Sc464 2.105 1_556 S
O474 C468 1.268 . S
O475 Sc462 2.105 . S
O475 C469 1.268 . S
O476 Sc464 2.105 . S
O476 C470 1.268 . S
O477 Sc463 2.105 . S
O477 C471 1.268 . S
O478 Sc462 2.105 . S
O478 C470 1.268 . S
O479 Sc463 2.105 . S
O479 C469 1.268 . S
O480 Sc464 2.105 . S
O480 C471 1.268 . S
O481 Sc462 2.105 1_556 S
O481 C467 1.268 . S
O482 Sc464 2.105 1_556 S
O482 C466 1.268 . S
O483 Sc463 2.105 1_556 S
O483 C468 1.268 . S
Sc484 O487 2.025 . S
Sc484 O494 2.105 . S
Sc484 O497 2.105 . S
Sc484 O500 2.105 . S
Sc484 O503 2.105 . S
Sc485 O487 2.025 . S
Sc485 O495 2.105 . S
Sc485 O499 2.105 . S
Sc485 O501 2.105 . S
Sc485 O505 2.105 . S
Sc486 O487 2.025 . S
Sc486 O496 2.105 . S
Sc486 O498 2.105 . S
Sc486 O502 2.105 . S
Sc486 O504 2.105 . S
O487 Sc484 2.025 . S
O487 Sc485 2.025 . S
O487 Sc486 2.025 . S
C488 O494 1.268 . S
C488 O504 1.268 . S
C489 O495 1.268 . S
C489 O503 1.268 . S
C490 O496 1.268 . S
C490 O505 1.268 . S
C491 O497 1.268 . S
C491 O501 1.268 . S
C492 O498 1.268 . S
C492 O500 1.268 . S
C493 O499 1.268 . S
C493 O502 1.268 . S
O494 Sc484 2.105 . S
O494 C488 1.268 . S
O495 Sc485 2.105 . S
O495 C489 1.268 . S
O496 Sc486 2.105 . S
O496 C490 1.268 . S
O497 Sc484 2.105 . S
O497 C491 1.268 . S
O498 Sc486 2.105 . S
O498 C492 1.268 . S
O499 Sc485 2.105 . S
O499 C493 1.268 . S
O500 Sc484 2.105 . S
O500 C492 1.268 . S
O501 Sc485 2.105 . S
O501 C491 1.268 . S
O502 Sc486 2.105 . S
O502 C493 1.268 . S
O503 Sc484 2.105 . S
O503 C489 1.268 . S
O504 Sc486 2.105 . S
O504 C488 1.268 . S
O505 Sc485 2.105 . S
O505 C490 1.268 . S
Sc506 O509 2.025 . S
Sc506 O516 2.105 . S
Sc506 O519 2.105 . S
Sc506 O522 2.105 . S
Sc506 O525 2.105 . S
Sc507 O509 2.025 . S
Sc507 O517 2.105 . S
Sc507 O521 2.105 . S
Sc507 O523 2.105 . S
Sc507 O527 2.105 . S
Sc508 O509 2.025 . S
Sc508 O518 2.105 . S
Sc508 O520 2.105 . S
Sc508 O524 2.105 . S
Sc508 O526 2.105 . S
O509 Sc506 2.025 . S
O509 Sc507 2.025 . S
O509 Sc508 2.025 . S
C510 O516 1.268 . S
C510 O526 1.268 . S
C511 O517 1.268 . S
C511 O525 1.268 . S
C512 O518 1.268 . S
C512 O527 1.268 . S
C513 O519 1.268 . S
C513 O523 1.268 . S
C514 O520 1.268 . S
C514 O522 1.268 . S
C515 O521 1.268 . S
C515 O524 1.268 . S
O516 Sc506 2.105 . S
O516 C510 1.268 . S
O517 Sc507 2.105 . S
O517 C511 1.268 . S
O518 Sc508 2.105 . S
O518 C512 1.268 . S
O519 Sc506 2.105 . S
O519 C513 1.268 . S
O520 Sc508 2.105 . S
O520 C514 1.268 . S
O521 Sc507 2.105 . S
O521 C515 1.268 . S
O522 Sc506 2.105 . S
O522 C514 1.268 . S
O523 Sc507 2.105 . S
O523 C513 1.268 . S
O524 Sc508 2.105 . S
O524 C515 1.268 . S
O525 Sc506 2.105 . S
O525 C511 1.268 . S
O526 Sc508 2.105 . S
O526 C510 1.268 . S
O527 Sc507 2.105 . S
O527 C512 1.268 . S
H528 C534 0.930 . S
H529 C538 0.930 . S
H530 C543 0.929 . S
H531 C541 0.929 . S
H532 C536 0.929 . S
H533 C542 0.929 . S
C534 H528 0.930 . S
C534 C535 1.367 . S
C534 C542 1.378 . S
C535 C534 1.367 . S
C535 C543 1.433 . S
C536 H532 0.929 . S
C536 C538 1.378 . S
C536 C540 1.350 . S
C537 C540 1.463 . S
C537 C542 1.350 . S
C537 N545 1.427 . S
C538 H529 0.930 . S
C538 C536 1.378 . S
C538 C539 1.367 . S
C539 C538 1.367 . S
C539 C541 1.433 . S
C540 C536 1.350 . S
C540 C537 1.463 . S
C540 N544 1.427 . S
C541 H531 0.929 . S
C541 C539 1.433 . S
C541 N544 1.384 . S
C542 H533 0.929 . S
C542 C534 1.378 . S
C542 C537 1.350 . S
C543 H530 0.929 . S
C543 C535 1.433 . S
C543 N545 1.384 . S
N544 C540 1.427 . S
N544 C541 1.384 . S
N545 C537 1.427 . S
N545 C543 1.384 . S
H546 C552 0.930 . S
H547 C556 0.930 . S
H548 C561 0.929 . S
H549 C559 0.929 . S
H550 C554 0.929 . S
H551 C560 0.929 . S
C552 H546 0.930 . S
C552 C553 1.367 . S
C552 C560 1.378 . S
C553 C552 1.367 . S
C553 C561 1.433 . S
C554 H550 0.929 . S
C554 C556 1.378 . S
C554 C558 1.350 . S
C555 C558 1.463 . S
C555 C560 1.350 . S
C555 N563 1.427 . S
C556 H547 0.930 . S
C556 C554 1.378 . S
C556 C557 1.367 . S
C557 C556 1.367 . S
C557 C559 1.433 . S
C558 C554 1.350 . S
C558 C555 1.463 . S
C558 N562 1.427 . S
C559 H549 0.929 . S
C559 C557 1.433 . S
C559 N562 1.384 . S
C560 H551 0.929 . S
C560 C552 1.378 . S
C560 C555 1.350 . S
C561 H548 0.929 . S
C561 C553 1.433 . S
C561 N563 1.384 . S
N562 C558 1.427 . S
N562 C559 1.384 . S
N563 C555 1.427 . S
N563 C561 1.384 . S
H564 C570 0.930 . S
H565 C574 0.930 . S
H566 C579 0.929 . S
H567 C577 0.929 . S
H568 C572 0.929 . S
H569 C578 0.929 . S
C570 H564 0.930 . S
C570 C571 1.367 . S
C570 C578 1.378 . S
C571 C570 1.367 . S
C571 C579 1.433 . S
C572 H568 0.929 . S
C572 C574 1.378 . S
C572 C576 1.350 . S
C573 C576 1.463 . S
C573 C578 1.350 . S
C573 N581 1.427 . S
C574 H565 0.930 . S
C574 C572 1.378 . S
C574 C575 1.367 . S
C575 C574 1.367 . S
C575 C577 1.433 . S
C576 C572 1.350 . S
C576 C573 1.463 . S
C576 N580 1.427 . S
C577 H567 0.929 . S
C577 C575 1.433 . S
C577 N580 1.384 . S
C578 H569 0.929 . S
C578 C570 1.378 . S
C578 C573 1.350 . S
C579 H566 0.929 . S
C579 C571 1.433 . S
C579 N581 1.384 . S
N580 C576 1.427 . S
N580 C577 1.384 . S
N581 C573 1.427 . S
N581 C579 1.384 . S
H582 C588 0.930 . S
H583 C592 0.930 . S
H584 C597 0.929 . S
H585 C595 0.929 . S
H586 C590 0.929 . S
H587 C596 0.929 . S
C588 H582 0.930 . S
C588 C589 1.367 . S
C588 C596 1.378 . S
C589 C588 1.367 . S
C589 C597 1.433 . S
C590 H586 0.929 . S
C590 C592 1.378 . S
C590 C594 1.350 . S
C591 C594 1.463 . S
C591 C596 1.350 . S
C591 N599 1.427 . S
C592 H583 0.930 . S
C592 C590 1.378 . S
C592 C593 1.367 . S
C593 C592 1.367 . S
C593 C595 1.433 . S
C594 C590 1.350 . S
C594 C591 1.463 . S
C594 N598 1.427 . S
C595 H585 0.929 . S
C595 C593 1.433 . S
C595 N598 1.384 . S
C596 H587 0.929 . S
C596 C588 1.378 . S
C596 C591 1.350 . S
C597 H584 0.929 . S
C597 C589 1.433 . S
C597 N599 1.384 . S
N598 C594 1.427 . S
N598 C595 1.384 . S
N599 C591 1.427 . S
N599 C597 1.384 . S
H600 C606 0.930 . S
H601 C610 0.930 . S
H602 C615 0.929 . S
H603 C613 0.929 . S
H604 C608 0.929 . S
H605 C614 0.929 . S
C606 H600 0.930 . S
C606 C607 1.367 . S
C606 C614 1.378 . S
C607 C606 1.367 . S
C607 C615 1.433 . S
C608 H604 0.929 . S
C608 C610 1.378 . S
C608 C612 1.350 . S
C609 C612 1.463 . S
C609 C614 1.350 . S
C609 N617 1.427 . S
C610 H601 0.930 . S
C610 C608 1.378 . S
C610 C611 1.367 . S
C611 C610 1.367 . S
C611 C613 1.433 . S
C612 C608 1.350 . S
C612 C609 1.463 . S
C612 N616 1.427 . S
C613 H603 0.929 . S
C613 C611 1.433 . S
C613 N616 1.384 . S
C614 H605 0.929 . S
C614 C606 1.378 . S
C614 C609 1.350 . S
C615 H602 0.929 . S
C615 C607 1.433 . S
C615 N617 1.384 . S
N616 C612 1.427 . S
N616 C613 1.384 . S
N617 C609 1.427 . S
N617 C615 1.384 . S
H618 C624 0.930 . S
H619 C628 0.930 . S
H620 C633 0.929 . S
H621 C631 0.929 . S
H622 C626 0.929 . S
H623 C632 0.929 . S
C624 H618 0.930 . S
C624 C625 1.367 . S
C624 C632 1.378 . S
C625 C624 1.367 . S
C625 C633 1.433 . S
C626 H622 0.929 . S
C626 C628 1.378 . S
C626 C630 1.350 . S
C627 C630 1.463 . S
C627 C632 1.350 . S
C627 N635 1.427 . S
C628 H619 0.930 . S
C628 C626 1.378 . S
C628 C629 1.367 . S
C629 C628 1.367 . S
C629 C631 1.433 . S
C630 C626 1.350 . S
C630 C627 1.463 . S
C630 N634 1.427 . S
C631 H621 0.929 . S
C631 C629 1.433 . S
C631 N634 1.384 . S
C632 H623 0.929 . S
C632 C624 1.378 . S
C632 C627 1.350 . S
C633 H620 0.929 . S
C633 C625 1.433 . S
C633 N635 1.384 . S
N634 C630 1.427 . S
N634 C631 1.384 . S
N635 C627 1.427 . S
N635 C633 1.384 . S
H636 C642 0.930 . S
H637 C646 0.930 . S
H638 C651 0.929 . S
H639 C649 0.929 . S
H640 C644 0.929 . S
H641 C650 0.929 . S
C642 H636 0.930 . S
C642 C643 1.367 . S
C642 C650 1.378 . S
C643 C642 1.367 . S
C643 C651 1.433 . S
C644 H640 0.929 . S
C644 C646 1.378 . S
C644 C648 1.350 . S
C645 C648 1.463 . S
C645 C650 1.350 . S
C645 N653 1.427 . S
C646 H637 0.930 . S
C646 C644 1.378 . S
C646 C647 1.367 . S
C647 C646 1.367 . S
C647 C649 1.433 . S
C648 C644 1.350 . S
C648 C645 1.463 . S
C648 N652 1.427 . S
C649 H639 0.929 . S
C649 C647 1.433 . S
C649 N652 1.384 . S
C650 H641 0.929 . S
C650 C642 1.378 . S
C650 C645 1.350 . S
C651 H638 0.929 . S
C651 C643 1.433 . S
C651 N653 1.384 . S
N652 C648 1.427 . S
N652 C649 1.384 . S
N653 C645 1.427 . S
N653 C651 1.384 . S
H654 C660 0.930 . S
H655 C664 0.930 . S
H656 C669 0.929 . S
H657 C667 0.929 . S
H658 C662 0.929 . S
H659 C668 0.929 . S
C660 H654 0.930 . S
C660 C661 1.367 . S
C660 C668 1.378 . S
C661 C660 1.367 . S
C661 C669 1.433 . S
C662 H658 0.929 . S
C662 C664 1.378 . S
C662 C666 1.350 . S
C663 C666 1.463 . S
C663 C668 1.350 . S
C663 N671 1.427 . S
C664 H655 0.930 . S
C664 C662 1.378 . S
C664 C665 1.367 . S
C665 C664 1.367 . S
C665 C667 1.433 . S
C666 C662 1.350 . S
C666 C663 1.463 . S
C666 N670 1.427 . S
C667 H657 0.929 . S
C667 C665 1.433 . S
C667 N670 1.384 . S
C668 H659 0.929 . S
C668 C660 1.378 . S
C668 C663 1.350 . S
C669 H656 0.929 . S
C669 C661 1.433 . S
C669 N671 1.384 . S
N670 C666 1.427 . S
N670 C667 1.384 . S
N671 C663 1.427 . S
N671 C669 1.384 . S
H672 C678 0.930 . S
H673 C682 0.930 . S
H674 C687 0.929 . S
H675 C685 0.929 . S
H676 C680 0.929 . S
H677 C686 0.929 . S
C678 H672 0.930 . S
C678 C679 1.367 . S
C678 C686 1.378 . S
C679 C678 1.367 . S
C679 C687 1.433 . S
C680 H676 0.929 . S
C680 C682 1.378 . S
C680 C684 1.350 . S
C681 C684 1.463 . S
C681 C686 1.350 . S
C681 N689 1.427 . S
C682 H673 0.930 . S
C682 C680 1.378 . S
C682 C683 1.367 . S
C683 C682 1.367 . S
C683 C685 1.433 . S
C684 C680 1.350 . S
C684 C681 1.463 . S
C684 N688 1.427 . S
C685 H675 0.929 . S
C685 C683 1.433 . S
C685 N688 1.384 . S
C686 H677 0.929 . S
C686 C678 1.378 . S
C686 C681 1.350 . S
C687 H674 0.929 . S
C687 C679 1.433 . S
C687 N689 1.384 . S
N688 C684 1.427 . S
N688 C685 1.384 . S
N689 C681 1.427 . S
N689 C687 1.384 . S
H690 C696 0.930 . S
H691 C700 0.930 . S
H692 C705 0.929 . S
H693 C703 0.929 . S
H694 C698 0.929 . S
H695 C704 0.929 . S
C696 H690 0.930 . S
C696 C697 1.367 . S
C696 C704 1.378 . S
C697 C696 1.367 . S
C697 C705 1.433 . S
C698 H694 0.929 . S
C698 C700 1.378 . S
C698 C702 1.350 . S
C699 C702 1.463 . S
C699 C704 1.350 . S
C699 N707 1.427 . S
C700 H691 0.930 . S
C700 C698 1.378 . S
C700 C701 1.367 . S
C701 C700 1.367 . S
C701 C703 1.433 . S
C702 C698 1.350 . S
C702 C699 1.463 . S
C702 N706 1.427 . S
C703 H693 0.929 . S
C703 C701 1.433 . S
C703 N706 1.384 . S
C704 H695 0.929 . S
C704 C696 1.378 . S
C704 C699 1.350 . S
C705 H692 0.929 . S
C705 C697 1.433 . S
C705 N707 1.384 . S
N706 C702 1.427 . S
N706 C703 1.384 . S
N707 C699 1.427 . S
N707 C705 1.384 . S
H708 C714 0.930 . S
H709 C718 0.930 . S
H710 C723 0.929 . S
H711 C721 0.929 . S
H712 C716 0.929 . S
H713 C722 0.929 . S
C714 H708 0.930 . S
C714 C715 1.367 . S
C714 C722 1.378 . S
C715 C714 1.367 . S
C715 C723 1.433 . S
C716 H712 0.929 . S
C716 C718 1.378 . S
C716 C720 1.350 . S
C717 C720 1.463 . S
C717 C722 1.350 . S
C717 N725 1.427 . S
C718 H709 0.930 . S
C718 C716 1.378 . S
C718 C719 1.367 . S
C719 C718 1.367 . S
C719 C721 1.433 . S
C720 C716 1.350 . S
C720 C717 1.463 . S
C720 N724 1.427 . S
C721 H711 0.929 . S
C721 C719 1.433 . S
C721 N724 1.384 . S
C722 H713 0.929 . S
C722 C714 1.378 . S
C722 C717 1.350 . S
C723 H710 0.929 . S
C723 C715 1.433 . S
C723 N725 1.384 . S
N724 C720 1.427 . S
N724 C721 1.384 . S
N725 C717 1.427 . S
N725 C723 1.384 . S
H726 C732 0.930 . S
H727 C736 0.930 . S
H728 C741 0.929 . S
H729 C739 0.929 . S
H730 C734 0.929 . S
H731 C740 0.929 . S
C732 H726 0.930 . S
C732 C733 1.367 . S
C732 C740 1.378 . S
C733 C732 1.367 . S
C733 C741 1.433 . S
C734 H730 0.929 . S
C734 C736 1.378 . S
C734 C738 1.350 . S
C735 C738 1.463 . S
C735 C740 1.350 . S
C735 N743 1.427 . S
C736 H727 0.930 . S
C736 C734 1.378 . S
C736 C737 1.367 . S
C737 C736 1.367 . S
C737 C739 1.433 . S
C738 C734 1.350 . S
C738 C735 1.463 . S
C738 N742 1.427 . S
C739 H729 0.929 . S
C739 C737 1.433 . S
C739 N742 1.384 . S
C740 H731 0.929 . S
C740 C732 1.378 . S
C740 C735 1.350 . S
C741 H728 0.929 . S
C741 C733 1.433 . S
C741 N743 1.384 . S
N742 C738 1.427 . S
N742 C739 1.384 . S
N743 C735 1.427 . S
N743 C741 1.384 . S
H744 C750 0.930 . S
H745 C754 0.930 . S
H746 C759 0.929 . S
H747 C757 0.929 . S
H748 C752 0.929 . S
H749 C758 0.929 . S
C750 H744 0.930 . S
C750 C751 1.367 . S
C750 C758 1.378 . S
C751 C750 1.367 . S
C751 C759 1.433 . S
C752 H748 0.929 . S
C752 C754 1.378 . S
C752 C756 1.350 . S
C753 C756 1.463 . S
C753 C758 1.350 . S
C753 N761 1.427 . S
C754 H745 0.930 . S
C754 C752 1.378 . S
C754 C755 1.367 . S
C755 C754 1.367 . S
C755 C757 1.433 . S
C756 C752 1.350 . S
C756 C753 1.463 . S
C756 N760 1.427 . S
C757 H747 0.929 . S
C757 C755 1.433 . S
C757 N760 1.384 . S
C758 H749 0.929 . S
C758 C750 1.378 . S
C758 C753 1.350 . S
C759 H746 0.929 . S
C759 C751 1.433 . S
C759 N761 1.384 . S
N760 C756 1.427 . S
N760 C757 1.384 . S
N761 C753 1.427 . S
N761 C759 1.384 . S
H762 C768 0.930 . S
H763 C772 0.930 . S
H764 C777 0.929 . S
H765 C775 0.929 . S
H766 C770 0.929 . S
H767 C776 0.929 . S
C768 H762 0.930 . S
C768 C769 1.367 . S
C768 C776 1.378 . S
C769 C768 1.367 . S
C769 C777 1.433 . S
C770 H766 0.929 . S
C770 C772 1.378 . S
C770 C774 1.350 . S
C771 C774 1.463 . S
C771 C776 1.350 . S
C771 N779 1.427 . S
C772 H763 0.930 . S
C772 C770 1.378 . S
C772 C773 1.367 . S
C773 C772 1.367 . S
C773 C775 1.433 . S
C774 C770 1.350 . S
C774 C771 1.463 . S
C774 N778 1.427 . S
C775 H765 0.929 . S
C775 C773 1.433 . S
C775 N778 1.384 . S
C776 H767 0.929 . S
C776 C768 1.378 . S
C776 C771 1.350 . S
C777 H764 0.929 . S
C777 C769 1.433 . S
C777 N779 1.384 . S
N778 C774 1.427 . S
N778 C775 1.384 . S
N779 C771 1.427 . S
N779 C777 1.384 . S
H780 C786 0.930 . S
H781 C790 0.930 . S
H782 C795 0.929 . S
H783 C793 0.929 . S
H784 C788 0.929 . S
H785 C794 0.929 . S
C786 H780 0.930 . S
C786 C787 1.367 . S
C786 C794 1.378 . S
C787 C786 1.367 . S
C787 C795 1.433 . S
C788 H784 0.929 . S
C788 C790 1.378 . S
C788 C792 1.350 . S
C789 C792 1.463 . S
C789 C794 1.350 . S
C789 N797 1.427 . S
C790 H781 0.930 . S
C790 C788 1.378 . S
C790 C791 1.367 . S
C791 C790 1.367 . S
C791 C793 1.433 . S
C792 C788 1.350 . S
C792 C789 1.463 . S
C792 N796 1.427 . S
C793 H783 0.929 . S
C793 C791 1.433 . S
C793 N796 1.384 . S
C794 H785 0.929 . S
C794 C786 1.378 . S
C794 C789 1.350 . S
C795 H782 0.929 . S
C795 C787 1.433 . S
C795 N797 1.384 . S
N796 C792 1.427 . S
N796 C793 1.384 . S
N797 C789 1.427 . S
N797 C795 1.384 . S
H798 C804 0.930 . S
H799 C808 0.930 . S
H800 C813 0.929 . S
H801 C811 0.929 . S
H802 C806 0.929 . S
H803 C812 0.929 . S
C804 H798 0.930 . S
C804 C805 1.367 . S
C804 C812 1.378 . S
C805 C804 1.367 . S
C805 C813 1.433 . S
C806 H802 0.929 . S
C806 C808 1.378 . S
C806 C810 1.350 . S
C807 C810 1.463 . S
C807 C812 1.350 . S
C807 N815 1.427 . S
C808 H799 0.930 . S
C808 C806 1.378 . S
C808 C809 1.367 . S
C809 C808 1.367 . S
C809 C811 1.433 . S
C810 C806 1.350 . S
C810 C807 1.463 . S
C810 N814 1.427 . S
C811 H801 0.929 . S
C811 C809 1.433 . S
C811 N814 1.384 . S
C812 H803 0.929 . S
C812 C804 1.378 . S
C812 C807 1.350 . S
C813 H800 0.929 . S
C813 C805 1.433 . S
C813 N815 1.384 . S
N814 C810 1.427 . S
N814 C811 1.384 . S
N815 C807 1.427 . S
N815 C813 1.384 . S
H816 C822 0.930 . S
H817 C826 0.930 . S
H818 C831 0.929 . S
H819 C829 0.929 . S
H820 C824 0.929 . S
H821 C830 0.929 . S
C822 H816 0.930 . S
C822 C823 1.367 . S
C822 C830 1.378 . S
C823 C822 1.367 . S
C823 C831 1.433 . S
C824 H820 0.929 . S
C824 C826 1.378 . S
C824 C828 1.350 . S
C825 C828 1.463 . S
C825 C830 1.350 . S
C825 N833 1.427 . S
C826 H817 0.930 . S
C826 C824 1.378 . S
C826 C827 1.367 . S
C827 C826 1.367 . S
C827 C829 1.433 . S
C828 C824 1.350 . S
C828 C825 1.463 . S
C828 N832 1.427 . S
C829 H819 0.929 . S
C829 C827 1.433 . S
C829 N832 1.384 . S
C830 H821 0.929 . S
C830 C822 1.378 . S
C830 C825 1.350 . S
C831 H818 0.929 . S
C831 C823 1.433 . S
C831 N833 1.384 . S
N832 C828 1.427 . S
N832 C829 1.384 . S
N833 C825 1.427 . S
N833 C831 1.384 . S
H834 C840 0.930 . S
H835 C844 0.930 . S
H836 C849 0.929 . S
H837 C847 0.929 . S
H838 C842 0.929 . S
H839 C848 0.929 . S
C840 H834 0.930 . S
C840 C841 1.367 . S
C840 C848 1.378 . S
C841 C840 1.367 . S
C841 C849 1.433 . S
C842 H838 0.929 . S
C842 C844 1.378 . S
C842 C846 1.350 . S
C843 C846 1.463 . S
C843 C848 1.350 . S
C843 N851 1.427 . S
C844 H835 0.930 . S
C844 C842 1.378 . S
C844 C845 1.367 . S
C845 C844 1.367 . S
C845 C847 1.433 . S
C846 C842 1.350 . S
C846 C843 1.463 . S
C846 N850 1.427 . S
C847 H837 0.929 . S
C847 C845 1.433 . S
C847 N850 1.384 . S
C848 H839 0.929 . S
C848 C840 1.378 . S
C848 C843 1.350 . S
C849 H836 0.929 . S
C849 C841 1.433 . S
C849 N851 1.384 . S
N850 C846 1.427 . S
N850 C847 1.384 . S
N851 C843 1.427 . S
N851 C849 1.384 . S
H852 C858 0.930 . S
H853 C862 0.930 . S
H854 C867 0.929 . S
H855 C865 0.929 . S
H856 C860 0.929 . S
H857 C866 0.929 . S
C858 H852 0.930 . S
C858 C859 1.367 . S
C858 C866 1.378 . S
C859 C858 1.367 . S
C859 C867 1.433 . S
C860 H856 0.929 . S
C860 C862 1.378 . S
C860 C864 1.350 . S
C861 C864 1.463 . S
C861 C866 1.350 . S
C861 N869 1.427 . S
C862 H853 0.930 . S
C862 C860 1.378 . S
C862 C863 1.367 . S
C863 C862 1.367 . S
C863 C865 1.433 . S
C864 C860 1.350 . S
C864 C861 1.463 . S
C864 N868 1.427 . S
C865 H855 0.929 . S
C865 C863 1.433 . S
C865 N868 1.384 . S
C866 H857 0.929 . S
C866 C858 1.378 . S
C866 C861 1.350 . S
C867 H854 0.929 . S
C867 C859 1.433 . S
C867 N869 1.384 . S
N868 C864 1.427 . S
N868 C865 1.384 . S
N869 C861 1.427 . S
N869 C867 1.384 . S
H870 C876 0.930 . S
H871 C880 0.930 . S
H872 C885 0.929 . S
H873 C883 0.929 . S
H874 C878 0.929 . S
H875 C884 0.929 . S
C876 H870 0.930 . S
C876 C877 1.367 . S
C876 C884 1.378 . S
C877 C876 1.367 . S
C877 C885 1.433 . S
C878 H874 0.929 . S
C878 C880 1.378 . S
C878 C882 1.350 . S
C879 C882 1.463 . S
C879 C884 1.350 . S
C879 N887 1.427 . S
C880 H871 0.930 . S
C880 C878 1.378 . S
C880 C881 1.367 . S
C881 C880 1.367 . S
C881 C883 1.433 . S
C882 C878 1.350 . S
C882 C879 1.463 . S
C882 N886 1.427 . S
C883 H873 0.929 . S
C883 C881 1.433 . S
C883 N886 1.384 . S
C884 H875 0.929 . S
C884 C876 1.378 . S
C884 C879 1.350 . S
C885 H872 0.929 . S
C885 C877 1.433 . S
C885 N887 1.384 . S
N886 C882 1.427 . S
N886 C883 1.384 . S
N887 C879 1.427 . S
N887 C885 1.384 . S
H888 C894 0.930 . S
H889 C898 0.930 . S
H890 C903 0.929 . S
H891 C901 0.929 . S
H892 C896 0.929 . S
H893 C902 0.929 . S
C894 H888 0.930 . S
C894 C895 1.367 . S
C894 C902 1.378 . S
C895 C894 1.367 . S
C895 C903 1.433 . S
C896 H892 0.929 . S
C896 C898 1.378 . S
C896 C900 1.350 . S
C897 C900 1.463 . S
C897 C902 1.350 . S
C897 N905 1.427 . S
C898 H889 0.930 . S
C898 C896 1.378 . S
C898 C899 1.367 . S
C899 C898 1.367 . S
C899 C901 1.433 . S
C900 C896 1.350 . S
C900 C897 1.463 . S
C900 N904 1.427 . S
C901 H891 0.929 . S
C901 C899 1.433 . S
C901 N904 1.384 . S
C902 H893 0.929 . S
C902 C894 1.378 . S
C902 C897 1.350 . S
C903 H890 0.929 . S
C903 C895 1.433 . S
C903 N905 1.384 . S
N904 C900 1.427 . S
N904 C901 1.384 . S
N905 C897 1.427 . S
N905 C903 1.384 . S
H906 C912 0.930 . S
H907 C916 0.930 . S
H908 C921 0.929 . S
H909 C919 0.929 . S
H910 C914 0.929 . S
H911 C920 0.929 . S
C912 H906 0.930 . S
C912 C913 1.367 . S
C912 C920 1.378 . S
C913 C912 1.367 . S
C913 C921 1.433 . S
C914 H910 0.929 . S
C914 C916 1.378 . S
C914 C918 1.350 . S
C915 C918 1.463 . S
C915 C920 1.350 . S
C915 N923 1.427 . S
C916 H907 0.930 . S
C916 C914 1.378 . S
C916 C917 1.367 . S
C917 C916 1.367 . S
C917 C919 1.433 . S
C918 C914 1.350 . S
C918 C915 1.463 . S
C918 N922 1.427 . S
C919 H909 0.929 . S
C919 C917 1.433 . S
C919 N922 1.384 . S
C920 H911 0.929 . S
C920 C912 1.378 . S
C920 C915 1.350 . S
C921 H908 0.929 . S
C921 C913 1.433 . S
C921 N923 1.384 . S
N922 C918 1.427 . S
N922 C919 1.384 . S
N923 C915 1.427 . S
N923 C921 1.384 . S
H924 C930 0.930 . S
H925 C934 0.930 . S
H926 C939 0.929 . S
H927 C937 0.929 . S
H928 C932 0.929 . S
H929 C938 0.929 . S
C930 H924 0.930 . S
C930 C931 1.367 . S
C930 C938 1.378 . S
C931 C930 1.367 . S
C931 C939 1.433 . S
C932 H928 0.929 . S
C932 C934 1.378 . S
C932 C936 1.350 . S
C933 C936 1.463 . S
C933 C938 1.350 . S
C933 N941 1.427 . S
C934 H925 0.930 . S
C934 C932 1.378 . S
C934 C935 1.367 . S
C935 C934 1.367 . S
C935 C937 1.433 . S
C936 C932 1.350 . S
C936 C933 1.463 . S
C936 N940 1.427 . S
C937 H927 0.929 . S
C937 C935 1.433 . S
C937 N940 1.384 . S
C938 H929 0.929 . S
C938 C930 1.378 . S
C938 C933 1.350 . S
C939 H926 0.929 . S
C939 C931 1.433 . S
C939 N941 1.384 . S
N940 C936 1.427 . S
N940 C937 1.384 . S
N941 C933 1.427 . S
N941 C939 1.384 . S
H942 C948 0.930 . S
H943 C952 0.930 . S
H944 C957 0.929 . S
H945 C955 0.929 . S
H946 C950 0.929 . S
H947 C956 0.929 . S
C948 H942 0.930 . S
C948 C949 1.367 . S
C948 C956 1.378 . S
C949 C948 1.367 . S
C949 C957 1.433 . S
C950 H946 0.929 . S
C950 C952 1.378 . S
C950 C954 1.350 . S
C951 C954 1.463 . S
C951 C956 1.350 . S
C951 N959 1.427 . S
C952 H943 0.930 . S
C952 C950 1.378 . S
C952 C953 1.367 . S
C953 C952 1.367 . S
C953 C955 1.433 . S
C954 C950 1.350 . S
C954 C951 1.463 . S
C954 N958 1.427 . S
C955 H945 0.929 . S
C955 C953 1.433 . S
C955 N958 1.384 . S
C956 H947 0.929 . S
C956 C948 1.378 . S
C956 C951 1.350 . S
C957 H944 0.929 . S
C957 C949 1.433 . S
C957 N959 1.384 . S
N958 C954 1.427 . S
N958 C955 1.384 . S
N959 C951 1.427 . S
N959 C957 1.384 . S
H960 C966 0.930 . S
H961 C970 0.930 . S
H962 C975 0.929 . S
H963 C973 0.929 . S
H964 C968 0.929 . S
H965 C974 0.929 . S
C966 H960 0.930 . S
C966 C967 1.367 . S
C966 C974 1.378 . S
C967 C966 1.367 . S
C967 C975 1.433 . S
C968 H964 0.929 . S
C968 C970 1.378 . S
C968 C972 1.350 . S
C969 C972 1.463 . S
C969 C974 1.350 . S
C969 N977 1.427 . S
C970 H961 0.930 . S
C970 C968 1.378 . S
C970 C971 1.367 . S
C971 C970 1.367 . S
C971 C973 1.433 . S
C972 C968 1.350 . S
C972 C969 1.463 . S
C972 N976 1.427 . S
C973 H963 0.929 . S
C973 C971 1.433 . S
C973 N976 1.384 . S
C974 H965 0.929 . S
C974 C966 1.378 . S
C974 C969 1.350 . S
C975 H962 0.929 . S
C975 C967 1.433 . S
C975 N977 1.384 . S
N976 C972 1.427 . S
N976 C973 1.384 . S
N977 C969 1.427 . S
N977 C975 1.384 . S
H978 C984 0.930 . S
H979 C988 0.930 . S
H980 C993 0.929 . S
H981 C991 0.929 . S
H982 C986 0.929 . S
H983 C992 0.929 . S
C984 H978 0.930 . S
C984 C985 1.367 . S
C984 C992 1.378 . S
C985 C984 1.367 . S
C985 C993 1.433 . S
C986 H982 0.929 . S
C986 C988 1.378 . S
C986 C990 1.350 . S
C987 C990 1.463 . S
C987 C992 1.350 . S
C987 N995 1.427 . S
C988 H979 0.930 . S
C988 C986 1.378 . S
C988 C989 1.367 . S
C989 C988 1.367 . S
C989 C991 1.433 . S
C990 C986 1.350 . S
C990 C987 1.463 . S
C990 N994 1.427 . S
C991 H981 0.929 . S
C991 C989 1.433 . S
C991 N994 1.384 . S
C992 H983 0.929 . S
C992 C984 1.378 . S
C992 C987 1.350 . S
C993 H980 0.929 . S
C993 C985 1.433 . S
C993 N995 1.384 . S
N994 C990 1.427 . S
N994 C991 1.384 . S
N995 C987 1.427 . S
N995 C993 1.384 . S
H996 C1002 0.930 . S
H997 C1006 0.930 . S
H998 C1011 0.929 . S
H999 C1009 0.929 . S
H1000 C1004 0.929 . S
H1001 C1010 0.929 . S
C1002 H996 0.930 . S
C1002 C1003 1.367 . S
C1002 C1010 1.378 . S
C1003 C1002 1.367 . S
C1003 C1011 1.433 . S
C1004 H1000 0.929 . S
C1004 C1006 1.378 . S
C1004 C1008 1.350 . S
C1005 C1008 1.463 . S
C1005 C1010 1.350 . S
C1005 N1013 1.427 . S
C1006 H997 0.930 . S
C1006 C1004 1.378 . S
C1006 C1007 1.367 . S
C1007 C1006 1.367 . S
C1007 C1009 1.433 . S
C1008 C1004 1.350 . S
C1008 C1005 1.463 . S
C1008 N1012 1.427 . S
C1009 H999 0.929 . S
C1009 C1007 1.433 . S
C1009 N1012 1.384 . S
C1010 H1001 0.929 . S
C1010 C1002 1.378 . S
C1010 C1005 1.350 . S
C1011 H998 0.929 . S
C1011 C1003 1.433 . S
C1011 N1013 1.384 . S
N1012 C1008 1.427 . S
N1012 C1009 1.384 . S
N1013 C1005 1.427 . S
N1013 C1011 1.384 . S
H1014 C1020 0.930 . S
H1015 C1024 0.930 . S
H1016 C1029 0.929 . S
H1017 C1027 0.929 . S
H1018 C1022 0.929 . S
H1019 C1028 0.929 . S
C1020 H1014 0.930 . S
C1020 C1021 1.367 . S
C1020 C1028 1.378 . S
C1021 C1020 1.367 . S
C1021 C1029 1.433 . S
C1022 H1018 0.929 . S
C1022 C1024 1.378 . S
C1022 C1026 1.350 . S
C1023 C1026 1.463 . S
C1023 C1028 1.350 . S
C1023 N1031 1.427 . S
C1024 H1015 0.930 . S
C1024 C1022 1.378 . S
C1024 C1025 1.367 . S
C1025 C1024 1.367 . S
C1025 C1027 1.433 . S
C1026 C1022 1.350 . S
C1026 C1023 1.463 . S
C1026 N1030 1.427 . S
C1027 H1017 0.929 . S
C1027 C1025 1.433 . S
C1027 N1030 1.384 . S
C1028 H1019 0.929 . S
C1028 C1020 1.378 . S
C1028 C1023 1.350 . S
C1029 H1016 0.929 . S
C1029 C1021 1.433 . S
C1029 N1031 1.384 . S
N1030 C1026 1.427 . S
N1030 C1027 1.384 . S
N1031 C1023 1.427 . S
N1031 C1029 1.384 . S
H1032 C1038 0.930 . S
H1033 C1042 0.930 . S
H1034 C1047 0.929 . S
H1035 C1045 0.929 . S
H1036 C1040 0.929 . S
H1037 C1046 0.929 . S
C1038 H1032 0.930 . S
C1038 C1039 1.367 . S
C1038 C1046 1.378 . S
C1039 C1038 1.367 . S
C1039 C1047 1.433 . S
C1040 H1036 0.929 . S
C1040 C1042 1.378 . S
C1040 C1044 1.350 . S
C1041 C1044 1.463 . S
C1041 C1046 1.350 . S
C1041 N1049 1.427 . S
C1042 H1033 0.930 . S
C1042 C1040 1.378 . S
C1042 C1043 1.367 . S
C1043 C1042 1.367 . S
C1043 C1045 1.433 . S
C1044 C1040 1.350 . S
C1044 C1041 1.463 . S
C1044 N1048 1.427 . S
C1045 H1035 0.929 . S
C1045 C1043 1.433 . S
C1045 N1048 1.384 . S
C1046 H1037 0.929 . S
C1046 C1038 1.378 . S
C1046 C1041 1.350 . S
C1047 H1034 0.929 . S
C1047 C1039 1.433 . S
C1047 N1049 1.384 . S
N1048 C1044 1.427 . S
N1048 C1045 1.384 . S
N1049 C1041 1.427 . S
N1049 C1047 1.384 . S
H1050 C1056 0.930 . S
H1051 C1060 0.930 . S
H1052 C1065 0.929 . S
H1053 C1063 0.929 . S
H1054 C1058 0.929 . S
H1055 C1064 0.929 . S
C1056 H1050 0.930 . S
C1056 C1057 1.367 . S
C1056 C1064 1.378 . S
C1057 C1056 1.367 . S
C1057 C1065 1.433 . S
C1058 H1054 0.929 . S
C1058 C1060 1.378 . S
C1058 C1062 1.350 . S
C1059 C1062 1.463 . S
C1059 C1064 1.350 . S
C1059 N1067 1.427 . S
C1060 H1051 0.930 . S
C1060 C1058 1.378 . S
C1060 C1061 1.367 . S
C1061 C1060 1.367 . S
C1061 C1063 1.433 . S
C1062 C1058 1.350 . S
C1062 C1059 1.463 . S
C1062 N1066 1.427 . S
C1063 H1053 0.929 . S
C1063 C1061 1.433 . S
C1063 N1066 1.384 . S
C1064 H1055 0.929 . S
C1064 C1056 1.378 . S
C1064 C1059 1.350 . S
C1065 H1052 0.929 . S
C1065 C1057 1.433 . S
C1065 N1067 1.384 . S
N1066 C1062 1.427 . S
N1066 C1063 1.384 . S
N1067 C1059 1.427 . S
N1067 C1065 1.384 . S
H1068 C1074 0.930 . S
H1069 C1078 0.930 . S
H1070 C1083 0.929 . S
H1071 C1081 0.929 . S
H1072 C1076 0.929 . S
H1073 C1082 0.929 . S
C1074 H1068 0.930 . S
C1074 C1075 1.367 . S
C1074 C1082 1.378 . S
C1075 C1074 1.367 . S
C1075 C1083 1.433 . S
C1076 H1072 0.929 . S
C1076 C1078 1.378 . S
C1076 C1080 1.350 . S
C1077 C1080 1.463 . S
C1077 C1082 1.350 . S
C1077 N1085 1.427 . S
C1078 H1069 0.930 . S
C1078 C1076 1.378 . S
C1078 C1079 1.367 . S
C1079 C1078 1.367 . S
C1079 C1081 1.433 . S
C1080 C1076 1.350 . S
C1080 C1077 1.463 . S
C1080 N1084 1.427 . S
C1081 H1071 0.929 . S
C1081 C1079 1.433 . S
C1081 N1084 1.384 . S
C1082 H1073 0.929 . S
C1082 C1074 1.378 . S
C1082 C1077 1.350 . S
C1083 H1070 0.929 . S
C1083 C1075 1.433 . S
C1083 N1085 1.384 . S
N1084 C1080 1.427 . S
N1084 C1081 1.384 . S
N1085 C1077 1.427 . S
N1085 C1083 1.384 . S
H1086 C1092 0.930 . S
H1087 C1096 0.930 . S
H1088 C1101 0.929 . S
H1089 C1099 0.929 . S
H1090 C1094 0.929 . S
H1091 C1100 0.929 . S
C1092 H1086 0.930 . S
C1092 C1093 1.367 . S
C1092 C1100 1.378 . S
C1093 C1092 1.367 . S
C1093 C1101 1.433 . S
C1094 H1090 0.929 . S
C1094 C1096 1.378 . S
C1094 C1098 1.350 . S
C1095 C1098 1.463 . S
C1095 C1100 1.350 . S
C1095 N1103 1.427 . S
C1096 H1087 0.930 . S
C1096 C1094 1.378 . S
C1096 C1097 1.367 . S
C1097 C1096 1.367 . S
C1097 C1099 1.433 . S
C1098 C1094 1.350 . S
C1098 C1095 1.463 . S
C1098 N1102 1.427 . S
C1099 H1089 0.929 . S
C1099 C1097 1.433 . S
C1099 N1102 1.384 . S
C1100 H1091 0.929 . S
C1100 C1092 1.378 . S
C1100 C1095 1.350 . S
C1101 H1088 0.929 . S
C1101 C1093 1.433 . S
C1101 N1103 1.384 . S
N1102 C1098 1.427 . S
N1102 C1099 1.384 . S
N1103 C1095 1.427 . S
N1103 C1101 1.384 . S
H1104 C1110 0.930 . S
H1105 C1114 0.930 . S
H1106 C1119 0.929 . S
H1107 C1117 0.929 . S
H1108 C1112 0.929 . S
H1109 C1118 0.929 . S
C1110 H1104 0.930 . S
C1110 C1111 1.367 . S
C1110 C1118 1.378 . S
C1111 C1110 1.367 . S
C1111 C1119 1.433 . S
C1112 H1108 0.929 . S
C1112 C1114 1.378 . S
C1112 C1116 1.350 . S
C1113 C1116 1.463 . S
C1113 C1118 1.350 . S
C1113 N1121 1.427 . S
C1114 H1105 0.930 . S
C1114 C1112 1.378 . S
C1114 C1115 1.367 . S
C1115 C1114 1.367 . S
C1115 C1117 1.433 . S
C1116 C1112 1.350 . S
C1116 C1113 1.463 . S
C1116 N1120 1.427 . S
C1117 H1107 0.929 . S
C1117 C1115 1.433 . S
C1117 N1120 1.384 . S
C1118 H1109 0.929 . S
C1118 C1110 1.378 . S
C1118 C1113 1.350 . S
C1119 H1106 0.929 . S
C1119 C1111 1.433 . S
C1119 N1121 1.384 . S
N1120 C1116 1.427 . S
N1120 C1117 1.384 . S
N1121 C1113 1.427 . S
N1121 C1119 1.384 . S
H1122 C1128 0.930 . S
H1123 C1132 0.930 . S
H1124 C1137 0.929 . S
H1125 C1135 0.929 . S
H1126 C1130 0.929 . S
H1127 C1136 0.929 . S
C1128 H1122 0.930 . S
C1128 C1129 1.367 . S
C1128 C1136 1.378 . S
C1129 C1128 1.367 . S
C1129 C1137 1.433 . S
C1130 H1126 0.929 . S
C1130 C1132 1.378 . S
C1130 C1134 1.350 . S
C1131 C1134 1.463 . S
C1131 C1136 1.350 . S
C1131 N1139 1.427 . S
C1132 H1123 0.930 . S
C1132 C1130 1.378 . S
C1132 C1133 1.367 . S
C1133 C1132 1.367 . S
C1133 C1135 1.433 . S
C1134 C1130 1.350 . S
C1134 C1131 1.463 . S
C1134 N1138 1.427 . S
C1135 H1125 0.929 . S
C1135 C1133 1.433 . S
C1135 N1138 1.384 . S
C1136 H1127 0.929 . S
C1136 C1128 1.378 . S
C1136 C1131 1.350 . S
C1137 H1124 0.929 . S
C1137 C1129 1.433 . S
C1137 N1139 1.384 . S
N1138 C1134 1.427 . S
N1138 C1135 1.384 . S
N1139 C1131 1.427 . S
N1139 C1137 1.384 . S
H1140 C1146 0.930 . S
H1141 C1150 0.930 . S
H1142 C1155 0.929 . S
H1143 C1153 0.929 . S
H1144 C1148 0.929 . S
H1145 C1154 0.929 . S
C1146 H1140 0.930 . S
C1146 C1147 1.367 . S
C1146 C1154 1.378 . S
C1147 C1146 1.367 . S
C1147 C1155 1.433 . S
C1148 H1144 0.929 . S
C1148 C1150 1.378 . S
C1148 C1152 1.350 . S
C1149 C1152 1.463 . S
C1149 C1154 1.350 . S
C1149 N1157 1.427 . S
C1150 H1141 0.930 . S
C1150 C1148 1.378 . S
C1150 C1151 1.367 . S
C1151 C1150 1.367 . S
C1151 C1153 1.433 . S
C1152 C1148 1.350 . S
C1152 C1149 1.463 . S
C1152 N1156 1.427 . S
C1153 H1143 0.929 . S
C1153 C1151 1.433 . S
C1153 N1156 1.384 . S
C1154 H1145 0.929 . S
C1154 C1146 1.378 . S
C1154 C1149 1.350 . S
C1155 H1142 0.929 . S
C1155 C1147 1.433 . S
C1155 N1157 1.384 . S
N1156 C1152 1.427 . S
N1156 C1153 1.384 . S
N1157 C1149 1.427 . S
N1157 C1155 1.384 . S
H1158 C1164 0.930 . S
H1159 C1168 0.930 . S
H1160 C1173 0.929 . S
H1161 C1171 0.929 . S
H1162 C1166 0.929 . S
H1163 C1172 0.929 . S
C1164 H1158 0.930 . S
C1164 C1165 1.367 . S
C1164 C1172 1.378 . S
C1165 C1164 1.367 . S
C1165 C1173 1.433 . S
C1166 H1162 0.929 . S
C1166 C1168 1.378 . S
C1166 C1170 1.350 . S
C1167 C1170 1.463 . S
C1167 C1172 1.350 . S
C1167 N1175 1.427 . S
C1168 H1159 0.930 . S
C1168 C1166 1.378 . S
C1168 C1169 1.367 . S
C1169 C1168 1.367 . S
C1169 C1171 1.433 . S
C1170 C1166 1.350 . S
C1170 C1167 1.463 . S
C1170 N1174 1.427 . S
C1171 H1161 0.929 . S
C1171 C1169 1.433 . S
C1171 N1174 1.384 . S
C1172 H1163 0.929 . S
C1172 C1164 1.378 . S
C1172 C1167 1.350 . S
C1173 H1160 0.929 . S
C1173 C1165 1.433 . S
C1173 N1175 1.384 . S
N1174 C1170 1.427 . S
N1174 C1171 1.384 . S
N1175 C1167 1.427 . S
N1175 C1173 1.384 . S
H1176 C1182 0.930 . S
H1177 C1186 0.930 . S
H1178 C1191 0.929 . S
H1179 C1189 0.929 . S
H1180 C1184 0.929 . S
H1181 C1190 0.929 . S
C1182 H1176 0.930 . S
C1182 C1183 1.367 . S
C1182 C1190 1.378 . S
C1183 C1182 1.367 . S
C1183 C1191 1.433 . S
C1184 H1180 0.929 . S
C1184 C1186 1.378 . S
C1184 C1188 1.350 . S
C1185 C1188 1.463 . S
C1185 C1190 1.350 . S
C1185 N1193 1.427 . S
C1186 H1177 0.930 . S
C1186 C1184 1.378 . S
C1186 C1187 1.367 . S
C1187 C1186 1.367 . S
C1187 C1189 1.433 . S
C1188 C1184 1.350 . S
C1188 C1185 1.463 . S
C1188 N1192 1.427 . S
C1189 H1179 0.929 . S
C1189 C1187 1.433 . S
C1189 N1192 1.384 . S
C1190 H1181 0.929 . S
C1190 C1182 1.378 . S
C1190 C1185 1.350 . S
C1191 H1178 0.929 . S
C1191 C1183 1.433 . S
C1191 N1193 1.384 . S
N1192 C1188 1.427 . S
N1192 C1189 1.384 . S
N1193 C1185 1.427 . S
N1193 C1191 1.384 . S
H1194 C1200 0.930 . S
H1195 C1204 0.930 . S
H1196 C1209 0.929 . S
H1197 C1207 0.929 . S
H1198 C1202 0.929 . S
H1199 C1208 0.929 . S
C1200 H1194 0.930 . S
C1200 C1201 1.367 . S
C1200 C1208 1.378 . S
C1201 C1200 1.367 . S
C1201 C1209 1.433 . S
C1202 H1198 0.929 . S
C1202 C1204 1.378 . S
C1202 C1206 1.350 . S
C1203 C1206 1.463 . S
C1203 C1208 1.350 . S
C1203 N1211 1.427 . S
C1204 H1195 0.930 . S
C1204 C1202 1.378 . S
C1204 C1205 1.367 . S
C1205 C1204 1.367 . S
C1205 C1207 1.433 . S
C1206 C1202 1.350 . S
C1206 C1203 1.463 . S
C1206 N1210 1.427 . S
C1207 H1197 0.929 . S
C1207 C1205 1.433 . S
C1207 N1210 1.384 . S
C1208 H1199 0.929 . S
C1208 C1200 1.378 . S
C1208 C1203 1.350 . S
C1209 H1196 0.929 . S
C1209 C1201 1.433 . S
C1209 N1211 1.384 . S
N1210 C1206 1.427 . S
N1210 C1207 1.384 . S
N1211 C1203 1.427 . S
N1211 C1209 1.384 . S
H1212 C1218 0.930 . S
H1213 C1222 0.930 . S
H1214 C1227 0.929 . S
H1215 C1225 0.929 . S
H1216 C1220 0.929 . S
H1217 C1226 0.929 . S
C1218 H1212 0.930 . S
C1218 C1219 1.367 . S
C1218 C1226 1.378 . S
C1219 C1218 1.367 . S
C1219 C1227 1.433 . S
C1220 H1216 0.929 . S
C1220 C1222 1.378 . S
C1220 C1224 1.350 . S
C1221 C1224 1.463 . S
C1221 C1226 1.350 . S
C1221 N1229 1.427 . S
C1222 H1213 0.930 . S
C1222 C1220 1.378 . S
C1222 C1223 1.367 . S
C1223 C1222 1.367 . S
C1223 C1225 1.433 . S
C1224 C1220 1.350 . S
C1224 C1221 1.463 . S
C1224 N1228 1.427 . S
C1225 H1215 0.929 . S
C1225 C1223 1.433 . S
C1225 N1228 1.384 . S
C1226 H1217 0.929 . S
C1226 C1218 1.378 . S
C1226 C1221 1.350 . S
C1227 H1214 0.929 . S
C1227 C1219 1.433 . S
C1227 N1229 1.384 . S
N1228 C1224 1.427 . S
N1228 C1225 1.384 . S
N1229 C1221 1.427 . S
N1229 C1227 1.384 . S
H1230 C1236 0.930 . S
H1231 C1240 0.930 . S
H1232 C1245 0.929 . S
H1233 C1243 0.929 . S
H1234 C1238 0.929 . S
H1235 C1244 0.929 . S
C1236 H1230 0.930 . S
C1236 C1237 1.367 . S
C1236 C1244 1.378 . S
C1237 C1236 1.367 . S
C1237 C1245 1.433 . S
C1238 H1234 0.929 . S
C1238 C1240 1.378 . S
C1238 C1242 1.350 . S
C1239 C1242 1.463 . S
C1239 C1244 1.350 . S
C1239 N1247 1.427 . S
C1240 H1231 0.930 . S
C1240 C1238 1.378 . S
C1240 C1241 1.367 . S
C1241 C1240 1.367 . S
C1241 C1243 1.433 . S
C1242 C1238 1.350 . S
C1242 C1239 1.463 . S
C1242 N1246 1.427 . S
C1243 H1233 0.929 . S
C1243 C1241 1.433 . S
C1243 N1246 1.384 . S
C1244 H1235 0.929 . S
C1244 C1236 1.378 . S
C1244 C1239 1.350 . S
C1245 H1232 0.929 . S
C1245 C1237 1.433 . S
C1245 N1247 1.384 . S
N1246 C1242 1.427 . S
N1246 C1243 1.384 . S
N1247 C1239 1.427 . S
N1247 C1245 1.384 . S
H1248 C1254 0.930 . S
H1249 C1258 0.930 . S
H1250 C1263 0.929 . S
H1251 C1261 0.929 . S
H1252 C1256 0.929 . S
H1253 C1262 0.929 . S
C1254 H1248 0.930 . S
C1254 C1255 1.367 . S
C1254 C1262 1.378 . S
C1255 C1254 1.367 . S
C1255 C1263 1.433 . S
C1256 H1252 0.929 . S
C1256 C1258 1.378 . S
C1256 C1260 1.350 . S
C1257 C1260 1.463 . S
C1257 C1262 1.350 . S
C1257 N1265 1.427 . S
C1258 H1249 0.930 . S
C1258 C1256 1.378 . S
C1258 C1259 1.367 . S
C1259 C1258 1.367 . S
C1259 C1261 1.433 . S
C1260 C1256 1.350 . S
C1260 C1257 1.463 . S
C1260 N1264 1.427 . S
C1261 H1251 0.929 . S
C1261 C1259 1.433 . S
C1261 N1264 1.384 . S
C1262 H1253 0.929 . S
C1262 C1254 1.378 . S
C1262 C1257 1.350 . S
C1263 H1250 0.929 . S
C1263 C1255 1.433 . S
C1263 N1265 1.384 . S
N1264 C1260 1.427 . S
N1264 C1261 1.384 . S
N1265 C1257 1.427 . S
N1265 C1263 1.384 . S
H1266 C1272 0.930 . S
H1267 C1276 0.930 . S
H1268 C1281 0.929 . S
H1269 C1279 0.929 . S
H1270 C1274 0.929 . S
H1271 C1280 0.929 . S
C1272 H1266 0.930 . S
C1272 C1273 1.367 . S
C1272 C1280 1.378 . S
C1273 C1272 1.367 . S
C1273 C1281 1.433 . S
C1274 H1270 0.929 . S
C1274 C1276 1.378 . S
C1274 C1278 1.350 . S
C1275 C1278 1.463 . S
C1275 C1280 1.350 . S
C1275 N1283 1.427 . S
C1276 H1267 0.930 . S
C1276 C1274 1.378 . S
C1276 C1277 1.367 . S
C1277 C1276 1.367 . S
C1277 C1279 1.433 . S
C1278 C1274 1.350 . S
C1278 C1275 1.463 . S
C1278 N1282 1.427 . S
C1279 H1269 0.929 . S
C1279 C1277 1.433 . S
C1279 N1282 1.384 . S
C1280 H1271 0.929 . S
C1280 C1272 1.378 . S
C1280 C1275 1.350 . S
C1281 H1268 0.929 . S
C1281 C1273 1.433 . S
C1281 N1283 1.384 . S
N1282 C1278 1.427 . S
N1282 C1279 1.384 . S
N1283 C1275 1.427 . S
N1283 C1281 1.384 . S
H1284 C1290 0.930 . S
H1285 C1294 0.930 . S
H1286 C1299 0.929 . S
H1287 C1297 0.929 . S
H1288 C1292 0.929 . S
H1289 C1298 0.929 . S
C1290 H1284 0.930 . S
C1290 C1291 1.367 . S
C1290 C1298 1.378 . S
C1291 C1290 1.367 . S
C1291 C1299 1.433 . S
C1292 H1288 0.929 . S
C1292 C1294 1.378 . S
C1292 C1296 1.350 . S
C1293 C1296 1.463 . S
C1293 C1298 1.350 . S
C1293 N1301 1.427 . S
C1294 H1285 0.930 . S
C1294 C1292 1.378 . S
C1294 C1295 1.367 . S
C1295 C1294 1.367 . S
C1295 C1297 1.433 . S
C1296 C1292 1.350 . S
C1296 C1293 1.463 . S
C1296 N1300 1.427 . S
C1297 H1287 0.929 . S
C1297 C1295 1.433 . S
C1297 N1300 1.384 . S
C1298 H1289 0.929 . S
C1298 C1290 1.378 . S
C1298 C1293 1.350 . S
C1299 H1286 0.929 . S
C1299 C1291 1.433 . S
C1299 N1301 1.384 . S
N1300 C1296 1.427 . S
N1300 C1297 1.384 . S
N1301 C1293 1.427 . S
N1301 C1299 1.384 . S
H1302 C1308 0.930 . S
H1303 C1312 0.930 . S
H1304 C1317 0.929 . S
H1305 C1315 0.929 . S
H1306 C1310 0.929 . S
H1307 C1316 0.929 . S
C1308 H1302 0.930 . S
C1308 C1309 1.367 . S
C1308 C1316 1.378 . S
C1309 C1308 1.367 . S
C1309 C1317 1.433 . S
C1310 H1306 0.929 . S
C1310 C1312 1.378 . S
C1310 C1314 1.350 . S
C1311 C1314 1.463 . S
C1311 C1316 1.350 . S
C1311 N1319 1.427 . S
C1312 H1303 0.930 . S
C1312 C1310 1.378 . S
C1312 C1313 1.367 . S
C1313 C1312 1.367 . S
C1313 C1315 1.433 . S
C1314 C1310 1.350 . S
C1314 C1311 1.463 . S
C1314 N1318 1.427 . S
C1315 H1305 0.929 . S
C1315 C1313 1.433 . S
C1315 N1318 1.384 . S
C1316 H1307 0.929 . S
C1316 C1308 1.378 . S
C1316 C1311 1.350 . S
C1317 H1304 0.929 . S
C1317 C1309 1.433 . S
C1317 N1319 1.384 . S
N1318 C1314 1.427 . S
N1318 C1315 1.384 . S
N1319 C1311 1.427 . S
N1319 C1317 1.384 . S
H1320 C1326 0.930 . S
H1321 C1330 0.930 . S
H1322 C1335 0.929 . S
H1323 C1333 0.929 . S
H1324 C1328 0.929 . S
H1325 C1334 0.929 . S
C1326 H1320 0.930 . S
C1326 C1327 1.367 . S
C1326 C1334 1.378 . S
C1327 C1326 1.367 . S
C1327 C1335 1.433 . S
C1328 H1324 0.929 . S
C1328 C1330 1.378 . S
C1328 C1332 1.350 . S
C1329 C1332 1.463 . S
C1329 C1334 1.350 . S
C1329 N1337 1.427 . S
C1330 H1321 0.930 . S
C1330 C1328 1.378 . S
C1330 C1331 1.367 . S
C1331 C1330 1.367 . S
C1331 C1333 1.433 . S
C1332 C1328 1.350 . S
C1332 C1329 1.463 . S
C1332 N1336 1.427 . S
C1333 H1323 0.929 . S
C1333 C1331 1.433 . S
C1333 N1336 1.384 . S
C1334 H1325 0.929 . S
C1334 C1326 1.378 . S
C1334 C1329 1.350 . S
C1335 H1322 0.929 . S
C1335 C1327 1.433 . S
C1335 N1337 1.384 . S
N1336 C1332 1.427 . S
N1336 C1333 1.384 . S
N1337 C1329 1.427 . S
N1337 C1335 1.384 . S
H1338 C1344 0.930 . S
H1339 C1348 0.930 . S
H1340 C1353 0.929 . S
H1341 C1351 0.929 . S
H1342 C1346 0.929 . S
H1343 C1352 0.929 . S
C1344 H1338 0.930 . S
C1344 C1345 1.367 . S
C1344 C1352 1.378 . S
C1345 C1344 1.367 . S
C1345 C1353 1.433 . S
C1346 H1342 0.929 . S
C1346 C1348 1.378 . S
C1346 C1350 1.350 . S
C1347 C1350 1.463 . S
C1347 C1352 1.350 . S
C1347 N1355 1.427 . S
C1348 H1339 0.930 . S
C1348 C1346 1.378 . S
C1348 C1349 1.367 . S
C1349 C1348 1.367 . S
C1349 C1351 1.433 . S
C1350 C1346 1.350 . S
C1350 C1347 1.463 . S
C1350 N1354 1.427 . S
C1351 H1341 0.929 . S
C1351 C1349 1.433 . S
C1351 N1354 1.384 . S
C1352 H1343 0.929 . S
C1352 C1344 1.378 . S
C1352 C1347 1.350 . S
C1353 H1340 0.929 . S
C1353 C1345 1.433 . S
C1353 N1355 1.384 . S
N1354 C1350 1.427 . S
N1354 C1351 1.384 . S
N1355 C1347 1.427 . S
N1355 C1353 1.384 . S
H1356 C1362 0.930 . S
H1357 C1366 0.930 . S
H1358 C1371 0.929 . S
H1359 C1369 0.929 . S
H1360 C1364 0.929 . S
H1361 C1370 0.929 . S
C1362 H1356 0.930 . S
C1362 C1363 1.367 . S
C1362 C1370 1.378 . S
C1363 C1362 1.367 . S
C1363 C1371 1.433 . S
C1364 H1360 0.929 . S
C1364 C1366 1.378 . S
C1364 C1368 1.350 . S
C1365 C1368 1.463 . S
C1365 C1370 1.350 . S
C1365 N1373 1.427 . S
C1366 H1357 0.930 . S
C1366 C1364 1.378 . S
C1366 C1367 1.367 . S
C1367 C1366 1.367 . S
C1367 C1369 1.433 . S
C1368 C1364 1.350 . S
C1368 C1365 1.463 . S
C1368 N1372 1.427 . S
C1369 H1359 0.929 . S
C1369 C1367 1.433 . S
C1369 N1372 1.384 . S
C1370 H1361 0.929 . S
C1370 C1362 1.378 . S
C1370 C1365 1.350 . S
C1371 H1358 0.929 . S
C1371 C1363 1.433 . S
C1371 N1373 1.384 . S
N1372 C1368 1.427 . S
N1372 C1369 1.384 . S
N1373 C1365 1.427 . S
N1373 C1371 1.384 . S
H1374 C1380 0.930 . S
H1375 C1384 0.930 . S
H1376 C1389 0.929 . S
H1377 C1387 0.929 . S
H1378 C1382 0.929 . S
H1379 C1388 0.929 . S
C1380 H1374 0.930 . S
C1380 C1381 1.367 . S
C1380 C1388 1.378 . S
C1381 C1380 1.367 . S
C1381 C1389 1.433 . S
C1382 H1378 0.929 . S
C1382 C1384 1.378 . S
C1382 C1386 1.350 . S
C1383 C1386 1.463 . S
C1383 C1388 1.350 . S
C1383 N1391 1.427 . S
C1384 H1375 0.930 . S
C1384 C1382 1.378 . S
C1384 C1385 1.367 . S
C1385 C1384 1.367 . S
C1385 C1387 1.433 . S
C1386 C1382 1.350 . S
C1386 C1383 1.463 . S
C1386 N1390 1.427 . S
C1387 H1377 0.929 . S
C1387 C1385 1.433 . S
C1387 N1390 1.384 . S
C1388 H1379 0.929 . S
C1388 C1380 1.378 . S
C1388 C1383 1.350 . S
C1389 H1376 0.929 . S
C1389 C1381 1.433 . S
C1389 N1391 1.384 . S
N1390 C1386 1.427 . S
N1390 C1387 1.384 . S
N1391 C1383 1.427 . S
N1391 C1389 1.384 . S
H1392 C1398 0.930 . S
H1393 C1402 0.930 . S
H1394 C1407 0.929 . S
H1395 C1405 0.929 . S
H1396 C1400 0.929 . S
H1397 C1406 0.929 . S
C1398 H1392 0.930 . S
C1398 C1399 1.367 . S
C1398 C1406 1.378 . S
C1399 C1398 1.367 . S
C1399 C1407 1.433 . S
C1400 H1396 0.929 . S
C1400 C1402 1.378 . S
C1400 C1404 1.350 . S
C1401 C1404 1.463 . S
C1401 C1406 1.350 . S
C1401 N1409 1.427 . S
C1402 H1393 0.930 . S
C1402 C1400 1.378 . S
C1402 C1403 1.367 . S
C1403 C1402 1.367 . S
C1403 C1405 1.433 . S
C1404 C1400 1.350 . S
C1404 C1401 1.463 . S
C1404 N1408 1.427 . S
C1405 H1395 0.929 . S
C1405 C1403 1.433 . S
C1405 N1408 1.384 . S
C1406 H1397 0.929 . S
C1406 C1398 1.378 . S
C1406 C1401 1.350 . S
C1407 H1394 0.929 . S
C1407 C1399 1.433 . S
C1407 N1409 1.384 . S
N1408 C1404 1.427 . S
N1408 C1405 1.384 . S
N1409 C1401 1.427 . S
N1409 C1407 1.384 . S
H1410 C1416 0.930 . S
H1411 C1420 0.930 . S
H1412 C1425 0.929 . S
H1413 C1423 0.929 . S
H1414 C1418 0.929 . S
H1415 C1424 0.929 . S
C1416 H1410 0.930 . S
C1416 C1417 1.367 . S
C1416 C1424 1.378 . S
C1417 C1416 1.367 . S
C1417 C1425 1.433 . S
C1418 H1414 0.929 . S
C1418 C1420 1.378 . S
C1418 C1422 1.350 . S
C1419 C1422 1.463 . S
C1419 C1424 1.350 . S
C1419 N1427 1.427 . S
C1420 H1411 0.930 . S
C1420 C1418 1.378 . S
C1420 C1421 1.367 . S
C1421 C1420 1.367 . S
C1421 C1423 1.433 . S
C1422 C1418 1.350 . S
C1422 C1419 1.463 . S
C1422 N1426 1.427 . S
C1423 H1413 0.929 . S
C1423 C1421 1.433 . S
C1423 N1426 1.384 . S
C1424 H1415 0.929 . S
C1424 C1416 1.378 . S
C1424 C1419 1.350 . S
C1425 H1412 0.929 . S
C1425 C1417 1.433 . S
C1425 N1427 1.384 . S
N1426 C1422 1.427 . S
N1426 C1423 1.384 . S
N1427 C1419 1.427 . S
N1427 C1425 1.384 . S
H1428 C1434 0.930 . S
H1429 C1438 0.930 . S
H1430 C1443 0.929 . S
H1431 C1441 0.929 . S
H1432 C1436 0.929 . S
H1433 C1442 0.929 . S
C1434 H1428 0.930 . S
C1434 C1435 1.367 . S
C1434 C1442 1.378 . S
C1435 C1434 1.367 . S
C1435 C1443 1.433 . S
C1436 H1432 0.929 . S
C1436 C1438 1.378 . S
C1436 C1440 1.350 . S
C1437 C1440 1.463 . S
C1437 C1442 1.350 . S
C1437 N1445 1.427 . S
C1438 H1429 0.930 . S
C1438 C1436 1.378 . S
C1438 C1439 1.367 . S
C1439 C1438 1.367 . S
C1439 C1441 1.433 . S
C1440 C1436 1.350 . S
C1440 C1437 1.463 . S
C1440 N1444 1.427 . S
C1441 H1431 0.929 . S
C1441 C1439 1.433 . S
C1441 N1444 1.384 . S
C1442 H1433 0.929 . S
C1442 C1434 1.378 . S
C1442 C1437 1.350 . S
C1443 H1430 0.929 . S
C1443 C1435 1.433 . S
C1443 N1445 1.384 . S
N1444 C1440 1.427 . S
N1444 C1441 1.384 . S
N1445 C1437 1.427 . S
N1445 C1443 1.384 . S
H1446 C1452 0.930 . S
H1447 C1456 0.930 . S
H1448 C1461 0.929 . S
H1449 C1459 0.929 . S
H1450 C1454 0.929 . S
H1451 C1460 0.929 . S
C1452 H1446 0.930 . S
C1452 C1453 1.367 . S
C1452 C1460 1.378 . S
C1453 C1452 1.367 . S
C1453 C1461 1.433 . S
C1454 H1450 0.929 . S
C1454 C1456 1.378 . S
C1454 C1458 1.350 . S
C1455 C1458 1.463 . S
C1455 C1460 1.350 . S
C1455 N1463 1.427 . S
C1456 H1447 0.930 . S
C1456 C1454 1.378 . S
C1456 C1457 1.367 . S
C1457 C1456 1.367 . S
C1457 C1459 1.433 . S
C1458 C1454 1.350 . S
C1458 C1455 1.463 . S
C1458 N1462 1.427 . S
C1459 H1449 0.929 . S
C1459 C1457 1.433 . S
C1459 N1462 1.384 . S
C1460 H1451 0.929 . S
C1460 C1452 1.378 . S
C1460 C1455 1.350 . S
C1461 H1448 0.929 . S
C1461 C1453 1.433 . S
C1461 N1463 1.384 . S
N1462 C1458 1.427 . S
N1462 C1459 1.384 . S
N1463 C1455 1.427 . S
N1463 C1461 1.384 . S
H1464 C1470 0.930 . S
H1465 C1474 0.930 . S
H1466 C1479 0.929 . S
H1467 C1477 0.929 . S
H1468 C1472 0.929 . S
H1469 C1478 0.929 . S
C1470 H1464 0.930 . S
C1470 C1471 1.367 . S
C1470 C1478 1.378 . S
C1471 C1470 1.367 . S
C1471 C1479 1.433 . S
C1472 H1468 0.929 . S
C1472 C1474 1.378 . S
C1472 C1476 1.350 . S
C1473 C1476 1.463 . S
C1473 C1478 1.350 . S
C1473 N1481 1.427 . S
C1474 H1465 0.930 . S
C1474 C1472 1.378 . S
C1474 C1475 1.367 . S
C1475 C1474 1.367 . S
C1475 C1477 1.433 . S
C1476 C1472 1.350 . S
C1476 C1473 1.463 . S
C1476 N1480 1.427 . S
C1477 H1467 0.929 . S
C1477 C1475 1.433 . S
C1477 N1480 1.384 . S
C1478 H1469 0.929 . S
C1478 C1470 1.378 . S
C1478 C1473 1.350 . S
C1479 H1466 0.929 . S
C1479 C1471 1.433 . S
C1479 N1481 1.384 . S
N1480 C1476 1.427 . S
N1480 C1477 1.384 . S
N1481 C1473 1.427 . S
N1481 C1479 1.384 . S
H1482 C1488 0.930 . S
H1483 C1492 0.930 . S
H1484 C1497 0.929 . S
H1485 C1495 0.929 . S
H1486 C1490 0.929 . S
H1487 C1496 0.929 . S
C1488 H1482 0.930 . S
C1488 C1489 1.367 . S
C1488 C1496 1.378 . S
C1489 C1488 1.367 . S
C1489 C1497 1.433 . S
C1490 H1486 0.929 . S
C1490 C1492 1.378 . S
C1490 C1494 1.350 . S
C1491 C1494 1.463 . S
C1491 C1496 1.350 . S
C1491 N1499 1.427 . S
C1492 H1483 0.930 . S
C1492 C1490 1.378 . S
C1492 C1493 1.367 . S
C1493 C1492 1.367 . S
C1493 C1495 1.433 . S
C1494 C1490 1.350 . S
C1494 C1491 1.463 . S
C1494 N1498 1.427 . S
C1495 H1485 0.929 . S
C1495 C1493 1.433 . S
C1495 N1498 1.384 . S
C1496 H1487 0.929 . S
C1496 C1488 1.378 . S
C1496 C1491 1.350 . S
C1497 H1484 0.929 . S
C1497 C1489 1.433 . S
C1497 N1499 1.384 . S
N1498 C1494 1.427 . S
N1498 C1495 1.384 . S
N1499 C1491 1.427 . S
N1499 C1497 1.384 . S
H1500 C1506 0.930 . S
H1501 C1510 0.930 . S
H1502 C1515 0.929 . S
H1503 C1513 0.929 . S
H1504 C1508 0.929 . S
H1505 C1514 0.929 . S
C1506 H1500 0.930 . S
C1506 C1507 1.367 . S
C1506 C1514 1.378 . S
C1507 C1506 1.367 . S
C1507 C1515 1.433 . S
C1508 H1504 0.929 . S
C1508 C1510 1.378 . S
C1508 C1512 1.350 . S
C1509 C1512 1.463 . S
C1509 C1514 1.350 . S
C1509 N1517 1.427 . S
C1510 H1501 0.930 . S
C1510 C1508 1.378 . S
C1510 C1511 1.367 . S
C1511 C1510 1.367 . S
C1511 C1513 1.433 . S
C1512 C1508 1.350 . S
C1512 C1509 1.463 . S
C1512 N1516 1.427 . S
C1513 H1503 0.929 . S
C1513 C1511 1.433 . S
C1513 N1516 1.384 . S
C1514 H1505 0.929 . S
C1514 C1506 1.378 . S
C1514 C1509 1.350 . S
C1515 H1502 0.929 . S
C1515 C1507 1.433 . S
C1515 N1517 1.384 . S
N1516 C1512 1.427 . S
N1516 C1513 1.384 . S
N1517 C1509 1.427 . S
N1517 C1515 1.384 . S
H1518 C1524 0.930 . S
H1519 C1528 0.930 . S
H1520 C1533 0.929 . S
H1521 C1531 0.929 . S
H1522 C1526 0.929 . S
H1523 C1532 0.929 . S
C1524 H1518 0.930 . S
C1524 C1525 1.367 . S
C1524 C1532 1.378 . S
C1525 C1524 1.367 . S
C1525 C1533 1.433 . S
C1526 H1522 0.929 . S
C1526 C1528 1.378 . S
C1526 C1530 1.350 . S
C1527 C1530 1.463 . S
C1527 C1532 1.350 . S
C1527 N1535 1.427 . S
C1528 H1519 0.930 . S
C1528 C1526 1.378 . S
C1528 C1529 1.367 . S
C1529 C1528 1.367 . S
C1529 C1531 1.433 . S
C1530 C1526 1.350 . S
C1530 C1527 1.463 . S
C1530 N1534 1.427 . S
C1531 H1521 0.929 . S
C1531 C1529 1.433 . S
C1531 N1534 1.384 . S
C1532 H1523 0.929 . S
C1532 C1524 1.378 . S
C1532 C1527 1.350 . S
C1533 H1520 0.929 . S
C1533 C1525 1.433 . S
C1533 N1535 1.384 . S
N1534 C1530 1.427 . S
N1534 C1531 1.384 . S
N1535 C1527 1.427 . S
N1535 C1533 1.384 . S
H1536 C1542 0.930 . S
H1537 C1546 0.930 . S
H1538 C1551 0.929 . S
H1539 C1549 0.929 . S
H1540 C1544 0.929 . S
H1541 C1550 0.929 . S
C1542 H1536 0.930 . S
C1542 C1543 1.367 . S
C1542 C1550 1.378 . S
C1543 C1542 1.367 . S
C1543 C1551 1.433 . S
C1544 H1540 0.929 . S
C1544 C1546 1.378 . S
C1544 C1548 1.350 . S
C1545 C1548 1.463 . S
C1545 C1550 1.350 . S
C1545 N1553 1.427 . S
C1546 H1537 0.930 . S
C1546 C1544 1.378 . S
C1546 C1547 1.367 . S
C1547 C1546 1.367 . S
C1547 C1549 1.433 . S
C1548 C1544 1.350 . S
C1548 C1545 1.463 . S
C1548 N1552 1.427 . S
C1549 H1539 0.929 . S
C1549 C1547 1.433 . S
C1549 N1552 1.384 . S
C1550 H1541 0.929 . S
C1550 C1542 1.378 . S
C1550 C1545 1.350 . S
C1551 H1538 0.929 . S
C1551 C1543 1.433 . S
C1551 N1553 1.384 . S
N1552 C1548 1.427 . S
N1552 C1549 1.384 . S
N1553 C1545 1.427 . S
N1553 C1551 1.384 . S
H1554 C1560 0.930 . S
H1555 C1564 0.930 . S
H1556 C1569 0.929 . S
H1557 C1567 0.929 . S
H1558 C1562 0.929 . S
H1559 C1568 0.929 . S
C1560 H1554 0.930 . S
C1560 C1561 1.367 . S
C1560 C1568 1.378 . S
C1561 C1560 1.367 . S
C1561 C1569 1.433 . S
C1562 H1558 0.929 . S
C1562 C1564 1.378 . S
C1562 C1566 1.350 . S
C1563 C1566 1.463 . S
C1563 C1568 1.350 . S
C1563 N1571 1.427 . S
C1564 H1555 0.930 . S
C1564 C1562 1.378 . S
C1564 C1565 1.367 . S
C1565 C1564 1.367 . S
C1565 C1567 1.433 . S
C1566 C1562 1.350 . S
C1566 C1563 1.463 . S
C1566 N1570 1.427 . S
C1567 H1557 0.929 . S
C1567 C1565 1.433 . S
C1567 N1570 1.384 . S
C1568 H1559 0.929 . S
C1568 C1560 1.378 . S
C1568 C1563 1.350 . S
C1569 H1556 0.929 . S
C1569 C1561 1.433 . S
C1569 N1571 1.384 . S
N1570 C1566 1.427 . S
N1570 C1567 1.384 . S
N1571 C1563 1.427 . S
N1571 C1569 1.384 . S
H1572 C1578 0.930 . S
H1573 C1582 0.930 . S
H1574 C1587 0.929 . S
H1575 C1585 0.929 . S
H1576 C1580 0.929 . S
H1577 C1586 0.929 . S
C1578 H1572 0.930 . S
C1578 C1579 1.367 . S
C1578 C1586 1.378 . S
C1579 C1578 1.367 . S
C1579 C1587 1.433 . S
C1580 H1576 0.929 . S
C1580 C1582 1.378 . S
C1580 C1584 1.350 . S
C1581 C1584 1.463 . S
C1581 C1586 1.350 . S
C1581 N1589 1.427 . S
C1582 H1573 0.930 . S
C1582 C1580 1.378 . S
C1582 C1583 1.367 . S
C1583 C1582 1.367 . S
C1583 C1585 1.433 . S
C1584 C1580 1.350 . S
C1584 C1581 1.463 . S
C1584 N1588 1.427 . S
C1585 H1575 0.929 . S
C1585 C1583 1.433 . S
C1585 N1588 1.384 . S
C1586 H1577 0.929 . S
C1586 C1578 1.378 . S
C1586 C1581 1.350 . S
C1587 H1574 0.929 . S
C1587 C1579 1.433 . S
C1587 N1589 1.384 . S
N1588 C1584 1.427 . S
N1588 C1585 1.384 . S
N1589 C1581 1.427 . S
N1589 C1587 1.384 . S
H1590 C1596 0.930 . S
H1591 C1600 0.930 . S
H1592 C1605 0.929 . S
H1593 C1603 0.929 . S
H1594 C1598 0.929 . S
H1595 C1604 0.929 . S
C1596 H1590 0.930 . S
C1596 C1597 1.367 . S
C1596 C1604 1.378 . S
C1597 C1596 1.367 . S
C1597 C1605 1.433 . S
C1598 H1594 0.929 . S
C1598 C1600 1.378 . S
C1598 C1602 1.350 . S
C1599 C1602 1.463 . S
C1599 C1604 1.350 . S
C1599 N1607 1.427 . S
C1600 H1591 0.930 . S
C1600 C1598 1.378 . S
C1600 C1601 1.367 . S
C1601 C1600 1.367 . S
C1601 C1603 1.433 . S
C1602 C1598 1.350 . S
C1602 C1599 1.463 . S
C1602 N1606 1.427 . S
C1603 H1593 0.929 . S
C1603 C1601 1.433 . S
C1603 N1606 1.384 . S
C1604 H1595 0.929 . S
C1604 C1596 1.378 . S
C1604 C1599 1.350 . S
C1605 H1592 0.929 . S
C1605 C1597 1.433 . S
C1605 N1607 1.384 . S
N1606 C1602 1.427 . S
N1606 C1603 1.384 . S
N1607 C1599 1.427 . S
N1607 C1605 1.384 . S
H1608 C1614 0.930 . S
H1609 C1618 0.930 . S
H1610 C1623 0.929 . S
H1611 C1621 0.929 . S
H1612 C1616 0.929 . S
H1613 C1622 0.929 . S
C1614 H1608 0.930 . S
C1614 C1615 1.367 . S
C1614 C1622 1.378 . S
C1615 C1614 1.367 . S
C1615 C1623 1.433 . S
C1616 H1612 0.929 . S
C1616 C1618 1.378 . S
C1616 C1620 1.350 . S
C1617 C1620 1.463 . S
C1617 C1622 1.350 . S
C1617 N1625 1.427 . S
C1618 H1609 0.930 . S
C1618 C1616 1.378 . S
C1618 C1619 1.367 . S
C1619 C1618 1.367 . S
C1619 C1621 1.433 . S
C1620 C1616 1.350 . S
C1620 C1617 1.463 . S
C1620 N1624 1.427 . S
C1621 H1611 0.929 . S
C1621 C1619 1.433 . S
C1621 N1624 1.384 . S
C1622 H1613 0.929 . S
C1622 C1614 1.378 . S
C1622 C1617 1.350 . S
C1623 H1610 0.929 . S
C1623 C1615 1.433 . S
C1623 N1625 1.384 . S
N1624 C1620 1.427 . S
N1624 C1621 1.384 . S
N1625 C1617 1.427 . S
N1625 C1623 1.384 . S
H1626 C1632 0.930 . S
H1627 C1636 0.930 . S
H1628 C1641 0.929 . S
H1629 C1639 0.929 . S
H1630 C1634 0.929 . S
H1631 C1640 0.929 . S
C1632 H1626 0.930 . S
C1632 C1633 1.367 . S
C1632 C1640 1.378 . S
C1633 C1632 1.367 . S
C1633 C1641 1.433 . S
C1634 H1630 0.929 . S
C1634 C1636 1.378 . S
C1634 C1638 1.350 . S
C1635 C1638 1.463 . S
C1635 C1640 1.350 . S
C1635 N1643 1.427 . S
C1636 H1627 0.930 . S
C1636 C1634 1.378 . S
C1636 C1637 1.367 . S
C1637 C1636 1.367 . S
C1637 C1639 1.433 . S
C1638 C1634 1.350 . S
C1638 C1635 1.463 . S
C1638 N1642 1.427 . S
C1639 H1629 0.929 . S
C1639 C1637 1.433 . S
C1639 N1642 1.384 . S
C1640 H1631 0.929 . S
C1640 C1632 1.378 . S
C1640 C1635 1.350 . S
C1641 H1628 0.929 . S
C1641 C1633 1.433 . S
C1641 N1643 1.384 . S
N1642 C1638 1.427 . S
N1642 C1639 1.384 . S
N1643 C1635 1.427 . S
N1643 C1641 1.384 . S
H1644 C1650 0.930 . S
H1645 C1654 0.930 . S
H1646 C1659 0.929 . S
H1647 C1657 0.929 . S
H1648 C1652 0.929 . S
H1649 C1658 0.929 . S
C1650 H1644 0.930 . S
C1650 C1651 1.367 . S
C1650 C1658 1.378 . S
C1651 C1650 1.367 . S
C1651 C1659 1.433 . S
C1652 H1648 0.929 . S
C1652 C1654 1.378 . S
C1652 C1656 1.350 . S
C1653 C1656 1.463 . S
C1653 C1658 1.350 . S
C1653 N1661 1.427 . S
C1654 H1645 0.930 . S
C1654 C1652 1.378 . S
C1654 C1655 1.367 . S
C1655 C1654 1.367 . S
C1655 C1657 1.433 . S
C1656 C1652 1.350 . S
C1656 C1653 1.463 . S
C1656 N1660 1.427 . S
C1657 H1647 0.929 . S
C1657 C1655 1.433 . S
C1657 N1660 1.384 . S
C1658 H1649 0.929 . S
C1658 C1650 1.378 . S
C1658 C1653 1.350 . S
C1659 H1646 0.929 . S
C1659 C1651 1.433 . S
C1659 N1661 1.384 . S
N1660 C1656 1.427 . S
N1660 C1657 1.384 . S
N1661 C1653 1.427 . S
N1661 C1659 1.384 . S
H1662 C1668 0.930 . S
H1663 C1672 0.930 . S
H1664 C1677 0.929 . S
H1665 C1675 0.929 . S
H1666 C1670 0.929 . S
H1667 C1676 0.929 . S
C1668 H1662 0.930 . S
C1668 C1669 1.367 . S
C1668 C1676 1.378 . S
C1669 C1668 1.367 . S
C1669 C1677 1.433 . S
C1670 H1666 0.929 . S
C1670 C1672 1.378 . S
C1670 C1674 1.350 . S
C1671 C1674 1.463 . S
C1671 C1676 1.350 . S
C1671 N1679 1.427 . S
C1672 H1663 0.930 . S
C1672 C1670 1.378 . S
C1672 C1673 1.367 . S
C1673 C1672 1.367 . S
C1673 C1675 1.433 . S
C1674 C1670 1.350 . S
C1674 C1671 1.463 . S
C1674 N1678 1.427 . S
C1675 H1665 0.929 . S
C1675 C1673 1.433 . S
C1675 N1678 1.384 . S
C1676 H1667 0.929 . S
C1676 C1668 1.378 . S
C1676 C1671 1.350 . S
C1677 H1664 0.929 . S
C1677 C1669 1.433 . S
C1677 N1679 1.384 . S
N1678 C1674 1.427 . S
N1678 C1675 1.384 . S
N1679 C1671 1.427 . S
N1679 C1677 1.384 . S
H1680 C1686 0.930 . S
H1681 C1690 0.930 . S
H1682 C1695 0.929 . S
H1683 C1693 0.929 . S
H1684 C1688 0.929 . S
H1685 C1694 0.929 . S
C1686 H1680 0.930 . S
C1686 C1687 1.367 . S
C1686 C1694 1.378 . S
C1687 C1686 1.367 . S
C1687 C1695 1.433 . S
C1688 H1684 0.929 . S
C1688 C1690 1.378 . S
C1688 C1692 1.350 . S
C1689 C1692 1.463 . S
C1689 C1694 1.350 . S
C1689 N1697 1.427 . S
C1690 H1681 0.930 . S
C1690 C1688 1.378 . S
C1690 C1691 1.367 . S
C1691 C1690 1.367 . S
C1691 C1693 1.433 . S
C1692 C1688 1.350 . S
C1692 C1689 1.463 . S
C1692 N1696 1.427 . S
C1693 H1683 0.929 . S
C1693 C1691 1.433 . S
C1693 N1696 1.384 . S
C1694 H1685 0.929 . S
C1694 C1686 1.378 . S
C1694 C1689 1.350 . S
C1695 H1682 0.929 . S
C1695 C1687 1.433 . S
C1695 N1697 1.384 . S
N1696 C1692 1.427 . S
N1696 C1693 1.384 . S
N1697 C1689 1.427 . S
N1697 C1695 1.384 . S
H1698 C1704 0.930 . S
H1699 C1708 0.930 . S
H1700 C1713 0.929 . S
H1701 C1711 0.929 . S
H1702 C1706 0.929 . S
H1703 C1712 0.929 . S
C1704 H1698 0.930 . S
C1704 C1705 1.367 . S
C1704 C1712 1.378 . S
C1705 C1704 1.367 . S
C1705 C1713 1.433 . S
C1706 H1702 0.929 . S
C1706 C1708 1.378 . S
C1706 C1710 1.350 . S
C1707 C1710 1.463 . S
C1707 C1712 1.350 . S
C1707 N1715 1.427 . S
C1708 H1699 0.930 . S
C1708 C1706 1.378 . S
C1708 C1709 1.367 . S
C1709 C1708 1.367 . S
C1709 C1711 1.433 . S
C1710 C1706 1.350 . S
C1710 C1707 1.463 . S
C1710 N1714 1.427 . S
C1711 H1701 0.929 . S
C1711 C1709 1.433 . S
C1711 N1714 1.384 . S
C1712 H1703 0.929 . S
C1712 C1704 1.378 . S
C1712 C1707 1.350 . S
C1713 H1700 0.929 . S
C1713 C1705 1.433 . S
C1713 N1715 1.384 . S
N1714 C1710 1.427 . S
N1714 C1711 1.384 . S
N1715 C1707 1.427 . S
N1715 C1713 1.384 . S
H1716 C1722 0.930 . S
H1717 C1726 0.930 . S
H1718 C1731 0.929 . S
H1719 C1729 0.929 . S
H1720 C1724 0.929 . S
H1721 C1730 0.929 . S
C1722 H1716 0.930 . S
C1722 C1723 1.367 . S
C1722 C1730 1.378 . S
C1723 C1722 1.367 . S
C1723 C1731 1.433 . S
C1724 H1720 0.929 . S
C1724 C1726 1.378 . S
C1724 C1728 1.350 . S
C1725 C1728 1.463 . S
C1725 C1730 1.350 . S
C1725 N1733 1.427 . S
C1726 H1717 0.930 . S
C1726 C1724 1.378 . S
C1726 C1727 1.367 . S
C1727 C1726 1.367 . S
C1727 C1729 1.433 . S
C1728 C1724 1.350 . S
C1728 C1725 1.463 . S
C1728 N1732 1.427 . S
C1729 H1719 0.929 . S
C1729 C1727 1.433 . S
C1729 N1732 1.384 . S
C1730 H1721 0.929 . S
C1730 C1722 1.378 . S
C1730 C1725 1.350 . S
C1731 H1718 0.929 . S
C1731 C1723 1.433 . S
C1731 N1733 1.384 . S
N1732 C1728 1.427 . S
N1732 C1729 1.384 . S
N1733 C1725 1.427 . S
N1733 C1731 1.384 . S
H1734 C1740 0.930 . S
H1735 C1744 0.930 . S
H1736 C1749 0.929 . S
H1737 C1747 0.929 . S
H1738 C1742 0.929 . S
H1739 C1748 0.929 . S
C1740 H1734 0.930 . S
C1740 C1741 1.367 . S
C1740 C1748 1.378 . S
C1741 C1740 1.367 . S
C1741 C1749 1.433 . S
C1742 H1738 0.929 . S
C1742 C1744 1.378 . S
C1742 C1746 1.350 . S
C1743 C1746 1.463 . S
C1743 C1748 1.350 . S
C1743 N1751 1.427 . S
C1744 H1735 0.930 . S
C1744 C1742 1.378 . S
C1744 C1745 1.367 . S
C1745 C1744 1.367 . S
C1745 C1747 1.433 . S
C1746 C1742 1.350 . S
C1746 C1743 1.463 . S
C1746 N1750 1.427 . S
C1747 H1737 0.929 . S
C1747 C1745 1.433 . S
C1747 N1750 1.384 . S
C1748 H1739 0.929 . S
C1748 C1740 1.378 . S
C1748 C1743 1.350 . S
C1749 H1736 0.929 . S
C1749 C1741 1.433 . S
C1749 N1751 1.384 . S
N1750 C1746 1.427 . S
N1750 C1747 1.384 . S
N1751 C1743 1.427 . S
N1751 C1749 1.384 . S
H1752 C1758 0.930 . S
H1753 C1762 0.930 . S
H1754 C1767 0.929 . S
H1755 C1765 0.929 . S
H1756 C1760 0.929 . S
H1757 C1766 0.929 . S
C1758 H1752 0.930 . S
C1758 C1759 1.367 . S
C1758 C1766 1.378 . S
C1759 C1758 1.367 . S
C1759 C1767 1.433 . S
C1760 H1756 0.929 . S
C1760 C1762 1.378 . S
C1760 C1764 1.350 . S
C1761 C1764 1.463 . S
C1761 C1766 1.350 . S
C1761 N1769 1.427 . S
C1762 H1753 0.930 . S
C1762 C1760 1.378 . S
C1762 C1763 1.367 . S
C1763 C1762 1.367 . S
C1763 C1765 1.433 . S
C1764 C1760 1.350 . S
C1764 C1761 1.463 . S
C1764 N1768 1.427 . S
C1765 H1755 0.929 . S
C1765 C1763 1.433 . S
C1765 N1768 1.384 . S
C1766 H1757 0.929 . S
C1766 C1758 1.378 . S
C1766 C1761 1.350 . S
C1767 H1754 0.929 . S
C1767 C1759 1.433 . S
C1767 N1769 1.384 . S
N1768 C1764 1.427 . S
N1768 C1765 1.384 . S
N1769 C1761 1.427 . S
N1769 C1767 1.384 . S
H1770 C1776 0.930 . S
H1771 C1780 0.930 . S
H1772 C1785 0.929 . S
H1773 C1783 0.929 . S
H1774 C1778 0.929 . S
H1775 C1784 0.929 . S
C1776 H1770 0.930 . S
C1776 C1777 1.367 . S
C1776 C1784 1.378 . S
C1777 C1776 1.367 . S
C1777 C1785 1.433 . S
C1778 H1774 0.929 . S
C1778 C1780 1.378 . S
C1778 C1782 1.350 . S
C1779 C1782 1.463 . S
C1779 C1784 1.350 . S
C1779 N1787 1.427 . S
C1780 H1771 0.930 . S
C1780 C1778 1.378 . S
C1780 C1781 1.367 . S
C1781 C1780 1.367 . S
C1781 C1783 1.433 . S
C1782 C1778 1.350 . S
C1782 C1779 1.463 . S
C1782 N1786 1.427 . S
C1783 H1773 0.929 . S
C1783 C1781 1.433 . S
C1783 N1786 1.384 . S
C1784 H1775 0.929 . S
C1784 C1776 1.378 . S
C1784 C1779 1.350 . S
C1785 H1772 0.929 . S
C1785 C1777 1.433 . S
C1785 N1787 1.384 . S
N1786 C1782 1.427 . S
N1786 C1783 1.384 . S
N1787 C1779 1.427 . S
N1787 C1785 1.384 . S
H1788 C1794 0.930 . S
H1789 C1798 0.930 . S
H1790 C1803 0.929 . S
H1791 C1801 0.929 . S
H1792 C1796 0.929 . S
H1793 C1802 0.929 . S
C1794 H1788 0.930 . S
C1794 C1795 1.367 . S
C1794 C1802 1.378 . S
C1795 C1794 1.367 . S
C1795 C1803 1.433 . S
C1796 H1792 0.929 . S
C1796 C1798 1.378 . S
C1796 C1800 1.350 . S
C1797 C1800 1.463 . S
C1797 C1802 1.350 . S
C1797 N1805 1.427 . S
C1798 H1789 0.930 . S
C1798 C1796 1.378 . S
C1798 C1799 1.367 . S
C1799 C1798 1.367 . S
C1799 C1801 1.433 . S
C1800 C1796 1.350 . S
C1800 C1797 1.463 . S
C1800 N1804 1.427 . S
C1801 H1791 0.929 . S
C1801 C1799 1.433 . S
C1801 N1804 1.384 . S
C1802 H1793 0.929 . S
C1802 C1794 1.378 . S
C1802 C1797 1.350 . S
C1803 H1790 0.929 . S
C1803 C1795 1.433 . S
C1803 N1805 1.384 . S
N1804 C1800 1.427 . S
N1804 C1801 1.384 . S
N1805 C1797 1.427 . S
N1805 C1803 1.384 . S
H1806 C1812 0.930 . S
H1807 C1816 0.930 . S
H1808 C1821 0.929 . S
H1809 C1819 0.929 . S
H1810 C1814 0.929 . S
H1811 C1820 0.929 . S
C1812 H1806 0.930 . S
C1812 C1813 1.367 . S
C1812 C1820 1.378 . S
C1813 C1812 1.367 . S
C1813 C1821 1.433 . S
C1814 H1810 0.929 . S
C1814 C1816 1.378 . S
C1814 C1818 1.350 . S
C1815 C1818 1.463 . S
C1815 C1820 1.350 . S
C1815 N1823 1.427 . S
C1816 H1807 0.930 . S
C1816 C1814 1.378 . S
C1816 C1817 1.367 . S
C1817 C1816 1.367 . S
C1817 C1819 1.433 . S
C1818 C1814 1.350 . S
C1818 C1815 1.463 . S
C1818 N1822 1.427 . S
C1819 H1809 0.929 . S
C1819 C1817 1.433 . S
C1819 N1822 1.384 . S
C1820 H1811 0.929 . S
C1820 C1812 1.378 . S
C1820 C1815 1.350 . S
C1821 H1808 0.929 . S
C1821 C1813 1.433 . S
C1821 N1823 1.384 . S
N1822 C1818 1.427 . S
N1822 C1819 1.384 . S
N1823 C1815 1.427 . S
N1823 C1821 1.384 . S
C535 C7 1.226 . S
C539 C360 1.270 . S
C553 C29 1.235 . S
C557 C514 1.276 . S
C571 C470 1.277 . S
C575 C51 1.226 . S
C589 C72 1.220 . S
C593 C492 1.278 . S
C607 C94 1.219 . S
C611 C378 1.280 . S
C625 C117 1.234 . S
C629 C400 1.276 . S
C643 C138 1.236 . S
C647 C422 1.282 . S
C661 C160 1.231 . S
C665 C444 1.277 . S
C679 C183 1.231 . S
C683 C8 1.270 . S
C697 C204 1.230 . S
C701 C30 1.276 . S
C715 C52 1.277 . S
C719 C226 1.229 . S
C733 C70 1.277 . S
C737 C249 1.224 . S
C751 C270 1.233 . S
C755 C92 1.274 . S
C769 C293 1.236 . S
C773 C118 1.276 . S
C787 C315 1.235 . S
C791 C136 1.277 . S
C805 C336 1.229 . S
C809 C158 1.276 . S
C823 C359 1.236 . S
C827 C184 1.269 . S
C841 C380 1.231 . S
C845 C268 1.282 . S
C859 C294 1.277 . S
C863 C402 1.225 . S
C877 C424 1.218 . S
C881 C316 1.276 . S
C895 C446 1.234 . S
C899 C334 1.276 . S
C913 C469 1.220 . S
C917 C224 1.279 . S
C931 C250 1.277 . S
C935 C491 1.228 . S
C949 C513 1.233 . S
C953 C202 1.276 . S
C967 C466 1.276 . S
C971 C97 1.236 . S
C985 C488 1.277 . S
C989 C115 1.223 . S
C1003 C141 1.236 . S
C1007 C356 1.277 . S
C1021 C163 1.220 . S
C1025 C510 1.278 . S
C1039 C426 1.276 . S
C1043 C5 1.235 . S
C1057 C27 1.233 . S
C1061 C448 1.276 . S
C1075 C382 1.276 . S
C1079 C49 1.230 . S
C1093 C75 1.223 . S
C1097 C404 1.277 . S
C1111 C313 1.219 . S
C1115 C96 1.284 . S
C1129 C339 1.222 . S
C1133 C114 1.277 . S
C1147 C273 1.230 . S
C1151 C140 1.270 . S
C1165 C162 1.278 . S
C1169 C291 1.219 . S
C1183 C229 1.221 . S
C1187 C4 1.279 . S
C1201 C247 1.231 . S
C1205 C26 1.276 . S
C1219 C181 1.222 . S
C1223 C48 1.276 . S
C1237 C207 1.226 . S
C1241 C74 1.277 . S
C1255 C312 1.277 . S
C1259 C467 1.238 . S
C1273 C427 1.234 . S
C1277 C228 1.270 . S
C1291 C246 1.277 . S
C1295 C449 1.226 . S
C1309 C383 1.219 . S
C1313 C180 1.279 . S
C1327 C405 1.234 . S
C1331 C206 1.276 . S
C1345 C357 1.218 . S
C1349 C272 1.276 . S
C1363 C511 1.227 . S
C1367 C290 1.277 . S
C1381 C338 1.278 . S
C1385 C489 1.221 . S
C1399 C445 1.420 . S
C1403 C9 1.410 . S
C1417 C379 1.423 . S
C1421 C31 1.417 . S
C1435 C53 1.417 . S
C1439 C401 1.417 . S
C1453 C71 1.415 . S
C1457 C423 1.428 . S
C1471 C515 1.421 . S
C1475 C93 1.410 . S
C1489 C119 1.415 . S
C1493 C471 1.413 . S
C1507 C493 1.419 . S
C1511 C137 1.417 . S
C1525 C159 1.414 . S
C1529 C361 1.419 . S
C1543 C185 1.422 . S
C1547 C335 1.420 . S
C1561 C269 1.419 . S
C1565 C203 1.427 . S
C1579 C225 1.416 . S
C1583 C295 1.419 . S
C1597 C317 1.420 . S
C1601 C251 1.422 . S
C1615 C403 1.423 . S
C1619 C95 1.418 . S
C1633 C425 1.414 . S
C1637 C116 1.420 . S
C1651 C139 1.424 . S
C1655 C447 1.418 . S
C1669 C161 1.422 . S
C1673 C381 1.419 . S
C1687 C490 1.414 . S
C1691 C6 1.421 . S
C1705 C358 1.423 . S
C1709 C28 1.424 . S
C1723 C512 1.423 . S
C1727 C50 1.411 . S
C1741 C73 1.422 . S
C1745 C468 1.427 . S
C1759 C205 1.422 . S
C1763 C314 1.426 . S
C1777 C337 1.421 . S
C1781 C227 1.410 . S
C1795 C271 1.417 . S
C1799 C248 1.412 . S
C1813 C292 1.424 . S
C1817 C182 1.423 . S
