# Generated by pormake.
# Topology cag, (4)-cn, num edge types: 1
# Building blocks:
#     Node 0, Type 0, BuildingBlock: TATPOV_clean_sbu_0, # of connection points: 4
#     Node 1, Type 0, BuildingBlock: TATPOV_clean_sbu_0, # of connection points: 4
#     Node 2, Type 0, BuildingBlock: TATPOV_clean_sbu_0, # of connection points: 4
#     Node 3, Type 0, BuildingBlock: TATPOV_clean_sbu_0, # of connection points: 4
#     Node 4, Type 0, BuildingBlock: TATPOV_clean_sbu_0, # of connection points: 4
#     Node 5, Type 0, BuildingBlock: TATPOV_clean_sbu_0, # of connection points: 4
#     Node 6, Type 0, BuildingBlock: TATPOV_clean_sbu_0, # of connection points: 4
#     Node 7, Type 0, BuildingBlock: TATPOV_clean_sbu_0, # of connection points: 4
#     Node 8, Type 0, BuildingBlock: TATPOV_clean_sbu_0, # of connection points: 4
#     Node 9, Type 0, BuildingBlock: TATPOV_clean_sbu_0, # of connection points: 4
#     Node 10, Type 0, BuildingBlock: TATPOV_clean_sbu_0, # of connection points: 4
#     Node 11, Type 0, BuildingBlock: TATPOV_clean_sbu_0, # of connection points: 4
#     Node 12, Type 0, BuildingBlock: TATPOV_clean_sbu_0, # of connection points: 4
#     Node 13, Type 0, BuildingBlock: TATPOV_clean_sbu_0, # of connection points: 4
#     Node 14, Type 0, BuildingBlock: TATPOV_clean_sbu_0, # of connection points: 4
#     Node 15, Type 0, BuildingBlock: TATPOV_clean_sbu_0, # of connection points: 4
#     Edge 16, Type (0, 0), BuildingBlock: MIFKUJ_clean_linker_0, # of connection points: 2
#     Edge 17, Type (0, 0), BuildingBlock: MIFKUJ_clean_linker_0, # of connection points: 2
#     Edge 18, Type (0, 0), BuildingBlock: MIFKUJ_clean_linker_0, # of connection points: 2
#     Edge 19, Type (0, 0), BuildingBlock: MIFKUJ_clean_linker_0, # of connection points: 2
#     Edge 20, Type (0, 0), BuildingBlock: MIFKUJ_clean_linker_0, # of connection points: 2
#     Edge 21, Type (0, 0), BuildingBlock: MIFKUJ_clean_linker_0, # of connection points: 2
#     Edge 22, Type (0, 0), BuildingBlock: MIFKUJ_clean_linker_0, # of connection points: 2
#     Edge 23, Type (0, 0), BuildingBlock: MIFKUJ_clean_linker_0, # of connection points: 2
#     Edge 24, Type (0, 0), BuildingBlock: MIFKUJ_clean_linker_0, # of connection points: 2
#     Edge 25, Type (0, 0), BuildingBlock: MIFKUJ_clean_linker_0, # of connection points: 2
#     Edge 26, Type (0, 0), BuildingBlock: MIFKUJ_clean_linker_0, # of connection points: 2
#     Edge 27, Type (0, 0), BuildingBlock: MIFKUJ_clean_linker_0, # of connection points: 2
#     Edge 28, Type (0, 0), BuildingBlock: MIFKUJ_clean_linker_0, # of connection points: 2
#     Edge 29, Type (0, 0), BuildingBlock: MIFKUJ_clean_linker_0, # of connection points: 2
#     Edge 30, Type (0, 0), BuildingBlock: MIFKUJ_clean_linker_0, # of connection points: 2
#     Edge 31, Type (0, 0), BuildingBlock: MIFKUJ_clean_linker_0, # of connection points: 2
#     Edge 32, Type (0, 0), BuildingBlock: MIFKUJ_clean_linker_0, # of connection points: 2
#     Edge 33, Type (0, 0), BuildingBlock: MIFKUJ_clean_linker_0, # of connection points: 2
#     Edge 34, Type (0, 0), BuildingBlock: MIFKUJ_clean_linker_0, # of connection points: 2
#     Edge 35, Type (0, 0), BuildingBlock: MIFKUJ_clean_linker_0, # of connection points: 2
#     Edge 36, Type (0, 0), BuildingBlock: MIFKUJ_clean_linker_0, # of connection points: 2
#     Edge 37, Type (0, 0), BuildingBlock: MIFKUJ_clean_linker_0, # of connection points: 2
#     Edge 38, Type (0, 0), BuildingBlock: MIFKUJ_clean_linker_0, # of connection points: 2
#     Edge 39, Type (0, 0), BuildingBlock: MIFKUJ_clean_linker_0, # of connection points: 2
#     Edge 40, Type (0, 0), BuildingBlock: MIFKUJ_clean_linker_0, # of connection points: 2
#     Edge 41, Type (0, 0), BuildingBlock: MIFKUJ_clean_linker_0, # of connection points: 2
#     Edge 42, Type (0, 0), BuildingBlock: MIFKUJ_clean_linker_0, # of connection points: 2
#     Edge 43, Type (0, 0), BuildingBlock: MIFKUJ_clean_linker_0, # of connection points: 2
#     Edge 44, Type (0, 0), BuildingBlock: MIFKUJ_clean_linker_0, # of connection points: 2
#     Edge 45, Type (0, 0), BuildingBlock: MIFKUJ_clean_linker_0, # of connection points: 2
#     Edge 46, Type (0, 0), BuildingBlock: MIFKUJ_clean_linker_0, # of connection points: 2
#     Edge 47, Type (0, 0), BuildingBlock: MIFKUJ_clean_linker_0, # of connection points: 2
# Relax obj value: 0.024
# Max RMSD: 0.072
# Mean RMSD: 0.062
data_MOF--net-cag--node1-TATPOV_clean_sbu_0--edge1-MIFKUJ_clean_linker_0
_symmetry_space_group_name_H-M    P1
_symmetry_Int_Tables_number       1
_symmetry_cell_setting            triclinic
loop_
_symmetry_equiv_pos_as_xyz
'x, y, z'
_cell_length_a     55.800517
_cell_length_b     62.620397
_cell_length_c     55.732139
_cell_angle_alpha  90.010258
_cell_angle_beta   89.976927
_cell_angle_gamma 90.00183
loop_
_atom_site_label
_atom_site_type_symbol
_atom_site_fract_x
_atom_site_fract_y
_atom_site_fract_z
_atom_type_partial_charge
Zn0 Zn 0.30541 0.15151 0.03685 0.0
Zn1 Zn 0.28704 0.14578 0.08047 0.0
O2 O 0.32349 0.15062 0.08549 0.0
O3 O 0.33862 0.15594 0.04954 0.0
O4 O 0.27608 0.14341 0.11524 0.0
O5 O 0.28439 0.17681 0.03157 0.0
O6 O 0.2679 0.1719 0.06705 0.0
C7 C 0.34145 0.15449 0.07199 0.0
C8 C 0.2836 0.10998 0.04286 0.0
O9 O 0.27934 0.11665 0.06412 0.0
O10 O 0.29421 0.12202 0.02801 0.0
C11 C 0.2609 0.13039 0.12399 0.0
O12 O 0.25003 0.11682 0.10968 0.0
C13 C 0.26942 0.18238 0.04743 0.0
Zn14 Zn 0.20622 0.85763 0.53453 0.0
Zn15 Zn 0.2178 0.85982 0.58118 0.0
O16 O 0.1814 0.85412 0.58113 0.0
O17 O 0.17142 0.85316 0.54292 0.0
O18 O 0.22493 0.8608 0.61703 0.0
O19 O 0.22881 0.83319 0.53015 0.0
O20 O 0.23835 0.83441 0.56854 0.0
C21 C 0.16553 0.85214 0.56483 0.0
C22 C 0.22635 0.89806 0.54688 0.0
O23 O 0.2269 0.89004 0.56797 0.0
O24 O 0.21859 0.88714 0.52944 0.0
C25 C 0.24122 0.87203 0.62683 0.0
O26 O 0.2551 0.88392 0.61326 0.0
C27 C 0.24071 0.8261 0.54775 0.0
Zn28 Zn 0.30634 0.84889 0.97303 0.0
Zn29 Zn 0.28616 0.85548 0.93076 0.0
O30 O 0.32207 0.84932 0.92353 0.0
O31 O 0.3383 0.84226 0.9586 0.0
O32 O 0.27289 0.85923 0.89697 0.0
O33 O 0.28378 0.82505 0.98001 0.0
O34 O 0.26672 0.82972 0.9448 0.0
C35 C 0.34026 0.8441 0.93609 0.0
C36 C 0.28685 0.89123 0.96876 0.0
O37 O 0.28044 0.88465 0.94801 0.0
O38 O 0.29825 0.8789 0.98266 0.0
C39 C 0.28381 0.87146 0.88234 0.0
O40 O 0.3025 0.88225 0.89001 0.0
C41 C 0.26823 0.81962 0.96468 0.0
Zn42 Zn 0.18771 0.15373 0.46834 0.0
Zn43 Zn 0.20846 0.14632 0.42655 0.0
O44 O 0.17222 0.15068 0.4192 0.0
O45 O 0.15531 0.15781 0.45396 0.0
O46 O 0.22187 0.14219 0.39285 0.0
O47 O 0.2084 0.17901 0.47395 0.0
O48 O 0.22709 0.17284 0.43987 0.0
C49 C 0.15364 0.15525 0.43153 0.0
C50 C 0.21054 0.11253 0.46644 0.0
O51 O 0.21583 0.11818 0.44505 0.0
O52 O 0.19859 0.12494 0.47981 0.0
C53 C 0.21145 0.12937 0.37849 0.0
O54 O 0.1932 0.11813 0.38639 0.0
C55 C 0.22452 0.1839 0.45898 0.0
Zn56 Zn 0.61832 0.9007 0.8488 0.0
Zn57 Zn 0.63545 0.8726 0.88197 0.0
O58 O 0.60005 0.86403 0.8782 0.0
O59 O 0.58589 0.88641 0.85122 0.0
O60 O 0.64861 0.85174 0.9062 0.0
O61 O 0.64295 0.88964 0.8251 0.0
O62 O 0.65727 0.86797 0.85273 0.0
C63 C 0.58268 0.87095 0.86553 0.0
C64 C 0.63575 0.92066 0.89243 0.0
O65 O 0.64006 0.90142 0.89843 0.0
O66 O 0.6266 0.92474 0.87211 0.0
C67 C 0.63729 0.84604 0.92495 0.0
O68 O 0.61575 0.85375 0.92893 0.0
C69 C 0.65798 0.87561 0.83156 0.0
Zn70 Zn 0.8746 0.08523 0.35888 0.0
Zn71 Zn 0.85765 0.11874 0.38441 0.0
O72 O 0.8935 0.1254 0.38064 0.0
O73 O 0.90735 0.09913 0.35833 0.0
O74 O 0.8453 0.14357 0.40386 0.0
O75 O 0.85037 0.09189 0.33305 0.0
O76 O 0.83788 0.12004 0.35319 0.0
C77 C 0.91082 0.11638 0.3697 0.0
C78 C 0.8554 0.07316 0.40489 0.0
O79 O 0.85076 0.09304 0.40627 0.0
O80 O 0.86582 0.06573 0.38649 0.0
C81 C 0.85308 0.14707 0.42496 0.0
O82 O 0.86949 0.13433 0.43396 0.0
C83 C 0.83684 0.10807 0.33471 0.0
Zn84 Zn 0.62296 0.08917 0.12897 0.0
Zn85 Zn 0.63844 0.12119 0.10077 0.0
O86 O 0.60333 0.12951 0.10715 0.0
O87 O 0.59139 0.10472 0.13253 0.0
O88 O 0.6513 0.14472 0.07968 0.0
O89 O 0.64998 0.09476 0.15206 0.0
O90 O 0.66087 0.12245 0.13027 0.0
C91 C 0.58715 0.12151 0.12058 0.0
C92 C 0.63655 0.07501 0.08187 0.0
O93 O 0.64197 0.09465 0.07927 0.0
O94 O 0.62768 0.06853 0.10148 0.0
C95 C 0.64098 0.15072 0.06049 0.0
O96 O 0.62067 0.14169 0.0542 0.0
C97 C 0.66359 0.11066 0.14872 0.0
Zn98 Zn 0.88065 0.90843 0.64077 0.0
Zn99 Zn 0.86481 0.87839 0.60983 0.0
O100 O 0.90099 0.87183 0.61213 0.0
O101 O 0.91432 0.89788 0.63514 0.0
O102 O 0.85178 0.85587 0.58748 0.0
O103 O 0.86024 0.89554 0.66709 0.0
O104 O 0.845 0.87337 0.64045 0.0
C105 C 0.91829 0.88153 0.62235 0.0
C106 C 0.85869 0.92604 0.59833 0.0
O107 O 0.85711 0.90642 0.59245 0.0
O108 O 0.86732 0.93119 0.61856 0.0
C109 C 0.86237 0.84906 0.56877 0.0
O110 O 0.8835 0.85681 0.56307 0.0
C111 C 0.84562 0.88084 0.66171 0.0
Zn112 Zn 0.80099 0.65071 0.03175 0.0
Zn113 Zn 0.78249 0.64612 0.07578 0.0
O114 O 0.81908 0.64919 0.08098 0.0
O115 O 0.83438 0.65311 0.04485 0.0
O116 O 0.77053 0.64413 0.11018 0.0
O117 O 0.78174 0.67725 0.02677 0.0
O118 O 0.76499 0.67295 0.06224 0.0
C119 C 0.83719 0.65186 0.06733 0.0
C120 C 0.77609 0.61066 0.03815 0.0
O121 O 0.77288 0.61757 0.05947 0.0
O122 O 0.78723 0.62198 0.02297 0.0
C123 C 0.77298 0.62726 0.12267 0.0
O124 O 0.78246 0.61024 0.11267 0.0
C125 C 0.7671 0.6834 0.04268 0.0
Zn126 Zn 0.69324 0.35104 0.52897 0.0
Zn127 Zn 0.71304 0.3545 0.57222 0.0
O128 O 0.6768 0.34968 0.57866 0.0
O129 O 0.66066 0.34581 0.54289 0.0
O130 O 0.72654 0.35612 0.60613 0.0
O131 O 0.7142 0.32633 0.52113 0.0
O132 O 0.73137 0.32886 0.55656 0.0
C133 C 0.6585 0.34633 0.56547 0.0
C134 C 0.71586 0.39177 0.53628 0.0
O135 O 0.72057 0.38405 0.55697 0.0
O136 O 0.70437 0.38075 0.52111 0.0
C137 C 0.7156 0.36685 0.62216 0.0
O138 O 0.69622 0.37749 0.61612 0.0
C139 C 0.72949 0.31973 0.53613 0.0
Zn140 Zn 0.79864 0.35698 0.96791 0.0
Zn141 Zn 0.78331 0.36063 0.92304 0.0
O142 O 0.82026 0.35806 0.92007 0.0
O143 O 0.83302 0.35818 0.95744 0.0
O144 O 0.77256 0.36319 0.88817 0.0
O145 O 0.78206 0.32883 0.97114 0.0
O146 O 0.76604 0.3332 0.93538 0.0
C147 C 0.83743 0.35787 0.93518 0.0
C148 C 0.77232 0.39548 0.96078 0.0
O149 O 0.77226 0.38913 0.93899 0.0
O150 O 0.78156 0.38395 0.97696 0.0
C151 C 0.78311 0.35245 0.87189 0.0
O152 O 0.80055 0.33946 0.87805 0.0
C153 C 0.76823 0.32238 0.95468 0.0
Zn154 Zn 0.696 0.6486 0.46795 0.0
Zn155 Zn 0.71384 0.64431 0.42421 0.0
O156 O 0.67719 0.64786 0.41911 0.0
O157 O 0.66249 0.65114 0.45556 0.0
O158 O 0.72568 0.64271 0.38972 0.0
O159 O 0.71491 0.67499 0.4736 0.0
O160 O 0.732 0.6708 0.4383 0.0
C161 C 0.65932 0.65037 0.43311 0.0
C162 C 0.72017 0.6085 0.46142 0.0
O163 O 0.72286 0.61527 0.43997 0.0
O164 O 0.70974 0.62004 0.47689 0.0
C165 C 0.72483 0.62568 0.37729 0.0
O166 O 0.71704 0.60801 0.38733 0.0
C167 C 0.72982 0.68112 0.45797 0.0
Zn168 Zn 0.12564 0.41159 0.86793 0.0
Zn169 Zn 0.13815 0.37746 0.89434 0.0
O170 O 0.102 0.37246 0.88957 0.0
O171 O 0.09127 0.40145 0.86991 0.0
O172 O 0.14931 0.35295 0.91499 0.0
O173 O 0.14731 0.40161 0.84134 0.0
O174 O 0.15888 0.37454 0.86369 0.0
C175 C 0.0858 0.38394 0.87989 0.0
C176 C 0.14543 0.42346 0.91313 0.0
O177 O 0.14565 0.40327 0.91599 0.0
O178 O 0.13847 0.43141 0.89344 0.0
C179 C 0.13834 0.34718 0.93393 0.0
O180 O 0.1183 0.35684 0.9399 0.0
C181 C 0.16023 0.38518 0.84422 0.0
Zn182 Zn 0.37448 0.59318 0.36211 0.0
Zn183 Zn 0.36019 0.62416 0.39396 0.0
O184 O 0.3959 0.63047 0.38843 0.0
O185 O 0.40798 0.60563 0.36315 0.0
O186 O 0.35004 0.64735 0.41734 0.0
O187 O 0.3505 0.60501 0.33837 0.0
O188 O 0.33788 0.62857 0.36494 0.0
C189 C 0.41248 0.62181 0.37605 0.0
C190 C 0.35713 0.57643 0.40719 0.0
O191 O 0.35493 0.59619 0.41206 0.0
O192 O 0.36461 0.57065 0.38671 0.0
C193 C 0.33824 0.64385 0.4365 0.0
O194 O 0.33172 0.62425 0.44172 0.0
C195 C 0.33653 0.6201 0.34418 0.0
Zn196 Zn 0.11954 0.59206 0.14648 0.0
Zn197 Zn 0.13575 0.62279 0.11613 0.0
O198 O 0.09953 0.62909 0.11845 0.0
O199 O 0.08622 0.60417 0.14299 0.0
O200 O 0.1486 0.64562 0.09398 0.0
O201 O 0.141 0.60369 0.17252 0.0
O202 O 0.15547 0.62734 0.14704 0.0
C203 C 0.08232 0.62025 0.12978 0.0
C204 C 0.14093 0.57535 0.10306 0.0
O205 O 0.14342 0.5951 0.09822 0.0
O206 O 0.13155 0.56968 0.12279 0.0
C207 C 0.13856 0.65091 0.07436 0.0
O208 O 0.11856 0.64142 0.06799 0.0
C209 C 0.1552 0.6189 0.16785 0.0
Zn210 Zn 0.3779 0.40846 0.64222 0.0
Zn211 Zn 0.36164 0.37618 0.6143 0.0
O212 O 0.39734 0.36918 0.61805 0.0
O213 O 0.411 0.39506 0.64105 0.0
O214 O 0.34901 0.35239 0.59353 0.0
O215 O 0.35442 0.39986 0.66798 0.0
O216 O 0.3412 0.37375 0.6451 0.0
C217 C 0.41462 0.37813 0.62912 0.0
C218 C 0.35881 0.42266 0.59685 0.0
O219 O 0.3556 0.40272 0.59364 0.0
O220 O 0.36775 0.4294 0.61633 0.0
C221 C 0.35849 0.34761 0.57347 0.0
O222 O 0.37739 0.35827 0.56611 0.0
C223 C 0.34042 0.38421 0.66472 0.0
H224 H 0.22679 0.19394 0.06907 0.0
H225 H 0.2006 0.22399 0.05782 0.0
H226 H 0.25146 0.24297 0.00355 0.0
H227 H 0.27738 0.21341 0.01454 0.0
H228 H 0.23414 0.27729 0.02814 0.0
H229 H 0.2032 0.21292 0.9893 0.0
H230 H 0.18612 0.17658 0.98954 0.0
H231 H 0.12684 0.19857 0.03206 0.0
H232 H 0.14377 0.23501 0.0323 0.0
H233 H 0.18258 0.32887 0.93043 0.0
H234 H 0.20082 0.30294 0.95748 0.0
H235 H 0.1366 0.3021 1.00053 0.0
H236 H 0.11809 0.32826 0.97347 0.0
H237 H 0.15519 0.26119 0.99139 0.0
H238 H 0.18236 0.32737 0.02258 0.0
H239 H 0.19928 0.36372 0.02123 0.0
H240 H 0.26542 0.33885 0.99347 0.0
H241 H 0.24878 0.30237 0.99429 0.0
C242 C 0.23242 0.2047 0.05494 0.0
C243 C 0.25405 0.20118 0.04256 0.0
C244 C 0.21745 0.22179 0.04849 0.0
C245 C 0.22405 0.23565 0.02975 0.0
C246 C 0.24602 0.23254 0.01808 0.0
C247 C 0.26076 0.2155 0.02431 0.0
C248 C 0.20795 0.25285 0.02103 0.0
C249 C 0.21683 0.27381 0.02019 0.0
C250 C 0.18505 0.24843 0.01129 0.0
C251 C 0.17489 0.22658 0.01109 0.0
C252 C 0.18663 0.20995 0.99886 0.0
C253 C 0.17696 0.18936 0.99888 0.0
C254 C 0.15545 0.18525 0.01088 0.0
C255 C 0.14353 0.20176 0.02282 0.0
C256 C 0.15315 0.22238 0.02289 0.0
C257 C 0.17225 0.32317 0.94559 0.0
C258 C 0.1489 0.33071 0.94982 0.0
C259 C 0.18276 0.30841 0.96111 0.0
C260 C 0.17018 0.30083 0.98118 0.0
C261 C 0.14665 0.30787 0.9852 0.0
C262 C 0.13614 0.32282 0.96974 0.0
C263 C 0.18186 0.28542 0.99767 0.0
C264 C 0.17216 0.26484 0.99995 0.0
C265 C 0.20403 0.2902 0.00876 0.0
C266 C 0.21425 0.31211 0.00839 0.0
C267 C 0.20046 0.32965 0.01603 0.0
C268 C 0.21001 0.35029 0.01538 0.0
C269 C 0.2334 0.35359 0.00724 0.0
C270 C 0.2473 0.33626 0.99978 0.0
C271 C 0.23783 0.31559 1.00037 0.0
H272 H 0.24075 0.36958 0.00675 0.0
H273 H 0.14799 0.1693 0.01086 0.0
H274 H 0.34449 0.68668 0.429 0.0
H275 H 0.33264 0.716 0.45529 0.0
H276 H 0.30593 0.67081 0.50727 0.0
H277 H 0.31719 0.64137 0.48075 0.0
H278 H 0.27476 0.70118 0.50168 0.0
H279 H 0.35809 0.69984 0.51741 0.0
H280 H 0.40132 0.69876 0.50842 0.0
H281 H 0.39622 0.75926 0.47254 0.0
H282 H 0.35287 0.76057 0.481 0.0
H283 H 0.24922 0.79155 0.57679 0.0
H284 H 0.27099 0.75878 0.5656 0.0
H285 H 0.29031 0.78732 0.49787 0.0
H286 H 0.26828 0.81961 0.50865 0.0
H287 H 0.32793 0.76257 0.52001 0.0
H288 H 0.24294 0.75881 0.49853 0.0
H289 H 0.19983 0.75951 0.50828 0.0
H290 H 0.20945 0.7074 0.55743 0.0
H291 H 0.25273 0.70662 0.54819 0.0
C292 C 0.33622 0.68295 0.44608 0.0
C293 C 0.33177 0.66167 0.45275 0.0
C294 C 0.32961 0.69975 0.46121 0.0
C295 C 0.31873 0.69564 0.48348 0.0
C296 C 0.31438 0.67439 0.49024 0.0
C297 C 0.32083 0.65758 0.47503 0.0
C298 C 0.31072 0.71361 0.49899 0.0
C299 C 0.2866 0.71432 0.50618 0.0
C300 C 0.32605 0.73088 0.50484 0.0
C301 C 0.35216 0.73023 0.49972 0.0
C302 C 0.36614 0.71285 0.50745 0.0
C303 C 0.39068 0.71221 0.50247 0.0
C304 C 0.40151 0.72892 0.48988 0.0
C305 C 0.38781 0.74633 0.48228 0.0
C306 C 0.36325 0.74704 0.4872 0.0
C307 C 0.25861 0.79092 0.55979 0.0
C308 C 0.257 0.80796 0.54349 0.0
C309 C 0.27094 0.77225 0.5534 0.0
C310 C 0.28215 0.77066 0.53087 0.0
C311 C 0.28185 0.78826 0.51535 0.0
C312 C 0.26918 0.80663 0.52148 0.0
C313 C 0.29204 0.75018 0.52204 0.0
C314 C 0.31641 0.74907 0.51603 0.0
C315 C 0.27706 0.73243 0.51749 0.0
C316 C 0.25108 0.73285 0.52293 0.0
C317 C 0.23589 0.74764 0.51158 0.0
C318 C 0.21142 0.74802 0.51698 0.0
C319 C 0.20192 0.73356 0.53353 0.0
C320 C 0.21685 0.71863 0.54466 0.0
C321 C 0.24134 0.71821 0.53936 0.0
H322 H 0.18297 0.73387 0.53768 0.0
H323 H 0.42051 0.72839 0.48604 0.0
H324 H 0.27264 0.79222 0.0021 0.0
H325 H 0.24741 0.76212 0.0125 0.0
H326 H 0.2026 0.77454 0.95105 0.0
H327 H 0.22813 0.80523 0.94028 0.0
H328 H 0.17676 0.76659 0.99432 0.0
H329 H 0.23688 0.7327 0.94787 0.0
H330 H 0.27783 0.72484 0.93382 0.0
H331 H 0.29668 0.70183 0.00388 0.0
H332 H 0.25595 0.70985 0.01848 0.0
H333 H 0.12082 0.66792 0.03258 0.0
H334 H 0.13957 0.69496 0.00688 0.0
H335 H 0.19988 0.69809 0.05513 0.0
H336 H 0.18144 0.67113 0.08074 0.0
H337 H 0.21396 0.6957 0.00836 0.0
H338 H 0.15638 0.73603 0.05578 0.0
H339 H 0.1158 0.7447 0.0704 0.0
H340 H 0.09234 0.75561 0.99806 0.0
H341 H 0.13274 0.74673 0.98299 0.0
C342 C 0.25748 0.78868 0.99064 0.0
C343 C 0.25246 0.80119 0.97029 0.0
C344 C 0.24311 0.77132 0.9966 0.0
C345 C 0.22332 0.76591 0.9824 0.0
C346 C 0.21791 0.77841 0.96216 0.0
C347 C 0.23252 0.79587 0.95602 0.0
C348 C 0.20839 0.74735 0.98953 0.0
C349 C 0.18464 0.7509 0.99678 0.0
C350 C 0.2188 0.72697 0.99299 0.0
C351 C 0.24334 0.72196 0.98429 0.0
C352 C 0.24979 0.72608 0.96033 0.0
C353 C 0.27297 0.72158 0.95226 0.0
C354 C 0.28985 0.71285 0.96795 0.0
C355 C 0.28358 0.70858 0.99174 0.0
C356 C 0.26043 0.71306 0.99991 0.0
C357 C 0.13808 0.67437 0.03771 0.0
C358 C 0.14961 0.66737 0.05875 0.0
C359 C 0.14873 0.68986 0.02302 0.0
C360 C 0.17109 0.69859 0.02913 0.0
C361 C 0.18266 0.69152 0.05002 0.0
C362 C 0.17202 0.67615 0.06472 0.0
C363 C 0.18268 0.71517 0.01402 0.0
C364 C 0.20584 0.7112 0.00529 0.0
C365 C 0.1717 0.7351 0.00918 0.0
C366 C 0.14747 0.74045 0.01825 0.0
C367 C 0.14251 0.74009 0.04298 0.0
C368 C 0.11956 0.74508 0.05135 0.0
C369 C 0.10148 0.75063 0.03516 0.0
C370 C 0.10634 0.75126 0.01057 0.0
C371 C 0.12926 0.74626 0.00211 0.0
H372 H 0.08373 0.75449 0.04167 0.0
H373 H 0.30779 0.70939 0.96167 0.0
H374 H 0.31746 0.32512 0.58179 0.0
H375 H 0.30028 0.29663 0.55752 0.0
H376 H 0.35867 0.30218 0.50715 0.0
H377 H 0.37584 0.33118 0.53122 0.0
H378 H 0.31639 0.29731 0.48397 0.0
H379 H 0.35771 0.2607 0.54596 0.0
H380 H 0.37047 0.25268 0.58734 0.0
H381 H 0.29779 0.23821 0.60675 0.0
H382 H 0.28452 0.24644 0.56557 0.0
H383 H 0.26723 0.19559 0.43735 0.0
H384 H 0.29557 0.22304 0.45156 0.0
H385 H 0.24664 0.23971 0.50846 0.0
H386 H 0.21855 0.21289 0.49457 0.0
H387 H 0.29332 0.22966 0.52411 0.0
H388 H 0.2524 0.27194 0.46279 0.0
H389 H 0.2404 0.2798 0.42113 0.0
H390 H 0.31435 0.28223 0.39993 0.0
H391 H 0.32676 0.27409 0.44145 0.0
C392 C 0.32672 0.32031 0.56559 0.0
C393 C 0.34813 0.33033 0.55856 0.0
C394 C 0.31691 0.30395 0.55175 0.0
C395 C 0.32842 0.297 0.53073 0.0
C396 C 0.34956 0.30721 0.52336 0.0
C397 C 0.35937 0.32373 0.53719 0.0
C398 C 0.3181 0.27904 0.51672 0.0
C399 C 0.3118 0.28233 0.49259 0.0
C400 C 0.3122 0.25944 0.52789 0.0
C401 C 0.32011 0.25429 0.55268 0.0
C402 C 0.34442 0.25592 0.55908 0.0
C403 C 0.35175 0.25133 0.58251 0.0
C404 C 0.33495 0.24496 0.59967 0.0
C405 C 0.31078 0.24314 0.59343 0.0
C406 C 0.30335 0.24773 0.57004 0.0
C407 C 0.26243 0.20536 0.45265 0.0
C408 C 0.24076 0.20186 0.46498 0.0
C409 C 0.27862 0.22097 0.46075 0.0
C410 C 0.27324 0.2332 0.48122 0.0
C411 C 0.25123 0.23028 0.49281 0.0
C412 C 0.23517 0.2149 0.48477 0.0
C413 C 0.29063 0.24836 0.49183 0.0
C414 C 0.2984 0.24446 0.51535 0.0
C415 C 0.298 0.26723 0.48001 0.0
C416 C 0.29049 0.27212 0.45512 0.0
C417 C 0.26609 0.27393 0.44919 0.0
C418 C 0.25922 0.27849 0.42563 0.0
C419 C 0.2766 0.28143 0.40788 0.0
C420 C 0.3009 0.27989 0.41368 0.0
C421 C 0.30786 0.27532 0.43723 0.0
H422 H 0.27125 0.28497 0.38964 0.0
H423 H 0.34065 0.24142 0.61779 0.0
H424 H 0.72463 0.69573 0.06386 0.0
H425 H 0.69913 0.72608 0.05218 0.0
H426 H 0.75116 0.74442 0.99876 0.0
H427 H 0.77644 0.71449 0.01018 0.0
H428 H 0.73341 0.77902 0.02287 0.0
H429 H 0.70326 0.71465 0.9836 0.0
H430 H 0.68622 0.67829 0.98349 0.0
H431 H 0.62607 0.70022 0.02479 0.0
H432 H 0.64294 0.73667 0.02538 0.0
H433 H 0.683 0.83054 0.92424 0.0
H434 H 0.70151 0.8057 0.95234 0.0
H435 H 0.63572 0.80252 0.99282 0.0
H436 H 0.6169 0.82745 0.9646 0.0
H437 H 0.6551 0.76285 0.98484 0.0
H438 H 0.68167 0.82908 0.0163 0.0
H439 H 0.69867 0.8654 0.0154 0.0
H440 H 0.76538 0.8405 0.98907 0.0
H441 H 0.74868 0.80405 0.98945 0.0
C442 C 0.7307 0.70644 0.04986 0.0
C443 C 0.75243 0.70261 0.03779 0.0
C444 C 0.71612 0.72369 0.04317 0.0
C445 C 0.72321 0.73741 0.02449 0.0
C446 C 0.74535 0.73408 0.01323 0.0
C447 C 0.75972 0.71685 0.0197 0.0
C448 C 0.70735 0.75459 0.01534 0.0
C449 C 0.71625 0.77553 0.01461 0.0
C450 C 0.68463 0.75014 0.00522 0.0
C451 C 0.6745 0.72828 0.00482 0.0
C452 C 0.6865 0.71166 0.99283 0.0
C453 C 0.67686 0.69106 0.99265 0.0
C454 C 0.65512 0.68693 0.00421 0.0
C455 C 0.64294 0.70343 0.01591 0.0
C456 C 0.65253 0.72406 0.01617 0.0
C457 C 0.67243 0.82464 0.93913 0.0
C458 C 0.64847 0.83102 0.94218 0.0
C459 C 0.6831 0.81052 0.95528 0.0
C460 C 0.6701 0.80249 0.97487 0.0
C461 C 0.6461 0.80864 0.9779 0.0
C462 C 0.63541 0.8229 0.96178 0.0
C463 C 0.68163 0.78713 0.99154 0.0
C464 C 0.67192 0.76654 0.99367 0.0
C465 C 0.70363 0.79191 0.00297 0.0
C466 C 0.71385 0.81381 0.00279 0.0
C467 C 0.69992 0.83135 0.01016 0.0
C468 C 0.70951 0.85197 0.00976 0.0
C469 C 0.73308 0.85526 0.00215 0.0
C470 C 0.74712 0.83793 0.99496 0.0
C471 C 0.73761 0.81727 0.9953 0.0
H472 H 0.74048 0.87124 0.00186 0.0
H473 H 0.64768 0.67097 0.00404 0.0
H474 H 0.86586 0.15916 0.47049 0.0
H475 H 0.84997 0.18907 0.49393 0.0
H476 H 0.8029 0.20554 0.4354 0.0
H477 H 0.81885 0.17597 0.4118 0.0
H478 H 0.82456 0.24029 0.45319 0.0
H479 H 0.78297 0.17852 0.48553 0.0
H480 H 0.7807 0.14321 0.505 0.0
H481 H 0.81806 0.16776 0.56644 0.0
H482 H 0.82081 0.20317 0.54718 0.0
H483 H 0.72752 0.29698 0.49472 0.0
H484 H 0.7539 0.26868 0.48127 0.0
H485 H 0.79376 0.27267 0.54737 0.0
H486 H 0.76702 0.30145 0.56131 0.0
H487 H 0.78362 0.22977 0.53138 0.0
H488 H 0.8192 0.2933 0.50096 0.0
H489 H 0.81988 0.3286 0.4814 0.0
H490 H 0.79333 0.30078 0.4162 0.0
H491 H 0.79214 0.26536 0.43547 0.0
C492 C 0.85213 0.16917 0.4626 0.0
C493 C 0.8436 0.16515 0.43926 0.0
C494 C 0.84302 0.18621 0.47607 0.0
C495 C 0.82513 0.19946 0.46649 0.0
C496 C 0.81674 0.19555 0.44315 0.0
C497 C 0.82583 0.17858 0.42969 0.0
C498 C 0.815 0.21751 0.4805 0.0
C499 C 0.81557 0.23797 0.47026 0.0
C500 C 0.80406 0.21466 0.50323 0.0
C501 C 0.80236 0.1934 0.5148 0.0
C502 C 0.79088 0.17633 0.50311 0.0
C503 C 0.78947 0.15632 0.51412 0.0
C504 C 0.79931 0.15322 0.53691 0.0
C505 C 0.8105 0.17017 0.54877 0.0
C506 C 0.81198 0.19021 0.53782 0.0
C507 C 0.74181 0.29195 0.50658 0.0
C508 C 0.74525 0.3017 0.52907 0.0
C509 C 0.75694 0.27573 0.49877 0.0
C510 C 0.77601 0.26883 0.51313 0.0
C511 C 0.77919 0.27791 0.53597 0.0
C512 C 0.76396 0.29434 0.54387 0.0
C513 C 0.79246 0.25229 0.50358 0.0
C514 C 0.79312 0.23217 0.5146 0.0
C515 C 0.80455 0.2554 0.48152 0.0
C516 C 0.80549 0.27666 0.46972 0.0
C517 C 0.81337 0.29472 0.4825 0.0
C518 C 0.81386 0.31476 0.47145 0.0
C519 C 0.80663 0.31694 0.44758 0.0
C520 C 0.79894 0.29907 0.43469 0.0
C521 C 0.79839 0.279 0.44565 0.0
H522 H 0.80701 0.33246 0.43906 0.0
H523 H 0.7982 0.13771 0.54541 0.0
H524 H 0.72794 0.30802 0.93096 0.0
H525 H 0.70371 0.27642 0.94104 0.0
H526 H 0.75334 0.26058 0.99764 0.0
H527 H 0.77741 0.29169 0.98775 0.0
H528 H 0.73968 0.22532 0.97297 0.0
H529 H 0.70209 0.28776 0.00941 0.0
H530 H 0.68255 0.32308 0.00816 0.0
H531 H 0.62729 0.29789 0.96262 0.0
H532 H 0.64671 0.26246 0.96337 0.0
H533 H 0.68471 0.16958 0.06629 0.0
H534 H 0.7036 0.1963 0.04071 0.0
H535 H 0.64187 0.19611 0.99417 0.0
H536 H 0.62267 0.16928 0.01983 0.0
H537 H 0.6575 0.23685 0.00445 0.0
H538 H 0.6915 0.17243 0.97506 0.0
H539 H 0.71098 0.13716 0.97748 0.0
H540 H 0.77301 0.16573 0.00982 0.0
H541 H 0.75377 0.20114 0.00793 0.0
C542 C 0.73378 0.29761 0.94533 0.0
C543 C 0.75447 0.30246 0.95869 0.0
C544 C 0.71991 0.27964 0.95112 0.0
C545 C 0.72665 0.26624 0.97022 0.0
C546 C 0.7478 0.27065 0.98283 0.0
C547 C 0.76148 0.28856 0.97721 0.0
C548 C 0.71139 0.24821 0.9783 0.0
C549 C 0.72169 0.22781 0.97981 0.0
C550 C 0.68766 0.25132 0.98659 0.0
C551 C 0.676 0.27257 0.98618 0.0
C552 C 0.68588 0.28981 0.99897 0.0
C553 C 0.67482 0.30983 0.99838 0.0
C554 C 0.65374 0.31275 0.98525 0.0
C555 C 0.64365 0.29562 0.97273 0.0
C556 C 0.65467 0.27557 0.97323 0.0
C557 C 0.67509 0.17517 0.05063 0.0
C558 C 0.65219 0.16723 0.04508 0.0
C559 C 0.68599 0.19038 0.03593 0.0
C560 C 0.67428 0.19797 0.01534 0.0
C561 C 0.65126 0.19037 0.00991 0.0
C562 C 0.64035 0.17503 0.02458 0.0
C563 C 0.68616 0.21416 0.99994 0.0
C564 C 0.67523 0.23418 0.99705 0.0
C565 C 0.70935 0.21071 0.99041 0.0
C566 C 0.72111 0.18945 0.99146 0.0
C567 C 0.70923 0.17118 0.98284 0.0
C568 C 0.72024 0.15116 0.9841 0.0
C569 C 0.7432 0.1492 0.99383 0.0
C570 C 0.75522 0.16727 0.00228 0.0
C571 C 0.74428 0.18733 1.00109 0.0
H572 H 0.7517 0.13369 0.99479 0.0
H573 H 0.64519 0.32826 0.98482 0.0
H574 H 0.81741 0.83255 0.57353 0.0
H575 H 0.79899 0.80404 0.55022 0.0
H576 H 0.86292 0.79864 0.50713 0.0
H577 H 0.88149 0.82762 0.53023 0.0
H578 H 0.82192 0.7954 0.47972 0.0
H579 H 0.85329 0.76263 0.55037 0.0
H580 H 0.86055 0.75864 0.59378 0.0
H581 H 0.78496 0.75193 0.60611 0.0
H582 H 0.77722 0.75615 0.5628 0.0
H583 H 0.77332 0.69287 0.43826 0.0
H584 H 0.79993 0.7216 0.45248 0.0
H585 H 0.74665 0.74023 0.50454 0.0
H586 H 0.72043 0.71183 0.49079 0.0
H587 H 0.78963 0.73363 0.52512 0.0
H588 H 0.75828 0.77033 0.455 0.0
H589 H 0.75097 0.77475 0.41165 0.0
H590 H 0.82675 0.77356 0.39826 0.0
H591 H 0.83449 0.76886 0.44154 0.0
C592 C 0.8276 0.82539 0.55907 0.0
C593 C 0.85103 0.83224 0.55391 0.0
C594 C 0.81704 0.80904 0.54577 0.0
C595 C 0.82973 0.79896 0.5272 0.0
C596 C 0.85286 0.80615 0.52146 0.0
C597 C 0.86345 0.82265 0.53473 0.0
C598 C 0.81884 0.78054 0.51446 0.0
C599 C 0.81523 0.78168 0.48954 0.0
C600 C 0.81008 0.76267 0.52728 0.0
C601 C 0.81468 0.75982 0.55333 0.0
C602 C 0.83821 0.76041 0.56235 0.0
C603 C 0.84241 0.7581 0.58694 0.0
C604 C 0.82322 0.75506 0.6027 0.0
C605 C 0.7998 0.75427 0.59389 0.0
C606 C 0.7955 0.75659 0.56931 0.0
C607 C 0.76721 0.70335 0.45246 0.0
C608 C 0.74491 0.69992 0.4636 0.0
C609 C 0.78241 0.71972 0.46057 0.0
C610 C 0.77534 0.73293 0.47973 0.0
C611 C 0.75261 0.73009 0.48994 0.0
C612 C 0.73761 0.71382 0.48201 0.0
C613 C 0.79175 0.74891 0.49055 0.0
C614 C 0.79659 0.74719 0.51518 0.0
C615 C 0.80161 0.76614 0.47743 0.0
C616 C 0.79695 0.76897 0.45145 0.0
C617 C 0.77337 0.77081 0.44279 0.0
C618 C 0.76916 0.77342 0.41823 0.0
C619 C 0.78838 0.77436 0.4022 0.0
C620 C 0.81187 0.77278 0.41069 0.0
C621 C 0.81619 0.77015 0.43523 0.0
H622 H 0.78508 0.77638 0.3832 0.0
H623 H 0.82651 0.75329 0.62173 0.0
H624 H 0.26415 0.07735 0.06995 0.0
H625 H 0.25935 0.0398 0.0579 0.0
H626 H 0.28536 0.05504 0.98713 0.0
H627 H 0.29002 0.09225 0.99872 0.0
H628 H 0.23463 0.01806 0.01662 0.0
H629 H 0.32932 0.01785 0.97626 0.0
H630 H 0.36779 0.03687 0.98088 0.0
H631 H 0.35156 0.04935 0.05489 0.0
H632 H 0.3132 0.03013 0.05079 0.0
H633 H 0.26068 0.92282 0.94606 0.0
H634 H 0.25501 0.9599 0.95957 0.0
H635 H 0.29672 0.94673 0.02296 0.0
H636 H 0.30233 0.91006 0.00991 0.0
H637 H 0.31213 0.98246 0.99888 0.0
H638 H 0.23853 0.95204 0.02834 0.0
H639 H 0.20015 0.93279 0.02479 0.0
H640 H 0.17431 0.98019 0.97551 0.0
H641 H 0.21269 0.99958 0.97852 0.0
C642 C 0.26844 0.07276 0.05172 0.0
C643 C 0.27774 0.0878 0.03542 0.0
C644 C 0.26559 0.05134 0.04484 0.0
C645 C 0.27217 0.04468 0.02168 0.0
C646 C 0.28029 0.05985 0.00511 0.0
C647 C 0.28301 0.08114 0.01186 0.0
C648 C 0.27297 0.02172 0.01527 0.0
C649 C 0.25153 0.01022 0.01276 0.0
C650 C 0.29505 0.01153 0.01032 0.0
C651 C 0.31829 0.02275 0.01313 0.0
C652 C 0.33403 0.02458 0.99354 0.0
C653 C 0.3558 0.0354 0.99606 0.0
C654 C 0.36208 0.04437 0.01815 0.0
C655 C 0.34664 0.04247 0.03777 0.0
C656 C 0.32486 0.03164 0.03535 0.0
C657 C 0.26847 0.92782 0.96295 0.0
C658 C 0.28204 0.91344 0.97682 0.0
C659 C 0.26515 0.94896 0.97068 0.0
C660 C 0.27546 0.95604 0.99228 0.0
C661 C 0.28866 0.94163 0.00622 0.0
C662 C 0.29181 0.9206 0.99868 0.0
C663 C 0.27377 0.97867 1.00004 0.0
C664 C 0.29515 0.99021 0.00269 0.0
C665 C 0.25166 0.98874 0.00525 0.0
C666 C 0.22858 0.97713 0.00346 0.0
C667 C 0.22475 0.95825 0.01658 0.0
C668 C 0.20298 0.94734 0.0147 0.0
C669 C 0.18483 0.95523 0.99988 0.0
C670 C 0.1884 0.97408 0.98696 0.0
C671 C 0.21015 0.98505 0.98875 0.0
H672 H 0.16798 0.94676 0.99846 0.0
H673 H 0.37893 0.05276 0.02006 0.0
H674 H 0.22774 0.93168 0.57869 0.0
H675 H 0.23197 0.96969 0.56852 0.0
H676 H 0.24392 0.95296 0.49438 0.0
H677 H 0.23993 0.91529 0.50436 0.0
H678 H 0.27132 0.98698 0.50736 0.0
H679 H 0.18836 0.96455 0.51361 0.0
H680 H 0.15343 0.94917 0.53454 0.0
H681 H 0.15869 0.9975 0.58897 0.0
H682 H 0.19387 0.01299 0.56849 0.0
H683 H 0.22791 0.07752 0.442 0.0
H684 H 0.23687 0.04212 0.45864 0.0
H685 H 0.21906 0.06488 0.52952 0.0
H686 H 0.20965 0.09986 0.51309 0.0
H687 H 0.19722 0.02888 0.52156 0.0
H688 H 0.27769 0.05402 0.51242 0.0
H689 H 0.31235 0.06931 0.49101 0.0
H690 H 0.31199 0.01646 0.44191 0.0
H691 H 0.27711 0.00099 0.46284 0.0
C692 C 0.23185 0.93613 0.56036 0.0
C693 C 0.23316 0.92054 0.54227 0.0
C694 C 0.23416 0.95782 0.55454 0.0
C695 C 0.2379 0.96415 0.5306 0.0
C696 C 0.24098 0.94848 0.51293 0.0
C697 C 0.23854 0.92693 0.51867 0.0
C698 C 0.23614 0.98689 0.52325 0.0
C699 C 0.25513 0.99618 0.51041 0.0
C700 C 0.21512 0.99896 0.52748 0.0
C701 C 0.19389 0.98976 0.53969 0.0
C702 C 0.18216 0.97179 0.53014 0.0
C703 C 0.16231 0.96307 0.5419 0.0
C704 C 0.15389 0.97231 0.56311 0.0
C705 C 0.16526 0.99033 0.57256 0.0
C706 C 0.18515 0.99909 0.56089 0.0
C707 C 0.22615 0.075 0.46114 0.0
C708 C 0.21789 0.09147 0.47616 0.0
C709 C 0.23137 0.05479 0.47067 0.0
C710 C 0.22874 0.05084 0.49539 0.0
C711 C 0.22113 0.06747 0.5104 0.0
C712 C 0.21575 0.08751 0.50093 0.0
C713 C 0.23242 0.02913 0.50557 0.0
C714 C 0.21364 0.01993 0.51881 0.0
C715 C 0.25363 0.01721 0.50168 0.0
C716 C 0.27464 0.02644 0.48908 0.0
C717 C 0.28488 0.04574 0.49695 0.0
C718 C 0.30459 0.05442 0.48492 0.0
C719 C 0.31433 0.04389 0.46508 0.0
C720 C 0.30441 0.02461 0.45727 0.0
C721 C 0.28469 0.01587 0.46922 0.0
H722 H 0.32959 0.05064 0.45579 0.0
H723 H 0.13852 0.96554 0.5722 0.0
H724 H 0.66033 0.91864 0.93484 0.0
H725 H 0.66417 0.94665 0.96519 0.0
H726 H 0.62493 0.9901 0.91986 0.0
H727 H 0.62107 0.96226 0.88932 0.0
H728 H 0.68274 0.98919 0.96521 0.0
H729 H 0.58425 0.01488 0.9575 0.0
H730 H 0.54539 0.00025 0.9442 0.0
H731 H 0.56902 0.93688 0.96166 0.0
H732 H 0.60786 0.95117 0.97538 0.0
H733 H 0.65762 0.08213 0.03802 0.0
H734 H 0.66092 0.05699 0.00443 0.0
H735 H 0.62574 0.00853 0.04666 0.0
H736 H 0.62239 0.03335 0.08017 0.0
H737 H 0.60608 0.01267 0.00193 0.0
H738 H 0.68445 0.00557 0.03764 0.0
H739 H 0.72341 0.01874 0.05238 0.0
H740 H 0.74039 0.0423 0.98205 0.0
H741 H 0.70137 0.02951 0.96696 0.0
C742 C 0.65277 0.93423 0.93117 0.0
C743 C 0.64019 0.93816 0.90974 0.0
C744 C 0.65512 0.95024 0.94848 0.0
C745 C 0.6447 0.97035 0.94479 0.0
C746 C 0.63299 0.97462 0.92305 0.0
C747 C 0.63081 0.95869 0.90563 0.0
C748 C 0.6443 0.98619 0.9645 0.0
C749 C 0.66601 0.99446 0.97316 0.0
C750 C 0.62246 0.99283 0.97501 0.0
C751 C 0.59904 0.98408 0.96718 0.0
C752 C 0.58111 0.99784 0.95856 0.0
C753 C 0.55909 0.98961 0.95095 0.0
C754 C 0.55477 0.96764 0.952 0.0
C755 C 0.57242 0.95387 0.96076 0.0
C756 C 0.59445 0.96203 0.96843 0.0
C757 C 0.65072 0.06608 0.04019 0.0
C758 C 0.6397 0.05977 0.06178 0.0
C759 C 0.65267 0.05174 0.02101 0.0
C760 C 0.64358 0.03092 0.0231 0.0
C761 C 0.63281 0.02456 0.04467 0.0
C762 C 0.63098 0.03877 0.06384 0.0
C763 C 0.64453 0.0158 0.00268 0.0
C764 C 0.62285 0.00765 0.99383 0.0
C765 C 0.66641 0.00916 0.99221 0.0
C766 C 0.68989 0.01679 0.00124 0.0
C767 C 0.6964 0.01372 0.02537 0.0
C768 C 0.71851 0.02108 0.03378 0.0
C769 C 0.73434 0.03141 0.01818 0.0
C770 C 0.7281 0.03433 0.99412 0.0
C771 C 0.706 0.02702 0.98563 0.0
H772 H 0.75145 0.03709 0.02472 0.0
H773 H 0.53773 0.9613 0.94607 0.0
H774 H 0.82804 0.08165 0.44474 0.0
H775 H 0.82247 0.05871 0.48002 0.0
H776 H 0.8656 0.00983 0.44681 0.0
H777 H 0.87097 0.03232 0.41148 0.0
H778 H 0.80547 0.01266 0.48449 0.0
H779 H 0.90696 0.99781 0.49129 0.0
H780 H 0.9449 0.01592 0.48105 0.0
H781 H 0.91066 0.07697 0.48855 0.0
H782 H 0.87266 0.05924 0.49921 0.0
H783 H 0.8388 0.92117 0.55368 0.0
H784 H 0.83184 0.94897 0.52366 0.0
H785 H 0.85649 0.99681 0.57355 0.0
H786 H 0.86356 0.96921 0.60365 0.0
H787 H 0.87971 0.99906 0.53111 0.0
H788 H 0.79863 0.99559 0.55805 0.0
H789 H 0.76043 0.97823 0.56871 0.0
H790 H 0.75269 0.95577 0.49633 0.0
H791 H 0.79103 0.97274 0.48531 0.0
C792 C 0.83606 0.0659 0.44482 0.0
C793 C 0.85007 0.05886 0.42535 0.0
C794 C 0.83275 0.05281 0.46492 0.0
C795 C 0.84372 0.03269 0.46595 0.0
C796 C 0.85703 0.02536 0.44628 0.0
C797 C 0.86008 0.03826 0.42612 0.0
C798 C 0.84301 0.01984 0.48816 0.0
C799 C 0.8216 0.00971 0.49483 0.0
C800 C 0.86403 0.01635 0.50173 0.0
C801 C 0.88693 0.02718 0.49581 0.0
C802 C 0.90757 0.0151 0.49086 0.0
C803 C 0.92908 0.0253 0.48497 0.0
C804 C 0.93017 0.04758 0.48408 0.0
C805 C 0.90978 0.05972 0.48916 0.0
C806 C 0.88824 0.0496 0.49509 0.0
C807 C 0.84242 0.93764 0.5584 0.0
C808 C 0.85193 0.94294 0.58102 0.0
C809 C 0.83831 0.95352 0.54126 0.0
C810 C 0.8436 0.97495 0.54642 0.0
C811 C 0.8523 0.98036 0.56923 0.0
C812 C 0.85631 0.96454 0.5864 0.0
C813 C 0.84223 0.99139 0.52735 0.0
C814 C 0.8634 0.00213 0.5211 0.0
C815 C 0.82092 0.99551 0.51437 0.0
C816 C 0.79782 0.98531 0.5209 0.0
C817 C 0.78889 0.98681 0.54445 0.0
C818 C 0.76718 0.97706 0.55055 0.0
C819 C 0.75416 0.96587 0.53322 0.0
C820 C 0.7628 0.96443 0.50974 0.0
C821 C 0.78451 0.97414 0.50355 0.0
H822 H 0.73736 0.95834 0.53798 0.0
H823 H 0.94683 0.05544 0.47949 0.0
H824 H 0.76857 0.43121 0.93242 0.0
H825 H 0.76174 0.46797 0.94618 0.0
H826 H 0.74943 0.44489 0.01805 0.0
H827 H 0.75678 0.40841 0.00462 0.0
H828 H 0.72705 0.4913 0.96898 0.0
H829 H 0.7782 0.47658 0.05757 0.0
H830 H 0.80908 0.45236 0.07382 0.0
H831 H 0.83749 0.44287 0.003 0.0
H832 H 0.80701 0.46725 0.98639 0.0
H833 H 0.7611 0.57768 0.06709 0.0
H834 H 0.7521 0.5409 0.0548 0.0
H835 H 0.7644 0.558 0.98085 0.0
H836 H 0.77319 0.59455 0.99285 0.0
H837 H 0.78333 0.51412 0.03299 0.0
H838 H 0.73122 0.52656 0.94392 0.0
H839 H 0.70157 0.55146 0.9268 0.0
H840 H 0.67655 0.56697 0.99755 0.0
H841 H 0.70579 0.54194 0.01509 0.0
C842 C 0.7639 0.43397 0.95103 0.0
C843 C 0.76359 0.41699 0.96752 0.0
C844 C 0.76001 0.45496 0.95888 0.0
C845 C 0.75563 0.45921 0.98326 0.0
C846 C 0.75332 0.44205 0.99927 0.0
C847 C 0.75748 0.42119 0.99154 0.0
C848 C 0.75562 0.48149 0.99245 0.0
C849 C 0.73945 0.49637 0.98284 0.0
C850 C 0.77151 0.488 0.01089 0.0
C851 C 0.79014 0.47354 0.02073 0.0
C852 C 0.79109 0.46937 0.04549 0.0
C853 C 0.80851 0.45562 0.05476 0.0
C854 C 0.82518 0.44602 0.03945 0.0
C855 C 0.82451 0.45024 0.01484 0.0
C856 C 0.80716 0.46401 0.00548 0.0
C857 C 0.76146 0.57367 0.04819 0.0
C858 C 0.768 0.58903 0.03098 0.0
C859 C 0.75638 0.55265 0.04119 0.0
C860 C 0.7574 0.54673 0.01688 0.0
C861 C 0.76311 0.56223 0.99966 0.0
C862 C 0.76832 0.58313 0.0066 0.0
C863 C 0.75476 0.52403 0.00955 0.0
C864 C 0.77062 0.50905 0.0194 0.0
C865 C 0.73873 0.51756 0.99122 0.0
C866 C 0.72087 0.53248 0.98083 0.0
C867 C 0.71932 0.5352 0.95583 0.0
C868 C 0.70259 0.54936 0.94605 0.0
C869 C 0.68723 0.56083 0.96108 0.0
C870 C 0.68852 0.55813 0.98593 0.0
C871 C 0.7052 0.54398 0.9958 0.0
H872 H 0.67431 0.5718 0.95347 0.0
H873 H 0.83863 0.43536 0.04665 0.0
H874 H 0.71809 0.4088 0.49145 0.0
H875 H 0.72613 0.44569 0.48024 0.0
H876 H 0.73765 0.46182 0.55458 0.0
H877 H 0.72956 0.42463 0.56607 0.0
H878 H 0.70547 0.48852 0.53196 0.0
H879 H 0.78426 0.46186 0.51662 0.0
H880 H 0.81435 0.43725 0.49975 0.0
H881 H 0.79141 0.4531 0.42841 0.0
H882 H 0.76093 0.47758 0.44486 0.0
H883 H 0.73169 0.59489 0.50617 0.0
H884 H 0.73806 0.55827 0.51954 0.0
H885 H 0.73111 0.53605 0.4466 0.0
H886 H 0.72543 0.573 0.43293 0.0
H887 H 0.76398 0.51271 0.4706 0.0
H888 H 0.68313 0.53558 0.48468 0.0
H889 H 0.65136 0.55929 0.50009 0.0
H890 H 0.67624 0.54929 0.57212 0.0
H891 H 0.70838 0.52574 0.55709 0.0
C892 C 0.72259 0.4201 0.50546 0.0
C893 C 0.72306 0.41379 0.5297 0.0
C894 C 0.72735 0.44118 0.49897 0.0
C895 C 0.73267 0.45648 0.51654 0.0
C896 C 0.73368 0.45021 0.54074 0.0
C897 C 0.72912 0.42897 0.54726 0.0
C898 C 0.73517 0.47926 0.5096 0.0
C899 C 0.71864 0.49391 0.51896 0.0
C900 C 0.75178 0.4861 0.49198 0.0
C901 C 0.77018 0.47145 0.482 0.0
C902 C 0.7855 0.45998 0.49734 0.0
C903 C 0.80265 0.44607 0.48785 0.0
C904 C 0.80476 0.44358 0.46302 0.0
C905 C 0.78975 0.45503 0.44764 0.0
C906 C 0.77255 0.46896 0.45704 0.0
C907 C 0.73189 0.58226 0.49289 0.0
C908 C 0.72774 0.58677 0.46853 0.0
C909 C 0.73548 0.56131 0.50058 0.0
C910 C 0.73444 0.54435 0.48418 0.0
C911 C 0.73183 0.54889 0.4596 0.0
C912 C 0.72858 0.56998 0.45181 0.0
C913 C 0.73427 0.52193 0.49298 0.0
C914 C 0.75108 0.50736 0.48386 0.0
C915 C 0.7177 0.51502 0.51063 0.0
C916 C 0.69831 0.52909 0.51974 0.0
C917 C 0.68193 0.53857 0.50379 0.0
C918 C 0.66384 0.55195 0.51245 0.0
C919 C 0.66183 0.55584 0.53706 0.0
C920 C 0.67785 0.54629 0.55306 0.0
C921 C 0.696 0.53292 0.54448 0.0
H922 H 0.64781 0.56621 0.54374 0.0
H923 H 0.81805 0.4328 0.45571 0.0
H924 H 0.16075 0.58178 0.05872 0.0
H925 H 0.16798 0.55515 0.02753 0.0
H926 H 0.14347 0.5054 0.07508 0.0
H927 H 0.13644 0.53188 0.10655 0.0
H928 H 0.1821 0.49238 0.04718 0.0
H929 H 0.10521 0.52633 0.03619 0.0
H930 H 0.07806 0.55713 0.03156 0.0
H931 H 0.11608 0.57664 0.96825 0.0
H932 H 0.14368 0.54609 0.9727 0.0
H933 H 0.14536 0.41443 0.96114 0.0
H934 H 0.15066 0.43963 0.99422 0.0
H935 H 0.16567 0.48997 0.94348 0.0
H936 H 0.15936 0.46507 0.91038 0.0
H937 H 0.13405 0.50305 0.97326 0.0
H938 H 0.20956 0.46732 0.98245 0.0
H939 H 0.23616 0.43613 0.98694 0.0
H940 H 0.20116 0.41953 0.05297 0.0
H941 H 0.17414 0.45048 0.04873 0.0
C942 C 0.15718 0.56515 0.0627 0.0
C943 C 0.14772 0.55901 0.08505 0.0
C944 C 0.16133 0.54995 0.04483 0.0
C945 C 0.15595 0.52835 0.0489 0.0
C946 C 0.14772 0.52199 0.07158 0.0
C947 C 0.14359 0.53719 0.0895 0.0
C948 C 0.15692 0.51274 0.02892 0.0
C949 C 0.17153 0.49458 0.03103 0.0
C950 C 0.14338 0.51582 0.00776 0.0
C951 C 0.12665 0.53407 0.00492 0.0
C952 C 0.10788 0.53728 0.02138 0.0
C953 C 0.0924 0.55467 0.01878 0.0
C954 C 0.09538 0.56887 0.99966 0.0
C955 C 0.11381 0.56565 0.98307 0.0
C956 C 0.12937 0.54829 0.98561 0.0
C957 C 0.15017 0.4308 0.95707 0.0
C958 C 0.15179 0.43783 0.93318 0.0
C959 C 0.15332 0.44519 0.97602 0.0
C960 C 0.15873 0.46673 0.9714 0.0
C961 C 0.1614 0.47348 0.94752 0.0
C962 C 0.15783 0.45923 0.92861 0.0
C963 C 0.15952 0.48264 0.99119 0.0
C964 C 0.14499 0.50086 0.98917 0.0
C965 C 0.17318 0.47955 0.01234 0.0
C966 C 0.1897 0.46114 0.01516 0.0
C967 C 0.20745 0.45696 0.99786 0.0
C968 C 0.22262 0.43932 1.00037 0.0
C969 C 0.22031 0.42582 0.0202 0.0
C970 C 0.20291 0.42999 0.03762 0.0
C971 C 0.18769 0.4476 0.03519 0.0
H972 H 0.23203 0.41215 0.02208 0.0
H973 H 0.08338 0.58233 0.99768 0.0
H974 H 0.35532 0.53285 0.4024 0.0
H975 H 0.35065 0.50636 0.43438 0.0
H976 H 0.34364 0.55694 0.48643 0.0
H977 H 0.34828 0.58348 0.45473 0.0
H978 H 0.37795 0.5271 0.49851 0.0
H979 H 0.2959 0.52811 0.47217 0.0
H980 H 0.2632 0.52546 0.44258 0.0
H981 H 0.28363 0.4609 0.42662 0.0
H982 H 0.31669 0.46326 0.45588 0.0
H983 H 0.35374 0.46588 0.60045 0.0
H984 H 0.3486 0.49151 0.56788 0.0
H985 H 0.34734 0.43992 0.51655 0.0
H986 H 0.35167 0.41408 0.54922 0.0
H987 H 0.3165 0.46999 0.50351 0.0
H988 H 0.39894 0.46862 0.52739 0.0
H989 H 0.43289 0.47047 0.55563 0.0
H990 H 0.41355 0.53475 0.57424 0.0
H991 H 0.37927 0.53317 0.54633 0.0
C992 C 0.35251 0.53834 0.42061 0.0
C993 C 0.35226 0.5603 0.42601 0.0
C994 C 0.34974 0.52318 0.43884 0.0
C995 C 0.34674 0.52972 0.46274 0.0
C996 C 0.34592 0.55159 0.46809 0.0
C997 C 0.34851 0.56673 0.4499 0.0
C998 C 0.34618 0.51385 0.48244 0.0
C999 C 0.36429 0.51482 0.49983 0.0
C1000 C 0.32883 0.49741 0.48361 0.0
C1001 C 0.30893 0.49594 0.46605 0.0
C1002 C 0.29357 0.51341 0.4622 0.0
C1003 C 0.27493 0.51195 0.44551 0.0
C1004 C 0.27138 0.49304 0.43268 0.0
C1005 C 0.28642 0.47554 0.43655 0.0
C1006 C 0.3051 0.47693 0.4532 0.0
C1007 C 0.35213 0.45995 0.58226 0.0
C1008 C 0.3534 0.43796 0.57737 0.0
C1009 C 0.34926 0.47463 0.56364 0.0
C1010 C 0.34815 0.46767 0.53971 0.0
C1011 C 0.34828 0.44567 0.53486 0.0
C1012 C 0.35081 0.43092 0.55355 0.0
C1013 C 0.34815 0.48339 0.51977 0.0
C1014 C 0.33008 0.48234 0.50226 0.0
C1015 C 0.36573 0.49965 0.51824 0.0
C1016 C 0.38641 0.5007 0.53495 0.0
C1017 C 0.40183 0.48309 0.53763 0.0
C1018 C 0.42114 0.4841 0.55356 0.0
C1019 C 0.42534 0.5027 0.56676 0.0
C1020 C 0.41026 0.52035 0.56402 0.0
C1021 C 0.39089 0.51941 0.54814 0.0
H1022 H 0.4403 0.50345 0.57908 0.0
H1023 H 0.25694 0.49194 0.41978 0.0
H1024 H 0.55228 0.11486 0.15402 0.0
H1025 H 0.51031 0.12567 0.15184 0.0
H1026 H 0.52439 0.15879 0.08543 0.0
H1027 H 0.56667 0.14857 0.0879 0.0
H1028 H 0.49196 0.18014 0.11139 0.0
H1029 H 0.503 0.10736 0.08581 0.0
H1030 H 0.51637 0.06999 0.08983 0.0
H1031 H 0.47107 0.06202 0.15148 0.0
H1032 H 0.45767 0.09946 0.14801 0.0
H1033 H 0.38138 0.17004 0.0499 0.0
H1034 H 0.42247 0.16959 0.06473 0.0
H1035 H 0.39829 0.14231 0.13154 0.0
H1036 H 0.35688 0.14271 0.1168 0.0
H1037 H 0.43475 0.11947 0.11044 0.0
H1038 H 0.41962 0.19214 0.13129 0.0
H1039 H 0.40605 0.22915 0.12477 0.0
H1040 H 0.45859 0.23707 0.06916 0.0
H1041 H 0.47225 0.19999 0.0751 0.0
C1042 C 0.54653 0.12473 0.13914 0.0
C1043 C 0.5627 0.13063 0.12095 0.0
C1044 C 0.52252 0.13085 0.13789 0.0
C1045 C 0.51409 0.1426 0.11818 0.0
C1046 C 0.53048 0.14963 0.10075 0.0
C1047 C 0.55463 0.14375 0.10216 0.0
C1048 C 0.488 0.14607 0.11476 0.0
C1049 C 0.47945 0.16689 0.11105 0.0
C1050 C 0.47159 0.12879 0.11476 0.0
C1051 C 0.47955 0.10626 0.11682 0.0
C1052 C 0.49603 0.09768 0.10033 0.0
C1053 C 0.50359 0.07648 0.10249 0.0
C1054 C 0.49463 0.06366 0.12094 0.0
C1055 C 0.47803 0.07199 0.13723 0.0
C1056 C 0.47044 0.09318 0.13517 0.0
C1057 C 0.3847 0.1642 0.06789 0.0
C1058 C 0.36587 0.15628 0.08213 0.0
C1059 C 0.40821 0.1641 0.0764 0.0
C1060 C 0.41341 0.15605 0.09929 0.0
C1061 C 0.39461 0.14867 0.11385 0.0
C1062 C 0.37098 0.14895 0.10542 0.0
C1063 C 0.43869 0.15353 0.1069 0.0
C1064 C 0.44715 0.13281 0.11123 0.0
C1065 C 0.45497 0.17086 0.10714 0.0
C1066 C 0.44685 0.19321 0.10354 0.0
C1067 C 0.42816 0.20171 0.11754 0.0
C1068 C 0.42047 0.22272 0.11397 0.0
C1069 C 0.43142 0.23544 0.09653 0.0
C1070 C 0.45012 0.22719 0.08266 0.0
C1071 C 0.45786 0.20618 0.08614 0.0
H1072 H 0.42545 0.2517 0.0938 0.0
H1073 H 0.5005 0.04725 0.12259 0.0
H1074 H 0.95819 0.90599 0.62586 0.0
H1075 H -0.0006 0.89592 0.61746 0.0
H1076 H 0.97668 0.83133 0.60257 0.0
H1077 H 0.93489 0.84181 0.60964 0.0
H1078 H 0.02965 0.87183 0.63605 0.0
H1079 H 0.01482 0.80779 0.56314 0.0
H1080 H 0.98505 0.79797 0.5323 0.0
H1081 H 0.9623 0.86334 0.52753 0.0
H1082 H 0.99212 0.87356 0.55811 0.0
H1083 H 0.14639 0.83686 0.60672 0.0
H1084 H 0.10397 0.83554 0.61795 0.0
H1085 H 0.08489 0.86262 0.54931 0.0
H1086 H 0.12693 0.86276 0.53759 0.0
H1087 H 0.05266 0.83618 0.56 0.0
H1088 H 0.09113 0.8931 0.60354 0.0
H1089 H 0.12091 0.9091 0.63087 0.0
H1090 H 0.09622 0.86887 0.68816 0.0
H1091 H 0.06647 0.85245 0.66106 0.0
C1092 C 0.96193 0.88962 0.62083 0.0
C1093 C 0.94331 0.8747 0.61832 0.0
C1094 C 0.98557 0.88383 0.61611 0.0
C1095 C 0.99128 0.86288 0.60918 0.0
C1096 C 0.97275 0.84771 0.60738 0.0
C1097 C 0.9489 0.85366 0.61154 0.0
C1098 C 0.01661 0.85742 0.60343 0.0
C1099 C 0.03462 0.86392 0.61946 0.0
C1100 C 0.02328 0.84728 0.58171 0.0
C1101 C 0.00548 0.84136 0.56312 0.0
C1102 C 0.00349 0.82005 0.55546 0.0
C1103 C 0.98661 0.81442 0.53803 0.0
C1104 C 0.97172 0.83 0.52804 0.0
C1105 C 0.97377 0.85127 0.53536 0.0
C1106 C 0.99064 0.85699 0.55274 0.0
C1107 C 0.13306 0.84229 0.59398 0.0
C1108 C 0.13996 0.85004 0.57135 0.0
C1109 C 0.10884 0.84162 0.60043 0.0
C1110 C 0.09117 0.84937 0.58468 0.0
C1111 C 0.09807 0.85649 0.56181 0.0
C1112 C 0.12217 0.85666 0.55514 0.0
C1113 C 0.06567 0.85126 0.59225 0.0
C1114 C 0.04764 0.84388 0.57671 0.0
C1115 C 0.05897 0.86153 0.61389 0.0
C1116 C 0.0768 0.87138 0.63022 0.0
C1117 C 0.09217 0.88757 0.62193 0.0
C1118 C 0.10902 0.89673 0.63737 0.0
C1119 C 0.11051 0.88995 0.66121 0.0
C1120 C 0.09509 0.87406 0.66968 0.0
C1121 C 0.07823 0.86483 0.65429 0.0
H1122 H 0.12357 0.89706 0.67315 0.0
H1123 H 0.95864 0.82561 0.51458 0.0
H1124 H 0.37854 0.82293 0.95462 0.0
H1125 H 0.41937 0.82202 0.93908 0.0
H1126 H 0.39719 0.85851 0.8773 0.0
H1127 H 0.35591 0.85895 0.89249 0.0
H1128 H 0.4309 0.82918 0.86516 0.0
H1129 H 0.42186 0.88334 0.92541 0.0
H1130 H 0.41067 0.8978 0.96502 0.0
H1131 H 0.46064 0.85542 0.99913 0.0
H1132 H 0.47188 0.84048 0.95972 0.0
H1133 H 0.54255 0.88005 0.83935 0.0
H1134 H 0.50136 0.86958 0.84815 0.0
H1135 H 0.52598 0.83191 0.90806 0.0
H1136 H 0.56733 0.84245 0.89951 0.0
H1137 H 0.49126 0.85983 0.92074 0.0
H1138 H 0.5026 0.80791 0.85872 0.0
H1139 H 0.51385 0.79504 0.81845 0.0
H1140 H 0.46005 0.83511 0.78677 0.0
H1141 H 0.44868 0.84846 0.82683 0.0
C1142 C 0.38225 0.83053 0.93756 0.0
C1143 C 0.36409 0.84129 0.92494 0.0
C1144 C 0.40562 0.83001 0.92872 0.0
C1145 C 0.41144 0.84063 0.90733 0.0
C1146 C 0.3931 0.85031 0.89392 0.0
C1147 C 0.36955 0.85059 0.90263 0.0
C1148 C 0.4369 0.84294 0.90006 0.0
C1149 C 0.44409 0.83605 0.87719 0.0
C1150 C 0.45417 0.85162 0.91592 0.0
C1151 C 0.44753 0.86064 0.93964 0.0
C1152 C 0.43033 0.87699 0.94137 0.0
C1153 C 0.424 0.88529 0.96378 0.0
C1154 C 0.43489 0.87749 0.98458 0.0
C1155 C 0.45219 0.86142 0.983 0.0
C1156 C 0.45856 0.85304 0.96064 0.0
C1157 C 0.53929 0.86925 0.85418 0.0
C1158 C 0.55823 0.86222 0.86885 0.0
C1159 C 0.51571 0.86318 0.85909 0.0
C1160 C 0.51061 0.8499 0.8787 0.0
C1161 C 0.52955 0.84216 0.89281 0.0
C1162 C 0.55318 0.84816 0.88787 0.0
C1163 C 0.48541 0.84592 0.88589 0.0
C1164 C 0.47819 0.8527 0.90875 0.0
C1165 C 0.46818 0.83737 0.86991 0.0
C1166 C 0.47492 0.82932 0.84578 0.0
C1167 C 0.49329 0.81411 0.84316 0.0
C1168 C 0.49966 0.8067 0.82037 0.0
C1169 C 0.48771 0.81428 0.80006 0.0
C1170 C 0.46931 0.82926 0.80251 0.0
C1171 C 0.46287 0.83673 0.82526 0.0
H1172 H 0.49267 0.80853 0.78243 0.0
H1173 H 0.42996 0.88394 0.00192 0.0
H1174 H 0.11496 0.17732 0.44756 0.0
H1175 H 0.07396 0.17549 0.43258 0.0
H1176 H 0.09688 0.13338 0.37573 0.0
H1177 H 0.13833 0.13582 0.39021 0.0
H1178 H 0.06178 0.15937 0.36024 0.0
H1179 H 0.0738 0.11331 0.42782 0.0
H1180 H 0.08612 0.10391 0.46897 0.0
H1181 H 0.03502 0.14841 0.4976 0.0
H1182 H 0.02262 0.1583 0.45658 0.0
H1183 H 0.95079 0.1035 0.34529 0.0
H1184 H 0.99206 0.11516 0.35165 0.0
H1185 H 0.96794 0.1605 0.40468 0.0
H1186 H 0.92654 0.14889 0.39851 0.0
H1187 H 0.00339 0.13424 0.42121 0.0
H1188 H 0.98952 0.17787 0.35185 0.0
H1189 H 0.97719 0.18514 0.31017 0.0
H1190 H 0.03152 0.14243 0.28419 0.0
H1191 H 0.04397 0.13466 0.32575 0.0
C1192 C 0.11134 0.16793 0.43164 0.0
C1193 C 0.12975 0.15645 0.42024 0.0
C1194 C 0.0879 0.16686 0.42313 0.0
C1195 C 0.08225 0.15384 0.40343 0.0
C1196 C 0.10082 0.14341 0.39106 0.0
C1197 C 0.12447 0.14479 0.39936 0.0
C1198 C 0.05682 0.14988 0.39706 0.0
C1199 C 0.04904 0.15369 0.37349 0.0
C1200 C 0.04012 0.14269 0.41443 0.0
C1201 C 0.04745 0.13669 0.43913 0.0
C1202 C 0.06531 0.1212 0.44289 0.0
C1203 C 0.07229 0.11577 0.46619 0.0
C1204 C 0.0614 0.12559 0.48589 0.0
C1205 C 0.04346 0.14083 0.48233 0.0
C1206 C 0.03644 0.14635 0.45906 0.0
C1207 C 0.95419 0.11617 0.35807 0.0
C1208 C 0.93538 0.12517 0.37152 0.0
C1209 C 0.97779 0.1229 0.36157 0.0
C1210 C 0.98303 0.13875 0.37856 0.0
C1211 C 0.96423 0.14827 0.39145 0.0
C1212 C 0.94059 0.14163 0.38786 0.0
C1213 C 0.00825 0.14393 0.38447 0.0
C1214 C 0.01605 0.14015 0.40799 0.0
C1215 C 0.02492 0.15083 0.36696 0.0
C1216 C 0.01754 0.15555 0.34194 0.0
C1217 C 0.99871 0.16989 0.33727 0.0
C1218 C 0.99173 0.17413 0.31365 0.0
C1219 C 0.00353 0.16422 0.29455 0.0
C1220 C 0.02238 0.15009 0.29901 0.0
C1221 C 0.02943 0.14578 0.32259 0.0
H1222 H 0.99809 0.16752 0.27628 0.0
H1223 H 0.06683 0.12137 0.50391 0.0
H1224 H 0.04406 0.6119 0.15865 0.0
H1225 H 0.00221 0.62126 0.15179 0.0
H1226 H 0.02202 0.6546 0.08701 0.0
H1227 H 0.06422 0.6458 0.09417 0.0
H1228 H 0.98717 0.67559 0.1098 0.0
H1229 H 0.00062 0.60323 0.08521 0.0
H1230 H 0.01395 0.5659 0.08971 0.0
H1231 H 0.96411 0.55694 0.14758 0.0
H1232 H 0.95072 0.59434 0.14363 0.0
H1233 H 0.87777 0.66582 0.04507 0.0
H1234 H 0.9188 0.66453 0.06012 0.0
H1235 H 0.89349 0.63832 0.12705 0.0
H1236 H 0.85216 0.63966 0.11214 0.0
H1237 H 0.93028 0.61477 0.10587 0.0
H1238 H 0.9145 0.68761 0.1267 0.0
H1239 H 0.90118 0.72461 0.11959 0.0
H1240 H 0.95532 0.73224 0.0655 0.0
H1241 H 0.96875 0.69516 0.07203 0.0
C1242 C 0.03958 0.62141 0.14305 0.0
C1243 C 0.05741 0.62789 0.12678 0.0
C1244 C 0.01562 0.6267 0.13913 0.0
C1245 C 0.00891 0.63821 0.1186 0.0
C1246 C 0.02678 0.64561 0.10291 0.0
C1247 C 0.05087 0.64054 0.107 0.0
C1248 C 0.98318 0.64149 0.11292 0.0
C1249 C 0.97477 0.66228 0.10873 0.0
C1250 C 0.96688 0.62415 0.11191 0.0
C1251 C 0.97486 0.60164 0.11429 0.0
C1252 C 0.99264 0.59334 0.09902 0.0
C1253 C 0.00018 0.57217 0.10145 0.0
C1254 C 0.98993 0.55907 0.11897 0.0
C1255 C 0.97207 0.56712 0.13405 0.0
C1256 C 0.96448 0.5883 0.13171 0.0
C1257 C 0.88085 0.65999 0.06311 0.0
C1258 C 0.86171 0.65274 0.07739 0.0
C1259 C 0.90431 0.65939 0.07172 0.0
C1260 C 0.90914 0.65145 0.09473 0.0
C1261 C 0.89007 0.64458 0.10926 0.0
C1262 C 0.8665 0.6454 0.10074 0.0
C1263 C 0.93428 0.64884 0.10275 0.0
C1264 C 0.94261 0.62811 0.10724 0.0
C1265 C 0.9505 0.6662 0.10366 0.0
C1266 C 0.9425 0.68853 0.09972 0.0
C1267 C 0.92344 0.69711 0.11314 0.0
C1268 C 0.91589 0.71811 0.10925 0.0
C1269 C 0.92736 0.73075 0.09207 0.0
C1270 C 0.94644 0.72242 0.07879 0.0
C1271 C 0.95405 0.70142 0.0826 0.0
H1272 H 0.9215 0.74701 0.08908 0.0
H1273 H 0.9958 0.54268 0.12082 0.0
H1274 H 0.62007 0.3259 0.54633 0.0
H1275 H 0.57886 0.32618 0.56094 0.0
H1276 H 0.60079 0.36302 0.62259 0.0
H1277 H 0.64243 0.36202 0.60846 0.0
H1278 H 0.56609 0.33601 0.63492 0.0
H1279 H 0.57756 0.38732 0.57223 0.0
H1280 H 0.58978 0.40015 0.53223 0.0
H1281 H 0.53941 0.35752 0.4991 0.0
H1282 H 0.52711 0.34422 0.53892 0.0
H1283 H 0.45441 0.38998 0.65445 0.0
H1284 H 0.49586 0.37918 0.64719 0.0
H1285 H 0.47233 0.33684 0.59089 0.0
H1286 H 0.43076 0.34751 0.59803 0.0
H1287 H 0.50747 0.36512 0.57653 0.0
H1288 H 0.49407 0.31625 0.64149 0.0
H1289 H 0.48179 0.30581 0.68233 0.0
H1290 H 0.53553 0.34701 0.71227 0.0
H1291 H 0.54793 0.35794 0.6716 0.0
C1292 C 0.61618 0.3338 0.56318 0.0
C1293 C 0.63437 0.3442 0.5761 0.0
C1294 C 0.59261 0.334 0.57148 0.0
C1295 C 0.58662 0.34513 0.59251 0.0
C1296 C 0.60498 0.35446 0.60622 0.0
C1297 C 0.62874 0.35391 0.59813 0.0
C1298 C 0.56108 0.34825 0.59915 0.0
C1299 C 0.55331 0.34255 0.62224 0.0
C1300 C 0.54431 0.35658 0.58252 0.0
C1301 C 0.55159 0.36462 0.55854 0.0
C1302 C 0.56921 0.38057 0.55641 0.0
C1303 C 0.57614 0.38795 0.53377 0.0
C1304 C 0.56543 0.37961 0.51313 0.0
C1305 C 0.54772 0.36393 0.5151 0.0
C1306 C 0.54075 0.35648 0.53769 0.0
C1307 C 0.45799 0.37813 0.64076 0.0
C1308 C 0.43929 0.36971 0.62671 0.0
C1309 C 0.48169 0.37189 0.63673 0.0
C1310 C 0.48713 0.35717 0.61857 0.0
C1311 C 0.46846 0.3482 0.60504 0.0
C1312 C 0.44472 0.35429 0.60918 0.0
C1313 C 0.51241 0.35271 0.61219 0.0
C1314 C 0.52018 0.35835 0.58914 0.0
C1315 C 0.52914 0.34467 0.629 0.0
C1316 C 0.52179 0.33805 0.65348 0.0
C1317 C 0.50315 0.32322 0.65678 0.0
C1318 C 0.49619 0.31719 0.6799 0.0
C1319 C 0.50783 0.32577 0.69988 0.0
C1320 C 0.52651 0.34038 0.69678 0.0
C1321 C 0.53353 0.34648 0.67369 0.0
H1322 H 0.50242 0.32108 0.71777 0.0
H1323 H 0.57081 0.38534 0.49562 0.0
H1324 H 0.04694 0.40946 0.87338 0.0
H1325 H 0.00498 0.40053 0.87938 0.0
H1326 H 0.02447 0.33528 0.89503 0.0
H1327 H 0.0669 0.34447 0.8902 0.0
H1328 H 0.97369 0.37673 0.8603 0.0
H1329 H 0.98561 0.31416 0.93515 0.0
H1330 H 0.01479 0.30421 0.9665 0.0
H1331 H 0.03969 0.36903 0.96979 0.0
H1332 H 0.01047 0.37939 0.93869 0.0
H1333 H 0.85542 0.34369 0.8922 0.0
H1334 H 0.89753 0.34307 0.87961 0.0
H1335 H 0.91798 0.37204 0.94688 0.0
H1336 H 0.87636 0.37162 0.9599 0.0
H1337 H 0.94877 0.34395 0.93736 0.0
H1338 H 0.91232 0.40046 0.89112 0.0
H1339 H 0.88326 0.41605 0.86275 0.0
H1340 H 0.9075 0.3733 0.80759 0.0
H1341 H 0.93653 0.35729 0.83574 0.0
C1342 C 0.04235 0.39315 0.87796 0.0
C1343 C 0.06027 0.37771 0.88153 0.0
C1344 C 0.01827 0.38803 0.88129 0.0
C1345 C 0.01147 0.36729 0.88796 0.0
C1346 C 0.02926 0.35152 0.8904 0.0
C1347 C 0.0535 0.35676 0.88755 0.0
C1348 C 0.98588 0.36277 0.89348 0.0
C1349 C 0.96826 0.36942 0.87709 0.0
C1350 C 0.97866 0.35345 0.91548 0.0
C1351 C 0.99609 0.34746 0.9344 0.0
C1352 C 0.99729 0.32628 0.94262 0.0
C1353 C 0.01383 0.32057 0.96034 0.0
C1354 C 0.02915 0.33596 0.97006 0.0
C1355 C 0.02788 0.35711 0.96218 0.0
C1356 C 0.01135 0.36291 0.9445 0.0
C1357 C 0.86897 0.34988 0.90425 0.0
C1358 C 0.86263 0.35772 0.92701 0.0
C1359 C 0.89302 0.34958 0.89703 0.0
C1360 C 0.91101 0.35771 0.91218 0.0
C1361 C 0.90456 0.36552 0.9349 0.0
C1362 C 0.8807 0.36537 0.9423 0.0
C1363 C 0.93655 0.35857 0.90454 0.0
C1364 C 0.95417 0.35102 0.92043 0.0
C1365 C 0.94376 0.36789 0.88254 0.0
C1366 C 0.92637 0.37751 0.8656 0.0
C1367 C 0.91133 0.39429 0.87298 0.0
C1368 C 0.89488 0.40322 0.85694 0.0
C1369 C 0.89347 0.39562 0.8334 0.0
C1370 C 0.90857 0.37913 0.82584 0.0
C1371 C 0.92503 0.37013 0.84182 0.0
H1372 H 0.88073 0.40255 0.82101 0.0
H1373 H 0.04197 0.3315 0.98374 0.0
H1374 H 0.62004 0.66612 0.45585 0.0
H1375 H 0.57853 0.66489 0.44249 0.0
H1376 H 0.60071 0.63571 0.37596 0.0
H1377 H 0.64269 0.63744 0.38904 0.0
H1378 H 0.56421 0.66345 0.36859 0.0
H1379 H 0.57977 0.60502 0.42122 0.0
H1380 H 0.5941 0.58717 0.45794 0.0
H1381 H 0.54364 0.62287 0.50009 0.0
H1382 H 0.52924 0.64118 0.46364 0.0
H1383 H 0.45044 0.61215 0.34695 0.0
H1384 H 0.49258 0.62133 0.35324 0.0
H1385 H 0.47341 0.65752 0.41621 0.0
H1386 H 0.43118 0.64859 0.40999 0.0
H1387 H 0.50855 0.62606 0.42393 0.0
H1388 H 0.49232 0.68351 0.36902 0.0
H1389 H 0.47814 0.69942 0.33114 0.0
H1390 H 0.52979 0.66261 0.29173 0.0
H1391 H 0.54406 0.64622 0.32936 0.0
C1392 C 0.61617 0.65962 0.43826 0.0
C1393 C 0.63461 0.65159 0.42363 0.0
C1394 C 0.5924 0.6589 0.43067 0.0
C1395 C 0.58646 0.64975 0.40848 0.0
C1396 C 0.60491 0.64272 0.39323 0.0
C1397 C 0.62885 0.64368 0.40073 0.0
C1398 C 0.56092 0.64648 0.40205 0.0
C1399 C 0.55209 0.65505 0.38053 0.0
C1400 C 0.54505 0.63566 0.41774 0.0
C1401 C 0.55359 0.62462 0.43972 0.0
C1402 C 0.57186 0.60919 0.43834 0.0
C1403 C 0.57997 0.59897 0.4591 0.0
C1404 C 0.56983 0.60393 0.48134 0.0
C1405 C 0.5515 0.61907 0.48285 0.0
C1406 C 0.54334 0.62936 0.46214 0.0
C1407 C 0.45513 0.62234 0.36193 0.0
C1408 C 0.43748 0.62953 0.37807 0.0
C1409 C 0.4792 0.62764 0.36542 0.0
C1410 C 0.48606 0.6401 0.38516 0.0
C1411 C 0.46842 0.6479 0.40084 0.0
C1412 C 0.44431 0.64282 0.39722 0.0
C1413 C 0.51175 0.64334 0.3907 0.0
C1414 C 0.52065 0.63456 0.41203 0.0
C1415 C 0.52763 0.65363 0.37464 0.0
C1416 C 0.51909 0.66347 0.352 0.0
C1417 C 0.50051 0.67865 0.35226 0.0
C1418 C 0.49249 0.68779 0.33084 0.0
C1419 C 0.50301 0.68199 0.30904 0.0
C1420 C 0.52163 0.66707 0.30863 0.0
C1421 C 0.52971 0.65786 0.33 0.0
H1422 H 0.49678 0.68909 0.29247 0.0
H1423 H 0.57613 0.59599 0.49739 0.0
H1424 H 0.22871 0.10564 0.14871 0.0
H1425 H 0.2212 0.10521 0.19195 0.0
H1426 H 0.27444 0.15431 0.20202 0.0
H1427 H 0.28223 0.15471 0.15885 0.0
H1428 H 0.27916 0.12317 0.23524 0.0
H1429 H 0.2151 0.16622 0.20441 0.0
H1430 H 0.18072 0.17469 0.17831 0.0
H1431 H 0.14196 0.12118 0.20686 0.0
H1432 H 0.17627 0.11221 0.23291 0.0
H1433 H 0.24646 0.15218 0.35504 0.0
H1434 H 0.25575 0.15181 0.3121 0.0
H1435 H 0.20144 0.10386 0.30072 0.0
H1436 H 0.19186 0.10432 0.34346 0.0
H1437 H 0.19755 0.13465 0.26812 0.0
H1438 H 0.26151 0.09153 0.299 0.0
H1439 H 0.29588 0.08292 0.32505 0.0
H1440 H 0.33482 0.13635 0.29652 0.0
H1441 H 0.30053 0.14545 0.27052 0.0
C1442 C 0.23881 0.11638 0.16009 0.0
C1443 C 0.25602 0.13027 0.15023 0.0
C1444 C 0.23443 0.11616 0.18484 0.0
C1445 C 0.2471 0.12987 0.20027 0.0
C1446 C 0.26444 0.1436 0.19051 0.0
C1447 C 0.26879 0.14386 0.16577 0.0
C1448 C 0.24231 0.12986 0.22659 0.0
C1449 C 0.26137 0.12596 0.24245 0.0
C1450 C 0.21902 0.13304 0.23603 0.0
C1451 C 0.19835 0.13842 0.22043 0.0
C1452 C 0.19932 0.15616 0.20498 0.0
C1453 C 0.17983 0.16107 0.19022 0.0
C1454 C 0.15919 0.14845 0.19088 0.0
C1455 C 0.15798 0.13092 0.20635 0.0
C1456 C 0.17743 0.12592 0.22112 0.0
C1457 C 0.23662 0.14142 0.34344 0.0
C1458 C 0.21841 0.12827 0.35276 0.0
C1459 C 0.242 0.14119 0.31887 0.0
C1460 C 0.2294 0.12771 0.30312 0.0
C1461 C 0.21139 0.11443 0.31245 0.0
C1462 C 0.206 0.11466 0.33696 0.0
C1463 C 0.23439 0.12787 0.27683 0.0
C1464 C 0.21535 0.13183 0.26095 0.0
C1465 C 0.2577 0.12473 0.26739 0.0
C1466 C 0.27835 0.1193 0.28299 0.0
C1467 C 0.27732 0.10155 0.29842 0.0
C1468 C 0.2968 0.09656 0.31315 0.0
C1469 C 0.31749 0.10912 0.31249 0.0
C1470 C 0.31876 0.12666 0.29705 0.0
C1471 C 0.29932 0.13173 0.28229 0.0
H1472 H 0.33256 0.10523 0.3239 0.0
H1473 H 0.14412 0.15228 0.17944 0.0
H1474 H 0.24765 0.8497 0.85939 0.0
H1475 H 0.23804 0.85008 0.8165 0.0
H1476 H 0.29488 0.89543 0.80413 0.0
H1477 H 0.30433 0.8954 0.84687 0.0
H1478 H 0.25623 0.90611 0.7788 0.0
H1479 H 0.30186 0.84185 0.79177 0.0
H1480 H 0.31107 0.80722 0.81072 0.0
H1481 H 0.24362 0.78212 0.78666 0.0
H1482 H 0.23387 0.81671 0.76782 0.0
H1483 H 0.27378 0.89451 0.65357 0.0
H1484 H 0.27861 0.89456 0.69714 0.0
H1485 H 0.22042 0.84964 0.7039 0.0
H1486 H 0.21565 0.84929 0.66025 0.0
H1487 H 0.25715 0.83851 0.73237 0.0
H1488 H 0.21245 0.90237 0.71758 0.0
H1489 H 0.20353 0.93695 0.69841 0.0
H1490 H 0.26933 0.96285 0.72575 0.0
H1491 H 0.27881 0.92832 0.74482 0.0
C1492 C 0.258 0.85986 0.84757 0.0
C1493 C 0.27684 0.87245 0.85661 0.0
C1494 C 0.25256 0.85998 0.82301 0.0
C1495 C 0.26594 0.87257 0.80697 0.0
C1496 C 0.28431 0.88556 0.81608 0.0
C1497 C 0.28974 0.88547 0.84058 0.0
C1498 C 0.26118 0.87205 0.78065 0.0
C1499 C 0.25667 0.89134 0.76862 0.0
C1500 C 0.26117 0.85274 0.76737 0.0
C1501 C 0.26703 0.83193 0.77862 0.0
C1502 C 0.28891 0.82899 0.79068 0.0
C1503 C 0.29424 0.80937 0.80138 0.0
C1504 C 0.27791 0.7925 0.79996 0.0
C1505 C 0.25623 0.79521 0.78778 0.0
C1506 C 0.2508 0.81482 0.77708 0.0
C1507 C 0.26198 0.88463 0.66428 0.0
C1508 C 0.24428 0.87194 0.65335 0.0
C1509 C 0.2647 0.88476 0.68925 0.0
C1510 C 0.24968 0.87231 0.70389 0.0
C1511 C 0.23218 0.85941 0.69302 0.0
C1512 C 0.22945 0.85928 0.66803 0.0
C1513 C 0.25243 0.8726 0.7305 0.0
C1514 C 0.25656 0.85326 0.74257 0.0
C1515 C 0.25212 0.89187 0.74382 0.0
C1516 C 0.24643 0.91269 0.73245 0.0
C1517 C 0.2251 0.91539 0.71936 0.0
C1518 C 0.21994 0.93499 0.70853 0.0
C1519 C 0.23588 0.95207 0.71081 0.0
C1520 C 0.25701 0.9496 0.72398 0.0
C1521 C 0.26227 0.93002 0.73482 0.0
H1522 H 0.23185 0.96724 0.70242 0.0
H1523 H 0.28207 0.77732 0.80824 0.0
H1524 H 0.7019 0.85899 0.84258 0.0
H1525 H 0.73543 0.85275 0.81499 0.0
H1526 H 0.69093 0.87115 0.75526 0.0
H1527 H 0.65752 0.87792 0.78271 0.0
H1528 H 0.7242 0.833 0.74837 0.0
H1529 H 0.72129 0.90792 0.77453 0.0
H1530 H 0.72032 0.93566 0.80595 0.0
H1531 H 0.78619 0.91164 0.83524 0.0
H1532 H 0.78732 0.88354 0.80417 0.0
H1533 H 0.79975 0.86753 0.65445 0.0
H1534 H 0.76955 0.85991 0.68497 0.0
H1535 H 0.82269 0.8687 0.74046 0.0
H1536 H 0.85244 0.87782 0.70993 0.0
H1537 H 0.78701 0.88892 0.75308 0.0
H1538 H 0.795 0.8178 0.72505 0.0
H1539 H 0.79734 0.78832 0.69581 0.0
H1540 H 0.72529 0.80119 0.67303 0.0
H1541 H 0.72261 0.83095 0.70189 0.0
C1542 C 0.69914 0.86134 0.82352 0.0
C1543 C 0.67717 0.86912 0.8148 0.0
C1544 C 0.71828 0.85774 0.80782 0.0
C1545 C 0.71557 0.86151 0.78316 0.0
C1546 C 0.69327 0.86806 0.77424 0.0
C1547 C 0.67429 0.87206 0.78995 0.0
C1548 C 0.73654 0.86099 0.76697 0.0
C1549 C 0.73799 0.84519 0.74922 0.0
C1550 C 0.75482 0.87649 0.76876 0.0
C1551 C 0.75423 0.8935 0.78724 0.0
C1552 C 0.73544 0.90845 0.78781 0.0
C1553 C 0.73489 0.92425 0.80552 0.0
C1554 C 0.75314 0.92537 0.82263 0.0
C1555 C 0.77203 0.91073 0.82201 0.0
C1556 C 0.77265 0.89487 0.80435 0.0
C1557 C 0.80502 0.8675 0.67316 0.0
C1558 C 0.82835 0.87334 0.67989 0.0
C1559 C 0.78778 0.86297 0.69064 0.0
C1560 C 0.79379 0.86343 0.71516 0.0
C1561 C 0.81749 0.86831 0.72174 0.0
C1562 C 0.83451 0.87347 0.7043 0.0
C1563 C 0.77494 0.86092 0.7339 0.0
C1564 C 0.7737 0.87631 0.75223 0.0
C1565 C 0.75721 0.84468 0.73289 0.0
C1566 C 0.75868 0.82673 0.71554 0.0
C1567 C 0.77971 0.81445 0.71369 0.0
C1568 C 0.78109 0.79767 0.6972 0.0
C1569 C 0.7615 0.79291 0.68254 0.0
C1570 C 0.74045 0.8049 0.68439 0.0
C1571 C 0.73898 0.82171 0.70084 0.0
H1572 H 0.76261 0.77992 0.66977 0.0
H1573 H 0.75268 0.93762 0.83633 0.0
H1574 H 0.81168 0.14509 0.32639 0.0
H1575 H 0.78404 0.15241 0.2932 0.0
H1576 H 0.79551 0.08868 0.26598 0.0
H1577 H 0.82356 0.08159 0.29838 0.0
H1578 H 0.79575 0.1149 0.23039 0.0
H1579 H 0.74443 0.10408 0.29952 0.0
H1580 H 0.72915 0.11163 0.34019 0.0
H1581 H 0.71148 0.17564 0.31895 0.0
H1582 H 0.72693 0.16851 0.27821 0.0
H1583 H 0.68365 0.08278 0.18016 0.0
H1584 H 0.71489 0.08984 0.20978 0.0
H1585 H 0.71774 0.15571 0.18757 0.0
H1586 H 0.68672 0.14866 0.15716 0.0
H1587 H 0.71171 0.13701 0.24549 0.0
H1588 H 0.76082 0.14432 0.17341 0.0
H1589 H 0.77387 0.13291 0.13311 0.0
H1590 H 0.79365 0.07149 0.16107 0.0
H1591 H 0.78034 0.08246 0.20147 0.0
C1592 C 0.80829 0.13268 0.3133 0.0
C1593 C 0.81981 0.11275 0.31504 0.0
C1594 C 0.79245 0.13686 0.29437 0.0
C1595 C 0.78754 0.12105 0.27714 0.0
C1596 C 0.79909 0.10121 0.27891 0.0
C1597 C 0.81509 0.09713 0.29756 0.0
C1598 C 0.77022 0.12472 0.25731 0.0
C1599 C 0.77743 0.11988 0.23376 0.0
C1600 C 0.74637 0.13157 0.26149 0.0
C1601 C 0.73712 0.13586 0.28595 0.0
C1602 C 0.73746 0.11981 0.30359 0.0
C1603 C 0.72874 0.124 0.32664 0.0
C1604 C 0.71943 0.14413 0.33217 0.0
C1605 C 0.71876 0.16008 0.31465 0.0
C1606 C 0.72749 0.15597 0.29159 0.0
C1607 C 0.69091 0.09878 0.18149 0.0
C1608 C 0.68274 0.11518 0.16633 0.0
C1609 C 0.70874 0.10276 0.19841 0.0
C1610 C 0.71852 0.12324 0.20075 0.0
C1611 C 0.71036 0.13978 0.18588 0.0
C1612 C 0.69276 0.13571 0.16853 0.0
C1613 C 0.73729 0.12687 0.21895 0.0
C1614 C 0.73028 0.13281 0.24216 0.0
C1615 C 0.76122 0.12073 0.21459 0.0
C1616 C 0.76935 0.11414 0.19038 0.0
C1617 C 0.76771 0.12831 0.1709 0.0
C1618 C 0.77521 0.12194 0.14805 0.0
C1619 C 0.78452 0.10147 0.14451 0.0
C1620 C 0.7864 0.08734 0.16383 0.0
C1621 C 0.7789 0.09363 0.1867 0.0
H1622 H 0.79033 0.09657 0.12682 0.0
H1623 H 0.71268 0.14734 0.35002 0.0
H1624 H 0.73272 0.66053 0.34857 0.0
H1625 H 0.74088 0.66092 0.3054 0.0
H1626 H 0.73924 0.59209 0.30412 0.0
H1627 H 0.73093 0.59154 0.34725 0.0
H1628 H 0.77761 0.60938 0.27813 0.0
H1629 H 0.69213 0.61844 0.28464 0.0
H1630 H 0.65508 0.63558 0.29917 0.0
H1631 H 0.67659 0.69487 0.26702 0.0
H1632 H 0.71396 0.67815 0.25258 0.0
H1633 H 0.77084 0.59293 0.15295 0.0
H1634 H 0.76253 0.59293 0.19597 0.0
H1635 H 0.75352 0.66134 0.19441 0.0
H1636 H 0.7611 0.66137 0.15117 0.0
H1637 H 0.7209 0.64477 0.22228 0.0
H1638 H 0.8059 0.63689 0.21567 0.0
H1639 H 0.84379 0.62094 0.20162 0.0
H1640 H 0.82474 0.56125 0.23441 0.0
H1641 H 0.78656 0.57677 0.24838 0.0
C1642 C 0.73422 0.64546 0.33915 0.0
C1643 C 0.73109 0.62599 0.35138 0.0
C1644 C 0.73879 0.64572 0.31445 0.0
C1645 C 0.74046 0.62654 0.30149 0.0
C1646 C 0.73798 0.60708 0.31375 0.0
C1647 C 0.73317 0.6068 0.3384 0.0
C1648 C 0.74448 0.62674 0.27511 0.0
C1649 C 0.76508 0.61689 0.26586 0.0
C1650 C 0.72846 0.63704 0.25918 0.0
C1651 C 0.70595 0.6471 0.26775 0.0
C1652 C 0.68905 0.63518 0.28084 0.0
C1653 C 0.66798 0.64481 0.28903 0.0
C1654 C 0.66351 0.66632 0.28408 0.0
C1655 C 0.68009 0.67822 0.27087 0.0
C1656 C 0.70121 0.66867 0.26267 0.0
C1657 C 0.76699 0.60798 0.16172 0.0
C1658 C 0.76676 0.62717 0.1486 0.0
C1659 C 0.76238 0.60798 0.1864 0.0
C1660 C 0.75786 0.62719 0.19864 0.0
C1661 C 0.75704 0.64631 0.18546 0.0
C1662 C 0.76141 0.6463 0.16071 0.0
C1663 C 0.75409 0.62735 0.22515 0.0
C1664 C 0.73351 0.63729 0.23447 0.0
C1665 C 0.77029 0.61731 0.24118 0.0
C1666 C 0.79326 0.60794 0.23287 0.0
C1667 C 0.80971 0.62032 0.21973 0.0
C1668 C 0.83125 0.61136 0.2118 0.0
C1669 C 0.83664 0.59008 0.21706 0.0
C1670 C 0.82052 0.57773 0.23032 0.0
C1671 C 0.79894 0.5866 0.23826 0.0
H1672 H 0.85333 0.58318 0.21091 0.0
H1673 H 0.64719 0.67374 0.29043 0.0
H1674 H 0.69382 0.38533 0.66089 0.0
H1675 H 0.70591 0.38362 0.7029 0.0
H1676 H 0.76776 0.34616 0.68328 0.0
H1677 H 0.75546 0.34742 0.64112 0.0
H1678 H 0.74635 0.32931 0.72129 0.0
H1679 H 0.77221 0.39975 0.69939 0.0
H1680 H 0.76774 0.43608 0.6829 0.0
H1681 H 0.71369 0.45009 0.73545 0.0
H1682 H 0.7176 0.41374 0.75206 0.0
H1683 H 0.80609 0.3358 0.83288 0.0
H1684 H 0.79513 0.33914 0.79069 0.0
H1685 H 0.73356 0.37696 0.81033 0.0
H1686 H 0.74481 0.37414 0.85272 0.0
H1687 H 0.75492 0.39379 0.77229 0.0
H1688 H 0.72863 0.3234 0.79391 0.0
H1689 H 0.73284 0.28707 0.81044 0.0
H1690 H 0.78733 0.27293 0.75838 0.0
H1691 H 0.78367 0.30929 0.74174 0.0
C1692 C 0.71009 0.37683 0.66543 0.0
C1693 C 0.7237 0.36655 0.64756 0.0
C1694 C 0.71705 0.37594 0.68952 0.0
C1695 C 0.73793 0.36498 0.69632 0.0
C1696 C 0.7516 0.35475 0.67851 0.0
C1697 C 0.74458 0.35554 0.65439 0.0
C1698 C 0.74508 0.36367 0.72205 0.0
C1699 C 0.74858 0.34344 0.73233 0.0
C1700 C 0.74736 0.38205 0.73672 0.0
C1701 C 0.74505 0.40395 0.72683 0.0
C1702 C 0.75925 0.41053 0.70732 0.0
C1703 C 0.75684 0.43113 0.69797 0.0
C1704 C 0.7404 0.44536 0.70809 0.0
C1705 C 0.72639 0.43904 0.72762 0.0
C1706 C 0.72872 0.41845 0.73702 0.0
C1707 C 0.79017 0.34481 0.82829 0.0
C1708 C 0.77624 0.35459 0.84624 0.0
C1709 C 0.78387 0.34663 0.8041 0.0
C1710 C 0.76327 0.35799 0.79726 0.0
C1711 C 0.74949 0.36804 0.81512 0.0
C1712 C 0.7559 0.36637 0.83937 0.0
C1713 C 0.75623 0.35943 0.7715 0.0
C1714 C 0.75272 0.37967 0.76123 0.0
C1715 C 0.75389 0.34105 0.75683 0.0
C1716 C 0.75602 0.31914 0.76672 0.0
C1717 C 0.74163 0.3126 0.78609 0.0
C1718 C 0.7439 0.29199 0.79547 0.0
C1719 C 0.76039 0.27772 0.78551 0.0
C1720 C 0.77459 0.28401 0.7661 0.0
C1721 C 0.77241 0.30461 0.75667 0.0
H1722 H 0.76212 0.26178 0.79279 0.0
H1723 H 0.73856 0.46131 0.70082 0.0
H1724 H 0.30893 0.35038 0.6659 0.0
H1725 H 0.27874 0.34269 0.69669 0.0
H1726 H 0.30152 0.39818 0.73654 0.0
H1727 H 0.33191 0.4056 0.70643 0.0
H1728 H 0.29273 0.36704 0.76646 0.0
H1729 H 0.25201 0.39864 0.69798 0.0
H1730 H 0.23944 0.40033 0.65558 0.0
H1731 H 0.20526 0.33917 0.66227 0.0
H1732 H 0.21789 0.33703 0.70466 0.0
H1733 H 0.16786 0.40548 0.80168 0.0
H1734 H 0.19798 0.39762 0.77148 0.0
H1735 H 0.22159 0.34311 0.81249 0.0
H1736 H 0.19161 0.35123 0.84338 0.0
H1737 H 0.20722 0.36593 0.74222 0.0
H1738 H 0.28269 0.33851 0.80469 0.0
H1739 H 0.29522 0.34167 0.84703 0.0
H1740 H 0.25969 0.40232 0.85228 0.0
H1741 H 0.2472 0.39962 0.80993 0.0
C1742 C 0.3076 0.36083 0.68133 0.0
C1743 C 0.32275 0.37869 0.6836 0.0
C1744 C 0.29032 0.35644 0.69889 0.0
C1745 C 0.2877 0.36996 0.71885 0.0
C1746 C 0.30323 0.38744 0.72139 0.0
C1747 C 0.32056 0.39173 0.70403 0.0
C1748 C 0.26816 0.36688 0.73664 0.0
C1749 C 0.27404 0.36651 0.76114 0.0
C1750 C 0.24374 0.36626 0.72978 0.0
C1751 C 0.23615 0.36755 0.70435 0.0
C1752 C 0.24197 0.38549 0.69034 0.0
C1753 C 0.23481 0.38654 0.66633 0.0
C1754 C 0.22163 0.36984 0.65622 0.0
C1755 C 0.21552 0.35207 0.67012 0.0
C1756 C 0.22267 0.35093 0.69413 0.0
C1757 C 0.17931 0.39171 0.80432 0.0
C1758 C 0.17744 0.37911 0.82513 0.0
C1759 C 0.19647 0.38716 0.78689 0.0
C1760 C 0.21219 0.36988 0.78975 0.0
C1761 C 0.20984 0.3567 0.81004 0.0
C1762 C 0.19267 0.36133 0.82765 0.0
C1763 C 0.23179 0.36678 0.77203 0.0
C1764 C 0.22592 0.36587 0.74755 0.0
C1765 C 0.25621 0.36681 0.77889 0.0
C1766 C 0.26376 0.36871 0.80429 0.0
C1767 C 0.27759 0.35252 0.8149 0.0
C1768 C 0.28469 0.35424 0.83889 0.0
C1769 C 0.27817 0.37214 0.85237 0.0
C1770 C 0.26464 0.38842 0.84186 0.0
C1771 C 0.25753 0.38679 0.81788 0.0
H1772 H 0.28366 0.37343 0.87093 0.0
H1773 H 0.2161 0.37068 0.63763 0.0
H1774 H 0.29265 0.63749 0.35399 0.0
H1775 H 0.2602 0.64453 0.32529 0.0
H1776 H 0.3064 0.62578 0.26695 0.0
H1777 H 0.33861 0.61816 0.29548 0.0
H1778 H 0.27399 0.66479 0.25956 0.0
H1779 H 0.27518 0.58933 0.28409 0.0
H1780 H 0.27473 0.56111 0.31497 0.0
H1781 H 0.2082 0.58537 0.34253 0.0
H1782 H 0.20849 0.61394 0.31199 0.0
H1783 H 0.20139 0.63216 0.16209 0.0
H1784 H 0.23071 0.63918 0.1937 0.0
H1785 H 0.17576 0.62992 0.24734 0.0
H1786 H 0.14696 0.62141 0.21576 0.0
H1787 H 0.21071 0.60915 0.26061 0.0
H1788 H 0.20439 0.68082 0.23377 0.0
H1789 H 0.20352 0.71081 0.20513 0.0
H1790 H 0.27628 0.69767 0.18485 0.0
H1791 H 0.2775 0.6674 0.21313 0.0
C1792 C 0.29599 0.63525 0.33501 0.0
C1793 C 0.31804 0.6271 0.32694 0.0
C1794 C 0.2775 0.6393 0.31868 0.0
C1795 C 0.28101 0.63568 0.29407 0.0
C1796 C 0.30345 0.62877 0.28587 0.0
C1797 C 0.32173 0.62429 0.30219 0.0
C1798 C 0.26067 0.63663 0.27713 0.0
C1799 C 0.26009 0.65268 0.25962 0.0
C1800 C 0.24228 0.62118 0.27784 0.0
C1801 C 0.24201 0.60389 0.29599 0.0
C1802 C 0.26058 0.58875 0.29688 0.0
C1803 C 0.26033 0.57268 0.31428 0.0
C1804 C 0.24149 0.57149 0.33075 0.0
C1805 C 0.22281 0.58634 0.32979 0.0
C1806 C 0.22301 0.60246 0.31244 0.0
C1807 C 0.19557 0.63196 0.18063 0.0
C1808 C 0.17201 0.62615 0.18655 0.0
C1809 C 0.21229 0.63614 0.19874 0.0
C1810 C 0.20551 0.63533 0.22306 0.0
C1811 C 0.18157 0.63054 0.2288 0.0
C1812 C 0.16509 0.62573 0.21076 0.0
C1813 C 0.22373 0.63737 0.24248 0.0
C1814 C 0.22412 0.62169 0.26054 0.0
C1815 C 0.24158 0.65351 0.24251 0.0
C1816 C 0.24096 0.67172 0.22546 0.0
C1817 C 0.22015 0.68422 0.22308 0.0
C1818 C 0.2196 0.70129 0.20693 0.0
C1819 C 0.23981 0.70612 0.19315 0.0
C1820 C 0.26063 0.69391 0.19553 0.0
C1821 C 0.26127 0.67681 0.21165 0.0
H1822 H 0.23935 0.71934 0.18065 0.0
H1823 H 0.24132 0.55904 0.34421 0.0
loop_
_geom_bond_atom_site_label_1
_geom_bond_atom_site_label_2
_geom_bond_distance
_geom_bond_site_symmetry_2
_ccdc_geom_bond_type
Zn0 O3 2.031 . S
Zn0 O5 2.049 . S
Zn0 O10 2.067 . S
Zn1 O2 1.962 . S
Zn1 O4 1.986 . S
Zn1 O6 1.996 . S
Zn1 O9 1.943 . S
O2 Zn1 1.962 . S
O2 C7 1.254 . S
O3 Zn0 2.031 . S
O3 C7 1.269 . S
O4 Zn1 1.986 . S
O4 C11 1.262 . S
O5 Zn0 2.049 . S
O5 C13 1.260 . S
O6 Zn1 1.996 . S
O6 C13 1.257 . S
C7 O2 1.254 . S
C7 O3 1.269 . S
C8 O9 1.249 . S
C8 O10 1.270 . S
O9 Zn1 1.943 . S
O9 C8 1.249 . S
O10 Zn0 2.067 . S
O10 C8 1.270 . S
C11 O4 1.262 . S
C11 O12 1.232 . S
O12 C11 1.232 . S
C13 O5 1.260 . S
C13 O6 1.257 . S
Zn14 O17 2.031 . S
Zn14 O19 2.049 . S
Zn14 O24 2.067 . S
Zn15 O16 1.962 . S
Zn15 O18 1.986 . S
Zn15 O20 1.996 . S
Zn15 O23 1.943 . S
O16 Zn15 1.962 . S
O16 C21 1.254 . S
O17 Zn14 2.031 . S
O17 C21 1.269 . S
O18 Zn15 1.986 . S
O18 C25 1.262 . S
O19 Zn14 2.049 . S
O19 C27 1.260 . S
O20 Zn15 1.996 . S
O20 C27 1.257 . S
C21 O16 1.254 . S
C21 O17 1.269 . S
C22 O23 1.249 . S
C22 O24 1.270 . S
O23 Zn15 1.943 . S
O23 C22 1.249 . S
O24 Zn14 2.067 . S
O24 C22 1.270 . S
C25 O18 1.262 . S
C25 O26 1.232 . S
O26 C25 1.232 . S
C27 O19 1.260 . S
C27 O20 1.257 . S
Zn28 O31 2.031 . S
Zn28 O33 2.049 . S
Zn28 O38 2.067 . S
Zn29 O30 1.962 . S
Zn29 O32 1.986 . S
Zn29 O34 1.996 . S
Zn29 O37 1.943 . S
O30 Zn29 1.962 . S
O30 C35 1.254 . S
O31 Zn28 2.031 . S
O31 C35 1.269 . S
O32 Zn29 1.986 . S
O32 C39 1.262 . S
O33 Zn28 2.049 . S
O33 C41 1.260 . S
O34 Zn29 1.996 . S
O34 C41 1.257 . S
C35 O30 1.254 . S
C35 O31 1.269 . S
C36 O37 1.249 . S
C36 O38 1.270 . S
O37 Zn29 1.943 . S
O37 C36 1.249 . S
O38 Zn28 2.067 . S
O38 C36 1.270 . S
C39 O32 1.262 . S
C39 O40 1.232 . S
O40 C39 1.232 . S
C41 O33 1.260 . S
C41 O34 1.257 . S
Zn42 O45 2.031 . S
Zn42 O47 2.049 . S
Zn42 O52 2.067 . S
Zn43 O44 1.962 . S
Zn43 O46 1.986 . S
Zn43 O48 1.996 . S
Zn43 O51 1.943 . S
O44 Zn43 1.962 . S
O44 C49 1.254 . S
O45 Zn42 2.031 . S
O45 C49 1.269 . S
O46 Zn43 1.986 . S
O46 C53 1.262 . S
O47 Zn42 2.049 . S
O47 C55 1.260 . S
O48 Zn43 1.996 . S
O48 C55 1.257 . S
C49 O44 1.254 . S
C49 O45 1.269 . S
C50 O51 1.249 . S
C50 O52 1.270 . S
O51 Zn43 1.943 . S
O51 C50 1.249 . S
O52 Zn42 2.067 . S
O52 C50 1.270 . S
C53 O46 1.262 . S
C53 O54 1.232 . S
O54 C53 1.232 . S
C55 O47 1.260 . S
C55 O48 1.257 . S
Zn56 O59 2.031 . S
Zn56 O61 2.049 . S
Zn56 O66 2.067 . S
Zn57 O58 1.962 . S
Zn57 O60 1.986 . S
Zn57 O62 1.996 . S
Zn57 O65 1.943 . S
O58 Zn57 1.962 . S
O58 C63 1.254 . S
O59 Zn56 2.031 . S
O59 C63 1.269 . S
O60 Zn57 1.986 . S
O60 C67 1.262 . S
O61 Zn56 2.049 . S
O61 C69 1.260 . S
O62 Zn57 1.996 . S
O62 C69 1.257 . S
C63 O58 1.254 . S
C63 O59 1.269 . S
C64 O65 1.249 . S
C64 O66 1.270 . S
O65 Zn57 1.943 . S
O65 C64 1.249 . S
O66 Zn56 2.067 . S
O66 C64 1.270 . S
C67 O60 1.262 . S
C67 O68 1.232 . S
O68 C67 1.232 . S
C69 O61 1.260 . S
C69 O62 1.257 . S
Zn70 O73 2.031 . S
Zn70 O75 2.049 . S
Zn70 O80 2.067 . S
Zn71 O72 1.962 . S
Zn71 O74 1.986 . S
Zn71 O76 1.996 . S
Zn71 O79 1.943 . S
O72 Zn71 1.962 . S
O72 C77 1.254 . S
O73 Zn70 2.031 . S
O73 C77 1.269 . S
O74 Zn71 1.986 . S
O74 C81 1.262 . S
O75 Zn70 2.049 . S
O75 C83 1.260 . S
O76 Zn71 1.996 . S
O76 C83 1.257 . S
C77 O72 1.254 . S
C77 O73 1.269 . S
C78 O79 1.249 . S
C78 O80 1.270 . S
O79 Zn71 1.943 . S
O79 C78 1.249 . S
O80 Zn70 2.067 . S
O80 C78 1.270 . S
C81 O74 1.262 . S
C81 O82 1.232 . S
O82 C81 1.232 . S
C83 O75 1.260 . S
C83 O76 1.257 . S
Zn84 O87 2.031 . S
Zn84 O89 2.049 . S
Zn84 O94 2.067 . S
Zn85 O86 1.962 . S
Zn85 O88 1.986 . S
Zn85 O90 1.996 . S
Zn85 O93 1.943 . S
O86 Zn85 1.962 . S
O86 C91 1.254 . S
O87 Zn84 2.031 . S
O87 C91 1.269 . S
O88 Zn85 1.986 . S
O88 C95 1.262 . S
O89 Zn84 2.049 . S
O89 C97 1.260 . S
O90 Zn85 1.996 . S
O90 C97 1.257 . S
C91 O86 1.254 . S
C91 O87 1.269 . S
C92 O93 1.249 . S
C92 O94 1.270 . S
O93 Zn85 1.943 . S
O93 C92 1.249 . S
O94 Zn84 2.067 . S
O94 C92 1.270 . S
C95 O88 1.262 . S
C95 O96 1.232 . S
O96 C95 1.232 . S
C97 O89 1.260 . S
C97 O90 1.257 . S
Zn98 O101 2.031 . S
Zn98 O103 2.049 . S
Zn98 O108 2.067 . S
Zn99 O100 1.962 . S
Zn99 O102 1.986 . S
Zn99 O104 1.996 . S
Zn99 O107 1.943 . S
O100 Zn99 1.962 . S
O100 C105 1.254 . S
O101 Zn98 2.031 . S
O101 C105 1.269 . S
O102 Zn99 1.986 . S
O102 C109 1.262 . S
O103 Zn98 2.049 . S
O103 C111 1.260 . S
O104 Zn99 1.996 . S
O104 C111 1.257 . S
C105 O100 1.254 . S
C105 O101 1.269 . S
C106 O107 1.249 . S
C106 O108 1.270 . S
O107 Zn99 1.943 . S
O107 C106 1.249 . S
O108 Zn98 2.067 . S
O108 C106 1.270 . S
C109 O102 1.262 . S
C109 O110 1.232 . S
O110 C109 1.232 . S
C111 O103 1.260 . S
C111 O104 1.257 . S
Zn112 O115 2.031 . S
Zn112 O117 2.049 . S
Zn112 O122 2.067 . S
Zn113 O114 1.962 . S
Zn113 O116 1.986 . S
Zn113 O118 1.996 . S
Zn113 O121 1.943 . S
O114 Zn113 1.962 . S
O114 C119 1.254 . S
O115 Zn112 2.031 . S
O115 C119 1.269 . S
O116 Zn113 1.986 . S
O116 C123 1.262 . S
O117 Zn112 2.049 . S
O117 C125 1.260 . S
O118 Zn113 1.996 . S
O118 C125 1.257 . S
C119 O114 1.254 . S
C119 O115 1.269 . S
C120 O121 1.249 . S
C120 O122 1.270 . S
O121 Zn113 1.943 . S
O121 C120 1.249 . S
O122 Zn112 2.067 . S
O122 C120 1.270 . S
C123 O116 1.262 . S
C123 O124 1.232 . S
O124 C123 1.232 . S
C125 O117 1.260 . S
C125 O118 1.257 . S
Zn126 O129 2.031 . S
Zn126 O131 2.049 . S
Zn126 O136 2.067 . S
Zn127 O128 1.962 . S
Zn127 O130 1.986 . S
Zn127 O132 1.996 . S
Zn127 O135 1.943 . S
O128 Zn127 1.962 . S
O128 C133 1.254 . S
O129 Zn126 2.031 . S
O129 C133 1.269 . S
O130 Zn127 1.986 . S
O130 C137 1.262 . S
O131 Zn126 2.049 . S
O131 C139 1.260 . S
O132 Zn127 1.996 . S
O132 C139 1.257 . S
C133 O128 1.254 . S
C133 O129 1.269 . S
C134 O135 1.249 . S
C134 O136 1.270 . S
O135 Zn127 1.943 . S
O135 C134 1.249 . S
O136 Zn126 2.067 . S
O136 C134 1.270 . S
C137 O130 1.262 . S
C137 O138 1.232 . S
O138 C137 1.232 . S
C139 O131 1.260 . S
C139 O132 1.257 . S
Zn140 O143 2.031 . S
Zn140 O145 2.049 . S
Zn140 O150 2.067 . S
Zn141 O142 1.962 . S
Zn141 O144 1.986 . S
Zn141 O146 1.996 . S
Zn141 O149 1.943 . S
O142 Zn141 1.962 . S
O142 C147 1.254 . S
O143 Zn140 2.031 . S
O143 C147 1.269 . S
O144 Zn141 1.986 . S
O144 C151 1.262 . S
O145 Zn140 2.049 . S
O145 C153 1.260 . S
O146 Zn141 1.996 . S
O146 C153 1.257 . S
C147 O142 1.254 . S
C147 O143 1.269 . S
C148 O149 1.249 . S
C148 O150 1.270 . S
O149 Zn141 1.943 . S
O149 C148 1.249 . S
O150 Zn140 2.067 . S
O150 C148 1.270 . S
C151 O144 1.262 . S
C151 O152 1.232 . S
O152 C151 1.232 . S
C153 O145 1.260 . S
C153 O146 1.257 . S
Zn154 O157 2.031 . S
Zn154 O159 2.049 . S
Zn154 O164 2.067 . S
Zn155 O156 1.962 . S
Zn155 O158 1.986 . S
Zn155 O160 1.996 . S
Zn155 O163 1.943 . S
O156 Zn155 1.962 . S
O156 C161 1.254 . S
O157 Zn154 2.031 . S
O157 C161 1.269 . S
O158 Zn155 1.986 . S
O158 C165 1.262 . S
O159 Zn154 2.049 . S
O159 C167 1.260 . S
O160 Zn155 1.996 . S
O160 C167 1.257 . S
C161 O156 1.254 . S
C161 O157 1.269 . S
C162 O163 1.249 . S
C162 O164 1.270 . S
O163 Zn155 1.943 . S
O163 C162 1.249 . S
O164 Zn154 2.067 . S
O164 C162 1.270 . S
C165 O158 1.262 . S
C165 O166 1.232 . S
O166 C165 1.232 . S
C167 O159 1.260 . S
C167 O160 1.257 . S
Zn168 O171 2.031 . S
Zn168 O173 2.049 . S
Zn168 O178 2.067 . S
Zn169 O170 1.962 . S
Zn169 O172 1.986 . S
Zn169 O174 1.996 . S
Zn169 O177 1.943 . S
O170 Zn169 1.962 . S
O170 C175 1.254 . S
O171 Zn168 2.031 . S
O171 C175 1.269 . S
O172 Zn169 1.986 . S
O172 C179 1.262 . S
O173 Zn168 2.049 . S
O173 C181 1.260 . S
O174 Zn169 1.996 . S
O174 C181 1.257 . S
C175 O170 1.254 . S
C175 O171 1.269 . S
C176 O177 1.249 . S
C176 O178 1.270 . S
O177 Zn169 1.943 . S
O177 C176 1.249 . S
O178 Zn168 2.067 . S
O178 C176 1.270 . S
C179 O172 1.262 . S
C179 O180 1.232 . S
O180 C179 1.232 . S
C181 O173 1.260 . S
C181 O174 1.257 . S
Zn182 O185 2.031 . S
Zn182 O187 2.049 . S
Zn182 O192 2.067 . S
Zn183 O184 1.962 . S
Zn183 O186 1.986 . S
Zn183 O188 1.996 . S
Zn183 O191 1.943 . S
O184 Zn183 1.962 . S
O184 C189 1.254 . S
O185 Zn182 2.031 . S
O185 C189 1.269 . S
O186 Zn183 1.986 . S
O186 C193 1.262 . S
O187 Zn182 2.049 . S
O187 C195 1.260 . S
O188 Zn183 1.996 . S
O188 C195 1.257 . S
C189 O184 1.254 . S
C189 O185 1.269 . S
C190 O191 1.249 . S
C190 O192 1.270 . S
O191 Zn183 1.943 . S
O191 C190 1.249 . S
O192 Zn182 2.067 . S
O192 C190 1.270 . S
C193 O186 1.262 . S
C193 O194 1.232 . S
O194 C193 1.232 . S
C195 O187 1.260 . S
C195 O188 1.257 . S
Zn196 O199 2.031 . S
Zn196 O201 2.049 . S
Zn196 O206 2.067 . S
Zn197 O198 1.962 . S
Zn197 O200 1.986 . S
Zn197 O202 1.996 . S
Zn197 O205 1.943 . S
O198 Zn197 1.962 . S
O198 C203 1.254 . S
O199 Zn196 2.031 . S
O199 C203 1.269 . S
O200 Zn197 1.986 . S
O200 C207 1.262 . S
O201 Zn196 2.049 . S
O201 C209 1.260 . S
O202 Zn197 1.996 . S
O202 C209 1.257 . S
C203 O198 1.254 . S
C203 O199 1.269 . S
C204 O205 1.249 . S
C204 O206 1.270 . S
O205 Zn197 1.943 . S
O205 C204 1.249 . S
O206 Zn196 2.067 . S
O206 C204 1.270 . S
C207 O200 1.262 . S
C207 O208 1.232 . S
O208 C207 1.232 . S
C209 O201 1.260 . S
C209 O202 1.257 . S
Zn210 O213 2.031 . S
Zn210 O215 2.049 . S
Zn210 O220 2.067 . S
Zn211 O212 1.962 . S
Zn211 O214 1.986 . S
Zn211 O216 1.996 . S
Zn211 O219 1.943 . S
O212 Zn211 1.962 . S
O212 C217 1.254 . S
O213 Zn210 2.031 . S
O213 C217 1.269 . S
O214 Zn211 1.986 . S
O214 C221 1.262 . S
O215 Zn210 2.049 . S
O215 C223 1.260 . S
O216 Zn211 1.996 . S
O216 C223 1.257 . S
C217 O212 1.254 . S
C217 O213 1.269 . S
C218 O219 1.249 . S
C218 O220 1.270 . S
O219 Zn211 1.943 . S
O219 C218 1.249 . S
O220 Zn210 2.067 . S
O220 C218 1.270 . S
C221 O214 1.262 . S
C221 O222 1.232 . S
O222 C221 1.232 . S
C223 O215 1.260 . S
C223 O216 1.257 . S
H224 C242 0.951 . S
H225 C244 0.951 . S
H226 C246 0.950 . S
H227 C247 0.950 . S
H228 C249 0.950 . S
H229 C252 0.950 . S
H230 C253 0.950 . S
H231 C255 0.950 . S
H232 C256 0.950 . S
H233 C257 0.951 . S
H234 C259 0.951 . S
H235 C261 0.950 . S
H236 C262 0.950 . S
H237 C264 0.950 . S
H238 C267 0.950 . S
H239 C268 0.950 . S
H240 C270 0.950 . S
H241 C271 0.950 . S
C242 H224 0.951 . S
C242 C243 1.366 . S
C242 C244 1.388 . S
C243 C242 1.366 . S
C243 C247 1.385 . S
C244 H225 0.951 . S
C244 C242 1.388 . S
C244 C245 1.366 . S
C245 C244 1.366 . S
C245 C246 1.414 . S
C245 C248 1.499 . S
C246 H226 0.950 . S
C246 C245 1.414 . S
C246 C247 1.374 . S
C247 H227 0.950 . S
C247 C243 1.385 . S
C247 C246 1.374 . S
C248 C245 1.499 . S
C248 C249 1.373 . S
C248 C250 1.389 1_554 S
C249 H228 0.950 . S
C249 C248 1.373 . S
C249 C265 1.377 . S
C250 C248 1.389 1_556 S
C250 C251 1.524 . S
C250 C264 1.377 . S
C251 C250 1.524 . S
C251 C252 1.397 . S
C251 C256 1.363 . S
C252 H229 0.950 . S
C252 C251 1.397 . S
C252 C253 1.334 . S
C253 H230 0.950 . S
C253 C252 1.334 . S
C253 C254 1.287 . S
C254 C253 1.287 . S
C254 C255 1.524 . S
C254 H273 0.913 . S
C255 H231 0.950 . S
C255 C254 1.524 . S
C255 C256 1.415 . S
C256 H232 0.950 . S
C256 C251 1.363 . S
C256 C255 1.415 . S
C257 H233 0.951 . S
C257 C258 1.366 . S
C257 C259 1.388 . S
C258 C257 1.366 . S
C258 C262 1.385 . S
C259 H234 0.951 . S
C259 C257 1.388 . S
C259 C260 1.366 . S
C260 C259 1.366 . S
C260 C261 1.414 . S
C260 C263 1.499 . S
C261 H235 0.950 . S
C261 C260 1.414 . S
C261 C262 1.374 . S
C262 H236 0.950 . S
C262 C258 1.385 . S
C262 C261 1.374 . S
C263 C260 1.499 . S
C263 C264 1.373 . S
C263 C265 1.389 1_556 S
C264 H237 0.950 . S
C264 C250 1.377 . S
C264 C263 1.373 . S
C265 C249 1.377 . S
C265 C263 1.389 1_554 S
C265 C266 1.524 . S
C266 C265 1.524 . S
C266 C267 1.397 . S
C266 C271 1.363 . S
C267 H238 0.950 . S
C267 C266 1.397 . S
C267 C268 1.334 . S
C268 H239 0.950 . S
C268 C267 1.334 . S
C268 C269 1.287 . S
C269 C268 1.287 . S
C269 C270 1.524 . S
C269 H272 0.999 . S
C270 H240 0.950 . S
C270 C269 1.524 . S
C270 C271 1.415 . S
C271 H241 0.950 . S
C271 C266 1.363 . S
C271 C270 1.415 . S
H272 C269 0.999 . S
H273 C254 0.913 . S
H274 C292 0.951 . S
H275 C294 0.951 . S
H276 C296 0.950 . S
H277 C297 0.950 . S
H278 C299 0.950 . S
H279 C302 0.950 . S
H280 C303 0.950 . S
H281 C305 0.950 . S
H282 C306 0.950 . S
H283 C307 0.951 . S
H284 C309 0.951 . S
H285 C311 0.950 . S
H286 C312 0.950 . S
H287 C314 0.950 . S
H288 C317 0.950 . S
H289 C318 0.950 . S
H290 C320 0.950 . S
H291 C321 0.950 . S
C292 H274 0.951 . S
C292 C293 1.366 . S
C292 C294 1.388 . S
C293 C292 1.366 . S
C293 C297 1.385 . S
C294 H275 0.951 . S
C294 C292 1.388 . S
C294 C295 1.366 . S
C295 C294 1.366 . S
C295 C296 1.414 . S
C295 C298 1.499 . S
C296 H276 0.950 . S
C296 C295 1.414 . S
C296 C297 1.374 . S
C297 H277 0.950 . S
C297 C293 1.385 . S
C297 C296 1.374 . S
C298 C295 1.499 . S
C298 C299 1.373 . S
C298 C300 1.389 . S
C299 H278 0.950 . S
C299 C298 1.373 . S
C299 C315 1.377 . S
C300 C298 1.389 . S
C300 C301 1.524 . S
C300 C314 1.377 . S
C301 C300 1.524 . S
C301 C302 1.397 . S
C301 C306 1.363 . S
C302 H279 0.950 . S
C302 C301 1.397 . S
C302 C303 1.334 . S
C303 H280 0.950 . S
C303 C302 1.334 . S
C303 C304 1.287 . S
C304 C303 1.287 . S
C304 C305 1.524 . S
C304 H323 0.913 . S
C305 H281 0.950 . S
C305 C304 1.524 . S
C305 C306 1.415 . S
C306 H282 0.950 . S
C306 C301 1.363 . S
C306 C305 1.415 . S
C307 H283 0.951 . S
C307 C308 1.366 . S
C307 C309 1.388 . S
C308 C307 1.366 . S
C308 C312 1.385 . S
C309 H284 0.951 . S
C309 C307 1.388 . S
C309 C310 1.366 . S
C310 C309 1.366 . S
C310 C311 1.414 . S
C310 C313 1.499 . S
C311 H285 0.950 . S
C311 C310 1.414 . S
C311 C312 1.374 . S
C312 H286 0.950 . S
C312 C308 1.385 . S
C312 C311 1.374 . S
C313 C310 1.499 . S
C313 C314 1.373 . S
C313 C315 1.389 . S
C314 H287 0.950 . S
C314 C300 1.377 . S
C314 C313 1.373 . S
C315 C299 1.377 . S
C315 C313 1.389 . S
C315 C316 1.524 . S
C316 C315 1.524 . S
C316 C317 1.397 . S
C316 C321 1.363 . S
C317 H288 0.950 . S
C317 C316 1.397 . S
C317 C318 1.334 . S
C318 H289 0.950 . S
C318 C317 1.334 . S
C318 C319 1.287 . S
C319 C318 1.287 . S
C319 C320 1.524 . S
C319 H322 0.999 . S
C320 H290 0.950 . S
C320 C319 1.524 . S
C320 C321 1.415 . S
C321 H291 0.950 . S
C321 C316 1.363 . S
C321 C320 1.415 . S
H322 C319 0.999 . S
H323 C304 0.913 . S
H324 C342 0.951 . S
H325 C344 0.951 . S
H326 C346 0.950 . S
H327 C347 0.950 . S
H328 C349 0.950 . S
H329 C352 0.950 . S
H330 C353 0.950 . S
H331 C355 0.950 . S
H332 C356 0.950 1_554 S
H333 C357 0.951 . S
H334 C359 0.951 . S
H335 C361 0.950 . S
H336 C362 0.950 . S
H337 C364 0.950 . S
H338 C367 0.950 . S
H339 C368 0.950 . S
H340 C370 0.950 . S
H341 C371 0.950 1_556 S
C342 H324 0.951 . S
C342 C343 1.366 . S
C342 C344 1.388 . S
C343 C342 1.366 . S
C343 C347 1.385 . S
C344 H325 0.951 . S
C344 C342 1.388 . S
C344 C345 1.366 . S
C345 C344 1.366 . S
C345 C346 1.414 . S
C345 C348 1.499 . S
C346 H326 0.950 . S
C346 C345 1.414 . S
C346 C347 1.374 . S
C347 H327 0.950 . S
C347 C343 1.385 . S
C347 C346 1.374 . S
C348 C345 1.499 . S
C348 C349 1.373 . S
C348 C350 1.389 . S
C349 H328 0.950 . S
C349 C348 1.373 . S
C349 C365 1.377 1_556 S
C350 C348 1.389 . S
C350 C351 1.524 . S
C350 C364 1.377 1_556 S
C351 C350 1.524 . S
C351 C352 1.397 . S
C351 C356 1.363 . S
C352 H329 0.950 . S
C352 C351 1.397 . S
C352 C353 1.334 . S
C353 H330 0.950 . S
C353 C352 1.334 . S
C353 C354 1.287 . S
C354 C353 1.287 . S
C354 C355 1.524 . S
C354 H373 0.913 . S
C355 H331 0.950 . S
C355 C354 1.524 . S
C355 C356 1.415 . S
C356 H332 0.950 1_556 S
C356 C351 1.363 . S
C356 C355 1.415 . S
C357 H333 0.951 . S
C357 C358 1.366 . S
C357 C359 1.388 . S
C358 C357 1.366 . S
C358 C362 1.385 . S
C359 H334 0.951 . S
C359 C357 1.388 . S
C359 C360 1.366 . S
C360 C359 1.366 . S
C360 C361 1.414 . S
C360 C363 1.499 . S
C361 H335 0.950 . S
C361 C360 1.414 . S
C361 C362 1.374 . S
C362 H336 0.950 . S
C362 C358 1.385 . S
C362 C361 1.374 . S
C363 C360 1.499 . S
C363 C364 1.373 . S
C363 C365 1.389 . S
C364 H337 0.950 . S
C364 C350 1.377 1_554 S
C364 C363 1.373 . S
C365 C349 1.377 1_554 S
C365 C363 1.389 . S
C365 C366 1.524 . S
C366 C365 1.524 . S
C366 C367 1.397 . S
C366 C371 1.363 . S
C367 H338 0.950 . S
C367 C366 1.397 . S
C367 C368 1.334 . S
C368 H339 0.950 . S
C368 C367 1.334 . S
C368 C369 1.287 . S
C369 C368 1.287 . S
C369 C370 1.524 . S
C369 H372 0.999 . S
C370 H340 0.950 . S
C370 C369 1.524 . S
C370 C371 1.415 . S
C371 H341 0.950 1_554 S
C371 C366 1.363 . S
C371 C370 1.415 . S
H372 C369 0.999 . S
H373 C354 0.913 . S
H374 C392 0.951 . S
H375 C394 0.951 . S
H376 C396 0.950 . S
H377 C397 0.950 . S
H378 C399 0.950 . S
H379 C402 0.950 . S
H380 C403 0.950 . S
H381 C405 0.950 . S
H382 C406 0.950 . S
H383 C407 0.951 . S
H384 C409 0.951 . S
H385 C411 0.950 . S
H386 C412 0.950 . S
H387 C414 0.950 . S
H388 C417 0.950 . S
H389 C418 0.950 . S
H390 C420 0.950 . S
H391 C421 0.950 . S
C392 H374 0.951 . S
C392 C393 1.366 . S
C392 C394 1.388 . S
C393 C392 1.366 . S
C393 C397 1.385 . S
C394 H375 0.951 . S
C394 C392 1.388 . S
C394 C395 1.366 . S
C395 C394 1.366 . S
C395 C396 1.414 . S
C395 C398 1.499 . S
C396 H376 0.950 . S
C396 C395 1.414 . S
C396 C397 1.374 . S
C397 H377 0.950 . S
C397 C393 1.385 . S
C397 C396 1.374 . S
C398 C395 1.499 . S
C398 C399 1.373 . S
C398 C400 1.389 . S
C399 H378 0.950 . S
C399 C398 1.373 . S
C399 C415 1.377 . S
C400 C398 1.389 . S
C400 C401 1.524 . S
C400 C414 1.377 . S
C401 C400 1.524 . S
C401 C402 1.397 . S
C401 C406 1.363 . S
C402 H379 0.950 . S
C402 C401 1.397 . S
C402 C403 1.334 . S
C403 H380 0.950 . S
C403 C402 1.334 . S
C403 C404 1.287 . S
C404 C403 1.287 . S
C404 C405 1.524 . S
C404 H423 0.913 . S
C405 H381 0.950 . S
C405 C404 1.524 . S
C405 C406 1.415 . S
C406 H382 0.950 . S
C406 C401 1.363 . S
C406 C405 1.415 . S
C407 H383 0.951 . S
C407 C408 1.366 . S
C407 C409 1.388 . S
C408 C407 1.366 . S
C408 C412 1.385 . S
C409 H384 0.951 . S
C409 C407 1.388 . S
C409 C410 1.366 . S
C410 C409 1.366 . S
C410 C411 1.414 . S
C410 C413 1.499 . S
C411 H385 0.950 . S
C411 C410 1.414 . S
C411 C412 1.374 . S
C412 H386 0.950 . S
C412 C408 1.385 . S
C412 C411 1.374 . S
C413 C410 1.499 . S
C413 C414 1.373 . S
C413 C415 1.389 . S
C414 H387 0.950 . S
C414 C400 1.377 . S
C414 C413 1.373 . S
C415 C399 1.377 . S
C415 C413 1.389 . S
C415 C416 1.524 . S
C416 C415 1.524 . S
C416 C417 1.397 . S
C416 C421 1.363 . S
C417 H388 0.950 . S
C417 C416 1.397 . S
C417 C418 1.334 . S
C418 H389 0.950 . S
C418 C417 1.334 . S
C418 C419 1.287 . S
C419 C418 1.287 . S
C419 C420 1.524 . S
C419 H422 0.999 . S
C420 H390 0.950 . S
C420 C419 1.524 . S
C420 C421 1.415 . S
C421 H391 0.950 . S
C421 C416 1.363 . S
C421 C420 1.415 . S
H422 C419 0.999 . S
H423 C404 0.913 . S
H424 C442 0.951 . S
H425 C444 0.951 . S
H426 C446 0.950 . S
H427 C447 0.950 . S
H428 C449 0.950 . S
H429 C452 0.950 . S
H430 C453 0.950 . S
H431 C455 0.950 . S
H432 C456 0.950 . S
H433 C457 0.951 . S
H434 C459 0.951 . S
H435 C461 0.950 . S
H436 C462 0.950 . S
H437 C464 0.950 . S
H438 C467 0.950 . S
H439 C468 0.950 . S
H440 C470 0.950 . S
H441 C471 0.950 . S
C442 H424 0.951 . S
C442 C443 1.366 . S
C442 C444 1.388 . S
C443 C442 1.366 . S
C443 C447 1.385 . S
C444 H425 0.951 . S
C444 C442 1.388 . S
C444 C445 1.366 . S
C445 C444 1.366 . S
C445 C446 1.414 . S
C445 C448 1.499 . S
C446 H426 0.950 . S
C446 C445 1.414 . S
C446 C447 1.374 . S
C447 H427 0.950 . S
C447 C443 1.385 . S
C447 C446 1.374 . S
C448 C445 1.499 . S
C448 C449 1.373 . S
C448 C450 1.389 1_554 S
C449 H428 0.950 . S
C449 C448 1.373 . S
C449 C465 1.377 . S
C450 C448 1.389 1_556 S
C450 C451 1.524 . S
C450 C464 1.377 . S
C451 C450 1.524 . S
C451 C452 1.397 . S
C451 C456 1.363 . S
C452 H429 0.950 . S
C452 C451 1.397 . S
C452 C453 1.334 . S
C453 H430 0.950 . S
C453 C452 1.334 . S
C453 C454 1.287 . S
C454 C453 1.287 . S
C454 C455 1.524 . S
C454 H473 0.913 . S
C455 H431 0.950 . S
C455 C454 1.524 . S
C455 C456 1.415 . S
C456 H432 0.950 . S
C456 C451 1.363 . S
C456 C455 1.415 . S
C457 H433 0.951 . S
C457 C458 1.366 . S
C457 C459 1.388 . S
C458 C457 1.366 . S
C458 C462 1.385 . S
C459 H434 0.951 . S
C459 C457 1.388 . S
C459 C460 1.366 . S
C460 C459 1.366 . S
C460 C461 1.414 . S
C460 C463 1.499 . S
C461 H435 0.950 . S
C461 C460 1.414 . S
C461 C462 1.374 . S
C462 H436 0.950 . S
C462 C458 1.385 . S
C462 C461 1.374 . S
C463 C460 1.499 . S
C463 C464 1.373 . S
C463 C465 1.389 1_556 S
C464 H437 0.950 . S
C464 C450 1.377 . S
C464 C463 1.373 . S
C465 C449 1.377 . S
C465 C463 1.389 1_554 S
C465 C466 1.524 . S
C466 C465 1.524 . S
C466 C467 1.397 . S
C466 C471 1.363 . S
C467 H438 0.950 . S
C467 C466 1.397 . S
C467 C468 1.334 . S
C468 H439 0.950 . S
C468 C467 1.334 . S
C468 C469 1.287 . S
C469 C468 1.287 . S
C469 C470 1.524 . S
C469 H472 0.999 . S
C470 H440 0.950 . S
C470 C469 1.524 . S
C470 C471 1.415 . S
C471 H441 0.950 . S
C471 C466 1.363 . S
C471 C470 1.415 . S
H472 C469 0.999 . S
H473 C454 0.913 . S
H474 C492 0.951 . S
H475 C494 0.951 . S
H476 C496 0.950 . S
H477 C497 0.950 . S
H478 C499 0.950 . S
H479 C502 0.950 . S
H480 C503 0.950 . S
H481 C505 0.950 . S
H482 C506 0.950 . S
H483 C507 0.951 . S
H484 C509 0.951 . S
H485 C511 0.950 . S
H486 C512 0.950 . S
H487 C514 0.950 . S
H488 C517 0.950 . S
H489 C518 0.950 . S
H490 C520 0.950 . S
H491 C521 0.950 . S
C492 H474 0.951 . S
C492 C493 1.366 . S
C492 C494 1.388 . S
C493 C492 1.366 . S
C493 C497 1.385 . S
C494 H475 0.951 . S
C494 C492 1.388 . S
C494 C495 1.366 . S
C495 C494 1.366 . S
C495 C496 1.414 . S
C495 C498 1.499 . S
C496 H476 0.950 . S
C496 C495 1.414 . S
C496 C497 1.374 . S
C497 H477 0.950 . S
C497 C493 1.385 . S
C497 C496 1.374 . S
C498 C495 1.499 . S
C498 C499 1.373 . S
C498 C500 1.389 . S
C499 H478 0.950 . S
C499 C498 1.373 . S
C499 C515 1.377 . S
C500 C498 1.389 . S
C500 C501 1.524 . S
C500 C514 1.377 . S
C501 C500 1.524 . S
C501 C502 1.397 . S
C501 C506 1.363 . S
C502 H479 0.950 . S
C502 C501 1.397 . S
C502 C503 1.334 . S
C503 H480 0.950 . S
C503 C502 1.334 . S
C503 C504 1.287 . S
C504 C503 1.287 . S
C504 C505 1.524 . S
C504 H523 0.913 . S
C505 H481 0.950 . S
C505 C504 1.524 . S
C505 C506 1.415 . S
C506 H482 0.950 . S
C506 C501 1.363 . S
C506 C505 1.415 . S
C507 H483 0.951 . S
C507 C508 1.366 . S
C507 C509 1.388 . S
C508 C507 1.366 . S
C508 C512 1.385 . S
C509 H484 0.951 . S
C509 C507 1.388 . S
C509 C510 1.366 . S
C510 C509 1.366 . S
C510 C511 1.414 . S
C510 C513 1.499 . S
C511 H485 0.950 . S
C511 C510 1.414 . S
C511 C512 1.374 . S
C512 H486 0.950 . S
C512 C508 1.385 . S
C512 C511 1.374 . S
C513 C510 1.499 . S
C513 C514 1.373 . S
C513 C515 1.389 . S
C514 H487 0.950 . S
C514 C500 1.377 . S
C514 C513 1.373 . S
C515 C499 1.377 . S
C515 C513 1.389 . S
C515 C516 1.524 . S
C516 C515 1.524 . S
C516 C517 1.397 . S
C516 C521 1.363 . S
C517 H488 0.950 . S
C517 C516 1.397 . S
C517 C518 1.334 . S
C518 H489 0.950 . S
C518 C517 1.334 . S
C518 C519 1.287 . S
C519 C518 1.287 . S
C519 C520 1.524 . S
C519 H522 0.999 . S
C520 H490 0.950 . S
C520 C519 1.524 . S
C520 C521 1.415 . S
C521 H491 0.950 . S
C521 C516 1.363 . S
C521 C520 1.415 . S
H522 C519 0.999 . S
H523 C504 0.913 . S
H524 C542 0.951 . S
H525 C544 0.951 . S
H526 C546 0.950 . S
H527 C547 0.950 . S
H528 C549 0.950 . S
H529 C552 0.950 . S
H530 C553 0.950 . S
H531 C555 0.950 . S
H532 C556 0.950 . S
H533 C557 0.951 . S
H534 C559 0.951 . S
H535 C561 0.950 . S
H536 C562 0.950 . S
H537 C564 0.950 . S
H538 C567 0.950 . S
H539 C568 0.950 . S
H540 C570 0.950 . S
H541 C571 0.950 . S
C542 H524 0.951 . S
C542 C543 1.366 . S
C542 C544 1.388 . S
C543 C542 1.366 . S
C543 C547 1.385 . S
C544 H525 0.951 . S
C544 C542 1.388 . S
C544 C545 1.366 . S
C545 C544 1.366 . S
C545 C546 1.414 . S
C545 C548 1.499 . S
C546 H526 0.950 . S
C546 C545 1.414 . S
C546 C547 1.374 . S
C547 H527 0.950 . S
C547 C543 1.385 . S
C547 C546 1.374 . S
C548 C545 1.499 . S
C548 C549 1.373 . S
C548 C550 1.389 1_556 S
C549 H528 0.950 . S
C549 C548 1.373 . S
C549 C565 1.377 . S
C550 C548 1.389 1_554 S
C550 C551 1.524 . S
C550 C564 1.377 . S
C551 C550 1.524 . S
C551 C552 1.397 . S
C551 C556 1.363 . S
C552 H529 0.950 . S
C552 C551 1.397 . S
C552 C553 1.334 . S
C553 H530 0.950 . S
C553 C552 1.334 . S
C553 C554 1.287 . S
C554 C553 1.287 . S
C554 C555 1.524 . S
C554 H573 0.913 . S
C555 H531 0.950 . S
C555 C554 1.524 . S
C555 C556 1.415 . S
C556 H532 0.950 . S
C556 C551 1.363 . S
C556 C555 1.415 . S
C557 H533 0.951 . S
C557 C558 1.366 . S
C557 C559 1.388 . S
C558 C557 1.366 . S
C558 C562 1.385 . S
C559 H534 0.951 . S
C559 C557 1.388 . S
C559 C560 1.366 . S
C560 C559 1.366 . S
C560 C561 1.414 . S
C560 C563 1.499 . S
C561 H535 0.950 . S
C561 C560 1.414 . S
C561 C562 1.374 . S
C562 H536 0.950 . S
C562 C558 1.385 . S
C562 C561 1.374 . S
C563 C560 1.499 . S
C563 C564 1.373 . S
C563 C565 1.389 1_554 S
C564 H537 0.950 . S
C564 C550 1.377 . S
C564 C563 1.373 . S
C565 C549 1.377 . S
C565 C563 1.389 1_556 S
C565 C566 1.524 . S
C566 C565 1.524 . S
C566 C567 1.397 . S
C566 C571 1.363 . S
C567 H538 0.950 . S
C567 C566 1.397 . S
C567 C568 1.334 . S
C568 H539 0.950 . S
C568 C567 1.334 . S
C568 C569 1.287 . S
C569 C568 1.287 . S
C569 C570 1.524 . S
C569 H572 0.999 . S
C570 H540 0.950 . S
C570 C569 1.524 . S
C570 C571 1.415 . S
C571 H541 0.950 . S
C571 C566 1.363 . S
C571 C570 1.415 . S
H572 C569 0.999 . S
H573 C554 0.913 . S
H574 C592 0.951 . S
H575 C594 0.951 . S
H576 C596 0.950 . S
H577 C597 0.950 . S
H578 C599 0.950 . S
H579 C602 0.950 . S
H580 C603 0.950 . S
H581 C605 0.950 . S
H582 C606 0.950 . S
H583 C607 0.951 . S
H584 C609 0.951 . S
H585 C611 0.950 . S
H586 C612 0.950 . S
H587 C614 0.950 . S
H588 C617 0.950 . S
H589 C618 0.950 . S
H590 C620 0.950 . S
H591 C621 0.950 . S
C592 H574 0.951 . S
C592 C593 1.366 . S
C592 C594 1.388 . S
C593 C592 1.366 . S
C593 C597 1.385 . S
C594 H575 0.951 . S
C594 C592 1.388 . S
C594 C595 1.366 . S
C595 C594 1.366 . S
C595 C596 1.414 . S
C595 C598 1.499 . S
C596 H576 0.950 . S
C596 C595 1.414 . S
C596 C597 1.374 . S
C597 H577 0.950 . S
C597 C593 1.385 . S
C597 C596 1.374 . S
C598 C595 1.499 . S
C598 C599 1.373 . S
C598 C600 1.389 . S
C599 H578 0.950 . S
C599 C598 1.373 . S
C599 C615 1.377 . S
C600 C598 1.389 . S
C600 C601 1.524 . S
C600 C614 1.377 . S
C601 C600 1.524 . S
C601 C602 1.397 . S
C601 C606 1.363 . S
C602 H579 0.950 . S
C602 C601 1.397 . S
C602 C603 1.334 . S
C603 H580 0.950 . S
C603 C602 1.334 . S
C603 C604 1.287 . S
C604 C603 1.287 . S
C604 C605 1.524 . S
C604 H623 0.913 . S
C605 H581 0.950 . S
C605 C604 1.524 . S
C605 C606 1.415 . S
C606 H582 0.950 . S
C606 C601 1.363 . S
C606 C605 1.415 . S
C607 H583 0.951 . S
C607 C608 1.366 . S
C607 C609 1.388 . S
C608 C607 1.366 . S
C608 C612 1.385 . S
C609 H584 0.951 . S
C609 C607 1.388 . S
C609 C610 1.366 . S
C610 C609 1.366 . S
C610 C611 1.414 . S
C610 C613 1.499 . S
C611 H585 0.950 . S
C611 C610 1.414 . S
C611 C612 1.374 . S
C612 H586 0.950 . S
C612 C608 1.385 . S
C612 C611 1.374 . S
C613 C610 1.499 . S
C613 C614 1.373 . S
C613 C615 1.389 . S
C614 H587 0.950 . S
C614 C600 1.377 . S
C614 C613 1.373 . S
C615 C599 1.377 . S
C615 C613 1.389 . S
C615 C616 1.524 . S
C616 C615 1.524 . S
C616 C617 1.397 . S
C616 C621 1.363 . S
C617 H588 0.950 . S
C617 C616 1.397 . S
C617 C618 1.334 . S
C618 H589 0.950 . S
C618 C617 1.334 . S
C618 C619 1.287 . S
C619 C618 1.287 . S
C619 C620 1.524 . S
C619 H622 0.999 . S
C620 H590 0.950 . S
C620 C619 1.524 . S
C620 C621 1.415 . S
C621 H591 0.950 . S
C621 C616 1.363 . S
C621 C620 1.415 . S
H622 C619 0.999 . S
H623 C604 0.913 . S
H624 C642 0.951 . S
H625 C644 0.951 . S
H626 C646 0.950 . S
H627 C647 0.950 . S
H628 C649 0.950 . S
H629 C652 0.950 . S
H630 C653 0.950 . S
H631 C655 0.950 . S
H632 C656 0.950 . S
H633 C657 0.951 . S
H634 C659 0.951 . S
H635 C661 0.950 . S
H636 C662 0.950 . S
H637 C664 0.950 . S
H638 C667 0.950 . S
H639 C668 0.950 . S
H640 C670 0.950 . S
H641 C671 0.950 . S
C642 H624 0.951 . S
C642 C643 1.366 . S
C642 C644 1.388 . S
C643 C642 1.366 . S
C643 C647 1.385 . S
C644 H625 0.951 . S
C644 C642 1.388 . S
C644 C645 1.366 . S
C645 C644 1.366 . S
C645 C646 1.414 . S
C645 C648 1.499 . S
C646 H626 0.950 . S
C646 C645 1.414 . S
C646 C647 1.374 . S
C647 H627 0.950 . S
C647 C643 1.385 . S
C647 C646 1.374 . S
C648 C645 1.499 . S
C648 C649 1.373 . S
C648 C650 1.389 1_554 S
C649 H628 0.950 . S
C649 C648 1.373 . S
C649 C665 1.377 1_545 S
C650 C648 1.389 1_556 S
C650 C651 1.524 . S
C650 C664 1.377 1_545 S
C651 C650 1.524 . S
C651 C652 1.397 . S
C651 C656 1.363 . S
C652 H629 0.950 . S
C652 C651 1.397 . S
C652 C653 1.334 . S
C653 H630 0.950 . S
C653 C652 1.334 . S
C653 C654 1.287 . S
C654 C653 1.287 . S
C654 C655 1.524 . S
C654 H673 0.913 . S
C655 H631 0.950 . S
C655 C654 1.524 . S
C655 C656 1.415 . S
C656 H632 0.950 . S
C656 C651 1.363 . S
C656 C655 1.415 . S
C657 H633 0.951 . S
C657 C658 1.366 . S
C657 C659 1.388 . S
C658 C657 1.366 . S
C658 C662 1.385 . S
C659 H634 0.951 . S
C659 C657 1.388 . S
C659 C660 1.366 . S
C660 C659 1.366 . S
C660 C661 1.414 . S
C660 C663 1.499 . S
C661 H635 0.950 . S
C661 C660 1.414 . S
C661 C662 1.374 . S
C662 H636 0.950 . S
C662 C658 1.385 . S
C662 C661 1.374 . S
C663 C660 1.499 . S
C663 C664 1.373 . S
C663 C665 1.389 1_556 S
C664 H637 0.950 . S
C664 C650 1.377 1_565 S
C664 C663 1.373 . S
C665 C649 1.377 1_565 S
C665 C663 1.389 1_554 S
C665 C666 1.524 . S
C666 C665 1.524 . S
C666 C667 1.397 . S
C666 C671 1.363 . S
C667 H638 0.950 . S
C667 C666 1.397 . S
C667 C668 1.334 . S
C668 H639 0.950 . S
C668 C667 1.334 . S
C668 C669 1.287 . S
C669 C668 1.287 . S
C669 C670 1.524 . S
C669 H672 0.999 . S
C670 H640 0.950 . S
C670 C669 1.524 . S
C670 C671 1.415 . S
C671 H641 0.950 . S
C671 C666 1.363 . S
C671 C670 1.415 . S
H672 C669 0.999 . S
H673 C654 0.913 . S
H674 C692 0.951 . S
H675 C694 0.951 . S
H676 C696 0.950 . S
H677 C697 0.950 . S
H678 C699 0.950 . S
H679 C702 0.950 . S
H680 C703 0.950 . S
H681 C705 0.950 . S
H682 C706 0.950 1_545 S
H683 C707 0.951 . S
H684 C709 0.951 . S
H685 C711 0.950 . S
H686 C712 0.950 . S
H687 C714 0.950 . S
H688 C717 0.950 . S
H689 C718 0.950 . S
H690 C720 0.950 . S
H691 C721 0.950 1_565 S
C692 H674 0.951 . S
C692 C693 1.366 . S
C692 C694 1.388 . S
C693 C692 1.366 . S
C693 C697 1.385 . S
C694 H675 0.951 . S
C694 C692 1.388 . S
C694 C695 1.366 . S
C695 C694 1.366 . S
C695 C696 1.414 . S
C695 C698 1.499 . S
C696 H676 0.950 . S
C696 C695 1.414 . S
C696 C697 1.374 . S
C697 H677 0.950 . S
C697 C693 1.385 . S
C697 C696 1.374 . S
C698 C695 1.499 . S
C698 C699 1.373 . S
C698 C700 1.389 . S
C699 H678 0.950 . S
C699 C698 1.373 . S
C699 C715 1.377 1_565 S
C700 C698 1.389 . S
C700 C701 1.524 . S
C700 C714 1.377 1_565 S
C701 C700 1.524 . S
C701 C702 1.397 . S
C701 C706 1.363 . S
C702 H679 0.950 . S
C702 C701 1.397 . S
C702 C703 1.334 . S
C703 H680 0.950 . S
C703 C702 1.334 . S
C703 C704 1.287 . S
C704 C703 1.287 . S
C704 C705 1.524 . S
C704 H723 0.913 . S
C705 H681 0.950 . S
C705 C704 1.524 . S
C705 C706 1.415 . S
C706 H682 0.950 1_565 S
C706 C701 1.363 . S
C706 C705 1.415 . S
C707 H683 0.951 . S
C707 C708 1.366 . S
C707 C709 1.388 . S
C708 C707 1.366 . S
C708 C712 1.385 . S
C709 H684 0.951 . S
C709 C707 1.388 . S
C709 C710 1.366 . S
C710 C709 1.366 . S
C710 C711 1.414 . S
C710 C713 1.499 . S
C711 H685 0.950 . S
C711 C710 1.414 . S
C711 C712 1.374 . S
C712 H686 0.950 . S
C712 C708 1.385 . S
C712 C711 1.374 . S
C713 C710 1.499 . S
C713 C714 1.373 . S
C713 C715 1.389 . S
C714 H687 0.950 . S
C714 C700 1.377 1_545 S
C714 C713 1.373 . S
C715 C699 1.377 1_545 S
C715 C713 1.389 . S
C715 C716 1.524 . S
C716 C715 1.524 . S
C716 C717 1.397 . S
C716 C721 1.363 . S
C717 H688 0.950 . S
C717 C716 1.397 . S
C717 C718 1.334 . S
C718 H689 0.950 . S
C718 C717 1.334 . S
C718 C719 1.287 . S
C719 C718 1.287 . S
C719 C720 1.524 . S
C719 H722 0.999 . S
C720 H690 0.950 . S
C720 C719 1.524 . S
C720 C721 1.415 . S
C721 H691 0.950 1_545 S
C721 C716 1.363 . S
C721 C720 1.415 . S
H722 C719 0.999 . S
H723 C704 0.913 . S
H724 C742 0.951 . S
H725 C744 0.951 . S
H726 C746 0.950 . S
H727 C747 0.950 . S
H728 C749 0.950 . S
H729 C752 0.950 . S
H730 C753 0.950 . S
H731 C755 0.950 . S
H732 C756 0.993 . S
H733 C757 0.951 . S
H734 C759 0.951 . S
H735 C761 0.950 . S
H736 C762 0.950 . S
H737 C764 0.950 . S
H738 C767 0.950 . S
H739 C768 0.950 . S
H740 C770 0.950 . S
H741 C771 0.993 . S
C742 H724 0.951 . S
C742 C743 1.366 . S
C742 C744 1.388 . S
C743 C742 1.366 . S
C743 C747 1.385 . S
C744 H725 0.951 . S
C744 C742 1.388 . S
C744 C745 1.366 . S
C745 C744 1.366 . S
C745 C746 1.414 . S
C745 C748 1.499 . S
C746 H726 0.950 . S
C746 C745 1.414 . S
C746 C747 1.374 . S
C747 H727 0.950 . S
C747 C743 1.385 . S
C747 C746 1.374 . S
C748 C745 1.499 . S
C748 C749 1.373 . S
C748 C750 1.389 . S
C749 H728 0.950 . S
C749 C748 1.373 . S
C749 C765 1.377 1_566 S
C750 C748 1.389 . S
C750 C751 1.524 . S
C750 C764 1.377 1_566 S
C751 C750 1.524 . S
C751 C752 1.397 . S
C751 C756 1.363 . S
C752 H729 0.950 . S
C752 C751 1.397 . S
C752 C753 1.334 . S
C753 H730 0.950 . S
C753 C752 1.334 . S
C753 C754 1.287 . S
C754 C753 1.287 . S
C754 C755 1.524 . S
C754 H773 0.913 . S
C755 H731 0.950 . S
C755 C754 1.524 . S
C755 C756 1.415 . S
C756 H732 0.993 . S
C756 C751 1.363 . S
C756 C755 1.415 . S
C757 H733 0.951 . S
C757 C758 1.366 . S
C757 C759 1.388 . S
C758 C757 1.366 . S
C758 C762 1.385 . S
C759 H734 0.951 . S
C759 C757 1.388 . S
C759 C760 1.366 . S
C760 C759 1.366 . S
C760 C761 1.414 . S
C760 C763 1.499 . S
C761 H735 0.950 . S
C761 C760 1.414 . S
C761 C762 1.374 . S
C762 H736 0.950 . S
C762 C758 1.385 . S
C762 C761 1.374 . S
C763 C760 1.499 . S
C763 C764 1.373 . S
C763 C765 1.389 . S
C764 H737 0.950 . S
C764 C750 1.377 1_544 S
C764 C763 1.373 . S
C765 C749 1.377 1_544 S
C765 C763 1.389 . S
C765 C766 1.524 . S
C766 C765 1.524 . S
C766 C767 1.397 . S
C766 C771 1.363 . S
C767 H738 0.950 . S
C767 C766 1.397 . S
C767 C768 1.334 . S
C768 H739 0.950 . S
C768 C767 1.334 . S
C768 C769 1.287 . S
C769 C768 1.287 . S
C769 C770 1.524 . S
C769 H772 0.999 . S
C770 H740 0.950 . S
C770 C769 1.524 . S
C770 C771 1.415 . S
C771 H741 0.993 . S
C771 C766 1.363 . S
C771 C770 1.415 . S
H772 C769 0.999 . S
H773 C754 0.913 . S
H774 C792 0.951 . S
H775 C794 0.951 . S
H776 C796 0.950 . S
H777 C797 0.950 . S
H778 C799 0.950 . S
H779 C802 0.950 . S
H780 C803 0.950 . S
H781 C805 0.950 . S
H782 C806 0.950 . S
H783 C807 0.951 . S
H784 C809 0.951 . S
H785 C811 0.950 . S
H786 C812 0.950 . S
H787 C814 0.950 . S
H788 C817 0.950 . S
H789 C818 0.950 . S
H790 C820 0.950 . S
H791 C821 0.950 . S
C792 H774 0.951 . S
C792 C793 1.366 . S
C792 C794 1.388 . S
C793 C792 1.366 . S
C793 C797 1.385 . S
C794 H775 0.951 . S
C794 C792 1.388 . S
C794 C795 1.366 . S
C795 C794 1.366 . S
C795 C796 1.414 . S
C795 C798 1.499 . S
C796 H776 0.950 . S
C796 C795 1.414 . S
C796 C797 1.374 . S
C797 H777 0.950 . S
C797 C793 1.385 . S
C797 C796 1.374 . S
C798 C795 1.499 . S
C798 C799 1.373 . S
C798 C800 1.389 . S
C799 H778 0.950 . S
C799 C798 1.373 . S
C799 C815 1.377 1_545 S
C800 C798 1.389 . S
C800 C801 1.524 . S
C800 C814 1.377 1_545 S
C801 C800 1.524 . S
C801 C802 1.397 . S
C801 C806 1.363 . S
C802 H779 0.950 . S
C802 C801 1.397 . S
C802 C803 1.334 . S
C803 H780 0.950 . S
C803 C802 1.334 . S
C803 C804 1.287 . S
C804 C803 1.287 . S
C804 C805 1.524 . S
C804 H823 0.913 . S
C805 H781 0.950 . S
C805 C804 1.524 . S
C805 C806 1.415 . S
C806 H782 0.950 . S
C806 C801 1.363 . S
C806 C805 1.415 . S
C807 H783 0.951 . S
C807 C808 1.366 . S
C807 C809 1.388 . S
C808 C807 1.366 . S
C808 C812 1.385 . S
C809 H784 0.951 . S
C809 C807 1.388 . S
C809 C810 1.366 . S
C810 C809 1.366 . S
C810 C811 1.414 . S
C810 C813 1.499 . S
C811 H785 0.950 . S
C811 C810 1.414 . S
C811 C812 1.374 . S
C812 H786 0.950 . S
C812 C808 1.385 . S
C812 C811 1.374 . S
C813 C810 1.499 . S
C813 C814 1.373 . S
C813 C815 1.389 . S
C814 H787 0.950 . S
C814 C800 1.377 1_565 S
C814 C813 1.373 . S
C815 C799 1.377 1_565 S
C815 C813 1.389 . S
C815 C816 1.524 . S
C816 C815 1.524 . S
C816 C817 1.397 . S
C816 C821 1.363 . S
C817 H788 0.950 . S
C817 C816 1.397 . S
C817 C818 1.334 . S
C818 H789 0.950 . S
C818 C817 1.334 . S
C818 C819 1.287 . S
C819 C818 1.287 . S
C819 C820 1.524 . S
C819 H822 0.999 . S
C820 H790 0.950 . S
C820 C819 1.524 . S
C820 C821 1.415 . S
C821 H791 0.950 . S
C821 C816 1.363 . S
C821 C820 1.415 . S
H822 C819 0.999 . S
H823 C804 0.913 . S
H824 C842 0.951 . S
H825 C844 0.951 . S
H826 C846 0.950 . S
H827 C847 0.950 . S
H828 C849 0.950 . S
H829 C852 0.950 . S
H830 C853 0.950 . S
H831 C855 0.950 . S
H832 C856 0.950 . S
H833 C857 0.951 . S
H834 C859 0.951 . S
H835 C861 0.950 . S
H836 C862 0.950 . S
H837 C864 0.950 . S
H838 C867 0.950 . S
H839 C868 0.950 . S
H840 C870 0.950 . S
H841 C871 0.950 . S
C842 H824 0.951 . S
C842 C843 1.366 . S
C842 C844 1.388 . S
C843 C842 1.366 . S
C843 C847 1.385 . S
C844 H825 0.951 . S
C844 C842 1.388 . S
C844 C845 1.366 . S
C845 C844 1.366 . S
C845 C846 1.414 . S
C845 C848 1.499 . S
C846 H826 0.950 . S
C846 C845 1.414 . S
C846 C847 1.374 . S
C847 H827 0.950 . S
C847 C843 1.385 . S
C847 C846 1.374 . S
C848 C845 1.499 . S
C848 C849 1.373 . S
C848 C850 1.389 1_556 S
C849 H828 0.950 . S
C849 C848 1.373 . S
C849 C865 1.377 . S
C850 C848 1.389 1_554 S
C850 C851 1.524 . S
C850 C864 1.377 . S
C851 C850 1.524 . S
C851 C852 1.397 . S
C851 C856 1.363 . S
C852 H829 0.950 . S
C852 C851 1.397 . S
C852 C853 1.334 . S
C853 H830 0.950 . S
C853 C852 1.334 . S
C853 C854 1.287 . S
C854 C853 1.287 . S
C854 C855 1.524 . S
C854 H873 0.913 . S
C855 H831 0.950 . S
C855 C854 1.524 . S
C855 C856 1.415 . S
C856 H832 0.950 . S
C856 C851 1.363 . S
C856 C855 1.415 . S
C857 H833 0.951 . S
C857 C858 1.366 . S
C857 C859 1.388 . S
C858 C857 1.366 . S
C858 C862 1.385 . S
C859 H834 0.951 . S
C859 C857 1.388 . S
C859 C860 1.366 . S
C860 C859 1.366 . S
C860 C861 1.414 . S
C860 C863 1.499 . S
C861 H835 0.950 . S
C861 C860 1.414 . S
C861 C862 1.374 . S
C862 H836 0.950 . S
C862 C858 1.385 . S
C862 C861 1.374 . S
C863 C860 1.499 . S
C863 C864 1.373 . S
C863 C865 1.389 1_554 S
C864 H837 0.950 . S
C864 C850 1.377 . S
C864 C863 1.373 . S
C865 C849 1.377 . S
C865 C863 1.389 1_556 S
C865 C866 1.524 . S
C866 C865 1.524 . S
C866 C867 1.397 . S
C866 C871 1.363 . S
C867 H838 0.950 . S
C867 C866 1.397 . S
C867 C868 1.334 . S
C868 H839 0.950 . S
C868 C867 1.334 . S
C868 C869 1.287 . S
C869 C868 1.287 . S
C869 C870 1.524 . S
C869 H872 0.999 . S
C870 H840 0.950 . S
C870 C869 1.524 . S
C870 C871 1.415 . S
C871 H841 0.950 . S
C871 C866 1.363 . S
C871 C870 1.415 . S
H872 C869 0.999 . S
H873 C854 0.913 . S
H874 C892 0.951 . S
H875 C894 0.951 . S
H876 C896 0.950 . S
H877 C897 0.950 . S
H878 C899 0.950 . S
H879 C902 0.950 . S
H880 C903 0.950 . S
H881 C905 0.950 . S
H882 C906 0.950 . S
H883 C907 0.951 . S
H884 C909 0.951 . S
H885 C911 0.950 . S
H886 C912 0.950 . S
H887 C914 0.950 . S
H888 C917 0.950 . S
H889 C918 0.950 . S
H890 C920 0.950 . S
H891 C921 0.950 . S
C892 H874 0.951 . S
C892 C893 1.366 . S
C892 C894 1.388 . S
C893 C892 1.366 . S
C893 C897 1.385 . S
C894 H875 0.951 . S
C894 C892 1.388 . S
C894 C895 1.366 . S
C895 C894 1.366 . S
C895 C896 1.414 . S
C895 C898 1.499 . S
C896 H876 0.950 . S
C896 C895 1.414 . S
C896 C897 1.374 . S
C897 H877 0.950 . S
C897 C893 1.385 . S
C897 C896 1.374 . S
C898 C895 1.499 . S
C898 C899 1.373 . S
C898 C900 1.389 . S
C899 H878 0.950 . S
C899 C898 1.373 . S
C899 C915 1.377 . S
C900 C898 1.389 . S
C900 C901 1.524 . S
C900 C914 1.377 . S
C901 C900 1.524 . S
C901 C902 1.397 . S
C901 C906 1.363 . S
C902 H879 0.950 . S
C902 C901 1.397 . S
C902 C903 1.334 . S
C903 H880 0.950 . S
C903 C902 1.334 . S
C903 C904 1.287 . S
C904 C903 1.287 . S
C904 C905 1.524 . S
C904 H923 0.913 . S
C905 H881 0.950 . S
C905 C904 1.524 . S
C905 C906 1.415 . S
C906 H882 0.950 . S
C906 C901 1.363 . S
C906 C905 1.415 . S
C907 H883 0.951 . S
C907 C908 1.366 . S
C907 C909 1.388 . S
C908 C907 1.366 . S
C908 C912 1.385 . S
C909 H884 0.951 . S
C909 C907 1.388 . S
C909 C910 1.366 . S
C910 C909 1.366 . S
C910 C911 1.414 . S
C910 C913 1.499 . S
C911 H885 0.950 . S
C911 C910 1.414 . S
C911 C912 1.374 . S
C912 H886 0.950 . S
C912 C908 1.385 . S
C912 C911 1.374 . S
C913 C910 1.499 . S
C913 C914 1.373 . S
C913 C915 1.389 . S
C914 H887 0.950 . S
C914 C900 1.377 . S
C914 C913 1.373 . S
C915 C899 1.377 . S
C915 C913 1.389 . S
C915 C916 1.524 . S
C916 C915 1.524 . S
C916 C917 1.397 . S
C916 C921 1.363 . S
C917 H888 0.950 . S
C917 C916 1.397 . S
C917 C918 1.334 . S
C918 H889 0.950 . S
C918 C917 1.334 . S
C918 C919 1.287 . S
C919 C918 1.287 . S
C919 C920 1.524 . S
C919 H922 0.999 . S
C920 H890 0.950 . S
C920 C919 1.524 . S
C920 C921 1.415 . S
C921 H891 0.950 . S
C921 C916 1.363 . S
C921 C920 1.415 . S
H922 C919 0.999 . S
H923 C904 0.913 . S
H924 C942 0.951 . S
H925 C944 0.951 . S
H926 C946 0.950 . S
H927 C947 0.950 . S
H928 C949 0.950 . S
H929 C952 0.950 . S
H930 C953 0.950 . S
H931 C955 0.950 . S
H932 C956 0.950 . S
H933 C957 0.951 . S
H934 C959 0.951 . S
H935 C961 0.950 . S
H936 C962 0.950 . S
H937 C964 0.950 . S
H938 C967 0.950 . S
H939 C968 0.950 . S
H940 C970 0.950 . S
H941 C971 0.950 . S
C942 H924 0.951 . S
C942 C943 1.366 . S
C942 C944 1.388 . S
C943 C942 1.366 . S
C943 C947 1.385 . S
C944 H925 0.951 . S
C944 C942 1.388 . S
C944 C945 1.366 . S
C945 C944 1.366 . S
C945 C946 1.414 . S
C945 C948 1.499 . S
C946 H926 0.950 . S
C946 C945 1.414 . S
C946 C947 1.374 . S
C947 H927 0.950 . S
C947 C943 1.385 . S
C947 C946 1.374 . S
C948 C945 1.499 . S
C948 C949 1.373 . S
C948 C950 1.389 1_554 S
C949 H928 0.950 . S
C949 C948 1.373 . S
C949 C965 1.377 . S
C950 C948 1.389 1_556 S
C950 C951 1.524 . S
C950 C964 1.377 . S
C951 C950 1.524 . S
C951 C952 1.397 . S
C951 C956 1.363 . S
C952 H929 0.950 . S
C952 C951 1.397 . S
C952 C953 1.334 . S
C953 H930 0.950 . S
C953 C952 1.334 . S
C953 C954 1.287 . S
C954 C953 1.287 . S
C954 C955 1.524 . S
C954 H973 0.913 . S
C955 H931 0.950 . S
C955 C954 1.524 . S
C955 C956 1.415 . S
C956 H932 0.950 . S
C956 C951 1.363 . S
C956 C955 1.415 . S
C957 H933 0.951 . S
C957 C958 1.366 . S
C957 C959 1.388 . S
C958 C957 1.366 . S
C958 C962 1.385 . S
C959 H934 0.951 . S
C959 C957 1.388 . S
C959 C960 1.366 . S
C960 C959 1.366 . S
C960 C961 1.414 . S
C960 C963 1.499 . S
C961 H935 0.950 . S
C961 C960 1.414 . S
C961 C962 1.374 . S
C962 H936 0.950 . S
C962 C958 1.385 . S
C962 C961 1.374 . S
C963 C960 1.499 . S
C963 C964 1.373 . S
C963 C965 1.389 1_556 S
C964 H937 0.950 . S
C964 C950 1.377 . S
C964 C963 1.373 . S
C965 C949 1.377 . S
C965 C963 1.389 1_554 S
C965 C966 1.524 . S
C966 C965 1.524 . S
C966 C967 1.397 . S
C966 C971 1.363 . S
C967 H938 0.950 . S
C967 C966 1.397 . S
C967 C968 1.334 . S
C968 H939 0.950 . S
C968 C967 1.334 . S
C968 C969 1.287 . S
C969 C968 1.287 . S
C969 C970 1.524 . S
C969 H972 0.999 . S
C970 H940 0.950 . S
C970 C969 1.524 . S
C970 C971 1.415 . S
C971 H941 0.950 . S
C971 C966 1.363 . S
C971 C970 1.415 . S
H972 C969 0.999 . S
H973 C954 0.913 . S
H974 C992 0.951 . S
H975 C994 0.951 . S
H976 C996 0.950 . S
H977 C997 0.950 . S
H978 C999 0.950 . S
H979 C1002 0.950 . S
H980 C1003 0.950 . S
H981 C1005 0.950 . S
H982 C1006 0.950 . S
H983 C1007 0.951 . S
H984 C1009 0.951 . S
H985 C1011 0.950 . S
H986 C1012 0.950 . S
H987 C1014 0.950 . S
H988 C1017 0.950 . S
H989 C1018 0.950 . S
H990 C1020 0.950 . S
H991 C1021 0.950 . S
C992 H974 0.951 . S
C992 C993 1.366 . S
C992 C994 1.388 . S
C993 C992 1.366 . S
C993 C997 1.385 . S
C994 H975 0.951 . S
C994 C992 1.388 . S
C994 C995 1.366 . S
C995 C994 1.366 . S
C995 C996 1.414 . S
C995 C998 1.499 . S
C996 H976 0.950 . S
C996 C995 1.414 . S
C996 C997 1.374 . S
C997 H977 0.950 . S
C997 C993 1.385 . S
C997 C996 1.374 . S
C998 C995 1.499 . S
C998 C999 1.373 . S
C998 C1000 1.389 . S
C999 H978 0.950 . S
C999 C998 1.373 . S
C999 C1015 1.377 . S
C1000 C998 1.389 . S
C1000 C1001 1.524 . S
C1000 C1014 1.377 . S
C1001 C1000 1.524 . S
C1001 C1002 1.397 . S
C1001 C1006 1.363 . S
C1002 H979 0.950 . S
C1002 C1001 1.397 . S
C1002 C1003 1.334 . S
C1003 H980 0.950 . S
C1003 C1002 1.334 . S
C1003 C1004 1.287 . S
C1004 C1003 1.287 . S
C1004 C1005 1.524 . S
C1004 H1023 0.913 . S
C1005 H981 0.950 . S
C1005 C1004 1.524 . S
C1005 C1006 1.415 . S
C1006 H982 0.950 . S
C1006 C1001 1.363 . S
C1006 C1005 1.415 . S
C1007 H983 0.951 . S
C1007 C1008 1.366 . S
C1007 C1009 1.388 . S
C1008 C1007 1.366 . S
C1008 C1012 1.385 . S
C1009 H984 0.951 . S
C1009 C1007 1.388 . S
C1009 C1010 1.366 . S
C1010 C1009 1.366 . S
C1010 C1011 1.414 . S
C1010 C1013 1.499 . S
C1011 H985 0.950 . S
C1011 C1010 1.414 . S
C1011 C1012 1.374 . S
C1012 H986 0.950 . S
C1012 C1008 1.385 . S
C1012 C1011 1.374 . S
C1013 C1010 1.499 . S
C1013 C1014 1.373 . S
C1013 C1015 1.389 . S
C1014 H987 0.950 . S
C1014 C1000 1.377 . S
C1014 C1013 1.373 . S
C1015 C999 1.377 . S
C1015 C1013 1.389 . S
C1015 C1016 1.524 . S
C1016 C1015 1.524 . S
C1016 C1017 1.397 . S
C1016 C1021 1.363 . S
C1017 H988 0.950 . S
C1017 C1016 1.397 . S
C1017 C1018 1.334 . S
C1018 H989 0.950 . S
C1018 C1017 1.334 . S
C1018 C1019 1.287 . S
C1019 C1018 1.287 . S
C1019 C1020 1.524 . S
C1019 H1022 0.999 . S
C1020 H990 0.950 . S
C1020 C1019 1.524 . S
C1020 C1021 1.415 . S
C1021 H991 0.950 . S
C1021 C1016 1.363 . S
C1021 C1020 1.415 . S
H1022 C1019 0.999 . S
H1023 C1004 0.913 . S
H1024 C1042 0.951 . S
H1025 C1044 0.951 . S
H1026 C1046 0.950 . S
H1027 C1047 0.950 . S
H1028 C1049 0.950 . S
H1029 C1052 0.950 . S
H1030 C1053 0.950 . S
H1031 C1055 0.950 . S
H1032 C1056 0.950 . S
H1033 C1057 0.951 . S
H1034 C1059 0.951 . S
H1035 C1061 0.950 . S
H1036 C1062 0.950 . S
H1037 C1064 0.950 . S
H1038 C1067 0.950 . S
H1039 C1068 0.950 . S
H1040 C1070 0.950 . S
H1041 C1071 0.950 . S
C1042 H1024 0.951 . S
C1042 C1043 1.366 . S
C1042 C1044 1.388 . S
C1043 C1042 1.366 . S
C1043 C1047 1.385 . S
C1044 H1025 0.951 . S
C1044 C1042 1.388 . S
C1044 C1045 1.366 . S
C1045 C1044 1.366 . S
C1045 C1046 1.414 . S
C1045 C1048 1.499 . S
C1046 H1026 0.950 . S
C1046 C1045 1.414 . S
C1046 C1047 1.374 . S
C1047 H1027 0.950 . S
C1047 C1043 1.385 . S
C1047 C1046 1.374 . S
C1048 C1045 1.499 . S
C1048 C1049 1.373 . S
C1048 C1050 1.389 . S
C1049 H1028 0.950 . S
C1049 C1048 1.373 . S
C1049 C1065 1.377 . S
C1050 C1048 1.389 . S
C1050 C1051 1.524 . S
C1050 C1064 1.377 . S
C1051 C1050 1.524 . S
C1051 C1052 1.397 . S
C1051 C1056 1.363 . S
C1052 H1029 0.950 . S
C1052 C1051 1.397 . S
C1052 C1053 1.334 . S
C1053 H1030 0.950 . S
C1053 C1052 1.334 . S
C1053 C1054 1.287 . S
C1054 C1053 1.287 . S
C1054 C1055 1.524 . S
C1054 H1073 0.913 . S
C1055 H1031 0.950 . S
C1055 C1054 1.524 . S
C1055 C1056 1.415 . S
C1056 H1032 0.950 . S
C1056 C1051 1.363 . S
C1056 C1055 1.415 . S
C1057 H1033 0.951 . S
C1057 C1058 1.366 . S
C1057 C1059 1.388 . S
C1058 C1057 1.366 . S
C1058 C1062 1.385 . S
C1059 H1034 0.951 . S
C1059 C1057 1.388 . S
C1059 C1060 1.366 . S
C1060 C1059 1.366 . S
C1060 C1061 1.414 . S
C1060 C1063 1.499 . S
C1061 H1035 0.950 . S
C1061 C1060 1.414 . S
C1061 C1062 1.374 . S
C1062 H1036 0.950 . S
C1062 C1058 1.385 . S
C1062 C1061 1.374 . S
C1063 C1060 1.499 . S
C1063 C1064 1.373 . S
C1063 C1065 1.389 . S
C1064 H1037 0.950 . S
C1064 C1050 1.377 . S
C1064 C1063 1.373 . S
C1065 C1049 1.377 . S
C1065 C1063 1.389 . S
C1065 C1066 1.524 . S
C1066 C1065 1.524 . S
C1066 C1067 1.397 . S
C1066 C1071 1.363 . S
C1067 H1038 0.950 . S
C1067 C1066 1.397 . S
C1067 C1068 1.334 . S
C1068 H1039 0.950 . S
C1068 C1067 1.334 . S
C1068 C1069 1.287 . S
C1069 C1068 1.287 . S
C1069 C1070 1.524 . S
C1069 H1072 0.999 . S
C1070 H1040 0.950 . S
C1070 C1069 1.524 . S
C1070 C1071 1.415 . S
C1071 H1041 0.950 . S
C1071 C1066 1.363 . S
C1071 C1070 1.415 . S
H1072 C1069 0.999 . S
H1073 C1054 0.913 . S
H1074 C1092 0.951 . S
H1075 C1094 0.951 . S
H1076 C1096 0.950 . S
H1077 C1097 0.950 . S
H1078 C1099 0.950 . S
H1079 C1102 0.950 . S
H1080 C1103 0.950 . S
H1081 C1105 0.950 . S
H1082 C1106 0.950 . S
H1083 C1107 0.951 . S
H1084 C1109 0.951 . S
H1085 C1111 0.950 . S
H1086 C1112 0.950 . S
H1087 C1114 0.950 . S
H1088 C1117 0.950 . S
H1089 C1118 0.950 . S
H1090 C1120 0.950 . S
H1091 C1121 0.950 . S
C1092 H1074 0.951 . S
C1092 C1093 1.366 . S
C1092 C1094 1.388 . S
C1093 C1092 1.366 . S
C1093 C1097 1.385 . S
C1094 H1075 0.951 . S
C1094 C1092 1.388 . S
C1094 C1095 1.366 . S
C1095 C1094 1.366 . S
C1095 C1096 1.414 . S
C1095 C1098 1.499 . S
C1096 H1076 0.950 . S
C1096 C1095 1.414 . S
C1096 C1097 1.374 . S
C1097 H1077 0.950 . S
C1097 C1093 1.385 . S
C1097 C1096 1.374 . S
C1098 C1095 1.499 . S
C1098 C1099 1.373 . S
C1098 C1100 1.389 . S
C1099 H1078 0.950 . S
C1099 C1098 1.373 . S
C1099 C1115 1.377 1_655 S
C1100 C1098 1.389 . S
C1100 C1101 1.524 . S
C1100 C1114 1.377 1_655 S
C1101 C1100 1.524 . S
C1101 C1102 1.397 . S
C1101 C1106 1.363 . S
C1102 H1079 0.950 . S
C1102 C1101 1.397 . S
C1102 C1103 1.334 . S
C1103 H1080 0.950 . S
C1103 C1102 1.334 . S
C1103 C1104 1.287 . S
C1104 C1103 1.287 . S
C1104 C1105 1.524 . S
C1104 H1123 0.913 . S
C1105 H1081 0.950 . S
C1105 C1104 1.524 . S
C1105 C1106 1.415 . S
C1106 H1082 0.950 . S
C1106 C1101 1.363 . S
C1106 C1105 1.415 . S
C1107 H1083 0.951 . S
C1107 C1108 1.366 . S
C1107 C1109 1.388 . S
C1108 C1107 1.366 . S
C1108 C1112 1.385 . S
C1109 H1084 0.951 . S
C1109 C1107 1.388 . S
C1109 C1110 1.366 . S
C1110 C1109 1.366 . S
C1110 C1111 1.414 . S
C1110 C1113 1.499 . S
C1111 H1085 0.950 . S
C1111 C1110 1.414 . S
C1111 C1112 1.374 . S
C1112 H1086 0.950 . S
C1112 C1108 1.385 . S
C1112 C1111 1.374 . S
C1113 C1110 1.499 . S
C1113 C1114 1.373 . S
C1113 C1115 1.389 . S
C1114 H1087 0.950 . S
C1114 C1100 1.377 1_455 S
C1114 C1113 1.373 . S
C1115 C1099 1.377 1_455 S
C1115 C1113 1.389 . S
C1115 C1116 1.524 . S
C1116 C1115 1.524 . S
C1116 C1117 1.397 . S
C1116 C1121 1.363 . S
C1117 H1088 0.950 . S
C1117 C1116 1.397 . S
C1117 C1118 1.334 . S
C1118 H1089 0.950 . S
C1118 C1117 1.334 . S
C1118 C1119 1.287 . S
C1119 C1118 1.287 . S
C1119 C1120 1.524 . S
C1119 H1122 0.999 . S
C1120 H1090 0.950 . S
C1120 C1119 1.524 . S
C1120 C1121 1.415 . S
C1121 H1091 0.950 . S
C1121 C1116 1.363 . S
C1121 C1120 1.415 . S
H1122 C1119 0.999 . S
H1123 C1104 0.913 . S
H1124 C1142 0.951 . S
H1125 C1144 0.951 . S
H1126 C1146 0.950 . S
H1127 C1147 0.950 . S
H1128 C1149 0.950 . S
H1129 C1152 0.950 . S
H1130 C1153 0.950 . S
H1131 C1155 0.950 1_554 S
H1132 C1156 0.950 . S
H1133 C1157 0.951 . S
H1134 C1159 0.951 . S
H1135 C1161 0.950 . S
H1136 C1162 0.950 . S
H1137 C1164 0.950 . S
H1138 C1167 0.950 . S
H1139 C1168 0.950 . S
H1140 C1170 0.950 . S
H1141 C1171 0.950 . S
C1142 H1124 0.951 . S
C1142 C1143 1.366 . S
C1142 C1144 1.388 . S
C1143 C1142 1.366 . S
C1143 C1147 1.385 . S
C1144 H1125 0.951 . S
C1144 C1142 1.388 . S
C1144 C1145 1.366 . S
C1145 C1144 1.366 . S
C1145 C1146 1.414 . S
C1145 C1148 1.499 . S
C1146 H1126 0.950 . S
C1146 C1145 1.414 . S
C1146 C1147 1.374 . S
C1147 H1127 0.950 . S
C1147 C1143 1.385 . S
C1147 C1146 1.374 . S
C1148 C1145 1.499 . S
C1148 C1149 1.373 . S
C1148 C1150 1.389 . S
C1149 H1128 0.950 . S
C1149 C1148 1.373 . S
C1149 C1165 1.377 . S
C1150 C1148 1.389 . S
C1150 C1151 1.524 . S
C1150 C1164 1.377 . S
C1151 C1150 1.524 . S
C1151 C1152 1.397 . S
C1151 C1156 1.363 . S
C1152 H1129 0.950 . S
C1152 C1151 1.397 . S
C1152 C1153 1.334 . S
C1153 H1130 0.950 . S
C1153 C1152 1.334 . S
C1153 C1154 1.290 . S
C1154 C1153 1.290 . S
C1154 C1155 1.525 . S
C1154 H1173 0.909 1_556 S
C1155 H1131 0.950 1_556 S
C1155 C1154 1.525 . S
C1155 C1156 1.415 . S
C1156 H1132 0.950 . S
C1156 C1151 1.363 . S
C1156 C1155 1.415 . S
C1157 H1133 0.951 . S
C1157 C1158 1.366 . S
C1157 C1159 1.388 . S
C1158 C1157 1.366 . S
C1158 C1162 1.385 . S
C1159 H1134 0.951 . S
C1159 C1157 1.388 . S
C1159 C1160 1.366 . S
C1160 C1159 1.366 . S
C1160 C1161 1.414 . S
C1160 C1163 1.499 . S
C1161 H1135 0.950 . S
C1161 C1160 1.414 . S
C1161 C1162 1.374 . S
C1162 H1136 0.950 . S
C1162 C1158 1.385 . S
C1162 C1161 1.374 . S
C1163 C1160 1.499 . S
C1163 C1164 1.373 . S
C1163 C1165 1.389 . S
C1164 H1137 0.950 . S
C1164 C1150 1.377 . S
C1164 C1163 1.373 . S
C1165 C1149 1.377 . S
C1165 C1163 1.389 . S
C1165 C1166 1.524 . S
C1166 C1165 1.524 . S
C1166 C1167 1.397 . S
C1166 C1171 1.363 . S
C1167 H1138 0.950 . S
C1167 C1166 1.397 . S
C1167 C1168 1.334 . S
C1168 H1139 0.950 . S
C1168 C1167 1.334 . S
C1168 C1169 1.287 . S
C1169 C1168 1.287 . S
C1169 C1170 1.524 . S
C1169 H1172 0.999 . S
C1170 H1140 0.950 . S
C1170 C1169 1.524 . S
C1170 C1171 1.415 . S
C1171 H1141 0.950 . S
C1171 C1166 1.363 . S
C1171 C1170 1.415 . S
H1172 C1169 0.999 . S
H1173 C1154 0.909 1_554 S
H1174 C1192 0.951 . S
H1175 C1194 0.951 . S
H1176 C1196 0.950 . S
H1177 C1197 0.950 . S
H1178 C1199 0.950 . S
H1179 C1202 0.950 . S
H1180 C1203 0.950 . S
H1181 C1205 0.950 . S
H1182 C1206 0.950 . S
H1183 C1207 0.951 . S
H1184 C1209 0.951 . S
H1185 C1211 0.950 . S
H1186 C1212 0.950 . S
H1187 C1214 0.950 . S
H1188 C1217 0.950 . S
H1189 C1218 0.950 . S
H1190 C1220 0.950 . S
H1191 C1221 0.950 . S
C1192 H1174 0.951 . S
C1192 C1193 1.366 . S
C1192 C1194 1.388 . S
C1193 C1192 1.366 . S
C1193 C1197 1.385 . S
C1194 H1175 0.951 . S
C1194 C1192 1.388 . S
C1194 C1195 1.366 . S
C1195 C1194 1.366 . S
C1195 C1196 1.414 . S
C1195 C1198 1.499 . S
C1196 H1176 0.950 . S
C1196 C1195 1.414 . S
C1196 C1197 1.374 . S
C1197 H1177 0.950 . S
C1197 C1193 1.385 . S
C1197 C1196 1.374 . S
C1198 C1195 1.499 . S
C1198 C1199 1.373 . S
C1198 C1200 1.389 . S
C1199 H1178 0.950 . S
C1199 C1198 1.373 . S
C1199 C1215 1.377 1_455 S
C1200 C1198 1.389 . S
C1200 C1201 1.524 . S
C1200 C1214 1.377 1_455 S
C1201 C1200 1.524 . S
C1201 C1202 1.397 . S
C1201 C1206 1.363 . S
C1202 H1179 0.950 . S
C1202 C1201 1.397 . S
C1202 C1203 1.334 . S
C1203 H1180 0.950 . S
C1203 C1202 1.334 . S
C1203 C1204 1.287 . S
C1204 C1203 1.287 . S
C1204 C1205 1.524 . S
C1204 H1223 0.913 . S
C1205 H1181 0.950 . S
C1205 C1204 1.524 . S
C1205 C1206 1.415 . S
C1206 H1182 0.950 . S
C1206 C1201 1.363 . S
C1206 C1205 1.415 . S
C1207 H1183 0.951 . S
C1207 C1208 1.366 . S
C1207 C1209 1.388 . S
C1208 C1207 1.366 . S
C1208 C1212 1.385 . S
C1209 H1184 0.951 . S
C1209 C1207 1.388 . S
C1209 C1210 1.366 . S
C1210 C1209 1.366 . S
C1210 C1211 1.414 . S
C1210 C1213 1.499 . S
C1211 H1185 0.950 . S
C1211 C1210 1.414 . S
C1211 C1212 1.374 . S
C1212 H1186 0.950 . S
C1212 C1208 1.385 . S
C1212 C1211 1.374 . S
C1213 C1210 1.499 . S
C1213 C1214 1.373 . S
C1213 C1215 1.389 . S
C1214 H1187 0.950 . S
C1214 C1200 1.377 1_655 S
C1214 C1213 1.373 . S
C1215 C1199 1.377 1_655 S
C1215 C1213 1.389 . S
C1215 C1216 1.524 . S
C1216 C1215 1.524 . S
C1216 C1217 1.397 . S
C1216 C1221 1.363 . S
C1217 H1188 0.950 . S
C1217 C1216 1.397 . S
C1217 C1218 1.334 . S
C1218 H1189 0.950 . S
C1218 C1217 1.334 . S
C1218 C1219 1.287 . S
C1219 C1218 1.287 . S
C1219 C1220 1.524 . S
C1219 H1222 0.999 . S
C1220 H1190 0.950 . S
C1220 C1219 1.524 . S
C1220 C1221 1.415 . S
C1221 H1191 0.950 . S
C1221 C1216 1.363 . S
C1221 C1220 1.415 . S
H1222 C1219 0.999 . S
H1223 C1204 0.913 . S
H1224 C1242 0.951 . S
H1225 C1244 0.951 . S
H1226 C1246 0.950 . S
H1227 C1247 0.950 . S
H1228 C1249 0.950 . S
H1229 C1252 0.950 . S
H1230 C1253 0.950 . S
H1231 C1255 0.950 . S
H1232 C1256 0.950 . S
H1233 C1257 0.951 . S
H1234 C1259 0.951 . S
H1235 C1261 0.950 . S
H1236 C1262 0.950 . S
H1237 C1264 0.950 . S
H1238 C1267 0.950 . S
H1239 C1268 0.950 . S
H1240 C1270 0.950 . S
H1241 C1271 0.950 . S
C1242 H1224 0.951 . S
C1242 C1243 1.366 . S
C1242 C1244 1.388 . S
C1243 C1242 1.366 . S
C1243 C1247 1.385 . S
C1244 H1225 0.951 . S
C1244 C1242 1.388 . S
C1244 C1245 1.366 . S
C1245 C1244 1.366 . S
C1245 C1246 1.414 . S
C1245 C1248 1.499 . S
C1246 H1226 0.950 . S
C1246 C1245 1.414 . S
C1246 C1247 1.374 . S
C1247 H1227 0.950 . S
C1247 C1243 1.385 . S
C1247 C1246 1.374 . S
C1248 C1245 1.499 . S
C1248 C1249 1.373 . S
C1248 C1250 1.389 . S
C1249 H1228 0.950 . S
C1249 C1248 1.373 . S
C1249 C1265 1.377 1_455 S
C1250 C1248 1.389 . S
C1250 C1251 1.524 . S
C1250 C1264 1.377 1_455 S
C1251 C1250 1.524 . S
C1251 C1252 1.397 . S
C1251 C1256 1.363 . S
C1252 H1229 0.950 . S
C1252 C1251 1.397 . S
C1252 C1253 1.334 . S
C1253 H1230 0.950 . S
C1253 C1252 1.334 . S
C1253 C1254 1.287 . S
C1254 C1253 1.287 . S
C1254 C1255 1.524 . S
C1254 H1273 0.913 . S
C1255 H1231 0.950 . S
C1255 C1254 1.524 . S
C1255 C1256 1.415 . S
C1256 H1232 0.950 . S
C1256 C1251 1.363 . S
C1256 C1255 1.415 . S
C1257 H1233 0.951 . S
C1257 C1258 1.366 . S
C1257 C1259 1.388 . S
C1258 C1257 1.366 . S
C1258 C1262 1.385 . S
C1259 H1234 0.951 . S
C1259 C1257 1.388 . S
C1259 C1260 1.366 . S
C1260 C1259 1.366 . S
C1260 C1261 1.414 . S
C1260 C1263 1.499 . S
C1261 H1235 0.950 . S
C1261 C1260 1.414 . S
C1261 C1262 1.374 . S
C1262 H1236 0.950 . S
C1262 C1258 1.385 . S
C1262 C1261 1.374 . S
C1263 C1260 1.499 . S
C1263 C1264 1.373 . S
C1263 C1265 1.389 . S
C1264 H1237 0.950 . S
C1264 C1250 1.377 1_655 S
C1264 C1263 1.373 . S
C1265 C1249 1.377 1_655 S
C1265 C1263 1.389 . S
C1265 C1266 1.524 . S
C1266 C1265 1.524 . S
C1266 C1267 1.397 . S
C1266 C1271 1.363 . S
C1267 H1238 0.950 . S
C1267 C1266 1.397 . S
C1267 C1268 1.334 . S
C1268 H1239 0.950 . S
C1268 C1267 1.334 . S
C1268 C1269 1.287 . S
C1269 C1268 1.287 . S
C1269 C1270 1.524 . S
C1269 H1272 0.999 . S
C1270 H1240 0.950 . S
C1270 C1269 1.524 . S
C1270 C1271 1.415 . S
C1271 H1241 0.950 . S
C1271 C1266 1.363 . S
C1271 C1270 1.415 . S
H1272 C1269 0.999 . S
H1273 C1254 0.913 . S
H1274 C1292 0.951 . S
H1275 C1294 0.951 . S
H1276 C1296 0.950 . S
H1277 C1297 0.950 . S
H1278 C1299 0.950 . S
H1279 C1302 0.950 . S
H1280 C1303 0.950 . S
H1281 C1305 0.950 . S
H1282 C1306 0.950 . S
H1283 C1307 0.951 . S
H1284 C1309 0.951 . S
H1285 C1311 0.950 . S
H1286 C1312 0.950 . S
H1287 C1314 0.950 . S
H1288 C1317 0.950 . S
H1289 C1318 0.950 . S
H1290 C1320 0.950 . S
H1291 C1321 0.950 . S
C1292 H1274 0.951 . S
C1292 C1293 1.366 . S
C1292 C1294 1.388 . S
C1293 C1292 1.366 . S
C1293 C1297 1.385 . S
C1294 H1275 0.951 . S
C1294 C1292 1.388 . S
C1294 C1295 1.366 . S
C1295 C1294 1.366 . S
C1295 C1296 1.414 . S
C1295 C1298 1.499 . S
C1296 H1276 0.950 . S
C1296 C1295 1.414 . S
C1296 C1297 1.374 . S
C1297 H1277 0.950 . S
C1297 C1293 1.385 . S
C1297 C1296 1.374 . S
C1298 C1295 1.499 . S
C1298 C1299 1.373 . S
C1298 C1300 1.389 . S
C1299 H1278 0.950 . S
C1299 C1298 1.373 . S
C1299 C1315 1.377 . S
C1300 C1298 1.389 . S
C1300 C1301 1.524 . S
C1300 C1314 1.377 . S
C1301 C1300 1.524 . S
C1301 C1302 1.397 . S
C1301 C1306 1.363 . S
C1302 H1279 0.950 . S
C1302 C1301 1.397 . S
C1302 C1303 1.334 . S
C1303 H1280 0.950 . S
C1303 C1302 1.334 . S
C1303 C1304 1.287 . S
C1304 C1303 1.287 . S
C1304 C1305 1.524 . S
C1304 H1323 0.913 . S
C1305 H1281 0.950 . S
C1305 C1304 1.524 . S
C1305 C1306 1.415 . S
C1306 H1282 0.950 . S
C1306 C1301 1.363 . S
C1306 C1305 1.415 . S
C1307 H1283 0.951 . S
C1307 C1308 1.366 . S
C1307 C1309 1.388 . S
C1308 C1307 1.366 . S
C1308 C1312 1.385 . S
C1309 H1284 0.951 . S
C1309 C1307 1.388 . S
C1309 C1310 1.366 . S
C1310 C1309 1.366 . S
C1310 C1311 1.414 . S
C1310 C1313 1.499 . S
C1311 H1285 0.950 . S
C1311 C1310 1.414 . S
C1311 C1312 1.374 . S
C1312 H1286 0.950 . S
C1312 C1308 1.385 . S
C1312 C1311 1.374 . S
C1313 C1310 1.499 . S
C1313 C1314 1.373 . S
C1313 C1315 1.389 . S
C1314 H1287 0.950 . S
C1314 C1300 1.377 . S
C1314 C1313 1.373 . S
C1315 C1299 1.377 . S
C1315 C1313 1.389 . S
C1315 C1316 1.524 . S
C1316 C1315 1.524 . S
C1316 C1317 1.397 . S
C1316 C1321 1.363 . S
C1317 H1288 0.950 . S
C1317 C1316 1.397 . S
C1317 C1318 1.334 . S
C1318 H1289 0.950 . S
C1318 C1317 1.334 . S
C1318 C1319 1.287 . S
C1319 C1318 1.287 . S
C1319 C1320 1.524 . S
C1319 H1322 0.999 . S
C1320 H1290 0.950 . S
C1320 C1319 1.524 . S
C1320 C1321 1.415 . S
C1321 H1291 0.950 . S
C1321 C1316 1.363 . S
C1321 C1320 1.415 . S
H1322 C1319 0.999 . S
H1323 C1304 0.913 . S
H1324 C1342 0.951 . S
H1325 C1344 0.951 . S
H1326 C1346 0.950 . S
H1327 C1347 0.950 . S
H1328 C1349 0.950 . S
H1329 C1352 0.950 . S
H1330 C1353 0.950 . S
H1331 C1355 0.950 . S
H1332 C1356 0.950 . S
H1333 C1357 0.951 . S
H1334 C1359 0.951 . S
H1335 C1361 0.950 . S
H1336 C1362 0.950 . S
H1337 C1364 0.950 . S
H1338 C1367 0.950 . S
H1339 C1368 0.950 . S
H1340 C1370 0.950 . S
H1341 C1371 0.950 . S
C1342 H1324 0.951 . S
C1342 C1343 1.366 . S
C1342 C1344 1.388 . S
C1343 C1342 1.366 . S
C1343 C1347 1.385 . S
C1344 H1325 0.951 . S
C1344 C1342 1.388 . S
C1344 C1345 1.366 . S
C1345 C1344 1.366 . S
C1345 C1346 1.414 . S
C1345 C1348 1.499 . S
C1346 H1326 0.950 . S
C1346 C1345 1.414 . S
C1346 C1347 1.374 . S
C1347 H1327 0.950 . S
C1347 C1343 1.385 . S
C1347 C1346 1.374 . S
C1348 C1345 1.499 . S
C1348 C1349 1.373 . S
C1348 C1350 1.389 . S
C1349 H1328 0.950 . S
C1349 C1348 1.373 . S
C1349 C1365 1.377 1_455 S
C1350 C1348 1.389 . S
C1350 C1351 1.524 . S
C1350 C1364 1.377 1_455 S
C1351 C1350 1.524 . S
C1351 C1352 1.397 . S
C1351 C1356 1.363 . S
C1352 H1329 0.950 . S
C1352 C1351 1.397 . S
C1352 C1353 1.334 . S
C1353 H1330 0.950 . S
C1353 C1352 1.334 . S
C1353 C1354 1.287 . S
C1354 C1353 1.287 . S
C1354 C1355 1.524 . S
C1354 H1373 0.913 1_556 S
C1355 H1331 0.950 . S
C1355 C1354 1.524 . S
C1355 C1356 1.415 . S
C1356 H1332 0.950 . S
C1356 C1351 1.363 . S
C1356 C1355 1.415 . S
C1357 H1333 0.951 . S
C1357 C1358 1.366 . S
C1357 C1359 1.388 . S
C1358 C1357 1.366 . S
C1358 C1362 1.385 . S
C1359 H1334 0.951 . S
C1359 C1357 1.388 . S
C1359 C1360 1.366 . S
C1360 C1359 1.366 . S
C1360 C1361 1.414 . S
C1360 C1363 1.499 . S
C1361 H1335 0.950 . S
C1361 C1360 1.414 . S
C1361 C1362 1.374 . S
C1362 H1336 0.950 . S
C1362 C1358 1.385 . S
C1362 C1361 1.374 . S
C1363 C1360 1.499 . S
C1363 C1364 1.373 . S
C1363 C1365 1.389 . S
C1364 H1337 0.950 . S
C1364 C1350 1.377 1_655 S
C1364 C1363 1.373 . S
C1365 C1349 1.377 1_655 S
C1365 C1363 1.389 . S
C1365 C1366 1.524 . S
C1366 C1365 1.524 . S
C1366 C1367 1.397 . S
C1366 C1371 1.363 . S
C1367 H1338 0.950 . S
C1367 C1366 1.397 . S
C1367 C1368 1.334 . S
C1368 H1339 0.950 . S
C1368 C1367 1.334 . S
C1368 C1369 1.287 . S
C1369 C1368 1.287 . S
C1369 C1370 1.524 . S
C1369 H1372 0.999 . S
C1370 H1340 0.950 . S
C1370 C1369 1.524 . S
C1370 C1371 1.415 . S
C1371 H1341 0.950 . S
C1371 C1366 1.363 . S
C1371 C1370 1.415 . S
H1372 C1369 0.999 . S
H1373 C1354 0.913 1_554 S
H1374 C1392 0.951 . S
H1375 C1394 0.951 . S
H1376 C1396 0.950 . S
H1377 C1397 0.950 . S
H1378 C1399 0.950 . S
H1379 C1402 0.950 . S
H1380 C1403 0.950 . S
H1381 C1405 0.950 . S
H1382 C1406 0.950 . S
H1383 C1407 0.951 . S
H1384 C1409 0.951 . S
H1385 C1411 0.950 . S
H1386 C1412 0.950 . S
H1387 C1414 0.950 . S
H1388 C1417 0.950 . S
H1389 C1418 0.950 . S
H1390 C1420 0.950 . S
H1391 C1421 0.950 . S
C1392 H1374 0.951 . S
C1392 C1393 1.366 . S
C1392 C1394 1.388 . S
C1393 C1392 1.366 . S
C1393 C1397 1.385 . S
C1394 H1375 0.951 . S
C1394 C1392 1.388 . S
C1394 C1395 1.366 . S
C1395 C1394 1.366 . S
C1395 C1396 1.414 . S
C1395 C1398 1.499 . S
C1396 H1376 0.950 . S
C1396 C1395 1.414 . S
C1396 C1397 1.374 . S
C1397 H1377 0.950 . S
C1397 C1393 1.385 . S
C1397 C1396 1.374 . S
C1398 C1395 1.499 . S
C1398 C1399 1.373 . S
C1398 C1400 1.389 . S
C1399 H1378 0.950 . S
C1399 C1398 1.373 . S
C1399 C1415 1.377 . S
C1400 C1398 1.389 . S
C1400 C1401 1.524 . S
C1400 C1414 1.377 . S
C1401 C1400 1.524 . S
C1401 C1402 1.397 . S
C1401 C1406 1.363 . S
C1402 H1379 0.950 . S
C1402 C1401 1.397 . S
C1402 C1403 1.334 . S
C1403 H1380 0.950 . S
C1403 C1402 1.334 . S
C1403 C1404 1.287 . S
C1404 C1403 1.287 . S
C1404 C1405 1.524 . S
C1404 H1423 0.913 . S
C1405 H1381 0.950 . S
C1405 C1404 1.524 . S
C1405 C1406 1.415 . S
C1406 H1382 0.950 . S
C1406 C1401 1.363 . S
C1406 C1405 1.415 . S
C1407 H1383 0.951 . S
C1407 C1408 1.366 . S
C1407 C1409 1.388 . S
C1408 C1407 1.366 . S
C1408 C1412 1.385 . S
C1409 H1384 0.951 . S
C1409 C1407 1.388 . S
C1409 C1410 1.366 . S
C1410 C1409 1.366 . S
C1410 C1411 1.414 . S
C1410 C1413 1.499 . S
C1411 H1385 0.950 . S
C1411 C1410 1.414 . S
C1411 C1412 1.374 . S
C1412 H1386 0.950 . S
C1412 C1408 1.385 . S
C1412 C1411 1.374 . S
C1413 C1410 1.499 . S
C1413 C1414 1.373 . S
C1413 C1415 1.389 . S
C1414 H1387 0.950 . S
C1414 C1400 1.377 . S
C1414 C1413 1.373 . S
C1415 C1399 1.377 . S
C1415 C1413 1.389 . S
C1415 C1416 1.524 . S
C1416 C1415 1.524 . S
C1416 C1417 1.397 . S
C1416 C1421 1.363 . S
C1417 H1388 0.950 . S
C1417 C1416 1.397 . S
C1417 C1418 1.334 . S
C1418 H1389 0.950 . S
C1418 C1417 1.334 . S
C1418 C1419 1.287 . S
C1419 C1418 1.287 . S
C1419 C1420 1.524 . S
C1419 H1422 0.999 . S
C1420 H1390 0.950 . S
C1420 C1419 1.524 . S
C1420 C1421 1.415 . S
C1421 H1391 0.950 . S
C1421 C1416 1.363 . S
C1421 C1420 1.415 . S
H1422 C1419 0.999 . S
H1423 C1404 0.913 . S
H1424 C1442 0.951 . S
H1425 C1444 0.951 . S
H1426 C1446 0.950 . S
H1427 C1447 0.950 . S
H1428 C1449 0.950 . S
H1429 C1452 0.950 . S
H1430 C1453 0.950 . S
H1431 C1455 0.950 . S
H1432 C1456 0.950 . S
H1433 C1457 0.951 . S
H1434 C1459 0.951 . S
H1435 C1461 0.950 . S
H1436 C1462 0.950 . S
H1437 C1464 0.950 . S
H1438 C1467 0.950 . S
H1439 C1468 0.950 . S
H1440 C1470 0.950 . S
H1441 C1471 0.950 . S
C1442 H1424 0.951 . S
C1442 C1443 1.366 . S
C1442 C1444 1.388 . S
C1443 C1442 1.366 . S
C1443 C1447 1.385 . S
C1444 H1425 0.951 . S
C1444 C1442 1.388 . S
C1444 C1445 1.366 . S
C1445 C1444 1.366 . S
C1445 C1446 1.414 . S
C1445 C1448 1.499 . S
C1446 H1426 0.950 . S
C1446 C1445 1.414 . S
C1446 C1447 1.374 . S
C1447 H1427 0.950 . S
C1447 C1443 1.385 . S
C1447 C1446 1.374 . S
C1448 C1445 1.499 . S
C1448 C1449 1.373 . S
C1448 C1450 1.389 . S
C1449 H1428 0.950 . S
C1449 C1448 1.373 . S
C1449 C1465 1.377 . S
C1450 C1448 1.389 . S
C1450 C1451 1.524 . S
C1450 C1464 1.377 . S
C1451 C1450 1.524 . S
C1451 C1452 1.397 . S
C1451 C1456 1.363 . S
C1452 H1429 0.950 . S
C1452 C1451 1.397 . S
C1452 C1453 1.334 . S
C1453 H1430 0.950 . S
C1453 C1452 1.334 . S
C1453 C1454 1.287 . S
C1454 C1453 1.287 . S
C1454 C1455 1.524 . S
C1454 H1473 0.913 . S
C1455 H1431 0.950 . S
C1455 C1454 1.524 . S
C1455 C1456 1.415 . S
C1456 H1432 0.950 . S
C1456 C1451 1.363 . S
C1456 C1455 1.415 . S
C1457 H1433 0.951 . S
C1457 C1458 1.366 . S
C1457 C1459 1.388 . S
C1458 C1457 1.366 . S
C1458 C1462 1.385 . S
C1459 H1434 0.951 . S
C1459 C1457 1.388 . S
C1459 C1460 1.366 . S
C1460 C1459 1.366 . S
C1460 C1461 1.414 . S
C1460 C1463 1.499 . S
C1461 H1435 0.950 . S
C1461 C1460 1.414 . S
C1461 C1462 1.374 . S
C1462 H1436 0.950 . S
C1462 C1458 1.385 . S
C1462 C1461 1.374 . S
C1463 C1460 1.499 . S
C1463 C1464 1.373 . S
C1463 C1465 1.389 . S
C1464 H1437 0.950 . S
C1464 C1450 1.377 . S
C1464 C1463 1.373 . S
C1465 C1449 1.377 . S
C1465 C1463 1.389 . S
C1465 C1466 1.524 . S
C1466 C1465 1.524 . S
C1466 C1467 1.397 . S
C1466 C1471 1.363 . S
C1467 H1438 0.950 . S
C1467 C1466 1.397 . S
C1467 C1468 1.334 . S
C1468 H1439 0.950 . S
C1468 C1467 1.334 . S
C1468 C1469 1.287 . S
C1469 C1468 1.287 . S
C1469 C1470 1.524 . S
C1469 H1472 0.999 . S
C1470 H1440 0.950 . S
C1470 C1469 1.524 . S
C1470 C1471 1.415 . S
C1471 H1441 0.950 . S
C1471 C1466 1.363 . S
C1471 C1470 1.415 . S
H1472 C1469 0.999 . S
H1473 C1454 0.913 . S
H1474 C1492 0.951 . S
H1475 C1494 0.951 . S
H1476 C1496 0.950 . S
H1477 C1497 0.950 . S
H1478 C1499 0.950 . S
H1479 C1502 0.950 . S
H1480 C1503 0.950 . S
H1481 C1505 0.950 . S
H1482 C1506 0.950 . S
H1483 C1507 0.951 . S
H1484 C1509 0.951 . S
H1485 C1511 0.950 . S
H1486 C1512 0.950 . S
H1487 C1514 0.950 . S
H1488 C1517 0.950 . S
H1489 C1518 0.950 . S
H1490 C1520 0.950 . S
H1491 C1521 0.950 . S
C1492 H1474 0.951 . S
C1492 C1493 1.366 . S
C1492 C1494 1.388 . S
C1493 C1492 1.366 . S
C1493 C1497 1.385 . S
C1494 H1475 0.951 . S
C1494 C1492 1.388 . S
C1494 C1495 1.366 . S
C1495 C1494 1.366 . S
C1495 C1496 1.414 . S
C1495 C1498 1.499 . S
C1496 H1476 0.950 . S
C1496 C1495 1.414 . S
C1496 C1497 1.374 . S
C1497 H1477 0.950 . S
C1497 C1493 1.385 . S
C1497 C1496 1.374 . S
C1498 C1495 1.499 . S
C1498 C1499 1.373 . S
C1498 C1500 1.389 . S
C1499 H1478 0.950 . S
C1499 C1498 1.373 . S
C1499 C1515 1.377 . S
C1500 C1498 1.389 . S
C1500 C1501 1.524 . S
C1500 C1514 1.377 . S
C1501 C1500 1.524 . S
C1501 C1502 1.397 . S
C1501 C1506 1.363 . S
C1502 H1479 0.950 . S
C1502 C1501 1.397 . S
C1502 C1503 1.334 . S
C1503 H1480 0.950 . S
C1503 C1502 1.334 . S
C1503 C1504 1.287 . S
C1504 C1503 1.287 . S
C1504 C1505 1.524 . S
C1504 H1523 0.913 . S
C1505 H1481 0.950 . S
C1505 C1504 1.524 . S
C1505 C1506 1.415 . S
C1506 H1482 0.950 . S
C1506 C1501 1.363 . S
C1506 C1505 1.415 . S
C1507 H1483 0.951 . S
C1507 C1508 1.366 . S
C1507 C1509 1.388 . S
C1508 C1507 1.366 . S
C1508 C1512 1.385 . S
C1509 H1484 0.951 . S
C1509 C1507 1.388 . S
C1509 C1510 1.366 . S
C1510 C1509 1.366 . S
C1510 C1511 1.414 . S
C1510 C1513 1.499 . S
C1511 H1485 0.950 . S
C1511 C1510 1.414 . S
C1511 C1512 1.374 . S
C1512 H1486 0.950 . S
C1512 C1508 1.385 . S
C1512 C1511 1.374 . S
C1513 C1510 1.499 . S
C1513 C1514 1.373 . S
C1513 C1515 1.389 . S
C1514 H1487 0.950 . S
C1514 C1500 1.377 . S
C1514 C1513 1.373 . S
C1515 C1499 1.377 . S
C1515 C1513 1.389 . S
C1515 C1516 1.524 . S
C1516 C1515 1.524 . S
C1516 C1517 1.397 . S
C1516 C1521 1.363 . S
C1517 H1488 0.950 . S
C1517 C1516 1.397 . S
C1517 C1518 1.334 . S
C1518 H1489 0.950 . S
C1518 C1517 1.334 . S
C1518 C1519 1.287 . S
C1519 C1518 1.287 . S
C1519 C1520 1.524 . S
C1519 H1522 0.999 . S
C1520 H1490 0.950 . S
C1520 C1519 1.524 . S
C1520 C1521 1.415 . S
C1521 H1491 0.950 . S
C1521 C1516 1.363 . S
C1521 C1520 1.415 . S
H1522 C1519 0.999 . S
H1523 C1504 0.913 . S
H1524 C1542 0.951 . S
H1525 C1544 0.951 . S
H1526 C1546 0.950 . S
H1527 C1547 0.950 . S
H1528 C1549 0.950 . S
H1529 C1552 0.950 . S
H1530 C1553 0.950 . S
H1531 C1555 0.950 . S
H1532 C1556 0.950 . S
H1533 C1557 0.951 . S
H1534 C1559 0.951 . S
H1535 C1561 0.950 . S
H1536 C1562 0.950 . S
H1537 C1564 0.950 . S
H1538 C1567 0.950 . S
H1539 C1568 0.950 . S
H1540 C1570 0.950 . S
H1541 C1571 0.950 . S
C1542 H1524 0.951 . S
C1542 C1543 1.366 . S
C1542 C1544 1.388 . S
C1543 C1542 1.366 . S
C1543 C1547 1.385 . S
C1544 H1525 0.951 . S
C1544 C1542 1.388 . S
C1544 C1545 1.366 . S
C1545 C1544 1.366 . S
C1545 C1546 1.414 . S
C1545 C1548 1.499 . S
C1546 H1526 0.950 . S
C1546 C1545 1.414 . S
C1546 C1547 1.374 . S
C1547 H1527 0.950 . S
C1547 C1543 1.385 . S
C1547 C1546 1.374 . S
C1548 C1545 1.499 . S
C1548 C1549 1.373 . S
C1548 C1550 1.389 . S
C1549 H1528 0.950 . S
C1549 C1548 1.373 . S
C1549 C1565 1.377 . S
C1550 C1548 1.389 . S
C1550 C1551 1.524 . S
C1550 C1564 1.377 . S
C1551 C1550 1.524 . S
C1551 C1552 1.397 . S
C1551 C1556 1.363 . S
C1552 H1529 0.950 . S
C1552 C1551 1.397 . S
C1552 C1553 1.334 . S
C1553 H1530 0.950 . S
C1553 C1552 1.334 . S
C1553 C1554 1.287 . S
C1554 C1553 1.287 . S
C1554 C1555 1.524 . S
C1554 H1573 0.913 . S
C1555 H1531 0.950 . S
C1555 C1554 1.524 . S
C1555 C1556 1.415 . S
C1556 H1532 0.950 . S
C1556 C1551 1.363 . S
C1556 C1555 1.415 . S
C1557 H1533 0.951 . S
C1557 C1558 1.366 . S
C1557 C1559 1.388 . S
C1558 C1557 1.366 . S
C1558 C1562 1.385 . S
C1559 H1534 0.951 . S
C1559 C1557 1.388 . S
C1559 C1560 1.366 . S
C1560 C1559 1.366 . S
C1560 C1561 1.414 . S
C1560 C1563 1.499 . S
C1561 H1535 0.950 . S
C1561 C1560 1.414 . S
C1561 C1562 1.374 . S
C1562 H1536 0.950 . S
C1562 C1558 1.385 . S
C1562 C1561 1.374 . S
C1563 C1560 1.499 . S
C1563 C1564 1.373 . S
C1563 C1565 1.389 . S
C1564 H1537 0.950 . S
C1564 C1550 1.377 . S
C1564 C1563 1.373 . S
C1565 C1549 1.377 . S
C1565 C1563 1.389 . S
C1565 C1566 1.524 . S
C1566 C1565 1.524 . S
C1566 C1567 1.397 . S
C1566 C1571 1.363 . S
C1567 H1538 0.950 . S
C1567 C1566 1.397 . S
C1567 C1568 1.334 . S
C1568 H1539 0.950 . S
C1568 C1567 1.334 . S
C1568 C1569 1.287 . S
C1569 C1568 1.287 . S
C1569 C1570 1.524 . S
C1569 H1572 0.999 . S
C1570 H1540 0.950 . S
C1570 C1569 1.524 . S
C1570 C1571 1.415 . S
C1571 H1541 0.950 . S
C1571 C1566 1.363 . S
C1571 C1570 1.415 . S
H1572 C1569 0.999 . S
H1573 C1554 0.913 . S
H1574 C1592 0.951 . S
H1575 C1594 0.951 . S
H1576 C1596 0.950 . S
H1577 C1597 0.950 . S
H1578 C1599 0.950 . S
H1579 C1602 0.950 . S
H1580 C1603 0.950 . S
H1581 C1605 0.950 . S
H1582 C1606 0.950 . S
H1583 C1607 0.951 . S
H1584 C1609 0.951 . S
H1585 C1611 0.950 . S
H1586 C1612 0.950 . S
H1587 C1614 0.950 . S
H1588 C1617 0.950 . S
H1589 C1618 0.950 . S
H1590 C1620 0.950 . S
H1591 C1621 0.950 . S
C1592 H1574 0.951 . S
C1592 C1593 1.366 . S
C1592 C1594 1.388 . S
C1593 C1592 1.366 . S
C1593 C1597 1.385 . S
C1594 H1575 0.951 . S
C1594 C1592 1.388 . S
C1594 C1595 1.366 . S
C1595 C1594 1.366 . S
C1595 C1596 1.414 . S
C1595 C1598 1.499 . S
C1596 H1576 0.950 . S
C1596 C1595 1.414 . S
C1596 C1597 1.374 . S
C1597 H1577 0.950 . S
C1597 C1593 1.385 . S
C1597 C1596 1.374 . S
C1598 C1595 1.499 . S
C1598 C1599 1.373 . S
C1598 C1600 1.389 . S
C1599 H1578 0.950 . S
C1599 C1598 1.373 . S
C1599 C1615 1.377 . S
C1600 C1598 1.389 . S
C1600 C1601 1.524 . S
C1600 C1614 1.377 . S
C1601 C1600 1.524 . S
C1601 C1602 1.397 . S
C1601 C1606 1.363 . S
C1602 H1579 0.950 . S
C1602 C1601 1.397 . S
C1602 C1603 1.334 . S
C1603 H1580 0.950 . S
C1603 C1602 1.334 . S
C1603 C1604 1.287 . S
C1604 C1603 1.287 . S
C1604 C1605 1.524 . S
C1604 H1623 0.913 . S
C1605 H1581 0.950 . S
C1605 C1604 1.524 . S
C1605 C1606 1.415 . S
C1606 H1582 0.950 . S
C1606 C1601 1.363 . S
C1606 C1605 1.415 . S
C1607 H1583 0.951 . S
C1607 C1608 1.366 . S
C1607 C1609 1.388 . S
C1608 C1607 1.366 . S
C1608 C1612 1.385 . S
C1609 H1584 0.951 . S
C1609 C1607 1.388 . S
C1609 C1610 1.366 . S
C1610 C1609 1.366 . S
C1610 C1611 1.414 . S
C1610 C1613 1.499 . S
C1611 H1585 0.950 . S
C1611 C1610 1.414 . S
C1611 C1612 1.374 . S
C1612 H1586 0.950 . S
C1612 C1608 1.385 . S
C1612 C1611 1.374 . S
C1613 C1610 1.499 . S
C1613 C1614 1.373 . S
C1613 C1615 1.389 . S
C1614 H1587 0.950 . S
C1614 C1600 1.377 . S
C1614 C1613 1.373 . S
C1615 C1599 1.377 . S
C1615 C1613 1.389 . S
C1615 C1616 1.524 . S
C1616 C1615 1.524 . S
C1616 C1617 1.397 . S
C1616 C1621 1.363 . S
C1617 H1588 0.950 . S
C1617 C1616 1.397 . S
C1617 C1618 1.334 . S
C1618 H1589 0.950 . S
C1618 C1617 1.334 . S
C1618 C1619 1.287 . S
C1619 C1618 1.287 . S
C1619 C1620 1.524 . S
C1619 H1622 0.999 . S
C1620 H1590 0.950 . S
C1620 C1619 1.524 . S
C1620 C1621 1.415 . S
C1621 H1591 0.950 . S
C1621 C1616 1.363 . S
C1621 C1620 1.415 . S
H1622 C1619 0.999 . S
H1623 C1604 0.913 . S
H1624 C1642 0.951 . S
H1625 C1644 0.951 . S
H1626 C1646 0.950 . S
H1627 C1647 0.950 . S
H1628 C1649 0.950 . S
H1629 C1652 0.950 . S
H1630 C1653 0.950 . S
H1631 C1655 0.950 . S
H1632 C1656 0.950 . S
H1633 C1657 0.951 . S
H1634 C1659 0.951 . S
H1635 C1661 0.950 . S
H1636 C1662 0.950 . S
H1637 C1664 0.950 . S
H1638 C1667 0.950 . S
H1639 C1668 0.950 . S
H1640 C1670 0.950 . S
H1641 C1671 0.950 . S
C1642 H1624 0.951 . S
C1642 C1643 1.366 . S
C1642 C1644 1.388 . S
C1643 C1642 1.366 . S
C1643 C1647 1.385 . S
C1644 H1625 0.951 . S
C1644 C1642 1.388 . S
C1644 C1645 1.366 . S
C1645 C1644 1.366 . S
C1645 C1646 1.414 . S
C1645 C1648 1.499 . S
C1646 H1626 0.950 . S
C1646 C1645 1.414 . S
C1646 C1647 1.374 . S
C1647 H1627 0.950 . S
C1647 C1643 1.385 . S
C1647 C1646 1.374 . S
C1648 C1645 1.499 . S
C1648 C1649 1.373 . S
C1648 C1650 1.389 . S
C1649 H1628 0.950 . S
C1649 C1648 1.373 . S
C1649 C1665 1.377 . S
C1650 C1648 1.389 . S
C1650 C1651 1.524 . S
C1650 C1664 1.377 . S
C1651 C1650 1.524 . S
C1651 C1652 1.397 . S
C1651 C1656 1.363 . S
C1652 H1629 0.950 . S
C1652 C1651 1.397 . S
C1652 C1653 1.334 . S
C1653 H1630 0.950 . S
C1653 C1652 1.334 . S
C1653 C1654 1.287 . S
C1654 C1653 1.287 . S
C1654 C1655 1.524 . S
C1654 H1673 0.913 . S
C1655 H1631 0.950 . S
C1655 C1654 1.524 . S
C1655 C1656 1.415 . S
C1656 H1632 0.950 . S
C1656 C1651 1.363 . S
C1656 C1655 1.415 . S
C1657 H1633 0.951 . S
C1657 C1658 1.366 . S
C1657 C1659 1.388 . S
C1658 C1657 1.366 . S
C1658 C1662 1.385 . S
C1659 H1634 0.951 . S
C1659 C1657 1.388 . S
C1659 C1660 1.366 . S
C1660 C1659 1.366 . S
C1660 C1661 1.414 . S
C1660 C1663 1.499 . S
C1661 H1635 0.950 . S
C1661 C1660 1.414 . S
C1661 C1662 1.374 . S
C1662 H1636 0.950 . S
C1662 C1658 1.385 . S
C1662 C1661 1.374 . S
C1663 C1660 1.499 . S
C1663 C1664 1.373 . S
C1663 C1665 1.389 . S
C1664 H1637 0.950 . S
C1664 C1650 1.377 . S
C1664 C1663 1.373 . S
C1665 C1649 1.377 . S
C1665 C1663 1.389 . S
C1665 C1666 1.524 . S
C1666 C1665 1.524 . S
C1666 C1667 1.397 . S
C1666 C1671 1.363 . S
C1667 H1638 0.950 . S
C1667 C1666 1.397 . S
C1667 C1668 1.334 . S
C1668 H1639 0.950 . S
C1668 C1667 1.334 . S
C1668 C1669 1.287 . S
C1669 C1668 1.287 . S
C1669 C1670 1.524 . S
C1669 H1672 0.999 . S
C1670 H1640 0.950 . S
C1670 C1669 1.524 . S
C1670 C1671 1.415 . S
C1671 H1641 0.950 . S
C1671 C1666 1.363 . S
C1671 C1670 1.415 . S
H1672 C1669 0.999 . S
H1673 C1654 0.913 . S
H1674 C1692 0.951 . S
H1675 C1694 0.951 . S
H1676 C1696 0.950 . S
H1677 C1697 0.950 . S
H1678 C1699 0.950 . S
H1679 C1702 0.950 . S
H1680 C1703 0.950 . S
H1681 C1705 0.950 . S
H1682 C1706 0.950 . S
H1683 C1707 0.951 . S
H1684 C1709 0.951 . S
H1685 C1711 0.950 . S
H1686 C1712 0.950 . S
H1687 C1714 0.950 . S
H1688 C1717 0.950 . S
H1689 C1718 0.950 . S
H1690 C1720 0.950 . S
H1691 C1721 0.950 . S
C1692 H1674 0.951 . S
C1692 C1693 1.366 . S
C1692 C1694 1.388 . S
C1693 C1692 1.366 . S
C1693 C1697 1.385 . S
C1694 H1675 0.951 . S
C1694 C1692 1.388 . S
C1694 C1695 1.366 . S
C1695 C1694 1.366 . S
C1695 C1696 1.414 . S
C1695 C1698 1.499 . S
C1696 H1676 0.950 . S
C1696 C1695 1.414 . S
C1696 C1697 1.374 . S
C1697 H1677 0.950 . S
C1697 C1693 1.385 . S
C1697 C1696 1.374 . S
C1698 C1695 1.499 . S
C1698 C1699 1.373 . S
C1698 C1700 1.389 . S
C1699 H1678 0.950 . S
C1699 C1698 1.373 . S
C1699 C1715 1.377 . S
C1700 C1698 1.389 . S
C1700 C1701 1.524 . S
C1700 C1714 1.377 . S
C1701 C1700 1.524 . S
C1701 C1702 1.397 . S
C1701 C1706 1.363 . S
C1702 H1679 0.950 . S
C1702 C1701 1.397 . S
C1702 C1703 1.334 . S
C1703 H1680 0.950 . S
C1703 C1702 1.334 . S
C1703 C1704 1.287 . S
C1704 C1703 1.287 . S
C1704 C1705 1.524 . S
C1704 H1723 0.913 . S
C1705 H1681 0.950 . S
C1705 C1704 1.524 . S
C1705 C1706 1.415 . S
C1706 H1682 0.950 . S
C1706 C1701 1.363 . S
C1706 C1705 1.415 . S
C1707 H1683 0.951 . S
C1707 C1708 1.366 . S
C1707 C1709 1.388 . S
C1708 C1707 1.366 . S
C1708 C1712 1.385 . S
C1709 H1684 0.951 . S
C1709 C1707 1.388 . S
C1709 C1710 1.366 . S
C1710 C1709 1.366 . S
C1710 C1711 1.414 . S
C1710 C1713 1.499 . S
C1711 H1685 0.950 . S
C1711 C1710 1.414 . S
C1711 C1712 1.374 . S
C1712 H1686 0.950 . S
C1712 C1708 1.385 . S
C1712 C1711 1.374 . S
C1713 C1710 1.499 . S
C1713 C1714 1.373 . S
C1713 C1715 1.389 . S
C1714 H1687 0.950 . S
C1714 C1700 1.377 . S
C1714 C1713 1.373 . S
C1715 C1699 1.377 . S
C1715 C1713 1.389 . S
C1715 C1716 1.524 . S
C1716 C1715 1.524 . S
C1716 C1717 1.397 . S
C1716 C1721 1.363 . S
C1717 H1688 0.950 . S
C1717 C1716 1.397 . S
C1717 C1718 1.334 . S
C1718 H1689 0.950 . S
C1718 C1717 1.334 . S
C1718 C1719 1.287 . S
C1719 C1718 1.287 . S
C1719 C1720 1.524 . S
C1719 H1722 0.999 . S
C1720 H1690 0.950 . S
C1720 C1719 1.524 . S
C1720 C1721 1.415 . S
C1721 H1691 0.950 . S
C1721 C1716 1.363 . S
C1721 C1720 1.415 . S
H1722 C1719 0.999 . S
H1723 C1704 0.913 . S
H1724 C1742 0.951 . S
H1725 C1744 0.951 . S
H1726 C1746 0.950 . S
H1727 C1747 0.950 . S
H1728 C1749 0.950 . S
H1729 C1752 0.950 . S
H1730 C1753 0.950 . S
H1731 C1755 0.950 . S
H1732 C1756 0.950 . S
H1733 C1757 0.951 . S
H1734 C1759 0.951 . S
H1735 C1761 0.950 . S
H1736 C1762 0.950 . S
H1737 C1764 0.950 . S
H1738 C1767 0.950 . S
H1739 C1768 0.950 . S
H1740 C1770 0.950 . S
H1741 C1771 0.950 . S
C1742 H1724 0.951 . S
C1742 C1743 1.366 . S
C1742 C1744 1.388 . S
C1743 C1742 1.366 . S
C1743 C1747 1.385 . S
C1744 H1725 0.951 . S
C1744 C1742 1.388 . S
C1744 C1745 1.366 . S
C1745 C1744 1.366 . S
C1745 C1746 1.414 . S
C1745 C1748 1.499 . S
C1746 H1726 0.950 . S
C1746 C1745 1.414 . S
C1746 C1747 1.374 . S
C1747 H1727 0.950 . S
C1747 C1743 1.385 . S
C1747 C1746 1.374 . S
C1748 C1745 1.499 . S
C1748 C1749 1.373 . S
C1748 C1750 1.389 . S
C1749 H1728 0.950 . S
C1749 C1748 1.373 . S
C1749 C1765 1.377 . S
C1750 C1748 1.389 . S
C1750 C1751 1.524 . S
C1750 C1764 1.377 . S
C1751 C1750 1.524 . S
C1751 C1752 1.397 . S
C1751 C1756 1.363 . S
C1752 H1729 0.950 . S
C1752 C1751 1.397 . S
C1752 C1753 1.334 . S
C1753 H1730 0.950 . S
C1753 C1752 1.334 . S
C1753 C1754 1.287 . S
C1754 C1753 1.287 . S
C1754 C1755 1.524 . S
C1754 H1773 0.913 . S
C1755 H1731 0.950 . S
C1755 C1754 1.524 . S
C1755 C1756 1.415 . S
C1756 H1732 0.950 . S
C1756 C1751 1.363 . S
C1756 C1755 1.415 . S
C1757 H1733 0.951 . S
C1757 C1758 1.366 . S
C1757 C1759 1.388 . S
C1758 C1757 1.366 . S
C1758 C1762 1.385 . S
C1759 H1734 0.951 . S
C1759 C1757 1.388 . S
C1759 C1760 1.366 . S
C1760 C1759 1.366 . S
C1760 C1761 1.414 . S
C1760 C1763 1.499 . S
C1761 H1735 0.950 . S
C1761 C1760 1.414 . S
C1761 C1762 1.374 . S
C1762 H1736 0.950 . S
C1762 C1758 1.385 . S
C1762 C1761 1.374 . S
C1763 C1760 1.499 . S
C1763 C1764 1.373 . S
C1763 C1765 1.389 . S
C1764 H1737 0.950 . S
C1764 C1750 1.377 . S
C1764 C1763 1.373 . S
C1765 C1749 1.377 . S
C1765 C1763 1.389 . S
C1765 C1766 1.524 . S
C1766 C1765 1.524 . S
C1766 C1767 1.397 . S
C1766 C1771 1.363 . S
C1767 H1738 0.950 . S
C1767 C1766 1.397 . S
C1767 C1768 1.334 . S
C1768 H1739 0.950 . S
C1768 C1767 1.334 . S
C1768 C1769 1.287 . S
C1769 C1768 1.287 . S
C1769 C1770 1.524 . S
C1769 H1772 0.999 . S
C1770 H1740 0.950 . S
C1770 C1769 1.524 . S
C1770 C1771 1.415 . S
C1771 H1741 0.950 . S
C1771 C1766 1.363 . S
C1771 C1770 1.415 . S
H1772 C1769 0.999 . S
H1773 C1754 0.913 . S
H1774 C1792 0.951 . S
H1775 C1794 0.951 . S
H1776 C1796 0.950 . S
H1777 C1797 0.950 . S
H1778 C1799 0.950 . S
H1779 C1802 0.950 . S
H1780 C1803 0.950 . S
H1781 C1805 0.950 . S
H1782 C1806 0.950 . S
H1783 C1807 0.951 . S
H1784 C1809 0.951 . S
H1785 C1811 0.950 . S
H1786 C1812 0.950 . S
H1787 C1814 0.950 . S
H1788 C1817 0.950 . S
H1789 C1818 0.950 . S
H1790 C1820 0.950 . S
H1791 C1821 0.950 . S
C1792 H1774 0.951 . S
C1792 C1793 1.366 . S
C1792 C1794 1.388 . S
C1793 C1792 1.366 . S
C1793 C1797 1.385 . S
C1794 H1775 0.951 . S
C1794 C1792 1.388 . S
C1794 C1795 1.366 . S
C1795 C1794 1.366 . S
C1795 C1796 1.414 . S
C1795 C1798 1.499 . S
C1796 H1776 0.950 . S
C1796 C1795 1.414 . S
C1796 C1797 1.374 . S
C1797 H1777 0.950 . S
C1797 C1793 1.385 . S
C1797 C1796 1.374 . S
C1798 C1795 1.499 . S
C1798 C1799 1.373 . S
C1798 C1800 1.389 . S
C1799 H1778 0.950 . S
C1799 C1798 1.373 . S
C1799 C1815 1.377 . S
C1800 C1798 1.389 . S
C1800 C1801 1.524 . S
C1800 C1814 1.377 . S
C1801 C1800 1.524 . S
C1801 C1802 1.397 . S
C1801 C1806 1.363 . S
C1802 H1779 0.950 . S
C1802 C1801 1.397 . S
C1802 C1803 1.334 . S
C1803 H1780 0.950 . S
C1803 C1802 1.334 . S
C1803 C1804 1.287 . S
C1804 C1803 1.287 . S
C1804 C1805 1.524 . S
C1804 H1823 0.913 . S
C1805 H1781 0.950 . S
C1805 C1804 1.524 . S
C1805 C1806 1.415 . S
C1806 H1782 0.950 . S
C1806 C1801 1.363 . S
C1806 C1805 1.415 . S
C1807 H1783 0.951 . S
C1807 C1808 1.366 . S
C1807 C1809 1.388 . S
C1808 C1807 1.366 . S
C1808 C1812 1.385 . S
C1809 H1784 0.951 . S
C1809 C1807 1.388 . S
C1809 C1810 1.366 . S
C1810 C1809 1.366 . S
C1810 C1811 1.414 . S
C1810 C1813 1.499 . S
C1811 H1785 0.950 . S
C1811 C1810 1.414 . S
C1811 C1812 1.374 . S
C1812 H1786 0.950 . S
C1812 C1808 1.385 . S
C1812 C1811 1.374 . S
C1813 C1810 1.499 . S
C1813 C1814 1.373 . S
C1813 C1815 1.389 . S
C1814 H1787 0.950 . S
C1814 C1800 1.377 . S
C1814 C1813 1.373 . S
C1815 C1799 1.377 . S
C1815 C1813 1.389 . S
C1815 C1816 1.524 . S
C1816 C1815 1.524 . S
C1816 C1817 1.397 . S
C1816 C1821 1.363 . S
C1817 H1788 0.950 . S
C1817 C1816 1.397 . S
C1817 C1818 1.334 . S
C1818 H1789 0.950 . S
C1818 C1817 1.334 . S
C1818 C1819 1.287 . S
C1819 C1818 1.287 . S
C1819 C1820 1.524 . S
C1819 H1822 0.999 . S
C1820 H1790 0.950 . S
C1820 C1819 1.524 . S
C1820 C1821 1.415 . S
C1821 H1791 0.950 . S
C1821 C1816 1.363 . S
C1821 C1820 1.415 . S
H1822 C1819 0.999 . S
H1823 C1804 0.913 . S
C243 C13 1.332 . S
C258 C179 1.418 . S
C293 C193 1.418 . S
C308 C27 1.332 . S
C343 C41 1.332 . S
C358 C207 1.418 . S
C393 C221 1.418 . S
C408 C55 1.331 . S
C443 C125 1.332 . S
C458 C67 1.418 . S
C493 C81 1.418 . S
C508 C139 1.332 . S
C543 C153 1.332 . S
C558 C95 1.418 . S
C593 C109 1.418 . S
C608 C167 1.331 . S
C643 C8 1.343 . S
C658 C36 1.343 . S
C693 C22 1.343 . S
C708 C50 1.342 . S
C743 C64 1.500 . S
C758 C92 1.499 . S
C793 C78 1.500 . S
C808 C106 1.499 . S
C843 C148 1.343 . S
C858 C120 1.343 . S
C893 C134 1.343 . S
C908 C162 1.343 . S
C943 C204 1.499 . S
C958 C176 1.499 . S
C993 C190 1.499 . S
C1008 C218 1.499 . S
C1043 C91 1.495 . S
C1058 C7 1.494 . S
C1093 C105 1.494 . S
C1108 C21 1.494 . S
C1143 C35 1.495 . S
C1158 C63 1.495 . S
C1193 C49 1.495 . S
C1208 C77 1.495 . S
C1243 C203 1.495 . S
C1258 C119 1.494 . S
C1293 C133 1.495 . S
C1308 C217 1.495 . S
C1343 C175 1.494 . S
C1358 C147 1.494 . S
C1393 C161 1.494 . S
C1408 C189 1.494 . S
C1443 C11 1.278 . S
C1458 C53 1.278 . S
C1493 C39 1.279 . S
C1508 C25 1.279 . S
C1543 C69 1.451 . S
C1558 C111 1.451 . S
C1593 C83 1.451 . S
C1608 C97 1.451 . S
C1643 C165 1.279 . S
C1658 C123 1.279 . S
C1693 C137 1.279 . S
C1708 C151 1.279 . S
C1743 C223 1.451 . S
C1758 C181 1.450 . S
C1793 C195 1.452 . S
C1808 C209 1.451 . S
