# Generated by pormake.
# Topology crs, (6)-cn, num edge types: 1
# Building blocks:
#     Node 0, Type 0, BuildingBlock: LEVNOQ01_clean_sbu_1, # of connection points: 6
#     Node 1, Type 0, BuildingBlock: LEVNOQ01_clean_sbu_1, # of connection points: 6
#     Node 2, Type 0, BuildingBlock: LEVNOQ01_clean_sbu_1, # of connection points: 6
#     Node 3, Type 0, BuildingBlock: LEVNOQ01_clean_sbu_1, # of connection points: 6
#     Node 4, Type 0, BuildingBlock: LEVNOQ01_clean_sbu_1, # of connection points: 6
#     Node 5, Type 0, BuildingBlock: LEVNOQ01_clean_sbu_1, # of connection points: 6
#     Node 6, Type 0, BuildingBlock: LEVNOQ01_clean_sbu_1, # of connection points: 6
#     Node 7, Type 0, BuildingBlock: LEVNOQ01_clean_sbu_1, # of connection points: 6
#     Node 8, Type 0, BuildingBlock: LEVNOQ01_clean_sbu_1, # of connection points: 6
#     Node 9, Type 0, BuildingBlock: LEVNOQ01_clean_sbu_1, # of connection points: 6
#     Node 10, Type 0, BuildingBlock: LEVNOQ01_clean_sbu_1, # of connection points: 6
#     Node 11, Type 0, BuildingBlock: LEVNOQ01_clean_sbu_1, # of connection points: 6
#     Node 12, Type 0, BuildingBlock: LEVNOQ01_clean_sbu_1, # of connection points: 6
#     Node 13, Type 0, BuildingBlock: LEVNOQ01_clean_sbu_1, # of connection points: 6
#     Node 14, Type 0, BuildingBlock: LEVNOQ01_clean_sbu_1, # of connection points: 6
#     Node 15, Type 0, BuildingBlock: LEVNOQ01_clean_sbu_1, # of connection points: 6
#     Edge 16, Type (0, 0), None
#     Edge 17, Type (0, 0), None
#     Edge 18, Type (0, 0), None
#     Edge 19, Type (0, 0), None
#     Edge 20, Type (0, 0), None
#     Edge 21, Type (0, 0), None
#     Edge 22, Type (0, 0), None
#     Edge 23, Type (0, 0), None
#     Edge 24, Type (0, 0), None
#     Edge 25, Type (0, 0), None
#     Edge 26, Type (0, 0), None
#     Edge 27, Type (0, 0), None
#     Edge 28, Type (0, 0), None
#     Edge 29, Type (0, 0), None
#     Edge 30, Type (0, 0), None
#     Edge 31, Type (0, 0), None
#     Edge 32, Type (0, 0), None
#     Edge 33, Type (0, 0), None
#     Edge 34, Type (0, 0), None
#     Edge 35, Type (0, 0), None
#     Edge 36, Type (0, 0), None
#     Edge 37, Type (0, 0), None
#     Edge 38, Type (0, 0), None
#     Edge 39, Type (0, 0), None
#     Edge 40, Type (0, 0), None
#     Edge 41, Type (0, 0), None
#     Edge 42, Type (0, 0), None
#     Edge 43, Type (0, 0), None
#     Edge 44, Type (0, 0), None
#     Edge 45, Type (0, 0), None
#     Edge 46, Type (0, 0), None
#     Edge 47, Type (0, 0), None
#     Edge 48, Type (0, 0), None
#     Edge 49, Type (0, 0), None
#     Edge 50, Type (0, 0), None
#     Edge 51, Type (0, 0), None
#     Edge 52, Type (0, 0), None
#     Edge 53, Type (0, 0), None
#     Edge 54, Type (0, 0), None
#     Edge 55, Type (0, 0), None
#     Edge 56, Type (0, 0), None
#     Edge 57, Type (0, 0), None
#     Edge 58, Type (0, 0), None
#     Edge 59, Type (0, 0), None
#     Edge 60, Type (0, 0), None
#     Edge 61, Type (0, 0), None
#     Edge 62, Type (0, 0), None
#     Edge 63, Type (0, 0), None
# Relax obj value: 0.267
# Max RMSD: 0.238
# Mean RMSD: 0.224
data_MOF--net-crs--node1-LEVNOQ01_clean_sbu_1--edge1-none
_symmetry_space_group_name_H-M    P1
_symmetry_Int_Tables_number       1
_symmetry_cell_setting            triclinic
loop_
_symmetry_equiv_pos_as_xyz
'x, y, z'
_cell_length_a     21.058791
_cell_length_b     21.756298
_cell_length_c     20.495737
_cell_angle_alpha  90.458252
_cell_angle_beta   89.744035
_cell_angle_gamma 87.505492
loop_
_atom_site_label
_atom_site_type_symbol
_atom_site_fract_x
_atom_site_fract_y
_atom_site_fract_z
_atom_type_partial_charge
O0 O 0.86129 0.09226 0.03467 0.0
Mg1 Mg 0.90076 0.0967 0.94002 0.0
O2 O 0.91906 0.01077 0.06857 0.0
Mg3 Mg 0.94341 -0.05022 -0.02483 0.0
O4 O 0.88746 0.01175 0.90912 0.0
O5 O 0.83887 0.08998 0.86085 0.0
O6 O -0.02749 0.89024 0.88649 0.0
O7 O 0.8513 0.88938 -0.02147 0.0
Mg8 Mg -0.04134 0.8087 0.03463 0.0
O9 O 0.00283 0.88774 0.0428 0.0
O10 O -0.02814 0.79555 0.92882 0.0
O11 O 0.87018 0.84637 0.07081 0.0
O12 O 0.03706 0.80703 0.0986 0.0
C13 C 0.04429 0.06201 0.94516 0.0
C14 C 0.88576 0.06017 0.08035 0.0
C15 C 0.84406 0.03148 0.87001 0.0
C16 C -0.02168 0.83192 0.88052 0.0
C17 C 0.83532 0.85072 0.02122 0.0
C18 C 0.04321 0.86363 0.08302 0.0
O19 O 0.00048 0.10293 0.93537 0.0
O20 O 0.03281 0.00673 0.96055 0.0
O21 O 0.0222 0.26387 0.38646 0.0
Mg22 Mg -0.00094 0.17337 0.37514 0.0
O23 O -0.03262 0.28806 0.29803 0.0
Mg24 Mg -0.04901 0.20087 0.233 0.0
O25 O 0.02103 0.13564 0.28503 0.0
O26 O 0.0719 0.10805 0.37544 0.0
O27 O 0.94392 0.10769 0.16354 0.0
O28 O 0.03402 0.23834 0.17907 0.0
Mg29 Mg 0.91003 0.20543 0.13643 0.0
O30 O 0.87582 0.27843 0.18725 0.0
O31 O 0.84607 0.133 0.15222 0.0
O32 O 0.0022 0.20409 0.08585 0.0
O33 O 0.8586 0.26295 0.08033 0.0
C34 C 0.86084 0.14766 0.3506 0.0
C35 C -0.00236 0.30361 0.34885 0.0
C36 C 0.06077 0.09858 0.31448 0.0
C37 C 0.88958 0.09305 0.1429 0.0
C38 C 0.04452 0.22921 0.11922 0.0
C39 C 0.84809 0.29436 0.13295 0.0
O40 O 0.90468 0.14892 0.39288 0.0
O41 O 0.86896 0.16406 0.2919 0.0
O42 O 0.78419 0.28527 0.58688 0.0
Mg43 Mg 0.69852 0.32926 0.5542 0.0
O44 O 0.80934 0.24831 0.49205 0.0
Mg45 Mg 0.71444 0.18806 0.48066 0.0
O46 O 0.65955 0.24796 0.55257 0.0
O47 O 0.6192 0.31986 0.61755 0.0
O48 O 0.6187 0.13689 0.45814 0.0
O49 O 0.73428 0.11461 0.56664 0.0
Mg50 Mg 0.75372 0.04139 0.43305 0.0
O51 O 0.76723 0.12773 0.40913 0.0
O52 O 0.65236 0.04165 0.43004 0.0
O53 O 0.80129 0.04486 0.52318 0.0
O54 O 0.81275 0.05267 0.35133 0.0
C55 C 0.68563 0.31561 0.3965 0.0
C56 C 0.82037 0.28653 0.53809 0.0
C57 C 0.6185 0.26419 0.59615 0.0
C58 C 0.60741 0.08185 0.43998 0.0
C59 C 0.76912 0.06485 0.57155 0.0
C60 C 0.80802 0.11041 0.36572 0.0
O61 O 0.68906 0.3487 0.44846 0.0
O62 O 0.69072 0.25687 0.39763 0.0
O63 O 0.62419 0.85239 0.61524 0.0
Mg64 Mg 0.72209 0.86627 0.61511 0.0
O65 O 0.62671 -0.05338 0.64766 0.0
Mg66 Mg 0.7006 -0.05448 0.73356 0.0
O67 O 0.78269 0.88203 0.68953 0.0
O68 O 0.74821 0.79055 0.67725 0.0
O69 O 0.78397 -0.03757 0.80843 0.0
O70 O 0.65749 0.85685 0.77879 0.0
Mg71 Mg 0.66794 -0.03757 0.85575 0.0
O72 O 0.6198 0.00997 0.78089 0.0
O73 O 0.73922 0.01323 0.89057 0.0
O74 O 0.6721 0.86946 0.88321 0.0
O75 O 0.58354 0.00063 0.88368 0.0
C76 C 0.7498 0.01565 0.61545 0.0
C77 C 0.60129 0.90625 0.61276 0.0
C78 C 0.79528 0.82378 0.68703 0.0
C79 C 0.78816 -0.00319 0.85868 0.0
C80 C 0.65738 0.8355 0.83643 0.0
C81 C 0.57888 0.02505 0.82673 0.0
O82 O 0.74399 -0.03774 0.58897 0.0
O83 O 0.73835 0.02534 0.676 0.0
O84 O 0.51488 0.76615 0.38802 0.0
Mg85 Mg 0.49769 0.67255 0.38368 0.0
O86 O 0.48582 0.7854 0.28568 0.0
Mg87 Mg 0.45049 0.69503 0.23529 0.0
O88 O 0.52027 0.63494 0.29339 0.0
O89 O 0.57001 0.60536 0.38375 0.0
O90 O 0.41631 0.60481 0.18761 0.0
O91 O 0.5398 0.69775 0.1579 0.0
Mg92 Mg 0.43785 0.72715 0.13109 0.0
O93 O 0.36629 0.7617 0.18702 0.0
O94 O 0.44842 0.63614 0.09309 0.0
O95 O 0.51255 0.78617 0.11688 0.0
O96 O 0.36656 0.76221 0.07738 0.0
C97 C 0.35963 0.65483 0.36328 0.0
C98 C 0.50606 0.80302 0.34129 0.0
C99 C 0.56047 0.59794 0.32216 0.0
C100 C 0.42937 0.59339 0.12829 0.0
C101 C 0.55113 0.74054 0.1177 0.0
C102 C 0.34051 0.77867 0.13198 0.0
O103 O 0.4053 0.64622 0.4026 0.0
O104 O 0.36766 0.67774 0.30704 0.0
O105 O 0.28543 0.79276 0.57919 0.0
Mg106 Mg 0.19987 0.83627 0.54408 0.0
O107 O 0.30344 0.75184 0.48512 0.0
Mg108 Mg 0.20878 0.69473 0.48205 0.0
O109 O 0.1527 0.75989 0.54989 0.0
O110 O 0.12015 0.84224 0.60612 0.0
O111 O 0.11628 0.63976 0.46561 0.0
O112 O 0.2303 0.63216 0.57243 0.0
Mg113 Mg 0.25652 0.54627 0.44513 0.0
O114 O 0.26209 0.63167 0.41408 0.0
O115 O 0.15424 0.54445 0.44145 0.0
O116 O 0.30445 0.56943 0.53268 0.0
O117 O 0.31502 0.55825 0.36211 0.0
C118 C 0.17581 0.81163 0.39079 0.0
C119 C 0.31975 0.78981 0.5288 0.0
C120 C 0.11174 0.78637 0.58837 0.0
C121 C 0.10782 0.58369 0.44942 0.0
C122 C 0.26816 0.58544 0.57938 0.0
C123 C 0.30606 0.61626 0.37341 0.0
O124 O 0.18519 0.84851 0.43863 0.0
O125 O 0.1807 0.75352 0.39612 0.0
O126 O 0.15023 0.34657 0.5991 0.0
Mg127 Mg 0.22645 0.40187 0.61945 0.0
O128 O 0.12417 0.43147 0.65008 0.0
Mg129 Mg 0.21344 0.43865 0.72435 0.0
O130 O 0.29542 0.36563 0.67802 0.0
O131 O 0.29803 0.36349 0.56819 0.0
O132 O 0.29078 0.45888 0.79727 0.0
O133 O 0.18693 0.35115 0.78607 0.0
Mg134 Mg 0.14712 0.45127 0.8434 0.0
O135 O 0.14134 0.51479 0.77089 0.0
O136 O 0.23958 0.45154 0.89053 0.0
O137 O 0.09133 0.37789 0.81349 0.0
O138 O 0.09154 0.52435 0.86836 0.0
C139 C 0.24252 0.53321 0.61268 0.0
C140 C 0.11081 0.39092 0.60765 0.0
C141 C 0.32188 0.34683 0.62315 0.0
C142 C 0.29055 0.46071 0.85906 0.0
C143 C 0.13641 0.33866 0.81644 0.0
C144 C 0.10309 0.54517 0.81099 0.0
O145 O 0.22273 0.49029 0.57775 0.0
O146 O 0.25098 0.52406 0.67273 0.0
O147 O 0.04816 0.53444 0.37398 0.0
Mg148 Mg 0.08434 0.44491 0.39705 0.0
O149 O 0.00806 0.54415 0.47095 0.0
Mg150 Mg 0.94503 0.45539 0.47489 0.0
O151 O 0.00129 0.40368 0.3962 0.0
O152 O 0.07785 0.37257 0.32913 0.0
O153 O 0.88843 0.36268 0.48997 0.0
O154 O 0.87136 0.48783 0.39517 0.0
Mg155 Mg 0.79945 0.49063 0.54085 0.0
O156 O 0.8898 0.50799 0.55051 0.0
O157 O 0.80247 0.39324 0.54739 0.0
O158 O 0.78424 0.52586 0.44658 0.0
O159 O 0.81896 0.55751 0.61187 0.0
C160 C 0.07569 0.41161 0.54975 0.0
C161 C 0.04521 0.56377 0.42722 0.0
C162 C 0.02252 0.36442 0.35359 0.0
C163 C 0.83805 0.35047 0.52198 0.0
C164 C 0.81522 0.51305 0.39453 0.0
C165 C 0.87586 0.55368 0.58849 0.0
O166 O 0.10814 0.42106 0.49794 0.0
O167 O 0.01555 0.42073 0.55242 0.0
O168 O 0.25515 0.34218 0.04947 0.0
Mg169 Mg 0.15713 0.33364 0.02797 0.0
O170 O 0.28639 0.25018 0.00971 0.0
Mg171 Mg 0.20037 0.1953 -0.02438 0.0
O172 O 0.13289 0.24606 0.04631 0.0
O173 O 0.08871 0.32543 0.10038 0.0
O174 O 0.11756 0.13935 0.94666 0.0
O175 O 0.21859 0.12393 0.05883 0.0
Mg176 Mg 0.25642 0.05979 0.93454 0.0
O177 O 0.26405 0.14561 0.89975 0.0
O178 O 0.156 0.0422 0.94269 0.0
O179 O 0.30589 0.07924 0.02087 0.0
O180 O 0.30763 0.06501 0.84749 0.0
C181 C 0.14601 0.31257 0.88155 0.0
C182 C 0.29856 0.30149 0.03663 0.0
C183 C 0.09116 0.2672 0.08793 0.0
C184 C 0.10956 0.08175 0.94345 0.0
C185 C 0.26527 0.08552 0.06596 0.0
C186 C 0.30224 0.12383 0.8551 0.0
O187 O 0.12894 0.34656 0.92984 0.0
O188 O 0.17705 0.26162 0.88929 0.0
O189 O 0.13487 0.91951 0.06847 0.0
Mg190 Mg 0.22795 0.91524 0.11025 0.0
O191 O 0.11289 0.89202 0.16739 0.0
Mg192 Mg 0.19798 -0.0594 0.21557 0.0
O193 O 0.27151 0.85933 0.17853 0.0
O194 O 0.2649 0.83628 0.07193 0.0
O195 O 0.27893 -0.01493 0.27151 0.0
O196 O 0.20598 0.8633 0.29788 0.0
Mg197 Mg 0.13886 -0.05256 0.29661 0.0
O198 O 0.12137 0.02553 0.2483 0.0
O199 O 0.21701 -0.0267 0.35687 0.0
O200 O 0.10546 0.85875 0.3168 0.0
O201 O 0.06033 -0.00601 0.32952 0.0
C202 C 0.25596 0.02998 0.10357 0.0
C203 C 0.09668 0.89696 0.10804 0.0
C204 C 0.28738 0.82422 0.12883 0.0
C205 C 0.26942 -0.01039 0.33271 0.0
C206 C 0.16121 0.83817 0.32737 0.0
C207 C 0.07621 0.03649 0.29063 0.0
O208 O 0.29015 -0.01676 0.08878 0.0
O209 O 0.20654 0.02253 0.13826 0.0
O210 O 0.55346 0.24153 0.81657 0.0
Mg211 Mg 0.48381 0.17409 0.81426 0.0
O212 O 0.45899 0.27457 0.79418 0.0
Mg213 Mg 0.45312 0.18744 0.71767 0.0
O214 O 0.51994 0.10182 0.76343 0.0
O215 O 0.51825 0.10723 0.87277 0.0
O216 O 0.43578 0.10264 0.64739 0.0
O217 O 0.545 0.2262 0.67122 0.0
Mg218 Mg 0.43832 0.21106 0.5981 0.0
O219 O 0.38748 0.26432 0.66856 0.0
O220 O 0.388 0.14167 0.56147 0.0
O221 O 0.53286 0.20781 0.56739 0.0
O222 O 0.40098 0.2908 0.56397 0.0
C223 C 0.34875 0.16141 0.82295 0.0
C224 C 0.51081 0.28289 0.82397 0.0
C225 C 0.53532 0.07883 0.81999 0.0
C226 C 0.40357 0.0959 0.59559 0.0
C227 C 0.56669 0.22576 0.61322 0.0
C228 C 0.37472 0.30088 0.62007 0.0
O229 O 0.3898 0.18619 0.8579 0.0
O230 O 0.36301 0.15017 0.764 0.0
O231 O 0.04545 0.78124 0.80454 0.0
Mg232 Mg 0.00812 0.69231 0.79198 0.0
O233 O 0.94486 0.77812 0.78895 0.0
Mg234 Mg -0.04314 0.69481 0.70958 0.0
O235 O 0.0366 0.61455 0.74734 0.0
O236 O 0.07847 0.647 0.8406 0.0
O237 O -0.0486 0.61785 0.63203 0.0
O238 O 0.04023 0.73965 0.65836 0.0
Mg239 Mg 0.91294 0.74661 0.56422 0.0
O240 O 0.89037 0.76315 0.66005 0.0
O241 O 0.88531 0.65449 0.5565 0.0
O242 O 0.01053 0.76334 0.55668 0.0
O243 O 0.84392 0.81773 0.58287 0.0
C244 C 0.87595 0.65282 0.82265 0.0
C245 C -0.0094 0.80399 0.81622 0.0
C246 C 0.0752 0.60584 0.79594 0.0
C247 C 0.91104 0.60961 0.58727 0.0
C248 C 0.05193 0.75938 0.60135 0.0
C249 C 0.84776 0.80409 0.64379 0.0
O250 O 0.92561 0.67272 0.84885 0.0
O251 O 0.87221 0.65086 0.76095 0.0
O252 O 0.63961 0.43576 0.07611 0.0
Mg253 Mg 0.7341 0.4327 0.11139 0.0
O254 O 0.63164 0.40215 0.1744 0.0
Mg255 Mg 0.71422 0.45547 0.22253 0.0
O256 O 0.78952 0.38212 0.17936 0.0
O257 O 0.77166 0.35364 0.0756 0.0
O258 O 0.79277 0.50052 0.28028 0.0
O259 O 0.72197 0.37382 0.30713 0.0
Mg260 Mg 0.65224 0.45257 0.28266 0.0
O261 O 0.63443 0.53899 0.25563 0.0
O262 O 0.72011 0.48174 0.35313 0.0
O263 O 0.62075 0.3668 0.31836 0.0
O264 O 0.56799 0.49111 0.31858 0.0
C265 C 0.76434 0.54446 0.09798 0.0
C266 C 0.60903 0.40709 0.11758 0.0
C267 C 0.8013 0.34568 0.12975 0.0
C268 C 0.77422 0.50158 0.33922 0.0
C269 C 0.67581 0.34766 0.33389 0.0
C270 C 0.58462 0.54073 0.29224 0.0
O271 O 0.78591 0.49689 0.06949 0.0
O272 O 0.72832 0.54004 0.14793 0.0
O273 O 0.5883 0.61446 0.86569 0.0
Mg274 Mg 0.55875 0.7036 0.9 0.0
O275 O 0.64355 0.5951 0.95331 0.0
Mg276 Mg 0.70554 0.68685 0.96393 0.0
O277 O 0.64343 0.74095 0.89298 0.0
O278 O 0.56435 0.77793 0.8338 0.0
O279 O 0.75857 0.77886 -0.01531 0.0
O280 O 0.77694 0.66563 0.87524 0.0
Mg281 Mg 0.85425 0.65065 0.00118 0.0
O282 O 0.76764 0.63582 0.03683 0.0
O283 O 0.8591 0.74726 0.00112 0.0
O284 O 0.8494 0.59998 0.91337 0.0
O285 O 0.85415 0.60148 0.08733 0.0
C286 C 0.57998 0.72321 0.05442 0.0
C287 C 0.60124 0.57873 0.91241 0.0
C288 C 0.62254 0.78106 0.85182 0.0
C289 C 0.81649 0.79018 -0.00317 0.0
C290 C 0.82685 0.63079 0.86631 0.0
C291 C 0.79339 0.60084 0.08047 0.0
O292 O 0.54314 0.72039 0.00489 0.0
O293 O 0.63973 0.71284 0.04988 0.0
O294 O 0.29438 0.03769 0.428 0.0
Mg295 Mg 0.29439 -0.00851 0.51831 0.0
O296 O 0.36994 -0.02234 0.38233 0.0
Mg297 Mg 0.44469 -0.04524 0.46592 0.0
O298 O 0.38404 0.0029 0.54111 0.0
O299 O 0.30835 0.04599 0.60159 0.0
O300 O 0.51217 0.92834 0.54718 0.0
O301 O 0.504 0.04768 0.46005 0.0
Mg302 Mg 0.58881 -0.05314 0.39596 0.0
O303 O 0.50767 0.90237 0.39118 0.0
O304 O 0.60842 0.93233 0.50112 0.0
O305 O 0.54713 0.03235 0.36546 0.0
O306 O 0.58911 0.87143 0.33016 0.0
C307 C 0.33754 0.85122 0.50646 0.0
C308 C 0.31763 0.00983 0.3784 0.0
C309 C 0.36758 0.04194 0.58563 0.0
C310 C 0.57233 0.92505 0.5509 0.0
C311 C 0.54373 0.06428 0.41692 0.0
C312 C 0.53204 0.86326 0.34979 0.0
O313 O 0.29698 0.89465 0.51957 0.0
O314 O 0.39311 0.86171 0.48467 0.0
O315 O 0.36127 0.55241 0.05674 0.0
Mg316 Mg 0.3947 0.56411 0.96021 0.0
O317 O 0.44959 0.49976 0.07528 0.0
Mg318 Mg 0.45955 0.42989 -0.01286 0.0
O319 O 0.38293 0.47879 0.92592 0.0
O320 O 0.32686 0.55837 0.88704 0.0
O321 O 0.47539 0.36221 0.89853 0.0
O322 O 0.37699 0.37291 0.02242 0.0
Mg323 Mg 0.50812 0.28549 0.03464 0.0
O324 O 0.52407 0.37467 0.05078 0.0
O325 O 0.5335 0.281 0.93443 0.0
O326 O 0.40797 0.27671 0.04821 0.0
O327 O 0.5752 0.30477 0.10882 0.0
C328 C 0.54434 0.54809 0.93768 0.0
C329 C 0.40708 0.53955 0.09423 0.0
C330 C 0.33707 0.49966 0.8897 0.0
C331 C 0.50893 0.31268 0.88818 0.0
C332 C 0.36471 0.31862 0.04019 0.0
C333 C 0.5661 0.36179 0.09386 0.0
O334 O 0.49322 0.58183 0.94072 0.0
O335 O 0.54416 0.4902 0.94934 0.0
loop_
_geom_bond_atom_site_label_1
_geom_bond_atom_site_label_2
_geom_bond_distance
_geom_bond_site_symmetry_2
_ccdc_geom_bond_type
O0 Mg1 1.990 1_554 S
O0 C14 1.253 . S
Mg1 O0 1.990 1_556 S
Mg1 O4 2.180 . S
Mg1 O5 2.117 . S
Mg1 O19 2.030 1_655 S
O2 Mg3 2.072 1_654 S
O2 C14 1.260 . S
Mg3 O2 2.072 1_456 S
Mg3 O4 2.099 1_455 S
Mg3 O6 2.079 1_545 S
Mg3 O7 2.072 1_446 S
Mg3 O9 2.099 1_546 S
Mg3 O20 2.079 . S
O4 Mg1 2.180 . S
O4 Mg3 2.099 1_655 S
O4 C15 1.279 . S
O5 Mg1 2.117 . S
O5 C15 1.250 . S
O6 Mg3 2.079 1_565 S
O6 C16 1.264 . S
O7 Mg3 2.072 1_664 S
O7 C17 1.260 . S
Mg8 O9 2.180 . S
Mg8 O10 2.030 1_554 S
Mg8 O11 1.990 1_455 S
Mg8 O12 2.117 . S
O9 Mg3 2.099 1_564 S
O9 Mg8 2.180 . S
O9 C18 1.279 . S
O10 Mg8 2.030 1_556 S
O10 C16 1.248 . S
O11 Mg8 1.990 1_655 S
O11 C17 1.253 . S
O12 Mg8 2.117 . S
O12 C18 1.250 . S
C13 O19 1.248 . S
C13 O20 1.264 . S
C14 O0 1.253 . S
C14 O2 1.260 . S
C15 O4 1.279 . S
C15 O5 1.250 . S
C16 O6 1.264 . S
C16 O10 1.248 . S
C17 O7 1.260 . S
C17 O11 1.253 . S
C18 O9 1.279 . S
C18 O12 1.250 . S
O19 Mg1 2.030 1_455 S
O19 C13 1.248 . S
O20 Mg3 2.079 . S
O20 C13 1.264 . S
O21 Mg22 1.990 . S
O21 C35 1.253 . S
Mg22 O21 1.990 . S
Mg22 O25 2.180 . S
Mg22 O26 2.117 . S
Mg22 O40 2.030 1_455 S
O23 Mg24 2.070 1_455 S
O23 C35 1.260 . S
Mg24 O23 2.070 1_655 S
Mg24 O25 2.093 1_655 S
Mg24 O27 2.081 . S
Mg24 O28 2.065 1_655 S
Mg24 O30 2.104 . S
Mg24 O41 2.086 . S
O25 Mg22 2.180 . S
O25 Mg24 2.093 1_455 S
O25 C36 1.279 . S
O26 Mg22 2.117 . S
O26 C36 1.250 . S
O27 Mg24 2.081 . S
O27 C37 1.264 . S
O28 Mg24 2.065 1_455 S
O28 C38 1.260 . S
Mg29 O30 2.180 . S
Mg29 O31 2.030 . S
Mg29 O32 1.990 1_655 S
Mg29 O33 2.117 . S
O30 Mg24 2.104 . S
O30 Mg29 2.180 . S
O30 C39 1.279 . S
O31 Mg29 2.030 . S
O31 C37 1.248 . S
O32 Mg29 1.990 1_455 S
O32 C38 1.253 . S
O33 Mg29 2.117 . S
O33 C39 1.250 . S
C34 O40 1.248 . S
C34 O41 1.264 . S
C35 O21 1.253 . S
C35 O23 1.260 . S
C36 O25 1.279 . S
C36 O26 1.250 . S
C37 O27 1.264 . S
C37 O31 1.248 . S
C38 O28 1.260 . S
C38 O32 1.253 . S
C39 O30 1.279 . S
C39 O33 1.250 . S
O40 Mg22 2.030 1_655 S
O40 C34 1.248 . S
O41 Mg24 2.086 . S
O41 C34 1.264 . S
O42 Mg43 1.990 . S
O42 C56 1.253 . S
Mg43 O42 1.990 . S
Mg43 O46 2.180 . S
Mg43 O47 2.117 . S
Mg43 O61 2.030 . S
O44 Mg45 2.072 . S
O44 C56 1.260 . S
Mg45 O44 2.072 . S
Mg45 O46 2.099 . S
Mg45 O48 2.079 . S
Mg45 O49 2.072 . S
Mg45 O51 2.099 . S
Mg45 O62 2.079 . S
O46 Mg43 2.180 . S
O46 Mg45 2.099 . S
O46 C57 1.279 . S
O47 Mg43 2.117 . S
O47 C57 1.250 . S
O48 Mg45 2.079 . S
O48 C58 1.264 . S
O49 Mg45 2.072 . S
O49 C59 1.260 . S
Mg50 O51 2.180 . S
Mg50 O52 2.030 . S
Mg50 O53 1.990 . S
Mg50 O54 2.117 . S
O51 Mg45 2.099 . S
O51 Mg50 2.180 . S
O51 C60 1.279 . S
O52 Mg50 2.030 . S
O52 C58 1.248 . S
O53 Mg50 1.990 . S
O53 C59 1.253 . S
O54 Mg50 2.117 . S
O54 C60 1.250 . S
C55 O61 1.248 . S
C55 O62 1.264 . S
C56 O42 1.253 . S
C56 O44 1.260 . S
C57 O46 1.279 . S
C57 O47 1.250 . S
C58 O48 1.264 . S
C58 O52 1.248 . S
C59 O49 1.260 . S
C59 O53 1.253 . S
C60 O51 1.279 . S
C60 O54 1.250 . S
O61 Mg43 2.030 . S
O61 C55 1.248 . S
O62 Mg45 2.079 . S
O62 C55 1.264 . S
O63 Mg64 1.990 . S
O63 C77 1.253 . S
Mg64 O63 1.990 . S
Mg64 O67 2.180 . S
Mg64 O68 2.117 . S
Mg64 O82 2.030 1_565 S
O65 Mg66 2.072 1_565 S
O65 C77 1.260 . S
Mg66 O65 2.072 1_545 S
Mg66 O67 2.099 1_545 S
Mg66 O69 2.079 . S
Mg66 O70 2.072 1_545 S
Mg66 O72 2.099 . S
Mg66 O83 2.079 . S
O67 Mg64 2.180 . S
O67 Mg66 2.099 1_565 S
O67 C78 1.279 . S
O68 Mg64 2.117 . S
O68 C78 1.250 . S
O69 Mg66 2.079 . S
O69 C79 1.264 . S
O70 Mg66 2.072 1_565 S
O70 C80 1.260 . S
Mg71 O72 2.180 . S
Mg71 O73 2.030 . S
Mg71 O74 1.990 1_545 S
Mg71 O75 2.117 . S
O72 Mg66 2.099 . S
O72 Mg71 2.180 . S
O72 C81 1.279 . S
O73 Mg71 2.030 . S
O73 C79 1.248 . S
O74 Mg71 1.990 1_565 S
O74 C80 1.253 . S
O75 Mg71 2.117 . S
O75 C81 1.250 . S
C76 O82 1.248 . S
C76 O83 1.264 . S
C77 O63 1.253 . S
C77 O65 1.260 . S
C78 O67 1.279 . S
C78 O68 1.250 . S
C79 O69 1.264 . S
C79 O73 1.248 . S
C80 O70 1.260 . S
C80 O74 1.253 . S
C81 O72 1.279 . S
C81 O75 1.250 . S
O82 Mg64 2.030 1_545 S
O82 C76 1.248 . S
O83 Mg66 2.079 . S
O83 C76 1.264 . S
O84 Mg85 1.990 . S
O84 C98 1.253 . S
Mg85 O84 1.990 . S
Mg85 O88 2.180 . S
Mg85 O89 2.117 . S
Mg85 O103 2.030 . S
O86 Mg87 2.072 . S
O86 C98 1.260 . S
Mg87 O86 2.072 . S
Mg87 O88 2.099 . S
Mg87 O90 2.079 . S
Mg87 O91 2.072 . S
Mg87 O93 2.099 . S
Mg87 O104 2.079 . S
O88 Mg85 2.180 . S
O88 Mg87 2.099 . S
O88 C99 1.279 . S
O89 Mg85 2.117 . S
O89 C99 1.250 . S
O90 Mg87 2.079 . S
O90 C100 1.264 . S
O91 Mg87 2.072 . S
O91 C101 1.260 . S
Mg92 O93 2.180 . S
Mg92 O94 2.030 . S
Mg92 O95 1.990 . S
Mg92 O96 2.117 . S
O93 Mg87 2.099 . S
O93 Mg92 2.180 . S
O93 C102 1.279 . S
O94 Mg92 2.030 . S
O94 C100 1.248 . S
O95 Mg92 1.990 . S
O95 C101 1.253 . S
O96 Mg92 2.117 . S
O96 C102 1.250 . S
C97 O103 1.248 . S
C97 O104 1.264 . S
C98 O84 1.253 . S
C98 O86 1.260 . S
C99 O88 1.279 . S
C99 O89 1.250 . S
C100 O90 1.264 . S
C100 O94 1.248 . S
C101 O91 1.260 . S
C101 O95 1.253 . S
C102 O93 1.279 . S
C102 O96 1.250 . S
O103 Mg85 2.030 . S
O103 C97 1.248 . S
O104 Mg87 2.079 . S
O104 C97 1.264 . S
O105 Mg106 1.990 . S
O105 C119 1.253 . S
Mg106 O105 1.990 . S
Mg106 O109 2.180 . S
Mg106 O110 2.117 . S
Mg106 O124 2.030 . S
O107 Mg108 2.072 . S
O107 C119 1.260 . S
Mg108 O107 2.072 . S
Mg108 O109 2.099 . S
Mg108 O111 2.079 . S
Mg108 O112 2.072 . S
Mg108 O114 2.099 . S
Mg108 O125 2.079 . S
O109 Mg106 2.180 . S
O109 Mg108 2.099 . S
O109 C120 1.279 . S
O110 Mg106 2.117 . S
O110 C120 1.250 . S
O111 Mg108 2.079 . S
O111 C121 1.264 . S
O112 Mg108 2.072 . S
O112 C122 1.260 . S
Mg113 O114 2.180 . S
Mg113 O115 2.030 . S
Mg113 O116 1.990 . S
Mg113 O117 2.117 . S
O114 Mg108 2.099 . S
O114 Mg113 2.180 . S
O114 C123 1.279 . S
O115 Mg113 2.030 . S
O115 C121 1.248 . S
O116 Mg113 1.990 . S
O116 C122 1.253 . S
O117 Mg113 2.117 . S
O117 C123 1.250 . S
C118 O124 1.248 . S
C118 O125 1.264 . S
C119 O105 1.253 . S
C119 O107 1.260 . S
C120 O109 1.279 . S
C120 O110 1.250 . S
C121 O111 1.264 . S
C121 O115 1.248 . S
C122 O112 1.260 . S
C122 O116 1.253 . S
C123 O114 1.279 . S
C123 O117 1.250 . S
O124 Mg106 2.030 . S
O124 C118 1.248 . S
O125 Mg108 2.079 . S
O125 C118 1.264 . S
O126 Mg127 1.990 . S
O126 C140 1.253 . S
Mg127 O126 1.990 . S
Mg127 O130 2.180 . S
Mg127 O131 2.117 . S
Mg127 O145 2.030 . S
O128 Mg129 2.072 . S
O128 C140 1.260 . S
Mg129 O128 2.072 . S
Mg129 O130 2.099 . S
Mg129 O132 2.079 . S
Mg129 O133 2.072 . S
Mg129 O135 2.099 . S
Mg129 O146 2.079 . S
O130 Mg127 2.180 . S
O130 Mg129 2.099 . S
O130 C141 1.279 . S
O131 Mg127 2.117 . S
O131 C141 1.250 . S
O132 Mg129 2.079 . S
O132 C142 1.264 . S
O133 Mg129 2.072 . S
O133 C143 1.260 . S
Mg134 O135 2.180 . S
Mg134 O136 2.030 . S
Mg134 O137 1.990 . S
Mg134 O138 2.117 . S
O135 Mg129 2.099 . S
O135 Mg134 2.180 . S
O135 C144 1.279 . S
O136 Mg134 2.030 . S
O136 C142 1.248 . S
O137 Mg134 1.990 . S
O137 C143 1.253 . S
O138 Mg134 2.117 . S
O138 C144 1.250 . S
C139 O145 1.248 . S
C139 O146 1.264 . S
C140 O126 1.253 . S
C140 O128 1.260 . S
C141 O130 1.279 . S
C141 O131 1.250 . S
C142 O132 1.264 . S
C142 O136 1.248 . S
C143 O133 1.260 . S
C143 O137 1.253 . S
C144 O135 1.279 . S
C144 O138 1.250 . S
O145 Mg127 2.030 . S
O145 C139 1.248 . S
O146 Mg129 2.079 . S
O146 C139 1.264 . S
O147 Mg148 1.990 . S
O147 C161 1.253 . S
Mg148 O147 1.990 . S
Mg148 O151 2.180 . S
Mg148 O152 2.117 . S
Mg148 O166 2.030 . S
O149 Mg150 2.072 . S
O149 C161 1.260 . S
Mg150 O149 2.072 . S
Mg150 O151 2.099 . S
Mg150 O153 2.079 1_455 S
Mg150 O154 2.072 1_455 S
Mg150 O156 2.099 1_455 S
Mg150 O167 2.079 . S
O151 Mg148 2.180 . S
O151 Mg150 2.099 . S
O151 C162 1.279 . S
O152 Mg148 2.117 . S
O152 C162 1.250 . S
O153 Mg150 2.079 1_655 S
O153 C163 1.264 . S
O154 Mg150 2.072 1_655 S
O154 C164 1.260 . S
Mg155 O156 2.180 . S
Mg155 O157 2.030 . S
Mg155 O158 1.990 . S
Mg155 O159 2.117 . S
O156 Mg150 2.099 1_655 S
O156 Mg155 2.180 . S
O156 C165 1.279 . S
O157 Mg155 2.030 . S
O157 C163 1.248 . S
O158 Mg155 1.990 . S
O158 C164 1.253 . S
O159 Mg155 2.117 . S
O159 C165 1.250 . S
C160 O166 1.248 . S
C160 O167 1.264 . S
C161 O147 1.253 . S
C161 O149 1.260 . S
C162 O151 1.279 . S
C162 O152 1.250 . S
C163 O153 1.264 . S
C163 O157 1.248 . S
C164 O154 1.260 . S
C164 O158 1.253 . S
C165 O156 1.279 . S
C165 O159 1.250 . S
O166 Mg148 2.030 . S
O166 C160 1.248 . S
O167 Mg150 2.079 . S
O167 C160 1.264 . S
O168 Mg169 1.990 . S
O168 C182 1.253 . S
Mg169 O168 1.990 . S
Mg169 O172 2.180 . S
Mg169 O173 2.117 . S
Mg169 O187 2.030 1_554 S
O170 Mg171 2.072 1_554 S
O170 C182 1.260 . S
Mg171 O170 2.072 1_556 S
Mg171 O172 2.099 1_556 S
Mg171 O174 2.079 . S
Mg171 O175 2.072 1_556 S
Mg171 O177 2.099 . S
Mg171 O188 2.079 . S
O172 Mg169 2.180 . S
O172 Mg171 2.099 1_554 S
O172 C183 1.279 . S
O173 Mg169 2.117 . S
O173 C183 1.250 . S
O174 Mg171 2.079 . S
O174 C184 1.264 . S
O175 Mg171 2.072 1_554 S
O175 C185 1.260 . S
Mg176 O177 2.180 . S
Mg176 O178 2.030 . S
Mg176 O179 1.990 1_556 S
Mg176 O180 2.117 . S
O177 Mg171 2.099 . S
O177 Mg176 2.180 . S
O177 C186 1.279 . S
O178 Mg176 2.030 . S
O178 C184 1.248 . S
O179 Mg176 1.990 1_554 S
O179 C185 1.253 . S
O180 Mg176 2.117 . S
O180 C186 1.250 . S
C181 O187 1.248 . S
C181 O188 1.264 . S
C182 O168 1.253 . S
C182 O170 1.260 . S
C183 O172 1.279 . S
C183 O173 1.250 . S
C184 O174 1.264 . S
C184 O178 1.248 . S
C185 O175 1.260 . S
C185 O179 1.253 . S
C186 O177 1.279 . S
C186 O180 1.250 . S
O187 Mg169 2.030 1_556 S
O187 C181 1.248 . S
O188 Mg171 2.079 . S
O188 C181 1.264 . S
O189 Mg190 1.990 . S
O189 C203 1.253 . S
Mg190 O189 1.990 . S
Mg190 O193 2.180 . S
Mg190 O194 2.117 . S
Mg190 O208 2.030 1_565 S
O191 Mg192 2.072 1_565 S
O191 C203 1.260 . S
Mg192 O191 2.072 1_545 S
Mg192 O193 2.099 1_545 S
Mg192 O195 2.079 . S
Mg192 O196 2.072 1_545 S
Mg192 O198 2.099 . S
Mg192 O209 2.079 . S
O193 Mg190 2.180 . S
O193 Mg192 2.099 1_565 S
O193 C204 1.279 . S
O194 Mg190 2.117 . S
O194 C204 1.250 . S
O195 Mg192 2.079 . S
O195 C205 1.264 . S
O196 Mg192 2.072 1_565 S
O196 C206 1.260 . S
Mg197 O198 2.180 . S
Mg197 O199 2.030 . S
Mg197 O200 1.990 1_545 S
Mg197 O201 2.117 . S
O198 Mg192 2.099 . S
O198 Mg197 2.180 . S
O198 C207 1.279 . S
O199 Mg197 2.030 . S
O199 C205 1.248 . S
O200 Mg197 1.990 1_565 S
O200 C206 1.253 . S
O201 Mg197 2.117 . S
O201 C207 1.250 . S
C202 O208 1.248 . S
C202 O209 1.264 . S
C203 O189 1.253 . S
C203 O191 1.260 . S
C204 O193 1.279 . S
C204 O194 1.250 . S
C205 O195 1.264 . S
C205 O199 1.248 . S
C206 O196 1.260 . S
C206 O200 1.253 . S
C207 O198 1.279 . S
C207 O201 1.250 . S
O208 Mg190 2.030 1_545 S
O208 C202 1.248 . S
O209 Mg192 2.079 . S
O209 C202 1.264 . S
O210 Mg211 1.990 . S
O210 C224 1.253 . S
Mg211 O210 1.990 . S
Mg211 O214 2.180 . S
Mg211 O215 2.117 . S
Mg211 O229 2.030 . S
O212 Mg213 2.072 . S
O212 C224 1.260 . S
Mg213 O212 2.072 . S
Mg213 O214 2.099 . S
Mg213 O216 2.079 . S
Mg213 O217 2.072 . S
Mg213 O219 2.099 . S
Mg213 O230 2.079 . S
O214 Mg211 2.180 . S
O214 Mg213 2.099 . S
O214 C225 1.279 . S
O215 Mg211 2.117 . S
O215 C225 1.250 . S
O216 Mg213 2.079 . S
O216 C226 1.264 . S
O217 Mg213 2.072 . S
O217 C227 1.260 . S
Mg218 O219 2.180 . S
Mg218 O220 2.030 . S
Mg218 O221 1.990 . S
Mg218 O222 2.117 . S
O219 Mg213 2.099 . S
O219 Mg218 2.180 . S
O219 C228 1.279 . S
O220 Mg218 2.030 . S
O220 C226 1.248 . S
O221 Mg218 1.990 . S
O221 C227 1.253 . S
O222 Mg218 2.117 . S
O222 C228 1.250 . S
C223 O229 1.248 . S
C223 O230 1.264 . S
C224 O210 1.253 . S
C224 O212 1.260 . S
C225 O214 1.279 . S
C225 O215 1.250 . S
C226 O216 1.264 . S
C226 O220 1.248 . S
C227 O217 1.260 . S
C227 O221 1.253 . S
C228 O219 1.279 . S
C228 O222 1.250 . S
O229 Mg211 2.030 . S
O229 C223 1.248 . S
O230 Mg213 2.079 . S
O230 C223 1.264 . S
O231 Mg232 1.990 . S
O231 C245 1.253 . S
Mg232 O231 1.990 . S
Mg232 O235 2.180 . S
Mg232 O236 2.117 . S
Mg232 O250 2.030 1_455 S
O233 Mg234 2.072 1_455 S
O233 C245 1.260 . S
Mg234 O233 2.072 1_655 S
Mg234 O235 2.099 1_655 S
Mg234 O237 2.079 . S
Mg234 O238 2.072 1_655 S
Mg234 O240 2.099 . S
Mg234 O251 2.079 . S
O235 Mg232 2.180 . S
O235 Mg234 2.099 1_455 S
O235 C246 1.279 . S
O236 Mg232 2.117 . S
O236 C246 1.250 . S
O237 Mg234 2.079 . S
O237 C247 1.264 . S
O238 Mg234 2.072 1_455 S
O238 C248 1.260 . S
Mg239 O240 2.180 . S
Mg239 O241 2.030 . S
Mg239 O242 1.990 1_655 S
Mg239 O243 2.117 . S
O240 Mg234 2.099 . S
O240 Mg239 2.180 . S
O240 C249 1.279 . S
O241 Mg239 2.030 . S
O241 C247 1.248 . S
O242 Mg239 1.990 1_455 S
O242 C248 1.253 . S
O243 Mg239 2.117 . S
O243 C249 1.250 . S
C244 O250 1.248 . S
C244 O251 1.264 . S
C245 O231 1.253 . S
C245 O233 1.260 . S
C246 O235 1.279 . S
C246 O236 1.250 . S
C247 O237 1.264 . S
C247 O241 1.248 . S
C248 O238 1.260 . S
C248 O242 1.253 . S
C249 O240 1.279 . S
C249 O243 1.250 . S
O250 Mg232 2.030 1_655 S
O250 C244 1.248 . S
O251 Mg234 2.079 . S
O251 C244 1.264 . S
O252 Mg253 1.990 . S
O252 C266 1.253 . S
Mg253 O252 1.990 . S
Mg253 O256 2.180 . S
Mg253 O257 2.117 . S
Mg253 O271 2.030 . S
O254 Mg255 2.072 . S
O254 C266 1.260 . S
Mg255 O254 2.072 . S
Mg255 O256 2.099 . S
Mg255 O258 2.079 . S
Mg255 O259 2.072 . S
Mg255 O261 2.099 . S
Mg255 O272 2.079 . S
O256 Mg253 2.180 . S
O256 Mg255 2.099 . S
O256 C267 1.279 . S
O257 Mg253 2.117 . S
O257 C267 1.250 . S
O258 Mg255 2.079 . S
O258 C268 1.264 . S
O259 Mg255 2.072 . S
O259 C269 1.260 . S
Mg260 O261 2.180 . S
Mg260 O262 2.030 . S
Mg260 O263 1.990 . S
Mg260 O264 2.117 . S
O261 Mg255 2.099 . S
O261 Mg260 2.180 . S
O261 C270 1.279 . S
O262 Mg260 2.030 . S
O262 C268 1.248 . S
O263 Mg260 1.990 . S
O263 C269 1.253 . S
O264 Mg260 2.117 . S
O264 C270 1.250 . S
C265 O271 1.248 . S
C265 O272 1.264 . S
C266 O252 1.253 . S
C266 O254 1.260 . S
C267 O256 1.279 . S
C267 O257 1.250 . S
C268 O258 1.264 . S
C268 O262 1.248 . S
C269 O259 1.260 . S
C269 O263 1.253 . S
C270 O261 1.279 . S
C270 O264 1.250 . S
O271 Mg253 2.030 . S
O271 C265 1.248 . S
O272 Mg255 2.079 . S
O272 C265 1.264 . S
O273 Mg274 1.990 . S
O273 C287 1.253 . S
Mg274 O273 1.990 . S
Mg274 O277 2.180 . S
Mg274 O278 2.117 . S
Mg274 O292 2.030 1_556 S
O275 Mg276 2.072 1_556 S
O275 C287 1.260 . S
Mg276 O275 2.072 1_554 S
Mg276 O277 2.099 1_554 S
Mg276 O279 2.079 . S
Mg276 O280 2.072 1_554 S
Mg276 O282 2.099 . S
Mg276 O293 2.079 . S
O277 Mg274 2.180 . S
O277 Mg276 2.099 1_556 S
O277 C288 1.279 . S
O278 Mg274 2.117 . S
O278 C288 1.250 . S
O279 Mg276 2.079 . S
O279 C289 1.264 . S
O280 Mg276 2.072 1_556 S
O280 C290 1.260 . S
Mg281 O282 2.180 . S
Mg281 O283 2.030 . S
Mg281 O284 1.990 1_554 S
Mg281 O285 2.117 . S
O282 Mg276 2.099 . S
O282 Mg281 2.180 . S
O282 C291 1.279 . S
O283 Mg281 2.030 . S
O283 C289 1.248 . S
O284 Mg281 1.990 1_556 S
O284 C290 1.253 . S
O285 Mg281 2.117 . S
O285 C291 1.250 . S
C286 O292 1.248 . S
C286 O293 1.264 . S
C287 O273 1.253 . S
C287 O275 1.260 . S
C288 O277 1.279 . S
C288 O278 1.250 . S
C289 O279 1.264 . S
C289 O283 1.248 . S
C290 O280 1.260 . S
C290 O284 1.253 . S
C291 O282 1.279 . S
C291 O285 1.250 . S
O292 Mg274 2.030 1_554 S
O292 C286 1.248 . S
O293 Mg276 2.079 . S
O293 C286 1.264 . S
O294 Mg295 1.990 . S
O294 C308 1.253 . S
Mg295 O294 1.990 . S
Mg295 O298 2.180 . S
Mg295 O299 2.117 . S
Mg295 O313 2.030 1_545 S
O296 Mg297 2.072 1_545 S
O296 C308 1.260 . S
Mg297 O296 2.072 1_565 S
Mg297 O298 2.099 1_565 S
Mg297 O300 2.079 . S
Mg297 O301 2.072 1_565 S
Mg297 O303 2.099 . S
Mg297 O314 2.079 . S
O298 Mg295 2.180 . S
O298 Mg297 2.099 1_545 S
O298 C309 1.279 . S
O299 Mg295 2.117 . S
O299 C309 1.250 . S
O300 Mg297 2.079 . S
O300 C310 1.264 . S
O301 Mg297 2.072 1_545 S
O301 C311 1.260 . S
Mg302 O303 2.180 . S
Mg302 O304 2.030 . S
Mg302 O305 1.990 1_565 S
Mg302 O306 2.117 . S
O303 Mg297 2.099 . S
O303 Mg302 2.180 . S
O303 C312 1.279 . S
O304 Mg302 2.030 . S
O304 C310 1.248 . S
O305 Mg302 1.990 1_545 S
O305 C311 1.253 . S
O306 Mg302 2.117 . S
O306 C312 1.250 . S
C307 O313 1.248 . S
C307 O314 1.264 . S
C308 O294 1.253 . S
C308 O296 1.260 . S
C309 O298 1.279 . S
C309 O299 1.250 . S
C310 O300 1.264 . S
C310 O304 1.248 . S
C311 O301 1.260 . S
C311 O305 1.253 . S
C312 O303 1.279 . S
C312 O306 1.250 . S
O313 Mg295 2.030 1_565 S
O313 C307 1.248 . S
O314 Mg297 2.079 . S
O314 C307 1.264 . S
O315 Mg316 1.990 1_554 S
O315 C329 1.253 . S
Mg316 O315 1.990 1_556 S
Mg316 O319 2.180 . S
Mg316 O320 2.117 . S
Mg316 O334 2.030 . S
O317 Mg318 2.072 1_554 S
O317 C329 1.260 . S
Mg318 O317 2.072 1_556 S
Mg318 O319 2.099 . S
Mg318 O321 2.079 . S
Mg318 O322 2.072 1_556 S
Mg318 O324 2.099 1_556 S
Mg318 O335 2.079 . S
O319 Mg316 2.180 . S
O319 Mg318 2.099 . S
O319 C330 1.279 . S
O320 Mg316 2.117 . S
O320 C330 1.250 . S
O321 Mg318 2.079 . S
O321 C331 1.264 . S
O322 Mg318 2.072 1_554 S
O322 C332 1.260 . S
Mg323 O324 2.180 . S
Mg323 O325 2.030 1_554 S
Mg323 O326 1.990 . S
Mg323 O327 2.117 . S
O324 Mg318 2.099 1_554 S
O324 Mg323 2.180 . S
O324 C333 1.279 . S
O325 Mg323 2.030 1_556 S
O325 C331 1.248 . S
O326 Mg323 1.990 . S
O326 C332 1.253 . S
O327 Mg323 2.117 . S
O327 C333 1.250 . S
C328 O334 1.248 . S
C328 O335 1.264 . S
C329 O315 1.253 . S
C329 O317 1.260 . S
C330 O319 1.279 . S
C330 O320 1.250 . S
C331 O321 1.264 . S
C331 O325 1.248 . S
C332 O322 1.260 . S
C332 O326 1.253 . S
C333 O324 1.279 . S
C333 O327 1.250 . S
O334 Mg316 2.030 . S
O334 C328 1.248 . S
O335 Mg318 2.079 . S
O335 C328 1.264 . S
C14 C37 0.863 . S
C60 C34 1.061 . S
C76 C59 0.864 . S
C15 C79 0.949 . S
C18 C203 1.240 . S
C162 C35 1.215 . S
C57 C227 1.298 . S
C80 C288 1.306 . S
C183 C38 1.329 . S
C269 C55 0.955 . S
C310 C77 0.919 . S
C16 C245 0.904 . S
C13 C184 0.949 . S
C270 C99 0.991 . S
C119 C307 0.813 . S
C246 C144 0.841 . S
C56 C163 0.814 . S
C204 C102 0.959 . S
C141 C228 0.861 . S
C120 C248 1.233 . S
C206 C118 0.871 . S
C247 C165 1.004 . S
C123 C97 0.947 . S
C202 C185 0.839 . S
C290 C244 0.781 . S
C139 C122 0.775 . S
C205 C308 0.806 . S
C289 C17 0.809 . S
C58 C311 0.822 . S
C267 C39 1.033 . S
C161 C121 0.814 . S
C81 C225 0.916 . S
C265 C291 1.002 . S
C164 C268 0.818 . S
C140 C160 0.921 . S
C101 C286 0.875 . S
C266 C333 1.276 . S
C332 C182 1.177 . S
C36 C207 1.024 . S
C181 C143 0.810 . S
C186 C223 0.856 . S
C330 C142 0.870 . S
C287 C328 0.822 . S
C249 C78 0.888 . S
C226 C309 0.971 . S
C224 C331 0.905 . S
C98 C312 1.273 . S
C329 C100 0.827 . S
