# Generated by pormake.
# Topology unj, (4)-cn, num edge types: 1
# Building blocks:
#     Node 0, Type 0, BuildingBlock: KUFVIS_clean_sbu_0, # of connection points: 4
#     Node 1, Type 0, BuildingBlock: KUFVIS_clean_sbu_0, # of connection points: 4
#     Node 2, Type 0, BuildingBlock: KUFVIS_clean_sbu_0, # of connection points: 4
#     Node 3, Type 0, BuildingBlock: KUFVIS_clean_sbu_0, # of connection points: 4
#     Node 4, Type 0, BuildingBlock: KUFVIS_clean_sbu_0, # of connection points: 4
#     Node 5, Type 0, BuildingBlock: KUFVIS_clean_sbu_0, # of connection points: 4
#     Edge 6, Type (0, 0), BuildingBlock: KIFKEQ_clean_linker_1, # of connection points: 2
#     Edge 7, Type (0, 0), BuildingBlock: KIFKEQ_clean_linker_1, # of connection points: 2
#     Edge 8, Type (0, 0), BuildingBlock: KIFKEQ_clean_linker_1, # of connection points: 2
#     Edge 9, Type (0, 0), BuildingBlock: KIFKEQ_clean_linker_1, # of connection points: 2
#     Edge 10, Type (0, 0), BuildingBlock: KIFKEQ_clean_linker_1, # of connection points: 2
#     Edge 11, Type (0, 0), BuildingBlock: KIFKEQ_clean_linker_1, # of connection points: 2
#     Edge 12, Type (0, 0), BuildingBlock: KIFKEQ_clean_linker_1, # of connection points: 2
#     Edge 13, Type (0, 0), BuildingBlock: KIFKEQ_clean_linker_1, # of connection points: 2
#     Edge 14, Type (0, 0), BuildingBlock: KIFKEQ_clean_linker_1, # of connection points: 2
#     Edge 15, Type (0, 0), BuildingBlock: KIFKEQ_clean_linker_1, # of connection points: 2
#     Edge 16, Type (0, 0), BuildingBlock: KIFKEQ_clean_linker_1, # of connection points: 2
#     Edge 17, Type (0, 0), BuildingBlock: KIFKEQ_clean_linker_1, # of connection points: 2
# Relax obj value: 0.012
# Max RMSD: 0.052
# Mean RMSD: 0.052
data_MOF--net-unj--node1-KUFVIS_clean_sbu_0--edge1-KIFKEQ_clean_linker_1
_symmetry_space_group_name_H-M    P1
_symmetry_Int_Tables_number       1
_symmetry_cell_setting            triclinic
loop_
_symmetry_equiv_pos_as_xyz
'x, y, z'
_cell_length_a     33.521515
_cell_length_b     33.587511
_cell_length_c     35.53393
_cell_angle_alpha  89.8043
_cell_angle_beta   90.175293
_cell_angle_gamma 120.01577
loop_
_atom_site_label
_atom_site_type_symbol
_atom_site_fract_x
_atom_site_fract_y
_atom_site_fract_z
_atom_type_partial_charge
Mn0 Mn 0.50541 0.24608 0.60475 0.0
Mn1 Mn 0.5968 0.23543 0.57958 0.0
C2 C 0.5453 0.22913 0.64948 0.0
C3 C 0.47436 0.29131 0.62393 0.0
C4 C 0.49781 0.16174 0.56457 0.0
O5 O 0.52268 0.27759 0.55331 0.0
O6 O 0.58513 0.27093 0.54074 0.0
C7 C 0.66923 0.33331 0.58572 0.0
N8 N 0.65221 0.28855 0.59586 0.0
C9 C 0.71744 0.3084 0.636 0.0
C10 C 0.73582 0.35468 0.62581 0.0
C11 C 0.71152 0.36719 0.60067 0.0
C12 C 0.6751 0.27618 0.62027 0.0
H13 H 0.65064 0.34307 0.56643 0.0
C14 C 0.55681 0.28479 0.53268 0.0
O15 O 0.44902 0.2518 0.6078 0.0
O16 O 0.51769 0.30477 0.62846 0.0
N17 N 0.61229 0.20214 0.61491 0.0
C18 C 0.58904 0.15629 0.62288 0.0
C19 C 0.60828 0.13826 0.64815 0.0
C20 C 0.65138 0.16743 0.66464 0.0
C21 C 0.67492 0.21439 0.65562 0.0
C22 C 0.65415 0.23036 0.63013 0.0
H23 H 0.55599 0.13367 0.61016 0.0
O24 O 0.50325 0.21933 0.65586 0.0
O25 O 0.5625 0.24844 0.61733 0.0
O26 O 0.47899 0.18248 0.58011 0.0
O27 O 0.54142 0.17885 0.56252 0.0
C28 C 0.71799 0.24605 0.67121 0.0
C29 C 0.73917 0.29304 0.66149 0.0
H30 H 0.76841 0.38092 0.63732 0.0
H31 H 0.72538 0.40287 0.59281 0.0
H32 H 0.58991 0.10197 0.65493 0.0
H33 H 0.66596 0.15345 0.68431 0.0
H34 H 0.73484 0.23473 0.6911 0.0
H35 H 0.77197 0.31715 0.67407 0.0
Mn36 Mn 0.27536 0.49491 0.77463 0.0
Mn37 Mn 0.37953 0.58539 0.75257 0.0
C38 C 0.33106 0.53206 0.82062 0.0
C39 C 0.19872 0.46452 0.79353 0.0
C40 C 0.35306 0.48691 0.73592 0.0
O41 O 0.26295 0.51545 0.72411 0.0
O42 O 0.3344 0.57448 0.71176 0.0
C43 C 0.35424 0.65811 0.75604 0.0
N44 N 0.38114 0.6407 0.7679 0.0
C45 C 0.42329 0.70456 0.80984 0.0
C46 C 0.39625 0.7233 0.79787 0.0
C47 C 0.36154 0.69993 0.77089 0.0
C48 C 0.41466 0.66293 0.79383 0.0
H49 H 0.32735 0.64019 0.73548 0.0
C50 C 0.29176 0.54845 0.7034 0.0
O51 O 0.21226 0.43954 0.77594 0.0
O52 O 0.22947 0.50716 0.79944 0.0
N53 N 0.42606 0.60016 0.79005 0.0
C54 C 0.44696 0.57596 0.80051 0.0
C55 C 0.4817 0.594 0.82804 0.0
C56 C 0.49457 0.63669 0.84458 0.0
C57 C 0.47262 0.66102 0.83334 0.0
C58 C 0.43862 0.64158 0.80543 0.0
H59 H 0.43677 0.54287 0.7883 0.0
O60 O 0.29865 0.48975 0.82557 0.0
O61 O 0.33025 0.55066 0.7888 0.0
O62 O 0.31194 0.46859 0.74853 0.0
O63 O 0.38149 0.53013 0.7367 0.0
C64 C 0.48243 0.70329 0.84936 0.0
C65 C 0.45776 0.72502 0.83764 0.0
H66 H 0.40153 0.75538 0.80946 0.0
H67 H 0.34034 0.71404 0.76167 0.0
H68 H 0.49825 0.57486 0.83674 0.0
H69 H 0.52094 0.65021 0.86617 0.0
H70 H 0.50836 0.71901 0.87115 0.0
H71 H 0.46512 0.75716 0.85057 0.0
Mn72 Mn 0.79291 0.26495 0.93952 0.0
Mn73 Mn 0.80477 0.36745 0.91423 0.0
C74 C 0.81145 0.32206 0.98405 0.0
C75 C 0.74685 0.18868 0.95931 0.0
C76 C 0.87733 0.34102 0.89829 0.0
O77 O 0.76029 0.25094 0.88858 0.0
O78 O 0.76852 0.32056 0.8756 0.0
C79 C 0.70707 0.34288 0.92102 0.0
N80 N 0.75208 0.37025 0.93086 0.0
C81 C 0.73334 0.41624 0.97082 0.0
C82 C 0.68681 0.38872 0.96095 0.0
C83 C 0.67362 0.35178 0.93605 0.0
C84 C 0.76509 0.40559 0.95507 0.0
H85 H 0.69679 0.31447 0.90188 0.0
C86 C 0.75375 0.27825 0.86779 0.0
O87 O 0.78578 0.20227 0.94224 0.0
O88 O 0.73455 0.21925 0.96445 0.0
N89 N 0.83886 0.41603 0.9493 0.0
C90 C 0.88486 0.43821 0.95699 0.0
C91 C 0.90355 0.47551 0.98202 0.0
C92 C 0.87488 0.48991 0.99857 0.0
C93 C 0.82775 0.46691 0.98985 0.0
C94 C 0.8111 0.43007 0.96462 0.0
H95 H 0.9071 0.42745 0.94419 0.0
O96 O 0.82097 0.2896 0.99029 0.0
O97 O 0.79173 0.32007 0.95211 0.0
O98 O 0.8562 0.30136 0.9138 0.0
O99 O 0.86089 0.36807 0.89677 0.0
C100 C 0.79657 0.47885 1.00545 0.0
C101 C 0.74938 0.45346 0.996 0.0
H102 H 0.6609 0.39546 0.9725 0.0
H103 H 0.63775 0.33025 0.92842 0.0
H104 H 0.93997 0.49312 0.98857 0.0
H105 H 0.88937 0.51852 0.01803 0.0
H106 H 0.80841 0.50712 0.02511 0.0
H107 H 0.72565 0.46259 1.00857 0.0
Mn108 Mn 0.54125 0.7852 0.10794 0.0
Mn109 Mn 0.45115 0.80118 0.09062 0.0
C110 C 0.50913 0.80743 0.15591 0.0
C111 C 0.57043 0.73727 0.12514 0.0
C112 C 0.54912 0.86844 0.06589 0.0
O113 O 0.51558 0.75108 0.05791 0.0
O114 O 0.45245 0.75847 0.05326 0.0
C115 C 0.37461 0.70724 0.10698 0.0
N116 N 0.39659 0.75333 0.11357 0.0
C117 C 0.33827 0.7444 0.1576 0.0
C118 C 0.31479 0.69687 0.15106 0.0
C119 C 0.33322 0.67819 0.12583 0.0
C120 C 0.37964 0.77154 0.13834 0.0
H121 H 0.38856 0.69277 0.08751 0.0
C122 C 0.47751 0.74194 0.04213 0.0
O123 O 0.59509 0.77503 0.10636 0.0
O124 O 0.52854 0.72685 0.13305 0.0
N125 N 0.44568 0.84141 0.12558 0.0
C126 C 0.4736 0.88762 0.13001 0.0
C127 C 0.46086 0.91141 0.15522 0.0
C128 C 0.4193 0.88759 0.17523 0.0
C129 C 0.39091 0.84013 0.16993 0.0
C130 C 0.40549 0.81822 0.14455 0.0
H131 H 0.50533 0.90623 0.1144 0.0
O132 O 0.55093 0.81496 0.15909 0.0
O133 O 0.48823 0.78777 0.12503 0.0
O134 O 0.56809 0.84771 0.08134 0.0
O135 O 0.50568 0.85289 0.06658 0.0
C136 C 0.34883 0.81365 0.18896 0.0
C137 C 0.32244 0.76586 0.18267 0.0
H138 H 0.28278 0.67438 0.16545 0.0
H139 H 0.31545 0.64151 0.1208 0.0
H140 H 0.48292 0.94806 0.15911 0.0
H141 H 0.4096 0.90606 0.19467 0.0
H142 H 0.33663 0.82963 0.20875 0.0
H143 H 0.2903 0.74582 0.19767 0.0
Mn144 Mn 0.77366 0.53424 0.27154 0.0
Mn145 Mn 0.67157 0.44298 0.24609 0.0
C146 C 0.71605 0.49524 0.31582 0.0
C147 C 0.84988 0.56492 0.29224 0.0
C148 C 0.69722 0.5416 0.2295 0.0
O149 O 0.78853 0.51585 0.22099 0.0
O150 O 0.71904 0.45423 0.20784 0.0
C151 C 0.69714 0.37076 0.25376 0.0
N152 N 0.66927 0.38786 0.26319 0.0
C153 C 0.62345 0.32301 0.30338 0.0
C154 C 0.65149 0.30456 0.29394 0.0
C155 C 0.68859 0.32864 0.26912 0.0
C156 C 0.63375 0.3652 0.2873 0.0
H157 H 0.72569 0.38915 0.2347 0.0
C158 C 0.76148 0.48194 0.20024 0.0
O159 O 0.83638 0.59009 0.27465 0.0
O160 O 0.81931 0.52199 0.29725 0.0
N161 N 0.62247 0.42785 0.28084 0.0
C162 C 0.59975 0.45113 0.28808 0.0
C163 C 0.56219 0.43212 0.31296 0.0
C164 C 0.54812 0.38921 0.3298 0.0
C165 C 0.57168 0.36563 0.32153 0.0
C166 C 0.60874 0.3862 0.29643 0.0
H167 H 0.61027 0.48402 0.27507 0.0
O168 O 0.74823 0.53733 0.32197 0.0
O169 O 0.71856 0.47768 0.28409 0.0
O170 O 0.73698 0.56054 0.24504 0.0
O171 O 0.67045 0.49808 0.22821 0.0
C172 C 0.56009 0.32271 0.33746 0.0
C173 C 0.58602 0.30146 0.32845 0.0
H174 H 0.64502 0.27209 0.30574 0.0
H175 H 0.71052 0.31473 0.26183 0.0
H176 H 0.54415 0.4505 0.31916 0.0
H177 H 0.51931 0.37478 0.34914 0.0
H178 H 0.53167 0.30602 0.35704 0.0
H179 H 0.57716 0.26875 0.34126 0.0
Mn180 Mn 0.25441 0.76367 0.44212 0.0
Mn181 Mn 0.24283 0.66126 0.41769 0.0
C182 C 0.23547 0.70642 0.48688 0.0
C183 C 0.30014 0.83972 0.46216 0.0
C184 C 0.17064 0.68794 0.40001 0.0
O185 O 0.28808 0.77796 0.3917 0.0
O186 O 0.28012 0.70836 0.3795 0.0
C187 C 0.34026 0.68538 0.42638 0.0
N188 N 0.29504 0.65818 0.4356 0.0
C189 C 0.31275 0.61217 0.47687 0.0
C190 C 0.35948 0.63952 0.46766 0.0
C191 C 0.3733 0.67638 0.44241 0.0
C192 C 0.28143 0.62291 0.46013 0.0
H193 H 0.35103 0.71373 0.40698 0.0
C194 C 0.2953 0.75076 0.37155 0.0
O195 O 0.26153 0.82632 0.44448 0.0
O196 O 0.31236 0.80911 0.4677 0.0
N197 N 0.20787 0.61264 0.45264 0.0
C198 C 0.16172 0.59058 0.45954 0.0
C199 C 0.1424 0.5533 0.48473 0.0
C200 C 0.17064 0.53885 0.50227 0.0
C201 C 0.21795 0.56178 0.49441 0.0
C202 C 0.23522 0.59857 0.46895 0.0
H203 H 0.13981 0.60138 0.44599 0.0
O204 O 0.22566 0.7387 0.4927 0.0
O205 O 0.2554 0.70857 0.45516 0.0
O206 O 0.19152 0.72746 0.41563 0.0
O207 O 0.18713 0.66092 0.39894 0.0
C208 C 0.24873 0.54983 0.51108 0.0
C209 C 0.2961 0.57503 0.50233 0.0
H210 H 0.38507 0.6327 0.47999 0.0
H211 H 0.40933 0.69777 0.43529 0.0
H212 H 0.10585 0.53575 0.49062 0.0
H213 H 0.15567 0.51027 0.52185 0.0
H214 H 0.23642 0.52165 0.53099 0.0
H215 H 0.31949 0.56583 0.51565 0.0
H216 H 0.40304 0.11053 0.56326 0.0
H217 H 0.52497 0.10713 0.52899 0.0
H218 H 0.35496 0.03326 0.53796 0.0
H219 H 0.47702 0.03074 0.50318 0.0
H220 H 0.38115 0.87568 0.50089 0.0
H221 H 0.42762 0.95334 0.52521 0.0
H222 H 0.33081 0.9899 0.47909 0.0
H223 H 0.28364 0.91158 0.45532 0.0
C224 C 0.41964 0.09353 0.55019 0.0
C225 C 0.46799 0.11519 0.54838 0.0
C226 C 0.39203 0.04929 0.53547 0.0
C227 C 0.4121 0.02564 0.51867 0.0
C228 C 0.46037 0.04756 0.51648 0.0
C229 C 0.48791 0.09164 0.53114 0.0
C230 C 0.36976 0.90025 0.49584 0.0
C231 C 0.32871 0.88743 0.4761 0.0
C232 C 0.39657 0.94492 0.50964 0.0
C233 C 0.38309 0.97801 0.50402 0.0
C234 C 0.34196 0.96517 0.48428 0.0
C235 C 0.31508 0.92037 0.47043 0.0
H236 H 0.387 0.26149 0.64898 0.0
H237 H 0.51767 0.38433 0.62985 0.0
H238 H 0.35677 0.30741 0.67647 0.0
H239 H 0.48691 0.43093 0.65434 0.0
H240 H 0.44073 0.50188 0.73464 0.0
H241 H 0.46816 0.45388 0.70791 0.0
H242 H 0.32994 0.35774 0.6699 0.0
H243 H 0.3021 0.40451 0.69971 0.0
C244 C 0.40894 0.29851 0.65004 0.0
C245 C 0.45474 0.31938 0.6376 0.0
C246 C 0.39157 0.32504 0.6656 0.0
C247 C 0.4193 0.37325 0.66819 0.0
C248 C 0.46469 0.39397 0.6542 0.0
C249 C 0.48237 0.36732 0.63969 0.0
C250 C 0.4161 0.47029 0.72087 0.0
C251 C 0.36918 0.45692 0.7195 0.0
C252 C 0.43196 0.44283 0.70496 0.0
C253 C 0.40161 0.40179 0.68606 0.0
C254 C 0.3545 0.38853 0.68463 0.0
C255 C 0.33842 0.41549 0.70156 0.0
H256 H 0.92803 0.29697 0.89648 0.0
H257 H 0.93168 0.42221 0.86158 0.0
H258 H 1.00497 0.32571 0.87021 0.0
H259 H 1.00762 0.45016 0.83484 0.0
H260 H 0.16277 0.50939 0.83188 0.0
H261 H 0.08517 0.47814 0.85651 0.0
H262 H 0.04814 0.34489 0.81099 0.0
H263 H 0.12652 0.37615 0.78687 0.0
C264 C 0.945 0.33044 0.88306 0.0
C265 C 0.92355 0.35729 0.88142 0.0
C266 C 0.98903 0.3468 0.86779 0.0
C267 C 1.01266 0.39039 0.85059 0.0
C268 C 0.99085 0.41681 0.84846 0.0
C269 C 0.94703 0.40056 0.86368 0.0
C270 C 0.13811 0.47345 0.82698 0.0
C271 C 0.15084 0.4453 0.80731 0.0
C272 C 0.09345 0.45554 0.84097 0.0
C273 C 0.06024 0.40899 0.83564 0.0
C274 C 0.07296 0.38077 0.81594 0.0
C275 C 0.11778 0.39875 0.80188 0.0
H276 H 0.52151 0.92145 0.0277 0.0
H277 H 0.6438 0.91845 0.06212 0.0
H278 H 0.56921 0.99704 1.00008 0.0
H279 H 0.69162 0.99487 0.03506 0.0
H280 H 0.76324 0.11675 0.95283 0.0
H281 H 0.71578 0.03824 0.97637 0.0
H282 H 0.61856 0.07455 0.02121 0.0
H283 H 0.6653 0.15237 0.99708 0.0
C284 C 0.55859 0.93681 0.0294 0.0
C285 C 0.57868 0.9137 0.04737 0.0
C286 C 0.586 0.98043 0.01371 0.0
C287 C 0.63432 1.00234 0.0156 0.0
C288 C 0.65453 0.97889 0.0328 0.0
C289 C 0.62706 0.9351 0.04849 0.0
C290 C 0.73162 0.10785 0.96759 0.0
C291 C 0.71801 0.1408 0.97299 0.0
C292 C 0.70456 0.06292 0.98129 0.0
C293 C 0.66324 0.04994 1.00064 0.0
C294 C 0.64972 0.08302 1.00592 0.0
C295 C 0.67671 0.12781 0.99225 0.0
H296 H 0.61452 0.5137 0.19468 0.0
H297 H 0.7412 0.63625 0.22558 0.0
H298 H 0.58542 0.56078 0.16793 0.0
H299 H 0.71135 0.68355 0.19922 0.0
H300 H 0.65809 0.75223 0.11586 0.0
H301 H 0.68993 0.70555 0.13982 0.0
H302 H 0.5582 0.61106 0.18938 0.0
H303 H 0.52632 0.6571 0.16497 0.0
C304 C 0.63628 0.55072 0.19586 0.0
C305 C 0.68031 0.57105 0.2125 0.0
C306 C 0.61935 0.57778 0.18065 0.0
C307 C 0.64584 0.626 0.18161 0.0
C308 C 0.69016 0.64649 0.19771 0.0
C309 C 0.70718 0.61934 0.21303 0.0
C310 C 0.63589 0.72133 0.13169 0.0
C311 C 0.5896 0.70831 0.13839 0.0
C312 C 0.65425 0.69477 0.14567 0.0
C313 C 0.62667 0.6545 0.16654 0.0
C314 C 0.58031 0.64147 0.17298 0.0
C315 C 0.56203 0.66801 0.1591 0.0
H316 H 0.11983 0.73188 0.39754 0.0
H317 H 0.11666 0.60707 0.36286 0.0
H318 H 0.04306 0.70327 0.37074 0.0
H319 H 0.04085 0.57922 0.33556 0.0
H320 H 0.88567 0.51972 0.33091 0.0
H321 H 0.96307 0.55079 0.35623 0.0
H322 H 1.00006 0.68469 0.31158 0.0
H323 H 0.92189 0.6536 0.28679 0.0
C324 C 0.10302 0.69854 0.38404 0.0
C325 C 0.12456 0.67178 0.38263 0.0
C326 C 0.05905 0.68224 0.36846 0.0
C327 C 0.03555 0.63878 0.35116 0.0
C328 C 0.05747 0.61246 0.34925 0.0
C329 C 0.10124 0.62866 0.36478 0.0
C330 C 0.91028 0.55578 0.32638 0.0
C331 C 0.89757 0.58414 0.30674 0.0
C332 C 0.95483 0.57359 0.34076 0.0
C333 C 0.98801 0.62026 0.33584 0.0
C334 C 0.97529 0.64871 0.31622 0.0
C335 C 0.93058 0.63083 0.30179 0.0
H336 H 0.57038 0.37158 0.52629 0.0
H337 H 0.56887 0.26176 0.46281 0.0
H338 H 0.60661 0.42414 0.47327 0.0
H339 H 0.60232 0.3127 0.4092 0.0
H340 H 0.71773 0.42107 0.34159 0.0
H341 H 0.67402 0.37045 0.39295 0.0
H342 H 0.60866 0.45178 0.41233 0.0
H343 H 0.65555 0.50441 0.36186 0.0
C344 C 0.5762 0.35838 0.50036 0.0
C345 C 0.56695 0.31282 0.49839 0.0
C346 C 0.59706 0.38844 0.46994 0.0
C347 C 0.60846 0.37317 0.43692 0.0
C348 C 0.59554 0.32638 0.43433 0.0
C349 C 0.57571 0.29681 0.46486 0.0
C350 C 0.69395 0.42799 0.35691 0.0
C351 C 0.6889 0.46568 0.34733 0.0
C352 C 0.66842 0.39872 0.38619 0.0
C353 C 0.63654 0.40597 0.40643 0.0
C354 C 0.63275 0.44493 0.39753 0.0
C355 C 0.6593 0.47495 0.36854 0.0
H356 H 0.31302 0.71168 0.51263 0.0
H357 H 0.16704 0.64481 0.53353 0.0
H358 H 0.32232 0.66969 0.56417 0.0
H359 H 0.17514 0.59922 0.5839 0.0
H360 H 0.21685 0.55932 0.69628 0.0
H361 H 0.19999 0.59596 0.64397 0.0
H362 H 0.31272 0.60054 0.58119 0.0
H363 H 0.33092 0.56703 0.63443 0.0
C364 C 0.28274 0.68725 0.52817 0.0
C365 C 0.23921 0.68047 0.51875 0.0
C366 C 0.28786 0.66262 0.55753 0.0
C367 C 0.24933 0.62974 0.5779 0.0
C368 C 0.20572 0.62418 0.56912 0.0
C369 C 0.20087 0.64996 0.54014 0.0
C370 C 0.23724 0.56743 0.67085 0.0
C371 C 0.27523 0.56062 0.66925 0.0
C372 C 0.22766 0.58848 0.64077 0.0
C373 C 0.25547 0.60231 0.60827 0.0
C374 C 0.29134 0.59203 0.60598 0.0
C375 C 0.30154 0.57217 0.63631 0.0
H376 H 0.66605 0.20639 0.86137 0.0
H377 H 0.77803 0.31296 0.79776 0.0
H378 H 0.61421 0.19065 0.80784 0.0
H379 H 0.72775 0.29594 0.74361 0.0
H380 H 0.62066 0.30455 0.67448 0.0
H381 H 0.67088 0.31102 0.72621 0.0
H382 H 0.58721 0.16476 0.74695 0.0
H383 H 0.5351 0.15952 0.6961 0.0
C384 C 0.67984 0.22515 0.83534 0.0
C385 C 0.7258 0.26082 0.83345 0.0
C386 C 0.65021 0.21628 0.80462 0.0
C387 C 0.66634 0.2426 0.77137 0.0
C388 C 0.71347 0.27582 0.76891 0.0
C389 C 0.74261 0.28526 0.79975 0.0
C390 C 0.6132 0.27385 0.69014 0.0
C391 C 0.57499 0.23135 0.68086 0.0
C392 C 0.6422 0.27733 0.71966 0.0
C393 C 0.63408 0.23818 0.74044 0.0
C394 C 0.5947 0.19571 0.73175 0.0
C395 C 0.56498 0.1925 0.70253 0.0
H396 H 0.33085 0.60835 0.84159 0.0
H397 H 0.38362 0.51948 0.87383 0.0
H398 H 0.36996 0.65821 0.89471 0.0
H399 H 0.42273 0.5695 0.92834 0.0
H400 H 0.52094 0.70642 0.99832 0.0
H401 H 0.48736 0.65321 0.94478 0.0
H402 H 0.35772 0.64843 0.96272 0.0
H403 H 0.3905 0.7012 0.01445 0.0
C404 C 0.35118 0.59973 0.86011 0.0
C405 C 0.35532 0.56092 0.85328 0.0
C406 C 0.37329 0.62804 0.8907 0.0
C407 C 0.39946 0.61778 0.91571 0.0
C408 C 0.40325 0.57848 0.90922 0.0
C409 C 0.38071 0.5498 0.87839 0.0
C410 C 0.48531 0.6939 0.99071 0.0
C411 C 0.4588 0.70884 1.01038 0.0
C412 C 0.46607 0.66328 0.96029 0.0
C413 C 0.42009 0.64718 0.94934 0.0
C414 C 0.39351 0.66099 0.96989 0.0
C415 C 0.41252 0.69141 0.99973 0.0
H416 H 0.88123 0.38144 0.03073 0.0
H417 H 0.73587 0.32144 1.00913 0.0
H418 H 0.87587 0.42831 0.08118 0.0
H419 H 0.72931 0.36516 0.06043 0.0
H420 H 0.72712 0.47088 0.13002 0.0
H421 H 0.74429 0.43709 0.07669 0.0
H422 H 0.84991 0.43023 0.14195 0.0
H423 H 0.83388 0.46671 0.19475 0.0
C424 C 0.84814 0.37817 0.03711 0.0
C425 C 0.80923 0.34919 0.01553 0.0
C426 C 0.84488 0.4047 0.06608 0.0
C427 C 0.8023 0.40153 0.07459 0.0
C428 C 0.76309 0.37027 0.05399 0.0
C429 C 0.76662 0.34475 0.02473 0.0
C430 C 0.75495 0.46338 0.13242 0.0
C431 C 0.77935 0.47149 0.16622 0.0
C432 C 0.76449 0.44337 0.10204 0.0
C433 C 0.79782 0.42967 0.10502 0.0
C434 C 0.82418 0.4404 0.13833 0.0
C435 C 0.81515 0.4614 0.16862 0.0
H436 H 0.27718 0.7119 0.30297 0.0
H437 H 0.38051 0.82748 0.36555 0.0
H438 H 0.33062 0.72951 0.25164 0.0
H439 H 0.43578 0.84466 0.31451 0.0
H440 H 0.51762 0.87647 0.2028 0.0
H441 H 0.46503 0.86844 0.25403 0.0
H442 H 0.39123 0.72096 0.2374 0.0
H443 H 0.44092 0.73005 0.18499 0.0
C444 C 0.31137 0.74172 0.30529 0.0
C445 C 0.32477 0.7684 0.33801 0.0
C446 C 0.34247 0.75165 0.27603 0.0
C447 C 0.38831 0.78804 0.27892 0.0
C448 C 0.4009 0.81649 0.31097 0.0
C449 C 0.36926 0.80685 0.34022 0.0
C450 C 0.48993 0.84258 0.2104 0.0
C451 C 0.48217 0.80401 0.18953 0.0
C452 C 0.45993 0.83779 0.23984 0.0
C453 C 0.42266 0.79411 0.24942 0.0
C454 C 0.41779 0.75544 0.23 0.0
C455 C 0.44671 0.76044 0.20018 0.0
loop_
_geom_bond_atom_site_label_1
_geom_bond_atom_site_label_2
_geom_bond_distance
_geom_bond_site_symmetry_2
_ccdc_geom_bond_type
Mn0 O5 2.095 . S
Mn0 O15 2.162 . S
Mn0 O16 2.297 . S
Mn0 O24 2.385 . S
Mn0 O25 2.209 . S
Mn0 O26 2.094 . S
Mn1 O6 2.121 . S
Mn1 N8 2.257 . S
Mn1 N17 2.282 . S
Mn1 O25 2.215 . S
Mn1 O27 2.117 . S
C2 O24 1.234 . S
C2 O25 1.283 . S
C3 O15 1.281 . S
C3 O16 1.236 . S
C4 O26 1.240 . S
C4 O27 1.264 . S
O5 Mn0 2.095 . S
O5 C14 1.250 . S
O6 Mn1 2.121 . S
O6 C14 1.258 . S
C7 N8 1.326 . S
C7 C11 1.460 . S
C7 H13 0.929 . S
N8 Mn1 2.257 . S
N8 C7 1.326 . S
N8 C12 1.362 . S
C9 C10 1.258 . S
C9 C12 1.431 . S
C9 C29 1.449 . S
C10 C9 1.258 . S
C10 C11 1.477 . S
C10 H30 0.931 . S
C11 C7 1.460 . S
C11 C10 1.477 . S
C11 H31 0.930 . S
C12 N8 1.362 . S
C12 C9 1.431 . S
C12 C22 1.476 . S
H13 C7 0.929 . S
C14 O5 1.250 . S
C14 O6 1.258 . S
O15 Mn0 2.162 . S
O15 C3 1.281 . S
O16 Mn0 2.297 . S
O16 C3 1.236 . S
N17 Mn1 2.282 . S
N17 C18 1.328 . S
N17 C22 1.318 . S
C18 N17 1.328 . S
C18 C19 1.457 . S
C18 H23 0.929 . S
C19 C18 1.457 . S
C19 C20 1.291 . S
C19 H32 0.931 . S
C20 C19 1.291 . S
C20 C21 1.373 . S
C20 H33 0.929 . S
C21 C20 1.373 . S
C21 C22 1.396 . S
C21 C28 1.403 . S
C22 C12 1.476 . S
C22 N17 1.318 . S
C22 C21 1.396 . S
H23 C18 0.929 . S
O24 Mn0 2.385 . S
O24 C2 1.234 . S
O25 Mn0 2.209 . S
O25 Mn1 2.215 . S
O25 C2 1.283 . S
O26 Mn0 2.094 . S
O26 C4 1.240 . S
O27 Mn1 2.117 . S
O27 C4 1.264 . S
C28 C21 1.403 . S
C28 C29 1.399 . S
C28 H34 0.929 . S
C29 C9 1.449 . S
C29 C28 1.399 . S
C29 H35 0.930 . S
H30 C10 0.931 . S
H31 C11 0.930 . S
H32 C19 0.931 . S
H33 C20 0.929 . S
H34 C28 0.929 . S
H35 C29 0.930 . S
Mn36 O41 2.095 . S
Mn36 O51 2.162 . S
Mn36 O52 2.297 . S
Mn36 O60 2.385 . S
Mn36 O61 2.209 . S
Mn36 O62 2.094 . S
Mn37 O42 2.121 . S
Mn37 N44 2.257 . S
Mn37 N53 2.282 . S
Mn37 O61 2.215 . S
Mn37 O63 2.117 . S
C38 O60 1.234 . S
C38 O61 1.283 . S
C39 O51 1.281 . S
C39 O52 1.236 . S
C40 O62 1.240 . S
C40 O63 1.264 . S
O41 Mn36 2.095 . S
O41 C50 1.250 . S
O42 Mn37 2.121 . S
O42 C50 1.258 . S
C43 N44 1.326 . S
C43 C47 1.460 . S
C43 H49 0.929 . S
N44 Mn37 2.257 . S
N44 C43 1.326 . S
N44 C48 1.362 . S
C45 C46 1.258 . S
C45 C48 1.431 . S
C45 C65 1.449 . S
C46 C45 1.258 . S
C46 C47 1.477 . S
C46 H66 0.931 . S
C47 C43 1.460 . S
C47 C46 1.477 . S
C47 H67 0.930 . S
C48 N44 1.362 . S
C48 C45 1.431 . S
C48 C58 1.476 . S
H49 C43 0.929 . S
C50 O41 1.250 . S
C50 O42 1.258 . S
O51 Mn36 2.162 . S
O51 C39 1.281 . S
O52 Mn36 2.297 . S
O52 C39 1.236 . S
N53 Mn37 2.282 . S
N53 C54 1.328 . S
N53 C58 1.318 . S
C54 N53 1.328 . S
C54 C55 1.457 . S
C54 H59 0.929 . S
C55 C54 1.457 . S
C55 C56 1.291 . S
C55 H68 0.931 . S
C56 C55 1.291 . S
C56 C57 1.373 . S
C56 H69 0.929 . S
C57 C56 1.373 . S
C57 C58 1.396 . S
C57 C64 1.403 . S
C58 C48 1.476 . S
C58 N53 1.318 . S
C58 C57 1.396 . S
H59 C54 0.929 . S
O60 Mn36 2.385 . S
O60 C38 1.234 . S
O61 Mn36 2.209 . S
O61 Mn37 2.215 . S
O61 C38 1.283 . S
O62 Mn36 2.094 . S
O62 C40 1.240 . S
O63 Mn37 2.117 . S
O63 C40 1.264 . S
C64 C57 1.403 . S
C64 C65 1.399 . S
C64 H70 0.929 . S
C65 C45 1.449 . S
C65 C64 1.399 . S
C65 H71 0.930 . S
H66 C46 0.931 . S
H67 C47 0.930 . S
H68 C55 0.931 . S
H69 C56 0.929 . S
H70 C64 0.929 . S
H71 C65 0.930 . S
Mn72 O77 2.095 . S
Mn72 O87 2.162 . S
Mn72 O88 2.297 . S
Mn72 O96 2.385 . S
Mn72 O97 2.209 . S
Mn72 O98 2.094 . S
Mn73 O78 2.121 . S
Mn73 N80 2.257 . S
Mn73 N89 2.282 . S
Mn73 O97 2.215 . S
Mn73 O99 2.117 . S
C74 O96 1.234 . S
C74 O97 1.283 . S
C75 O87 1.281 . S
C75 O88 1.236 . S
C76 O98 1.240 . S
C76 O99 1.264 . S
O77 Mn72 2.095 . S
O77 C86 1.250 . S
O78 Mn73 2.121 . S
O78 C86 1.258 . S
C79 N80 1.326 . S
C79 C83 1.460 . S
C79 H85 0.929 . S
N80 Mn73 2.257 . S
N80 C79 1.326 . S
N80 C84 1.362 . S
C81 C82 1.258 . S
C81 C84 1.431 . S
C81 C101 1.449 . S
C82 C81 1.258 . S
C82 C83 1.477 . S
C82 H102 0.931 . S
C83 C79 1.460 . S
C83 C82 1.477 . S
C83 H103 0.930 . S
C84 N80 1.362 . S
C84 C81 1.431 . S
C84 C94 1.476 . S
H85 C79 0.929 . S
C86 O77 1.250 . S
C86 O78 1.258 . S
O87 Mn72 2.162 . S
O87 C75 1.281 . S
O88 Mn72 2.297 . S
O88 C75 1.236 . S
N89 Mn73 2.282 . S
N89 C90 1.328 . S
N89 C94 1.318 . S
C90 N89 1.328 . S
C90 C91 1.457 . S
C90 H95 0.929 . S
C91 C90 1.457 . S
C91 C92 1.291 . S
C91 H104 0.931 . S
C92 C91 1.291 . S
C92 C93 1.373 . S
C92 H105 0.929 1_556 S
C93 C92 1.373 . S
C93 C94 1.396 . S
C93 C100 1.403 . S
C94 C84 1.476 . S
C94 N89 1.318 . S
C94 C93 1.396 . S
H95 C90 0.929 . S
O96 Mn72 2.385 . S
O96 C74 1.234 . S
O97 Mn72 2.209 . S
O97 Mn73 2.215 . S
O97 C74 1.283 . S
O98 Mn72 2.094 . S
O98 C76 1.240 . S
O99 Mn73 2.117 . S
O99 C76 1.264 . S
C100 C93 1.403 . S
C100 C101 1.399 . S
C100 H106 0.929 1_556 S
C101 C81 1.449 . S
C101 C100 1.399 . S
C101 H107 0.930 . S
H102 C82 0.931 . S
H103 C83 0.930 . S
H104 C91 0.931 . S
H105 C92 0.929 1_554 S
H106 C100 0.929 1_554 S
H107 C101 0.930 . S
Mn108 O113 2.095 . S
Mn108 O123 2.162 . S
Mn108 O124 2.297 . S
Mn108 O132 2.385 . S
Mn108 O133 2.209 . S
Mn108 O134 2.094 . S
Mn109 O114 2.121 . S
Mn109 N116 2.257 . S
Mn109 N125 2.282 . S
Mn109 O133 2.215 . S
Mn109 O135 2.117 . S
C110 O132 1.234 . S
C110 O133 1.283 . S
C111 O123 1.281 . S
C111 O124 1.236 . S
C112 O134 1.240 . S
C112 O135 1.264 . S
O113 Mn108 2.095 . S
O113 C122 1.250 . S
O114 Mn109 2.121 . S
O114 C122 1.258 . S
C115 N116 1.326 . S
C115 C119 1.460 . S
C115 H121 0.929 . S
N116 Mn109 2.257 . S
N116 C115 1.326 . S
N116 C120 1.362 . S
C117 C118 1.258 . S
C117 C120 1.431 . S
C117 C137 1.449 . S
C118 C117 1.258 . S
C118 C119 1.477 . S
C118 H138 0.931 . S
C119 C115 1.460 . S
C119 C118 1.477 . S
C119 H139 0.930 . S
C120 N116 1.362 . S
C120 C117 1.431 . S
C120 C130 1.476 . S
H121 C115 0.929 . S
C122 O113 1.250 . S
C122 O114 1.258 . S
O123 Mn108 2.162 . S
O123 C111 1.281 . S
O124 Mn108 2.297 . S
O124 C111 1.236 . S
N125 Mn109 2.282 . S
N125 C126 1.328 . S
N125 C130 1.318 . S
C126 N125 1.328 . S
C126 C127 1.457 . S
C126 H131 0.929 . S
C127 C126 1.457 . S
C127 C128 1.291 . S
C127 H140 0.931 . S
C128 C127 1.291 . S
C128 C129 1.373 . S
C128 H141 0.929 . S
C129 C128 1.373 . S
C129 C130 1.396 . S
C129 C136 1.403 . S
C130 C120 1.476 . S
C130 N125 1.318 . S
C130 C129 1.396 . S
H131 C126 0.929 . S
O132 Mn108 2.385 . S
O132 C110 1.234 . S
O133 Mn108 2.209 . S
O133 Mn109 2.215 . S
O133 C110 1.283 . S
O134 Mn108 2.094 . S
O134 C112 1.240 . S
O135 Mn109 2.117 . S
O135 C112 1.264 . S
C136 C129 1.403 . S
C136 C137 1.399 . S
C136 H142 0.929 . S
C137 C117 1.449 . S
C137 C136 1.399 . S
C137 H143 0.930 . S
H138 C118 0.931 . S
H139 C119 0.930 . S
H140 C127 0.931 . S
H141 C128 0.929 . S
H142 C136 0.929 . S
H143 C137 0.930 . S
Mn144 O149 2.095 . S
Mn144 O159 2.162 . S
Mn144 O160 2.297 . S
Mn144 O168 2.385 . S
Mn144 O169 2.209 . S
Mn144 O170 2.094 . S
Mn145 O150 2.121 . S
Mn145 N152 2.257 . S
Mn145 N161 2.282 . S
Mn145 O169 2.215 . S
Mn145 O171 2.117 . S
C146 O168 1.234 . S
C146 O169 1.283 . S
C147 O159 1.281 . S
C147 O160 1.236 . S
C148 O170 1.240 . S
C148 O171 1.264 . S
O149 Mn144 2.095 . S
O149 C158 1.250 . S
O150 Mn145 2.121 . S
O150 C158 1.258 . S
C151 N152 1.326 . S
C151 C155 1.460 . S
C151 H157 0.929 . S
N152 Mn145 2.257 . S
N152 C151 1.326 . S
N152 C156 1.362 . S
C153 C154 1.258 . S
C153 C156 1.431 . S
C153 C173 1.449 . S
C154 C153 1.258 . S
C154 C155 1.477 . S
C154 H174 0.931 . S
C155 C151 1.460 . S
C155 C154 1.477 . S
C155 H175 0.930 . S
C156 N152 1.362 . S
C156 C153 1.431 . S
C156 C166 1.476 . S
H157 C151 0.929 . S
C158 O149 1.250 . S
C158 O150 1.258 . S
O159 Mn144 2.162 . S
O159 C147 1.281 . S
O160 Mn144 2.297 . S
O160 C147 1.236 . S
N161 Mn145 2.282 . S
N161 C162 1.328 . S
N161 C166 1.318 . S
C162 N161 1.328 . S
C162 C163 1.457 . S
C162 H167 0.929 . S
C163 C162 1.457 . S
C163 C164 1.291 . S
C163 H176 0.931 . S
C164 C163 1.291 . S
C164 C165 1.373 . S
C164 H177 0.929 . S
C165 C164 1.373 . S
C165 C166 1.396 . S
C165 C172 1.403 . S
C166 C156 1.476 . S
C166 N161 1.318 . S
C166 C165 1.396 . S
H167 C162 0.929 . S
O168 Mn144 2.385 . S
O168 C146 1.234 . S
O169 Mn144 2.209 . S
O169 Mn145 2.215 . S
O169 C146 1.283 . S
O170 Mn144 2.094 . S
O170 C148 1.240 . S
O171 Mn145 2.117 . S
O171 C148 1.264 . S
C172 C165 1.403 . S
C172 C173 1.399 . S
C172 H178 0.929 . S
C173 C153 1.449 . S
C173 C172 1.399 . S
C173 H179 0.930 . S
H174 C154 0.931 . S
H175 C155 0.930 . S
H176 C163 0.931 . S
H177 C164 0.929 . S
H178 C172 0.929 . S
H179 C173 0.930 . S
Mn180 O185 2.095 . S
Mn180 O195 2.162 . S
Mn180 O196 2.297 . S
Mn180 O204 2.385 . S
Mn180 O205 2.209 . S
Mn180 O206 2.094 . S
Mn181 O186 2.121 . S
Mn181 N188 2.257 . S
Mn181 N197 2.282 . S
Mn181 O205 2.215 . S
Mn181 O207 2.117 . S
C182 O204 1.234 . S
C182 O205 1.283 . S
C183 O195 1.281 . S
C183 O196 1.236 . S
C184 O206 1.240 . S
C184 O207 1.264 . S
O185 Mn180 2.095 . S
O185 C194 1.250 . S
O186 Mn181 2.121 . S
O186 C194 1.258 . S
C187 N188 1.326 . S
C187 C191 1.460 . S
C187 H193 0.929 . S
N188 Mn181 2.257 . S
N188 C187 1.326 . S
N188 C192 1.362 . S
C189 C190 1.258 . S
C189 C192 1.431 . S
C189 C209 1.449 . S
C190 C189 1.258 . S
C190 C191 1.477 . S
C190 H210 0.931 . S
C191 C187 1.460 . S
C191 C190 1.477 . S
C191 H211 0.930 . S
C192 N188 1.362 . S
C192 C189 1.431 . S
C192 C202 1.476 . S
H193 C187 0.929 . S
C194 O185 1.250 . S
C194 O186 1.258 . S
O195 Mn180 2.162 . S
O195 C183 1.281 . S
O196 Mn180 2.297 . S
O196 C183 1.236 . S
N197 Mn181 2.282 . S
N197 C198 1.328 . S
N197 C202 1.318 . S
C198 N197 1.328 . S
C198 C199 1.457 . S
C198 H203 0.929 . S
C199 C198 1.457 . S
C199 C200 1.291 . S
C199 H212 0.931 . S
C200 C199 1.291 . S
C200 C201 1.373 . S
C200 H213 0.929 . S
C201 C200 1.373 . S
C201 C202 1.396 . S
C201 C208 1.403 . S
C202 C192 1.476 . S
C202 N197 1.318 . S
C202 C201 1.396 . S
H203 C198 0.929 . S
O204 Mn180 2.385 . S
O204 C182 1.234 . S
O205 Mn180 2.209 . S
O205 Mn181 2.215 . S
O205 C182 1.283 . S
O206 Mn180 2.094 . S
O206 C184 1.240 . S
O207 Mn181 2.117 . S
O207 C184 1.264 . S
C208 C201 1.403 . S
C208 C209 1.399 . S
C208 H214 0.929 . S
C209 C189 1.449 . S
C209 C208 1.399 . S
C209 H215 0.930 . S
H210 C190 0.931 . S
H211 C191 0.930 . S
H212 C199 0.931 . S
H213 C200 0.929 . S
H214 C208 0.929 . S
H215 C209 0.930 . S
H216 C224 0.950 . S
H217 C229 0.950 . S
H218 C226 0.950 . S
H219 C228 0.950 . S
H220 C230 0.950 . S
H221 C232 0.950 . S
H222 C234 0.950 . S
H223 C235 0.950 . S
C224 H216 0.950 . S
C224 C225 1.386 . S
C224 C226 1.391 . S
C225 C224 1.386 . S
C225 C229 1.393 . S
C226 H218 0.950 . S
C226 C224 1.391 . S
C226 C227 1.400 . S
C227 C226 1.400 . S
C227 C228 1.398 . S
C227 C233 1.491 1_545 S
C228 H219 0.950 . S
C228 C227 1.398 . S
C228 C229 1.391 . S
C229 H217 0.950 . S
C229 C225 1.393 . S
C229 C228 1.391 . S
C230 H220 0.950 . S
C230 C231 1.386 . S
C230 C232 1.391 . S
C231 C230 1.386 . S
C231 C235 1.393 . S
C232 H221 0.950 . S
C232 C230 1.391 . S
C232 C233 1.400 . S
C233 C227 1.491 1_565 S
C233 C232 1.400 . S
C233 C234 1.398 . S
C234 H222 0.950 . S
C234 C233 1.398 . S
C234 C235 1.391 . S
C235 H223 0.950 . S
C235 C231 1.393 . S
C235 C234 1.391 . S
H236 C244 0.950 . S
H237 C249 0.950 . S
H238 C246 0.950 . S
H239 C248 0.950 . S
H240 C250 0.950 . S
H241 C252 0.950 . S
H242 C254 0.950 . S
H243 C255 0.950 . S
C244 H236 0.950 . S
C244 C245 1.386 . S
C244 C246 1.391 . S
C245 C244 1.386 . S
C245 C249 1.393 . S
C246 H238 0.950 . S
C246 C244 1.391 . S
C246 C247 1.400 . S
C247 C246 1.400 . S
C247 C248 1.398 . S
C247 C253 1.491 . S
C248 H239 0.950 . S
C248 C247 1.398 . S
C248 C249 1.391 . S
C249 H237 0.950 . S
C249 C245 1.393 . S
C249 C248 1.391 . S
C250 H240 0.950 . S
C250 C251 1.386 . S
C250 C252 1.391 . S
C251 C250 1.386 . S
C251 C255 1.393 . S
C252 H241 0.950 . S
C252 C250 1.391 . S
C252 C253 1.400 . S
C253 C247 1.491 . S
C253 C252 1.400 . S
C253 C254 1.398 . S
C254 H242 0.950 . S
C254 C253 1.398 . S
C254 C255 1.391 . S
C255 H243 0.950 . S
C255 C251 1.393 . S
C255 C254 1.391 . S
H256 C264 0.950 . S
H257 C269 0.950 . S
H258 C266 0.950 . S
H259 C268 0.950 . S
H260 C270 0.950 . S
H261 C272 0.950 . S
H262 C274 0.950 . S
H263 C275 0.950 . S
C264 H256 0.950 . S
C264 C265 1.386 . S
C264 C266 1.391 . S
C265 C264 1.386 . S
C265 C269 1.393 . S
C266 H258 0.950 . S
C266 C264 1.391 . S
C266 C267 1.400 . S
C267 C266 1.400 . S
C267 C268 1.398 . S
C267 C273 1.491 1_655 S
C268 H259 0.950 . S
C268 C267 1.398 . S
C268 C269 1.391 . S
C269 H257 0.950 . S
C269 C265 1.393 . S
C269 C268 1.391 . S
C270 H260 0.950 . S
C270 C271 1.386 . S
C270 C272 1.391 . S
C271 C270 1.386 . S
C271 C275 1.393 . S
C272 H261 0.950 . S
C272 C270 1.391 . S
C272 C273 1.400 . S
C273 C267 1.491 1_455 S
C273 C272 1.400 . S
C273 C274 1.398 . S
C274 H262 0.950 . S
C274 C273 1.398 . S
C274 C275 1.391 . S
C275 H263 0.950 . S
C275 C271 1.393 . S
C275 C274 1.391 . S
H276 C284 0.950 . S
H277 C289 0.950 . S
H278 C286 0.950 1_556 S
H279 C288 0.950 . S
H280 C290 0.950 . S
H281 C292 0.950 1_554 S
H282 C294 0.950 . S
H283 C295 0.950 . S
C284 H276 0.950 . S
C284 C285 1.386 . S
C284 C286 1.391 . S
C285 C284 1.386 . S
C285 C289 1.393 . S
C286 H278 0.950 1_554 S
C286 C284 1.391 . S
C286 C287 1.400 . S
C287 C286 1.400 . S
C287 C288 1.398 . S
C287 C293 1.491 1_564 S
C288 H279 0.950 . S
C288 C287 1.398 . S
C288 C289 1.391 . S
C289 H277 0.950 . S
C289 C285 1.393 . S
C289 C288 1.391 . S
C290 H280 0.950 . S
C290 C291 1.386 . S
C290 C292 1.391 . S
C291 C290 1.386 . S
C291 C295 1.393 . S
C292 H281 0.950 1_556 S
C292 C290 1.391 . S
C292 C293 1.400 . S
C293 C287 1.491 1_546 S
C293 C292 1.400 . S
C293 C294 1.398 . S
C294 H282 0.950 . S
C294 C293 1.398 . S
C294 C295 1.391 . S
C295 H283 0.950 . S
C295 C291 1.393 . S
C295 C294 1.391 . S
H296 C304 0.950 . S
H297 C309 0.950 . S
H298 C306 0.950 . S
H299 C308 0.950 . S
H300 C310 0.950 . S
H301 C312 0.950 . S
H302 C314 0.950 . S
H303 C315 0.950 . S
C304 H296 0.950 . S
C304 C305 1.386 . S
C304 C306 1.391 . S
C305 C304 1.386 . S
C305 C309 1.393 . S
C306 H298 0.950 . S
C306 C304 1.391 . S
C306 C307 1.400 . S
C307 C306 1.400 . S
C307 C308 1.398 . S
C307 C313 1.491 . S
C308 H299 0.950 . S
C308 C307 1.398 . S
C308 C309 1.391 . S
C309 H297 0.950 . S
C309 C305 1.393 . S
C309 C308 1.391 . S
C310 H300 0.950 . S
C310 C311 1.386 . S
C310 C312 1.391 . S
C311 C310 1.386 . S
C311 C315 1.393 . S
C312 H301 0.950 . S
C312 C310 1.391 . S
C312 C313 1.400 . S
C313 C307 1.491 . S
C313 C312 1.400 . S
C313 C314 1.398 . S
C314 H302 0.950 . S
C314 C313 1.398 . S
C314 C315 1.391 . S
C315 H303 0.950 . S
C315 C311 1.393 . S
C315 C314 1.391 . S
H316 C324 0.950 . S
H317 C329 0.950 . S
H318 C326 0.950 . S
H319 C328 0.950 . S
H320 C330 0.950 . S
H321 C332 0.950 . S
H322 C334 0.950 . S
H323 C335 0.950 . S
C324 H316 0.950 . S
C324 C325 1.386 . S
C324 C326 1.391 . S
C325 C324 1.386 . S
C325 C329 1.393 . S
C326 H318 0.950 . S
C326 C324 1.391 . S
C326 C327 1.400 . S
C327 C326 1.400 . S
C327 C328 1.398 . S
C327 C333 1.491 1_455 S
C328 H319 0.950 . S
C328 C327 1.398 . S
C328 C329 1.391 . S
C329 H317 0.950 . S
C329 C325 1.393 . S
C329 C328 1.391 . S
C330 H320 0.950 . S
C330 C331 1.386 . S
C330 C332 1.391 . S
C331 C330 1.386 . S
C331 C335 1.393 . S
C332 H321 0.950 . S
C332 C330 1.391 . S
C332 C333 1.400 . S
C333 C327 1.491 1_655 S
C333 C332 1.400 . S
C333 C334 1.398 . S
C334 H322 0.950 . S
C334 C333 1.398 . S
C334 C335 1.391 . S
C335 H323 0.950 . S
C335 C331 1.393 . S
C335 C334 1.391 . S
H336 C344 0.950 . S
H337 C349 0.950 . S
H338 C346 0.950 . S
H339 C348 0.950 . S
H340 C350 0.950 . S
H341 C352 0.950 . S
H342 C354 0.950 . S
H343 C355 0.950 . S
C344 H336 0.950 . S
C344 C345 1.386 . S
C344 C346 1.391 . S
C345 C344 1.386 . S
C345 C349 1.393 . S
C346 H338 0.950 . S
C346 C344 1.391 . S
C346 C347 1.400 . S
C347 C346 1.400 . S
C347 C348 1.398 . S
C347 C353 1.491 . S
C348 H339 0.950 . S
C348 C347 1.398 . S
C348 C349 1.391 . S
C349 H337 0.950 . S
C349 C345 1.393 . S
C349 C348 1.391 . S
C350 H340 0.950 . S
C350 C351 1.386 . S
C350 C352 1.391 . S
C351 C350 1.386 . S
C351 C355 1.393 . S
C352 H341 0.950 . S
C352 C350 1.391 . S
C352 C353 1.400 . S
C353 C347 1.491 . S
C353 C352 1.400 . S
C353 C354 1.398 . S
C354 H342 0.950 . S
C354 C353 1.398 . S
C354 C355 1.391 . S
C355 H343 0.950 . S
C355 C351 1.393 . S
C355 C354 1.391 . S
H356 C364 0.950 . S
H357 C369 0.950 . S
H358 C366 0.950 . S
H359 C368 0.950 . S
H360 C370 0.950 . S
H361 C372 0.950 . S
H362 C374 0.950 . S
H363 C375 0.950 . S
C364 H356 0.950 . S
C364 C365 1.386 . S
C364 C366 1.391 . S
C365 C364 1.386 . S
C365 C369 1.393 . S
C366 H358 0.950 . S
C366 C364 1.391 . S
C366 C367 1.400 . S
C367 C366 1.400 . S
C367 C368 1.398 . S
C367 C373 1.491 . S
C368 H359 0.950 . S
C368 C367 1.398 . S
C368 C369 1.391 . S
C369 H357 0.950 . S
C369 C365 1.393 . S
C369 C368 1.391 . S
C370 H360 0.950 . S
C370 C371 1.386 . S
C370 C372 1.391 . S
C371 C370 1.386 . S
C371 C375 1.393 . S
C372 H361 0.950 . S
C372 C370 1.391 . S
C372 C373 1.400 . S
C373 C367 1.491 . S
C373 C372 1.400 . S
C373 C374 1.398 . S
C374 H362 0.950 . S
C374 C373 1.398 . S
C374 C375 1.391 . S
C375 H363 0.950 . S
C375 C371 1.393 . S
C375 C374 1.391 . S
H376 C384 0.950 . S
H377 C389 0.950 . S
H378 C386 0.950 . S
H379 C388 0.950 . S
H380 C390 0.950 . S
H381 C392 0.950 . S
H382 C394 0.950 . S
H383 C395 0.950 . S
C384 H376 0.950 . S
C384 C385 1.386 . S
C384 C386 1.391 . S
C385 C384 1.386 . S
C385 C389 1.393 . S
C386 H378 0.950 . S
C386 C384 1.391 . S
C386 C387 1.400 . S
C387 C386 1.400 . S
C387 C388 1.398 . S
C387 C393 1.491 . S
C388 H379 0.950 . S
C388 C387 1.398 . S
C388 C389 1.391 . S
C389 H377 0.950 . S
C389 C385 1.393 . S
C389 C388 1.391 . S
C390 H380 0.950 . S
C390 C391 1.386 . S
C390 C392 1.391 . S
C391 C390 1.386 . S
C391 C395 1.393 . S
C392 H381 0.950 . S
C392 C390 1.391 . S
C392 C393 1.400 . S
C393 C387 1.491 . S
C393 C392 1.400 . S
C393 C394 1.398 . S
C394 H382 0.950 . S
C394 C393 1.398 . S
C394 C395 1.391 . S
C395 H383 0.950 . S
C395 C391 1.393 . S
C395 C394 1.391 . S
H396 C404 0.950 . S
H397 C409 0.950 . S
H398 C406 0.950 . S
H399 C408 0.950 . S
H400 C410 0.950 . S
H401 C412 0.950 . S
H402 C414 0.950 . S
H403 C415 0.950 1_554 S
C404 H396 0.950 . S
C404 C405 1.386 . S
C404 C406 1.391 . S
C405 C404 1.386 . S
C405 C409 1.393 . S
C406 H398 0.950 . S
C406 C404 1.391 . S
C406 C407 1.400 . S
C407 C406 1.400 . S
C407 C408 1.398 . S
C407 C413 1.491 . S
C408 H399 0.950 . S
C408 C407 1.398 . S
C408 C409 1.391 . S
C409 H397 0.950 . S
C409 C405 1.393 . S
C409 C408 1.391 . S
C410 H400 0.950 . S
C410 C411 1.386 . S
C410 C412 1.391 . S
C411 C410 1.386 . S
C411 C415 1.393 . S
C412 H401 0.950 . S
C412 C410 1.391 . S
C412 C413 1.400 . S
C413 C407 1.491 . S
C413 C412 1.400 . S
C413 C414 1.398 . S
C414 H402 0.950 . S
C414 C413 1.398 . S
C414 C415 1.391 . S
C415 H403 0.950 1_556 S
C415 C411 1.393 . S
C415 C414 1.391 . S
H416 C424 0.950 . S
H417 C429 0.964 . S
H418 C426 0.950 . S
H419 C428 0.950 . S
H420 C430 0.950 . S
H421 C432 0.950 . S
H422 C434 0.950 . S
H423 C435 0.950 . S
C424 H416 0.950 . S
C424 C425 1.386 . S
C424 C426 1.391 . S
C425 C424 1.386 . S
C425 C429 1.391 1_554 S
C426 H418 0.950 . S
C426 C424 1.391 . S
C426 C427 1.400 . S
C427 C426 1.400 . S
C427 C428 1.398 . S
C427 C433 1.491 . S
C428 H419 0.950 . S
C428 C427 1.398 . S
C428 C429 1.378 1_554 S
C429 H417 0.964 . S
C429 C425 1.391 1_556 S
C429 C428 1.378 1_556 S
C430 H420 0.950 . S
C430 C431 1.386 . S
C430 C432 1.391 . S
C431 C430 1.386 . S
C431 C435 1.393 . S
C432 H421 0.950 . S
C432 C430 1.391 . S
C432 C433 1.400 . S
C433 C427 1.491 . S
C433 C432 1.400 . S
C433 C434 1.398 . S
C434 H422 0.950 . S
C434 C433 1.398 . S
C434 C435 1.391 . S
C435 H423 0.950 . S
C435 C431 1.393 . S
C435 C434 1.391 . S
H436 C444 0.950 . S
H437 C449 0.950 . S
H438 C446 0.950 . S
H439 C448 0.950 . S
H440 C450 0.950 . S
H441 C452 0.950 . S
H442 C454 0.950 . S
H443 C455 0.950 . S
C444 H436 0.950 . S
C444 C445 1.386 . S
C444 C446 1.391 . S
C445 C444 1.386 . S
C445 C449 1.393 . S
C446 H438 0.950 . S
C446 C444 1.391 . S
C446 C447 1.400 . S
C447 C446 1.400 . S
C447 C448 1.398 . S
C447 C453 1.491 . S
C448 H439 0.950 . S
C448 C447 1.398 . S
C448 C449 1.391 . S
C449 H437 0.950 . S
C449 C445 1.393 . S
C449 C448 1.391 . S
C450 H440 0.950 . S
C450 C451 1.386 . S
C450 C452 1.391 . S
C451 C450 1.386 . S
C451 C455 1.393 . S
C452 H441 0.950 . S
C452 C450 1.391 . S
C452 C453 1.400 . S
C453 C447 1.491 . S
C453 C452 1.400 . S
C453 C454 1.398 . S
C454 H442 0.950 . S
C454 C453 1.398 . S
C454 C455 1.391 . S
C455 H443 0.950 . S
C455 C451 1.393 . S
C455 C454 1.391 . S
C225 C4 1.569 . S
C231 C183 1.573 . S
C245 C3 1.575 . S
C251 C40 1.573 . S
C265 C76 1.568 . S
C271 C39 1.573 . S
C285 C112 1.570 . S
C291 C75 1.571 . S
C305 C148 1.572 . S
C311 C111 1.572 . S
C325 C184 1.571 . S
C331 C147 1.574 . S
C345 C14 1.398 . S
C351 C146 1.460 . S
C365 C182 1.461 . S
C371 C50 1.420 . S
C385 C86 1.403 . S
C391 C2 1.462 . S
C405 C38 1.457 . S
C411 C122 1.401 1_556 S
C425 C74 1.460 1_554 S
C431 C158 1.398 . S
C445 C194 1.423 . S
C451 C110 1.463 . S
