# Generated by pormake.
# Topology fnj, (5)-cn, num edge types: 1
# Building blocks:
#     Node 0, Type 0, BuildingBlock: XOMCOT_clean_sbu_0, # of connection points: 5
#     Node 1, Type 0, BuildingBlock: XOMCOT_clean_sbu_0, # of connection points: 5
#     Node 2, Type 0, BuildingBlock: XOMCOT_clean_sbu_0, # of connection points: 5
#     Node 3, Type 0, BuildingBlock: XOMCOT_clean_sbu_0, # of connection points: 5
#     Node 4, Type 0, BuildingBlock: XOMCOT_clean_sbu_0, # of connection points: 5
#     Node 5, Type 0, BuildingBlock: XOMCOT_clean_sbu_0, # of connection points: 5
#     Node 6, Type 0, BuildingBlock: XOMCOT_clean_sbu_0, # of connection points: 5
#     Node 7, Type 0, BuildingBlock: XOMCOT_clean_sbu_0, # of connection points: 5
#     Node 8, Type 0, BuildingBlock: XOMCOT_clean_sbu_0, # of connection points: 5
#     Node 9, Type 0, BuildingBlock: XOMCOT_clean_sbu_0, # of connection points: 5
#     Node 10, Type 0, BuildingBlock: XOMCOT_clean_sbu_0, # of connection points: 5
#     Node 11, Type 0, BuildingBlock: XOMCOT_clean_sbu_0, # of connection points: 5
#     Node 12, Type 0, BuildingBlock: XOMCOT_clean_sbu_0, # of connection points: 5
#     Node 13, Type 0, BuildingBlock: XOMCOT_clean_sbu_0, # of connection points: 5
#     Node 14, Type 0, BuildingBlock: XOMCOT_clean_sbu_0, # of connection points: 5
#     Node 15, Type 0, BuildingBlock: XOMCOT_clean_sbu_0, # of connection points: 5
#     Edge 16, Type (0, 0), BuildingBlock: EZIPEK_clean_linker_0, # of connection points: 2
#     Edge 17, Type (0, 0), BuildingBlock: EZIPEK_clean_linker_0, # of connection points: 2
#     Edge 18, Type (0, 0), BuildingBlock: EZIPEK_clean_linker_0, # of connection points: 2
#     Edge 19, Type (0, 0), BuildingBlock: EZIPEK_clean_linker_0, # of connection points: 2
#     Edge 20, Type (0, 0), BuildingBlock: EZIPEK_clean_linker_0, # of connection points: 2
#     Edge 21, Type (0, 0), BuildingBlock: EZIPEK_clean_linker_0, # of connection points: 2
#     Edge 22, Type (0, 0), BuildingBlock: EZIPEK_clean_linker_0, # of connection points: 2
#     Edge 23, Type (0, 0), BuildingBlock: EZIPEK_clean_linker_0, # of connection points: 2
#     Edge 24, Type (0, 0), BuildingBlock: EZIPEK_clean_linker_0, # of connection points: 2
#     Edge 25, Type (0, 0), BuildingBlock: EZIPEK_clean_linker_0, # of connection points: 2
#     Edge 26, Type (0, 0), BuildingBlock: EZIPEK_clean_linker_0, # of connection points: 2
#     Edge 27, Type (0, 0), BuildingBlock: EZIPEK_clean_linker_0, # of connection points: 2
#     Edge 28, Type (0, 0), BuildingBlock: EZIPEK_clean_linker_0, # of connection points: 2
#     Edge 29, Type (0, 0), BuildingBlock: EZIPEK_clean_linker_0, # of connection points: 2
#     Edge 30, Type (0, 0), BuildingBlock: EZIPEK_clean_linker_0, # of connection points: 2
#     Edge 31, Type (0, 0), BuildingBlock: EZIPEK_clean_linker_0, # of connection points: 2
#     Edge 32, Type (0, 0), BuildingBlock: EZIPEK_clean_linker_0, # of connection points: 2
#     Edge 33, Type (0, 0), BuildingBlock: EZIPEK_clean_linker_0, # of connection points: 2
#     Edge 34, Type (0, 0), BuildingBlock: EZIPEK_clean_linker_0, # of connection points: 2
#     Edge 35, Type (0, 0), BuildingBlock: EZIPEK_clean_linker_0, # of connection points: 2
#     Edge 36, Type (0, 0), BuildingBlock: EZIPEK_clean_linker_0, # of connection points: 2
#     Edge 37, Type (0, 0), BuildingBlock: EZIPEK_clean_linker_0, # of connection points: 2
#     Edge 38, Type (0, 0), BuildingBlock: EZIPEK_clean_linker_0, # of connection points: 2
#     Edge 39, Type (0, 0), BuildingBlock: EZIPEK_clean_linker_0, # of connection points: 2
#     Edge 40, Type (0, 0), BuildingBlock: EZIPEK_clean_linker_0, # of connection points: 2
#     Edge 41, Type (0, 0), BuildingBlock: EZIPEK_clean_linker_0, # of connection points: 2
#     Edge 42, Type (0, 0), BuildingBlock: EZIPEK_clean_linker_0, # of connection points: 2
#     Edge 43, Type (0, 0), BuildingBlock: EZIPEK_clean_linker_0, # of connection points: 2
#     Edge 44, Type (0, 0), BuildingBlock: EZIPEK_clean_linker_0, # of connection points: 2
#     Edge 45, Type (0, 0), BuildingBlock: EZIPEK_clean_linker_0, # of connection points: 2
#     Edge 46, Type (0, 0), BuildingBlock: EZIPEK_clean_linker_0, # of connection points: 2
#     Edge 47, Type (0, 0), BuildingBlock: EZIPEK_clean_linker_0, # of connection points: 2
#     Edge 48, Type (0, 0), BuildingBlock: EZIPEK_clean_linker_0, # of connection points: 2
#     Edge 49, Type (0, 0), BuildingBlock: EZIPEK_clean_linker_0, # of connection points: 2
#     Edge 50, Type (0, 0), BuildingBlock: EZIPEK_clean_linker_0, # of connection points: 2
#     Edge 51, Type (0, 0), BuildingBlock: EZIPEK_clean_linker_0, # of connection points: 2
#     Edge 52, Type (0, 0), BuildingBlock: EZIPEK_clean_linker_0, # of connection points: 2
#     Edge 53, Type (0, 0), BuildingBlock: EZIPEK_clean_linker_0, # of connection points: 2
#     Edge 54, Type (0, 0), BuildingBlock: EZIPEK_clean_linker_0, # of connection points: 2
#     Edge 55, Type (0, 0), BuildingBlock: EZIPEK_clean_linker_0, # of connection points: 2
# Relax obj value: 0.069
# Max RMSD: 0.157
# Mean RMSD: 0.156
data_MOF--net-fnj--node1-XOMCOT_clean_sbu_0--edge1-EZIPEK_clean_linker_0
_symmetry_space_group_name_H-M    P1
_symmetry_Int_Tables_number       1
_symmetry_cell_setting            triclinic
loop_
_symmetry_equiv_pos_as_xyz
'x, y, z'
_cell_length_a     58.291528
_cell_length_b     58.246363
_cell_length_c     13.570155
_cell_angle_alpha  90.674817
_cell_angle_beta   90.798615
_cell_angle_gamma 89.957314
loop_
_atom_site_label
_atom_site_type_symbol
_atom_site_fract_x
_atom_site_fract_y
_atom_site_fract_z
_atom_type_partial_charge
Co0 Co 0.37533 1.00257 0.04653 0.0
C1 C 0.36739 0.99605 0.83203 0.0
C2 C 0.37391 0.03128 0.87079 0.0
C3 C 0.37278 0.02934 0.76995 0.0
N4 N 0.37031 0.01042 0.90998 0.0
N5 N 0.36872 0.00718 0.7463 0.0
H6 H 0.36524 0.97769 0.83652 0.0
H7 H 0.37827 0.0467 0.91194 0.0
C8 C 0.36698 0.04696 0.16097 0.0
O9 O 0.3793 0.04045 0.23715 0.0
N10 N 0.38137 0.99427 0.18338 0.0
C11 C 0.40223 0.9905 0.22463 0.0
C12 C 0.39997 0.98781 0.32388 0.0
C13 C 0.3665 0.99174 0.25829 0.0
N14 N 0.37755 0.98886 0.34564 0.0
C15 C 0.41865 0.99162 0.96878 0.0
C16 C 0.44428 0.02469 0.06752 0.0
C17 C 0.45547 0.00679 1.0174 0.0
C18 C 0.44244 0.99077 0.9641 0.0
C19 C 0.42021 0.02514 0.06904 0.0
N20 N 0.40784 0.0078 0.02512 0.0
H21 H 0.40893 0.97846 0.93043 0.0
H22 H 0.41179 0.03834 0.11136 0.0
H23 H 0.41829 0.9898 0.18665 0.0
H24 H 0.34809 0.99247 0.25023 0.0
O25 O 0.37379 0.97019 1.0132 0.0
O26 O 0.34423 0.99184 0.05557 0.0
O27 O 0.36752 0.03565 0.08018 0.0
C28 C 0.35172 0.97217 0.02431 0.0
H29 H 0.37523 0.04299 0.71767 0.0
H30 H 0.41387 0.98565 0.37679 0.0
H31 H 0.45404 0.03756 0.10828 0.0
H32 H 0.45062 0.97701 0.92323 0.0
Co33 Co 0.25866 0.13053 0.2742 0.0
C34 C 0.25466 0.1348 0.05518 0.0
C35 C 0.23922 0.10399 0.10735 0.0
C36 C 0.23904 0.10315 1.00606 0.0
N37 N 0.24863 0.12403 0.13892 0.0
N38 N 0.24879 0.12248 0.97384 0.0
H39 H 0.26453 0.15039 0.05244 0.0
H40 H 0.23403 0.09022 0.15442 0.0
C41 C 0.20762 0.11796 0.29122 0.0
O42 O 0.20228 0.12687 0.20545 0.0
N43 N 0.26906 0.13655 0.40794 0.0
C44 C 0.28536 0.15175 0.43658 0.0
C45 C 0.28658 0.15233 0.53812 0.0
C46 C 0.26065 0.12798 0.49214 0.0
N47 N 0.27103 0.13744 0.57226 0.0
C48 C 0.26695 0.17646 0.21505 0.0
C49 C 0.23235 0.19776 0.31856 0.0
C50 C 0.24864 0.21131 0.27072 0.0
C51 C 0.26577 0.20034 0.21729 0.0
C52 C 0.23403 0.17361 0.31387 0.0
N53 N 0.2513 0.16321 0.26252 0.0
H54 H 0.28138 0.16879 0.1786 0.0
H55 H 0.2222 0.16348 0.35564 0.0
H56 H 0.29527 0.16211 0.38714 0.0
H57 H 0.24695 0.1155 0.49534 0.0
O58 O 0.29045 0.13123 0.23137 0.0
O59 O 0.27221 0.10032 0.27711 0.0
O60 O 0.22758 0.12124 0.3293 0.0
C61 C 0.29107 0.10923 0.24493 0.0
H62 H 0.23346 0.0889 0.95969 0.0
H63 H 0.29759 0.16319 0.58352 0.0
H64 H 0.21904 0.20576 0.36205 0.0
H65 H 0.27884 0.21022 0.18081 0.0
Co66 Co 0.13308 0.00526 0.54209 0.0
C67 C 0.13483 1.0033 0.76159 0.0
C68 C 0.15103 0.03375 0.70885 0.0
C69 C 0.15235 0.03397 0.81037 0.0
N70 N 0.13979 0.01463 0.67794 0.0
N71 N 0.14224 0.01481 0.84283 0.0
H72 H 0.12603 0.987 0.76383 0.0
H73 H 0.15799 0.04675 0.66173 0.0
C74 C 0.14094 0.04974 0.42019 0.0
O75 O 0.12652 0.04425 0.34866 0.0
N76 N 0.12637 0.9953 0.40773 0.0
C77 C 0.10786 0.98301 0.37808 0.0
C78 C 0.10807 0.98065 0.27707 0.0
C79 C 0.1382 0.99923 0.32471 0.0
N80 N 0.12688 0.9913 0.24372 0.0
C81 C 0.08832 0.99628 0.61445 0.0
C82 C 0.06458 0.03027 0.51657 0.0
C83 C 0.05221 0.01318 0.56497 0.0
C84 C 0.0644 0.99648 0.61654 0.0
C85 C 0.08874 0.02944 0.51623 0.0
N86 N 0.10037 0.01203 0.56184 0.0
H87 H 0.09695 0.98242 0.65124 0.0
H88 H 0.09774 0.04239 0.47674 0.0
H89 H 0.09462 0.97687 0.42603 0.0
H90 H 0.15398 0.00898 0.32257 0.0
O91 O 0.13287 0.97324 0.58118 0.0
O92 O 0.16363 0.99192 0.53364 0.0
O93 O 0.14199 0.03785 0.4994 0.0
C94 C 0.15481 0.97307 0.56678 0.0
H95 H 0.16001 0.04718 0.85693 0.0
H96 H 0.09474 0.97302 0.23103 0.0
H97 H 0.05565 0.04363 0.47662 0.0
H98 H 0.05544 0.9831 0.65524 0.0
Co99 Co 0.25688 0.88857 0.79952 0.0
C100 C 0.25577 0.89459 0.01939 0.0
C101 C 0.22292 0.88508 0.95965 0.0
C102 C 0.22153 0.8857 0.06098 0.0
N103 N 0.2444 0.89073 0.93286 0.0
N104 N 0.24227 0.89153 0.09801 0.0
H105 H 0.27381 0.89827 0.02634 0.0
H106 H 0.20943 0.87949 0.90992 0.0
C107 C 0.20696 0.89558 0.71777 0.0
O108 O 0.19919 0.87464 0.72915 0.0
N109 N 0.26903 0.88662 0.66658 0.0
C110 C 0.28786 0.87489 0.63843 0.0
C111 C 0.28909 0.87511 0.537 0.0
C112 C 0.25912 0.89389 0.58162 0.0
N113 N 0.27093 0.88692 0.50184 0.0
C114 C 0.25695 0.84357 0.87006 0.0
C115 C 0.24209 0.82153 0.6996 0.0
C116 C 0.25137 0.80861 0.77725 0.0
C117 C 0.25819 0.81981 0.86403 0.0
C118 C 0.24102 0.84553 0.70894 0.0
N119 N 0.24888 0.85626 0.79296 0.0
H120 H 0.26421 0.85188 0.93474 0.0
H121 H 0.23522 0.85547 0.6467 0.0
H122 H 0.29928 0.86573 0.68765 0.0
H123 H 0.24302 0.90305 0.5769 0.0
O124 O 0.28765 0.88487 0.85257 0.0
O125 O 0.27092 0.91796 0.81751 0.0
O126 O 0.22736 0.90104 0.74356 0.0
C127 C 0.28899 0.90713 0.85024 0.0
H128 H 0.20689 0.88086 0.10433 0.0
H129 H 0.30157 0.86622 0.49218 0.0
H130 H 0.23672 0.81323 0.63127 0.0
H131 H 0.26553 0.81031 0.925 0.0
Co132 Co 0.63214 0.01315 0.04736 0.0
C133 C 0.631 0.01196 0.26737 0.0
C134 C 0.65871 0.99196 0.20946 0.0
C135 C 0.66013 0.99163 0.31108 0.0
N136 N 0.64035 1.00464 0.18183 0.0
N137 N 0.64281 1.00439 0.34675 0.0
H138 H 0.61628 0.02307 0.27276 0.0
H139 H 0.67075 0.98409 0.15942 0.0
C140 C 0.64558 0.97055 0.92291 0.0
O141 O 0.63056 0.9744 0.85227 0.0
N142 N 0.62376 0.0223 0.91321 0.0
C143 C 0.60339 0.03133 0.88473 0.0
C144 C 0.60291 0.03353 0.78372 0.0
C145 C 0.63578 0.02042 0.82893 0.0
N146 N 0.62315 0.02619 0.74885 0.0
C147 C 0.58642 0.01662 0.11398 0.0
C148 C 0.56831 0.97927 1.01334 0.0
C149 C 0.55354 0.99562 0.05487 0.0
C150 C 0.56281 0.01381 0.10918 0.0
C151 C 0.59214 0.98267 0.02046 0.0
N152 N 0.6009 1.00191 0.06589 0.0
H153 H 0.59265 0.03191 0.15026 0.0
H154 H 0.60316 0.97032 0.98601 0.0
H155 H 0.58939 0.03534 0.9332 0.0
H156 H 0.65283 0.01365 0.82445 0.0
O157 O 0.62739 0.04459 0.08993 0.0
O158 O 0.66048 0.03012 0.04053 0.0
O159 O 0.64571 0.98249 1.00263 0.0
C160 C 0.64915 0.04744 0.07653 0.0
H161 H 0.6732 0.98327 0.35538 0.0
H162 H 0.58836 0.03874 0.73879 0.0
H163 H 0.5615 0.96468 0.97233 0.0
H164 H 0.55181 0.02658 0.1431 0.0
Co165 Co 0.75135 0.88789 0.76712 0.0
C166 C 0.75541 0.88372 0.98692 0.0
C167 C 0.77397 0.9123 0.93051 0.0
C168 C 0.7747 0.91363 0.03186 0.0
N169 N 0.76223 0.89335 0.90176 0.0
N170 N 0.76299 0.89568 0.06675 0.0
H171 H 0.74381 0.86942 0.99181 0.0
H172 H 0.78015 0.92524 0.88095 0.0
C173 C 0.80329 0.89463 0.74321 0.0
O174 O 0.8081 0.88114 0.8176 0.0
N175 N 0.74048 0.88312 0.63304 0.0
C176 C 0.72395 0.86835 0.60267 0.0
C177 C 0.72305 0.86809 0.501 0.0
C178 C 0.74935 0.89173 0.54975 0.0
N179 N 0.73904 0.88273 0.46847 0.0
C180 C 0.74278 0.84193 0.82699 0.0
C181 C 0.77471 0.81984 0.71147 0.0
C182 C 0.75927 0.80663 0.76559 0.0
C183 C 0.74338 0.818 0.82446 0.0
C184 C 0.77359 0.84401 0.71643 0.0
N185 N 0.75784 0.85486 0.7746 0.0
H186 H 0.72915 0.8499 0.86763 0.0
H187 H 0.78459 0.85383 0.66989 0.0
H188 H 0.71383 0.85789 0.65098 0.0
H189 H 0.76346 0.90375 0.54795 0.0
O190 O 0.71983 0.88741 0.81225 0.0
O191 O 0.7384 0.91849 0.76986 0.0
O192 O 0.78252 0.89697 0.71326 0.0
C193 C 0.71968 0.90957 0.80387 0.0
H194 H 0.78197 0.92742 0.07642 0.0
H195 H 0.71206 0.85747 0.45443 0.0
H196 H 0.78698 0.81157 0.6635 0.0
H197 H 0.7309 0.8084 0.86565 0.0
Co198 Co 0.87158 0.01097 0.52525 0.0
C199 C 0.87632 0.00681 0.30569 0.0
C200 C 0.84866 0.98689 0.36166 0.0
C201 C 0.84736 0.9862 0.26028 0.0
N202 N 0.86703 0.99948 0.39081 0.0
N203 N 0.86474 0.99875 0.22563 0.0
H204 H 0.88995 0.01918 0.30092 0.0
H205 H 0.83591 0.98024 0.41085 0.0
C206 C 0.86574 0.95898 0.55447 0.0
O207 O 0.88013 0.95415 0.48349 0.0
N208 N 0.87543 0.02244 0.6591 0.0
C209 C 0.88972 0.0394 0.68933 0.0
C210 C 0.88996 0.04037 0.791 0.0
C211 C 0.86708 0.01339 0.74261 0.0
N212 N 0.87579 0.02399 0.82382 0.0
C213 C 0.91784 0.01901 0.46883 0.0
C214 C 0.93926 0.98893 0.59587 0.0
C215 C 0.95275 1.00373 0.53982 0.0
C216 C 0.94173 0.01863 0.47496 0.0
C217 C 0.91516 0.98972 0.58674 0.0
N218 N 0.90464 1.00455 0.523 0.0
H219 H 0.9101 0.03213 0.42437 0.0
H220 H 0.9051 0.97931 0.63461 0.0
H221 H 0.90003 0.04966 0.64099 0.0
H222 H 0.85558 0.99885 0.7447 0.0
O223 O 0.8724 0.04229 0.47746 0.0
O224 O 0.84101 0.02397 0.51653 0.0
O225 O 0.86231 0.97988 0.58057 0.0
C226 C 0.8502 0.04254 0.48199 0.0
H227 H 0.83389 0.97841 0.21556 0.0
H228 H 0.90037 0.05159 0.83739 0.0
H229 H 0.94724 0.97743 0.64829 0.0
H230 H 0.95155 0.03064 0.43211 0.0
Co231 Co 0.74945 0.13101 0.22055 0.0
C232 C 0.75079 0.13222 1.00026 0.0
C233 C 0.77138 0.10499 0.05895 0.0
C234 C 0.77175 0.10352 0.95734 0.0
N235 N 0.7583 0.12309 0.08616 0.0
N236 N 0.75863 0.12055 0.92119 0.0
H237 H 0.73932 0.14664 0.99421 0.0
H238 H 0.77946 0.0931 0.10925 0.0
C239 C 0.79191 0.11759 0.34692 0.0
O240 O 0.78819 0.13275 0.41701 0.0
N241 N 0.73996 0.139 0.35447 0.0
C242 C 0.73014 0.15902 0.38232 0.0
C243 C 0.72792 0.15949 0.48334 0.0
C244 C 0.74227 0.12709 0.43903 0.0
N245 N 0.73599 0.13952 0.51875 0.0
C246 C 0.74577 0.17668 0.15251 0.0
C247 C 0.78153 0.1957 0.26046 0.0
C248 C 0.76528 0.21011 0.21555 0.0
C249 C 0.74798 0.20036 0.1574 0.0
C250 C 0.77888 0.17174 0.25222 0.0
N251 N 0.76035 0.1625 0.2032 0.0
H252 H 0.73086 0.17015 0.11434 0.0
H253 H 0.79113 0.161 0.28908 0.0
H254 H 0.72558 0.17279 0.33319 0.0
H255 H 0.74973 0.11032 0.4441 0.0
O256 O 0.71806 0.13557 0.17672 0.0
O257 O 0.73271 0.10248 0.2259 0.0
O258 O 0.78011 0.11756 0.26668 0.0
C259 C 0.71535 0.11376 0.18964 0.0
H260 H 0.78037 0.0906 0.9134 0.0
H261 H 0.72214 0.17385 0.52788 0.0
H262 H 0.79534 0.20285 0.30525 0.0
H263 H 0.7352 0.21104 0.12158 0.0
Co264 Co 0.87708 0.4997 0.48584 0.0
C265 C 0.86489 0.5023 0.26961 0.0
C266 C 0.88422 0.53135 0.32094 0.0
C267 C 0.88266 0.53224 0.22013 0.0
N268 N 0.87356 0.51228 0.35289 0.0
N269 N 0.87066 0.51391 0.18769 0.0
H270 H 0.8558 0.48623 0.26739 0.0
H271 H 0.89473 0.54263 0.36575 0.0
C272 C 0.86798 0.54986 0.55494 0.0
O273 O 0.88756 0.55846 0.52649 0.0
N274 N 0.88065 0.48783 0.61793 0.0
C275 C 0.89924 0.47675 0.65319 0.0
C276 C 0.8986 0.47723 0.75434 0.0
C277 C 0.8682 0.49353 0.6978 0.0
N278 N 0.87912 0.48785 0.78279 0.0
C279 C 0.92211 0.50106 0.41626 0.0
C280 C 0.94297 0.52059 0.58085 0.0
C281 C 0.95649 0.51027 0.5078 0.0
C282 C 0.94587 0.50123 0.4234 0.0
C283 C 0.91897 0.52027 0.5703 0.0
N284 N 0.90887 0.5099 0.48986 0.0
H285 H 0.91421 0.49236 0.35387 0.0
H286 H 0.90858 0.52649 0.6304 0.0
H287 H 0.9133 0.47064 0.6088 0.0
H288 H 0.85216 0.50287 0.69393 0.0
O289 O 0.8828 0.46917 0.43342 0.0
O290 O 0.84858 0.48308 0.47216 0.0
O291 O 0.86334 0.52858 0.5433 0.0
C292 C 0.86086 0.46584 0.44099 0.0
H293 H 0.89121 0.54443 0.17352 0.0
H294 H 0.91202 0.4712 0.80358 0.0
H295 H 0.95082 0.52764 0.64735 0.0
H296 H 0.95587 0.49314 0.36586 0.0
Co297 Co 0.7607 0.62564 0.7465 0.0
C298 C 0.75699 0.6304 0.5282 0.0
C299 C 0.73725 0.602 0.57844 0.0
C300 C 0.73713 0.60146 0.47695 0.0
N301 N 0.74949 0.62031 0.61143 0.0
N302 N 0.74957 0.61929 0.44588 0.0
H303 H 0.76903 0.64439 0.52664 0.0
H304 H 0.73009 0.58892 0.62426 0.0
C305 C 0.70926 0.61565 0.77184 0.0
O306 O 0.70342 0.62609 0.68998 0.0
N307 N 0.77217 0.63083 0.87955 0.0
C308 C 0.78844 0.64607 0.90802 0.0
C309 C 0.78954 0.64686 1.00965 0.0
C310 C 0.76365 0.62247 0.96405 0.0
N311 N 0.77391 0.63208 0.04418 0.0
C312 C 0.76973 0.67178 0.68989 0.0
C313 C 0.73578 0.69336 0.7962 0.0
C314 C 0.75189 0.70681 0.74682 0.0
C315 C 0.76878 0.69569 0.69241 0.0
C316 C 0.73726 0.6692 0.79135 0.0
N317 N 0.75411 0.65862 0.73808 0.0
H318 H 0.78398 0.66402 0.65252 0.0
H319 H 0.72552 0.65921 0.83417 0.0
H320 H 0.79823 0.65651 0.85845 0.0
H321 H 0.74973 0.61025 0.96752 0.0
O322 O 0.79188 0.62559 0.69671 0.0
O323 O 0.77363 0.59484 0.74707 0.0
O324 O 0.72984 0.61705 0.80528 0.0
C325 C 0.79198 0.60352 0.70902 0.0
H326 H 0.7296 0.58831 0.42968 0.0
H327 H 0.80037 0.65795 0.05481 0.0
H328 H 0.72267 0.70145 0.84047 0.0
H329 H 0.78173 0.70548 0.65481 0.0
Co330 Co 0.63446 0.50468 0.0287 0.0
C331 C 0.63306 0.50425 0.24713 0.0
C332 C 0.65671 0.52944 0.19482 0.0
C333 C 0.65812 0.52914 0.29633 0.0
N334 N 0.64096 0.51386 0.164 0.0
N335 N 0.64326 0.51332 0.32843 0.0
H336 H 0.6208 0.49039 0.24875 0.0
H337 H 0.66714 0.53969 0.14694 0.0
C338 C 0.64145 0.54938 0.9093 0.0
O339 O 0.62619 0.54421 0.84065 0.0
N340 N 0.62793 0.49479 0.89397 0.0
C341 C 0.60999 0.48161 0.86454 0.0
C342 C 0.61014 0.47929 0.76356 0.0
C343 C 0.63939 0.49936 0.81056 0.0
N344 N 0.6284 0.49076 0.73006 0.0
C345 C 0.58915 0.49365 0.09039 0.0
C346 C 0.56617 0.53094 1.01371 0.0
C347 C 0.55343 0.51264 0.05134 0.0
C348 C 0.56525 0.49419 0.09228 0.0
C349 C 0.59033 0.52975 1.0134 0.0
N350 N 0.60158 0.51081 0.04816 0.0
H351 H 0.59745 0.47856 0.11875 0.0
H352 H 0.59964 0.54386 0.98323 0.0
H353 H 0.59724 0.47458 0.91254 0.0
H354 H 0.65474 0.50973 0.8078 0.0
O355 O 0.63524 0.47262 0.06795 0.0
O356 O 0.6653 0.49218 0.01969 0.0
O357 O 0.64296 0.53748 0.98818 0.0
C358 C 0.65719 0.47316 0.0538 0.0
H359 H 0.66936 0.53946 0.34301 0.0
H360 H 0.59724 0.47089 0.71775 0.0
H361 H 0.55752 0.54566 0.98238 0.0
H362 H 0.556 0.47982 0.12249 0.0
Co363 Co 0.75967 0.38634 0.2883 0.0
C364 C 0.75914 0.39369 0.50785 0.0
C365 C 0.72553 0.38736 0.44917 0.0
C366 C 0.72428 0.38835 0.55046 0.0
N367 N 0.74746 0.3907 0.42159 0.0
N368 N 0.74553 0.39203 0.58708 0.0
H369 H 0.7773 0.39586 0.51402 0.0
H370 H 0.71149 0.38294 0.40041 0.0
C371 C 0.71066 0.39694 0.20835 0.0
O372 O 0.70181 0.37664 0.22477 0.0
N373 N 0.77135 0.38224 0.15537 0.0
C374 C 0.78775 0.36728 0.1269 0.0
C375 C 0.78899 0.36733 0.02544 0.0
C376 C 0.76293 0.39124 0.07067 0.0
N377 N 0.77329 0.38228 0.99061 0.0
C378 C 0.75499 0.34179 0.3619 0.0
C379 C 0.74028 0.32092 0.18844 0.0
C380 C 0.74911 0.30739 0.26499 0.0
C381 C 0.75558 0.31799 0.35376 0.0
C382 C 0.73997 0.34488 0.19967 0.0
N383 N 0.74811 0.35505 0.28452 0.0
H384 H 0.76232 0.34958 0.42759 0.0
H385 H 0.73502 0.3552 0.13731 0.0
H386 H 0.7973 0.35622 0.17604 0.0
H387 H 0.74876 0.40318 0.06648 0.0
O388 O 0.78989 0.37927 0.34157 0.0
O389 O 0.77746 0.41405 0.30204 0.0
O390 O 0.73148 0.40148 0.23099 0.0
C391 C 0.79411 0.40109 0.33415 0.0
H392 H 0.70928 0.38494 0.5941 0.0
H393 H 0.79965 0.35633 0.98036 0.0
H394 H 0.7351 0.31314 0.11876 0.0
H395 H 0.76249 0.30802 0.41422 0.0
Co396 Co 0.13257 0.51536 0.56379 0.0
C397 C 0.13029 0.51166 0.78401 0.0
C398 C 0.15976 0.49454 0.72707 0.0
C399 C 0.16092 0.49384 0.82844 0.0
N400 N 0.14022 0.50521 0.69806 0.0
N401 N 0.14249 0.50486 0.8638 0.0
H402 H 0.11532 0.52233 0.79003 0.0
H403 H 0.17304 0.48854 0.67887 0.0
C404 C 0.14981 0.46625 0.52891 0.0
O405 O 0.14023 0.45812 0.60826 0.0
N406 N 0.12545 0.52566 0.43143 0.0
C407 C 0.10746 0.53868 0.40291 0.0
C408 C 0.10693 0.53962 0.30124 0.0
C409 C 0.13575 0.51905 0.34704 0.0
N410 N 0.12469 0.52723 0.26687 0.0
C411 C 0.0866 0.51593 0.62751 0.0
C412 C 0.06944 0.48365 0.49564 0.0
C413 C 0.05426 0.49729 0.55046 0.0
C414 C 0.06309 0.51292 0.61915 0.0
C415 C 0.09322 0.48703 0.50734 0.0
N416 N 0.10151 0.50337 0.57172 0.0
H417 H 0.09239 0.53011 0.67242 0.0
H418 H 0.10469 0.47785 0.45908 0.0
H419 H 0.09504 0.54617 0.4523 0.0
H420 H 0.15052 0.50782 0.34361 0.0
O421 O 0.12686 0.54597 0.61459 0.0
O422 O 0.1605 0.53291 0.56405 0.0
O423 O 0.14588 0.48672 0.5017 0.0
C424 C 0.14854 0.5496 0.60164 0.0
H425 H 0.17485 0.48701 0.87285 0.0
H426 H 0.09407 0.54799 0.25589 0.0
H427 H 0.06298 0.47164 0.44045 0.0
H428 H 0.05179 0.52401 0.66105 0.0
Co429 Co 0.25479 0.39188 0.30277 0.0
C430 C 0.25536 0.39665 0.52318 0.0
C431 C 0.28886 0.3896 0.46794 0.0
C432 C 0.29011 0.3901 0.56939 0.0
N433 N 0.26711 0.39403 0.43803 0.0
N434 N 0.26901 0.39446 0.60355 0.0
H435 H 0.237 0.3988 0.52766 0.0
H436 H 0.30275 0.38482 0.42065 0.0
C437 C 0.30531 0.39468 0.22834 0.0
O438 O 0.31063 0.37323 0.24635 0.0
N439 N 0.24262 0.38968 0.16897 0.0
C440 C 0.22437 0.37708 0.13883 0.0
C441 C 0.22321 0.37708 0.03727 0.0
C442 C 0.25229 0.39722 0.08526 0.0
N443 N 0.24086 0.38961 1.00416 0.0
C444 C 0.25305 0.34653 0.37702 0.0
C445 C 0.26814 0.3234 0.21133 0.0
C446 C 0.25925 0.31074 0.28952 0.0
C447 C 0.25207 0.32259 0.37364 0.0
C448 C 0.2689 0.34752 0.21782 0.0
N449 N 0.2613 0.35887 0.30004 0.0
H450 H 0.24579 0.35519 0.43994 0.0
H451 H 0.27462 0.35703 0.15497 0.0
H452 H 0.21354 0.36731 0.18694 0.0
H453 H 0.26801 0.40702 0.08265 0.0
O454 O 0.22379 0.39025 0.35394 0.0
O455 O 0.24165 0.42225 0.315 0.0
O456 O 0.28543 0.40267 0.24836 0.0
C457 C 0.22336 0.41258 0.34945 0.0
H458 H 0.30502 0.38623 0.6147 0.0
H459 H 0.21123 0.3675 0.99108 0.0
H460 H 0.27372 0.31477 0.1447 0.0
H461 H 0.2449 0.31342 0.435 0.0
Co462 Co 0.37269 0.51168 1.01185 0.0
C463 C 0.37676 0.50831 0.79244 0.0
C464 C 0.35134 0.48546 0.84749 0.0
C465 C 0.35019 0.48487 0.74589 0.0
N466 N 0.36823 0.49992 0.87732 0.0
N467 N 0.36619 0.49925 0.71183 0.0
H468 H 0.38895 0.52212 0.78828 0.0
H469 H 0.33927 0.47745 0.89604 0.0
C470 C 0.36766 0.45977 0.04441 0.0
O471 O 0.38293 0.4549 0.977 0.0
N472 N 0.37674 0.52344 0.14518 0.0
C473 C 0.39151 0.53999 0.17519 0.0
C474 C 0.39188 0.54093 0.27692 0.0
C475 C 0.36818 0.51466 0.22883 0.0
N476 N 0.37728 0.52495 0.30999 0.0
C477 C 0.41894 0.51946 0.95347 0.0
C478 C 0.44039 0.49 0.08317 0.0
C479 C 0.45387 0.50447 0.02557 0.0
C480 C 0.44284 0.51907 0.95948 0.0
C481 C 0.41629 0.4908 0.07427 0.0
N482 N 0.40575 0.50527 1.00896 0.0
H483 H 0.4112 0.53245 0.90838 0.0
H484 H 0.40624 0.48072 0.1237 0.0
H485 H 0.40211 0.54991 0.12666 0.0
H486 H 0.35623 0.50049 0.23097 0.0
O487 O 0.37312 0.54268 0.96008 0.0
O488 O 0.342 0.52453 1.00681 0.0
O489 O 0.36363 0.4807 0.0683 0.0
C490 C 0.35093 0.54273 0.96798 0.0
H491 H 0.33771 0.47569 0.70065 0.0
H492 H 0.40269 0.5518 0.32316 0.0
H493 H 0.44838 0.47877 0.13665 0.0
H494 H 0.45265 0.53086 0.91552 0.0
Co495 Co 0.24829 0.63244 0.74268 0.0
C496 C 0.25208 0.63438 0.52228 0.0
C497 C 0.26881 0.60477 0.58061 0.0
C498 C 0.26956 0.60347 0.47923 0.0
N499 N 0.25836 0.6245 0.60872 0.0
N500 N 0.25877 0.622 0.443 0.0
H501 H 0.24162 0.6495 0.51551 0.0
H502 H 0.27463 0.59151 0.62955 0.0
C503 C 0.29741 0.61518 0.77896 0.0
O504 O 0.30555 0.62386 0.69771 0.0
N505 N 0.23811 0.63976 0.87489 0.0
C506 C 0.22542 0.65796 0.90358 0.0
C507 C 0.22457 0.65841 1.00531 0.0
C508 C 0.24457 0.62925 0.9592 0.0
N509 N 0.23665 0.64039 0.03954 0.0
C510 C 0.24724 0.67821 0.67588 0.0
C511 C 0.28002 0.69604 0.80383 0.0
C512 C 0.26624 0.71093 0.74787 0.0
C513 C 0.25037 0.70174 0.68112 0.0
C514 C 0.27658 0.67219 0.79499 0.0
N515 N 0.26 0.66358 0.73249 0.0
H516 H 0.2329 0.67221 0.63247 0.0
H517 H 0.28595 0.66096 0.84384 0.0
H518 H 0.21812 0.67055 0.8543 0.0
H519 H 0.25551 0.61426 0.96244 0.0
O520 O 0.21761 0.63775 0.6918 0.0
O521 O 0.23098 0.60434 0.74419 0.0
O522 O 0.27705 0.61962 0.80575 0.0
C523 C 0.21418 0.61606 0.70586 0.0
H524 H 0.27627 0.58941 0.43543 0.0
H525 H 0.21645 0.67138 0.05078 0.0
H526 H 0.29219 0.70279 0.85775 0.0
H527 H 0.23914 0.71283 0.63861 0.0
C528 C 0.35081 0.00888 0.5831 0.0
C529 C 0.36605 0.99787 0.64845 0.0
C530 C 0.37849 0.97334 0.51276 0.0
C531 C 0.36882 0.98901 0.44487 0.0
N532 N 0.34753 0.02446 0.42183 0.0
N533 N 0.39655 0.97019 0.67296 0.0
C534 C 0.35485 0.00724 0.48108 0.0
C535 C 0.38018 0.97979 0.61355 0.0
N536 N 0.33307 0.02161 0.61899 0.0
N537 N 0.38683 0.95282 0.47973 0.0
H538 H 0.39975 0.97569 0.74504 0.0
H539 H 0.40853 0.95837 0.647 0.0
H540 H 0.38531 0.94782 0.40575 0.0
H541 H 0.39283 0.94011 0.52702 0.0
H542 H 0.32049 0.02882 0.57347 0.0
H543 H 0.32969 0.02264 0.69429 0.0
H544 H 0.33969 0.03931 0.44879 0.0
H545 H 0.35158 0.02523 0.34843 0.0
C546 C 0.27461 0.1164 0.83329 0.0
C547 C 0.25495 0.12708 0.87364 0.0
C548 C 0.24679 0.14577 0.71607 0.0
C549 C 0.26548 0.13381 0.67391 0.0
N550 N 0.2959 0.10621 0.6862 0.0
N551 N 0.22113 0.15016 0.85497 0.0
C552 C 0.2791 0.11871 0.73105 0.0
C553 C 0.24073 0.14136 0.81537 0.0
N554 N 0.28914 0.1045 0.89383 0.0
N555 N 0.23527 0.16169 0.66123 0.0
H556 H 0.21667 0.14743 0.92813 0.0
H557 H 0.2087 0.15896 0.81468 0.0
H558 H 0.23927 0.16496 0.58802 0.0
H559 H 0.22279 0.17264 0.68935 0.0
H560 H 0.30492 0.09797 0.87196 0.0
H561 H 0.2861 0.10251 0.96883 0.0
H562 H 0.3052 0.09325 0.72065 0.0
H563 H 0.29952 0.10783 0.6115 0.0
C564 C 0.15066 0.98896 0.09431 0.0
C565 C 0.13105 0.99751 0.14294 0.0
C566 C 0.11818 0.01626 0.99078 0.0
C567 C 0.13848 0.0089 0.94414 0.0
N568 N 0.17604 0.99221 0.95494 0.0
N569 N 0.0988 0.02341 0.14491 0.0
C570 C 0.15534 0.99638 0.99706 0.0
C571 C 0.11547 0.01228 0.09312 0.0
N572 N 0.16435 0.97324 0.14028 0.0
N573 N 0.10148 0.02696 0.93669 0.0
H574 H 0.09691 0.02164 0.22069 0.0
H575 H 0.08829 0.03608 0.11498 0.0
H576 H 0.10341 0.03077 0.86233 0.0
H577 H 0.0852 0.03059 0.96342 0.0
H578 H 0.17771 0.96462 0.10555 0.0
H579 H 0.16115 0.9675 0.21132 0.0
H580 H 0.18995 0.98504 0.99243 0.0
H581 H 0.17981 0.99792 0.88458 0.0
C582 C 0.2643 0.90951 0.3505 0.0
C583 C 0.26348 0.88827 0.40017 0.0
C584 C 0.25083 0.86897 0.24738 0.0
C585 C 0.24966 0.89048 0.19985 0.0
N586 N 0.2527 0.93156 0.20699 0.0
N587 N 0.25192 0.84865 0.4022 0.0
C588 C 0.25574 0.91089 0.25173 0.0
C589 C 0.2556 0.86822 0.35026 0.0
N590 N 0.27386 0.92812 0.39729 0.0
N591 N 0.2483 0.84922 0.1931 0.0
H592 H 0.25482 0.84771 0.47804 0.0
H593 H 0.24403 0.8341 0.37204 0.0
H594 H 0.24548 0.84921 0.11705 0.0
H595 H 0.2512 0.83293 0.22158 0.0
H596 H 0.27704 0.94364 0.36277 0.0
H597 H 0.28019 0.92742 0.46952 0.0
H598 H 0.25476 0.94731 0.24309 0.0
H599 H 0.24646 0.93291 0.13484 0.0
C600 C 0.61653 1.00227 0.59881 0.0
C601 C 0.62831 0.0206 0.64749 0.0
C602 C 0.65129 0.02667 0.49968 0.0
C603 C 0.63821 0.00964 0.4488 0.0
N604 N 0.60731 0.98245 0.44475 0.0
N605 N 0.65523 0.05169 0.64388 0.0
C606 C 0.62046 0.99785 0.49702 0.0
C607 C 0.64537 0.03311 0.59786 0.0
N608 N 0.6024 0.98845 0.65137 0.0
N609 N 0.66946 0.03651 0.4539 0.0
H610 H 0.65104 0.0567 0.71547 0.0
H611 H 0.66626 0.06302 0.60954 0.0
H612 H 0.67341 0.03298 0.38054 0.0
H613 H 0.68136 0.04712 0.48969 0.0
H614 H 0.59509 0.9734 0.62336 0.0
H615 H 0.59939 0.99095 0.72621 0.0
H616 H 0.59238 0.97513 0.47144 0.0
H617 H 0.61065 0.97795 0.37171 0.0
C618 C 0.73224 0.90148 0.30852 0.0
C619 C 0.74528 0.88623 0.36736 0.0
C620 C 0.77057 0.87794 0.2282 0.0
C621 C 0.75679 0.89222 0.16794 0.0
N622 N 0.72374 0.91631 0.14509 0.0
N623 N 0.77522 0.85816 0.38415 0.0
C624 C 0.73736 0.90366 0.20667 0.0
C625 C 0.76409 0.87399 0.32743 0.0
N626 N 0.71535 0.91424 0.35152 0.0
N627 N 0.7901 0.8686 0.19027 0.0
H628 H 0.77084 0.85513 0.45714 0.0
H629 H 0.78781 0.84709 0.358 0.0
H630 H 0.7948 0.87091 0.11712 0.0
H631 H 0.80227 0.85975 0.23181 0.0
H632 H 0.70628 0.92719 0.31604 0.0
H633 H 0.71132 0.91273 0.42586 0.0
H634 H 0.7081 0.92345 0.16515 0.0
H635 H 0.72756 0.91863 0.071 0.0
C636 C 0.88211 0.99201 0.06296 0.0
C637 C 0.86778 0.00535 0.12454 0.0
C638 C 0.85754 0.03008 0.98525 0.0
C639 C 0.87282 0.01747 0.92504 0.0
N640 N 0.90163 0.98833 0.90628 0.0
N641 N 0.8432 0.03793 0.14989 0.0
C642 C 0.88562 0.99887 0.96385 0.0
C643 C 0.85586 0.02468 0.08712 0.0
N644 N 0.89195 0.97255 0.09956 0.0
N645 N 0.84429 0.04681 0.94357 0.0
H646 H 0.84122 0.0339 0.22397 0.0
H647 H 0.83573 0.05351 0.13077 0.0
H648 H 0.84542 0.05102 0.86926 0.0
H649 H 0.83129 0.05553 0.98013 0.0
H650 H 0.90084 0.96064 0.05692 0.0
H651 H 0.89003 0.96762 0.17268 0.0
H652 H 0.91309 0.97597 0.93171 0.0
H653 H 0.90444 0.99303 0.83349 0.0
C654 C 0.75988 0.14677 0.66849 0.0
C655 C 0.74176 0.13459 0.62028 0.0
C656 C 0.73632 0.11156 0.7687 0.0
C657 C 0.75318 0.12497 0.81902 0.0
N658 N 0.77978 0.15639 0.82207 0.0
N659 N 0.71129 0.107 0.62465 0.0
C660 C 0.76456 0.14293 0.77027 0.0
C661 C 0.72966 0.11729 0.67041 0.0
N662 N 0.77328 0.16122 0.61548 0.0
N663 N 0.72684 0.09327 0.81516 0.0
H664 H 0.70616 0.11102 0.55293 0.0
H665 H 0.70023 0.09572 0.65921 0.0
H666 H 0.73053 0.08945 0.88858 0.0
H667 H 0.71635 0.08118 0.77997 0.0
H668 H 0.7882 0.16887 0.64306 0.0
H669 H 0.77055 0.1642 0.54069 0.0
H670 H 0.78679 0.17145 0.79501 0.0
H671 H 0.78443 0.15315 0.8951 0.0
C672 C 0.87997 0.48519 0.05763 0.0
C673 C 0.86949 0.50612 0.08619 0.0
C674 C 0.86547 0.51602 0.91169 0.0
C675 C 0.87333 0.4937 0.8838 0.0
N676 N 0.87992 0.45474 0.93605 0.0
N677 N 0.849 0.54027 0.03546 0.0
C678 C 0.87781 0.4775 0.95879 0.0
C679 C 0.86081 0.52085 1.01208 0.0
N680 N 0.8941 0.47383 0.12124 0.0
N681 N 0.86359 0.53327 0.84505 0.0
H682 H 0.84447 0.54476 0.10732 0.0
H683 H 0.84447 0.54476 0.10732 0.0
H684 H 0.87043 0.5323 0.77481 0.0
H685 H 0.85733 0.54949 0.86437 0.0
H686 H 0.90351 0.4594 0.09997 0.0
H687 H 0.89852 0.48041 0.19062 0.0
H688 H 0.88194 0.44228 0.99009 0.0
H689 H 0.87685 0.44831 0.86499 0.0
C690 C 0.74159 0.63618 0.28286 0.0
C691 C 0.75625 0.6234 0.34562 0.0
C692 C 0.78195 0.61539 0.20748 0.0
C693 C 0.76785 0.62905 0.14587 0.0
N694 N 0.73613 0.65496 0.12504 0.0
N695 N 0.7916 0.60316 0.37359 0.0
C696 C 0.74812 0.64013 0.18366 0.0
C697 C 0.77685 0.6137 0.3095 0.0
N698 N 0.72126 0.64419 0.31851 0.0
N699 N 0.79978 0.60352 0.16701 0.0
H700 H 0.78802 0.6015 0.44813 0.0
H701 H 0.80793 0.5975 0.355 0.0
H702 H 0.80379 0.60461 0.0925 0.0
H703 H 0.8096 0.59148 0.20488 0.0
H704 H 0.70855 0.6517 0.27501 0.0
H705 H 0.7166 0.64217 0.39188 0.0
H706 H 0.72277 0.66527 0.14975 0.0
H707 H 0.74063 0.65811 0.0523 0.0
C708 C 0.62013 0.51513 0.58605 0.0
C709 C 0.63235 0.4966 0.62896 0.0
C710 C 0.6501 0.48783 0.4704 0.0
C711 C 0.63921 0.50734 0.4294 0.0
N712 N 0.61521 0.54059 0.44662 0.0
N713 N 0.66018 0.46642 0.61771 0.0
C714 C 0.62461 0.52132 0.48706 0.0
C715 C 0.64772 0.48325 0.57256 0.0
N716 N 0.60378 0.52631 0.63954 0.0
N717 N 0.66226 0.47346 0.41061 0.0
H718 H 0.65818 0.46248 0.69193 0.0
H719 H 0.67336 0.45734 0.58398 0.0
H720 H 0.66447 0.47674 0.3361 0.0
H721 H 0.66871 0.45764 0.4326 0.0
H722 H 0.5926 0.53849 0.61048 0.0
H723 H 0.60032 0.52234 0.7125 0.0
H724 H 0.60637 0.55301 0.48668 0.0
H725 H 0.61729 0.54479 0.37277 0.0
C726 C 0.76253 0.40864 0.74085 0.0
C727 C 0.75294 0.38964 0.68861 0.0
C728 C 0.75493 0.36665 0.83879 0.0
C729 C 0.76621 0.38497 0.88897 0.0
N730 N 0.78361 0.42227 0.88616 0.0
N731 N 0.745 0.3491 0.6813 0.0
C732 C 0.7708 0.40571 0.83943 0.0
C733 C 0.7505 0.36821 0.73586 0.0
N734 N 0.76306 0.42959 0.69684 0.0
N735 N 0.74776 0.34806 0.8904 0.0
H736 H 0.7427 0.34944 0.60502 0.0
H737 H 0.7451 0.33259 0.70994 0.0
H738 H 0.75037 0.3466 0.96622 0.0
H739 H 0.73738 0.33519 0.85991 0.0
H740 H 0.76789 0.44467 0.73338 0.0
H741 H 0.757 0.43211 0.62509 0.0
H742 H 0.78954 0.43694 0.85159 0.0
H743 H 0.78977 0.42043 0.95822 0.0
C744 C 0.15115 0.5279 1.01472 0.0
C745 C 0.13804 0.51056 0.96571 0.0
C746 C 0.117 0.50343 0.11803 0.0
C747 C 0.12927 0.52155 0.16527 0.0
N748 N 0.15634 0.55243 0.15996 0.0
N749 N 0.10772 0.4827 0.96586 0.0
C750 C 0.14598 0.53411 0.11393 0.0
C751 C 0.12067 0.49862 1.01616 0.0
N752 N 0.16865 0.53823 0.96617 0.0
N753 N 0.10237 0.49047 0.17214 0.0
H754 H 0.1109 0.47805 0.89284 0.0
H755 H 0.09327 0.47484 0.99419 0.0
H756 H 0.09937 0.49379 0.24659 0.0
H757 H 0.09424 0.4757 0.14584 0.0
H758 H 0.18058 0.54914 0.99986 0.0
H759 H 0.17189 0.53513 0.89186 0.0
H760 H 0.16717 0.56387 0.12516 0.0
H761 H 0.15297 0.557 0.23293 0.0
C762 C 0.24674 0.41215 0.85305 0.0
C763 C 0.24832 0.39105 0.9035 0.0
C764 C 0.26162 0.37192 0.75291 0.0
C765 C 0.26183 0.39334 0.70465 0.0
N766 N 0.25769 0.43433 0.71043 0.0
N767 N 0.26143 0.35191 0.90846 0.0
C768 C 0.25521 0.41364 0.75528 0.0
C769 C 0.25695 0.3712 0.8553 0.0
N770 N 0.23656 0.43052 0.89803 0.0
N771 N 0.26505 0.35219 0.69973 0.0
H772 H 0.25862 0.35102 0.98401 0.0
H773 H 0.26987 0.3376 0.87981 0.0
H774 H 0.26798 0.35217 0.62408 0.0
H775 H 0.26289 0.33585 0.72848 0.0
H776 H 0.23283 0.44584 0.86249 0.0
H777 H 0.23028 0.42976 0.96956 0.0
H778 H 0.25513 0.45005 0.74581 0.0
H779 H 0.26408 0.43573 0.63933 0.0
C780 C 0.35789 0.52575 0.57415 0.0
C781 C 0.36914 0.5059 0.61055 0.0
C782 C 0.38665 0.49932 0.44907 0.0
C783 C 0.37431 0.51834 0.41119 0.0
N784 N 0.34658 0.54835 0.43165 0.0
N785 N 0.39235 0.47248 0.58328 0.0
C786 C 0.35949 0.53123 0.47233 0.0
C787 C 0.38297 0.49228 0.54787 0.0
N788 N 0.34598 0.53945 0.63779 0.0
N789 N 0.40246 0.4886 0.39109 0.0
H790 H 0.39057 0.4675 0.6564 0.0
H791 H 0.40073 0.46039 0.53965 0.0
H792 H 0.40545 0.4935 0.31871 0.0
H793 H 0.41363 0.47593 0.41597 0.0
H794 H 0.33901 0.5553 0.61932 0.0
H795 H 0.34426 0.53549 0.71193 0.0
H796 H 0.33382 0.55727 0.4689 0.0
H797 H 0.34771 0.55268 0.35746 0.0
C798 C 0.26056 0.64763 0.18866 0.0
C799 C 0.24233 0.63559 0.14112 0.0
C800 C 0.23587 0.61351 0.29128 0.0
C801 C 0.25326 0.62647 0.34076 0.0
N802 N 0.28135 0.65657 0.34111 0.0
N803 N 0.21128 0.60871 0.14584 0.0
C804 C 0.26534 0.6438 0.29056 0.0
C805 C 0.22967 0.61887 0.1921 0.0
N806 N 0.27368 0.66217 0.1348 0.0
N807 N 0.22545 0.59597 0.33934 0.0
H808 H 0.20671 0.61224 0.07294 0.0
H809 H 0.19977 0.59792 0.18043 0.0
H810 H 0.22853 0.59259 0.41359 0.0
H811 H 0.21451 0.58412 0.30523 0.0
H812 H 0.28854 0.67011 0.16131 0.0
H813 H 0.27042 0.66526 0.06033 0.0
H814 H 0.28931 0.67102 0.31301 0.0
H815 H 0.28602 0.65324 0.41405 0.0
C816 C 0.34912 0.08671 0.14597 0.0
C817 C 0.3478 0.06356 0.17585 0.0
C818 C 0.31291 0.07231 0.26464 0.0
C819 C 0.31176 0.09461 0.22376 0.0
N820 N 0.32696 0.11995 0.0983 0.0
N821 N 0.32166 0.03346 0.22004 0.0
C822 C 0.32942 0.1012 0.15697 0.0
C823 C 0.32765 0.05601 0.22195 0.0
N824 N 0.36878 0.09474 0.1054 0.0
N825 N 0.30083 0.06659 0.34625 0.0
H826 H 0.3308 0.0215 0.17897 0.0
H827 H 0.30622 0.02759 0.24855 0.0
H828 H 0.2927 0.07876 0.39059 0.0
H829 H 0.30197 0.05034 0.37751 0.0
H830 H 0.37138 0.11207 0.09083 0.0
H831 H 0.38302 0.08424 0.09332 0.0
H832 H 0.33868 0.12402 0.04393 0.0
H833 H 0.31202 0.12964 0.09338 0.0
C834 C 0.18218 0.06284 0.40143 0.0
C835 C 0.15836 0.06832 0.40239 0.0
C836 C 0.16784 0.10792 0.35228 0.0
C837 C 0.19117 0.10153 0.33878 0.0
N838 N 0.21998 0.07148 0.34181 0.0
N839 N 0.12831 0.09612 0.37698 0.0
C840 C 0.19826 0.07877 0.36282 0.0
C841 C 0.15118 0.09091 0.37726 0.0
N842 N 0.18973 0.04214 0.43565 0.0
N843 N 0.16182 0.13053 0.34533 0.0
H844 H 0.11587 0.08492 0.40292 0.0
H845 H 0.12152 0.11109 0.34723 0.0
H846 H 0.17367 0.14341 0.33048 0.0
H847 H 0.14571 0.1369 0.36337 0.0
H848 H 0.20686 0.03879 0.45296 0.0
H849 H 0.179 0.02858 0.45258 0.0
H850 H 0.22495 0.05431 0.34189 0.0
H851 H 0.23289 0.08206 0.31687 0.0
C852 C 0.17958 0.91226 0.5889 0.0
C853 C 0.19195 0.91444 0.67966 0.0
C854 C 0.184 0.95584 0.6816 0.0
C855 C 0.16911 0.95324 0.59879 0.0
N856 N 0.15085 0.92836 0.47803 0.0
N857 N 0.20035 0.93757 0.82465 0.0
C858 C 0.16617 0.93119 0.55427 0.0
C859 C 0.1926 0.93604 0.72927 0.0
N860 N 0.18168 0.89278 0.53269 0.0
N861 N 0.19022 0.97714 0.71536 0.0
H862 H 0.20521 0.92327 0.86526 0.0
H863 H 0.19927 0.95256 0.86697 0.0
H864 H 0.18374 0.99236 0.68684 0.0
H865 H 0.20362 0.97961 0.76606 0.0
H866 H 0.17503 0.89122 0.46129 0.0
H867 H 0.19185 0.8789 0.55349 0.0
H868 H 0.14602 0.91232 0.45013 0.0
H869 H 0.142 0.94205 0.44623 0.0
C870 C 0.3222 0.96001 0.89892 0.0
C871 C 0.33587 0.95462 0.98312 0.0
C872 C 0.32185 0.91488 0.97424 0.0
C873 C 0.30919 0.92046 0.88682 0.0
N874 N 0.30685 0.94502 0.74561 0.0
N875 N 0.35176 0.92609 0.09181 0.0
C876 C 0.31252 0.94196 0.84266 0.0
C877 C 0.3368 0.93172 1.01743 0.0
N878 N 0.31792 0.98218 0.87222 0.0
N879 N 0.31922 0.89413 1.01859 0.0
H880 H 0.36154 0.93827 0.13059 0.0
H881 H 0.35539 0.90923 0.11155 0.0
H882 H 0.3106 0.88028 0.98684 0.0
H883 H 0.32512 0.8908 0.0898 0.0
H884 H 0.30634 0.98634 0.81593 0.0
H885 H 0.32391 0.99652 0.91077 0.0
H886 H 0.31081 0.95995 0.70775 0.0
H887 H 0.30093 0.93155 0.70057 0.0
C888 C 0.69739 0.94661 0.79618 0.0
C889 C 0.69978 0.92422 0.83545 0.0
C890 C 0.66481 0.93153 0.93184 0.0
C891 C 0.66506 0.95475 0.90265 0.0
N892 N 0.68851 0.98546 0.84297 0.0
N893 N 0.68821 0.8983 0.96592 0.0
C894 C 0.6834 0.96268 0.84546 0.0
C895 C 0.68412 0.91729 0.9102 0.0
N896 N 0.70756 0.95255 0.71015 0.0
N897 N 0.64645 0.92315 0.98124 0.0
H898 H 0.70318 0.88866 0.96267 0.0
H899 H 0.67811 0.89397 0.02565 0.0
H900 H 0.63259 0.93345 1.00149 0.0
H901 H 0.64438 0.90572 0.99547 0.0
H902 H 0.705 0.9686 0.67831 0.0
H903 H 0.71553 0.94064 0.66403 0.0
H904 H 0.70251 0.9918 0.80472 0.0
H905 H 0.6813 0.99699 0.893 0.0
C906 C 0.83553 0.92426 0.75356 0.0
C907 C 0.82174 0.90878 0.69611 0.0
C908 C 0.83764 0.92537 0.54473 0.0
C909 C 0.85207 0.94024 0.60228 0.0
N910 N 0.86857 0.94951 0.76161 0.0
N911 N 0.81404 0.89106 0.53777 0.0
C912 C 0.85211 0.93837 0.70671 0.0
C913 C 0.82413 0.90832 0.59192 0.0
N914 N 0.83213 0.9265 0.85266 0.0
N915 N 0.83582 0.92815 0.44506 0.0
H916 H 0.80448 0.87807 0.56952 0.0
H917 H 0.81705 0.88824 0.46313 0.0
H918 H 0.84564 0.93976 0.40617 0.0
H919 H 0.8233 0.92011 0.40143 0.0
H920 H 0.83924 0.93971 0.89549 0.0
H921 H 0.82089 0.91629 0.89165 0.0
H922 H 0.87119 0.94691 0.83674 0.0
H923 H 0.88119 0.95958 0.73034 0.0
C924 C 0.81279 0.0646 0.47526 0.0
C925 C 0.83594 0.06232 0.44487 0.0
C926 C 0.83071 0.09785 0.34911 0.0
C927 C 0.807 0.09762 0.36931 0.0
N928 N 0.77503 0.07402 0.4149 0.0
N929 N 0.86405 0.07413 0.32347 0.0
C930 C 0.79783 0.07893 0.42108 0.0
C931 C 0.8443 0.07825 0.3737 0.0
N932 N 0.80506 0.05422 0.55809 0.0
N933 N 0.84022 0.11642 0.30499 0.0
H934 H 0.8732 0.05886 0.3272 0.0
H935 H 0.86952 0.08455 0.26649 0.0
H936 H 0.83047 0.1305 0.28233 0.0
H937 H 0.85788 0.11838 0.29756 0.0
H938 H 0.78841 0.05671 0.58343 0.0
H939 H 0.81594 0.04625 0.60878 0.0
H940 H 0.7679 0.05976 0.44878 0.0
H941 H 0.76437 0.08194 0.36317 0.0
C942 C 0.68138 0.0903 0.23472 0.0
C943 C 0.69383 0.10188 0.16171 0.0
C944 C 0.67254 0.08146 0.03131 0.0
C945 C 0.66096 0.06902 0.10432 0.0
N946 N 0.64763 0.06815 0.27214 0.0
N947 N 0.69467 0.11523 0.99383 0.0
C948 C 0.66315 0.07554 0.2052 0.0
C949 C 0.6873 0.09969 0.06081 0.0
N950 N 0.6871 0.0933 0.33205 0.0
N951 N 0.66955 0.07573 0.934 0.0
H952 H 0.70405 0.1297 1.01404 0.0
H953 H 0.68903 0.11546 0.92071 0.0
H954 H 0.65748 0.06366 0.90955 0.0
H955 H 0.6796 0.08227 0.87807 0.0
H956 H 0.68055 0.08327 0.38805 0.0
H957 H 0.69917 0.10537 0.35651 0.0
H958 H 0.64739 0.07383 0.34516 0.0
H959 H 0.6332 0.0587 0.25205 0.0
C960 C 0.80797 0.57232 0.59905 0.0
C961 C 0.81156 0.58904 0.67489 0.0
C962 C 0.85294 0.57999 0.67484 0.0
C963 C 0.84938 0.56509 0.59237 0.0
N964 N 0.82439 0.55274 0.45887 0.0
N965 N 0.83787 0.61017 0.78069 0.0
C966 C 0.82713 0.56287 0.54974 0.0
C967 C 0.83423 0.59343 0.71085 0.0
N968 N 0.78635 0.56522 0.57345 0.0
N969 N 0.87381 0.58045 0.72204 0.0
H970 H 0.82456 0.61875 0.81598 0.0
H971 H 0.85409 0.61627 0.8006 0.0
H972 H 0.88777 0.57064 0.69923 0.0
H973 H 0.87682 0.58897 0.78882 0.0
H974 H 0.78318 0.5513 0.52625 0.0
H975 H 0.77159 0.57162 0.60555 0.0
H976 H 0.80888 0.55275 0.41971 0.0
H977 H 0.83814 0.54682 0.41724 0.0
C978 C 0.69891 0.57639 0.83982 0.0
C979 C 0.69251 0.59954 0.81944 0.0
C980 C 0.65261 0.59024 0.86494 0.0
C981 C 0.65925 0.56738 0.88817 0.0
N982 N 0.69015 0.54028 0.91575 0.0
N983 N 0.6644 0.62961 0.83497 0.0
C984 C 0.68282 0.56111 0.88234 0.0
C985 C 0.66963 0.60675 0.83824 0.0
N986 N 0.71983 0.56811 0.8117 0.0
N987 N 0.62997 0.59624 0.86837 0.0
H988 H 0.67655 0.64214 0.81943 0.0
H989 H 0.64875 0.63641 0.85701 0.0
H990 H 0.61736 0.58537 0.89537 0.0
H991 H 0.6235 0.61152 0.84029 0.0
H992 H 0.7239 0.5507 0.80989 0.0
H993 H 0.7327 0.57799 0.78187 0.0
H994 H 0.70737 0.53644 0.92907 0.0
H995 H 0.67925 0.5272 0.93638 0.0
C996 C 0.68836 0.45736 0.16394 0.0
C997 C 0.67227 0.45385 0.08562 0.0
C998 C 0.6829 0.41292 0.08025 0.0
C999 C 0.69626 0.41596 0.16793 0.0
N1000 N 0.70704 0.44056 0.30557 0.0
N1001 N 0.65296 0.42783 0.97251 0.0
C1002 C 0.69776 0.43806 0.21296 0.0
C1003 C 0.66903 0.43143 0.0453 0.0
N1004 N 0.69477 0.47901 0.19265 0.0
N1005 N 0.6845 0.39295 0.02691 0.0
H1006 H 0.64386 0.44116 0.93926 0.0
H1007 H 0.64786 0.41153 0.94871 0.0
H1008 H 0.69514 0.37939 0.04743 0.0
H1009 H 0.67703 0.39067 0.95731 0.0
H1010 H 0.7084 0.48222 0.24138 0.0
H1011 H 0.68801 0.49388 0.16238 0.0
H1012 H 0.70688 0.45598 0.34521 0.0
H1013 H 0.71248 0.42673 0.34783 0.0
C1014 C 0.8289 0.4231 0.2853 0.0
C1015 C 0.81684 0.41109 0.35837 0.0
C1016 C 0.83908 0.43051 0.48758 0.0
C1017 C 0.84998 0.44364 0.41466 0.0
N1018 N 0.86404 0.44297 0.24889 0.0
N1019 N 0.82008 0.39456 0.52019 0.0
C1020 C 0.84776 0.43695 0.31459 0.0
C1021 C 0.82491 0.4119 0.45724 0.0
N1022 N 0.82232 0.42153 0.18857 0.0
N1023 N 0.84216 0.43579 0.58508 0.0
H1024 H 0.81185 0.37958 0.49626 0.0
H1025 H 0.82679 0.39381 0.59168 0.0
H1026 H 0.85361 0.44842 0.60968 0.0
H1027 H 0.83261 0.42821 0.64035 0.0
H1028 H 0.82908 0.43198 0.13432 0.0
H1029 H 0.8094 0.41045 0.16374 0.0
H1030 H 0.86399 0.43714 0.17598 0.0
H1031 H 0.87906 0.45119 0.27183 0.0
C1032 C 0.19111 0.46139 0.47734 0.0
C1033 C 0.16818 0.45292 0.47764 0.0
C1034 C 0.18084 0.41969 0.37849 0.0
C1035 C 0.20417 0.42646 0.39223 0.0
N1036 N 0.23106 0.45116 0.48109 0.0
N1037 N 0.14151 0.42271 0.43415 0.0
C1038 C 0.20919 0.44659 0.4487 0.0
C1039 C 0.16318 0.43154 0.43074 0.0
N1040 N 0.19606 0.48361 0.50314 0.0
N1041 N 0.17531 0.40289 0.31123 0.0
H1042 H 0.12779 0.43159 0.46515 0.0
H1043 H 0.13749 0.40602 0.41145 0.0
H1044 H 0.18744 0.39484 0.26709 0.0
H1045 H 0.15849 0.39874 0.29126 0.0
H1046 H 0.21216 0.49089 0.49254 0.0
H1047 H 0.18398 0.49563 0.52488 0.0
H1048 H 0.23488 0.46419 0.53203 0.0
H1049 H 0.24504 0.44055 0.46772 0.0
C1050 C 0.33404 0.42732 0.23902 0.0
C1051 C 0.32253 0.41016 0.18182 0.0
C1052 C 0.34105 0.42485 0.03267 0.0
C1053 C 0.35377 0.44107 0.09125 0.0
N1054 N 0.36651 0.45313 0.25346 0.0
N1055 N 0.31759 0.39032 0.02617 0.0
C1056 C 0.35141 0.44096 0.1954 0.0
C1057 C 0.32698 0.40814 0.07939 0.0
N1058 N 0.32813 0.43099 0.33495 0.0
N1059 N 0.34118 0.42614 0.93217 0.0
H1060 H 0.30628 0.37852 0.0561 0.0
H1061 H 0.32225 0.38624 0.95426 0.0
H1062 H 0.35123 0.43764 0.89383 0.0
H1063 H 0.32995 0.41697 0.88625 0.0
H1064 H 0.33395 0.44498 0.37682 0.0
H1065 H 0.31589 0.4212 0.37035 0.0
H1066 H 0.36716 0.45201 0.33 0.0
H1067 H 0.38007 0.46241 0.22462 0.0
C1068 C 0.33203 0.60225 0.87915 0.0
C1069 C 0.31053 0.59714 0.83356 0.0
C1070 C 0.31594 0.5564 0.87263 0.0
C1071 C 0.3365 0.56164 0.92583 0.0
N1072 N 0.36072 0.59085 1.0003 0.0
N1073 N 0.27929 0.56967 0.81389 0.0
C1074 C 0.34367 0.58496 0.93465 0.0
C1075 C 0.30155 0.57444 0.83954 0.0
N1076 N 0.3412 0.62371 0.87115 0.0
N1077 N 0.31065 0.53426 0.84649 0.0
H1078 H 0.26777 0.58154 0.78581 0.0
H1079 H 0.27149 0.55406 0.82969 0.0
H1080 H 0.32109 0.5203 0.86185 0.0
H1081 H 0.29732 0.53002 0.79762 0.0
H1082 H 0.35797 0.62768 0.89274 0.0
H1083 H 0.33251 0.63725 0.83755 0.0
H1084 H 0.36525 0.60778 1.01659 0.0
H1085 H 0.36855 0.57904 0.04705 0.0
C1086 C 0.16191 0.57846 0.72756 0.0
C1087 C 0.15949 0.57168 0.6273 0.0
C1088 C 0.18554 0.60231 0.57967 0.0
C1089 C 0.19226 0.60483 0.68002 0.0
N1090 N 0.18565 0.59754 0.85165 0.0
N1091 N 0.16675 0.57832 0.45568 0.0
C1092 C 0.17986 0.59377 0.75482 0.0
C1093 C 0.17043 0.58419 0.55247 0.0
N1094 N 0.14708 0.57047 0.79614 0.0
N1095 N 0.19342 0.61718 0.51089 0.0
H1096 H 0.15443 0.5663 0.4332 0.0
H1097 H 0.17636 0.58474 0.39808 0.0
H1098 H 0.20415 0.6309 0.52846 0.0
H1099 H 0.18742 0.61745 0.4383 0.0
H1100 H 0.14674 0.57645 0.8687 0.0
H1101 H 0.13344 0.55965 0.77831 0.0
H1102 H 0.17931 0.58787 0.90927 0.0
H1103 H 0.19752 0.61 0.87414 0.0
C1104 C 0.48973 0.98923 0.10142 0.0
C1105 C 0.48068 1.00344 0.0258 0.0
C1106 C 0.51907 0.00758 0.95654 0.0
C1107 C 0.52836 0.99528 0.03762 0.0
N1108 N 0.52336 0.97573 0.19106 0.0
N1109 N 0.48631 0.0276 0.88547 0.0
C1110 C 0.51388 0.98634 0.11084 0.0
C1111 C 0.49524 0.01295 0.95411 0.0
N1112 N 0.47518 0.97811 0.16298 0.0
N1113 N 0.53312 0.01399 0.88176 0.0
H1114 H 0.46887 0.03154 0.8807 0.0
H1115 H 0.4962 0.0371 0.83747 0.0
H1116 H 0.55069 0.01061 0.88196 0.0
H1117 H 0.52726 0.02104 0.81598 0.0
H1118 H 0.48041 0.96547 0.21197 0.0
H1119 H 0.45745 0.98039 0.1608 0.0
H1120 H 0.51417 0.97144 0.25343 0.0
H1121 H 0.54087 0.97222 0.19758 0.0
C1122 C 0.27075 0.27088 0.34179 0.0
C1123 C 0.25641 0.2852 0.28345 0.0
C1124 C 0.23609 0.25101 0.21855 0.0
C1125 C 0.24949 0.23689 0.28162 0.0
N1126 N 0.27674 0.23355 0.41578 0.0
N1127 N 0.22282 0.28941 0.17935 0.0
C1128 C 0.26596 0.24693 0.34712 0.0
C1129 C 0.23834 0.2754 0.22536 0.0
N1130 N 0.28948 0.28008 0.38942 0.0
N1131 N 0.22172 0.24108 0.15002 0.0
H1132 H 0.22393 0.30728 0.18193 0.0
H1133 H 0.20785 0.28345 0.14505 0.0
H1134 H 0.2191 0.22338 0.14515 0.0
H1135 H 0.21356 0.25017 0.09399 0.0
H1136 H 0.30202 0.27027 0.4245 0.0
H1137 H 0.2936 0.29749 0.38671 0.0
H1138 H 0.28713 0.24012 0.47237 0.0
H1139 H 0.27367 0.21597 0.42169 0.0
C1140 C 0.01279 0.02086 0.63362 0.0
C1141 C 0.02662 0.01151 0.55763 0.0
C1142 C 0.99232 0.99411 0.47929 0.0
C1143 C 0.97831 0.00491 0.55098 0.0
N1144 N 0.9746 0.03076 0.68983 0.0
N1145 N 0.02965 0.99124 0.40246 0.0
C1146 C 0.98841 0.01883 0.62665 0.0
C1147 C 0.01638 0.99871 0.47877 0.0
N1148 N 0.02306 0.03131 0.71345 0.0
N1149 N 0.98262 0.97897 0.41319 0.0
H1150 H 0.04737 0.99368 0.40074 0.0
H1151 H 0.02305 0.98408 0.33747 0.0
H1152 H 0.9651 0.9753 0.41144 0.0
H1153 H 0.992 0.96864 0.36535 0.0
H1154 H 0.01433 0.03606 0.77692 0.0
H1155 H 0.04072 0.03401 0.71893 0.0
H1156 H 0.98059 0.04328 0.73908 0.0
H1157 H 0.95677 0.02924 0.6889 0.0
C1158 C 0.27837 0.75105 0.70749 0.0
C1159 C 0.26538 0.73606 0.76638 0.0
C1160 C 0.24171 0.76829 0.82309 0.0
C1161 C 0.25541 0.7835 0.76819 0.0
N1162 N 0.28931 0.79026 0.67248 0.0
N1163 N 0.23761 0.73049 0.8938 0.0
C1164 C 0.27449 0.77514 0.71433 0.0
C1165 C 0.24801 0.74477 0.8288 0.0
N1166 N 0.29392 0.74215 0.64297 0.0
N1167 N 0.22219 0.77623 0.86678 0.0
H1168 H 0.24169 0.71311 0.89933 0.0
H1169 H 0.22645 0.73617 0.94815 0.0
H1170 H 0.21695 0.79333 0.86319 0.0
H1171 H 0.21015 0.76562 0.89919 0.0
H1172 H 0.3019 0.75181 0.5892 0.0
H1173 H 0.29795 0.7247 0.63977 0.0
H1174 H 0.30485 0.78537 0.64168 0.0
H1175 H 0.28694 0.808 0.67483 0.0
C1176 C 0.74235 0.74593 0.67953 0.0
C1177 C 0.75243 0.73248 0.75535 0.0
C1178 C 0.76857 0.76749 0.83354 0.0
C1179 C 0.75841 0.78095 0.75782 0.0
N1180 N 0.73342 0.78382 0.61562 0.0
N1181 N 0.77678 0.7296 0.89952 0.0
C1182 C 0.7448 0.77035 0.68231 0.0
C1183 C 0.76587 0.74308 0.83147 0.0
N1184 N 0.73102 0.73518 0.60303 0.0
N1185 N 0.78029 0.77826 0.90895 0.0
H1186 H 0.77452 0.71185 0.90249 0.0
H1187 H 0.78882 0.73556 0.95085 0.0
H1188 H 0.78361 0.79586 0.91 0.0
H1189 H 0.78603 0.77019 0.9726 0.0
H1190 H 0.72562 0.74333 0.53902 0.0
H1191 H 0.72791 0.71754 0.60114 0.0
H1192 H 0.7211 0.77774 0.56568 0.0
H1193 H 0.73535 0.8016 0.61326 0.0
C1194 C 0.7758 0.25092 0.17752 0.0
C1195 C 0.76399 0.23512 0.23703 0.0
C1196 C 0.74087 0.2664 0.3065 0.0
C1197 C 0.75357 0.28242 0.25141 0.0
N1198 N 0.7863 0.29057 0.15019 0.0
N1199 N 0.73888 0.22801 0.37288 0.0
C1200 C 0.77196 0.27488 0.19122 0.0
C1201 C 0.74767 0.24298 0.30637 0.0
N1202 N 0.79019 0.24298 0.10615 0.0
N1203 N 0.72181 0.27345 0.35607 0.0
H1204 H 0.74371 0.21078 0.37539 0.0
H1205 H 0.72859 0.23307 0.43139 0.0
H1206 H 0.71613 0.29044 0.3566 0.0
H1207 H 0.71046 0.26221 0.38915 0.0
H1208 H 0.79715 0.25342 0.05243 0.0
H1209 H 0.7941 0.22561 0.09704 0.0
H1210 H 0.80138 0.28609 0.11448 0.0
H1211 H 0.78422 0.30826 0.15877 0.0
C1212 C 0.99002 0.48858 0.57894 0.0
C1213 C 0.98162 0.50701 0.52083 0.0
C1214 C 0.02058 0.51484 0.46432 0.0
C1215 C 0.0292 0.49798 0.52991 0.0
N1216 N 0.02289 0.47019 0.65652 0.0
N1217 N 0.98872 0.53943 0.41718 0.0
C1218 C 0.01411 0.48516 0.58894 0.0
C1219 C 0.99687 0.52058 0.46564 0.0
N1220 N 0.97494 0.47391 0.62195 0.0
N1221 N 0.03513 0.52524 0.40044 0.0
H1222 H 0.97145 0.54415 0.41707 0.0
H1223 H 0.99919 0.55147 0.38394 0.0
H1224 H 0.05265 0.52166 0.39834 0.0
H1225 H 0.02965 0.53597 0.344 0.0
H1226 H 0.97987 0.45869 0.65568 0.0
H1227 H 0.95719 0.47606 0.61808 0.0
H1228 H 0.0131 0.46245 0.71046 0.0
H1229 H 0.04036 0.46642 0.66213 0.0
C1230 C 0.49334 0.4952 0.96294 0.0
C1231 C 0.47945 0.50557 0.0362 0.0
C1232 C 0.51412 0.52053 0.12075 0.0
C1233 C 0.52782 0.51164 0.04343 0.0
N1234 N 0.53052 0.49302 0.8845 0.0
N1235 N 0.47606 0.53068 0.17777 0.0
C1236 C 0.5174 0.49969 0.9626 0.0
C1237 C 0.48971 0.5189 0.11341 0.0
N1238 N 0.48354 0.48052 0.89519 0.0
N1239 N 0.52451 0.53008 0.20234 0.0
H1240 H 0.4582 0.52955 0.17619 0.0
H1241 H 0.48227 0.54278 0.22848 0.0
H1242 H 0.54223 0.53233 0.20854 0.0
H1243 H 0.5158 0.53442 0.26638 0.0
H1244 H 0.49289 0.47048 0.84608 0.0
H1245 H 0.46602 0.47688 0.89336 0.0
H1246 H 0.52375 0.48648 0.81859 0.0
H1247 H 0.5482 0.49567 0.8823 0.0
loop_
_geom_bond_atom_site_label_1
_geom_bond_atom_site_label_2
_geom_bond_distance
_geom_bond_site_symmetry_2
_ccdc_geom_bond_type
Co0 N4 2.155 1_554 S
Co0 N10 2.123 1_545 S
Co0 N20 2.195 1_554 S
Co0 O25 2.330 1_544 S
Co0 O26 2.141 1_544 S
Co0 O27 2.111 . S
C1 N4 1.326 . S
C1 N5 1.355 . S
C1 H6 0.884 1_545 S
C2 C3 1.333 . S
C2 N4 1.317 . S
C2 H7 0.930 . S
C3 C2 1.333 . S
C3 N5 1.350 . S
C3 H29 0.931 . S
N4 Co0 2.155 1_556 S
N4 C1 1.326 . S
N4 C2 1.317 . S
N5 C1 1.355 . S
N5 C3 1.350 . S
H6 C1 0.884 1_565 S
H7 C2 0.930 . S
C8 O9 1.224 . S
C8 O27 1.247 . S
O9 C8 1.224 . S
N10 Co0 2.123 1_565 S
N10 C11 1.355 . S
N10 C13 1.311 1_565 S
C11 N10 1.355 . S
C11 C12 1.363 . S
C11 H23 0.929 . S
C12 C11 1.363 . S
C12 N14 1.375 . S
C12 H30 0.931 . S
C13 N10 1.311 1_545 S
C13 N14 1.347 1_545 S
C13 H24 0.929 . S
N14 C12 1.375 . S
N14 C13 1.347 1_565 S
C15 C18 1.365 . S
C15 N20 1.328 1_565 S
C15 H21 0.929 . S
C16 C17 1.362 . S
C16 C19 1.378 . S
C16 H31 0.929 . S
C17 C16 1.362 . S
C17 C18 1.366 1_544 S
C18 C15 1.365 . S
C18 C17 1.366 1_566 S
C18 H32 0.930 . S
C19 C16 1.378 . S
C19 N20 1.315 1_554 S
C19 H22 0.930 . S
N20 Co0 2.195 1_556 S
N20 C15 1.328 1_545 S
N20 C19 1.315 1_556 S
H21 C15 0.929 . S
H22 C19 0.930 . S
H23 C11 0.929 . S
H24 C13 0.929 . S
O25 Co0 2.330 1_566 S
O25 C28 1.244 . S
O26 Co0 2.141 1_566 S
O26 C28 1.240 . S
O27 Co0 2.111 . S
O27 C8 1.247 . S
C28 O25 1.244 . S
C28 O26 1.240 . S
H29 C3 0.931 . S
H30 C12 0.931 . S
H31 C16 0.929 . S
H32 C18 0.930 . S
Co33 N37 2.148 . S
Co33 N43 2.128 . S
Co33 N53 2.194 . S
Co33 O58 2.351 . S
Co33 O59 2.155 . S
Co33 O60 2.096 . S
C34 N37 1.301 . S
C34 N38 1.328 1_554 S
C34 H39 0.930 . S
C35 C36 1.333 1_554 S
C35 N37 1.317 . S
C35 H40 0.930 . S
C36 C35 1.333 1_556 S
C36 N38 1.350 . S
C36 H62 0.931 . S
N37 Co33 2.148 . S
N37 C34 1.301 . S
N37 C35 1.317 . S
N38 C34 1.328 1_556 S
N38 C36 1.350 . S
H39 C34 0.930 . S
H40 C35 0.930 . S
C41 O42 1.224 . S
C41 O60 1.247 . S
O42 C41 1.224 . S
N43 Co33 2.128 . S
N43 C44 1.355 . S
N43 C46 1.311 . S
C44 N43 1.355 . S
C44 C45 1.363 . S
C44 H56 0.929 . S
C45 C44 1.363 . S
C45 N47 1.375 . S
C45 H63 0.931 . S
C46 N43 1.311 . S
C46 N47 1.347 . S
C46 H57 0.929 . S
N47 C45 1.375 . S
N47 C46 1.347 . S
C48 C51 1.365 . S
C48 N53 1.328 . S
C48 H54 0.929 . S
C49 C50 1.362 . S
C49 C52 1.378 . S
C49 H64 0.929 . S
C50 C49 1.362 . S
C50 C51 1.366 . S
C51 C48 1.365 . S
C51 C50 1.366 . S
C51 H65 0.930 . S
C52 C49 1.378 . S
C52 N53 1.315 . S
C52 H55 0.930 . S
N53 Co33 2.194 . S
N53 C48 1.328 . S
N53 C52 1.315 . S
H54 C48 0.929 . S
H55 C52 0.930 . S
H56 C44 0.929 . S
H57 C46 0.929 . S
O58 Co33 2.351 . S
O58 C61 1.244 . S
O59 Co33 2.155 . S
O59 C61 1.240 . S
O60 Co33 2.096 . S
O60 C41 1.247 . S
C61 O58 1.244 . S
C61 O59 1.240 . S
H62 C36 0.931 . S
H63 C45 0.931 . S
H64 C49 0.929 . S
H65 C51 0.930 . S
Co66 N70 2.155 . S
Co66 N76 2.123 1_545 S
Co66 N86 2.195 . S
Co66 O91 2.329 1_545 S
Co66 O92 2.140 1_545 S
Co66 O93 2.111 . S
C67 N70 1.301 . S
C67 N71 1.328 . S
C67 H72 0.930 1_545 S
C68 C69 1.333 . S
C68 N70 1.317 . S
C68 H73 0.930 . S
C69 C68 1.333 . S
C69 N71 1.350 . S
C69 H95 0.931 . S
N70 Co66 2.155 . S
N70 C67 1.301 . S
N70 C68 1.317 . S
N71 C67 1.328 . S
N71 C69 1.350 . S
H72 C67 0.930 1_565 S
H73 C68 0.930 . S
C74 O75 1.224 . S
C74 O93 1.247 . S
O75 C74 1.224 . S
N76 Co66 2.123 1_565 S
N76 C77 1.355 . S
N76 C79 1.299 1_565 S
C77 N76 1.355 . S
C77 C78 1.363 . S
C77 H89 0.929 . S
C78 C77 1.363 . S
C78 N80 1.375 . S
C78 H96 0.931 . S
C79 N76 1.299 1_545 S
C79 N80 1.338 1_545 S
C79 H90 0.949 . S
N80 C78 1.375 . S
N80 C79 1.338 1_565 S
C81 C84 1.365 . S
C81 N86 1.328 1_565 S
C81 H87 0.929 . S
C82 C83 1.362 . S
C82 C85 1.378 . S
C82 H97 0.929 . S
C83 C82 1.362 . S
C83 C84 1.366 1_545 S
C84 C81 1.365 . S
C84 C83 1.366 1_565 S
C84 H98 0.930 . S
C85 C82 1.378 . S
C85 N86 1.315 . S
C85 H88 0.930 . S
N86 Co66 2.195 . S
N86 C81 1.328 1_545 S
N86 C85 1.315 . S
H87 C81 0.929 . S
H88 C85 0.930 . S
H89 C77 0.929 . S
H90 C79 0.949 . S
O91 Co66 2.329 1_565 S
O91 C94 1.244 . S
O92 Co66 2.140 1_565 S
O92 C94 1.240 . S
O93 Co66 2.111 . S
O93 C74 1.247 . S
C94 O91 1.244 . S
C94 O92 1.240 . S
H95 C69 0.931 . S
H96 C78 0.931 . S
H97 C82 0.929 . S
H98 C84 0.930 . S
Co99 N103 2.148 . S
Co99 N109 2.128 . S
Co99 N119 2.194 . S
Co99 O124 2.351 . S
Co99 O125 2.155 . S
Co99 O126 2.096 . S
C100 N103 1.301 . S
C100 N104 1.328 1_556 S
C100 H105 0.930 . S
C101 C102 1.333 1_556 S
C101 N103 1.317 . S
C101 H106 0.930 . S
C102 C101 1.333 1_554 S
C102 N104 1.350 . S
C102 H128 0.931 . S
N103 Co99 2.148 . S
N103 C100 1.301 . S
N103 C101 1.317 . S
N104 C100 1.328 1_554 S
N104 C102 1.350 . S
H105 C100 0.930 . S
H106 C101 0.930 . S
C107 O108 1.224 . S
C107 O126 1.247 . S
O108 C107 1.224 . S
N109 Co99 2.128 . S
N109 C110 1.355 . S
N109 C112 1.311 . S
C110 N109 1.355 . S
C110 C111 1.363 . S
C110 H122 0.929 . S
C111 C110 1.363 . S
C111 N113 1.375 . S
C111 H129 0.931 . S
C112 N109 1.311 . S
C112 N113 1.347 . S
C112 H123 0.929 . S
N113 C111 1.375 . S
N113 C112 1.347 . S
C114 C117 1.365 . S
C114 N119 1.328 . S
C114 H120 0.929 . S
C115 C116 1.362 . S
C115 C118 1.378 . S
C115 H130 0.929 . S
C116 C115 1.362 . S
C116 C117 1.366 . S
C117 C114 1.365 . S
C117 C116 1.366 . S
C117 H131 0.930 . S
C118 C115 1.378 . S
C118 N119 1.315 . S
C118 H121 0.930 . S
N119 Co99 2.194 . S
N119 C114 1.328 . S
N119 C118 1.315 . S
H120 C114 0.929 . S
H121 C118 0.930 . S
H122 C110 0.929 . S
H123 C112 0.929 . S
O124 Co99 2.351 . S
O124 C127 1.244 . S
O125 Co99 2.155 . S
O125 C127 1.240 . S
O126 Co99 2.096 . S
O126 C107 1.247 . S
C127 O124 1.244 . S
C127 O125 1.240 . S
H128 C102 0.931 . S
H129 C111 0.931 . S
H130 C115 0.929 . S
H131 C117 0.930 . S
Co132 N136 2.148 1_545 S
Co132 N142 2.128 1_554 S
Co132 N152 2.194 . S
Co132 O157 2.351 . S
Co132 O158 2.155 . S
Co132 O159 2.096 1_544 S
C133 N136 1.301 1_545 S
C133 N137 1.328 1_545 S
C133 H138 0.930 . S
C134 C135 1.333 . S
C134 N136 1.317 . S
C134 H139 0.930 . S
C135 C134 1.333 . S
C135 N137 1.350 . S
C135 H161 0.931 . S
N136 Co132 2.148 1_565 S
N136 C133 1.301 1_565 S
N136 C134 1.317 . S
N137 C133 1.328 1_565 S
N137 C135 1.350 . S
H138 C133 0.930 . S
H139 C134 0.930 . S
C140 O141 1.224 . S
C140 O159 1.247 . S
O141 C140 1.224 . S
N142 Co132 2.128 1_556 S
N142 C143 1.355 . S
N142 C145 1.311 . S
C143 N142 1.355 . S
C143 C144 1.363 . S
C143 H155 0.929 . S
C144 C143 1.363 . S
C144 N146 1.375 . S
C144 H162 0.931 . S
C145 N142 1.311 . S
C145 N146 1.347 . S
C145 H156 0.929 1_545 S
N146 C144 1.375 . S
N146 C145 1.347 . S
C147 C150 1.365 . S
C147 N152 1.328 . S
C147 H153 0.929 . S
C148 C149 1.362 1_566 S
C148 C151 1.378 . S
C148 H163 0.929 . S
C149 C148 1.362 1_544 S
C149 C150 1.366 . S
C150 C147 1.365 . S
C150 C149 1.366 . S
C150 H164 0.930 . S
C151 C148 1.378 . S
C151 N152 1.315 1_566 S
C151 H154 0.930 . S
N152 Co132 2.194 . S
N152 C147 1.328 . S
N152 C151 1.315 1_544 S
H153 C147 0.929 . S
H154 C151 0.930 . S
H155 C143 0.929 . S
H156 C145 0.929 1_565 S
O157 Co132 2.351 . S
O157 C160 1.244 . S
O158 Co132 2.155 . S
O158 C160 1.240 . S
O159 Co132 2.096 1_566 S
O159 C140 1.247 . S
C160 O157 1.244 . S
C160 O158 1.240 . S
H161 C135 0.931 . S
H162 C144 0.931 . S
H163 C148 0.929 . S
H164 C150 0.930 . S
Co165 N169 2.148 . S
Co165 N175 2.128 . S
Co165 N185 2.194 . S
Co165 O190 2.351 . S
Co165 O191 2.155 . S
Co165 O192 2.096 . S
C166 N169 1.301 . S
C166 N170 1.328 1_556 S
C166 H171 0.930 . S
C167 C168 1.333 1_556 S
C167 N169 1.317 . S
C167 H172 0.930 . S
C168 C167 1.333 1_554 S
C168 N170 1.350 . S
C168 H194 0.931 . S
N169 Co165 2.148 . S
N169 C166 1.301 . S
N169 C167 1.317 . S
N170 C166 1.328 1_554 S
N170 C168 1.350 . S
H171 C166 0.930 . S
H172 C167 0.930 . S
C173 O174 1.224 . S
C173 O192 1.247 . S
O174 C173 1.224 . S
N175 Co165 2.128 . S
N175 C176 1.355 . S
N175 C178 1.311 . S
C176 N175 1.355 . S
C176 C177 1.363 . S
C176 H188 0.929 . S
C177 C176 1.363 . S
C177 N179 1.375 . S
C177 H195 0.931 . S
C178 N175 1.311 . S
C178 N179 1.347 . S
C178 H189 0.929 . S
N179 C177 1.375 . S
N179 C178 1.347 . S
C180 C183 1.365 . S
C180 N185 1.328 . S
C180 H186 0.929 . S
C181 C182 1.362 . S
C181 C184 1.378 . S
C181 H196 0.929 . S
C182 C181 1.362 . S
C182 C183 1.366 . S
C183 C180 1.365 . S
C183 C182 1.366 . S
C183 H197 0.930 . S
C184 C181 1.378 . S
C184 N185 1.315 . S
C184 H187 0.930 . S
N185 Co165 2.194 . S
N185 C180 1.328 . S
N185 C184 1.315 . S
H186 C180 0.929 . S
H187 C184 0.930 . S
H188 C176 0.929 . S
H189 C178 0.929 . S
O190 Co165 2.351 . S
O190 C193 1.244 . S
O191 Co165 2.155 . S
O191 C193 1.240 . S
O192 Co165 2.096 . S
O192 C173 1.247 . S
C193 O190 1.244 . S
C193 O191 1.240 . S
H194 C168 0.931 . S
H195 C177 0.931 . S
H196 C181 0.929 . S
H197 C183 0.930 . S
Co198 N202 2.148 1_545 S
Co198 N208 2.128 . S
Co198 N218 2.194 . S
Co198 O223 2.351 . S
Co198 O224 2.155 . S
Co198 O225 2.096 1_545 S
C199 N202 1.301 1_545 S
C199 N203 1.328 1_545 S
C199 H204 0.930 . S
C200 C201 1.333 . S
C200 N202 1.317 . S
C200 H205 0.930 . S
C201 C200 1.333 . S
C201 N203 1.350 . S
C201 H227 0.931 . S
N202 Co198 2.148 1_565 S
N202 C199 1.301 1_565 S
N202 C200 1.317 . S
N203 C199 1.328 1_565 S
N203 C201 1.350 . S
H204 C199 0.930 . S
H205 C200 0.930 . S
C206 O207 1.224 . S
C206 O225 1.247 . S
O207 C206 1.224 . S
N208 Co198 2.128 . S
N208 C209 1.355 . S
N208 C211 1.311 . S
C209 N208 1.355 . S
C209 C210 1.363 . S
C209 H221 0.929 . S
C210 C209 1.363 . S
C210 N212 1.375 . S
C210 H228 0.931 . S
C211 N208 1.311 . S
C211 N212 1.347 . S
C211 H222 0.929 1_545 S
N212 C210 1.375 . S
N212 C211 1.347 . S
C213 C216 1.365 . S
C213 N218 1.328 . S
C213 H219 0.929 . S
C214 C215 1.362 1_565 S
C214 C217 1.378 . S
C214 H229 0.929 . S
C215 C214 1.362 1_545 S
C215 C216 1.366 . S
C216 C213 1.365 . S
C216 C215 1.366 . S
C216 H230 0.930 . S
C217 C214 1.378 . S
C217 N218 1.315 1_565 S
C217 H220 0.930 . S
N218 Co198 2.194 . S
N218 C213 1.328 . S
N218 C217 1.315 1_545 S
H219 C213 0.929 . S
H220 C217 0.930 . S
H221 C209 0.929 . S
H222 C211 0.929 1_565 S
O223 Co198 2.351 . S
O223 C226 1.244 . S
O224 Co198 2.155 . S
O224 C226 1.240 . S
O225 Co198 2.096 1_565 S
O225 C206 1.247 . S
C226 O223 1.244 . S
C226 O224 1.240 . S
H227 C201 0.931 . S
H228 C210 0.931 . S
H229 C214 0.929 . S
H230 C216 0.930 . S
Co231 N235 2.148 . S
Co231 N241 2.128 . S
Co231 N251 2.194 . S
Co231 O256 2.351 . S
Co231 O257 2.155 . S
Co231 O258 2.096 . S
C232 N235 1.301 . S
C232 N236 1.328 1_554 S
C232 H237 0.930 . S
C233 C234 1.333 1_554 S
C233 N235 1.317 . S
C233 H238 0.930 . S
C234 C233 1.333 1_556 S
C234 N236 1.350 . S
C234 H260 0.931 . S
N235 Co231 2.148 . S
N235 C232 1.301 . S
N235 C233 1.317 . S
N236 C232 1.328 1_556 S
N236 C234 1.350 . S
H237 C232 0.930 . S
H238 C233 0.930 . S
C239 O240 1.224 . S
C239 O258 1.247 . S
O240 C239 1.224 . S
N241 Co231 2.128 . S
N241 C242 1.355 . S
N241 C244 1.311 . S
C242 N241 1.355 . S
C242 C243 1.363 . S
C242 H254 0.929 . S
C243 C242 1.363 . S
C243 N245 1.375 . S
C243 H261 0.931 . S
C244 N241 1.311 . S
C244 N245 1.347 . S
C244 H255 0.929 . S
N245 C243 1.375 . S
N245 C244 1.347 . S
C246 C249 1.365 . S
C246 N251 1.328 . S
C246 H252 0.929 . S
C247 C248 1.362 . S
C247 C250 1.378 . S
C247 H262 0.929 . S
C248 C247 1.362 . S
C248 C249 1.366 . S
C249 C246 1.365 . S
C249 C248 1.366 . S
C249 H263 0.930 . S
C250 C247 1.378 . S
C250 N251 1.315 . S
C250 H253 0.930 . S
N251 Co231 2.194 . S
N251 C246 1.328 . S
N251 C250 1.315 . S
H252 C246 0.929 . S
H253 C250 0.930 . S
H254 C242 0.929 . S
H255 C244 0.929 . S
O256 Co231 2.351 . S
O256 C259 1.244 . S
O257 Co231 2.155 . S
O257 C259 1.240 . S
O258 Co231 2.096 . S
O258 C239 1.247 . S
C259 O256 1.244 . S
C259 O257 1.240 . S
H260 C234 0.931 . S
H261 C243 0.931 . S
H262 C247 0.929 . S
H263 C249 0.930 . S
Co264 N268 2.148 . S
Co264 N274 2.128 . S
Co264 N284 2.194 . S
Co264 O289 2.351 . S
Co264 O290 2.155 . S
Co264 O291 2.096 . S
C265 N268 1.301 . S
C265 N269 1.328 . S
C265 H270 0.930 . S
C266 C267 1.333 . S
C266 N268 1.317 . S
C266 H271 0.930 . S
C267 C266 1.333 . S
C267 N269 1.350 . S
C267 H293 0.931 . S
N268 Co264 2.148 . S
N268 C265 1.301 . S
N268 C266 1.317 . S
N269 C265 1.328 . S
N269 C267 1.350 . S
H270 C265 0.930 . S
H271 C266 0.930 . S
C272 O273 1.224 . S
C272 O291 1.247 . S
O273 C272 1.224 . S
N274 Co264 2.128 . S
N274 C275 1.355 . S
N274 C277 1.311 . S
C275 N274 1.355 . S
C275 C276 1.363 . S
C275 H287 0.929 . S
C276 C275 1.363 . S
C276 N278 1.375 . S
C276 H294 0.931 . S
C277 N274 1.311 . S
C277 N278 1.347 . S
C277 H288 0.929 . S
N278 C276 1.375 . S
N278 C277 1.347 . S
C279 C282 1.365 . S
C279 N284 1.328 . S
C279 H285 0.929 . S
C280 C281 1.362 . S
C280 C283 1.378 . S
C280 H295 0.929 . S
C281 C280 1.362 . S
C281 C282 1.366 . S
C282 C279 1.365 . S
C282 C281 1.366 . S
C282 H296 0.930 . S
C283 C280 1.378 . S
C283 N284 1.315 . S
C283 H286 0.930 . S
N284 Co264 2.194 . S
N284 C279 1.328 . S
N284 C283 1.315 . S
H285 C279 0.929 . S
H286 C283 0.930 . S
H287 C275 0.929 . S
H288 C277 0.929 . S
O289 Co264 2.351 . S
O289 C292 1.244 . S
O290 Co264 2.155 . S
O290 C292 1.240 . S
O291 Co264 2.096 . S
O291 C272 1.247 . S
C292 O289 1.244 . S
C292 O290 1.240 . S
H293 C267 0.931 . S
H294 C276 0.931 . S
H295 C280 0.929 . S
H296 C282 0.930 . S
Co297 N301 2.148 . S
Co297 N307 2.128 . S
Co297 N317 2.194 . S
Co297 O322 2.351 . S
Co297 O323 2.155 . S
Co297 O324 2.096 . S
C298 N301 1.301 . S
C298 N302 1.328 . S
C298 H303 0.930 . S
C299 C300 1.333 . S
C299 N301 1.317 . S
C299 H304 0.930 . S
C300 C299 1.333 . S
C300 N302 1.350 . S
C300 H326 0.931 . S
N301 Co297 2.148 . S
N301 C298 1.301 . S
N301 C299 1.317 . S
N302 C298 1.328 . S
N302 C300 1.350 . S
H303 C298 0.930 . S
H304 C299 0.930 . S
C305 O306 1.224 . S
C305 O324 1.247 . S
O306 C305 1.224 . S
N307 Co297 2.128 . S
N307 C308 1.355 . S
N307 C310 1.311 . S
C308 N307 1.355 . S
C308 C309 1.363 1_556 S
C308 H320 0.929 . S
C309 C308 1.363 1_554 S
C309 N311 1.375 . S
C309 H327 0.931 . S
C310 N307 1.311 . S
C310 N311 1.347 1_556 S
C310 H321 0.929 . S
N311 C309 1.375 . S
N311 C310 1.347 1_554 S
C312 C315 1.365 . S
C312 N317 1.328 . S
C312 H318 0.929 . S
C313 C314 1.362 . S
C313 C316 1.378 . S
C313 H328 0.929 . S
C314 C313 1.362 . S
C314 C315 1.366 . S
C315 C312 1.365 . S
C315 C314 1.366 . S
C315 H329 0.930 . S
C316 C313 1.378 . S
C316 N317 1.315 . S
C316 H319 0.930 . S
N317 Co297 2.194 . S
N317 C312 1.328 . S
N317 C316 1.315 . S
H318 C312 0.929 . S
H319 C316 0.930 . S
H320 C308 0.929 . S
H321 C310 0.929 . S
O322 Co297 2.351 . S
O322 C325 1.244 . S
O323 Co297 2.155 . S
O323 C325 1.240 . S
O324 Co297 2.096 . S
O324 C305 1.247 . S
C325 O322 1.244 . S
C325 O323 1.240 . S
H326 C300 0.931 . S
H327 C309 0.931 . S
H328 C313 0.929 . S
H329 C315 0.930 . S
Co330 N334 2.148 . S
Co330 N340 2.128 1_554 S
Co330 N350 2.194 . S
Co330 O355 2.351 . S
Co330 O356 2.155 . S
Co330 O357 2.096 1_554 S
C331 N334 1.301 . S
C331 N335 1.328 . S
C331 H336 0.930 . S
C332 C333 1.333 . S
C332 N334 1.317 . S
C332 H337 0.930 . S
C333 C332 1.333 . S
C333 N335 1.350 . S
C333 H359 0.931 . S
N334 Co330 2.148 . S
N334 C331 1.301 . S
N334 C332 1.317 . S
N335 C331 1.328 . S
N335 C333 1.350 . S
H336 C331 0.930 . S
H337 C332 0.930 . S
C338 O339 1.224 . S
C338 O357 1.247 . S
O339 C338 1.224 . S
N340 Co330 2.128 1_556 S
N340 C341 1.355 . S
N340 C343 1.311 . S
C341 N340 1.355 . S
C341 C342 1.363 . S
C341 H353 0.929 . S
C342 C341 1.363 . S
C342 N344 1.375 . S
C342 H360 0.931 . S
C343 N340 1.311 . S
C343 N344 1.347 . S
C343 H354 0.929 . S
N344 C342 1.375 . S
N344 C343 1.347 . S
C345 C348 1.365 . S
C345 N350 1.328 . S
C345 H351 0.929 . S
C346 C347 1.362 1_556 S
C346 C349 1.378 . S
C346 H361 0.929 . S
C347 C346 1.362 1_554 S
C347 C348 1.366 . S
C348 C345 1.365 . S
C348 C347 1.366 . S
C348 H362 0.930 . S
C349 C346 1.378 . S
C349 N350 1.315 1_556 S
C349 H352 0.930 . S
N350 Co330 2.194 . S
N350 C345 1.328 . S
N350 C349 1.315 1_554 S
H351 C345 0.929 . S
H352 C349 0.930 . S
H353 C341 0.929 . S
H354 C343 0.929 . S
O355 Co330 2.351 . S
O355 C358 1.244 . S
O356 Co330 2.155 . S
O356 C358 1.240 . S
O357 Co330 2.096 1_556 S
O357 C338 1.247 . S
C358 O355 1.244 . S
C358 O356 1.240 . S
H359 C333 0.931 . S
H360 C342 0.931 . S
H361 C346 0.929 . S
H362 C348 0.930 . S
Co363 N367 2.148 . S
Co363 N373 2.128 . S
Co363 N383 2.194 . S
Co363 O388 2.351 . S
Co363 O389 2.155 . S
Co363 O390 2.096 . S
C364 N367 1.301 . S
C364 N368 1.328 . S
C364 H369 0.930 . S
C365 C366 1.333 . S
C365 N367 1.317 . S
C365 H370 0.930 . S
C366 C365 1.333 . S
C366 N368 1.350 . S
C366 H392 0.931 . S
N367 Co363 2.148 . S
N367 C364 1.301 . S
N367 C365 1.317 . S
N368 C364 1.328 . S
N368 C366 1.350 . S
H369 C364 0.930 . S
H370 C365 0.930 . S
C371 O372 1.224 . S
C371 O390 1.247 . S
O372 C371 1.224 . S
N373 Co363 2.128 . S
N373 C374 1.355 . S
N373 C376 1.311 . S
C374 N373 1.355 . S
C374 C375 1.363 1_554 S
C374 H386 0.929 . S
C375 C374 1.363 1_556 S
C375 N377 1.375 . S
C375 H393 0.931 . S
C376 N373 1.311 . S
C376 N377 1.347 1_554 S
C376 H387 0.929 . S
N377 C375 1.375 . S
N377 C376 1.347 1_556 S
C378 C381 1.365 . S
C378 N383 1.328 . S
C378 H384 0.929 . S
C379 C380 1.362 . S
C379 C382 1.378 . S
C379 H394 0.929 . S
C380 C379 1.362 . S
C380 C381 1.366 . S
C381 C378 1.365 . S
C381 C380 1.366 . S
C381 H395 0.930 . S
C382 C379 1.378 . S
C382 N383 1.315 . S
C382 H385 0.930 . S
N383 Co363 2.194 . S
N383 C378 1.328 . S
N383 C382 1.315 . S
H384 C378 0.929 . S
H385 C382 0.930 . S
H386 C374 0.929 . S
H387 C376 0.929 . S
O388 Co363 2.351 . S
O388 C391 1.244 . S
O389 Co363 2.155 . S
O389 C391 1.240 . S
O390 Co363 2.096 . S
O390 C371 1.247 . S
C391 O388 1.244 . S
C391 O389 1.240 . S
H392 C366 0.931 . S
H393 C375 0.931 . S
H394 C379 0.929 . S
H395 C381 0.930 . S
Co396 N400 2.148 . S
Co396 N406 2.128 . S
Co396 N416 2.194 . S
Co396 O421 2.351 . S
Co396 O422 2.155 . S
Co396 O423 2.096 . S
C397 N400 1.301 . S
C397 N401 1.328 . S
C397 H402 0.930 . S
C398 C399 1.333 . S
C398 N400 1.317 . S
C398 H403 0.930 . S
C399 C398 1.333 . S
C399 N401 1.350 . S
C399 H425 0.931 . S
N400 Co396 2.148 . S
N400 C397 1.301 . S
N400 C398 1.317 . S
N401 C397 1.328 . S
N401 C399 1.350 . S
H402 C397 0.930 . S
H403 C398 0.930 . S
C404 O405 1.224 . S
C404 O423 1.247 . S
O405 C404 1.224 . S
N406 Co396 2.128 . S
N406 C407 1.355 . S
N406 C409 1.311 . S
C407 N406 1.355 . S
C407 C408 1.363 . S
C407 H419 0.929 . S
C408 C407 1.363 . S
C408 N410 1.375 . S
C408 H426 0.931 . S
C409 N406 1.311 . S
C409 N410 1.347 . S
C409 H420 0.929 . S
N410 C408 1.375 . S
N410 C409 1.347 . S
C411 C414 1.365 . S
C411 N416 1.328 . S
C411 H417 0.929 . S
C412 C413 1.362 . S
C412 C415 1.378 . S
C412 H427 0.929 . S
C413 C412 1.362 . S
C413 C414 1.366 . S
C414 C411 1.365 . S
C414 C413 1.366 . S
C414 H428 0.930 . S
C415 C412 1.378 . S
C415 N416 1.315 . S
C415 H418 0.930 . S
N416 Co396 2.194 . S
N416 C411 1.328 . S
N416 C415 1.315 . S
H417 C411 0.929 . S
H418 C415 0.930 . S
H419 C407 0.929 . S
H420 C409 0.929 . S
O421 Co396 2.351 . S
O421 C424 1.244 . S
O422 Co396 2.155 . S
O422 C424 1.240 . S
O423 Co396 2.096 . S
O423 C404 1.247 . S
C424 O421 1.244 . S
C424 O422 1.240 . S
H425 C399 0.931 . S
H426 C408 0.931 . S
H427 C412 0.929 . S
H428 C414 0.930 . S
Co429 N433 2.148 . S
Co429 N439 2.128 . S
Co429 N449 2.194 . S
Co429 O454 2.351 . S
Co429 O455 2.155 . S
Co429 O456 2.096 . S
C430 N433 1.301 . S
C430 N434 1.328 . S
C430 H435 0.930 . S
C431 C432 1.333 . S
C431 N433 1.317 . S
C431 H436 0.930 . S
C432 C431 1.333 . S
C432 N434 1.350 . S
C432 H458 0.931 . S
N433 Co429 2.148 . S
N433 C430 1.301 . S
N433 C431 1.317 . S
N434 C430 1.328 . S
N434 C432 1.350 . S
H435 C430 0.930 . S
H436 C431 0.930 . S
C437 O438 1.224 . S
C437 O456 1.247 . S
O438 C437 1.224 . S
N439 Co429 2.128 . S
N439 C440 1.355 . S
N439 C442 1.311 . S
C440 N439 1.355 . S
C440 C441 1.363 1_554 S
C440 H452 0.929 . S
C441 C440 1.363 1_556 S
C441 N443 1.375 . S
C441 H459 0.931 . S
C442 N439 1.311 . S
C442 N443 1.347 1_554 S
C442 H453 0.929 . S
N443 C441 1.375 . S
N443 C442 1.347 1_556 S
C444 C447 1.365 . S
C444 N449 1.328 . S
C444 H450 0.929 . S
C445 C446 1.362 . S
C445 C448 1.378 . S
C445 H460 0.929 . S
C446 C445 1.362 . S
C446 C447 1.366 . S
C447 C444 1.365 . S
C447 C446 1.366 . S
C447 H461 0.930 . S
C448 C445 1.378 . S
C448 N449 1.315 . S
C448 H451 0.930 . S
N449 Co429 2.194 . S
N449 C444 1.328 . S
N449 C448 1.315 . S
H450 C444 0.929 . S
H451 C448 0.930 . S
H452 C440 0.929 . S
H453 C442 0.929 . S
O454 Co429 2.351 . S
O454 C457 1.244 . S
O455 Co429 2.155 . S
O455 C457 1.240 . S
O456 Co429 2.096 . S
O456 C437 1.247 . S
C457 O454 1.244 . S
C457 O455 1.240 . S
H458 C432 0.931 . S
H459 C441 0.931 . S
H460 C445 0.929 . S
H461 C447 0.930 . S
Co462 N466 2.148 1_554 S
Co462 N472 2.128 . S
Co462 N482 2.194 1_554 S
Co462 O487 2.351 1_554 S
Co462 O488 2.155 1_554 S
Co462 O489 2.096 . S
C463 N466 1.301 . S
C463 N467 1.328 . S
C463 H468 0.930 . S
C464 C465 1.333 . S
C464 N466 1.317 . S
C464 H469 0.930 . S
C465 C464 1.333 . S
C465 N467 1.350 . S
C465 H491 0.931 . S
N466 Co462 2.148 1_556 S
N466 C463 1.301 . S
N466 C464 1.317 . S
N467 C463 1.328 . S
N467 C465 1.350 . S
H468 C463 0.930 . S
H469 C464 0.930 . S
C470 O471 1.224 . S
C470 O489 1.247 . S
O471 C470 1.224 . S
N472 Co462 2.128 . S
N472 C473 1.355 . S
N472 C475 1.311 . S
C473 N472 1.355 . S
C473 C474 1.363 . S
C473 H485 0.929 . S
C474 C473 1.363 . S
C474 N476 1.375 . S
C474 H492 0.931 . S
C475 N472 1.311 . S
C475 N476 1.347 . S
C475 H486 0.929 . S
N476 C474 1.375 . S
N476 C475 1.347 . S
C477 C480 1.365 . S
C477 N482 1.328 . S
C477 H483 0.929 . S
C478 C479 1.362 . S
C478 C481 1.378 . S
C478 H493 0.929 . S
C479 C478 1.362 . S
C479 C480 1.366 1_554 S
C480 C477 1.365 . S
C480 C479 1.366 1_556 S
C480 H494 0.930 . S
C481 C478 1.378 . S
C481 N482 1.315 1_554 S
C481 H484 0.930 . S
N482 Co462 2.194 1_556 S
N482 C477 1.328 . S
N482 C481 1.315 1_556 S
H483 C477 0.929 . S
H484 C481 0.930 . S
H485 C473 0.929 . S
H486 C475 0.929 . S
O487 Co462 2.351 1_556 S
O487 C490 1.244 . S
O488 Co462 2.155 1_556 S
O488 C490 1.240 . S
O489 Co462 2.096 . S
O489 C470 1.247 . S
C490 O487 1.244 . S
C490 O488 1.240 . S
H491 C465 0.931 . S
H492 C474 0.931 . S
H493 C478 0.929 . S
H494 C480 0.930 . S
Co495 N499 2.148 . S
Co495 N505 2.128 . S
Co495 N515 2.194 . S
Co495 O520 2.351 . S
Co495 O521 2.155 . S
Co495 O522 2.096 . S
C496 N499 1.301 . S
C496 N500 1.328 . S
C496 H501 0.930 . S
C497 C498 1.333 . S
C497 N499 1.317 . S
C497 H502 0.930 . S
C498 C497 1.333 . S
C498 N500 1.350 . S
C498 H524 0.931 . S
N499 Co495 2.148 . S
N499 C496 1.301 . S
N499 C497 1.317 . S
N500 C496 1.328 . S
N500 C498 1.350 . S
H501 C496 0.930 . S
H502 C497 0.930 . S
C503 O504 1.224 . S
C503 O522 1.247 . S
O504 C503 1.224 . S
N505 Co495 2.128 . S
N505 C506 1.355 . S
N505 C508 1.311 . S
C506 N505 1.355 . S
C506 C507 1.363 1_556 S
C506 H518 0.929 . S
C507 C506 1.363 1_554 S
C507 N509 1.375 . S
C507 H525 0.931 . S
C508 N505 1.311 . S
C508 N509 1.347 1_556 S
C508 H519 0.929 . S
N509 C507 1.375 . S
N509 C508 1.347 1_554 S
C510 C513 1.365 . S
C510 N515 1.328 . S
C510 H516 0.929 . S
C511 C512 1.362 . S
C511 C514 1.378 . S
C511 H526 0.929 . S
C512 C511 1.362 . S
C512 C513 1.366 . S
C513 C510 1.365 . S
C513 C512 1.366 . S
C513 H527 0.930 . S
C514 C511 1.378 . S
C514 N515 1.315 . S
C514 H517 0.930 . S
N515 Co495 2.194 . S
N515 C510 1.328 . S
N515 C514 1.315 . S
H516 C510 0.929 . S
H517 C514 0.930 . S
H518 C506 0.929 . S
H519 C508 0.929 . S
O520 Co495 2.351 . S
O520 C523 1.244 . S
O521 Co495 2.155 . S
O521 C523 1.240 . S
O522 Co495 2.096 . S
O522 C503 1.247 . S
C523 O520 1.244 . S
C523 O521 1.240 . S
H524 C498 0.931 . S
H525 C507 0.931 . S
H526 C511 0.929 . S
H527 C513 0.930 . S
C528 C529 1.363 . S
C528 C534 1.379 . S
C528 N536 1.356 . S
C529 C528 1.363 . S
C529 C535 1.363 1_545 S
C530 C531 1.363 . S
C530 C535 1.379 . S
C530 N537 1.356 . S
C531 C530 1.363 . S
C531 C534 1.363 1_565 S
N532 C534 1.356 . S
N532 H544 0.984 . S
N532 H545 0.985 . S
N533 C535 1.356 . S
N533 H538 0.984 . S
N533 H539 0.985 . S
C534 C528 1.379 . S
C534 C531 1.363 1_545 S
C534 N532 1.356 . S
C535 C529 1.363 1_565 S
C535 C530 1.379 . S
C535 N533 1.356 . S
N536 C528 1.356 . S
N536 H542 0.984 . S
N536 H543 0.984 . S
N537 C530 1.356 . S
N537 H540 0.984 . S
N537 H541 0.985 . S
H538 N533 0.984 . S
H539 N533 0.985 . S
H540 N537 0.984 . S
H541 N537 0.985 . S
H542 N536 0.984 . S
H543 N536 0.984 . S
H544 N532 0.984 . S
H545 N532 0.985 . S
C546 C547 1.363 . S
C546 C552 1.379 . S
C546 N554 1.356 . S
C547 C546 1.363 . S
C547 C553 1.363 . S
C548 C549 1.363 . S
C548 C553 1.379 . S
C548 N555 1.356 . S
C549 C548 1.363 . S
C549 C552 1.363 . S
N550 C552 1.356 . S
N550 H562 0.984 . S
N550 H563 0.985 . S
N551 C553 1.356 . S
N551 H556 0.984 . S
N551 H557 0.985 . S
C552 C546 1.379 . S
C552 C549 1.363 . S
C552 N550 1.356 . S
C553 C547 1.363 . S
C553 C548 1.379 . S
C553 N551 1.356 . S
N554 C546 1.356 . S
N554 H560 0.984 . S
N554 H561 0.984 . S
N555 C548 1.356 . S
N555 H558 0.984 . S
N555 H559 0.985 . S
H556 N551 0.984 . S
H557 N551 0.985 . S
H558 N555 0.984 . S
H559 N555 0.985 . S
H560 N554 0.984 . S
H561 N554 0.984 . S
H562 N550 0.984 . S
H563 N550 0.985 . S
C564 C565 1.363 . S
C564 C570 1.379 1_554 S
C564 N572 1.356 . S
C565 C564 1.363 . S
C565 C571 1.363 1_565 S
C566 C567 1.363 . S
C566 C571 1.379 1_556 S
C566 N573 1.356 . S
C567 C566 1.363 . S
C567 C570 1.363 1_545 S
N568 C570 1.356 . S
N568 H580 0.984 . S
N568 H581 0.985 . S
N569 C571 1.356 . S
N569 H574 0.984 . S
N569 H575 0.985 . S
C570 C564 1.379 1_556 S
C570 C567 1.363 1_565 S
C570 N568 1.356 . S
C571 C565 1.363 1_545 S
C571 C566 1.379 1_554 S
C571 N569 1.356 . S
N572 C564 1.356 . S
N572 H578 0.984 . S
N572 H579 0.984 . S
N573 C566 1.356 . S
N573 H576 0.984 . S
N573 H577 0.985 . S
H574 N569 0.984 . S
H575 N569 0.985 . S
H576 N573 0.984 . S
H577 N573 0.985 . S
H578 N572 0.984 . S
H579 N572 0.984 . S
H580 N568 0.984 . S
H581 N568 0.985 . S
C582 C583 1.363 . S
C582 C588 1.379 . S
C582 N590 1.356 . S
C583 C582 1.363 . S
C583 C589 1.363 . S
C584 C585 1.363 . S
C584 C589 1.379 . S
C584 N591 1.356 . S
C585 C584 1.363 . S
C585 C588 1.363 . S
N586 C588 1.356 . S
N586 H598 0.984 . S
N586 H599 0.985 . S
N587 C589 1.356 . S
N587 H592 0.984 . S
N587 H593 0.985 . S
C588 C582 1.379 . S
C588 C585 1.363 . S
C588 N586 1.356 . S
C589 C583 1.363 . S
C589 C584 1.379 . S
C589 N587 1.356 . S
N590 C582 1.356 . S
N590 H596 0.984 . S
N590 H597 0.984 . S
N591 C584 1.356 . S
N591 H594 0.984 . S
N591 H595 0.985 . S
H592 N587 0.984 . S
H593 N587 0.985 . S
H594 N591 0.984 . S
H595 N591 0.985 . S
H596 N590 0.984 . S
H597 N590 0.984 . S
H598 N586 0.984 . S
H599 N586 0.985 . S
C600 C601 1.363 1_565 S
C600 C606 1.379 . S
C600 N608 1.356 . S
C601 C600 1.363 1_545 S
C601 C607 1.363 . S
C602 C603 1.336 1_545 S
C602 C607 1.379 . S
C602 N609 1.356 . S
C603 C602 1.336 1_565 S
C603 C606 1.384 . S
N604 C606 1.356 . S
N604 H616 0.984 . S
N604 H617 0.985 . S
N605 C607 1.356 . S
N605 H610 0.984 . S
N605 H611 0.985 . S
C606 C600 1.379 . S
C606 C603 1.384 . S
C606 N604 1.356 . S
C607 C601 1.363 . S
C607 C602 1.379 . S
C607 N605 1.356 . S
N608 C600 1.356 . S
N608 H614 0.984 . S
N608 H615 0.984 . S
N609 C602 1.356 . S
N609 H612 0.984 . S
N609 H613 0.985 . S
H610 N605 0.984 . S
H611 N605 0.985 . S
H612 N609 0.984 . S
H613 N609 0.985 . S
H614 N608 0.984 . S
H615 N608 0.984 . S
H616 N604 0.984 . S
H617 N604 0.985 . S
C618 C619 1.363 . S
C618 C624 1.379 . S
C618 N626 1.356 . S
C619 C618 1.363 . S
C619 C625 1.363 . S
C620 C621 1.363 . S
C620 C625 1.379 . S
C620 N627 1.356 . S
C621 C620 1.363 . S
C621 C624 1.363 . S
N622 C624 1.356 . S
N622 H634 0.984 . S
N622 H635 0.985 . S
N623 C625 1.356 . S
N623 H628 0.984 . S
N623 H629 0.985 . S
C624 C618 1.379 . S
C624 C621 1.363 . S
C624 N622 1.356 . S
C625 C619 1.363 . S
C625 C620 1.379 . S
C625 N623 1.356 . S
N626 C618 1.356 . S
N626 H632 0.984 . S
N626 H633 0.984 . S
N627 C620 1.356 . S
N627 H630 0.984 . S
N627 H631 0.985 . S
H628 N623 0.984 . S
H629 N623 0.985 . S
H630 N627 0.984 . S
H631 N627 0.985 . S
H632 N626 0.984 . S
H633 N626 0.984 . S
H634 N622 0.984 . S
H635 N622 0.985 . S
C636 C637 1.363 . S
C636 C642 1.379 1_554 S
C636 N644 1.356 . S
C637 C636 1.363 . S
C637 C643 1.363 1_565 S
C638 C639 1.363 . S
C638 C643 1.379 1_556 S
C638 N645 1.356 . S
C639 C638 1.363 . S
C639 C642 1.363 1_545 S
N640 C642 1.356 . S
N640 H652 0.984 . S
N640 H653 0.985 . S
N641 C643 1.356 . S
N641 H646 0.984 . S
N641 H647 0.985 . S
C642 C636 1.379 1_556 S
C642 C639 1.363 1_565 S
C642 N640 1.356 . S
C643 C637 1.363 1_545 S
C643 C638 1.379 1_554 S
C643 N641 1.356 . S
N644 C636 1.356 . S
N644 H650 0.984 . S
N644 H651 0.984 . S
N645 C638 1.356 . S
N645 H648 0.984 . S
N645 H649 0.985 . S
H646 N641 0.984 . S
H647 N641 0.985 . S
H648 N645 0.984 . S
H649 N645 0.985 . S
H650 N644 0.984 . S
H651 N644 0.984 . S
H652 N640 0.984 . S
H653 N640 0.985 . S
C654 C655 1.363 . S
C654 C660 1.379 . S
C654 N662 1.356 . S
C655 C654 1.363 . S
C655 C661 1.363 . S
C656 C657 1.363 . S
C656 C661 1.379 . S
C656 N663 1.356 . S
C657 C656 1.363 . S
C657 C660 1.363 . S
N658 C660 1.356 . S
N658 H670 0.984 . S
N658 H671 0.985 . S
N659 C661 1.356 . S
N659 H664 0.984 . S
N659 H665 0.985 . S
C660 C654 1.379 . S
C660 C657 1.363 . S
C660 N658 1.356 . S
C661 C655 1.363 . S
C661 C656 1.379 . S
C661 N659 1.356 . S
N662 C654 1.356 . S
N662 H668 0.984 . S
N662 H669 0.984 . S
N663 C656 1.356 . S
N663 H666 0.984 . S
N663 H667 0.985 . S
H664 N659 0.984 . S
H665 N659 0.985 . S
H666 N663 0.984 . S
H667 N663 0.985 . S
H668 N662 0.984 . S
H669 N662 0.984 . S
H670 N658 0.984 . S
H671 N658 0.985 . S
C672 C673 1.363 . S
C672 C678 1.379 1_554 S
C672 N680 1.356 . S
C673 C672 1.363 . S
C673 C679 1.363 . S
C674 C675 1.363 . S
C674 C679 1.379 1_556 S
C674 N681 1.356 . S
C675 C674 1.363 . S
C675 C678 1.363 . S
N676 C678 1.356 . S
N676 H688 0.984 . S
N676 H689 0.985 . S
N677 C679 1.356 . S
N677 H682 0.984 . S
N677 H683 0.985 . S
C678 C672 1.379 1_556 S
C678 C675 1.363 . S
C678 N676 1.356 . S
C679 C673 1.363 . S
C679 C674 1.379 1_554 S
C679 N677 1.356 . S
N680 C672 1.356 . S
N680 H686 0.984 . S
N680 H687 0.984 . S
N681 C674 1.356 . S
N681 H684 0.984 . S
N681 H685 0.985 . S
H682 N677 0.984 . S
H683 N677 0.985 . S
H684 N681 0.984 . S
H685 N681 0.985 . S
H686 N680 0.984 . S
H687 N680 0.984 . S
H688 N676 0.984 . S
H689 N676 0.985 . S
C690 C691 1.363 . S
C690 C696 1.379 . S
C690 N698 1.356 . S
C691 C690 1.363 . S
C691 C697 1.363 . S
C692 C693 1.363 . S
C692 C697 1.379 . S
C692 N699 1.356 . S
C693 C692 1.363 . S
C693 C696 1.363 . S
N694 C696 1.356 . S
N694 H706 0.984 . S
N694 H707 0.985 . S
N695 C697 1.356 . S
N695 H700 0.984 . S
N695 H701 0.985 . S
C696 C690 1.379 . S
C696 C693 1.363 . S
C696 N694 1.356 . S
C697 C691 1.363 . S
C697 C692 1.379 . S
C697 N695 1.356 . S
N698 C690 1.356 . S
N698 H704 0.984 . S
N698 H705 0.984 . S
N699 C692 1.356 . S
N699 H702 0.984 . S
N699 H703 0.985 . S
H700 N695 0.984 . S
H701 N695 0.985 . S
H702 N699 0.984 . S
H703 N699 0.985 . S
H704 N698 0.984 . S
H705 N698 0.984 . S
H706 N694 0.984 . S
H707 N694 0.985 . S
C708 C709 1.363 . S
C708 C714 1.379 . S
C708 N716 1.356 . S
C709 C708 1.363 . S
C709 C715 1.363 . S
C710 C711 1.363 . S
C710 C715 1.379 . S
C710 N717 1.356 . S
C711 C710 1.363 . S
C711 C714 1.363 . S
N712 C714 1.356 . S
N712 H724 0.984 . S
N712 H725 0.985 . S
N713 C715 1.356 . S
N713 H718 0.984 . S
N713 H719 0.985 . S
C714 C708 1.379 . S
C714 C711 1.363 . S
C714 N712 1.356 . S
C715 C709 1.363 . S
C715 C710 1.379 . S
C715 N713 1.356 . S
N716 C708 1.356 . S
N716 H722 0.984 . S
N716 H723 0.984 . S
N717 C710 1.356 . S
N717 H720 0.984 . S
N717 H721 0.985 . S
H718 N713 0.984 . S
H719 N713 0.985 . S
H720 N717 0.984 . S
H721 N717 0.985 . S
H722 N716 0.984 . S
H723 N716 0.984 . S
H724 N712 0.984 . S
H725 N712 0.985 . S
C726 C727 1.363 . S
C726 C732 1.379 . S
C726 N734 1.356 . S
C727 C726 1.363 . S
C727 C733 1.363 . S
C728 C729 1.363 . S
C728 C733 1.379 . S
C728 N735 1.356 . S
C729 C728 1.363 . S
C729 C732 1.363 . S
N730 C732 1.356 . S
N730 H742 0.984 . S
N730 H743 0.985 . S
N731 C733 1.356 . S
N731 H736 0.984 . S
N731 H737 0.985 . S
C732 C726 1.379 . S
C732 C729 1.363 . S
C732 N730 1.356 . S
C733 C727 1.363 . S
C733 C728 1.379 . S
C733 N731 1.356 . S
N734 C726 1.356 . S
N734 H740 0.984 . S
N734 H741 0.984 . S
N735 C728 1.356 . S
N735 H738 0.984 . S
N735 H739 0.985 . S
H736 N731 0.984 . S
H737 N731 0.985 . S
H738 N735 0.984 . S
H739 N735 0.985 . S
H740 N734 0.984 . S
H741 N734 0.984 . S
H742 N730 0.984 . S
H743 N730 0.985 . S
C744 C745 1.363 . S
C744 C750 1.379 1_556 S
C744 N752 1.356 . S
C745 C744 1.363 . S
C745 C751 1.363 . S
C746 C747 1.363 . S
C746 C751 1.379 1_554 S
C746 N753 1.356 . S
C747 C746 1.363 . S
C747 C750 1.363 . S
N748 C750 1.356 . S
N748 H760 0.984 . S
N748 H761 0.985 . S
N749 C751 1.356 . S
N749 H754 0.984 . S
N749 H755 0.985 . S
C750 C744 1.379 1_554 S
C750 C747 1.363 . S
C750 N748 1.356 . S
C751 C745 1.363 . S
C751 C746 1.379 1_556 S
C751 N749 1.356 . S
N752 C744 1.356 . S
N752 H758 0.984 . S
N752 H759 0.984 . S
N753 C746 1.356 . S
N753 H756 0.984 . S
N753 H757 0.985 . S
H754 N749 0.984 . S
H755 N749 0.985 . S
H756 N753 0.984 . S
H757 N753 0.985 . S
H758 N752 0.984 . S
H759 N752 0.984 . S
H760 N748 0.984 . S
H761 N748 0.985 . S
C762 C763 1.363 . S
C762 C768 1.379 . S
C762 N770 1.356 . S
C763 C762 1.363 . S
C763 C769 1.363 . S
C764 C765 1.363 . S
C764 C769 1.379 . S
C764 N771 1.356 . S
C765 C764 1.363 . S
C765 C768 1.363 . S
N766 C768 1.356 . S
N766 H778 0.984 . S
N766 H779 0.985 . S
N767 C769 1.356 . S
N767 H772 0.984 . S
N767 H773 0.985 . S
C768 C762 1.379 . S
C768 C765 1.363 . S
C768 N766 1.356 . S
C769 C763 1.363 . S
C769 C764 1.379 . S
C769 N767 1.356 . S
N770 C762 1.356 . S
N770 H776 0.984 . S
N770 H777 0.984 . S
N771 C764 1.356 . S
N771 H774 0.984 . S
N771 H775 0.985 . S
H772 N767 0.984 . S
H773 N767 0.985 . S
H774 N771 0.984 . S
H775 N771 0.985 . S
H776 N770 0.984 . S
H777 N770 0.984 . S
H778 N766 0.984 . S
H779 N766 0.985 . S
C780 C781 1.363 . S
C780 C786 1.379 . S
C780 N788 1.356 . S
C781 C780 1.363 . S
C781 C787 1.363 . S
C782 C783 1.363 . S
C782 C787 1.379 . S
C782 N789 1.356 . S
C783 C782 1.363 . S
C783 C786 1.363 . S
N784 C786 1.356 . S
N784 H796 0.984 . S
N784 H797 0.985 . S
N785 C787 1.356 . S
N785 H790 0.984 . S
N785 H791 0.985 . S
C786 C780 1.379 . S
C786 C783 1.363 . S
C786 N784 1.356 . S
C787 C781 1.363 . S
C787 C782 1.379 . S
C787 N785 1.356 . S
N788 C780 1.356 . S
N788 H794 0.984 . S
N788 H795 0.984 . S
N789 C782 1.356 . S
N789 H792 0.984 . S
N789 H793 0.985 . S
H790 N785 0.984 . S
H791 N785 0.985 . S
H792 N789 0.984 . S
H793 N789 0.985 . S
H794 N788 0.984 . S
H795 N788 0.984 . S
H796 N784 0.984 . S
H797 N784 0.985 . S
C798 C799 1.363 . S
C798 C804 1.379 . S
C798 N806 1.356 . S
C799 C798 1.363 . S
C799 C805 1.363 . S
C800 C801 1.363 . S
C800 C805 1.379 . S
C800 N807 1.356 . S
C801 C800 1.363 . S
C801 C804 1.363 . S
N802 C804 1.356 . S
N802 H814 0.984 . S
N802 H815 0.985 . S
N803 C805 1.356 . S
N803 H808 0.984 . S
N803 H809 0.985 . S
C804 C798 1.379 . S
C804 C801 1.363 . S
C804 N802 1.356 . S
C805 C799 1.363 . S
C805 C800 1.379 . S
C805 N803 1.356 . S
N806 C798 1.356 . S
N806 H812 0.984 . S
N806 H813 0.984 . S
N807 C800 1.356 . S
N807 H810 0.984 . S
N807 H811 0.985 . S
H808 N803 0.984 . S
H809 N803 0.985 . S
H810 N807 0.984 . S
H811 N807 0.985 . S
H812 N806 0.984 . S
H813 N806 0.984 . S
H814 N802 0.984 . S
H815 N802 0.985 . S
C816 C817 1.363 . S
C816 C822 1.379 . S
C816 N824 1.356 1_554 S
C817 C816 1.363 . S
C817 C823 1.363 . S
C818 C819 1.363 . S
C818 C823 1.379 . S
C818 N825 1.356 . S
C819 C818 1.363 . S
C819 C822 1.363 . S
N820 C822 1.356 . S
N820 H832 0.984 . S
N820 H833 0.985 . S
N821 C823 1.356 . S
N821 H826 0.984 . S
N821 H827 0.985 . S
C822 C816 1.379 . S
C822 C819 1.363 . S
C822 N820 1.356 . S
C823 C817 1.363 . S
C823 C818 1.379 . S
C823 N821 1.356 . S
N824 C816 1.356 1_556 S
N824 H830 0.984 . S
N824 H831 0.984 . S
N825 C818 1.356 . S
N825 H828 0.984 . S
N825 H829 0.985 . S
H826 N821 0.984 . S
H827 N821 0.985 . S
H828 N825 0.984 . S
H829 N825 0.985 . S
H830 N824 0.984 . S
H831 N824 0.984 . S
H832 N820 0.984 . S
H833 N820 0.985 . S
C834 C835 1.363 . S
C834 C840 1.379 . S
C834 N842 1.356 . S
C835 C834 1.363 . S
C835 C841 1.363 . S
C836 C837 1.363 . S
C836 C841 1.379 . S
C836 N843 1.356 . S
C837 C836 1.363 . S
C837 C840 1.363 . S
N838 C840 1.356 . S
N838 H850 0.984 . S
N838 H851 0.985 . S
N839 C841 1.356 . S
N839 H844 0.984 . S
N839 H845 0.985 . S
C840 C834 1.379 . S
C840 C837 1.363 . S
C840 N838 1.356 . S
C841 C835 1.363 . S
C841 C836 1.379 . S
C841 N839 1.356 . S
N842 C834 1.356 . S
N842 H848 0.984 . S
N842 H849 0.984 . S
N843 C836 1.356 . S
N843 H846 0.984 . S
N843 H847 0.985 . S
H844 N839 0.984 . S
H845 N839 0.985 . S
H846 N843 0.984 . S
H847 N843 0.985 . S
H848 N842 0.984 . S
H849 N842 0.984 . S
H850 N838 0.984 . S
H851 N838 0.985 . S
C852 C853 1.363 . S
C852 C858 1.379 . S
C852 N860 1.356 . S
C853 C852 1.363 . S
C853 C859 1.363 . S
C854 C855 1.363 . S
C854 C859 1.379 . S
C854 N861 1.356 . S
C855 C854 1.363 . S
C855 C858 1.363 . S
N856 C858 1.356 . S
N856 H868 0.984 . S
N856 H869 0.985 . S
N857 C859 1.356 . S
N857 H862 0.984 . S
N857 H863 0.985 . S
C858 C852 1.379 . S
C858 C855 1.363 . S
C858 N856 1.356 . S
C859 C853 1.363 . S
C859 C854 1.379 . S
C859 N857 1.356 . S
N860 C852 1.356 . S
N860 H866 0.984 . S
N860 H867 0.984 . S
N861 C854 1.356 . S
N861 H864 0.984 . S
N861 H865 0.985 . S
H862 N857 0.984 . S
H863 N857 0.985 . S
H864 N861 0.984 . S
H865 N861 0.985 . S
H866 N860 0.984 . S
H867 N860 0.984 . S
H868 N856 0.984 . S
H869 N856 0.985 . S
C870 C871 1.363 . S
C870 C876 1.379 . S
C870 N878 1.356 . S
C871 C870 1.363 . S
C871 C877 1.363 . S
C872 C873 1.363 . S
C872 C877 1.379 . S
C872 N879 1.356 . S
C873 C872 1.363 . S
C873 C876 1.363 . S
N874 C876 1.356 . S
N874 H886 0.984 . S
N874 H887 0.985 . S
N875 C877 1.356 1_554 S
N875 H880 0.984 . S
N875 H881 0.985 . S
C876 C870 1.379 . S
C876 C873 1.363 . S
C876 N874 1.356 . S
C877 C871 1.363 . S
C877 C872 1.379 . S
C877 N875 1.356 1_556 S
N878 C870 1.356 . S
N878 H884 0.984 . S
N878 H885 0.984 . S
N879 C872 1.356 . S
N879 H882 0.984 . S
N879 H883 0.985 1_556 S
H880 N875 0.984 . S
H881 N875 0.985 . S
H882 N879 0.984 . S
H883 N879 0.985 1_554 S
H884 N878 0.984 . S
H885 N878 0.984 . S
H886 N874 0.984 . S
H887 N874 0.985 . S
C888 C889 1.363 . S
C888 C894 1.379 . S
C888 N896 1.356 . S
C889 C888 1.363 . S
C889 C895 1.363 . S
C890 C891 1.363 . S
C890 C895 1.379 . S
C890 N897 1.356 . S
C891 C890 1.363 . S
C891 C894 1.363 . S
N892 C894 1.356 . S
N892 H904 0.984 . S
N892 H905 0.985 . S
N893 C895 1.356 . S
N893 H898 0.984 . S
N893 H899 0.985 . S
C894 C888 1.379 . S
C894 C891 1.363 . S
C894 N892 1.356 . S
C895 C889 1.363 . S
C895 C890 1.379 . S
C895 N893 1.356 . S
N896 C888 1.356 . S
N896 H902 0.984 . S
N896 H903 0.984 . S
N897 C890 1.356 . S
N897 H900 0.983 1_556 S
N897 H901 0.985 1_556 S
H898 N893 0.984 . S
H899 N893 0.985 . S
H900 N897 0.983 1_554 S
H901 N897 0.985 1_554 S
H902 N896 0.984 . S
H903 N896 0.984 . S
H904 N892 0.984 . S
H905 N892 0.985 . S
C906 C907 1.363 . S
C906 C912 1.379 . S
C906 N914 1.356 . S
C907 C906 1.363 . S
C907 C913 1.363 . S
C908 C909 1.363 . S
C908 C913 1.379 . S
C908 N915 1.356 . S
C909 C908 1.363 . S
C909 C912 1.363 . S
N910 C912 1.356 . S
N910 H922 0.984 . S
N910 H923 0.985 . S
N911 C913 1.356 . S
N911 H916 0.984 . S
N911 H917 0.985 . S
C912 C906 1.379 . S
C912 C909 1.363 . S
C912 N910 1.356 . S
C913 C907 1.363 . S
C913 C908 1.379 . S
C913 N911 1.356 . S
N914 C906 1.356 . S
N914 H920 0.984 . S
N914 H921 0.984 . S
N915 C908 1.356 . S
N915 H918 0.984 . S
N915 H919 0.985 . S
H916 N911 0.984 . S
H917 N911 0.985 . S
H918 N915 0.984 . S
H919 N915 0.985 . S
H920 N914 0.984 . S
H921 N914 0.984 . S
H922 N910 0.984 . S
H923 N910 0.985 . S
C924 C925 1.363 . S
C924 C930 1.379 . S
C924 N932 1.356 . S
C925 C924 1.363 . S
C925 C931 1.363 . S
C926 C927 1.363 . S
C926 C931 1.379 . S
C926 N933 1.356 . S
C927 C926 1.363 . S
C927 C930 1.363 . S
N928 C930 1.356 . S
N928 H940 0.984 . S
N928 H941 0.985 . S
N929 C931 1.356 . S
N929 H934 0.984 . S
N929 H935 0.985 . S
C930 C924 1.379 . S
C930 C927 1.363 . S
C930 N928 1.356 . S
C931 C925 1.363 . S
C931 C926 1.379 . S
C931 N929 1.356 . S
N932 C924 1.356 . S
N932 H938 0.984 . S
N932 H939 0.984 . S
N933 C926 1.356 . S
N933 H936 0.984 . S
N933 H937 0.985 . S
H934 N929 0.984 . S
H935 N929 0.985 . S
H936 N933 0.984 . S
H937 N933 0.985 . S
H938 N932 0.984 . S
H939 N932 0.984 . S
H940 N928 0.984 . S
H941 N928 0.985 . S
C942 C943 1.363 . S
C942 C948 1.379 . S
C942 N950 1.356 . S
C943 C942 1.363 . S
C943 C949 1.363 . S
C944 C945 1.363 . S
C944 C949 1.379 . S
C944 N951 1.356 1_554 S
C945 C944 1.363 . S
C945 C948 1.363 . S
N946 C948 1.356 . S
N946 H958 0.984 . S
N946 H959 0.985 . S
N947 C949 1.356 . S
N947 H952 0.984 . S
N947 H953 0.985 1_554 S
C948 C942 1.379 . S
C948 C945 1.363 . S
C948 N946 1.356 . S
C949 C943 1.363 . S
C949 C944 1.379 . S
C949 N947 1.356 . S
N950 C942 1.356 . S
N950 H956 0.984 . S
N950 H957 0.984 . S
N951 C944 1.356 1_556 S
N951 H954 0.984 . S
N951 H955 0.985 . S
H952 N947 0.984 . S
H953 N947 0.985 1_556 S
H954 N951 0.984 . S
H955 N951 0.985 . S
H956 N950 0.984 . S
H957 N950 0.984 . S
H958 N946 0.984 . S
H959 N946 0.985 . S
C960 C961 1.363 . S
C960 C966 1.379 . S
C960 N968 1.356 . S
C961 C960 1.363 . S
C961 C967 1.363 . S
C962 C963 1.363 . S
C962 C967 1.379 . S
C962 N969 1.356 . S
C963 C962 1.363 . S
C963 C966 1.363 . S
N964 C966 1.356 . S
N964 H976 0.984 . S
N964 H977 0.985 . S
N965 C967 1.356 . S
N965 H970 0.984 . S
N965 H971 0.985 . S
C966 C960 1.379 . S
C966 C963 1.363 . S
C966 N964 1.356 . S
C967 C961 1.363 . S
C967 C962 1.379 . S
C967 N965 1.356 . S
N968 C960 1.356 . S
N968 H974 0.984 . S
N968 H975 0.984 . S
N969 C962 1.356 . S
N969 H972 0.984 . S
N969 H973 0.985 . S
H970 N965 0.984 . S
H971 N965 0.985 . S
H972 N969 0.984 . S
H973 N969 0.985 . S
H974 N968 0.984 . S
H975 N968 0.984 . S
H976 N964 0.984 . S
H977 N964 0.985 . S
C978 C979 1.363 . S
C978 C984 1.379 . S
C978 N986 1.356 . S
C979 C978 1.363 . S
C979 C985 1.363 . S
C980 C981 1.363 . S
C980 C985 1.379 . S
C980 N987 1.356 1_556 S
C981 C980 1.363 . S
C981 C984 1.363 . S
N982 C984 1.356 . S
N982 H994 0.984 . S
N982 H995 0.985 . S
N983 C985 1.356 . S
N983 H988 0.984 . S
N983 H989 0.985 . S
C984 C978 1.379 . S
C984 C981 1.363 . S
C984 N982 1.356 . S
C985 C979 1.363 . S
C985 C980 1.379 . S
C985 N983 1.356 . S
N986 C978 1.356 . S
N986 H992 0.984 . S
N986 H993 0.984 . S
N987 C980 1.356 1_554 S
N987 H990 0.984 . S
N987 H991 0.985 . S
H988 N983 0.984 . S
H989 N983 0.985 . S
H990 N987 0.984 . S
H991 N987 0.985 . S
H992 N986 0.984 . S
H993 N986 0.984 . S
H994 N982 0.984 . S
H995 N982 0.985 . S
C996 C997 1.363 . S
C996 C1002 1.379 . S
C996 N1004 1.356 . S
C997 C996 1.363 . S
C997 C1003 1.363 . S
C998 C999 1.363 . S
C998 C1003 1.379 . S
C998 N1005 1.356 . S
C999 C998 1.363 . S
C999 C1002 1.363 . S
N1000 C1002 1.356 . S
N1000 H1012 0.984 . S
N1000 H1013 0.985 . S
N1001 C1003 1.356 1_556 S
N1001 H1006 0.984 . S
N1001 H1007 0.985 . S
C1002 C996 1.379 . S
C1002 C999 1.363 . S
C1002 N1000 1.356 . S
C1003 C997 1.363 . S
C1003 C998 1.379 . S
C1003 N1001 1.356 1_554 S
N1004 C996 1.356 . S
N1004 H1010 0.984 . S
N1004 H1011 0.984 . S
N1005 C998 1.356 . S
N1005 H1008 0.984 . S
N1005 H1009 0.985 . S
H1006 N1001 0.984 . S
H1007 N1001 0.985 . S
H1008 N1005 0.984 . S
H1009 N1005 0.985 . S
H1010 N1004 0.984 . S
H1011 N1004 0.984 . S
H1012 N1000 0.984 . S
H1013 N1000 0.985 . S
C1014 C1015 1.363 . S
C1014 C1020 1.379 . S
C1014 N1022 1.356 . S
C1015 C1014 1.363 . S
C1015 C1021 1.363 . S
C1016 C1017 1.363 . S
C1016 C1021 1.379 . S
C1016 N1023 1.356 . S
C1017 C1016 1.363 . S
C1017 C1020 1.363 . S
N1018 C1020 1.356 . S
N1018 H1030 0.984 . S
N1018 H1031 0.985 . S
N1019 C1021 1.356 . S
N1019 H1024 0.984 . S
N1019 H1025 0.985 . S
C1020 C1014 1.379 . S
C1020 C1017 1.363 . S
C1020 N1018 1.356 . S
C1021 C1015 1.363 . S
C1021 C1016 1.379 . S
C1021 N1019 1.356 . S
N1022 C1014 1.356 . S
N1022 H1028 0.984 . S
N1022 H1029 0.984 . S
N1023 C1016 1.356 . S
N1023 H1026 0.984 . S
N1023 H1027 0.985 . S
H1024 N1019 0.984 . S
H1025 N1019 0.985 . S
H1026 N1023 0.984 . S
H1027 N1023 0.985 . S
H1028 N1022 0.984 . S
H1029 N1022 0.984 . S
H1030 N1018 0.984 . S
H1031 N1018 0.985 . S
C1032 C1033 1.363 . S
C1032 C1038 1.379 . S
C1032 N1040 1.356 . S
C1033 C1032 1.363 . S
C1033 C1039 1.363 . S
C1034 C1035 1.363 . S
C1034 C1039 1.379 . S
C1034 N1041 1.356 . S
C1035 C1034 1.363 . S
C1035 C1038 1.363 . S
N1036 C1038 1.356 . S
N1036 H1048 0.984 . S
N1036 H1049 0.985 . S
N1037 C1039 1.356 . S
N1037 H1042 0.984 . S
N1037 H1043 0.985 . S
C1038 C1032 1.379 . S
C1038 C1035 1.363 . S
C1038 N1036 1.356 . S
C1039 C1033 1.363 . S
C1039 C1034 1.379 . S
C1039 N1037 1.356 . S
N1040 C1032 1.356 . S
N1040 H1046 0.984 . S
N1040 H1047 0.984 . S
N1041 C1034 1.356 . S
N1041 H1044 0.984 . S
N1041 H1045 0.985 . S
H1042 N1037 0.984 . S
H1043 N1037 0.985 . S
H1044 N1041 0.984 . S
H1045 N1041 0.985 . S
H1046 N1040 0.984 . S
H1047 N1040 0.984 . S
H1048 N1036 0.984 . S
H1049 N1036 0.985 . S
C1050 C1051 1.363 . S
C1050 C1056 1.379 . S
C1050 N1058 1.356 . S
C1051 C1050 1.363 . S
C1051 C1057 1.363 . S
C1052 C1053 1.363 . S
C1052 C1057 1.379 . S
C1052 N1059 1.356 1_554 S
C1053 C1052 1.363 . S
C1053 C1056 1.363 . S
N1054 C1056 1.356 . S
N1054 H1066 0.984 . S
N1054 H1067 0.985 . S
N1055 C1057 1.356 . S
N1055 H1060 0.984 . S
N1055 H1061 0.985 1_554 S
C1056 C1050 1.379 . S
C1056 C1053 1.363 . S
C1056 N1054 1.356 . S
C1057 C1051 1.363 . S
C1057 C1052 1.379 . S
C1057 N1055 1.356 . S
N1058 C1050 1.356 . S
N1058 H1064 0.984 . S
N1058 H1065 0.984 . S
N1059 C1052 1.356 1_556 S
N1059 H1062 0.984 . S
N1059 H1063 0.985 . S
H1060 N1055 0.984 . S
H1061 N1055 0.985 1_556 S
H1062 N1059 0.984 . S
H1063 N1059 0.985 . S
H1064 N1058 0.984 . S
H1065 N1058 0.984 . S
H1066 N1054 0.984 . S
H1067 N1054 0.985 . S
C1068 C1069 1.363 . S
C1068 C1074 1.379 . S
C1068 N1076 1.356 . S
C1069 C1068 1.363 . S
C1069 C1075 1.363 . S
C1070 C1071 1.363 . S
C1070 C1075 1.379 . S
C1070 N1077 1.356 . S
C1071 C1070 1.363 . S
C1071 C1074 1.363 . S
N1072 C1074 1.360 . S
N1072 H1084 0.982 1_556 S
N1072 H1085 0.983 1_556 S
N1073 C1075 1.356 . S
N1073 H1078 0.984 . S
N1073 H1079 0.985 . S
C1074 C1068 1.379 . S
C1074 C1071 1.363 . S
C1074 N1072 1.360 . S
C1075 C1069 1.363 . S
C1075 C1070 1.379 . S
C1075 N1073 1.356 . S
N1076 C1068 1.356 . S
N1076 H1082 0.984 . S
N1076 H1083 0.984 . S
N1077 C1070 1.356 . S
N1077 H1080 0.984 . S
N1077 H1081 0.985 . S
H1078 N1073 0.984 . S
H1079 N1073 0.985 . S
H1080 N1077 0.984 . S
H1081 N1077 0.985 . S
H1082 N1076 0.984 . S
H1083 N1076 0.984 . S
H1084 N1072 0.982 1_554 S
H1085 N1072 0.983 1_554 S
C1086 C1087 1.363 . S
C1086 C1092 1.379 . S
C1086 N1094 1.356 . S
C1087 C1086 1.363 . S
C1087 C1093 1.363 . S
C1088 C1089 1.363 . S
C1088 C1093 1.379 . S
C1088 N1095 1.356 . S
C1089 C1088 1.363 . S
C1089 C1092 1.363 . S
N1090 C1092 1.356 . S
N1090 H1102 0.984 . S
N1090 H1103 0.985 . S
N1091 C1093 1.356 . S
N1091 H1096 0.984 . S
N1091 H1097 0.985 . S
C1092 C1086 1.379 . S
C1092 C1089 1.363 . S
C1092 N1090 1.356 . S
C1093 C1087 1.363 . S
C1093 C1088 1.379 . S
C1093 N1091 1.356 . S
N1094 C1086 1.356 . S
N1094 H1100 0.984 . S
N1094 H1101 0.984 . S
N1095 C1088 1.356 . S
N1095 H1098 0.984 . S
N1095 H1099 0.985 . S
H1096 N1091 0.984 . S
H1097 N1091 0.985 . S
H1098 N1095 0.984 . S
H1099 N1095 0.985 . S
H1100 N1094 0.984 . S
H1101 N1094 0.984 . S
H1102 N1090 0.984 . S
H1103 N1090 0.985 . S
C1104 C1105 1.363 1_565 S
C1104 C1110 1.379 . S
C1104 N1112 1.356 . S
C1105 C1104 1.363 1_545 S
C1105 C1111 1.363 1_554 S
C1106 C1107 1.363 1_556 S
C1106 C1111 1.379 . S
C1106 N1113 1.356 . S
C1107 C1106 1.363 1_554 S
C1107 C1110 1.363 1_545 S
N1108 C1110 1.356 . S
N1108 H1120 0.984 . S
N1108 H1121 0.985 . S
N1109 C1111 1.356 . S
N1109 H1114 0.984 . S
N1109 H1115 0.985 . S
C1110 C1104 1.379 . S
C1110 C1107 1.363 1_565 S
C1110 N1108 1.356 . S
C1111 C1105 1.363 1_556 S
C1111 C1106 1.379 . S
C1111 N1109 1.356 . S
N1112 C1104 1.356 . S
N1112 H1118 0.984 . S
N1112 H1119 0.984 . S
N1113 C1106 1.356 . S
N1113 H1116 0.984 . S
N1113 H1117 0.985 . S
H1114 N1109 0.984 . S
H1115 N1109 0.985 . S
H1116 N1113 0.984 . S
H1117 N1113 0.985 . S
H1118 N1112 0.984 . S
H1119 N1112 0.984 . S
H1120 N1108 0.984 . S
H1121 N1108 0.985 . S
C1122 C1123 1.363 . S
C1122 C1128 1.379 . S
C1122 N1130 1.356 . S
C1123 C1122 1.363 . S
C1123 C1129 1.363 . S
C1124 C1125 1.363 . S
C1124 C1129 1.379 . S
C1124 N1131 1.356 . S
C1125 C1124 1.363 . S
C1125 C1128 1.363 . S
N1126 C1128 1.356 . S
N1126 H1138 0.984 . S
N1126 H1139 0.985 . S
N1127 C1129 1.356 . S
N1127 H1132 0.984 . S
N1127 H1133 0.985 . S
C1128 C1122 1.379 . S
C1128 C1125 1.363 . S
C1128 N1126 1.356 . S
C1129 C1123 1.363 . S
C1129 C1124 1.379 . S
C1129 N1127 1.356 . S
N1130 C1122 1.356 . S
N1130 H1136 0.984 . S
N1130 H1137 0.984 . S
N1131 C1124 1.356 . S
N1131 H1134 0.984 . S
N1131 H1135 0.985 . S
H1132 N1127 0.984 . S
H1133 N1127 0.985 . S
H1134 N1131 0.984 . S
H1135 N1131 0.985 . S
H1136 N1130 0.984 . S
H1137 N1130 0.984 . S
H1138 N1126 0.984 . S
H1139 N1126 0.985 . S
C1140 C1141 1.363 . S
C1140 C1146 1.379 1_455 S
C1140 N1148 1.356 . S
C1141 C1140 1.363 . S
C1141 C1147 1.363 1_545 S
C1142 C1143 1.363 1_565 S
C1142 C1147 1.379 1_655 S
C1142 N1149 1.356 . S
C1143 C1142 1.363 1_545 S
C1143 C1146 1.363 . S
N1144 C1146 1.356 . S
N1144 H1156 0.984 . S
N1144 H1157 0.985 . S
N1145 C1147 1.356 . S
N1145 H1150 0.984 . S
N1145 H1151 0.985 . S
C1146 C1140 1.379 1_655 S
C1146 C1143 1.363 . S
C1146 N1144 1.356 . S
C1147 C1141 1.363 1_565 S
C1147 C1142 1.379 1_455 S
C1147 N1145 1.356 . S
N1148 C1140 1.356 . S
N1148 H1154 0.984 . S
N1148 H1155 0.984 . S
N1149 C1142 1.356 . S
N1149 H1152 0.984 . S
N1149 H1153 0.985 . S
H1150 N1145 0.984 . S
H1151 N1145 0.985 . S
H1152 N1149 0.984 . S
H1153 N1149 0.985 . S
H1154 N1148 0.984 . S
H1155 N1148 0.984 . S
H1156 N1144 0.984 . S
H1157 N1144 0.985 . S
C1158 C1159 1.363 . S
C1158 C1164 1.379 . S
C1158 N1166 1.356 . S
C1159 C1158 1.363 . S
C1159 C1165 1.363 . S
C1160 C1161 1.363 . S
C1160 C1165 1.379 . S
C1160 N1167 1.356 . S
C1161 C1160 1.363 . S
C1161 C1164 1.363 . S
N1162 C1164 1.356 . S
N1162 H1174 0.984 . S
N1162 H1175 0.985 . S
N1163 C1165 1.356 . S
N1163 H1168 0.984 . S
N1163 H1169 0.985 . S
C1164 C1158 1.379 . S
C1164 C1161 1.363 . S
C1164 N1162 1.356 . S
C1165 C1159 1.363 . S
C1165 C1160 1.379 . S
C1165 N1163 1.356 . S
N1166 C1158 1.356 . S
N1166 H1172 0.984 . S
N1166 H1173 0.984 . S
N1167 C1160 1.356 . S
N1167 H1170 0.984 . S
N1167 H1171 0.985 . S
H1168 N1163 0.984 . S
H1169 N1163 0.985 . S
H1170 N1167 0.984 . S
H1171 N1167 0.985 . S
H1172 N1166 0.984 . S
H1173 N1166 0.984 . S
H1174 N1162 0.984 . S
H1175 N1162 0.985 . S
C1176 C1177 1.363 . S
C1176 C1182 1.379 . S
C1176 N1184 1.356 . S
C1177 C1176 1.363 . S
C1177 C1183 1.363 . S
C1178 C1179 1.363 . S
C1178 C1183 1.379 . S
C1178 N1185 1.356 . S
C1179 C1178 1.363 . S
C1179 C1182 1.363 . S
N1180 C1182 1.356 . S
N1180 H1192 0.984 . S
N1180 H1193 0.985 . S
N1181 C1183 1.356 . S
N1181 H1186 0.984 . S
N1181 H1187 0.985 . S
C1182 C1176 1.379 . S
C1182 C1179 1.363 . S
C1182 N1180 1.356 . S
C1183 C1177 1.363 . S
C1183 C1178 1.379 . S
C1183 N1181 1.356 . S
N1184 C1176 1.356 . S
N1184 H1190 0.984 . S
N1184 H1191 0.984 . S
N1185 C1178 1.356 . S
N1185 H1188 0.984 . S
N1185 H1189 0.985 . S
H1186 N1181 0.984 . S
H1187 N1181 0.985 . S
H1188 N1185 0.984 . S
H1189 N1185 0.985 . S
H1190 N1184 0.984 . S
H1191 N1184 0.984 . S
H1192 N1180 0.984 . S
H1193 N1180 0.985 . S
C1194 C1195 1.363 . S
C1194 C1200 1.379 . S
C1194 N1202 1.356 . S
C1195 C1194 1.363 . S
C1195 C1201 1.363 . S
C1196 C1197 1.363 . S
C1196 C1201 1.379 . S
C1196 N1203 1.356 . S
C1197 C1196 1.363 . S
C1197 C1200 1.363 . S
N1198 C1200 1.356 . S
N1198 H1210 0.984 . S
N1198 H1211 0.985 . S
N1199 C1201 1.356 . S
N1199 H1204 0.984 . S
N1199 H1205 0.985 . S
C1200 C1194 1.379 . S
C1200 C1197 1.363 . S
C1200 N1198 1.356 . S
C1201 C1195 1.363 . S
C1201 C1196 1.379 . S
C1201 N1199 1.356 . S
N1202 C1194 1.356 . S
N1202 H1208 0.984 . S
N1202 H1209 0.984 . S
N1203 C1196 1.356 . S
N1203 H1206 0.984 . S
N1203 H1207 0.985 . S
H1204 N1199 0.984 . S
H1205 N1199 0.985 . S
H1206 N1203 0.984 . S
H1207 N1203 0.985 . S
H1208 N1202 0.984 . S
H1209 N1202 0.984 . S
H1210 N1198 0.984 . S
H1211 N1198 0.985 . S
C1212 C1213 1.363 . S
C1212 C1218 1.379 1_655 S
C1212 N1220 1.356 . S
C1213 C1212 1.363 . S
C1213 C1219 1.363 . S
C1214 C1215 1.363 . S
C1214 C1219 1.379 1_455 S
C1214 N1221 1.356 . S
C1215 C1214 1.363 . S
C1215 C1218 1.363 . S
N1216 C1218 1.356 . S
N1216 H1228 0.984 . S
N1216 H1229 0.985 . S
N1217 C1219 1.356 . S
N1217 H1222 0.984 . S
N1217 H1223 0.985 . S
C1218 C1212 1.379 1_455 S
C1218 C1215 1.363 . S
C1218 N1216 1.356 . S
C1219 C1213 1.363 . S
C1219 C1214 1.379 1_655 S
C1219 N1217 1.356 . S
N1220 C1212 1.356 . S
N1220 H1226 0.984 . S
N1220 H1227 0.984 . S
N1221 C1214 1.356 . S
N1221 H1224 0.984 . S
N1221 H1225 0.985 . S
H1222 N1217 0.984 . S
H1223 N1217 0.985 . S
H1224 N1221 0.984 . S
H1225 N1221 0.985 . S
H1226 N1220 0.984 . S
H1227 N1220 0.984 . S
H1228 N1216 0.984 . S
H1229 N1216 0.985 . S
C1230 C1231 1.363 1_556 S
C1230 C1236 1.379 . S
C1230 N1238 1.356 . S
C1231 C1230 1.363 1_554 S
C1231 C1237 1.363 . S
C1232 C1233 1.363 . S
C1232 C1237 1.379 . S
C1232 N1239 1.356 . S
C1233 C1232 1.363 . S
C1233 C1236 1.363 1_554 S
N1234 C1236 1.356 . S
N1234 H1246 0.984 . S
N1234 H1247 0.985 . S
N1235 C1237 1.356 . S
N1235 H1240 0.984 . S
N1235 H1241 0.985 . S
C1236 C1230 1.379 . S
C1236 C1233 1.363 1_556 S
C1236 N1234 1.356 . S
C1237 C1231 1.363 . S
C1237 C1232 1.379 . S
C1237 N1235 1.356 . S
N1238 C1230 1.356 . S
N1238 H1244 0.984 . S
N1238 H1245 0.984 . S
N1239 C1232 1.356 . S
N1239 H1242 0.984 . S
N1239 H1243 0.985 . S
H1240 N1235 0.984 . S
H1241 N1235 0.985 . S
H1242 N1239 0.984 . S
H1243 N1239 0.985 . S
H1244 N1238 0.984 . S
H1245 N1238 0.984 . S
H1246 N1234 0.984 . S
H1247 N1234 0.985 . S
C529 N5 1.461 . S
C531 N14 1.456 . S
C547 N38 1.474 . S
C549 N47 1.469 . S
C565 N80 1.469 . S
C567 N71 1.474 . S
C583 N113 1.456 . S
C585 N104 1.461 . S
C601 N146 1.456 . S
C603 N137 1.472 . S
C619 N179 1.469 . S
C621 N170 1.474 . S
C637 N203 1.474 . S
C639 N212 1.469 . S
C655 N245 1.456 . S
C657 N236 1.461 . S
C673 N269 1.461 . S
C675 N278 1.456 . S
C691 N302 1.474 . S
C693 N311 1.469 . S
C709 N344 1.469 . S
C711 N335 1.474 . S
C727 N368 1.461 . S
C729 N377 1.456 . S
C745 N401 1.461 . S
C747 N410 1.456 . S
C763 N443 1.469 . S
C765 N434 1.474 . S
C781 N467 1.474 . S
C783 N476 1.469 . S
C799 N509 1.456 . S
C801 N500 1.461 . S
C817 C8 1.395 . S
C819 C61 1.392 . S
C835 C74 1.460 . S
C837 C41 1.460 . S
C853 C107 1.395 . S
C855 C94 1.392 . S
C871 C28 1.325 . S
C873 C127 1.325 . S
C889 C193 1.392 . S
C891 C140 1.395 . S
C907 C173 1.460 . S
C909 C206 1.460 . S
C925 C226 1.392 . S
C927 C239 1.395 . S
C943 C259 1.325 . S
C945 C160 1.325 . S
C961 C325 1.392 . S
C963 C272 1.395 . S
C979 C305 1.460 . S
C981 C338 1.460 . S
C997 C358 1.392 . S
C999 C371 1.395 . S
C1015 C391 1.325 . S
C1017 C292 1.325 . S
C1033 C404 1.395 . S
C1035 C457 1.392 . S
C1051 C437 1.460 . S
C1053 C470 1.460 . S
C1069 C503 1.395 . S
C1071 C490 1.392 . S
C1087 C424 1.325 . S
C1089 C523 1.325 . S
C1105 C17 1.295 . S
C1107 C149 1.295 . S
C1123 C446 1.345 . S
C1125 C50 1.345 . S
C1141 C83 1.345 . S
C1143 C215 1.345 . S
C1159 C512 1.295 . S
C1161 C116 1.295 . S
C1177 C314 1.345 . S
C1179 C182 1.345 . S
C1195 C248 1.294 . S
C1197 C380 1.294 . S
C1213 C281 1.295 . S
C1215 C413 1.295 . S
C1231 C479 1.345 . S
C1233 C347 1.345 . S
