# Generated by pormake.
# Topology why, (6)-cn, num edge types: 1
# Building blocks:
#     Node 0, Type 0, BuildingBlock: BETFEN_clean_sbu_0, # of connection points: 6
#     Node 1, Type 0, BuildingBlock: BETFEN_clean_sbu_0, # of connection points: 6
#     Node 2, Type 0, BuildingBlock: BETFEN_clean_sbu_0, # of connection points: 6
#     Node 3, Type 0, BuildingBlock: BETFEN_clean_sbu_0, # of connection points: 6
#     Node 4, Type 0, BuildingBlock: BETFEN_clean_sbu_0, # of connection points: 6
#     Node 5, Type 0, BuildingBlock: BETFEN_clean_sbu_0, # of connection points: 6
#     Node 6, Type 0, BuildingBlock: BETFEN_clean_sbu_0, # of connection points: 6
#     Node 7, Type 0, BuildingBlock: BETFEN_clean_sbu_0, # of connection points: 6
#     Node 8, Type 0, BuildingBlock: BETFEN_clean_sbu_0, # of connection points: 6
#     Node 9, Type 0, BuildingBlock: BETFEN_clean_sbu_0, # of connection points: 6
#     Node 10, Type 0, BuildingBlock: BETFEN_clean_sbu_0, # of connection points: 6
#     Node 11, Type 0, BuildingBlock: BETFEN_clean_sbu_0, # of connection points: 6
#     Node 12, Type 0, BuildingBlock: BETFEN_clean_sbu_0, # of connection points: 6
#     Node 13, Type 0, BuildingBlock: BETFEN_clean_sbu_0, # of connection points: 6
#     Node 14, Type 0, BuildingBlock: BETFEN_clean_sbu_0, # of connection points: 6
#     Node 15, Type 0, BuildingBlock: BETFEN_clean_sbu_0, # of connection points: 6
#     Edge 16, Type (0, 0), BuildingBlock: KIFKEQ_clean_linker_1, # of connection points: 2
#     Edge 17, Type (0, 0), BuildingBlock: KIFKEQ_clean_linker_1, # of connection points: 2
#     Edge 18, Type (0, 0), BuildingBlock: KIFKEQ_clean_linker_1, # of connection points: 2
#     Edge 19, Type (0, 0), BuildingBlock: KIFKEQ_clean_linker_1, # of connection points: 2
#     Edge 20, Type (0, 0), BuildingBlock: KIFKEQ_clean_linker_1, # of connection points: 2
#     Edge 21, Type (0, 0), BuildingBlock: KIFKEQ_clean_linker_1, # of connection points: 2
#     Edge 22, Type (0, 0), BuildingBlock: KIFKEQ_clean_linker_1, # of connection points: 2
#     Edge 23, Type (0, 0), BuildingBlock: KIFKEQ_clean_linker_1, # of connection points: 2
#     Edge 24, Type (0, 0), BuildingBlock: KIFKEQ_clean_linker_1, # of connection points: 2
#     Edge 25, Type (0, 0), BuildingBlock: KIFKEQ_clean_linker_1, # of connection points: 2
#     Edge 26, Type (0, 0), BuildingBlock: KIFKEQ_clean_linker_1, # of connection points: 2
#     Edge 27, Type (0, 0), BuildingBlock: KIFKEQ_clean_linker_1, # of connection points: 2
#     Edge 28, Type (0, 0), BuildingBlock: KIFKEQ_clean_linker_1, # of connection points: 2
#     Edge 29, Type (0, 0), BuildingBlock: KIFKEQ_clean_linker_1, # of connection points: 2
#     Edge 30, Type (0, 0), BuildingBlock: KIFKEQ_clean_linker_1, # of connection points: 2
#     Edge 31, Type (0, 0), BuildingBlock: KIFKEQ_clean_linker_1, # of connection points: 2
#     Edge 32, Type (0, 0), BuildingBlock: KIFKEQ_clean_linker_1, # of connection points: 2
#     Edge 33, Type (0, 0), BuildingBlock: KIFKEQ_clean_linker_1, # of connection points: 2
#     Edge 34, Type (0, 0), BuildingBlock: KIFKEQ_clean_linker_1, # of connection points: 2
#     Edge 35, Type (0, 0), BuildingBlock: KIFKEQ_clean_linker_1, # of connection points: 2
#     Edge 36, Type (0, 0), BuildingBlock: KIFKEQ_clean_linker_1, # of connection points: 2
#     Edge 37, Type (0, 0), BuildingBlock: KIFKEQ_clean_linker_1, # of connection points: 2
#     Edge 38, Type (0, 0), BuildingBlock: KIFKEQ_clean_linker_1, # of connection points: 2
#     Edge 39, Type (0, 0), BuildingBlock: KIFKEQ_clean_linker_1, # of connection points: 2
#     Edge 40, Type (0, 0), BuildingBlock: KIFKEQ_clean_linker_1, # of connection points: 2
#     Edge 41, Type (0, 0), BuildingBlock: KIFKEQ_clean_linker_1, # of connection points: 2
#     Edge 42, Type (0, 0), BuildingBlock: KIFKEQ_clean_linker_1, # of connection points: 2
#     Edge 43, Type (0, 0), BuildingBlock: KIFKEQ_clean_linker_1, # of connection points: 2
#     Edge 44, Type (0, 0), BuildingBlock: KIFKEQ_clean_linker_1, # of connection points: 2
#     Edge 45, Type (0, 0), BuildingBlock: KIFKEQ_clean_linker_1, # of connection points: 2
#     Edge 46, Type (0, 0), BuildingBlock: KIFKEQ_clean_linker_1, # of connection points: 2
#     Edge 47, Type (0, 0), BuildingBlock: KIFKEQ_clean_linker_1, # of connection points: 2
#     Edge 48, Type (0, 0), BuildingBlock: KIFKEQ_clean_linker_1, # of connection points: 2
#     Edge 49, Type (0, 0), BuildingBlock: KIFKEQ_clean_linker_1, # of connection points: 2
#     Edge 50, Type (0, 0), BuildingBlock: KIFKEQ_clean_linker_1, # of connection points: 2
#     Edge 51, Type (0, 0), BuildingBlock: KIFKEQ_clean_linker_1, # of connection points: 2
#     Edge 52, Type (0, 0), BuildingBlock: KIFKEQ_clean_linker_1, # of connection points: 2
#     Edge 53, Type (0, 0), BuildingBlock: KIFKEQ_clean_linker_1, # of connection points: 2
#     Edge 54, Type (0, 0), BuildingBlock: KIFKEQ_clean_linker_1, # of connection points: 2
#     Edge 55, Type (0, 0), BuildingBlock: KIFKEQ_clean_linker_1, # of connection points: 2
#     Edge 56, Type (0, 0), BuildingBlock: KIFKEQ_clean_linker_1, # of connection points: 2
#     Edge 57, Type (0, 0), BuildingBlock: KIFKEQ_clean_linker_1, # of connection points: 2
#     Edge 58, Type (0, 0), BuildingBlock: KIFKEQ_clean_linker_1, # of connection points: 2
#     Edge 59, Type (0, 0), BuildingBlock: KIFKEQ_clean_linker_1, # of connection points: 2
#     Edge 60, Type (0, 0), BuildingBlock: KIFKEQ_clean_linker_1, # of connection points: 2
#     Edge 61, Type (0, 0), BuildingBlock: KIFKEQ_clean_linker_1, # of connection points: 2
#     Edge 62, Type (0, 0), BuildingBlock: KIFKEQ_clean_linker_1, # of connection points: 2
#     Edge 63, Type (0, 0), BuildingBlock: KIFKEQ_clean_linker_1, # of connection points: 2
# Relax obj value: 0.418
# Max RMSD: 0.229
# Mean RMSD: 0.229
data_MOF--net-why--node1-BETFEN_clean_sbu_0--edge1-KIFKEQ_clean_linker_1
_symmetry_space_group_name_H-M    P1
_symmetry_Int_Tables_number       1
_symmetry_cell_setting            triclinic
loop_
_symmetry_equiv_pos_as_xyz
'x, y, z'
_cell_length_a     49.035363
_cell_length_b     49.176314
_cell_length_c     41.031136
_cell_angle_alpha  89.980232
_cell_angle_beta   90.060268
_cell_angle_gamma 89.711275
loop_
_atom_site_label
_atom_site_type_symbol
_atom_site_fract_x
_atom_site_fract_y
_atom_site_fract_z
_atom_type_partial_charge
Pr0 Pr 0.49893 0.23805 0.02725 0.0
Pr1 Pr 0.47055 0.26823 0.06882 0.0
C2 C 0.53329 0.21177 -0.01314 0.0
C3 C 0.54987 0.21864 0.95819 0.0
C4 C 0.5765 0.2085 0.95556 0.0
C5 C 0.59175 0.21326 0.92741 0.0
C6 C 0.58047 0.228 0.90115 0.0
C7 C 0.55403 0.23887 0.90438 0.0
C8 C 0.53896 0.2344 0.93269 0.0
C9 C 0.48336 0.205 0.08272 0.0
C10 C 0.53331 0.293 0.058 0.0
C11 C 0.44487 0.28552 0.12285 0.0
C12 C 0.44799 0.28489 0.15833 0.0
C13 C 0.4245 0.28525 0.17754 0.0
C14 C 0.42657 0.28637 0.21133 0.0
C15 C 0.45228 0.28712 0.22667 0.0
C16 C 0.4759 0.28554 0.2073 0.0
C17 C 0.47376 0.28433 0.17329 0.0
C18 C 0.46822 0.29511 0.00941 0.0
C19 C 0.43439 0.2427 0.0055 0.0
O20 O 0.5069 0.21266 -0.01729 0.0
O21 O 0.54111 0.22151 0.01498 0.0
O22 O 0.49436 0.22841 0.08378 0.0
O23 O 0.47731 0.20008 0.05264 0.0
O24 O 0.51154 0.29466 0.07716 0.0
O25 O 0.53334 0.27316 0.03586 0.0
O26 O 0.46192 0.30063 0.10644 0.0
O27 O 0.43961 0.26225 0.10888 0.0
O28 O 0.48926 0.28339 0.02036 0.0
O29 O 0.44795 0.29432 0.02968 0.0
O30 O 0.45919 0.23922 -0.00631 0.0
O31 O 0.43264 0.24983 0.03682 0.0
H32 H 0.58536 0.19652 0.9751 0.0
H33 H 0.61229 0.20515 0.92613 0.0
H34 H 0.54454 0.25009 0.88466 0.0
H35 H 0.5185 0.24273 0.93424 0.0
H36 H 0.40447 0.28552 0.16633 0.0
H37 H 0.40791 0.28819 0.22526 0.0
H38 H 0.49595 0.28601 0.21837 0.0
H39 H 0.49216 0.28364 0.1587 0.0
Pr40 Pr 0.74153 0.75806 0.27718 0.0
Pr41 Pr 0.71054 0.72849 0.31551 0.0
C42 C 0.77279 0.78289 0.2323 0.0
C43 C 0.76942 0.79571 0.20027 0.0
C44 C 0.78247 0.82043 0.19418 0.0
C45 C 0.77886 0.83363 0.16443 0.0
C46 C 0.76232 0.82221 0.14002 0.0
C47 C 0.74931 0.79729 0.1462 0.0
C48 C 0.75271 0.78421 0.17617 0.0
C49 C 0.77014 0.75124 0.33829 0.0
C50 C 0.68707 0.79302 0.3049 0.0
C51 C 0.69079 0.70493 0.36957 0.0
C52 C 0.69722 0.67967 0.38707 0.0
C53 C 0.67585 0.66273 0.39659 0.0
C54 C 0.68141 0.63772 0.41111 0.0
C55 C 0.70848 0.62925 0.41651 0.0
C56 C 0.72995 0.64637 0.40739 0.0
C57 C 0.72435 0.67132 0.3924 0.0
C58 C 0.68485 0.73021 0.25548 0.0
C59 C 0.7375 0.6912 0.25675 0.0
O60 O 0.76986 0.75654 0.23382 0.0
O61 O 0.76165 0.79569 0.25678 0.0
O62 O 0.75817 0.73246 0.32228 0.0
O63 O 0.76456 0.7742 0.32436 0.0
O64 O 0.68648 0.77157 0.32465 0.0
O65 O 0.70577 0.79225 0.28151 0.0
O66 O 0.70916 0.7241 0.37034 0.0
O67 O 0.67977 0.70178 0.34089 0.0
O68 O 0.696 0.7506 0.26866 0.0
O69 O 0.68535 0.70876 0.27395 0.0
O70 O 0.74376 0.71599 0.24645 0.0
O71 O 0.72706 0.68919 0.28648 0.0
H72 H 0.79519 0.82971 0.21266 0.0
H73 H 0.78868 0.85308 0.16084 0.0
H74 H 0.73662 0.78782 0.12786 0.0
H75 H 0.74221 0.76522 0.18052 0.0
H76 H 0.65482 0.66874 0.3925 0.0
H77 H 0.66445 0.62515 0.41861 0.0
H78 H 0.75094 0.64031 0.41151 0.0
H79 H 0.74118 0.68394 0.38473 0.0
Pr80 Pr 0.21675 1.00076 0.52772 0.0
Pr81 Pr 0.24806 0.96815 0.56403 0.0
C82 C 0.18951 1.03189 0.48436 0.0
C83 C 0.18164 1.02804 0.45021 0.0
C84 C 0.17121 1.04988 0.43215 0.0
C85 C 0.16055 1.04549 0.401 0.0
C86 C 0.15996 1.01912 0.38771 0.0
C87 C 0.17139 0.99745 0.40546 0.0
C88 C 0.18229 1.00192 0.43643 0.0
C89 C 0.22417 1.0264 0.59068 0.0
C90 C 0.18337 0.94659 0.55713 0.0
C91 C 0.28062 0.95018 0.61204 0.0
C92 C 0.30299 0.96072 0.63214 0.0
C93 C 0.32591 0.94427 0.63721 0.0
C94 C 0.3467 0.95282 0.65785 0.0
C95 C 0.34497 0.97806 0.67397 0.0
C96 C 0.32243 0.99508 0.6678 0.0
C97 C 0.30163 0.98653 0.64684 0.0
C98 C 0.23256 0.93829 0.5093 0.0
C99 C 0.28337 0.99444 0.50259 0.0
O100 O 0.21546 1.03494 0.49037 0.0
O101 O 0.17765 1.01544 0.50477 0.0
O102 O 0.24262 1.01557 0.57305 0.0
O103 O 0.20094 1.02096 0.57739 0.0
O104 O 0.20496 0.94634 0.57681 0.0
O105 O 0.18349 0.96487 0.53341 0.0
O106 O 0.25628 0.96036 0.61728 0.0
O107 O 0.28607 0.94623 0.58123 0.0
O108 O 0.23913 0.96301 0.50915 0.0
O109 O 0.23478 0.92771 0.53819 0.0
O110 O 0.25887 1.00511 0.49599 0.0
O111 O 0.28565 0.97973 0.52951 0.0
H112 H 0.17048 1.07013 0.44253 0.0
H113 H 0.15166 1.0625 0.38791 0.0
H114 H 0.17143 0.97701 0.39564 0.0
H115 H 0.19035 0.98481 0.45011 0.0
H116 H 0.32736 0.92437 0.62597 0.0
H117 H 0.36342 0.93888 0.66257 0.0
H118 H 0.32055 1.01459 0.67984 0.0
H119 H 0.28422 0.99978 0.64283 0.0
Pr120 Pr 0.97712 0.4779 0.77215 0.0
Pr121 Pr 1.00887 0.50689 0.81282 0.0
C122 C 0.94982 0.44414 0.73214 0.0
C123 C 0.95613 0.42661 0.70428 0.0
C124 C 0.93486 0.41745 0.68444 0.0
C125 C 0.94057 0.40365 0.65551 0.0
C126 C 0.9677 0.39885 0.64593 0.0
C127 C 0.98902 0.40738 0.66645 0.0
C128 C 0.98326 0.42128 0.69538 0.0
C129 C 0.94497 0.49403 0.82827 0.0
C130 C 1.03247 0.44339 0.80235 0.0
C131 C 1.03206 0.52919 0.86584 0.0
C132 C 1.04237 0.52016 0.89794 0.0
C133 C 1.07043 0.51543 0.90203 0.0
C134 C 1.08104 0.50897 0.93256 0.0
C135 C 1.0639 0.50733 0.9599 0.0
C136 C 1.03563 0.51087 0.95562 0.0
C137 C 1.02495 0.51725 0.92489 0.0
C138 C 1.03327 0.50776 0.75193 0.0
C139 C 0.98082 0.54307 0.75145 0.0
O140 O 0.95263 0.47011 0.72665 0.0
O141 O 0.95911 0.43658 0.76065 0.0
O142 O 0.96894 0.48372 0.82899 0.0
O143 O 0.93893 0.49872 0.79813 0.0
O144 O 1.03451 0.46534 0.82094 0.0
O145 O 1.01228 0.44318 0.7806 0.0
O146 O 1.04581 0.52075 0.84057 0.0
O147 O 1.00566 0.5295 0.86095 0.0
O148 O 1.02243 0.48697 0.76442 0.0
O149 O 1.03238 0.52873 0.77113 0.0
O150 O 0.97729 0.51831 0.73963 0.0
O151 O 0.98859 0.54486 0.7826 0.0
H152 H 0.91382 0.42159 0.6909 0.0
H153 H 0.92373 0.39694 0.64046 0.0
H154 H 1.01011 0.40413 0.65959 0.0
H155 H 0.99993 0.42854 0.71033 0.0
H156 H 1.08443 0.51766 0.8818 0.0
H157 H 1.10296 0.50702 0.93502 0.0
H158 H 1.02193 0.50973 -0.02375 0.0
H159 H 1.0032 0.52066 0.9225 0.0
Pr160 Pr 0.75062 0.96661 0.88314 0.0
Pr161 Pr 0.72346 0.99876 0.92112 0.0
C162 C 0.78449 0.94417 0.83916 0.0
C163 C 0.79808 0.91757 0.83916 0.0
C164 C 0.80403 0.90432 0.86873 0.0
C165 C 0.8156 0.87832 0.8687 0.0
C166 C 0.82096 0.86504 0.83911 0.0
C167 C 0.81479 0.87835 0.8096 0.0
C168 C 0.80344 0.90442 0.80965 0.0
C169 C 0.73949 0.93582 0.93862 0.0
C170 C 0.78821 0.99244 0.9452 0.0
C171 C 0.68815 1.02743 0.95837 0.0
C172 C 0.67069 1.0234 -0.01306 0.0
C173 C 0.66241 1.04603 0.00514 0.0
C174 C 0.64607 1.04272 0.03267 0.0
C175 C 0.63762 1.01665 0.04245 0.0
C176 C 0.64606 0.99395 0.02408 0.0
C177 C 0.66252 0.9973 -0.00345 0.0
C178 C 0.74011 1.03023 0.86524 0.0
C179 C 0.68813 0.9437 0.89197 0.0
O180 O 0.79264 0.96134 0.86129 0.0
O181 O 0.75805 0.9435 0.83621 0.0
O182 O 0.74581 0.96062 0.93916 0.0
O183 O 0.73986 0.92593 0.90941 0.0
O184 O 0.76375 1.00064 0.95509 0.0
O185 O 0.78931 0.98049 0.9162 0.0
O186 O 0.71437 1.02681 0.96359 0.0
O187 O 0.68108 1.0148 0.93172 0.0
O188 O 0.72908 1.00674 0.86427 0.0
O189 O 0.74527 1.03599 0.89533 0.0
O190 O 0.70972 0.94161 0.87289 0.0
O191 O 0.68854 0.96362 0.91391 0.0
H192 H 0.79954 0.91403 0.89184 0.0
H193 H 0.82013 0.86849 0.89173 0.0
H194 H 0.81919 0.86878 0.7864 0.0
H195 H 0.79871 0.91425 0.78667 0.0
H196 H 0.66874 1.0663 -0.00184 0.0
H197 H 0.64041 1.06058 0.04658 0.0
H198 H 0.63975 0.97363 0.03078 0.0
H199 H 0.66886 0.97957 -0.01721 0.0
Pr200 Pr 0.51217 0.50428 0.63307 0.0
Pr201 Pr 0.47892 0.47625 0.67009 0.0
C202 C 0.53723 0.53357 0.58701 0.0
C203 C 0.56581 0.53293 0.5762 0.0
C204 C 0.58732 0.53319 0.59893 0.0
C205 C 0.61433 0.53118 0.58845 0.0
C206 C 0.62024 0.52838 0.55518 0.0
C207 C 0.59866 0.52743 0.53259 0.0
C208 C 0.57169 0.52977 0.54303 0.0
C209 C 0.54082 0.49145 0.69004 0.0
C210 C 0.484 0.54139 0.69304 0.0
C211 C 0.45028 0.44132 0.70729 0.0
C212 C 0.45385 0.42575 0.73748 0.0
C213 C 0.44107 0.40051 0.74064 0.0
C214 C 0.44383 0.38554 0.76936 0.0
C215 C 0.45933 0.39567 0.79552 0.0
C216 C 0.47248 0.42088 0.79199 0.0
C217 C 0.46986 0.43575 0.76314 0.0
C218 C 0.44788 0.49321 0.61407 0.0
C219 C 0.53497 0.44121 0.64171 0.0
O220 O 0.5326 0.54293 0.61627 0.0
O221 O 0.52316 0.51181 0.58028 0.0
O222 O 0.51618 0.49864 0.68909 0.0
O223 O 0.55185 0.49151 0.66133 0.0
O224 O 0.4781 0.5166 0.70381 0.0
O225 O 0.49418 0.54296 0.66309 0.0
O226 O 0.44863 0.46769 0.71016 0.0
O227 O 0.46499 0.43358 0.68246 0.0
O228 O 0.47198 0.48303 0.61332 0.0
O229 O 0.44125 0.49712 0.64414 0.0
O230 O 0.53823 0.46358 0.62431 0.0
O231 O 0.51387 0.44091 0.66209 0.0
H232 H 0.58332 0.53499 0.6248 0.0
H233 H 0.63062 0.5321 0.60627 0.0
H234 H 0.60269 0.52586 0.5067 0.0
H235 H 0.55539 0.52912 0.52518 0.0
H236 H 0.42887 0.39241 0.7209 0.0
H237 H 0.43388 0.36598 0.77102 0.0
H238 H 0.48433 0.42941 0.81174 0.0
H239 H 0.48009 0.45515 0.76101 0.0
Pr240 Pr 0.97399 0.26487 0.38034 0.0
Pr241 Pr 1.00227 0.23367 0.41848 0.0
C242 C 0.93897 0.27953 0.33279 0.0
C243 C 0.92841 0.26795 0.30228 0.0
C244 C 0.90017 0.26703 0.29756 0.0
C245 C 0.88946 0.2583 0.26793 0.0
C246 C 0.90685 0.2505 0.24229 0.0
C247 C 0.93515 0.24987 0.24773 0.0
C248 C 0.94588 0.2584 0.2776 0.0
C249 C 0.98475 0.29622 0.43553 0.0
C250 C 0.93795 0.2391 0.44375 0.0
C251 C 1.0381 0.20695 0.45678 0.0
C252 C 1.05138 0.21188 0.48824 0.0
C253 C 1.07816 0.20287 0.49317 0.0
C254 C 1.0911 0.20738 0.52296 0.0
C255 C 1.07736 0.22083 0.54845 0.0
C256 C 1.05055 0.23014 0.5432 0.0
C257 C 1.03771 0.22582 0.51328 0.0
C258 C 0.98691 0.2015 0.36251 0.0
C259 C 1.03618 0.28892 0.38837 0.0
O260 O 0.96444 0.28707 0.33337 0.0
O261 O 0.93132 0.26753 0.35954 0.0
O262 O 0.97914 0.27127 0.43613 0.0
O263 O 0.983 0.30632 0.40638 0.0
O264 O 0.96294 0.23281 0.45372 0.0
O265 O 0.93595 0.24951 0.41394 0.0
O266 O 1.01185 0.2028 0.45755 0.0
O267 O 1.04561 0.22259 0.43273 0.0
O268 O 0.99684 0.2255 0.3616 0.0
O269 O 0.98247 0.19539 0.39265 0.0
O270 O 1.01495 0.28976 0.36842 0.0
O271 O 1.03568 0.26989 0.41136 0.0
H272 H 0.88636 0.27407 0.3164 0.0
H273 H 0.86759 0.25953 0.2644 0.0
H274 H 0.94899 0.24394 0.22841 0.0
H275 H 0.9678 0.25841 0.28093 0.0
H276 H 1.08909 0.19237 0.47394 0.0
H277 H 1.11197 0.20048 0.52591 0.0
H278 H 1.0393 0.24037 0.56235 0.0
H279 H 1.01705 0.23319 0.50979 0.0
Pr280 Pr 0.21499 0.72732 0.13184 0.0
Pr281 Pr 0.24716 0.75507 0.17174 0.0
C282 C 0.20022 0.69132 0.08573 0.0
C283 C 0.19281 0.66254 0.08528 0.0
C284 C 0.18725 0.64856 0.11433 0.0
C285 C 0.17956 0.62123 0.11347 0.0
C286 C 0.17727 0.60756 0.08351 0.0
C287 C 0.18363 0.62163 0.05458 0.0
C288 C 0.19139 0.64885 0.05551 0.0
C289 C 0.18529 0.73798 0.18842 0.0
C290 C 0.24138 0.68962 0.19414 0.0
C291 C 0.27234 0.79019 0.21218 0.0
C292 C 0.26633 0.80416 0.24309 0.0
C293 C 0.27154 0.83204 0.24574 0.0
C294 C 0.26599 0.84581 0.27474 0.0
C295 C 0.25534 0.8319 0.30185 0.0
C296 C 0.24986 0.80394 0.29897 0.0
C297 C 0.25518 0.79022 0.2698 0.0
C298 C 0.2789 0.74116 0.11517 0.0
C299 C 0.19277 0.78995 0.13874 0.0
O300 O 0.22559 0.69644 0.093 0.0
O301 O 0.183 0.7078 0.09989 0.0
O302 O 0.21002 0.73105 0.18767 0.0
O303 O 0.17442 0.73822 0.15954 0.0
O304 O 0.2498 0.7139 0.20407 0.0
O305 O 0.22854 0.68881 0.16563 0.0
O306 O 0.27598 0.76391 0.21338 0.0
O307 O 0.2582 0.79799 0.18686 0.0
O308 O 0.25457 0.75093 0.11467 0.0
O309 O 0.28564 0.73666 0.14513 0.0
O310 O 0.19226 0.76906 0.11836 0.0
O311 O 0.21108 0.78887 0.16269 0.0
H312 H 0.1884 0.6589 0.13759 0.0
H313 H 0.17493 0.61098 0.13615 0.0
H314 H 0.1815 0.61199 0.03099 0.0
H315 H 0.19572 0.65938 0.03291 0.0
H316 H 0.27986 0.84321 0.22529 0.0
H317 H 0.2699 0.86745 0.27579 0.0
H318 H 0.24189 0.79253 0.31939 0.0
H319 H 0.25071 0.7687 0.26825 0.0
Pr320 Pr 0.99918 0.73808 0.52621 0.0
Pr321 Pr 0.96948 0.76702 0.56556 0.0
C322 C 1.0341 0.71236 0.48578 0.0
C323 C 1.05048 0.719 0.4568 0.0
C324 C 1.07739 0.70956 0.45454 0.0
C325 C 1.09256 0.71407 0.42624 0.0
C326 C 1.08095 0.72788 0.39948 0.0
C327 C 1.05418 0.73801 0.40227 0.0
C328 C 1.03915 0.73376 0.4307 0.0
C329 C 0.98268 0.704 0.58057 0.0
C330 C 1.03176 0.7937 0.55729 0.0
C331 C 0.94277 0.78373 0.61927 0.0
C332 C 0.93793 0.77417 0.65277 0.0
C333 C 0.91116 0.76824 0.66219 0.0
C334 C 0.90538 0.76106 0.69425 0.0
C335 C 0.92624 0.75988 0.71776 0.0
C336 C 0.95332 0.76438 0.70793 0.0
C337 C 0.95915 0.77141 0.67563 0.0
C338 C 0.96817 0.79522 0.50698 0.0
C339 C 0.93529 0.74145 0.50223 0.0
O340 O 1.00769 0.7125 0.48188 0.0
O341 O 1.04178 0.72278 0.51357 0.0
O342 O 0.99303 0.72763 0.58232 0.0
O343 O 0.97779 0.69915 0.55017 0.0
O344 O 1.00755 0.79774 0.57093 0.0
O345 O 1.03467 0.77109 0.5397 0.0
O346 O 0.96712 0.79231 0.61168 0.0
O347 O 0.93146 0.7694 0.59626 0.0
O348 O 0.98919 0.78344 0.51803 0.0
O349 O 0.94759 0.79378 0.52666 0.0
O350 O 0.96039 0.74041 0.49074 0.0
O351 O 0.93296 0.74615 0.53402 0.0
H352 H 1.08657 0.69833 0.47449 0.0
H353 H 1.11332 0.70653 0.42529 0.0
H354 H 1.04444 0.74851 0.38215 0.0
H355 H 1.01845 0.7415 0.43192 0.0
H356 H 0.89448 0.77013 0.64497 0.0
H357 H 0.88422 0.75832 0.70101 0.0
H358 H 0.96979 0.76363 0.72553 0.0
H359 H 0.98008 0.77549 0.66887 0.0
Pr360 Pr 0.24219 0.25524 0.77787 0.0
Pr361 Pr 0.20856 0.22919 0.81609 0.0
C362 C 0.27078 0.28887 0.73905 0.0
C363 C 0.26647 0.30266 0.70772 0.0
C364 C 0.27641 0.32903 0.70333 0.0
C365 C 0.27243 0.34252 0.67377 0.0
C366 C 0.25859 0.32976 0.64791 0.0
C367 C 0.24842 0.30334 0.65257 0.0
C368 C 0.25219 0.28997 0.68229 0.0
C369 C 0.27288 0.23949 0.83507 0.0
C370 C 0.18723 0.29228 0.80531 0.0
C371 C 0.18258 0.1996 0.8613 0.0
C372 C 0.15318 0.19596 0.86692 0.0
C373 C 0.13559 0.18881 0.84121 0.0
C374 C 1.10757 0.18667 0.84651 0.0
C375 C 1.0966 0.19211 0.87741 0.0
C376 C 1.11413 0.19989 0.90286 0.0
C377 C 0.14219 0.20171 0.89767 0.0
C378 C 0.1798 0.24106 0.75894 0.0
C379 C 0.23565 0.19035 0.75582 0.0
O380 O 0.27312 0.26244 0.73815 0.0
O381 O 0.25601 0.29751 0.76343 0.0
O382 O 0.24903 0.2502 0.83517 0.0
O383 O 0.27944 0.23435 0.80522 0.0
O384 O 0.18497 0.27138 0.82535 0.0
O385 O 0.20686 0.29056 0.78301 0.0
O386 O 0.19261 0.189 0.83472 0.0
O387 O 0.19189 0.2239 0.86718 0.0
O388 O 0.20424 0.23328 0.76008 0.0
O389 O 0.16884 0.24181 0.78765 0.0
O390 O 0.24277 0.21466 0.74478 0.0
O391 O 0.22488 0.18967 0.78561 0.0
H392 H 0.2872 0.33923 0.72285 0.0
H393 H 0.28001 0.36306 0.6713 0.0
H394 H 0.23789 0.29281 0.63314 0.0
H395 H 0.24408 0.26966 0.6853 0.0
H396 H 0.14344 0.18485 0.817 0.0
H397 H 1.09447 0.18054 0.82656 0.0
H398 H 1.10625 0.20366 0.92711 0.0
H399 H 0.15533 0.20759 0.91769 0.0
Pr400 Pr 0.72132 0.50031 0.02766 0.0
Pr401 Pr 0.74897 0.46757 0.06468 0.0
C402 C 0.6859 0.52798 -0.01023 0.0
C403 C 0.67215 0.52307 0.95857 0.0
C404 C 0.64528 0.53205 0.95419 0.0
C405 C 0.63182 0.5273 0.92477 0.0
C406 C 0.64512 0.51367 0.89908 0.0
C407 C 0.67205 0.50449 0.90375 0.0
C408 C 0.6854 0.509 0.93331 0.0
C409 C 0.73762 0.53172 0.08391 0.0
C410 C 0.68578 0.44553 0.05676 0.0
C411 C 0.7823 0.4435 0.10824 0.0
C412 C 0.79191 0.41533 0.11103 0.0
C413 C 0.79404 0.39875 0.08323 0.0
C414 C 0.80184 0.3715 0.08622 0.0
C415 C 0.80722 0.36039 0.11708 0.0
C416 C 0.80494 0.3771 0.14482 0.0
C417 C 0.79733 0.40435 0.14179 0.0
C418 C 0.73643 0.43812 0.00842 0.0
C419 C 0.78572 0.49441 0.00245 0.0
O420 O 0.71225 0.53135 -0.01142 0.0
O421 O 0.67818 0.51282 0.01416 0.0
O422 O 0.72779 0.50764 0.08479 0.0
O423 O 0.74148 0.53817 0.05377 0.0
O424 O 0.7073 0.44362 0.0761 0.0
O425 O 0.68664 0.46498 0.03427 0.0
O426 O 0.79121 0.45716 0.08322 0.0
O427 O 0.75635 0.44718 0.11345 0.0
O428 O 0.74358 0.46264 0.00879 0.0
O429 O 0.73678 0.42752 0.03731 0.0
O430 O 0.76088 0.50155 -0.00727 0.0
O431 O 0.78748 0.48326 0.03195 0.0
H432 H 0.63466 0.54263 0.9736 0.0
H433 H 0.61089 0.53412 0.92231 0.0
H434 H 0.683 0.49416 0.88443 0.0
H435 H 0.7061 0.5016 0.93635 0.0
H436 H 0.78952 0.40683 0.05924 0.0
H437 H 0.80342 0.35908 0.0645 0.0
H438 H 0.80948 0.36921 0.16889 0.0
H439 H 0.79555 0.41682 0.16347 0.0
Pr440 Pr 0.47671 0.9792 0.27492 0.0
Pr441 Pr 0.5078 1.00722 0.31413 0.0
C442 C 0.44998 0.94522 0.23487 0.0
C443 C 0.45753 0.92848 0.20658 0.0
C444 C 0.44703 0.90221 0.20336 0.0
C445 C 0.45306 0.88668 0.17576 0.0
C446 C 0.46946 0.89732 0.15068 0.0
C447 C 0.48052 0.92346 0.1545 0.0
C448 C 0.4748 0.93879 0.18227 0.0
C449 C 0.4435 0.99631 0.32986 0.0
C450 C 0.53235 0.94421 0.30387 0.0
C451 C 0.53382 1.03103 0.36439 0.0
C452 C 0.56036 1.04432 0.36716 0.0
C453 C 0.57569 1.05001 0.33911 0.0
C454 C 0.60221 1.05995 0.34182 0.0
C455 C 0.61383 1.06415 0.37267 0.0
C456 C 0.59816 1.05885 0.4007 0.0
C457 C 0.57165 1.04893 0.39794 0.0
C458 C 0.53383 1.00763 0.25379 0.0
C459 C 0.48129 1.0436 0.25265 0.0
O460 O 0.45101 0.9715 0.23049 0.0
O461 O 0.45941 0.9375 0.26323 0.0
O462 O 0.46732 0.98582 0.33151 0.0
O463 O 0.4382 1.00082 0.2995 0.0
O464 O 0.53606 0.9672 0.32 0.0
O465 O 0.51058 0.9432 0.28444 0.0
O466 O 0.51527 1.04352 0.34705 0.0
O467 O 0.53511 1.00507 0.35836 0.0
O468 O 0.52221 0.98713 0.26576 0.0
O469 O 0.53326 1.02823 0.27334 0.0
O470 O 0.47803 1.01879 0.24099 0.0
O471 O 0.4882 1.04539 0.284 0.0
H472 H 0.43393 0.8938 0.22204 0.0
H473 H 0.44472 0.86638 0.17404 0.0
H474 H 0.49298 0.93249 0.13564 0.0
H475 H 0.48347 0.95894 0.18438 0.0
H476 H 0.56739 1.04622 0.31514 0.0
H477 H 0.61379 1.06379 0.31985 0.0
H478 H 0.60636 1.06246 0.42483 0.0
H479 H 0.56014 1.04444 0.4198 0.0
Pr480 Pr 0.24921 0.46416 0.38186 0.0
Pr481 Pr 0.22224 0.4968 0.41899 0.0
C482 C 0.28652 0.44409 0.3403 0.0
C483 C 0.31194 0.42827 0.34521 0.0
C484 C 0.31149 0.39976 0.3433 0.0
C485 C 0.33521 0.3846 0.34847 0.0
C486 C 0.36001 0.3976 0.35536 0.0
C487 C 0.36047 0.42609 0.3577 0.0
C488 C 0.33666 0.44129 0.35274 0.0
C489 C 0.23863 0.43491 0.43883 0.0
C490 C 0.28671 0.49136 0.44379 0.0
C491 C 0.18546 0.52465 0.45487 0.0
C492 C 0.16808 0.52018 0.48348 0.0
C493 C 0.14152 0.53077 0.4837 0.0
C494 C 0.12487 0.52735 0.51096 0.0
C495 C 0.13459 0.51341 0.53862 0.0
C496 C 0.16111 0.50234 0.538 0.0
C497 C 0.17766 0.50558 0.51061 0.0
C498 C 0.23823 0.52778 0.36271 0.0
C499 C 0.18676 0.44288 0.3886 0.0
O500 O 0.28653 0.46938 0.35006 0.0
O501 O 0.26377 0.43163 0.34699 0.0
O502 O 0.24522 0.4596 0.43806 0.0
O503 O 0.23817 0.42418 0.41001 0.0
O504 O 0.26239 0.50063 0.45273 0.0
O505 O 0.28765 0.47756 0.41597 0.0
O506 O 0.21171 0.52565 0.45993 0.0
O507 O 0.17899 0.51131 0.42852 0.0
O508 O 0.22758 0.50402 0.36189 0.0
O509 O 0.24325 0.53387 0.39272 0.0
O510 O 0.20669 0.4435 0.36691 0.0
O511 O 0.18914 0.46003 0.41344 0.0
H512 H 0.29283 0.38911 0.33745 0.0
H513 H 0.33434 0.36271 0.34569 0.0
H514 H 0.37935 0.43662 0.3628 0.0
H515 H 0.33771 0.46323 0.35454 0.0
H516 H 0.13371 0.54186 0.46282 0.0
H517 H 1.10439 0.53569 0.51036 0.0
H518 H 0.16938 0.49176 0.55897 0.0
H519 H 0.19806 0.49698 0.51083 0.0
Pr520 Pr 1.01316 1.00604 0.13048 0.0
Pr521 Pr 0.98472 0.97573 0.16717 0.0
C522 C 1.03017 1.02809 0.07425 0.0
C523 C 1.02067 1.05022 0.05291 0.0
C524 C 1.03859 1.07147 0.04597 0.0
C525 C 1.03005 1.09335 0.02701 0.0
C526 C 1.00339 1.09439 0.01437 0.0
C527 C 0.98538 1.073 0.02107 0.0
C528 C 0.99388 1.05114 0.04052 0.0
C529 C 1.042 1.00525 0.18813 0.0
C530 C 0.98734 1.04228 0.1897 0.0
C531 C 0.95312 0.94961 0.21094 0.0
C532 C 0.95606 0.93489 0.24175 0.0
C533 C 0.93279 0.92891 0.26002 0.0
C534 C 0.93504 0.9139 0.28877 0.0
C535 C 0.96065 0.90455 0.29962 0.0
C536 C 0.98404 0.91104 0.28142 0.0
C537 C 0.98175 0.92614 0.25268 0.0
C538 C 0.95481 0.98399 0.10718 0.0
C539 C 1.03915 0.94189 0.13924 0.0
O540 O 1.01537 1.00605 0.07543 0.0
O541 O 1.03942 1.0356 0.10267 0.0
O542 O 1.03043 0.98423 0.17665 0.0
O543 O 1.03957 1.02655 0.16961 0.0
O544 O 0.98226 1.01709 0.19963 0.0
O545 O 0.9968 1.04498 0.15969 0.0
O546 O 0.95745 0.97573 0.2118 0.0
O547 O 0.96371 0.93792 0.18539 0.0
O548 O 0.96553 1.00231 0.1249 0.0
O549 O 0.96295 0.96067 0.11818 0.0
O550 O 1.04099 0.96507 0.12271 0.0
O551 O 1.01875 0.94036 0.16028 0.0
H552 H 1.05929 1.07116 0.05527 0.0
H553 H 1.04462 1.10919 0.02151 0.0
H554 H 0.96484 1.07325 0.01133 0.0
H555 H 0.97954 1.03506 0.04582 0.0
H556 H 0.91284 0.93568 0.25192 0.0
H557 H 0.91671 0.90969 0.30254 0.0
H558 H 1.00401 0.90395 0.28899 0.0
H559 H 0.99994 0.93066 0.23875 0.0
Pr560 Pr 0.47463 0.76717 0.88257 0.0
Pr561 Pr 0.50371 0.73353 0.91866 0.0
C562 C 0.44185 0.79203 0.83911 0.0
C563 C 0.43665 0.82083 0.83236 0.0
C564 C 0.45525 0.84073 0.84261 0.0
C565 C 0.44968 0.86828 0.83736 0.0
C566 C 0.42531 0.87628 0.82203 0.0
C567 C 0.40674 0.85617 0.81196 0.0
C568 C 0.41236 0.82868 0.81716 0.0
C569 C 0.48793 0.79483 0.94003 0.0
C570 C 0.43863 0.73841 0.94301 0.0
C571 C 0.53996 0.70533 0.95509 0.0
C572 C 0.55727 0.71056 -0.01651 0.0
C573 C 0.56853 0.68864 0.00066 0.0
C574 C 0.58452 0.69324 0.02824 0.0
C575 C 0.5896 0.71991 0.03908 0.0
C576 C 0.57827 0.74187 0.02162 0.0
C577 C 0.56216 0.73722 -0.00593 0.0
C578 C 0.48565 0.70271 0.86309 0.0
C579 C 0.53754 0.79011 0.89052 0.0
O580 O 0.43332 0.7835 0.86737 0.0
O581 O 0.46615 0.78296 0.83175 0.0
O582 O 0.481 0.77032 0.93848 0.0
O583 O 0.48707 0.80643 0.91168 0.0
O584 O 0.46362 0.73188 0.95301 0.0
O585 O 0.4366 0.74934 0.91351 0.0
O586 O 0.51376 0.70512 0.96048 0.0
O587 O 0.54646 0.71807 0.92832 0.0
O588 O 0.49547 0.72684 0.86196 0.0
O589 O 0.48281 0.69596 0.89331 0.0
O590 O 0.51491 0.79349 0.87342 0.0
O591 O 0.53836 0.7688 0.91052 0.0
H592 H 0.47404 0.83497 0.85474 0.0
H593 H 0.46432 0.88328 0.84538 0.0
H594 H 0.38805 0.86164 0.79941 0.0
H595 H 0.39775 0.81357 0.80931 0.0
H596 H 0.56473 0.66794 -0.00709 0.0
H597 H 0.59246 0.67584 0.04145 0.0
H598 H 0.58195 0.76264 0.02915 0.0
H599 H 0.55346 0.75439 -0.01892 0.0
Pr600 Pr 0.71453 0.22818 0.63393 0.0
Pr601 Pr 0.74621 0.25655 0.67164 0.0
C602 C 0.69944 0.19392 0.58615 0.0
C603 C 0.71109 0.18355 0.55555 0.0
C604 C 0.71188 0.15544 0.55032 0.0
C605 C 0.72024 0.14508 0.52034 0.0
C606 C 0.72776 0.1627 0.4949 0.0
C607 C 0.72873 0.19081 0.5009 0.0
C608 C 0.72059 0.20118 0.53111 0.0
C609 C 0.68426 0.23893 0.69019 0.0
C610 C 0.74139 0.19189 0.69633 0.0
C611 C 0.77242 0.29217 0.71038 0.0
C612 C 0.76647 0.3056 0.74157 0.0
C613 C 0.77272 0.33316 0.74551 0.0
C614 C 0.76631 0.34651 0.77455 0.0
C615 C 0.75369 0.33242 0.8002 0.0
C616 C 0.74751 0.30476 0.79625 0.0
C617 C 0.75365 0.29149 0.76706 0.0
C618 C 0.77782 0.2408 0.6154 0.0
C619 C 0.6895 0.29002 0.64215 0.0
O620 O 0.69218 0.21947 0.58694 0.0
O621 O 0.7112 0.18575 0.61293 0.0
O622 O 0.70926 0.23318 0.68979 0.0
O623 O 0.67344 0.23744 0.66137 0.0
O624 O 0.74762 0.21678 0.70636 0.0
O625 O 0.73056 0.19003 0.66674 0.0
O626 O 0.77673 0.26598 0.71131 0.0
O627 O 0.75734 0.29968 0.68572 0.0
O628 O 0.75378 0.25103 0.61481 0.0
O629 O 0.78435 0.23632 0.64544 0.0
O630 O 0.68726 0.2679 0.62406 0.0
O631 O 0.71022 0.29064 0.6631 0.0
H632 H 0.70489 0.14152 0.56897 0.0
H633 H 0.7188 0.12336 0.51636 0.0
H634 H 0.73445 0.20481 0.48173 0.0
H635 H 0.72071 0.22298 0.53482 0.0
H636 H 0.78245 0.34439 0.72603 0.0
H637 H 0.7715 0.36779 0.77711 0.0
H638 H 0.73755 0.29353 0.81556 0.0
H639 H 0.74822 0.27027 0.76437 0.0
H640 H 0.54838 0.32964 0.10761 0.0
H641 H 0.57089 0.30773 0.00977 0.0
H642 H 0.58371 0.36504 0.10783 0.0
H643 H 0.60555 0.34364 0.00956 0.0
H644 H 0.64881 0.42973 0.00808 0.0
H645 H 0.61395 0.39395 0.00853 0.0
H646 H 0.63408 0.37541 0.10822 0.0
H647 H 0.66955 0.41061 0.10735 0.0
C648 C 0.56077 0.33215 0.08601 0.0
C649 C 0.5562 0.31493 0.05878 0.0
C650 C 0.58139 0.35276 0.08613 0.0
C651 C 0.59824 0.35807 0.05867 0.0
C652 C 0.59342 0.341 0.03134 0.0
C653 C 0.57333 0.31992 0.03155 0.0
C654 C 0.6459 0.41823 0.0303 0.0
C655 C 0.66258 0.42394 0.05774 0.0
C656 C 0.62571 0.39722 0.03051 0.0
C657 C 0.62037 0.38098 0.05844 0.0
C658 C 0.63678 0.38704 0.08607 0.0
C659 C 0.65748 0.40755 0.08556 0.0
H660 H 0.66867 0.82733 0.25511 0.0
H661 H 0.65307 0.81052 0.35624 0.0
H662 H 0.63205 0.8616 0.25504 0.0
H663 H 0.61701 0.84559 0.35653 0.0
H664 H 0.5713 0.93188 0.35181 0.0
H665 H 0.60695 0.89652 0.35276 0.0
H666 H 0.58078 0.86875 0.25839 0.0
H667 H 0.54449 0.9035 0.25803 0.0
C668 C 0.65774 0.83098 0.27761 0.0
C669 C 0.66467 0.81558 0.30574 0.0
C670 C 0.63626 0.85082 0.27751 0.0
C671 C 0.62079 0.85713 0.30577 0.0
C672 C 0.62803 0.84202 0.33408 0.0
C673 C 0.649 0.82158 0.33393 0.0
C674 C 0.57277 0.91814 0.33127 0.0
C675 C 0.55414 0.92107 0.30497 0.0
C676 C 0.59352 0.89753 0.33183 0.0
C677 C 0.59756 0.87906 0.30564 0.0
C678 C 0.57906 0.88219 0.27919 0.0
C679 C 0.5578 0.9023 0.27906 0.0
H680 H 0.12961 0.9475 0.5336 0.0
H681 H 0.18508 0.89408 0.58402 0.0
H682 H 1.09448 0.91198 0.53465 0.0
H683 H 0.15029 0.85817 0.58404 0.0
H684 H 1.08846 0.78949 0.54691 0.0
H685 H 0.12371 0.825 0.54818 0.0
H686 H 1.06233 0.88497 0.57049 0.0
H687 H 1.02736 0.84937 0.5704 0.0
C688 C 0.13452 0.92826 0.54509 0.0
C689 C 0.16076 0.92449 0.55907 0.0
C690 C 1.11406 0.90757 0.54572 0.0
C691 C 0.1188 0.88141 0.55941 0.0
C692 C 0.1452 0.87754 0.57302 0.0
C693 C 0.16539 0.89853 0.57324 0.0
C694 C 1.0823 0.81016 0.55242 0.0
C695 C 1.0544 0.81581 0.55881 0.0
C696 C 1.10282 0.83084 0.5532 0.0
C697 C 1.09661 0.85864 0.5594 0.0
C698 C 1.06863 0.86427 0.5654 0.0
C699 C 1.04827 0.84349 0.56554 0.0
H700 H 1.04704 0.40476 0.75505 0.0
H701 H 1.0697 0.42966 0.8518 0.0
H702 H 1.08365 0.37039 0.75553 0.0
H703 H 1.10576 0.39474 0.85273 0.0
H704 H 0.15242 0.30977 0.85523 0.0
H705 H 0.11655 0.34484 0.85487 0.0
H706 H 0.13442 0.36232 0.75437 0.0
H707 H 0.17092 0.32777 0.75511 0.0
C708 C 1.05952 0.40288 0.77673 0.0
C709 C 1.05456 0.42054 0.80347 0.0
C710 C 1.08099 0.383 0.77692 0.0
C711 C 1.09846 0.37902 0.80419 0.0
C712 C 1.09316 0.39641 0.83113 0.0
C713 C 1.07217 0.41677 0.8306 0.0
C714 C 0.14909 0.3212 0.83301 0.0
C715 C 0.1655 0.31547 0.80534 0.0
C716 C 0.1282 0.34165 0.83279 0.0
C717 C 0.12176 0.35716 0.80457 0.0
C718 C 0.13802 0.35122 0.77677 0.0
C719 C 0.15943 0.33126 0.77726 0.0
H720 H 0.63338 0.94572 0.91316 0.0
H721 H 0.69089 0.89009 0.87006 0.0
H722 H 0.59835 0.90993 0.91237 0.0
H723 H 0.65634 0.85412 0.87046 0.0
H724 H 0.59328 0.78693 0.90756 0.0
H725 H 0.62826 0.82277 0.90746 0.0
H726 H 0.56832 0.88087 0.87474 0.0
H727 H 0.53375 0.84493 0.87361 0.0
C728 C 0.63878 0.92594 0.90346 0.0
C729 C 0.66554 0.92158 0.89134 0.0
C730 C 0.61841 0.90511 0.90296 0.0
C731 C 0.62382 0.87836 0.89137 0.0
C732 C 0.65074 0.87395 0.87981 0.0
C733 C 0.67081 0.89497 0.87939 0.0
C734 C 0.58742 0.80724 0.90002 0.0
C735 C 0.5601 0.81227 0.89024 0.0
C736 C 0.60776 0.8281 0.89993 0.0
C737 C 0.60181 0.85548 0.89113 0.0
C738 C 0.57435 0.86053 0.88191 0.0
C739 C 0.55427 0.83953 0.88105 0.0
H740 H 0.53212 0.38584 0.65983 0.0
H741 H 0.58953 0.44419 0.62321 0.0
H742 H 0.56809 0.35061 0.65936 0.0
H743 H 0.62558 0.4094 0.62389 0.0
H744 H 0.69168 0.34502 0.66123 0.0
H745 H 0.6556 0.38006 0.66067 0.0
H746 H 0.59886 0.32157 0.62272 0.0
H747 H 0.63513 0.28692 0.62215 0.0
C748 C 0.55232 0.39139 0.65163 0.0
C749 C 0.55715 0.41846 0.64125 0.0
C750 C 0.57326 0.3709 0.65131 0.0
C751 C 0.60052 0.37646 0.64162 0.0
C752 C 0.60535 0.40366 0.63176 0.0
C753 C 0.58428 0.42388 0.63117 0.0
C754 C 0.67163 0.33949 0.65245 0.0
C755 C 0.6671 0.31255 0.64141 0.0
C756 C 0.65062 0.35988 0.65208 0.0
C757 C 0.62353 0.35436 0.64168 0.0
C758 C 0.61896 0.32727 0.63116 0.0
C759 C 0.64014 0.30714 0.63061 0.0
H760 H 1.07426 0.3036 0.43608 0.0
H761 H 1.05027 0.32581 0.33876 0.0
H762 H 1.10869 0.33967 0.43589 0.0
H763 H 1.08516 0.36156 0.3382 0.0
H764 H 0.16898 0.40963 0.33696 0.0
H765 H 0.13405 0.3739 0.33633 0.0
H766 H 0.11782 0.38866 0.4379 0.0
H767 H 0.15225 0.4247 0.43824 0.0
C768 C 1.07632 0.31591 0.41435 0.0
C769 C 1.0589 0.31094 0.38736 0.0
C770 C 1.09626 0.3371 0.41431 0.0
C771 C 1.10051 0.35438 0.38703 0.0
C772 C 1.08333 0.34911 0.35984 0.0
C773 C 1.06295 0.3283 0.36016 0.0
C774 C 0.15789 0.40557 0.35922 0.0
C775 C 0.16396 0.42094 0.38758 0.0
C776 C 0.1375 0.38478 0.35887 0.0
C777 C 0.12235 0.37751 0.38708 0.0
C778 C 0.12864 0.39281 0.41547 0.0
C779 C 0.14857 0.41399 0.41562 0.0
H780 H 0.19432 0.84381 0.16181 0.0
H781 H 0.13994 0.78879 0.11306 0.0
H782 H 0.15873 0.87936 0.16069 0.0
H783 H 1.10402 0.82387 0.11321 0.0
H784 H 1.03624 0.88618 0.15359 0.0
H785 H 1.0721 0.85098 0.15227 0.0
H786 H 0.1304 0.9109 0.12182 0.0
H787 H 1.09426 0.94583 0.12176 0.0
C788 C 0.17486 0.83908 0.15073 0.0
C789 C 0.17079 0.81286 0.13719 0.0
C790 C 0.15416 0.85976 0.15006 0.0
C791 C 0.12776 0.85518 0.13689 0.0
C792 C 0.12362 0.82881 0.12378 0.0
C793 C 0.14459 0.80845 0.1235 0.0
C794 C 1.05658 0.89201 0.14623 0.0
C795 C 1.0616 0.91945 0.13746 0.0
C796 C 1.07746 0.87153 0.14545 0.0
C797 C 1.10489 0.8774 0.13698 0.0
C798 C 1.10996 0.90495 0.12866 0.0
C799 C 1.0889 0.92524 0.12843 0.0
H800 H 0.27266 0.26305 0.89853 0.0
H801 H 0.32355 0.21547 0.83484 0.0
H802 H 0.30964 0.26388 0.93926 0.0
H803 H 0.35973 0.21538 0.87512 0.0
H804 H 0.43318 0.23449 0.93874 0.0
H805 H 0.39529 0.23436 0.90072 0.0
H806 H 0.33927 0.24803 -0.0199 0.0
H807 H 0.37795 0.24904 0.01829 0.0
C808 C 0.29155 0.25249 0.89311 0.0
C809 C 0.29452 0.23926 0.86262 0.0
C810 C 0.31312 0.25288 0.91682 0.0
C811 C 0.33886 0.24002 0.91139 0.0
C812 C 0.34125 0.22637 0.88104 0.0
C813 C 0.31993 0.22614 0.85752 0.0
C814 C 0.41285 0.2373 0.94849 0.0
C815 C 0.40938 0.24147 -0.01762 0.0
C816 C 0.39055 0.23706 0.92624 0.0
C817 C 0.36306 0.2408 0.93629 0.0
C818 C 0.35956 0.24515 0.97035 0.0
C819 C 0.38207 0.24552 -0.00728 0.0
H820 H 0.72801 0.52789 0.15229 0.0
H821 H 0.74744 0.58651 0.07819 0.0
H822 H 0.72895 0.56415 0.19357 0.0
H823 H 0.74727 0.62254 0.11823 0.0
H824 H 0.76173 0.68708 0.19555 0.0
H825 H 0.76263 0.64952 0.15713 0.0
H826 H 0.71581 0.60086 0.2242 0.0
H827 H 0.71611 0.63852 0.26324 0.0
C828 C 0.73241 0.54845 0.14454 0.0
C829 C 0.73778 0.55357 0.11117 0.0
C830 C 0.73282 0.56973 0.16852 0.0
C831 C 0.73844 0.5974 0.16051 0.0
C832 C 0.7435 0.60217 0.12693 0.0
C833 C 0.74335 0.58103 0.10327 0.0
C834 C 0.75176 0.66835 0.20246 0.0
C835 C 0.73904 0.66651 0.23332 0.0
C836 C 0.75193 0.64635 0.1798 0.0
C837 C 0.73898 0.62104 0.18617 0.0
C838 C 0.7264 0.61922 0.21734 0.0
C839 C 0.7265 0.64123 0.2402 0.0
H840 H 0.44596 0.98351 0.39718 0.0
H841 H 0.38894 1.00986 0.32391 0.0
H842 H 0.40937 0.98419 0.43795 0.0
H843 H 0.35231 1.00969 0.36372 0.0
H844 H 0.28787 1.02288 0.44342 0.0
H845 H 0.32549 1.02424 0.40452 0.0
H846 H 0.37206 0.97001 0.46604 0.0
H847 H 0.33471 0.96963 0.50525 0.0
C848 C 0.42565 0.98942 0.38951 0.0
C849 C 0.42111 0.9967 0.35655 0.0
C850 C 0.40415 0.98965 0.4132 0.0
C851 C 0.37674 0.99706 0.40533 0.0
C852 C 0.3725 1.00428 0.37218 0.0
C853 C 0.39392 1.0042 0.34872 0.0
C854 C 0.30617 1.01136 0.44895 0.0
C855 C 0.30756 0.99629 0.47832 0.0
C856 C 0.32815 1.01186 0.42606 0.0
C857 C 0.35294 0.9971 0.43086 0.0
C858 C 0.35421 0.98214 0.46049 0.0
C859 C 0.3323 0.9818 0.48343 0.0
H860 H 0.96051 0.65259 0.57748 0.0
H861 H 1.00229 0.70416 0.64556 0.0
H862 H 0.95889 0.61645 0.61772 0.0
H863 H 1.00178 0.66739 0.68615 0.0
H864 H 0.98636 0.59944 0.76394 0.0
H865 H 0.98622 0.63769 0.72541 0.0
H866 H 0.97505 0.58129 0.64602 0.0
H867 H 0.97414 0.54387 0.68441 0.0
C868 C 0.96961 0.65633 0.60111 0.0
C869 C 0.9816 0.68191 0.60746 0.0
C870 C 0.96895 0.63507 0.62466 0.0
C871 C 0.98054 0.63772 0.65627 0.0
C872 C 0.99232 0.66361 0.66278 0.0
C873 C 0.99277 0.68509 0.63911 0.0
C874 C 0.98353 0.59516 0.73828 0.0
C875 C 0.97985 0.56788 0.72808 0.0
C876 C 0.98369 0.61743 0.71568 0.0
C877 C 0.98039 0.61373 0.68145 0.0
C878 C 0.97697 0.58626 0.67156 0.0
C879 C 0.97659 0.5642 0.69407 0.0
H880 H 0.79582 1.01977 0.00454 0.0
H881 H 0.83859 0.96636 0.9389 0.0
H882 H 0.83519 1.01917 0.04168 0.0
H883 H 0.87774 0.96546 -0.024 0.0
H884 H 0.93367 0.94568 0.06501 0.0
H885 H 0.8954 0.94866 0.02692 0.0
H886 H 0.88255 1.03233 0.05416 0.0
H887 H 0.92139 1.02931 0.09224 0.0
C888 C 0.8136 1.00796 -0.00229 0.0
C889 C 0.8134 0.99326 0.96798 0.0
C890 C 0.83655 1.00766 0.01926 0.0
C891 C 0.86044 0.99218 0.01267 0.0
C892 C 0.86013 0.97751 -0.01712 0.0
C893 C 0.83742 0.97819 0.96111 0.0
C894 C 0.92295 0.96491 0.06289 0.0
C895 C 0.93133 0.98721 0.08225 0.0
C896 C 0.9007 0.96668 0.04061 0.0
C897 C 0.88506 0.99078 0.03664 0.0
C898 C 0.89341 1.01319 0.0561 0.0
C899 C 0.91609 1.01153 0.07808 0.0
H900 H 0.49398 0.70611 0.7943 0.0
H901 H 0.47623 0.64803 0.86965 0.0
H902 H 0.49255 0.6694 0.75355 0.0
H903 H 0.47598 0.61167 0.8302 0.0
H904 H 0.46058 0.5462 0.75458 0.0
H905 H 0.45992 0.58431 0.7922 0.0
H906 H 0.50554 0.63231 0.72327 0.0
H907 H 0.50494 0.59409 0.68501 0.0
C908 C 0.48984 0.6856 0.80243 0.0
C909 C 0.4851 0.68075 0.83599 0.0
C910 C 0.48915 0.66407 0.77877 0.0
C911 C 0.48387 0.63644 0.78735 0.0
C912 C 0.47943 0.63197 0.82109 0.0
C913 C 0.47984 0.65333 0.8444 0.0
C914 C 0.47035 0.56489 0.74711 0.0
C915 C 0.48267 0.56637 0.71601 0.0
C916 C 0.47033 0.58721 0.76929 0.0
C917 C 0.48305 0.61249 0.76215 0.0
C918 C 0.49518 0.61398 0.7307 0.0
C919 C 0.49491 0.59164 0.70832 0.0
H920 H 0.82793 0.21577 0.61617 0.0
H921 H 0.77775 0.26326 0.55146 0.0
H922 H 0.86392 0.21425 0.57587 0.0
H923 H 0.81458 0.26292 0.51079 0.0
H924 H 0.88208 0.24845 0.43227 0.0
H925 H 0.84383 0.24829 0.4707 0.0
H926 H 0.89984 0.22961 0.54888 0.0
H927 H 0.93733 0.22869 0.51031 0.0
C928 C 0.82447 0.22615 0.59324 0.0
C929 C 0.79932 0.23968 0.58786 0.0
C930 C 0.84569 0.22556 0.56968 0.0
C931 C 0.84349 0.23883 0.53906 0.0
C932 C 0.81798 0.25213 0.53341 0.0
C933 C 0.79646 0.25246 0.55709 0.0
C934 C 0.88626 0.244 0.45764 0.0
C935 C 0.91342 0.23823 0.46744 0.0
C936 C 0.864 0.24413 0.48019 0.0
C937 C 0.86757 0.23875 0.51401 0.0
C938 C 0.89495 0.23323 0.52357 0.0
C939 C 0.91704 0.23284 0.50104 0.0
H940 H 0.25062 0.58177 0.36929 0.0
H941 H 0.22691 0.52528 0.29455 0.0
H942 H 0.25121 0.61839 0.33012 0.0
H943 H 0.22863 0.56219 0.25405 0.0
H944 H 0.21651 0.63869 0.1876 0.0
H945 H 0.21547 0.60035 0.22559 0.0
H946 H 0.26804 0.64456 0.29107 0.0
H947 H 0.26788 0.68297 0.25374 0.0
C948 C 0.24574 0.57688 0.34423 0.0
C949 C 0.23874 0.54986 0.33586 0.0
C950 C 0.24635 0.59835 0.3211 0.0
C951 C 0.24035 0.59433 0.28765 0.0
C952 C 0.23328 0.56712 0.27911 0.0
C953 C 0.23241 0.54549 0.30259 0.0
C954 C 0.22796 0.6403 0.21009 0.0
C955 C 0.2423 0.66461 0.21697 0.0
C956 C 0.22745 0.61788 0.23227 0.0
C957 C 0.24141 0.61833 0.26266 0.0
C958 C 0.2562 0.6426 0.26898 0.0
C959 C 0.25645 0.66505 0.247 0.0
H960 H 0.81154 0.78733 0.35211 0.0
H961 H 0.7839 0.70808 0.38123 0.0
H962 H 0.84973 0.78392 0.39031 0.0
H963 H 0.82181 0.7051 0.42084 0.0
H964 H 0.8805 0.72669 0.51326 0.0
H965 H 0.84159 0.72724 0.47498 0.0
H966 H 0.89407 0.75777 0.39949 0.0
H967 H 0.93288 0.75621 0.43713 0.0
C968 C 0.81336 0.76907 0.36671 0.0
C969 C 0.79396 0.74802 0.36285 0.0
C970 C 0.83564 0.76708 0.38889 0.0
C971 C 0.83955 0.74423 0.4094 0.0
C972 C 0.81992 0.72323 0.40601 0.0
C973 C 0.79796 0.72489 0.38297 0.0
C974 C 0.88393 0.73331 0.48844 0.0
C975 C 0.91052 0.74115 0.47882 0.0
C976 C 0.86138 0.73355 0.46619 0.0
C977 C 0.86401 0.74256 0.43345 0.0
C978 C 0.89057 0.75072 0.42413 0.0
C979 C 0.91317 0.74968 0.44598 0.0
H980 H 0.26268 0.18221 0.69652 0.0
H981 H 0.20886 0.14041 0.76214 0.0
H982 H 0.26132 0.14333 0.65901 0.0
H983 H 0.20704 1.10172 0.72442 0.0
H984 H 0.18589 1.04805 0.63311 0.0
H985 H 0.18958 1.08536 0.67236 0.0
H986 H 0.27399 1.0956 0.64647 0.0
H987 H 0.27031 1.05767 0.60745 0.0
C988 C 0.25063 0.16471 0.70331 0.0
C989 C 0.2361 0.16507 0.73319 0.0
C990 C 0.24987 0.14205 0.68149 0.0
C991 C 0.23399 0.11857 0.68783 0.0
C992 C 0.21944 0.11899 0.71776 0.0
C993 C 0.22065 0.14143 0.73988 0.0
C994 C 0.20544 1.05796 0.63581 0.0
C995 C 0.22775 1.04911 0.61652 0.0
C996 C 0.20761 1.07966 0.65874 0.0
C997 C 0.23213 1.09434 0.66341 0.0
C998 C 0.25454 1.08549 0.64404 0.0
C999 C 0.25249 1.06333 0.6215 0.0
H1000 H 0.83856 0.47211 0.0081 0.0
H1001 H 0.7896 0.51896 0.94143 0.0
H1002 H 0.87608 0.47171 0.96871 0.0
H1003 H 0.82701 0.51971 0.90267 0.0
H1004 H 0.88998 0.50496 0.82297 0.0
H1005 H 0.85399 0.50487 0.86327 0.0
H1006 H 0.91274 0.48441 0.93787 0.0
H1007 H 0.94889 0.48349 0.89638 0.0
C1008 C 0.83571 0.4827 -0.0148 0.0
C1009 C 0.81034 0.49562 -0.02128 0.0
C1010 C 0.85766 0.48257 0.96213 0.0
C1011 C 0.8557 0.49547 0.93112 0.0
C1012 C 0.8303 0.50877 0.92517 0.0
C1013 C 0.80838 0.50866 0.94804 0.0
C1014 C 0.89552 0.50041 0.84795 0.0
C1015 C 0.92305 0.49423 0.85557 0.0
C1016 C 0.87442 0.50059 0.87177 0.0
C1017 C 0.87929 0.49493 0.90524 0.0
C1018 C 0.90704 0.48874 0.91294 0.0
C1019 C 0.92827 0.48832 0.88882 0.0
H1020 H 0.48729 1.09978 0.26545 0.0
H1021 H 0.47472 1.04464 0.18556 0.0
H1022 H 0.48744 0.13822 0.22717 0.0
H1023 H 0.47579 1.08232 0.1474 0.0
H1024 H 0.45985 0.1543 0.08033 0.0
H1025 H 0.4584 0.11802 0.12037 0.0
H1026 H 0.50427 0.16752 0.18749 0.0
H1027 H 0.50474 0.2045 0.14706 0.0
C1028 C 0.48444 1.09564 0.23977 0.0
C1029 C 0.48057 1.06844 0.22936 0.0
C1030 C 0.48477 0.11801 0.21733 0.0
C1031 C 0.48139 0.11449 0.18311 0.0
C1032 C 0.47779 1.08709 0.173 0.0
C1033 C 0.47731 1.06492 0.19533 0.0
C1034 C 0.46966 0.15772 0.10361 0.0
C1035 C 0.48247 0.18296 0.10966 0.0
C1036 C 0.46909 0.13636 0.12702 0.0
C1037 C 0.48154 0.13859 0.15816 0.0
C1038 C 0.49414 0.16414 0.16443 0.0
C1039 C 0.49455 0.18571 0.14087 0.0
H1040 H 0.29277 0.51975 0.50207 0.0
H1041 H 0.33798 0.46612 0.43912 0.0
H1042 H 0.33104 0.52113 0.53978 0.0
H1043 H 0.37623 0.46641 0.47754 0.0
H1044 H 0.45107 0.48084 0.54631 0.0
H1045 H 0.41429 0.48129 0.50538 0.0
H1046 H 0.357 0.50502 0.58004 0.0
H1047 H 0.39348 0.50559 0.61967 0.0
C1048 C 0.31087 0.50808 0.49611 0.0
C1049 C 0.31161 0.49291 0.46686 0.0
C1050 C 0.33323 0.50857 0.51833 0.0
C1051 C 0.35773 0.49359 0.513 0.0
C1052 C 0.35849 0.47859 0.48339 0.0
C1053 C 0.33613 0.47832 0.46099 0.0
C1054 C 0.43065 0.48636 0.55395 0.0
C1055 C 0.42592 0.49331 0.58696 0.0
C1056 C 0.40911 0.48646 0.53023 0.0
C1057 C 0.38164 0.49341 0.53826 0.0
C1058 C 0.37726 0.50015 0.57144 0.0
C1059 C 0.39864 0.50024 0.59482 0.0
H1060 H 0.99447 0.20557 0.29389 0.0
H1061 H 0.97914 0.14645 0.36882 0.0
H1062 H 0.99345 0.16926 0.25271 0.0
H1063 H 0.97928 1.11037 0.32882 0.0
H1064 H 0.96476 1.04533 0.25199 0.0
H1065 H 0.9637 1.08285 0.29055 0.0
H1066 H 1.00698 0.13307 0.22173 0.0
H1067 H 1.0068 1.0955 0.18268 0.0
C1068 C 0.99104 0.18487 0.30184 0.0
C1069 C 0.98685 0.17959 0.3354 0.0
C1070 C 0.99056 0.16358 0.27792 0.0
C1071 C 0.98608 0.13575 0.2862 0.0
C1072 C 0.98216 0.13084 0.31997 0.0
C1073 C 0.98234 0.152 0.34358 0.0
C1074 C 0.97392 1.06439 0.24477 0.0
C1075 C 0.98569 1.06671 0.21345 0.0
C1076 C 0.97365 1.08637 0.26747 0.0
C1077 C 0.98557 1.1121 0.26061 0.0
C1078 C 0.9972 0.11437 0.22898 0.0
C1079 C 0.99718 1.0924 0.20612 0.0
H1080 H 0.33385 0.73196 0.12114 0.0
H1081 H 0.27474 0.74983 0.04652 0.0
H1082 H 0.36992 0.73141 0.08118 0.0
H1083 H 0.31115 0.74813 0.00527 0.0
H1084 H 0.38597 0.76021 0.93602 0.0
H1085 H 0.34812 0.76125 0.97484 0.0
H1086 H 0.39661 0.7144 0.04268 0.0
H1087 H 0.43445 0.7146 0.00444 0.0
C1088 C 0.32827 0.73558 0.09596 0.0
C1089 C 0.30067 0.74095 0.08787 0.0
C1090 C 0.34944 0.73498 0.07237 0.0
C1091 C 0.34456 0.73931 0.0387 0.0
C1092 C 0.31676 0.74479 0.03045 0.0
C1093 C 0.29542 0.74567 0.05439 0.0
C1094 C 0.38862 0.74999 0.9592 0.0
C1095 C 0.41393 0.73725 0.9664 0.0
C1096 C 0.36649 0.75051 -0.01811 0.0
C1097 C 0.36826 0.73819 0.01319 0.0
C1098 C 0.39356 0.72497 0.01987 0.0
C1099 C 0.41569 0.72472 -0.00264 0.0
H1100 H 0.73165 0.13656 0.68437 0.0
H1101 H 0.7526 0.19057 0.76281 0.0
H1102 H 0.73184 1.09808 0.72228 0.0
H1103 H 0.7518 0.15274 0.80096 0.0
H1104 H 0.76632 1.07945 0.86644 0.0
H1105 H 0.76769 0.11598 0.8268 0.0
H1106 H 0.7164 1.06934 0.76234 0.0
H1107 H 0.71611 1.03204 0.80224 0.0
C1108 C 0.73639 0.14041 0.70972 0.0
C1109 C 0.74246 0.16728 0.7198 0.0
C1110 C 0.73626 0.11802 0.73197 0.0
C1111 C 0.74198 0.12116 0.76575 0.0
C1112 C 0.74787 0.14824 0.77562 0.0
C1113 C 0.74822 0.1705 0.75336 0.0
C1114 C 0.75534 1.0767 0.84377 0.0
C1115 C 0.74113 1.05215 0.83825 0.0
C1116 C 0.75586 1.09823 0.82064 0.0
C1117 C 0.74187 1.09689 0.7904 0.0
C1118 C 0.72781 1.07201 0.78466 0.0
C1119 C 0.72752 1.05023 0.80789 0.0
H1120 H 0.58149 0.27199 0.85962 0.0
H1121 H 0.61367 0.19051 0.8717 0.0
H1122 H 0.60549 0.27576 0.80761 0.0
H1123 H 0.63839 0.19495 0.82065 0.0
H1124 H 0.70325 0.22779 0.75075 0.0
H1125 H 0.67769 0.22642 0.80148 0.0
H1126 H 0.60452 0.25038 0.75014 0.0
H1127 H 0.63021 0.25148 0.6987 0.0
C1128 C 0.59355 0.25487 0.85125 0.0
C1129 C 0.59572 0.23097 0.87004 0.0
C1130 C 0.6073 0.25711 0.82153 0.0
C1131 C 0.62377 0.23568 0.81032 0.0
C1132 C 0.62603 0.21188 0.82902 0.0
C1133 C 0.61202 0.20947 0.85841 0.0
C1134 C 0.68171 0.2328 0.75017 0.0
C1135 C 0.66857 0.23942 0.72074 0.0
C1136 C 0.66712 0.23195 0.77921 0.0
C1137 C 0.63918 0.23809 0.77957 0.0
C1138 C 0.62611 0.2456 0.75038 0.0
C1139 C 0.6407 0.24608 0.72106 0.0
H1140 H 0.8003 0.85044 0.10516 0.0
H1141 H 0.71548 0.82663 0.10357 0.0
H1142 H 0.79306 0.87748 0.05615 0.0
H1143 H 0.70873 0.85294 0.05359 0.0
H1144 H 0.7237 0.88297 0.94433 0.0
H1145 H 0.72825 0.85371 -0.00743 0.0
H1146 H 0.76243 0.92083 0.04642 0.0
H1147 H 0.75759 0.95005 -0.00128 0.0
C1148 C 0.78012 0.85094 0.09441 0.0
C1149 C 0.75839 0.83664 0.10858 0.0
C1150 C 0.77606 0.8663 0.06628 0.0
C1151 C 0.75031 0.86736 0.05143 0.0
C1152 C 0.72879 0.85227 0.06465 0.0
C1153 C 0.73274 0.83716 0.09313 0.0
C1154 C 0.732 0.89141 0.9666 0.0
C1155 C 0.74047 0.91862 0.96786 0.0
C1156 C 0.7345 0.87477 -0.00592 0.0
C1157 C 0.74591 0.88507 0.02291 0.0
C1158 C 0.75385 0.91241 0.02428 0.0
C1159 C 0.75096 0.92911 -0.00292 0.0
H1160 H 1.06213 1.04916 0.21902 0.0
H1161 H 1.06249 0.96137 0.22179 0.0
H1162 H 1.09236 1.0504 0.26579 0.0
H1163 H 1.09377 0.96249 0.26844 0.0
H1164 H 0.1226 0.97977 0.3746 0.0
H1165 H 1.09527 0.9745 0.32532 0.0
H1166 H 0.13827 1.04155 0.28102 0.0
H1167 H 0.16496 1.04722 0.33072 0.0
C1168 C 1.06898 1.03007 0.22949 0.0
C1169 C 1.06017 1.00516 0.2167 0.0
C1170 C 1.0865 1.03077 0.25618 0.0
C1171 C 1.09587 1.00655 0.27062 0.0
C1172 C 1.08684 0.98152 0.25797 0.0
C1173 C 1.06903 0.98084 0.23126 0.0
C1174 C 0.12645 0.99308 0.35409 0.0
C1175 C 0.14572 1.01405 0.3565 0.0
C1176 C 1.11084 0.99003 0.32582 0.0
C1177 C 1.11434 1.00779 0.29932 0.0
C1178 C 0.13458 1.02793 0.30127 0.0
C1179 C 0.14996 1.03115 0.32964 0.0
H1180 H 0.98727 0.27751 0.49755 0.0
H1181 H 0.9856 0.35171 0.4412 0.0
H1182 H 0.98644 0.30382 0.54774 0.0
H1183 H 0.98499 0.37825 0.49174 0.0
H1184 H 0.94366 0.40915 0.58722 0.0
H1185 H 0.95117 0.38564 0.5357 0.0
H1186 H 1.01316 0.33568 0.58114 0.0
H1187 H 1.00513 0.35879 0.63303 0.0
C1188 C 0.98697 0.2995 0.49593 0.0
C1189 C 0.98619 0.31261 0.46552 0.0
C1190 C 0.98671 0.31457 0.5247 0.0
C1191 C 0.98558 0.3431 0.5237 0.0
C1192 C 0.98557 0.35626 0.49323 0.0
C1193 C 0.986 0.34113 0.46435 0.0
C1194 C 0.95886 0.3931 0.58622 0.0
C1195 C 0.97358 0.38557 0.61424 0.0
C1196 C 0.96341 0.3799 0.5566 0.0
C1197 C 0.98272 0.35879 0.55438 0.0
C1198 C 0.99796 0.35172 0.5822 0.0
C1199 C 0.99351 0.36505 0.61183 0.0
H1200 H 0.64142 0.97722 0.08961 0.0
H1201 H 0.5949 1.04856 0.06223 0.0
H1202 H 0.615 0.9737 0.13985 0.0
H1203 H 0.56889 1.04523 0.11262 0.0
H1204 H 0.55633 1.05097 0.22339 0.0
H1205 H 0.58003 1.05173 0.17121 0.0
H1206 H 0.56742 0.96528 0.16079 0.0
H1207 H 0.54371 0.96451 0.21334 0.0
C1208 C 0.62534 0.99192 0.09406 0.0
C1209 C 0.62045 1.01333 0.07202 0.0
C1210 C 0.61024 0.98991 0.12286 0.0
C1211 C 0.59007 1.00933 0.13027 0.0
C1212 C 0.58466 1.03025 0.10782 0.0
C1213 C 0.59961 1.03218 0.079 0.0
C1214 C 0.55872 1.03211 0.21002 0.0
C1215 C 0.54843 1.00765 0.22245 0.0
C1216 C 0.57207 1.03258 0.18003 0.0
C1217 C 0.57551 1.00858 0.1619 0.0
C1218 C 0.56525 0.98404 0.17439 0.0
C1219 C 0.55166 0.98361 0.20436 0.0
H1220 H 0.41893 0.36747 0.82627 0.0
H1221 H 0.50393 0.38916 0.8352 0.0
H1222 H 0.42176 0.34242 0.87722 0.0
H1223 H 0.50633 0.36539 0.88725 0.0
H1224 H 0.50768 0.29692 0.96287 0.0
H1225 H 0.50586 0.3205 0.91057 0.0
H1226 H 0.42544 0.35104 0.93429 0.0
H1227 H 0.42698 0.32668 -0.01401 0.0
C1228 C 0.43827 0.36683 0.83905 0.0
C1229 C 0.46122 0.3803 0.82659 0.0
C1230 C 0.43977 0.35278 0.86853 0.0
C1231 C 0.46421 0.35204 0.88644 0.0
C1232 C 0.48724 0.36535 0.87392 0.0
C1233 C 0.48578 0.37928 0.84429 0.0
C1234 C 0.48972 0.30875 0.95687 0.0
C1235 C 0.46754 0.31013 -0.02157 0.0
C1236 C 0.48868 0.32236 0.927 0.0
C1237 C 0.4655 0.33767 0.91823 0.0
C1238 C 0.44342 0.3391 0.94004 0.0
C1239 C 0.4444 0.32535 0.96976 0.0
H1240 H 0.19872 0.22899 0.69869 0.0
H1241 H 0.12577 0.2534 0.75022 0.0
H1242 H 0.17271 0.22533 0.64839 0.0
H1243 H 1.0996 0.24987 0.69931 0.0
H1244 H 1.07472 0.2654 0.58874 0.0
H1245 H 1.09835 0.27196 0.64069 0.0
H1246 H 0.13464 0.19217 0.63187 0.0
H1247 H 1.11053 0.18511 0.58074 0.0
C1248 C 0.17713 0.23373 0.69922 0.0
C1249 C 0.16412 0.24113 0.72839 0.0
C1250 C 0.16226 0.23155 0.67045 0.0
C1251 C 0.13416 0.237 0.67018 0.0
C1252 C 0.12128 0.24554 0.69902 0.0
C1253 C 0.13617 0.24746 0.72804 0.0
C1254 C 1.08741 0.24909 0.59812 0.0
C1255 C 1.09095 0.22482 0.5804 0.0
C1256 C 1.10094 0.25292 0.62777 0.0
C1257 C 0.11844 0.23267 0.63996 0.0
C1258 C 0.12158 0.20827 0.62264 0.0
C1259 C 1.10788 0.20432 0.59329 0.0
H1260 H 0.23802 0.95697 0.44754 0.0
H1261 H 0.22501 0.88335 0.5028 0.0
H1262 H 0.24156 0.93043 0.39766 0.0
H1263 H 0.22857 0.85663 0.45241 0.0
H1264 H 0.21301 0.82531 0.34514 0.0
H1265 H 0.20501 0.85019 0.39592 0.0
H1266 H 0.2781 0.89672 0.37942 0.0
H1267 H 0.28669 0.87149 0.32951 0.0
C1268 C 0.23566 0.9351 0.44898 0.0
C1269 C 0.23161 0.92213 0.47908 0.0
C1270 C 0.2378 0.91993 0.42043 0.0
C1271 C 0.23572 0.89149 0.4213 0.0
C1272 C 0.23026 0.87856 0.45114 0.0
C1273 C 0.22833 0.89379 0.4799 0.0
C1274 C 0.22757 0.8406 0.35255 0.0
C1275 C 0.25039 0.84654 0.33303 0.0
C1276 C 0.2229 0.85487 0.38155 0.0
C1277 C 0.24078 0.87553 0.39133 0.0
C1278 C 0.26371 0.88122 0.3721 0.0
C1279 C 0.26854 0.86682 0.34342 0.0
H1280 H 1.08113 0.77118 0.35688 0.0
H1281 H 0.11523 0.69075 0.37113 0.0
H1282 H 1.10549 0.7748 0.30511 0.0
H1283 H 0.14015 0.69495 0.32019 0.0
H1284 H 0.20415 0.7263 0.24894 0.0
H1285 H 0.17864 0.72518 0.29973 0.0
H1286 H 1.10578 0.75041 0.24859 0.0
H1287 H 0.13146 0.75141 0.1972 0.0
C1288 C 1.09369 0.75425 0.34902 0.0
C1289 C 1.09629 0.73071 0.36837 0.0
C1290 C 1.10765 0.75639 0.31941 0.0
C1291 C 0.12474 0.73521 0.3088 0.0
C1292 C 0.12738 0.71174 0.32806 0.0
C1293 C 1.11322 0.70944 0.35738 0.0
C1294 C 0.1827 0.73166 0.24844 0.0
C1295 C 0.16966 0.73865 0.21907 0.0
C1296 C 0.16811 0.73093 0.27753 0.0
C1297 C 0.14023 0.73748 0.27799 0.0
C1298 C 0.1273 0.74532 0.24883 0.0
C1299 C 0.1419 0.74576 0.2195 0.0
H1300 H 0.21397 0.32921 0.6073 0.0
H1301 H 0.29516 0.36235 0.61652 0.0
H1302 H 0.20806 0.35357 0.55581 0.0
H1303 H 0.28875 0.38724 0.56579 0.0
H1304 H 0.25307 0.45273 0.49888 0.0
H1305 H 0.25708 0.42626 0.54881 0.0
H1306 H 0.22967 0.35467 0.49769 0.0
H1307 H 0.22577 0.38128 0.44722 0.0
C1308 C 0.23063 0.34146 0.59829 0.0
C1309 C 0.25498 0.34398 0.61623 0.0
C1310 C 0.22717 0.35544 0.56887 0.0
C1311 C 0.24787 0.37239 0.55707 0.0
C1312 C 0.27231 0.37461 0.57468 0.0
C1313 C 0.27589 0.36045 0.60381 0.0
C1314 C 0.2478 0.43137 0.49825 0.0
C1315 C 0.23936 0.41893 0.46915 0.0
C1316 C 0.25022 0.41623 0.5268 0.0
C1317 C 0.24393 0.38842 0.52695 0.0
C1318 C 0.23461 0.37611 0.49813 0.0
C1319 C 0.23249 0.39125 0.46934 0.0
H1320 H 0.59503 0.47986 0.69842 0.0
H1321 H 0.52196 0.50306 0.7505 0.0
H1322 H 0.6214 0.4838 0.74913 0.0
H1323 H 0.5482 0.50716 0.80062 0.0
H1324 H 0.6107 0.54866 0.86737 0.0
H1325 H 0.58592 0.54097 0.81682 0.0
H1326 H 0.62336 0.46174 0.80771 0.0
H1327 H 0.64759 0.46887 0.85911 0.0
C1328 C 0.58464 0.4856 0.72069 0.0
C1329 C 0.55659 0.49147 0.72055 0.0
C1330 C 0.59965 0.48776 0.7496 0.0
C1331 C 0.5868 0.49609 0.77854 0.0
C1332 C 0.55861 0.50109 0.77849 0.0
C1333 C 0.54362 0.49864 0.74983 0.0
C1334 C 0.61344 0.52943 0.85492 0.0
C1335 C 0.63093 0.50927 0.86754 0.0
C1336 C 0.59935 0.52512 0.82589 0.0
C1337 C 0.60267 0.50071 0.8086 0.0
C1338 C 0.62063 0.48078 0.82058 0.0
C1339 C 0.63452 0.48495 0.84992 0.0
H1340 H 0.50159 0.84805 0.95039 0.0
H1341 H 0.47567 0.77498 -0.00022 0.0
H1342 H 0.49922 0.87297 0.00226 0.0
H1343 H 0.47301 0.79982 0.05098 0.0
H1344 H 0.43337 0.86457 0.11858 0.0
H1345 H 0.44046 0.8396 0.06812 0.0
H1346 H 0.52228 0.87093 0.06149 0.0
H1347 H 0.51586 0.89509 0.113 0.0
C1348 C 0.49555 0.83736 0.9723 0.0
C1349 C 0.48852 0.80974 0.97109 0.0
C1350 C 0.49432 0.85151 0.00186 0.0
C1351 C 0.4857 0.83826 0.03037 0.0
C1352 C 0.47942 0.8105 0.02922 0.0
C1353 C 0.48101 0.79633 -7e-05 0.0
C1354 C 0.4531 0.86578 0.10687 0.0
C1355 C 0.47409 0.88175 0.1201 0.0
C1356 C 0.45704 0.85163 0.07782 0.0
C1357 C 0.48189 0.85342 0.06107 0.0
C1358 C 0.50286 0.86947 0.07392 0.0
C1359 C 0.49909 0.88333 0.10333 0.0
H1360 H 1.10097 0.55225 0.56461 0.0
H1361 H 0.1298 0.47006 0.58035 0.0
H1362 H 1.0746 0.54984 0.61459 0.0
H1363 H 1.10466 0.46827 0.63148 0.0
H1364 H 1.03727 0.46607 0.7083 0.0
H1365 H 1.05976 0.46672 0.65518 0.0
H1366 H 1.08362 0.55014 0.67167 0.0
H1367 H 1.06038 0.54967 0.72402 0.0
C1368 C 1.10155 0.53357 0.57859 0.0
C1369 C 0.11759 0.51137 0.56846 0.0
C1370 C 1.08672 0.53234 0.60753 0.0
C1371 C 1.08774 0.50898 0.62724 0.0
C1372 C 1.10327 0.48652 0.61678 0.0
C1373 C 0.11798 0.48768 0.58767 0.0
C1374 C 1.04733 0.4845 0.70044 0.0
C1375 C 1.04724 0.50778 0.72023 0.0
C1376 C 1.0603 0.48485 0.67013 0.0
C1377 C 1.07347 0.5085 0.65913 0.0
C1378 C 1.07329 0.53174 0.6791 0.0
C1379 C 1.06022 0.53141 0.70925 0.0
H1380 H 0.9992 0.90747 0.34788 0.0
H1381 H 0.92698 0.86356 0.31899 0.0
H1382 H 1.00181 0.88048 0.39778 0.0
H1383 H 0.92946 0.83686 0.36892 0.0
H1384 H 0.92435 0.81922 0.47836 0.0
H1385 H 0.9233 0.84528 0.4278 0.0
H1386 H 1.01005 0.83277 0.4163 0.0
H1387 H 1.01112 0.80686 0.4672 0.0
C1388 C 0.98405 0.89191 0.35203 0.0
C1389 C 0.96277 0.88779 0.3296 0.0
C1390 C 0.98554 0.87648 0.38058 0.0
C1391 C 0.96574 0.8567 0.3873 0.0
C1392 C 0.94473 0.85231 0.36465 0.0
C1393 C 0.94329 0.86764 0.3361 0.0
C1394 C 0.94321 0.82219 0.46512 0.0
C1395 C 0.96785 0.81128 0.47674 0.0
C1396 C 0.94257 0.8369 0.43606 0.0
C1397 C 0.96659 0.84104 0.41812 0.0
C1398 C 0.99128 0.83014 0.42982 0.0
C1399 C 0.99188 0.81526 0.45884 0.0
H1400 H 0.58053 0.75719 0.08764 0.0
H1401 H 0.63591 0.6931 0.05822 0.0
H1402 H 0.60536 0.76187 0.13896 0.0
H1403 H 0.66025 0.69747 0.10976 0.0
H1404 H 0.66719 0.68688 0.22106 0.0
H1405 H 0.64614 0.68667 0.16729 0.0
H1406 H 0.6521 0.77421 0.16292 0.0
H1407 H 0.67334 0.77443 0.21713 0.0
C1408 C 0.59823 0.74441 0.09185 0.0
C1409 C 0.60603 0.72453 0.06898 0.0
C1410 C 0.61241 0.7471 0.12125 0.0
C1411 C 0.63452 0.72984 0.12841 0.0
C1412 C 0.64297 0.71072 0.10505 0.0
C1413 C 0.62896 0.70816 0.07562 0.0
C1414 C 0.6639 0.7061 0.2087 0.0
C1415 C 0.67164 0.73069 0.22328 0.0
C1416 C 0.6521 0.70596 0.17781 0.0
C1417 C 0.64762 0.73041 0.16092 0.0
C1418 C 0.65523 0.75509 0.17553 0.0
C1419 C 0.66738 0.75521 0.20643 0.0
H1420 H 0.74558 0.45616 0.94699 0.0
H1421 H 0.72461 0.38416 0.00162 0.0
H1422 H 0.74689 0.4297 0.89711 0.0
H1423 H 0.72494 0.35757 0.95122 0.0
H1424 H 0.76476 0.31533 0.86205 0.0
H1425 H 0.75743 0.34025 0.91272 0.0
H1426 H 0.72007 0.40602 0.85844 0.0
H1427 H 0.72824 0.38135 0.80781 0.0
C1428 C 0.74092 0.43467 0.94823 0.0
C1429 C 0.73527 0.42211 -0.02183 0.0
C1430 C 0.74143 0.41951 0.91956 0.0
C1431 C 0.73602 0.39147 0.92009 0.0
C1432 C 0.72961 0.37905 0.95002 0.0
C1433 C 0.72928 0.39425 -0.02116 0.0
C1434 C 0.75472 0.33499 0.8611 0.0
C1435 C 0.74731 0.34658 0.83108 0.0
C1436 C 0.75039 0.34923 0.89011 0.0
C1437 C 0.73833 0.37524 0.88967 0.0
C1438 C 0.72996 0.3863 0.85963 0.0
C1439 C 0.73456 0.37219 0.83063 0.0
H1440 H 0.42053 0.26742 0.27609 0.0
H1441 H 0.48721 0.32221 0.25733 0.0
H1442 H 0.40901 0.29266 0.32459 0.0
H1443 H 0.47724 0.34626 0.30763 0.0
H1444 H 0.3708 0.34934 0.38655 0.0
H1445 H 0.40702 0.31722 0.37243 0.0
H1446 H 0.44206 0.37758 0.30829 0.0
H1447 H 0.40685 0.40938 0.32338 0.0
C1448 C 0.43351 0.28418 0.28317 0.0
C1449 C 0.4537 0.29382 0.26191 0.0
C1450 C 0.42715 0.29859 0.31142 0.0
C1451 C 0.44125 0.32263 0.31916 0.0
C1452 C 0.46506 0.32868 0.30148 0.0
C1453 C 0.47102 0.31463 0.27274 0.0
C1454 C 0.3869 0.35587 0.37032 0.0
C1455 C 0.38562 0.38153 0.3553 0.0
C1456 C 0.40764 0.33749 0.36215 0.0
C1457 C 0.42701 0.34426 0.33821 0.0
C1458 C 0.42767 0.37128 0.32675 0.0
C1459 C 0.40722 0.38971 0.33528 0.0
H1460 H 0.74095 0.62018 0.46964 0.0
H1461 H 0.68717 0.57995 0.40207 0.0
H1462 H 0.73591 0.58252 0.50791 0.0
H1463 H 0.68099 0.5432 0.44025 0.0
H1464 H 0.64611 0.49558 0.51089 0.0
H1465 H 0.68566 0.50847 0.47837 0.0
H1466 H 0.69631 0.57945 0.53931 0.0
H1467 H 0.65798 0.56583 0.57212 0.0
C1468 C 0.7289 0.60277 0.46248 0.0
C1469 C 0.71353 0.6033 0.43362 0.0
C1470 C 0.72585 0.58125 0.48445 0.0
C1471 C 0.70703 0.56039 0.47797 0.0
C1472 C 0.6954 0.55893 0.44661 0.0
C1473 C 0.69862 0.58025 0.42467 0.0
C1474 C 0.65775 0.51329 0.51797 0.0
C1475 C 0.64855 0.53027 0.5432 0.0
C1476 C 0.68038 0.52072 0.49939 0.0
C1477 C 0.69344 0.54569 0.50516 0.0
C1478 C 0.68677 0.56021 0.53368 0.0
C1479 C 0.66451 0.55251 0.55256 0.0
H1480 H 0.40025 0.97066 0.67393 0.0
H1481 H 0.33394 0.99859 0.73459 0.0
H1482 H 0.4267 0.95986 0.72187 0.0
H1483 H 0.36124 0.98971 0.78294 0.0
H1484 H 0.37724 0.90367 0.82866 0.0
H1485 H 0.36443 0.94511 0.80107 0.0
H1486 H 0.44835 0.9572 0.77207 0.0
H1487 H 0.46075 0.91441 0.79828 0.0
C1488 C 0.39184 0.9757 0.69759 0.0
C1489 C 0.36452 0.98397 0.70059 0.0
C1490 C 0.40719 0.96981 0.72533 0.0
C1491 C 0.39549 0.97245 0.75652 0.0
C1492 C 0.37034 0.98618 0.75927 0.0
C1493 C 0.35475 0.99157 0.73146 0.0
C1494 C 0.39305 0.91546 0.81692 0.0
C1495 C 0.41969 0.90521 0.81435 0.0
C1496 C 0.38583 0.93966 0.80146 0.0
C1497 C 0.4052 0.95423 0.78319 0.0
C1498 C 0.43272 0.94605 0.78496 0.0
C1499 C 0.43989 0.92158 0.80018 0.0
H1500 H 0.1346 0.58708 0.11873 0.0
H1501 H 0.19252 0.56552 0.0437 0.0
H1502 H 1.10651 0.5485 0.10357 0.0
H1503 H 0.16371 0.5282 0.02711 0.0
H1504 H 1.10701 0.47641 -0.01797 0.0
H1505 H 0.13664 0.48845 0.02759 0.0
H1506 H 1.07865 0.55032 0.05682 0.0
H1507 H 1.04937 0.53814 0.01209 0.0
C1508 C 0.14185 0.57361 0.09971 0.0
C1509 C 0.16524 0.57998 0.08151 0.0
C1510 C 0.12559 0.55157 0.09084 0.0
C1511 C 0.13219 0.53588 0.06327 0.0
C1512 C 0.15766 0.5399 0.04827 0.0
C1513 C 0.17408 0.56167 0.05743 0.0
C1514 C 1.10024 0.49189 -0.001 0.0
C1515 C 1.07631 0.50695 -0.00712 0.0
C1516 C 0.11721 0.4988 0.02508 0.0
C1517 C 1.11056 0.521 0.04524 0.0
C1518 C 1.08465 0.53315 0.0419 0.0
C1519 C 1.0677 0.52618 0.01599 0.0
H1520 H 0.80677 0.82117 0.80265 0.0
H1521 H 0.86543 0.84807 0.87404 0.0
H1522 H 0.83552 0.78251 0.78975 0.0
H1523 H 0.89413 0.80861 0.86195 0.0
H1524 H 0.94607 0.79226 0.76582 0.0
H1525 H 0.92044 0.80657 0.81287 0.0
H1526 H 0.86257 0.74199 0.79637 0.0
H1527 H 0.88848 0.72771 0.74854 0.0
C1528 C 0.82547 0.81824 0.81635 0.0
C1529 C 0.83437 0.83804 0.83845 0.0
C1530 C 0.84184 0.79577 0.80938 0.0
C1531 C 0.86755 0.79273 0.82431 0.0
C1532 C 0.8747 0.81066 0.8496 0.0
C1533 C 0.85824 0.83323 0.85656 0.0
C1534 C 0.92876 0.78009 0.77313 0.0
C1535 C 0.9186 0.75961 0.75269 0.0
C1536 C 0.91393 0.78832 0.80038 0.0
C1537 C 0.88871 0.77618 0.80752 0.0
C1538 C 0.88143 0.75235 0.79074 0.0
C1539 C 0.89626 0.74416 0.76336 0.0
H1540 H 0.84595 0.33354 0.08127 0.0
H1541 H 0.78975 0.32302 0.16112 0.0
H1542 H 0.8693 0.29146 0.09659 0.0
H1543 H 0.81344 0.28193 0.17729 0.0
H1544 H 0.86094 0.22368 0.22174 0.0
H1545 H 0.83321 0.23776 0.17522 0.0
H1546 H 0.89913 0.28881 0.14205 0.0
H1547 H 0.92662 0.27435 0.18762 0.0
C1548 C 0.83807 0.32178 0.10147 0.0
C1549 C 0.81665 0.33192 0.12074 0.0
C1550 C 0.85149 0.29772 0.11032 0.0
C1551 C 0.8438 0.28363 0.13869 0.0
C1552 C 0.82011 0.29208 0.1553 0.0
C1553 C 0.80671 0.31598 0.1464 0.0
C1554 C 0.86985 0.23692 0.20357 0.0
C1555 C 0.89549 0.24876 0.20891 0.0
C1556 C 0.85397 0.24504 0.17697 0.0
C1557 C 0.86344 0.2654 0.15576 0.0
C1558 C 0.89091 0.27335 0.15799 0.0
C1559 C 0.90682 0.26505 0.18438 0.0
H1560 H 1.06872 0.1465 0.86203 0.0
H1561 H 1.05953 0.22433 0.9093 0.0
H1562 H 1.02819 0.13031 0.8887 0.0
H1563 H 1.01762 0.20869 0.93516 0.0
H1564 H 1.01089 0.14854 0.02346 0.0
H1565 H 1.01812 0.18089 -0.01974 0.0
H1566 H 0.9853 0.12367 0.91052 0.0
H1567 H 0.97971 1.09052 0.95418 0.0
C1568 C 1.05719 0.16061 0.87697 0.0
C1569 C 1.0677 0.18628 0.88458 0.0
C1570 C 1.03361 0.15141 0.89224 0.0
C1571 C 1.02003 0.1678 0.91534 0.0
C1572 C 1.02817 0.1951 0.91861 0.0
C1573 C 1.05212 0.20413 0.90379 0.0
C1574 C 1.00435 0.14326 -0.00096 0.0
C1575 C 0.99607 0.11669 -0.0082 0.0
C1576 C 1.00821 0.16198 0.97405 0.0
C1577 C 1.0037 0.15441 0.94137 0.0
C1578 C 0.99022 0.12969 0.93521 0.0
C1579 C 0.98673 1.11075 0.96027 0.0
H1580 H 0.75394 0.11704 0.47203 0.0
H1581 H 0.70212 0.18369 0.44194 0.0
H1582 H 0.73802 1.09031 0.42574 0.0
H1583 H 0.68568 0.15713 0.3968 0.0
H1584 H 0.63812 1.10496 0.33781 0.0
H1585 H 0.68042 0.12827 0.3515 0.0
H1586 H 0.69432 1.07071 0.42963 0.0
H1587 H 0.65316 1.0469 0.4148 0.0
C1588 C 0.74003 0.12637 0.45475 0.0
C1589 C 0.72845 0.15198 0.46121 0.0
C1590 C 0.73081 1.11105 0.42831 0.0
C1591 C 0.70954 0.12102 0.40852 0.0
C1592 C 0.70179 0.14849 0.41166 0.0
C1593 C 0.71124 0.16387 0.4378 0.0
C1594 C 0.65081 1.09677 0.35712 0.0
C1595 C 0.64192 1.0747 0.37603 0.0
C1596 C 0.67501 1.11018 0.36503 0.0
C1597 C 0.69051 1.10189 0.3922 0.0
C1598 C 0.68311 1.07785 0.40853 0.0
C1599 C 0.65911 1.06441 0.40048 0.0
loop_
_geom_bond_atom_site_label_1
_geom_bond_atom_site_label_2
_geom_bond_distance
_geom_bond_site_symmetry_2
_ccdc_geom_bond_type
Pr0 C2 2.880 . S
Pr0 O20 2.562 . S
Pr0 O21 2.490 . S
Pr0 O22 2.695 1_556 S
Pr0 O23 2.512 1_556 S
Pr0 O25 2.437 1_556 S
Pr0 O28 2.436 1_556 S
Pr0 O30 2.438 . S
Pr1 C11 2.880 . S
Pr1 O22 2.436 . S
Pr1 O24 2.438 . S
Pr1 O26 2.562 . S
Pr1 O27 2.490 . S
Pr1 O28 2.695 . S
Pr1 O29 2.512 . S
Pr1 O31 2.437 . S
C2 Pr0 2.880 . S
C2 C3 1.491 . S
C2 O20 1.254 . S
C2 O21 1.225 . S
C3 C2 1.491 . S
C3 C4 1.392 . S
C3 C8 1.356 . S
C4 C3 1.392 . S
C4 C5 1.368 . S
C4 H32 0.929 . S
C5 C4 1.368 . S
C5 C6 1.386 . S
C5 H33 0.929 . S
C6 C5 1.386 . S
C6 C7 1.373 . S
C7 C6 1.373 . S
C7 C8 1.409 . S
C7 H34 0.931 . S
C8 C3 1.356 . S
C8 C7 1.409 . S
C8 H35 0.930 . S
C9 O22 1.270 . S
C9 O23 1.248 . S
C10 O24 1.267 . S
C10 O25 1.278 . S
C11 Pr1 2.880 . S
C11 C12 1.491 . S
C11 O26 1.254 . S
C11 O27 1.225 . S
C12 C11 1.491 . S
C12 C13 1.392 . S
C12 C17 1.356 . S
C13 C12 1.392 . S
C13 C14 1.368 . S
C13 H36 0.929 . S
C14 C13 1.368 . S
C14 C15 1.386 . S
C14 H37 0.929 . S
C15 C14 1.386 . S
C15 C16 1.373 . S
C16 C15 1.373 . S
C16 C17 1.409 . S
C16 H38 0.931 . S
C17 C12 1.356 . S
C17 C16 1.409 . S
C17 H39 0.930 . S
C18 O28 1.270 1_556 S
C18 O29 1.248 1_556 S
C19 O30 1.267 1_554 S
C19 O31 1.278 . S
O20 Pr0 2.562 . S
O20 C2 1.254 . S
O21 Pr0 2.490 . S
O21 C2 1.225 . S
O22 Pr0 2.695 1_554 S
O22 Pr1 2.436 . S
O22 C9 1.270 . S
O23 Pr0 2.512 1_554 S
O23 C9 1.248 . S
O24 Pr1 2.438 . S
O24 C10 1.267 . S
O25 Pr0 2.437 1_554 S
O25 C10 1.278 . S
O26 Pr1 2.562 . S
O26 C11 1.254 . S
O27 Pr1 2.490 . S
O27 C11 1.225 . S
O28 Pr0 2.436 1_554 S
O28 Pr1 2.695 . S
O28 C18 1.270 1_554 S
O29 Pr1 2.512 . S
O29 C18 1.248 1_554 S
O30 Pr0 2.438 . S
O30 C19 1.267 1_556 S
O31 Pr1 2.437 . S
O31 C19 1.278 . S
H32 C4 0.929 . S
H33 C5 0.929 . S
H34 C7 0.931 . S
H35 C8 0.930 . S
H36 C13 0.929 . S
H37 C14 0.929 . S
H38 C16 0.931 . S
H39 C17 0.930 . S
Pr40 C42 2.880 . S
Pr40 O60 2.562 . S
Pr40 O61 2.490 . S
Pr40 O62 2.695 . S
Pr40 O63 2.512 . S
Pr40 O65 2.437 . S
Pr40 O68 2.436 . S
Pr40 O70 2.438 . S
Pr41 C51 2.880 . S
Pr41 O62 2.436 . S
Pr41 O64 2.438 . S
Pr41 O66 2.562 . S
Pr41 O67 2.490 . S
Pr41 O68 2.695 . S
Pr41 O69 2.512 . S
Pr41 O71 2.437 . S
C42 Pr40 2.880 . S
C42 C43 1.491 . S
C42 O60 1.254 . S
C42 O61 1.225 . S
C43 C42 1.491 . S
C43 C44 1.392 . S
C43 C48 1.356 . S
C44 C43 1.392 . S
C44 C45 1.368 . S
C44 H72 0.929 . S
C45 C44 1.368 . S
C45 C46 1.386 . S
C45 H73 0.929 . S
C46 C45 1.386 . S
C46 C47 1.373 . S
C47 C46 1.373 . S
C47 C48 1.409 . S
C47 H74 0.931 . S
C48 C43 1.356 . S
C48 C47 1.409 . S
C48 H75 0.930 . S
C49 O62 1.270 . S
C49 O63 1.248 . S
C50 O64 1.267 . S
C50 O65 1.278 . S
C51 Pr41 2.880 . S
C51 C52 1.491 . S
C51 O66 1.254 . S
C51 O67 1.225 . S
C52 C51 1.491 . S
C52 C53 1.392 . S
C52 C57 1.356 . S
C53 C52 1.392 . S
C53 C54 1.368 . S
C53 H76 0.929 . S
C54 C53 1.368 . S
C54 C55 1.386 . S
C54 H77 0.929 . S
C55 C54 1.386 . S
C55 C56 1.373 . S
C56 C55 1.373 . S
C56 C57 1.409 . S
C56 H78 0.931 . S
C57 C52 1.356 . S
C57 C56 1.409 . S
C57 H79 0.930 . S
C58 O68 1.270 . S
C58 O69 1.248 . S
C59 O70 1.267 . S
C59 O71 1.278 . S
O60 Pr40 2.562 . S
O60 C42 1.254 . S
O61 Pr40 2.490 . S
O61 C42 1.225 . S
O62 Pr40 2.695 . S
O62 Pr41 2.436 . S
O62 C49 1.270 . S
O63 Pr40 2.512 . S
O63 C49 1.248 . S
O64 Pr41 2.438 . S
O64 C50 1.267 . S
O65 Pr40 2.437 . S
O65 C50 1.278 . S
O66 Pr41 2.562 . S
O66 C51 1.254 . S
O67 Pr41 2.490 . S
O67 C51 1.225 . S
O68 Pr40 2.436 . S
O68 Pr41 2.695 . S
O68 C58 1.270 . S
O69 Pr41 2.512 . S
O69 C58 1.248 . S
O70 Pr40 2.438 . S
O70 C59 1.267 . S
O71 Pr41 2.437 . S
O71 C59 1.278 . S
H72 C44 0.929 . S
H73 C45 0.929 . S
H74 C47 0.931 . S
H75 C48 0.930 . S
H76 C53 0.929 . S
H77 C54 0.929 . S
H78 C56 0.931 . S
H79 C57 0.930 . S
Pr80 C82 2.880 . S
Pr80 O100 2.562 . S
Pr80 O101 2.490 . S
Pr80 O102 2.695 . S
Pr80 O103 2.512 . S
Pr80 O105 2.437 . S
Pr80 O108 2.436 . S
Pr80 O110 2.438 . S
Pr81 C91 2.880 . S
Pr81 O102 2.436 . S
Pr81 O104 2.438 . S
Pr81 O106 2.562 . S
Pr81 O107 2.490 . S
Pr81 O108 2.695 . S
Pr81 O109 2.512 . S
Pr81 O111 2.437 . S
C82 Pr80 2.880 . S
C82 C83 1.491 . S
C82 O100 1.254 . S
C82 O101 1.225 . S
C83 C82 1.491 . S
C83 C84 1.392 . S
C83 C88 1.356 . S
C84 C83 1.392 . S
C84 C85 1.368 . S
C84 H112 0.929 . S
C85 C84 1.368 . S
C85 C86 1.386 . S
C85 H113 0.929 . S
C86 C85 1.386 . S
C86 C87 1.373 . S
C87 C86 1.373 . S
C87 C88 1.409 . S
C87 H114 0.931 . S
C88 C83 1.356 . S
C88 C87 1.409 . S
C88 H115 0.930 . S
C89 O102 1.270 . S
C89 O103 1.248 . S
C90 O104 1.267 . S
C90 O105 1.278 . S
C91 Pr81 2.880 . S
C91 C92 1.491 . S
C91 O106 1.254 . S
C91 O107 1.225 . S
C92 C91 1.491 . S
C92 C93 1.392 . S
C92 C97 1.356 . S
C93 C92 1.392 . S
C93 C94 1.368 . S
C93 H116 0.929 . S
C94 C93 1.368 . S
C94 C95 1.386 . S
C94 H117 0.929 . S
C95 C94 1.386 . S
C95 C96 1.373 . S
C96 C95 1.373 . S
C96 C97 1.409 . S
C96 H118 0.931 . S
C97 C92 1.356 . S
C97 C96 1.409 . S
C97 H119 0.930 . S
C98 O108 1.270 . S
C98 O109 1.248 . S
C99 O110 1.267 . S
C99 O111 1.278 . S
O100 Pr80 2.562 . S
O100 C82 1.254 . S
O101 Pr80 2.490 . S
O101 C82 1.225 . S
O102 Pr80 2.695 . S
O102 Pr81 2.436 . S
O102 C89 1.270 . S
O103 Pr80 2.512 . S
O103 C89 1.248 . S
O104 Pr81 2.438 . S
O104 C90 1.267 . S
O105 Pr80 2.437 . S
O105 C90 1.278 . S
O106 Pr81 2.562 . S
O106 C91 1.254 . S
O107 Pr81 2.490 . S
O107 C91 1.225 . S
O108 Pr80 2.436 . S
O108 Pr81 2.695 . S
O108 C98 1.270 . S
O109 Pr81 2.512 . S
O109 C98 1.248 . S
O110 Pr80 2.438 . S
O110 C99 1.267 . S
O111 Pr81 2.437 . S
O111 C99 1.278 . S
H112 C84 0.929 . S
H113 C85 0.929 . S
H114 C87 0.931 . S
H115 C88 0.930 . S
H116 C93 0.929 . S
H117 C94 0.929 . S
H118 C96 0.931 . S
H119 C97 0.930 . S
Pr120 C122 2.880 . S
Pr120 O140 2.562 . S
Pr120 O141 2.490 . S
Pr120 O142 2.695 . S
Pr120 O143 2.512 . S
Pr120 O145 2.437 . S
Pr120 O148 2.436 . S
Pr120 O150 2.438 . S
Pr121 C131 2.880 . S
Pr121 O142 2.436 . S
Pr121 O144 2.438 . S
Pr121 O146 2.562 . S
Pr121 O147 2.490 . S
Pr121 O148 2.695 . S
Pr121 O149 2.512 . S
Pr121 O151 2.437 . S
C122 Pr120 2.880 . S
C122 C123 1.491 . S
C122 O140 1.254 . S
C122 O141 1.225 . S
C123 C122 1.491 . S
C123 C124 1.392 . S
C123 C128 1.356 . S
C124 C123 1.392 . S
C124 C125 1.368 . S
C124 H152 0.929 . S
C125 C124 1.368 . S
C125 C126 1.386 . S
C125 H153 0.929 . S
C126 C125 1.386 . S
C126 C127 1.373 . S
C127 C126 1.373 . S
C127 C128 1.409 . S
C127 H154 0.931 . S
C128 C123 1.356 . S
C128 C127 1.409 . S
C128 H155 0.930 . S
C129 O142 1.270 . S
C129 O143 1.248 . S
C130 O144 1.267 . S
C130 O145 1.278 . S
C131 Pr121 2.880 . S
C131 C132 1.491 . S
C131 O146 1.254 . S
C131 O147 1.225 . S
C132 C131 1.491 . S
C132 C133 1.392 . S
C132 C137 1.356 . S
C133 C132 1.392 . S
C133 C134 1.368 . S
C133 H156 0.929 . S
C134 C133 1.368 . S
C134 C135 1.386 . S
C134 H157 0.929 . S
C135 C134 1.386 . S
C135 C136 1.373 . S
C136 C135 1.373 . S
C136 C137 1.409 . S
C136 H158 0.931 . S
C137 C132 1.356 . S
C137 C136 1.409 . S
C137 H159 0.930 . S
C138 O148 1.270 . S
C138 O149 1.248 . S
C139 O150 1.267 . S
C139 O151 1.278 . S
O140 Pr120 2.562 . S
O140 C122 1.254 . S
O141 Pr120 2.490 . S
O141 C122 1.225 . S
O142 Pr120 2.695 . S
O142 Pr121 2.436 . S
O142 C129 1.270 . S
O143 Pr120 2.512 . S
O143 C129 1.248 . S
O144 Pr121 2.438 . S
O144 C130 1.267 . S
O145 Pr120 2.437 . S
O145 C130 1.278 . S
O146 Pr121 2.562 . S
O146 C131 1.254 . S
O147 Pr121 2.490 . S
O147 C131 1.225 . S
O148 Pr120 2.436 . S
O148 Pr121 2.695 . S
O148 C138 1.270 . S
O149 Pr121 2.512 . S
O149 C138 1.248 . S
O150 Pr120 2.438 . S
O150 C139 1.267 . S
O151 Pr121 2.437 . S
O151 C139 1.278 . S
H152 C124 0.929 . S
H153 C125 0.929 . S
H154 C127 0.931 . S
H155 C128 0.930 . S
H156 C133 0.929 . S
H157 C134 0.929 . S
H158 C136 0.931 . S
H159 C137 0.930 . S
Pr160 C162 2.880 . S
Pr160 O180 2.562 . S
Pr160 O181 2.490 . S
Pr160 O182 2.695 . S
Pr160 O183 2.512 . S
Pr160 O185 2.437 . S
Pr160 O188 2.436 . S
Pr160 O190 2.438 . S
Pr161 C171 2.880 . S
Pr161 O182 2.436 1_554 S
Pr161 O184 2.438 . S
Pr161 O186 2.562 . S
Pr161 O187 2.490 . S
Pr161 O188 2.695 1_554 S
Pr161 O189 2.512 1_554 S
Pr161 O191 2.437 1_554 S
C162 Pr160 2.880 . S
C162 C163 1.491 . S
C162 O180 1.254 . S
C162 O181 1.225 . S
C163 C162 1.491 . S
C163 C164 1.392 . S
C163 C168 1.356 . S
C164 C163 1.392 . S
C164 C165 1.368 . S
C164 H192 0.929 . S
C165 C164 1.368 . S
C165 C166 1.386 . S
C165 H193 0.929 . S
C166 C165 1.386 . S
C166 C167 1.373 . S
C167 C166 1.373 . S
C167 C168 1.409 . S
C167 H194 0.931 . S
C168 C163 1.356 . S
C168 C167 1.409 . S
C168 H195 0.930 . S
C169 O182 1.270 1_554 S
C169 O183 1.248 1_554 S
C170 O184 1.267 1_556 S
C170 O185 1.278 . S
C171 Pr161 2.880 . S
C171 C172 1.491 . S
C171 O186 1.254 . S
C171 O187 1.225 . S
C172 C171 1.491 . S
C172 C173 1.392 . S
C172 C177 1.356 . S
C173 C172 1.392 . S
C173 C174 1.368 . S
C173 H196 0.929 . S
C174 C173 1.368 . S
C174 C175 1.386 . S
C174 H197 0.929 . S
C175 C174 1.386 . S
C175 C176 1.373 . S
C176 C175 1.373 . S
C176 C177 1.409 . S
C176 H198 0.931 . S
C177 C172 1.356 . S
C177 C176 1.409 . S
C177 H199 0.930 . S
C178 O188 1.270 . S
C178 O189 1.248 . S
C179 O190 1.267 . S
C179 O191 1.278 . S
O180 Pr160 2.562 . S
O180 C162 1.254 . S
O181 Pr160 2.490 . S
O181 C162 1.225 . S
O182 Pr160 2.695 . S
O182 Pr161 2.436 1_556 S
O182 C169 1.270 1_556 S
O183 Pr160 2.512 . S
O183 C169 1.248 1_556 S
O184 Pr161 2.438 . S
O184 C170 1.267 1_554 S
O185 Pr160 2.437 . S
O185 C170 1.278 . S
O186 Pr161 2.562 . S
O186 C171 1.254 . S
O187 Pr161 2.490 . S
O187 C171 1.225 . S
O188 Pr160 2.436 . S
O188 Pr161 2.695 1_556 S
O188 C178 1.270 . S
O189 Pr161 2.512 1_556 S
O189 C178 1.248 . S
O190 Pr160 2.438 . S
O190 C179 1.267 . S
O191 Pr161 2.437 1_556 S
O191 C179 1.278 . S
H192 C164 0.929 . S
H193 C165 0.929 . S
H194 C167 0.931 . S
H195 C168 0.930 . S
H196 C173 0.929 . S
H197 C174 0.929 . S
H198 C176 0.931 . S
H199 C177 0.930 . S
Pr200 C202 2.880 . S
Pr200 O220 2.562 . S
Pr200 O221 2.490 . S
Pr200 O222 2.695 . S
Pr200 O223 2.512 . S
Pr200 O225 2.437 . S
Pr200 O228 2.436 . S
Pr200 O230 2.438 . S
Pr201 C211 2.880 . S
Pr201 O222 2.436 . S
Pr201 O224 2.438 . S
Pr201 O226 2.562 . S
Pr201 O227 2.490 . S
Pr201 O228 2.695 . S
Pr201 O229 2.512 . S
Pr201 O231 2.437 . S
C202 Pr200 2.880 . S
C202 C203 1.491 . S
C202 O220 1.254 . S
C202 O221 1.225 . S
C203 C202 1.491 . S
C203 C204 1.392 . S
C203 C208 1.356 . S
C204 C203 1.392 . S
C204 C205 1.368 . S
C204 H232 0.929 . S
C205 C204 1.368 . S
C205 C206 1.386 . S
C205 H233 0.929 . S
C206 C205 1.386 . S
C206 C207 1.373 . S
C207 C206 1.373 . S
C207 C208 1.409 . S
C207 H234 0.931 . S
C208 C203 1.356 . S
C208 C207 1.409 . S
C208 H235 0.930 . S
C209 O222 1.270 . S
C209 O223 1.248 . S
C210 O224 1.267 . S
C210 O225 1.278 . S
C211 Pr201 2.880 . S
C211 C212 1.491 . S
C211 O226 1.254 . S
C211 O227 1.225 . S
C212 C211 1.491 . S
C212 C213 1.392 . S
C212 C217 1.356 . S
C213 C212 1.392 . S
C213 C214 1.368 . S
C213 H236 0.929 . S
C214 C213 1.368 . S
C214 C215 1.386 . S
C214 H237 0.929 . S
C215 C214 1.386 . S
C215 C216 1.373 . S
C216 C215 1.373 . S
C216 C217 1.409 . S
C216 H238 0.931 . S
C217 C212 1.356 . S
C217 C216 1.409 . S
C217 H239 0.930 . S
C218 O228 1.270 . S
C218 O229 1.248 . S
C219 O230 1.267 . S
C219 O231 1.278 . S
O220 Pr200 2.562 . S
O220 C202 1.254 . S
O221 Pr200 2.490 . S
O221 C202 1.225 . S
O222 Pr200 2.695 . S
O222 Pr201 2.436 . S
O222 C209 1.270 . S
O223 Pr200 2.512 . S
O223 C209 1.248 . S
O224 Pr201 2.438 . S
O224 C210 1.267 . S
O225 Pr200 2.437 . S
O225 C210 1.278 . S
O226 Pr201 2.562 . S
O226 C211 1.254 . S
O227 Pr201 2.490 . S
O227 C211 1.225 . S
O228 Pr200 2.436 . S
O228 Pr201 2.695 . S
O228 C218 1.270 . S
O229 Pr201 2.512 . S
O229 C218 1.248 . S
O230 Pr200 2.438 . S
O230 C219 1.267 . S
O231 Pr201 2.437 . S
O231 C219 1.278 . S
H232 C204 0.929 . S
H233 C205 0.929 . S
H234 C207 0.931 . S
H235 C208 0.930 . S
H236 C213 0.929 . S
H237 C214 0.929 . S
H238 C216 0.931 . S
H239 C217 0.930 . S
Pr240 C242 2.880 . S
Pr240 O260 2.562 . S
Pr240 O261 2.490 . S
Pr240 O262 2.695 . S
Pr240 O263 2.512 . S
Pr240 O265 2.437 . S
Pr240 O268 2.436 . S
Pr240 O270 2.438 . S
Pr241 C251 2.880 . S
Pr241 O262 2.436 . S
Pr241 O264 2.438 . S
Pr241 O266 2.562 . S
Pr241 O267 2.490 . S
Pr241 O268 2.695 . S
Pr241 O269 2.512 . S
Pr241 O271 2.437 . S
C242 Pr240 2.880 . S
C242 C243 1.491 . S
C242 O260 1.254 . S
C242 O261 1.225 . S
C243 C242 1.491 . S
C243 C244 1.392 . S
C243 C248 1.356 . S
C244 C243 1.392 . S
C244 C245 1.368 . S
C244 H272 0.929 . S
C245 C244 1.368 . S
C245 C246 1.386 . S
C245 H273 0.929 . S
C246 C245 1.386 . S
C246 C247 1.373 . S
C247 C246 1.373 . S
C247 C248 1.409 . S
C247 H274 0.931 . S
C248 C243 1.356 . S
C248 C247 1.409 . S
C248 H275 0.930 . S
C249 O262 1.270 . S
C249 O263 1.248 . S
C250 O264 1.267 . S
C250 O265 1.278 . S
C251 Pr241 2.880 . S
C251 C252 1.491 . S
C251 O266 1.254 . S
C251 O267 1.225 . S
C252 C251 1.491 . S
C252 C253 1.392 . S
C252 C257 1.356 . S
C253 C252 1.392 . S
C253 C254 1.368 . S
C253 H276 0.929 . S
C254 C253 1.368 . S
C254 C255 1.386 . S
C254 H277 0.929 . S
C255 C254 1.386 . S
C255 C256 1.373 . S
C256 C255 1.373 . S
C256 C257 1.409 . S
C256 H278 0.931 . S
C257 C252 1.356 . S
C257 C256 1.409 . S
C257 H279 0.930 . S
C258 O268 1.270 . S
C258 O269 1.248 . S
C259 O270 1.267 . S
C259 O271 1.278 . S
O260 Pr240 2.562 . S
O260 C242 1.254 . S
O261 Pr240 2.490 . S
O261 C242 1.225 . S
O262 Pr240 2.695 . S
O262 Pr241 2.436 . S
O262 C249 1.270 . S
O263 Pr240 2.512 . S
O263 C249 1.248 . S
O264 Pr241 2.438 . S
O264 C250 1.267 . S
O265 Pr240 2.437 . S
O265 C250 1.278 . S
O266 Pr241 2.562 . S
O266 C251 1.254 . S
O267 Pr241 2.490 . S
O267 C251 1.225 . S
O268 Pr240 2.436 . S
O268 Pr241 2.695 . S
O268 C258 1.270 . S
O269 Pr241 2.512 . S
O269 C258 1.248 . S
O270 Pr240 2.438 . S
O270 C259 1.267 . S
O271 Pr241 2.437 . S
O271 C259 1.278 . S
H272 C244 0.929 . S
H273 C245 0.929 . S
H274 C247 0.931 . S
H275 C248 0.930 . S
H276 C253 0.929 . S
H277 C254 0.929 . S
H278 C256 0.931 . S
H279 C257 0.930 . S
Pr280 C282 2.880 . S
Pr280 O300 2.562 . S
Pr280 O301 2.490 . S
Pr280 O302 2.695 . S
Pr280 O303 2.512 . S
Pr280 O305 2.437 . S
Pr280 O308 2.436 . S
Pr280 O310 2.438 . S
Pr281 C291 2.880 . S
Pr281 O302 2.436 . S
Pr281 O304 2.438 . S
Pr281 O306 2.562 . S
Pr281 O307 2.490 . S
Pr281 O308 2.695 . S
Pr281 O309 2.512 . S
Pr281 O311 2.437 . S
C282 Pr280 2.880 . S
C282 C283 1.491 . S
C282 O300 1.254 . S
C282 O301 1.225 . S
C283 C282 1.491 . S
C283 C284 1.392 . S
C283 C288 1.356 . S
C284 C283 1.392 . S
C284 C285 1.368 . S
C284 H312 0.929 . S
C285 C284 1.368 . S
C285 C286 1.386 . S
C285 H313 0.929 . S
C286 C285 1.386 . S
C286 C287 1.373 . S
C287 C286 1.373 . S
C287 C288 1.409 . S
C287 H314 0.931 . S
C288 C283 1.356 . S
C288 C287 1.409 . S
C288 H315 0.930 . S
C289 O302 1.270 . S
C289 O303 1.248 . S
C290 O304 1.267 . S
C290 O305 1.278 . S
C291 Pr281 2.880 . S
C291 C292 1.491 . S
C291 O306 1.254 . S
C291 O307 1.225 . S
C292 C291 1.491 . S
C292 C293 1.392 . S
C292 C297 1.356 . S
C293 C292 1.392 . S
C293 C294 1.368 . S
C293 H316 0.929 . S
C294 C293 1.368 . S
C294 C295 1.386 . S
C294 H317 0.929 . S
C295 C294 1.386 . S
C295 C296 1.373 . S
C296 C295 1.373 . S
C296 C297 1.409 . S
C296 H318 0.931 . S
C297 C292 1.356 . S
C297 C296 1.409 . S
C297 H319 0.930 . S
C298 O308 1.270 . S
C298 O309 1.248 . S
C299 O310 1.267 . S
C299 O311 1.278 . S
O300 Pr280 2.562 . S
O300 C282 1.254 . S
O301 Pr280 2.490 . S
O301 C282 1.225 . S
O302 Pr280 2.695 . S
O302 Pr281 2.436 . S
O302 C289 1.270 . S
O303 Pr280 2.512 . S
O303 C289 1.248 . S
O304 Pr281 2.438 . S
O304 C290 1.267 . S
O305 Pr280 2.437 . S
O305 C290 1.278 . S
O306 Pr281 2.562 . S
O306 C291 1.254 . S
O307 Pr281 2.490 . S
O307 C291 1.225 . S
O308 Pr280 2.436 . S
O308 Pr281 2.695 . S
O308 C298 1.270 . S
O309 Pr281 2.512 . S
O309 C298 1.248 . S
O310 Pr280 2.438 . S
O310 C299 1.267 . S
O311 Pr281 2.437 . S
O311 C299 1.278 . S
H312 C284 0.929 . S
H313 C285 0.929 . S
H314 C287 0.931 . S
H315 C288 0.930 . S
H316 C293 0.929 . S
H317 C294 0.929 . S
H318 C296 0.931 . S
H319 C297 0.930 . S
Pr320 C322 2.880 . S
Pr320 O340 2.562 . S
Pr320 O341 2.490 . S
Pr320 O342 2.695 . S
Pr320 O343 2.512 . S
Pr320 O345 2.437 . S
Pr320 O348 2.436 . S
Pr320 O350 2.438 . S
Pr321 C331 2.880 . S
Pr321 O342 2.436 . S
Pr321 O344 2.438 . S
Pr321 O346 2.562 . S
Pr321 O347 2.490 . S
Pr321 O348 2.695 . S
Pr321 O349 2.512 . S
Pr321 O351 2.437 . S
C322 Pr320 2.880 . S
C322 C323 1.491 . S
C322 O340 1.254 . S
C322 O341 1.225 . S
C323 C322 1.491 . S
C323 C324 1.392 . S
C323 C328 1.356 . S
C324 C323 1.392 . S
C324 C325 1.368 . S
C324 H352 0.929 . S
C325 C324 1.368 . S
C325 C326 1.386 . S
C325 H353 0.929 . S
C326 C325 1.386 . S
C326 C327 1.373 . S
C327 C326 1.373 . S
C327 C328 1.409 . S
C327 H354 0.931 . S
C328 C323 1.356 . S
C328 C327 1.409 . S
C328 H355 0.930 . S
C329 O342 1.270 . S
C329 O343 1.248 . S
C330 O344 1.267 . S
C330 O345 1.278 . S
C331 Pr321 2.880 . S
C331 C332 1.491 . S
C331 O346 1.254 . S
C331 O347 1.225 . S
C332 C331 1.491 . S
C332 C333 1.392 . S
C332 C337 1.356 . S
C333 C332 1.392 . S
C333 C334 1.368 . S
C333 H356 0.929 . S
C334 C333 1.368 . S
C334 C335 1.386 . S
C334 H357 0.929 . S
C335 C334 1.386 . S
C335 C336 1.373 . S
C336 C335 1.373 . S
C336 C337 1.409 . S
C336 H358 0.931 . S
C337 C332 1.356 . S
C337 C336 1.409 . S
C337 H359 0.930 . S
C338 O348 1.270 . S
C338 O349 1.248 . S
C339 O350 1.267 . S
C339 O351 1.278 . S
O340 Pr320 2.562 . S
O340 C322 1.254 . S
O341 Pr320 2.490 . S
O341 C322 1.225 . S
O342 Pr320 2.695 . S
O342 Pr321 2.436 . S
O342 C329 1.270 . S
O343 Pr320 2.512 . S
O343 C329 1.248 . S
O344 Pr321 2.438 . S
O344 C330 1.267 . S
O345 Pr320 2.437 . S
O345 C330 1.278 . S
O346 Pr321 2.562 . S
O346 C331 1.254 . S
O347 Pr321 2.490 . S
O347 C331 1.225 . S
O348 Pr320 2.436 . S
O348 Pr321 2.695 . S
O348 C338 1.270 . S
O349 Pr321 2.512 . S
O349 C338 1.248 . S
O350 Pr320 2.438 . S
O350 C339 1.267 . S
O351 Pr321 2.437 . S
O351 C339 1.278 . S
H352 C324 0.929 . S
H353 C325 0.929 . S
H354 C327 0.931 . S
H355 C328 0.930 . S
H356 C333 0.929 . S
H357 C334 0.929 . S
H358 C336 0.931 . S
H359 C337 0.930 . S
Pr360 C362 2.880 . S
Pr360 O380 2.562 . S
Pr360 O381 2.490 . S
Pr360 O382 2.695 . S
Pr360 O383 2.512 . S
Pr360 O385 2.437 . S
Pr360 O388 2.436 . S
Pr360 O390 2.438 . S
Pr361 C371 2.880 . S
Pr361 O382 2.436 . S
Pr361 O384 2.438 . S
Pr361 O386 2.562 . S
Pr361 O387 2.490 . S
Pr361 O388 2.695 . S
Pr361 O389 2.512 . S
Pr361 O391 2.437 . S
C362 Pr360 2.880 . S
C362 C363 1.491 . S
C362 O380 1.254 . S
C362 O381 1.225 . S
C363 C362 1.491 . S
C363 C364 1.392 . S
C363 C368 1.356 . S
C364 C363 1.392 . S
C364 C365 1.368 . S
C364 H392 0.929 . S
C365 C364 1.368 . S
C365 C366 1.386 . S
C365 H393 0.929 . S
C366 C365 1.386 . S
C366 C367 1.373 . S
C367 C366 1.373 . S
C367 C368 1.409 . S
C367 H394 0.931 . S
C368 C363 1.356 . S
C368 C367 1.409 . S
C368 H395 0.930 . S
C369 O382 1.270 . S
C369 O383 1.248 . S
C370 O384 1.267 . S
C370 O385 1.278 . S
C371 Pr361 2.880 . S
C371 C372 1.491 . S
C371 O386 1.254 . S
C371 O387 1.225 . S
C372 C371 1.491 . S
C372 C373 1.392 . S
C372 C377 1.356 . S
C373 C372 1.392 . S
C373 C374 1.368 . S
C373 H396 0.929 . S
C374 C373 1.368 . S
C374 C375 1.386 . S
C374 H397 0.929 . S
C375 C374 1.386 . S
C375 C376 1.373 . S
C376 C375 1.373 . S
C376 C377 1.409 . S
C376 H398 0.931 . S
C377 C372 1.356 . S
C377 C376 1.409 . S
C377 H399 0.930 . S
C378 O388 1.270 . S
C378 O389 1.248 . S
C379 O390 1.267 . S
C379 O391 1.278 . S
O380 Pr360 2.562 . S
O380 C362 1.254 . S
O381 Pr360 2.490 . S
O381 C362 1.225 . S
O382 Pr360 2.695 . S
O382 Pr361 2.436 . S
O382 C369 1.270 . S
O383 Pr360 2.512 . S
O383 C369 1.248 . S
O384 Pr361 2.438 . S
O384 C370 1.267 . S
O385 Pr360 2.437 . S
O385 C370 1.278 . S
O386 Pr361 2.562 . S
O386 C371 1.254 . S
O387 Pr361 2.490 . S
O387 C371 1.225 . S
O388 Pr360 2.436 . S
O388 Pr361 2.695 . S
O388 C378 1.270 . S
O389 Pr361 2.512 . S
O389 C378 1.248 . S
O390 Pr360 2.438 . S
O390 C379 1.267 . S
O391 Pr361 2.437 . S
O391 C379 1.278 . S
H392 C364 0.929 . S
H393 C365 0.929 . S
H394 C367 0.931 . S
H395 C368 0.930 . S
H396 C373 0.929 . S
H397 C374 0.929 . S
H398 C376 0.931 . S
H399 C377 0.930 . S
Pr400 C402 2.880 . S
Pr400 O420 2.562 . S
Pr400 O421 2.490 . S
Pr400 O422 2.695 1_556 S
Pr400 O423 2.512 1_556 S
Pr400 O425 2.437 1_556 S
Pr400 O428 2.436 1_556 S
Pr400 O430 2.438 . S
Pr401 C411 2.880 . S
Pr401 O422 2.436 . S
Pr401 O424 2.438 . S
Pr401 O426 2.562 . S
Pr401 O427 2.490 . S
Pr401 O428 2.695 . S
Pr401 O429 2.512 . S
Pr401 O431 2.437 . S
C402 Pr400 2.880 . S
C402 C403 1.491 . S
C402 O420 1.254 . S
C402 O421 1.225 . S
C403 C402 1.491 . S
C403 C404 1.392 . S
C403 C408 1.356 . S
C404 C403 1.392 . S
C404 C405 1.368 . S
C404 H432 0.929 . S
C405 C404 1.368 . S
C405 C406 1.386 . S
C405 H433 0.929 . S
C406 C405 1.386 . S
C406 C407 1.373 . S
C407 C406 1.373 . S
C407 C408 1.409 . S
C407 H434 0.931 . S
C408 C403 1.356 . S
C408 C407 1.409 . S
C408 H435 0.930 . S
C409 O422 1.270 . S
C409 O423 1.248 . S
C410 O424 1.267 . S
C410 O425 1.278 . S
C411 Pr401 2.880 . S
C411 C412 1.491 . S
C411 O426 1.254 . S
C411 O427 1.225 . S
C412 C411 1.491 . S
C412 C413 1.392 . S
C412 C417 1.356 . S
C413 C412 1.392 . S
C413 C414 1.368 . S
C413 H436 0.929 . S
C414 C413 1.368 . S
C414 C415 1.386 . S
C414 H437 0.929 . S
C415 C414 1.386 . S
C415 C416 1.373 . S
C416 C415 1.373 . S
C416 C417 1.409 . S
C416 H438 0.931 . S
C417 C412 1.356 . S
C417 C416 1.409 . S
C417 H439 0.930 . S
C418 O428 1.270 1_556 S
C418 O429 1.248 1_556 S
C419 O430 1.267 1_554 S
C419 O431 1.278 . S
O420 Pr400 2.562 . S
O420 C402 1.254 . S
O421 Pr400 2.490 . S
O421 C402 1.225 . S
O422 Pr400 2.695 1_554 S
O422 Pr401 2.436 . S
O422 C409 1.270 . S
O423 Pr400 2.512 1_554 S
O423 C409 1.248 . S
O424 Pr401 2.438 . S
O424 C410 1.267 . S
O425 Pr400 2.437 1_554 S
O425 C410 1.278 . S
O426 Pr401 2.562 . S
O426 C411 1.254 . S
O427 Pr401 2.490 . S
O427 C411 1.225 . S
O428 Pr400 2.436 1_554 S
O428 Pr401 2.695 . S
O428 C418 1.270 1_554 S
O429 Pr401 2.512 . S
O429 C418 1.248 1_554 S
O430 Pr400 2.438 . S
O430 C419 1.267 1_556 S
O431 Pr401 2.437 . S
O431 C419 1.278 . S
H432 C404 0.929 . S
H433 C405 0.929 . S
H434 C407 0.931 . S
H435 C408 0.930 . S
H436 C413 0.929 . S
H437 C414 0.929 . S
H438 C416 0.931 . S
H439 C417 0.930 . S
Pr440 C442 2.880 . S
Pr440 O460 2.562 . S
Pr440 O461 2.490 . S
Pr440 O462 2.695 . S
Pr440 O463 2.512 . S
Pr440 O465 2.437 . S
Pr440 O468 2.436 . S
Pr440 O470 2.438 . S
Pr441 C451 2.880 . S
Pr441 O462 2.436 . S
Pr441 O464 2.438 . S
Pr441 O466 2.562 . S
Pr441 O467 2.490 . S
Pr441 O468 2.695 . S
Pr441 O469 2.512 . S
Pr441 O471 2.437 . S
C442 Pr440 2.880 . S
C442 C443 1.491 . S
C442 O460 1.254 . S
C442 O461 1.225 . S
C443 C442 1.491 . S
C443 C444 1.392 . S
C443 C448 1.356 . S
C444 C443 1.392 . S
C444 C445 1.368 . S
C444 H472 0.929 . S
C445 C444 1.368 . S
C445 C446 1.386 . S
C445 H473 0.929 . S
C446 C445 1.386 . S
C446 C447 1.373 . S
C447 C446 1.373 . S
C447 C448 1.409 . S
C447 H474 0.931 . S
C448 C443 1.356 . S
C448 C447 1.409 . S
C448 H475 0.930 . S
C449 O462 1.270 . S
C449 O463 1.248 . S
C450 O464 1.267 . S
C450 O465 1.278 . S
C451 Pr441 2.880 . S
C451 C452 1.491 . S
C451 O466 1.254 . S
C451 O467 1.225 . S
C452 C451 1.491 . S
C452 C453 1.392 . S
C452 C457 1.356 . S
C453 C452 1.392 . S
C453 C454 1.368 . S
C453 H476 0.929 . S
C454 C453 1.368 . S
C454 C455 1.386 . S
C454 H477 0.929 . S
C455 C454 1.386 . S
C455 C456 1.373 . S
C456 C455 1.373 . S
C456 C457 1.409 . S
C456 H478 0.931 . S
C457 C452 1.356 . S
C457 C456 1.409 . S
C457 H479 0.930 . S
C458 O468 1.270 . S
C458 O469 1.248 . S
C459 O470 1.267 . S
C459 O471 1.278 . S
O460 Pr440 2.562 . S
O460 C442 1.254 . S
O461 Pr440 2.490 . S
O461 C442 1.225 . S
O462 Pr440 2.695 . S
O462 Pr441 2.436 . S
O462 C449 1.270 . S
O463 Pr440 2.512 . S
O463 C449 1.248 . S
O464 Pr441 2.438 . S
O464 C450 1.267 . S
O465 Pr440 2.437 . S
O465 C450 1.278 . S
O466 Pr441 2.562 . S
O466 C451 1.254 . S
O467 Pr441 2.490 . S
O467 C451 1.225 . S
O468 Pr440 2.436 . S
O468 Pr441 2.695 . S
O468 C458 1.270 . S
O469 Pr441 2.512 . S
O469 C458 1.248 . S
O470 Pr440 2.438 . S
O470 C459 1.267 . S
O471 Pr441 2.437 . S
O471 C459 1.278 . S
H472 C444 0.929 . S
H473 C445 0.929 . S
H474 C447 0.931 . S
H475 C448 0.930 . S
H476 C453 0.929 . S
H477 C454 0.929 . S
H478 C456 0.931 . S
H479 C457 0.930 . S
Pr480 C482 2.880 . S
Pr480 O500 2.562 . S
Pr480 O501 2.490 . S
Pr480 O502 2.695 . S
Pr480 O503 2.512 . S
Pr480 O505 2.437 . S
Pr480 O508 2.436 . S
Pr480 O510 2.438 . S
Pr481 C491 2.880 . S
Pr481 O502 2.436 . S
Pr481 O504 2.438 . S
Pr481 O506 2.562 . S
Pr481 O507 2.490 . S
Pr481 O508 2.695 . S
Pr481 O509 2.512 . S
Pr481 O511 2.437 . S
C482 Pr480 2.880 . S
C482 C483 1.491 . S
C482 O500 1.254 . S
C482 O501 1.225 . S
C483 C482 1.491 . S
C483 C484 1.392 . S
C483 C488 1.356 . S
C484 C483 1.392 . S
C484 C485 1.368 . S
C484 H512 0.929 . S
C485 C484 1.368 . S
C485 C486 1.386 . S
C485 H513 0.929 . S
C486 C485 1.386 . S
C486 C487 1.373 . S
C487 C486 1.373 . S
C487 C488 1.409 . S
C487 H514 0.931 . S
C488 C483 1.356 . S
C488 C487 1.409 . S
C488 H515 0.930 . S
C489 O502 1.270 . S
C489 O503 1.248 . S
C490 O504 1.267 . S
C490 O505 1.278 . S
C491 Pr481 2.880 . S
C491 C492 1.491 . S
C491 O506 1.254 . S
C491 O507 1.225 . S
C492 C491 1.491 . S
C492 C493 1.392 . S
C492 C497 1.356 . S
C493 C492 1.392 . S
C493 C494 1.368 . S
C493 H516 0.929 . S
C494 C493 1.368 . S
C494 C495 1.386 . S
C494 H517 0.929 . S
C495 C494 1.386 . S
C495 C496 1.373 . S
C496 C495 1.373 . S
C496 C497 1.409 . S
C496 H518 0.931 . S
C497 C492 1.356 . S
C497 C496 1.409 . S
C497 H519 0.930 . S
C498 O508 1.270 . S
C498 O509 1.248 . S
C499 O510 1.267 . S
C499 O511 1.278 . S
O500 Pr480 2.562 . S
O500 C482 1.254 . S
O501 Pr480 2.490 . S
O501 C482 1.225 . S
O502 Pr480 2.695 . S
O502 Pr481 2.436 . S
O502 C489 1.270 . S
O503 Pr480 2.512 . S
O503 C489 1.248 . S
O504 Pr481 2.438 . S
O504 C490 1.267 . S
O505 Pr480 2.437 . S
O505 C490 1.278 . S
O506 Pr481 2.562 . S
O506 C491 1.254 . S
O507 Pr481 2.490 . S
O507 C491 1.225 . S
O508 Pr480 2.436 . S
O508 Pr481 2.695 . S
O508 C498 1.270 . S
O509 Pr481 2.512 . S
O509 C498 1.248 . S
O510 Pr480 2.438 . S
O510 C499 1.267 . S
O511 Pr481 2.437 . S
O511 C499 1.278 . S
H512 C484 0.929 . S
H513 C485 0.929 . S
H514 C487 0.931 . S
H515 C488 0.930 . S
H516 C493 0.929 . S
H517 C494 0.929 . S
H518 C496 0.931 . S
H519 C497 0.930 . S
Pr520 C522 2.880 . S
Pr520 O540 2.562 . S
Pr520 O541 2.490 . S
Pr520 O542 2.695 . S
Pr520 O543 2.512 . S
Pr520 O545 2.437 . S
Pr520 O548 2.436 . S
Pr520 O550 2.438 . S
Pr521 C531 2.880 . S
Pr521 O542 2.436 . S
Pr521 O544 2.438 . S
Pr521 O546 2.562 . S
Pr521 O547 2.490 . S
Pr521 O548 2.695 . S
Pr521 O549 2.512 . S
Pr521 O551 2.437 . S
C522 Pr520 2.880 . S
C522 C523 1.491 . S
C522 O540 1.254 . S
C522 O541 1.225 . S
C523 C522 1.491 . S
C523 C524 1.392 . S
C523 C528 1.356 . S
C524 C523 1.392 . S
C524 C525 1.368 . S
C524 H552 0.929 . S
C525 C524 1.368 . S
C525 C526 1.386 . S
C525 H553 0.929 . S
C526 C525 1.386 . S
C526 C527 1.373 . S
C527 C526 1.373 . S
C527 C528 1.409 . S
C527 H554 0.931 . S
C528 C523 1.356 . S
C528 C527 1.409 . S
C528 H555 0.930 . S
C529 O542 1.270 . S
C529 O543 1.248 . S
C530 O544 1.267 . S
C530 O545 1.278 . S
C531 Pr521 2.880 . S
C531 C532 1.491 . S
C531 O546 1.254 . S
C531 O547 1.225 . S
C532 C531 1.491 . S
C532 C533 1.392 . S
C532 C537 1.356 . S
C533 C532 1.392 . S
C533 C534 1.368 . S
C533 H556 0.929 . S
C534 C533 1.368 . S
C534 C535 1.386 . S
C534 H557 0.929 . S
C535 C534 1.386 . S
C535 C536 1.373 . S
C536 C535 1.373 . S
C536 C537 1.409 . S
C536 H558 0.931 . S
C537 C532 1.356 . S
C537 C536 1.409 . S
C537 H559 0.930 . S
C538 O548 1.270 . S
C538 O549 1.248 . S
C539 O550 1.267 . S
C539 O551 1.278 . S
O540 Pr520 2.562 . S
O540 C522 1.254 . S
O541 Pr520 2.490 . S
O541 C522 1.225 . S
O542 Pr520 2.695 . S
O542 Pr521 2.436 . S
O542 C529 1.270 . S
O543 Pr520 2.512 . S
O543 C529 1.248 . S
O544 Pr521 2.438 . S
O544 C530 1.267 . S
O545 Pr520 2.437 . S
O545 C530 1.278 . S
O546 Pr521 2.562 . S
O546 C531 1.254 . S
O547 Pr521 2.490 . S
O547 C531 1.225 . S
O548 Pr520 2.436 . S
O548 Pr521 2.695 . S
O548 C538 1.270 . S
O549 Pr521 2.512 . S
O549 C538 1.248 . S
O550 Pr520 2.438 . S
O550 C539 1.267 . S
O551 Pr521 2.437 . S
O551 C539 1.278 . S
H552 C524 0.929 . S
H553 C525 0.929 . S
H554 C527 0.931 . S
H555 C528 0.930 . S
H556 C533 0.929 . S
H557 C534 0.929 . S
H558 C536 0.931 . S
H559 C537 0.930 . S
Pr560 C562 2.880 . S
Pr560 O580 2.562 . S
Pr560 O581 2.490 . S
Pr560 O582 2.695 . S
Pr560 O583 2.512 . S
Pr560 O585 2.437 . S
Pr560 O588 2.436 . S
Pr560 O590 2.438 . S
Pr561 C571 2.880 . S
Pr561 O582 2.436 1_554 S
Pr561 O584 2.438 . S
Pr561 O586 2.562 . S
Pr561 O587 2.490 . S
Pr561 O588 2.695 1_554 S
Pr561 O589 2.512 1_554 S
Pr561 O591 2.437 1_554 S
C562 Pr560 2.880 . S
C562 C563 1.491 . S
C562 O580 1.254 . S
C562 O581 1.225 . S
C563 C562 1.491 . S
C563 C564 1.392 . S
C563 C568 1.356 . S
C564 C563 1.392 . S
C564 C565 1.368 . S
C564 H592 0.929 . S
C565 C564 1.368 . S
C565 C566 1.386 . S
C565 H593 0.929 . S
C566 C565 1.386 . S
C566 C567 1.373 . S
C567 C566 1.373 . S
C567 C568 1.409 . S
C567 H594 0.931 . S
C568 C563 1.356 . S
C568 C567 1.409 . S
C568 H595 0.930 . S
C569 O582 1.270 1_554 S
C569 O583 1.248 1_554 S
C570 O584 1.267 1_556 S
C570 O585 1.278 . S
C571 Pr561 2.880 . S
C571 C572 1.491 . S
C571 O586 1.254 . S
C571 O587 1.225 . S
C572 C571 1.491 . S
C572 C573 1.392 . S
C572 C577 1.356 . S
C573 C572 1.392 . S
C573 C574 1.368 . S
C573 H596 0.929 . S
C574 C573 1.368 . S
C574 C575 1.386 . S
C574 H597 0.929 . S
C575 C574 1.386 . S
C575 C576 1.373 . S
C576 C575 1.373 . S
C576 C577 1.409 . S
C576 H598 0.931 . S
C577 C572 1.356 . S
C577 C576 1.409 . S
C577 H599 0.930 . S
C578 O588 1.270 . S
C578 O589 1.248 . S
C579 O590 1.267 . S
C579 O591 1.278 . S
O580 Pr560 2.562 . S
O580 C562 1.254 . S
O581 Pr560 2.490 . S
O581 C562 1.225 . S
O582 Pr560 2.695 . S
O582 Pr561 2.436 1_556 S
O582 C569 1.270 1_556 S
O583 Pr560 2.512 . S
O583 C569 1.248 1_556 S
O584 Pr561 2.438 . S
O584 C570 1.267 1_554 S
O585 Pr560 2.437 . S
O585 C570 1.278 . S
O586 Pr561 2.562 . S
O586 C571 1.254 . S
O587 Pr561 2.490 . S
O587 C571 1.225 . S
O588 Pr560 2.436 . S
O588 Pr561 2.695 1_556 S
O588 C578 1.270 . S
O589 Pr561 2.512 1_556 S
O589 C578 1.248 . S
O590 Pr560 2.438 . S
O590 C579 1.267 . S
O591 Pr561 2.437 1_556 S
O591 C579 1.278 . S
H592 C564 0.929 . S
H593 C565 0.929 . S
H594 C567 0.931 . S
H595 C568 0.930 . S
H596 C573 0.929 . S
H597 C574 0.929 . S
H598 C576 0.931 . S
H599 C577 0.930 . S
Pr600 C602 2.880 . S
Pr600 O620 2.562 . S
Pr600 O621 2.490 . S
Pr600 O622 2.695 . S
Pr600 O623 2.512 . S
Pr600 O625 2.437 . S
Pr600 O628 2.436 . S
Pr600 O630 2.438 . S
Pr601 C611 2.880 . S
Pr601 O622 2.436 . S
Pr601 O624 2.438 . S
Pr601 O626 2.562 . S
Pr601 O627 2.490 . S
Pr601 O628 2.695 . S
Pr601 O629 2.512 . S
Pr601 O631 2.437 . S
C602 Pr600 2.880 . S
C602 C603 1.491 . S
C602 O620 1.254 . S
C602 O621 1.225 . S
C603 C602 1.491 . S
C603 C604 1.392 . S
C603 C608 1.356 . S
C604 C603 1.392 . S
C604 C605 1.368 . S
C604 H632 0.929 . S
C605 C604 1.368 . S
C605 C606 1.386 . S
C605 H633 0.929 . S
C606 C605 1.386 . S
C606 C607 1.373 . S
C607 C606 1.373 . S
C607 C608 1.409 . S
C607 H634 0.931 . S
C608 C603 1.356 . S
C608 C607 1.409 . S
C608 H635 0.930 . S
C609 O622 1.270 . S
C609 O623 1.248 . S
C610 O624 1.267 . S
C610 O625 1.278 . S
C611 Pr601 2.880 . S
C611 C612 1.491 . S
C611 O626 1.254 . S
C611 O627 1.225 . S
C612 C611 1.491 . S
C612 C613 1.392 . S
C612 C617 1.356 . S
C613 C612 1.392 . S
C613 C614 1.368 . S
C613 H636 0.929 . S
C614 C613 1.368 . S
C614 C615 1.386 . S
C614 H637 0.929 . S
C615 C614 1.386 . S
C615 C616 1.373 . S
C616 C615 1.373 . S
C616 C617 1.409 . S
C616 H638 0.931 . S
C617 C612 1.356 . S
C617 C616 1.409 . S
C617 H639 0.930 . S
C618 O628 1.270 . S
C618 O629 1.248 . S
C619 O630 1.267 . S
C619 O631 1.278 . S
O620 Pr600 2.562 . S
O620 C602 1.254 . S
O621 Pr600 2.490 . S
O621 C602 1.225 . S
O622 Pr600 2.695 . S
O622 Pr601 2.436 . S
O622 C609 1.270 . S
O623 Pr600 2.512 . S
O623 C609 1.248 . S
O624 Pr601 2.438 . S
O624 C610 1.267 . S
O625 Pr600 2.437 . S
O625 C610 1.278 . S
O626 Pr601 2.562 . S
O626 C611 1.254 . S
O627 Pr601 2.490 . S
O627 C611 1.225 . S
O628 Pr600 2.436 . S
O628 Pr601 2.695 . S
O628 C618 1.270 . S
O629 Pr601 2.512 . S
O629 C618 1.248 . S
O630 Pr600 2.438 . S
O630 C619 1.267 . S
O631 Pr601 2.437 . S
O631 C619 1.278 . S
H632 C604 0.929 . S
H633 C605 0.929 . S
H634 C607 0.931 . S
H635 C608 0.930 . S
H636 C613 0.929 . S
H637 C614 0.929 . S
H638 C616 0.931 . S
H639 C617 0.930 . S
H640 C648 0.950 . S
H641 C653 0.950 1_556 S
H642 C650 0.950 . S
H643 C652 0.950 1_556 S
H644 C654 0.950 1_556 S
H645 C656 0.950 1_556 S
H646 C658 0.950 . S
H647 C659 0.950 . S
C648 H640 0.950 . S
C648 C649 1.386 . S
C648 C650 1.391 . S
C649 C648 1.386 . S
C649 C653 1.393 . S
C650 H642 0.950 . S
C650 C648 1.391 . S
C650 C651 1.400 . S
C651 C650 1.400 . S
C651 C652 1.398 . S
C651 C657 1.491 . S
C652 H643 0.950 1_554 S
C652 C651 1.398 . S
C652 C653 1.391 . S
C653 H641 0.950 1_554 S
C653 C649 1.393 . S
C653 C652 1.391 . S
C654 H644 0.950 1_554 S
C654 C655 1.386 . S
C654 C656 1.391 . S
C655 C654 1.386 . S
C655 C659 1.393 . S
C656 H645 0.950 1_554 S
C656 C654 1.391 . S
C656 C657 1.400 . S
C657 C651 1.491 . S
C657 C656 1.400 . S
C657 C658 1.398 . S
C658 H646 0.950 . S
C658 C657 1.398 . S
C658 C659 1.391 . S
C659 H647 0.950 . S
C659 C655 1.393 . S
C659 C658 1.391 . S
H660 C668 0.950 . S
H661 C673 0.950 . S
H662 C670 0.950 . S
H663 C672 0.950 . S
H664 C674 0.950 . S
H665 C676 0.950 . S
H666 C678 0.950 . S
H667 C679 0.950 . S
C668 H660 0.950 . S
C668 C669 1.386 . S
C668 C670 1.391 . S
C669 C668 1.386 . S
C669 C673 1.393 . S
C670 H662 0.950 . S
C670 C668 1.391 . S
C670 C671 1.400 . S
C671 C670 1.400 . S
C671 C672 1.398 . S
C671 C677 1.491 . S
C672 H663 0.950 . S
C672 C671 1.398 . S
C672 C673 1.391 . S
C673 H661 0.950 . S
C673 C669 1.393 . S
C673 C672 1.391 . S
C674 H664 0.950 . S
C674 C675 1.386 . S
C674 C676 1.391 . S
C675 C674 1.386 . S
C675 C679 1.393 . S
C676 H665 0.950 . S
C676 C674 1.391 . S
C676 C677 1.400 . S
C677 C671 1.491 . S
C677 C676 1.400 . S
C677 C678 1.398 . S
C678 H666 0.950 . S
C678 C677 1.398 . S
C678 C679 1.391 . S
C679 H667 0.950 . S
C679 C675 1.393 . S
C679 C678 1.391 . S
H680 C688 0.950 . S
H681 C693 0.950 . S
H682 C690 0.950 1_655 S
H683 C692 0.950 . S
H684 C694 0.950 . S
H685 C696 0.950 1_455 S
H686 C698 0.950 . S
H687 C699 0.950 . S
C688 H680 0.950 . S
C688 C689 1.386 . S
C688 C690 1.391 . S
C689 C688 1.386 . S
C689 C693 1.393 . S
C690 H682 0.950 1_455 S
C690 C688 1.391 . S
C690 C691 1.400 . S
C691 C690 1.400 . S
C691 C692 1.398 . S
C691 C697 1.491 1_455 S
C692 H683 0.950 . S
C692 C691 1.398 . S
C692 C693 1.391 . S
C693 H681 0.950 . S
C693 C689 1.393 . S
C693 C692 1.391 . S
C694 H684 0.950 . S
C694 C695 1.386 . S
C694 C696 1.391 . S
C695 C694 1.386 . S
C695 C699 1.393 . S
C696 H685 0.950 1_655 S
C696 C694 1.391 . S
C696 C697 1.400 . S
C697 C691 1.491 1_655 S
C697 C696 1.400 . S
C697 C698 1.398 . S
C698 H686 0.950 . S
C698 C697 1.398 . S
C698 C699 1.391 . S
C699 H687 0.950 . S
C699 C695 1.393 . S
C699 C698 1.391 . S
H700 C708 0.950 . S
H701 C713 0.950 . S
H702 C710 0.950 . S
H703 C712 0.950 . S
H704 C714 0.950 . S
H705 C716 0.950 . S
H706 C718 0.950 . S
H707 C719 0.950 . S
C708 H700 0.950 . S
C708 C709 1.386 . S
C708 C710 1.391 . S
C709 C708 1.386 . S
C709 C713 1.393 . S
C710 H702 0.950 . S
C710 C708 1.391 . S
C710 C711 1.400 . S
C711 C710 1.400 . S
C711 C712 1.398 . S
C711 C717 1.491 1_655 S
C712 H703 0.950 . S
C712 C711 1.398 . S
C712 C713 1.391 . S
C713 H701 0.950 . S
C713 C709 1.393 . S
C713 C712 1.391 . S
C714 H704 0.950 . S
C714 C715 1.386 . S
C714 C716 1.391 . S
C715 C714 1.386 . S
C715 C719 1.393 . S
C716 H705 0.950 . S
C716 C714 1.391 . S
C716 C717 1.400 . S
C717 C711 1.491 1_455 S
C717 C716 1.400 . S
C717 C718 1.398 . S
C718 H706 0.950 . S
C718 C717 1.398 . S
C718 C719 1.391 . S
C719 H707 0.950 . S
C719 C715 1.393 . S
C719 C718 1.391 . S
H720 C728 0.950 . S
H721 C733 0.950 . S
H722 C730 0.950 . S
H723 C732 0.950 . S
H724 C734 0.950 . S
H725 C736 0.950 . S
H726 C738 0.950 . S
H727 C739 0.950 . S
C728 H720 0.950 . S
C728 C729 1.386 . S
C728 C730 1.391 . S
C729 C728 1.386 . S
C729 C733 1.393 . S
C730 H722 0.950 . S
C730 C728 1.391 . S
C730 C731 1.400 . S
C731 C730 1.400 . S
C731 C732 1.398 . S
C731 C737 1.491 . S
C732 H723 0.950 . S
C732 C731 1.398 . S
C732 C733 1.391 . S
C733 H721 0.950 . S
C733 C729 1.393 . S
C733 C732 1.391 . S
C734 H724 0.950 . S
C734 C735 1.386 . S
C734 C736 1.391 . S
C735 C734 1.386 . S
C735 C739 1.393 . S
C736 H725 0.950 . S
C736 C734 1.391 . S
C736 C737 1.400 . S
C737 C731 1.491 . S
C737 C736 1.400 . S
C737 C738 1.398 . S
C738 H726 0.950 . S
C738 C737 1.398 . S
C738 C739 1.391 . S
C739 H727 0.950 . S
C739 C735 1.393 . S
C739 C738 1.391 . S
H740 C748 0.950 . S
H741 C753 0.950 . S
H742 C750 0.950 . S
H743 C752 0.950 . S
H744 C754 0.950 . S
H745 C756 0.950 . S
H746 C758 0.950 . S
H747 C759 0.950 . S
C748 H740 0.950 . S
C748 C749 1.386 . S
C748 C750 1.391 . S
C749 C748 1.386 . S
C749 C753 1.393 . S
C750 H742 0.950 . S
C750 C748 1.391 . S
C750 C751 1.400 . S
C751 C750 1.400 . S
C751 C752 1.398 . S
C751 C757 1.491 . S
C752 H743 0.950 . S
C752 C751 1.398 . S
C752 C753 1.391 . S
C753 H741 0.950 . S
C753 C749 1.393 . S
C753 C752 1.391 . S
C754 H744 0.950 . S
C754 C755 1.386 . S
C754 C756 1.391 . S
C755 C754 1.386 . S
C755 C759 1.393 . S
C756 H745 0.950 . S
C756 C754 1.391 . S
C756 C757 1.400 . S
C757 C751 1.491 . S
C757 C756 1.400 . S
C757 C758 1.398 . S
C758 H746 0.950 . S
C758 C757 1.398 . S
C758 C759 1.391 . S
C759 H747 0.950 . S
C759 C755 1.393 . S
C759 C758 1.391 . S
H760 C768 0.950 . S
H761 C773 0.950 . S
H762 C770 0.950 . S
H763 C772 0.950 1_455 S
H764 C774 0.950 . S
H765 C776 0.950 . S
H766 C778 0.950 1_655 S
H767 C779 0.950 . S
C768 H760 0.950 . S
C768 C769 1.386 . S
C768 C770 1.391 . S
C769 C768 1.386 . S
C769 C773 1.393 . S
C770 H762 0.950 . S
C770 C768 1.391 . S
C770 C771 1.400 . S
C771 C770 1.400 . S
C771 C772 1.398 . S
C771 C777 1.491 1_655 S
C772 H763 0.950 1_655 S
C772 C771 1.398 . S
C772 C773 1.391 . S
C773 H761 0.950 . S
C773 C769 1.393 . S
C773 C772 1.391 . S
C774 H764 0.950 . S
C774 C775 1.386 . S
C774 C776 1.391 . S
C775 C774 1.386 . S
C775 C779 1.393 . S
C776 H765 0.950 . S
C776 C774 1.391 . S
C776 C777 1.400 . S
C777 C771 1.491 1_455 S
C777 C776 1.400 . S
C777 C778 1.398 . S
C778 H766 0.950 1_455 S
C778 C777 1.398 . S
C778 C779 1.391 . S
C779 H767 0.950 . S
C779 C775 1.393 . S
C779 C778 1.391 . S
H780 C788 0.950 . S
H781 C793 0.950 . S
H782 C790 0.950 . S
H783 C792 0.950 1_655 S
H784 C794 0.950 . S
H785 C796 0.950 . S
H786 C798 0.950 1_455 S
H787 C799 0.950 . S
C788 H780 0.950 . S
C788 C789 1.386 . S
C788 C790 1.391 . S
C789 C788 1.386 . S
C789 C793 1.393 . S
C790 H782 0.950 . S
C790 C788 1.391 . S
C790 C791 1.400 . S
C791 C790 1.400 . S
C791 C792 1.398 . S
C791 C797 1.491 1_455 S
C792 H783 0.950 1_455 S
C792 C791 1.398 . S
C792 C793 1.391 . S
C793 H781 0.950 . S
C793 C789 1.393 . S
C793 C792 1.391 . S
C794 H784 0.950 . S
C794 C795 1.386 . S
C794 C796 1.391 . S
C795 C794 1.386 . S
C795 C799 1.393 . S
C796 H785 0.950 . S
C796 C794 1.391 . S
C796 C797 1.400 . S
C797 C791 1.491 1_655 S
C797 C796 1.400 . S
C797 C798 1.398 . S
C798 H786 0.950 1_655 S
C798 C797 1.398 . S
C798 C799 1.391 . S
C799 H787 0.950 . S
C799 C795 1.393 . S
C799 C798 1.391 . S
H800 C808 0.950 . S
H801 C813 0.950 . S
H802 C810 0.950 . S
H803 C812 0.950 . S
H804 C814 0.950 . S
H805 C816 0.950 . S
H806 C818 0.950 . S
H807 C819 0.953 . S
C808 H800 0.950 . S
C808 C809 1.386 . S
C808 C810 1.391 . S
C809 C808 1.386 . S
C809 C813 1.393 . S
C810 H802 0.950 . S
C810 C808 1.391 . S
C810 C811 1.400 . S
C811 C810 1.400 . S
C811 C812 1.398 . S
C811 C817 1.491 . S
C812 H803 0.950 . S
C812 C811 1.398 . S
C812 C813 1.391 . S
C813 H801 0.950 . S
C813 C809 1.393 . S
C813 C812 1.391 . S
C814 H804 0.950 . S
C814 C815 1.386 . S
C814 C816 1.391 . S
C815 C814 1.386 . S
C815 C819 1.393 . S
C816 H805 0.950 . S
C816 C814 1.391 . S
C816 C817 1.400 . S
C817 C811 1.491 . S
C817 C816 1.400 . S
C817 C818 1.398 . S
C818 H806 0.950 . S
C818 C817 1.398 . S
C818 C819 1.391 . S
C819 H807 0.953 . S
C819 C815 1.393 . S
C819 C818 1.391 . S
H820 C828 0.950 . S
H821 C833 0.950 . S
H822 C830 0.950 . S
H823 C832 0.950 . S
H824 C834 0.950 . S
H825 C836 0.950 . S
H826 C838 0.950 . S
H827 C839 0.950 . S
C828 H820 0.950 . S
C828 C829 1.386 . S
C828 C830 1.391 . S
C829 C828 1.386 . S
C829 C833 1.393 . S
C830 H822 0.950 . S
C830 C828 1.391 . S
C830 C831 1.400 . S
C831 C830 1.400 . S
C831 C832 1.398 . S
C831 C837 1.491 . S
C832 H823 0.950 . S
C832 C831 1.398 . S
C832 C833 1.391 . S
C833 H821 0.950 . S
C833 C829 1.393 . S
C833 C832 1.391 . S
C834 H824 0.950 . S
C834 C835 1.386 . S
C834 C836 1.391 . S
C835 C834 1.386 . S
C835 C839 1.393 . S
C836 H825 0.950 . S
C836 C834 1.391 . S
C836 C837 1.400 . S
C837 C831 1.491 . S
C837 C836 1.400 . S
C837 C838 1.398 . S
C838 H826 0.950 . S
C838 C837 1.398 . S
C838 C839 1.391 . S
C839 H827 0.950 . S
C839 C835 1.393 . S
C839 C838 1.391 . S
H840 C848 0.950 . S
H841 C853 0.950 . S
H842 C850 0.950 . S
H843 C852 0.950 . S
H844 C854 0.950 . S
H845 C856 0.950 . S
H846 C858 0.950 . S
H847 C859 0.950 . S
C848 H840 0.950 . S
C848 C849 1.386 . S
C848 C850 1.391 . S
C849 C848 1.386 . S
C849 C853 1.393 . S
C850 H842 0.950 . S
C850 C848 1.391 . S
C850 C851 1.400 . S
C851 C850 1.400 . S
C851 C852 1.398 . S
C851 C857 1.491 . S
C852 H843 0.950 . S
C852 C851 1.398 . S
C852 C853 1.391 . S
C853 H841 0.950 . S
C853 C849 1.393 . S
C853 C852 1.391 . S
C854 H844 0.950 . S
C854 C855 1.386 . S
C854 C856 1.391 . S
C855 C854 1.386 . S
C855 C859 1.393 . S
C856 H845 0.950 . S
C856 C854 1.391 . S
C856 C857 1.400 . S
C857 C851 1.491 . S
C857 C856 1.400 . S
C857 C858 1.398 . S
C858 H846 0.950 . S
C858 C857 1.398 . S
C858 C859 1.391 . S
C859 H847 0.950 . S
C859 C855 1.393 . S
C859 C858 1.391 . S
H860 C868 0.950 . S
H861 C873 0.950 . S
H862 C870 0.950 . S
H863 C872 0.950 . S
H864 C874 0.950 . S
H865 C876 0.950 . S
H866 C878 0.950 . S
H867 C879 0.950 . S
C868 H860 0.950 . S
C868 C869 1.386 . S
C868 C870 1.391 . S
C869 C868 1.386 . S
C869 C873 1.393 . S
C870 H862 0.950 . S
C870 C868 1.391 . S
C870 C871 1.400 . S
C871 C870 1.400 . S
C871 C872 1.398 . S
C871 C877 1.491 . S
C872 H863 0.950 . S
C872 C871 1.398 . S
C872 C873 1.391 . S
C873 H861 0.950 . S
C873 C869 1.393 . S
C873 C872 1.391 . S
C874 H864 0.950 . S
C874 C875 1.386 . S
C874 C876 1.391 . S
C875 C874 1.386 . S
C875 C879 1.393 . S
C876 H865 0.950 . S
C876 C874 1.391 . S
C876 C877 1.400 . S
C877 C871 1.491 . S
C877 C876 1.400 . S
C877 C878 1.398 . S
C878 H866 0.950 . S
C878 C877 1.398 . S
C878 C879 1.391 . S
C879 H867 0.950 . S
C879 C875 1.393 . S
C879 C878 1.391 . S
H880 C888 0.950 . S
H881 C893 0.950 . S
H882 C890 0.950 . S
H883 C892 0.950 . S
H884 C894 0.950 . S
H885 C896 0.950 . S
H886 C898 0.950 . S
H887 C899 0.950 . S
C888 H880 0.950 . S
C888 C889 1.386 . S
C888 C890 1.391 . S
C889 C888 1.386 . S
C889 C893 1.393 . S
C890 H882 0.950 . S
C890 C888 1.391 . S
C890 C891 1.400 . S
C891 C890 1.400 . S
C891 C892 1.398 . S
C891 C897 1.491 . S
C892 H883 0.950 . S
C892 C891 1.398 . S
C892 C893 1.391 . S
C893 H881 0.950 . S
C893 C889 1.393 . S
C893 C892 1.391 . S
C894 H884 0.950 . S
C894 C895 1.386 . S
C894 C896 1.391 . S
C895 C894 1.386 . S
C895 C899 1.393 . S
C896 H885 0.950 . S
C896 C894 1.391 . S
C896 C897 1.400 . S
C897 C891 1.491 . S
C897 C896 1.400 . S
C897 C898 1.398 . S
C898 H886 0.950 . S
C898 C897 1.398 . S
C898 C899 1.391 . S
C899 H887 0.950 . S
C899 C895 1.393 . S
C899 C898 1.391 . S
H900 C908 0.950 . S
H901 C913 0.950 . S
H902 C910 0.950 . S
H903 C912 0.950 . S
H904 C914 0.950 . S
H905 C916 0.950 . S
H906 C918 0.950 . S
H907 C919 0.950 . S
C908 H900 0.950 . S
C908 C909 1.386 . S
C908 C910 1.391 . S
C909 C908 1.386 . S
C909 C913 1.393 . S
C910 H902 0.950 . S
C910 C908 1.391 . S
C910 C911 1.400 . S
C911 C910 1.400 . S
C911 C912 1.398 . S
C911 C917 1.491 . S
C912 H903 0.950 . S
C912 C911 1.398 . S
C912 C913 1.391 . S
C913 H901 0.950 . S
C913 C909 1.393 . S
C913 C912 1.391 . S
C914 H904 0.950 . S
C914 C915 1.386 . S
C914 C916 1.391 . S
C915 C914 1.386 . S
C915 C919 1.393 . S
C916 H905 0.950 . S
C916 C914 1.391 . S
C916 C917 1.400 . S
C917 C911 1.491 . S
C917 C916 1.400 . S
C917 C918 1.398 . S
C918 H906 0.950 . S
C918 C917 1.398 . S
C918 C919 1.391 . S
C919 H907 0.950 . S
C919 C915 1.393 . S
C919 C918 1.391 . S
H920 C928 0.950 . S
H921 C933 0.950 . S
H922 C930 0.950 . S
H923 C932 0.950 . S
H924 C934 0.950 . S
H925 C936 0.950 . S
H926 C938 0.950 . S
H927 C939 0.950 . S
C928 H920 0.950 . S
C928 C929 1.386 . S
C928 C930 1.391 . S
C929 C928 1.386 . S
C929 C933 1.393 . S
C930 H922 0.950 . S
C930 C928 1.391 . S
C930 C931 1.400 . S
C931 C930 1.400 . S
C931 C932 1.398 . S
C931 C937 1.491 . S
C932 H923 0.950 . S
C932 C931 1.398 . S
C932 C933 1.391 . S
C933 H921 0.950 . S
C933 C929 1.393 . S
C933 C932 1.391 . S
C934 H924 0.950 . S
C934 C935 1.386 . S
C934 C936 1.391 . S
C935 C934 1.386 . S
C935 C939 1.393 . S
C936 H925 0.950 . S
C936 C934 1.391 . S
C936 C937 1.400 . S
C937 C931 1.491 . S
C937 C936 1.400 . S
C937 C938 1.398 . S
C938 H926 0.950 . S
C938 C937 1.398 . S
C938 C939 1.391 . S
C939 H927 0.950 . S
C939 C935 1.393 . S
C939 C938 1.391 . S
H940 C948 0.950 . S
H941 C953 0.950 . S
H942 C950 0.950 . S
H943 C952 0.950 . S
H944 C954 0.950 . S
H945 C956 0.950 . S
H946 C958 0.950 . S
H947 C959 0.950 . S
C948 H940 0.950 . S
C948 C949 1.386 . S
C948 C950 1.391 . S
C949 C948 1.386 . S
C949 C953 1.393 . S
C950 H942 0.950 . S
C950 C948 1.391 . S
C950 C951 1.400 . S
C951 C950 1.400 . S
C951 C952 1.398 . S
C951 C957 1.491 . S
C952 H943 0.950 . S
C952 C951 1.398 . S
C952 C953 1.391 . S
C953 H941 0.950 . S
C953 C949 1.393 . S
C953 C952 1.391 . S
C954 H944 0.950 . S
C954 C955 1.386 . S
C954 C956 1.391 . S
C955 C954 1.386 . S
C955 C959 1.393 . S
C956 H945 0.950 . S
C956 C954 1.391 . S
C956 C957 1.400 . S
C957 C951 1.491 . S
C957 C956 1.400 . S
C957 C958 1.398 . S
C958 H946 0.950 . S
C958 C957 1.398 . S
C958 C959 1.391 . S
C959 H947 0.950 . S
C959 C955 1.393 . S
C959 C958 1.391 . S
H960 C968 0.950 . S
H961 C973 0.950 . S
H962 C970 0.950 . S
H963 C972 0.950 . S
H964 C974 0.950 . S
H965 C976 0.950 . S
H966 C978 0.950 . S
H967 C979 0.950 . S
C968 H960 0.950 . S
C968 C969 1.386 . S
C968 C970 1.391 . S
C969 C968 1.386 . S
C969 C973 1.393 . S
C970 H962 0.950 . S
C970 C968 1.391 . S
C970 C971 1.400 . S
C971 C970 1.400 . S
C971 C972 1.398 . S
C971 C977 1.491 . S
C972 H963 0.950 . S
C972 C971 1.398 . S
C972 C973 1.391 . S
C973 H961 0.950 . S
C973 C969 1.393 . S
C973 C972 1.391 . S
C974 H964 0.950 . S
C974 C975 1.386 . S
C974 C976 1.391 . S
C975 C974 1.386 . S
C975 C979 1.393 . S
C976 H965 0.950 . S
C976 C974 1.391 . S
C976 C977 1.400 . S
C977 C971 1.491 . S
C977 C976 1.400 . S
C977 C978 1.398 . S
C978 H966 0.950 . S
C978 C977 1.398 . S
C978 C979 1.391 . S
C979 H967 0.950 . S
C979 C975 1.393 . S
C979 C978 1.391 . S
H980 C988 0.950 . S
H981 C993 0.950 . S
H982 C990 0.953 . S
H983 C992 0.950 1_565 S
H984 C994 0.950 . S
H985 C996 0.950 . S
H986 C998 0.950 . S
H987 C999 0.950 . S
C988 H980 0.950 . S
C988 C989 1.386 . S
C988 C990 1.385 1_545 S
C989 C988 1.386 . S
C989 C993 1.393 . S
C990 H982 0.953 . S
C990 C988 1.385 1_565 S
C990 C991 1.403 . S
C991 C990 1.403 . S
C991 C992 1.398 1_565 S
C991 C997 1.491 . S
C992 H983 0.950 1_545 S
C992 C991 1.398 1_545 S
C992 C993 1.391 . S
C993 H981 0.950 . S
C993 C989 1.393 . S
C993 C992 1.391 . S
C994 H984 0.950 . S
C994 C995 1.386 . S
C994 C996 1.391 . S
C995 C994 1.386 . S
C995 C999 1.393 . S
C996 H985 0.950 . S
C996 C994 1.391 . S
C996 C997 1.400 . S
C997 C991 1.491 . S
C997 C996 1.400 . S
C997 C998 1.398 . S
C998 H986 0.950 . S
C998 C997 1.398 . S
C998 C999 1.391 . S
C999 H987 0.950 . S
C999 C995 1.393 . S
C999 C998 1.391 . S
H1000 C1008 0.950 1_554 S
H1001 C1013 0.950 . S
H1002 C1010 0.950 . S
H1003 C1012 0.950 . S
H1004 C1014 0.950 . S
H1005 C1016 0.950 . S
H1006 C1018 0.950 . S
H1007 C1019 0.950 . S
C1008 H1000 0.950 1_556 S
C1008 C1009 1.386 . S
C1008 C1010 1.391 . S
C1009 C1008 1.386 . S
C1009 C1013 1.393 . S
C1010 H1002 0.950 . S
C1010 C1008 1.391 . S
C1010 C1011 1.400 . S
C1011 C1010 1.400 . S
C1011 C1012 1.398 . S
C1011 C1017 1.491 . S
C1012 H1003 0.950 . S
C1012 C1011 1.398 . S
C1012 C1013 1.391 . S
C1013 H1001 0.950 . S
C1013 C1009 1.393 . S
C1013 C1012 1.391 . S
C1014 H1004 0.950 . S
C1014 C1015 1.386 . S
C1014 C1016 1.391 . S
C1015 C1014 1.386 . S
C1015 C1019 1.393 . S
C1016 H1005 0.950 . S
C1016 C1014 1.391 . S
C1016 C1017 1.400 . S
C1017 C1011 1.491 . S
C1017 C1016 1.400 . S
C1017 C1018 1.398 . S
C1018 H1006 0.950 . S
C1018 C1017 1.398 . S
C1018 C1019 1.391 . S
C1019 H1007 0.950 . S
C1019 C1015 1.393 . S
C1019 C1018 1.391 . S
H1020 C1028 0.950 . S
H1021 C1033 0.950 . S
H1022 C1030 0.950 . S
H1023 C1032 0.950 . S
H1024 C1034 0.950 . S
H1025 C1036 0.950 . S
H1026 C1038 0.950 . S
H1027 C1039 0.950 . S
C1028 H1020 0.950 . S
C1028 C1029 1.386 . S
C1028 C1030 1.391 1_565 S
C1029 C1028 1.386 . S
C1029 C1033 1.393 . S
C1030 H1022 0.950 . S
C1030 C1028 1.391 1_545 S
C1030 C1031 1.400 . S
C1031 C1030 1.400 . S
C1031 C1032 1.398 1_545 S
C1031 C1037 1.491 . S
C1032 H1023 0.950 . S
C1032 C1031 1.398 1_565 S
C1032 C1033 1.391 . S
C1033 H1021 0.950 . S
C1033 C1029 1.393 . S
C1033 C1032 1.391 . S
C1034 H1024 0.950 . S
C1034 C1035 1.386 . S
C1034 C1036 1.391 . S
C1035 C1034 1.386 . S
C1035 C1039 1.393 . S
C1036 H1025 0.950 . S
C1036 C1034 1.391 . S
C1036 C1037 1.400 . S
C1037 C1031 1.491 . S
C1037 C1036 1.400 . S
C1037 C1038 1.398 . S
C1038 H1026 0.950 . S
C1038 C1037 1.398 . S
C1038 C1039 1.391 . S
C1039 H1027 0.950 . S
C1039 C1035 1.393 . S
C1039 C1038 1.391 . S
H1040 C1048 0.950 . S
H1041 C1053 0.950 . S
H1042 C1050 0.950 . S
H1043 C1052 0.950 . S
H1044 C1054 0.950 . S
H1045 C1056 0.950 . S
H1046 C1058 0.950 . S
H1047 C1059 0.950 . S
C1048 H1040 0.950 . S
C1048 C1049 1.386 . S
C1048 C1050 1.391 . S
C1049 C1048 1.386 . S
C1049 C1053 1.393 . S
C1050 H1042 0.950 . S
C1050 C1048 1.391 . S
C1050 C1051 1.400 . S
C1051 C1050 1.400 . S
C1051 C1052 1.398 . S
C1051 C1057 1.491 . S
C1052 H1043 0.950 . S
C1052 C1051 1.398 . S
C1052 C1053 1.391 . S
C1053 H1041 0.950 . S
C1053 C1049 1.393 . S
C1053 C1052 1.391 . S
C1054 H1044 0.950 . S
C1054 C1055 1.386 . S
C1054 C1056 1.391 . S
C1055 C1054 1.386 . S
C1055 C1059 1.393 . S
C1056 H1045 0.950 . S
C1056 C1054 1.391 . S
C1056 C1057 1.400 . S
C1057 C1051 1.491 . S
C1057 C1056 1.400 . S
C1057 C1058 1.398 . S
C1058 H1046 0.950 . S
C1058 C1057 1.398 . S
C1058 C1059 1.391 . S
C1059 H1047 0.950 . S
C1059 C1055 1.393 . S
C1059 C1058 1.391 . S
H1060 C1068 0.950 . S
H1061 C1073 0.950 . S
H1062 C1070 0.950 . S
H1063 C1072 0.950 . S
H1064 C1074 0.950 . S
H1065 C1076 0.950 . S
H1066 C1078 0.950 . S
H1067 C1079 0.950 . S
C1068 H1060 0.950 . S
C1068 C1069 1.386 . S
C1068 C1070 1.391 . S
C1069 C1068 1.386 . S
C1069 C1073 1.393 . S
C1070 H1062 0.950 . S
C1070 C1068 1.391 . S
C1070 C1071 1.400 . S
C1071 C1070 1.400 . S
C1071 C1072 1.398 . S
C1071 C1077 1.491 . S
C1072 H1063 0.950 . S
C1072 C1071 1.398 . S
C1072 C1073 1.391 . S
C1073 H1061 0.950 . S
C1073 C1069 1.393 . S
C1073 C1072 1.391 . S
C1074 H1064 0.950 . S
C1074 C1075 1.386 . S
C1074 C1076 1.391 . S
C1075 C1074 1.386 . S
C1075 C1079 1.393 . S
C1076 H1065 0.950 . S
C1076 C1074 1.391 . S
C1076 C1077 1.400 1_565 S
C1077 C1071 1.491 . S
C1077 C1076 1.400 1_545 S
C1077 C1078 1.398 . S
C1078 H1066 0.950 . S
C1078 C1077 1.398 . S
C1078 C1079 1.391 1_545 S
C1079 H1067 0.950 . S
C1079 C1075 1.393 . S
C1079 C1078 1.391 1_565 S
H1080 C1088 0.950 . S
H1081 C1093 0.950 . S
H1082 C1090 0.950 . S
H1083 C1092 0.950 . S
H1084 C1094 0.950 1_556 S
H1085 C1096 0.950 . S
H1086 C1098 0.950 . S
H1087 C1099 0.950 . S
C1088 H1080 0.950 . S
C1088 C1089 1.386 . S
C1088 C1090 1.391 . S
C1089 C1088 1.386 . S
C1089 C1093 1.393 . S
C1090 H1082 0.950 . S
C1090 C1088 1.391 . S
C1090 C1091 1.400 . S
C1091 C1090 1.400 . S
C1091 C1092 1.398 . S
C1091 C1097 1.491 . S
C1092 H1083 0.950 . S
C1092 C1091 1.398 . S
C1092 C1093 1.391 . S
C1093 H1081 0.950 . S
C1093 C1089 1.393 . S
C1093 C1092 1.391 . S
C1094 H1084 0.950 1_554 S
C1094 C1095 1.386 . S
C1094 C1096 1.391 . S
C1095 C1094 1.386 . S
C1095 C1099 1.393 . S
C1096 H1085 0.950 . S
C1096 C1094 1.391 . S
C1096 C1097 1.400 . S
C1097 C1091 1.491 . S
C1097 C1096 1.400 . S
C1097 C1098 1.398 . S
C1098 H1086 0.950 . S
C1098 C1097 1.398 . S
C1098 C1099 1.391 . S
C1099 H1087 0.950 . S
C1099 C1095 1.393 . S
C1099 C1098 1.391 . S
H1100 C1108 0.950 . S
H1101 C1113 0.950 . S
H1102 C1110 0.950 . S
H1103 C1112 0.950 . S
H1104 C1114 0.950 . S
H1105 C1116 0.950 . S
H1106 C1118 0.950 . S
H1107 C1119 0.950 . S
C1108 H1100 0.950 . S
C1108 C1109 1.386 . S
C1108 C1110 1.391 1_545 S
C1109 C1108 1.386 . S
C1109 C1113 1.393 . S
C1110 H1102 0.950 . S
C1110 C1108 1.391 1_565 S
C1110 C1111 1.400 . S
C1111 C1110 1.400 . S
C1111 C1112 1.398 1_565 S
C1111 C1117 1.491 . S
C1112 H1103 0.950 . S
C1112 C1111 1.398 1_545 S
C1112 C1113 1.391 . S
C1113 H1101 0.950 . S
C1113 C1109 1.393 . S
C1113 C1112 1.391 . S
C1114 H1104 0.950 . S
C1114 C1115 1.386 . S
C1114 C1116 1.391 . S
C1115 C1114 1.386 . S
C1115 C1119 1.393 . S
C1116 H1105 0.950 . S
C1116 C1114 1.391 . S
C1116 C1117 1.400 . S
C1117 C1111 1.491 . S
C1117 C1116 1.400 . S
C1117 C1118 1.398 . S
C1118 H1106 0.950 . S
C1118 C1117 1.398 . S
C1118 C1119 1.391 . S
C1119 H1107 0.950 . S
C1119 C1115 1.393 . S
C1119 C1118 1.391 . S
H1120 C1128 0.950 . S
H1121 C1133 0.950 . S
H1122 C1130 0.950 . S
H1123 C1132 0.950 . S
H1124 C1134 0.950 . S
H1125 C1136 0.950 . S
H1126 C1138 0.950 . S
H1127 C1139 0.950 . S
C1128 H1120 0.950 . S
C1128 C1129 1.386 . S
C1128 C1130 1.391 . S
C1129 C1128 1.386 . S
C1129 C1133 1.393 . S
C1130 H1122 0.950 . S
C1130 C1128 1.391 . S
C1130 C1131 1.400 . S
C1131 C1130 1.400 . S
C1131 C1132 1.398 . S
C1131 C1137 1.491 . S
C1132 H1123 0.950 . S
C1132 C1131 1.398 . S
C1132 C1133 1.391 . S
C1133 H1121 0.950 . S
C1133 C1129 1.393 . S
C1133 C1132 1.391 . S
C1134 H1124 0.950 . S
C1134 C1135 1.386 . S
C1134 C1136 1.391 . S
C1135 C1134 1.386 . S
C1135 C1139 1.393 . S
C1136 H1125 0.950 . S
C1136 C1134 1.391 . S
C1136 C1137 1.400 . S
C1137 C1131 1.491 . S
C1137 C1136 1.400 . S
C1137 C1138 1.398 . S
C1138 H1126 0.950 . S
C1138 C1137 1.398 . S
C1138 C1139 1.391 . S
C1139 H1127 0.950 . S
C1139 C1135 1.393 . S
C1139 C1138 1.391 . S
H1140 C1148 0.950 . S
H1141 C1153 0.950 . S
H1142 C1150 0.950 . S
H1143 C1152 0.950 . S
H1144 C1154 0.950 . S
H1145 C1156 0.950 . S
H1146 C1158 0.950 . S
H1147 C1159 0.950 1_556 S
C1148 H1140 0.950 . S
C1148 C1149 1.386 . S
C1148 C1150 1.391 . S
C1149 C1148 1.386 . S
C1149 C1153 1.393 . S
C1150 H1142 0.950 . S
C1150 C1148 1.391 . S
C1150 C1151 1.400 . S
C1151 C1150 1.400 . S
C1151 C1152 1.398 . S
C1151 C1157 1.491 . S
C1152 H1143 0.950 . S
C1152 C1151 1.398 . S
C1152 C1153 1.391 . S
C1153 H1141 0.950 . S
C1153 C1149 1.393 . S
C1153 C1152 1.391 . S
C1154 H1144 0.950 . S
C1154 C1155 1.386 . S
C1154 C1156 1.391 . S
C1155 C1154 1.386 . S
C1155 C1159 1.393 . S
C1156 H1145 0.950 . S
C1156 C1154 1.391 . S
C1156 C1157 1.400 . S
C1157 C1151 1.491 . S
C1157 C1156 1.400 . S
C1157 C1158 1.398 . S
C1158 H1146 0.950 . S
C1158 C1157 1.398 . S
C1158 C1159 1.391 . S
C1159 H1147 0.950 1_554 S
C1159 C1155 1.393 . S
C1159 C1158 1.391 . S
H1160 C1168 0.950 . S
H1161 C1173 0.950 . S
H1162 C1170 0.950 . S
H1163 C1172 0.950 . S
H1164 C1174 0.940 1_455 S
H1165 C1176 0.950 . S
H1166 C1178 0.950 . S
H1167 C1179 0.950 1_455 S
C1168 H1160 0.950 . S
C1168 C1169 1.386 . S
C1168 C1170 1.391 . S
C1169 C1168 1.386 . S
C1169 C1173 1.393 . S
C1170 H1162 0.950 . S
C1170 C1168 1.391 . S
C1170 C1171 1.400 . S
C1171 C1170 1.400 . S
C1171 C1172 1.398 . S
C1171 C1177 1.491 . S
C1172 H1163 0.950 . S
C1172 C1171 1.398 . S
C1172 C1173 1.391 . S
C1173 H1161 0.950 . S
C1173 C1169 1.393 . S
C1173 C1172 1.391 . S
C1174 H1164 0.940 1_655 S
C1174 C1175 1.378 1_655 S
C1174 C1176 1.410 . S
C1175 C1174 1.378 1_455 S
C1175 C1179 1.393 1_455 S
C1176 H1165 0.950 . S
C1176 C1174 1.410 . S
C1176 C1177 1.400 . S
C1177 C1171 1.491 . S
C1177 C1176 1.400 . S
C1177 C1178 1.398 . S
C1178 H1166 0.950 . S
C1178 C1177 1.398 . S
C1178 C1179 1.391 . S
C1179 H1167 0.950 1_655 S
C1179 C1175 1.393 1_655 S
C1179 C1178 1.391 . S
H1180 C1188 0.950 . S
H1181 C1193 0.950 . S
H1182 C1190 0.950 . S
H1183 C1192 0.950 . S
H1184 C1194 0.950 . S
H1185 C1196 0.950 . S
H1186 C1198 0.950 . S
H1187 C1199 0.950 . S
C1188 H1180 0.950 . S
C1188 C1189 1.386 . S
C1188 C1190 1.391 . S
C1189 C1188 1.386 . S
C1189 C1193 1.393 . S
C1190 H1182 0.950 . S
C1190 C1188 1.391 . S
C1190 C1191 1.400 . S
C1191 C1190 1.400 . S
C1191 C1192 1.398 . S
C1191 C1197 1.491 . S
C1192 H1183 0.950 . S
C1192 C1191 1.398 . S
C1192 C1193 1.391 . S
C1193 H1181 0.950 . S
C1193 C1189 1.393 . S
C1193 C1192 1.391 . S
C1194 H1184 0.950 . S
C1194 C1195 1.386 . S
C1194 C1196 1.391 . S
C1195 C1194 1.386 . S
C1195 C1199 1.393 . S
C1196 H1185 0.950 . S
C1196 C1194 1.391 . S
C1196 C1197 1.400 . S
C1197 C1191 1.491 . S
C1197 C1196 1.400 . S
C1197 C1198 1.398 . S
C1198 H1186 0.950 . S
C1198 C1197 1.398 . S
C1198 C1199 1.391 . S
C1199 H1187 0.950 . S
C1199 C1195 1.393 . S
C1199 C1198 1.391 . S
H1200 C1208 0.950 . S
H1201 C1213 0.950 . S
H1202 C1210 0.950 . S
H1203 C1212 0.950 . S
H1204 C1214 0.950 . S
H1205 C1216 0.950 . S
H1206 C1218 0.950 . S
H1207 C1219 0.950 . S
C1208 H1200 0.950 . S
C1208 C1209 1.386 . S
C1208 C1210 1.391 . S
C1209 C1208 1.386 . S
C1209 C1213 1.393 . S
C1210 H1202 0.950 . S
C1210 C1208 1.391 . S
C1210 C1211 1.400 . S
C1211 C1210 1.400 . S
C1211 C1212 1.398 . S
C1211 C1217 1.491 . S
C1212 H1203 0.950 . S
C1212 C1211 1.398 . S
C1212 C1213 1.391 . S
C1213 H1201 0.950 . S
C1213 C1209 1.393 . S
C1213 C1212 1.391 . S
C1214 H1204 0.950 . S
C1214 C1215 1.386 . S
C1214 C1216 1.391 . S
C1215 C1214 1.386 . S
C1215 C1219 1.393 . S
C1216 H1205 0.950 . S
C1216 C1214 1.391 . S
C1216 C1217 1.400 . S
C1217 C1211 1.491 . S
C1217 C1216 1.400 . S
C1217 C1218 1.398 . S
C1218 H1206 0.950 . S
C1218 C1217 1.398 . S
C1218 C1219 1.391 . S
C1219 H1207 0.950 . S
C1219 C1215 1.393 . S
C1219 C1218 1.391 . S
H1220 C1228 0.950 . S
H1221 C1233 0.950 . S
H1222 C1230 0.950 . S
H1223 C1232 0.950 . S
H1224 C1234 0.950 . S
H1225 C1236 0.950 . S
H1226 C1238 0.950 . S
H1227 C1239 0.950 1_554 S
C1228 H1220 0.950 . S
C1228 C1229 1.386 . S
C1228 C1230 1.391 . S
C1229 C1228 1.386 . S
C1229 C1233 1.393 . S
C1230 H1222 0.950 . S
C1230 C1228 1.391 . S
C1230 C1231 1.400 . S
C1231 C1230 1.400 . S
C1231 C1232 1.398 . S
C1231 C1237 1.491 . S
C1232 H1223 0.950 . S
C1232 C1231 1.398 . S
C1232 C1233 1.391 . S
C1233 H1221 0.950 . S
C1233 C1229 1.393 . S
C1233 C1232 1.391 . S
C1234 H1224 0.950 . S
C1234 C1235 1.386 . S
C1234 C1236 1.391 . S
C1235 C1234 1.386 . S
C1235 C1239 1.393 . S
C1236 H1225 0.950 . S
C1236 C1234 1.391 . S
C1236 C1237 1.400 . S
C1237 C1231 1.491 . S
C1237 C1236 1.400 . S
C1237 C1238 1.398 . S
C1238 H1226 0.950 . S
C1238 C1237 1.398 . S
C1238 C1239 1.391 . S
C1239 H1227 0.950 1_556 S
C1239 C1235 1.393 . S
C1239 C1238 1.391 . S
H1240 C1248 0.950 . S
H1241 C1253 0.950 . S
H1242 C1250 0.950 . S
H1243 C1252 0.950 . S
H1244 C1254 0.950 . S
H1245 C1256 0.950 . S
H1246 C1258 0.950 . S
H1247 C1259 0.950 . S
C1248 H1240 0.950 . S
C1248 C1249 1.386 . S
C1248 C1250 1.391 . S
C1249 C1248 1.386 . S
C1249 C1253 1.393 . S
C1250 H1242 0.950 . S
C1250 C1248 1.391 . S
C1250 C1251 1.400 . S
C1251 C1250 1.400 . S
C1251 C1252 1.398 . S
C1251 C1257 1.491 . S
C1252 H1243 0.950 . S
C1252 C1251 1.398 . S
C1252 C1253 1.391 . S
C1253 H1241 0.950 . S
C1253 C1249 1.393 . S
C1253 C1252 1.391 . S
C1254 H1244 0.950 . S
C1254 C1255 1.386 1_455 S
C1254 C1256 1.391 . S
C1255 C1254 1.386 1_655 S
C1255 C1259 1.393 . S
C1256 H1245 0.950 . S
C1256 C1254 1.391 . S
C1256 C1257 1.400 . S
C1257 C1251 1.491 . S
C1257 C1256 1.400 . S
C1257 C1258 1.398 . S
C1258 H1246 0.950 . S
C1258 C1257 1.398 . S
C1258 C1259 1.391 1_455 S
C1259 H1247 0.950 . S
C1259 C1255 1.393 . S
C1259 C1258 1.391 1_655 S
H1260 C1268 0.950 . S
H1261 C1273 0.950 . S
H1262 C1270 0.950 . S
H1263 C1272 0.950 . S
H1264 C1274 0.950 . S
H1265 C1276 0.950 . S
H1266 C1278 0.950 . S
H1267 C1279 0.950 . S
C1268 H1260 0.950 . S
C1268 C1269 1.386 . S
C1268 C1270 1.391 . S
C1269 C1268 1.386 . S
C1269 C1273 1.393 . S
C1270 H1262 0.950 . S
C1270 C1268 1.391 . S
C1270 C1271 1.400 . S
C1271 C1270 1.400 . S
C1271 C1272 1.398 . S
C1271 C1277 1.491 . S
C1272 H1263 0.950 . S
C1272 C1271 1.398 . S
C1272 C1273 1.391 . S
C1273 H1261 0.950 . S
C1273 C1269 1.393 . S
C1273 C1272 1.391 . S
C1274 H1264 0.950 . S
C1274 C1275 1.386 . S
C1274 C1276 1.391 . S
C1275 C1274 1.386 . S
C1275 C1279 1.393 . S
C1276 H1265 0.950 . S
C1276 C1274 1.391 . S
C1276 C1277 1.400 . S
C1277 C1271 1.491 . S
C1277 C1276 1.400 . S
C1277 C1278 1.398 . S
C1278 H1266 0.950 . S
C1278 C1277 1.398 . S
C1278 C1279 1.391 . S
C1279 H1267 0.950 . S
C1279 C1275 1.393 . S
C1279 C1278 1.391 . S
H1280 C1288 0.950 . S
H1281 C1293 0.950 . S
H1282 C1290 0.950 . S
H1283 C1292 0.950 . S
H1284 C1294 0.950 . S
H1285 C1296 0.950 . S
H1286 C1298 0.950 . S
H1287 C1299 0.950 . S
C1288 H1280 0.950 . S
C1288 C1289 1.386 . S
C1288 C1290 1.391 1_655 S
C1289 C1288 1.386 . S
C1289 C1293 1.393 1_655 S
C1290 H1282 0.950 . S
C1290 C1288 1.391 1_455 S
C1290 C1291 1.400 . S
C1291 C1290 1.400 . S
C1291 C1292 1.398 . S
C1291 C1297 1.491 . S
C1292 H1283 0.950 . S
C1292 C1291 1.398 . S
C1292 C1293 1.391 . S
C1293 H1281 0.950 . S
C1293 C1289 1.393 1_455 S
C1293 C1292 1.391 . S
C1294 H1284 0.950 . S
C1294 C1295 1.386 . S
C1294 C1296 1.391 . S
C1295 C1294 1.386 . S
C1295 C1299 1.393 . S
C1296 H1285 0.950 . S
C1296 C1294 1.391 . S
C1296 C1297 1.400 . S
C1297 C1291 1.491 . S
C1297 C1296 1.400 . S
C1297 C1298 1.398 . S
C1298 H1286 0.950 . S
C1298 C1297 1.398 . S
C1298 C1299 1.391 . S
C1299 H1287 0.950 . S
C1299 C1295 1.393 . S
C1299 C1298 1.391 . S
H1300 C1308 0.950 . S
H1301 C1313 0.950 . S
H1302 C1310 0.950 . S
H1303 C1312 0.950 . S
H1304 C1314 0.950 . S
H1305 C1316 0.950 . S
H1306 C1318 0.950 . S
H1307 C1319 0.950 . S
C1308 H1300 0.950 . S
C1308 C1309 1.386 . S
C1308 C1310 1.391 . S
C1309 C1308 1.386 . S
C1309 C1313 1.393 . S
C1310 H1302 0.950 . S
C1310 C1308 1.391 . S
C1310 C1311 1.400 . S
C1311 C1310 1.400 . S
C1311 C1312 1.398 . S
C1311 C1317 1.491 . S
C1312 H1303 0.950 . S
C1312 C1311 1.398 . S
C1312 C1313 1.391 . S
C1313 H1301 0.950 . S
C1313 C1309 1.393 . S
C1313 C1312 1.391 . S
C1314 H1304 0.950 . S
C1314 C1315 1.386 . S
C1314 C1316 1.391 . S
C1315 C1314 1.386 . S
C1315 C1319 1.393 . S
C1316 H1305 0.950 . S
C1316 C1314 1.391 . S
C1316 C1317 1.400 . S
C1317 C1311 1.491 . S
C1317 C1316 1.400 . S
C1317 C1318 1.398 . S
C1318 H1306 0.950 . S
C1318 C1317 1.398 . S
C1318 C1319 1.391 . S
C1319 H1307 0.950 . S
C1319 C1315 1.393 . S
C1319 C1318 1.391 . S
H1320 C1328 0.950 . S
H1321 C1333 0.950 . S
H1322 C1330 0.950 . S
H1323 C1332 0.950 . S
H1324 C1334 0.950 . S
H1325 C1336 0.950 . S
H1326 C1338 0.950 . S
H1327 C1339 0.950 . S
C1328 H1320 0.950 . S
C1328 C1329 1.386 . S
C1328 C1330 1.391 . S
C1329 C1328 1.386 . S
C1329 C1333 1.393 . S
C1330 H1322 0.950 . S
C1330 C1328 1.391 . S
C1330 C1331 1.400 . S
C1331 C1330 1.400 . S
C1331 C1332 1.398 . S
C1331 C1337 1.491 . S
C1332 H1323 0.950 . S
C1332 C1331 1.398 . S
C1332 C1333 1.391 . S
C1333 H1321 0.950 . S
C1333 C1329 1.393 . S
C1333 C1332 1.391 . S
C1334 H1324 0.950 . S
C1334 C1335 1.386 . S
C1334 C1336 1.391 . S
C1335 C1334 1.386 . S
C1335 C1339 1.393 . S
C1336 H1325 0.950 . S
C1336 C1334 1.391 . S
C1336 C1337 1.400 . S
C1337 C1331 1.491 . S
C1337 C1336 1.400 . S
C1337 C1338 1.398 . S
C1338 H1326 0.950 . S
C1338 C1337 1.398 . S
C1338 C1339 1.391 . S
C1339 H1327 0.950 . S
C1339 C1335 1.393 . S
C1339 C1338 1.391 . S
H1340 C1348 0.950 . S
H1341 C1353 0.950 . S
H1342 C1350 0.950 . S
H1343 C1352 0.950 . S
H1344 C1354 0.950 . S
H1345 C1356 0.950 . S
H1346 C1358 0.950 . S
H1347 C1359 0.950 . S
C1348 H1340 0.950 . S
C1348 C1349 1.386 . S
C1348 C1350 1.391 . S
C1349 C1348 1.386 . S
C1349 C1353 1.393 . S
C1350 H1342 0.950 . S
C1350 C1348 1.391 . S
C1350 C1351 1.400 . S
C1351 C1350 1.400 . S
C1351 C1352 1.398 . S
C1351 C1357 1.491 . S
C1352 H1343 0.950 . S
C1352 C1351 1.398 . S
C1352 C1353 1.391 . S
C1353 H1341 0.950 . S
C1353 C1349 1.393 . S
C1353 C1352 1.391 . S
C1354 H1344 0.950 . S
C1354 C1355 1.386 . S
C1354 C1356 1.391 . S
C1355 C1354 1.386 . S
C1355 C1359 1.393 . S
C1356 H1345 0.950 . S
C1356 C1354 1.391 . S
C1356 C1357 1.400 . S
C1357 C1351 1.491 . S
C1357 C1356 1.400 . S
C1357 C1358 1.398 . S
C1358 H1346 0.950 . S
C1358 C1357 1.398 . S
C1358 C1359 1.391 . S
C1359 H1347 0.950 . S
C1359 C1355 1.393 . S
C1359 C1358 1.391 . S
H1360 C1368 0.950 . S
H1361 C1373 0.950 . S
H1362 C1370 0.950 . S
H1363 C1372 0.950 . S
H1364 C1374 0.950 . S
H1365 C1376 0.950 . S
H1366 C1378 0.950 . S
H1367 C1379 0.950 . S
C1368 H1360 0.950 . S
C1368 C1369 1.386 . S
C1368 C1370 1.391 . S
C1369 C1368 1.386 . S
C1369 C1373 1.393 1_455 S
C1370 H1362 0.950 . S
C1370 C1368 1.391 . S
C1370 C1371 1.400 1_455 S
C1371 C1370 1.400 1_655 S
C1371 C1372 1.398 . S
C1371 C1377 1.491 . S
C1372 H1363 0.950 . S
C1372 C1371 1.398 . S
C1372 C1373 1.391 . S
C1373 H1361 0.950 . S
C1373 C1369 1.393 1_655 S
C1373 C1372 1.391 . S
C1374 H1364 0.950 . S
C1374 C1375 1.386 . S
C1374 C1376 1.391 . S
C1375 C1374 1.386 . S
C1375 C1379 1.393 . S
C1376 H1365 0.950 . S
C1376 C1374 1.391 . S
C1376 C1377 1.400 . S
C1377 C1371 1.491 . S
C1377 C1376 1.400 . S
C1377 C1378 1.398 . S
C1378 H1366 0.950 . S
C1378 C1377 1.398 . S
C1378 C1379 1.391 . S
C1379 H1367 0.950 . S
C1379 C1375 1.393 . S
C1379 C1378 1.391 . S
H1380 C1388 0.950 . S
H1381 C1393 0.950 . S
H1382 C1390 0.950 . S
H1383 C1392 0.950 . S
H1384 C1394 0.950 . S
H1385 C1396 0.950 . S
H1386 C1398 0.950 . S
H1387 C1399 0.950 . S
C1388 H1380 0.950 . S
C1388 C1389 1.386 . S
C1388 C1390 1.391 . S
C1389 C1388 1.386 . S
C1389 C1393 1.393 . S
C1390 H1382 0.950 . S
C1390 C1388 1.391 . S
C1390 C1391 1.400 . S
C1391 C1390 1.400 . S
C1391 C1392 1.398 . S
C1391 C1397 1.491 . S
C1392 H1383 0.950 . S
C1392 C1391 1.398 . S
C1392 C1393 1.391 . S
C1393 H1381 0.950 . S
C1393 C1389 1.393 . S
C1393 C1392 1.391 . S
C1394 H1384 0.950 . S
C1394 C1395 1.386 . S
C1394 C1396 1.391 . S
C1395 C1394 1.386 . S
C1395 C1399 1.393 . S
C1396 H1385 0.950 . S
C1396 C1394 1.391 . S
C1396 C1397 1.400 . S
C1397 C1391 1.491 . S
C1397 C1396 1.400 . S
C1397 C1398 1.398 . S
C1398 H1386 0.950 . S
C1398 C1397 1.398 . S
C1398 C1399 1.391 . S
C1399 H1387 0.950 . S
C1399 C1395 1.393 . S
C1399 C1398 1.391 . S
H1400 C1408 0.950 . S
H1401 C1413 0.950 . S
H1402 C1410 0.950 . S
H1403 C1412 0.950 . S
H1404 C1414 0.950 . S
H1405 C1416 0.950 . S
H1406 C1418 0.950 . S
H1407 C1419 0.950 . S
C1408 H1400 0.950 . S
C1408 C1409 1.386 . S
C1408 C1410 1.391 . S
C1409 C1408 1.386 . S
C1409 C1413 1.393 . S
C1410 H1402 0.950 . S
C1410 C1408 1.391 . S
C1410 C1411 1.400 . S
C1411 C1410 1.400 . S
C1411 C1412 1.398 . S
C1411 C1417 1.491 . S
C1412 H1403 0.950 . S
C1412 C1411 1.398 . S
C1412 C1413 1.391 . S
C1413 H1401 0.950 . S
C1413 C1409 1.393 . S
C1413 C1412 1.391 . S
C1414 H1404 0.950 . S
C1414 C1415 1.386 . S
C1414 C1416 1.391 . S
C1415 C1414 1.386 . S
C1415 C1419 1.393 . S
C1416 H1405 0.950 . S
C1416 C1414 1.391 . S
C1416 C1417 1.400 . S
C1417 C1411 1.491 . S
C1417 C1416 1.400 . S
C1417 C1418 1.398 . S
C1418 H1406 0.950 . S
C1418 C1417 1.398 . S
C1418 C1419 1.391 . S
C1419 H1407 0.950 . S
C1419 C1415 1.393 . S
C1419 C1418 1.391 . S
H1420 C1428 0.950 . S
H1421 C1433 0.950 1_554 S
H1422 C1430 0.950 . S
H1423 C1432 0.950 . S
H1424 C1434 0.950 . S
H1425 C1436 0.950 . S
H1426 C1438 0.950 . S
H1427 C1439 0.950 . S
C1428 H1420 0.950 . S
C1428 C1429 1.386 . S
C1428 C1430 1.391 . S
C1429 C1428 1.386 . S
C1429 C1433 1.393 . S
C1430 H1422 0.950 . S
C1430 C1428 1.391 . S
C1430 C1431 1.400 . S
C1431 C1430 1.400 . S
C1431 C1432 1.398 . S
C1431 C1437 1.491 . S
C1432 H1423 0.950 . S
C1432 C1431 1.398 . S
C1432 C1433 1.391 . S
C1433 H1421 0.950 1_556 S
C1433 C1429 1.393 . S
C1433 C1432 1.391 . S
C1434 H1424 0.950 . S
C1434 C1435 1.386 . S
C1434 C1436 1.391 . S
C1435 C1434 1.386 . S
C1435 C1439 1.393 . S
C1436 H1425 0.950 . S
C1436 C1434 1.391 . S
C1436 C1437 1.400 . S
C1437 C1431 1.491 . S
C1437 C1436 1.400 . S
C1437 C1438 1.398 . S
C1438 H1426 0.950 . S
C1438 C1437 1.398 . S
C1438 C1439 1.391 . S
C1439 H1427 0.950 . S
C1439 C1435 1.393 . S
C1439 C1438 1.391 . S
H1440 C1448 0.950 . S
H1441 C1453 0.950 . S
H1442 C1450 0.950 . S
H1443 C1452 0.950 . S
H1444 C1454 0.950 . S
H1445 C1456 0.950 . S
H1446 C1458 0.950 . S
H1447 C1459 0.950 . S
C1448 H1440 0.950 . S
C1448 C1449 1.386 . S
C1448 C1450 1.391 . S
C1449 C1448 1.386 . S
C1449 C1453 1.393 . S
C1450 H1442 0.950 . S
C1450 C1448 1.391 . S
C1450 C1451 1.400 . S
C1451 C1450 1.400 . S
C1451 C1452 1.398 . S
C1451 C1457 1.491 . S
C1452 H1443 0.950 . S
C1452 C1451 1.398 . S
C1452 C1453 1.391 . S
C1453 H1441 0.950 . S
C1453 C1449 1.393 . S
C1453 C1452 1.391 . S
C1454 H1444 0.950 . S
C1454 C1455 1.386 . S
C1454 C1456 1.391 . S
C1455 C1454 1.386 . S
C1455 C1459 1.393 . S
C1456 H1445 0.950 . S
C1456 C1454 1.391 . S
C1456 C1457 1.400 . S
C1457 C1451 1.491 . S
C1457 C1456 1.400 . S
C1457 C1458 1.398 . S
C1458 H1446 0.950 . S
C1458 C1457 1.398 . S
C1458 C1459 1.391 . S
C1459 H1447 0.950 . S
C1459 C1455 1.393 . S
C1459 C1458 1.391 . S
H1460 C1468 0.950 . S
H1461 C1473 0.950 . S
H1462 C1470 0.950 . S
H1463 C1472 0.950 . S
H1464 C1474 0.950 . S
H1465 C1476 0.950 . S
H1466 C1478 0.950 . S
H1467 C1479 0.950 . S
C1468 H1460 0.950 . S
C1468 C1469 1.386 . S
C1468 C1470 1.391 . S
C1469 C1468 1.386 . S
C1469 C1473 1.393 . S
C1470 H1462 0.950 . S
C1470 C1468 1.391 . S
C1470 C1471 1.400 . S
C1471 C1470 1.400 . S
C1471 C1472 1.398 . S
C1471 C1477 1.491 . S
C1472 H1463 0.950 . S
C1472 C1471 1.398 . S
C1472 C1473 1.391 . S
C1473 H1461 0.950 . S
C1473 C1469 1.393 . S
C1473 C1472 1.391 . S
C1474 H1464 0.950 . S
C1474 C1475 1.386 . S
C1474 C1476 1.391 . S
C1475 C1474 1.386 . S
C1475 C1479 1.393 . S
C1476 H1465 0.950 . S
C1476 C1474 1.391 . S
C1476 C1477 1.400 . S
C1477 C1471 1.491 . S
C1477 C1476 1.400 . S
C1477 C1478 1.398 . S
C1478 H1466 0.950 . S
C1478 C1477 1.398 . S
C1478 C1479 1.391 . S
C1479 H1467 0.950 . S
C1479 C1475 1.393 . S
C1479 C1478 1.391 . S
H1480 C1488 0.950 . S
H1481 C1493 0.950 . S
H1482 C1490 0.950 . S
H1483 C1492 0.950 . S
H1484 C1494 0.950 . S
H1485 C1496 0.950 . S
H1486 C1498 0.950 . S
H1487 C1499 0.950 . S
C1488 H1480 0.950 . S
C1488 C1489 1.386 . S
C1488 C1490 1.391 . S
C1489 C1488 1.386 . S
C1489 C1493 1.393 . S
C1490 H1482 0.950 . S
C1490 C1488 1.391 . S
C1490 C1491 1.400 . S
C1491 C1490 1.400 . S
C1491 C1492 1.398 . S
C1491 C1497 1.491 . S
C1492 H1483 0.950 . S
C1492 C1491 1.398 . S
C1492 C1493 1.391 . S
C1493 H1481 0.950 . S
C1493 C1489 1.393 . S
C1493 C1492 1.391 . S
C1494 H1484 0.950 . S
C1494 C1495 1.386 . S
C1494 C1496 1.391 . S
C1495 C1494 1.386 . S
C1495 C1499 1.393 . S
C1496 H1485 0.950 . S
C1496 C1494 1.391 . S
C1496 C1497 1.400 . S
C1497 C1491 1.491 . S
C1497 C1496 1.400 . S
C1497 C1498 1.398 . S
C1498 H1486 0.950 . S
C1498 C1497 1.398 . S
C1498 C1499 1.391 . S
C1499 H1487 0.950 . S
C1499 C1495 1.393 . S
C1499 C1498 1.391 . S
H1500 C1508 0.950 . S
H1501 C1513 0.950 . S
H1502 C1510 0.921 1_655 S
H1503 C1512 0.953 . S
H1504 C1514 0.950 . S
H1505 C1516 0.921 1_455 S
H1506 C1518 0.953 . S
H1507 C1519 0.950 . S
C1508 H1500 0.950 . S
C1508 C1509 1.386 . S
C1508 C1510 1.391 . S
C1509 C1508 1.386 . S
C1509 C1513 1.393 . S
C1510 H1502 0.921 1_455 S
C1510 C1508 1.391 . S
C1510 C1511 1.400 . S
C1511 C1510 1.400 . S
C1511 C1512 1.398 . S
C1511 C1517 1.491 1_454 S
C1512 H1503 0.953 . S
C1512 C1511 1.398 . S
C1512 C1513 1.391 . S
C1513 H1501 0.950 . S
C1513 C1509 1.393 . S
C1513 C1512 1.391 . S
C1514 H1504 0.950 . S
C1514 C1515 1.386 . S
C1514 C1516 1.391 . S
C1515 C1514 1.386 . S
C1515 C1519 1.393 . S
C1516 H1505 0.921 1_655 S
C1516 C1514 1.391 . S
C1516 C1517 1.400 . S
C1517 C1511 1.491 1_656 S
C1517 C1516 1.400 . S
C1517 C1518 1.398 . S
C1518 H1506 0.953 . S
C1518 C1517 1.398 . S
C1518 C1519 1.391 . S
C1519 H1507 0.950 . S
C1519 C1515 1.393 . S
C1519 C1518 1.391 . S
H1520 C1528 0.950 . S
H1521 C1533 0.950 . S
H1522 C1530 0.950 . S
H1523 C1532 0.950 . S
H1524 C1534 0.950 . S
H1525 C1536 0.950 . S
H1526 C1538 0.950 . S
H1527 C1539 0.950 . S
C1528 H1520 0.950 . S
C1528 C1529 1.386 . S
C1528 C1530 1.391 . S
C1529 C1528 1.386 . S
C1529 C1533 1.393 . S
C1530 H1522 0.950 . S
C1530 C1528 1.391 . S
C1530 C1531 1.400 . S
C1531 C1530 1.400 . S
C1531 C1532 1.398 . S
C1531 C1537 1.491 . S
C1532 H1523 0.950 . S
C1532 C1531 1.398 . S
C1532 C1533 1.391 . S
C1533 H1521 0.950 . S
C1533 C1529 1.393 . S
C1533 C1532 1.391 . S
C1534 H1524 0.950 . S
C1534 C1535 1.386 . S
C1534 C1536 1.391 . S
C1535 C1534 1.386 . S
C1535 C1539 1.393 . S
C1536 H1525 0.950 . S
C1536 C1534 1.391 . S
C1536 C1537 1.400 . S
C1537 C1531 1.491 . S
C1537 C1536 1.400 . S
C1537 C1538 1.398 . S
C1538 H1526 0.950 . S
C1538 C1537 1.398 . S
C1538 C1539 1.391 . S
C1539 H1527 0.950 . S
C1539 C1535 1.393 . S
C1539 C1538 1.391 . S
H1540 C1548 0.950 . S
H1541 C1553 0.950 . S
H1542 C1550 0.950 . S
H1543 C1552 0.950 . S
H1544 C1554 0.950 . S
H1545 C1556 0.950 . S
H1546 C1558 0.950 . S
H1547 C1559 0.950 . S
C1548 H1540 0.950 . S
C1548 C1549 1.386 . S
C1548 C1550 1.391 . S
C1549 C1548 1.386 . S
C1549 C1553 1.393 . S
C1550 H1542 0.950 . S
C1550 C1548 1.391 . S
C1550 C1551 1.400 . S
C1551 C1550 1.400 . S
C1551 C1552 1.398 . S
C1551 C1557 1.491 . S
C1552 H1543 0.950 . S
C1552 C1551 1.398 . S
C1552 C1553 1.391 . S
C1553 H1541 0.950 . S
C1553 C1549 1.393 . S
C1553 C1552 1.391 . S
C1554 H1544 0.950 . S
C1554 C1555 1.386 . S
C1554 C1556 1.391 . S
C1555 C1554 1.386 . S
C1555 C1559 1.393 . S
C1556 H1545 0.950 . S
C1556 C1554 1.391 . S
C1556 C1557 1.400 . S
C1557 C1551 1.491 . S
C1557 C1556 1.400 . S
C1557 C1558 1.398 . S
C1558 H1546 0.950 . S
C1558 C1557 1.398 . S
C1558 C1559 1.391 . S
C1559 H1547 0.950 . S
C1559 C1555 1.393 . S
C1559 C1558 1.391 . S
H1560 C1568 0.950 . S
H1561 C1573 0.950 . S
H1562 C1570 0.950 . S
H1563 C1572 0.950 . S
H1564 C1574 0.950 . S
H1565 C1576 0.950 . S
H1566 C1578 0.950 . S
H1567 C1579 0.950 . S
C1568 H1560 0.950 . S
C1568 C1569 1.386 1_565 S
C1568 C1570 1.391 . S
C1569 C1568 1.386 1_545 S
C1569 C1573 1.393 . S
C1570 H1562 0.950 . S
C1570 C1568 1.391 . S
C1570 C1571 1.368 1_565 S
C1571 C1570 1.368 1_545 S
C1571 C1572 1.433 . S
C1571 C1577 1.488 1_446 S
C1572 H1563 0.950 . S
C1572 C1571 1.433 . S
C1572 C1573 1.391 . S
C1573 H1561 0.950 . S
C1573 C1569 1.393 . S
C1573 C1572 1.391 . S
C1574 H1564 0.950 . S
C1574 C1575 1.386 1_545 S
C1574 C1576 1.391 . S
C1575 C1574 1.386 1_565 S
C1575 C1579 1.393 . S
C1576 H1565 0.950 . S
C1576 C1574 1.391 . S
C1576 C1577 1.368 1_545 S
C1577 C1571 1.488 1_664 S
C1577 C1576 1.368 1_565 S
C1577 C1578 1.433 . S
C1578 H1566 0.950 . S
C1578 C1577 1.433 . S
C1578 C1579 1.391 . S
C1579 H1567 0.950 . S
C1579 C1575 1.393 . S
C1579 C1578 1.391 . S
H1580 C1588 0.950 . S
H1581 C1593 0.959 . S
H1582 C1590 0.950 . S
H1583 C1592 0.950 . S
H1584 C1594 0.950 . S
H1585 C1596 0.950 . S
H1586 C1598 0.950 . S
H1587 C1599 0.959 . S
C1588 H1580 0.950 . S
C1588 C1589 1.386 . S
C1588 C1590 1.391 . S
C1589 C1588 1.386 . S
C1589 C1593 1.382 1_545 S
C1590 H1582 0.950 . S
C1590 C1588 1.391 . S
C1590 C1591 1.400 . S
C1591 C1590 1.400 . S
C1591 C1592 1.398 1_545 S
C1591 C1597 1.491 1_545 S
C1592 H1583 0.950 . S
C1592 C1591 1.398 1_565 S
C1592 C1593 1.394 . S
C1593 H1581 0.959 . S
C1593 C1589 1.382 1_565 S
C1593 C1592 1.394 . S
C1594 H1584 0.950 . S
C1594 C1595 1.386 . S
C1594 C1596 1.391 . S
C1595 C1594 1.386 . S
C1595 C1599 1.382 1_565 S
C1596 H1585 0.950 . S
C1596 C1594 1.391 . S
C1596 C1597 1.400 . S
C1597 C1591 1.491 1_565 S
C1597 C1596 1.400 . S
C1597 C1598 1.398 1_565 S
C1598 H1586 0.950 . S
C1598 C1597 1.398 1_545 S
C1598 C1599 1.394 . S
C1599 H1587 0.959 . S
C1599 C1595 1.382 1_545 S
C1599 C1598 1.394 . S
C649 C10 3.315 . S
C655 C410 3.314 . S
C669 C50 3.304 . S
C675 C450 3.304 . S
C689 C90 3.306 . S
C695 C330 3.306 . S
C709 C130 3.305 . S
C715 C370 3.305 . S
C729 C179 3.311 . S
C735 C579 3.311 . S
C749 C219 3.306 . S
C755 C619 3.306 . S
C769 C259 3.314 . S
C775 C499 3.314 . S
C789 C299 3.307 . S
C795 C539 3.307 . S
C809 C369 3.745 . S
C815 C19 3.713 1_556 S
C829 C409 3.749 . S
C835 C59 3.709 . S
C849 C449 3.751 . S
C855 C99 3.707 . S
C869 C329 3.748 . S
C875 C139 3.714 . S
C889 C170 3.705 1_554 S
C895 C538 3.754 . S
C909 C578 3.745 . S
C915 C210 3.716 . S
C929 C618 3.754 . S
C935 C250 3.707 . S
C949 C498 3.754 . S
C955 C290 3.704 . S
C969 C49 3.750 . S
C975 C339 3.711 . S
C989 C379 3.715 . S
C995 C89 3.744 . S
C1009 C419 3.707 1_556 S
C1015 C129 3.751 . S
C1029 C459 3.704 . S
C1035 C9 3.754 . S
C1049 C490 3.705 . S
C1055 C218 3.753 . S
C1069 C258 3.749 . S
C1075 C530 3.712 . S
C1089 C298 3.749 . S
C1095 C570 3.708 1_554 S
C1109 C610 3.709 . S
C1115 C178 3.752 . S
C1129 C6 0.435 . S
C1135 C609 0.186 . S
C1149 C46 0.339 . S
C1155 C169 0.172 . S
C1169 C529 0.209 . S
C1175 C86 0.352 . S
C1189 C249 0.165 . S
C1195 C126 0.429 . S
C1209 C175 0.414 . S
C1215 C458 0.223 . S
C1229 C215 0.429 . S
C1235 C18 0.212 . S
C1249 C378 0.200 . S
C1255 C255 0.434 . S
C1269 C98 0.195 . S
C1275 C295 0.435 . S
C1289 C326 0.424 . S
C1295 C289 0.156 . S
C1309 C366 0.434 . S
C1315 C489 0.201 . S
C1329 C209 0.151 . S
C1335 C406 0.421 . S
C1349 C569 0.142 . S
C1355 C446 0.413 . S
C1369 C495 0.424 . S
C1375 C138 0.218 . S
C1389 C535 0.378 . S
C1395 C338 0.224 . S
C1409 C575 0.406 . S
C1415 C58 0.226 . S
C1429 C418 0.141 . S
C1435 C615 0.411 . S
C1449 C15 1.616 . S
C1455 C486 1.616 . S
C1469 C55 1.595 . S
C1475 C206 1.595 . S
C1489 C95 1.618 . S
C1495 C566 1.618 . S
C1509 C286 1.607 . S
C1515 C135 1.607 . S
C1529 C166 1.624 . S
C1535 C335 1.624 . S
C1549 C415 1.627 . S
C1555 C246 1.627 . S
C1569 C375 1.618 . S
C1575 C526 1.618 . S
C1589 C606 1.595 . S
C1595 C455 1.595 . S
