# Generated by pormake.
# Topology qzd, (4)-cn, num edge types: 1
# Building blocks:
#     Node 0, Type 0, BuildingBlock: KOZSID_clean_sbu_0, # of connection points: 4
#     Node 1, Type 0, BuildingBlock: KOZSID_clean_sbu_0, # of connection points: 4
#     Node 2, Type 0, BuildingBlock: KOZSID_clean_sbu_0, # of connection points: 4
#     Edge 3, Type (0, 0), BuildingBlock: MIFKUJ_clean_linker_0, # of connection points: 2
#     Edge 4, Type (0, 0), BuildingBlock: MIFKUJ_clean_linker_0, # of connection points: 2
#     Edge 5, Type (0, 0), BuildingBlock: MIFKUJ_clean_linker_0, # of connection points: 2
#     Edge 6, Type (0, 0), BuildingBlock: MIFKUJ_clean_linker_0, # of connection points: 2
#     Edge 7, Type (0, 0), BuildingBlock: MIFKUJ_clean_linker_0, # of connection points: 2
#     Edge 8, Type (0, 0), BuildingBlock: MIFKUJ_clean_linker_0, # of connection points: 2
# Relax obj value: 0.001
# Max RMSD: 0.085
# Mean RMSD: 0.084
data_MOF--net-qzd--node1-KOZSID_clean_sbu_0--edge1-MIFKUJ_clean_linker_0
_symmetry_space_group_name_H-M    P1
_symmetry_Int_Tables_number       1
_symmetry_cell_setting            triclinic
loop_
_symmetry_equiv_pos_as_xyz
'x, y, z'
_cell_length_a     21.162333
_cell_length_b     21.20676
_cell_length_c     72.049289
_cell_angle_alpha  101.51295
_cell_angle_beta   101.45667
_cell_angle_gamma 120.0175
loop_
_atom_site_label
_atom_site_type_symbol
_atom_site_fract_x
_atom_site_fract_y
_atom_site_fract_z
_atom_type_partial_charge
C0 C 0.99111 0.19768 0.0225 0.0
C1 C 1.00351 0.27056 0.02649 0.0
C2 C 0.07832 0.32089 0.02753 0.0
C3 C 0.10749 0.27627 0.02426 0.0
N4 N 0.05573 0.2011 0.02125 0.0
Co5 Co 0.07439 0.11724 0.0169 0.0
N6 N 0.18933 0.1937 0.02787 0.0
C7 C 0.22702 0.27002 0.03049 0.0
C8 C 0.30659 0.30879 0.03815 0.0
C9 C 0.32 0.25326 0.04014 0.0
C10 C 0.24747 0.1832 0.03341 0.0
N11 N 0.09233 0.03274 0.01258 0.0
C12 C 0.15862 0.03561 0.01939 0.0
C13 C 0.14497 0.96252 0.012 0.0
C14 C 0.06803 0.91275 0.9999 0.0
C15 C 0.03888 0.95785 1.00054 0.0
N16 N 0.95959 0.04139 1.00575 0.0
C17 C 0.92063 0.96623 0.99395 0.0
C18 C 0.84122 0.92819 0.98873 0.0
C19 C 0.82969 0.98296 0.99785 0.0
C20 C 0.90305 0.05143 0.00818 0.0
N21 N 0.07412 0.11853 0.98973 0.0
C22 C 0.07746 0.1247 0.95125 0.0
C23 C 0.12926 0.11463 0.96366 0.0
C24 C 0.12726 0.11266 0.98278 0.0
C25 C 0.02303 0.13047 0.95857 0.0
C26 C 0.02182 0.12643 0.97767 0.0
N27 N 0.07461 0.11623 0.04401 0.0
C28 C 0.02552 0.04633 0.06588 0.0
C29 C 0.06735 0.11613 0.08251 0.0
C30 C 0.11413 0.18578 0.0794 0.0
C31 C 0.11667 0.18456 0.06012 0.0
C32 C 0.03032 0.04761 0.04686 0.0
H33 H 0.15209 0.23926 0.05823 0.0
H34 H 0.997 0.99309 0.03438 0.0
H35 H 0.16919 0.10655 0.99191 0.0
H36 H 0.97895 0.13054 0.98276 0.0
C37 C 0.18604 0.30477 0.02796 0.0
C38 C 0.91701 0.1258 0.01921 0.0
C39 C 0.23702 0.10735 0.03011 0.0
C40 C 0.96063 0.93071 0.99168 0.0
H41 H 0.96332 0.28611 0.02866 0.0
H42 H 0.10902 0.38327 0.03133 0.0
H43 H 0.34975 0.37026 0.04212 0.0
H44 H 0.37676 0.26285 0.04542 0.0
H45 H 0.18689 0.94725 0.01451 0.0
H46 H 0.03703 0.85101 0.9917 0.0
H47 H 0.79717 0.86709 0.9802 0.0
H48 H 0.77386 0.97355 0.99706 0.0
H49 H 0.17124 0.10779 0.95872 0.0
H50 H 0.98224 0.13934 0.94983 0.0
H51 H 0.98786 0.99097 0.06736 0.0
H52 H 0.14893 0.24114 0.09177 0.0
C53 C 0.90077 0.06024 0.34356 0.0
C54 C 0.83405 0.06015 0.34153 0.0
C55 C 0.85582 0.13449 0.344 0.0
C56 C 0.93423 0.17567 0.3475 0.0
N57 N 0.96385 0.13194 0.34709 0.0
Co58 Co 0.07606 0.16932 0.3529 0.0
N59 N 0.10897 0.27985 0.35834 0.0
C60 C 0.06284 0.30675 0.35783 0.0
C61 C 0.10191 0.38521 0.36169 0.0
C62 C 0.17735 0.40982 0.36446 0.0
C63 C 0.17971 0.34452 0.36204 0.0
N64 N 0.18837 0.20678 0.35888 0.0
C65 C 0.25155 0.27858 0.36253 0.0
C66 C 0.31852 0.27893 0.36494 0.0
C67 C 0.2968 0.20467 0.3626 0.0
C68 C 0.21818 0.16325 0.35882 0.0
N69 N 0.04306 0.05869 0.34728 0.0
C70 C 0.08902 0.03164 0.34748 0.0
C71 C 0.04975 0.953 0.34339 0.0
C72 C 0.97436 0.92843 0.34072 0.0
C73 C 0.97223 0.99392 0.34346 0.0
N74 N 0.06232 0.15523 0.32389 0.0
C75 C 0.04994 0.14189 0.28329 0.0
C76 C 0.08808 0.11515 0.29399 0.0
C77 C 0.09339 0.12218 0.31402 0.0
C78 C 0.01721 0.17464 0.29325 0.0
C79 C 0.02388 0.18053 0.31334 0.0
N80 N 0.08988 0.18334 0.38191 0.0
C81 C 0.1308 0.15889 0.41198 0.0
C82 C 0.10254 0.19574 0.4225 0.0
C83 C 0.06885 0.22734 0.41236 0.0
C84 C 0.06308 0.22047 0.39228 0.0
C85 C 0.12428 0.15374 0.39197 0.0
H86 H 0.0362 0.24519 0.38544 0.0
H87 H 0.14665 0.12455 0.38489 0.0
H88 H 0.1239 0.1013 0.32125 0.0
H89 H 0.99793 0.20627 0.32007 0.0
C90 C 0.98241 0.25619 0.35263 0.0
C91 C 0.90248 0.9922 0.34334 0.0
C92 C 0.24968 0.34635 0.36243 0.0
C93 C 0.16977 0.08244 0.35321 0.0
H94 H 0.77603 0.01204 0.33912 0.0
H95 H 0.81937 0.15647 0.344 0.0
H96 H 0.07799 0.41998 0.3619 0.0
H97 H 0.22499 0.46881 0.36744 0.0
H98 H 0.37665 0.32711 0.36746 0.0
H99 H 0.33339 0.18281 0.36277 0.0
H100 H 0.07358 0.91815 0.34306 0.0
H101 H 0.92667 0.86938 0.33765 0.0
H102 H 0.11543 0.09028 0.28712 0.0
H103 H 0.98606 0.19528 0.28557 0.0
H104 H 0.15653 0.13244 0.41895 0.0
H105 H 0.04721 0.25773 0.41988 0.0
C106 C 0.0544 0.00945 0.67685 0.0
C107 C 0.98395 0.93693 0.66839 0.0
C108 C 0.92666 0.94995 0.66432 0.0
C109 C 0.96507 0.02923 0.67059 0.0
N110 N 0.04367 0.06785 0.6782 0.0
Co111 Co 0.12197 0.18365 0.69023 0.0
N112 N 0.03723 0.20264 0.68623 0.0
C113 C 0.95935 0.14848 0.67827 0.0
C114 C 0.91579 0.17929 0.67746 0.0
C115 C 0.96892 0.25791 0.68518 0.0
C116 C 0.0421 0.27044 0.69019 0.0
N117 N 0.20033 0.29939 0.70225 0.0
C118 C 0.18962 0.35796 0.70453 0.0
C119 C 0.26019 0.43043 0.71288 0.0
C120 C 0.31748 0.4172 0.71602 0.0
C121 C 0.27896 0.33789 0.70936 0.0
N122 N 0.20665 0.16463 0.69432 0.0
C123 C 0.28452 0.21865 0.70193 0.0
C124 C 0.328 0.18777 0.70323 0.0
C125 C 0.27478 0.10926 0.69633 0.0
C126 C 0.20169 0.09696 0.69129 0.0
N127 N 0.12429 0.18656 0.66287 0.0
C128 C 0.12629 0.19408 0.62419 0.0
C129 C 0.1955 0.23407 0.64084 0.0
C130 C 0.1932 0.22935 0.65982 0.0
C131 C 0.05622 0.14961 0.62728 0.0
C132 C 0.05656 0.1469 0.64651 0.0
N133 N 0.11945 0.18073 0.7175 0.0
C134 C 0.18584 0.21974 0.75333 0.0
C135 C 0.11509 0.17448 0.7561 0.0
C136 C 0.04676 0.13235 0.73911 0.0
C137 C 0.0502 0.13665 0.72022 0.0
C138 C 0.18669 0.22172 0.73407 0.0
H139 H 0.99593 0.1033 0.70802 0.0
H140 H 0.24244 0.2568 0.73294 0.0
H141 H 0.24796 0.26139 0.67181 0.0
H142 H 1.00106 0.11242 0.64772 0.0
C143 C 0.92889 0.06913 0.67112 0.0
C144 C 0.12958 0.02018 0.68448 0.0
C145 C 0.11427 0.34779 0.69816 0.0
C146 C 0.31502 0.29795 0.70882 0.0
H147 H 0.97453 0.88041 0.66594 0.0
H148 H 0.86433 0.90684 0.65824 0.0
H149 H 0.8529 0.14828 0.67168 0.0
H150 H 0.95543 0.30122 0.68674 0.0
H151 H 0.26962 0.48712 0.71602 0.0
H152 H 0.37983 0.46026 0.72203 0.0
H153 H 0.39088 0.21873 0.709 0.0
H154 H 0.28814 0.06595 0.69548 0.0
H155 H 0.25146 0.27008 0.63939 0.0
H156 H 1.00091 0.11618 0.61487 0.0
H157 H 0.24053 0.25435 0.76597 0.0
H158 H 0.99044 0.09507 0.74023 0.0
H159 H 0.84872 0.08117 0.0466 0.0
H160 H 0.73429 0.07711 0.05075 0.0
H161 H 0.72018 0.16695 1.00246 0.0
H162 H 0.83437 0.17094 0.99839 0.0
H163 H 0.69868 0.238 0.03381 0.0
H164 H 0.6013 0.97641 0.99447 0.0
H165 H 0.59555 0.85466 0.98712 0.0
H166 H 0.53832 0.82423 0.04002 0.0
H167 H 0.54523 0.94673 0.0479 0.0
H168 H 0.31384 0.13715 1.00375 0.0
H169 H 0.43036 0.13817 1.00417 0.0
H170 H 0.42972 0.06868 0.05652 0.0
H171 H 0.3126 0.06821 0.05614 0.0
H172 H 0.46147 0.9892 0.02644 0.0
H173 H 0.55138 0.24932 0.06423 0.0
H174 H 0.55301 0.36875 0.07003 0.0
H175 H 0.62166 0.40011 0.01861 0.0
H176 H 0.61892 0.27991 0.01224 0.0
C177 C 0.82132 0.10066 0.03706 0.0
C178 C 0.8507 0.12767 0.02245 0.0
C179 C 0.75594 0.09802 0.03935 0.0
C180 C 0.71843 0.12153 0.02687 0.0
C181 C 0.74839 0.14906 0.01235 0.0
C182 C 0.81355 0.1515 0.01005 0.0
C183 C 0.64706 0.11611 0.02858 0.0
C184 C 0.64671 0.18346 0.03205 0.0
C185 C 0.57962 0.04528 0.02672 0.0
C186 C 0.57468 0.97123 0.02191 0.0
C187 C 0.58814 0.94412 1.00463 0.0
C188 C 0.5846 0.87493 1.00036 0.0
C189 C 0.56677 0.83183 0.01312 0.0
C190 C 0.55227 0.85776 0.03016 0.0
C191 C 0.55601 0.92708 0.03455 0.0
C192 C 0.33868 0.12203 0.01531 0.0
C193 C 0.30547 0.10375 0.03011 0.0
C194 C 0.40502 0.12254 0.01554 0.0
C195 C 0.43925 0.10442 0.03052 0.0
C196 C 0.40433 0.08311 0.04488 0.0
C197 C 0.33791 0.0831 0.04473 0.0
C198 C 0.5131 0.11085 0.03143 0.0
C199 C 0.51385 0.04383 0.02843 0.0
C200 C 0.58087 0.18187 0.03361 0.0
C201 C 0.58437 0.25522 0.03767 0.0
C202 C 0.56635 0.28138 0.05407 0.0
C203 C 0.56749 0.34924 0.05747 0.0
C204 C 0.5873 0.39193 0.04468 0.0
C205 C 0.60626 0.36695 0.0285 0.0
C206 C 0.60498 0.29897 0.02499 0.0
H207 H 0.5881 0.44443 0.04732 0.0
H208 H 0.56401 0.77825 0.00978 0.0
H209 H 0.75897 0.88456 0.31442 0.0
H210 H 0.64749 0.77389 0.31775 0.0
H211 H 0.78664 0.83541 0.37917 0.0
H212 H 0.89785 0.94619 0.37581 0.0
H213 H 0.69933 0.67715 0.35778 0.0
H214 H 0.66168 0.88416 0.37119 0.0
H215 H 0.65071 0.98781 0.36398 0.0
H216 H 0.45095 0.81895 0.31043 0.0
H217 H 0.4617 0.71437 0.31711 0.0
H218 H 0.39281 0.45455 0.39146 0.0
H219 H 0.50411 0.56572 0.38822 0.0
H220 H 0.3658 0.50318 0.32662 0.0
H221 H 0.2548 0.39183 0.32988 0.0
H222 H 0.45264 0.66214 0.34817 0.0
H223 H 0.49082 0.45527 0.33474 0.0
H224 H 0.50163 0.35169 0.34208 0.0
H225 H 0.70043 0.52063 0.39582 0.0
H226 H 0.68982 0.62514 0.38902 0.0
C227 C 0.76528 0.87401 0.32856 0.0
C228 C 0.83594 0.92365 0.34495 0.0
C229 C 0.70196 0.81116 0.33048 0.0
C230 C 0.70873 0.79709 0.34878 0.0
C231 C 0.78028 0.84542 0.36495 0.0
C232 C 0.84343 0.9085 0.36306 0.0
C233 C 0.64059 0.73307 0.35124 0.0
C234 C 0.64571 0.67431 0.35593 0.0
C235 C 0.57028 0.72887 0.34845 0.0
C236 C 0.563 0.7915 0.34454 0.0
C237 C 0.61579 0.86917 0.35778 0.0
C238 C 0.60958 0.9281 0.3538 0.0
C239 C 0.55028 0.91 0.33673 0.0
C240 C 0.49694 0.83289 0.32363 0.0
C241 C 0.50306 0.77375 0.32751 0.0
C242 C 0.38667 0.46492 0.37728 0.0
C243 C 0.31633 0.4148 0.36081 0.0
C244 C 0.44986 0.52811 0.37544 0.0
C245 C 0.44326 0.54207 0.35711 0.0
C246 C 0.37201 0.49326 0.34086 0.0
C247 C 0.309 0.42982 0.34268 0.0
C248 C 0.5114 0.60624 0.35471 0.0
C249 C 0.50627 0.66501 0.35003 0.0
C250 C 0.58172 0.61049 0.35752 0.0
C251 C 0.58904 0.54795 0.36147 0.0
C252 C 0.53648 0.47029 0.34821 0.0
C253 C 0.54259 0.4114 0.35226 0.0
C254 C 0.60157 0.42954 0.36943 0.0
C255 C 0.65469 0.50666 0.38254 0.0
C256 C 0.64866 0.56575 0.3786 0.0
H257 H 0.60623 0.38387 0.37254 0.0
H258 H 0.54554 0.95571 0.33368 0.0
H259 H 0.09626 0.89521 0.65459 0.0
H260 H 0.09635 0.78268 0.65837 0.0
H261 H 0.17418 0.88681 0.72329 0.0
H262 H 0.17168 0.99802 0.71939 0.0
H263 H 0.20902 0.76821 0.67709 0.0
H264 H 0.09359 0.74276 0.74286 0.0
H265 H 0.01643 0.77882 0.75811 0.0
H266 H 0.8946 0.76414 0.70043 0.0
H267 H 0.97002 0.72661 0.68477 0.0
H268 H 0.14754 0.46662 0.73016 0.0
H269 H 0.15307 0.58459 0.72931 0.0
H270 H 0.07807 0.49717 0.6641 0.0
H271 H 0.07461 0.38058 0.66508 0.0
H272 H 0.04829 0.61209 0.71258 0.0
H273 H 0.17422 0.64536 0.64776 0.0
H274 H 0.25585 0.61245 0.63387 0.0
H275 H 0.36336 0.6161 0.69163 0.0
H276 H 0.28349 0.65039 0.70596 0.0
C277 C 0.11312 0.89348 0.6696 0.0
C278 C 0.1328 0.95387 0.68671 0.0
C279 C 0.11358 0.82975 0.67178 0.0
C280 C 0.13411 0.82588 0.69109 0.0
C281 C 0.15665 0.88791 0.70824 0.0
C282 C 0.15555 0.95131 0.70604 0.0
C283 C 0.13039 0.75615 0.69319 0.0
C284 C 0.17319 0.73355 0.68464 0.0
C285 C 0.0856 0.71248 0.70363 0.0
C286 C 0.03806 0.73264 0.7127 0.0
C287 C 0.05002 0.7468 0.73342 0.0
C288 C 1.00666 0.76759 0.74214 0.0
C289 C 0.9509 0.77413 0.73027 0.0
C290 C 0.938 0.75933 0.70962 0.0
C291 C 0.98104 0.73828 0.70081 0.0
C292 C 0.13197 0.47297 0.71572 0.0
C293 C 0.11143 0.41578 0.69769 0.0
C294 C 0.13488 0.53987 0.71521 0.0
C295 C 0.11722 0.55012 0.69666 0.0
C296 C 0.09338 0.49108 0.67859 0.0
C297 C 0.09097 0.42455 0.67912 0.0
C298 C 0.1258 0.6234 0.69615 0.0
C299 C 0.08422 0.64682 0.70506 0.0
C300 C 0.17235 0.66833 0.68622 0.0
C301 C 0.22224 0.64972 0.67787 0.0
C302 C 0.21562 0.63961 0.65753 0.0
C303 C 0.26156 0.62066 0.64957 0.0
C304 C 0.31459 0.61197 0.66184 0.0
C305 C 0.32211 0.62262 0.68213 0.0
C306 C 0.27648 0.64179 0.69017 0.0
H307 H 0.34995 0.59712 0.65564 0.0
H308 H 0.91758 0.79048 0.73707 0.0
H309 H 0.06459 0.24939 0.26554 0.0
H310 H 0.0622 0.24216 0.23109 0.0
H311 H 0.0247 0.01616 0.21862 0.0
H312 H 0.02612 0.02248 0.25294 0.0
H313 H 0.1372 0.10833 0.20595 0.0
H314 H 0.87694 0.0358 0.19943 0.0
H315 H 0.77776 0.05182 0.20824 0.0
H316 H 0.87187 0.26465 0.19591 0.0
H317 H 0.97234 0.25045 0.18728 0.0
H318 H 0.05375 0.00875 0.10035 0.0
H319 H 0.04456 0.00992 0.13361 0.0
H320 H 0.06351 0.22733 0.14471 0.0
H321 H 0.06762 0.2241 0.11097 0.0
H322 H 0.95947 0.13883 0.15814 0.0
H323 H 0.22085 0.21507 0.16549 0.0
H324 H 0.32261 0.20265 0.15718 0.0
H325 H 0.2304 0.9882 0.16866 0.0
H326 H 0.12743 0.99883 0.17679 0.0
C327 C 0.05464 0.19759 0.25539 0.0
C328 C 0.04556 0.13651 0.26207 0.0
C329 C 0.05349 0.19364 0.23569 0.0
C330 C 0.04276 0.12836 0.2222 0.0
C331 C 0.03333 0.06721 0.22877 0.0
C332 C 0.03442 0.07108 0.24844 0.0
C333 C 0.04339 0.12455 0.2014 0.0
C334 C 0.09758 0.11389 0.19539 0.0
C335 C 0.9932 0.13397 0.1878 0.0
C336 C 0.93262 0.14242 0.1929 0.0
C337 C 0.87687 0.08633 0.19875 0.0
C338 C 0.82035 0.09503 0.20368 0.0
C339 C 0.81863 0.15931 0.20268 0.0
C340 C 0.87332 0.21493 0.1967 0.0
C341 C 0.93002 0.20655 0.19177 0.0
C342 C 0.05488 0.05636 0.10971 0.0
C343 C 0.06199 0.11662 0.1029 0.0
C344 C 0.05064 0.05746 0.12889 0.0
C345 C 0.05485 0.11951 0.1419 0.0
C346 C 0.06065 0.17904 0.13505 0.0
C347 C 0.06399 0.17756 0.11578 0.0
C348 C 0.05333 0.12254 0.16265 0.0
C349 C 0.99907 0.13316 0.16867 0.0
C350 C 0.10388 0.11369 0.17634 0.0
C351 C 0.166 0.10738 0.17156 0.0
C352 C 0.22196 0.165 0.16611 0.0
C353 C 0.2799 0.15832 0.16145 0.0
C354 C 0.28285 0.09458 0.16234 0.0
C355 C 0.22798 0.03749 0.16795 0.0
C356 C 0.16986 0.04384 0.1726 0.0
H357 H 0.32774 0.08951 0.15872 0.0
H358 H 0.77483 0.16593 0.20651 0.0
H359 H 0.02286 0.19953 0.59589 0.0
H360 H 0.0209 0.20196 0.56206 0.0
H361 H 0.2296 0.20366 0.57245 0.0
H362 H 0.23113 0.19928 0.6062 0.0
H363 H 0.23454 0.30945 0.55454 0.0
H364 H 0.05833 0.03888 0.54398 0.0
H365 H 0.94633 0.92678 0.54694 0.0
H366 H 0.79192 0.97659 0.51534 0.0
H367 H 0.90322 0.08973 0.51244 0.0
H368 H 0.22051 0.21726 0.45303 0.0
H369 H 0.22553 0.219 0.48724 0.0
H370 H 1.00249 0.18945 0.47477 0.0
H371 H 0.99495 0.18327 0.44013 0.0
H372 H 1.00547 0.09863 0.49407 0.0
H373 H 0.17853 0.36815 0.50437 0.0
H374 H 0.28919 0.48246 0.50171 0.0
H375 H 0.44766 0.4383 0.53396 0.0
H376 H 0.33777 0.32305 0.53658 0.0
C377 C 0.06798 0.19953 0.59096 0.0
C378 C 0.1268 0.19849 0.6038 0.0
C379 C 0.06693 0.20133 0.57162 0.0
C380 C 0.12465 0.2022 0.56464 0.0
C381 C 0.1845 0.20307 0.57753 0.0
C382 C 0.18541 0.20086 0.59687 0.0
C383 C 0.1219 0.20126 0.54381 0.0
C384 C 0.18495 0.26289 0.54128 0.0
C385 C 0.0563 0.14152 0.52656 0.0
C386 C 0.98922 0.07322 0.52817 0.0
C387 C 1.00058 0.02629 0.5378 0.0
C388 C 0.93721 0.9625 0.53944 0.0
C389 C 0.86208 0.94469 0.53138 0.0
C390 C 0.85016 0.99052 0.5216 0.0
C391 C 0.91335 0.05444 0.51994 0.0
C392 C 0.17208 0.2104 0.45745 0.0
C393 C 0.10729 0.20015 0.44372 0.0
C394 C 0.17554 0.21243 0.47716 0.0
C395 C 0.11493 0.20551 0.48375 0.0
C396 C 0.0502 0.19528 0.47011 0.0
C397 C 0.04637 0.1926 0.45033 0.0
C398 C 0.11812 0.20707 0.5047 0.0
C399 C 0.05513 0.14541 0.50728 0.0
C400 C 0.18358 0.26714 0.52199 0.0
C401 C 0.24982 0.33654 0.5205 0.0
C402 C 0.23691 0.38247 0.51076 0.0
C403 C 0.2995 0.44749 0.50929 0.0
C404 C 0.37538 0.46751 0.51762 0.0
C405 C 0.38884 0.42266 0.52749 0.0
C406 C 0.32643 0.35753 0.52899 0.0
H407 H 0.42377 0.51787 0.51646 0.0
H408 H 0.8131 0.89528 0.53266 0.0
H409 H 0.21962 0.17695 0.7864 0.0
H410 H 0.21365 0.16986 0.81944 0.0
H411 H 0.99594 0.15161 0.80458 0.0
H412 H 1.00412 0.16403 0.7721 0.0
H413 H 0.07809 0.24178 0.84146 0.0
H414 H 1.00744 0.99088 0.80321 0.0
H415 H 0.0208 0.89568 0.78158 0.0
H416 H 0.23228 0.97351 0.82813 0.0
H417 H 0.22081 0.07011 0.84995 0.0
H418 H 0.95688 0.07667 0.91657 0.0
H419 H 0.96418 0.08697 0.88379 0.0
H420 H 0.21116 0.18917 0.90638 0.0
H421 H 0.20619 0.18446 0.9396 0.0
H422 H 0.11185 0.05376 0.86579 0.0
H423 H 0.17658 0.3081 0.90337 0.0
H424 H 0.15259 0.39595 0.92401 0.0
H425 H 0.9355 0.29812 0.87673 0.0
H426 H 0.95771 0.20879 0.85593 0.0
C427 C 0.171 0.17263 0.79023 0.0
C428 C 0.11215 0.17067 0.77641 0.0
C429 C 0.16708 0.16742 0.80907 0.0
C430 C 0.10353 0.15864 0.81442 0.0
C431 C 0.04536 0.15785 0.80081 0.0
C432 C 0.04971 0.16405 0.78208 0.0
C433 C 0.09783 0.15086 0.83423 0.0
C434 C 0.08452 0.19988 0.84659 0.0
C435 C 0.10676 0.09669 0.84115 0.0
C436 C 0.11366 0.03829 0.82814 0.0
C437 C 0.05711 0.98809 0.80879 0.0
C438 C 0.06429 0.93381 0.7965 0.0
C439 C 0.12746 0.92866 0.80346 0.0
C440 C 0.18344 0.97764 0.82275 0.0
C441 C 0.1766 0.03215 0.83509 0.0
C442 C 0.01319 0.10264 0.91481 0.0
C443 C 0.08091 0.1296 0.93098 0.0
C444 C 0.01695 0.10766 0.89593 0.0
C445 C 0.08812 0.13845 0.89269 0.0
C446 C 0.15556 0.16453 0.90857 0.0
C447 C 0.15227 0.16115 0.92756 0.0
C448 C 0.09253 0.14473 0.87281 0.0
C449 C 0.10543 0.0954 0.8605 0.0
C450 C 0.08162 0.19736 0.86575 0.0
C451 C 0.06837 0.25117 0.8782 0.0
C452 C 0.12335 0.30476 0.89746 0.0
C453 C 0.11017 0.35495 0.90917 0.0
C454 C 0.04244 0.35246 0.90171 0.0
C455 C 0.98786 0.29989 0.8825 0.0
C456 C 1.00074 0.24951 0.87074 0.0
H457 H 0.03235 0.39138 0.91079 0.0
H458 H 0.13295 0.88662 0.79392 0.0
loop_
_geom_bond_atom_site_label_1
_geom_bond_atom_site_label_2
_geom_bond_distance
_geom_bond_site_symmetry_2
_ccdc_geom_bond_type
C0 C1 1.443 . S
C0 N4 1.376 . S
C0 C38 1.389 . S
C1 C0 1.443 . S
C1 C2 1.340 . S
C1 H41 0.951 . S
C2 C1 1.340 . S
C2 C3 1.439 1_655 S
C2 H42 0.950 1_655 S
C3 C2 1.439 1_455 S
C3 N4 1.374 1_455 S
C3 C37 1.395 . S
N4 C0 1.376 . S
N4 C3 1.374 1_655 S
N4 Co5 2.007 1_655 S
Co5 N4 2.007 1_455 S
Co5 N6 1.999 . S
Co5 N11 2.009 1_544 S
Co5 N16 1.990 1_444 S
Co5 N21 2.284 1_554 S
Co5 N27 2.281 1_445 S
N6 Co5 1.999 . S
N6 C7 1.376 . S
N6 C10 1.383 . S
C7 N6 1.376 . S
C7 C8 1.446 . S
C7 C37 1.391 . S
C8 C7 1.446 . S
C8 C9 1.339 . S
C8 H43 0.949 . S
C9 C8 1.339 . S
C9 C10 1.439 . S
C9 H44 0.950 . S
C10 N6 1.383 . S
C10 C9 1.439 . S
C10 C39 1.381 1_545 S
N11 Co5 2.009 1_566 S
N11 C12 1.376 . S
N11 C15 1.374 1_455 S
C12 N11 1.376 . S
C12 C13 1.443 . S
C12 C39 1.395 1_556 S
C13 C12 1.443 . S
C13 C14 1.340 . S
C13 H45 0.951 . S
C14 C13 1.340 . S
C14 C15 1.439 1_455 S
C14 H46 0.950 1_455 S
C15 N11 1.374 1_655 S
C15 C14 1.439 1_655 S
C15 C40 1.395 . S
N16 Co5 1.990 1_666 S
N16 C17 1.376 . S
N16 C20 1.383 . S
C17 N16 1.376 . S
C17 C18 1.446 . S
C17 C40 1.391 . S
C18 C17 1.446 . S
C18 C19 1.339 . S
C18 H47 0.949 . S
C19 C18 1.339 . S
C19 C20 1.439 . S
C19 H48 0.950 . S
C20 N16 1.383 . S
C20 C19 1.439 . S
C20 C38 1.392 1_566 S
N21 Co5 2.284 1_556 S
N21 C24 1.332 1_445 S
N21 C26 1.332 . S
C22 C23 1.386 1_445 S
C22 C25 1.388 . S
C23 C22 1.386 1_665 S
C23 C24 1.382 . S
C23 H49 0.950 . S
C24 N21 1.332 1_665 S
C24 C23 1.382 . S
C24 H35 0.952 . S
C25 C22 1.388 . S
C25 C26 1.382 . S
C25 H50 0.950 . S
C26 N21 1.332 . S
C26 C25 1.382 . S
C26 H36 0.948 . S
N27 Co5 2.281 1_665 S
N27 C31 1.332 1_665 S
N27 C32 1.332 . S
C28 C29 1.388 . S
C28 C32 1.382 . S
C28 H51 0.950 . S
C29 C28 1.388 . S
C29 C30 1.386 1_665 S
C30 C29 1.386 1_445 S
C30 C31 1.382 . S
C30 H52 0.950 . S
C31 N27 1.332 1_445 S
C31 C30 1.382 . S
C31 H33 0.952 . S
C32 N27 1.332 . S
C32 C28 1.382 . S
C32 H34 0.948 . S
H33 C31 0.952 . S
H34 C32 0.948 . S
H35 C24 0.952 . S
H36 C26 0.948 . S
C37 C3 1.395 . S
C37 C7 1.391 . S
C38 C0 1.389 . S
C38 C20 1.392 1_544 S
C39 C10 1.381 1_565 S
C39 C12 1.395 1_554 S
C40 C15 1.395 . S
C40 C17 1.391 . S
H41 C1 0.951 . S
H42 C2 0.950 1_455 S
H43 C8 0.949 . S
H44 C9 0.950 . S
H45 C13 0.951 . S
H46 C14 0.950 1_655 S
H47 C18 0.949 . S
H48 C19 0.950 . S
H49 C23 0.950 . S
H50 C25 0.950 . S
H51 C28 0.950 . S
H52 C30 0.950 . S
C53 C54 1.443 . S
C53 N57 1.376 . S
C53 C91 1.389 . S
C54 C53 1.443 . S
C54 C55 1.340 . S
C54 H94 0.951 . S
C55 C54 1.340 . S
C55 C56 1.439 . S
C55 H95 0.950 . S
C56 C55 1.439 . S
C56 N57 1.374 . S
C56 C90 1.395 . S
N57 C53 1.376 . S
N57 C56 1.374 . S
N57 Co58 2.008 1_655 S
Co58 N57 2.008 1_455 S
Co58 N59 1.995 . S
Co58 N64 2.008 . S
Co58 N69 1.995 1_455 S
Co58 N74 2.282 1_455 S
Co58 N80 2.282 . S
N59 Co58 1.995 . S
N59 C60 1.376 . S
N59 C63 1.383 . S
C60 N59 1.376 . S
C60 C61 1.446 . S
C60 C90 1.391 1_455 S
C61 C60 1.446 . S
C61 C62 1.339 . S
C61 H96 0.949 . S
C62 C61 1.339 . S
C62 C63 1.439 . S
C62 H97 0.950 . S
C63 N59 1.383 . S
C63 C62 1.439 . S
C63 C92 1.392 . S
N64 Co58 2.008 . S
N64 C65 1.376 . S
N64 C68 1.374 . S
C65 N64 1.376 . S
C65 C66 1.443 . S
C65 C92 1.389 . S
C66 C65 1.443 . S
C66 C67 1.340 . S
C66 H98 0.951 . S
C67 C66 1.340 . S
C67 C68 1.439 . S
C67 H99 0.950 . S
C68 N64 1.374 . S
C68 C67 1.439 . S
C68 C93 1.395 . S
N69 Co58 1.995 1_655 S
N69 C70 1.376 1_655 S
N69 C73 1.383 . S
C70 N69 1.376 1_455 S
C70 C71 1.446 1_445 S
C70 C93 1.391 . S
C71 C70 1.446 1_665 S
C71 C72 1.339 . S
C71 H100 0.949 . S
C72 C71 1.339 . S
C72 C73 1.439 1_565 S
C72 H101 0.950 . S
C73 N69 1.383 . S
C73 C72 1.439 1_545 S
C73 C91 1.392 . S
N74 Co58 2.282 1_655 S
N74 C77 1.332 1_655 S
N74 C79 1.332 . S
C75 C76 1.386 1_655 S
C75 C78 1.388 . S
C76 C75 1.386 1_455 S
C76 C77 1.382 . S
C76 H102 0.950 . S
C77 N74 1.332 1_455 S
C77 C76 1.382 . S
C77 H88 0.952 . S
C78 C75 1.388 . S
C78 C79 1.382 . S
C78 H103 0.950 . S
C79 N74 1.332 . S
C79 C78 1.382 . S
C79 H89 0.948 . S
N80 Co58 2.282 . S
N80 C84 1.332 . S
N80 C85 1.332 . S
C81 C82 1.388 . S
C81 C85 1.382 . S
C81 H104 0.950 . S
C82 C81 1.388 . S
C82 C83 1.386 . S
C83 C82 1.386 . S
C83 C84 1.382 . S
C83 H105 0.950 . S
C84 N80 1.332 . S
C84 C83 1.382 . S
C84 H86 0.952 . S
C85 N80 1.332 . S
C85 C81 1.382 . S
C85 H87 0.948 . S
H86 C84 0.952 . S
H87 C85 0.948 . S
H88 C77 0.952 . S
H89 C79 0.948 . S
C90 C56 1.395 . S
C90 C60 1.391 1_655 S
C91 C53 1.389 . S
C91 C73 1.392 . S
C92 C63 1.392 . S
C92 C65 1.389 . S
C93 C68 1.395 . S
C93 C70 1.391 . S
H94 C54 0.951 . S
H95 C55 0.950 . S
H96 C61 0.949 . S
H97 C62 0.950 . S
H98 C66 0.951 . S
H99 C67 0.950 . S
H100 C71 0.949 . S
H101 C72 0.950 . S
H102 C76 0.950 . S
H103 C78 0.950 . S
H104 C81 0.950 . S
H105 C83 0.950 . S
C106 C107 1.443 1_545 S
C106 N110 1.376 . S
C106 C144 1.389 . S
C107 C106 1.443 1_565 S
C107 C108 1.340 1_565 S
C107 H147 0.951 . S
C108 C107 1.340 1_545 S
C108 C109 1.439 . S
C108 H148 0.950 1_445 S
C109 C108 1.439 . S
C109 N110 1.374 . S
C109 C143 1.395 . S
N110 C106 1.376 . S
N110 C109 1.374 . S
N110 Co111 2.008 . S
Co111 N110 2.008 . S
Co111 N112 1.995 . S
Co111 N117 2.008 . S
Co111 N122 1.995 . S
Co111 N127 2.282 . S
Co111 N133 2.282 . S
N112 Co111 1.995 . S
N112 C113 1.376 . S
N112 C116 1.383 . S
C113 N112 1.376 . S
C113 C114 1.446 . S
C113 C143 1.391 . S
C114 C113 1.446 . S
C114 C115 1.339 . S
C114 H149 0.949 1_455 S
C115 C114 1.339 . S
C115 C116 1.439 . S
C115 H150 0.950 . S
C116 N112 1.383 . S
C116 C115 1.439 . S
C116 C145 1.392 . S
N117 Co111 2.008 . S
N117 C118 1.376 . S
N117 C121 1.374 . S
C118 N117 1.376 . S
C118 C119 1.443 . S
C118 C145 1.389 . S
C119 C118 1.443 . S
C119 C120 1.340 . S
C119 H151 0.951 . S
C120 C119 1.340 . S
C120 C121 1.439 . S
C120 H152 0.950 . S
C121 N117 1.374 . S
C121 C120 1.439 . S
C121 C146 1.395 . S
N122 Co111 1.995 . S
N122 C123 1.376 . S
N122 C126 1.383 . S
C123 N122 1.376 . S
C123 C124 1.446 . S
C123 C146 1.391 . S
C124 C123 1.446 . S
C124 C125 1.339 . S
C124 H153 0.949 . S
C125 C124 1.339 . S
C125 C126 1.439 . S
C125 H154 0.950 . S
C126 N122 1.383 . S
C126 C125 1.439 . S
C126 C144 1.392 . S
N127 Co111 2.282 . S
N127 C130 1.332 . S
N127 C132 1.332 . S
C128 C129 1.386 . S
C128 C131 1.388 . S
C129 C128 1.386 . S
C129 C130 1.382 . S
C129 H155 0.950 . S
C130 N127 1.332 . S
C130 C129 1.382 . S
C130 H141 0.952 . S
C131 C128 1.388 . S
C131 C132 1.382 . S
C131 H156 0.950 . S
C132 N127 1.332 . S
C132 C131 1.382 . S
C132 H142 0.948 . S
N133 Co111 2.282 . S
N133 C137 1.332 . S
N133 C138 1.332 . S
C134 C135 1.388 . S
C134 C138 1.382 . S
C134 H157 0.950 . S
C135 C134 1.388 . S
C135 C136 1.386 . S
C136 C135 1.386 . S
C136 C137 1.382 . S
C136 H158 0.950 . S
C137 N133 1.332 . S
C137 C136 1.382 . S
C137 H139 0.952 . S
C138 N133 1.332 . S
C138 C134 1.382 . S
C138 H140 0.948 . S
H139 C137 0.952 . S
H140 C138 0.948 . S
H141 C130 0.952 . S
H142 C132 0.948 . S
C143 C109 1.395 . S
C143 C113 1.391 . S
C144 C106 1.389 . S
C144 C126 1.392 . S
C145 C116 1.392 . S
C145 C118 1.389 . S
C146 C121 1.395 . S
C146 C123 1.391 . S
H147 C107 0.951 . S
H148 C108 0.950 1_665 S
H149 C114 0.949 1_655 S
H150 C115 0.950 . S
H151 C119 0.951 . S
H152 C120 0.950 . S
H153 C124 0.949 . S
H154 C125 0.950 . S
H155 C129 0.950 . S
H156 C131 0.950 . S
H157 C134 0.950 . S
H158 C136 0.950 . S
H159 C177 0.951 . S
H160 C179 0.951 . S
H161 C181 0.942 . S
H162 C182 0.967 . S
H163 C184 0.950 . S
H164 C187 0.950 . S
H165 C188 0.950 . S
H166 C190 0.950 . S
H167 C191 0.950 . S
H168 C192 0.952 . S
H169 C194 0.951 . S
H170 C196 0.950 . S
H171 C197 0.950 . S
H172 C199 0.950 . S
H173 C202 0.950 . S
H174 C203 0.950 . S
H175 C205 0.950 . S
H176 C206 0.950 . S
C177 H159 0.951 . S
C177 C178 1.364 1_565 S
C177 C179 1.388 . S
C178 C177 1.364 1_545 S
C178 C182 1.389 . S
C179 H160 0.951 . S
C179 C177 1.388 . S
C179 C180 1.366 . S
C180 C179 1.366 . S
C180 C181 1.439 1_565 S
C180 C183 1.491 1_565 S
C181 H161 0.942 . S
C181 C180 1.439 1_545 S
C181 C182 1.365 . S
C182 H162 0.967 . S
C182 C178 1.389 . S
C182 C181 1.365 . S
C183 C180 1.491 1_545 S
C183 C184 1.384 . S
C183 C185 1.386 1_544 S
C184 H163 0.950 . S
C184 C183 1.384 . S
C184 C200 1.377 . S
C185 C183 1.386 1_566 S
C185 C186 1.524 . S
C185 C199 1.377 . S
C186 C185 1.524 . S
C186 C187 1.397 . S
C186 C191 1.363 . S
C187 H164 0.950 . S
C187 C186 1.397 . S
C187 C188 1.334 . S
C188 H165 0.950 . S
C188 C187 1.334 . S
C188 C189 1.287 . S
C189 C188 1.287 . S
C189 C190 1.524 . S
C189 H208 0.913 . S
C190 H166 0.950 . S
C190 C189 1.524 . S
C190 C191 1.415 . S
C191 H167 0.950 . S
C191 C186 1.363 . S
C191 C190 1.415 . S
C192 H168 0.952 . S
C192 C193 1.367 . S
C192 C194 1.388 . S
C193 C192 1.367 . S
C193 C197 1.383 1_545 S
C194 H169 0.951 . S
C194 C192 1.388 . S
C194 C195 1.366 . S
C195 C194 1.366 . S
C195 C196 1.414 1_545 S
C195 C198 1.497 1_545 S
C196 H170 0.950 . S
C196 C195 1.414 1_565 S
C196 C197 1.374 . S
C197 H171 0.950 . S
C197 C193 1.383 1_565 S
C197 C196 1.374 . S
C198 C195 1.497 1_565 S
C198 C199 1.376 1_554 S
C198 C200 1.388 1_565 S
C199 H172 0.950 . S
C199 C185 1.377 . S
C199 C198 1.376 1_556 S
C200 C184 1.377 . S
C200 C198 1.388 1_545 S
C200 C201 1.524 . S
C201 C200 1.524 . S
C201 C202 1.397 . S
C201 C206 1.363 . S
C202 H173 0.950 . S
C202 C201 1.397 . S
C202 C203 1.334 . S
C203 H174 0.950 . S
C203 C202 1.334 . S
C203 C204 1.287 . S
C204 C203 1.287 . S
C204 C205 1.524 . S
C204 H207 0.999 . S
C205 H175 0.950 . S
C205 C204 1.524 . S
C205 C206 1.415 . S
C206 H176 0.950 . S
C206 C201 1.363 . S
C206 C205 1.415 . S
H207 C204 0.999 . S
H208 C189 0.913 . S
H209 C227 0.951 1_545 S
H210 C229 0.951 . S
H211 C231 0.950 . S
H212 C232 0.950 . S
H213 C234 0.950 . S
H214 C237 0.950 . S
H215 C238 0.950 1_545 S
H216 C240 0.950 . S
H217 C241 0.950 . S
H218 C242 0.951 . S
H219 C244 0.951 . S
H220 C246 0.950 . S
H221 C247 0.950 . S
H222 C249 0.950 . S
H223 C252 0.950 . S
H224 C253 0.950 . S
H225 C255 0.950 . S
H226 C256 0.950 . S
C227 H209 0.951 1_565 S
C227 C228 1.366 . S
C227 C229 1.388 . S
C228 C227 1.366 . S
C228 C232 1.385 . S
C229 H210 0.951 . S
C229 C227 1.388 . S
C229 C230 1.366 . S
C230 C229 1.366 . S
C230 C231 1.414 . S
C230 C233 1.499 . S
C231 H211 0.950 . S
C231 C230 1.414 . S
C231 C232 1.374 . S
C232 H212 0.950 . S
C232 C228 1.385 . S
C232 C231 1.374 . S
C233 C230 1.499 . S
C233 C234 1.373 . S
C233 C235 1.389 . S
C234 H213 0.950 . S
C234 C233 1.373 . S
C234 C250 1.377 . S
C235 C233 1.389 . S
C235 C236 1.524 . S
C235 C249 1.377 . S
C236 C235 1.524 . S
C236 C237 1.397 . S
C236 C241 1.363 . S
C237 H214 0.950 . S
C237 C236 1.397 . S
C237 C238 1.334 . S
C238 H215 0.950 1_565 S
C238 C237 1.334 . S
C238 C239 1.287 . S
C239 C238 1.287 . S
C239 C240 1.524 . S
C239 H258 0.913 1_565 S
C240 H216 0.950 . S
C240 C239 1.524 . S
C240 C241 1.415 . S
C241 H217 0.950 . S
C241 C236 1.363 . S
C241 C240 1.415 . S
C242 H218 0.951 . S
C242 C243 1.366 . S
C242 C244 1.388 . S
C243 C242 1.366 . S
C243 C247 1.385 . S
C244 H219 0.951 . S
C244 C242 1.388 . S
C244 C245 1.366 . S
C245 C244 1.366 . S
C245 C246 1.414 . S
C245 C248 1.499 . S
C246 H220 0.950 . S
C246 C245 1.414 . S
C246 C247 1.374 . S
C247 H221 0.950 . S
C247 C243 1.385 . S
C247 C246 1.374 . S
C248 C245 1.499 . S
C248 C249 1.373 . S
C248 C250 1.389 . S
C249 H222 0.950 . S
C249 C235 1.377 . S
C249 C248 1.373 . S
C250 C234 1.377 . S
C250 C248 1.389 . S
C250 C251 1.524 . S
C251 C250 1.524 . S
C251 C252 1.397 . S
C251 C256 1.363 . S
C252 H223 0.950 . S
C252 C251 1.397 . S
C252 C253 1.334 . S
C253 H224 0.950 . S
C253 C252 1.334 . S
C253 C254 1.287 . S
C254 C253 1.287 . S
C254 C255 1.524 . S
C254 H257 0.999 . S
C255 H225 0.950 . S
C255 C254 1.524 . S
C255 C256 1.415 . S
C256 H226 0.950 . S
C256 C251 1.363 . S
C256 C255 1.415 . S
H257 C254 0.999 . S
H258 C239 0.913 1_545 S
H259 C277 0.951 . S
H260 C279 0.951 . S
H261 C281 0.950 . S
H262 C282 0.950 . S
H263 C284 0.950 . S
H264 C287 0.950 . S
H265 C288 0.950 . S
H266 C290 0.950 1_655 S
H267 C291 0.950 . S
H268 C292 0.951 . S
H269 C294 0.951 . S
H270 C296 0.950 . S
H271 C297 0.950 . S
H272 C299 0.950 . S
H273 C302 0.950 . S
H274 C303 0.950 . S
H275 C305 0.950 . S
H276 C306 0.950 . S
C277 H259 0.951 . S
C277 C278 1.366 1_565 S
C277 C279 1.388 . S
C278 C277 1.366 1_545 S
C278 C282 1.385 . S
C279 H260 0.951 . S
C279 C277 1.388 . S
C279 C280 1.366 . S
C280 C279 1.366 . S
C280 C281 1.414 . S
C280 C283 1.499 . S
C281 H261 0.950 . S
C281 C280 1.414 . S
C281 C282 1.374 1_565 S
C282 H262 0.950 . S
C282 C278 1.385 . S
C282 C281 1.374 1_545 S
C283 C280 1.499 . S
C283 C284 1.373 . S
C283 C285 1.389 . S
C284 H263 0.950 . S
C284 C283 1.373 . S
C284 C300 1.377 . S
C285 C283 1.389 . S
C285 C286 1.524 . S
C285 C299 1.377 . S
C286 C285 1.524 . S
C286 C287 1.397 . S
C286 C291 1.363 . S
C287 H264 0.950 . S
C287 C286 1.397 . S
C287 C288 1.334 . S
C288 H265 0.950 . S
C288 C287 1.334 . S
C288 C289 1.287 . S
C289 C288 1.287 . S
C289 C290 1.524 . S
C289 H308 0.913 . S
C290 H266 0.950 1_455 S
C290 C289 1.524 . S
C290 C291 1.415 . S
C291 H267 0.950 . S
C291 C286 1.363 . S
C291 C290 1.415 . S
C292 H268 0.951 . S
C292 C293 1.366 . S
C292 C294 1.388 . S
C293 C292 1.366 . S
C293 C297 1.385 . S
C294 H269 0.951 . S
C294 C292 1.388 . S
C294 C295 1.366 . S
C295 C294 1.366 . S
C295 C296 1.414 . S
C295 C298 1.499 . S
C296 H270 0.950 . S
C296 C295 1.414 . S
C296 C297 1.374 . S
C297 H271 0.950 . S
C297 C293 1.385 . S
C297 C296 1.374 . S
C298 C295 1.499 . S
C298 C299 1.373 . S
C298 C300 1.389 . S
C299 H272 0.950 . S
C299 C285 1.377 . S
C299 C298 1.373 . S
C300 C284 1.377 . S
C300 C298 1.389 . S
C300 C301 1.524 . S
C301 C300 1.524 . S
C301 C302 1.397 . S
C301 C306 1.363 . S
C302 H273 0.950 . S
C302 C301 1.397 . S
C302 C303 1.334 . S
C303 H274 0.950 . S
C303 C302 1.334 . S
C303 C304 1.287 . S
C304 C303 1.287 . S
C304 C305 1.524 . S
C304 H307 0.999 . S
C305 H275 0.950 . S
C305 C304 1.524 . S
C305 C306 1.415 . S
C306 H276 0.950 . S
C306 C301 1.363 . S
C306 C305 1.415 . S
H307 C304 0.999 . S
H308 C289 0.913 . S
H309 C327 0.951 . S
H310 C329 0.951 . S
H311 C331 0.950 . S
H312 C332 0.950 . S
H313 C334 0.950 . S
H314 C337 0.950 . S
H315 C338 0.950 . S
H316 C340 0.950 . S
H317 C341 0.950 . S
H318 C342 0.951 . S
H319 C344 0.951 . S
H320 C346 0.950 . S
H321 C347 0.950 . S
H322 C349 0.950 . S
H323 C352 0.950 . S
H324 C353 0.950 . S
H325 C355 0.950 1_565 S
H326 C356 0.950 1_565 S
C327 H309 0.951 . S
C327 C328 1.366 . S
C327 C329 1.388 . S
C328 C327 1.366 . S
C328 C332 1.385 . S
C329 H310 0.951 . S
C329 C327 1.388 . S
C329 C330 1.366 . S
C330 C329 1.366 . S
C330 C331 1.414 . S
C330 C333 1.499 . S
C331 H311 0.950 . S
C331 C330 1.414 . S
C331 C332 1.374 . S
C332 H312 0.950 . S
C332 C328 1.385 . S
C332 C331 1.374 . S
C333 C330 1.499 . S
C333 C334 1.373 1_655 S
C333 C335 1.389 . S
C334 H313 0.950 . S
C334 C333 1.373 1_455 S
C334 C350 1.377 . S
C335 C333 1.389 . S
C335 C336 1.524 . S
C335 C349 1.377 . S
C336 C335 1.524 . S
C336 C337 1.397 . S
C336 C341 1.363 . S
C337 H314 0.950 . S
C337 C336 1.397 . S
C337 C338 1.334 . S
C338 H315 0.950 . S
C338 C337 1.334 . S
C338 C339 1.287 . S
C339 C338 1.287 . S
C339 C340 1.524 . S
C339 H358 0.913 . S
C340 H316 0.950 . S
C340 C339 1.524 . S
C340 C341 1.415 . S
C341 H317 0.950 . S
C341 C336 1.363 . S
C341 C340 1.415 . S
C342 H318 0.951 . S
C342 C343 1.366 1_565 S
C342 C344 1.388 . S
C343 C342 1.366 1_545 S
C343 C347 1.385 . S
C344 H319 0.951 . S
C344 C342 1.388 . S
C344 C345 1.366 1_565 S
C345 C344 1.366 1_545 S
C345 C346 1.414 . S
C345 C348 1.499 . S
C346 H320 0.950 . S
C346 C345 1.414 . S
C346 C347 1.374 . S
C347 H321 0.950 . S
C347 C343 1.385 . S
C347 C346 1.374 . S
C348 C345 1.499 . S
C348 C349 1.373 . S
C348 C350 1.389 1_655 S
C349 H322 0.950 . S
C349 C335 1.377 . S
C349 C348 1.373 . S
C350 C334 1.377 . S
C350 C348 1.389 1_455 S
C350 C351 1.524 . S
C351 C350 1.524 . S
C351 C352 1.397 . S
C351 C356 1.363 . S
C352 H323 0.950 . S
C352 C351 1.397 . S
C352 C353 1.334 . S
C353 H324 0.950 . S
C353 C352 1.334 . S
C353 C354 1.287 . S
C354 C353 1.287 . S
C354 C355 1.524 . S
C354 H357 0.999 . S
C355 H325 0.950 1_545 S
C355 C354 1.524 . S
C355 C356 1.415 . S
C356 H326 0.950 1_545 S
C356 C351 1.363 . S
C356 C355 1.415 . S
H357 C354 0.999 . S
H358 C339 0.913 . S
H359 C377 0.951 . S
H360 C379 0.951 . S
H361 C381 0.950 . S
H362 C382 0.950 . S
H363 C384 0.950 . S
H364 C387 0.950 . S
H365 C388 0.950 1_565 S
H366 C390 0.950 . S
H367 C391 0.950 . S
H368 C392 0.951 . S
H369 C394 0.951 . S
H370 C396 0.950 . S
H371 C397 0.950 1_655 S
H372 C399 0.950 . S
H373 C402 0.950 . S
H374 C403 0.950 . S
H375 C405 0.950 . S
H376 C406 0.950 . S
C377 H359 0.951 . S
C377 C378 1.366 . S
C377 C379 1.388 . S
C378 C377 1.366 . S
C378 C382 1.385 . S
C379 H360 0.951 . S
C379 C377 1.388 . S
C379 C380 1.366 . S
C380 C379 1.366 . S
C380 C381 1.414 . S
C380 C383 1.499 . S
C381 H361 0.950 . S
C381 C380 1.414 . S
C381 C382 1.374 . S
C382 H362 0.950 . S
C382 C378 1.385 . S
C382 C381 1.374 . S
C383 C380 1.499 . S
C383 C384 1.373 . S
C383 C385 1.389 . S
C384 H363 0.950 . S
C384 C383 1.373 . S
C384 C400 1.377 . S
C385 C383 1.389 . S
C385 C386 1.524 . S
C385 C399 1.377 . S
C386 C385 1.524 . S
C386 C387 1.397 . S
C386 C391 1.363 1_455 S
C387 H364 0.950 . S
C387 C386 1.397 . S
C387 C388 1.334 1_455 S
C388 H365 0.950 1_545 S
C388 C387 1.334 1_655 S
C388 C389 1.287 . S
C389 C388 1.287 . S
C389 C390 1.524 . S
C389 H408 0.913 1_545 S
C390 H366 0.950 . S
C390 C389 1.524 . S
C390 C391 1.415 . S
C391 H367 0.950 . S
C391 C386 1.363 1_655 S
C391 C390 1.415 . S
C392 H368 0.951 . S
C392 C393 1.366 . S
C392 C394 1.388 . S
C393 C392 1.366 . S
C393 C397 1.385 . S
C394 H369 0.951 . S
C394 C392 1.388 . S
C394 C395 1.366 . S
C395 C394 1.366 . S
C395 C396 1.414 . S
C395 C398 1.499 . S
C396 H370 0.950 . S
C396 C395 1.414 . S
C396 C397 1.374 . S
C397 H371 0.950 1_455 S
C397 C393 1.385 . S
C397 C396 1.374 . S
C398 C395 1.499 . S
C398 C399 1.373 . S
C398 C400 1.389 . S
C399 H372 0.950 . S
C399 C385 1.377 . S
C399 C398 1.373 . S
C400 C384 1.377 . S
C400 C398 1.389 . S
C400 C401 1.524 . S
C401 C400 1.524 . S
C401 C402 1.397 . S
C401 C406 1.363 . S
C402 H373 0.950 . S
C402 C401 1.397 . S
C402 C403 1.334 . S
C403 H374 0.950 . S
C403 C402 1.334 . S
C403 C404 1.287 . S
C404 C403 1.287 . S
C404 C405 1.524 . S
C404 H407 0.999 . S
C405 H375 0.950 . S
C405 C404 1.524 . S
C405 C406 1.415 . S
C406 H376 0.950 . S
C406 C401 1.363 . S
C406 C405 1.415 . S
H407 C404 0.999 . S
H408 C389 0.913 1_565 S
H409 C427 0.951 . S
H410 C429 0.951 . S
H411 C431 0.950 . S
H412 C432 0.950 . S
H413 C434 0.950 . S
H414 C437 0.950 . S
H415 C438 0.950 . S
H416 C440 0.950 . S
H417 C441 0.950 . S
H418 C442 0.951 1_655 S
H419 C444 0.959 . S
H420 C446 0.950 . S
H421 C447 0.952 . S
H422 C449 0.950 1_565 S
H423 C452 0.950 . S
H424 C453 0.950 . S
H425 C455 0.950 . S
H426 C456 0.950 . S
C427 H409 0.951 . S
C427 C428 1.366 . S
C427 C429 1.388 . S
C428 C427 1.366 . S
C428 C432 1.385 . S
C429 H410 0.951 . S
C429 C427 1.388 . S
C429 C430 1.366 . S
C430 C429 1.366 . S
C430 C431 1.414 . S
C430 C433 1.499 . S
C431 H411 0.950 . S
C431 C430 1.414 . S
C431 C432 1.374 . S
C432 H412 0.950 . S
C432 C428 1.385 . S
C432 C431 1.374 . S
C433 C430 1.499 . S
C433 C434 1.373 . S
C433 C435 1.389 . S
C434 H413 0.950 . S
C434 C433 1.373 . S
C434 C450 1.377 . S
C435 C433 1.389 . S
C435 C436 1.524 1_545 S
C435 C449 1.377 . S
C436 C435 1.524 1_565 S
C436 C437 1.397 . S
C436 C441 1.363 . S
C437 H414 0.950 . S
C437 C436 1.397 . S
C437 C438 1.334 . S
C438 H415 0.950 . S
C438 C437 1.334 . S
C438 C439 1.287 . S
C439 C438 1.287 . S
C439 C440 1.524 . S
C439 H458 0.913 . S
C440 H416 0.950 . S
C440 C439 1.524 . S
C440 C441 1.415 . S
C441 H417 0.950 . S
C441 C436 1.363 . S
C441 C440 1.415 . S
C442 H418 0.951 1_455 S
C442 C443 1.366 . S
C442 C444 1.388 . S
C443 C442 1.366 . S
C443 C447 1.385 . S
C444 H419 0.959 . S
C444 C442 1.388 . S
C444 C445 1.366 . S
C445 C444 1.366 . S
C445 C446 1.414 . S
C445 C448 1.499 . S
C446 H420 0.950 . S
C446 C445 1.414 . S
C446 C447 1.374 . S
C447 H421 0.952 . S
C447 C443 1.385 . S
C447 C446 1.374 . S
C448 C445 1.499 . S
C448 C449 1.373 . S
C448 C450 1.389 . S
C449 H422 0.950 1_545 S
C449 C435 1.377 . S
C449 C448 1.373 . S
C450 C434 1.377 . S
C450 C448 1.389 . S
C450 C451 1.524 . S
C451 C450 1.524 . S
C451 C452 1.397 . S
C451 C456 1.363 . S
C452 H423 0.950 . S
C452 C451 1.397 . S
C452 C453 1.334 . S
C453 H424 0.950 . S
C453 C452 1.334 . S
C453 C454 1.287 . S
C454 C453 1.287 . S
C454 C455 1.524 . S
C454 H457 0.999 . S
C455 H425 0.950 . S
C455 C454 1.524 . S
C455 C456 1.415 . S
C456 H426 0.950 . S
C456 C451 1.363 . S
C456 C455 1.415 . S
H457 C454 0.999 . S
H458 C439 0.913 . S
C178 C38 1.501 . S
C193 C39 1.511 1_545 S
C228 C91 1.507 1_565 S
C243 C92 1.507 . S
C278 C144 1.503 . S
C293 C145 1.503 . S
C328 C75 1.690 . S
C343 C29 1.691 1_545 S
C378 C128 1.687 . S
C393 C82 1.686 . S
C428 C135 1.718 . S
C443 C22 1.715 . S
