# Generated by pormake.
# Topology bcu-h, (3)-cn, num edge types: 1
# Building blocks:
#     Node 0, Type 0, BuildingBlock: OLANEW_clean_sbu_2, # of connection points: 3
#     Node 1, Type 0, BuildingBlock: OLANEW_clean_sbu_2, # of connection points: 3
#     Node 2, Type 0, BuildingBlock: OLANEW_clean_sbu_2, # of connection points: 3
#     Node 3, Type 0, BuildingBlock: OLANEW_clean_sbu_2, # of connection points: 3
#     Node 4, Type 0, BuildingBlock: OLANEW_clean_sbu_2, # of connection points: 3
#     Node 5, Type 0, BuildingBlock: OLANEW_clean_sbu_2, # of connection points: 3
#     Node 6, Type 0, BuildingBlock: OLANEW_clean_sbu_2, # of connection points: 3
#     Node 7, Type 0, BuildingBlock: OLANEW_clean_sbu_2, # of connection points: 3
#     Node 8, Type 0, BuildingBlock: OLANEW_clean_sbu_2, # of connection points: 3
#     Node 9, Type 0, BuildingBlock: OLANEW_clean_sbu_2, # of connection points: 3
#     Node 10, Type 0, BuildingBlock: OLANEW_clean_sbu_2, # of connection points: 3
#     Node 11, Type 0, BuildingBlock: OLANEW_clean_sbu_2, # of connection points: 3
#     Node 12, Type 0, BuildingBlock: OLANEW_clean_sbu_2, # of connection points: 3
#     Node 13, Type 0, BuildingBlock: OLANEW_clean_sbu_2, # of connection points: 3
#     Node 14, Type 0, BuildingBlock: OLANEW_clean_sbu_2, # of connection points: 3
#     Node 15, Type 0, BuildingBlock: OLANEW_clean_sbu_2, # of connection points: 3
#     Edge 16, Type (0, 0), BuildingBlock: TEMPAE_clean_linker_10, # of connection points: 2
#     Edge 17, Type (0, 0), BuildingBlock: TEMPAE_clean_linker_10, # of connection points: 2
#     Edge 18, Type (0, 0), BuildingBlock: TEMPAE_clean_linker_10, # of connection points: 2
#     Edge 19, Type (0, 0), BuildingBlock: TEMPAE_clean_linker_10, # of connection points: 2
#     Edge 20, Type (0, 0), BuildingBlock: TEMPAE_clean_linker_10, # of connection points: 2
#     Edge 21, Type (0, 0), BuildingBlock: TEMPAE_clean_linker_10, # of connection points: 2
#     Edge 22, Type (0, 0), BuildingBlock: TEMPAE_clean_linker_10, # of connection points: 2
#     Edge 23, Type (0, 0), BuildingBlock: TEMPAE_clean_linker_10, # of connection points: 2
#     Edge 24, Type (0, 0), BuildingBlock: TEMPAE_clean_linker_10, # of connection points: 2
#     Edge 25, Type (0, 0), BuildingBlock: TEMPAE_clean_linker_10, # of connection points: 2
#     Edge 26, Type (0, 0), BuildingBlock: TEMPAE_clean_linker_10, # of connection points: 2
#     Edge 27, Type (0, 0), BuildingBlock: TEMPAE_clean_linker_10, # of connection points: 2
#     Edge 28, Type (0, 0), BuildingBlock: TEMPAE_clean_linker_10, # of connection points: 2
#     Edge 29, Type (0, 0), BuildingBlock: TEMPAE_clean_linker_10, # of connection points: 2
#     Edge 30, Type (0, 0), BuildingBlock: TEMPAE_clean_linker_10, # of connection points: 2
#     Edge 31, Type (0, 0), BuildingBlock: TEMPAE_clean_linker_10, # of connection points: 2
#     Edge 32, Type (0, 0), BuildingBlock: TEMPAE_clean_linker_10, # of connection points: 2
#     Edge 33, Type (0, 0), BuildingBlock: TEMPAE_clean_linker_10, # of connection points: 2
#     Edge 34, Type (0, 0), BuildingBlock: TEMPAE_clean_linker_10, # of connection points: 2
#     Edge 35, Type (0, 0), BuildingBlock: TEMPAE_clean_linker_10, # of connection points: 2
#     Edge 36, Type (0, 0), BuildingBlock: TEMPAE_clean_linker_10, # of connection points: 2
#     Edge 37, Type (0, 0), BuildingBlock: TEMPAE_clean_linker_10, # of connection points: 2
#     Edge 38, Type (0, 0), BuildingBlock: TEMPAE_clean_linker_10, # of connection points: 2
#     Edge 39, Type (0, 0), BuildingBlock: TEMPAE_clean_linker_10, # of connection points: 2
# Relax obj value: 0.003
# Max RMSD: 0.058
# Mean RMSD: 0.058
data_MOF--net-bcu-h--node1-OLANEW_clean_sbu_2--edge1-TEMPAE_clean_linker_10
_symmetry_space_group_name_H-M    P1
_symmetry_Int_Tables_number       1
_symmetry_cell_setting            triclinic
loop_
_symmetry_equiv_pos_as_xyz
'x, y, z'
_cell_length_a     58.694812
_cell_length_b     58.676168
_cell_length_c     46.932433
_cell_angle_alpha  89.996737
_cell_angle_beta   89.988377
_cell_angle_gamma 89.988865
loop_
_atom_site_label
_atom_site_type_symbol
_atom_site_fract_x
_atom_site_fract_y
_atom_site_fract_z
_atom_type_partial_charge
O0 O 0.62242 0.02634 0.15531 0.0
Cd1 Cd 0.64309 0.01771 0.11132 0.0
O2 O 0.6305 0.06272 0.15035 0.0
Cd3 Cd 0.65697 0.05765 0.11833 0.0
O4 O 0.69251 0.05882 0.10465 0.0
C5 C 0.70367 0.07634 0.11233 0.0
O6 O 0.69295 0.09249 0.12637 0.0
C7 C 0.61995 0.04689 0.16335 0.0
C8 C 0.61443 0.99659 0.07203 0.0
O9 O 0.62918 0.98495 0.08594 0.0
O10 O 0.61337 0.0181 0.07644 0.0
O11 O 0.47488 0.58243 0.65081 0.0
Cd12 Cd 0.49038 0.60673 0.61312 0.0
O13 O 0.43951 0.58745 0.63672 0.0
Cd14 Cd 0.44808 0.61506 0.60748 0.0
O15 O 0.44721 0.65151 0.59804 0.0
C16 C 0.42894 0.66178 0.60494 0.0
O17 O 0.41208 0.64979 0.61567 0.0
C18 C 0.45378 0.5779 0.65326 0.0
C19 C 0.51394 0.58166 0.572 0.0
O20 O 0.52406 0.58933 0.59422 0.0
O21 O 0.49262 0.58583 0.56922 0.0
O22 O 0.9049 0.50065 0.17079 0.0
Cd23 Cd 0.87992 0.51708 0.13442 0.0
O24 O 0.89685 0.46558 0.15775 0.0
Cd25 Cd 0.86846 0.47557 0.13047 0.0
O26 O 0.83175 0.47651 0.12298 0.0
C27 C 0.8194 0.48464 0.14277 0.0
O28 O 0.82939 0.4932 0.16543 0.0
C29 C 0.90812 0.47931 0.17326 0.0
C30 C 0.90446 0.5356 0.08894 0.0
O31 O 0.89914 0.5477 0.11069 0.0
O32 O 0.89819 0.51467 0.0887 0.0
O33 O 0.99035 0.88106 0.66128 0.0
Cd34 Cd 0.97451 0.85919 0.6216 0.0
O35 O 0.02543 0.8706 0.65125 0.0
Cd36 Cd 0.01585 0.84406 0.62094 0.0
O37 O 0.01841 0.80803 0.60956 0.0
C38 C 0.03624 0.79819 0.61879 0.0
O39 O 0.05127 0.81035 0.6329 0.0
C40 C 0.01163 0.88241 0.66604 0.0
C41 C 0.95892 0.88809 0.5785 0.0
O42 O 0.94585 0.88193 0.59899 0.0
O43 O 0.97939 0.88046 0.57829 0.0
O44 O 0.09252 0.97196 0.83929 0.0
Cd45 Cd 0.1186 0.9859 0.87604 0.0
O46 O 0.09454 0.93653 0.85436 0.0
Cd47 Cd 0.1226 0.94357 0.88351 0.0
O48 O 0.15881 0.94394 0.89412 0.0
C49 C 0.17195 0.95541 0.87806 0.0
O50 O 0.16299 0.96735 0.85719 0.0
C51 C 0.08617 0.95128 0.83747 0.0
C52 C 0.09606 0.00906 0.91969 0.0
O53 O 0.10339 0.0196 0.89758 0.0
O54 O 0.09933 0.98749 0.9211 0.0
O55 O 0.51541 0.1094 0.33436 0.0
Cd56 Cd 0.49657 0.13144 0.37181 0.0
O57 O 0.54874 0.11054 0.35567 0.0
Cd58 Cd 0.53788 0.13716 0.38515 0.0
O59 O 0.53808 0.17367 0.39429 0.0
C60 C 0.55327 0.18467 0.38072 0.0
O61 O 0.56704 0.17334 0.36377 0.0
C62 C 0.5362 0.10334 0.33549 0.0
C63 C 0.47963 0.10273 0.41423 0.0
O64 O 0.46762 0.1079 0.39236 0.0
O65 O 0.49966 0.11129 0.41617 0.0
O66 O 0.37959 0.49906 0.84016 0.0
Cd67 Cd 0.36044 0.49117 0.88544 0.0
O68 O 0.37225 0.53557 0.84554 0.0
Cd69 Cd 0.34618 0.5311 0.87822 0.0
O70 O 0.31044 0.53481 0.89041 0.0
C71 C 0.29946 0.54942 0.87586 0.0
O72 O 0.3104 0.56093 0.8561 0.0
C73 C 0.38216 0.51959 0.83205 0.0
C74 C 0.39083 0.47238 0.9246 0.0
O75 O 0.37615 0.45979 0.91193 0.0
O76 O 0.39104 0.49373 0.919 0.0
O77 O 0.00288 0.39825 0.34297 0.0
Cd78 Cd 0.01796 0.37392 0.38087 0.0
O79 O 0.96737 0.39141 0.35524 0.0
Cd80 Cd 0.97574 0.36373 0.38453 0.0
O81 O 0.97351 0.32783 0.39663 0.0
C82 C 0.95536 0.31775 0.38889 0.0
O83 O 0.93962 0.32962 0.3756 0.0
C84 C 0.98169 0.40191 0.3397 0.0
C85 C 0.03671 0.39963 0.42513 0.0
O86 O 0.04885 0.3932 0.40389 0.0
O87 O 0.01565 0.39385 0.42547 0.0
O88 O 0.46085 0.9071 0.86408 0.0
Cd89 Cd 0.46054 0.90563 0.91618 0.0
O90 O 0.42437 0.91077 0.8716 0.0
Cd91 Cd 0.38786 0.91393 0.86292 0.0
O92 O 0.35103 0.91911 0.86243 0.0
C93 C 0.34231 0.93292 0.88023 0.0
O94 O 0.35579 0.94371 0.89804 0.0
C95 C 0.44094 0.90997 0.85409 0.0
C96 C 0.49877 0.92311 0.94367 0.0
O97 O 0.4959 0.90154 0.94129 0.0
O98 O 0.48392 0.93639 0.9325 0.0
O99 O 0.62233 0.45951 0.34592 0.0
Cd100 Cd 0.63672 0.46979 0.39311 0.0
O101 O 0.60074 0.4329 0.36458 0.0
Cd102 Cd 0.57949 0.40236 0.36216 0.0
O103 O 0.56739 0.3672 0.36467 0.0
C104 C 0.57454 0.35505 0.38524 0.0
O105 O 0.58817 0.36435 0.40416 0.0
C106 C 0.60813 0.44337 0.34274 0.0
C107 C 0.60598 0.49348 0.42753 0.0
O108 O 0.61915 0.50404 0.41018 0.0
O109 O 0.60704 0.47166 0.42817 0.0
O110 O 0.02557 0.62067 0.84524 0.0
Cd111 Cd 0.01272 0.63913 0.88917 0.0
O112 O 0.05091 0.60095 0.8692 0.0
Cd113 Cd 0.08171 0.58003 0.87107 0.0
O114 O 0.11689 0.56794 0.87283 0.0
C115 C 0.13036 0.57734 0.89049 0.0
O116 O 0.1224 0.59335 0.90734 0.0
C117 C 0.04183 0.60639 0.84557 0.0
C118 C 0.98993 0.61121 0.92803 0.0
O119 O 0.97906 0.62186 0.90842 0.0
O120 O 0.01166 0.61332 0.92879 0.0
O121 O 0.89319 0.03687 0.3508 0.0
Cd122 Cd 0.87356 0.02662 0.39499 0.0
O123 O 0.90548 0.06792 0.37151 0.0
Cd124 Cd 0.92337 0.1005 0.37659 0.0
O125 O 0.93483 0.1359 0.37842 0.0
C126 C 0.93034 0.14801 0.40017 0.0
O127 O 0.91935 0.13868 0.4216 0.0
C128 C 0.90402 0.05559 0.34924 0.0
C129 C 0.89681 0.99631 0.43045 0.0
O130 O 0.88367 0.98906 0.41061 0.0
O131 O 0.89935 0.01791 0.43308 0.0
O132 O 0.98715 0.11458 0.15829 0.0
Cd133 Cd 0.00144 0.13126 0.11399 0.0
O134 O 0.95611 0.10441 0.13588 0.0
Cd135 Cd 0.92229 0.08949 0.12928 0.0
O136 O 0.88604 0.08151 0.12608 0.0
C137 C 0.87481 0.08769 0.10424 0.0
O138 O 0.88551 0.09827 0.0835 0.0
C139 C 0.96746 0.10559 0.15897 0.0
C140 C 0.02064 0.10032 0.07573 0.0
O141 O 0.03278 0.11 0.09494 0.0
O142 O 0.99929 0.10493 0.07501 0.0
O143 O 0.40634 0.95323 0.63745 0.0
Cd144 Cd 0.39089 0.96007 0.58981 0.0
O145 O 0.40663 0.91693 0.62675 0.0
Cd146 Cd 0.41308 0.88055 0.63321 0.0
O147 O 0.41833 0.84368 0.63202 0.0
C148 C 0.41499 0.83319 0.60869 0.0
O149 O 0.40853 0.84489 0.58622 0.0
C150 C 0.40996 0.93271 0.64487 0.0
C151 C 0.41444 0.99199 0.55703 0.0
O152 O 0.39862 0.99818 0.57422 0.0
O153 O 0.41944 0.97074 0.55585 0.0
O154 O 0.55135 0.39428 0.13147 0.0
Cd155 Cd 0.55063 0.39056 0.07955 0.0
O156 O 0.57525 0.4216 0.12094 0.0
Cd157 Cd 0.60238 0.44563 0.13154 0.0
O158 O 0.63651 0.46011 0.13503 0.0
C159 C 0.65168 0.44814 0.14723 0.0
O160 O 0.64584 0.42837 0.15818 0.0
C161 C 0.56483 0.4099 0.13964 0.0
C162 C 0.51157 0.40645 0.05229 0.0
O163 O 0.5148 0.38505 0.05591 0.0
O164 O 0.52646 0.42035 0.06211 0.0
O165 O 0.12014 0.52975 0.66171 0.0
Cd166 Cd 0.13892 0.5169 0.618 0.0
O167 O 0.09852 0.55325 0.63735 0.0
Cd168 Cd 0.07562 0.5826 0.63497 0.0
O169 O 0.06156 0.61704 0.63253 0.0
C170 C 0.06606 0.62918 0.61081 0.0
O171 O 0.07831 0.6203 0.59017 0.0
C172 C 0.10482 0.54505 0.66115 0.0
C173 C 0.11175 0.49201 0.58038 0.0
O174 O 0.12294 0.48209 0.6003 0.0
O175 O 0.11299 0.51379 0.5787 0.0
C176 C 0.52463 0.92183 0.98564 0.0
C177 C 0.51788 0.93248 0.96031 0.0
C178 C 0.5411 0.93179 0.00337 0.0
C179 C 0.55167 0.95242 0.99493 0.0
C180 C 0.54568 0.96262 0.96862 0.0
C181 C 0.52847 0.95278 0.9519 0.0
C182 C 0.5464 0.92081 0.03171 0.0
C183 C 0.55717 0.98414 0.95837 0.0
C184 C 0.57568 0.9919 0.05154 0.0
C185 C 0.59864 0.98548 0.05201 0.0
C186 C 0.56015 0.981 0.03337 0.0
C187 C 0.56803 0.96397 0.01437 0.0
C188 C 0.59138 0.95786 0.01426 0.0
C189 C 0.60635 0.96836 0.03359 0.0
C190 C 0.53526 0.98743 0.03488 0.0
C191 C 0.60058 0.94044 0.99357 0.0
H192 H 0.51623 0.90624 0.99225 0.0
H193 H 0.5233 0.96091 0.93219 0.0
H194 H 0.5649 0.91725 0.03345 0.0
H195 H 0.54191 0.9327 0.04923 0.0
H196 H 0.53693 0.90462 0.03489 0.0
H197 H 0.55235 0.98848 0.93613 0.0
H198 H 0.55241 0.9986 0.97235 0.0
H199 H 0.57596 0.98225 0.95951 0.0
H200 H 0.56974 0.00503 0.06602 0.0
H201 H 0.62419 0.96357 0.03387 0.0
H202 H 0.52482 0.97205 0.03925 0.0
H203 H 0.52957 0.99444 0.01414 0.0
H204 H 0.53179 0.00028 0.05172 0.0
H205 H 0.59257 0.92363 0.99755 0.0
H206 H 0.61936 0.93851 0.99521 0.0
H207 H 0.59621 0.94546 0.97143 0.0
C208 C 0.5157 0.56124 0.52511 0.0
C209 C 0.52657 0.56845 0.55017 0.0
C210 C 0.52758 0.54889 0.5042 0.0
C211 C 0.55084 0.54355 0.50851 0.0
C212 C 0.56187 0.55068 0.53381 0.0
C213 C 0.54962 0.56307 0.5543 0.0
C214 C 0.51526 0.54164 0.47745 0.0
C215 C 0.58665 0.54525 0.53924 0.0
C216 C 0.57817 0.49457 0.46799 0.0
C217 C 0.59068 0.50616 0.44704 0.0
C218 C 0.56477 0.50649 0.48781 0.0
C219 C 0.56378 0.53058 0.48656 0.0
C220 C 0.57589 0.54234 0.465 0.0
C221 C 0.58923 0.53 0.44555 0.0
C222 C 0.55213 0.49335 0.51051 0.0
C223 C 0.57514 0.56801 0.46287 0.0
H224 H 0.4979 0.56534 0.52174 0.0
H225 H 0.55815 0.56854 0.5736 0.0
H226 H 0.52384 0.54898 0.45849 0.0
H227 H 0.51593 0.52282 0.47525 0.0
H228 H 0.49714 0.54709 0.47737 0.0
H229 H 0.59265 0.55185 0.56011 0.0
H230 H 0.58932 0.52653 0.53873 0.0
H231 H 0.59737 0.55274 0.52217 0.0
H232 H 0.57918 0.47615 0.46931 0.0
H233 H 0.59878 0.53909 0.42937 0.0
H234 H 0.53376 0.49778 0.51007 0.0
H235 H 0.55871 0.49812 0.53186 0.0
H236 H 0.5539 0.47462 0.50785 0.0
H237 H 0.55723 0.57395 0.46149 0.0
H238 H 0.58461 0.5745 0.44405 0.0
H239 H 0.58263 0.57566 0.48235 0.0
C240 C 0.95376 0.59665 0.94974 0.0
C241 C 0.97764 0.5978 0.94997 0.0
C242 C 0.94181 0.58547 0.97156 0.0
C243 C 0.95401 0.57518 0.99418 0.0
C244 C 0.97813 0.57571 0.99412 0.0
C245 C 0.98965 0.58702 0.97203 0.0
C246 C 0.91609 0.58523 0.97083 0.0
C247 C 0.99175 0.56486 0.01781 0.0
C248 C 0.92364 0.56863 0.0652 0.0
C249 C 0.91734 0.54557 0.06478 0.0
C250 C 0.93563 0.57842 0.04241 0.0
C251 C 0.94152 0.56484 0.01858 0.0
C252 C 0.93532 0.54153 0.01805 0.0
C253 C 0.92328 0.53217 0.04114 0.0
C254 C 0.94193 0.60336 0.04378 0.0
C255 C 0.94132 0.5265 0.99303 0.0
H256 H 0.94433 0.60488 0.93276 0.0
H257 H 0.0081 0.58777 0.97236 0.0
H258 H 0.9097 0.56749 0.9725 0.0
H259 H 0.90928 0.59478 0.98938 0.0
H260 H 0.90919 0.59298 0.95104 0.0
H261 H 0.01039 0.56568 0.01383 0.0
H262 H 0.98805 0.57364 0.03824 0.0
H263 H 0.98675 0.54675 0.02043 0.0
H264 H 0.91913 0.57912 0.08336 0.0
H265 H 0.91851 0.51433 0.04064 0.0
H266 H 0.93416 0.6126 0.02559 0.0
H267 H 0.96067 0.60534 0.04197 0.0
H268 H 0.93621 0.61153 0.0639 0.0
H269 H 0.9335 0.53337 0.9733 0.0
H270 H 0.93546 0.50866 0.99601 0.0
H271 H 0.96004 0.52641 0.98975 0.0
C272 C 0.92859 0.91286 0.55738 0.0
C273 C 0.95063 0.90368 0.5559 0.0
C274 C 0.92055 0.92785 0.53636 0.0
C275 C 0.93485 0.93376 0.51321 0.0
C276 C 0.95707 0.92449 0.51149 0.0
C277 C 0.96472 0.90959 0.53289 0.0
C278 C 0.89676 0.93743 0.53899 0.0
C279 C 0.97278 0.93034 0.48708 0.0
C280 C 0.9053 0.95664 0.44708 0.0
C281 C 0.90792 0.98025 0.45051 0.0
C282 C 0.91447 0.94128 0.46696 0.0
C283 C 0.92647 0.94973 0.4909 0.0
C284 C 0.92963 0.97351 0.49413 0.0
C285 C 0.92036 0.98848 0.47387 0.0
C286 C 0.91087 0.91603 0.46268 0.0
C287 C 0.94229 0.98318 0.51939 0.0
H288 H 0.9176 0.90843 0.57509 0.0
H289 H 0.98177 0.90256 0.53156 0.0
H290 H 0.89746 0.95632 0.53987 0.0
H291 H 0.88656 0.93276 0.51997 0.0
H292 H 0.88779 0.93115 0.5583 0.0
H293 H 0.98949 0.92154 0.48873 0.0
H294 H 0.96471 0.92555 0.46655 0.0
H295 H 0.97578 0.94899 0.48648 0.0
H296 H 0.89578 0.95012 0.42905 0.0
H297 H 0.92247 0.00669 0.47669 0.0
H298 H 0.9004 0.90911 0.48036 0.0
H299 H 0.92746 0.90697 0.46312 0.0
H300 H 0.9022 0.91216 0.44221 0.0
H301 H 0.93309 0.97886 0.53933 0.0
H302 H 0.94412 0.002 0.51815 0.0
H303 H 0.95951 0.97547 0.52088 0.0
C304 C 0.0765 0.00987 0.96718 0.0
C305 C 0.08437 0.02151 0.94298 0.0
C306 C 0.06569 0.02156 0.98954 0.0
C307 C 0.0627 0.04546 0.98765 0.0
C308 C 0.07049 0.05727 0.96321 0.0
C309 C 0.08122 0.04516 0.94119 0.0
C310 C 0.05759 0.00838 0.01525 0.0
C311 C 0.06761 0.08276 0.9604 0.0
C312 C 0.01785 0.07531 0.0326 0.0
C313 C 0.03114 0.08501 0.05429 0.0
C314 C 0.02782 0.06197 0.01111 0.0
C315 C 0.05165 0.05824 0.01131 0.0
C316 C 0.06508 0.0675 0.03353 0.0
C317 C 0.05466 0.08077 0.05475 0.0
C318 C 0.01294 0.05233 0.9878 0.0
C319 C 0.09054 0.06385 0.03453 0.0
H320 H 0.07885 0.99159 0.96874 0.0
H321 H 0.08723 0.0543 0.92258 0.0
H322 H 0.06623 0.01478 0.03469 0.0
H323 H 0.03903 0.011 0.01831 0.0
H324 H 0.06094 0.98982 0.01328 0.0
H325 H 0.0744 0.08936 0.9399 0.0
H326 H 0.04931 0.08732 0.96192 0.0
H327 H 0.07653 0.09151 0.97813 0.0
H328 H 0.99966 0.07845 0.0321 0.0
H329 H 0.06506 0.08815 0.07145 0.0
H330 H 0.01537 0.03362 0.98623 0.0
H331 H 0.01793 0.05976 0.96699 0.0
H332 H 0.99457 0.05587 0.99145 0.0
H333 H 0.09449 0.04537 0.03396 0.0
H334 H 0.09839 0.07135 0.05391 0.0
H335 H 0.09858 0.07169 0.0155 0.0
C336 C 0.44081 0.00135 0.51678 0.0
C337 C 0.42585 0.00874 0.53819 0.0
C338 C 0.45045 0.01684 0.49743 0.0
C339 C 0.44511 0.0403 0.49965 0.0
C340 C 0.43058 0.04797 0.52174 0.0
C341 C 0.42106 0.03208 0.54068 0.0
C342 C 0.46582 0.008 0.4741 0.0
C343 C 0.42465 0.07288 0.52494 0.0
C344 C 0.4833 0.08269 0.46119 0.0
C345 C 0.4707 0.0871 0.43639 0.0
C346 C 0.47512 0.06765 0.48212 0.0
C347 C 0.45389 0.05667 0.47805 0.0
C348 C 0.44107 0.06111 0.45311 0.0
C349 C 0.44959 0.07631 0.43264 0.0
C350 C 0.4892 0.06345 0.50852 0.0
C351 C 0.4184 0.04964 0.44793 0.0
H352 H 0.44461 0.98335 0.51469 0.0
H353 H 0.40959 0.03795 0.55723 0.0
H354 H 0.45795 0.01135 0.45302 0.0
H355 H 0.48239 0.01709 0.47454 0.0
H356 H 0.46907 0.98941 0.47605 0.0
H357 H 0.41418 0.07623 0.54421 0.0
H358 H 0.44041 0.08326 0.5262 0.0
H359 H 0.41503 0.07874 0.50595 0.0
H360 H 0.49961 0.091 0.46429 0.0
H361 H 0.43975 0.07958 0.41353 0.0
H362 H 0.49375 0.04513 0.50996 0.0
H363 H 0.47914 0.0677 0.52781 0.0
H364 H 0.50514 0.07365 0.50872 0.0
H365 H 0.42064 0.03087 0.44762 0.0
H366 H 0.4105 0.055 0.42749 0.0
H367 H 0.40645 0.05368 0.46554 0.0
C368 C 0.48489 0.40325 0.01129 0.0
C369 C 0.49194 0.41489 0.03579 0.0
C370 C 0.46778 0.41223 0.99367 0.0
C371 C 0.45688 0.43286 0.00142 0.0
C372 C 0.46325 0.4441 0.02692 0.0
C373 C 0.48109 0.43523 0.04349 0.0
C374 C 0.46208 0.40016 0.96616 0.0
C375 C 0.45146 0.46566 0.03648 0.0
C376 C 0.43022 0.4696 0.94374 0.0
C377 C 0.40747 0.46249 0.94457 0.0
C378 C 0.44654 0.45983 0.96186 0.0
C379 C 0.43968 0.44328 0.9821 0.0
C380 C 0.41654 0.43651 0.98351 0.0
C381 C 0.40077 0.44585 0.96425 0.0
C382 C 0.47117 0.46691 0.95894 0.0
C383 C 0.40842 0.4196 0.00552 0.0
H384 H 0.4935 0.38763 0.00522 0.0
H385 H 0.4865 0.44414 0.06257 0.0
H386 H 0.44368 0.39596 0.96542 0.0
H387 H 0.46569 0.41159 0.94786 0.0
H388 H 0.472 0.38418 0.96338 0.0
H389 H 0.45677 0.47093 0.05823 0.0
H390 H 0.45541 0.47972 0.0215 0.0
H391 H 0.4327 0.46323 0.0363 0.0
H392 H 0.43537 0.48235 0.92831 0.0
H393 H 0.38309 0.44053 0.96497 0.0
H394 H 0.48195 0.4517 0.95493 0.0
H395 H 0.4772 0.47477 0.97905 0.0
H396 H 0.4738 0.47927 0.94132 0.0
H397 H 0.41677 0.40287 0.00208 0.0
H398 H 0.38966 0.41712 0.00484 0.0
H399 H 0.41326 0.42549 0.02716 0.0
C400 C 0.08768 0.48959 0.53641 0.0
C401 C 0.09864 0.47864 0.55918 0.0
C402 C 0.07656 0.47702 0.51508 0.0
C403 C 0.07636 0.45293 0.51657 0.0
C404 C 0.08686 0.44179 0.53989 0.0
C405 C 0.09788 0.45477 0.5609 0.0
C406 C 0.06552 0.48952 0.49057 0.0
C407 C 0.08694 0.41612 0.54228 0.0
C408 C 0.03341 0.42007 0.47187 0.0
C409 C 0.04675 0.41331 0.44854 0.0
C410 C 0.04279 0.433 0.49418 0.0
C411 C 0.06605 0.43932 0.4931 0.0
C412 C 0.07958 0.43258 0.46958 0.0
C413 C 0.06978 0.41966 0.44761 0.0
C414 C 0.02783 0.43986 0.51891 0.0
C415 C 0.10445 0.43901 0.46764 0.0
H416 H 0.08814 0.50802 0.53492 0.0
H417 H 0.10625 0.44616 0.57844 0.0
H418 H 0.07422 0.48497 0.47036 0.0
H419 H 0.04744 0.48429 0.48844 0.0
H420 H 0.06622 0.50832 0.49324 0.0
H421 H 0.09487 0.41014 0.56243 0.0
H422 H 0.06927 0.40947 0.54118 0.0
H423 H 0.09647 0.40867 0.52411 0.0
H424 H 0.0156 0.41524 0.47277 0.0
H425 H 0.08022 0.41454 0.42967 0.0
H426 H 0.0275 0.45869 0.52092 0.0
H427 H 0.03493 0.43299 0.53907 0.0
H428 H 0.01006 0.43363 0.51651 0.0
H429 H 0.10629 0.45782 0.46818 0.0
H430 H 0.1126 0.43251 0.44788 0.0
H431 H 0.11383 0.4321 0.48626 0.0
C432 C 0.602 0.07547 0.19579 0.0
C433 C 0.60547 0.05259 0.18826 0.0
C434 C 0.58939 0.08138 0.22002 0.0
C435 C 0.57997 0.06399 0.2373 0.0
C436 C 0.58295 0.04086 0.22958 0.0
C437 C 0.59566 0.03541 0.2051 0.0
C438 C 0.58652 0.10628 0.22744 0.0
C439 C 0.57313 0.02189 0.24749 0.0
C440 C 0.56943 0.08348 0.31309 0.0
C441 C 0.5464 0.08987 0.31198 0.0
C442 C 0.58025 0.07372 0.2894 0.0
C443 C 0.56778 0.07032 0.26394 0.0
C444 C 0.54421 0.07542 0.26323 0.0
C445 C 0.53379 0.08511 0.28728 0.0
C446 C 0.60538 0.06834 0.29109 0.0
C447 C 0.53031 0.07196 0.23651 0.0
H448 H 0.60939 0.08889 0.18287 0.0
H449 H 0.59823 0.01769 0.19944 0.0
H450 H 0.56816 0.11052 0.22938 0.0
H451 H 0.59456 0.10984 0.24836 0.0
H452 H 0.59426 0.11772 0.21125 0.0
H453 H 0.57588 0.00485 0.23775 0.0
H454 H 0.58113 0.02204 0.26891 0.0
H455 H 0.55458 0.02452 0.25059 0.0
H456 H 0.57928 0.08688 0.33215 0.0
H457 H 0.51596 0.08987 0.28624 0.0
H458 H 0.61501 0.08047 0.27753 0.0
H459 H 0.60879 0.05095 0.28288 0.0
H460 H 0.612 0.06956 0.31321 0.0
H461 H 0.53557 0.08459 0.2202 0.0
H462 H 0.51176 0.074 0.24047 0.0
H463 H 0.5334 0.05476 0.22748 0.0
C464 C 0.4002 0.54795 0.79947 0.0
C465 C 0.39572 0.52511 0.80629 0.0
C466 C 0.41139 0.55384 0.77415 0.0
C467 C 0.41824 0.53649 0.75503 0.0
C468 C 0.41447 0.51335 0.76215 0.0
C469 C 0.40327 0.50791 0.78776 0.0
C470 C 0.41523 0.57875 0.76749 0.0
C471 C 0.42159 0.4944 0.7423 0.0
C472 C 0.42225 0.55819 0.67927 0.0
C473 C 0.44547 0.56356 0.67712 0.0
C474 C 0.41339 0.54793 0.70388 0.0
C475 C 0.4281 0.54297 0.72697 0.0
C476 C 0.45179 0.54691 0.7242 0.0
C477 C 0.46022 0.55713 0.69926 0.0
C478 C 0.38804 0.5438 0.70587 0.0
C479 C 0.46804 0.54176 0.74828 0.0
H480 H 0.39462 0.56136 0.81373 0.0
H481 H 0.39989 0.49021 0.79287 0.0
H482 H 0.4335 0.58188 0.76285 0.0
H483 H 0.40543 0.58355 0.74818 0.0
H484 H 0.40993 0.59007 0.78527 0.0
H485 H 0.4193 0.4773 0.75204 0.0
H486 H 0.4113 0.49522 0.72249 0.0
H487 H 0.43971 0.49645 0.73606 0.0
H488 H 0.41075 0.56285 0.66217 0.0
H489 H 0.47821 0.5611 0.69776 0.0
H490 H 0.38045 0.55592 0.72135 0.0
H491 H 0.38456 0.52633 0.71378 0.0
H492 H 0.37938 0.54607 0.68502 0.0
H493 H 0.46541 0.55427 0.7657 0.0
H494 H 0.48612 0.54268 0.74137 0.0
H495 H 0.46471 0.52457 0.7572 0.0
C496 C 0.95018 0.42223 0.31442 0.0
C497 C 0.97345 0.41702 0.31655 0.0
C498 C 0.94159 0.43438 0.29105 0.0
C499 C 0.95661 0.44144 0.26915 0.0
C500 C 0.98025 0.43712 0.27171 0.0
C501 C 0.98841 0.42499 0.29544 0.0
C502 C 0.91628 0.43881 0.28924 0.0
C503 C 0.99677 0.44441 0.24881 0.0
C504 C 0.92786 0.44676 0.19719 0.0
C505 C 0.92335 0.47022 0.19577 0.0
C506 C 0.93969 0.43736 0.22033 0.0
C507 C 0.94714 0.45172 0.2427 0.0
C508 C 0.94369 0.47555 0.24073 0.0
C509 C 0.93187 0.48454 0.21724 0.0
C510 C 0.94322 0.41187 0.22148 0.0
C511 C 0.95143 0.49142 0.26412 0.0
H512 H 0.9385 0.41632 0.33072 0.0
H513 H 0.00642 0.42108 0.29691 0.0
H514 H 0.91301 0.45716 0.28528 0.0
H515 H 0.90897 0.42919 0.27106 0.0
H516 H 0.90717 0.43368 0.30897 0.0
H517 H 0.01479 0.44187 0.25533 0.0
H518 H 0.9936 0.4344 0.22916 0.0
H519 H 0.9942 0.46264 0.24339 0.0
H520 H 0.92154 0.43558 0.1806 0.0
H521 H 0.92851 0.50269 0.21631 0.0
H522 H 0.93296 0.40456 0.23911 0.0
H523 H 0.96135 0.40786 0.22591 0.0
H524 H 0.93818 0.40334 0.20131 0.0
H525 H 0.94098 0.48847 0.28348 0.0
H526 H 0.94982 0.50962 0.25792 0.0
H527 H 0.96942 0.48793 0.26989 0.0
C528 C 0.04397 0.89882 0.69392 0.0
C529 C 0.02041 0.89636 0.68999 0.0
C530 C 0.05276 0.90988 0.71799 0.0
C531 C 0.03763 0.91868 0.73876 0.0
C532 C 0.01382 0.91712 0.73441 0.0
C533 C 0.00547 0.90599 0.71002 0.0
C534 C 0.07828 0.91136 0.72173 0.0
C535 C 0.99718 0.92635 0.75605 0.0
C536 C 0.06356 0.92115 0.8126 0.0
C537 C 0.07081 0.94389 0.81415 0.0
C538 C 0.05168 0.91302 0.78875 0.0
C539 C 0.04696 0.92799 0.76584 0.0
C540 C 0.05309 0.95126 0.76792 0.0
C541 C 0.06493 0.95895 0.79209 0.0
C542 C 0.04526 0.88812 0.78745 0.0
C543 C 0.04826 0.96775 0.74399 0.0
H544 H 0.05566 0.89161 0.67847 0.0
H545 H 0.98724 0.90421 0.70716 0.0
H546 H 0.08346 0.92924 0.72581 0.0
H547 H 0.08353 0.90112 0.7405 0.0
H548 H 0.08768 0.90501 0.70277 0.0
H549 H 0.97933 0.9258 0.74823 0.0
H550 H 0.99829 0.91616 0.77592 0.0
H551 H 0.00152 0.9442 0.76162 0.0
H552 H 0.06783 0.90942 0.82962 0.0
H553 H 0.07038 0.97658 0.79313 0.0
H554 H 0.05543 0.87951 0.77067 0.0
H555 H 0.02704 0.88621 0.78166 0.0
H556 H 0.0483 0.87923 0.80801 0.0
H557 H 0.0592 0.96354 0.72543 0.0
H558 H 0.05162 0.98569 0.75027 0.0
H559 H 0.03029 0.96627 0.73692 0.0
C560 C 0.45283 0.90264 0.8037 0.0
C561 C 0.43732 0.91229 0.82298 0.0
C562 C 0.44978 0.90496 0.77413 0.0
C563 C 0.43076 0.91721 0.76365 0.0
C564 C 0.41514 0.92709 0.78304 0.0
C565 C 0.41877 0.92473 0.81243 0.0
C566 C 0.46693 0.89438 0.75412 0.0
C567 C 0.39466 0.94034 0.77276 0.0
C568 C 0.43056 0.94315 0.6895 0.0
C569 C 0.41712 0.92756 0.67437 0.0
C570 C 0.4359 0.93954 0.71831 0.0
C571 C 0.42724 0.92005 0.73243 0.0
C572 C 0.41399 0.90403 0.71711 0.0
C573 C 0.40909 0.90799 0.68824 0.0
C574 C 0.45027 0.9569 0.73382 0.0
C575 C 0.40417 0.88322 0.73149 0.0
H576 H 0.46733 0.89317 0.81173 0.0
H577 H 0.40736 0.93319 0.8271 0.0
H578 H 0.45832 0.88201 0.73985 0.0
H579 H 0.47456 0.90775 0.74039 0.0
H580 H 0.48082 0.88545 0.76566 0.0
H581 H 0.38365 0.94617 0.79059 0.0
H582 H 0.40032 0.95548 0.7605 0.0
H583 H 0.38429 0.92966 0.7582 0.0
H584 H 0.43673 0.95834 0.67883 0.0
H585 H 0.39806 0.89629 0.67694 0.0
H586 H 0.46477 0.94838 0.74463 0.0
H587 H 0.43993 0.96535 0.75055 0.0
H588 H 0.45708 0.97019 0.71928 0.0
H589 H 0.41779 0.87359 0.74261 0.0
H590 H 0.39557 0.87163 0.71617 0.0
H591 H 0.3916 0.88855 0.74786 0.0
C592 C 0.57292 0.39525 0.18853 0.0
C593 C 0.56932 0.41371 0.17016 0.0
C594 C 0.57883 0.39883 0.2172 0.0
C595 C 0.58039 0.42138 0.22783 0.0
C596 C 0.57588 0.44003 0.2095 0.0
C597 C 0.57074 0.43596 0.18077 0.0
C598 C 0.58417 0.37855 0.23584 0.0
C599 C 0.57672 0.4643 0.22016 0.0
C600 C 0.57829 0.43143 0.30787 0.0
C601 C 0.60112 0.43647 0.31382 0.0
C602 C 0.57126 0.42631 0.27998 0.0
C603 C 0.5876 0.42563 0.25776 0.0
C604 C 0.61082 0.43001 0.26392 0.0
C605 C 0.61722 0.43577 0.29181 0.0
C606 C 0.54627 0.42244 0.2741 0.0
C607 C 0.62886 0.42885 0.241 0.0
H608 H 0.57194 0.37805 0.18019 0.0
H609 H 0.56765 0.4502 0.16656 0.0
H610 H 0.6021 0.37958 0.24325 0.0
H611 H 0.57319 0.37865 0.25507 0.0
H612 H 0.58174 0.36212 0.22449 0.0
H613 H 0.571 0.47671 0.20378 0.0
H614 H 0.5658 0.46619 0.23932 0.0
H615 H 0.59438 0.46869 0.22652 0.0
H616 H 0.5658 0.43232 0.32486 0.0
H617 H 0.63491 0.43957 0.29649 0.0
H618 H 0.5437 0.40568 0.26368 0.0
H619 H 0.53994 0.43567 0.25917 0.0
H620 H 0.53582 0.42303 0.29383 0.0
H621 H 0.62791 0.41225 0.22972 0.0
H622 H 0.64633 0.43095 0.24973 0.0
H623 H 0.62588 0.4424 0.22495 0.0
C624 C 0.05481 0.61193 0.79554 0.0
C625 C 0.05089 0.59729 0.81858 0.0
C626 C 0.06386 0.60365 0.76986 0.0
C627 C 0.06825 0.58003 0.76687 0.0
C628 C 0.06382 0.56511 0.78996 0.0
C629 C 0.05554 0.574 0.81574 0.0
C630 C 0.06907 0.62022 0.7461 0.0
C631 C 0.06758 0.53974 0.78731 0.0
C632 C 0.07193 0.55712 0.6912 0.0
C633 C 0.09544 0.55402 0.68803 0.0
C634 C 0.06279 0.56518 0.71696 0.0
C635 C 0.07762 0.57098 0.73965 0.0
C636 C 0.10145 0.56819 0.73629 0.0
C637 C 0.11004 0.55932 0.71067 0.0
C638 C 0.03726 0.56721 0.72003 0.0
C639 C 0.11788 0.57487 0.7596 0.0
H640 H 0.0513 0.62998 0.79788 0.0
H641 H 0.05222 0.56268 0.83352 0.0
H642 H 0.0873 0.61889 0.74002 0.0
H643 H 0.05887 0.61595 0.72695 0.0
H644 H 0.06539 0.63814 0.7522 0.0
H645 H 0.0623 0.53037 0.8068 0.0
H646 H 0.05782 0.533 0.7689 0.0
H647 H 0.08584 0.53615 0.78322 0.0
H648 H 0.06067 0.55273 0.67374 0.0
H649 H 0.12825 0.557 0.70806 0.0
H650 H 0.03246 0.58522 0.72392 0.0
H651 H 0.03142 0.55718 0.73871 0.0
H652 H 0.02807 0.5611 0.7008 0.0
H653 H 0.1153 0.59303 0.7654 0.0
H654 H 0.13594 0.57243 0.75318 0.0
H655 H 0.11461 0.56461 0.77901 0.0
C656 C 0.93469 0.09616 0.19139 0.0
C657 C 0.95823 0.09711 0.18644 0.0
C658 C 0.92596 0.0886 0.21759 0.0
C659 C 0.94115 0.08272 0.23984 0.0
C660 C 0.96494 0.08407 0.23522 0.0
C661 C 0.97318 0.09109 0.20853 0.0
C662 C 0.90046 0.08722 0.22155 0.0
C663 C 0.98168 0.07847 0.25862 0.0
C664 C 0.91759 0.08572 0.31518 0.0
C665 C 0.91427 0.06264 0.3217 0.0
C666 C 0.92689 0.09245 0.28894 0.0
C667 C 0.93213 0.07574 0.26818 0.0
C668 C 0.92834 0.05244 0.27433 0.0
C669 C 0.91961 0.04616 0.30107 0.0
C670 C 0.93084 0.11749 0.28333 0.0
C671 C 0.93319 0.03416 0.25251 0.0
H672 H 0.923 0.10206 0.17525 0.0
H673 H 0.99141 0.09203 0.20503 0.0
H674 H 0.8956 0.07012 0.22962 0.0
H675 H 0.89491 0.09989 0.23765 0.0
H676 H 0.89105 0.09051 0.20142 0.0
H677 H 0.99966 0.08039 0.2516 0.0
H678 H 0.97873 0.08983 0.27716 0.0
H679 H 0.97908 0.06071 0.26604 0.0
H680 H 0.91225 0.09866 0.33009 0.0
H681 H 0.91681 0.02829 0.30577 0.0
H682 H 0.9195 0.12338 0.26592 0.0
H683 H 0.94865 0.12037 0.27626 0.0
H684 H 0.92756 0.12813 0.30248 0.0
H685 H 0.92298 0.03733 0.23301 0.0
H686 H 0.92919 0.01681 0.26057 0.0
H687 H 0.9514 0.03467 0.24622 0.0
C688 C 0.83729 0.09178 0.0793 0.0
C689 C 0.84981 0.08425 0.10297 0.0
C690 C 0.81345 0.08987 0.07858 0.0
C691 C 0.80186 0.08021 0.10211 0.0
C692 C 0.81443 0.07204 0.12574 0.0
C693 C 0.83824 0.07414 0.12589 0.0
C694 C 0.80063 0.09872 0.05298 0.0
C695 C 0.80268 0.06163 0.15124 0.0
C696 C 0.74063 0.09712 0.11704 0.0
C697 C 0.7286 0.07786 0.10768 0.0
C698 C 0.76442 0.09827 0.11475 0.0
C699 C 0.77652 0.07973 0.10279 0.0
C700 C 0.76447 0.0605 0.09257 0.0
C701 C 0.74063 0.05979 0.09514 0.0
C702 C 0.77665 0.11913 0.12582 0.0
C703 C 0.77681 0.04045 0.07959 0.0
H704 H 0.84608 0.09955 0.06146 0.0
H705 H 0.84776 0.06822 0.14424 0.0
H706 H 0.78922 0.0853 0.0444 0.0
H707 H 0.7897 0.11328 0.0594 0.0
H708 H 0.81223 0.10448 0.03572 0.0
H709 H 0.81496 0.0551 0.16729 0.0
H710 H 0.79163 0.07455 0.16159 0.0
H711 H 0.79153 0.04738 0.14439 0.0
H712 H 0.73149 0.11121 0.12665 0.0
H713 H 0.73147 0.04486 0.0878 0.0
H714 H 0.78752 0.12654 0.10885 0.0
H715 H 0.78802 0.11426 0.14369 0.0
H716 H 0.76467 0.13246 0.13345 0.0
H717 H 0.78795 0.04625 0.06193 0.0
H718 H 0.76488 0.02735 0.07125 0.0
H719 H 0.78794 0.0324 0.09582 0.0
C720 C 0.4131 0.79654 0.58146 0.0
C721 C 0.41796 0.80814 0.6069 0.0
C722 C 0.41532 0.77276 0.5796 0.0
C723 C 0.42261 0.76027 0.60374 0.0
C724 C 0.42784 0.7719 0.62936 0.0
C725 C 0.42542 0.79568 0.63064 0.0
C726 C 0.40952 0.76095 0.55195 0.0
C727 C 0.4357 0.75917 0.65555 0.0
C728 C 0.40665 0.69782 0.61036 0.0
C729 C 0.42709 0.68692 0.6029 0.0
C730 C 0.40488 0.72165 0.61026 0.0
C731 C 0.42402 0.73497 0.60257 0.0
C732 C 0.44457 0.72411 0.59446 0.0
C733 C 0.44586 0.7002 0.59469 0.0
C734 C 0.38263 0.7326 0.61889 0.0
C735 C 0.46532 0.73776 0.5861 0.0
H736 H 0.40735 0.806 0.56299 0.0
H737 H 0.42927 0.80449 0.65036 0.0
H738 H 0.42424 0.75067 0.54453 0.0
H739 H 0.3951 0.74904 0.55532 0.0
H740 H 0.40478 0.77318 0.53487 0.0
H741 H 0.43979 0.7708 0.67351 0.0
H742 H 0.42223 0.74715 0.66258 0.0
H743 H 0.45105 0.7489 0.6505 0.0
H744 H 0.39203 0.68772 0.61665 0.0
H745 H 0.46171 0.69193 0.5889 0.0
H746 H 0.37654 0.74413 0.60178 0.0
H747 H 0.3852 0.74313 0.63825 0.0
H748 H 0.36913 0.71982 0.62338 0.0
H749 H 0.46108 0.7495 0.56835 0.0
H750 H 0.47976 0.72674 0.57942 0.0
H751 H 0.47093 0.74841 0.60434 0.0
C752 C 0.78364 0.47063 0.11941 0.0
C753 C 0.79425 0.48233 0.14184 0.0
C754 C 0.76009 0.46645 0.11973 0.0
C755 C 0.74682 0.47422 0.14299 0.0
C756 C 0.75728 0.48677 0.16516 0.0
C757 C 0.78087 0.49066 0.16433 0.0
C758 C 0.74953 0.45304 0.09565 0.0
C759 C 0.74369 0.49542 0.19025 0.0
C760 C 0.68242 0.47599 0.13427 0.0
C761 C 0.67585 0.4555 0.14734 0.0
C762 C 0.70544 0.48246 0.13293 0.0
C763 C 0.72227 0.46808 0.14492 0.0
C764 C 0.71571 0.44757 0.15853 0.0
C765 C 0.69259 0.44155 0.15961 0.0
C766 C 0.71179 0.5045 0.11836 0.0
C767 C 0.73315 0.43179 0.17162 0.0
H768 H 0.79383 0.46417 0.10191 0.0
H769 H 0.78888 0.49981 0.1817 0.0
H770 H 0.7429 0.4366 0.1039 0.0
H771 H 0.73488 0.4625 0.08654 0.0
H772 H 0.7619 0.44941 0.07832 0.0
H773 H 0.75407 0.50621 0.20474 0.0
H774 H 0.72886 0.5055 0.18276 0.0
H775 H 0.73692 0.48079 0.20261 0.0
H776 H 0.6696 0.48689 0.12475 0.0
H777 H 0.6877 0.42571 0.16978 0.0
H778 H 0.72294 0.50091 0.0998 0.0
H779 H 0.7216 0.5155 0.13316 0.0
H780 H 0.69662 0.51409 0.11084 0.0
H781 H 0.7452 0.42583 0.15499 0.0
H782 H 0.72522 0.41667 0.18182 0.0
H783 H 0.74327 0.44105 0.18788 0.0
C784 C 0.04716 0.66335 0.63246 0.0
C785 C 0.05911 0.65347 0.6097 0.0
C786 C 0.04203 0.68673 0.63263 0.0
C787 C 0.04903 0.70055 0.6095 0.0
C788 C 0.06041 0.69055 0.58603 0.0
C789 C 0.06531 0.66713 0.58641 0.0
C790 C 0.02982 0.69676 0.65802 0.0
C791 C 0.06813 0.70472 0.56097 0.0
C792 C 0.02297 0.75969 0.60227 0.0
C793 C 0.03969 0.77333 0.61514 0.0
C794 C 0.02583 0.73596 0.59999 0.0
C795 C 0.04588 0.7257 0.61081 0.0
C796 C 0.06295 0.73943 0.62341 0.0
C797 C 0.05964 0.76304 0.62541 0.0
C798 C 0.00729 0.72185 0.58638 0.0
C799 C 0.08461 0.72915 0.63511 0.0
H800 H 0.04222 0.65293 0.6505 0.0
H801 H 0.07447 0.65964 0.56868 0.0
H802 H 0.0413 0.70877 0.6693 0.0
H803 H 0.01471 0.70661 0.65094 0.0
H804 H 0.02417 0.68349 0.67335 0.0
H805 H 0.07528 0.69412 0.54351 0.0
H806 H 0.0537 0.71483 0.55242 0.0
H807 H 0.08139 0.71698 0.568 0.0
H808 H 0.0075 0.76749 0.59427 0.0
H809 H 0.0727 0.77342 0.63533 0.0
H810 H 0.00043 0.7095 0.60209 0.0
H811 H 0.01437 0.71183 0.56839 0.0
H812 H 0.99302 0.73249 0.57832 0.0
H813 H 0.08047 0.71691 0.65237 0.0
H814 H 0.0964 0.74225 0.64376 0.0
H815 H 0.0936 0.71951 0.61816 0.0
C816 C 0.21131 0.96701 0.86374 0.0
C817 C 0.19703 0.95372 0.88102 0.0
C818 C 0.23506 0.96437 0.86459 0.0
C819 C 0.24477 0.94798 0.88308 0.0
C820 C 0.23051 0.93493 0.90113 0.0
C821 C 0.2068 0.938 0.89994 0.0
C822 C 0.24972 0.97875 0.84519 0.0
C823 C 0.24025 0.91726 0.92111 0.0
C824 C 0.30285 0.92439 0.86296 0.0
C825 C 0.31735 0.93668 0.88108 0.0
C826 C 0.27918 0.92779 0.86358 0.0
C827 C 0.26978 0.94391 0.88271 0.0
C828 C 0.2843 0.95633 0.9011 0.0
C829 C 0.3079 0.95255 0.9001 0.0
C830 C 0.26424 0.91417 0.84368 0.0
C831 C 0.2749 0.97371 0.92173 0.0
H832 H 0.20392 0.97928 0.84915 0.0
H833 H 0.1959 0.92765 0.91336 0.0
H834 H 0.2629 0.98783 0.85777 0.0
H835 H 0.25875 0.96763 0.82975 0.0
H836 H 0.23962 0.99152 0.83311 0.0
H837 H 0.22696 0.90926 0.93467 0.0
H838 H 0.24886 0.9037 0.90863 0.0
H839 H 0.25329 0.9251 0.93513 0.0
H840 H 0.30997 0.91207 0.84825 0.0
H841 H 0.31897 0.96212 0.91419 0.0
H842 H 0.25475 0.92584 0.82935 0.0
H843 H 0.25144 0.90442 0.85609 0.0
H844 H 0.27418 0.90205 0.83041 0.0
H845 H 0.26571 0.98725 0.90988 0.0
H846 H 0.28845 0.98178 0.9348 0.0
H847 H 0.2624 0.96553 0.93621 0.0
C848 C 0.55467 0.32032 0.36649 0.0
C849 C 0.56892 0.33045 0.38688 0.0
C850 C 0.55058 0.29674 0.36671 0.0
C851 C 0.56104 0.28296 0.38774 0.0
C852 C 0.57484 0.29318 0.40891 0.0
C853 C 0.57858 0.31679 0.40825 0.0
C854 C 0.53566 0.28647 0.34386 0.0
C855 C 0.58633 0.27905 0.43165 0.0
C856 C 0.53961 0.22243 0.39933 0.0
C857 C 0.55525 0.20978 0.38317 0.0
C858 C 0.54123 0.2463 0.40105 0.0
C859 C 0.55894 0.25771 0.38635 0.0
C860 C 0.57485 0.245 0.37019 0.0
C861 C 0.57279 0.22123 0.36877 0.0
C862 C 0.52395 0.25931 0.41846 0.0
C863 C 0.59405 0.25653 0.35431 0.0
H864 H 0.54704 0.33074 0.34999 0.0
H865 H 0.58955 0.32446 0.42416 0.0
H866 H 0.54605 0.27525 0.32995 0.0
H867 H 0.5222 0.27574 0.35362 0.0
H868 H 0.52742 0.29967 0.33037 0.0
H869 H 0.59523 0.28975 0.44771 0.0
H870 H 0.57365 0.26822 0.44277 0.0
H871 H 0.59898 0.26749 0.42167 0.0
H872 H 0.52599 0.21371 0.41048 0.0
H873 H 0.58499 0.21162 0.35627 0.0
H874 H 0.51479 0.27164 0.40467 0.0
H875 H 0.53269 0.26929 0.4353 0.0
H876 H 0.51125 0.2479 0.4287 0.0
H877 H 0.58703 0.26878 0.3386 0.0
H878 H 0.60508 0.24416 0.34285 0.0
H879 H 0.60477 0.26637 0.36939 0.0
C880 C 0.16986 0.58283 0.90936 0.0
C881 C 0.15491 0.57141 0.8909 0.0
C882 C 0.19338 0.57852 0.90874 0.0
C883 C 0.20217 0.56237 0.88922 0.0
C884 C 0.18712 0.55028 0.87113 0.0
C885 C 0.16367 0.55495 0.87217 0.0
C886 C 0.20889 0.59177 0.92835 0.0
C887 C 0.19585 0.53289 0.85008 0.0
C888 C 0.26317 0.56953 0.86404 0.0
C889 C 0.27469 0.55299 0.88011 0.0
C890 C 0.23963 0.57281 0.86696 0.0
C891 C 0.22722 0.55919 0.88643 0.0
C892 C 0.23873 0.54259 0.90293 0.0
C893 C 0.26236 0.53969 0.8996 0.0
C894 C 0.228 0.59076 0.84904 0.0
C895 C 0.22605 0.52777 0.92391 0.0
H896 H 0.16326 0.59552 0.92397 0.0
H897 H 0.15225 0.54599 0.8579 0.0
H898 H 0.21985 0.57995 0.94069 0.0
H899 H 0.22032 0.60282 0.91556 0.0
H900 H 0.19925 0.60266 0.9435 0.0
H901 H 0.18182 0.52393 0.83881 0.0
H902 H 0.20677 0.54142 0.83399 0.0
H903 H 0.20655 0.52004 0.86112 0.0
H904 H 0.27254 0.57992 0.84896 0.0
H905 H 0.27112 0.52686 0.91209 0.0
H906 H 0.21921 0.60325 0.86299 0.0
H907 H 0.21482 0.58273 0.8354 0.0
H908 H 0.24014 0.6001 0.83514 0.0
H909 H 0.2171 0.53856 0.93977 0.0
H910 H 0.23754 0.51586 0.93541 0.0
H911 H 0.21287 0.51768 0.9126 0.0
C912 C 0.94686 0.1828 0.37714 0.0
C913 C 0.93613 0.1726 0.40063 0.0
C914 C 0.95113 0.20633 0.37654 0.0
C915 C 0.94452 0.22002 0.39997 0.0
C916 C 0.93428 0.20975 0.42408 0.0
C917 C 0.93021 0.18617 0.42412 0.0
C918 C 0.96211 0.21665 0.35045 0.0
C919 C 0.92702 0.22378 0.44949 0.0
C920 C 0.96972 0.27962 0.40531 0.0
C921 C 0.95235 0.2929 0.3932 0.0
C922 C 0.96732 0.25588 0.40805 0.0
C923 C 0.94708 0.24522 0.39848 0.0
C924 C 0.92934 0.25859 0.38674 0.0
C925 C 0.93219 0.28224 0.38425 0.0
C926 C 0.98657 0.24217 0.42074 0.0
C927 C 0.90746 0.24788 0.37636 0.0
H928 H 0.95157 0.17246 0.35893 0.0
H929 H 0.92198 0.17844 0.4424 0.0
H930 H 0.94998 0.22847 0.33995 0.0
H931 H 0.97729 0.22676 0.35663 0.0
H932 H 0.9674 0.20352 0.33472 0.0
H933 H 0.92063 0.21304 0.46727 0.0
H934 H 0.9415 0.23417 0.45734 0.0
H935 H 0.91332 0.23576 0.4431 0.0
H936 H 0.98535 0.28772 0.41229 0.0
H937 H 0.91864 0.29234 0.37495 0.0
H938 H 0.99321 0.22999 0.40468 0.0
H939 H 0.98028 0.23199 0.43905 0.0
H940 H 0.00084 0.25311 0.42812 0.0
H941 H 0.91119 0.23574 0.35884 0.0
H942 H 0.89508 0.26074 0.36846 0.0
H943 H 0.89934 0.23804 0.39381 0.0
loop_
_geom_bond_atom_site_label_1
_geom_bond_atom_site_label_2
_geom_bond_distance
_geom_bond_site_symmetry_2
_ccdc_geom_bond_type
O0 Cd1 2.300 . S
O0 C7 1.275 . S
Cd1 O0 2.300 . S
Cd1 O9 2.381 . S
Cd1 O10 2.378 . S
O2 Cd3 2.385 . S
O2 C7 1.255 . S
Cd3 O2 2.385 . S
Cd3 O4 2.317 . S
O4 Cd3 2.317 . S
O4 C5 1.232 . S
C5 O4 1.232 . S
C5 O6 1.218 . S
O6 C5 1.218 . S
C7 O0 1.275 . S
C7 O2 1.255 . S
C8 O9 1.258 . S
C8 O10 1.256 . S
O9 Cd1 2.381 . S
O9 C8 1.258 . S
O10 Cd1 2.378 . S
O10 C8 1.256 . S
O11 Cd12 2.300 . S
O11 C18 1.275 . S
Cd12 O11 2.300 . S
Cd12 O20 2.381 . S
Cd12 O21 2.378 . S
O13 Cd14 2.385 . S
O13 C18 1.255 . S
Cd14 O13 2.385 . S
Cd14 O15 2.317 . S
O15 Cd14 2.317 . S
O15 C16 1.232 . S
C16 O15 1.232 . S
C16 O17 1.218 . S
O17 C16 1.218 . S
C18 O11 1.275 . S
C18 O13 1.255 . S
C19 O20 1.258 . S
C19 O21 1.256 . S
O20 Cd12 2.381 . S
O20 C19 1.258 . S
O21 Cd12 2.378 . S
O21 C19 1.256 . S
O22 Cd23 2.300 . S
O22 C29 1.275 . S
Cd23 O22 2.300 . S
Cd23 O31 2.381 . S
Cd23 O32 2.378 . S
O24 Cd25 2.385 . S
O24 C29 1.255 . S
Cd25 O24 2.385 . S
Cd25 O26 2.317 . S
O26 Cd25 2.317 . S
O26 C27 1.232 . S
C27 O26 1.232 . S
C27 O28 1.218 . S
O28 C27 1.218 . S
C29 O22 1.275 . S
C29 O24 1.255 . S
C30 O31 1.258 . S
C30 O32 1.256 . S
O31 Cd23 2.381 . S
O31 C30 1.258 . S
O32 Cd23 2.378 . S
O32 C30 1.256 . S
O33 Cd34 2.300 . S
O33 C40 1.275 . S
Cd34 O33 2.300 . S
Cd34 O42 2.381 . S
Cd34 O43 2.378 . S
O35 Cd36 2.385 . S
O35 C40 1.255 . S
Cd36 O35 2.385 . S
Cd36 O37 2.317 . S
O37 Cd36 2.317 . S
O37 C38 1.232 . S
C38 O37 1.232 . S
C38 O39 1.218 . S
O39 C38 1.218 . S
C40 O33 1.275 . S
C40 O35 1.255 . S
C41 O42 1.258 . S
C41 O43 1.256 . S
O42 Cd34 2.381 . S
O42 C41 1.258 . S
O43 Cd34 2.378 . S
O43 C41 1.256 . S
O44 Cd45 2.300 . S
O44 C51 1.275 . S
Cd45 O44 2.300 . S
Cd45 O53 2.381 . S
Cd45 O54 2.378 . S
O46 Cd47 2.385 . S
O46 C51 1.255 . S
Cd47 O46 2.385 . S
Cd47 O48 2.317 . S
O48 Cd47 2.317 . S
O48 C49 1.232 . S
C49 O48 1.232 . S
C49 O50 1.218 . S
O50 C49 1.218 . S
C51 O44 1.275 . S
C51 O46 1.255 . S
C52 O53 1.258 . S
C52 O54 1.256 . S
O53 Cd45 2.381 . S
O53 C52 1.258 . S
O54 Cd45 2.378 . S
O54 C52 1.256 . S
O55 Cd56 2.300 . S
O55 C62 1.275 . S
Cd56 O55 2.300 . S
Cd56 O64 2.381 . S
Cd56 O65 2.378 . S
O57 Cd58 2.385 . S
O57 C62 1.255 . S
Cd58 O57 2.385 . S
Cd58 O59 2.317 . S
O59 Cd58 2.317 . S
O59 C60 1.232 . S
C60 O59 1.232 . S
C60 O61 1.218 . S
O61 C60 1.218 . S
C62 O55 1.275 . S
C62 O57 1.255 . S
C63 O64 1.258 . S
C63 O65 1.256 . S
O64 Cd56 2.381 . S
O64 C63 1.258 . S
O65 Cd56 2.378 . S
O65 C63 1.256 . S
O66 Cd67 2.300 . S
O66 C73 1.275 . S
Cd67 O66 2.300 . S
Cd67 O75 2.381 . S
Cd67 O76 2.378 . S
O68 Cd69 2.385 . S
O68 C73 1.255 . S
Cd69 O68 2.385 . S
Cd69 O70 2.317 . S
O70 Cd69 2.317 . S
O70 C71 1.232 . S
C71 O70 1.232 . S
C71 O72 1.218 . S
O72 C71 1.218 . S
C73 O66 1.275 . S
C73 O68 1.255 . S
C74 O75 1.258 . S
C74 O76 1.256 . S
O75 Cd67 2.381 . S
O75 C74 1.258 . S
O76 Cd67 2.378 . S
O76 C74 1.256 . S
O77 Cd78 2.300 . S
O77 C84 1.275 . S
Cd78 O77 2.300 . S
Cd78 O86 2.381 . S
Cd78 O87 2.378 . S
O79 Cd80 2.385 . S
O79 C84 1.255 . S
Cd80 O79 2.385 . S
Cd80 O81 2.317 . S
O81 Cd80 2.317 . S
O81 C82 1.232 . S
C82 O81 1.232 . S
C82 O83 1.218 . S
O83 C82 1.218 . S
C84 O77 1.275 . S
C84 O79 1.255 . S
C85 O86 1.258 . S
C85 O87 1.256 . S
O86 Cd78 2.381 . S
O86 C85 1.258 . S
O87 Cd78 2.378 . S
O87 C85 1.256 . S
O88 Cd89 2.300 . S
O88 C95 1.275 . S
Cd89 O88 2.300 . S
Cd89 O97 2.381 . S
Cd89 O98 2.378 . S
O90 Cd91 2.385 . S
O90 C95 1.255 . S
Cd91 O90 2.385 . S
Cd91 O92 2.317 . S
O92 Cd91 2.317 . S
O92 C93 1.232 . S
C93 O92 1.232 . S
C93 O94 1.218 . S
O94 C93 1.218 . S
C95 O88 1.275 . S
C95 O90 1.255 . S
C96 O97 1.258 . S
C96 O98 1.256 . S
O97 Cd89 2.381 . S
O97 C96 1.258 . S
O98 Cd89 2.378 . S
O98 C96 1.256 . S
O99 Cd100 2.300 . S
O99 C106 1.275 . S
Cd100 O99 2.300 . S
Cd100 O108 2.381 . S
Cd100 O109 2.378 . S
O101 Cd102 2.385 . S
O101 C106 1.255 . S
Cd102 O101 2.385 . S
Cd102 O103 2.317 . S
O103 Cd102 2.317 . S
O103 C104 1.232 . S
C104 O103 1.232 . S
C104 O105 1.218 . S
O105 C104 1.218 . S
C106 O99 1.275 . S
C106 O101 1.255 . S
C107 O108 1.258 . S
C107 O109 1.256 . S
O108 Cd100 2.381 . S
O108 C107 1.258 . S
O109 Cd100 2.378 . S
O109 C107 1.256 . S
O110 Cd111 2.300 . S
O110 C117 1.275 . S
Cd111 O110 2.300 . S
Cd111 O119 2.381 . S
Cd111 O120 2.378 . S
O112 Cd113 2.385 . S
O112 C117 1.255 . S
Cd113 O112 2.385 . S
Cd113 O114 2.317 . S
O114 Cd113 2.317 . S
O114 C115 1.232 . S
C115 O114 1.232 . S
C115 O116 1.218 . S
O116 C115 1.218 . S
C117 O110 1.275 . S
C117 O112 1.255 . S
C118 O119 1.258 . S
C118 O120 1.256 . S
O119 Cd111 2.381 . S
O119 C118 1.258 . S
O120 Cd111 2.378 . S
O120 C118 1.256 . S
O121 Cd122 2.300 . S
O121 C128 1.275 . S
Cd122 O121 2.300 . S
Cd122 O130 2.381 . S
Cd122 O131 2.378 . S
O123 Cd124 2.385 . S
O123 C128 1.255 . S
Cd124 O123 2.385 . S
Cd124 O125 2.317 . S
O125 Cd124 2.317 . S
O125 C126 1.232 . S
C126 O125 1.232 . S
C126 O127 1.218 . S
O127 C126 1.218 . S
C128 O121 1.275 . S
C128 O123 1.255 . S
C129 O130 1.258 . S
C129 O131 1.256 . S
O130 Cd122 2.381 . S
O130 C129 1.258 . S
O131 Cd122 2.378 . S
O131 C129 1.256 . S
O132 Cd133 2.300 . S
O132 C139 1.275 . S
Cd133 O132 2.300 . S
Cd133 O141 2.381 . S
Cd133 O142 2.378 . S
O134 Cd135 2.385 . S
O134 C139 1.255 . S
Cd135 O134 2.385 . S
Cd135 O136 2.317 . S
O136 Cd135 2.317 . S
O136 C137 1.232 . S
C137 O136 1.232 . S
C137 O138 1.218 . S
O138 C137 1.218 . S
C139 O132 1.275 . S
C139 O134 1.255 . S
C140 O141 1.258 . S
C140 O142 1.256 . S
O141 Cd133 2.381 . S
O141 C140 1.258 . S
O142 Cd133 2.378 . S
O142 C140 1.256 . S
O143 Cd144 2.300 . S
O143 C150 1.275 . S
Cd144 O143 2.300 . S
Cd144 O152 2.381 . S
Cd144 O153 2.378 . S
O145 Cd146 2.385 . S
O145 C150 1.255 . S
Cd146 O145 2.385 . S
Cd146 O147 2.317 . S
O147 Cd146 2.317 . S
O147 C148 1.232 . S
C148 O147 1.232 . S
C148 O149 1.218 . S
O149 C148 1.218 . S
C150 O143 1.275 . S
C150 O145 1.255 . S
C151 O152 1.258 . S
C151 O153 1.256 . S
O152 Cd144 2.381 . S
O152 C151 1.258 . S
O153 Cd144 2.378 . S
O153 C151 1.256 . S
O154 Cd155 2.300 . S
O154 C161 1.275 . S
Cd155 O154 2.300 . S
Cd155 O163 2.381 . S
Cd155 O164 2.378 . S
O156 Cd157 2.385 . S
O156 C161 1.255 . S
Cd157 O156 2.385 . S
Cd157 O158 2.317 . S
O158 Cd157 2.317 . S
O158 C159 1.232 . S
C159 O158 1.232 . S
C159 O160 1.218 . S
O160 C159 1.218 . S
C161 O154 1.275 . S
C161 O156 1.255 . S
C162 O163 1.258 . S
C162 O164 1.256 . S
O163 Cd155 2.381 . S
O163 C162 1.258 . S
O164 Cd155 2.378 . S
O164 C162 1.256 . S
O165 Cd166 2.300 . S
O165 C172 1.275 . S
Cd166 O165 2.300 . S
Cd166 O174 2.381 . S
Cd166 O175 2.378 . S
O167 Cd168 2.385 . S
O167 C172 1.255 . S
Cd168 O167 2.385 . S
Cd168 O169 2.317 . S
O169 Cd168 2.317 . S
O169 C170 1.232 . S
C170 O169 1.232 . S
C170 O171 1.218 . S
O171 C170 1.218 . S
C172 O165 1.275 . S
C172 O167 1.255 . S
C173 O174 1.258 . S
C173 O175 1.256 . S
O174 Cd166 2.381 . S
O174 C173 1.258 . S
O175 Cd166 2.378 . S
O175 C173 1.256 . S
C176 C177 1.391 . S
C176 C178 1.394 1_556 S
C176 H192 0.931 1_556 S
C177 C176 1.391 . S
C177 C181 1.376 . S
C178 C176 1.394 1_554 S
C178 C179 1.369 1_554 S
C178 C182 1.531 . S
C179 C178 1.369 1_556 S
C179 C180 1.410 . S
C179 C187 1.503 1_566 S
C180 C179 1.410 . S
C180 C181 1.392 . S
C180 C183 1.511 1_565 S
C181 C177 1.376 . S
C181 C180 1.392 . S
C181 H193 0.929 . S
C182 C178 1.531 . S
C182 H194 0.960 . S
C182 H195 0.962 . S
C182 H196 0.960 . S
C183 C180 1.511 1_545 S
C183 H197 0.961 . S
C183 H198 0.961 . S
C183 H199 0.961 1_545 S
C184 C185 1.370 . S
C184 C186 1.363 . S
C184 H200 0.931 . S
C185 C184 1.370 . S
C185 C189 1.408 . S
C186 C184 1.363 . S
C186 C187 1.370 . S
C186 C190 1.524 . S
C187 C179 1.503 1_544 S
C187 C186 1.370 . S
C187 C188 1.403 1_545 S
C188 C187 1.403 1_565 S
C188 C189 1.404 1_565 S
C188 C191 1.539 . S
C189 C185 1.408 . S
C189 C188 1.404 1_545 S
C189 H201 0.930 . S
C190 C186 1.524 . S
C190 H202 0.956 . S
C190 H203 0.961 1_554 S
C190 H204 0.961 . S
C191 C188 1.539 . S
C191 H205 0.958 . S
C191 H206 0.961 1_554 S
C191 H207 0.960 1_554 S
H192 C176 0.931 1_554 S
H193 C181 0.929 . S
H194 C182 0.960 . S
H195 C182 0.962 . S
H196 C182 0.960 . S
H197 C183 0.961 . S
H198 C183 0.961 . S
H199 C183 0.961 1_565 S
H200 C184 0.931 . S
H201 C189 0.930 . S
H202 C190 0.956 . S
H203 C190 0.961 1_556 S
H204 C190 0.961 . S
H205 C191 0.958 . S
H206 C191 0.961 1_556 S
H207 C191 0.960 1_556 S
C208 C209 1.391 . S
C208 C210 1.394 . S
C208 H224 0.931 . S
C209 C208 1.391 . S
C209 C213 1.376 . S
C210 C208 1.394 . S
C210 C211 1.369 . S
C210 C214 1.531 . S
C211 C210 1.369 . S
C211 C212 1.410 . S
C211 C219 1.503 . S
C212 C211 1.410 . S
C212 C213 1.392 . S
C212 C215 1.511 . S
C213 C209 1.376 . S
C213 C212 1.392 . S
C213 H225 0.929 . S
C214 C210 1.531 . S
C214 H226 0.960 . S
C214 H227 0.962 . S
C214 H228 0.960 . S
C215 C212 1.511 . S
C215 H229 0.961 . S
C215 H230 0.961 . S
C215 H231 0.961 . S
C216 C217 1.370 . S
C216 C218 1.363 . S
C216 H232 0.931 . S
C217 C216 1.370 . S
C217 C221 1.408 . S
C218 C216 1.363 . S
C218 C219 1.370 . S
C218 C222 1.524 . S
C219 C211 1.503 . S
C219 C218 1.370 . S
C219 C220 1.403 . S
C220 C219 1.403 . S
C220 C221 1.404 . S
C220 C223 1.539 . S
C221 C217 1.408 . S
C221 C220 1.404 . S
C221 H233 0.930 . S
C222 C218 1.524 . S
C222 H234 0.956 . S
C222 H235 0.961 . S
C222 H236 0.961 . S
C223 C220 1.539 . S
C223 H237 0.958 . S
C223 H238 0.961 . S
C223 H239 0.960 . S
H224 C208 0.931 . S
H225 C213 0.929 . S
H226 C214 0.960 . S
H227 C214 0.962 . S
H228 C214 0.960 . S
H229 C215 0.961 . S
H230 C215 0.961 . S
H231 C215 0.961 . S
H232 C216 0.931 . S
H233 C221 0.930 . S
H234 C222 0.956 . S
H235 C222 0.961 . S
H236 C222 0.961 . S
H237 C223 0.958 . S
H238 C223 0.961 . S
H239 C223 0.960 . S
C240 C241 1.391 . S
C240 C242 1.406 . S
C240 H256 0.931 . S
C241 C240 1.391 . S
C241 C245 1.376 . S
C242 C240 1.406 . S
C242 C243 1.375 . S
C242 C246 1.512 1_455 S
C243 C242 1.375 . S
C243 C244 1.410 . S
C243 C251 1.503 1_456 S
C244 C243 1.410 . S
C244 C245 1.392 . S
C244 C247 1.527 . S
C245 C241 1.376 . S
C245 C244 1.392 . S
C245 H257 0.929 . S
C246 C242 1.512 1_655 S
C246 H258 0.960 . S
C246 H259 0.962 . S
C246 H260 0.960 . S
C247 C244 1.527 . S
C247 H261 0.950 1_556 S
C247 H262 0.931 1_556 S
C247 H263 0.987 . S
C248 C249 1.370 . S
C248 C250 1.363 . S
C248 H264 0.931 . S
C249 C248 1.370 . S
C249 C253 1.408 . S
C250 C248 1.363 . S
C250 C251 1.370 . S
C250 C254 1.524 1_655 S
C251 C243 1.503 1_654 S
C251 C250 1.370 . S
C251 C252 1.403 1_554 S
C252 C251 1.403 1_556 S
C252 C253 1.404 1_556 S
C252 C255 1.539 . S
C253 C249 1.408 . S
C253 C252 1.404 1_554 S
C253 H265 0.930 1_554 S
C254 C250 1.524 1_455 S
C254 H266 0.956 1_455 S
C254 H267 0.961 . S
C254 H268 0.960 1_455 S
C255 C252 1.539 . S
C255 H269 0.958 . S
C255 H270 0.961 . S
C255 H271 0.960 . S
H256 C240 0.931 . S
H257 C245 0.929 . S
H258 C246 0.960 . S
H259 C246 0.962 . S
H260 C246 0.960 . S
H261 C247 0.950 1_554 S
H262 C247 0.931 1_554 S
H263 C247 0.987 . S
H264 C248 0.931 . S
H265 C253 0.930 1_556 S
H266 C254 0.956 1_655 S
H267 C254 0.961 . S
H268 C254 0.960 1_655 S
H269 C255 0.958 . S
H270 C255 0.961 . S
H271 C255 0.960 . S
C272 C273 1.391 . S
C272 C274 1.394 . S
C272 H288 0.931 . S
C273 C272 1.391 . S
C273 C277 1.376 . S
C274 C272 1.394 . S
C274 C275 1.369 . S
C274 C278 1.531 1_455 S
C275 C274 1.369 . S
C275 C276 1.410 . S
C275 C283 1.503 1_465 S
C276 C275 1.410 . S
C276 C277 1.392 . S
C276 C279 1.511 1_565 S
C277 C273 1.376 . S
C277 C276 1.392 . S
C277 H289 0.929 . S
C278 C274 1.531 1_655 S
C278 H290 0.960 1_565 S
C278 H291 0.962 . S
C278 H292 0.960 . S
C279 C276 1.511 1_545 S
C279 H293 0.961 1_545 S
C279 H294 0.961 . S
C279 H295 0.961 . S
C280 C281 1.370 . S
C280 C282 1.363 . S
C280 H296 0.931 . S
C281 C280 1.370 . S
C281 C285 1.408 . S
C282 C280 1.363 . S
C282 C283 1.370 . S
C282 C286 1.524 1_545 S
C283 C275 1.503 1_645 S
C283 C282 1.370 . S
C283 C284 1.403 . S
C284 C283 1.403 . S
C284 C285 1.404 . S
C284 C287 1.539 1_655 S
C285 C281 1.408 . S
C285 C284 1.404 . S
C285 H297 0.930 . S
C286 C282 1.524 1_565 S
C286 H298 0.956 . S
C286 H299 0.961 . S
C286 H300 0.961 . S
C287 C284 1.539 1_455 S
C287 H301 0.958 . S
C287 H302 0.961 . S
C287 H303 0.960 . S
H288 C272 0.931 . S
H289 C277 0.929 . S
H290 C278 0.960 1_545 S
H291 C278 0.962 . S
H292 C278 0.960 . S
H293 C279 0.961 1_565 S
H294 C279 0.961 . S
H295 C279 0.961 . S
H296 C280 0.931 . S
H297 C285 0.930 . S
H298 C286 0.956 . S
H299 C286 0.961 . S
H300 C286 0.961 . S
H301 C287 0.958 . S
H302 C287 0.961 . S
H303 C287 0.960 . S
C304 C305 1.391 . S
C304 C306 1.394 . S
C304 H320 0.931 . S
C305 C304 1.391 . S
C305 C309 1.376 . S
C306 C304 1.394 . S
C306 C307 1.369 . S
C306 C310 1.531 1_456 S
C307 C306 1.369 . S
C307 C308 1.410 1_565 S
C307 C315 1.503 1_466 S
C308 C307 1.410 1_545 S
C308 C309 1.392 1_545 S
C308 C311 1.511 . S
C309 C305 1.376 . S
C309 C308 1.392 1_565 S
C309 H321 0.929 . S
C310 C306 1.531 1_654 S
C310 H322 0.960 . S
C310 H323 0.962 . S
C310 H324 0.960 . S
C311 C308 1.511 . S
C311 H325 0.961 . S
C311 H326 0.961 . S
C311 H327 0.961 1_556 S
C312 C313 1.370 . S
C312 C314 1.363 1_554 S
C312 H328 0.931 1_554 S
C313 C312 1.370 . S
C313 C317 1.408 . S
C314 C312 1.363 1_556 S
C314 C315 1.370 1_556 S
C314 C318 1.524 . S
C315 C307 1.503 1_644 S
C315 C314 1.370 1_554 S
C315 C316 1.403 . S
C316 C315 1.403 . S
C316 C317 1.404 . S
C316 C319 1.539 1_655 S
C317 C313 1.408 . S
C317 C316 1.404 . S
C317 H329 0.930 . S
C318 C314 1.524 . S
C318 H330 0.956 1_545 S
C318 H331 0.961 . S
C318 H332 0.961 . S
C319 C316 1.539 1_455 S
C319 H333 0.958 1_545 S
C319 H334 0.961 . S
C319 H335 0.960 . S
H320 C304 0.931 . S
H321 C309 0.929 . S
H322 C310 0.960 . S
H323 C310 0.962 . S
H324 C310 0.960 . S
H325 C311 0.961 . S
H326 C311 0.961 . S
H327 C311 0.961 1_554 S
H328 C312 0.931 1_556 S
H329 C317 0.930 . S
H330 C318 0.956 1_565 S
H331 C318 0.961 . S
H332 C318 0.961 . S
H333 C319 0.958 1_565 S
H334 C319 0.961 . S
H335 C319 0.960 . S
C336 C337 1.391 . S
C336 C338 1.394 . S
C336 H352 0.931 . S
C337 C336 1.391 . S
C337 C341 1.376 . S
C338 C336 1.394 . S
C338 C339 1.369 . S
C338 C342 1.531 . S
C339 C338 1.369 . S
C339 C340 1.422 . S
C339 C347 1.503 1_565 S
C340 C339 1.422 . S
C340 C341 1.427 . S
C340 C343 1.468 1_565 S
C341 C337 1.376 . S
C341 C340 1.427 . S
C341 H353 0.929 . S
C342 C338 1.531 . S
C342 H354 0.960 . S
C342 H355 0.962 . S
C342 H356 0.960 . S
C343 C340 1.468 1_545 S
C343 H357 0.961 . S
C343 H358 0.961 . S
C343 H359 0.961 . S
C344 C345 1.370 . S
C344 C346 1.363 . S
C344 H360 0.931 . S
C345 C344 1.370 . S
C345 C349 1.408 . S
C346 C344 1.363 . S
C346 C347 1.370 . S
C346 C350 1.524 1_545 S
C347 C339 1.503 1_545 S
C347 C346 1.370 . S
C347 C348 1.403 . S
C348 C347 1.403 . S
C348 C349 1.404 . S
C348 C351 1.539 . S
C349 C345 1.408 . S
C349 C348 1.404 . S
C349 H361 0.930 . S
C350 C346 1.524 1_565 S
C350 H362 0.956 . S
C350 H363 0.961 . S
C350 H364 0.961 . S
C351 C348 1.539 . S
C351 H365 0.958 . S
C351 H366 0.961 . S
C351 H367 0.960 . S
H352 C336 0.931 . S
H353 C341 0.929 . S
H354 C342 0.960 . S
H355 C342 0.962 . S
H356 C342 0.960 . S
H357 C343 0.961 . S
H358 C343 0.961 . S
H359 C343 0.961 . S
H360 C344 0.931 . S
H361 C349 0.930 . S
H362 C350 0.956 . S
H363 C350 0.961 . S
H364 C350 0.961 . S
H365 C351 0.958 . S
H366 C351 0.961 . S
H367 C351 0.960 . S
C368 C369 1.391 . S
C368 C370 1.394 1_554 S
C368 H384 0.931 1_554 S
C369 C368 1.391 . S
C369 C373 1.376 . S
C370 C368 1.394 1_556 S
C370 C371 1.369 1_556 S
C370 C374 1.531 . S
C371 C370 1.369 1_554 S
C371 C372 1.410 . S
C371 C379 1.503 1_554 S
C372 C371 1.410 . S
C372 C373 1.392 . S
C372 C375 1.511 . S
C373 C369 1.376 . S
C373 C372 1.392 . S
C373 H385 0.929 . S
C374 C370 1.531 . S
C374 H386 0.960 . S
C374 H387 0.962 . S
C374 H388 0.960 . S
C375 C372 1.511 . S
C375 H389 0.961 . S
C375 H390 0.961 . S
C375 H391 0.961 . S
C376 C377 1.370 . S
C376 C378 1.363 . S
C376 H392 0.931 . S
C377 C376 1.370 . S
C377 C381 1.408 . S
C378 C376 1.363 . S
C378 C379 1.370 . S
C378 C382 1.524 . S
C379 C371 1.503 1_556 S
C379 C378 1.370 . S
C379 C380 1.403 . S
C380 C379 1.403 . S
C380 C381 1.404 . S
C380 C383 1.544 . S
C381 C377 1.408 . S
C381 C380 1.404 . S
C381 H393 0.930 . S
C382 C378 1.524 . S
C382 H394 0.956 . S
C382 H395 0.961 1_556 S
C382 H396 0.961 . S
C383 C380 1.544 . S
C383 H397 0.968 . S
C383 H398 0.958 1_556 S
C383 H399 0.948 1_556 S
H384 C368 0.931 1_556 S
H385 C373 0.929 . S
H386 C374 0.960 . S
H387 C374 0.962 . S
H388 C374 0.960 . S
H389 C375 0.961 . S
H390 C375 0.961 . S
H391 C375 0.961 . S
H392 C376 0.931 . S
H393 C381 0.930 . S
H394 C382 0.956 . S
H395 C382 0.961 1_554 S
H396 C382 0.961 . S
H397 C383 0.968 . S
H398 C383 0.958 1_554 S
H399 C383 0.948 1_554 S
C400 C401 1.391 . S
C400 C402 1.394 . S
C400 H416 0.931 . S
C401 C400 1.391 . S
C401 C405 1.376 . S
C402 C400 1.394 . S
C402 C403 1.369 . S
C402 C406 1.531 1_455 S
C403 C402 1.369 . S
C403 C404 1.410 . S
C403 C411 1.503 1_455 S
C404 C403 1.410 . S
C404 C405 1.392 . S
C404 C407 1.511 . S
C405 C401 1.376 . S
C405 C404 1.392 . S
C405 H417 0.929 . S
C406 C402 1.531 1_655 S
C406 H418 0.960 . S
C406 H419 0.962 . S
C406 H420 0.960 1_655 S
C407 C404 1.511 . S
C407 H421 0.961 . S
C407 H422 0.961 . S
C407 H423 0.961 . S
C408 C409 1.370 . S
C408 C410 1.363 . S
C408 H424 0.931 . S
C409 C408 1.370 . S
C409 C413 1.408 . S
C410 C408 1.363 . S
C410 C411 1.370 . S
C410 C414 1.524 . S
C411 C403 1.503 1_655 S
C411 C410 1.370 . S
C411 C412 1.403 1_655 S
C412 C411 1.403 1_455 S
C412 C413 1.404 1_455 S
C412 C415 1.539 . S
C413 C409 1.408 . S
C413 C412 1.404 1_655 S
C413 H425 0.930 . S
C414 C410 1.524 . S
C414 H426 0.956 . S
C414 H427 0.961 . S
C414 H428 0.961 . S
C415 C412 1.539 . S
C415 H429 0.958 . S
C415 H430 0.961 . S
C415 H431 0.960 . S
H416 C400 0.931 . S
H417 C405 0.929 . S
H418 C406 0.960 . S
H419 C406 0.962 . S
H420 C406 0.960 1_455 S
H421 C407 0.961 . S
H422 C407 0.961 . S
H423 C407 0.961 . S
H424 C408 0.931 . S
H425 C413 0.930 . S
H426 C414 0.956 . S
H427 C414 0.961 . S
H428 C414 0.961 . S
H429 C415 0.958 . S
H430 C415 0.961 . S
H431 C415 0.960 . S
C432 C433 1.391 . S
C432 C434 1.394 . S
C432 H448 0.931 . S
C433 C432 1.391 . S
C433 C437 1.376 . S
C434 C432 1.394 . S
C434 C435 1.369 . S
C434 C438 1.531 . S
C435 C434 1.369 . S
C435 C436 1.410 . S
C435 C443 1.503 . S
C436 C435 1.410 . S
C436 C437 1.392 . S
C436 C439 1.511 . S
C437 C433 1.376 . S
C437 C436 1.392 . S
C437 H449 0.929 . S
C438 C434 1.531 . S
C438 H450 0.960 . S
C438 H451 0.962 . S
C438 H452 0.960 . S
C439 C436 1.511 . S
C439 H453 0.961 . S
C439 H454 0.961 . S
C439 H455 0.961 . S
C440 C441 1.370 . S
C440 C442 1.363 . S
C440 H456 0.931 . S
C441 C440 1.370 . S
C441 C445 1.408 . S
C442 C440 1.363 . S
C442 C443 1.370 . S
C442 C446 1.524 . S
C443 C435 1.503 . S
C443 C442 1.370 . S
C443 C444 1.403 . S
C444 C443 1.403 . S
C444 C445 1.404 . S
C444 C447 1.539 . S
C445 C441 1.408 . S
C445 C444 1.404 . S
C445 H457 0.930 . S
C446 C442 1.524 . S
C446 H458 0.956 . S
C446 H459 0.961 . S
C446 H460 0.961 . S
C447 C444 1.539 . S
C447 H461 0.958 . S
C447 H462 0.961 . S
C447 H463 0.960 . S
H448 C432 0.931 . S
H449 C437 0.929 . S
H450 C438 0.960 . S
H451 C438 0.962 . S
H452 C438 0.960 . S
H453 C439 0.961 . S
H454 C439 0.961 . S
H455 C439 0.961 . S
H456 C440 0.931 . S
H457 C445 0.930 . S
H458 C446 0.956 . S
H459 C446 0.961 . S
H460 C446 0.961 . S
H461 C447 0.958 . S
H462 C447 0.961 . S
H463 C447 0.960 . S
C464 C465 1.391 . S
C464 C466 1.394 . S
C464 H480 0.931 . S
C465 C464 1.391 . S
C465 C469 1.376 . S
C466 C464 1.394 . S
C466 C467 1.369 . S
C466 C470 1.531 . S
C467 C466 1.369 . S
C467 C468 1.410 . S
C467 C475 1.503 . S
C468 C467 1.410 . S
C468 C469 1.392 . S
C468 C471 1.511 . S
C469 C465 1.376 . S
C469 C468 1.392 . S
C469 H481 0.929 . S
C470 C466 1.531 . S
C470 H482 0.960 . S
C470 H483 0.962 . S
C470 H484 0.960 . S
C471 C468 1.511 . S
C471 H485 0.961 . S
C471 H486 0.961 . S
C471 H487 0.961 . S
C472 C473 1.370 . S
C472 C474 1.363 . S
C472 H488 0.931 . S
C473 C472 1.370 . S
C473 C477 1.408 . S
C474 C472 1.363 . S
C474 C475 1.370 . S
C474 C478 1.524 . S
C475 C467 1.503 . S
C475 C474 1.370 . S
C475 C476 1.403 . S
C476 C475 1.403 . S
C476 C477 1.404 . S
C476 C479 1.539 . S
C477 C473 1.408 . S
C477 C476 1.404 . S
C477 H489 0.930 . S
C478 C474 1.524 . S
C478 H490 0.956 . S
C478 H491 0.961 . S
C478 H492 0.961 . S
C479 C476 1.539 . S
C479 H493 0.958 . S
C479 H494 0.961 . S
C479 H495 0.960 . S
H480 C464 0.931 . S
H481 C469 0.929 . S
H482 C470 0.960 . S
H483 C470 0.962 . S
H484 C470 0.960 . S
H485 C471 0.961 . S
H486 C471 0.961 . S
H487 C471 0.961 . S
H488 C472 0.931 . S
H489 C477 0.930 . S
H490 C478 0.956 . S
H491 C478 0.961 . S
H492 C478 0.961 . S
H493 C479 0.958 . S
H494 C479 0.961 . S
H495 C479 0.960 . S
C496 C497 1.391 . S
C496 C498 1.394 . S
C496 H512 0.931 . S
C497 C496 1.391 . S
C497 C501 1.376 . S
C498 C496 1.394 . S
C498 C499 1.369 . S
C498 C502 1.531 . S
C499 C498 1.369 . S
C499 C500 1.410 . S
C499 C507 1.503 . S
C500 C499 1.410 . S
C500 C501 1.392 . S
C500 C503 1.511 . S
C501 C497 1.376 . S
C501 C500 1.392 . S
C501 H513 0.929 . S
C502 C498 1.531 . S
C502 H514 0.960 . S
C502 H515 0.962 . S
C502 H516 0.960 . S
C503 C500 1.511 . S
C503 H517 0.961 . S
C503 H518 0.961 . S
C503 H519 0.961 . S
C504 C505 1.370 . S
C504 C506 1.363 . S
C504 H520 0.931 . S
C505 C504 1.370 . S
C505 C509 1.408 . S
C506 C504 1.363 . S
C506 C507 1.370 . S
C506 C510 1.524 . S
C507 C499 1.503 . S
C507 C506 1.370 . S
C507 C508 1.403 . S
C508 C507 1.403 . S
C508 C509 1.404 . S
C508 C511 1.539 . S
C509 C505 1.408 . S
C509 C508 1.404 . S
C509 H521 0.930 . S
C510 C506 1.524 . S
C510 H522 0.956 . S
C510 H523 0.961 . S
C510 H524 0.961 . S
C511 C508 1.539 . S
C511 H525 0.958 . S
C511 H526 0.961 . S
C511 H527 0.960 . S
H512 C496 0.931 . S
H513 C501 0.929 . S
H514 C502 0.960 . S
H515 C502 0.962 . S
H516 C502 0.960 . S
H517 C503 0.961 . S
H518 C503 0.961 . S
H519 C503 0.961 . S
H520 C504 0.931 . S
H521 C509 0.930 . S
H522 C510 0.956 . S
H523 C510 0.961 . S
H524 C510 0.961 . S
H525 C511 0.958 . S
H526 C511 0.961 . S
H527 C511 0.960 . S
C528 C529 1.391 . S
C528 C530 1.394 . S
C528 H544 0.931 . S
C529 C528 1.391 . S
C529 C533 1.376 . S
C530 C528 1.394 . S
C530 C531 1.369 . S
C530 C534 1.531 . S
C531 C530 1.369 . S
C531 C532 1.410 . S
C531 C539 1.503 . S
C532 C531 1.410 . S
C532 C533 1.392 . S
C532 C535 1.511 . S
C533 C529 1.376 . S
C533 C532 1.392 . S
C533 H545 0.929 . S
C534 C530 1.531 . S
C534 H546 0.960 . S
C534 H547 0.962 . S
C534 H548 0.960 . S
C535 C532 1.511 . S
C535 H549 0.961 . S
C535 H550 0.961 . S
C535 H551 0.961 . S
C536 C537 1.370 . S
C536 C538 1.363 . S
C536 H552 0.931 . S
C537 C536 1.370 . S
C537 C541 1.408 . S
C538 C536 1.363 . S
C538 C539 1.370 . S
C538 C542 1.524 . S
C539 C531 1.503 . S
C539 C538 1.370 . S
C539 C540 1.403 . S
C540 C539 1.403 . S
C540 C541 1.404 . S
C540 C543 1.539 . S
C541 C537 1.408 . S
C541 C540 1.404 . S
C541 H553 0.930 . S
C542 C538 1.524 . S
C542 H554 0.956 . S
C542 H555 0.961 . S
C542 H556 0.961 . S
C543 C540 1.539 . S
C543 H557 0.958 . S
C543 H558 0.961 . S
C543 H559 0.960 . S
H544 C528 0.931 . S
H545 C533 0.929 . S
H546 C534 0.960 . S
H547 C534 0.962 . S
H548 C534 0.960 . S
H549 C535 0.961 . S
H550 C535 0.961 . S
H551 C535 0.961 . S
H552 C536 0.931 . S
H553 C541 0.930 . S
H554 C542 0.956 . S
H555 C542 0.961 . S
H556 C542 0.961 . S
H557 C543 0.958 . S
H558 C543 0.961 . S
H559 C543 0.960 . S
C560 C561 1.391 . S
C560 C562 1.394 . S
C560 H576 0.931 . S
C561 C560 1.391 . S
C561 C565 1.376 . S
C562 C560 1.394 . S
C562 C563 1.369 . S
C562 C566 1.531 . S
C563 C562 1.369 . S
C563 C564 1.410 . S
C563 C571 1.503 . S
C564 C563 1.410 . S
C564 C565 1.392 . S
C564 C567 1.511 . S
C565 C561 1.376 . S
C565 C564 1.392 . S
C565 H577 0.929 . S
C566 C562 1.531 . S
C566 H578 0.960 . S
C566 H579 0.962 . S
C566 H580 0.960 . S
C567 C564 1.511 . S
C567 H581 0.961 . S
C567 H582 0.961 . S
C567 H583 0.961 . S
C568 C569 1.370 . S
C568 C570 1.363 . S
C568 H584 0.931 . S
C569 C568 1.370 . S
C569 C573 1.408 . S
C570 C568 1.363 . S
C570 C571 1.370 . S
C570 C574 1.524 . S
C571 C563 1.503 . S
C571 C570 1.370 . S
C571 C572 1.403 . S
C572 C571 1.403 . S
C572 C573 1.404 . S
C572 C575 1.539 . S
C573 C569 1.408 . S
C573 C572 1.404 . S
C573 H585 0.930 . S
C574 C570 1.524 . S
C574 H586 0.956 . S
C574 H587 0.961 . S
C574 H588 0.961 . S
C575 C572 1.539 . S
C575 H589 0.958 . S
C575 H590 0.961 . S
C575 H591 0.960 . S
H576 C560 0.931 . S
H577 C565 0.929 . S
H578 C566 0.960 . S
H579 C566 0.962 . S
H580 C566 0.960 . S
H581 C567 0.961 . S
H582 C567 0.961 . S
H583 C567 0.961 . S
H584 C568 0.931 . S
H585 C573 0.930 . S
H586 C574 0.956 . S
H587 C574 0.961 . S
H588 C574 0.961 . S
H589 C575 0.958 . S
H590 C575 0.961 . S
H591 C575 0.960 . S
C592 C593 1.391 . S
C592 C594 1.394 . S
C592 H608 0.931 . S
C593 C592 1.391 . S
C593 C597 1.376 . S
C594 C592 1.394 . S
C594 C595 1.369 . S
C594 C598 1.531 . S
C595 C594 1.369 . S
C595 C596 1.410 . S
C595 C603 1.503 . S
C596 C595 1.410 . S
C596 C597 1.392 . S
C596 C599 1.511 . S
C597 C593 1.376 . S
C597 C596 1.392 . S
C597 H609 0.929 . S
C598 C594 1.531 . S
C598 H610 0.960 . S
C598 H611 0.962 . S
C598 H612 0.960 . S
C599 C596 1.511 . S
C599 H613 0.961 . S
C599 H614 0.961 . S
C599 H615 0.961 . S
C600 C601 1.370 . S
C600 C602 1.363 . S
C600 H616 0.931 . S
C601 C600 1.370 . S
C601 C605 1.408 . S
C602 C600 1.363 . S
C602 C603 1.370 . S
C602 C606 1.524 . S
C603 C595 1.503 . S
C603 C602 1.370 . S
C603 C604 1.403 . S
C604 C603 1.403 . S
C604 C605 1.404 . S
C604 C607 1.539 . S
C605 C601 1.408 . S
C605 C604 1.404 . S
C605 H617 0.930 . S
C606 C602 1.524 . S
C606 H618 0.956 . S
C606 H619 0.961 . S
C606 H620 0.961 . S
C607 C604 1.539 . S
C607 H621 0.958 . S
C607 H622 0.961 . S
C607 H623 0.960 . S
H608 C592 0.931 . S
H609 C597 0.929 . S
H610 C598 0.960 . S
H611 C598 0.962 . S
H612 C598 0.960 . S
H613 C599 0.961 . S
H614 C599 0.961 . S
H615 C599 0.961 . S
H616 C600 0.931 . S
H617 C605 0.930 . S
H618 C606 0.956 . S
H619 C606 0.961 . S
H620 C606 0.961 . S
H621 C607 0.958 . S
H622 C607 0.961 . S
H623 C607 0.960 . S
C624 C625 1.391 . S
C624 C626 1.394 . S
C624 H640 0.931 . S
C625 C624 1.391 . S
C625 C629 1.376 . S
C626 C624 1.394 . S
C626 C627 1.369 . S
C626 C630 1.531 . S
C627 C626 1.369 . S
C627 C628 1.410 . S
C627 C635 1.503 . S
C628 C627 1.410 . S
C628 C629 1.392 . S
C628 C631 1.511 . S
C629 C625 1.376 . S
C629 C628 1.392 . S
C629 H641 0.929 . S
C630 C626 1.531 . S
C630 H642 0.960 . S
C630 H643 0.962 . S
C630 H644 0.960 . S
C631 C628 1.511 . S
C631 H645 0.961 . S
C631 H646 0.961 . S
C631 H647 0.961 . S
C632 C633 1.370 . S
C632 C634 1.363 . S
C632 H648 0.931 . S
C633 C632 1.370 . S
C633 C637 1.408 . S
C634 C632 1.363 . S
C634 C635 1.370 . S
C634 C638 1.524 . S
C635 C627 1.503 . S
C635 C634 1.370 . S
C635 C636 1.403 . S
C636 C635 1.403 . S
C636 C637 1.404 . S
C636 C639 1.539 . S
C637 C633 1.408 . S
C637 C636 1.404 . S
C637 H649 0.930 . S
C638 C634 1.524 . S
C638 H650 0.956 . S
C638 H651 0.961 . S
C638 H652 0.961 . S
C639 C636 1.539 . S
C639 H653 0.958 . S
C639 H654 0.961 . S
C639 H655 0.960 . S
H640 C624 0.931 . S
H641 C629 0.929 . S
H642 C630 0.960 . S
H643 C630 0.962 . S
H644 C630 0.960 . S
H645 C631 0.961 . S
H646 C631 0.961 . S
H647 C631 0.961 . S
H648 C632 0.931 . S
H649 C637 0.930 . S
H650 C638 0.956 . S
H651 C638 0.961 . S
H652 C638 0.961 . S
H653 C639 0.958 . S
H654 C639 0.961 . S
H655 C639 0.960 . S
C656 C657 1.391 . S
C656 C658 1.394 . S
C656 H672 0.931 . S
C657 C656 1.391 . S
C657 C661 1.376 . S
C658 C656 1.394 . S
C658 C659 1.369 . S
C658 C662 1.531 . S
C659 C658 1.369 . S
C659 C660 1.410 . S
C659 C667 1.503 . S
C660 C659 1.410 . S
C660 C661 1.392 . S
C660 C663 1.511 . S
C661 C657 1.376 . S
C661 C660 1.392 . S
C661 H673 0.929 . S
C662 C658 1.531 . S
C662 H674 0.960 . S
C662 H675 0.962 . S
C662 H676 0.960 . S
C663 C660 1.511 . S
C663 H677 0.961 . S
C663 H678 0.961 . S
C663 H679 0.961 . S
C664 C665 1.370 . S
C664 C666 1.363 . S
C664 H680 0.931 . S
C665 C664 1.370 . S
C665 C669 1.408 . S
C666 C664 1.363 . S
C666 C667 1.370 . S
C666 C670 1.524 . S
C667 C659 1.503 . S
C667 C666 1.370 . S
C667 C668 1.403 . S
C668 C667 1.403 . S
C668 C669 1.404 . S
C668 C671 1.539 . S
C669 C665 1.408 . S
C669 C668 1.404 . S
C669 H681 0.930 . S
C670 C666 1.524 . S
C670 H682 0.956 . S
C670 H683 0.961 . S
C670 H684 0.961 . S
C671 C668 1.539 . S
C671 H685 0.958 . S
C671 H686 0.961 . S
C671 H687 0.960 . S
H672 C656 0.931 . S
H673 C661 0.929 . S
H674 C662 0.960 . S
H675 C662 0.962 . S
H676 C662 0.960 . S
H677 C663 0.961 . S
H678 C663 0.961 . S
H679 C663 0.961 . S
H680 C664 0.931 . S
H681 C669 0.930 . S
H682 C670 0.956 . S
H683 C670 0.961 . S
H684 C670 0.961 . S
H685 C671 0.958 . S
H686 C671 0.961 . S
H687 C671 0.960 . S
C688 C689 1.391 . S
C688 C690 1.394 . S
C688 H704 0.931 . S
C689 C688 1.391 . S
C689 C693 1.376 . S
C690 C688 1.394 . S
C690 C691 1.369 . S
C690 C694 1.531 . S
C691 C690 1.369 . S
C691 C692 1.410 . S
C691 C699 1.503 . S
C692 C691 1.410 . S
C692 C693 1.392 . S
C692 C695 1.511 . S
C693 C689 1.376 . S
C693 C692 1.392 . S
C693 H705 0.929 . S
C694 C690 1.531 . S
C694 H706 0.960 . S
C694 H707 0.962 . S
C694 H708 0.960 . S
C695 C692 1.511 . S
C695 H709 0.961 . S
C695 H710 0.961 . S
C695 H711 0.961 . S
C696 C697 1.370 . S
C696 C698 1.363 . S
C696 H712 0.931 . S
C697 C696 1.370 . S
C697 C701 1.408 . S
C698 C696 1.363 . S
C698 C699 1.370 . S
C698 C702 1.524 . S
C699 C691 1.503 . S
C699 C698 1.370 . S
C699 C700 1.403 . S
C700 C699 1.403 . S
C700 C701 1.404 . S
C700 C703 1.539 . S
C701 C697 1.408 . S
C701 C700 1.404 . S
C701 H713 0.930 . S
C702 C698 1.524 . S
C702 H714 0.956 . S
C702 H715 0.961 . S
C702 H716 0.961 . S
C703 C700 1.539 . S
C703 H717 0.958 . S
C703 H718 0.961 . S
C703 H719 0.960 . S
H704 C688 0.931 . S
H705 C693 0.929 . S
H706 C694 0.960 . S
H707 C694 0.962 . S
H708 C694 0.960 . S
H709 C695 0.961 . S
H710 C695 0.961 . S
H711 C695 0.961 . S
H712 C696 0.931 . S
H713 C701 0.930 . S
H714 C702 0.956 . S
H715 C702 0.961 . S
H716 C702 0.961 . S
H717 C703 0.958 . S
H718 C703 0.961 . S
H719 C703 0.960 . S
C720 C721 1.391 . S
C720 C722 1.394 . S
C720 H736 0.931 . S
C721 C720 1.391 . S
C721 C725 1.376 . S
C722 C720 1.394 . S
C722 C723 1.369 . S
C722 C726 1.531 . S
C723 C722 1.369 . S
C723 C724 1.410 . S
C723 C731 1.503 . S
C724 C723 1.410 . S
C724 C725 1.392 . S
C724 C727 1.511 . S
C725 C721 1.376 . S
C725 C724 1.392 . S
C725 H737 0.929 . S
C726 C722 1.531 . S
C726 H738 0.960 . S
C726 H739 0.962 . S
C726 H740 0.960 . S
C727 C724 1.511 . S
C727 H741 0.961 . S
C727 H742 0.961 . S
C727 H743 0.961 . S
C728 C729 1.370 . S
C728 C730 1.363 . S
C728 H744 0.931 . S
C729 C728 1.370 . S
C729 C733 1.408 . S
C730 C728 1.363 . S
C730 C731 1.370 . S
C730 C734 1.524 . S
C731 C723 1.503 . S
C731 C730 1.370 . S
C731 C732 1.403 . S
C732 C731 1.403 . S
C732 C733 1.404 . S
C732 C735 1.539 . S
C733 C729 1.408 . S
C733 C732 1.404 . S
C733 H745 0.930 . S
C734 C730 1.524 . S
C734 H746 0.956 . S
C734 H747 0.961 . S
C734 H748 0.961 . S
C735 C732 1.539 . S
C735 H749 0.958 . S
C735 H750 0.961 . S
C735 H751 0.960 . S
H736 C720 0.931 . S
H737 C725 0.929 . S
H738 C726 0.960 . S
H739 C726 0.962 . S
H740 C726 0.960 . S
H741 C727 0.961 . S
H742 C727 0.961 . S
H743 C727 0.961 . S
H744 C728 0.931 . S
H745 C733 0.930 . S
H746 C734 0.956 . S
H747 C734 0.961 . S
H748 C734 0.961 . S
H749 C735 0.958 . S
H750 C735 0.961 . S
H751 C735 0.960 . S
C752 C753 1.391 . S
C752 C754 1.394 . S
C752 H768 0.931 . S
C753 C752 1.391 . S
C753 C757 1.376 . S
C754 C752 1.394 . S
C754 C755 1.369 . S
C754 C758 1.531 . S
C755 C754 1.369 . S
C755 C756 1.410 . S
C755 C763 1.503 . S
C756 C755 1.410 . S
C756 C757 1.392 . S
C756 C759 1.511 . S
C757 C753 1.376 . S
C757 C756 1.392 . S
C757 H769 0.929 . S
C758 C754 1.531 . S
C758 H770 0.960 . S
C758 H771 0.962 . S
C758 H772 0.960 . S
C759 C756 1.511 . S
C759 H773 0.961 . S
C759 H774 0.961 . S
C759 H775 0.961 . S
C760 C761 1.370 . S
C760 C762 1.363 . S
C760 H776 0.931 . S
C761 C760 1.370 . S
C761 C765 1.408 . S
C762 C760 1.363 . S
C762 C763 1.370 . S
C762 C766 1.524 . S
C763 C755 1.503 . S
C763 C762 1.370 . S
C763 C764 1.403 . S
C764 C763 1.403 . S
C764 C765 1.404 . S
C764 C767 1.539 . S
C765 C761 1.408 . S
C765 C764 1.404 . S
C765 H777 0.930 . S
C766 C762 1.524 . S
C766 H778 0.956 . S
C766 H779 0.961 . S
C766 H780 0.961 . S
C767 C764 1.539 . S
C767 H781 0.958 . S
C767 H782 0.961 . S
C767 H783 0.960 . S
H768 C752 0.931 . S
H769 C757 0.929 . S
H770 C758 0.960 . S
H771 C758 0.962 . S
H772 C758 0.960 . S
H773 C759 0.961 . S
H774 C759 0.961 . S
H775 C759 0.961 . S
H776 C760 0.931 . S
H777 C765 0.930 . S
H778 C766 0.956 . S
H779 C766 0.961 . S
H780 C766 0.961 . S
H781 C767 0.958 . S
H782 C767 0.961 . S
H783 C767 0.960 . S
C784 C785 1.391 . S
C784 C786 1.394 . S
C784 H800 0.931 . S
C785 C784 1.391 . S
C785 C789 1.376 . S
C786 C784 1.394 . S
C786 C787 1.369 . S
C786 C790 1.531 . S
C787 C786 1.369 . S
C787 C788 1.410 . S
C787 C795 1.503 . S
C788 C787 1.410 . S
C788 C789 1.392 . S
C788 C791 1.511 . S
C789 C785 1.376 . S
C789 C788 1.392 . S
C789 H801 0.929 . S
C790 C786 1.531 . S
C790 H802 0.960 . S
C790 H803 0.962 . S
C790 H804 0.960 . S
C791 C788 1.511 . S
C791 H805 0.961 . S
C791 H806 0.961 . S
C791 H807 0.961 . S
C792 C793 1.370 . S
C792 C794 1.363 . S
C792 H808 0.931 . S
C793 C792 1.370 . S
C793 C797 1.408 . S
C794 C792 1.363 . S
C794 C795 1.370 . S
C794 C798 1.524 . S
C795 C787 1.503 . S
C795 C794 1.370 . S
C795 C796 1.403 . S
C796 C795 1.403 . S
C796 C797 1.404 . S
C796 C799 1.539 . S
C797 C793 1.408 . S
C797 C796 1.404 . S
C797 H809 0.930 . S
C798 C794 1.524 . S
C798 H810 0.956 . S
C798 H811 0.961 . S
C798 H812 0.961 . S
C799 C796 1.539 . S
C799 H813 0.958 . S
C799 H814 0.961 . S
C799 H815 0.960 . S
H800 C784 0.931 . S
H801 C789 0.929 . S
H802 C790 0.960 . S
H803 C790 0.962 . S
H804 C790 0.960 . S
H805 C791 0.961 . S
H806 C791 0.961 . S
H807 C791 0.961 . S
H808 C792 0.931 . S
H809 C797 0.930 . S
H810 C798 0.956 . S
H811 C798 0.961 . S
H812 C798 0.961 . S
H813 C799 0.958 . S
H814 C799 0.961 . S
H815 C799 0.960 . S
C816 C817 1.391 . S
C816 C818 1.394 . S
C816 H832 0.931 . S
C817 C816 1.391 . S
C817 C821 1.376 . S
C818 C816 1.394 . S
C818 C819 1.369 . S
C818 C822 1.531 . S
C819 C818 1.369 . S
C819 C820 1.410 . S
C819 C827 1.503 . S
C820 C819 1.410 . S
C820 C821 1.392 . S
C820 C823 1.511 . S
C821 C817 1.376 . S
C821 C820 1.392 . S
C821 H833 0.929 . S
C822 C818 1.531 . S
C822 H834 0.960 . S
C822 H835 0.962 . S
C822 H836 0.960 . S
C823 C820 1.511 . S
C823 H837 0.961 . S
C823 H838 0.961 . S
C823 H839 0.961 . S
C824 C825 1.370 . S
C824 C826 1.363 . S
C824 H840 0.931 . S
C825 C824 1.370 . S
C825 C829 1.408 . S
C826 C824 1.363 . S
C826 C827 1.370 . S
C826 C830 1.524 . S
C827 C819 1.503 . S
C827 C826 1.370 . S
C827 C828 1.403 . S
C828 C827 1.403 . S
C828 C829 1.404 . S
C828 C831 1.539 . S
C829 C825 1.408 . S
C829 C828 1.404 . S
C829 H841 0.930 . S
C830 C826 1.524 . S
C830 H842 0.956 . S
C830 H843 0.961 . S
C830 H844 0.961 . S
C831 C828 1.539 . S
C831 H845 0.958 . S
C831 H846 0.961 . S
C831 H847 0.960 . S
H832 C816 0.931 . S
H833 C821 0.929 . S
H834 C822 0.960 . S
H835 C822 0.962 . S
H836 C822 0.960 . S
H837 C823 0.961 . S
H838 C823 0.961 . S
H839 C823 0.961 . S
H840 C824 0.931 . S
H841 C829 0.930 . S
H842 C830 0.956 . S
H843 C830 0.961 . S
H844 C830 0.961 . S
H845 C831 0.958 . S
H846 C831 0.961 . S
H847 C831 0.960 . S
C848 C849 1.391 . S
C848 C850 1.394 . S
C848 H864 0.931 . S
C849 C848 1.391 . S
C849 C853 1.376 . S
C850 C848 1.394 . S
C850 C851 1.369 . S
C850 C854 1.531 . S
C851 C850 1.369 . S
C851 C852 1.410 . S
C851 C859 1.503 . S
C852 C851 1.410 . S
C852 C853 1.392 . S
C852 C855 1.511 . S
C853 C849 1.376 . S
C853 C852 1.392 . S
C853 H865 0.929 . S
C854 C850 1.531 . S
C854 H866 0.960 . S
C854 H867 0.962 . S
C854 H868 0.960 . S
C855 C852 1.511 . S
C855 H869 0.961 . S
C855 H870 0.961 . S
C855 H871 0.961 . S
C856 C857 1.370 . S
C856 C858 1.363 . S
C856 H872 0.931 . S
C857 C856 1.370 . S
C857 C861 1.408 . S
C858 C856 1.363 . S
C858 C859 1.370 . S
C858 C862 1.524 . S
C859 C851 1.503 . S
C859 C858 1.370 . S
C859 C860 1.403 . S
C860 C859 1.403 . S
C860 C861 1.404 . S
C860 C863 1.539 . S
C861 C857 1.408 . S
C861 C860 1.404 . S
C861 H873 0.930 . S
C862 C858 1.524 . S
C862 H874 0.956 . S
C862 H875 0.961 . S
C862 H876 0.961 . S
C863 C860 1.539 . S
C863 H877 0.958 . S
C863 H878 0.961 . S
C863 H879 0.960 . S
H864 C848 0.931 . S
H865 C853 0.929 . S
H866 C854 0.960 . S
H867 C854 0.962 . S
H868 C854 0.960 . S
H869 C855 0.961 . S
H870 C855 0.961 . S
H871 C855 0.961 . S
H872 C856 0.931 . S
H873 C861 0.930 . S
H874 C862 0.956 . S
H875 C862 0.961 . S
H876 C862 0.961 . S
H877 C863 0.958 . S
H878 C863 0.961 . S
H879 C863 0.960 . S
C880 C881 1.391 . S
C880 C882 1.394 . S
C880 H896 0.931 . S
C881 C880 1.391 . S
C881 C885 1.376 . S
C882 C880 1.394 . S
C882 C883 1.369 . S
C882 C886 1.531 . S
C883 C882 1.369 . S
C883 C884 1.410 . S
C883 C891 1.503 . S
C884 C883 1.410 . S
C884 C885 1.392 . S
C884 C887 1.511 . S
C885 C881 1.376 . S
C885 C884 1.392 . S
C885 H897 0.929 . S
C886 C882 1.531 . S
C886 H898 0.960 . S
C886 H899 0.962 . S
C886 H900 0.960 . S
C887 C884 1.511 . S
C887 H901 0.961 . S
C887 H902 0.961 . S
C887 H903 0.961 . S
C888 C889 1.370 . S
C888 C890 1.363 . S
C888 H904 0.931 . S
C889 C888 1.370 . S
C889 C893 1.408 . S
C890 C888 1.363 . S
C890 C891 1.370 . S
C890 C894 1.524 . S
C891 C883 1.503 . S
C891 C890 1.370 . S
C891 C892 1.403 . S
C892 C891 1.403 . S
C892 C893 1.404 . S
C892 C895 1.539 . S
C893 C889 1.408 . S
C893 C892 1.404 . S
C893 H905 0.930 . S
C894 C890 1.524 . S
C894 H906 0.956 . S
C894 H907 0.961 . S
C894 H908 0.961 . S
C895 C892 1.539 . S
C895 H909 0.958 . S
C895 H910 0.961 . S
C895 H911 0.960 . S
H896 C880 0.931 . S
H897 C885 0.929 . S
H898 C886 0.960 . S
H899 C886 0.962 . S
H900 C886 0.960 . S
H901 C887 0.961 . S
H902 C887 0.961 . S
H903 C887 0.961 . S
H904 C888 0.931 . S
H905 C893 0.930 . S
H906 C894 0.956 . S
H907 C894 0.961 . S
H908 C894 0.961 . S
H909 C895 0.958 . S
H910 C895 0.961 . S
H911 C895 0.960 . S
C912 C913 1.391 . S
C912 C914 1.394 . S
C912 H928 0.931 . S
C913 C912 1.391 . S
C913 C917 1.376 . S
C914 C912 1.394 . S
C914 C915 1.369 . S
C914 C918 1.531 . S
C915 C914 1.369 . S
C915 C916 1.410 . S
C915 C923 1.503 . S
C916 C915 1.410 . S
C916 C917 1.392 . S
C916 C919 1.511 . S
C917 C913 1.376 . S
C917 C916 1.392 . S
C917 H929 0.929 . S
C918 C914 1.531 . S
C918 H930 0.960 . S
C918 H931 0.962 . S
C918 H932 0.960 . S
C919 C916 1.511 . S
C919 H933 0.961 . S
C919 H934 0.961 . S
C919 H935 0.961 . S
C920 C921 1.370 . S
C920 C922 1.363 . S
C920 H936 0.931 . S
C921 C920 1.370 . S
C921 C925 1.408 . S
C922 C920 1.363 . S
C922 C923 1.370 . S
C922 C926 1.524 . S
C923 C915 1.503 . S
C923 C922 1.370 . S
C923 C924 1.403 . S
C924 C923 1.403 . S
C924 C925 1.404 . S
C924 C927 1.539 . S
C925 C921 1.408 . S
C925 C924 1.404 . S
C925 H937 0.930 . S
C926 C922 1.524 . S
C926 H938 0.956 . S
C926 H939 0.961 . S
C926 H940 0.961 . S
C927 C924 1.539 . S
C927 H941 0.958 . S
C927 H942 0.961 . S
C927 H943 0.960 . S
H928 C912 0.931 . S
H929 C917 0.929 . S
H930 C918 0.960 . S
H931 C918 0.962 . S
H932 C918 0.960 . S
H933 C919 0.961 . S
H934 C919 0.961 . S
H935 C919 0.961 . S
H936 C920 0.931 . S
H937 C925 0.930 . S
H938 C926 0.956 . S
H939 C926 0.961 . S
H940 C926 0.961 . S
H941 C927 0.958 . S
H942 C927 0.961 . S
H943 C927 0.960 . S
C177 C96 1.642 . S
C185 C8 1.679 . S
C209 C19 1.678 . S
C217 C107 1.630 . S
C241 C118 1.603 . S
C249 C30 1.681 . S
C273 C41 1.673 . S
C281 C129 1.625 . S
C305 C52 1.679 . S
C313 C140 1.627 . S
C337 C151 1.651 . S
C345 C63 1.678 . S
C369 C162 1.642 . S
C377 C74 1.679 . S
C401 C173 1.651 . S
C409 C85 1.677 . S
C433 C7 1.575 . S
C441 C62 1.597 . S
C465 C73 1.572 . S
C473 C18 1.589 . S
C497 C84 1.575 . S
C505 C29 1.587 . S
C529 C40 1.578 . S
C537 C51 1.586 . S
C561 C95 1.551 . S
C569 C150 1.540 . S
C593 C161 1.534 . S
C601 C106 1.539 . S
C625 C117 1.528 . S
C633 C172 1.538 . S
C657 C139 1.488 . S
C665 C128 1.512 . S
C689 C137 1.353 . S
C697 C5 1.489 . S
C721 C148 1.365 . S
C729 C16 1.486 . S
C753 C27 1.439 . S
C761 C159 1.355 . S
C785 C170 1.360 . S
C793 C38 1.457 . S
C817 C49 1.467 . S
C825 C93 1.379 . S
C849 C104 1.348 . S
C857 C60 1.460 . S
C881 C115 1.382 . S
C889 C71 1.481 . S
C913 C126 1.364 . S
C921 C82 1.456 . S
