# Generated by pormake.
# Topology uom, (4)-cn, num edge types: 1
# Building blocks:
#     Node 0, Type 0, BuildingBlock: KOZSID_clean_sbu_0, # of connection points: 4
#     Node 1, Type 0, BuildingBlock: KOZSID_clean_sbu_0, # of connection points: 4
#     Node 2, Type 0, BuildingBlock: KOZSID_clean_sbu_0, # of connection points: 4
#     Node 3, Type 0, BuildingBlock: KOZSID_clean_sbu_0, # of connection points: 4
#     Node 4, Type 0, BuildingBlock: KOZSID_clean_sbu_0, # of connection points: 4
#     Node 5, Type 0, BuildingBlock: KOZSID_clean_sbu_0, # of connection points: 4
#     Edge 6, Type (0, 0), BuildingBlock: AJUNOK_clean_linker_0, # of connection points: 2
#     Edge 7, Type (0, 0), BuildingBlock: AJUNOK_clean_linker_0, # of connection points: 2
#     Edge 8, Type (0, 0), BuildingBlock: AJUNOK_clean_linker_0, # of connection points: 2
#     Edge 9, Type (0, 0), BuildingBlock: AJUNOK_clean_linker_0, # of connection points: 2
#     Edge 10, Type (0, 0), BuildingBlock: AJUNOK_clean_linker_0, # of connection points: 2
#     Edge 11, Type (0, 0), BuildingBlock: AJUNOK_clean_linker_0, # of connection points: 2
#     Edge 12, Type (0, 0), BuildingBlock: AJUNOK_clean_linker_0, # of connection points: 2
#     Edge 13, Type (0, 0), BuildingBlock: AJUNOK_clean_linker_0, # of connection points: 2
#     Edge 14, Type (0, 0), BuildingBlock: AJUNOK_clean_linker_0, # of connection points: 2
#     Edge 15, Type (0, 0), BuildingBlock: AJUNOK_clean_linker_0, # of connection points: 2
#     Edge 16, Type (0, 0), BuildingBlock: AJUNOK_clean_linker_0, # of connection points: 2
#     Edge 17, Type (0, 0), BuildingBlock: AJUNOK_clean_linker_0, # of connection points: 2
# Relax obj value: 0.157
# Max RMSD: 0.174
# Mean RMSD: 0.174
data_MOF--net-uom--node1-KOZSID_clean_sbu_0--edge1-AJUNOK_clean_linker_0
_symmetry_space_group_name_H-M    P1
_symmetry_Int_Tables_number       1
_symmetry_cell_setting            triclinic
loop_
_symmetry_equiv_pos_as_xyz
'x, y, z'
_cell_length_a     30.509642
_cell_length_b     30.547109
_cell_length_c     31.214545
_cell_angle_alpha  90.002021
_cell_angle_beta   90.004711
_cell_angle_gamma 120.01924
loop_
_atom_site_label
_atom_site_type_symbol
_atom_site_fract_x
_atom_site_fract_y
_atom_site_fract_z
_atom_type_partial_charge
C0 C 0.35519 0.12491 0.13466 0.0
C1 C 0.3498 0.10113 0.17377 0.0
C2 C 0.34148 0.05349 0.16491 0.0
C3 C 0.34242 0.05075 0.121 0.0
N4 N 0.35062 0.09363 0.10183 0.0
Co5 Co 0.35533 0.10536 0.03905 0.0
N6 N 0.31974 0.03186 0.02595 0.0
C7 C 0.31407 0.99536 0.0533 0.0
C8 C 0.28636 0.94781 0.036 0.0
C9 C 0.2742 0.95499 0.99521 0.0
C10 C 0.29555 0.00679 0.98958 0.0
N11 N 0.36004 0.11706 0.97626 0.0
C12 C 0.33302 0.08524 0.94381 0.0
C13 C 0.34917 0.1093 0.90451 0.0
C14 C 0.38735 0.15772 0.91287 0.0
C15 C 0.39264 0.16061 0.95667 0.0
N16 N 0.39055 0.17886 0.0521 0.0
C17 C 0.41887 0.21607 0.02427 0.0
C18 C 0.43603 0.26333 0.04135 0.0
C19 C 0.41766 0.25525 0.0825 0.0
C20 C 0.39073 0.20326 0.08864 0.0
N21 N 0.42037 0.10716 0.03824 0.0
C22 C 0.51207 0.10705 0.03864 0.0
C23 C 0.47546 0.08049 1.00724 0.0
C24 C 0.43002 0.08119 1.00749 0.0
C25 C 0.5023 0.13446 0.06934 0.0
C26 C 0.45616 0.1338 0.06875 0.0
N27 N 0.291 0.1035 0.03993 0.0
C28 C 0.23967 0.13843 0.01802 0.0
C29 C 0.19858 0.10035 0.04035 0.0
C30 C 0.20459 0.06426 0.06296 0.0
C31 C 0.2512 0.0664 0.0622 0.0
C32 C 0.28562 0.1393 0.01819 0.0
H33 H 0.25499 0.03794 0.07946 0.0
H34 H 0.31677 0.16891 1.00072 0.0
H35 H 0.40255 0.06041 0.98289 0.0
H36 H 0.4493 0.15453 0.09326 0.0
C37 C 0.32683 0.00662 0.09675 0.0
C38 C 0.3685 0.17823 0.12999 0.0
C39 C 0.29478 0.03133 0.94894 0.0
C40 C 0.41989 0.20514 0.98068 0.0
H41 H 0.35192 0.11668 0.20537 0.0
H42 H 0.33367 0.0238 0.18775 0.0
H43 H 0.27429 0.91201 0.05179 0.0
H44 H 0.25192 0.92535 0.97249 0.0
H45 H 0.33494 0.09348 0.87313 0.0
H46 H 0.40724 0.18779 0.88984 0.0
H47 H 0.45711 0.29936 0.02518 0.0
H48 H 0.42333 0.28441 0.10516 0.0
H49 H 0.482 0.05953 0.98251 0.0
H50 H 0.52972 0.15547 0.09414 0.0
H51 H 0.23637 0.16744 1.00078 0.0
H52 H 0.17337 0.0343 0.08053 0.0
C53 C 0.33086 0.3509 0.46805 0.0
C54 C 0.34829 0.34484 0.50743 0.0
C55 C 0.38739 0.33596 0.49913 0.0
C56 C 0.39191 0.33728 0.45529 0.0
N57 N 0.35796 0.34624 0.4356 0.0
Co58 Co 0.35248 0.35193 0.37271 0.0
N59 N 0.39006 0.31585 0.36013 0.0
C60 C 0.41951 0.30875 0.38808 0.0
C61 C 0.43813 0.27971 0.37135 0.0
C62 C 0.4195 0.26821 0.33032 0.0
C63 C 0.39093 0.29151 0.32389 0.0
N64 N 0.34715 0.35775 0.30983 0.0
C65 C 0.3527 0.33128 0.27734 0.0
C66 C 0.34615 0.34836 0.23799 0.0
C67 C 0.33598 0.38656 0.24634 0.0
C68 C 0.33708 0.39094 0.2902 0.0
N69 N 0.31437 0.38751 0.38527 0.0
C70 C 0.30639 0.41638 0.35737 0.0
C71 C 0.27621 0.43371 0.37404 0.0
C72 C 0.26493 0.41488 0.41501 0.0
C73 C 0.2895 0.38753 0.42147 0.0
N74 N 0.41611 0.41658 0.37306 0.0
C75 C 0.50701 0.50914 0.37347 0.0
C76 C 0.49817 0.47227 0.3427 0.0
C77 C 0.45241 0.42644 0.34286 0.0
C78 C 0.46961 0.49861 0.40422 0.0
C79 C 0.42458 0.45214 0.40355 0.0
N80 N 0.28958 0.28801 0.37235 0.0
C81 C 0.20393 0.23741 0.34833 0.0
C82 C 0.19996 0.19596 0.37068 0.0
C83 C 0.24129 0.2014 0.39427 0.0
C84 C 0.28592 0.24779 0.39456 0.0
C85 C 0.24915 0.28321 0.34963 0.0
H86 H 0.31751 0.25108 0.4126 0.0
H87 H 0.25143 0.31472 0.33222 0.0
H88 H 0.4464 0.39898 0.31847 0.0
H89 H 0.39662 0.44497 0.42781 0.0
C90 C 0.42032 0.32115 0.43151 0.0
C91 C 0.2913 0.36481 0.46285 0.0
C92 C 0.3677 0.29257 0.28255 0.0
C93 C 0.31943 0.41801 0.314 0.0
H94 H 0.33436 0.34684 0.53883 0.0
H95 H 0.40853 0.32749 0.52227 0.0
H96 H 0.46037 0.2662 0.38771 0.0
H97 H 0.42606 0.24506 0.30795 0.0
H98 H 0.34856 0.33471 0.20657 0.0
H99 H 0.32669 0.40708 0.22323 0.0
H100 H 0.26193 0.45528 0.35771 0.0
H101 H 0.24115 0.42058 0.43736 0.0
H102 H 0.52617 0.47908 0.31834 0.0
H103 H 0.47537 0.52586 0.42895 0.0
H104 H 0.17221 0.23456 0.33038 0.0
H105 H 0.23926 0.16989 0.41193 0.0
C106 C 0.08621 0.33095 0.8031 0.0
C107 C 0.11075 0.34798 0.84212 0.0
C108 C 0.15896 0.3863 0.83316 0.0
C109 C 0.16124 0.39078 0.78929 0.0
N110 N 0.1175 0.35757 0.77024 0.0
Co111 Co 0.10497 0.35149 0.70755 0.0
N112 N 0.1784 0.38694 0.69385 0.0
C113 C 0.2159 0.41604 0.72122 0.0
C114 C 0.26307 0.43349 0.70373 0.0
C115 C 0.25463 0.41452 0.66278 0.0
C116 C 0.20251 0.38694 0.65717 0.0
N117 N 0.09235 0.34537 0.64486 0.0
C118 C 0.12337 0.34977 0.61184 0.0
C119 C 0.09892 0.34331 0.5729 0.0
C120 C 0.05113 0.33452 0.58205 0.0
C121 C 0.04897 0.33628 0.62594 0.0
N122 N 0.03156 0.31571 0.72135 0.0
C123 C 0.99449 0.30908 0.69419 0.0
C124 C 0.94717 0.28136 0.712 0.0
C125 C 0.9551 0.27016 0.75291 0.0
C126 C 0.00708 0.29208 0.75807 0.0
N127 N 0.1063 0.4163 0.70745 0.0
C128 C 0.10869 0.50922 0.7072 0.0
C129 C 0.13436 0.49802 0.6758 0.0
C130 C 0.1326 0.45143 0.67642 0.0
C131 C 0.0814 0.47277 0.73852 0.0
C132 C 0.08094 0.42675 0.73825 0.0
N133 N 0.10374 0.28747 0.70755 0.0
C134 C 0.06532 0.20089 0.68534 0.0
C135 C 0.10221 0.19584 0.7077 0.0
C136 C 0.14012 0.23745 0.72965 0.0
C137 C 0.14019 0.28298 0.72919 0.0
C138 C 0.06664 0.24708 0.68582 0.0
H139 H 0.16979 0.31456 0.74627 0.0
H140 H 0.03764 0.25013 0.66868 0.0
H141 H 0.15255 0.44385 0.65166 0.0
H142 H 0.06011 0.39963 0.76306 0.0
C143 C 0.20546 0.41783 0.76482 0.0
C144 C 0.03234 0.2922 0.79857 0.0
C145 C 0.17708 0.36405 0.6161 0.0
C146 C 0.00507 0.32086 0.65054 0.0
H147 H 0.0954 0.33419 0.87371 0.0
H148 H 0.18932 0.40678 0.85585 0.0
H149 H 0.29932 0.45528 0.71949 0.0
H150 H 0.28364 0.42032 0.63988 0.0
H151 H 0.11414 0.34508 0.54121 0.0
H152 H 0.021 0.32597 0.55942 0.0
H153 H 0.91104 0.26858 0.69647 0.0
H154 H 0.92582 0.24811 0.77599 0.0
H155 H 0.15519 0.52485 0.6506 0.0
H156 H 0.06111 0.48006 0.76339 0.0
H157 H 0.03542 0.16925 0.66809 0.0
H158 H 0.1697 0.23494 0.74672 0.0
C159 C 0.85944 0.08429 0.13722 0.0
C160 C 0.86731 0.10832 0.17652 0.0
C161 C 0.87747 0.15671 0.16818 0.0
C162 C 0.87506 0.1596 0.12437 0.0
N163 N 0.86416 0.11609 0.10481 0.0
Co164 Co 0.85755 0.1044 0.04206 0.0
N165 N 0.89604 0.17788 0.02904 0.0
C166 C 0.90426 0.21501 0.05671 0.0
C167 C 0.93337 0.26231 0.03933 0.0
C168 C 0.94373 0.25432 0.99815 0.0
C169 C 0.91997 0.20234 0.99241 0.0
N170 N 0.85099 0.09268 0.97927 0.0
C171 C 0.87823 0.12388 0.94658 0.0
C172 C 0.86024 0.1001 0.9074 0.0
C173 C 0.82059 0.05254 0.91609 0.0
C174 C 0.81632 0.04984 0.95997 0.0
N175 N 0.81931 0.03093 0.05507 0.0
C176 C 0.78845 0.99447 0.02766 0.0
C177 C 0.76848 0.94691 0.04494 0.0
C178 C 0.7878 0.95406 0.08576 0.0
C179 C 0.81836 0.00586 0.0914 0.0
N180 N 0.79433 0.10625 0.04248 0.0
C181 C 0.70271 0.10651 0.04194 0.0
C182 C 0.71261 0.08003 0.07347 0.0
C183 C 0.75863 0.08051 0.07327 0.0
C184 C 0.73993 0.13361 0.01114 0.0
C185 C 0.78531 0.13276 0.0118 0.0
N186 N 0.91992 0.10239 0.04173 0.0
C187 C 0.96661 0.06251 0.01948 0.0
C188 C 0.00891 0.09879 0.04185 0.0
C189 C 0.0059 0.13659 0.06454 0.0
C190 C 0.961 0.13788 0.06389 0.0
C191 C 0.92238 0.06499 0.01983 0.0
H192 H 0.95953 0.16759 0.08123 0.0
H193 H 0.89016 0.03664 1.00243 0.0
H194 H 0.76521 0.05979 0.09798 0.0
H195 H 0.81295 0.15328 0.98725 0.0
C196 C 0.8922 0.20411 0.10031 0.0
C197 C 0.84387 0.03044 0.13197 0.0
C198 C 0.91828 0.17722 0.95141 0.0
C199 C 0.78735 0.00574 0.98415 0.0
H200 H 0.86579 0.0925 0.20788 0.0
H201 H 0.88761 0.18676 0.19122 0.0
H202 H 0.94745 0.29837 0.05525 0.0
H203 H 0.96638 0.28354 0.97523 0.0
H204 H 0.87414 0.1156 0.87587 0.0
H205 H 0.79887 0.02286 0.89318 0.0
H206 H 0.74479 0.91112 0.0291 0.0
H207 H 0.7804 0.9244 0.10845 0.0
H208 H 0.6851 0.05931 0.09827 0.0
H209 H 0.73362 0.15455 0.98623 0.0
H210 H 0.96769 0.0324 1.00202 0.0
H211 H 0.03821 0.16533 0.08202 0.0
C212 C 0.87777 0.855 0.46899 0.0
C213 C 0.86102 0.86229 0.50824 0.0
C214 C 0.82256 0.87211 0.49973 0.0
C215 C 0.81772 0.87009 0.4559 0.0
N216 N 0.85085 0.85977 0.43646 0.0
Co217 Co 0.8563 0.85341 0.37371 0.0
N218 N 0.82083 0.89143 0.36065 0.0
C219 C 0.79149 0.8992 0.38821 0.0
C220 C 0.77324 0.92827 0.37089 0.0
C221 C 0.79202 0.9391 0.32986 0.0
C222 C 0.8205 0.91557 0.32412 0.0
N223 N 0.8618 0.84712 0.31095 0.0
C224 C 0.8579 0.87445 0.27831 0.0
C225 C 0.86415 0.85683 0.23912 0.0
C226 C 0.87234 0.81736 0.24776 0.0
C227 C 0.87046 0.81282 0.29162 0.0
N228 N 0.89203 0.81567 0.38683 0.0
C229 C 0.89819 0.78522 0.35938 0.0
C230 C 0.92612 0.76563 0.37671 0.0
C231 C 0.93791 0.78475 0.4176 0.0
C232 C 0.9161 0.81479 0.42326 0.0
N233 N 0.79139 0.79003 0.3739 0.0
C234 C 0.6984 0.69958 0.37413 0.0
C235 C 0.70925 0.73641 0.34281 0.0
C236 C 0.75593 0.78123 0.34317 0.0
C237 C 0.73517 0.70872 0.40513 0.0
C238 C 0.78124 0.75426 0.40464 0.0
N239 N 0.92044 0.91603 0.37344 0.0
C240 C 0.00654 0.96397 0.34987 0.0
C241 C 0.01185 0.0063 0.37162 0.0
C242 C 0.97096 0.00261 0.3948 0.0
C243 C 0.92542 0.95708 0.39517 0.0
C244 C 0.96044 0.91908 0.35122 0.0
H245 H 0.89416 0.95511 0.41282 0.0
H246 H 0.95709 0.88688 0.33422 0.0
H247 H 0.76333 0.80874 0.31847 0.0
H248 H 0.80864 0.76054 0.4292 0.0
C249 C 0.79014 0.88695 0.43178 0.0
C250 C 0.91644 0.83986 0.46393 0.0
C251 C 0.84438 0.9143 0.28324 0.0
C252 C 0.88593 0.78413 0.31583 0.0
H253 H 0.87503 0.86055 0.53968 0.0
H254 H 0.80215 0.88172 0.52271 0.0
H255 H 0.75101 0.9421 0.38679 0.0
H256 H 0.78558 0.96195 0.30709 0.0
H257 H 0.86273 0.87088 0.20763 0.0
H258 H 0.88077 0.796 0.22484 0.0
H259 H 0.93868 0.74232 0.36086 0.0
H260 H 0.96032 0.77755 0.44031 0.0
H261 H 0.6821 0.73039 0.31787 0.0
H262 H 0.72812 0.68113 0.42991 0.0
H263 H 0.03785 0.96546 0.33224 0.0
H264 H 0.974 0.03484 0.41197 0.0
C265 C 0.12588 0.87585 0.80158 0.0
C266 C 0.10194 0.85811 0.84074 0.0
C267 C 0.05423 0.81867 0.83202 0.0
C268 C 0.05163 0.81428 0.78815 0.0
N269 N 0.09466 0.84864 0.76886 0.0
Co270 Co 0.10656 0.8549 0.70609 0.0
N271 N 0.03302 0.81697 0.6929 0.0
C272 C 0.99634 0.78654 0.72035 0.0
C273 C 0.94879 0.7668 0.70297 0.0
C274 C 0.95616 0.78579 0.66204 0.0
C275 C 0.00807 0.81591 0.65642 0.0
N276 N 0.11845 0.86113 0.64335 0.0
C277 C 0.08676 0.85617 0.61075 0.0
C278 C 0.11092 0.86358 0.57154 0.0
C279 C 0.15928 0.87367 0.58015 0.0
C280 C 0.16204 0.87168 0.62399 0.0
N281 N 0.18011 0.89316 0.71927 0.0
C282 C 0.21732 0.90111 0.69175 0.0
C283 C 0.26465 0.93013 0.70919 0.0
C284 C 0.25661 0.94073 0.75026 0.0
C285 C 0.20455 0.91717 0.7559 0.0
N286 N 0.10811 0.79153 0.70602 0.0
C287 C 0.10986 0.70069 0.70617 0.0
C288 C 0.13648 0.73784 0.73714 0.0
C289 C 0.13493 0.78281 0.73664 0.0
C290 C 0.08217 0.7098 0.67523 0.0
C291 C 0.08211 0.75555 0.67549 0.0
N292 N 0.1049 0.91746 0.70613 0.0
C293 C 0.13979 0.0035 0.68341 0.0
C294 C 0.10236 0.00701 0.70635 0.0
C295 C 0.06589 0.96488 0.72876 0.0
C296 C 0.06779 0.92037 0.72818 0.0
C297 C 0.14057 0.95836 0.68391 0.0
H298 H 0.03926 0.88831 0.74559 0.0
H299 H 0.17007 0.95656 0.66644 0.0
H300 H 0.15536 0.81048 0.76118 0.0
H301 H 0.06095 0.76176 0.65094 0.0
C302 C 0.00748 0.78552 0.76391 0.0
C303 C 0.17934 0.91569 0.7968 0.0
C304 C 0.03285 0.8408 0.6157 0.0
C305 C 0.20649 0.88882 0.64819 0.0
H306 H 0.11741 0.87205 0.87226 0.0
H307 H 0.0244 0.7972 0.85489 0.0
H308 H 0.91288 0.74346 0.7188 0.0
H309 H 0.92656 0.77844 0.63926 0.0
H310 H 0.0952 0.86176 0.54007 0.0
H311 H 0.18942 0.88346 0.55723 0.0
H312 H 0.30078 0.94399 0.69336 0.0
H313 H 0.28585 0.9634 0.77317 0.0
H314 H 0.1578 0.73189 0.76194 0.0
H315 H 0.0612 0.682 0.65069 0.0
H316 H 0.16864 0.03563 0.66585 0.0
H317 H 0.03603 0.96629 0.74639 0.0
C318 C 0.32377 0.19878 0.18839 0.0
C319 C 0.36935 0.20808 0.16893 0.0
C320 C 0.32359 0.22592 0.22504 0.0
C321 C 0.36899 0.26328 0.24399 0.0
H322 H 0.28792 0.17038 0.17503 0.0
H323 H 0.2876 0.2176 0.23873 0.0
S324 S 0.49855 0.30197 0.20576 0.0
N325 N 0.46113 0.25628 0.17259 0.0
N326 N 0.46075 0.30909 0.23936 0.0
C327 C 0.41474 0.27312 0.22463 0.0
C328 C 0.41494 0.24497 0.18785 0.0
C329 C 0.22544 0.32015 0.52085 0.0
C330 C 0.26189 0.36568 0.5015 0.0
C331 C 0.19834 0.31995 0.55768 0.0
C332 C 0.2068 0.36528 0.57693 0.0
H333 H 0.21784 0.28434 0.50736 0.0
H334 H 0.17068 0.28401 0.57137 0.0
S335 S 0.29812 0.49472 0.53906 0.0
N336 N 0.30594 0.45735 0.50552 0.0
N337 N 0.25318 0.45695 0.57267 0.0
C338 C 0.24274 0.411 0.5576 0.0
C339 C 0.27086 0.41121 0.52062 0.0
C340 C 0.9396 0.24389 0.89379 0.0
C341 C 0.94823 0.20695 0.91274 0.0
C342 C 0.96666 0.27119 0.85714 0.0
C343 C 0.00272 0.26194 0.83716 0.0
H344 H 0.91159 0.25173 0.9074 0.0
H345 H 0.95938 0.29991 0.84438 0.0
S346 S 0.03907 0.1689 0.87359 0.0
N347 N 0.99557 0.16271 0.90847 0.0
N348 N 0.04558 0.21316 0.83948 0.0
C349 C 0.01153 0.22503 0.85571 0.0
C350 C 0.98429 0.19754 0.8932 0.0
C351 C 0.79905 0.96413 0.18989 0.0
C352 C 0.84443 0.00015 0.17002 0.0
C353 C 0.7992 0.93644 0.22608 0.0
C354 C 0.84476 0.9445 0.24473 0.0
H355 H 0.76306 0.95737 0.17743 0.0
H356 H 0.76327 0.90848 0.23962 0.0
S357 S 0.97384 0.0346 0.20528 0.0
N358 N 0.93611 0.04203 0.17176 0.0
N359 N 0.93645 0.991 0.24004 0.0
C360 C 0.89032 0.98041 0.22518 0.0
C361 C 0.89014 0.00821 0.1881 0.0
C362 C 0.96619 0.79543 0.55801 0.0
C363 C 0.00271 0.84098 0.57733 0.0
C364 C 0.93853 0.7952 0.52164 0.0
C365 C 0.94712 0.84051 0.5022 0.0
H366 H 0.95895 0.75959 0.57111 0.0
H367 H 0.91003 0.75918 0.50867 0.0
S368 S 0.03903 0.9699 0.53962 0.0
N369 N 0.04588 0.93256 0.57397 0.0
N370 N 0.99492 0.93214 0.50535 0.0
C371 C 0.98368 0.88622 0.52107 0.0
C372 C 0.01144 0.88645 0.55835 0.0
C373 C 0.27363 0.96505 0.89095 0.0
C374 C 0.26419 0.00106 0.9107 0.0
C375 C 0.24623 0.93761 0.85446 0.0
C376 C 0.20903 0.94585 0.83542 0.0
H377 H 0.30263 0.95814 0.90371 0.0
H378 H 0.25424 0.90967 0.84102 0.0
S379 S 0.1703 0.03626 0.87409 0.0
N380 N 0.21484 0.04332 0.90816 0.0
N381 N 0.16426 0.99268 0.83943 0.0
C382 C 0.19938 0.9818 0.85477 0.0
C383 C 0.22694 0.00938 0.89212 0.0
C384 C 0.12592 0.09747 0.07901 0.0
C385 C 0.14953 0.09843 0.04011 0.0
C386 C 0.08013 0.09751 0.0794 0.0
C387 C 0.05653 0.09789 0.04088 0.0
H388 H 0.14341 0.09758 0.10926 0.0
H389 H 0.06299 0.09707 0.10992 0.0
S390 S 0.10261 0.0993 0.9309 0.0
N391 N 0.14577 0.09867 0.96236 0.0
N392 N 0.05963 0.09914 0.96309 0.0
C393 C 0.07946 0.09826 1.00185 0.0
C394 C 0.12611 0.09848 1.00146 0.0
C395 C 0.08342 0.07829 0.40905 0.0
C396 C 0.06005 0.05427 0.37048 0.0
C397 C 0.12915 0.12405 0.40882 0.0
C398 C 0.15248 0.14729 0.37002 0.0
H399 H 0.06637 0.06139 0.43954 0.0
H400 H 0.14605 0.14173 0.43914 0.0
S401 S 0.10655 0.09941 0.26053 0.0
N402 N 0.06322 0.0567 0.29262 0.0
N403 N 0.14973 0.14291 0.29222 0.0
C404 C 0.12959 0.12361 0.33126 0.0
C405 C 0.08319 0.07691 0.33149 0.0
C406 C 0.10019 0.12352 0.66915 0.0
C407 C 0.10131 0.14727 0.70801 0.0
C408 C 0.10073 0.07802 0.6688 0.0
C409 C 0.10176 0.05478 0.70732 0.0
H410 H 0.09964 0.14062 0.63889 0.0
H411 H 0.1 0.06072 0.6383 0.0
S412 S 0.10423 0.10151 0.81722 0.0
N413 N 0.10275 0.14416 0.78574 0.0
N414 N 0.10404 0.05852 0.78507 0.0
C415 C 0.10249 0.07794 0.74631 0.0
C416 C 0.10226 0.12433 0.74666 0.0
C417 C 0.65286 0.15143 0.04033 0.0
C418 C 0.6537 0.1058 0.04108 0.0
C419 C 0.60691 0.15157 0.03993 0.0
C420 C 0.56022 0.10607 0.03949 0.0
H421 H 0.68799 0.18728 0.04056 0.0
H422 H 0.60789 0.18751 0.03947 0.0
S423 S 0.54186 0.97654 0.04078 0.0
N424 N 0.60393 0.01403 0.04111 0.0
N425 N 0.51764 0.01428 0.04016 0.0
C426 C 0.56058 0.06024 0.04001 0.0
C427 C 0.60729 0.0601 0.04091 0.0
C428 C 0.64793 0.60489 0.37461 0.0
C429 C 0.64914 0.65154 0.37422 0.0
C430 C 0.60183 0.55901 0.37398 0.0
C431 C 0.55529 0.55816 0.37366 0.0
H432 H 0.68292 0.60387 0.37485 0.0
H433 H 0.60258 0.52393 0.37421 0.0
S434 S 0.53783 0.6699 0.37302 0.0
N435 N 0.59986 0.69408 0.37379 0.0
N436 N 0.51324 0.6079 0.3728 0.0
C437 C 0.55599 0.60452 0.37355 0.0
C438 C 0.60289 0.65119 0.37371 0.0
C439 C 0.06477 0.60595 0.70741 0.0
C440 C 0.1105 0.65239 0.70632 0.0
C441 C 0.06451 0.55985 0.70816 0.0
C442 C 0.10994 0.55851 0.70708 0.0
H443 H 0.02895 0.60529 0.70819 0.0
H444 H 0.02846 0.52495 0.70905 0.0
S445 S 0.23971 0.66962 0.70354 0.0
N446 N 0.20229 0.69425 0.70392 0.0
N447 N 0.20184 0.60769 0.70503 0.0
C448 C 0.15588 0.6047 0.70572 0.0
C449 C 0.15615 0.65159 0.70548 0.0
loop_
_geom_bond_atom_site_label_1
_geom_bond_atom_site_label_2
_geom_bond_distance
_geom_bond_site_symmetry_2
_ccdc_geom_bond_type
C0 C1 1.443 . S
C0 N4 1.376 . S
C0 C38 1.389 . S
C1 C0 1.443 . S
C1 C2 1.340 . S
C1 H41 0.951 . S
C2 C1 1.340 . S
C2 C3 1.439 . S
C2 H42 0.950 . S
C3 C2 1.439 . S
C3 N4 1.374 . S
C3 C37 1.395 . S
N4 C0 1.376 . S
N4 C3 1.374 . S
N4 Co5 2.008 . S
Co5 N4 2.008 . S
Co5 N6 1.995 . S
Co5 N11 2.008 1_554 S
Co5 N16 1.995 . S
Co5 N21 2.282 . S
Co5 N27 2.282 . S
N6 Co5 1.995 . S
N6 C7 1.376 . S
N6 C10 1.383 1_554 S
C7 N6 1.376 . S
C7 C8 1.446 . S
C7 C37 1.391 . S
C8 C7 1.446 . S
C8 C9 1.339 1_554 S
C8 H43 0.949 1_545 S
C9 C8 1.339 1_556 S
C9 C10 1.439 . S
C9 H44 0.950 . S
C10 N6 1.383 1_556 S
C10 C9 1.439 . S
C10 C39 1.392 . S
N11 Co5 2.008 1_556 S
N11 C12 1.376 . S
N11 C15 1.374 . S
C12 N11 1.376 . S
C12 C13 1.443 . S
C12 C39 1.389 . S
C13 C12 1.443 . S
C13 C14 1.340 . S
C13 H45 0.951 . S
C14 C13 1.340 . S
C14 C15 1.439 . S
C14 H46 0.950 . S
C15 N11 1.374 . S
C15 C14 1.439 . S
C15 C40 1.395 . S
N16 Co5 1.995 . S
N16 C17 1.376 . S
N16 C20 1.383 . S
C17 N16 1.376 . S
C17 C18 1.446 . S
C17 C40 1.391 1_554 S
C18 C17 1.446 . S
C18 C19 1.339 . S
C18 H47 0.949 . S
C19 C18 1.339 . S
C19 C20 1.439 . S
C19 H48 0.950 . S
C20 N16 1.383 . S
C20 C19 1.439 . S
C20 C38 1.392 . S
N21 Co5 2.282 . S
N21 C24 1.332 . S
N21 C26 1.332 . S
C22 C23 1.386 . S
C22 C25 1.388 . S
C23 C22 1.386 . S
C23 C24 1.382 . S
C23 H49 0.950 . S
C24 N21 1.332 . S
C24 C23 1.382 . S
C24 H35 0.952 . S
C25 C22 1.388 . S
C25 C26 1.382 . S
C25 H50 0.950 . S
C26 N21 1.332 . S
C26 C25 1.382 . S
C26 H36 0.948 . S
N27 Co5 2.282 . S
N27 C31 1.332 . S
N27 C32 1.332 . S
C28 C29 1.388 . S
C28 C32 1.382 . S
C28 H51 0.950 . S
C29 C28 1.388 . S
C29 C30 1.386 . S
C30 C29 1.386 . S
C30 C31 1.382 . S
C30 H52 0.950 . S
C31 N27 1.332 . S
C31 C30 1.382 . S
C31 H33 0.952 . S
C32 N27 1.332 . S
C32 C28 1.382 . S
C32 H34 0.948 . S
H33 C31 0.952 . S
H34 C32 0.948 . S
H35 C24 0.952 . S
H36 C26 0.948 . S
C37 C3 1.395 . S
C37 C7 1.391 . S
C38 C0 1.389 . S
C38 C20 1.392 . S
C39 C10 1.392 . S
C39 C12 1.389 . S
C40 C15 1.395 . S
C40 C17 1.391 1_556 S
H41 C1 0.951 . S
H42 C2 0.950 . S
H43 C8 0.949 1_565 S
H44 C9 0.950 . S
H45 C13 0.951 . S
H46 C14 0.950 . S
H47 C18 0.949 . S
H48 C19 0.950 . S
H49 C23 0.950 . S
H50 C25 0.950 . S
H51 C28 0.950 . S
H52 C30 0.950 . S
C53 C54 1.443 . S
C53 N57 1.376 . S
C53 C91 1.389 . S
C54 C53 1.443 . S
C54 C55 1.340 . S
C54 H94 0.951 . S
C55 C54 1.340 . S
C55 C56 1.439 . S
C55 H95 0.950 . S
C56 C55 1.439 . S
C56 N57 1.374 . S
C56 C90 1.395 . S
N57 C53 1.376 . S
N57 C56 1.374 . S
N57 Co58 2.008 . S
Co58 N57 2.008 . S
Co58 N59 1.995 . S
Co58 N64 2.008 . S
Co58 N69 1.995 . S
Co58 N74 2.282 . S
Co58 N80 2.282 . S
N59 Co58 1.995 . S
N59 C60 1.376 . S
N59 C63 1.383 . S
C60 N59 1.376 . S
C60 C61 1.446 . S
C60 C90 1.391 . S
C61 C60 1.446 . S
C61 C62 1.339 . S
C61 H96 0.949 . S
C62 C61 1.339 . S
C62 C63 1.439 . S
C62 H97 0.950 . S
C63 N59 1.383 . S
C63 C62 1.439 . S
C63 C92 1.392 . S
N64 Co58 2.008 . S
N64 C65 1.376 . S
N64 C68 1.374 . S
C65 N64 1.376 . S
C65 C66 1.443 . S
C65 C92 1.389 . S
C66 C65 1.443 . S
C66 C67 1.340 . S
C66 H98 0.951 . S
C67 C66 1.340 . S
C67 C68 1.439 . S
C67 H99 0.950 . S
C68 N64 1.374 . S
C68 C67 1.439 . S
C68 C93 1.395 . S
N69 Co58 1.995 . S
N69 C70 1.376 . S
N69 C73 1.383 . S
C70 N69 1.376 . S
C70 C71 1.446 . S
C70 C93 1.391 . S
C71 C70 1.446 . S
C71 C72 1.339 . S
C71 H100 0.949 . S
C72 C71 1.339 . S
C72 C73 1.439 . S
C72 H101 0.950 . S
C73 N69 1.383 . S
C73 C72 1.439 . S
C73 C91 1.392 . S
N74 Co58 2.282 . S
N74 C77 1.332 . S
N74 C79 1.332 . S
C75 C76 1.386 . S
C75 C78 1.388 . S
C76 C75 1.386 . S
C76 C77 1.382 . S
C76 H102 0.950 . S
C77 N74 1.332 . S
C77 C76 1.382 . S
C77 H88 0.952 . S
C78 C75 1.388 . S
C78 C79 1.382 . S
C78 H103 0.950 . S
C79 N74 1.332 . S
C79 C78 1.382 . S
C79 H89 0.948 . S
N80 Co58 2.282 . S
N80 C84 1.332 . S
N80 C85 1.332 . S
C81 C82 1.388 . S
C81 C85 1.382 . S
C81 H104 0.950 . S
C82 C81 1.388 . S
C82 C83 1.386 . S
C83 C82 1.386 . S
C83 C84 1.382 . S
C83 H105 0.950 . S
C84 N80 1.332 . S
C84 C83 1.382 . S
C84 H86 0.952 . S
C85 N80 1.332 . S
C85 C81 1.382 . S
C85 H87 0.948 . S
H86 C84 0.952 . S
H87 C85 0.948 . S
H88 C77 0.952 . S
H89 C79 0.948 . S
C90 C56 1.395 . S
C90 C60 1.391 . S
C91 C53 1.389 . S
C91 C73 1.392 . S
C92 C63 1.392 . S
C92 C65 1.389 . S
C93 C68 1.395 . S
C93 C70 1.391 . S
H94 C54 0.951 . S
H95 C55 0.950 . S
H96 C61 0.949 . S
H97 C62 0.950 . S
H98 C66 0.951 . S
H99 C67 0.950 . S
H100 C71 0.949 . S
H101 C72 0.950 . S
H102 C76 0.950 . S
H103 C78 0.950 . S
H104 C81 0.950 . S
H105 C83 0.950 . S
C106 C107 1.443 . S
C106 N110 1.376 . S
C106 C144 1.389 1_455 S
C107 C106 1.443 . S
C107 C108 1.340 . S
C107 H147 0.951 . S
C108 C107 1.340 . S
C108 C109 1.439 . S
C108 H148 0.950 . S
C109 C108 1.439 . S
C109 N110 1.374 . S
C109 C143 1.395 . S
N110 C106 1.376 . S
N110 C109 1.374 . S
N110 Co111 2.008 . S
Co111 N110 2.008 . S
Co111 N112 1.995 . S
Co111 N117 2.008 . S
Co111 N122 1.995 1_455 S
Co111 N127 2.282 . S
Co111 N133 2.282 . S
N112 Co111 1.995 . S
N112 C113 1.376 . S
N112 C116 1.383 . S
C113 N112 1.376 . S
C113 C114 1.446 . S
C113 C143 1.391 . S
C114 C113 1.446 . S
C114 C115 1.339 . S
C114 H149 0.949 . S
C115 C114 1.339 . S
C115 C116 1.439 . S
C115 H150 0.950 . S
C116 N112 1.383 . S
C116 C115 1.439 . S
C116 C145 1.392 . S
N117 Co111 2.008 . S
N117 C118 1.376 . S
N117 C121 1.374 1_455 S
C118 N117 1.376 . S
C118 C119 1.443 . S
C118 C145 1.389 . S
C119 C118 1.443 . S
C119 C120 1.340 1_455 S
C119 H151 0.951 . S
C120 C119 1.340 1_655 S
C120 C121 1.439 . S
C120 H152 0.950 . S
C121 N117 1.374 1_655 S
C121 C120 1.439 . S
C121 C146 1.395 . S
N122 Co111 1.995 1_655 S
N122 C123 1.376 . S
N122 C126 1.383 . S
C123 N122 1.376 . S
C123 C124 1.446 . S
C123 C146 1.391 . S
C124 C123 1.446 . S
C124 C125 1.339 . S
C124 H153 0.949 . S
C125 C124 1.339 . S
C125 C126 1.439 . S
C125 H154 0.950 . S
C126 N122 1.383 . S
C126 C125 1.439 . S
C126 C144 1.392 . S
N127 Co111 2.282 . S
N127 C130 1.332 1_455 S
N127 C132 1.332 . S
C128 C129 1.386 1_455 S
C128 C131 1.388 . S
C129 C128 1.386 1_655 S
C129 C130 1.382 . S
C129 H155 0.950 . S
C130 N127 1.332 1_655 S
C130 C129 1.382 . S
C130 H141 0.952 . S
C131 C128 1.388 . S
C131 C132 1.382 . S
C131 H156 0.950 . S
C132 N127 1.332 . S
C132 C131 1.382 . S
C132 H142 0.948 . S
N133 Co111 2.282 . S
N133 C137 1.332 . S
N133 C138 1.332 1_455 S
C134 C135 1.388 1_655 S
C134 C138 1.382 . S
C134 H157 0.950 . S
C135 C134 1.388 1_455 S
C135 C136 1.386 . S
C136 C135 1.386 . S
C136 C137 1.382 . S
C136 H158 0.950 . S
C137 N133 1.332 . S
C137 C136 1.382 . S
C137 H139 0.952 . S
C138 N133 1.332 1_655 S
C138 C134 1.382 . S
C138 H140 0.948 . S
H139 C137 0.952 . S
H140 C138 0.948 . S
H141 C130 0.952 . S
H142 C132 0.948 . S
C143 C109 1.395 . S
C143 C113 1.391 . S
C144 C106 1.389 1_655 S
C144 C126 1.392 . S
C145 C116 1.392 . S
C145 C118 1.389 . S
C146 C121 1.395 . S
C146 C123 1.391 . S
H147 C107 0.951 . S
H148 C108 0.950 . S
H149 C114 0.949 . S
H150 C115 0.950 . S
H151 C119 0.951 . S
H152 C120 0.950 . S
H153 C124 0.949 . S
H154 C125 0.950 . S
H155 C129 0.950 . S
H156 C131 0.950 . S
H157 C134 0.950 . S
H158 C136 0.950 . S
C159 C160 1.443 . S
C159 N163 1.376 . S
C159 C197 1.389 1_545 S
C160 C159 1.443 . S
C160 C161 1.340 . S
C160 H200 0.951 . S
C161 C160 1.340 . S
C161 C162 1.439 . S
C161 H201 0.950 . S
C162 C161 1.439 . S
C162 N163 1.374 . S
C162 C196 1.395 . S
N163 C159 1.376 . S
N163 C162 1.374 . S
N163 Co164 2.008 . S
Co164 N163 2.008 . S
Co164 N165 1.995 . S
Co164 N170 2.008 1_554 S
Co164 N175 1.995 1_545 S
Co164 N180 2.282 . S
Co164 N186 2.282 . S
N165 Co164 1.995 . S
N165 C166 1.376 . S
N165 C169 1.383 1_554 S
C166 N165 1.376 . S
C166 C167 1.446 . S
C166 C196 1.391 . S
C167 C166 1.446 . S
C167 C168 1.339 1_554 S
C167 H202 0.949 . S
C168 C167 1.339 1_556 S
C168 C169 1.439 . S
C168 H203 0.950 . S
C169 N165 1.383 1_556 S
C169 C168 1.439 . S
C169 C198 1.392 . S
N170 Co164 2.008 1_556 S
N170 C171 1.376 . S
N170 C174 1.374 1_545 S
C171 N170 1.376 . S
C171 C172 1.443 . S
C171 C198 1.389 . S
C172 C171 1.443 . S
C172 C173 1.340 1_545 S
C172 H204 0.951 . S
C173 C172 1.340 1_565 S
C173 C174 1.439 . S
C173 H205 0.950 . S
C174 N170 1.374 1_565 S
C174 C173 1.439 . S
C174 C199 1.395 . S
N175 Co164 1.995 1_565 S
N175 C176 1.376 . S
N175 C179 1.383 . S
C176 N175 1.376 . S
C176 C177 1.446 . S
C176 C199 1.391 1_554 S
C177 C176 1.446 . S
C177 C178 1.339 . S
C177 H206 0.949 . S
C178 C177 1.339 . S
C178 C179 1.439 . S
C178 H207 0.950 . S
C179 N175 1.383 . S
C179 C178 1.439 . S
C179 C197 1.392 . S
N180 Co164 2.282 . S
N180 C183 1.332 1_545 S
N180 C185 1.332 . S
C181 C182 1.386 1_545 S
C181 C184 1.388 . S
C182 C181 1.386 1_565 S
C182 C183 1.382 . S
C182 H208 0.950 . S
C183 N180 1.332 1_565 S
C183 C182 1.382 . S
C183 H194 0.952 . S
C184 C181 1.388 . S
C184 C185 1.382 . S
C184 H209 0.950 . S
C185 N180 1.332 . S
C185 C184 1.382 . S
C185 H195 0.948 . S
N186 Co164 2.282 . S
N186 C190 1.332 . S
N186 C191 1.332 1_545 S
C187 C188 1.388 1_565 S
C187 C191 1.382 . S
C187 H210 0.950 . S
C188 C187 1.388 1_545 S
C188 C189 1.386 . S
C189 C188 1.386 . S
C189 C190 1.382 . S
C189 H211 0.950 1_655 S
C190 N186 1.332 . S
C190 C189 1.382 . S
C190 H192 0.952 . S
C191 N186 1.332 1_565 S
C191 C187 1.382 . S
C191 H193 0.948 . S
H192 C190 0.952 . S
H193 C191 0.948 . S
H194 C183 0.952 . S
H195 C185 0.948 . S
C196 C162 1.395 . S
C196 C166 1.391 . S
C197 C159 1.389 1_565 S
C197 C179 1.392 . S
C198 C169 1.392 . S
C198 C171 1.389 . S
C199 C174 1.395 . S
C199 C176 1.391 1_556 S
H200 C160 0.951 . S
H201 C161 0.950 . S
H202 C167 0.949 . S
H203 C168 0.950 . S
H204 C172 0.951 . S
H205 C173 0.950 . S
H206 C177 0.949 . S
H207 C178 0.950 . S
H208 C182 0.950 . S
H209 C184 0.950 . S
H210 C187 0.950 . S
H211 C189 0.950 1_455 S
C212 C213 1.443 . S
C212 N216 1.376 . S
C212 C250 1.389 . S
C213 C212 1.443 . S
C213 C214 1.340 . S
C213 H253 0.951 . S
C214 C213 1.340 . S
C214 C215 1.439 . S
C214 H254 0.950 . S
C215 C214 1.439 . S
C215 N216 1.374 . S
C215 C249 1.395 . S
N216 C212 1.376 . S
N216 C215 1.374 . S
N216 Co217 2.008 . S
Co217 N216 2.008 . S
Co217 N218 1.995 . S
Co217 N223 2.008 . S
Co217 N228 1.995 . S
Co217 N233 2.282 . S
Co217 N239 2.282 . S
N218 Co217 1.995 . S
N218 C219 1.376 . S
N218 C222 1.383 . S
C219 N218 1.376 . S
C219 C220 1.446 . S
C219 C249 1.391 . S
C220 C219 1.446 . S
C220 C221 1.339 . S
C220 H255 0.949 . S
C221 C220 1.339 . S
C221 C222 1.439 . S
C221 H256 0.950 . S
C222 N218 1.383 . S
C222 C221 1.439 . S
C222 C251 1.392 . S
N223 Co217 2.008 . S
N223 C224 1.376 . S
N223 C227 1.374 . S
C224 N223 1.376 . S
C224 C225 1.443 . S
C224 C251 1.389 . S
C225 C224 1.443 . S
C225 C226 1.340 . S
C225 H257 0.951 . S
C226 C225 1.340 . S
C226 C227 1.439 . S
C226 H258 0.950 . S
C227 N223 1.374 . S
C227 C226 1.439 . S
C227 C252 1.395 . S
N228 Co217 1.995 . S
N228 C229 1.376 . S
N228 C232 1.383 . S
C229 N228 1.376 . S
C229 C230 1.446 . S
C229 C252 1.391 . S
C230 C229 1.446 . S
C230 C231 1.339 . S
C230 H259 0.949 1_655 S
C231 C230 1.339 . S
C231 C232 1.439 . S
C231 H260 0.950 1_655 S
C232 N228 1.383 . S
C232 C231 1.439 . S
C232 C250 1.392 . S
N233 Co217 2.282 . S
N233 C236 1.332 . S
N233 C238 1.332 . S
C234 C235 1.386 . S
C234 C237 1.388 . S
C235 C234 1.386 . S
C235 C236 1.382 . S
C235 H261 0.950 . S
C236 N233 1.332 . S
C236 C235 1.382 . S
C236 H247 0.952 . S
C237 C234 1.388 . S
C237 C238 1.382 . S
C237 H262 0.950 . S
C238 N233 1.332 . S
C238 C237 1.382 . S
C238 H248 0.948 . S
N239 Co217 2.282 . S
N239 C243 1.332 . S
N239 C244 1.332 1_655 S
C240 C241 1.388 . S
C240 C244 1.382 . S
C240 H263 0.950 . S
C241 C240 1.388 . S
C241 C242 1.386 . S
C242 C241 1.386 . S
C242 C243 1.382 1_455 S
C242 H264 0.950 1_565 S
C243 N239 1.332 . S
C243 C242 1.382 1_655 S
C243 H245 0.952 . S
C244 N239 1.332 1_455 S
C244 C240 1.382 . S
C244 H246 0.948 . S
H245 C243 0.952 . S
H246 C244 0.948 . S
H247 C236 0.952 . S
H248 C238 0.948 . S
C249 C215 1.395 . S
C249 C219 1.391 . S
C250 C212 1.389 . S
C250 C232 1.392 . S
C251 C222 1.392 . S
C251 C224 1.389 . S
C252 C227 1.395 . S
C252 C229 1.391 . S
H253 C213 0.951 . S
H254 C214 0.950 . S
H255 C220 0.949 . S
H256 C221 0.950 . S
H257 C225 0.951 . S
H258 C226 0.950 . S
H259 C230 0.949 1_455 S
H260 C231 0.950 1_455 S
H261 C235 0.950 . S
H262 C237 0.950 . S
H263 C240 0.950 . S
H264 C242 0.950 1_545 S
C265 C266 1.443 . S
C265 N269 1.376 . S
C265 C303 1.389 . S
C266 C265 1.443 . S
C266 C267 1.340 . S
C266 H306 0.951 . S
C267 C266 1.340 . S
C267 C268 1.439 . S
C267 H307 0.950 . S
C268 C267 1.439 . S
C268 N269 1.374 . S
C268 C302 1.395 . S
N269 C265 1.376 . S
N269 C268 1.374 . S
N269 Co270 2.008 . S
Co270 N269 2.008 . S
Co270 N271 1.995 . S
Co270 N276 2.008 . S
Co270 N281 1.995 . S
Co270 N286 2.282 . S
Co270 N292 2.282 . S
N271 Co270 1.995 . S
N271 C272 1.376 . S
N271 C275 1.383 . S
C272 N271 1.376 . S
C272 C273 1.446 . S
C272 C302 1.391 . S
C273 C272 1.446 . S
C273 C274 1.339 . S
C273 H308 0.949 1_455 S
C274 C273 1.339 . S
C274 C275 1.439 . S
C274 H309 0.950 . S
C275 N271 1.383 . S
C275 C274 1.439 . S
C275 C304 1.392 . S
N276 Co270 2.008 . S
N276 C277 1.376 . S
N276 C280 1.374 . S
C277 N276 1.376 . S
C277 C278 1.443 . S
C277 C304 1.389 . S
C278 C277 1.443 . S
C278 C279 1.340 . S
C278 H310 0.951 . S
C279 C278 1.340 . S
C279 C280 1.439 . S
C279 H311 0.950 . S
C280 N276 1.374 . S
C280 C279 1.439 . S
C280 C305 1.395 . S
N281 Co270 1.995 . S
N281 C282 1.376 . S
N281 C285 1.383 . S
C282 N281 1.376 . S
C282 C283 1.446 . S
C282 C305 1.391 . S
C283 C282 1.446 . S
C283 C284 1.339 . S
C283 H312 0.949 1_565 S
C284 C283 1.339 . S
C284 C285 1.439 . S
C284 H313 0.950 1_565 S
C285 N281 1.383 . S
C285 C284 1.439 . S
C285 C303 1.392 . S
N286 Co270 2.282 . S
N286 C289 1.332 . S
N286 C291 1.332 . S
C287 C288 1.386 . S
C287 C290 1.388 . S
C288 C287 1.386 . S
C288 C289 1.382 . S
C288 H314 0.950 . S
C289 N286 1.332 . S
C289 C288 1.382 . S
C289 H300 0.952 . S
C290 C287 1.388 . S
C290 C291 1.382 . S
C290 H315 0.950 . S
C291 N286 1.332 . S
C291 C290 1.382 . S
C291 H301 0.948 . S
N292 Co270 2.282 . S
N292 C296 1.332 . S
N292 C297 1.332 1_565 S
C293 C294 1.388 . S
C293 C297 1.382 . S
C293 H316 0.950 . S
C294 C293 1.388 . S
C294 C295 1.386 . S
C295 C294 1.386 . S
C295 C296 1.382 1_545 S
C295 H317 0.950 . S
C296 N292 1.332 . S
C296 C295 1.382 1_565 S
C296 H298 0.952 . S
C297 N292 1.332 1_545 S
C297 C293 1.382 . S
C297 H299 0.948 . S
H298 C296 0.952 . S
H299 C297 0.948 . S
H300 C289 0.952 . S
H301 C291 0.948 . S
C302 C268 1.395 . S
C302 C272 1.391 . S
C303 C265 1.389 . S
C303 C285 1.392 . S
C304 C275 1.392 . S
C304 C277 1.389 . S
C305 C280 1.395 . S
C305 C282 1.391 . S
H306 C266 0.951 . S
H307 C267 0.950 . S
H308 C273 0.949 1_655 S
H309 C274 0.950 . S
H310 C278 0.951 . S
H311 C279 0.950 . S
H312 C283 0.949 1_545 S
H313 C284 0.950 1_545 S
H314 C288 0.950 . S
H315 C290 0.950 . S
H316 C293 0.950 . S
H317 C295 0.950 . S
C318 C319 1.369 . S
C318 C320 1.419 . S
C318 H322 0.930 . S
C319 C318 1.369 . S
C319 C328 1.429 . S
C320 C318 1.419 . S
C320 C321 1.363 . S
C320 H323 0.929 . S
C321 C320 1.363 . S
C321 C327 1.428 . S
H322 C318 0.930 . S
H323 C320 0.929 . S
S324 N325 1.613 . S
S324 N326 1.610 . S
N325 S324 1.613 . S
N325 C328 1.350 . S
N326 S324 1.610 . S
N326 C327 1.351 . S
C327 C321 1.428 . S
C327 N326 1.351 . S
C327 C328 1.434 . S
C328 C319 1.429 . S
C328 N325 1.350 . S
C328 C327 1.434 . S
C329 C330 1.369 . S
C329 C331 1.419 . S
C329 H333 0.930 . S
C330 C329 1.369 . S
C330 C339 1.429 . S
C331 C329 1.419 . S
C331 C332 1.363 . S
C331 H334 0.929 . S
C332 C331 1.363 . S
C332 C338 1.428 . S
H333 C329 0.930 . S
H334 C331 0.929 . S
S335 N336 1.613 . S
S335 N337 1.610 . S
N336 S335 1.613 . S
N336 C339 1.350 . S
N337 S335 1.610 . S
N337 C338 1.351 . S
C338 C332 1.428 . S
C338 N337 1.351 . S
C338 C339 1.434 . S
C339 C330 1.429 . S
C339 N336 1.350 . S
C339 C338 1.434 . S
C340 C341 1.369 . S
C340 C342 1.419 . S
C340 H344 0.930 . S
C341 C340 1.369 . S
C341 C350 1.429 . S
C342 C340 1.419 . S
C342 C343 1.363 . S
C342 H345 0.929 . S
C343 C342 1.363 . S
C343 C349 1.428 . S
H344 C340 0.930 . S
H345 C342 0.929 . S
S346 N347 1.613 . S
S346 N348 1.610 . S
N347 S346 1.613 . S
N347 C350 1.350 . S
N348 S346 1.610 . S
N348 C349 1.351 . S
C349 C343 1.428 . S
C349 N348 1.351 . S
C349 C350 1.434 . S
C350 C341 1.429 . S
C350 N347 1.350 . S
C350 C349 1.434 . S
C351 C352 1.369 . S
C351 C353 1.419 . S
C351 H355 0.930 . S
C352 C351 1.369 . S
C352 C361 1.429 . S
C353 C351 1.419 . S
C353 C354 1.363 . S
C353 H356 0.929 . S
C354 C353 1.363 . S
C354 C360 1.428 . S
H355 C351 0.930 . S
H356 C353 0.929 . S
S357 N358 1.613 . S
S357 N359 1.610 . S
N358 S357 1.613 . S
N358 C361 1.350 . S
N359 S357 1.610 . S
N359 C360 1.351 . S
C360 C354 1.428 . S
C360 N359 1.351 . S
C360 C361 1.434 . S
C361 C352 1.429 . S
C361 N358 1.350 . S
C361 C360 1.434 . S
C362 C363 1.369 . S
C362 C364 1.419 1_455 S
C362 H366 0.930 . S
C363 C362 1.369 . S
C363 C372 1.429 . S
C364 C362 1.419 1_655 S
C364 C365 1.363 1_655 S
C364 H367 0.929 . S
C365 C364 1.363 1_455 S
C365 C371 1.429 . S
H366 C362 0.930 . S
H367 C364 0.929 . S
S368 N369 1.613 . S
S368 N370 1.610 . S
N369 S368 1.613 . S
N369 C372 1.350 . S
N370 S368 1.610 . S
N370 C371 1.351 . S
C371 C365 1.429 . S
C371 N370 1.351 . S
C371 C372 1.434 . S
C372 C363 1.429 . S
C372 N369 1.350 . S
C372 C371 1.434 . S
C373 C374 1.369 . S
C373 C375 1.419 1_545 S
C373 H377 0.930 . S
C374 C373 1.369 . S
C374 C383 1.429 . S
C375 C373 1.419 1_565 S
C375 C376 1.363 . S
C375 H378 0.929 . S
C376 C375 1.363 . S
C376 C382 1.428 1_565 S
H377 C373 0.930 . S
H378 C375 0.929 . S
S379 N380 1.613 . S
S379 N381 1.610 . S
N380 S379 1.613 . S
N380 C383 1.350 . S
N381 S379 1.610 . S
N381 C382 1.351 . S
C382 C376 1.428 1_545 S
C382 N381 1.351 . S
C382 C383 1.434 . S
C383 C374 1.429 . S
C383 N380 1.350 . S
C383 C382 1.434 . S
C384 C385 1.369 . S
C384 C386 1.419 . S
C384 H388 0.930 . S
C385 C384 1.369 . S
C385 C394 1.429 . S
C386 C384 1.419 . S
C386 C387 1.363 . S
C386 H389 0.929 . S
C387 C386 1.363 . S
C387 C393 1.428 . S
H388 C384 0.930 . S
H389 C386 0.929 . S
S390 N391 1.613 . S
S390 N392 1.610 . S
N391 S390 1.613 . S
N391 C394 1.350 1_556 S
N392 S390 1.610 . S
N392 C393 1.351 1_556 S
C393 C387 1.428 . S
C393 N392 1.351 1_554 S
C393 C394 1.434 . S
C394 C385 1.429 . S
C394 N391 1.350 1_554 S
C394 C393 1.434 . S
C395 C396 1.369 . S
C395 C397 1.419 . S
C395 H399 0.930 . S
C396 C395 1.369 . S
C396 C405 1.429 . S
C397 C395 1.419 . S
C397 C398 1.363 . S
C397 H400 0.929 . S
C398 C397 1.363 . S
C398 C404 1.428 . S
H399 C395 0.930 . S
H400 C397 0.929 . S
S401 N402 1.613 1_655 S
S401 N403 1.610 1_655 S
N402 S401 1.613 1_455 S
N402 C405 1.350 . S
N403 S401 1.610 1_455 S
N403 C404 1.351 . S
C404 C398 1.428 . S
C404 N403 1.351 . S
C404 C405 1.434 . S
C405 C396 1.429 . S
C405 N402 1.350 . S
C405 C404 1.434 . S
C406 C407 1.369 . S
C406 C408 1.419 . S
C406 H410 0.930 . S
C407 C406 1.369 . S
C407 C416 1.429 . S
C408 C406 1.419 . S
C408 C409 1.363 . S
C408 H411 0.929 . S
C409 C408 1.363 . S
C409 C415 1.428 . S
H410 C406 0.930 . S
H411 C408 0.929 . S
S412 N413 1.613 . S
S412 N414 1.610 . S
N413 S412 1.613 . S
N413 C416 1.350 . S
N414 S412 1.610 . S
N414 C415 1.351 . S
C415 C409 1.428 . S
C415 N414 1.351 . S
C415 C416 1.434 . S
C416 C407 1.429 . S
C416 N413 1.350 . S
C416 C415 1.434 . S
C417 C418 1.369 . S
C417 C419 1.419 . S
C417 H421 0.930 . S
C418 C417 1.369 . S
C418 C427 1.429 1_554 S
C419 C417 1.419 . S
C419 C420 1.363 . S
C419 H422 0.929 . S
C420 C419 1.363 . S
C420 C426 1.428 1_554 S
H421 C417 0.930 . S
H422 C419 0.929 . S
S423 N424 1.613 . S
S423 N425 1.610 . S
N424 S423 1.613 . S
N424 C427 1.350 . S
N425 S423 1.610 . S
N425 C426 1.351 . S
C426 C420 1.428 1_556 S
C426 N425 1.351 . S
C426 C427 1.434 . S
C427 C418 1.429 1_556 S
C427 N424 1.350 . S
C427 C426 1.434 . S
C428 C429 1.369 . S
C428 C430 1.419 . S
C428 H432 0.930 . S
C429 C428 1.369 . S
C429 C438 1.429 . S
C430 C428 1.419 . S
C430 C431 1.363 . S
C430 H433 0.929 . S
C431 C430 1.363 . S
C431 C437 1.428 . S
H432 C428 0.930 . S
H433 C430 0.929 . S
S434 N435 1.613 . S
S434 N436 1.610 . S
N435 S434 1.613 . S
N435 C438 1.350 . S
N436 S434 1.610 . S
N436 C437 1.351 . S
C437 C431 1.428 . S
C437 N436 1.351 . S
C437 C438 1.434 . S
C438 C429 1.429 . S
C438 N435 1.350 . S
C438 C437 1.434 . S
C439 C440 1.369 . S
C439 C441 1.419 . S
C439 H443 0.930 . S
C440 C439 1.369 . S
C440 C449 1.429 . S
C441 C439 1.419 . S
C441 C442 1.363 . S
C441 H444 0.929 . S
C442 C441 1.363 . S
C442 C448 1.428 . S
H443 C439 0.930 . S
H444 C441 0.929 . S
S445 N446 1.613 . S
S445 N447 1.610 . S
N446 S445 1.613 . S
N446 C449 1.350 . S
N447 S445 1.610 . S
N447 C448 1.351 . S
C448 C442 1.428 . S
C448 N447 1.351 . S
C448 C449 1.434 . S
C449 C440 1.429 . S
C449 N446 1.350 . S
C449 C448 1.434 . S
C319 C38 1.930 . S
C321 C92 1.859 . S
C330 C91 1.931 . S
C332 C145 1.856 . S
C341 C198 1.856 . S
C343 C144 1.929 . S
C352 C197 1.929 . S
C354 C251 1.855 . S
C363 C304 1.855 . S
C365 C250 1.929 1_455 S
C374 C39 1.856 . S
C376 C303 1.929 . S
C385 C29 1.762 . S
C387 C188 1.753 1_455 S
C396 C241 1.752 1_545 S
C398 C82 1.760 . S
C407 C135 1.759 . S
C409 C294 1.757 . S
C418 C181 1.934 . S
C420 C22 1.931 . S
C429 C234 1.928 . S
C431 C75 1.935 . S
C440 C287 1.933 . S
C442 C128 1.932 . S
