# Generated by pormake.
# Topology bsn, (6)-cn, num edge types: 1
# Building blocks:
#     Node 0, Type 0, BuildingBlock: LEVNOQ01_clean_sbu_1, # of connection points: 6
#     Node 1, Type 0, BuildingBlock: LEVNOQ01_clean_sbu_1, # of connection points: 6
#     Node 2, Type 0, BuildingBlock: LEVNOQ01_clean_sbu_1, # of connection points: 6
#     Node 3, Type 0, BuildingBlock: LEVNOQ01_clean_sbu_1, # of connection points: 6
#     Edge 4, Type (0, 0), BuildingBlock: MIFKUJ_clean_linker_0, # of connection points: 2
#     Edge 5, Type (0, 0), BuildingBlock: MIFKUJ_clean_linker_0, # of connection points: 2
#     Edge 6, Type (0, 0), BuildingBlock: MIFKUJ_clean_linker_0, # of connection points: 2
#     Edge 7, Type (0, 0), BuildingBlock: MIFKUJ_clean_linker_0, # of connection points: 2
#     Edge 8, Type (0, 0), BuildingBlock: MIFKUJ_clean_linker_0, # of connection points: 2
#     Edge 9, Type (0, 0), BuildingBlock: MIFKUJ_clean_linker_0, # of connection points: 2
#     Edge 10, Type (0, 0), BuildingBlock: MIFKUJ_clean_linker_0, # of connection points: 2
#     Edge 11, Type (0, 0), BuildingBlock: MIFKUJ_clean_linker_0, # of connection points: 2
#     Edge 12, Type (0, 0), BuildingBlock: MIFKUJ_clean_linker_0, # of connection points: 2
#     Edge 13, Type (0, 0), BuildingBlock: MIFKUJ_clean_linker_0, # of connection points: 2
#     Edge 14, Type (0, 0), BuildingBlock: MIFKUJ_clean_linker_0, # of connection points: 2
#     Edge 15, Type (0, 0), BuildingBlock: MIFKUJ_clean_linker_0, # of connection points: 2
# Relax obj value: 0.174
# Max RMSD: 0.189
# Mean RMSD: 0.189
data_MOF--net-bsn--node1-LEVNOQ01_clean_sbu_1--edge1-MIFKUJ_clean_linker_0
_symmetry_space_group_name_H-M    P1
_symmetry_Int_Tables_number       1
_symmetry_cell_setting            triclinic
loop_
_symmetry_equiv_pos_as_xyz
'x, y, z'
_cell_length_a     39.908158
_cell_length_b     38.880436
_cell_length_c     19.681225
_cell_angle_alpha  89.929848
_cell_angle_beta   100.06864
_cell_angle_gamma 90.051836
loop_
_atom_site_label
_atom_site_type_symbol
_atom_site_fract_x
_atom_site_fract_y
_atom_site_fract_z
_atom_type_partial_charge
O0 O 0.98584 0.23362 0.42233 0.0
Mg1 Mg 0.99331 0.21162 0.32564 0.0
O2 O 0.03819 0.25361 0.44084 0.0
Mg3 Mg 0.03658 0.25186 0.32605 0.0
O4 O 0.03883 0.18886 0.32689 0.0
O5 O 0.98999 0.16013 0.32925 0.0
O6 O 0.0316 0.24981 0.20945 0.0
O7 O 0.09641 0.23948 0.33946 0.0
Mg8 Mg 0.07968 0.3042 0.28944 0.0
O9 O 0.03773 0.31263 0.3336 0.0
O10 O 0.07088 0.28593 0.18702 0.0
O11 O 0.12362 0.28851 0.35562 0.0
O12 O 0.0691 0.35459 0.29734 0.0
C13 C 0.9552 0.25648 0.25754 0.0
C14 C 0.01019 0.24847 0.46157 0.0
C15 C 0.02227 0.16004 0.3294 0.0
C16 C 0.0479 0.26391 0.16709 0.0
C17 C 0.12444 0.25612 0.3544 0.0
C18 C 0.04442 0.34524 0.32776 0.0
O19 O 0.96189 0.22793 0.23299 0.0
O20 O 0.97722 0.26901 0.30588 0.0
O21 O 0.06298 0.75499 0.51268 0.0
Mg22 Mg 0.06032 0.7242 0.60272 0.0
O23 O 0.00995 0.76698 0.51482 0.0
Mg24 Mg 0.0228 0.75478 0.6299 0.0
O25 O 0.02101 0.692 0.60503 0.0
O26 O 0.06857 0.67737 0.56672 0.0
O27 O 0.03657 0.7377 0.74634 0.0
O28 O 0.96516 0.74437 0.6304 0.0
Mg29 Mg 0.00606 0.80193 0.7337 0.0
O30 O 0.01851 0.81444 0.64144 0.0
O31 O 0.04933 0.78599 0.80187 0.0
O32 O 0.9601 0.77303 0.72561 0.0
O33 O 1.00351 0.85338 0.71404 0.0
C34 C 0.10441 0.75898 0.68253 0.0
C35 C 0.03485 0.76712 0.48286 0.0
C36 C 0.03908 0.66909 0.57925 0.0
C37 C 0.0513 0.75368 0.79977 0.0
C38 C 0.9481 0.75255 0.6772 0.0
C39 C 0.01424 0.8464 0.65741 0.0
O40 O 0.09821 0.72788 0.69222 0.0
O41 O 0.08165 0.77609 0.6434 0.0
O42 O 0.56547 0.7169 -0.01273 0.0
Mg43 Mg 0.5214 0.72094 0.91201 0.0
O44 O 0.54886 0.76895 0.96671 0.0
Mg45 Mg 0.53628 0.76205 0.8441 0.0
O46 O 0.52965 0.69807 0.82404 0.0
O47 O 0.5055 0.67266 0.90605 0.0
O48 O 0.52237 0.76187 0.72567 0.0
O49 O 0.59429 0.75385 0.84109 0.0
Mg50 Mg 0.56475 0.82739 0.77679 0.0
O51 O 0.54082 0.82173 0.85888 0.0
O52 O 0.5301 0.81433 0.68718 0.0
O53 O 0.61228 0.80176 0.79671 0.0
O54 O 0.55812 0.87278 0.8263 0.0
C55 C 0.4617 0.76346 0.88239 0.0
C56 C 0.56282 0.74667 0.00965 0.0
C57 C 0.51734 0.67059 0.84964 0.0
C58 C 0.51819 0.78415 0.67748 0.0
C59 C 0.61784 0.77179 0.82179 0.0
C60 C 0.54321 0.85489 0.86751 0.0
O61 O 0.47481 0.744 0.93123 0.0
O62 O 0.47954 0.77185 0.83798 0.0
O63 O 0.51575 0.19837 0.96875 0.0
Mg64 Mg 0.5437 0.20722 0.06555 0.0
O65 O 0.51136 0.25271 -0.00818 0.0
Mg66 Mg 0.51479 0.25634 0.11213 0.0
O67 O 0.51734 0.19435 0.14214 0.0
O68 O 0.55657 0.16106 0.10492 0.0
O69 O 0.52116 0.26501 0.22901 0.0
O70 O 0.45539 0.24451 0.10228 0.0
Mg71 Mg 0.4738 0.31498 0.14013 0.0
O72 O 0.51158 0.31627 0.08137 0.0
O73 O 0.49188 0.31134 0.24624 0.0
O74 O 0.42671 0.2929 0.09933 0.0
O75 O 0.48074 0.36212 0.10364 0.0
C76 C 0.59805 0.25467 0.10629 0.0
C77 C 0.51108 0.22879 0.94772 0.0
C78 C 0.53252 0.16455 0.14001 0.0
C79 C 0.51208 0.28736 0.26931 0.0
C80 C 0.42701 0.2605 0.09609 0.0
C81 C 0.50423 0.34906 0.07418 0.0
O82 O 0.59196 0.22878 0.06796 0.0
O83 O 0.57393 0.26784 0.13203 0.0
H84 H 0.03623 0.41139 0.28583 0.0
H85 H 0.01679 0.45934 0.34807 0.0
H86 H 0.99092 0.38941 0.501 0.0
H87 H 0.01072 0.34066 0.43849 0.0
H88 H 0.94976 0.47198 0.41795 0.0
H89 H 0.03533 0.41158 0.59977 0.0
H90 H 0.08646 0.37497 0.62736 0.0
H91 H 0.14058 0.44249 0.51151 0.0
H92 H 0.08956 0.47918 0.48261 0.0
H93 H 0.98394 0.63451 0.61652 0.0
H94 H 0.96849 0.57353 0.59293 0.0
H95 H 0.05189 0.56316 0.48153 0.0
H96 H 0.0672 0.62267 0.5042 0.0
H97 H 0.05195 0.51242 0.57868 0.0
H98 H 0.97189 0.57123 0.39703 0.0
H99 H 0.92318 0.60956 0.3569 0.0
H100 H 0.85967 0.54762 0.46331 0.0
H101 H 0.90816 0.50914 0.50467 0.0
C102 C 0.02566 0.40598 0.33181 0.0
C103 C 0.02546 0.37231 0.35784 0.0
C104 C 0.01431 0.43344 0.36704 0.0
C105 C 1.00262 0.42795 0.42924 0.0
C106 C 0.99987 0.39412 0.45297 0.0
C107 C 0.01112 0.36634 0.41722 0.0
C108 C 0.99942 0.45829 0.47313 0.0
C109 C 0.97146 0.48043 0.45535 0.0
C110 C 0.02797 0.46956 0.52069 0.0
C111 C 0.05869 0.44787 0.53875 0.0
C112 C 0.05811 0.41845 0.57997 0.0
C113 C 0.08705 0.39772 0.59584 0.0
C114 C 0.11674 0.40637 0.5711 0.0
C115 C 0.11756 0.4358 0.53056 0.0
C116 C 0.08867 0.45655 0.51446 0.0
C117 C 0.99875 0.61913 0.58676 0.0
C118 C 0.02709 0.63338 0.56318 0.0
C119 C 0.98995 0.58438 0.57341 0.0
C120 C 0.00939 0.5637 0.53631 0.0
C121 C 0.03687 0.57838 0.51124 0.0
C122 C 0.04557 0.61262 0.52434 0.0
C123 C 1.00246 0.52654 0.52302 0.0
C124 C 0.02908 0.50337 0.5453 0.0
C125 C 0.97268 0.51455 0.47972 0.0
C126 C 0.94369 0.53764 0.45466 0.0
C127 C 0.9476 0.56598 0.41233 0.0
C128 C 0.92003 0.58768 0.38925 0.0
C129 C 0.88838 0.58111 0.40776 0.0
C130 C 0.88421 0.55274 0.44917 0.0
C131 C 0.91172 0.53098 0.47241 0.0
H132 H 0.86706 0.59793 0.38984 0.0
H133 H 0.13911 0.3903 0.58344 0.0
H134 H 0.63278 0.71558 0.75131 0.0
H135 H 0.6884 0.70185 0.72164 0.0
H136 H 0.73453 0.78164 0.85978 0.0
H137 H 0.67854 0.79687 0.88486 0.0
H138 H 0.75368 0.79061 0.7471 0.0
H139 H 0.74761 0.68894 0.88556 0.0
H140 H 0.72102 0.63579 0.91974 0.0
H141 H 0.72174 0.59265 0.71928 0.0
H142 H 0.7479 0.64571 0.6836 0.0
H143 H 0.92812 0.71496 0.77799 0.0
H144 H 0.86961 0.70602 0.79593 0.0
H145 H 0.83221 0.75153 0.5971 0.0
H146 H 0.89107 0.76061 0.57935 0.0
H147 H 0.80801 0.67671 0.73365 0.0
H148 H 0.7741 0.81233 0.62598 0.0
H149 H 0.80297 0.86621 0.60296 0.0
H150 H 0.88646 0.84208 0.76509 0.0
H151 H 0.85783 0.78843 0.78977 0.0
C152 C 0.65508 0.72936 0.77675 0.0
C153 C 0.65165 0.75701 0.82077 0.0
C154 C 0.6869 0.72156 0.7598 0.0
C155 C 0.71594 0.74065 0.78841 0.0
C156 C 0.71261 0.76669 0.83638 0.0
C157 C 0.68073 0.77513 0.85152 0.0
C158 C 0.74907 0.73607 0.76413 0.0
C159 C 0.76536 0.76558 0.74432 0.0
C160 C 0.7646 0.70353 0.75985 0.0
C161 C 0.74946 0.67141 0.78175 0.0
C162 C 0.74194 0.66818 0.84868 0.0
C163 C 0.72696 0.63807 0.86832 0.0
C164 C 0.71963 0.61091 0.82166 0.0
C165 C 0.7274 0.61373 0.75534 0.0
C166 C 0.74233 0.64379 0.73541 0.0
C167 C 0.90733 0.72195 0.73719 0.0
C168 C 0.91387 0.73855 0.67749 0.0
C169 C 0.87393 0.7167 0.74732 0.0
C170 C 0.84653 0.72845 0.69825 0.0
C171 C 0.85302 0.74238 0.63575 0.0
C172 C 0.88656 0.7474 0.6254 0.0
C173 C 0.81227 0.7312 0.7176 0.0
C174 C 0.79588 0.70152 0.73614 0.0
C175 C 0.7969 0.76365 0.72258 0.0
C176 C 0.81402 0.79618 0.70899 0.0
C177 C 0.79857 0.81861 0.65679 0.0
C178 C 0.81488 0.84911 0.64349 0.0
C179 C 0.84659 0.8575 0.68234 0.0
C180 C 0.86197 0.83551 0.73485 0.0
C181 C 0.84571 0.80505 0.74848 0.0
H182 H 0.8592 0.88108 0.67187 0.0
H183 H 0.708 0.58765 0.8369 0.0
H184 H 0.53161 0.40996 0.11792 0.0
H185 H 0.54626 0.45714 0.04702 0.0
H186 H 0.52981 0.39096 0.8685 0.0
H187 H 0.51527 0.34324 0.94034 0.0
H188 H 0.58899 0.4753 0.96308 0.0
H189 H 0.49014 0.42871 0.74585 0.0
H190 H 0.43897 0.39165 0.72559 0.0
H191 H 0.41327 0.42398 0.9187 0.0
H192 H 0.46436 0.46098 0.94001 0.0
H193 H 0.5704 0.63829 0.80131 0.0
H194 H 0.57891 0.5756 0.80124 0.0
H195 H 0.47793 0.56117 0.84755 0.0
H196 H 0.46869 0.62251 0.84133 0.0
H197 H 0.48851 0.50881 0.79022 0.0
H198 H 0.56306 0.57251 0.97647 0.0
H199 H 0.61006 0.61256 0.01949 0.0
H200 H 0.6781 0.5526 0.92082 0.0
H201 H 0.63138 0.51246 0.87669 0.0
C202 C 0.53237 0.40509 0.06399 0.0
C203 C 0.5224 0.37295 0.03464 0.0
C204 C 0.54079 0.43214 0.02338 0.0
C205 C 0.53892 0.42793 0.95202 0.0
C206 C 0.53141 0.39499 0.92333 0.0
C207 C 0.52334 0.3676 0.96445 0.0
C208 C 0.54009 0.45923 0.90814 0.0
C209 C 0.56733 0.48242 0.92422 0.0
C210 C 0.51184 0.46893 0.85799 0.0
C211 C 0.48084 0.44748 0.84432 0.0
C212 C 0.47339 0.42799 0.78361 0.0
C213 C 0.44452 0.40692 0.77214 0.0
C214 C 0.42288 0.40548 0.8208 0.0
C215 C 0.43004 0.42509 0.88108 0.0
C216 C 0.45894 0.44604 0.89292 0.0
C217 C 0.54947 0.62149 0.80746 0.0
C218 C 0.5189 0.63536 0.82156 0.0
C219 C 0.5546 0.58556 0.80926 0.0
C220 C 0.52965 0.56317 0.82741 0.0
C221 C 0.49793 0.57723 0.83389 0.0
C222 C 0.49255 0.61264 0.83017 0.0
C223 C 0.53669 0.52614 0.84762 0.0
C224 C 0.51093 0.50157 0.82697 0.0
C225 C 0.56577 0.51581 0.89584 0.0
C226 C 0.59372 0.53984 0.92259 0.0
C227 C 0.58804 0.56801 0.96379 0.0
C228 C 0.6146 0.59072 -0.01171 0.0
C229 C 0.64701 0.58524 0.97257 0.0
C230 C 0.65296 0.55693 0.93262 0.0
C231 C 0.62646 0.53421 0.90785 0.0
H232 H 0.66753 0.60284 -0.00849 0.0
H233 H 0.40056 0.38916 0.81182 0.0
H234 H 0.92174 0.29671 0.33822 0.0
H235 H 0.86058 0.30962 0.31872 0.0
H236 H 0.84832 0.25903 0.121 0.0
H237 H 0.90912 0.24582 0.1404 0.0
H238 H 0.80944 0.31886 0.11788 0.0
H239 H 0.83391 0.2155 0.25588 0.0
H240 H 0.86193 0.18235 0.35689 0.0
H241 H 0.81743 0.24854 0.49127 0.0
H242 H 0.78955 0.28243 0.39101 0.0
H243 H 0.64841 0.2452 0.03215 0.0
H244 H 0.7085 0.2591 0.06517 0.0
H245 H 0.68887 0.30582 0.25298 0.0
H246 H 0.62802 0.29173 0.21995 0.0
H247 H 0.74322 0.25981 0.27494 0.0
H248 H 0.70994 0.35649 0.13163 0.0
H249 H 0.68008 0.38642 0.02804 0.0
H250 H 0.73991 0.33171 0.90235 0.0
H251 H 0.76975 0.30098 0.005 0.0
C252 C 0.90612 0.28912 0.28988 0.0
C253 C 0.92015 0.27018 0.24085 0.0
C254 C 0.87117 0.2963 0.27904 0.0
C255 C 0.84986 0.28499 0.21869 0.0
C256 C 0.86427 0.268 0.16791 0.0
C257 C 0.89901 0.26043 0.17909 0.0
C258 C 0.81228 0.28831 0.20999 0.0
C259 C 0.79493 0.30606 0.15227 0.0
C260 C 0.79339 0.27225 0.25584 0.0
C261 C 0.81008 0.25183 0.31607 0.0
C262 C 0.83038 0.22321 0.30703 0.0
C263 C 0.84619 0.20424 0.36412 0.0
C264 C 0.8416 0.21343 0.43049 0.0
C265 C 0.82107 0.24152 0.43985 0.0
C266 C 0.80526 0.26062 0.38292 0.0
C267 C 0.65671 0.25885 0.08012 0.0
C268 C 0.63347 0.2674 0.12346 0.0
C269 C 0.6911 0.26689 0.09883 0.0
C270 C 0.70319 0.28373 0.16131 0.0
C271 C 0.68003 0.29294 0.20438 0.0
C272 C 0.6453 0.28513 0.18527 0.0
C273 C 0.74034 0.2898 0.18201 0.0
C274 C 0.75766 0.27358 0.2417 0.0
C275 C 0.7592 0.30722 0.13791 0.0
C276 C 0.74202 0.32632 0.07611 0.0
C277 C 0.71665 0.35073 0.08187 0.0
C278 C 0.69971 0.36783 0.0233 0.0
C279 C 0.70806 0.36094 0.95865 0.0
C280 C 0.73348 0.33703 0.95248 0.0
C281 C 0.75046 0.3198 0.01089 0.0
H282 H 0.69486 0.37415 0.91334 0.0
H283 H 0.85385 0.19871 0.47463 0.0
H284 H 0.36279 0.27209 0.02614 0.0
H285 H 0.30997 0.2573 0.06649 0.0
H286 H 0.36715 0.1977 0.23232 0.0
H287 H 0.41964 0.21049 0.1889 0.0
H288 H 0.30598 0.17222 0.20547 0.0
H289 H 0.35071 0.28729 0.2469 0.0
H290 H 0.37055 0.34385 0.21288 0.0
H291 H 0.27274 0.36277 0.08831 0.0
H292 H 0.25248 0.30612 0.12096 0.0
H293 H 0.18765 0.27691 0.41514 0.0
H294 H 0.24066 0.26486 0.37389 0.0
H295 H 0.18883 0.18974 0.2319 0.0
H296 H 0.13578 0.20127 0.27423 0.0
H297 H 0.24784 0.28064 0.24887 0.0
H298 H 0.24844 0.13564 0.17957 0.0
H299 H 0.23205 0.08019 0.22543 0.0
H300 H 0.24506 0.12309 0.4293 0.0
H301 H 0.26198 0.1786 0.38488 0.0
C302 C 0.36382 0.25447 0.06915 0.0
C303 C 0.3953 0.24242 0.1043 0.0
C304 C 0.33367 0.2464 0.09292 0.0
C305 C 0.33459 0.2275 0.15428 0.0
C306 C 0.36562 0.2126 0.18533 0.0
C307 C 0.39569 0.21977 0.16019 0.0
C308 C 0.30463 0.22717 0.1907 0.0
C309 C 0.29315 0.1959 0.2146 0.0
C310 C 0.28824 0.25809 0.20465 0.0
C311 C 0.3002 0.29238 0.18589 0.0
C312 C 0.3335 0.30348 0.21208 0.0
C313 C 0.34481 0.33554 0.19302 0.0
C314 C 0.32294 0.35686 0.14835 0.0
C315 C 0.28966 0.34621 0.12284 0.0
C316 C 0.27825 0.31415 0.14163 0.0
C317 C 0.18786 0.25677 0.3772 0.0
C318 C 0.15747 0.24011 0.34794 0.0
C319 C 0.21814 0.25015 0.35306 0.0
C320 C 0.21879 0.22677 0.29892 0.0
C321 C 0.18917 0.20777 0.27392 0.0
C322 C 0.15882 0.21421 0.29858 0.0
C323 C 0.24897 0.22569 0.26345 0.0
C324 C 0.26048 0.25684 0.23957 0.0
C325 C 0.26577 0.19481 0.25131 0.0
C326 C 0.25613 0.16137 0.27868 0.0
C327 C 0.24793 0.13319 0.23421 0.0
C328 C 0.23853 0.10175 0.25997 0.0
C329 C 0.2374 0.09816 0.33019 0.0
C330 C 0.24581 0.12595 0.37487 0.0
C331 C 0.25525 0.15741 0.3494 0.0
H332 H 0.23008 0.07382 0.35 0.0
H333 H 0.33175 0.38165 0.1336 0.0
H334 H 0.42704 0.8033 0.77952 0.0
H335 H 0.36573 0.81162 0.75057 0.0
H336 H 0.35242 0.75396 0.93148 0.0
H337 H 0.41386 0.74425 0.95924 0.0
H338 H 0.31266 0.73022 0.81937 0.0
H339 H 0.34026 0.84431 0.9137 0.0
H340 H 0.3714 0.89937 0.91994 0.0
H341 H 0.32909 0.92019 0.708 0.0
H342 H 0.2981 0.86502 0.70017 0.0
H343 H 0.14104 0.74565 0.80799 0.0
H344 H 0.20141 0.75721 0.84718 0.0
H345 H 0.20527 0.81297 0.65896 0.0
H346 H 0.14404 0.80248 0.6206 0.0
H347 H 0.24991 0.84 0.76779 0.0
H348 H 0.22544 0.73016 0.66608 0.0
H349 H 0.19676 0.67398 0.64594 0.0
H350 H 0.23589 0.64397 0.85477 0.0
H351 H 0.26439 0.70023 0.8765 0.0
C352 C 0.41116 0.79282 0.81387 0.0
C353 C 0.42531 0.77302 0.87172 0.0
C354 C 0.37606 0.79782 0.79739 0.0
C355 C 0.35443 0.78369 0.83913 0.0
C356 C 0.36864 0.76514 0.89855 0.0
C357 C 0.40376 0.75978 0.91464 0.0
C358 C 0.31693 0.78543 0.81757 0.0
C359 C 0.29892 0.7543 0.80956 0.0
C360 C 0.29922 0.81674 0.80074 0.0
C361 C 0.317 0.85042 0.80627 0.0
C362 C 0.33768 0.86057 0.86837 0.0
C363 C 0.35532 0.8918 0.87218 0.0
C364 C 0.35227 0.91324 0.81438 0.0
C365 C 0.33144 0.90356 0.75273 0.0
C366 C 0.31379 0.87234 0.74861 0.0
C367 C 0.15457 0.76122 0.77588 0.0
C368 C 0.13819 0.7729 0.71111 0.0
C369 C 0.18905 0.76769 0.79814 0.0
C370 C 0.20802 0.7851 0.75513 0.0
C371 C 0.19112 0.79928 0.69272 0.0
C372 C 0.15622 0.79334 0.6709 0.0
C373 C 0.24572 0.78486 0.77253 0.0
C374 C 0.26373 0.81604 0.7786 0.0
C375 C 0.26376 0.75353 0.78597 0.0
C376 C 0.24678 0.71956 0.77311 0.0
C377 C 0.22771 0.71169 0.70788 0.0
C378 C 0.21152 0.67982 0.69615 0.0
C379 C 0.21443 0.65545 0.74909 0.0
C380 C 0.23362 0.66289 0.81384 0.0
C381 C 0.24982 0.69477 0.82588 0.0
H382 H 0.20189 0.63078 0.73991 0.0
H383 H 0.36601 0.93736 0.81739 0.0
H384 H 0.47863 0.87713 0.86774 0.0
H385 H 0.46247 0.92403 0.93912 0.0
H386 H 0.56396 0.92431 0.05866 0.0
H387 H 0.57988 0.87745 -0.01241 0.0
H388 H 0.51689 0.94112 0.13955 0.0
H389 H 0.54439 0.97546 0.91855 0.0
H390 H 0.53736 0.97474 0.79152 0.0
H391 H 0.43362 0.00767 0.77619 0.0
H392 H 0.43995 0.00816 0.90326 0.0
H393 H 0.56648 0.11296 0.21436 0.0
H394 H 0.55352 0.05251 0.19139 0.0
H395 H 0.45444 0.08014 0.07937 0.0
H396 H 0.46782 0.14104 0.10181 0.0
H397 H 0.48773 0.04616 -0.00156 0.0
H398 H 0.4655 0.02381 0.22303 0.0
H399 H 0.47471 0.0259 0.3501 0.0
H400 H 0.56911 0.9716 0.3605 0.0
H401 H 0.56076 0.96963 0.23346 0.0
C402 C 0.49691 0.88617 0.91136 0.0
C403 C 0.5303 0.87329 0.92315 0.0
C404 C 0.48783 0.91326 0.95162 0.0
C405 C 0.51214 0.92817 0.0038 0.0
C406 C 0.54469 0.91331 0.019 0.0
C407 C 0.55375 0.88635 0.97865 0.0
C408 C 0.50544 0.96159 0.03653 0.0
C409 C 0.51046 0.96412 0.10883 0.0
C410 C 0.4963 0.99159 -0.00341 0.0
C411 C 0.49251 0.99143 0.92029 0.0
C412 C 0.52001 0.9823 0.88805 0.0
C413 C 0.51617 0.98198 0.81608 0.0
C414 C 0.48503 0.99106 0.7758 0.0
C415 C 0.4577 1.00057 0.80745 0.0
C416 C 0.4614 1.00089 0.87943 0.0
C417 C 0.54109 0.10605 0.18874 0.0
C418 C 0.51812 0.13183 0.16037 0.0
C419 C 0.53374 0.07128 0.17487 0.0
C420 C 0.50305 0.06142 0.13285 0.0
C421 C 0.47838 0.08693 0.1116 0.0
C422 C 0.48576 0.12183 0.12571 0.0
C423 C 0.49958 0.02606 0.10202 0.0
C424 C 0.49306 0.02315 0.02968 0.0
C425 C 0.50746 0.99584 0.14207 0.0
C426 C 0.51255 0.99672 0.21858 0.0
C427 C 0.48834 0.0125 0.25237 0.0
C428 C 0.4934 0.01364 0.32443 0.0
C429 C 0.5225 0.99893 0.36335 0.0
C430 C 0.54657 0.98298 0.33028 0.0
C431 C 0.54166 0.98179 0.25823 0.0
H432 H 0.52637 0.99986 0.41913 0.0
H433 H 0.48211 0.9908 0.72009 0.0
H434 H 0.02423 0.84512 0.52188 0.0
H435 H 0.03597 0.89465 0.45157 0.0
H436 H 0.03767 0.96132 0.62733 0.0
H437 H 0.025 0.91282 0.69616 0.0
H438 H 0.99799 0.98696 0.52262 0.0
H439 H 0.11065 0.93786 0.56173 0.0
H440 H 0.15286 0.89198 0.55746 0.0
H441 H 0.12706 0.88985 0.33635 0.0
H442 H 0.08433 0.93542 0.33938 0.0
H443 H 0.06896 0.14134 0.44 0.0
H444 H 0.07939 0.08205 0.48083 0.0
H445 H 0.0239 0.04411 0.28793 0.0
H446 H 0.01208 0.10338 0.24831 0.0
H447 H 0.09122 1.00149 0.38792 0.0
H448 H 0.97272 0.04752 0.35711 0.0
H449 H 0.93238 0.09431 0.3686 0.0
H450 H 0.97171 0.1005 0.58577 0.0
H451 H 0.01343 0.05513 0.57465 0.0
C452 C 0.02723 0.87038 0.54529 0.0
C453 C 0.02307 0.87514 0.61421 0.0
C454 C 0.03419 0.89862 0.50528 0.0
C455 C 0.03765 0.93183 0.53408 0.0
C456 C 0.03477 0.93611 0.60359 0.0
C457 C 0.02741 0.90825 0.64294 0.0
C458 C 0.04169 0.96293 0.49195 0.0
C459 C 0.01853 0.98992 0.49349 0.0
C460 C 0.06808 0.96689 0.45273 0.0
C461 C 0.09402 0.93978 0.45083 0.0
C462 C 0.11379 0.92743 0.51223 0.0
C463 C 0.13784 0.90151 0.51003 0.0
C464 C 0.14256 0.88794 0.44668 0.0
C465 C 0.12333 0.90035 0.38539 0.0
C466 C 0.09921 0.92624 0.38731 0.0
C467 C 0.0606 0.12033 0.40498 0.0
C468 C 0.03994 0.12678 0.34091 0.0
C469 C 0.06649 0.08646 0.42838 0.0
C470 C 0.05236 0.05874 0.38737 0.0
C471 C 0.0353 0.06513 0.32001 0.0
C472 C 0.02859 0.09897 0.29739 0.0
C473 C 0.04788 0.02514 0.42035 0.0
C474 C 0.07068 0.99798 0.4168 0.0
C475 C 0.02133 0.0208 0.45854 0.0
C476 C 0.99665 0.04854 0.46474 0.0
C477 C 0.97327 0.05947 0.40694 0.0
C478 C 0.95016 0.08576 0.41338 0.0
C479 C 0.94975 0.10077 0.4777 0.0
C480 C 0.97239 0.08941 0.53571 0.0
C481 C 0.99587 0.0635 0.52932 0.0
H482 H 0.93171 0.12098 0.48264 0.0
H483 H 0.16118 0.86787 0.44508 0.0
H484 H 0.08728 0.26716 0.06855 0.0
H485 H 0.0673 0.26982 0.94422 0.0
H486 H 0.96415 0.2526 0.97529 0.0
H487 H 0.98425 0.24855 0.09999 0.0
H488 H 0.97752 0.22157 0.85845 0.0
H489 H 0.98843 0.33285 0.95763 0.0
H490 H 0.01735 0.37756 0.03527 0.0
H491 H 0.09911 0.38038 0.91962 0.0
H492 H 0.07102 0.33521 0.84201 0.0
H493 H 0.95006 0.25808 0.50603 0.0
H494 H 0.94209 0.2738 0.62231 0.0
H495 H 0.05088 0.28341 0.68487 0.0
H496 H 0.05901 0.26872 0.56843 0.0
H497 H 0.01544 0.32835 0.75513 0.0
H498 H 0.01266 0.2056 0.6874 0.0
H499 H 0.98675 0.15979 0.60917 0.0
H500 H 0.8897 0.17901 0.66781 0.0
H501 H 0.91503 0.22579 0.745 0.0
C502 C 0.06049 0.26315 0.04863 0.0
C503 C 0.03717 0.2582 0.09326 0.0
C504 C 0.04909 0.26487 0.97797 0.0
C505 C 0.01416 0.26268 0.95146 0.0
C506 C 0.99113 0.25485 -0.00466 0.0
C507 C 1.00265 0.25244 0.06622 0.0
C508 C 1.00203 0.27081 0.87848 0.0
C509 C 0.98485 0.24532 0.83593 0.0
C510 C 0.01139 0.30203 0.84971 0.0
C511 C 0.02755 0.3306 0.89389 0.0
C512 C 0.01256 0.34301 0.94869 0.0
C513 C 0.02886 0.36838 -0.00719 0.0
C514 C 0.06004 0.38181 -0.01763 0.0
C515 C 0.07491 0.37 0.92756 0.0
C516 C 0.05877 0.34455 0.88337 0.0
C517 C 0.97224 0.26401 0.54443 0.0
C518 C 0.00526 0.26102 0.52929 0.0
C519 C 0.96757 0.27341 0.61035 0.0
C520 C 0.99592 0.27912 0.66203 0.0
C521 C 0.0287 0.27904 0.64543 0.0
C522 C 0.03336 0.27015 0.57928 0.0
C523 C 0.9926 0.27837 0.73518 0.0
C524 C 0.00674 0.30531 0.77794 0.0
C525 C 0.98033 0.24859 0.76431 0.0
C526 C 0.96562 0.21922 0.72142 0.0
C527 C 0.98581 0.19997 0.68364 0.0
C528 C 0.9712 0.17391 0.63934 0.0
C529 C 0.93656 0.16637 0.63362 0.0
C530 C 0.91651 0.18487 0.67231 0.0
C531 C 0.93096 0.21122 0.71621 0.0
H532 H 0.92522 0.14621 0.59925 0.0
H533 H 0.07268 0.40137 0.01674 0.0
H534 H 0.02327 0.69629 0.84618 0.0
H535 H 0.02378 0.68442 0.96843 0.0
H536 H 0.10297 0.76008 0.02367 0.0
H537 H 0.10261 0.77187 0.90201 0.0
H538 H 0.10206 0.7111 0.12739 0.0
H539 H 0.02364 0.78843 0.97727 0.0
H540 H 0.97959 0.79998 0.8752 0.0
H541 H 0.91482 0.72359 0.94261 0.0
H542 H 0.95878 0.71129 0.04471 0.0
H543 H 0.07647 0.8016 0.41121 0.0
H544 H 0.07837 0.79328 0.28872 0.0
H545 H 0.98621 0.73298 0.26643 0.0
H546 H 0.98309 0.74327 0.38764 0.0
H547 H 0.99058 0.76296 0.14856 0.0
H548 H 0.06544 0.69516 0.31355 0.0
H549 H 0.1089 0.68803 0.41827 0.0
H550 H 0.18031 0.74614 0.32458 0.0
H551 H 0.13707 0.75412 0.21972 0.0
C552 C 0.04215 0.70887 0.88436 0.0
C553 C 0.06222 0.73569 0.86536 0.0
C554 C 0.04232 0.70217 0.95417 0.0
C555 C 0.06258 0.72227 0.00467 0.0
C556 C 0.08685 0.74462 -0.01465 0.0
C557 C 0.08657 0.75143 0.91583 0.0
C558 C 0.05301 0.72711 0.07308 0.0
C559 C 0.07763 0.72212 0.13229 0.0
C560 C 0.02098 0.74133 0.07921 0.0
C561 C 0.99452 0.74879 0.0182 0.0
C562 C 1.00006 0.77401 0.9701 0.0
C563 C 0.97513 0.78069 0.91231 0.0
C564 C 0.9444 0.7626 0.90257 0.0
C565 C 0.93862 0.73762 0.95035 0.0
C566 C 0.96352 0.73077 0.00815 0.0
C567 C 0.05586 0.78796 0.37917 0.0
C568 C 0.02985 0.77275 0.40833 0.0
C569 C 0.05713 0.78284 0.30961 0.0
C570 C 0.03328 0.76117 0.26957 0.0
C571 C 0.00515 0.74932 0.29677 0.0
C572 C 1.00329 0.75537 0.36587 0.0
C573 C 0.03989 0.74759 0.203 0.0
C574 C 0.01468 0.75102 0.14423 0.0
C575 C 0.07131 0.73176 0.19746 0.0
C576 C 0.09798 0.72531 0.25885 0.0
C577 C 0.09043 0.70636 0.31525 0.0
C578 C 0.11499 0.70225 0.3747 0.0
C579 C 0.14734 0.71663 0.37808 0.0
C580 C 0.15525 0.73499 0.32186 0.0
C581 C 0.13074 0.73928 0.26236 0.0
H582 H 0.16629 0.71354 0.42426 0.0
H583 H 0.92502 0.76805 0.85814 0.0
H584 H 0.56335 0.69532 0.10295 0.0
H585 H 0.54303 0.69898 0.21168 0.0
H586 H 0.5388 0.8095 0.19457 0.0
H587 H 0.55676 0.80612 0.08151 0.0
H588 H 0.57379 0.74136 0.33115 0.0
H589 H 0.48125 0.81976 0.19761 0.0
H590 H 0.43782 0.83016 0.09408 0.0
H591 H 0.39609 0.72955 0.11371 0.0
H592 H 0.44017 0.71815 0.21603 0.0
H593 H 0.4908 0.8264 0.57246 0.0
H594 H 0.4821 0.81199 0.45045 0.0
H595 H 0.50047 0.70496 0.5017 0.0
H596 H 0.50949 0.71919 0.62445 0.0
H597 H 0.45277 0.76593 0.34274 0.0
H598 H 0.56884 0.68502 0.43171 0.0
H599 H 0.61158 0.67243 0.5355 0.0
H600 H 0.60471 0.77639 0.60524 0.0
H601 H 0.56236 0.78967 0.50127 0.0
C602 C 0.55856 0.7206 0.12227 0.0
C603 C 0.56119 0.75051 0.08315 0.0
C604 C 0.54649 0.72249 0.18402 0.0
C605 C 0.53782 0.7543 0.20874 0.0
C606 C 0.54361 0.78459 0.17377 0.0
C607 C 0.55471 0.7827 0.11043 0.0
C608 C 0.52473 0.75529 0.27364 0.0
C609 C 0.54734 0.74671 0.33372 0.0
C610 C 0.49006 0.76142 0.27611 0.0
C611 C 0.46456 0.76779 0.21318 0.0
C612 C 0.46339 0.79955 0.17879 0.0
C613 C 0.43854 0.80569 0.12057 0.0
C614 C 0.41429 0.78049 0.09722 0.0
C615 C 0.41501 0.74897 0.13166 0.0
C616 C 0.44002 0.7426 0.18953 0.0
C617 C 0.4918 0.79962 0.5578 0.0
C618 C 0.50233 0.77408 0.60741 0.0
C619 C 0.48628 0.79136 0.48807 0.0
C620 C 0.49163 0.75763 0.46765 0.0
C621 C 0.49663 0.73122 0.51702 0.0
C622 C 0.50207 0.73945 0.58702 0.0
C623 C 0.50211 0.75281 0.40047 0.0
C624 C 0.47912 0.76031 0.33993 0.0
C625 C 0.53655 0.74561 0.39719 0.0
C626 C 0.56225 0.73817 0.45933 0.0
C627 C 0.57656 0.70516 0.46919 0.0
C628 C 0.6007 0.69793 0.52794 0.0
C629 C 0.6108 0.72358 0.57694 0.0
C630 C 0.59683 0.75655 0.56726 0.0
C631 C 0.57279 0.76395 0.50844 0.0
H632 H 0.62956 0.71793 0.62222 0.0
H633 H 0.39476 0.78551 0.05283 0.0
H634 H 0.56682 0.25026 0.33219 0.0
H635 H 0.58935 0.24727 0.45582 0.0
H636 H 0.51355 0.32018 0.49522 0.0
H637 H 0.49139 0.32394 0.37211 0.0
H638 H 0.5742 0.32673 0.58879 0.0
H639 H 0.49396 0.23589 0.48562 0.0
H640 H 0.47682 0.18756 0.40584 0.0
H641 H 0.5692 0.13415 0.48817 0.0
H642 H 0.58698 0.18241 0.56795 0.0
H643 H 0.49179 0.2848 0.86561 0.0
H644 H 0.51361 0.30067 0.76059 0.0
H645 H 0.57783 0.21052 0.78389 0.0
H646 H 0.55464 0.19353 0.88447 0.0
H647 H 0.54394 0.21101 0.66548 0.0
H648 H 0.61191 0.29378 0.79889 0.0
H649 H 0.62748 0.34114 0.88156 0.0
H650 H 0.56049 0.40932 0.7503 0.0
H651 H 0.54411 0.36228 0.66717 0.0
C652 C 0.55521 0.26591 0.36722 0.0
C653 C 0.52678 0.28662 0.34298 0.0
C654 C 0.56843 0.26456 0.43749 0.0
C655 C 0.55292 0.28338 0.48418 0.0
C656 C 0.52599 0.30572 0.45968 0.0
C657 C 0.51301 0.30738 0.3895 0.0
C658 C 0.55957 0.27495 0.55796 0.0
C659 C 0.56801 0.30144 0.60636 0.0
C660 C 0.55248 0.24163 0.58023 0.0
C661 C 0.542 0.21288 0.53181 0.0
C662 C 0.51071 0.21395 0.48621 0.0
C663 C 0.50087 0.18657 0.44112 0.0
C664 C 0.52198 0.15787 0.44173 0.0
C665 C 0.55294 0.15645 0.48757 0.0
C666 C 0.56292 0.1838 0.53268 0.0
C667 C 0.51006 0.26821 0.84713 0.0
C668 C 0.52044 0.23731 0.88114 0.0
C669 C 0.52319 0.27768 0.78852 0.0
C670 C 0.54765 0.25689 0.76509 0.0
C671 C 0.55891 0.22681 0.80096 0.0
C672 C 0.54508 0.21684 0.85767 0.0
C673 C 0.55728 0.26314 0.69734 0.0
C674 C 0.55178 0.23609 0.64966 0.0
C675 C 0.56724 0.29587 0.67654 0.0
C676 C 0.57668 0.32435 0.72672 0.0
C677 C 0.60028 0.31878 0.78779 0.0
C678 C 0.60932 0.34562 0.83469 0.0
C679 C 0.59506 0.37824 0.82106 0.0
C680 C 0.57166 0.38407 0.76056 0.0
C681 C 0.56251 0.35732 0.7135 0.0
H682 H 0.60204 0.39897 0.85748 0.0
H683 H 0.5143 0.13667 0.40684 0.0
loop_
_geom_bond_atom_site_label_1
_geom_bond_atom_site_label_2
_geom_bond_distance
_geom_bond_site_symmetry_2
_ccdc_geom_bond_type
O0 Mg1 1.990 1_455 S
O0 C14 1.253 . S
Mg1 O0 1.990 1_655 S
Mg1 O4 2.180 1_655 S
Mg1 O5 2.117 1_655 S
Mg1 O19 2.030 . S
O2 Mg3 2.072 . S
O2 C14 1.260 . S
Mg3 O2 2.072 . S
Mg3 O4 2.099 . S
Mg3 O6 2.079 . S
Mg3 O7 2.072 . S
Mg3 O9 2.099 . S
Mg3 O20 2.079 1_455 S
O4 Mg1 2.180 1_455 S
O4 Mg3 2.099 . S
O4 C15 1.279 . S
O5 Mg1 2.117 1_455 S
O5 C15 1.250 . S
O6 Mg3 2.079 . S
O6 C16 1.264 . S
O7 Mg3 2.072 . S
O7 C17 1.260 . S
Mg8 O9 2.180 . S
Mg8 O10 2.030 . S
Mg8 O11 1.990 . S
Mg8 O12 2.117 . S
O9 Mg3 2.099 . S
O9 Mg8 2.180 . S
O9 C18 1.279 . S
O10 Mg8 2.030 . S
O10 C16 1.248 . S
O11 Mg8 1.990 . S
O11 C17 1.253 . S
O12 Mg8 2.117 . S
O12 C18 1.250 . S
C13 O19 1.248 . S
C13 O20 1.264 . S
C14 O0 1.253 . S
C14 O2 1.260 . S
C15 O4 1.279 . S
C15 O5 1.250 . S
C16 O6 1.264 . S
C16 O10 1.248 . S
C17 O7 1.260 . S
C17 O11 1.253 . S
C18 O9 1.279 . S
C18 O12 1.250 . S
O19 Mg1 2.030 . S
O19 C13 1.248 . S
O20 Mg3 2.079 1_655 S
O20 C13 1.264 . S
O21 Mg22 1.990 . S
O21 C35 1.253 . S
Mg22 O21 1.990 . S
Mg22 O25 2.180 . S
Mg22 O26 2.117 . S
Mg22 O40 2.030 . S
O23 Mg24 2.072 . S
O23 C35 1.260 . S
Mg24 O23 2.072 . S
Mg24 O25 2.099 . S
Mg24 O27 2.079 . S
Mg24 O28 2.072 1_455 S
Mg24 O30 2.099 . S
Mg24 O41 2.079 . S
O25 Mg22 2.180 . S
O25 Mg24 2.099 . S
O25 C36 1.279 . S
O26 Mg22 2.117 . S
O26 C36 1.250 . S
O27 Mg24 2.079 . S
O27 C37 1.264 . S
O28 Mg24 2.072 1_655 S
O28 C38 1.260 . S
Mg29 O30 2.180 1_655 S
Mg29 O31 2.030 . S
Mg29 O32 1.990 . S
Mg29 O33 2.117 . S
O30 Mg24 2.099 . S
O30 Mg29 2.180 1_455 S
O30 C39 1.279 . S
O31 Mg29 2.030 . S
O31 C37 1.248 1_655 S
O32 Mg29 1.990 . S
O32 C38 1.253 . S
O33 Mg29 2.117 . S
O33 C39 1.250 1_655 S
C34 O40 1.248 . S
C34 O41 1.264 . S
C35 O21 1.253 . S
C35 O23 1.260 . S
C36 O25 1.279 . S
C36 O26 1.250 . S
C37 O27 1.264 . S
C37 O31 1.248 1_455 S
C38 O28 1.260 . S
C38 O32 1.253 . S
C39 O30 1.279 . S
C39 O33 1.250 1_455 S
O40 Mg22 2.030 . S
O40 C34 1.248 . S
O41 Mg24 2.079 . S
O41 C34 1.264 . S
O42 Mg43 1.990 1_554 S
O42 C56 1.253 . S
Mg43 O42 1.990 1_556 S
Mg43 O46 2.180 . S
Mg43 O47 2.117 . S
Mg43 O61 2.030 . S
O44 Mg45 2.072 . S
O44 C56 1.260 1_556 S
Mg45 O44 2.072 . S
Mg45 O46 2.099 . S
Mg45 O48 2.079 . S
Mg45 O49 2.072 . S
Mg45 O51 2.099 . S
Mg45 O62 2.079 . S
O46 Mg43 2.180 . S
O46 Mg45 2.099 . S
O46 C57 1.279 . S
O47 Mg43 2.117 . S
O47 C57 1.250 . S
O48 Mg45 2.079 . S
O48 C58 1.264 . S
O49 Mg45 2.072 . S
O49 C59 1.260 . S
Mg50 O51 2.180 . S
Mg50 O52 2.030 . S
Mg50 O53 1.990 . S
Mg50 O54 2.117 . S
O51 Mg45 2.099 . S
O51 Mg50 2.180 . S
O51 C60 1.279 . S
O52 Mg50 2.030 . S
O52 C58 1.248 . S
O53 Mg50 1.990 . S
O53 C59 1.253 . S
O54 Mg50 2.117 . S
O54 C60 1.250 . S
C55 O61 1.248 . S
C55 O62 1.264 . S
C56 O42 1.253 . S
C56 O44 1.260 1_554 S
C57 O46 1.279 . S
C57 O47 1.250 . S
C58 O48 1.264 . S
C58 O52 1.248 . S
C59 O49 1.260 . S
C59 O53 1.253 . S
C60 O51 1.279 . S
C60 O54 1.250 . S
O61 Mg43 2.030 . S
O61 C55 1.248 . S
O62 Mg45 2.079 . S
O62 C55 1.264 . S
O63 Mg64 1.990 1_556 S
O63 C77 1.253 . S
Mg64 O63 1.990 1_554 S
Mg64 O67 2.180 . S
Mg64 O68 2.117 . S
Mg64 O82 2.030 . S
O65 Mg66 2.072 . S
O65 C77 1.260 1_554 S
Mg66 O65 2.072 . S
Mg66 O67 2.099 . S
Mg66 O69 2.079 . S
Mg66 O70 2.072 . S
Mg66 O72 2.099 . S
Mg66 O83 2.079 . S
O67 Mg64 2.180 . S
O67 Mg66 2.099 . S
O67 C78 1.279 . S
O68 Mg64 2.117 . S
O68 C78 1.250 . S
O69 Mg66 2.079 . S
O69 C79 1.264 . S
O70 Mg66 2.072 . S
O70 C80 1.260 . S
Mg71 O72 2.180 . S
Mg71 O73 2.030 . S
Mg71 O74 1.990 . S
Mg71 O75 2.117 . S
O72 Mg66 2.099 . S
O72 Mg71 2.180 . S
O72 C81 1.279 . S
O73 Mg71 2.030 . S
O73 C79 1.248 . S
O74 Mg71 1.990 . S
O74 C80 1.253 . S
O75 Mg71 2.117 . S
O75 C81 1.250 . S
C76 O82 1.248 . S
C76 O83 1.264 . S
C77 O63 1.253 . S
C77 O65 1.260 1_556 S
C78 O67 1.279 . S
C78 O68 1.250 . S
C79 O69 1.264 . S
C79 O73 1.248 . S
C80 O70 1.260 . S
C80 O74 1.253 . S
C81 O72 1.279 . S
C81 O75 1.250 . S
O82 Mg64 2.030 . S
O82 C76 1.248 . S
O83 Mg66 2.079 . S
O83 C76 1.264 . S
H84 C102 0.951 . S
H85 C104 0.951 . S
H86 C106 0.950 . S
H87 C107 0.950 . S
H88 C109 0.950 . S
H89 C112 0.950 . S
H90 C113 0.950 . S
H91 C115 0.950 . S
H92 C116 0.950 . S
H93 C117 0.951 . S
H94 C119 0.951 . S
H95 C121 0.950 . S
H96 C122 0.950 . S
H97 C124 0.950 . S
H98 C127 0.950 . S
H99 C128 0.950 . S
H100 C130 0.950 . S
H101 C131 0.950 . S
C102 H84 0.951 . S
C102 C103 1.366 . S
C102 C104 1.388 . S
C103 C102 1.366 . S
C103 C107 1.385 1_455 S
C104 H85 0.951 . S
C104 C102 1.388 . S
C104 C105 1.366 . S
C105 C104 1.366 . S
C105 C106 1.414 1_455 S
C105 C108 1.499 . S
C106 H86 0.950 . S
C106 C105 1.414 1_655 S
C106 C107 1.374 . S
C107 H87 0.950 . S
C107 C103 1.385 1_655 S
C107 C106 1.374 . S
C108 C105 1.499 . S
C108 C109 1.373 1_455 S
C108 C110 1.389 . S
C109 H88 0.950 . S
C109 C108 1.373 1_655 S
C109 C125 1.377 . S
C110 C108 1.389 . S
C110 C111 1.524 . S
C110 C124 1.377 . S
C111 C110 1.524 . S
C111 C112 1.397 . S
C111 C116 1.363 . S
C112 H89 0.950 . S
C112 C111 1.397 . S
C112 C113 1.334 . S
C113 H90 0.950 . S
C113 C112 1.334 . S
C113 C114 1.287 . S
C114 C113 1.287 . S
C114 C115 1.524 . S
C114 H133 0.913 . S
C115 H91 0.950 . S
C115 C114 1.524 . S
C115 C116 1.415 . S
C116 H92 0.950 . S
C116 C111 1.363 . S
C116 C115 1.415 . S
C117 H93 0.951 . S
C117 C118 1.366 1_655 S
C117 C119 1.388 . S
C118 C117 1.366 1_455 S
C118 C122 1.385 . S
C119 H94 0.951 . S
C119 C117 1.388 . S
C119 C120 1.366 1_655 S
C120 C119 1.366 1_455 S
C120 C121 1.414 . S
C120 C123 1.499 . S
C121 H95 0.950 . S
C121 C120 1.414 . S
C121 C122 1.374 . S
C122 H96 0.950 . S
C122 C118 1.385 . S
C122 C121 1.374 . S
C123 C120 1.499 . S
C123 C124 1.373 . S
C123 C125 1.389 1_455 S
C124 H97 0.950 . S
C124 C110 1.377 . S
C124 C123 1.373 . S
C125 C109 1.377 . S
C125 C123 1.389 1_655 S
C125 C126 1.524 . S
C126 C125 1.524 . S
C126 C127 1.397 . S
C126 C131 1.363 . S
C127 H98 0.950 . S
C127 C126 1.397 . S
C127 C128 1.334 . S
C128 H99 0.950 . S
C128 C127 1.334 . S
C128 C129 1.287 . S
C129 C128 1.287 . S
C129 C130 1.524 . S
C129 H132 0.999 . S
C130 H100 0.950 . S
C130 C129 1.524 . S
C130 C131 1.415 . S
C131 H101 0.950 . S
C131 C126 1.363 . S
C131 C130 1.415 . S
H132 C129 0.999 . S
H133 C114 0.913 . S
H134 C152 0.951 . S
H135 C154 0.951 . S
H136 C156 0.950 . S
H137 C157 0.950 . S
H138 C159 0.950 . S
H139 C162 0.950 . S
H140 C163 0.950 . S
H141 C165 0.950 . S
H142 C166 0.950 . S
H143 C167 0.951 . S
H144 C169 0.951 . S
H145 C171 0.950 . S
H146 C172 0.950 . S
H147 C174 0.950 . S
H148 C177 0.950 . S
H149 C178 0.950 . S
H150 C180 0.950 . S
H151 C181 0.950 . S
C152 H134 0.951 . S
C152 C153 1.366 . S
C152 C154 1.388 . S
C153 C152 1.366 . S
C153 C157 1.385 . S
C154 H135 0.951 . S
C154 C152 1.388 . S
C154 C155 1.366 . S
C155 C154 1.366 . S
C155 C156 1.414 . S
C155 C158 1.499 . S
C156 H136 0.950 . S
C156 C155 1.414 . S
C156 C157 1.374 . S
C157 H137 0.950 . S
C157 C153 1.385 . S
C157 C156 1.374 . S
C158 C155 1.499 . S
C158 C159 1.373 . S
C158 C160 1.389 . S
C159 H138 0.950 . S
C159 C158 1.373 . S
C159 C175 1.377 . S
C160 C158 1.389 . S
C160 C161 1.524 . S
C160 C174 1.377 . S
C161 C160 1.524 . S
C161 C162 1.397 . S
C161 C166 1.363 . S
C162 H139 0.950 . S
C162 C161 1.397 . S
C162 C163 1.334 . S
C163 H140 0.950 . S
C163 C162 1.334 . S
C163 C164 1.287 . S
C164 C163 1.287 . S
C164 C165 1.524 . S
C164 H183 0.913 . S
C165 H141 0.950 . S
C165 C164 1.524 . S
C165 C166 1.415 . S
C166 H142 0.950 . S
C166 C161 1.363 . S
C166 C165 1.415 . S
C167 H143 0.951 . S
C167 C168 1.366 . S
C167 C169 1.388 . S
C168 C167 1.366 . S
C168 C172 1.385 . S
C169 H144 0.951 . S
C169 C167 1.388 . S
C169 C170 1.366 . S
C170 C169 1.366 . S
C170 C171 1.414 . S
C170 C173 1.499 . S
C171 H145 0.950 . S
C171 C170 1.414 . S
C171 C172 1.374 . S
C172 H146 0.950 . S
C172 C168 1.385 . S
C172 C171 1.374 . S
C173 C170 1.499 . S
C173 C174 1.373 . S
C173 C175 1.389 . S
C174 H147 0.950 . S
C174 C160 1.377 . S
C174 C173 1.373 . S
C175 C159 1.377 . S
C175 C173 1.389 . S
C175 C176 1.524 . S
C176 C175 1.524 . S
C176 C177 1.397 . S
C176 C181 1.363 . S
C177 H148 0.950 . S
C177 C176 1.397 . S
C177 C178 1.334 . S
C178 H149 0.950 . S
C178 C177 1.334 . S
C178 C179 1.287 . S
C179 C178 1.287 . S
C179 C180 1.524 . S
C179 H182 0.999 . S
C180 H150 0.950 . S
C180 C179 1.524 . S
C180 C181 1.415 . S
C181 H151 0.950 . S
C181 C176 1.363 . S
C181 C180 1.415 . S
H182 C179 0.999 . S
H183 C164 0.913 . S
H184 C202 0.951 . S
H185 C204 0.951 . S
H186 C206 0.950 1_556 S
H187 C207 0.950 . S
H188 C209 0.950 . S
H189 C212 0.950 . S
H190 C213 0.950 . S
H191 C215 0.950 1_554 S
H192 C216 0.950 . S
H193 C217 0.951 . S
H194 C219 0.951 . S
H195 C221 0.950 . S
H196 C222 0.950 . S
H197 C224 0.950 . S
H198 C227 0.950 . S
H199 C228 0.950 . S
H200 C230 0.950 . S
H201 C231 0.950 . S
C202 H184 0.951 . S
C202 C203 1.366 . S
C202 C204 1.388 . S
C203 C202 1.366 . S
C203 C207 1.385 . S
C204 H185 0.951 . S
C204 C202 1.388 . S
C204 C205 1.366 . S
C205 C204 1.366 . S
C205 C206 1.414 . S
C205 C208 1.499 . S
C206 H186 0.950 1_554 S
C206 C205 1.414 . S
C206 C207 1.374 . S
C207 H187 0.950 . S
C207 C203 1.385 . S
C207 C206 1.374 . S
C208 C205 1.499 . S
C208 C209 1.373 . S
C208 C210 1.389 1_554 S
C209 H188 0.950 . S
C209 C208 1.373 . S
C209 C225 1.377 1_554 S
C210 C208 1.389 1_556 S
C210 C211 1.524 . S
C210 C224 1.377 . S
C211 C210 1.524 . S
C211 C212 1.397 . S
C211 C216 1.363 1_556 S
C212 H189 0.950 . S
C212 C211 1.397 . S
C212 C213 1.334 . S
C213 H190 0.950 . S
C213 C212 1.334 . S
C213 C214 1.287 . S
C214 C213 1.287 . S
C214 C215 1.524 . S
C214 H233 0.913 . S
C215 H191 0.950 1_556 S
C215 C214 1.524 . S
C215 C216 1.415 1_556 S
C216 H192 0.950 . S
C216 C211 1.363 1_554 S
C216 C215 1.415 1_554 S
C217 H193 0.951 . S
C217 C218 1.366 . S
C217 C219 1.388 . S
C218 C217 1.366 . S
C218 C222 1.385 . S
C219 H194 0.951 . S
C219 C217 1.388 . S
C219 C220 1.366 . S
C220 C219 1.366 . S
C220 C221 1.414 . S
C220 C223 1.499 . S
C221 H195 0.950 . S
C221 C220 1.414 . S
C221 C222 1.374 . S
C222 H196 0.950 . S
C222 C218 1.385 . S
C222 C221 1.374 . S
C223 C220 1.499 . S
C223 C224 1.373 . S
C223 C225 1.389 . S
C224 H197 0.950 . S
C224 C210 1.377 . S
C224 C223 1.373 . S
C225 C209 1.377 1_556 S
C225 C223 1.389 . S
C225 C226 1.524 . S
C226 C225 1.524 . S
C226 C227 1.397 1_556 S
C226 C231 1.363 . S
C227 H198 0.950 . S
C227 C226 1.397 1_554 S
C227 C228 1.334 . S
C228 H199 0.950 . S
C228 C227 1.334 . S
C228 C229 1.287 . S
C229 C228 1.287 . S
C229 C230 1.524 1_554 S
C229 H232 0.999 . S
C230 H200 0.950 . S
C230 C229 1.524 1_556 S
C230 C231 1.415 . S
C231 H201 0.950 . S
C231 C226 1.363 . S
C231 C230 1.415 . S
H232 C229 0.999 . S
H233 C214 0.913 . S
H234 C252 0.951 . S
H235 C254 0.951 . S
H236 C256 0.950 . S
H237 C257 0.950 . S
H238 C259 0.950 . S
H239 C262 0.950 . S
H240 C263 0.950 . S
H241 C265 0.950 . S
H242 C266 0.950 . S
H243 C267 0.951 . S
H244 C269 0.951 . S
H245 C271 0.950 . S
H246 C272 0.950 . S
H247 C274 0.950 . S
H248 C277 0.950 . S
H249 C278 0.950 . S
H250 C280 0.950 1_556 S
H251 C281 0.950 . S
C252 H234 0.951 . S
C252 C253 1.366 . S
C252 C254 1.388 . S
C253 C252 1.366 . S
C253 C257 1.385 . S
C254 H235 0.951 . S
C254 C252 1.388 . S
C254 C255 1.366 . S
C255 C254 1.366 . S
C255 C256 1.414 . S
C255 C258 1.499 . S
C256 H236 0.950 . S
C256 C255 1.414 . S
C256 C257 1.374 . S
C257 H237 0.950 . S
C257 C253 1.385 . S
C257 C256 1.374 . S
C258 C255 1.499 . S
C258 C259 1.373 . S
C258 C260 1.389 . S
C259 H238 0.950 . S
C259 C258 1.373 . S
C259 C275 1.377 . S
C260 C258 1.389 . S
C260 C261 1.524 . S
C260 C274 1.377 . S
C261 C260 1.524 . S
C261 C262 1.397 . S
C261 C266 1.363 . S
C262 H239 0.950 . S
C262 C261 1.397 . S
C262 C263 1.334 . S
C263 H240 0.950 . S
C263 C262 1.334 . S
C263 C264 1.287 . S
C264 C263 1.287 . S
C264 C265 1.524 . S
C264 H283 0.913 . S
C265 H241 0.950 . S
C265 C264 1.524 . S
C265 C266 1.415 . S
C266 H242 0.950 . S
C266 C261 1.363 . S
C266 C265 1.415 . S
C267 H243 0.951 . S
C267 C268 1.366 . S
C267 C269 1.388 . S
C268 C267 1.366 . S
C268 C272 1.385 . S
C269 H244 0.951 . S
C269 C267 1.388 . S
C269 C270 1.366 . S
C270 C269 1.366 . S
C270 C271 1.414 . S
C270 C273 1.499 . S
C271 H245 0.950 . S
C271 C270 1.414 . S
C271 C272 1.374 . S
C272 H246 0.950 . S
C272 C268 1.385 . S
C272 C271 1.374 . S
C273 C270 1.499 . S
C273 C274 1.373 . S
C273 C275 1.389 . S
C274 H247 0.950 . S
C274 C260 1.377 . S
C274 C273 1.373 . S
C275 C259 1.377 . S
C275 C273 1.389 . S
C275 C276 1.524 . S
C276 C275 1.524 . S
C276 C277 1.397 . S
C276 C281 1.363 . S
C277 H248 0.950 . S
C277 C276 1.397 . S
C277 C278 1.334 . S
C278 H249 0.950 . S
C278 C277 1.334 . S
C278 C279 1.287 . S
C279 C278 1.287 . S
C279 C280 1.524 . S
C279 H282 0.999 1_554 S
C280 H250 0.950 1_554 S
C280 C279 1.524 . S
C280 C281 1.415 . S
C281 H251 0.950 . S
C281 C276 1.363 . S
C281 C280 1.415 . S
H282 C279 0.999 1_556 S
H283 C264 0.913 . S
H284 C302 0.951 . S
H285 C304 0.951 . S
H286 C306 0.950 . S
H287 C307 0.950 . S
H288 C309 0.950 . S
H289 C312 0.950 . S
H290 C313 0.950 . S
H291 C315 0.950 . S
H292 C316 0.950 . S
H293 C317 0.951 . S
H294 C319 0.951 . S
H295 C321 0.950 . S
H296 C322 0.950 . S
H297 C324 0.950 . S
H298 C327 0.950 . S
H299 C328 0.950 . S
H300 C330 0.950 . S
H301 C331 0.950 . S
C302 H284 0.951 . S
C302 C303 1.366 . S
C302 C304 1.388 . S
C303 C302 1.366 . S
C303 C307 1.385 . S
C304 H285 0.951 . S
C304 C302 1.388 . S
C304 C305 1.366 . S
C305 C304 1.366 . S
C305 C306 1.414 . S
C305 C308 1.499 . S
C306 H286 0.950 . S
C306 C305 1.414 . S
C306 C307 1.374 . S
C307 H287 0.950 . S
C307 C303 1.385 . S
C307 C306 1.374 . S
C308 C305 1.499 . S
C308 C309 1.373 . S
C308 C310 1.389 . S
C309 H288 0.950 . S
C309 C308 1.373 . S
C309 C325 1.377 . S
C310 C308 1.389 . S
C310 C311 1.524 . S
C310 C324 1.377 . S
C311 C310 1.524 . S
C311 C312 1.397 . S
C311 C316 1.363 . S
C312 H289 0.950 . S
C312 C311 1.397 . S
C312 C313 1.334 . S
C313 H290 0.950 . S
C313 C312 1.334 . S
C313 C314 1.287 . S
C314 C313 1.287 . S
C314 C315 1.524 . S
C314 H333 0.913 . S
C315 H291 0.950 . S
C315 C314 1.524 . S
C315 C316 1.415 . S
C316 H292 0.950 . S
C316 C311 1.363 . S
C316 C315 1.415 . S
C317 H293 0.951 . S
C317 C318 1.366 . S
C317 C319 1.388 . S
C318 C317 1.366 . S
C318 C322 1.385 . S
C319 H294 0.951 . S
C319 C317 1.388 . S
C319 C320 1.366 . S
C320 C319 1.366 . S
C320 C321 1.414 . S
C320 C323 1.499 . S
C321 H295 0.950 . S
C321 C320 1.414 . S
C321 C322 1.374 . S
C322 H296 0.950 . S
C322 C318 1.385 . S
C322 C321 1.374 . S
C323 C320 1.499 . S
C323 C324 1.373 . S
C323 C325 1.389 . S
C324 H297 0.950 . S
C324 C310 1.377 . S
C324 C323 1.373 . S
C325 C309 1.377 . S
C325 C323 1.389 . S
C325 C326 1.524 . S
C326 C325 1.524 . S
C326 C327 1.397 . S
C326 C331 1.363 . S
C327 H298 0.950 . S
C327 C326 1.397 . S
C327 C328 1.334 . S
C328 H299 0.950 . S
C328 C327 1.334 . S
C328 C329 1.287 . S
C329 C328 1.287 . S
C329 C330 1.524 . S
C329 H332 0.999 . S
C330 H300 0.950 . S
C330 C329 1.524 . S
C330 C331 1.415 . S
C331 H301 0.950 . S
C331 C326 1.363 . S
C331 C330 1.415 . S
H332 C329 0.999 . S
H333 C314 0.913 . S
H334 C352 0.951 . S
H335 C354 0.951 . S
H336 C356 0.950 . S
H337 C357 0.950 . S
H338 C359 0.950 . S
H339 C362 0.950 . S
H340 C363 0.950 . S
H341 C365 0.950 . S
H342 C366 0.950 . S
H343 C367 0.951 . S
H344 C369 0.951 . S
H345 C371 0.950 . S
H346 C372 0.950 . S
H347 C374 0.950 . S
H348 C377 0.950 . S
H349 C378 0.950 . S
H350 C380 0.950 . S
H351 C381 0.950 . S
C352 H334 0.951 . S
C352 C353 1.366 . S
C352 C354 1.388 . S
C353 C352 1.366 . S
C353 C357 1.385 . S
C354 H335 0.951 . S
C354 C352 1.388 . S
C354 C355 1.366 . S
C355 C354 1.366 . S
C355 C356 1.414 . S
C355 C358 1.499 . S
C356 H336 0.950 . S
C356 C355 1.414 . S
C356 C357 1.374 . S
C357 H337 0.950 . S
C357 C353 1.385 . S
C357 C356 1.374 . S
C358 C355 1.499 . S
C358 C359 1.373 . S
C358 C360 1.389 . S
C359 H338 0.950 . S
C359 C358 1.373 . S
C359 C375 1.377 . S
C360 C358 1.389 . S
C360 C361 1.524 . S
C360 C374 1.377 . S
C361 C360 1.524 . S
C361 C362 1.397 . S
C361 C366 1.363 . S
C362 H339 0.950 . S
C362 C361 1.397 . S
C362 C363 1.334 . S
C363 H340 0.950 . S
C363 C362 1.334 . S
C363 C364 1.287 . S
C364 C363 1.287 . S
C364 C365 1.524 . S
C364 H383 0.913 . S
C365 H341 0.950 . S
C365 C364 1.524 . S
C365 C366 1.415 . S
C366 H342 0.950 . S
C366 C361 1.363 . S
C366 C365 1.415 . S
C367 H343 0.951 . S
C367 C368 1.366 . S
C367 C369 1.388 . S
C368 C367 1.366 . S
C368 C372 1.385 . S
C369 H344 0.951 . S
C369 C367 1.388 . S
C369 C370 1.366 . S
C370 C369 1.366 . S
C370 C371 1.414 . S
C370 C373 1.499 . S
C371 H345 0.950 . S
C371 C370 1.414 . S
C371 C372 1.374 . S
C372 H346 0.950 . S
C372 C368 1.385 . S
C372 C371 1.374 . S
C373 C370 1.499 . S
C373 C374 1.373 . S
C373 C375 1.389 . S
C374 H347 0.950 . S
C374 C360 1.377 . S
C374 C373 1.373 . S
C375 C359 1.377 . S
C375 C373 1.389 . S
C375 C376 1.524 . S
C376 C375 1.524 . S
C376 C377 1.397 . S
C376 C381 1.363 . S
C377 H348 0.950 . S
C377 C376 1.397 . S
C377 C378 1.334 . S
C378 H349 0.950 . S
C378 C377 1.334 . S
C378 C379 1.287 . S
C379 C378 1.287 . S
C379 C380 1.524 . S
C379 H382 0.999 . S
C380 H350 0.950 . S
C380 C379 1.524 . S
C380 C381 1.415 . S
C381 H351 0.950 . S
C381 C376 1.363 . S
C381 C380 1.415 . S
H382 C379 0.999 . S
H383 C364 0.913 . S
H384 C402 0.951 . S
H385 C404 0.951 . S
H386 C406 0.950 1_554 S
H387 C407 0.950 . S
H388 C409 0.950 . S
H389 C412 0.950 . S
H390 C413 0.950 . S
H391 C415 0.950 . S
H392 C416 0.950 . S
H393 C417 0.951 . S
H394 C419 0.951 . S
H395 C421 0.950 . S
H396 C422 0.950 . S
H397 C424 0.950 . S
H398 C427 0.950 . S
H399 C428 0.950 . S
H400 C430 0.950 . S
H401 C431 0.950 . S
C402 H384 0.951 . S
C402 C403 1.366 . S
C402 C404 1.388 . S
C403 C402 1.366 . S
C403 C407 1.385 . S
C404 H385 0.951 . S
C404 C402 1.388 . S
C404 C405 1.366 . S
C405 C404 1.366 . S
C405 C406 1.414 . S
C405 C408 1.499 . S
C406 H386 0.950 1_556 S
C406 C405 1.414 . S
C406 C407 1.374 . S
C407 H387 0.950 . S
C407 C403 1.385 . S
C407 C406 1.374 . S
C408 C405 1.499 . S
C408 C409 1.373 1_556 S
C408 C410 1.389 . S
C409 H388 0.950 . S
C409 C408 1.373 1_554 S
C409 C425 1.377 1_565 S
C410 C408 1.389 . S
C410 C411 1.524 . S
C410 C424 1.377 1_565 S
C411 C410 1.524 . S
C411 C412 1.397 . S
C411 C416 1.363 1_565 S
C412 H389 0.950 . S
C412 C411 1.397 . S
C412 C413 1.334 . S
C413 H390 0.950 . S
C413 C412 1.334 . S
C413 C414 1.287 . S
C414 C413 1.287 . S
C414 C415 1.524 1_565 S
C414 H433 0.913 . S
C415 H391 0.950 . S
C415 C414 1.524 1_545 S
C415 C416 1.415 . S
C416 H392 0.950 . S
C416 C411 1.363 1_545 S
C416 C415 1.415 . S
C417 H393 0.951 . S
C417 C418 1.366 . S
C417 C419 1.388 . S
C418 C417 1.366 . S
C418 C422 1.385 . S
C419 H394 0.951 . S
C419 C417 1.388 . S
C419 C420 1.366 . S
C420 C419 1.366 . S
C420 C421 1.414 . S
C420 C423 1.499 . S
C421 H395 0.950 . S
C421 C420 1.414 . S
C421 C422 1.374 . S
C422 H396 0.950 . S
C422 C418 1.385 . S
C422 C421 1.374 . S
C423 C420 1.499 . S
C423 C424 1.373 1_554 S
C423 C425 1.389 . S
C424 H397 0.950 . S
C424 C410 1.377 1_545 S
C424 C423 1.373 1_556 S
C425 C409 1.377 1_545 S
C425 C423 1.389 . S
C425 C426 1.524 . S
C426 C425 1.524 . S
C426 C427 1.397 . S
C426 C431 1.363 1_545 S
C427 H398 0.950 . S
C427 C426 1.397 . S
C427 C428 1.334 . S
C428 H399 0.950 . S
C428 C427 1.334 . S
C428 C429 1.287 . S
C429 C428 1.287 . S
C429 C430 1.524 1_545 S
C429 H432 0.999 . S
C430 H400 0.950 . S
C430 C429 1.524 1_565 S
C430 C431 1.415 . S
C431 H401 0.950 . S
C431 C426 1.363 1_565 S
C431 C430 1.415 . S
H432 C429 0.999 . S
H433 C414 0.913 . S
H434 C452 0.951 . S
H435 C454 0.951 . S
H436 C456 0.950 . S
H437 C457 0.950 . S
H438 C459 0.950 1_655 S
H439 C462 0.950 . S
H440 C463 0.950 . S
H441 C465 0.950 . S
H442 C466 0.950 . S
H443 C467 0.951 . S
H444 C469 0.951 . S
H445 C471 0.950 . S
H446 C472 0.950 . S
H447 C474 0.950 . S
H448 C477 0.950 . S
H449 C478 0.950 . S
H450 C480 0.950 . S
H451 C481 0.950 . S
C452 H434 0.951 . S
C452 C453 1.366 . S
C452 C454 1.388 . S
C453 C452 1.366 . S
C453 C457 1.385 . S
C454 H435 0.951 . S
C454 C452 1.388 . S
C454 C455 1.366 . S
C455 C454 1.366 . S
C455 C456 1.414 . S
C455 C458 1.499 . S
C456 H436 0.950 . S
C456 C455 1.414 . S
C456 C457 1.374 . S
C457 H437 0.950 . S
C457 C453 1.385 . S
C457 C456 1.374 . S
C458 C455 1.499 . S
C458 C459 1.373 . S
C458 C460 1.389 . S
C459 H438 0.950 1_455 S
C459 C458 1.373 . S
C459 C475 1.377 1_565 S
C460 C458 1.389 . S
C460 C461 1.524 . S
C460 C474 1.377 1_565 S
C461 C460 1.524 . S
C461 C462 1.397 . S
C461 C466 1.363 . S
C462 H439 0.950 . S
C462 C461 1.397 . S
C462 C463 1.334 . S
C463 H440 0.950 . S
C463 C462 1.334 . S
C463 C464 1.287 . S
C464 C463 1.287 . S
C464 C465 1.524 . S
C464 H483 0.913 . S
C465 H441 0.950 . S
C465 C464 1.524 . S
C465 C466 1.415 . S
C466 H442 0.950 . S
C466 C461 1.363 . S
C466 C465 1.415 . S
C467 H443 0.951 . S
C467 C468 1.366 . S
C467 C469 1.388 . S
C468 C467 1.366 . S
C468 C472 1.385 . S
C469 H444 0.951 . S
C469 C467 1.388 . S
C469 C470 1.366 . S
C470 C469 1.366 . S
C470 C471 1.414 . S
C470 C473 1.499 . S
C471 H445 0.950 . S
C471 C470 1.414 . S
C471 C472 1.374 . S
C472 H446 0.950 . S
C472 C468 1.385 . S
C472 C471 1.374 . S
C473 C470 1.499 . S
C473 C474 1.373 . S
C473 C475 1.389 . S
C474 H447 0.950 . S
C474 C460 1.377 1_545 S
C474 C473 1.373 . S
C475 C459 1.377 1_545 S
C475 C473 1.389 . S
C475 C476 1.524 1_455 S
C476 C475 1.524 1_655 S
C476 C477 1.397 . S
C476 C481 1.363 . S
C477 H448 0.950 . S
C477 C476 1.397 . S
C477 C478 1.334 . S
C478 H449 0.950 . S
C478 C477 1.334 . S
C478 C479 1.287 . S
C479 C478 1.287 . S
C479 C480 1.524 . S
C479 H482 0.999 . S
C480 H450 0.950 . S
C480 C479 1.524 . S
C480 C481 1.415 . S
C481 H451 0.950 . S
C481 C476 1.363 . S
C481 C480 1.415 . S
H482 C479 0.999 . S
H483 C464 0.913 . S
H484 C502 0.951 . S
H485 C504 0.951 . S
H486 C506 0.950 . S
H487 C507 0.950 . S
H488 C509 0.950 1_655 S
H489 C512 0.950 . S
H490 C513 0.950 . S
H491 C515 0.950 . S
H492 C516 0.950 . S
H493 C517 0.951 . S
H494 C519 0.951 . S
H495 C521 0.950 . S
H496 C522 0.950 . S
H497 C524 0.950 . S
H498 C527 0.950 . S
H499 C528 0.965 . S
H500 C530 0.950 . S
H501 C531 0.950 . S
C502 H484 0.951 . S
C502 C503 1.366 . S
C502 C504 1.388 . S
C503 C502 1.366 . S
C503 C507 1.385 1_455 S
C504 H485 0.951 . S
C504 C502 1.388 . S
C504 C505 1.366 . S
C505 C504 1.366 . S
C505 C506 1.414 1_455 S
C505 C508 1.499 1_554 S
C506 H486 0.950 . S
C506 C505 1.414 1_655 S
C506 C507 1.374 . S
C507 H487 0.950 . S
C507 C503 1.385 1_655 S
C507 C506 1.374 . S
C508 C505 1.499 1_556 S
C508 C509 1.373 . S
C508 C510 1.389 . S
C509 H488 0.950 1_455 S
C509 C508 1.373 . S
C509 C525 1.377 . S
C510 C508 1.389 . S
C510 C511 1.524 . S
C510 C524 1.377 . S
C511 C510 1.524 . S
C511 C512 1.397 . S
C511 C516 1.363 . S
C512 H489 0.950 . S
C512 C511 1.397 . S
C512 C513 1.334 1_556 S
C513 H490 0.950 . S
C513 C512 1.334 1_554 S
C513 C514 1.287 . S
C514 C513 1.287 . S
C514 C515 1.524 1_554 S
C514 H533 0.913 . S
C515 H491 0.950 . S
C515 C514 1.524 1_556 S
C515 C516 1.415 . S
C516 H492 0.950 . S
C516 C511 1.363 . S
C516 C515 1.415 . S
C517 H493 0.951 . S
C517 C518 1.366 1_655 S
C517 C519 1.388 . S
C518 C517 1.366 1_455 S
C518 C522 1.385 . S
C519 H494 0.951 . S
C519 C517 1.388 . S
C519 C520 1.366 1_655 S
C520 C519 1.366 1_455 S
C520 C521 1.414 . S
C520 C523 1.499 . S
C521 H495 0.950 . S
C521 C520 1.414 . S
C521 C522 1.374 . S
C522 H496 0.950 . S
C522 C518 1.385 . S
C522 C521 1.374 . S
C523 C520 1.499 . S
C523 C524 1.373 . S
C523 C525 1.389 . S
C524 H497 0.950 . S
C524 C510 1.377 . S
C524 C523 1.373 . S
C525 C509 1.377 . S
C525 C523 1.389 . S
C525 C526 1.524 1_455 S
C526 C525 1.524 1_655 S
C526 C527 1.397 1_655 S
C526 C531 1.363 . S
C527 H498 0.950 . S
C527 C526 1.397 1_455 S
C527 C528 1.334 1_455 S
C528 H499 0.965 . S
C528 C527 1.334 1_655 S
C528 C529 1.287 . S
C529 C528 1.287 . S
C529 C530 1.524 . S
C529 H532 0.999 . S
C530 H500 0.950 . S
C530 C529 1.524 . S
C530 C531 1.415 . S
C531 H501 0.950 . S
C531 C526 1.363 . S
C531 C530 1.415 . S
H532 C529 0.999 . S
H533 C514 0.913 . S
H534 C552 0.951 1_655 S
H535 C554 0.951 1_655 S
H536 C556 0.950 . S
H537 C557 0.950 . S
H538 C559 0.950 . S
H539 C562 0.952 . S
H540 C563 0.950 . S
H541 C565 0.950 . S
H542 C566 0.950 . S
H543 C567 0.951 . S
H544 C569 0.951 . S
H545 C571 0.950 1_655 S
H546 C572 0.931 1_655 S
H547 C574 0.950 . S
H548 C577 0.950 . S
H549 C578 0.950 . S
H550 C580 0.950 . S
H551 C581 0.950 . S
C552 H534 0.951 1_455 S
C552 C553 1.366 . S
C552 C554 1.388 . S
C553 C552 1.366 . S
C553 C557 1.385 . S
C554 H535 0.951 1_455 S
C554 C552 1.388 . S
C554 C555 1.366 . S
C555 C554 1.366 . S
C555 C556 1.414 . S
C555 C558 1.499 1_556 S
C556 H536 0.950 . S
C556 C555 1.414 . S
C556 C557 1.374 . S
C557 H537 0.950 . S
C557 C553 1.385 . S
C557 C556 1.374 . S
C558 C555 1.499 1_554 S
C558 C559 1.373 . S
C558 C560 1.389 1_455 S
C559 H538 0.950 . S
C559 C558 1.373 . S
C559 C575 1.377 . S
C560 C558 1.389 1_655 S
C560 C561 1.524 . S
C560 C574 1.377 . S
C561 C560 1.524 . S
C561 C562 1.397 . S
C561 C566 1.363 . S
C562 H539 0.952 . S
C562 C561 1.397 . S
C562 C563 1.334 1_554 S
C563 H540 0.950 . S
C563 C562 1.334 1_556 S
C563 C564 1.287 . S
C564 C563 1.287 . S
C564 C565 1.524 1_556 S
C564 H583 0.913 . S
C565 H541 0.950 . S
C565 C564 1.524 1_554 S
C565 C566 1.415 . S
C566 H542 0.950 . S
C566 C561 1.363 . S
C566 C565 1.415 . S
C567 H543 0.951 . S
C567 C568 1.366 . S
C567 C569 1.388 . S
C568 C567 1.366 . S
C568 C572 1.385 . S
C569 H544 0.951 . S
C569 C567 1.388 . S
C569 C570 1.366 . S
C570 C569 1.366 . S
C570 C571 1.414 . S
C570 C573 1.499 . S
C571 H545 0.950 1_455 S
C571 C570 1.414 . S
C571 C572 1.374 . S
C572 H546 0.931 1_455 S
C572 C568 1.385 . S
C572 C571 1.374 . S
C573 C570 1.499 . S
C573 C574 1.373 1_455 S
C573 C575 1.389 . S
C574 H547 0.950 . S
C574 C560 1.377 . S
C574 C573 1.373 1_655 S
C575 C559 1.377 . S
C575 C573 1.389 . S
C575 C576 1.524 . S
C576 C575 1.524 . S
C576 C577 1.397 . S
C576 C581 1.363 . S
C577 H548 0.950 . S
C577 C576 1.397 . S
C577 C578 1.334 . S
C578 H549 0.950 . S
C578 C577 1.334 . S
C578 C579 1.287 . S
C579 C578 1.287 . S
C579 C580 1.524 . S
C579 H582 0.999 . S
C580 H550 0.950 . S
C580 C579 1.524 . S
C580 C581 1.415 . S
C581 H551 0.950 . S
C581 C576 1.363 . S
C581 C580 1.415 . S
H582 C579 0.999 . S
H583 C564 0.913 . S
H584 C602 0.951 . S
H585 C604 0.951 . S
H586 C606 0.950 . S
H587 C607 0.950 . S
H588 C609 0.950 . S
H589 C612 0.950 . S
H590 C613 0.950 . S
H591 C615 0.950 . S
H592 C616 0.950 . S
H593 C617 0.951 . S
H594 C619 0.951 . S
H595 C621 0.950 . S
H596 C622 0.950 . S
H597 C624 0.950 . S
H598 C627 0.950 . S
H599 C628 0.950 . S
H600 C630 0.950 . S
H601 C631 0.950 . S
C602 H584 0.951 . S
C602 C603 1.366 . S
C602 C604 1.388 . S
C603 C602 1.366 . S
C603 C607 1.385 . S
C604 H585 0.951 . S
C604 C602 1.388 . S
C604 C605 1.366 . S
C605 C604 1.366 . S
C605 C606 1.414 . S
C605 C608 1.499 . S
C606 H586 0.950 . S
C606 C605 1.414 . S
C606 C607 1.374 . S
C607 H587 0.950 . S
C607 C603 1.385 . S
C607 C606 1.374 . S
C608 C605 1.499 . S
C608 C609 1.373 . S
C608 C610 1.389 . S
C609 H588 0.950 . S
C609 C608 1.373 . S
C609 C625 1.377 . S
C610 C608 1.389 . S
C610 C611 1.524 . S
C610 C624 1.377 . S
C611 C610 1.524 . S
C611 C612 1.397 . S
C611 C616 1.363 . S
C612 H589 0.950 . S
C612 C611 1.397 . S
C612 C613 1.334 . S
C613 H590 0.950 . S
C613 C612 1.334 . S
C613 C614 1.287 . S
C614 C613 1.287 . S
C614 C615 1.524 . S
C614 H633 0.913 . S
C615 H591 0.950 . S
C615 C614 1.524 . S
C615 C616 1.415 . S
C616 H592 0.950 . S
C616 C611 1.363 . S
C616 C615 1.415 . S
C617 H593 0.951 . S
C617 C618 1.366 . S
C617 C619 1.388 . S
C618 C617 1.366 . S
C618 C622 1.385 . S
C619 H594 0.951 . S
C619 C617 1.388 . S
C619 C620 1.366 . S
C620 C619 1.366 . S
C620 C621 1.414 . S
C620 C623 1.499 . S
C621 H595 0.950 . S
C621 C620 1.414 . S
C621 C622 1.374 . S
C622 H596 0.950 . S
C622 C618 1.385 . S
C622 C621 1.374 . S
C623 C620 1.499 . S
C623 C624 1.373 . S
C623 C625 1.389 . S
C624 H597 0.950 . S
C624 C610 1.377 . S
C624 C623 1.373 . S
C625 C609 1.377 . S
C625 C623 1.389 . S
C625 C626 1.524 . S
C626 C625 1.524 . S
C626 C627 1.397 . S
C626 C631 1.363 . S
C627 H598 0.950 . S
C627 C626 1.397 . S
C627 C628 1.334 . S
C628 H599 0.950 . S
C628 C627 1.334 . S
C628 C629 1.287 . S
C629 C628 1.287 . S
C629 C630 1.524 . S
C629 H632 0.999 . S
C630 H600 0.950 . S
C630 C629 1.524 . S
C630 C631 1.415 . S
C631 H601 0.950 . S
C631 C626 1.363 . S
C631 C630 1.415 . S
H632 C629 0.999 . S
H633 C614 0.913 . S
H634 C652 0.951 . S
H635 C654 0.951 . S
H636 C656 0.950 . S
H637 C657 0.950 . S
H638 C659 0.950 . S
H639 C662 0.950 . S
H640 C663 0.950 . S
H641 C665 0.950 . S
H642 C666 0.950 . S
H643 C667 0.951 . S
H644 C669 0.951 . S
H645 C671 0.950 . S
H646 C672 0.950 . S
H647 C674 0.950 . S
H648 C677 0.950 . S
H649 C678 0.950 . S
H650 C680 0.950 . S
H651 C681 0.950 . S
C652 H634 0.951 . S
C652 C653 1.366 . S
C652 C654 1.388 . S
C653 C652 1.366 . S
C653 C657 1.385 . S
C654 H635 0.951 . S
C654 C652 1.388 . S
C654 C655 1.366 . S
C655 C654 1.366 . S
C655 C656 1.414 . S
C655 C658 1.499 . S
C656 H636 0.950 . S
C656 C655 1.414 . S
C656 C657 1.374 . S
C657 H637 0.950 . S
C657 C653 1.385 . S
C657 C656 1.374 . S
C658 C655 1.499 . S
C658 C659 1.373 . S
C658 C660 1.389 . S
C659 H638 0.950 . S
C659 C658 1.373 . S
C659 C675 1.377 . S
C660 C658 1.389 . S
C660 C661 1.524 . S
C660 C674 1.377 . S
C661 C660 1.524 . S
C661 C662 1.397 . S
C661 C666 1.363 . S
C662 H639 0.950 . S
C662 C661 1.397 . S
C662 C663 1.334 . S
C663 H640 0.950 . S
C663 C662 1.334 . S
C663 C664 1.287 . S
C664 C663 1.287 . S
C664 C665 1.524 . S
C664 H683 0.913 . S
C665 H641 0.950 . S
C665 C664 1.524 . S
C665 C666 1.415 . S
C666 H642 0.950 . S
C666 C661 1.363 . S
C666 C665 1.415 . S
C667 H643 0.951 . S
C667 C668 1.366 . S
C667 C669 1.388 . S
C668 C667 1.366 . S
C668 C672 1.385 . S
C669 H644 0.951 . S
C669 C667 1.388 . S
C669 C670 1.366 . S
C670 C669 1.366 . S
C670 C671 1.414 . S
C670 C673 1.499 . S
C671 H645 0.950 . S
C671 C670 1.414 . S
C671 C672 1.374 . S
C672 H646 0.950 . S
C672 C668 1.385 . S
C672 C671 1.374 . S
C673 C670 1.499 . S
C673 C674 1.373 . S
C673 C675 1.389 . S
C674 H647 0.950 . S
C674 C660 1.377 . S
C674 C673 1.373 . S
C675 C659 1.377 . S
C675 C673 1.389 . S
C675 C676 1.524 . S
C676 C675 1.524 . S
C676 C677 1.397 . S
C676 C681 1.363 . S
C677 H648 0.950 . S
C677 C676 1.397 . S
C677 C678 1.334 . S
C678 H649 0.950 . S
C678 C677 1.334 . S
C678 C679 1.287 . S
C679 C678 1.287 . S
C679 C680 1.524 . S
C679 H682 0.999 . S
C680 H650 0.950 . S
C680 C679 1.524 . S
C680 C681 1.415 . S
C681 H651 0.950 . S
C681 C676 1.363 . S
C681 C680 1.415 . S
H682 C679 0.999 . S
H683 C664 0.913 . S
C103 C18 1.671 . S
C118 C36 1.392 . S
C153 C59 2.108 . S
C168 C38 2.108 . S
C203 C81 1.671 . S
C218 C57 1.392 . S
C253 C13 1.273 . S
C268 C76 1.272 . S
C303 C80 2.109 . S
C318 C17 2.108 . S
C353 C55 1.272 . S
C368 C34 1.273 . S
C403 C60 1.671 . S
C418 C78 1.391 . S
C453 C39 1.670 . S
C468 C15 1.393 . S
C503 C16 0.807 . S
C518 C14 0.805 . S
C553 C37 0.806 . S
C568 C35 0.804 . S
C603 C56 0.803 . S
C618 C58 0.806 . S
C653 C79 0.805 . S
C668 C77 0.803 . S
