# Generated by pormake.
# Topology sxc, (6)-cn, num edge types: 1
# Building blocks:
#     Node 0, Type 0, BuildingBlock: BETGAK_clean_sbu_0, # of connection points: 6
#     Node 1, Type 0, BuildingBlock: BETGAK_clean_sbu_0, # of connection points: 6
#     Node 2, Type 0, BuildingBlock: BETGAK_clean_sbu_0, # of connection points: 6
#     Edge 3, Type (0, 0), BuildingBlock: XUDNAN_clean_linker_2, # of connection points: 2
#     Edge 4, Type (0, 0), BuildingBlock: XUDNAN_clean_linker_2, # of connection points: 2
#     Edge 5, Type (0, 0), BuildingBlock: XUDNAN_clean_linker_2, # of connection points: 2
#     Edge 6, Type (0, 0), BuildingBlock: XUDNAN_clean_linker_2, # of connection points: 2
#     Edge 7, Type (0, 0), BuildingBlock: XUDNAN_clean_linker_2, # of connection points: 2
#     Edge 8, Type (0, 0), BuildingBlock: XUDNAN_clean_linker_2, # of connection points: 2
#     Edge 9, Type (0, 0), BuildingBlock: XUDNAN_clean_linker_2, # of connection points: 2
#     Edge 10, Type (0, 0), BuildingBlock: XUDNAN_clean_linker_2, # of connection points: 2
#     Edge 11, Type (0, 0), BuildingBlock: XUDNAN_clean_linker_2, # of connection points: 2
# Relax obj value: 0.330
# Max RMSD: 0.160
# Mean RMSD: 0.088
data_MOF--net-sxc--node1-BETGAK_clean_sbu_0--edge1-XUDNAN_clean_linker_2
_symmetry_space_group_name_H-M    P1
_symmetry_Int_Tables_number       1
_symmetry_cell_setting            triclinic
loop_
_symmetry_equiv_pos_as_xyz
'x, y, z'
_cell_length_a     17.609695
_cell_length_b     16.104881
_cell_length_c     44.707726
_cell_angle_alpha  90.180601
_cell_angle_beta   94.362188
_cell_angle_gamma 95.377991
loop_
_atom_site_label
_atom_site_type_symbol
_atom_site_fract_x
_atom_site_fract_y
_atom_site_fract_z
_atom_type_partial_charge
La0 La 0.23227 0.10711 0.01177 0.0
La1 La 1.07562 0.10358 0.00637 0.0
C2 C 0.3748 0.12792 0.00855 0.0
C3 C 0.43412 0.18448 0.02405 0.0
C4 C 0.41449 0.2413 0.04532 0.0
C5 C 0.47028 0.29943 0.05871 0.0
C6 C 0.54607 0.30121 0.05089 0.0
C7 C 0.56631 0.24014 0.03119 0.0
C8 C 0.51037 0.18204 0.01776 0.0
C9 C 0.17398 0.0989 0.0655 0.0
C10 C 0.1557 0.28683 0.01019 0.0
C11 C 0.93458 0.0786 0.01304 0.0
C12 C 0.88534 1.00321 0.01855 0.0
C13 C 0.90147 0.92679 0.00673 0.0
C14 C 0.86254 0.8532 0.01555 0.0
C15 C 0.80611 0.85469 0.03609 0.0
C16 C 0.78849 0.93159 0.04731 0.0
C17 C 0.82817 1.0056 0.0386 0.0
C18 C 1.13411 0.11782 0.95313 0.0
C19 C 0.14913 0.92582 0.0086 0.0
O20 O 0.34102 0.07401 0.02597 0.0
O21 O 0.32587 0.16263 0.99022 0.0
O22 O 0.22866 1.05797 0.0576 0.0
O23 O 0.15478 0.14377 0.0436 0.0
O24 O 0.21976 0.24826 0.00837 0.0
O25 O 1.09101 0.23922 0.01195 0.0
O26 O 0.96314 0.08309 0.98692 0.0
O27 O 0.98627 0.09953 0.03489 0.0
O28 O 1.08017 0.1592 0.96186 0.0
O29 O 0.15414 0.06983 0.97414 0.0
O30 O 1.09038 0.96778 0.01484 0.0
O31 O 0.21195 0.97064 1.00146 0.0
H32 H 0.35559 0.24262 0.05066 0.0
H33 H 0.45307 0.34658 0.07347 0.0
H34 H 0.62458 0.24049 0.02491 0.0
H35 H 0.52614 0.13727 1.00174 0.0
H36 H 0.94602 0.92353 0.99147 0.0
H37 H 0.8785 0.79488 0.00692 0.0
H38 H 0.74464 0.93444 0.06291 0.0
H39 H 0.81579 0.06437 0.04811 0.0
La40 La 1.05689 0.12211 0.33605 0.0
La41 La 0.21456 0.14347 0.34695 0.0
C42 C 0.91427 0.10787 0.32677 0.0
C43 C 0.86917 1.03945 0.3096 0.0
C44 C 0.88771 0.95682 0.31318 0.0
C45 C 0.85251 0.89323 0.29427 0.0
C46 C 0.7972 0.91062 0.27146 0.0
C47 C 0.7792 0.99366 0.26771 0.0
C48 C 0.81517 1.05745 0.2865 0.0
C49 C 1.1307 0.10741 0.28616 0.0
C50 C 1.13536 0.31254 0.3454 0.0
C51 C 0.35154 0.12537 0.33958 0.0
C52 C 0.37938 1.05461 0.3239 0.0
C53 C 0.36568 0.97249 0.33419 0.0
C54 C 0.37824 0.9047 0.31625 0.0
C55 C 0.40489 0.91716 0.28762 0.0
C56 C 0.42105 0.99968 0.27787 0.0
C57 C 0.40837 0.06739 0.29577 0.0
C58 C 0.14784 0.15954 0.39768 0.0
C59 C 1.12984 0.95251 0.34452 0.0
O60 O 0.94934 0.08802 0.35224 0.0
O61 O 0.95907 0.15563 0.3108 0.0
O62 O 1.07505 1.05667 0.2941 0.0
O63 O 0.14458 0.16158 0.30679 0.0
O64 O 1.07296 0.25922 0.34707 0.0
O65 O 0.2018 0.28065 0.34297 0.0
O66 O 0.32096 0.10917 0.36493 0.0
O67 O 0.31023 0.17192 0.32233 0.0
O68 O 0.21111 0.20071 0.39105 0.0
O69 O 1.12655 0.10646 0.37689 0.0
O70 O 0.19406 1.00145 0.34097 0.0
O71 O 1.06695 0.99002 0.34664 0.0
H72 H 0.92968 0.94104 0.33055 0.0
H73 H 0.86746 0.83011 0.29789 0.0
H74 H 0.73528 1.00913 0.25091 0.0
H75 H 0.80106 0.1209 0.28291 0.0
H76 H 0.34295 0.96015 0.35574 0.0
H77 H 0.36663 0.84246 0.32482 0.0
H78 H 0.44495 1.01257 0.25659 0.0
H79 H 0.41928 0.12994 0.28723 0.0
La80 La 0.14093 1.03507 0.67417 0.0
La81 La 0.14503 0.197 0.67544 0.0
C82 C 1.11461 0.88156 0.68408 0.0
C83 C 1.04855 0.82329 0.67451 0.0
C84 C 1.01091 0.83107 0.64597 0.0
C85 C 0.93879 0.78987 0.63921 0.0
C86 C 0.90297 0.74133 0.661 0.0
C87 C 0.94331 0.72765 0.6886 0.0
C88 C 1.01597 0.7687 0.69534 0.0
C89 C 1.13663 0.09239 0.61833 0.0
C90 C 0.96313 0.11635 0.67385 0.0
C91 C 0.16774 0.34974 0.66397 0.0
C92 C 0.23487 0.40989 0.66648 0.0
C93 C 0.29403 0.40147 0.68876 0.0
C94 C 0.36155 0.45366 0.68895 0.0
C95 C 0.37114 0.51391 0.66657 0.0
C96 C 0.31074 0.52355 0.6448 0.0
C97 C 0.24287 0.47186 0.64484 0.0
C98 C 0.14576 0.13922 0.73103 0.0
C99 C 0.32287 0.11971 0.67569 0.0
O100 O 0.15501 0.91154 0.66268 0.0
O101 O 1.10063 0.93996 0.70269 0.0
O102 O 0.17795 1.03529 0.6285 0.0
O103 O 1.09869 0.11566 0.63931 0.0
O104 O 1.00394 1.04719 0.6753 0.0
O105 O 1.01134 0.18632 0.6722 0.0
O106 O 0.14397 0.3212 0.68921 0.0
O107 O 0.16985 0.29046 0.64414 0.0
O108 O 1.1039 0.1953 0.72026 0.0
O109 O 0.18574 0.11605 0.71061 0.0
O110 O 0.28018 0.18686 0.67376 0.0
O111 O 0.27653 1.04822 0.67808 0.0
H112 H 1.03481 0.87321 0.62953 0.0
H113 H 0.90885 0.80044 0.61767 0.0
H114 H 0.91642 0.69078 0.7058 0.0
H115 H 1.04427 0.76243 0.71749 0.0
H116 H 0.28886 0.35324 0.70553 0.0
H117 H 0.40676 0.44568 0.70623 0.0
H118 H 0.31697 0.5686 0.62702 0.0
H119 H 0.19772 0.47824 0.62736 0.0
H120 H 0.2638 0.43312 0.99897 0.0
H121 H 1.03352 0.36527 0.02504 0.0
H122 H 1.01096 0.51204 0.02697 0.0
H123 H 0.29793 0.62618 0.04615 0.0
H124 H 0.3491 0.68715 0.01907 0.0
H125 H 0.35103 0.57539 0.01967 0.0
H126 H 0.30127 0.56658 0.96387 0.0
H127 H 0.29909 0.67829 0.96313 0.0
H128 H 0.21386 0.61111 0.95199 0.0
H129 H 1.00792 0.66843 0.02658 0.0
H130 H 1.02649 0.82114 0.02373 0.0
H131 H 0.25662 0.80509 0.99726 0.0
C132 C 0.20873 0.44886 0.00525 0.0
C133 C 0.15068 0.38322 0.01176 0.0
C134 C 1.07988 0.4104 0.01968 0.0
C135 C 1.06597 0.49531 0.02095 0.0
C136 C 1.12287 0.55719 0.0143 0.0
C137 C 0.1932 0.53581 0.00661 0.0
C138 C 0.24325 0.61751 1.00045 0.0
C139 C 0.3146 0.62711 0.02265 0.0
C140 C 0.26573 0.61841 0.96792 0.0
C141 C 0.18994 0.68677 0.00576 0.0
C142 C 1.12084 0.6493 0.01382 0.0
C143 C 1.06197 0.6979 0.02016 0.0
C144 C 1.07307 0.78601 0.01832 0.0
C145 C 0.14252 0.82871 0.00994 0.0
C146 C 0.20214 0.77666 0.00362 0.0
H147 H 0.46272 0.77552 0.30821 0.0
H148 H 0.39563 0.89829 0.22603 0.0
H149 H 0.48649 0.82523 0.19974 0.0
H150 H 0.61126 0.79758 0.31935 0.0
H151 H 0.65584 0.70211 0.32618 0.0
H152 H 0.55651 0.70395 0.33076 0.0
H153 H 0.52601 0.58107 0.29397 0.0
H154 H 0.62672 0.57946 0.28927 0.0
H155 H 0.56 0.58613 0.25699 0.0
H156 H 0.61965 0.82947 0.19453 0.0
H157 H 0.74336 0.90176 0.21199 0.0
H158 H 0.73868 0.76745 0.29516 0.0
C159 C 0.46335 0.78196 0.28421 0.0
C160 C 0.42615 0.84606 0.26959 0.0
C161 C 0.42693 0.85251 0.23813 0.0
C162 C 0.47778 0.80968 0.22284 0.0
C163 C 0.52636 0.75957 0.2392 0.0
C164 C 0.51484 0.73936 0.26889 0.0
C165 C 0.58435 0.70245 0.28353 0.0
C166 C 0.6031 0.72854 0.31686 0.0
C167 C 0.57363 0.60668 0.28073 0.0
C168 C 0.64344 0.73721 0.26279 0.0
C169 C 0.60796 0.75917 0.23539 0.0
C170 C 0.64747 0.81125 0.21558 0.0
C171 C 0.71785 0.85316 0.22577 0.0
C172 C 0.74838 0.84186 0.25539 0.0
C173 C 0.71566 0.77636 0.27242 0.0
H174 H 0.82561 0.5896 0.67183 0.0
H175 H 0.79424 0.84162 0.64225 0.0
H176 H 0.65441 0.80856 0.64008 0.0
H177 H 0.66101 0.48883 0.62557 0.0
H178 H 0.63645 0.41364 0.65387 0.0
H179 H 0.7346 0.45441 0.65162 0.0
H180 H 0.74153 0.5013 0.7073 0.0
H181 H 0.64321 0.46135 0.70965 0.0
H182 H 0.67334 0.5688 0.71932 0.0
H183 H 0.52166 0.75731 0.64594 0.0
H184 H 0.39717 0.67894 0.65276 0.0
H185 H 0.51303 0.45846 0.67595 0.0
C186 C 0.78911 0.63743 0.66463 0.0
C187 C 0.82024 0.71769 0.65696 0.0
C188 C 0.77125 0.7792 0.64769 0.0
C189 C 0.69211 0.76172 0.6467 0.0
C190 C 0.66316 0.68293 0.65501 0.0
C191 C 0.70967 0.62108 0.6633 0.0
C192 C 0.66292 0.54151 0.67098 0.0
C193 C 0.67442 0.47042 0.6492 0.0
C194 C 0.68136 0.51686 0.70376 0.0
C195 C 0.58329 0.56955 0.66625 0.0
C196 C 0.58497 0.6515 0.65724 0.0
C197 C 0.51906 0.69248 0.65245 0.0
C198 C 0.44883 0.64756 0.65632 0.0
C199 C 0.44553 0.56269 0.66466 0.0
C200 C 0.51378 0.52356 0.66988 0.0
H201 H 0.80766 0.99356 0.66804 0.0
H202 H 0.8781 0.25632 0.68102 0.0
H203 H 0.74314 0.28297 0.68294 0.0
H204 H 0.61711 1.03291 0.62009 0.0
H205 H 0.56959 0.93837 0.63392 0.0
H206 H 0.67239 0.9494 0.63204 0.0
H207 H 0.67866 0.91023 0.68935 0.0
H208 H 0.57621 0.90991 0.6896 0.0
H209 H 0.63838 0.9772 0.71507 0.0
H210 H 0.57705 0.28509 0.68333 0.0
H211 H 0.43628 0.26134 0.68214 0.0
H212 H 0.45241 0.99767 0.66923 0.0
C213 C 0.79669 1.0577 0.67151 0.0
C214 C 0.86526 0.12208 0.67459 0.0
C215 C 0.83627 0.20259 0.67854 0.0
C216 C 0.75554 0.21912 0.67974 0.0
C217 C 0.69226 0.15608 0.67682 0.0
C218 C 0.71275 0.0759 0.67253 0.0
C219 C 0.63221 1.01966 0.66873 0.0
C220 C 0.62211 0.98252 0.63685 0.0
C221 C 0.63129 0.94998 0.69205 0.0
C222 C 0.56423 0.0776 0.67312 0.0
C223 C 0.60139 0.15721 0.67713 0.0
C224 C 0.55131 0.22164 0.68029 0.0
C225 C 0.4671 0.20699 0.67955 0.0
C226 C 0.42184 0.12708 0.67592 0.0
C227 C 0.47687 0.06146 0.67257 0.0
H228 H 0.75693 0.72003 1.00091 0.0
H229 H 0.76776 0.81033 0.09286 0.0
H230 H 0.71051 0.67234 0.10851 0.0
H231 H 0.58197 0.59433 1.00087 0.0
H232 H 0.61291 0.51439 0.97758 0.0
H233 H 0.65296 0.62061 0.97459 0.0
H234 H 0.78922 0.57261 0.98491 0.0
H235 H 0.74935 0.46631 0.98858 0.0
H236 H 0.81177 0.5158 0.0186 0.0
H237 H 0.64714 0.5244 0.11295 0.0
H238 H 0.57972 0.38263 0.10525 0.0
H239 H 0.6241 0.39213 0.0112 0.0
C240 C 0.74819 0.7108 0.02443 0.0
C241 C 0.76718 0.77539 0.04571 0.0
C242 C 0.75284 0.76155 0.07614 0.0
C243 C 0.72127 0.68332 0.08527 0.0
C244 C 0.70546 0.62016 0.06369 0.0
C245 C 0.71846 0.63348 0.03392 0.0
C246 C 0.69602 0.55679 0.01482 0.0
C247 C 0.63217 0.57248 0.99056 0.0
C248 C 0.76576 0.52608 1.00093 0.0
C249 C 0.66727 0.49796 0.0384 0.0
C250 C 0.67289 0.53512 0.0665 0.0
C251 C 0.64366 0.49415 0.09117 0.0
C252 C 0.60581 0.41394 0.08667 0.0
C253 C 0.59858 0.37627 0.05781 0.0
C254 C 0.6314 0.4182 0.03372 0.0
H255 H 0.24266 0.45836 0.33633 0.0
H256 H 1.00884 0.38949 0.35766 0.0
H257 H 0.98658 0.53745 0.35973 0.0
H258 H 0.27355 0.64912 0.38418 0.0
H259 H 0.32822 0.71055 0.35824 0.0
H260 H 0.32903 0.59868 0.35845 0.0
H261 H 0.28521 0.59246 0.30208 0.0
H262 H 0.28423 0.70429 0.30176 0.0
H263 H 0.19944 0.63846 0.289 0.0
H264 H 0.98573 0.69522 0.35995 0.0
H265 H 1.00589 0.84743 0.3578 0.0
H266 H 0.23897 0.83039 0.33537 0.0
C267 C 0.18675 0.47414 0.34157 0.0
C268 C 1.12761 0.40837 0.34691 0.0
C269 C 1.0558 0.43519 0.35343 0.0
C270 C 1.0423 0.52053 0.35469 0.0
C271 C 1.10063 0.58264 0.34932 0.0
C272 C 0.17177 0.5611 0.34281 0.0
C273 C 0.22354 0.64259 0.33778 0.0
C274 C 0.29272 0.6507 0.36104 0.0
C275 C 0.24968 0.64455 0.30575 0.0
C276 C 0.17041 0.71232 0.34245 0.0
C277 C 1.09988 0.6751 0.34914 0.0
C278 C 1.04089 0.72427 0.35458 0.0
C279 C 1.05316 0.81238 0.35314 0.0
C280 C 1.12413 0.85507 0.34611 0.0
C281 C 0.18386 0.80238 0.3408 0.0
H282 H 0.15179 0.99381 0.24161 0.0
H283 H 1.13448 0.25683 0.25708 0.0
H284 H 0.13963 0.28265 0.20265 0.0
H285 H 0.28969 1.0272 0.18384 0.0
H286 H 0.25074 0.93614 0.16233 0.0
H287 H 0.24454 0.93861 0.20236 0.0
H288 H 1.09771 0.90501 0.19452 0.0
H289 H 1.10329 0.90337 0.15445 0.0
H290 H 1.04215 0.97144 0.17104 0.0
H291 H 1.13536 0.27743 0.14516 0.0
H292 H 0.14377 0.24618 0.09123 0.0
H293 H 0.17859 0.98985 0.11302 0.0
C294 C 0.14984 1.05693 0.23351 0.0
C295 C 0.1425 0.12336 0.25374 0.0
C296 C 0.14052 0.20505 0.24219 0.0
C297 C 0.1429 0.22019 0.2112 0.0
C298 C 0.14907 0.15335 0.19179 0.0
C299 C 0.15452 0.0736 0.20262 0.0
C300 C 0.16445 1.01349 0.1771 0.0
C301 C 0.24196 0.97669 0.18168 0.0
C302 C 1.09793 0.94423 0.17411 0.0
C303 C 0.16222 0.07137 0.15018 0.0
C304 C 0.15205 0.15158 0.1591 0.0
C305 C 0.14444 0.21504 0.13808 0.0
C306 C 0.14879 0.19664 0.10739 0.0
C307 C 0.16225 0.11578 0.09777 0.0
C308 C 0.16883 1.05248 0.11963 0.0
H309 H 0.21412 0.06812 0.44299 0.0
H310 H 1.03914 0.23659 0.42466 0.0
H311 H 1.01498 0.2374 0.47868 0.0
H312 H 1.11675 0.94694 0.50116 0.0
H313 H 0.20466 0.93454 0.52338 0.0
H314 H 0.20487 0.94461 0.48326 0.0
H315 H 0.30852 0.06956 0.49037 0.0
H316 H 0.30819 1.06029 0.53049 0.0
H317 H 0.29093 0.15793 0.51283 0.0
H318 H 1.0151 0.22462 0.53638 0.0
H319 H 1.03566 0.19491 0.59072 0.0
H320 H 0.20958 1.03337 0.57135 0.0
C321 C 0.16971 0.10384 0.45033 0.0
C322 C 1.12742 0.15124 0.42948 0.0
C323 C 1.07111 0.19868 0.44009 0.0
C324 C 1.05737 0.19978 0.47081 0.0
C325 C 1.10039 0.15295 0.49092 0.0
C326 C 0.15503 0.10521 0.48098 0.0
C327 C 0.19433 0.06147 0.50715 0.0
C328 C 0.17924 0.96624 0.50352 0.0
C329 C 0.2806 0.08898 0.51039 0.0
C330 C 0.15434 0.09278 0.53343 0.0
C331 C 1.1002 0.14546 0.52367 0.0
C332 C 1.05706 0.18295 0.54408 0.0
C333 C 1.06916 0.16585 0.57501 0.0
C334 C 1.12395 0.11156 0.58553 0.0
C335 C 0.16695 0.07492 0.56421 0.0
H336 H 1.07508 0.20758 0.7765 0.0
H337 H 0.24125 1.0334 0.76072 0.0
H338 H 0.25838 1.00876 0.81562 0.0
H339 H 0.17019 0.29884 0.84459 0.0
H340 H 1.08245 0.31005 0.86186 0.0
H341 H 1.08366 0.31249 0.82162 0.0
H342 H 0.975 0.19211 0.81674 0.0
H343 H 0.97335 0.1894 0.85696 0.0
H344 H 0.98709 0.09615 0.83643 0.0
H345 H 0.25556 1.00377 0.87406 0.0
H346 H 0.23323 1.0189 0.92795 0.0
H347 H 1.07034 0.19817 0.90456 0.0
C348 C 1.11519 0.16413 0.7845 0.0
C349 C 0.15692 0.12246 0.76407 0.0
C350 C 0.20866 0.06618 0.77575 0.0
C351 C 0.2187 1.05188 0.80699 0.0
C352 C 0.17675 0.09438 0.82651 0.0
C353 C 1.12601 0.14948 0.81553 0.0
C354 C 1.08766 0.18784 0.84087 0.0
C355 C 1.10717 0.28294 0.84231 0.0
C356 C 1.00062 0.16499 0.83755 0.0
C357 C 1.12432 0.14594 0.86799 0.0
C358 C 0.17558 0.09206 0.85939 0.0
C359 C 0.21556 1.04602 0.88081 0.0
C360 C 0.2026 1.05502 0.91148 0.0
C361 C 0.15013 0.10977 0.92074 0.0
C362 C 1.11103 0.15587 0.89845 0.0
loop_
_geom_bond_atom_site_label_1
_geom_bond_atom_site_label_2
_geom_bond_distance
_geom_bond_site_symmetry_2
_ccdc_geom_bond_type
La0 C2 2.928 . S
La0 O20 2.521 . S
La0 O21 2.628 1_554 S
La0 O22 2.554 . S
La0 O23 2.757 1_545 S
La0 O24 2.470 . S
La0 O29 2.482 1_554 S
La0 O31 2.503 1_545 S
La1 C11 2.928 . S
La1 O23 2.482 1_656 S
La1 O25 2.502 1_566 S
La1 O26 2.521 . S
La1 O27 2.628 1_556 S
La1 O28 2.554 . S
La1 O29 2.757 1_665 S
La1 O30 2.470 . S
C2 La0 2.928 . S
C2 C3 1.503 . S
C2 O20 1.261 . S
C2 O21 1.243 1_554 S
C3 C2 1.503 . S
C3 C4 1.394 . S
C3 C8 1.373 1_554 S
C4 C3 1.394 . S
C4 C5 1.380 . S
C4 H32 0.930 . S
C5 C4 1.380 . S
C5 C6 1.376 . S
C5 H33 0.930 . S
C6 C5 1.376 . S
C6 C7 1.370 1_554 S
C7 C6 1.370 1_556 S
C7 C8 1.396 . S
C7 H34 0.929 . S
C8 C3 1.373 1_556 S
C8 C7 1.396 . S
C8 H35 0.929 . S
C9 O22 1.240 . S
C9 O23 1.289 1_545 S
C10 O24 1.258 . S
C10 O25 1.258 1_455 S
C11 La1 2.928 . S
C11 C12 1.503 1_556 S
C11 O26 1.259 . S
C11 O27 1.244 1_556 S
C12 C11 1.503 1_554 S
C12 C13 1.396 1_554 S
C12 C17 1.371 . S
C13 C12 1.396 1_556 S
C13 C14 1.380 . S
C13 H36 0.930 . S
C14 C13 1.380 . S
C14 C15 1.359 1_556 S
C14 H37 0.930 . S
C15 C14 1.359 1_554 S
C15 C16 1.386 . S
C16 C15 1.386 . S
C16 C17 1.396 . S
C16 H38 0.929 . S
C17 C12 1.371 . S
C17 C16 1.396 . S
C17 H39 0.929 . S
C18 O28 1.240 1_445 S
C18 O29 1.289 . S
C19 O30 1.258 1_455 S
C19 O31 1.256 1_556 S
O20 La0 2.521 . S
O20 C2 1.261 . S
O21 La0 2.628 1_556 S
O21 C2 1.243 1_556 S
O22 La0 2.554 . S
O22 C9 1.240 . S
O23 La0 2.757 1_565 S
O23 La1 2.482 1_454 S
O23 C9 1.289 1_565 S
O24 La0 2.470 . S
O24 C10 1.258 . S
O25 La1 2.502 1_544 S
O25 C10 1.258 1_655 S
O26 La1 2.521 . S
O26 C11 1.259 . S
O27 La1 2.628 1_554 S
O27 C11 1.244 1_554 S
O28 La1 2.554 . S
O28 C18 1.240 1_665 S
O29 La0 2.482 1_556 S
O29 La1 2.757 1_445 S
O29 C18 1.289 . S
O30 La1 2.470 . S
O30 C19 1.258 1_655 S
O31 La0 2.503 1_565 S
O31 C19 1.256 1_554 S
H32 C4 0.930 . S
H33 C5 0.930 . S
H34 C7 0.929 . S
H35 C8 0.929 . S
H36 C13 0.930 . S
H37 C14 0.930 . S
H38 C16 0.929 . S
H39 C17 0.929 . S
La40 C42 2.928 1_565 S
La40 O60 2.521 . S
La40 O61 2.628 1_565 S
La40 O62 2.554 . S
La40 O63 2.757 1_665 S
La40 O64 2.470 1_565 S
La40 O69 2.482 1_565 S
La40 O71 2.503 . S
La41 C51 2.928 . S
La41 O63 2.482 . S
La41 O65 2.503 . S
La41 O66 2.521 . S
La41 O67 2.628 1_545 S
La41 O68 2.554 . S
La41 O69 2.757 1_455 S
La41 O70 2.470 1_545 S
C42 La40 2.928 1_545 S
C42 C43 1.503 . S
C42 O60 1.261 1_545 S
C42 O61 1.243 . S
C43 C42 1.503 . S
C43 C44 1.394 . S
C43 C48 1.373 . S
C44 C43 1.394 . S
C44 C45 1.380 . S
C44 H72 0.930 . S
C45 C44 1.380 . S
C45 C46 1.376 . S
C45 H73 0.930 . S
C46 C45 1.376 . S
C46 C47 1.370 . S
C47 C46 1.370 . S
C47 C48 1.396 . S
C47 H74 0.929 . S
C48 C43 1.373 . S
C48 C47 1.396 . S
C48 H75 0.929 . S
C49 O62 1.240 1_545 S
C49 O63 1.289 1_655 S
C50 O64 1.258 . S
C50 O65 1.256 1_655 S
C51 La41 2.928 . S
C51 C52 1.503 1_545 S
C51 O66 1.261 . S
C51 O67 1.243 1_545 S
C52 C51 1.503 1_565 S
C52 C53 1.394 . S
C52 C57 1.373 . S
C53 C52 1.394 . S
C53 C54 1.380 . S
C53 H76 0.930 1_565 S
C54 C53 1.380 . S
C54 C55 1.376 . S
C54 H77 0.930 . S
C55 C54 1.376 . S
C55 C56 1.370 . S
C56 C55 1.370 . S
C56 C57 1.396 . S
C56 H78 0.929 . S
C57 C52 1.373 . S
C57 C56 1.396 . S
C57 H79 0.929 . S
C58 O68 1.240 . S
C58 O69 1.289 1_455 S
C59 O70 1.258 . S
C59 O71 1.256 1_455 S
O60 La40 2.521 . S
O60 C42 1.261 1_565 S
O61 La40 2.628 1_545 S
O61 C42 1.243 . S
O62 La40 2.554 . S
O62 C49 1.240 1_565 S
O63 La40 2.757 1_445 S
O63 La41 2.482 . S
O63 C49 1.289 1_455 S
O64 La40 2.470 1_545 S
O64 C50 1.258 . S
O65 La41 2.503 . S
O65 C50 1.256 1_455 S
O66 La41 2.521 . S
O66 C51 1.261 . S
O67 La41 2.628 1_565 S
O67 C51 1.243 1_565 S
O68 La41 2.554 . S
O68 C58 1.240 . S
O69 La40 2.482 1_545 S
O69 La41 2.757 1_655 S
O69 C58 1.289 1_655 S
O70 La41 2.470 1_565 S
O70 C59 1.258 . S
O71 La40 2.503 . S
O71 C59 1.256 1_655 S
H72 C44 0.930 . S
H73 C45 0.930 . S
H74 C47 0.929 . S
H75 C48 0.929 . S
H76 C53 0.930 1_545 S
H77 C54 0.930 . S
H78 C56 0.929 . S
H79 C57 0.929 . S
La80 C82 2.928 . S
La80 O100 2.521 . S
La80 O101 2.628 . S
La80 O102 2.554 . S
La80 O103 2.757 1_665 S
La80 O104 2.470 1_565 S
La80 O109 2.482 1_565 S
La80 O111 2.503 1_655 S
La81 C91 2.928 . S
La81 O103 2.482 . S
La81 O105 2.503 1_455 S
La81 O106 2.521 . S
La81 O107 2.628 . S
La81 O108 2.554 . S
La81 O109 2.757 1_455 S
La81 O110 2.470 . S
C82 La80 2.928 . S
C82 C83 1.503 . S
C82 O100 1.261 . S
C82 O101 1.243 . S
C83 C82 1.503 . S
C83 C84 1.394 . S
C83 C88 1.373 . S
C84 C83 1.394 . S
C84 C85 1.380 . S
C84 H112 0.930 . S
C85 C84 1.380 . S
C85 C86 1.376 . S
C85 H113 0.930 . S
C86 C85 1.376 . S
C86 C87 1.370 . S
C87 C86 1.370 . S
C87 C88 1.396 . S
C87 H114 0.929 . S
C88 C83 1.373 . S
C88 C87 1.396 . S
C88 H115 0.929 . S
C89 O102 1.240 1_545 S
C89 O103 1.289 1_655 S
C90 O104 1.258 . S
C90 O105 1.256 . S
C91 La81 2.928 . S
C91 C92 1.503 . S
C91 O106 1.261 . S
C91 O107 1.243 . S
C92 C91 1.503 . S
C92 C93 1.394 . S
C92 C97 1.373 . S
C93 C92 1.394 . S
C93 C94 1.380 . S
C93 H116 0.930 . S
C94 C93 1.380 . S
C94 C95 1.376 . S
C94 H117 0.930 . S
C95 C94 1.376 . S
C95 C96 1.370 . S
C96 C95 1.370 . S
C96 C97 1.396 . S
C96 H118 0.929 . S
C97 C92 1.373 . S
C97 C96 1.396 . S
C97 H119 0.929 . S
C98 O108 1.240 . S
C98 O109 1.289 1_455 S
C99 O110 1.258 . S
C99 O111 1.256 1_545 S
O100 La80 2.521 . S
O100 C82 1.261 . S
O101 La80 2.628 . S
O101 C82 1.243 . S
O102 La80 2.554 . S
O102 C89 1.240 1_565 S
O103 La80 2.757 1_445 S
O103 La81 2.482 . S
O103 C89 1.289 1_455 S
O104 La80 2.470 1_545 S
O104 C90 1.258 . S
O105 La81 2.503 1_655 S
O105 C90 1.256 . S
O106 La81 2.521 . S
O106 C91 1.261 . S
O107 La81 2.628 . S
O107 C91 1.243 . S
O108 La81 2.554 . S
O108 C98 1.240 . S
O109 La80 2.482 1_545 S
O109 La81 2.757 1_655 S
O109 C98 1.289 1_655 S
O110 La81 2.470 . S
O110 C99 1.258 . S
O111 La80 2.503 1_455 S
O111 C99 1.256 1_565 S
H112 C84 0.930 . S
H113 C85 0.930 . S
H114 C87 0.929 . S
H115 C88 0.929 . S
H116 C93 0.930 . S
H117 C94 0.930 . S
H118 C96 0.929 . S
H119 C97 0.929 . S
H120 C132 0.930 . S
H121 C134 0.930 . S
H122 C135 0.930 . S
H123 C139 0.959 . S
H124 C139 0.959 . S
H125 C139 0.961 . S
H126 C140 0.960 . S
H127 C140 0.961 . S
H128 C140 0.959 1_655 S
H129 C143 0.929 . S
H130 C144 0.931 . S
H131 C146 0.930 . S
C132 H120 0.930 . S
C132 C133 1.399 1_556 S
C132 C137 1.399 . S
C133 C132 1.399 1_554 S
C133 C134 1.376 1_455 S
C134 H121 0.930 . S
C134 C133 1.376 1_655 S
C134 C135 1.388 . S
C135 H122 0.930 . S
C135 C134 1.388 . S
C135 C136 1.390 . S
C136 C135 1.390 . S
C136 C137 1.394 1_654 S
C136 C142 1.465 . S
C137 C132 1.399 . S
C137 C136 1.394 1_456 S
C137 C138 1.516 . S
C138 C137 1.516 . S
C138 C139 1.502 . S
C138 C140 1.561 . S
C138 C141 1.526 . S
C139 H123 0.959 . S
C139 H124 0.959 . S
C139 H125 0.961 . S
C139 C138 1.502 . S
C140 H126 0.960 . S
C140 H127 0.961 . S
C140 H128 0.959 1_455 S
C140 C138 1.561 . S
C141 C138 1.526 . S
C141 C142 1.396 1_456 S
C141 C146 1.390 . S
C142 C136 1.465 . S
C142 C141 1.396 1_654 S
C142 C143 1.399 . S
C143 H129 0.929 . S
C143 C142 1.399 . S
C143 C144 1.385 . S
C144 H130 0.931 . S
C144 C143 1.385 . S
C144 C145 1.389 1_655 S
C145 C144 1.389 1_455 S
C145 C146 1.387 1_554 S
C146 H131 0.930 . S
C146 C141 1.390 . S
C146 C145 1.387 1_556 S
H147 C159 0.930 . S
H148 C161 0.930 . S
H149 C162 0.930 . S
H150 C166 0.959 . S
H151 C166 0.959 . S
H152 C166 0.961 . S
H153 C167 0.960 1_565 S
H154 C167 0.961 . S
H155 C167 0.959 1_565 S
H156 C170 0.929 . S
H157 C171 0.931 . S
H158 C173 0.930 . S
C159 H147 0.930 . S
C159 C160 1.399 . S
C159 C164 1.399 . S
C160 C159 1.399 . S
C160 C161 1.376 . S
C161 H148 0.930 . S
C161 C160 1.376 . S
C161 C162 1.388 . S
C162 H149 0.930 . S
C162 C161 1.388 . S
C162 C163 1.390 . S
C163 C162 1.390 . S
C163 C164 1.394 . S
C163 C169 1.465 1_565 S
C164 C159 1.399 . S
C164 C163 1.394 . S
C164 C165 1.516 1_565 S
C165 C164 1.516 1_545 S
C165 C166 1.502 . S
C165 C167 1.561 . S
C165 C168 1.526 . S
C166 H150 0.959 . S
C166 H151 0.959 . S
C166 H152 0.961 . S
C166 C165 1.502 . S
C167 H153 0.960 1_545 S
C167 H154 0.961 . S
C167 H155 0.959 1_545 S
C167 C165 1.561 . S
C168 C165 1.526 . S
C168 C169 1.396 . S
C168 C173 1.390 . S
C169 C163 1.465 1_545 S
C169 C168 1.396 . S
C169 C170 1.399 . S
C170 H156 0.929 . S
C170 C169 1.399 . S
C170 C171 1.385 . S
C171 H157 0.931 . S
C171 C170 1.385 . S
C171 C172 1.389 . S
C172 C171 1.389 . S
C172 C173 1.387 . S
C173 H158 0.930 . S
C173 C168 1.390 . S
C173 C172 1.387 . S
H174 C186 0.930 . S
H175 C188 0.930 . S
H176 C189 0.930 . S
H177 C193 0.959 . S
H178 C193 0.959 . S
H179 C193 0.961 . S
H180 C194 0.960 . S
H181 C194 0.961 . S
H182 C194 0.959 . S
H183 C197 0.929 . S
H184 C198 0.931 . S
H185 C200 0.930 . S
C186 H174 0.930 . S
C186 C187 1.399 . S
C186 C191 1.399 . S
C187 C186 1.399 . S
C187 C188 1.376 . S
C188 H175 0.930 . S
C188 C187 1.376 . S
C188 C189 1.388 . S
C189 H176 0.930 . S
C189 C188 1.388 . S
C189 C190 1.390 . S
C190 C189 1.390 . S
C190 C191 1.394 . S
C190 C196 1.465 . S
C191 C186 1.399 . S
C191 C190 1.394 . S
C191 C192 1.516 . S
C192 C191 1.516 . S
C192 C193 1.502 . S
C192 C194 1.561 . S
C192 C195 1.526 . S
C193 H177 0.959 . S
C193 H178 0.959 . S
C193 H179 0.961 . S
C193 C192 1.502 . S
C194 H180 0.960 . S
C194 H181 0.961 . S
C194 H182 0.959 . S
C194 C192 1.561 . S
C195 C192 1.526 . S
C195 C196 1.396 . S
C195 C200 1.390 . S
C196 C190 1.465 . S
C196 C195 1.396 . S
C196 C197 1.399 . S
C197 H183 0.929 . S
C197 C196 1.399 . S
C197 C198 1.385 . S
C198 H184 0.931 . S
C198 C197 1.385 . S
C198 C199 1.389 . S
C199 C198 1.389 . S
C199 C200 1.387 . S
C200 H185 0.930 . S
C200 C195 1.390 . S
C200 C199 1.387 . S
H201 C213 0.926 1_565 S
H202 C215 0.930 . S
H203 C216 0.930 . S
H204 C220 0.959 . S
H205 C220 0.959 1_565 S
H206 C220 0.960 . S
H207 C221 0.960 . S
H208 C221 0.961 . S
H209 C221 0.959 . S
H210 C224 0.929 . S
H211 C225 0.931 . S
H212 C227 0.930 1_565 S
C213 H201 0.926 1_545 S
C213 C214 1.399 . S
C213 C218 1.399 . S
C214 C213 1.399 . S
C214 C215 1.376 . S
C215 H202 0.930 . S
C215 C214 1.376 . S
C215 C216 1.388 . S
C216 H203 0.930 . S
C216 C215 1.388 . S
C216 C217 1.390 . S
C217 C216 1.390 . S
C217 C218 1.394 . S
C217 C223 1.465 . S
C218 C213 1.399 . S
C218 C217 1.394 . S
C218 C219 1.516 1_545 S
C219 C218 1.516 1_565 S
C219 C220 1.502 1_565 S
C219 C221 1.561 . S
C219 C222 1.526 1_565 S
C220 H204 0.959 . S
C220 H205 0.959 1_545 S
C220 H206 0.960 . S
C220 C219 1.502 1_545 S
C221 H207 0.960 . S
C221 H208 0.961 . S
C221 H209 0.959 . S
C221 C219 1.561 . S
C222 C219 1.526 1_545 S
C222 C223 1.396 . S
C222 C227 1.390 . S
C223 C217 1.465 . S
C223 C222 1.396 . S
C223 C224 1.399 . S
C224 H210 0.929 . S
C224 C223 1.399 . S
C224 C225 1.385 . S
C225 H211 0.931 . S
C225 C224 1.385 . S
C225 C226 1.389 . S
C226 C225 1.389 . S
C226 C227 1.387 . S
C227 H212 0.930 1_545 S
C227 C222 1.390 . S
C227 C226 1.387 . S
H228 C240 0.930 . S
H229 C242 0.930 . S
H230 C243 0.930 . S
H231 C247 0.959 . S
H232 C247 0.959 . S
H233 C247 0.961 . S
H234 C248 0.960 . S
H235 C248 0.961 . S
H236 C248 0.959 . S
H237 C251 0.929 . S
H238 C252 0.931 . S
H239 C254 0.930 . S
C240 H228 0.930 . S
C240 C241 1.399 1_556 S
C240 C245 1.399 . S
C241 C240 1.399 1_554 S
C241 C242 1.376 . S
C242 H229 0.930 . S
C242 C241 1.376 . S
C242 C243 1.388 . S
C243 H230 0.930 . S
C243 C242 1.388 . S
C243 C244 1.390 . S
C244 C243 1.390 . S
C244 C245 1.394 1_554 S
C244 C250 1.465 . S
C245 C240 1.399 . S
C245 C244 1.394 1_556 S
C245 C246 1.516 . S
C246 C245 1.516 . S
C246 C247 1.502 . S
C246 C248 1.561 . S
C246 C249 1.526 . S
C247 H231 0.959 . S
C247 H232 0.959 . S
C247 H233 0.961 . S
C247 C246 1.502 . S
C248 H234 0.960 . S
C248 H235 0.961 . S
C248 H236 0.959 . S
C248 C246 1.561 . S
C249 C246 1.526 . S
C249 C250 1.396 1_556 S
C249 C254 1.390 . S
C250 C244 1.465 . S
C250 C249 1.396 1_554 S
C250 C251 1.399 . S
C251 H237 0.929 . S
C251 C250 1.399 . S
C251 C252 1.385 . S
C252 H238 0.931 . S
C252 C251 1.385 . S
C252 C253 1.389 . S
C253 C252 1.389 . S
C253 C254 1.387 1_554 S
C254 H239 0.930 . S
C254 C249 1.390 . S
C254 C253 1.387 1_556 S
H255 C267 0.930 . S
H256 C269 0.930 . S
H257 C270 0.930 . S
H258 C274 0.959 . S
H259 C274 0.959 . S
H260 C274 0.961 . S
H261 C275 0.960 . S
H262 C275 0.961 1_455 S
H263 C275 0.959 . S
H264 C278 0.929 . S
H265 C279 0.931 . S
H266 C281 0.930 . S
C267 H255 0.930 . S
C267 C268 1.399 1_455 S
C267 C272 1.399 . S
C268 C267 1.399 1_655 S
C268 C269 1.376 . S
C269 H256 0.930 . S
C269 C268 1.376 . S
C269 C270 1.388 . S
C270 H257 0.930 . S
C270 C269 1.388 . S
C270 C271 1.390 . S
C271 C270 1.390 . S
C271 C272 1.394 1_655 S
C271 C277 1.465 . S
C272 C267 1.399 . S
C272 C271 1.394 1_455 S
C272 C273 1.516 . S
C273 C272 1.516 . S
C273 C274 1.502 . S
C273 C275 1.561 1_455 S
C273 C276 1.526 . S
C274 H258 0.959 . S
C274 H259 0.959 . S
C274 H260 0.961 . S
C274 C273 1.502 . S
C275 H261 0.960 . S
C275 H262 0.961 1_655 S
C275 H263 0.959 . S
C275 C273 1.561 1_655 S
C276 C273 1.526 . S
C276 C277 1.396 1_455 S
C276 C281 1.390 . S
C277 C271 1.465 . S
C277 C276 1.396 1_655 S
C277 C278 1.399 . S
C278 H264 0.929 . S
C278 C277 1.399 . S
C278 C279 1.385 . S
C279 H265 0.931 . S
C279 C278 1.385 . S
C279 C280 1.389 1_655 S
C280 C279 1.389 1_455 S
C280 C281 1.387 . S
C281 H266 0.930 . S
C281 C276 1.390 . S
C281 C280 1.387 . S
H282 C294 0.930 . S
H283 C296 0.930 . S
H284 C297 0.933 . S
H285 C301 0.959 . S
H286 C301 0.959 . S
H287 C301 0.961 . S
H288 C302 0.960 . S
H289 C302 0.961 . S
H290 C302 0.959 . S
H291 C305 0.929 . S
H292 C306 0.931 . S
H293 C308 0.930 . S
C294 H282 0.930 . S
C294 C295 1.399 1_565 S
C294 C299 1.399 . S
C295 C294 1.399 1_545 S
C295 C296 1.376 1_455 S
C296 H283 0.930 . S
C296 C295 1.376 1_655 S
C296 C297 1.389 . S
C297 H284 0.933 . S
C297 C296 1.389 . S
C297 C298 1.387 1_655 S
C298 C297 1.387 1_455 S
C298 C299 1.394 1_545 S
C298 C304 1.465 . S
C299 C294 1.399 . S
C299 C298 1.394 1_565 S
C299 C300 1.516 . S
C300 C299 1.516 . S
C300 C301 1.502 . S
C300 C302 1.561 1_455 S
C300 C303 1.526 . S
C301 H285 0.959 . S
C301 H286 0.959 . S
C301 H287 0.961 . S
C301 C300 1.502 . S
C302 H288 0.960 . S
C302 H289 0.961 . S
C302 H290 0.959 . S
C302 C300 1.561 1_655 S
C303 C300 1.526 . S
C303 C304 1.396 1_565 S
C303 C308 1.390 . S
C304 C298 1.465 . S
C304 C303 1.396 1_545 S
C304 C305 1.399 . S
C305 H291 0.929 . S
C305 C304 1.399 . S
C305 C306 1.385 . S
C306 H292 0.931 . S
C306 C305 1.385 . S
C306 C307 1.389 . S
C307 C306 1.389 . S
C307 C308 1.387 1_545 S
C308 H293 0.930 . S
C308 C303 1.390 . S
C308 C307 1.387 1_565 S
H309 C321 0.930 . S
H310 C323 0.930 . S
H311 C324 0.930 . S
H312 C328 0.959 1_545 S
H313 C328 0.959 . S
H314 C328 0.961 . S
H315 C329 0.960 . S
H316 C329 0.961 . S
H317 C329 0.959 . S
H318 C332 0.929 . S
H319 C333 0.931 . S
H320 C335 0.930 1_565 S
C321 H309 0.930 . S
C321 C322 1.399 1_665 S
C321 C326 1.399 1_565 S
C322 C321 1.399 1_445 S
C322 C323 1.376 . S
C323 H310 0.930 . S
C323 C322 1.376 . S
C323 C324 1.388 . S
C324 H311 0.930 . S
C324 C323 1.388 . S
C324 C325 1.390 . S
C325 C324 1.390 . S
C325 C326 1.394 1_455 S
C325 C331 1.465 . S
C326 C321 1.399 1_545 S
C326 C325 1.394 1_655 S
C326 C327 1.516 1_545 S
C327 C326 1.516 1_565 S
C327 C328 1.502 . S
C327 C329 1.561 . S
C327 C330 1.526 1_565 S
C328 H312 0.959 1_565 S
C328 H313 0.959 . S
C328 H314 0.961 . S
C328 C327 1.502 . S
C329 H315 0.960 . S
C329 H316 0.961 . S
C329 H317 0.959 . S
C329 C327 1.561 . S
C330 C327 1.526 1_545 S
C330 C331 1.396 1_655 S
C330 C335 1.390 . S
C331 C325 1.465 . S
C331 C330 1.396 1_455 S
C331 C332 1.399 . S
C332 H318 0.929 . S
C332 C331 1.399 . S
C332 C333 1.385 . S
C333 H319 0.931 . S
C333 C332 1.385 . S
C333 C334 1.389 . S
C334 C333 1.389 . S
C334 C335 1.387 1_455 S
C335 H320 0.930 1_545 S
C335 C330 1.390 . S
C335 C334 1.387 1_655 S
H336 C348 0.930 1_565 S
H337 C350 0.930 . S
H338 C351 0.930 . S
H339 C355 0.959 1_545 S
H340 C355 0.959 . S
H341 C355 0.961 . S
H342 C356 0.960 . S
H343 C356 0.961 . S
H344 C356 0.959 . S
H345 C359 0.929 . S
H346 C360 0.931 . S
H347 C362 0.930 . S
C348 H336 0.930 1_545 S
C348 C349 1.399 1_655 S
C348 C353 1.399 . S
C349 C348 1.399 1_455 S
C349 C350 1.376 . S
C350 H337 0.930 . S
C350 C349 1.376 . S
C350 C351 1.388 . S
C351 H338 0.930 . S
C351 C350 1.388 . S
C351 C352 1.390 . S
C352 C351 1.390 . S
C352 C353 1.394 1_455 S
C352 C358 1.465 . S
C353 C348 1.399 . S
C353 C352 1.394 1_655 S
C353 C354 1.516 1_545 S
C354 C353 1.516 1_565 S
C354 C355 1.502 . S
C354 C356 1.561 . S
C354 C357 1.526 . S
C355 H339 0.959 1_565 S
C355 H340 0.959 . S
C355 H341 0.961 . S
C355 C354 1.502 . S
C356 H342 0.960 . S
C356 H343 0.961 . S
C356 H344 0.959 . S
C356 C354 1.561 . S
C357 C354 1.526 . S
C357 C358 1.396 1_665 S
C357 C362 1.390 . S
C358 C352 1.465 . S
C358 C357 1.396 1_445 S
C358 C359 1.399 . S
C359 H345 0.929 . S
C359 C358 1.399 . S
C359 C360 1.385 . S
C360 H346 0.931 . S
C360 C359 1.385 . S
C360 C361 1.389 . S
C361 C360 1.389 . S
C361 C362 1.387 1_445 S
C362 H347 0.930 . S
C362 C357 1.390 . S
C362 C361 1.387 1_665 S
C133 C10 2.963 . S
C145 C19 2.986 1_554 S
C160 C55 0.933 . S
C172 C46 0.802 . S
C187 C86 0.616 . S
C199 C95 0.695 . S
C214 C90 4.912 . S
C226 C99 4.902 . S
C241 C15 0.575 . S
C253 C6 0.527 . S
C268 C50 3.050 . S
C280 C59 3.014 . S
C295 C49 1.447 1_455 S
C307 C9 1.461 . S
C322 C58 1.409 . S
C334 C89 1.465 1_455 S
C349 C98 1.448 . S
C361 C18 1.481 . S
