# Generated by pormake.
# Topology snl, (6)-cn, num edge types: 1
# Building blocks:
#     Node 0, Type 0, BuildingBlock: BETDAH_clean_sbu_0, # of connection points: 6
#     Node 1, Type 0, BuildingBlock: BETDAH_clean_sbu_0, # of connection points: 6
#     Node 2, Type 0, BuildingBlock: BETDAH_clean_sbu_0, # of connection points: 6
#     Node 3, Type 0, BuildingBlock: BETDAH_clean_sbu_0, # of connection points: 6
#     Node 4, Type 0, BuildingBlock: BETDAH_clean_sbu_0, # of connection points: 6
#     Node 5, Type 0, BuildingBlock: BETDAH_clean_sbu_0, # of connection points: 6
#     Node 6, Type 0, BuildingBlock: BETDAH_clean_sbu_0, # of connection points: 6
#     Node 7, Type 0, BuildingBlock: BETDAH_clean_sbu_0, # of connection points: 6
#     Node 8, Type 0, BuildingBlock: BETDAH_clean_sbu_0, # of connection points: 6
#     Node 9, Type 0, BuildingBlock: BETDAH_clean_sbu_0, # of connection points: 6
#     Node 10, Type 0, BuildingBlock: BETDAH_clean_sbu_0, # of connection points: 6
#     Node 11, Type 0, BuildingBlock: BETDAH_clean_sbu_0, # of connection points: 6
#     Node 12, Type 0, BuildingBlock: BETDAH_clean_sbu_0, # of connection points: 6
#     Node 13, Type 0, BuildingBlock: BETDAH_clean_sbu_0, # of connection points: 6
#     Node 14, Type 0, BuildingBlock: BETDAH_clean_sbu_0, # of connection points: 6
#     Node 15, Type 0, BuildingBlock: BETDAH_clean_sbu_0, # of connection points: 6
#     Edge 16, Type (0, 0), BuildingBlock: XUDNAN_clean_linker_2, # of connection points: 2
#     Edge 17, Type (0, 0), BuildingBlock: XUDNAN_clean_linker_2, # of connection points: 2
#     Edge 18, Type (0, 0), BuildingBlock: XUDNAN_clean_linker_2, # of connection points: 2
#     Edge 19, Type (0, 0), BuildingBlock: XUDNAN_clean_linker_2, # of connection points: 2
#     Edge 20, Type (0, 0), BuildingBlock: XUDNAN_clean_linker_2, # of connection points: 2
#     Edge 21, Type (0, 0), BuildingBlock: XUDNAN_clean_linker_2, # of connection points: 2
#     Edge 22, Type (0, 0), BuildingBlock: XUDNAN_clean_linker_2, # of connection points: 2
#     Edge 23, Type (0, 0), BuildingBlock: XUDNAN_clean_linker_2, # of connection points: 2
#     Edge 24, Type (0, 0), BuildingBlock: XUDNAN_clean_linker_2, # of connection points: 2
#     Edge 25, Type (0, 0), BuildingBlock: XUDNAN_clean_linker_2, # of connection points: 2
#     Edge 26, Type (0, 0), BuildingBlock: XUDNAN_clean_linker_2, # of connection points: 2
#     Edge 27, Type (0, 0), BuildingBlock: XUDNAN_clean_linker_2, # of connection points: 2
#     Edge 28, Type (0, 0), BuildingBlock: XUDNAN_clean_linker_2, # of connection points: 2
#     Edge 29, Type (0, 0), BuildingBlock: XUDNAN_clean_linker_2, # of connection points: 2
#     Edge 30, Type (0, 0), BuildingBlock: XUDNAN_clean_linker_2, # of connection points: 2
#     Edge 31, Type (0, 0), BuildingBlock: XUDNAN_clean_linker_2, # of connection points: 2
#     Edge 32, Type (0, 0), BuildingBlock: XUDNAN_clean_linker_2, # of connection points: 2
#     Edge 33, Type (0, 0), BuildingBlock: XUDNAN_clean_linker_2, # of connection points: 2
#     Edge 34, Type (0, 0), BuildingBlock: XUDNAN_clean_linker_2, # of connection points: 2
#     Edge 35, Type (0, 0), BuildingBlock: XUDNAN_clean_linker_2, # of connection points: 2
#     Edge 36, Type (0, 0), BuildingBlock: XUDNAN_clean_linker_2, # of connection points: 2
#     Edge 37, Type (0, 0), BuildingBlock: XUDNAN_clean_linker_2, # of connection points: 2
#     Edge 38, Type (0, 0), BuildingBlock: XUDNAN_clean_linker_2, # of connection points: 2
#     Edge 39, Type (0, 0), BuildingBlock: XUDNAN_clean_linker_2, # of connection points: 2
#     Edge 40, Type (0, 0), BuildingBlock: XUDNAN_clean_linker_2, # of connection points: 2
#     Edge 41, Type (0, 0), BuildingBlock: XUDNAN_clean_linker_2, # of connection points: 2
#     Edge 42, Type (0, 0), BuildingBlock: XUDNAN_clean_linker_2, # of connection points: 2
#     Edge 43, Type (0, 0), BuildingBlock: XUDNAN_clean_linker_2, # of connection points: 2
#     Edge 44, Type (0, 0), BuildingBlock: XUDNAN_clean_linker_2, # of connection points: 2
#     Edge 45, Type (0, 0), BuildingBlock: XUDNAN_clean_linker_2, # of connection points: 2
#     Edge 46, Type (0, 0), BuildingBlock: XUDNAN_clean_linker_2, # of connection points: 2
#     Edge 47, Type (0, 0), BuildingBlock: XUDNAN_clean_linker_2, # of connection points: 2
#     Edge 48, Type (0, 0), BuildingBlock: XUDNAN_clean_linker_2, # of connection points: 2
#     Edge 49, Type (0, 0), BuildingBlock: XUDNAN_clean_linker_2, # of connection points: 2
#     Edge 50, Type (0, 0), BuildingBlock: XUDNAN_clean_linker_2, # of connection points: 2
#     Edge 51, Type (0, 0), BuildingBlock: XUDNAN_clean_linker_2, # of connection points: 2
#     Edge 52, Type (0, 0), BuildingBlock: XUDNAN_clean_linker_2, # of connection points: 2
#     Edge 53, Type (0, 0), BuildingBlock: XUDNAN_clean_linker_2, # of connection points: 2
#     Edge 54, Type (0, 0), BuildingBlock: XUDNAN_clean_linker_2, # of connection points: 2
#     Edge 55, Type (0, 0), BuildingBlock: XUDNAN_clean_linker_2, # of connection points: 2
#     Edge 56, Type (0, 0), BuildingBlock: XUDNAN_clean_linker_2, # of connection points: 2
#     Edge 57, Type (0, 0), BuildingBlock: XUDNAN_clean_linker_2, # of connection points: 2
#     Edge 58, Type (0, 0), BuildingBlock: XUDNAN_clean_linker_2, # of connection points: 2
#     Edge 59, Type (0, 0), BuildingBlock: XUDNAN_clean_linker_2, # of connection points: 2
#     Edge 60, Type (0, 0), BuildingBlock: XUDNAN_clean_linker_2, # of connection points: 2
#     Edge 61, Type (0, 0), BuildingBlock: XUDNAN_clean_linker_2, # of connection points: 2
#     Edge 62, Type (0, 0), BuildingBlock: XUDNAN_clean_linker_2, # of connection points: 2
#     Edge 63, Type (0, 0), BuildingBlock: XUDNAN_clean_linker_2, # of connection points: 2
# Relax obj value: 0.196
# Max RMSD: 0.270
# Mean RMSD: 0.231
data_MOF--net-snl--node1-BETDAH_clean_sbu_0--edge1-XUDNAN_clean_linker_2
_symmetry_space_group_name_H-M    P1
_symmetry_Int_Tables_number       1
_symmetry_cell_setting            triclinic
loop_
_symmetry_equiv_pos_as_xyz
'x, y, z'
_cell_length_a     56.209442
_cell_length_b     56.695466
_cell_length_c     25.686765
_cell_angle_alpha  100.84636
_cell_angle_beta   91.60433
_cell_angle_gamma 90.081825
loop_
_atom_site_label
_atom_site_type_symbol
_atom_site_fract_x
_atom_site_fract_y
_atom_site_fract_z
_atom_type_partial_charge
Ho0 Ho 0.15764 0.62521 0.10166 0.0
Ho1 Ho 0.14054 0.63612 0.22145 0.0
C2 C 0.10253 0.63731 0.12886 0.0
C3 C 0.16771 0.60258 1.00763 0.0
C4 C 0.16359 0.60388 0.95123 0.0
C5 C 0.17064 0.58456 0.91246 0.0
C6 C 0.1671 0.58507 0.8586 0.0
C7 C 0.15644 0.60501 0.84212 0.0
C8 C 0.14963 0.62456 0.88121 0.0
C9 C 0.15311 0.62396 0.93536 0.0
C10 C 0.15223 0.67348 0.13522 0.0
C11 C 0.19685 0.62781 0.19914 0.0
C12 C 0.13265 0.65233 0.3208 0.0
C13 C 0.13803 0.64561 0.37266 0.0
C14 C 0.13151 0.66106 0.4193 0.0
C15 C 0.13438 0.65408 0.46862 0.0
C16 C 0.14374 0.63141 0.47224 0.0
C17 C 0.15097 0.61629 0.42537 0.0
C18 C 0.14814 0.62332 0.37608 0.0
C19 C 0.13728 0.58991 0.16863 0.0
O20 O 0.1173 0.62436 0.09547 0.0
O21 O 0.10974 0.64843 0.17675 0.0
O22 O 0.18135 0.61931 0.03572 0.0
O23 O 0.14926 0.59734 0.03352 0.0
O24 O 0.1584 0.66348 0.08788 0.0
O25 O 0.14913 0.65695 0.16105 0.0
O26 O 0.17984 0.63194 0.23424 0.0
O27 O 0.19268 0.62422 0.14702 0.0
O28 O 0.11817 0.63787 0.289 0.0
O29 O 0.15052 0.65951 0.29593 0.0
O30 O 0.12298 0.59947 0.20537 0.0
O31 O 0.15357 0.60476 0.16529 0.0
H32 H 0.179 0.56901 0.92384 0.0
H33 H 0.17296 0.56989 0.82977 0.0
H34 H 0.14125 0.64012 0.86998 0.0
H35 H 0.14758 0.6391 0.96477 0.0
H36 H 0.12359 0.6783 0.41745 0.0
H37 H 0.12841 0.66609 0.50364 0.0
H38 H 0.15858 0.59887 0.42669 0.0
H39 H 0.15335 0.61116 0.34052 0.0
Ho40 Ho 0.65776 0.90469 0.44221 0.0
Ho41 Ho 0.63723 0.89583 0.33013 0.0
C42 C 0.60036 0.89579 0.4201 0.0
C43 C 0.66821 0.92025 0.54205 0.0
C44 C 0.66436 0.91362 0.59425 0.0
C45 C 0.66426 0.93165 0.6399 0.0
C46 C 0.66284 0.92572 0.69032 0.0
C47 C 0.66162 0.90155 0.69617 0.0
C48 C 0.66096 0.88355 0.65006 0.0
C49 C 0.66228 0.88952 0.59966 0.0
C50 C 0.65664 0.85745 0.39512 0.0
C51 C 0.69372 0.90443 0.34798 0.0
C52 C 0.62611 0.88246 0.22996 0.0
C53 C 0.63501 0.88307 0.17627 0.0
C54 C 0.6377 0.86139 0.14023 0.0
C55 C 0.6439 0.86135 0.0878 0.0
C56 C 0.64749 0.88304 0.06983 0.0
C57 C 0.6451 0.90478 0.10618 0.0
C58 C 0.63896 0.90481 0.15879 0.0
C59 C 0.63604 0.94214 0.3839 0.0
O60 O 0.61748 0.90612 0.45348 0.0
O61 O 0.60506 0.88601 0.37062 0.0
O62 O 0.68182 0.90606 0.50977 0.0
O63 O 0.64973 0.92754 0.51757 0.0
O64 O 0.67258 0.86734 0.42967 0.0
O65 O 0.64085 0.87276 0.39035 0.0
O66 O 0.67661 0.89323 0.31671 0.0
O67 O 0.68945 0.91471 0.39763 0.0
O68 O 0.61946 0.90273 0.25883 0.0
O69 O 0.63721 0.86865 0.25805 0.0
O70 O 0.61947 0.9319 0.35137 0.0
O71 O 0.65304 0.92769 0.38389 0.0
H72 H 0.66591 0.95037 0.63665 0.0
H73 H 0.66359 0.94003 0.72481 0.0
H74 H 0.65964 0.86479 0.65294 0.0
H75 H 0.66217 0.87527 0.56501 0.0
H76 H 0.63447 0.84439 0.15233 0.0
H77 H 0.64523 0.84426 0.06092 0.0
H78 H 0.648 0.92181 0.09399 0.0
H79 H 0.63696 0.92187 0.18546 0.0
Ho80 Ho 0.37248 0.39654 0.57024 0.0
Ho81 Ho 0.39537 0.40738 0.68797 0.0
C82 C 0.42944 0.39017 0.59055 0.0
C83 C 0.35737 0.40289 0.47783 0.0
C84 C 0.36167 0.39526 0.42042 0.0
C85 C 0.37946 0.4065 0.39608 0.0
C86 C 0.3816 0.4015 0.34104 0.0
C87 C 0.36597 0.38522 0.30887 0.0
C88 C 0.34861 0.37346 0.33326 0.0
C89 C 0.34641 0.37852 0.38841 0.0
C90 C 0.37782 0.3551 0.60928 0.0
C91 C 0.33812 0.40633 0.67077 0.0
C92 C 0.40877 0.41045 0.78609 0.0
C93 C 0.40059 0.40482 0.83624 0.0
C94 C 0.38179 0.38866 0.83776 0.0
C95 C 0.37508 0.38314 0.88629 0.0
C96 C 0.387 0.39381 0.93392 0.0
C97 C 0.40562 0.41018 0.93187 0.0
C98 C 0.41232 0.41561 0.88353 0.0
C99 C 0.39558 0.44364 0.63194 0.0
O100 O 0.41228 0.3945 0.55693 0.0
O101 O 0.42601 0.3908 0.64158 0.0
O102 O 0.34773 0.38735 0.50301 0.0
O103 O 0.37388 0.41612 0.50636 0.0
O104 O 0.36873 0.35596 0.5626 0.0
O105 O 0.38329 0.37626 0.63092 0.0
O106 O 0.35637 0.40317 0.70245 0.0
O107 O 0.34063 0.4075 0.62007 0.0
O108 O 0.39755 0.42766 0.76819 0.0
O109 O 0.41374 0.39216 0.74866 0.0
O110 O 0.41248 0.44018 0.665 0.0
O111 O 0.37926 0.42841 0.63214 0.0
H112 H 0.3914 0.41968 0.41934 0.0
H113 H 0.39538 0.41062 0.32359 0.0
H114 H 0.33614 0.36101 0.30959 0.0
H115 H 0.33229 0.36985 0.40583 0.0
H116 H 0.37247 0.38023 0.80152 0.0
H117 H 0.36052 0.37065 0.88658 0.0
H118 H 0.41543 0.41844 0.96756 0.0
H119 H 0.42691 0.42807 0.88303 0.0
Ho120 Ho 0.88559 0.12064 0.84038 0.0
Ho121 Ho 0.88571 0.14409 0.9627 0.0
C122 C 0.88943 0.17876 0.88007 0.0
C123 C 0.86928 0.10678 0.74451 0.0
C124 C 0.87173 0.11331 0.69176 0.0
C125 C 0.85389 0.12714 0.67285 0.0
C126 C 0.85582 0.13408 0.62391 0.0
C127 C 0.87548 0.12709 0.59224 0.0
C128 C 0.89302 0.11261 0.61015 0.0
C129 C 0.8912 0.10582 0.65963 0.0
C130 C 0.93114 0.13147 0.87542 0.0
C131 C 0.88575 0.08575 0.92896 0.0
C132 C 0.89451 0.15864 0.06295 0.0
C133 C 0.88908 0.15357 0.11586 0.0
C134 C 0.9049 0.14005 0.1417 0.0
C135 C 0.90182 0.1384 0.19477 0.0
C136 C 0.88299 0.15043 0.22318 0.0
C137 C 0.8666 0.16303 0.19661 0.0
C138 C 0.86965 0.16466 0.14365 0.0
C139 C 0.8427 0.13586 0.90973 0.0
O140 O 0.88163 0.16086 0.84231 0.0
O141 O 0.89673 0.17512 0.92718 0.0
O142 O 0.88728 0.09631 0.76448 0.0
O143 O 0.85906 0.12297 0.77989 0.0
O144 O 0.92499 0.12139 0.82725 0.0
O145 O 0.91236 0.13539 0.90156 0.0
O146 O 0.88737 0.10486 0.96768 0.0
O147 O 0.88357 0.08746 0.8779 0.0
O148 O 0.87732 0.16717 0.03655 0.0
O149 O 0.908 0.1434 0.03243 0.0
O150 O 0.84676 0.15406 0.94796 0.0
O151 O 0.86095 0.12311 0.9048 0.0
H152 H 0.83841 0.13277 0.69615 0.0
H153 H 0.84181 0.14486 0.61065 0.0
H154 H 0.90835 0.10696 0.58642 0.0
H155 H 0.9051 0.0949 0.67278 0.0
H156 H 0.92022 0.13152 0.12162 0.0
H157 H 0.91484 0.12869 0.21424 0.0
H158 H 0.85169 0.17218 0.21719 0.0
H159 H 0.85722 0.17537 0.12516 0.0
Ho160 Ho 0.1538 0.40137 0.95128 0.0
Ho161 Ho 0.12942 0.39491 0.84207 0.0
C162 C 0.0965 0.3906 0.93623 0.0
C163 C 0.16637 0.41522 0.05061 0.0
C164 C 0.15935 0.41481 0.10587 0.0
C165 C 0.15486 0.43661 0.1402 0.0
C166 C 0.15169 0.43734 0.19436 0.0
C167 C 0.15306 0.41627 0.21585 0.0
C168 C 0.15651 0.39426 0.18107 0.0
C169 C 0.15971 0.39354 0.12674 0.0
C170 C 0.15332 0.35534 0.8966 0.0
C171 C 0.18641 0.40562 0.85335 0.0
C172 C 0.11691 0.38317 0.7424 0.0
C173 C 0.12351 0.38932 0.69092 0.0
C174 C 0.12695 0.37089 0.64695 0.0
C175 C 0.13228 0.37625 0.59739 0.0
C176 C 0.13422 0.40024 0.59048 0.0
C177 C 0.1308 0.41866 0.63482 0.0
C178 C 0.12562 0.41328 0.68438 0.0
C179 C 0.12882 0.4401 0.90053 0.0
O180 O 0.11405 0.40116 0.96799 0.0
O181 O 0.10005 0.3818 0.88573 0.0
O182 O 0.17329 0.39516 0.02128 0.0
O183 O 0.15386 0.42843 0.0235 0.0
O184 O 0.17034 0.365 0.92871 0.0
O185 O 0.13658 0.37022 0.8975 0.0
O186 O 0.16791 0.397 0.82288 0.0
O187 O 0.18506 0.41135 0.90567 0.0
O188 O 0.10641 0.39982 0.77613 0.0
O189 O 0.13251 0.37116 0.7656 0.0
O190 O 0.11151 0.43051 0.86928 0.0
O191 O 0.14605 0.42576 0.89667 0.0
H192 H 0.1546 0.45331 0.12545 0.0
H193 H 0.14866 0.45456 0.21966 0.0
H194 H 0.15782 0.37771 0.19618 0.0
H195 H 0.16328 0.37642 0.10154 0.0
H196 H 0.12541 0.35226 0.6509 0.0
H197 H 0.13512 0.36155 0.56465 0.0
H198 H 0.13173 0.43736 0.6312 0.0
H199 H 0.12303 0.42793 0.71743 0.0
Ho200 Ho 0.88578 0.90768 0.17569 0.0
Ho201 Ho 0.87447 0.88128 0.064 0.0
C202 C 0.88112 0.84805 0.14817 0.0
C203 C 0.88432 0.92347 0.27774 0.0
C204 C 0.88812 0.91596 0.33015 0.0
C205 C 0.86935 0.9061 0.35456 0.0
C206 C 0.87223 0.9012 0.40601 0.0
C207 C 0.89394 0.90612 0.43478 0.0
C208 C 0.91272 0.9159 0.41017 0.0
C209 C 0.90984 0.9208 0.35878 0.0
C210 C 0.92481 0.89864 0.11656 0.0
C211 C 0.88261 0.93811 0.08373 0.0
C212 C 0.87041 0.86642 0.96181 0.0
C213 C 0.87564 0.87349 0.91033 0.0
C214 C 0.89762 0.88352 0.90089 0.0
C215 C 0.90258 0.88811 0.85034 0.0
C216 C 0.88567 0.88283 0.80799 0.0
C217 C 0.86343 0.87349 0.81826 0.0
C218 C 0.85853 0.86885 0.86868 0.0
C219 C 0.83653 0.89221 0.12806 0.0
O220 O 0.8831 0.86815 0.18451 0.0
O221 O 0.87937 0.8483 0.09706 0.0
O222 O 0.90289 0.92582 0.2495 0.0
O223 O 0.86608 0.91425 0.24819 0.0
O224 O 0.92153 0.9179 0.15187 0.0
O225 O 0.90741 0.88416 0.11559 0.0
O226 O 0.88737 0.91729 0.05366 0.0
O227 O 0.87807 0.93943 0.13473 0.0
O228 O 0.85393 0.87847 0.99015 0.0
O229 O 0.88833 0.86107 0.99107 0.0
O230 O 0.83857 0.87221 0.09447 0.0
O231 O 0.85414 0.90546 0.12435 0.0
H232 H 0.85221 0.90246 0.33424 0.0
H233 H 0.85741 0.89346 0.42313 0.0
H234 H 0.92959 0.92038 0.4311 0.0
H235 H 0.92453 0.92888 0.34191 0.0
H236 H 0.91112 0.88747 0.93228 0.0
H237 H 0.91976 0.89567 0.84437 0.0
H238 H 0.85003 0.86894 0.78684 0.0
H239 H 0.84146 0.86106 0.87481 0.0
Ho240 Ho 0.38891 0.61804 0.36562 0.0
Ho241 Ho 0.38176 0.64292 0.48729 0.0
C242 C 0.38981 0.67703 0.40268 0.0
C243 C 0.37916 0.60041 0.2668 0.0
C244 C 0.38492 0.60305 0.21207 0.0
C245 C 0.37387 0.62069 0.18798 0.0
C246 C 0.37708 0.62109 0.13426 0.0
C247 C 0.39128 0.60377 0.10317 0.0
C248 C 0.40285 0.58658 0.12773 0.0
C249 C 0.39963 0.58618 0.18139 0.0
C250 C 0.43159 0.62991 0.41574 0.0
C251 C 0.38689 0.58452 0.45557 0.0
C252 C 0.38301 0.65752 0.58901 0.0
C253 C 0.38632 0.64811 0.63844 0.0
C254 C 0.39921 0.62709 0.64042 0.0
C255 C 0.40156 0.61853 0.68812 0.0
C256 C 0.39095 0.63077 0.73459 0.0
C257 C 0.37795 0.65174 0.73191 0.0
C258 C 0.37574 0.6603 0.68445 0.0
C259 C 0.34292 0.63763 0.42128 0.0
O260 O 0.38782 0.65805 0.36321 0.0
O261 O 0.39068 0.67529 0.45347 0.0
O262 O 0.39561 0.59165 0.29487 0.0
O263 O 0.36691 0.61756 0.29525 0.0
O264 O 0.42919 0.61921 0.36651 0.0
O265 O 0.41113 0.63343 0.43427 0.0
O266 O 0.38657 0.604 0.49332 0.0
O267 O 0.38596 0.58542 0.40417 0.0
O268 O 0.36346 0.65076 0.56132 0.0
O269 O 0.40162 0.65786 0.5594 0.0
O270 O 0.34644 0.6559 0.45951 0.0
O271 O 0.3597 0.62287 0.42134 0.0
H272 H 0.36212 0.63378 0.21012 0.0
H273 H 0.36765 0.63441 0.11662 0.0
H274 H 0.41418 0.57318 0.10526 0.0
H275 H 0.40819 0.5722 0.19853 0.0
H276 H 0.40739 0.6173 0.60519 0.0
H277 H 0.41186 0.60245 0.68865 0.0
H278 H 0.36907 0.66138 0.7663 0.0
H279 H 0.36552 0.67643 0.68357 0.0
Ho280 Ho 0.65568 0.12524 0.5924 0.0
Ho281 Ho 0.63686 0.13674 0.71052 0.0
C282 C 0.59992 0.13743 0.61614 0.0
C283 C 0.6656 0.10304 0.49812 0.0
C284 C 0.66193 0.1052 0.44184 0.0
C285 C 0.65687 0.08444 0.40399 0.0
C286 C 0.65549 0.08533 0.34993 0.0
C287 C 0.65909 0.10708 0.33229 0.0
C288 C 0.66319 0.12812 0.37045 0.0
C289 C 0.66466 0.12719 0.42472 0.0
C290 C 0.65046 0.17364 0.62467 0.0
C291 C 0.69361 0.12887 0.69258 0.0
C292 C 0.62812 0.1517 0.80992 0.0
C293 C 0.63422 0.14458 0.86129 0.0
C294 C 0.63862 0.16231 0.90663 0.0
C295 C 0.64366 0.15595 0.95596 0.0
C296 C 0.64437 0.13165 0.96109 0.0
C297 C 0.64 0.11394 0.91533 0.0
C298 C 0.6351 0.12032 0.86605 0.0
C299 C 0.63557 0.09002 0.65852 0.0
O300 O 0.61517 0.12418 0.58442 0.0
O301 O 0.60651 0.14888 0.66421 0.0
O302 O 0.6799 0.11875 0.52759 0.0
O303 O 0.64683 0.09795 0.52328 0.0
O304 O 0.65789 0.16349 0.57854 0.0
O305 O 0.64645 0.15726 0.65031 0.0
O306 O 0.67643 0.13632 0.72583 0.0
O307 O 0.68961 0.1216 0.64064 0.0
O308 O 0.61413 0.13711 0.7771 0.0
O309 O 0.64544 0.16026 0.78581 0.0
O310 O 0.62017 0.09947 0.69278 0.0
O311 O 0.65143 0.1054 0.6567 0.0
H312 H 0.65445 0.06734 0.41615 0.0
H313 H 0.65183 0.06886 0.32181 0.0
H314 H 0.66611 0.14516 0.35829 0.0
H315 H 0.66846 0.14355 0.45311 0.0
H316 H 0.63809 0.18114 0.90392 0.0
H317 H 0.64726 0.17009 0.98994 0.0
H318 H 0.63999 0.09507 0.9176 0.0
H319 H 0.63177 0.10624 0.83175 0.0
Ho320 Ho 0.88858 0.39498 0.84572 0.0
Ho321 Ho 0.8676 0.40129 0.96131 0.0
C322 C 0.83151 0.40013 0.85879 0.0
C323 C 0.90036 0.38336 0.74745 0.0
C324 C 0.89146 0.38482 0.69345 0.0
C325 C 0.86814 0.37798 0.67557 0.0
C326 C 0.8609 0.37831 0.62301 0.0
C327 C 0.87678 0.3856 0.58748 0.0
C328 C 0.89988 0.39295 0.60607 0.0
C329 C 0.90712 0.39251 0.65838 0.0
C330 C 0.89044 0.43958 0.90743 0.0
C331 C 0.92388 0.39151 0.94164 0.0
C332 C 0.85429 0.41914 0.05611 0.0
C333 C 0.85539 0.41283 0.10974 0.0
C334 C 0.87586 0.41751 0.14298 0.0
C335 C 0.87631 0.41187 0.19387 0.0
C336 C 0.85633 0.40144 0.2127 0.0
C337 C 0.83582 0.39704 0.17959 0.0
C338 C 0.83534 0.40274 0.12894 0.0
C339 C 0.87425 0.35377 0.92071 0.0
O340 O 0.84961 0.39626 0.82655 0.0
O341 O 0.83421 0.40398 0.91133 0.0
O342 O 0.90652 0.40365 0.77819 0.0
O343 O 0.88943 0.3687 0.7728 0.0
O344 O 0.90684 0.43065 0.8751 0.0
O345 O 0.87351 0.4247 0.904 0.0
O346 O 0.90785 0.40297 0.97415 0.0
O347 O 0.91856 0.38224 0.89146 0.0
O348 O 0.8406 0.40557 0.0204 0.0
O349 O 0.87421 0.42529 0.03658 0.0
O350 O 0.86651 0.3619 0.96774 0.0
O351 O 0.87804 0.3716 0.89938 0.0
H352 H 0.85563 0.37211 0.70189 0.0
H353 H 0.84289 0.3728 0.61013 0.0
H354 H 0.91266 0.39837 0.57972 0.0
H355 H 0.92519 0.39781 0.67125 0.0
H356 H 0.89155 0.42552 0.12977 0.0
H357 H 0.89244 0.41538 0.21818 0.0
H358 H 0.81996 0.38946 0.1931 0.0
H359 H 0.81914 0.39931 0.10481 0.0
Ho360 Ho 0.3893 0.14129 0.69401 0.0
Ho361 Ho 0.36777 0.14231 0.58909 0.0
C362 C 0.3316 0.14088 0.68259 0.0
C363 C 0.40294 0.14682 0.79304 0.0
C364 C 0.39711 0.13926 0.84361 0.0
C365 C 0.38084 0.15227 0.87845 0.0
C366 C 0.3774 0.14664 0.92857 0.0
C367 C 0.39019 0.12791 0.94515 0.0
C368 C 0.40615 0.11467 0.90991 0.0
C369 C 0.40963 0.12033 0.85993 0.0
C370 C 0.38402 0.09749 0.62871 0.0
C371 C 0.42538 0.1456 0.60708 0.0
C372 C 0.3542 0.1353 0.48981 0.0
C373 C 0.3624 0.13263 0.43476 0.0
C374 C 0.37873 0.11494 0.41331 0.0
C375 C 0.38413 0.11153 0.3594 0.0
C376 C 0.3733 0.12571 0.32592 0.0
C377 C 0.35743 0.14375 0.34807 0.0
C378 C 0.35206 0.14712 0.40174 0.0
C379 C 0.37089 0.18676 0.6505 0.0
O380 O 0.35052 0.14372 0.7148 0.0
O381 O 0.33356 0.13779 0.6305 0.0
O382 O 0.41158 0.13057 0.75547 0.0
O383 O 0.38826 0.16135 0.77453 0.0
O384 O 0.4027 0.10385 0.65867 0.0
O385 O 0.36914 0.11419 0.63612 0.0
O386 O 0.40769 0.13705 0.57341 0.0
O387 O 0.42095 0.15382 0.65712 0.0
O388 O 0.35653 0.1565 0.51982 0.0
O389 O 0.35835 0.11791 0.51578 0.0
O390 O 0.35263 0.17806 0.62136 0.0
O391 O 0.38698 0.17082 0.64731 0.0
H392 H 0.37108 0.16714 0.86751 0.0
H393 H 0.36478 0.15704 0.95445 0.0
H394 H 0.41658 0.10038 0.92157 0.0
H395 H 0.42263 0.11023 0.83459 0.0
H396 H 0.38699 0.10348 0.43784 0.0
H397 H 0.39666 0.09766 0.34388 0.0
H398 H 0.34845 0.15477 0.32356 0.0
H399 H 0.33923 0.16072 0.41722 0.0
Ho400 Ho 0.65133 0.64748 0.47313 0.0
Ho401 Ho 0.63892 0.62553 0.35926 0.0
C402 C 0.64294 0.59017 0.44143 0.0
C403 C 0.65473 0.66153 0.57515 0.0
C404 C 0.64854 0.65461 0.6259 0.0
C405 C 0.62498 0.64952 0.63737 0.0
C406 C 0.61931 0.64601 0.68816 0.0
C407 C 0.63706 0.64746 0.72846 0.0
C408 C 0.66074 0.65162 0.71613 0.0
C409 C 0.66637 0.65522 0.66549 0.0
C410 C 0.68872 0.63894 0.40748 0.0
C411 C 0.64438 0.68415 0.39443 0.0
C412 C 0.63875 0.61139 0.25699 0.0
C413 C 0.63515 0.61999 0.20618 0.0
C414 C 0.65491 0.62526 0.17784 0.0
C415 C 0.65192 0.63084 0.12726 0.0
C416 C 0.62909 0.63114 0.10349 0.0
C417 C 0.6093 0.62623 0.13223 0.0
C418 C 0.61229 0.62066 0.18284 0.0
C419 C 0.60097 0.63127 0.42222 0.0
O420 O 0.64111 0.60949 0.47894 0.0
O421 O 0.64621 0.59196 0.39144 0.0
O422 O 0.67113 0.64901 0.54745 0.0
O423 O 0.63733 0.66762 0.54551 0.0
O424 O 0.6872 0.65767 0.44489 0.0
O425 O 0.67101 0.62549 0.40846 0.0
O426 O 0.64152 0.66525 0.35554 0.0
O427 O 0.64717 0.68199 0.44444 0.0
O428 O 0.62019 0.61005 0.2859 0.0
O429 O 0.6578 0.6189 0.28573 0.0
O430 O 0.60401 0.61338 0.38341 0.0
O431 O 0.61787 0.64635 0.42436 0.0
H432 H 0.61083 0.64885 0.6076 0.0
H433 H 0.60095 0.64249 0.69611 0.0
H434 H 0.67482 0.65311 0.74624 0.0
H435 H 0.68464 0.65928 0.65774 0.0
H436 H 0.6728 0.62458 0.19431 0.0
H437 H 0.66755 0.63482 0.10667 0.0
H438 H 0.59148 0.62594 0.11497 0.0
H439 H 0.59669 0.6163 0.20307 0.0
Ho440 Ho 0.14564 0.87902 0.05779 0.0
Ho441 Ho 0.13715 0.90599 0.16892 0.0
C442 C 0.14186 0.9375 0.07825 0.0
C443 C 0.14482 0.86323 0.9557 0.0
C444 C 0.14815 0.87167 0.90461 0.0
C445 C 0.12841 0.87771 0.87486 0.0
C446 C 0.13124 0.8837 0.82473 0.0
C447 C 0.15391 0.88374 0.80271 0.0
C448 C 0.17364 0.87778 0.83266 0.0
C449 C 0.17081 0.87178 0.8827 0.0
C450 C 0.18517 0.88781 0.12247 0.0
C451 C 0.13945 0.84687 0.14222 0.0
C452 C 0.13693 0.922 0.27096 0.0
C453 C 0.14139 0.91474 0.32327 0.0
C454 C 0.16438 0.90943 0.34067 0.0
C455 C 0.16856 0.90561 0.39261 0.0
C456 C 0.14991 0.90703 0.42868 0.0
C457 C 0.1268 0.91152 0.41053 0.0
C458 C 0.12263 0.91541 0.35866 0.0
C459 C 0.09727 0.89827 0.10627 0.0
O460 O 0.14099 0.91662 0.04544 0.0
O461 O 0.14288 0.93876 0.13053 0.0
O462 O 0.16355 0.86227 0.9866 0.0
O463 O 0.12596 0.87059 0.98264 0.0
O464 O 0.18171 0.86822 0.08775 0.0
O465 O 0.16819 0.90199 0.11913 0.0
O466 O 0.14381 0.86681 0.17793 0.0
O467 O 0.13514 0.84783 0.09206 0.0
O468 O 0.11821 0.913 0.24286 0.0
O469 O 0.15513 0.9239 0.24143 0.0
O470 O 0.10231 0.91797 0.13947 0.0
O471 O 0.11379 0.8832 0.10817 0.0
H472 H 0.11063 0.87751 0.89002 0.0
H473 H 0.11563 0.88841 0.80332 0.0
H474 H 0.19135 0.87717 0.81692 0.0
H475 H 0.1864 0.8668 0.90379 0.0
H476 H 0.1793 0.90879 0.31466 0.0
H477 H 0.18655 0.90182 0.40471 0.0
H478 H 0.11201 0.91303 0.43706 0.0
H479 H 0.10477 0.91971 0.34673 0.0
Ho480 Ho 0.89075 0.63815 0.2201 0.0
Ho481 Ho 0.87151 0.62811 0.10746 0.0
C482 C 0.83433 0.62932 0.19889 0.0
C483 C 0.90021 0.65237 0.32067 0.0
C484 C 0.89455 0.64504 0.37138 0.0
C485 C 0.88727 0.66235 0.4144 0.0
C486 C 0.88292 0.656 0.46348 0.0
C487 C 0.88585 0.63215 0.4707 0.0
C488 C 0.89303 0.61483 0.42726 0.0
C489 C 0.89723 0.62116 0.37821 0.0
C490 C 0.89153 0.59112 0.17106 0.0
C491 C 0.92817 0.63871 0.13186 0.0
C492 C 0.86186 0.61089 1.00809 0.0
C493 C 0.86805 0.61263 0.95316 0.0
C494 C 0.87631 0.59209 0.91932 0.0
C495 C 0.87902 0.59196 0.8653 0.0
C496 C 0.87339 0.61235 0.84359 0.0
C497 C 0.86613 0.63329 0.87793 0.0
C498 C 0.86341 0.63342 0.93212 0.0
C499 C 0.87137 0.67554 0.1536 0.0
O500 O 0.85113 0.64071 0.23092 0.0
O501 O 0.83913 0.61876 0.14986 0.0
O502 O 0.91382 0.63804 0.28869 0.0
O503 O 0.88281 0.66108 0.29538 0.0
O504 O 0.90744 0.60136 0.2052 0.0
O505 O 0.87507 0.60581 0.16773 0.0
O506 O 0.91175 0.6273 0.09819 0.0
O507 O 0.92249 0.64935 0.18013 0.0
O508 O 0.85048 0.62879 0.03602 0.0
O509 O 0.87757 0.60147 0.03653 0.0
O510 O 0.85568 0.6651 0.11898 0.0
O511 O 0.8875 0.66069 0.15902 0.0
H512 H 0.88508 0.68088 0.41014 0.0
H513 H 0.87709 0.66978 0.49562 0.0
H514 H 0.89586 0.59636 0.43132 0.0
H515 H 0.90287 0.60737 0.34584 0.0
H516 H 0.87994 0.5758 0.93435 0.0
H517 H 0.88507 0.57566 0.84027 0.0
H518 H 0.86151 0.64927 0.86256 0.0
H519 H 0.8569 0.64953 0.95705 0.0
Ho520 Ho 0.15297 0.14678 0.96946 0.0
Ho521 Ho 0.15032 0.12299 0.84792 0.0
C522 C 0.15176 0.08858 0.93574 0.0
C523 C 0.15048 0.16059 0.07117 0.0
C524 C 0.14586 0.151 0.11955 0.0
C525 C 0.13735 0.1665 0.16412 0.0
C526 C 0.13485 0.15856 0.21208 0.0
C527 C 0.14079 0.1349 0.21647 0.0
C528 C 0.14873 0.11919 0.17119 0.0
C529 C 0.15131 0.1272 0.12324 0.0
C530 C 0.19354 0.14601 0.91339 0.0
C531 C 0.14413 0.18125 0.88631 0.0
C532 C 0.16358 0.10799 0.75172 0.0
C533 C 0.15735 0.11022 0.69635 0.0
C534 C 0.17395 0.12041 0.66702 0.0
C535 C 0.16939 0.12107 0.61346 0.0
C536 C 0.14816 0.11137 0.58776 0.0
C537 C 0.13135 0.10154 0.61743 0.0
C538 C 0.13587 0.10097 0.67111 0.0
C539 C 0.1053 0.12962 0.8834 0.0
O540 O 0.1489 0.10761 0.97361 0.0
O541 O 0.15514 0.09036 0.88562 0.0
O542 O 0.17014 0.15358 0.04693 0.0
O543 O 0.13242 0.16159 0.03823 0.0
O544 O 0.18701 0.16406 0.94883 0.0
O545 O 0.17822 0.12949 0.90988 0.0
O546 O 0.14891 0.16306 0.84722 0.0
O547 O 0.14187 0.17872 0.93609 0.0
O548 O 0.14891 0.09602 0.77614 0.0
O549 O 0.17259 0.12708 0.78278 0.0
O550 O 0.11068 0.1203 0.83511 0.0
O551 O 0.12445 0.13506 0.91012 0.0
H552 H 0.13307 0.18494 0.16213 0.0
H553 H 0.12833 0.17102 0.24582 0.0
H554 H 0.15368 0.10092 0.17321 0.0
H555 H 0.15811 0.11501 0.08946 0.0
H556 H 0.19075 0.12745 0.68529 0.0
H557 H 0.18286 0.12851 0.59176 0.0
H558 H 0.11469 0.09418 0.59909 0.0
H559 H 0.12268 0.09297 0.6925 0.0
Ho560 Ho 0.65053 0.38208 0.55561 0.0
Ho561 Ho 0.63797 0.40556 0.66956 0.0
C562 C 0.64031 0.43921 0.57997 0.0
C563 C 0.65501 0.36751 0.45426 0.0
C564 C 0.65338 0.37427 0.40092 0.0
C565 C 0.63154 0.37805 0.37551 0.0
C566 C 0.63078 0.38104 0.3222 0.0
C567 C 0.65178 0.37998 0.29316 0.0
C568 C 0.67358 0.37724 0.31956 0.0
C569 C 0.67434 0.37438 0.37246 0.0
C570 C 0.6869 0.38635 0.62865 0.0
C571 C 0.64243 0.34788 0.63801 0.0
C572 C 0.63777 0.42747 0.7682 0.0
C573 C 0.63949 0.42065 0.82166 0.0
C574 C 0.66182 0.41709 0.84497 0.0
C575 C 0.66363 0.41042 0.89471 0.0
C576 C 0.64318 0.40763 0.92338 0.0
C577 C 0.62083 0.41208 0.90121 0.0
C578 C 0.619 0.41841 0.85084 0.0
C579 C 0.60069 0.38516 0.60868 0.0
O580 O 0.64751 0.42019 0.54648 0.0
O581 O 0.63513 0.43838 0.62984 0.0
O582 O 0.67224 0.37735 0.48642 0.0
O583 O 0.63549 0.36445 0.47912 0.0
O584 O 0.68459 0.36856 0.58909 0.0
O585 O 0.67076 0.40145 0.62565 0.0
O586 O 0.6462 0.36693 0.67642 0.0
O587 O 0.63909 0.35011 0.58797 0.0
O588 O 0.61839 0.4215 0.73932 0.0
O589 O 0.65681 0.42456 0.73967 0.0
O590 O 0.60403 0.38458 0.65861 0.0
O591 O 0.61731 0.3971 0.59328 0.0
H592 H 0.61502 0.37794 0.39616 0.0
H593 H 0.61369 0.38306 0.30305 0.0
H594 H 0.69014 0.3767 0.29879 0.0
H595 H 0.69143 0.37138 0.39062 0.0
H596 H 0.67803 0.41947 0.82479 0.0
H597 H 0.68115 0.40756 0.91095 0.0
H598 H 0.60474 0.41008 0.92224 0.0
H599 H 0.60152 0.42147 0.83465 0.0
Ho600 Ho 0.38767 0.89146 0.33852 0.0
Ho601 Ho 0.36886 0.89644 0.44568 0.0
C602 C 0.33088 0.89365 0.3499 0.0
C603 C 0.39876 0.88167 0.2395 0.0
C604 C 0.39226 0.88884 0.1885 0.0
C605 C 0.38414 0.87133 0.14553 0.0
C606 C 0.37953 0.8773 0.09581 0.0
C607 C 0.38309 0.90093 0.08786 0.0
C608 C 0.39091 0.91851 0.13124 0.0
C609 C 0.3954 0.91256 0.18099 0.0
C610 C 0.38292 0.93761 0.39276 0.0
C611 C 0.42606 0.8912 0.42817 0.0
C612 C 0.35816 0.91128 0.54396 0.0
C613 C 0.36537 0.91097 0.59974 0.0
C614 C 0.37426 0.9321 0.63195 0.0
C615 C 0.37748 0.9336 0.68662 0.0
C616 C 0.37172 0.91403 0.71049 0.0
C617 C 0.36384 0.8925 0.67794 0.0
C618 C 0.36061 0.891 0.62316 0.0
C619 C 0.37195 0.84965 0.39651 0.0
O620 O 0.34843 0.8847 0.31939 0.0
O621 O 0.33522 0.9033 0.40036 0.0
O622 O 0.41002 0.89751 0.27528 0.0
O623 O 0.38289 0.8695 0.26 0.0
O624 O 0.40106 0.93021 0.36452 0.0
O625 O 0.3684 0.92061 0.38939 0.0
O626 O 0.40931 0.90103 0.46074 0.0
O627 O 0.4202 0.88093 0.37921 0.0
O628 O 0.34975 0.89148 0.51477 0.0
O629 O 0.37145 0.92352 0.51739 0.0
O630 O 0.35541 0.85847 0.42842 0.0
O631 O 0.3871 0.86595 0.39435 0.0
H632 H 0.38165 0.8529 0.15025 0.0
H633 H 0.37318 0.86337 0.06359 0.0
H634 H 0.39417 0.93681 0.12652 0.0
H635 H 0.40175 0.92649 0.21324 0.0
H636 H 0.37789 0.94786 0.61517 0.0
H637 H 0.38395 0.95032 0.71041 0.0
H638 H 0.35907 0.87715 0.69509 0.0
H639 H 0.3535 0.87451 0.59959 0.0
H640 H 0.16309 0.64216 0.78749 0.0
H641 H 0.14025 0.56768 0.76574 0.0
H642 H 0.13499 0.5664 0.66967 0.0
H643 H 0.12206 0.65923 0.68913 0.0
H644 H 0.14318 0.67883 0.66675 0.0
H645 H 0.14497 0.67407 0.73415 0.0
H646 H 0.18876 0.66057 0.72136 0.0
H647 H 0.18707 0.66517 0.65386 0.0
H648 H 0.19578 0.63637 0.66784 0.0
H649 H 0.13276 0.57274 0.57577 0.0
H650 H 0.13249 0.58671 0.4905 0.0
H651 H 0.15663 0.65719 0.57178 0.0
C652 C 0.15673 0.62566 0.76261 0.0
C653 C 0.15225 0.60495 0.78438 0.0
C654 C 0.14419 0.58366 0.75012 0.0
C655 C 0.14102 0.58278 0.69543 0.0
C656 C 0.14591 0.60335 0.67523 0.0
C657 C 0.15349 0.62444 0.70768 0.0
C658 C 0.15765 0.64389 0.67547 0.0
C659 C 0.14097 0.66527 0.69239 0.0
C660 C 0.18388 0.65197 0.67991 0.0
C661 C 0.15118 0.63043 0.61998 0.0
C662 C 0.14454 0.60705 0.62083 0.0
C663 C 0.13797 0.59101 0.5746 0.0
C664 C 0.13807 0.59908 0.5262 0.0
C665 C 0.14467 0.62303 0.52408 0.0
C666 C 0.15132 0.63884 0.5719 0.0
H667 H 0.63069 0.913 1.00368 0.0
H668 H 0.67755 0.8525 1.00744 0.0
H669 H 0.68589 0.8506 0.91299 0.0
H670 H 0.60602 0.89237 0.87311 0.0
H671 H 0.60498 0.92173 0.85581 0.0
H672 H 0.60285 0.91869 0.92408 0.0
H673 H 0.63872 0.94768 0.94984 0.0
H674 H 0.64089 0.9509 0.88168 0.0
H675 H 0.66636 0.94128 0.91624 0.0
H676 H 0.68866 0.85467 0.81753 0.0
H677 H 0.68666 0.86523 0.72865 0.0
H678 H 0.63835 0.92339 0.78613 0.0
C679 C 0.64295 0.89954 0.98489 0.0
C680 C 0.65336 0.88281 1.01326 0.0
C681 C 0.66903 0.86528 0.98663 0.0
C682 C 0.674 0.86413 0.93295 0.0
C683 C 0.66324 0.88067 0.90612 0.0
C684 C 0.64813 0.89813 0.93118 0.0
C685 C 0.63877 0.91362 0.89297 0.0
C686 C 0.61154 0.91147 0.8861 0.0
C687 C 0.64666 0.93993 0.91128 0.0
C688 C 0.65098 0.90214 0.84255 0.0
C689 C 0.66495 0.88312 0.85105 0.0
C690 C 0.67776 0.86953 0.81043 0.0
C691 C 0.67636 0.87556 0.75988 0.0
C692 C 0.66226 0.89508 0.75002 0.0
C693 C 0.64944 0.9085 0.79226 0.0
H694 H 0.3725 0.41918 0.24735 0.0
H695 H 0.36209 0.34259 0.23732 0.0
H696 H 0.36423 0.33648 0.13959 0.0
H697 H 0.33824 0.42415 0.1287 0.0
H698 H 0.35808 0.44607 0.11058 0.0
H699 H 0.35487 0.44437 0.17937 0.0
H700 H 0.40044 0.43893 0.18963 0.0
H701 H 0.40379 0.44069 0.12099 0.0
H702 H 0.41496 0.41501 0.14582 0.0
H703 H 0.36889 0.33882 0.04256 0.0
H704 H 0.37651 0.34928 0.95523 0.0
H705 H 0.38353 0.42436 0.02988 0.0
C706 C 0.37081 0.40108 0.22471 0.0
C707 C 0.3672 0.38134 0.25006 0.0
C708 C 0.36466 0.35801 0.21877 0.0
C709 C 0.36591 0.35436 0.16326 0.0
C710 C 0.36956 0.37424 0.13962 0.0
C711 C 0.37194 0.39714 0.16944 0.0
C712 C 0.37612 0.41547 0.13471 0.0
C713 C 0.3556 0.43358 0.13858 0.0
C714 C 0.40026 0.42827 0.14862 0.0
C715 C 0.37617 0.39929 0.08069 0.0
C716 C 0.37217 0.37559 0.08418 0.0
C717 C 0.37187 0.35735 0.03937 0.0
C718 C 0.37607 0.36348 0.98988 0.0
C719 C 0.38063 0.38763 0.98563 0.0
C720 C 0.38034 0.4057 0.03178 0.0
H721 H 0.88627 0.10027 0.495 0.0
H722 H 0.86909 0.1725 0.57423 0.0
H723 H 0.8699 0.18626 0.4887 0.0
H724 H 0.92631 0.11761 0.3986 0.0
H725 H 0.91625 0.09379 0.34578 0.0
H726 H 0.91546 0.08978 0.41365 0.0
H727 H 0.87046 0.07961 0.40152 0.0
H728 H 0.87108 0.08372 0.33375 0.0
H729 H 0.85049 0.1006 0.37867 0.0
H730 H 0.87111 0.19199 0.39526 0.0
H731 H 0.87343 0.18965 0.2988 0.0
H732 H 0.8894 0.11361 0.27877 0.0
C733 C 0.88305 0.11904 0.49432 0.0
C734 C 0.87758 0.13535 0.54113 0.0
C735 C 0.87309 0.1597 0.53869 0.0
C736 C 0.8736 0.16769 0.49039 0.0
C737 C 0.87863 0.15111 0.44485 0.0
C738 C 0.88336 0.12732 0.44626 0.0
C739 C 0.88752 0.11313 0.39108 0.0
C740 C 0.9129 0.10299 0.38706 0.0
C741 C 0.86877 0.09308 0.37535 0.0
C742 C 0.88428 0.13266 0.35856 0.0
C743 C 0.87919 0.15441 0.39049 0.0
C744 C 0.87507 0.17507 0.36978 0.0
C745 C 0.87623 0.1735 0.31488 0.0
C746 C 0.88141 0.15141 0.28116 0.0
C747 C 0.88555 0.13077 0.30353 0.0
H748 H 0.13061 0.38564 0.27199 0.0
H749 H 0.17482 0.44978 0.29313 0.0
H750 H 0.17481 0.45242 0.38993 0.0
H751 H 0.09473 0.40468 0.38666 0.0
H752 H 0.09306 0.37525 0.40342 0.0
H753 H 0.09647 0.37825 0.33544 0.0
H754 H 0.13427 0.35195 0.33023 0.0
H755 H 0.13102 0.34892 0.39825 0.0
H756 H 0.15843 0.36043 0.37776 0.0
H757 H 0.17085 0.4479 0.48448 0.0
H758 H 0.16217 0.43722 0.57058 0.0
H759 H 0.11957 0.37654 0.48988 0.0
C760 C 0.14036 0.40019 0.29697 0.0
C761 C 0.15257 0.41763 0.2746 0.0
C762 C 0.16496 0.43645 0.309 0.0
C763 C 0.16522 0.43802 0.36417 0.0
C764 C 0.153 0.42064 0.38484 0.0
C765 C 0.14072 0.40211 0.35242 0.0
C766 C 0.12888 0.38594 0.38519 0.0
C767 C 0.10167 0.38605 0.3772 0.0
C768 C 0.13875 0.36029 0.37207 0.0
C769 C 0.13645 0.39829 0.44096 0.0
C770 C 0.15044 0.41821 0.4397 0.0
C771 C 0.15975 0.43244 0.48598 0.0
C772 C 0.15454 0.42629 0.53489 0.0
C773 C 0.13995 0.40614 0.53764 0.0
C774 C 0.13093 0.39194 0.48961 0.0
H775 H 0.85671 0.89896 0.73253 0.0
H776 H 0.92799 0.87309 0.75761 0.0
H777 H 0.93773 0.87647 0.66629 0.0
H778 H 0.84864 0.86804 0.59752 0.0
H779 H 0.83267 0.8922 0.57596 0.0
H780 H 0.83134 0.88843 0.6439 0.0
H781 H 0.84616 0.93216 0.6758 0.0
H782 H 0.84745 0.9361 0.60795 0.0
H783 H 0.87353 0.94175 0.65101 0.0
H784 H 0.93954 0.88149 0.57084 0.0
H785 H 0.93367 0.88883 0.4798 0.0
H786 H 0.86135 0.91193 0.51572 0.0
C787 C 0.87437 0.89394 0.71887 0.0
C788 C 0.8916 0.88585 0.7529 0.0
C789 C 0.91455 0.87973 0.73312 0.0
C790 C 0.92022 0.88142 0.68097 0.0
C791 C 0.90283 0.88932 0.64859 0.0
C792 C 0.88039 0.8956 0.66681 0.0
C793 C 0.86498 0.90359 0.62374 0.0
C794 C 0.84312 0.88708 0.60944 0.0
C795 C 0.8576 0.92997 0.64064 0.0
C796 C 0.88219 0.9006 0.57835 0.0
C797 C 0.90393 0.89237 0.59363 0.0
C798 C 0.92263 0.88811 0.55864 0.0
C799 C 0.91914 0.89249 0.50689 0.0
C800 C 0.89709 0.90115 0.49006 0.0
C801 C 0.87838 0.90512 0.52669 0.0
H802 H 0.39572 0.65708 0.83631 0.0
H803 H 0.39028 0.58378 0.74866 0.0
H804 H 0.39182 0.5689 0.833 0.0
H805 H 0.4351 0.64537 0.94254 0.0
H806 H 0.42052 0.66652 0.9927 0.0
H807 H 0.42058 0.67131 0.92533 0.0
H808 H 0.37453 0.67341 0.92379 0.0
H809 H 0.37431 0.66861 0.9911 0.0
H810 H 0.35755 0.64887 0.93981 0.0
H811 H 0.39206 0.56208 0.92743 0.0
H812 H 0.3907 0.56383 0.02398 0.0
H813 H 0.39524 0.64164 0.05008 0.0
C814 C 0.39478 0.63788 0.83463 0.0
C815 C 0.39293 0.62164 0.78546 0.0
C816 C 0.39211 0.59664 0.7855 0.0
C817 C 0.39282 0.58799 0.83332 0.0
C818 C 0.39434 0.60454 0.88093 0.0
C819 C 0.39533 0.62896 0.88192 0.0
C820 C 0.39611 0.64301 0.93837 0.0
C821 C 0.41947 0.6574 0.95043 0.0
C822 C 0.37433 0.65944 0.94886 0.0
C823 C 0.39515 0.62269 0.96906 0.0
C824 C 0.3943 0.60063 0.9352 0.0
C825 C 0.39293 0.57926 0.95428 0.0
C826 C 0.39232 0.58044 1.00932 0.0
C827 C 0.39301 0.60286 0.04492 0.0
C828 C 0.39454 0.62421 0.02413 0.0
H829 H 0.63038 0.15415 0.06091 0.0
H830 H 0.67081 0.0934 0.98085 0.0
H831 H 0.67872 0.08086 0.06636 0.0
H832 H 0.66926 0.16719 0.17879 0.0
H833 H 0.64513 0.17554 0.22319 0.0
H834 H 0.6425 0.17988 0.15556 0.0
H835 H 0.60362 0.15463 0.14228 0.0
H836 H 0.60616 0.15016 0.2098 0.0
H837 H 0.60381 0.12462 0.1562 0.0
H838 H 0.68178 0.07428 0.16 0.0
H839 H 0.68065 0.07468 0.256 0.0
H840 H 0.63922 0.14018 0.27709 0.0
C841 C 0.64114 0.13836 0.0613 0.0
C842 C 0.64976 0.12469 1.0136 0.0
C843 C 0.66353 0.10397 1.0163 0.0
C844 C 0.6683 0.09676 0.06488 0.0
C845 C 0.65937 0.11051 0.11083 0.0
C846 C 0.6462 0.13095 0.10963 0.0
C847 C 0.63873 0.14246 0.165 0.0
C848 C 0.64955 0.16777 0.18161 0.0
C849 C 0.61146 0.14299 0.1685 0.0
C850 C 0.64962 0.12518 0.1974 0.0
C851 C 0.66142 0.10688 0.16522 0.0
C852 C 0.6726 0.08853 0.18558 0.0
C853 C 0.67172 0.08883 0.24022 0.0
C854 C 0.65974 0.10736 0.27429 0.0
C855 C 0.64867 0.12585 0.25232 0.0
H856 H 0.87553 0.42739 0.30627 0.0
H857 H 0.83816 0.36088 0.24092 0.0
H858 H 0.83797 0.3504 0.32988 0.0
H859 H 0.91334 0.40329 0.3983 0.0
H860 H 0.91212 0.42978 0.44946 0.0
H861 H 0.90879 0.43233 0.38081 0.0
H862 H 0.86849 0.45388 0.40027 0.0
H863 H 0.87165 0.45129 0.46896 0.0
H864 H 0.84544 0.43951 0.43078 0.0
H865 H 0.8421 0.3469 0.426 0.0
H866 H 0.85162 0.34999 0.5215 0.0
H867 H 0.88651 0.41861 0.5245 0.0
C868 C 0.86745 0.41054 0.31055 0.0
C869 C 0.85674 0.39503 0.26645 0.0
C870 C 0.84614 0.37326 0.27409 0.0
C871 C 0.84602 0.36709 0.32449 0.0
C872 C 0.85657 0.38285 0.36707 0.0
C873 C 0.86715 0.40409 0.36065 0.0
C874 C 0.87745 0.41773 0.41292 0.0
C875 C 0.90453 0.42096 0.41019 0.0
C876 C 0.86501 0.44204 0.42918 0.0
C877 C 0.8713 0.40067 0.44954 0.0
C878 C 0.85909 0.38076 0.42239 0.0
C879 C 0.85159 0.36247 0.44771 0.0
C880 C 0.85694 0.36447 0.5021 0.0
C881 C 0.86978 0.38455 0.53067 0.0
C882 C 0.87685 0.40293 0.5038 0.0
H883 H 0.37824 0.15883 0.26067 0.0
H884 H 0.3774 0.08211 0.2589 0.0
H885 H 0.38196 0.07432 0.16188 0.0
H886 H 0.34386 0.1566 0.1408 0.0
H887 H 0.36042 0.18016 0.1195 0.0
H888 H 0.35824 0.17979 0.18916 0.0
H889 H 0.40424 0.18043 0.19958 0.0
H890 H 0.40655 0.18096 0.13001 0.0
H891 H 0.42132 0.15783 0.15799 0.0
H892 H 0.38516 0.07485 0.06419 0.0
H893 H 0.38802 0.08371 0.97402 0.0
H894 H 0.38647 0.16007 0.03944 0.0
C895 C 0.37899 0.14037 0.23998 0.0
C896 C 0.37752 0.12108 0.26774 0.0
C897 C 0.37887 0.09722 0.23891 0.0
C898 C 0.38127 0.09259 0.18364 0.0
C899 C 0.38233 0.11201 0.15757 0.0
C900 C 0.38136 0.13543 0.18482 0.0
C901 C 0.38264 0.15307 0.14733 0.0
C902 C 0.35993 0.1683 0.14933 0.0
C903 C 0.40502 0.16901 0.15945 0.0
C904 C 0.38428 0.13592 0.09464 0.0
C905 C 0.38412 0.11232 0.10141 0.0
C906 C 0.38543 0.09328 0.05849 0.0
C907 C 0.38714 0.09851 1.0074 0.0
C908 C 0.38751 0.12259 0.99943 0.0
C909 C 0.38594 0.14147 0.04392 0.0
H910 H 0.65696 0.61555 1.01721 0.0
H911 H 0.59412 0.65768 0.06508 0.0
H912 H 0.58844 0.665 0.97381 0.0
H913 H 0.67879 0.65305 0.93051 0.0
H914 H 0.68954 0.62827 0.88253 0.0
H915 H 0.68822 0.62578 0.95125 0.0
H916 H 0.66232 0.5873 0.92498 0.0
H917 H 0.66347 0.58974 0.85617 0.0
H918 H 0.63512 0.5883 0.88657 0.0
H919 H 0.58985 0.66814 0.8773 0.0
H920 H 0.59905 0.6681 0.78389 0.0
H921 H 0.66123 0.62431 0.79905 0.0
C922 C 0.64211 0.62651 1.00875 0.0
C923 C 0.62595 0.63598 0.04857 0.0
C924 C 0.60656 0.64991 0.03528 0.0
C925 C 0.60323 0.65426 0.98354 0.0
C926 C 0.61944 0.64458 0.94534 0.0
C927 C 0.63854 0.63106 0.95734 0.0
C928 C 0.65357 0.62299 0.90917 0.0
C929 C 0.67903 0.63314 0.91896 0.0
C930 C 0.65361 0.59545 0.8933 0.0
C931 C 0.64007 0.6343 0.86833 0.0
C932 C 0.62034 0.64653 0.8899 0.0
C933 C 0.6052 0.65853 0.85995 0.0
C934 C 0.61049 0.65826 0.80675 0.0
C935 C 0.63082 0.64613 0.78389 0.0
C936 C 0.64565 0.63389 0.81531 0.0
H937 H 0.12274 0.88482 0.49471 0.0
H938 H 0.18793 0.92575 0.49261 0.0
H939 H 0.19584 0.92419 0.58676 0.0
H940 H 0.10582 0.91278 0.62621 0.0
H941 H 0.09433 0.88552 0.64284 0.0
H942 H 0.09385 0.88935 0.57476 0.0
H943 H 0.11732 0.84983 0.54839 0.0
H944 H 0.11779 0.84584 0.61635 0.0
H945 H 0.14528 0.84617 0.58198 0.0
H946 H 0.19641 0.9191 0.68216 0.0
H947 H 0.19017 0.90985 0.77079 0.0
H948 H 0.12483 0.87178 0.71214 0.0
C949 C 0.13866 0.89352 0.51402 0.0
C950 C 0.15478 0.90529 0.48563 0.0
C951 C 0.17549 0.91623 0.51274 0.0
C952 C 0.18006 0.91562 0.56653 0.0
C953 C 0.16383 0.90396 0.5932 0.0
C954 C 0.14357 0.89301 0.56787 0.0
C955 C 0.12909 0.88159 0.60585 0.0
C956 C 0.10431 0.893 0.61282 0.0
C957 C 0.12727 0.85423 0.58701 0.0
C958 C 0.14429 0.88796 0.6565 0.0
C959 C 0.16424 0.90088 0.64823 0.0
C960 C 0.18092 0.90885 0.68894 0.0
C961 C 0.17727 0.90335 0.73924 0.0
C962 C 0.15709 0.8899 0.74892 0.0
C963 C 0.14035 0.88227 0.70662 0.0
H964 H 0.88914 0.64668 0.78838 0.0
H965 H 0.85765 0.57537 0.76593 0.0
H966 H 0.85724 0.57294 0.66914 0.0
H967 H 0.8559 0.66632 0.68185 0.0
H968 H 0.88044 0.6829 0.66234 0.0
H969 H 0.87846 0.67917 0.73022 0.0
H970 H 0.9206 0.66059 0.72642 0.0
H971 H 0.92273 0.66433 0.65861 0.0
H972 H 0.92688 0.63509 0.67532 0.0
H973 H 0.85948 0.57828 0.57487 0.0
H974 H 0.8654 0.59056 0.48911 0.0
H975 H 0.89626 0.65811 0.57142 0.0
C976 C 0.88207 0.6306 0.76311 0.0
C977 C 0.87359 0.61113 0.78501 0.0
C978 C 0.86466 0.59035 0.75033 0.0
C979 C 0.86416 0.58886 0.6952 0.0
C980 C 0.87266 0.60829 0.675 0.0
C981 C 0.88152 0.62875 0.70777 0.0
C982 C 0.88975 0.64695 0.67553 0.0
C983 C 0.87527 0.67021 0.68825 0.0
C984 C 0.91659 0.65203 0.68451 0.0
C985 C 0.88415 0.63348 0.61962 0.0
C986 C 0.8742 0.61127 0.62034 0.0
C987 C 0.8674 0.59558 0.57379 0.0
C988 C 0.87101 0.60268 0.52514 0.0
C989 C 0.8815 0.62525 0.52306 0.0
C990 C 0.888 0.64084 0.5713 0.0
H991 H 0.1578 0.14677 0.53087 0.0
H992 H 0.12944 0.07438 0.51334 0.0
H993 H 0.12375 0.07266 0.417 0.0
H994 H 0.11863 0.16602 0.43299 0.0
H995 H 0.14129 0.18357 0.40935 0.0
H996 H 0.14256 0.17929 0.47711 0.0
H997 H 0.18513 0.16212 0.46403 0.0
H998 H 0.184 0.16635 0.39627 0.0
H999 H 0.1903 0.1371 0.41097 0.0
H1000 H 0.12246 0.07836 0.3215 0.0
H1001 H 0.12447 0.0916 0.23532 0.0
H1002 H 0.15402 0.16006 0.31537 0.0
C1003 C 0.15043 0.13053 0.5068 0.0
C1004 C 0.14401 0.11073 0.52988 0.0
C1005 C 0.13418 0.08992 0.49686 0.0
C1006 C 0.13101 0.08871 0.44198 0.0
C1007 C 0.13766 0.10848 0.42054 0.0
C1008 C 0.14707 0.12904 0.45198 0.0
C1009 C 0.15289 0.14776 0.41911 0.0
C1010 C 0.13795 0.1705 0.43563 0.0
C1011 C 0.17967 0.15367 0.42282 0.0
C1012 C 0.14547 0.13445 0.36421 0.0
C1013 C 0.13675 0.11182 0.36582 0.0
C1014 C 0.12919 0.09608 0.31983 0.0
C1015 C 0.13052 0.10371 0.271 0.0
C1016 C 0.1393 0.12691 0.26842 0.0
C1017 C 0.14684 0.14238 0.31591 0.0
H1018 H 0.62712 0.4099 0.23595 0.0
H1019 H 0.67537 0.34938 0.21778 0.0
H1020 H 0.67703 0.34928 0.12211 0.0
H1021 H 0.59446 0.3912 0.10886 0.0
H1022 H 0.59175 0.42133 0.09632 0.0
H1023 H 0.59336 0.41628 0.16354 0.0
H1024 H 0.62938 0.44539 0.18387 0.0
H1025 H 0.6279 0.45049 0.11673 0.0
H1026 H 0.65517 0.44018 0.1432 0.0
H1027 H 0.67528 0.35644 0.02958 0.0
H1028 H 0.6696 0.37018 0.94457 0.0
H1029 H 0.62207 0.42592 1.01915 0.0
C1030 C 0.63779 0.39647 0.21164 0.0
C1031 C 0.65129 0.37975 0.23473 0.0
C1032 C 0.66518 0.36261 0.20144 0.0
C1033 C 0.66615 0.36231 0.14686 0.0
C1034 C 0.65306 0.37922 0.12553 0.0
C1035 C 0.63906 0.39596 0.15663 0.0
C1036 C 0.62736 0.41253 0.12328 0.0
C1037 C 0.60011 0.41019 0.12299 0.0
C1038 C 0.63544 0.4387 0.14295 0.0
C1039 C 0.6371 0.4025 0.06887 0.0
C1040 C 0.65188 0.38327 0.07136 0.0
C1041 C 0.66366 0.37141 0.02706 0.0
C1042 C 0.66041 0.37943 0.97895 0.0
C1043 C 0.64544 0.39914 0.97501 0.0
C1044 C 0.63343 0.41065 0.02069 0.0
H1045 H 0.39376 0.87389 0.99052 0.0
H1046 H 0.36344 0.94208 0.064 0.0
H1047 H 0.35815 0.95304 0.97594 0.0
H1048 H 0.42527 0.89538 0.88964 0.0
H1049 H 0.41906 0.86916 0.83937 0.0
H1050 H 0.42067 0.86663 0.90823 0.0
H1051 H 0.37833 0.8479 0.8998 0.0
H1052 H 0.37663 0.85026 0.83084 0.0
H1053 H 0.35402 0.86376 0.87507 0.0
H1054 H 0.35629 0.95675 0.88019 0.0
H1055 H 0.35669 0.95241 0.78291 0.0
H1056 H 0.38755 0.88151 0.77113 0.0
C1057 C 0.38574 0.89102 0.98817 0.0
C1058 C 0.37912 0.90716 0.03446 0.0
C1059 C 0.36903 0.92955 0.02939 0.0
C1060 C 0.36582 0.9359 0.97947 0.0
C1061 C 0.37268 0.91964 0.93485 0.0
C1062 C 0.3823 0.89761 0.93864 0.0
C1063 C 0.38802 0.88335 0.88439 0.0
C1064 C 0.41485 0.87834 0.88018 0.0
C1065 C 0.37337 0.85993 0.87179 0.0
C1066 C 0.38012 0.90084 0.84951 0.0
C1067 C 0.37141 0.92169 0.87948 0.0
C1068 C 0.36312 0.94053 0.85631 0.0
C1069 C 0.3636 0.93796 0.801 0.0
C1070 C 0.3723 0.91669 0.76928 0.0
C1071 C 0.38067 0.89793 0.79415 0.0
H1072 H 0.14674 0.70498 0.06982 0.0
H1073 H 0.14877 0.70111 0.23666 0.0
H1074 H 0.14509 0.74571 0.25941 0.0
H1075 H 0.18095 0.75751 0.07845 0.0
H1076 H 0.1637 0.76846 0.02787 0.0
H1077 H 0.16563 0.73669 0.02657 0.0
H1078 H 0.11958 0.73359 0.02637 0.0
H1079 H 0.11749 0.76536 0.02736 0.0
H1080 H 0.10343 0.75246 0.07777 0.0
H1081 H 0.14361 0.79261 0.26126 0.0
H1082 H 0.14188 0.83407 0.24205 0.0
H1083 H 0.1396 0.80413 0.07363 0.0
C1084 C 0.14626 0.71342 0.11128 0.0
C1085 C 0.14813 0.69964 0.15152 0.0
C1086 C 0.14728 0.71138 0.20521 0.0
C1087 C 0.14528 0.73669 0.21836 0.0
C1088 C 0.14384 0.74982 0.17728 0.0
C1089 C 0.14401 0.7383 0.1248 0.0
C1090 C 0.14228 0.75581 0.08731 0.0
C1091 C 0.16446 0.75454 0.05306 0.0
C1092 C 0.11933 0.75155 0.05268 0.0
C1093 C 0.1414 0.77921 0.12648 0.0
C1094 C 0.14239 0.77573 0.17832 0.0
C1095 C 0.1426 0.79534 0.22067 0.0
C1096 C 0.14166 0.81885 0.20947 0.0
C1097 C 0.14037 0.82252 0.15635 0.0
C1098 C 0.14025 0.80223 0.11481 0.0
H1099 H 0.56272 0.8707 0.36654 0.0
H1100 H 0.58082 0.92108 0.51136 0.0
H1101 H 0.53821 0.9233 0.53433 0.0
H1102 H 0.51047 0.89869 0.33461 0.0
H1103 H 0.4947 0.87113 0.30835 0.0
H1104 H 0.52664 0.87209 0.30659 0.0
H1105 H 0.52936 0.83675 0.35749 0.0
H1106 H 0.49736 0.83567 0.35937 0.0
H1107 H 0.51497 0.83914 0.4201 0.0
H1108 H 0.49202 0.9221 0.53689 0.0
H1109 H 0.44844 0.91754 0.51835 0.0
H1110 H 0.46226 0.86759 0.37261 0.0
C1111 C 0.55788 0.88198 0.40354 0.0
C1112 C 0.57524 0.89565 0.43721 0.0
C1113 C 0.56794 0.91025 0.48508 0.0
C1114 C 0.54372 0.91165 0.49841 0.0
C1115 C 0.52702 0.89818 0.46373 0.0
C1116 C 0.53395 0.88349 0.41744 0.0
C1117 C 0.51274 0.87161 0.38536 0.0
C1118 C 0.51105 0.87882 0.33051 0.0
C1119 C 0.51367 0.84416 0.38031 0.0
C1120 C 0.49265 0.88223 0.42005 0.0
C1121 C 0.50104 0.8974 0.46535 0.0
C1122 C 0.48536 0.91002 0.50177 0.0
C1123 C 0.46061 0.90728 0.49106 0.0
C1124 C 0.45179 0.89214 0.44418 0.0
C1125 C 0.46822 0.87924 0.40902 0.0
H1126 H 0.34788 0.31701 0.58966 0.0
H1127 H 0.4127 0.34254 0.67723 0.0
H1128 H 0.41782 0.30256 0.703 0.0
H1129 H 0.32732 0.28064 0.68441 0.0
H1130 H 0.31454 0.25806 0.63224 0.0
H1131 H 0.31602 0.28888 0.62399 0.0
H1132 H 0.33879 0.27579 0.537 0.0
H1133 H 0.33751 0.245 0.54511 0.0
H1134 H 0.36585 0.25882 0.53814 0.0
H1135 H 0.41744 0.25663 0.70904 0.0
H1136 H 0.40952 0.21286 0.70215 0.0
H1137 H 0.34302 0.22053 0.61753 0.0
C1138 C 0.36298 0.31432 0.61501 0.0
C1139 C 0.37991 0.3328 0.63147 0.0
C1140 C 0.39941 0.32864 0.66461 0.0
C1141 C 0.40247 0.30594 0.67915 0.0
C1142 C 0.38556 0.28784 0.66125 0.0
C1143 C 0.36591 0.29215 0.63083 0.0
C1144 C 0.35016 0.27013 0.61613 0.0
C1145 C 0.32556 0.2747 0.64067 0.0
C1146 C 0.34797 0.26196 0.55552 0.0
C1147 C 0.36421 0.25236 0.64159 0.0
C1148 C 0.38469 0.26261 0.66726 0.0
C1149 C 0.40117 0.24868 0.68993 0.0
C1150 C 0.39656 0.22382 0.68589 0.0
C1151 C 0.37553 0.2132 0.65994 0.0
C1152 C 0.35913 0.22797 0.63846 0.0
H1153 H 0.96802 0.10934 0.82399 0.0
H1154 H 0.95162 0.15862 0.96863 0.0
H1155 H 0.99511 0.16276 0.99201 0.0
H1156 H 0.01707 0.07932 0.87784 0.0
H1157 H 0.03298 0.07596 0.81697 0.0
H1158 H 1.00095 0.07655 0.8153 0.0
H1159 H 1.00174 0.11179 0.76388 0.0
H1160 H 0.03372 0.11133 0.76544 0.0
H1161 H 0.01833 0.13869 0.79152 0.0
H1162 H 0.04291 0.16231 0.99418 0.0
H1163 H 0.08615 0.15718 0.9749 0.0
H1164 H 0.06754 0.10778 0.82932 0.0
C1165 C 0.9734 0.12094 0.86094 0.0
C1166 C 0.95643 0.13373 0.8944 0.0
C1167 C 0.96435 0.14858 0.94245 0.0
C1168 C 0.98902 0.15102 0.95588 0.0
C1169 C 1.00537 0.13824 0.92111 0.0
C1170 C 0.99754 0.12334 0.87482 0.0
C1171 C 0.01788 0.11172 0.84268 0.0
C1172 C 0.01717 0.08427 0.83795 0.0
C1173 C 0.01791 0.11882 0.78767 0.0
C1174 C 0.0387 0.12269 0.87705 0.0
C1175 C 0.03155 0.13786 0.92249 0.0
C1176 C 0.04846 0.1503 0.95879 0.0
C1177 C 0.07299 0.14727 0.94773 0.0
C1178 C 0.08023 0.13209 0.9006 0.0
C1179 C 0.0627 0.11956 0.8657 0.0
H1180 H 0.17141 0.32176 0.94962 0.0
H1181 H 0.12662 0.32949 0.81392 0.0
H1182 H 0.12043 0.28523 0.79299 0.0
H1183 H 0.19877 0.26524 0.89533 0.0
H1184 H 0.19775 0.2543 0.95673 0.0
H1185 H 0.19997 0.28608 0.95773 0.0
H1186 H 0.16213 0.29318 1.01387 0.0
H1187 H 0.15979 0.26144 1.01301 0.0
H1188 H 0.13505 0.27722 0.98976 0.0
H1189 H 0.12049 0.23905 0.78652 0.0
H1190 H 0.12276 0.19696 0.80124 0.0
H1191 H 0.16389 0.22127 0.94664 0.0
C1192 C 0.16055 0.31413 0.91505 0.0
C1193 C 0.14984 0.32895 0.88269 0.0
C1194 C 0.13518 0.31836 0.83878 0.0
C1195 C 0.13162 0.29327 0.82665 0.0
C1196 C 0.14243 0.27912 0.85955 0.0
C1197 C 0.1563 0.28933 0.90335 0.0
C1198 C 0.16457 0.27067 0.93486 0.0
C1199 C 0.19188 0.26898 0.93622 0.0
C1200 C 0.15479 0.27595 0.9912 0.0
C1201 C 0.15332 0.24827 0.90201 0.0
C1202 C 0.14097 0.2533 0.85813 0.0
C1203 C 0.1299 0.23505 0.82111 0.0
C1204 C 0.13131 0.21121 0.82963 0.0
C1205 C 0.14316 0.206 0.87544 0.0
C1206 C 0.15432 0.22482 0.91176 0.0
H1207 H 0.06109 0.92952 0.10368 0.0
H1208 H 0.07637 0.85338 0.07404 0.0
H1209 H 0.03305 0.84442 0.06186 0.0
H1210 H 1.01306 0.92707 0.18191 0.0
H1211 H 0.99629 0.95024 0.15841 0.0
H1212 H 0.0282 0.95022 0.15592 0.0
H1213 H 0.02551 0.95005 0.05494 0.0
H1214 H 0.99349 0.95018 0.05715 0.0
H1215 H 1.00832 0.92702 1.01199 0.0
H1216 H 0.98676 0.84446 0.06424 0.0
H1217 H 0.94409 0.85358 0.08157 0.0
H1218 H 0.96063 0.92965 0.11021 0.0
C1219 C 0.0554 0.91093 0.09321 0.0
C1220 C 0.07212 0.89215 0.08951 0.0
C1221 C 0.0639 0.86807 0.07646 0.0
C1222 C 0.0393 0.86284 0.06961 0.0
C1223 C 0.02318 0.8819 0.07539 0.0
C1224 C 0.03108 0.90548 0.08638 0.0
C1225 C 1.01055 0.92287 0.0952 0.0
C1226 C 1.01213 0.9385 0.15117 0.0
C1227 C 1.00941 0.93844 0.05225 0.0
C1228 C 0.98975 0.90552 0.08929 0.0
C1229 C 0.99716 0.88192 0.0771 0.0
C1230 C 0.98086 0.86291 0.07301 0.0
C1231 C 0.95663 0.86821 0.08272 0.0
C1232 C 0.94905 0.89232 0.09702 0.0
C1233 C 0.96585 0.91103 0.09899 0.0
H1234 H 0.36996 0.71717 0.45993 0.0
H1235 H 0.40905 0.69251 0.31711 0.0
H1236 H 0.40942 0.73411 0.29923 0.0
H1237 H 0.33239 0.75808 0.40402 0.0
H1238 H 0.33163 0.77974 0.46509 0.0
H1239 H 0.33542 0.74835 0.46676 0.0
H1240 H 0.3742 0.75825 0.52371 0.0
H1241 H 0.37056 0.78966 0.52215 0.0
H1242 H 0.39772 0.7747 0.49983 0.0
H1243 H 0.40715 0.78013 0.30114 0.0
H1244 H 0.39866 0.82394 0.31712 0.0
H1245 H 0.35789 0.81644 0.45383 0.0
C1246 C 0.37873 0.72052 0.425 0.0
C1247 C 0.3898 0.70165 0.39029 0.0
C1248 C 0.40057 0.70671 0.34436 0.0
C1249 C 0.4009 0.73031 0.33403 0.0
C1250 C 0.38992 0.74856 0.3694 0.0
C1251 C 0.37869 0.74373 0.41349 0.0
C1252 C 0.36722 0.76603 0.44427 0.0
C1253 C 0.34006 0.76285 0.44505 0.0
C1254 C 0.37808 0.77254 0.50083 0.0
C1255 C 0.37393 0.78436 0.4112 0.0
C1256 C 0.38731 0.77416 0.3685 0.0
C1257 C 0.39641 0.78813 0.33408 0.0
C1258 C 0.39156 0.81299 0.34343 0.0
C1259 C 0.37736 0.82353 0.38618 0.0
C1260 C 0.36847 0.80888 0.42021 0.0
H1261 H 0.56403 0.16293 0.67083 0.0
H1262 H 0.57746 0.1134 0.5242 0.0
H1263 H 0.53434 0.11252 0.50097 0.0
H1264 H 0.51166 0.1355 0.70055 0.0
H1265 H 0.49719 0.16319 0.72823 0.0
H1266 H 0.52914 0.16151 0.73017 0.0
H1267 H 0.53165 0.19761 0.68177 0.0
H1268 H 0.49964 0.19939 0.67966 0.0
H1269 H 0.51586 0.19632 0.61923 0.0
H1270 H 0.48829 0.11511 0.49757 0.0
H1271 H 0.44523 0.12032 0.51572 0.0
H1272 H 0.4633 0.16809 0.66427 0.0
C1273 C 0.55808 0.15215 0.63335 0.0
C1274 C 0.57433 0.13833 0.59927 0.0
C1275 C 0.5655 0.12431 0.55092 0.0
C1276 C 0.54098 0.12369 0.53737 0.0
C1277 C 0.52542 0.13728 0.57238 0.0
C1278 C 0.53377 0.15132 0.61931 0.0
C1279 C 0.51354 0.1633 0.65175 0.0
C1280 C 0.51284 0.15539 0.70585 0.0
C1281 C 0.51528 0.19079 0.65848 0.0
C1282 C 0.49239 0.15351 0.61644 0.0
C1283 C 0.49944 0.13869 0.57052 0.0
C1284 C 0.48267 0.12689 0.53322 0.0
C1285 C 0.45822 0.13002 0.5437 0.0
C1286 C 0.45075 0.14468 0.59128 0.0
C1287 C 0.46825 0.15682 0.62734 0.0
H1288 H 0.8918 0.21921 0.95632 0.0
H1289 H 0.88486 0.19589 0.78579 0.0
H1290 H 0.88276 0.23859 0.7754 0.0
H1291 H 0.85006 0.26596 0.96541 0.0
H1292 H 0.86612 0.28536 1.01852 0.0
H1293 H 0.86888 0.2533 1.01091 0.0
H1294 H 0.91472 0.25724 1.00659 0.0
H1295 H 0.91209 0.28935 1.01406 0.0
H1296 H 0.92722 0.27256 0.95814 0.0
H1297 H 0.88107 0.28547 0.78593 0.0
H1298 H 0.87657 0.32959 0.81647 0.0
H1299 H 0.88264 0.31987 0.97951 0.0
C1300 C 0.89019 0.22291 0.91653 0.0
C1301 C 0.88882 0.20409 0.87178 0.0
C1302 C 0.88611 0.20997 0.82069 0.0
C1303 C 0.88497 0.23419 0.81446 0.0
C1304 C 0.88633 0.25231 0.85973 0.0
C1305 C 0.8887 0.24676 0.90977 0.0
C1306 C 0.8883 0.269 0.95267 0.0
C1307 C 0.86708 0.26836 0.98899 0.0
C1308 C 0.91199 0.27222 0.98474 0.0
C1309 C 0.88522 0.28814 0.91933 0.0
C1310 C 0.88444 0.27843 0.86573 0.0
C1311 C 0.88167 0.29312 0.82785 0.0
C1312 C 0.87925 0.31816 0.84541 0.0
C1313 C 0.87925 0.32808 0.90027 0.0
C1314 C 0.8825 0.31279 0.93727 0.0
H1315 H 0.67604 0.82399 0.447 0.0
H1316 H 0.62765 0.83147 0.31684 0.0
H1317 H 0.62052 0.78739 0.29878 0.0
H1318 H 0.70129 0.76654 0.39011 0.0
H1319 H 0.70214 0.75614 0.45226 0.0
H1320 H 0.70464 0.78777 0.45167 0.0
H1321 H 0.66884 0.79618 0.51377 0.0
H1322 H 0.66623 0.76461 0.51456 0.0
H1323 H 0.64099 0.78073 0.49461 0.0
H1324 H 0.61932 0.74165 0.2953 0.0
H1325 H 0.62101 0.69996 0.31198 0.0
H1326 H 0.66756 0.72394 0.44924 0.0
C1327 C 0.66416 0.81635 0.41423 0.0
C1328 C 0.65265 0.83109 0.38273 0.0
C1329 C 0.63681 0.82045 0.34107 0.0
C1330 C 0.6327 0.79544 0.33057 0.0
C1331 C 0.64428 0.78141 0.36265 0.0
C1332 C 0.65948 0.79162 0.40405 0.0
C1333 C 0.66856 0.77307 0.43504 0.0
C1334 C 0.69577 0.77075 0.43207 0.0
C1335 C 0.66068 0.779 0.49291 0.0
C1336 C 0.65614 0.75073 0.4048 0.0
C1337 C 0.6425 0.75573 0.36261 0.0
C1338 C 0.62984 0.73764 0.32845 0.0
C1339 C 0.63095 0.714 0.33809 0.0
C1340 C 0.64423 0.70874 0.38215 0.0
C1341 C 0.65702 0.72743 0.41559 0.0
H1342 H 0.85011 0.70864 0.10355 0.0
H1343 H 0.90025 0.70217 0.23125 0.0
H1344 H 0.90634 0.74643 0.24925 0.0
H1345 H 0.88315 0.75224 0.05411 0.0
H1346 H 0.85733 0.76788 0.03538 0.0
H1347 H 0.8554 0.73633 0.03681 0.0
H1348 H 0.82032 0.74443 0.10106 0.0
H1349 H 0.82218 0.77605 0.09989 0.0
H1350 H 0.82409 0.76585 0.16222 0.0
H1351 H 0.90688 0.79237 0.25165 0.0
H1352 H 0.90491 0.83373 0.23245 0.0
H1353 H 0.85671 0.80833 0.09899 0.0
C1354 C 0.86212 0.71654 0.13585 0.0
C1355 C 0.87451 0.70202 0.16648 0.0
C1356 C 0.89047 0.71302 0.20757 0.0
C1357 C 0.89397 0.73813 0.2181 0.0
C1358 C 0.88158 0.75195 0.18674 0.0
C1359 C 0.86614 0.74138 0.1461 0.0
C1360 C 0.85629 0.75966 0.11534 0.0
C1361 C 0.86348 0.75367 0.05698 0.0
C1362 C 0.82911 0.76161 0.11993 0.0
C1363 C 0.86865 0.78222 0.14459 0.0
C1364 C 0.88285 0.77765 0.18631 0.0
C1365 C 0.89584 0.79604 0.21895 0.0
C1366 C 0.89456 0.8195 0.20796 0.0
C1367 C 0.88081 0.82419 0.16406 0.0
C1368 C 0.86755 0.80527 0.13259 0.0
H1369 H 0.64956 0.20579 0.55984 0.0
H1370 H 0.6439 0.20077 0.72525 0.0
H1371 H 0.64085 0.24536 0.74873 0.0
H1372 H 0.68504 0.25826 0.57772 0.0
H1373 H 0.67035 0.26986 0.52464 0.0
H1374 H 0.6715 0.23796 0.52229 0.0
H1375 H 0.62548 0.23532 0.51235 0.0
H1376 H 0.6242 0.26721 0.51441 0.0
H1377 H 0.60758 0.25395 0.56072 0.0
H1378 H 0.64062 0.29194 0.7524 0.0
H1379 H 0.64055 0.33371 0.73555 0.0
H1380 H 0.64497 0.30582 0.56688 0.0
C1381 C 0.64757 0.214 0.60111 0.0
C1382 C 0.64708 0.19989 0.64083 0.0
C1383 C 0.64429 0.21131 0.69424 0.0
C1384 C 0.64261 0.2366 0.70781 0.0
C1385 C 0.64347 0.25004 0.66737 0.0
C1386 C 0.64563 0.23891 0.61501 0.0
C1387 C 0.64602 0.25685 0.57836 0.0
C1388 C 0.66963 0.25566 0.54905 0.0
C1389 C 0.62454 0.2531 0.53916 0.0
C1390 C 0.64403 0.28003 0.618 0.0
C1391 C 0.64268 0.27599 0.66928 0.0
C1392 C 0.64146 0.29514 0.71227 0.0
C1393 C 0.64149 0.31883 0.70237 0.0
C1394 C 0.64255 0.32315 0.64986 0.0
C1395 C 0.64384 0.30332 0.60751 0.0
H1396 H 0.95897 0.36371 0.89129 0.0
H1397 H 0.94628 0.41793 0.0309 0.0
H1398 H 0.98963 0.42013 0.05199 0.0
H1399 H 1.01012 0.33413 0.94661 0.0
H1400 H 0.02485 0.32933 0.88411 0.0
H1401 H 0.99281 0.32956 0.88536 0.0
H1402 H 0.99185 0.36286 0.82862 0.0
H1403 H 0.02379 0.36282 0.82737 0.0
H1404 H 1.00831 0.39035 0.85153 0.0
H1405 H 0.03533 0.41969 0.0508 0.0
H1406 H 0.07782 0.41694 0.02703 0.0
H1407 H 0.05935 0.36322 0.8879 0.0
C1408 C 0.96515 0.37569 0.92705 0.0
C1409 C 0.94916 0.39058 0.95957 0.0
C1410 C 0.95814 0.40613 1.0057 0.0
C1411 C 0.98276 0.40752 1.01792 0.0
C1412 C 0.99811 0.39305 0.98394 0.0
C1413 C 0.98951 0.37728 0.93968 0.0
C1414 C 1.00949 0.36513 0.90678 0.0
C1415 C 1.0093 0.33792 0.90568 0.0
C1416 C 1.00828 0.37064 0.85027 0.0
C1417 C 0.03079 0.37711 0.93823 0.0
C1418 C 0.02402 0.3929 0.98309 0.0
C1419 C 0.04078 0.40707 1.01623 0.0
C1420 C 0.0649 0.40535 1.00251 0.0
C1421 C 0.07196 0.38978 0.95575 0.0
C1422 C 0.05463 0.37519 0.92411 0.0
H1423 H 0.46615 0.59766 0.41718 0.0
H1424 H 0.44999 0.67264 0.47116 0.0
H1425 H 0.4929 0.68114 0.49352 0.0
H1426 H 0.51731 0.59415 0.51545 0.0
H1427 H 0.53293 0.57376 0.46573 0.0
H1428 H 0.50085 0.5734 0.46546 0.0
H1429 H 0.49982 0.57971 0.36808 0.0
H1430 H 0.53172 0.58041 0.36818 0.0
H1431 H 0.51504 0.60527 0.35175 0.0
H1432 H 0.53899 0.68195 0.49213 0.0
H1433 H 0.58161 0.6746 0.4712 0.0
H1434 H 0.5661 0.59873 0.42146 0.0
C1435 C 0.47156 0.61566 0.43607 0.0
C1436 C 0.45491 0.63442 0.44354 0.0
C1437 C 0.46251 0.65794 0.46662 0.0
C1438 C 0.48686 0.66289 0.47905 0.0
C1439 C 0.50313 0.644 0.46906 0.0
C1440 C 0.49555 0.62072 0.4492 0.0
C1441 C 0.51628 0.60386 0.43666 0.0
C1442 C 0.51688 0.58519 0.47301 0.0
C1443 C 0.51567 0.59163 0.3777 0.0
C1444 C 0.53683 0.62137 0.44963 0.0
C1445 C 0.52915 0.64444 0.46898 0.0
C1446 C 0.54515 0.66384 0.47828 0.0
C1447 C 0.56934 0.65955 0.46638 0.0
C1448 C 0.57712 0.63609 0.44495 0.0
C1449 C 0.56071 0.61684 0.43829 0.0
H1450 H 0.46379 0.36565 0.63397 0.0
H1451 H 0.45103 0.40538 0.50743 0.0
H1452 H 0.49408 0.40338 0.48817 0.0
H1453 H 0.51478 0.3945 0.6844 0.0
H1454 H 0.52948 0.36856 0.70104 0.0
H1455 H 0.49756 0.36962 0.69806 0.0
H1456 H 0.49625 0.32962 0.62973 0.0
H1457 H 0.52829 0.32839 0.63264 0.0
H1458 H 0.51276 0.32702 0.56978 0.0
H1459 H 0.5399 0.40237 0.49325 0.0
H1460 H 0.58253 0.40188 0.5213 0.0
H1461 H 0.56398 0.36189 0.64263 0.0
C1462 C 0.46992 0.37341 0.60126 0.0
C1463 C 0.45408 0.38564 0.57214 0.0
C1464 C 0.46283 0.39567 0.52987 0.0
C1465 C 0.48727 0.39465 0.51875 0.0
C1466 C 0.50258 0.38313 0.54962 0.0
C1467 C 0.49406 0.37236 0.5895 0.0
C1468 C 0.51404 0.36286 0.62016 0.0
C1469 C 0.51395 0.3746 0.67937 0.0
C1470 C 0.51276 0.33534 0.6126 0.0
C1471 C 0.53531 0.37088 0.59309 0.0
C1472 C 0.52852 0.38226 0.55197 0.0
C1473 C 0.54535 0.39303 0.52463 0.0
C1474 C 0.56953 0.39264 0.54069 0.0
C1475 C 0.57652 0.38174 0.58394 0.0
C1476 C 0.5592 0.37013 0.60905 0.0
H1477 H 0.06699 0.6602 0.18946 0.0
H1478 H 0.07948 0.61542 0.03614 0.0
H1479 H 0.03609 0.61352 1.01655 0.0
H1480 H 0.01695 0.62921 0.21851 0.0
H1481 H 1.00158 0.65551 0.25126 0.0
H1482 H 0.03357 0.65543 0.25048 0.0
H1483 H 0.03309 0.69352 0.20831 0.0
H1484 H 1.00104 0.69377 0.20911 0.0
H1485 H 0.016 0.69344 0.14782 0.0
H1486 H 0.99063 0.61394 1.01726 0.0
H1487 H 0.94791 0.61651 0.0384 0.0
H1488 H 0.96595 0.66084 0.19138 0.0
C1489 C 0.06074 0.65033 0.15126 0.0
C1490 C 0.07678 0.63807 0.11422 0.0
C1491 C 0.06764 0.62512 0.06507 0.0
C1492 C 0.04299 0.62393 0.05358 0.0
C1493 C 0.02767 0.63587 0.09151 0.0
C1494 C 0.03628 0.64892 0.13926 0.0
C1495 C 0.0162 0.65895 0.17478 0.0
C1496 C 0.01714 0.64918 0.22681 0.0
C1497 C 0.01661 0.68656 0.18562 0.0
C1498 C 0.99489 0.64912 0.14012 0.0
C1499 C 1.00177 0.63602 0.09202 0.0
C1500 C 0.98508 0.62438 0.05459 0.0
C1501 C 0.96082 0.62596 0.06694 0.0
C1502 C 0.95346 0.63898 0.11644 0.0
C1503 C 0.97085 0.65091 0.15298 0.0
H1504 H 0.16842 0.56095 0.10365 0.0
H1505 H 0.09448 0.56765 0.14791 0.0
H1506 H 0.08469 0.53028 0.0847 0.0
H1507 H 0.1578 0.53654 0.96465 0.0
H1508 H 0.18236 0.51592 0.95984 0.0
H1509 H 0.18364 0.54349 1.00803 0.0
H1510 H 0.19134 0.51919 0.0829 0.0
H1511 H 0.18995 0.49158 0.03483 0.0
H1512 H 0.17067 0.49582 0.09066 0.0
H1513 H 0.0823 0.49335 1.01471 0.0
H1514 H 0.08789 0.45733 0.94563 0.0
H1515 H 0.16377 0.47185 0.94938 0.0
C1516 C 0.15021 0.55447 0.0999 0.0
C1517 C 0.13216 0.56724 0.13058 0.0
C1518 C 0.10857 0.55815 0.12494 0.0
C1519 C 0.10282 0.53695 0.08903 0.0
C1520 C 0.12092 0.52474 0.05943 0.0
C1521 C 0.1442 0.53295 0.06474 0.0
C1522 C 0.16023 0.51591 0.02866 0.0
C1523 C 0.17169 0.52873 0.98788 0.0
C1524 C 0.17917 0.50498 0.06122 0.0
C1525 C 0.14228 0.497 1.00212 0.0
C1526 C 0.11969 0.50267 0.02026 0.0
C1527 C 0.09993 0.48862 1.00049 0.0
C1528 C 0.10326 0.46824 0.96111 0.0
C1529 C 0.12623 0.46178 0.94232 0.0
C1530 C 0.14604 0.47628 0.96343 0.0
H1531 H 0.71365 0.87289 0.26712 0.0
H1532 H 0.72745 0.94026 0.37539 0.0
H1533 H 0.76525 0.94476 0.33043 0.0
H1534 H 0.77534 0.85272 0.26237 0.0
H1535 H 0.77274 0.83852 0.19349 0.0
H1536 H 0.74705 0.8408 0.23448 0.0
H1537 H 0.72411 0.86226 0.16809 0.0
H1538 H 0.74979 0.86023 0.12713 0.0
H1539 H 0.73658 0.88904 0.15111 0.0
H1540 H 0.8 0.94331 0.26756 0.0
H1541 H 0.83121 0.93367 0.20103 0.0
H1542 H 0.79669 0.86531 0.13936 0.0
C1543 C 0.7247 0.88854 0.28166 0.0
C1544 C 0.71751 0.90632 0.32474 0.0
C1545 C 0.7326 0.92638 0.34273 0.0
C1546 C 0.75404 0.92912 0.31717 0.0
C1547 C 0.7604 0.91142 0.27426 0.0
C1548 C 0.74635 0.89128 0.25737 0.0
C1549 C 0.75742 0.87454 0.21126 0.0
C1550 C 0.7635 0.85021 0.22631 0.0
C1551 C 0.741 0.87134 0.16146 0.0
C1552 C 0.77978 0.88851 0.20422 0.0
C1553 C 0.78103 0.90989 0.24051 0.0
C1554 C 0.79942 0.92638 0.23984 0.0
C1555 C 0.81714 0.9207 0.20195 0.0
C1556 C 0.81685 0.89843 0.16593 0.0
C1557 C 0.7977 0.88229 0.16694 0.0
H1558 H 0.3782 0.48967 0.65217 0.0
H1559 H 0.41552 0.43924 0.53513 0.0
H1560 H 0.41578 0.46894 0.47575 0.0
H1561 H 0.34211 0.51766 0.56284 0.0
H1562 H 0.34534 0.54758 0.60146 0.0
H1563 H 0.347 0.52199 0.63369 0.0
H1564 H 0.38836 0.53637 0.6746 0.0
H1565 H 0.38672 0.56202 0.64262 0.0
H1566 H 0.41172 0.54201 0.63175 0.0
H1567 H 0.41055 0.50393 0.42754 0.0
H1568 H 0.40467 0.54279 0.39863 0.0
H1569 H 0.37422 0.57224 0.5503 0.0
C1570 C 0.3863 0.48493 0.61387 0.0
C1571 C 0.39616 0.46187 0.59732 0.0
C1572 C 0.40724 0.45652 0.54778 0.0
C1573 C 0.40755 0.47334 0.51391 0.0
C1574 C 0.39732 0.49581 0.53083 0.0
C1575 C 0.38732 0.50183 0.58013 0.0
C1576 C 0.37873 0.52768 0.58984 0.0
C1577 C 0.35169 0.52878 0.59739 0.0
C1578 C 0.39219 0.54291 0.63753 0.0
C1579 C 0.38526 0.53518 0.53821 0.0
C1580 C 0.39568 0.51642 0.50444 0.0
C1581 C 0.40258 0.51879 0.45388 0.0
C1582 C 0.39905 0.54093 0.43765 0.0
C1583 C 0.38904 0.56068 0.47206 0.0
C1584 C 0.38205 0.55759 0.52304 0.0
H1585 H 0.80234 0.16406 0.90446 0.0
H1586 H 0.83355 0.0957 0.83606 0.0
H1587 H 0.80035 0.08774 0.77044 0.0
H1588 H 0.74106 0.14084 0.89108 0.0
H1589 H 0.72857 0.16831 0.87704 0.0
H1590 H 0.75535 0.16922 0.91761 0.0
H1591 H 0.77693 0.19216 0.85432 0.0
H1592 H 0.75029 0.19107 0.81323 0.0
H1593 H 0.77775 0.17929 0.78465 0.0
H1594 H 0.76517 0.08829 0.70755 0.0
H1595 H 0.72664 0.0939 0.66242 0.0
H1596 H 0.7152 0.15931 0.77676 0.0
C1597 C 0.80209 0.14741 0.87578 0.0
C1598 C 0.82103 0.13085 0.87441 0.0
C1599 C 0.81964 0.10898 0.8371 0.0
C1600 C 0.80082 0.10426 0.79951 0.0
C1601 C 0.78286 0.12121 0.80061 0.0
C1602 C 0.78291 0.14204 0.83866 0.0
C1603 C 0.76051 0.15645 0.83277 0.0
C1604 C 0.74548 0.15884 0.88259 0.0
C1605 C 0.76675 0.18121 0.82052 0.0
C1606 C 0.74812 0.14059 0.78531 0.0
C1607 C 0.76157 0.12058 0.76677 0.0
C1608 C 0.75433 0.10376 0.72211 0.0
C1609 C 0.73251 0.10716 0.69643 0.0
C1610 C 0.71788 0.12694 0.71608 0.0
C1611 C 0.72595 0.14391 0.761 0.0
H1612 H 0.85829 0.5629 0.10481 0.0
H1613 H 0.93267 0.56633 0.1558 0.0
H1614 H 0.93993 0.52799 0.0954 0.0
H1615 H 0.85194 0.49795 0.0944 0.0
H1616 H 0.83237 0.49418 0.0366 0.0
H1617 H 0.83274 0.52213 0.08361 0.0
H1618 H 0.84186 0.54528 1.00835 0.0
H1619 H 0.84134 0.51736 0.96124 0.0
H1620 H 0.86715 0.5367 0.96755 0.0
H1621 H 0.94 0.4906 0.02673 0.0
H1622 H 0.93227 0.45474 0.95731 0.0
H1623 H 0.85733 0.47264 0.95356 0.0
C1624 C 0.87605 0.55547 0.10326 0.0
C1625 C 0.89494 0.56765 0.13507 0.0
C1626 C 0.91791 0.55733 0.13205 0.0
C1627 C 0.92224 0.53555 0.09773 0.0
C1628 C 0.90335 0.52397 0.06694 0.0
C1629 C 0.88064 0.53335 0.06963 0.0
C1630 C 0.86355 0.51686 0.03244 0.0
C1631 C 0.84399 0.50721 0.06364 0.0
C1632 C 0.85284 0.52982 0.98987 0.0
C1633 C 0.88028 0.49691 1.0083 0.0
C1634 C 0.90319 0.50161 0.02859 0.0
C1635 C 0.92209 0.4866 1.01094 0.0
C1636 C 0.91755 0.46631 0.97138 0.0
C1637 C 0.89422 0.46085 0.95037 0.0
C1638 C 0.87528 0.47624 0.96951 0.0
H1639 H 0.23422 0.11943 0.89262 0.0
H1640 H 0.19402 0.17726 0.84471 0.0
H1641 H 0.22298 0.17956 0.775 0.0
H1642 H 0.29118 0.14731 0.88053 0.0
H1643 H 0.30633 0.11932 0.85913 0.0
H1644 H 0.28106 0.12038 0.90108 0.0
H1645 H 0.26033 0.0869 0.83216 0.0
H1646 H 0.28547 0.08585 0.78979 0.0
H1647 H 0.25606 0.09101 0.76462 0.0
H1648 H 0.2559 0.17432 0.70764 0.0
H1649 H 0.29378 0.16766 0.65994 0.0
H1650 H 0.31596 0.11785 0.76047 0.0
C1651 C 0.23147 0.13238 0.86699 0.0
C1652 C 0.21147 0.14766 0.87281 0.0
C1653 C 0.20888 0.16501 0.84003 0.0
C1654 C 0.22526 0.16642 0.80028 0.0
C1655 C 0.24471 0.15095 0.79505 0.0
C1656 C 0.24827 0.13474 0.82855 0.0
C1657 C 0.27196 0.12204 0.81831 0.0
C1658 C 0.28861 0.1276 0.86769 0.0
C1659 C 0.26822 0.09483 0.80014 0.0
C1660 C 0.28104 0.13346 0.7736 0.0
C1661 C 0.26477 0.14965 0.75986 0.0
C1662 C 0.26885 0.16185 0.71846 0.0
C1663 C 0.29032 0.15785 0.69131 0.0
C1664 C 0.30775 0.14228 0.7065 0.0
C1665 C 0.30293 0.12988 0.74807 0.0
H1666 H 0.64991 0.57673 0.53915 0.0
H1667 H 0.62953 0.54887 0.37472 0.0
H1668 H 0.62368 0.50873 0.39599 0.0
H1669 H 0.68337 0.52474 0.55807 0.0
H1670 H 0.67472 0.52598 0.62557 0.0
H1671 H 0.67594 0.55312 0.59882 0.0
H1672 H 0.6321 0.56192 0.6235 0.0
H1673 H 0.63068 0.53471 0.65003 0.0
H1674 H 0.60947 0.53968 0.59932 0.0
H1675 H 0.62023 0.47206 0.4329 0.0
H1676 H 0.62315 0.43885 0.48136 0.0
H1677 H 0.64742 0.48824 0.62334 0.0
C1678 C 0.64409 0.56217 0.50776 0.0
C1679 C 0.64009 0.566 0.45514 0.0
C1680 C 0.6328 0.54643 0.41512 0.0
C1681 C 0.62926 0.52357 0.42692 0.0
C1682 C 0.63328 0.52038 0.47893 0.0
C1683 C 0.64081 0.53897 0.51874 0.0
C1684 C 0.64517 0.53 0.57057 0.0
C1685 C 0.67136 0.53367 0.58935 0.0
C1686 C 0.62835 0.54231 0.61339 0.0
C1687 C 0.63906 0.50342 0.55337 0.0
C1688 C 0.63196 0.49859 0.5004 0.0
C1689 C 0.62581 0.47559 0.47431 0.0
C1690 C 0.62759 0.45681 0.50237 0.0
C1691 C 0.63566 0.46082 0.55618 0.0
C1692 C 0.64098 0.48462 0.58249 0.0
H1693 H 0.30948 0.86295 0.26551 0.0
H1694 H 0.29829 0.92922 0.37732 0.0
H1695 H 0.2602 0.93503 0.33088 0.0
H1696 H 0.28516 0.881 0.15008 0.0
H1697 H 0.27068 0.85273 0.12366 0.0
H1698 H 0.29697 0.85354 0.16573 0.0
H1699 H 0.27421 0.83165 0.2292 0.0
H1700 H 0.2479 0.83058 0.18706 0.0
H1701 H 0.24667 0.84396 0.25637 0.0
H1702 H 0.22551 0.93579 0.26609 0.0
H1703 H 0.19356 0.92835 0.19698 0.0
H1704 H 0.22399 0.85904 0.13374 0.0
C1705 C 0.29887 0.87856 0.28047 0.0
C1706 C 0.3069 0.89569 0.32506 0.0
C1707 C 0.29246 0.9158 0.34356 0.0
C1708 C 0.27085 0.91932 0.31719 0.0
C1709 C 0.2636 0.9023 0.27294 0.0
C1710 C 0.27689 0.88202 0.25544 0.0
C1711 C 0.26465 0.86613 0.20789 0.0
C1712 C 0.2803 0.86318 0.15895 0.0
C1713 C 0.25796 0.84163 0.22092 0.0
C1714 C 0.24262 0.88084 0.20076 0.0
C1715 C 0.24258 0.90182 0.23828 0.0
C1716 C 0.225 0.91909 0.2376 0.0
C1717 C 0.20675 0.9146 0.19843 0.0
C1718 C 0.2056 0.8927 0.16134 0.0
C1719 C 0.22402 0.87573 0.1623 0.0
H1720 H 0.66939 0.97206 0.44566 0.0
H1721 H 0.59347 0.96135 0.41499 0.0
H1722 H 0.58546 0.99708 0.48296 0.0
H1723 H 0.66652 0.99419 0.58803 0.0
H1724 H 0.6897 0.01637 0.58982 0.0
H1725 H 0.68974 0.98924 0.54028 0.0
H1726 H 0.69083 0.01458 0.46667 0.0
H1727 H 0.69041 0.04193 0.5155 0.0
H1728 H 0.66801 0.03653 0.46301 0.0
H1729 H 0.58524 0.03323 0.55536 0.0
H1730 H 0.59297 0.06968 0.62323 0.0
H1731 H 0.66894 0.05996 0.60388 0.0
C1732 C 0.65112 0.97729 0.45346 0.0
C1733 C 0.63203 0.96389 0.42497 0.0
C1734 C 0.60837 0.97136 0.43603 0.0
C1735 C 0.60362 0.9916 0.47478 0.0
C1736 C 0.62272 1.00452 0.50195 0.0
C1737 C 0.64602 0.99787 0.49159 0.0
C1738 C 0.66316 0.01561 0.52546 0.0
C1739 C 0.67817 1.00311 0.56314 0.0
C1740 C 0.67905 0.02789 0.49059 0.0
C1741 C 0.64583 0.03329 0.55597 0.0
C1742 C 0.62259 0.02623 0.5423 0.0
C1743 C 0.60335 0.03903 0.56615 0.0
C1744 C 0.60791 0.05968 0.6048 0.0
C1745 C 0.6315 0.06768 0.61865 0.0
C1746 C 0.65071 0.05432 0.59373 0.0
H1747 H 0.23445 0.39989 0.87893 0.0
H1748 H 0.18658 0.42266 0.76262 0.0
H1749 H 0.22033 0.42703 0.70652 0.0
H1750 H 0.28559 0.43927 0.85926 0.0
H1751 H 0.30747 0.41677 0.86621 0.0
H1752 H 0.27991 0.41766 0.90078 0.0
H1753 H 0.2717 0.37325 0.85746 0.0
H1754 H 0.29911 0.37234 0.8225 0.0
H1755 H 0.27141 0.36455 0.78622 0.0
H1756 H 0.25772 0.42572 0.65888 0.0
H1757 H 0.29794 0.42061 0.62347 0.0
H1758 H 0.32329 0.39877 0.76856 0.0
C1759 C 0.23128 0.40638 0.84232 0.0
C1760 C 0.20787 0.41103 0.82526 0.0
C1761 C 0.20432 0.41895 0.77648 0.0
C1762 C 0.2234 0.42154 0.74427 0.0
C1763 C 0.24611 0.41617 0.76112 0.0
C1764 C 0.25033 0.40894 0.80907 0.0
C1765 C 0.27657 0.40315 0.81564 0.0
C1766 C 0.28806 0.42023 0.86331 0.0
C1767 C 0.27988 0.37675 0.82074 0.0
C1768 C 0.2861 0.40784 0.76357 0.0
C1769 C 0.26813 0.41542 0.73304 0.0
C1770 C 0.27205 0.42004 0.6826 0.0
C1771 C 0.29501 0.41696 0.6627 0.0
C1772 C 0.31392 0.40934 0.69307 0.0
C1773 C 0.30931 0.40479 0.74439 0.0
H1774 H 0.88795 0.98807 0.12255 0.0
H1775 H 0.87287 0.93506 0.9795 0.0
H1776 H 0.8722 0.96657 0.92672 0.0
H1777 H 0.85048 0.03561 0.08329 0.0
H1778 H 0.87087 0.0596 0.11073 0.0
H1779 H 0.86956 0.03299 0.1395 0.0
H1780 H 0.91479 0.0269 0.12662 0.0
H1781 H 0.91617 0.0534 0.09754 0.0
H1782 H 0.92664 0.02512 0.0615 0.0
H1783 H 0.87447 1.00253 0.88687 0.0
H1784 H 0.87778 0.04242 0.863 0.0
H1785 H 0.89094 0.07408 0.02905 0.0
C1786 C 0.88426 0.98322 0.0803 0.0
C1787 C 0.8807 0.95885 0.05553 0.0
C1788 C 0.87603 0.95338 0.99985 0.0
C1789 C 0.87551 0.97122 0.96913 0.0
C1790 C 0.87958 0.99482 0.99412 0.0
C1791 C 0.88371 1.00108 0.04835 0.0
C1792 C 0.88779 0.02811 0.06401 0.0
C1793 C 0.86852 0.03976 0.10161 0.0
C1794 C 0.91284 0.03371 0.08889 0.0
C1795 C 0.88541 0.0357 1.01015 0.0
C1796 C 0.8807 0.01608 0.97058 0.0
C1797 C 0.87804 0.01814 0.91749 0.0
C1798 C 0.88003 0.04094 0.90426 0.0
C1799 C 0.8846 0.06156 0.94386 0.0
C1800 C 0.88739 0.05876 0.99763 0.0
H1801 H 0.21334 0.61097 0.28661 0.0
H1802 H 0.23623 0.64584 0.15996 0.0
H1803 H 0.27662 0.65125 0.20177 0.0
H1804 H 0.24543 0.64645 0.39189 0.0
H1805 H 0.25343 0.62221 0.42526 0.0
H1806 H 0.22672 0.6201 0.38429 0.0
H1807 H 0.24119 0.58004 0.32869 0.0
H1808 H 0.26788 0.58189 0.36983 0.0
H1809 H 0.26995 0.57887 0.29898 0.0
H1810 H 0.31259 0.65796 0.26463 0.0
H1811 H 0.3436 0.65937 0.33531 0.0
H1812 H 0.29938 0.61555 0.41512 0.0
C1813 C 0.227 0.6194 0.26728 0.0
C1814 C 0.22171 0.62804 0.22007 0.0
C1815 C 0.23999 0.63893 0.19585 0.0
C1816 C 0.26291 0.64219 0.21951 0.0
C1817 C 0.26742 0.63391 0.26667 0.0
C1818 C 0.25014 0.62217 0.28955 0.0
C1819 C 0.25967 0.61474 0.33993 0.0
C1820 C 0.24547 0.62659 0.38818 0.0
C1821 C 0.25967 0.58725 0.33398 0.0
C1822 C 0.28483 0.62472 0.34268 0.0
C1823 C 0.28883 0.63598 0.30036 0.0
C1824 C 0.30993 0.64848 0.29688 0.0
C1825 C 0.3275 0.64913 0.3371 0.0
C1826 C 0.3243 0.63662 0.37913 0.0
C1827 C 0.30258 0.62448 0.3822 0.0
H1828 H 0.41666 0.97106 0.44172 0.0
H1829 H 0.34063 0.95878 0.41817 0.0
H1830 H 0.33301 0.99832 0.47395 0.0
H1831 H 0.41338 0.99919 0.57967 0.0
H1832 H 0.43701 0.02052 0.57779 0.0
H1833 H 0.43684 0.99194 0.53301 0.0
H1834 H 0.43872 0.01359 0.453 0.0
H1835 H 0.43897 0.04225 0.49755 0.0
H1836 H 0.41662 0.03576 0.44506 0.0
H1837 H 0.33332 0.03943 0.53036 0.0
H1838 H 0.34142 0.07825 0.59008 0.0
H1839 H 0.41712 0.06361 0.58512 0.0
C1840 C 0.39846 0.97692 0.44784 0.0
C1841 C 0.37919 0.96198 0.42486 0.0
C1842 C 0.35562 0.96997 0.43496 0.0
C1843 C 0.35112 0.99244 0.46659 0.0
C1844 C 0.37038 1.0067 0.48892 0.0
C1845 C 0.3936 0.99923 0.48058 0.0
C1846 C 0.41089 0.01765 0.51199 0.0
C1847 C 0.42539 1.00667 0.55305 0.0
C1848 C 0.42727 0.02792 0.47466 0.0
C1849 C 0.39377 0.03663 0.53885 0.0
C1850 C 0.3705 0.02998 0.52431 0.0
C1851 C 0.35146 0.04472 0.54237 0.0
C1852 C 0.35623 0.06678 0.5763 0.0
C1853 C 0.37984 0.07389 0.59279 0.0
C1854 C 0.39886 0.05852 0.57378 0.0
H1855 H 0.8142 0.65956 0.28167 0.0
H1856 H 0.80018 0.59465 0.16531 0.0
H1857 H 0.76142 0.59001 0.20605 0.0
H1858 H 0.78868 0.6407 0.39208 0.0
H1859 H 0.77598 0.66947 0.41867 0.0
H1860 H 0.80233 0.66786 0.37992 0.0
H1861 H 0.78131 0.69195 0.31584 0.0
H1862 H 0.75493 0.69378 0.3546 0.0
H1863 H 0.75316 0.6814 0.28462 0.0
H1864 H 0.7256 0.59087 0.26457 0.0
H1865 H 0.69359 0.59944 0.32927 0.0
H1866 H 0.72933 0.66566 0.40289 0.0
C1867 C 0.80292 0.64442 0.26453 0.0
C1868 C 0.81028 0.62737 0.22037 0.0
C1869 C 0.79489 0.60796 0.19892 0.0
C1870 C 0.7729 0.60514 0.22199 0.0
C1871 C 0.76635 0.6221 0.26596 0.0
C1872 C 0.78075 0.64159 0.28643 0.0
C1873 C 0.76943 0.65752 0.3333 0.0
C1874 C 0.78504 0.65896 0.38398 0.0
C1875 C 0.76441 0.68265 0.32136 0.0
C1876 C 0.74651 0.64379 0.3366 0.0
C1877 C 0.74519 0.62329 0.2977 0.0
C1878 C 0.72625 0.60712 0.29443 0.0
C1879 C 0.70808 0.6122 0.33126 0.0
C1880 C 0.7086 0.63353 0.37022 0.0
C1881 C 0.72822 0.6494 0.37302 0.0
H1882 H 0.1545 0.07565 0.0354 0.0
H1883 H 0.14533 0.04596 0.86731 0.0
H1884 H 0.14095 1.00562 0.88795 0.0
H1885 H 0.18925 0.02577 0.06747 0.0
H1886 H 0.17618 0.02661 0.13108 0.0
H1887 H 0.17829 0.05369 0.10426 0.0
H1888 H 0.13297 0.05993 0.11336 0.0
H1889 H 0.13065 0.03285 0.14014 0.0
H1890 H 0.11278 0.0363 0.08272 0.0
H1891 H 0.13623 0.96933 0.92433 0.0
H1892 H 0.13457 0.93684 0.97337 0.0
H1893 H 0.1485 0.98725 0.12143 0.0
C1894 C 0.1516 0.06066 1.00297 0.0
C1895 C 0.15024 0.06417 0.94948 0.0
C1896 C 0.14658 0.04394 0.90839 0.0
C1897 C 0.14394 0.02088 0.91977 0.0
C1898 C 0.14521 0.0181 0.97254 0.0
C1899 C 0.14921 0.03725 1.01365 0.0
C1900 C 0.15037 0.02869 0.0667 0.0
C1901 C 0.17499 0.03401 0.09398 0.0
C1902 C 0.13051 0.04013 0.10286 0.0
C1903 C 0.14627 1.00171 0.04867 0.0
C1904 C 0.14319 0.99639 0.99409 0.0
C1905 C 0.13884 0.97321 0.967 0.0
C1906 C 0.13797 0.95474 0.99584 0.0
C1907 C 0.14167 0.95906 0.05194 0.0
C1908 C 0.14566 0.98313 0.07883 0.0
H1909 H 0.7352 0.38842 0.61849 0.0
H1910 H 0.68081 0.38727 0.73406 0.0
H1911 H 0.71161 0.39179 0.80566 0.0
H1912 H 0.77844 0.35422 0.68019 0.0
H1913 H 0.80372 0.37096 0.66471 0.0
H1914 H 0.77741 0.36794 0.62229 0.0
H1915 H 0.77468 0.41421 0.63379 0.0
H1916 H 0.80104 0.41735 0.67608 0.0
H1917 H 0.77398 0.43219 0.69957 0.0
H1918 H 0.74827 0.39776 0.86546 0.0
H1919 H 0.78848 0.40118 0.90783 0.0
H1920 H 0.81932 0.39751 0.75332 0.0
C1921 C 0.72985 0.38927 0.65898 0.0
C1922 C 0.70554 0.38839 0.67111 0.0
C1923 C 0.69918 0.38907 0.72422 0.0
C1924 C 0.71659 0.39141 0.76513 0.0
C1925 C 0.74036 0.39301 0.75228 0.0
C1926 C 0.74708 0.39173 0.70042 0.0
C1927 C 0.77394 0.39332 0.69735 0.0
C1928 C 0.78396 0.37023 0.66417 0.0
C1929 C 0.78134 0.4156 0.67541 0.0
C1930 C 0.78118 0.39579 0.7555 0.0
C1931 C 0.76156 0.39565 0.78656 0.0
C1932 C 0.7638 0.39781 0.84151 0.0
C1933 C 0.78674 0.39984 0.86528 0.0
C1934 C 0.80718 0.39961 0.83415 0.0
C1935 C 0.80417 0.39771 0.7785 0.0
loop_
_geom_bond_atom_site_label_1
_geom_bond_atom_site_label_2
_geom_bond_distance
_geom_bond_site_symmetry_2
_ccdc_geom_bond_type
Ho0 C3 2.811 1_554 S
Ho0 O20 2.322 . S
Ho0 O22 2.378 . S
Ho0 O23 2.524 . S
Ho0 O24 2.381 . S
Ho0 O25 2.669 . S
Ho0 O27 2.346 . S
Ho0 O31 2.305 . S
Ho1 C12 2.811 . S
Ho1 O21 2.346 . S
Ho1 O25 2.305 . S
Ho1 O26 2.322 . S
Ho1 O28 2.378 . S
Ho1 O29 2.524 . S
Ho1 O30 2.381 . S
Ho1 O31 2.669 . S
C2 O20 1.259 . S
C2 O21 1.268 . S
C3 Ho0 2.811 1_556 S
C3 C4 1.488 . S
C3 O22 1.215 1_556 S
C3 O23 1.289 1_556 S
C4 C3 1.488 . S
C4 C5 1.348 . S
C4 C9 1.413 . S
C5 C4 1.348 . S
C5 C6 1.442 . S
C5 H32 0.930 . S
C6 C5 1.442 . S
C6 C7 1.381 . S
C6 H33 0.931 . S
C7 C6 1.381 . S
C7 C8 1.321 . S
C8 C7 1.321 . S
C8 C9 1.403 . S
C8 H34 0.934 . S
C9 C4 1.413 . S
C9 C8 1.403 . S
C9 H35 0.930 . S
C10 O24 1.275 . S
C10 O25 1.256 . S
C11 O26 1.259 . S
C11 O27 1.268 . S
C12 Ho1 2.811 . S
C12 C13 1.488 . S
C12 O28 1.215 . S
C12 O29 1.289 . S
C13 C12 1.488 . S
C13 C14 1.348 . S
C13 C18 1.413 . S
C14 C13 1.348 . S
C14 C15 1.442 . S
C14 H36 0.930 . S
C15 C14 1.442 . S
C15 C16 1.381 . S
C15 H37 0.931 . S
C16 C15 1.381 . S
C16 C17 1.321 . S
C17 C16 1.321 . S
C17 C18 1.403 . S
C17 H38 0.934 . S
C18 C13 1.413 . S
C18 C17 1.403 . S
C18 H39 0.930 . S
C19 O30 1.275 . S
C19 O31 1.256 . S
O20 Ho0 2.322 . S
O20 C2 1.259 . S
O21 Ho1 2.346 . S
O21 C2 1.268 . S
O22 Ho0 2.378 . S
O22 C3 1.215 1_554 S
O23 Ho0 2.524 . S
O23 C3 1.289 1_554 S
O24 Ho0 2.381 . S
O24 C10 1.275 . S
O25 Ho0 2.669 . S
O25 Ho1 2.305 . S
O25 C10 1.256 . S
O26 Ho1 2.322 . S
O26 C11 1.259 . S
O27 Ho0 2.346 . S
O27 C11 1.268 . S
O28 Ho1 2.378 . S
O28 C12 1.215 . S
O29 Ho1 2.524 . S
O29 C12 1.289 . S
O30 Ho1 2.381 . S
O30 C19 1.275 . S
O31 Ho0 2.305 . S
O31 Ho1 2.669 . S
O31 C19 1.256 . S
H32 C5 0.930 . S
H33 C6 0.931 . S
H34 C8 0.934 . S
H35 C9 0.930 . S
H36 C14 0.930 . S
H37 C15 0.931 . S
H38 C17 0.934 . S
H39 C18 0.930 . S
Ho40 C43 2.811 . S
Ho40 O60 2.322 . S
Ho40 O62 2.378 . S
Ho40 O63 2.524 . S
Ho40 O64 2.381 . S
Ho40 O65 2.669 . S
Ho40 O67 2.346 . S
Ho40 O71 2.305 . S
Ho41 C52 2.811 . S
Ho41 O61 2.346 . S
Ho41 O65 2.305 . S
Ho41 O66 2.322 . S
Ho41 O68 2.378 . S
Ho41 O69 2.524 . S
Ho41 O70 2.381 . S
Ho41 O71 2.669 . S
C42 O60 1.259 . S
C42 O61 1.268 . S
C43 Ho40 2.811 . S
C43 C44 1.488 . S
C43 O62 1.215 . S
C43 O63 1.289 . S
C44 C43 1.488 . S
C44 C45 1.348 . S
C44 C49 1.413 . S
C45 C44 1.348 . S
C45 C46 1.442 . S
C45 H72 0.930 . S
C46 C45 1.442 . S
C46 C47 1.381 . S
C46 H73 0.931 . S
C47 C46 1.381 . S
C47 C48 1.321 . S
C48 C47 1.321 . S
C48 C49 1.403 . S
C48 H74 0.934 . S
C49 C44 1.413 . S
C49 C48 1.403 . S
C49 H75 0.930 . S
C50 O64 1.275 . S
C50 O65 1.256 . S
C51 O66 1.259 . S
C51 O67 1.268 . S
C52 Ho41 2.811 . S
C52 C53 1.488 . S
C52 O68 1.215 . S
C52 O69 1.289 . S
C53 C52 1.488 . S
C53 C54 1.348 . S
C53 C58 1.413 . S
C54 C53 1.348 . S
C54 C55 1.442 . S
C54 H76 0.930 . S
C55 C54 1.442 . S
C55 C56 1.381 . S
C55 H77 0.931 . S
C56 C55 1.381 . S
C56 C57 1.321 . S
C57 C56 1.321 . S
C57 C58 1.403 . S
C57 H78 0.934 . S
C58 C53 1.413 . S
C58 C57 1.403 . S
C58 H79 0.930 . S
C59 O70 1.275 . S
C59 O71 1.256 . S
O60 Ho40 2.322 . S
O60 C42 1.259 . S
O61 Ho41 2.346 . S
O61 C42 1.268 . S
O62 Ho40 2.378 . S
O62 C43 1.215 . S
O63 Ho40 2.524 . S
O63 C43 1.289 . S
O64 Ho40 2.381 . S
O64 C50 1.275 . S
O65 Ho40 2.669 . S
O65 Ho41 2.305 . S
O65 C50 1.256 . S
O66 Ho41 2.322 . S
O66 C51 1.259 . S
O67 Ho40 2.346 . S
O67 C51 1.268 . S
O68 Ho41 2.378 . S
O68 C52 1.215 . S
O69 Ho41 2.524 . S
O69 C52 1.289 . S
O70 Ho41 2.381 . S
O70 C59 1.275 . S
O71 Ho40 2.305 . S
O71 Ho41 2.669 . S
O71 C59 1.256 . S
H72 C45 0.930 . S
H73 C46 0.931 . S
H74 C48 0.934 . S
H75 C49 0.930 . S
H76 C54 0.930 . S
H77 C55 0.931 . S
H78 C57 0.934 . S
H79 C58 0.930 . S
Ho80 C83 2.811 . S
Ho80 O100 2.322 . S
Ho80 O102 2.378 . S
Ho80 O103 2.524 . S
Ho80 O104 2.381 . S
Ho80 O105 2.669 . S
Ho80 O107 2.346 . S
Ho80 O111 2.305 . S
Ho81 C92 2.811 . S
Ho81 O101 2.346 . S
Ho81 O105 2.305 . S
Ho81 O106 2.322 . S
Ho81 O108 2.378 . S
Ho81 O109 2.524 . S
Ho81 O110 2.381 . S
Ho81 O111 2.669 . S
C82 O100 1.259 . S
C82 O101 1.268 . S
C83 Ho80 2.811 . S
C83 C84 1.488 . S
C83 O102 1.215 . S
C83 O103 1.289 . S
C84 C83 1.488 . S
C84 C85 1.348 . S
C84 C89 1.413 . S
C85 C84 1.348 . S
C85 C86 1.442 . S
C85 H112 0.930 . S
C86 C85 1.442 . S
C86 C87 1.381 . S
C86 H113 0.931 . S
C87 C86 1.381 . S
C87 C88 1.321 . S
C88 C87 1.321 . S
C88 C89 1.403 . S
C88 H114 0.934 . S
C89 C84 1.413 . S
C89 C88 1.403 . S
C89 H115 0.930 . S
C90 O104 1.275 . S
C90 O105 1.256 . S
C91 O106 1.259 . S
C91 O107 1.268 . S
C92 Ho81 2.811 . S
C92 C93 1.488 . S
C92 O108 1.215 . S
C92 O109 1.289 . S
C93 C92 1.488 . S
C93 C94 1.348 . S
C93 C98 1.413 . S
C94 C93 1.348 . S
C94 C95 1.442 . S
C94 H116 0.930 . S
C95 C94 1.442 . S
C95 C96 1.381 . S
C95 H117 0.931 . S
C96 C95 1.381 . S
C96 C97 1.321 . S
C97 C96 1.321 . S
C97 C98 1.403 . S
C97 H118 0.934 . S
C98 C93 1.413 . S
C98 C97 1.403 . S
C98 H119 0.930 . S
C99 O110 1.275 . S
C99 O111 1.256 . S
O100 Ho80 2.322 . S
O100 C82 1.259 . S
O101 Ho81 2.346 . S
O101 C82 1.268 . S
O102 Ho80 2.378 . S
O102 C83 1.215 . S
O103 Ho80 2.524 . S
O103 C83 1.289 . S
O104 Ho80 2.381 . S
O104 C90 1.275 . S
O105 Ho80 2.669 . S
O105 Ho81 2.305 . S
O105 C90 1.256 . S
O106 Ho81 2.322 . S
O106 C91 1.259 . S
O107 Ho80 2.346 . S
O107 C91 1.268 . S
O108 Ho81 2.378 . S
O108 C92 1.215 . S
O109 Ho81 2.524 . S
O109 C92 1.289 . S
O110 Ho81 2.381 . S
O110 C99 1.275 . S
O111 Ho80 2.305 . S
O111 Ho81 2.669 . S
O111 C99 1.256 . S
H112 C85 0.930 . S
H113 C86 0.931 . S
H114 C88 0.934 . S
H115 C89 0.930 . S
H116 C94 0.930 . S
H117 C95 0.931 . S
H118 C97 0.934 . S
H119 C98 0.930 . S
Ho120 C123 2.811 . S
Ho120 O140 2.322 . S
Ho120 O142 2.378 . S
Ho120 O143 2.524 . S
Ho120 O144 2.381 . S
Ho120 O145 2.669 . S
Ho120 O147 2.346 . S
Ho120 O151 2.305 . S
Ho121 C132 2.811 1_556 S
Ho121 O141 2.346 . S
Ho121 O145 2.305 . S
Ho121 O146 2.322 . S
Ho121 O148 2.378 1_556 S
Ho121 O149 2.524 1_556 S
Ho121 O150 2.381 . S
Ho121 O151 2.669 . S
C122 O140 1.259 . S
C122 O141 1.268 . S
C123 Ho120 2.811 . S
C123 C124 1.488 . S
C123 O142 1.215 . S
C123 O143 1.289 . S
C124 C123 1.488 . S
C124 C125 1.348 . S
C124 C129 1.413 . S
C125 C124 1.348 . S
C125 C126 1.442 . S
C125 H152 0.930 . S
C126 C125 1.442 . S
C126 C127 1.381 . S
C126 H153 0.931 . S
C127 C126 1.381 . S
C127 C128 1.321 . S
C128 C127 1.321 . S
C128 C129 1.403 . S
C128 H154 0.934 . S
C129 C124 1.413 . S
C129 C128 1.403 . S
C129 H155 0.930 . S
C130 O144 1.275 . S
C130 O145 1.256 . S
C131 O146 1.259 . S
C131 O147 1.268 . S
C132 Ho121 2.811 1_554 S
C132 C133 1.488 . S
C132 O148 1.215 . S
C132 O149 1.289 . S
C133 C132 1.488 . S
C133 C134 1.348 . S
C133 C138 1.413 . S
C134 C133 1.348 . S
C134 C135 1.442 . S
C134 H156 0.930 . S
C135 C134 1.442 . S
C135 C136 1.381 . S
C135 H157 0.931 . S
C136 C135 1.381 . S
C136 C137 1.321 . S
C137 C136 1.321 . S
C137 C138 1.403 . S
C137 H158 0.934 . S
C138 C133 1.413 . S
C138 C137 1.403 . S
C138 H159 0.930 . S
C139 O150 1.275 . S
C139 O151 1.256 . S
O140 Ho120 2.322 . S
O140 C122 1.259 . S
O141 Ho121 2.346 . S
O141 C122 1.268 . S
O142 Ho120 2.378 . S
O142 C123 1.215 . S
O143 Ho120 2.524 . S
O143 C123 1.289 . S
O144 Ho120 2.381 . S
O144 C130 1.275 . S
O145 Ho120 2.669 . S
O145 Ho121 2.305 . S
O145 C130 1.256 . S
O146 Ho121 2.322 . S
O146 C131 1.259 . S
O147 Ho120 2.346 . S
O147 C131 1.268 . S
O148 Ho121 2.378 1_554 S
O148 C132 1.215 . S
O149 Ho121 2.524 1_554 S
O149 C132 1.289 . S
O150 Ho121 2.381 . S
O150 C139 1.275 . S
O151 Ho120 2.305 . S
O151 Ho121 2.669 . S
O151 C139 1.256 . S
H152 C125 0.930 . S
H153 C126 0.931 . S
H154 C128 0.934 . S
H155 C129 0.930 . S
H156 C134 0.930 . S
H157 C135 0.931 . S
H158 C137 0.934 . S
H159 C138 0.930 . S
Ho160 C163 2.811 1_556 S
Ho160 O180 2.322 . S
Ho160 O182 2.378 1_556 S
Ho160 O183 2.524 1_556 S
Ho160 O184 2.381 . S
Ho160 O185 2.669 . S
Ho160 O187 2.346 . S
Ho160 O191 2.305 . S
Ho161 C172 2.811 . S
Ho161 O181 2.346 . S
Ho161 O185 2.305 . S
Ho161 O186 2.322 . S
Ho161 O188 2.378 . S
Ho161 O189 2.524 . S
Ho161 O190 2.381 . S
Ho161 O191 2.669 . S
C162 O180 1.259 . S
C162 O181 1.268 . S
C163 Ho160 2.811 1_554 S
C163 C164 1.488 . S
C163 O182 1.215 . S
C163 O183 1.289 . S
C164 C163 1.488 . S
C164 C165 1.348 . S
C164 C169 1.413 . S
C165 C164 1.348 . S
C165 C166 1.442 . S
C165 H192 0.930 . S
C166 C165 1.442 . S
C166 C167 1.381 . S
C166 H193 0.931 . S
C167 C166 1.381 . S
C167 C168 1.321 . S
C168 C167 1.321 . S
C168 C169 1.403 . S
C168 H194 0.934 . S
C169 C164 1.413 . S
C169 C168 1.403 . S
C169 H195 0.930 . S
C170 O184 1.275 . S
C170 O185 1.256 . S
C171 O186 1.259 . S
C171 O187 1.268 . S
C172 Ho161 2.811 . S
C172 C173 1.488 . S
C172 O188 1.215 . S
C172 O189 1.289 . S
C173 C172 1.488 . S
C173 C174 1.348 . S
C173 C178 1.413 . S
C174 C173 1.348 . S
C174 C175 1.442 . S
C174 H196 0.930 . S
C175 C174 1.442 . S
C175 C176 1.381 . S
C175 H197 0.931 . S
C176 C175 1.381 . S
C176 C177 1.321 . S
C177 C176 1.321 . S
C177 C178 1.403 . S
C177 H198 0.934 . S
C178 C173 1.413 . S
C178 C177 1.403 . S
C178 H199 0.930 . S
C179 O190 1.275 . S
C179 O191 1.256 . S
O180 Ho160 2.322 . S
O180 C162 1.259 . S
O181 Ho161 2.346 . S
O181 C162 1.268 . S
O182 Ho160 2.378 1_554 S
O182 C163 1.215 . S
O183 Ho160 2.524 1_554 S
O183 C163 1.289 . S
O184 Ho160 2.381 . S
O184 C170 1.275 . S
O185 Ho160 2.669 . S
O185 Ho161 2.305 . S
O185 C170 1.256 . S
O186 Ho161 2.322 . S
O186 C171 1.259 . S
O187 Ho160 2.346 . S
O187 C171 1.268 . S
O188 Ho161 2.378 . S
O188 C172 1.215 . S
O189 Ho161 2.524 . S
O189 C172 1.289 . S
O190 Ho161 2.381 . S
O190 C179 1.275 . S
O191 Ho160 2.305 . S
O191 Ho161 2.669 . S
O191 C179 1.256 . S
H192 C165 0.930 . S
H193 C166 0.931 . S
H194 C168 0.934 . S
H195 C169 0.930 . S
H196 C174 0.930 . S
H197 C175 0.931 . S
H198 C177 0.934 . S
H199 C178 0.930 . S
Ho200 C203 2.811 . S
Ho200 O220 2.322 . S
Ho200 O222 2.378 . S
Ho200 O223 2.524 . S
Ho200 O224 2.381 . S
Ho200 O225 2.669 . S
Ho200 O227 2.346 . S
Ho200 O231 2.305 . S
Ho201 C212 2.811 1_554 S
Ho201 O221 2.346 . S
Ho201 O225 2.305 . S
Ho201 O226 2.322 . S
Ho201 O228 2.378 1_554 S
Ho201 O229 2.524 1_554 S
Ho201 O230 2.381 . S
Ho201 O231 2.669 . S
C202 O220 1.259 . S
C202 O221 1.268 . S
C203 Ho200 2.811 . S
C203 C204 1.488 . S
C203 O222 1.215 . S
C203 O223 1.289 . S
C204 C203 1.488 . S
C204 C205 1.348 . S
C204 C209 1.413 . S
C205 C204 1.348 . S
C205 C206 1.442 . S
C205 H232 0.930 . S
C206 C205 1.442 . S
C206 C207 1.381 . S
C206 H233 0.931 . S
C207 C206 1.381 . S
C207 C208 1.321 . S
C208 C207 1.321 . S
C208 C209 1.403 . S
C208 H234 0.934 . S
C209 C204 1.413 . S
C209 C208 1.403 . S
C209 H235 0.930 . S
C210 O224 1.275 . S
C210 O225 1.256 . S
C211 O226 1.259 . S
C211 O227 1.268 . S
C212 Ho201 2.811 1_556 S
C212 C213 1.488 . S
C212 O228 1.215 . S
C212 O229 1.289 . S
C213 C212 1.488 . S
C213 C214 1.348 . S
C213 C218 1.413 . S
C214 C213 1.348 . S
C214 C215 1.442 . S
C214 H236 0.930 . S
C215 C214 1.442 . S
C215 C216 1.381 . S
C215 H237 0.931 . S
C216 C215 1.381 . S
C216 C217 1.321 . S
C217 C216 1.321 . S
C217 C218 1.403 . S
C217 H238 0.934 . S
C218 C213 1.413 . S
C218 C217 1.403 . S
C218 H239 0.930 . S
C219 O230 1.275 . S
C219 O231 1.256 . S
O220 Ho200 2.322 . S
O220 C202 1.259 . S
O221 Ho201 2.346 . S
O221 C202 1.268 . S
O222 Ho200 2.378 . S
O222 C203 1.215 . S
O223 Ho200 2.524 . S
O223 C203 1.289 . S
O224 Ho200 2.381 . S
O224 C210 1.275 . S
O225 Ho200 2.669 . S
O225 Ho201 2.305 . S
O225 C210 1.256 . S
O226 Ho201 2.322 . S
O226 C211 1.259 . S
O227 Ho200 2.346 . S
O227 C211 1.268 . S
O228 Ho201 2.378 1_556 S
O228 C212 1.215 . S
O229 Ho201 2.524 1_556 S
O229 C212 1.289 . S
O230 Ho201 2.381 . S
O230 C219 1.275 . S
O231 Ho200 2.305 . S
O231 Ho201 2.669 . S
O231 C219 1.256 . S
H232 C205 0.930 . S
H233 C206 0.931 . S
H234 C208 0.934 . S
H235 C209 0.930 . S
H236 C214 0.930 . S
H237 C215 0.931 . S
H238 C217 0.934 . S
H239 C218 0.930 . S
Ho240 C243 2.811 . S
Ho240 O260 2.322 . S
Ho240 O262 2.378 . S
Ho240 O263 2.524 . S
Ho240 O264 2.381 . S
Ho240 O265 2.669 . S
Ho240 O267 2.346 . S
Ho240 O271 2.305 . S
Ho241 C252 2.811 . S
Ho241 O261 2.346 . S
Ho241 O265 2.305 . S
Ho241 O266 2.322 . S
Ho241 O268 2.378 . S
Ho241 O269 2.524 . S
Ho241 O270 2.381 . S
Ho241 O271 2.669 . S
C242 O260 1.259 . S
C242 O261 1.268 . S
C243 Ho240 2.811 . S
C243 C244 1.488 . S
C243 O262 1.215 . S
C243 O263 1.289 . S
C244 C243 1.488 . S
C244 C245 1.348 . S
C244 C249 1.413 . S
C245 C244 1.348 . S
C245 C246 1.442 . S
C245 H272 0.930 . S
C246 C245 1.442 . S
C246 C247 1.381 . S
C246 H273 0.931 . S
C247 C246 1.381 . S
C247 C248 1.321 . S
C248 C247 1.321 . S
C248 C249 1.403 . S
C248 H274 0.934 . S
C249 C244 1.413 . S
C249 C248 1.403 . S
C249 H275 0.930 . S
C250 O264 1.275 . S
C250 O265 1.256 . S
C251 O266 1.259 . S
C251 O267 1.268 . S
C252 Ho241 2.811 . S
C252 C253 1.488 . S
C252 O268 1.215 . S
C252 O269 1.289 . S
C253 C252 1.488 . S
C253 C254 1.348 . S
C253 C258 1.413 . S
C254 C253 1.348 . S
C254 C255 1.442 . S
C254 H276 0.930 . S
C255 C254 1.442 . S
C255 C256 1.381 . S
C255 H277 0.931 . S
C256 C255 1.381 . S
C256 C257 1.321 . S
C257 C256 1.321 . S
C257 C258 1.403 . S
C257 H278 0.934 . S
C258 C253 1.413 . S
C258 C257 1.403 . S
C258 H279 0.930 . S
C259 O270 1.275 . S
C259 O271 1.256 . S
O260 Ho240 2.322 . S
O260 C242 1.259 . S
O261 Ho241 2.346 . S
O261 C242 1.268 . S
O262 Ho240 2.378 . S
O262 C243 1.215 . S
O263 Ho240 2.524 . S
O263 C243 1.289 . S
O264 Ho240 2.381 . S
O264 C250 1.275 . S
O265 Ho240 2.669 . S
O265 Ho241 2.305 . S
O265 C250 1.256 . S
O266 Ho241 2.322 . S
O266 C251 1.259 . S
O267 Ho240 2.346 . S
O267 C251 1.268 . S
O268 Ho241 2.378 . S
O268 C252 1.215 . S
O269 Ho241 2.524 . S
O269 C252 1.289 . S
O270 Ho241 2.381 . S
O270 C259 1.275 . S
O271 Ho240 2.305 . S
O271 Ho241 2.669 . S
O271 C259 1.256 . S
H272 C245 0.930 . S
H273 C246 0.931 . S
H274 C248 0.934 . S
H275 C249 0.930 . S
H276 C254 0.930 . S
H277 C255 0.931 . S
H278 C257 0.934 . S
H279 C258 0.930 . S
Ho280 C283 2.811 . S
Ho280 O300 2.322 . S
Ho280 O302 2.378 . S
Ho280 O303 2.524 . S
Ho280 O304 2.381 . S
Ho280 O305 2.669 . S
Ho280 O307 2.346 . S
Ho280 O311 2.305 . S
Ho281 C292 2.811 . S
Ho281 O301 2.346 . S
Ho281 O305 2.305 . S
Ho281 O306 2.322 . S
Ho281 O308 2.378 . S
Ho281 O309 2.524 . S
Ho281 O310 2.381 . S
Ho281 O311 2.669 . S
C282 O300 1.259 . S
C282 O301 1.268 . S
C283 Ho280 2.811 . S
C283 C284 1.488 . S
C283 O302 1.215 . S
C283 O303 1.289 . S
C284 C283 1.488 . S
C284 C285 1.348 . S
C284 C289 1.413 . S
C285 C284 1.348 . S
C285 C286 1.442 . S
C285 H312 0.930 . S
C286 C285 1.442 . S
C286 C287 1.381 . S
C286 H313 0.931 . S
C287 C286 1.381 . S
C287 C288 1.321 . S
C288 C287 1.321 . S
C288 C289 1.403 . S
C288 H314 0.934 . S
C289 C284 1.413 . S
C289 C288 1.403 . S
C289 H315 0.930 . S
C290 O304 1.275 . S
C290 O305 1.256 . S
C291 O306 1.259 . S
C291 O307 1.268 . S
C292 Ho281 2.811 . S
C292 C293 1.488 . S
C292 O308 1.215 . S
C292 O309 1.289 . S
C293 C292 1.488 . S
C293 C294 1.348 . S
C293 C298 1.413 . S
C294 C293 1.348 . S
C294 C295 1.442 . S
C294 H316 0.930 . S
C295 C294 1.442 . S
C295 C296 1.381 . S
C295 H317 0.931 . S
C296 C295 1.381 . S
C296 C297 1.321 . S
C297 C296 1.321 . S
C297 C298 1.403 . S
C297 H318 0.934 . S
C298 C293 1.413 . S
C298 C297 1.403 . S
C298 H319 0.930 . S
C299 O310 1.275 . S
C299 O311 1.256 . S
O300 Ho280 2.322 . S
O300 C282 1.259 . S
O301 Ho281 2.346 . S
O301 C282 1.268 . S
O302 Ho280 2.378 . S
O302 C283 1.215 . S
O303 Ho280 2.524 . S
O303 C283 1.289 . S
O304 Ho280 2.381 . S
O304 C290 1.275 . S
O305 Ho280 2.669 . S
O305 Ho281 2.305 . S
O305 C290 1.256 . S
O306 Ho281 2.322 . S
O306 C291 1.259 . S
O307 Ho280 2.346 . S
O307 C291 1.268 . S
O308 Ho281 2.378 . S
O308 C292 1.215 . S
O309 Ho281 2.524 . S
O309 C292 1.289 . S
O310 Ho281 2.381 . S
O310 C299 1.275 . S
O311 Ho280 2.305 . S
O311 Ho281 2.669 . S
O311 C299 1.256 . S
H312 C285 0.930 . S
H313 C286 0.931 . S
H314 C288 0.934 . S
H315 C289 0.930 . S
H316 C294 0.930 . S
H317 C295 0.931 . S
H318 C297 0.934 . S
H319 C298 0.930 . S
Ho320 C323 2.811 . S
Ho320 O340 2.322 . S
Ho320 O342 2.378 . S
Ho320 O343 2.524 . S
Ho320 O344 2.381 . S
Ho320 O345 2.669 . S
Ho320 O347 2.346 . S
Ho320 O351 2.305 . S
Ho321 C332 2.811 1_556 S
Ho321 O341 2.346 . S
Ho321 O345 2.305 . S
Ho321 O346 2.322 . S
Ho321 O348 2.378 1_556 S
Ho321 O349 2.524 1_556 S
Ho321 O350 2.381 . S
Ho321 O351 2.669 . S
C322 O340 1.259 . S
C322 O341 1.268 . S
C323 Ho320 2.811 . S
C323 C324 1.488 . S
C323 O342 1.215 . S
C323 O343 1.289 . S
C324 C323 1.488 . S
C324 C325 1.348 . S
C324 C329 1.413 . S
C325 C324 1.348 . S
C325 C326 1.442 . S
C325 H352 0.930 . S
C326 C325 1.442 . S
C326 C327 1.381 . S
C326 H353 0.931 . S
C327 C326 1.381 . S
C327 C328 1.321 . S
C328 C327 1.321 . S
C328 C329 1.403 . S
C328 H354 0.934 . S
C329 C324 1.413 . S
C329 C328 1.403 . S
C329 H355 0.930 . S
C330 O344 1.275 . S
C330 O345 1.256 . S
C331 O346 1.259 . S
C331 O347 1.268 . S
C332 Ho321 2.811 1_554 S
C332 C333 1.488 . S
C332 O348 1.215 . S
C332 O349 1.289 . S
C333 C332 1.488 . S
C333 C334 1.348 . S
C333 C338 1.413 . S
C334 C333 1.348 . S
C334 C335 1.442 . S
C334 H356 0.930 . S
C335 C334 1.442 . S
C335 C336 1.381 . S
C335 H357 0.931 . S
C336 C335 1.381 . S
C336 C337 1.321 . S
C337 C336 1.321 . S
C337 C338 1.403 . S
C337 H358 0.934 . S
C338 C333 1.413 . S
C338 C337 1.403 . S
C338 H359 0.930 . S
C339 O350 1.275 . S
C339 O351 1.256 . S
O340 Ho320 2.322 . S
O340 C322 1.259 . S
O341 Ho321 2.346 . S
O341 C322 1.268 . S
O342 Ho320 2.378 . S
O342 C323 1.215 . S
O343 Ho320 2.524 . S
O343 C323 1.289 . S
O344 Ho320 2.381 . S
O344 C330 1.275 . S
O345 Ho320 2.669 . S
O345 Ho321 2.305 . S
O345 C330 1.256 . S
O346 Ho321 2.322 . S
O346 C331 1.259 . S
O347 Ho320 2.346 . S
O347 C331 1.268 . S
O348 Ho321 2.378 1_554 S
O348 C332 1.215 . S
O349 Ho321 2.524 1_554 S
O349 C332 1.289 . S
O350 Ho321 2.381 . S
O350 C339 1.275 . S
O351 Ho320 2.305 . S
O351 Ho321 2.669 . S
O351 C339 1.256 . S
H352 C325 0.930 . S
H353 C326 0.931 . S
H354 C328 0.934 . S
H355 C329 0.930 . S
H356 C334 0.930 . S
H357 C335 0.931 . S
H358 C337 0.934 . S
H359 C338 0.930 . S
Ho360 C363 2.811 . S
Ho360 O380 2.322 . S
Ho360 O382 2.378 . S
Ho360 O383 2.524 . S
Ho360 O384 2.381 . S
Ho360 O385 2.669 . S
Ho360 O387 2.346 . S
Ho360 O391 2.305 . S
Ho361 C372 2.811 . S
Ho361 O381 2.346 . S
Ho361 O385 2.305 . S
Ho361 O386 2.322 . S
Ho361 O388 2.378 . S
Ho361 O389 2.524 . S
Ho361 O390 2.381 . S
Ho361 O391 2.669 . S
C362 O380 1.259 . S
C362 O381 1.268 . S
C363 Ho360 2.811 . S
C363 C364 1.488 . S
C363 O382 1.215 . S
C363 O383 1.289 . S
C364 C363 1.488 . S
C364 C365 1.348 . S
C364 C369 1.413 . S
C365 C364 1.348 . S
C365 C366 1.442 . S
C365 H392 0.930 . S
C366 C365 1.442 . S
C366 C367 1.381 . S
C366 H393 0.931 . S
C367 C366 1.381 . S
C367 C368 1.321 . S
C368 C367 1.321 . S
C368 C369 1.403 . S
C368 H394 0.934 . S
C369 C364 1.413 . S
C369 C368 1.403 . S
C369 H395 0.930 . S
C370 O384 1.275 . S
C370 O385 1.256 . S
C371 O386 1.259 . S
C371 O387 1.268 . S
C372 Ho361 2.811 . S
C372 C373 1.488 . S
C372 O388 1.215 . S
C372 O389 1.289 . S
C373 C372 1.488 . S
C373 C374 1.348 . S
C373 C378 1.413 . S
C374 C373 1.348 . S
C374 C375 1.442 . S
C374 H396 0.930 . S
C375 C374 1.442 . S
C375 C376 1.381 . S
C375 H397 0.931 . S
C376 C375 1.381 . S
C376 C377 1.321 . S
C377 C376 1.321 . S
C377 C378 1.403 . S
C377 H398 0.934 . S
C378 C373 1.413 . S
C378 C377 1.403 . S
C378 H399 0.930 . S
C379 O390 1.275 . S
C379 O391 1.256 . S
O380 Ho360 2.322 . S
O380 C362 1.259 . S
O381 Ho361 2.346 . S
O381 C362 1.268 . S
O382 Ho360 2.378 . S
O382 C363 1.215 . S
O383 Ho360 2.524 . S
O383 C363 1.289 . S
O384 Ho360 2.381 . S
O384 C370 1.275 . S
O385 Ho360 2.669 . S
O385 Ho361 2.305 . S
O385 C370 1.256 . S
O386 Ho361 2.322 . S
O386 C371 1.259 . S
O387 Ho360 2.346 . S
O387 C371 1.268 . S
O388 Ho361 2.378 . S
O388 C372 1.215 . S
O389 Ho361 2.524 . S
O389 C372 1.289 . S
O390 Ho361 2.381 . S
O390 C379 1.275 . S
O391 Ho360 2.305 . S
O391 Ho361 2.669 . S
O391 C379 1.256 . S
H392 C365 0.930 . S
H393 C366 0.931 . S
H394 C368 0.934 . S
H395 C369 0.930 . S
H396 C374 0.930 . S
H397 C375 0.931 . S
H398 C377 0.934 . S
H399 C378 0.930 . S
Ho400 C403 2.811 . S
Ho400 O420 2.322 . S
Ho400 O422 2.378 . S
Ho400 O423 2.524 . S
Ho400 O424 2.381 . S
Ho400 O425 2.669 . S
Ho400 O427 2.346 . S
Ho400 O431 2.305 . S
Ho401 C412 2.811 . S
Ho401 O421 2.346 . S
Ho401 O425 2.305 . S
Ho401 O426 2.322 . S
Ho401 O428 2.378 . S
Ho401 O429 2.524 . S
Ho401 O430 2.381 . S
Ho401 O431 2.669 . S
C402 O420 1.259 . S
C402 O421 1.268 . S
C403 Ho400 2.811 . S
C403 C404 1.488 . S
C403 O422 1.215 . S
C403 O423 1.289 . S
C404 C403 1.488 . S
C404 C405 1.348 . S
C404 C409 1.413 . S
C405 C404 1.348 . S
C405 C406 1.442 . S
C405 H432 0.930 . S
C406 C405 1.442 . S
C406 C407 1.381 . S
C406 H433 0.931 . S
C407 C406 1.381 . S
C407 C408 1.321 . S
C408 C407 1.321 . S
C408 C409 1.403 . S
C408 H434 0.934 . S
C409 C404 1.413 . S
C409 C408 1.403 . S
C409 H435 0.930 . S
C410 O424 1.275 . S
C410 O425 1.256 . S
C411 O426 1.259 . S
C411 O427 1.268 . S
C412 Ho401 2.811 . S
C412 C413 1.488 . S
C412 O428 1.215 . S
C412 O429 1.289 . S
C413 C412 1.488 . S
C413 C414 1.348 . S
C413 C418 1.413 . S
C414 C413 1.348 . S
C414 C415 1.442 . S
C414 H436 0.930 . S
C415 C414 1.442 . S
C415 C416 1.381 . S
C415 H437 0.931 . S
C416 C415 1.381 . S
C416 C417 1.321 . S
C417 C416 1.321 . S
C417 C418 1.403 . S
C417 H438 0.934 . S
C418 C413 1.413 . S
C418 C417 1.403 . S
C418 H439 0.930 . S
C419 O430 1.275 . S
C419 O431 1.256 . S
O420 Ho400 2.322 . S
O420 C402 1.259 . S
O421 Ho401 2.346 . S
O421 C402 1.268 . S
O422 Ho400 2.378 . S
O422 C403 1.215 . S
O423 Ho400 2.524 . S
O423 C403 1.289 . S
O424 Ho400 2.381 . S
O424 C410 1.275 . S
O425 Ho400 2.669 . S
O425 Ho401 2.305 . S
O425 C410 1.256 . S
O426 Ho401 2.322 . S
O426 C411 1.259 . S
O427 Ho400 2.346 . S
O427 C411 1.268 . S
O428 Ho401 2.378 . S
O428 C412 1.215 . S
O429 Ho401 2.524 . S
O429 C412 1.289 . S
O430 Ho401 2.381 . S
O430 C419 1.275 . S
O431 Ho400 2.305 . S
O431 Ho401 2.669 . S
O431 C419 1.256 . S
H432 C405 0.930 . S
H433 C406 0.931 . S
H434 C408 0.934 . S
H435 C409 0.930 . S
H436 C414 0.930 . S
H437 C415 0.931 . S
H438 C417 0.934 . S
H439 C418 0.930 . S
Ho440 C443 2.811 1_554 S
Ho440 O460 2.322 . S
Ho440 O462 2.378 1_554 S
Ho440 O463 2.524 1_554 S
Ho440 O464 2.381 . S
Ho440 O465 2.669 . S
Ho440 O467 2.346 . S
Ho440 O471 2.305 . S
Ho441 C452 2.811 . S
Ho441 O461 2.346 . S
Ho441 O465 2.305 . S
Ho441 O466 2.322 . S
Ho441 O468 2.378 . S
Ho441 O469 2.524 . S
Ho441 O470 2.381 . S
Ho441 O471 2.669 . S
C442 O460 1.259 . S
C442 O461 1.268 . S
C443 Ho440 2.811 1_556 S
C443 C444 1.488 . S
C443 O462 1.215 . S
C443 O463 1.289 . S
C444 C443 1.488 . S
C444 C445 1.348 . S
C444 C449 1.413 . S
C445 C444 1.348 . S
C445 C446 1.442 . S
C445 H472 0.930 . S
C446 C445 1.442 . S
C446 C447 1.381 . S
C446 H473 0.931 . S
C447 C446 1.381 . S
C447 C448 1.321 . S
C448 C447 1.321 . S
C448 C449 1.403 . S
C448 H474 0.934 . S
C449 C444 1.413 . S
C449 C448 1.403 . S
C449 H475 0.930 . S
C450 O464 1.275 . S
C450 O465 1.256 . S
C451 O466 1.259 . S
C451 O467 1.268 . S
C452 Ho441 2.811 . S
C452 C453 1.488 . S
C452 O468 1.215 . S
C452 O469 1.289 . S
C453 C452 1.488 . S
C453 C454 1.348 . S
C453 C458 1.413 . S
C454 C453 1.348 . S
C454 C455 1.442 . S
C454 H476 0.930 . S
C455 C454 1.442 . S
C455 C456 1.381 . S
C455 H477 0.931 . S
C456 C455 1.381 . S
C456 C457 1.321 . S
C457 C456 1.321 . S
C457 C458 1.403 . S
C457 H478 0.934 . S
C458 C453 1.413 . S
C458 C457 1.403 . S
C458 H479 0.930 . S
C459 O470 1.275 . S
C459 O471 1.256 . S
O460 Ho440 2.322 . S
O460 C442 1.259 . S
O461 Ho441 2.346 . S
O461 C442 1.268 . S
O462 Ho440 2.378 1_556 S
O462 C443 1.215 . S
O463 Ho440 2.524 1_556 S
O463 C443 1.289 . S
O464 Ho440 2.381 . S
O464 C450 1.275 . S
O465 Ho440 2.669 . S
O465 Ho441 2.305 . S
O465 C450 1.256 . S
O466 Ho441 2.322 . S
O466 C451 1.259 . S
O467 Ho440 2.346 . S
O467 C451 1.268 . S
O468 Ho441 2.378 . S
O468 C452 1.215 . S
O469 Ho441 2.524 . S
O469 C452 1.289 . S
O470 Ho441 2.381 . S
O470 C459 1.275 . S
O471 Ho440 2.305 . S
O471 Ho441 2.669 . S
O471 C459 1.256 . S
H472 C445 0.930 . S
H473 C446 0.931 . S
H474 C448 0.934 . S
H475 C449 0.930 . S
H476 C454 0.930 . S
H477 C455 0.931 . S
H478 C457 0.934 . S
H479 C458 0.930 . S
Ho480 C483 2.811 . S
Ho480 O500 2.322 . S
Ho480 O502 2.378 . S
Ho480 O503 2.524 . S
Ho480 O504 2.381 . S
Ho480 O505 2.669 . S
Ho480 O507 2.346 . S
Ho480 O511 2.305 . S
Ho481 C492 2.811 1_554 S
Ho481 O501 2.346 . S
Ho481 O505 2.305 . S
Ho481 O506 2.322 . S
Ho481 O508 2.378 1_554 S
Ho481 O509 2.524 1_554 S
Ho481 O510 2.381 . S
Ho481 O511 2.669 . S
C482 O500 1.259 . S
C482 O501 1.268 . S
C483 Ho480 2.811 . S
C483 C484 1.488 . S
C483 O502 1.215 . S
C483 O503 1.289 . S
C484 C483 1.488 . S
C484 C485 1.348 . S
C484 C489 1.413 . S
C485 C484 1.348 . S
C485 C486 1.442 . S
C485 H512 0.930 . S
C486 C485 1.442 . S
C486 C487 1.381 . S
C486 H513 0.931 . S
C487 C486 1.381 . S
C487 C488 1.321 . S
C488 C487 1.321 . S
C488 C489 1.403 . S
C488 H514 0.934 . S
C489 C484 1.413 . S
C489 C488 1.403 . S
C489 H515 0.930 . S
C490 O504 1.275 . S
C490 O505 1.256 . S
C491 O506 1.259 . S
C491 O507 1.268 . S
C492 Ho481 2.811 1_556 S
C492 C493 1.488 . S
C492 O508 1.215 . S
C492 O509 1.289 . S
C493 C492 1.488 . S
C493 C494 1.348 . S
C493 C498 1.413 . S
C494 C493 1.348 . S
C494 C495 1.442 . S
C494 H516 0.930 . S
C495 C494 1.442 . S
C495 C496 1.381 . S
C495 H517 0.931 . S
C496 C495 1.381 . S
C496 C497 1.321 . S
C497 C496 1.321 . S
C497 C498 1.403 . S
C497 H518 0.934 . S
C498 C493 1.413 . S
C498 C497 1.403 . S
C498 H519 0.930 . S
C499 O510 1.275 . S
C499 O511 1.256 . S
O500 Ho480 2.322 . S
O500 C482 1.259 . S
O501 Ho481 2.346 . S
O501 C482 1.268 . S
O502 Ho480 2.378 . S
O502 C483 1.215 . S
O503 Ho480 2.524 . S
O503 C483 1.289 . S
O504 Ho480 2.381 . S
O504 C490 1.275 . S
O505 Ho480 2.669 . S
O505 Ho481 2.305 . S
O505 C490 1.256 . S
O506 Ho481 2.322 . S
O506 C491 1.259 . S
O507 Ho480 2.346 . S
O507 C491 1.268 . S
O508 Ho481 2.378 1_556 S
O508 C492 1.215 . S
O509 Ho481 2.524 1_556 S
O509 C492 1.289 . S
O510 Ho481 2.381 . S
O510 C499 1.275 . S
O511 Ho480 2.305 . S
O511 Ho481 2.669 . S
O511 C499 1.256 . S
H512 C485 0.930 . S
H513 C486 0.931 . S
H514 C488 0.934 . S
H515 C489 0.930 . S
H516 C494 0.930 . S
H517 C495 0.931 . S
H518 C497 0.934 . S
H519 C498 0.930 . S
Ho520 C523 2.811 1_556 S
Ho520 O540 2.322 . S
Ho520 O542 2.378 1_556 S
Ho520 O543 2.524 1_556 S
Ho520 O544 2.381 . S
Ho520 O545 2.669 . S
Ho520 O547 2.346 . S
Ho520 O551 2.305 . S
Ho521 C532 2.811 . S
Ho521 O541 2.346 . S
Ho521 O545 2.305 . S
Ho521 O546 2.322 . S
Ho521 O548 2.378 . S
Ho521 O549 2.524 . S
Ho521 O550 2.381 . S
Ho521 O551 2.669 . S
C522 O540 1.259 . S
C522 O541 1.268 . S
C523 Ho520 2.811 1_554 S
C523 C524 1.488 . S
C523 O542 1.215 . S
C523 O543 1.289 . S
C524 C523 1.488 . S
C524 C525 1.348 . S
C524 C529 1.413 . S
C525 C524 1.348 . S
C525 C526 1.442 . S
C525 H552 0.930 . S
C526 C525 1.442 . S
C526 C527 1.381 . S
C526 H553 0.931 . S
C527 C526 1.381 . S
C527 C528 1.321 . S
C528 C527 1.321 . S
C528 C529 1.403 . S
C528 H554 0.934 . S
C529 C524 1.413 . S
C529 C528 1.403 . S
C529 H555 0.930 . S
C530 O544 1.275 . S
C530 O545 1.256 . S
C531 O546 1.259 . S
C531 O547 1.268 . S
C532 Ho521 2.811 . S
C532 C533 1.488 . S
C532 O548 1.215 . S
C532 O549 1.289 . S
C533 C532 1.488 . S
C533 C534 1.348 . S
C533 C538 1.413 . S
C534 C533 1.348 . S
C534 C535 1.442 . S
C534 H556 0.930 . S
C535 C534 1.442 . S
C535 C536 1.381 . S
C535 H557 0.931 . S
C536 C535 1.381 . S
C536 C537 1.321 . S
C537 C536 1.321 . S
C537 C538 1.403 . S
C537 H558 0.934 . S
C538 C533 1.413 . S
C538 C537 1.403 . S
C538 H559 0.930 . S
C539 O550 1.275 . S
C539 O551 1.256 . S
O540 Ho520 2.322 . S
O540 C522 1.259 . S
O541 Ho521 2.346 . S
O541 C522 1.268 . S
O542 Ho520 2.378 1_554 S
O542 C523 1.215 . S
O543 Ho520 2.524 1_554 S
O543 C523 1.289 . S
O544 Ho520 2.381 . S
O544 C530 1.275 . S
O545 Ho520 2.669 . S
O545 Ho521 2.305 . S
O545 C530 1.256 . S
O546 Ho521 2.322 . S
O546 C531 1.259 . S
O547 Ho520 2.346 . S
O547 C531 1.268 . S
O548 Ho521 2.378 . S
O548 C532 1.215 . S
O549 Ho521 2.524 . S
O549 C532 1.289 . S
O550 Ho521 2.381 . S
O550 C539 1.275 . S
O551 Ho520 2.305 . S
O551 Ho521 2.669 . S
O551 C539 1.256 . S
H552 C525 0.930 . S
H553 C526 0.931 . S
H554 C528 0.934 . S
H555 C529 0.930 . S
H556 C534 0.930 . S
H557 C535 0.931 . S
H558 C537 0.934 . S
H559 C538 0.930 . S
Ho560 C563 2.811 . S
Ho560 O580 2.322 . S
Ho560 O582 2.378 . S
Ho560 O583 2.524 . S
Ho560 O584 2.381 . S
Ho560 O585 2.669 . S
Ho560 O587 2.346 . S
Ho560 O591 2.305 . S
Ho561 C572 2.811 . S
Ho561 O581 2.346 . S
Ho561 O585 2.305 . S
Ho561 O586 2.322 . S
Ho561 O588 2.378 . S
Ho561 O589 2.524 . S
Ho561 O590 2.381 . S
Ho561 O591 2.669 . S
C562 O580 1.259 . S
C562 O581 1.268 . S
C563 Ho560 2.811 . S
C563 C564 1.488 . S
C563 O582 1.215 . S
C563 O583 1.289 . S
C564 C563 1.488 . S
C564 C565 1.348 . S
C564 C569 1.413 . S
C565 C564 1.348 . S
C565 C566 1.442 . S
C565 H592 0.930 . S
C566 C565 1.442 . S
C566 C567 1.381 . S
C566 H593 0.931 . S
C567 C566 1.381 . S
C567 C568 1.321 . S
C568 C567 1.321 . S
C568 C569 1.403 . S
C568 H594 0.934 . S
C569 C564 1.413 . S
C569 C568 1.403 . S
C569 H595 0.930 . S
C570 O584 1.275 . S
C570 O585 1.256 . S
C571 O586 1.259 . S
C571 O587 1.268 . S
C572 Ho561 2.811 . S
C572 C573 1.488 . S
C572 O588 1.215 . S
C572 O589 1.289 . S
C573 C572 1.488 . S
C573 C574 1.348 . S
C573 C578 1.413 . S
C574 C573 1.348 . S
C574 C575 1.442 . S
C574 H596 0.930 . S
C575 C574 1.442 . S
C575 C576 1.381 . S
C575 H597 0.931 . S
C576 C575 1.381 . S
C576 C577 1.321 . S
C577 C576 1.321 . S
C577 C578 1.403 . S
C577 H598 0.934 . S
C578 C573 1.413 . S
C578 C577 1.403 . S
C578 H599 0.930 . S
C579 O590 1.275 . S
C579 O591 1.256 . S
O580 Ho560 2.322 . S
O580 C562 1.259 . S
O581 Ho561 2.346 . S
O581 C562 1.268 . S
O582 Ho560 2.378 . S
O582 C563 1.215 . S
O583 Ho560 2.524 . S
O583 C563 1.289 . S
O584 Ho560 2.381 . S
O584 C570 1.275 . S
O585 Ho560 2.669 . S
O585 Ho561 2.305 . S
O585 C570 1.256 . S
O586 Ho561 2.322 . S
O586 C571 1.259 . S
O587 Ho560 2.346 . S
O587 C571 1.268 . S
O588 Ho561 2.378 . S
O588 C572 1.215 . S
O589 Ho561 2.524 . S
O589 C572 1.289 . S
O590 Ho561 2.381 . S
O590 C579 1.275 . S
O591 Ho560 2.305 . S
O591 Ho561 2.669 . S
O591 C579 1.256 . S
H592 C565 0.930 . S
H593 C566 0.931 . S
H594 C568 0.934 . S
H595 C569 0.930 . S
H596 C574 0.930 . S
H597 C575 0.931 . S
H598 C577 0.934 . S
H599 C578 0.930 . S
Ho600 C603 2.811 . S
Ho600 O620 2.322 . S
Ho600 O622 2.378 . S
Ho600 O623 2.524 . S
Ho600 O624 2.381 . S
Ho600 O625 2.669 . S
Ho600 O627 2.346 . S
Ho600 O631 2.305 . S
Ho601 C612 2.811 . S
Ho601 O621 2.346 . S
Ho601 O625 2.305 . S
Ho601 O626 2.322 . S
Ho601 O628 2.378 . S
Ho601 O629 2.524 . S
Ho601 O630 2.381 . S
Ho601 O631 2.669 . S
C602 O620 1.259 . S
C602 O621 1.268 . S
C603 Ho600 2.811 . S
C603 C604 1.488 . S
C603 O622 1.215 . S
C603 O623 1.289 . S
C604 C603 1.488 . S
C604 C605 1.348 . S
C604 C609 1.413 . S
C605 C604 1.348 . S
C605 C606 1.442 . S
C605 H632 0.930 . S
C606 C605 1.442 . S
C606 C607 1.381 . S
C606 H633 0.931 . S
C607 C606 1.381 . S
C607 C608 1.321 . S
C608 C607 1.321 . S
C608 C609 1.403 . S
C608 H634 0.934 . S
C609 C604 1.413 . S
C609 C608 1.403 . S
C609 H635 0.930 . S
C610 O624 1.275 . S
C610 O625 1.256 . S
C611 O626 1.259 . S
C611 O627 1.268 . S
C612 Ho601 2.811 . S
C612 C613 1.488 . S
C612 O628 1.215 . S
C612 O629 1.289 . S
C613 C612 1.488 . S
C613 C614 1.348 . S
C613 C618 1.413 . S
C614 C613 1.348 . S
C614 C615 1.442 . S
C614 H636 0.930 . S
C615 C614 1.442 . S
C615 C616 1.381 . S
C615 H637 0.931 . S
C616 C615 1.381 . S
C616 C617 1.321 . S
C617 C616 1.321 . S
C617 C618 1.403 . S
C617 H638 0.934 . S
C618 C613 1.413 . S
C618 C617 1.403 . S
C618 H639 0.930 . S
C619 O630 1.275 . S
C619 O631 1.256 . S
O620 Ho600 2.322 . S
O620 C602 1.259 . S
O621 Ho601 2.346 . S
O621 C602 1.268 . S
O622 Ho600 2.378 . S
O622 C603 1.215 . S
O623 Ho600 2.524 . S
O623 C603 1.289 . S
O624 Ho600 2.381 . S
O624 C610 1.275 . S
O625 Ho600 2.669 . S
O625 Ho601 2.305 . S
O625 C610 1.256 . S
O626 Ho601 2.322 . S
O626 C611 1.259 . S
O627 Ho600 2.346 . S
O627 C611 1.268 . S
O628 Ho601 2.378 . S
O628 C612 1.215 . S
O629 Ho601 2.524 . S
O629 C612 1.289 . S
O630 Ho601 2.381 . S
O630 C619 1.275 . S
O631 Ho600 2.305 . S
O631 Ho601 2.669 . S
O631 C619 1.256 . S
H632 C605 0.930 . S
H633 C606 0.931 . S
H634 C608 0.934 . S
H635 C609 0.930 . S
H636 C614 0.930 . S
H637 C615 0.931 . S
H638 C617 0.934 . S
H639 C618 0.930 . S
H640 C652 0.930 . S
H641 C654 0.930 . S
H642 C655 0.930 . S
H643 C659 0.959 . S
H644 C659 0.959 . S
H645 C659 0.961 . S
H646 C660 0.960 . S
H647 C660 0.961 . S
H648 C660 0.959 . S
H649 C663 0.929 . S
H650 C664 0.931 . S
H651 C666 0.930 . S
C652 H640 0.930 . S
C652 C653 1.399 . S
C652 C657 1.399 . S
C653 C652 1.399 . S
C653 C654 1.376 . S
C654 H641 0.930 . S
C654 C653 1.376 . S
C654 C655 1.388 . S
C655 H642 0.930 . S
C655 C654 1.388 . S
C655 C656 1.390 . S
C656 C655 1.390 . S
C656 C657 1.394 . S
C656 C662 1.465 . S
C657 C652 1.399 . S
C657 C656 1.394 . S
C657 C658 1.516 . S
C658 C657 1.516 . S
C658 C659 1.502 . S
C658 C660 1.561 . S
C658 C661 1.526 . S
C659 H643 0.959 . S
C659 H644 0.959 . S
C659 H645 0.961 . S
C659 C658 1.502 . S
C660 H646 0.960 . S
C660 H647 0.961 . S
C660 H648 0.959 . S
C660 C658 1.561 . S
C661 C658 1.526 . S
C661 C662 1.396 . S
C661 C666 1.390 . S
C662 C656 1.465 . S
C662 C661 1.396 . S
C662 C663 1.399 . S
C663 H649 0.929 . S
C663 C662 1.399 . S
C663 C664 1.385 . S
C664 H650 0.931 . S
C664 C663 1.385 . S
C664 C665 1.389 . S
C665 C664 1.389 . S
C665 C666 1.387 . S
C666 H651 0.930 . S
C666 C661 1.390 . S
C666 C665 1.387 . S
H667 C679 0.930 . S
H668 C681 0.930 . S
H669 C682 0.930 . S
H670 C686 0.959 . S
H671 C686 0.959 . S
H672 C686 0.961 . S
H673 C687 0.960 . S
H674 C687 0.961 . S
H675 C687 0.959 . S
H676 C690 0.929 . S
H677 C691 0.931 . S
H678 C693 0.930 . S
C679 H667 0.930 . S
C679 C680 1.399 . S
C679 C684 1.399 . S
C680 C679 1.399 . S
C680 C681 1.376 . S
C681 H668 0.930 . S
C681 C680 1.376 . S
C681 C682 1.388 . S
C682 H669 0.930 . S
C682 C681 1.388 . S
C682 C683 1.390 . S
C683 C682 1.390 . S
C683 C684 1.394 . S
C683 C689 1.465 . S
C684 C679 1.399 . S
C684 C683 1.394 . S
C684 C685 1.516 . S
C685 C684 1.516 . S
C685 C686 1.502 . S
C685 C687 1.561 . S
C685 C688 1.526 . S
C686 H670 0.959 . S
C686 H671 0.959 . S
C686 H672 0.961 . S
C686 C685 1.502 . S
C687 H673 0.960 . S
C687 H674 0.961 . S
C687 H675 0.959 . S
C687 C685 1.561 . S
C688 C685 1.526 . S
C688 C689 1.396 . S
C688 C693 1.390 . S
C689 C683 1.465 . S
C689 C688 1.396 . S
C689 C690 1.399 . S
C690 H676 0.929 . S
C690 C689 1.399 . S
C690 C691 1.385 . S
C691 H677 0.931 . S
C691 C690 1.385 . S
C691 C692 1.389 . S
C692 C691 1.389 . S
C692 C693 1.387 . S
C693 H678 0.930 . S
C693 C688 1.390 . S
C693 C692 1.387 . S
H694 C706 0.930 . S
H695 C708 0.930 . S
H696 C709 0.930 . S
H697 C713 0.959 . S
H698 C713 0.959 . S
H699 C713 0.961 . S
H700 C714 0.960 . S
H701 C714 0.961 . S
H702 C714 0.959 . S
H703 C717 0.929 . S
H704 C718 0.931 1_556 S
H705 C720 0.930 . S
C706 H694 0.930 . S
C706 C707 1.399 . S
C706 C711 1.399 . S
C707 C706 1.399 . S
C707 C708 1.376 . S
C708 H695 0.930 . S
C708 C707 1.376 . S
C708 C709 1.388 . S
C709 H696 0.930 . S
C709 C708 1.388 . S
C709 C710 1.390 . S
C710 C709 1.390 . S
C710 C711 1.394 . S
C710 C716 1.465 . S
C711 C706 1.399 . S
C711 C710 1.394 . S
C711 C712 1.516 . S
C712 C711 1.516 . S
C712 C713 1.502 . S
C712 C714 1.561 . S
C712 C715 1.526 . S
C713 H697 0.959 . S
C713 H698 0.959 . S
C713 H699 0.961 . S
C713 C712 1.502 . S
C714 H700 0.960 . S
C714 H701 0.961 . S
C714 H702 0.959 . S
C714 C712 1.561 . S
C715 C712 1.526 . S
C715 C716 1.396 . S
C715 C720 1.390 . S
C716 C710 1.465 . S
C716 C715 1.396 . S
C716 C717 1.399 . S
C717 H703 0.929 . S
C717 C716 1.399 . S
C717 C718 1.385 . S
C718 H704 0.931 1_554 S
C718 C717 1.385 . S
C718 C719 1.389 . S
C719 C718 1.389 . S
C719 C720 1.387 . S
C720 H705 0.930 . S
C720 C715 1.390 . S
C720 C719 1.387 . S
H721 C733 0.930 . S
H722 C735 0.930 . S
H723 C736 0.930 . S
H724 C740 0.959 . S
H725 C740 0.959 . S
H726 C740 0.961 . S
H727 C741 0.960 . S
H728 C741 0.961 . S
H729 C741 0.959 . S
H730 C744 0.929 . S
H731 C745 0.931 . S
H732 C747 0.930 . S
C733 H721 0.930 . S
C733 C734 1.399 . S
C733 C738 1.399 . S
C734 C733 1.399 . S
C734 C735 1.376 . S
C735 H722 0.930 . S
C735 C734 1.376 . S
C735 C736 1.388 . S
C736 H723 0.930 . S
C736 C735 1.388 . S
C736 C737 1.390 . S
C737 C736 1.390 . S
C737 C738 1.394 . S
C737 C743 1.465 . S
C738 C733 1.399 . S
C738 C737 1.394 . S
C738 C739 1.516 . S
C739 C738 1.516 . S
C739 C740 1.502 . S
C739 C741 1.561 . S
C739 C742 1.526 . S
C740 H724 0.959 . S
C740 H725 0.959 . S
C740 H726 0.961 . S
C740 C739 1.502 . S
C741 H727 0.960 . S
C741 H728 0.961 . S
C741 H729 0.959 . S
C741 C739 1.561 . S
C742 C739 1.526 . S
C742 C743 1.396 . S
C742 C747 1.390 . S
C743 C737 1.465 . S
C743 C742 1.396 . S
C743 C744 1.399 . S
C744 H730 0.929 . S
C744 C743 1.399 . S
C744 C745 1.385 . S
C745 H731 0.931 . S
C745 C744 1.385 . S
C745 C746 1.389 . S
C746 C745 1.389 . S
C746 C747 1.387 . S
C747 H732 0.930 . S
C747 C742 1.390 . S
C747 C746 1.387 . S
H748 C760 0.930 . S
H749 C762 0.930 . S
H750 C763 0.930 . S
H751 C767 0.959 . S
H752 C767 0.959 . S
H753 C767 0.961 . S
H754 C768 0.960 . S
H755 C768 0.961 . S
H756 C768 0.959 . S
H757 C771 0.929 . S
H758 C772 0.931 . S
H759 C774 0.930 . S
C760 H748 0.930 . S
C760 C761 1.399 . S
C760 C765 1.399 . S
C761 C760 1.399 . S
C761 C762 1.376 . S
C762 H749 0.930 . S
C762 C761 1.376 . S
C762 C763 1.388 . S
C763 H750 0.930 . S
C763 C762 1.388 . S
C763 C764 1.390 . S
C764 C763 1.390 . S
C764 C765 1.394 . S
C764 C770 1.465 . S
C765 C760 1.399 . S
C765 C764 1.394 . S
C765 C766 1.516 . S
C766 C765 1.516 . S
C766 C767 1.502 . S
C766 C768 1.561 . S
C766 C769 1.526 . S
C767 H751 0.959 . S
C767 H752 0.959 . S
C767 H753 0.961 . S
C767 C766 1.502 . S
C768 H754 0.960 . S
C768 H755 0.961 . S
C768 H756 0.959 . S
C768 C766 1.561 . S
C769 C766 1.526 . S
C769 C770 1.396 . S
C769 C774 1.390 . S
C770 C764 1.465 . S
C770 C769 1.396 . S
C770 C771 1.399 . S
C771 H757 0.929 . S
C771 C770 1.399 . S
C771 C772 1.385 . S
C772 H758 0.931 . S
C772 C771 1.385 . S
C772 C773 1.389 . S
C773 C772 1.389 . S
C773 C774 1.387 . S
C774 H759 0.930 . S
C774 C769 1.390 . S
C774 C773 1.387 . S
H775 C787 0.930 . S
H776 C789 0.930 . S
H777 C790 0.930 . S
H778 C794 0.959 . S
H779 C794 0.959 . S
H780 C794 0.961 . S
H781 C795 0.960 . S
H782 C795 0.961 . S
H783 C795 0.959 . S
H784 C798 0.929 . S
H785 C799 0.931 . S
H786 C801 0.930 . S
C787 H775 0.930 . S
C787 C788 1.399 . S
C787 C792 1.399 . S
C788 C787 1.399 . S
C788 C789 1.376 . S
C789 H776 0.930 . S
C789 C788 1.376 . S
C789 C790 1.388 . S
C790 H777 0.930 . S
C790 C789 1.388 . S
C790 C791 1.390 . S
C791 C790 1.390 . S
C791 C792 1.394 . S
C791 C797 1.465 . S
C792 C787 1.399 . S
C792 C791 1.394 . S
C792 C793 1.516 . S
C793 C792 1.516 . S
C793 C794 1.502 . S
C793 C795 1.561 . S
C793 C796 1.526 . S
C794 H778 0.959 . S
C794 H779 0.959 . S
C794 H780 0.961 . S
C794 C793 1.502 . S
C795 H781 0.960 . S
C795 H782 0.961 . S
C795 H783 0.959 . S
C795 C793 1.561 . S
C796 C793 1.526 . S
C796 C797 1.396 . S
C796 C801 1.390 . S
C797 C791 1.465 . S
C797 C796 1.396 . S
C797 C798 1.399 . S
C798 H784 0.929 . S
C798 C797 1.399 . S
C798 C799 1.385 . S
C799 H785 0.931 . S
C799 C798 1.385 . S
C799 C800 1.389 . S
C800 C799 1.389 . S
C800 C801 1.387 . S
C801 H786 0.930 . S
C801 C796 1.390 . S
C801 C800 1.387 . S
H802 C814 0.930 . S
H803 C816 0.930 . S
H804 C817 0.930 . S
H805 C821 0.959 . S
H806 C821 0.959 . S
H807 C821 0.961 . S
H808 C822 0.960 . S
H809 C822 0.961 . S
H810 C822 0.959 . S
H811 C825 0.929 . S
H812 C826 0.931 . S
H813 C828 0.930 . S
C814 H802 0.930 . S
C814 C815 1.399 . S
C814 C819 1.399 . S
C815 C814 1.399 . S
C815 C816 1.376 . S
C816 H803 0.930 . S
C816 C815 1.376 . S
C816 C817 1.388 . S
C817 H804 0.930 . S
C817 C816 1.388 . S
C817 C818 1.390 . S
C818 C817 1.390 . S
C818 C819 1.394 . S
C818 C824 1.465 . S
C819 C814 1.399 . S
C819 C818 1.394 . S
C819 C820 1.516 . S
C820 C819 1.516 . S
C820 C821 1.502 . S
C820 C822 1.561 . S
C820 C823 1.526 . S
C821 H805 0.959 . S
C821 H806 0.959 . S
C821 H807 0.961 . S
C821 C820 1.502 . S
C822 H808 0.960 . S
C822 H809 0.961 . S
C822 H810 0.959 . S
C822 C820 1.561 . S
C823 C820 1.526 . S
C823 C824 1.396 . S
C823 C828 1.390 1_556 S
C824 C818 1.465 . S
C824 C823 1.396 . S
C824 C825 1.399 . S
C825 H811 0.929 . S
C825 C824 1.399 . S
C825 C826 1.385 1_556 S
C826 H812 0.931 . S
C826 C825 1.385 1_554 S
C826 C827 1.389 . S
C827 C826 1.389 . S
C827 C828 1.387 . S
C828 H813 0.930 . S
C828 C823 1.390 1_554 S
C828 C827 1.387 . S
H829 C841 0.930 . S
H830 C843 0.930 . S
H831 C844 0.930 . S
H832 C848 0.959 . S
H833 C848 0.959 . S
H834 C848 0.961 . S
H835 C849 0.960 . S
H836 C849 0.961 . S
H837 C849 0.959 . S
H838 C852 0.929 . S
H839 C853 0.931 . S
H840 C855 0.930 . S
C841 H829 0.930 . S
C841 C842 1.399 1_554 S
C841 C846 1.399 . S
C842 C841 1.399 1_556 S
C842 C843 1.376 . S
C843 H830 0.930 . S
C843 C842 1.376 . S
C843 C844 1.388 1_556 S
C844 H831 0.930 . S
C844 C843 1.388 1_554 S
C844 C845 1.390 . S
C845 C844 1.390 . S
C845 C846 1.394 . S
C845 C851 1.465 . S
C846 C841 1.399 . S
C846 C845 1.394 . S
C846 C847 1.516 . S
C847 C846 1.516 . S
C847 C848 1.502 . S
C847 C849 1.561 . S
C847 C850 1.526 . S
C848 H832 0.959 . S
C848 H833 0.959 . S
C848 H834 0.961 . S
C848 C847 1.502 . S
C849 H835 0.960 . S
C849 H836 0.961 . S
C849 H837 0.959 . S
C849 C847 1.561 . S
C850 C847 1.526 . S
C850 C851 1.396 . S
C850 C855 1.390 . S
C851 C845 1.465 . S
C851 C850 1.396 . S
C851 C852 1.399 . S
C852 H838 0.929 . S
C852 C851 1.399 . S
C852 C853 1.385 . S
C853 H839 0.931 . S
C853 C852 1.385 . S
C853 C854 1.389 . S
C854 C853 1.389 . S
C854 C855 1.387 . S
C855 H840 0.930 . S
C855 C850 1.390 . S
C855 C854 1.387 . S
H856 C868 0.930 . S
H857 C870 0.930 . S
H858 C871 0.930 . S
H859 C875 0.959 . S
H860 C875 0.959 . S
H861 C875 0.961 . S
H862 C876 0.960 . S
H863 C876 0.961 . S
H864 C876 0.959 . S
H865 C879 0.929 . S
H866 C880 0.931 . S
H867 C882 0.930 . S
C868 H856 0.930 . S
C868 C869 1.399 . S
C868 C873 1.399 . S
C869 C868 1.399 . S
C869 C870 1.376 . S
C870 H857 0.930 . S
C870 C869 1.376 . S
C870 C871 1.388 . S
C871 H858 0.930 . S
C871 C870 1.388 . S
C871 C872 1.390 . S
C872 C871 1.390 . S
C872 C873 1.394 . S
C872 C878 1.465 . S
C873 C868 1.399 . S
C873 C872 1.394 . S
C873 C874 1.516 . S
C874 C873 1.516 . S
C874 C875 1.502 . S
C874 C876 1.561 . S
C874 C877 1.526 . S
C875 H859 0.959 . S
C875 H860 0.959 . S
C875 H861 0.961 . S
C875 C874 1.502 . S
C876 H862 0.960 . S
C876 H863 0.961 . S
C876 H864 0.959 . S
C876 C874 1.561 . S
C877 C874 1.526 . S
C877 C878 1.396 . S
C877 C882 1.390 . S
C878 C872 1.465 . S
C878 C877 1.396 . S
C878 C879 1.399 . S
C879 H865 0.929 . S
C879 C878 1.399 . S
C879 C880 1.385 . S
C880 H866 0.931 . S
C880 C879 1.385 . S
C880 C881 1.389 . S
C881 C880 1.389 . S
C881 C882 1.387 . S
C882 H867 0.930 . S
C882 C877 1.390 . S
C882 C881 1.387 . S
H883 C895 0.930 . S
H884 C897 0.930 . S
H885 C898 0.930 . S
H886 C902 0.959 . S
H887 C902 0.959 . S
H888 C902 0.961 . S
H889 C903 0.960 . S
H890 C903 0.961 . S
H891 C903 0.959 . S
H892 C906 0.929 . S
H893 C907 0.931 . S
H894 C909 0.930 . S
C895 H883 0.930 . S
C895 C896 1.399 . S
C895 C900 1.399 . S
C896 C895 1.399 . S
C896 C897 1.376 . S
C897 H884 0.930 . S
C897 C896 1.376 . S
C897 C898 1.388 . S
C898 H885 0.930 . S
C898 C897 1.388 . S
C898 C899 1.390 . S
C899 C898 1.390 . S
C899 C900 1.394 . S
C899 C905 1.465 . S
C900 C895 1.399 . S
C900 C899 1.394 . S
C900 C901 1.516 . S
C901 C900 1.516 . S
C901 C902 1.502 . S
C901 C903 1.561 . S
C901 C904 1.526 . S
C902 H886 0.959 . S
C902 H887 0.959 . S
C902 H888 0.961 . S
C902 C901 1.502 . S
C903 H889 0.960 . S
C903 H890 0.961 . S
C903 H891 0.959 . S
C903 C901 1.561 . S
C904 C901 1.526 . S
C904 C905 1.396 . S
C904 C909 1.390 . S
C905 C899 1.465 . S
C905 C904 1.396 . S
C905 C906 1.399 . S
C906 H892 0.929 . S
C906 C905 1.399 . S
C906 C907 1.385 1_554 S
C907 H893 0.931 . S
C907 C906 1.385 1_556 S
C907 C908 1.389 . S
C908 C907 1.389 . S
C908 C909 1.387 1_556 S
C909 H894 0.930 . S
C909 C904 1.390 . S
C909 C908 1.387 1_554 S
H910 C922 0.930 . S
H911 C924 0.930 . S
H912 C925 0.930 . S
H913 C929 0.959 . S
H914 C929 0.959 . S
H915 C929 0.961 . S
H916 C930 0.960 . S
H917 C930 0.961 . S
H918 C930 0.959 . S
H919 C933 0.929 . S
H920 C934 0.931 . S
H921 C936 0.930 . S
C922 H910 0.930 . S
C922 C923 1.399 . S
C922 C927 1.399 . S
C923 C922 1.399 . S
C923 C924 1.376 . S
C924 H911 0.930 . S
C924 C923 1.376 . S
C924 C925 1.388 . S
C925 H912 0.930 . S
C925 C924 1.388 . S
C925 C926 1.390 . S
C926 C925 1.390 . S
C926 C927 1.394 . S
C926 C932 1.465 . S
C927 C922 1.399 . S
C927 C926 1.394 . S
C927 C928 1.516 . S
C928 C927 1.516 . S
C928 C929 1.502 . S
C928 C930 1.561 . S
C928 C931 1.526 . S
C929 H913 0.959 . S
C929 H914 0.959 . S
C929 H915 0.961 . S
C929 C928 1.502 . S
C930 H916 0.960 . S
C930 H917 0.961 . S
C930 H918 0.959 . S
C930 C928 1.561 . S
C931 C928 1.526 . S
C931 C932 1.396 . S
C931 C936 1.390 . S
C932 C926 1.465 . S
C932 C931 1.396 . S
C932 C933 1.399 . S
C933 H919 0.929 . S
C933 C932 1.399 . S
C933 C934 1.385 . S
C934 H920 0.931 . S
C934 C933 1.385 . S
C934 C935 1.389 . S
C935 C934 1.389 . S
C935 C936 1.387 . S
C936 H921 0.930 . S
C936 C931 1.390 . S
C936 C935 1.387 . S
H937 C949 0.930 . S
H938 C951 0.930 . S
H939 C952 0.930 . S
H940 C956 0.959 . S
H941 C956 0.959 . S
H942 C956 0.961 . S
H943 C957 0.960 . S
H944 C957 0.961 . S
H945 C957 0.959 . S
H946 C960 0.929 . S
H947 C961 0.931 . S
H948 C963 0.930 . S
C949 H937 0.930 . S
C949 C950 1.399 . S
C949 C954 1.399 . S
C950 C949 1.399 . S
C950 C951 1.376 . S
C951 H938 0.930 . S
C951 C950 1.376 . S
C951 C952 1.388 . S
C952 H939 0.930 . S
C952 C951 1.388 . S
C952 C953 1.390 . S
C953 C952 1.390 . S
C953 C954 1.394 . S
C953 C959 1.465 . S
C954 C949 1.399 . S
C954 C953 1.394 . S
C954 C955 1.516 . S
C955 C954 1.516 . S
C955 C956 1.502 . S
C955 C957 1.561 . S
C955 C958 1.526 . S
C956 H940 0.959 . S
C956 H941 0.959 . S
C956 H942 0.961 . S
C956 C955 1.502 . S
C957 H943 0.960 . S
C957 H944 0.961 . S
C957 H945 0.959 . S
C957 C955 1.561 . S
C958 C955 1.526 . S
C958 C959 1.396 . S
C958 C963 1.390 . S
C959 C953 1.465 . S
C959 C958 1.396 . S
C959 C960 1.399 . S
C960 H946 0.929 . S
C960 C959 1.399 . S
C960 C961 1.385 . S
C961 H947 0.931 . S
C961 C960 1.385 . S
C961 C962 1.389 . S
C962 C961 1.389 . S
C962 C963 1.387 . S
C963 H948 0.930 . S
C963 C958 1.390 . S
C963 C962 1.387 . S
H964 C976 0.930 . S
H965 C978 0.930 . S
H966 C979 0.930 . S
H967 C983 0.959 . S
H968 C983 0.959 . S
H969 C983 0.961 . S
H970 C984 0.960 . S
H971 C984 0.961 . S
H972 C984 0.959 . S
H973 C987 0.929 . S
H974 C988 0.931 . S
H975 C990 0.930 . S
C976 H964 0.930 . S
C976 C977 1.399 . S
C976 C981 1.399 . S
C977 C976 1.399 . S
C977 C978 1.376 . S
C978 H965 0.930 . S
C978 C977 1.376 . S
C978 C979 1.388 . S
C979 H966 0.930 . S
C979 C978 1.388 . S
C979 C980 1.390 . S
C980 C979 1.390 . S
C980 C981 1.394 . S
C980 C986 1.465 . S
C981 C976 1.399 . S
C981 C980 1.394 . S
C981 C982 1.516 . S
C982 C981 1.516 . S
C982 C983 1.502 . S
C982 C984 1.561 . S
C982 C985 1.526 . S
C983 H967 0.959 . S
C983 H968 0.959 . S
C983 H969 0.961 . S
C983 C982 1.502 . S
C984 H970 0.960 . S
C984 H971 0.961 . S
C984 H972 0.959 . S
C984 C982 1.561 . S
C985 C982 1.526 . S
C985 C986 1.396 . S
C985 C990 1.390 . S
C986 C980 1.465 . S
C986 C985 1.396 . S
C986 C987 1.399 . S
C987 H973 0.929 . S
C987 C986 1.399 . S
C987 C988 1.385 . S
C988 H974 0.931 . S
C988 C987 1.385 . S
C988 C989 1.389 . S
C989 C988 1.389 . S
C989 C990 1.387 . S
C990 H975 0.930 . S
C990 C985 1.390 . S
C990 C989 1.387 . S
H991 C1003 0.930 . S
H992 C1005 0.930 . S
H993 C1006 0.930 . S
H994 C1010 0.959 . S
H995 C1010 0.959 . S
H996 C1010 0.961 . S
H997 C1011 0.960 . S
H998 C1011 0.961 . S
H999 C1011 0.959 . S
H1000 C1014 0.929 . S
H1001 C1015 0.931 . S
H1002 C1017 0.930 . S
C1003 H991 0.930 . S
C1003 C1004 1.399 . S
C1003 C1008 1.399 . S
C1004 C1003 1.399 . S
C1004 C1005 1.376 . S
C1005 H992 0.930 . S
C1005 C1004 1.376 . S
C1005 C1006 1.388 . S
C1006 H993 0.930 . S
C1006 C1005 1.388 . S
C1006 C1007 1.390 . S
C1007 C1006 1.390 . S
C1007 C1008 1.394 . S
C1007 C1013 1.465 . S
C1008 C1003 1.399 . S
C1008 C1007 1.394 . S
C1008 C1009 1.516 . S
C1009 C1008 1.516 . S
C1009 C1010 1.502 . S
C1009 C1011 1.561 . S
C1009 C1012 1.526 . S
C1010 H994 0.959 . S
C1010 H995 0.959 . S
C1010 H996 0.961 . S
C1010 C1009 1.502 . S
C1011 H997 0.960 . S
C1011 H998 0.961 . S
C1011 H999 0.959 . S
C1011 C1009 1.561 . S
C1012 C1009 1.526 . S
C1012 C1013 1.396 . S
C1012 C1017 1.390 . S
C1013 C1007 1.465 . S
C1013 C1012 1.396 . S
C1013 C1014 1.399 . S
C1014 H1000 0.929 . S
C1014 C1013 1.399 . S
C1014 C1015 1.385 . S
C1015 H1001 0.931 . S
C1015 C1014 1.385 . S
C1015 C1016 1.389 . S
C1016 C1015 1.389 . S
C1016 C1017 1.387 . S
C1017 H1002 0.930 . S
C1017 C1012 1.390 . S
C1017 C1016 1.387 . S
H1018 C1030 0.930 . S
H1019 C1032 0.930 . S
H1020 C1033 0.930 . S
H1021 C1037 0.959 . S
H1022 C1037 0.959 . S
H1023 C1037 0.961 . S
H1024 C1038 0.960 . S
H1025 C1038 0.961 . S
H1026 C1038 0.959 . S
H1027 C1041 0.929 . S
H1028 C1042 0.931 . S
H1029 C1044 0.930 . S
C1030 H1018 0.930 . S
C1030 C1031 1.399 . S
C1030 C1035 1.399 . S
C1031 C1030 1.399 . S
C1031 C1032 1.376 . S
C1032 H1019 0.930 . S
C1032 C1031 1.376 . S
C1032 C1033 1.388 . S
C1033 H1020 0.930 . S
C1033 C1032 1.388 . S
C1033 C1034 1.390 . S
C1034 C1033 1.390 . S
C1034 C1035 1.394 . S
C1034 C1040 1.465 . S
C1035 C1030 1.399 . S
C1035 C1034 1.394 . S
C1035 C1036 1.516 . S
C1036 C1035 1.516 . S
C1036 C1037 1.502 . S
C1036 C1038 1.561 . S
C1036 C1039 1.526 . S
C1037 H1021 0.959 . S
C1037 H1022 0.959 . S
C1037 H1023 0.961 . S
C1037 C1036 1.502 . S
C1038 H1024 0.960 . S
C1038 H1025 0.961 . S
C1038 H1026 0.959 . S
C1038 C1036 1.561 . S
C1039 C1036 1.526 . S
C1039 C1040 1.396 . S
C1039 C1044 1.390 1_554 S
C1040 C1034 1.465 . S
C1040 C1039 1.396 . S
C1040 C1041 1.399 . S
C1041 H1027 0.929 . S
C1041 C1040 1.399 . S
C1041 C1042 1.385 1_554 S
C1042 H1028 0.931 . S
C1042 C1041 1.385 1_556 S
C1042 C1043 1.389 . S
C1043 C1042 1.389 . S
C1043 C1044 1.387 . S
C1044 H1029 0.930 . S
C1044 C1039 1.390 1_556 S
C1044 C1043 1.387 . S
H1045 C1057 0.930 . S
H1046 C1059 0.937 . S
H1047 C1060 0.930 . S
H1048 C1064 0.959 . S
H1049 C1064 0.959 . S
H1050 C1064 0.961 . S
H1051 C1065 0.960 . S
H1052 C1065 0.961 . S
H1053 C1065 0.959 . S
H1054 C1068 0.929 . S
H1055 C1069 0.931 . S
H1056 C1071 0.930 . S
C1057 H1045 0.930 . S
C1057 C1058 1.399 . S
C1057 C1062 1.399 . S
C1058 C1057 1.399 . S
C1058 C1059 1.376 . S
C1059 H1046 0.937 . S
C1059 C1058 1.376 . S
C1059 C1060 1.388 . S
C1060 H1047 0.930 . S
C1060 C1059 1.388 . S
C1060 C1061 1.390 . S
C1061 C1060 1.390 . S
C1061 C1062 1.394 . S
C1061 C1067 1.465 . S
C1062 C1057 1.399 . S
C1062 C1061 1.394 . S
C1062 C1063 1.516 . S
C1063 C1062 1.516 . S
C1063 C1064 1.502 . S
C1063 C1065 1.561 . S
C1063 C1066 1.526 . S
C1064 H1048 0.959 . S
C1064 H1049 0.959 . S
C1064 H1050 0.961 . S
C1064 C1063 1.502 . S
C1065 H1051 0.960 . S
C1065 H1052 0.961 . S
C1065 H1053 0.959 . S
C1065 C1063 1.561 . S
C1066 C1063 1.526 . S
C1066 C1067 1.396 . S
C1066 C1071 1.390 . S
C1067 C1061 1.465 . S
C1067 C1066 1.396 . S
C1067 C1068 1.399 . S
C1068 H1054 0.929 . S
C1068 C1067 1.399 . S
C1068 C1069 1.385 . S
C1069 H1055 0.931 . S
C1069 C1068 1.385 . S
C1069 C1070 1.389 . S
C1070 C1069 1.389 . S
C1070 C1071 1.387 . S
C1071 H1056 0.930 . S
C1071 C1066 1.390 . S
C1071 C1070 1.387 . S
H1072 C1084 0.930 . S
H1073 C1086 0.930 . S
H1074 C1087 0.930 . S
H1075 C1091 0.959 . S
H1076 C1091 0.959 . S
H1077 C1091 0.961 . S
H1078 C1092 0.960 . S
H1079 C1092 0.961 . S
H1080 C1092 0.959 . S
H1081 C1095 0.929 . S
H1082 C1096 0.931 . S
H1083 C1098 0.930 . S
C1084 H1072 0.930 . S
C1084 C1085 1.399 . S
C1084 C1089 1.399 . S
C1085 C1084 1.399 . S
C1085 C1086 1.376 . S
C1086 H1073 0.930 . S
C1086 C1085 1.376 . S
C1086 C1087 1.388 . S
C1087 H1074 0.930 . S
C1087 C1086 1.388 . S
C1087 C1088 1.390 . S
C1088 C1087 1.390 . S
C1088 C1089 1.394 . S
C1088 C1094 1.465 . S
C1089 C1084 1.399 . S
C1089 C1088 1.394 . S
C1089 C1090 1.516 . S
C1090 C1089 1.516 . S
C1090 C1091 1.502 . S
C1090 C1092 1.561 . S
C1090 C1093 1.526 . S
C1091 H1075 0.959 . S
C1091 H1076 0.959 . S
C1091 H1077 0.961 . S
C1091 C1090 1.502 . S
C1092 H1078 0.960 . S
C1092 H1079 0.961 . S
C1092 H1080 0.959 . S
C1092 C1090 1.561 . S
C1093 C1090 1.526 . S
C1093 C1094 1.396 . S
C1093 C1098 1.390 . S
C1094 C1088 1.465 . S
C1094 C1093 1.396 . S
C1094 C1095 1.399 . S
C1095 H1081 0.929 . S
C1095 C1094 1.399 . S
C1095 C1096 1.385 . S
C1096 H1082 0.931 . S
C1096 C1095 1.385 . S
C1096 C1097 1.389 . S
C1097 C1096 1.389 . S
C1097 C1098 1.387 . S
C1098 H1083 0.930 . S
C1098 C1093 1.390 . S
C1098 C1097 1.387 . S
H1099 C1111 0.930 . S
H1100 C1113 0.930 . S
H1101 C1114 0.930 . S
H1102 C1118 0.959 . S
H1103 C1118 0.959 . S
H1104 C1118 0.961 . S
H1105 C1119 0.960 . S
H1106 C1119 0.961 . S
H1107 C1119 0.959 . S
H1108 C1122 0.929 . S
H1109 C1123 0.931 . S
H1110 C1125 0.930 . S
C1111 H1099 0.930 . S
C1111 C1112 1.399 . S
C1111 C1116 1.399 . S
C1112 C1111 1.399 . S
C1112 C1113 1.376 . S
C1113 H1100 0.930 . S
C1113 C1112 1.376 . S
C1113 C1114 1.388 . S
C1114 H1101 0.930 . S
C1114 C1113 1.388 . S
C1114 C1115 1.390 . S
C1115 C1114 1.390 . S
C1115 C1116 1.394 . S
C1115 C1121 1.465 . S
C1116 C1111 1.399 . S
C1116 C1115 1.394 . S
C1116 C1117 1.516 . S
C1117 C1116 1.516 . S
C1117 C1118 1.502 . S
C1117 C1119 1.561 . S
C1117 C1120 1.526 . S
C1118 H1102 0.959 . S
C1118 H1103 0.959 . S
C1118 H1104 0.961 . S
C1118 C1117 1.502 . S
C1119 H1105 0.960 . S
C1119 H1106 0.961 . S
C1119 H1107 0.959 . S
C1119 C1117 1.561 . S
C1120 C1117 1.526 . S
C1120 C1121 1.396 . S
C1120 C1125 1.390 . S
C1121 C1115 1.465 . S
C1121 C1120 1.396 . S
C1121 C1122 1.399 . S
C1122 H1108 0.929 . S
C1122 C1121 1.399 . S
C1122 C1123 1.385 . S
C1123 H1109 0.931 . S
C1123 C1122 1.385 . S
C1123 C1124 1.389 . S
C1124 C1123 1.389 . S
C1124 C1125 1.387 . S
C1125 H1110 0.930 . S
C1125 C1120 1.390 . S
C1125 C1124 1.387 . S
H1126 C1138 0.930 . S
H1127 C1140 0.930 . S
H1128 C1141 0.930 . S
H1129 C1145 0.959 . S
H1130 C1145 0.959 . S
H1131 C1145 0.961 . S
H1132 C1146 0.960 . S
H1133 C1146 0.961 . S
H1134 C1146 0.959 . S
H1135 C1149 0.929 . S
H1136 C1150 0.931 . S
H1137 C1152 0.930 . S
C1138 H1126 0.930 . S
C1138 C1139 1.399 . S
C1138 C1143 1.399 . S
C1139 C1138 1.399 . S
C1139 C1140 1.376 . S
C1140 H1127 0.930 . S
C1140 C1139 1.376 . S
C1140 C1141 1.388 . S
C1141 H1128 0.930 . S
C1141 C1140 1.388 . S
C1141 C1142 1.390 . S
C1142 C1141 1.390 . S
C1142 C1143 1.394 . S
C1142 C1148 1.465 . S
C1143 C1138 1.399 . S
C1143 C1142 1.394 . S
C1143 C1144 1.516 . S
C1144 C1143 1.516 . S
C1144 C1145 1.502 . S
C1144 C1146 1.561 . S
C1144 C1147 1.526 . S
C1145 H1129 0.959 . S
C1145 H1130 0.959 . S
C1145 H1131 0.961 . S
C1145 C1144 1.502 . S
C1146 H1132 0.960 . S
C1146 H1133 0.961 . S
C1146 H1134 0.959 . S
C1146 C1144 1.561 . S
C1147 C1144 1.526 . S
C1147 C1148 1.396 . S
C1147 C1152 1.390 . S
C1148 C1142 1.465 . S
C1148 C1147 1.396 . S
C1148 C1149 1.399 . S
C1149 H1135 0.929 . S
C1149 C1148 1.399 . S
C1149 C1150 1.385 . S
C1150 H1136 0.931 . S
C1150 C1149 1.385 . S
C1150 C1151 1.389 . S
C1151 C1150 1.389 . S
C1151 C1152 1.387 . S
C1152 H1137 0.930 . S
C1152 C1147 1.390 . S
C1152 C1151 1.387 . S
H1153 C1165 0.930 . S
H1154 C1167 0.930 . S
H1155 C1168 0.930 . S
H1156 C1172 0.959 . S
H1157 C1172 0.959 . S
H1158 C1172 0.961 1_655 S
H1159 C1173 0.956 1_655 S
H1160 C1173 0.964 . S
H1161 C1173 0.959 . S
H1162 C1176 0.929 . S
H1163 C1177 0.931 . S
H1164 C1179 0.930 . S
C1165 H1153 0.930 . S
C1165 C1166 1.399 . S
C1165 C1170 1.399 . S
C1166 C1165 1.399 . S
C1166 C1167 1.376 . S
C1167 H1154 0.930 . S
C1167 C1166 1.376 . S
C1167 C1168 1.388 . S
C1168 H1155 0.930 . S
C1168 C1167 1.388 . S
C1168 C1169 1.390 . S
C1169 C1168 1.390 . S
C1169 C1170 1.394 . S
C1169 C1175 1.465 1_655 S
C1170 C1165 1.399 . S
C1170 C1169 1.394 . S
C1170 C1171 1.488 1_655 S
C1171 C1170 1.488 1_455 S
C1171 C1172 1.503 . S
C1171 C1173 1.562 . S
C1171 C1174 1.554 . S
C1172 H1156 0.959 . S
C1172 H1157 0.959 . S
C1172 H1158 0.961 1_455 S
C1172 C1171 1.503 . S
C1173 H1159 0.956 1_455 S
C1173 H1160 0.964 . S
C1173 H1161 0.959 . S
C1173 C1171 1.562 . S
C1174 C1171 1.554 . S
C1174 C1175 1.396 . S
C1174 C1179 1.390 . S
C1175 C1169 1.465 1_455 S
C1175 C1174 1.396 . S
C1175 C1176 1.399 . S
C1176 H1162 0.929 . S
C1176 C1175 1.399 . S
C1176 C1177 1.385 . S
C1177 H1163 0.931 . S
C1177 C1176 1.385 . S
C1177 C1178 1.389 . S
C1178 C1177 1.389 . S
C1178 C1179 1.387 . S
C1179 H1164 0.930 . S
C1179 C1174 1.390 . S
C1179 C1178 1.387 . S
H1180 C1192 0.930 . S
H1181 C1194 0.930 . S
H1182 C1195 0.930 . S
H1183 C1199 0.959 . S
H1184 C1199 0.959 . S
H1185 C1199 0.961 . S
H1186 C1200 0.960 . S
H1187 C1200 0.961 . S
H1188 C1200 0.959 . S
H1189 C1203 0.929 . S
H1190 C1204 0.931 . S
H1191 C1206 0.930 . S
C1192 H1180 0.930 . S
C1192 C1193 1.399 . S
C1192 C1197 1.399 . S
C1193 C1192 1.399 . S
C1193 C1194 1.376 . S
C1194 H1181 0.930 . S
C1194 C1193 1.376 . S
C1194 C1195 1.388 . S
C1195 H1182 0.930 . S
C1195 C1194 1.388 . S
C1195 C1196 1.390 . S
C1196 C1195 1.390 . S
C1196 C1197 1.394 . S
C1196 C1202 1.465 . S
C1197 C1192 1.399 . S
C1197 C1196 1.394 . S
C1197 C1198 1.516 . S
C1198 C1197 1.516 . S
C1198 C1199 1.502 . S
C1198 C1200 1.561 . S
C1198 C1201 1.526 . S
C1199 H1183 0.959 . S
C1199 H1184 0.959 . S
C1199 H1185 0.961 . S
C1199 C1198 1.502 . S
C1200 H1186 0.960 . S
C1200 H1187 0.961 . S
C1200 H1188 0.959 . S
C1200 C1198 1.561 . S
C1201 C1198 1.526 . S
C1201 C1202 1.396 . S
C1201 C1206 1.390 . S
C1202 C1196 1.465 . S
C1202 C1201 1.396 . S
C1202 C1203 1.399 . S
C1203 H1189 0.929 . S
C1203 C1202 1.399 . S
C1203 C1204 1.385 . S
C1204 H1190 0.931 . S
C1204 C1203 1.385 . S
C1204 C1205 1.389 . S
C1205 C1204 1.389 . S
C1205 C1206 1.387 . S
C1206 H1191 0.930 . S
C1206 C1201 1.390 . S
C1206 C1205 1.387 . S
H1207 C1219 0.930 . S
H1208 C1221 0.930 . S
H1209 C1222 0.930 . S
H1210 C1226 0.959 . S
H1211 C1226 0.959 . S
H1212 C1226 0.961 1_455 S
H1213 C1227 0.960 1_456 S
H1214 C1227 0.961 1_556 S
H1215 C1227 0.959 . S
H1216 C1230 0.929 . S
H1217 C1231 0.931 . S
H1218 C1233 0.930 . S
C1219 H1207 0.930 . S
C1219 C1220 1.399 . S
C1219 C1224 1.399 . S
C1220 C1219 1.399 . S
C1220 C1221 1.376 . S
C1221 H1208 0.930 . S
C1221 C1220 1.376 . S
C1221 C1222 1.388 . S
C1222 H1209 0.930 . S
C1222 C1221 1.388 . S
C1222 C1223 1.390 . S
C1223 C1222 1.390 . S
C1223 C1224 1.394 . S
C1223 C1229 1.465 1_455 S
C1224 C1219 1.399 . S
C1224 C1223 1.394 . S
C1224 C1225 1.516 1_455 S
C1225 C1224 1.516 1_655 S
C1225 C1226 1.502 . S
C1225 C1227 1.561 . S
C1225 C1228 1.526 . S
C1226 H1210 0.959 . S
C1226 H1211 0.959 . S
C1226 H1212 0.961 1_655 S
C1226 C1225 1.502 . S
C1227 H1213 0.960 1_654 S
C1227 H1214 0.961 1_554 S
C1227 H1215 0.959 . S
C1227 C1225 1.561 . S
C1228 C1225 1.526 . S
C1228 C1229 1.396 . S
C1228 C1233 1.390 . S
C1229 C1223 1.465 1_655 S
C1229 C1228 1.396 . S
C1229 C1230 1.399 . S
C1230 H1216 0.929 . S
C1230 C1229 1.399 . S
C1230 C1231 1.385 . S
C1231 H1217 0.931 . S
C1231 C1230 1.385 . S
C1231 C1232 1.389 . S
C1232 C1231 1.389 . S
C1232 C1233 1.387 . S
C1233 H1218 0.930 . S
C1233 C1228 1.390 . S
C1233 C1232 1.387 . S
H1234 C1246 0.930 . S
H1235 C1248 0.930 . S
H1236 C1249 0.930 . S
H1237 C1253 0.959 . S
H1238 C1253 0.959 . S
H1239 C1253 0.961 . S
H1240 C1254 0.960 . S
H1241 C1254 0.961 . S
H1242 C1254 0.959 . S
H1243 C1257 0.929 . S
H1244 C1258 0.931 . S
H1245 C1260 0.930 . S
C1246 H1234 0.930 . S
C1246 C1247 1.399 . S
C1246 C1251 1.399 . S
C1247 C1246 1.399 . S
C1247 C1248 1.376 . S
C1248 H1235 0.930 . S
C1248 C1247 1.376 . S
C1248 C1249 1.388 . S
C1249 H1236 0.930 . S
C1249 C1248 1.388 . S
C1249 C1250 1.390 . S
C1250 C1249 1.390 . S
C1250 C1251 1.394 . S
C1250 C1256 1.465 . S
C1251 C1246 1.399 . S
C1251 C1250 1.394 . S
C1251 C1252 1.516 . S
C1252 C1251 1.516 . S
C1252 C1253 1.502 . S
C1252 C1254 1.561 . S
C1252 C1255 1.526 . S
C1253 H1237 0.959 . S
C1253 H1238 0.959 . S
C1253 H1239 0.961 . S
C1253 C1252 1.502 . S
C1254 H1240 0.960 . S
C1254 H1241 0.961 . S
C1254 H1242 0.959 . S
C1254 C1252 1.561 . S
C1255 C1252 1.526 . S
C1255 C1256 1.396 . S
C1255 C1260 1.390 . S
C1256 C1250 1.465 . S
C1256 C1255 1.396 . S
C1256 C1257 1.399 . S
C1257 H1243 0.929 . S
C1257 C1256 1.399 . S
C1257 C1258 1.385 . S
C1258 H1244 0.931 . S
C1258 C1257 1.385 . S
C1258 C1259 1.389 . S
C1259 C1258 1.389 . S
C1259 C1260 1.387 . S
C1260 H1245 0.930 . S
C1260 C1255 1.390 . S
C1260 C1259 1.387 . S
H1261 C1273 0.930 . S
H1262 C1275 0.930 . S
H1263 C1276 0.930 . S
H1264 C1280 0.959 . S
H1265 C1280 0.959 . S
H1266 C1280 0.961 . S
H1267 C1281 0.960 . S
H1268 C1281 0.961 . S
H1269 C1281 0.959 . S
H1270 C1284 0.929 . S
H1271 C1285 0.931 . S
H1272 C1287 0.930 . S
C1273 H1261 0.930 . S
C1273 C1274 1.399 . S
C1273 C1278 1.399 . S
C1274 C1273 1.399 . S
C1274 C1275 1.376 . S
C1275 H1262 0.930 . S
C1275 C1274 1.376 . S
C1275 C1276 1.388 . S
C1276 H1263 0.930 . S
C1276 C1275 1.388 . S
C1276 C1277 1.390 . S
C1277 C1276 1.390 . S
C1277 C1278 1.394 . S
C1277 C1283 1.465 . S
C1278 C1273 1.399 . S
C1278 C1277 1.394 . S
C1278 C1279 1.516 . S
C1279 C1278 1.516 . S
C1279 C1280 1.502 . S
C1279 C1281 1.561 . S
C1279 C1282 1.526 . S
C1280 H1264 0.959 . S
C1280 H1265 0.959 . S
C1280 H1266 0.961 . S
C1280 C1279 1.502 . S
C1281 H1267 0.960 . S
C1281 H1268 0.961 . S
C1281 H1269 0.959 . S
C1281 C1279 1.561 . S
C1282 C1279 1.526 . S
C1282 C1283 1.396 . S
C1282 C1287 1.390 . S
C1283 C1277 1.465 . S
C1283 C1282 1.396 . S
C1283 C1284 1.399 . S
C1284 H1270 0.929 . S
C1284 C1283 1.399 . S
C1284 C1285 1.385 . S
C1285 H1271 0.931 . S
C1285 C1284 1.385 . S
C1285 C1286 1.389 . S
C1286 C1285 1.389 . S
C1286 C1287 1.387 . S
C1287 H1272 0.930 . S
C1287 C1282 1.390 . S
C1287 C1286 1.387 . S
H1288 C1300 0.930 . S
H1289 C1302 0.930 . S
H1290 C1303 0.930 . S
H1291 C1307 0.959 . S
H1292 C1307 0.959 . S
H1293 C1307 0.961 . S
H1294 C1308 0.960 . S
H1295 C1308 0.961 . S
H1296 C1308 0.959 . S
H1297 C1311 0.929 . S
H1298 C1312 0.931 . S
H1299 C1314 0.930 . S
C1300 H1288 0.930 . S
C1300 C1301 1.399 . S
C1300 C1305 1.399 . S
C1301 C1300 1.399 . S
C1301 C1302 1.376 . S
C1302 H1289 0.930 . S
C1302 C1301 1.376 . S
C1302 C1303 1.388 . S
C1303 H1290 0.930 . S
C1303 C1302 1.388 . S
C1303 C1304 1.390 . S
C1304 C1303 1.390 . S
C1304 C1305 1.394 . S
C1304 C1310 1.465 . S
C1305 C1300 1.399 . S
C1305 C1304 1.394 . S
C1305 C1306 1.516 . S
C1306 C1305 1.516 . S
C1306 C1307 1.502 . S
C1306 C1308 1.561 . S
C1306 C1309 1.526 . S
C1307 H1291 0.959 . S
C1307 H1292 0.959 . S
C1307 H1293 0.961 . S
C1307 C1306 1.502 . S
C1308 H1294 0.960 . S
C1308 H1295 0.961 . S
C1308 H1296 0.959 . S
C1308 C1306 1.561 . S
C1309 C1306 1.526 . S
C1309 C1310 1.396 . S
C1309 C1314 1.390 . S
C1310 C1304 1.465 . S
C1310 C1309 1.396 . S
C1310 C1311 1.399 . S
C1311 H1297 0.929 . S
C1311 C1310 1.399 . S
C1311 C1312 1.385 . S
C1312 H1298 0.931 . S
C1312 C1311 1.385 . S
C1312 C1313 1.389 . S
C1313 C1312 1.389 . S
C1313 C1314 1.387 . S
C1314 H1299 0.930 . S
C1314 C1309 1.390 . S
C1314 C1313 1.387 . S
H1315 C1327 0.930 . S
H1316 C1329 0.930 . S
H1317 C1330 0.930 . S
H1318 C1334 0.959 . S
H1319 C1334 0.959 . S
H1320 C1334 0.961 . S
H1321 C1335 0.960 . S
H1322 C1335 0.961 . S
H1323 C1335 0.959 . S
H1324 C1338 0.929 . S
H1325 C1339 0.931 . S
H1326 C1341 0.930 . S
C1327 H1315 0.930 . S
C1327 C1328 1.399 . S
C1327 C1332 1.399 . S
C1328 C1327 1.399 . S
C1328 C1329 1.376 . S
C1329 H1316 0.930 . S
C1329 C1328 1.376 . S
C1329 C1330 1.388 . S
C1330 H1317 0.930 . S
C1330 C1329 1.388 . S
C1330 C1331 1.390 . S
C1331 C1330 1.390 . S
C1331 C1332 1.394 . S
C1331 C1337 1.465 . S
C1332 C1327 1.399 . S
C1332 C1331 1.394 . S
C1332 C1333 1.516 . S
C1333 C1332 1.516 . S
C1333 C1334 1.502 . S
C1333 C1335 1.561 . S
C1333 C1336 1.526 . S
C1334 H1318 0.959 . S
C1334 H1319 0.959 . S
C1334 H1320 0.961 . S
C1334 C1333 1.502 . S
C1335 H1321 0.960 . S
C1335 H1322 0.961 . S
C1335 H1323 0.959 . S
C1335 C1333 1.561 . S
C1336 C1333 1.526 . S
C1336 C1337 1.396 . S
C1336 C1341 1.390 . S
C1337 C1331 1.465 . S
C1337 C1336 1.396 . S
C1337 C1338 1.399 . S
C1338 H1324 0.929 . S
C1338 C1337 1.399 . S
C1338 C1339 1.385 . S
C1339 H1325 0.931 . S
C1339 C1338 1.385 . S
C1339 C1340 1.389 . S
C1340 C1339 1.389 . S
C1340 C1341 1.387 . S
C1341 H1326 0.930 . S
C1341 C1336 1.390 . S
C1341 C1340 1.387 . S
H1342 C1354 0.930 . S
H1343 C1356 0.930 . S
H1344 C1357 0.930 . S
H1345 C1361 0.959 . S
H1346 C1361 0.959 . S
H1347 C1361 0.961 . S
H1348 C1362 0.960 . S
H1349 C1362 0.961 . S
H1350 C1362 0.959 . S
H1351 C1365 0.929 . S
H1352 C1366 0.931 . S
H1353 C1368 0.930 . S
C1354 H1342 0.930 . S
C1354 C1355 1.399 . S
C1354 C1359 1.399 . S
C1355 C1354 1.399 . S
C1355 C1356 1.376 . S
C1356 H1343 0.930 . S
C1356 C1355 1.376 . S
C1356 C1357 1.388 . S
C1357 H1344 0.930 . S
C1357 C1356 1.388 . S
C1357 C1358 1.390 . S
C1358 C1357 1.390 . S
C1358 C1359 1.394 . S
C1358 C1364 1.465 . S
C1359 C1354 1.399 . S
C1359 C1358 1.394 . S
C1359 C1360 1.516 . S
C1360 C1359 1.516 . S
C1360 C1361 1.502 . S
C1360 C1362 1.561 . S
C1360 C1363 1.526 . S
C1361 H1345 0.959 . S
C1361 H1346 0.959 . S
C1361 H1347 0.961 . S
C1361 C1360 1.502 . S
C1362 H1348 0.960 . S
C1362 H1349 0.961 . S
C1362 H1350 0.959 . S
C1362 C1360 1.561 . S
C1363 C1360 1.526 . S
C1363 C1364 1.396 . S
C1363 C1368 1.390 . S
C1364 C1358 1.465 . S
C1364 C1363 1.396 . S
C1364 C1365 1.399 . S
C1365 H1351 0.929 . S
C1365 C1364 1.399 . S
C1365 C1366 1.385 . S
C1366 H1352 0.931 . S
C1366 C1365 1.385 . S
C1366 C1367 1.389 . S
C1367 C1366 1.389 . S
C1367 C1368 1.387 . S
C1368 H1353 0.930 . S
C1368 C1363 1.390 . S
C1368 C1367 1.387 . S
H1369 C1381 0.930 . S
H1370 C1383 0.930 . S
H1371 C1384 0.930 . S
H1372 C1388 0.959 . S
H1373 C1388 0.959 . S
H1374 C1388 0.961 . S
H1375 C1389 0.960 . S
H1376 C1389 0.961 . S
H1377 C1389 0.959 . S
H1378 C1392 0.929 . S
H1379 C1393 0.931 . S
H1380 C1395 0.930 . S
C1381 H1369 0.930 . S
C1381 C1382 1.399 . S
C1381 C1386 1.399 . S
C1382 C1381 1.399 . S
C1382 C1383 1.376 . S
C1383 H1370 0.930 . S
C1383 C1382 1.376 . S
C1383 C1384 1.388 . S
C1384 H1371 0.930 . S
C1384 C1383 1.388 . S
C1384 C1385 1.390 . S
C1385 C1384 1.390 . S
C1385 C1386 1.394 . S
C1385 C1391 1.465 . S
C1386 C1381 1.399 . S
C1386 C1385 1.394 . S
C1386 C1387 1.516 . S
C1387 C1386 1.516 . S
C1387 C1388 1.502 . S
C1387 C1389 1.561 . S
C1387 C1390 1.526 . S
C1388 H1372 0.959 . S
C1388 H1373 0.959 . S
C1388 H1374 0.961 . S
C1388 C1387 1.502 . S
C1389 H1375 0.960 . S
C1389 H1376 0.961 . S
C1389 H1377 0.959 . S
C1389 C1387 1.561 . S
C1390 C1387 1.526 . S
C1390 C1391 1.396 . S
C1390 C1395 1.390 . S
C1391 C1385 1.465 . S
C1391 C1390 1.396 . S
C1391 C1392 1.399 . S
C1392 H1378 0.929 . S
C1392 C1391 1.399 . S
C1392 C1393 1.385 . S
C1393 H1379 0.931 . S
C1393 C1392 1.385 . S
C1393 C1394 1.389 . S
C1394 C1393 1.389 . S
C1394 C1395 1.387 . S
C1395 H1380 0.930 . S
C1395 C1390 1.390 . S
C1395 C1394 1.387 . S
H1396 C1408 0.930 . S
H1397 C1410 0.930 . S
H1398 C1411 0.930 . S
H1399 C1415 0.959 . S
H1400 C1415 0.959 . S
H1401 C1415 0.961 1_655 S
H1402 C1416 0.960 1_655 S
H1403 C1416 0.961 . S
H1404 C1416 0.959 . S
H1405 C1419 0.929 . S
H1406 C1420 0.931 . S
H1407 C1422 0.930 . S
C1408 H1396 0.930 . S
C1408 C1409 1.399 . S
C1408 C1413 1.399 . S
C1409 C1408 1.399 . S
C1409 C1410 1.376 . S
C1410 H1397 0.930 . S
C1410 C1409 1.376 . S
C1410 C1411 1.388 . S
C1411 H1398 0.930 . S
C1411 C1410 1.388 . S
C1411 C1412 1.390 . S
C1412 C1411 1.390 . S
C1412 C1413 1.394 . S
C1412 C1418 1.465 1_655 S
C1413 C1408 1.399 . S
C1413 C1412 1.394 . S
C1413 C1414 1.516 1_655 S
C1414 C1413 1.516 1_455 S
C1414 C1415 1.502 . S
C1414 C1416 1.561 . S
C1414 C1417 1.526 . S
C1415 H1399 0.959 . S
C1415 H1400 0.959 . S
C1415 H1401 0.961 1_455 S
C1415 C1414 1.502 . S
C1416 H1402 0.960 1_455 S
C1416 H1403 0.961 . S
C1416 H1404 0.959 . S
C1416 C1414 1.561 . S
C1417 C1414 1.526 . S
C1417 C1418 1.396 . S
C1417 C1422 1.390 . S
C1418 C1412 1.465 1_455 S
C1418 C1417 1.396 . S
C1418 C1419 1.399 . S
C1419 H1405 0.929 . S
C1419 C1418 1.399 . S
C1419 C1420 1.385 . S
C1420 H1406 0.931 . S
C1420 C1419 1.385 . S
C1420 C1421 1.389 . S
C1421 C1420 1.389 . S
C1421 C1422 1.387 . S
C1422 H1407 0.930 . S
C1422 C1417 1.390 . S
C1422 C1421 1.387 . S
H1423 C1435 0.930 . S
H1424 C1437 0.930 . S
H1425 C1438 0.930 . S
H1426 C1442 0.959 . S
H1427 C1442 0.959 . S
H1428 C1442 0.961 . S
H1429 C1443 0.960 . S
H1430 C1443 0.961 . S
H1431 C1443 0.959 . S
H1432 C1446 0.929 . S
H1433 C1447 0.931 . S
H1434 C1449 0.930 . S
C1435 H1423 0.930 . S
C1435 C1436 1.399 . S
C1435 C1440 1.399 . S
C1436 C1435 1.399 . S
C1436 C1437 1.376 . S
C1437 H1424 0.930 . S
C1437 C1436 1.376 . S
C1437 C1438 1.388 . S
C1438 H1425 0.930 . S
C1438 C1437 1.388 . S
C1438 C1439 1.390 . S
C1439 C1438 1.390 . S
C1439 C1440 1.394 . S
C1439 C1445 1.465 . S
C1440 C1435 1.399 . S
C1440 C1439 1.394 . S
C1440 C1441 1.516 . S
C1441 C1440 1.516 . S
C1441 C1442 1.502 . S
C1441 C1443 1.561 . S
C1441 C1444 1.526 . S
C1442 H1426 0.959 . S
C1442 H1427 0.959 . S
C1442 H1428 0.961 . S
C1442 C1441 1.502 . S
C1443 H1429 0.960 . S
C1443 H1430 0.961 . S
C1443 H1431 0.959 . S
C1443 C1441 1.561 . S
C1444 C1441 1.526 . S
C1444 C1445 1.396 . S
C1444 C1449 1.390 . S
C1445 C1439 1.465 . S
C1445 C1444 1.396 . S
C1445 C1446 1.399 . S
C1446 H1432 0.929 . S
C1446 C1445 1.399 . S
C1446 C1447 1.385 . S
C1447 H1433 0.931 . S
C1447 C1446 1.385 . S
C1447 C1448 1.389 . S
C1448 C1447 1.389 . S
C1448 C1449 1.387 . S
C1449 H1434 0.930 . S
C1449 C1444 1.390 . S
C1449 C1448 1.387 . S
H1450 C1462 0.930 . S
H1451 C1464 0.930 . S
H1452 C1465 0.930 . S
H1453 C1469 0.959 . S
H1454 C1469 0.959 . S
H1455 C1469 0.961 . S
H1456 C1470 0.960 . S
H1457 C1470 0.961 . S
H1458 C1470 0.959 . S
H1459 C1473 0.929 . S
H1460 C1474 0.931 . S
H1461 C1476 0.930 . S
C1462 H1450 0.930 . S
C1462 C1463 1.399 . S
C1462 C1467 1.399 . S
C1463 C1462 1.399 . S
C1463 C1464 1.376 . S
C1464 H1451 0.930 . S
C1464 C1463 1.376 . S
C1464 C1465 1.388 . S
C1465 H1452 0.930 . S
C1465 C1464 1.388 . S
C1465 C1466 1.390 . S
C1466 C1465 1.390 . S
C1466 C1467 1.394 . S
C1466 C1472 1.465 . S
C1467 C1462 1.399 . S
C1467 C1466 1.394 . S
C1467 C1468 1.516 . S
C1468 C1467 1.516 . S
C1468 C1469 1.502 . S
C1468 C1470 1.561 . S
C1468 C1471 1.526 . S
C1469 H1453 0.959 . S
C1469 H1454 0.959 . S
C1469 H1455 0.961 . S
C1469 C1468 1.502 . S
C1470 H1456 0.960 . S
C1470 H1457 0.961 . S
C1470 H1458 0.959 . S
C1470 C1468 1.561 . S
C1471 C1468 1.526 . S
C1471 C1472 1.396 . S
C1471 C1476 1.390 . S
C1472 C1466 1.465 . S
C1472 C1471 1.396 . S
C1472 C1473 1.399 . S
C1473 H1459 0.929 . S
C1473 C1472 1.399 . S
C1473 C1474 1.385 . S
C1474 H1460 0.931 . S
C1474 C1473 1.385 . S
C1474 C1475 1.389 . S
C1475 C1474 1.389 . S
C1475 C1476 1.387 . S
C1476 H1461 0.930 . S
C1476 C1471 1.390 . S
C1476 C1475 1.387 . S
H1477 C1489 0.930 . S
H1478 C1491 0.930 . S
H1479 C1492 0.930 . S
H1480 C1496 0.959 . S
H1481 C1496 0.959 . S
H1482 C1496 0.961 1_455 S
H1483 C1497 0.960 1_455 S
H1484 C1497 0.961 . S
H1485 C1497 0.959 . S
H1486 C1500 0.929 . S
H1487 C1501 0.931 . S
H1488 C1503 0.930 . S
C1489 H1477 0.930 . S
C1489 C1490 1.399 . S
C1489 C1494 1.399 . S
C1490 C1489 1.399 . S
C1490 C1491 1.376 . S
C1491 H1478 0.930 . S
C1491 C1490 1.376 . S
C1491 C1492 1.388 . S
C1492 H1479 0.930 . S
C1492 C1491 1.388 . S
C1492 C1493 1.390 . S
C1493 C1492 1.390 . S
C1493 C1494 1.394 . S
C1493 C1499 1.465 1_455 S
C1494 C1489 1.399 . S
C1494 C1493 1.394 . S
C1494 C1495 1.516 1_455 S
C1495 C1494 1.516 1_655 S
C1495 C1496 1.502 . S
C1495 C1497 1.561 . S
C1495 C1498 1.526 . S
C1496 H1480 0.959 . S
C1496 H1481 0.959 . S
C1496 H1482 0.961 1_655 S
C1496 C1495 1.502 . S
C1497 H1483 0.960 1_655 S
C1497 H1484 0.961 . S
C1497 H1485 0.959 . S
C1497 C1495 1.561 . S
C1498 C1495 1.526 . S
C1498 C1499 1.396 . S
C1498 C1503 1.390 . S
C1499 C1493 1.465 1_655 S
C1499 C1498 1.396 . S
C1499 C1500 1.399 . S
C1500 H1486 0.929 . S
C1500 C1499 1.399 . S
C1500 C1501 1.385 . S
C1501 H1487 0.931 . S
C1501 C1500 1.385 . S
C1501 C1502 1.389 . S
C1502 C1501 1.389 . S
C1502 C1503 1.387 . S
C1503 H1488 0.930 . S
C1503 C1498 1.390 . S
C1503 C1502 1.387 . S
H1504 C1516 0.930 . S
H1505 C1518 0.930 . S
H1506 C1519 0.930 . S
H1507 C1523 0.969 . S
H1508 C1523 0.962 . S
H1509 C1523 0.958 1_554 S
H1510 C1524 0.960 . S
H1511 C1524 0.961 . S
H1512 C1524 0.959 . S
H1513 C1527 0.929 . S
H1514 C1528 0.931 . S
H1515 C1530 0.930 . S
C1516 H1504 0.930 . S
C1516 C1517 1.399 . S
C1516 C1521 1.399 . S
C1517 C1516 1.399 . S
C1517 C1518 1.376 . S
C1518 H1505 0.930 . S
C1518 C1517 1.376 . S
C1518 C1519 1.388 . S
C1519 H1506 0.930 . S
C1519 C1518 1.388 . S
C1519 C1520 1.390 . S
C1520 C1519 1.390 . S
C1520 C1521 1.394 . S
C1520 C1526 1.465 . S
C1521 C1516 1.399 . S
C1521 C1520 1.394 . S
C1521 C1522 1.516 . S
C1522 C1521 1.516 . S
C1522 C1523 1.493 1_554 S
C1522 C1524 1.561 . S
C1522 C1525 1.526 . S
C1523 H1507 0.969 . S
C1523 H1508 0.962 . S
C1523 H1509 0.958 1_556 S
C1523 C1522 1.493 1_556 S
C1524 H1510 0.960 . S
C1524 H1511 0.961 . S
C1524 H1512 0.959 . S
C1524 C1522 1.561 . S
C1525 C1522 1.526 . S
C1525 C1526 1.396 . S
C1525 C1530 1.390 1_554 S
C1526 C1520 1.465 . S
C1526 C1525 1.396 . S
C1526 C1527 1.399 . S
C1527 H1513 0.929 . S
C1527 C1526 1.399 . S
C1527 C1528 1.385 1_554 S
C1528 H1514 0.931 . S
C1528 C1527 1.385 1_556 S
C1528 C1529 1.389 . S
C1529 C1528 1.389 . S
C1529 C1530 1.387 . S
C1530 H1515 0.930 . S
C1530 C1525 1.390 1_556 S
C1530 C1529 1.387 . S
H1531 C1543 0.930 . S
H1532 C1545 0.930 . S
H1533 C1546 0.930 . S
H1534 C1550 0.959 . S
H1535 C1550 0.959 . S
H1536 C1550 0.961 . S
H1537 C1551 0.960 . S
H1538 C1551 0.961 . S
H1539 C1551 0.959 . S
H1540 C1554 0.929 . S
H1541 C1555 0.931 . S
H1542 C1557 0.930 . S
C1543 H1531 0.930 . S
C1543 C1544 1.399 . S
C1543 C1548 1.399 . S
C1544 C1543 1.399 . S
C1544 C1545 1.376 . S
C1545 H1532 0.930 . S
C1545 C1544 1.376 . S
C1545 C1546 1.388 . S
C1546 H1533 0.930 . S
C1546 C1545 1.388 . S
C1546 C1547 1.390 . S
C1547 C1546 1.390 . S
C1547 C1548 1.394 . S
C1547 C1553 1.465 . S
C1548 C1543 1.399 . S
C1548 C1547 1.394 . S
C1548 C1549 1.516 . S
C1549 C1548 1.516 . S
C1549 C1550 1.502 . S
C1549 C1551 1.561 . S
C1549 C1552 1.526 . S
C1550 H1534 0.959 . S
C1550 H1535 0.959 . S
C1550 H1536 0.961 . S
C1550 C1549 1.502 . S
C1551 H1537 0.960 . S
C1551 H1538 0.961 . S
C1551 H1539 0.959 . S
C1551 C1549 1.561 . S
C1552 C1549 1.526 . S
C1552 C1553 1.396 . S
C1552 C1557 1.390 . S
C1553 C1547 1.465 . S
C1553 C1552 1.396 . S
C1553 C1554 1.399 . S
C1554 H1540 0.929 . S
C1554 C1553 1.399 . S
C1554 C1555 1.385 . S
C1555 H1541 0.931 . S
C1555 C1554 1.385 . S
C1555 C1556 1.389 . S
C1556 C1555 1.389 . S
C1556 C1557 1.387 . S
C1557 H1542 0.930 . S
C1557 C1552 1.390 . S
C1557 C1556 1.387 . S
H1558 C1570 0.930 . S
H1559 C1572 0.930 . S
H1560 C1573 0.930 . S
H1561 C1577 0.959 . S
H1562 C1577 0.959 . S
H1563 C1577 0.961 . S
H1564 C1578 0.960 . S
H1565 C1578 0.961 . S
H1566 C1578 0.959 . S
H1567 C1581 0.929 . S
H1568 C1582 0.931 . S
H1569 C1584 0.930 . S
C1570 H1558 0.930 . S
C1570 C1571 1.399 . S
C1570 C1575 1.399 . S
C1571 C1570 1.399 . S
C1571 C1572 1.376 . S
C1572 H1559 0.930 . S
C1572 C1571 1.376 . S
C1572 C1573 1.388 . S
C1573 H1560 0.930 . S
C1573 C1572 1.388 . S
C1573 C1574 1.390 . S
C1574 C1573 1.390 . S
C1574 C1575 1.394 . S
C1574 C1580 1.465 . S
C1575 C1570 1.399 . S
C1575 C1574 1.394 . S
C1575 C1576 1.516 . S
C1576 C1575 1.516 . S
C1576 C1577 1.502 . S
C1576 C1578 1.561 . S
C1576 C1579 1.526 . S
C1577 H1561 0.959 . S
C1577 H1562 0.959 . S
C1577 H1563 0.961 . S
C1577 C1576 1.502 . S
C1578 H1564 0.960 . S
C1578 H1565 0.961 . S
C1578 H1566 0.959 . S
C1578 C1576 1.561 . S
C1579 C1576 1.526 . S
C1579 C1580 1.396 . S
C1579 C1584 1.390 . S
C1580 C1574 1.465 . S
C1580 C1579 1.396 . S
C1580 C1581 1.399 . S
C1581 H1567 0.929 . S
C1581 C1580 1.399 . S
C1581 C1582 1.385 . S
C1582 H1568 0.931 . S
C1582 C1581 1.385 . S
C1582 C1583 1.389 . S
C1583 C1582 1.389 . S
C1583 C1584 1.387 . S
C1584 H1569 0.930 . S
C1584 C1579 1.390 . S
C1584 C1583 1.387 . S
H1585 C1597 0.930 . S
H1586 C1599 0.930 . S
H1587 C1600 0.930 . S
H1588 C1604 0.959 . S
H1589 C1604 0.959 . S
H1590 C1604 0.961 . S
H1591 C1605 0.960 . S
H1592 C1605 0.961 . S
H1593 C1605 0.959 . S
H1594 C1608 0.929 . S
H1595 C1609 0.931 . S
H1596 C1611 0.930 . S
C1597 H1585 0.930 . S
C1597 C1598 1.399 . S
C1597 C1602 1.399 . S
C1598 C1597 1.399 . S
C1598 C1599 1.376 . S
C1599 H1586 0.930 . S
C1599 C1598 1.376 . S
C1599 C1600 1.388 . S
C1600 H1587 0.930 . S
C1600 C1599 1.388 . S
C1600 C1601 1.390 . S
C1601 C1600 1.390 . S
C1601 C1602 1.394 . S
C1601 C1607 1.465 . S
C1602 C1597 1.399 . S
C1602 C1601 1.394 . S
C1602 C1603 1.516 . S
C1603 C1602 1.516 . S
C1603 C1604 1.502 . S
C1603 C1605 1.561 . S
C1603 C1606 1.526 . S
C1604 H1588 0.959 . S
C1604 H1589 0.959 . S
C1604 H1590 0.961 . S
C1604 C1603 1.502 . S
C1605 H1591 0.960 . S
C1605 H1592 0.961 . S
C1605 H1593 0.959 . S
C1605 C1603 1.561 . S
C1606 C1603 1.526 . S
C1606 C1607 1.396 . S
C1606 C1611 1.390 . S
C1607 C1601 1.465 . S
C1607 C1606 1.396 . S
C1607 C1608 1.399 . S
C1608 H1594 0.929 . S
C1608 C1607 1.399 . S
C1608 C1609 1.385 . S
C1609 H1595 0.931 . S
C1609 C1608 1.385 . S
C1609 C1610 1.389 . S
C1610 C1609 1.389 . S
C1610 C1611 1.387 . S
C1611 H1596 0.930 . S
C1611 C1606 1.390 . S
C1611 C1610 1.387 . S
H1612 C1624 0.930 . S
H1613 C1626 0.930 . S
H1614 C1627 0.930 . S
H1615 C1631 0.959 . S
H1616 C1631 0.959 . S
H1617 C1631 0.961 . S
H1618 C1632 0.960 . S
H1619 C1632 0.961 . S
H1620 C1632 0.959 . S
H1621 C1635 0.929 . S
H1622 C1636 0.931 . S
H1623 C1638 0.930 . S
C1624 H1612 0.930 . S
C1624 C1625 1.399 . S
C1624 C1629 1.399 . S
C1625 C1624 1.399 . S
C1625 C1626 1.376 . S
C1626 H1613 0.930 . S
C1626 C1625 1.376 . S
C1626 C1627 1.388 1_554 S
C1627 H1614 0.930 . S
C1627 C1626 1.388 1_556 S
C1627 C1628 1.390 . S
C1628 C1627 1.390 . S
C1628 C1629 1.394 1_556 S
C1628 C1634 1.465 . S
C1629 C1624 1.399 . S
C1629 C1628 1.394 1_554 S
C1629 C1630 1.516 . S
C1630 C1629 1.516 . S
C1630 C1631 1.502 . S
C1630 C1632 1.561 . S
C1630 C1633 1.526 1_554 S
C1631 H1615 0.959 . S
C1631 H1616 0.959 . S
C1631 H1617 0.961 . S
C1631 C1630 1.502 . S
C1632 H1618 0.960 . S
C1632 H1619 0.961 . S
C1632 H1620 0.959 . S
C1632 C1630 1.561 . S
C1633 C1630 1.526 1_556 S
C1633 C1634 1.396 . S
C1633 C1638 1.390 . S
C1634 C1628 1.465 . S
C1634 C1633 1.396 . S
C1634 C1635 1.399 . S
C1635 H1621 0.929 . S
C1635 C1634 1.399 . S
C1635 C1636 1.385 . S
C1636 H1622 0.931 . S
C1636 C1635 1.385 . S
C1636 C1637 1.389 . S
C1637 C1636 1.389 . S
C1637 C1638 1.387 . S
C1638 H1623 0.930 . S
C1638 C1633 1.390 . S
C1638 C1637 1.387 . S
H1639 C1651 0.930 . S
H1640 C1653 0.930 . S
H1641 C1654 0.930 . S
H1642 C1658 0.959 . S
H1643 C1658 0.959 . S
H1644 C1658 0.961 . S
H1645 C1659 0.960 . S
H1646 C1659 0.961 . S
H1647 C1659 0.959 . S
H1648 C1662 0.929 . S
H1649 C1663 0.931 . S
H1650 C1665 0.930 . S
C1651 H1639 0.930 . S
C1651 C1652 1.399 . S
C1651 C1656 1.399 . S
C1652 C1651 1.399 . S
C1652 C1653 1.376 . S
C1653 H1640 0.930 . S
C1653 C1652 1.376 . S
C1653 C1654 1.388 . S
C1654 H1641 0.930 . S
C1654 C1653 1.388 . S
C1654 C1655 1.390 . S
C1655 C1654 1.390 . S
C1655 C1656 1.394 . S
C1655 C1661 1.465 . S
C1656 C1651 1.399 . S
C1656 C1655 1.394 . S
C1656 C1657 1.516 . S
C1657 C1656 1.516 . S
C1657 C1658 1.502 . S
C1657 C1659 1.561 . S
C1657 C1660 1.526 . S
C1658 H1642 0.959 . S
C1658 H1643 0.959 . S
C1658 H1644 0.961 . S
C1658 C1657 1.502 . S
C1659 H1645 0.960 . S
C1659 H1646 0.961 . S
C1659 H1647 0.959 . S
C1659 C1657 1.561 . S
C1660 C1657 1.526 . S
C1660 C1661 1.396 . S
C1660 C1665 1.390 . S
C1661 C1655 1.465 . S
C1661 C1660 1.396 . S
C1661 C1662 1.399 . S
C1662 H1648 0.929 . S
C1662 C1661 1.399 . S
C1662 C1663 1.385 . S
C1663 H1649 0.931 . S
C1663 C1662 1.385 . S
C1663 C1664 1.389 . S
C1664 C1663 1.389 . S
C1664 C1665 1.387 . S
C1665 H1650 0.930 . S
C1665 C1660 1.390 . S
C1665 C1664 1.387 . S
H1666 C1678 0.930 . S
H1667 C1680 0.930 . S
H1668 C1681 0.930 . S
H1669 C1685 0.959 . S
H1670 C1685 0.959 . S
H1671 C1685 0.961 . S
H1672 C1686 0.960 . S
H1673 C1686 0.961 . S
H1674 C1686 0.959 . S
H1675 C1689 0.929 . S
H1676 C1690 0.931 . S
H1677 C1692 0.930 . S
C1678 H1666 0.930 . S
C1678 C1679 1.399 . S
C1678 C1683 1.399 . S
C1679 C1678 1.399 . S
C1679 C1680 1.376 . S
C1680 H1667 0.930 . S
C1680 C1679 1.376 . S
C1680 C1681 1.388 . S
C1681 H1668 0.930 . S
C1681 C1680 1.388 . S
C1681 C1682 1.390 . S
C1682 C1681 1.390 . S
C1682 C1683 1.394 . S
C1682 C1688 1.465 . S
C1683 C1678 1.399 . S
C1683 C1682 1.394 . S
C1683 C1684 1.516 . S
C1684 C1683 1.516 . S
C1684 C1685 1.502 . S
C1684 C1686 1.561 . S
C1684 C1687 1.526 . S
C1685 H1669 0.959 . S
C1685 H1670 0.959 . S
C1685 H1671 0.961 . S
C1685 C1684 1.502 . S
C1686 H1672 0.960 . S
C1686 H1673 0.961 . S
C1686 H1674 0.959 . S
C1686 C1684 1.561 . S
C1687 C1684 1.526 . S
C1687 C1688 1.396 . S
C1687 C1692 1.390 . S
C1688 C1682 1.465 . S
C1688 C1687 1.396 . S
C1688 C1689 1.399 . S
C1689 H1675 0.929 . S
C1689 C1688 1.399 . S
C1689 C1690 1.385 . S
C1690 H1676 0.931 . S
C1690 C1689 1.385 . S
C1690 C1691 1.389 . S
C1691 C1690 1.389 . S
C1691 C1692 1.387 . S
C1692 H1677 0.930 . S
C1692 C1687 1.390 . S
C1692 C1691 1.387 . S
H1693 C1705 0.930 . S
H1694 C1707 0.930 . S
H1695 C1708 0.930 . S
H1696 C1712 0.959 . S
H1697 C1712 0.959 . S
H1698 C1712 0.961 . S
H1699 C1713 0.960 . S
H1700 C1713 0.961 . S
H1701 C1713 0.959 . S
H1702 C1716 0.929 . S
H1703 C1717 0.931 . S
H1704 C1719 0.930 . S
C1705 H1693 0.930 . S
C1705 C1706 1.399 . S
C1705 C1710 1.399 . S
C1706 C1705 1.399 . S
C1706 C1707 1.376 . S
C1707 H1694 0.930 . S
C1707 C1706 1.376 . S
C1707 C1708 1.388 . S
C1708 H1695 0.930 . S
C1708 C1707 1.388 . S
C1708 C1709 1.390 . S
C1709 C1708 1.390 . S
C1709 C1710 1.394 . S
C1709 C1715 1.465 . S
C1710 C1705 1.399 . S
C1710 C1709 1.394 . S
C1710 C1711 1.516 . S
C1711 C1710 1.516 . S
C1711 C1712 1.502 . S
C1711 C1713 1.561 . S
C1711 C1714 1.526 . S
C1712 H1696 0.959 . S
C1712 H1697 0.959 . S
C1712 H1698 0.961 . S
C1712 C1711 1.502 . S
C1713 H1699 0.960 . S
C1713 H1700 0.961 . S
C1713 H1701 0.959 . S
C1713 C1711 1.561 . S
C1714 C1711 1.526 . S
C1714 C1715 1.396 . S
C1714 C1719 1.390 . S
C1715 C1709 1.465 . S
C1715 C1714 1.396 . S
C1715 C1716 1.399 . S
C1716 H1702 0.929 . S
C1716 C1715 1.399 . S
C1716 C1717 1.385 . S
C1717 H1703 0.931 . S
C1717 C1716 1.385 . S
C1717 C1718 1.389 . S
C1718 C1717 1.389 . S
C1718 C1719 1.387 . S
C1719 H1704 0.930 . S
C1719 C1714 1.390 . S
C1719 C1718 1.387 . S
H1720 C1732 0.930 . S
H1721 C1734 0.930 . S
H1722 C1735 0.930 . S
H1723 C1739 0.959 . S
H1724 C1739 0.959 . S
H1725 C1739 0.961 . S
H1726 C1740 0.960 . S
H1727 C1740 0.961 . S
H1728 C1740 0.959 . S
H1729 C1743 0.929 . S
H1730 C1744 0.931 . S
H1731 C1746 0.930 . S
C1732 H1720 0.930 . S
C1732 C1733 1.399 . S
C1732 C1737 1.399 . S
C1733 C1732 1.399 . S
C1733 C1734 1.376 . S
C1734 H1721 0.930 . S
C1734 C1733 1.376 . S
C1734 C1735 1.388 . S
C1735 H1722 0.930 . S
C1735 C1734 1.388 . S
C1735 C1736 1.390 . S
C1736 C1735 1.390 . S
C1736 C1737 1.394 . S
C1736 C1742 1.465 1_565 S
C1737 C1732 1.399 . S
C1737 C1736 1.394 . S
C1737 C1738 1.516 1_565 S
C1738 C1737 1.516 1_545 S
C1738 C1739 1.502 . S
C1738 C1740 1.561 . S
C1738 C1741 1.526 . S
C1739 H1723 0.959 . S
C1739 H1724 0.959 . S
C1739 H1725 0.961 . S
C1739 C1738 1.502 . S
C1740 H1726 0.960 . S
C1740 H1727 0.961 . S
C1740 H1728 0.959 . S
C1740 C1738 1.561 . S
C1741 C1738 1.526 . S
C1741 C1742 1.396 . S
C1741 C1746 1.390 . S
C1742 C1736 1.465 1_545 S
C1742 C1741 1.396 . S
C1742 C1743 1.399 . S
C1743 H1729 0.929 . S
C1743 C1742 1.399 . S
C1743 C1744 1.385 . S
C1744 H1730 0.931 . S
C1744 C1743 1.385 . S
C1744 C1745 1.389 . S
C1745 C1744 1.389 . S
C1745 C1746 1.387 . S
C1746 H1731 0.930 . S
C1746 C1741 1.390 . S
C1746 C1745 1.387 . S
H1747 C1759 0.930 . S
H1748 C1761 0.930 . S
H1749 C1762 0.930 . S
H1750 C1766 0.959 . S
H1751 C1766 0.959 . S
H1752 C1766 0.961 . S
H1753 C1767 0.960 . S
H1754 C1767 0.961 . S
H1755 C1767 0.959 . S
H1756 C1770 0.929 . S
H1757 C1771 0.931 . S
H1758 C1773 0.930 . S
C1759 H1747 0.930 . S
C1759 C1760 1.399 . S
C1759 C1764 1.399 . S
C1760 C1759 1.399 . S
C1760 C1761 1.376 . S
C1761 H1748 0.930 . S
C1761 C1760 1.376 . S
C1761 C1762 1.388 . S
C1762 H1749 0.930 . S
C1762 C1761 1.388 . S
C1762 C1763 1.390 . S
C1763 C1762 1.390 . S
C1763 C1764 1.394 . S
C1763 C1769 1.465 . S
C1764 C1759 1.399 . S
C1764 C1763 1.394 . S
C1764 C1765 1.516 . S
C1765 C1764 1.516 . S
C1765 C1766 1.502 . S
C1765 C1767 1.561 . S
C1765 C1768 1.526 . S
C1766 H1750 0.959 . S
C1766 H1751 0.959 . S
C1766 H1752 0.961 . S
C1766 C1765 1.502 . S
C1767 H1753 0.960 . S
C1767 H1754 0.961 . S
C1767 H1755 0.959 . S
C1767 C1765 1.561 . S
C1768 C1765 1.526 . S
C1768 C1769 1.396 . S
C1768 C1773 1.390 . S
C1769 C1763 1.465 . S
C1769 C1768 1.396 . S
C1769 C1770 1.399 . S
C1770 H1756 0.929 . S
C1770 C1769 1.399 . S
C1770 C1771 1.385 . S
C1771 H1757 0.931 . S
C1771 C1770 1.385 . S
C1771 C1772 1.389 . S
C1772 C1771 1.389 . S
C1772 C1773 1.387 . S
C1773 H1758 0.930 . S
C1773 C1768 1.390 . S
C1773 C1772 1.387 . S
H1774 C1786 0.930 . S
H1775 C1788 0.930 1_556 S
H1776 C1789 0.930 . S
H1777 C1793 0.959 . S
H1778 C1793 0.959 . S
H1779 C1793 0.961 . S
H1780 C1794 0.960 . S
H1781 C1794 0.961 . S
H1782 C1794 0.959 . S
H1783 C1797 0.928 1_565 S
H1784 C1798 0.931 . S
H1785 C1800 0.929 . S
C1786 H1774 0.930 . S
C1786 C1787 1.399 . S
C1786 C1791 1.399 . S
C1787 C1786 1.399 . S
C1787 C1788 1.376 . S
C1788 H1775 0.930 1_554 S
C1788 C1787 1.376 . S
C1788 C1789 1.388 1_554 S
C1789 H1776 0.930 . S
C1789 C1788 1.388 1_556 S
C1789 C1790 1.390 . S
C1790 C1789 1.390 . S
C1790 C1791 1.394 1_556 S
C1790 C1796 1.439 1_565 S
C1791 C1786 1.399 . S
C1791 C1790 1.394 1_554 S
C1791 C1792 1.516 1_565 S
C1792 C1791 1.516 1_545 S
C1792 C1793 1.502 . S
C1792 C1794 1.561 . S
C1792 C1795 1.526 1_554 S
C1793 H1777 0.959 . S
C1793 H1778 0.959 . S
C1793 H1779 0.961 . S
C1793 C1792 1.502 . S
C1794 H1780 0.960 . S
C1794 H1781 0.961 . S
C1794 H1782 0.959 . S
C1794 C1792 1.561 . S
C1795 C1792 1.526 1_556 S
C1795 C1796 1.419 . S
C1795 C1800 1.390 . S
C1796 C1790 1.439 1_545 S
C1796 C1795 1.419 . S
C1796 C1797 1.404 . S
C1797 H1783 0.928 1_545 S
C1797 C1796 1.404 . S
C1797 C1798 1.386 . S
C1798 H1784 0.931 . S
C1798 C1797 1.386 . S
C1798 C1799 1.389 . S
C1799 C1798 1.389 . S
C1799 C1800 1.387 . S
C1800 H1785 0.929 . S
C1800 C1795 1.390 . S
C1800 C1799 1.387 . S
H1801 C1813 0.930 . S
H1802 C1815 0.930 . S
H1803 C1816 0.930 . S
H1804 C1820 0.959 . S
H1805 C1820 0.959 . S
H1806 C1820 0.961 . S
H1807 C1821 0.960 . S
H1808 C1821 0.961 . S
H1809 C1821 0.959 . S
H1810 C1824 0.929 . S
H1811 C1825 0.931 . S
H1812 C1827 0.930 . S
C1813 H1801 0.930 . S
C1813 C1814 1.399 . S
C1813 C1818 1.399 . S
C1814 C1813 1.399 . S
C1814 C1815 1.376 . S
C1815 H1802 0.930 . S
C1815 C1814 1.376 . S
C1815 C1816 1.388 . S
C1816 H1803 0.930 . S
C1816 C1815 1.388 . S
C1816 C1817 1.390 . S
C1817 C1816 1.390 . S
C1817 C1818 1.394 . S
C1817 C1823 1.465 . S
C1818 C1813 1.399 . S
C1818 C1817 1.394 . S
C1818 C1819 1.516 . S
C1819 C1818 1.516 . S
C1819 C1820 1.502 . S
C1819 C1821 1.561 . S
C1819 C1822 1.526 . S
C1820 H1804 0.959 . S
C1820 H1805 0.959 . S
C1820 H1806 0.961 . S
C1820 C1819 1.502 . S
C1821 H1807 0.960 . S
C1821 H1808 0.961 . S
C1821 H1809 0.959 . S
C1821 C1819 1.561 . S
C1822 C1819 1.526 . S
C1822 C1823 1.396 . S
C1822 C1827 1.390 . S
C1823 C1817 1.465 . S
C1823 C1822 1.396 . S
C1823 C1824 1.399 . S
C1824 H1810 0.929 . S
C1824 C1823 1.399 . S
C1824 C1825 1.385 . S
C1825 H1811 0.931 . S
C1825 C1824 1.385 . S
C1825 C1826 1.389 . S
C1826 C1825 1.389 . S
C1826 C1827 1.387 . S
C1827 H1812 0.930 . S
C1827 C1822 1.390 . S
C1827 C1826 1.387 . S
H1828 C1840 0.930 . S
H1829 C1842 0.930 . S
H1830 C1843 0.930 . S
H1831 C1847 0.959 . S
H1832 C1847 0.959 . S
H1833 C1847 0.961 . S
H1834 C1848 0.960 . S
H1835 C1848 0.961 1_545 S
H1836 C1848 0.959 . S
H1837 C1851 0.929 . S
H1838 C1852 0.931 . S
H1839 C1854 0.930 . S
C1840 H1828 0.930 . S
C1840 C1841 1.399 . S
C1840 C1845 1.399 . S
C1841 C1840 1.399 . S
C1841 C1842 1.376 . S
C1842 H1829 0.930 . S
C1842 C1841 1.376 . S
C1842 C1843 1.388 . S
C1843 H1830 0.930 . S
C1843 C1842 1.388 . S
C1843 C1844 1.390 . S
C1844 C1843 1.390 . S
C1844 C1845 1.394 . S
C1844 C1850 1.465 1_565 S
C1845 C1840 1.399 . S
C1845 C1844 1.394 . S
C1845 C1846 1.516 . S
C1846 C1845 1.516 . S
C1846 C1847 1.502 . S
C1846 C1848 1.561 . S
C1846 C1849 1.526 1_565 S
C1847 H1831 0.959 . S
C1847 H1832 0.959 . S
C1847 H1833 0.961 . S
C1847 C1846 1.502 . S
C1848 H1834 0.960 . S
C1848 H1835 0.961 1_565 S
C1848 H1836 0.959 . S
C1848 C1846 1.561 . S
C1849 C1846 1.526 1_545 S
C1849 C1850 1.396 . S
C1849 C1854 1.390 . S
C1850 C1844 1.465 1_545 S
C1850 C1849 1.396 . S
C1850 C1851 1.399 . S
C1851 H1837 0.929 . S
C1851 C1850 1.399 . S
C1851 C1852 1.385 . S
C1852 H1838 0.931 . S
C1852 C1851 1.385 . S
C1852 C1853 1.389 . S
C1853 C1852 1.389 . S
C1853 C1854 1.387 . S
C1854 H1839 0.930 . S
C1854 C1849 1.390 . S
C1854 C1853 1.387 . S
H1855 C1867 0.930 . S
H1856 C1869 0.930 . S
H1857 C1870 0.930 . S
H1858 C1874 0.959 . S
H1859 C1874 0.959 . S
H1860 C1874 0.961 . S
H1861 C1875 0.960 . S
H1862 C1875 0.961 . S
H1863 C1875 0.959 . S
H1864 C1878 0.929 . S
H1865 C1879 0.931 . S
H1866 C1881 0.930 . S
C1867 H1855 0.930 . S
C1867 C1868 1.399 . S
C1867 C1872 1.399 . S
C1868 C1867 1.399 . S
C1868 C1869 1.376 . S
C1869 H1856 0.930 . S
C1869 C1868 1.376 . S
C1869 C1870 1.388 . S
C1870 H1857 0.930 . S
C1870 C1869 1.388 . S
C1870 C1871 1.390 . S
C1871 C1870 1.390 . S
C1871 C1872 1.394 . S
C1871 C1877 1.465 . S
C1872 C1867 1.399 . S
C1872 C1871 1.394 . S
C1872 C1873 1.516 . S
C1873 C1872 1.516 . S
C1873 C1874 1.502 . S
C1873 C1875 1.561 . S
C1873 C1876 1.526 . S
C1874 H1858 0.959 . S
C1874 H1859 0.959 . S
C1874 H1860 0.961 . S
C1874 C1873 1.502 . S
C1875 H1861 0.960 . S
C1875 H1862 0.961 . S
C1875 H1863 0.959 . S
C1875 C1873 1.561 . S
C1876 C1873 1.526 . S
C1876 C1877 1.396 . S
C1876 C1881 1.390 . S
C1877 C1871 1.465 . S
C1877 C1876 1.396 . S
C1877 C1878 1.399 . S
C1878 H1864 0.929 . S
C1878 C1877 1.399 . S
C1878 C1879 1.385 . S
C1879 H1865 0.931 . S
C1879 C1878 1.385 . S
C1879 C1880 1.389 . S
C1880 C1879 1.389 . S
C1880 C1881 1.387 . S
C1881 H1866 0.930 . S
C1881 C1876 1.390 . S
C1881 C1880 1.387 . S
H1882 C1894 0.930 1_554 S
H1883 C1896 0.930 . S
H1884 C1897 0.939 . S
H1885 C1901 0.959 . S
H1886 C1901 0.959 . S
H1887 C1901 0.961 . S
H1888 C1902 0.960 . S
H1889 C1902 0.961 . S
H1890 C1902 0.959 . S
H1891 C1905 0.929 . S
H1892 C1906 0.931 1_556 S
H1893 C1908 0.930 . S
C1894 H1882 0.930 1_556 S
C1894 C1895 1.399 . S
C1894 C1899 1.406 . S
C1895 C1894 1.399 . S
C1895 C1896 1.376 . S
C1896 H1883 0.930 . S
C1896 C1895 1.376 . S
C1896 C1897 1.377 1_545 S
C1897 H1884 0.939 . S
C1897 C1896 1.377 1_565 S
C1897 C1898 1.392 1_565 S
C1898 C1897 1.392 1_545 S
C1898 C1899 1.402 . S
C1898 C1904 1.464 1_545 S
C1899 C1894 1.406 . S
C1899 C1898 1.402 . S
C1899 C1900 1.502 1_556 S
C1900 C1899 1.502 1_554 S
C1900 C1901 1.502 . S
C1900 C1902 1.561 . S
C1900 C1903 1.526 1_545 S
C1901 H1885 0.959 . S
C1901 H1886 0.959 . S
C1901 H1887 0.961 . S
C1901 C1900 1.502 . S
C1902 H1888 0.960 . S
C1902 H1889 0.961 . S
C1902 H1890 0.959 . S
C1902 C1900 1.561 . S
C1903 C1900 1.526 1_565 S
C1903 C1904 1.396 1_554 S
C1903 C1908 1.390 . S
C1904 C1898 1.464 1_565 S
C1904 C1903 1.396 1_556 S
C1904 C1905 1.399 . S
C1905 H1891 0.929 . S
C1905 C1904 1.399 . S
C1905 C1906 1.385 1_556 S
C1906 H1892 0.931 1_554 S
C1906 C1905 1.385 1_554 S
C1906 C1907 1.389 . S
C1907 C1906 1.389 . S
C1907 C1908 1.387 . S
C1908 H1893 0.930 . S
C1908 C1903 1.390 . S
C1908 C1907 1.387 . S
H1909 C1921 0.930 . S
H1910 C1923 0.930 . S
H1911 C1924 0.930 . S
H1912 C1928 0.959 . S
H1913 C1928 0.959 . S
H1914 C1928 0.961 . S
H1915 C1929 0.960 . S
H1916 C1929 0.961 . S
H1917 C1929 0.959 . S
H1918 C1932 0.929 . S
H1919 C1933 0.931 . S
H1920 C1935 0.930 . S
C1921 H1909 0.930 . S
C1921 C1922 1.399 . S
C1921 C1926 1.399 . S
C1922 C1921 1.399 . S
C1922 C1923 1.376 . S
C1923 H1910 0.930 . S
C1923 C1922 1.376 . S
C1923 C1924 1.388 . S
C1924 H1911 0.930 . S
C1924 C1923 1.388 . S
C1924 C1925 1.390 . S
C1925 C1924 1.390 . S
C1925 C1926 1.394 . S
C1925 C1931 1.465 . S
C1926 C1921 1.399 . S
C1926 C1925 1.394 . S
C1926 C1927 1.516 . S
C1927 C1926 1.516 . S
C1927 C1928 1.502 . S
C1927 C1929 1.561 . S
C1927 C1930 1.526 . S
C1928 H1912 0.959 . S
C1928 H1913 0.959 . S
C1928 H1914 0.961 . S
C1928 C1927 1.502 . S
C1929 H1915 0.960 . S
C1929 H1916 0.961 . S
C1929 H1917 0.959 . S
C1929 C1927 1.561 . S
C1930 C1927 1.526 . S
C1930 C1931 1.396 . S
C1930 C1935 1.390 . S
C1931 C1925 1.465 . S
C1931 C1930 1.396 . S
C1931 C1932 1.399 . S
C1932 H1918 0.929 . S
C1932 C1931 1.399 . S
C1932 C1933 1.385 . S
C1933 H1919 0.931 . S
C1933 C1932 1.385 . S
C1933 C1934 1.389 . S
C1934 C1933 1.389 . S
C1934 C1935 1.387 . S
C1935 H1920 0.930 . S
C1935 C1930 1.390 . S
C1935 C1934 1.387 . S
C653 C7 1.888 . S
C665 C16 1.837 . S
C680 C56 1.840 1_556 S
C692 C47 1.768 . S
C707 C87 1.884 . S
C719 C96 1.822 1_554 S
C734 C127 1.562 . S
C746 C136 1.533 . S
C761 C167 1.763 . S
C773 C176 1.813 . S
C788 C216 1.540 . S
C800 C207 1.587 . S
C815 C256 1.551 . S
C827 C247 1.500 . S
C842 C296 1.844 . S
C854 C287 1.888 . S
C869 C336 1.748 . S
C881 C327 1.793 . S
C896 C376 1.792 . S
C908 C367 1.741 . S
C923 C416 1.680 1_556 S
C935 C407 1.619 . S
C950 C456 1.496 . S
C962 C447 1.538 . S
C977 C496 1.868 . S
C989 C487 1.820 . S
C1004 C536 1.616 . S
C1016 C527 1.678 . S
C1031 C567 1.548 . S
C1043 C576 1.584 . S
C1058 C607 1.993 1_556 S
C1070 C616 1.967 . S
C1085 C10 1.588 . S
C1097 C451 1.671 . S
C1112 C42 1.695 . S
C1124 C611 1.687 . S
C1139 C90 1.652 . S
C1151 C379 1.621 . S
C1166 C130 1.748 . S
C1178 C539 1.761 . S
C1193 C170 1.720 . S
C1205 C531 1.715 . S
C1220 C459 1.700 . S
C1232 C210 1.698 . S
C1247 C242 1.663 . S
C1259 C619 1.614 . S
C1274 C282 1.777 . S
C1286 C371 1.784 . S
C1301 C122 1.722 . S
C1313 C339 1.706 . S
C1328 C50 1.660 . S
C1340 C411 1.712 . S
C1355 C499 1.683 . S
C1367 C202 1.753 . S
C1382 C290 1.526 . S
C1394 C571 1.615 . S
C1409 C331 1.798 . S
C1421 C162 1.778 . S
C1436 C250 1.720 . S
C1448 C419 1.797 . S
C1463 C82 1.851 . S
C1475 C579 1.820 . S
C1490 C2 1.731 . S
C1502 C491 1.720 . S
C1517 C19 1.328 . S
C1529 C179 1.325 . S
C1544 C51 1.722 . S
C1556 C219 1.750 . S
C1571 C99 2.054 . S
C1583 C251 2.071 . S
C1598 C139 1.729 . S
C1610 C291 1.705 . S
C1625 C490 1.449 . S
C1637 C330 1.436 . S
C1652 C530 1.957 . S
C1664 C362 1.983 . S
C1679 C402 1.871 . S
C1691 C562 1.871 . S
C1706 C602 1.574 . S
C1718 C450 1.612 . S
C1733 C59 1.322 . S
C1745 C299 1.313 . S
C1760 C171 1.790 . S
C1772 C91 1.793 . S
C1787 C211 2.050 . S
C1799 C131 2.056 . S
C1814 C11 1.727 . S
C1826 C259 1.707 . S
C1841 C610 1.251 . S
C1853 C370 1.277 . S
C1868 C482 1.702 . S
C1880 C410 1.735 . S
C1895 C522 2.074 . S
C1907 C442 2.061 . S
C1922 C570 1.800 . S
C1934 C322 1.821 . S
