# Generated by pormake.
# Topology hcp, (12)-cn, num edge types: 1
# Building blocks:
#     Node 0, Type 0, BuildingBlock: EZIPEK_clean_sbu_0, # of connection points: 12
#     Node 1, Type 0, BuildingBlock: EZIPEK_clean_sbu_0, # of connection points: 12
#     Edge 2, Type (0, 0), BuildingBlock: FUNLAD_clean_linker_0, # of connection points: 2
#     Edge 3, Type (0, 0), BuildingBlock: FUNLAD_clean_linker_0, # of connection points: 2
#     Edge 4, Type (0, 0), BuildingBlock: FUNLAD_clean_linker_0, # of connection points: 2
#     Edge 5, Type (0, 0), BuildingBlock: FUNLAD_clean_linker_0, # of connection points: 2
#     Edge 6, Type (0, 0), BuildingBlock: FUNLAD_clean_linker_0, # of connection points: 2
#     Edge 7, Type (0, 0), BuildingBlock: FUNLAD_clean_linker_0, # of connection points: 2
#     Edge 8, Type (0, 0), BuildingBlock: FUNLAD_clean_linker_0, # of connection points: 2
#     Edge 9, Type (0, 0), BuildingBlock: FUNLAD_clean_linker_0, # of connection points: 2
#     Edge 10, Type (0, 0), BuildingBlock: FUNLAD_clean_linker_0, # of connection points: 2
#     Edge 11, Type (0, 0), BuildingBlock: FUNLAD_clean_linker_0, # of connection points: 2
#     Edge 12, Type (0, 0), BuildingBlock: FUNLAD_clean_linker_0, # of connection points: 2
#     Edge 13, Type (0, 0), BuildingBlock: FUNLAD_clean_linker_0, # of connection points: 2
# Relax obj value: 0.186
# Max RMSD: 0.270
# Mean RMSD: 0.270
data_MOF--net-hcp--node1-EZIPEK_clean_sbu_0--edge1-FUNLAD_clean_linker_0
_symmetry_space_group_name_H-M    P1
_symmetry_Int_Tables_number       1
_symmetry_cell_setting            triclinic
loop_
_symmetry_equiv_pos_as_xyz
'x, y, z'
_cell_length_a     21.254109
_cell_length_b     21.253734
_cell_length_c     32.89137
_cell_angle_alpha  89.578044
_cell_angle_beta   90.337594
_cell_angle_gamma 120.2299
loop_
_atom_site_label
_atom_site_type_symbol
_atom_site_fract_x
_atom_site_fract_y
_atom_site_fract_z
_atom_type_partial_charge
C0 C 0.66641 0.11783 0.29813 0.0
C1 C 0.8001 0.39254 0.17711 0.0
C2 C 0.51124 0.24815 0.40558 0.0
C3 C 0.63418 0.52798 0.28086 0.0
C4 C 0.42262 0.3011 0.28742 0.0
C5 C 0.57273 0.16492 0.1803 0.0
C6 C 0.69974 0.46605 0.40209 0.0
C7 C 0.86896 0.34192 0.29113 0.0
C8 C 0.85121 0.54901 0.29123 0.0
C9 C 0.5697 0.39517 0.17694 0.0
C10 C 0.73017 0.27415 0.40815 0.0
C11 C 0.44518 0.1009 0.28902 0.0
Eu12 Eu 0.70678 0.26756 0.24657 0.0
O13 O 0.64926 0.31981 0.22338 0.0
O14 O 0.70572 0.27751 0.31208 0.0
Eu15 Eu 0.53758 0.26194 0.24351 0.0
Eu16 Eu 0.75771 0.38798 0.33452 0.0
O17 O 0.59966 0.218 0.2709 0.0
O18 O 0.75237 0.37729 0.2692 0.0
Eu19 Eu 0.59865 0.21392 0.33639 0.0
Eu20 Eu 0.70279 0.43245 0.24156 0.0
O21 O 0.54209 0.26487 0.30924 0.0
O22 O 0.59406 0.3703 0.26588 0.0
O23 O 0.6941 0.42878 0.30712 0.0
O24 O 0.64628 0.32601 0.35228 0.0
Eu25 Eu 0.58433 0.37344 0.33075 0.0
O26 O 0.69785 0.16131 0.26616 0.0
O27 O 0.77558 0.3259 0.19218 0.0
O28 O 0.52878 0.3142 0.39088 0.0
O29 O 0.59553 0.48059 0.31028 0.0
O30 O 0.43742 0.26831 0.25773 0.0
O31 O 0.53103 0.19179 0.19154 0.0
O32 O 0.74779 0.44518 0.39209 0.0
O33 O 0.85649 0.37933 0.31924 0.0
O34 O 0.80987 0.53236 0.25795 0.0
O35 O 0.6376 0.43952 0.18952 0.0
O36 O 0.66313 0.22374 0.39563 0.0
O37 O 0.4905 0.11505 0.32037 0.0
O38 O 0.6406 0.45106 0.38098 0.0
O39 O 0.46823 0.34109 0.31688 0.0
O40 O 0.82191 0.29836 0.26299 0.0
O41 O 0.63867 0.18481 0.19612 0.0
O42 O 0.78126 0.4403 0.19072 0.0
O43 O 0.67686 0.52088 0.25394 0.0
O44 O 0.62893 0.12796 0.32706 0.0
O45 O 0.52675 0.20148 0.38834 0.0
O46 O 0.45281 0.1462 0.25867 0.0
O47 O 0.52475 0.32794 0.19142 0.0
O48 O 0.77497 0.33506 0.38856 0.0
O49 O 0.84062 0.50485 0.32253 0.0
C50 C 0.29886 0.43976 0.78625 0.0
C51 C 0.1733 0.5966 0.67399 0.0
C52 C 0.45046 0.71036 0.90603 0.0
C53 C 0.34651 0.88962 0.78629 0.0
C54 C 0.26683 0.74741 0.90309 0.0
C55 C 0.09824 0.46654 0.78043 0.0
C56 C 0.54804 0.86971 0.79335 0.0
C57 C 0.40234 0.59028 0.67858 0.0
C58 C 0.4026 0.81931 0.67556 0.0
C59 C 0.12129 0.69275 0.78858 0.0
C60 C 0.52868 0.65611 0.79259 0.0
C61 C 0.23201 0.52353 0.90194 0.0
Eu62 Eu 0.26374 0.55728 0.74065 0.0
O63 O 0.21932 0.62021 0.76565 0.0
O64 O 0.37 0.61038 0.76665 0.0
Eu65 Eu 0.20882 0.61748 0.8309 0.0
Eu66 Eu 0.43557 0.72018 0.74367 0.0
O67 O 0.25974 0.55938 0.80642 0.0
O68 O 0.32495 0.66961 0.72172 0.0
Eu69 Eu 0.36554 0.59851 0.83184 0.0
Eu70 Eu 0.27235 0.72793 0.74189 0.0
O71 O 0.3192 0.6626 0.85022 0.0
O72 O 0.27641 0.72514 0.80762 0.0
O73 O 0.37963 0.77085 0.76796 0.0
O74 O 0.42507 0.70914 0.80898 0.0
Eu75 Eu 0.38478 0.77443 0.83332 0.0
O76 O 0.26818 0.45607 0.75566 0.0
O77 O 0.19978 0.55442 0.68561 0.0
O78 O 0.43476 0.76132 0.89353 0.0
O79 O 0.38022 0.87506 0.81612 0.0
O80 O 0.21764 0.67976 0.89074 0.0
O81 O 0.11003 0.51188 0.81125 0.0
O82 O 0.53323 0.82823 0.76048 0.0
O83 O 0.44682 0.65664 0.69298 0.0
O84 O 0.33469 0.79487 0.68798 0.0
O85 O 0.16731 0.72334 0.7577 0.0
O86 O 0.47634 0.61325 0.81866 0.0
O87 O 0.29849 0.53923 0.88937 0.0
O88 O 0.50261 0.85774 0.82393 0.0
O89 O 0.32738 0.79263 0.88355 0.0
O90 O 0.33327 0.5461 0.69059 0.0
O91 O 0.14647 0.47334 0.75242 0.0
O92 O 0.19041 0.66057 0.6911 0.0
O93 O 0.30503 0.84386 0.75712 0.0
O94 O 0.33597 0.48365 0.81691 0.0
O95 O 0.43482 0.65036 0.886 0.0
O96 O 0.18873 0.54252 0.88312 0.0
O97 O 0.12711 0.65312 0.81836 0.0
O98 O 0.52453 0.69864 0.7639 0.0
O99 O 0.44901 0.80046 0.69187 0.0
C100 C 0.29243 0.85172 0.94675 0.0
C101 C 0.26337 0.77593 0.94355 0.0
C102 C 0.32289 0.88798 0.98314 0.0
C103 C 0.32312 0.84923 1.01775 0.0
C104 C 0.286 0.77261 1.01619 0.0
C105 C 0.25687 0.73617 0.97918 0.0
C106 C 0.36181 0.88935 0.05523 0.0
C107 C 0.43105 0.94621 0.05412 0.0
C108 C 0.46739 -0.00359 0.08905 0.0
C109 C 0.54371 0.03227 0.09402 0.0
C110 C 0.57894 0.08557 0.12434 0.0
C111 C 0.5386 0.10585 0.14924 0.0
H112 H 0.3689 -0.00926 0.11116 0.0
C113 C 0.46232 0.06963 0.14385 0.0
C114 C 0.42728 0.01534 0.11474 0.0
H115 H 0.42892 0.08396 0.16178 0.0
H116 H 0.29819 0.88408 0.91989 0.0
H117 H 0.34873 0.9468 0.98382 0.0
H118 H 0.28387 0.74135 1.04284 0.0
H119 H 0.23522 0.67806 0.97772 0.0
H120 H 0.33266 0.87231 0.08389 0.0
H121 H 0.46159 0.95817 1.02594 0.0
H122 H 0.57617 0.0195 0.07416 0.0
H123 H 0.63759 0.11235 0.12737 0.0
C124 C 0.51071 0.58928 0.65057 0.0
C125 C 0.43567 0.5649 0.64791 0.0
C126 C 0.54617 0.57332 0.62016 0.0
C127 C 0.50761 0.53276 0.58596 0.0
C128 C 0.43207 0.50644 0.58383 0.0
C129 C 0.39619 0.52157 0.61474 0.0
C130 C 0.54569 0.52348 0.55043 0.0
C131 C 0.61081 0.52638 0.55239 0.0
C132 C 0.64863 0.52282 0.51514 0.0
C133 C 0.68412 0.48195 0.5148 0.0
C134 C 0.71092 0.4706 0.47819 0.0
C135 C 0.70324 0.50072 0.44164 0.0
H136 H 0.62417 0.59351 0.47899 0.0
C137 C 0.67578 0.54869 0.44325 0.0
C138 C 0.64834 0.55918 0.47942 0.0
H139 H 0.66953 0.57318 0.41562 0.0
H140 H 0.54273 0.62233 0.67596 0.0
H141 H 0.60439 0.5958 0.62277 0.0
H142 H 0.40096 0.47538 0.5577 0.0
H143 H 0.33851 0.50222 0.61176 0.0
H144 H 0.51861 0.51398 0.52109 0.0
H145 H 0.63559 0.5285 0.58168 0.0
H146 H 0.68668 0.45475 0.54221 0.0
H147 H 0.73171 0.43351 0.47792 0.0
C148 C 0.85999 0.35959 0.1224 0.0
C149 C 0.85515 0.41405 0.14394 0.0
C150 C 0.91632 0.37708 0.09476 0.0
C151 C 0.97053 0.45007 0.08771 0.0
C152 C 0.9643 0.50481 0.10823 0.0
C153 C 0.9074 0.48715 0.13596 0.0
C154 C 0.03314 0.47141 0.05893 0.0
C155 C 0.04826 0.42388 1.04018 0.0
C156 C 0.10562 0.44538 1.00834 0.0
C157 C 0.09212 0.39793 0.97563 0.0
C158 C 0.13956 0.41973 0.94236 0.0
C159 C 0.20306 0.48843 0.94169 0.0
H160 H 0.18521 0.54912 1.03432 0.0
C161 C 0.22052 0.53289 0.97621 0.0
C162 C 0.17193 0.51205 1.00909 0.0
H163 H 0.26865 0.58657 0.97617 0.0
H164 H 0.82043 0.30257 0.12726 0.0
H165 H 0.91639 0.33248 0.07934 0.0
H166 H 0.0044 0.56164 0.10332 0.0
H167 H 0.90585 0.53058 0.15209 0.0
H168 H 0.06718 0.52907 0.0521 0.0
H169 H 0.01426 0.36596 0.04553 0.0
H170 H 0.04199 0.34587 0.97439 0.0
H171 H 0.12359 0.3853 0.91571 0.0
C172 C 0.37467 0.87235 0.6149 0.0
C173 C 0.42681 0.87482 0.64244 0.0
C174 C 0.39122 0.9304 0.58844 0.0
C175 C 0.46051 -0.00641 0.58893 0.0
C176 C 0.51409 -0.00556 0.61483 0.0
C177 C 0.49746 0.93578 0.6414 0.0
C178 C 0.47881 0.05793 0.56197 0.0
C179 C 0.42817 0.0715 0.54547 0.0
C180 C 0.44459 0.12888 0.51404 0.0
C181 C 0.39318 0.1142 0.48307 0.0
C182 C 0.41083 0.16053 0.44928 0.0
C183 C 0.47938 0.22392 0.44636 0.0
H184 H 0.55067 0.21001 0.53694 0.0
C185 C 0.52731 0.24322 0.47963 0.0
C186 C 0.51067 0.19572 0.51298 0.0
H187 H 0.58061 0.29156 0.47795 0.0
H188 H 0.31988 0.82582 0.61446 0.0
H189 H 0.34909 0.92509 0.56778 0.0
H190 H 0.56844 0.0416 0.61543 0.0
H191 H 0.53872 0.93977 0.66243 0.0
H192 H 0.5359 0.09436 0.55494 0.0
H193 H 0.37108 0.03556 0.55247 0.0
H194 H 0.34142 0.06366 0.48331 0.0
H195 H 0.37361 0.14318 0.42366 0.0
C196 C 0.55446 0.49829 0.15384 0.0
C197 C 0.5424 0.42788 0.14671 0.0
C198 C 0.53966 0.53612 0.12386 0.0
C199 C 0.51277 0.50453 0.08564 0.0
C200 C 0.4983 0.4329 0.07901 0.0
C201 C 0.51225 0.39456 0.1094 0.0
C202 C 0.50619 0.54701 0.05105 0.0
C203 C 0.49897 0.60649 0.05511 0.0
C204 C 0.4974 0.64905 1.01918 0.0
C205 C 0.44868 0.67569 1.01769 0.0
C206 C 0.43984 0.70657 0.98165 0.0
C207 C 0.48065 0.71238 0.9469 0.0
H208 H 0.58293 0.64423 0.98631 0.0
C209 C 0.53494 0.69323 0.9501 0.0
C210 C 0.54304 0.66168 0.98569 0.0
H211 H 0.56662 0.69632 0.92365 0.0
H212 H 0.57736 0.525 0.18249 0.0
H213 H 0.55282 0.59132 0.1302 0.0
H214 H 0.47794 0.4072 0.04979 0.0
H215 H 0.50304 0.34063 0.103 0.0
H216 H 0.50723 0.52804 1.02059 0.0
H217 H 0.49053 0.62241 0.08495 0.0
H218 H 0.41368 0.66775 1.04336 0.0
H219 H 0.39645 0.71917 0.97982 0.0
C220 C 0.74307 0.30105 0.48169 0.0
C221 C 0.75849 0.26977 0.44852 0.0
C222 C 0.79275 0.3321 0.51399 0.0
C223 C 0.85853 0.33123 0.51399 0.0
C224 C 0.86996 0.29284 0.483 0.0
C225 C 0.82115 0.26352 0.45031 0.0
C226 C 0.91786 0.37189 0.54444 0.0
C227 C 0.93252 0.43582 0.56152 0.0
C228 C -0.00262 0.48099 0.58824 0.0
C229 C -0.00213 0.53417 0.61389 0.0
C230 C 0.05692 0.57567 0.64019 0.0
C231 C 0.11704 0.56501 0.6413 0.0
H232 H 0.06393 0.43635 0.56752 0.0
C233 C 0.11811 0.51467 0.61412 0.0
C234 C 0.05962 0.47367 0.5879 0.0
H235 H 0.16392 0.50561 0.61369 0.0
H236 H 0.69611 0.30795 0.48072 0.0
H237 H 0.78086 0.35921 0.53793 0.0
H238 H 0.91965 0.29039 0.48238 0.0
H239 H 0.83576 0.24182 0.42465 0.0
H240 H 0.95365 0.35034 0.55049 0.0
H241 H 0.89629 0.4569 0.5553 0.0
H242 H 0.95146 0.54225 0.61442 0.0
H243 H 0.05393 0.61345 0.66092 0.0
C244 C 0.69537 0.0279 0.26812 0.0
C245 C 0.67097 0.05115 0.30122 0.0
C246 C 0.69333 0.96144 0.26984 0.0
C247 C 0.66654 0.91702 0.30465 0.0
C248 C 0.64613 0.94204 0.3385 0.0
C249 C 0.64788 0.00835 0.33678 0.0
C250 C 0.65835 0.84401 0.30641 0.0
C251 C 0.64309 0.80224 0.27327 0.0
C252 C 0.63579 0.72971 0.275 0.0
C253 C 0.66047 0.70696 0.24203 0.0
C254 C 0.65909 0.64089 0.24375 0.0
C255 C 0.63132 0.5956 0.2782 0.0
H256 H 0.58407 0.69892 0.3343 0.0
C257 C 0.60338 0.61697 0.31048 0.0
C258 C 0.6057 0.68362 0.30893 0.0
H259 H 0.58128 0.58316 0.33734 0.0
H260 H 0.71437 0.06 0.24048 0.0
H261 H 0.71242 0.945 0.2438 0.0
H262 H 0.62652 0.90914 0.36587 0.0
H263 H 0.62986 0.02527 0.36311 0.0
H264 H 0.66263 0.82341 0.33601 0.0
H265 H 0.6387 0.82253 0.24361 0.0
H266 H 0.68307 0.74144 0.21542 0.0
H267 H 0.6807 0.62594 0.21822 0.0
C268 C 0.01617 0.68689 0.82519 0.0
C269 C 0.05787 0.7029 0.78964 0.0
C270 C 0.95416 0.69326 0.82566 0.0
C271 C 0.93222 0.71475 0.79034 0.0
C272 C 0.97551 0.73364 0.75538 0.0
C273 C 0.03777 0.72766 0.75495 0.0
C274 C 0.86406 0.71695 0.78856 0.0
C275 C 0.80621 0.67425 0.81201 0.0
C276 C 0.73569 0.67139 0.80752 0.0
C277 C 0.67218 0.6087 0.82055 0.0
C278 C 0.60439 0.60316 0.81555 0.0
C279 C 0.59929 0.66028 0.79727 0.0
H280 H 0.77833 0.78009 0.78175 0.0
C281 C 0.6629 0.72359 0.78501 0.0
C282 C 0.73053 0.72951 0.79048 0.0
H283 H 0.66072 0.76941 0.77193 0.0
H284 H 0.03123 0.66928 0.8527 0.0
H285 H 0.92379 0.68128 0.8537 0.0
H286 H 0.96009 0.7512 0.72796 0.0
H287 H 0.06902 0.74082 0.72712 0.0
H288 H 0.85967 0.75 0.76464 0.0
H289 H 0.80839 0.63579 0.83305 0.0
H290 H 0.67491 0.56354 0.83416 0.0
H291 H 0.55608 0.55398 0.82558 0.0
C292 C 0.34319 -0.00654 0.32334 0.0
C293 C 0.37969 0.02884 0.28754 0.0
C294 C 0.27661 0.92857 0.32115 0.0
C295 C 0.24638 0.8983 0.28308 0.0
C296 C 0.28527 0.93143 0.24758 0.0
C297 C 0.35107 -0.00338 0.24978 0.0
C298 C 0.17388 0.83312 0.27918 0.0
C299 C 0.11926 0.81926 0.30464 0.0
C300 C 0.04689 0.75408 0.3002 0.0
C301 C 0.00831 0.71826 0.33531 0.0
C302 C 0.9433 0.65232 0.33224 0.0
C303 C 0.91533 0.62205 0.29392 0.0
H304 H 0.04453 0.75409 0.2341 0.0
C305 C 0.95137 0.66039 0.25865 0.0
C306 C 0.01695 0.72601 0.26175 0.0
H307 H 0.93048 0.63841 0.22876 0.0
H308 H 0.36466 0.01722 0.35284 0.0
H309 H 0.2488 0.90266 0.34915 0.0
H310 H 0.26344 0.90828 0.21802 0.0
H311 H 0.37917 0.02231 0.2219 0.0
H312 H 0.16454 0.79754 0.25349 0.0
H313 H 0.12836 0.85451 0.33044 0.0
H314 H 0.02998 0.73975 0.36517 0.0
H315 H 0.91564 0.6244 0.35993 0.0
C316 C 0.32277 0.34647 0.81741 0.0
C317 C 0.29386 0.36813 0.78532 0.0
C318 C 0.32352 0.28153 0.81516 0.0
C319 C 0.29581 0.23726 0.78061 0.0
C320 C 0.26372 0.25692 0.74947 0.0
C321 C 0.263 0.322 0.75166 0.0
C322 C 0.29957 0.17032 0.77623 0.0
C323 C 0.35379 0.16316 0.79251 0.0
C324 C 0.35651 0.09557 0.78883 0.0
C325 C 0.38681 0.07538 0.82069 0.0
C326 C 0.38523 0.00909 0.81953 0.0
C327 C 0.35383 0.96227 0.78619 0.0
H328 H 0.30764 0.06624 0.72866 0.0
C329 C 0.32702 0.98449 0.75331 0.0
C330 C 0.32856 0.05066 0.75454 0.0
H331 H 0.30396 0.95052 0.72674 0.0
H332 H 0.34579 0.37999 0.84415 0.0
H333 H 0.34578 0.2663 0.84055 0.0
H334 H 0.24106 0.22292 0.72286 0.0
H335 H 0.23975 0.33672 0.72652 0.0
H336 H 0.25729 0.12666 0.75827 0.0
H337 H 0.39609 0.20678 0.81048 0.0
H338 H 0.40954 0.1098 0.84715 0.0
H339 H 0.40687 -0.0061 0.84527 0.0
C340 C 0.32828 0.32033 0.32014 0.0
C341 C 0.35024 0.29428 0.28721 0.0
C342 C 0.26215 0.31881 0.31889 0.0
C343 C 0.21704 0.29178 0.28448 0.0
C344 C 0.23708 0.26245 0.25246 0.0
C345 C 0.30335 0.26391 0.25368 0.0
C346 C 0.14913 0.29402 0.28102 0.0
C347 C 0.14142 0.34702 0.29806 0.0
C348 C 0.07359 0.34939 0.29456 0.0
C349 C 0.0536 0.37881 0.32657 0.0
C350 C -0.01242 0.37781 0.32522 0.0
C351 C 0.9409 0.34783 0.29159 0.0
H352 H 0.04407 0.30249 0.23409 0.0
C353 C 0.96273 0.32157 0.2587 0.0
C354 C 0.02862 0.32261 0.26008 0.0
H355 H 0.92883 0.29972 0.2319 0.0
H356 H 0.36235 0.34262 0.34684 0.0
H357 H 0.24671 0.33888 0.3449 0.0
H358 H 0.20246 0.24039 0.22592 0.0
H359 H 0.31839 0.24286 0.22792 0.0
H360 H 0.10547 0.2521 0.26289 0.0
H361 H 0.18509 0.38896 0.31619 0.0
H362 H 0.0881 0.40063 0.35317 0.0
H363 H 0.9725 0.39887 0.35097 0.0
C364 C 0.98273 0.37192 0.81228 0.0
C365 C 0.02593 0.40121 0.77748 0.0
C366 C 0.91788 0.30548 0.81017 0.0
C367 C 0.8954 0.26762 0.77317 0.0
C368 C 0.93609 0.29921 0.73793 0.0
C369 C 0.00126 0.36527 0.74008 0.0
C370 C 0.8309 0.19429 0.77064 0.0
C371 C 0.81227 0.14575 0.80109 0.0
C372 C 0.74818 0.07209 0.79873 0.0
C373 C 0.70964 0.03941 0.83443 0.0
C374 C 0.64549 0.97236 0.83286 0.0
C375 C 0.61955 0.93644 0.79554 0.0
H376 H 0.75469 0.05719 0.73387 0.0
C377 C 0.66056 0.96714 0.76014 0.0
C378 C 0.72444 0.03453 0.7617 0.0
H379 H 0.64221 0.9404 0.73101 0.0
H380 H 0.00022 0.39886 0.84141 0.0
H381 H 0.88601 0.28354 0.83758 0.0
H382 H 0.91892 0.2714 0.709 0.0
H383 H 0.03292 0.3875 0.71258 0.0
H384 H 0.80023 0.17923 0.74235 0.0
H385 H 0.84319 0.161 0.8293 0.0
H386 H 0.72778 0.06698 0.86337 0.0
H387 H 0.61562 0.94938 0.86079 0.0
loop_
_geom_bond_atom_site_label_1
_geom_bond_atom_site_label_2
_geom_bond_distance
_geom_bond_site_symmetry_2
_ccdc_geom_bond_type
C0 O26 1.283 . S
C0 O44 1.283 . S
C1 O27 1.283 . S
C1 O42 1.283 . S
C2 O28 1.283 . S
C2 O45 1.283 . S
C3 O29 1.283 . S
C3 O43 1.283 . S
C4 O30 1.283 . S
C4 O39 1.283 . S
C5 O31 1.283 . S
C5 O41 1.283 . S
C6 O32 1.283 . S
C6 O38 1.283 . S
C7 O33 1.283 . S
C7 O40 1.283 . S
C8 O34 1.283 . S
C8 O49 1.283 . S
C9 O35 1.283 . S
C9 O47 1.283 . S
C10 O36 1.283 . S
C10 O48 1.283 . S
C11 O37 1.283 . S
C11 O46 1.283 . S
Eu12 O13 2.370 . S
Eu12 O14 2.370 . S
Eu12 O17 2.370 . S
Eu12 O18 2.370 . S
Eu12 O26 2.363 . S
Eu12 O27 2.363 . S
Eu12 O40 2.363 . S
Eu12 O41 2.363 . S
O13 Eu12 2.370 . S
O13 Eu15 2.370 . S
O13 Eu20 2.370 . S
O14 Eu12 2.370 . S
O14 Eu16 2.370 . S
O14 Eu19 2.370 . S
Eu15 O13 2.370 . S
Eu15 O17 2.370 . S
Eu15 O21 2.370 . S
Eu15 O22 2.370 . S
Eu15 O30 2.363 . S
Eu15 O31 2.363 . S
Eu15 O46 2.363 . S
Eu15 O47 2.363 . S
Eu16 O14 2.370 . S
Eu16 O18 2.370 . S
Eu16 O23 2.370 . S
Eu16 O24 2.370 . S
Eu16 O32 2.363 . S
Eu16 O33 2.363 . S
Eu16 O48 2.363 . S
Eu16 O49 2.363 . S
O17 Eu12 2.370 . S
O17 Eu15 2.370 . S
O17 Eu19 2.370 . S
O18 Eu12 2.370 . S
O18 Eu16 2.370 . S
O18 Eu20 2.370 . S
Eu19 O14 2.370 . S
Eu19 O17 2.370 . S
Eu19 O21 2.370 . S
Eu19 O24 2.370 . S
Eu19 O36 2.363 . S
Eu19 O37 2.363 . S
Eu19 O44 2.363 . S
Eu19 O45 2.363 . S
Eu20 O13 2.370 . S
Eu20 O18 2.370 . S
Eu20 O22 2.370 . S
Eu20 O23 2.370 . S
Eu20 O34 2.363 . S
Eu20 O35 2.363 . S
Eu20 O42 2.363 . S
Eu20 O43 2.363 . S
O21 Eu15 2.370 . S
O21 Eu19 2.370 . S
O21 Eu25 2.370 . S
O22 Eu15 2.370 . S
O22 Eu20 2.370 . S
O22 Eu25 2.370 . S
O23 Eu16 2.370 . S
O23 Eu20 2.370 . S
O23 Eu25 2.370 . S
O24 Eu16 2.370 . S
O24 Eu19 2.370 . S
O24 Eu25 2.370 . S
Eu25 O21 2.370 . S
Eu25 O22 2.370 . S
Eu25 O23 2.370 . S
Eu25 O24 2.370 . S
Eu25 O28 2.363 . S
Eu25 O29 2.363 . S
Eu25 O38 2.363 . S
Eu25 O39 2.363 . S
O26 C0 1.283 . S
O26 Eu12 2.363 . S
O27 C1 1.283 . S
O27 Eu12 2.363 . S
O28 C2 1.283 . S
O28 Eu25 2.363 . S
O29 C3 1.283 . S
O29 Eu25 2.363 . S
O30 C4 1.283 . S
O30 Eu15 2.363 . S
O31 C5 1.283 . S
O31 Eu15 2.363 . S
O32 C6 1.283 . S
O32 Eu16 2.363 . S
O33 C7 1.283 . S
O33 Eu16 2.363 . S
O34 C8 1.283 . S
O34 Eu20 2.363 . S
O35 C9 1.283 . S
O35 Eu20 2.363 . S
O36 C10 1.283 . S
O36 Eu19 2.363 . S
O37 C11 1.283 . S
O37 Eu19 2.363 . S
O38 C6 1.283 . S
O38 Eu25 2.363 . S
O39 C4 1.283 . S
O39 Eu25 2.363 . S
O40 C7 1.283 . S
O40 Eu12 2.363 . S
O41 C5 1.283 . S
O41 Eu12 2.363 . S
O42 C1 1.283 . S
O42 Eu20 2.363 . S
O43 C3 1.283 . S
O43 Eu20 2.363 . S
O44 C0 1.283 . S
O44 Eu19 2.363 . S
O45 C2 1.283 . S
O45 Eu19 2.363 . S
O46 C11 1.283 . S
O46 Eu15 2.363 . S
O47 C9 1.283 . S
O47 Eu15 2.363 . S
O48 C10 1.283 . S
O48 Eu16 2.363 . S
O49 C8 1.283 . S
O49 Eu16 2.363 . S
C50 O76 1.283 . S
C50 O94 1.283 . S
C51 O77 1.283 . S
C51 O92 1.283 . S
C52 O78 1.283 . S
C52 O95 1.283 . S
C53 O79 1.283 . S
C53 O93 1.283 . S
C54 O80 1.283 . S
C54 O89 1.283 . S
C55 O81 1.283 . S
C55 O91 1.283 . S
C56 O82 1.283 . S
C56 O88 1.283 . S
C57 O83 1.283 . S
C57 O90 1.283 . S
C58 O84 1.283 . S
C58 O99 1.283 . S
C59 O85 1.283 . S
C59 O97 1.283 . S
C60 O86 1.283 . S
C60 O98 1.283 . S
C61 O87 1.283 . S
C61 O96 1.283 . S
Eu62 O63 2.370 . S
Eu62 O64 2.370 . S
Eu62 O67 2.370 . S
Eu62 O68 2.370 . S
Eu62 O76 2.363 . S
Eu62 O77 2.363 . S
Eu62 O90 2.363 . S
Eu62 O91 2.363 . S
O63 Eu62 2.370 . S
O63 Eu65 2.370 . S
O63 Eu70 2.370 . S
O64 Eu62 2.370 . S
O64 Eu66 2.370 . S
O64 Eu69 2.370 . S
Eu65 O63 2.370 . S
Eu65 O67 2.370 . S
Eu65 O71 2.370 . S
Eu65 O72 2.370 . S
Eu65 O80 2.363 . S
Eu65 O81 2.363 . S
Eu65 O96 2.363 . S
Eu65 O97 2.363 . S
Eu66 O64 2.370 . S
Eu66 O68 2.370 . S
Eu66 O73 2.370 . S
Eu66 O74 2.370 . S
Eu66 O82 2.363 . S
Eu66 O83 2.363 . S
Eu66 O98 2.363 . S
Eu66 O99 2.363 . S
O67 Eu62 2.370 . S
O67 Eu65 2.370 . S
O67 Eu69 2.370 . S
O68 Eu62 2.370 . S
O68 Eu66 2.370 . S
O68 Eu70 2.370 . S
Eu69 O64 2.370 . S
Eu69 O67 2.370 . S
Eu69 O71 2.370 . S
Eu69 O74 2.370 . S
Eu69 O86 2.363 . S
Eu69 O87 2.363 . S
Eu69 O94 2.363 . S
Eu69 O95 2.363 . S
Eu70 O63 2.370 . S
Eu70 O68 2.370 . S
Eu70 O72 2.370 . S
Eu70 O73 2.370 . S
Eu70 O84 2.363 . S
Eu70 O85 2.363 . S
Eu70 O92 2.363 . S
Eu70 O93 2.363 . S
O71 Eu65 2.370 . S
O71 Eu69 2.370 . S
O71 Eu75 2.370 . S
O72 Eu65 2.370 . S
O72 Eu70 2.370 . S
O72 Eu75 2.370 . S
O73 Eu66 2.370 . S
O73 Eu70 2.370 . S
O73 Eu75 2.370 . S
O74 Eu66 2.370 . S
O74 Eu69 2.370 . S
O74 Eu75 2.370 . S
Eu75 O71 2.370 . S
Eu75 O72 2.370 . S
Eu75 O73 2.370 . S
Eu75 O74 2.370 . S
Eu75 O78 2.363 . S
Eu75 O79 2.363 . S
Eu75 O88 2.363 . S
Eu75 O89 2.363 . S
O76 C50 1.283 . S
O76 Eu62 2.363 . S
O77 C51 1.283 . S
O77 Eu62 2.363 . S
O78 C52 1.283 . S
O78 Eu75 2.363 . S
O79 C53 1.283 . S
O79 Eu75 2.363 . S
O80 C54 1.283 . S
O80 Eu65 2.363 . S
O81 C55 1.283 . S
O81 Eu65 2.363 . S
O82 C56 1.283 . S
O82 Eu66 2.363 . S
O83 C57 1.283 . S
O83 Eu66 2.363 . S
O84 C58 1.283 . S
O84 Eu70 2.363 . S
O85 C59 1.283 . S
O85 Eu70 2.363 . S
O86 C60 1.283 . S
O86 Eu69 2.363 . S
O87 C61 1.283 . S
O87 Eu69 2.363 . S
O88 C56 1.283 . S
O88 Eu75 2.363 . S
O89 C54 1.283 . S
O89 Eu75 2.363 . S
O90 C57 1.283 . S
O90 Eu62 2.363 . S
O91 C55 1.283 . S
O91 Eu62 2.363 . S
O92 C51 1.283 . S
O92 Eu70 2.363 . S
O93 C53 1.283 . S
O93 Eu70 2.363 . S
O94 C50 1.283 . S
O94 Eu69 2.363 . S
O95 C52 1.283 . S
O95 Eu69 2.363 . S
O96 C61 1.283 . S
O96 Eu65 2.363 . S
O97 C59 1.283 . S
O97 Eu65 2.363 . S
O98 C60 1.283 . S
O98 Eu66 2.363 . S
O99 C58 1.283 . S
O99 Eu66 2.363 . S
C100 C101 1.386 . S
C100 C102 1.383 . S
C100 H116 0.951 . S
C101 C100 1.386 . S
C101 C105 1.383 . S
C102 C100 1.383 . S
C102 C103 1.402 . S
C102 H117 0.951 . S
C103 C102 1.402 . S
C103 C104 1.375 . S
C103 C106 1.481 1_556 S
C104 C103 1.375 . S
C104 C105 1.367 . S
C104 H118 0.951 . S
C105 C101 1.383 . S
C105 C104 1.367 . S
C105 H119 0.950 . S
C106 C103 1.481 1_554 S
C106 C107 1.297 . S
C106 H120 0.950 . S
C107 C106 1.297 . S
C107 C108 1.479 1_565 S
C107 H121 0.950 1_564 S
C108 C107 1.479 1_545 S
C108 C109 1.375 . S
C108 C114 1.413 . S
C109 C108 1.375 . S
C109 C110 1.369 . S
C109 H122 0.950 . S
C110 C109 1.369 . S
C110 C111 1.392 . S
C110 H123 0.951 . S
C111 C110 1.392 . S
C111 C113 1.384 . S
H112 C114 0.935 1_565 S
C113 C111 1.384 . S
C113 C114 1.390 . S
C113 H115 0.950 . S
C114 C108 1.413 . S
C114 H112 0.935 1_545 S
C114 C113 1.390 . S
H115 C113 0.950 . S
H116 C100 0.951 . S
H117 C102 0.951 . S
H118 C104 0.951 . S
H119 C105 0.950 . S
H120 C106 0.950 . S
H121 C107 0.950 1_546 S
H122 C109 0.950 . S
H123 C110 0.951 . S
C124 C125 1.386 . S
C124 C126 1.383 . S
C124 H140 0.951 . S
C125 C124 1.386 . S
C125 C129 1.383 . S
C126 C124 1.383 . S
C126 C127 1.402 . S
C126 H141 0.951 . S
C127 C126 1.402 . S
C127 C128 1.375 . S
C127 C130 1.481 . S
C128 C127 1.375 . S
C128 C129 1.367 . S
C128 H142 0.951 . S
C129 C125 1.383 . S
C129 C128 1.367 . S
C129 H143 0.950 . S
C130 C127 1.481 . S
C130 C131 1.297 . S
C130 H144 0.950 . S
C131 C130 1.297 . S
C131 C132 1.479 . S
C131 H145 0.950 . S
C132 C131 1.479 . S
C132 C133 1.375 . S
C132 C138 1.404 . S
C133 C132 1.375 . S
C133 C134 1.369 . S
C133 H146 0.950 . S
C134 C133 1.369 . S
C134 C135 1.392 . S
C134 H147 0.951 . S
C135 C134 1.392 . S
C135 C137 1.384 . S
H136 C138 0.949 . S
C137 C135 1.384 . S
C137 C138 1.385 . S
C137 H139 0.950 . S
C138 C132 1.404 . S
C138 H136 0.949 . S
C138 C137 1.385 . S
H139 C137 0.950 . S
H140 C124 0.951 . S
H141 C126 0.951 . S
H142 C128 0.951 . S
H143 C129 0.950 . S
H144 C130 0.950 . S
H145 C131 0.950 . S
H146 C133 0.950 . S
H147 C134 0.951 . S
C148 C149 1.386 . S
C148 C150 1.383 . S
C148 H164 0.951 . S
C149 C148 1.386 . S
C149 C153 1.383 . S
C150 C148 1.383 . S
C150 C151 1.402 . S
C150 H165 0.951 . S
C151 C150 1.402 . S
C151 C152 1.375 1_655 S
C151 C154 1.481 1_655 S
C152 C151 1.375 1_455 S
C152 C153 1.367 1_455 S
C152 H166 0.951 . S
C153 C149 1.383 . S
C153 C152 1.367 1_655 S
C153 H167 0.950 . S
C154 C151 1.481 1_455 S
C154 C155 1.297 1_554 S
C154 H168 0.950 . S
C155 C154 1.297 1_556 S
C155 C156 1.479 . S
C155 H169 0.950 1_455 S
C156 C155 1.479 . S
C156 C157 1.375 . S
C156 C162 1.404 . S
C157 C156 1.375 . S
C157 C158 1.369 . S
C157 H170 0.950 . S
C158 C157 1.369 . S
C158 C159 1.392 . S
C158 H171 0.951 . S
C159 C158 1.392 . S
C159 C161 1.384 . S
H160 C162 0.949 . S
C161 C159 1.384 . S
C161 C162 1.385 . S
C161 H163 0.950 . S
C162 C156 1.404 . S
C162 H160 0.949 . S
C162 C161 1.385 . S
H163 C161 0.950 . S
H164 C148 0.951 . S
H165 C150 0.951 . S
H166 C152 0.951 . S
H167 C153 0.950 . S
H168 C154 0.950 . S
H169 C155 0.950 1_655 S
H170 C157 0.950 . S
H171 C158 0.951 . S
C172 C173 1.386 . S
C172 C174 1.383 . S
C172 H188 0.951 . S
C173 C172 1.386 . S
C173 C177 1.383 . S
C174 C172 1.383 . S
C174 C175 1.402 . S
C174 H189 0.951 . S
C175 C174 1.402 . S
C175 C176 1.375 . S
C175 C178 1.481 1_565 S
C176 C175 1.375 . S
C176 C177 1.367 . S
C176 H190 0.951 . S
C177 C173 1.383 . S
C177 C176 1.367 . S
C177 H191 0.950 . S
C178 C175 1.481 1_545 S
C178 C179 1.297 . S
C178 H192 0.950 . S
C179 C178 1.297 . S
C179 C180 1.479 . S
C179 H193 0.950 . S
C180 C179 1.479 . S
C180 C181 1.375 . S
C180 C186 1.404 . S
C181 C180 1.375 . S
C181 C182 1.369 . S
C181 H194 0.950 . S
C182 C181 1.369 . S
C182 C183 1.392 . S
C182 H195 0.951 . S
C183 C182 1.392 . S
C183 C185 1.384 . S
H184 C186 0.949 . S
C185 C183 1.384 . S
C185 C186 1.385 . S
C185 H187 0.950 . S
C186 C180 1.404 . S
C186 H184 0.949 . S
C186 C185 1.385 . S
H187 C185 0.950 . S
H188 C172 0.951 . S
H189 C174 0.951 . S
H190 C176 0.951 . S
H191 C177 0.950 . S
H192 C178 0.950 . S
H193 C179 0.950 . S
H194 C181 0.950 . S
H195 C182 0.951 . S
C196 C197 1.386 . S
C196 C198 1.383 . S
C196 H212 0.951 . S
C197 C196 1.386 . S
C197 C201 1.383 . S
C198 C196 1.383 . S
C198 C199 1.402 . S
C198 H213 0.951 . S
C199 C198 1.402 . S
C199 C200 1.375 . S
C199 C202 1.481 . S
C200 C199 1.375 . S
C200 C201 1.367 . S
C200 H214 0.951 . S
C201 C197 1.383 . S
C201 C200 1.367 . S
C201 H215 0.950 . S
C202 C199 1.481 . S
C202 C203 1.301 . S
C202 H216 0.950 . S
C203 C202 1.301 . S
C203 C204 1.474 1_554 S
C203 H217 0.952 . S
C204 C203 1.474 1_556 S
C204 C205 1.375 . S
C204 C210 1.404 . S
C205 C204 1.375 . S
C205 C206 1.369 . S
C205 H218 0.950 . S
C206 C205 1.369 . S
C206 C207 1.392 . S
C206 H219 0.951 . S
C207 C206 1.392 . S
C207 C209 1.384 . S
H208 C210 0.949 . S
C209 C207 1.384 . S
C209 C210 1.385 . S
C209 H211 0.950 . S
C210 C204 1.404 . S
C210 H208 0.949 . S
C210 C209 1.385 . S
H211 C209 0.950 . S
H212 C196 0.951 . S
H213 C198 0.951 . S
H214 C200 0.951 . S
H215 C201 0.950 . S
H216 C202 0.950 . S
H217 C203 0.952 . S
H218 C205 0.950 . S
H219 C206 0.951 . S
C220 C221 1.386 . S
C220 C222 1.383 . S
C220 H236 0.951 . S
C221 C220 1.386 . S
C221 C225 1.383 . S
C222 C220 1.383 . S
C222 C223 1.402 . S
C222 H237 0.951 . S
C223 C222 1.402 . S
C223 C224 1.375 . S
C223 C226 1.481 . S
C224 C223 1.375 . S
C224 C225 1.367 . S
C224 H238 0.951 . S
C225 C221 1.383 . S
C225 C224 1.367 . S
C225 H239 0.950 . S
C226 C223 1.481 . S
C226 C227 1.297 . S
C226 H240 0.950 1_655 S
C227 C226 1.297 . S
C227 C228 1.479 1_655 S
C227 H241 0.950 . S
C228 C227 1.479 1_455 S
C228 C229 1.375 . S
C228 C234 1.404 . S
C229 C228 1.375 . S
C229 C230 1.369 . S
C229 H242 0.950 . S
C230 C229 1.369 . S
C230 C231 1.392 . S
C230 H243 0.951 . S
C231 C230 1.392 . S
C231 C233 1.384 . S
H232 C234 0.949 . S
C233 C231 1.384 . S
C233 C234 1.385 . S
C233 H235 0.950 . S
C234 C228 1.404 . S
C234 H232 0.949 . S
C234 C233 1.385 . S
H235 C233 0.950 . S
H236 C220 0.951 . S
H237 C222 0.951 . S
H238 C224 0.951 . S
H239 C225 0.950 . S
H240 C226 0.950 1_455 S
H241 C227 0.950 . S
H242 C229 0.950 . S
H243 C230 0.951 . S
C244 C245 1.386 . S
C244 C246 1.383 1_545 S
C244 H260 0.951 . S
C245 C244 1.386 . S
C245 C249 1.383 . S
C246 C244 1.383 1_565 S
C246 C247 1.402 . S
C246 H261 0.951 . S
C247 C246 1.402 . S
C247 C248 1.377 . S
C247 C250 1.481 . S
C248 C247 1.377 . S
C248 C249 1.363 1_565 S
C248 H262 0.953 . S
C249 C245 1.383 . S
C249 C248 1.363 1_545 S
C249 H263 0.950 . S
C250 C247 1.481 . S
C250 C251 1.297 . S
C250 H264 0.950 . S
C251 C250 1.297 . S
C251 C252 1.479 . S
C251 H265 0.950 . S
C252 C251 1.479 . S
C252 C253 1.375 . S
C252 C258 1.404 . S
C253 C252 1.375 . S
C253 C254 1.369 . S
C253 H266 0.950 . S
C254 C253 1.369 . S
C254 C255 1.392 . S
C254 H267 0.951 . S
C255 C254 1.392 . S
C255 C257 1.384 . S
H256 C258 0.949 . S
C257 C255 1.384 . S
C257 C258 1.385 . S
C257 H259 0.950 . S
C258 C252 1.404 . S
C258 H256 0.949 . S
C258 C257 1.385 . S
H259 C257 0.950 . S
H260 C244 0.951 . S
H261 C246 0.951 . S
H262 C248 0.953 . S
H263 C249 0.950 . S
H264 C250 0.950 . S
H265 C251 0.950 . S
H266 C253 0.950 . S
H267 C254 0.951 . S
C268 C269 1.386 . S
C268 C270 1.383 1_455 S
C268 H284 0.951 . S
C269 C268 1.386 . S
C269 C273 1.383 . S
C270 C268 1.383 1_655 S
C270 C271 1.402 . S
C270 H285 0.951 . S
C271 C270 1.402 . S
C271 C272 1.375 . S
C271 C274 1.481 . S
C272 C271 1.375 . S
C272 C273 1.367 1_655 S
C272 H286 0.951 . S
C273 C269 1.383 . S
C273 C272 1.367 1_455 S
C273 H287 0.950 . S
C274 C271 1.481 . S
C274 C275 1.297 . S
C274 H288 0.950 . S
C275 C274 1.297 . S
C275 C276 1.479 . S
C275 H289 0.950 . S
C276 C275 1.479 . S
C276 C277 1.375 . S
C276 C282 1.404 . S
C277 C276 1.375 . S
C277 C278 1.369 . S
C277 H290 0.950 . S
C278 C277 1.369 . S
C278 C279 1.392 . S
C278 H291 0.951 . S
C279 C278 1.392 . S
C279 C281 1.384 . S
H280 C282 0.949 . S
C281 C279 1.384 . S
C281 C282 1.385 . S
C281 H283 0.950 . S
C282 C276 1.404 . S
C282 H280 0.949 . S
C282 C281 1.385 . S
H283 C281 0.950 . S
H284 C268 0.951 . S
H285 C270 0.951 . S
H286 C272 0.951 . S
H287 C273 0.950 . S
H288 C274 0.950 . S
H289 C275 0.950 . S
H290 C277 0.950 . S
H291 C278 0.951 . S
C292 C293 1.386 . S
C292 C294 1.383 1_545 S
C292 H308 0.951 . S
C293 C292 1.386 . S
C293 C297 1.383 . S
C294 C292 1.383 1_565 S
C294 C295 1.402 . S
C294 H309 0.951 . S
C295 C294 1.402 . S
C295 C296 1.375 . S
C295 C298 1.481 . S
C296 C295 1.375 . S
C296 C297 1.367 1_565 S
C296 H310 0.951 . S
C297 C293 1.383 . S
C297 C296 1.367 1_545 S
C297 H311 0.950 . S
C298 C295 1.481 . S
C298 C299 1.297 . S
C298 H312 0.950 . S
C299 C298 1.297 . S
C299 C300 1.479 . S
C299 H313 0.950 . S
C300 C299 1.479 . S
C300 C301 1.375 . S
C300 C306 1.404 . S
C301 C300 1.375 . S
C301 C302 1.369 1_455 S
C301 H314 0.950 . S
C302 C301 1.369 1_655 S
C302 C303 1.392 . S
C302 H315 0.951 . S
C303 C302 1.392 . S
C303 C305 1.384 . S
H304 C306 0.949 . S
C305 C303 1.384 . S
C305 C306 1.385 1_655 S
C305 H307 0.950 . S
C306 C300 1.404 . S
C306 H304 0.949 . S
C306 C305 1.385 1_455 S
H307 C305 0.950 . S
H308 C292 0.951 . S
H309 C294 0.951 . S
H310 C296 0.951 . S
H311 C297 0.950 . S
H312 C298 0.950 . S
H313 C299 0.950 . S
H314 C301 0.950 . S
H315 C302 0.951 . S
C316 C317 1.386 . S
C316 C318 1.383 . S
C316 H332 0.951 . S
C317 C316 1.386 . S
C317 C321 1.383 . S
C318 C316 1.383 . S
C318 C319 1.402 . S
C318 H333 0.951 . S
C319 C318 1.402 . S
C319 C320 1.375 . S
C319 C322 1.481 . S
C320 C319 1.375 . S
C320 C321 1.367 . S
C320 H334 0.951 . S
C321 C317 1.383 . S
C321 C320 1.367 . S
C321 H335 0.950 . S
C322 C319 1.481 . S
C322 C323 1.297 . S
C322 H336 0.950 . S
C323 C322 1.297 . S
C323 C324 1.479 . S
C323 H337 0.950 . S
C324 C323 1.479 . S
C324 C325 1.375 . S
C324 C330 1.404 . S
C325 C324 1.375 . S
C325 C326 1.369 1_545 S
C325 H338 0.950 . S
C326 C325 1.369 1_565 S
C326 C327 1.392 . S
C326 H339 0.951 . S
C327 C326 1.392 . S
C327 C329 1.384 . S
H328 C330 0.949 . S
C329 C327 1.384 . S
C329 C330 1.385 1_565 S
C329 H331 0.950 . S
C330 C324 1.404 . S
C330 H328 0.949 . S
C330 C329 1.385 1_545 S
H331 C329 0.950 . S
H332 C316 0.951 . S
H333 C318 0.951 . S
H334 C320 0.951 . S
H335 C321 0.950 . S
H336 C322 0.950 . S
H337 C323 0.950 . S
H338 C325 0.950 . S
H339 C326 0.951 . S
C340 C341 1.386 . S
C340 C342 1.383 . S
C340 H356 0.951 . S
C341 C340 1.386 . S
C341 C345 1.383 . S
C342 C340 1.383 . S
C342 C343 1.402 . S
C342 H357 0.951 . S
C343 C342 1.402 . S
C343 C344 1.375 . S
C343 C346 1.481 . S
C344 C343 1.375 . S
C344 C345 1.367 . S
C344 H358 0.951 . S
C345 C341 1.383 . S
C345 C344 1.367 . S
C345 H359 0.950 . S
C346 C343 1.481 . S
C346 C347 1.297 . S
C346 H360 0.950 . S
C347 C346 1.297 . S
C347 C348 1.479 . S
C347 H361 0.950 . S
C348 C347 1.479 . S
C348 C349 1.375 . S
C348 C354 1.404 . S
C349 C348 1.375 . S
C349 C350 1.369 1_455 S
C349 H362 0.950 . S
C350 C349 1.369 1_655 S
C350 C351 1.392 . S
C350 H363 0.951 . S
C351 C350 1.392 . S
C351 C353 1.384 1_655 S
H352 C354 0.949 . S
C353 C351 1.384 1_455 S
C353 C354 1.385 . S
C353 H355 0.950 . S
C354 C348 1.404 . S
C354 H352 0.949 . S
C354 C353 1.385 . S
H355 C353 0.950 . S
H356 C340 0.951 . S
H357 C342 0.951 . S
H358 C344 0.951 . S
H359 C345 0.950 . S
H360 C346 0.950 . S
H361 C347 0.950 . S
H362 C349 0.950 . S
H363 C350 0.951 . S
C364 C365 1.386 1_655 S
C364 C366 1.383 . S
C364 H380 0.951 . S
C365 C364 1.386 1_455 S
C365 C369 1.383 . S
C366 C364 1.383 . S
C366 C367 1.402 . S
C366 H381 0.951 . S
C367 C366 1.402 . S
C367 C368 1.375 . S
C367 C370 1.481 . S
C368 C367 1.375 . S
C368 C369 1.367 1_655 S
C368 H382 0.951 . S
C369 C365 1.383 . S
C369 C368 1.367 1_455 S
C369 H383 0.950 . S
C370 C367 1.481 . S
C370 C371 1.297 . S
C370 H384 0.950 . S
C371 C370 1.297 . S
C371 C372 1.479 . S
C371 H385 0.950 . S
C372 C371 1.479 . S
C372 C373 1.375 . S
C372 C378 1.404 . S
C373 C372 1.375 . S
C373 C374 1.369 1_545 S
C373 H386 0.950 . S
C374 C373 1.369 1_565 S
C374 C375 1.392 . S
C374 H387 0.951 . S
C375 C374 1.392 . S
C375 C377 1.384 . S
H376 C378 0.949 . S
C377 C375 1.384 . S
C377 C378 1.385 1_565 S
C377 H379 0.950 . S
C378 C372 1.404 . S
C378 H376 0.949 . S
C378 C377 1.385 1_545 S
H379 C377 0.950 . S
H380 C364 0.951 . S
H381 C366 0.951 . S
H382 C368 0.951 . S
H383 C369 0.950 . S
H384 C370 0.950 . S
H385 C371 0.950 . S
H386 C373 0.950 . S
H387 C374 0.951 . S
C101 C54 1.807 . S
C111 C5 1.865 . S
C125 C57 1.902 . S
C135 C6 1.720 . S
C149 C1 1.907 . S
C159 C61 1.720 . S
C173 C58 1.907 . S
C183 C2 1.801 . S
C197 C9 1.885 . S
C207 C52 1.796 . S
C221 C10 1.771 . S
C231 C51 1.873 . S
C245 C0 1.075 . S
C255 C3 1.033 . S
C269 C59 1.075 . S
C279 C60 1.031 . S
C293 C11 1.050 . S
C303 C8 1.083 . S
C317 C50 1.063 . S
C327 C53 1.023 . S
C341 C4 1.039 . S
C351 C7 1.073 . S
C365 C55 1.056 . S
C375 C56 1.028 . S
