# Generated by pormake.
# Topology snz, (6)-cn, num edge types: 1
# Building blocks:
#     Node 0, Type 0, BuildingBlock: CUKXOW_clean_sbu_0, # of connection points: 6
#     Node 1, Type 0, BuildingBlock: CUKXOW_clean_sbu_0, # of connection points: 6
#     Node 2, Type 0, BuildingBlock: CUKXOW_clean_sbu_0, # of connection points: 6
#     Node 3, Type 0, BuildingBlock: CUKXOW_clean_sbu_0, # of connection points: 6
#     Node 4, Type 0, BuildingBlock: CUKXOW_clean_sbu_0, # of connection points: 6
#     Node 5, Type 0, BuildingBlock: CUKXOW_clean_sbu_0, # of connection points: 6
#     Node 6, Type 0, BuildingBlock: CUKXOW_clean_sbu_0, # of connection points: 6
#     Node 7, Type 0, BuildingBlock: CUKXOW_clean_sbu_0, # of connection points: 6
#     Node 8, Type 0, BuildingBlock: CUKXOW_clean_sbu_0, # of connection points: 6
#     Edge 9, Type (0, 0), BuildingBlock: AJUNOK_clean_linker_0, # of connection points: 2
#     Edge 10, Type (0, 0), BuildingBlock: AJUNOK_clean_linker_0, # of connection points: 2
#     Edge 11, Type (0, 0), BuildingBlock: AJUNOK_clean_linker_0, # of connection points: 2
#     Edge 12, Type (0, 0), BuildingBlock: AJUNOK_clean_linker_0, # of connection points: 2
#     Edge 13, Type (0, 0), BuildingBlock: AJUNOK_clean_linker_0, # of connection points: 2
#     Edge 14, Type (0, 0), BuildingBlock: AJUNOK_clean_linker_0, # of connection points: 2
#     Edge 15, Type (0, 0), BuildingBlock: AJUNOK_clean_linker_0, # of connection points: 2
#     Edge 16, Type (0, 0), BuildingBlock: AJUNOK_clean_linker_0, # of connection points: 2
#     Edge 17, Type (0, 0), BuildingBlock: AJUNOK_clean_linker_0, # of connection points: 2
#     Edge 18, Type (0, 0), BuildingBlock: AJUNOK_clean_linker_0, # of connection points: 2
#     Edge 19, Type (0, 0), BuildingBlock: AJUNOK_clean_linker_0, # of connection points: 2
#     Edge 20, Type (0, 0), BuildingBlock: AJUNOK_clean_linker_0, # of connection points: 2
#     Edge 21, Type (0, 0), BuildingBlock: AJUNOK_clean_linker_0, # of connection points: 2
#     Edge 22, Type (0, 0), BuildingBlock: AJUNOK_clean_linker_0, # of connection points: 2
#     Edge 23, Type (0, 0), BuildingBlock: AJUNOK_clean_linker_0, # of connection points: 2
#     Edge 24, Type (0, 0), BuildingBlock: AJUNOK_clean_linker_0, # of connection points: 2
#     Edge 25, Type (0, 0), BuildingBlock: AJUNOK_clean_linker_0, # of connection points: 2
#     Edge 26, Type (0, 0), BuildingBlock: AJUNOK_clean_linker_0, # of connection points: 2
#     Edge 27, Type (0, 0), BuildingBlock: AJUNOK_clean_linker_0, # of connection points: 2
#     Edge 28, Type (0, 0), BuildingBlock: AJUNOK_clean_linker_0, # of connection points: 2
#     Edge 29, Type (0, 0), BuildingBlock: AJUNOK_clean_linker_0, # of connection points: 2
#     Edge 30, Type (0, 0), BuildingBlock: AJUNOK_clean_linker_0, # of connection points: 2
#     Edge 31, Type (0, 0), BuildingBlock: AJUNOK_clean_linker_0, # of connection points: 2
#     Edge 32, Type (0, 0), BuildingBlock: AJUNOK_clean_linker_0, # of connection points: 2
#     Edge 33, Type (0, 0), BuildingBlock: AJUNOK_clean_linker_0, # of connection points: 2
#     Edge 34, Type (0, 0), BuildingBlock: AJUNOK_clean_linker_0, # of connection points: 2
#     Edge 35, Type (0, 0), BuildingBlock: AJUNOK_clean_linker_0, # of connection points: 2
# Relax obj value: 0.114
# Max RMSD: 0.182
# Mean RMSD: 0.133
data_MOF--net-snz--node1-CUKXOW_clean_sbu_0--edge1-AJUNOK_clean_linker_0
_symmetry_space_group_name_H-M    P1
_symmetry_Int_Tables_number       1
_symmetry_cell_setting            triclinic
loop_
_symmetry_equiv_pos_as_xyz
'x, y, z'
_cell_length_a     37.444663
_cell_length_b     42.871036
_cell_length_c     10.723647
_cell_angle_alpha  92.412535
_cell_angle_beta   92.565177
_cell_angle_gamma 120.13515
loop_
_atom_site_label
_atom_site_type_symbol
_atom_site_fract_x
_atom_site_fract_y
_atom_site_fract_z
_atom_type_partial_charge
Tb0 Tb 0.05125 0.43627 0.85894 0.0
C1 C 0.10993 0.47644 0.65002 0.0
Tb2 Tb 0.12193 0.51649 0.90902 0.0
O3 O 1.00456 0.45407 0.86344 0.0
O4 O 0.06294 0.48802 0.80962 0.0
O5 O 0.08971 0.44541 0.70329 0.0
C6 C 0.16482 0.58724 0.96527 0.0
O7 O 0.12209 0.50819 0.71028 0.0
C8 C 0.14969 0.47335 0.97837 0.0
C9 C 0.07353 0.47376 0.12573 0.0
O10 O 0.17721 0.56894 0.89871 0.0
O11 O 0.12692 0.56591 0.99198 0.0
O12 O 0.17126 0.50829 0.98778 0.0
O13 O 0.1142 0.46471 0.93007 0.0
O14 O 0.08702 0.50446 0.07253 0.0
O15 O 0.0601 0.44271 0.05991 0.0
C16 C 1.00846 0.36417 0.80983 0.0
O17 O 1.01693 0.38794 0.72783 0.0
O18 O 1.02316 0.38115 0.91934 0.0
C19 C 0.0298 0.4868 0.83345 0.0
Tb20 Tb 0.62154 0.5198 0.97817 0.0
C21 C 0.61505 0.47416 0.20121 0.0
Tb22 Tb 0.59789 0.43801 0.93295 0.0
O23 O 0.5616 0.51156 0.03154 0.0
O24 O 0.56831 0.46751 0.99007 0.0
O25 O 0.63735 0.5053 0.15288 0.0
C26 C 0.56703 0.36781 0.88463 0.0
O27 O 0.59418 0.44315 0.13221 0.0
C28 C 0.67682 0.48529 0.88112 0.0
C29 C 0.58736 0.47909 0.71644 0.0
O30 O 0.5579 0.38803 0.81917 0.0
O31 O 0.5919 0.38682 0.98139 0.0
O32 O 0.66068 0.45058 0.87819 0.0
O33 O 0.64823 0.48999 0.91608 0.0
O34 O 0.5706 0.44803 0.76996 0.0
O35 O 0.61264 0.511 0.77757 0.0
C36 C 0.67596 0.58794 0.0512 0.0
O37 O 0.63973 0.57716 0.99409 0.0
O38 O 0.68128 0.5607 0.06384 0.0
C39 C 0.54212 0.47633 0.02353 0.0
Tb40 Tb 0.62044 0.98916 0.12241 0.0
C41 C 0.62535 0.94674 0.89136 0.0
Tb42 Tb 0.65873 0.93715 0.14909 0.0
O43 O 0.67619 0.03599 0.06029 0.0
O44 O 0.67696 0.99016 0.09669 0.0
O45 O 0.60071 0.95493 0.95107 0.0
C46 C 0.71203 0.91292 0.18499 0.0
O47 O 0.65305 0.94066 0.94963 0.0
C48 C 0.57804 0.90518 0.20262 0.0
C49 C 0.6529 0.97976 0.38182 0.0
O50 O 0.679 0.89802 0.10732 0.0
O51 O 0.71525 0.94183 0.24057 0.0
O52 O 0.60049 0.88983 0.20377 0.0
O53 O 0.60223 0.93643 0.17039 0.0
O54 O 0.67606 0.9691 0.3252 0.0
O55 O 0.62573 0.98616 0.32179 0.0
C56 C 0.57411 0.01882 0.0751 0.0
O57 O 0.60532 0.03157 0.15875 0.0
O58 O 0.56736 0.98794 0.02595 0.0
C59 C 0.69887 0.02114 0.05758 0.0
Tb60 Tb 0.82129 0.79113 0.41541 0.0
C61 C 0.87256 0.83647 0.2092 0.0
Tb62 Tb 0.89077 0.87112 0.4781 0.0
O63 O 0.77267 0.80004 0.3333 0.0
O64 O 0.82884 0.84313 0.39944 0.0
O65 O 0.85967 0.80559 0.26041 0.0
C66 C 0.93121 0.9426 0.54063 0.0
O67 O 0.88146 0.86633 0.27659 0.0
C68 C 0.91367 0.82147 0.49985 0.0
C69 C 0.83262 0.8264 0.68341 0.0
O70 O 0.93164 0.92742 0.43385 0.0
O71 O 0.90886 0.91742 0.6124 0.0
O72 O 0.93892 0.85515 0.4804 0.0
O73 O 0.87959 0.81896 0.51982 0.0
O74 O 0.85352 0.85862 0.6382 0.0
O75 O 0.81917 0.79564 0.61467 0.0
C76 C 0.78031 0.72099 0.34961 0.0
O77 O 0.766 0.73807 0.41422 0.0
O78 O 0.8185 0.74318 0.32808 0.0
C79 C 0.79398 0.83496 0.3477 0.0
Tb80 Tb 0.34278 0.86525 0.40113 0.0
C81 C 0.35421 0.82482 0.61245 0.0
Tb82 Tb 0.32045 0.78762 0.3463 0.0
O83 O 0.29347 0.84687 0.5296 0.0
O84 O 0.28574 0.81433 0.37093 0.0
O85 O 0.37203 0.85604 0.56082 0.0
C86 C 0.27122 0.71721 0.28081 0.0
O87 O 0.32927 0.79369 0.54725 0.0
C88 C 0.40109 0.82941 0.31447 0.0
C89 C 0.32561 0.83369 0.12466 0.0
O90 O 0.31132 0.73435 0.28957 0.0
O91 O 0.25914 0.73939 0.31589 0.0
O92 O 0.38032 0.7943 0.30214 0.0
O93 O 0.37576 0.83937 0.34639 0.0
O94 O 0.30946 0.80102 0.16442 0.0
O95 O 0.3428 0.86354 0.19976 0.0
C96 C 0.36357 0.93403 0.43212 0.0
O97 O 0.32729 0.90777 0.39122 0.0
O98 O 0.38862 0.92182 0.45265 0.0
C99 C 0.26887 0.81601 0.46933 0.0
Tb100 Tb 0.286 0.37271 0.19055 0.0
C101 C 0.29184 0.33101 0.95874 0.0
Tb102 Tb 0.31057 0.31546 0.22187 0.0
O103 O 0.34548 0.41801 0.13787 0.0
O104 O 0.34073 0.36967 0.17327 0.0
O105 O 0.26725 0.3396 0.01601 0.0
C106 C 0.33446 0.27109 0.3102 0.0
O107 O 0.31507 0.32103 0.0224 0.0
C108 C 0.22989 0.29209 0.23502 0.0
C109 C 0.32219 0.36726 0.44885 0.0
O110 O 0.34344 0.28516 0.20266 0.0
O111 O 0.31325 0.28271 0.3669 0.0
O112 O 0.24521 0.27435 0.18034 0.0
O113 O 0.26029 0.32233 0.27555 0.0
O114 O 0.34055 0.35267 0.38632 0.0
O115 O 0.29529 0.37444 0.39155 0.0
C116 C 0.23468 0.39851 0.14585 0.0
O117 O 0.26862 0.41433 0.21965 0.0
O118 O 0.22976 0.36817 0.09831 0.0
C119 C 0.366 0.40092 0.14157 0.0
Tb120 Tb 0.42107 0.14996 0.67293 0.0
C121 C 0.51087 0.22016 0.72505 0.0
Tb122 Tb 0.4939 0.14185 0.70614 0.0
O123 O 0.40063 0.13241 0.86159 0.0
O124 O 0.46299 0.1587 0.83152 0.0
O125 O 0.47102 0.20589 0.69192 0.0
C126 C 0.53968 0.11493 0.7987 0.0
O127 O 0.52802 0.20018 0.74613 0.0
C128 C 0.47743 0.15044 0.46792 0.0
C129 C 0.40566 0.07315 0.65663 0.0
O130 O 0.53457 0.13957 0.85435 0.0
O131 O 0.52171 0.10771 0.68693 0.0
O132 O 0.51434 0.16158 0.52051 0.0
O133 O 0.45195 0.13299 0.54801 0.0
O134 O 0.4409 0.08818 0.72707 0.0
O135 O 0.39143 0.09322 0.61099 0.0
C136 C 0.38223 0.17709 0.54272 0.0
O137 O 0.369 0.15995 0.64384 0.0
O138 O 0.41636 0.17854 0.51804 0.0
C139 C 0.43748 0.14242 0.91312 0.0
Tb140 Tb 0.91616 0.13061 0.65524 0.0
C141 C 0.96662 0.08999 0.62922 0.0
Tb142 Tb 1.01544 0.1748 0.64378 0.0
O143 O 0.90151 0.12671 0.44664 0.0
O144 O 0.96083 0.15 0.51991 0.0
O145 O 0.93535 0.0908 0.68006 0.0
C146 C 0.08724 0.21566 0.53641 0.0
O147 O 0.99882 0.11914 0.58991 0.0
C148 C 0.99161 0.16291 0.88343 0.0
C149 C 0.96642 0.21656 0.68614 0.0
O150 O 0.0778 0.18672 0.59508 0.0
O151 O 0.05644 0.22143 0.54032 0.0
O152 O 0.02996 0.17918 0.85209 0.0
O153 O 0.9706 0.15465 0.77858 0.0
O154 O 1.00039 0.21768 0.64962 0.0
O155 O 0.93168 0.1863 0.70549 0.0
C156 C 0.84425 0.09349 0.76674 0.0
O157 O 0.86494 0.12819 0.75583 0.0
O158 O 0.863 0.07936 0.70803 0.0
C159 C 0.93982 0.14208 0.41506 0.0
Tb160 Tb 1.01633 0.67854 0.65967 0.0
C161 C 0.98705 0.59759 0.70249 0.0
Tb162 Tb 0.92442 0.62749 0.66374 0.0
O163 O 0.02739 0.6705 0.85623 0.0
O164 O 0.97148 0.66618 0.8001 0.0
O165 O 1.01586 0.62758 0.65719 0.0
C166 C 0.8457 0.58332 0.73065 0.0
O167 O 0.95016 0.59333 0.725 0.0
C168 C 0.94954 0.64237 0.43009 0.0
C169 C 0.95491 0.70938 0.6214 0.0
O170 O 0.86768 0.57339 0.66748 0.0
O171 O 0.86825 0.61798 0.75612 0.0
O172 O 0.91258 0.63234 0.46337 0.0
O173 O 0.96907 0.6392 0.52487 0.0
O174 O 0.92483 0.67875 0.65985 0.0
O175 O 0.99231 0.71405 0.60599 0.0
C176 C 0.09569 0.72295 0.59799 0.0
O177 O 0.07915 0.72687 0.69731 0.0
O178 O 0.06712 0.69427 0.53295 0.0
C179 C 0.99107 0.66181 0.89217 0.0
C180 C 0.07637 0.44311 0.44633 0.0
C181 C 0.10739 0.47492 0.51336 0.0
C182 C 0.06471 0.44335 0.32162 0.0
C183 C 0.08383 0.4753 0.25959 0.0
H184 H 0.05923 0.41818 0.49169 0.0
H185 H 0.04016 0.4184 0.27404 0.0
S186 S 0.17177 0.5643 0.38767 0.0
N187 N 0.16051 0.53808 0.50525 0.0
N188 N 0.13878 0.53863 0.2695 0.0
C189 C 0.11664 0.50685 0.32326 0.0
C190 C 0.12859 0.50654 0.45033 0.0
C191 C 0.57966 0.44457 0.51799 0.0
C192 C 0.58621 0.47677 0.58058 0.0
C193 C 0.58946 0.44401 0.39492 0.0
C194 C 0.60588 0.47552 0.33097 0.0
H195 H 0.56929 0.42006 0.56599 0.0
H196 H 0.58516 0.41901 0.35094 0.0
S197 S 0.6204 0.56465 0.44564 0.0
N198 N 0.60414 0.5393 0.56528 0.0
N199 N 0.62231 0.53848 0.33211 0.0
C200 C 0.60952 0.50723 0.38936 0.0
C201 C 0.5995 0.50772 0.51471 0.0
C202 C 0.64801 0.93906 0.68638 0.0
C203 C 0.6301 0.95442 0.76025 0.0
C204 C 0.65773 0.94926 0.56573 0.0
C205 C 0.64977 0.97514 0.51522 0.0
H206 H 0.65457 0.91903 0.72197 0.0
H207 H 0.67018 0.93569 0.51055 0.0
S208 S 0.6078 0.02656 0.67565 0.0
N209 N 0.60797 0.99913 0.77875 0.0
N210 N 0.62595 0.01783 0.54974 0.0
C211 C 0.63302 0.99152 0.58907 0.0
C212 C 0.62308 0.98117 0.7122 0.0
C213 C 0.84354 0.85595 0.89504 0.0
C214 C 0.83679 0.82577 0.81894 0.0
C215 C 0.85725 0.86022 0.02076 0.0
C216 C 0.86486 0.83451 0.07384 0.0
H217 H 0.83912 0.87684 0.85642 0.0
H218 H 0.86115 0.8835 0.07683 0.0
S219 S 0.85295 0.75101 0.91346 0.0
N220 N 0.83878 0.76967 0.80522 0.0
N221 N 0.86554 0.77824 0.04126 0.0
C222 C 0.85826 0.80418 -0.00119 0.0
C223 C 0.84367 0.79952 0.87147 0.0
C224 C 0.31197 0.80169 0.7905 0.0
C225 C 0.35002 0.8266 0.7462 0.0
C226 C 0.30279 0.80636 0.91107 0.0
C227 C 0.33155 0.83572 0.99207 0.0
H228 H 0.28832 0.77898 0.73068 0.0
H229 H 0.27337 0.78618 0.94243 0.0
S230 S 0.43607 0.90794 0.92261 0.0
N231 N 0.41678 0.88163 0.79151 0.0
N232 N 0.39978 0.88988 0.02211 0.0
C233 C 0.36965 0.86106 0.94939 0.0
C234 C 0.37897 0.85643 0.8256 0.0
C235 C 0.33462 0.34236 0.64082 0.0
C236 C 0.32131 0.36434 0.58502 0.0
C237 C 0.32441 0.33113 0.76107 0.0
C238 C 0.30047 0.34145 0.82964 0.0
H239 H 0.35144 0.33219 0.58943 0.0
H240 H 0.33473 0.31381 0.79947 0.0
S241 S 0.2637 0.40372 0.73314 0.0
N242 N 0.28742 0.39962 0.61307 0.0
N243 N 0.26765 0.3784 0.83809 0.0
C244 C 0.289 0.36517 0.77754 0.0
C245 C 0.29976 0.37684 0.65581 0.0
C246 C 0.4262 0.13099 0.27157 0.0
C247 C 0.46736 0.14878 0.32662 0.0
C248 C 0.41694 0.12908 0.13977 0.0
C249 C 0.44822 0.14482 0.05466 0.0
H250 H 0.40071 0.11827 0.33081 0.0
H251 H 0.38473 0.11499 0.10426 0.0
S252 S 0.56119 0.19467 0.14877 0.0
N253 N 0.53967 0.18232 0.28239 0.0
N254 N 0.52253 0.1795 0.03973 0.0
C255 C 0.48941 0.16287 0.10908 0.0
C256 C 0.49882 0.16462 0.24274 0.0
C257 C 0.92669 0.14514 0.17766 0.0
C258 C 0.95384 0.14784 0.28018 0.0
C259 C 0.93821 0.14937 0.05103 0.0
C260 C 0.97772 0.15648 0.0182 0.0
H261 H 0.89595 0.13984 0.19535 0.0
H262 H 0.91603 0.14749 0.97851 0.0
S263 S 0.05888 0.16142 0.24512 0.0
N264 N 1.02117 0.15498 0.33395 0.0
N265 N 0.04279 0.16329 0.10127 0.0
C266 C 1.00471 0.15841 0.11932 0.0
C267 C 0.99293 0.15402 0.2478 0.0
C268 C 0.93591 0.65182 0.20155 0.0
C269 C 0.9611 0.64726 0.29369 0.0
C270 C 0.94501 0.65607 0.0733 0.0
C271 C 0.98002 0.6561 0.02892 0.0
H272 H 0.90867 0.65227 0.22889 0.0
H273 H 0.92452 0.65966 0.00868 0.0
S274 S 0.05503 0.64281 0.2272 0.0
N275 N 1.02177 0.64128 0.32637 0.0
N276 N 0.03923 0.64967 0.09017 0.0
C277 C 1.00515 0.65109 0.11983 0.0
C278 C 0.99574 0.64663 0.25004 0.0
C279 C 0.22125 0.44988 0.15751 0.0
C280 C 0.20859 0.41447 0.11132 0.0
C281 C 0.20042 0.46755 0.11709 0.0
C282 C 0.16572 0.45063 0.02928 0.0
H283 H 0.24838 0.46463 0.22261 0.0
H284 H 0.21244 0.49529 0.15318 0.0
S285 S 0.11728 0.35669 0.88783 0.0
N286 N 0.15708 0.36192 0.97864 0.0
N287 N 0.11776 0.39543 0.90367 0.0
C288 C 0.15119 0.41455 0.98688 0.0
C289 C 0.17273 0.39644 0.02749 0.0
C290 C 0.68672 0.64267 0.17343 0.0
C291 C 0.70348 0.62328 0.11713 0.0
C292 C 0.71165 0.67348 0.25399 0.0
C293 C 0.75415 0.68613 0.27837 0.0
H294 H 0.65397 0.63332 0.15852 0.0
H295 H 0.69766 0.68787 0.29534 0.0
S296 S 0.81283 0.64517 0.15066 0.0
N297 N 0.76477 0.61849 0.0907 0.0
N298 N 0.81205 0.67742 0.23826 0.0
C299 C 0.77134 0.66724 0.22103 0.0
C300 C 0.74584 0.63552 0.14112 0.0
C301 C 0.50979 0.90528 0.23207 0.0
C302 C 0.53339 0.88777 0.23603 0.0
C303 C 0.4675 0.88744 0.26191 0.0
C304 C 0.44702 0.85129 0.29615 0.0
H305 H 0.5239 0.93275 0.2045 0.0
H306 H 0.45054 0.9017 0.25489 0.0
S307 S 0.49548 0.79433 0.32974 0.0
N308 N 0.53278 0.83268 0.28403 0.0
N309 N 0.45514 0.79987 0.33839 0.0
C310 C 0.47084 0.8342 0.30326 0.0
C311 C 0.51335 0.85215 0.27375 0.0
C312 C 0.57814 0.07821 0.05393 0.0
C313 C 0.56067 0.04156 0.01206 0.0
C314 C 0.57202 0.10209 0.98278 0.0
C315 C 0.54894 0.09028 0.86629 0.0
H316 H 0.59752 0.08876 0.14081 0.0
H317 H 0.58571 0.13004 0.01875 0.0
S318 S 0.4933 0.99624 0.72032 0.0
N319 N 0.51657 0.99404 0.85129 0.0
N320 N 0.50597 0.03901 0.71657 0.0
C321 C 0.53041 0.05352 0.82494 0.0
C322 C 0.53594 0.0291 0.89837 0.0
C323 C 0.97328 0.27471 0.62488 0.0
C324 C 0.9698 0.25169 0.71883 0.0
C325 C 0.98361 0.31063 0.65541 0.0
C326 C 0.99169 0.3249 0.78086 0.0
H327 H 0.96924 0.26521 0.52719 0.0
H328 H 0.987 0.32773 0.57999 0.0
S329 S 0.98732 0.27525 0.06076 0.0
N330 N 0.97487 0.24515 0.94128 0.0
N331 N 0.99507 0.3127 -0.00049 0.0
C332 C 0.98745 0.30173 0.87559 0.0
C333 C 0.97639 0.2651 0.84429 0.0
C334 C 0.78894 0.52311 0.79435 0.0
C335 C 0.80256 0.55923 0.76952 0.0
C336 C 0.74879 0.50015 0.83258 0.0
C337 C 0.71988 0.51186 0.84617 0.0
H338 H 0.80968 0.51255 0.78562 0.0
H339 H 0.74026 0.47271 0.8511 0.0
S340 S 0.73802 0.6025 0.77491 0.0
N341 N 0.78278 0.60496 0.75371 0.0
N342 N 0.70702 0.56136 0.81782 0.0
C343 C 0.73269 0.54761 0.8176 0.0
C344 C 0.77398 0.57132 0.78142 0.0
C345 C 0.96966 0.5374 0.78997 0.0
C346 C 0.99777 0.56902 0.73371 0.0
C347 C 0.98003 0.51104 0.82267 0.0
C348 C 1.01898 0.5151 0.80133 0.0
H349 H 0.93942 0.53295 0.8094 0.0
H350 H 0.95724 0.48727 0.86524 0.0
S351 S 0.10396 0.59236 0.65569 0.0
N352 N 0.06663 0.60213 0.65756 0.0
N353 N 0.08561 0.55335 0.71916 0.0
C354 C 0.0473 0.54652 0.74529 0.0
C355 C 0.03679 0.57314 0.7116 0.0
C356 C 0.53392 0.31564 0.72669 0.0
C357 C 0.55621 0.33083 0.843 0.0
C358 C 0.52274 0.28053 0.68385 0.0
C359 C 0.53354 0.25937 0.75549 0.0
H360 H 0.52423 0.33065 0.6692 0.0
H361 H 0.50377 0.26921 0.59637 0.0
S362 S 0.59447 0.28761 0.06236 0.0
N363 N 0.59098 0.32309 0.02609 0.0
N364 N 0.56972 0.25668 0.94472 0.0
C365 C 0.55769 0.27483 0.86886 0.0
C366 C 0.56894 0.31067 0.91316 0.0
C367 C 0.78509 0.03619 0.84444 0.0
C368 C 0.80865 0.07437 0.84708 0.0
C369 C 0.75105 0.01833 0.91916 0.0
C370 C 0.73954 0.03806 -0.00011 0.0
H371 H 0.79236 0.01997 0.78197 0.0
H372 H 0.73268 0.9891 0.90929 0.0
S373 S 0.79385 0.13814 0.05307 0.0
N374 N 0.81965 0.13082 0.94602 0.0
N375 N 0.75661 0.09776 0.08457 0.0
C376 C 0.76408 0.07607 0.00709 0.0
C377 C 0.79831 0.09408 0.93141 0.0
C378 C 0.72494 0.86126 0.16805 0.0
C379 C 0.73769 0.89638 0.21805 0.0
C380 C 0.74478 0.84269 0.20797 0.0
C381 C 0.77865 0.85843 0.29875 0.0
H382 H 0.69835 0.84733 0.10057 0.0
H383 H 0.73266 0.8152 0.16897 0.0
S384 S 0.82716 0.95123 0.4508 0.0
N385 N 0.78843 0.94737 0.35798 0.0
N386 N 0.82611 0.91232 0.43119 0.0
C387 C 0.79336 0.89427 0.34495 0.0
C388 C 0.77274 0.91323 0.30519 0.0
C389 C 0.20178 0.66986 0.1876 0.0
C390 C 0.24451 0.68281 0.20639 0.0
C391 C 0.17633 0.63966 0.10492 0.0
C392 C 0.19288 0.62177 0.03711 0.0
H393 H 0.18791 0.68333 0.23618 0.0
H394 H 0.14343 0.63009 0.09487 0.0
S395 S 0.3027 0.64451 0.05541 0.0
N396 N 0.30213 0.67505 0.15292 0.0
N397 N 0.25446 0.61862 0.99605 0.0
C398 C 0.23557 0.63448 0.05496 0.0
C399 C 0.26134 0.66487 0.14043 0.0
C400 C 0.47393 0.4716 0.05643 0.0
C401 C 0.49681 0.45371 0.04806 0.0
C402 C 0.43234 0.45394 0.08579 0.0
C403 C 0.41067 0.41715 0.11012 0.0
H404 H 0.48837 0.50006 0.04042 0.0
H405 H 0.41709 0.46972 0.09038 0.0
S406 S 0.45518 0.35672 0.10033 0.0
N407 N 0.49391 0.39615 0.06564 0.0
N408 N 0.41562 0.36289 0.12224 0.0
C409 C 0.43277 0.39842 0.10159 0.0
C410 C 0.47565 0.41661 0.07024 0.0
C411 C 0.90519 0.73306 0.5971 0.0
C412 C 0.94568 0.73883 0.59072 0.0
C413 C 0.89521 0.7596 0.56615 0.0
C414 C 0.92514 0.7934 0.52774 0.0
H415 H 0.88069 0.70767 0.62582 0.0
H416 H 0.86359 0.75349 0.57285 0.0
S417 S 0.0356 0.82277 0.49301 0.0
N418 N 1.01592 0.78158 0.54073 0.0
N419 N 0.99703 0.83106 0.48374 0.0
C420 C 0.96564 0.79964 0.52021 0.0
C421 C 0.97589 0.77256 0.55141 0.0
C422 C 0.35335 0.00825 0.59745 0.0
C423 C 0.39298 0.03821 0.59057 0.0
C424 C 0.34312 0.9745 0.53975 0.0
C425 C 0.37246 0.97016 0.47508 0.0
H426 H 0.33078 0.01066 0.65043 0.0
H427 H 0.31282 0.9514 0.55049 0.0
S428 S 0.47731 0.04197 0.4106 0.0
N429 N 0.45914 0.06273 0.49793 0.0
N430 N 0.44049 0.99899 0.39525 0.0
C431 C 0.41124 1.00031 0.46229 0.0
C432 C 0.42134 0.03455 0.51858 0.0
C433 C 0.1485 0.22107 0.42888 0.0
C434 C 0.12427 0.23623 0.46303 0.0
C435 C 0.18155 0.23872 0.35188 0.0
C436 C 0.19257 0.27279 0.30804 0.0
H437 H 0.14136 0.19495 0.45972 0.0
H438 H 0.19913 0.22578 0.3286 0.0
S439 S 0.1404 0.32507 0.37445 0.0
N440 N 0.11409 0.28774 0.44725 0.0
N441 N 0.17723 0.3214 0.30812 0.0
C442 C 0.16923 0.28861 0.34373 0.0
C443 C 0.1349 0.27025 0.41959 0.0
C444 C 0.33895 0.20616 0.5299 0.0
C445 C 0.36607 0.1971 0.47475 0.0
C446 C 0.32861 0.22987 0.47445 0.0
C447 C 0.34483 0.24507 0.36174 0.0
H448 H 0.32692 0.19602 0.61863 0.0
H449 H 0.30827 0.23681 0.52164 0.0
S450 S 0.4147 0.22758 0.17522 0.0
N451 N 0.40717 0.20339 0.29741 0.0
N452 N 0.38747 0.24785 0.19368 0.0
C453 C 0.37069 0.23512 0.30321 0.0
C454 C 0.38135 0.2111 0.35968 0.0
C455 C 0.93415 0.9925 0.67626 0.0
C456 C 0.94623 0.98155 0.56843 0.0
C457 C 0.94243 0.02806 0.69733 0.0
C458 C 0.96372 0.05429 0.61246 0.0
H459 H 0.91659 0.9731 0.74268 0.0
H460 H 0.93116 0.03482 0.77955 0.0
S461 S 1.00443 0.04012 0.31954 0.0
N462 N 0.98223 1.00016 0.37829 0.0
N463 N 0.99847 0.06731 0.41918 0.0
C464 C 0.97781 0.04422 0.50727 0.0
C465 C 0.96885 0.00775 0.48485 0.0
C466 C 0.15315 0.74146 0.44907 0.0
C467 C 0.13996 0.74638 0.56615 0.0
C468 C 0.19464 0.76344 0.41779 0.0
C469 C 0.22501 0.79116 0.50267 0.0
H470 H 0.1311 0.72067 0.38018 0.0
H471 H 0.20268 0.75905 0.32561 0.0
S472 S 0.2072 0.81441 0.82343 0.0
N473 N 0.16142 0.78083 0.76778 0.0
N474 N 0.23846 0.82144 0.71077 0.0
C475 C 0.21217 0.79594 0.62045 0.0
C476 C 0.17007 0.7738 0.65172 0.0
loop_
_geom_bond_atom_site_label_1
_geom_bond_atom_site_label_2
_geom_bond_distance
_geom_bond_site_symmetry_2
_ccdc_geom_bond_type
Tb0 O3 2.453 . S
Tb0 O4 2.596 1_655 S
Tb0 O5 2.374 1_654 S
Tb0 O13 2.343 1_655 S
Tb0 O15 2.353 1_655 S
Tb0 O17 2.427 . S
Tb0 O18 2.513 1_554 S
C1 O5 1.251 . S
C1 O7 1.263 . S
Tb2 O4 2.343 . S
Tb2 O7 2.353 1_554 S
Tb2 O10 2.427 . S
Tb2 O11 2.513 . S
Tb2 O12 2.453 . S
Tb2 O13 2.596 . S
Tb2 O14 2.374 . S
O3 Tb0 2.453 . S
O3 C19 1.245 1_655 S
O4 Tb0 2.596 1_455 S
O4 Tb2 2.343 . S
O4 C19 1.259 . S
O5 Tb0 2.374 1_456 S
O5 C1 1.251 . S
C6 O10 1.275 . S
C6 O11 1.246 . S
O7 C1 1.263 . S
O7 Tb2 2.353 1_556 S
C8 O12 1.245 . S
C8 O13 1.259 . S
C9 O14 1.250 . S
C9 O15 1.263 . S
O10 Tb2 2.427 . S
O10 C6 1.275 . S
O11 Tb2 2.513 . S
O11 C6 1.246 . S
O12 Tb2 2.453 . S
O12 C8 1.245 . S
O13 Tb0 2.343 1_455 S
O13 Tb2 2.596 . S
O13 C8 1.259 . S
O14 Tb2 2.374 . S
O14 C9 1.250 . S
O15 Tb0 2.353 1_455 S
O15 C9 1.263 . S
C16 O17 1.275 1_556 S
C16 O18 1.246 . S
O17 Tb0 2.427 . S
O17 C16 1.275 1_554 S
O18 Tb0 2.513 1_556 S
O18 C16 1.246 . S
C19 O3 1.245 1_455 S
C19 O4 1.259 . S
Tb20 O23 2.453 . S
Tb20 O24 2.596 . S
Tb20 O25 2.374 . S
Tb20 O33 2.343 . S
Tb20 O35 2.353 1_554 S
Tb20 O37 2.427 . S
Tb20 O38 2.513 . S
C21 O25 1.251 . S
C21 O27 1.263 . S
Tb22 O24 2.343 . S
Tb22 O27 2.353 . S
Tb22 O30 2.427 . S
Tb22 O31 2.513 1_554 S
Tb22 O32 2.453 . S
Tb22 O33 2.596 . S
Tb22 O34 2.374 1_554 S
O23 Tb20 2.453 . S
O23 C39 1.245 . S
O24 Tb20 2.596 . S
O24 Tb22 2.343 . S
O24 C39 1.259 . S
O25 Tb20 2.374 . S
O25 C21 1.251 . S
C26 O30 1.275 . S
C26 O31 1.246 1_554 S
O27 C21 1.263 . S
O27 Tb22 2.353 . S
C28 O32 1.245 . S
C28 O33 1.259 . S
C29 O34 1.250 . S
C29 O35 1.263 . S
O30 Tb22 2.427 . S
O30 C26 1.275 . S
O31 Tb22 2.513 1_556 S
O31 C26 1.246 1_556 S
O32 Tb22 2.453 . S
O32 C28 1.245 . S
O33 Tb20 2.343 . S
O33 Tb22 2.596 . S
O33 C28 1.259 . S
O34 Tb22 2.374 1_556 S
O34 C29 1.250 . S
O35 Tb20 2.353 1_556 S
O35 C29 1.263 . S
C36 O37 1.275 . S
C36 O38 1.246 . S
O37 Tb20 2.427 . S
O37 C36 1.275 . S
O38 Tb20 2.513 . S
O38 C36 1.246 . S
C39 O23 1.245 . S
C39 O24 1.259 . S
Tb40 O43 2.453 . S
Tb40 O44 2.596 . S
Tb40 O45 2.374 1_554 S
Tb40 O53 2.330 1_545 S
Tb40 O55 2.353 . S
Tb40 O57 2.427 . S
Tb40 O58 2.513 . S
C41 O45 1.254 1_565 S
C41 O47 1.260 . S
Tb42 O44 2.343 1_565 S
Tb42 O47 2.353 1_554 S
Tb42 O50 2.427 . S
Tb42 O51 2.513 . S
Tb42 O52 2.453 . S
Tb42 O53 2.612 . S
Tb42 O54 2.374 . S
O43 Tb40 2.453 . S
O43 C59 1.245 . S
O44 Tb40 2.596 . S
O44 Tb42 2.343 1_545 S
O44 C59 1.259 . S
O45 Tb40 2.374 1_556 S
O45 C41 1.254 1_545 S
C46 O50 1.275 . S
C46 O51 1.246 . S
O47 C41 1.260 . S
O47 Tb42 2.353 1_556 S
C48 O52 1.245 . S
C48 O53 1.268 . S
C49 O54 1.250 1_545 S
C49 O55 1.263 . S
O50 Tb42 2.427 . S
O50 C46 1.275 . S
O51 Tb42 2.513 . S
O51 C46 1.246 . S
O52 Tb42 2.453 . S
O52 C48 1.245 . S
O53 Tb40 2.330 1_565 S
O53 Tb42 2.612 . S
O53 C48 1.268 . S
O54 Tb42 2.374 . S
O54 C49 1.250 1_565 S
O55 Tb40 2.353 . S
O55 C49 1.263 . S
C56 O57 1.275 . S
C56 O58 1.246 . S
O57 Tb40 2.427 . S
O57 C56 1.275 . S
O58 Tb40 2.513 . S
O58 C56 1.246 . S
C59 O43 1.245 . S
C59 O44 1.259 . S
Tb60 O63 2.453 . S
Tb60 O64 2.596 . S
Tb60 O65 2.374 . S
Tb60 O73 2.343 . S
Tb60 O75 2.353 . S
Tb60 O77 2.427 . S
Tb60 O78 2.513 . S
C61 O65 1.251 . S
C61 O67 1.263 . S
Tb62 O64 2.343 . S
Tb62 O67 2.353 . S
Tb62 O70 2.427 . S
Tb62 O71 2.513 . S
Tb62 O72 2.453 . S
Tb62 O73 2.596 . S
Tb62 O74 2.374 . S
O63 Tb60 2.453 . S
O63 C79 1.245 . S
O64 Tb60 2.596 . S
O64 Tb62 2.343 . S
O64 C79 1.259 . S
O65 Tb60 2.374 . S
O65 C61 1.251 . S
C66 O70 1.275 . S
C66 O71 1.246 . S
O67 C61 1.263 . S
O67 Tb62 2.353 . S
C68 O72 1.245 . S
C68 O73 1.259 . S
C69 O74 1.250 . S
C69 O75 1.263 . S
O70 Tb62 2.427 . S
O70 C66 1.275 . S
O71 Tb62 2.513 . S
O71 C66 1.246 . S
O72 Tb62 2.453 . S
O72 C68 1.245 . S
O73 Tb60 2.343 . S
O73 Tb62 2.596 . S
O73 C68 1.259 . S
O74 Tb62 2.374 . S
O74 C69 1.250 . S
O75 Tb60 2.353 . S
O75 C69 1.263 . S
C76 O77 1.275 . S
C76 O78 1.246 . S
O77 Tb60 2.427 . S
O77 C76 1.275 . S
O78 Tb60 2.513 . S
O78 C76 1.246 . S
C79 O63 1.245 . S
C79 O64 1.259 . S
Tb80 O83 2.453 . S
Tb80 O84 2.596 . S
Tb80 O85 2.374 . S
Tb80 O93 2.343 . S
Tb80 O95 2.353 . S
Tb80 O97 2.427 . S
Tb80 O98 2.513 . S
C81 O85 1.251 . S
C81 O87 1.263 . S
Tb82 O84 2.343 . S
Tb82 O87 2.353 . S
Tb82 O90 2.427 . S
Tb82 O91 2.513 . S
Tb82 O92 2.453 . S
Tb82 O93 2.596 . S
Tb82 O94 2.374 . S
O83 Tb80 2.453 . S
O83 C99 1.245 . S
O84 Tb80 2.596 . S
O84 Tb82 2.343 . S
O84 C99 1.259 . S
O85 Tb80 2.374 . S
O85 C81 1.251 . S
C86 O90 1.275 . S
C86 O91 1.246 . S
O87 C81 1.263 . S
O87 Tb82 2.353 . S
C88 O92 1.245 . S
C88 O93 1.259 . S
C89 O94 1.250 1_556 S
C89 O95 1.263 1_556 S
O90 Tb82 2.427 . S
O90 C86 1.275 . S
O91 Tb82 2.513 . S
O91 C86 1.246 . S
O92 Tb82 2.453 . S
O92 C88 1.245 . S
O93 Tb80 2.343 . S
O93 Tb82 2.596 . S
O93 C88 1.259 . S
O94 Tb82 2.374 . S
O94 C89 1.250 1_554 S
O95 Tb80 2.353 . S
O95 C89 1.263 1_554 S
C96 O97 1.275 . S
C96 O98 1.246 . S
O97 Tb80 2.427 . S
O97 C96 1.275 . S
O98 Tb80 2.513 . S
O98 C96 1.246 . S
C99 O83 1.245 . S
C99 O84 1.259 . S
Tb100 O103 2.453 . S
Tb100 O104 2.596 . S
Tb100 O105 2.374 1_554 S
Tb100 O113 2.343 . S
Tb100 O115 2.353 . S
Tb100 O117 2.427 . S
Tb100 O118 2.513 . S
C101 O105 1.251 . S
C101 O107 1.263 . S
Tb102 O104 2.343 . S
Tb102 O107 2.353 1_554 S
Tb102 O110 2.427 . S
Tb102 O111 2.513 . S
Tb102 O112 2.453 . S
Tb102 O113 2.596 . S
Tb102 O114 2.374 . S
O103 Tb100 2.453 . S
O103 C119 1.245 . S
O104 Tb100 2.596 . S
O104 Tb102 2.343 . S
O104 C119 1.259 . S
O105 Tb100 2.374 1_556 S
O105 C101 1.251 . S
C106 O110 1.275 . S
C106 O111 1.246 . S
O107 C101 1.263 . S
O107 Tb102 2.353 1_556 S
C108 O112 1.245 . S
C108 O113 1.259 . S
C109 O114 1.250 . S
C109 O115 1.263 . S
O110 Tb102 2.427 . S
O110 C106 1.275 . S
O111 Tb102 2.513 . S
O111 C106 1.246 . S
O112 Tb102 2.453 . S
O112 C108 1.245 . S
O113 Tb100 2.343 . S
O113 Tb102 2.596 . S
O113 C108 1.259 . S
O114 Tb102 2.374 . S
O114 C109 1.250 . S
O115 Tb100 2.353 . S
O115 C109 1.263 . S
C116 O117 1.275 . S
C116 O118 1.246 . S
O117 Tb100 2.427 . S
O117 C116 1.275 . S
O118 Tb100 2.513 . S
O118 C116 1.246 . S
C119 O103 1.245 . S
C119 O104 1.259 . S
Tb120 O123 2.453 . S
Tb120 O124 2.596 . S
Tb120 O125 2.374 . S
Tb120 O133 2.343 . S
Tb120 O135 2.353 . S
Tb120 O137 2.427 . S
Tb120 O138 2.513 . S
C121 O125 1.251 . S
C121 O127 1.263 . S
Tb122 O124 2.343 . S
Tb122 O127 2.353 . S
Tb122 O130 2.427 . S
Tb122 O131 2.513 . S
Tb122 O132 2.453 . S
Tb122 O133 2.596 . S
Tb122 O134 2.374 . S
O123 Tb120 2.453 . S
O123 C139 1.245 . S
O124 Tb120 2.596 . S
O124 Tb122 2.343 . S
O124 C139 1.259 . S
O125 Tb120 2.374 . S
O125 C121 1.251 . S
C126 O130 1.275 . S
C126 O131 1.246 . S
O127 C121 1.263 . S
O127 Tb122 2.353 . S
C128 O132 1.245 . S
C128 O133 1.259 . S
C129 O134 1.250 . S
C129 O135 1.263 . S
O130 Tb122 2.427 . S
O130 C126 1.275 . S
O131 Tb122 2.513 . S
O131 C126 1.246 . S
O132 Tb122 2.453 . S
O132 C128 1.245 . S
O133 Tb120 2.343 . S
O133 Tb122 2.596 . S
O133 C128 1.259 . S
O134 Tb122 2.374 . S
O134 C129 1.250 . S
O135 Tb120 2.353 . S
O135 C129 1.263 . S
C136 O137 1.275 . S
C136 O138 1.246 . S
O137 Tb120 2.427 . S
O137 C136 1.275 . S
O138 Tb120 2.513 . S
O138 C136 1.246 . S
C139 O123 1.245 . S
C139 O124 1.259 . S
Tb140 O143 2.453 . S
Tb140 O144 2.596 . S
Tb140 O145 2.374 . S
Tb140 O153 2.343 . S
Tb140 O155 2.353 . S
Tb140 O157 2.427 . S
Tb140 O158 2.513 . S
C141 O145 1.251 . S
C141 O147 1.263 . S
Tb142 O144 2.348 . S
Tb142 O147 2.354 . S
Tb142 O150 2.422 1_655 S
Tb142 O151 2.510 1_655 S
Tb142 O152 2.454 . S
Tb142 O153 2.602 . S
Tb142 O154 2.378 . S
O143 Tb140 2.453 . S
O143 C159 1.245 . S
O144 Tb140 2.596 . S
O144 Tb142 2.348 . S
O144 C159 1.259 . S
O145 Tb140 2.374 . S
O145 C141 1.251 . S
C146 O150 1.275 . S
C146 O151 1.246 . S
O147 C141 1.263 . S
O147 Tb142 2.354 . S
C148 O152 1.245 . S
C148 O153 1.259 . S
C149 O154 1.250 . S
C149 O155 1.263 . S
O150 Tb142 2.422 1_455 S
O150 C146 1.275 . S
O151 Tb142 2.510 1_455 S
O151 C146 1.246 . S
O152 Tb142 2.454 . S
O152 C148 1.245 . S
O153 Tb140 2.343 . S
O153 Tb142 2.602 . S
O153 C148 1.259 . S
O154 Tb142 2.378 . S
O154 C149 1.250 . S
O155 Tb140 2.353 . S
O155 C149 1.263 . S
C156 O157 1.275 . S
C156 O158 1.246 . S
O157 Tb140 2.427 . S
O157 C156 1.275 . S
O158 Tb140 2.513 . S
O158 C156 1.246 . S
C159 O143 1.245 . S
C159 O144 1.259 . S
Tb160 O163 2.453 . S
Tb160 O164 2.596 . S
Tb160 O165 2.374 . S
Tb160 O173 2.343 . S
Tb160 O175 2.353 . S
Tb160 O177 2.427 1_655 S
Tb160 O178 2.513 1_655 S
C161 O165 1.251 . S
C161 O167 1.263 . S
Tb162 O164 2.343 . S
Tb162 O167 2.353 . S
Tb162 O170 2.427 . S
Tb162 O171 2.513 . S
Tb162 O172 2.453 . S
Tb162 O173 2.596 . S
Tb162 O174 2.374 . S
O163 Tb160 2.453 . S
O163 C179 1.245 . S
O164 Tb160 2.596 . S
O164 Tb162 2.343 . S
O164 C179 1.259 . S
O165 Tb160 2.374 . S
O165 C161 1.251 . S
C166 O170 1.275 . S
C166 O171 1.246 . S
O167 C161 1.263 . S
O167 Tb162 2.353 . S
C168 O172 1.245 . S
C168 O173 1.259 . S
C169 O174 1.250 . S
C169 O175 1.263 . S
O170 Tb162 2.427 . S
O170 C166 1.275 . S
O171 Tb162 2.513 . S
O171 C166 1.246 . S
O172 Tb162 2.453 . S
O172 C168 1.245 . S
O173 Tb160 2.343 . S
O173 Tb162 2.596 . S
O173 C168 1.259 . S
O174 Tb162 2.374 . S
O174 C169 1.250 . S
O175 Tb160 2.353 . S
O175 C169 1.263 . S
C176 O177 1.275 . S
C176 O178 1.246 . S
O177 Tb160 2.427 1_455 S
O177 C176 1.275 . S
O178 Tb160 2.513 1_455 S
O178 C176 1.246 . S
C179 O163 1.245 . S
C179 O164 1.259 . S
C180 C181 1.369 . S
C180 C182 1.419 . S
C180 H184 0.930 1_455 S
C181 C180 1.369 . S
C181 C190 1.429 . S
C182 C180 1.419 . S
C182 C183 1.363 . S
C182 H185 0.929 1_455 S
C183 C182 1.363 . S
C183 C189 1.428 . S
H184 C180 0.930 1_655 S
H185 C182 0.929 1_655 S
S186 N187 1.613 . S
S186 N188 1.610 . S
N187 S186 1.613 . S
N187 C190 1.350 . S
N188 S186 1.610 . S
N188 C189 1.351 . S
C189 C183 1.428 . S
C189 N188 1.351 . S
C189 C190 1.434 . S
C190 C181 1.429 . S
C190 N187 1.350 . S
C190 C189 1.434 . S
C191 C192 1.369 . S
C191 C193 1.419 . S
C191 H195 0.930 . S
C192 C191 1.369 . S
C192 C201 1.429 . S
C193 C191 1.419 . S
C193 C194 1.363 . S
C193 H196 0.929 . S
C194 C193 1.363 . S
C194 C200 1.428 . S
H195 C191 0.930 . S
H196 C193 0.929 . S
S197 N198 1.613 . S
S197 N199 1.610 . S
N198 S197 1.613 . S
N198 C201 1.350 . S
N199 S197 1.610 . S
N199 C200 1.351 . S
C200 C194 1.428 . S
C200 N199 1.351 . S
C200 C201 1.434 . S
C201 C192 1.429 . S
C201 N198 1.350 . S
C201 C200 1.434 . S
C202 C203 1.369 1_565 S
C202 C204 1.419 . S
C202 H206 0.930 . S
C203 C202 1.369 1_545 S
C203 C212 1.429 . S
C204 C202 1.419 . S
C204 C205 1.363 1_565 S
C204 H207 0.929 . S
C205 C204 1.363 1_545 S
C205 C211 1.428 . S
H206 C202 0.930 . S
H207 C204 0.929 . S
S208 N209 1.613 . S
S208 N210 1.610 . S
N209 S208 1.613 . S
N209 C212 1.350 . S
N210 S208 1.610 . S
N210 C211 1.351 . S
C211 C205 1.428 . S
C211 N210 1.351 . S
C211 C212 1.434 . S
C212 C203 1.429 . S
C212 N209 1.350 . S
C212 C211 1.434 . S
C213 C214 1.369 . S
C213 C215 1.419 . S
C213 H217 0.930 . S
C214 C213 1.369 . S
C214 C223 1.429 . S
C215 C213 1.419 . S
C215 C216 1.363 . S
C215 H218 0.929 . S
C216 C215 1.363 . S
C216 C222 1.428 . S
H217 C213 0.930 . S
H218 C215 0.929 . S
S219 N220 1.613 . S
S219 N221 1.610 . S
N220 S219 1.613 . S
N220 C223 1.350 . S
N221 S219 1.610 . S
N221 C222 1.351 . S
C222 C216 1.428 . S
C222 N221 1.351 . S
C222 C223 1.434 . S
C223 C214 1.429 . S
C223 N220 1.350 . S
C223 C222 1.434 . S
C224 C225 1.369 . S
C224 C226 1.419 . S
C224 H228 0.930 . S
C225 C224 1.369 . S
C225 C234 1.429 . S
C226 C224 1.419 . S
C226 C227 1.363 . S
C226 H229 0.929 . S
C227 C226 1.363 . S
C227 C233 1.428 . S
H228 C224 0.930 . S
H229 C226 0.929 . S
S230 N231 1.613 . S
S230 N232 1.610 . S
N231 S230 1.613 . S
N231 C234 1.350 . S
N232 S230 1.610 . S
N232 C233 1.351 . S
C233 C227 1.428 . S
C233 N232 1.351 . S
C233 C234 1.434 . S
C234 C225 1.429 . S
C234 N231 1.350 . S
C234 C233 1.434 . S
C235 C236 1.369 . S
C235 C237 1.419 . S
C235 H239 0.930 . S
C236 C235 1.369 . S
C236 C245 1.429 . S
C237 C235 1.419 . S
C237 C238 1.363 . S
C237 H240 0.929 . S
C238 C237 1.363 . S
C238 C244 1.428 . S
H239 C235 0.930 . S
H240 C237 0.929 . S
S241 N242 1.613 . S
S241 N243 1.610 . S
N242 S241 1.613 . S
N242 C245 1.350 . S
N243 S241 1.610 . S
N243 C244 1.351 . S
C244 C238 1.428 . S
C244 N243 1.351 . S
C244 C245 1.434 . S
C245 C236 1.429 . S
C245 N242 1.350 . S
C245 C244 1.434 . S
C246 C247 1.369 . S
C246 C248 1.419 . S
C246 H250 0.930 . S
C247 C246 1.369 . S
C247 C256 1.429 . S
C248 C246 1.419 . S
C248 C249 1.363 . S
C248 H251 0.929 . S
C249 C248 1.363 . S
C249 C255 1.428 . S
H250 C246 0.930 . S
H251 C248 0.929 . S
S252 N253 1.613 . S
S252 N254 1.610 . S
N253 S252 1.613 . S
N253 C256 1.350 . S
N254 S252 1.610 . S
N254 C255 1.351 . S
C255 C249 1.428 . S
C255 N254 1.351 . S
C255 C256 1.434 . S
C256 C247 1.429 . S
C256 N253 1.350 . S
C256 C255 1.434 . S
C257 C258 1.369 . S
C257 C259 1.419 . S
C257 H261 0.930 . S
C258 C257 1.369 . S
C258 C267 1.429 . S
C259 C257 1.419 . S
C259 C260 1.363 . S
C259 H262 0.929 . S
C260 C259 1.363 . S
C260 C266 1.428 . S
H261 C257 0.930 . S
H262 C259 0.929 . S
S263 N264 1.613 . S
S263 N265 1.610 . S
N264 S263 1.613 . S
N264 C267 1.350 1_455 S
N265 S263 1.610 . S
N265 C266 1.351 1_455 S
C266 C260 1.428 . S
C266 N265 1.351 1_655 S
C266 C267 1.434 . S
C267 C258 1.429 . S
C267 N264 1.350 1_655 S
C267 C266 1.434 . S
C268 C269 1.369 . S
C268 C270 1.419 . S
C268 H272 0.930 . S
C269 C268 1.369 . S
C269 C278 1.429 . S
C270 C268 1.419 . S
C270 C271 1.363 . S
C270 H273 0.929 . S
C271 C270 1.363 . S
C271 C277 1.428 . S
H272 C268 0.930 . S
H273 C270 0.929 . S
S274 N275 1.613 . S
S274 N276 1.610 . S
N275 S274 1.613 . S
N275 C278 1.350 1_455 S
N276 S274 1.610 . S
N276 C277 1.351 1_455 S
C277 C271 1.428 . S
C277 N276 1.351 1_655 S
C277 C278 1.434 . S
C278 C269 1.429 . S
C278 N275 1.350 1_655 S
C278 C277 1.434 . S
C279 C280 1.369 . S
C279 C281 1.419 . S
C279 H283 0.930 . S
C280 C279 1.369 . S
C280 C289 1.429 . S
C281 C279 1.419 . S
C281 C282 1.363 . S
C281 H284 0.929 . S
C282 C281 1.363 . S
C282 C288 1.428 . S
H283 C279 0.930 . S
H284 C281 0.929 . S
S285 N286 1.613 . S
S285 N287 1.610 . S
N286 S285 1.613 . S
N286 C289 1.350 1_556 S
N287 S285 1.610 . S
N287 C288 1.351 1_556 S
C288 C282 1.428 . S
C288 N287 1.351 1_554 S
C288 C289 1.434 . S
C289 C280 1.429 . S
C289 N286 1.350 1_554 S
C289 C288 1.434 . S
C290 C291 1.369 . S
C290 C292 1.419 . S
C290 H294 0.930 . S
C291 C290 1.369 . S
C291 C300 1.429 . S
C292 C290 1.419 . S
C292 C293 1.363 . S
C292 H295 0.929 . S
C293 C292 1.363 . S
C293 C299 1.428 . S
H294 C290 0.930 . S
H295 C292 0.929 . S
S296 N297 1.613 . S
S296 N298 1.610 . S
N297 S296 1.613 . S
N297 C300 1.350 . S
N298 S296 1.610 . S
N298 C299 1.351 . S
C299 C293 1.428 . S
C299 N298 1.351 . S
C299 C300 1.434 . S
C300 C291 1.429 . S
C300 N297 1.350 . S
C300 C299 1.434 . S
C301 C302 1.369 . S
C301 C303 1.419 . S
C301 H305 0.930 . S
C302 C301 1.369 . S
C302 C311 1.429 . S
C303 C301 1.419 . S
C303 C304 1.363 . S
C303 H306 0.929 . S
C304 C303 1.363 . S
C304 C310 1.428 . S
H305 C301 0.930 . S
H306 C303 0.929 . S
S307 N308 1.613 . S
S307 N309 1.610 . S
N308 S307 1.613 . S
N308 C311 1.350 . S
N309 S307 1.610 . S
N309 C310 1.351 . S
C310 C304 1.428 . S
C310 N309 1.351 . S
C310 C311 1.434 . S
C311 C302 1.429 . S
C311 N308 1.350 . S
C311 C310 1.434 . S
C312 C313 1.369 . S
C312 C314 1.419 . S
C312 H316 0.930 . S
C313 C312 1.369 . S
C313 C322 1.429 . S
C314 C312 1.419 . S
C314 C315 1.363 1_554 S
C314 H317 0.929 . S
C315 C314 1.363 1_556 S
C315 C321 1.428 . S
H316 C312 0.930 . S
H317 C314 0.929 . S
S318 N319 1.613 1_556 S
S318 N320 1.610 . S
N319 S318 1.613 1_554 S
N319 C322 1.350 . S
N320 S318 1.610 . S
N320 C321 1.351 . S
C321 C315 1.428 . S
C321 N320 1.351 . S
C321 C322 1.434 1_556 S
C322 C313 1.429 . S
C322 N319 1.350 . S
C322 C321 1.434 1_554 S
C323 C324 1.369 . S
C323 C325 1.419 . S
C323 H327 0.930 . S
C324 C323 1.369 . S
C324 C333 1.429 1_655 S
C325 C323 1.419 . S
C325 C326 1.363 . S
C325 H328 0.929 . S
C326 C325 1.363 . S
C326 C332 1.428 1_655 S
H327 C323 0.930 . S
H328 C325 0.929 . S
S329 N330 1.613 . S
S329 N331 1.610 . S
N330 S329 1.613 . S
N330 C333 1.350 . S
N331 S329 1.610 . S
N331 C332 1.351 . S
C332 C326 1.428 1_455 S
C332 N331 1.351 . S
C332 C333 1.434 . S
C333 C324 1.429 1_455 S
C333 N330 1.350 . S
C333 C332 1.434 . S
C334 C335 1.369 . S
C334 C336 1.419 . S
C334 H338 0.930 . S
C335 C334 1.369 . S
C335 C344 1.429 . S
C336 C334 1.419 . S
C336 C337 1.363 1_556 S
C336 H339 0.929 1_556 S
C337 C336 1.363 1_554 S
C337 C343 1.428 1_554 S
H338 C334 0.930 . S
H339 C336 0.929 1_554 S
S340 N341 1.613 . S
S340 N342 1.610 1_556 S
N341 S340 1.613 . S
N341 C344 1.350 . S
N342 S340 1.610 1_554 S
N342 C343 1.351 1_554 S
C343 C337 1.428 1_556 S
C343 N342 1.351 1_556 S
C343 C344 1.434 . S
C344 C335 1.429 . S
C344 N341 1.350 . S
C344 C343 1.434 . S
C345 C346 1.369 . S
C345 C347 1.419 . S
C345 H349 0.930 . S
C346 C345 1.369 . S
C346 C355 1.429 1_655 S
C347 C345 1.419 . S
C347 C348 1.363 . S
C347 H350 0.929 . S
C348 C347 1.363 . S
C348 C354 1.428 1_655 S
H349 C345 0.930 . S
H350 C347 0.929 . S
S351 N352 1.613 . S
S351 N353 1.610 1_556 S
N352 S351 1.613 . S
N352 C355 1.350 . S
N353 S351 1.610 1_554 S
N353 C354 1.351 1_554 S
C354 C348 1.428 1_455 S
C354 N353 1.351 1_556 S
C354 C355 1.434 . S
C355 C346 1.429 1_455 S
C355 N352 1.350 . S
C355 C354 1.434 . S
C356 C357 1.369 1_556 S
C356 C358 1.419 . S
C356 H360 0.930 . S
C357 C356 1.369 1_554 S
C357 C366 1.429 . S
C358 C356 1.419 . S
C358 C359 1.363 . S
C358 H361 0.929 . S
C359 C358 1.363 . S
C359 C365 1.428 . S
H360 C356 0.930 . S
H361 C358 0.929 . S
S362 N363 1.613 . S
S362 N364 1.610 1_554 S
N363 S362 1.613 . S
N363 C366 1.350 . S
N364 S362 1.610 1_556 S
N364 C365 1.351 . S
C365 C359 1.428 . S
C365 N364 1.351 . S
C365 C366 1.434 1_556 S
C366 C357 1.429 . S
C366 N363 1.350 . S
C366 C365 1.434 1_554 S
C367 C368 1.369 . S
C367 C369 1.419 . S
C367 H371 0.930 . S
C368 C367 1.369 . S
C368 C377 1.429 1_556 S
C369 C367 1.419 . S
C369 C370 1.363 1_556 S
C369 H372 0.929 . S
C370 C369 1.363 1_554 S
C370 C376 1.428 . S
H371 C367 0.930 . S
H372 C369 0.929 . S
S373 N374 1.613 . S
S373 N375 1.610 . S
N374 S373 1.613 . S
N374 C377 1.350 . S
N375 S373 1.610 . S
N375 C376 1.351 . S
C376 C370 1.428 . S
C376 N375 1.351 . S
C376 C377 1.434 . S
C377 C368 1.429 1_554 S
C377 N374 1.350 . S
C377 C376 1.434 . S
C378 C379 1.369 . S
C378 C380 1.419 . S
C378 H382 0.930 . S
C379 C378 1.369 . S
C379 C388 1.429 . S
C380 C378 1.419 . S
C380 C381 1.363 . S
C380 H383 0.929 . S
C381 C380 1.363 . S
C381 C387 1.428 . S
H382 C378 0.930 . S
H383 C380 0.929 . S
S384 N385 1.613 . S
S384 N386 1.610 . S
N385 S384 1.613 . S
N385 C388 1.350 . S
N386 S384 1.610 . S
N386 C387 1.351 . S
C387 C381 1.428 . S
C387 N386 1.351 . S
C387 C388 1.434 . S
C388 C379 1.429 . S
C388 N385 1.350 . S
C388 C387 1.434 . S
C389 C390 1.369 . S
C389 C391 1.419 . S
C389 H393 0.930 . S
C390 C389 1.369 . S
C390 C399 1.429 . S
C391 C389 1.419 . S
C391 C392 1.363 . S
C391 H394 0.929 . S
C392 C391 1.363 . S
C392 C398 1.428 . S
H393 C389 0.930 . S
H394 C391 0.929 . S
S395 N396 1.613 . S
S395 N397 1.610 . S
N396 S395 1.613 . S
N396 C399 1.350 . S
N397 S395 1.610 . S
N397 C398 1.351 . S
C398 C392 1.428 . S
C398 N397 1.351 . S
C398 C399 1.434 . S
C399 C390 1.429 . S
C399 N396 1.350 . S
C399 C398 1.434 . S
C400 C401 1.369 . S
C400 C402 1.419 . S
C400 H404 0.930 . S
C401 C400 1.369 . S
C401 C410 1.429 . S
C402 C400 1.419 . S
C402 C403 1.363 . S
C402 H405 0.929 . S
C403 C402 1.363 . S
C403 C409 1.428 . S
H404 C400 0.930 . S
H405 C402 0.929 . S
S406 N407 1.613 . S
S406 N408 1.610 . S
N407 S406 1.613 . S
N407 C410 1.350 . S
N408 S406 1.610 . S
N408 C409 1.351 . S
C409 C403 1.428 . S
C409 N408 1.351 . S
C409 C410 1.434 . S
C410 C401 1.429 . S
C410 N407 1.350 . S
C410 C409 1.434 . S
C411 C412 1.369 . S
C411 C413 1.419 . S
C411 H415 0.930 . S
C412 C411 1.369 . S
C412 C421 1.429 . S
C413 C411 1.419 . S
C413 C414 1.363 . S
C413 H416 0.929 . S
C414 C413 1.363 . S
C414 C420 1.428 . S
H415 C411 0.930 . S
H416 C413 0.929 . S
S417 N418 1.613 . S
S417 N419 1.610 . S
N418 S417 1.613 . S
N418 C421 1.350 . S
N419 S417 1.610 . S
N419 C420 1.351 . S
C420 C414 1.428 . S
C420 N419 1.351 . S
C420 C421 1.434 . S
C421 C412 1.429 . S
C421 N418 1.350 . S
C421 C420 1.434 . S
C422 C423 1.369 . S
C422 C424 1.419 . S
C422 H426 0.930 . S
C423 C422 1.369 . S
C423 C432 1.429 . S
C424 C422 1.419 . S
C424 C425 1.363 1_545 S
C424 H427 0.929 1_545 S
C425 C424 1.363 1_565 S
C425 C431 1.428 1_565 S
H426 C422 0.930 . S
H427 C424 0.929 1_565 S
S428 N429 1.613 . S
S428 N430 1.610 1_545 S
N429 S428 1.613 . S
N429 C432 1.350 . S
N430 S428 1.610 1_565 S
N430 C431 1.351 1_565 S
C431 C425 1.428 1_545 S
C431 N430 1.351 1_545 S
C431 C432 1.434 . S
C432 C423 1.429 . S
C432 N429 1.350 . S
C432 C431 1.434 . S
C433 C434 1.369 . S
C433 C435 1.419 . S
C433 H437 0.930 . S
C434 C433 1.369 . S
C434 C443 1.429 . S
C435 C433 1.419 . S
C435 C436 1.363 . S
C435 H438 0.929 . S
C436 C435 1.363 . S
C436 C442 1.428 . S
H437 C433 0.930 . S
H438 C435 0.929 . S
S439 N440 1.613 . S
S439 N441 1.610 . S
N440 S439 1.613 . S
N440 C443 1.350 . S
N441 S439 1.610 . S
N441 C442 1.351 . S
C442 C436 1.428 . S
C442 N441 1.351 . S
C442 C443 1.434 . S
C443 C434 1.429 . S
C443 N440 1.350 . S
C443 C442 1.434 . S
C444 C445 1.369 . S
C444 C446 1.419 . S
C444 H448 0.930 . S
C445 C444 1.369 . S
C445 C454 1.429 . S
C446 C444 1.419 . S
C446 C447 1.363 . S
C446 H449 0.929 . S
C447 C446 1.363 . S
C447 C453 1.428 . S
H448 C444 0.930 . S
H449 C446 0.929 . S
S450 N451 1.613 . S
S450 N452 1.610 . S
N451 S450 1.613 . S
N451 C454 1.350 . S
N452 S450 1.610 . S
N452 C453 1.351 . S
C453 C447 1.428 . S
C453 N452 1.351 . S
C453 C454 1.434 . S
C454 C445 1.429 . S
C454 N451 1.350 . S
C454 C453 1.434 . S
C455 C456 1.369 . S
C455 C457 1.419 1_565 S
C455 H459 0.930 . S
C456 C455 1.369 . S
C456 C465 1.429 1_565 S
C457 C455 1.419 1_545 S
C457 C458 1.363 . S
C457 H460 0.929 . S
C458 C457 1.363 . S
C458 C464 1.428 . S
H459 C455 0.930 . S
H460 C457 0.929 . S
S461 N462 1.613 1_455 S
S461 N463 1.610 1_455 S
N462 S461 1.613 1_655 S
N462 C465 1.350 . S
N463 S461 1.610 1_655 S
N463 C464 1.351 . S
C464 C458 1.428 . S
C464 N463 1.351 . S
C464 C465 1.434 . S
C465 C456 1.429 1_545 S
C465 N462 1.350 . S
C465 C464 1.434 . S
C466 C467 1.369 . S
C466 C468 1.419 . S
C466 H470 0.930 . S
C467 C466 1.369 . S
C467 C476 1.429 . S
C468 C466 1.419 . S
C468 C469 1.363 . S
C468 H471 0.929 . S
C469 C468 1.363 . S
C469 C475 1.428 . S
H470 C466 0.930 . S
H471 C468 0.929 . S
S472 N473 1.613 . S
S472 N474 1.610 . S
N473 S472 1.613 . S
N473 C476 1.350 . S
N474 S472 1.610 . S
N474 C475 1.351 . S
C475 C469 1.428 . S
C475 N474 1.351 . S
C475 C476 1.434 . S
C476 C467 1.429 . S
C476 N473 1.350 . S
C476 C475 1.434 . S
C181 C1 1.212 . S
C183 C9 1.210 . S
C192 C29 1.220 . S
C194 C21 1.223 . S
C203 C41 1.260 1_545 S
C205 C49 1.265 . S
C214 C69 1.216 . S
C216 C61 1.207 1_556 S
C225 C81 1.219 . S
C227 C89 1.223 . S
C236 C109 1.265 . S
C238 C101 1.261 . S
C247 C128 1.403 . S
C249 C139 1.412 1_554 S
C258 C159 1.406 . S
C260 C148 1.402 1_554 S
C269 C168 1.418 . S
C271 C179 1.409 1_554 S
C280 C116 1.954 . S
C282 C8 1.911 . S
C291 C36 1.544 . S
C293 C76 1.513 . S
C302 C48 2.405 . S
C304 C88 2.352 . S
C313 C56 1.106 . S
C315 C126 1.214 . S
C324 C149 1.450 . S
C326 C16 1.398 . S
C335 C166 1.640 . S
C337 C28 1.623 . S
C346 C161 1.821 . S
C348 C19 1.797 1_656 S
C357 C26 1.140 . S
C359 C121 1.227 . S
C368 C156 1.452 . S
C370 C59 1.359 . S
C379 C46 1.958 . S
C381 C79 1.916 . S
C390 C86 1.540 . S
C392 C6 1.507 . S
C401 C39 2.358 . S
C403 C119 2.409 . S
C412 C169 1.821 . S
C414 C68 1.795 . S
C423 C129 1.225 . S
C425 C96 1.137 . S
C434 C146 1.453 . S
C436 C108 1.359 . S
C445 C136 1.215 . S
C447 C106 1.100 . S
C456 C66 1.398 . S
C458 C141 1.450 . S
C467 C176 1.636 . S
C469 C99 1.619 . S
