# Generated by pormake.
# Topology lcs-e, (6)-cn, num edge types: 1
# Building blocks:
#     Node 0, Type 0, BuildingBlock: KUMJIN_clean_sbu_0, # of connection points: 6
#     Node 1, Type 0, BuildingBlock: KUMJIN_clean_sbu_0, # of connection points: 6
#     Node 2, Type 0, BuildingBlock: KUMJIN_clean_sbu_0, # of connection points: 6
#     Node 3, Type 0, BuildingBlock: KUMJIN_clean_sbu_0, # of connection points: 6
#     Node 4, Type 0, BuildingBlock: KUMJIN_clean_sbu_0, # of connection points: 6
#     Node 5, Type 0, BuildingBlock: KUMJIN_clean_sbu_0, # of connection points: 6
#     Node 6, Type 0, BuildingBlock: KUMJIN_clean_sbu_0, # of connection points: 6
#     Node 7, Type 0, BuildingBlock: KUMJIN_clean_sbu_0, # of connection points: 6
#     Node 8, Type 0, BuildingBlock: KUMJIN_clean_sbu_0, # of connection points: 6
#     Node 9, Type 0, BuildingBlock: KUMJIN_clean_sbu_0, # of connection points: 6
#     Node 10, Type 0, BuildingBlock: KUMJIN_clean_sbu_0, # of connection points: 6
#     Node 11, Type 0, BuildingBlock: KUMJIN_clean_sbu_0, # of connection points: 6
#     Node 12, Type 0, BuildingBlock: KUMJIN_clean_sbu_0, # of connection points: 6
#     Node 13, Type 0, BuildingBlock: KUMJIN_clean_sbu_0, # of connection points: 6
#     Node 14, Type 0, BuildingBlock: KUMJIN_clean_sbu_0, # of connection points: 6
#     Node 15, Type 0, BuildingBlock: KUMJIN_clean_sbu_0, # of connection points: 6
#     Node 16, Type 0, BuildingBlock: KUMJIN_clean_sbu_0, # of connection points: 6
#     Node 17, Type 0, BuildingBlock: KUMJIN_clean_sbu_0, # of connection points: 6
#     Node 18, Type 0, BuildingBlock: KUMJIN_clean_sbu_0, # of connection points: 6
#     Node 19, Type 0, BuildingBlock: KUMJIN_clean_sbu_0, # of connection points: 6
#     Node 20, Type 0, BuildingBlock: KUMJIN_clean_sbu_0, # of connection points: 6
#     Node 21, Type 0, BuildingBlock: KUMJIN_clean_sbu_0, # of connection points: 6
#     Node 22, Type 0, BuildingBlock: KUMJIN_clean_sbu_0, # of connection points: 6
#     Node 23, Type 0, BuildingBlock: KUMJIN_clean_sbu_0, # of connection points: 6
#     Node 24, Type 0, BuildingBlock: KUMJIN_clean_sbu_0, # of connection points: 6
#     Node 25, Type 0, BuildingBlock: KUMJIN_clean_sbu_0, # of connection points: 6
#     Node 26, Type 0, BuildingBlock: KUMJIN_clean_sbu_0, # of connection points: 6
#     Node 27, Type 0, BuildingBlock: KUMJIN_clean_sbu_0, # of connection points: 6
#     Node 28, Type 0, BuildingBlock: KUMJIN_clean_sbu_0, # of connection points: 6
#     Node 29, Type 0, BuildingBlock: KUMJIN_clean_sbu_0, # of connection points: 6
#     Node 30, Type 0, BuildingBlock: KUMJIN_clean_sbu_0, # of connection points: 6
#     Node 31, Type 0, BuildingBlock: KUMJIN_clean_sbu_0, # of connection points: 6
#     Node 32, Type 0, BuildingBlock: KUMJIN_clean_sbu_0, # of connection points: 6
#     Node 33, Type 0, BuildingBlock: KUMJIN_clean_sbu_0, # of connection points: 6
#     Node 34, Type 0, BuildingBlock: KUMJIN_clean_sbu_0, # of connection points: 6
#     Node 35, Type 0, BuildingBlock: KUMJIN_clean_sbu_0, # of connection points: 6
#     Node 36, Type 0, BuildingBlock: KUMJIN_clean_sbu_0, # of connection points: 6
#     Node 37, Type 0, BuildingBlock: KUMJIN_clean_sbu_0, # of connection points: 6
#     Node 38, Type 0, BuildingBlock: KUMJIN_clean_sbu_0, # of connection points: 6
#     Node 39, Type 0, BuildingBlock: KUMJIN_clean_sbu_0, # of connection points: 6
#     Node 40, Type 0, BuildingBlock: KUMJIN_clean_sbu_0, # of connection points: 6
#     Node 41, Type 0, BuildingBlock: KUMJIN_clean_sbu_0, # of connection points: 6
#     Node 42, Type 0, BuildingBlock: KUMJIN_clean_sbu_0, # of connection points: 6
#     Node 43, Type 0, BuildingBlock: KUMJIN_clean_sbu_0, # of connection points: 6
#     Node 44, Type 0, BuildingBlock: KUMJIN_clean_sbu_0, # of connection points: 6
#     Node 45, Type 0, BuildingBlock: KUMJIN_clean_sbu_0, # of connection points: 6
#     Node 46, Type 0, BuildingBlock: KUMJIN_clean_sbu_0, # of connection points: 6
#     Node 47, Type 0, BuildingBlock: KUMJIN_clean_sbu_0, # of connection points: 6
#     Edge 48, Type (0, 0), BuildingBlock: TEMPAE_clean_linker_10, # of connection points: 2
#     Edge 49, Type (0, 0), BuildingBlock: TEMPAE_clean_linker_10, # of connection points: 2
#     Edge 50, Type (0, 0), BuildingBlock: TEMPAE_clean_linker_10, # of connection points: 2
#     Edge 51, Type (0, 0), BuildingBlock: TEMPAE_clean_linker_10, # of connection points: 2
#     Edge 52, Type (0, 0), BuildingBlock: TEMPAE_clean_linker_10, # of connection points: 2
#     Edge 53, Type (0, 0), BuildingBlock: TEMPAE_clean_linker_10, # of connection points: 2
#     Edge 54, Type (0, 0), BuildingBlock: TEMPAE_clean_linker_10, # of connection points: 2
#     Edge 55, Type (0, 0), BuildingBlock: TEMPAE_clean_linker_10, # of connection points: 2
#     Edge 56, Type (0, 0), BuildingBlock: TEMPAE_clean_linker_10, # of connection points: 2
#     Edge 57, Type (0, 0), BuildingBlock: TEMPAE_clean_linker_10, # of connection points: 2
#     Edge 58, Type (0, 0), BuildingBlock: TEMPAE_clean_linker_10, # of connection points: 2
#     Edge 59, Type (0, 0), BuildingBlock: TEMPAE_clean_linker_10, # of connection points: 2
#     Edge 60, Type (0, 0), BuildingBlock: TEMPAE_clean_linker_10, # of connection points: 2
#     Edge 61, Type (0, 0), BuildingBlock: TEMPAE_clean_linker_10, # of connection points: 2
#     Edge 62, Type (0, 0), BuildingBlock: TEMPAE_clean_linker_10, # of connection points: 2
#     Edge 63, Type (0, 0), BuildingBlock: TEMPAE_clean_linker_10, # of connection points: 2
#     Edge 64, Type (0, 0), BuildingBlock: TEMPAE_clean_linker_10, # of connection points: 2
#     Edge 65, Type (0, 0), BuildingBlock: TEMPAE_clean_linker_10, # of connection points: 2
#     Edge 66, Type (0, 0), BuildingBlock: TEMPAE_clean_linker_10, # of connection points: 2
#     Edge 67, Type (0, 0), BuildingBlock: TEMPAE_clean_linker_10, # of connection points: 2
#     Edge 68, Type (0, 0), BuildingBlock: TEMPAE_clean_linker_10, # of connection points: 2
#     Edge 69, Type (0, 0), BuildingBlock: TEMPAE_clean_linker_10, # of connection points: 2
#     Edge 70, Type (0, 0), BuildingBlock: TEMPAE_clean_linker_10, # of connection points: 2
#     Edge 71, Type (0, 0), BuildingBlock: TEMPAE_clean_linker_10, # of connection points: 2
#     Edge 72, Type (0, 0), BuildingBlock: TEMPAE_clean_linker_10, # of connection points: 2
#     Edge 73, Type (0, 0), BuildingBlock: TEMPAE_clean_linker_10, # of connection points: 2
#     Edge 74, Type (0, 0), BuildingBlock: TEMPAE_clean_linker_10, # of connection points: 2
#     Edge 75, Type (0, 0), BuildingBlock: TEMPAE_clean_linker_10, # of connection points: 2
#     Edge 76, Type (0, 0), BuildingBlock: TEMPAE_clean_linker_10, # of connection points: 2
#     Edge 77, Type (0, 0), BuildingBlock: TEMPAE_clean_linker_10, # of connection points: 2
#     Edge 78, Type (0, 0), BuildingBlock: TEMPAE_clean_linker_10, # of connection points: 2
#     Edge 79, Type (0, 0), BuildingBlock: TEMPAE_clean_linker_10, # of connection points: 2
#     Edge 80, Type (0, 0), BuildingBlock: TEMPAE_clean_linker_10, # of connection points: 2
#     Edge 81, Type (0, 0), BuildingBlock: TEMPAE_clean_linker_10, # of connection points: 2
#     Edge 82, Type (0, 0), BuildingBlock: TEMPAE_clean_linker_10, # of connection points: 2
#     Edge 83, Type (0, 0), BuildingBlock: TEMPAE_clean_linker_10, # of connection points: 2
#     Edge 84, Type (0, 0), BuildingBlock: TEMPAE_clean_linker_10, # of connection points: 2
#     Edge 85, Type (0, 0), BuildingBlock: TEMPAE_clean_linker_10, # of connection points: 2
#     Edge 86, Type (0, 0), BuildingBlock: TEMPAE_clean_linker_10, # of connection points: 2
#     Edge 87, Type (0, 0), BuildingBlock: TEMPAE_clean_linker_10, # of connection points: 2
#     Edge 88, Type (0, 0), BuildingBlock: TEMPAE_clean_linker_10, # of connection points: 2
#     Edge 89, Type (0, 0), BuildingBlock: TEMPAE_clean_linker_10, # of connection points: 2
#     Edge 90, Type (0, 0), BuildingBlock: TEMPAE_clean_linker_10, # of connection points: 2
#     Edge 91, Type (0, 0), BuildingBlock: TEMPAE_clean_linker_10, # of connection points: 2
#     Edge 92, Type (0, 0), BuildingBlock: TEMPAE_clean_linker_10, # of connection points: 2
#     Edge 93, Type (0, 0), BuildingBlock: TEMPAE_clean_linker_10, # of connection points: 2
#     Edge 94, Type (0, 0), BuildingBlock: TEMPAE_clean_linker_10, # of connection points: 2
#     Edge 95, Type (0, 0), BuildingBlock: TEMPAE_clean_linker_10, # of connection points: 2
#     Edge 96, Type (0, 0), BuildingBlock: TEMPAE_clean_linker_10, # of connection points: 2
#     Edge 97, Type (0, 0), BuildingBlock: TEMPAE_clean_linker_10, # of connection points: 2
#     Edge 98, Type (0, 0), BuildingBlock: TEMPAE_clean_linker_10, # of connection points: 2
#     Edge 99, Type (0, 0), BuildingBlock: TEMPAE_clean_linker_10, # of connection points: 2
#     Edge 100, Type (0, 0), BuildingBlock: TEMPAE_clean_linker_10, # of connection points: 2
#     Edge 101, Type (0, 0), BuildingBlock: TEMPAE_clean_linker_10, # of connection points: 2
#     Edge 102, Type (0, 0), BuildingBlock: TEMPAE_clean_linker_10, # of connection points: 2
#     Edge 103, Type (0, 0), BuildingBlock: TEMPAE_clean_linker_10, # of connection points: 2
#     Edge 104, Type (0, 0), BuildingBlock: TEMPAE_clean_linker_10, # of connection points: 2
#     Edge 105, Type (0, 0), BuildingBlock: TEMPAE_clean_linker_10, # of connection points: 2
#     Edge 106, Type (0, 0), BuildingBlock: TEMPAE_clean_linker_10, # of connection points: 2
#     Edge 107, Type (0, 0), BuildingBlock: TEMPAE_clean_linker_10, # of connection points: 2
#     Edge 108, Type (0, 0), BuildingBlock: TEMPAE_clean_linker_10, # of connection points: 2
#     Edge 109, Type (0, 0), BuildingBlock: TEMPAE_clean_linker_10, # of connection points: 2
#     Edge 110, Type (0, 0), BuildingBlock: TEMPAE_clean_linker_10, # of connection points: 2
#     Edge 111, Type (0, 0), BuildingBlock: TEMPAE_clean_linker_10, # of connection points: 2
#     Edge 112, Type (0, 0), BuildingBlock: TEMPAE_clean_linker_10, # of connection points: 2
#     Edge 113, Type (0, 0), BuildingBlock: TEMPAE_clean_linker_10, # of connection points: 2
#     Edge 114, Type (0, 0), BuildingBlock: TEMPAE_clean_linker_10, # of connection points: 2
#     Edge 115, Type (0, 0), BuildingBlock: TEMPAE_clean_linker_10, # of connection points: 2
#     Edge 116, Type (0, 0), BuildingBlock: TEMPAE_clean_linker_10, # of connection points: 2
#     Edge 117, Type (0, 0), BuildingBlock: TEMPAE_clean_linker_10, # of connection points: 2
#     Edge 118, Type (0, 0), BuildingBlock: TEMPAE_clean_linker_10, # of connection points: 2
#     Edge 119, Type (0, 0), BuildingBlock: TEMPAE_clean_linker_10, # of connection points: 2
#     Edge 120, Type (0, 0), BuildingBlock: TEMPAE_clean_linker_10, # of connection points: 2
#     Edge 121, Type (0, 0), BuildingBlock: TEMPAE_clean_linker_10, # of connection points: 2
#     Edge 122, Type (0, 0), BuildingBlock: TEMPAE_clean_linker_10, # of connection points: 2
#     Edge 123, Type (0, 0), BuildingBlock: TEMPAE_clean_linker_10, # of connection points: 2
#     Edge 124, Type (0, 0), BuildingBlock: TEMPAE_clean_linker_10, # of connection points: 2
#     Edge 125, Type (0, 0), BuildingBlock: TEMPAE_clean_linker_10, # of connection points: 2
#     Edge 126, Type (0, 0), BuildingBlock: TEMPAE_clean_linker_10, # of connection points: 2
#     Edge 127, Type (0, 0), BuildingBlock: TEMPAE_clean_linker_10, # of connection points: 2
#     Edge 128, Type (0, 0), BuildingBlock: TEMPAE_clean_linker_10, # of connection points: 2
#     Edge 129, Type (0, 0), BuildingBlock: TEMPAE_clean_linker_10, # of connection points: 2
#     Edge 130, Type (0, 0), BuildingBlock: TEMPAE_clean_linker_10, # of connection points: 2
#     Edge 131, Type (0, 0), BuildingBlock: TEMPAE_clean_linker_10, # of connection points: 2
#     Edge 132, Type (0, 0), BuildingBlock: TEMPAE_clean_linker_10, # of connection points: 2
#     Edge 133, Type (0, 0), BuildingBlock: TEMPAE_clean_linker_10, # of connection points: 2
#     Edge 134, Type (0, 0), BuildingBlock: TEMPAE_clean_linker_10, # of connection points: 2
#     Edge 135, Type (0, 0), BuildingBlock: TEMPAE_clean_linker_10, # of connection points: 2
#     Edge 136, Type (0, 0), BuildingBlock: TEMPAE_clean_linker_10, # of connection points: 2
#     Edge 137, Type (0, 0), BuildingBlock: TEMPAE_clean_linker_10, # of connection points: 2
#     Edge 138, Type (0, 0), BuildingBlock: TEMPAE_clean_linker_10, # of connection points: 2
#     Edge 139, Type (0, 0), BuildingBlock: TEMPAE_clean_linker_10, # of connection points: 2
#     Edge 140, Type (0, 0), BuildingBlock: TEMPAE_clean_linker_10, # of connection points: 2
#     Edge 141, Type (0, 0), BuildingBlock: TEMPAE_clean_linker_10, # of connection points: 2
#     Edge 142, Type (0, 0), BuildingBlock: TEMPAE_clean_linker_10, # of connection points: 2
#     Edge 143, Type (0, 0), BuildingBlock: TEMPAE_clean_linker_10, # of connection points: 2
#     Edge 144, Type (0, 0), BuildingBlock: TEMPAE_clean_linker_10, # of connection points: 2
#     Edge 145, Type (0, 0), BuildingBlock: TEMPAE_clean_linker_10, # of connection points: 2
#     Edge 146, Type (0, 0), BuildingBlock: TEMPAE_clean_linker_10, # of connection points: 2
#     Edge 147, Type (0, 0), BuildingBlock: TEMPAE_clean_linker_10, # of connection points: 2
#     Edge 148, Type (0, 0), BuildingBlock: TEMPAE_clean_linker_10, # of connection points: 2
#     Edge 149, Type (0, 0), BuildingBlock: TEMPAE_clean_linker_10, # of connection points: 2
#     Edge 150, Type (0, 0), BuildingBlock: TEMPAE_clean_linker_10, # of connection points: 2
#     Edge 151, Type (0, 0), BuildingBlock: TEMPAE_clean_linker_10, # of connection points: 2
#     Edge 152, Type (0, 0), BuildingBlock: TEMPAE_clean_linker_10, # of connection points: 2
#     Edge 153, Type (0, 0), BuildingBlock: TEMPAE_clean_linker_10, # of connection points: 2
#     Edge 154, Type (0, 0), BuildingBlock: TEMPAE_clean_linker_10, # of connection points: 2
#     Edge 155, Type (0, 0), BuildingBlock: TEMPAE_clean_linker_10, # of connection points: 2
#     Edge 156, Type (0, 0), BuildingBlock: TEMPAE_clean_linker_10, # of connection points: 2
#     Edge 157, Type (0, 0), BuildingBlock: TEMPAE_clean_linker_10, # of connection points: 2
#     Edge 158, Type (0, 0), BuildingBlock: TEMPAE_clean_linker_10, # of connection points: 2
#     Edge 159, Type (0, 0), BuildingBlock: TEMPAE_clean_linker_10, # of connection points: 2
#     Edge 160, Type (0, 0), BuildingBlock: TEMPAE_clean_linker_10, # of connection points: 2
#     Edge 161, Type (0, 0), BuildingBlock: TEMPAE_clean_linker_10, # of connection points: 2
#     Edge 162, Type (0, 0), BuildingBlock: TEMPAE_clean_linker_10, # of connection points: 2
#     Edge 163, Type (0, 0), BuildingBlock: TEMPAE_clean_linker_10, # of connection points: 2
#     Edge 164, Type (0, 0), BuildingBlock: TEMPAE_clean_linker_10, # of connection points: 2
#     Edge 165, Type (0, 0), BuildingBlock: TEMPAE_clean_linker_10, # of connection points: 2
#     Edge 166, Type (0, 0), BuildingBlock: TEMPAE_clean_linker_10, # of connection points: 2
#     Edge 167, Type (0, 0), BuildingBlock: TEMPAE_clean_linker_10, # of connection points: 2
#     Edge 168, Type (0, 0), BuildingBlock: TEMPAE_clean_linker_10, # of connection points: 2
#     Edge 169, Type (0, 0), BuildingBlock: TEMPAE_clean_linker_10, # of connection points: 2
#     Edge 170, Type (0, 0), BuildingBlock: TEMPAE_clean_linker_10, # of connection points: 2
#     Edge 171, Type (0, 0), BuildingBlock: TEMPAE_clean_linker_10, # of connection points: 2
#     Edge 172, Type (0, 0), BuildingBlock: TEMPAE_clean_linker_10, # of connection points: 2
#     Edge 173, Type (0, 0), BuildingBlock: TEMPAE_clean_linker_10, # of connection points: 2
#     Edge 174, Type (0, 0), BuildingBlock: TEMPAE_clean_linker_10, # of connection points: 2
#     Edge 175, Type (0, 0), BuildingBlock: TEMPAE_clean_linker_10, # of connection points: 2
#     Edge 176, Type (0, 0), BuildingBlock: TEMPAE_clean_linker_10, # of connection points: 2
#     Edge 177, Type (0, 0), BuildingBlock: TEMPAE_clean_linker_10, # of connection points: 2
#     Edge 178, Type (0, 0), BuildingBlock: TEMPAE_clean_linker_10, # of connection points: 2
#     Edge 179, Type (0, 0), BuildingBlock: TEMPAE_clean_linker_10, # of connection points: 2
#     Edge 180, Type (0, 0), BuildingBlock: TEMPAE_clean_linker_10, # of connection points: 2
#     Edge 181, Type (0, 0), BuildingBlock: TEMPAE_clean_linker_10, # of connection points: 2
#     Edge 182, Type (0, 0), BuildingBlock: TEMPAE_clean_linker_10, # of connection points: 2
#     Edge 183, Type (0, 0), BuildingBlock: TEMPAE_clean_linker_10, # of connection points: 2
#     Edge 184, Type (0, 0), BuildingBlock: TEMPAE_clean_linker_10, # of connection points: 2
#     Edge 185, Type (0, 0), BuildingBlock: TEMPAE_clean_linker_10, # of connection points: 2
#     Edge 186, Type (0, 0), BuildingBlock: TEMPAE_clean_linker_10, # of connection points: 2
#     Edge 187, Type (0, 0), BuildingBlock: TEMPAE_clean_linker_10, # of connection points: 2
#     Edge 188, Type (0, 0), BuildingBlock: TEMPAE_clean_linker_10, # of connection points: 2
#     Edge 189, Type (0, 0), BuildingBlock: TEMPAE_clean_linker_10, # of connection points: 2
#     Edge 190, Type (0, 0), BuildingBlock: TEMPAE_clean_linker_10, # of connection points: 2
#     Edge 191, Type (0, 0), BuildingBlock: TEMPAE_clean_linker_10, # of connection points: 2
# Relax obj value: 0.210
# Max RMSD: 0.192
# Mean RMSD: 0.190
data_MOF--net-lcs-e--node1-KUMJIN_clean_sbu_0--edge1-TEMPAE_clean_linker_10
_symmetry_space_group_name_H-M    P1
_symmetry_Int_Tables_number       1
_symmetry_cell_setting            triclinic
loop_
_symmetry_equiv_pos_as_xyz
'x, y, z'
_cell_length_a     67.671831
_cell_length_b     67.695945
_cell_length_c     67.897622
_cell_angle_alpha  89.900272
_cell_angle_beta   90.124064
_cell_angle_gamma 90.271678
loop_
_atom_site_label
_atom_site_type_symbol
_atom_site_fract_x
_atom_site_fract_y
_atom_site_fract_z
_atom_type_partial_charge
Eu0 Eu 1.01266 0.39271 0.29873 0.0
C1 C 0.08026 0.35338 0.26042 0.0
C2 C 0.11041 0.35828 0.27906 0.0
C3 C 0.10468 0.3272 0.26216 0.0
C4 C 0.09173 0.36509 0.27276 0.0
C5 C 0.0873 0.33491 0.25396 0.0
C6 C 0.11622 0.33887 0.27476 0.0
C7 C 0.0619 0.33499 0.22889 0.0
N8 N 0.06348 0.36112 0.25272 0.0
C9 C 0.05522 0.35309 0.23607 0.0
C10 C 0.07748 0.32543 0.23843 0.0
Eu11 Eu 0.05221 0.39065 0.26759 0.0
N12 N 0.08578 0.3839 0.27657 0.0
C13 C 0.09928 0.39744 0.28347 0.0
C14 C 0.12324 0.37154 0.28838 0.0
C15 C 0.11788 0.39133 0.29006 0.0
H16 H 0.04263 0.36005 0.22917 0.0
H17 H 0.12817 0.40187 0.29628 0.0
H18 H 0.13022 0.33322 0.28004 0.0
H19 H 0.05474 0.32819 0.21634 0.0
H20 H 0.09566 0.41296 0.28431 0.0
H21 H 0.97801 0.38891 0.2267 0.0
H22 H 0.1377 0.3669 0.29339 0.0
H23 H 1.00942 0.42682 0.33492 0.0
H24 H 0.99939 0.37725 0.2541 0.0
H25 H 0.99369 0.45921 0.33986 0.0
H26 H 0.10998 0.31276 0.25787 0.0
H27 H 0.96032 0.4207 0.22969 0.0
H28 H 0.95268 0.45094 0.24973 0.0
H29 H 0.08248 0.31128 0.23299 0.0
H30 H 0.95737 0.47017 0.28011 0.0
N31 N 0.99357 0.40224 0.27188 0.0
C32 C 0.9916 0.3911 0.25535 0.0
C33 C 0.9696 0.41565 0.24168 0.0
C34 C 0.97175 0.42695 0.25884 0.0
C35 C 0.97958 0.39768 0.23992 0.0
C36 C 0.98404 0.41978 0.27396 0.0
H37 H 0.97289 0.47359 0.31354 0.0
N38 N 0.99883 0.42366 0.30549 0.0
C39 C 0.99179 0.45147 0.32604 0.0
C40 C 0.98681 0.43078 0.29115 0.0
C41 C 1.00088 0.43325 0.32307 0.0
C42 C 0.97999 0.45948 0.31117 0.0
C43 C 0.97712 0.449 0.2936 0.0
O44 O 1.00393 0.38734 0.32866 0.0
O45 O 0.03825 0.3754 0.29147 0.0
O46 O 0.03755 0.35625 0.26963 0.0
O47 O 1.00946 0.35812 0.2881 0.0
O48 O 0.03421 0.38097 0.32124 0.0
O49 O 0.98281 0.38129 0.30518 0.0
O50 O 0.04122 0.39739 0.2371 0.0
O51 O 0.02637 0.41324 0.27385 0.0
O52 O 0.03488 0.41353 0.31308 0.0
O53 O 0.06342 0.40526 0.29565 0.0
O54 O 0.05429 0.42486 0.27115 0.0
O55 O 0.07286 0.3986 0.24579 0.0
C56 C 0.04523 0.37234 0.30848 0.0
C57 C 0.97132 0.38517 0.33839 0.0
C58 C 0.95884 0.37733 0.37093 0.0
C59 C 0.96985 0.37224 0.35437 0.0
C60 C 0.94885 0.39549 0.37123 0.0
C61 C 0.96128 0.4032 0.3386 0.0
C62 C 0.94995 0.40827 0.35502 0.0
C63 C 0.0218 0.34623 0.27774 0.0
C64 C 0.98651 0.38067 0.32407 0.0
C65 C 0.96484 0.45614 0.27854 0.0
C66 C 0.96215 0.44516 0.26123 0.0
C67 C 0.03614 0.43063 0.2738 0.0
C68 C 0.06714 0.40744 0.21258 0.0
C69 C 0.08649 0.41524 0.21138 0.0
C70 C 0.09567 0.41815 0.19314 0.0
C71 C 0.08507 0.41385 0.17587 0.0
C72 C 0.05661 0.40362 0.19523 0.0
C73 C 0.06556 0.40692 0.17694 0.0
C74 C 0.05417 0.41441 0.31021 0.0
C75 C 0.05974 0.40077 0.23187 0.0
H76 H 0.97818 0.35857 0.35433 0.0
H77 H 0.94008 0.39967 0.38386 0.0
H78 H 0.96263 0.41347 0.32644 0.0
H79 H 0.94229 0.42226 0.35533 0.0
H80 H 0.09488 0.41826 0.22468 0.0
H81 H 0.09182 0.41603 0.16158 0.0
H82 H 0.04184 0.39741 0.1958 0.0
H83 H 0.05751 0.40368 0.16354 0.0
Eu84 Eu 0.88323 0.76182 0.54685 0.0
C85 C 0.92985 0.82499 0.5102 0.0
C86 C 0.93226 0.85249 0.53303 0.0
C87 C 0.96028 0.84417 0.51241 0.0
C88 C 0.92124 0.8367 0.52482 0.0
C89 C 0.94916 0.82913 0.50347 0.0
C90 C 0.95191 0.85571 0.52723 0.0
C91 C 0.94514 0.80354 0.47896 0.0
N92 N 0.91945 0.80953 0.5025 0.0
C93 C 0.9263 0.79956 0.48631 0.0
C94 C 0.95679 0.81807 0.48784 0.0
Eu95 Eu 0.88887 0.80281 0.51806 0.0
N96 N 0.90206 0.83335 0.53035 0.0
C97 C 0.89263 0.84696 0.54194 0.0
C98 C 0.92313 0.86499 0.54653 0.0
C99 C 0.90313 0.86254 0.55055 0.0
H100 H 0.91778 0.7876 0.47997 0.0
H101 H 0.89575 0.87283 0.56017 0.0
H102 H 0.9606 0.86752 0.53371 0.0
H103 H 0.95083 0.79513 0.46669 0.0
H104 H 0.87701 0.84633 0.54477 0.0
H105 H 0.9021 0.73088 0.47528 0.0
H106 H 0.93115 0.87715 0.55322 0.0
H107 H 0.83837 0.76161 0.57054 0.0
H108 H 0.90598 0.75359 0.50341 0.0
H109 H 0.80758 0.74248 0.56913 0.0
H110 H 0.97529 0.84721 0.50774 0.0
H111 H 0.8734 0.70815 0.4738 0.0
H112 H 0.84168 0.69602 0.48873 0.0
H113 H 0.97155 0.82086 0.48232 0.0
H114 H 0.81637 0.69881 0.51446 0.0
N115 N 0.88003 0.74345 0.51785 0.0
C116 C 0.89354 0.74361 0.50302 0.0
C117 C 0.87505 0.71804 0.48622 0.0
C118 C 0.86088 0.71847 0.50121 0.0
C119 C 0.89129 0.73086 0.487 0.0
C120 C 0.86366 0.73168 0.51699 0.0
H121 H 0.80333 0.71633 0.54412 0.0
N122 N 0.85136 0.74735 0.54563 0.0
C123 C 0.8191 0.73981 0.55844 0.0
C124 C 0.84909 0.73349 0.53139 0.0
C125 C 0.83647 0.75099 0.55884 0.0
C126 C 0.81686 0.72494 0.54442 0.0
C127 C 0.8318 0.72177 0.53054 0.0
O128 O 0.87297 0.74045 0.56852 0.0
O129 O 0.90106 0.78849 0.54385 0.0
O130 O 0.92206 0.78807 0.52262 0.0
O131 O 0.91839 0.75819 0.53767 0.0
O132 O 0.89015 0.78252 0.57182 0.0
O133 O 0.90387 0.74193 0.56213 0.0
O134 O 0.88308 0.79602 0.48666 0.0
O135 O 0.86567 0.77657 0.52108 0.0
O136 O 0.86238 0.78513 0.56074 0.0
O137 O 0.87005 0.81371 0.54278 0.0
O138 O 0.85441 0.80433 0.51759 0.0
O139 O 0.88317 0.82677 0.49865 0.0
C140 C 0.90119 0.79416 0.56161 0.0
C141 C 0.8941 0.73944 0.59542 0.0
C142 C 0.90964 0.73029 0.62608 0.0
C143 C 0.90672 0.72708 0.60595 0.0
C144 C 0.9008 0.74637 0.63554 0.0
C145 C 0.8845 0.75505 0.60525 0.0
C146 C 0.88829 0.75878 0.62507 0.0
C147 C 0.93112 0.77155 0.52949 0.0
C148 C 0.89044 0.73583 0.57442 0.0
C149 C 0.82953 0.70794 0.51534 0.0
C150 C 0.84395 0.70639 0.50066 0.0
C151 C 0.84832 0.78616 0.51967 0.0
C152 C 0.87594 0.82416 0.46436 0.0
C153 C 0.86794 0.84329 0.46416 0.0
C154 C 0.86573 0.85357 0.44644 0.0
C155 C 0.87107 0.84446 0.42871 0.0
C156 C 0.88088 0.81501 0.44657 0.0
C157 C 0.87838 0.82516 0.42878 0.0
C158 C 0.86005 0.80427 0.55668 0.0
C159 C 0.88115 0.81517 0.48331 0.0
H160 H 0.91359 0.71458 0.59876 0.0
H161 H 0.90306 0.74883 0.65115 0.0
H162 H 0.87376 0.7642 0.59781 0.0
H163 H 0.88105 0.77092 0.63244 0.0
H164 H 0.86401 0.85054 0.47783 0.0
H165 H 0.86938 0.8522 0.41483 0.0
H166 H 0.88725 0.80036 0.44646 0.0
H167 H 0.88243 0.81819 0.41505 0.0
Eu168 Eu 0.48014 0.64348 0.76797 0.0
C169 C 0.52757 0.60055 0.82628 0.0
C170 C 0.5102 0.59918 0.85759 0.0
C171 C 0.53181 0.57232 0.84813 0.0
C172 C 0.51431 0.60906 0.83966 0.0
C173 C 0.5371 0.58263 0.83101 0.0
C174 C 0.51826 0.58047 0.86128 0.0
C175 C 0.55755 0.58671 0.80211 0.0
N176 N 0.53211 0.61025 0.80925 0.0
C177 C 0.54754 0.60413 0.79768 0.0
C178 C 0.55213 0.57575 0.81866 0.0
Eu179 Eu 0.51414 0.63962 0.80374 0.0
N180 N 0.50708 0.62761 0.83618 0.0
C181 C 0.49846 0.63785 0.85134 0.0
C182 C 0.49908 0.60883 0.87194 0.0
C183 C 0.49378 0.62845 0.86907 0.0
H184 H 0.55142 0.61221 0.78449 0.0
H185 H 0.48626 0.63645 0.88061 0.0
H186 H 0.51492 0.57262 0.8748 0.0
H187 H 0.5693 0.58162 0.79262 0.0
H188 H 0.49519 0.65335 0.85033 0.0
H189 H 0.54859 0.62616 0.72973 0.0
H190 H 0.49557 0.60166 0.8858 0.0
H191 H 0.4537 0.68623 0.768 0.0
H192 H 0.52296 0.62189 0.75523 0.0
H193 H 0.45125 0.71608 0.74773 0.0
H194 H 0.53861 0.55829 0.85168 0.0
H195 H 0.54665 0.65422 0.7064 0.0
H196 H 0.52912 0.68485 0.69506 0.0
H197 H 0.55981 0.56213 0.82193 0.0
H198 H 0.50238 0.70888 0.69959 0.0
N199 N 0.50673 0.64709 0.74625 0.0
C200 C 0.52195 0.63408 0.74509 0.0
C201 C 0.53536 0.6524 0.71756 0.0
C202 C 0.51987 0.66594 0.71916 0.0
C203 C 0.53651 0.63653 0.73071 0.0
C204 C 0.50565 0.66297 0.734 0.0
H205 H 0.47345 0.72074 0.71923 0.0
N206 N 0.47812 0.67438 0.7521 0.0
C207 C 0.46248 0.70521 0.74453 0.0
C208 C 0.49074 0.6768 0.7368 0.0
C209 C 0.46428 0.68839 0.75631 0.0
C210 C 0.47489 0.70767 0.72834 0.0
C211 C 0.4894 0.69353 0.72443 0.0
O212 O 0.44872 0.64365 0.76295 0.0
O213 O 0.4872 0.62497 0.79342 0.0
O214 O 0.51008 0.60584 0.78954 0.0
O215 O 0.48816 0.60816 0.7642 0.0
O216 O 0.459 0.63623 0.79237 0.0
O217 O 0.46762 0.6321 0.74005 0.0
O218 O 0.5449 0.64683 0.79424 0.0
O219 O 0.50697 0.66311 0.77863 0.0
O220 O 0.47063 0.66618 0.79062 0.0
O221 O 0.4896 0.65691 0.81767 0.0
O222 O 0.5146 0.67403 0.80554 0.0
O223 O 0.53519 0.64608 0.8257 0.0
C224 C 0.47057 0.6247 0.80204 0.0
C225 C 0.43475 0.64258 0.73144 0.0
C226 C 0.40707 0.63318 0.7105 0.0
C227 C 0.42482 0.6284 0.72017 0.0
C228 C 0.40012 0.65276 0.71136 0.0
C229 C 0.42744 0.66193 0.73216 0.0
C230 C 0.41048 0.66706 0.72184 0.0
C231 C 0.49991 0.59608 0.77513 0.0
C232 C 0.44957 0.63574 0.74561 0.0
C233 C 0.50312 0.69608 0.70918 0.0
C234 C 0.51838 0.68241 0.70663 0.0
C235 C 0.50967 0.68043 0.78815 0.0
C236 C 0.56877 0.65476 0.82123 0.0
C237 C 0.56935 0.66228 0.84053 0.0
C238 C 0.58721 0.6639 0.8507 0.0
C239 C 0.60484 0.65879 0.84121 0.0
C240 C 0.58645 0.65008 0.81168 0.0
C241 C 0.60446 0.65222 0.82166 0.0
C242 C 0.4757 0.66776 0.80936 0.0
C243 C 0.5496 0.64873 0.81311 0.0
H244 H 0.43033 0.61339 0.71995 0.0
H245 H 0.3862 0.65694 0.70474 0.0
H246 H 0.43393 0.67282 0.7416 0.0
H247 H 0.40476 0.68193 0.72284 0.0
H248 H 0.55578 0.66597 0.84813 0.0
H249 H 0.61886 0.66001 0.84886 0.0
H250 H 0.58627 0.64398 0.79695 0.0
H251 H 0.6181 0.64831 0.8144 0.0
Eu252 Eu 0.64712 0.27082 0.0454 0.0
C253 C 0.60025 0.21087 1.00353 0.0
C254 C 0.59411 0.1815 0.02342 0.0
C255 C 0.57056 0.19109 0.9982 0.0
C256 C 0.60617 0.19797 0.01871 0.0
C257 C 0.58258 0.20719 0.99303 0.0
C258 C 0.57627 0.17836 1.01334 0.0
C259 C 0.59004 0.23525 0.97216 0.0
N260 N 0.61154 0.22709 0.99909 0.0
C261 C 0.6073 0.23857 0.98296 0.0
C262 C 0.5775 0.2197 0.97739 0.0
Eu263 Eu 0.64099 0.22976 0.01758 0.0
N264 N 0.62359 0.20116 0.02858 0.0
C265 C 0.62969 0.18806 0.04278 0.0
C266 C 0.60031 0.16839 0.03805 0.0
C267 C 0.61817 0.17163 0.04762 0.0
H268 H 0.61694 0.25071 0.97897 0.0
H269 H 0.62313 0.16132 0.0587 0.0
H270 H 0.56685 0.16588 0.01699 0.0
H271 H 0.58641 0.24468 0.9598 0.0
H272 H 0.64337 0.18964 0.05066 0.0
H273 H 0.62238 0.30222 0.97488 0.0
H274 H 0.59144 0.15562 0.042 0.0
H275 H 0.6938 0.26989 0.06416 0.0
H276 H 0.62066 0.27975 1.00295 0.0
H277 H 0.72491 0.28774 0.05976 0.0
H278 H 0.55686 0.18822 0.9904 0.0
H279 H 0.65157 0.32379 0.97038 0.0
H280 H 0.6854 0.33395 0.98143 0.0
H281 H 0.56407 0.21725 0.969 0.0
H282 H 0.71338 0.32965 1.00413 0.0
N283 N 0.64783 0.28933 0.01572 0.0
C284 C 0.63314 0.28945 1.00191 0.0
C285 C 0.65075 0.31413 0.98309 0.0
C286 C 0.66638 0.31302 0.99652 0.0
C287 C 0.63423 0.30202 0.98561 0.0
C288 C 0.66459 0.30019 1.01282 0.0
H289 H 0.72837 0.31225 0.033 0.0
N290 N 0.67896 0.28438 0.04031 0.0
C291 C 0.71256 0.29078 0.05007 0.0
C292 C 0.68055 0.29766 0.02548 0.0
C293 C 0.69471 0.2807 0.0525 0.0
C294 C 0.71443 0.30458 0.03497 0.0
C295 C 0.69841 0.30807 0.02236 0.0
O296 O 0.66037 0.27564 0.07361 0.0
O297 O 0.63576 0.24096 0.04712 0.0
O298 O 0.60813 0.24553 0.02073 0.0
O299 O 0.61178 0.27518 0.03684 0.0
O300 O 0.62015 0.2613 0.06297 0.0
O301 O 0.64367 0.29953 0.06042 0.0
O302 O 0.64883 0.23214 0.98627 0.0
O303 O 0.66426 0.25561 0.02018 0.0
O304 O 0.66614 0.24613 0.06009 0.0
O305 O 0.65914 0.21753 0.04221 0.0
O306 O 0.67556 0.22801 0.01644 0.0
O307 O 0.64743 0.20308 1.00213 0.0
C308 C 0.62098 0.24285 0.05819 0.0
C309 C 0.65143 0.30006 0.09504 0.0
C310 C 0.62985 0.30576 0.12241 0.0
C311 C 0.63234 0.30218 0.10237 0.0
C312 C 0.6462 0.30708 0.1351 0.0
C313 C 0.66784 0.30144 0.10771 0.0
C314 C 0.6652 0.3049 0.12772 0.0
C315 C 0.59918 0.26189 0.02809 0.0
C316 C 0.65509 0.29393 0.07496 0.0
C317 C 0.69985 0.32142 1.00665 0.0
C318 C 0.68389 0.32389 0.99376 0.0
C319 C 0.68157 0.24606 0.01902 0.0
C320 C 0.65596 0.20174 0.96792 0.0
C321 C 0.66351 0.18258 0.97004 0.0
C322 C 0.66708 0.17105 0.95348 0.0
C323 C 0.66326 0.17865 0.93463 0.0
C324 C 0.65227 0.20937 0.94906 0.0
C325 C 0.65592 0.19779 0.93246 0.0
C326 C 0.66867 0.22696 0.0564 0.0
C327 C 0.65026 0.21267 0.98551 0.0
H328 H 0.61961 0.30087 0.09271 0.0
H329 H 0.64421 0.31001 0.15067 0.0
H330 H 0.68269 0.29935 0.10215 0.0
H331 H 0.67783 0.30583 0.13748 0.0
H332 H 0.66643 0.17649 0.98454 0.0
H333 H 0.66601 0.16978 0.92166 0.0
H334 H 0.64612 0.224 0.94721 0.0
H335 H 0.65288 0.20359 0.9179 0.0
Eu336 Eu 1.01231 0.63499 0.23424 0.0
C337 C 0.07984 0.67504 0.27294 0.0
C338 C 0.10952 0.6689 0.2543 0.0
C339 C 0.10372 0.70151 0.26789 0.0
C340 C 0.09105 0.66251 0.2616 0.0
C341 C 0.08658 0.69434 0.27712 0.0
C342 C 0.11521 0.68877 0.25644 0.0
C343 C 0.06082 0.69688 0.30149 0.0
N344 N 0.06341 0.66759 0.28161 0.0
C345 C 0.05468 0.67771 0.29681 0.0
C346 C 0.07649 0.70547 0.29119 0.0
Eu347 Eu 0.05101 0.63732 0.26791 0.0
N348 N 0.08515 0.64338 0.26008 0.0
C349 C 0.09878 0.62932 0.25516 0.0
C350 C 0.12232 0.65485 0.24645 0.0
C351 C 0.11728 0.63487 0.24773 0.0
H352 H 0.04162 0.67192 0.3039 0.0
H353 H 0.12773 0.62379 0.24318 0.0
H354 H 0.12905 0.6941 0.2504 0.0
H355 H 0.05317 0.70518 0.31272 0.0
H356 H 0.09518 0.61382 0.25632 0.0
H357 H 0.97446 0.6365 0.3046 0.0
H358 H 0.13666 0.6591 0.24074 0.0
H359 H 1.01123 0.60152 0.19748 0.0
H360 H 0.99591 0.64968 0.27798 0.0
H361 H 0.99719 0.56828 0.19162 0.0
H362 H 0.10882 0.71649 0.27043 0.0
H363 H 0.959 0.60346 0.30108 0.0
H364 H 0.95408 0.57267 0.28088 0.0
H365 H 0.08114 0.72038 0.29475 0.0
H366 H 0.96062 0.55405 0.25052 0.0
N367 N 0.99205 0.62446 0.25991 0.0
C368 C 0.98892 0.63538 0.27639 0.0
C369 C 0.9682 0.60924 0.28936 0.0
C370 C 0.97152 0.59818 0.27226 0.0
C371 C 0.97691 0.62792 0.29141 0.0
C372 C 0.98361 0.60634 0.25747 0.0
H373 H 0.9767 0.55222 0.21725 0.0
N374 N 0.99943 0.60374 0.22643 0.0
C375 C 0.99448 0.57575 0.20543 0.0
C376 C 0.98747 0.59568 0.24033 0.0
C377 C 1.00251 0.59447 0.20886 0.0
C378 C 0.98287 0.56677 0.21992 0.0
C379 C 0.97905 0.57681 0.23754 0.0
O380 O 1.00474 0.64052 0.20389 0.0
O381 O 0.03819 0.65161 0.24249 0.0
O382 O 0.03743 0.67123 0.26398 0.0
O383 O 1.00887 0.66909 0.24608 0.0
O384 O 0.03492 0.64618 0.21245 0.0
O385 O 0.98308 0.64691 0.22655 0.0
O386 O 0.03994 0.63638 0.2987 0.0
O387 O 0.02474 0.61541 0.26001 0.0
O388 O 0.03569 0.61382 0.22235 0.0
O389 O 0.06346 0.62274 0.24113 0.0
O390 O 0.05145 0.60292 0.26586 0.0
O391 O 0.06617 0.62051 0.28944 0.0
C392 C 0.04575 0.65453 0.22567 0.0
C393 C 0.97229 0.64262 0.19318 0.0
C394 C 0.95888 0.65064 0.16104 0.0
C395 C 0.96991 0.65596 0.1776 0.0
C396 C 0.94983 0.63197 0.16023 0.0
C397 C 0.96303 0.62408 0.19251 0.0
C398 C 0.95175 0.61882 0.17604 0.0
C399 C 0.02163 0.68095 0.25612 0.0
C400 C 0.98731 0.6474 0.20779 0.0
C401 C 0.96709 0.5686 0.25233 0.0
C402 C 0.96333 0.57924 0.26962 0.0
C403 C 0.03357 0.59762 0.26133 0.0
C404 C 0.06821 0.63275 0.32093 0.0
C405 C 0.08723 0.62443 0.32263 0.0
C406 C 0.10084 0.63128 0.33655 0.0
C407 C 0.09503 0.64619 0.34964 0.0
C408 C 0.06251 0.64735 0.33432 0.0
C409 C 0.07594 0.65407 0.34856 0.0
C410 C 0.05478 0.61278 0.22679 0.0
C411 C 0.05561 0.62631 0.30428 0.0
H412 H 0.97736 0.6702 0.17797 0.0
H413 H 0.94116 0.62769 0.14749 0.0
H414 H 0.96492 0.61357 0.20438 0.0
H415 H 0.94474 0.60444 0.17539 0.0
H416 H 0.09162 0.61252 0.31294 0.0
H417 H 0.10524 0.65176 0.36063 0.0
H418 H 0.04789 0.65372 0.33366 0.0
H419 H 0.07159 0.66554 0.35872 0.0
Eu420 Eu 0.64622 0.75962 0.48078 0.0
C421 C 0.60154 0.82027 0.52518 0.0
C422 C 0.59916 0.84937 0.50418 0.0
C423 C 0.57378 0.84285 0.52852 0.0
C424 C 0.60957 0.83228 0.51027 0.0
C425 C 0.58404 0.82608 0.5349 0.0
C426 C 0.58118 0.85428 0.51308 0.0
C427 C 0.58808 0.79867 0.55737 0.0
N428 N 0.61094 0.80333 0.53066 0.0
C429 C 0.6049 0.79299 0.54703 0.0
C430 C 0.57747 0.81512 0.55113 0.0
Eu431 Eu 0.64126 0.79749 0.51443 0.0
N432 N 0.6274 0.82764 0.50198 0.0
C433 C 0.63517 0.83969 0.48756 0.0
C434 C 0.60707 0.86127 0.48931 0.0
C435 C 0.62512 0.85642 0.48104 0.0
H436 H 0.61282 0.77997 0.55175 0.0
H437 H 0.63131 0.86552 0.46944 0.0
H438 H 0.57306 0.86724 0.50841 0.0
H439 H 0.58319 0.79023 0.57002 0.0
H440 H 0.64881 0.83676 0.48013 0.0
H441 H 0.62018 0.72327 0.54859 0.0
H442 H 0.59936 0.87429 0.48415 0.0
H443 H 0.69228 0.75875 0.46146 0.0
H444 H 0.61966 0.74777 0.52247 0.0
H445 H 0.72248 0.73943 0.46441 0.0
H446 H 0.56016 0.84723 0.53561 0.0
H447 H 0.64804 0.7 0.55123 0.0
H448 H 0.68117 0.68925 0.53932 0.0
H449 H 0.56427 0.81934 0.55906 0.0
H450 H 0.70918 0.69399 0.51683 0.0
N451 N 0.64569 0.7376 0.50822 0.0
C452 C 0.63131 0.73726 0.52232 0.0
C453 C 0.64758 0.71048 0.53916 0.0
C454 C 0.66306 0.71179 0.52565 0.0
C455 C 0.63181 0.72352 0.53768 0.0
C456 C 0.66179 0.72575 0.51022 0.0
H457 H 0.72483 0.71281 0.48921 0.0
N458 N 0.67668 0.74289 0.48392 0.0
C459 C 0.70998 0.73606 0.47378 0.0
C460 C 0.67771 0.7285 0.49772 0.0
C461 C 0.6926 0.74693 0.47212 0.0
C462 C 0.71123 0.72108 0.48778 0.0
C463 C 0.69509 0.71724 0.50008 0.0
O464 O 0.65884 0.75872 0.4518 0.0
O465 O 0.63697 0.79031 0.48341 0.0
O466 O 0.60846 0.78175 0.51056 0.0
O467 O 0.6108 0.75593 0.48858 0.0
O468 O 0.61937 0.77308 0.46605 0.0
O469 O 0.63923 0.7351 0.46041 0.0
O470 O 0.64692 0.79111 0.54556 0.0
O471 O 0.66368 0.77261 0.50676 0.0
O472 O 0.66775 0.78471 0.47149 0.0
O473 O 0.66306 0.81062 0.49384 0.0
O474 O 0.67507 0.79496 0.52221 0.0
O475 O 0.64807 0.82194 0.53313 0.0
C476 C 0.62181 0.79074 0.47272 0.0
C477 C 0.63949 0.74561 0.42658 0.0
C478 C 0.6188 0.73279 0.40037 0.0
C479 C 0.62735 0.73061 0.41903 0.0
C480 C 0.62233 0.74984 0.38916 0.0
C481 C 0.64326 0.76255 0.41493 0.0
C482 C 0.63463 0.76462 0.39641 0.0
C483 C 0.5989 0.76758 0.49991 0.0
C484 C 0.64909 0.74331 0.44598 0.0
C485 C 0.69601 0.70282 0.51487 0.0
C486 C 0.68004 0.7001 0.52763 0.0
C487 C 0.68125 0.77909 0.51353 0.0
C488 C 0.65443 0.81866 0.56777 0.0
C489 C 0.66337 0.8373 0.56834 0.0
C490 C 0.66492 0.8477 0.58606 0.0
C491 C 0.65828 0.83867 0.60354 0.0
C492 C 0.64806 0.80968 0.58523 0.0
C493 C 0.65013 0.81965 0.6031 0.0
C494 C 0.67219 0.80252 0.4787 0.0
C495 C 0.64933 0.81028 0.54866 0.0
H496 H 0.62471 0.71725 0.42747 0.0
H497 H 0.61594 0.75144 0.37459 0.0
H498 H 0.6531 0.77415 0.41992 0.0
H499 H 0.63773 0.77754 0.38752 0.0
H500 H 0.6687 0.84394 0.5548 0.0
H501 H 0.65896 0.84642 0.61746 0.0
H502 H 0.64081 0.79538 0.58496 0.0
H503 H 0.64487 0.81289 0.61657 0.0
Eu504 Eu 0.51861 0.39438 0.73611 0.0
C505 C 0.46293 0.34439 0.77642 0.0
C506 C 0.43445 0.34121 0.75476 0.0
C507 C 0.44483 0.31328 0.77462 0.0
C508 C 0.45009 0.35282 0.76256 0.0
C509 C 0.4598 0.32485 0.78309 0.0
C510 C 0.43231 0.32138 0.7604 0.0
C511 C 0.48532 0.32994 0.80756 0.0
N512 N 0.47815 0.35536 0.7839 0.0
C513 C 0.48813 0.34909 0.80043 0.0
C514 C 0.47149 0.3176 0.79851 0.0
Eu515 Eu 0.48226 0.38713 0.76967 0.0
N516 N 0.4522 0.3723 0.75738 0.0
C517 C 0.43804 0.38096 0.74564 0.0
C518 C 0.42114 0.34983 0.74162 0.0
C519 C 0.42277 0.36982 0.73733 0.0
H520 H 0.49931 0.35839 0.80709 0.0
H521 H 0.41209 0.3768 0.7277 0.0
H522 H 0.4206 0.3123 0.75426 0.0
H523 H 0.49396 0.32466 0.8199 0.0
H524 H 0.43772 0.39647 0.74235 0.0
H525 H 0.55771 0.37184 0.80326 0.0
H526 H 0.40919 0.34131 0.73515 0.0
H527 H 0.5186 0.43914 0.71413 0.0
H528 H 0.53057 0.37095 0.77929 0.0
H529 H 0.54148 0.46723 0.71096 0.0
H530 H 0.44252 0.29813 0.77929 0.0
H531 H 0.58351 0.39774 0.80086 0.0
H532 H 0.59622 0.42838 0.78415 0.0
H533 H 0.46947 0.30268 0.80399 0.0
H534 H 0.59191 0.45421 0.75898 0.0
N535 N 0.54132 0.39523 0.76253 0.0
C536 C 0.54189 0.38193 0.77761 0.0
C537 C 0.57167 0.39728 0.79011 0.0
C538 C 0.57032 0.41163 0.77531 0.0
C539 C 0.55717 0.38261 0.79148 0.0
C540 C 0.55457 0.4104 0.76176 0.0
H541 H 0.57164 0.46878 0.73158 0.0
N542 N 0.53564 0.42465 0.7363 0.0
C543 C 0.54458 0.45558 0.72145 0.0
C544 C 0.55183 0.42534 0.74801 0.0
C545 C 0.53153 0.43966 0.72345 0.0
C546 C 0.56163 0.45632 0.73303 0.0
C547 C 0.56521 0.44133 0.74682 0.0
O548 O 0.51826 0.40345 0.70539 0.0
O549 O 0.48848 0.38328 0.73851 0.0
O550 O 0.49962 0.35588 0.76539 0.0
O551 O 0.52479 0.35961 0.74336 0.0
O552 O 0.50661 0.36669 0.72148 0.0
O553 O 0.54495 0.38959 0.71803 0.0
O554 O 0.48979 0.39393 0.8004 0.0
O555 O 0.50695 0.41128 0.76363 0.0
O556 O 0.49355 0.41548 0.72692 0.0
O557 O 0.46784 0.4077 0.74852 0.0
O558 O 0.48064 0.42124 0.77401 0.0
O559 O 0.45912 0.38802 0.7908 0.0
C560 C 0.48877 0.36812 0.72786 0.0
C561 C 0.54629 0.40071 0.68418 0.0
C562 C 0.55965 0.38699 0.65446 0.0
C563 C 0.55079 0.38433 0.67274 0.0
C564 C 0.56434 0.406 0.64766 0.0
C565 C 0.55051 0.41982 0.67733 0.0
C566 C 0.55971 0.42242 0.65912 0.0
C567 C 0.514 0.3472 0.75486 0.0
C568 C 0.53631 0.39752 0.70275 0.0
C569 C 0.58144 0.44206 0.75967 0.0
C570 C 0.58391 0.42733 0.77398 0.0
C571 C 0.49755 0.42829 0.76798 0.0
C572 C 0.46287 0.40835 0.81848 0.0
C573 C 0.44343 0.41499 0.81566 0.0
C574 C 0.43421 0.42655 0.82984 0.0
C575 C 0.4448 0.43234 0.8467 0.0
C576 C 0.47329 0.41404 0.83541 0.0
C577 C 0.46431 0.42618 0.84937 0.0
C578 C 0.4753 0.41795 0.73367 0.0
C579 C 0.4709 0.39328 0.80527 0.0
H580 H 0.54709 0.36956 0.67786 0.0
H581 H 0.57124 0.40808 0.63342 0.0
H582 H 0.54673 0.43265 0.68594 0.0
H583 H 0.56308 0.43713 0.65381 0.0
H584 H 0.43499 0.41057 0.80279 0.0
H585 H 0.43778 0.44106 0.85805 0.0
H586 H 0.48811 0.40868 0.8381 0.0
H587 H 0.47229 0.43034 0.86257 0.0
Eu588 Eu 0.89694 0.23412 0.01859 0.0
C589 C 0.84848 0.28221 0.9648 0.0
C590 C 0.8402 0.26124 0.93679 0.0
C591 C 0.81679 0.28576 0.94813 0.0
C592 C 0.85363 0.26696 0.95177 0.0
C593 C 0.83017 0.29189 0.96273 0.0
C594 C 0.82175 0.27047 0.93528 0.0
C595 C 0.83965 0.31365 0.98943 0.0
N596 N 0.86103 0.28727 0.97984 0.0
C597 C 0.85748 0.30349 0.99129 0.0
C598 C 0.8258 0.30759 0.97538 0.0
Eu599 Eu 0.89052 0.26888 0.98107 0.0
N600 N 0.87158 0.25794 0.95348 0.0
C601 C 0.87713 0.24393 0.93998 0.0
C602 C 0.84564 0.24642 0.92357 0.0
C603 C 0.86424 0.23792 0.92506 0.0
H604 H 0.8681 0.30792 1.00239 0.0
H605 H 0.86862 0.2265 0.91482 0.0
H606 H 0.81127 0.26606 0.92401 0.0
H607 H 0.83649 0.32602 0.99897 0.0
H608 H 0.89117 0.23667 0.94055 0.0
H609 H 0.86824 0.29813 0.05985 0.0
H610 H 0.83565 0.24156 0.91204 0.0
H611 H 0.94431 0.21784 0.01746 0.0
H612 H 0.86796 0.27316 0.03461 0.0
H613 H 0.97505 0.2221 0.0355 0.0
H614 H 0.80256 0.29288 0.94654 0.0
H615 H 0.89736 0.30214 0.0814 0.0
H616 H 0.93182 0.29242 0.08979 0.0
H617 H 0.81187 0.31534 0.97421 0.0
H618 H 0.96098 0.27216 0.08288 0.0
N619 N 0.89582 0.26058 0.0421 0.0
C620 C 0.88043 0.27345 0.04409 0.0
C621 C 0.89713 0.2905 0.07047 0.0
C622 C 0.91342 0.27829 0.06772 0.0
C623 C 0.88068 0.28824 0.0584 0.0
C624 C 0.9124 0.26334 0.05322 0.0
H625 H 0.97728 0.24626 0.06258 0.0
N626 N 0.9279 0.23866 0.03466 0.0
C627 C 0.96216 0.23049 0.03974 0.0
C628 C 0.92889 0.25205 0.04935 0.0
C629 C 0.94436 0.22801 0.02965 0.0
C630 C 0.96335 0.24415 0.05495 0.0
C631 C 0.94669 0.25522 0.05986 0.0
O632 O 0.91188 0.20676 0.01659 0.0
O633 O 0.8868 0.23756 0.9883 0.0
O634 O 0.8584 0.26544 0.99852 0.0
O635 O 0.8611 0.24082 0.02214 0.0
O636 O 0.86976 0.21959 1.00576 0.0
O637 O 0.89273 0.21096 0.04146 0.0
O638 O 0.89908 0.29981 0.97913 0.0
O639 O 0.91327 0.25935 1.00473 0.0
O640 O 0.91779 0.22583 0.99268 0.0
O641 O 0.90961 0.24647 0.96653 0.0
O642 O 0.92286 0.28077 0.98801 0.0
O643 O 0.90012 0.28009 0.95297 0.0
C644 C 0.87177 0.22656 0.98813 0.0
C645 C 0.89891 0.17811 0.02889 0.0
C646 C 0.8792 0.14944 0.03637 0.0
C647 C 0.88401 0.16917 0.03989 0.0
C648 C 0.88915 0.13851 0.022 0.0
C649 C 0.90925 0.16689 1.01472 0.0
C650 C 0.90425 0.14725 1.01124 0.0
C651 C 0.849 0.2532 1.01155 0.0
C652 C 0.90442 0.19879 0.03212 0.0
C653 C 0.94748 0.26959 0.07464 0.0
C654 C 0.93088 0.28108 0.07859 0.0
C655 C 0.9301 0.26848 1.00066 0.0
C656 C 0.90251 0.31467 0.94698 0.0
C657 C 0.91031 0.31236 0.92804 0.0
C658 C 0.9125 0.32863 0.91568 0.0
C659 C 0.90686 0.34743 0.92217 0.0
C660 C 0.89681 0.33348 0.95348 0.0
C661 C 0.89897 0.3498 0.94103 0.0
C662 C 0.92028 0.2321 0.97418 0.0
C663 C 0.90352 0.29777 0.96032 0.0
H664 H 0.87626 0.17738 0.05118 0.0
H665 H 0.88557 0.12309 0.01953 0.0
H666 H 0.92126 0.17328 1.00628 0.0
H667 H 0.91221 0.13878 1.00035 0.0
H668 H 0.91536 0.29801 0.92309 0.0
H669 H 0.90888 0.36024 0.9128 0.0
H670 H 0.89121 0.33565 0.96825 0.0
H671 H 0.89489 0.36436 0.94612 0.0
Eu672 Eu 0.29904 0.01566 0.39461 0.0
C673 C 0.24912 0.07256 0.35172 0.0
C674 C 0.2645 0.10494 0.34853 0.0
C675 C 0.2426 0.09286 0.32281 0.0
C676 C 0.2618 0.08716 0.35919 0.0
C677 C 0.23911 0.07558 0.33369 0.0
C678 C 0.25531 0.10744 0.33016 0.0
C679 C 0.22268 0.0441 0.33819 0.0
N680 N 0.24658 0.05536 0.36192 0.0
C681 C 0.23305 0.04147 0.35578 0.0
C682 C 0.22589 0.06109 0.32699 0.0
Eu683 Eu 0.26646 0.05231 0.39059 0.0
N684 N 0.27064 0.08455 0.37711 0.0
C685 C 0.27993 0.10016 0.38609 0.0
C686 C 0.27588 0.12005 0.35688 0.0
C687 C 0.28317 0.11784 0.37594 0.0
H688 H 0.23104 0.02792 0.36399 0.0
H689 H 0.29118 0.12982 0.38292 0.0
H690 H 0.25752 0.12087 0.32172 0.0
H691 H 0.21242 0.03288 0.33314 0.0
H692 H 0.285 0.09936 0.40105 0.0
H693 H 0.22748 0.97956 0.38815 0.0
H694 H 0.27838 0.13382 0.34909 0.0
H695 H 0.33337 0.01439 0.4307 0.0
H696 H 0.25459 1.00224 0.37799 0.0
H697 H 0.33823 0.99731 0.46245 0.0
H698 H 0.23532 0.09522 0.30878 0.0
H699 H 0.23048 0.96043 0.41913 0.0
H700 H 0.25051 0.95165 0.44916 0.0
H701 H 0.218 0.06294 0.31321 0.0
H702 H 0.28049 0.95645 0.46919 0.0
N703 N 0.27194 0.99617 0.40327 0.0
C704 C 0.25571 0.99402 0.3916 0.0
C705 C 0.24227 0.9704 0.41481 0.0
C706 C 0.25923 0.97254 0.42652 0.0
C707 C 0.2405 0.98121 0.3973 0.0
C708 C 0.27406 0.98577 0.42032 0.0
H709 H 0.31288 0.97386 0.47462 0.0
N710 N 0.30493 1.00174 0.42568 0.0
C711 C 0.32484 0.99484 0.45405 0.0
C712 C 0.29094 0.9887 0.43184 0.0
C713 C 0.32192 1.00467 0.43619 0.0
C714 C 0.31052 0.98156 0.46082 0.0
C715 C 0.29343 0.97818 0.4496 0.0
O716 O 0.32882 1.00452 0.39297 0.0
O717 O 0.29286 0.041 0.37646 0.0
O718 O 0.27125 0.03957 0.35632 0.0
O719 O 0.2897 1.01181 0.3596 0.0
O720 O 0.32213 0.03773 0.38516 0.0
O721 O 0.30441 0.98711 0.38086 0.0
O722 O 0.23554 0.04339 0.39685 0.0
O723 O 0.27278 0.02697 0.4139 0.0
O724 O 0.31138 0.03957 0.41579 0.0
O725 O 0.2928 0.06653 0.40508 0.0
O726 O 0.2691 0.05479 0.42472 0.0
O727 O 0.24775 0.07264 0.4046 0.0
C728 C 0.31005 0.04845 0.3751 0.0
C729 C 0.33401 0.97079 0.38971 0.0
C730 C 0.36395 0.95232 0.38538 0.0
C731 C 0.35171 0.96781 0.37999 0.0
C732 C 0.3582 0.93925 0.40037 0.0
C733 C 0.32813 0.95809 0.40495 0.0
C734 C 0.34027 0.94223 0.41021 0.0
C735 C 0.27975 0.02389 0.34701 0.0
C736 C 0.32338 0.98836 0.38411 0.0
C737 C 0.27882 0.96468 0.4556 0.0
C738 C 0.26174 0.96194 0.44417 0.0
C739 C 0.27202 0.03695 0.43103 0.0
C740 C 0.21441 0.07257 0.39869 0.0
C741 C 0.21274 0.09111 0.40762 0.0
C742 C 0.19894 0.10482 0.40115 0.0
C743 C 0.18539 0.09936 0.38643 0.0
C744 C 0.20078 0.06701 0.38414 0.0
C745 C 0.18623 0.08043 0.37811 0.0
C746 C 0.30692 0.05873 0.41617 0.0
C747 C 0.23206 0.06122 0.40395 0.0
H748 H 0.35616 0.97782 0.36825 0.0
H749 H 0.36763 0.92707 0.40459 0.0
H750 H 0.31442 0.96045 0.41272 0.0
H751 H 0.33588 0.93236 0.42198 0.0
H752 H 0.22284 0.09521 0.41941 0.0
H753 H 0.17432 0.1097 0.38135 0.0
H754 H 0.20142 0.05261 0.37736 0.0
H755 H 0.17579 0.07626 0.36674 0.0
Eu756 Eu 0.26453 0.04683 0.64611 0.0
C757 C 0.20267 1.01059 0.59872 0.0
C758 C 0.17479 0.03292 0.5975 0.0
C759 C 0.18395 0.01435 0.56836 0.0
C760 C 0.19076 0.02453 0.60795 0.0
C761 C 0.19873 1.00471 0.57918 0.0
C762 C 0.17209 0.02852 0.57746 0.0
C763 C 0.22326 0.97908 0.58288 0.0
N764 N 0.21759 1.00208 0.60911 0.0
C765 C 0.2269 0.98556 0.60208 0.0
C766 C 0.20951 0.98904 0.5712 0.0
Eu767 Eu 0.22472 0.01705 0.63986 0.0
N768 N 0.19356 0.0284 0.62749 0.0
C769 C 0.17877 0.03735 0.63791 0.0
C770 C 0.1613 0.04459 0.60774 0.0
C771 C 0.16283 0.04608 0.62814 0.0
H772 H 0.23824 0.9784 0.6107 0.0
H773 H 0.15158 0.05371 0.6364 0.0
H774 H 0.1602 0.03525 0.56914 0.0
H775 H 0.23132 0.96666 0.57699 0.0
H776 H 0.179 0.03793 0.65377 0.0
H777 H 0.2947 0.97371 0.63411 0.0
H778 H 0.14889 0.05134 0.60024 0.0
H779 H 0.2657 0.07631 0.68664 0.0
H780 H 0.27188 1.00158 0.62762 0.0
H781 H 0.28703 0.07977 0.71579 0.0
H782 H 0.18112 1.01045 0.55313 0.0
H783 H 0.31771 0.97524 0.6625 0.0
H784 H 0.33085 0.99402 0.69175 0.0
H785 H 0.20693 0.98415 0.55622 0.0
H786 H 0.32934 0.02316 0.7133 0.0
N787 N 0.28131 0.01768 0.65271 0.0
C788 C 0.28151 1.00192 0.64032 0.0
C789 C 0.30749 0.98725 0.65994 0.0
C790 C 0.30724 1.00369 0.67245 0.0
C791 C 0.29449 0.9863 0.6439 0.0
C792 C 0.29364 0.01885 0.66853 0.0
H793 H 0.31312 0.05517 0.72237 0.0
N794 N 0.27845 0.04903 0.67761 0.0
C795 C 0.28863 0.06711 0.70623 0.0
C796 C 0.29252 0.03521 0.681 0.0
C797 C 0.27624 0.06482 0.68991 0.0
C798 C 0.30346 0.05328 0.70976 0.0
C799 C 0.30541 0.03696 0.69725 0.0
O800 O 0.27922 0.07508 0.64994 0.0
O801 O 0.23951 0.04223 0.62725 0.0
O802 O 0.24079 0.02083 0.60689 0.0
O803 O 0.26903 0.03877 0.61084 0.0
O804 O 0.24517 0.07158 0.63494 0.0
O805 O 0.29421 0.05097 0.63407 0.0
O806 O 0.23311 0.98592 0.64642 0.0
O807 O 0.24992 0.02129 0.66398 0.0
O808 O 0.2406 0.0612 0.66596 0.0
O809 O 0.21269 0.04292 0.65667 0.0
O810 O 0.2218 0.01802 0.67422 0.0
O811 O 0.20191 0.99632 0.64519 0.0
C812 C 0.23363 0.05981 0.62534 0.0
C813 C 0.31161 0.08162 0.6382 0.0
C814 C 0.32433 0.11007 0.62124 0.0
C815 C 0.30929 0.0963 0.62412 0.0
C816 C 0.34175 0.10903 0.63258 0.0
C817 C 0.32886 0.08043 0.64953 0.0
C818 C 0.34397 0.09419 0.64668 0.0
C819 C 0.25699 0.02896 0.598 0.0
C820 C 0.29541 0.06843 0.64211 0.0
C821 C 0.31936 0.02211 0.70084 0.0
C822 C 0.32017 1.00547 0.68859 0.0
C823 C 0.23974 0.02041 0.68088 0.0
C824 C 0.20553 0.96263 0.65411 0.0
C825 C 0.186 0.96214 0.66124 0.0
C826 C 0.17714 0.94428 0.66661 0.0
C827 C 0.18786 0.92668 0.66478 0.0
C828 C 0.21608 0.945 0.65224 0.0
C829 C 0.2072 0.92707 0.65753 0.0
C830 C 0.22123 0.05738 0.66672 0.0
C831 C 0.2141 0.98165 0.6481 0.0
H832 H 0.29578 0.09702 0.6155 0.0
H833 H 0.35345 0.11984 0.63073 0.0
H834 H 0.33044 0.06913 0.66074 0.0
H835 H 0.35726 0.0935 0.65553 0.0
H836 H 0.17766 0.97568 0.6629 0.0
H837 H 0.18121 0.91267 0.66882 0.0
H838 H 0.23102 0.94507 0.64654 0.0
H839 H 0.21532 0.91342 0.65599 0.0
Eu840 Eu 0.2373 0.0164 0.89576 0.0
C841 C 0.27125 0.94818 0.85206 0.0
C842 C 0.25533 0.9175 0.86141 0.0
C843 C 0.26599 0.92248 0.82763 0.0
C844 C 0.26204 0.93667 0.86626 0.0
C845 C 0.27468 0.94052 0.83306 0.0
C846 C 0.25615 0.91103 0.84177 0.0
C847 C 0.29823 0.96694 0.82771 0.0
N848 N 0.27944 0.96557 0.85769 0.0
C849 C 0.294 0.97419 0.84648 0.0
C850 C 0.28797 0.95043 0.82067 0.0
Eu851 Eu 0.26936 0.97778 0.8889 0.0
N852 N 0.262 0.94318 0.88524 0.0
C853 C 0.25899 0.92984 0.9002 0.0
C854 C 0.24926 0.90493 0.87661 0.0
C855 C 0.25174 0.91089 0.89613 0.0
H856 H 0.30153 0.98729 0.85176 0.0
H857 H 0.24821 0.90084 0.90804 0.0
H858 H 0.2505 0.89661 0.83768 0.0
H859 H 0.30913 0.97426 0.81858 0.0
H860 H 0.26119 0.93413 0.91538 0.0
H861 H 0.30683 0.05199 0.87582 0.0
H862 H 0.24386 0.89016 0.87349 0.0
H863 H 0.21455 1.0134 0.94052 0.0
H864 H 0.27804 0.03021 0.87087 0.0
H865 H 0.21814 0.02804 0.97338 0.0
H866 H 0.26787 0.91668 0.81289 0.0
H867 H 0.31129 0.06949 0.90747 0.0
H868 H 0.29944 0.07598 0.9418 0.0
H869 H 0.29116 0.94491 0.80606 0.0
H870 H 0.27548 0.06943 0.9682 0.0
N871 N 0.26589 0.03585 0.8991 0.0
C872 C 0.27957 0.03801 0.88458 0.0
C873 C 0.29847 0.0601 0.90531 0.0
C874 C 0.28462 0.05739 0.92036 0.0
C875 C 0.29601 0.05024 0.88741 0.0
C876 C 0.26821 0.045 0.91682 0.0
H877 H 0.24536 0.05153 0.98015 0.0
N878 N 0.2396 0.02846 0.92842 0.0
C879 C 0.22848 0.03194 0.96185 0.0
C880 C 0.25469 0.04126 0.93183 0.0
C881 C 0.22664 0.02353 0.94317 0.0
C882 C 0.24382 0.04522 0.96557 0.0
C883 C 0.25723 0.04993 0.95057 0.0
O884 O 0.21166 0.03134 0.90755 0.0
O885 O 0.24339 0.99138 0.87676 0.0
O886 O 0.26272 0.99343 0.85602 0.0
O887 O 0.24417 0.02124 0.86029 0.0
O888 O 0.21443 0.99437 0.88546 0.0
O889 O 0.22289 0.04029 0.87928 0.0
O890 O 0.2972 0.99313 0.89715 0.0
O891 O 0.26302 1.00179 0.91302 0.0
O892 O 0.22431 0.99123 0.91425 0.0
O893 O 0.24416 0.96422 0.9057 0.0
O894 O 0.26914 0.97404 0.92344 0.0
O895 O 0.29703 0.96294 0.8864 0.0
C896 C 0.22631 0.98398 0.87511 0.0
C897 C 0.18864 0.03488 0.88259 0.0
C898 C 0.1617 0.04238 0.86083 0.0
C899 C 0.17983 0.04755 0.86916 0.0
C900 C 0.15312 0.02386 0.86448 0.0
C901 C 0.17902 0.017 0.88768 0.0
C902 C 0.16175 1.01123 0.87809 0.0
C903 C 0.25366 1.00926 0.84725 0.0
C904 C 0.20778 0.04022 0.89119 0.0
C905 C 0.27329 0.06264 0.95391 0.0
C906 C 0.28694 0.06636 0.93887 0.0
C907 C 0.26478 0.99172 0.92993 0.0
C908 C 0.32008 0.96922 0.91078 0.0
C909 C 0.31698 0.94991 0.91823 0.0
C910 C 0.33157 0.94033 0.92938 0.0
C911 C 0.34881 0.95097 0.93433 0.0
C912 C 0.33726 0.9795 0.91599 0.0
C913 C 0.35142 0.97047 0.92796 0.0
C914 C 0.22929 0.9723 0.91527 0.0
C915 C 0.30729 0.97678 0.89484 0.0
H916 H 0.18626 0.062 0.86631 0.0
H917 H 0.13881 0.02006 0.85831 0.0
H918 H 0.1846 1.00752 0.89923 0.0
H919 H 0.15449 0.99752 0.88202 0.0
H920 H 0.30358 0.94189 0.91453 0.0
H921 H 0.36061 0.94405 0.9426 0.0
H922 H 0.34008 0.99416 0.9102 0.0
H923 H 0.36487 0.97835 0.93166 0.0
Eu924 Eu 0.26372 0.98217 0.14458 0.0
C925 C 0.32554 0.01763 0.09805 0.0
C926 C 0.35608 0.99974 0.10215 0.0
C927 C 0.34638 1.01144 0.06969 0.0
C928 C 0.33831 1.00705 0.11007 0.0
C929 C 0.33004 0.02092 0.07805 0.0
C930 C 0.3594 1.00082 0.08174 0.0
C931 C 0.30406 0.04534 0.07704 0.0
N932 N 0.30969 0.02641 0.10642 0.0
C933 C 0.30009 0.04152 0.09688 0.0
C934 C 0.31863 0.03448 0.06738 0.0
Eu935 Eu 0.30145 0.01448 0.1383 0.0
N936 N 0.33471 1.00637 0.12984 0.0
C937 C 0.3499 1.00237 0.14255 0.0
C938 C 0.37073 0.99326 0.11511 0.0
C939 C 0.36807 0.99574 0.13532 0.0
H940 H 0.28816 0.04922 0.1041 0.0
H941 H 0.38022 0.99292 0.14523 0.0
H942 H 0.37268 0.99469 0.07534 0.0
H943 H 0.29568 0.0564 0.06914 0.0
H944 H 0.3481 1.00419 0.15827 0.0
H945 H 0.22957 0.05191 0.12353 0.0
H946 H 0.38476 0.98793 0.10965 0.0
H947 H 0.26425 0.96018 0.18994 0.0
H948 H 0.2543 0.02532 0.12138 0.0
H949 H 0.24204 0.95853 0.21851 0.0
H950 H 0.34974 1.01324 0.05419 0.0
H951 H 0.205 0.05168 0.15049 0.0
H952 H 0.19178 0.03553 0.1812 0.0
H953 H 0.32161 0.03738 0.05197 0.0
H954 H 0.19462 1.00957 0.20646 0.0
N955 N 0.24377 1.0103 0.14675 0.0
C956 C 0.24367 0.02509 0.13315 0.0
C957 C 0.21587 0.04002 0.14965 0.0
C958 C 0.21643 0.02501 0.16385 0.0
C959 C 0.22972 0.0402 0.1344 0.0
C960 C 0.23095 1.01029 0.16214 0.0
H961 H 0.21302 0.98053 0.22027 0.0
N962 N 0.24817 0.98321 0.17564 0.0
C963 C 0.23931 0.96914 0.20689 0.0
C964 C 0.2329 0.99602 0.17674 0.0
C965 C 0.25208 0.9704 0.1908 0.0
C966 C 0.22287 0.98149 0.20774 0.0
C967 C 0.21986 0.99558 0.19291 0.0
O968 O 0.24901 0.95563 0.15473 0.0
O969 O 0.28915 0.98785 0.12598 0.0
O970 O 0.28679 1.00739 0.10553 0.0
O971 O 0.25854 0.98975 0.10928 0.0
O972 O 0.28632 0.95917 0.13609 0.0
O973 O 0.24031 0.96809 0.12688 0.0
O974 O 0.28688 0.043 0.14457 0.0
O975 O 0.27709 1.00862 0.16279 0.0
O976 O 0.28815 0.97017 0.16483 0.0
O977 O 0.31532 0.99039 0.1569 0.0
O978 O 0.30514 0.01523 0.17256 0.0
O979 O 0.31831 0.04107 0.13718 0.0
C980 C 0.29691 0.97092 0.12559 0.0
C981 C 0.24153 0.93327 0.12998 0.0
C982 C 0.22745 0.90552 0.11266 0.0
C983 C 0.22591 0.92491 0.11939 0.0
C984 C 0.24468 0.89459 0.11593 0.0
C985 C 0.25864 0.922 0.1337 0.0
C986 C 0.26015 0.9028 0.12662 0.0
C987 C 0.27086 0.99917 0.09648 0.0
C988 C 0.23916 0.9529 0.13865 0.0
C989 C 0.20477 1.00965 0.19414 0.0
C990 C 0.20317 0.02444 0.17975 0.0
C991 C 0.28755 1.0111 0.17958 0.0
C992 C 0.31008 0.06679 0.1582 0.0
C993 C 0.32872 0.06492 0.16734 0.0
C994 C 0.33777 0.0811 0.17661 0.0
C995 C 0.32704 0.09879 0.1783 0.0
C996 C 0.29962 0.08444 0.16016 0.0
C997 C 0.30797 0.10025 0.17048 0.0
C998 C 0.30703 0.97545 0.16663 0.0
C999 C 0.30395 0.05233 0.1432 0.0
H1000 H 0.21233 0.93308 0.11718 0.0
H1001 H 0.24573 0.87941 0.111 0.0
H1002 H 0.27054 0.92757 0.14277 0.0
H1003 H 0.27291 0.89398 0.13013 0.0
H1004 H 0.33679 0.05117 0.16616 0.0
H1005 H 0.33359 0.11176 0.185 0.0
H1006 H 0.28546 0.08631 0.15294 0.0
H1007 H 0.3 0.11403 0.1716 0.0
Eu1008 Eu 0.38363 0.26707 0.04951 0.0
C1009 C 0.42969 0.32278 1.00739 0.0
C1010 C 0.43178 0.35121 0.02897 0.0
C1011 C 0.46067 0.34088 1.01063 0.0
C1012 C 0.42085 0.33517 0.02117 0.0
C1013 C 0.44933 0.32624 1.00129 0.0
C1014 C 0.45193 0.3533 0.02451 0.0
C1015 C 0.4444 0.30239 0.97526 0.0
N1016 N 0.41871 0.30819 0.9989 0.0
C1017 C 0.42512 0.29925 0.98189 0.0
C1018 C 0.45677 0.31545 0.98539 0.0
Eu1019 Eu 0.38796 0.30174 1.01468 0.0
N1020 N 0.40117 0.33298 0.02516 0.0
C1021 C 0.39113 0.34839 0.03355 0.0
C1022 C 0.42188 0.36554 0.03985 0.0
C1023 C 0.4014 0.36464 0.04125 0.0
H1024 H 0.41605 0.28833 0.97456 0.0
H1025 H 0.39355 0.37658 0.04815 0.0
H1026 H 0.46059 0.36522 0.03083 0.0
H1027 H 0.44983 0.29448 0.96255 0.0
H1028 H 0.37522 0.34861 0.03439 0.0
H1029 H 0.39509 0.22667 0.98136 0.0
H1030 H 0.42972 0.37812 0.04597 0.0
H1031 H 0.34616 0.2656 0.08225 0.0
H1032 H 0.40275 0.25175 1.00677 0.0
H1033 H 0.31549 0.24648 0.0873 0.0
H1034 H 0.47595 0.34336 1.00652 0.0
H1035 H 0.36525 0.20563 0.98471 0.0
H1036 H 0.33509 0.19614 1.00415 0.0
H1037 H 0.47178 0.31771 0.98031 0.0
H1038 H 0.31374 0.20132 0.03294 0.0
N1039 N 0.37731 0.24516 0.02374 0.0
C1040 C 0.38965 0.24275 1.00815 0.0
C1041 C 0.36849 0.21668 0.99579 0.0
C1042 C 0.35603 0.21913 1.01205 0.0
C1043 C 0.38535 0.22854 0.99383 0.0
C1044 C 0.36085 0.23374 0.02601 0.0
H1045 H 0.30603 0.22032 0.06365 0.0
N1046 N 0.35325 0.25132 0.05523 0.0
C1047 C 0.32459 0.2437 0.07452 0.0
C1048 C 0.34857 0.23686 0.0422 0.0
C1049 C 0.34183 0.25469 0.07144 0.0
C1050 C 0.31937 0.22887 0.06119 0.0
C1051 C 0.33148 0.22516 0.04491 0.0
O1052 O 0.38477 0.2592 0.0803 0.0
O1053 O 0.40162 0.29309 0.04271 0.0
O1054 O 0.42034 0.28444 0.01604 0.0
O1055 O 0.41932 0.2652 0.04323 0.0
O1056 O 0.38894 0.29168 0.07077 0.0
O1057 O 0.39829 0.23978 0.05863 0.0
O1058 O 0.38124 0.29403 0.9836 0.0
O1059 O 0.36475 0.27623 0.02183 0.0
O1060 O 0.36048 0.28965 0.05895 0.0
O1061 O 0.36838 0.31571 0.03776 0.0
O1062 O 0.35344 0.30258 1.0132 0.0
O1063 O 0.38263 0.32513 0.99461 0.0
C1064 C 0.39996 0.30196 0.05914 0.0
C1065 C 0.39039 0.22681 0.09021 0.0
C1066 C 0.39906 0.2106 0.12069 0.0
C1067 C 0.40347 0.22402 0.10576 0.0
C1068 C 0.38141 0.19958 0.11974 0.0
C1069 C 0.37284 0.21584 0.08912 0.0
C1070 C 0.36838 0.20219 0.10394 0.0
C1071 C 0.43079 0.27322 0.02897 0.0
C1072 C 0.39475 0.24317 0.0772 0.0
C1073 C 0.32685 0.21039 0.03115 0.0
C1074 C 0.33901 0.20747 1.01473 0.0
C1075 C 0.34723 0.2852 0.01858 0.0
C1076 C 0.37356 0.32183 0.96108 0.0
C1077 C 0.36251 0.33933 0.9615 0.0
C1078 C 0.36072 0.3512 0.94464 0.0
C1079 C 0.36952 0.34465 0.92702 0.0
C1080 C 0.3817 0.31529 0.94338 0.0
C1081 C 0.37958 0.32667 0.92637 0.0
C1082 C 0.35807 0.30799 0.05249 0.0
C1083 C 0.37986 0.31313 0.97973 0.0
H1084 H 0.41709 0.23257 0.10633 0.0
H1085 H 0.37765 0.18913 0.13125 0.0
H1086 H 0.36257 0.21797 0.07714 0.0
H1087 H 0.35475 0.1938 0.10328 0.0
H1088 H 0.35593 0.344 0.97526 0.0
H1089 H 0.36911 0.35357 0.91379 0.0
H1090 H 0.3906 0.30203 0.94296 0.0
H1091 H 0.38639 0.32191 0.91278 0.0
Eu1092 Eu 0.02013 0.8945 0.23616 0.0
C1093 C 0.96243 0.84606 0.27715 0.0
C1094 C 0.93489 0.84136 0.25455 0.0
C1095 C 0.94395 0.81508 0.2771 0.0
C1096 C 0.95026 0.85346 0.26215 0.0
C1097 C 0.95881 0.82709 0.28515 0.0
C1098 C 0.93216 0.82212 0.26175 0.0
C1099 C 0.98407 0.83341 0.30957 0.0
N1100 N 0.97762 0.85734 0.28419 0.0
C1101 C 0.98752 0.85186 0.30104 0.0
C1102 C 0.97001 0.82079 0.30131 0.0
Eu1103 Eu 0.98227 0.8882 0.26819 0.0
N1104 N 0.95294 0.87236 0.25541 0.0
C1105 C 0.93973 0.88001 0.24197 0.0
C1106 C 0.92244 0.8489 0.23998 0.0
C1107 C 0.92472 0.86835 0.23388 0.0
H1108 H 0.99899 0.86121 0.3071 0.0
H1109 H 0.91485 0.87445 0.2229 0.0
H1110 H 0.92061 0.81269 0.25586 0.0
H1111 H 0.9925 0.8288 0.32233 0.0
H1112 H 0.94012 0.89501 0.23688 0.0
H1113 H 0.05713 0.8729 0.30476 0.0
H1114 H 0.91073 0.83996 0.23364 0.0
H1115 H 0.019 0.93967 0.21459 0.0
H1116 H 0.03104 0.87104 0.27965 0.0
H1117 H 0.04126 0.96828 0.21223 0.0
H1118 H 0.94125 0.80037 0.28285 0.0
H1119 H 0.08209 0.89969 0.30338 0.0
H1120 H 0.09462 0.93059 0.28699 0.0
H1121 H 0.96759 0.80636 0.30782 0.0
H1122 H 0.09061 0.95619 0.26153 0.0
N1123 N 0.04137 0.89599 0.26363 0.0
C1124 C 0.04191 0.88256 0.27858 0.0
C1125 C 0.07065 0.8989 0.29222 0.0
C1126 C 0.0694 0.91322 0.27739 0.0
C1127 C 0.05661 0.88373 0.29303 0.0
C1128 C 0.05416 0.91159 0.26334 0.0
H1129 H 0.07094 0.97025 0.23345 0.0
N1130 N 0.03561 0.92553 0.23735 0.0
C1131 C 0.0443 0.95667 0.22278 0.0
C1132 C 0.05148 0.9265 0.24948 0.0
C1133 C 0.03155 0.94049 0.2244 0.0
C1134 C 0.0611 0.95764 0.23469 0.0
C1135 C 0.0646 0.94272 0.24859 0.0
O1136 O 0.02254 0.90382 0.20551 0.0
O1137 O 0.99009 0.88371 0.23769 0.0
O1138 O 0.99945 0.85635 0.26537 0.0
O1139 O 0.02539 0.85954 0.24393 0.0
O1140 O 1.00847 0.86698 0.22088 0.0
O1141 O 0.04803 0.89055 0.2206 0.0
O1142 O 0.98834 0.895 0.29925 0.0
O1143 O 1.00761 0.91184 0.26296 0.0
O1144 O 0.99502 0.91456 0.2246 0.0
O1145 O 0.96869 0.90818 0.24584 0.0
O1146 O 0.98058 0.9223 0.27095 0.0
O1147 O 0.95758 0.89351 0.28692 0.0
C1148 C 0.99057 0.86851 0.2272 0.0
C1149 C 0.0516 0.89872 0.18647 0.0
C1150 C 0.06158 0.88115 0.15743 0.0
C1151 C 0.05144 0.88146 0.17529 0.0
C1152 C 0.07158 0.89807 0.15068 0.0
C1153 C 0.06142 0.91569 0.1797 0.0
C1154 C 0.0714 0.91534 0.16179 0.0
C1155 C 1.01408 0.84733 0.25525 0.0
C1156 C 0.04129 0.89968 0.20504 0.0
C1157 C 0.0804 0.94382 0.26195 0.0
C1158 C 0.08267 0.92923 0.27643 0.0
C1159 C 0.99794 0.92893 0.26604 0.0
C1160 C 0.9603 0.90108 0.32124 0.0
C1161 C 0.94154 0.90964 0.32133 0.0
C1162 C 0.93035 0.91027 0.33862 0.0
C1163 C 0.93881 0.90319 0.35624 0.0
C1164 C 0.96873 0.89442 0.33886 0.0
C1165 C 0.95801 0.89564 0.35635 0.0
C1166 C 0.9766 0.91761 0.2307 0.0
C1167 C 0.96909 0.89605 0.30235 0.0
H1168 H 0.04366 0.8684 0.18048 0.0
H1169 H 0.07943 0.89787 0.13678 0.0
H1170 H 0.06135 0.92917 0.18828 0.0
H1171 H 0.07901 0.92842 0.15654 0.0
H1172 H 0.93544 0.91527 0.30766 0.0
H1173 H 0.93052 0.90305 0.36984 0.0
H1174 H 0.98311 0.88746 0.33893 0.0
H1175 H 0.96432 0.89007 0.36992 0.0
Eu1176 Eu 0.14677 0.76886 0.54663 0.0
C1177 C 0.10012 0.7095 0.50474 0.0
C1178 C 0.0949 0.68084 0.52584 0.0
C1179 C 0.07 0.68987 0.50173 0.0
C1180 C 0.10692 0.69692 0.51976 0.0
C1181 C 0.08185 0.70564 0.49535 0.0
C1182 C 0.07642 0.67763 0.51699 0.0
C1183 C 0.08833 0.73291 0.4732 0.0
N1184 N 0.11115 0.72556 0.49931 0.0
C1185 C 0.10611 0.7365 0.48301 0.0
C1186 C 0.07599 0.71766 0.4796 0.0
Eu1187 Eu 0.14128 0.72942 0.51667 0.0
N1188 N 0.12505 0.70011 0.52825 0.0
C1189 C 0.13192 0.68716 0.54229 0.0
C1190 C 0.10168 0.66831 0.5407 0.0
C1191 C 0.12026 0.67142 0.54884 0.0
H1192 H 0.1154 0.74861 0.47823 0.0
H1193 H 0.12559 0.66166 0.56027 0.0
H1194 H 0.06706 0.66548 0.52168 0.0
H1195 H 0.08408 0.742 0.46078 0.0
H1196 H 0.14621 0.68847 0.54904 0.0
H1197 H 0.12436 0.80154 0.4762 0.0
H1198 H 0.09273 0.65605 0.5459 0.0
H1199 H 0.19241 0.76871 0.56753 0.0
H1200 H 0.12294 0.77674 0.50269 0.0
H1201 H 0.22055 0.79166 0.56888 0.0
H1202 H 0.05584 0.68691 0.49484 0.0
H1203 H 0.15078 0.82695 0.47625 0.0
H1204 H 0.18149 0.84088 0.49199 0.0
H1205 H 0.06211 0.71505 0.47205 0.0
H1206 H 0.20724 0.83857 0.51754 0.0
N1207 N 0.14799 0.78815 0.51784 0.0
C1208 C 0.13441 0.78775 0.50301 0.0
C1209 C 0.15026 0.81603 0.48791 0.0
C1210 C 0.16469 0.81575 0.50271 0.0
C1211 C 0.1353 0.80173 0.48785 0.0
C1212 C 0.16341 0.80114 0.51743 0.0
H1213 H 0.22184 0.82041 0.54637 0.0
N1214 N 0.17784 0.78406 0.54418 0.0
C1215 C 0.20885 0.794 0.55824 0.0
C1216 C 0.17846 0.79937 0.53133 0.0
C1217 C 0.19295 0.78084 0.5572 0.0
C1218 C 0.20944 0.81027 0.5456 0.0
C1219 C 0.1944 0.81285 0.5316 0.0
O1220 O 0.15682 0.77446 0.57649 0.0
O1221 O 0.13623 0.73894 0.54639 0.0
O1222 O 0.10839 0.74521 0.52009 0.0
O1223 O 0.11169 0.77354 0.53825 0.0
O1224 O 0.12008 0.75733 0.5637 0.0
O1225 O 0.14242 0.79792 0.55976 0.0
O1226 O 0.1485 0.73442 0.48551 0.0
O1227 O 0.16483 0.75518 0.52068 0.0
O1228 O 0.16653 0.74442 0.56037 0.0
O1229 O 0.16059 0.71685 0.54051 0.0
O1230 O 0.17552 0.72755 0.51524 0.0
O1231 O 0.14732 0.70415 0.49898 0.0
C1232 C 0.12142 0.73942 0.55738 0.0
C1233 C 0.14782 0.80297 0.5939 0.0
C1234 C 0.1263 0.81024 0.62096 0.0
C1235 C 0.12967 0.80043 0.60327 0.0
C1236 C 0.14104 0.82229 0.62935 0.0
C1237 C 0.16261 0.81487 0.60227 0.0
C1238 C 0.1592 0.82453 0.62001 0.0
C1239 C 0.09927 0.76093 0.52853 0.0
C1240 C 0.15218 0.79307 0.57564 0.0
C1241 C 0.19511 0.82806 0.51758 0.0
C1242 C 0.18043 0.82938 0.50305 0.0
C1243 C 0.18202 0.74531 0.51876 0.0
C1244 C 0.15497 0.70561 0.46456 0.0
C1245 C 0.16208 0.68622 0.46504 0.0
C1246 C 0.1637 0.6754 0.44771 0.0
C1247 C 0.15871 0.6841 0.42963 0.0
C1248 C 0.1503 0.71445 0.44646 0.0
C1249 C 0.15223 0.70368 0.42902 0.0
C1250 C 0.16971 0.72564 0.55545 0.0
C1251 C 0.14975 0.71508 0.48312 0.0
H1252 H 0.11831 0.79107 0.59685 0.0
H1253 H 0.13845 0.8299 0.64313 0.0
H1254 H 0.17679 0.81665 0.59507 0.0
H1255 H 0.17059 0.83374 0.62649 0.0
H1256 H 0.16574 0.67921 0.47895 0.0
H1257 H 0.15999 0.67581 0.41606 0.0
H1258 H 0.14446 0.72931 0.44588 0.0
H1259 H 0.14837 0.71039 0.41507 0.0
Eu1260 Eu 0.98263 0.63735 0.76589 0.0
C1261 C 0.04694 0.5991 0.74373 0.0
C1262 C 0.06533 0.61188 0.77156 0.0
C1263 C 0.07165 0.57865 0.75985 0.0
C1264 C 0.05105 0.61448 0.75656 0.0
C1265 C 0.05706 0.58096 0.74537 0.0
C1266 C 0.07578 0.59407 0.77291 0.0
C1267 C 0.03692 0.56818 0.71892 0.0
N1268 N 0.03235 0.60145 0.73029 0.0
C1269 C 0.02713 0.58626 0.71802 0.0
C1270 C 0.05196 0.56549 0.73267 0.0
Eu1271 Eu 0.01703 0.63272 0.72868 0.0
N1272 N 0.04036 0.63145 0.75517 0.0
C1273 C 0.04264 0.64572 0.76922 0.0
C1274 C 0.06829 0.627 0.78522 0.0
C1275 C 0.0567 0.64388 0.78417 0.0
H1276 H 0.01517 0.58772 0.70761 0.0
H1277 H 0.05837 0.65541 0.79508 0.0
H1278 H 0.08681 0.59192 0.78429 0.0
H1279 H 0.0326 0.55623 0.70923 0.0
H1280 H 0.03356 0.65846 0.76963 0.0
H1281 H 0.91453 0.66684 0.73272 0.0
H1282 H 0.07904 0.62554 0.79696 0.0
H1283 H 1.01066 0.65466 0.80302 0.0
H1284 H 0.94115 0.643 0.73662 0.0
H1285 H 1.00989 0.68273 0.82654 0.0
H1286 H 0.07959 0.56485 0.7613 0.0
H1287 H 0.91339 0.69649 0.75378 0.0
H1288 H 0.92782 0.71613 0.78136 0.0
H1289 H 0.05933 0.55135 0.73356 0.0
H1290 H 0.95325 0.72028 0.80687 0.0
N1291 N 0.95578 0.65883 0.75971 0.0
C1292 C 0.9411 0.65567 0.74614 0.0
C1293 C 0.92527 0.68598 0.75568 0.0
C1294 C 0.93991 0.68888 0.77 0.0
C1295 C 0.92582 0.66925 0.7438 0.0
C1296 C 0.95528 0.67492 0.77177 0.0
H1297 H 0.98359 0.70785 0.82391 0.0
N1298 N 0.9855 0.66452 0.78717 0.0
C1299 C 0.99878 0.68151 0.81511 0.0
C1300 C 0.97004 0.67754 0.78614 0.0
C1301 C 0.9993 0.66578 0.80182 0.0
C1302 C 0.98381 0.69562 0.81365 0.0
C1303 C 0.96922 0.69377 0.79908 0.0
O1304 O 0.97745 0.62783 0.79603 0.0
O1305 O 1.0046 0.61424 0.75368 0.0
O1306 O 0.99033 0.61266 0.71921 0.0
O1307 O 0.96649 0.6204 0.74248 0.0
O1308 O 0.99275 0.60629 0.77859 0.0
O1309 O 0.95374 0.6262 0.77381 0.0
O1310 O 0.0163 0.62183 0.69889 0.0
O1311 O 0.98715 0.64294 0.73445 0.0
O1312 O 0.99906 0.67028 0.76234 0.0
O1313 O 0.02196 0.66811 0.73726 0.0
O1314 O 1.00355 0.66056 0.71625 0.0
O1315 O 0.04149 0.63913 0.70837 0.0
C1316 C 1.002 0.59792 0.76417 0.0
C1317 C 0.94408 0.63033 0.80655 0.0
C1318 C 0.91169 0.62489 0.82075 0.0
C1319 C 0.92685 0.6191 0.8081 0.0
C1320 C 0.91385 0.64243 0.83166 0.0
C1321 C 0.94649 0.64733 0.81807 0.0
C1322 C 0.93124 0.65353 0.83035 0.0
C1323 C 0.97221 0.61037 0.7268 0.0
C1324 C 0.95876 0.62389 0.79232 0.0
C1325 C 0.95397 0.70763 0.79715 0.0
C1326 C 0.93947 0.70527 0.78261 0.0
C1327 C 0.98646 0.65852 0.72436 0.0
C1328 C 0.02997 0.64299 0.67551 0.0
C1329 C 0.04659 0.65196 0.66718 0.0
C1330 C 0.04453 0.66347 0.65023 0.0
C1331 C 0.02594 0.66589 0.64139 0.0
C1332 C 1.01134 0.64529 0.66639 0.0
C1333 C 1.00942 0.65669 0.64942 0.0
C1334 C 1.01196 0.68002 0.75019 0.0
C1335 C 0.03217 0.63112 0.69348 0.0
H1336 H 0.92552 0.60554 0.79969 0.0
H1337 H 0.90221 0.64744 0.84133 0.0
H1338 H 0.96006 0.65572 0.81774 0.0
H1339 H 0.93298 0.66684 0.839 0.0
H1340 H 0.06103 0.65013 0.6739 0.0
H1341 H 0.02433 0.67464 0.6281 0.0
H1342 H 0.99826 0.6382 0.67223 0.0
H1343 H 0.99515 0.65832 0.64241 0.0
Eu1344 Eu 0.13986 0.22714 0.51438 0.0
C1345 C 0.18029 0.29208 0.48729 0.0
C1346 C 0.17499 0.30682 0.51941 0.0
C1347 C 0.20426 0.31544 0.50038 0.0
C1348 C 0.16875 0.29421 0.50413 0.0
C1349 C 0.19802 0.30287 0.48516 0.0
C1350 C 0.19282 0.31737 0.51747 0.0
C1351 C 0.20203 0.28809 0.45297 0.0
N1352 N 0.1742 0.27951 0.47298 0.0
C1353 C 0.18448 0.27753 0.45583 0.0
C1354 C 0.20891 0.30072 0.46776 0.0
Eu1355 Eu 0.14413 0.2635 0.47893 0.0
N1356 N 0.15159 0.28377 0.50572 0.0
C1357 C 0.13991 0.28523 0.52191 0.0
C1358 C 0.16313 0.30838 0.53622 0.0
C1359 C 0.14553 0.29754 0.53747 0.0
H1360 H 0.17915 0.26779 0.44436 0.0
H1361 H 0.1363 0.29866 0.55042 0.0
H1362 H 0.19787 0.32712 0.52908 0.0
H1363 H 0.21028 0.28641 0.43944 0.0
H1364 H 0.12639 0.27681 0.52288 0.0
H1365 H 0.13615 0.15488 0.47563 0.0
H1366 H 0.16744 0.3179 0.54832 0.0
H1367 H 0.11131 0.23863 0.55451 0.0
H1368 H 0.15375 0.18214 0.49118 0.0
H1369 H 0.07855 0.22953 0.56748 0.0
H1370 H 0.21791 0.32376 0.49908 0.0
H1371 H 0.10012 0.15159 0.47898 0.0
H1372 H 0.06929 0.16214 0.49576 0.0
H1373 H 0.22262 0.30876 0.46558 0.0
H1374 H 0.05364 0.18187 0.5216 0.0
N1375 N 0.12759 0.19621 0.50217 0.0
C1376 C 0.13791 0.18183 0.4924 0.0
C1377 C 0.10767 0.164 0.48576 0.0
C1378 C 0.09755 0.17718 0.49784 0.0
C1379 C 0.12804 0.16587 0.48375 0.0
C1380 C 0.10804 0.19318 0.50633 0.0
H1381 H 0.05742 0.20593 0.54925 0.0
N1382 N 0.10915 0.21963 0.52947 0.0
C1383 C 0.08398 0.22264 0.55419 0.0
C1384 C 0.09881 0.20477 0.52064 0.0
C1385 C 0.10266 0.22754 0.54693 0.0
C1386 C 0.07207 0.20937 0.5438 0.0
C1387 C 0.07954 0.19998 0.52705 0.0
O1388 O 0.14584 0.2321 0.54601 0.0
O1389 O 0.16301 0.25088 0.50419 0.0
O1390 O 0.1676 0.24125 0.46957 0.0
O1391 O 0.1605 0.21501 0.49108 0.0
O1392 O 0.17325 0.23188 0.52344 0.0
O1393 O 0.14632 0.2021 0.53193 0.0
O1394 O 0.14102 0.27057 0.44806 0.0
O1395 O 0.12663 0.23764 0.48691 0.0
O1396 O 0.10757 0.2448 0.51345 0.0
O1397 O 0.10891 0.26537 0.48682 0.0
O1398 O 0.13776 0.23877 0.4581 0.0
O1399 O 0.13024 0.29123 0.47026 0.0
C1400 C 0.1803 0.24595 0.51254 0.0
C1401 C 0.15436 0.20276 0.56607 0.0
C1402 C 0.16858 0.17385 0.58165 0.0
C1403 C 0.16279 0.18391 0.56472 0.0
C1404 C 0.16582 0.18257 0.60017 0.0
C1405 C 0.15152 0.2114 0.58457 0.0
C1406 C 0.1572 0.20125 0.60159 0.0
C1407 C 0.17056 0.223 0.47626 0.0
C1408 C 0.14841 0.2128 0.54796 0.0
C1409 C 0.06868 0.18529 0.51727 0.0
C1410 C 0.0776 0.17404 0.50255 0.0
C1411 C 0.12729 0.22877 0.47051 0.0
C1412 C 0.1358 0.30297 0.43774 0.0
C1413 C 0.12278 0.30436 0.42194 0.0
C1414 C 0.12592 0.31836 0.40734 0.0
C1415 C 0.14225 0.33116 0.40844 0.0
C1416 C 0.15226 0.31554 0.43902 0.0
C1417 C 0.15546 0.32965 0.42427 0.0
C1418 C 0.09743 0.25675 0.50076 0.0
C1419 C 0.13205 0.28715 0.45155 0.0
H1420 H 0.16521 0.17707 0.55049 0.0
H1421 H 0.17021 0.17487 0.61347 0.0
H1422 H 0.14483 0.22585 0.58584 0.0
H1423 H 0.15494 0.20786 0.6159 0.0
H1424 H 0.11011 0.29448 0.42097 0.0
H1425 H 0.14473 0.34219 0.39713 0.0
H1426 H 0.16252 0.31441 0.45121 0.0
H1427 H 0.16815 0.3394 0.4251 0.0
Eu1428 Eu 0.5129 0.39247 0.22731 0.0
C1429 C 0.54358 0.35298 0.29303 0.0
C1430 C 0.51303 0.35876 0.31075 0.0
C1431 C 0.53422 0.3313 0.32006 0.0
C1432 C 0.52656 0.36413 0.29593 0.0
C1433 C 0.54764 0.33657 0.30521 0.0
C1434 C 0.51693 0.34229 0.32275 0.0
C1435 C 0.57744 0.33107 0.2864 0.0
N1436 N 0.55605 0.35797 0.27821 0.0
C1437 C 0.57291 0.34751 0.27482 0.0
C1438 C 0.56478 0.32558 0.30169 0.0
Eu1439 Eu 0.54831 0.38747 0.2619 0.0
N1440 N 0.52314 0.3801 0.28423 0.0
C1441 C 0.50683 0.39151 0.28662 0.0
C1442 C 0.49598 0.37016 0.3131 0.0
C1443 C 0.49287 0.3866 0.30099 0.0
H1444 H 0.58307 0.35203 0.26337 0.0
H1445 H 0.47981 0.39556 0.30282 0.0
H1446 H 0.50667 0.33793 0.33421 0.0
H1447 H 0.59078 0.32276 0.28364 0.0
H1448 H 0.50459 0.4043 0.27741 0.0
H1449 H 0.55143 0.39652 0.15498 0.0
H1450 H 0.48518 0.36647 0.32429 0.0
H1451 H 0.4725 0.4211 0.23784 0.0
H1452 H 0.53431 0.37885 0.18115 0.0
H1453 H 0.46081 0.45464 0.23012 0.0
H1454 H 0.53698 0.31862 0.32942 0.0
H1455 H 0.5499 0.4329 0.15306 0.0
H1456 H 0.53431 0.46414 0.16467 0.0
H1457 H 0.56831 0.31279 0.31061 0.0
H1458 H 0.50878 0.48005 0.18472 0.0
N1459 N 0.52496 0.40504 0.19636 0.0
C1460 C 0.53406 0.39475 0.18152 0.0
C1461 C 0.5426 0.42524 0.16506 0.0
C1462 C 0.53089 0.43545 0.17851 0.0
C1463 C 0.5435 0.40472 0.1661 0.0
C1464 C 0.52181 0.42482 0.19402 0.0
H1465 H 0.48043 0.47626 0.20815 0.0
N1466 N 0.49822 0.42341 0.21976 0.0
C1467 C 0.47414 0.44913 0.22333 0.0
C1468 C 0.50773 0.43409 0.20569 0.0
C1469 C 0.48066 0.43001 0.22742 0.0
C1470 C 0.48532 0.46131 0.211 0.0
C1471 C 0.50205 0.45371 0.20162 0.0
O1472 O 0.48161 0.38571 0.23482 0.0
O1473 O 0.52029 0.36897 0.25239 0.0
O1474 O 0.55683 0.36375 0.23969 0.0
O1475 O 0.53574 0.37264 0.21393 0.0
O1476 O 0.50975 0.3582 0.22651 0.0
O1477 O 0.49268 0.38798 0.20394 0.0
O1478 O 0.57928 0.38986 0.2698 0.0
O1479 O 0.54132 0.40563 0.23616 0.0
O1480 O 0.51326 0.42381 0.24587 0.0
O1481 O 0.54161 0.4228 0.26363 0.0
O1482 O 0.56943 0.39262 0.23719 0.0
O1483 O 0.55693 0.40343 0.28846 0.0
C1484 C 0.51597 0.35162 0.2434 0.0
C1485 C 0.45957 0.37704 0.20684 0.0
C1486 C 0.44305 0.36198 0.1787 0.0
C1487 C 0.46042 0.36757 0.18844 0.0
C1488 C 0.42472 0.36583 0.18759 0.0
C1489 C 0.44124 0.38076 0.21554 0.0
C1490 C 0.42387 0.37513 0.20592 0.0
C1491 C 0.55004 0.36169 0.22146 0.0
C1492 C 0.47768 0.38487 0.21575 0.0
C1493 C 0.5125 0.46476 0.18757 0.0
C1494 C 0.52704 0.45568 0.17614 0.0
C1495 C 0.55781 0.40401 0.22729 0.0
C1496 C 0.58838 0.39677 0.30229 0.0
C1497 C 0.60474 0.40913 0.30441 0.0
C1498 C 0.61771 0.40645 0.3201 0.0
C1499 C 0.61447 0.39107 0.33363 0.0
C1500 C 0.58505 0.38137 0.3157 0.0
C1501 C 0.59821 0.37847 0.33131 0.0
C1502 C 0.52687 0.43408 0.25643 0.0
C1503 C 0.57572 0.40031 0.28544 0.0
H1504 H 0.47457 0.36464 0.18158 0.0
H1505 H 0.41104 0.36188 0.18023 0.0
H1506 H 0.44036 0.38841 0.22951 0.0
H1507 H 0.40969 0.37821 0.21256 0.0
H1508 H 0.60727 0.42106 0.29397 0.0
H1509 H 0.62452 0.38883 0.34585 0.0
H1510 H 0.57241 0.37173 0.3142 0.0
H1511 H 0.59575 0.36654 0.34166 0.0
Eu1512 Eu 0.38755 0.80493 1.01254 0.0
C1513 C 0.3472 0.73637 0.99199 0.0
C1514 C 0.35181 0.72221 0.02459 0.0
C1515 C 0.32457 0.71105 1.00382 0.0
C1516 C 0.35783 0.73528 1.00961 0.0
C1517 C 0.33046 0.72426 0.98897 0.0
C1518 C 0.33516 0.71007 0.02158 0.0
C1519 C 0.32647 0.73932 0.95686 0.0
N1520 N 0.35308 0.74935 0.97793 0.0
C1521 C 0.34333 0.75078 0.96037 0.0
C1522 C 0.32001 0.72598 0.97121 0.0
Eu1523 Eu 0.38329 0.76491 0.98439 0.0
N1524 N 0.37396 0.74707 1.01215 0.0
C1525 C 0.38492 0.74652 0.02895 0.0
C1526 C 0.36278 0.72167 0.04212 0.0
C1527 C 0.37938 0.7339 0.04432 0.0
H1528 H 0.34878 0.7604 0.94886 0.0
H1529 H 0.38801 0.73345 0.05775 0.0
H1530 H 0.33032 0.69988 0.03292 0.0
H1531 H 0.31868 0.74054 0.94297 0.0
H1532 H 0.39795 0.75573 0.03033 0.0
H1533 H 0.39146 0.88016 0.98062 0.0
H1534 H 0.35861 0.71181 0.054 0.0
H1535 H 0.41522 0.78651 0.05014 0.0
H1536 H 0.37422 0.84985 0.99086 0.0
H1537 H 0.44716 0.79394 0.06619 0.0
H1538 H 0.31172 0.70166 1.00179 0.0
H1539 H 0.42589 0.88604 0.9906 0.0
H1540 H 0.45517 0.87556 1.01019 0.0
H1541 H 0.30699 0.71703 0.9684 0.0
H1542 H 0.47015 0.85256 0.0338 0.0
N1543 N 0.39966 0.83704 1.00449 0.0
C1544 C 0.38963 0.85149 0.99451 0.0
C1545 C 0.41863 0.87237 0.9948 0.0
C1546 C 0.4282 0.85854 1.00672 0.0
C1547 C 0.39916 0.86904 0.98907 0.0
C1548 C 0.41817 0.84087 1.01171 0.0
H1549 H 0.46704 0.82259 0.05514 0.0
N1550 N 0.41698 0.81097 0.03036 0.0
C1551 C 0.44166 0.80348 0.05463 0.0
C1552 C 0.42682 0.82779 0.02518 0.0
C1553 C 0.42347 0.79948 0.04572 0.0
C1554 C 0.45285 0.81965 0.0483 0.0
C1555 C 0.44537 0.83221 0.03368 0.0
O1556 O 0.38017 0.79603 0.04325 0.0
O1557 O 0.364 0.77904 1.00905 0.0
O1558 O 0.36212 0.78755 0.96955 0.0
O1559 O 0.37166 0.81662 0.98564 0.0
O1560 O 0.35321 0.80726 1.01022 0.0
O1561 O 0.38043 0.82738 0.0329 0.0
O1562 O 0.38736 0.75264 0.95553 0.0
O1563 O 0.40191 0.79052 0.98791 0.0
O1564 O 0.4219 0.79179 1.00822 0.0
O1565 O 0.41808 0.76131 0.99509 0.0
O1566 O 0.39142 0.78516 0.9597 0.0
O1567 O 0.39672 0.73569 0.98126 0.0
C1568 C 0.34693 0.78907 1.00897 0.0
C1569 C 0.37076 0.82306 0.06622 0.0
C1570 C 0.35773 0.85127 0.08433 0.0
C1571 C 0.36272 0.84221 0.06652 0.0
C1572 C 0.36066 0.84076 0.102 0.0
C1573 C 0.37341 0.81274 0.08389 0.0
C1574 C 0.36834 0.82161 0.10172 0.0
C1575 C 0.36153 0.80715 0.97184 0.0
C1576 C 0.37759 0.81494 0.04743 0.0
C1577 C 0.45572 0.84916 0.0277 0.0
C1578 C 0.4472 0.86225 1.01422 0.0
C1579 C 0.40287 0.7963 0.97014 0.0
C1580 C 0.3914 0.71909 0.9508 0.0
C1581 C 0.40353 0.7165 0.93463 0.0
C1582 C 0.39827 0.70335 0.91984 0.0
C1583 C 0.38137 0.69142 0.92206 0.0
C1584 C 0.37436 0.70753 0.95314 0.0
C1585 C 0.36954 0.69343 0.93884 0.0
C1586 C 0.43102 0.77474 1.00266 0.0
C1587 C 0.39556 0.73662 0.96212 0.0
H1588 H 0.3603 0.85015 0.05285 0.0
H1589 H 0.35724 0.84742 0.11607 0.0
H1590 H 0.37976 0.79809 0.08393 0.0
H1591 H 0.37061 0.81373 0.11541 0.0
H1592 H 0.41665 0.72568 0.93299 0.0
H1593 H 0.3771 0.68104 0.91068 0.0
H1594 H 0.36468 0.70968 0.96558 0.0
H1595 H 0.35632 0.68452 0.94043 0.0
Eu1596 Eu 0.98017 0.3894 0.76734 0.0
C1597 C 0.04716 0.43135 0.78124 0.0
C1598 C 0.06206 0.42012 0.7508 0.0
C1599 C 0.07172 0.45181 0.7648 0.0
C1600 C 0.0492 0.41693 0.76677 0.0
C1601 C 0.05837 0.44896 0.78033 0.0
C1602 C 0.07346 0.4375 0.75002 0.0
C1603 C 0.04123 0.46042 0.8093 0.0
N1604 N 0.03374 0.42849 0.79577 0.0
C1605 C 0.03059 0.44272 0.80973 0.0
C1606 C 0.05531 0.46351 0.79464 0.0
Eu1607 Eu 0.02068 0.39618 0.79731 0.0
N1608 N 0.03815 0.40012 0.76793 0.0
C1609 C 0.03866 0.38625 0.75348 0.0
C1610 C 0.06294 0.40579 0.73598 0.0
C1611 C 0.05105 0.38889 0.73723 0.0
H1612 H 0.02048 0.44026 0.82179 0.0
H1613 H 0.05152 0.37783 0.72575 0.0
H1614 H 0.08354 0.44013 0.73792 0.0
H1615 H 0.03877 0.47154 0.82046 0.0
H1616 H 0.02959 0.37317 0.75444 0.0
H1617 H 0.90756 0.38852 0.80591 0.0
H1618 H 0.0726 0.40772 0.72342 0.0
H1619 H 0.99358 0.35878 0.73038 0.0
H1620 H 0.93519 0.40489 0.7898 0.0
H1621 H 0.98359 0.3264 0.71689 0.0
H1622 H 0.08042 0.46525 0.76384 0.0
H1623 H 0.90225 0.35274 0.80173 0.0
H1624 H 0.91099 0.3218 0.78414 0.0
H1625 H 0.06353 0.47727 0.79434 0.0
H1626 H 0.93045 0.30538 0.75854 0.0
N1627 N 0.94841 0.37822 0.77913 0.0
C1628 C 0.93434 0.38908 0.78878 0.0
C1629 C 0.91511 0.35971 0.7952 0.0
C1630 C 0.92776 0.34913 0.78296 0.0
C1631 C 0.91807 0.3799 0.7976 0.0
C1632 C 0.94448 0.35883 0.77492 0.0
H1633 H 0.95646 0.30753 0.73251 0.0
N1634 N 0.97207 0.35835 0.7533 0.0
C1635 C 0.97584 0.3325 0.72939 0.0
C1636 C 0.95607 0.349 0.7611 0.0
C1637 C 0.98133 0.35088 0.73696 0.0
C1638 C 0.96051 0.32191 0.73825 0.0
C1639 C 0.95037 0.33012 0.75422 0.0
O1640 O 0.99011 0.39622 0.73694 0.0
O1641 O 1.00539 0.41357 0.77153 0.0
O1642 O 0.99696 0.4166 0.81007 0.0
O1643 O 0.96866 0.40747 0.79233 0.0
O1644 O 0.97736 0.42389 0.76651 0.0
O1645 O 0.95896 0.39038 0.74438 0.0
O1646 O 0.03403 0.4049 0.82494 0.0
O1647 O 0.99501 0.37779 0.79292 0.0
O1648 O 0.99613 0.35689 0.77168 0.0
O1649 O 0.02425 0.36057 0.79007 0.0
O1650 O 1.00073 0.38569 0.82198 0.0
O1651 O 0.04917 0.38344 0.80659 0.0
C1652 C 0.9953 0.43056 0.76952 0.0
C1653 C 0.96382 0.40833 0.71534 0.0
C1654 C 0.93478 0.42365 0.70055 0.0
C1655 C 0.94427 0.4153 0.71682 0.0
C1656 C 0.94522 0.42592 0.68283 0.0
C1657 C 0.97401 0.41057 0.69754 0.0
C1658 C 0.96478 0.41951 0.68141 0.0
C1659 C 0.97779 0.41792 0.8061 0.0
C1660 C 0.97166 0.3951 0.73066 0.0
C1661 C 0.93457 0.32015 0.76318 0.0
C1662 C 0.92351 0.32951 0.77776 0.0
C1663 C 0.98902 0.37605 0.81044 0.0
C1664 C 0.06071 0.38866 0.83993 0.0
C1665 C 0.05714 0.37091 0.85013 0.0
C1666 C 0.06707 0.3675 0.86801 0.0
C1667 C 0.08014 0.3818 0.87558 0.0
C1668 C 0.07389 0.40273 0.84766 0.0
C1669 C 0.08352 0.39931 0.86543 0.0
C1670 C 1.01198 0.34795 0.78017 0.0
C1671 C 0.04985 0.39453 0.8223 0.0
H1672 H 0.936 0.41353 0.73037 0.0
H1673 H 0.9381 0.43218 0.66997 0.0
H1674 H 0.98878 0.40471 0.69587 0.0
H1675 H 0.97259 0.42092 0.66759 0.0
H1676 H 0.04682 0.36007 0.84436 0.0
H1677 H 0.08786 0.37929 0.88936 0.0
H1678 H 0.07644 0.41661 0.84008 0.0
H1679 H 0.09357 0.41028 0.87136 0.0
Eu1680 Eu 0.38963 0.229 0.51532 0.0
C1681 C 0.35255 0.29654 0.5403 0.0
C1682 C 0.36351 0.3147 0.51147 0.0
C1683 C 0.3341 0.32516 0.52912 0.0
C1684 C 0.36619 0.29937 0.52523 0.0
C1685 C 0.3364 0.30946 0.54242 0.0
C1686 C 0.34751 0.32768 0.5136 0.0
C1687 C 0.32469 0.289 0.56922 0.0
N1688 N 0.35462 0.28073 0.55239 0.0
C1689 C 0.34081 0.27652 0.56644 0.0
C1690 C 0.32263 0.30574 0.55738 0.0
Eu1691 Eu 0.38491 0.26427 0.54959 0.0
N1692 N 0.38168 0.28675 0.52363 0.0
C1693 C 0.39455 0.28802 0.50831 0.0
C1694 C 0.37687 0.31637 0.49582 0.0
C1695 C 0.39234 0.30286 0.49414 0.0
H1696 H 0.34257 0.26408 0.57624 0.0
H1697 H 0.40259 0.30391 0.48197 0.0
H1698 H 0.34527 0.33962 0.5032 0.0
H1699 H 0.31399 0.28583 0.58064 0.0
H1700 H 0.40644 0.27759 0.50693 0.0
H1701 H 0.39459 0.15835 0.55856 0.0
H1702 H 0.37525 0.3279 0.48486 0.0
H1703 H 0.42081 0.24539 0.48036 0.0
H1704 H 0.3817 0.19025 0.55165 0.0
H1705 H 0.45021 0.23394 0.46238 0.0
H1706 H 0.32172 0.33517 0.53044 0.0
H1707 H 0.42179 0.14471 0.5393 0.0
H1708 H 0.44735 0.14937 0.51399 0.0
H1709 H 0.31008 0.31536 0.55953 0.0
H1710 H 0.46335 0.17015 0.48915 0.0
N1711 N 0.39992 0.19618 0.52596 0.0
C1712 C 0.39265 0.18513 0.54152 0.0
C1713 C 0.41582 0.15902 0.53539 0.0
C1714 C 0.4243 0.17044 0.52055 0.0
C1715 C 0.4003 0.1666 0.54616 0.0
C1716 C 0.41627 0.18929 0.51616 0.0
H1717 H 0.46469 0.20146 0.47015 0.0
N1718 N 0.41884 0.21971 0.49851 0.0
C1719 C 0.44364 0.22471 0.47364 0.0
C1720 C 0.42603 0.20138 0.50248 0.0
C1721 C 0.42699 0.23108 0.48381 0.0
C1722 C 0.45174 0.20637 0.47808 0.0
C1723 C 0.44291 0.19441 0.49243 0.0
O1724 O 0.38273 0.24232 0.486 0.0
O1725 O 0.3659 0.25394 0.52229 0.0
O1726 O 0.36193 0.2412 0.55831 0.0
O1727 O 0.36795 0.21528 0.53633 0.0
O1728 O 0.35526 0.22739 0.51246 0.0
O1729 O 0.38844 0.21073 0.49034 0.0
O1730 O 0.3863 0.26713 0.58111 0.0
O1731 O 0.40373 0.23957 0.54215 0.0
O1732 O 0.42306 0.24326 0.51994 0.0
O1733 O 0.42038 0.26853 0.54175 0.0
O1734 O 0.39048 0.23833 0.56934 0.0
O1735 O 0.39553 0.29205 0.56352 0.0
C1736 C 0.34863 0.24464 0.51796 0.0
C1737 C 0.36891 0.21767 0.46314 0.0
C1738 C 0.35415 0.18854 0.44752 0.0
C1739 C 0.36235 0.19787 0.46397 0.0
C1740 C 0.35081 0.19981 0.43042 0.0
C1741 C 0.36555 0.22865 0.44599 0.0
C1742 C 0.3562 0.21981 0.42983 0.0
C1743 C 0.35869 0.22307 0.55166 0.0
C1744 C 0.38329 0.22455 0.47799 0.0
C1745 C 0.45038 0.17563 0.49666 0.0
C1746 C 0.44116 0.16374 0.51068 0.0
C1747 C 0.4037 0.23033 0.55839 0.0
C1748 C 0.38629 0.29746 0.59747 0.0
C1749 C 0.4 0.30945 0.60744 0.0
C1750 C 0.39526 0.31762 0.62591 0.0
C1751 C 0.37627 0.3142 0.63376 0.0
C1752 C 0.36758 0.29423 0.60581 0.0
C1753 C 0.36249 0.30288 0.62359 0.0
C1754 C 0.43261 0.25773 0.53009 0.0
C1755 C 0.39325 0.28497 0.58124 0.0
H1756 H 0.36535 0.18899 0.4769 0.0
H1757 H 0.34426 0.19314 0.41746 0.0
H1758 H 0.37093 0.24369 0.44478 0.0
H1759 H 0.35385 0.22826 0.41649 0.0
H1760 H 0.41462 0.3115 0.60126 0.0
H1761 H 0.37221 0.3195 0.64822 0.0
H1762 H 0.35728 0.28399 0.59943 0.0
H1763 H 0.34816 0.29993 0.63003 0.0
Eu1764 Eu 0.5477 0.64105 0.26523 0.0
C1765 C 0.483 0.59928 0.27761 0.0
C1766 C 0.46778 0.61062 0.24724 0.0
C1767 C 0.46073 0.57757 0.2596 0.0
C1768 C 0.48007 0.6142 0.26363 0.0
C1769 C 0.47336 0.58086 0.27566 0.0
C1770 C 0.45798 0.59237 0.24544 0.0
C1771 C 0.48948 0.57004 0.30556 0.0
N1772 N 0.49563 0.60256 0.29281 0.0
C1773 C 0.49891 0.58836 0.3068 0.0
C1774 C 0.47672 0.56622 0.28987 0.0
Eu1775 Eu 0.50775 0.63503 0.29506 0.0
N1776 N 0.4898 0.63181 0.2656 0.0
C1777 C 0.48856 0.64598 0.25138 0.0
C1778 C 0.46594 0.62538 0.23291 0.0
C1779 C 0.47655 0.64302 0.23488 0.0
H1780 H 0.50867 0.59104 0.31912 0.0
H1781 H 0.47549 0.65434 0.22367 0.0
H1782 H 0.44837 0.58946 0.23299 0.0
H1783 H 0.49217 0.55885 0.31664 0.0
H1784 H 0.49685 0.65949 0.25251 0.0
H1785 H 0.61436 0.65649 0.31091 0.0
H1786 H 0.45665 0.62317 0.22009 0.0
H1787 H 0.52922 0.66733 0.22693 0.0
H1788 H 0.58644 0.63724 0.30074 0.0
H1789 H 0.53846 0.69659 0.20735 0.0
H1790 H 0.45316 0.56354 0.2579 0.0
H1791 H 0.62264 0.68772 0.29423 0.0
H1792 H 0.61543 0.71215 0.2681 0.0
H1793 H 0.46956 0.55191 0.28885 0.0
H1794 H 0.59532 0.72284 0.24004 0.0
N1795 N 0.57722 0.65682 0.27729 0.0
C1796 C 0.58911 0.65049 0.2925 0.0
C1797 C 0.60996 0.67921 0.28931 0.0
C1798 C 0.5982 0.68569 0.2737 0.0
C1799 C 0.60539 0.66157 0.29871 0.0
C1800 C 0.58156 0.67427 0.26796 0.0
H1801 H 0.56729 0.71685 0.21706 0.0
N1802 N 0.55288 0.67073 0.24752 0.0
C1803 C 0.54721 0.69246 0.22004 0.0
C1804 C 0.56955 0.68099 0.25248 0.0
C1805 C 0.54211 0.67584 0.23111 0.0
C1806 C 0.56352 0.70381 0.22556 0.0
C1807 C 0.57483 0.69826 0.24193 0.0
O1808 O 0.54055 0.6337 0.23453 0.0
O1809 O 0.52212 0.61783 0.26923 0.0
O1810 O 0.53291 0.616 0.30893 0.0
O1811 O 0.56022 0.62176 0.28858 0.0
O1812 O 0.54975 0.60664 0.26377 0.0
O1813 O 0.57169 0.63456 0.24609 0.0
O1814 O 0.50042 0.62599 0.32478 0.0
O1815 O 0.53744 0.64614 0.2949 0.0
O1816 O 0.53201 0.6736 0.26825 0.0
O1817 O 0.50367 0.67019 0.28662 0.0
O1818 O 0.51889 0.66149 0.31268 0.0
O1819 O 0.4776 0.63875 0.30596 0.0
C1820 C 0.53182 0.60063 0.26732 0.0
C1821 C 0.56787 0.62647 0.21201 0.0
C1822 C 0.59694 0.61622 0.19396 0.0
C1823 C 0.58671 0.61813 0.21166 0.0
C1824 C 0.58768 0.62197 0.17629 0.0
C1825 C 0.55861 0.63196 0.19439 0.0
C1826 C 0.56851 0.62959 0.17654 0.0
C1827 C 0.55171 0.61283 0.30375 0.0
C1828 C 0.55969 0.63208 0.23099 0.0
C1829 C 0.59129 0.70942 0.2478 0.0
C1830 C 0.60278 0.70329 0.26375 0.0
C1831 C 0.53683 0.66064 0.30635 0.0
C1832 C 0.4709 0.63546 0.34018 0.0
C1833 C 0.47671 0.65141 0.35194 0.0
C1834 C 0.46645 0.65508 0.36937 0.0
C1835 C 0.4506 0.64286 0.37501 0.0
C1836 C 0.4551 0.62326 0.34584 0.0
C1837 C 0.44497 0.62698 0.36324 0.0
C1838 C 0.51642 0.68256 0.27698 0.0
C1839 C 0.48176 0.63008 0.32265 0.0
H1840 H 0.59363 0.61351 0.22532 0.0
H1841 H 0.59534 0.62089 0.16235 0.0
H1842 H 0.54416 0.63878 0.19451 0.0
H1843 H 0.56154 0.63415 0.16292 0.0
H1844 H 0.48903 0.66076 0.34765 0.0
H1845 H 0.44255 0.64571 0.38849 0.0
H1846 H 0.45078 0.61071 0.33689 0.0
H1847 H 0.43279 0.61754 0.36763 0.0
Eu1848 Eu 0.13848 0.76353 0.05346 0.0
C1849 C 0.10061 0.77826 0.98213 0.0
C1850 C 0.1108 0.74619 0.96999 0.0
C1851 C 0.08098 0.76156 0.95716 0.0
C1852 C 0.11412 0.76274 0.98212 0.0
C1853 C 0.08405 0.77789 0.96948 0.0
C1854 C 0.09424 0.74573 0.95748 0.0
C1855 C 0.07476 0.80998 0.98199 0.0
N1856 N 0.10363 0.7937 0.99444 0.0
C1857 C 0.09113 0.80953 0.99456 0.0
C1858 C 0.07114 0.79403 0.96947 0.0
Eu1859 Eu 0.1334 0.79304 1.01197 0.0
N1860 N 0.13024 0.76361 0.99415 0.0
C1861 C 0.14286 0.74807 0.99571 0.0
C1862 C 0.12415 0.73047 0.97093 0.0
C1863 C 0.1401 0.73133 0.984 0.0
H1864 H 0.09362 0.82185 1.00436 0.0
H1865 H 0.15024 0.71906 0.98512 0.0
H1866 H 0.09154 0.73316 0.94798 0.0
H1867 H 0.06487 0.8225 0.98213 0.0
H1868 H 0.15489 0.74837 1.00607 0.0
H1869 H 0.1514 0.81181 0.11796 0.0
H1870 H 0.12209 0.71747 0.96186 0.0
H1871 H 0.16528 0.72433 0.03749 0.0
H1872 H 0.13138 0.7974 0.09217 0.0
H1873 H 0.19699 0.70836 0.04571 0.0
H1874 H 0.06833 0.76099 0.94737 0.0
H1875 H 0.18526 0.80001 0.12401 0.0
H1876 H 0.21201 0.77632 0.11632 0.0
H1877 H 0.05832 0.7943 0.95989 0.0
H1878 H 0.22403 0.748 0.09747 0.0
N1879 N 0.15391 0.7777 0.08168 0.0
C1880 C 0.14617 0.79192 0.09378 0.0
C1881 C 0.17659 0.79353 0.11222 0.0
C1882 C 0.1841 0.77817 0.10077 0.0
C1883 C 0.15749 0.80023 0.10886 0.0
C1884 C 0.1724 0.77036 0.08531 0.0
H1885 H 0.21845 0.72252 0.0716 0.0
N1886 N 0.169 0.7475 0.05845 0.0
C1887 C 0.19238 0.7214 0.05363 0.0
C1888 C 0.1797 0.75457 0.07404 0.0
C1889 C 0.17442 0.73039 0.0491 0.0
C1890 C 0.20441 0.72942 0.06831 0.0
C1891 C 0.19809 0.74599 0.07885 0.0
O1892 O 0.1323 0.73211 0.05272 0.0
O1893 O 0.11563 0.7686 0.02798 0.0
O1894 O 0.11052 0.80484 0.03423 0.0
O1895 O 0.11814 0.78767 0.06338 0.0
O1896 O 0.10495 0.75529 0.05189 0.0
O1897 O 0.13135 0.74914 0.08111 0.0
O1898 O 0.12947 0.82459 1.00754 0.0
O1899 O 0.14265 0.79312 0.04252 0.0
O1900 O 0.17119 0.7664 0.03695 0.0
O1901 O 0.16783 0.78351 1.0079 0.0
O1902 O 0.16023 0.80932 0.0243 0.0
O1903 O 0.13943 0.80548 0.98305 0.0
C1904 C 0.09826 0.76253 0.03552 0.0
C1905 C 0.12497 0.71383 0.08274 0.0
C1906 C 0.11193 0.69734 0.11179 0.0
C1907 C 0.11601 0.71475 0.10135 0.0
C1908 C 0.11723 0.67904 0.10363 0.0
C1909 C 0.13013 0.69548 0.07477 0.0
C1910 C 0.12633 0.67816 0.08524 0.0
C1911 C 0.10758 0.80068 0.05323 0.0
C1912 C 0.12989 0.73196 0.07207 0.0
C1913 C 0.2097 0.75416 0.09392 0.0
C1914 C 0.20285 0.7703 0.10466 0.0
C1915 C 0.15776 0.80375 0.04223 0.0
C1916 C 0.13181 0.83913 0.97562 0.0
C1917 C 0.1457 0.85418 0.97585 0.0
C1918 C 0.14371 0.86999 0.96313 0.0
C1919 C 0.12746 0.87128 0.95039 0.0
C1920 C 0.11565 0.83983 0.96269 0.0
C1921 C 0.11333 0.85617 0.95028 0.0
C1922 C 0.18019 0.77459 0.02092 0.0
C1923 C 0.13526 0.82323 0.98928 0.0
H1924 H 0.11195 0.72891 0.10757 0.0
H1925 H 0.11449 0.66541 0.11157 0.0
H1926 H 0.1374 0.69453 0.0606 0.0
H1927 H 0.1305 0.66404 0.07913 0.0
H1928 H 0.15847 0.85335 0.98558 0.0
H1929 H 0.12605 0.88362 0.9403 0.0
H1930 H 0.10511 0.82787 0.96195 0.0
H1931 H 0.10086 0.85692 0.94031 0.0
Eu1932 Eu 0.76268 0.98144 0.63997 0.0
C1933 C 0.74708 0.05305 0.6058 0.0
C1934 C 0.77348 0.07061 0.62232 0.0
C1935 C 0.76022 0.08324 0.59146 0.0
C1936 C 0.75955 0.05508 0.62184 0.0
C1937 C 0.74726 0.06706 0.59041 0.0
C1938 C 0.77345 0.08491 0.60729 0.0
C1939 C 0.72328 0.04698 0.57313 0.0
N1940 N 0.7354 0.03685 0.60483 0.0
C1941 C 0.72417 0.03319 0.58841 0.0
C1942 C 0.73467 0.06417 0.57427 0.0
Eu1943 Eu 0.73143 0.01928 0.63459 0.0
N1944 N 0.75895 0.04114 0.63627 0.0
C1945 C 0.77341 0.04067 0.6503 0.0
C1946 C 0.78739 0.07097 0.63756 0.0
C1947 C 0.78765 0.05566 0.65133 0.0
H1948 H 0.71534 0.01992 0.5872 0.0
H1949 H 0.79885 0.05534 0.66273 0.0
H1950 H 0.78385 0.09712 0.60757 0.0
H1951 H 0.71396 0.04424 0.56044 0.0
H1952 H 0.77436 0.02876 0.66058 0.0
H1953 H 0.72295 0.91286 0.66078 0.0
H1954 H 0.79842 0.08259 0.63841 0.0
H1955 H 0.80031 1.00512 0.66346 0.0
H1956 H 0.73093 0.94001 0.6392 0.0
H1957 H 0.81977 1.00107 0.69403 0.0
H1958 H 0.76054 0.09421 0.57983 0.0
H1959 H 0.74065 0.90847 0.69218 0.0
H1960 H 0.76669 0.91964 0.71542 0.0
H1961 H 0.73416 0.07475 0.5623 0.0
H1962 H 0.79289 0.94311 0.72429 0.0
N1963 N 0.75344 0.95257 0.65797 0.0
C1964 C 0.73921 0.93903 0.65267 0.0
C1965 C 0.74448 0.92078 0.68268 0.0
C1966 C 0.75937 0.93415 0.68793 0.0
C1967 C 0.73446 0.92319 0.66497 0.0
C1968 C 0.76368 0.95021 0.67522 0.0
H1969 H 0.8126 0.97326 0.71652 0.0
N1970 N 0.78197 0.98004 0.66899 0.0
C1971 C 0.80813 0.99065 0.69048 0.0
C1972 C 0.77851 0.96383 0.68055 0.0
C1973 C 0.79711 0.9929 0.67324 0.0
C1974 C 0.80408 0.97486 0.70309 0.0
C1975 C 0.78925 0.96121 0.69822 0.0
O1976 O 0.79406 0.98423 0.6323 0.0
O1977 O 0.75813 1.0073 0.61663 0.0
O1978 O 0.71924 0.99456 0.6142 0.0
O1979 O 0.73838 0.96731 0.62219 0.0
O1980 O 0.76385 0.97987 0.60591 0.0
O1981 O 0.77778 0.9559 0.62972 0.0
O1982 O 0.70314 0.02034 0.62056 0.0
O1983 O 0.73222 0.98913 0.64514 0.0
O1984 O 0.75892 0.99696 0.67313 0.0
O1985 O 0.73877 0.02402 0.67001 0.0
O1986 O 0.71526 1.00759 0.66167 0.0
O1987 O 0.71228 0.04524 0.63847 0.0
C1988 C 0.76013 0.99747 0.59949 0.0
C1989 C 0.81166 0.95325 0.63435 0.0
C1990 C 0.82743 0.92116 0.63239 0.0
C1991 C 0.8129 0.93435 0.62625 0.0
C1992 C 0.84125 0.92721 0.64665 0.0
C1993 C 0.82575 0.95942 0.64821 0.0
C1994 C 0.84041 0.94631 0.65446 0.0
C1995 C 0.72396 0.97567 0.61202 0.0
C1996 C 0.7948 0.96519 0.62813 0.0
C1997 C 0.78485 0.94522 0.71063 0.0
C1998 C 0.76992 0.93184 0.70557 0.0
C1999 C 0.72159 0.98966 0.66029 0.0
C2000 C 0.6779 0.03989 0.63128 0.0
C2001 C 0.67148 0.04475 0.65009 0.0
C2002 C 0.6513 0.04521 0.65384 0.0
C2003 C 0.63749 0.04091 0.63899 0.0
C2004 C 0.66413 0.03569 0.61628 0.0
C2005 C 0.64395 0.03615 0.62018 0.0
C2006 C 0.74939 1.01206 0.68237 0.0
C2007 C 0.69872 0.03781 0.62683 0.0
H2008 H 0.80242 0.92993 0.61492 0.0
H2009 H 0.85268 0.91724 0.65166 0.0
H2010 H 0.82556 0.97418 0.65415 0.0
H2011 H 0.85117 0.95097 0.66534 0.0
H2012 H 0.68198 0.04806 0.66174 0.0
H2013 H 0.62177 0.04161 0.64191 0.0
H2014 H 0.66903 0.0318 0.60161 0.0
H2015 H 0.63337 0.03288 0.60865 0.0
Eu2016 Eu 0.80172 1.01227 0.39041 0.0
C2017 C 0.73371 1.00005 0.35222 0.0
C2018 C 0.71796 0.02932 0.36526 0.0
C2019 C 0.70791 0.01632 0.33337 0.0
C2020 C 0.73148 1.01368 0.3674 0.0
C2021 C 0.72202 1.00131 0.33504 0.0
C2022 C 0.70597 0.03035 0.34837 0.0
C2023 C 0.74043 0.97405 0.32146 0.0
N2024 N 0.74796 0.98615 0.35384 0.0
C2025 C 0.75167 0.97336 0.3387 0.0
C2026 C 0.72536 0.98793 0.3197 0.0
Eu2027 Eu 0.76179 0.98291 0.3855 0.0
N2028 N 0.74322 1.01231 0.38369 0.0
C2029 C 0.74324 0.02689 0.39752 0.0
C2030 C 0.7172 0.04376 0.37995 0.0
C2031 C 0.73014 0.04272 0.39595 0.0
H2032 H 0.76291 0.96219 0.33995 0.0
H2033 H 0.73005 0.05413 0.40709 0.0
H2034 H 0.69538 0.04217 0.3466 0.0
H2035 H 0.74333 0.96381 0.3096 0.0
H2036 H 0.75335 0.02668 0.40967 0.0
H2037 H 0.86706 0.96695 0.40954 0.0
H2038 H 0.70706 0.05604 0.37881 0.0
H2039 H 0.78261 0.05178 0.41421 0.0
H2040 H 0.8407 0.97765 0.38827 0.0
H2041 H 0.7896 0.07102 0.4443 0.0
H2042 H 0.69881 0.01754 0.32028 0.0
H2043 H 0.87311 0.98326 0.44132 0.0
H2044 H 0.86464 1.00964 0.46507 0.0
H2045 H 0.71675 0.98852 0.30625 0.0
H2046 H 0.84427 0.03799 0.47423 0.0
N2047 N 0.83019 1.00054 0.40763 0.0
C2048 C 0.84243 0.98546 0.40191 0.0
C2049 C 0.86114 0.98833 0.43199 0.0
C2050 C 0.84924 1.00413 0.43762 0.0
C2051 C 0.85779 0.97909 0.41404 0.0
C2052 C 0.83355 1.01004 0.42513 0.0
H2053 H 0.81664 0.06093 0.46658 0.0
N2054 N 0.80558 0.03095 0.41949 0.0
C2055 C 0.79855 0.05832 0.44074 0.0
C2056 C 0.82152 0.02591 0.43078 0.0
C2057 C 0.79472 0.04748 0.42368 0.0
C2058 C 0.81388 0.0526 0.45323 0.0
C2059 C 0.82563 0.03637 0.44832 0.0
O2060 O 0.79794 0.04325 0.38182 0.0
O2061 O 0.77556 1.00879 0.36751 0.0
O2062 O 0.78635 0.96833 0.36638 0.0
O2063 O 0.81416 0.98811 0.37178 0.0
O2064 O 0.80327 1.01267 0.35613 0.0
O2065 O 0.82776 0.029 0.38341 0.0
O2066 O 0.75562 0.95328 0.37506 0.0
O2067 O 0.79181 0.98245 0.39621 0.0
O2068 O 0.78577 1.00984 0.42322 0.0
O2069 O 0.75712 0.99179 0.42029 0.0
O2070 O 0.77267 0.96611 0.4127 0.0
O2071 O 0.7323 0.97015 0.38945 0.0
C2072 C 0.78518 1.01001 0.35024 0.0
C2073 C 0.82716 0.06311 0.37354 0.0
C2074 C 0.85588 0.07918 0.3592 0.0
C2075 C 0.84595 0.06199 0.36496 0.0
C2076 C 0.84694 0.09763 0.36227 0.0
C2077 C 0.81832 0.08154 0.37648 0.0
C2078 C 0.82826 0.09876 0.3709 0.0
C2079 C 0.80523 0.97304 0.36302 0.0
C2080 C 0.81731 0.04498 0.37993 0.0
C2081 C 0.84115 0.03029 0.46058 0.0
C2082 C 0.85275 1.01414 0.45536 0.0
C2083 C 0.79084 0.9719 0.41142 0.0
C2084 C 0.72605 0.93633 0.38192 0.0
C2085 C 0.72668 0.92606 0.39969 0.0
C2086 C 0.7164 0.90826 0.4013 0.0
C2087 C 0.70587 0.90059 0.38515 0.0
C2088 C 0.71569 0.92869 0.36571 0.0
C2089 C 0.70561 0.9108 0.36734 0.0
C2090 C 0.76992 1.00155 0.43246 0.0
C2091 C 0.73695 0.95449 0.3793 0.0
H2092 H 0.85278 0.04774 0.36252 0.0
H2093 H 0.8545 0.11117 0.3582 0.0
H2094 H 0.80392 0.08263 0.38332 0.0
H2095 H 0.82153 0.11301 0.37335 0.0
H2096 H 0.735 0.93185 0.41211 0.0
H2097 H 0.69801 0.88665 0.38633 0.0
H2098 H 0.71554 0.93652 0.35177 0.0
H2099 H 0.69766 0.90483 0.35483 0.0
Eu2100 Eu 0.76209 0.0482 0.14258 0.0
C2101 C 0.78052 0.97921 0.10521 0.0
C2102 C 0.75189 0.962 0.11815 0.0
C2103 C 0.76782 0.95024 0.08829 0.0
C2104 C 0.76625 0.97703 0.11976 0.0
C2105 C 0.78148 0.96585 0.08935 0.0
C2106 C 0.75295 0.94843 0.10254 0.0
C2107 C 0.80818 0.98544 0.07578 0.0
N2108 N 0.79302 0.99483 0.10622 0.0
C2109 C 0.80638 0.99851 0.09157 0.0
C2110 C 0.79588 0.96884 0.07482 0.0
Eu2111 Eu 0.7936 1.01117 0.13662 0.0
N2112 N 0.76586 0.99013 0.13493 0.0
C2113 C 0.75053 0.99017 0.14791 0.0
C2114 C 0.73667 0.96131 0.13206 0.0
C2115 C 0.73579 0.97568 0.14677 0.0
H2116 H 0.81621 1.0111 0.09233 0.0
H2117 H 0.72377 0.9756 0.15725 0.0
H2118 H 0.74217 0.93663 0.10121 0.0
H2119 H 0.81908 0.98814 0.06442 0.0
H2120 H 0.74947 1.00134 0.15905 0.0
H2121 H 0.80525 0.1151 0.16341 0.0
H2122 H 0.72528 0.95004 0.13128 0.0
H2123 H 0.72405 0.02615 0.16679 0.0
H2124 H 0.79804 0.08673 0.14363 0.0
H2125 H 0.7045 0.03168 0.19686 0.0
H2126 H 0.76832 0.93979 0.07624 0.0
H2127 H 0.7866 0.12148 0.19375 0.0
H2128 H 0.76035 0.11146 0.21703 0.0
H2129 H 0.79721 0.9588 0.06249 0.0
H2130 H 0.73352 0.08893 0.22628 0.0
N2131 N 0.77287 0.07686 0.16051 0.0
C2132 C 0.78832 0.08926 0.15576 0.0
C2133 C 0.78258 0.10899 0.18459 0.0
C2134 C 0.7673 0.09617 0.18995 0.0
C2135 C 0.7931 0.10549 0.16746 0.0
C2136 C 0.7626 0.07995 0.17758 0.0
H2137 H 0.71276 0.05946 0.21894 0.0
N2138 N 0.74344 0.05056 0.17192 0.0
C2139 C 0.7166 0.04153 0.19325 0.0
C2140 C 0.74743 0.06685 0.18317 0.0
C2141 C 0.72764 0.03851 0.17622 0.0
C2142 C 0.72129 0.05727 0.20564 0.0
C2143 C 0.7367 0.0702 0.20067 0.0
O2144 O 0.73113 0.04255 0.13467 0.0
O2145 O 0.76734 0.0236 0.11813 0.0
O2146 O 0.80523 0.03704 0.11688 0.0
O2147 O 0.78468 0.06337 0.12468 0.0
O2148 O 0.76054 0.05124 0.10839 0.0
O2149 O 0.74384 0.07321 0.13673 0.0
O2150 O 0.82464 1.00964 0.12792 0.0
O2151 O 0.79291 0.04085 0.14792 0.0
O2152 O 0.76573 0.03274 0.17514 0.0
O2153 O 0.78441 1.00499 0.17134 0.0
O2154 O 0.80838 0.02136 0.16477 0.0
O2155 O 0.80977 0.98376 0.14123 0.0
C2156 C 0.76506 0.03402 0.10129 0.0
C2157 C 0.70962 0.07081 0.12801 0.0
C2158 C 0.69276 0.10041 0.11689 0.0
C2159 C 0.71 0.08926 0.11873 0.0
C2160 C 0.67479 0.09234 0.12368 0.0
C2161 C 0.69168 0.06276 0.13445 0.0
C2162 C 0.67427 0.07351 0.13216 0.0
C2163 C 0.79983 0.05595 0.11505 0.0
C2164 C 0.7283 0.06185 0.13367 0.0
C2165 C 0.74153 0.08629 0.21274 0.0
C2166 C 0.75679 0.09915 0.20745 0.0
C2167 C 0.80324 0.03962 0.1633 0.0
C2168 C 0.84369 0.98004 0.13167 0.0
C2169 C 0.8548 0.97684 0.14862 0.0
C2170 C 0.8726 0.96677 0.14727 0.0
C2171 C 0.87931 0.95979 0.12905 0.0
C2172 C 0.8504 0.9734 0.11333 0.0
C2173 C 0.8682 0.96317 0.11207 0.0
C2174 C 0.77442 0.01709 0.18393 0.0
C2175 C 0.82564 0.9912 0.13317 0.0
H2176 H 0.72395 0.09514 0.11342 0.0
H2177 H 0.66122 0.10071 0.12286 0.0
H2178 H 0.69126 0.04865 0.14199 0.0
H2179 H 0.66044 0.06751 0.13753 0.0
H2180 H 0.84976 0.98236 0.16274 0.0
H2181 H 0.89322 0.952 0.128 0.0
H2182 H 0.84196 0.97613 0.10007 0.0
H2183 H 0.87344 0.95798 0.09796 0.0
Eu2184 Eu 0.72799 0.01759 0.89071 0.0
C2185 C 0.79268 0.0321 0.85011 0.0
C2186 C 0.8078 1.00214 0.86255 0.0
C2187 C 0.81537 1.01368 0.82946 0.0
C2188 C 0.79536 0.01855 0.8653 0.0
C2189 C 0.80252 0.02966 0.83197 0.0
C2190 C 0.81799 0.99995 0.84469 0.0
C2191 C 0.78496 0.05804 0.81943 0.0
N2192 N 0.77964 0.04703 0.85266 0.0
C2193 C 0.77553 0.05987 0.8376 0.0
C2194 C 0.79862 0.04295 0.81663 0.0
Eu2195 Eu 0.76588 0.04966 0.88454 0.0
N2196 N 0.78495 0.02074 0.8823 0.0
C2197 C 0.7859 1.00686 0.89682 0.0
C2198 C 0.80925 0.98812 0.87765 0.0
C2199 C 0.79812 0.99041 0.89477 0.0
H2200 H 0.76527 0.07187 0.83962 0.0
H2201 H 0.79887 0.97945 0.90637 0.0
H2202 H 0.82766 0.98747 0.84237 0.0
H2203 H 0.7817 0.06828 0.80762 0.0
H2204 H 0.77718 1.00819 0.90992 0.0
H2205 H 0.6568 0.05617 0.90404 0.0
H2206 H 0.81862 0.97529 0.87607 0.0
H2207 H 0.7486 0.98017 0.91682 0.0
H2208 H 0.68359 0.04533 0.88363 0.0
H2209 H 0.74183 0.96154 0.94727 0.0
H2210 H 0.82302 1.01155 0.81563 0.0
H2211 H 0.65247 0.04276 0.93748 0.0
H2212 H 0.6626 0.01878 0.96314 0.0
H2213 H 0.80577 0.04145 0.80245 0.0
H2214 H 0.68453 0.99228 0.9742 0.0
N2215 N 0.69717 0.02676 0.90563 0.0
C2216 C 0.68314 0.03944 0.89827 0.0
C2217 C 0.6649 0.038 0.92866 0.0
C2218 C 0.67801 0.02374 0.93562 0.0
C2219 C 0.6673 0.0456 0.90982 0.0
C2220 C 0.69433 0.01831 0.92379 0.0
H2221 H 0.71343 0.97053 0.96812 0.0
N2222 N 0.72371 0.99914 0.91997 0.0
C2223 C 0.73207 0.97335 0.94279 0.0
C2224 C 0.70729 1.00368 0.93063 0.0
C2225 C 0.73571 0.98379 0.92544 0.0
C2226 C 0.71599 0.97846 0.95449 0.0
C2227 C 0.70343 0.99375 0.94855 0.0
O2228 O 0.73752 0.98717 0.88304 0.0
O2229 O 0.75287 0.02316 0.86679 0.0
O2230 O 0.74102 0.0622 0.86419 0.0
O2231 O 0.71448 0.04183 0.87301 0.0
O2232 O 0.72492 0.01812 0.85629 0.0
O2233 O 0.70582 0.99639 0.88508 0.0
O2234 O 0.78055 0.07625 0.87408 0.0
O2235 O 0.74058 0.04406 0.90314 0.0
O2236 O 0.74284 0.02202 0.92396 0.0
O2237 O 0.76936 0.04269 0.92052 0.0
O2238 O 0.74354 0.07272 0.89277 0.0
O2239 O 0.79067 0.06275 0.90098 0.0
C2240 C 0.74274 0.0215 0.84981 0.0
C2241 C 0.7107 0.96326 0.87514 0.0
C2242 C 0.68188 0.94499 0.86368 0.0
C2243 C 0.69159 0.96285 0.86719 0.0
C2244 C 0.69197 0.92721 0.86717 0.0
C2245 C 0.72072 0.94555 0.87857 0.0
C2246 C 0.71137 0.92755 0.87442 0.0
C2247 C 0.72206 0.05672 0.8628 0.0
C2248 C 0.71861 0.98227 0.88168 0.0
C2249 C 0.68741 0.99947 0.96022 0.0
C2250 C 0.67494 0.01459 0.95392 0.0
C2251 C 0.73326 0.06115 0.90375 0.0
C2252 C 0.78832 0.09752 0.89986 0.0
C2253 C 0.80352 0.10513 0.91154 0.0
C2254 C 0.80083 0.12303 0.92135 0.0
C2255 C 0.78277 0.13304 0.92012 0.0
C2256 C 0.77065 0.10833 0.89771 0.0
C2257 C 0.76775 0.12572 0.90819 0.0
C2258 C 0.75786 0.03183 0.93319 0.0
C2259 C 0.79099 0.0785 0.88989 0.0
H2260 H 0.684 0.97658 0.86407 0.0
H2261 H 0.68478 0.91311 0.86466 0.0
H2262 H 0.73541 0.94563 0.88493 0.0
H2263 H 0.719 0.91382 0.87727 0.0
H2264 H 0.81754 0.09748 0.91256 0.0
H2265 H 0.78075 0.14706 0.92753 0.0
H2266 H 0.75918 0.10373 0.88764 0.0
H2267 H 0.75411 0.13386 0.90655 0.0
Eu2268 Eu 0.64041 0.7279 1.01332 0.0
C2269 C 0.67657 0.7975 0.99101 0.0
C2270 C 0.66455 0.81315 0.02059 0.0
C2271 C 0.69491 0.82488 1.00545 0.0
C2272 C 0.66231 0.79902 1.00546 0.0
C2273 C 0.69307 0.81037 0.99088 0.0
C2274 C 0.68071 0.82624 0.02032 0.0
C2275 C 0.7053 0.79311 0.96241 0.0
N2276 N 0.67476 0.78296 0.97752 0.0
C2277 C 0.68897 0.78049 0.96341 0.0
C2278 C 0.70739 0.80813 0.97623 0.0
Eu2279 Eu 0.64534 0.76386 0.97806 0.0
N2280 N 0.64695 0.78595 1.00543 0.0
C2281 C 0.63448 0.78527 0.0212 0.0
C2282 C 0.65087 0.8133 0.03595 0.0
C2283 C 0.63597 0.79906 0.03642 0.0
H2284 H 0.68826 0.76844 0.95306 0.0
H2285 H 0.62579 0.79847 0.04868 0.0
H2286 H 0.68256 0.83723 0.03176 0.0
H2287 H 0.71643 0.79098 0.9512 0.0
H2288 H 0.62368 0.77391 0.0227 0.0
H2289 H 0.62475 0.66007 0.97029 0.0
H2290 H 0.65211 0.82386 0.04787 0.0
H2291 H 0.61474 0.74697 0.05204 0.0
H2292 H 0.64554 0.68669 0.98189 0.0
H2293 H 0.58253 0.74138 0.06819 0.0
H2294 H 0.70744 0.8349 1.00556 0.0
H2295 H 0.59106 0.65575 0.98311 0.0
H2296 H 0.56457 0.66648 1.00576 0.0
H2297 H 0.72023 0.81773 0.97563 0.0
H2298 H 0.55308 0.68834 0.03202 0.0
N2299 N 0.62393 0.69894 1.00163 0.0
C2300 C 0.63102 0.68565 0.98812 0.0
C2301 C 0.60016 0.66778 0.98855 0.0
C2302 C 0.59312 0.68076 1.00285 0.0
C2303 C 0.6192 0.67015 0.98131 0.0
C2304 C 0.60539 0.69648 1.00933 0.0
H2305 H 0.55969 0.71588 0.0554 0.0
N2306 N 0.60993 0.72491 0.03009 0.0
C2307 C 0.58677 0.73245 0.05571 0.0
C2308 C 0.59851 0.7093 0.02408 0.0
C2309 C 0.60502 0.73545 0.04665 0.0
C2310 C 0.57393 0.71801 0.04844 0.0
C2311 C 0.5798 0.70604 0.03272 0.0
O2312 O 0.64674 0.72973 0.04454 0.0
O2313 O 0.66395 0.75111 1.00302 0.0
O2314 O 0.6667 0.73864 0.96915 0.0
O2315 O 0.66177 0.71367 0.99244 0.0
O2316 O 0.67277 0.73431 0.02481 0.0
O2317 O 0.64743 0.70067 0.02866 0.0
O2318 O 0.65481 0.76033 0.94825 0.0
O2319 O 0.6352 0.73334 0.98195 0.0
O2320 O 0.60805 0.74533 1.01031 0.0
O2321 O 0.61053 0.76975 0.98681 0.0
O2322 O 0.61673 0.75124 0.9661 0.0
O2323 O 0.641 0.78803 0.95663 0.0
C2324 C 0.68061 0.74681 1.01264 0.0
C2325 C 0.65409 0.70048 0.0638 0.0
C2326 C 0.66845 0.67254 0.08103 0.0
C2327 C 0.66456 0.6827 0.06346 0.0
C2328 C 0.66166 0.68042 0.09896 0.0
C2329 C 0.64761 0.70828 0.08175 0.0
C2330 C 0.65137 0.69822 0.09927 0.0
C2331 C 0.67072 0.72088 0.97665 0.0
C2332 C 0.64915 0.7104 0.04538 0.0
C2333 C 0.56759 0.69079 0.02575 0.0
C2334 C 0.57417 0.67831 1.01081 0.0
C2335 C 0.61906 0.73345 0.9726 0.0
C2336 C 0.64315 0.77938 0.92206 0.0
C2337 C 0.63021 0.79422 0.91601 0.0
C2338 C 0.62696 0.79722 0.89594 0.0
C2339 C 0.63628 0.78537 0.88188 0.0
C2340 C 0.65244 0.76742 0.90787 0.0
C2341 C 0.64892 0.77039 0.88788 0.0
C2342 C 0.59859 0.75943 0.99944 0.0
C2343 C 0.64941 0.77781 0.9426 0.0
H2344 H 0.66978 0.67686 0.04956 0.0
H2345 H 0.66404 0.67267 0.11272 0.0
H2346 H 0.6393 0.72191 0.08218 0.0
H2347 H 0.64612 0.70412 0.11309 0.0
H2348 H 0.62319 0.80376 0.9267 0.0
H2349 H 0.63376 0.78776 0.86628 0.0
H2350 H 0.66288 0.75612 0.91219 0.0
H2351 H 0.65625 0.7613 0.87704 0.0
Eu2352 Eu 0.05001 0.13785 0.76469 0.0
C2353 C 0.98624 0.09612 0.78479 0.0
C2354 C 0.97104 0.10165 0.75279 0.0
C2355 C 0.96587 0.07046 0.76999 0.0
C2356 C 0.9829 0.10832 0.7685 0.0
C2357 C 0.97774 0.07709 0.78563 0.0
C2358 C 0.9625 0.08271 0.75366 0.0
C2359 C 0.99312 0.07256 0.81752 0.0
N2360 N 0.99797 0.10273 0.79966 0.0
C2361 C 1.00105 0.0916 0.81617 0.0
C2362 C 0.98151 0.06521 0.80214 0.0
Eu2363 Eu 1.00989 0.13504 0.79556 0.0
N2364 N 0.9916 0.1265 0.76778 0.0
C2365 C 0.98914 0.13875 0.7521 0.0
C2366 C 0.96826 0.11419 0.73658 0.0
C2367 C 0.97738 0.13279 0.73622 0.0
H2368 H 1.00943 0.09741 0.82844 0.0
H2369 H 0.97535 0.14251 0.72372 0.0
H2370 H 0.95335 0.07732 0.74169 0.0
H2371 H 0.99581 0.06364 0.83049 0.0
H2372 H 0.99625 0.15307 0.75187 0.0
H2373 H 0.1259 0.11883 0.78746 0.0
H2374 H 0.9592 0.10961 0.72422 0.0
H2375 H 0.03979 0.17186 0.72875 0.0
H2376 H 0.09116 0.11175 0.77863 0.0
H2377 H 0.05381 0.20271 0.71578 0.0
H2378 H 0.95927 0.05585 0.77035 0.0
H2379 H 0.13961 0.15237 0.78307 0.0
H2380 H 0.13534 0.18671 0.76968 0.0
H2381 H 0.97537 0.05045 0.80324 0.0
H2382 H 0.1155 0.20984 0.74993 0.0
N2383 N 0.08491 0.14143 0.77008 0.0
C2384 C 0.09694 0.12654 0.77659 0.0
C2385 C 0.12437 0.14939 0.7791 0.0
C2386 C 0.11269 0.16394 0.77036 0.0
C2387 C 0.11664 0.13043 0.78163 0.0
C2388 C 0.09292 0.15929 0.76555 0.0
H2389 H 0.08548 0.2155 0.72889 0.0
N2390 N 0.06364 0.1664 0.74868 0.0
C2391 C 0.06184 0.19438 0.72679 0.0
C2392 C 0.08183 0.17227 0.75458 0.0
C2393 C 0.05413 0.1766 0.73396 0.0
C2394 C 0.07962 0.20161 0.73433 0.0
C2395 C 0.09014 0.19027 0.74798 0.0
O2396 O 0.03729 0.1365 0.73452 0.0
O2397 O 0.02465 0.11485 0.77184 0.0
O2398 O 0.03394 0.11685 0.81077 0.0
O2399 O 0.06207 0.12768 0.79372 0.0
O2400 O 0.05297 0.1041 0.77103 0.0
O2401 O 0.06181 0.11813 0.74336 0.0
O2402 O 0.99957 0.13671 0.82531 0.0
O2403 O 0.03531 0.15263 0.78884 0.0
O2404 O 0.03596 0.17211 0.76709 0.0
O2405 O 1.00721 0.16974 0.78483 0.0
O2406 O 0.0289 0.14958 0.81862 0.0
O2407 O 0.97965 0.14525 0.80149 0.0
C2408 C 0.03485 0.09795 0.77307 0.0
C2409 C 0.06455 0.13054 0.71191 0.0
C2410 C 0.09723 0.1283 0.69655 0.0
C2411 C 0.08357 0.12205 0.71068 0.0
C2412 C 0.09158 0.14291 0.68298 0.0
C2413 C 0.05908 0.14486 0.69803 0.0
C2414 C 0.07261 0.15105 0.68371 0.0
C2415 C 0.05336 0.11842 0.80856 0.0
C2416 C 0.05168 0.12495 0.72866 0.0
C2417 C 0.10909 0.19583 0.75438 0.0
C2418 C 0.12038 0.18265 0.76558 0.0
C2419 C 0.04072 0.15769 0.80612 0.0
C2420 C 0.96648 0.13736 0.83334 0.0
C2421 C 0.96348 0.14936 0.84966 0.0
C2422 C 0.95311 0.14234 0.86596 0.0
C2423 C 0.94434 0.12348 0.86519 0.0
C2424 C 0.95805 0.11845 0.83259 0.0
C2425 C 0.94668 0.11168 0.84843 0.0
C2426 C 0.01994 0.18179 0.77484 0.0
C2427 C 0.98235 0.14359 0.82048 0.0
H2428 H 0.08791 0.11044 0.72081 0.0
H2429 H 0.10184 0.14802 0.67184 0.0
H2430 H 0.04456 0.15148 0.69846 0.0
H2431 H 0.06842 0.16231 0.67319 0.0
H2432 H 0.97032 0.1639 0.85011 0.0
H2433 H 0.93618 0.11772 0.87766 0.0
H2434 H 0.9608 0.1088 0.82021 0.0
H2435 H 0.94026 0.09701 0.84802 0.0
Eu2436 Eu 0.88861 0.3012 0.51321 0.0
C2437 C 0.84473 0.23669 0.50153 0.0
C2438 C 0.85698 0.22102 0.53134 0.0
C2439 C 0.824 0.21324 0.5192 0.0
C2440 C 0.85994 0.23379 0.5152 0.0
C2441 C 0.82656 0.22659 0.50358 0.0
C2442 C 0.8391 0.21054 0.53307 0.0
C2443 C 0.81388 0.24516 0.47588 0.0
N2444 N 0.84734 0.25009 0.48682 0.0
C2445 C 0.83209 0.2548 0.47431 0.0
C2446 C 0.81118 0.2308 0.49039 0.0
Eu2447 Eu 0.88024 0.26168 0.48372 0.0
N2448 N 0.87718 0.24413 0.51329 0.0
C2449 C 0.89168 0.2429 0.52716 0.0
C2450 C 0.87199 0.21938 0.54547 0.0
C2451 C 0.8893 0.23053 0.54348 0.0
H2452 H 0.83422 0.26518 0.4624 0.0
H2453 H 0.90086 0.22951 0.55447 0.0
H2454 H 0.83667 0.20054 0.54531 0.0
H2455 H 0.802 0.24869 0.46578 0.0
H2456 H 0.90506 0.25139 0.52575 0.0
H2457 H 0.90945 0.36995 0.47363 0.0
H2458 H 0.87024 0.20976 0.55812 0.0
H2459 H 0.91215 0.27773 0.55069 0.0
H2460 H 0.88712 0.34358 0.48254 0.0
H2461 H 0.94257 0.2822 0.5703 0.0
H2462 H 0.81016 0.20534 0.521 0.0
H2463 H 0.94167 0.37345 0.49019 0.0
H2464 H 0.96512 0.36219 0.51588 0.0
H2465 H 0.79699 0.22343 0.49162 0.0
H2466 H 0.97365 0.33925 0.54246 0.0
N2467 N 0.90658 0.33012 0.50373 0.0
C2468 C 0.90108 0.34398 0.49002 0.0
C2469 C 0.93194 0.36136 0.49423 0.0
C2470 C 0.93718 0.348 0.50903 0.0
C2471 C 0.91377 0.35943 0.48486 0.0
C2472 C 0.92417 0.33222 0.51361 0.0
H2473 H 0.96535 0.30979 0.56283 0.0
N2474 N 0.91761 0.30282 0.53242 0.0
C2475 C 0.93907 0.2925 0.55861 0.0
C2476 C 0.9294 0.31882 0.52863 0.0
C2477 C 0.92183 0.29009 0.54757 0.0
C2478 C 0.95185 0.30814 0.55437 0.0
C2479 C 0.94715 0.3215 0.53932 0.0
O2480 O 0.88082 0.29594 0.5442 0.0
O2481 O 0.86439 0.27614 0.51004 0.0
O2482 O 0.861 0.28735 0.46993 0.0
O2483 O 0.87207 0.3145 0.48822 0.0
O2484 O 0.85414 0.30435 0.51274 0.0
O2485 O 0.88298 0.3264 0.53133 0.0
O2486 O 0.86674 0.24153 0.46326 0.0
O2487 O 0.89964 0.28658 0.48696 0.0
O2488 O 0.92126 0.2856 0.50879 0.0
O2489 O 0.91616 0.25728 0.4912 0.0
O2490 O 0.88918 0.28154 0.45836 0.0
O2491 O 0.89732 0.23766 0.47 0.0
C2492 C 0.84758 0.28637 0.51104 0.0
C2493 C 0.87411 0.32451 0.56546 0.0
C2494 C 0.86091 0.35301 0.58279 0.0
C2495 C 0.86493 0.34307 0.56518 0.0
C2496 C 0.86634 0.34414 0.60077 0.0
C2497 C 0.87917 0.31575 0.58346 0.0
C2498 C 0.87533 0.32561 0.60105 0.0
C2499 C 0.86088 0.30674 0.47419 0.0
C2500 C 0.87978 0.31525 0.54689 0.0
C2501 C 0.95988 0.33716 0.53455 0.0
C2502 C 0.95502 0.35021 0.51937 0.0
C2503 C 0.90061 0.29236 0.46927 0.0
C2504 C 0.88589 0.23125 0.43731 0.0
C2505 C 0.90481 0.22815 0.42983 0.0
C2506 C 0.90765 0.22805 0.40953 0.0
C2507 C 0.89171 0.23074 0.39658 0.0
C2508 C 0.86982 0.23364 0.4242 0.0
C2509 C 0.8728 0.23346 0.40394 0.0
C2510 C 0.92956 0.2694 0.50049 0.0
C2511 C 0.88267 0.23248 0.4586 0.0
H2512 H 0.86079 0.34972 0.55123 0.0
H2513 H 0.86382 0.35162 0.61462 0.0
H2514 H 0.88653 0.30158 0.58387 0.0
H2515 H 0.87953 0.31898 0.61494 0.0
H2516 H 0.91727 0.22586 0.43965 0.0
H2517 H 0.89389 0.23026 0.38077 0.0
H2518 H 0.85492 0.23578 0.42956 0.0
H2519 H 0.86045 0.23533 0.39397 0.0
Eu2520 Eu 0.50876 0.89607 0.80028 0.0
C2521 C 0.56996 0.85099 0.75779 0.0
C2522 C 0.59887 0.84663 0.7788 0.0
C2523 C 0.59076 0.82191 0.75422 0.0
C2524 C 0.58235 0.85803 0.77296 0.0
C2525 C 0.57452 0.83312 0.74807 0.0
C2526 C 0.60279 0.82857 0.76956 0.0
C2527 C 0.54687 0.83861 0.72615 0.0
N2528 N 0.55347 0.86136 0.7525 0.0
C2529 C 0.54268 0.85607 0.73615 0.0
C2530 C 0.56264 0.82694 0.73232 0.0
Eu2531 Eu 0.54956 0.89142 0.76969 0.0
N2532 N 0.57848 0.8757 0.78198 0.0
C2533 C 0.59067 0.88247 0.7967 0.0
C2534 C 0.61107 0.85354 0.79392 0.0
C2535 C 0.60694 0.87145 0.80286 0.0
H2536 H 0.53031 0.86497 0.73143 0.0
H2537 H 0.61627 0.8767 0.81469 0.0
H2538 H 0.61528 0.81967 0.77409 0.0
H2539 H 0.53791 0.83413 0.7137 0.0
H2540 H 0.58821 0.8961 0.8043 0.0
H2541 H 0.47882 0.87229 0.72868 0.0
H2542 H 0.6237 0.84508 0.79888 0.0
H2543 H 0.50788 0.94181 0.82006 0.0
H2544 H 0.50072 0.87057 0.7571 0.0
H2545 H 0.48918 0.97238 0.8164 0.0
H2546 H 0.59421 0.80803 0.74712 0.0
H2547 H 0.45651 0.90077 0.72449 0.0
H2548 H 0.44528 0.93387 0.7362 0.0
H2549 H 0.56572 0.8133 0.72461 0.0
H2550 H 0.44843 0.96125 0.75974 0.0
N2551 N 0.48994 0.89673 0.77065 0.0
C2552 C 0.49059 0.88258 0.75634 0.0
C2553 C 0.46586 0.89985 0.73744 0.0
C2554 C 0.46623 0.91504 0.75133 0.0
C2555 C 0.47837 0.88373 0.73978 0.0
C2556 C 0.47872 0.91316 0.7679 0.0
H2557 H 0.46489 0.97584 0.78941 0.0
N2558 N 0.49376 0.92716 0.79589 0.0
C2559 C 0.48651 0.96022 0.80638 0.0
C2560 C 0.48065 0.92877 0.78094 0.0
C2561 C 0.49701 0.94267 0.80844 0.0
C2562 C 0.47285 0.9621 0.79115 0.0
C2563 C 0.46992 0.94638 0.77808 0.0
O2564 O 0.50538 0.90824 0.82911 0.0
O2565 O 0.5391 0.88601 0.79962 0.0
O2566 O 0.5334 0.85831 0.77297 0.0
O2567 O 0.50487 0.86085 0.79133 0.0
O2568 O 0.52026 0.86919 0.81645 0.0
O2569 O 0.48148 0.89036 0.81753 0.0
O2570 O 0.54683 0.89757 0.73848 0.0
O2571 O 0.52497 0.91439 0.77687 0.0
O2572 O 0.53402 0.91565 0.81331 0.0
O2573 O 0.56154 0.91193 0.7927 0.0
O2574 O 0.54687 0.92515 0.7609 0.0
O2575 O 0.57636 0.89859 0.75374 0.0
C2576 C 0.53827 0.87095 0.81047 0.0
C2577 C 0.48441 0.89581 0.85278 0.0
C2578 C 0.47782 0.87263 0.87914 0.0
C2579 C 0.4794 0.87663 0.85891 0.0
C2580 C 0.48106 0.88767 0.89302 0.0
C2581 C 0.4874 0.91075 0.86688 0.0
C2582 C 0.48579 0.90667 0.88688 0.0
C2583 C 0.51776 0.84876 0.78157 0.0
C2584 C 0.48785 0.9012 0.83219 0.0
C2585 C 0.45687 0.9479 0.76211 0.0
C2586 C 0.45505 0.93228 0.74875 0.0
C2587 C 0.53127 0.93179 0.76969 0.0
C2588 C 0.5758 0.9046 0.71841 0.0
C2589 C 0.59527 0.91182 0.71818 0.0
C2590 C 0.60537 0.91382 0.70031 0.0
C2591 C 0.59581 0.90888 0.68261 0.0
C2592 C 0.56632 0.89993 0.70061 0.0
C2593 C 0.57631 0.90211 0.68279 0.0
C2594 C 0.55249 0.92014 0.80789 0.0
C2595 C 0.56623 0.8998 0.73713 0.0
H2596 H 0.47692 0.86501 0.84822 0.0
H2597 H 0.47949 0.88475 0.90865 0.0
H2598 H 0.49128 0.92564 0.86237 0.0
H2599 H 0.48816 0.91824 0.89761 0.0
H2600 H 0.60278 0.91538 0.73186 0.0
H2601 H 0.60337 0.91049 0.66864 0.0
H2602 H 0.5514 0.89404 0.7005 0.0
H2603 H 0.569 0.89832 0.66911 0.0
Eu2604 Eu 0.97998 0.14263 0.26766 0.0
C2605 C 0.02735 0.09767 0.32416 0.0
C2606 C 1.00702 0.09563 0.35368 0.0
C2607 C 0.02826 0.06828 0.3449 0.0
C2608 C 1.01332 0.10622 0.33679 0.0
C2609 C 0.03562 0.07912 0.3289 0.0
C2610 C 1.01384 0.07639 0.35708 0.0
C2611 C 0.05864 0.08333 0.302 0.0
N2612 N 0.03368 0.1077 0.30785 0.0
C2613 C 0.04992 0.10143 0.29754 0.0
C2614 C 0.05122 0.07196 0.31747 0.0
Eu2615 Eu 0.0173 0.13793 0.30223 0.0
N2616 N 1.00722 0.12525 0.33368 0.0
C2617 C 0.99743 0.13502 0.34847 0.0
C2618 C 0.99487 0.10498 0.36737 0.0
C2619 C 0.99068 0.12492 0.36511 0.0
H2620 H 0.05536 0.10992 0.28517 0.0
H2621 H 0.98229 0.13262 0.37626 0.0
H2622 H 1.00878 0.06802 0.36974 0.0
H2623 H 0.07095 0.07806 0.29336 0.0
H2624 H 0.9946 0.15064 0.34804 0.0
H2625 H 0.04925 0.12804 0.22939 0.0
H2626 H 0.98965 0.09725 0.38036 0.0
H2627 H 0.95061 0.18214 0.26605 0.0
H2628 H 0.02304 0.12192 0.25373 0.0
H2629 H 0.94543 0.21121 0.24463 0.0
H2630 H 0.034 0.05374 0.34829 0.0
H2631 H 0.04738 0.15721 0.20747 0.0
H2632 H 0.02941 0.1879 0.19706 0.0
H2633 H 0.05788 0.05779 0.32071 0.0
H2634 H 1.00124 0.21037 0.20108 0.0
N2635 N 1.00614 0.14688 0.24533 0.0
C2636 C 0.02183 0.13443 0.24408 0.0
C2637 C 0.03572 0.15448 0.21805 0.0
C2638 C 0.01976 0.16744 0.21971 0.0
C2639 C 0.03682 0.13798 0.23038 0.0
C2640 C 1.00504 0.16328 0.23377 0.0
H2641 H 0.96967 0.21899 0.21844 0.0
N2642 N 0.97607 0.17249 0.25071 0.0
C2643 C 0.95778 0.20147 0.24204 0.0
C2644 C 0.98942 0.17628 0.23636 0.0
C2645 C 0.96055 0.18482 0.25392 0.0
C2646 C 0.97153 0.20582 0.22733 0.0
C2647 C 0.98773 0.1933 0.2245 0.0
O2648 O 0.9482 0.14099 0.26623 0.0
O2649 O 0.98915 0.12482 0.29296 0.0
O2650 O 1.01372 0.10534 0.2862 0.0
O2651 O 0.98847 0.1076 0.26377 0.0
O2652 O 0.96065 0.13636 0.29371 0.0
O2653 O 0.96514 0.13173 0.24079 0.0
O2654 O 0.04924 0.14405 0.29778 0.0
O2655 O 1.00599 0.16137 0.27924 0.0
O2656 O 0.97399 0.16724 0.28992 0.0
O2657 O 0.99474 0.15754 0.31571 0.0
O2658 O 0.02747 0.1708 0.29611 0.0
O2659 O 0.03431 0.14464 0.3273 0.0
C2660 C 0.9733 0.12552 0.3028 0.0
C2661 C 0.93122 0.14105 0.23607 0.0
C2662 C 0.905 0.132 0.21338 0.0
C2663 C 0.92311 0.12782 0.2225 0.0
C2664 C 0.89586 0.15031 0.21677 0.0
C2665 C 0.92122 0.15874 0.24014 0.0
C2666 C 0.90408 0.16366 0.22998 0.0
C2667 C 1.00167 0.09578 0.27321 0.0
C2668 C 0.9476 0.13416 0.2484 0.0
C2669 C 1.00221 0.19731 0.21027 0.0
C2670 C 0.01823 0.18448 0.20796 0.0
C2671 C 0.0154 0.17833 0.28337 0.0
C2672 C 0.06806 0.15381 0.32772 0.0
C2673 C 0.06542 0.16277 0.34614 0.0
C2674 C 0.08163 0.16913 0.35704 0.0
C2675 C 0.10076 0.16663 0.34953 0.0
C2676 C 0.08715 0.1512 0.32026 0.0
C2677 C 0.10347 0.15763 0.3312 0.0
C2678 C 0.98098 0.16903 0.30815 0.0
C2679 C 0.05068 0.14667 0.31709 0.0
H2680 H 0.93019 0.11368 0.22009 0.0
H2681 H 0.8817 0.15382 0.21022 0.0
H2682 H 0.92569 0.16828 0.25192 0.0
H2683 H 0.89651 0.17731 0.23324 0.0
H2684 H 0.05073 0.16494 0.35212 0.0
H2685 H 0.11353 0.17143 0.35793 0.0
H2686 H 0.0894 0.14409 0.30617 0.0
H2687 H 0.11824 0.15554 0.32552 0.0
Eu2688 Eu 0.51463 0.13462 0.73317 0.0
C2689 C 0.57205 0.18263 0.77229 0.0
C2690 C 0.60161 0.18093 0.75236 0.0
C2691 C 0.59122 0.21239 0.76593 0.0
C2692 C 0.58485 0.17165 0.76068 0.0
C2693 C 0.57587 0.20277 0.77602 0.0
C2694 C 0.60402 0.20149 0.75401 0.0
C2695 C 0.55123 0.20159 0.80176 0.0
N2696 N 0.55691 0.17317 0.78147 0.0
C2697 C 0.54782 0.1817 0.79743 0.0
C2698 C 0.56478 0.21238 0.79051 0.0
Eu2699 Eu 0.54957 0.1411 0.76901 0.0
N2700 N 0.58228 0.15165 0.75963 0.0
C2701 C 0.59797 0.14016 0.75416 0.0
C2702 C 0.61615 0.16915 0.7438 0.0
C2703 C 0.61471 0.14866 0.74547 0.0
H2704 H 0.53663 0.17362 0.8055 0.0
H2705 H 0.62654 0.13939 0.74017 0.0
H2706 H 0.61648 0.20891 0.74719 0.0
H2707 H 0.54317 0.20868 0.81353 0.0
H2708 H 0.59769 0.12442 0.75614 0.0
H2709 H 0.47173 0.14354 0.79996 0.0
H2710 H 0.62917 0.1757 0.73714 0.0
H2711 H 0.51614 0.09751 0.70019 0.0
H2712 H 0.4974 0.15245 0.77543 0.0
H2713 H 0.49849 0.06614 0.69402 0.0
H2714 H 0.59396 0.22802 0.76808 0.0
H2715 H 0.45198 0.11295 0.79561 0.0
H2716 H 0.44441 0.08258 0.77556 0.0
H2717 H 0.56728 0.22785 0.79379 0.0
H2718 H 0.45155 0.06175 0.74679 0.0
N2719 N 0.49216 0.12703 0.75798 0.0
C2720 C 0.48884 0.13906 0.77364 0.0
C2721 C 0.46324 0.11675 0.78492 0.0
C2722 C 0.46675 0.10455 0.76865 0.0
C2723 C 0.47437 0.13404 0.78745 0.0
C2724 C 0.4816 0.11012 0.75524 0.0
H2725 H 0.47193 0.05525 0.71662 0.0
N2726 N 0.50048 0.10365 0.72666 0.0
C2727 C 0.49486 0.07494 0.7068 0.0
C2728 C 0.48581 0.09818 0.7391 0.0
C2729 C 0.50498 0.09258 0.71048 0.0
C2730 C 0.47981 0.06891 0.71954 0.0
C2731 C 0.47502 0.08061 0.73584 0.0
O2732 O 0.50834 0.13562 0.70189 0.0
O2733 O 0.53943 0.15352 0.74117 0.0
O2734 O 0.53322 0.17279 0.76421 0.0
O2735 O 0.50954 0.16963 0.74089 0.0
O2736 O 0.53956 0.1418 0.7127 0.0
O2737 O 0.48749 0.14851 0.72251 0.0
O2738 O 0.53729 0.13373 0.79839 0.0
O2739 O 0.52515 0.11708 0.76118 0.0
O2740 O 0.5387 0.11231 0.72537 0.0
O2741 O 0.56445 0.12222 0.74637 0.0
O2742 O 0.55155 0.1066 0.77133 0.0
O2743 O 0.56816 0.14267 0.79409 0.0
C2744 C 0.54877 0.15301 0.72501 0.0
C2745 C 0.47622 0.14074 0.69023 0.0
C2746 C 0.45958 0.14992 0.65991 0.0
C2747 C 0.47306 0.1542 0.67497 0.0
C2748 C 0.44915 0.13187 0.66043 0.0
C2749 C 0.46569 0.12291 0.6908 0.0
C2750 C 0.45217 0.11851 0.67586 0.0
C2751 C 0.51934 0.18186 0.75331 0.0
C2752 C 0.49194 0.14528 0.70411 0.0
C2753 C 0.45998 0.07521 0.74902 0.0
C2754 C 0.45593 0.08708 0.76542 0.0
C2755 C 0.53443 0.09989 0.76524 0.0
C2756 C 0.56292 0.1211 0.82019 0.0
C2757 C 0.5827 0.11494 0.81812 0.0
C2758 C 0.59266 0.10581 0.83366 0.0
C2759 C 0.58215 0.10121 0.85093 0.0
C2760 C 0.55267 0.11645 0.83746 0.0
C2761 C 0.56219 0.10623 0.85264 0.0
C2762 C 0.55716 0.1111 0.73202 0.0
C2763 C 0.55497 0.13583 0.80635 0.0
H2764 H 0.4812 0.16806 0.67484 0.0
H2765 H 0.43881 0.12803 0.64884 0.0
H2766 H 0.46802 0.1124 0.70255 0.0
H2767 H 0.44414 0.10465 0.67614 0.0
H2768 H 0.59101 0.11881 0.80503 0.0
H2769 H 0.58942 0.09399 0.86319 0.0
H2770 H 0.53762 0.12141 0.83954 0.0
H2771 H 0.55431 0.10289 0.8661 0.0
Eu2772 Eu 0.14318 0.26462 0.97833 0.0
C2773 C 0.096 0.31559 0.025 0.0
C2774 C 0.09328 0.34512 1.00473 0.0
C2775 C 0.06488 0.33347 0.02321 0.0
C2776 C 0.1045 0.32886 1.01151 0.0
C2777 C 0.07645 0.31855 0.03164 0.0
C2778 C 0.07327 0.3467 1.00978 0.0
C2779 C 0.08197 0.29395 0.05686 0.0
N2780 N 0.10716 0.30076 0.03283 0.0
C2781 C 0.10114 0.29133 0.0498 0.0
C2782 C 0.06935 0.30709 0.0473 0.0
Eu2783 Eu 0.13824 0.29648 0.01705 0.0
N2784 N 0.12405 0.32718 1.00669 0.0
C2785 C 0.13358 0.34282 0.99787 0.0
C2786 C 0.10273 0.36009 0.99408 0.0
C2787 C 0.12308 0.35935 0.99144 0.0
H2788 H 0.11048 0.28044 0.05677 0.0
H2789 H 0.1307 0.37138 0.98412 0.0
H2790 H 0.06441 0.3588 1.00423 0.0
H2791 H 0.07684 0.28559 0.06946 0.0
H2792 H 0.14929 0.34319 0.99584 0.0
H2793 H 0.13358 0.22101 0.04517 0.0
H2794 H 0.09463 0.37283 0.9888 0.0
H2795 H 0.17915 0.2643 0.94441 0.0
H2796 H 0.12378 0.24484 0.01946 0.0
H2797 H 0.21135 0.24805 0.93934 0.0
H2798 H 0.04969 0.33555 0.02776 0.0
H2799 H 0.16574 0.20392 0.04283 0.0
H2800 H 0.19735 0.19837 0.02431 0.0
H2801 H 0.05443 0.30895 0.05273 0.0
H2802 H 0.21843 0.20576 0.99573 0.0
N2803 N 0.15009 0.2414 1.00298 0.0
C2804 C 0.13778 0.23751 0.01834 0.0
C2805 C 0.16147 0.21434 0.03148 0.0
C2806 C 0.1739 0.21822 0.01545 0.0
C2807 C 0.14331 0.22398 0.03288 0.0
C2808 C 0.16769 0.23193 1.00114 0.0
H2809 H 0.22378 0.22416 0.96401 0.0
N2810 N 0.1736 0.24973 0.97166 0.0
C2811 C 0.20264 0.24462 0.95226 0.0
C2812 C 0.17975 0.23623 0.98507 0.0
C2813 C 0.18444 0.2538 0.95519 0.0
C2814 C 0.20958 0.23113 0.96622 0.0
C2815 C 0.19807 0.22671 0.98281 0.0
O2816 O 0.14137 0.26018 0.94671 0.0
O2817 O 0.12528 0.28974 0.9876 0.0
O2818 O 0.10737 0.27732 0.0159 0.0
O2819 O 0.10781 0.26268 0.9859 0.0
O2820 O 0.13889 0.29183 0.96021 0.0
O2821 O 0.12828 0.23855 0.96661 0.0
O2822 O 0.14394 0.29262 0.04891 0.0
O2823 O 0.16169 0.27442 1.00493 0.0
O2824 O 0.16743 0.28732 0.9727 0.0
O2825 O 0.1594 0.31132 0.99602 0.0
O2826 O 0.17085 0.28937 0.02773 0.0
O2827 O 0.14433 0.32204 0.0338 0.0
C2828 C 0.12657 0.30022 0.97201 0.0
C2829 C 0.13595 0.2284 0.93422 0.0
C2830 C 0.12646 0.21153 0.90429 0.0
C2831 C 0.12311 0.22619 0.91826 0.0
C2832 C 0.14304 0.19925 0.90613 0.0
C2833 C 0.15251 0.21619 0.9361 0.0
C2834 C 0.1561 0.20172 0.92193 0.0
C2835 C 0.09675 0.26863 1.00137 0.0
C2836 C 0.13146 0.24376 0.94836 0.0
C2837 C 0.20433 0.21312 0.99713 0.0
C2838 C 0.1923 0.2089 1.0134 0.0
C2839 C 0.17859 0.27788 1.01463 0.0
C2840 C 0.15027 0.32285 0.06838 0.0
C2841 C 0.1538 0.34319 0.06695 0.0
C2842 C 0.15776 0.35447 0.08363 0.0
C2843 C 0.15773 0.3452 0.1022 0.0
C2844 C 0.15027 0.31368 0.08688 0.0
C2845 C 0.15391 0.32492 0.10377 0.0
C2846 C 0.17037 0.3047 0.98133 0.0
C2847 C 0.14581 0.31203 0.05032 0.0
H2848 H 0.11022 0.23561 0.91696 0.0
H2849 H 0.14583 0.1878 0.89537 0.0
H2850 H 0.16249 0.21773 0.94846 0.0
H2851 H 0.1689 0.19229 0.92329 0.0
H2852 H 0.15331 0.35046 0.05272 0.0
H2853 H 0.16096 0.35352 0.11543 0.0
H2854 H 0.14728 0.29801 0.08827 0.0
H2855 H 0.15388 0.31788 0.11809 0.0
Eu2856 Eu 0.39707 0.73207 0.51806 0.0
C2857 C 0.35044 0.7804 0.46316 0.0
C2858 C 0.34419 0.76214 0.4328 0.0
C2859 C 0.32021 0.78595 0.44445 0.0
C2860 C 0.35655 0.76639 0.44911 0.0
C2861 C 0.33246 0.79058 0.46049 0.0
C2862 C 0.32593 0.77165 0.43082 0.0
C2863 C 0.33966 0.80947 0.48993 0.0
N2864 N 0.36189 0.78405 0.47948 0.0
C2865 C 0.35736 0.79918 0.49213 0.0
C2866 C 0.32709 0.80502 0.4742 0.0
Eu2867 Eu 0.39192 0.76634 0.47994 0.0
N2868 N 0.37456 0.75747 0.45088 0.0
C2869 C 0.38138 0.74542 0.43619 0.0
C2870 C 0.35064 0.74874 0.41858 0.0
C2871 C 0.36939 0.74057 0.42016 0.0
H2872 H 0.36737 0.80301 0.50396 0.0
H2873 H 0.37472 0.7306 0.40893 0.0
H2874 H 0.31628 0.76836 0.41849 0.0
H2875 H 0.33582 0.82102 0.50022 0.0
H2876 H 0.39599 0.73924 0.43645 0.0
H2877 H 0.37275 0.80308 0.54814 0.0
H2878 H 0.34149 0.74506 0.40599 0.0
H2879 H 0.44023 0.70855 0.52796 0.0
H2880 H 0.37434 0.77623 0.52422 0.0
H2881 H 0.46559 0.70784 0.55333 0.0
H2882 H 0.3062 0.79338 0.44243 0.0
H2883 H 0.39555 0.80333 0.57664 0.0
H2884 H 0.42443 0.78809 0.59399 0.0
H2885 H 0.31336 0.81304 0.47261 0.0
H2886 H 0.45001 0.76243 0.5951 0.0
N2887 N 0.39584 0.75976 0.53974 0.0
C2888 C 0.38345 0.77535 0.53697 0.0
C2889 C 0.39581 0.7911 0.56638 0.0
C2890 C 0.40962 0.77595 0.56835 0.0
C2891 C 0.3829 0.79097 0.55038 0.0
C2892 C 0.40937 0.76039 0.55453 0.0
H2893 H 0.46555 0.73263 0.57996 0.0
N2894 N 0.42404 0.73252 0.54063 0.0
C2895 C 0.45387 0.71864 0.55415 0.0
C2896 C 0.42391 0.74627 0.555 0.0
C2897 C 0.43899 0.71891 0.53992 0.0
C2898 C 0.45381 0.73266 0.56909 0.0
C2899 C 0.43887 0.74684 0.56954 0.0
O2900 O 0.40947 0.70355 0.51341 0.0
O2901 O 0.38731 0.73541 0.48765 0.0
O2902 O 0.35904 0.76138 0.49589 0.0
O2903 O 0.3619 0.7404 0.52266 0.0
O2904 O 0.36977 0.71728 0.50501 0.0
O2905 O 0.3926 0.70856 0.54015 0.0
O2906 O 0.3983 0.79794 0.47901 0.0
O2907 O 0.41492 0.75703 0.50404 0.0
O2908 O 0.42095 0.72547 0.49489 0.0
O2909 O 0.41033 0.74208 0.46665 0.0
O2910 O 0.42419 0.77786 0.48632 0.0
O2911 O 0.40315 0.77893 0.453 0.0
C2912 C 0.37221 0.72449 0.48756 0.0
C2913 C 0.39587 0.67546 0.52746 0.0
C2914 C 0.37637 0.64792 0.53853 0.0
C2915 C 0.3815 0.66777 0.53998 0.0
C2916 C 0.38552 0.63556 0.52479 0.0
C2917 C 0.40526 0.66299 0.51375 0.0
C2918 C 0.40001 0.64314 0.51241 0.0
C2919 C 0.34975 0.75139 0.51079 0.0
C2920 C 0.40254 0.69587 0.52951 0.0
C2921 C 0.43868 0.76177 0.58381 0.0
C2922 C 0.4241 0.77633 0.5832 0.0
C2923 C 0.43178 0.76608 0.49925 0.0
C2924 C 0.39576 0.81201 0.44667 0.0
C2925 C 0.40759 0.81713 0.43065 0.0
C2926 C 0.39993 0.82845 0.41506 0.0
C2927 C 0.38003 0.8345 0.41593 0.0
C2928 C 0.37663 0.81962 0.44799 0.0
C2929 C 0.36868 0.83052 0.43254 0.0
C2930 C 0.42226 0.72961 0.4758 0.0
C2931 C 0.40326 0.79695 0.46024 0.0
H2932 H 0.37446 0.67702 0.55093 0.0
H2933 H 0.38166 0.62002 0.52394 0.0
H2934 H 0.41688 0.66851 0.50423 0.0
H2935 H 0.40732 0.63359 0.50197 0.0
H2936 H 0.42275 0.81208 0.43049 0.0
H2937 H 0.37315 0.84241 0.4039 0.0
H2938 H 0.36768 0.81711 0.46067 0.0
H2939 H 0.3536 0.83572 0.43336 0.0
Eu2940 Eu 0.79687 0.51664 0.89382 0.0
C2941 C 0.74829 0.57727 0.85116 0.0
C2942 C 0.76649 0.60822 0.85017 0.0
C2943 C 0.74118 0.60171 0.82573 0.0
C2944 C 0.76249 0.58984 0.85948 0.0
C2945 C 0.73744 0.58329 0.83437 0.0
C2946 C 0.75569 0.61408 0.83355 0.0
C2947 C 0.71923 0.55257 0.83576 0.0
N2948 N 0.74493 0.55923 0.85937 0.0
C2949 C 0.73023 0.54713 0.85226 0.0
C2950 C 0.72294 0.57066 0.82669 0.0
Eu2951 Eu 0.76325 0.55156 0.88808 0.0
N2952 N 0.77312 0.58383 0.87567 0.0
C2953 C 0.78919 0.59509 0.88141 0.0
C2954 C 0.78195 0.61993 0.85707 0.0
C2955 C 0.79364 0.61304 0.87228 0.0
H2956 H 0.72744 0.53295 0.85908 0.0
H2957 H 0.80668 0.62126 0.87632 0.0
H2958 H 0.75869 0.62811 0.8264 0.0
H2959 H 0.70795 0.54277 0.83 0.0
H2960 H 0.79995 0.59035 0.89198 0.0
H2961 H 0.72798 0.4769 0.88234 0.0
H2962 H 0.78571 0.63381 0.85 0.0
H2963 H 0.8283 0.51732 0.93248 0.0
H2964 H 0.75371 0.50206 0.87489 0.0
H2965 H 0.83301 0.49872 0.96337 0.0
H2966 H 0.73302 0.60647 0.81283 0.0
H2967 H 0.73116 0.45591 0.91209 0.0
H2968 H 0.75059 0.44655 0.94235 0.0
H2969 H 0.71441 0.57482 0.81382 0.0
H2970 H 0.77926 0.45218 0.96402 0.0
N2971 N 0.77044 0.49556 0.90048 0.0
C2972 C 0.75488 0.49309 0.88801 0.0
C2973 C 0.7423 0.46702 0.90899 0.0
C2974 C 0.75854 0.4696 0.9216 0.0
C2975 C 0.74043 0.47886 0.89218 0.0
C2976 C 0.77255 0.48429 0.91694 0.0
H2977 H 0.80963 0.472 0.97236 0.0
N2978 N 0.80161 0.50231 0.92487 0.0
C2979 C 0.82044 0.49553 0.95401 0.0
C2980 C 0.78864 0.48767 0.92939 0.0
C2981 C 0.81752 0.50626 0.93666 0.0
C2982 C 0.80727 0.48037 0.95895 0.0
C2983 C 0.79123 0.47617 0.94653 0.0
O2984 O 0.82762 0.5084 0.89397 0.0
O2985 O 0.78989 0.54064 0.87417 0.0
O2986 O 0.76743 0.53667 0.85455 0.0
O2987 O 0.78991 0.51219 0.85823 0.0
O2988 O 0.81763 0.54139 0.88691 0.0
O2989 O 0.80592 0.48872 0.88051 0.0
O2990 O 0.73461 0.53751 0.89565 0.0
O2991 O 0.76974 0.52701 0.91222 0.0
O2992 O 0.80818 0.54135 0.91429 0.0
O2993 O 0.78507 0.56645 0.9086 0.0
O2994 O 0.76282 0.55457 0.92244 0.0
O2995 O 0.7378 0.56959 0.89083 0.0
C2996 C 0.8065 0.54933 0.87367 0.0
C2997 C 0.8369 0.47565 0.89035 0.0
C2998 C 0.86841 0.46019 0.88507 0.0
C2999 C 0.85366 0.47306 0.87898 0.0
C3000 C 0.8659 0.44909 0.90241 0.0
C3001 C 0.83424 0.46477 0.90771 0.0
C3002 C 0.84876 0.45137 0.91365 0.0
C3003 C 0.77812 0.52225 0.84543 0.0
C3004 C 0.82446 0.49196 0.88465 0.0
C3005 C 0.77753 0.46117 0.95092 0.0
C3006 C 0.76117 0.45799 0.93858 0.0
C3007 C 0.76713 0.53698 0.92917 0.0
C3008 C 0.71131 0.56029 0.9108 0.0
C3009 C 0.71334 0.57819 0.92123 0.0
C3010 C 0.69672 0.58785 0.92897 0.0
C3011 C 0.67832 0.57798 0.92806 0.0
C3012 C 0.69301 0.55065 0.91049 0.0
C3013 C 0.67668 0.55932 0.91943 0.0
C3014 C 0.80136 0.55955 0.91713 0.0
C3015 C 0.72609 0.55502 0.89589 0.0
H3016 H 0.85547 0.48157 0.86552 0.0
H3017 H 0.87724 0.43898 0.90733 0.0
H3018 H 0.82131 0.46679 0.91671 0.0
H3019 H 0.84689 0.44302 0.92713 0.0
H3020 H 0.7277 0.58528 0.92192 0.0
H3021 H 0.66493 0.58487 0.93326 0.0
H3022 H 0.69105 0.53708 0.90226 0.0
H3023 H 0.6624 0.55208 0.91863 0.0
Eu3024 Eu 0.76359 0.54456 0.14301 0.0
C3025 C 0.69963 0.50795 0.0985 0.0
C3026 C 0.6692 0.52634 0.10159 0.0
C3027 C 0.67769 0.51123 0.07032 0.0
C3028 C 0.68721 0.51978 0.10977 0.0
C3029 C 0.69432 0.50261 0.07913 0.0
C3030 C 0.66516 0.52314 0.08153 0.0
C3031 C 0.72032 0.47819 0.0797 0.0
N3032 N 0.71578 0.49989 0.10719 0.0
C3033 C 0.72506 0.48396 0.09889 0.0
C3034 C 0.70527 0.48797 0.06955 0.0
Eu3035 Eu 0.72409 0.51328 0.13828 0.0
N3036 N 0.69132 0.52241 0.12931 0.0
C3037 C 0.6765 0.52776 0.14188 0.0
C3038 C 0.65496 0.5342 0.11415 0.0
C3039 C 0.6582 0.53379 0.13443 0.0
H3040 H 0.73711 0.47684 0.10656 0.0
H3041 H 0.64633 0.53759 0.14427 0.0
H3042 H 0.65167 0.52862 0.07492 0.0
H3043 H 0.72837 0.46635 0.07271 0.0
H3044 H 0.67863 0.52727 0.15766 0.0
H3045 H 0.79674 0.47209 0.13615 0.0
H3046 H 0.64077 0.53899 0.10851 0.0
H3047 H 0.76669 0.57872 0.17891 0.0
H3048 H 0.77606 0.50041 0.12561 0.0
H3049 H 0.78229 0.58196 0.21169 0.0
H3050 H 0.67374 0.50782 0.05523 0.0
H3051 H 0.81366 0.47295 0.16852 0.0
H3052 H 0.82079 0.49109 0.2001 0.0
H3053 H 0.70164 0.4835 0.05466 0.0
H3054 H 0.81646 0.5206 0.22073 0.0
N3055 N 0.78153 0.51665 0.15173 0.0
C3056 C 0.7835 0.50074 0.1397 0.0
C3057 C 0.80467 0.48535 0.16396 0.0
C3058 C 0.8025 0.50186 0.17619 0.0
C3059 C 0.79513 0.48479 0.14566 0.0
C3060 C 0.79073 0.5176 0.16955 0.0
H3061 H 0.80206 0.55443 0.22527 0.0
N3062 N 0.77678 0.54931 0.17457 0.0
C3063 C 0.78396 0.56845 0.20336 0.0
C3064 C 0.78821 0.53432 0.18129 0.0
C3065 C 0.77497 0.56648 0.18491 0.0
C3066 C 0.79515 0.55289 0.21094 0.0
C3067 C 0.79758 0.53565 0.19981 0.0
O3068 O 0.77346 0.57455 0.13962 0.0
O3069 O 0.73805 0.53846 0.12483 0.0
O3070 O 0.73921 0.51851 0.10491 0.0
O3071 O 0.7682 0.53515 0.10838 0.0
O3072 O 0.74205 0.5678 0.13306 0.0
O3073 O 0.79382 0.55065 0.13286 0.0
O3074 O 0.73533 0.48356 0.14606 0.0
O3075 O 0.74929 0.51921 0.16149 0.0
O3076 O 0.74033 0.55772 0.16362 0.0
O3077 O 0.71187 0.53917 0.15564 0.0
O3078 O 0.72179 0.51364 0.17284 0.0
O3079 O 0.70419 0.48883 0.13906 0.0
C3080 C 0.73096 0.55566 0.12345 0.0
C3081 C 0.80655 0.58292 0.13972 0.0
C3082 C 0.81958 0.61574 0.13461 0.0
C3083 C 0.8092 0.59936 0.12777 0.0
C3084 C 0.82866 0.61505 0.15323 0.0
C3085 C 0.81543 0.58207 0.15834 0.0
C3086 C 0.82671 0.59813 0.16498 0.0
C3087 C 0.75555 0.52609 0.09573 0.0
C3088 C 0.79093 0.56968 0.1335 0.0
C3089 C 0.8092 0.51988 0.20651 0.0
C3090 C 0.81169 0.50307 0.19474 0.0
C3091 C 0.73974 0.51784 0.17875 0.0
C3092 C 0.70976 0.46296 0.16108 0.0
C3093 C 0.69015 0.46487 0.16811 0.0
C3094 C 0.68143 0.45009 0.17982 0.0
C3095 C 0.69291 0.43358 0.18504 0.0
C3096 C 0.72083 0.44646 0.16663 0.0
C3097 C 0.71247 0.43194 0.17867 0.0
C3098 C 0.72111 0.55373 0.16513 0.0
C3099 C 0.71723 0.47624 0.14543 0.0
H3100 H 0.80216 0.59979 0.11337 0.0
H3101 H 0.83684 0.62766 0.1588 0.0
H3102 H 0.81325 0.56942 0.16784 0.0
H3103 H 0.83344 0.5977 0.17944 0.0
H3104 H 0.68136 0.47757 0.16399 0.0
H3105 H 0.68664 0.4216 0.1936 0.0
H3106 H 0.73568 0.44445 0.16109 0.0
H3107 H 0.72099 0.41903 0.18261 0.0
Eu3108 Eu 0.73343 0.51445 0.39315 0.0
C3109 C 0.76814 0.45025 0.3486 0.0
C3110 C 0.75181 0.41957 0.35709 0.0
C3111 C 0.76083 0.42612 0.32311 0.0
C3112 C 0.75908 0.43837 0.36255 0.0
C3113 C 0.77051 0.44348 0.32911 0.0
C3114 C 0.75139 0.41418 0.33712 0.0
C3115 C 0.79584 0.46831 0.32462 0.0
N3116 N 0.77756 0.46675 0.35492 0.0
C3117 C 0.79277 0.47461 0.34396 0.0
C3118 C 0.78396 0.45331 0.31684 0.0
Eu3119 Eu 0.76795 0.47827 0.38669 0.0
N3120 N 0.76018 0.44388 0.3818 0.0
C3121 C 0.7584 0.42968 0.39612 0.0
C3122 C 0.74663 0.40622 0.37197 0.0
C3123 C 0.75069 0.41102 0.39156 0.0
H3124 H 0.80148 0.48673 0.34978 0.0
H3125 H 0.74811 0.40028 0.40311 0.0
H3126 H 0.74519 0.40011 0.33258 0.0
H3127 H 0.80711 0.47526 0.31565 0.0
H3128 H 0.76217 0.43302 0.41119 0.0
H3129 H 0.80304 0.55327 0.38288 0.0
H3130 H 0.7409 0.39168 0.36841 0.0
H3131 H 0.7021 0.51312 0.43183 0.0
H3132 H 0.77542 0.53098 0.37345 0.0
H3133 H 0.70047 0.52686 0.46541 0.0
H3134 H 0.76187 0.42105 0.30802 0.0
H3135 H 0.80317 0.56919 0.41568 0.0
H3136 H 0.78666 0.5741 0.44848 0.0
H3137 H 0.78631 0.44849 0.30182 0.0
H3138 H 0.75907 0.56669 0.47089 0.0
N3139 N 0.76047 0.53456 0.40058 0.0
C3140 C 0.77547 0.53799 0.38772 0.0
C3141 C 0.79104 0.55953 0.41159 0.0
C3142 C 0.77545 0.55589 0.42469 0.0
C3143 C 0.79104 0.55054 0.39305 0.0
C3144 C 0.76005 0.54323 0.41865 0.0
H3145 H 0.72712 0.54889 0.47747 0.0
N3146 N 0.72996 0.52641 0.42539 0.0
C3147 C 0.71296 0.53029 0.45605 0.0
C3148 C 0.74444 0.53898 0.4314 0.0
C3149 C 0.71406 0.52236 0.4371 0.0
C3150 C 0.72799 0.54279 0.46276 0.0
C3151 C 0.74388 0.54743 0.45035 0.0
O3152 O 0.70277 0.523 0.39354 0.0
O3153 O 0.74116 0.4902 0.37401 0.0
O3154 O 0.76342 0.49542 0.35433 0.0
O3155 O 0.7399 0.51899 0.3577 0.0
O3156 O 0.71193 0.49105 0.38369 0.0
O3157 O 0.72483 0.54349 0.38192 0.0
O3158 O 0.79636 0.49199 0.396 0.0
O3159 O 0.76036 0.50216 0.41076 0.0
O3160 O 0.72281 0.4896 0.41349 0.0
O3161 O 0.74349 0.46359 0.40401 0.0
O3162 O 0.76842 0.47514 0.42136 0.0
O3163 O 0.79496 0.46258 0.38341 0.0
C3164 C 0.72454 0.48157 0.37313 0.0
C3165 C 0.69387 0.55609 0.39248 0.0
C3166 C 0.66252 0.57255 0.38832 0.0
C3167 C 0.6772 0.56009 0.38121 0.0
C3168 C 0.66513 0.58183 0.40665 0.0
C3169 C 0.69651 0.56517 0.41082 0.0
C3170 C 0.68216 0.57819 0.4178 0.0
C3171 C 0.7521 0.50933 0.34514 0.0
C3172 C 0.70618 0.54014 0.38556 0.0
C3173 C 0.7592 0.56013 0.45635 0.0
C3174 C 0.77492 0.56435 0.44357 0.0
C3175 C 0.76303 0.49251 0.42788 0.0
C3176 C 0.81794 0.46612 0.40828 0.0
C3177 C 0.8142 0.44625 0.41381 0.0
C3178 C 0.82861 0.43514 0.42351 0.0
C3179 C 0.84618 0.44456 0.42949 0.0
C3180 C 0.83546 0.47526 0.41446 0.0
C3181 C 0.84936 0.46457 0.42534 0.0
C3182 C 0.72865 0.47089 0.41433 0.0
C3183 C 0.80572 0.47536 0.39279 0.0
H3184 H 0.6754 0.55294 0.367 0.0
H3185 H 0.6539 0.59154 0.41247 0.0
H3186 H 0.70932 0.56196 0.41979 0.0
H3187 H 0.68403 0.58513 0.43203 0.0
H3188 H 0.80086 0.43877 0.40896 0.0
H3189 H 0.85761 0.43631 0.43705 0.0
H3190 H 0.83878 0.49032 0.41014 0.0
H3191 H 0.86306 0.47159 0.4298 0.0
Eu3192 Eu 0.76265 0.48228 0.64313 0.0
C3193 C 0.83068 0.51346 0.59915 0.0
C3194 C 0.86071 0.49548 0.60595 0.0
C3195 C 0.85407 0.50725 0.5728 0.0
C3196 C 0.84241 0.50305 0.61231 0.0
C3197 C 0.837 0.51668 0.57962 0.0
C3198 C 0.8659 0.4966 0.58596 0.0
C3199 C 0.81144 0.54129 0.57625 0.0
N3200 N 0.81429 0.52243 0.60611 0.0
C3201 C 0.80578 0.53764 0.5957 0.0
C3202 C 0.82668 0.53026 0.56794 0.0
Eu3203 Eu 0.80344 0.5114 0.63758 0.0
N3204 N 0.83708 0.50243 0.63168 0.0
C3205 C 0.85088 0.49755 0.64563 0.0
C3206 C 0.87383 0.4882 0.62003 0.0
C3207 C 0.86921 0.48994 0.63992 0.0
H3208 H 0.79348 0.54563 0.60192 0.0
H3209 H 0.87996 0.4855 0.65072 0.0
H3210 H 0.87965 0.49035 0.58077 0.0
H3211 H 0.80391 0.55243 0.56764 0.0
H3212 H 0.8476 0.49897 0.66114 0.0
H3213 H 0.7344 0.55591 0.62736 0.0
H3214 H 0.88806 0.48232 0.61577 0.0
H3215 H 0.76077 0.45524 0.68562 0.0
H3216 H 0.75394 0.52597 0.62099 0.0
H3217 H 0.7436 0.45668 0.71749 0.0
H3218 H 0.85886 0.50907 0.55768 0.0
H3219 H 0.71579 0.55911 0.65848 0.0
H3220 H 0.70645 0.54497 0.69132 0.0
H3221 H 0.83106 0.53311 0.55286 0.0
H3222 H 0.70917 0.51829 0.71575 0.0
N3223 N 0.74596 0.51212 0.64794 0.0
C3224 C 0.74562 0.52702 0.63445 0.0
C3225 C 0.72423 0.54585 0.65572 0.0
C3226 C 0.72502 0.53066 0.66971 0.0
C3227 C 0.7347 0.54409 0.6381 0.0
C3228 C 0.73623 0.51371 0.66542 0.0
H3229 H 0.72289 0.48548 0.72562 0.0
N3230 N 0.74945 0.48283 0.67539 0.0
C3231 C 0.74198 0.46863 0.707 0.0
C3232 C 0.73797 0.4987 0.67945 0.0
C3233 C 0.75185 0.46801 0.68899 0.0
C3234 C 0.73026 0.48488 0.71149 0.0
C3235 C 0.72823 0.50021 0.69775 0.0
O3236 O 0.74115 0.46051 0.65302 0.0
O3237 O 0.78841 0.48659 0.62488 0.0
O3238 O 0.7888 0.50523 0.60431 0.0
O3239 O 0.75806 0.49222 0.60822 0.0
O3240 O 0.78315 0.45769 0.63349 0.0
O3241 O 0.74122 0.46876 0.62267 0.0
O3242 O 0.78939 0.54018 0.64456 0.0
O3243 O 0.77874 0.50683 0.66155 0.0
O3244 O 0.7864 0.46689 0.66235 0.0
O3245 O 0.81512 0.48524 0.65506 0.0
O3246 O 0.8069 0.51116 0.67211 0.0
O3247 O 0.82028 0.53785 0.63589 0.0
C3248 C 0.79457 0.46909 0.62341 0.0
C3249 C 0.73884 0.43494 0.63069 0.0
C3250 C 0.72917 0.40549 0.61332 0.0
C3251 C 0.72588 0.42526 0.618 0.0
C3252 C 0.7457 0.39548 0.6207 0.0
C3253 C 0.75494 0.42454 0.63889 0.0
C3254 C 0.75857 0.40505 0.63353 0.0
C3255 C 0.77167 0.49953 0.59528 0.0
C3256 C 0.73558 0.45571 0.63559 0.0
C3257 C 0.71677 0.5169 0.7018 0.0
C3258 C 0.7152 0.53208 0.68786 0.0
C3259 C 0.78893 0.5078 0.67859 0.0
C3260 C 0.81354 0.56401 0.6568 0.0
C3261 C 0.83336 0.56315 0.66326 0.0
C3262 C 0.84268 0.57971 0.67136 0.0
C3263 C 0.83151 0.59679 0.67481 0.0
C3264 C 0.80255 0.58107 0.66047 0.0
C3265 C 0.81144 0.59726 0.66978 0.0
C3266 C 0.80573 0.47057 0.66419 0.0
C3267 C 0.80641 0.54935 0.64239 0.0
H3268 H 0.71306 0.43288 0.61216 0.0
H3269 H 0.74817 0.3801 0.6171 0.0
H3270 H 0.76462 0.43132 0.64965 0.0
H3271 H 0.77107 0.39723 0.63969 0.0
H3272 H 0.84223 0.55018 0.66036 0.0
H3273 H 0.83834 0.6098 0.68119 0.0
H3274 H 0.78743 0.58221 0.65533 0.0
H3275 H 0.80298 0.61054 0.67232 0.0
Eu3276 Eu 0.47563 0.13927 0.26189 0.0
C3277 C 0.5393 0.09879 0.24167 0.0
C3278 C 0.55502 0.10639 0.27298 0.0
C3279 C 0.56114 0.07485 0.257 0.0
C3280 C 0.54252 0.11179 0.2573 0.0
C3281 C 0.54855 0.08018 0.24144 0.0
C3282 C 0.5644 0.08792 0.27269 0.0
C3283 C 0.53224 0.07341 0.21042 0.0
N3284 N 0.52678 0.10414 0.22697 0.0
C3285 C 0.5234 0.092 0.21125 0.0
C3286 C 0.54479 0.06742 0.22563 0.0
Eu3287 Eu 0.51343 0.13597 0.22985 0.0
N3288 N 0.53285 0.12938 0.25753 0.0
C3289 C 0.535 0.14229 0.27272 0.0
C3290 C 0.55749 0.11964 0.28865 0.0
C3291 C 0.5474 0.13763 0.28853 0.0
H3292 H 0.51426 0.09675 0.19909 0.0
H3293 H 0.54914 0.14788 0.30063 0.0
H3294 H 0.57408 0.08352 0.28463 0.0
H3295 H 0.52945 0.06377 0.19801 0.0
H3296 H 0.5271 0.1561 0.27267 0.0
H3297 H 0.3987 0.14584 0.23429 0.0
H3298 H 0.56701 0.11605 0.30097 0.0
H3299 H 0.49763 0.16519 0.29878 0.0
H3300 H 0.42917 0.12793 0.24092 0.0
H3301 H 0.49129 0.19558 0.31773 0.0
H3302 H 0.56837 0.06061 0.25708 0.0
H3303 H 0.39369 0.17907 0.24767 0.0
H3304 H 0.40554 0.20649 0.2689 0.0
H3305 H 0.55156 0.05297 0.22497 0.0
H3306 H 0.43015 0.21974 0.29195 0.0
N3307 N 0.44324 0.15194 0.25631 0.0
C3308 C 0.42812 0.14288 0.24621 0.0
C3309 C 0.40753 0.17155 0.2504 0.0
C3310 C 0.42215 0.18006 0.26224 0.0
C3311 C 0.41038 0.15277 0.24271 0.0
C3312 C 0.44006 0.16978 0.26526 0.0
H3313 H 0.46157 0.21546 0.3107 0.0
N3314 N 0.47153 0.16781 0.28132 0.0
C3315 C 0.48086 0.19076 0.30662 0.0
C3316 C 0.45425 0.17763 0.27823 0.0
C3317 C 0.48428 0.17347 0.29603 0.0
C3318 C 0.46405 0.20193 0.30259 0.0
C3319 C 0.45043 0.19536 0.28846 0.0
O3320 O 0.48531 0.13091 0.29208 0.0
O3321 O 0.50131 0.11669 0.25568 0.0
O3322 O 0.48945 0.11521 0.21695 0.0
O3323 O 0.46192 0.12351 0.23594 0.0
O3324 O 0.47385 0.1047 0.2598 0.0
O3325 O 0.45364 0.13126 0.28263 0.0
O3326 O 0.52271 0.13665 0.19953 0.0
O3327 O 0.48811 0.15419 0.23631 0.0
O3328 O 0.48945 0.17371 0.25803 0.0
O3329 O 0.51701 0.1712 0.23899 0.0
O3330 O 0.49079 0.14481 0.20751 0.0
O3331 O 0.5425 0.14834 0.22189 0.0
C3332 C 0.49191 0.09925 0.25636 0.0
C3333 C 0.45898 0.12082 0.31561 0.0
C3334 C 0.43075 0.10751 0.33388 0.0
C3335 C 0.44052 0.11112 0.31601 0.0
C3336 C 0.4402 0.11323 0.35152 0.0
C3337 C 0.46828 0.12596 0.33328 0.0
C3338 C 0.45891 0.1221 0.35118 0.0
C3339 C 0.47029 0.1139 0.22123 0.0
C3340 C 0.4665 0.12824 0.29676 0.0
C3341 C 0.43307 0.20589 0.28455 0.0
C3342 C 0.41905 0.19834 0.27142 0.0
C3343 C 0.48075 0.15587 0.21921 0.0
C3344 C 0.55574 0.13919 0.19057 0.0
C3345 C 0.56239 0.153 0.17681 0.0
C3346 C 0.57329 0.147 0.16033 0.0
C3347 C 0.57793 0.12679 0.15836 0.0
C3348 C 0.56137 0.1194 0.189 0.0
C3349 C 0.57241 0.11324 0.17287 0.0
C3350 C 0.50506 0.18346 0.24946 0.0
C3351 C 0.53952 0.1452 0.20318 0.0
H3352 H 0.43357 0.10681 0.30227 0.0
H3353 H 0.43301 0.11129 0.36561 0.0
H3354 H 0.48231 0.13374 0.33321 0.0
H3355 H 0.46589 0.12653 0.36483 0.0
H3356 H 0.5583 0.16833 0.17873 0.0
H3357 H 0.5856 0.12129 0.14554 0.0
H3358 H 0.5567 0.10866 0.19975 0.0
H3359 H 0.5762 0.0978 0.1713 0.0
Eu3360 Eu 0.01517 0.88871 0.72932 0.0
C3361 C 0.04188 0.84866 0.7937 0.0
C3362 C 1.00986 0.85475 0.8085 0.0
C3363 C 0.02771 0.82458 0.81625 0.0
C3364 C 0.02542 0.86071 0.79606 0.0
C3365 C 0.04327 0.8306 0.80396 0.0
C3366 C 1.01106 0.8366 0.81849 0.0
C3367 C 0.07553 0.82588 0.78941 0.0
N3368 N 0.05653 0.85458 0.78144 0.0
C3369 C 0.07341 0.8438 0.7794 0.0
C3370 C 0.06031 0.81914 0.8016 0.0
Eu3371 Eu 0.05133 0.88472 0.76532 0.0
N3372 N 0.02448 0.8781 0.78601 0.0
C3373 C 1.00877 0.89039 0.788 0.0
C3374 C 0.99351 0.8672 0.81046 0.0
C3375 C 0.993 0.88512 0.80022 0.0
H3376 H 0.08516 0.84892 0.76989 0.0
H3377 H 0.98046 0.89486 0.80171 0.0
H3378 H 0.9992 0.83175 0.82806 0.0
H3379 H 0.08879 0.81721 0.78758 0.0
H3380 H 1.00831 0.90419 0.78016 0.0
H3381 H 0.05234 0.88709 0.65637 0.0
H3382 H 0.98124 0.86314 0.81987 0.0
H3383 H 0.97615 0.91991 0.73859 0.0
H3384 H 0.03572 0.87172 0.68437 0.0
H3385 H 0.96714 0.95422 0.73044 0.0
H3386 H 0.02845 0.81068 0.82414 0.0
H3387 H 0.05239 0.92333 0.65241 0.0
H3388 H 0.03924 0.956 0.66303 0.0
H3389 H 0.0619 0.80515 0.80919 0.0
H3390 H 0.01562 0.97448 0.68318 0.0
N3391 N 0.02778 0.89921 0.698 0.0
C3392 C 0.03603 0.88764 0.6836 0.0
C3393 C 0.04516 0.91672 0.66505 0.0
C3394 C 0.03453 0.92826 0.67833 0.0
C3395 C 0.04519 0.89625 0.66725 0.0
C3396 C 0.02542 0.91896 0.69464 0.0
H3397 H 0.98802 0.97373 0.70768 0.0
N3398 N 1.0022 0.92017 0.72084 0.0
C3399 C 0.97998 0.94757 0.72372 0.0
C3400 C 1.01221 0.92963 0.70625 0.0
C3401 C 0.98495 0.92804 0.72804 0.0
C3402 C 0.99187 0.95855 0.71095 0.0
C3403 C 1.00775 0.94942 0.70147 0.0
O3404 O 0.98309 0.884 0.7338 0.0
O3405 O 0.02557 0.86589 0.7531 0.0
O3406 O 0.06009 0.86076 0.74361 0.0
O3407 O 0.03806 0.86752 0.71768 0.0
O3408 O 1.00558 0.85554 0.73481 0.0
O3409 O 0.99757 0.88216 0.70425 0.0
O3410 O 0.08243 0.88687 0.77258 0.0
O3411 O 0.04353 0.90164 0.7389 0.0
O3412 O 0.01576 0.92035 0.74784 0.0
O3413 O 0.04402 0.91991 0.76613 0.0
O3414 O 0.07235 0.89017 0.74063 0.0
O3415 O 0.06052 0.89976 0.79224 0.0
C3416 C 0.01699 0.84857 0.74849 0.0
C3417 C 0.96287 0.87588 0.70434 0.0
C3418 C 0.94678 0.86511 0.67414 0.0
C3419 C 0.96392 0.86796 0.68522 0.0
C3420 C 0.92837 0.86978 0.68229 0.0
C3421 C 0.94442 0.88029 0.7125 0.0
C3422 C 0.92722 0.8772 0.70147 0.0
C3423 C 0.05282 0.85751 0.72572 0.0
C3424 C 0.98125 0.88104 0.7146 0.0
C3425 C 0.01843 0.95911 0.68661 0.0
C3426 C 0.03187 0.94856 0.67512 0.0
C3427 C 0.06011 0.90036 0.7302 0.0
C3428 C 0.09262 0.89349 0.8048 0.0
C3429 C 0.10823 0.90681 0.80705 0.0
C3430 C 0.12196 0.90417 0.82209 0.0
C3431 C 0.12019 0.88792 0.83486 0.0
C3432 C 0.09083 0.87715 0.81736 0.0
C3433 C 0.10471 0.87436 0.83236 0.0
C3434 C 0.02925 0.9309 0.7585 0.0
C3435 C 0.07924 0.89696 0.78853 0.0
H3436 H 0.97808 0.86439 0.67869 0.0
H3437 H 0.91493 0.86759 0.67385 0.0
H3438 H 0.94335 0.88657 0.72711 0.0
H3439 H 0.91298 0.88079 0.70769 0.0
H3440 H 0.1096 0.9194 0.79719 0.0
H3441 H 0.13082 0.8857 0.8466 0.0
H3442 H 0.07883 0.86668 0.81558 0.0
H3443 H 0.10346 0.86175 0.84209 0.0
Eu3444 Eu 0.48083 0.89231 0.2668 0.0
C3445 C 0.55194 0.928 0.27972 0.0
C3446 C 0.56917 0.9127 0.2526 0.0
C3447 C 0.57981 0.94487 0.2646 0.0
C3448 C 0.55447 0.912 0.26727 0.0
C3449 C 0.56441 0.94471 0.27837 0.0
C3450 C 0.58212 0.92895 0.25167 0.0
C3451 C 0.54414 0.96082 0.30272 0.0
N3452 N 0.5365 0.92774 0.29232 0.0
C3453 C 0.53199 0.94411 0.30325 0.0
C3454 C 0.56062 0.96102 0.29043 0.0
Eu3455 Eu 0.52087 0.89675 0.29653 0.0
N3456 N 0.54169 0.89646 0.26853 0.0
C3457 C 0.54146 0.88233 0.25422 0.0
C3458 C 0.56996 0.89738 0.23884 0.0
C3459 C 0.55575 0.88239 0.23938 0.0
H3460 H 0.51931 0.94424 0.31286 0.0
H3461 H 0.55569 0.87093 0.22828 0.0
H3462 H 0.59366 0.9296 0.24065 0.0
H3463 H 0.5407 0.97355 0.31168 0.0
H3464 H 0.53021 0.87115 0.25378 0.0
H3465 H 0.41077 0.88149 0.30841 0.0
H3466 H 0.58098 0.8974 0.22729 0.0
H3467 H 0.49884 0.86535 0.22896 0.0
H3468 H 0.44003 0.89921 0.29939 0.0
H3469 H 0.48919 0.8361 0.20962 0.0
H3470 H 0.58961 0.95752 0.2634 0.0
H3471 H 0.40193 0.85028 0.29214 0.0
H3472 H 0.40935 0.82484 0.26719 0.0
H3473 H 0.56988 0.9741 0.28983 0.0
H3474 H 0.43022 0.81266 0.24046 0.0
N3475 N 0.44998 0.87823 0.27756 0.0
C3476 C 0.43748 0.88563 0.29171 0.0
C3477 C 0.41535 0.85796 0.28789 0.0
C3478 C 0.42764 0.85048 0.27324 0.0
C3479 C 0.42029 0.87556 0.2971 0.0
C3480 C 0.44517 0.86088 0.26829 0.0
H3481 H 0.4594 0.81701 0.2187 0.0
N3482 N 0.47467 0.8629 0.24899 0.0
C3483 C 0.48024 0.8407 0.22197 0.0
C3484 C 0.45746 0.85338 0.25348 0.0
C3485 C 0.48557 0.85733 0.23289 0.0
C3486 C 0.4634 0.83 0.22714 0.0
C3487 C 0.45178 0.83626 0.24295 0.0
O3488 O 0.48928 0.89973 0.23631 0.0
O3489 O 0.50673 0.91566 0.27084 0.0
O3490 O 0.49662 0.91566 0.31104 0.0
O3491 O 0.46898 0.91155 0.29082 0.0
O3492 O 0.4785 0.92634 0.26648 0.0
O3493 O 0.45782 0.89958 0.24691 0.0
O3494 O 0.52706 0.91064 0.32434 0.0
O3495 O 0.4908 0.88633 0.29623 0.0
O3496 O 0.4954 0.85906 0.26984 0.0
O3497 O 0.52415 0.8616 0.28776 0.0
O3498 O 0.50895 0.8699 0.31315 0.0
O3499 O 0.54658 0.88773 0.31455 0.0
C3500 C 0.49647 0.93276 0.26927 0.0
C3501 C 0.46249 0.90808 0.2132 0.0
C3502 C 0.43284 0.9177 0.19556 0.0
C3503 C 0.44393 0.91703 0.21288 0.0
C3504 C 0.44133 0.91076 0.17798 0.0
C3505 C 0.471 0.90146 0.19567 0.0
C3506 C 0.46047 0.90305 0.17803 0.0
C3507 C 0.47801 0.9196 0.30618 0.0
C3508 C 0.47028 0.90192 0.23221 0.0
C3509 C 0.43457 0.82598 0.24821 0.0
C3510 C 0.42266 0.83295 0.2634 0.0
C3511 C 0.49091 0.87145 0.30729 0.0
C3512 C 0.53947 0.89037 0.34908 0.0
C3513 C 0.554 0.87766 0.35645 0.0
C3514 C 0.55212 0.86989 0.37549 0.0
C3515 C 0.53577 0.87464 0.38716 0.0
C3516 C 0.52339 0.89552 0.36128 0.0
C3517 C 0.52152 0.88753 0.38009 0.0
C3518 C 0.51101 0.8496 0.27817 0.0
C3519 C 0.54138 0.89907 0.3292 0.0
H3520 H 0.43769 0.9226 0.22647 0.0
H3521 H 0.43307 0.91083 0.16431 0.0
H3522 H 0.48519 0.89412 0.19579 0.0
H3523 H 0.46681 0.89751 0.16451 0.0
H3524 H 0.56681 0.87408 0.34761 0.0
H3525 H 0.53441 0.86887 0.402 0.0
H3526 H 0.51228 0.90592 0.35647 0.0
H3527 H 0.50925 0.89165 0.38938 0.0
Eu3528 Eu 0.88894 0.73036 1.01537 0.0
C3529 C 0.85237 0.79932 0.03633 0.0
C3530 C 0.86599 0.81623 1.00792 0.0
C3531 C 0.83586 0.82829 0.02316 0.0
C3532 C 0.86711 0.80121 0.02225 0.0
C3533 C 0.83657 0.81282 0.03691 0.0
C3534 C 0.85045 0.82991 1.00862 0.0
C3535 C 0.82217 0.79353 0.06327 0.0
N3536 N 0.85302 0.78379 0.04892 0.0
C3537 C 0.83792 0.78034 0.06191 0.0
C3538 C 0.82163 0.81002 0.05092 0.0
Eu3539 Eu 0.88318 0.76642 0.04922 0.0
N3540 N 0.88209 0.78789 0.02205 0.0
C3541 C 0.8958 0.78807 1.0074 0.0
C3542 C 0.88038 0.81688 0.99315 0.0
C3543 C 0.89519 0.80258 0.99275 0.0
H3544 H 0.8384 0.76795 0.07195 0.0
H3545 H 0.90618 0.80276 0.98119 0.0
H3546 H 0.84945 0.84166 0.99782 0.0
H3547 H 0.81051 0.79099 0.07388 0.0
H3548 H 0.90715 0.77705 1.00688 0.0
H3549 H 0.89326 0.6548 0.04742 0.0
H3550 H 0.88 0.82816 0.98182 0.0
H3551 H 0.91766 0.74909 0.97875 0.0
H3552 H 0.87569 0.68355 0.03562 0.0
H3553 H 0.94832 0.7404 0.96139 0.0
H3554 H 0.82384 0.8388 0.02335 0.0
H3555 H 0.92862 0.65059 0.03996 0.0
H3556 H 0.95792 0.66141 0.02066 0.0
H3557 H 0.80931 0.82013 0.0519 0.0
H3558 H 0.97217 0.68346 0.99569 0.0
N3559 N 0.90126 0.69813 0.02368 0.0
C3560 C 0.89127 0.68307 0.03293 0.0
C3561 C 0.92109 0.66383 0.03511 0.0
C3562 C 0.93061 0.6778 0.02329 0.0
C3563 C 0.90115 0.66615 0.03935 0.0
C3564 C 0.92027 0.69503 0.0176 0.0
H3565 H 0.96777 0.71155 0.97222 0.0
N3566 N 0.91914 0.72474 0.99873 0.0
C3567 C 0.94313 0.7313 0.97346 0.0
C3568 C 0.92895 0.70806 1.00412 0.0
C3569 C 0.92566 0.73604 0.98321 0.0
C3570 C 0.95407 0.71501 0.97964 0.0
C3571 C 0.9472 0.70334 0.99526 0.0
O3572 O 0.88234 0.74244 0.98548 0.0
O3573 O 0.86501 0.75514 0.02188 0.0
O3574 O 0.86083 0.74276 0.05862 0.0
O3575 O 0.86973 0.7162 0.03858 0.0
O3576 O 0.85475 0.72774 1.01367 0.0
O3577 O 0.88507 0.71025 0.99216 0.0
O3578 O 0.87431 0.77775 0.07765 0.0
O3579 O 0.90143 0.74099 0.04271 0.0
O3580 O 0.92214 0.745 0.02065 0.0
O3581 O 0.91899 0.7699 0.04299 0.0
O3582 O 0.88986 0.74194 0.0708 0.0
O3583 O 0.90052 0.78962 0.06402 0.0
C3584 C 0.84805 0.74511 0.01849 0.0
C3585 C 0.87358 0.7173 0.96031 0.0
C3586 C 0.8611 0.6887 0.94241 0.0
C3587 C 0.8635 0.69914 0.96001 0.0
C3588 C 0.86734 0.69755 0.92469 0.0
C3589 C 0.87957 0.72604 0.94262 0.0
C3590 C 0.87617 0.71628 0.92481 0.0
C3591 C 0.85894 0.72411 0.05281 0.0
C3592 C 0.88204 0.72405 0.97893 0.0
C3593 C 0.95784 0.6869 1.00188 0.0
C3594 C 0.94973 0.67437 0.01612 0.0
C3595 C 0.90092 0.73216 0.05906 0.0
C3596 C 0.90061 0.7849 0.09859 0.0
C3597 C 0.91148 0.80024 0.1071 0.0
C3598 C 0.92102 0.79717 0.12511 0.0
C3599 C 0.92018 0.77871 0.13445 0.0
C3600 C 0.89911 0.76662 0.10853 0.0
C3601 C 0.90908 0.76352 0.12621 0.0
C3602 C 0.93143 0.75916 0.03149 0.0
C3603 C 0.89 0.78845 0.08006 0.0
H3604 H 0.85865 0.69251 0.97374 0.0
H3605 H 0.86594 0.68982 0.91081 0.0
H3606 H 0.88782 0.73979 0.94266 0.0
H3607 H 0.8812 0.72283 0.91116 0.0
H3608 H 0.91204 0.81465 0.1001 0.0
H3609 H 0.92731 0.7764 0.14857 0.0
H3610 H 0.88974 0.75488 0.1032 0.0
H3611 H 0.9076 0.74958 0.13387 0.0
Eu3612 Eu 0.63975 0.2624 0.55172 0.0
C3613 C 0.60317 0.2773 0.47962 0.0
C3614 C 0.61628 0.24765 0.46473 0.0
C3615 C 0.58684 0.26307 0.45107 0.0
C3616 C 0.61766 0.26283 0.47882 0.0
C3617 C 0.58771 0.27767 0.46566 0.0
C3618 C 0.60095 0.24799 0.45072 0.0
C3619 C 0.57426 0.30607 0.48245 0.0
N3620 N 0.60389 0.29073 0.49435 0.0
C3621 C 0.58944 0.30468 0.49634 0.0
C3622 C 0.57344 0.29257 0.46695 0.0
Eu3623 Eu 0.63398 0.29187 0.51159 0.0
N3624 N 0.63265 0.26316 0.49222 0.0
C3625 C 0.64565 0.24792 0.4935 0.0
C3626 C 0.63017 0.23241 0.46534 0.0
C3627 C 0.6447 0.23237 0.48001 0.0
H3628 H 0.5899 0.31533 0.50816 0.0
H3629 H 0.65519 0.22038 0.4809 0.0
H3630 H 0.5998 0.23655 0.43964 0.0
H3631 H 0.56318 0.31747 0.48378 0.0
H3632 H 0.65667 0.24756 0.50492 0.0
H3633 H 0.65579 0.30815 0.6177 0.0
H3634 H 0.62956 0.2204 0.45483 0.0
H3635 H 0.66524 0.22355 0.53344 0.0
H3636 H 0.63529 0.29643 0.59122 0.0
H3637 H 0.69645 0.20613 0.54045 0.0
H3638 H 0.57508 0.26309 0.44022 0.0
H3639 H 0.68855 0.29369 0.62374 0.0
H3640 H 0.71399 0.26906 0.615 0.0
H3641 H 0.56148 0.29349 0.45637 0.0
H3642 H 0.72496 0.24156 0.59439 0.0
N3643 N 0.65618 0.27506 0.58031 0.0
C3644 C 0.64946 0.28955 0.59276 0.0
C3645 C 0.67958 0.28823 0.61165 0.0
C3646 C 0.68624 0.27298 0.59957 0.0
C3647 C 0.66111 0.29643 0.6083 0.0
C3648 C 0.67419 0.26652 0.58372 0.0
H3649 H 0.7185 0.21803 0.56697 0.0
N3650 N 0.66977 0.24524 0.55578 0.0
C3651 C 0.69233 0.21884 0.54914 0.0
C3652 C 0.68084 0.25109 0.57161 0.0
C3653 C 0.67464 0.22864 0.54531 0.0
C3654 C 0.7047 0.2256 0.56416 0.0
C3655 C 0.699 0.24171 0.5757 0.0
O3656 O 0.63243 0.231 0.54904 0.0
O3657 O 0.61643 0.26589 0.52582 0.0
O3658 O 0.6124 0.30386 0.53515 0.0
O3659 O 0.62073 0.28639 0.5636 0.0
O3660 O 0.60566 0.25905 0.55297 0.0
O3661 O 0.63312 0.24642 0.57828 0.0
O3662 O 0.62544 0.3226 0.50844 0.0
O3663 O 0.64417 0.29241 0.54168 0.0
O3664 O 0.67244 0.26576 0.53571 0.0
O3665 O 0.66884 0.28313 0.50685 0.0
O3666 O 0.66124 0.30815 0.52247 0.0
O3667 O 0.63806 0.30667 0.48325 0.0
C3668 C 0.59923 0.26307 0.53541 0.0
C3669 C 0.62479 0.21181 0.57872 0.0
C3670 C 0.61065 0.19577 0.60753 0.0
C3671 C 0.61545 0.213 0.59713 0.0
C3672 C 0.61558 0.17731 0.59948 0.0
C3673 C 0.6295 0.19333 0.57081 0.0
C3674 C 0.62497 0.17614 0.58124 0.0
C3675 C 0.61017 0.29985 0.55423 0.0
C3676 C 0.63049 0.2299 0.5684 0.0
C3677 C 0.71088 0.24846 0.59125 0.0
C3678 C 0.7046 0.2641 0.60301 0.0
C3679 C 0.65929 0.3031 0.54069 0.0
C3680 C 0.63081 0.34097 0.4792 0.0
C3681 C 0.64845 0.35156 0.47928 0.0
C3682 C 0.64924 0.36966 0.46962 0.0
C3683 C 0.63249 0.3773 0.4601 0.0
C3684 C 0.61395 0.3485 0.46984 0.0
C3685 C 0.61481 0.3667 0.46029 0.0
C3686 C 0.68131 0.27386 0.51965 0.0
C3687 C 0.62926 0.32253 0.48966 0.0
H3688 H 0.61169 0.22728 0.60327 0.0
H3689 H 0.61232 0.16378 0.60741 0.0
H3690 H 0.637 0.19221 0.55677 0.0
H3691 H 0.62884 0.16188 0.57523 0.0
H3692 H 0.66144 0.34573 0.48662 0.0
H3693 H 0.6332 0.39135 0.45244 0.0
H3694 H 0.60014 0.34035 0.47002 0.0
H3695 H 0.60185 0.37255 0.45301 0.0
Eu3696 Eu 0.26329 0.47976 0.14462 0.0
C3697 C 0.24947 0.54647 0.10566 0.0
C3698 C 0.28036 0.56043 0.11747 0.0
C3699 C 0.26591 0.57228 0.08684 0.0
C3700 C 0.26418 0.54751 0.12005 0.0
C3701 C 0.25012 0.559 0.08905 0.0
C3702 C 0.28104 0.5729 0.10091 0.0
C3703 C 0.21944 0.54446 0.07787 0.0
N3704 N 0.2346 0.53319 0.10784 0.0
C3705 C 0.21977 0.53186 0.09415 0.0
C3706 C 0.23477 0.558 0.07521 0.0
Eu3707 Eu 0.23344 0.51722 0.13864 0.0
N3708 N 0.26303 0.53552 0.13619 0.0
C3709 C 0.27809 0.53485 0.14951 0.0
C3710 C 0.29553 0.5603 0.1315 0.0
C3711 C 0.29451 0.54726 0.14742 0.0
H3712 H 0.20801 0.52112 0.09567 0.0
H3713 H 0.30638 0.54677 0.15811 0.0
H3714 H 0.29329 0.58305 0.09882 0.0
H3715 H 0.2075 0.54349 0.06728 0.0
H3716 H 0.27769 0.52472 0.16164 0.0
H3717 H 0.21703 0.41428 0.16297 0.0
H3718 H 0.30824 0.56996 0.12999 0.0
H3719 H 0.30145 0.49984 0.17063 0.0
H3720 H 0.22594 0.4429 0.14406 0.0
H3721 H 0.32045 0.49245 0.20064 0.0
H3722 H 0.26663 0.58204 0.07419 0.0
H3723 H 0.23552 0.40563 0.19298 0.0
H3724 H 0.26226 0.41342 0.21668 0.0
H3725 H 0.23464 0.56755 0.0624 0.0
H3726 H 0.28972 0.43464 0.22712 0.0
N3727 N 0.25153 0.45073 0.16134 0.0
C3728 C 0.23548 0.43934 0.15611 0.0
C3729 C 0.24016 0.41825 0.18427 0.0
C3730 C 0.25601 0.43013 0.19018 0.0
C3731 C 0.22979 0.42298 0.16728 0.0
C3732 C 0.26142 0.44664 0.17847 0.0
H3733 H 0.31128 0.46388 0.22137 0.0
N3734 N 0.28136 0.47568 0.1743 0.0
C3735 C 0.30815 0.48308 0.19645 0.0
C3736 C 0.2768 0.45908 0.18484 0.0
C3737 C 0.29738 0.48714 0.1794 0.0
C3738 C 0.30294 0.46691 0.20807 0.0
C3739 C 0.28725 0.45465 0.20234 0.0
O3740 O 0.2942 0.48695 0.13759 0.0
O3741 O 0.25939 0.50451 0.12026 0.0
O3742 O 0.22061 0.49227 0.11827 0.0
O3743 O 0.24099 0.46551 0.12519 0.0
O3744 O 0.26557 0.47678 0.11027 0.0
O3745 O 0.2826 0.45575 0.13905 0.0
O3746 O 0.20282 0.52166 0.13062 0.0
O3747 O 0.23237 0.48715 0.14947 0.0
O3748 O 0.25968 0.49485 0.17748 0.0
O3749 O 0.24232 0.52333 0.17341 0.0
O3750 O 0.21752 0.5068 0.16635 0.0
O3751 O 0.2206 0.54662 0.14168 0.0
C3752 C 0.26149 0.49427 0.10336 0.0
C3753 C 0.31656 0.45947 0.13076 0.0
C3754 C 0.33286 0.43045 0.11806 0.0
C3755 C 0.31619 0.44237 0.11939 0.0
C3756 C 0.35059 0.43675 0.12703 0.0
C3757 C 0.3342 0.4659 0.13946 0.0
C3758 C 0.35128 0.4546 0.13737 0.0
C3759 C 0.22585 0.47339 0.11566 0.0
C3760 C 0.29775 0.46779 0.13651 0.0
C3761 C 0.2819 0.43814 0.21363 0.0
C3762 C 0.26629 0.42601 0.20764 0.0
C3763 C 0.22198 0.48835 0.1648 0.0
C3764 C 0.18669 0.55218 0.13417 0.0
C3765 C 0.17517 0.55116 0.15092 0.0
C3766 C 0.15745 0.56121 0.15124 0.0
C3767 C 0.15104 0.57222 0.13492 0.0
C3768 C 0.18057 0.56299 0.11762 0.0
C3769 C 0.16266 0.57304 0.11803 0.0
C3770 C 0.25166 0.51089 0.18621 0.0
C3771 C 0.2043 0.54067 0.1332 0.0
H3772 H 0.30248 0.43788 0.11235 0.0
H3773 H 0.36374 0.42772 0.12648 0.0
H3774 H 0.33451 0.47898 0.14863 0.0
H3775 H 0.36487 0.45926 0.14444 0.0
H3776 H 0.17994 0.5426 0.1636 0.0
H3777 H 0.13718 0.58017 0.13536 0.0
H3778 H 0.1895 0.56345 0.10441 0.0
H3779 H 0.1578 0.5814 0.10533 0.0
Eu3780 Eu 0.30497 0.51151 0.89225 0.0
C3781 C 0.23815 0.49222 0.85267 0.0
C3782 C 0.22406 0.52459 0.85887 0.0
C3783 C 0.21402 0.50587 0.8299 0.0
C3784 C 0.23666 0.50907 0.86445 0.0
C3785 C 0.22688 0.49056 0.83524 0.0
C3786 C 0.21268 0.52285 0.84162 0.0
C3787 C 0.24192 0.45873 0.82955 0.0
N3788 N 0.25066 0.47758 0.85813 0.0
C3789 C 0.25238 0.46076 0.84719 0.0
C3790 C 0.2291 0.47368 0.82354 0.0
Eu3791 Eu 0.26512 0.482 0.88922 0.0
N3792 N 0.2477 0.51041 0.88119 0.0
C3793 C 0.24704 0.52659 0.89299 0.0
C3794 C 0.22327 0.54141 0.87085 0.0
C3795 C 0.23486 0.54244 0.88793 0.0
H3796 H 0.2614 0.44862 0.85224 0.0
H3797 H 0.23428 0.55537 0.89726 0.0
H3798 H 0.20284 0.53461 0.83714 0.0
H3799 H 0.24345 0.44547 0.82081 0.0
H3800 H 0.25582 0.52715 0.90629 0.0
H3801 H 0.38099 0.48211 0.88835 0.0
H3802 H 0.21377 0.55368 0.86705 0.0
H3803 H 0.29064 0.55025 0.92032 0.0
H3804 H 0.34928 0.49253 0.87427 0.0
H3805 H 0.30114 0.5666 0.9511 0.0
H3806 H 0.20524 0.50485 0.81658 0.0
H3807 H 0.38915 0.48977 0.92295 0.0
H3808 H 0.38055 0.50761 0.95393 0.0
H3809 H 0.22089 0.472 0.80993 0.0
H3810 H 0.35908 0.53123 0.97089 0.0
N3811 N 0.33804 0.50372 0.90153 0.0
C3812 C 0.35204 0.49519 0.88972 0.0
C3813 C 0.37488 0.49396 0.91704 0.0
C3814 C 0.36156 0.50485 0.92833 0.0
C3815 C 0.37032 0.48959 0.8975 0.0
C3816 C 0.3431 0.5099 0.92 0.0
H3817 H 0.33018 0.55417 0.9694 0.0
N3818 N 0.31373 0.52892 0.92113 0.0
C3819 C 0.30951 0.5543 0.94539 0.0
C3820 C 0.33082 0.5231 0.92987 0.0
C3821 C 0.30374 0.54515 0.92788 0.0
C3822 C 0.32586 0.54717 0.9557 0.0
C3823 C 0.33695 0.53166 0.94782 0.0
O3824 O 0.29429 0.54167 0.88447 0.0
O3825 O 0.2794 0.50628 0.86898 0.0
O3826 O 0.28736 0.46691 0.86882 0.0
O3827 O 0.31628 0.48361 0.87792 0.0
O3828 O 0.30775 0.50774 0.85824 0.0
O3829 O 0.3261 0.53323 0.88416 0.0
O3830 O 0.25312 0.45273 0.89167 0.0
O3831 O 0.29092 0.48706 0.90741 0.0
O3832 O 0.29101 0.50893 0.92661 0.0
O3833 O 0.26227 0.4915 0.9241 0.0
O3834 O 0.28521 0.45791 0.8999 0.0
O3835 O 0.23518 0.47775 0.90102 0.0
C3836 C 0.28959 0.50583 0.85204 0.0
C3837 C 0.31989 0.5661 0.8739 0.0
C3838 C 0.34827 0.58454 0.86069 0.0
C3839 C 0.33761 0.56676 0.86303 0.0
C3840 C 0.34005 0.60188 0.86876 0.0
C3841 C 0.31175 0.58358 0.88104 0.0
C3842 C 0.32179 0.60142 0.87836 0.0
C3843 C 0.30682 0.46929 0.86845 0.0
C3844 C 0.31287 0.54698 0.88142 0.0
C3845 C 0.35443 0.52521 0.95684 0.0
C3846 C 0.36665 0.51175 0.94717 0.0
C3847 C 0.2969 0.46944 0.90961 0.0
C3848 C 0.21955 0.44672 0.89421 0.0
C3849 C 0.21591 0.43129 0.90715 0.0
C3850 C 0.20543 0.41469 0.90097 0.0
C3851 C 0.19651 0.41461 0.88226 0.0
C3852 C 0.21088 0.44679 0.87547 0.0
C3853 C 0.19898 0.43085 0.86968 0.0
C3854 C 0.27493 0.50124 0.93631 0.0
C3855 C 0.23657 0.45862 0.89928 0.0
H3856 H 0.34338 0.55313 0.8571 0.0
H3857 H 0.34784 0.61585 0.86824 0.0
H3858 H 0.29835 0.58329 0.88974 0.0
H3859 H 0.31581 0.61486 0.88452 0.0
H3860 H 0.22285 0.43142 0.9216 0.0
H3861 H 0.18827 0.40184 0.87718 0.0
H3862 H 0.21385 0.45863 0.86519 0.0
H3863 H 0.19246 0.43066 0.85511 0.0
Eu3864 Eu 0.2623 0.54475 0.64501 0.0
C3865 C 0.28 0.47952 0.60469 0.0
C3866 C 0.25025 0.46381 0.61688 0.0
C3867 C 0.26334 0.45465 0.58486 0.0
C3868 C 0.26618 0.47704 0.61958 0.0
C3869 C 0.27879 0.46829 0.58723 0.0
C3870 C 0.24904 0.4525 0.59958 0.0
C3871 C 0.30811 0.48498 0.57555 0.0
N3872 N 0.29444 0.49318 0.60706 0.0
C3873 C 0.30832 0.49621 0.59274 0.0
C3874 C 0.29318 0.47105 0.57268 0.0
Eu3875 Eu 0.29644 0.5083 0.63815 0.0
N3876 N 0.2678 0.48809 0.63628 0.0
C3877 C 0.25314 0.48761 0.65002 0.0
C3878 C 0.23574 0.46261 0.63145 0.0
C3879 C 0.23705 0.47478 0.64794 0.0
H3880 H 0.31975 0.50726 0.59449 0.0
H3881 H 0.22558 0.4744 0.65902 0.0
H3882 H 0.23699 0.44215 0.59737 0.0
H3883 H 0.31942 0.48716 0.56451 0.0
H3884 H 0.25338 0.4972 0.66248 0.0
H3885 H 0.3025 0.6125 0.66748 0.0
H3886 H 0.22323 0.45269 0.62987 0.0
H3887 H 0.22522 0.52012 0.66801 0.0
H3888 H 0.29624 0.58434 0.64674 0.0
H3889 H 0.20576 0.52347 0.69864 0.0
H3890 H 0.26218 0.44587 0.57158 0.0
H3891 H 0.2837 0.6171 0.6981 0.0
H3892 H 0.25798 0.60514 0.7212 0.0
H3893 H 0.29288 0.46253 0.55919 0.0
H3894 H 0.2323 0.58105 0.72986 0.0
N3895 N 0.27196 0.57293 0.66373 0.0
C3896 C 0.28668 0.58617 0.65913 0.0
C3897 C 0.28022 0.60471 0.6886 0.0
C3898 C 0.26557 0.59102 0.69368 0.0
C3899 C 0.2908 0.60224 0.67129 0.0
C3900 C 0.26158 0.57499 0.68087 0.0
H3901 H 0.21295 0.55077 0.7217 0.0
N3902 N 0.24363 0.54493 0.67425 0.0
C3903 C 0.2174 0.53396 0.69533 0.0
C3904 C 0.24696 0.56103 0.68603 0.0
C3905 C 0.2284 0.53209 0.67807 0.0
C3906 C 0.22148 0.54945 0.70828 0.0
C3907 C 0.23621 0.56329 0.70367 0.0
O3908 O 0.23123 0.5427 0.63719 0.0
O3909 O 0.27207 0.52257 0.62061 0.0
O3910 O 0.30542 0.53503 0.61795 0.0
O3911 O 0.28412 0.56044 0.62696 0.0
O3912 O 0.25213 0.54117 0.61167 0.0
O3913 O 0.24749 0.57168 0.63709 0.0
O3914 O 0.32728 0.50838 0.6293 0.0
O3915 O 0.29387 0.53811 0.64937 0.0
O3916 O 0.26706 0.52852 0.67716 0.0
O3917 O 0.28819 0.50222 0.67314 0.0
O3918 O 0.3113 0.51965 0.66575 0.0
O3919 O 0.31321 0.48088 0.63924 0.0
C3920 C 0.26359 0.52817 0.60376 0.0
C3921 C 0.21239 0.57269 0.63277 0.0
C3922 C 0.19536 0.60163 0.6204 0.0
C3923 C 0.21255 0.59055 0.62251 0.0
C3924 C 0.17754 0.59417 0.62814 0.0
C3925 C 0.19466 0.56527 0.64048 0.0
C3926 C 0.17723 0.57603 0.63805 0.0
C3927 C 0.2988 0.55363 0.61633 0.0
C3928 C 0.23093 0.56191 0.63356 0.0
C3929 C 0.24036 0.57921 0.71622 0.0
C3930 C 0.25498 0.59296 0.71128 0.0
C3931 C 0.30482 0.53755 0.66443 0.0
C3932 C 0.3478 0.48054 0.63297 0.0
C3933 C 0.35641 0.47813 0.65139 0.0
C3934 C 0.37497 0.46955 0.65263 0.0
C3935 C 0.38505 0.46362 0.6356 0.0
C3936 C 0.35778 0.47488 0.61582 0.0
C3937 C 0.37645 0.4664 0.61716 0.0
C3938 C 0.27742 0.5137 0.68579 0.0
C3939 C 0.32858 0.48931 0.63112 0.0
H3940 H 0.22621 0.5957 0.61585 0.0
H3941 H 0.16395 0.60245 0.62681 0.0
H3942 H 0.19426 0.55125 0.64819 0.0
H3943 H 0.16348 0.57036 0.64393 0.0
H3944 H 0.34872 0.48277 0.6646 0.0
H3945 H 0.39957 0.457 0.63663 0.0
H3946 H 0.35112 0.47702 0.60144 0.0
H3947 H 0.38421 0.46199 0.60397 0.0
Eu3948 Eu 0.229 0.51734 0.39318 0.0
C3949 C 0.29448 0.53968 0.35551 0.0
C3950 C 0.31216 0.51011 0.36528 0.0
C3951 C 0.31979 0.52615 0.33411 0.0
C3952 C 0.29807 0.52482 0.36933 0.0
C3953 C 0.30524 0.54037 0.33774 0.0
C3954 C 0.32317 0.51103 0.34778 0.0
C3955 C 0.28537 0.56816 0.32757 0.0
N3956 N 0.27991 0.55292 0.35902 0.0
C3957 C 0.27525 0.5671 0.34543 0.0
C3958 C 0.30053 0.55484 0.32374 0.0
Eu3959 Eu 0.26557 0.55096 0.39045 0.0
N3960 N 0.28708 0.52409 0.38613 0.0
C3961 C 0.28879 0.50862 0.39889 0.0
C3962 C 0.31446 0.49458 0.3787 0.0
C3963 C 0.30257 0.49373 0.39545 0.0
H3964 H 0.26415 0.57807 0.34843 0.0
H3965 H 0.30393 0.48153 0.40568 0.0
H3966 H 0.33411 0.49989 0.34451 0.0
H3967 H 0.28165 0.57943 0.31687 0.0
H3968 H 0.27946 0.50742 0.41159 0.0
H3969 H 0.15904 0.55837 0.40543 0.0
H3970 H 0.32507 0.48296 0.37606 0.0
H3971 H 0.24459 0.47655 0.4178 0.0
H3972 H 0.18481 0.54508 0.38512 0.0
H3973 H 0.23633 0.4584 0.4482 0.0
H3974 H 0.32814 0.52641 0.32052 0.0
H3975 H 0.15525 0.54752 0.43983 0.0
H3976 H 0.16516 0.52466 0.4667 0.0
H3977 H 0.30833 0.55568 0.30985 0.0
H3978 H 0.18532 0.49683 0.47801 0.0
N3979 N 0.19856 0.52788 0.40813 0.0
C3980 C 0.18472 0.54046 0.40022 0.0
C3981 C 0.16728 0.54177 0.43107 0.0
C3982 C 0.17999 0.52742 0.43858 0.0
C3983 C 0.16939 0.54794 0.41168 0.0
C3984 C 0.19574 0.52061 0.42672 0.0
H3985 H 0.21085 0.47136 0.4707 0.0
N3986 N 0.22328 0.49919 0.42255 0.0
C3987 C 0.22835 0.47169 0.44439 0.0
C3988 C 0.20779 0.50541 0.43369 0.0
C3989 C 0.23284 0.48191 0.42708 0.0
C3990 C 0.21395 0.47906 0.45704 0.0
C3991 C 0.20346 0.49605 0.45179 0.0
O3992 O 0.23654 0.48695 0.38394 0.0
O3993 O 0.25484 0.52428 0.37069 0.0
O3994 O 0.24071 0.56435 0.37093 0.0
O3995 O 0.21546 0.54113 0.37419 0.0
O3996 O 0.22745 0.51787 0.3591 0.0
O3997 O 0.20548 0.49813 0.38585 0.0
O3998 O 0.26932 0.5826 0.38613 0.0
O3999 O 0.23523 0.54757 0.40004 0.0
O4000 O 0.24527 0.51839 0.42611 0.0
O4001 O 0.27058 0.5408 0.42469 0.0
O4002 O 0.25222 0.56344 0.41868 0.0
O4003 O 0.29325 0.56522 0.39894 0.0
C4004 C 0.24518 0.52246 0.3533 0.0
C4005 C 0.20871 0.46499 0.3749 0.0
C4006 C 0.17933 0.44809 0.36355 0.0
C4007 C 0.1891 0.46541 0.36847 0.0
C4008 C 0.18924 0.42999 0.36446 0.0
C4009 C 0.2188 0.44697 0.37584 0.0
C4010 C 0.20902 0.42948 0.37055 0.0
C4011 C 0.22271 0.55762 0.3664 0.0
C4012 C 0.21741 0.4834 0.38193 0.0
C4013 C 0.18846 0.5035 0.46383 0.0
C4014 C 0.17696 0.51933 0.45737 0.0
C4015 C 0.23469 0.55653 0.41611 0.0
C4016 C 0.301 0.59737 0.38706 0.0
C4017 C 0.30386 0.61396 0.39887 0.0
C4018 C 0.31713 0.62877 0.39324 0.0
C4019 C 0.32717 0.62709 0.37523 0.0
C4020 C 0.31143 0.5954 0.3694 0.0
C4021 C 0.32432 0.61042 0.36339 0.0
C4022 C 0.25946 0.52861 0.43612 0.0
C4023 C 0.28689 0.58271 0.39398 0.0
H4024 H 0.18109 0.47925 0.36759 0.0
H4025 H 0.18166 0.41639 0.36068 0.0
H4026 H 0.23393 0.44639 0.38103 0.0
H4027 H 0.21668 0.41551 0.37144 0.0
H4028 H 0.29578 0.6153 0.41261 0.0
H4029 H 0.33762 0.63834 0.37062 0.0
H4030 H 0.30979 0.58237 0.36041 0.0
H4031 H 0.33234 0.60901 0.34969 0.0
C4032 C 0.0152 0.46549 0.26418 0.0
C4033 C 0.03148 0.45496 0.27306 0.0
C4034 C 1.01366 0.48746 0.26209 0.0
C4035 C 0.02859 0.50171 0.26871 0.0
C4036 C 0.045 0.49107 0.27757 0.0
C4037 C 0.0462 0.46926 0.27918 0.0
C4038 C 0.99564 0.49554 0.252 0.0
C4039 C 0.06214 0.50253 0.28603 0.0
C4040 C 0.03902 0.55936 0.24939 0.0
C4041 C 0.02809 0.5734 0.26108 0.0
C4042 C 0.03913 0.53753 0.25146 0.0
C4043 C 0.02763 0.52654 0.26584 0.0
C4044 C 0.01599 0.54042 0.27754 0.0
C4045 C 0.01654 0.56243 0.27531 0.0
C4046 C 0.0524 0.52606 0.23792 0.0
C4047 C 1.00261 0.53226 0.29324 0.0
H4048 H 1.0036 0.45647 0.2579 0.0
H4049 H 0.05961 0.46325 0.28547 0.0
H4050 H 0.98643 0.50342 0.26294 0.0
H4051 H 1.00002 0.5064 0.24051 0.0
H4052 H 0.98653 0.48373 0.24512 0.0
H4053 H 0.07604 0.4978 0.27881 0.0
H4054 H 0.06064 0.51875 0.28448 0.0
H4055 H 0.06358 0.49897 0.30192 0.0
H4056 H 0.048 0.56552 0.23791 0.0
H4057 H 1.00798 0.57115 0.28553 0.0
H4058 H 0.04454 0.5129 0.23201 0.0
H4059 H 0.06541 0.52075 0.24634 0.0
H4060 H 0.05784 0.53519 0.22542 0.0
H4061 H 0.98727 0.53185 0.28744 0.0
H4062 H 1.00267 0.54201 0.30637 0.0
H4063 H 1.0068 0.5171 0.29784 0.0
C4064 C 0.80993 0.79741 0.52274 0.0
C4065 C 0.82392 0.78174 0.51907 0.0
C4066 C 0.78811 0.79626 0.52099 0.0
C4067 C 0.77724 0.77856 0.51562 0.0
C4068 C 0.79109 0.76257 0.51169 0.0
C4069 C 0.81309 0.76443 0.51278 0.0
C4070 C 0.77655 0.81482 0.52472 0.0
C4071 C 0.78247 0.74282 0.50623 0.0
C4072 C 0.71756 0.77289 0.52976 0.0
C4073 C 0.70557 0.77516 0.51227 0.0
C4074 C 0.73947 0.77348 0.53089 0.0
C4075 C 0.75241 0.77701 0.51421 0.0
C4076 C 0.74055 0.77985 0.49647 0.0
C4077 C 0.71852 0.77927 0.49583 0.0
C4078 C 0.74893 0.77078 0.55077 0.0
C4079 C 0.75123 0.78467 0.47765 0.0
H4080 H 0.81623 0.81152 0.52687 0.0
H4081 H 0.82181 0.75213 0.50787 0.0
H4082 H 0.76506 0.81685 0.51319 0.0
H4083 H 0.7689 0.81358 0.5391 0.0
H4084 H 0.78617 0.82815 0.52506 0.0
H4085 H 0.79403 0.73186 0.50256 0.0
H4086 H 0.7736 0.73709 0.51876 0.0
H4087 H 0.77233 0.7444 0.49348 0.0
H4088 H 0.70951 0.77101 0.54341 0.0
H4089 H 0.71144 0.78278 0.482 0.0
H4090 H 0.75534 0.78505 0.55572 0.0
H4091 H 0.7612 0.75999 0.54985 0.0
H4092 H 0.73817 0.76565 0.56203 0.0
H4093 H 0.75658 0.80019 0.4783 0.0
H4094 H 0.7415 0.78302 0.46456 0.0
H4095 H 0.76434 0.77507 0.47584 0.0
C4096 C 0.48385 0.46556 0.7728 0.0
C4097 C 0.50023 0.45295 0.76755 0.0
C4098 C 0.48385 0.48739 0.77399 0.0
C4099 C 0.50069 0.49988 0.76928 0.0
C4100 C 0.51744 0.48744 0.76378 0.0
C4101 C 0.51716 0.46536 0.7636 0.0
C4102 C 0.465 0.49684 0.7809 0.0
C4103 C 0.53633 0.4972 0.75721 0.0
C4104 C 0.48943 0.55982 0.75886 0.0
C4105 C 0.50024 0.57146 0.77308 0.0
C4106 C 0.48955 0.53787 0.75735 0.0
C4107 C 0.50065 0.52478 0.77037 0.0
C4108 C 0.51123 0.53647 0.78499 0.0
C4109 C 0.51092 0.55838 0.786 0.0
C4110 C 0.47714 0.52878 0.74131 0.0
C4111 C 0.52288 0.52566 0.8005 0.0
H4112 H 0.47019 0.4581 0.7766 0.0
H4113 H 0.53078 0.45793 0.76056 0.0
H4114 H 0.46733 0.51203 0.78656 0.0
H4115 H 0.45439 0.49737 0.76844 0.0
H4116 H 0.45807 0.48781 0.79272 0.0
H4117 H 0.53933 0.49299 0.74172 0.0
H4118 H 0.53589 0.51354 0.75793 0.0
H4119 H 0.54884 0.49173 0.76627 0.0
H4120 H 0.48042 0.56796 0.74847 0.0
H4121 H 0.51914 0.56539 0.79767 0.0
H4122 H 0.46203 0.52609 0.74705 0.0
H4123 H 0.48329 0.5145 0.73624 0.0
H4124 H 0.47583 0.5389 0.72848 0.0
H4125 H 0.51403 0.51323 0.80661 0.0
H4126 H 0.52749 0.53551 0.81275 0.0
H4127 H 0.53636 0.51933 0.79379 0.0
C4128 C 0.81202 0.23546 1.01348 0.0
C4129 C 0.82433 0.25297 1.01351 0.0
C4130 C 0.79002 0.23501 1.01395 0.0
C4131 C 0.77751 0.25242 1.01532 0.0
C4132 C 0.78986 0.27011 0.01573 0.0
C4133 C 0.81182 0.27017 1.01434 0.0
C4134 C 0.78 0.21517 1.01256 0.0
C4135 C 0.77979 0.28971 0.01817 0.0
C4136 C 0.71715 0.25727 1.00201 0.0
C4137 C 0.70574 0.25118 0.01893 0.0
C4138 C 0.73914 0.25761 1.00062 0.0
C4139 C 0.75259 0.25212 0.01655 0.0
C4140 C 0.74112 0.2459 0.03362 0.0
C4141 C 0.71921 0.24498 0.03425 0.0
C4142 C 0.74793 0.26324 0.98106 0.0
C4143 C 0.75184 0.23965 0.05202 0.0
H4144 H 0.81972 0.22151 1.0125 0.0
H4145 H 0.81937 0.28429 1.01444 0.0
H4146 H 0.77446 0.21083 0.02731 0.0
H4147 H 0.76712 0.21586 1.00242 0.0
H4148 H 0.79024 0.20352 1.00734 0.0
H4149 H 0.79036 0.30155 0.02247 0.0
H4150 H 0.77277 0.29402 1.00407 0.0
H4151 H 0.76799 0.28866 0.02949 0.0
H4152 H 0.70873 0.26124 0.98902 0.0
H4153 H 0.71249 0.23924 0.04753 0.0
H4154 H 0.76176 0.25498 0.97816 0.0
H4155 H 0.75145 0.27924 0.98107 0.0
H4156 H 0.73739 0.26043 0.9688 0.0
H4157 H 0.75174 0.22328 0.05294 0.0
H4158 H 0.74405 0.24525 0.06526 0.0
H4159 H 0.76737 0.24496 0.05242 0.0
C4160 C 0.26437 0.01589 0.46644 0.0
C4161 C 0.27106 0.03294 0.45543 0.0
C4162 C 0.2625 0.01465 0.48838 0.0
C4163 C 0.26652 0.03088 0.50205 0.0
C4164 C 0.27267 0.0482 0.49094 0.0
C4165 C 0.27487 0.04882 0.46921 0.0
C4166 C 0.2557 0.99535 0.49704 0.0
C4167 C 0.27675 0.06707 0.50198 0.0
C4168 C 0.24364 0.03006 0.55938 0.0
C4169 C 0.25972 0.02918 0.57342 0.0
C4170 C 0.24547 0.03101 0.53755 0.0
C4171 C 0.26409 0.03005 0.52684 0.0
C4172 C 0.28038 0.02878 0.54089 0.0
C4173 C 0.27815 0.02884 0.56275 0.0
C4174 C 0.2267 0.03349 0.52591 0.0
C4175 C 0.3009 0.02685 0.53269 0.0
H4176 H 0.25982 1.00325 0.45787 0.0
H4177 H 0.27954 0.06272 0.46277 0.0
H4178 H 0.26442 0.99169 0.51042 0.0
H4179 H 0.23999 0.99662 0.50144 0.0
H4180 H 0.25689 0.98304 0.48636 0.0
H4181 H 0.27394 0.08022 0.49258 0.0
H4182 H 0.26759 0.0682 0.51547 0.0
H4183 H 0.29254 0.06749 0.50637 0.0
H4184 H 0.22895 0.03071 0.56555 0.0
H4185 H 0.29142 0.02814 0.57165 0.0
H4186 H 0.22129 0.01877 0.52116 0.0
H4187 H 0.22918 0.04268 0.51257 0.0
H4188 H 0.21491 0.04038 0.53492 0.0
H4189 H 0.30125 0.01486 0.52155 0.0
H4190 H 0.312 0.02365 0.54433 0.0
H4191 H 0.30518 0.04076 0.52516 0.0
C4192 C 0.22761 0.01952 0.71902 0.0
C4193 C 0.24384 0.01936 0.70521 0.0
C4194 C 0.22887 0.01753 0.74071 0.0
C4195 C 0.24726 0.01613 0.75173 0.0
C4196 C 0.26387 0.01593 0.73799 0.0
C4197 C 0.26195 0.0167 0.71613 0.0
C4198 C 0.20953 0.01618 0.75156 0.0
C4199 C 0.28456 0.01483 0.74608 0.0
C4200 C 0.2441 0.028 0.81211 0.0
C4201 C 0.25205 1.01144 0.82282 0.0
C4202 C 0.24266 0.0297 0.7903 0.0
C4203 C 0.24892 0.01449 0.77644 0.0
C4204 C 0.25643 0.9975 0.78731 0.0
C4205 C 0.25776 0.99635 0.80908 0.0
C4206 C 0.23405 0.04853 0.78231 0.0
C4207 C 0.26281 0.97935 0.77629 0.0
H4208 H 0.21297 0.02075 0.71267 0.0
H4209 H 0.2751 0.01441 0.70768 0.0
H4210 H 0.21115 1.01016 0.76668 0.0
H4211 H 0.20288 0.0311 0.75237 0.0
H4212 H 0.19899 1.00662 0.74334 0.0
H4213 H 0.29369 0.02679 0.73961 0.0
H4214 H 0.28525 0.01624 0.76233 0.0
H4215 H 0.29132 1.00061 0.74166 0.0
H4216 H 0.2388 0.0402 0.8209 0.0
H4217 H 0.26303 0.98275 0.81543 0.0
H4218 H 0.21771 0.04707 0.78186 0.0
H4219 H 0.23941 0.05188 0.76723 0.0
H4220 H 0.23763 0.06122 0.79205 0.0
H4221 H 0.25397 0.96646 0.7814 0.0
H4222 H 0.2785 0.97615 0.77983 0.0
H4223 H 0.26111 0.98062 0.76012 0.0
C4224 C 0.25252 1.00517 0.06041 0.0
C4225 C 0.26907 0.99859 0.07201 0.0
C4226 C 0.25161 1.00578 0.03853 0.0
C4227 C 0.26707 0.99846 0.02545 0.0
C4228 C 0.28363 0.99133 0.03724 0.0
C4229 C 0.28462 0.9922 0.05905 0.0
C4230 C 0.23359 0.01531 0.02973 0.0
C4231 C 0.30099 0.98205 0.02705 0.0
C4232 C 0.25011 0.98746 0.96737 0.0
C4233 C 0.264 0.99653 0.95401 0.0
C4234 C 0.25091 0.98778 0.98916 0.0
C4235 C 0.26593 0.99811 1.00063 0.0
C4236 C 0.27976 1.00794 0.98722 0.0
C4237 C 0.27893 1.00666 0.96534 0.0
C4238 C 0.2351 0.97616 0.9997 0.0
C4239 C 0.29608 0.02048 0.99567 0.0
H4240 H 0.24 1.01079 0.06854 0.0
H4241 H 0.29809 0.98721 0.06606 0.0
H4242 H 0.23564 0.01948 1.01406 0.0
H4243 H 0.22088 1.00497 0.03098 0.0
H4244 H 0.22971 0.0288 0.03815 0.0
H4245 H 0.30662 0.96933 0.03575 0.0
H4246 H 0.29728 0.9768 1.01201 0.0
H4247 H 0.31316 0.99304 0.0261 0.0
H4248 H 0.23779 0.97992 0.96071 0.0
H4249 H 0.29057 1.01382 0.957 0.0
H4250 H 0.2215 0.98522 1.00049 0.0
H4251 H 0.23958 0.97186 1.01483 0.0
H4252 H 0.23122 0.96258 0.99138 0.0
H4253 H 0.29783 0.03423 0.98688 0.0
H4254 H 0.31021 1.01229 0.99465 0.0
H4255 H 0.29344 0.02458 1.01125 0.0
C4256 C 0.30063 0.01474 0.21748 0.0
C4257 C 0.28409 1.01225 0.20414 0.0
C4258 C 0.29996 0.01664 0.23925 0.0
C4259 C 0.28199 0.01597 0.25095 0.0
C4260 C 0.26502 1.01354 0.23771 0.0
C4261 C 0.26621 1.01231 0.21574 0.0
C4262 C 0.31948 0.01977 0.24948 0.0
C4263 C 0.24472 1.0116 0.2465 0.0
C4264 C 0.28818 1.00516 0.31155 0.0
C4265 C 0.28006 0.02154 0.32242 0.0
C4266 C 0.28866 1.00314 0.2897 0.0
C4267 C 0.28116 0.0178 0.2758 0.0
C4268 C 0.27338 0.03459 0.28671 0.0
C4269 C 0.27284 0.03606 0.30859 0.0
C4270 C 0.2977 0.9846 0.28158 0.0
C4271 C 0.26617 0.05208 0.27508 0.0
H4272 H 0.31505 0.01571 0.21071 0.0
H4273 H 0.25256 1.01178 0.20768 0.0
H4274 H 0.31784 0.02581 0.26456 0.0
H4275 H 0.32734 1.00544 0.25035 0.0
H4276 H 0.32896 0.03001 0.24081 0.0
H4277 H 0.23846 0.99698 0.24259 0.0
H4278 H 0.2446 1.01283 0.26277 0.0
H4279 H 0.23485 0.023 0.2401 0.0
H4280 H 0.29445 0.99334 0.32029 0.0
H4281 H 0.26688 0.04938 0.31497 0.0
H4282 H 0.31373 0.98717 0.27925 0.0
H4283 H 0.29094 0.98035 0.26729 0.0
H4284 H 0.29612 0.97209 0.29207 0.0
H4285 H 0.27833 0.05778 0.26566 0.0
H4286 H 0.26087 0.06422 0.28468 0.0
H4287 H 0.25392 0.0476 0.26517 0.0
C4288 C 0.46731 0.26288 1.0127 0.0
C4289 C 0.45563 0.27121 0.02841 0.0
C4290 C 0.48933 0.26117 1.01231 0.0
C4291 C 0.50267 0.26829 0.02777 0.0
C4292 C 0.49097 0.27682 0.04357 0.0
C4293 C 0.46905 0.27797 0.04362 0.0
C4294 C 0.49818 0.25111 0.99472 0.0
C4295 C 0.50133 0.28498 0.06148 0.0
C4296 C 0.56091 0.24741 0.02933 0.0
C4297 C 0.57449 0.26389 0.02788 0.0
C4298 C 0.53895 0.24853 0.02973 0.0
C4299 C 0.52763 0.26671 0.02764 0.0
C4300 C 0.54128 0.28339 0.02564 0.0
C4301 C 0.56326 0.28189 0.0262 0.0
C4302 C 0.52794 0.2294 0.03271 0.0
C4303 C 0.53264 0.30344 0.02162 0.0
H4304 H 0.45909 0.25711 1.00025 0.0
H4305 H 0.46259 0.28479 0.05623 0.0
H4306 H 0.51355 0.25611 0.99189 0.0
H4307 H 0.49836 0.23494 0.99748 0.0
H4308 H 0.48913 0.25372 0.98132 0.0
H4309 H 0.49438 0.27899 0.07503 0.0
H4310 H 0.51733 0.28158 0.06191 0.0
H4311 H 0.49942 0.30126 0.06183 0.0
H4312 H 0.56754 0.23294 0.03066 0.0
H4313 H 0.57182 0.29535 0.02466 0.0
H4314 H 0.52622 0.22192 0.01828 0.0
H4315 H 0.51306 0.23171 0.03913 0.0
H4316 H 0.53638 0.21932 0.04251 0.0
H4317 H 0.52691 0.30375 1.00629 0.0
H4318 H 0.54377 0.31543 0.02329 0.0
H4319 H 0.52004 0.3065 0.03151 0.0
C4320 C 0.96645 0.25054 0.99548 0.0
C4321 C 0.95431 0.26597 1.00364 0.0
C4322 C 0.98839 0.25028 0.99533 0.0
C4323 C 1.00084 0.26605 1.00303 0.0
C4324 C 0.98872 0.28196 1.01056 0.0
C4325 C 0.96684 0.28173 1.01065 0.0
C4326 C 0.99842 0.23275 0.98624 0.0
C4327 C 0.99904 0.30035 0.01767 0.0
C4328 C 0.06022 0.2629 0.01888 0.0
C4329 C 0.07215 0.26716 1.00182 0.0
C4330 C 0.03828 0.26191 0.01928 0.0
C4331 C 0.02558 0.26634 1.00254 0.0
C4332 C 0.03751 0.27112 0.98541 0.0
C4333 C 0.05939 0.27092 0.98521 0.0
C4334 C 0.02857 0.25549 0.03816 0.0
C4335 C 0.02738 0.27694 0.96651 0.0
H4336 H 0.95877 0.23832 0.98867 0.0
H4337 H 0.9593 0.29471 0.01606 0.0
H4338 H 1.0066 0.23755 0.9729 0.0
H4339 H 1.00939 0.22656 0.99673 0.0
H4340 H 0.98777 0.22096 0.982 0.0
H4341 H 0.98858 0.3113 0.02383 0.0
H4342 H 1.01014 0.29663 0.02909 0.0
H4343 H 1.00712 0.30725 1.00519 0.0
H4344 H 0.06817 0.25972 0.03236 0.0
H4345 H 0.0665 0.27438 0.97148 0.0
H4346 H 0.0168 0.24441 0.03511 0.0
H4347 H 0.02151 0.26837 0.04528 0.0
H4348 H 0.03935 0.24903 0.04869 0.0
H4349 H 0.02832 0.26452 0.95591 0.0
H4350 H 0.03509 0.2898 0.95978 0.0
H4351 H 1.01162 0.28081 0.96862 0.0
C4352 C 1.00237 0.71687 0.25638 0.0
C4353 C 0.02026 0.70544 0.25603 0.0
C4354 C 1.0013 0.73876 0.25644 0.0
C4355 C 0.01838 0.75181 0.25522 0.0
C4356 C 0.03644 0.74034 0.25421 0.0
C4357 C 0.03713 0.71848 0.25499 0.0
C4358 C 0.98122 0.74808 0.25784 0.0
C4359 C 0.05567 0.75136 0.2521 0.0
C4360 C 0.01502 0.81066 0.23786 0.0
C4361 C 0.01601 0.82289 0.2552 0.0
C4362 C 0.01543 0.78874 0.23764 0.0
C4363 C 0.01745 0.77651 0.25514 0.0
C4364 C 0.01852 0.78878 0.27264 0.0
C4365 C 0.01745 0.81065 0.27249 0.0
C4366 C 1.01334 0.77848 0.2181 0.0
C4367 C 0.02076 0.77857 0.29219 0.0
H4368 H 0.98867 0.70856 0.25702 0.0
H4369 H 0.05144 0.71146 0.25423 0.0
H4370 H 0.98121 0.75964 0.26942 0.0
H4371 H 0.9776 0.7554 0.24366 0.0
H4372 H 0.96948 0.73708 0.26121 0.0
H4373 H 0.06817 0.74135 0.24868 0.0
H4374 H 0.05451 0.76263 0.24025 0.0
H4375 H 0.05901 0.75926 0.26603 0.0
H4376 H 1.01335 0.81833 0.22395 0.0
H4377 H 0.01808 0.8183 0.28645 0.0
H4378 H 1.00008 0.76878 0.2183 0.0
H4379 H 0.02634 0.76889 0.21553 0.0
H4380 H 1.01193 0.78906 0.20566 0.0
H4381 H 1.00751 0.76928 0.29505 0.0
H4382 H 0.02263 0.78918 0.30451 0.0
H4383 H 0.03373 0.76859 0.29184 0.0
C4384 C 0.56169 0.77691 0.51313 0.0
C4385 C 0.5743 0.76589 0.50013 0.0
C4386 C 0.53981 0.77628 0.51352 0.0
C4387 C 0.52775 0.76454 0.50027 0.0
C4388 C 0.54025 0.75361 0.48673 0.0
C4389 C 0.56223 0.75426 0.48691 0.0
C4390 C 0.52938 0.78862 0.52865 0.0
C4391 C 0.53019 0.74121 0.47127 0.0
C4392 C 0.46863 0.74997 0.51048 0.0
C4393 C 0.45635 0.76447 0.50099 0.0
C4394 C 0.49064 0.74985 0.51058 0.0
C4395 C 0.503 0.7642 0.50032 0.0
C4396 C 0.49075 0.77842 0.49013 0.0
C4397 C 0.46891 0.77845 0.49078 0.0
C4398 C 0.50085 0.734 0.52227 0.0
C4399 C 0.50086 0.79404 0.47794 0.0
H4400 H 0.56907 0.78646 0.52345 0.0
H4401 H 0.57006 0.7456 0.47608 0.0
H4402 H 0.52048 0.80014 0.52116 0.0
H4403 H 0.519 0.77923 0.53724 0.0
H4404 H 0.53982 0.79595 0.53896 0.0
H4405 H 0.5409 0.73294 0.4621 0.0
H4406 H 0.51988 0.73056 0.47831 0.0
H4407 H 0.52123 0.75086 0.46152 0.0
H4408 H 0.46115 0.73816 0.51778 0.0
H4409 H 0.4614 0.78994 0.48261 0.0
H4410 H 0.50785 0.74077 0.53544 0.0
H4411 H 0.51279 0.72715 0.51347 0.0
H4412 H 0.49046 0.72227 0.52719 0.0
H4413 H 0.50858 0.80462 0.48779 0.0
H4414 H 0.49029 0.80238 0.46859 0.0
H4415 H 0.51219 0.78725 0.46831 0.0
C4416 C 0.96699 0.75168 0.52623 0.0
C4417 C 0.95581 0.7695 0.52934 0.0
C4418 C 0.98895 0.7502 0.5254 0.0
C4419 C 1.00269 0.76658 0.52894 0.0
C4420 C 0.9914 0.7845 0.53264 0.0
C4421 C 0.96948 0.78575 0.53209 0.0
C4422 C 0.99714 0.73034 0.51991 0.0
C4423 C 1.00237 0.80321 0.5377 0.0
C4424 C 0.06156 0.75236 0.54193 0.0
C4425 C 0.07459 0.76286 0.52869 0.0
C4426 C 0.0396 0.75336 0.54223 0.0
C4427 C 0.02768 0.76518 0.52872 0.0
C4428 C 0.04079 0.77572 0.51515 0.0
C4429 C 0.06278 0.77454 0.51537 0.0
C4430 C 0.02928 0.74125 0.55776 0.0
C4431 C 0.03192 0.78846 0.49929 0.0
H4432 H 0.95843 0.73837 0.52366 0.0
H4433 H 0.96301 0.80013 0.53436 0.0
H4434 H 1.0128 0.73112 0.51517 0.0
H4435 H 0.9959 0.72026 0.53275 0.0
H4436 H 0.98827 0.72376 0.50778 0.0
H4437 H 0.99439 0.81149 0.54929 0.0
H4438 H 0.01763 0.8004 0.54298 0.0
H4439 H 1.00305 0.81283 0.52446 0.0
H4440 H 0.06864 0.74309 0.5528 0.0
H4441 H 0.07084 0.78302 0.50446 0.0
H4442 H 0.02688 0.72608 0.55204 0.0
H4443 H 0.01475 0.74757 0.56183 0.0
H4444 H 0.03851 0.73998 0.57125 0.0
H4445 H 0.03846 0.78458 0.48482 0.0
H4446 H 0.03576 0.80414 0.50222 0.0
H4447 H 0.01564 0.78698 0.49814 0.0
C4448 C 0.99921 0.21568 0.27328 0.0
C4449 C 1.01452 0.20303 0.28089 0.0
C4450 C 0.99974 0.23773 0.27252 0.0
C4451 C 0.01592 0.24995 0.28 0.0
C4452 C 0.03104 0.23737 0.28842 0.0
C4453 C 0.03021 0.21545 0.28858 0.0
C4454 C 0.98243 0.24797 0.26314 0.0
C4455 C 0.04842 0.24724 0.29823 0.0
C4456 C 0.02896 0.30823 0.26421 0.0
C4457 C 0.01983 0.32154 0.278 0.0
C4458 C 0.02758 0.2863 0.26447 0.0
C4459 C 0.0171 0.27482 0.27931 0.0
C4460 C 1.00816 0.28809 0.29358 0.0
C4461 C 1.0093 0.31005 0.29261 0.0
C4462 C 0.03752 0.27517 0.24814 0.0
C4463 C 0.9972 0.27894 0.31059 0.0
H4464 H 0.98615 0.20845 0.26819 0.0
H4465 H 0.04247 0.20777 0.29536 0.0
H4466 H 0.97945 0.26242 0.27018 0.0
H4467 H 0.98587 0.25075 0.2474 0.0
H4468 H 0.96884 0.23875 0.26388 0.0
H4469 H 0.05914 0.23644 0.30429 0.0
H4470 H 0.05619 0.25698 0.28759 0.0
H4471 H 0.04311 0.25676 0.31041 0.0
H4472 H 0.03724 0.31506 0.25249 0.0
H4473 H 1.00195 0.31838 0.30403 0.0
H4474 H 0.02676 0.26499 0.24103 0.0
H4475 H 0.0496 0.266 0.25428 0.0
H4476 H 0.04382 0.28518 0.23677 0.0
H4477 H 0.98355 0.27163 0.30509 0.0
H4478 H 0.99304 0.29002 0.32186 0.0
H4479 H 1.0064 0.26737 0.31767 0.0
C4480 C 0.53186 0.81056 0.77714 0.0
C4481 C 0.51585 0.82398 0.78135 0.0
C4482 C 0.53093 0.78857 0.77753 0.0
C4483 C 0.51318 0.77701 0.78177 0.0
C4484 C 0.49688 0.79045 0.78592 0.0
C4485 C 0.49843 0.81245 0.78598 0.0
C4486 C 0.54982 0.77769 0.77342 0.0
C4487 C 0.47695 0.78164 0.79046 0.0
C4488 C 0.51011 0.71666 0.76667 0.0
C4489 C 0.50946 0.70504 0.78453 0.0
C4490 C 0.51074 0.73877 0.76552 0.0
C4491 C 0.51185 0.75203 0.78249 0.0
C4492 C 0.51195 0.74035 0.80043 0.0
C4493 C 0.51062 0.71847 0.80111 0.0
C4494 C 0.51018 0.7481 0.74544 0.0
C4495 C 0.51438 0.75114 0.81965 0.0
H4496 H 0.54596 0.81736 0.77388 0.0
H4497 H 0.48532 0.82077 0.78963 0.0
H4498 H 0.55044 0.76343 0.78149 0.0
H4499 H 0.55073 0.77457 0.75742 0.0
H4500 H 0.56295 0.78672 0.7775 0.0
H4501 H 0.46488 0.79175 0.78592 0.0
H4502 H 0.47477 0.76719 0.78303 0.0
H4503 H 0.47569 0.77932 0.80658 0.0
H4504 H 0.51079 0.70852 0.75313 0.0
H4505 H 0.51093 0.71161 0.81551 0.0
H4506 H 0.52443 0.75568 0.74252 0.0
H4507 H 0.49839 0.75945 0.74488 0.0
H4508 H 0.50751 0.73711 0.73361 0.0
H4509 H 0.52854 0.7595 0.81953 0.0
H4510 H 0.51432 0.741 0.83253 0.0
H4511 H 0.50234 0.76202 0.82149 0.0
C4512 C 0.98392 0.46886 0.77427 0.0
C4513 C 0.99938 0.45503 0.76938 0.0
C4514 C 0.98489 0.49071 0.77294 0.0
C4515 C 1.00195 0.50176 0.76608 0.0
C4516 C 0.01767 0.48807 0.76077 0.0
C4517 C 0.01611 0.46606 0.76197 0.0
C4518 C 0.96676 0.50216 0.77861 0.0
C4519 C 0.03679 0.49683 0.75358 0.0
C4520 C 0.99828 0.56056 0.74686 0.0
C4521 C 1.00448 0.5734 0.76274 0.0
C4522 C 0.99784 0.53851 0.74749 0.0
C4523 C 1.00314 0.52661 0.76464 0.0
C4524 C 1.00896 0.53948 0.78073 0.0
C4525 C 1.00929 0.56139 0.77967 0.0
C4526 C 0.99092 0.52774 0.72938 0.0
C4527 C 0.01459 0.52995 0.79995 0.0
H4528 H 0.97012 0.46243 0.77906 0.0
H4529 H 0.02811 0.45746 0.75614 0.0
H4530 H 0.97066 0.51384 0.7894 0.0
H4531 H 0.96069 0.50963 0.76536 0.0
H4532 H 0.95507 0.49257 0.78505 0.0
H4533 H 0.04703 0.48543 0.74791 0.0
H4534 H 0.03393 0.50784 0.74179 0.0
H4535 H 0.04411 0.50476 0.76592 0.0
H4536 H 0.99296 0.56777 0.73365 0.0
H4537 H 1.01328 0.5694 0.7929 0.0
H4538 H 0.97693 0.51979 0.73268 0.0
H4539 H 1.00197 0.51649 0.72507 0.0
H4540 H 0.98841 0.53788 0.71675 0.0
H4541 H 1.00133 0.52297 0.80663 0.0
H4542 H 0.02085 0.54075 0.81059 0.0
H4543 H 0.02557 0.51809 0.7974 0.0
C4544 C 0.21778 0.25529 0.49588 0.0
C4545 C 0.20493 0.24924 0.5118 0.0
C4546 C 0.23992 0.25582 0.49659 0.0
C4547 C 0.25194 0.24993 0.51354 0.0
C4548 C 0.23906 0.24358 0.52938 0.0
C4549 C 0.21715 0.24329 0.52829 0.0
C4550 C 0.25073 0.26252 0.47844 0.0
C4551 C 0.24861 0.23666 0.54819 0.0
C4552 C 0.31085 0.23218 0.51121 0.0
C4553 C 0.32393 0.248 0.51752 0.0
C4554 C 0.28896 0.23262 0.50986 0.0
C4555 C 0.27691 0.24959 0.51464 0.0
C4556 C 0.28976 0.26587 0.52084 0.0
C4557 C 0.31187 0.265 0.52192 0.0
C4558 C 0.27854 0.21421 0.50289 0.0
C4559 C 0.27988 0.2849 0.52636 0.0
H4560 H 0.21062 0.25908 0.4822 0.0
H4561 H 0.20927 0.23792 0.5411 0.0
H4562 H 0.26063 0.2751 0.48213 0.0
H4563 H 0.26019 0.25036 0.47298 0.0
H4564 H 0.24051 0.2671 0.46648 0.0
H4565 H 0.23761 0.23243 0.55957 0.0
H4566 H 0.25815 0.22373 0.54517 0.0
H4567 H 0.25827 0.24853 0.55417 0.0
H4568 H 0.31798 0.21864 0.50678 0.0
H4569 H 0.31966 0.27819 0.526 0.0
H4570 H 0.26909 0.21773 0.48998 0.0
H4571 H 0.26869 0.20855 0.51468 0.0
H4572 H 0.289 0.20234 0.49875 0.0
H4573 H 0.27228 0.29111 0.51326 0.0
H4574 H 0.29052 0.29603 0.53201 0.0
H4575 H 0.26843 0.28207 0.53773 0.0
C4576 C 0.54376 0.47086 0.26201 0.0
C4577 C 0.52657 0.45861 0.25875 0.0
C4578 C 0.54401 0.49278 0.26315 0.0
C4579 C 0.52652 0.50519 0.26171 0.0
C4580 C 0.50908 0.49285 0.25863 0.0
C4581 C 0.50939 0.47097 0.25705 0.0
C4582 C 0.56386 0.50256 0.26574 0.0
C4583 C 0.48916 0.50252 0.25706 0.0
C4584 C 0.53085 0.563 0.28255 0.0
C4585 C 0.52667 0.57659 0.26669 0.0
C4586 C 0.53003 0.54111 0.28145 0.0
C4587 C 0.52649 0.52998 0.26346 0.0
C4588 C 0.52335 0.54356 0.24711 0.0
C4589 C 0.52336 0.56546 0.24887 0.0
C4590 C 0.53343 0.5299 0.30029 0.0
C4591 C 0.52093 0.53487 0.22687 0.0
H4592 H 0.55773 0.46322 0.26334 0.0
H4593 H 0.49545 0.46342 0.25487 0.0
H4594 H 0.56411 0.51778 0.25965 0.0
H4595 H 0.5674 0.50329 0.28168 0.0
H4596 H 0.57566 0.49384 0.25851 0.0
H4597 H 0.47785 0.49362 0.26498 0.0
H4598 H 0.48911 0.51776 0.26304 0.0
H4599 H 0.48467 0.503 0.24134 0.0
H4600 H 0.53508 0.56955 0.29648 0.0
H4601 H 0.52145 0.57408 0.23556 0.0
H4602 H 0.54947 0.52705 0.30199 0.0
H4603 H 0.52549 0.51551 0.30032 0.0
H4604 H 0.52858 0.53862 0.31324 0.0
H4605 H 0.53263 0.52375 0.22414 0.0
H4606 H 0.52161 0.5463 0.21514 0.0
H4607 H 0.50647 0.52719 0.22585 0.0
C4608 C 0.30854 0.80064 1.01062 0.0
C4609 C 0.3226 0.7846 1.01052 0.0
C4610 C 0.28679 0.79899 1.01241 0.0
C4611 C 0.27602 0.78045 1.01374 0.0
C4612 C 0.28999 0.76404 1.01373 0.0
C4613 C 0.3119 0.76627 1.01278 0.0
C4614 C 0.27525 0.81793 1.0132 0.0
C4615 C 0.28215 0.74322 1.01419 0.0
C4616 C 0.21863 0.77166 0.03437 0.0
C4617 C 0.20476 0.77551 0.01869 0.0
C4618 C 0.24049 0.77315 0.03306 0.0
C4619 C 0.25126 0.77859 1.01532 0.0
C4620 C 0.23734 0.78268 0.99942 0.0
C4621 C 0.21548 0.78138 1.00129 0.0
C4622 C 0.25225 0.76927 0.05148 0.0
C4623 C 0.24529 0.78871 0.97961 0.0
H4624 H 0.31474 0.81538 1.00954 0.0
H4625 H 0.32058 0.75315 1.01433 0.0
H4626 H 0.2693 0.82123 0.99834 0.0
H4627 H 0.26262 0.81667 0.02355 0.0
H4628 H 0.28468 0.83059 0.01779 0.0
H4629 H 0.28909 0.73498 0.02653 0.0
H4630 H 0.26586 0.74237 0.01561 0.0
H4631 H 0.28641 0.73565 1.00035 0.0
H4632 H 0.21229 0.76788 0.04844 0.0
H4633 H 0.20664 0.78507 0.9885 0.0
H4634 H 0.26316 0.78134 0.0539 0.0
H4635 H 0.26062 0.75533 0.0498 0.0
H4636 H 0.24271 0.76795 0.06471 0.0
H4637 H 0.24421 0.805 0.97812 0.0
H4638 H 0.23625 0.7821 0.96763 0.0
H4639 H 0.26092 0.78433 0.97755 0.0
C4640 C 0.78377 1.00676 0.47041 0.0
C4641 C 0.76785 1.002 0.45701 0.0
C4642 C 0.78268 1.00683 0.49226 0.0
C4643 C 0.76498 1.00224 0.50352 0.0
C4644 C 0.74882 0.99734 0.49013 0.0
C4645 C 0.75042 0.99713 0.46825 0.0
C4646 C 0.80126 1.0115 0.50355 0.0
C4647 C 0.72896 0.99282 0.49899 0.0
C4648 C 0.76247 0.98403 0.56198 0.0
C4649 C 0.76091 1.00087 0.575 0.0
C4650 C 0.76408 0.98427 0.54025 0.0
C4651 C 0.76361 1.00203 0.52831 0.0
C4652 C 0.76236 0.01933 0.54113 0.0
C4653 C 0.76168 0.01861 0.56315 0.0
C4654 C 0.76695 0.96472 0.5301 0.0
C4655 C 0.76201 0.03942 0.53167 0.0
H4656 H 0.79784 1.01013 0.46371 0.0
H4657 H 0.73741 0.99318 0.4598 0.0
H4658 H 0.79905 0.02499 0.5125 0.0
H4659 H 0.80462 0.99922 0.51388 0.0
H4660 H 0.81416 1.01389 0.49373 0.0
H4661 H 0.71815 0.98751 0.48784 0.0
H4662 H 0.7303 0.98152 0.51073 0.0
H4663 H 0.72309 1.0064 0.50595 0.0
H4664 H 0.763 0.96971 0.56904 0.0
H4665 H 0.76219 0.03242 0.57101 0.0
H4666 H 0.77694 0.96622 0.51723 0.0
H4667 H 0.75248 0.95912 0.52478 0.0
H4668 H 0.77316 0.95347 0.54028 0.0
H4669 H 0.77708 0.0459 0.53221 0.0
H4670 H 0.7521 0.04946 0.53985 0.0
H4671 H 0.75706 0.03884 0.51609 0.0
C4672 C 0.76423 0.01815 0.3152 0.0
C4673 C 0.78059 1.0099 0.32604 0.0
C4674 C 0.76243 0.01887 0.29328 0.0
C4675 C 0.7776 1.01219 0.27957 0.0
C4676 C 0.79442 1.00474 0.29046 0.0
C4677 C 0.79549 1.00372 0.31219 0.0
C4678 C 0.74377 0.02722 0.28469 0.0
C4679 C 0.81244 0.99871 0.27903 0.0
C4680 C 0.77352 0.99756 0.21994 0.0
C4681 C 0.77508 0.01536 0.2084 0.0
C4682 C 0.77351 0.99648 0.24182 0.0
C4683 C 0.77641 1.01338 0.25485 0.0
C4684 C 0.7785 0.03134 0.24319 0.0
C4685 C 0.77726 0.03208 0.22138 0.0
C4686 C 0.76979 0.97651 0.2509 0.0
C4687 C 0.78243 0.05062 0.25352 0.0
H4688 H 0.75268 0.02485 0.32384 0.0
H4689 H 0.80899 0.99821 0.31852 0.0
H4690 H 0.74698 0.04188 0.2781 0.0
H4691 H 0.73813 0.01748 0.27277 0.0
H4692 H 0.73207 0.02903 0.29598 0.0
H4693 H 0.82421 0.99253 0.28865 0.0
H4694 H 0.8085 0.98755 0.26778 0.0
H4695 H 0.81847 1.01178 0.27113 0.0
H4696 H 0.77162 0.98394 0.21179 0.0
H4697 H 0.77858 0.04641 0.21436 0.0
H4698 H 0.763 0.9777 0.26572 0.0
H4699 H 0.78398 0.96852 0.2523 0.0
H4700 H 0.75993 0.96747 0.24138 0.0
H4701 H 0.76858 0.05932 0.25389 0.0
H4702 H 0.7935 0.05948 0.24521 0.0
H4703 H 0.78786 0.04858 0.26881 0.0
C4704 C 0.7755 0.04039 0.96964 0.0
C4705 C 0.7599 0.03168 0.95788 0.0
C4706 C 0.77678 0.04017 0.99162 0.0
C4707 C 0.76217 0.03112 1.00469 0.0
C4708 C 0.74623 0.02272 0.99289 0.0
C4709 C 0.74541 0.02313 0.971 0.0
C4710 C 0.79438 0.05003 1.001 0.0
C4711 C 0.72877 1.01384 1.00344 0.0
C4712 C 0.76797 0.01435 0.06422 0.0
C4713 C 0.76472 0.03135 0.07659 0.0
C4714 C 0.76788 1.01413 0.04216 0.0
C4715 C 0.76312 0.03108 0.02961 0.0
C4716 C 0.7589 0.048 0.04203 0.0
C4717 C 0.76019 0.04796 0.06386 0.0
C4718 C 0.77395 0.99524 0.03229 0.0
C4719 C 0.75248 0.06698 0.03241 0.0
H4720 H 0.78722 0.04769 0.96155 0.0
H4721 H 0.73254 0.01682 0.96402 0.0
H4722 H 0.78963 0.06398 1.00807 0.0
H4723 H 0.8007 0.04043 1.01267 0.0
H4724 H 0.80607 0.05361 0.99009 0.0
H4725 H 0.72063 1.0032 0.99395 0.0
H4726 H 0.73322 1.00623 0.0172 0.0
H4727 H 0.71848 0.02588 1.0075 0.0
H4728 H 0.77045 1.00064 0.07171 0.0
H4729 H 0.75709 0.06178 0.07123 0.0
H4730 H 0.79008 0.99591 0.02939 0.0
H4731 H 0.76638 0.9931 0.01796 0.0
H4732 H 0.77099 0.98222 0.04181 0.0
H4733 H 0.76543 0.07701 0.03112 0.0
H4734 H 0.74131 0.07459 0.04162 0.0
H4735 H 0.74612 0.06459 0.01752 0.0
C4736 C 0.7639 0.02395 0.71903 0.0
C4737 C 0.7492 1.01409 0.70704 0.0
C4738 C 0.76382 0.02554 0.74096 0.0
C4739 C 0.74895 0.01673 0.75387 0.0
C4740 C 0.73435 1.00628 0.74184 0.0
C4741 C 0.73452 1.00543 0.71991 0.0
C4742 C 0.78044 0.0371 0.75022 0.0
C4743 C 0.71797 0.99508 0.75194 0.0
C4744 C 0.76085 1.00996 0.81448 0.0
C4745 C 0.747 0.02175 0.8255 0.0
C4746 C 0.7618 1.00835 0.79254 0.0
C4747 C 0.74857 0.01848 0.77878 0.0
C4748 C 0.73468 0.0304 0.78988 0.0
C4749 C 0.73392 0.03146 0.81172 0.0
C4750 C 0.77741 0.99511 0.78414 0.0
C4751 C 0.72026 0.04282 0.77845 0.0
H4752 H 0.77598 0.03087 0.71112 0.0
H4753 H 0.72265 0.99742 0.71275 0.0
H4754 H 0.7762 0.04343 0.76467 0.0
H4755 H 0.7932 0.02712 0.75252 0.0
H4756 H 0.78537 0.04928 0.74039 0.0
H4757 H 0.71573 0.98049 0.74477 0.0
H4758 H 0.72088 0.99267 0.76785 0.0
H4759 H 0.70397 1.00338 0.75026 0.0
H4760 H 0.77101 1.00116 0.82312 0.0
H4761 H 0.72243 0.04037 0.8182 0.0
H4762 H 0.79073 1.00412 0.7808 0.0
H4763 H 0.77235 0.98798 0.77029 0.0
H4764 H 0.78178 0.98347 0.79482 0.0
H4765 H 0.72842 0.05257 0.76808 0.0
H4766 H 0.71094 0.0521 0.78817 0.0
H4767 H 0.71043 0.03319 0.76955 0.0
C4768 C 0.46947 0.78756 0.99645 0.0
C4769 C 0.45566 0.77227 1.00223 0.0
C4770 C 0.49138 0.78564 0.99551 0.0
C4771 C 0.50234 0.76805 1.00119 0.0
C4772 C 0.48851 0.75264 1.00729 0.0
C4773 C 0.46658 0.7547 1.00736 0.0
C4774 C 0.50305 0.80297 0.98785 0.0
C4775 C 0.49707 0.73339 1.01424 0.0
C4776 C 0.5607 0.75715 0.98393 0.0
C4777 C 0.57395 0.76202 0.99997 0.0
C4778 C 0.53873 0.75863 0.9842 0.0
C4779 C 0.52721 0.76585 1.00077 0.0
C4780 C 0.54047 0.77083 0.01699 0.0
C4781 C 0.56239 0.76865 0.01654 0.0
C4782 C 0.52759 0.75207 0.96615 0.0
C4783 C 0.53129 0.77884 0.03545 0.0
H4784 H 0.46302 0.80149 0.99201 0.0
H4785 H 0.45782 0.74212 1.01204 0.0
H4786 H 0.51392 0.80785 0.99912 0.0
H4787 H 0.51154 0.79843 0.97464 0.0
H4788 H 0.49349 0.81564 0.98381 0.0
H4789 H 0.48547 0.72243 0.01818 0.0
H4790 H 0.50663 0.72705 1.00263 0.0
H4791 H 0.50655 0.73606 0.02735 0.0
H4792 H 0.56762 0.75158 0.9707 0.0
H4793 H 0.57066 0.7726 0.02963 0.0
H4794 H 0.5193 0.76473 0.95991 0.0
H4795 H 0.51659 0.74055 0.97019 0.0
H4796 H 0.5375 0.74604 0.95463 0.0
H4797 H 0.52326 0.79268 0.03198 0.0
H4798 H 0.54244 0.78197 0.04707 0.0
H4799 H 0.52029 0.76812 0.04125 0.0
C4800 C 0.96886 0.74943 0.01974 0.0
C4801 C 0.95596 0.761 0.03191 0.0
C4802 C 0.99071 0.75015 0.01974 0.0
C4803 C 1.00239 0.76266 0.03256 0.0
C4804 C 0.9896 0.77433 0.04517 0.0
C4805 C 0.96764 0.77343 0.0447 0.0
C4806 C 1.00156 0.73698 1.00564 0.0
C4807 C 0.9993 0.78825 0.0595 0.0
C4808 C 0.06111 0.75115 0.04513 0.0
C4809 C 0.07372 0.7633 0.03286 0.0
C4810 C 0.03925 0.75084 0.04519 0.0
C4811 C 0.02708 0.76324 0.03279 0.0
C4812 C 0.03949 0.77578 0.02048 0.0
C4813 C 0.06145 0.77556 0.02069 0.0
C4814 C 0.029 0.73674 0.059 0.0
C4815 C 0.02973 0.78993 1.00644 0.0
H4816 H 0.96173 0.73932 1.00983 0.0
H4817 H 0.95953 0.78269 0.05482 0.0
H4818 H 1.01236 0.7458 0.99698 0.0
H4819 H 1.01001 0.72577 1.01408 0.0
H4820 H 0.99143 0.72925 0.99533 0.0
H4821 H 0.98837 0.79637 0.06855 0.0
H4822 H 1.00928 0.77992 0.06946 0.0
H4823 H 1.00855 0.79909 0.05133 0.0
H4824 H 0.06857 0.74131 0.05526 0.0
H4825 H 0.0689 0.78558 1.01129 0.0
H4826 H 0.01927 0.72662 0.05048 0.0
H4827 H 0.01943 0.74508 0.06927 0.0
H4828 H 0.03957 0.72778 0.06774 0.0
H4829 H 0.0303 0.78365 0.99136 0.0
H4830 H 0.03783 0.80423 1.0062 0.0
H4831 H 1.01406 0.79278 1.01023 0.0
C4832 C 0.02606 0.21957 0.76097 0.0
C4833 C 0.01856 0.20624 0.77571 0.0
C4834 C 0.02514 0.24141 0.76176 0.0
C4835 C 0.01716 0.25251 0.77817 0.0
C4836 C 1.00999 0.23916 0.79338 0.0
C4837 C 1.01039 0.21732 0.79184 0.0
C4838 C 0.03284 0.25284 0.74436 0.0
C4839 C 1.00183 0.24802 0.81197 0.0
C4840 C 0.03084 0.31202 0.78594 0.0
C4841 C 1.01394 0.32348 0.78003 0.0
C4842 C 0.03201 0.2901 0.78562 0.0
C4843 C 0.01606 0.27714 0.77917 0.0
C4844 C 0.99888 0.28861 0.77371 0.0
C4845 C 0.99814 0.31041 0.77426 0.0
C4846 C 0.0508 0.28064 0.7927 0.0
C4847 C 0.98073 0.27772 0.76676 0.0
H4848 H 0.03249 0.21286 0.7481 0.0
H4849 H 1.00446 0.20878 0.80398 0.0
H4850 H 0.02172 0.26384 0.73949 0.0
H4851 H 0.04635 0.26109 0.7487 0.0
H4852 H 0.03649 0.24308 0.73176 0.0
H4853 H 1.00054 0.23692 0.82398 0.0
H4854 H 1.01137 0.26038 0.8171 0.0
H4855 H 0.98694 0.25412 0.80898 0.0
H4856 H 0.04363 0.32028 0.79098 0.0
H4857 H 0.98445 0.31739 0.77036 0.0
H4858 H 0.05785 0.27261 0.78037 0.0
H4859 H 0.0474 0.26961 0.80436 0.0
H4860 H 0.06149 0.29163 0.79863 0.0
H4861 H 0.9835 0.27175 0.7518 0.0
H4862 H 0.96756 0.28741 0.76614 0.0
H4863 H 0.9774 0.26501 0.77654 0.0
C4864 C 0.46985 0.24569 0.52018 0.0
C4865 C 0.45707 0.25936 0.53015 0.0
C4866 C 0.49172 0.24628 0.52023 0.0
C4867 C 0.50344 0.26105 0.53049 0.0
C4868 C 0.49066 0.27493 0.54062 0.0
C4869 C 0.46875 0.27389 0.54045 0.0
C4870 C 0.50248 0.23043 0.50912 0.0
C4871 C 0.50025 0.29182 0.55145 0.0
C4872 C 0.5619 0.25648 0.54788 0.0
C4873 C 0.57478 0.26275 0.53206 0.0
C4874 C 0.54011 0.25522 0.54732 0.0
C4875 C 0.52815 0.26167 0.53083 0.0
C4876 C 0.54084 0.26806 0.51468 0.0
C4877 C 0.56282 0.26773 0.51525 0.0
C4878 C 0.52995 0.24607 0.56486 0.0
C4879 C 0.53149 0.276 0.49618 0.0
H4880 H 0.46264 0.23387 0.51219 0.0
H4881 H 0.46064 0.28493 0.5486 0.0
H4882 H 0.51091 0.23719 0.49682 0.0
H4883 H 0.51329 0.22307 0.51899 0.0
H4884 H 0.49228 0.21911 0.50296 0.0
H4885 H 0.48928 0.3014 0.55889 0.0
H4886 H 0.51072 0.28617 0.56266 0.0
H4887 H 0.50893 0.30092 0.54091 0.0
H4888 H 0.56908 0.25179 0.56136 0.0
H4889 H 0.57047 0.27117 0.50197 0.0
H4890 H 0.51657 0.23764 0.56037 0.0
H4891 H 0.5254 0.25785 0.57519 0.0
H4892 H 0.53999 0.23596 0.57297 0.0
H4893 H 0.53789 0.26859 0.48311 0.0
H4894 H 0.53501 0.29199 0.49494 0.0
H4895 H 0.5152 0.27429 0.49586 0.0
C4896 C 0.96801 0.28226 0.50572 0.0
C4897 C 0.95424 0.26679 0.50029 0.0
C4898 C 0.98994 0.28094 0.50567 0.0
C4899 C 1.00101 0.26349 0.50006 0.0
C4900 C 0.9873 0.24782 0.49433 0.0
C4901 C 0.96531 0.24959 0.4944 0.0
C4902 C 1.00154 0.29899 0.5116 0.0
C4903 C 0.99604 0.22848 0.48798 0.0
C4904 C 0.06082 0.26521 0.48425 0.0
C4905 C 0.07272 0.25898 0.50085 0.0
C4906 C 0.03884 0.26654 0.48374 0.0
C4907 C 0.0259 0.26178 0.50022 0.0
C4908 C 0.03778 0.25551 0.51699 0.0
C4909 C 0.05975 0.25427 0.51706 0.0
C4910 C 0.02925 0.27318 0.46486 0.0
C4911 C 0.02705 0.25 0.53558 0.0
H4912 H 0.96153 0.29618 0.5099 0.0
H4913 H 0.95665 0.23693 0.48976 0.0
H4914 H 1.01187 0.29525 0.52376 0.0
H4915 H 1.01061 0.30414 0.49897 0.0
H4916 H 0.99188 0.31127 0.51642 0.0
H4917 H 0.98457 0.21768 0.48327 0.0
H4918 H 1.00648 0.23096 0.47563 0.0
H4919 H 1.00463 0.22203 0.50034 0.0
H4920 H 0.06884 0.26898 0.47098 0.0
H4921 H 0.0669 0.24977 0.53053 0.0
H4922 H 0.02047 0.28671 0.46757 0.0
H4923 H 0.01886 0.26161 0.45957 0.0
H4924 H 0.04022 0.2763 0.45311 0.0
H4925 H 0.01956 0.26323 0.54157 0.0
H4926 H 0.03714 0.24399 0.54701 0.0
H4927 H 0.01543 0.23884 0.53232 0.0
C4928 C 1.00864 0.71745 0.76678 0.0
C4929 C 1.01426 0.70481 0.75062 0.0
C4930 C 1.00999 0.73943 0.76734 0.0
C4931 C 0.01677 0.75183 0.7511 0.0
C4932 C 0.02201 0.73925 0.73448 0.0
C4933 C 0.02105 0.71718 0.73456 0.0
C4934 C 1.00371 0.74947 0.78604 0.0
C4935 C 0.02855 0.74928 0.71578 0.0
C4936 C 1.00142 0.81143 0.74729 0.0
C4937 C 0.01833 0.82395 0.75146 0.0
C4938 C 1.0008 0.78949 0.74717 0.0
C4939 C 0.01759 0.77686 0.75124 0.0
C4940 C 0.03496 0.78922 0.75526 0.0
C4941 C 0.03517 0.81138 0.75514 0.0
C4942 C 0.98148 0.77963 0.74212 0.0
C4943 C 0.05397 0.77885 0.75998 0.0
H4944 H 1.00315 0.70999 0.77973 0.0
H4945 H 0.02539 0.70952 0.72128 0.0
H4946 H 1.01316 0.76255 0.78919 0.0
H4947 H 0.98826 0.75462 0.78437 0.0
H4948 H 1.00427 0.73925 0.79884 0.0
H4949 H 0.02871 0.73896 0.70309 0.0
H4950 H 0.01866 0.76184 0.71223 0.0
H4951 H 0.04366 0.75535 0.71782 0.0
H4952 H 0.98788 0.8191 0.74369 0.0
H4953 H 0.04912 0.81881 0.75739 0.0
H4954 H 0.97603 0.77121 0.75506 0.0
H4955 H 0.98366 0.7689 0.72997 0.0
H4956 H 0.96997 0.79039 0.73765 0.0
H4957 H 0.05263 0.77165 0.77462 0.0
H4958 H 0.06678 0.78917 0.7603 0.0
H4959 H 0.05687 0.76706 0.74905 0.0
C4960 C 0.52277 0.31462 0.26265 0.0
C4961 C 0.51554 0.32693 0.24682 0.0
C4962 C 0.52166 0.29255 0.26363 0.0
C4963 C 0.51281 0.27989 0.24852 0.0
C4964 C 0.50537 0.29217 0.23264 0.0
C4965 C 0.50693 0.31405 0.23202 0.0
C4966 C 0.53086 0.28283 0.28133 0.0
C4967 C 0.49509 0.282 0.21577 0.0
C4968 C 0.52288 0.21942 0.23998 0.0
C4969 C 0.5074 0.20817 0.24953 0.0
C4970 C 0.52485 0.24137 0.23972 0.0
C4971 C 0.51111 0.25496 0.24907 0.0
C4972 C 0.4954 0.24373 0.2586 0.0
C4973 C 0.49383 0.22177 0.25867 0.0
C4974 C 0.54229 0.25017 0.22912 0.0
C4975 C 0.47964 0.25519 0.26909 0.0
H4976 H 0.52965 0.3221 0.27469 0.0
H4977 H 0.50089 0.32136 0.21917 0.0
H4978 H 0.52442 0.26803 0.28431 0.0
H4979 H 0.54692 0.28105 0.27861 0.0
H4980 H 0.52915 0.29218 0.29464 0.0
H4981 H 0.48916 0.2926 0.20477 0.0
H4982 H 0.50552 0.27194 0.20825 0.0
H4983 H 0.48272 0.27279 0.22145 0.0
H4984 H 0.53396 0.21088 0.23233 0.0
H4985 H 0.48132 0.21515 0.26606 0.0
H4986 H 0.54985 0.26116 0.23868 0.0
H4987 H 0.53713 0.25808 0.21576 0.0
H4988 H 0.55311 0.23878 0.22458 0.0
H4989 H 0.48641 0.26369 0.28136 0.0
H4990 H 0.46784 0.24547 0.27515 0.0
H4991 H 0.47287 0.26602 0.25883 0.0
C4992 C 0.54742 0.06176 0.76447 0.0
C4993 C 0.53084 0.07525 0.7644 0.0
C4994 C 0.54669 0.03985 0.76548 0.0
C4995 C 0.52868 0.02824 0.76697 0.0
C4996 C 0.5117 0.04154 0.76712 0.0
C4997 C 0.51291 0.06365 0.76613 0.0
C4998 C 0.56599 0.0289 0.76505 0.0
C4999 C 0.49157 0.0322 0.76856 0.0
C5000 C 0.52625 0.96815 0.75271 0.0
C5001 C 0.52728 0.95624 0.77041 0.0
C5002 C 0.52641 0.99011 0.75149 0.0
C5003 C 0.52784 1.00327 0.76832 0.0
C5004 C 0.52932 0.99149 0.78631 0.0
C5005 C 0.52958 0.96941 0.78703 0.0
C5006 C 0.52568 0.99941 0.73137 0.0
C5007 C 0.5313 1.00238 0.80548 0.0
H5008 H 0.56188 0.06857 0.76399 0.0
H5009 H 0.49938 0.07184 0.76756 0.0
H5010 H 0.56746 0.01968 0.7785 0.0
H5011 H 0.56622 0.01877 0.75222 0.0
H5012 H 0.57895 0.039 0.76408 0.0
H5013 H 0.47976 0.04329 0.77073 0.0
H5014 H 0.48843 0.02385 0.75484 0.0
H5015 H 0.49119 0.02148 0.78095 0.0
H5016 H 0.52576 0.96001 0.739 0.0
H5017 H 0.53227 0.96248 0.80114 0.0
H5018 H 0.53956 1.00779 0.72871 0.0
H5019 H 0.51333 1.01011 0.73058 0.0
H5020 H 0.52381 0.98831 0.71948 0.0
H5021 H 0.54651 1.00847 0.80674 0.0
H5022 H 0.5285 0.99259 0.81833 0.0
H5023 H 0.52088 0.01499 0.80598 0.0
C5024 C 0.21559 0.27741 0.03071 0.0
C5025 C 0.20333 0.2757 1.01328 0.0
C5026 C 0.23753 0.27773 0.03162 0.0
C5027 C 0.25047 0.27684 1.01461 0.0
C5028 C 0.23835 0.27552 0.99673 0.0
C5029 C 0.21619 0.27499 0.99629 0.0
C5030 C 0.24699 0.27942 0.05163 0.0
C5031 C 0.24899 0.27492 0.97733 0.0
C5032 C 0.30877 0.29736 0.0182 0.0
C5033 C 0.32259 0.28104 0.0187 0.0
C5034 C 0.28687 0.29628 0.01683 0.0
C5035 C 0.27551 0.27807 0.0157 0.0
C5036 C 0.28914 0.26133 0.01598 0.0
C5037 C 0.31126 0.26293 0.01706 0.0
C5038 C 0.27567 0.31543 0.01621 0.0
C5039 C 0.28018 0.241 1.0153 0.0
H5040 H 0.2077 0.27873 0.0445 0.0
H5041 H 0.20896 0.27474 0.9821 0.0
H5042 H 0.25985 0.26937 0.05286 0.0
H5043 H 0.25246 0.29474 0.05376 0.0
H5044 H 0.23641 0.27596 0.06365 0.0
H5045 H 0.23886 0.27757 0.96471 0.0
H5046 H 0.26105 0.28609 0.977 0.0
H5047 H 0.25582 0.26017 0.97548 0.0
H5048 H 0.31531 0.31194 0.01856 0.0
H5049 H 0.31967 0.24954 0.01585 0.0
H5050 H 0.26624 0.31665 0.02948 0.0
H5051 H 0.26573 0.31567 1.00317 0.0
H5052 H 0.28562 0.32851 0.01561 0.0
H5053 H 0.27263 0.23798 0.02949 0.0
H5054 H 0.29144 0.22941 1.01282 0.0
H5055 H 0.26886 0.2401 1.00349 0.0
C5056 C 1.00884 0.05812 0.2862 0.0
C5057 C 1.0019 0.07131 0.2711 0.0
C5058 C 1.00883 0.03628 0.28539 0.0
C5059 C 1.00207 0.02481 0.26855 0.0
C5060 C 0.99475 0.03805 0.25321 0.0
C5061 C 0.99451 0.05994 0.25474 0.0
C5062 C 0.01582 0.02576 0.30365 0.0
C5063 C 0.98686 0.0294 0.23435 0.0
C5064 C 0.01866 0.96541 0.26556 0.0
C5065 C 1.00101 0.95342 0.26559 0.0
C5066 C 0.01925 0.98744 0.26589 0.0
C5067 C 1.00189 1.00005 0.26741 0.0
C5068 C 0.98418 0.98802 0.26834 0.0
C5069 C 0.98406 0.96623 0.26722 0.0
C5070 C 0.03908 0.99742 0.26434 0.0
C5071 C 0.96464 0.99818 0.27113 0.0
H5072 H 1.01384 0.06497 0.29961 0.0
H5073 H 0.98849 0.06825 0.2425 0.0
H5074 H 1.01207 1.0098 0.30371 0.0
H5075 H 0.03209 0.02751 0.30494 0.0
H5076 H 1.00927 0.03268 0.31694 0.0
H5077 H 0.99246 0.03798 0.22154 0.0
H5078 H 0.9909 1.01367 0.23238 0.0
H5079 H 0.97052 0.03069 0.23424 0.0
H5080 H 0.03246 0.95765 0.26586 0.0
H5081 H 0.96982 0.95899 0.26816 0.0
H5082 H 0.04206 1.00615 0.2778 0.0
H5083 H 0.03903 1.00783 0.25168 0.0
H5084 H 0.05128 0.98672 0.26246 0.0
H5085 H 0.96604 1.01054 0.28178 0.0
H5086 H 0.95303 0.98783 0.27644 0.0
H5087 H 0.95966 1.00438 0.25684 0.0
C5088 C 0.31368 0.74429 0.52925 0.0
C5089 C 0.3251 0.75147 0.51279 0.0
C5090 C 0.29172 0.74418 0.53069 0.0
C5091 C 0.27835 0.75114 0.51527 0.0
C5092 C 0.28982 0.75784 0.4984 0.0
C5093 C 0.31174 0.75798 0.49755 0.0
C5094 C 0.28304 0.73618 0.54946 0.0
C5095 C 0.27895 0.76482 0.48033 0.0
C5096 C 0.21982 0.73217 0.51707 0.0
C5097 C 0.20659 0.74885 0.51833 0.0
C5098 C 0.24165 0.73268 0.51594 0.0
C5099 C 0.25347 0.75061 0.51632 0.0
C5100 C 0.24038 0.76774 0.51725 0.0
C5101 C 0.21833 0.76667 0.51765 0.0
C5102 C 0.25199 0.71313 0.51399 0.0
C5103 C 0.2494 0.78804 0.51863 0.0
H5104 H 0.32202 0.73855 0.54161 0.0
H5105 H 0.3185 0.76276 0.48403 0.0
H5106 H 0.26773 0.74139 0.55198 0.0
H5107 H 0.2829 0.7198 0.54874 0.0
H5108 H 0.29232 0.74044 0.56229 0.0
H5109 H 0.28781 0.76242 0.4668 0.0
H5110 H 0.26449 0.7572 0.4786 0.0
H5111 H 0.27621 0.78092 0.48161 0.0
H5112 H 0.2129 0.71777 0.51641 0.0
H5113 H 0.21036 0.78031 0.51695 0.0
H5114 H 0.25495 0.70713 0.52891 0.0
H5115 H 0.26624 0.71455 0.50604 0.0
H5116 H 0.24256 0.70222 0.5061 0.0
H5117 H 0.24776 0.79344 0.53395 0.0
H5118 H 0.24142 0.79848 0.50885 0.0
H5119 H 0.26534 0.78835 0.515 0.0
C5120 C 0.76459 0.51493 0.96472 0.0
C5121 C 0.7665 0.53304 0.95359 0.0
C5122 C 0.7635 0.51333 0.98666 0.0
C5123 C 0.76322 0.5301 1.00015 0.0
C5124 C 0.7643 0.54835 0.989 0.0
C5125 C 0.76592 0.54942 0.96725 0.0
C5126 C 0.76286 0.49301 0.99559 0.0
C5127 C 0.7634 0.56752 1.00017 0.0
C5128 C 0.74153 0.52575 0.05752 0.0
C5129 C 0.7578 0.52688 0.07124 0.0
C5130 C 0.74296 0.52683 0.0357 0.0
C5131 C 0.76138 0.52881 0.02485 0.0
C5132 C 0.77789 0.53012 0.0386 0.0
C5133 C 0.77598 0.52943 0.06043 0.0
C5134 C 0.72403 0.52625 0.02406 0.0
C5135 C 0.79831 0.53208 0.0301 0.0
H5136 H 0.7631 0.50158 0.95629 0.0
H5137 H 0.76629 0.56398 0.96074 0.0
H5138 H 0.77686 0.49036 1.00371 0.0
H5139 H 0.75064 0.49183 1.0064 0.0
H5140 H 0.76096 0.48131 0.98432 0.0
H5141 H 0.7609 0.58037 0.9903 0.0
H5142 H 0.75142 0.56699 1.01132 0.0
H5143 H 0.77753 0.5699 1.00814 0.0
H5144 H 0.72699 0.52454 0.06396 0.0
H5145 H 0.7893 0.53071 0.0692 0.0
H5146 H 0.72362 0.51276 1.01482 0.0
H5147 H 0.72336 0.53916 1.01397 0.0
H5148 H 0.71076 0.52629 0.03367 0.0
H5149 H 0.80114 0.51959 0.01992 0.0
H5150 H 0.80994 0.5323 0.04166 0.0
H5151 H 0.79942 0.54589 0.02136 0.0
C5152 C 0.74715 0.53383 0.21566 0.0
C5153 C 0.74553 0.51704 0.20265 0.0
C5154 C 0.74879 0.53308 0.23754 0.0
C5155 C 0.74785 0.51505 0.24924 0.0
C5156 C 0.74536 0.49812 0.2363 0.0
C5157 C 0.74422 0.49931 0.21445 0.0
C5158 C 0.7513 0.55228 0.24836 0.0
C5159 C 0.74275 0.47815 0.24572 0.0
C5160 C 0.76731 0.50802 0.30728 0.0
C5161 C 0.75113 0.51161 0.32058 0.0
C5162 C 0.76658 0.50933 0.28541 0.0
C5163 C 0.74894 0.51392 0.27402 0.0
C5164 C 0.73244 0.51738 0.28731 0.0
C5165 C 0.73379 0.51666 0.30919 0.0
C5166 C 0.78546 0.50594 0.2743 0.0
C5167 C 0.71261 0.52189 0.27834 0.0
H5168 H 0.74656 0.5482 0.20873 0.0
H5169 H 0.74163 0.48574 0.20641 0.0
H5170 H 0.73796 0.55519 0.25733 0.0
H5171 H 0.76406 0.55131 0.25863 0.0
H5172 H 0.75365 0.56494 0.2382 0.0
H5173 H 0.74228 0.46605 0.2347 0.0
H5174 H 0.75492 0.47525 0.25628 0.0
H5175 H 0.72875 0.47796 0.25422 0.0
H5176 H 0.78132 0.50459 0.31409 0.0
H5177 H 0.72056 0.51988 0.31748 0.0
H5178 H 0.78791 0.51806 0.26352 0.0
H5179 H 0.78432 0.49196 0.26588 0.0
H5180 H 0.79847 0.50501 0.28425 0.0
H5181 H 0.71221 0.53765 0.27392 0.0
H5182 H 0.70038 0.51924 0.28889 0.0
H5183 H 0.70999 0.51282 0.26497 0.0
C5184 C 0.78493 0.4929 0.55734 0.0
C5185 C 0.76956 0.49912 0.57068 0.0
C5186 C 0.78358 0.49217 0.53547 0.0
C5187 C 0.76667 0.49894 0.52393 0.0
C5188 C 0.75129 0.50579 0.53736 0.0
C5189 C 0.75266 0.50531 0.55927 0.0
C5190 C 0.80098 0.48349 0.52485 0.0
C5191 C 0.73275 0.5146 0.52887 0.0
C5192 C 0.77489 0.51011 0.46341 0.0
C5193 C 0.76209 0.49715 0.45219 0.0
C5194 C 0.77616 0.51119 0.48539 0.0
C5195 C 0.76505 0.49863 0.49903 0.0
C5196 C 0.75233 0.48545 0.4878 0.0
C5197 C 0.75106 0.48511 0.46596 0.0
C5198 C 0.79016 0.52617 0.494 0.0
C5199 C 0.74017 0.47053 0.499 0.0
H5200 H 0.79851 0.48787 0.56413 0.0
H5201 H 0.74013 0.51063 0.56759 0.0
H5202 H 0.79714 0.47838 0.5098 0.0
H5203 H 0.81283 0.49483 0.52379 0.0
H5204 H 0.80708 0.47081 0.53328 0.0
H5205 H 0.72927 0.52861 0.53659 0.0
H5206 H 0.73387 0.51767 0.51286 0.0
H5207 H 0.7202 0.50434 0.53152 0.0
H5208 H 0.78463 0.51954 0.45491 0.0
H5209 H 0.74088 0.47478 0.45958 0.0
H5210 H 0.80447 0.5189 0.4972 0.0
H5211 H 0.78435 0.53229 0.50799 0.0
H5212 H 0.79297 0.53851 0.48356 0.0
H5213 H 0.74975 0.46222 0.50937 0.0
H5214 H 0.73255 0.45986 0.48912 0.0
H5215 H 0.72883 0.47822 0.50785 0.0
C5216 C 0.76351 0.52516 0.80723 0.0
C5217 C 0.77899 0.51969 0.82086 0.0
C5218 C 0.76413 0.52314 0.78538 0.0
C5219 C 0.78103 0.51595 0.77426 0.0
C5220 C 0.79698 0.511 0.78788 0.0
C5221 C 0.79569 0.51254 0.80975 0.0
C5222 C 0.74596 0.52883 0.77398 0.0
C5223 C 0.81651 0.50499 0.77925 0.0
C5224 C 0.78156 0.4939 0.71661 0.0
C5225 C 0.78375 0.50997 0.70269 0.0
C5226 C 0.77989 0.4956 0.73843 0.0
C5227 C 0.78202 0.51394 0.74944 0.0
C5228 C 0.78546 0.53014 0.73566 0.0
C5229 C 0.78609 0.52806 0.7138 0.0
C5230 C 0.7756 0.47705 0.74994 0.0
C5231 C 0.78918 0.55039 0.74399 0.0
H5232 H 0.7502 0.53101 0.81375 0.0
H5233 H 0.80858 0.5085 0.81832 0.0
H5234 H 0.749 0.54248 0.76545 0.0
H5235 H 0.74203 0.51703 0.76329 0.0
H5236 H 0.73311 0.53155 0.78374 0.0
H5237 H 0.82663 0.49877 0.79054 0.0
H5238 H 0.8145 0.49403 0.76731 0.0
H5239 H 0.82368 0.51819 0.7726 0.0
H5240 H 0.78175 0.47922 0.7105 0.0
H5241 H 0.78913 0.5412 0.70518 0.0
H5242 H 0.76211 0.47919 0.75897 0.0
H5243 H 0.78791 0.47386 0.76023 0.0
H5244 H 0.77338 0.46402 0.74026 0.0
H5245 H 0.77482 0.55776 0.74659 0.0
H5246 H 0.79783 0.55974 0.73363 0.0
H5247 H 0.79722 0.54959 0.75824 0.0
C5248 C 0.52368 0.31077 0.76954 0.0
C5249 C 0.51567 0.32293 0.75415 0.0
C5250 C 0.52433 0.28894 0.76932 0.0
C5251 C 0.51629 0.27685 0.75358 0.0
C5252 C 0.50784 0.28904 0.73816 0.0
C5253 C 0.50775 0.31087 0.73857 0.0
C5254 C 0.53383 0.2786 0.78649 0.0
C5255 C 0.49843 0.27886 0.7208 0.0
C5256 C 0.53365 0.21894 0.74641 0.0
C5257 C 0.51789 0.20619 0.75296 0.0
C5258 C 0.53307 0.24072 0.74587 0.0
C5259 C 0.51676 0.2523 0.75328 0.0
C5260 C 0.50106 0.23959 0.76059 0.0
C5261 C 0.50161 0.21773 0.76001 0.0
C5262 C 0.55042 0.25148 0.73701 0.0
C5263 C 0.48333 0.24925 0.76971 0.0
H5264 H 0.52975 0.31843 0.78218 0.0
H5265 H 0.50097 0.31862 0.72636 0.0
H5266 H 0.5231 0.26821 0.79331 0.0
H5267 H 0.54651 0.26971 0.78126 0.0
H5268 H 0.53919 0.28911 0.79787 0.0
H5269 H 0.49341 0.28947 0.70936 0.0
H5270 H 0.50903 0.26838 0.71411 0.0
H5271 H 0.48548 0.2701 0.72584 0.0
H5272 H 0.54697 0.2118 0.74139 0.0
H5273 H 0.4891 0.20957 0.76577 0.0
H5274 H 0.55834 0.25982 0.74867 0.0
H5275 H 0.5452 0.26235 0.72591 0.0
H5276 H 0.56098 0.24127 0.72983 0.0
H5277 H 0.48813 0.25845 0.78239 0.0
H5278 H 0.47224 0.2383 0.77491 0.0
H5279 H 0.47623 0.25927 0.75888 0.0
C5280 C 0.48301 0.97042 0.2695 0.0
C5281 C 0.4998 0.95732 0.26806 0.0
C5282 C 0.48305 0.9922 0.26774 0.0
C5283 C 0.50048 1.00405 0.26391 0.0
C5284 C 0.51767 0.99116 0.26204 0.0
C5285 C 0.51711 0.9691 0.2637 0.0
C5286 C 0.46356 1.00267 0.26966 0.0
C5287 C 0.53731 1.00086 0.2582 0.0
C5288 C 0.49494 0.0614 0.24188 0.0
C5289 C 0.49802 0.07543 0.25762 0.0
C5290 C 0.49633 0.03954 0.24346 0.0
C5291 C 0.50033 0.02884 0.26162 0.0
C5292 C 0.50307 0.04282 0.27768 0.0
C5293 C 0.50183 0.06469 0.27562 0.0
C5294 C 0.49276 0.02764 0.2251 0.0
C5295 C 0.50669 0.03447 0.29789 0.0
H5296 H 0.46885 0.96339 0.27176 0.0
H5297 H 0.53057 0.96107 0.26101 0.0
H5298 H 0.46508 0.01583 0.27927 0.0
H5299 H 0.45876 1.00789 0.25491 0.0
H5300 H 0.45184 0.99289 0.27574 0.0
H5301 H 0.54889 0.98996 0.25438 0.0
H5302 H 0.53599 1.01183 0.2461 0.0
H5303 H 0.54206 1.00896 0.27161 0.0
H5304 H 0.49096 0.06759 0.22773 0.0
H5305 H 0.50333 0.07355 0.2888 0.0
H5306 H 0.47801 0.02046 0.22603 0.0
H5307 H 0.50394 0.01577 0.22377 0.0
H5308 H 0.49319 0.03695 0.21162 0.0
H5309 H 0.49347 0.02599 0.30271 0.0
H5310 H 0.50986 0.04616 0.30892 0.0
H5311 H 0.51928 0.02403 0.29749 0.0
C5312 C 0.81161 0.76558 0.02109 0.0
C5313 C 0.82353 0.74828 0.01793 0.0
C5314 C 0.78958 0.76632 0.02027 0.0
C5315 C 0.77683 0.74964 1.01514 0.0
C5316 C 0.78879 0.73243 1.01116 0.0
C5317 C 0.81059 0.73196 1.01288 0.0
C5318 C 0.77984 0.78551 0.0255 0.0
C5319 C 0.7784 0.71392 1.0044 0.0
C5320 C 0.71723 0.74379 0.0288 0.0
C5321 C 0.70523 0.7495 1.0121 0.0
C5322 C 0.73911 0.74379 0.02992 0.0
C5323 C 0.75201 0.7499 1.01401 0.0
C5324 C 0.74022 0.75545 0.99689 0.0
C5325 C 0.71819 0.75473 0.99605 0.0
C5326 C 0.74857 0.73674 0.04872 0.0
C5327 C 0.75107 0.76232 0.97882 0.0
H5328 H 0.81945 0.77905 0.02398 0.0
H5329 H 0.81776 0.71805 1.00977 0.0
H5330 H 0.76647 0.78808 0.01637 0.0
H5331 H 0.77513 0.78486 0.04114 0.0
H5332 H 0.79009 0.79823 0.02369 0.0
H5333 H 0.78891 0.70207 1.00027 0.0
H5334 H 0.76863 0.70829 0.01625 0.0
H5335 H 0.76889 0.71728 0.99148 0.0
H5336 H 0.70923 0.73873 0.04167 0.0
H5337 H 0.71129 0.75743 0.98211 0.0
H5338 H 0.75946 0.74784 0.05403 0.0
H5339 H 0.75675 0.72287 0.04589 0.0
H5340 H 0.73756 0.73387 0.0605 0.0
H5341 H 0.75708 0.77737 0.98151 0.0
H5342 H 0.7413 0.7629 0.96567 0.0
H5343 H 0.76377 0.7525 0.97567 0.0
C5344 C 0.0423 0.05971 0.78276 0.0
C5345 C 0.0303 0.07373 0.77217 0.0
C5346 C 0.04143 0.0379 0.78119 0.0
C5347 C 0.02885 0.02708 0.76744 0.0
C5348 C 0.01684 0.04123 0.75627 0.0
C5349 C 0.01756 0.06313 0.75879 0.0
C5350 C 0.05458 0.02666 0.79513 0.0
C5351 C 1.00311 0.03364 0.74054 0.0
C5352 C 0.04581 0.96823 0.75903 0.0
C5353 C 0.02876 0.95548 0.76082 0.0
C5354 C 0.04589 0.99014 0.76018 0.0
C5355 C 0.02865 1.0022 0.76481 0.0
C5356 C 1.01141 0.98927 0.76707 0.0
C5357 C 1.01158 0.96742 0.76452 0.0
C5358 C 0.06525 1.00017 0.75558 0.0
C5359 C 0.99195 0.99816 0.77287 0.0
H5360 H 0.05302 0.06595 0.79288 0.0
H5361 H 1.0083 0.07208 0.74932 0.0
H5362 H 0.05012 1.01097 0.79677 0.0
H5363 H 0.07003 0.02744 0.78972 0.0
H5364 H 0.05445 0.03364 0.80992 0.0
H5365 H 1.00322 0.04367 0.72758 0.0
H5366 H 1.00702 0.01856 0.73556 0.0
H5367 H 0.98781 0.03348 0.74638 0.0
H5368 H 0.05972 0.961 0.75601 0.0
H5369 H 0.99773 0.9595 0.76614 0.0
H5370 H 0.07542 0.99837 0.76829 0.0
H5371 H 0.06357 0.0161 0.75221 0.0
H5372 H 0.07237 0.99297 0.74277 0.0
H5373 H 0.99366 1.013 0.77959 0.0
H5374 H 0.98416 0.9884 0.78352 0.0
H5375 H 0.98241 0.99932 0.75961 0.0
C5376 C 0.7187 0.28407 0.53205 0.0
C5377 C 0.70586 0.27476 0.5178 0.0
C5378 C 0.74053 0.28552 0.53091 0.0
C5379 C 0.75233 0.27686 0.51535 0.0
C5380 C 0.73958 0.26703 0.50109 0.0
C5381 C 0.71763 0.26643 0.50223 0.0
C5382 C 0.75112 0.29708 0.54667 0.0
C5383 C 0.74935 0.25643 0.48431 0.0
C5384 C 0.80943 0.29482 0.5018 0.0
C5385 C 0.82339 0.28184 0.51127 0.0
C5386 C 0.78763 0.29335 0.50281 0.0
C5387 C 0.77702 0.27837 0.5139 0.0
C5388 C 0.79093 0.26529 0.52377 0.0
C5389 C 0.81282 0.26733 0.52275 0.0
C5390 C 0.77571 0.30872 0.49211 0.0
C5391 C 0.78257 0.24861 0.53585 0.0
H5392 H 0.71155 0.29091 0.54443 0.0
H5393 H 0.70959 0.2588 0.49071 0.0
H5394 H 0.7623 0.28765 0.554 0.0
H5395 H 0.75915 0.30968 0.53984 0.0
H5396 H 0.74087 0.3029 0.55799 0.0
H5397 H 0.73846 0.24945 0.4742 0.0
H5398 H 0.75869 0.26688 0.47579 0.0
H5399 H 0.75927 0.24483 0.49024 0.0
H5400 H 0.81572 0.30686 0.49332 0.0
H5401 H 0.82173 0.25742 0.53153 0.0
H5402 H 0.76725 0.31753 0.50296 0.0
H5403 H 0.76481 0.30152 0.4822 0.0
H5404 H 0.78511 0.31888 0.48327 0.0
H5405 H 0.77417 0.25466 0.54846 0.0
H5406 H 0.79425 0.23868 0.54161 0.0
H5407 H 0.77207 0.23982 0.52679 0.0
C5408 C 0.24904 0.50515 0.06532 0.0
C5409 C 0.264 0.4986 0.07906 0.0
C5410 C 0.25086 0.50649 0.04349 0.0
C5411 C 0.26761 0.49923 0.03223 0.0
C5412 C 0.28205 0.49079 0.04573 0.0
C5413 C 0.28028 0.49091 0.06761 0.0
C5414 C 0.23374 0.51545 0.03254 0.0
C5415 C 0.29954 0.48026 0.03707 0.0
C5416 C 0.26021 0.48775 0.97204 0.0
C5417 C 0.27281 0.50091 0.96088 0.0
C5418 C 0.25871 0.48683 0.99391 0.0
C5419 C 0.26954 0.49964 1.00743 0.0
C5420 C 0.28212 0.51306 0.99624 0.0
C5421 C 0.28376 0.51323 0.9744 0.0
C5422 C 0.24523 0.47144 1.00267 0.0
C5423 C 0.29381 0.52824 1.00752 0.0
H5424 H 0.23476 0.50803 0.07129 0.0
H5425 H 0.29198 0.48396 0.076 0.0
H5426 H 0.2374 0.51933 0.01709 0.0
H5427 H 0.22117 0.50488 0.03258 0.0
H5428 H 0.22876 0.52903 0.04011 0.0
H5429 H 0.30575 0.46929 0.04755 0.0
H5430 H 0.29543 0.47252 0.02323 0.0
H5431 H 0.31131 0.49114 0.03362 0.0
H5432 H 0.25136 0.47748 0.96352 0.0
H5433 H 0.29382 0.52368 0.96779 0.0
H5434 H 0.2319 0.47873 1.00868 0.0
H5435 H 0.25272 0.46372 1.01503 0.0
H5436 H 0.24042 0.46034 0.9916 0.0
H5437 H 0.28365 0.53719 0.01668 0.0
H5438 H 0.30231 0.53827 0.99769 0.0
H5439 H 0.30428 0.52083 0.01765 0.0
C5440 C 0.26792 0.51238 0.81706 0.0
C5441 C 0.28525 0.50623 0.8278 0.0
C5442 C 0.26602 0.51318 0.79516 0.0
C5443 C 0.28189 0.50864 0.78137 0.0
C5444 C 0.29958 0.50331 0.79217 0.0
C5445 C 0.30083 0.50208 0.81391 0.0
C5446 C 0.24631 0.51883 0.78666 0.0
C5447 C 0.31813 0.49929 0.78067 0.0
C5448 C 0.27885 0.49399 0.7217 0.0
C5449 C 0.27839 0.51192 0.71025 0.0
C5450 C 0.27921 0.49282 0.74358 0.0
C5451 C 0.28037 0.50985 0.75667 0.0
C5452 C 0.28049 0.52798 0.74509 0.0
C5453 C 0.27898 0.52871 0.7233 0.0
C5454 C 0.27788 0.4726 0.75272 0.0
C5455 C 0.2825 0.5475 0.75553 0.0
H5456 H 0.25562 0.51737 0.82575 0.0
H5457 H 0.31494 0.49796 0.82022 0.0
H5458 H 0.2481 0.5308 0.77564 0.0
H5459 H 0.23985 0.50589 0.77891 0.0
H5460 H 0.23581 0.52383 0.79812 0.0
H5461 H 0.33154 0.50008 0.7901 0.0
H5462 H 0.31728 0.48427 0.77428 0.0
H5463 H 0.31976 0.51 0.76836 0.0
H5464 H 0.27836 0.48031 0.71347 0.0
H5465 H 0.27882 0.54312 0.71634 0.0
H5466 H 0.26913 0.47291 0.76654 0.0
H5467 H 0.29294 0.46734 0.75632 0.0
H5468 H 0.27102 0.46178 0.74247 0.0
H5469 H 0.2677 0.55435 0.75679 0.0
H5470 H 0.29191 0.55781 0.74686 0.0
H5471 H 0.28894 0.54593 0.77049 0.0
C5472 C 0.24752 0.52775 0.56687 0.0
C5473 C 0.26489 0.52595 0.57918 0.0
C5474 C 0.24688 0.52861 0.54503 0.0
C5475 C 0.26411 0.52728 0.53231 0.0
C5476 C 0.28189 0.5259 0.54454 0.0
C5477 C 0.28205 0.52601 0.56654 0.0
C5478 C 0.22692 0.53172 0.53574 0.0
C5479 C 0.30167 0.5244 0.53462 0.0
C5480 C 0.25407 0.51243 0.4733 0.0
C5481 C 0.26141 0.52797 0.46072 0.0
C5482 C 0.25504 0.51189 0.49517 0.0
C5483 C 0.26336 0.52753 0.50742 0.0
C5484 C 0.27043 0.54357 0.49485 0.0
C5485 C 0.26968 0.54344 0.4729 0.0
C5486 C 0.2467 0.49382 0.50511 0.0
C5487 C 0.2783 0.56188 0.50471 0.0
H5488 H 0.2336 0.52902 0.57461 0.0
H5489 H 0.29625 0.52703 0.57372 0.0
H5490 H 0.22795 0.53813 0.52072 0.0
H5491 H 0.21908 0.51732 0.53485 0.0
H5492 H 0.21778 0.54167 0.54495 0.0
H5493 H 0.3104 0.51236 0.54142 0.0
H5494 H 0.30051 0.52152 0.51858 0.0
H5495 H 0.31007 0.53832 0.53701 0.0
H5496 H 0.24755 0.49995 0.46591 0.0
H5497 H 0.27534 0.55625 0.46514 0.0
H5498 H 0.23076 0.49621 0.50799 0.0
H5499 H 0.25419 0.49074 0.51934 0.0
H5500 H 0.24796 0.48062 0.49552 0.0
H5501 H 0.2676 0.56712 0.5159 0.0
H5502 H 0.2812 0.57401 0.49404 0.0
H5503 H 0.29229 0.55847 0.51246 0.0
C5504 C 0.23323 0.52613 0.31524 0.0
C5505 C 0.24926 0.5225 0.32892 0.0
C5506 C 0.23381 0.52444 0.29347 0.0
C5507 C 0.25112 0.51885 0.28225 0.0
C5508 C 0.26755 0.5151 0.2958 0.0
C5509 C 0.26637 0.51646 0.31779 0.0
C5510 C 0.21498 0.52819 0.28227 0.0
C5511 C 0.28719 0.50991 0.28696 0.0
C5512 C 0.25054 0.49701 0.22453 0.0
C5513 C 0.25171 0.51331 0.21079 0.0
C5514 C 0.24996 0.49851 0.24641 0.0
C5515 C 0.25168 0.51691 0.25742 0.0
C5516 C 0.25326 0.53342 0.24363 0.0
C5517 C 0.25277 0.53155 0.22174 0.0
C5518 C 0.24687 0.47973 0.25791 0.0
C5519 C 0.25566 0.55387 0.25192 0.0
H5520 H 0.21928 0.53022 0.32182 0.0
H5521 H 0.2791 0.51204 0.32628 0.0
H5522 H 0.21715 0.54063 0.27185 0.0
H5523 H 0.21106 0.51495 0.27341 0.0
H5524 H 0.20242 0.53176 0.29212 0.0
H5525 H 0.29797 0.50492 0.29825 0.0
H5526 H 0.28545 0.4982 0.27569 0.0
H5527 H 0.29331 0.52315 0.27941 0.0
H5528 H 0.24947 0.48243 0.21806 0.0
H5529 H 0.25371 0.54496 0.21307 0.0
H5530 H 0.23521 0.48185 0.2692 0.0
H5531 H 0.26069 0.4758 0.26575 0.0
H5532 H 0.24258 0.46716 0.24829 0.0
H5533 H 0.24084 0.56034 0.25441 0.0
H5534 H 0.26371 0.56367 0.24151 0.0
H5535 H 0.26371 0.55368 0.26619 0.0
C5536 C 0.52645 0.8131 0.28857 0.0
C5537 C 0.51232 0.82501 0.278 0.0
C5538 C 0.52693 0.79114 0.28893 0.0
C5539 C 0.5132 0.77844 0.27824 0.0
C5540 C 0.49897 0.79037 0.26755 0.0
C5541 C 0.49858 0.81226 0.26783 0.0
C5542 C 0.54253 0.78137 0.30133 0.0
C5543 C 0.48354 0.77987 0.25543 0.0
C5544 C 0.52675 0.7201 0.2652 0.0
C5545 C 0.51478 0.70713 0.27713 0.0
C5546 C 0.52624 0.74199 0.26522 0.0
C5547 C 0.51377 0.75368 0.27802 0.0
C5548 C 0.50187 0.74077 0.29046 0.0
C5549 C 0.50236 0.71881 0.28978 0.0
C5550 C 0.53952 0.75277 0.25104 0.0
C5551 C 0.48857 0.75032 0.30534 0.0
H5552 H 0.53744 0.82105 0.29708 0.0
H5553 H 0.48698 0.81953 0.25972 0.0
H5554 H 0.53597 0.7692 0.31019 0.0
H5555 H 0.55386 0.77479 0.29159 0.0
H5556 H 0.54997 0.79198 0.3114 0.0
H5557 H 0.47592 0.79003 0.24507 0.0
H5558 H 0.49028 0.76767 0.24689 0.0
H5559 H 0.47229 0.77329 0.26535 0.0
H5560 H 0.53694 0.71302 0.25534 0.0
H5561 H 0.49292 0.71067 0.29981 0.0
H5562 H 0.55165 0.76008 0.25931 0.0
H5563 H 0.53115 0.76448 0.2432 0.0
H5564 H 0.54613 0.74271 0.24 0.0
H5565 H 0.49753 0.75972 0.31538 0.0
H5566 H 0.48026 0.73931 0.31425 0.0
H5567 H 0.47787 0.76012 0.29778 0.0
C5568 C 0.07719 0.35832 0.31798 0.0
C5569 C 0.05713 0.35547 0.3144 0.0
C5570 C 0.08729 0.34624 0.33122 0.0
C5571 C 0.07666 0.33147 0.34155 0.0
C5572 C 0.05686 0.32716 0.33646 0.0
C5573 C 0.0473 0.33928 0.32278 0.0
C5574 C 0.10863 0.35093 0.33606 0.0
C5575 C 0.04493 0.31166 0.34721 0.0
C5576 C 0.11169 0.30633 0.3759 0.0
C5577 C 0.1115 0.31986 0.39145 0.0
C5578 C 0.09854 0.30844 0.36011 0.0
C5579 C 0.08511 0.32434 0.36023 0.0
C5580 C 0.08352 0.33665 0.37703 0.0
C5581 C 0.09695 0.33431 0.39246 0.0
C5582 C 0.10011 0.29479 0.34266 0.0
C5583 C 0.06913 0.35363 0.37785 0.0
H5584 H 0.0845 0.37125 0.31226 0.0
H5585 H 0.03153 0.33751 0.32043 0.0
H5586 H 0.11008 0.35547 0.35169 0.0
H5587 H 0.11783 0.33758 0.334 0.0
H5588 H 0.11468 0.36303 0.32684 0.0
H5589 H 0.0331 0.30556 0.33758 0.0
H5590 H 0.05432 0.29938 0.35257 0.0
H5591 H 0.03772 0.31854 0.36014 0.0
H5592 H 0.12262 0.29467 0.37575 0.0
H5593 H 0.09655 0.34419 0.40502 0.0
H5594 H 0.10838 0.30235 0.33071 0.0
H5595 H 0.08525 0.29099 0.33681 0.0
H5596 H 0.108 0.28095 0.3465 0.0
H5597 H 0.07458 0.36584 0.36833 0.0
H5598 H 0.06744 0.35943 0.39305 0.0
H5599 H 0.05439 0.34905 0.37228 0.0
C5600 C 0.94605 0.86973 0.63782 0.0
C5601 C 0.94802 0.85715 0.65406 0.0
C5602 C 0.94359 0.86194 0.61884 0.0
C5603 C 0.94262 0.84123 0.61637 0.0
C5604 C 0.94688 0.82859 0.63249 0.0
C5605 C 0.94955 0.83677 0.65126 0.0
C5606 C 0.93997 0.87575 0.60177 0.0
C5607 C 0.94618 0.8064 0.63039 0.0
C5608 C 0.90093 0.82038 0.58621 0.0
C5609 C 0.91092 0.81127 0.57069 0.0
C5610 C 0.91113 0.83095 0.60063 0.0
C5611 C 0.93188 0.83303 0.59915 0.0
C5612 C 0.94187 0.82551 0.58246 0.0
C5613 C 0.93119 0.81449 0.56842 0.0
C5614 C 0.89989 0.8381 0.61849 0.0
C5615 C 0.96392 0.82739 0.58007 0.0
H5616 H 0.94538 0.88556 0.64011 0.0
H5617 H 0.95145 0.82718 0.66393 0.0
H5618 H 0.94787 0.87052 0.58846 0.0
H5619 H 0.92394 0.87595 0.59826 0.0
H5620 H 0.94481 0.89107 0.60516 0.0
H5621 H 0.95287 0.79882 0.64329 0.0
H5622 H 0.93056 0.80148 0.62907 0.0
H5623 H 0.95401 0.80173 0.61685 0.0
H5624 H 0.8853 0.81766 0.58814 0.0
H5625 H 0.93893 0.80707 0.5567 0.0
H5626 H 0.90208 0.85423 0.62038 0.0
H5627 H 0.90554 0.83077 0.63198 0.0
H5628 H 0.88383 0.8349 0.61749 0.0
H5629 H 0.96758 0.83045 0.56442 0.0
H5630 H 0.97092 0.81314 0.58411 0.0
H5631 H 0.9704 0.83924 0.58935 0.0
C5632 C 0.47738 0.69049 0.83738 0.0
C5633 C 0.46665 0.68282 0.82148 0.0
C5634 C 0.46771 0.70004 0.85263 0.0
C5635 C 0.44701 0.70206 0.85143 0.0
C5636 C 0.43683 0.69766 0.83372 0.0
C5637 C 0.44687 0.68782 0.81878 0.0
C5638 C 0.47928 0.7048 0.87107 0.0
C5639 C 0.41479 0.70042 0.83184 0.0
C5640 C 0.41744 0.68512 0.89493 0.0
C5641 C 0.41038 0.70304 0.90201 0.0
C5642 C 0.43013 0.68475 0.87882 0.0
C5643 C 0.43558 0.70281 0.86964 0.0
C5644 C 0.42899 0.72102 0.87705 0.0
C5645 C 0.41622 0.72092 0.89314 0.0
C5646 C 0.43754 0.66501 0.87154 0.0
C5647 C 0.43526 0.74043 0.8679 0.0
H5648 H 0.49305 0.68746 0.83881 0.0
H5649 H 0.43882 0.68236 0.80606 0.0
H5650 H 0.47205 0.71627 0.88013 0.0
H5651 H 0.48064 0.69119 0.88012 0.0
H5652 H 0.49448 0.70982 0.86732 0.0
H5653 H 0.40994 0.70013 0.8162 0.0
H5654 H 0.40709 0.6883 0.8398 0.0
H5655 H 0.41017 0.7146 0.83854 0.0
H5656 H 0.41329 0.67146 0.90223 0.0
H5657 H 0.41079 0.73484 0.89882 0.0
H5658 H 0.45392 0.66502 0.87097 0.0
H5659 H 0.432 0.66226 0.85639 0.0
H5660 H 0.43267 0.65255 0.88107 0.0
H5661 H 0.45159 0.74121 0.86666 0.0
H5662 H 0.43013 0.75334 0.87655 0.0
H5663 H 0.42921 0.74156 0.85275 0.0
C5664 C 0.62156 0.22885 0.09136 0.0
C5665 C 0.61415 0.22799 0.07215 0.0
C5666 C 0.61357 0.21703 0.10622 0.0
C5667 C 0.59838 0.20345 0.10143 0.0
C5668 C 0.59068 0.20265 0.08202 0.0
C5669 C 0.59837 0.21542 0.06764 0.0
C5670 C 0.62128 0.21921 0.12701 0.0
C5671 C 0.57457 0.18817 0.07644 0.0
C5672 C 0.59687 0.1587 0.13449 0.0
C5673 C 0.57944 0.16166 0.14516 0.0
C5674 C 0.60276 0.17191 0.11983 0.0
C5675 C 0.59161 0.18917 0.11644 0.0
C5676 C 0.57443 0.19285 0.1276 0.0
C5677 C 0.56818 0.17874 0.1414 0.0
C5678 C 0.62081 0.1672 0.10774 0.0
C5679 C 0.56303 0.2119 0.12544 0.0
H5680 H 0.63329 0.23926 0.09486 0.0
H5681 H 0.59201 0.21569 0.05301 0.0
H5682 H 0.60881 0.22082 0.13746 0.0
H5683 H 0.62956 0.20579 0.13135 0.0
H5684 H 0.63128 0.23218 0.12861 0.0
H5685 H 0.56968 0.19001 0.06092 0.0
H5686 H 0.58001 0.17286 0.07854 0.0
H5687 H 0.56155 0.18995 0.08613 0.0
H5688 H 0.6061 0.14605 0.13759 0.0
H5689 H 0.55446 0.18121 0.14915 0.0
H5690 H 0.63183 0.17929 0.10887 0.0
H5691 H 0.61647 0.16603 0.09206 0.0
H5692 H 0.62794 0.15317 0.1123 0.0
H5693 H 0.57253 0.22447 0.1301 0.0
H5694 H 0.54937 0.212 0.13447 0.0
H5695 H 0.55896 0.21456 0.10984 0.0
C5696 C 0.05398 0.68741 0.21354 0.0
C5697 C 0.06079 0.66903 0.22009 0.0
C5698 C 0.0636 0.69746 0.19821 0.0
C5699 C 0.08062 0.68898 0.1897 0.0
C5700 C 0.0892 0.67203 0.19842 0.0
C5701 C 0.07889 0.66199 0.21327 0.0
C5702 C 0.05368 0.71527 0.18926 0.0
C5703 C 0.10761 0.66274 0.19008 0.0
C5704 C 0.08593 0.68544 0.13461 0.0
C5705 C 0.10202 0.69796 0.13113 0.0
C5706 C 0.07796 0.68346 0.15347 0.0
C5707 C 0.08639 0.69427 0.16928 0.0
C5708 C 0.10165 0.70813 0.16559 0.0
C5709 C 0.10932 0.70987 0.14643 0.0
C5710 C 0.06135 0.66878 0.15661 0.0
C5711 C 0.11061 0.72018 0.18204 0.0
H5712 H 0.0396 0.69251 0.21829 0.0
H5713 H 0.08387 0.64749 0.21779 0.0
H5714 H 0.06458 0.72572 0.18287 0.0
H5715 H 0.0437 0.71032 0.17722 0.0
H5716 H 0.0446 0.72316 0.20033 0.0
H5717 H 0.11436 0.65212 0.20059 0.0
H5718 H 0.10377 0.65461 0.17639 0.0
H5719 H 0.11873 0.6742 0.18624 0.0
H5720 H 0.08 0.67665 0.12261 0.0
H5721 H 0.12167 0.71974 0.14365 0.0
H5722 H 0.04925 0.67557 0.16522 0.0
H5723 H 0.06691 0.65594 0.16512 0.0
H5724 H 0.05514 0.66325 0.14248 0.0
H5725 H 0.09886 0.72722 0.19093 0.0
H5726 H 0.12076 0.73184 0.17643 0.0
H5727 H 0.11902 0.71032 0.19205 0.0
C5728 C 0.59925 0.81722 0.46216 0.0
C5729 C 0.6169 0.807 0.45962 0.0
C5730 C 0.59189 0.82918 0.44703 0.0
C5731 C 0.60163 0.8294 0.42857 0.0
C5732 C 0.61968 0.81933 0.42613 0.0
C5733 C 0.62742 0.80869 0.44198 0.0
C5734 C 0.57309 0.84061 0.45043 0.0
C5735 C 0.62983 0.81829 0.40637 0.0
C5736 C 0.56479 0.83821 0.38801 0.0
C5737 C 0.56789 0.85829 0.3844 0.0
C5738 C 0.57686 0.82809 0.40132 0.0
C5739 C 0.59188 0.83863 0.41147 0.0
C5740 C 0.59594 0.85857 0.4067 0.0
C5741 C 0.58388 0.86819 0.393 0.0
C5742 C 0.57248 0.80662 0.40564 0.0
C5743 C 0.61168 0.87025 0.41743 0.0
H5744 H 0.5909 0.8153 0.47564 0.0
H5745 H 0.64086 0.80029 0.4401 0.0
H5746 H 0.57466 0.85593 0.44477 0.0
H5747 H 0.56072 0.83352 0.44231 0.0
H5748 H 0.56914 0.84123 0.46629 0.0
H5749 H 0.64461 0.81128 0.40738 0.0
H5750 H 0.62052 0.80955 0.39607 0.0
H5751 H 0.63156 0.83322 0.39986 0.0
H5752 H 0.55222 0.83079 0.38134 0.0
H5753 H 0.58591 0.88385 0.39023 0.0
H5754 H 0.5647 0.80538 0.41996 0.0
H5755 H 0.58636 0.79802 0.4068 0.0
H5756 H 0.56294 0.79984 0.39412 0.0
H5757 H 0.60676 0.87299 0.43277 0.0
H5758 H 0.61465 0.88471 0.41024 0.0
H5759 H 0.62569 0.86187 0.41829 0.0
C5760 C 0.47041 0.37515 0.69754 0.0
C5761 C 0.47305 0.36306 0.71407 0.0
C5762 C 0.4592 0.36865 0.68147 0.0
C5763 C 0.44968 0.35004 0.68251 0.0
C5764 C 0.45183 0.33804 0.69951 0.0
C5765 C 0.46414 0.34446 0.71485 0.0
C5766 C 0.45829 0.38127 0.66312 0.0
C5767 C 0.44132 0.31841 0.70145 0.0
C5768 C 0.40424 0.34293 0.65111 0.0
C5769 C 0.41029 0.32813 0.63804 0.0
C5770 C 0.41694 0.35015 0.66565 0.0
C5771 C 0.43669 0.34354 0.66622 0.0
C5772 C 0.44361 0.33015 0.65184 0.0
C5773 C 0.43018 0.32217 0.63819 0.0
C5774 C 0.4088 0.3638 0.68121 0.0
C5775 C 0.465 0.32387 0.65121 0.0
H5776 H 0.47814 0.38919 0.69671 0.0
H5777 H 0.46703 0.33486 0.72731 0.0
H5778 H 0.46441 0.37293 0.65048 0.0
H5779 H 0.44276 0.38488 0.6594 0.0
H5780 H 0.46671 0.39531 0.66473 0.0
H5781 H 0.44291 0.31201 0.71645 0.0
H5782 H 0.42535 0.32012 0.69813 0.0
H5783 H 0.44742 0.30775 0.69071 0.0
H5784 H 0.38918 0.34826 0.65062 0.0
H5785 H 0.43515 0.31075 0.62824 0.0
H5786 H 0.41783 0.37745 0.68231 0.0
H5787 H 0.40946 0.35631 0.69574 0.0
H5788 H 0.39323 0.36803 0.67825 0.0
H5789 H 0.47484 0.33703 0.65174 0.0
H5790 H 0.46845 0.31525 0.63775 0.0
H5791 H 0.46851 0.31465 0.66425 0.0
C5792 C 0.93406 0.15752 0.89316 0.0
C5793 C 0.95212 0.15481 0.88371 0.0
C5794 C 0.93248 0.1707 0.90887 0.0
C5795 C 0.94938 0.18137 0.91521 0.0
C5796 C 0.96775 0.1786 0.90586 0.0
C5797 C 0.96896 0.16513 0.8903 0.0
C5798 C 0.91252 0.17371 0.91817 0.0
C5799 C 0.98602 0.18988 0.91217 0.0
C5800 C 0.93449 0.22775 0.94097 0.0
C5801 C 0.9325 0.22084 0.96037 0.0
C5802 C 0.94142 0.21543 0.92613 0.0
C5803 C 0.94724 0.19605 0.93105 0.0
C5804 C 0.94771 0.18988 0.95097 0.0
C5805 C 0.94007 0.20234 0.9655 0.0
C5806 C 0.94058 0.22253 0.90501 0.0
C5807 C 0.95454 0.16947 0.95665 0.0
H5808 H 0.92102 0.14984 0.88782 0.0
H5809 H 0.98306 0.16286 0.88311 0.0
H5810 H 0.9137 0.17273 0.93439 0.0
H5811 H 0.907 0.1887 0.91452 0.0
H5812 H 0.90155 0.1626 0.91303 0.0
H5813 H 0.99825 0.18842 0.90138 0.0
H5814 H 0.98277 0.2058 0.91413 0.0
H5815 H 0.99116 0.18415 0.92661 0.0
H5816 H 0.92926 0.24235 0.937 0.0
H5817 H 0.93896 0.19712 0.98056 0.0
H5818 H 0.92835 0.21484 0.89721 0.0
H5819 H 0.95448 0.219 0.89718 0.0
H5820 H 0.938 0.2387 0.90398 0.0
H5821 H 0.94328 0.15845 0.952 0.0
H5822 H 0.95681 0.16804 0.9728 0.0
H5823 H 0.96854 0.16586 0.94901 0.0
C5824 C 0.32781 0.04976 0.34387 0.0
C5825 C 0.31783 0.06012 0.35865 0.0
C5826 C 0.34444 0.05801 0.33461 0.0
C5827 C 0.35063 0.07731 0.33984 0.0
C5828 C 0.33854 0.08889 0.35228 0.0
C5829 C 0.32256 0.07993 0.36199 0.0
C5830 C 0.35691 0.04496 0.32167 0.0
C5831 C 0.3442 0.10974 0.35779 0.0
C5832 C 0.40505 0.08599 0.34973 0.0
C5833 C 0.41056 0.09845 0.33416 0.0
C5834 C 0.38574 0.07868 0.35139 0.0
C5835 C 0.37155 0.08343 0.33677 0.0
C5836 C 0.37719 0.09495 0.32032 0.0
C5837 C 0.39655 0.10258 0.31933 0.0
C5838 C 0.3804 0.06641 0.36924 0.0
C5839 C 0.36261 0.09976 0.30417 0.0
H5840 H 0.32442 0.03425 0.34161 0.0
H5841 H 0.3155 0.0877 0.37393 0.0
H5842 H 0.36397 0.05353 0.30964 0.0
H5843 H 0.36885 0.03829 0.33069 0.0
H5844 H 0.34803 0.03276 0.31516 0.0
H5845 H 0.35575 0.10929 0.36941 0.0
H5846 H 0.35037 0.11784 0.34497 0.0
H5847 H 0.33134 0.11803 0.36359 0.0
H5848 H 0.41582 0.0821 0.36089 0.0
H5849 H 0.40045 0.11226 0.30721 0.0
H5850 H 0.37389 0.05208 0.36462 0.0
H5851 H 0.36913 0.07423 0.37812 0.0
H5852 H 0.39337 0.06343 0.37884 0.0
H5853 H 0.35494 0.08615 0.2991 0.0
H5854 H 0.36983 0.10692 0.29131 0.0
H5855 H 0.35112 0.10984 0.30994 0.0
C5856 C 0.20341 0.07876 0.6216 0.0
C5857 C 0.21787 0.06723 0.6127 0.0
C5858 C 0.19426 0.09398 0.61123 0.0
C5859 C 0.19931 0.09726 0.59128 0.0
C5860 C 0.21214 0.0841 0.58154 0.0
C5861 C 0.22148 0.06924 0.59252 0.0
C5862 C 0.18082 0.10782 0.62229 0.0
C5863 C 0.218 0.0872 0.56034 0.0
C5864 C 0.167 0.13812 0.57306 0.0
C5865 C 0.17787 0.15438 0.57991 0.0
C5866 C 0.17484 0.11901 0.57433 0.0
C5867 C 0.19393 0.11646 0.58241 0.0
C5868 C 0.20574 0.13318 0.5871 0.0
C5869 C 0.19742 0.152 0.58597 0.0
C5870 C 0.162 0.10152 0.56906 0.0
C5871 C 0.22611 0.13114 0.59599 0.0
H5872 H 0.20076 0.07729 0.63723 0.0
H5873 H 0.23326 0.06089 0.58585 0.0
H5874 H 0.18482 0.12351 0.61975 0.0
H5875 H 0.16547 0.10567 0.61695 0.0
H5876 H 0.18151 0.10532 0.6384 0.0
H5877 H 0.22404 0.07347 0.55379 0.0
H5878 H 0.20525 0.09224 0.55138 0.0
H5879 H 0.22962 0.09879 0.55955 0.0
H5880 H 0.15195 0.14019 0.56795 0.0
H5881 H 0.20584 0.16478 0.5908 0.0
H5882 H 0.15559 0.09515 0.58272 0.0
H5883 H 0.17082 0.08978 0.56189 0.0
H5884 H 0.14967 0.1058 0.55913 0.0
H5885 H 0.22469 0.12677 0.6117 0.0
H5886 H 0.23456 0.14524 0.59533 0.0
H5887 H 0.23468 0.11952 0.58839 0.0
C5888 C 0.21565 0.95235 0.86108 0.0
C5889 C 0.21859 0.97259 0.85862 0.0
C5890 C 0.20128 0.94236 0.85007 0.0
C5891 C 0.18864 0.95331 0.83754 0.0
C5892 C 0.19225 0.97362 0.83419 0.0
C5893 C 0.20762 0.98292 0.84447 0.0
C5894 C 0.19798 0.92057 0.85373 0.0
C5895 C 0.17832 0.98612 0.8221 0.0
C5896 C 0.1522 0.92133 0.81008 0.0
C5897 C 0.13781 0.91874 0.82467 0.0
C5898 C 0.16839 0.9339 0.81334 0.0
C5899 C 0.16975 0.94418 0.83139 0.0
C5900 C 0.15414 0.94302 0.84525 0.0
C5901 C 0.13845 0.93002 0.84181 0.0
C5902 C 0.1847 0.93491 0.79825 0.0
C5903 C 0.15467 0.95426 0.86443 0.0
H5904 H 0.22303 0.94471 0.873 0.0
H5905 H 0.20936 0.99883 0.84331 0.0
H5906 H 0.18466 0.91842 0.863 0.0
H5907 H 0.19545 0.9127 0.83961 0.0
H5908 H 0.21069 0.91371 0.86143 0.0
H5909 H 0.18516 1.00048 0.8179 0.0
H5910 H 0.17349 0.97831 0.80858 0.0
H5911 H 0.16491 0.98924 0.83095 0.0
H5912 H 0.15129 0.91279 0.79661 0.0
H5913 H 0.12687 0.92833 0.85272 0.0
H5914 H 0.19736 0.92592 0.80345 0.0
H5915 H 0.19012 0.95029 0.79634 0.0
H5916 H 0.17981 0.92915 0.78371 0.0
H5917 H 0.16378 0.94604 0.87527 0.0
H5918 H 0.13964 0.95604 0.87071 0.0
H5919 H 0.16142 0.96907 0.86242 0.0
C5920 C 0.3573 0.8867 0.07253 0.0
C5921 C 0.34946 0.8716 0.08451 0.0
C5922 C 0.35033 0.90623 0.07393 0.0
C5923 C 0.33537 0.91069 0.08771 0.0
C5924 C 0.32685 0.8953 0.09907 0.0
C5925 C 0.33386 0.87599 0.0972 0.0
C5926 C 0.35977 0.92224 0.0616 0.0
C5927 C 0.3109 0.8993 0.11399 0.0
C5928 C 0.32924 0.95651 0.11791 0.0
C5929 C 0.31087 0.96307 0.11115 0.0
C5930 C 0.33906 0.94103 0.1084 0.0
C5931 C 0.32987 0.93148 0.09222 0.0
C5932 C 0.3125 0.93965 0.08395 0.0
C5933 C 0.30313 0.95532 0.09365 0.0
C5934 C 0.35784 0.9333 0.11753 0.0
C5935 C 0.30231 0.93021 0.06655 0.0
H5936 H 0.36939 0.88345 0.06263 0.0
H5937 H 0.32733 0.86431 0.10601 0.0
H5938 H 0.34836 0.9321 0.05522 0.0
H5939 H 0.36947 0.93147 0.07108 0.0
H5940 H 0.36882 0.91606 0.04946 0.0
H5941 H 0.3051 0.88548 0.12069 0.0
H5942 H 0.31686 0.90879 0.12595 0.0
H5943 H 0.29852 0.90734 0.10693 0.0
H5944 H 0.33498 0.96201 0.13179 0.0
H5945 H 0.28853 0.9598 0.08887 0.0
H5946 H 0.36663 0.92423 0.10723 0.0
H5947 H 0.35406 0.92412 0.13057 0.0
H5948 H 0.36723 0.94581 0.12253 0.0
H5949 H 0.31322 0.92507 0.05555 0.0
H5950 H 0.2919 0.9406 0.05931 0.0
H5951 H 0.29376 0.91714 0.07165 0.0
C5952 C 0.39997 0.92103 0.2125 0.0
C5953 C 0.41228 0.92502 0.19621 0.0
C5954 C 0.38061 0.92829 0.21323 0.0
C5955 C 0.3733 0.93905 0.19703 0.0
C5956 C 0.38566 0.94315 0.18072 0.0
C5957 C 0.40504 0.93631 0.18061 0.0
C5958 C 0.368 0.9243 0.23114 0.0
C5959 C 0.37849 0.95517 0.16348 0.0
C5960 C 0.32186 0.94415 0.17808 0.0
C5961 C 0.31986 0.96456 0.17997 0.0
C5962 C 0.33839 0.93469 0.18613 0.0
C5963 C 0.35271 0.94607 0.19641 0.0
C5964 C 0.34902 0.96613 0.20075 0.0
C5965 C 0.33275 0.97523 0.19208 0.0
C5966 C 0.34201 0.91333 0.18105 0.0
C5967 C 0.36367 0.97869 0.212 0.0
H5968 H 0.40534 0.91208 0.2246 0.0
H5969 H 0.41459 0.93998 0.16833 0.0
H5970 H 0.36032 0.93794 0.23588 0.0
H5971 H 0.35645 0.91324 0.22743 0.0
H5972 H 0.37684 0.91858 0.2437 0.0
H5973 H 0.38962 0.95633 0.15152 0.0
H5974 H 0.36472 0.94867 0.15741 0.0
H5975 H 0.37485 0.97017 0.16872 0.0
H5976 H 0.31179 0.93603 0.16859 0.0
H5977 H 0.33106 0.99106 0.19343 0.0
H5978 H 0.34826 0.90528 0.19384 0.0
H5979 H 0.35293 0.91255 0.1689 0.0
H5980 H 0.32825 0.90576 0.17617 0.0
H5981 H 0.36973 0.97048 0.22479 0.0
H5982 H 0.35687 0.99261 0.21731 0.0
H5983 H 0.37622 0.98265 0.20225 0.0
C5984 C 0.344 0.15738 0.46519 0.0
C5985 C 0.35083 0.16678 0.44799 0.0
C5986 C 0.34091 0.1369 0.46579 0.0
C5987 C 0.34387 0.12564 0.44852 0.0
C5988 C 0.35182 0.13483 0.43148 0.0
C5989 C 0.35549 0.15522 0.43157 0.0
C5990 C 0.33334 0.12786 0.4847 0.0
C5991 C 0.35515 0.12348 0.41263 0.0
C5992 C 0.336 0.07183 0.43557 0.0
C5993 C 0.31608 0.07256 0.43019 0.0
C5994 C 0.345 0.08842 0.44441 0.0
C5995 C 0.33402 0.10617 0.44633 0.0
C5996 C 0.31342 0.10596 0.44277 0.0
C5997 C 0.30463 0.0887 0.43602 0.0
C5998 C 0.36634 0.08708 0.45058 0.0
C5999 C 0.30073 0.12429 0.44418 0.0
H6000 H 0.34048 0.16603 0.47812 0.0
H6001 H 0.36164 0.16219 0.41856 0.0
H6002 H 0.33298 0.11147 0.48439 0.0
H6003 H 0.34282 0.13266 0.49719 0.0
H6004 H 0.31826 0.13344 0.48778 0.0
H6005 H 0.36037 0.13312 0.40043 0.0
H6006 H 0.36637 0.11187 0.41509 0.0
H6007 H 0.34126 0.11607 0.40787 0.0
H6008 H 0.34472 0.05893 0.43199 0.0
H6009 H 0.28882 0.08861 0.43342 0.0
H6010 H 0.37104 0.09972 0.4599 0.0
H6011 H 0.37586 0.08641 0.43732 0.0
H6012 H 0.36875 0.07317 0.45893 0.0
H6013 H 0.2978 0.12763 0.45987 0.0
H6014 H 0.28623 0.12238 0.43669 0.0
H6015 H 0.30819 0.13729 0.43748 0.0
C6016 C 0.20723 0.08951 0.6787 0.0
C6017 C 0.2075 0.06886 0.67913 0.0
C6018 C 0.19027 0.09984 0.68489 0.0
C6019 C 0.17328 0.0892 0.69125 0.0
C6020 C 0.17426 0.06844 0.69319 0.0
C6021 C 0.19154 0.05865 0.68764 0.0
C6022 C 0.18985 0.12201 0.68295 0.0
C6023 C 0.15636 0.05628 0.69878 0.0
C6024 C 0.12867 0.11611 0.71243 0.0
C6025 C 0.11695 0.1188 0.69551 0.0
C6026 C 0.14709 0.10652 0.71133 0.0
C6027 C 0.15378 0.09929 0.69295 0.0
C6028 C 0.14145 0.10124 0.67613 0.0
C6029 C 0.12349 0.11128 0.67756 0.0
C6030 C 0.15925 0.1039 0.72981 0.0
C6031 C 0.14627 0.09226 0.65647 0.0
H6032 H 0.21946 0.09744 0.67204 0.0
H6033 H 0.1918 0.04264 0.68821 0.0
H6034 H 0.18008 0.12615 0.67047 0.0
H6035 H 0.18366 0.12874 0.69648 0.0
H6036 H 0.2048 0.1283 0.68025 0.0
H6037 H 0.16029 0.04076 0.70239 0.0
H6038 H 0.14858 0.06283 0.71153 0.0
H6039 H 0.14586 0.05607 0.68619 0.0
H6040 H 0.12349 0.12162 0.72648 0.0
H6041 H 0.11417 0.11266 0.66461 0.0
H6042 H 0.1736 0.11173 0.72818 0.0
H6043 H 0.16259 0.08804 0.73216 0.0
H6044 H 0.15161 0.10961 0.74309 0.0
H6045 H 0.14575 0.104 0.64508 0.0
H6046 H 0.13456 0.08142 0.65253 0.0
H6047 H 0.1607 0.08465 0.65597 0.0
C6048 C 0.17544 0.8798 0.94913 0.0
C6049 C 0.15988 0.88387 0.96191 0.0
C6050 C 0.19007 0.89389 0.94593 0.0
C6051 C 0.18872 0.91212 0.95595 0.0
C6052 C 0.17454 0.91507 0.97087 0.0
C6053 C 0.15996 0.90076 0.97361 0.0
C6054 C 0.20527 0.89024 0.93008 0.0
C6055 C 0.17345 0.93417 0.98224 0.0
C6056 C 0.22805 0.94804 0.94172 0.0
C6057 C 0.21805 0.95914 0.92752 0.0
C6058 C 0.21816 0.93373 0.95256 0.0
C6059 C 0.19849 0.92927 0.94741 0.0
C6060 C 0.18842 0.94014 0.93261 0.0
C6061 C 0.19829 0.95555 0.92318 0.0
C6062 C 0.22902 0.92288 0.96871 0.0
C6063 C 0.16778 0.93471 0.92588 0.0
H6064 H 0.17547 0.86611 0.94085 0.0
H6065 H 0.14815 0.90316 0.9841 0.0
H6066 H 0.20089 0.89825 0.91648 0.0
H6067 H 0.22002 0.89582 0.93453 0.0
H6068 H 0.20653 0.87429 0.9265 0.0
H6069 H 0.16484 0.93239 0.99604 0.0
H6070 H 0.18847 0.93974 0.98592 0.0
H6071 H 0.16609 0.94553 0.97301 0.0
H6072 H 0.24367 0.95054 0.94433 0.0
H6073 H 0.19107 0.96381 0.91151 0.0
H6074 H 0.23398 0.90831 0.96323 0.0
H6075 H 0.21925 0.92023 0.98156 0.0
H6076 H 0.2423 0.9312 0.97371 0.0
H6077 H 0.16772 0.91947 0.91985 0.0
H6078 H 0.16215 0.94486 0.91431 0.0
H6079 H 0.15741 0.93495 0.9385 0.0
C6080 C 0.31402 0.39961 0.10945 0.0
C6081 C 0.33129 0.41122 0.10794 0.0
C6082 C 0.31247 0.38144 0.09973 0.0
C6083 C 0.32889 0.37447 0.08914 0.0
C6084 C 0.34607 0.38633 0.08716 0.0
C6085 C 0.34696 0.40465 0.09642 0.0
C6086 C 0.29347 0.3697 0.10091 0.0
C6087 C 0.3635 0.3799 0.07503 0.0
C6088 C 0.34439 0.32209 0.08301 0.0
C6089 C 0.34447 0.32118 0.06249 0.0
C6090 C 0.33696 0.33882 0.09246 0.0
C6091 C 0.32902 0.35437 0.08092 0.0
C6092 C 0.32641 0.35199 0.06043 0.0
C6093 C 0.33461 0.33551 0.05137 0.0
C6094 C 0.34043 0.34109 0.11431 0.0
C6095 C 0.31719 0.36788 0.04781 0.0
H6096 H 0.30177 0.40453 0.1184 0.0
H6097 H 0.35995 0.41389 0.09458 0.0
H6098 H 0.28909 0.36433 0.08609 0.0
H6099 H 0.29565 0.35652 0.11037 0.0
H6100 H 0.28117 0.37855 0.10708 0.0
H6101 H 0.37672 0.38931 0.07774 0.0
H6102 H 0.36731 0.36429 0.07808 0.0
H6103 H 0.35969 0.38104 0.05919 0.0
H6104 H 0.35212 0.31093 0.09148 0.0
H6105 H 0.33475 0.33468 0.03544 0.0
H6106 H 0.32751 0.3479 0.12158 0.0
H6107 H 0.35334 0.351 0.11671 0.0
H6108 H 0.34355 0.32669 0.12152 0.0
H6109 H 0.30319 0.37301 0.0545 0.0
H6110 H 0.31413 0.36262 0.0326 0.0
H6111 H 0.32723 0.38084 0.04686 0.0
C6112 C 0.81777 0.13639 0.95059 0.0
C6113 C 0.81757 0.13308 0.93033 0.0
C6114 C 0.83047 0.15057 0.9586 0.0
C6115 C 0.84255 0.16186 0.94577 0.0
C6116 C 0.84349 0.15735 0.92549 0.0
C6117 C 0.83101 0.14273 0.918 0.0
C6118 C 0.82945 0.15475 0.98043 0.0
C6119 C 0.85575 0.16941 0.91131 0.0
C6120 C 0.84786 0.2138 0.96427 0.0
C6121 C 0.86685 0.21325 0.97222 0.0
C6122 C 0.84039 0.19756 0.95401 0.0
C6123 C 0.85178 0.18009 0.95309 0.0
C6124 C 0.8712 0.17968 0.96069 0.0
C6125 C 0.87873 0.19657 0.96978 0.0
C6126 C 0.81975 0.19858 0.94556 0.0
C6127 C 0.88316 0.1609 0.96101 0.0
H6128 H 0.80716 0.1288 0.95991 0.0
H6129 H 0.83047 0.14013 0.90223 0.0
H6130 H 0.84439 0.1575 0.98662 0.0
H6131 H 0.82052 0.16823 0.9829 0.0
H6132 H 0.82246 0.14236 0.98865 0.0
H6133 H 0.85989 0.1606 0.89817 0.0
H6134 H 0.84694 0.18223 0.90622 0.0
H6135 H 0.86933 0.17524 0.91835 0.0
H6136 H 0.83857 0.22653 0.96692 0.0
H6137 H 0.89312 0.19602 0.97682 0.0
H6138 H 0.80958 0.1895 0.95468 0.0
H6139 H 0.81942 0.1925 0.93039 0.0
H6140 H 0.81409 0.21396 0.94514 0.0
H6141 H 0.87641 0.15029 0.97153 0.0
H6142 H 0.8987 0.16358 0.96566 0.0
H6143 H 0.88304 0.15379 0.94631 0.0
C6144 C 0.07026 0.59828 0.19744 0.0
C6145 C 0.06714 0.59815 0.21765 0.0
C6146 C 0.08583 0.58735 0.18965 0.0
C6147 C 0.09764 0.57576 0.20256 0.0
C6148 C 0.09328 0.57432 0.22268 0.0
C6149 C 0.07844 0.5861 0.23006 0.0
C6150 C 0.09082 0.5897 0.16809 0.0
C6151 C 0.10521 0.56195 0.23689 0.0
C6152 C 0.13127 0.54676 0.17147 0.0
C6153 C 0.14595 0.56106 0.16897 0.0
C6154 C 0.11623 0.55002 0.18499 0.0
C6155 C 0.11624 0.56801 0.19539 0.0
C6156 C 0.13281 0.58079 0.1951 0.0
C6157 C 0.14771 0.57709 0.18164 0.0
C6158 C 0.09916 0.53567 0.18626 0.0
C6159 C 0.1336 0.59956 0.20705 0.0
H6160 H 0.06171 0.60807 0.1881 0.0
H6161 H 0.07605 0.58612 0.24579 0.0
H6162 H 0.10505 0.59781 0.16661 0.0
H6163 H 0.09266 0.57504 0.16108 0.0
H6164 H 0.07929 0.59802 0.15991 0.0
H6165 H 0.0955 0.55564 0.24851 0.0
H6166 H 0.11306 0.54968 0.2295 0.0
H6167 H 0.1163 0.57149 0.24434 0.0
H6168 H 0.13061 0.53409 0.16173 0.0
H6169 H 0.15967 0.58765 0.1797 0.0
H6170 H 0.08666 0.54131 0.17729 0.0
H6171 H 0.09394 0.53421 0.20169 0.0
H6172 H 0.10326 0.52084 0.18063 0.0
H6173 H 0.12229 0.61008 0.20159 0.0
H6174 H 0.14831 0.60689 0.20631 0.0
H6175 H 0.13022 0.5962 0.22264 0.0
C6176 C 0.69823 0.82738 0.48216 0.0
C6177 C 0.68759 0.81456 0.46985 0.0
C6178 C 0.70824 0.84357 0.4744 0.0
C6179 C 0.70782 0.84649 0.45387 0.0
C6180 C 0.69938 0.83204 0.44121 0.0
C6181 C 0.68919 0.81607 0.44947 0.0
C6182 C 0.71677 0.85871 0.48838 0.0
C6183 C 0.69899 0.8347 0.41912 0.0
C6184 C 0.69875 0.89487 0.4297 0.0
C6185 C 0.71653 0.8972 0.41963 0.0
C6186 C 0.69637 0.87936 0.44296 0.0
C6187 C 0.71224 0.86609 0.44581 0.0
C6188 C 0.73104 0.87009 0.43772 0.0
C6189 C 0.733 0.8858 0.4245 0.0
C6190 C 0.67619 0.87581 0.45185 0.0
C6191 C 0.74831 0.85647 0.44111 0.0
H6192 H 0.69726 0.82574 0.49804 0.0
H6193 H 0.68099 0.80596 0.44009 0.0
H6194 H 0.72947 0.86676 0.48184 0.0
H6195 H 0.70519 0.8697 0.49194 0.0
H6196 H 0.72156 0.85172 0.5024 0.0
H6197 H 0.69462 0.82089 0.41141 0.0
H6198 H 0.68818 0.84636 0.41521 0.0
H6199 H 0.71368 0.83952 0.41366 0.0
H6200 H 0.68622 0.90405 0.42584 0.0
H6201 H 0.74676 0.88797 0.41661 0.0
H6202 H 0.67745 0.87157 0.46759 0.0
H6203 H 0.66874 0.86347 0.44399 0.0
H6204 H 0.66662 0.88906 0.4507 0.0
H6205 H 0.74889 0.85143 0.45666 0.0
H6206 H 0.76257 0.86372 0.43733 0.0
H6207 H 0.74652 0.84316 0.43174 0.0
C6208 C 0.96364 0.933 0.20023 0.0
C6209 C 0.96369 0.93152 0.22069 0.0
C6210 C 0.94783 0.94216 0.19065 0.0
C6211 C 0.93225 0.95017 0.20203 0.0
C6212 C 0.9333 0.95033 0.22273 0.0
C6213 C 0.94904 0.94086 0.23184 0.0
C6214 C 0.94694 0.94171 0.16842 0.0
C6215 C 0.91696 0.95858 0.23538 0.0
C6216 C 0.89707 0.97923 0.17107 0.0
C6217 C 0.88461 0.96399 0.16476 0.0
C6218 C 0.9119 0.97539 0.18484 0.0
C6219 C 0.91392 0.95597 0.19215 0.0
C6220 C 0.89982 0.94118 0.18748 0.0
C6221 C 0.88529 0.94539 0.17355 0.0
C6222 C 0.92648 0.9915 0.19008 0.0
C6223 C 0.90118 0.92047 0.19571 0.0
H6224 H 0.97501 0.9257 0.19173 0.0
H6225 H 0.94914 0.93963 0.24775 0.0
H6226 H 0.93518 0.93126 0.16364 0.0
H6227 H 0.94313 0.95651 0.16252 0.0
H6228 H 0.96113 0.93692 0.16181 0.0
H6229 H 0.92253 0.96278 0.25021 0.0
H6230 H 0.90994 0.97165 0.22849 0.0
H6231 H 0.90537 0.94709 0.23736 0.0
H6232 H 0.89606 0.99369 0.16424 0.0
H6233 H 0.87521 0.93388 0.16867 0.0
H6234 H 0.94067 0.98872 0.18242 0.0
H6235 H 0.92957 0.99152 0.20614 0.0
H6236 H 0.92107 1.00634 0.18569 0.0
H6237 H 0.91364 0.91262 0.18861 0.0
H6238 H 0.88743 0.91184 0.19304 0.0
H6239 H 0.90413 0.92081 0.21178 0.0
C6240 C 0.21273 0.63358 0.61324 0.0
C6241 C 0.19637 0.621 0.61034 0.0
C6242 C 0.21362 0.65219 0.6043 0.0
C6243 C 0.19749 0.65852 0.59276 0.0
C6244 C 0.18128 0.64569 0.58921 0.0
C6245 C 0.18105 0.62695 0.59786 0.0
C6246 C 0.23141 0.66531 0.60776 0.0
C6247 C 0.16383 0.65195 0.5768 0.0
C6248 C 0.18063 0.71091 0.58708 0.0
C6249 C 0.18307 0.71311 0.56679 0.0
C6250 C 0.18706 0.69362 0.59645 0.0
C6251 C 0.19671 0.67892 0.58521 0.0
C6252 C 0.20189 0.68264 0.56544 0.0
C6253 C 0.19468 0.69963 0.55637 0.0
C6254 C 0.18121 0.68999 0.61758 0.0
C6255 C 0.21284 0.66764 0.55321 0.0
H6256 H 0.22466 0.62913 0.62293 0.0
H6257 H 0.16874 0.61704 0.59504 0.0
H6258 H 0.23674 0.67166 0.59365 0.0
H6259 H 0.22722 0.67785 0.61735 0.0
H6260 H 0.24375 0.65721 0.61489 0.0
H6261 H 0.15259 0.64002 0.57531 0.0
H6262 H 0.15667 0.66501 0.58354 0.0
H6263 H 0.16879 0.6563 0.56185 0.0
H6264 H 0.17195 0.72153 0.59516 0.0
H6265 H 0.19648 0.70137 0.54065 0.0
H6266 H 0.19311 0.68236 0.62581 0.0
H6267 H 0.16795 0.68028 0.61788 0.0
H6268 H 0.17766 0.70397 0.6253 0.0
H6269 H 0.22588 0.66203 0.56136 0.0
H6270 H 0.21784 0.67392 0.53892 0.0
H6271 H 0.20304 0.65482 0.55014 0.0
C6272 C 0.06748 0.44458 0.32608 0.0
C6273 C 0.06666 0.42401 0.32472 0.0
C6274 C 0.08387 0.45378 0.3349 0.0
C6275 C 0.09944 0.44187 0.34211 0.0
C6276 C 0.09749 0.42104 0.34242 0.0
C6277 C 0.08086 0.41244 0.33398 0.0
C6278 C 0.08512 0.47602 0.33493 0.0
C6279 C 0.11383 0.40766 0.34965 0.0
C6280 C 0.15348 0.4499 0.33799 0.0
C6281 C 0.15858 0.4494 0.35789 0.0
C6282 C 0.13364 0.45052 0.33236 0.0
C6283 C 0.11888 0.45029 0.34712 0.0
C6284 C 0.12413 0.45226 0.36716 0.0
C6285 C 0.14412 0.45172 0.37238 0.0
C6286 C 0.12846 0.44945 0.31076 0.0
C6287 C 0.10865 0.45271 0.38311 0.0
H6288 H 0.0561 0.4534 0.31914 0.0
H6289 H 0.07965 0.39654 0.33334 0.0
H6290 H 0.09434 0.48162 0.34727 0.0
H6291 H 0.09183 0.48111 0.32091 0.0
H6292 H 0.07016 0.48262 0.33596 0.0
H6293 H 0.1265 0.40846 0.3393 0.0
H6294 H 0.11919 0.41231 0.36436 0.0
H6295 H 0.10894 0.39204 0.3507 0.0
H6296 H 0.16499 0.44917 0.32692 0.0
H6297 H 0.14841 0.45228 0.38777 0.0
H6298 H 0.11706 0.46057 0.30705 0.0
H6299 H 0.12216 0.4347 0.30739 0.0
H6300 H 0.14155 0.45195 0.3012 0.0
H6301 H 0.09589 0.4619 0.37852 0.0
H6302 H 0.11472 0.45851 0.39718 0.0
H6303 H 0.10307 0.43749 0.38576 0.0
C6304 C 0.45872 0.6059 0.831 0.0
C6305 C 0.46111 0.60705 0.81061 0.0
C6306 C 0.44217 0.59645 0.83924 0.0
C6307 C 0.42724 0.58891 0.82665 0.0
C6308 C 0.43083 0.58779 0.80615 0.0
C6309 C 0.44803 0.59648 0.79843 0.0
C6310 C 0.43937 0.59712 0.86126 0.0
C6311 C 0.41532 0.58011 0.79207 0.0
C6312 C 0.38058 0.5682 0.8506 0.0
C6313 C 0.36818 0.58493 0.85083 0.0
C6314 C 0.39946 0.56887 0.84191 0.0
C6315 C 0.40665 0.58693 0.83421 0.0
C6316 C 0.3943 0.60376 0.83425 0.0
C6317 C 0.37516 0.60239 0.84198 0.0
C6318 C 0.41186 0.55039 0.84146 0.0
C6319 C 0.40143 0.62349 0.82646 0.0
H6320 H 0.4684 0.6143 0.84041 0.0
H6321 H 0.44972 0.59752 0.78257 0.0
H6322 H 0.42882 0.60905 0.86497 0.0
H6323 H 0.43307 0.58299 0.86672 0.0
H6324 H 0.45351 0.60007 0.86909 0.0
H6325 H 0.42172 0.57651 0.77746 0.0
H6326 H 0.40787 0.56679 0.7981 0.0
H6327 H 0.40387 0.59161 0.78987 0.0
H6328 H 0.3759 0.55458 0.85756 0.0
H6329 H 0.36575 0.61523 0.84115 0.0
H6330 H 0.42336 0.55126 0.85309 0.0
H6331 H 0.41954 0.54889 0.82711 0.0
H6332 H 0.40282 0.53689 0.84405 0.0
H6333 H 0.41467 0.62841 0.83483 0.0
H6334 H 0.39001 0.63517 0.82762 0.0
H6335 H 0.40579 0.62211 0.81079 0.0
C6336 C 0.94043 0.71618 0.63955 0.0
C6337 C 0.9199 0.71567 0.63792 0.0
C6338 C 0.94996 0.70415 0.65332 0.0
C6339 C 0.93842 0.69169 0.66561 0.0
C6340 C 0.91775 0.69033 0.66305 0.0
C6341 C 0.90869 0.70243 0.6491 0.0
C6342 C 0.97214 0.7056 0.65549 0.0
C6343 C 0.90509 0.6773 0.67602 0.0
C6344 C 0.96493 0.65355 0.69596 0.0
C6345 C 0.96961 0.66462 0.71272 0.0
C6346 C 0.95453 0.6621 0.68039 0.0
C6347 C 0.94773 0.68167 0.6824 0.0
C6348 C 0.95085 0.69222 0.70014 0.0
C6349 C 0.96251 0.68378 0.71487 0.0
C6350 C 0.95227 0.65084 0.6613 0.0
C6351 C 0.94294 0.71283 0.70308 0.0
H6352 H 0.94887 0.72655 0.63069 0.0
H6353 H 0.89273 0.70224 0.64753 0.0
H6354 H 0.97585 0.71358 0.66927 0.0
H6355 H 0.97875 0.69067 0.65655 0.0
H6356 H 0.97906 0.71363 0.64297 0.0
H6357 H 0.88948 0.67671 0.67094 0.0
H6358 H 0.91096 0.66205 0.67646 0.0
H6359 H 0.90543 0.68302 0.69132 0.0
H6360 H 0.97101 0.63889 0.69427 0.0
H6361 H 0.96667 0.69236 0.72772 0.0
H6362 H 0.95949 0.65916 0.64918 0.0
H6363 H 0.93644 0.64936 0.65734 0.0
H6364 H 0.95885 0.63585 0.6621 0.0
H6365 H 0.95153 0.72342 0.69397 0.0
H6366 H 0.94394 0.71755 0.71871 0.0
H6367 H 0.92727 0.71368 0.69829 0.0
C6368 C 0.09325 0.21792 0.46269 0.0
C6369 C 0.11352 0.21397 0.46299 0.0
C6370 C 0.08116 0.20985 0.44789 0.0
C6371 C 0.08978 0.19753 0.43347 0.0
C6372 C 0.10979 0.19171 0.4353 0.0
C6373 C 0.12138 0.20006 0.4501 0.0
C6374 C 0.05995 0.21645 0.4464 0.0
C6375 C 0.1196 0.17827 0.42047 0.0
C6376 C 0.07101 0.16704 0.39205 0.0
C6377 C 0.0785 0.17825 0.37636 0.0
C6378 C 0.07158 0.17451 0.41129 0.0
C6379 C 0.07976 0.19347 0.41455 0.0
C6380 C 0.08449 0.20582 0.3983 0.0
C6381 C 0.08404 0.19788 0.37932 0.0
C6382 C 0.06591 0.16123 0.42823 0.0
C6383 C 0.09321 0.22619 0.40107 0.0
H6384 H 0.08728 0.22896 0.47248 0.0
H6385 H 0.13716 0.19724 0.45038 0.0
H6386 H 0.05902 0.22923 0.43619 0.0
H6387 H 0.05033 0.20453 0.44049 0.0
H6388 H 0.0542 0.22123 0.46094 0.0
H6389 H 0.13591 0.17871 0.42166 0.0
H6390 H 0.11441 0.16288 0.42284 0.0
H6391 H 0.11595 0.18241 0.40511 0.0
H6392 H 0.06616 0.15196 0.3895 0.0
H6393 H 0.08924 0.2066 0.36693 0.0
H6394 H 0.05928 0.16984 0.44042 0.0
H6395 H 0.07936 0.15392 0.43406 0.0
H6396 H 0.05532 0.14956 0.42352 0.0
H6397 H 0.08579 0.23413 0.41323 0.0
H6398 H 0.09207 0.23519 0.38742 0.0
H6399 H 0.1091 0.22482 0.40493 0.0
C6400 C 0.54545 0.33942 0.19344 0.0
C6401 C 0.55776 0.34651 0.20853 0.0
C6402 C 0.55328 0.32935 0.1775 0.0
C6403 C 0.5737 0.32562 0.17727 0.0
C6404 C 0.58579 0.33051 0.19368 0.0
C6405 C 0.5776 0.34115 0.20925 0.0
C6406 C 0.54014 0.32481 0.16005 0.0
C6407 C 0.60768 0.3263 0.19389 0.0
C6408 C 0.6009 0.29461 0.14104 0.0
C6409 C 0.61044 0.30953 0.13043 0.0
C6410 C 0.58694 0.2995 0.15529 0.0
C6411 C 0.58307 0.31965 0.15884 0.0
C6412 C 0.5909 0.33451 0.14637 0.0
C6413 C 0.60458 0.32916 0.13209 0.0
C6414 C 0.57834 0.28338 0.16809 0.0
C6415 C 0.58698 0.35619 0.14981 0.0
H6416 H 0.52986 0.34308 0.19332 0.0
H6417 H 0.58695 0.34649 0.22111 0.0
H6418 H 0.54312 0.3357 0.14816 0.0
H6419 H 0.54329 0.30993 0.15405 0.0
H6420 H 0.52422 0.32565 0.16389 0.0
H6421 H 0.61423 0.32835 0.20877 0.0
H6422 H 0.61058 0.31098 0.18894 0.0
H6423 H 0.61532 0.33646 0.18352 0.0
H6424 H 0.60571 0.27943 0.13952 0.0
H6425 H 0.61228 0.34052 0.12377 0.0
H6426 H 0.56278 0.28655 0.17204 0.0
H6427 H 0.58696 0.28248 0.18199 0.0
H6428 H 0.57898 0.26877 0.1607 0.0
H6429 H 0.59202 0.3655 0.13728 0.0
H6430 H 0.59501 0.36099 0.16323 0.0
H6431 H 0.57102 0.35886 0.1523 0.0
C6432 C 0.42959 0.79041 0.94673 0.0
C6433 C 0.421 0.80308 0.96059 0.0
C6434 C 0.44147 0.79785 0.93166 0.0
C6435 C 0.44607 0.81819 0.93154 0.0
C6436 C 0.43966 0.83052 0.94714 0.0
C6437 C 0.42663 0.82287 0.96123 0.0
C6438 C 0.44766 0.7842 0.91522 0.0
C6439 C 0.44488 0.85222 0.94784 0.0
C6440 C 0.48366 0.84281 0.89906 0.0
C6441 C 0.47115 0.85345 0.88653 0.0
C6442 C 0.4758 0.82962 0.91288 0.0
C6443 C 0.45509 0.82729 0.91398 0.0
C6444 C 0.44268 0.83616 0.89969 0.0
C6445 C 0.45094 0.84922 0.88599 0.0
C6446 C 0.48938 0.82008 0.92772 0.0
C6447 C 0.4205 0.83352 0.90019 0.0
H6448 H 0.42534 0.77494 0.94649 0.0
H6449 H 0.41974 0.83268 0.9716 0.0
H6450 H 0.44636 0.79148 0.90061 0.0
H6451 H 0.46333 0.77999 0.91735 0.0
H6452 H 0.43865 0.77043 0.91495 0.0
H6453 H 0.443 0.85834 0.96287 0.0
H6454 H 0.46036 0.85483 0.94313 0.0
H6455 H 0.43504 0.86047 0.93768 0.0
H6456 H 0.49931 0.84631 0.89935 0.0
H6457 H 0.44138 0.85767 0.87632 0.0
H6458 H 0.48583 0.80415 0.9293 0.0
H6459 H 0.48719 0.82704 0.94235 0.0
H6460 H 0.50517 0.82166 0.92355 0.0
H6461 H 0.41659 0.81766 0.90182 0.0
H6462 H 0.41327 0.8394 0.88671 0.0
H6463 H 0.41443 0.84143 0.91311 0.0
C6464 C 0.94239 0.32539 0.89505 0.0
C6465 C 0.92181 0.32624 0.8964 0.0
C6466 C 0.95169 0.32778 0.87679 0.0
C6467 C 0.93991 0.33105 0.85979 0.0
C6468 C 0.91914 0.32904 0.8609 0.0
C6469 C 0.91025 0.32688 0.87937 0.0
C6470 C 0.97389 0.33008 0.87631 0.0
C6471 C 0.90621 0.33181 0.84303 0.0
C6472 C 0.96063 0.37462 0.83248 0.0
C6473 C 0.97167 0.36544 0.81779 0.0
C6474 C 0.94921 0.36351 0.84553 0.0
C6475 C 0.94851 0.3427 0.84346 0.0
C6476 C 0.95801 0.33353 0.82736 0.0
C6477 C 0.96966 0.34511 0.81466 0.0
C6478 C 0.93924 0.374 0.86247 0.0
C6479 C 0.95757 0.31144 0.82461 0.0
H6480 H 0.95118 0.32459 0.9084 0.0
H6481 H 0.89428 0.32701 0.88062 0.0
H6482 H 0.98015 0.32316 0.86292 0.0
H6483 H 0.97772 0.34605 0.87591 0.0
H6484 H 0.98099 0.32348 0.88952 0.0
H6485 H 0.89152 0.32471 0.84508 0.0
H6486 H 0.90389 0.34784 0.84056 0.0
H6487 H 0.91328 0.32563 0.82967 0.0
H6488 H 0.96226 0.39039 0.83484 0.0
H6489 H 0.97842 0.33799 0.80345 0.0
H6490 H 0.94189 0.36642 0.8767 0.0
H6491 H 0.92305 0.37412 0.85991 0.0
H6492 H 0.94465 0.38937 0.8642 0.0
H6493 H 0.9693 0.30469 0.83382 0.0
H6494 H 0.96042 0.30738 0.80902 0.0
H6495 H 0.94318 0.30503 0.82922 0.0
C6496 C 0.47211 0.17484 0.63543 0.0
C6497 C 0.45624 0.16443 0.64394 0.0
C6498 C 0.4689 0.18862 0.62032 0.0
C6499 C 0.44943 0.19178 0.61351 0.0
C6500 C 0.43336 0.18162 0.62233 0.0
C6501 C 0.43698 0.16817 0.63751 0.0
C6502 C 0.48624 0.19963 0.61153 0.0
C6503 C 0.41227 0.18476 0.61562 0.0
C6504 C 0.42691 0.23384 0.58643 0.0
C6505 C 0.422 0.22432 0.56869 0.0
C6506 C 0.43861 0.22447 0.60058 0.0
C6507 C 0.4454 0.20517 0.59677 0.0
C6508 C 0.44348 0.19714 0.57763 0.0
C6509 C 0.43204 0.20715 0.56361 0.0
C6510 C 0.44104 0.23403 0.62051 0.0
C6511 C 0.45089 0.17673 0.57278 0.0
H6512 H 0.48707 0.172 0.64037 0.0
H6513 H 0.42467 0.1606 0.64444 0.0
H6514 H 0.48746 0.19624 0.5956 0.0
H6515 H 0.48394 0.2158 0.61279 0.0
H6516 H 0.50042 0.19582 0.61884 0.0
H6517 H 0.40153 0.17571 0.62414 0.0
H6518 H 0.40821 0.20053 0.61722 0.0
H6519 H 0.41078 0.18089 0.59981 0.0
H6520 H 0.42007 0.24779 0.5901 0.0
H6521 H 0.42967 0.20058 0.54952 0.0
H6522 H 0.45532 0.23002 0.62744 0.0
H6523 H 0.429 0.22886 0.63036 0.0
H6524 H 0.44011 0.25039 0.61942 0.0
H6525 H 0.46505 0.17356 0.58036 0.0
H6526 H 0.45297 0.17485 0.55667 0.0
H6527 H 0.43984 0.16565 0.57781 0.0
C6528 C 0.5868 0.71952 0.38916 0.0
C6529 C 0.6071 0.71694 0.39162 0.0
C6530 C 0.57615 0.7073 0.37638 0.0
C6531 C 0.58633 0.6926 0.36567 0.0
C6532 C 0.60659 0.68906 0.36928 0.0
C6533 C 0.61679 0.70132 0.38241 0.0
C6534 C 0.55443 0.71122 0.37316 0.0
C6535 C 0.61796 0.67377 0.35788 0.0
C6536 C 0.55485 0.65655 0.33725 0.0
C6537 C 0.55286 0.66654 0.31931 0.0
C6538 C 0.56627 0.66454 0.35243 0.0
C6539 C 0.57626 0.6826 0.3492 0.0
C6540 C 0.57537 0.69203 0.33056 0.0
C6541 C 0.56311 0.68412 0.31592 0.0
C6542 C 0.56651 0.65441 0.37227 0.0
C6543 C 0.58655 0.71094 0.32644 0.0
H6544 H 0.57954 0.73181 0.39634 0.0
H6545 H 0.63262 0.69966 0.38429 0.0
H6546 H 0.5523 0.71848 0.35865 0.0
H6547 H 0.54591 0.69717 0.37298 0.0
H6548 H 0.54823 0.72099 0.38471 0.0
H6549 H 0.63155 0.66919 0.36585 0.0
H6550 H 0.60877 0.66054 0.35485 0.0
H6551 H 0.6224 0.68014 0.34348 0.0
H6552 H 0.54637 0.64315 0.33983 0.0
H6553 H 0.56102 0.69196 0.30213 0.0
H6554 H 0.5589 0.66384 0.38324 0.0
H6555 H 0.58192 0.65239 0.37746 0.0
H6556 H 0.55903 0.63977 0.3719 0.0
H6557 H 0.58021 0.72315 0.33524 0.0
H6558 H 0.58596 0.71513 0.31062 0.0
H6559 H 0.60227 0.70937 0.33087 0.0
C6560 C 0.09157 0.83095 0.0654 0.0
C6561 C 0.09211 0.81042 0.06432 0.0
C6562 C 0.08194 0.84006 0.08114 0.0
C6563 C 0.07262 0.82813 0.09565 0.0
C6564 C 0.07122 0.80751 0.09321 0.0
C6565 C 0.08101 0.79886 0.07742 0.0
C6566 C 0.08364 0.86219 0.08341 0.0
C6567 C 0.06144 0.7944 0.10838 0.0
C6568 C 0.07971 0.85289 0.14424 0.0
C6569 C 0.06204 0.86331 0.14554 0.0
C6570 C 0.08264 0.83955 0.12892 0.0
C6571 C 0.06751 0.83702 0.11468 0.0
C6572 C 0.04881 0.84582 0.11734 0.0
C6573 C 0.04628 0.85905 0.13291 0.0
C6574 C 0.10267 0.82997 0.12681 0.0
C6575 C 0.0323 0.84312 0.10261 0.0
H6576 H 0.1002 0.83974 0.05516 0.0
H6577 H 0.08143 0.78288 0.07629 0.0
H6578 H 0.06918 0.86861 0.08755 0.0
H6579 H 0.09429 0.86566 0.09539 0.0
H6580 H 0.08891 0.86945 0.0697 0.0
H6581 H 0.0586 0.7793 0.10259 0.0
H6582 H 0.07122 0.79313 0.12146 0.0
H6583 H 0.04727 0.80082 0.11339 0.0
H6584 H 0.09172 0.85631 0.1543 0.0
H6585 H 0.03261 0.86725 0.13421 0.0
H6586 H 0.11111 0.83753 0.11497 0.0
H6587 H 0.10112 0.81421 0.12262 0.0
H6588 H 0.11144 0.83089 0.14064 0.0
H6589 H 0.0345 0.85364 0.09024 0.0
H6590 H 0.01768 0.84615 0.10934 0.0
H6591 H 0.03215 0.82798 0.0964 0.0
C6592 C 0.71224 0.96437 0.68521 0.0
C6593 C 0.70897 0.9735 0.66701 0.0
C6594 C 0.69763 0.95221 0.69363 0.0
C6595 C 0.67936 0.94975 0.68369 0.0
C6596 C 0.67632 0.9587 0.66507 0.0
C6597 C 0.69123 0.97045 0.657 0.0
C6598 C 0.70134 0.94286 0.71347 0.0
C6599 C 0.65689 0.95688 0.65419 0.0
C6600 C 0.64062 0.91054 0.69071 0.0
C6601 C 0.62577 0.92143 0.69994 0.0
C6602 C 0.65923 0.91896 0.68722 0.0
C6603 C 0.66275 0.93879 0.69278 0.0
C6604 C 0.64827 0.94928 0.70354 0.0
C6605 C 0.62992 0.94034 0.70716 0.0
C6606 C 0.67444 0.90727 0.676 0.0
C6607 C 0.65135 0.9706 0.7094 0.0
H6608 H 0.7259 0.96723 0.69309 0.0
H6609 H 0.68853 0.97842 0.64344 0.0
H6610 H 0.69238 0.95046 0.7248 0.0
H6611 H 0.69675 0.9271 0.71338 0.0
H6612 H 0.71715 0.94384 0.71784 0.0
H6613 H 0.65685 0.96531 0.64015 0.0
H6614 H 0.6537 0.94113 0.65093 0.0
H6615 H 0.64466 0.96245 0.66348 0.0
H6616 H 0.63738 0.89575 0.68546 0.0
H6617 H 0.61834 0.94865 0.71437 0.0
H6618 H 0.68933 0.90933 0.68258 0.0
H6619 H 0.67511 0.91268 0.66057 0.0
H6620 H 0.67083 0.89125 0.67574 0.0
H6621 H 0.66598 0.97262 0.71652 0.0
H6622 H 0.6397 0.97585 0.71962 0.0
H6623 H 0.65109 0.98007 0.69604 0.0
C6624 C 0.83822 0.87699 0.45241 0.0
C6625 C 0.85773 0.87377 0.4465 0.0
C6626 C 0.82949 0.89557 0.44997 0.0
C6627 C 0.84077 0.91127 0.44184 0.0
C6628 C 0.86105 0.90849 0.43771 0.0
C6629 C 0.86926 0.88962 0.43983 0.0
C6630 C 0.8077 0.89777 0.45415 0.0
C6631 C 0.87364 0.92506 0.42962 0.0
C6632 C 0.81167 0.94291 0.4066 0.0
C6633 C 0.80667 0.959 0.41832 0.0
C6634 C 0.82331 0.92764 0.414 0.0
C6635 C 0.83042 0.92871 0.43359 0.0
C6636 C 0.82626 0.94553 0.44525 0.0
C6637 C 0.81401 0.96041 0.43755 0.0
C6638 C 0.82701 0.90983 0.40117 0.0
C6639 C 0.83376 0.94735 0.4661 0.0
H6640 H 0.82946 0.86465 0.45777 0.0
H6641 H 0.88452 0.8871 0.43572 0.0
H6642 H 0.80485 0.91162 0.46235 0.0
H6643 H 0.79948 0.89866 0.44 0.0
H6644 H 0.80171 0.88512 0.46275 0.0
H6645 H 0.88965 0.92165 0.4306 0.0
H6646 H 0.86981 0.92754 0.41393 0.0
H6647 H 0.87073 0.939 0.43766 0.0
H6648 H 0.80531 0.94164 0.39205 0.0
H6649 H 0.80975 0.9728 0.44668 0.0
H6650 H 0.82254 0.89607 0.40888 0.0
H6651 H 0.84302 0.90875 0.39788 0.0
H6652 H 0.8187 0.91058 0.3871 0.0
H6653 H 0.824 0.93872 0.47605 0.0
H6654 H 0.83376 0.96297 0.47112 0.0
H6655 H 0.84894 0.94138 0.46753 0.0
C6656 C 0.81628 0.06544 0.18546 0.0
C6657 C 0.81813 0.05419 0.16841 0.0
C6658 C 0.83195 0.07743 0.19174 0.0
C6659 C 0.85003 0.077 0.18125 0.0
C6660 C 0.8521 0.06502 0.16441 0.0
C6661 C 0.83588 0.05407 0.15789 0.0
C6662 C 0.82917 0.09043 0.20957 0.0
C6663 C 0.87156 0.06329 0.15368 0.0
C6664 C 0.88281 0.12162 0.18619 0.0
C6665 C 0.89415 0.1165 0.20264 0.0
C6666 C 0.86871 0.10859 0.17868 0.0
C6667 C 0.86654 0.08974 0.18742 0.0
C6668 C 0.87935 0.08366 0.20272 0.0
C6669 C 0.89284 0.09731 0.21044 0.0
C6670 C 0.85506 0.11568 0.16255 0.0
C6671 C 0.8781 0.06325 0.21169 0.0
H6672 H 0.80264 0.06487 0.19378 0.0
H6673 H 0.83731 0.04469 0.14506 0.0
H6674 H 0.83899 0.08544 0.22166 0.0
H6675 H 0.83331 0.10591 0.20598 0.0
H6676 H 0.81369 0.09018 0.21498 0.0
H6677 H 0.87067 0.05299 0.14099 0.0
H6678 H 0.87645 0.07797 0.14823 0.0
H6679 H 0.8831 0.05792 0.16401 0.0
H6680 H 0.88417 0.1363 0.17992 0.0
H6681 H 0.90151 0.09327 0.22327 0.0
H6682 H 0.84015 0.11797 0.16886 0.0
H6683 H 0.85362 0.10454 0.15069 0.0
H6684 H 0.86016 0.12982 0.15593 0.0
H6685 H 0.86578 0.0627 0.22242 0.0
H6686 H 0.89193 0.05933 0.21962 0.0
H6687 H 0.87516 0.05189 0.20027 0.0
C6688 C 0.69564 0.14859 0.95487 0.0
C6689 C 0.67522 0.15117 0.95575 0.0
C6690 C 0.70357 0.12971 0.9524 0.0
C6691 C 0.69059 0.11328 0.95073 0.0
C6692 C 0.67016 0.11568 0.95432 0.0
C6693 C 0.66261 0.13478 0.95663 0.0
C6694 C 0.72541 0.12791 0.94829 0.0
C6695 C 0.65604 0.09841 0.9532 0.0
C6696 C 0.7055 0.08342 0.90684 0.0
C6697 C 0.71687 0.0686 0.91552 0.0
C6698 C 0.69595 0.09744 0.91833 0.0
C6699 C 0.69718 0.09608 0.93911 0.0
C6700 C 0.70673 0.07976 0.948 0.0
C6701 C 0.7166 0.06609 0.93598 0.0
C6702 C 0.68619 0.11471 0.9081 0.0
C6703 C 0.70837 0.07779 0.97006 0.0
H6704 H 0.70524 0.16146 0.95449 0.0
H6705 H 0.64679 0.13698 0.95774 0.0
H6706 H 0.73158 0.11454 0.9554 0.0
H6707 H 0.72766 0.12649 0.93217 0.0
H6708 H 0.7338 0.14107 0.95346 0.0
H6709 H 0.64194 0.10162 0.96086 0.0
H6710 H 0.65266 0.0952 0.93752 0.0
H6711 H 0.66273 0.08495 0.95972 0.0
H6712 H 0.70572 0.08523 0.89097 0.0
H6713 H 0.72553 0.05473 0.94271 0.0
H6714 H 0.69106 0.129 0.91443 0.0
H6715 H 0.66994 0.11362 0.90996 0.0
H6716 H 0.68977 0.11518 0.89218 0.0
H6717 H 0.72106 0.08679 0.97534 0.0
H6718 H 0.71101 0.06221 0.97449 0.0
H6719 H 0.69487 0.08323 0.9775 0.0
C6720 C 0.62634 0.10782 0.84847 0.0
C6721 C 0.61437 0.10293 0.83238 0.0
C6722 C 0.64665 0.10414 0.8482 0.0
C6723 C 0.65538 0.09573 0.83122 0.0
C6724 C 0.64369 0.09272 0.81414 0.0
C6725 C 0.62326 0.0961 0.815 0.0
C6726 C 0.65842 0.10792 0.86667 0.0
C6727 C 0.65225 0.08469 0.79528 0.0
C6728 C 0.70927 0.08612 0.84348 0.0
C6729 C 0.70783 0.06635 0.84936 0.0
C6730 C 0.69281 0.09556 0.83486 0.0
C6731 C 0.67448 0.08526 0.83356 0.0
C6732 C 0.67376 0.06485 0.83792 0.0
C6733 C 0.69077 0.05553 0.84449 0.0
C6734 C 0.69498 0.11667 0.82816 0.0
C6735 C 0.6547 0.053 0.83756 0.0
H6736 H 0.6197 0.11408 0.86155 0.0
H6737 H 0.6142 0.0927 0.80225 0.0
H6738 H 0.66562 0.0941 0.87175 0.0
H6739 H 0.67013 0.11894 0.86349 0.0
H6740 H 0.64917 0.11369 0.87885 0.0
H6741 H 0.6469 0.09354 0.78257 0.0
H6742 H 0.66865 0.08478 0.79522 0.0
H6743 H 0.64689 0.06935 0.79295 0.0
H6744 H 0.72271 0.09439 0.84639 0.0
H6745 H 0.68998 0.03984 0.84767 0.0
H6746 H 0.69586 0.12652 0.84118 0.0
H6747 H 0.68255 0.12144 0.81859 0.0
H6748 H 0.70903 0.11853 0.81991 0.0
H6749 H 0.64261 0.06107 0.84503 0.0
H6750 H 0.65624 0.03842 0.84494 0.0
H6751 H 0.65016 0.05032 0.82211 0.0
C6752 C 0.72318 0.94919 0.58766 0.0
C6753 C 0.71264 0.9626 0.59918 0.0
C6754 C 0.71436 0.93176 0.5811 0.0
C6755 C 0.69478 0.92752 0.58692 0.0
C6756 C 0.68339 0.94202 0.59666 0.0
C6757 C 0.69246 0.95976 0.60238 0.0
C6758 C 0.72676 0.91694 0.57009 0.0
C6759 C 0.66252 0.93782 0.60329 0.0
C6760 C 0.66852 0.88109 0.57036 0.0
C6761 C 0.67286 0.86811 0.58599 0.0
C6762 C 0.67608 0.90037 0.57009 0.0
C6763 C 0.68759 0.90695 0.58615 0.0
C6764 C 0.69209 0.89399 0.60191 0.0
C6765 C 0.68487 0.87463 0.60149 0.0
C6766 C 0.67156 0.91375 0.55284 0.0
C6767 C 0.70434 0.90061 0.61937 0.0
H6768 H 0.73885 0.95146 0.58531 0.0
H6769 H 0.68432 0.97032 0.61108 0.0
H6770 H 0.73164 0.90518 0.58038 0.0
H6771 H 0.71805 0.9098 0.55819 0.0
H6772 H 0.74012 0.92393 0.56356 0.0
H6773 H 0.65447 0.95161 0.60682 0.0
H6774 H 0.6541 0.92963 0.59188 0.0
H6775 H 0.66298 0.92842 0.6167 0.0
H6776 H 0.659 0.87632 0.55842 0.0
H6777 H 0.68866 0.86456 0.61332 0.0
H6778 H 0.68539 0.92044 0.54705 0.0
H6779 H 0.66199 0.92606 0.55772 0.0
H6780 H 0.66397 0.90579 0.54068 0.0
H6781 H 0.71926 0.9053 0.61442 0.0
H6782 H 0.70608 0.88876 0.63058 0.0
H6783 H 0.69734 0.91354 0.62651 0.0
C6784 C 0.81811 0.94076 0.35092 0.0
C6785 C 0.81781 0.96138 0.34995 0.0
C6786 C 0.8349 0.93047 0.34453 0.0
C6787 C 0.85103 0.94119 0.33653 0.0
C6788 C 0.84917 0.96153 0.33252 0.0
C6789 C 0.83278 0.97146 0.33976 0.0
C6790 C 0.83641 0.9086 0.34845 0.0
C6791 C 0.86562 0.97335 0.32308 0.0
C6792 C 0.90232 0.9284 0.35399 0.0
C6793 C 0.9098 0.91782 0.33801 0.0
C6794 C 0.88299 0.93551 0.35381 0.0
C6795 C 0.87103 0.9326 0.33689 0.0
C6796 C 0.87856 0.92246 0.32042 0.0
C6797 C 0.8977 0.91472 0.32136 0.0
C6798 C 0.87551 0.94645 0.37168 0.0
C6799 C 0.86653 0.91986 0.30182 0.0
H6800 H 0.80634 0.93294 0.35845 0.0
H6801 H 0.83269 0.98745 0.33909 0.0
H6802 H 0.84248 0.90087 0.33545 0.0
H6803 H 0.8468 0.90607 0.36086 0.0
H6804 H 0.82187 0.90194 0.3522 0.0
H6805 H 0.86014 0.98759 0.31706 0.0
H6806 H 0.87714 0.97666 0.33426 0.0
H6807 H 0.87265 0.9649 0.31102 0.0
H6808 H 0.91165 0.93136 0.36664 0.0
H6809 H 0.90312 0.90622 0.30901 0.0
H6810 H 0.86136 0.93989 0.3768 0.0
H6811 H 0.87265 0.96211 0.36782 0.0
H6812 H 0.88625 0.94615 0.38408 0.0
H6813 H 0.85532 0.90808 0.3041 0.0
H6814 H 0.8759 0.91559 0.28911 0.0
H6815 H 0.85853 0.93362 0.29799 0.0
C6816 C 0.84779 0.13173 0.04008 0.0
C6817 C 0.86484 0.13953 0.04868 0.0
C6818 C 0.83591 0.11869 0.05066 0.0
C6819 C 0.84168 0.11344 0.06998 0.0
C6820 C 0.85816 0.12242 0.07918 0.0
C6821 C 0.86964 0.13557 0.06829 0.0
C6822 C 0.8179 0.10978 0.04085 0.0
C6823 C 0.86419 0.11737 0.10005 0.0
C6824 C 0.80424 0.08977 0.10246 0.0
C6825 C 0.81048 0.06996 0.10254 0.0
C6826 C 0.8144 0.10411 0.09202 0.0
C6827 C 0.83059 0.09832 0.08056 0.0
C6828 C 0.83648 0.07829 0.07958 0.0
C6829 C 0.82645 0.06422 0.09095 0.0
C6830 C 0.80813 0.12549 0.09377 0.0
C6831 C 0.85349 0.07189 0.06678 0.0
H6832 H 0.84429 0.1352 0.02487 0.0
H6833 H 0.88298 0.14185 0.07466 0.0
H6834 H 0.82039 0.0938 0.0383 0.0
H6835 H 0.80477 0.1111 0.0505 0.0
H6836 H 0.81455 0.11695 0.0265 0.0
H6837 H 0.8767 0.12665 0.10533 0.0
H6838 H 0.85154 0.11927 0.11022 0.0
H6839 H 0.86866 0.10164 0.10086 0.0
H6840 H 0.7915 0.0944 0.11085 0.0
H6841 H 0.83104 0.0489 0.09075 0.0
H6842 H 0.80609 0.13219 0.079 0.0
H6843 H 0.81989 0.13406 0.10138 0.0
H6844 H 0.79419 0.12718 0.10221 0.0
H6845 H 0.85111 0.07698 0.05141 0.0
H6846 H 0.85537 0.0556 0.06673 0.0
H6847 H 0.86739 0.07883 0.0721 0.0
C6848 C 0.69685 0.6956 0.9772 0.0
C6849 C 0.68369 0.70708 0.96618 0.0
C6850 C 0.70386 0.6776 0.96989 0.0
C6851 C 0.69667 0.67059 0.9516 0.0
C6852 C 0.68513 0.68318 0.93952 0.0
C6853 C 0.67927 0.70165 0.9468 0.0
C6854 C 0.7174 0.66528 0.98255 0.0
C6855 C 0.67668 0.67632 0.9201 0.0
C6856 C 0.71213 0.6221 0.92818 0.0
C6857 C 0.69815 0.60877 0.93613 0.0
C6858 C 0.71258 0.64206 0.93385 0.0
C6859 C 0.69805 0.64919 0.94691 0.0
C6860 C 0.68403 0.63593 0.95507 0.0
C6861 C 0.68468 0.61586 0.95009 0.0
C6862 C 0.72818 0.65566 0.92541 0.0
C6863 C 0.66784 0.64302 0.96858 0.0
H6864 H 0.70054 0.70002 0.99212 0.0
H6865 H 0.66959 0.71078 0.93806 0.0
H6866 H 0.70889 0.65306 0.98943 0.0
H6867 H 0.7292 0.65858 0.97344 0.0
H6868 H 0.72435 0.67417 0.99446 0.0
H6869 H 0.67421 0.68898 0.90999 0.0
H6870 H 0.68632 0.66553 0.91259 0.0
H6871 H 0.66223 0.669 0.92286 0.0
H6872 H 0.72245 0.61725 0.91706 0.0
H6873 H 0.67425 0.60583 0.95694 0.0
H6874 H 0.73505 0.66465 0.93727 0.0
H6875 H 0.72131 0.66607 0.91481 0.0
H6876 H 0.73997 0.6474 0.91764 0.0
H6877 H 0.67431 0.64867 0.9825 0.0
H6878 H 0.65706 0.63115 0.97225 0.0
H6879 H 0.65976 0.65539 0.96153 0.0
C6880 C 0.19916 0.88341 0.11695 0.0
C6881 C 0.21041 0.8954 0.10447 0.0
C6882 C 0.18681 0.86885 0.10915 0.0
C6883 C 0.18588 0.86659 0.08851 0.0
C6884 C 0.1957 0.8801 0.07587 0.0
C6885 C 0.20809 0.89441 0.08411 0.0
C6886 C 0.17662 0.85458 0.12296 0.0
C6887 C 0.19473 0.8782 0.05372 0.0
C6888 C 0.18287 0.81669 0.06483 0.0
C6889 C 0.16346 0.81685 0.05803 0.0
C6890 C 0.18995 0.83227 0.0763 0.0
C6891 C 0.17737 0.8485 0.08015 0.0
C6892 C 0.15743 0.84818 0.07406 0.0
C6893 C 0.15064 0.83214 0.06309 0.0
C6894 C 0.21125 0.83202 0.08303 0.0
C6895 C 0.14383 0.8654 0.07772 0.0
H6896 H 0.20132 0.88435 0.13276 0.0
H6897 H 0.21706 0.90379 0.07469 0.0
H6898 H 0.16134 0.85134 0.11794 0.0
H6899 H 0.1848 0.84041 0.1231 0.0
H6900 H 0.17608 0.86033 0.13826 0.0
H6901 H 0.2007 0.89152 0.04617 0.0
H6902 H 0.20352 0.86525 0.04903 0.0
H6903 H 0.17928 0.87574 0.04876 0.0
H6904 H 0.19267 0.80483 0.06049 0.0
H6905 H 0.13579 0.83228 0.05714 0.0
H6906 H 0.21235 0.83611 0.09881 0.0
H6907 H 0.21987 0.84308 0.07449 0.0
H6908 H 0.21813 0.8173 0.08096 0.0
H6909 H 0.14337 0.86893 0.09365 0.0
H6910 H 0.12854 0.86243 0.0725 0.0
H6911 H 0.14953 0.87871 0.06999 0.0
C6912 C 0.89558 0.4757 0.86575 0.0
C6913 C 0.88619 0.45859 0.87295 0.0
C6914 C 0.91168 0.47432 0.853 0.0
C6915 C 0.91856 0.45543 0.8478 0.0
C6916 C 0.90864 0.43818 0.85442 0.0
C6917 C 0.89262 0.43999 0.86711 0.0
C6918 C 0.92126 0.49291 0.84513 0.0
C6919 C 0.91457 0.41783 0.84767 0.0
C6920 C 0.9492 0.44014 0.80557 0.0
C6921 C 0.96571 0.43287 0.81574 0.0
C6922 C 0.93427 0.44999 0.81544 0.0
C6923 C 0.9364 0.45316 0.83583 0.0
C6924 C 0.95452 0.4489 0.84542 0.0
C6925 C 0.96908 0.43846 0.83522 0.0
C6926 C 0.91529 0.45421 0.80447 0.0
C6927 C 0.95735 0.45288 0.86709 0.0
H6928 H 0.89027 0.49015 0.87006 0.0
H6929 H 0.88478 0.42689 0.87207 0.0
H6930 H 0.93589 0.49498 0.85223 0.0
H6931 H 0.92382 0.49176 0.82903 0.0
H6932 H 0.91214 0.50621 0.84798 0.0
H6933 H 0.90661 0.40597 0.85576 0.0
H6934 H 0.91131 0.41623 0.83174 0.0
H6935 H 0.93067 0.41579 0.84958 0.0
H6936 H 0.94715 0.43686 0.79008 0.0
H6937 H 0.98215 0.43333 0.84288 0.0
H6938 H 0.90676 0.46635 0.81125 0.0
H6939 H 0.90592 0.44071 0.80453 0.0
H6940 H 0.91834 0.45803 0.78883 0.0
H6941 H 0.95116 0.46748 0.87111 0.0
H6942 H 0.9732 0.45249 0.87134 0.0
H6943 H 0.94934 0.44144 0.87571 0.0
C6944 C 0.34249 0.20937 0.58101 0.0
C6945 C 0.34324 0.21125 0.56061 0.0
C6946 C 0.33223 0.19353 0.58938 0.0
C6947 C 0.32228 0.18002 0.5768 0.0
C6948 C 0.32028 0.18404 0.55654 0.0
C6949 C 0.33134 0.19943 0.54854 0.0
C6950 C 0.33477 0.18955 0.61114 0.0
C6951 C 0.3091 0.17044 0.54285 0.0
C6952 C 0.33708 0.13004 0.59377 0.0
C6953 C 0.3217 0.12576 0.6067 0.0
C6954 C 0.33649 0.14696 0.58219 0.0
C6955 C 0.31996 0.15964 0.58365 0.0
C6956 C 0.30327 0.15407 0.59478 0.0
C6957 C 0.3044 0.13712 0.60647 0.0
C6958 C 0.35451 0.15221 0.57013 0.0
C6959 C 0.28507 0.16682 0.59573 0.0
H6960 H 0.3517 0.21877 0.59019 0.0
H6961 H 0.33194 0.20111 0.53271 0.0
H6962 H 0.32058 0.18487 0.61784 0.0
H6963 H 0.3455 0.17735 0.61323 0.0
H6964 H 0.34041 0.20273 0.61914 0.0
H6965 H 0.30378 0.17854 0.52963 0.0
H6966 H 0.31906 0.15852 0.53777 0.0
H6967 H 0.29629 0.16346 0.55035 0.0
H6968 H 0.35005 0.12069 0.59353 0.0
H6969 H 0.29228 0.13347 0.61627 0.0
H6970 H 0.36221 0.165 0.57696 0.0
H6971 H 0.35028 0.15647 0.55495 0.0
H6972 H 0.36509 0.13974 0.56923 0.0
H6973 H 0.28709 0.17819 0.60731 0.0
H6974 H 0.27178 0.15791 0.59953 0.0
H6975 H 0.2824 0.17457 0.58156 0.0
C6976 C 0.08362 0.12172 0.82744 0.0
C6977 C 0.0666 0.11067 0.8233 0.0
C6978 C 0.10043 0.11257 0.83464 0.0
C6979 C 0.09949 0.09221 0.83878 0.0
C6980 C 0.08156 0.08148 0.83691 0.0
C6981 C 0.06509 0.09097 0.82899 0.0
C6982 C 0.11952 0.12422 0.83594 0.0
C6983 C 0.08025 0.05972 0.84167 0.0
C6984 C 0.14392 0.05981 0.8344 0.0
C6985 C 0.14893 0.05801 0.8542 0.0
C6986 C 0.12837 0.07208 0.82893 0.0
C6987 C 0.11756 0.08184 0.84386 0.0
C6988 C 0.1233 0.08071 0.86378 0.0
C6989 C 0.13929 0.06894 0.86869 0.0
C6990 C 0.12278 0.07356 0.80744 0.0
C6991 C 0.11174 0.0907 0.87995 0.0
H6992 H 0.08442 0.1371 0.82318 0.0
H6993 H 0.05177 0.08263 0.82569 0.0
H6994 H 0.1246 0.12498 0.85144 0.0
H6995 H 0.13126 0.11678 0.82735 0.0
H6996 H 0.11793 0.13951 0.83025 0.0
H6997 H 0.08814 0.05117 0.83021 0.0
H6998 H 0.08745 0.05653 0.85602 0.0
H6999 H 0.0647 0.05441 0.8422 0.0
H7000 H 0.15159 0.05109 0.82346 0.0
H7001 H 0.1434 0.06711 0.88405 0.0
H7002 H 0.11855 0.08886 0.80353 0.0
H7003 H 0.10982 0.06392 0.80449 0.0
H7004 H 0.13504 0.06885 0.79768 0.0
H7005 H 0.11207 0.10694 0.87786 0.0
H7006 H 0.11765 0.08727 0.89483 0.0
H7007 H 0.09602 0.08597 0.87933 0.0
C7008 C 0.80973 0.4046 0.43401 0.0
C7009 C 0.82641 0.41335 0.4253 0.0
C7010 C 0.80923 0.38414 0.43799 0.0
C7011 C 0.82587 0.37236 0.4333 0.0
C7012 C 0.84153 0.38092 0.42234 0.0
C7013 C 0.84158 0.40123 0.41847 0.0
C7014 C 0.79168 0.37573 0.44885 0.0
C7015 C 0.85986 0.36945 0.41752 0.0
C7016 C 0.84585 0.33997 0.47361 0.0
C7017 C 0.84788 0.32152 0.46428 0.0
C7018 C 0.83816 0.35632 0.46388 0.0
C7019 C 0.83014 0.35401 0.44481 0.0
C7020 C 0.82938 0.33481 0.43628 0.0
C7021 C 0.83877 0.31875 0.44592 0.0
C7022 C 0.84011 0.37634 0.47368 0.0
C7023 C 0.81881 0.33139 0.41702 0.0
H7024 H 0.7976 0.41384 0.43876 0.0
H7025 H 0.85412 0.40788 0.41102 0.0
H7026 H 0.7909 0.35938 0.44782 0.0
H7027 H 0.79259 0.37995 0.46461 0.0
H7028 H 0.77777 0.38208 0.44293 0.0
H7029 H 0.86948 0.37729 0.40678 0.0
H7030 H 0.86828 0.36742 0.4314 0.0
H7031 H 0.85616 0.35467 0.41154 0.0
H7032 H 0.85146 0.34217 0.4884 0.0
H7033 H 0.83941 0.3044 0.43893 0.0
H7034 H 0.82527 0.38211 0.47732 0.0
H7035 H 0.84738 0.3871 0.46366 0.0
H7036 H 0.8489 0.37575 0.4875 0.0
H7037 H 0.80284 0.33447 0.41903 0.0
H7038 H 0.82049 0.31597 0.41172 0.0
H7039 H 0.82429 0.34169 0.40553 0.0
C7040 C 0.93694 0.60121 0.72395 0.0
C7041 C 0.95611 0.60001 0.7161 0.0
C7042 C 0.92045 0.59503 0.71339 0.0
C7043 C 0.92305 0.5858 0.69496 0.0
C7044 C 0.94242 0.58273 0.68758 0.0
C7045 C 0.95882 0.59041 0.69803 0.0
C7046 C 0.90016 0.59929 0.72176 0.0
C7047 C 0.94589 0.5719 0.66853 0.0
C7048 C 0.87337 0.56368 0.68448 0.0
C7049 C 0.86436 0.5795 0.67462 0.0
C7050 C 0.89364 0.56414 0.68889 0.0
C7051 C 0.90501 0.58089 0.68348 0.0
C7052 C 0.89641 0.59582 0.67165 0.0
C7053 C 0.87613 0.59499 0.66745 0.0
C7054 C 0.90236 0.54764 0.70105 0.0
C7055 C 0.90813 0.61375 0.66529 0.0
H7056 H 0.93448 0.60791 0.7382 0.0
H7057 H 0.97356 0.58909 0.69198 0.0
H7058 H 0.89125 0.60782 0.71099 0.0
H7059 H 0.89221 0.58527 0.72479 0.0
H7060 H 0.90086 0.6079 0.73567 0.0
H7061 H 0.96061 0.5647 0.66853 0.0
H7062 H 0.93435 0.5605 0.66586 0.0
H7063 H 0.94555 0.58258 0.65613 0.0
H7064 H 0.8644 0.55142 0.68965 0.0
H7065 H 0.86934 0.60681 0.65907 0.0
H7066 H 0.9016 0.5516 0.71688 0.0
H7067 H 0.91811 0.54521 0.69726 0.0
H7068 H 0.89403 0.53362 0.69895 0.0
H7069 H 0.91113 0.62324 0.67828 0.0
H7070 H 0.90013 0.62266 0.65409 0.0
H7071 H 0.92258 0.60928 0.65912 0.0
C7072 C 0.65422 0.44406 0.20415 0.0
C7073 C 0.66014 0.45106 0.18563 0.0
C7074 C 0.63418 0.44152 0.20879 0.0
C7075 C 0.61953 0.44645 0.19468 0.0
C7076 C 0.62526 0.45546 0.17675 0.0
C7077 C 0.64552 0.45749 0.17231 0.0
C7078 C 0.62885 0.43192 0.22818 0.0
C7079 C 0.61003 0.46168 0.16174 0.0
C7080 C 0.57918 0.4085 0.19885 0.0
C7081 C 0.56666 0.4173 0.21262 0.0
C7082 C 0.59532 0.41879 0.19102 0.0
C7083 C 0.59912 0.43839 0.19726 0.0
C7084 C 0.58499 0.4482 0.20914 0.0
C7085 C 0.56881 0.43745 0.21675 0.0
C7086 C 0.6098 0.40767 0.17832 0.0
C7087 C 0.58805 0.46923 0.21576 0.0
H7088 H 0.66534 0.43971 0.2148 0.0
H7089 H 0.6498 0.46309 0.15798 0.0
H7090 H 0.61709 0.44038 0.23568 0.0
H7091 H 0.62304 0.4168 0.22544 0.0
H7092 H 0.64175 0.43079 0.23826 0.0
H7093 H 0.61645 0.4715 0.15027 0.0
H7094 H 0.60377 0.44843 0.15438 0.0
H7095 H 0.59761 0.46944 0.16902 0.0
H7096 H 0.57761 0.39282 0.19586 0.0
H7097 H 0.55929 0.44421 0.22759 0.0
H7098 H 0.62327 0.40431 0.18704 0.0
H7099 H 0.61437 0.41668 0.16546 0.0
H7100 H 0.60349 0.39355 0.17286 0.0
H7101 H 0.59688 0.46932 0.22955 0.0
H7102 H 0.57369 0.47645 0.21893 0.0
H7103 H 0.59612 0.47803 0.20454 0.0
C7104 C 0.62198 0.8295 0.88028 0.0
C7105 C 0.61389 0.81279 0.88929 0.0
C7106 C 0.61004 0.84199 0.86913 0.0
C7107 C 0.58981 0.83723 0.86696 0.0
C7108 C 0.58128 0.8214 0.87768 0.0
C7109 C 0.59358 0.80925 0.88885 0.0
C7110 C 0.6195 0.85892 0.85809 0.0
C7111 C 0.55966 0.81603 0.87582 0.0
C7112 C 0.55518 0.87245 0.84199 0.0
C7113 C 0.55404 0.86425 0.82316 0.0
C7114 C 0.56719 0.86407 0.8564 0.0
C7115 C 0.57816 0.8471 0.85166 0.0
C7116 C 0.57712 0.83875 0.83256 0.0
C7117 C 0.56457 0.84723 0.81857 0.0
C7118 C 0.56717 0.87257 0.87694 0.0
C7119 C 0.58862 0.82045 0.8272 0.0
H7120 H 0.63782 0.83201 0.88089 0.0
H7121 H 0.5876 0.79617 0.89596 0.0
H7122 H 0.6224 0.85419 0.84275 0.0
H7123 H 0.60963 0.87194 0.85752 0.0
H7124 H 0.6338 0.86341 0.86486 0.0
H7125 H 0.55471 0.80634 0.8881 0.0
H7126 H 0.55026 0.8294 0.8755 0.0
H7127 H 0.55725 0.80798 0.86179 0.0
H7128 H 0.54562 0.88465 0.84577 0.0
H7129 H 0.56245 0.84024 0.80437 0.0
H7130 H 0.58252 0.87585 0.88175 0.0
H7131 H 0.56099 0.86158 0.88742 0.0
H7132 H 0.55825 0.88627 0.87794 0.0
H7133 H 0.60459 0.82286 0.83014 0.0
H7134 H 0.5867 0.81633 0.81148 0.0
H7135 H 0.58373 0.80784 0.83647 0.0
C7136 C 0.4072 0.33236 0.07724 0.0
C7137 C 0.41433 0.31526 0.06828 0.0
C7138 C 0.41724 0.34101 0.09311 0.0
C7139 C 0.43441 0.33181 0.10066 0.0
C7140 C 0.4424 0.31527 0.09088 0.0
C7141 C 0.432 0.30707 0.07495 0.0
C7142 C 0.40781 0.35827 0.10347 0.0
C7143 C 0.46068 0.30504 0.09849 0.0
C7144 C 0.45513 0.36043 0.14378 0.0
C7145 C 0.4439 0.35231 0.15921 0.0
C7146 C 0.45368 0.35273 0.12462 0.0
C7147 C 0.4407 0.33671 0.12101 0.0
C7148 C 0.43083 0.32739 0.13693 0.0
C7149 C 0.43253 0.33537 0.15582 0.0
C7150 C 0.46475 0.36259 0.108 0.0
C7151 C 0.41722 0.3099 0.13383 0.0
H7152 H 0.39268 0.33776 0.07328 0.0
H7153 H 0.43592 0.29263 0.06968 0.0
H7154 H 0.39829 0.35267 0.11557 0.0
H7155 H 0.41899 0.36839 0.10992 0.0
H7156 H 0.39855 0.36691 0.09322 0.0
H7157 H 0.46309 0.29057 0.09125 0.0
H7158 H 0.47376 0.31459 0.09573 0.0
H7159 H 0.45979 0.30253 0.11461 0.0
H7160 H 0.46416 0.37343 0.14645 0.0
H7161 H 0.42437 0.32876 0.1679 0.0
H7162 H 0.45421 0.37099 0.09868 0.0
H7163 H 0.47178 0.35133 0.09847 0.0
H7164 H 0.47629 0.37294 0.11348 0.0
H7165 H 0.40369 0.3148 0.126 0.0
H7166 H 0.41274 0.30294 0.14798 0.0
H7167 H 0.42445 0.29854 0.1246 0.0
C7168 C 0.93667 0.23782 0.39039 0.0
C7169 C 0.9268 0.22339 0.40133 0.0
C7170 C 0.94996 0.23228 0.3758 0.0
C7171 C 0.95292 0.21196 0.37234 0.0
C7172 C 0.94511 0.19753 0.38532 0.0
C7173 C 0.93201 0.20353 0.39989 0.0
C7174 C 0.9585 0.248 0.36247 0.0
C7175 C 0.9484 0.17567 0.3822 0.0
C7176 C 0.95462 0.19024 0.32169 0.0
C7177 C 0.97441 0.18476 0.32102 0.0
C7178 C 0.94765 0.20088 0.33785 0.0
C7179 C 0.96089 0.20554 0.35343 0.0
C7180 C 0.98121 0.20166 0.35177 0.0
C7181 C 0.98782 0.19173 0.33521 0.0
C7182 C 0.92586 0.20545 0.33913 0.0
C7183 C 0.99557 0.20584 0.36834 0.0
H7184 H 0.93246 0.2532 0.39185 0.0
H7185 H 0.92416 0.19255 0.40857 0.0
H7186 H 0.9734 0.24395 0.35711 0.0
H7187 H 0.94872 0.24973 0.34944 0.0
H7188 H 0.95945 0.26248 0.3701 0.0
H7189 H 0.93912 0.17049 0.36972 0.0
H7190 H 0.96404 0.17264 0.37844 0.0
H7191 H 0.94435 0.16689 0.39544 0.0
H7192 H 0.94441 0.18493 0.31054 0.0
H7193 H 1.00334 0.18786 0.33424 0.0
H7194 H 0.92358 0.22084 0.34421 0.0
H7195 H 0.91879 0.19545 0.35003 0.0
H7196 H 0.91826 0.20346 0.32474 0.0
H7197 H 0.99274 0.22045 0.37511 0.0
H7198 H 1.01116 0.20535 0.36327 0.0
H7199 H 0.99364 0.19449 0.38001 0.0
C7200 C 0.09751 0.71346 0.56648 0.0
C7201 C 0.11536 0.72316 0.5699 0.0
C7202 C 0.08942 0.70114 0.58091 0.0
C7203 C 0.09946 0.69901 0.59914 0.0
C7204 C 0.11806 0.708 0.60216 0.0
C7205 C 0.12579 0.72009 0.58739 0.0
C7206 C 0.06943 0.69177 0.5773 0.0
C7207 C 0.12886 0.70631 0.62157 0.0
C7208 C 0.06233 0.69321 0.63941 0.0
C7209 C 0.06174 0.6727 0.64119 0.0
C7210 C 0.07593 0.70221 0.62688 0.0
C7211 C 0.08891 0.69019 0.61586 0.0
C7212 C 0.08962 0.66958 0.61909 0.0
C7213 C 0.0759 0.66098 0.63191 0.0
C7214 C 0.07506 0.72435 0.62407 0.0
C7215 C 0.10348 0.6565 0.60767 0.0
H7216 H 0.08951 0.71615 0.55292 0.0
H7217 H 0.13923 0.72837 0.59007 0.0
H7218 H 0.06966 0.67591 0.58144 0.0
H7219 H 0.05819 0.69911 0.58661 0.0
H7220 H 0.06474 0.69306 0.56166 0.0
H7221 H 0.14316 0.71438 0.62145 0.0
H7222 H 0.11965 0.71237 0.63361 0.0
H7223 H 0.13161 0.69055 0.62507 0.0
H7224 H 0.05136 0.70207 0.64691 0.0
H7225 H 0.07526 0.64505 0.63352 0.0
H7226 H 0.06796 0.7277 0.6097 0.0
H7227 H 0.09012 0.73088 0.62383 0.0
H7228 H 0.06641 0.73166 0.63586 0.0
H7229 H 0.09785 0.65477 0.5924 0.0
H7230 H 0.10473 0.64159 0.61442 0.0
H7231 H 0.11843 0.66322 0.60671 0.0
C7232 C 0.58007 0.16136 0.70938 0.0
C7233 C 0.56222 0.16797 0.7172 0.0
C7234 C 0.58914 0.17136 0.69375 0.0
C7235 C 0.57961 0.18797 0.68535 0.0
C7236 C 0.56262 0.19585 0.69449 0.0
C7237 C 0.55403 0.1856 0.71028 0.0
C7238 C 0.6073 0.16243 0.68451 0.0
C7239 C 0.55186 0.21338 0.68598 0.0
C7240 C 0.60778 0.20891 0.64194 0.0
C7241 C 0.60053 0.19681 0.62676 0.0
C7242 C 0.59998 0.20747 0.66107 0.0
C7243 C 0.58473 0.19364 0.66487 0.0
C7244 C 0.57621 0.1828 0.64913 0.0
C7245 C 0.58425 0.18454 0.63027 0.0
C7246 C 0.60894 0.21964 0.67743 0.0
C7247 C 0.55962 0.16814 0.65241 0.0
H7248 H 0.58578 0.14713 0.71394 0.0
H7249 H 0.53953 0.18993 0.71535 0.0
H7250 H 0.60302 0.15452 0.67083 0.0
H7251 H 0.61812 0.17409 0.68044 0.0
H7252 H 0.61463 0.15172 0.69454 0.0
H7253 H 0.54296 0.22095 0.69742 0.0
H7254 H 0.56224 0.22418 0.67929 0.0
H7255 H 0.5416 0.20821 0.67427 0.0
H7256 H 0.62023 0.21865 0.63915 0.0
H7257 H 0.5783 0.17566 0.61836 0.0
H7258 H 0.61818 0.21002 0.68693 0.0
H7259 H 0.59722 0.22599 0.68687 0.0
H7260 H 0.61835 0.23183 0.67166 0.0
H7261 H 0.5653 0.15523 0.66073 0.0
H7262 H 0.55319 0.16275 0.63832 0.0
H7263 H 0.54766 0.17485 0.66126 0.0
C7264 C 0.05233 0.34844 0.8953 0.0
C7265 C 0.06515 0.34902 0.87915 0.0
C7266 C 0.05692 0.33689 0.91186 0.0
C7267 C 0.07486 0.32627 0.91212 0.0
C7268 C 0.08617 0.32458 0.89466 0.0
C7269 C 0.08098 0.33589 0.87822 0.0
C7270 C 0.0441 0.33828 0.92994 0.0
C7271 C 0.10543 0.31337 0.89422 0.0
C7272 C 0.11021 0.32787 0.9549 0.0
C7273 C 0.10929 0.3085 0.96189 0.0
C7274 C 0.09733 0.33447 0.94016 0.0
C7275 C 0.08416 0.32085 0.93113 0.0
C7276 C 0.08292 0.30129 0.9382 0.0
C7277 C 0.09561 0.29537 0.95341 0.0
C7278 C 0.09939 0.35546 0.93282 0.0
C7279 C 0.0697 0.28617 0.92838 0.0
H7280 H 0.04009 0.3587 0.89593 0.0
H7281 H 0.09088 0.33654 0.86569 0.0
H7282 H 0.04317 0.32383 0.93762 0.0
H7283 H 0.05072 0.34909 0.94034 0.0
H7284 H 0.02893 0.34327 0.92618 0.0
H7285 H 0.11052 0.3107 0.87891 0.0
H7286 H 0.11699 0.32209 0.90197 0.0
H7287 H 0.10406 0.29896 0.90188 0.0
H7288 H 0.12222 0.33735 0.95952 0.0
H7289 H 0.09634 0.27987 0.957 0.0
H7290 H 0.08466 0.36231 0.93086 0.0
H7291 H 0.10684 0.35548 0.91827 0.0
H7292 H 0.10822 0.36476 0.94308 0.0
H7293 H 0.0543 0.29165 0.92773 0.0
H7294 H 0.06985 0.27171 0.93613 0.0
H7295 H 0.07454 0.28375 0.91298 0.0
C7296 C 0.97108 0.87478 0.19762 0.0
C7297 C 0.97472 0.86282 0.21403 0.0
C7298 C 0.96074 0.86737 0.18143 0.0
C7299 C 0.95349 0.84781 0.18219 0.0
C7300 C 0.95578 0.83624 0.19946 0.0
C7301 C 0.96698 0.84375 0.21506 0.0
C7302 C 0.95919 0.87977 0.16297 0.0
C7303 C 0.9477 0.81545 0.2009 0.0
C7304 C 0.9174 0.82648 0.14594 0.0
C7305 C 0.9298 0.81368 0.13567 0.0
C7306 C 0.92513 0.83891 0.16046 0.0
C7307 C 0.94563 0.83847 0.1643 0.0
C7308 C 0.95839 0.82689 0.15254 0.0
C7309 C 0.9502 0.81434 0.13841 0.0
C7310 C 0.91119 0.85094 0.17293 0.0
C7311 C 0.98045 0.82645 0.156 0.0
H7312 H 0.97786 0.88928 0.19675 0.0
H7313 H 0.97043 0.83446 0.22763 0.0
H7314 H 0.96765 0.87269 0.15092 0.0
H7315 H 0.9436 0.88071 0.15803 0.0
H7316 H 0.96501 0.89499 0.16514 0.0
H7317 H 0.94828 0.80968 0.21622 0.0
H7318 H 0.93215 0.81489 0.19568 0.0
H7319 H 0.95646 0.80552 0.19135 0.0
H7320 H 0.90154 0.82561 0.1437 0.0
H7321 H 0.95956 0.80424 0.13033 0.0
H7322 H 0.91678 0.86625 0.17473 0.0
H7323 H 0.91024 0.84429 0.18786 0.0
H7324 H 0.89609 0.85148 0.16652 0.0
H7325 H 0.98641 0.84165 0.15775 0.0
H7326 H 0.9884 0.81911 0.14374 0.0
H7327 H 0.98364 0.81825 0.1698 0.0
C7328 C 0.48315 0.66901 0.39842 0.0
C7329 C 0.47131 0.67194 0.38179 0.0
C7330 C 0.48116 0.68133 0.41481 0.0
C7331 C 0.46676 0.69638 0.41431 0.0
C7332 C 0.45692 0.70103 0.39647 0.0
C7333 C 0.45947 0.68868 0.38024 0.0
C7334 C 0.49219 0.67634 0.43348 0.0
C7335 C 0.44129 0.71685 0.39536 0.0
C7336 C 0.43223 0.70035 0.45736 0.0
C7337 C 0.43661 0.71937 0.46387 0.0
C7338 C 0.44258 0.69232 0.44156 0.0
C7339 C 0.45819 0.70339 0.43292 0.0
C7340 C 0.46383 0.72186 0.44084 0.0
C7341 C 0.45257 0.7299 0.45605 0.0
C7342 C 0.43566 0.6728 0.43311 0.0
C7343 C 0.48084 0.73362 0.43244 0.0
H7344 H 0.49228 0.65592 0.39942 0.0
H7345 H 0.45035 0.6907 0.36723 0.0
H7346 H 0.49608 0.6899 0.44183 0.0
H7347 H 0.48263 0.66705 0.44304 0.0
H7348 H 0.50589 0.66796 0.43032 0.0
H7349 H 0.43794 0.72105 0.37988 0.0
H7350 H 0.42747 0.71122 0.4022 0.0
H7351 H 0.44588 0.73027 0.40354 0.0
H7352 H 0.4198 0.6924 0.46364 0.0
H7353 H 0.45566 0.74474 0.46125 0.0
H7354 H 0.44816 0.66234 0.43203 0.0
H7355 H 0.42981 0.67512 0.418 0.0
H7356 H 0.42384 0.66583 0.44212 0.0
H7357 H 0.49404 0.72411 0.43077 0.0
H7358 H 0.48478 0.74646 0.44186 0.0
H7359 H 0.47687 0.73917 0.41757 0.0
C7360 C 0.83405 0.54434 0.85059 0.0
C7361 C 0.81654 0.55441 0.85512 0.0
C7362 C 0.84868 0.55338 0.83925 0.0
C7363 C 0.84539 0.57274 0.83229 0.0
C7364 C 0.8263 0.58111 0.83349 0.0
C7365 C 0.81182 0.57148 0.84469 0.0
C7366 C 0.8686 0.54355 0.83767 0.0
C7367 C 0.82207 0.60154 0.82569 0.0
C7368 C 0.88695 0.6085 0.84224 0.0
C7369 C 0.8943 0.61192 0.82332 0.0
C7370 C 0.87105 0.59568 0.84526 0.0
C7371 C 0.86249 0.58583 0.82891 0.0
C7372 C 0.87004 0.58885 0.80978 0.0
C7373 C 0.88582 0.60204 0.80716 0.0
C7374 C 0.86347 0.59272 0.86602 0.0
C7375 C 0.86167 0.57798 0.79221 0.0
H7376 H 0.83729 0.53038 0.85774 0.0
H7377 H 0.79771 0.5783 0.84669 0.0
H7378 H 0.87583 0.54707 0.82345 0.0
H7379 H 0.87834 0.54901 0.84967 0.0
H7380 H 0.86731 0.52724 0.83919 0.0
H7381 H 0.806 0.60376 0.82326 0.0
H7382 H 0.82724 0.61262 0.83661 0.0
H7383 H 0.82999 0.60437 0.81168 0.0
H7384 H 0.89387 0.6156 0.8548 0.0
H7385 H 0.89151 0.60462 0.79246 0.0
H7386 H 0.86462 0.57694 0.87028 0.0
H7387 H 0.84765 0.59688 0.86686 0.0
H7388 H 0.87183 0.60164 0.87696 0.0
H7389 H 0.86548 0.5621 0.79331 0.0
H7390 H 0.86756 0.58379 0.77807 0.0
H7391 H 0.84531 0.57895 0.79193 0.0
C7392 C 0.6993 0.56897 0.11239 0.0
C7393 C 0.71844 0.56308 0.10765 0.0
C7394 C 0.69033 0.58454 0.10224 0.0
C7395 C 0.70142 0.59513 0.08801 0.0
C7396 C 0.71993 0.58788 0.08175 0.0
C7397 C 0.72806 0.57156 0.09146 0.0
C7398 C 0.67027 0.59149 0.10893 0.0
C7399 C 0.73256 0.59902 0.06714 0.0
C7400 C 0.67473 0.6391 0.06656 0.0
C7401 C 0.67915 0.65355 0.08074 0.0
C7402 C 0.68307 0.62021 0.06778 0.0
C7403 C 0.69581 0.61576 0.08367 0.0
C7404 C 0.70143 0.63075 0.09714 0.0
C7405 C 0.6931 0.6495 0.09541 0.0
C7406 C 0.67725 0.60468 0.05291 0.0
C7407 C 0.71525 0.6267 0.1142 0.0
H7408 H 0.69224 0.56307 0.12544 0.0
H7409 H 0.74316 0.56738 0.08826 0.0
H7410 H 0.67214 0.60402 0.1193 0.0
H7411 H 0.66132 0.59673 0.09625 0.0
H7412 H 0.66199 0.57956 0.1166 0.0
H7413 H 0.7435 0.58914 0.06004 0.0
H7414 H 0.72348 0.60617 0.05557 0.0
H7415 H 0.74085 0.61081 0.07501 0.0
H7416 H 0.66403 0.6422 0.05507 0.0
H7417 H 0.69703 0.66086 0.10598 0.0
H7418 H 0.66689 0.59401 0.05985 0.0
H7419 H 0.69037 0.59625 0.048 0.0
H7420 H 0.66993 0.61123 0.03979 0.0
H7421 H 0.7078 0.61687 0.125 0.0
H7422 H 0.71977 0.64046 0.12193 0.0
H7423 H 0.72873 0.61905 0.10903 0.0
C7424 C 0.71291 0.45013 0.35977 0.0
C7425 C 0.71713 0.47007 0.35666 0.0
C7426 C 0.69841 0.44057 0.34859 0.0
C7427 C 0.68681 0.4518 0.33534 0.0
C7428 C 0.69166 0.47172 0.33142 0.0
C7429 C 0.7072 0.48049 0.34186 0.0
C7430 C 0.69379 0.41912 0.35283 0.0
C7431 C 0.67878 0.48456 0.31856 0.0
C7432 C 0.64915 0.4212 0.3082 0.0
C7433 C 0.63432 0.4201 0.32251 0.0
C7434 C 0.666 0.43284 0.31139 0.0
C7435 C 0.66758 0.44369 0.32909 0.0
C7436 C 0.65163 0.44411 0.34257 0.0
C7437 C 0.63524 0.432 0.33922 0.0
C7438 C 0.68268 0.43228 0.29669 0.0
C7439 C 0.65243 0.45617 0.36128 0.0
H7440 H 0.71941 0.44255 0.37224 0.0
H7441 H 0.70961 0.49625 0.34051 0.0
H7442 H 0.68005 0.41803 0.36168 0.0
H7443 H 0.69129 0.41093 0.33889 0.0
H7444 H 0.70582 0.41184 0.3612 0.0
H7445 H 0.68637 0.49853 0.31442 0.0
H7446 H 0.67419 0.47669 0.30499 0.0
H7447 H 0.66516 0.48842 0.32675 0.0
H7448 H 0.648 0.4122 0.29504 0.0
H7449 H 0.62331 0.43148 0.34987 0.0
H7450 H 0.69475 0.42296 0.30263 0.0
H7451 H 0.68889 0.44726 0.29418 0.0
H7452 H 0.67784 0.42606 0.28232 0.0
H7453 H 0.66223 0.44878 0.37212 0.0
H7454 H 0.6376 0.45777 0.36806 0.0
H7455 H 0.65859 0.4711 0.3584 0.0
C7456 C 0.83628 0.37648 0.59642 0.0
C7457 C 0.85098 0.37251 0.58254 0.0
C7458 C 0.82786 0.39522 0.59781 0.0
C7459 C 0.8341 0.4104 0.58478 0.0
C7460 C 0.84799 0.40621 0.56986 0.0
C7461 C 0.8564 0.38727 0.56897 0.0
C7462 C 0.81304 0.39901 0.61401 0.0
C7463 C 0.85461 0.42187 0.55543 0.0
C7464 C 0.79894 0.45221 0.59189 0.0
C7465 C 0.80768 0.46122 0.60829 0.0
C7466 C 0.80865 0.437 0.5819 0.0
C7467 C 0.82746 0.43088 0.5886 0.0
C7468 C 0.83744 0.442 0.60322 0.0
C7469 C 0.82718 0.4568 0.61325 0.0
C7470 C 0.79759 0.4258 0.56614 0.0
C7471 C 0.85806 0.4367 0.60986 0.0
H7472 H 0.83162 0.36496 0.60652 0.0
H7473 H 0.86772 0.38428 0.55811 0.0
H7474 H 0.81933 0.4097 0.62472 0.0
H7475 H 0.79938 0.40557 0.60784 0.0
H7476 H 0.80897 0.38531 0.62211 0.0
H7477 H 0.86144 0.41527 0.54213 0.0
H7478 H 0.84206 0.4313 0.5508 0.0
H7479 H 0.86575 0.43156 0.56259 0.0
H7480 H 0.78367 0.45547 0.58829 0.0
H7481 H 0.83372 0.46337 0.62622 0.0
H7482 H 0.7899 0.41298 0.57295 0.0
H7483 H 0.80778 0.42008 0.55474 0.0
H7484 H 0.78627 0.43523 0.55895 0.0
H7485 H 0.85863 0.42107 0.61475 0.0
H7486 H 0.86336 0.44622 0.62209 0.0
H7487 H 0.8684 0.43828 0.5973 0.0
C7488 C 0.90801 0.44818 0.69602 0.0
C7489 C 0.91373 0.42927 0.7018 0.0
C7490 C 0.88804 0.45331 0.69512 0.0
C7491 C 0.8734 0.43894 0.69964 0.0
C7492 C 0.87917 0.42049 0.70754 0.0
C7493 C 0.89936 0.41576 0.7084 0.0
C7494 C 0.88295 0.47426 0.68958 0.0
C7495 C 0.86399 0.40565 0.71451 0.0
C7496 C 0.82337 0.46286 0.69508 0.0
C7497 C 0.81819 0.45742 0.67589 0.0
C7498 C 0.84018 0.45495 0.70422 0.0
C7499 C 0.85263 0.44227 0.69334 0.0
C7500 C 0.84653 0.43559 0.67445 0.0
C7501 C 0.8291 0.44301 0.66614 0.0
C7502 C 0.84549 0.46183 0.72467 0.0
C7503 C 0.85948 0.42261 0.66189 0.0
H7504 H 0.91923 0.45892 0.69195 0.0
H7505 H 0.90384 0.40127 0.71349 0.0
H7506 H 0.86878 0.47523 0.68147 0.0
H7507 H 0.88155 0.4831 0.70323 0.0
H7508 H 0.8949 0.4812 0.68074 0.0
H7509 H 0.87076 0.39382 0.72361 0.0
H7510 H 0.85238 0.41312 0.72327 0.0
H7511 H 0.85662 0.39867 0.70167 0.0
H7512 H 0.81525 0.47442 0.7024 0.0
H7513 H 0.82503 0.43894 0.65125 0.0
H7514 H 0.85412 0.47575 0.72368 0.0
H7515 H 0.85446 0.45071 0.73268 0.0
H7516 H 0.83196 0.46502 0.73335 0.0
H7517 H 0.87187 0.43161 0.65597 0.0
H7518 H 0.85115 0.41611 0.64936 0.0
H7519 H 0.86597 0.41038 0.67055 0.0
C7520 C 0.83273 0.57694 0.9245 0.0
C7521 C 0.81281 0.57365 0.92889 0.0
C7522 C 0.84206 0.59451 0.93039 0.0
C7523 C 0.83129 0.60857 0.94143 0.0
C7524 C 0.81193 0.60406 0.94788 0.0
C7525 C 0.80277 0.58682 0.94111 0.0
C7526 C 0.86258 0.59903 0.9229 0.0
C7527 C 0.80003 0.61843 0.95993 0.0
C7528 C 0.85816 0.65499 0.95796 0.0
C7529 C 0.85304 0.66828 0.9428 0.0
C7530 C 0.85076 0.63558 0.95814 0.0
C7531 C 0.83848 0.62924 0.94254 0.0
C7532 C 0.83315 0.64262 0.92742 0.0
C7533 C 0.84032 0.66199 0.92783 0.0
C7534 C 0.8562 0.62183 0.97481 0.0
C7535 C 0.8204 0.6363 0.91035 0.0
H7536 H 0.84034 0.56685 0.91475 0.0
H7537 H 0.78726 0.58442 0.94414 0.0
H7538 H 0.86181 0.61109 0.91183 0.0
H7539 H 0.87217 0.60427 0.93508 0.0
H7540 H 0.86955 0.58598 0.91592 0.0
H7541 H 0.78735 0.61102 0.96731 0.0
H7542 H 0.80937 0.6257 0.97127 0.0
H7543 H 0.79409 0.63013 0.95012 0.0
H7544 H 0.86821 0.65963 0.96953 0.0
H7545 H 0.83601 0.67222 0.91633 0.0
H7546 H 0.8658 0.60986 0.96921 0.0
H7547 H 0.84274 0.61471 0.98095 0.0
H7548 H 0.86412 0.62962 0.98688 0.0
H7549 H 0.82816 0.62449 0.90217 0.0
H7550 H 0.81718 0.64864 0.90005 0.0
H7551 H 0.80618 0.63009 0.91567 0.0
C7552 C 0.62298 0.59507 0.17956 0.0
C7553 C 0.61725 0.60832 0.19416 0.0
C7554 C 0.6421 0.58753 0.17923 0.0
C7555 C 0.65574 0.59306 0.19408 0.0
C7556 C 0.64994 0.60588 0.20934 0.0
C7557 C 0.63075 0.6136 0.20908 0.0
C7558 C 0.64773 0.57369 0.16286 0.0
C7559 C 0.66406 0.61169 0.22559 0.0
C7560 C 0.69697 0.55682 0.19182 0.0
C7561 C 0.7089 0.56599 0.1777 0.0
C7562 C 0.68068 0.56664 0.19964 0.0
C7563 C 0.67623 0.58583 0.19268 0.0
C7564 C 0.68962 0.5959 0.18013 0.0
C7565 C 0.70602 0.58578 0.1728 0.0
C7566 C 0.6669 0.55543 0.21312 0.0
C7567 C 0.68518 0.61626 0.17222 0.0
H7568 H 0.61245 0.5905 0.16839 0.0
H7569 H 0.62643 0.62398 0.22041 0.0
H7570 H 0.66018 0.58 0.15427 0.0
H7571 H 0.65282 0.55955 0.16931 0.0
H7572 H 0.63525 0.57069 0.15262 0.0
H7573 H 0.65652 0.61971 0.23768 0.0
H7574 H 0.67139 0.59844 0.23182 0.0
H7575 H 0.67585 0.62136 0.2195 0.0
H7576 H 0.69946 0.54144 0.19557 0.0
H7577 H 0.7153 0.59265 0.1617 0.0
H7578 H 0.655 0.54847 0.2042 0.0
H7579 H 0.65985 0.56537 0.22397 0.0
H7580 H 0.67479 0.54351 0.22115 0.0
H7581 H 0.67351 0.61513 0.16076 0.0
H7582 H 0.69842 0.62326 0.16548 0.0
H7583 H 0.67956 0.62597 0.18407 0.0
C7584 C 0.73196 0.44465 0.43897 0.0
C7585 C 0.71966 0.45749 0.42844 0.0
C7586 C 0.72411 0.43006 0.45104 0.0
C7587 C 0.70347 0.42777 0.45168 0.0
C7588 C 0.69086 0.44139 0.44194 0.0
C7589 C 0.69924 0.45645 0.43055 0.0
C7590 C 0.73806 0.41635 0.46172 0.0
C7591 C 0.66865 0.43902 0.44213 0.0
C7592 C 0.67833 0.37907 0.45074 0.0
C7593 C 0.66774 0.38033 0.46826 0.0
C7594 C 0.69211 0.3936 0.44601 0.0
C7595 C 0.69502 0.40942 0.4593 0.0
C7596 C 0.68647 0.40906 0.47824 0.0
C7597 C 0.67256 0.3944 0.48251 0.0
C7598 C 0.70153 0.39333 0.42584 0.0
C7599 C 0.69036 0.42526 0.49301 0.0
H7600 H 0.74785 0.44615 0.43799 0.0
H7601 H 0.68988 0.4665 0.42233 0.0
H7602 H 0.73119 0.40957 0.47493 0.0
H7603 H 0.74257 0.40433 0.4516 0.0
H7604 H 0.75169 0.42434 0.4663 0.0
H7605 H 0.66103 0.45167 0.43503 0.0
H7606 H 0.66445 0.42532 0.43416 0.0
H7607 H 0.66322 0.43755 0.45747 0.0
H7608 H 0.67448 0.36781 0.44002 0.0
H7609 H 0.66431 0.39491 0.49618 0.0
H7610 H 0.71764 0.39617 0.42699 0.0
H7611 H 0.69509 0.40523 0.4166 0.0
H7612 H 0.69921 0.37901 0.41819 0.0
H7613 H 0.70625 0.4294 0.49315 0.0
H7614 H 0.68586 0.42078 0.5081 0.0
H7615 H 0.68185 0.43859 0.48879 0.0
C7616 C 0.84393 0.81441 0.58807 0.0
C7617 C 0.84622 0.81658 0.56776 0.0
C7618 C 0.83646 0.83012 0.59924 0.0
C7619 C 0.83135 0.84803 0.58966 0.0
C7620 C 0.83125 0.84914 0.56892 0.0
C7621 C 0.83843 0.83322 0.55821 0.0
C7622 C 0.83625 0.82847 0.62139 0.0
C7623 C 0.82614 0.86792 0.558 0.0
C7624 C 0.81117 0.89067 0.6192 0.0
C7625 C 0.82848 0.90162 0.6229 0.0
C7626 C 0.81177 0.87319 0.60822 0.0
C7627 C 0.83014 0.86643 0.60118 0.0
C7628 C 0.84759 0.87757 0.60467 0.0
C7629 C 0.84654 0.89497 0.61561 0.0
C7630 C 0.79277 0.86229 0.60365 0.0
C7631 C 0.8672 0.87218 0.59561 0.0
H7632 H 0.84976 0.80143 0.59539 0.0
H7633 H 0.83976 0.83468 0.54236 0.0
H7634 H 0.84835 0.83769 0.62762 0.0
H7635 H 0.82213 0.83417 0.62734 0.0
H7636 H 0.83828 0.813 0.62644 0.0
H7637 H 0.82173 0.86483 0.54253 0.0
H7638 H 0.81406 0.87608 0.56534 0.0
H7639 H 0.83935 0.87769 0.55764 0.0
H7640 H 0.79711 0.89596 0.62463 0.0
H7641 H 0.85975 0.90385 0.61772 0.0
H7642 H 0.79296 0.84757 0.61084 0.0
H7643 H 0.79138 0.85977 0.58756 0.0
H7644 H 0.77954 0.87046 0.60875 0.0
H7645 H 0.86904 0.85604 0.59396 0.0
H7646 H 0.87976 0.8782 0.60432 0.0
H7647 H 0.86795 0.87884 0.5807 0.0
C7648 C 0.32152 0.66474 0.3998 0.0
C7649 C 0.32122 0.64528 0.40676 0.0
C7650 C 0.32702 0.6803 0.41223 0.0
C7651 C 0.33257 0.67615 0.43188 0.0
C7652 C 0.33117 0.65665 0.43931 0.0
C7653 C 0.32546 0.64141 0.42661 0.0
C7654 C 0.32806 0.70098 0.40399 0.0
C7655 C 0.33686 0.65167 0.46028 0.0
C7656 C 0.37274 0.7057 0.4567 0.0
C7657 C 0.36195 0.71641 0.47047 0.0
C7658 C 0.36318 0.6933 0.44326 0.0
C7659 C 0.34234 0.69152 0.44388 0.0
C7660 C 0.33127 0.7031 0.45718 0.0
C7661 C 0.34131 0.7153 0.47053 0.0
C7662 C 0.37554 0.68106 0.42941 0.0
C7663 C 0.30904 0.70157 0.45828 0.0
H7664 H 0.31782 0.6677 0.38454 0.0
H7665 H 0.32517 0.62632 0.432 0.0
H7666 H 0.32181 0.71176 0.41455 0.0
H7667 H 0.34376 0.70507 0.40154 0.0
H7668 H 0.32005 0.70229 0.38976 0.0
H7669 H 0.33316 0.63615 0.46421 0.0
H7670 H 0.353 0.65388 0.46229 0.0
H7671 H 0.32928 0.66165 0.47074 0.0
H7672 H 0.3887 0.70622 0.45715 0.0
H7673 H 0.33308 0.7232 0.48164 0.0
H7674 H 0.36952 0.68176 0.41422 0.0
H7675 H 0.37511 0.66536 0.43417 0.0
H7676 H 0.3912 0.68602 0.42912 0.0
H7677 H 0.30242 0.70209 0.44332 0.0
H7678 H 0.30257 0.71358 0.46732 0.0
H7679 H 0.30483 0.68719 0.46496 0.0
C7680 C 0.56833 0.088 0.70603 0.0
C7681 C 0.57012 0.09558 0.725 0.0
C7682 C 0.58325 0.076 0.69853 0.0
C7683 C 0.60027 0.07242 0.71023 0.0
C7684 C 0.60108 0.07841 0.73001 0.0
C7685 C 0.58553 0.08936 0.73735 0.0
C7686 C 0.58167 0.06877 0.67755 0.0
C7687 C 0.61911 0.07544 0.74283 0.0
C7688 C 0.63486 0.03831 0.68515 0.0
C7689 C 0.64422 0.05183 0.67273 0.0
C7690 C 0.62178 0.04498 0.69944 0.0
C7691 C 0.61817 0.06545 0.70069 0.0
C7692 C 0.6297 0.07922 0.68995 0.0
C7693 C 0.64277 0.07212 0.67591 0.0
C7694 C 0.61009 0.03009 0.71124 0.0
C7695 C 0.62646 0.10126 0.69147 0.0
H7696 H 0.55602 0.09232 0.69674 0.0
H7697 H 0.58606 0.09394 0.7526 0.0
H7698 H 0.59122 0.07801 0.66793 0.0
H7699 H 0.58683 0.05328 0.67639 0.0
H7700 H 0.56627 0.06961 0.67191 0.0
H7701 H 0.61506 0.07474 0.75867 0.0
H7702 H 0.62734 0.06189 0.73893 0.0
H7703 H 0.62922 0.08826 0.74084 0.0
H7704 H 0.63639 0.02259 0.68248 0.0
H7705 H 0.65026 0.08234 0.66608 0.0
H7706 H 0.59563 0.02753 0.7039 0.0
H7707 H 0.60711 0.03551 0.72635 0.0
H7708 H 0.61792 0.01573 0.71224 0.0
H7709 H 0.6126 0.10525 0.68366 0.0
H7710 H 0.63877 0.10981 0.68474 0.0
H7711 H 0.62486 0.10581 0.70707 0.0
C7712 C 0.18946 0.33581 0.98347 0.0
C7713 C 0.18551 0.31805 0.97359 0.0
C7714 C 0.19836 0.3515 0.97356 0.0
C7715 C 0.20409 0.34874 0.95381 0.0
C7716 C 0.204 0.32966 0.94541 0.0
C7717 C 0.19428 0.31441 0.95533 0.0
C7718 C 0.19912 0.37155 0.98324 0.0
C7719 C 0.21172 0.32609 0.92491 0.0
C7720 C 0.18763 0.38734 0.91762 0.0
C7721 C 0.2053 0.39726 0.91388 0.0
C7722 C 0.1871 0.37169 0.93098 0.0
C7723 C 0.2048 0.36584 0.94058 0.0
C7724 C 0.22273 0.37583 0.93693 0.0
C7725 C 0.22279 0.39142 0.92347 0.0
C7726 C 0.16754 0.3615 0.93489 0.0
C7727 C 0.24175 0.37063 0.94743 0.0
H7728 H 0.18396 0.33813 0.99826 0.0
H7729 H 0.19216 0.30031 0.94807 0.0
H7730 H 0.21387 0.37841 0.98114 0.0
H7731 H 0.18803 0.38138 0.97624 0.0
H7732 H 0.19591 0.37073 0.99927 0.0
H7733 H 0.21424 0.31013 0.92215 0.0
H7734 H 0.20081 0.33156 0.91398 0.0
H7735 H 0.22577 0.33429 0.92257 0.0
H7736 H 0.17415 0.39214 0.91044 0.0
H7737 H 0.23656 0.39913 0.92053 0.0
H7738 H 0.1643 0.36143 0.95091 0.0
H7739 H 0.16825 0.3459 0.92996 0.0
H7740 H 0.15505 0.36874 0.92711 0.0
H7741 H 0.2434 0.38026 0.96055 0.0
H7742 H 0.25473 0.3734 0.93781 0.0
H7743 H 0.24209 0.35503 0.95244 0.0
C7744 C 0.39468 0.48237 0.68012 0.0
C7745 C 0.38417 0.46675 0.67164 0.0
C7746 C 0.4088 0.47852 0.69459 0.0
C7747 C 0.41205 0.45874 0.70022 0.0
C7748 C 0.39932 0.44342 0.69372 0.0
C7749 C 0.38547 0.44766 0.67919 0.0
C7750 C 0.42179 0.49511 0.70196 0.0
C7751 C 0.40193 0.42222 0.70024 0.0
C7752 C 0.46227 0.43672 0.70529 0.0
C7753 C 0.46244 0.43293 0.72544 0.0
C7754 C 0.44648 0.44701 0.69699 0.0
C7755 C 0.43079 0.45324 0.70934 0.0
C7756 C 0.43195 0.45104 0.72992 0.0
C7757 C 0.44811 0.44121 0.73777 0.0
C7758 C 0.44558 0.44934 0.67487 0.0
C7759 C 0.41563 0.45763 0.74356 0.0
H7760 H 0.39318 0.49717 0.67417 0.0
H7761 H 0.37688 0.43583 0.67256 0.0
H7762 H 0.424 0.49392 0.7181 0.0
H7763 H 0.43654 0.49407 0.69492 0.0
H7764 H 0.41545 0.50983 0.69851 0.0
H7765 H 0.38894 0.41291 0.69632 0.0
H7766 H 0.41515 0.41591 0.69297 0.0
H7767 H 0.40432 0.42139 0.7164 0.0
H7768 H 0.47351 0.43035 0.69591 0.0
H7769 H 0.44872 0.43867 0.75353 0.0
H7770 H 0.4408 0.46447 0.67082 0.0
H7771 H 0.43458 0.43879 0.66873 0.0
H7772 H 0.46008 0.44638 0.66784 0.0
H7773 H 0.41715 0.47372 0.74626 0.0
H7774 H 0.41636 0.44998 0.75804 0.0
H7775 H 0.40078 0.45494 0.7371 0.0
C7776 C 0.70998 0.1331 0.11243 0.0
C7777 C 0.69375 0.12061 0.1085 0.0
C7778 C 0.7108 0.15232 0.10476 0.0
C7779 C 0.69478 0.1593 0.09344 0.0
C7780 C 0.67861 0.14667 0.08907 0.0
C7781 C 0.6784 0.12743 0.0965 0.0
C7782 C 0.7286 0.1652 0.10894 0.0
C7783 C 0.66151 0.15342 0.07646 0.0
C7784 C 0.67789 0.21176 0.08817 0.0
C7785 C 0.68182 0.21473 0.06823 0.0
C7786 C 0.68413 0.19435 0.09746 0.0
C7787 C 0.69434 0.17992 0.08634 0.0
C7788 C 0.70036 0.18411 0.06687 0.0
C7789 C 0.69411 0.20165 0.05809 0.0
C7790 C 0.67772 0.1903 0.11836 0.0
C7791 C 0.71133 0.16915 0.05457 0.0
H7792 H 0.7219 0.12804 0.12181 0.0
H7793 H 0.66618 0.11769 0.09287 0.0
H7794 H 0.73492 0.17087 0.09496 0.0
H7795 H 0.7241 0.17823 0.11771 0.0
H7796 H 0.74032 0.15716 0.11709 0.0
H7797 H 0.64938 0.14231 0.07593 0.0
H7798 H 0.65547 0.1675 0.08212 0.0
H7799 H 0.66667 0.15621 0.06121 0.0
H7800 H 0.66821 0.22187 0.09583 0.0
H7801 H 0.69709 0.20414 0.04259 0.0
H7802 H 0.69049 0.18532 0.12731 0.0
H7803 H 0.66663 0.17818 0.1185 0.0
H7804 H 0.67113 0.20352 0.1254 0.0
H7805 H 0.72529 0.16496 0.062 0.0
H7806 H 0.71487 0.17485 0.03962 0.0
H7807 H 0.70233 0.1555 0.05294 0.0
C7808 C 0.57635 0.94731 0.81154 0.0
C7809 C 0.56507 0.93241 0.82044 0.0
C7810 C 0.59403 0.9538 0.82015 0.0
C7811 C 0.60074 0.94452 0.83758 0.0
C7812 C 0.58831 0.93099 0.84764 0.0
C7813 C 0.57029 0.92542 0.83908 0.0
C7814 C 0.60642 0.96891 0.80939 0.0
C7815 C 0.59516 0.92038 0.86599 0.0
C7816 C 0.6551 0.93263 0.84161 0.0
C7817 C 0.66114 0.94527 0.85673 0.0
C7818 C 0.63557 0.93276 0.83484 0.0
C7819 C 0.62181 0.94597 0.84329 0.0
C7820 C 0.62794 0.9593 0.85807 0.0
C7821 C 0.64752 0.95865 0.8648 0.0
C7822 C 0.62957 0.91843 0.81891 0.0
C7823 C 0.61374 0.97392 0.86696 0.0
H7824 H 0.57222 0.95266 0.79704 0.0
H7825 H 0.5615 0.91399 0.84593 0.0
H7826 H 0.61465 0.9785 0.81984 0.0
H7827 H 0.61737 0.96122 0.80002 0.0
H7828 H 0.59717 0.97834 0.79967 0.0
H7829 H 0.58268 0.91325 0.87387 0.0
H7830 H 0.60591 0.9088 0.8618 0.0
H7831 H 0.60274 0.93063 0.87626 0.0
H7832 H 0.66569 0.92267 0.83502 0.0
H7833 H 0.6521 0.96846 0.87657 0.0
H7834 H 0.62523 0.92664 0.80545 0.0
H7835 H 0.61653 0.90981 0.82383 0.0
H7836 H 0.6416 0.90803 0.81505 0.0
H7837 H 0.60606 0.98227 0.85515 0.0
H7838 H 0.62129 0.98457 0.87691 0.0
H7839 H 0.60223 0.96594 0.87548 0.0
C7840 C 0.89079 0.06704 0.35905 0.0
C7841 C 0.87563 0.07798 0.35012 0.0
C7842 C 0.9103 0.06853 0.35221 0.0
C7843 C 0.91451 0.08122 0.33618 0.0
C7844 C 0.89885 0.09058 0.32591 0.0
C7845 C 0.8796 0.08887 0.33308 0.0
C7846 C 0.92657 0.05806 0.36323 0.0
C7847 C 0.90258 0.10406 0.30853 0.0
C7848 C 0.95567 0.11757 0.33295 0.0
C7849 C 0.96591 0.11063 0.31655 0.0
C7850 C 0.9407 0.10634 0.34162 0.0
C7851 C 0.93492 0.08834 0.33268 0.0
C7852 C 0.94644 0.08032 0.31729 0.0
C7853 C 0.96217 0.09151 0.3096 0.0
C7854 C 0.92915 0.11528 0.35839 0.0
C7855 C 0.94054 0.06133 0.30719 0.0
H7856 H 0.88764 0.05835 0.37211 0.0
H7857 H 0.86771 0.0968 0.32587 0.0
H7858 H 0.93771 0.05207 0.35291 0.0
H7859 H 0.93426 0.06874 0.373 0.0
H7860 H 0.9207 0.0458 0.37245 0.0
H7861 H 0.88874 0.10761 0.30046 0.0
H7862 H 0.90922 0.11812 0.31381 0.0
H7863 H 0.91312 0.09728 0.29809 0.0
H7864 H 0.95789 0.13271 0.33773 0.0
H7865 H 0.96958 0.08642 0.29648 0.0
H7866 H 0.92521 0.10388 0.36947 0.0
H7867 H 0.91521 0.12164 0.35259 0.0
H7868 H 0.9376 0.12725 0.36583 0.0
H7869 H 0.93729 0.04966 0.3182 0.0
H7870 H 0.95222 0.05599 0.29705 0.0
H7871 H 0.92684 0.06373 0.29851 0.0
C7872 C 0.42236 0.22425 0.14592 0.0
C7873 C 0.41333 0.20789 0.13681 0.0
C7874 C 0.43634 0.22162 0.16092 0.0
C7875 C 0.44119 0.20224 0.16679 0.0
C7876 C 0.43265 0.18575 0.1571 0.0
C7877 C 0.41871 0.18881 0.1423 0.0
C7878 C 0.44551 0.23942 0.1708 0.0
C7879 C 0.43777 0.16477 0.16262 0.0
C7880 C 0.4838 0.18263 0.19493 0.0
C7881 C 0.47344 0.17448 0.21091 0.0
C7882 C 0.47409 0.19433 0.18105 0.0
C7883 C 0.45393 0.19866 0.18401 0.0
C7884 C 0.44476 0.19381 0.2021 0.0
C7885 C 0.45455 0.18123 0.21519 0.0
C7886 C 0.48441 0.19877 0.16184 0.0
C7887 C 0.42352 0.19905 0.20621 0.0
H7888 H 0.41827 0.23908 0.14151 0.0
H7889 H 0.41212 0.17625 0.13484 0.0
H7890 H 0.44174 0.23941 0.1867 0.0
H7891 H 0.46185 0.23876 0.16978 0.0
H7892 H 0.44045 0.25353 0.16415 0.0
H7893 H 0.43212 0.15409 0.15157 0.0
H7894 H 0.45398 0.16285 0.16388 0.0
H7895 H 0.43115 0.16114 0.17713 0.0
H7896 H 0.49876 0.17781 0.1919 0.0
H7897 H 0.4466 0.17517 0.22739 0.0
H7898 H 0.47918 0.21276 0.1552 0.0
H7899 H 0.48121 0.18668 0.15126 0.0
H7900 H 0.5007 0.1996 0.16386 0.0
H7901 H 0.41912 0.21288 0.19862 0.0
H7902 H 0.42107 0.20089 0.22225 0.0
H7903 H 0.41378 0.1869 0.20096 0.0
C7904 C 0.62488 0.7141 0.94305 0.0
C7905 C 0.61298 0.71761 0.95937 0.0
C7906 C 0.61791 0.70316 0.92711 0.0
C7907 C 0.59857 0.69515 0.92774 0.0
C7908 C 0.58665 0.69795 0.94463 0.0
C7909 C 0.59387 0.70968 0.96016 0.0
C7910 C 0.63072 0.7015 0.90897 0.0
C7911 C 0.56601 0.68955 0.94585 0.0
C7912 C 0.58045 0.68976 0.87568 0.0
C7913 C 0.58722 0.67079 0.87128 0.0
C7914 C 0.5823 0.69741 0.89476 0.0
C7915 C 0.59073 0.68553 0.90976 0.0
C7916 C 0.59577 0.66568 0.90576 0.0
C7917 C 0.5942 0.65858 0.88642 0.0
C7918 C 0.57724 0.71883 0.89826 0.0
C7919 C 0.60433 0.65251 0.92155 0.0
H7920 H 0.63901 0.72151 0.94205 0.0
H7921 H 0.58443 0.71317 0.97255 0.0
H7922 H 0.63371 0.68574 0.90576 0.0
H7923 H 0.62296 0.70776 0.896 0.0
H7924 H 0.645 0.70947 0.91062 0.0
H7925 H 0.55999 0.69037 0.96104 0.0
H7926 H 0.55609 0.69793 0.93589 0.0
H7927 H 0.56581 0.67391 0.94095 0.0
H7928 H 0.57479 0.69903 0.86393 0.0
H7929 H 0.59889 0.64369 0.883 0.0
H7930 H 0.59109 0.72764 0.89914 0.0
H7931 H 0.56933 0.72067 0.91241 0.0
H7932 H 0.56799 0.72499 0.88621 0.0
H7933 H 0.62003 0.65661 0.9241 0.0
H7934 H 0.60369 0.63668 0.91728 0.0
H7935 H 0.59636 0.65446 0.93568 0.0
C7936 C 0.09482 0.82456 0.63073 0.0
C7937 C 0.10751 0.80839 0.6311 0.0
C7938 C 0.08173 0.82761 0.64623 0.0
C7939 C 0.08169 0.81405 0.66213 0.0
C7940 C 0.09215 0.7961 0.66082 0.0
C7941 C 0.10521 0.79348 0.64516 0.0
C7942 C 0.07046 0.8468 0.64702 0.0
C7943 C 0.0918 0.78117 0.67733 0.0
C7944 C 0.08135 0.84265 0.70932 0.0
C7945 C 0.06125 0.84222 0.71355 0.0
C7946 C 0.08853 0.83227 0.69313 0.0
C7947 C 0.07514 0.82103 0.68147 0.0
C7948 C 0.05518 0.819 0.68705 0.0
C7949 C 0.0484 0.82982 0.70308 0.0
C7950 C 0.10994 0.83501 0.68737 0.0
C7951 C 0.04052 0.80719 0.67506 0.0
H7952 H 0.09678 0.83593 0.61961 0.0
H7953 H 0.11515 0.78096 0.64514 0.0
H7954 H 0.05536 0.84443 0.65291 0.0
H7955 H 0.07823 0.85722 0.65702 0.0
H7956 H 0.06932 0.85385 0.63227 0.0
H7957 H 0.09709 0.7665 0.67234 0.0
H7958 H 0.10161 0.78634 0.68941 0.0
H7959 H 0.07669 0.77953 0.68345 0.0
H7960 H 0.09104 0.85252 0.71747 0.0
H7961 H 0.03277 0.82964 0.70661 0.0
H7962 H 0.11083 0.84406 0.67374 0.0
H7963 H 0.11687 0.82055 0.68424 0.0
H7964 H 0.11866 0.84258 0.69904 0.0
H7965 H 0.03444 0.81671 0.66321 0.0
H7966 H 0.02798 0.80204 0.6843 0.0
H7967 H 0.04751 0.7942 0.66804 0.0
C7968 C 0.9344 0.30398 0.46101 0.0
C7969 C 0.91397 0.30712 0.46088 0.0
C7970 C 0.94681 0.31434 0.44801 0.0
C7971 C 0.93842 0.32842 0.4351 0.0
C7972 C 0.9179 0.33225 0.4357 0.0
C7973 C 0.90591 0.32134 0.44841 0.0
C7974 C 0.9685 0.3093 0.44718 0.0
C7975 C 0.90834 0.34708 0.4221 0.0
C7976 C 0.96078 0.37022 0.40698 0.0
C7977 C 0.9578 0.36349 0.38772 0.0
C7978 C 0.95722 0.35775 0.42308 0.0
C7979 C 0.95024 0.33834 0.41967 0.0
C7980 C 0.94942 0.33081 0.40023 0.0
C7981 C 0.95318 0.34356 0.38443 0.0
C7982 C 0.95875 0.36607 0.44362 0.0
C7983 C 0.9419 0.3102 0.39594 0.0
H7984 H 0.9405 0.29233 0.46998 0.0
H7985 H 0.89003 0.32334 0.448 0.0
H7986 H 0.97271 0.30518 0.43195 0.0
H7987 H 0.97747 0.32241 0.45129 0.0
H7988 H 0.97237 0.29693 0.45724 0.0
H7989 H 0.89209 0.34635 0.42308 0.0
H7990 H 0.91346 0.3622 0.4259 0.0
H7991 H 0.91232 0.34426 0.40654 0.0
H7992 H 0.96508 0.38546 0.40946 0.0
H7993 H 0.95111 0.33828 0.36949 0.0
H7994 H 0.96426 0.35481 0.45415 0.0
H7995 H 0.94386 0.37066 0.44858 0.0
H7996 H 0.96869 0.37916 0.44413 0.0
H7997 H 0.94766 0.29943 0.40684 0.0
H7998 H 0.94604 0.30527 0.38091 0.0
H7999 H 0.92552 0.31002 0.39696 0.0
C8000 C 0.47634 0.87477 0.33985 0.0
C8001 C 0.47519 0.86653 0.32106 0.0
C8002 C 0.46439 0.86794 0.35509 0.0
C8003 C 0.45023 0.85308 0.35104 0.0
C8004 C 0.44846 0.84514 0.33181 0.0
C8005 C 0.46156 0.85152 0.3171 0.0
C8006 C 0.46795 0.87578 0.37564 0.0
C8007 C 0.43271 0.83008 0.32684 0.0
C8008 C 0.42884 0.82252 0.39249 0.0
C8009 C 0.41269 0.8342 0.39822 0.0
C8010 C 0.44162 0.82875 0.37752 0.0
C8011 C 0.43714 0.84614 0.36694 0.0
C8012 C 0.42061 0.85759 0.37215 0.0
C8013 C 0.40907 0.85192 0.38816 0.0
C8014 C 0.46001 0.81689 0.37333 0.0
C8015 C 0.41533 0.87613 0.36109 0.0
H8016 H 0.4874 0.88595 0.34284 0.0
H8017 H 0.46136 0.84462 0.30273 0.0
H8018 H 0.45401 0.8781 0.3838 0.0
H8019 H 0.47678 0.86483 0.38402 0.0
H8020 H 0.47622 0.88997 0.37537 0.0
H8021 H 0.43353 0.82516 0.31127 0.0
H8022 H 0.434 0.81694 0.3365 0.0
H8023 H 0.41791 0.83656 0.32951 0.0
H8024 H 0.43172 0.80855 0.39969 0.0
H8025 H 0.39731 0.86161 0.39284 0.0
H8026 H 0.473 0.82678 0.37138 0.0
H8027 H 0.45805 0.80844 0.3595 0.0
H8028 H 0.46332 0.80624 0.38535 0.0
H8029 H 0.42706 0.88741 0.36321 0.0
H8030 H 0.40109 0.88246 0.36609 0.0
H8031 H 0.41435 0.87293 0.3451 0.0
C8032 C 0.96515 0.66103 0.1264 0.0
C8033 C 0.95659 0.66475 0.14475 0.0
C8034 C 0.9611 0.67331 0.11023 0.0
C8035 C 0.94781 0.68918 0.11255 0.0
C8036 C 0.94045 0.69384 0.1315 0.0
C8037 C 0.94507 0.68159 0.14746 0.0
C8038 C 0.9697 0.66839 0.09037 0.0
C8039 C 0.92643 0.7108 0.13464 0.0
C8040 C 0.9341 0.72604 0.07276 0.0
C8041 C 0.91562 0.71859 0.06702 0.0
C8042 C 0.94556 0.71613 0.08688 0.0
C8043 C 0.93841 0.69821 0.095 0.0
C8044 C 0.9205 0.68991 0.08797 0.0
C8045 C 0.90897 0.70062 0.07466 0.0
C8046 C 0.96422 0.72586 0.09438 0.0
C8047 C 0.91254 0.67061 0.09589 0.0
H8048 H 0.97449 0.64819 0.12458 0.0
H8049 H 0.93879 0.68453 0.16185 0.0
H8050 H 0.95798 0.66198 0.08084 0.0
H8051 H 0.97523 0.68197 0.08299 0.0
H8052 H 0.98197 0.65761 0.09155 0.0
H8053 H 0.92431 0.71416 0.15051 0.0
H8054 H 0.93202 0.72424 0.12712 0.0
H8055 H 0.91181 0.70709 0.12814 0.0
H8056 H 0.9387 0.74055 0.06778 0.0
H8057 H 0.89412 0.69556 0.0713 0.0
H8058 H 0.97568 0.71478 0.09805 0.0
H8059 H 0.96081 0.73417 0.10802 0.0
H8060 H 0.97033 0.73648 0.08345 0.0
H8061 H 0.92441 0.65945 0.09721 0.0
H8062 H 0.90076 0.66445 0.08626 0.0
H8063 H 0.90635 0.67305 0.11081 0.0
C8064 C 0.10771 0.22383 0.87514 0.0
C8065 C 0.11209 0.20852 0.88834 0.0
C8066 C 0.09478 0.2206 0.8593 0.0
C8067 C 0.08591 0.20179 0.85706 0.0
C8068 C 0.08926 0.18678 0.87125 0.0
C8069 C 0.10257 0.19028 0.88661 0.0
C8070 C 0.09143 0.23688 0.84446 0.0
C8071 C 0.07949 0.1667 0.86979 0.0
C8072 C 0.04302 0.18823 0.82484 0.0
C8073 C 0.0523 0.17504 0.81199 0.0
C8074 C 0.05393 0.19887 0.83875 0.0
C8075 C 0.07468 0.19681 0.83905 0.0
C8076 C 0.08426 0.18602 0.82402 0.0
C8077 C 0.07285 0.17486 0.81082 0.0
C8078 C 0.04292 0.20959 0.85479 0.0
C8079 C 0.10648 0.18419 0.82365 0.0
H8080 H 0.11494 0.23806 0.87684 0.0
H8081 H 0.10565 0.17872 0.89725 0.0
H8082 H 0.09898 0.23307 0.8305 0.0
H8083 H 0.07547 0.23844 0.84106 0.0
H8084 H 0.09722 0.25133 0.84971 0.0
H8085 H 0.08138 0.15789 0.88349 0.0
H8086 H 0.06345 0.16822 0.86675 0.0
H8087 H 0.08609 0.15832 0.85743 0.0
H8088 H 0.02701 0.18823 0.8258 0.0
H8089 H 0.07999 0.1643 0.80144 0.0
H8090 H 0.05141 0.22237 0.86055 0.0
H8091 H 0.0403 0.19922 0.86722 0.0
H8092 H 0.0283 0.21481 0.84946 0.0
H8093 H 0.11179 0.17745 0.80979 0.0
H8094 H 0.11144 0.17483 0.83612 0.0
H8095 H 0.11351 0.19892 0.82543 0.0
C8096 C 0.5479 0.36173 0.63113 0.0
C8097 C 0.56337 0.36993 0.64211 0.0
C8098 C 0.55183 0.34751 0.61682 0.0
C8099 C 0.57157 0.34158 0.61386 0.0
C8100 C 0.58689 0.34843 0.62638 0.0
C8101 C 0.58257 0.36283 0.64036 0.0
C8102 C 0.53521 0.34009 0.60388 0.0
C8103 C 0.60803 0.34171 0.62407 0.0
C8104 C 0.58705 0.29965 0.58183 0.0
C8105 C 0.59563 0.31005 0.56612 0.0
C8106 C 0.57782 0.30963 0.59711 0.0
C8107 C 0.57683 0.33039 0.5962 0.0
C8108 C 0.5835 0.34076 0.57929 0.0
C8109 C 0.593 0.33036 0.5643 0.0
C8110 C 0.57129 0.2981 0.61505 0.0
C8111 C 0.58231 0.36299 0.57792 0.0
H8112 H 0.533 0.36724 0.633 0.0
H8113 H 0.59427 0.36912 0.64935 0.0
H8114 H 0.5364 0.34713 0.58915 0.0
H8115 H 0.53621 0.32389 0.60171 0.0
H8116 H 0.52048 0.3436 0.61013 0.0
H8117 H 0.61739 0.34615 0.6368 0.0
H8118 H 0.60872 0.32543 0.62247 0.0
H8119 H 0.61443 0.34836 0.61054 0.0
H8120 H 0.58891 0.28377 0.58293 0.0
H8121 H 0.5997 0.33826 0.55209 0.0
H8122 H 0.5576 0.30425 0.62149 0.0
H8123 H 0.58303 0.29899 0.62647 0.0
H8124 H 0.56877 0.28225 0.61156 0.0
H8125 H 0.56738 0.36814 0.58219 0.0
H8126 H 0.58567 0.36845 0.56285 0.0
H8127 H 0.5931 0.36972 0.5883 0.0
C8128 C 0.13075 0.41481 0.18194 0.0
C8129 C 0.11637 0.42543 0.19223 0.0
C8130 C 0.15003 0.42231 0.17976 0.0
C8131 C 0.15484 0.4411 0.18762 0.0
C8132 C 0.14066 0.45133 0.19901 0.0
C8133 C 0.12164 0.44325 0.20136 0.0
C8134 C 0.16503 0.41055 0.16835 0.0
C8135 C 0.145 0.47152 0.20744 0.0
C8136 C 0.20697 0.46297 0.18714 0.0
C8137 C 0.20647 0.47386 0.1696 0.0
C8138 C 0.19063 0.45131 0.19284 0.0
C8139 C 0.17322 0.45144 0.18115 0.0
C8140 C 0.1729 0.46235 0.16333 0.0
C8141 C 0.18962 0.47318 0.15767 0.0
C8142 C 0.19182 0.43929 0.21153 0.0
C8143 C 0.15455 0.46339 0.15065 0.0
H8144 H 0.1268 0.40075 0.17536 0.0
H8145 H 0.11057 0.45136 0.20951 0.0
H8146 H 0.1698 0.41895 0.15516 0.0
H8147 H 0.1784 0.40816 0.17752 0.0
H8148 H 0.15915 0.39598 0.16356 0.0
H8149 H 0.13376 0.47604 0.21844 0.0
H8150 H 0.15977 0.47192 0.21453 0.0
H8151 H 0.1451 0.48256 0.19534 0.0
H8152 H 0.22 0.46374 0.19643 0.0
H8153 H 0.18919 0.48196 0.14431 0.0
H8154 H 0.18755 0.42374 0.20855 0.0
H8155 H 0.18126 0.44512 0.22253 0.0
H8156 H 0.20689 0.43954 0.21806 0.0
H8157 H 0.14957 0.44832 0.14654 0.0
H8158 H 0.15694 0.47207 0.13696 0.0
H8159 H 0.14239 0.47031 0.15911 0.0
C8160 C 0.3276 0.45951 0.92673 0.0
C8161 C 0.30706 0.46133 0.92691 0.0
C8162 C 0.33678 0.44366 0.93636 0.0
C8163 C 0.3249 0.42878 0.94506 0.0
C8164 C 0.30446 0.43206 0.94765 0.0
C8165 C 0.29587 0.44874 0.939 0.0
C8166 C 0.35885 0.44122 0.93462 0.0
C8167 C 0.29116 0.41653 0.95663 0.0
C8168 C 0.34024 0.37768 0.92904 0.0
C8169 C 0.35039 0.37062 0.94559 0.0
C8170 C 0.33171 0.39644 0.92891 0.0
C8171 C 0.33266 0.40833 0.94605 0.0
C8172 C 0.34182 0.40098 0.96326 0.0
C8173 C 0.35094 0.38237 0.96272 0.0
C8174 C 0.32222 0.40373 0.91009 0.0
C8175 C 0.34267 0.41295 0.98199 0.0
H8176 H 0.33625 0.46875 0.91711 0.0
H8177 H 0.2799 0.45019 0.93913 0.0
H8178 H 0.36518 0.43621 0.94884 0.0
H8179 H 0.36215 0.42974 0.92349 0.0
H8180 H 0.36626 0.45516 0.93016 0.0
H8181 H 0.27661 0.42271 0.9609 0.0
H8182 H 0.28852 0.40462 0.94569 0.0
H8183 H 0.29819 0.40973 0.96975 0.0
H8184 H 0.3391 0.3686 0.91596 0.0
H8185 H 0.35891 0.37735 0.97563 0.0
H8186 H 0.33055 0.41668 0.90447 0.0
H8187 H 0.30684 0.40854 0.91291 0.0
H8188 H 0.32196 0.3923 0.89837 0.0
H8189 H 0.35522 0.42351 0.98114 0.0
H8190 H 0.34495 0.40337 0.99509 0.0
H8191 H 0.32898 0.42163 0.98414 0.0
C8192 C 0.38267 0.62243 0.6851 0.0
C8193 C 0.39469 0.61764 0.70123 0.0
C8194 C 0.36807 0.60942 0.67849 0.0
C8195 C 0.36633 0.59063 0.6874 0.0
C8196 C 0.37967 0.58483 0.70236 0.0
C8197 C 0.39337 0.59863 0.70952 0.0
C8198 C 0.3537 0.61636 0.66291 0.0
C8199 C 0.37913 0.56429 0.71114 0.0
C8200 C 0.31713 0.56396 0.6865 0.0
C8201 C 0.31892 0.55309 0.66918 0.0
C8202 C 0.33232 0.5768 0.69237 0.0
C8203 C 0.35011 0.57736 0.68139 0.0
C8204 C 0.3522 0.56569 0.66431 0.0
C8205 C 0.33628 0.55414 0.65807 0.0
C8206 C 0.32934 0.5897 0.71024 0.0
C8207 C 0.37139 0.56496 0.65296 0.0
H8208 H 0.38407 0.63677 0.67811 0.0
H8209 H 0.40245 0.59467 0.72206 0.0
H8210 H 0.35234 0.60543 0.65085 0.0
H8211 H 0.33886 0.61791 0.66963 0.0
H8212 H 0.35807 0.63081 0.65644 0.0
H8213 H 0.39225 0.5613 0.72053 0.0
H8214 H 0.36569 0.56244 0.72028 0.0
H8215 H 0.37845 0.55302 0.69929 0.0
H8216 H 0.30387 0.5625 0.69532 0.0
H8217 H 0.33776 0.54506 0.64501 0.0
H8218 H 0.33256 0.60535 0.70648 0.0
H8219 H 0.33973 0.58533 0.7221 0.0
H8220 H 0.31404 0.58865 0.71606 0.0
H8221 H 0.37416 0.57934 0.64561 0.0
H8222 H 0.37126 0.55323 0.64154 0.0
H8223 H 0.38393 0.56224 0.66316 0.0
C8224 C 0.19084 0.65176 0.45301 0.0
C8225 C 0.17096 0.6551 0.44863 0.0
C8226 C 0.19871 0.63277 0.45159 0.0
C8227 C 0.18617 0.61693 0.446 0.0
C8228 C 0.16565 0.61999 0.44365 0.0
C8229 C 0.15825 0.63923 0.44474 0.0
C8230 C 0.22074 0.63012 0.45396 0.0
C8231 C 0.15194 0.6032 0.43824 0.0
C8232 C 0.21166 0.58353 0.41032 0.0
C8233 C 0.21804 0.56832 0.42262 0.0
C8234 C 0.20046 0.59902 0.4177 0.0
C8235 C 0.19513 0.59892 0.43783 0.0
C8236 C 0.20036 0.58282 0.45008 0.0
C8237 C 0.21221 0.56778 0.44235 0.0
C8238 C 0.19628 0.61651 0.40446 0.0
C8239 C 0.19493 0.58225 0.47159 0.0
H8240 H 0.20044 0.66419 0.45636 0.0
H8241 H 0.14273 0.64199 0.44192 0.0
H8242 H 0.22402 0.61673 0.46277 0.0
H8243 H 0.22756 0.62815 0.43924 0.0
H8244 H 0.22783 0.64309 0.46114 0.0
H8245 H 0.13615 0.60742 0.43953 0.0
H8246 H 0.15482 0.59861 0.42285 0.0
H8247 H 0.15478 0.59019 0.44778 0.0
H8248 H 0.21706 0.58441 0.39539 0.0
H8249 H 0.2177 0.55616 0.4519 0.0
H8250 H 0.20494 0.6295 0.40952 0.0
H8251 H 0.18044 0.62056 0.40509 0.0
H8252 H 0.20034 0.61359 0.38892 0.0
H8253 H 0.2057 0.59128 0.48007 0.0
H8254 H 0.19534 0.56693 0.47749 0.0
H8255 H 0.18001 0.58848 0.47409 0.0
C8256 C 0.13178 0.6188 0.32037 0.0
C8257 C 0.12077 0.6222 0.33758 0.0
C8258 C 0.14999 0.6089 0.32113 0.0
C8259 C 0.15725 0.60219 0.3395 0.0
C8260 C 0.14608 0.60545 0.35683 0.0
C8261 C 0.1281 0.61557 0.35567 0.0
C8262 C 0.16117 0.60513 0.30229 0.0
C8263 C 0.15242 0.59728 0.37654 0.0
C8264 C 0.19208 0.55954 0.34651 0.0
C8265 C 0.2088 0.56921 0.35421 0.0
C8266 C 0.17556 0.57013 0.34019 0.0
C8267 C 0.17607 0.59098 0.34084 0.0
C8268 C 0.19388 0.60084 0.34602 0.0
C8269 C 0.21012 0.5898 0.35281 0.0
C8270 C 0.15697 0.55884 0.335 0.0
C8271 C 0.19508 0.62309 0.34617 0.0
H8272 H 0.12606 0.62378 0.30629 0.0
H8273 H 0.11936 0.61762 0.36887 0.0
H8274 H 0.17645 0.61102 0.30352 0.0
H8275 H 0.16238 0.58899 0.29973 0.0
H8276 H 0.15389 0.61193 0.28928 0.0
H8277 H 0.14467 0.60463 0.3889 0.0
H8278 H 0.1489 0.58127 0.37707 0.0
H8279 H 0.16854 0.59886 0.37873 0.0
H8280 H 0.19122 0.54354 0.34693 0.0
H8281 H 0.22314 0.59733 0.3584 0.0
H8282 H 0.14885 0.56598 0.32272 0.0
H8283 H 0.14704 0.55856 0.34799 0.0
H8284 H 0.16021 0.54332 0.33086 0.0
H8285 H 0.18949 0.62915 0.33203 0.0
H8286 H 0.21042 0.62849 0.34861 0.0
H8287 H 0.18552 0.62893 0.35806 0.0
C8288 C 0.17466 0.38216 0.06573 0.0
C8289 C 0.16254 0.37569 0.08129 0.0
C8290 C 0.1814 0.40169 0.06486 0.0
C8291 C 0.17661 0.41468 0.08037 0.0
C8292 C 0.16264 0.40886 0.09482 0.0
C8293 C 0.15561 0.38941 0.09496 0.0
C8294 C 0.19557 0.40754 0.04869 0.0
C8295 C 0.15723 0.42227 0.11169 0.0
C8296 C 0.22013 0.43962 0.10346 0.0
C8297 C 0.21444 0.45956 0.10326 0.0
C8298 C 0.20806 0.42499 0.09574 0.0
C8299 C 0.19072 0.43051 0.08556 0.0
C8300 C 0.18617 0.45074 0.08283 0.0
C8301 C 0.19784 0.46519 0.09231 0.0
C8302 C 0.21341 0.40361 0.09979 0.0
C8303 C 0.16912 0.45698 0.06996 0.0
H8304 H 0.17999 0.37173 0.05489 0.0
H8305 H 0.14557 0.38464 0.10646 0.0
H8306 H 0.19611 0.42379 0.04652 0.0
H8307 H 0.21065 0.40238 0.05246 0.0
H8308 H 0.19133 0.40039 0.03458 0.0
H8309 H 0.14585 0.41563 0.12147 0.0
H8310 H 0.1706 0.42555 0.12062 0.0
H8311 H 0.15159 0.43654 0.10604 0.0
H8312 H 0.23355 0.43503 0.11084 0.0
H8313 H 0.19389 0.48065 0.09135 0.0
H8314 H 0.2177 0.39624 0.0859 0.0
H8315 H 0.20063 0.39543 0.10604 0.0
H8316 H 0.22594 0.40219 0.1103 0.0
H8317 H 0.17206 0.45228 0.05458 0.0
H8318 H 0.16691 0.47323 0.07014 0.0
H8319 H 0.15524 0.44958 0.07458 0.0
C8320 C 0.33425 0.44639 0.86916 0.0
C8321 C 0.31925 0.45525 0.85823 0.0
C8322 C 0.35104 0.43915 0.85993 0.0
C8323 C 0.35276 0.44101 0.83923 0.0
C8324 C 0.33668 0.44811 0.82791 0.0
C8325 C 0.31987 0.45514 0.83766 0.0
C8326 C 0.36784 0.43172 0.87261 0.0
C8327 C 0.33801 0.45018 0.80582 0.0
C8328 C 0.40638 0.45031 0.83037 0.0
C8329 C 0.41304 0.43101 0.8278 0.0
C8330 C 0.38617 0.45425 0.83153 0.0
C8331 C 0.37248 0.43838 0.83043 0.0
C8332 C 0.37905 0.41917 0.8258 0.0
C8333 C 0.39938 0.41568 0.82454 0.0
C8334 C 0.37971 0.47504 0.83621 0.0
C8335 C 0.36482 0.40198 0.8244 0.0
H8336 H 0.33365 0.44685 0.88511 0.0
H8337 H 0.30813 0.46217 0.82937 0.0
H8338 H 0.37373 0.41766 0.86676 0.0
H8339 H 0.38006 0.44272 0.87257 0.0
H8340 H 0.36322 0.42927 0.8881 0.0
H8341 H 0.32322 0.4523 0.79902 0.0
H8342 H 0.34731 0.46321 0.80213 0.0
H8343 H 0.34508 0.43702 0.79921 0.0
H8344 H 0.41703 0.46216 0.83238 0.0
H8345 H 0.40459 0.40072 0.82236 0.0
H8346 H 0.37622 0.47604 0.85213 0.0
H8347 H 0.36618 0.47898 0.82789 0.0
H8348 H 0.39145 0.48605 0.83283 0.0
H8349 H 0.36075 0.39706 0.83946 0.0
H8350 H 0.37145 0.38927 0.81653 0.0
H8351 H 0.35101 0.40637 0.81674 0.0
C8352 C 0.36783 0.63519 0.5712 0.0
C8353 C 0.36207 0.63956 0.55193 0.0
C8354 C 0.35625 0.62261 0.58266 0.0
C8355 C 0.33888 0.61455 0.57428 0.0
C8356 C 0.33208 0.62065 0.55556 0.0
C8357 C 0.34396 0.63321 0.54446 0.0
C8358 C 0.36324 0.61686 0.60303 0.0
C8359 C 0.31315 0.61275 0.54666 0.0
C8360 C 0.32463 0.56385 0.59213 0.0
C8361 C 0.30882 0.56855 0.60436 0.0
C8362 C 0.33436 0.57883 0.58172 0.0
C8363 C 0.3285 0.59871 0.58448 0.0
C8364 C 0.31254 0.6035 0.59668 0.0
C8365 C 0.30245 0.58829 0.60587 0.0
C8366 C 0.35094 0.5735 0.5679 0.0
C8367 C 0.30647 0.62466 0.60057 0.0
H8368 H 0.38194 0.64047 0.57673 0.0
H8369 H 0.33974 0.63707 0.52953 0.0
H8370 H 0.351 0.61809 0.6138 0.0
H8371 H 0.36804 0.6012 0.603 0.0
H8372 H 0.3758 0.62617 0.60812 0.0
H8373 H 0.30918 0.62051 0.53279 0.0
H8374 H 0.31487 0.59678 0.54344 0.0
H8375 H 0.30072 0.61422 0.55716 0.0
H8376 H 0.32928 0.54862 0.59066 0.0
H8377 H 0.28972 0.59219 0.61464 0.0
H8378 H 0.36502 0.58001 0.5733 0.0
H8379 H 0.34805 0.57978 0.55306 0.0
H8380 H 0.35279 0.55727 0.5665 0.0
H8381 H 0.31795 0.63199 0.60972 0.0
H8382 H 0.29216 0.62559 0.6085 0.0
H8383 H 0.30525 0.63318 0.58666 0.0
C8384 C 0.21656 0.13497 0.41336 0.0
C8385 C 0.1988 0.12444 0.41056 0.0
C8386 C 0.21705 0.15228 0.42468 0.0
C8387 C 0.19934 0.1592 0.43313 0.0
C8388 C 0.18153 0.14836 0.43062 0.0
C8389 C 0.18144 0.13125 0.41915 0.0
C8390 C 0.2365 0.16278 0.42813 0.0
C8391 C 0.16281 0.15372 0.44131 0.0
C8392 C 0.19192 0.19348 0.4756 0.0
C8393 C 0.18403 0.20983 0.4657 0.0
C8394 C 0.19933 0.1774 0.46512 0.0
C8395 C 0.19894 0.17793 0.44431 0.0
C8396 C 0.19359 0.19556 0.43439 0.0
C8397 C 0.18616 0.21144 0.44528 0.0
C8398 C 0.20518 0.15908 0.47637 0.0
C8399 C 0.1932 0.19673 0.41221 0.0
H8400 H 0.23013 0.12942 0.40701 0.0
H8401 H 0.16797 0.12262 0.41772 0.0
H8402 H 0.23608 0.17771 0.42139 0.0
H8403 H 0.23905 0.16483 0.44416 0.0
H8404 H 0.24919 0.15456 0.42188 0.0
H8405 H 0.14954 0.1476 0.43381 0.0
H8406 H 0.16346 0.14714 0.45625 0.0
H8407 H 0.16112 0.16989 0.44302 0.0
H8408 H 0.1908 0.19253 0.49151 0.0
H8409 H 0.18028 0.22421 0.43765 0.0
H8410 H 0.2169 0.15074 0.46865 0.0
H8411 H 0.1921 0.14925 0.47788 0.0
H8412 H 0.21043 0.16281 0.49144 0.0
H8413 H 0.20664 0.18997 0.40583 0.0
H8414 H 0.19209 0.21222 0.40691 0.0
H8415 H 0.18022 0.18834 0.40663 0.0
C8416 C 0.68171 0.31507 0.56651 0.0
C8417 C 0.66447 0.31742 0.5556 0.0
C8418 C 0.68967 0.33094 0.57696 0.0
C8419 C 0.6803 0.34955 0.57569 0.0
C8420 C 0.66236 0.35176 0.5653 0.0
C8421 C 0.65446 0.33544 0.55552 0.0
C8422 C 0.70866 0.32807 0.58835 0.0
C8423 C 0.65246 0.37159 0.5631 0.0
C8424 C 0.69855 0.38616 0.61281 0.0
C8425 C 0.71434 0.39449 0.60247 0.0
C8426 C 0.68636 0.37218 0.6038 0.0
C8427 C 0.69018 0.36689 0.58408 0.0
C8428 C 0.70516 0.37658 0.57313 0.0
C8429 C 0.71734 0.39024 0.58264 0.0
C8430 C 0.67058 0.3619 0.61582 0.0
C8431 C 0.70937 0.37143 0.55191 0.0
H8432 H 0.68929 0.30107 0.56632 0.0
H8433 H 0.64127 0.33711 0.54658 0.0
H8434 H 0.72082 0.33635 0.58109 0.0
H8435 H 0.70715 0.33397 0.6035 0.0
H8436 H 0.71295 0.31227 0.58928 0.0
H8437 H 0.63763 0.37033 0.55614 0.0
H8438 H 0.65088 0.37889 0.57762 0.0
H8439 H 0.66181 0.38136 0.5538 0.0
H8440 H 0.69656 0.38966 0.62827 0.0
H8441 H 0.72971 0.3969 0.57492 0.0
H8442 H 0.67501 0.34636 0.61851 0.0
H8443 H 0.65636 0.36152 0.60768 0.0
H8444 H 0.66821 0.36919 0.63026 0.0
H8445 H 0.71742 0.3572 0.55132 0.0
H8446 H 0.71862 0.38289 0.5446 0.0
H8447 H 0.69545 0.36961 0.54343 0.0
C8448 C 0.46614 0.92984 0.3389 0.0
C8449 C 0.46593 0.93219 0.31851 0.0
C8450 C 0.45036 0.93684 0.3501 0.0
C8451 C 0.4347 0.94685 0.3405 0.0
C8452 C 0.43582 0.9514 0.32027 0.0
C8453 C 0.45134 0.94363 0.30941 0.0
C8454 C 0.44936 0.93167 0.37172 0.0
C8455 C 0.41977 0.96265 0.30965 0.0
C8456 C 0.38538 0.93425 0.36241 0.0
C8457 C 0.38257 0.95037 0.37482 0.0
C8458 C 0.40185 0.93356 0.3501 0.0
C8459 C 0.41589 0.94913 0.35085 0.0
C8460 C 0.41261 0.96588 0.36267 0.0
C8461 C 0.39591 0.96628 0.37466 0.0
C8462 C 0.40389 0.91653 0.33591 0.0
C8463 C 0.42672 0.98324 0.36272 0.0
H8464 H 0.47748 0.92093 0.34579 0.0
H8465 H 0.45117 0.9452 0.29355 0.0
H8466 H 0.44603 0.94502 0.38053 0.0
H8467 H 0.4372 0.9209 0.37422 0.0
H8468 H 0.46335 0.92513 0.3772 0.0
H8469 H 0.42524 0.96906 0.29559 0.0
H8470 H 0.40736 0.95252 0.30609 0.0
H8471 H 0.41386 0.97471 0.31895 0.0
H8472 H 0.37435 0.92258 0.36187 0.0
H8473 H 0.39309 0.97911 0.38376 0.0
H8474 H 0.41897 0.91024 0.33655 0.0
H8475 H 0.40157 0.92188 0.32065 0.0
H8476 H 0.39284 0.90469 0.33871 0.0
H8477 H 0.43992 0.9795 0.37168 0.0
H8478 H 0.41984 0.99667 0.36905 0.0
H8479 H 0.43189 0.9867 0.3476 0.0
C8480 C 0.80329 0.64005 0.11232 0.0
C8481 C 0.8204 0.6334 0.12206 0.0
C8482 C 0.80424 0.6557 0.09891 0.0
C8483 C 0.82264 0.66489 0.09551 0.0
C8484 C 0.83992 0.65816 0.10519 0.0
C8485 C 0.83854 0.64252 0.11849 0.0
C8486 C 0.78574 0.66231 0.08832 0.0
C8487 C 0.85996 0.6673 0.10136 0.0
C8488 C 0.83854 0.69393 0.05202 0.0
C8489 C 0.84384 0.71146 0.06164 0.0
C8490 C 0.82949 0.67864 0.06233 0.0
C8491 C 0.82426 0.68185 0.08217 0.0
C8492 C 0.82572 0.70097 0.09047 0.0
C8493 C 0.8361 0.71561 0.08022 0.0
C8494 C 0.82865 0.65852 0.05276 0.0
C8495 C 0.81879 0.70511 0.11114 0.0
H8496 H 0.7892 0.63289 0.11511 0.0
H8497 H 0.85174 0.63701 0.12568 0.0
H8498 H 0.78276 0.67804 0.09171 0.0
H8499 H 0.7878 0.66127 0.07215 0.0
H8500 H 0.7726 0.65332 0.09245 0.0
H8501 H 0.87193 0.65932 0.1092 0.0
H8502 H 0.86321 0.66722 0.08534 0.0
H8503 H 0.86013 0.6829 0.10633 0.0
H8504 H 0.84305 0.69138 0.03694 0.0
H8505 H 0.83937 0.72958 0.08731 0.0
H8506 H 0.81766 0.64855 0.05968 0.0
H8507 H 0.84342 0.65153 0.05404 0.0
H8508 H 0.82521 0.65989 0.0368 0.0
H8509 H 0.80458 0.69743 0.11412 0.0
H8510 H 0.81689 0.72119 0.11369 0.0
H8511 H 0.82988 0.69949 0.1218 0.0
C8512 C 0.5828 0.59437 0.30668 0.0
C8513 C 0.56478 0.59998 0.31521 0.0
C8514 C 0.59827 0.58739 0.3182 0.0
C8515 C 0.59503 0.58451 0.33852 0.0
C8516 C 0.57598 0.58734 0.34666 0.0
C8517 C 0.56102 0.5955 0.33492 0.0
C8518 C 0.61814 0.58451 0.30843 0.0
C8519 C 0.57189 0.58308 0.36807 0.0
C8520 C 0.6354 0.55921 0.3672 0.0
C8521 C 0.64457 0.57542 0.37642 0.0
C8522 C 0.6192 0.56188 0.3547 0.0
C8523 C 0.61195 0.58115 0.35169 0.0
C8524 C 0.62134 0.59757 0.36065 0.0
C8525 C 0.63749 0.59447 0.37309 0.0
C8526 C 0.61027 0.5443 0.34423 0.0
C8527 C 0.61483 0.61847 0.35649 0.0
H8528 H 0.5855 0.5969 0.29113 0.0
H8529 H 0.54694 0.59937 0.3414 0.0
H8530 H 0.63062 0.58317 0.31893 0.0
H8531 H 0.61754 0.57092 0.29931 0.0
H8532 H 0.62135 0.59702 0.29829 0.0
H8533 H 0.55582 0.58306 0.37133 0.0
H8534 H 0.57815 0.56853 0.37229 0.0
H8535 H 0.57916 0.59449 0.37734 0.0
H8536 H 0.64102 0.54443 0.36964 0.0
H8537 H 0.64499 0.60699 0.37972 0.0
H8538 H 0.61319 0.54556 0.32819 0.0
H8539 H 0.594 0.54404 0.34622 0.0
H8540 H 0.61649 0.53009 0.34953 0.0
H8541 H 0.61552 0.62146 0.34041 0.0
H8542 H 0.6242 0.6295 0.36424 0.0
H8543 H 0.59928 0.62049 0.36117 0.0
C8544 C 0.36146 0.83119 0.9449 0.0
C8545 C 0.35052 0.81988 0.95826 0.0
C8546 C 0.35438 0.8494 0.93806 0.0
C8547 C 0.33589 0.85644 0.94484 0.0
C8548 C 0.32393 0.84406 0.95679 0.0
C8549 C 0.33145 0.82586 0.9634 0.0
C8550 C 0.36787 0.86214 0.92566 0.0
C8551 C 0.30396 0.85074 0.96395 0.0
C8552 C 0.33691 0.9119 0.95251 0.0
C8553 C 0.32961 0.91891 0.93451 0.0
C8554 C 0.33791 0.8916 0.95649 0.0
C8555 C 0.33109 0.87781 0.94229 0.0
C8556 C 0.3221 0.88477 0.92481 0.0
C8557 C 0.32166 0.90523 0.92099 0.0
C8558 C 0.34714 0.88494 0.97559 0.0
C8559 C 0.31388 0.8706 0.9097 0.0
H8560 H 0.37644 0.82677 0.9414 0.0
H8561 H 0.32316 0.81719 0.97397 0.0
H8562 H 0.35962 0.86899 0.91331 0.0
H8563 H 0.37399 0.87425 0.93488 0.0
H8564 H 0.38039 0.8536 0.91951 0.0
H8565 H 0.2961 0.83898 0.97231 0.0
H8566 H 0.30566 0.86382 0.97362 0.0
H8567 H 0.29467 0.85528 0.95125 0.0
H8568 H 0.34241 0.92231 0.96334 0.0
H8569 H 0.31588 0.91036 0.907 0.0
H8570 H 0.3585 0.8737 0.97257 0.0
H8571 H 0.33576 0.87796 0.98508 0.0
H8572 H 0.35409 0.89731 0.98386 0.0
H8573 H 0.32622 0.86343 0.90176 0.0
H8574 H 0.30434 0.87819 0.89874 0.0
H8575 H 0.30516 0.85873 0.91695 0.0
C8576 C 0.37294 0.07005 0.17132 0.0
C8577 C 0.35891 0.08012 0.18281 0.0
C8578 C 0.39318 0.07088 0.17592 0.0
C8579 C 0.39958 0.08246 0.19202 0.0
C8580 C 0.38548 0.09189 0.20414 0.0
C8581 C 0.36535 0.09037 0.19955 0.0
C8582 C 0.40784 0.06042 0.16289 0.0
C8583 C 0.39174 0.1046 0.22131 0.0
C8584 C 0.44935 0.0844 0.21691 0.0
C8585 C 0.45694 0.10201 0.20911 0.0
C8586 C 0.43157 0.07639 0.20982 0.0
C8587 C 0.42092 0.08672 0.19514 0.0
C8588 C 0.42954 0.10352 0.18601 0.0
C8589 C 0.44752 0.111 0.19316 0.0
C8590 C 0.42333 0.05799 0.2194 0.0
C8591 C 0.41895 0.11514 0.17026 0.0
H8592 H 0.36828 0.06222 0.15819 0.0
H8593 H 0.35465 0.09775 0.2088 0.0
H8594 H 0.41632 0.07148 0.15423 0.0
H8595 H 0.41861 0.05207 0.17198 0.0
H8596 H 0.40048 0.05006 0.1525 0.0
H8597 H 0.37897 0.11132 0.22903 0.0
H8598 H 0.40029 0.09574 0.23208 0.0
H8599 H 0.40157 0.11658 0.21594 0.0
H8600 H 0.45641 0.07779 0.22963 0.0
H8601 H 0.45319 0.12492 0.18751 0.0
H8602 H 0.41626 0.04825 0.20828 0.0
H8603 H 0.41186 0.06216 0.23025 0.0
H8604 H 0.435 0.04956 0.22726 0.0
H8605 H 0.40765 0.10636 0.16229 0.0
H8606 H 0.42974 0.12079 0.15933 0.0
H8607 H 0.41154 0.12798 0.17716 0.0
C8608 C 0.14088 0.95082 0.66319 0.0
C8609 C 0.15684 0.94407 0.67454 0.0
C8610 C 0.12137 0.94852 0.66993 0.0
C8611 C 0.11799 0.93956 0.68846 0.0
C8612 C 0.13424 0.93457 0.70069 0.0
C8613 C 0.15348 0.93664 0.69344 0.0
C8614 C 0.10436 0.95438 0.6568 0.0
C8615 C 0.1313 0.92572 0.72091 0.0
C8616 C 0.06992 0.93251 0.71591 0.0
C8617 C 0.06772 0.91208 0.7138 0.0
C8618 C 0.08524 0.94257 0.70609 0.0
C8619 C 0.09812 0.93181 0.69367 0.0
C8620 C 0.09397 0.91175 0.68943 0.0
C8621 C 0.07912 0.90205 0.69994 0.0
C8622 C 0.08883 0.96397 0.71107 0.0
C8623 C 0.10686 0.89975 0.67586 0.0
H8624 H 0.14361 0.95695 0.64868 0.0
H8625 H 0.16593 0.932 0.70237 0.0
H8626 H 0.09682 0.9409 0.65123 0.0
H8627 H 0.0933 0.96291 0.66527 0.0
H8628 H 0.10932 0.96335 0.644 0.0
H8629 H 0.14525 0.9254 0.72955 0.0
H8630 H 0.12013 0.93424 0.72926 0.0
H8631 H 0.12573 0.91035 0.71945 0.0
H8632 H 0.06124 0.94017 0.72686 0.0
H8633 H 0.07756 0.88616 0.69856 0.0
H8634 H 0.07456 0.97199 0.71162 0.0
H8635 H 0.09872 0.97147 0.7004 0.0
H8636 H 0.09562 0.96491 0.72594 0.0
H8637 H 0.09955 0.88573 0.67138 0.0
H8638 H 0.12086 0.89603 0.68354 0.0
H8639 H 0.11067 0.90828 0.66242 0.0
loop_
_geom_bond_atom_site_label_1
_geom_bond_atom_site_label_2
_geom_bond_distance
_geom_bond_site_symmetry_2
_ccdc_geom_bond_type
Eu0 N31 2.657 1_455 S
Eu0 N38 2.609 1_455 S
Eu0 O44 2.560 1_455 S
Eu0 O45 2.612 . S
Eu0 O47 2.342 . S
Eu0 O48 2.563 . S
Eu0 O49 2.419 1_455 S
Eu0 O51 2.380 . S
Eu0 O52 2.432 . S
Eu0 C64 2.848 1_455 S
C1 C4 1.429 . S
C1 C5 1.411 . S
C1 N8 1.377 . S
C2 C4 1.420 . S
C2 C6 1.423 . S
C2 C14 1.392 . S
C3 C5 1.420 . S
C3 C6 1.351 . S
C3 H26 0.931 . S
C4 C1 1.429 . S
C4 C2 1.420 . S
C4 N12 1.362 . S
C5 C1 1.411 . S
C5 C3 1.420 . S
C5 C10 1.395 . S
C6 C2 1.423 . S
C6 C3 1.351 . S
C6 H18 0.930 . S
C7 C9 1.400 . S
C7 C10 1.386 . S
C7 H19 0.930 . S
N8 C1 1.377 . S
N8 C9 1.321 . S
N8 Eu11 2.609 . S
C9 C7 1.400 . S
C9 N8 1.321 . S
C9 H16 0.930 . S
C10 C5 1.395 . S
C10 C7 1.386 . S
C10 H29 0.930 . S
Eu11 N8 2.609 . S
Eu11 N12 2.657 . S
Eu11 O45 2.380 . S
Eu11 O46 2.432 . S
Eu11 O50 2.558 . S
Eu11 O51 2.612 . S
Eu11 O53 2.339 . S
Eu11 O54 2.563 . S
Eu11 O55 2.419 . S
Eu11 C75 2.848 . S
N12 C4 1.362 . S
N12 Eu11 2.657 . S
N12 C13 1.334 . S
C13 N12 1.334 . S
C13 C15 1.413 . S
C13 H20 0.929 . S
C14 C2 1.392 . S
C14 C15 1.367 . S
C14 H22 0.930 . S
C15 C13 1.413 . S
C15 C14 1.367 . S
C15 H17 0.930 . S
H16 C9 0.930 . S
H17 C15 0.930 . S
H18 C6 0.930 . S
H19 C7 0.930 . S
H20 C13 0.929 . S
H21 C35 0.930 . S
H22 C14 0.930 . S
H23 C41 0.930 . S
H24 C32 0.929 . S
H25 C39 0.958 . S
H26 C3 0.931 . S
H27 C33 0.930 . S
H28 C66 0.930 . S
H29 C10 0.930 . S
H30 C65 0.931 . S
N31 Eu0 2.657 1_655 S
N31 C32 1.334 . S
N31 C36 1.362 . S
C32 H24 0.929 . S
C32 N31 1.334 . S
C32 C35 1.413 . S
C33 H27 0.930 . S
C33 C34 1.392 . S
C33 C35 1.367 . S
C34 C33 1.392 . S
C34 C36 1.420 . S
C34 C66 1.423 . S
C35 H21 0.930 . S
C35 C32 1.413 . S
C35 C33 1.367 . S
C36 N31 1.362 . S
C36 C34 1.420 . S
C36 C40 1.429 . S
H37 C42 0.930 . S
N38 Eu0 2.609 1_655 S
N38 C40 1.377 . S
N38 C41 1.321 1_655 S
C39 H25 0.958 . S
C39 C41 1.419 . S
C39 C42 1.339 1_455 S
C40 C36 1.429 . S
C40 N38 1.377 . S
C40 C43 1.411 . S
C41 H23 0.930 . S
C41 N38 1.321 1_455 S
C41 C39 1.419 . S
C42 H37 0.930 . S
C42 C39 1.339 1_655 S
C42 C43 1.395 . S
C43 C40 1.411 . S
C43 C42 1.395 . S
C43 C65 1.420 . S
O44 Eu0 2.560 1_655 S
O44 C64 1.252 . S
O45 Eu0 2.612 . S
O45 Eu11 2.380 . S
O45 C56 1.276 . S
O46 Eu11 2.432 . S
O46 C63 1.264 . S
O47 Eu0 2.342 . S
O47 C63 1.258 . S
O48 Eu0 2.563 . S
O48 C56 1.235 . S
O49 Eu0 2.419 1_655 S
O49 C64 1.249 . S
O50 Eu11 2.558 . S
O50 C75 1.257 . S
O51 Eu0 2.380 . S
O51 Eu11 2.612 . S
O51 C67 1.276 . S
O52 Eu0 2.432 . S
O52 C74 1.264 . S
O53 Eu11 2.339 . S
O53 C74 1.254 . S
O54 Eu11 2.563 . S
O54 C67 1.235 . S
O55 Eu11 2.419 . S
O55 C75 1.249 . S
C56 O45 1.276 . S
C56 O48 1.235 . S
C57 C59 1.393 . S
C57 C61 1.395 . S
C57 C64 1.492 . S
C58 C59 1.392 . S
C58 C60 1.386 . S
C59 C57 1.393 . S
C59 C58 1.392 . S
C59 H76 0.930 . S
C60 C58 1.386 . S
C60 C62 1.395 . S
C60 H77 0.930 . S
C61 C57 1.395 . S
C61 C62 1.379 . S
C61 H78 0.930 . S
C62 C60 1.395 . S
C62 C61 1.379 . S
C62 H79 0.930 . S
C63 O46 1.264 . S
C63 O47 1.258 . S
C64 Eu0 2.848 1_655 S
C64 O44 1.252 . S
C64 O49 1.249 . S
C64 C57 1.492 . S
C65 H30 0.931 . S
C65 C43 1.420 . S
C65 C66 1.351 . S
C66 H28 0.930 . S
C66 C34 1.423 . S
C66 C65 1.351 . S
C67 O51 1.276 . S
C67 O54 1.235 . S
C68 C69 1.393 . S
C68 C72 1.395 . S
C68 C75 1.492 . S
C69 C68 1.393 . S
C69 C70 1.392 . S
C69 H80 0.930 . S
C70 C69 1.392 . S
C70 C71 1.386 . S
C71 C70 1.386 . S
C71 C73 1.395 . S
C71 H81 0.930 . S
C72 C68 1.395 . S
C72 C73 1.379 . S
C72 H82 0.930 . S
C73 C71 1.395 . S
C73 C72 1.379 . S
C73 H83 0.930 . S
C74 O52 1.264 . S
C74 O53 1.254 . S
C75 Eu11 2.848 . S
C75 O50 1.257 . S
C75 O55 1.249 . S
C75 C68 1.492 . S
H76 C59 0.930 . S
H77 C60 0.930 . S
H78 C61 0.930 . S
H79 C62 0.930 . S
H80 C69 0.930 . S
H81 C71 0.930 . S
H82 C72 0.930 . S
H83 C73 0.930 . S
Eu84 N115 2.657 . S
Eu84 N122 2.609 . S
Eu84 O128 2.558 . S
Eu84 O129 2.612 . S
Eu84 O131 2.339 . S
Eu84 O132 2.563 . S
Eu84 O133 2.419 . S
Eu84 O135 2.380 . S
Eu84 O136 2.432 . S
Eu84 C148 2.848 . S
C85 C88 1.429 . S
C85 C89 1.411 . S
C85 N92 1.377 . S
C86 C88 1.420 . S
C86 C90 1.423 . S
C86 C98 1.392 . S
C87 C89 1.420 . S
C87 C90 1.351 . S
C87 H110 0.931 . S
C88 C85 1.429 . S
C88 C86 1.420 . S
C88 N96 1.362 . S
C89 C85 1.411 . S
C89 C87 1.420 . S
C89 C94 1.395 . S
C90 C86 1.423 . S
C90 C87 1.351 . S
C90 H102 0.930 . S
C91 C93 1.400 . S
C91 C94 1.386 . S
C91 H103 0.930 . S
N92 C85 1.377 . S
N92 C93 1.321 . S
N92 Eu95 2.609 . S
C93 C91 1.400 . S
C93 N92 1.321 . S
C93 H100 0.930 . S
C94 C89 1.395 . S
C94 C91 1.386 . S
C94 H113 0.930 . S
Eu95 N92 2.609 . S
Eu95 N96 2.657 . S
Eu95 O129 2.380 . S
Eu95 O130 2.432 . S
Eu95 O134 2.558 . S
Eu95 O135 2.612 . S
Eu95 O137 2.339 . S
Eu95 O138 2.563 . S
Eu95 O139 2.419 . S
Eu95 C159 2.848 . S
N96 C88 1.362 . S
N96 Eu95 2.657 . S
N96 C97 1.334 . S
C97 N96 1.334 . S
C97 C99 1.413 . S
C97 H104 0.929 . S
C98 C86 1.392 . S
C98 C99 1.367 . S
C98 H106 0.930 . S
C99 C97 1.413 . S
C99 C98 1.367 . S
C99 H101 0.930 . S
H100 C93 0.930 . S
H101 C99 0.930 . S
H102 C90 0.930 . S
H103 C91 0.930 . S
H104 C97 0.929 . S
H105 C119 0.930 . S
H106 C98 0.930 . S
H107 C125 0.930 . S
H108 C116 0.929 . S
H109 C123 0.930 . S
H110 C87 0.931 . S
H111 C117 0.930 . S
H112 C150 0.930 . S
H113 C94 0.930 . S
H114 C149 0.931 . S
N115 Eu84 2.657 . S
N115 C116 1.334 . S
N115 C120 1.362 . S
C116 H108 0.929 . S
C116 N115 1.334 . S
C116 C119 1.413 . S
C117 H111 0.930 . S
C117 C118 1.392 . S
C117 C119 1.367 . S
C118 C117 1.392 . S
C118 C120 1.420 . S
C118 C150 1.423 . S
C119 H105 0.930 . S
C119 C116 1.413 . S
C119 C117 1.367 . S
C120 N115 1.362 . S
C120 C118 1.420 . S
C120 C124 1.429 . S
H121 C126 0.930 . S
N122 Eu84 2.609 . S
N122 C124 1.377 . S
N122 C125 1.321 . S
C123 H109 0.930 . S
C123 C125 1.400 . S
C123 C126 1.386 . S
C124 C120 1.429 . S
C124 N122 1.377 . S
C124 C127 1.411 . S
C125 H107 0.930 . S
C125 N122 1.321 . S
C125 C123 1.400 . S
C126 H121 0.930 . S
C126 C123 1.386 . S
C126 C127 1.395 . S
C127 C124 1.411 . S
C127 C126 1.395 . S
C127 C149 1.420 . S
O128 Eu84 2.558 . S
O128 C148 1.257 . S
O129 Eu84 2.612 . S
O129 Eu95 2.380 . S
O129 C140 1.276 . S
O130 Eu95 2.432 . S
O130 C147 1.264 . S
O131 Eu84 2.339 . S
O131 C147 1.254 . S
O132 Eu84 2.563 . S
O132 C140 1.235 . S
O133 Eu84 2.419 . S
O133 C148 1.249 . S
O134 Eu95 2.558 . S
O134 C159 1.257 . S
O135 Eu84 2.380 . S
O135 Eu95 2.612 . S
O135 C151 1.276 . S
O136 Eu84 2.432 . S
O136 C158 1.264 . S
O137 Eu95 2.339 . S
O137 C158 1.254 . S
O138 Eu95 2.563 . S
O138 C151 1.235 . S
O139 Eu95 2.419 . S
O139 C159 1.249 . S
C140 O129 1.276 . S
C140 O132 1.235 . S
C141 C143 1.393 . S
C141 C145 1.395 . S
C141 C148 1.492 . S
C142 C143 1.392 . S
C142 C144 1.386 . S
C143 C141 1.393 . S
C143 C142 1.392 . S
C143 H160 0.930 . S
C144 C142 1.386 . S
C144 C146 1.395 . S
C144 H161 0.930 . S
C145 C141 1.395 . S
C145 C146 1.379 . S
C145 H162 0.930 . S
C146 C144 1.395 . S
C146 C145 1.379 . S
C146 H163 0.930 . S
C147 O130 1.264 . S
C147 O131 1.254 . S
C148 Eu84 2.848 . S
C148 O128 1.257 . S
C148 O133 1.249 . S
C148 C141 1.492 . S
C149 H114 0.931 . S
C149 C127 1.420 . S
C149 C150 1.351 . S
C150 H112 0.930 . S
C150 C118 1.423 . S
C150 C149 1.351 . S
C151 O135 1.276 . S
C151 O138 1.235 . S
C152 C153 1.393 . S
C152 C156 1.395 . S
C152 C159 1.492 . S
C153 C152 1.393 . S
C153 C154 1.392 . S
C153 H164 0.930 . S
C154 C153 1.392 . S
C154 C155 1.386 . S
C155 C154 1.386 . S
C155 C157 1.395 . S
C155 H165 0.930 . S
C156 C152 1.395 . S
C156 C157 1.379 . S
C156 H166 0.930 . S
C157 C155 1.395 . S
C157 C156 1.379 . S
C157 H167 0.930 . S
C158 O136 1.264 . S
C158 O137 1.254 . S
C159 Eu95 2.848 . S
C159 O134 1.257 . S
C159 O139 1.249 . S
C159 C152 1.492 . S
H160 C143 0.930 . S
H161 C144 0.930 . S
H162 C145 0.930 . S
H163 C146 0.930 . S
H164 C153 0.930 . S
H165 C155 0.930 . S
H166 C156 0.930 . S
H167 C157 0.930 . S
Eu168 N199 2.657 . S
Eu168 N206 2.609 . S
Eu168 O212 2.558 . S
Eu168 O213 2.612 . S
Eu168 O215 2.339 . S
Eu168 O216 2.563 . S
Eu168 O217 2.419 . S
Eu168 O219 2.380 . S
Eu168 O220 2.432 . S
Eu168 C232 2.848 . S
C169 C172 1.429 . S
C169 C173 1.411 . S
C169 N176 1.377 . S
C170 C172 1.420 . S
C170 C174 1.423 . S
C170 C182 1.392 . S
C171 C173 1.420 . S
C171 C174 1.351 . S
C171 H194 0.931 . S
C172 C169 1.429 . S
C172 C170 1.420 . S
C172 N180 1.362 . S
C173 C169 1.411 . S
C173 C171 1.420 . S
C173 C178 1.395 . S
C174 C170 1.423 . S
C174 C171 1.351 . S
C174 H186 0.930 . S
C175 C177 1.400 . S
C175 C178 1.386 . S
C175 H187 0.930 . S
N176 C169 1.377 . S
N176 C177 1.321 . S
N176 Eu179 2.609 . S
C177 C175 1.400 . S
C177 N176 1.321 . S
C177 H184 0.930 . S
C178 C173 1.395 . S
C178 C175 1.386 . S
C178 H197 0.930 . S
Eu179 N176 2.609 . S
Eu179 N180 2.657 . S
Eu179 O213 2.380 . S
Eu179 O214 2.432 . S
Eu179 O218 2.558 . S
Eu179 O219 2.612 . S
Eu179 O221 2.339 . S
Eu179 O222 2.563 . S
Eu179 O223 2.419 . S
Eu179 C243 2.848 . S
N180 C172 1.362 . S
N180 Eu179 2.657 . S
N180 C181 1.334 . S
C181 N180 1.334 . S
C181 C183 1.413 . S
C181 H188 0.929 . S
C182 C170 1.392 . S
C182 C183 1.367 . S
C182 H190 0.930 . S
C183 C181 1.413 . S
C183 C182 1.367 . S
C183 H185 0.930 . S
H184 C177 0.930 . S
H185 C183 0.930 . S
H186 C174 0.930 . S
H187 C175 0.930 . S
H188 C181 0.929 . S
H189 C203 0.930 . S
H190 C182 0.930 . S
H191 C209 0.930 . S
H192 C200 0.929 . S
H193 C207 0.930 . S
H194 C171 0.931 . S
H195 C201 0.930 . S
H196 C234 0.930 . S
H197 C178 0.930 . S
H198 C233 0.931 . S
N199 Eu168 2.657 . S
N199 C200 1.334 . S
N199 C204 1.362 . S
C200 H192 0.929 . S
C200 N199 1.334 . S
C200 C203 1.413 . S
C201 H195 0.930 . S
C201 C202 1.392 . S
C201 C203 1.367 . S
C202 C201 1.392 . S
C202 C204 1.420 . S
C202 C234 1.423 . S
C203 H189 0.930 . S
C203 C200 1.413 . S
C203 C201 1.367 . S
C204 N199 1.362 . S
C204 C202 1.420 . S
C204 C208 1.429 . S
H205 C210 0.930 . S
N206 Eu168 2.609 . S
N206 C208 1.377 . S
N206 C209 1.321 . S
C207 H193 0.930 . S
C207 C209 1.400 . S
C207 C210 1.386 . S
C208 C204 1.429 . S
C208 N206 1.377 . S
C208 C211 1.411 . S
C209 H191 0.930 . S
C209 N206 1.321 . S
C209 C207 1.400 . S
C210 H205 0.930 . S
C210 C207 1.386 . S
C210 C211 1.395 . S
C211 C208 1.411 . S
C211 C210 1.395 . S
C211 C233 1.420 . S
O212 Eu168 2.558 . S
O212 C232 1.257 . S
O213 Eu168 2.612 . S
O213 Eu179 2.380 . S
O213 C224 1.276 . S
O214 Eu179 2.432 . S
O214 C231 1.264 . S
O215 Eu168 2.339 . S
O215 C231 1.254 . S
O216 Eu168 2.563 . S
O216 C224 1.235 . S
O217 Eu168 2.419 . S
O217 C232 1.249 . S
O218 Eu179 2.558 . S
O218 C243 1.257 . S
O219 Eu168 2.380 . S
O219 Eu179 2.612 . S
O219 C235 1.276 . S
O220 Eu168 2.432 . S
O220 C242 1.264 . S
O221 Eu179 2.339 . S
O221 C242 1.254 . S
O222 Eu179 2.563 . S
O222 C235 1.235 . S
O223 Eu179 2.419 . S
O223 C243 1.249 . S
C224 O213 1.276 . S
C224 O216 1.235 . S
C225 C227 1.393 . S
C225 C229 1.395 . S
C225 C232 1.492 . S
C226 C227 1.392 . S
C226 C228 1.386 . S
C227 C225 1.393 . S
C227 C226 1.392 . S
C227 H244 0.930 . S
C228 C226 1.386 . S
C228 C230 1.395 . S
C228 H245 0.930 . S
C229 C225 1.395 . S
C229 C230 1.379 . S
C229 H246 0.930 . S
C230 C228 1.395 . S
C230 C229 1.379 . S
C230 H247 0.930 . S
C231 O214 1.264 . S
C231 O215 1.254 . S
C232 Eu168 2.848 . S
C232 O212 1.257 . S
C232 O217 1.249 . S
C232 C225 1.492 . S
C233 H198 0.931 . S
C233 C211 1.420 . S
C233 C234 1.351 . S
C234 H196 0.930 . S
C234 C202 1.423 . S
C234 C233 1.351 . S
C235 O219 1.276 . S
C235 O222 1.235 . S
C236 C237 1.393 . S
C236 C240 1.395 . S
C236 C243 1.492 . S
C237 C236 1.393 . S
C237 C238 1.392 . S
C237 H248 0.930 . S
C238 C237 1.392 . S
C238 C239 1.386 . S
C239 C238 1.386 . S
C239 C241 1.395 . S
C239 H249 0.930 . S
C240 C236 1.395 . S
C240 C241 1.379 . S
C240 H250 0.930 . S
C241 C239 1.395 . S
C241 C240 1.379 . S
C241 H251 0.930 . S
C242 O220 1.264 . S
C242 O221 1.254 . S
C243 Eu179 2.848 . S
C243 O218 1.257 . S
C243 O223 1.249 . S
C243 C236 1.492 . S
H244 C227 0.930 . S
H245 C228 0.930 . S
H246 C229 0.930 . S
H247 C230 0.930 . S
H248 C237 0.930 . S
H249 C239 0.930 . S
H250 C240 0.930 . S
H251 C241 0.930 . S
Eu252 N283 2.657 . S
Eu252 N290 2.609 . S
Eu252 O296 2.558 . S
Eu252 O297 2.612 . S
Eu252 O299 2.339 . S
Eu252 O300 2.563 . S
Eu252 O301 2.419 . S
Eu252 O303 2.380 . S
Eu252 O304 2.432 . S
Eu252 C316 2.848 . S
C253 C256 1.429 . S
C253 C257 1.411 1_554 S
C253 N260 1.377 1_554 S
C254 C256 1.420 . S
C254 C258 1.423 . S
C254 C266 1.392 . S
C255 C257 1.420 1_554 S
C255 C258 1.351 . S
C255 H278 0.931 . S
C256 C253 1.429 . S
C256 C254 1.420 . S
C256 N264 1.362 . S
C257 C253 1.411 1_556 S
C257 C255 1.420 1_556 S
C257 C262 1.395 . S
C258 C254 1.423 . S
C258 C255 1.351 . S
C258 H270 0.930 . S
C259 C261 1.400 . S
C259 C262 1.386 . S
C259 H271 0.930 . S
N260 C253 1.377 1_556 S
N260 C261 1.321 . S
N260 Eu263 2.609 1_556 S
C261 C259 1.400 . S
C261 N260 1.321 . S
C261 H268 0.930 . S
C262 C257 1.395 . S
C262 C259 1.386 . S
C262 H281 0.930 . S
Eu263 N260 2.609 1_554 S
Eu263 N264 2.657 . S
Eu263 O297 2.380 . S
Eu263 O298 2.444 . S
Eu263 O302 2.558 1_554 S
Eu263 O303 2.612 . S
Eu263 O305 2.339 . S
Eu263 O306 2.563 1_554 S
Eu263 O307 2.419 1_554 S
Eu263 C327 2.848 1_554 S
N264 C256 1.362 . S
N264 Eu263 2.657 . S
N264 C265 1.334 . S
C265 N264 1.334 . S
C265 C267 1.413 . S
C265 H272 0.929 . S
C266 C254 1.392 . S
C266 C267 1.367 . S
C266 H274 0.930 . S
C267 C265 1.413 . S
C267 C266 1.367 . S
C267 H269 0.930 . S
H268 C261 0.930 . S
H269 C267 0.930 . S
H270 C258 0.930 . S
H271 C259 0.930 . S
H272 C265 0.929 . S
H273 C287 0.930 1_556 S
H274 C266 0.930 . S
H275 C293 0.930 . S
H276 C284 0.929 . S
H277 C291 0.930 . S
H278 C255 0.931 . S
H279 C285 0.930 . S
H280 C318 0.930 . S
H281 C262 0.930 . S
H282 C317 0.931 . S
N283 Eu252 2.657 . S
N283 C284 1.334 . S
N283 C288 1.362 . S
C284 H276 0.929 . S
C284 N283 1.334 . S
C284 C287 1.413 . S
C285 H279 0.930 . S
C285 C286 1.392 . S
C285 C287 1.367 . S
C286 C285 1.392 . S
C286 C288 1.420 . S
C286 C318 1.423 . S
C287 H273 0.930 1_554 S
C287 C284 1.413 . S
C287 C285 1.367 . S
C288 N283 1.362 . S
C288 C286 1.420 . S
C288 C292 1.429 . S
H289 C294 0.930 . S
N290 Eu252 2.609 . S
N290 C292 1.377 . S
N290 C293 1.321 . S
C291 H277 0.930 . S
C291 C293 1.400 . S
C291 C294 1.386 . S
C292 C288 1.429 . S
C292 N290 1.377 . S
C292 C295 1.411 . S
C293 H275 0.930 . S
C293 N290 1.321 . S
C293 C291 1.400 . S
C294 H289 0.930 . S
C294 C291 1.386 . S
C294 C295 1.395 . S
C295 C292 1.411 . S
C295 C294 1.395 . S
C295 C317 1.420 . S
O296 Eu252 2.558 . S
O296 C316 1.257 . S
O297 Eu252 2.612 . S
O297 Eu263 2.380 . S
O297 C308 1.276 . S
O298 Eu263 2.444 . S
O298 C315 1.305 . S
O299 Eu252 2.339 . S
O299 C315 1.254 . S
O300 Eu252 2.563 . S
O300 C308 1.235 . S
O301 Eu252 2.419 . S
O301 C316 1.249 . S
O302 Eu263 2.558 1_556 S
O302 C327 1.257 . S
O303 Eu252 2.380 . S
O303 Eu263 2.612 . S
O303 C319 1.276 . S
O304 Eu252 2.432 . S
O304 C326 1.264 . S
O305 Eu263 2.339 . S
O305 C326 1.254 . S
O306 Eu263 2.563 1_556 S
O306 C319 1.235 1_556 S
O307 Eu263 2.419 1_556 S
O307 C327 1.249 . S
C308 O297 1.276 . S
C308 O300 1.235 . S
C309 C311 1.393 . S
C309 C313 1.395 . S
C309 C316 1.492 . S
C310 C311 1.392 . S
C310 C312 1.386 . S
C311 C309 1.393 . S
C311 C310 1.392 . S
C311 H328 0.930 . S
C312 C310 1.386 . S
C312 C314 1.395 . S
C312 H329 0.930 . S
C313 C309 1.395 . S
C313 C314 1.379 . S
C313 H330 0.930 . S
C314 C312 1.395 . S
C314 C313 1.379 . S
C314 H331 0.930 . S
C315 O298 1.305 . S
C315 O299 1.254 . S
C316 Eu252 2.848 . S
C316 O296 1.257 . S
C316 O301 1.249 . S
C316 C309 1.492 . S
C317 H282 0.931 . S
C317 C295 1.420 . S
C317 C318 1.351 . S
C318 H280 0.930 . S
C318 C286 1.423 . S
C318 C317 1.351 . S
C319 O303 1.276 . S
C319 O306 1.235 1_554 S
C320 C321 1.393 . S
C320 C324 1.395 . S
C320 C327 1.492 . S
C321 C320 1.393 . S
C321 C322 1.392 . S
C321 H332 0.930 . S
C322 C321 1.392 . S
C322 C323 1.386 . S
C323 C322 1.386 . S
C323 C325 1.395 . S
C323 H333 0.930 . S
C324 C320 1.395 . S
C324 C325 1.379 . S
C324 H334 0.930 . S
C325 C323 1.395 . S
C325 C324 1.379 . S
C325 H335 0.930 . S
C326 O304 1.264 . S
C326 O305 1.254 . S
C327 Eu263 2.848 1_556 S
C327 O302 1.257 . S
C327 O307 1.249 . S
C327 C320 1.492 . S
H328 C311 0.930 . S
H329 C312 0.930 . S
H330 C313 0.930 . S
H331 C314 0.930 . S
H332 C321 0.930 . S
H333 C323 0.930 . S
H334 C324 0.930 . S
H335 C325 0.930 . S
Eu336 N367 2.657 1_455 S
Eu336 N374 2.609 1_455 S
Eu336 O380 2.558 1_455 S
Eu336 O381 2.612 . S
Eu336 O383 2.324 1_455 S
Eu336 O384 2.563 . S
Eu336 O385 2.419 1_455 S
Eu336 O387 2.380 . S
Eu336 O388 2.432 . S
Eu336 C400 2.848 1_455 S
C337 C340 1.429 . S
C337 C341 1.411 . S
C337 N344 1.377 . S
C338 C340 1.420 . S
C338 C342 1.423 . S
C338 C350 1.392 . S
C339 C341 1.420 . S
C339 C342 1.351 . S
C339 H362 0.931 . S
C340 C337 1.429 . S
C340 C338 1.420 . S
C340 N348 1.362 . S
C341 C337 1.411 . S
C341 C339 1.420 . S
C341 C346 1.395 . S
C342 C338 1.423 . S
C342 C339 1.351 . S
C342 H354 0.930 . S
C343 C345 1.400 . S
C343 C346 1.386 . S
C343 H355 0.930 . S
N344 C337 1.377 . S
N344 C345 1.321 . S
N344 Eu347 2.609 . S
C345 C343 1.400 . S
C345 N344 1.321 . S
C345 H352 0.930 . S
C346 C341 1.395 . S
C346 C343 1.386 . S
C346 H365 0.930 . S
Eu347 N344 2.609 . S
Eu347 N348 2.657 . S
Eu347 O381 2.380 . S
Eu347 O382 2.432 . S
Eu347 O386 2.558 . S
Eu347 O387 2.612 . S
Eu347 O389 2.339 . S
Eu347 O390 2.563 . S
Eu347 O391 2.419 . S
Eu347 C411 2.848 . S
N348 C340 1.362 . S
N348 Eu347 2.657 . S
N348 C349 1.334 . S
C349 N348 1.334 . S
C349 C351 1.413 . S
C349 H356 0.929 . S
C350 C338 1.392 . S
C350 C351 1.367 . S
C350 H358 0.930 . S
C351 C349 1.413 . S
C351 C350 1.367 . S
C351 H353 0.930 . S
H352 C345 0.930 . S
H353 C351 0.930 . S
H354 C342 0.930 . S
H355 C343 0.930 . S
H356 C349 0.929 . S
H357 C371 0.930 . S
H358 C350 0.930 . S
H359 C377 0.930 . S
H360 C368 0.929 . S
H361 C375 0.915 1_455 S
H362 C339 0.931 . S
H363 C369 0.930 . S
H364 C402 0.930 . S
H365 C346 0.930 . S
H366 C401 0.931 . S
N367 Eu336 2.657 1_655 S
N367 C368 1.334 . S
N367 C372 1.362 . S
C368 H360 0.929 . S
C368 N367 1.334 . S
C368 C371 1.413 . S
C369 H363 0.930 . S
C369 C370 1.392 . S
C369 C371 1.367 . S
C370 C369 1.392 . S
C370 C372 1.420 . S
C370 C402 1.423 . S
C371 H357 0.930 . S
C371 C368 1.413 . S
C371 C369 1.367 . S
C372 N367 1.362 . S
C372 C370 1.420 . S
C372 C376 1.429 . S
H373 C378 0.930 . S
N374 Eu336 2.609 1_655 S
N374 C376 1.377 . S
N374 C377 1.321 1_655 S
C375 H361 0.915 1_655 S
C375 C377 1.390 1_655 S
C375 C378 1.411 . S
C376 C372 1.429 . S
C376 N374 1.377 . S
C376 C379 1.411 . S
C377 H359 0.930 . S
C377 N374 1.321 1_455 S
C377 C375 1.390 1_455 S
C378 H373 0.930 . S
C378 C375 1.411 . S
C378 C379 1.395 . S
C379 C376 1.411 . S
C379 C378 1.395 . S
C379 C401 1.420 . S
O380 Eu336 2.558 1_655 S
O380 C400 1.257 . S
O381 Eu336 2.612 . S
O381 Eu347 2.380 . S
O381 C392 1.276 . S
O382 Eu347 2.432 . S
O382 C399 1.264 . S
O383 Eu336 2.324 1_655 S
O383 C399 1.236 1_655 S
O384 Eu336 2.563 . S
O384 C392 1.235 . S
O385 Eu336 2.419 1_655 S
O385 C400 1.249 . S
O386 Eu347 2.558 . S
O386 C411 1.257 . S
O387 Eu336 2.380 . S
O387 Eu347 2.612 . S
O387 C403 1.276 . S
O388 Eu336 2.432 . S
O388 C410 1.264 . S
O389 Eu347 2.339 . S
O389 C410 1.254 . S
O390 Eu347 2.563 . S
O390 C403 1.235 . S
O391 Eu347 2.419 . S
O391 C411 1.249 . S
C392 O381 1.276 . S
C392 O384 1.235 . S
C393 C395 1.393 . S
C393 C397 1.395 . S
C393 C400 1.492 . S
C394 C395 1.392 . S
C394 C396 1.386 . S
C395 C393 1.393 . S
C395 C394 1.392 . S
C395 H412 0.930 . S
C396 C394 1.386 . S
C396 C398 1.395 . S
C396 H413 0.930 . S
C397 C393 1.395 . S
C397 C398 1.379 . S
C397 H414 0.930 . S
C398 C396 1.395 . S
C398 C397 1.379 . S
C398 H415 0.930 . S
C399 O382 1.264 . S
C399 O383 1.236 1_455 S
C400 Eu336 2.848 1_655 S
C400 O380 1.257 . S
C400 O385 1.249 . S
C400 C393 1.492 . S
C401 H366 0.931 . S
C401 C379 1.420 . S
C401 C402 1.351 . S
C402 H364 0.930 . S
C402 C370 1.423 . S
C402 C401 1.351 . S
C403 O387 1.276 . S
C403 O390 1.235 . S
C404 C405 1.393 . S
C404 C408 1.395 . S
C404 C411 1.492 . S
C405 C404 1.393 . S
C405 C406 1.392 . S
C405 H416 0.930 . S
C406 C405 1.392 . S
C406 C407 1.386 . S
C407 C406 1.386 . S
C407 C409 1.395 . S
C407 H417 0.930 . S
C408 C404 1.395 . S
C408 C409 1.379 . S
C408 H418 0.930 . S
C409 C407 1.395 . S
C409 C408 1.379 . S
C409 H419 0.930 . S
C410 O388 1.264 . S
C410 O389 1.254 . S
C411 Eu347 2.848 . S
C411 O386 1.257 . S
C411 O391 1.249 . S
C411 C404 1.492 . S
H412 C395 0.930 . S
H413 C396 0.930 . S
H414 C397 0.930 . S
H415 C398 0.930 . S
H416 C405 0.930 . S
H417 C407 0.930 . S
H418 C408 0.930 . S
H419 C409 0.930 . S
Eu420 N451 2.657 . S
Eu420 N458 2.609 . S
Eu420 O464 2.558 . S
Eu420 O465 2.612 . S
Eu420 O467 2.339 . S
Eu420 O468 2.563 . S
Eu420 O469 2.419 . S
Eu420 O471 2.380 . S
Eu420 O472 2.432 . S
Eu420 C484 2.848 . S
C421 C424 1.429 . S
C421 C425 1.411 . S
C421 N428 1.377 . S
C422 C424 1.420 . S
C422 C426 1.423 . S
C422 C434 1.392 . S
C423 C425 1.420 . S
C423 C426 1.351 . S
C423 H446 0.931 . S
C424 C421 1.429 . S
C424 C422 1.420 . S
C424 N432 1.362 . S
C425 C421 1.411 . S
C425 C423 1.420 . S
C425 C430 1.395 . S
C426 C422 1.423 . S
C426 C423 1.351 . S
C426 H438 0.930 . S
C427 C429 1.400 . S
C427 C430 1.386 . S
C427 H439 0.930 . S
N428 C421 1.377 . S
N428 C429 1.321 . S
N428 Eu431 2.609 . S
C429 C427 1.400 . S
C429 N428 1.321 . S
C429 H436 0.930 . S
C430 C425 1.395 . S
C430 C427 1.386 . S
C430 H449 0.930 . S
Eu431 N428 2.609 . S
Eu431 N432 2.657 . S
Eu431 O465 2.380 . S
Eu431 O466 2.432 . S
Eu431 O470 2.558 . S
Eu431 O471 2.612 . S
Eu431 O473 2.339 . S
Eu431 O474 2.563 . S
Eu431 O475 2.419 . S
Eu431 C495 2.848 . S
N432 C424 1.362 . S
N432 Eu431 2.657 . S
N432 C433 1.334 . S
C433 N432 1.334 . S
C433 C435 1.413 . S
C433 H440 0.929 . S
C434 C422 1.392 . S
C434 C435 1.367 . S
C434 H442 0.930 . S
C435 C433 1.413 . S
C435 C434 1.367 . S
C435 H437 0.930 . S
H436 C429 0.930 . S
H437 C435 0.930 . S
H438 C426 0.930 . S
H439 C427 0.930 . S
H440 C433 0.929 . S
H441 C455 0.930 . S
H442 C434 0.930 . S
H443 C461 0.930 . S
H444 C452 0.929 . S
H445 C459 0.930 . S
H446 C423 0.931 . S
H447 C453 0.930 . S
H448 C486 0.930 . S
H449 C430 0.930 . S
H450 C485 0.931 . S
N451 Eu420 2.657 . S
N451 C452 1.334 . S
N451 C456 1.362 . S
C452 H444 0.929 . S
C452 N451 1.334 . S
C452 C455 1.413 . S
C453 H447 0.930 . S
C453 C454 1.392 . S
C453 C455 1.367 . S
C454 C453 1.392 . S
C454 C456 1.420 . S
C454 C486 1.423 . S
C455 H441 0.930 . S
C455 C452 1.413 . S
C455 C453 1.367 . S
C456 N451 1.362 . S
C456 C454 1.420 . S
C456 C460 1.429 . S
H457 C462 0.930 . S
N458 Eu420 2.609 . S
N458 C460 1.377 . S
N458 C461 1.321 . S
C459 H445 0.930 . S
C459 C461 1.400 . S
C459 C462 1.386 . S
C460 C456 1.429 . S
C460 N458 1.377 . S
C460 C463 1.411 . S
C461 H443 0.930 . S
C461 N458 1.321 . S
C461 C459 1.400 . S
C462 H457 0.930 . S
C462 C459 1.386 . S
C462 C463 1.395 . S
C463 C460 1.411 . S
C463 C462 1.395 . S
C463 C485 1.420 . S
O464 Eu420 2.558 . S
O464 C484 1.257 . S
O465 Eu420 2.612 . S
O465 Eu431 2.380 . S
O465 C476 1.276 . S
O466 Eu431 2.432 . S
O466 C483 1.264 . S
O467 Eu420 2.339 . S
O467 C483 1.254 . S
O468 Eu420 2.563 . S
O468 C476 1.235 . S
O469 Eu420 2.419 . S
O469 C484 1.249 . S
O470 Eu431 2.558 . S
O470 C495 1.257 . S
O471 Eu420 2.380 . S
O471 Eu431 2.612 . S
O471 C487 1.276 . S
O472 Eu420 2.432 . S
O472 C494 1.264 . S
O473 Eu431 2.339 . S
O473 C494 1.254 . S
O474 Eu431 2.563 . S
O474 C487 1.235 . S
O475 Eu431 2.419 . S
O475 C495 1.249 . S
C476 O465 1.276 . S
C476 O468 1.235 . S
C477 C479 1.393 . S
C477 C481 1.395 . S
C477 C484 1.492 . S
C478 C479 1.392 . S
C478 C480 1.386 . S
C479 C477 1.393 . S
C479 C478 1.392 . S
C479 H496 0.930 . S
C480 C478 1.386 . S
C480 C482 1.395 . S
C480 H497 0.930 . S
C481 C477 1.395 . S
C481 C482 1.379 . S
C481 H498 0.930 . S
C482 C480 1.395 . S
C482 C481 1.379 . S
C482 H499 0.930 . S
C483 O466 1.264 . S
C483 O467 1.254 . S
C484 Eu420 2.848 . S
C484 O464 1.257 . S
C484 O469 1.249 . S
C484 C477 1.492 . S
C485 H450 0.931 . S
C485 C463 1.420 . S
C485 C486 1.351 . S
C486 H448 0.930 . S
C486 C454 1.423 . S
C486 C485 1.351 . S
C487 O471 1.276 . S
C487 O474 1.235 . S
C488 C489 1.393 . S
C488 C492 1.395 . S
C488 C495 1.492 . S
C489 C488 1.393 . S
C489 C490 1.392 . S
C489 H500 0.930 . S
C490 C489 1.392 . S
C490 C491 1.386 . S
C491 C490 1.386 . S
C491 C493 1.395 . S
C491 H501 0.930 . S
C492 C488 1.395 . S
C492 C493 1.379 . S
C492 H502 0.930 . S
C493 C491 1.395 . S
C493 C492 1.379 . S
C493 H503 0.930 . S
C494 O472 1.264 . S
C494 O473 1.254 . S
C495 Eu431 2.848 . S
C495 O470 1.257 . S
C495 O475 1.249 . S
C495 C488 1.492 . S
H496 C479 0.930 . S
H497 C480 0.930 . S
H498 C481 0.930 . S
H499 C482 0.930 . S
H500 C489 0.930 . S
H501 C491 0.930 . S
H502 C492 0.930 . S
H503 C493 0.930 . S
Eu504 N535 2.657 . S
Eu504 N542 2.609 . S
Eu504 O548 2.558 . S
Eu504 O549 2.612 . S
Eu504 O551 2.339 . S
Eu504 O552 2.563 . S
Eu504 O553 2.419 . S
Eu504 O555 2.380 . S
Eu504 O556 2.432 . S
Eu504 C568 2.848 . S
C505 C508 1.429 . S
C505 C509 1.411 . S
C505 N512 1.377 . S
C506 C508 1.420 . S
C506 C510 1.423 . S
C506 C518 1.392 . S
C507 C509 1.420 . S
C507 C510 1.351 . S
C507 H530 0.931 . S
C508 C505 1.429 . S
C508 C506 1.420 . S
C508 N516 1.362 . S
C509 C505 1.411 . S
C509 C507 1.420 . S
C509 C514 1.395 . S
C510 C506 1.423 . S
C510 C507 1.351 . S
C510 H522 0.930 . S
C511 C513 1.400 . S
C511 C514 1.386 . S
C511 H523 0.930 . S
N512 C505 1.377 . S
N512 C513 1.321 . S
N512 Eu515 2.609 . S
C513 C511 1.400 . S
C513 N512 1.321 . S
C513 H520 0.930 . S
C514 C509 1.395 . S
C514 C511 1.386 . S
C514 H533 0.930 . S
Eu515 N512 2.609 . S
Eu515 N516 2.657 . S
Eu515 O549 2.380 . S
Eu515 O550 2.432 . S
Eu515 O554 2.558 . S
Eu515 O555 2.612 . S
Eu515 O557 2.339 . S
Eu515 O558 2.563 . S
Eu515 O559 2.419 . S
Eu515 C579 2.848 . S
N516 C508 1.362 . S
N516 Eu515 2.657 . S
N516 C517 1.334 . S
C517 N516 1.334 . S
C517 C519 1.413 . S
C517 H524 0.929 . S
C518 C506 1.392 . S
C518 C519 1.367 . S
C518 H526 0.930 . S
C519 C517 1.413 . S
C519 C518 1.367 . S
C519 H521 0.930 . S
H520 C513 0.930 . S
H521 C519 0.930 . S
H522 C510 0.930 . S
H523 C511 0.930 . S
H524 C517 0.929 . S
H525 C539 0.930 . S
H526 C518 0.930 . S
H527 C545 0.930 . S
H528 C536 0.929 . S
H529 C543 0.930 . S
H530 C507 0.931 . S
H531 C537 0.930 . S
H532 C570 0.930 . S
H533 C514 0.930 . S
H534 C569 0.931 . S
N535 Eu504 2.657 . S
N535 C536 1.334 . S
N535 C540 1.362 . S
C536 H528 0.929 . S
C536 N535 1.334 . S
C536 C539 1.413 . S
C537 H531 0.930 . S
C537 C538 1.392 . S
C537 C539 1.367 . S
C538 C537 1.392 . S
C538 C540 1.420 . S
C538 C570 1.423 . S
C539 H525 0.930 . S
C539 C536 1.413 . S
C539 C537 1.367 . S
C540 N535 1.362 . S
C540 C538 1.420 . S
C540 C544 1.429 . S
H541 C546 0.930 . S
N542 Eu504 2.609 . S
N542 C544 1.377 . S
N542 C545 1.321 . S
C543 H529 0.930 . S
C543 C545 1.400 . S
C543 C546 1.386 . S
C544 C540 1.429 . S
C544 N542 1.377 . S
C544 C547 1.411 . S
C545 H527 0.930 . S
C545 N542 1.321 . S
C545 C543 1.400 . S
C546 H541 0.930 . S
C546 C543 1.386 . S
C546 C547 1.395 . S
C547 C544 1.411 . S
C547 C546 1.395 . S
C547 C569 1.420 . S
O548 Eu504 2.558 . S
O548 C568 1.257 . S
O549 Eu504 2.612 . S
O549 Eu515 2.380 . S
O549 C560 1.276 . S
O550 Eu515 2.432 . S
O550 C567 1.264 . S
O551 Eu504 2.339 . S
O551 C567 1.254 . S
O552 Eu504 2.563 . S
O552 C560 1.235 . S
O553 Eu504 2.419 . S
O553 C568 1.249 . S
O554 Eu515 2.558 . S
O554 C579 1.257 . S
O555 Eu504 2.380 . S
O555 Eu515 2.612 . S
O555 C571 1.276 . S
O556 Eu504 2.432 . S
O556 C578 1.264 . S
O557 Eu515 2.339 . S
O557 C578 1.254 . S
O558 Eu515 2.563 . S
O558 C571 1.235 . S
O559 Eu515 2.419 . S
O559 C579 1.249 . S
C560 O549 1.276 . S
C560 O552 1.235 . S
C561 C563 1.393 . S
C561 C565 1.395 . S
C561 C568 1.492 . S
C562 C563 1.392 . S
C562 C564 1.386 . S
C563 C561 1.393 . S
C563 C562 1.392 . S
C563 H580 0.930 . S
C564 C562 1.386 . S
C564 C566 1.395 . S
C564 H581 0.930 . S
C565 C561 1.395 . S
C565 C566 1.379 . S
C565 H582 0.930 . S
C566 C564 1.395 . S
C566 C565 1.379 . S
C566 H583 0.930 . S
C567 O550 1.264 . S
C567 O551 1.254 . S
C568 Eu504 2.848 . S
C568 O548 1.257 . S
C568 O553 1.249 . S
C568 C561 1.492 . S
C569 H534 0.931 . S
C569 C547 1.420 . S
C569 C570 1.351 . S
C570 H532 0.930 . S
C570 C538 1.423 . S
C570 C569 1.351 . S
C571 O555 1.276 . S
C571 O558 1.235 . S
C572 C573 1.393 . S
C572 C576 1.395 . S
C572 C579 1.492 . S
C573 C572 1.393 . S
C573 C574 1.392 . S
C573 H584 0.930 . S
C574 C573 1.392 . S
C574 C575 1.386 . S
C575 C574 1.386 . S
C575 C577 1.395 . S
C575 H585 0.930 . S
C576 C572 1.395 . S
C576 C577 1.379 . S
C576 H586 0.930 . S
C577 C575 1.395 . S
C577 C576 1.379 . S
C577 H587 0.930 . S
C578 O556 1.264 . S
C578 O557 1.254 . S
C579 Eu515 2.848 . S
C579 O554 1.257 . S
C579 O559 1.249 . S
C579 C572 1.492 . S
H580 C563 0.930 . S
H581 C564 0.930 . S
H582 C565 0.930 . S
H583 C566 0.930 . S
H584 C573 0.930 . S
H585 C575 0.930 . S
H586 C576 0.930 . S
H587 C577 0.930 . S
Eu588 N619 2.657 1_556 S
Eu588 N626 2.609 1_556 S
Eu588 O632 2.558 1_556 S
Eu588 O633 2.612 . S
Eu588 O635 2.339 1_556 S
Eu588 O636 2.563 . S
Eu588 O637 2.419 1_556 S
Eu588 O639 2.380 . S
Eu588 O640 2.432 . S
Eu588 C652 2.848 1_556 S
C589 C592 1.429 . S
C589 C593 1.411 . S
C589 N596 1.377 . S
C590 C592 1.420 . S
C590 C594 1.423 . S
C590 C602 1.392 . S
C591 C593 1.420 . S
C591 C594 1.351 . S
C591 H614 0.931 . S
C592 C589 1.429 . S
C592 C590 1.420 . S
C592 N600 1.362 . S
C593 C589 1.411 . S
C593 C591 1.420 . S
C593 C598 1.395 . S
C594 C590 1.423 . S
C594 C591 1.351 . S
C594 H606 0.930 . S
C595 C597 1.400 . S
C595 C598 1.386 . S
C595 H607 0.930 . S
N596 C589 1.377 . S
N596 C597 1.321 . S
N596 Eu599 2.609 . S
C597 C595 1.400 . S
C597 N596 1.321 . S
C597 H604 0.930 . S
C598 C593 1.395 . S
C598 C595 1.386 . S
C598 H617 0.930 . S
Eu599 N596 2.609 . S
Eu599 N600 2.657 . S
Eu599 O633 2.380 . S
Eu599 O634 2.432 . S
Eu599 O638 2.558 . S
Eu599 O639 2.612 . S
Eu599 O641 2.339 . S
Eu599 O642 2.563 . S
Eu599 O643 2.419 . S
Eu599 C663 2.848 . S
N600 C592 1.362 . S
N600 Eu599 2.657 . S
N600 C601 1.334 . S
C601 N600 1.334 . S
C601 C603 1.413 . S
C601 H608 0.929 . S
C602 C590 1.392 . S
C602 C603 1.367 . S
C602 H610 0.930 . S
C603 C601 1.413 . S
C603 C602 1.367 . S
C603 H605 0.930 . S
H604 C597 0.930 . S
H605 C603 0.930 . S
H606 C594 0.930 . S
H607 C595 0.930 . S
H608 C601 0.929 . S
H609 C623 0.930 . S
H610 C602 0.930 . S
H611 C629 0.930 . S
H612 C620 0.929 . S
H613 C627 0.912 1_556 S
H614 C591 0.931 . S
H615 C621 0.930 . S
H616 C654 0.930 . S
H617 C598 0.930 . S
H618 C653 0.931 . S
N619 Eu588 2.657 1_554 S
N619 C620 1.334 . S
N619 C624 1.362 . S
C620 H612 0.929 . S
C620 N619 1.334 . S
C620 C623 1.413 . S
C621 H615 0.930 . S
C621 C622 1.392 . S
C621 C623 1.367 . S
C622 C621 1.392 . S
C622 C624 1.420 . S
C622 C654 1.423 . S
C623 H609 0.930 . S
C623 C620 1.413 . S
C623 C621 1.367 . S
C624 N619 1.362 . S
C624 C622 1.420 . S
C624 C628 1.429 . S
H625 C630 0.930 . S
N626 Eu588 2.609 1_554 S
N626 C628 1.377 . S
N626 C629 1.321 1_554 S
C627 H613 0.912 1_554 S
C627 C629 1.388 1_554 S
C627 C630 1.416 . S
C628 C624 1.429 . S
C628 N626 1.377 . S
C628 C631 1.411 . S
C629 H611 0.930 . S
C629 N626 1.321 1_556 S
C629 C627 1.388 1_556 S
C630 H625 0.930 . S
C630 C627 1.416 . S
C630 C631 1.395 . S
C631 C628 1.411 . S
C631 C630 1.395 . S
C631 C653 1.420 . S
O632 Eu588 2.558 1_554 S
O632 C652 1.257 . S
O633 Eu588 2.612 . S
O633 Eu599 2.380 . S
O633 C644 1.276 . S
O634 Eu599 2.432 . S
O634 C651 1.264 . S
O635 Eu588 2.339 1_554 S
O635 C651 1.254 1_554 S
O636 Eu588 2.563 . S
O636 C644 1.235 . S
O637 Eu588 2.419 1_554 S
O637 C652 1.249 . S
O638 Eu599 2.558 . S
O638 C663 1.257 . S
O639 Eu588 2.380 . S
O639 Eu599 2.612 . S
O639 C655 1.276 . S
O640 Eu588 2.432 . S
O640 C662 1.264 . S
O641 Eu599 2.339 . S
O641 C662 1.254 . S
O642 Eu599 2.563 . S
O642 C655 1.235 . S
O643 Eu599 2.419 . S
O643 C663 1.249 . S
C644 O633 1.276 . S
C644 O636 1.235 . S
C645 C647 1.393 . S
C645 C649 1.395 . S
C645 C652 1.492 . S
C646 C647 1.392 . S
C646 C648 1.386 . S
C647 C645 1.393 . S
C647 C646 1.392 . S
C647 H664 0.930 . S
C648 C646 1.386 . S
C648 C650 1.395 . S
C648 H665 0.930 . S
C649 C645 1.395 . S
C649 C650 1.379 . S
C649 H666 0.930 . S
C650 C648 1.395 . S
C650 C649 1.379 . S
C650 H667 0.930 . S
C651 O634 1.264 . S
C651 O635 1.254 1_556 S
C652 Eu588 2.848 1_554 S
C652 O632 1.257 . S
C652 O637 1.249 . S
C652 C645 1.492 . S
C653 H618 0.931 . S
C653 C631 1.420 . S
C653 C654 1.351 . S
C654 H616 0.930 . S
C654 C622 1.423 . S
C654 C653 1.351 . S
C655 O639 1.276 . S
C655 O642 1.235 . S
C656 C657 1.393 . S
C656 C660 1.395 . S
C656 C663 1.492 . S
C657 C656 1.393 . S
C657 C658 1.392 . S
C657 H668 0.930 . S
C658 C657 1.392 . S
C658 C659 1.386 . S
C659 C658 1.386 . S
C659 C661 1.395 . S
C659 H669 0.930 . S
C660 C656 1.395 . S
C660 C661 1.379 . S
C660 H670 0.930 . S
C661 C659 1.395 . S
C661 C660 1.379 . S
C661 H671 0.930 . S
C662 O640 1.264 . S
C662 O641 1.254 . S
C663 Eu599 2.848 . S
C663 O638 1.257 . S
C663 O643 1.249 . S
C663 C656 1.492 . S
H664 C647 0.930 . S
H665 C648 0.930 . S
H666 C649 0.930 . S
H667 C650 0.930 . S
H668 C657 0.930 . S
H669 C659 0.930 . S
H670 C660 0.930 . S
H671 C661 0.930 . S
Eu672 N703 2.657 1_545 S
Eu672 N710 2.609 1_545 S
Eu672 O716 2.558 1_545 S
Eu672 O717 2.612 . S
Eu672 O719 2.327 1_545 S
Eu672 O720 2.563 . S
Eu672 O721 2.419 1_545 S
Eu672 O723 2.380 . S
Eu672 O724 2.432 . S
Eu672 C736 2.848 1_545 S
C673 C676 1.429 . S
C673 C677 1.411 . S
C673 N680 1.377 . S
C674 C676 1.420 . S
C674 C678 1.423 . S
C674 C686 1.392 . S
C675 C677 1.420 . S
C675 C678 1.351 . S
C675 H698 0.931 . S
C676 C673 1.429 . S
C676 C674 1.420 . S
C676 N684 1.362 . S
C677 C673 1.411 . S
C677 C675 1.420 . S
C677 C682 1.395 . S
C678 C674 1.423 . S
C678 C675 1.351 . S
C678 H690 0.930 . S
C679 C681 1.400 . S
C679 C682 1.386 . S
C679 H691 0.930 . S
N680 C673 1.377 . S
N680 C681 1.321 . S
N680 Eu683 2.609 . S
C681 C679 1.400 . S
C681 N680 1.321 . S
C681 H688 0.930 . S
C682 C677 1.395 . S
C682 C679 1.386 . S
C682 H701 0.930 . S
Eu683 N680 2.609 . S
Eu683 N684 2.657 . S
Eu683 O717 2.380 . S
Eu683 O718 2.432 . S
Eu683 O722 2.558 . S
Eu683 O723 2.612 . S
Eu683 O725 2.339 . S
Eu683 O726 2.563 . S
Eu683 O727 2.419 . S
Eu683 C747 2.848 . S
N684 C676 1.362 . S
N684 Eu683 2.657 . S
N684 C685 1.334 . S
C685 N684 1.334 . S
C685 C687 1.413 . S
C685 H692 0.929 . S
C686 C674 1.392 . S
C686 C687 1.367 . S
C686 H694 0.930 . S
C687 C685 1.413 . S
C687 C686 1.367 . S
C687 H689 0.930 . S
H688 C681 0.930 . S
H689 C687 0.930 . S
H690 C678 0.930 . S
H691 C679 0.930 . S
H692 C685 0.929 . S
H693 C707 0.930 . S
H694 C686 0.930 . S
H695 C713 0.930 . S
H696 C704 0.929 . S
H697 C711 0.918 1_545 S
H698 C675 0.931 . S
H699 C705 0.930 . S
H700 C738 0.930 . S
H701 C682 0.930 . S
H702 C737 0.931 . S
N703 Eu672 2.657 1_565 S
N703 C704 1.334 . S
N703 C708 1.362 . S
C704 H696 0.929 . S
C704 N703 1.334 . S
C704 C707 1.413 . S
C705 H699 0.930 . S
C705 C706 1.392 . S
C705 C707 1.367 . S
C706 C705 1.392 . S
C706 C708 1.420 . S
C706 C738 1.423 . S
C707 H693 0.930 . S
C707 C704 1.413 . S
C707 C705 1.367 . S
C708 N703 1.362 . S
C708 C706 1.420 . S
C708 C712 1.429 . S
H709 C714 0.930 . S
N710 Eu672 2.609 1_565 S
N710 C712 1.377 . S
N710 C713 1.321 1_565 S
C711 H697 0.918 1_565 S
C711 C713 1.392 1_565 S
C711 C714 1.406 . S
C712 C708 1.429 . S
C712 N710 1.377 . S
C712 C715 1.411 . S
C713 H695 0.930 . S
C713 N710 1.321 1_545 S
C713 C711 1.392 1_545 S
C714 H709 0.930 . S
C714 C711 1.406 . S
C714 C715 1.395 . S
C715 C712 1.411 . S
C715 C714 1.395 . S
C715 C737 1.420 . S
O716 Eu672 2.558 1_565 S
O716 C736 1.257 . S
O717 Eu672 2.612 . S
O717 Eu683 2.380 . S
O717 C728 1.276 . S
O718 Eu683 2.432 . S
O718 C735 1.264 . S
O719 Eu672 2.327 1_565 S
O719 C735 1.240 1_565 S
O720 Eu672 2.563 . S
O720 C728 1.235 . S
O721 Eu672 2.419 1_565 S
O721 C736 1.249 . S
O722 Eu683 2.558 . S
O722 C747 1.257 . S
O723 Eu672 2.380 . S
O723 Eu683 2.612 . S
O723 C739 1.276 . S
O724 Eu672 2.432 . S
O724 C746 1.264 . S
O725 Eu683 2.339 . S
O725 C746 1.254 . S
O726 Eu683 2.563 . S
O726 C739 1.235 . S
O727 Eu683 2.419 . S
O727 C747 1.249 . S
C728 O717 1.276 . S
C728 O720 1.235 . S
C729 C731 1.393 . S
C729 C733 1.395 . S
C729 C736 1.492 . S
C730 C731 1.392 . S
C730 C732 1.386 . S
C731 C729 1.393 . S
C731 C730 1.392 . S
C731 H748 0.930 . S
C732 C730 1.386 . S
C732 C734 1.395 . S
C732 H749 0.930 . S
C733 C729 1.395 . S
C733 C734 1.379 . S
C733 H750 0.930 . S
C734 C732 1.395 . S
C734 C733 1.379 . S
C734 H751 0.930 . S
C735 O718 1.264 . S
C735 O719 1.240 1_545 S
C736 Eu672 2.848 1_565 S
C736 O716 1.257 . S
C736 O721 1.249 . S
C736 C729 1.492 . S
C737 H702 0.931 . S
C737 C715 1.420 . S
C737 C738 1.351 . S
C738 H700 0.930 . S
C738 C706 1.423 . S
C738 C737 1.351 . S
C739 O723 1.276 . S
C739 O726 1.235 . S
C740 C741 1.393 . S
C740 C744 1.395 . S
C740 C747 1.492 . S
C741 C740 1.393 . S
C741 C742 1.392 . S
C741 H752 0.930 . S
C742 C741 1.392 . S
C742 C743 1.386 . S
C743 C742 1.386 . S
C743 C745 1.395 . S
C743 H753 0.930 . S
C744 C740 1.395 . S
C744 C745 1.379 . S
C744 H754 0.930 . S
C745 C743 1.395 . S
C745 C744 1.379 . S
C745 H755 0.930 . S
C746 O724 1.264 . S
C746 O725 1.254 . S
C747 Eu683 2.848 . S
C747 O722 1.257 . S
C747 O727 1.249 . S
C747 C740 1.492 . S
H748 C731 0.930 . S
H749 C732 0.930 . S
H750 C733 0.930 . S
H751 C734 0.930 . S
H752 C741 0.930 . S
H753 C743 0.930 . S
H754 C744 0.930 . S
H755 C745 0.930 . S
Eu756 N787 2.657 . S
Eu756 N794 2.609 . S
Eu756 O800 2.558 . S
Eu756 O801 2.612 . S
Eu756 O803 2.339 . S
Eu756 O804 2.563 . S
Eu756 O805 2.419 . S
Eu756 O807 2.380 . S
Eu756 O808 2.432 . S
Eu756 C820 2.848 . S
C757 C760 1.429 . S
C757 C761 1.403 1_545 S
C757 N764 1.377 1_545 S
C758 C760 1.420 . S
C758 C762 1.423 . S
C758 C770 1.392 . S
C759 C761 1.407 1_545 S
C759 C762 1.351 . S
C759 H782 0.931 . S
C760 C757 1.429 . S
C760 C758 1.420 . S
C760 N768 1.362 . S
C761 C757 1.403 1_565 S
C761 C759 1.407 1_565 S
C761 C766 1.416 . S
C762 C758 1.423 . S
C762 C759 1.351 . S
C762 H774 0.930 . S
C763 C765 1.400 . S
C763 C766 1.386 . S
C763 H775 0.930 . S
N764 C757 1.377 1_565 S
N764 C765 1.321 . S
N764 Eu767 2.609 1_565 S
C765 C763 1.400 . S
C765 N764 1.321 . S
C765 H772 0.930 . S
C766 C761 1.416 . S
C766 C763 1.386 . S
C766 H785 0.930 . S
Eu767 N764 2.609 1_545 S
Eu767 N768 2.657 . S
Eu767 O801 2.380 . S
Eu767 O802 2.432 . S
Eu767 O806 2.558 1_545 S
Eu767 O807 2.612 . S
Eu767 O809 2.339 . S
Eu767 O810 2.563 1_545 S
Eu767 O811 2.419 1_545 S
Eu767 C831 2.848 1_545 S
N768 C760 1.362 . S
N768 Eu767 2.657 . S
N768 C769 1.334 . S
C769 N768 1.334 . S
C769 C771 1.413 . S
C769 H776 0.929 . S
C770 C758 1.392 . S
C770 C771 1.367 . S
C770 H778 0.930 . S
C771 C769 1.413 . S
C771 C770 1.367 . S
C771 H773 0.930 . S
H772 C765 0.930 . S
H773 C771 0.930 . S
H774 C762 0.930 . S
H775 C763 0.930 . S
H776 C769 0.929 . S
H777 C791 0.930 1_565 S
H778 C770 0.930 . S
H779 C797 0.930 . S
H780 C788 0.929 . S
H781 C795 0.930 . S
H782 C759 0.931 . S
H783 C789 0.930 . S
H784 C822 0.930 . S
H785 C766 0.930 . S
H786 C821 0.931 . S
N787 Eu756 2.657 . S
N787 C788 1.334 . S
N787 C792 1.362 . S
C788 H780 0.929 . S
C788 N787 1.334 . S
C788 C791 1.413 . S
C789 H783 0.930 . S
C789 C790 1.392 . S
C789 C791 1.367 . S
C790 C789 1.392 . S
C790 C792 1.420 . S
C790 C822 1.423 . S
C791 H777 0.930 1_545 S
C791 C788 1.413 . S
C791 C789 1.367 . S
C792 N787 1.362 . S
C792 C790 1.420 . S
C792 C796 1.429 . S
H793 C798 0.930 . S
N794 Eu756 2.609 . S
N794 C796 1.377 . S
N794 C797 1.321 . S
C795 H781 0.930 . S
C795 C797 1.400 . S
C795 C798 1.386 . S
C796 C792 1.429 . S
C796 N794 1.377 . S
C796 C799 1.411 . S
C797 H779 0.930 . S
C797 N794 1.321 . S
C797 C795 1.400 . S
C798 H793 0.930 . S
C798 C795 1.386 . S
C798 C799 1.395 . S
C799 C796 1.411 . S
C799 C798 1.395 . S
C799 C821 1.420 . S
O800 Eu756 2.558 . S
O800 C820 1.257 . S
O801 Eu756 2.612 . S
O801 Eu767 2.380 . S
O801 C812 1.276 . S
O802 Eu767 2.432 . S
O802 C819 1.264 . S
O803 Eu756 2.339 . S
O803 C819 1.254 . S
O804 Eu756 2.563 . S
O804 C812 1.235 . S
O805 Eu756 2.419 . S
O805 C820 1.249 . S
O806 Eu767 2.558 1_565 S
O806 C831 1.257 . S
O807 Eu756 2.380 . S
O807 Eu767 2.612 . S
O807 C823 1.276 . S
O808 Eu756 2.432 . S
O808 C830 1.264 . S
O809 Eu767 2.339 . S
O809 C830 1.254 . S
O810 Eu767 2.563 1_565 S
O810 C823 1.235 1_565 S
O811 Eu767 2.419 1_565 S
O811 C831 1.249 . S
C812 O801 1.276 . S
C812 O804 1.235 . S
C813 C815 1.393 . S
C813 C817 1.395 . S
C813 C820 1.492 . S
C814 C815 1.392 . S
C814 C816 1.386 . S
C815 C813 1.393 . S
C815 C814 1.392 . S
C815 H832 0.930 . S
C816 C814 1.386 . S
C816 C818 1.395 . S
C816 H833 0.930 . S
C817 C813 1.395 . S
C817 C818 1.379 . S
C817 H834 0.930 . S
C818 C816 1.395 . S
C818 C817 1.379 . S
C818 H835 0.930 . S
C819 O802 1.264 . S
C819 O803 1.254 . S
C820 Eu756 2.848 . S
C820 O800 1.257 . S
C820 O805 1.249 . S
C820 C813 1.492 . S
C821 H786 0.931 . S
C821 C799 1.420 . S
C821 C822 1.351 . S
C822 H784 0.930 . S
C822 C790 1.423 . S
C822 C821 1.351 . S
C823 O807 1.276 . S
C823 O810 1.235 1_545 S
C824 C825 1.393 . S
C824 C828 1.395 . S
C824 C831 1.492 . S
C825 C824 1.393 . S
C825 C826 1.392 . S
C825 H836 0.930 . S
C826 C825 1.392 . S
C826 C827 1.386 . S
C827 C826 1.386 . S
C827 C829 1.395 . S
C827 H837 0.930 . S
C828 C824 1.395 . S
C828 C829 1.379 . S
C828 H838 0.930 . S
C829 C827 1.395 . S
C829 C828 1.379 . S
C829 H839 0.930 . S
C830 O808 1.264 . S
C830 O809 1.254 . S
C831 Eu767 2.848 1_565 S
C831 O806 1.257 . S
C831 O811 1.249 . S
C831 C824 1.492 . S
H832 C815 0.930 . S
H833 C816 0.930 . S
H834 C817 0.930 . S
H835 C818 0.930 . S
H836 C825 0.930 . S
H837 C827 0.930 . S
H838 C828 0.930 . S
H839 C829 0.930 . S
Eu840 N871 2.657 1_565 S
Eu840 N878 2.609 1_565 S
Eu840 O884 2.558 1_565 S
Eu840 O885 2.612 . S
Eu840 O887 2.339 1_565 S
Eu840 O888 2.563 . S
Eu840 O889 2.419 1_565 S
Eu840 O891 2.380 . S
Eu840 O892 2.432 . S
Eu840 C904 2.848 1_565 S
C841 C844 1.429 . S
C841 C845 1.411 . S
C841 N848 1.377 . S
C842 C844 1.420 . S
C842 C846 1.423 . S
C842 C854 1.392 . S
C843 C845 1.420 . S
C843 C846 1.351 . S
C843 H866 0.931 . S
C844 C841 1.429 . S
C844 C842 1.420 . S
C844 N852 1.362 . S
C845 C841 1.411 . S
C845 C843 1.420 . S
C845 C850 1.395 . S
C846 C842 1.423 . S
C846 C843 1.351 . S
C846 H858 0.930 . S
C847 C849 1.400 . S
C847 C850 1.386 . S
C847 H859 0.930 . S
N848 C841 1.377 . S
N848 C849 1.321 . S
N848 Eu851 2.609 . S
C849 C847 1.400 . S
C849 N848 1.321 . S
C849 H856 0.930 . S
C850 C845 1.395 . S
C850 C847 1.386 . S
C850 H869 0.930 . S
Eu851 N848 2.609 . S
Eu851 N852 2.657 . S
Eu851 O885 2.380 . S
Eu851 O886 2.432 . S
Eu851 O890 2.558 . S
Eu851 O891 2.612 . S
Eu851 O893 2.339 . S
Eu851 O894 2.563 . S
Eu851 O895 2.419 . S
Eu851 C915 2.848 . S
N852 C844 1.362 . S
N852 Eu851 2.657 . S
N852 C853 1.334 . S
C853 N852 1.334 . S
C853 C855 1.413 . S
C853 H860 0.929 . S
C854 C842 1.392 . S
C854 C855 1.367 . S
C854 H862 0.930 . S
C855 C853 1.413 . S
C855 C854 1.367 . S
C855 H857 0.930 . S
H856 C849 0.930 . S
H857 C855 0.930 . S
H858 C846 0.930 . S
H859 C847 0.930 . S
H860 C853 0.929 . S
H861 C875 0.930 . S
H862 C854 0.930 . S
H863 C881 0.930 . S
H864 C872 0.929 . S
H865 C879 0.915 1_565 S
H866 C843 0.931 . S
H867 C873 0.930 . S
H868 C906 0.930 . S
H869 C850 0.930 . S
H870 C905 0.931 . S
N871 Eu840 2.657 1_545 S
N871 C872 1.334 . S
N871 C876 1.362 . S
C872 H864 0.929 . S
C872 N871 1.334 . S
C872 C875 1.413 . S
C873 H867 0.930 . S
C873 C874 1.392 . S
C873 C875 1.367 . S
C874 C873 1.392 . S
C874 C876 1.420 . S
C874 C906 1.423 . S
C875 H861 0.930 . S
C875 C872 1.413 . S
C875 C873 1.367 . S
C876 N871 1.362 . S
C876 C874 1.420 . S
C876 C880 1.429 . S
H877 C882 0.930 . S
N878 Eu840 2.609 1_545 S
N878 C880 1.377 . S
N878 C881 1.321 1_545 S
C879 H865 0.915 1_545 S
C879 C881 1.390 1_545 S
C879 C882 1.410 . S
C880 C876 1.429 . S
C880 N878 1.377 . S
C880 C883 1.411 . S
C881 H863 0.930 . S
C881 N878 1.321 1_565 S
C881 C879 1.390 1_565 S
C882 H877 0.930 . S
C882 C879 1.410 . S
C882 C883 1.395 . S
C883 C880 1.411 . S
C883 C882 1.395 . S
C883 C905 1.420 . S
O884 Eu840 2.558 1_545 S
O884 C904 1.257 . S
O885 Eu840 2.612 . S
O885 Eu851 2.380 . S
O885 C896 1.276 . S
O886 Eu851 2.432 . S
O886 C903 1.264 . S
O887 Eu840 2.339 1_545 S
O887 C903 1.254 1_545 S
O888 Eu840 2.563 . S
O888 C896 1.235 . S
O889 Eu840 2.419 1_545 S
O889 C904 1.249 . S
O890 Eu851 2.558 . S
O890 C915 1.257 . S
O891 Eu840 2.380 . S
O891 Eu851 2.612 . S
O891 C907 1.276 . S
O892 Eu840 2.432 . S
O892 C914 1.264 . S
O893 Eu851 2.339 . S
O893 C914 1.254 . S
O894 Eu851 2.563 . S
O894 C907 1.235 . S
O895 Eu851 2.419 . S
O895 C915 1.249 . S
C896 O885 1.276 . S
C896 O888 1.235 . S
C897 C899 1.393 . S
C897 C901 1.395 . S
C897 C904 1.492 . S
C898 C899 1.392 . S
C898 C900 1.386 . S
C899 C897 1.393 . S
C899 C898 1.392 . S
C899 H916 0.930 . S
C900 C898 1.386 . S
C900 C902 1.395 . S
C900 H917 0.930 . S
C901 C897 1.395 . S
C901 C902 1.379 . S
C901 H918 0.930 . S
C902 C900 1.395 . S
C902 C901 1.379 . S
C902 H919 0.930 . S
C903 O886 1.264 . S
C903 O887 1.254 1_565 S
C904 Eu840 2.848 1_545 S
C904 O884 1.257 . S
C904 O889 1.249 . S
C904 C897 1.492 . S
C905 H870 0.931 . S
C905 C883 1.420 . S
C905 C906 1.351 . S
C906 H868 0.930 . S
C906 C874 1.423 . S
C906 C905 1.351 . S
C907 O891 1.276 . S
C907 O894 1.235 . S
C908 C909 1.393 . S
C908 C912 1.395 . S
C908 C915 1.492 . S
C909 C908 1.393 . S
C909 C910 1.392 . S
C909 H920 0.930 . S
C910 C909 1.392 . S
C910 C911 1.386 . S
C911 C910 1.386 . S
C911 C913 1.395 . S
C911 H921 0.930 . S
C912 C908 1.395 . S
C912 C913 1.379 . S
C912 H922 0.930 . S
C913 C911 1.395 . S
C913 C912 1.379 . S
C913 H923 0.930 . S
C914 O892 1.264 . S
C914 O893 1.254 . S
C915 Eu851 2.848 . S
C915 O890 1.257 . S
C915 O895 1.249 . S
C915 C908 1.492 . S
H916 C899 0.930 . S
H917 C900 0.930 . S
H918 C901 0.930 . S
H919 C902 0.930 . S
H920 C909 0.930 . S
H921 C911 0.930 . S
H922 C912 0.930 . S
H923 C913 0.930 . S
Eu924 N955 2.657 . S
Eu924 N962 2.609 . S
Eu924 O968 2.558 . S
Eu924 O969 2.612 . S
Eu924 O971 2.339 . S
Eu924 O972 2.563 . S
Eu924 O973 2.419 . S
Eu924 O975 2.380 . S
Eu924 O976 2.432 . S
Eu924 C988 2.848 . S
C925 C928 1.429 . S
C925 C929 1.398 1_565 S
C925 N932 1.377 1_565 S
C926 C928 1.420 . S
C926 C930 1.423 . S
C926 C938 1.392 . S
C927 C929 1.400 1_565 S
C927 C930 1.351 . S
C927 H950 0.931 . S
C928 C925 1.429 . S
C928 C926 1.420 . S
C928 N936 1.362 . S
C929 C925 1.398 1_545 S
C929 C927 1.400 1_545 S
C929 C934 1.428 . S
C930 C926 1.423 . S
C930 C927 1.351 . S
C930 H942 0.930 . S
C931 C933 1.400 . S
C931 C934 1.386 . S
C931 H943 0.930 . S
N932 C925 1.377 1_545 S
N932 C933 1.321 . S
N932 Eu935 2.609 1_545 S
C933 C931 1.400 . S
C933 N932 1.321 . S
C933 H940 0.930 . S
C934 C929 1.428 . S
C934 C931 1.386 . S
C934 H953 0.930 . S
Eu935 N932 2.609 1_565 S
Eu935 N936 2.657 . S
Eu935 O969 2.380 . S
Eu935 O970 2.432 . S
Eu935 O974 2.558 1_565 S
Eu935 O975 2.612 . S
Eu935 O977 2.339 . S
Eu935 O978 2.563 1_565 S
Eu935 O979 2.419 1_565 S
Eu935 C999 2.848 1_565 S
N936 C928 1.362 . S
N936 Eu935 2.657 . S
N936 C937 1.334 . S
C937 N936 1.334 . S
C937 C939 1.413 . S
C937 H944 0.929 . S
C938 C926 1.392 . S
C938 C939 1.367 . S
C938 H946 0.930 . S
C939 C937 1.413 . S
C939 C938 1.367 . S
C939 H941 0.930 . S
H940 C933 0.930 . S
H941 C939 0.930 . S
H942 C930 0.930 . S
H943 C931 0.930 . S
H944 C937 0.929 . S
H945 C959 0.930 1_545 S
H946 C938 0.930 . S
H947 C965 0.930 . S
H948 C956 0.929 . S
H949 C963 0.930 . S
H950 C927 0.931 . S
H951 C957 0.930 . S
H952 C990 0.930 . S
H953 C934 0.930 . S
H954 C989 0.931 . S
N955 Eu924 2.657 . S
N955 C956 1.334 . S
N955 C960 1.362 . S
C956 H948 0.929 . S
C956 N955 1.334 . S
C956 C959 1.413 . S
C957 H951 0.930 . S
C957 C958 1.392 . S
C957 C959 1.367 . S
C958 C957 1.392 . S
C958 C960 1.420 . S
C958 C990 1.423 . S
C959 H945 0.930 1_565 S
C959 C956 1.413 . S
C959 C957 1.367 . S
C960 N955 1.362 . S
C960 C958 1.420 . S
C960 C964 1.429 . S
H961 C966 0.930 . S
N962 Eu924 2.609 . S
N962 C964 1.377 . S
N962 C965 1.321 . S
C963 H949 0.930 . S
C963 C965 1.400 . S
C963 C966 1.386 . S
C964 C960 1.429 . S
C964 N962 1.377 . S
C964 C967 1.411 . S
C965 H947 0.930 . S
C965 N962 1.321 . S
C965 C963 1.400 . S
C966 H961 0.930 . S
C966 C963 1.386 . S
C966 C967 1.395 . S
C967 C964 1.411 . S
C967 C966 1.395 . S
C967 C989 1.420 . S
O968 Eu924 2.558 . S
O968 C988 1.257 . S
O969 Eu924 2.612 . S
O969 Eu935 2.380 . S
O969 C980 1.276 . S
O970 Eu935 2.432 . S
O970 C987 1.264 . S
O971 Eu924 2.339 . S
O971 C987 1.254 . S
O972 Eu924 2.563 . S
O972 C980 1.235 . S
O973 Eu924 2.419 . S
O973 C988 1.249 . S
O974 Eu935 2.558 1_545 S
O974 C999 1.257 . S
O975 Eu924 2.380 . S
O975 Eu935 2.612 . S
O975 C991 1.276 . S
O976 Eu924 2.432 . S
O976 C998 1.264 . S
O977 Eu935 2.339 . S
O977 C998 1.254 . S
O978 Eu935 2.563 1_545 S
O978 C991 1.235 1_545 S
O979 Eu935 2.419 1_545 S
O979 C999 1.249 . S
C980 O969 1.276 . S
C980 O972 1.235 . S
C981 C983 1.393 . S
C981 C985 1.395 . S
C981 C988 1.492 . S
C982 C983 1.392 . S
C982 C984 1.386 . S
C983 C981 1.393 . S
C983 C982 1.392 . S
C983 H1000 0.930 . S
C984 C982 1.386 . S
C984 C986 1.395 . S
C984 H1001 0.930 . S
C985 C981 1.395 . S
C985 C986 1.379 . S
C985 H1002 0.930 . S
C986 C984 1.395 . S
C986 C985 1.379 . S
C986 H1003 0.930 . S
C987 O970 1.264 . S
C987 O971 1.254 . S
C988 Eu924 2.848 . S
C988 O968 1.257 . S
C988 O973 1.249 . S
C988 C981 1.492 . S
C989 H954 0.931 . S
C989 C967 1.420 . S
C989 C990 1.351 . S
C990 H952 0.930 . S
C990 C958 1.423 . S
C990 C989 1.351 . S
C991 O975 1.276 . S
C991 O978 1.235 1_565 S
C992 C993 1.393 . S
C992 C996 1.395 . S
C992 C999 1.492 . S
C993 C992 1.393 . S
C993 C994 1.392 . S
C993 H1004 0.930 . S
C994 C993 1.392 . S
C994 C995 1.386 . S
C995 C994 1.386 . S
C995 C997 1.395 . S
C995 H1005 0.930 . S
C996 C992 1.395 . S
C996 C997 1.379 . S
C996 H1006 0.930 . S
C997 C995 1.395 . S
C997 C996 1.379 . S
C997 H1007 0.930 . S
C998 O976 1.264 . S
C998 O977 1.254 . S
C999 Eu935 2.848 1_545 S
C999 O974 1.257 . S
C999 O979 1.249 . S
C999 C992 1.492 . S
H1000 C983 0.930 . S
H1001 C984 0.930 . S
H1002 C985 0.930 . S
H1003 C986 0.930 . S
H1004 C993 0.930 . S
H1005 C995 0.930 . S
H1006 C996 0.930 . S
H1007 C997 0.930 . S
Eu1008 N1039 2.657 . S
Eu1008 N1046 2.609 . S
Eu1008 O1052 2.558 . S
Eu1008 O1053 2.612 . S
Eu1008 O1055 2.339 . S
Eu1008 O1056 2.563 . S
Eu1008 O1057 2.419 . S
Eu1008 O1059 2.380 . S
Eu1008 O1060 2.432 . S
Eu1008 C1072 2.848 . S
C1009 C1012 1.429 . S
C1009 C1013 1.400 1_554 S
C1009 N1016 1.377 1_554 S
C1010 C1012 1.420 . S
C1010 C1014 1.423 . S
C1010 C1022 1.392 . S
C1011 C1013 1.402 1_554 S
C1011 C1014 1.351 . S
C1011 H1034 0.931 . S
C1012 C1009 1.429 . S
C1012 C1010 1.420 . S
C1012 N1020 1.362 . S
C1013 C1009 1.400 1_556 S
C1013 C1011 1.402 1_556 S
C1013 C1018 1.424 . S
C1014 C1010 1.423 . S
C1014 C1011 1.351 . S
C1014 H1026 0.930 . S
C1015 C1017 1.400 . S
C1015 C1018 1.386 . S
C1015 H1027 0.930 . S
N1016 C1009 1.377 1_556 S
N1016 C1017 1.321 . S
N1016 Eu1019 2.609 1_556 S
C1017 C1015 1.400 . S
C1017 N1016 1.321 . S
C1017 H1024 0.930 . S
C1018 C1013 1.424 . S
C1018 C1015 1.386 . S
C1018 H1037 0.930 . S
Eu1019 N1016 2.609 1_554 S
Eu1019 N1020 2.657 . S
Eu1019 O1053 2.380 . S
Eu1019 O1054 2.432 . S
Eu1019 O1058 2.558 1_554 S
Eu1019 O1059 2.612 . S
Eu1019 O1061 2.339 . S
Eu1019 O1062 2.563 1_554 S
Eu1019 O1063 2.419 1_554 S
Eu1019 C1083 2.848 1_554 S
N1020 C1012 1.362 . S
N1020 Eu1019 2.657 . S
N1020 C1021 1.334 . S
C1021 N1020 1.334 . S
C1021 C1023 1.413 . S
C1021 H1028 0.929 . S
C1022 C1010 1.392 . S
C1022 C1023 1.367 . S
C1022 H1030 0.930 . S
C1023 C1021 1.413 . S
C1023 C1022 1.367 . S
C1023 H1025 0.930 . S
H1024 C1017 0.930 . S
H1025 C1023 0.930 . S
H1026 C1014 0.930 . S
H1027 C1015 0.930 . S
H1028 C1021 0.929 . S
H1029 C1043 0.930 1_556 S
H1030 C1022 0.930 . S
H1031 C1049 0.930 . S
H1032 C1040 0.929 . S
H1033 C1047 0.930 . S
H1034 C1011 0.931 . S
H1035 C1041 0.930 . S
H1036 C1074 0.930 . S
H1037 C1018 0.930 . S
H1038 C1073 0.931 . S
N1039 Eu1008 2.657 . S
N1039 C1040 1.334 . S
N1039 C1044 1.362 . S
C1040 H1032 0.929 . S
C1040 N1039 1.334 . S
C1040 C1043 1.413 . S
C1041 H1035 0.930 . S
C1041 C1042 1.392 . S
C1041 C1043 1.367 . S
C1042 C1041 1.392 . S
C1042 C1044 1.420 . S
C1042 C1074 1.423 . S
C1043 H1029 0.930 1_554 S
C1043 C1040 1.413 . S
C1043 C1041 1.367 . S
C1044 N1039 1.362 . S
C1044 C1042 1.420 . S
C1044 C1048 1.429 . S
H1045 C1050 0.930 . S
N1046 Eu1008 2.609 . S
N1046 C1048 1.377 . S
N1046 C1049 1.321 . S
C1047 H1033 0.930 . S
C1047 C1049 1.400 . S
C1047 C1050 1.386 . S
C1048 C1044 1.429 . S
C1048 N1046 1.377 . S
C1048 C1051 1.411 . S
C1049 H1031 0.930 . S
C1049 N1046 1.321 . S
C1049 C1047 1.400 . S
C1050 H1045 0.930 . S
C1050 C1047 1.386 . S
C1050 C1051 1.395 . S
C1051 C1048 1.411 . S
C1051 C1050 1.395 . S
C1051 C1073 1.420 . S
O1052 Eu1008 2.558 . S
O1052 C1072 1.257 . S
O1053 Eu1008 2.612 . S
O1053 Eu1019 2.380 . S
O1053 C1064 1.276 . S
O1054 Eu1019 2.432 . S
O1054 C1071 1.264 . S
O1055 Eu1008 2.339 . S
O1055 C1071 1.254 . S
O1056 Eu1008 2.563 . S
O1056 C1064 1.235 . S
O1057 Eu1008 2.419 . S
O1057 C1072 1.249 . S
O1058 Eu1019 2.558 1_556 S
O1058 C1083 1.257 . S
O1059 Eu1008 2.380 . S
O1059 Eu1019 2.612 . S
O1059 C1075 1.276 . S
O1060 Eu1008 2.432 . S
O1060 C1082 1.264 . S
O1061 Eu1019 2.339 . S
O1061 C1082 1.254 . S
O1062 Eu1019 2.563 1_556 S
O1062 C1075 1.235 1_556 S
O1063 Eu1019 2.419 1_556 S
O1063 C1083 1.249 . S
C1064 O1053 1.276 . S
C1064 O1056 1.235 . S
C1065 C1067 1.393 . S
C1065 C1069 1.395 . S
C1065 C1072 1.492 . S
C1066 C1067 1.392 . S
C1066 C1068 1.386 . S
C1067 C1065 1.393 . S
C1067 C1066 1.392 . S
C1067 H1084 0.930 . S
C1068 C1066 1.386 . S
C1068 C1070 1.395 . S
C1068 H1085 0.930 . S
C1069 C1065 1.395 . S
C1069 C1070 1.379 . S
C1069 H1086 0.930 . S
C1070 C1068 1.395 . S
C1070 C1069 1.379 . S
C1070 H1087 0.930 . S
C1071 O1054 1.264 . S
C1071 O1055 1.254 . S
C1072 Eu1008 2.848 . S
C1072 O1052 1.257 . S
C1072 O1057 1.249 . S
C1072 C1065 1.492 . S
C1073 H1038 0.931 . S
C1073 C1051 1.420 . S
C1073 C1074 1.351 . S
C1074 H1036 0.930 . S
C1074 C1042 1.423 . S
C1074 C1073 1.351 . S
C1075 O1059 1.276 . S
C1075 O1062 1.235 1_554 S
C1076 C1077 1.393 . S
C1076 C1080 1.395 . S
C1076 C1083 1.492 . S
C1077 C1076 1.393 . S
C1077 C1078 1.392 . S
C1077 H1088 0.930 . S
C1078 C1077 1.392 . S
C1078 C1079 1.386 . S
C1079 C1078 1.386 . S
C1079 C1081 1.395 . S
C1079 H1089 0.930 . S
C1080 C1076 1.395 . S
C1080 C1081 1.379 . S
C1080 H1090 0.930 . S
C1081 C1079 1.395 . S
C1081 C1080 1.379 . S
C1081 H1091 0.930 . S
C1082 O1060 1.264 . S
C1082 O1061 1.254 . S
C1083 Eu1019 2.848 1_556 S
C1083 O1058 1.257 . S
C1083 O1063 1.249 . S
C1083 C1076 1.492 . S
H1084 C1067 0.930 . S
H1085 C1068 0.930 . S
H1086 C1069 0.930 . S
H1087 C1070 0.930 . S
H1088 C1077 0.930 . S
H1089 C1079 0.930 . S
H1090 C1080 0.930 . S
H1091 C1081 0.930 . S
Eu1092 N1123 2.657 1_655 S
Eu1092 N1130 2.609 1_655 S
Eu1092 O1136 2.558 1_655 S
Eu1092 O1137 2.612 . S
Eu1092 O1139 2.339 1_655 S
Eu1092 O1140 2.563 . S
Eu1092 O1141 2.419 1_655 S
Eu1092 O1143 2.380 . S
Eu1092 O1144 2.432 . S
Eu1092 C1156 2.848 1_655 S
C1093 C1096 1.429 . S
C1093 C1097 1.411 . S
C1093 N1100 1.377 . S
C1094 C1096 1.420 . S
C1094 C1098 1.423 . S
C1094 C1106 1.392 . S
C1095 C1097 1.420 . S
C1095 C1098 1.351 . S
C1095 H1118 0.931 . S
C1096 C1093 1.429 . S
C1096 C1094 1.420 . S
C1096 N1104 1.362 . S
C1097 C1093 1.411 . S
C1097 C1095 1.420 . S
C1097 C1102 1.395 . S
C1098 C1094 1.423 . S
C1098 C1095 1.351 . S
C1098 H1110 0.930 . S
C1099 C1101 1.400 . S
C1099 C1102 1.386 . S
C1099 H1111 0.930 . S
N1100 C1093 1.377 . S
N1100 C1101 1.321 . S
N1100 Eu1103 2.609 . S
C1101 C1099 1.400 . S
C1101 N1100 1.321 . S
C1101 H1108 0.930 . S
C1102 C1097 1.395 . S
C1102 C1099 1.386 . S
C1102 H1121 0.930 . S
Eu1103 N1100 2.609 . S
Eu1103 N1104 2.657 . S
Eu1103 O1137 2.380 . S
Eu1103 O1138 2.432 . S
Eu1103 O1142 2.558 . S
Eu1103 O1143 2.612 . S
Eu1103 O1145 2.339 . S
Eu1103 O1146 2.563 . S
Eu1103 O1147 2.419 . S
Eu1103 C1167 2.848 . S
N1104 C1096 1.362 . S
N1104 Eu1103 2.657 . S
N1104 C1105 1.334 . S
C1105 N1104 1.334 . S
C1105 C1107 1.413 . S
C1105 H1112 0.929 . S
C1106 C1094 1.392 . S
C1106 C1107 1.367 . S
C1106 H1114 0.930 . S
C1107 C1105 1.413 . S
C1107 C1106 1.367 . S
C1107 H1109 0.930 . S
H1108 C1101 0.930 . S
H1109 C1107 0.930 . S
H1110 C1098 0.930 . S
H1111 C1099 0.930 . S
H1112 C1105 0.929 . S
H1113 C1127 0.930 . S
H1114 C1106 0.930 . S
H1115 C1133 0.930 . S
H1116 C1124 0.929 . S
H1117 C1131 0.930 1_655 S
H1118 C1095 0.931 . S
H1119 C1125 0.930 . S
H1120 C1158 0.930 . S
H1121 C1102 0.930 . S
H1122 C1157 0.931 . S
N1123 Eu1092 2.657 1_455 S
N1123 C1124 1.334 . S
N1123 C1128 1.362 . S
C1124 H1116 0.929 . S
C1124 N1123 1.334 . S
C1124 C1127 1.413 . S
C1125 H1119 0.930 . S
C1125 C1126 1.392 . S
C1125 C1127 1.367 . S
C1126 C1125 1.392 . S
C1126 C1128 1.420 . S
C1126 C1158 1.423 . S
C1127 H1113 0.930 . S
C1127 C1124 1.413 . S
C1127 C1125 1.367 . S
C1128 N1123 1.362 . S
C1128 C1126 1.420 . S
C1128 C1132 1.429 . S
H1129 C1134 0.930 . S
N1130 Eu1092 2.609 1_455 S
N1130 C1132 1.377 . S
N1130 C1133 1.321 1_455 S
C1131 H1117 0.930 1_455 S
C1131 C1133 1.400 1_455 S
C1131 C1134 1.386 . S
C1132 C1128 1.429 . S
C1132 N1130 1.377 . S
C1132 C1135 1.411 . S
C1133 H1115 0.930 . S
C1133 N1130 1.321 1_655 S
C1133 C1131 1.400 1_655 S
C1134 H1129 0.930 . S
C1134 C1131 1.386 . S
C1134 C1135 1.395 . S
C1135 C1132 1.411 . S
C1135 C1134 1.395 . S
C1135 C1157 1.420 . S
O1136 Eu1092 2.558 1_455 S
O1136 C1156 1.257 . S
O1137 Eu1092 2.612 . S
O1137 Eu1103 2.380 . S
O1137 C1148 1.276 . S
O1138 Eu1103 2.432 . S
O1138 C1155 1.264 . S
O1139 Eu1092 2.339 1_455 S
O1139 C1155 1.254 1_455 S
O1140 Eu1092 2.563 . S
O1140 C1148 1.235 . S
O1141 Eu1092 2.419 1_455 S
O1141 C1156 1.249 . S
O1142 Eu1103 2.558 . S
O1142 C1167 1.257 . S
O1143 Eu1092 2.380 . S
O1143 Eu1103 2.612 . S
O1143 C1159 1.276 . S
O1144 Eu1092 2.432 . S
O1144 C1166 1.264 . S
O1145 Eu1103 2.339 . S
O1145 C1166 1.254 . S
O1146 Eu1103 2.563 . S
O1146 C1159 1.235 . S
O1147 Eu1103 2.419 . S
O1147 C1167 1.249 . S
C1148 O1137 1.276 . S
C1148 O1140 1.235 . S
C1149 C1151 1.393 . S
C1149 C1153 1.395 . S
C1149 C1156 1.492 . S
C1150 C1151 1.392 . S
C1150 C1152 1.386 . S
C1151 C1149 1.393 . S
C1151 C1150 1.392 . S
C1151 H1168 0.930 . S
C1152 C1150 1.386 . S
C1152 C1154 1.395 . S
C1152 H1169 0.930 . S
C1153 C1149 1.395 . S
C1153 C1154 1.379 . S
C1153 H1170 0.930 . S
C1154 C1152 1.395 . S
C1154 C1153 1.379 . S
C1154 H1171 0.930 . S
C1155 O1138 1.264 . S
C1155 O1139 1.254 1_655 S
C1156 Eu1092 2.848 1_455 S
C1156 O1136 1.257 . S
C1156 O1141 1.249 . S
C1156 C1149 1.492 . S
C1157 H1122 0.931 . S
C1157 C1135 1.420 . S
C1157 C1158 1.351 . S
C1158 H1120 0.930 . S
C1158 C1126 1.423 . S
C1158 C1157 1.351 . S
C1159 O1143 1.276 . S
C1159 O1146 1.235 . S
C1160 C1161 1.393 . S
C1160 C1164 1.395 . S
C1160 C1167 1.492 . S
C1161 C1160 1.393 . S
C1161 C1162 1.392 . S
C1161 H1172 0.930 . S
C1162 C1161 1.392 . S
C1162 C1163 1.386 . S
C1163 C1162 1.386 . S
C1163 C1165 1.395 . S
C1163 H1173 0.930 . S
C1164 C1160 1.395 . S
C1164 C1165 1.379 . S
C1164 H1174 0.930 . S
C1165 C1163 1.395 . S
C1165 C1164 1.379 . S
C1165 H1175 0.930 . S
C1166 O1144 1.264 . S
C1166 O1145 1.254 . S
C1167 Eu1103 2.848 . S
C1167 O1142 1.257 . S
C1167 O1147 1.249 . S
C1167 C1160 1.492 . S
H1168 C1151 0.930 . S
H1169 C1152 0.930 . S
H1170 C1153 0.930 . S
H1171 C1154 0.930 . S
H1172 C1161 0.930 . S
H1173 C1163 0.930 . S
H1174 C1164 0.930 . S
H1175 C1165 0.930 . S
Eu1176 N1207 2.657 . S
Eu1176 N1214 2.609 . S
Eu1176 O1220 2.558 . S
Eu1176 O1221 2.612 . S
Eu1176 O1223 2.339 . S
Eu1176 O1224 2.563 . S
Eu1176 O1225 2.419 . S
Eu1176 O1227 2.380 . S
Eu1176 O1228 2.432 . S
Eu1176 C1240 2.848 . S
C1177 C1180 1.429 . S
C1177 C1181 1.411 . S
C1177 N1184 1.377 . S
C1178 C1180 1.420 . S
C1178 C1182 1.423 . S
C1178 C1190 1.392 . S
C1179 C1181 1.420 . S
C1179 C1182 1.351 . S
C1179 H1202 0.931 . S
C1180 C1177 1.429 . S
C1180 C1178 1.420 . S
C1180 N1188 1.362 . S
C1181 C1177 1.411 . S
C1181 C1179 1.420 . S
C1181 C1186 1.395 . S
C1182 C1178 1.423 . S
C1182 C1179 1.351 . S
C1182 H1194 0.930 . S
C1183 C1185 1.400 . S
C1183 C1186 1.386 . S
C1183 H1195 0.930 . S
N1184 C1177 1.377 . S
N1184 C1185 1.321 . S
N1184 Eu1187 2.609 . S
C1185 C1183 1.400 . S
C1185 N1184 1.321 . S
C1185 H1192 0.930 . S
C1186 C1181 1.395 . S
C1186 C1183 1.386 . S
C1186 H1205 0.930 . S
Eu1187 N1184 2.609 . S
Eu1187 N1188 2.657 . S
Eu1187 O1221 2.380 . S
Eu1187 O1222 2.432 . S
Eu1187 O1226 2.558 . S
Eu1187 O1227 2.612 . S
Eu1187 O1229 2.339 . S
Eu1187 O1230 2.563 . S
Eu1187 O1231 2.419 . S
Eu1187 C1251 2.848 . S
N1188 C1180 1.362 . S
N1188 Eu1187 2.657 . S
N1188 C1189 1.334 . S
C1189 N1188 1.334 . S
C1189 C1191 1.413 . S
C1189 H1196 0.929 . S
C1190 C1178 1.392 . S
C1190 C1191 1.367 . S
C1190 H1198 0.930 . S
C1191 C1189 1.413 . S
C1191 C1190 1.367 . S
C1191 H1193 0.930 . S
H1192 C1185 0.930 . S
H1193 C1191 0.930 . S
H1194 C1182 0.930 . S
H1195 C1183 0.930 . S
H1196 C1189 0.929 . S
H1197 C1211 0.930 . S
H1198 C1190 0.930 . S
H1199 C1217 0.930 . S
H1200 C1208 0.929 . S
H1201 C1215 0.930 . S
H1202 C1179 0.931 . S
H1203 C1209 0.930 . S
H1204 C1242 0.930 . S
H1205 C1186 0.930 . S
H1206 C1241 0.931 . S
N1207 Eu1176 2.657 . S
N1207 C1208 1.334 . S
N1207 C1212 1.362 . S
C1208 H1200 0.929 . S
C1208 N1207 1.334 . S
C1208 C1211 1.413 . S
C1209 H1203 0.930 . S
C1209 C1210 1.392 . S
C1209 C1211 1.367 . S
C1210 C1209 1.392 . S
C1210 C1212 1.420 . S
C1210 C1242 1.423 . S
C1211 H1197 0.930 . S
C1211 C1208 1.413 . S
C1211 C1209 1.367 . S
C1212 N1207 1.362 . S
C1212 C1210 1.420 . S
C1212 C1216 1.429 . S
H1213 C1218 0.930 . S
N1214 Eu1176 2.609 . S
N1214 C1216 1.377 . S
N1214 C1217 1.321 . S
C1215 H1201 0.930 . S
C1215 C1217 1.400 . S
C1215 C1218 1.386 . S
C1216 C1212 1.429 . S
C1216 N1214 1.377 . S
C1216 C1219 1.411 . S
C1217 H1199 0.930 . S
C1217 N1214 1.321 . S
C1217 C1215 1.400 . S
C1218 H1213 0.930 . S
C1218 C1215 1.386 . S
C1218 C1219 1.395 . S
C1219 C1216 1.411 . S
C1219 C1218 1.395 . S
C1219 C1241 1.420 . S
O1220 Eu1176 2.558 . S
O1220 C1240 1.257 . S
O1221 Eu1176 2.612 . S
O1221 Eu1187 2.380 . S
O1221 C1232 1.276 . S
O1222 Eu1187 2.432 . S
O1222 C1239 1.264 . S
O1223 Eu1176 2.339 . S
O1223 C1239 1.254 . S
O1224 Eu1176 2.563 . S
O1224 C1232 1.235 . S
O1225 Eu1176 2.419 . S
O1225 C1240 1.249 . S
O1226 Eu1187 2.558 . S
O1226 C1251 1.257 . S
O1227 Eu1176 2.380 . S
O1227 Eu1187 2.612 . S
O1227 C1243 1.276 . S
O1228 Eu1176 2.432 . S
O1228 C1250 1.264 . S
O1229 Eu1187 2.339 . S
O1229 C1250 1.254 . S
O1230 Eu1187 2.563 . S
O1230 C1243 1.235 . S
O1231 Eu1187 2.419 . S
O1231 C1251 1.249 . S
C1232 O1221 1.276 . S
C1232 O1224 1.235 . S
C1233 C1235 1.393 . S
C1233 C1237 1.395 . S
C1233 C1240 1.492 . S
C1234 C1235 1.392 . S
C1234 C1236 1.386 . S
C1235 C1233 1.393 . S
C1235 C1234 1.392 . S
C1235 H1252 0.930 . S
C1236 C1234 1.386 . S
C1236 C1238 1.395 . S
C1236 H1253 0.930 . S
C1237 C1233 1.395 . S
C1237 C1238 1.379 . S
C1237 H1254 0.930 . S
C1238 C1236 1.395 . S
C1238 C1237 1.379 . S
C1238 H1255 0.930 . S
C1239 O1222 1.264 . S
C1239 O1223 1.254 . S
C1240 Eu1176 2.848 . S
C1240 O1220 1.257 . S
C1240 O1225 1.249 . S
C1240 C1233 1.492 . S
C1241 H1206 0.931 . S
C1241 C1219 1.420 . S
C1241 C1242 1.351 . S
C1242 H1204 0.930 . S
C1242 C1210 1.423 . S
C1242 C1241 1.351 . S
C1243 O1227 1.276 . S
C1243 O1230 1.235 . S
C1244 C1245 1.393 . S
C1244 C1248 1.395 . S
C1244 C1251 1.492 . S
C1245 C1244 1.393 . S
C1245 C1246 1.392 . S
C1245 H1256 0.930 . S
C1246 C1245 1.392 . S
C1246 C1247 1.386 . S
C1247 C1246 1.386 . S
C1247 C1249 1.395 . S
C1247 H1257 0.930 . S
C1248 C1244 1.395 . S
C1248 C1249 1.379 . S
C1248 H1258 0.930 . S
C1249 C1247 1.395 . S
C1249 C1248 1.379 . S
C1249 H1259 0.930 . S
C1250 O1228 1.264 . S
C1250 O1229 1.254 . S
C1251 Eu1187 2.848 . S
C1251 O1226 1.257 . S
C1251 O1231 1.249 . S
C1251 C1244 1.492 . S
H1252 C1235 0.930 . S
H1253 C1236 0.930 . S
H1254 C1237 0.930 . S
H1255 C1238 0.930 . S
H1256 C1245 0.930 . S
H1257 C1247 0.930 . S
H1258 C1248 0.930 . S
H1259 C1249 0.930 . S
Eu1260 N1291 2.657 . S
Eu1260 N1298 2.609 . S
Eu1260 O1304 2.558 . S
Eu1260 O1305 2.612 . S
Eu1260 O1307 2.339 . S
Eu1260 O1308 2.563 . S
Eu1260 O1309 2.419 . S
Eu1260 O1311 2.380 . S
Eu1260 O1312 2.432 . S
Eu1260 C1324 2.848 . S
C1261 C1264 1.429 . S
C1261 C1265 1.411 . S
C1261 N1268 1.377 . S
C1262 C1264 1.420 . S
C1262 C1266 1.423 . S
C1262 C1274 1.392 . S
C1263 C1265 1.420 . S
C1263 C1266 1.351 . S
C1263 H1286 0.931 . S
C1264 C1261 1.429 . S
C1264 C1262 1.420 . S
C1264 N1272 1.362 . S
C1265 C1261 1.411 . S
C1265 C1263 1.420 . S
C1265 C1270 1.395 . S
C1266 C1262 1.423 . S
C1266 C1263 1.351 . S
C1266 H1278 0.930 . S
C1267 C1269 1.419 . S
C1267 C1270 1.339 1_655 S
C1267 H1279 0.958 . S
N1268 C1261 1.377 . S
N1268 C1269 1.321 1_455 S
N1268 Eu1271 2.609 1_455 S
C1269 C1267 1.419 . S
C1269 N1268 1.321 1_655 S
C1269 H1276 0.930 . S
C1270 C1265 1.395 . S
C1270 C1267 1.339 1_455 S
C1270 H1289 0.930 . S
Eu1271 N1268 2.609 1_655 S
Eu1271 N1272 2.657 1_655 S
Eu1271 O1305 2.380 . S
Eu1271 O1306 2.432 . S
Eu1271 O1310 2.560 1_655 S
Eu1271 O1311 2.612 . S
Eu1271 O1313 2.342 . S
Eu1271 O1314 2.563 . S
Eu1271 O1315 2.419 1_655 S
Eu1271 C1335 2.848 1_655 S
N1272 C1264 1.362 . S
N1272 Eu1271 2.657 1_455 S
N1272 C1273 1.334 . S
C1273 N1272 1.334 . S
C1273 C1275 1.413 . S
C1273 H1280 0.929 . S
C1274 C1262 1.392 . S
C1274 C1275 1.367 . S
C1274 H1282 0.930 . S
C1275 C1273 1.413 . S
C1275 C1274 1.367 . S
C1275 H1277 0.930 . S
H1276 C1269 0.930 . S
H1277 C1275 0.930 . S
H1278 C1266 0.930 . S
H1279 C1267 0.958 . S
H1280 C1273 0.929 . S
H1281 C1295 0.930 . S
H1282 C1274 0.930 . S
H1283 C1301 0.930 . S
H1284 C1292 0.929 . S
H1285 C1299 0.930 . S
H1286 C1263 0.931 . S
H1287 C1293 0.930 . S
H1288 C1326 0.930 . S
H1289 C1270 0.930 . S
H1290 C1325 0.931 . S
N1291 Eu1260 2.657 . S
N1291 C1292 1.334 . S
N1291 C1296 1.362 . S
C1292 H1284 0.929 . S
C1292 N1291 1.334 . S
C1292 C1295 1.413 . S
C1293 H1287 0.930 . S
C1293 C1294 1.392 . S
C1293 C1295 1.367 . S
C1294 C1293 1.392 . S
C1294 C1296 1.420 . S
C1294 C1326 1.423 . S
C1295 H1281 0.930 . S
C1295 C1292 1.413 . S
C1295 C1293 1.367 . S
C1296 N1291 1.362 . S
C1296 C1294 1.420 . S
C1296 C1300 1.429 . S
H1297 C1302 0.930 . S
N1298 Eu1260 2.609 . S
N1298 C1300 1.377 . S
N1298 C1301 1.321 . S
C1299 H1285 0.930 . S
C1299 C1301 1.400 . S
C1299 C1302 1.386 . S
C1300 C1296 1.429 . S
C1300 N1298 1.377 . S
C1300 C1303 1.411 . S
C1301 H1283 0.930 . S
C1301 N1298 1.321 . S
C1301 C1299 1.400 . S
C1302 H1297 0.930 . S
C1302 C1299 1.386 . S
C1302 C1303 1.395 . S
C1303 C1300 1.411 . S
C1303 C1302 1.395 . S
C1303 C1325 1.420 . S
O1304 Eu1260 2.558 . S
O1304 C1324 1.257 . S
O1305 Eu1260 2.612 . S
O1305 Eu1271 2.380 . S
O1305 C1316 1.276 . S
O1306 Eu1271 2.432 . S
O1306 C1323 1.264 . S
O1307 Eu1260 2.339 . S
O1307 C1323 1.254 . S
O1308 Eu1260 2.563 . S
O1308 C1316 1.235 . S
O1309 Eu1260 2.419 . S
O1309 C1324 1.249 . S
O1310 Eu1271 2.560 1_455 S
O1310 C1335 1.252 . S
O1311 Eu1260 2.380 . S
O1311 Eu1271 2.612 . S
O1311 C1327 1.276 . S
O1312 Eu1260 2.432 . S
O1312 C1334 1.264 . S
O1313 Eu1271 2.342 . S
O1313 C1334 1.258 . S
O1314 Eu1271 2.563 . S
O1314 C1327 1.235 . S
O1315 Eu1271 2.419 1_455 S
O1315 C1335 1.249 . S
C1316 O1305 1.276 . S
C1316 O1308 1.235 . S
C1317 C1319 1.393 . S
C1317 C1321 1.395 . S
C1317 C1324 1.492 . S
C1318 C1319 1.392 . S
C1318 C1320 1.386 . S
C1319 C1317 1.393 . S
C1319 C1318 1.392 . S
C1319 H1336 0.930 . S
C1320 C1318 1.386 . S
C1320 C1322 1.395 . S
C1320 H1337 0.930 . S
C1321 C1317 1.395 . S
C1321 C1322 1.379 . S
C1321 H1338 0.930 . S
C1322 C1320 1.395 . S
C1322 C1321 1.379 . S
C1322 H1339 0.930 . S
C1323 O1306 1.264 . S
C1323 O1307 1.254 . S
C1324 Eu1260 2.848 . S
C1324 O1304 1.257 . S
C1324 O1309 1.249 . S
C1324 C1317 1.492 . S
C1325 H1290 0.931 . S
C1325 C1303 1.420 . S
C1325 C1326 1.351 . S
C1326 H1288 0.930 . S
C1326 C1294 1.423 . S
C1326 C1325 1.351 . S
C1327 O1311 1.276 . S
C1327 O1314 1.235 . S
C1328 C1329 1.393 . S
C1328 C1332 1.395 . S
C1328 C1335 1.492 . S
C1329 C1328 1.393 . S
C1329 C1330 1.392 . S
C1329 H1340 0.930 . S
C1330 C1329 1.392 . S
C1330 C1331 1.386 . S
C1331 C1330 1.386 . S
C1331 C1333 1.395 . S
C1331 H1341 0.930 . S
C1332 C1328 1.395 . S
C1332 C1333 1.379 . S
C1332 H1342 0.930 . S
C1333 C1331 1.395 . S
C1333 C1332 1.379 . S
C1333 H1343 0.930 . S
C1334 O1312 1.264 . S
C1334 O1313 1.258 . S
C1335 Eu1271 2.848 1_455 S
C1335 O1310 1.252 . S
C1335 O1315 1.249 . S
C1335 C1328 1.492 . S
H1336 C1319 0.930 . S
H1337 C1320 0.930 . S
H1338 C1321 0.930 . S
H1339 C1322 0.930 . S
H1340 C1329 0.930 . S
H1341 C1331 0.930 . S
H1342 C1332 0.930 . S
H1343 C1333 0.930 . S
Eu1344 N1375 2.657 . S
Eu1344 N1382 2.609 . S
Eu1344 O1388 2.558 . S
Eu1344 O1389 2.612 . S
Eu1344 O1391 2.339 . S
Eu1344 O1392 2.563 . S
Eu1344 O1393 2.419 . S
Eu1344 O1395 2.380 . S
Eu1344 O1396 2.432 . S
Eu1344 C1408 2.848 . S
C1345 C1348 1.429 . S
C1345 C1349 1.411 . S
C1345 N1352 1.377 . S
C1346 C1348 1.420 . S
C1346 C1350 1.423 . S
C1346 C1358 1.392 . S
C1347 C1349 1.420 . S
C1347 C1350 1.351 . S
C1347 H1370 0.931 . S
C1348 C1345 1.429 . S
C1348 C1346 1.420 . S
C1348 N1356 1.362 . S
C1349 C1345 1.411 . S
C1349 C1347 1.420 . S
C1349 C1354 1.395 . S
C1350 C1346 1.423 . S
C1350 C1347 1.351 . S
C1350 H1362 0.930 . S
C1351 C1353 1.400 . S
C1351 C1354 1.386 . S
C1351 H1363 0.930 . S
N1352 C1345 1.377 . S
N1352 C1353 1.321 . S
N1352 Eu1355 2.609 . S
C1353 C1351 1.400 . S
C1353 N1352 1.321 . S
C1353 H1360 0.930 . S
C1354 C1349 1.395 . S
C1354 C1351 1.386 . S
C1354 H1373 0.930 . S
Eu1355 N1352 2.609 . S
Eu1355 N1356 2.657 . S
Eu1355 O1389 2.380 . S
Eu1355 O1390 2.432 . S
Eu1355 O1394 2.558 . S
Eu1355 O1395 2.612 . S
Eu1355 O1397 2.339 . S
Eu1355 O1398 2.563 . S
Eu1355 O1399 2.419 . S
Eu1355 C1419 2.848 . S
N1356 C1348 1.362 . S
N1356 Eu1355 2.657 . S
N1356 C1357 1.334 . S
C1357 N1356 1.334 . S
C1357 C1359 1.413 . S
C1357 H1364 0.929 . S
C1358 C1346 1.392 . S
C1358 C1359 1.367 . S
C1358 H1366 0.930 . S
C1359 C1357 1.413 . S
C1359 C1358 1.367 . S
C1359 H1361 0.930 . S
H1360 C1353 0.930 . S
H1361 C1359 0.930 . S
H1362 C1350 0.930 . S
H1363 C1351 0.930 . S
H1364 C1357 0.929 . S
H1365 C1379 0.930 . S
H1366 C1358 0.930 . S
H1367 C1385 0.930 . S
H1368 C1376 0.929 . S
H1369 C1383 0.930 . S
H1370 C1347 0.931 . S
H1371 C1377 0.930 . S
H1372 C1410 0.930 . S
H1373 C1354 0.930 . S
H1374 C1409 0.931 . S
N1375 Eu1344 2.657 . S
N1375 C1376 1.334 . S
N1375 C1380 1.362 . S
C1376 H1368 0.929 . S
C1376 N1375 1.334 . S
C1376 C1379 1.413 . S
C1377 H1371 0.930 . S
C1377 C1378 1.392 . S
C1377 C1379 1.367 . S
C1378 C1377 1.392 . S
C1378 C1380 1.420 . S
C1378 C1410 1.423 . S
C1379 H1365 0.930 . S
C1379 C1376 1.413 . S
C1379 C1377 1.367 . S
C1380 N1375 1.362 . S
C1380 C1378 1.420 . S
C1380 C1384 1.429 . S
H1381 C1386 0.930 . S
N1382 Eu1344 2.609 . S
N1382 C1384 1.377 . S
N1382 C1385 1.321 . S
C1383 H1369 0.930 . S
C1383 C1385 1.400 . S
C1383 C1386 1.386 . S
C1384 C1380 1.429 . S
C1384 N1382 1.377 . S
C1384 C1387 1.411 . S
C1385 H1367 0.930 . S
C1385 N1382 1.321 . S
C1385 C1383 1.400 . S
C1386 H1381 0.930 . S
C1386 C1383 1.386 . S
C1386 C1387 1.395 . S
C1387 C1384 1.411 . S
C1387 C1386 1.395 . S
C1387 C1409 1.420 . S
O1388 Eu1344 2.558 . S
O1388 C1408 1.257 . S
O1389 Eu1344 2.612 . S
O1389 Eu1355 2.380 . S
O1389 C1400 1.276 . S
O1390 Eu1355 2.432 . S
O1390 C1407 1.264 . S
O1391 Eu1344 2.339 . S
O1391 C1407 1.254 . S
O1392 Eu1344 2.563 . S
O1392 C1400 1.235 . S
O1393 Eu1344 2.419 . S
O1393 C1408 1.249 . S
O1394 Eu1355 2.558 . S
O1394 C1419 1.257 . S
O1395 Eu1344 2.380 . S
O1395 Eu1355 2.612 . S
O1395 C1411 1.276 . S
O1396 Eu1344 2.432 . S
O1396 C1418 1.264 . S
O1397 Eu1355 2.339 . S
O1397 C1418 1.254 . S
O1398 Eu1355 2.563 . S
O1398 C1411 1.235 . S
O1399 Eu1355 2.419 . S
O1399 C1419 1.249 . S
C1400 O1389 1.276 . S
C1400 O1392 1.235 . S
C1401 C1403 1.393 . S
C1401 C1405 1.395 . S
C1401 C1408 1.492 . S
C1402 C1403 1.392 . S
C1402 C1404 1.386 . S
C1403 C1401 1.393 . S
C1403 C1402 1.392 . S
C1403 H1420 0.930 . S
C1404 C1402 1.386 . S
C1404 C1406 1.395 . S
C1404 H1421 0.930 . S
C1405 C1401 1.395 . S
C1405 C1406 1.379 . S
C1405 H1422 0.930 . S
C1406 C1404 1.395 . S
C1406 C1405 1.379 . S
C1406 H1423 0.930 . S
C1407 O1390 1.264 . S
C1407 O1391 1.254 . S
C1408 Eu1344 2.848 . S
C1408 O1388 1.257 . S
C1408 O1393 1.249 . S
C1408 C1401 1.492 . S
C1409 H1374 0.931 . S
C1409 C1387 1.420 . S
C1409 C1410 1.351 . S
C1410 H1372 0.930 . S
C1410 C1378 1.423 . S
C1410 C1409 1.351 . S
C1411 O1395 1.276 . S
C1411 O1398 1.235 . S
C1412 C1413 1.393 . S
C1412 C1416 1.395 . S
C1412 C1419 1.492 . S
C1413 C1412 1.393 . S
C1413 C1414 1.392 . S
C1413 H1424 0.930 . S
C1414 C1413 1.392 . S
C1414 C1415 1.386 . S
C1415 C1414 1.386 . S
C1415 C1417 1.395 . S
C1415 H1425 0.930 . S
C1416 C1412 1.395 . S
C1416 C1417 1.379 . S
C1416 H1426 0.930 . S
C1417 C1415 1.395 . S
C1417 C1416 1.379 . S
C1417 H1427 0.930 . S
C1418 O1396 1.264 . S
C1418 O1397 1.254 . S
C1419 Eu1355 2.848 . S
C1419 O1394 1.257 . S
C1419 O1399 1.249 . S
C1419 C1412 1.492 . S
H1420 C1403 0.930 . S
H1421 C1404 0.930 . S
H1422 C1405 0.930 . S
H1423 C1406 0.930 . S
H1424 C1413 0.930 . S
H1425 C1415 0.930 . S
H1426 C1416 0.930 . S
H1427 C1417 0.930 . S
Eu1428 N1459 2.657 . S
Eu1428 N1466 2.609 . S
Eu1428 O1472 2.558 . S
Eu1428 O1473 2.612 . S
Eu1428 O1475 2.339 . S
Eu1428 O1476 2.563 . S
Eu1428 O1477 2.419 . S
Eu1428 O1479 2.380 . S
Eu1428 O1480 2.432 . S
Eu1428 C1492 2.848 . S
C1429 C1432 1.429 . S
C1429 C1433 1.411 . S
C1429 N1436 1.377 . S
C1430 C1432 1.420 . S
C1430 C1434 1.423 . S
C1430 C1442 1.392 . S
C1431 C1433 1.420 . S
C1431 C1434 1.351 . S
C1431 H1454 0.931 . S
C1432 C1429 1.429 . S
C1432 C1430 1.420 . S
C1432 N1440 1.362 . S
C1433 C1429 1.411 . S
C1433 C1431 1.420 . S
C1433 C1438 1.395 . S
C1434 C1430 1.423 . S
C1434 C1431 1.351 . S
C1434 H1446 0.930 . S
C1435 C1437 1.400 . S
C1435 C1438 1.386 . S
C1435 H1447 0.930 . S
N1436 C1429 1.377 . S
N1436 C1437 1.321 . S
N1436 Eu1439 2.609 . S
C1437 C1435 1.400 . S
C1437 N1436 1.321 . S
C1437 H1444 0.930 . S
C1438 C1433 1.395 . S
C1438 C1435 1.386 . S
C1438 H1457 0.930 . S
Eu1439 N1436 2.609 . S
Eu1439 N1440 2.657 . S
Eu1439 O1473 2.380 . S
Eu1439 O1474 2.432 . S
Eu1439 O1478 2.558 . S
Eu1439 O1479 2.612 . S
Eu1439 O1481 2.339 . S
Eu1439 O1482 2.563 . S
Eu1439 O1483 2.419 . S
Eu1439 C1503 2.848 . S
N1440 C1432 1.362 . S
N1440 Eu1439 2.657 . S
N1440 C1441 1.334 . S
C1441 N1440 1.334 . S
C1441 C1443 1.413 . S
C1441 H1448 0.929 . S
C1442 C1430 1.392 . S
C1442 C1443 1.367 . S
C1442 H1450 0.930 . S
C1443 C1441 1.413 . S
C1443 C1442 1.367 . S
C1443 H1445 0.930 . S
H1444 C1437 0.930 . S
H1445 C1443 0.930 . S
H1446 C1434 0.930 . S
H1447 C1435 0.930 . S
H1448 C1441 0.929 . S
H1449 C1463 0.930 . S
H1450 C1442 0.930 . S
H1451 C1469 0.930 . S
H1452 C1460 0.929 . S
H1453 C1467 0.930 . S
H1454 C1431 0.931 . S
H1455 C1461 0.930 . S
H1456 C1494 0.930 . S
H1457 C1438 0.930 . S
H1458 C1493 0.931 . S
N1459 Eu1428 2.657 . S
N1459 C1460 1.334 . S
N1459 C1464 1.362 . S
C1460 H1452 0.929 . S
C1460 N1459 1.334 . S
C1460 C1463 1.413 . S
C1461 H1455 0.930 . S
C1461 C1462 1.392 . S
C1461 C1463 1.367 . S
C1462 C1461 1.392 . S
C1462 C1464 1.420 . S
C1462 C1494 1.423 . S
C1463 H1449 0.930 . S
C1463 C1460 1.413 . S
C1463 C1461 1.367 . S
C1464 N1459 1.362 . S
C1464 C1462 1.420 . S
C1464 C1468 1.429 . S
H1465 C1470 0.930 . S
N1466 Eu1428 2.609 . S
N1466 C1468 1.377 . S
N1466 C1469 1.321 . S
C1467 H1453 0.930 . S
C1467 C1469 1.400 . S
C1467 C1470 1.386 . S
C1468 C1464 1.429 . S
C1468 N1466 1.377 . S
C1468 C1471 1.411 . S
C1469 H1451 0.930 . S
C1469 N1466 1.321 . S
C1469 C1467 1.400 . S
C1470 H1465 0.930 . S
C1470 C1467 1.386 . S
C1470 C1471 1.395 . S
C1471 C1468 1.411 . S
C1471 C1470 1.395 . S
C1471 C1493 1.420 . S
O1472 Eu1428 2.558 . S
O1472 C1492 1.257 . S
O1473 Eu1428 2.612 . S
O1473 Eu1439 2.380 . S
O1473 C1484 1.276 . S
O1474 Eu1439 2.432 . S
O1474 C1491 1.264 . S
O1475 Eu1428 2.339 . S
O1475 C1491 1.254 . S
O1476 Eu1428 2.563 . S
O1476 C1484 1.235 . S
O1477 Eu1428 2.419 . S
O1477 C1492 1.249 . S
O1478 Eu1439 2.558 . S
O1478 C1503 1.257 . S
O1479 Eu1428 2.380 . S
O1479 Eu1439 2.612 . S
O1479 C1495 1.276 . S
O1480 Eu1428 2.432 . S
O1480 C1502 1.264 . S
O1481 Eu1439 2.339 . S
O1481 C1502 1.254 . S
O1482 Eu1439 2.563 . S
O1482 C1495 1.235 . S
O1483 Eu1439 2.419 . S
O1483 C1503 1.249 . S
C1484 O1473 1.276 . S
C1484 O1476 1.235 . S
C1485 C1487 1.393 . S
C1485 C1489 1.395 . S
C1485 C1492 1.492 . S
C1486 C1487 1.392 . S
C1486 C1488 1.386 . S
C1487 C1485 1.393 . S
C1487 C1486 1.392 . S
C1487 H1504 0.930 . S
C1488 C1486 1.386 . S
C1488 C1490 1.395 . S
C1488 H1505 0.930 . S
C1489 C1485 1.395 . S
C1489 C1490 1.379 . S
C1489 H1506 0.930 . S
C1490 C1488 1.395 . S
C1490 C1489 1.379 . S
C1490 H1507 0.930 . S
C1491 O1474 1.264 . S
C1491 O1475 1.254 . S
C1492 Eu1428 2.848 . S
C1492 O1472 1.257 . S
C1492 O1477 1.249 . S
C1492 C1485 1.492 . S
C1493 H1458 0.931 . S
C1493 C1471 1.420 . S
C1493 C1494 1.351 . S
C1494 H1456 0.930 . S
C1494 C1462 1.423 . S
C1494 C1493 1.351 . S
C1495 O1479 1.276 . S
C1495 O1482 1.235 . S
C1496 C1497 1.393 . S
C1496 C1500 1.395 . S
C1496 C1503 1.492 . S
C1497 C1496 1.393 . S
C1497 C1498 1.392 . S
C1497 H1508 0.930 . S
C1498 C1497 1.392 . S
C1498 C1499 1.386 . S
C1499 C1498 1.386 . S
C1499 C1501 1.395 . S
C1499 H1509 0.930 . S
C1500 C1496 1.395 . S
C1500 C1501 1.379 . S
C1500 H1510 0.930 . S
C1501 C1499 1.395 . S
C1501 C1500 1.379 . S
C1501 H1511 0.930 . S
C1502 O1480 1.264 . S
C1502 O1481 1.254 . S
C1503 Eu1439 2.848 . S
C1503 O1478 1.257 . S
C1503 O1483 1.249 . S
C1503 C1496 1.492 . S
H1504 C1487 0.930 . S
H1505 C1488 0.930 . S
H1506 C1489 0.930 . S
H1507 C1490 0.930 . S
H1508 C1497 0.930 . S
H1509 C1499 0.930 . S
H1510 C1500 0.930 . S
H1511 C1501 0.930 . S
Eu1512 N1543 2.657 . S
Eu1512 N1550 2.609 1_556 S
Eu1512 O1556 2.558 1_556 S
Eu1512 O1557 2.612 . S
Eu1512 O1559 2.339 . S
Eu1512 O1560 2.563 1_556 S
Eu1512 O1561 2.419 1_556 S
Eu1512 O1563 2.380 . S
Eu1512 O1564 2.444 . S
Eu1512 C1576 2.848 1_556 S
C1513 C1516 1.429 . S
C1513 C1517 1.411 . S
C1513 N1520 1.377 . S
C1514 C1516 1.420 . S
C1514 C1518 1.423 . S
C1514 C1526 1.392 . S
C1515 C1517 1.420 . S
C1515 C1518 1.351 . S
C1515 H1538 0.931 . S
C1516 C1513 1.429 . S
C1516 C1514 1.420 . S
C1516 N1524 1.362 . S
C1517 C1513 1.411 . S
C1517 C1515 1.420 . S
C1517 C1522 1.395 . S
C1518 C1514 1.423 . S
C1518 C1515 1.351 . S
C1518 H1530 0.930 . S
C1519 C1521 1.400 . S
C1519 C1522 1.386 . S
C1519 H1531 0.930 . S
N1520 C1513 1.377 . S
N1520 C1521 1.321 . S
N1520 Eu1523 2.609 . S
C1521 C1519 1.400 . S
C1521 N1520 1.321 . S
C1521 H1528 0.930 . S
C1522 C1517 1.395 . S
C1522 C1519 1.386 . S
C1522 H1541 0.930 . S
Eu1523 N1520 2.609 . S
Eu1523 N1524 2.657 . S
Eu1523 O1557 2.380 . S
Eu1523 O1558 2.432 . S
Eu1523 O1562 2.558 . S
Eu1523 O1563 2.612 . S
Eu1523 O1565 2.339 . S
Eu1523 O1566 2.563 . S
Eu1523 O1567 2.419 . S
Eu1523 C1587 2.848 . S
N1524 C1516 1.362 . S
N1524 Eu1523 2.657 . S
N1524 C1525 1.334 . S
C1525 N1524 1.334 . S
C1525 C1527 1.413 . S
C1525 H1532 0.929 . S
C1526 C1514 1.392 . S
C1526 C1527 1.367 . S
C1526 H1534 0.930 . S
C1527 C1525 1.413 . S
C1527 C1526 1.367 . S
C1527 H1529 0.930 1_556 S
H1528 C1521 0.930 . S
H1529 C1527 0.930 1_554 S
H1530 C1518 0.930 . S
H1531 C1519 0.930 . S
H1532 C1525 0.929 . S
H1533 C1547 0.930 . S
H1534 C1526 0.930 . S
H1535 C1553 0.930 . S
H1536 C1544 0.929 . S
H1537 C1551 0.930 . S
H1538 C1515 0.931 . S
H1539 C1545 0.930 . S
H1540 C1578 0.930 . S
H1541 C1522 0.930 . S
H1542 C1577 0.931 . S
N1543 Eu1512 2.657 . S
N1543 C1544 1.334 . S
N1543 C1548 1.362 . S
C1544 H1536 0.929 . S
C1544 N1543 1.334 . S
C1544 C1547 1.413 . S
C1545 H1539 0.930 . S
C1545 C1546 1.392 . S
C1545 C1547 1.367 . S
C1546 C1545 1.392 . S
C1546 C1548 1.420 . S
C1546 C1578 1.423 . S
C1547 H1533 0.930 . S
C1547 C1544 1.413 . S
C1547 C1545 1.367 . S
C1548 N1543 1.362 . S
C1548 C1546 1.420 . S
C1548 C1552 1.429 . S
H1549 C1554 0.930 . S
N1550 Eu1512 2.609 1_554 S
N1550 C1552 1.377 1_554 S
N1550 C1553 1.321 . S
C1551 H1537 0.930 . S
C1551 C1553 1.400 . S
C1551 C1554 1.386 . S
C1552 C1548 1.429 . S
C1552 N1550 1.377 1_556 S
C1552 C1555 1.411 1_556 S
C1553 H1535 0.930 . S
C1553 N1550 1.321 . S
C1553 C1551 1.400 . S
C1554 H1549 0.930 . S
C1554 C1551 1.386 . S
C1554 C1555 1.395 . S
C1555 C1552 1.411 1_554 S
C1555 C1554 1.395 . S
C1555 C1577 1.420 1_554 S
O1556 Eu1512 2.558 1_554 S
O1556 C1576 1.257 . S
O1557 Eu1512 2.612 . S
O1557 Eu1523 2.380 . S
O1557 C1568 1.276 . S
O1558 Eu1523 2.432 . S
O1558 C1575 1.264 . S
O1559 Eu1512 2.339 . S
O1559 C1575 1.254 . S
O1560 Eu1512 2.563 1_554 S
O1560 C1568 1.235 1_554 S
O1561 Eu1512 2.419 1_554 S
O1561 C1576 1.249 . S
O1562 Eu1523 2.558 . S
O1562 C1587 1.257 . S
O1563 Eu1512 2.380 . S
O1563 Eu1523 2.612 . S
O1563 C1579 1.276 . S
O1564 Eu1512 2.444 . S
O1564 C1586 1.305 . S
O1565 Eu1523 2.339 . S
O1565 C1586 1.254 . S
O1566 Eu1523 2.563 . S
O1566 C1579 1.235 . S
O1567 Eu1523 2.419 . S
O1567 C1587 1.249 . S
C1568 O1557 1.276 . S
C1568 O1560 1.235 1_556 S
C1569 C1571 1.393 . S
C1569 C1573 1.395 . S
C1569 C1576 1.492 . S
C1570 C1571 1.392 . S
C1570 C1572 1.386 . S
C1571 C1569 1.393 . S
C1571 C1570 1.392 . S
C1571 H1588 0.930 . S
C1572 C1570 1.386 . S
C1572 C1574 1.395 . S
C1572 H1589 0.930 . S
C1573 C1569 1.395 . S
C1573 C1574 1.379 . S
C1573 H1590 0.930 . S
C1574 C1572 1.395 . S
C1574 C1573 1.379 . S
C1574 H1591 0.930 . S
C1575 O1558 1.264 . S
C1575 O1559 1.254 . S
C1576 Eu1512 2.848 1_554 S
C1576 O1556 1.257 . S
C1576 O1561 1.249 . S
C1576 C1569 1.492 . S
C1577 H1542 0.931 . S
C1577 C1555 1.420 1_556 S
C1577 C1578 1.351 . S
C1578 H1540 0.930 . S
C1578 C1546 1.423 . S
C1578 C1577 1.351 . S
C1579 O1563 1.276 . S
C1579 O1566 1.235 . S
C1580 C1581 1.393 . S
C1580 C1584 1.395 . S
C1580 C1587 1.492 . S
C1581 C1580 1.393 . S
C1581 C1582 1.392 . S
C1581 H1592 0.930 . S
C1582 C1581 1.392 . S
C1582 C1583 1.386 . S
C1583 C1582 1.386 . S
C1583 C1585 1.395 . S
C1583 H1593 0.930 . S
C1584 C1580 1.395 . S
C1584 C1585 1.379 . S
C1584 H1594 0.930 . S
C1585 C1583 1.395 . S
C1585 C1584 1.379 . S
C1585 H1595 0.930 . S
C1586 O1564 1.305 . S
C1586 O1565 1.254 . S
C1587 Eu1523 2.848 . S
C1587 O1562 1.257 . S
C1587 O1567 1.249 . S
C1587 C1580 1.492 . S
H1588 C1571 0.930 . S
H1589 C1572 0.930 . S
H1590 C1573 0.930 . S
H1591 C1574 0.930 . S
H1592 C1581 0.930 . S
H1593 C1583 0.930 . S
H1594 C1584 0.930 . S
H1595 C1585 0.930 . S
Eu1596 N1627 2.657 . S
Eu1596 N1634 2.609 . S
Eu1596 O1640 2.558 . S
Eu1596 O1641 2.612 . S
Eu1596 O1643 2.339 . S
Eu1596 O1644 2.563 . S
Eu1596 O1645 2.419 . S
Eu1596 O1647 2.380 . S
Eu1596 O1648 2.432 . S
Eu1596 C1660 2.848 . S
C1597 C1600 1.429 . S
C1597 C1601 1.411 . S
C1597 N1604 1.377 . S
C1598 C1600 1.420 . S
C1598 C1602 1.423 . S
C1598 C1610 1.392 . S
C1599 C1601 1.420 . S
C1599 C1602 1.351 . S
C1599 H1622 0.931 . S
C1600 C1597 1.429 . S
C1600 C1598 1.420 . S
C1600 N1608 1.362 . S
C1601 C1597 1.411 . S
C1601 C1599 1.420 . S
C1601 C1606 1.395 . S
C1602 C1598 1.423 . S
C1602 C1599 1.351 . S
C1602 H1614 0.930 . S
C1603 C1605 1.390 1_455 S
C1603 C1606 1.411 . S
C1603 H1615 0.915 1_455 S
N1604 C1597 1.377 . S
N1604 C1605 1.321 1_455 S
N1604 Eu1607 2.609 1_455 S
C1605 C1603 1.390 1_655 S
C1605 N1604 1.321 1_655 S
C1605 H1612 0.930 . S
C1606 C1601 1.395 . S
C1606 C1603 1.411 . S
C1606 H1625 0.930 . S
Eu1607 N1604 2.609 1_655 S
Eu1607 N1608 2.657 1_655 S
Eu1607 O1641 2.380 . S
Eu1607 O1642 2.432 . S
Eu1607 O1646 2.558 1_655 S
Eu1607 O1647 2.612 . S
Eu1607 O1649 2.324 1_655 S
Eu1607 O1650 2.563 . S
Eu1607 O1651 2.419 1_655 S
Eu1607 C1671 2.848 1_655 S
N1608 C1600 1.362 . S
N1608 Eu1607 2.657 1_455 S
N1608 C1609 1.334 . S
C1609 N1608 1.334 . S
C1609 C1611 1.413 . S
C1609 H1616 0.929 . S
C1610 C1598 1.392 . S
C1610 C1611 1.367 . S
C1610 H1618 0.930 . S
C1611 C1609 1.413 . S
C1611 C1610 1.367 . S
C1611 H1613 0.930 . S
H1612 C1605 0.930 . S
H1613 C1611 0.930 . S
H1614 C1602 0.930 . S
H1615 C1603 0.915 1_655 S
H1616 C1609 0.929 . S
H1617 C1631 0.930 . S
H1618 C1610 0.930 . S
H1619 C1637 0.930 . S
H1620 C1628 0.929 . S
H1621 C1635 0.930 . S
H1622 C1599 0.931 . S
H1623 C1629 0.930 . S
H1624 C1662 0.930 . S
H1625 C1606 0.930 . S
H1626 C1661 0.931 . S
N1627 Eu1596 2.657 . S
N1627 C1628 1.334 . S
N1627 C1632 1.362 . S
C1628 H1620 0.929 . S
C1628 N1627 1.334 . S
C1628 C1631 1.413 . S
C1629 H1623 0.930 . S
C1629 C1630 1.392 . S
C1629 C1631 1.367 . S
C1630 C1629 1.392 . S
C1630 C1632 1.420 . S
C1630 C1662 1.423 . S
C1631 H1617 0.930 . S
C1631 C1628 1.413 . S
C1631 C1629 1.367 . S
C1632 N1627 1.362 . S
C1632 C1630 1.420 . S
C1632 C1636 1.429 . S
H1633 C1638 0.930 . S
N1634 Eu1596 2.609 . S
N1634 C1636 1.377 . S
N1634 C1637 1.321 . S
C1635 H1621 0.930 . S
C1635 C1637 1.400 . S
C1635 C1638 1.386 . S
C1636 C1632 1.429 . S
C1636 N1634 1.377 . S
C1636 C1639 1.411 . S
C1637 H1619 0.930 . S
C1637 N1634 1.321 . S
C1637 C1635 1.400 . S
C1638 H1633 0.930 . S
C1638 C1635 1.386 . S
C1638 C1639 1.395 . S
C1639 C1636 1.411 . S
C1639 C1638 1.395 . S
C1639 C1661 1.420 . S
O1640 Eu1596 2.558 . S
O1640 C1660 1.257 . S
O1641 Eu1596 2.612 . S
O1641 Eu1607 2.380 . S
O1641 C1652 1.276 . S
O1642 Eu1607 2.432 . S
O1642 C1659 1.264 . S
O1643 Eu1596 2.339 . S
O1643 C1659 1.254 . S
O1644 Eu1596 2.563 . S
O1644 C1652 1.235 . S
O1645 Eu1596 2.419 . S
O1645 C1660 1.249 . S
O1646 Eu1607 2.558 1_455 S
O1646 C1671 1.257 . S
O1647 Eu1596 2.380 . S
O1647 Eu1607 2.612 . S
O1647 C1663 1.276 . S
O1648 Eu1596 2.432 . S
O1648 C1670 1.264 . S
O1649 Eu1607 2.324 1_455 S
O1649 C1670 1.236 1_455 S
O1650 Eu1607 2.563 . S
O1650 C1663 1.235 . S
O1651 Eu1607 2.419 1_455 S
O1651 C1671 1.249 . S
C1652 O1641 1.276 . S
C1652 O1644 1.235 . S
C1653 C1655 1.393 . S
C1653 C1657 1.395 . S
C1653 C1660 1.492 . S
C1654 C1655 1.392 . S
C1654 C1656 1.386 . S
C1655 C1653 1.393 . S
C1655 C1654 1.392 . S
C1655 H1672 0.930 . S
C1656 C1654 1.386 . S
C1656 C1658 1.395 . S
C1656 H1673 0.930 . S
C1657 C1653 1.395 . S
C1657 C1658 1.379 . S
C1657 H1674 0.930 . S
C1658 C1656 1.395 . S
C1658 C1657 1.379 . S
C1658 H1675 0.930 . S
C1659 O1642 1.264 . S
C1659 O1643 1.254 . S
C1660 Eu1596 2.848 . S
C1660 O1640 1.257 . S
C1660 O1645 1.249 . S
C1660 C1653 1.492 . S
C1661 H1626 0.931 . S
C1661 C1639 1.420 . S
C1661 C1662 1.351 . S
C1662 H1624 0.930 . S
C1662 C1630 1.423 . S
C1662 C1661 1.351 . S
C1663 O1647 1.276 . S
C1663 O1650 1.235 . S
C1664 C1665 1.393 . S
C1664 C1668 1.395 . S
C1664 C1671 1.492 . S
C1665 C1664 1.393 . S
C1665 C1666 1.392 . S
C1665 H1676 0.930 . S
C1666 C1665 1.392 . S
C1666 C1667 1.386 . S
C1667 C1666 1.386 . S
C1667 C1669 1.395 . S
C1667 H1677 0.930 . S
C1668 C1664 1.395 . S
C1668 C1669 1.379 . S
C1668 H1678 0.930 . S
C1669 C1667 1.395 . S
C1669 C1668 1.379 . S
C1669 H1679 0.930 . S
C1670 O1648 1.264 . S
C1670 O1649 1.236 1_655 S
C1671 Eu1607 2.848 1_455 S
C1671 O1646 1.257 . S
C1671 O1651 1.249 . S
C1671 C1664 1.492 . S
H1672 C1655 0.930 . S
H1673 C1656 0.930 . S
H1674 C1657 0.930 . S
H1675 C1658 0.930 . S
H1676 C1665 0.930 . S
H1677 C1667 0.930 . S
H1678 C1668 0.930 . S
H1679 C1669 0.930 . S
Eu1680 N1711 2.657 . S
Eu1680 N1718 2.609 . S
Eu1680 O1724 2.558 . S
Eu1680 O1725 2.612 . S
Eu1680 O1727 2.339 . S
Eu1680 O1728 2.563 . S
Eu1680 O1729 2.419 . S
Eu1680 O1731 2.380 . S
Eu1680 O1732 2.432 . S
Eu1680 C1744 2.848 . S
C1681 C1684 1.429 . S
C1681 C1685 1.411 . S
C1681 N1688 1.377 . S
C1682 C1684 1.420 . S
C1682 C1686 1.423 . S
C1682 C1694 1.392 . S
C1683 C1685 1.420 . S
C1683 C1686 1.351 . S
C1683 H1706 0.931 . S
C1684 C1681 1.429 . S
C1684 C1682 1.420 . S
C1684 N1692 1.362 . S
C1685 C1681 1.411 . S
C1685 C1683 1.420 . S
C1685 C1690 1.395 . S
C1686 C1682 1.423 . S
C1686 C1683 1.351 . S
C1686 H1698 0.930 . S
C1687 C1689 1.400 . S
C1687 C1690 1.386 . S
C1687 H1699 0.930 . S
N1688 C1681 1.377 . S
N1688 C1689 1.321 . S
N1688 Eu1691 2.609 . S
C1689 C1687 1.400 . S
C1689 N1688 1.321 . S
C1689 H1696 0.930 . S
C1690 C1685 1.395 . S
C1690 C1687 1.386 . S
C1690 H1709 0.930 . S
Eu1691 N1688 2.609 . S
Eu1691 N1692 2.657 . S
Eu1691 O1725 2.380 . S
Eu1691 O1726 2.432 . S
Eu1691 O1730 2.558 . S
Eu1691 O1731 2.612 . S
Eu1691 O1733 2.339 . S
Eu1691 O1734 2.563 . S
Eu1691 O1735 2.419 . S
Eu1691 C1755 2.848 . S
N1692 C1684 1.362 . S
N1692 Eu1691 2.657 . S
N1692 C1693 1.334 . S
C1693 N1692 1.334 . S
C1693 C1695 1.413 . S
C1693 H1700 0.929 . S
C1694 C1682 1.392 . S
C1694 C1695 1.367 . S
C1694 H1702 0.930 . S
C1695 C1693 1.413 . S
C1695 C1694 1.367 . S
C1695 H1697 0.930 . S
H1696 C1689 0.930 . S
H1697 C1695 0.930 . S
H1698 C1686 0.930 . S
H1699 C1687 0.930 . S
H1700 C1693 0.929 . S
H1701 C1715 0.930 . S
H1702 C1694 0.930 . S
H1703 C1721 0.930 . S
H1704 C1712 0.929 . S
H1705 C1719 0.930 . S
H1706 C1683 0.931 . S
H1707 C1713 0.930 . S
H1708 C1746 0.930 . S
H1709 C1690 0.930 . S
H1710 C1745 0.931 . S
N1711 Eu1680 2.657 . S
N1711 C1712 1.334 . S
N1711 C1716 1.362 . S
C1712 H1704 0.929 . S
C1712 N1711 1.334 . S
C1712 C1715 1.413 . S
C1713 H1707 0.930 . S
C1713 C1714 1.392 . S
C1713 C1715 1.367 . S
C1714 C1713 1.392 . S
C1714 C1716 1.420 . S
C1714 C1746 1.423 . S
C1715 H1701 0.930 . S
C1715 C1712 1.413 . S
C1715 C1713 1.367 . S
C1716 N1711 1.362 . S
C1716 C1714 1.420 . S
C1716 C1720 1.429 . S
H1717 C1722 0.930 . S
N1718 Eu1680 2.609 . S
N1718 C1720 1.377 . S
N1718 C1721 1.321 . S
C1719 H1705 0.930 . S
C1719 C1721 1.400 . S
C1719 C1722 1.386 . S
C1720 C1716 1.429 . S
C1720 N1718 1.377 . S
C1720 C1723 1.411 . S
C1721 H1703 0.930 . S
C1721 N1718 1.321 . S
C1721 C1719 1.400 . S
C1722 H1717 0.930 . S
C1722 C1719 1.386 . S
C1722 C1723 1.395 . S
C1723 C1720 1.411 . S
C1723 C1722 1.395 . S
C1723 C1745 1.420 . S
O1724 Eu1680 2.558 . S
O1724 C1744 1.257 . S
O1725 Eu1680 2.612 . S
O1725 Eu1691 2.380 . S
O1725 C1736 1.276 . S
O1726 Eu1691 2.432 . S
O1726 C1743 1.264 . S
O1727 Eu1680 2.339 . S
O1727 C1743 1.254 . S
O1728 Eu1680 2.563 . S
O1728 C1736 1.235 . S
O1729 Eu1680 2.419 . S
O1729 C1744 1.249 . S
O1730 Eu1691 2.558 . S
O1730 C1755 1.257 . S
O1731 Eu1680 2.380 . S
O1731 Eu1691 2.612 . S
O1731 C1747 1.276 . S
O1732 Eu1680 2.432 . S
O1732 C1754 1.264 . S
O1733 Eu1691 2.339 . S
O1733 C1754 1.254 . S
O1734 Eu1691 2.563 . S
O1734 C1747 1.235 . S
O1735 Eu1691 2.419 . S
O1735 C1755 1.249 . S
C1736 O1725 1.276 . S
C1736 O1728 1.235 . S
C1737 C1739 1.393 . S
C1737 C1741 1.395 . S
C1737 C1744 1.492 . S
C1738 C1739 1.392 . S
C1738 C1740 1.386 . S
C1739 C1737 1.393 . S
C1739 C1738 1.392 . S
C1739 H1756 0.930 . S
C1740 C1738 1.386 . S
C1740 C1742 1.395 . S
C1740 H1757 0.930 . S
C1741 C1737 1.395 . S
C1741 C1742 1.379 . S
C1741 H1758 0.930 . S
C1742 C1740 1.395 . S
C1742 C1741 1.379 . S
C1742 H1759 0.930 . S
C1743 O1726 1.264 . S
C1743 O1727 1.254 . S
C1744 Eu1680 2.848 . S
C1744 O1724 1.257 . S
C1744 O1729 1.249 . S
C1744 C1737 1.492 . S
C1745 H1710 0.931 . S
C1745 C1723 1.420 . S
C1745 C1746 1.351 . S
C1746 H1708 0.930 . S
C1746 C1714 1.423 . S
C1746 C1745 1.351 . S
C1747 O1731 1.276 . S
C1747 O1734 1.235 . S
C1748 C1749 1.393 . S
C1748 C1752 1.395 . S
C1748 C1755 1.492 . S
C1749 C1748 1.393 . S
C1749 C1750 1.392 . S
C1749 H1760 0.930 . S
C1750 C1749 1.392 . S
C1750 C1751 1.386 . S
C1751 C1750 1.386 . S
C1751 C1753 1.395 . S
C1751 H1761 0.930 . S
C1752 C1748 1.395 . S
C1752 C1753 1.379 . S
C1752 H1762 0.930 . S
C1753 C1751 1.395 . S
C1753 C1752 1.379 . S
C1753 H1763 0.930 . S
C1754 O1732 1.264 . S
C1754 O1733 1.254 . S
C1755 Eu1691 2.848 . S
C1755 O1730 1.257 . S
C1755 O1735 1.249 . S
C1755 C1748 1.492 . S
H1756 C1739 0.930 . S
H1757 C1740 0.930 . S
H1758 C1741 0.930 . S
H1759 C1742 0.930 . S
H1760 C1749 0.930 . S
H1761 C1751 0.930 . S
H1762 C1752 0.930 . S
H1763 C1753 0.930 . S
Eu1764 N1795 2.657 . S
Eu1764 N1802 2.609 . S
Eu1764 O1808 2.558 . S
Eu1764 O1809 2.612 . S
Eu1764 O1811 2.339 . S
Eu1764 O1812 2.563 . S
Eu1764 O1813 2.419 . S
Eu1764 O1815 2.380 . S
Eu1764 O1816 2.432 . S
Eu1764 C1828 2.848 . S
C1765 C1768 1.429 . S
C1765 C1769 1.411 . S
C1765 N1772 1.377 . S
C1766 C1768 1.420 . S
C1766 C1770 1.423 . S
C1766 C1778 1.392 . S
C1767 C1769 1.420 . S
C1767 C1770 1.351 . S
C1767 H1790 0.931 . S
C1768 C1765 1.429 . S
C1768 C1766 1.420 . S
C1768 N1776 1.362 . S
C1769 C1765 1.411 . S
C1769 C1767 1.420 . S
C1769 C1774 1.395 . S
C1770 C1766 1.423 . S
C1770 C1767 1.351 . S
C1770 H1782 0.930 . S
C1771 C1773 1.400 . S
C1771 C1774 1.386 . S
C1771 H1783 0.930 . S
N1772 C1765 1.377 . S
N1772 C1773 1.321 . S
N1772 Eu1775 2.609 . S
C1773 C1771 1.400 . S
C1773 N1772 1.321 . S
C1773 H1780 0.930 . S
C1774 C1769 1.395 . S
C1774 C1771 1.386 . S
C1774 H1793 0.930 . S
Eu1775 N1772 2.609 . S
Eu1775 N1776 2.657 . S
Eu1775 O1809 2.380 . S
Eu1775 O1810 2.432 . S
Eu1775 O1814 2.558 . S
Eu1775 O1815 2.612 . S
Eu1775 O1817 2.339 . S
Eu1775 O1818 2.563 . S
Eu1775 O1819 2.419 . S
Eu1775 C1839 2.848 . S
N1776 C1768 1.362 . S
N1776 Eu1775 2.657 . S
N1776 C1777 1.334 . S
C1777 N1776 1.334 . S
C1777 C1779 1.413 . S
C1777 H1784 0.929 . S
C1778 C1766 1.392 . S
C1778 C1779 1.367 . S
C1778 H1786 0.930 . S
C1779 C1777 1.413 . S
C1779 C1778 1.367 . S
C1779 H1781 0.930 . S
H1780 C1773 0.930 . S
H1781 C1779 0.930 . S
H1782 C1770 0.930 . S
H1783 C1771 0.930 . S
H1784 C1777 0.929 . S
H1785 C1799 0.930 . S
H1786 C1778 0.930 . S
H1787 C1805 0.930 . S
H1788 C1796 0.929 . S
H1789 C1803 0.930 . S
H1790 C1767 0.931 . S
H1791 C1797 0.930 . S
H1792 C1830 0.930 . S
H1793 C1774 0.930 . S
H1794 C1829 0.931 . S
N1795 Eu1764 2.657 . S
N1795 C1796 1.334 . S
N1795 C1800 1.362 . S
C1796 H1788 0.929 . S
C1796 N1795 1.334 . S
C1796 C1799 1.413 . S
C1797 H1791 0.930 . S
C1797 C1798 1.392 . S
C1797 C1799 1.367 . S
C1798 C1797 1.392 . S
C1798 C1800 1.420 . S
C1798 C1830 1.423 . S
C1799 H1785 0.930 . S
C1799 C1796 1.413 . S
C1799 C1797 1.367 . S
C1800 N1795 1.362 . S
C1800 C1798 1.420 . S
C1800 C1804 1.429 . S
H1801 C1806 0.930 . S
N1802 Eu1764 2.609 . S
N1802 C1804 1.377 . S
N1802 C1805 1.321 . S
C1803 H1789 0.930 . S
C1803 C1805 1.400 . S
C1803 C1806 1.386 . S
C1804 C1800 1.429 . S
C1804 N1802 1.377 . S
C1804 C1807 1.411 . S
C1805 H1787 0.930 . S
C1805 N1802 1.321 . S
C1805 C1803 1.400 . S
C1806 H1801 0.930 . S
C1806 C1803 1.386 . S
C1806 C1807 1.395 . S
C1807 C1804 1.411 . S
C1807 C1806 1.395 . S
C1807 C1829 1.420 . S
O1808 Eu1764 2.558 . S
O1808 C1828 1.257 . S
O1809 Eu1764 2.612 . S
O1809 Eu1775 2.380 . S
O1809 C1820 1.276 . S
O1810 Eu1775 2.432 . S
O1810 C1827 1.264 . S
O1811 Eu1764 2.339 . S
O1811 C1827 1.254 . S
O1812 Eu1764 2.563 . S
O1812 C1820 1.235 . S
O1813 Eu1764 2.419 . S
O1813 C1828 1.249 . S
O1814 Eu1775 2.558 . S
O1814 C1839 1.257 . S
O1815 Eu1764 2.380 . S
O1815 Eu1775 2.612 . S
O1815 C1831 1.276 . S
O1816 Eu1764 2.432 . S
O1816 C1838 1.264 . S
O1817 Eu1775 2.339 . S
O1817 C1838 1.254 . S
O1818 Eu1775 2.563 . S
O1818 C1831 1.235 . S
O1819 Eu1775 2.419 . S
O1819 C1839 1.249 . S
C1820 O1809 1.276 . S
C1820 O1812 1.235 . S
C1821 C1823 1.393 . S
C1821 C1825 1.395 . S
C1821 C1828 1.492 . S
C1822 C1823 1.392 . S
C1822 C1824 1.386 . S
C1823 C1821 1.393 . S
C1823 C1822 1.392 . S
C1823 H1840 0.930 . S
C1824 C1822 1.386 . S
C1824 C1826 1.395 . S
C1824 H1841 0.930 . S
C1825 C1821 1.395 . S
C1825 C1826 1.379 . S
C1825 H1842 0.930 . S
C1826 C1824 1.395 . S
C1826 C1825 1.379 . S
C1826 H1843 0.930 . S
C1827 O1810 1.264 . S
C1827 O1811 1.254 . S
C1828 Eu1764 2.848 . S
C1828 O1808 1.257 . S
C1828 O1813 1.249 . S
C1828 C1821 1.492 . S
C1829 H1794 0.931 . S
C1829 C1807 1.420 . S
C1829 C1830 1.351 . S
C1830 H1792 0.930 . S
C1830 C1798 1.423 . S
C1830 C1829 1.351 . S
C1831 O1815 1.276 . S
C1831 O1818 1.235 . S
C1832 C1833 1.393 . S
C1832 C1836 1.395 . S
C1832 C1839 1.492 . S
C1833 C1832 1.393 . S
C1833 C1834 1.392 . S
C1833 H1844 0.930 . S
C1834 C1833 1.392 . S
C1834 C1835 1.386 . S
C1835 C1834 1.386 . S
C1835 C1837 1.395 . S
C1835 H1845 0.930 . S
C1836 C1832 1.395 . S
C1836 C1837 1.379 . S
C1836 H1846 0.930 . S
C1837 C1835 1.395 . S
C1837 C1836 1.379 . S
C1837 H1847 0.930 . S
C1838 O1816 1.264 . S
C1838 O1817 1.254 . S
C1839 Eu1775 2.848 . S
C1839 O1814 1.257 . S
C1839 O1819 1.249 . S
C1839 C1832 1.492 . S
H1840 C1823 0.930 . S
H1841 C1824 0.930 . S
H1842 C1825 0.930 . S
H1843 C1826 0.930 . S
H1844 C1833 0.930 . S
H1845 C1835 0.930 . S
H1846 C1836 0.930 . S
H1847 C1837 0.930 . S
Eu1848 N1879 2.657 . S
Eu1848 N1886 2.609 . S
Eu1848 O1892 2.558 . S
Eu1848 O1893 2.612 . S
Eu1848 O1895 2.339 . S
Eu1848 O1896 2.563 . S
Eu1848 O1897 2.419 . S
Eu1848 O1899 2.380 . S
Eu1848 O1900 2.432 . S
Eu1848 C1912 2.848 . S
C1849 C1852 1.429 . S
C1849 C1853 1.411 . S
C1849 N1856 1.377 . S
C1850 C1852 1.420 . S
C1850 C1854 1.423 . S
C1850 C1862 1.392 . S
C1851 C1853 1.420 . S
C1851 C1854 1.351 . S
C1851 H1874 0.931 . S
C1852 C1849 1.429 . S
C1852 C1850 1.420 . S
C1852 N1860 1.362 . S
C1853 C1849 1.411 . S
C1853 C1851 1.420 . S
C1853 C1858 1.395 . S
C1854 C1850 1.423 . S
C1854 C1851 1.351 . S
C1854 H1866 0.930 . S
C1855 C1857 1.388 1_556 S
C1855 C1858 1.416 . S
C1855 H1867 0.912 1_556 S
N1856 C1849 1.377 . S
N1856 C1857 1.321 1_556 S
N1856 Eu1859 2.609 1_556 S
C1857 C1855 1.388 1_554 S
C1857 N1856 1.321 1_554 S
C1857 H1864 0.930 . S
C1858 C1853 1.395 . S
C1858 C1855 1.416 . S
C1858 H1877 0.930 . S
Eu1859 N1856 2.609 1_554 S
Eu1859 N1860 2.657 1_554 S
Eu1859 O1893 2.380 . S
Eu1859 O1894 2.432 . S
Eu1859 O1898 2.558 1_554 S
Eu1859 O1899 2.612 . S
Eu1859 O1901 2.339 1_554 S
Eu1859 O1902 2.563 . S
Eu1859 O1903 2.419 1_554 S
Eu1859 C1923 2.848 1_554 S
N1860 C1852 1.362 . S
N1860 Eu1859 2.657 1_556 S
N1860 C1861 1.334 . S
C1861 N1860 1.334 . S
C1861 C1863 1.413 . S
C1861 H1868 0.929 . S
C1862 C1850 1.392 . S
C1862 C1863 1.367 . S
C1862 H1870 0.930 . S
C1863 C1861 1.413 . S
C1863 C1862 1.367 . S
C1863 H1865 0.930 . S
H1864 C1857 0.930 . S
H1865 C1863 0.930 . S
H1866 C1854 0.930 . S
H1867 C1855 0.912 1_554 S
H1868 C1861 0.929 . S
H1869 C1883 0.930 . S
H1870 C1862 0.930 . S
H1871 C1889 0.930 . S
H1872 C1880 0.929 . S
H1873 C1887 0.930 . S
H1874 C1851 0.931 . S
H1875 C1881 0.930 . S
H1876 C1914 0.930 . S
H1877 C1858 0.930 . S
H1878 C1913 0.931 . S
N1879 Eu1848 2.657 . S
N1879 C1880 1.334 . S
N1879 C1884 1.362 . S
C1880 H1872 0.929 . S
C1880 N1879 1.334 . S
C1880 C1883 1.413 . S
C1881 H1875 0.930 . S
C1881 C1882 1.392 . S
C1881 C1883 1.367 . S
C1882 C1881 1.392 . S
C1882 C1884 1.420 . S
C1882 C1914 1.423 . S
C1883 H1869 0.930 . S
C1883 C1880 1.413 . S
C1883 C1881 1.367 . S
C1884 N1879 1.362 . S
C1884 C1882 1.420 . S
C1884 C1888 1.429 . S
H1885 C1890 0.930 . S
N1886 Eu1848 2.609 . S
N1886 C1888 1.377 . S
N1886 C1889 1.321 . S
C1887 H1873 0.930 . S
C1887 C1889 1.400 . S
C1887 C1890 1.386 . S
C1888 C1884 1.429 . S
C1888 N1886 1.377 . S
C1888 C1891 1.411 . S
C1889 H1871 0.930 . S
C1889 N1886 1.321 . S
C1889 C1887 1.400 . S
C1890 H1885 0.930 . S
C1890 C1887 1.386 . S
C1890 C1891 1.395 . S
C1891 C1888 1.411 . S
C1891 C1890 1.395 . S
C1891 C1913 1.420 . S
O1892 Eu1848 2.558 . S
O1892 C1912 1.257 . S
O1893 Eu1848 2.612 . S
O1893 Eu1859 2.380 . S
O1893 C1904 1.276 . S
O1894 Eu1859 2.432 . S
O1894 C1911 1.264 . S
O1895 Eu1848 2.339 . S
O1895 C1911 1.254 . S
O1896 Eu1848 2.563 . S
O1896 C1904 1.235 . S
O1897 Eu1848 2.419 . S
O1897 C1912 1.249 . S
O1898 Eu1859 2.558 1_556 S
O1898 C1923 1.257 . S
O1899 Eu1848 2.380 . S
O1899 Eu1859 2.612 . S
O1899 C1915 1.276 . S
O1900 Eu1848 2.432 . S
O1900 C1922 1.264 . S
O1901 Eu1859 2.339 1_556 S
O1901 C1922 1.254 1_556 S
O1902 Eu1859 2.563 . S
O1902 C1915 1.235 . S
O1903 Eu1859 2.419 1_556 S
O1903 C1923 1.249 . S
C1904 O1893 1.276 . S
C1904 O1896 1.235 . S
C1905 C1907 1.393 . S
C1905 C1909 1.395 . S
C1905 C1912 1.492 . S
C1906 C1907 1.392 . S
C1906 C1908 1.386 . S
C1907 C1905 1.393 . S
C1907 C1906 1.392 . S
C1907 H1924 0.930 . S
C1908 C1906 1.386 . S
C1908 C1910 1.395 . S
C1908 H1925 0.930 . S
C1909 C1905 1.395 . S
C1909 C1910 1.379 . S
C1909 H1926 0.930 . S
C1910 C1908 1.395 . S
C1910 C1909 1.379 . S
C1910 H1927 0.930 . S
C1911 O1894 1.264 . S
C1911 O1895 1.254 . S
C1912 Eu1848 2.848 . S
C1912 O1892 1.257 . S
C1912 O1897 1.249 . S
C1912 C1905 1.492 . S
C1913 H1878 0.931 . S
C1913 C1891 1.420 . S
C1913 C1914 1.351 . S
C1914 H1876 0.930 . S
C1914 C1882 1.423 . S
C1914 C1913 1.351 . S
C1915 O1899 1.276 . S
C1915 O1902 1.235 . S
C1916 C1917 1.393 . S
C1916 C1920 1.395 . S
C1916 C1923 1.492 . S
C1917 C1916 1.393 . S
C1917 C1918 1.392 . S
C1917 H1928 0.930 . S
C1918 C1917 1.392 . S
C1918 C1919 1.386 . S
C1919 C1918 1.386 . S
C1919 C1921 1.395 . S
C1919 H1929 0.930 . S
C1920 C1916 1.395 . S
C1920 C1921 1.379 . S
C1920 H1930 0.930 . S
C1921 C1919 1.395 . S
C1921 C1920 1.379 . S
C1921 H1931 0.930 . S
C1922 O1900 1.264 . S
C1922 O1901 1.254 1_554 S
C1923 Eu1859 2.848 1_556 S
C1923 O1898 1.257 . S
C1923 O1903 1.249 . S
C1923 C1916 1.492 . S
H1924 C1907 0.930 . S
H1925 C1908 0.930 . S
H1926 C1909 0.930 . S
H1927 C1910 0.930 . S
H1928 C1917 0.930 . S
H1929 C1919 0.930 . S
H1930 C1920 0.930 . S
H1931 C1921 0.930 . S
Eu1932 N1963 2.657 . S
Eu1932 N1970 2.609 . S
Eu1932 O1976 2.558 . S
Eu1932 O1977 2.612 . S
Eu1932 O1979 2.339 . S
Eu1932 O1980 2.563 . S
Eu1932 O1981 2.419 . S
Eu1932 O1983 2.380 . S
Eu1932 O1984 2.432 . S
Eu1932 C1996 2.848 . S
C1933 C1936 1.429 . S
C1933 C1937 1.411 . S
C1933 N1940 1.377 . S
C1934 C1936 1.420 . S
C1934 C1938 1.423 . S
C1934 C1946 1.392 . S
C1935 C1937 1.420 . S
C1935 C1938 1.351 . S
C1935 H1958 0.931 . S
C1936 C1933 1.429 . S
C1936 C1934 1.420 . S
C1936 N1944 1.362 . S
C1937 C1933 1.411 . S
C1937 C1935 1.420 . S
C1937 C1942 1.395 . S
C1938 C1934 1.423 . S
C1938 C1935 1.351 . S
C1938 H1950 0.930 . S
C1939 C1941 1.392 1_545 S
C1939 C1942 1.406 . S
C1939 H1951 0.918 1_545 S
N1940 C1933 1.377 . S
N1940 C1941 1.321 1_545 S
N1940 Eu1943 2.609 1_545 S
C1941 C1939 1.392 1_565 S
C1941 N1940 1.321 1_565 S
C1941 H1948 0.930 . S
C1942 C1937 1.395 . S
C1942 C1939 1.406 . S
C1942 H1961 0.930 . S
Eu1943 N1940 2.609 1_565 S
Eu1943 N1944 2.657 1_565 S
Eu1943 O1977 2.380 . S
Eu1943 O1978 2.432 . S
Eu1943 O1982 2.558 1_565 S
Eu1943 O1983 2.612 . S
Eu1943 O1985 2.327 1_565 S
Eu1943 O1986 2.563 . S
Eu1943 O1987 2.419 1_565 S
Eu1943 C2007 2.848 1_565 S
N1944 C1936 1.362 . S
N1944 Eu1943 2.657 1_545 S
N1944 C1945 1.334 . S
C1945 N1944 1.334 . S
C1945 C1947 1.413 . S
C1945 H1952 0.929 . S
C1946 C1934 1.392 . S
C1946 C1947 1.367 . S
C1946 H1954 0.930 . S
C1947 C1945 1.413 . S
C1947 C1946 1.367 . S
C1947 H1949 0.930 . S
H1948 C1941 0.930 . S
H1949 C1947 0.930 . S
H1950 C1938 0.930 . S
H1951 C1939 0.918 1_565 S
H1952 C1945 0.929 . S
H1953 C1967 0.930 . S
H1954 C1946 0.930 . S
H1955 C1973 0.930 . S
H1956 C1964 0.929 . S
H1957 C1971 0.930 . S
H1958 C1935 0.931 . S
H1959 C1965 0.930 . S
H1960 C1998 0.930 . S
H1961 C1942 0.930 . S
H1962 C1997 0.931 . S
N1963 Eu1932 2.657 . S
N1963 C1964 1.334 . S
N1963 C1968 1.362 . S
C1964 H1956 0.929 . S
C1964 N1963 1.334 . S
C1964 C1967 1.413 . S
C1965 H1959 0.930 . S
C1965 C1966 1.392 . S
C1965 C1967 1.367 . S
C1966 C1965 1.392 . S
C1966 C1968 1.420 . S
C1966 C1998 1.423 . S
C1967 H1953 0.930 . S
C1967 C1964 1.413 . S
C1967 C1965 1.367 . S
C1968 N1963 1.362 . S
C1968 C1966 1.420 . S
C1968 C1972 1.429 . S
H1969 C1974 0.930 . S
N1970 Eu1932 2.609 . S
N1970 C1972 1.377 . S
N1970 C1973 1.321 . S
C1971 H1957 0.930 . S
C1971 C1973 1.400 . S
C1971 C1974 1.386 . S
C1972 C1968 1.429 . S
C1972 N1970 1.377 . S
C1972 C1975 1.411 . S
C1973 H1955 0.930 . S
C1973 N1970 1.321 . S
C1973 C1971 1.400 . S
C1974 H1969 0.930 . S
C1974 C1971 1.386 . S
C1974 C1975 1.395 . S
C1975 C1972 1.411 . S
C1975 C1974 1.395 . S
C1975 C1997 1.420 . S
O1976 Eu1932 2.558 . S
O1976 C1996 1.257 . S
O1977 Eu1932 2.612 . S
O1977 Eu1943 2.380 . S
O1977 C1988 1.276 . S
O1978 Eu1943 2.432 . S
O1978 C1995 1.264 . S
O1979 Eu1932 2.339 . S
O1979 C1995 1.254 . S
O1980 Eu1932 2.563 . S
O1980 C1988 1.235 . S
O1981 Eu1932 2.419 . S
O1981 C1996 1.249 . S
O1982 Eu1943 2.558 1_545 S
O1982 C2007 1.257 . S
O1983 Eu1932 2.380 . S
O1983 Eu1943 2.612 . S
O1983 C1999 1.276 . S
O1984 Eu1932 2.432 . S
O1984 C2006 1.264 . S
O1985 Eu1943 2.327 1_545 S
O1985 C2006 1.240 1_545 S
O1986 Eu1943 2.563 . S
O1986 C1999 1.235 . S
O1987 Eu1943 2.419 1_545 S
O1987 C2007 1.249 . S
C1988 O1977 1.276 . S
C1988 O1980 1.235 . S
C1989 C1991 1.393 . S
C1989 C1993 1.395 . S
C1989 C1996 1.492 . S
C1990 C1991 1.392 . S
C1990 C1992 1.386 . S
C1991 C1989 1.393 . S
C1991 C1990 1.392 . S
C1991 H2008 0.930 . S
C1992 C1990 1.386 . S
C1992 C1994 1.395 . S
C1992 H2009 0.930 . S
C1993 C1989 1.395 . S
C1993 C1994 1.379 . S
C1993 H2010 0.930 . S
C1994 C1992 1.395 . S
C1994 C1993 1.379 . S
C1994 H2011 0.930 . S
C1995 O1978 1.264 . S
C1995 O1979 1.254 . S
C1996 Eu1932 2.848 . S
C1996 O1976 1.257 . S
C1996 O1981 1.249 . S
C1996 C1989 1.492 . S
C1997 H1962 0.931 . S
C1997 C1975 1.420 . S
C1997 C1998 1.351 . S
C1998 H1960 0.930 . S
C1998 C1966 1.423 . S
C1998 C1997 1.351 . S
C1999 O1983 1.276 . S
C1999 O1986 1.235 . S
C2000 C2001 1.393 . S
C2000 C2004 1.395 . S
C2000 C2007 1.492 . S
C2001 C2000 1.393 . S
C2001 C2002 1.392 . S
C2001 H2012 0.930 . S
C2002 C2001 1.392 . S
C2002 C2003 1.386 . S
C2003 C2002 1.386 . S
C2003 C2005 1.395 . S
C2003 H2013 0.930 . S
C2004 C2000 1.395 . S
C2004 C2005 1.379 . S
C2004 H2014 0.930 . S
C2005 C2003 1.395 . S
C2005 C2004 1.379 . S
C2005 H2015 0.930 . S
C2006 O1984 1.264 . S
C2006 O1985 1.240 1_565 S
C2007 Eu1943 2.848 1_545 S
C2007 O1982 1.257 . S
C2007 O1987 1.249 . S
C2007 C2000 1.492 . S
H2008 C1991 0.930 . S
H2009 C1992 0.930 . S
H2010 C1993 0.930 . S
H2011 C1994 0.930 . S
H2012 C2001 0.930 . S
H2013 C2003 0.930 . S
H2014 C2004 0.930 . S
H2015 C2005 0.930 . S
Eu2016 N2047 2.657 . S
Eu2016 N2054 2.609 1_565 S
Eu2016 O2060 2.558 1_565 S
Eu2016 O2061 2.612 . S
Eu2016 O2063 2.339 . S
Eu2016 O2064 2.563 1_565 S
Eu2016 O2065 2.419 1_565 S
Eu2016 O2067 2.380 . S
Eu2016 O2068 2.432 . S
Eu2016 C2080 2.848 1_565 S
C2017 C2020 1.429 . S
C2017 C2021 1.411 . S
C2017 N2024 1.377 . S
C2018 C2020 1.420 . S
C2018 C2022 1.423 . S
C2018 C2030 1.392 . S
C2019 C2021 1.420 . S
C2019 C2022 1.351 . S
C2019 H2042 0.931 . S
C2020 C2017 1.429 . S
C2020 C2018 1.420 . S
C2020 N2028 1.362 . S
C2021 C2017 1.411 . S
C2021 C2019 1.420 . S
C2021 C2026 1.395 . S
C2022 C2018 1.423 . S
C2022 C2019 1.351 . S
C2022 H2034 0.930 . S
C2023 C2025 1.400 . S
C2023 C2026 1.386 . S
C2023 H2035 0.930 . S
N2024 C2017 1.377 . S
N2024 C2025 1.321 . S
N2024 Eu2027 2.609 . S
C2025 C2023 1.400 . S
C2025 N2024 1.321 . S
C2025 H2032 0.930 . S
C2026 C2021 1.395 . S
C2026 C2023 1.386 . S
C2026 H2045 0.930 . S
Eu2027 N2024 2.609 . S
Eu2027 N2028 2.657 . S
Eu2027 O2061 2.380 . S
Eu2027 O2062 2.432 . S
Eu2027 O2066 2.558 . S
Eu2027 O2067 2.612 . S
Eu2027 O2069 2.339 . S
Eu2027 O2070 2.563 . S
Eu2027 O2071 2.419 . S
Eu2027 C2091 2.848 . S
N2028 C2020 1.362 . S
N2028 Eu2027 2.657 . S
N2028 C2029 1.334 . S
C2029 N2028 1.334 . S
C2029 C2031 1.413 . S
C2029 H2036 0.929 . S
C2030 C2018 1.392 . S
C2030 C2031 1.367 . S
C2030 H2038 0.930 . S
C2031 C2029 1.413 . S
C2031 C2030 1.367 . S
C2031 H2033 0.930 1_565 S
H2032 C2025 0.930 . S
H2033 C2031 0.930 1_545 S
H2034 C2022 0.930 . S
H2035 C2023 0.930 . S
H2036 C2029 0.929 . S
H2037 C2051 0.930 . S
H2038 C2030 0.930 . S
H2039 C2057 0.930 . S
H2040 C2048 0.929 . S
H2041 C2055 0.930 . S
H2042 C2019 0.931 . S
H2043 C2049 0.930 . S
H2044 C2082 0.930 . S
H2045 C2026 0.930 . S
H2046 C2081 0.931 . S
N2047 Eu2016 2.657 . S
N2047 C2048 1.334 . S
N2047 C2052 1.362 . S
C2048 H2040 0.929 . S
C2048 N2047 1.334 . S
C2048 C2051 1.413 . S
C2049 H2043 0.930 . S
C2049 C2050 1.392 . S
C2049 C2051 1.367 . S
C2050 C2049 1.392 . S
C2050 C2052 1.420 . S
C2050 C2082 1.423 . S
C2051 H2037 0.930 . S
C2051 C2048 1.413 . S
C2051 C2049 1.367 . S
C2052 N2047 1.362 . S
C2052 C2050 1.420 . S
C2052 C2056 1.429 . S
H2053 C2058 0.930 . S
N2054 Eu2016 2.609 1_545 S
N2054 C2056 1.377 1_545 S
N2054 C2057 1.321 . S
C2055 H2041 0.930 . S
C2055 C2057 1.400 . S
C2055 C2058 1.386 . S
C2056 C2052 1.429 . S
C2056 N2054 1.377 1_565 S
C2056 C2059 1.403 1_565 S
C2057 H2039 0.930 . S
C2057 N2054 1.321 . S
C2057 C2055 1.400 . S
C2058 H2053 0.930 . S
C2058 C2055 1.386 . S
C2058 C2059 1.416 . S
C2059 C2056 1.403 1_545 S
C2059 C2058 1.416 . S
C2059 C2081 1.407 1_545 S
O2060 Eu2016 2.558 1_545 S
O2060 C2080 1.257 . S
O2061 Eu2016 2.612 . S
O2061 Eu2027 2.380 . S
O2061 C2072 1.276 . S
O2062 Eu2027 2.432 . S
O2062 C2079 1.264 . S
O2063 Eu2016 2.339 . S
O2063 C2079 1.254 . S
O2064 Eu2016 2.563 1_545 S
O2064 C2072 1.235 1_545 S
O2065 Eu2016 2.419 1_545 S
O2065 C2080 1.249 . S
O2066 Eu2027 2.558 . S
O2066 C2091 1.257 . S
O2067 Eu2016 2.380 . S
O2067 Eu2027 2.612 . S
O2067 C2083 1.276 . S
O2068 Eu2016 2.432 . S
O2068 C2090 1.264 . S
O2069 Eu2027 2.339 . S
O2069 C2090 1.254 . S
O2070 Eu2027 2.563 . S
O2070 C2083 1.235 . S
O2071 Eu2027 2.419 . S
O2071 C2091 1.249 . S
C2072 O2061 1.276 . S
C2072 O2064 1.235 1_565 S
C2073 C2075 1.393 . S
C2073 C2077 1.395 . S
C2073 C2080 1.492 . S
C2074 C2075 1.392 . S
C2074 C2076 1.386 . S
C2075 C2073 1.393 . S
C2075 C2074 1.392 . S
C2075 H2092 0.930 . S
C2076 C2074 1.386 . S
C2076 C2078 1.395 . S
C2076 H2093 0.930 . S
C2077 C2073 1.395 . S
C2077 C2078 1.379 . S
C2077 H2094 0.930 . S
C2078 C2076 1.395 . S
C2078 C2077 1.379 . S
C2078 H2095 0.930 . S
C2079 O2062 1.264 . S
C2079 O2063 1.254 . S
C2080 Eu2016 2.848 1_545 S
C2080 O2060 1.257 . S
C2080 O2065 1.249 . S
C2080 C2073 1.492 . S
C2081 H2046 0.931 . S
C2081 C2059 1.407 1_565 S
C2081 C2082 1.351 . S
C2082 H2044 0.930 . S
C2082 C2050 1.423 . S
C2082 C2081 1.351 . S
C2083 O2067 1.276 . S
C2083 O2070 1.235 . S
C2084 C2085 1.393 . S
C2084 C2088 1.395 . S
C2084 C2091 1.492 . S
C2085 C2084 1.393 . S
C2085 C2086 1.392 . S
C2085 H2096 0.930 . S
C2086 C2085 1.392 . S
C2086 C2087 1.386 . S
C2087 C2086 1.386 . S
C2087 C2089 1.395 . S
C2087 H2097 0.930 . S
C2088 C2084 1.395 . S
C2088 C2089 1.379 . S
C2088 H2098 0.930 . S
C2089 C2087 1.395 . S
C2089 C2088 1.379 . S
C2089 H2099 0.930 . S
C2090 O2068 1.264 . S
C2090 O2069 1.254 . S
C2091 Eu2027 2.848 . S
C2091 O2066 1.257 . S
C2091 O2071 1.249 . S
C2091 C2084 1.492 . S
H2092 C2075 0.930 . S
H2093 C2076 0.930 . S
H2094 C2077 0.930 . S
H2095 C2078 0.930 . S
H2096 C2085 0.930 . S
H2097 C2087 0.930 . S
H2098 C2088 0.930 . S
H2099 C2089 0.930 . S
Eu2100 N2131 2.657 . S
Eu2100 N2138 2.609 . S
Eu2100 O2144 2.558 . S
Eu2100 O2145 2.612 . S
Eu2100 O2147 2.339 . S
Eu2100 O2148 2.563 . S
Eu2100 O2149 2.419 . S
Eu2100 O2151 2.380 . S
Eu2100 O2152 2.432 . S
Eu2100 C2164 2.848 . S
C2101 C2104 1.429 . S
C2101 C2105 1.411 . S
C2101 N2108 1.377 . S
C2102 C2104 1.420 . S
C2102 C2106 1.423 . S
C2102 C2114 1.392 . S
C2103 C2105 1.420 . S
C2103 C2106 1.351 . S
C2103 H2126 0.931 . S
C2104 C2101 1.429 . S
C2104 C2102 1.420 . S
C2104 N2112 1.362 . S
C2105 C2101 1.411 . S
C2105 C2103 1.420 . S
C2105 C2110 1.395 . S
C2106 C2102 1.423 . S
C2106 C2103 1.351 . S
C2106 H2118 0.930 . S
C2107 C2109 1.390 1_565 S
C2107 C2110 1.410 . S
C2107 H2119 0.915 1_565 S
N2108 C2101 1.377 . S
N2108 C2109 1.321 1_565 S
N2108 Eu2111 2.609 1_565 S
C2109 C2107 1.390 1_545 S
C2109 N2108 1.321 1_545 S
C2109 H2116 0.930 . S
C2110 C2105 1.395 . S
C2110 C2107 1.410 . S
C2110 H2129 0.930 . S
Eu2111 N2108 2.609 1_545 S
Eu2111 N2112 2.657 1_545 S
Eu2111 O2145 2.380 . S
Eu2111 O2146 2.432 . S
Eu2111 O2150 2.558 1_545 S
Eu2111 O2151 2.612 . S
Eu2111 O2153 2.339 1_545 S
Eu2111 O2154 2.563 . S
Eu2111 O2155 2.419 1_545 S
Eu2111 C2175 2.848 1_545 S
N2112 C2104 1.362 . S
N2112 Eu2111 2.657 1_565 S
N2112 C2113 1.334 . S
C2113 N2112 1.334 . S
C2113 C2115 1.413 . S
C2113 H2120 0.929 . S
C2114 C2102 1.392 . S
C2114 C2115 1.367 . S
C2114 H2122 0.930 . S
C2115 C2113 1.413 . S
C2115 C2114 1.367 . S
C2115 H2117 0.930 . S
H2116 C2109 0.930 . S
H2117 C2115 0.930 . S
H2118 C2106 0.930 . S
H2119 C2107 0.915 1_545 S
H2120 C2113 0.929 . S
H2121 C2135 0.930 . S
H2122 C2114 0.930 . S
H2123 C2141 0.930 . S
H2124 C2132 0.929 . S
H2125 C2139 0.930 . S
H2126 C2103 0.931 . S
H2127 C2133 0.930 . S
H2128 C2166 0.930 . S
H2129 C2110 0.930 . S
H2130 C2165 0.931 . S
N2131 Eu2100 2.657 . S
N2131 C2132 1.334 . S
N2131 C2136 1.362 . S
C2132 H2124 0.929 . S
C2132 N2131 1.334 . S
C2132 C2135 1.413 . S
C2133 H2127 0.930 . S
C2133 C2134 1.392 . S
C2133 C2135 1.367 . S
C2134 C2133 1.392 . S
C2134 C2136 1.420 . S
C2134 C2166 1.423 . S
C2135 H2121 0.930 . S
C2135 C2132 1.413 . S
C2135 C2133 1.367 . S
C2136 N2131 1.362 . S
C2136 C2134 1.420 . S
C2136 C2140 1.429 . S
H2137 C2142 0.930 . S
N2138 Eu2100 2.609 . S
N2138 C2140 1.377 . S
N2138 C2141 1.321 . S
C2139 H2125 0.930 . S
C2139 C2141 1.400 . S
C2139 C2142 1.386 . S
C2140 C2136 1.429 . S
C2140 N2138 1.377 . S
C2140 C2143 1.411 . S
C2141 H2123 0.930 . S
C2141 N2138 1.321 . S
C2141 C2139 1.400 . S
C2142 H2137 0.930 . S
C2142 C2139 1.386 . S
C2142 C2143 1.395 . S
C2143 C2140 1.411 . S
C2143 C2142 1.395 . S
C2143 C2165 1.420 . S
O2144 Eu2100 2.558 . S
O2144 C2164 1.257 . S
O2145 Eu2100 2.612 . S
O2145 Eu2111 2.380 . S
O2145 C2156 1.276 . S
O2146 Eu2111 2.432 . S
O2146 C2163 1.264 . S
O2147 Eu2100 2.339 . S
O2147 C2163 1.254 . S
O2148 Eu2100 2.563 . S
O2148 C2156 1.235 . S
O2149 Eu2100 2.419 . S
O2149 C2164 1.249 . S
O2150 Eu2111 2.558 1_565 S
O2150 C2175 1.257 . S
O2151 Eu2100 2.380 . S
O2151 Eu2111 2.612 . S
O2151 C2167 1.276 . S
O2152 Eu2100 2.432 . S
O2152 C2174 1.264 . S
O2153 Eu2111 2.339 1_565 S
O2153 C2174 1.254 1_565 S
O2154 Eu2111 2.563 . S
O2154 C2167 1.235 . S
O2155 Eu2111 2.419 1_565 S
O2155 C2175 1.249 . S
C2156 O2145 1.276 . S
C2156 O2148 1.235 . S
C2157 C2159 1.393 . S
C2157 C2161 1.395 . S
C2157 C2164 1.492 . S
C2158 C2159 1.392 . S
C2158 C2160 1.386 . S
C2159 C2157 1.393 . S
C2159 C2158 1.392 . S
C2159 H2176 0.930 . S
C2160 C2158 1.386 . S
C2160 C2162 1.395 . S
C2160 H2177 0.930 . S
C2161 C2157 1.395 . S
C2161 C2162 1.379 . S
C2161 H2178 0.930 . S
C2162 C2160 1.395 . S
C2162 C2161 1.379 . S
C2162 H2179 0.930 . S
C2163 O2146 1.264 . S
C2163 O2147 1.254 . S
C2164 Eu2100 2.848 . S
C2164 O2144 1.257 . S
C2164 O2149 1.249 . S
C2164 C2157 1.492 . S
C2165 H2130 0.931 . S
C2165 C2143 1.420 . S
C2165 C2166 1.351 . S
C2166 H2128 0.930 . S
C2166 C2134 1.423 . S
C2166 C2165 1.351 . S
C2167 O2151 1.276 . S
C2167 O2154 1.235 . S
C2168 C2169 1.393 . S
C2168 C2172 1.395 . S
C2168 C2175 1.492 . S
C2169 C2168 1.393 . S
C2169 C2170 1.392 . S
C2169 H2180 0.930 . S
C2170 C2169 1.392 . S
C2170 C2171 1.386 . S
C2171 C2170 1.386 . S
C2171 C2173 1.395 . S
C2171 H2181 0.930 . S
C2172 C2168 1.395 . S
C2172 C2173 1.379 . S
C2172 H2182 0.930 . S
C2173 C2171 1.395 . S
C2173 C2172 1.379 . S
C2173 H2183 0.930 . S
C2174 O2152 1.264 . S
C2174 O2153 1.254 1_545 S
C2175 Eu2111 2.848 1_565 S
C2175 O2150 1.257 . S
C2175 O2155 1.249 . S
C2175 C2168 1.492 . S
H2176 C2159 0.930 . S
H2177 C2160 0.930 . S
H2178 C2161 0.930 . S
H2179 C2162 0.930 . S
H2180 C2169 0.930 . S
H2181 C2171 0.930 . S
H2182 C2172 0.930 . S
H2183 C2173 0.930 . S
Eu2184 N2215 2.657 . S
Eu2184 N2222 2.609 1_545 S
Eu2184 O2228 2.558 1_545 S
Eu2184 O2229 2.612 . S
Eu2184 O2231 2.339 . S
Eu2184 O2232 2.563 1_545 S
Eu2184 O2233 2.419 1_545 S
Eu2184 O2235 2.380 . S
Eu2184 O2236 2.432 . S
Eu2184 C2248 2.848 1_545 S
C2185 C2188 1.429 . S
C2185 C2189 1.411 . S
C2185 N2192 1.377 . S
C2186 C2188 1.420 . S
C2186 C2190 1.423 . S
C2186 C2198 1.392 . S
C2187 C2189 1.420 . S
C2187 C2190 1.351 . S
C2187 H2210 0.931 . S
C2188 C2185 1.429 . S
C2188 C2186 1.420 . S
C2188 N2196 1.362 . S
C2189 C2185 1.411 . S
C2189 C2187 1.420 . S
C2189 C2194 1.395 . S
C2190 C2186 1.423 . S
C2190 C2187 1.351 . S
C2190 H2202 0.930 . S
C2191 C2193 1.400 . S
C2191 C2194 1.386 . S
C2191 H2203 0.930 . S
N2192 C2185 1.377 . S
N2192 C2193 1.321 . S
N2192 Eu2195 2.609 . S
C2193 C2191 1.400 . S
C2193 N2192 1.321 . S
C2193 H2200 0.930 . S
C2194 C2189 1.395 . S
C2194 C2191 1.386 . S
C2194 H2213 0.930 . S
Eu2195 N2192 2.609 . S
Eu2195 N2196 2.657 . S
Eu2195 O2229 2.380 . S
Eu2195 O2230 2.432 . S
Eu2195 O2234 2.558 . S
Eu2195 O2235 2.612 . S
Eu2195 O2237 2.339 . S
Eu2195 O2238 2.563 . S
Eu2195 O2239 2.419 . S
Eu2195 C2259 2.848 . S
N2196 C2188 1.362 . S
N2196 Eu2195 2.657 . S
N2196 C2197 1.334 . S
C2197 N2196 1.334 . S
C2197 C2199 1.413 . S
C2197 H2204 0.929 . S
C2198 C2186 1.392 . S
C2198 C2199 1.367 . S
C2198 H2206 0.930 . S
C2199 C2197 1.413 . S
C2199 C2198 1.367 . S
C2199 H2201 0.930 1_545 S
H2200 C2193 0.930 . S
H2201 C2199 0.930 1_565 S
H2202 C2190 0.930 . S
H2203 C2191 0.930 . S
H2204 C2197 0.929 . S
H2205 C2219 0.930 . S
H2206 C2198 0.930 . S
H2207 C2225 0.930 . S
H2208 C2216 0.929 . S
H2209 C2223 0.930 . S
H2210 C2187 0.931 . S
H2211 C2217 0.930 . S
H2212 C2250 0.930 . S
H2213 C2194 0.930 . S
H2214 C2249 0.931 . S
N2215 Eu2184 2.657 . S
N2215 C2216 1.334 . S
N2215 C2220 1.362 . S
C2216 H2208 0.929 . S
C2216 N2215 1.334 . S
C2216 C2219 1.413 . S
C2217 H2211 0.930 . S
C2217 C2218 1.392 . S
C2217 C2219 1.367 . S
C2218 C2217 1.392 . S
C2218 C2220 1.420 . S
C2218 C2250 1.423 . S
C2219 H2205 0.930 . S
C2219 C2216 1.413 . S
C2219 C2217 1.367 . S
C2220 N2215 1.362 . S
C2220 C2218 1.420 . S
C2220 C2224 1.429 . S
H2221 C2226 0.930 . S
N2222 Eu2184 2.609 1_565 S
N2222 C2224 1.377 1_565 S
N2222 C2225 1.321 . S
C2223 H2209 0.930 . S
C2223 C2225 1.400 . S
C2223 C2226 1.386 . S
C2224 C2220 1.429 . S
C2224 N2222 1.377 1_545 S
C2224 C2227 1.398 1_545 S
C2225 H2207 0.930 . S
C2225 N2222 1.321 . S
C2225 C2223 1.400 . S
C2226 H2221 0.930 . S
C2226 C2223 1.386 . S
C2226 C2227 1.428 . S
C2227 C2224 1.398 1_565 S
C2227 C2226 1.428 . S
C2227 C2249 1.400 1_565 S
O2228 Eu2184 2.558 1_565 S
O2228 C2248 1.257 . S
O2229 Eu2184 2.612 . S
O2229 Eu2195 2.380 . S
O2229 C2240 1.276 . S
O2230 Eu2195 2.432 . S
O2230 C2247 1.264 . S
O2231 Eu2184 2.339 . S
O2231 C2247 1.254 . S
O2232 Eu2184 2.563 1_565 S
O2232 C2240 1.235 1_565 S
O2233 Eu2184 2.419 1_565 S
O2233 C2248 1.249 . S
O2234 Eu2195 2.558 . S
O2234 C2259 1.257 . S
O2235 Eu2184 2.380 . S
O2235 Eu2195 2.612 . S
O2235 C2251 1.276 . S
O2236 Eu2184 2.432 . S
O2236 C2258 1.264 . S
O2237 Eu2195 2.339 . S
O2237 C2258 1.254 . S
O2238 Eu2195 2.563 . S
O2238 C2251 1.235 . S
O2239 Eu2195 2.419 . S
O2239 C2259 1.249 . S
C2240 O2229 1.276 . S
C2240 O2232 1.235 1_545 S
C2241 C2243 1.393 . S
C2241 C2245 1.395 . S
C2241 C2248 1.492 . S
C2242 C2243 1.392 . S
C2242 C2244 1.386 . S
C2243 C2241 1.393 . S
C2243 C2242 1.392 . S
C2243 H2260 0.930 . S
C2244 C2242 1.386 . S
C2244 C2246 1.395 . S
C2244 H2261 0.930 . S
C2245 C2241 1.395 . S
C2245 C2246 1.379 . S
C2245 H2262 0.930 . S
C2246 C2244 1.395 . S
C2246 C2245 1.379 . S
C2246 H2263 0.930 . S
C2247 O2230 1.264 . S
C2247 O2231 1.254 . S
C2248 Eu2184 2.848 1_565 S
C2248 O2228 1.257 . S
C2248 O2233 1.249 . S
C2248 C2241 1.492 . S
C2249 H2214 0.931 . S
C2249 C2227 1.400 1_545 S
C2249 C2250 1.351 . S
C2250 H2212 0.930 . S
C2250 C2218 1.423 . S
C2250 C2249 1.351 . S
C2251 O2235 1.276 . S
C2251 O2238 1.235 . S
C2252 C2253 1.393 . S
C2252 C2256 1.395 . S
C2252 C2259 1.492 . S
C2253 C2252 1.393 . S
C2253 C2254 1.392 . S
C2253 H2264 0.930 . S
C2254 C2253 1.392 . S
C2254 C2255 1.386 . S
C2255 C2254 1.386 . S
C2255 C2257 1.395 . S
C2255 H2265 0.930 . S
C2256 C2252 1.395 . S
C2256 C2257 1.379 . S
C2256 H2266 0.930 . S
C2257 C2255 1.395 . S
C2257 C2256 1.379 . S
C2257 H2267 0.930 . S
C2258 O2236 1.264 . S
C2258 O2237 1.254 . S
C2259 Eu2195 2.848 . S
C2259 O2234 1.257 . S
C2259 O2239 1.249 . S
C2259 C2252 1.492 . S
H2260 C2243 0.930 . S
H2261 C2244 0.930 . S
H2262 C2245 0.930 . S
H2263 C2246 0.930 . S
H2264 C2253 0.930 . S
H2265 C2255 0.930 . S
H2266 C2256 0.930 . S
H2267 C2257 0.930 . S
Eu2268 N2299 2.657 . S
Eu2268 N2306 2.609 1_556 S
Eu2268 O2312 2.558 1_556 S
Eu2268 O2313 2.612 . S
Eu2268 O2315 2.339 . S
Eu2268 O2316 2.563 1_556 S
Eu2268 O2317 2.419 1_556 S
Eu2268 O2319 2.380 . S
Eu2268 O2320 2.432 . S
Eu2268 C2332 2.848 1_556 S
C2269 C2272 1.429 . S
C2269 C2273 1.411 . S
C2269 N2276 1.377 . S
C2270 C2272 1.420 . S
C2270 C2274 1.423 . S
C2270 C2282 1.392 . S
C2271 C2273 1.420 . S
C2271 C2274 1.351 . S
C2271 H2294 0.931 . S
C2272 C2269 1.429 . S
C2272 C2270 1.420 . S
C2272 N2280 1.362 . S
C2273 C2269 1.411 . S
C2273 C2271 1.420 . S
C2273 C2278 1.395 . S
C2274 C2270 1.423 . S
C2274 C2271 1.351 . S
C2274 H2286 0.930 . S
C2275 C2277 1.400 . S
C2275 C2278 1.386 . S
C2275 H2287 0.930 . S
N2276 C2269 1.377 . S
N2276 C2277 1.321 . S
N2276 Eu2279 2.609 . S
C2277 C2275 1.400 . S
C2277 N2276 1.321 . S
C2277 H2284 0.930 . S
C2278 C2273 1.395 . S
C2278 C2275 1.386 . S
C2278 H2297 0.930 . S
Eu2279 N2276 2.609 . S
Eu2279 N2280 2.657 . S
Eu2279 O2313 2.380 . S
Eu2279 O2314 2.432 . S
Eu2279 O2318 2.558 . S
Eu2279 O2319 2.612 . S
Eu2279 O2321 2.339 . S
Eu2279 O2322 2.563 . S
Eu2279 O2323 2.419 . S
Eu2279 C2343 2.848 . S
N2280 C2272 1.362 . S
N2280 Eu2279 2.657 . S
N2280 C2281 1.334 . S
C2281 N2280 1.334 . S
C2281 C2283 1.413 . S
C2281 H2288 0.929 . S
C2282 C2270 1.392 . S
C2282 C2283 1.367 . S
C2282 H2290 0.930 . S
C2283 C2281 1.413 . S
C2283 C2282 1.367 . S
C2283 H2285 0.930 1_556 S
H2284 C2277 0.930 . S
H2285 C2283 0.930 1_554 S
H2286 C2274 0.930 . S
H2287 C2275 0.930 . S
H2288 C2281 0.929 . S
H2289 C2303 0.930 . S
H2290 C2282 0.930 . S
H2291 C2309 0.930 . S
H2292 C2300 0.929 . S
H2293 C2307 0.930 . S
H2294 C2271 0.931 . S
H2295 C2301 0.930 . S
H2296 C2334 0.930 . S
H2297 C2278 0.930 . S
H2298 C2333 0.931 . S
N2299 Eu2268 2.657 . S
N2299 C2300 1.334 . S
N2299 C2304 1.362 . S
C2300 H2292 0.929 . S
C2300 N2299 1.334 . S
C2300 C2303 1.413 . S
C2301 H2295 0.930 . S
C2301 C2302 1.392 . S
C2301 C2303 1.367 . S
C2302 C2301 1.392 . S
C2302 C2304 1.420 . S
C2302 C2334 1.423 . S
C2303 H2289 0.930 . S
C2303 C2300 1.413 . S
C2303 C2301 1.367 . S
C2304 N2299 1.362 . S
C2304 C2302 1.420 . S
C2304 C2308 1.429 . S
H2305 C2310 0.930 . S
N2306 Eu2268 2.609 1_554 S
N2306 C2308 1.377 1_554 S
N2306 C2309 1.321 . S
C2307 H2293 0.930 . S
C2307 C2309 1.400 . S
C2307 C2310 1.386 . S
C2308 C2304 1.429 . S
C2308 N2306 1.377 1_556 S
C2308 C2311 1.400 1_556 S
C2309 H2291 0.930 . S
C2309 N2306 1.321 . S
C2309 C2307 1.400 . S
C2310 H2305 0.930 . S
C2310 C2307 1.386 . S
C2310 C2311 1.424 . S
C2311 C2308 1.400 1_554 S
C2311 C2310 1.424 . S
C2311 C2333 1.402 1_554 S
O2312 Eu2268 2.558 1_554 S
O2312 C2332 1.257 . S
O2313 Eu2268 2.612 . S
O2313 Eu2279 2.380 . S
O2313 C2324 1.276 . S
O2314 Eu2279 2.432 . S
O2314 C2331 1.264 . S
O2315 Eu2268 2.339 . S
O2315 C2331 1.254 . S
O2316 Eu2268 2.563 1_554 S
O2316 C2324 1.235 1_554 S
O2317 Eu2268 2.419 1_554 S
O2317 C2332 1.249 . S
O2318 Eu2279 2.558 . S
O2318 C2343 1.257 . S
O2319 Eu2268 2.380 . S
O2319 Eu2279 2.612 . S
O2319 C2335 1.276 . S
O2320 Eu2268 2.432 . S
O2320 C2342 1.264 . S
O2321 Eu2279 2.339 . S
O2321 C2342 1.254 . S
O2322 Eu2279 2.563 . S
O2322 C2335 1.235 . S
O2323 Eu2279 2.419 . S
O2323 C2343 1.249 . S
C2324 O2313 1.276 . S
C2324 O2316 1.235 1_556 S
C2325 C2327 1.393 . S
C2325 C2329 1.395 . S
C2325 C2332 1.492 . S
C2326 C2327 1.392 . S
C2326 C2328 1.386 . S
C2327 C2325 1.393 . S
C2327 C2326 1.392 . S
C2327 H2344 0.930 . S
C2328 C2326 1.386 . S
C2328 C2330 1.395 . S
C2328 H2345 0.930 . S
C2329 C2325 1.395 . S
C2329 C2330 1.379 . S
C2329 H2346 0.930 . S
C2330 C2328 1.395 . S
C2330 C2329 1.379 . S
C2330 H2347 0.930 . S
C2331 O2314 1.264 . S
C2331 O2315 1.254 . S
C2332 Eu2268 2.848 1_554 S
C2332 O2312 1.257 . S
C2332 O2317 1.249 . S
C2332 C2325 1.492 . S
C2333 H2298 0.931 . S
C2333 C2311 1.402 1_556 S
C2333 C2334 1.351 . S
C2334 H2296 0.930 . S
C2334 C2302 1.423 . S
C2334 C2333 1.351 . S
C2335 O2319 1.276 . S
C2335 O2322 1.235 . S
C2336 C2337 1.393 . S
C2336 C2340 1.395 . S
C2336 C2343 1.492 . S
C2337 C2336 1.393 . S
C2337 C2338 1.392 . S
C2337 H2348 0.930 . S
C2338 C2337 1.392 . S
C2338 C2339 1.386 . S
C2339 C2338 1.386 . S
C2339 C2341 1.395 . S
C2339 H2349 0.930 . S
C2340 C2336 1.395 . S
C2340 C2341 1.379 . S
C2340 H2350 0.930 . S
C2341 C2339 1.395 . S
C2341 C2340 1.379 . S
C2341 H2351 0.930 . S
C2342 O2320 1.264 . S
C2342 O2321 1.254 . S
C2343 Eu2279 2.848 . S
C2343 O2318 1.257 . S
C2343 O2323 1.249 . S
C2343 C2336 1.492 . S
H2344 C2327 0.930 . S
H2345 C2328 0.930 . S
H2346 C2329 0.930 . S
H2347 C2330 0.930 . S
H2348 C2337 0.930 . S
H2349 C2339 0.930 . S
H2350 C2340 0.930 . S
H2351 C2341 0.930 . S
Eu2352 N2383 2.657 . S
Eu2352 N2390 2.609 . S
Eu2352 O2396 2.558 . S
Eu2352 O2397 2.612 . S
Eu2352 O2399 2.339 . S
Eu2352 O2400 2.563 . S
Eu2352 O2401 2.419 . S
Eu2352 O2403 2.380 . S
Eu2352 O2404 2.432 . S
Eu2352 C2416 2.848 . S
C2353 C2356 1.429 . S
C2353 C2357 1.411 . S
C2353 N2360 1.377 . S
C2354 C2356 1.420 . S
C2354 C2358 1.423 . S
C2354 C2366 1.392 . S
C2355 C2357 1.420 . S
C2355 C2358 1.351 . S
C2355 H2378 0.931 . S
C2356 C2353 1.429 . S
C2356 C2354 1.420 . S
C2356 N2364 1.362 . S
C2357 C2353 1.411 . S
C2357 C2355 1.420 . S
C2357 C2362 1.395 . S
C2358 C2354 1.423 . S
C2358 C2355 1.351 . S
C2358 H2370 0.930 . S
C2359 C2361 1.400 1_655 S
C2359 C2362 1.386 . S
C2359 H2371 0.930 1_655 S
N2360 C2353 1.377 . S
N2360 C2361 1.321 1_655 S
N2360 Eu2363 2.609 1_655 S
C2361 C2359 1.400 1_455 S
C2361 N2360 1.321 1_455 S
C2361 H2368 0.930 . S
C2362 C2357 1.395 . S
C2362 C2359 1.386 . S
C2362 H2381 0.930 . S
Eu2363 N2360 2.609 1_455 S
Eu2363 N2364 2.657 1_455 S
Eu2363 O2397 2.380 . S
Eu2363 O2398 2.432 . S
Eu2363 O2402 2.558 1_455 S
Eu2363 O2403 2.612 . S
Eu2363 O2405 2.339 1_455 S
Eu2363 O2406 2.563 . S
Eu2363 O2407 2.419 1_455 S
Eu2363 C2427 2.848 1_455 S
N2364 C2356 1.362 . S
N2364 Eu2363 2.657 1_655 S
N2364 C2365 1.334 . S
C2365 N2364 1.334 . S
C2365 C2367 1.413 . S
C2365 H2372 0.929 . S
C2366 C2354 1.392 . S
C2366 C2367 1.367 . S
C2366 H2374 0.930 . S
C2367 C2365 1.413 . S
C2367 C2366 1.367 . S
C2367 H2369 0.930 . S
H2368 C2361 0.930 . S
H2369 C2367 0.930 . S
H2370 C2358 0.930 . S
H2371 C2359 0.930 1_455 S
H2372 C2365 0.929 . S
H2373 C2387 0.930 . S
H2374 C2366 0.930 . S
H2375 C2393 0.930 . S
H2376 C2384 0.929 . S
H2377 C2391 0.930 . S
H2378 C2355 0.931 . S
H2379 C2385 0.930 . S
H2380 C2418 0.930 . S
H2381 C2362 0.930 . S
H2382 C2417 0.931 . S
N2383 Eu2352 2.657 . S
N2383 C2384 1.334 . S
N2383 C2388 1.362 . S
C2384 H2376 0.929 . S
C2384 N2383 1.334 . S
C2384 C2387 1.413 . S
C2385 H2379 0.930 . S
C2385 C2386 1.392 . S
C2385 C2387 1.367 . S
C2386 C2385 1.392 . S
C2386 C2388 1.420 . S
C2386 C2418 1.423 . S
C2387 H2373 0.930 . S
C2387 C2384 1.413 . S
C2387 C2385 1.367 . S
C2388 N2383 1.362 . S
C2388 C2386 1.420 . S
C2388 C2392 1.429 . S
H2389 C2394 0.930 . S
N2390 Eu2352 2.609 . S
N2390 C2392 1.377 . S
N2390 C2393 1.321 . S
C2391 H2377 0.930 . S
C2391 C2393 1.400 . S
C2391 C2394 1.386 . S
C2392 C2388 1.429 . S
C2392 N2390 1.377 . S
C2392 C2395 1.411 . S
C2393 H2375 0.930 . S
C2393 N2390 1.321 . S
C2393 C2391 1.400 . S
C2394 H2389 0.930 . S
C2394 C2391 1.386 . S
C2394 C2395 1.395 . S
C2395 C2392 1.411 . S
C2395 C2394 1.395 . S
C2395 C2417 1.420 . S
O2396 Eu2352 2.558 . S
O2396 C2416 1.257 . S
O2397 Eu2352 2.612 . S
O2397 Eu2363 2.380 . S
O2397 C2408 1.276 . S
O2398 Eu2363 2.432 . S
O2398 C2415 1.264 . S
O2399 Eu2352 2.339 . S
O2399 C2415 1.254 . S
O2400 Eu2352 2.563 . S
O2400 C2408 1.235 . S
O2401 Eu2352 2.419 . S
O2401 C2416 1.249 . S
O2402 Eu2363 2.558 1_655 S
O2402 C2427 1.257 . S
O2403 Eu2352 2.380 . S
O2403 Eu2363 2.612 . S
O2403 C2419 1.276 . S
O2404 Eu2352 2.432 . S
O2404 C2426 1.264 . S
O2405 Eu2363 2.339 1_655 S
O2405 C2426 1.254 1_655 S
O2406 Eu2363 2.563 . S
O2406 C2419 1.235 . S
O2407 Eu2363 2.419 1_655 S
O2407 C2427 1.249 . S
C2408 O2397 1.276 . S
C2408 O2400 1.235 . S
C2409 C2411 1.393 . S
C2409 C2413 1.395 . S
C2409 C2416 1.492 . S
C2410 C2411 1.392 . S
C2410 C2412 1.386 . S
C2411 C2409 1.393 . S
C2411 C2410 1.392 . S
C2411 H2428 0.930 . S
C2412 C2410 1.386 . S
C2412 C2414 1.395 . S
C2412 H2429 0.930 . S
C2413 C2409 1.395 . S
C2413 C2414 1.379 . S
C2413 H2430 0.930 . S
C2414 C2412 1.395 . S
C2414 C2413 1.379 . S
C2414 H2431 0.930 . S
C2415 O2398 1.264 . S
C2415 O2399 1.254 . S
C2416 Eu2352 2.848 . S
C2416 O2396 1.257 . S
C2416 O2401 1.249 . S
C2416 C2409 1.492 . S
C2417 H2382 0.931 . S
C2417 C2395 1.420 . S
C2417 C2418 1.351 . S
C2418 H2380 0.930 . S
C2418 C2386 1.423 . S
C2418 C2417 1.351 . S
C2419 O2403 1.276 . S
C2419 O2406 1.235 . S
C2420 C2421 1.393 . S
C2420 C2424 1.395 . S
C2420 C2427 1.492 . S
C2421 C2420 1.393 . S
C2421 C2422 1.392 . S
C2421 H2432 0.930 . S
C2422 C2421 1.392 . S
C2422 C2423 1.386 . S
C2423 C2422 1.386 . S
C2423 C2425 1.395 . S
C2423 H2433 0.930 . S
C2424 C2420 1.395 . S
C2424 C2425 1.379 . S
C2424 H2434 0.930 . S
C2425 C2423 1.395 . S
C2425 C2424 1.379 . S
C2425 H2435 0.930 . S
C2426 O2404 1.264 . S
C2426 O2405 1.254 1_455 S
C2427 Eu2363 2.848 1_655 S
C2427 O2402 1.257 . S
C2427 O2407 1.249 . S
C2427 C2420 1.492 . S
H2428 C2411 0.930 . S
H2429 C2412 0.930 . S
H2430 C2413 0.930 . S
H2431 C2414 0.930 . S
H2432 C2421 0.930 . S
H2433 C2423 0.930 . S
H2434 C2424 0.930 . S
H2435 C2425 0.930 . S
Eu2436 N2467 2.657 . S
Eu2436 N2474 2.609 . S
Eu2436 O2480 2.558 . S
Eu2436 O2481 2.612 . S
Eu2436 O2483 2.339 . S
Eu2436 O2484 2.563 . S
Eu2436 O2485 2.419 . S
Eu2436 O2487 2.380 . S
Eu2436 O2488 2.432 . S
Eu2436 C2500 2.848 . S
C2437 C2440 1.429 . S
C2437 C2441 1.411 . S
C2437 N2444 1.377 . S
C2438 C2440 1.420 . S
C2438 C2442 1.423 . S
C2438 C2450 1.392 . S
C2439 C2441 1.420 . S
C2439 C2442 1.351 . S
C2439 H2462 0.931 . S
C2440 C2437 1.429 . S
C2440 C2438 1.420 . S
C2440 N2448 1.362 . S
C2441 C2437 1.411 . S
C2441 C2439 1.420 . S
C2441 C2446 1.395 . S
C2442 C2438 1.423 . S
C2442 C2439 1.351 . S
C2442 H2454 0.930 . S
C2443 C2445 1.400 . S
C2443 C2446 1.386 . S
C2443 H2455 0.930 . S
N2444 C2437 1.377 . S
N2444 C2445 1.321 . S
N2444 Eu2447 2.609 . S
C2445 C2443 1.400 . S
C2445 N2444 1.321 . S
C2445 H2452 0.930 . S
C2446 C2441 1.395 . S
C2446 C2443 1.386 . S
C2446 H2465 0.930 . S
Eu2447 N2444 2.609 . S
Eu2447 N2448 2.657 . S
Eu2447 O2481 2.380 . S
Eu2447 O2482 2.432 . S
Eu2447 O2486 2.558 . S
Eu2447 O2487 2.612 . S
Eu2447 O2489 2.339 . S
Eu2447 O2490 2.563 . S
Eu2447 O2491 2.419 . S
Eu2447 C2511 2.848 . S
N2448 C2440 1.362 . S
N2448 Eu2447 2.657 . S
N2448 C2449 1.334 . S
C2449 N2448 1.334 . S
C2449 C2451 1.413 . S
C2449 H2456 0.929 . S
C2450 C2438 1.392 . S
C2450 C2451 1.367 . S
C2450 H2458 0.930 . S
C2451 C2449 1.413 . S
C2451 C2450 1.367 . S
C2451 H2453 0.930 . S
H2452 C2445 0.930 . S
H2453 C2451 0.930 . S
H2454 C2442 0.930 . S
H2455 C2443 0.930 . S
H2456 C2449 0.929 . S
H2457 C2471 0.930 . S
H2458 C2450 0.930 . S
H2459 C2477 0.930 . S
H2460 C2468 0.929 . S
H2461 C2475 0.930 . S
H2462 C2439 0.931 . S
H2463 C2469 0.930 . S
H2464 C2502 0.930 . S
H2465 C2446 0.930 . S
H2466 C2501 0.931 . S
N2467 Eu2436 2.657 . S
N2467 C2468 1.334 . S
N2467 C2472 1.362 . S
C2468 H2460 0.929 . S
C2468 N2467 1.334 . S
C2468 C2471 1.413 . S
C2469 H2463 0.930 . S
C2469 C2470 1.392 . S
C2469 C2471 1.367 . S
C2470 C2469 1.392 . S
C2470 C2472 1.420 . S
C2470 C2502 1.423 . S
C2471 H2457 0.930 . S
C2471 C2468 1.413 . S
C2471 C2469 1.367 . S
C2472 N2467 1.362 . S
C2472 C2470 1.420 . S
C2472 C2476 1.429 . S
H2473 C2478 0.930 . S
N2474 Eu2436 2.609 . S
N2474 C2476 1.377 . S
N2474 C2477 1.321 . S
C2475 H2461 0.930 . S
C2475 C2477 1.400 . S
C2475 C2478 1.386 . S
C2476 C2472 1.429 . S
C2476 N2474 1.377 . S
C2476 C2479 1.411 . S
C2477 H2459 0.930 . S
C2477 N2474 1.321 . S
C2477 C2475 1.400 . S
C2478 H2473 0.930 . S
C2478 C2475 1.386 . S
C2478 C2479 1.395 . S
C2479 C2476 1.411 . S
C2479 C2478 1.395 . S
C2479 C2501 1.420 . S
O2480 Eu2436 2.558 . S
O2480 C2500 1.257 . S
O2481 Eu2436 2.612 . S
O2481 Eu2447 2.380 . S
O2481 C2492 1.276 . S
O2482 Eu2447 2.432 . S
O2482 C2499 1.264 . S
O2483 Eu2436 2.339 . S
O2483 C2499 1.254 . S
O2484 Eu2436 2.563 . S
O2484 C2492 1.235 . S
O2485 Eu2436 2.419 . S
O2485 C2500 1.249 . S
O2486 Eu2447 2.558 . S
O2486 C2511 1.257 . S
O2487 Eu2436 2.380 . S
O2487 Eu2447 2.612 . S
O2487 C2503 1.276 . S
O2488 Eu2436 2.432 . S
O2488 C2510 1.264 . S
O2489 Eu2447 2.339 . S
O2489 C2510 1.254 . S
O2490 Eu2447 2.563 . S
O2490 C2503 1.235 . S
O2491 Eu2447 2.419 . S
O2491 C2511 1.249 . S
C2492 O2481 1.276 . S
C2492 O2484 1.235 . S
C2493 C2495 1.393 . S
C2493 C2497 1.395 . S
C2493 C2500 1.492 . S
C2494 C2495 1.392 . S
C2494 C2496 1.386 . S
C2495 C2493 1.393 . S
C2495 C2494 1.392 . S
C2495 H2512 0.930 . S
C2496 C2494 1.386 . S
C2496 C2498 1.395 . S
C2496 H2513 0.930 . S
C2497 C2493 1.395 . S
C2497 C2498 1.379 . S
C2497 H2514 0.930 . S
C2498 C2496 1.395 . S
C2498 C2497 1.379 . S
C2498 H2515 0.930 . S
C2499 O2482 1.264 . S
C2499 O2483 1.254 . S
C2500 Eu2436 2.848 . S
C2500 O2480 1.257 . S
C2500 O2485 1.249 . S
C2500 C2493 1.492 . S
C2501 H2466 0.931 . S
C2501 C2479 1.420 . S
C2501 C2502 1.351 . S
C2502 H2464 0.930 . S
C2502 C2470 1.423 . S
C2502 C2501 1.351 . S
C2503 O2487 1.276 . S
C2503 O2490 1.235 . S
C2504 C2505 1.393 . S
C2504 C2508 1.395 . S
C2504 C2511 1.492 . S
C2505 C2504 1.393 . S
C2505 C2506 1.392 . S
C2505 H2516 0.930 . S
C2506 C2505 1.392 . S
C2506 C2507 1.386 . S
C2507 C2506 1.386 . S
C2507 C2509 1.395 . S
C2507 H2517 0.930 . S
C2508 C2504 1.395 . S
C2508 C2509 1.379 . S
C2508 H2518 0.930 . S
C2509 C2507 1.395 . S
C2509 C2508 1.379 . S
C2509 H2519 0.930 . S
C2510 O2488 1.264 . S
C2510 O2489 1.254 . S
C2511 Eu2447 2.848 . S
C2511 O2486 1.257 . S
C2511 O2491 1.249 . S
C2511 C2504 1.492 . S
H2512 C2495 0.930 . S
H2513 C2496 0.930 . S
H2514 C2497 0.930 . S
H2515 C2498 0.930 . S
H2516 C2505 0.930 . S
H2517 C2507 0.930 . S
H2518 C2508 0.930 . S
H2519 C2509 0.930 . S
Eu2520 N2551 2.657 . S
Eu2520 N2558 2.609 . S
Eu2520 O2564 2.558 . S
Eu2520 O2565 2.612 . S
Eu2520 O2567 2.339 . S
Eu2520 O2568 2.563 . S
Eu2520 O2569 2.419 . S
Eu2520 O2571 2.380 . S
Eu2520 O2572 2.432 . S
Eu2520 C2584 2.848 . S
C2521 C2524 1.429 . S
C2521 C2525 1.411 . S
C2521 N2528 1.377 . S
C2522 C2524 1.420 . S
C2522 C2526 1.423 . S
C2522 C2534 1.392 . S
C2523 C2525 1.420 . S
C2523 C2526 1.351 . S
C2523 H2546 0.931 . S
C2524 C2521 1.429 . S
C2524 C2522 1.420 . S
C2524 N2532 1.362 . S
C2525 C2521 1.411 . S
C2525 C2523 1.420 . S
C2525 C2530 1.395 . S
C2526 C2522 1.423 . S
C2526 C2523 1.351 . S
C2526 H2538 0.930 . S
C2527 C2529 1.400 . S
C2527 C2530 1.386 . S
C2527 H2539 0.930 . S
N2528 C2521 1.377 . S
N2528 C2529 1.321 . S
N2528 Eu2531 2.609 . S
C2529 C2527 1.400 . S
C2529 N2528 1.321 . S
C2529 H2536 0.930 . S
C2530 C2525 1.395 . S
C2530 C2527 1.386 . S
C2530 H2549 0.930 . S
Eu2531 N2528 2.609 . S
Eu2531 N2532 2.657 . S
Eu2531 O2565 2.380 . S
Eu2531 O2566 2.432 . S
Eu2531 O2570 2.558 . S
Eu2531 O2571 2.612 . S
Eu2531 O2573 2.339 . S
Eu2531 O2574 2.563 . S
Eu2531 O2575 2.419 . S
Eu2531 C2595 2.848 . S
N2532 C2524 1.362 . S
N2532 Eu2531 2.657 . S
N2532 C2533 1.334 . S
C2533 N2532 1.334 . S
C2533 C2535 1.413 . S
C2533 H2540 0.929 . S
C2534 C2522 1.392 . S
C2534 C2535 1.367 . S
C2534 H2542 0.930 . S
C2535 C2533 1.413 . S
C2535 C2534 1.367 . S
C2535 H2537 0.930 . S
H2536 C2529 0.930 . S
H2537 C2535 0.930 . S
H2538 C2526 0.930 . S
H2539 C2527 0.930 . S
H2540 C2533 0.929 . S
H2541 C2555 0.930 . S
H2542 C2534 0.930 . S
H2543 C2561 0.930 . S
H2544 C2552 0.929 . S
H2545 C2559 0.930 . S
H2546 C2523 0.931 . S
H2547 C2553 0.930 . S
H2548 C2586 0.930 . S
H2549 C2530 0.930 . S
H2550 C2585 0.931 . S
N2551 Eu2520 2.657 . S
N2551 C2552 1.334 . S
N2551 C2556 1.362 . S
C2552 H2544 0.929 . S
C2552 N2551 1.334 . S
C2552 C2555 1.413 . S
C2553 H2547 0.930 . S
C2553 C2554 1.392 . S
C2553 C2555 1.367 . S
C2554 C2553 1.392 . S
C2554 C2556 1.420 . S
C2554 C2586 1.423 . S
C2555 H2541 0.930 . S
C2555 C2552 1.413 . S
C2555 C2553 1.367 . S
C2556 N2551 1.362 . S
C2556 C2554 1.420 . S
C2556 C2560 1.429 . S
H2557 C2562 0.930 . S
N2558 Eu2520 2.609 . S
N2558 C2560 1.377 . S
N2558 C2561 1.321 . S
C2559 H2545 0.930 . S
C2559 C2561 1.400 . S
C2559 C2562 1.386 . S
C2560 C2556 1.429 . S
C2560 N2558 1.377 . S
C2560 C2563 1.411 . S
C2561 H2543 0.930 . S
C2561 N2558 1.321 . S
C2561 C2559 1.400 . S
C2562 H2557 0.930 . S
C2562 C2559 1.386 . S
C2562 C2563 1.395 . S
C2563 C2560 1.411 . S
C2563 C2562 1.395 . S
C2563 C2585 1.420 . S
O2564 Eu2520 2.558 . S
O2564 C2584 1.257 . S
O2565 Eu2520 2.612 . S
O2565 Eu2531 2.380 . S
O2565 C2576 1.276 . S
O2566 Eu2531 2.432 . S
O2566 C2583 1.264 . S
O2567 Eu2520 2.339 . S
O2567 C2583 1.254 . S
O2568 Eu2520 2.563 . S
O2568 C2576 1.235 . S
O2569 Eu2520 2.419 . S
O2569 C2584 1.249 . S
O2570 Eu2531 2.558 . S
O2570 C2595 1.257 . S
O2571 Eu2520 2.380 . S
O2571 Eu2531 2.612 . S
O2571 C2587 1.276 . S
O2572 Eu2520 2.432 . S
O2572 C2594 1.264 . S
O2573 Eu2531 2.339 . S
O2573 C2594 1.254 . S
O2574 Eu2531 2.563 . S
O2574 C2587 1.235 . S
O2575 Eu2531 2.419 . S
O2575 C2595 1.249 . S
C2576 O2565 1.276 . S
C2576 O2568 1.235 . S
C2577 C2579 1.393 . S
C2577 C2581 1.395 . S
C2577 C2584 1.492 . S
C2578 C2579 1.392 . S
C2578 C2580 1.386 . S
C2579 C2577 1.393 . S
C2579 C2578 1.392 . S
C2579 H2596 0.930 . S
C2580 C2578 1.386 . S
C2580 C2582 1.395 . S
C2580 H2597 0.930 . S
C2581 C2577 1.395 . S
C2581 C2582 1.379 . S
C2581 H2598 0.930 . S
C2582 C2580 1.395 . S
C2582 C2581 1.379 . S
C2582 H2599 0.930 . S
C2583 O2566 1.264 . S
C2583 O2567 1.254 . S
C2584 Eu2520 2.848 . S
C2584 O2564 1.257 . S
C2584 O2569 1.249 . S
C2584 C2577 1.492 . S
C2585 H2550 0.931 . S
C2585 C2563 1.420 . S
C2585 C2586 1.351 . S
C2586 H2548 0.930 . S
C2586 C2554 1.423 . S
C2586 C2585 1.351 . S
C2587 O2571 1.276 . S
C2587 O2574 1.235 . S
C2588 C2589 1.393 . S
C2588 C2592 1.395 . S
C2588 C2595 1.492 . S
C2589 C2588 1.393 . S
C2589 C2590 1.392 . S
C2589 H2600 0.930 . S
C2590 C2589 1.392 . S
C2590 C2591 1.386 . S
C2591 C2590 1.386 . S
C2591 C2593 1.395 . S
C2591 H2601 0.930 . S
C2592 C2588 1.395 . S
C2592 C2593 1.379 . S
C2592 H2602 0.930 . S
C2593 C2591 1.395 . S
C2593 C2592 1.379 . S
C2593 H2603 0.930 . S
C2594 O2572 1.264 . S
C2594 O2573 1.254 . S
C2595 Eu2531 2.848 . S
C2595 O2570 1.257 . S
C2595 O2575 1.249 . S
C2595 C2588 1.492 . S
H2596 C2579 0.930 . S
H2597 C2580 0.930 . S
H2598 C2581 0.930 . S
H2599 C2582 0.930 . S
H2600 C2589 0.930 . S
H2601 C2591 0.930 . S
H2602 C2592 0.930 . S
H2603 C2593 0.930 . S
Eu2604 N2635 2.657 . S
Eu2604 N2642 2.609 . S
Eu2604 O2648 2.558 . S
Eu2604 O2649 2.612 . S
Eu2604 O2651 2.339 . S
Eu2604 O2652 2.563 . S
Eu2604 O2653 2.419 . S
Eu2604 O2655 2.380 . S
Eu2604 O2656 2.432 . S
Eu2604 C2668 2.848 . S
C2605 C2608 1.429 . S
C2605 C2609 1.403 1_655 S
C2605 N2612 1.377 1_655 S
C2606 C2608 1.420 . S
C2606 C2610 1.423 . S
C2606 C2618 1.392 . S
C2607 C2609 1.408 1_655 S
C2607 C2610 1.351 . S
C2607 H2630 0.931 . S
C2608 C2605 1.429 . S
C2608 C2606 1.420 . S
C2608 N2616 1.362 . S
C2609 C2605 1.403 1_455 S
C2609 C2607 1.408 1_455 S
C2609 C2614 1.415 . S
C2610 C2606 1.423 . S
C2610 C2607 1.351 . S
C2610 H2622 0.930 . S
C2611 C2613 1.400 . S
C2611 C2614 1.386 . S
C2611 H2623 0.930 . S
N2612 C2605 1.377 1_455 S
N2612 C2613 1.321 . S
N2612 Eu2615 2.609 1_455 S
C2613 C2611 1.400 . S
C2613 N2612 1.321 . S
C2613 H2620 0.930 . S
C2614 C2609 1.415 . S
C2614 C2611 1.386 . S
C2614 H2633 0.930 . S
Eu2615 N2612 2.609 1_655 S
Eu2615 N2616 2.657 . S
Eu2615 O2649 2.380 . S
Eu2615 O2650 2.432 . S
Eu2615 O2654 2.558 1_655 S
Eu2615 O2655 2.612 . S
Eu2615 O2657 2.339 . S
Eu2615 O2658 2.563 1_655 S
Eu2615 O2659 2.419 1_655 S
Eu2615 C2679 2.848 1_655 S
N2616 C2608 1.362 . S
N2616 Eu2615 2.657 . S
N2616 C2617 1.334 . S
C2617 N2616 1.334 . S
C2617 C2619 1.413 . S
C2617 H2624 0.929 . S
C2618 C2606 1.392 . S
C2618 C2619 1.367 . S
C2618 H2626 0.930 . S
C2619 C2617 1.413 . S
C2619 C2618 1.367 . S
C2619 H2621 0.930 . S
H2620 C2613 0.930 . S
H2621 C2619 0.930 . S
H2622 C2610 0.930 . S
H2623 C2611 0.930 . S
H2624 C2617 0.929 . S
H2625 C2639 0.930 1_455 S
H2626 C2618 0.930 . S
H2627 C2645 0.930 . S
H2628 C2636 0.929 . S
H2629 C2643 0.930 . S
H2630 C2607 0.931 . S
H2631 C2637 0.930 . S
H2632 C2670 0.930 . S
H2633 C2614 0.930 . S
H2634 C2669 0.931 . S
N2635 Eu2604 2.657 . S
N2635 C2636 1.334 . S
N2635 C2640 1.362 . S
C2636 H2628 0.929 . S
C2636 N2635 1.334 . S
C2636 C2639 1.413 . S
C2637 H2631 0.930 . S
C2637 C2638 1.392 . S
C2637 C2639 1.367 . S
C2638 C2637 1.392 . S
C2638 C2640 1.420 . S
C2638 C2670 1.423 . S
C2639 H2625 0.930 1_655 S
C2639 C2636 1.413 . S
C2639 C2637 1.367 . S
C2640 N2635 1.362 . S
C2640 C2638 1.420 . S
C2640 C2644 1.429 . S
H2641 C2646 0.930 . S
N2642 Eu2604 2.609 . S
N2642 C2644 1.377 . S
N2642 C2645 1.321 . S
C2643 H2629 0.930 . S
C2643 C2645 1.400 . S
C2643 C2646 1.386 . S
C2644 C2640 1.429 . S
C2644 N2642 1.377 . S
C2644 C2647 1.411 . S
C2645 H2627 0.930 . S
C2645 N2642 1.321 . S
C2645 C2643 1.400 . S
C2646 H2641 0.930 . S
C2646 C2643 1.386 . S
C2646 C2647 1.395 . S
C2647 C2644 1.411 . S
C2647 C2646 1.395 . S
C2647 C2669 1.420 . S
O2648 Eu2604 2.558 . S
O2648 C2668 1.257 . S
O2649 Eu2604 2.612 . S
O2649 Eu2615 2.380 . S
O2649 C2660 1.276 . S
O2650 Eu2615 2.432 . S
O2650 C2667 1.264 . S
O2651 Eu2604 2.339 . S
O2651 C2667 1.254 . S
O2652 Eu2604 2.563 . S
O2652 C2660 1.235 . S
O2653 Eu2604 2.419 . S
O2653 C2668 1.249 . S
O2654 Eu2615 2.558 1_455 S
O2654 C2679 1.257 . S
O2655 Eu2604 2.380 . S
O2655 Eu2615 2.612 . S
O2655 C2671 1.276 . S
O2656 Eu2604 2.432 . S
O2656 C2678 1.264 . S
O2657 Eu2615 2.339 . S
O2657 C2678 1.254 . S
O2658 Eu2615 2.563 1_455 S
O2658 C2671 1.235 1_455 S
O2659 Eu2615 2.419 1_455 S
O2659 C2679 1.249 . S
C2660 O2649 1.276 . S
C2660 O2652 1.235 . S
C2661 C2663 1.393 . S
C2661 C2665 1.395 . S
C2661 C2668 1.492 . S
C2662 C2663 1.392 . S
C2662 C2664 1.386 . S
C2663 C2661 1.393 . S
C2663 C2662 1.392 . S
C2663 H2680 0.930 . S
C2664 C2662 1.386 . S
C2664 C2666 1.395 . S
C2664 H2681 0.930 . S
C2665 C2661 1.395 . S
C2665 C2666 1.379 . S
C2665 H2682 0.930 . S
C2666 C2664 1.395 . S
C2666 C2665 1.379 . S
C2666 H2683 0.930 . S
C2667 O2650 1.264 . S
C2667 O2651 1.254 . S
C2668 Eu2604 2.848 . S
C2668 O2648 1.257 . S
C2668 O2653 1.249 . S
C2668 C2661 1.492 . S
C2669 H2634 0.931 . S
C2669 C2647 1.420 . S
C2669 C2670 1.351 . S
C2670 H2632 0.930 . S
C2670 C2638 1.423 . S
C2670 C2669 1.351 . S
C2671 O2655 1.276 . S
C2671 O2658 1.235 1_655 S
C2672 C2673 1.393 . S
C2672 C2676 1.395 . S
C2672 C2679 1.492 . S
C2673 C2672 1.393 . S
C2673 C2674 1.392 . S
C2673 H2684 0.930 . S
C2674 C2673 1.392 . S
C2674 C2675 1.386 . S
C2675 C2674 1.386 . S
C2675 C2677 1.395 . S
C2675 H2685 0.930 . S
C2676 C2672 1.395 . S
C2676 C2677 1.379 . S
C2676 H2686 0.930 . S
C2677 C2675 1.395 . S
C2677 C2676 1.379 . S
C2677 H2687 0.930 . S
C2678 O2656 1.264 . S
C2678 O2657 1.254 . S
C2679 Eu2615 2.848 1_455 S
C2679 O2654 1.257 . S
C2679 O2659 1.249 . S
C2679 C2672 1.492 . S
H2680 C2663 0.930 . S
H2681 C2664 0.930 . S
H2682 C2665 0.930 . S
H2683 C2666 0.930 . S
H2684 C2673 0.930 . S
H2685 C2675 0.930 . S
H2686 C2676 0.930 . S
H2687 C2677 0.930 . S
Eu2688 N2719 2.657 . S
Eu2688 N2726 2.609 . S
Eu2688 O2732 2.558 . S
Eu2688 O2733 2.612 . S
Eu2688 O2735 2.339 . S
Eu2688 O2736 2.563 . S
Eu2688 O2737 2.419 . S
Eu2688 O2739 2.380 . S
Eu2688 O2740 2.432 . S
Eu2688 C2752 2.848 . S
C2689 C2692 1.429 . S
C2689 C2693 1.411 . S
C2689 N2696 1.377 . S
C2690 C2692 1.420 . S
C2690 C2694 1.423 . S
C2690 C2702 1.392 . S
C2691 C2693 1.420 . S
C2691 C2694 1.351 . S
C2691 H2714 0.931 . S
C2692 C2689 1.429 . S
C2692 C2690 1.420 . S
C2692 N2700 1.362 . S
C2693 C2689 1.411 . S
C2693 C2691 1.420 . S
C2693 C2698 1.395 . S
C2694 C2690 1.423 . S
C2694 C2691 1.351 . S
C2694 H2706 0.930 . S
C2695 C2697 1.400 . S
C2695 C2698 1.386 . S
C2695 H2707 0.930 . S
N2696 C2689 1.377 . S
N2696 C2697 1.321 . S
N2696 Eu2699 2.609 . S
C2697 C2695 1.400 . S
C2697 N2696 1.321 . S
C2697 H2704 0.930 . S
C2698 C2693 1.395 . S
C2698 C2695 1.386 . S
C2698 H2717 0.930 . S
Eu2699 N2696 2.609 . S
Eu2699 N2700 2.657 . S
Eu2699 O2733 2.380 . S
Eu2699 O2734 2.432 . S
Eu2699 O2738 2.558 . S
Eu2699 O2739 2.612 . S
Eu2699 O2741 2.339 . S
Eu2699 O2742 2.563 . S
Eu2699 O2743 2.419 . S
Eu2699 C2763 2.848 . S
N2700 C2692 1.362 . S
N2700 Eu2699 2.657 . S
N2700 C2701 1.334 . S
C2701 N2700 1.334 . S
C2701 C2703 1.413 . S
C2701 H2708 0.929 . S
C2702 C2690 1.392 . S
C2702 C2703 1.367 . S
C2702 H2710 0.930 . S
C2703 C2701 1.413 . S
C2703 C2702 1.367 . S
C2703 H2705 0.930 . S
H2704 C2697 0.930 . S
H2705 C2703 0.930 . S
H2706 C2694 0.930 . S
H2707 C2695 0.930 . S
H2708 C2701 0.929 . S
H2709 C2723 0.930 . S
H2710 C2702 0.930 . S
H2711 C2729 0.930 . S
H2712 C2720 0.929 . S
H2713 C2727 0.930 . S
H2714 C2691 0.931 . S
H2715 C2721 0.930 . S
H2716 C2754 0.930 . S
H2717 C2698 0.930 . S
H2718 C2753 0.931 . S
N2719 Eu2688 2.657 . S
N2719 C2720 1.334 . S
N2719 C2724 1.362 . S
C2720 H2712 0.929 . S
C2720 N2719 1.334 . S
C2720 C2723 1.413 . S
C2721 H2715 0.930 . S
C2721 C2722 1.392 . S
C2721 C2723 1.367 . S
C2722 C2721 1.392 . S
C2722 C2724 1.420 . S
C2722 C2754 1.423 . S
C2723 H2709 0.930 . S
C2723 C2720 1.413 . S
C2723 C2721 1.367 . S
C2724 N2719 1.362 . S
C2724 C2722 1.420 . S
C2724 C2728 1.429 . S
H2725 C2730 0.930 . S
N2726 Eu2688 2.609 . S
N2726 C2728 1.377 . S
N2726 C2729 1.321 . S
C2727 H2713 0.930 . S
C2727 C2729 1.400 . S
C2727 C2730 1.386 . S
C2728 C2724 1.429 . S
C2728 N2726 1.377 . S
C2728 C2731 1.411 . S
C2729 H2711 0.930 . S
C2729 N2726 1.321 . S
C2729 C2727 1.400 . S
C2730 H2725 0.930 . S
C2730 C2727 1.386 . S
C2730 C2731 1.395 . S
C2731 C2728 1.411 . S
C2731 C2730 1.395 . S
C2731 C2753 1.420 . S
O2732 Eu2688 2.558 . S
O2732 C2752 1.257 . S
O2733 Eu2688 2.612 . S
O2733 Eu2699 2.380 . S
O2733 C2744 1.276 . S
O2734 Eu2699 2.432 . S
O2734 C2751 1.264 . S
O2735 Eu2688 2.339 . S
O2735 C2751 1.254 . S
O2736 Eu2688 2.563 . S
O2736 C2744 1.235 . S
O2737 Eu2688 2.419 . S
O2737 C2752 1.249 . S
O2738 Eu2699 2.558 . S
O2738 C2763 1.257 . S
O2739 Eu2688 2.380 . S
O2739 Eu2699 2.612 . S
O2739 C2755 1.276 . S
O2740 Eu2688 2.432 . S
O2740 C2762 1.264 . S
O2741 Eu2699 2.339 . S
O2741 C2762 1.254 . S
O2742 Eu2699 2.563 . S
O2742 C2755 1.235 . S
O2743 Eu2699 2.419 . S
O2743 C2763 1.249 . S
C2744 O2733 1.276 . S
C2744 O2736 1.235 . S
C2745 C2747 1.393 . S
C2745 C2749 1.395 . S
C2745 C2752 1.492 . S
C2746 C2747 1.392 . S
C2746 C2748 1.386 . S
C2747 C2745 1.393 . S
C2747 C2746 1.392 . S
C2747 H2764 0.930 . S
C2748 C2746 1.386 . S
C2748 C2750 1.395 . S
C2748 H2765 0.930 . S
C2749 C2745 1.395 . S
C2749 C2750 1.379 . S
C2749 H2766 0.930 . S
C2750 C2748 1.395 . S
C2750 C2749 1.379 . S
C2750 H2767 0.930 . S
C2751 O2734 1.264 . S
C2751 O2735 1.254 . S
C2752 Eu2688 2.848 . S
C2752 O2732 1.257 . S
C2752 O2737 1.249 . S
C2752 C2745 1.492 . S
C2753 H2718 0.931 . S
C2753 C2731 1.420 . S
C2753 C2754 1.351 . S
C2754 H2716 0.930 . S
C2754 C2722 1.423 . S
C2754 C2753 1.351 . S
C2755 O2739 1.276 . S
C2755 O2742 1.235 . S
C2756 C2757 1.393 . S
C2756 C2760 1.395 . S
C2756 C2763 1.492 . S
C2757 C2756 1.393 . S
C2757 C2758 1.392 . S
C2757 H2768 0.930 . S
C2758 C2757 1.392 . S
C2758 C2759 1.386 . S
C2759 C2758 1.386 . S
C2759 C2761 1.395 . S
C2759 H2769 0.930 . S
C2760 C2756 1.395 . S
C2760 C2761 1.379 . S
C2760 H2770 0.930 . S
C2761 C2759 1.395 . S
C2761 C2760 1.379 . S
C2761 H2771 0.930 . S
C2762 O2740 1.264 . S
C2762 O2741 1.254 . S
C2763 Eu2699 2.848 . S
C2763 O2738 1.257 . S
C2763 O2743 1.249 . S
C2763 C2756 1.492 . S
H2764 C2747 0.930 . S
H2765 C2748 0.930 . S
H2766 C2749 0.930 . S
H2767 C2750 0.930 . S
H2768 C2757 0.930 . S
H2769 C2759 0.930 . S
H2770 C2760 0.930 . S
H2771 C2761 0.930 . S
Eu2772 N2803 2.657 . S
Eu2772 N2810 2.609 . S
Eu2772 O2816 2.558 . S
Eu2772 O2817 2.612 . S
Eu2772 O2819 2.339 . S
Eu2772 O2820 2.563 . S
Eu2772 O2821 2.419 . S
Eu2772 O2823 2.380 . S
Eu2772 O2824 2.432 . S
Eu2772 C2836 2.848 . S
C2773 C2776 1.429 . S
C2773 C2777 1.415 . S
C2773 N2780 1.356 1_556 S
C2774 C2776 1.420 . S
C2774 C2778 1.423 . S
C2774 C2786 1.392 . S
C2775 C2777 1.426 . S
C2775 C2778 1.351 . S
C2775 H2798 0.931 . S
C2776 C2773 1.429 . S
C2776 C2774 1.420 . S
C2776 N2784 1.362 . S
C2777 C2773 1.415 . S
C2777 C2775 1.426 . S
C2777 C2782 1.385 1_556 S
C2778 C2774 1.423 . S
C2778 C2775 1.351 . S
C2778 H2790 0.930 . S
C2779 C2781 1.400 . S
C2779 C2782 1.386 . S
C2779 H2791 0.930 . S
N2780 C2773 1.356 1_554 S
N2780 C2781 1.364 . S
N2780 Eu2783 2.595 1_554 S
C2781 C2779 1.400 . S
C2781 N2780 1.364 . S
C2781 H2788 0.930 . S
C2782 C2777 1.385 1_554 S
C2782 C2779 1.386 . S
C2782 H2801 0.930 . S
Eu2783 N2780 2.595 1_556 S
Eu2783 N2784 2.657 . S
Eu2783 O2817 2.380 . S
Eu2783 O2818 2.432 . S
Eu2783 O2822 2.558 1_556 S
Eu2783 O2823 2.612 . S
Eu2783 O2825 2.339 . S
Eu2783 O2826 2.563 1_556 S
Eu2783 O2827 2.419 1_556 S
Eu2783 C2847 2.848 1_556 S
N2784 C2776 1.362 . S
N2784 Eu2783 2.657 . S
N2784 C2785 1.334 . S
C2785 N2784 1.334 . S
C2785 C2787 1.413 . S
C2785 H2792 0.929 . S
C2786 C2774 1.392 . S
C2786 C2787 1.367 . S
C2786 H2794 0.930 . S
C2787 C2785 1.413 . S
C2787 C2786 1.367 . S
C2787 H2789 0.930 . S
H2788 C2781 0.930 . S
H2789 C2787 0.930 . S
H2790 C2778 0.930 . S
H2791 C2779 0.930 . S
H2792 C2785 0.929 . S
H2793 C2807 0.930 1_554 S
H2794 C2786 0.930 . S
H2795 C2813 0.930 . S
H2796 C2804 0.929 . S
H2797 C2811 0.930 . S
H2798 C2775 0.931 . S
H2799 C2805 0.930 . S
H2800 C2838 0.930 . S
H2801 C2782 0.930 . S
H2802 C2837 0.931 . S
N2803 Eu2772 2.657 . S
N2803 C2804 1.334 . S
N2803 C2808 1.362 . S
C2804 H2796 0.929 . S
C2804 N2803 1.334 . S
C2804 C2807 1.413 . S
C2805 H2799 0.930 . S
C2805 C2806 1.392 . S
C2805 C2807 1.367 . S
C2806 C2805 1.392 . S
C2806 C2808 1.420 . S
C2806 C2838 1.423 . S
C2807 H2793 0.930 1_556 S
C2807 C2804 1.413 . S
C2807 C2805 1.367 . S
C2808 N2803 1.362 . S
C2808 C2806 1.420 . S
C2808 C2812 1.429 . S
H2809 C2814 0.930 . S
N2810 Eu2772 2.609 . S
N2810 C2812 1.377 . S
N2810 C2813 1.321 . S
C2811 H2797 0.930 . S
C2811 C2813 1.400 . S
C2811 C2814 1.386 . S
C2812 C2808 1.429 . S
C2812 N2810 1.377 . S
C2812 C2815 1.411 . S
C2813 H2795 0.930 . S
C2813 N2810 1.321 . S
C2813 C2811 1.400 . S
C2814 H2809 0.930 . S
C2814 C2811 1.386 . S
C2814 C2815 1.395 . S
C2815 C2812 1.411 . S
C2815 C2814 1.395 . S
C2815 C2837 1.420 . S
O2816 Eu2772 2.558 . S
O2816 C2836 1.257 . S
O2817 Eu2772 2.612 . S
O2817 Eu2783 2.380 . S
O2817 C2828 1.276 . S
O2818 Eu2783 2.432 . S
O2818 C2835 1.264 . S
O2819 Eu2772 2.339 . S
O2819 C2835 1.254 . S
O2820 Eu2772 2.563 . S
O2820 C2828 1.235 . S
O2821 Eu2772 2.419 . S
O2821 C2836 1.249 . S
O2822 Eu2783 2.558 1_554 S
O2822 C2847 1.257 . S
O2823 Eu2772 2.380 . S
O2823 Eu2783 2.612 . S
O2823 C2839 1.276 . S
O2824 Eu2772 2.432 . S
O2824 C2846 1.264 . S
O2825 Eu2783 2.339 . S
O2825 C2846 1.254 . S
O2826 Eu2783 2.563 1_554 S
O2826 C2839 1.235 1_554 S
O2827 Eu2783 2.419 1_554 S
O2827 C2847 1.249 . S
C2828 O2817 1.276 . S
C2828 O2820 1.235 . S
C2829 C2831 1.393 . S
C2829 C2833 1.395 . S
C2829 C2836 1.492 . S
C2830 C2831 1.392 . S
C2830 C2832 1.386 . S
C2831 C2829 1.393 . S
C2831 C2830 1.392 . S
C2831 H2848 0.930 . S
C2832 C2830 1.386 . S
C2832 C2834 1.395 . S
C2832 H2849 0.930 . S
C2833 C2829 1.395 . S
C2833 C2834 1.379 . S
C2833 H2850 0.930 . S
C2834 C2832 1.395 . S
C2834 C2833 1.379 . S
C2834 H2851 0.930 . S
C2835 O2818 1.264 . S
C2835 O2819 1.254 . S
C2836 Eu2772 2.848 . S
C2836 O2816 1.257 . S
C2836 O2821 1.249 . S
C2836 C2829 1.492 . S
C2837 H2802 0.931 . S
C2837 C2815 1.420 . S
C2837 C2838 1.351 . S
C2838 H2800 0.930 . S
C2838 C2806 1.423 . S
C2838 C2837 1.351 . S
C2839 O2823 1.276 . S
C2839 O2826 1.235 1_556 S
C2840 C2841 1.393 . S
C2840 C2844 1.395 . S
C2840 C2847 1.492 . S
C2841 C2840 1.393 . S
C2841 C2842 1.392 . S
C2841 H2852 0.930 . S
C2842 C2841 1.392 . S
C2842 C2843 1.386 . S
C2843 C2842 1.386 . S
C2843 C2845 1.395 . S
C2843 H2853 0.930 . S
C2844 C2840 1.395 . S
C2844 C2845 1.379 . S
C2844 H2854 0.930 . S
C2845 C2843 1.395 . S
C2845 C2844 1.379 . S
C2845 H2855 0.930 . S
C2846 O2824 1.264 . S
C2846 O2825 1.254 . S
C2847 Eu2783 2.848 1_554 S
C2847 O2822 1.257 . S
C2847 O2827 1.249 . S
C2847 C2840 1.492 . S
H2848 C2831 0.930 . S
H2849 C2832 0.930 . S
H2850 C2833 0.930 . S
H2851 C2834 0.930 . S
H2852 C2841 0.930 . S
H2853 C2843 0.930 . S
H2854 C2844 0.930 . S
H2855 C2845 0.930 . S
Eu2856 N2887 2.657 . S
Eu2856 N2894 2.609 . S
Eu2856 O2900 2.558 . S
Eu2856 O2901 2.612 . S
Eu2856 O2903 2.339 . S
Eu2856 O2904 2.563 . S
Eu2856 O2905 2.419 . S
Eu2856 O2907 2.380 . S
Eu2856 O2908 2.432 . S
Eu2856 C2920 2.848 . S
C2857 C2860 1.429 . S
C2857 C2861 1.411 . S
C2857 N2864 1.377 . S
C2858 C2860 1.420 . S
C2858 C2862 1.423 . S
C2858 C2870 1.392 . S
C2859 C2861 1.420 . S
C2859 C2862 1.351 . S
C2859 H2882 0.931 . S
C2860 C2857 1.429 . S
C2860 C2858 1.420 . S
C2860 N2868 1.362 . S
C2861 C2857 1.411 . S
C2861 C2859 1.420 . S
C2861 C2866 1.395 . S
C2862 C2858 1.423 . S
C2862 C2859 1.351 . S
C2862 H2874 0.930 . S
C2863 C2865 1.400 . S
C2863 C2866 1.386 . S
C2863 H2875 0.930 . S
N2864 C2857 1.377 . S
N2864 C2865 1.321 . S
N2864 Eu2867 2.609 . S
C2865 C2863 1.400 . S
C2865 N2864 1.321 . S
C2865 H2872 0.930 . S
C2866 C2861 1.395 . S
C2866 C2863 1.386 . S
C2866 H2885 0.930 . S
Eu2867 N2864 2.609 . S
Eu2867 N2868 2.657 . S
Eu2867 O2901 2.380 . S
Eu2867 O2902 2.432 . S
Eu2867 O2906 2.558 . S
Eu2867 O2907 2.612 . S
Eu2867 O2909 2.339 . S
Eu2867 O2910 2.563 . S
Eu2867 O2911 2.419 . S
Eu2867 C2931 2.848 . S
N2868 C2860 1.362 . S
N2868 Eu2867 2.657 . S
N2868 C2869 1.334 . S
C2869 N2868 1.334 . S
C2869 C2871 1.413 . S
C2869 H2876 0.929 . S
C2870 C2858 1.392 . S
C2870 C2871 1.367 . S
C2870 H2878 0.930 . S
C2871 C2869 1.413 . S
C2871 C2870 1.367 . S
C2871 H2873 0.930 . S
H2872 C2865 0.930 . S
H2873 C2871 0.930 . S
H2874 C2862 0.930 . S
H2875 C2863 0.930 . S
H2876 C2869 0.929 . S
H2877 C2891 0.930 . S
H2878 C2870 0.930 . S
H2879 C2897 0.930 . S
H2880 C2888 0.929 . S
H2881 C2895 0.930 . S
H2882 C2859 0.931 . S
H2883 C2889 0.930 . S
H2884 C2922 0.930 . S
H2885 C2866 0.930 . S
H2886 C2921 0.931 . S
N2887 Eu2856 2.657 . S
N2887 C2888 1.334 . S
N2887 C2892 1.362 . S
C2888 H2880 0.929 . S
C2888 N2887 1.334 . S
C2888 C2891 1.413 . S
C2889 H2883 0.930 . S
C2889 C2890 1.392 . S
C2889 C2891 1.367 . S
C2890 C2889 1.392 . S
C2890 C2892 1.420 . S
C2890 C2922 1.423 . S
C2891 H2877 0.930 . S
C2891 C2888 1.413 . S
C2891 C2889 1.367 . S
C2892 N2887 1.362 . S
C2892 C2890 1.420 . S
C2892 C2896 1.429 . S
H2893 C2898 0.930 . S
N2894 Eu2856 2.609 . S
N2894 C2896 1.377 . S
N2894 C2897 1.321 . S
C2895 H2881 0.930 . S
C2895 C2897 1.400 . S
C2895 C2898 1.386 . S
C2896 C2892 1.429 . S
C2896 N2894 1.377 . S
C2896 C2899 1.411 . S
C2897 H2879 0.930 . S
C2897 N2894 1.321 . S
C2897 C2895 1.400 . S
C2898 H2893 0.930 . S
C2898 C2895 1.386 . S
C2898 C2899 1.395 . S
C2899 C2896 1.411 . S
C2899 C2898 1.395 . S
C2899 C2921 1.420 . S
O2900 Eu2856 2.558 . S
O2900 C2920 1.257 . S
O2901 Eu2856 2.612 . S
O2901 Eu2867 2.380 . S
O2901 C2912 1.276 . S
O2902 Eu2867 2.432 . S
O2902 C2919 1.264 . S
O2903 Eu2856 2.339 . S
O2903 C2919 1.254 . S
O2904 Eu2856 2.563 . S
O2904 C2912 1.235 . S
O2905 Eu2856 2.419 . S
O2905 C2920 1.249 . S
O2906 Eu2867 2.558 . S
O2906 C2931 1.257 . S
O2907 Eu2856 2.380 . S
O2907 Eu2867 2.612 . S
O2907 C2923 1.276 . S
O2908 Eu2856 2.432 . S
O2908 C2930 1.264 . S
O2909 Eu2867 2.339 . S
O2909 C2930 1.254 . S
O2910 Eu2867 2.563 . S
O2910 C2923 1.235 . S
O2911 Eu2867 2.419 . S
O2911 C2931 1.249 . S
C2912 O2901 1.276 . S
C2912 O2904 1.235 . S
C2913 C2915 1.393 . S
C2913 C2917 1.395 . S
C2913 C2920 1.492 . S
C2914 C2915 1.392 . S
C2914 C2916 1.386 . S
C2915 C2913 1.393 . S
C2915 C2914 1.392 . S
C2915 H2932 0.930 . S
C2916 C2914 1.386 . S
C2916 C2918 1.395 . S
C2916 H2933 0.930 . S
C2917 C2913 1.395 . S
C2917 C2918 1.379 . S
C2917 H2934 0.930 . S
C2918 C2916 1.395 . S
C2918 C2917 1.379 . S
C2918 H2935 0.930 . S
C2919 O2902 1.264 . S
C2919 O2903 1.254 . S
C2920 Eu2856 2.848 . S
C2920 O2900 1.257 . S
C2920 O2905 1.249 . S
C2920 C2913 1.492 . S
C2921 H2886 0.931 . S
C2921 C2899 1.420 . S
C2921 C2922 1.351 . S
C2922 H2884 0.930 . S
C2922 C2890 1.423 . S
C2922 C2921 1.351 . S
C2923 O2907 1.276 . S
C2923 O2910 1.235 . S
C2924 C2925 1.393 . S
C2924 C2928 1.395 . S
C2924 C2931 1.492 . S
C2925 C2924 1.393 . S
C2925 C2926 1.392 . S
C2925 H2936 0.930 . S
C2926 C2925 1.392 . S
C2926 C2927 1.386 . S
C2927 C2926 1.386 . S
C2927 C2929 1.395 . S
C2927 H2937 0.930 . S
C2928 C2924 1.395 . S
C2928 C2929 1.379 . S
C2928 H2938 0.930 . S
C2929 C2927 1.395 . S
C2929 C2928 1.379 . S
C2929 H2939 0.930 . S
C2930 O2908 1.264 . S
C2930 O2909 1.254 . S
C2931 Eu2867 2.848 . S
C2931 O2906 1.257 . S
C2931 O2911 1.249 . S
C2931 C2924 1.492 . S
H2932 C2915 0.930 . S
H2933 C2916 0.930 . S
H2934 C2917 0.930 . S
H2935 C2918 0.930 . S
H2936 C2925 0.930 . S
H2937 C2927 0.930 . S
H2938 C2928 0.930 . S
H2939 C2929 0.930 . S
Eu2940 N2971 2.657 . S
Eu2940 N2978 2.609 . S
Eu2940 O2984 2.558 . S
Eu2940 O2985 2.612 . S
Eu2940 O2987 2.339 . S
Eu2940 O2988 2.563 . S
Eu2940 O2989 2.419 . S
Eu2940 O2991 2.380 . S
Eu2940 O2992 2.432 . S
Eu2940 C3004 2.848 . S
C2941 C2944 1.429 . S
C2941 C2945 1.411 . S
C2941 N2948 1.377 . S
C2942 C2944 1.420 . S
C2942 C2946 1.423 . S
C2942 C2954 1.392 . S
C2943 C2945 1.420 . S
C2943 C2946 1.351 . S
C2943 H2966 0.931 . S
C2944 C2941 1.429 . S
C2944 C2942 1.420 . S
C2944 N2952 1.362 . S
C2945 C2941 1.411 . S
C2945 C2943 1.420 . S
C2945 C2950 1.395 . S
C2946 C2942 1.423 . S
C2946 C2943 1.351 . S
C2946 H2958 0.930 . S
C2947 C2949 1.400 . S
C2947 C2950 1.386 . S
C2947 H2959 0.930 . S
N2948 C2941 1.377 . S
N2948 C2949 1.321 . S
N2948 Eu2951 2.609 . S
C2949 C2947 1.400 . S
C2949 N2948 1.321 . S
C2949 H2956 0.930 . S
C2950 C2945 1.395 . S
C2950 C2947 1.386 . S
C2950 H2969 0.930 . S
Eu2951 N2948 2.609 . S
Eu2951 N2952 2.657 . S
Eu2951 O2985 2.380 . S
Eu2951 O2986 2.432 . S
Eu2951 O2990 2.558 . S
Eu2951 O2991 2.612 . S
Eu2951 O2993 2.339 . S
Eu2951 O2994 2.563 . S
Eu2951 O2995 2.419 . S
Eu2951 C3015 2.848 . S
N2952 C2944 1.362 . S
N2952 Eu2951 2.657 . S
N2952 C2953 1.334 . S
C2953 N2952 1.334 . S
C2953 C2955 1.413 . S
C2953 H2960 0.929 . S
C2954 C2942 1.392 . S
C2954 C2955 1.367 . S
C2954 H2962 0.930 . S
C2955 C2953 1.413 . S
C2955 C2954 1.367 . S
C2955 H2957 0.930 . S
H2956 C2949 0.930 . S
H2957 C2955 0.930 . S
H2958 C2946 0.930 . S
H2959 C2947 0.930 . S
H2960 C2953 0.929 . S
H2961 C2975 0.930 . S
H2962 C2954 0.930 . S
H2963 C2981 0.930 . S
H2964 C2972 0.929 . S
H2965 C2979 0.930 . S
H2966 C2943 0.931 . S
H2967 C2973 0.930 . S
H2968 C3006 0.930 . S
H2969 C2950 0.930 . S
H2970 C3005 0.931 . S
N2971 Eu2940 2.657 . S
N2971 C2972 1.334 . S
N2971 C2976 1.362 . S
C2972 H2964 0.929 . S
C2972 N2971 1.334 . S
C2972 C2975 1.413 . S
C2973 H2967 0.930 . S
C2973 C2974 1.392 . S
C2973 C2975 1.367 . S
C2974 C2973 1.392 . S
C2974 C2976 1.420 . S
C2974 C3006 1.423 . S
C2975 H2961 0.930 . S
C2975 C2972 1.413 . S
C2975 C2973 1.367 . S
C2976 N2971 1.362 . S
C2976 C2974 1.420 . S
C2976 C2980 1.429 . S
H2977 C2982 0.930 . S
N2978 Eu2940 2.609 . S
N2978 C2980 1.377 . S
N2978 C2981 1.321 . S
C2979 H2965 0.930 . S
C2979 C2981 1.400 . S
C2979 C2982 1.386 . S
C2980 C2976 1.429 . S
C2980 N2978 1.377 . S
C2980 C2983 1.411 . S
C2981 H2963 0.930 . S
C2981 N2978 1.321 . S
C2981 C2979 1.400 . S
C2982 H2977 0.930 . S
C2982 C2979 1.386 . S
C2982 C2983 1.395 . S
C2983 C2980 1.411 . S
C2983 C2982 1.395 . S
C2983 C3005 1.420 . S
O2984 Eu2940 2.558 . S
O2984 C3004 1.257 . S
O2985 Eu2940 2.612 . S
O2985 Eu2951 2.380 . S
O2985 C2996 1.276 . S
O2986 Eu2951 2.432 . S
O2986 C3003 1.264 . S
O2987 Eu2940 2.339 . S
O2987 C3003 1.254 . S
O2988 Eu2940 2.563 . S
O2988 C2996 1.235 . S
O2989 Eu2940 2.419 . S
O2989 C3004 1.249 . S
O2990 Eu2951 2.558 . S
O2990 C3015 1.257 . S
O2991 Eu2940 2.380 . S
O2991 Eu2951 2.612 . S
O2991 C3007 1.276 . S
O2992 Eu2940 2.432 . S
O2992 C3014 1.264 . S
O2993 Eu2951 2.339 . S
O2993 C3014 1.254 . S
O2994 Eu2951 2.563 . S
O2994 C3007 1.235 . S
O2995 Eu2951 2.419 . S
O2995 C3015 1.249 . S
C2996 O2985 1.276 . S
C2996 O2988 1.235 . S
C2997 C2999 1.393 . S
C2997 C3001 1.395 . S
C2997 C3004 1.492 . S
C2998 C2999 1.392 . S
C2998 C3000 1.386 . S
C2999 C2997 1.393 . S
C2999 C2998 1.392 . S
C2999 H3016 0.930 . S
C3000 C2998 1.386 . S
C3000 C3002 1.395 . S
C3000 H3017 0.930 . S
C3001 C2997 1.395 . S
C3001 C3002 1.379 . S
C3001 H3018 0.930 . S
C3002 C3000 1.395 . S
C3002 C3001 1.379 . S
C3002 H3019 0.930 . S
C3003 O2986 1.264 . S
C3003 O2987 1.254 . S
C3004 Eu2940 2.848 . S
C3004 O2984 1.257 . S
C3004 O2989 1.249 . S
C3004 C2997 1.492 . S
C3005 H2970 0.931 . S
C3005 C2983 1.420 . S
C3005 C3006 1.351 . S
C3006 H2968 0.930 . S
C3006 C2974 1.423 . S
C3006 C3005 1.351 . S
C3007 O2991 1.276 . S
C3007 O2994 1.235 . S
C3008 C3009 1.393 . S
C3008 C3012 1.395 . S
C3008 C3015 1.492 . S
C3009 C3008 1.393 . S
C3009 C3010 1.392 . S
C3009 H3020 0.930 . S
C3010 C3009 1.392 . S
C3010 C3011 1.386 . S
C3011 C3010 1.386 . S
C3011 C3013 1.395 . S
C3011 H3021 0.930 . S
C3012 C3008 1.395 . S
C3012 C3013 1.379 . S
C3012 H3022 0.930 . S
C3013 C3011 1.395 . S
C3013 C3012 1.379 . S
C3013 H3023 0.930 . S
C3014 O2992 1.264 . S
C3014 O2993 1.254 . S
C3015 Eu2951 2.848 . S
C3015 O2990 1.257 . S
C3015 O2995 1.249 . S
C3015 C3008 1.492 . S
H3016 C2999 0.930 . S
H3017 C3000 0.930 . S
H3018 C3001 0.930 . S
H3019 C3002 0.930 . S
H3020 C3009 0.930 . S
H3021 C3011 0.930 . S
H3022 C3012 0.930 . S
H3023 C3013 0.930 . S
Eu3024 N3055 2.657 . S
Eu3024 N3062 2.609 . S
Eu3024 O3068 2.558 . S
Eu3024 O3069 2.612 . S
Eu3024 O3071 2.339 . S
Eu3024 O3072 2.563 . S
Eu3024 O3073 2.419 . S
Eu3024 O3075 2.380 . S
Eu3024 O3076 2.432 . S
Eu3024 C3088 2.848 . S
C3025 C3028 1.429 . S
C3025 C3029 1.411 . S
C3025 N3032 1.377 . S
C3026 C3028 1.420 . S
C3026 C3030 1.423 . S
C3026 C3038 1.392 . S
C3027 C3029 1.420 . S
C3027 C3030 1.351 . S
C3027 H3050 0.931 . S
C3028 C3025 1.429 . S
C3028 C3026 1.420 . S
C3028 N3036 1.362 . S
C3029 C3025 1.411 . S
C3029 C3027 1.420 . S
C3029 C3034 1.395 . S
C3030 C3026 1.423 . S
C3030 C3027 1.351 . S
C3030 H3042 0.930 . S
C3031 C3033 1.400 . S
C3031 C3034 1.386 . S
C3031 H3043 0.930 . S
N3032 C3025 1.377 . S
N3032 C3033 1.321 . S
N3032 Eu3035 2.609 . S
C3033 C3031 1.400 . S
C3033 N3032 1.321 . S
C3033 H3040 0.930 . S
C3034 C3029 1.395 . S
C3034 C3031 1.386 . S
C3034 H3053 0.930 . S
Eu3035 N3032 2.609 . S
Eu3035 N3036 2.657 . S
Eu3035 O3069 2.380 . S
Eu3035 O3070 2.432 . S
Eu3035 O3074 2.558 . S
Eu3035 O3075 2.612 . S
Eu3035 O3077 2.339 . S
Eu3035 O3078 2.563 . S
Eu3035 O3079 2.419 . S
Eu3035 C3099 2.848 . S
N3036 C3028 1.362 . S
N3036 Eu3035 2.657 . S
N3036 C3037 1.334 . S
C3037 N3036 1.334 . S
C3037 C3039 1.413 . S
C3037 H3044 0.929 . S
C3038 C3026 1.392 . S
C3038 C3039 1.367 . S
C3038 H3046 0.930 . S
C3039 C3037 1.413 . S
C3039 C3038 1.367 . S
C3039 H3041 0.930 . S
H3040 C3033 0.930 . S
H3041 C3039 0.930 . S
H3042 C3030 0.930 . S
H3043 C3031 0.930 . S
H3044 C3037 0.929 . S
H3045 C3059 0.930 . S
H3046 C3038 0.930 . S
H3047 C3065 0.930 . S
H3048 C3056 0.929 . S
H3049 C3063 0.930 . S
H3050 C3027 0.931 . S
H3051 C3057 0.930 . S
H3052 C3090 0.930 . S
H3053 C3034 0.930 . S
H3054 C3089 0.931 . S
N3055 Eu3024 2.657 . S
N3055 C3056 1.334 . S
N3055 C3060 1.362 . S
C3056 H3048 0.929 . S
C3056 N3055 1.334 . S
C3056 C3059 1.413 . S
C3057 H3051 0.930 . S
C3057 C3058 1.392 . S
C3057 C3059 1.367 . S
C3058 C3057 1.392 . S
C3058 C3060 1.420 . S
C3058 C3090 1.423 . S
C3059 H3045 0.930 . S
C3059 C3056 1.413 . S
C3059 C3057 1.367 . S
C3060 N3055 1.362 . S
C3060 C3058 1.420 . S
C3060 C3064 1.429 . S
H3061 C3066 0.930 . S
N3062 Eu3024 2.609 . S
N3062 C3064 1.377 . S
N3062 C3065 1.321 . S
C3063 H3049 0.930 . S
C3063 C3065 1.400 . S
C3063 C3066 1.386 . S
C3064 C3060 1.429 . S
C3064 N3062 1.377 . S
C3064 C3067 1.411 . S
C3065 H3047 0.930 . S
C3065 N3062 1.321 . S
C3065 C3063 1.400 . S
C3066 H3061 0.930 . S
C3066 C3063 1.386 . S
C3066 C3067 1.395 . S
C3067 C3064 1.411 . S
C3067 C3066 1.395 . S
C3067 C3089 1.420 . S
O3068 Eu3024 2.558 . S
O3068 C3088 1.257 . S
O3069 Eu3024 2.612 . S
O3069 Eu3035 2.380 . S
O3069 C3080 1.276 . S
O3070 Eu3035 2.432 . S
O3070 C3087 1.264 . S
O3071 Eu3024 2.339 . S
O3071 C3087 1.254 . S
O3072 Eu3024 2.563 . S
O3072 C3080 1.235 . S
O3073 Eu3024 2.419 . S
O3073 C3088 1.249 . S
O3074 Eu3035 2.558 . S
O3074 C3099 1.257 . S
O3075 Eu3024 2.380 . S
O3075 Eu3035 2.612 . S
O3075 C3091 1.276 . S
O3076 Eu3024 2.432 . S
O3076 C3098 1.264 . S
O3077 Eu3035 2.339 . S
O3077 C3098 1.254 . S
O3078 Eu3035 2.563 . S
O3078 C3091 1.235 . S
O3079 Eu3035 2.419 . S
O3079 C3099 1.249 . S
C3080 O3069 1.276 . S
C3080 O3072 1.235 . S
C3081 C3083 1.393 . S
C3081 C3085 1.395 . S
C3081 C3088 1.492 . S
C3082 C3083 1.392 . S
C3082 C3084 1.386 . S
C3083 C3081 1.393 . S
C3083 C3082 1.392 . S
C3083 H3100 0.930 . S
C3084 C3082 1.386 . S
C3084 C3086 1.395 . S
C3084 H3101 0.930 . S
C3085 C3081 1.395 . S
C3085 C3086 1.379 . S
C3085 H3102 0.930 . S
C3086 C3084 1.395 . S
C3086 C3085 1.379 . S
C3086 H3103 0.930 . S
C3087 O3070 1.264 . S
C3087 O3071 1.254 . S
C3088 Eu3024 2.848 . S
C3088 O3068 1.257 . S
C3088 O3073 1.249 . S
C3088 C3081 1.492 . S
C3089 H3054 0.931 . S
C3089 C3067 1.420 . S
C3089 C3090 1.351 . S
C3090 H3052 0.930 . S
C3090 C3058 1.423 . S
C3090 C3089 1.351 . S
C3091 O3075 1.276 . S
C3091 O3078 1.235 . S
C3092 C3093 1.393 . S
C3092 C3096 1.395 . S
C3092 C3099 1.492 . S
C3093 C3092 1.393 . S
C3093 C3094 1.392 . S
C3093 H3104 0.930 . S
C3094 C3093 1.392 . S
C3094 C3095 1.386 . S
C3095 C3094 1.386 . S
C3095 C3097 1.395 . S
C3095 H3105 0.930 . S
C3096 C3092 1.395 . S
C3096 C3097 1.379 . S
C3096 H3106 0.930 . S
C3097 C3095 1.395 . S
C3097 C3096 1.379 . S
C3097 H3107 0.930 . S
C3098 O3076 1.264 . S
C3098 O3077 1.254 . S
C3099 Eu3035 2.848 . S
C3099 O3074 1.257 . S
C3099 O3079 1.249 . S
C3099 C3092 1.492 . S
H3100 C3083 0.930 . S
H3101 C3084 0.930 . S
H3102 C3085 0.930 . S
H3103 C3086 0.930 . S
H3104 C3093 0.930 . S
H3105 C3095 0.930 . S
H3106 C3096 0.930 . S
H3107 C3097 0.930 . S
Eu3108 N3139 2.657 . S
Eu3108 N3146 2.609 . S
Eu3108 O3152 2.558 . S
Eu3108 O3153 2.612 . S
Eu3108 O3155 2.339 . S
Eu3108 O3156 2.563 . S
Eu3108 O3157 2.419 . S
Eu3108 O3159 2.380 . S
Eu3108 O3160 2.432 . S
Eu3108 C3172 2.848 . S
C3109 C3112 1.429 . S
C3109 C3113 1.411 . S
C3109 N3116 1.377 . S
C3110 C3112 1.420 . S
C3110 C3114 1.423 . S
C3110 C3122 1.392 . S
C3111 C3113 1.420 . S
C3111 C3114 1.351 . S
C3111 H3134 0.931 . S
C3112 C3109 1.429 . S
C3112 C3110 1.420 . S
C3112 N3120 1.362 . S
C3113 C3109 1.411 . S
C3113 C3111 1.420 . S
C3113 C3118 1.395 . S
C3114 C3110 1.423 . S
C3114 C3111 1.351 . S
C3114 H3126 0.930 . S
C3115 C3117 1.400 . S
C3115 C3118 1.386 . S
C3115 H3127 0.930 . S
N3116 C3109 1.377 . S
N3116 C3117 1.321 . S
N3116 Eu3119 2.609 . S
C3117 C3115 1.400 . S
C3117 N3116 1.321 . S
C3117 H3124 0.930 . S
C3118 C3113 1.395 . S
C3118 C3115 1.386 . S
C3118 H3137 0.930 . S
Eu3119 N3116 2.609 . S
Eu3119 N3120 2.657 . S
Eu3119 O3153 2.380 . S
Eu3119 O3154 2.432 . S
Eu3119 O3158 2.558 . S
Eu3119 O3159 2.612 . S
Eu3119 O3161 2.339 . S
Eu3119 O3162 2.563 . S
Eu3119 O3163 2.419 . S
Eu3119 C3183 2.848 . S
N3120 C3112 1.362 . S
N3120 Eu3119 2.657 . S
N3120 C3121 1.334 . S
C3121 N3120 1.334 . S
C3121 C3123 1.413 . S
C3121 H3128 0.929 . S
C3122 C3110 1.392 . S
C3122 C3123 1.367 . S
C3122 H3130 0.930 . S
C3123 C3121 1.413 . S
C3123 C3122 1.367 . S
C3123 H3125 0.930 . S
H3124 C3117 0.930 . S
H3125 C3123 0.930 . S
H3126 C3114 0.930 . S
H3127 C3115 0.930 . S
H3128 C3121 0.929 . S
H3129 C3143 0.930 . S
H3130 C3122 0.930 . S
H3131 C3149 0.930 . S
H3132 C3140 0.929 . S
H3133 C3147 0.930 . S
H3134 C3111 0.931 . S
H3135 C3141 0.930 . S
H3136 C3174 0.930 . S
H3137 C3118 0.930 . S
H3138 C3173 0.931 . S
N3139 Eu3108 2.657 . S
N3139 C3140 1.334 . S
N3139 C3144 1.362 . S
C3140 H3132 0.929 . S
C3140 N3139 1.334 . S
C3140 C3143 1.413 . S
C3141 H3135 0.930 . S
C3141 C3142 1.392 . S
C3141 C3143 1.367 . S
C3142 C3141 1.392 . S
C3142 C3144 1.420 . S
C3142 C3174 1.423 . S
C3143 H3129 0.930 . S
C3143 C3140 1.413 . S
C3143 C3141 1.367 . S
C3144 N3139 1.362 . S
C3144 C3142 1.420 . S
C3144 C3148 1.429 . S
H3145 C3150 0.930 . S
N3146 Eu3108 2.609 . S
N3146 C3148 1.377 . S
N3146 C3149 1.321 . S
C3147 H3133 0.930 . S
C3147 C3149 1.400 . S
C3147 C3150 1.386 . S
C3148 C3144 1.429 . S
C3148 N3146 1.377 . S
C3148 C3151 1.411 . S
C3149 H3131 0.930 . S
C3149 N3146 1.321 . S
C3149 C3147 1.400 . S
C3150 H3145 0.930 . S
C3150 C3147 1.386 . S
C3150 C3151 1.395 . S
C3151 C3148 1.411 . S
C3151 C3150 1.395 . S
C3151 C3173 1.420 . S
O3152 Eu3108 2.558 . S
O3152 C3172 1.257 . S
O3153 Eu3108 2.612 . S
O3153 Eu3119 2.380 . S
O3153 C3164 1.276 . S
O3154 Eu3119 2.432 . S
O3154 C3171 1.264 . S
O3155 Eu3108 2.339 . S
O3155 C3171 1.254 . S
O3156 Eu3108 2.563 . S
O3156 C3164 1.235 . S
O3157 Eu3108 2.419 . S
O3157 C3172 1.249 . S
O3158 Eu3119 2.558 . S
O3158 C3183 1.257 . S
O3159 Eu3108 2.380 . S
O3159 Eu3119 2.612 . S
O3159 C3175 1.276 . S
O3160 Eu3108 2.432 . S
O3160 C3182 1.264 . S
O3161 Eu3119 2.339 . S
O3161 C3182 1.254 . S
O3162 Eu3119 2.563 . S
O3162 C3175 1.235 . S
O3163 Eu3119 2.419 . S
O3163 C3183 1.249 . S
C3164 O3153 1.276 . S
C3164 O3156 1.235 . S
C3165 C3167 1.393 . S
C3165 C3169 1.395 . S
C3165 C3172 1.492 . S
C3166 C3167 1.392 . S
C3166 C3168 1.386 . S
C3167 C3165 1.393 . S
C3167 C3166 1.392 . S
C3167 H3184 0.930 . S
C3168 C3166 1.386 . S
C3168 C3170 1.395 . S
C3168 H3185 0.930 . S
C3169 C3165 1.395 . S
C3169 C3170 1.379 . S
C3169 H3186 0.930 . S
C3170 C3168 1.395 . S
C3170 C3169 1.379 . S
C3170 H3187 0.930 . S
C3171 O3154 1.264 . S
C3171 O3155 1.254 . S
C3172 Eu3108 2.848 . S
C3172 O3152 1.257 . S
C3172 O3157 1.249 . S
C3172 C3165 1.492 . S
C3173 H3138 0.931 . S
C3173 C3151 1.420 . S
C3173 C3174 1.351 . S
C3174 H3136 0.930 . S
C3174 C3142 1.423 . S
C3174 C3173 1.351 . S
C3175 O3159 1.276 . S
C3175 O3162 1.235 . S
C3176 C3177 1.393 . S
C3176 C3180 1.395 . S
C3176 C3183 1.492 . S
C3177 C3176 1.393 . S
C3177 C3178 1.392 . S
C3177 H3188 0.930 . S
C3178 C3177 1.392 . S
C3178 C3179 1.386 . S
C3179 C3178 1.386 . S
C3179 C3181 1.395 . S
C3179 H3189 0.930 . S
C3180 C3176 1.395 . S
C3180 C3181 1.379 . S
C3180 H3190 0.930 . S
C3181 C3179 1.395 . S
C3181 C3180 1.379 . S
C3181 H3191 0.930 . S
C3182 O3160 1.264 . S
C3182 O3161 1.254 . S
C3183 Eu3119 2.848 . S
C3183 O3158 1.257 . S
C3183 O3163 1.249 . S
C3183 C3176 1.492 . S
H3184 C3167 0.930 . S
H3185 C3168 0.930 . S
H3186 C3169 0.930 . S
H3187 C3170 0.930 . S
H3188 C3177 0.930 . S
H3189 C3179 0.930 . S
H3190 C3180 0.930 . S
H3191 C3181 0.930 . S
Eu3192 N3223 2.657 . S
Eu3192 N3230 2.609 . S
Eu3192 O3236 2.558 . S
Eu3192 O3237 2.612 . S
Eu3192 O3239 2.339 . S
Eu3192 O3240 2.563 . S
Eu3192 O3241 2.419 . S
Eu3192 O3243 2.380 . S
Eu3192 O3244 2.432 . S
Eu3192 C3256 2.848 . S
C3193 C3196 1.429 . S
C3193 C3197 1.411 . S
C3193 N3200 1.377 . S
C3194 C3196 1.420 . S
C3194 C3198 1.423 . S
C3194 C3206 1.392 . S
C3195 C3197 1.420 . S
C3195 C3198 1.351 . S
C3195 H3218 0.931 . S
C3196 C3193 1.429 . S
C3196 C3194 1.420 . S
C3196 N3204 1.362 . S
C3197 C3193 1.411 . S
C3197 C3195 1.420 . S
C3197 C3202 1.395 . S
C3198 C3194 1.423 . S
C3198 C3195 1.351 . S
C3198 H3210 0.930 . S
C3199 C3201 1.400 . S
C3199 C3202 1.386 . S
C3199 H3211 0.930 . S
N3200 C3193 1.377 . S
N3200 C3201 1.321 . S
N3200 Eu3203 2.609 . S
C3201 C3199 1.400 . S
C3201 N3200 1.321 . S
C3201 H3208 0.930 . S
C3202 C3197 1.395 . S
C3202 C3199 1.386 . S
C3202 H3221 0.930 . S
Eu3203 N3200 2.609 . S
Eu3203 N3204 2.657 . S
Eu3203 O3237 2.380 . S
Eu3203 O3238 2.432 . S
Eu3203 O3242 2.558 . S
Eu3203 O3243 2.612 . S
Eu3203 O3245 2.339 . S
Eu3203 O3246 2.563 . S
Eu3203 O3247 2.419 . S
Eu3203 C3267 2.848 . S
N3204 C3196 1.362 . S
N3204 Eu3203 2.657 . S
N3204 C3205 1.334 . S
C3205 N3204 1.334 . S
C3205 C3207 1.413 . S
C3205 H3212 0.929 . S
C3206 C3194 1.392 . S
C3206 C3207 1.367 . S
C3206 H3214 0.930 . S
C3207 C3205 1.413 . S
C3207 C3206 1.367 . S
C3207 H3209 0.930 . S
H3208 C3201 0.930 . S
H3209 C3207 0.930 . S
H3210 C3198 0.930 . S
H3211 C3199 0.930 . S
H3212 C3205 0.929 . S
H3213 C3227 0.930 . S
H3214 C3206 0.930 . S
H3215 C3233 0.930 . S
H3216 C3224 0.929 . S
H3217 C3231 0.930 . S
H3218 C3195 0.931 . S
H3219 C3225 0.930 . S
H3220 C3258 0.930 . S
H3221 C3202 0.930 . S
H3222 C3257 0.931 . S
N3223 Eu3192 2.657 . S
N3223 C3224 1.334 . S
N3223 C3228 1.362 . S
C3224 H3216 0.929 . S
C3224 N3223 1.334 . S
C3224 C3227 1.413 . S
C3225 H3219 0.930 . S
C3225 C3226 1.392 . S
C3225 C3227 1.367 . S
C3226 C3225 1.392 . S
C3226 C3228 1.420 . S
C3226 C3258 1.423 . S
C3227 H3213 0.930 . S
C3227 C3224 1.413 . S
C3227 C3225 1.367 . S
C3228 N3223 1.362 . S
C3228 C3226 1.420 . S
C3228 C3232 1.429 . S
H3229 C3234 0.930 . S
N3230 Eu3192 2.609 . S
N3230 C3232 1.377 . S
N3230 C3233 1.321 . S
C3231 H3217 0.930 . S
C3231 C3233 1.400 . S
C3231 C3234 1.386 . S
C3232 C3228 1.429 . S
C3232 N3230 1.377 . S
C3232 C3235 1.411 . S
C3233 H3215 0.930 . S
C3233 N3230 1.321 . S
C3233 C3231 1.400 . S
C3234 H3229 0.930 . S
C3234 C3231 1.386 . S
C3234 C3235 1.395 . S
C3235 C3232 1.411 . S
C3235 C3234 1.395 . S
C3235 C3257 1.420 . S
O3236 Eu3192 2.558 . S
O3236 C3256 1.257 . S
O3237 Eu3192 2.612 . S
O3237 Eu3203 2.380 . S
O3237 C3248 1.276 . S
O3238 Eu3203 2.432 . S
O3238 C3255 1.264 . S
O3239 Eu3192 2.339 . S
O3239 C3255 1.254 . S
O3240 Eu3192 2.563 . S
O3240 C3248 1.235 . S
O3241 Eu3192 2.419 . S
O3241 C3256 1.249 . S
O3242 Eu3203 2.558 . S
O3242 C3267 1.257 . S
O3243 Eu3192 2.380 . S
O3243 Eu3203 2.612 . S
O3243 C3259 1.276 . S
O3244 Eu3192 2.432 . S
O3244 C3266 1.264 . S
O3245 Eu3203 2.339 . S
O3245 C3266 1.254 . S
O3246 Eu3203 2.563 . S
O3246 C3259 1.235 . S
O3247 Eu3203 2.419 . S
O3247 C3267 1.249 . S
C3248 O3237 1.276 . S
C3248 O3240 1.235 . S
C3249 C3251 1.393 . S
C3249 C3253 1.395 . S
C3249 C3256 1.492 . S
C3250 C3251 1.392 . S
C3250 C3252 1.386 . S
C3251 C3249 1.393 . S
C3251 C3250 1.392 . S
C3251 H3268 0.930 . S
C3252 C3250 1.386 . S
C3252 C3254 1.395 . S
C3252 H3269 0.930 . S
C3253 C3249 1.395 . S
C3253 C3254 1.379 . S
C3253 H3270 0.930 . S
C3254 C3252 1.395 . S
C3254 C3253 1.379 . S
C3254 H3271 0.930 . S
C3255 O3238 1.264 . S
C3255 O3239 1.254 . S
C3256 Eu3192 2.848 . S
C3256 O3236 1.257 . S
C3256 O3241 1.249 . S
C3256 C3249 1.492 . S
C3257 H3222 0.931 . S
C3257 C3235 1.420 . S
C3257 C3258 1.351 . S
C3258 H3220 0.930 . S
C3258 C3226 1.423 . S
C3258 C3257 1.351 . S
C3259 O3243 1.276 . S
C3259 O3246 1.235 . S
C3260 C3261 1.393 . S
C3260 C3264 1.395 . S
C3260 C3267 1.492 . S
C3261 C3260 1.393 . S
C3261 C3262 1.392 . S
C3261 H3272 0.930 . S
C3262 C3261 1.392 . S
C3262 C3263 1.386 . S
C3263 C3262 1.386 . S
C3263 C3265 1.395 . S
C3263 H3273 0.930 . S
C3264 C3260 1.395 . S
C3264 C3265 1.379 . S
C3264 H3274 0.930 . S
C3265 C3263 1.395 . S
C3265 C3264 1.379 . S
C3265 H3275 0.930 . S
C3266 O3244 1.264 . S
C3266 O3245 1.254 . S
C3267 Eu3203 2.848 . S
C3267 O3242 1.257 . S
C3267 O3247 1.249 . S
C3267 C3260 1.492 . S
H3268 C3251 0.930 . S
H3269 C3252 0.930 . S
H3270 C3253 0.930 . S
H3271 C3254 0.930 . S
H3272 C3261 0.930 . S
H3273 C3263 0.930 . S
H3274 C3264 0.930 . S
H3275 C3265 0.930 . S
Eu3276 N3307 2.657 . S
Eu3276 N3314 2.609 . S
Eu3276 O3320 2.558 . S
Eu3276 O3321 2.612 . S
Eu3276 O3323 2.339 . S
Eu3276 O3324 2.563 . S
Eu3276 O3325 2.419 . S
Eu3276 O3327 2.380 . S
Eu3276 O3328 2.432 . S
Eu3276 C3340 2.848 . S
C3277 C3280 1.429 . S
C3277 C3281 1.411 . S
C3277 N3284 1.377 . S
C3278 C3280 1.420 . S
C3278 C3282 1.423 . S
C3278 C3290 1.392 . S
C3279 C3281 1.420 . S
C3279 C3282 1.351 . S
C3279 H3302 0.931 . S
C3280 C3277 1.429 . S
C3280 C3278 1.420 . S
C3280 N3288 1.362 . S
C3281 C3277 1.411 . S
C3281 C3279 1.420 . S
C3281 C3286 1.395 . S
C3282 C3278 1.423 . S
C3282 C3279 1.351 . S
C3282 H3294 0.930 . S
C3283 C3285 1.400 . S
C3283 C3286 1.386 . S
C3283 H3295 0.930 . S
N3284 C3277 1.377 . S
N3284 C3285 1.321 . S
N3284 Eu3287 2.609 . S
C3285 C3283 1.400 . S
C3285 N3284 1.321 . S
C3285 H3292 0.930 . S
C3286 C3281 1.395 . S
C3286 C3283 1.386 . S
C3286 H3305 0.930 . S
Eu3287 N3284 2.609 . S
Eu3287 N3288 2.657 . S
Eu3287 O3321 2.380 . S
Eu3287 O3322 2.432 . S
Eu3287 O3326 2.558 . S
Eu3287 O3327 2.612 . S
Eu3287 O3329 2.339 . S
Eu3287 O3330 2.563 . S
Eu3287 O3331 2.419 . S
Eu3287 C3351 2.848 . S
N3288 C3280 1.362 . S
N3288 Eu3287 2.657 . S
N3288 C3289 1.334 . S
C3289 N3288 1.334 . S
C3289 C3291 1.413 . S
C3289 H3296 0.929 . S
C3290 C3278 1.392 . S
C3290 C3291 1.367 . S
C3290 H3298 0.930 . S
C3291 C3289 1.413 . S
C3291 C3290 1.367 . S
C3291 H3293 0.930 . S
H3292 C3285 0.930 . S
H3293 C3291 0.930 . S
H3294 C3282 0.930 . S
H3295 C3283 0.930 . S
H3296 C3289 0.929 . S
H3297 C3311 0.930 . S
H3298 C3290 0.930 . S
H3299 C3317 0.930 . S
H3300 C3308 0.929 . S
H3301 C3315 0.930 . S
H3302 C3279 0.931 . S
H3303 C3309 0.930 . S
H3304 C3342 0.930 . S
H3305 C3286 0.930 . S
H3306 C3341 0.931 . S
N3307 Eu3276 2.657 . S
N3307 C3308 1.334 . S
N3307 C3312 1.362 . S
C3308 H3300 0.929 . S
C3308 N3307 1.334 . S
C3308 C3311 1.413 . S
C3309 H3303 0.930 . S
C3309 C3310 1.392 . S
C3309 C3311 1.367 . S
C3310 C3309 1.392 . S
C3310 C3312 1.420 . S
C3310 C3342 1.423 . S
C3311 H3297 0.930 . S
C3311 C3308 1.413 . S
C3311 C3309 1.367 . S
C3312 N3307 1.362 . S
C3312 C3310 1.420 . S
C3312 C3316 1.429 . S
H3313 C3318 0.930 . S
N3314 Eu3276 2.609 . S
N3314 C3316 1.377 . S
N3314 C3317 1.321 . S
C3315 H3301 0.930 . S
C3315 C3317 1.400 . S
C3315 C3318 1.386 . S
C3316 C3312 1.429 . S
C3316 N3314 1.377 . S
C3316 C3319 1.411 . S
C3317 H3299 0.930 . S
C3317 N3314 1.321 . S
C3317 C3315 1.400 . S
C3318 H3313 0.930 . S
C3318 C3315 1.386 . S
C3318 C3319 1.395 . S
C3319 C3316 1.411 . S
C3319 C3318 1.395 . S
C3319 C3341 1.420 . S
O3320 Eu3276 2.558 . S
O3320 C3340 1.257 . S
O3321 Eu3276 2.612 . S
O3321 Eu3287 2.380 . S
O3321 C3332 1.276 . S
O3322 Eu3287 2.432 . S
O3322 C3339 1.264 . S
O3323 Eu3276 2.339 . S
O3323 C3339 1.254 . S
O3324 Eu3276 2.563 . S
O3324 C3332 1.235 . S
O3325 Eu3276 2.419 . S
O3325 C3340 1.249 . S
O3326 Eu3287 2.558 . S
O3326 C3351 1.257 . S
O3327 Eu3276 2.380 . S
O3327 Eu3287 2.612 . S
O3327 C3343 1.276 . S
O3328 Eu3276 2.432 . S
O3328 C3350 1.264 . S
O3329 Eu3287 2.339 . S
O3329 C3350 1.254 . S
O3330 Eu3287 2.563 . S
O3330 C3343 1.235 . S
O3331 Eu3287 2.419 . S
O3331 C3351 1.249 . S
C3332 O3321 1.276 . S
C3332 O3324 1.235 . S
C3333 C3335 1.393 . S
C3333 C3337 1.395 . S
C3333 C3340 1.492 . S
C3334 C3335 1.392 . S
C3334 C3336 1.386 . S
C3335 C3333 1.393 . S
C3335 C3334 1.392 . S
C3335 H3352 0.930 . S
C3336 C3334 1.386 . S
C3336 C3338 1.395 . S
C3336 H3353 0.930 . S
C3337 C3333 1.395 . S
C3337 C3338 1.379 . S
C3337 H3354 0.930 . S
C3338 C3336 1.395 . S
C3338 C3337 1.379 . S
C3338 H3355 0.930 . S
C3339 O3322 1.264 . S
C3339 O3323 1.254 . S
C3340 Eu3276 2.848 . S
C3340 O3320 1.257 . S
C3340 O3325 1.249 . S
C3340 C3333 1.492 . S
C3341 H3306 0.931 . S
C3341 C3319 1.420 . S
C3341 C3342 1.351 . S
C3342 H3304 0.930 . S
C3342 C3310 1.423 . S
C3342 C3341 1.351 . S
C3343 O3327 1.276 . S
C3343 O3330 1.235 . S
C3344 C3345 1.393 . S
C3344 C3348 1.395 . S
C3344 C3351 1.492 . S
C3345 C3344 1.393 . S
C3345 C3346 1.392 . S
C3345 H3356 0.930 . S
C3346 C3345 1.392 . S
C3346 C3347 1.386 . S
C3347 C3346 1.386 . S
C3347 C3349 1.395 . S
C3347 H3357 0.930 . S
C3348 C3344 1.395 . S
C3348 C3349 1.379 . S
C3348 H3358 0.930 . S
C3349 C3347 1.395 . S
C3349 C3348 1.379 . S
C3349 H3359 0.930 . S
C3350 O3328 1.264 . S
C3350 O3329 1.254 . S
C3351 Eu3287 2.848 . S
C3351 O3326 1.257 . S
C3351 O3331 1.249 . S
C3351 C3344 1.492 . S
H3352 C3335 0.930 . S
H3353 C3336 0.930 . S
H3354 C3337 0.930 . S
H3355 C3338 0.930 . S
H3356 C3345 0.930 . S
H3357 C3347 0.930 . S
H3358 C3348 0.930 . S
H3359 C3349 0.930 . S
Eu3360 N3391 2.657 . S
Eu3360 N3398 2.609 1_455 S
Eu3360 O3404 2.558 1_455 S
Eu3360 O3405 2.612 . S
Eu3360 O3407 2.339 . S
Eu3360 O3408 2.563 1_455 S
Eu3360 O3409 2.419 1_455 S
Eu3360 O3411 2.380 . S
Eu3360 O3412 2.432 . S
Eu3360 C3424 2.848 1_455 S
C3361 C3364 1.429 . S
C3361 C3365 1.411 . S
C3361 N3368 1.377 . S
C3362 C3364 1.420 . S
C3362 C3366 1.423 . S
C3362 C3374 1.392 . S
C3363 C3365 1.420 . S
C3363 C3366 1.351 . S
C3363 H3386 0.931 . S
C3364 C3361 1.429 . S
C3364 C3362 1.420 . S
C3364 N3372 1.362 . S
C3365 C3361 1.411 . S
C3365 C3363 1.420 . S
C3365 C3370 1.395 . S
C3366 C3362 1.423 . S
C3366 C3363 1.351 . S
C3366 H3378 0.930 . S
C3367 C3369 1.400 . S
C3367 C3370 1.386 . S
C3367 H3379 0.930 . S
N3368 C3361 1.377 . S
N3368 C3369 1.321 . S
N3368 Eu3371 2.609 . S
C3369 C3367 1.400 . S
C3369 N3368 1.321 . S
C3369 H3376 0.930 . S
C3370 C3365 1.395 . S
C3370 C3367 1.386 . S
C3370 H3389 0.930 . S
Eu3371 N3368 2.609 . S
Eu3371 N3372 2.657 . S
Eu3371 O3405 2.380 . S
Eu3371 O3406 2.432 . S
Eu3371 O3410 2.558 . S
Eu3371 O3411 2.612 . S
Eu3371 O3413 2.339 . S
Eu3371 O3414 2.563 . S
Eu3371 O3415 2.419 . S
Eu3371 C3435 2.848 . S
N3372 C3364 1.362 . S
N3372 Eu3371 2.657 . S
N3372 C3373 1.334 . S
C3373 N3372 1.334 . S
C3373 C3375 1.413 . S
C3373 H3380 0.929 . S
C3374 C3362 1.392 . S
C3374 C3375 1.367 . S
C3374 H3382 0.930 . S
C3375 C3373 1.413 . S
C3375 C3374 1.367 . S
C3375 H3377 0.930 1_455 S
H3376 C3369 0.930 . S
H3377 C3375 0.930 1_655 S
H3378 C3366 0.930 . S
H3379 C3367 0.930 . S
H3380 C3373 0.929 . S
H3381 C3395 0.930 . S
H3382 C3374 0.930 . S
H3383 C3401 0.930 . S
H3384 C3392 0.929 . S
H3385 C3399 0.930 . S
H3386 C3363 0.931 . S
H3387 C3393 0.930 . S
H3388 C3426 0.930 . S
H3389 C3370 0.930 . S
H3390 C3425 0.931 . S
N3391 Eu3360 2.657 . S
N3391 C3392 1.334 . S
N3391 C3396 1.362 . S
C3392 H3384 0.929 . S
C3392 N3391 1.334 . S
C3392 C3395 1.413 . S
C3393 H3387 0.930 . S
C3393 C3394 1.392 . S
C3393 C3395 1.367 . S
C3394 C3393 1.392 . S
C3394 C3396 1.420 . S
C3394 C3426 1.423 . S
C3395 H3381 0.930 . S
C3395 C3392 1.413 . S
C3395 C3393 1.367 . S
C3396 N3391 1.362 . S
C3396 C3394 1.420 . S
C3396 C3400 1.429 . S
H3397 C3402 0.930 . S
N3398 Eu3360 2.609 1_655 S
N3398 C3400 1.377 1_655 S
N3398 C3401 1.321 . S
C3399 H3385 0.930 . S
C3399 C3401 1.400 . S
C3399 C3402 1.386 . S
C3400 C3396 1.429 . S
C3400 N3398 1.377 1_455 S
C3400 C3403 1.403 1_455 S
C3401 H3383 0.930 . S
C3401 N3398 1.321 . S
C3401 C3399 1.400 . S
C3402 H3397 0.930 . S
C3402 C3399 1.386 . S
C3402 C3403 1.415 . S
C3403 C3400 1.403 1_655 S
C3403 C3402 1.415 . S
C3403 C3425 1.408 1_655 S
O3404 Eu3360 2.558 1_655 S
O3404 C3424 1.257 . S
O3405 Eu3360 2.612 . S
O3405 Eu3371 2.380 . S
O3405 C3416 1.276 . S
O3406 Eu3371 2.432 . S
O3406 C3423 1.264 . S
O3407 Eu3360 2.339 . S
O3407 C3423 1.254 . S
O3408 Eu3360 2.563 1_655 S
O3408 C3416 1.235 1_655 S
O3409 Eu3360 2.419 1_655 S
O3409 C3424 1.249 . S
O3410 Eu3371 2.558 . S
O3410 C3435 1.257 . S
O3411 Eu3360 2.380 . S
O3411 Eu3371 2.612 . S
O3411 C3427 1.276 . S
O3412 Eu3360 2.432 . S
O3412 C3434 1.264 . S
O3413 Eu3371 2.339 . S
O3413 C3434 1.254 . S
O3414 Eu3371 2.563 . S
O3414 C3427 1.235 . S
O3415 Eu3371 2.419 . S
O3415 C3435 1.249 . S
C3416 O3405 1.276 . S
C3416 O3408 1.235 1_455 S
C3417 C3419 1.393 . S
C3417 C3421 1.395 . S
C3417 C3424 1.492 . S
C3418 C3419 1.392 . S
C3418 C3420 1.386 . S
C3419 C3417 1.393 . S
C3419 C3418 1.392 . S
C3419 H3436 0.930 . S
C3420 C3418 1.386 . S
C3420 C3422 1.395 . S
C3420 H3437 0.930 . S
C3421 C3417 1.395 . S
C3421 C3422 1.379 . S
C3421 H3438 0.930 . S
C3422 C3420 1.395 . S
C3422 C3421 1.379 . S
C3422 H3439 0.930 . S
C3423 O3406 1.264 . S
C3423 O3407 1.254 . S
C3424 Eu3360 2.848 1_655 S
C3424 O3404 1.257 . S
C3424 O3409 1.249 . S
C3424 C3417 1.492 . S
C3425 H3390 0.931 . S
C3425 C3403 1.408 1_455 S
C3425 C3426 1.351 . S
C3426 H3388 0.930 . S
C3426 C3394 1.423 . S
C3426 C3425 1.351 . S
C3427 O3411 1.276 . S
C3427 O3414 1.235 . S
C3428 C3429 1.393 . S
C3428 C3432 1.395 . S
C3428 C3435 1.492 . S
C3429 C3428 1.393 . S
C3429 C3430 1.392 . S
C3429 H3440 0.930 . S
C3430 C3429 1.392 . S
C3430 C3431 1.386 . S
C3431 C3430 1.386 . S
C3431 C3433 1.395 . S
C3431 H3441 0.930 . S
C3432 C3428 1.395 . S
C3432 C3433 1.379 . S
C3432 H3442 0.930 . S
C3433 C3431 1.395 . S
C3433 C3432 1.379 . S
C3433 H3443 0.930 . S
C3434 O3412 1.264 . S
C3434 O3413 1.254 . S
C3435 Eu3371 2.848 . S
C3435 O3410 1.257 . S
C3435 O3415 1.249 . S
C3435 C3428 1.492 . S
H3436 C3419 0.930 . S
H3437 C3420 0.930 . S
H3438 C3421 0.930 . S
H3439 C3422 0.930 . S
H3440 C3429 0.930 . S
H3441 C3431 0.930 . S
H3442 C3432 0.930 . S
H3443 C3433 0.930 . S
Eu3444 N3475 2.657 . S
Eu3444 N3482 2.609 . S
Eu3444 O3488 2.558 . S
Eu3444 O3489 2.612 . S
Eu3444 O3491 2.339 . S
Eu3444 O3492 2.563 . S
Eu3444 O3493 2.419 . S
Eu3444 O3495 2.380 . S
Eu3444 O3496 2.432 . S
Eu3444 C3508 2.848 . S
C3445 C3448 1.429 . S
C3445 C3449 1.411 . S
C3445 N3452 1.377 . S
C3446 C3448 1.420 . S
C3446 C3450 1.423 . S
C3446 C3458 1.392 . S
C3447 C3449 1.420 . S
C3447 C3450 1.351 . S
C3447 H3470 0.931 . S
C3448 C3445 1.429 . S
C3448 C3446 1.420 . S
C3448 N3456 1.362 . S
C3449 C3445 1.411 . S
C3449 C3447 1.420 . S
C3449 C3454 1.395 . S
C3450 C3446 1.423 . S
C3450 C3447 1.351 . S
C3450 H3462 0.930 . S
C3451 C3453 1.400 . S
C3451 C3454 1.386 . S
C3451 H3463 0.930 . S
N3452 C3445 1.377 . S
N3452 C3453 1.321 . S
N3452 Eu3455 2.609 . S
C3453 C3451 1.400 . S
C3453 N3452 1.321 . S
C3453 H3460 0.930 . S
C3454 C3449 1.395 . S
C3454 C3451 1.386 . S
C3454 H3473 0.930 . S
Eu3455 N3452 2.609 . S
Eu3455 N3456 2.657 . S
Eu3455 O3489 2.380 . S
Eu3455 O3490 2.432 . S
Eu3455 O3494 2.558 . S
Eu3455 O3495 2.612 . S
Eu3455 O3497 2.339 . S
Eu3455 O3498 2.563 . S
Eu3455 O3499 2.419 . S
Eu3455 C3519 2.848 . S
N3456 C3448 1.362 . S
N3456 Eu3455 2.657 . S
N3456 C3457 1.334 . S
C3457 N3456 1.334 . S
C3457 C3459 1.413 . S
C3457 H3464 0.929 . S
C3458 C3446 1.392 . S
C3458 C3459 1.367 . S
C3458 H3466 0.930 . S
C3459 C3457 1.413 . S
C3459 C3458 1.367 . S
C3459 H3461 0.930 . S
H3460 C3453 0.930 . S
H3461 C3459 0.930 . S
H3462 C3450 0.930 . S
H3463 C3451 0.930 . S
H3464 C3457 0.929 . S
H3465 C3479 0.930 . S
H3466 C3458 0.930 . S
H3467 C3485 0.930 . S
H3468 C3476 0.929 . S
H3469 C3483 0.930 . S
H3470 C3447 0.931 . S
H3471 C3477 0.930 . S
H3472 C3510 0.930 . S
H3473 C3454 0.930 . S
H3474 C3509 0.931 . S
N3475 Eu3444 2.657 . S
N3475 C3476 1.334 . S
N3475 C3480 1.362 . S
C3476 H3468 0.929 . S
C3476 N3475 1.334 . S
C3476 C3479 1.413 . S
C3477 H3471 0.930 . S
C3477 C3478 1.392 . S
C3477 C3479 1.367 . S
C3478 C3477 1.392 . S
C3478 C3480 1.420 . S
C3478 C3510 1.423 . S
C3479 H3465 0.930 . S
C3479 C3476 1.413 . S
C3479 C3477 1.367 . S
C3480 N3475 1.362 . S
C3480 C3478 1.420 . S
C3480 C3484 1.429 . S
H3481 C3486 0.930 . S
N3482 Eu3444 2.609 . S
N3482 C3484 1.377 . S
N3482 C3485 1.321 . S
C3483 H3469 0.930 . S
C3483 C3485 1.400 . S
C3483 C3486 1.386 . S
C3484 C3480 1.429 . S
C3484 N3482 1.377 . S
C3484 C3487 1.411 . S
C3485 H3467 0.930 . S
C3485 N3482 1.321 . S
C3485 C3483 1.400 . S
C3486 H3481 0.930 . S
C3486 C3483 1.386 . S
C3486 C3487 1.395 . S
C3487 C3484 1.411 . S
C3487 C3486 1.395 . S
C3487 C3509 1.420 . S
O3488 Eu3444 2.558 . S
O3488 C3508 1.257 . S
O3489 Eu3444 2.612 . S
O3489 Eu3455 2.380 . S
O3489 C3500 1.276 . S
O3490 Eu3455 2.432 . S
O3490 C3507 1.264 . S
O3491 Eu3444 2.339 . S
O3491 C3507 1.254 . S
O3492 Eu3444 2.563 . S
O3492 C3500 1.235 . S
O3493 Eu3444 2.419 . S
O3493 C3508 1.249 . S
O3494 Eu3455 2.558 . S
O3494 C3519 1.257 . S
O3495 Eu3444 2.380 . S
O3495 Eu3455 2.612 . S
O3495 C3511 1.276 . S
O3496 Eu3444 2.432 . S
O3496 C3518 1.264 . S
O3497 Eu3455 2.339 . S
O3497 C3518 1.254 . S
O3498 Eu3455 2.563 . S
O3498 C3511 1.235 . S
O3499 Eu3455 2.419 . S
O3499 C3519 1.249 . S
C3500 O3489 1.276 . S
C3500 O3492 1.235 . S
C3501 C3503 1.393 . S
C3501 C3505 1.395 . S
C3501 C3508 1.492 . S
C3502 C3503 1.392 . S
C3502 C3504 1.386 . S
C3503 C3501 1.393 . S
C3503 C3502 1.392 . S
C3503 H3520 0.930 . S
C3504 C3502 1.386 . S
C3504 C3506 1.395 . S
C3504 H3521 0.930 . S
C3505 C3501 1.395 . S
C3505 C3506 1.379 . S
C3505 H3522 0.930 . S
C3506 C3504 1.395 . S
C3506 C3505 1.379 . S
C3506 H3523 0.930 . S
C3507 O3490 1.264 . S
C3507 O3491 1.254 . S
C3508 Eu3444 2.848 . S
C3508 O3488 1.257 . S
C3508 O3493 1.249 . S
C3508 C3501 1.492 . S
C3509 H3474 0.931 . S
C3509 C3487 1.420 . S
C3509 C3510 1.351 . S
C3510 H3472 0.930 . S
C3510 C3478 1.423 . S
C3510 C3509 1.351 . S
C3511 O3495 1.276 . S
C3511 O3498 1.235 . S
C3512 C3513 1.393 . S
C3512 C3516 1.395 . S
C3512 C3519 1.492 . S
C3513 C3512 1.393 . S
C3513 C3514 1.392 . S
C3513 H3524 0.930 . S
C3514 C3513 1.392 . S
C3514 C3515 1.386 . S
C3515 C3514 1.386 . S
C3515 C3517 1.395 . S
C3515 H3525 0.930 . S
C3516 C3512 1.395 . S
C3516 C3517 1.379 . S
C3516 H3526 0.930 . S
C3517 C3515 1.395 . S
C3517 C3516 1.379 . S
C3517 H3527 0.930 . S
C3518 O3496 1.264 . S
C3518 O3497 1.254 . S
C3519 Eu3455 2.848 . S
C3519 O3494 1.257 . S
C3519 O3499 1.249 . S
C3519 C3512 1.492 . S
H3520 C3503 0.930 . S
H3521 C3504 0.930 . S
H3522 C3505 0.930 . S
H3523 C3506 0.930 . S
H3524 C3513 0.930 . S
H3525 C3515 0.930 . S
H3526 C3516 0.930 . S
H3527 C3517 0.930 . S
Eu3528 N3559 2.657 . S
Eu3528 N3566 2.595 1_554 S
Eu3528 O3572 2.558 1_554 S
Eu3528 O3573 2.612 . S
Eu3528 O3575 2.339 . S
Eu3528 O3576 2.563 1_554 S
Eu3528 O3577 2.419 1_554 S
Eu3528 O3579 2.380 . S
Eu3528 O3580 2.432 . S
Eu3528 C3592 2.848 1_554 S
C3529 C3532 1.429 . S
C3529 C3533 1.411 . S
C3529 N3536 1.377 . S
C3530 C3532 1.420 . S
C3530 C3534 1.423 . S
C3530 C3542 1.392 . S
C3531 C3533 1.420 . S
C3531 C3534 1.351 . S
C3531 H3554 0.931 . S
C3532 C3529 1.429 . S
C3532 C3530 1.420 . S
C3532 N3540 1.362 . S
C3533 C3529 1.411 . S
C3533 C3531 1.420 . S
C3533 C3538 1.395 . S
C3534 C3530 1.423 . S
C3534 C3531 1.351 . S
C3534 H3546 0.930 . S
C3535 C3537 1.400 . S
C3535 C3538 1.386 . S
C3535 H3547 0.930 . S
N3536 C3529 1.377 . S
N3536 C3537 1.321 . S
N3536 Eu3539 2.609 . S
C3537 C3535 1.400 . S
C3537 N3536 1.321 . S
C3537 H3544 0.930 . S
C3538 C3533 1.395 . S
C3538 C3535 1.386 . S
C3538 H3557 0.930 . S
Eu3539 N3536 2.609 . S
Eu3539 N3540 2.657 . S
Eu3539 O3573 2.380 . S
Eu3539 O3574 2.432 . S
Eu3539 O3578 2.558 . S
Eu3539 O3579 2.612 . S
Eu3539 O3581 2.339 . S
Eu3539 O3582 2.563 . S
Eu3539 O3583 2.419 . S
Eu3539 C3603 2.848 . S
N3540 C3532 1.362 . S
N3540 Eu3539 2.657 . S
N3540 C3541 1.334 . S
C3541 N3540 1.334 . S
C3541 C3543 1.413 . S
C3541 H3548 0.929 . S
C3542 C3530 1.392 . S
C3542 C3543 1.367 . S
C3542 H3550 0.930 . S
C3543 C3541 1.413 . S
C3543 C3542 1.367 . S
C3543 H3545 0.930 1_554 S
H3544 C3537 0.930 . S
H3545 C3543 0.930 1_556 S
H3546 C3534 0.930 . S
H3547 C3535 0.930 . S
H3548 C3541 0.929 . S
H3549 C3563 0.930 . S
H3550 C3542 0.930 . S
H3551 C3569 0.930 . S
H3552 C3560 0.929 . S
H3553 C3567 0.930 . S
H3554 C3531 0.931 . S
H3555 C3561 0.930 . S
H3556 C3594 0.930 . S
H3557 C3538 0.930 . S
H3558 C3593 0.931 . S
N3559 Eu3528 2.657 . S
N3559 C3560 1.334 . S
N3559 C3564 1.362 . S
C3560 H3552 0.929 . S
C3560 N3559 1.334 . S
C3560 C3563 1.413 . S
C3561 H3555 0.930 . S
C3561 C3562 1.392 . S
C3561 C3563 1.367 . S
C3562 C3561 1.392 . S
C3562 C3564 1.420 . S
C3562 C3594 1.423 . S
C3563 H3549 0.930 . S
C3563 C3560 1.413 . S
C3563 C3561 1.367 . S
C3564 N3559 1.362 . S
C3564 C3562 1.420 . S
C3564 C3568 1.429 . S
H3565 C3570 0.930 . S
N3566 Eu3528 2.595 1_556 S
N3566 C3568 1.356 1_556 S
N3566 C3569 1.364 . S
C3567 H3553 0.930 . S
C3567 C3569 1.400 . S
C3567 C3570 1.386 . S
C3568 C3564 1.429 . S
C3568 N3566 1.356 1_554 S
C3568 C3571 1.415 . S
C3569 H3551 0.930 . S
C3569 N3566 1.364 . S
C3569 C3567 1.400 . S
C3570 H3565 0.930 . S
C3570 C3567 1.386 . S
C3570 C3571 1.385 1_556 S
C3571 C3568 1.415 . S
C3571 C3570 1.385 1_554 S
C3571 C3593 1.426 . S
O3572 Eu3528 2.558 1_556 S
O3572 C3592 1.257 . S
O3573 Eu3528 2.612 . S
O3573 Eu3539 2.380 . S
O3573 C3584 1.276 . S
O3574 Eu3539 2.432 . S
O3574 C3591 1.264 . S
O3575 Eu3528 2.339 . S
O3575 C3591 1.254 . S
O3576 Eu3528 2.563 1_556 S
O3576 C3584 1.235 1_556 S
O3577 Eu3528 2.419 1_556 S
O3577 C3592 1.249 . S
O3578 Eu3539 2.558 . S
O3578 C3603 1.257 . S
O3579 Eu3528 2.380 . S
O3579 Eu3539 2.612 . S
O3579 C3595 1.276 . S
O3580 Eu3528 2.432 . S
O3580 C3602 1.264 . S
O3581 Eu3539 2.339 . S
O3581 C3602 1.254 . S
O3582 Eu3539 2.563 . S
O3582 C3595 1.235 . S
O3583 Eu3539 2.419 . S
O3583 C3603 1.249 . S
C3584 O3573 1.276 . S
C3584 O3576 1.235 1_554 S
C3585 C3587 1.393 . S
C3585 C3589 1.395 . S
C3585 C3592 1.492 . S
C3586 C3587 1.392 . S
C3586 C3588 1.386 . S
C3587 C3585 1.393 . S
C3587 C3586 1.392 . S
C3587 H3604 0.930 . S
C3588 C3586 1.386 . S
C3588 C3590 1.395 . S
C3588 H3605 0.930 . S
C3589 C3585 1.395 . S
C3589 C3590 1.379 . S
C3589 H3606 0.930 . S
C3590 C3588 1.395 . S
C3590 C3589 1.379 . S
C3590 H3607 0.930 . S
C3591 O3574 1.264 . S
C3591 O3575 1.254 . S
C3592 Eu3528 2.848 1_556 S
C3592 O3572 1.257 . S
C3592 O3577 1.249 . S
C3592 C3585 1.492 . S
C3593 H3558 0.931 . S
C3593 C3571 1.426 . S
C3593 C3594 1.351 . S
C3594 H3556 0.930 . S
C3594 C3562 1.423 . S
C3594 C3593 1.351 . S
C3595 O3579 1.276 . S
C3595 O3582 1.235 . S
C3596 C3597 1.393 . S
C3596 C3600 1.395 . S
C3596 C3603 1.492 . S
C3597 C3596 1.393 . S
C3597 C3598 1.392 . S
C3597 H3608 0.930 . S
C3598 C3597 1.392 . S
C3598 C3599 1.386 . S
C3599 C3598 1.386 . S
C3599 C3601 1.395 . S
C3599 H3609 0.930 . S
C3600 C3596 1.395 . S
C3600 C3601 1.379 . S
C3600 H3610 0.930 . S
C3601 C3599 1.395 . S
C3601 C3600 1.379 . S
C3601 H3611 0.930 . S
C3602 O3580 1.264 . S
C3602 O3581 1.254 . S
C3603 Eu3539 2.848 . S
C3603 O3578 1.257 . S
C3603 O3583 1.249 . S
C3603 C3596 1.492 . S
H3604 C3587 0.930 . S
H3605 C3588 0.930 . S
H3606 C3589 0.930 . S
H3607 C3590 0.930 . S
H3608 C3597 0.930 . S
H3609 C3599 0.930 . S
H3610 C3600 0.930 . S
H3611 C3601 0.930 . S
Eu3612 N3643 2.657 . S
Eu3612 N3650 2.609 . S
Eu3612 O3656 2.558 . S
Eu3612 O3657 2.612 . S
Eu3612 O3659 2.339 . S
Eu3612 O3660 2.563 . S
Eu3612 O3661 2.419 . S
Eu3612 O3663 2.380 . S
Eu3612 O3664 2.432 . S
Eu3612 C3676 2.848 . S
C3613 C3616 1.429 . S
C3613 C3617 1.411 . S
C3613 N3620 1.377 . S
C3614 C3616 1.420 . S
C3614 C3618 1.423 . S
C3614 C3626 1.392 . S
C3615 C3617 1.420 . S
C3615 C3618 1.351 . S
C3615 H3638 0.931 . S
C3616 C3613 1.429 . S
C3616 C3614 1.420 . S
C3616 N3624 1.362 . S
C3617 C3613 1.411 . S
C3617 C3615 1.420 . S
C3617 C3622 1.395 . S
C3618 C3614 1.423 . S
C3618 C3615 1.351 . S
C3618 H3630 0.930 . S
C3619 C3621 1.400 . S
C3619 C3622 1.386 . S
C3619 H3631 0.930 . S
N3620 C3613 1.377 . S
N3620 C3621 1.321 . S
N3620 Eu3623 2.609 . S
C3621 C3619 1.400 . S
C3621 N3620 1.321 . S
C3621 H3628 0.930 . S
C3622 C3617 1.395 . S
C3622 C3619 1.386 . S
C3622 H3641 0.930 . S
Eu3623 N3620 2.609 . S
Eu3623 N3624 2.657 . S
Eu3623 O3657 2.380 . S
Eu3623 O3658 2.432 . S
Eu3623 O3662 2.558 . S
Eu3623 O3663 2.612 . S
Eu3623 O3665 2.339 . S
Eu3623 O3666 2.563 . S
Eu3623 O3667 2.419 . S
Eu3623 C3687 2.848 . S
N3624 C3616 1.362 . S
N3624 Eu3623 2.657 . S
N3624 C3625 1.334 . S
C3625 N3624 1.334 . S
C3625 C3627 1.413 . S
C3625 H3632 0.929 . S
C3626 C3614 1.392 . S
C3626 C3627 1.367 . S
C3626 H3634 0.930 . S
C3627 C3625 1.413 . S
C3627 C3626 1.367 . S
C3627 H3629 0.930 . S
H3628 C3621 0.930 . S
H3629 C3627 0.930 . S
H3630 C3618 0.930 . S
H3631 C3619 0.930 . S
H3632 C3625 0.929 . S
H3633 C3647 0.930 . S
H3634 C3626 0.930 . S
H3635 C3653 0.930 . S
H3636 C3644 0.929 . S
H3637 C3651 0.930 . S
H3638 C3615 0.931 . S
H3639 C3645 0.930 . S
H3640 C3678 0.930 . S
H3641 C3622 0.930 . S
H3642 C3677 0.931 . S
N3643 Eu3612 2.657 . S
N3643 C3644 1.334 . S
N3643 C3648 1.362 . S
C3644 H3636 0.929 . S
C3644 N3643 1.334 . S
C3644 C3647 1.413 . S
C3645 H3639 0.930 . S
C3645 C3646 1.392 . S
C3645 C3647 1.367 . S
C3646 C3645 1.392 . S
C3646 C3648 1.420 . S
C3646 C3678 1.423 . S
C3647 H3633 0.930 . S
C3647 C3644 1.413 . S
C3647 C3645 1.367 . S
C3648 N3643 1.362 . S
C3648 C3646 1.420 . S
C3648 C3652 1.429 . S
H3649 C3654 0.930 . S
N3650 Eu3612 2.609 . S
N3650 C3652 1.377 . S
N3650 C3653 1.321 . S
C3651 H3637 0.930 . S
C3651 C3653 1.400 . S
C3651 C3654 1.386 . S
C3652 C3648 1.429 . S
C3652 N3650 1.377 . S
C3652 C3655 1.411 . S
C3653 H3635 0.930 . S
C3653 N3650 1.321 . S
C3653 C3651 1.400 . S
C3654 H3649 0.930 . S
C3654 C3651 1.386 . S
C3654 C3655 1.395 . S
C3655 C3652 1.411 . S
C3655 C3654 1.395 . S
C3655 C3677 1.420 . S
O3656 Eu3612 2.558 . S
O3656 C3676 1.257 . S
O3657 Eu3612 2.612 . S
O3657 Eu3623 2.380 . S
O3657 C3668 1.276 . S
O3658 Eu3623 2.432 . S
O3658 C3675 1.264 . S
O3659 Eu3612 2.339 . S
O3659 C3675 1.254 . S
O3660 Eu3612 2.563 . S
O3660 C3668 1.235 . S
O3661 Eu3612 2.419 . S
O3661 C3676 1.249 . S
O3662 Eu3623 2.558 . S
O3662 C3687 1.257 . S
O3663 Eu3612 2.380 . S
O3663 Eu3623 2.612 . S
O3663 C3679 1.276 . S
O3664 Eu3612 2.432 . S
O3664 C3686 1.264 . S
O3665 Eu3623 2.339 . S
O3665 C3686 1.254 . S
O3666 Eu3623 2.563 . S
O3666 C3679 1.235 . S
O3667 Eu3623 2.419 . S
O3667 C3687 1.249 . S
C3668 O3657 1.276 . S
C3668 O3660 1.235 . S
C3669 C3671 1.393 . S
C3669 C3673 1.395 . S
C3669 C3676 1.492 . S
C3670 C3671 1.392 . S
C3670 C3672 1.386 . S
C3671 C3669 1.393 . S
C3671 C3670 1.392 . S
C3671 H3688 0.930 . S
C3672 C3670 1.386 . S
C3672 C3674 1.395 . S
C3672 H3689 0.930 . S
C3673 C3669 1.395 . S
C3673 C3674 1.379 . S
C3673 H3690 0.930 . S
C3674 C3672 1.395 . S
C3674 C3673 1.379 . S
C3674 H3691 0.930 . S
C3675 O3658 1.264 . S
C3675 O3659 1.254 . S
C3676 Eu3612 2.848 . S
C3676 O3656 1.257 . S
C3676 O3661 1.249 . S
C3676 C3669 1.492 . S
C3677 H3642 0.931 . S
C3677 C3655 1.420 . S
C3677 C3678 1.351 . S
C3678 H3640 0.930 . S
C3678 C3646 1.423 . S
C3678 C3677 1.351 . S
C3679 O3663 1.276 . S
C3679 O3666 1.235 . S
C3680 C3681 1.393 . S
C3680 C3684 1.395 . S
C3680 C3687 1.492 . S
C3681 C3680 1.393 . S
C3681 C3682 1.392 . S
C3681 H3692 0.930 . S
C3682 C3681 1.392 . S
C3682 C3683 1.386 . S
C3683 C3682 1.386 . S
C3683 C3685 1.395 . S
C3683 H3693 0.930 . S
C3684 C3680 1.395 . S
C3684 C3685 1.379 . S
C3684 H3694 0.930 . S
C3685 C3683 1.395 . S
C3685 C3684 1.379 . S
C3685 H3695 0.930 . S
C3686 O3664 1.264 . S
C3686 O3665 1.254 . S
C3687 Eu3623 2.848 . S
C3687 O3662 1.257 . S
C3687 O3667 1.249 . S
C3687 C3680 1.492 . S
H3688 C3671 0.930 . S
H3689 C3672 0.930 . S
H3690 C3673 0.930 . S
H3691 C3674 0.930 . S
H3692 C3681 0.930 . S
H3693 C3683 0.930 . S
H3694 C3684 0.930 . S
H3695 C3685 0.930 . S
Eu3696 N3727 2.657 . S
Eu3696 N3734 2.609 . S
Eu3696 O3740 2.558 . S
Eu3696 O3741 2.612 . S
Eu3696 O3743 2.339 . S
Eu3696 O3744 2.563 . S
Eu3696 O3745 2.419 . S
Eu3696 O3747 2.380 . S
Eu3696 O3748 2.432 . S
Eu3696 C3760 2.848 . S
C3697 C3700 1.429 . S
C3697 C3701 1.411 . S
C3697 N3704 1.377 . S
C3698 C3700 1.420 . S
C3698 C3702 1.423 . S
C3698 C3710 1.392 . S
C3699 C3701 1.420 . S
C3699 C3702 1.351 . S
C3699 H3722 0.931 . S
C3700 C3697 1.429 . S
C3700 C3698 1.420 . S
C3700 N3708 1.362 . S
C3701 C3697 1.411 . S
C3701 C3699 1.420 . S
C3701 C3706 1.395 . S
C3702 C3698 1.423 . S
C3702 C3699 1.351 . S
C3702 H3714 0.930 . S
C3703 C3705 1.400 . S
C3703 C3706 1.386 . S
C3703 H3715 0.930 . S
N3704 C3697 1.377 . S
N3704 C3705 1.321 . S
N3704 Eu3707 2.609 . S
C3705 C3703 1.400 . S
C3705 N3704 1.321 . S
C3705 H3712 0.930 . S
C3706 C3701 1.395 . S
C3706 C3703 1.386 . S
C3706 H3725 0.930 . S
Eu3707 N3704 2.609 . S
Eu3707 N3708 2.657 . S
Eu3707 O3741 2.380 . S
Eu3707 O3742 2.432 . S
Eu3707 O3746 2.558 . S
Eu3707 O3747 2.612 . S
Eu3707 O3749 2.339 . S
Eu3707 O3750 2.563 . S
Eu3707 O3751 2.419 . S
Eu3707 C3771 2.848 . S
N3708 C3700 1.362 . S
N3708 Eu3707 2.657 . S
N3708 C3709 1.334 . S
C3709 N3708 1.334 . S
C3709 C3711 1.413 . S
C3709 H3716 0.929 . S
C3710 C3698 1.392 . S
C3710 C3711 1.367 . S
C3710 H3718 0.930 . S
C3711 C3709 1.413 . S
C3711 C3710 1.367 . S
C3711 H3713 0.930 . S
H3712 C3705 0.930 . S
H3713 C3711 0.930 . S
H3714 C3702 0.930 . S
H3715 C3703 0.930 . S
H3716 C3709 0.929 . S
H3717 C3731 0.930 . S
H3718 C3710 0.930 . S
H3719 C3737 0.930 . S
H3720 C3728 0.929 . S
H3721 C3735 0.930 . S
H3722 C3699 0.931 . S
H3723 C3729 0.930 . S
H3724 C3762 0.930 . S
H3725 C3706 0.930 . S
H3726 C3761 0.931 . S
N3727 Eu3696 2.657 . S
N3727 C3728 1.334 . S
N3727 C3732 1.362 . S
C3728 H3720 0.929 . S
C3728 N3727 1.334 . S
C3728 C3731 1.413 . S
C3729 H3723 0.930 . S
C3729 C3730 1.392 . S
C3729 C3731 1.367 . S
C3730 C3729 1.392 . S
C3730 C3732 1.420 . S
C3730 C3762 1.423 . S
C3731 H3717 0.930 . S
C3731 C3728 1.413 . S
C3731 C3729 1.367 . S
C3732 N3727 1.362 . S
C3732 C3730 1.420 . S
C3732 C3736 1.429 . S
H3733 C3738 0.930 . S
N3734 Eu3696 2.609 . S
N3734 C3736 1.377 . S
N3734 C3737 1.321 . S
C3735 H3721 0.930 . S
C3735 C3737 1.400 . S
C3735 C3738 1.386 . S
C3736 C3732 1.429 . S
C3736 N3734 1.377 . S
C3736 C3739 1.411 . S
C3737 H3719 0.930 . S
C3737 N3734 1.321 . S
C3737 C3735 1.400 . S
C3738 H3733 0.930 . S
C3738 C3735 1.386 . S
C3738 C3739 1.395 . S
C3739 C3736 1.411 . S
C3739 C3738 1.395 . S
C3739 C3761 1.420 . S
O3740 Eu3696 2.558 . S
O3740 C3760 1.257 . S
O3741 Eu3696 2.612 . S
O3741 Eu3707 2.380 . S
O3741 C3752 1.276 . S
O3742 Eu3707 2.432 . S
O3742 C3759 1.264 . S
O3743 Eu3696 2.339 . S
O3743 C3759 1.254 . S
O3744 Eu3696 2.563 . S
O3744 C3752 1.235 . S
O3745 Eu3696 2.419 . S
O3745 C3760 1.249 . S
O3746 Eu3707 2.558 . S
O3746 C3771 1.257 . S
O3747 Eu3696 2.380 . S
O3747 Eu3707 2.612 . S
O3747 C3763 1.276 . S
O3748 Eu3696 2.432 . S
O3748 C3770 1.264 . S
O3749 Eu3707 2.339 . S
O3749 C3770 1.254 . S
O3750 Eu3707 2.563 . S
O3750 C3763 1.235 . S
O3751 Eu3707 2.419 . S
O3751 C3771 1.249 . S
C3752 O3741 1.276 . S
C3752 O3744 1.235 . S
C3753 C3755 1.393 . S
C3753 C3757 1.395 . S
C3753 C3760 1.492 . S
C3754 C3755 1.392 . S
C3754 C3756 1.386 . S
C3755 C3753 1.393 . S
C3755 C3754 1.392 . S
C3755 H3772 0.930 . S
C3756 C3754 1.386 . S
C3756 C3758 1.395 . S
C3756 H3773 0.930 . S
C3757 C3753 1.395 . S
C3757 C3758 1.379 . S
C3757 H3774 0.930 . S
C3758 C3756 1.395 . S
C3758 C3757 1.379 . S
C3758 H3775 0.930 . S
C3759 O3742 1.264 . S
C3759 O3743 1.254 . S
C3760 Eu3696 2.848 . S
C3760 O3740 1.257 . S
C3760 O3745 1.249 . S
C3760 C3753 1.492 . S
C3761 H3726 0.931 . S
C3761 C3739 1.420 . S
C3761 C3762 1.351 . S
C3762 H3724 0.930 . S
C3762 C3730 1.423 . S
C3762 C3761 1.351 . S
C3763 O3747 1.276 . S
C3763 O3750 1.235 . S
C3764 C3765 1.393 . S
C3764 C3768 1.395 . S
C3764 C3771 1.492 . S
C3765 C3764 1.393 . S
C3765 C3766 1.392 . S
C3765 H3776 0.930 . S
C3766 C3765 1.392 . S
C3766 C3767 1.386 . S
C3767 C3766 1.386 . S
C3767 C3769 1.395 . S
C3767 H3777 0.930 . S
C3768 C3764 1.395 . S
C3768 C3769 1.379 . S
C3768 H3778 0.930 . S
C3769 C3767 1.395 . S
C3769 C3768 1.379 . S
C3769 H3779 0.930 . S
C3770 O3748 1.264 . S
C3770 O3749 1.254 . S
C3771 Eu3707 2.848 . S
C3771 O3746 1.257 . S
C3771 O3751 1.249 . S
C3771 C3764 1.492 . S
H3772 C3755 0.930 . S
H3773 C3756 0.930 . S
H3774 C3757 0.930 . S
H3775 C3758 0.930 . S
H3776 C3765 0.930 . S
H3777 C3767 0.930 . S
H3778 C3768 0.930 . S
H3779 C3769 0.930 . S
Eu3780 N3811 2.657 . S
Eu3780 N3818 2.609 . S
Eu3780 O3824 2.558 . S
Eu3780 O3825 2.612 . S
Eu3780 O3827 2.339 . S
Eu3780 O3828 2.563 . S
Eu3780 O3829 2.419 . S
Eu3780 O3831 2.380 . S
Eu3780 O3832 2.432 . S
Eu3780 C3844 2.848 . S
C3781 C3784 1.429 . S
C3781 C3785 1.411 . S
C3781 N3788 1.377 . S
C3782 C3784 1.420 . S
C3782 C3786 1.423 . S
C3782 C3794 1.392 . S
C3783 C3785 1.420 . S
C3783 C3786 1.351 . S
C3783 H3806 0.931 . S
C3784 C3781 1.429 . S
C3784 C3782 1.420 . S
C3784 N3792 1.362 . S
C3785 C3781 1.411 . S
C3785 C3783 1.420 . S
C3785 C3790 1.395 . S
C3786 C3782 1.423 . S
C3786 C3783 1.351 . S
C3786 H3798 0.930 . S
C3787 C3789 1.400 . S
C3787 C3790 1.386 . S
C3787 H3799 0.930 . S
N3788 C3781 1.377 . S
N3788 C3789 1.321 . S
N3788 Eu3791 2.609 . S
C3789 C3787 1.400 . S
C3789 N3788 1.321 . S
C3789 H3796 0.930 . S
C3790 C3785 1.395 . S
C3790 C3787 1.386 . S
C3790 H3809 0.930 . S
Eu3791 N3788 2.609 . S
Eu3791 N3792 2.657 . S
Eu3791 O3825 2.380 . S
Eu3791 O3826 2.432 . S
Eu3791 O3830 2.558 . S
Eu3791 O3831 2.612 . S
Eu3791 O3833 2.339 . S
Eu3791 O3834 2.563 . S
Eu3791 O3835 2.419 . S
Eu3791 C3855 2.848 . S
N3792 C3784 1.362 . S
N3792 Eu3791 2.657 . S
N3792 C3793 1.334 . S
C3793 N3792 1.334 . S
C3793 C3795 1.413 . S
C3793 H3800 0.929 . S
C3794 C3782 1.392 . S
C3794 C3795 1.367 . S
C3794 H3802 0.930 . S
C3795 C3793 1.413 . S
C3795 C3794 1.367 . S
C3795 H3797 0.930 . S
H3796 C3789 0.930 . S
H3797 C3795 0.930 . S
H3798 C3786 0.930 . S
H3799 C3787 0.930 . S
H3800 C3793 0.929 . S
H3801 C3815 0.930 . S
H3802 C3794 0.930 . S
H3803 C3821 0.930 . S
H3804 C3812 0.929 . S
H3805 C3819 0.930 . S
H3806 C3783 0.931 . S
H3807 C3813 0.930 . S
H3808 C3846 0.930 . S
H3809 C3790 0.930 . S
H3810 C3845 0.931 . S
N3811 Eu3780 2.657 . S
N3811 C3812 1.334 . S
N3811 C3816 1.362 . S
C3812 H3804 0.929 . S
C3812 N3811 1.334 . S
C3812 C3815 1.413 . S
C3813 H3807 0.930 . S
C3813 C3814 1.392 . S
C3813 C3815 1.367 . S
C3814 C3813 1.392 . S
C3814 C3816 1.420 . S
C3814 C3846 1.423 . S
C3815 H3801 0.930 . S
C3815 C3812 1.413 . S
C3815 C3813 1.367 . S
C3816 N3811 1.362 . S
C3816 C3814 1.420 . S
C3816 C3820 1.429 . S
H3817 C3822 0.930 . S
N3818 Eu3780 2.609 . S
N3818 C3820 1.377 . S
N3818 C3821 1.321 . S
C3819 H3805 0.930 . S
C3819 C3821 1.400 . S
C3819 C3822 1.386 . S
C3820 C3816 1.429 . S
C3820 N3818 1.377 . S
C3820 C3823 1.411 . S
C3821 H3803 0.930 . S
C3821 N3818 1.321 . S
C3821 C3819 1.400 . S
C3822 H3817 0.930 . S
C3822 C3819 1.386 . S
C3822 C3823 1.395 . S
C3823 C3820 1.411 . S
C3823 C3822 1.395 . S
C3823 C3845 1.420 . S
O3824 Eu3780 2.558 . S
O3824 C3844 1.257 . S
O3825 Eu3780 2.612 . S
O3825 Eu3791 2.380 . S
O3825 C3836 1.276 . S
O3826 Eu3791 2.432 . S
O3826 C3843 1.264 . S
O3827 Eu3780 2.339 . S
O3827 C3843 1.254 . S
O3828 Eu3780 2.563 . S
O3828 C3836 1.235 . S
O3829 Eu3780 2.419 . S
O3829 C3844 1.249 . S
O3830 Eu3791 2.558 . S
O3830 C3855 1.257 . S
O3831 Eu3780 2.380 . S
O3831 Eu3791 2.612 . S
O3831 C3847 1.276 . S
O3832 Eu3780 2.432 . S
O3832 C3854 1.264 . S
O3833 Eu3791 2.339 . S
O3833 C3854 1.254 . S
O3834 Eu3791 2.563 . S
O3834 C3847 1.235 . S
O3835 Eu3791 2.419 . S
O3835 C3855 1.249 . S
C3836 O3825 1.276 . S
C3836 O3828 1.235 . S
C3837 C3839 1.393 . S
C3837 C3841 1.395 . S
C3837 C3844 1.492 . S
C3838 C3839 1.392 . S
C3838 C3840 1.386 . S
C3839 C3837 1.393 . S
C3839 C3838 1.392 . S
C3839 H3856 0.930 . S
C3840 C3838 1.386 . S
C3840 C3842 1.395 . S
C3840 H3857 0.930 . S
C3841 C3837 1.395 . S
C3841 C3842 1.379 . S
C3841 H3858 0.930 . S
C3842 C3840 1.395 . S
C3842 C3841 1.379 . S
C3842 H3859 0.930 . S
C3843 O3826 1.264 . S
C3843 O3827 1.254 . S
C3844 Eu3780 2.848 . S
C3844 O3824 1.257 . S
C3844 O3829 1.249 . S
C3844 C3837 1.492 . S
C3845 H3810 0.931 . S
C3845 C3823 1.420 . S
C3845 C3846 1.351 . S
C3846 H3808 0.930 . S
C3846 C3814 1.423 . S
C3846 C3845 1.351 . S
C3847 O3831 1.276 . S
C3847 O3834 1.235 . S
C3848 C3849 1.393 . S
C3848 C3852 1.395 . S
C3848 C3855 1.492 . S
C3849 C3848 1.393 . S
C3849 C3850 1.392 . S
C3849 H3860 0.930 . S
C3850 C3849 1.392 . S
C3850 C3851 1.386 . S
C3851 C3850 1.386 . S
C3851 C3853 1.395 . S
C3851 H3861 0.930 . S
C3852 C3848 1.395 . S
C3852 C3853 1.379 . S
C3852 H3862 0.930 . S
C3853 C3851 1.395 . S
C3853 C3852 1.379 . S
C3853 H3863 0.930 . S
C3854 O3832 1.264 . S
C3854 O3833 1.254 . S
C3855 Eu3791 2.848 . S
C3855 O3830 1.257 . S
C3855 O3835 1.249 . S
C3855 C3848 1.492 . S
H3856 C3839 0.930 . S
H3857 C3840 0.930 . S
H3858 C3841 0.930 . S
H3859 C3842 0.930 . S
H3860 C3849 0.930 . S
H3861 C3851 0.930 . S
H3862 C3852 0.930 . S
H3863 C3853 0.930 . S
Eu3864 N3895 2.657 . S
Eu3864 N3902 2.609 . S
Eu3864 O3908 2.558 . S
Eu3864 O3909 2.612 . S
Eu3864 O3911 2.339 . S
Eu3864 O3912 2.563 . S
Eu3864 O3913 2.419 . S
Eu3864 O3915 2.380 . S
Eu3864 O3916 2.432 . S
Eu3864 C3928 2.848 . S
C3865 C3868 1.429 . S
C3865 C3869 1.411 . S
C3865 N3872 1.377 . S
C3866 C3868 1.420 . S
C3866 C3870 1.423 . S
C3866 C3878 1.392 . S
C3867 C3869 1.420 . S
C3867 C3870 1.351 . S
C3867 H3890 0.931 . S
C3868 C3865 1.429 . S
C3868 C3866 1.420 . S
C3868 N3876 1.362 . S
C3869 C3865 1.411 . S
C3869 C3867 1.420 . S
C3869 C3874 1.395 . S
C3870 C3866 1.423 . S
C3870 C3867 1.351 . S
C3870 H3882 0.930 . S
C3871 C3873 1.400 . S
C3871 C3874 1.386 . S
C3871 H3883 0.930 . S
N3872 C3865 1.377 . S
N3872 C3873 1.321 . S
N3872 Eu3875 2.609 . S
C3873 C3871 1.400 . S
C3873 N3872 1.321 . S
C3873 H3880 0.930 . S
C3874 C3869 1.395 . S
C3874 C3871 1.386 . S
C3874 H3893 0.930 . S
Eu3875 N3872 2.609 . S
Eu3875 N3876 2.657 . S
Eu3875 O3909 2.380 . S
Eu3875 O3910 2.432 . S
Eu3875 O3914 2.558 . S
Eu3875 O3915 2.612 . S
Eu3875 O3917 2.339 . S
Eu3875 O3918 2.563 . S
Eu3875 O3919 2.419 . S
Eu3875 C3939 2.848 . S
N3876 C3868 1.362 . S
N3876 Eu3875 2.657 . S
N3876 C3877 1.334 . S
C3877 N3876 1.334 . S
C3877 C3879 1.413 . S
C3877 H3884 0.929 . S
C3878 C3866 1.392 . S
C3878 C3879 1.367 . S
C3878 H3886 0.930 . S
C3879 C3877 1.413 . S
C3879 C3878 1.367 . S
C3879 H3881 0.930 . S
H3880 C3873 0.930 . S
H3881 C3879 0.930 . S
H3882 C3870 0.930 . S
H3883 C3871 0.930 . S
H3884 C3877 0.929 . S
H3885 C3899 0.930 . S
H3886 C3878 0.930 . S
H3887 C3905 0.930 . S
H3888 C3896 0.929 . S
H3889 C3903 0.930 . S
H3890 C3867 0.931 . S
H3891 C3897 0.930 . S
H3892 C3930 0.930 . S
H3893 C3874 0.930 . S
H3894 C3929 0.931 . S
N3895 Eu3864 2.657 . S
N3895 C3896 1.334 . S
N3895 C3900 1.362 . S
C3896 H3888 0.929 . S
C3896 N3895 1.334 . S
C3896 C3899 1.413 . S
C3897 H3891 0.930 . S
C3897 C3898 1.392 . S
C3897 C3899 1.367 . S
C3898 C3897 1.392 . S
C3898 C3900 1.420 . S
C3898 C3930 1.423 . S
C3899 H3885 0.930 . S
C3899 C3896 1.413 . S
C3899 C3897 1.367 . S
C3900 N3895 1.362 . S
C3900 C3898 1.420 . S
C3900 C3904 1.429 . S
H3901 C3906 0.930 . S
N3902 Eu3864 2.609 . S
N3902 C3904 1.377 . S
N3902 C3905 1.321 . S
C3903 H3889 0.930 . S
C3903 C3905 1.400 . S
C3903 C3906 1.386 . S
C3904 C3900 1.429 . S
C3904 N3902 1.377 . S
C3904 C3907 1.411 . S
C3905 H3887 0.930 . S
C3905 N3902 1.321 . S
C3905 C3903 1.400 . S
C3906 H3901 0.930 . S
C3906 C3903 1.386 . S
C3906 C3907 1.395 . S
C3907 C3904 1.411 . S
C3907 C3906 1.395 . S
C3907 C3929 1.420 . S
O3908 Eu3864 2.558 . S
O3908 C3928 1.257 . S
O3909 Eu3864 2.612 . S
O3909 Eu3875 2.380 . S
O3909 C3920 1.276 . S
O3910 Eu3875 2.432 . S
O3910 C3927 1.264 . S
O3911 Eu3864 2.339 . S
O3911 C3927 1.254 . S
O3912 Eu3864 2.563 . S
O3912 C3920 1.235 . S
O3913 Eu3864 2.419 . S
O3913 C3928 1.249 . S
O3914 Eu3875 2.558 . S
O3914 C3939 1.257 . S
O3915 Eu3864 2.380 . S
O3915 Eu3875 2.612 . S
O3915 C3931 1.276 . S
O3916 Eu3864 2.432 . S
O3916 C3938 1.264 . S
O3917 Eu3875 2.339 . S
O3917 C3938 1.254 . S
O3918 Eu3875 2.563 . S
O3918 C3931 1.235 . S
O3919 Eu3875 2.419 . S
O3919 C3939 1.249 . S
C3920 O3909 1.276 . S
C3920 O3912 1.235 . S
C3921 C3923 1.393 . S
C3921 C3925 1.395 . S
C3921 C3928 1.492 . S
C3922 C3923 1.392 . S
C3922 C3924 1.386 . S
C3923 C3921 1.393 . S
C3923 C3922 1.392 . S
C3923 H3940 0.930 . S
C3924 C3922 1.386 . S
C3924 C3926 1.395 . S
C3924 H3941 0.930 . S
C3925 C3921 1.395 . S
C3925 C3926 1.379 . S
C3925 H3942 0.930 . S
C3926 C3924 1.395 . S
C3926 C3925 1.379 . S
C3926 H3943 0.930 . S
C3927 O3910 1.264 . S
C3927 O3911 1.254 . S
C3928 Eu3864 2.848 . S
C3928 O3908 1.257 . S
C3928 O3913 1.249 . S
C3928 C3921 1.492 . S
C3929 H3894 0.931 . S
C3929 C3907 1.420 . S
C3929 C3930 1.351 . S
C3930 H3892 0.930 . S
C3930 C3898 1.423 . S
C3930 C3929 1.351 . S
C3931 O3915 1.276 . S
C3931 O3918 1.235 . S
C3932 C3933 1.393 . S
C3932 C3936 1.395 . S
C3932 C3939 1.492 . S
C3933 C3932 1.393 . S
C3933 C3934 1.392 . S
C3933 H3944 0.930 . S
C3934 C3933 1.392 . S
C3934 C3935 1.386 . S
C3935 C3934 1.386 . S
C3935 C3937 1.395 . S
C3935 H3945 0.930 . S
C3936 C3932 1.395 . S
C3936 C3937 1.379 . S
C3936 H3946 0.930 . S
C3937 C3935 1.395 . S
C3937 C3936 1.379 . S
C3937 H3947 0.930 . S
C3938 O3916 1.264 . S
C3938 O3917 1.254 . S
C3939 Eu3875 2.848 . S
C3939 O3914 1.257 . S
C3939 O3919 1.249 . S
C3939 C3932 1.492 . S
H3940 C3923 0.930 . S
H3941 C3924 0.930 . S
H3942 C3925 0.930 . S
H3943 C3926 0.930 . S
H3944 C3933 0.930 . S
H3945 C3935 0.930 . S
H3946 C3936 0.930 . S
H3947 C3937 0.930 . S
Eu3948 N3979 2.657 . S
Eu3948 N3986 2.609 . S
Eu3948 O3992 2.558 . S
Eu3948 O3993 2.612 . S
Eu3948 O3995 2.339 . S
Eu3948 O3996 2.563 . S
Eu3948 O3997 2.419 . S
Eu3948 O3999 2.380 . S
Eu3948 O4000 2.432 . S
Eu3948 C4012 2.848 . S
C3949 C3952 1.429 . S
C3949 C3953 1.411 . S
C3949 N3956 1.377 . S
C3950 C3952 1.420 . S
C3950 C3954 1.423 . S
C3950 C3962 1.392 . S
C3951 C3953 1.420 . S
C3951 C3954 1.351 . S
C3951 H3974 0.931 . S
C3952 C3949 1.429 . S
C3952 C3950 1.420 . S
C3952 N3960 1.362 . S
C3953 C3949 1.411 . S
C3953 C3951 1.420 . S
C3953 C3958 1.395 . S
C3954 C3950 1.423 . S
C3954 C3951 1.351 . S
C3954 H3966 0.930 . S
C3955 C3957 1.400 . S
C3955 C3958 1.386 . S
C3955 H3967 0.930 . S
N3956 C3949 1.377 . S
N3956 C3957 1.321 . S
N3956 Eu3959 2.609 . S
C3957 C3955 1.400 . S
C3957 N3956 1.321 . S
C3957 H3964 0.930 . S
C3958 C3953 1.395 . S
C3958 C3955 1.386 . S
C3958 H3977 0.930 . S
Eu3959 N3956 2.609 . S
Eu3959 N3960 2.657 . S
Eu3959 O3993 2.380 . S
Eu3959 O3994 2.432 . S
Eu3959 O3998 2.558 . S
Eu3959 O3999 2.612 . S
Eu3959 O4001 2.339 . S
Eu3959 O4002 2.563 . S
Eu3959 O4003 2.419 . S
Eu3959 C4023 2.848 . S
N3960 C3952 1.362 . S
N3960 Eu3959 2.657 . S
N3960 C3961 1.334 . S
C3961 N3960 1.334 . S
C3961 C3963 1.413 . S
C3961 H3968 0.929 . S
C3962 C3950 1.392 . S
C3962 C3963 1.367 . S
C3962 H3970 0.930 . S
C3963 C3961 1.413 . S
C3963 C3962 1.367 . S
C3963 H3965 0.930 . S
H3964 C3957 0.930 . S
H3965 C3963 0.930 . S
H3966 C3954 0.930 . S
H3967 C3955 0.930 . S
H3968 C3961 0.929 . S
H3969 C3983 0.930 . S
H3970 C3962 0.930 . S
H3971 C3989 0.930 . S
H3972 C3980 0.929 . S
H3973 C3987 0.930 . S
H3974 C3951 0.931 . S
H3975 C3981 0.930 . S
H3976 C4014 0.930 . S
H3977 C3958 0.930 . S
H3978 C4013 0.931 . S
N3979 Eu3948 2.657 . S
N3979 C3980 1.334 . S
N3979 C3984 1.362 . S
C3980 H3972 0.929 . S
C3980 N3979 1.334 . S
C3980 C3983 1.413 . S
C3981 H3975 0.930 . S
C3981 C3982 1.392 . S
C3981 C3983 1.367 . S
C3982 C3981 1.392 . S
C3982 C3984 1.420 . S
C3982 C4014 1.423 . S
C3983 H3969 0.930 . S
C3983 C3980 1.413 . S
C3983 C3981 1.367 . S
C3984 N3979 1.362 . S
C3984 C3982 1.420 . S
C3984 C3988 1.429 . S
H3985 C3990 0.930 . S
N3986 Eu3948 2.609 . S
N3986 C3988 1.377 . S
N3986 C3989 1.321 . S
C3987 H3973 0.930 . S
C3987 C3989 1.400 . S
C3987 C3990 1.386 . S
C3988 C3984 1.429 . S
C3988 N3986 1.377 . S
C3988 C3991 1.411 . S
C3989 H3971 0.930 . S
C3989 N3986 1.321 . S
C3989 C3987 1.400 . S
C3990 H3985 0.930 . S
C3990 C3987 1.386 . S
C3990 C3991 1.395 . S
C3991 C3988 1.411 . S
C3991 C3990 1.395 . S
C3991 C4013 1.420 . S
O3992 Eu3948 2.558 . S
O3992 C4012 1.257 . S
O3993 Eu3948 2.612 . S
O3993 Eu3959 2.380 . S
O3993 C4004 1.276 . S
O3994 Eu3959 2.432 . S
O3994 C4011 1.264 . S
O3995 Eu3948 2.339 . S
O3995 C4011 1.254 . S
O3996 Eu3948 2.563 . S
O3996 C4004 1.235 . S
O3997 Eu3948 2.419 . S
O3997 C4012 1.249 . S
O3998 Eu3959 2.558 . S
O3998 C4023 1.257 . S
O3999 Eu3948 2.380 . S
O3999 Eu3959 2.612 . S
O3999 C4015 1.276 . S
O4000 Eu3948 2.432 . S
O4000 C4022 1.264 . S
O4001 Eu3959 2.339 . S
O4001 C4022 1.254 . S
O4002 Eu3959 2.563 . S
O4002 C4015 1.235 . S
O4003 Eu3959 2.419 . S
O4003 C4023 1.249 . S
C4004 O3993 1.276 . S
C4004 O3996 1.235 . S
C4005 C4007 1.393 . S
C4005 C4009 1.395 . S
C4005 C4012 1.492 . S
C4006 C4007 1.392 . S
C4006 C4008 1.386 . S
C4007 C4005 1.393 . S
C4007 C4006 1.392 . S
C4007 H4024 0.930 . S
C4008 C4006 1.386 . S
C4008 C4010 1.395 . S
C4008 H4025 0.930 . S
C4009 C4005 1.395 . S
C4009 C4010 1.379 . S
C4009 H4026 0.930 . S
C4010 C4008 1.395 . S
C4010 C4009 1.379 . S
C4010 H4027 0.930 . S
C4011 O3994 1.264 . S
C4011 O3995 1.254 . S
C4012 Eu3948 2.848 . S
C4012 O3992 1.257 . S
C4012 O3997 1.249 . S
C4012 C4005 1.492 . S
C4013 H3978 0.931 . S
C4013 C3991 1.420 . S
C4013 C4014 1.351 . S
C4014 H3976 0.930 . S
C4014 C3982 1.423 . S
C4014 C4013 1.351 . S
C4015 O3999 1.276 . S
C4015 O4002 1.235 . S
C4016 C4017 1.393 . S
C4016 C4020 1.395 . S
C4016 C4023 1.492 . S
C4017 C4016 1.393 . S
C4017 C4018 1.392 . S
C4017 H4028 0.930 . S
C4018 C4017 1.392 . S
C4018 C4019 1.386 . S
C4019 C4018 1.386 . S
C4019 C4021 1.395 . S
C4019 H4029 0.930 . S
C4020 C4016 1.395 . S
C4020 C4021 1.379 . S
C4020 H4030 0.930 . S
C4021 C4019 1.395 . S
C4021 C4020 1.379 . S
C4021 H4031 0.930 . S
C4022 O4000 1.264 . S
C4022 O4001 1.254 . S
C4023 Eu3959 2.848 . S
C4023 O3998 1.257 . S
C4023 O4003 1.249 . S
C4023 C4016 1.492 . S
H4024 C4007 0.930 . S
H4025 C4008 0.930 . S
H4026 C4009 0.930 . S
H4027 C4010 0.930 . S
H4028 C4017 0.930 . S
H4029 C4019 0.930 . S
H4030 C4020 0.930 . S
H4031 C4021 0.930 . S
C4032 C4033 1.391 . S
C4032 C4034 1.394 . S
C4032 H4048 0.931 1_455 S
C4033 C4032 1.391 . S
C4033 C4037 1.376 . S
C4034 C4032 1.394 . S
C4034 C4035 1.369 . S
C4034 C4038 1.531 1_455 S
C4035 C4034 1.369 . S
C4035 C4036 1.410 . S
C4035 C4043 1.503 . S
C4036 C4035 1.410 . S
C4036 C4037 1.392 . S
C4036 C4039 1.511 . S
C4037 C4033 1.376 . S
C4037 C4036 1.392 . S
C4037 H4049 0.929 . S
C4038 C4034 1.531 1_655 S
C4038 H4050 0.960 . S
C4038 H4051 0.962 . S
C4038 H4052 0.960 . S
C4039 C4036 1.511 . S
C4039 H4053 0.961 . S
C4039 H4054 0.961 . S
C4039 H4055 0.961 . S
C4040 C4041 1.370 . S
C4040 C4042 1.363 . S
C4040 H4056 0.931 . S
C4041 C4040 1.370 . S
C4041 C4045 1.408 . S
C4042 C4040 1.363 . S
C4042 C4043 1.370 . S
C4042 C4046 1.524 . S
C4043 C4035 1.503 . S
C4043 C4042 1.370 . S
C4043 C4044 1.403 . S
C4044 C4043 1.403 . S
C4044 C4045 1.404 . S
C4044 C4047 1.539 1_455 S
C4045 C4041 1.408 . S
C4045 C4044 1.404 . S
C4045 H4057 0.930 1_455 S
C4046 C4042 1.524 . S
C4046 H4058 0.956 . S
C4046 H4059 0.961 . S
C4046 H4060 0.961 . S
C4047 C4044 1.539 1_655 S
C4047 H4061 0.958 . S
C4047 H4062 0.961 . S
C4047 H4063 0.960 . S
H4048 C4032 0.931 1_655 S
H4049 C4037 0.929 . S
H4050 C4038 0.960 . S
H4051 C4038 0.962 . S
H4052 C4038 0.960 . S
H4053 C4039 0.961 . S
H4054 C4039 0.961 . S
H4055 C4039 0.961 . S
H4056 C4040 0.931 . S
H4057 C4045 0.930 1_655 S
H4058 C4046 0.956 . S
H4059 C4046 0.961 . S
H4060 C4046 0.961 . S
H4061 C4047 0.958 . S
H4062 C4047 0.961 . S
H4063 C4047 0.960 . S
C4064 C4065 1.391 . S
C4064 C4066 1.394 . S
C4064 H4080 0.931 . S
C4065 C4064 1.391 . S
C4065 C4069 1.376 . S
C4066 C4064 1.394 . S
C4066 C4067 1.369 . S
C4066 C4070 1.531 . S
C4067 C4066 1.369 . S
C4067 C4068 1.410 . S
C4067 C4075 1.503 . S
C4068 C4067 1.410 . S
C4068 C4069 1.392 . S
C4068 C4071 1.511 . S
C4069 C4065 1.376 . S
C4069 C4068 1.392 . S
C4069 H4081 0.929 . S
C4070 C4066 1.531 . S
C4070 H4082 0.960 . S
C4070 H4083 0.962 . S
C4070 H4084 0.960 . S
C4071 C4068 1.511 . S
C4071 H4085 0.961 . S
C4071 H4086 0.961 . S
C4071 H4087 0.961 . S
C4072 C4073 1.370 . S
C4072 C4074 1.363 . S
C4072 H4088 0.931 . S
C4073 C4072 1.370 . S
C4073 C4077 1.408 . S
C4074 C4072 1.363 . S
C4074 C4075 1.370 . S
C4074 C4078 1.524 . S
C4075 C4067 1.503 . S
C4075 C4074 1.370 . S
C4075 C4076 1.403 . S
C4076 C4075 1.403 . S
C4076 C4077 1.404 . S
C4076 C4079 1.539 . S
C4077 C4073 1.408 . S
C4077 C4076 1.404 . S
C4077 H4089 0.930 . S
C4078 C4074 1.524 . S
C4078 H4090 0.956 . S
C4078 H4091 0.961 . S
C4078 H4092 0.961 . S
C4079 C4076 1.539 . S
C4079 H4093 0.958 . S
C4079 H4094 0.961 . S
C4079 H4095 0.960 . S
H4080 C4064 0.931 . S
H4081 C4069 0.929 . S
H4082 C4070 0.960 . S
H4083 C4070 0.962 . S
H4084 C4070 0.960 . S
H4085 C4071 0.961 . S
H4086 C4071 0.961 . S
H4087 C4071 0.961 . S
H4088 C4072 0.931 . S
H4089 C4077 0.930 . S
H4090 C4078 0.956 . S
H4091 C4078 0.961 . S
H4092 C4078 0.961 . S
H4093 C4079 0.958 . S
H4094 C4079 0.961 . S
H4095 C4079 0.960 . S
C4096 C4097 1.391 . S
C4096 C4098 1.394 . S
C4096 H4112 0.931 . S
C4097 C4096 1.391 . S
C4097 C4101 1.376 . S
C4098 C4096 1.394 . S
C4098 C4099 1.369 . S
C4098 C4102 1.531 . S
C4099 C4098 1.369 . S
C4099 C4100 1.410 . S
C4099 C4107 1.503 . S
C4100 C4099 1.410 . S
C4100 C4101 1.392 . S
C4100 C4103 1.511 . S
C4101 C4097 1.376 . S
C4101 C4100 1.392 . S
C4101 H4113 0.929 . S
C4102 C4098 1.531 . S
C4102 H4114 0.960 . S
C4102 H4115 0.962 . S
C4102 H4116 0.960 . S
C4103 C4100 1.511 . S
C4103 H4117 0.961 . S
C4103 H4118 0.961 . S
C4103 H4119 0.961 . S
C4104 C4105 1.370 . S
C4104 C4106 1.363 . S
C4104 H4120 0.931 . S
C4105 C4104 1.370 . S
C4105 C4109 1.408 . S
C4106 C4104 1.363 . S
C4106 C4107 1.370 . S
C4106 C4110 1.524 . S
C4107 C4099 1.503 . S
C4107 C4106 1.370 . S
C4107 C4108 1.403 . S
C4108 C4107 1.403 . S
C4108 C4109 1.404 . S
C4108 C4111 1.539 . S
C4109 C4105 1.408 . S
C4109 C4108 1.404 . S
C4109 H4121 0.930 . S
C4110 C4106 1.524 . S
C4110 H4122 0.956 . S
C4110 H4123 0.961 . S
C4110 H4124 0.961 . S
C4111 C4108 1.539 . S
C4111 H4125 0.958 . S
C4111 H4126 0.961 . S
C4111 H4127 0.960 . S
H4112 C4096 0.931 . S
H4113 C4101 0.929 . S
H4114 C4102 0.960 . S
H4115 C4102 0.962 . S
H4116 C4102 0.960 . S
H4117 C4103 0.961 . S
H4118 C4103 0.961 . S
H4119 C4103 0.961 . S
H4120 C4104 0.931 . S
H4121 C4109 0.930 . S
H4122 C4110 0.956 . S
H4123 C4110 0.961 . S
H4124 C4110 0.961 . S
H4125 C4111 0.958 . S
H4126 C4111 0.961 . S
H4127 C4111 0.960 . S
C4128 C4129 1.391 1_556 S
C4128 C4130 1.394 . S
C4128 H4144 0.931 . S
C4129 C4128 1.391 1_554 S
C4129 C4133 1.376 . S
C4130 C4128 1.394 . S
C4130 C4131 1.369 1_556 S
C4130 C4134 1.531 . S
C4131 C4130 1.369 1_554 S
C4131 C4132 1.410 . S
C4131 C4139 1.503 . S
C4132 C4131 1.410 . S
C4132 C4133 1.392 . S
C4132 C4135 1.511 . S
C4133 C4129 1.376 . S
C4133 C4132 1.392 . S
C4133 H4145 0.929 . S
C4134 C4130 1.531 . S
C4134 H4146 0.937 1_556 S
C4134 H4147 0.962 . S
C4134 H4148 0.960 . S
C4135 C4132 1.511 . S
C4135 H4149 0.961 . S
C4135 H4150 0.961 . S
C4135 H4151 0.961 . S
C4136 C4137 1.370 1_556 S
C4136 C4138 1.363 . S
C4136 H4152 0.931 . S
C4137 C4136 1.370 1_554 S
C4137 C4141 1.408 . S
C4138 C4136 1.363 . S
C4138 C4139 1.370 1_556 S
C4138 C4142 1.524 . S
C4139 C4131 1.503 . S
C4139 C4138 1.370 1_554 S
C4139 C4140 1.403 . S
C4140 C4139 1.403 . S
C4140 C4141 1.404 . S
C4140 C4143 1.539 . S
C4141 C4137 1.408 . S
C4141 C4140 1.404 . S
C4141 H4153 0.930 . S
C4142 C4138 1.524 . S
C4142 H4154 0.956 . S
C4142 H4155 0.961 . S
C4142 H4156 0.961 . S
C4143 C4140 1.539 . S
C4143 H4157 0.958 . S
C4143 H4158 0.961 . S
C4143 H4159 0.960 . S
H4144 C4128 0.931 . S
H4145 C4133 0.929 . S
H4146 C4134 0.937 1_554 S
H4147 C4134 0.962 . S
H4148 C4134 0.960 . S
H4149 C4135 0.961 . S
H4150 C4135 0.961 . S
H4151 C4135 0.961 . S
H4152 C4136 0.931 . S
H4153 C4141 0.930 . S
H4154 C4142 0.956 . S
H4155 C4142 0.961 . S
H4156 C4142 0.961 . S
H4157 C4143 0.958 . S
H4158 C4143 0.961 . S
H4159 C4143 0.960 . S
C4160 C4161 1.367 1_565 S
C4160 C4162 1.395 . S
C4160 H4176 0.954 . S
C4161 C4160 1.367 1_545 S
C4161 C4165 1.376 . S
C4162 C4160 1.395 . S
C4162 C4163 1.369 1_565 S
C4162 C4166 1.531 . S
C4163 C4162 1.369 1_545 S
C4163 C4164 1.410 . S
C4163 C4171 1.503 . S
C4164 C4163 1.410 . S
C4164 C4165 1.392 . S
C4164 C4167 1.511 . S
C4165 C4161 1.376 . S
C4165 C4164 1.392 . S
C4165 H4177 0.929 . S
C4166 C4162 1.531 . S
C4166 H4178 0.960 . S
C4166 H4179 0.962 . S
C4166 H4180 0.960 . S
C4167 C4164 1.511 . S
C4167 H4181 0.961 . S
C4167 H4182 0.961 . S
C4167 H4183 0.961 . S
C4168 C4169 1.370 . S
C4168 C4170 1.363 . S
C4168 H4184 0.931 . S
C4169 C4168 1.370 . S
C4169 C4173 1.408 . S
C4170 C4168 1.363 . S
C4170 C4171 1.370 . S
C4170 C4174 1.524 . S
C4171 C4163 1.503 . S
C4171 C4170 1.370 . S
C4171 C4172 1.403 . S
C4172 C4171 1.403 . S
C4172 C4173 1.404 . S
C4172 C4175 1.539 1_545 S
C4173 C4169 1.408 . S
C4173 C4172 1.404 . S
C4173 H4185 0.910 1_545 S
C4174 C4170 1.524 . S
C4174 H4186 0.956 . S
C4174 H4187 0.961 . S
C4174 H4188 0.961 . S
C4175 C4172 1.539 1_565 S
C4175 H4189 0.958 . S
C4175 H4190 0.961 . S
C4175 H4191 0.960 1_565 S
H4176 C4160 0.954 . S
H4177 C4165 0.929 . S
H4178 C4166 0.960 . S
H4179 C4166 0.962 . S
H4180 C4166 0.960 . S
H4181 C4167 0.961 . S
H4182 C4167 0.961 . S
H4183 C4167 0.961 . S
H4184 C4168 0.931 . S
H4185 C4173 0.910 1_565 S
H4186 C4174 0.956 . S
H4187 C4174 0.961 . S
H4188 C4174 0.961 . S
H4189 C4175 0.958 . S
H4190 C4175 0.961 . S
H4191 C4175 0.960 1_545 S
C4192 C4193 1.402 . S
C4192 C4194 1.394 . S
C4192 H4208 0.931 . S
C4193 C4192 1.402 . S
C4193 C4197 1.368 1_565 S
C4194 C4192 1.394 . S
C4194 C4195 1.369 . S
C4194 C4198 1.531 . S
C4195 C4194 1.369 . S
C4195 C4196 1.410 1_565 S
C4195 C4203 1.503 . S
C4196 C4195 1.410 1_545 S
C4196 C4197 1.392 . S
C4196 C4199 1.511 . S
C4197 C4193 1.368 1_545 S
C4197 C4196 1.392 . S
C4197 H4209 0.929 . S
C4198 C4194 1.531 . S
C4198 H4210 0.960 . S
C4198 H4211 0.962 . S
C4198 H4212 0.960 . S
C4199 C4196 1.511 . S
C4199 H4213 0.961 . S
C4199 H4214 0.961 . S
C4199 H4215 0.961 . S
C4200 C4201 1.328 1_545 S
C4200 C4202 1.363 . S
C4200 H4216 0.931 . S
C4201 C4200 1.328 1_565 S
C4201 C4205 1.457 . S
C4202 C4200 1.363 . S
C4202 C4203 1.370 1_545 S
C4202 C4206 1.524 . S
C4203 C4195 1.503 . S
C4203 C4202 1.370 1_565 S
C4203 C4204 1.403 . S
C4204 C4203 1.403 . S
C4204 C4205 1.404 . S
C4204 C4207 1.539 . S
C4205 C4201 1.457 . S
C4205 C4204 1.404 . S
C4205 H4217 0.930 . S
C4206 C4202 1.524 . S
C4206 H4218 0.956 . S
C4206 H4219 0.961 . S
C4206 H4220 0.961 . S
C4207 C4204 1.539 . S
C4207 H4221 0.958 . S
C4207 H4222 0.961 . S
C4207 H4223 0.960 . S
H4208 C4192 0.931 . S
H4209 C4197 0.929 . S
H4210 C4198 0.960 . S
H4211 C4198 0.962 . S
H4212 C4198 0.960 . S
H4213 C4199 0.961 . S
H4214 C4199 0.961 . S
H4215 C4199 0.961 . S
H4216 C4200 0.931 . S
H4217 C4205 0.930 . S
H4218 C4206 0.956 . S
H4219 C4206 0.961 . S
H4220 C4206 0.961 . S
H4221 C4207 0.958 . S
H4222 C4207 0.961 . S
H4223 C4207 0.960 . S
C4224 C4225 1.390 1_545 S
C4224 C4226 1.393 . S
C4224 H4240 0.932 . S
C4225 C4224 1.390 1_565 S
C4225 C4229 1.376 . S
C4226 C4224 1.393 . S
C4226 C4227 1.349 1_545 S
C4226 C4230 1.552 . S
C4227 C4226 1.349 1_565 S
C4227 C4228 1.410 . S
C4227 C4235 1.503 1_554 S
C4228 C4227 1.410 . S
C4228 C4229 1.392 . S
C4228 C4231 1.511 . S
C4229 C4225 1.376 . S
C4229 C4228 1.392 . S
C4229 H4241 0.929 . S
C4230 C4226 1.552 . S
C4230 H4242 0.960 1_554 S
C4230 H4243 0.962 . S
C4230 H4244 0.960 . S
C4231 C4228 1.511 . S
C4231 H4245 0.961 . S
C4231 H4246 0.961 1_554 S
C4231 H4247 0.961 . S
C4232 C4233 1.370 . S
C4232 C4234 1.363 . S
C4232 H4248 0.931 . S
C4233 C4232 1.370 . S
C4233 C4237 1.408 . S
C4234 C4232 1.363 . S
C4234 C4235 1.370 . S
C4234 C4238 1.524 . S
C4235 C4227 1.503 1_556 S
C4235 C4234 1.370 . S
C4235 C4236 1.403 . S
C4236 C4235 1.403 . S
C4236 C4237 1.404 . S
C4236 C4239 1.539 1_565 S
C4237 C4233 1.408 . S
C4237 C4236 1.404 . S
C4237 H4249 0.930 1_565 S
C4238 C4234 1.524 . S
C4238 H4250 0.956 . S
C4238 H4251 0.979 . S
C4238 H4252 0.961 . S
C4239 C4236 1.539 1_545 S
C4239 H4253 0.958 . S
C4239 H4254 0.961 . S
C4239 H4255 0.960 . S
H4240 C4224 0.932 . S
H4241 C4229 0.929 . S
H4242 C4230 0.960 1_556 S
H4243 C4230 0.962 . S
H4244 C4230 0.960 . S
H4245 C4231 0.961 . S
H4246 C4231 0.961 1_556 S
H4247 C4231 0.961 . S
H4248 C4232 0.931 . S
H4249 C4237 0.930 1_545 S
H4250 C4238 0.956 . S
H4251 C4238 0.979 . S
H4252 C4238 0.961 . S
H4253 C4239 0.958 . S
H4254 C4239 0.961 . S
H4255 C4239 0.960 . S
C4256 C4257 1.410 . S
C4256 C4258 1.394 . S
C4256 H4272 0.931 . S
C4257 C4256 1.410 . S
C4257 C4261 1.363 1_545 S
C4258 C4256 1.394 . S
C4258 C4259 1.369 . S
C4258 C4262 1.531 . S
C4259 C4258 1.369 . S
C4259 C4260 1.410 1_545 S
C4259 C4267 1.503 . S
C4260 C4259 1.410 1_565 S
C4260 C4261 1.392 . S
C4260 C4263 1.511 . S
C4261 C4257 1.363 1_565 S
C4261 C4260 1.392 . S
C4261 H4273 0.929 . S
C4262 C4258 1.531 . S
C4262 H4274 0.960 . S
C4262 H4275 0.962 . S
C4262 H4276 0.960 . S
C4263 C4260 1.511 . S
C4263 H4277 0.961 . S
C4263 H4278 0.961 . S
C4263 H4279 0.959 . S
C4264 C4265 1.370 1_565 S
C4264 C4266 1.363 . S
C4264 H4280 0.931 . S
C4265 C4264 1.370 1_545 S
C4265 C4269 1.408 . S
C4266 C4264 1.363 . S
C4266 C4267 1.370 1_565 S
C4266 C4270 1.524 . S
C4267 C4259 1.503 . S
C4267 C4266 1.370 1_545 S
C4267 C4268 1.403 . S
C4268 C4267 1.403 . S
C4268 C4269 1.404 . S
C4268 C4271 1.539 . S
C4269 C4265 1.408 . S
C4269 C4268 1.404 . S
C4269 H4281 0.930 . S
C4270 C4266 1.524 . S
C4270 H4282 0.956 . S
C4270 H4283 0.961 . S
C4270 H4284 0.961 . S
C4271 C4268 1.539 . S
C4271 H4285 0.958 . S
C4271 H4286 0.961 . S
C4271 H4287 0.960 . S
H4272 C4256 0.931 . S
H4273 C4261 0.929 . S
H4274 C4262 0.960 . S
H4275 C4262 0.962 . S
H4276 C4262 0.960 . S
H4277 C4263 0.961 . S
H4278 C4263 0.961 . S
H4279 C4263 0.959 . S
H4280 C4264 0.931 . S
H4281 C4269 0.930 . S
H4282 C4270 0.956 . S
H4283 C4270 0.961 . S
H4284 C4270 0.961 . S
H4285 C4271 0.958 . S
H4286 C4271 0.961 . S
H4287 C4271 0.960 . S
C4288 C4289 1.391 1_556 S
C4288 C4290 1.394 . S
C4288 H4304 0.931 . S
C4289 C4288 1.391 1_554 S
C4289 C4293 1.376 . S
C4290 C4288 1.394 . S
C4290 C4291 1.369 1_556 S
C4290 C4294 1.531 . S
C4291 C4290 1.369 1_554 S
C4291 C4292 1.410 . S
C4291 C4299 1.503 . S
C4292 C4291 1.410 . S
C4292 C4293 1.392 . S
C4292 C4295 1.511 . S
C4293 C4289 1.376 . S
C4293 C4292 1.392 . S
C4293 H4305 0.929 . S
C4294 C4290 1.531 . S
C4294 H4306 0.960 . S
C4294 H4307 0.962 . S
C4294 H4308 0.960 . S
C4295 C4292 1.511 . S
C4295 H4309 0.961 . S
C4295 H4310 0.961 . S
C4295 H4311 0.961 . S
C4296 C4297 1.370 . S
C4296 C4298 1.363 . S
C4296 H4312 0.931 . S
C4297 C4296 1.370 . S
C4297 C4301 1.408 . S
C4298 C4296 1.363 . S
C4298 C4299 1.370 . S
C4298 C4302 1.524 . S
C4299 C4291 1.503 . S
C4299 C4298 1.370 . S
C4299 C4300 1.403 . S
C4300 C4299 1.403 . S
C4300 C4301 1.404 . S
C4300 C4303 1.539 1_554 S
C4301 C4297 1.408 . S
C4301 C4300 1.404 . S
C4301 H4313 0.930 1_554 S
C4302 C4298 1.524 . S
C4302 H4314 0.956 . S
C4302 H4315 0.961 . S
C4302 H4316 0.961 . S
C4303 C4300 1.539 1_556 S
C4303 H4317 0.958 . S
C4303 H4318 0.961 . S
C4303 H4319 0.960 . S
H4304 C4288 0.931 . S
H4305 C4293 0.929 . S
H4306 C4294 0.960 . S
H4307 C4294 0.962 . S
H4308 C4294 0.960 . S
H4309 C4295 0.961 . S
H4310 C4295 0.961 . S
H4311 C4295 0.961 . S
H4312 C4296 0.931 . S
H4313 C4301 0.930 1_556 S
H4314 C4302 0.956 . S
H4315 C4302 0.961 . S
H4316 C4302 0.961 . S
H4317 C4303 0.958 . S
H4318 C4303 0.961 . S
H4319 C4303 0.960 . S
C4320 C4321 1.391 . S
C4320 C4322 1.394 . S
C4320 H4336 0.931 . S
C4321 C4320 1.391 . S
C4321 C4325 1.376 . S
C4322 C4320 1.394 . S
C4322 C4323 1.369 . S
C4322 C4326 1.531 . S
C4323 C4322 1.369 . S
C4323 C4324 1.410 . S
C4323 C4331 1.503 1_655 S
C4324 C4323 1.410 . S
C4324 C4325 1.392 . S
C4324 C4327 1.528 . S
C4325 C4321 1.376 . S
C4325 C4324 1.392 . S
C4325 H4337 0.929 . S
C4326 C4322 1.531 . S
C4326 H4338 0.930 1_655 S
C4326 H4339 0.962 . S
C4326 H4340 0.960 . S
C4327 C4324 1.528 . S
C4327 H4341 0.931 1_556 S
C4327 H4342 0.945 1_556 S
C4327 H4343 0.987 . S
C4328 C4329 1.370 . S
C4328 C4330 1.363 . S
C4328 H4344 0.931 1_556 S
C4329 C4328 1.370 . S
C4329 C4333 1.408 . S
C4330 C4328 1.363 . S
C4330 C4331 1.370 . S
C4330 C4334 1.524 1_556 S
C4331 C4323 1.503 1_455 S
C4331 C4330 1.370 . S
C4331 C4332 1.403 . S
C4332 C4331 1.403 . S
C4332 C4333 1.404 . S
C4332 C4335 1.539 . S
C4333 C4329 1.408 . S
C4333 C4332 1.404 . S
C4333 H4345 0.930 . S
C4334 C4330 1.524 1_554 S
C4334 H4346 0.937 1_455 S
C4334 H4347 0.961 1_455 S
C4334 H4348 0.961 . S
C4335 C4332 1.539 . S
C4335 H4349 0.958 . S
C4335 H4350 0.961 . S
C4335 H4351 0.960 1_455 S
H4336 C4320 0.931 . S
H4337 C4325 0.929 . S
H4338 C4326 0.930 1_455 S
H4339 C4326 0.962 . S
H4340 C4326 0.960 . S
H4341 C4327 0.931 1_554 S
H4342 C4327 0.945 1_554 S
H4343 C4327 0.987 . S
H4344 C4328 0.931 1_554 S
H4345 C4333 0.930 . S
H4346 C4334 0.937 1_655 S
H4347 C4334 0.961 1_655 S
H4348 C4334 0.961 . S
H4349 C4335 0.958 . S
H4350 C4335 0.961 . S
H4351 C4335 0.960 1_655 S
C4352 C4353 1.391 1_655 S
C4352 C4354 1.394 . S
C4352 H4368 0.931 . S
C4353 C4352 1.391 1_455 S
C4353 C4357 1.376 . S
C4354 C4352 1.394 . S
C4354 C4355 1.369 1_655 S
C4354 C4358 1.531 . S
C4355 C4354 1.369 1_455 S
C4355 C4356 1.410 . S
C4355 C4363 1.503 . S
C4356 C4355 1.410 . S
C4356 C4357 1.392 . S
C4356 C4359 1.511 . S
C4357 C4353 1.376 . S
C4357 C4356 1.392 . S
C4357 H4369 0.929 . S
C4358 C4354 1.531 . S
C4358 H4370 0.960 . S
C4358 H4371 0.962 . S
C4358 H4372 0.960 . S
C4359 C4356 1.511 . S
C4359 H4373 0.961 . S
C4359 H4374 0.961 . S
C4359 H4375 0.961 . S
C4360 C4361 1.349 1_655 S
C4360 C4362 1.363 . S
C4360 H4376 0.931 . S
C4361 C4360 1.349 1_455 S
C4361 C4365 1.432 . S
C4362 C4360 1.363 . S
C4362 C4363 1.370 1_655 S
C4362 C4366 1.524 . S
C4363 C4355 1.503 . S
C4363 C4362 1.370 1_455 S
C4363 C4364 1.403 . S
C4364 C4363 1.403 . S
C4364 C4365 1.404 . S
C4364 C4367 1.539 . S
C4365 C4361 1.432 . S
C4365 C4364 1.404 . S
C4365 H4377 0.930 . S
C4366 C4362 1.524 . S
C4366 H4378 0.956 . S
C4366 H4379 0.961 . S
C4366 H4380 0.961 . S
C4367 C4364 1.539 . S
C4367 H4381 0.958 . S
C4367 H4382 0.961 . S
C4367 H4383 0.960 . S
H4368 C4352 0.931 . S
H4369 C4357 0.929 . S
H4370 C4358 0.960 . S
H4371 C4358 0.962 . S
H4372 C4358 0.960 . S
H4373 C4359 0.961 . S
H4374 C4359 0.961 . S
H4375 C4359 0.961 . S
H4376 C4360 0.931 . S
H4377 C4365 0.930 . S
H4378 C4366 0.956 . S
H4379 C4366 0.961 . S
H4380 C4366 0.961 . S
H4381 C4367 0.958 . S
H4382 C4367 0.961 . S
H4383 C4367 0.960 . S
C4384 C4385 1.391 . S
C4384 C4386 1.394 . S
C4384 H4400 0.931 . S
C4385 C4384 1.391 . S
C4385 C4389 1.376 . S
C4386 C4384 1.394 . S
C4386 C4387 1.369 . S
C4386 C4390 1.531 . S
C4387 C4386 1.369 . S
C4387 C4388 1.410 . S
C4387 C4395 1.503 . S
C4388 C4387 1.410 . S
C4388 C4389 1.392 . S
C4388 C4391 1.511 . S
C4389 C4385 1.376 . S
C4389 C4388 1.392 . S
C4389 H4401 0.929 . S
C4390 C4386 1.531 . S
C4390 H4402 0.960 . S
C4390 H4403 0.962 . S
C4390 H4404 0.960 . S
C4391 C4388 1.511 . S
C4391 H4405 0.961 . S
C4391 H4406 0.961 . S
C4391 H4407 0.961 . S
C4392 C4393 1.370 . S
C4392 C4394 1.363 . S
C4392 H4408 0.931 . S
C4393 C4392 1.370 . S
C4393 C4397 1.408 . S
C4394 C4392 1.363 . S
C4394 C4395 1.370 . S
C4394 C4398 1.524 . S
C4395 C4387 1.503 . S
C4395 C4394 1.370 . S
C4395 C4396 1.403 . S
C4396 C4395 1.403 . S
C4396 C4397 1.404 . S
C4396 C4399 1.539 . S
C4397 C4393 1.408 . S
C4397 C4396 1.404 . S
C4397 H4409 0.930 . S
C4398 C4394 1.524 . S
C4398 H4410 0.956 . S
C4398 H4411 0.961 . S
C4398 H4412 0.961 . S
C4399 C4396 1.539 . S
C4399 H4413 0.958 . S
C4399 H4414 0.961 . S
C4399 H4415 0.960 . S
H4400 C4384 0.931 . S
H4401 C4389 0.929 . S
H4402 C4390 0.960 . S
H4403 C4390 0.962 . S
H4404 C4390 0.960 . S
H4405 C4391 0.961 . S
H4406 C4391 0.961 . S
H4407 C4391 0.961 . S
H4408 C4392 0.931 . S
H4409 C4397 0.930 . S
H4410 C4398 0.956 . S
H4411 C4398 0.961 . S
H4412 C4398 0.961 . S
H4413 C4399 0.958 . S
H4414 C4399 0.961 . S
H4415 C4399 0.960 . S
C4416 C4417 1.391 . S
C4416 C4418 1.394 . S
C4416 H4432 0.931 . S
C4417 C4416 1.391 . S
C4417 C4421 1.376 . S
C4418 C4416 1.394 . S
C4418 C4419 1.369 . S
C4418 C4422 1.531 . S
C4419 C4418 1.369 . S
C4419 C4420 1.410 . S
C4419 C4427 1.503 1_655 S
C4420 C4419 1.410 . S
C4420 C4421 1.392 . S
C4420 C4423 1.511 . S
C4421 C4417 1.376 . S
C4421 C4420 1.392 . S
C4421 H4433 0.929 . S
C4422 C4418 1.531 . S
C4422 H4434 0.925 1_655 S
C4422 H4435 0.962 . S
C4422 H4436 0.960 . S
C4423 C4420 1.511 . S
C4423 H4437 0.961 . S
C4423 H4438 0.961 1_655 S
C4423 H4439 0.961 . S
C4424 C4425 1.370 . S
C4424 C4426 1.363 . S
C4424 H4440 0.931 . S
C4425 C4424 1.370 . S
C4425 C4429 1.408 . S
C4426 C4424 1.363 . S
C4426 C4427 1.370 . S
C4426 C4430 1.524 . S
C4427 C4419 1.503 1_455 S
C4427 C4426 1.370 . S
C4427 C4428 1.403 . S
C4428 C4427 1.403 . S
C4428 C4429 1.404 . S
C4428 C4431 1.539 . S
C4429 C4425 1.408 . S
C4429 C4428 1.404 . S
C4429 H4441 0.930 . S
C4430 C4426 1.524 . S
C4430 H4442 0.956 1_455 S
C4430 H4443 0.961 1_455 S
C4430 H4444 0.961 . S
C4431 C4428 1.539 . S
C4431 H4445 0.958 . S
C4431 H4446 0.961 . S
C4431 H4447 0.957 . S
H4432 C4416 0.931 . S
H4433 C4421 0.929 . S
H4434 C4422 0.925 1_455 S
H4435 C4422 0.962 . S
H4436 C4422 0.960 . S
H4437 C4423 0.961 . S
H4438 C4423 0.961 1_455 S
H4439 C4423 0.961 . S
H4440 C4424 0.931 . S
H4441 C4429 0.930 . S
H4442 C4430 0.956 1_655 S
H4443 C4430 0.961 1_655 S
H4444 C4430 0.961 . S
H4445 C4431 0.958 . S
H4446 C4431 0.961 . S
H4447 C4431 0.957 . S
C4448 C4449 1.391 . S
C4448 C4450 1.394 . S
C4448 H4464 0.931 . S
C4449 C4448 1.391 . S
C4449 C4453 1.376 1_655 S
C4450 C4448 1.394 . S
C4450 C4451 1.369 . S
C4450 C4454 1.531 . S
C4451 C4450 1.369 . S
C4451 C4452 1.410 1_655 S
C4451 C4459 1.507 . S
C4452 C4451 1.410 1_455 S
C4452 C4453 1.392 . S
C4452 C4455 1.511 . S
C4453 C4449 1.376 1_455 S
C4453 C4452 1.392 . S
C4453 H4465 0.929 . S
C4454 C4450 1.531 . S
C4454 H4466 0.960 . S
C4454 H4467 0.962 . S
C4454 H4468 0.960 . S
C4455 C4452 1.511 . S
C4455 H4469 0.961 . S
C4455 H4470 0.961 . S
C4455 H4471 0.961 . S
C4456 C4457 1.370 . S
C4456 C4458 1.363 . S
C4456 H4472 0.931 . S
C4457 C4456 1.370 . S
C4457 C4461 1.408 1_455 S
C4458 C4456 1.363 . S
C4458 C4459 1.348 1_455 S
C4458 C4462 1.524 . S
C4459 C4451 1.507 . S
C4459 C4458 1.348 1_655 S
C4459 C4460 1.425 . S
C4460 C4459 1.425 . S
C4460 C4461 1.404 . S
C4460 C4463 1.539 . S
C4461 C4457 1.408 1_655 S
C4461 C4460 1.404 . S
C4461 H4473 0.930 . S
C4462 C4458 1.524 . S
C4462 H4474 0.956 . S
C4462 H4475 0.961 . S
C4462 H4476 0.961 . S
C4463 C4460 1.539 . S
C4463 H4477 0.958 . S
C4463 H4478 0.961 . S
C4463 H4479 0.960 . S
H4464 C4448 0.931 . S
H4465 C4453 0.929 . S
H4466 C4454 0.960 . S
H4467 C4454 0.962 . S
H4468 C4454 0.960 . S
H4469 C4455 0.961 . S
H4470 C4455 0.961 . S
H4471 C4455 0.961 . S
H4472 C4456 0.931 . S
H4473 C4461 0.930 . S
H4474 C4462 0.956 . S
H4475 C4462 0.961 . S
H4476 C4462 0.961 . S
H4477 C4463 0.958 . S
H4478 C4463 0.961 . S
H4479 C4463 0.960 . S
C4480 C4481 1.391 . S
C4480 C4482 1.394 . S
C4480 H4496 0.931 . S
C4481 C4480 1.391 . S
C4481 C4485 1.376 . S
C4482 C4480 1.394 . S
C4482 C4483 1.369 . S
C4482 C4486 1.531 . S
C4483 C4482 1.369 . S
C4483 C4484 1.410 . S
C4483 C4491 1.503 . S
C4484 C4483 1.410 . S
C4484 C4485 1.392 . S
C4484 C4487 1.511 . S
C4485 C4481 1.376 . S
C4485 C4484 1.392 . S
C4485 H4497 0.929 . S
C4486 C4482 1.531 . S
C4486 H4498 0.960 . S
C4486 H4499 0.962 . S
C4486 H4500 0.960 . S
C4487 C4484 1.511 . S
C4487 H4501 0.961 . S
C4487 H4502 0.961 . S
C4487 H4503 0.961 . S
C4488 C4489 1.370 . S
C4488 C4490 1.363 . S
C4488 H4504 0.931 . S
C4489 C4488 1.370 . S
C4489 C4493 1.408 . S
C4490 C4488 1.363 . S
C4490 C4491 1.370 . S
C4490 C4494 1.524 . S
C4491 C4483 1.503 . S
C4491 C4490 1.370 . S
C4491 C4492 1.403 . S
C4492 C4491 1.403 . S
C4492 C4493 1.404 . S
C4492 C4495 1.539 . S
C4493 C4489 1.408 . S
C4493 C4492 1.404 . S
C4493 H4505 0.930 . S
C4494 C4490 1.524 . S
C4494 H4506 0.956 . S
C4494 H4507 0.961 . S
C4494 H4508 0.961 . S
C4495 C4492 1.539 . S
C4495 H4509 0.958 . S
C4495 H4510 0.961 . S
C4495 H4511 0.960 . S
H4496 C4480 0.931 . S
H4497 C4485 0.929 . S
H4498 C4486 0.960 . S
H4499 C4486 0.962 . S
H4500 C4486 0.960 . S
H4501 C4487 0.961 . S
H4502 C4487 0.961 . S
H4503 C4487 0.961 . S
H4504 C4488 0.931 . S
H4505 C4493 0.930 . S
H4506 C4494 0.956 . S
H4507 C4494 0.961 . S
H4508 C4494 0.961 . S
H4509 C4495 0.958 . S
H4510 C4495 0.961 . S
H4511 C4495 0.960 . S
C4512 C4513 1.391 . S
C4512 C4514 1.394 . S
C4512 H4528 0.931 . S
C4513 C4512 1.391 . S
C4513 C4517 1.383 . S
C4514 C4512 1.394 . S
C4514 C4515 1.369 . S
C4514 C4518 1.531 . S
C4515 C4514 1.369 . S
C4515 C4516 1.385 1_655 S
C4515 C4523 1.503 . S
C4516 C4515 1.385 1_455 S
C4516 C4517 1.391 1_455 S
C4516 C4519 1.537 . S
C4517 C4513 1.383 . S
C4517 C4516 1.391 1_655 S
C4517 H4529 0.922 1_655 S
C4518 C4514 1.531 . S
C4518 H4530 0.960 . S
C4518 H4531 0.962 . S
C4518 H4532 0.960 . S
C4519 C4516 1.537 . S
C4519 H4533 0.961 . S
C4519 H4534 0.961 . S
C4519 H4535 0.961 . S
C4520 C4521 1.370 . S
C4520 C4522 1.363 . S
C4520 H4536 0.931 . S
C4521 C4520 1.370 . S
C4521 C4525 1.408 . S
C4522 C4520 1.363 . S
C4522 C4523 1.370 . S
C4522 C4526 1.524 . S
C4523 C4515 1.503 . S
C4523 C4522 1.370 . S
C4523 C4524 1.403 . S
C4524 C4523 1.403 . S
C4524 C4525 1.404 . S
C4524 C4527 1.550 . S
C4525 C4521 1.408 . S
C4525 C4524 1.404 . S
C4525 H4537 0.930 . S
C4526 C4522 1.524 . S
C4526 H4538 0.956 . S
C4526 H4539 0.961 . S
C4526 H4540 0.961 . S
C4527 C4524 1.550 . S
C4527 H4541 0.977 . S
C4527 H4542 0.943 1_655 S
C4527 H4543 0.949 1_655 S
H4528 C4512 0.931 . S
H4529 C4517 0.922 1_455 S
H4530 C4518 0.960 . S
H4531 C4518 0.962 . S
H4532 C4518 0.960 . S
H4533 C4519 0.961 . S
H4534 C4519 0.961 . S
H4535 C4519 0.961 . S
H4536 C4520 0.931 . S
H4537 C4525 0.930 . S
H4538 C4526 0.956 . S
H4539 C4526 0.961 . S
H4540 C4526 0.961 . S
H4541 C4527 0.977 . S
H4542 C4527 0.943 1_455 S
H4543 C4527 0.949 1_455 S
C4544 C4545 1.391 . S
C4544 C4546 1.394 . S
C4544 H4560 0.931 . S
C4545 C4544 1.391 . S
C4545 C4549 1.376 . S
C4546 C4544 1.394 . S
C4546 C4547 1.369 . S
C4546 C4550 1.531 . S
C4547 C4546 1.369 . S
C4547 C4548 1.410 . S
C4547 C4555 1.503 . S
C4548 C4547 1.410 . S
C4548 C4549 1.392 . S
C4548 C4551 1.511 . S
C4549 C4545 1.376 . S
C4549 C4548 1.392 . S
C4549 H4561 0.929 . S
C4550 C4546 1.531 . S
C4550 H4562 0.960 . S
C4550 H4563 0.962 . S
C4550 H4564 0.960 . S
C4551 C4548 1.511 . S
C4551 H4565 0.961 . S
C4551 H4566 0.961 . S
C4551 H4567 0.961 . S
C4552 C4553 1.370 . S
C4552 C4554 1.363 . S
C4552 H4568 0.931 . S
C4553 C4552 1.370 . S
C4553 C4557 1.408 . S
C4554 C4552 1.363 . S
C4554 C4555 1.370 . S
C4554 C4558 1.524 . S
C4555 C4547 1.503 . S
C4555 C4554 1.370 . S
C4555 C4556 1.403 . S
C4556 C4555 1.403 . S
C4556 C4557 1.404 . S
C4556 C4559 1.539 . S
C4557 C4553 1.408 . S
C4557 C4556 1.404 . S
C4557 H4569 0.930 . S
C4558 C4554 1.524 . S
C4558 H4570 0.956 . S
C4558 H4571 0.961 . S
C4558 H4572 0.961 . S
C4559 C4556 1.539 . S
C4559 H4573 0.958 . S
C4559 H4574 0.961 . S
C4559 H4575 0.960 . S
H4560 C4544 0.931 . S
H4561 C4549 0.929 . S
H4562 C4550 0.960 . S
H4563 C4550 0.962 . S
H4564 C4550 0.960 . S
H4565 C4551 0.961 . S
H4566 C4551 0.961 . S
H4567 C4551 0.961 . S
H4568 C4552 0.931 . S
H4569 C4557 0.930 . S
H4570 C4558 0.956 . S
H4571 C4558 0.961 . S
H4572 C4558 0.961 . S
H4573 C4559 0.958 . S
H4574 C4559 0.961 . S
H4575 C4559 0.960 . S
C4576 C4577 1.391 . S
C4576 C4578 1.394 . S
C4576 H4592 0.931 . S
C4577 C4576 1.391 . S
C4577 C4581 1.376 . S
C4578 C4576 1.394 . S
C4578 C4579 1.369 . S
C4578 C4582 1.531 . S
C4579 C4578 1.369 . S
C4579 C4580 1.410 . S
C4579 C4587 1.503 . S
C4580 C4579 1.410 . S
C4580 C4581 1.392 . S
C4580 C4583 1.511 . S
C4581 C4577 1.376 . S
C4581 C4580 1.392 . S
C4581 H4593 0.929 . S
C4582 C4578 1.531 . S
C4582 H4594 0.960 . S
C4582 H4595 0.962 . S
C4582 H4596 0.960 . S
C4583 C4580 1.511 . S
C4583 H4597 0.961 . S
C4583 H4598 0.961 . S
C4583 H4599 0.961 . S
C4584 C4585 1.370 . S
C4584 C4586 1.363 . S
C4584 H4600 0.931 . S
C4585 C4584 1.370 . S
C4585 C4589 1.408 . S
C4586 C4584 1.363 . S
C4586 C4587 1.370 . S
C4586 C4590 1.524 . S
C4587 C4579 1.503 . S
C4587 C4586 1.370 . S
C4587 C4588 1.403 . S
C4588 C4587 1.403 . S
C4588 C4589 1.404 . S
C4588 C4591 1.539 . S
C4589 C4585 1.408 . S
C4589 C4588 1.404 . S
C4589 H4601 0.930 . S
C4590 C4586 1.524 . S
C4590 H4602 0.956 . S
C4590 H4603 0.961 . S
C4590 H4604 0.961 . S
C4591 C4588 1.539 . S
C4591 H4605 0.958 . S
C4591 H4606 0.961 . S
C4591 H4607 0.960 . S
H4592 C4576 0.931 . S
H4593 C4581 0.929 . S
H4594 C4582 0.960 . S
H4595 C4582 0.962 . S
H4596 C4582 0.960 . S
H4597 C4583 0.961 . S
H4598 C4583 0.961 . S
H4599 C4583 0.961 . S
H4600 C4584 0.931 . S
H4601 C4589 0.930 . S
H4602 C4590 0.956 . S
H4603 C4590 0.961 . S
H4604 C4590 0.961 . S
H4605 C4591 0.958 . S
H4606 C4591 0.961 . S
H4607 C4591 0.960 . S
C4608 C4609 1.388 1_554 S
C4608 C4610 1.392 1_554 S
C4608 H4624 0.935 . S
C4609 C4608 1.388 1_556 S
C4609 C4613 1.376 . S
C4610 C4608 1.392 1_556 S
C4610 C4611 1.377 . S
C4610 C4614 1.526 1_556 S
C4611 C4610 1.377 . S
C4611 C4612 1.410 . S
C4611 C4619 1.503 . S
C4612 C4611 1.410 . S
C4612 C4613 1.392 . S
C4612 C4615 1.511 . S
C4613 C4609 1.376 . S
C4613 C4612 1.392 . S
C4613 H4625 0.929 . S
C4614 C4610 1.526 1_554 S
C4614 H4626 0.960 1_554 S
C4614 H4627 0.962 . S
C4614 H4628 0.960 1_554 S
C4615 C4612 1.511 . S
C4615 H4629 0.961 . S
C4615 H4630 0.961 . S
C4615 H4631 0.961 . S
C4616 C4617 1.366 1_554 S
C4616 C4618 1.363 . S
C4616 H4632 0.931 . S
C4617 C4616 1.366 1_556 S
C4617 C4621 1.413 . S
C4618 C4616 1.363 . S
C4618 C4619 1.370 1_554 S
C4618 C4622 1.524 . S
C4619 C4611 1.503 . S
C4619 C4618 1.370 1_556 S
C4619 C4620 1.403 . S
C4620 C4619 1.403 . S
C4620 C4621 1.404 . S
C4620 C4623 1.539 . S
C4621 C4617 1.413 . S
C4621 C4620 1.404 . S
C4621 H4633 0.930 . S
C4622 C4618 1.524 . S
C4622 H4634 0.956 . S
C4622 H4635 0.961 . S
C4622 H4636 0.961 . S
C4623 C4620 1.539 . S
C4623 H4637 0.958 . S
C4623 H4638 0.961 . S
C4623 H4639 0.960 . S
H4624 C4608 0.935 . S
H4625 C4613 0.929 . S
H4626 C4614 0.960 1_556 S
H4627 C4614 0.962 . S
H4628 C4614 0.960 1_556 S
H4629 C4615 0.961 . S
H4630 C4615 0.961 . S
H4631 C4615 0.961 . S
H4632 C4616 0.931 . S
H4633 C4621 0.930 . S
H4634 C4622 0.956 . S
H4635 C4622 0.961 . S
H4636 C4622 0.961 . S
H4637 C4623 0.958 . S
H4638 C4623 0.961 . S
H4639 C4623 0.960 . S
C4640 C4641 1.391 . S
C4640 C4642 1.394 . S
C4640 H4656 0.931 . S
C4641 C4640 1.391 . S
C4641 C4645 1.376 . S
C4642 C4640 1.394 . S
C4642 C4643 1.369 . S
C4642 C4646 1.524 1_565 S
C4643 C4642 1.369 . S
C4643 C4644 1.410 . S
C4643 C4651 1.503 . S
C4644 C4643 1.410 . S
C4644 C4645 1.392 . S
C4644 C4647 1.511 . S
C4645 C4641 1.376 . S
C4645 C4644 1.392 . S
C4645 H4657 0.929 . S
C4646 C4642 1.524 1_545 S
C4646 H4658 0.970 . S
C4646 H4659 0.944 1_545 S
C4646 H4660 0.975 . S
C4647 C4644 1.511 . S
C4647 H4661 0.961 . S
C4647 H4662 0.961 . S
C4647 H4663 0.961 . S
C4648 C4649 1.370 . S
C4648 C4650 1.363 . S
C4648 H4664 0.931 . S
C4649 C4648 1.370 . S
C4649 C4653 1.408 1_565 S
C4650 C4648 1.363 . S
C4650 C4651 1.370 . S
C4650 C4654 1.524 . S
C4651 C4643 1.503 . S
C4651 C4650 1.370 . S
C4651 C4652 1.403 1_565 S
C4652 C4651 1.403 1_545 S
C4652 C4653 1.404 . S
C4652 C4655 1.539 . S
C4653 C4649 1.408 1_545 S
C4653 C4652 1.404 . S
C4653 H4665 0.930 . S
C4654 C4650 1.524 . S
C4654 H4666 0.956 . S
C4654 H4667 0.961 . S
C4654 H4668 0.961 . S
C4655 C4652 1.539 . S
C4655 H4669 0.958 . S
C4655 H4670 0.961 . S
C4655 H4671 0.960 . S
H4656 C4640 0.931 . S
H4657 C4645 0.929 . S
H4658 C4646 0.970 . S
H4659 C4646 0.944 1_565 S
H4660 C4646 0.975 . S
H4661 C4647 0.961 . S
H4662 C4647 0.961 . S
H4663 C4647 0.961 . S
H4664 C4648 0.931 . S
H4665 C4653 0.930 . S
H4666 C4654 0.956 . S
H4667 C4654 0.961 . S
H4668 C4654 0.961 . S
H4669 C4655 0.958 . S
H4670 C4655 0.961 . S
H4671 C4655 0.960 . S
C4672 C4673 1.401 . S
C4672 C4674 1.394 . S
C4672 H4688 0.931 . S
C4673 C4672 1.401 . S
C4673 C4677 1.368 1_545 S
C4674 C4672 1.394 . S
C4674 C4675 1.369 . S
C4674 C4678 1.531 . S
C4675 C4674 1.369 . S
C4675 C4676 1.410 1_545 S
C4675 C4683 1.503 . S
C4676 C4675 1.410 1_565 S
C4676 C4677 1.392 . S
C4676 C4679 1.511 . S
C4677 C4673 1.368 1_565 S
C4677 C4676 1.392 . S
C4677 H4689 0.929 . S
C4678 C4674 1.531 . S
C4678 H4690 0.960 . S
C4678 H4691 0.962 . S
C4678 H4692 0.960 . S
C4679 C4676 1.511 . S
C4679 H4693 0.961 . S
C4679 H4694 0.961 . S
C4679 H4695 0.961 . S
C4680 C4681 1.330 1_565 S
C4680 C4682 1.363 . S
C4680 H4696 0.931 . S
C4681 C4680 1.330 1_545 S
C4681 C4685 1.454 . S
C4682 C4680 1.363 . S
C4682 C4683 1.370 1_565 S
C4682 C4686 1.524 . S
C4683 C4675 1.503 . S
C4683 C4682 1.370 1_545 S
C4683 C4684 1.403 . S
C4684 C4683 1.403 . S
C4684 C4685 1.404 . S
C4684 C4687 1.539 . S
C4685 C4681 1.454 . S
C4685 C4684 1.404 . S
C4685 H4697 0.930 . S
C4686 C4682 1.524 . S
C4686 H4698 0.956 . S
C4686 H4699 0.961 . S
C4686 H4700 0.961 . S
C4687 C4684 1.539 . S
C4687 H4701 0.958 . S
C4687 H4702 0.961 . S
C4687 H4703 0.960 . S
H4688 C4672 0.931 . S
H4689 C4677 0.929 . S
H4690 C4678 0.960 . S
H4691 C4678 0.962 . S
H4692 C4678 0.960 . S
H4693 C4679 0.961 . S
H4694 C4679 0.961 . S
H4695 C4679 0.961 . S
H4696 C4680 0.931 . S
H4697 C4685 0.930 . S
H4698 C4686 0.956 . S
H4699 C4686 0.961 . S
H4700 C4686 0.961 . S
H4701 C4687 0.958 . S
H4702 C4687 0.961 . S
H4703 C4687 0.960 . S
C4704 C4705 1.391 . S
C4704 C4706 1.394 . S
C4704 H4720 0.931 . S
C4705 C4704 1.391 . S
C4705 C4709 1.376 . S
C4706 C4704 1.394 . S
C4706 C4707 1.369 . S
C4706 C4710 1.531 . S
C4707 C4706 1.369 . S
C4707 C4708 1.410 . S
C4707 C4715 1.503 1_556 S
C4708 C4707 1.410 . S
C4708 C4709 1.392 . S
C4708 C4711 1.511 1_545 S
C4709 C4705 1.376 . S
C4709 C4708 1.392 . S
C4709 H4721 0.919 1_545 S
C4710 C4706 1.531 . S
C4710 H4722 0.960 1_556 S
C4710 H4723 0.962 . S
C4710 H4724 0.960 . S
C4711 C4708 1.511 1_565 S
C4711 H4725 0.961 . S
C4711 H4726 0.961 1_556 S
C4711 H4727 0.961 1_565 S
C4712 C4713 1.370 . S
C4712 C4714 1.363 . S
C4712 H4728 0.931 1_545 S
C4713 C4712 1.370 . S
C4713 C4717 1.408 . S
C4714 C4712 1.363 . S
C4714 C4715 1.370 . S
C4714 C4718 1.524 1_545 S
C4715 C4707 1.503 1_554 S
C4715 C4714 1.370 . S
C4715 C4716 1.403 . S
C4716 C4715 1.403 . S
C4716 C4717 1.404 . S
C4716 C4719 1.539 . S
C4717 C4713 1.408 . S
C4717 C4716 1.404 . S
C4717 H4729 0.930 . S
C4718 C4714 1.524 1_565 S
C4718 H4730 0.956 . S
C4718 H4731 0.961 . S
C4718 H4732 0.961 . S
C4719 C4716 1.539 . S
C4719 H4733 0.958 . S
C4719 H4734 0.961 . S
C4719 H4735 0.960 . S
H4720 C4704 0.931 . S
H4721 C4709 0.919 1_565 S
H4722 C4710 0.960 1_554 S
H4723 C4710 0.962 . S
H4724 C4710 0.960 . S
H4725 C4711 0.961 . S
H4726 C4711 0.961 1_554 S
H4727 C4711 0.961 1_545 S
H4728 C4712 0.931 1_565 S
H4729 C4717 0.930 . S
H4730 C4718 0.956 . S
H4731 C4718 0.961 . S
H4732 C4718 0.961 . S
H4733 C4719 0.958 . S
H4734 C4719 0.961 . S
H4735 C4719 0.960 . S
C4736 C4737 1.408 . S
C4736 C4738 1.394 . S
C4736 H4752 0.931 . S
C4737 C4736 1.408 . S
C4737 C4741 1.362 1_545 S
C4738 C4736 1.394 . S
C4738 C4739 1.369 . S
C4738 C4742 1.531 . S
C4739 C4738 1.369 . S
C4739 C4740 1.410 1_545 S
C4739 C4747 1.503 . S
C4740 C4739 1.410 1_565 S
C4740 C4741 1.392 . S
C4740 C4743 1.511 . S
C4741 C4737 1.362 1_565 S
C4741 C4740 1.392 . S
C4741 H4753 0.929 . S
C4742 C4738 1.531 . S
C4742 H4754 0.960 . S
C4742 H4755 0.962 . S
C4742 H4756 0.960 . S
C4743 C4740 1.511 . S
C4743 H4757 0.961 . S
C4743 H4758 0.961 . S
C4743 H4759 0.961 . S
C4744 C4745 1.370 1_565 S
C4744 C4746 1.363 . S
C4744 H4760 0.931 . S
C4745 C4744 1.370 1_545 S
C4745 C4749 1.408 . S
C4746 C4744 1.363 . S
C4746 C4747 1.370 1_565 S
C4746 C4750 1.524 . S
C4747 C4739 1.503 . S
C4747 C4746 1.370 1_545 S
C4747 C4748 1.403 . S
C4748 C4747 1.403 . S
C4748 C4749 1.404 . S
C4748 C4751 1.539 . S
C4749 C4745 1.408 . S
C4749 C4748 1.404 . S
C4749 H4761 0.930 . S
C4750 C4746 1.524 . S
C4750 H4762 0.956 . S
C4750 H4763 0.961 . S
C4750 H4764 0.961 . S
C4751 C4748 1.539 . S
C4751 H4765 0.958 . S
C4751 H4766 0.961 . S
C4751 H4767 0.960 . S
H4752 C4736 0.931 . S
H4753 C4741 0.929 . S
H4754 C4742 0.960 . S
H4755 C4742 0.962 . S
H4756 C4742 0.960 . S
H4757 C4743 0.961 . S
H4758 C4743 0.961 . S
H4759 C4743 0.961 . S
H4760 C4744 0.931 . S
H4761 C4749 0.930 . S
H4762 C4750 0.956 . S
H4763 C4750 0.961 . S
H4764 C4750 0.961 . S
H4765 C4751 0.958 . S
H4766 C4751 0.961 . S
H4767 C4751 0.960 . S
C4768 C4769 1.391 . S
C4768 C4770 1.394 . S
C4768 H4784 0.931 . S
C4769 C4768 1.391 . S
C4769 C4773 1.365 1_556 S
C4770 C4768 1.394 . S
C4770 C4771 1.369 . S
C4770 C4774 1.531 . S
C4771 C4770 1.369 . S
C4771 C4772 1.410 1_556 S
C4771 C4779 1.503 . S
C4772 C4771 1.410 1_554 S
C4772 C4773 1.393 . S
C4772 C4775 1.511 . S
C4773 C4769 1.365 1_554 S
C4773 C4772 1.393 . S
C4773 H4785 0.938 . S
C4774 C4770 1.531 . S
C4774 H4786 0.960 . S
C4774 H4787 0.962 . S
C4774 H4788 0.960 . S
C4775 C4772 1.511 . S
C4775 H4789 0.961 . S
C4775 H4790 0.961 . S
C4775 H4791 0.961 . S
C4776 C4777 1.370 . S
C4776 C4778 1.363 . S
C4776 H4792 0.931 . S
C4777 C4776 1.370 . S
C4777 C4781 1.383 1_556 S
C4778 C4776 1.363 . S
C4778 C4779 1.370 . S
C4778 C4782 1.524 . S
C4779 C4771 1.503 . S
C4779 C4778 1.370 . S
C4779 C4780 1.403 1_556 S
C4780 C4779 1.403 1_554 S
C4780 C4781 1.406 . S
C4780 C4783 1.539 . S
C4781 C4777 1.383 1_554 S
C4781 C4780 1.406 . S
C4781 H4793 0.954 . S
C4782 C4778 1.524 . S
C4782 H4794 0.956 . S
C4782 H4795 0.961 . S
C4782 H4796 0.961 . S
C4783 C4780 1.539 . S
C4783 H4797 0.958 . S
C4783 H4798 0.961 . S
C4783 H4799 0.960 . S
H4784 C4768 0.931 . S
H4785 C4773 0.938 . S
H4786 C4774 0.960 . S
H4787 C4774 0.962 . S
H4788 C4774 0.960 . S
H4789 C4775 0.961 . S
H4790 C4775 0.961 . S
H4791 C4775 0.961 . S
H4792 C4776 0.931 . S
H4793 C4781 0.954 . S
H4794 C4782 0.956 . S
H4795 C4782 0.961 . S
H4796 C4782 0.961 . S
H4797 C4783 0.958 . S
H4798 C4783 0.961 . S
H4799 C4783 0.960 . S
C4800 C4801 1.391 . S
C4800 C4802 1.395 . S
C4800 H4816 0.931 1_554 S
C4801 C4800 1.391 . S
C4801 C4805 1.376 . S
C4802 C4800 1.395 . S
C4802 C4803 1.385 . S
C4802 C4806 1.514 1_554 S
C4803 C4802 1.385 . S
C4803 C4804 1.410 . S
C4803 C4811 1.503 1_655 S
C4804 C4803 1.410 . S
C4804 C4805 1.392 . S
C4804 C4807 1.511 . S
C4805 C4801 1.376 . S
C4805 C4804 1.392 . S
C4805 H4817 0.929 . S
C4806 C4802 1.514 1_556 S
C4806 H4818 0.960 1_655 S
C4806 H4819 0.962 . S
C4806 H4820 0.960 . S
C4807 C4804 1.511 . S
C4807 H4821 0.961 . S
C4807 H4822 0.961 1_655 S
C4807 H4823 0.961 . S
C4808 C4809 1.370 . S
C4808 C4810 1.363 . S
C4808 H4824 0.931 . S
C4809 C4808 1.370 . S
C4809 C4813 1.408 . S
C4810 C4808 1.363 . S
C4810 C4811 1.370 . S
C4810 C4814 1.524 . S
C4811 C4803 1.503 1_455 S
C4811 C4810 1.370 . S
C4811 C4812 1.403 . S
C4812 C4811 1.403 . S
C4812 C4813 1.404 . S
C4812 C4815 1.539 1_554 S
C4813 C4809 1.408 . S
C4813 C4812 1.404 . S
C4813 H4825 0.930 1_554 S
C4814 C4810 1.524 . S
C4814 H4826 0.956 . S
C4814 H4827 0.972 . S
C4814 H4828 0.961 . S
C4815 C4812 1.539 1_556 S
C4815 H4829 0.958 . S
C4815 H4830 0.961 . S
C4815 H4831 0.960 . S
H4816 C4800 0.931 1_556 S
H4817 C4805 0.929 . S
H4818 C4806 0.960 1_455 S
H4819 C4806 0.962 . S
H4820 C4806 0.960 . S
H4821 C4807 0.961 . S
H4822 C4807 0.961 1_455 S
H4823 C4807 0.961 . S
H4824 C4808 0.931 . S
H4825 C4813 0.930 1_556 S
H4826 C4814 0.956 . S
H4827 C4814 0.972 . S
H4828 C4814 0.961 . S
H4829 C4815 0.958 . S
H4830 C4815 0.961 . S
H4831 C4815 0.960 . S
C4832 C4833 1.391 1_455 S
C4832 C4834 1.393 1_455 S
C4832 H4848 0.931 . S
C4833 C4832 1.391 1_655 S
C4833 C4837 1.376 . S
C4834 C4832 1.393 1_655 S
C4834 C4835 1.371 . S
C4834 C4838 1.529 1_655 S
C4835 C4834 1.371 . S
C4835 C4836 1.410 . S
C4835 C4843 1.503 . S
C4836 C4835 1.410 . S
C4836 C4837 1.392 . S
C4836 C4839 1.511 . S
C4837 C4833 1.376 . S
C4837 C4836 1.392 . S
C4837 H4849 0.929 . S
C4838 C4834 1.529 1_455 S
C4838 H4850 0.960 1_455 S
C4838 H4851 0.962 . S
C4838 H4852 0.959 . S
C4839 C4836 1.511 . S
C4839 H4853 0.961 . S
C4839 H4854 0.961 . S
C4839 H4855 0.961 . S
C4840 C4841 1.370 1_455 S
C4840 C4842 1.363 . S
C4840 H4856 0.931 . S
C4841 C4840 1.370 1_655 S
C4841 C4845 1.408 . S
C4842 C4840 1.363 . S
C4842 C4843 1.370 1_455 S
C4842 C4846 1.524 . S
C4843 C4835 1.503 . S
C4843 C4842 1.370 1_655 S
C4843 C4844 1.403 . S
C4844 C4843 1.403 . S
C4844 C4845 1.404 . S
C4844 C4847 1.539 . S
C4845 C4841 1.408 . S
C4845 C4844 1.404 . S
C4845 H4857 0.930 . S
C4846 C4842 1.524 . S
C4846 H4858 0.956 . S
C4846 H4859 0.961 . S
C4846 H4860 0.961 . S
C4847 C4844 1.539 . S
C4847 H4861 0.958 . S
C4847 H4862 0.961 . S
C4847 H4863 0.960 . S
H4848 C4832 0.931 . S
H4849 C4837 0.929 . S
H4850 C4838 0.960 1_655 S
H4851 C4838 0.962 . S
H4852 C4838 0.959 . S
H4853 C4839 0.961 . S
H4854 C4839 0.961 . S
H4855 C4839 0.961 . S
H4856 C4840 0.931 . S
H4857 C4845 0.930 . S
H4858 C4846 0.956 . S
H4859 C4846 0.961 . S
H4860 C4846 0.961 . S
H4861 C4847 0.958 . S
H4862 C4847 0.961 . S
H4863 C4847 0.960 . S
C4864 C4865 1.391 . S
C4864 C4866 1.394 . S
C4864 H4880 0.931 . S
C4865 C4864 1.391 . S
C4865 C4869 1.376 . S
C4866 C4864 1.394 . S
C4866 C4867 1.369 . S
C4866 C4870 1.531 . S
C4867 C4866 1.369 . S
C4867 C4868 1.410 . S
C4867 C4875 1.503 . S
C4868 C4867 1.410 . S
C4868 C4869 1.392 . S
C4868 C4871 1.511 . S
C4869 C4865 1.376 . S
C4869 C4868 1.392 . S
C4869 H4881 0.929 . S
C4870 C4866 1.531 . S
C4870 H4882 0.960 . S
C4870 H4883 0.962 . S
C4870 H4884 0.960 . S
C4871 C4868 1.511 . S
C4871 H4885 0.961 . S
C4871 H4886 0.961 . S
C4871 H4887 0.961 . S
C4872 C4873 1.370 . S
C4872 C4874 1.363 . S
C4872 H4888 0.931 . S
C4873 C4872 1.370 . S
C4873 C4877 1.408 . S
C4874 C4872 1.363 . S
C4874 C4875 1.370 . S
C4874 C4878 1.524 . S
C4875 C4867 1.503 . S
C4875 C4874 1.370 . S
C4875 C4876 1.403 . S
C4876 C4875 1.403 . S
C4876 C4877 1.404 . S
C4876 C4879 1.539 . S
C4877 C4873 1.408 . S
C4877 C4876 1.404 . S
C4877 H4889 0.930 . S
C4878 C4874 1.524 . S
C4878 H4890 0.956 . S
C4878 H4891 0.961 . S
C4878 H4892 0.961 . S
C4879 C4876 1.539 . S
C4879 H4893 0.958 . S
C4879 H4894 0.961 . S
C4879 H4895 0.960 . S
H4880 C4864 0.931 . S
H4881 C4869 0.929 . S
H4882 C4870 0.960 . S
H4883 C4870 0.962 . S
H4884 C4870 0.960 . S
H4885 C4871 0.961 . S
H4886 C4871 0.961 . S
H4887 C4871 0.961 . S
H4888 C4872 0.931 . S
H4889 C4877 0.930 . S
H4890 C4878 0.956 . S
H4891 C4878 0.961 . S
H4892 C4878 0.961 . S
H4893 C4879 0.958 . S
H4894 C4879 0.961 . S
H4895 C4879 0.960 . S
C4896 C4897 1.391 . S
C4896 C4898 1.394 . S
C4896 H4912 0.931 . S
C4897 C4896 1.391 . S
C4897 C4901 1.376 . S
C4898 C4896 1.394 . S
C4898 C4899 1.369 . S
C4898 C4902 1.531 . S
C4899 C4898 1.369 . S
C4899 C4900 1.410 . S
C4899 C4907 1.503 1_655 S
C4900 C4899 1.410 . S
C4900 C4901 1.392 . S
C4900 C4903 1.511 . S
C4901 C4897 1.376 . S
C4901 C4900 1.392 . S
C4901 H4913 0.929 . S
C4902 C4898 1.531 . S
C4902 H4914 0.960 1_655 S
C4902 H4915 0.962 . S
C4902 H4916 0.960 . S
C4903 C4900 1.511 . S
C4903 H4917 0.961 . S
C4903 H4918 0.961 1_655 S
C4903 H4919 0.961 . S
C4904 C4905 1.370 . S
C4904 C4906 1.363 . S
C4904 H4920 0.931 . S
C4905 C4904 1.370 . S
C4905 C4909 1.408 . S
C4906 C4904 1.363 . S
C4906 C4907 1.370 . S
C4906 C4910 1.524 . S
C4907 C4899 1.503 1_455 S
C4907 C4906 1.370 . S
C4907 C4908 1.403 . S
C4908 C4907 1.403 . S
C4908 C4909 1.404 . S
C4908 C4911 1.539 . S
C4909 C4905 1.408 . S
C4909 C4908 1.404 . S
C4909 H4921 0.930 . S
C4910 C4906 1.524 . S
C4910 H4922 0.956 . S
C4910 H4923 0.928 1_455 S
C4910 H4924 0.961 . S
C4911 C4908 1.539 . S
C4911 H4925 0.958 . S
C4911 H4926 0.961 . S
C4911 H4927 1.007 . S
H4912 C4896 0.931 . S
H4913 C4901 0.929 . S
H4914 C4902 0.960 1_455 S
H4915 C4902 0.962 . S
H4916 C4902 0.960 . S
H4917 C4903 0.961 . S
H4918 C4903 0.961 1_455 S
H4919 C4903 0.961 . S
H4920 C4904 0.931 . S
H4921 C4909 0.930 . S
H4922 C4910 0.956 . S
H4923 C4910 0.928 1_655 S
H4924 C4910 0.961 . S
H4925 C4911 0.958 . S
H4926 C4911 0.961 . S
H4927 C4911 1.007 . S
C4928 C4929 1.391 . S
C4928 C4930 1.398 . S
C4928 H4944 0.929 1_455 S
C4929 C4928 1.391 . S
C4929 C4933 1.376 . S
C4930 C4928 1.398 . S
C4930 C4931 1.369 . S
C4930 C4934 1.531 . S
C4931 C4930 1.369 . S
C4931 C4932 1.410 . S
C4931 C4939 1.503 . S
C4932 C4931 1.410 . S
C4932 C4933 1.392 . S
C4932 C4935 1.511 . S
C4933 C4929 1.376 . S
C4933 C4932 1.392 . S
C4933 H4945 0.929 . S
C4934 C4930 1.531 . S
C4934 H4946 0.960 . S
C4934 H4947 0.962 1_455 S
C4934 H4948 0.960 . S
C4935 C4932 1.511 . S
C4935 H4949 0.960 1_455 S
C4935 H4950 0.964 1_455 S
C4935 H4951 0.961 . S
C4936 C4937 1.370 1_655 S
C4936 C4938 1.363 . S
C4936 H4952 0.931 . S
C4937 C4936 1.370 1_455 S
C4937 C4941 1.408 . S
C4938 C4936 1.363 . S
C4938 C4939 1.370 1_655 S
C4938 C4942 1.524 . S
C4939 C4931 1.503 . S
C4939 C4938 1.370 1_455 S
C4939 C4940 1.403 . S
C4940 C4939 1.403 . S
C4940 C4941 1.404 . S
C4940 C4943 1.539 . S
C4941 C4937 1.408 . S
C4941 C4940 1.404 . S
C4941 H4953 0.930 . S
C4942 C4938 1.524 . S
C4942 H4954 0.956 . S
C4942 H4955 0.961 . S
C4942 H4956 0.961 . S
C4943 C4940 1.539 . S
C4943 H4957 0.958 . S
C4943 H4958 0.961 . S
C4943 H4959 0.960 . S
H4944 C4928 0.929 1_655 S
H4945 C4933 0.929 . S
H4946 C4934 0.960 . S
H4947 C4934 0.962 1_655 S
H4948 C4934 0.960 . S
H4949 C4935 0.960 1_655 S
H4950 C4935 0.964 1_655 S
H4951 C4935 0.961 . S
H4952 C4936 0.931 . S
H4953 C4941 0.930 . S
H4954 C4942 0.956 . S
H4955 C4942 0.961 . S
H4956 C4942 0.961 . S
H4957 C4943 0.958 . S
H4958 C4943 0.961 . S
H4959 C4943 0.960 . S
C4960 C4961 1.391 . S
C4960 C4962 1.394 . S
C4960 H4976 0.931 . S
C4961 C4960 1.391 . S
C4961 C4965 1.376 . S
C4962 C4960 1.394 . S
C4962 C4963 1.369 . S
C4962 C4966 1.531 . S
C4963 C4962 1.369 . S
C4963 C4964 1.410 . S
C4963 C4971 1.503 . S
C4964 C4963 1.410 . S
C4964 C4965 1.392 . S
C4964 C4967 1.511 . S
C4965 C4961 1.376 . S
C4965 C4964 1.392 . S
C4965 H4977 0.929 . S
C4966 C4962 1.531 . S
C4966 H4978 0.960 . S
C4966 H4979 0.962 . S
C4966 H4980 0.960 . S
C4967 C4964 1.511 . S
C4967 H4981 0.961 . S
C4967 H4982 0.961 . S
C4967 H4983 0.961 . S
C4968 C4969 1.370 . S
C4968 C4970 1.363 . S
C4968 H4984 0.931 . S
C4969 C4968 1.370 . S
C4969 C4973 1.408 . S
C4970 C4968 1.363 . S
C4970 C4971 1.370 . S
C4970 C4974 1.524 . S
C4971 C4963 1.503 . S
C4971 C4970 1.370 . S
C4971 C4972 1.403 . S
C4972 C4971 1.403 . S
C4972 C4973 1.404 . S
C4972 C4975 1.539 . S
C4973 C4969 1.408 . S
C4973 C4972 1.404 . S
C4973 H4985 0.930 . S
C4974 C4970 1.524 . S
C4974 H4986 0.956 . S
C4974 H4987 0.961 . S
C4974 H4988 0.961 . S
C4975 C4972 1.539 . S
C4975 H4989 0.958 . S
C4975 H4990 0.961 . S
C4975 H4991 0.960 . S
H4976 C4960 0.931 . S
H4977 C4965 0.929 . S
H4978 C4966 0.960 . S
H4979 C4966 0.962 . S
H4980 C4966 0.960 . S
H4981 C4967 0.961 . S
H4982 C4967 0.961 . S
H4983 C4967 0.961 . S
H4984 C4968 0.931 . S
H4985 C4973 0.930 . S
H4986 C4974 0.956 . S
H4987 C4974 0.961 . S
H4988 C4974 0.961 . S
H4989 C4975 0.958 . S
H4990 C4975 0.961 . S
H4991 C4975 0.960 . S
C4992 C4993 1.391 . S
C4992 C4994 1.394 . S
C4992 H5008 0.931 . S
C4993 C4992 1.391 . S
C4993 C4997 1.376 . S
C4994 C4992 1.394 . S
C4994 C4995 1.369 . S
C4994 C4998 1.531 . S
C4995 C4994 1.369 . S
C4995 C4996 1.410 . S
C4995 C5003 1.503 1_545 S
C4996 C4995 1.410 . S
C4996 C4997 1.392 . S
C4996 C4999 1.511 . S
C4997 C4993 1.376 . S
C4997 C4996 1.392 . S
C4997 H5009 0.929 . S
C4998 C4994 1.531 . S
C4998 H5010 0.960 1_545 S
C4998 H5011 0.962 . S
C4998 H5012 0.960 . S
C4999 C4996 1.511 . S
C4999 H5013 0.961 . S
C4999 H5014 0.961 1_545 S
C4999 H5015 0.961 . S
C5000 C5001 1.370 . S
C5000 C5002 1.363 . S
C5000 H5016 0.931 . S
C5001 C5000 1.370 . S
C5001 C5005 1.408 . S
C5002 C5000 1.363 . S
C5002 C5003 1.370 . S
C5002 C5006 1.524 . S
C5003 C4995 1.503 1_565 S
C5003 C5002 1.370 . S
C5003 C5004 1.403 . S
C5004 C5003 1.403 . S
C5004 C5005 1.404 . S
C5004 C5007 1.539 . S
C5005 C5001 1.408 . S
C5005 C5004 1.404 . S
C5005 H5017 0.930 . S
C5006 C5002 1.524 . S
C5006 H5018 0.956 . S
C5006 H5019 0.982 . S
C5006 H5020 0.961 . S
C5007 C5004 1.539 . S
C5007 H5021 0.958 . S
C5007 H5022 0.961 . S
C5007 H5023 0.995 . S
H5008 C4992 0.931 . S
H5009 C4997 0.929 . S
H5010 C4998 0.960 1_565 S
H5011 C4998 0.962 . S
H5012 C4998 0.960 . S
H5013 C4999 0.961 . S
H5014 C4999 0.961 1_565 S
H5015 C4999 0.961 . S
H5016 C5000 0.931 . S
H5017 C5005 0.930 . S
H5018 C5006 0.956 . S
H5019 C5006 0.982 . S
H5020 C5006 0.961 . S
H5021 C5007 0.958 . S
H5022 C5007 0.961 . S
H5023 C5007 0.995 . S
C5024 C5025 1.391 1_554 S
C5024 C5026 1.394 . S
C5024 H5040 0.931 . S
C5025 C5024 1.391 1_556 S
C5025 C5029 1.376 . S
C5026 C5024 1.394 . S
C5026 C5027 1.324 1_554 S
C5026 C5030 1.531 . S
C5027 C5026 1.324 1_556 S
C5027 C5028 1.456 . S
C5027 C5035 1.503 . S
C5028 C5027 1.456 . S
C5028 C5029 1.392 . S
C5028 C5031 1.511 . S
C5029 C5025 1.376 . S
C5029 C5028 1.392 . S
C5029 H5041 0.929 . S
C5030 C5026 1.531 . S
C5030 H5042 0.960 . S
C5030 H5043 0.962 . S
C5030 H5044 0.960 . S
C5031 C5028 1.511 . S
C5031 H5045 0.961 . S
C5031 H5046 0.961 . S
C5031 H5047 0.961 . S
C5032 C5033 1.372 . S
C5032 C5034 1.363 . S
C5032 H5048 0.931 . S
C5033 C5032 1.372 . S
C5033 C5037 1.407 1_554 S
C5034 C5032 1.363 . S
C5034 C5035 1.368 1_554 S
C5034 C5038 1.524 . S
C5035 C5027 1.503 . S
C5035 C5034 1.368 1_556 S
C5035 C5036 1.405 . S
C5036 C5035 1.405 . S
C5036 C5037 1.404 . S
C5036 C5039 1.539 . S
C5037 C5033 1.407 1_556 S
C5037 C5036 1.404 . S
C5037 H5049 0.930 . S
C5038 C5034 1.524 . S
C5038 H5050 0.956 . S
C5038 H5051 0.961 1_554 S
C5038 H5052 0.961 . S
C5039 C5036 1.539 . S
C5039 H5053 0.958 1_556 S
C5039 H5054 0.961 . S
C5039 H5055 0.960 . S
H5040 C5024 0.931 . S
H5041 C5029 0.929 . S
H5042 C5030 0.960 . S
H5043 C5030 0.962 . S
H5044 C5030 0.960 . S
H5045 C5031 0.961 . S
H5046 C5031 0.961 . S
H5047 C5031 0.961 . S
H5048 C5032 0.931 . S
H5049 C5037 0.930 . S
H5050 C5038 0.956 . S
H5051 C5038 0.961 1_556 S
H5052 C5038 0.961 . S
H5053 C5039 0.958 1_554 S
H5054 C5039 0.961 . S
H5055 C5039 0.960 . S
C5056 C5057 1.391 . S
C5056 C5058 1.394 . S
C5056 H5072 0.931 . S
C5057 C5056 1.391 . S
C5057 C5061 1.376 . S
C5058 C5056 1.394 . S
C5058 C5059 1.369 . S
C5058 C5062 1.531 . S
C5059 C5058 1.369 . S
C5059 C5060 1.410 . S
C5059 C5067 1.503 1_545 S
C5060 C5059 1.410 . S
C5060 C5061 1.392 . S
C5060 C5063 1.511 . S
C5061 C5057 1.376 . S
C5061 C5060 1.392 . S
C5061 H5073 0.929 . S
C5062 C5058 1.531 . S
C5062 H5074 0.960 1_545 S
C5062 H5075 0.962 1_655 S
C5062 H5076 0.960 . S
C5063 C5060 1.511 . S
C5063 H5077 0.961 . S
C5063 H5078 0.961 1_545 S
C5063 H5079 0.961 . S
C5064 C5065 1.391 . S
C5064 C5066 1.365 . S
C5064 H5080 0.908 1_655 S
C5065 C5064 1.391 . S
C5065 C5069 1.408 . S
C5066 C5064 1.365 . S
C5066 C5067 1.370 . S
C5066 C5070 1.524 1_655 S
C5067 C5059 1.503 1_565 S
C5067 C5066 1.370 . S
C5067 C5068 1.403 . S
C5068 C5067 1.403 . S
C5068 C5069 1.404 . S
C5068 C5071 1.539 . S
C5069 C5065 1.408 . S
C5069 C5068 1.404 . S
C5069 H5081 0.930 . S
C5070 C5066 1.524 1_455 S
C5070 H5082 0.956 . S
C5070 H5083 0.959 1_565 S
C5070 H5084 0.961 . S
C5071 C5068 1.539 . S
C5071 H5085 0.958 . S
C5071 H5086 0.961 . S
C5071 H5087 0.960 . S
H5072 C5056 0.931 . S
H5073 C5061 0.929 . S
H5074 C5062 0.960 1_565 S
H5075 C5062 0.962 1_455 S
H5076 C5062 0.960 . S
H5077 C5063 0.961 . S
H5078 C5063 0.961 1_565 S
H5079 C5063 0.961 . S
H5080 C5064 0.908 1_455 S
H5081 C5069 0.930 . S
H5082 C5070 0.956 . S
H5083 C5070 0.959 1_545 S
H5084 C5070 0.961 . S
H5085 C5071 0.958 . S
H5086 C5071 0.961 . S
H5087 C5071 0.960 . S
C5088 C5089 1.391 . S
C5088 C5090 1.394 . S
C5088 H5104 0.931 . S
C5089 C5088 1.391 . S
C5089 C5093 1.376 . S
C5090 C5088 1.394 . S
C5090 C5091 1.369 . S
C5090 C5094 1.531 . S
C5091 C5090 1.369 . S
C5091 C5092 1.410 . S
C5091 C5099 1.503 . S
C5092 C5091 1.410 . S
C5092 C5093 1.392 . S
C5092 C5095 1.511 . S
C5093 C5089 1.376 . S
C5093 C5092 1.392 . S
C5093 H5105 0.929 . S
C5094 C5090 1.531 . S
C5094 H5106 0.960 . S
C5094 H5107 0.962 . S
C5094 H5108 0.960 . S
C5095 C5092 1.511 . S
C5095 H5109 0.961 . S
C5095 H5110 0.961 . S
C5095 H5111 0.961 . S
C5096 C5097 1.370 . S
C5096 C5098 1.363 . S
C5096 H5112 0.931 . S
C5097 C5096 1.370 . S
C5097 C5101 1.408 . S
C5098 C5096 1.363 . S
C5098 C5099 1.370 . S
C5098 C5102 1.524 . S
C5099 C5091 1.503 . S
C5099 C5098 1.370 . S
C5099 C5100 1.403 . S
C5100 C5099 1.403 . S
C5100 C5101 1.404 . S
C5100 C5103 1.539 . S
C5101 C5097 1.408 . S
C5101 C5100 1.404 . S
C5101 H5113 0.930 . S
C5102 C5098 1.524 . S
C5102 H5114 0.956 . S
C5102 H5115 0.961 . S
C5102 H5116 0.961 . S
C5103 C5100 1.539 . S
C5103 H5117 0.958 . S
C5103 H5118 0.961 . S
C5103 H5119 0.960 . S
H5104 C5088 0.931 . S
H5105 C5093 0.929 . S
H5106 C5094 0.960 . S
H5107 C5094 0.962 . S
H5108 C5094 0.960 . S
H5109 C5095 0.961 . S
H5110 C5095 0.961 . S
H5111 C5095 0.961 . S
H5112 C5096 0.931 . S
H5113 C5101 0.930 . S
H5114 C5102 0.956 . S
H5115 C5102 0.961 . S
H5116 C5102 0.961 . S
H5117 C5103 0.958 . S
H5118 C5103 0.961 . S
H5119 C5103 0.960 . S
C5120 C5121 1.391 . S
C5120 C5122 1.394 . S
C5120 H5136 0.931 . S
C5121 C5120 1.391 . S
C5121 C5125 1.376 . S
C5122 C5120 1.394 . S
C5122 C5123 1.369 . S
C5122 C5126 1.531 . S
C5123 C5122 1.369 . S
C5123 C5124 1.410 . S
C5123 C5131 1.503 1_556 S
C5124 C5123 1.410 . S
C5124 C5125 1.392 . S
C5124 C5127 1.511 . S
C5125 C5121 1.376 . S
C5125 C5124 1.392 . S
C5125 H5137 0.929 . S
C5126 C5122 1.531 . S
C5126 H5138 0.950 1_556 S
C5126 H5139 0.962 . S
C5126 H5140 0.960 . S
C5127 C5124 1.511 . S
C5127 H5141 0.961 . S
C5127 H5142 0.961 1_556 S
C5127 H5143 0.961 . S
C5128 C5129 1.370 . S
C5128 C5130 1.363 . S
C5128 H5144 0.931 . S
C5129 C5128 1.370 . S
C5129 C5133 1.408 . S
C5130 C5128 1.363 . S
C5130 C5131 1.370 . S
C5130 C5134 1.524 . S
C5131 C5123 1.503 1_554 S
C5131 C5130 1.370 . S
C5131 C5132 1.403 . S
C5132 C5131 1.403 . S
C5132 C5133 1.404 . S
C5132 C5135 1.539 . S
C5133 C5129 1.408 . S
C5133 C5132 1.404 . S
C5133 H5145 0.930 . S
C5134 C5130 1.524 . S
C5134 H5146 0.929 1_554 S
C5134 H5147 0.961 1_554 S
C5134 H5148 0.961 . S
C5135 C5132 1.539 . S
C5135 H5149 0.958 . S
C5135 H5150 0.961 . S
C5135 H5151 0.960 1_554 S
H5136 C5120 0.931 . S
H5137 C5125 0.929 . S
H5138 C5126 0.950 1_554 S
H5139 C5126 0.962 . S
H5140 C5126 0.960 . S
H5141 C5127 0.961 . S
H5142 C5127 0.961 1_554 S
H5143 C5127 0.961 . S
H5144 C5128 0.931 . S
H5145 C5133 0.930 . S
H5146 C5134 0.929 1_556 S
H5147 C5134 0.961 1_556 S
H5148 C5134 0.961 . S
H5149 C5135 0.958 . S
H5150 C5135 0.961 . S
H5151 C5135 0.960 1_556 S
C5152 C5153 1.391 . S
C5152 C5154 1.394 . S
C5152 H5168 0.931 . S
C5153 C5152 1.391 . S
C5153 C5157 1.376 . S
C5154 C5152 1.394 . S
C5154 C5155 1.369 . S
C5154 C5158 1.531 . S
C5155 C5154 1.369 . S
C5155 C5156 1.410 . S
C5155 C5163 1.503 . S
C5156 C5155 1.410 . S
C5156 C5157 1.392 . S
C5156 C5159 1.511 . S
C5157 C5153 1.376 . S
C5157 C5156 1.392 . S
C5157 H5169 0.929 . S
C5158 C5154 1.531 . S
C5158 H5170 0.960 . S
C5158 H5171 0.962 . S
C5158 H5172 0.960 . S
C5159 C5156 1.511 . S
C5159 H5173 0.961 . S
C5159 H5174 0.961 . S
C5159 H5175 0.961 . S
C5160 C5161 1.370 . S
C5160 C5162 1.363 . S
C5160 H5176 0.931 . S
C5161 C5160 1.370 . S
C5161 C5165 1.408 . S
C5162 C5160 1.363 . S
C5162 C5163 1.370 . S
C5162 C5166 1.524 . S
C5163 C5155 1.503 . S
C5163 C5162 1.370 . S
C5163 C5164 1.403 . S
C5164 C5163 1.403 . S
C5164 C5165 1.404 . S
C5164 C5167 1.539 . S
C5165 C5161 1.408 . S
C5165 C5164 1.404 . S
C5165 H5177 0.930 . S
C5166 C5162 1.524 . S
C5166 H5178 0.956 . S
C5166 H5179 0.961 . S
C5166 H5180 0.961 . S
C5167 C5164 1.539 . S
C5167 H5181 0.958 . S
C5167 H5182 0.961 . S
C5167 H5183 0.960 . S
H5168 C5152 0.931 . S
H5169 C5157 0.929 . S
H5170 C5158 0.960 . S
H5171 C5158 0.962 . S
H5172 C5158 0.960 . S
H5173 C5159 0.961 . S
H5174 C5159 0.961 . S
H5175 C5159 0.961 . S
H5176 C5160 0.931 . S
H5177 C5165 0.930 . S
H5178 C5166 0.956 . S
H5179 C5166 0.961 . S
H5180 C5166 0.961 . S
H5181 C5167 0.958 . S
H5182 C5167 0.961 . S
H5183 C5167 0.960 . S
C5184 C5185 1.391 . S
C5184 C5186 1.394 . S
C5184 H5200 0.931 . S
C5185 C5184 1.391 . S
C5185 C5189 1.376 . S
C5186 C5184 1.394 . S
C5186 C5187 1.369 . S
C5186 C5190 1.531 . S
C5187 C5186 1.369 . S
C5187 C5188 1.410 . S
C5187 C5195 1.503 . S
C5188 C5187 1.410 . S
C5188 C5189 1.392 . S
C5188 C5191 1.511 . S
C5189 C5185 1.376 . S
C5189 C5188 1.392 . S
C5189 H5201 0.929 . S
C5190 C5186 1.531 . S
C5190 H5202 0.960 . S
C5190 H5203 0.962 . S
C5190 H5204 0.960 . S
C5191 C5188 1.511 . S
C5191 H5205 0.961 . S
C5191 H5206 0.961 . S
C5191 H5207 0.961 . S
C5192 C5193 1.370 . S
C5192 C5194 1.363 . S
C5192 H5208 0.931 . S
C5193 C5192 1.370 . S
C5193 C5197 1.408 . S
C5194 C5192 1.363 . S
C5194 C5195 1.370 . S
C5194 C5198 1.524 . S
C5195 C5187 1.503 . S
C5195 C5194 1.370 . S
C5195 C5196 1.403 . S
C5196 C5195 1.403 . S
C5196 C5197 1.404 . S
C5196 C5199 1.539 . S
C5197 C5193 1.408 . S
C5197 C5196 1.404 . S
C5197 H5209 0.930 . S
C5198 C5194 1.524 . S
C5198 H5210 0.956 . S
C5198 H5211 0.961 . S
C5198 H5212 0.961 . S
C5199 C5196 1.539 . S
C5199 H5213 0.958 . S
C5199 H5214 0.961 . S
C5199 H5215 0.960 . S
H5200 C5184 0.931 . S
H5201 C5189 0.929 . S
H5202 C5190 0.960 . S
H5203 C5190 0.962 . S
H5204 C5190 0.960 . S
H5205 C5191 0.961 . S
H5206 C5191 0.961 . S
H5207 C5191 0.961 . S
H5208 C5192 0.931 . S
H5209 C5197 0.930 . S
H5210 C5198 0.956 . S
H5211 C5198 0.961 . S
H5212 C5198 0.961 . S
H5213 C5199 0.958 . S
H5214 C5199 0.961 . S
H5215 C5199 0.960 . S
C5216 C5217 1.391 . S
C5216 C5218 1.394 . S
C5216 H5232 0.931 . S
C5217 C5216 1.391 . S
C5217 C5221 1.376 . S
C5218 C5216 1.394 . S
C5218 C5219 1.369 . S
C5218 C5222 1.531 . S
C5219 C5218 1.369 . S
C5219 C5220 1.410 . S
C5219 C5227 1.503 . S
C5220 C5219 1.410 . S
C5220 C5221 1.392 . S
C5220 C5223 1.511 . S
C5221 C5217 1.376 . S
C5221 C5220 1.392 . S
C5221 H5233 0.929 . S
C5222 C5218 1.531 . S
C5222 H5234 0.960 . S
C5222 H5235 0.962 . S
C5222 H5236 0.960 . S
C5223 C5220 1.511 . S
C5223 H5237 0.961 . S
C5223 H5238 0.961 . S
C5223 H5239 0.961 . S
C5224 C5225 1.370 . S
C5224 C5226 1.363 . S
C5224 H5240 0.931 . S
C5225 C5224 1.370 . S
C5225 C5229 1.408 . S
C5226 C5224 1.363 . S
C5226 C5227 1.370 . S
C5226 C5230 1.524 . S
C5227 C5219 1.503 . S
C5227 C5226 1.370 . S
C5227 C5228 1.403 . S
C5228 C5227 1.403 . S
C5228 C5229 1.404 . S
C5228 C5231 1.539 . S
C5229 C5225 1.408 . S
C5229 C5228 1.404 . S
C5229 H5241 0.930 . S
C5230 C5226 1.524 . S
C5230 H5242 0.956 . S
C5230 H5243 0.961 . S
C5230 H5244 0.961 . S
C5231 C5228 1.539 . S
C5231 H5245 0.958 . S
C5231 H5246 0.961 . S
C5231 H5247 0.960 . S
H5232 C5216 0.931 . S
H5233 C5221 0.929 . S
H5234 C5222 0.960 . S
H5235 C5222 0.962 . S
H5236 C5222 0.960 . S
H5237 C5223 0.961 . S
H5238 C5223 0.961 . S
H5239 C5223 0.961 . S
H5240 C5224 0.931 . S
H5241 C5229 0.930 . S
H5242 C5230 0.956 . S
H5243 C5230 0.961 . S
H5244 C5230 0.961 . S
H5245 C5231 0.958 . S
H5246 C5231 0.961 . S
H5247 C5231 0.960 . S
C5248 C5249 1.391 . S
C5248 C5250 1.394 . S
C5248 H5264 0.931 . S
C5249 C5248 1.391 . S
C5249 C5253 1.376 . S
C5250 C5248 1.394 . S
C5250 C5251 1.369 . S
C5250 C5254 1.531 . S
C5251 C5250 1.369 . S
C5251 C5252 1.410 . S
C5251 C5259 1.503 . S
C5252 C5251 1.410 . S
C5252 C5253 1.392 . S
C5252 C5255 1.511 . S
C5253 C5249 1.376 . S
C5253 C5252 1.392 . S
C5253 H5265 0.929 . S
C5254 C5250 1.531 . S
C5254 H5266 0.960 . S
C5254 H5267 0.962 . S
C5254 H5268 0.960 . S
C5255 C5252 1.511 . S
C5255 H5269 0.961 . S
C5255 H5270 0.961 . S
C5255 H5271 0.961 . S
C5256 C5257 1.370 . S
C5256 C5258 1.363 . S
C5256 H5272 0.931 . S
C5257 C5256 1.370 . S
C5257 C5261 1.408 . S
C5258 C5256 1.363 . S
C5258 C5259 1.370 . S
C5258 C5262 1.524 . S
C5259 C5251 1.503 . S
C5259 C5258 1.370 . S
C5259 C5260 1.403 . S
C5260 C5259 1.403 . S
C5260 C5261 1.404 . S
C5260 C5263 1.539 . S
C5261 C5257 1.408 . S
C5261 C5260 1.404 . S
C5261 H5273 0.930 . S
C5262 C5258 1.524 . S
C5262 H5274 0.956 . S
C5262 H5275 0.961 . S
C5262 H5276 0.961 . S
C5263 C5260 1.539 . S
C5263 H5277 0.958 . S
C5263 H5278 0.961 . S
C5263 H5279 0.960 . S
H5264 C5248 0.931 . S
H5265 C5253 0.929 . S
H5266 C5254 0.960 . S
H5267 C5254 0.962 . S
H5268 C5254 0.960 . S
H5269 C5255 0.961 . S
H5270 C5255 0.961 . S
H5271 C5255 0.961 . S
H5272 C5256 0.931 . S
H5273 C5261 0.930 . S
H5274 C5262 0.956 . S
H5275 C5262 0.961 . S
H5276 C5262 0.961 . S
H5277 C5263 0.958 . S
H5278 C5263 0.961 . S
H5279 C5263 0.960 . S
C5280 C5281 1.391 . S
C5280 C5282 1.394 . S
C5280 H5296 0.931 . S
C5281 C5280 1.391 . S
C5281 C5285 1.376 . S
C5282 C5280 1.394 . S
C5282 C5283 1.369 . S
C5282 C5286 1.531 . S
C5283 C5282 1.369 . S
C5283 C5284 1.410 . S
C5283 C5291 1.503 1_565 S
C5284 C5283 1.410 . S
C5284 C5285 1.392 . S
C5284 C5287 1.511 . S
C5285 C5281 1.376 . S
C5285 C5284 1.392 . S
C5285 H5297 0.929 . S
C5286 C5282 1.531 . S
C5286 H5298 0.960 1_565 S
C5286 H5299 0.962 . S
C5286 H5300 0.960 . S
C5287 C5284 1.511 . S
C5287 H5301 0.961 . S
C5287 H5302 0.961 1_565 S
C5287 H5303 0.961 . S
C5288 C5289 1.370 . S
C5288 C5290 1.363 . S
C5288 H5304 0.931 . S
C5289 C5288 1.370 . S
C5289 C5293 1.408 . S
C5290 C5288 1.363 . S
C5290 C5291 1.370 . S
C5290 C5294 1.524 . S
C5291 C5283 1.503 1_545 S
C5291 C5290 1.370 . S
C5291 C5292 1.403 . S
C5292 C5291 1.403 . S
C5292 C5293 1.404 . S
C5292 C5295 1.539 . S
C5293 C5289 1.408 . S
C5293 C5292 1.404 . S
C5293 H5305 0.930 . S
C5294 C5290 1.524 . S
C5294 H5306 0.956 . S
C5294 H5307 0.938 1_545 S
C5294 H5308 0.961 . S
C5295 C5292 1.539 . S
C5295 H5309 0.958 . S
C5295 H5310 0.961 . S
C5295 H5311 0.960 . S
H5296 C5280 0.931 . S
H5297 C5285 0.929 . S
H5298 C5286 0.960 1_545 S
H5299 C5286 0.962 . S
H5300 C5286 0.960 . S
H5301 C5287 0.961 . S
H5302 C5287 0.961 1_545 S
H5303 C5287 0.961 . S
H5304 C5288 0.931 . S
H5305 C5293 0.930 . S
H5306 C5294 0.956 . S
H5307 C5294 0.938 1_565 S
H5308 C5294 0.961 . S
H5309 C5295 0.958 . S
H5310 C5295 0.961 . S
H5311 C5295 0.960 . S
C5312 C5313 1.394 1_554 S
C5312 C5314 1.394 . S
C5312 H5328 0.931 . S
C5313 C5312 1.394 1_556 S
C5313 C5317 1.373 . S
C5314 C5312 1.394 . S
C5314 C5315 1.369 1_554 S
C5314 C5318 1.531 . S
C5315 C5314 1.369 1_556 S
C5315 C5316 1.410 . S
C5315 C5323 1.503 . S
C5316 C5315 1.410 . S
C5316 C5317 1.392 . S
C5316 C5319 1.511 . S
C5317 C5313 1.373 . S
C5317 C5316 1.392 . S
C5317 H5329 0.929 . S
C5318 C5314 1.531 . S
C5318 H5330 0.960 . S
C5318 H5331 0.962 . S
C5318 H5332 0.960 . S
C5319 C5316 1.511 . S
C5319 H5333 0.961 . S
C5319 H5334 0.961 . S
C5319 H5335 0.961 . S
C5320 C5321 1.370 1_554 S
C5320 C5322 1.363 . S
C5320 H5336 0.931 . S
C5321 C5320 1.370 1_556 S
C5321 C5325 1.408 . S
C5322 C5320 1.363 . S
C5322 C5323 1.370 1_554 S
C5322 C5326 1.524 . S
C5323 C5315 1.503 . S
C5323 C5322 1.370 1_556 S
C5323 C5324 1.403 . S
C5324 C5323 1.403 . S
C5324 C5325 1.404 . S
C5324 C5327 1.539 . S
C5325 C5321 1.408 . S
C5325 C5324 1.404 . S
C5325 H5337 0.930 . S
C5326 C5322 1.524 . S
C5326 H5338 0.956 . S
C5326 H5339 0.961 . S
C5326 H5340 0.961 . S
C5327 C5324 1.539 . S
C5327 H5341 0.958 . S
C5327 H5342 0.961 . S
C5327 H5343 0.960 . S
H5328 C5312 0.931 . S
H5329 C5317 0.929 . S
H5330 C5318 0.960 . S
H5331 C5318 0.962 . S
H5332 C5318 0.960 . S
H5333 C5319 0.961 . S
H5334 C5319 0.961 . S
H5335 C5319 0.961 . S
H5336 C5320 0.931 . S
H5337 C5325 0.930 . S
H5338 C5326 0.956 . S
H5339 C5326 0.961 . S
H5340 C5326 0.961 . S
H5341 C5327 0.958 . S
H5342 C5327 0.961 . S
H5343 C5327 0.960 . S
C5344 C5345 1.391 . S
C5344 C5346 1.394 . S
C5344 H5360 0.931 . S
C5345 C5344 1.391 . S
C5345 C5349 1.376 . S
C5346 C5344 1.394 . S
C5346 C5347 1.369 . S
C5346 C5350 1.531 . S
C5347 C5346 1.369 . S
C5347 C5348 1.410 . S
C5347 C5355 1.503 1_545 S
C5348 C5347 1.410 . S
C5348 C5349 1.392 . S
C5348 C5351 1.511 1_455 S
C5349 C5345 1.376 . S
C5349 C5348 1.392 . S
C5349 H5361 0.929 1_455 S
C5350 C5346 1.531 . S
C5350 H5362 0.960 1_545 S
C5350 H5363 0.962 . S
C5350 H5364 0.960 . S
C5351 C5348 1.511 1_655 S
C5351 H5365 0.961 . S
C5351 H5366 0.936 1_545 S
C5351 H5367 0.961 . S
C5352 C5353 1.370 . S
C5352 C5354 1.363 . S
C5352 H5368 0.931 . S
C5353 C5352 1.370 . S
C5353 C5357 1.408 1_455 S
C5354 C5352 1.363 . S
C5354 C5355 1.370 . S
C5354 C5358 1.524 . S
C5355 C5347 1.503 1_565 S
C5355 C5354 1.370 . S
C5355 C5356 1.403 1_455 S
C5356 C5355 1.403 1_655 S
C5356 C5357 1.404 . S
C5356 C5359 1.539 . S
C5357 C5353 1.408 1_655 S
C5357 C5356 1.404 . S
C5357 H5369 0.930 . S
C5358 C5354 1.524 . S
C5358 H5370 0.954 1_565 S
C5358 H5371 0.961 1_565 S
C5358 H5372 0.961 . S
C5359 C5356 1.539 . S
C5359 H5373 0.958 . S
C5359 H5374 0.961 . S
C5359 H5375 0.914 1_565 S
H5360 C5344 0.931 . S
H5361 C5349 0.929 1_655 S
H5362 C5350 0.960 1_565 S
H5363 C5350 0.962 . S
H5364 C5350 0.960 . S
H5365 C5351 0.961 . S
H5366 C5351 0.936 1_565 S
H5367 C5351 0.961 . S
H5368 C5352 0.931 . S
H5369 C5357 0.930 . S
H5370 C5358 0.954 1_545 S
H5371 C5358 0.961 1_545 S
H5372 C5358 0.961 . S
H5373 C5359 0.958 . S
H5374 C5359 0.961 . S
H5375 C5359 0.914 1_545 S
C5376 C5377 1.391 . S
C5376 C5378 1.394 . S
C5376 H5392 0.931 . S
C5377 C5376 1.391 . S
C5377 C5381 1.376 . S
C5378 C5376 1.394 . S
C5378 C5379 1.369 . S
C5378 C5382 1.531 . S
C5379 C5378 1.369 . S
C5379 C5380 1.410 . S
C5379 C5387 1.503 . S
C5380 C5379 1.410 . S
C5380 C5381 1.392 . S
C5380 C5383 1.511 . S
C5381 C5377 1.376 . S
C5381 C5380 1.392 . S
C5381 H5393 0.929 . S
C5382 C5378 1.531 . S
C5382 H5394 0.960 . S
C5382 H5395 0.962 . S
C5382 H5396 0.960 . S
C5383 C5380 1.511 . S
C5383 H5397 0.961 . S
C5383 H5398 0.961 . S
C5383 H5399 0.961 . S
C5384 C5385 1.370 . S
C5384 C5386 1.363 . S
C5384 H5400 0.931 . S
C5385 C5384 1.370 . S
C5385 C5389 1.408 . S
C5386 C5384 1.363 . S
C5386 C5387 1.370 . S
C5386 C5390 1.524 . S
C5387 C5379 1.503 . S
C5387 C5386 1.370 . S
C5387 C5388 1.403 . S
C5388 C5387 1.403 . S
C5388 C5389 1.404 . S
C5388 C5391 1.539 . S
C5389 C5385 1.408 . S
C5389 C5388 1.404 . S
C5389 H5401 0.930 . S
C5390 C5386 1.524 . S
C5390 H5402 0.956 . S
C5390 H5403 0.961 . S
C5390 H5404 0.961 . S
C5391 C5388 1.539 . S
C5391 H5405 0.958 . S
C5391 H5406 0.961 . S
C5391 H5407 0.960 . S
H5392 C5376 0.931 . S
H5393 C5381 0.929 . S
H5394 C5382 0.960 . S
H5395 C5382 0.962 . S
H5396 C5382 0.960 . S
H5397 C5383 0.961 . S
H5398 C5383 0.961 . S
H5399 C5383 0.961 . S
H5400 C5384 0.931 . S
H5401 C5389 0.930 . S
H5402 C5390 0.956 . S
H5403 C5390 0.961 . S
H5404 C5390 0.961 . S
H5405 C5391 0.958 . S
H5406 C5391 0.961 . S
H5407 C5391 0.960 . S
C5408 C5409 1.391 . S
C5408 C5410 1.394 . S
C5408 H5424 0.931 . S
C5409 C5408 1.391 . S
C5409 C5413 1.376 . S
C5410 C5408 1.394 . S
C5410 C5411 1.369 . S
C5410 C5414 1.531 . S
C5411 C5410 1.369 . S
C5411 C5412 1.410 . S
C5411 C5419 1.503 1_554 S
C5412 C5411 1.410 . S
C5412 C5413 1.392 . S
C5412 C5415 1.511 . S
C5413 C5409 1.376 . S
C5413 C5412 1.392 . S
C5413 H5425 0.929 . S
C5414 C5410 1.531 . S
C5414 H5426 0.928 1_554 S
C5414 H5427 0.962 . S
C5414 H5428 0.960 . S
C5415 C5412 1.511 . S
C5415 H5429 0.961 . S
C5415 H5430 0.921 1_554 S
C5415 H5431 0.961 . S
C5416 C5417 1.370 . S
C5416 C5418 1.363 . S
C5416 H5432 0.931 . S
C5417 C5416 1.370 . S
C5417 C5421 1.408 . S
C5418 C5416 1.363 . S
C5418 C5419 1.370 . S
C5418 C5422 1.524 . S
C5419 C5411 1.503 1_556 S
C5419 C5418 1.370 . S
C5419 C5420 1.403 . S
C5420 C5419 1.403 . S
C5420 C5421 1.404 . S
C5420 C5423 1.539 . S
C5421 C5417 1.408 . S
C5421 C5420 1.404 . S
C5421 H5433 0.930 . S
C5422 C5418 1.524 . S
C5422 H5434 0.973 . S
C5422 H5435 0.961 1_556 S
C5422 H5436 0.961 . S
C5423 C5420 1.539 . S
C5423 H5437 0.958 . S
C5423 H5438 0.961 . S
C5423 H5439 0.960 1_556 S
H5424 C5408 0.931 . S
H5425 C5413 0.929 . S
H5426 C5414 0.928 1_556 S
H5427 C5414 0.962 . S
H5428 C5414 0.960 . S
H5429 C5415 0.961 . S
H5430 C5415 0.921 1_556 S
H5431 C5415 0.961 . S
H5432 C5416 0.931 . S
H5433 C5421 0.930 . S
H5434 C5422 0.973 . S
H5435 C5422 0.961 1_554 S
H5436 C5422 0.961 . S
H5437 C5423 0.958 . S
H5438 C5423 0.961 . S
H5439 C5423 0.960 1_554 S
C5440 C5441 1.391 . S
C5440 C5442 1.394 . S
C5440 H5456 0.931 . S
C5441 C5440 1.391 . S
C5441 C5445 1.376 . S
C5442 C5440 1.394 . S
C5442 C5443 1.369 . S
C5442 C5446 1.531 . S
C5443 C5442 1.369 . S
C5443 C5444 1.410 . S
C5443 C5451 1.503 . S
C5444 C5443 1.410 . S
C5444 C5445 1.392 . S
C5444 C5447 1.511 . S
C5445 C5441 1.376 . S
C5445 C5444 1.392 . S
C5445 H5457 0.929 . S
C5446 C5442 1.531 . S
C5446 H5458 0.960 . S
C5446 H5459 0.962 . S
C5446 H5460 0.960 . S
C5447 C5444 1.511 . S
C5447 H5461 0.961 . S
C5447 H5462 0.961 . S
C5447 H5463 0.961 . S
C5448 C5449 1.370 . S
C5448 C5450 1.363 . S
C5448 H5464 0.931 . S
C5449 C5448 1.370 . S
C5449 C5453 1.408 . S
C5450 C5448 1.363 . S
C5450 C5451 1.370 . S
C5450 C5454 1.524 . S
C5451 C5443 1.503 . S
C5451 C5450 1.370 . S
C5451 C5452 1.403 . S
C5452 C5451 1.403 . S
C5452 C5453 1.404 . S
C5452 C5455 1.539 . S
C5453 C5449 1.408 . S
C5453 C5452 1.404 . S
C5453 H5465 0.930 . S
C5454 C5450 1.524 . S
C5454 H5466 0.956 . S
C5454 H5467 0.961 . S
C5454 H5468 0.961 . S
C5455 C5452 1.539 . S
C5455 H5469 0.958 . S
C5455 H5470 0.961 . S
C5455 H5471 0.960 . S
H5456 C5440 0.931 . S
H5457 C5445 0.929 . S
H5458 C5446 0.960 . S
H5459 C5446 0.962 . S
H5460 C5446 0.960 . S
H5461 C5447 0.961 . S
H5462 C5447 0.961 . S
H5463 C5447 0.961 . S
H5464 C5448 0.931 . S
H5465 C5453 0.930 . S
H5466 C5454 0.956 . S
H5467 C5454 0.961 . S
H5468 C5454 0.961 . S
H5469 C5455 0.958 . S
H5470 C5455 0.961 . S
H5471 C5455 0.960 . S
C5472 C5473 1.391 . S
C5472 C5474 1.394 . S
C5472 H5488 0.931 . S
C5473 C5472 1.391 . S
C5473 C5477 1.376 . S
C5474 C5472 1.394 . S
C5474 C5475 1.369 . S
C5474 C5478 1.531 . S
C5475 C5474 1.369 . S
C5475 C5476 1.410 . S
C5475 C5483 1.503 . S
C5476 C5475 1.410 . S
C5476 C5477 1.392 . S
C5476 C5479 1.511 . S
C5477 C5473 1.376 . S
C5477 C5476 1.392 . S
C5477 H5489 0.929 . S
C5478 C5474 1.531 . S
C5478 H5490 0.960 . S
C5478 H5491 0.962 . S
C5478 H5492 0.960 . S
C5479 C5476 1.511 . S
C5479 H5493 0.961 . S
C5479 H5494 0.961 . S
C5479 H5495 0.961 . S
C5480 C5481 1.370 . S
C5480 C5482 1.363 . S
C5480 H5496 0.931 . S
C5481 C5480 1.370 . S
C5481 C5485 1.408 . S
C5482 C5480 1.363 . S
C5482 C5483 1.370 . S
C5482 C5486 1.524 . S
C5483 C5475 1.503 . S
C5483 C5482 1.370 . S
C5483 C5484 1.403 . S
C5484 C5483 1.403 . S
C5484 C5485 1.404 . S
C5484 C5487 1.539 . S
C5485 C5481 1.408 . S
C5485 C5484 1.404 . S
C5485 H5497 0.930 . S
C5486 C5482 1.524 . S
C5486 H5498 0.956 . S
C5486 H5499 0.961 . S
C5486 H5500 0.961 . S
C5487 C5484 1.539 . S
C5487 H5501 0.958 . S
C5487 H5502 0.961 . S
C5487 H5503 0.960 . S
H5488 C5472 0.931 . S
H5489 C5477 0.929 . S
H5490 C5478 0.960 . S
H5491 C5478 0.962 . S
H5492 C5478 0.960 . S
H5493 C5479 0.961 . S
H5494 C5479 0.961 . S
H5495 C5479 0.961 . S
H5496 C5480 0.931 . S
H5497 C5485 0.930 . S
H5498 C5486 0.956 . S
H5499 C5486 0.961 . S
H5500 C5486 0.961 . S
H5501 C5487 0.958 . S
H5502 C5487 0.961 . S
H5503 C5487 0.960 . S
C5504 C5505 1.391 . S
C5504 C5506 1.394 . S
C5504 H5520 0.931 . S
C5505 C5504 1.391 . S
C5505 C5509 1.376 . S
C5506 C5504 1.394 . S
C5506 C5507 1.369 . S
C5506 C5510 1.531 . S
C5507 C5506 1.369 . S
C5507 C5508 1.410 . S
C5507 C5515 1.503 . S
C5508 C5507 1.410 . S
C5508 C5509 1.392 . S
C5508 C5511 1.511 . S
C5509 C5505 1.376 . S
C5509 C5508 1.392 . S
C5509 H5521 0.929 . S
C5510 C5506 1.531 . S
C5510 H5522 0.960 . S
C5510 H5523 0.962 . S
C5510 H5524 0.960 . S
C5511 C5508 1.511 . S
C5511 H5525 0.961 . S
C5511 H5526 0.961 . S
C5511 H5527 0.961 . S
C5512 C5513 1.370 . S
C5512 C5514 1.363 . S
C5512 H5528 0.931 . S
C5513 C5512 1.370 . S
C5513 C5517 1.408 . S
C5514 C5512 1.363 . S
C5514 C5515 1.370 . S
C5514 C5518 1.524 . S
C5515 C5507 1.503 . S
C5515 C5514 1.370 . S
C5515 C5516 1.403 . S
C5516 C5515 1.403 . S
C5516 C5517 1.404 . S
C5516 C5519 1.539 . S
C5517 C5513 1.408 . S
C5517 C5516 1.404 . S
C5517 H5529 0.930 . S
C5518 C5514 1.524 . S
C5518 H5530 0.956 . S
C5518 H5531 0.961 . S
C5518 H5532 0.961 . S
C5519 C5516 1.539 . S
C5519 H5533 0.958 . S
C5519 H5534 0.961 . S
C5519 H5535 0.960 . S
H5520 C5504 0.931 . S
H5521 C5509 0.929 . S
H5522 C5510 0.960 . S
H5523 C5510 0.962 . S
H5524 C5510 0.960 . S
H5525 C5511 0.961 . S
H5526 C5511 0.961 . S
H5527 C5511 0.961 . S
H5528 C5512 0.931 . S
H5529 C5517 0.930 . S
H5530 C5518 0.956 . S
H5531 C5518 0.961 . S
H5532 C5518 0.961 . S
H5533 C5519 0.958 . S
H5534 C5519 0.961 . S
H5535 C5519 0.960 . S
C5536 C5537 1.391 . S
C5536 C5538 1.394 . S
C5536 H5552 0.931 . S
C5537 C5536 1.391 . S
C5537 C5541 1.376 . S
C5538 C5536 1.394 . S
C5538 C5539 1.369 . S
C5538 C5542 1.531 . S
C5539 C5538 1.369 . S
C5539 C5540 1.410 . S
C5539 C5547 1.503 . S
C5540 C5539 1.410 . S
C5540 C5541 1.392 . S
C5540 C5543 1.511 . S
C5541 C5537 1.376 . S
C5541 C5540 1.392 . S
C5541 H5553 0.929 . S
C5542 C5538 1.531 . S
C5542 H5554 0.960 . S
C5542 H5555 0.962 . S
C5542 H5556 0.960 . S
C5543 C5540 1.511 . S
C5543 H5557 0.961 . S
C5543 H5558 0.961 . S
C5543 H5559 0.961 . S
C5544 C5545 1.370 . S
C5544 C5546 1.363 . S
C5544 H5560 0.931 . S
C5545 C5544 1.370 . S
C5545 C5549 1.408 . S
C5546 C5544 1.363 . S
C5546 C5547 1.370 . S
C5546 C5550 1.524 . S
C5547 C5539 1.503 . S
C5547 C5546 1.370 . S
C5547 C5548 1.403 . S
C5548 C5547 1.403 . S
C5548 C5549 1.404 . S
C5548 C5551 1.539 . S
C5549 C5545 1.408 . S
C5549 C5548 1.404 . S
C5549 H5561 0.930 . S
C5550 C5546 1.524 . S
C5550 H5562 0.956 . S
C5550 H5563 0.961 . S
C5550 H5564 0.961 . S
C5551 C5548 1.539 . S
C5551 H5565 0.958 . S
C5551 H5566 0.961 . S
C5551 H5567 0.960 . S
H5552 C5536 0.931 . S
H5553 C5541 0.929 . S
H5554 C5542 0.960 . S
H5555 C5542 0.962 . S
H5556 C5542 0.960 . S
H5557 C5543 0.961 . S
H5558 C5543 0.961 . S
H5559 C5543 0.961 . S
H5560 C5544 0.931 . S
H5561 C5549 0.930 . S
H5562 C5550 0.956 . S
H5563 C5550 0.961 . S
H5564 C5550 0.961 . S
H5565 C5551 0.958 . S
H5566 C5551 0.961 . S
H5567 C5551 0.960 . S
C5568 C5569 1.391 . S
C5568 C5570 1.394 . S
C5568 H5584 0.931 . S
C5569 C5568 1.391 . S
C5569 C5573 1.376 . S
C5570 C5568 1.394 . S
C5570 C5571 1.369 . S
C5570 C5574 1.531 . S
C5571 C5570 1.369 . S
C5571 C5572 1.410 . S
C5571 C5579 1.503 . S
C5572 C5571 1.410 . S
C5572 C5573 1.392 . S
C5572 C5575 1.511 . S
C5573 C5569 1.376 . S
C5573 C5572 1.392 . S
C5573 H5585 0.929 . S
C5574 C5570 1.531 . S
C5574 H5586 0.960 . S
C5574 H5587 0.962 . S
C5574 H5588 0.960 . S
C5575 C5572 1.511 . S
C5575 H5589 0.961 . S
C5575 H5590 0.961 . S
C5575 H5591 0.961 . S
C5576 C5577 1.370 . S
C5576 C5578 1.363 . S
C5576 H5592 0.931 . S
C5577 C5576 1.370 . S
C5577 C5581 1.408 . S
C5578 C5576 1.363 . S
C5578 C5579 1.370 . S
C5578 C5582 1.524 . S
C5579 C5571 1.503 . S
C5579 C5578 1.370 . S
C5579 C5580 1.403 . S
C5580 C5579 1.403 . S
C5580 C5581 1.404 . S
C5580 C5583 1.539 . S
C5581 C5577 1.408 . S
C5581 C5580 1.404 . S
C5581 H5593 0.930 . S
C5582 C5578 1.524 . S
C5582 H5594 0.956 . S
C5582 H5595 0.961 . S
C5582 H5596 0.961 . S
C5583 C5580 1.539 . S
C5583 H5597 0.958 . S
C5583 H5598 0.961 . S
C5583 H5599 0.960 . S
H5584 C5568 0.931 . S
H5585 C5573 0.929 . S
H5586 C5574 0.960 . S
H5587 C5574 0.962 . S
H5588 C5574 0.960 . S
H5589 C5575 0.961 . S
H5590 C5575 0.961 . S
H5591 C5575 0.961 . S
H5592 C5576 0.931 . S
H5593 C5581 0.930 . S
H5594 C5582 0.956 . S
H5595 C5582 0.961 . S
H5596 C5582 0.961 . S
H5597 C5583 0.958 . S
H5598 C5583 0.961 . S
H5599 C5583 0.960 . S
C5600 C5601 1.391 . S
C5600 C5602 1.394 . S
C5600 H5616 0.931 . S
C5601 C5600 1.391 . S
C5601 C5605 1.376 . S
C5602 C5600 1.394 . S
C5602 C5603 1.369 . S
C5602 C5606 1.531 . S
C5603 C5602 1.369 . S
C5603 C5604 1.410 . S
C5603 C5611 1.503 . S
C5604 C5603 1.410 . S
C5604 C5605 1.392 . S
C5604 C5607 1.511 . S
C5605 C5601 1.376 . S
C5605 C5604 1.392 . S
C5605 H5617 0.929 . S
C5606 C5602 1.531 . S
C5606 H5618 0.960 . S
C5606 H5619 0.962 . S
C5606 H5620 0.960 . S
C5607 C5604 1.511 . S
C5607 H5621 0.961 . S
C5607 H5622 0.961 . S
C5607 H5623 0.961 . S
C5608 C5609 1.370 . S
C5608 C5610 1.363 . S
C5608 H5624 0.931 . S
C5609 C5608 1.370 . S
C5609 C5613 1.408 . S
C5610 C5608 1.363 . S
C5610 C5611 1.370 . S
C5610 C5614 1.524 . S
C5611 C5603 1.503 . S
C5611 C5610 1.370 . S
C5611 C5612 1.403 . S
C5612 C5611 1.403 . S
C5612 C5613 1.404 . S
C5612 C5615 1.539 . S
C5613 C5609 1.408 . S
C5613 C5612 1.404 . S
C5613 H5625 0.930 . S
C5614 C5610 1.524 . S
C5614 H5626 0.956 . S
C5614 H5627 0.961 . S
C5614 H5628 0.961 . S
C5615 C5612 1.539 . S
C5615 H5629 0.958 . S
C5615 H5630 0.961 . S
C5615 H5631 0.960 . S
H5616 C5600 0.931 . S
H5617 C5605 0.929 . S
H5618 C5606 0.960 . S
H5619 C5606 0.962 . S
H5620 C5606 0.960 . S
H5621 C5607 0.961 . S
H5622 C5607 0.961 . S
H5623 C5607 0.961 . S
H5624 C5608 0.931 . S
H5625 C5613 0.930 . S
H5626 C5614 0.956 . S
H5627 C5614 0.961 . S
H5628 C5614 0.961 . S
H5629 C5615 0.958 . S
H5630 C5615 0.961 . S
H5631 C5615 0.960 . S
C5632 C5633 1.391 . S
C5632 C5634 1.394 . S
C5632 H5648 0.931 . S
C5633 C5632 1.391 . S
C5633 C5637 1.376 . S
C5634 C5632 1.394 . S
C5634 C5635 1.369 . S
C5634 C5638 1.531 . S
C5635 C5634 1.369 . S
C5635 C5636 1.410 . S
C5635 C5643 1.503 . S
C5636 C5635 1.410 . S
C5636 C5637 1.392 . S
C5636 C5639 1.511 . S
C5637 C5633 1.376 . S
C5637 C5636 1.392 . S
C5637 H5649 0.929 . S
C5638 C5634 1.531 . S
C5638 H5650 0.960 . S
C5638 H5651 0.962 . S
C5638 H5652 0.960 . S
C5639 C5636 1.511 . S
C5639 H5653 0.961 . S
C5639 H5654 0.961 . S
C5639 H5655 0.961 . S
C5640 C5641 1.370 . S
C5640 C5642 1.363 . S
C5640 H5656 0.931 . S
C5641 C5640 1.370 . S
C5641 C5645 1.408 . S
C5642 C5640 1.363 . S
C5642 C5643 1.370 . S
C5642 C5646 1.524 . S
C5643 C5635 1.503 . S
C5643 C5642 1.370 . S
C5643 C5644 1.403 . S
C5644 C5643 1.403 . S
C5644 C5645 1.404 . S
C5644 C5647 1.539 . S
C5645 C5641 1.408 . S
C5645 C5644 1.404 . S
C5645 H5657 0.930 . S
C5646 C5642 1.524 . S
C5646 H5658 0.956 . S
C5646 H5659 0.961 . S
C5646 H5660 0.961 . S
C5647 C5644 1.539 . S
C5647 H5661 0.958 . S
C5647 H5662 0.961 . S
C5647 H5663 0.960 . S
H5648 C5632 0.931 . S
H5649 C5637 0.929 . S
H5650 C5638 0.960 . S
H5651 C5638 0.962 . S
H5652 C5638 0.960 . S
H5653 C5639 0.961 . S
H5654 C5639 0.961 . S
H5655 C5639 0.961 . S
H5656 C5640 0.931 . S
H5657 C5645 0.930 . S
H5658 C5646 0.956 . S
H5659 C5646 0.961 . S
H5660 C5646 0.961 . S
H5661 C5647 0.958 . S
H5662 C5647 0.961 . S
H5663 C5647 0.960 . S
C5664 C5665 1.391 . S
C5664 C5666 1.394 . S
C5664 H5680 0.931 . S
C5665 C5664 1.391 . S
C5665 C5669 1.376 . S
C5666 C5664 1.394 . S
C5666 C5667 1.369 . S
C5666 C5670 1.531 . S
C5667 C5666 1.369 . S
C5667 C5668 1.410 . S
C5667 C5675 1.503 . S
C5668 C5667 1.410 . S
C5668 C5669 1.392 . S
C5668 C5671 1.511 . S
C5669 C5665 1.376 . S
C5669 C5668 1.392 . S
C5669 H5681 0.929 . S
C5670 C5666 1.531 . S
C5670 H5682 0.960 . S
C5670 H5683 0.962 . S
C5670 H5684 0.960 . S
C5671 C5668 1.511 . S
C5671 H5685 0.961 . S
C5671 H5686 0.961 . S
C5671 H5687 0.961 . S
C5672 C5673 1.370 . S
C5672 C5674 1.363 . S
C5672 H5688 0.931 . S
C5673 C5672 1.370 . S
C5673 C5677 1.408 . S
C5674 C5672 1.363 . S
C5674 C5675 1.370 . S
C5674 C5678 1.524 . S
C5675 C5667 1.503 . S
C5675 C5674 1.370 . S
C5675 C5676 1.403 . S
C5676 C5675 1.403 . S
C5676 C5677 1.404 . S
C5676 C5679 1.539 . S
C5677 C5673 1.408 . S
C5677 C5676 1.404 . S
C5677 H5689 0.930 . S
C5678 C5674 1.524 . S
C5678 H5690 0.956 . S
C5678 H5691 0.961 . S
C5678 H5692 0.961 . S
C5679 C5676 1.539 . S
C5679 H5693 0.958 . S
C5679 H5694 0.961 . S
C5679 H5695 0.960 . S
H5680 C5664 0.931 . S
H5681 C5669 0.929 . S
H5682 C5670 0.960 . S
H5683 C5670 0.962 . S
H5684 C5670 0.960 . S
H5685 C5671 0.961 . S
H5686 C5671 0.961 . S
H5687 C5671 0.961 . S
H5688 C5672 0.931 . S
H5689 C5677 0.930 . S
H5690 C5678 0.956 . S
H5691 C5678 0.961 . S
H5692 C5678 0.961 . S
H5693 C5679 0.958 . S
H5694 C5679 0.961 . S
H5695 C5679 0.960 . S
C5696 C5697 1.391 . S
C5696 C5698 1.394 . S
C5696 H5712 0.931 . S
C5697 C5696 1.391 . S
C5697 C5701 1.376 . S
C5698 C5696 1.394 . S
C5698 C5699 1.369 . S
C5698 C5702 1.531 . S
C5699 C5698 1.369 . S
C5699 C5700 1.410 . S
C5699 C5707 1.503 . S
C5700 C5699 1.410 . S
C5700 C5701 1.392 . S
C5700 C5703 1.511 . S
C5701 C5697 1.376 . S
C5701 C5700 1.392 . S
C5701 H5713 0.929 . S
C5702 C5698 1.531 . S
C5702 H5714 0.960 . S
C5702 H5715 0.962 . S
C5702 H5716 0.960 . S
C5703 C5700 1.511 . S
C5703 H5717 0.961 . S
C5703 H5718 0.961 . S
C5703 H5719 0.961 . S
C5704 C5705 1.370 . S
C5704 C5706 1.363 . S
C5704 H5720 0.931 . S
C5705 C5704 1.370 . S
C5705 C5709 1.408 . S
C5706 C5704 1.363 . S
C5706 C5707 1.370 . S
C5706 C5710 1.524 . S
C5707 C5699 1.503 . S
C5707 C5706 1.370 . S
C5707 C5708 1.403 . S
C5708 C5707 1.403 . S
C5708 C5709 1.404 . S
C5708 C5711 1.539 . S
C5709 C5705 1.408 . S
C5709 C5708 1.404 . S
C5709 H5721 0.930 . S
C5710 C5706 1.524 . S
C5710 H5722 0.956 . S
C5710 H5723 0.961 . S
C5710 H5724 0.961 . S
C5711 C5708 1.539 . S
C5711 H5725 0.958 . S
C5711 H5726 0.961 . S
C5711 H5727 0.960 . S
H5712 C5696 0.931 . S
H5713 C5701 0.929 . S
H5714 C5702 0.960 . S
H5715 C5702 0.962 . S
H5716 C5702 0.960 . S
H5717 C5703 0.961 . S
H5718 C5703 0.961 . S
H5719 C5703 0.961 . S
H5720 C5704 0.931 . S
H5721 C5709 0.930 . S
H5722 C5710 0.956 . S
H5723 C5710 0.961 . S
H5724 C5710 0.961 . S
H5725 C5711 0.958 . S
H5726 C5711 0.961 . S
H5727 C5711 0.960 . S
C5728 C5729 1.391 . S
C5728 C5730 1.394 . S
C5728 H5744 0.931 . S
C5729 C5728 1.391 . S
C5729 C5733 1.376 . S
C5730 C5728 1.394 . S
C5730 C5731 1.369 . S
C5730 C5734 1.531 . S
C5731 C5730 1.369 . S
C5731 C5732 1.410 . S
C5731 C5739 1.503 . S
C5732 C5731 1.410 . S
C5732 C5733 1.392 . S
C5732 C5735 1.511 . S
C5733 C5729 1.376 . S
C5733 C5732 1.392 . S
C5733 H5745 0.929 . S
C5734 C5730 1.531 . S
C5734 H5746 0.960 . S
C5734 H5747 0.962 . S
C5734 H5748 0.960 . S
C5735 C5732 1.511 . S
C5735 H5749 0.961 . S
C5735 H5750 0.961 . S
C5735 H5751 0.961 . S
C5736 C5737 1.370 . S
C5736 C5738 1.363 . S
C5736 H5752 0.931 . S
C5737 C5736 1.370 . S
C5737 C5741 1.408 . S
C5738 C5736 1.363 . S
C5738 C5739 1.370 . S
C5738 C5742 1.524 . S
C5739 C5731 1.503 . S
C5739 C5738 1.370 . S
C5739 C5740 1.403 . S
C5740 C5739 1.403 . S
C5740 C5741 1.404 . S
C5740 C5743 1.539 . S
C5741 C5737 1.408 . S
C5741 C5740 1.404 . S
C5741 H5753 0.930 . S
C5742 C5738 1.524 . S
C5742 H5754 0.956 . S
C5742 H5755 0.961 . S
C5742 H5756 0.961 . S
C5743 C5740 1.539 . S
C5743 H5757 0.958 . S
C5743 H5758 0.961 . S
C5743 H5759 0.960 . S
H5744 C5728 0.931 . S
H5745 C5733 0.929 . S
H5746 C5734 0.960 . S
H5747 C5734 0.962 . S
H5748 C5734 0.960 . S
H5749 C5735 0.961 . S
H5750 C5735 0.961 . S
H5751 C5735 0.961 . S
H5752 C5736 0.931 . S
H5753 C5741 0.930 . S
H5754 C5742 0.956 . S
H5755 C5742 0.961 . S
H5756 C5742 0.961 . S
H5757 C5743 0.958 . S
H5758 C5743 0.961 . S
H5759 C5743 0.960 . S
C5760 C5761 1.391 . S
C5760 C5762 1.394 . S
C5760 H5776 0.931 . S
C5761 C5760 1.391 . S
C5761 C5765 1.376 . S
C5762 C5760 1.394 . S
C5762 C5763 1.369 . S
C5762 C5766 1.531 . S
C5763 C5762 1.369 . S
C5763 C5764 1.410 . S
C5763 C5771 1.503 . S
C5764 C5763 1.410 . S
C5764 C5765 1.392 . S
C5764 C5767 1.511 . S
C5765 C5761 1.376 . S
C5765 C5764 1.392 . S
C5765 H5777 0.929 . S
C5766 C5762 1.531 . S
C5766 H5778 0.960 . S
C5766 H5779 0.962 . S
C5766 H5780 0.960 . S
C5767 C5764 1.511 . S
C5767 H5781 0.961 . S
C5767 H5782 0.961 . S
C5767 H5783 0.961 . S
C5768 C5769 1.370 . S
C5768 C5770 1.363 . S
C5768 H5784 0.931 . S
C5769 C5768 1.370 . S
C5769 C5773 1.408 . S
C5770 C5768 1.363 . S
C5770 C5771 1.370 . S
C5770 C5774 1.524 . S
C5771 C5763 1.503 . S
C5771 C5770 1.370 . S
C5771 C5772 1.403 . S
C5772 C5771 1.403 . S
C5772 C5773 1.404 . S
C5772 C5775 1.539 . S
C5773 C5769 1.408 . S
C5773 C5772 1.404 . S
C5773 H5785 0.930 . S
C5774 C5770 1.524 . S
C5774 H5786 0.956 . S
C5774 H5787 0.961 . S
C5774 H5788 0.961 . S
C5775 C5772 1.539 . S
C5775 H5789 0.958 . S
C5775 H5790 0.961 . S
C5775 H5791 0.960 . S
H5776 C5760 0.931 . S
H5777 C5765 0.929 . S
H5778 C5766 0.960 . S
H5779 C5766 0.962 . S
H5780 C5766 0.960 . S
H5781 C5767 0.961 . S
H5782 C5767 0.961 . S
H5783 C5767 0.961 . S
H5784 C5768 0.931 . S
H5785 C5773 0.930 . S
H5786 C5774 0.956 . S
H5787 C5774 0.961 . S
H5788 C5774 0.961 . S
H5789 C5775 0.958 . S
H5790 C5775 0.961 . S
H5791 C5775 0.960 . S
C5792 C5793 1.391 . S
C5792 C5794 1.394 . S
C5792 H5808 0.931 . S
C5793 C5792 1.391 . S
C5793 C5797 1.376 . S
C5794 C5792 1.394 . S
C5794 C5795 1.369 . S
C5794 C5798 1.531 . S
C5795 C5794 1.369 . S
C5795 C5796 1.410 . S
C5795 C5803 1.503 . S
C5796 C5795 1.410 . S
C5796 C5797 1.392 . S
C5796 C5799 1.511 . S
C5797 C5793 1.376 . S
C5797 C5796 1.392 . S
C5797 H5809 0.929 . S
C5798 C5794 1.531 . S
C5798 H5810 0.960 . S
C5798 H5811 0.962 . S
C5798 H5812 0.960 . S
C5799 C5796 1.511 . S
C5799 H5813 0.961 . S
C5799 H5814 0.961 . S
C5799 H5815 0.961 . S
C5800 C5801 1.370 . S
C5800 C5802 1.363 . S
C5800 H5816 0.931 . S
C5801 C5800 1.370 . S
C5801 C5805 1.408 . S
C5802 C5800 1.363 . S
C5802 C5803 1.370 . S
C5802 C5806 1.524 . S
C5803 C5795 1.503 . S
C5803 C5802 1.370 . S
C5803 C5804 1.403 . S
C5804 C5803 1.403 . S
C5804 C5805 1.404 . S
C5804 C5807 1.539 . S
C5805 C5801 1.408 . S
C5805 C5804 1.404 . S
C5805 H5817 0.930 . S
C5806 C5802 1.524 . S
C5806 H5818 0.956 . S
C5806 H5819 0.961 . S
C5806 H5820 0.961 . S
C5807 C5804 1.539 . S
C5807 H5821 0.958 . S
C5807 H5822 0.961 . S
C5807 H5823 0.960 . S
H5808 C5792 0.931 . S
H5809 C5797 0.929 . S
H5810 C5798 0.960 . S
H5811 C5798 0.962 . S
H5812 C5798 0.960 . S
H5813 C5799 0.961 . S
H5814 C5799 0.961 . S
H5815 C5799 0.961 . S
H5816 C5800 0.931 . S
H5817 C5805 0.930 . S
H5818 C5806 0.956 . S
H5819 C5806 0.961 . S
H5820 C5806 0.961 . S
H5821 C5807 0.958 . S
H5822 C5807 0.961 . S
H5823 C5807 0.960 . S
C5824 C5825 1.391 . S
C5824 C5826 1.394 . S
C5824 H5840 0.931 . S
C5825 C5824 1.391 . S
C5825 C5829 1.376 . S
C5826 C5824 1.394 . S
C5826 C5827 1.369 . S
C5826 C5830 1.531 . S
C5827 C5826 1.369 . S
C5827 C5828 1.410 . S
C5827 C5835 1.503 . S
C5828 C5827 1.410 . S
C5828 C5829 1.392 . S
C5828 C5831 1.511 . S
C5829 C5825 1.376 . S
C5829 C5828 1.392 . S
C5829 H5841 0.929 . S
C5830 C5826 1.531 . S
C5830 H5842 0.960 . S
C5830 H5843 0.962 . S
C5830 H5844 0.960 . S
C5831 C5828 1.511 . S
C5831 H5845 0.961 . S
C5831 H5846 0.961 . S
C5831 H5847 0.961 . S
C5832 C5833 1.370 . S
C5832 C5834 1.363 . S
C5832 H5848 0.931 . S
C5833 C5832 1.370 . S
C5833 C5837 1.408 . S
C5834 C5832 1.363 . S
C5834 C5835 1.370 . S
C5834 C5838 1.524 . S
C5835 C5827 1.503 . S
C5835 C5834 1.370 . S
C5835 C5836 1.403 . S
C5836 C5835 1.403 . S
C5836 C5837 1.404 . S
C5836 C5839 1.539 . S
C5837 C5833 1.408 . S
C5837 C5836 1.404 . S
C5837 H5849 0.930 . S
C5838 C5834 1.524 . S
C5838 H5850 0.956 . S
C5838 H5851 0.961 . S
C5838 H5852 0.961 . S
C5839 C5836 1.539 . S
C5839 H5853 0.958 . S
C5839 H5854 0.961 . S
C5839 H5855 0.960 . S
H5840 C5824 0.931 . S
H5841 C5829 0.929 . S
H5842 C5830 0.960 . S
H5843 C5830 0.962 . S
H5844 C5830 0.960 . S
H5845 C5831 0.961 . S
H5846 C5831 0.961 . S
H5847 C5831 0.961 . S
H5848 C5832 0.931 . S
H5849 C5837 0.930 . S
H5850 C5838 0.956 . S
H5851 C5838 0.961 . S
H5852 C5838 0.961 . S
H5853 C5839 0.958 . S
H5854 C5839 0.961 . S
H5855 C5839 0.960 . S
C5856 C5857 1.391 . S
C5856 C5858 1.394 . S
C5856 H5872 0.931 . S
C5857 C5856 1.391 . S
C5857 C5861 1.376 . S
C5858 C5856 1.394 . S
C5858 C5859 1.369 . S
C5858 C5862 1.531 . S
C5859 C5858 1.369 . S
C5859 C5860 1.410 . S
C5859 C5867 1.503 . S
C5860 C5859 1.410 . S
C5860 C5861 1.392 . S
C5860 C5863 1.511 . S
C5861 C5857 1.376 . S
C5861 C5860 1.392 . S
C5861 H5873 0.929 . S
C5862 C5858 1.531 . S
C5862 H5874 0.960 . S
C5862 H5875 0.962 . S
C5862 H5876 0.960 . S
C5863 C5860 1.511 . S
C5863 H5877 0.961 . S
C5863 H5878 0.961 . S
C5863 H5879 0.961 . S
C5864 C5865 1.370 . S
C5864 C5866 1.363 . S
C5864 H5880 0.931 . S
C5865 C5864 1.370 . S
C5865 C5869 1.408 . S
C5866 C5864 1.363 . S
C5866 C5867 1.370 . S
C5866 C5870 1.524 . S
C5867 C5859 1.503 . S
C5867 C5866 1.370 . S
C5867 C5868 1.403 . S
C5868 C5867 1.403 . S
C5868 C5869 1.404 . S
C5868 C5871 1.539 . S
C5869 C5865 1.408 . S
C5869 C5868 1.404 . S
C5869 H5881 0.930 . S
C5870 C5866 1.524 . S
C5870 H5882 0.956 . S
C5870 H5883 0.961 . S
C5870 H5884 0.961 . S
C5871 C5868 1.539 . S
C5871 H5885 0.958 . S
C5871 H5886 0.961 . S
C5871 H5887 0.960 . S
H5872 C5856 0.931 . S
H5873 C5861 0.929 . S
H5874 C5862 0.960 . S
H5875 C5862 0.962 . S
H5876 C5862 0.960 . S
H5877 C5863 0.961 . S
H5878 C5863 0.961 . S
H5879 C5863 0.961 . S
H5880 C5864 0.931 . S
H5881 C5869 0.930 . S
H5882 C5870 0.956 . S
H5883 C5870 0.961 . S
H5884 C5870 0.961 . S
H5885 C5871 0.958 . S
H5886 C5871 0.961 . S
H5887 C5871 0.960 . S
C5888 C5889 1.391 . S
C5888 C5890 1.394 . S
C5888 H5904 0.931 . S
C5889 C5888 1.391 . S
C5889 C5893 1.376 . S
C5890 C5888 1.394 . S
C5890 C5891 1.369 . S
C5890 C5894 1.531 . S
C5891 C5890 1.369 . S
C5891 C5892 1.410 . S
C5891 C5899 1.503 . S
C5892 C5891 1.410 . S
C5892 C5893 1.392 . S
C5892 C5895 1.511 . S
C5893 C5889 1.376 . S
C5893 C5892 1.392 . S
C5893 H5905 0.929 . S
C5894 C5890 1.531 . S
C5894 H5906 0.960 . S
C5894 H5907 0.962 . S
C5894 H5908 0.960 . S
C5895 C5892 1.511 . S
C5895 H5909 0.961 . S
C5895 H5910 0.961 . S
C5895 H5911 0.961 . S
C5896 C5897 1.370 . S
C5896 C5898 1.363 . S
C5896 H5912 0.931 . S
C5897 C5896 1.370 . S
C5897 C5901 1.408 . S
C5898 C5896 1.363 . S
C5898 C5899 1.370 . S
C5898 C5902 1.524 . S
C5899 C5891 1.503 . S
C5899 C5898 1.370 . S
C5899 C5900 1.403 . S
C5900 C5899 1.403 . S
C5900 C5901 1.404 . S
C5900 C5903 1.539 . S
C5901 C5897 1.408 . S
C5901 C5900 1.404 . S
C5901 H5913 0.930 . S
C5902 C5898 1.524 . S
C5902 H5914 0.956 . S
C5902 H5915 0.961 . S
C5902 H5916 0.961 . S
C5903 C5900 1.539 . S
C5903 H5917 0.958 . S
C5903 H5918 0.961 . S
C5903 H5919 0.960 . S
H5904 C5888 0.931 . S
H5905 C5893 0.929 . S
H5906 C5894 0.960 . S
H5907 C5894 0.962 . S
H5908 C5894 0.960 . S
H5909 C5895 0.961 . S
H5910 C5895 0.961 . S
H5911 C5895 0.961 . S
H5912 C5896 0.931 . S
H5913 C5901 0.930 . S
H5914 C5902 0.956 . S
H5915 C5902 0.961 . S
H5916 C5902 0.961 . S
H5917 C5903 0.958 . S
H5918 C5903 0.961 . S
H5919 C5903 0.960 . S
C5920 C5921 1.391 . S
C5920 C5922 1.394 . S
C5920 H5936 0.931 . S
C5921 C5920 1.391 . S
C5921 C5925 1.376 . S
C5922 C5920 1.394 . S
C5922 C5923 1.369 . S
C5922 C5926 1.531 . S
C5923 C5922 1.369 . S
C5923 C5924 1.410 . S
C5923 C5931 1.503 . S
C5924 C5923 1.410 . S
C5924 C5925 1.392 . S
C5924 C5927 1.511 . S
C5925 C5921 1.376 . S
C5925 C5924 1.392 . S
C5925 H5937 0.929 . S
C5926 C5922 1.531 . S
C5926 H5938 0.960 . S
C5926 H5939 0.962 . S
C5926 H5940 0.960 . S
C5927 C5924 1.511 . S
C5927 H5941 0.961 . S
C5927 H5942 0.961 . S
C5927 H5943 0.961 . S
C5928 C5929 1.370 . S
C5928 C5930 1.363 . S
C5928 H5944 0.931 . S
C5929 C5928 1.370 . S
C5929 C5933 1.408 . S
C5930 C5928 1.363 . S
C5930 C5931 1.370 . S
C5930 C5934 1.524 . S
C5931 C5923 1.503 . S
C5931 C5930 1.370 . S
C5931 C5932 1.403 . S
C5932 C5931 1.403 . S
C5932 C5933 1.404 . S
C5932 C5935 1.539 . S
C5933 C5929 1.408 . S
C5933 C5932 1.404 . S
C5933 H5945 0.930 . S
C5934 C5930 1.524 . S
C5934 H5946 0.956 . S
C5934 H5947 0.961 . S
C5934 H5948 0.961 . S
C5935 C5932 1.539 . S
C5935 H5949 0.958 . S
C5935 H5950 0.961 . S
C5935 H5951 0.960 . S
H5936 C5920 0.931 . S
H5937 C5925 0.929 . S
H5938 C5926 0.960 . S
H5939 C5926 0.962 . S
H5940 C5926 0.960 . S
H5941 C5927 0.961 . S
H5942 C5927 0.961 . S
H5943 C5927 0.961 . S
H5944 C5928 0.931 . S
H5945 C5933 0.930 . S
H5946 C5934 0.956 . S
H5947 C5934 0.961 . S
H5948 C5934 0.961 . S
H5949 C5935 0.958 . S
H5950 C5935 0.961 . S
H5951 C5935 0.960 . S
C5952 C5953 1.391 . S
C5952 C5954 1.394 . S
C5952 H5968 0.931 . S
C5953 C5952 1.391 . S
C5953 C5957 1.376 . S
C5954 C5952 1.394 . S
C5954 C5955 1.369 . S
C5954 C5958 1.531 . S
C5955 C5954 1.369 . S
C5955 C5956 1.410 . S
C5955 C5963 1.503 . S
C5956 C5955 1.410 . S
C5956 C5957 1.392 . S
C5956 C5959 1.511 . S
C5957 C5953 1.376 . S
C5957 C5956 1.392 . S
C5957 H5969 0.929 . S
C5958 C5954 1.531 . S
C5958 H5970 0.960 . S
C5958 H5971 0.962 . S
C5958 H5972 0.960 . S
C5959 C5956 1.511 . S
C5959 H5973 0.961 . S
C5959 H5974 0.961 . S
C5959 H5975 0.961 . S
C5960 C5961 1.370 . S
C5960 C5962 1.363 . S
C5960 H5976 0.931 . S
C5961 C5960 1.370 . S
C5961 C5965 1.408 . S
C5962 C5960 1.363 . S
C5962 C5963 1.370 . S
C5962 C5966 1.524 . S
C5963 C5955 1.503 . S
C5963 C5962 1.370 . S
C5963 C5964 1.403 . S
C5964 C5963 1.403 . S
C5964 C5965 1.404 . S
C5964 C5967 1.539 . S
C5965 C5961 1.408 . S
C5965 C5964 1.404 . S
C5965 H5977 0.930 . S
C5966 C5962 1.524 . S
C5966 H5978 0.956 . S
C5966 H5979 0.961 . S
C5966 H5980 0.961 . S
C5967 C5964 1.539 . S
C5967 H5981 0.958 . S
C5967 H5982 0.961 . S
C5967 H5983 0.960 . S
H5968 C5952 0.931 . S
H5969 C5957 0.929 . S
H5970 C5958 0.960 . S
H5971 C5958 0.962 . S
H5972 C5958 0.960 . S
H5973 C5959 0.961 . S
H5974 C5959 0.961 . S
H5975 C5959 0.961 . S
H5976 C5960 0.931 . S
H5977 C5965 0.930 . S
H5978 C5966 0.956 . S
H5979 C5966 0.961 . S
H5980 C5966 0.961 . S
H5981 C5967 0.958 . S
H5982 C5967 0.961 . S
H5983 C5967 0.960 . S
C5984 C5985 1.391 . S
C5984 C5986 1.394 . S
C5984 H6000 0.931 . S
C5985 C5984 1.391 . S
C5985 C5989 1.376 . S
C5986 C5984 1.394 . S
C5986 C5987 1.369 . S
C5986 C5990 1.531 . S
C5987 C5986 1.369 . S
C5987 C5988 1.410 . S
C5987 C5995 1.503 . S
C5988 C5987 1.410 . S
C5988 C5989 1.392 . S
C5988 C5991 1.511 . S
C5989 C5985 1.376 . S
C5989 C5988 1.392 . S
C5989 H6001 0.929 . S
C5990 C5986 1.531 . S
C5990 H6002 0.960 . S
C5990 H6003 0.962 . S
C5990 H6004 0.960 . S
C5991 C5988 1.511 . S
C5991 H6005 0.961 . S
C5991 H6006 0.961 . S
C5991 H6007 0.961 . S
C5992 C5993 1.370 . S
C5992 C5994 1.363 . S
C5992 H6008 0.931 . S
C5993 C5992 1.370 . S
C5993 C5997 1.408 . S
C5994 C5992 1.363 . S
C5994 C5995 1.370 . S
C5994 C5998 1.524 . S
C5995 C5987 1.503 . S
C5995 C5994 1.370 . S
C5995 C5996 1.403 . S
C5996 C5995 1.403 . S
C5996 C5997 1.404 . S
C5996 C5999 1.539 . S
C5997 C5993 1.408 . S
C5997 C5996 1.404 . S
C5997 H6009 0.930 . S
C5998 C5994 1.524 . S
C5998 H6010 0.956 . S
C5998 H6011 0.961 . S
C5998 H6012 0.961 . S
C5999 C5996 1.539 . S
C5999 H6013 0.958 . S
C5999 H6014 0.961 . S
C5999 H6015 0.960 . S
H6000 C5984 0.931 . S
H6001 C5989 0.929 . S
H6002 C5990 0.960 . S
H6003 C5990 0.962 . S
H6004 C5990 0.960 . S
H6005 C5991 0.961 . S
H6006 C5991 0.961 . S
H6007 C5991 0.961 . S
H6008 C5992 0.931 . S
H6009 C5997 0.930 . S
H6010 C5998 0.956 . S
H6011 C5998 0.961 . S
H6012 C5998 0.961 . S
H6013 C5999 0.958 . S
H6014 C5999 0.961 . S
H6015 C5999 0.960 . S
C6016 C6017 1.391 . S
C6016 C6018 1.394 . S
C6016 H6032 0.931 . S
C6017 C6016 1.391 . S
C6017 C6021 1.376 . S
C6018 C6016 1.394 . S
C6018 C6019 1.369 . S
C6018 C6022 1.531 . S
C6019 C6018 1.369 . S
C6019 C6020 1.410 . S
C6019 C6027 1.503 . S
C6020 C6019 1.410 . S
C6020 C6021 1.392 . S
C6020 C6023 1.511 . S
C6021 C6017 1.376 . S
C6021 C6020 1.392 . S
C6021 H6033 0.929 . S
C6022 C6018 1.531 . S
C6022 H6034 0.960 . S
C6022 H6035 0.962 . S
C6022 H6036 0.960 . S
C6023 C6020 1.511 . S
C6023 H6037 0.961 . S
C6023 H6038 0.961 . S
C6023 H6039 0.961 . S
C6024 C6025 1.370 . S
C6024 C6026 1.363 . S
C6024 H6040 0.931 . S
C6025 C6024 1.370 . S
C6025 C6029 1.408 . S
C6026 C6024 1.363 . S
C6026 C6027 1.370 . S
C6026 C6030 1.524 . S
C6027 C6019 1.503 . S
C6027 C6026 1.370 . S
C6027 C6028 1.403 . S
C6028 C6027 1.403 . S
C6028 C6029 1.404 . S
C6028 C6031 1.539 . S
C6029 C6025 1.408 . S
C6029 C6028 1.404 . S
C6029 H6041 0.930 . S
C6030 C6026 1.524 . S
C6030 H6042 0.956 . S
C6030 H6043 0.961 . S
C6030 H6044 0.961 . S
C6031 C6028 1.539 . S
C6031 H6045 0.958 . S
C6031 H6046 0.961 . S
C6031 H6047 0.960 . S
H6032 C6016 0.931 . S
H6033 C6021 0.929 . S
H6034 C6022 0.960 . S
H6035 C6022 0.962 . S
H6036 C6022 0.960 . S
H6037 C6023 0.961 . S
H6038 C6023 0.961 . S
H6039 C6023 0.961 . S
H6040 C6024 0.931 . S
H6041 C6029 0.930 . S
H6042 C6030 0.956 . S
H6043 C6030 0.961 . S
H6044 C6030 0.961 . S
H6045 C6031 0.958 . S
H6046 C6031 0.961 . S
H6047 C6031 0.960 . S
C6048 C6049 1.391 . S
C6048 C6050 1.394 . S
C6048 H6064 0.931 . S
C6049 C6048 1.391 . S
C6049 C6053 1.376 . S
C6050 C6048 1.394 . S
C6050 C6051 1.369 . S
C6050 C6054 1.531 . S
C6051 C6050 1.369 . S
C6051 C6052 1.410 . S
C6051 C6059 1.503 . S
C6052 C6051 1.410 . S
C6052 C6053 1.392 . S
C6052 C6055 1.511 . S
C6053 C6049 1.376 . S
C6053 C6052 1.392 . S
C6053 H6065 0.929 . S
C6054 C6050 1.531 . S
C6054 H6066 0.960 . S
C6054 H6067 0.962 . S
C6054 H6068 0.960 . S
C6055 C6052 1.511 . S
C6055 H6069 0.961 . S
C6055 H6070 0.961 . S
C6055 H6071 0.961 . S
C6056 C6057 1.370 . S
C6056 C6058 1.363 . S
C6056 H6072 0.931 . S
C6057 C6056 1.370 . S
C6057 C6061 1.408 . S
C6058 C6056 1.363 . S
C6058 C6059 1.370 . S
C6058 C6062 1.524 . S
C6059 C6051 1.503 . S
C6059 C6058 1.370 . S
C6059 C6060 1.403 . S
C6060 C6059 1.403 . S
C6060 C6061 1.404 . S
C6060 C6063 1.539 . S
C6061 C6057 1.408 . S
C6061 C6060 1.404 . S
C6061 H6073 0.930 . S
C6062 C6058 1.524 . S
C6062 H6074 0.956 . S
C6062 H6075 0.961 . S
C6062 H6076 0.961 . S
C6063 C6060 1.539 . S
C6063 H6077 0.958 . S
C6063 H6078 0.961 . S
C6063 H6079 0.960 . S
H6064 C6048 0.931 . S
H6065 C6053 0.929 . S
H6066 C6054 0.960 . S
H6067 C6054 0.962 . S
H6068 C6054 0.960 . S
H6069 C6055 0.961 . S
H6070 C6055 0.961 . S
H6071 C6055 0.961 . S
H6072 C6056 0.931 . S
H6073 C6061 0.930 . S
H6074 C6062 0.956 . S
H6075 C6062 0.961 . S
H6076 C6062 0.961 . S
H6077 C6063 0.958 . S
H6078 C6063 0.961 . S
H6079 C6063 0.960 . S
C6080 C6081 1.391 . S
C6080 C6082 1.394 . S
C6080 H6096 0.931 . S
C6081 C6080 1.391 . S
C6081 C6085 1.376 . S
C6082 C6080 1.394 . S
C6082 C6083 1.369 . S
C6082 C6086 1.531 . S
C6083 C6082 1.369 . S
C6083 C6084 1.410 . S
C6083 C6091 1.503 . S
C6084 C6083 1.410 . S
C6084 C6085 1.392 . S
C6084 C6087 1.511 . S
C6085 C6081 1.376 . S
C6085 C6084 1.392 . S
C6085 H6097 0.929 . S
C6086 C6082 1.531 . S
C6086 H6098 0.960 . S
C6086 H6099 0.962 . S
C6086 H6100 0.960 . S
C6087 C6084 1.511 . S
C6087 H6101 0.961 . S
C6087 H6102 0.961 . S
C6087 H6103 0.961 . S
C6088 C6089 1.370 . S
C6088 C6090 1.363 . S
C6088 H6104 0.931 . S
C6089 C6088 1.370 . S
C6089 C6093 1.408 . S
C6090 C6088 1.363 . S
C6090 C6091 1.370 . S
C6090 C6094 1.524 . S
C6091 C6083 1.503 . S
C6091 C6090 1.370 . S
C6091 C6092 1.403 . S
C6092 C6091 1.403 . S
C6092 C6093 1.404 . S
C6092 C6095 1.539 . S
C6093 C6089 1.408 . S
C6093 C6092 1.404 . S
C6093 H6105 0.930 . S
C6094 C6090 1.524 . S
C6094 H6106 0.956 . S
C6094 H6107 0.961 . S
C6094 H6108 0.961 . S
C6095 C6092 1.539 . S
C6095 H6109 0.958 . S
C6095 H6110 0.961 . S
C6095 H6111 0.960 . S
H6096 C6080 0.931 . S
H6097 C6085 0.929 . S
H6098 C6086 0.960 . S
H6099 C6086 0.962 . S
H6100 C6086 0.960 . S
H6101 C6087 0.961 . S
H6102 C6087 0.961 . S
H6103 C6087 0.961 . S
H6104 C6088 0.931 . S
H6105 C6093 0.930 . S
H6106 C6094 0.956 . S
H6107 C6094 0.961 . S
H6108 C6094 0.961 . S
H6109 C6095 0.958 . S
H6110 C6095 0.961 . S
H6111 C6095 0.960 . S
C6112 C6113 1.391 . S
C6112 C6114 1.394 . S
C6112 H6128 0.931 . S
C6113 C6112 1.391 . S
C6113 C6117 1.376 . S
C6114 C6112 1.394 . S
C6114 C6115 1.369 . S
C6114 C6118 1.531 . S
C6115 C6114 1.369 . S
C6115 C6116 1.410 . S
C6115 C6123 1.503 . S
C6116 C6115 1.410 . S
C6116 C6117 1.392 . S
C6116 C6119 1.511 . S
C6117 C6113 1.376 . S
C6117 C6116 1.392 . S
C6117 H6129 0.929 . S
C6118 C6114 1.531 . S
C6118 H6130 0.960 . S
C6118 H6131 0.962 . S
C6118 H6132 0.960 . S
C6119 C6116 1.511 . S
C6119 H6133 0.961 . S
C6119 H6134 0.961 . S
C6119 H6135 0.961 . S
C6120 C6121 1.370 . S
C6120 C6122 1.363 . S
C6120 H6136 0.931 . S
C6121 C6120 1.370 . S
C6121 C6125 1.408 . S
C6122 C6120 1.363 . S
C6122 C6123 1.370 . S
C6122 C6126 1.524 . S
C6123 C6115 1.503 . S
C6123 C6122 1.370 . S
C6123 C6124 1.403 . S
C6124 C6123 1.403 . S
C6124 C6125 1.404 . S
C6124 C6127 1.539 . S
C6125 C6121 1.408 . S
C6125 C6124 1.404 . S
C6125 H6137 0.930 . S
C6126 C6122 1.524 . S
C6126 H6138 0.956 . S
C6126 H6139 0.961 . S
C6126 H6140 0.961 . S
C6127 C6124 1.539 . S
C6127 H6141 0.958 . S
C6127 H6142 0.961 . S
C6127 H6143 0.960 . S
H6128 C6112 0.931 . S
H6129 C6117 0.929 . S
H6130 C6118 0.960 . S
H6131 C6118 0.962 . S
H6132 C6118 0.960 . S
H6133 C6119 0.961 . S
H6134 C6119 0.961 . S
H6135 C6119 0.961 . S
H6136 C6120 0.931 . S
H6137 C6125 0.930 . S
H6138 C6126 0.956 . S
H6139 C6126 0.961 . S
H6140 C6126 0.961 . S
H6141 C6127 0.958 . S
H6142 C6127 0.961 . S
H6143 C6127 0.960 . S
C6144 C6145 1.391 . S
C6144 C6146 1.394 . S
C6144 H6160 0.931 . S
C6145 C6144 1.391 . S
C6145 C6149 1.376 . S
C6146 C6144 1.394 . S
C6146 C6147 1.369 . S
C6146 C6150 1.531 . S
C6147 C6146 1.369 . S
C6147 C6148 1.410 . S
C6147 C6155 1.503 . S
C6148 C6147 1.410 . S
C6148 C6149 1.392 . S
C6148 C6151 1.511 . S
C6149 C6145 1.376 . S
C6149 C6148 1.392 . S
C6149 H6161 0.929 . S
C6150 C6146 1.531 . S
C6150 H6162 0.960 . S
C6150 H6163 0.962 . S
C6150 H6164 0.960 . S
C6151 C6148 1.511 . S
C6151 H6165 0.961 . S
C6151 H6166 0.961 . S
C6151 H6167 0.961 . S
C6152 C6153 1.370 . S
C6152 C6154 1.363 . S
C6152 H6168 0.931 . S
C6153 C6152 1.370 . S
C6153 C6157 1.408 . S
C6154 C6152 1.363 . S
C6154 C6155 1.370 . S
C6154 C6158 1.524 . S
C6155 C6147 1.503 . S
C6155 C6154 1.370 . S
C6155 C6156 1.403 . S
C6156 C6155 1.403 . S
C6156 C6157 1.404 . S
C6156 C6159 1.539 . S
C6157 C6153 1.408 . S
C6157 C6156 1.404 . S
C6157 H6169 0.930 . S
C6158 C6154 1.524 . S
C6158 H6170 0.956 . S
C6158 H6171 0.961 . S
C6158 H6172 0.961 . S
C6159 C6156 1.539 . S
C6159 H6173 0.958 . S
C6159 H6174 0.961 . S
C6159 H6175 0.960 . S
H6160 C6144 0.931 . S
H6161 C6149 0.929 . S
H6162 C6150 0.960 . S
H6163 C6150 0.962 . S
H6164 C6150 0.960 . S
H6165 C6151 0.961 . S
H6166 C6151 0.961 . S
H6167 C6151 0.961 . S
H6168 C6152 0.931 . S
H6169 C6157 0.930 . S
H6170 C6158 0.956 . S
H6171 C6158 0.961 . S
H6172 C6158 0.961 . S
H6173 C6159 0.958 . S
H6174 C6159 0.961 . S
H6175 C6159 0.960 . S
C6176 C6177 1.391 . S
C6176 C6178 1.394 . S
C6176 H6192 0.931 . S
C6177 C6176 1.391 . S
C6177 C6181 1.376 . S
C6178 C6176 1.394 . S
C6178 C6179 1.369 . S
C6178 C6182 1.531 . S
C6179 C6178 1.369 . S
C6179 C6180 1.410 . S
C6179 C6187 1.503 . S
C6180 C6179 1.410 . S
C6180 C6181 1.392 . S
C6180 C6183 1.511 . S
C6181 C6177 1.376 . S
C6181 C6180 1.392 . S
C6181 H6193 0.929 . S
C6182 C6178 1.531 . S
C6182 H6194 0.960 . S
C6182 H6195 0.962 . S
C6182 H6196 0.960 . S
C6183 C6180 1.511 . S
C6183 H6197 0.961 . S
C6183 H6198 0.961 . S
C6183 H6199 0.961 . S
C6184 C6185 1.370 . S
C6184 C6186 1.363 . S
C6184 H6200 0.931 . S
C6185 C6184 1.370 . S
C6185 C6189 1.408 . S
C6186 C6184 1.363 . S
C6186 C6187 1.370 . S
C6186 C6190 1.524 . S
C6187 C6179 1.503 . S
C6187 C6186 1.370 . S
C6187 C6188 1.403 . S
C6188 C6187 1.403 . S
C6188 C6189 1.404 . S
C6188 C6191 1.539 . S
C6189 C6185 1.408 . S
C6189 C6188 1.404 . S
C6189 H6201 0.930 . S
C6190 C6186 1.524 . S
C6190 H6202 0.956 . S
C6190 H6203 0.961 . S
C6190 H6204 0.961 . S
C6191 C6188 1.539 . S
C6191 H6205 0.958 . S
C6191 H6206 0.961 . S
C6191 H6207 0.960 . S
H6192 C6176 0.931 . S
H6193 C6181 0.929 . S
H6194 C6182 0.960 . S
H6195 C6182 0.962 . S
H6196 C6182 0.960 . S
H6197 C6183 0.961 . S
H6198 C6183 0.961 . S
H6199 C6183 0.961 . S
H6200 C6184 0.931 . S
H6201 C6189 0.930 . S
H6202 C6190 0.956 . S
H6203 C6190 0.961 . S
H6204 C6190 0.961 . S
H6205 C6191 0.958 . S
H6206 C6191 0.961 . S
H6207 C6191 0.960 . S
C6208 C6209 1.391 . S
C6208 C6210 1.394 . S
C6208 H6224 0.931 . S
C6209 C6208 1.391 . S
C6209 C6213 1.376 . S
C6210 C6208 1.394 . S
C6210 C6211 1.369 . S
C6210 C6214 1.531 . S
C6211 C6210 1.369 . S
C6211 C6212 1.410 . S
C6211 C6219 1.503 . S
C6212 C6211 1.410 . S
C6212 C6213 1.392 . S
C6212 C6215 1.511 . S
C6213 C6209 1.376 . S
C6213 C6212 1.392 . S
C6213 H6225 0.929 . S
C6214 C6210 1.531 . S
C6214 H6226 0.960 . S
C6214 H6227 0.962 . S
C6214 H6228 0.960 . S
C6215 C6212 1.511 . S
C6215 H6229 0.961 . S
C6215 H6230 0.961 . S
C6215 H6231 0.961 . S
C6216 C6217 1.370 . S
C6216 C6218 1.363 . S
C6216 H6232 0.931 . S
C6217 C6216 1.370 . S
C6217 C6221 1.408 . S
C6218 C6216 1.363 . S
C6218 C6219 1.370 . S
C6218 C6222 1.524 . S
C6219 C6211 1.503 . S
C6219 C6218 1.370 . S
C6219 C6220 1.403 . S
C6220 C6219 1.403 . S
C6220 C6221 1.404 . S
C6220 C6223 1.539 . S
C6221 C6217 1.408 . S
C6221 C6220 1.404 . S
C6221 H6233 0.930 . S
C6222 C6218 1.524 . S
C6222 H6234 0.956 . S
C6222 H6235 0.961 . S
C6222 H6236 0.961 . S
C6223 C6220 1.539 . S
C6223 H6237 0.958 . S
C6223 H6238 0.961 . S
C6223 H6239 0.960 . S
H6224 C6208 0.931 . S
H6225 C6213 0.929 . S
H6226 C6214 0.960 . S
H6227 C6214 0.962 . S
H6228 C6214 0.960 . S
H6229 C6215 0.961 . S
H6230 C6215 0.961 . S
H6231 C6215 0.961 . S
H6232 C6216 0.931 . S
H6233 C6221 0.930 . S
H6234 C6222 0.956 . S
H6235 C6222 0.961 . S
H6236 C6222 0.961 . S
H6237 C6223 0.958 . S
H6238 C6223 0.961 . S
H6239 C6223 0.960 . S
C6240 C6241 1.391 . S
C6240 C6242 1.394 . S
C6240 H6256 0.931 . S
C6241 C6240 1.391 . S
C6241 C6245 1.376 . S
C6242 C6240 1.394 . S
C6242 C6243 1.369 . S
C6242 C6246 1.531 . S
C6243 C6242 1.369 . S
C6243 C6244 1.410 . S
C6243 C6251 1.503 . S
C6244 C6243 1.410 . S
C6244 C6245 1.392 . S
C6244 C6247 1.511 . S
C6245 C6241 1.376 . S
C6245 C6244 1.392 . S
C6245 H6257 0.929 . S
C6246 C6242 1.531 . S
C6246 H6258 0.960 . S
C6246 H6259 0.962 . S
C6246 H6260 0.960 . S
C6247 C6244 1.511 . S
C6247 H6261 0.961 . S
C6247 H6262 0.961 . S
C6247 H6263 0.961 . S
C6248 C6249 1.370 . S
C6248 C6250 1.363 . S
C6248 H6264 0.931 . S
C6249 C6248 1.370 . S
C6249 C6253 1.408 . S
C6250 C6248 1.363 . S
C6250 C6251 1.370 . S
C6250 C6254 1.524 . S
C6251 C6243 1.503 . S
C6251 C6250 1.370 . S
C6251 C6252 1.403 . S
C6252 C6251 1.403 . S
C6252 C6253 1.404 . S
C6252 C6255 1.539 . S
C6253 C6249 1.408 . S
C6253 C6252 1.404 . S
C6253 H6265 0.930 . S
C6254 C6250 1.524 . S
C6254 H6266 0.956 . S
C6254 H6267 0.961 . S
C6254 H6268 0.961 . S
C6255 C6252 1.539 . S
C6255 H6269 0.958 . S
C6255 H6270 0.961 . S
C6255 H6271 0.960 . S
H6256 C6240 0.931 . S
H6257 C6245 0.929 . S
H6258 C6246 0.960 . S
H6259 C6246 0.962 . S
H6260 C6246 0.960 . S
H6261 C6247 0.961 . S
H6262 C6247 0.961 . S
H6263 C6247 0.961 . S
H6264 C6248 0.931 . S
H6265 C6253 0.930 . S
H6266 C6254 0.956 . S
H6267 C6254 0.961 . S
H6268 C6254 0.961 . S
H6269 C6255 0.958 . S
H6270 C6255 0.961 . S
H6271 C6255 0.960 . S
C6272 C6273 1.391 . S
C6272 C6274 1.394 . S
C6272 H6288 0.931 . S
C6273 C6272 1.391 . S
C6273 C6277 1.376 . S
C6274 C6272 1.394 . S
C6274 C6275 1.369 . S
C6274 C6278 1.531 . S
C6275 C6274 1.369 . S
C6275 C6276 1.410 . S
C6275 C6283 1.503 . S
C6276 C6275 1.410 . S
C6276 C6277 1.392 . S
C6276 C6279 1.511 . S
C6277 C6273 1.376 . S
C6277 C6276 1.392 . S
C6277 H6289 0.929 . S
C6278 C6274 1.531 . S
C6278 H6290 0.960 . S
C6278 H6291 0.962 . S
C6278 H6292 0.960 . S
C6279 C6276 1.511 . S
C6279 H6293 0.961 . S
C6279 H6294 0.961 . S
C6279 H6295 0.961 . S
C6280 C6281 1.370 . S
C6280 C6282 1.363 . S
C6280 H6296 0.931 . S
C6281 C6280 1.370 . S
C6281 C6285 1.408 . S
C6282 C6280 1.363 . S
C6282 C6283 1.370 . S
C6282 C6286 1.524 . S
C6283 C6275 1.503 . S
C6283 C6282 1.370 . S
C6283 C6284 1.403 . S
C6284 C6283 1.403 . S
C6284 C6285 1.404 . S
C6284 C6287 1.539 . S
C6285 C6281 1.408 . S
C6285 C6284 1.404 . S
C6285 H6297 0.930 . S
C6286 C6282 1.524 . S
C6286 H6298 0.956 . S
C6286 H6299 0.961 . S
C6286 H6300 0.961 . S
C6287 C6284 1.539 . S
C6287 H6301 0.958 . S
C6287 H6302 0.961 . S
C6287 H6303 0.960 . S
H6288 C6272 0.931 . S
H6289 C6277 0.929 . S
H6290 C6278 0.960 . S
H6291 C6278 0.962 . S
H6292 C6278 0.960 . S
H6293 C6279 0.961 . S
H6294 C6279 0.961 . S
H6295 C6279 0.961 . S
H6296 C6280 0.931 . S
H6297 C6285 0.930 . S
H6298 C6286 0.956 . S
H6299 C6286 0.961 . S
H6300 C6286 0.961 . S
H6301 C6287 0.958 . S
H6302 C6287 0.961 . S
H6303 C6287 0.960 . S
C6304 C6305 1.391 . S
C6304 C6306 1.394 . S
C6304 H6320 0.931 . S
C6305 C6304 1.391 . S
C6305 C6309 1.376 . S
C6306 C6304 1.394 . S
C6306 C6307 1.369 . S
C6306 C6310 1.531 . S
C6307 C6306 1.369 . S
C6307 C6308 1.410 . S
C6307 C6315 1.503 . S
C6308 C6307 1.410 . S
C6308 C6309 1.392 . S
C6308 C6311 1.511 . S
C6309 C6305 1.376 . S
C6309 C6308 1.392 . S
C6309 H6321 0.929 . S
C6310 C6306 1.531 . S
C6310 H6322 0.960 . S
C6310 H6323 0.962 . S
C6310 H6324 0.960 . S
C6311 C6308 1.511 . S
C6311 H6325 0.961 . S
C6311 H6326 0.961 . S
C6311 H6327 0.961 . S
C6312 C6313 1.370 . S
C6312 C6314 1.363 . S
C6312 H6328 0.931 . S
C6313 C6312 1.370 . S
C6313 C6317 1.408 . S
C6314 C6312 1.363 . S
C6314 C6315 1.370 . S
C6314 C6318 1.524 . S
C6315 C6307 1.503 . S
C6315 C6314 1.370 . S
C6315 C6316 1.403 . S
C6316 C6315 1.403 . S
C6316 C6317 1.404 . S
C6316 C6319 1.539 . S
C6317 C6313 1.408 . S
C6317 C6316 1.404 . S
C6317 H6329 0.930 . S
C6318 C6314 1.524 . S
C6318 H6330 0.956 . S
C6318 H6331 0.961 . S
C6318 H6332 0.961 . S
C6319 C6316 1.539 . S
C6319 H6333 0.958 . S
C6319 H6334 0.961 . S
C6319 H6335 0.960 . S
H6320 C6304 0.931 . S
H6321 C6309 0.929 . S
H6322 C6310 0.960 . S
H6323 C6310 0.962 . S
H6324 C6310 0.960 . S
H6325 C6311 0.961 . S
H6326 C6311 0.961 . S
H6327 C6311 0.961 . S
H6328 C6312 0.931 . S
H6329 C6317 0.930 . S
H6330 C6318 0.956 . S
H6331 C6318 0.961 . S
H6332 C6318 0.961 . S
H6333 C6319 0.958 . S
H6334 C6319 0.961 . S
H6335 C6319 0.960 . S
C6336 C6337 1.391 . S
C6336 C6338 1.394 . S
C6336 H6352 0.931 . S
C6337 C6336 1.391 . S
C6337 C6341 1.376 . S
C6338 C6336 1.394 . S
C6338 C6339 1.369 . S
C6338 C6342 1.531 . S
C6339 C6338 1.369 . S
C6339 C6340 1.410 . S
C6339 C6347 1.503 . S
C6340 C6339 1.410 . S
C6340 C6341 1.392 . S
C6340 C6343 1.511 . S
C6341 C6337 1.376 . S
C6341 C6340 1.392 . S
C6341 H6353 0.929 . S
C6342 C6338 1.531 . S
C6342 H6354 0.960 . S
C6342 H6355 0.962 . S
C6342 H6356 0.960 . S
C6343 C6340 1.511 . S
C6343 H6357 0.961 . S
C6343 H6358 0.961 . S
C6343 H6359 0.961 . S
C6344 C6345 1.370 . S
C6344 C6346 1.363 . S
C6344 H6360 0.931 . S
C6345 C6344 1.370 . S
C6345 C6349 1.408 . S
C6346 C6344 1.363 . S
C6346 C6347 1.370 . S
C6346 C6350 1.524 . S
C6347 C6339 1.503 . S
C6347 C6346 1.370 . S
C6347 C6348 1.403 . S
C6348 C6347 1.403 . S
C6348 C6349 1.404 . S
C6348 C6351 1.539 . S
C6349 C6345 1.408 . S
C6349 C6348 1.404 . S
C6349 H6361 0.930 . S
C6350 C6346 1.524 . S
C6350 H6362 0.956 . S
C6350 H6363 0.961 . S
C6350 H6364 0.961 . S
C6351 C6348 1.539 . S
C6351 H6365 0.958 . S
C6351 H6366 0.961 . S
C6351 H6367 0.960 . S
H6352 C6336 0.931 . S
H6353 C6341 0.929 . S
H6354 C6342 0.960 . S
H6355 C6342 0.962 . S
H6356 C6342 0.960 . S
H6357 C6343 0.961 . S
H6358 C6343 0.961 . S
H6359 C6343 0.961 . S
H6360 C6344 0.931 . S
H6361 C6349 0.930 . S
H6362 C6350 0.956 . S
H6363 C6350 0.961 . S
H6364 C6350 0.961 . S
H6365 C6351 0.958 . S
H6366 C6351 0.961 . S
H6367 C6351 0.960 . S
C6368 C6369 1.391 . S
C6368 C6370 1.394 . S
C6368 H6384 0.931 . S
C6369 C6368 1.391 . S
C6369 C6373 1.376 . S
C6370 C6368 1.394 . S
C6370 C6371 1.369 . S
C6370 C6374 1.531 . S
C6371 C6370 1.369 . S
C6371 C6372 1.410 . S
C6371 C6379 1.503 . S
C6372 C6371 1.410 . S
C6372 C6373 1.392 . S
C6372 C6375 1.511 . S
C6373 C6369 1.376 . S
C6373 C6372 1.392 . S
C6373 H6385 0.929 . S
C6374 C6370 1.531 . S
C6374 H6386 0.960 . S
C6374 H6387 0.962 . S
C6374 H6388 0.960 . S
C6375 C6372 1.511 . S
C6375 H6389 0.961 . S
C6375 H6390 0.961 . S
C6375 H6391 0.961 . S
C6376 C6377 1.370 . S
C6376 C6378 1.363 . S
C6376 H6392 0.931 . S
C6377 C6376 1.370 . S
C6377 C6381 1.408 . S
C6378 C6376 1.363 . S
C6378 C6379 1.370 . S
C6378 C6382 1.524 . S
C6379 C6371 1.503 . S
C6379 C6378 1.370 . S
C6379 C6380 1.403 . S
C6380 C6379 1.403 . S
C6380 C6381 1.404 . S
C6380 C6383 1.539 . S
C6381 C6377 1.408 . S
C6381 C6380 1.404 . S
C6381 H6393 0.930 . S
C6382 C6378 1.524 . S
C6382 H6394 0.956 . S
C6382 H6395 0.961 . S
C6382 H6396 0.961 . S
C6383 C6380 1.539 . S
C6383 H6397 0.958 . S
C6383 H6398 0.961 . S
C6383 H6399 0.960 . S
H6384 C6368 0.931 . S
H6385 C6373 0.929 . S
H6386 C6374 0.960 . S
H6387 C6374 0.962 . S
H6388 C6374 0.960 . S
H6389 C6375 0.961 . S
H6390 C6375 0.961 . S
H6391 C6375 0.961 . S
H6392 C6376 0.931 . S
H6393 C6381 0.930 . S
H6394 C6382 0.956 . S
H6395 C6382 0.961 . S
H6396 C6382 0.961 . S
H6397 C6383 0.958 . S
H6398 C6383 0.961 . S
H6399 C6383 0.960 . S
C6400 C6401 1.391 . S
C6400 C6402 1.394 . S
C6400 H6416 0.931 . S
C6401 C6400 1.391 . S
C6401 C6405 1.376 . S
C6402 C6400 1.394 . S
C6402 C6403 1.369 . S
C6402 C6406 1.531 . S
C6403 C6402 1.369 . S
C6403 C6404 1.410 . S
C6403 C6411 1.503 . S
C6404 C6403 1.410 . S
C6404 C6405 1.392 . S
C6404 C6407 1.511 . S
C6405 C6401 1.376 . S
C6405 C6404 1.392 . S
C6405 H6417 0.929 . S
C6406 C6402 1.531 . S
C6406 H6418 0.960 . S
C6406 H6419 0.962 . S
C6406 H6420 0.960 . S
C6407 C6404 1.511 . S
C6407 H6421 0.961 . S
C6407 H6422 0.961 . S
C6407 H6423 0.961 . S
C6408 C6409 1.370 . S
C6408 C6410 1.363 . S
C6408 H6424 0.931 . S
C6409 C6408 1.370 . S
C6409 C6413 1.408 . S
C6410 C6408 1.363 . S
C6410 C6411 1.370 . S
C6410 C6414 1.524 . S
C6411 C6403 1.503 . S
C6411 C6410 1.370 . S
C6411 C6412 1.403 . S
C6412 C6411 1.403 . S
C6412 C6413 1.404 . S
C6412 C6415 1.539 . S
C6413 C6409 1.408 . S
C6413 C6412 1.404 . S
C6413 H6425 0.930 . S
C6414 C6410 1.524 . S
C6414 H6426 0.956 . S
C6414 H6427 0.961 . S
C6414 H6428 0.961 . S
C6415 C6412 1.539 . S
C6415 H6429 0.958 . S
C6415 H6430 0.961 . S
C6415 H6431 0.960 . S
H6416 C6400 0.931 . S
H6417 C6405 0.929 . S
H6418 C6406 0.960 . S
H6419 C6406 0.962 . S
H6420 C6406 0.960 . S
H6421 C6407 0.961 . S
H6422 C6407 0.961 . S
H6423 C6407 0.961 . S
H6424 C6408 0.931 . S
H6425 C6413 0.930 . S
H6426 C6414 0.956 . S
H6427 C6414 0.961 . S
H6428 C6414 0.961 . S
H6429 C6415 0.958 . S
H6430 C6415 0.961 . S
H6431 C6415 0.960 . S
C6432 C6433 1.391 . S
C6432 C6434 1.394 . S
C6432 H6448 0.931 . S
C6433 C6432 1.391 . S
C6433 C6437 1.376 . S
C6434 C6432 1.394 . S
C6434 C6435 1.369 . S
C6434 C6438 1.531 . S
C6435 C6434 1.369 . S
C6435 C6436 1.410 . S
C6435 C6443 1.503 . S
C6436 C6435 1.410 . S
C6436 C6437 1.392 . S
C6436 C6439 1.511 . S
C6437 C6433 1.376 . S
C6437 C6436 1.392 . S
C6437 H6449 0.929 . S
C6438 C6434 1.531 . S
C6438 H6450 0.960 . S
C6438 H6451 0.962 . S
C6438 H6452 0.960 . S
C6439 C6436 1.511 . S
C6439 H6453 0.961 . S
C6439 H6454 0.961 . S
C6439 H6455 0.961 . S
C6440 C6441 1.370 . S
C6440 C6442 1.363 . S
C6440 H6456 0.931 . S
C6441 C6440 1.370 . S
C6441 C6445 1.408 . S
C6442 C6440 1.363 . S
C6442 C6443 1.370 . S
C6442 C6446 1.524 . S
C6443 C6435 1.503 . S
C6443 C6442 1.370 . S
C6443 C6444 1.403 . S
C6444 C6443 1.403 . S
C6444 C6445 1.404 . S
C6444 C6447 1.539 . S
C6445 C6441 1.408 . S
C6445 C6444 1.404 . S
C6445 H6457 0.930 . S
C6446 C6442 1.524 . S
C6446 H6458 0.956 . S
C6446 H6459 0.961 . S
C6446 H6460 0.961 . S
C6447 C6444 1.539 . S
C6447 H6461 0.958 . S
C6447 H6462 0.961 . S
C6447 H6463 0.960 . S
H6448 C6432 0.931 . S
H6449 C6437 0.929 . S
H6450 C6438 0.960 . S
H6451 C6438 0.962 . S
H6452 C6438 0.960 . S
H6453 C6439 0.961 . S
H6454 C6439 0.961 . S
H6455 C6439 0.961 . S
H6456 C6440 0.931 . S
H6457 C6445 0.930 . S
H6458 C6446 0.956 . S
H6459 C6446 0.961 . S
H6460 C6446 0.961 . S
H6461 C6447 0.958 . S
H6462 C6447 0.961 . S
H6463 C6447 0.960 . S
C6464 C6465 1.391 . S
C6464 C6466 1.394 . S
C6464 H6480 0.931 . S
C6465 C6464 1.391 . S
C6465 C6469 1.376 . S
C6466 C6464 1.394 . S
C6466 C6467 1.369 . S
C6466 C6470 1.531 . S
C6467 C6466 1.369 . S
C6467 C6468 1.410 . S
C6467 C6475 1.503 . S
C6468 C6467 1.410 . S
C6468 C6469 1.392 . S
C6468 C6471 1.511 . S
C6469 C6465 1.376 . S
C6469 C6468 1.392 . S
C6469 H6481 0.929 . S
C6470 C6466 1.531 . S
C6470 H6482 0.960 . S
C6470 H6483 0.962 . S
C6470 H6484 0.960 . S
C6471 C6468 1.511 . S
C6471 H6485 0.961 . S
C6471 H6486 0.961 . S
C6471 H6487 0.961 . S
C6472 C6473 1.370 . S
C6472 C6474 1.363 . S
C6472 H6488 0.931 . S
C6473 C6472 1.370 . S
C6473 C6477 1.408 . S
C6474 C6472 1.363 . S
C6474 C6475 1.370 . S
C6474 C6478 1.524 . S
C6475 C6467 1.503 . S
C6475 C6474 1.370 . S
C6475 C6476 1.403 . S
C6476 C6475 1.403 . S
C6476 C6477 1.404 . S
C6476 C6479 1.539 . S
C6477 C6473 1.408 . S
C6477 C6476 1.404 . S
C6477 H6489 0.930 . S
C6478 C6474 1.524 . S
C6478 H6490 0.956 . S
C6478 H6491 0.961 . S
C6478 H6492 0.961 . S
C6479 C6476 1.539 . S
C6479 H6493 0.958 . S
C6479 H6494 0.961 . S
C6479 H6495 0.960 . S
H6480 C6464 0.931 . S
H6481 C6469 0.929 . S
H6482 C6470 0.960 . S
H6483 C6470 0.962 . S
H6484 C6470 0.960 . S
H6485 C6471 0.961 . S
H6486 C6471 0.961 . S
H6487 C6471 0.961 . S
H6488 C6472 0.931 . S
H6489 C6477 0.930 . S
H6490 C6478 0.956 . S
H6491 C6478 0.961 . S
H6492 C6478 0.961 . S
H6493 C6479 0.958 . S
H6494 C6479 0.961 . S
H6495 C6479 0.960 . S
C6496 C6497 1.391 . S
C6496 C6498 1.394 . S
C6496 H6512 0.931 . S
C6497 C6496 1.391 . S
C6497 C6501 1.376 . S
C6498 C6496 1.394 . S
C6498 C6499 1.369 . S
C6498 C6502 1.531 . S
C6499 C6498 1.369 . S
C6499 C6500 1.410 . S
C6499 C6507 1.503 . S
C6500 C6499 1.410 . S
C6500 C6501 1.392 . S
C6500 C6503 1.511 . S
C6501 C6497 1.376 . S
C6501 C6500 1.392 . S
C6501 H6513 0.929 . S
C6502 C6498 1.531 . S
C6502 H6514 0.960 . S
C6502 H6515 0.962 . S
C6502 H6516 0.960 . S
C6503 C6500 1.511 . S
C6503 H6517 0.961 . S
C6503 H6518 0.961 . S
C6503 H6519 0.961 . S
C6504 C6505 1.370 . S
C6504 C6506 1.363 . S
C6504 H6520 0.931 . S
C6505 C6504 1.370 . S
C6505 C6509 1.408 . S
C6506 C6504 1.363 . S
C6506 C6507 1.370 . S
C6506 C6510 1.524 . S
C6507 C6499 1.503 . S
C6507 C6506 1.370 . S
C6507 C6508 1.403 . S
C6508 C6507 1.403 . S
C6508 C6509 1.404 . S
C6508 C6511 1.539 . S
C6509 C6505 1.408 . S
C6509 C6508 1.404 . S
C6509 H6521 0.930 . S
C6510 C6506 1.524 . S
C6510 H6522 0.956 . S
C6510 H6523 0.961 . S
C6510 H6524 0.961 . S
C6511 C6508 1.539 . S
C6511 H6525 0.958 . S
C6511 H6526 0.961 . S
C6511 H6527 0.960 . S
H6512 C6496 0.931 . S
H6513 C6501 0.929 . S
H6514 C6502 0.960 . S
H6515 C6502 0.962 . S
H6516 C6502 0.960 . S
H6517 C6503 0.961 . S
H6518 C6503 0.961 . S
H6519 C6503 0.961 . S
H6520 C6504 0.931 . S
H6521 C6509 0.930 . S
H6522 C6510 0.956 . S
H6523 C6510 0.961 . S
H6524 C6510 0.961 . S
H6525 C6511 0.958 . S
H6526 C6511 0.961 . S
H6527 C6511 0.960 . S
C6528 C6529 1.391 . S
C6528 C6530 1.394 . S
C6528 H6544 0.931 . S
C6529 C6528 1.391 . S
C6529 C6533 1.376 . S
C6530 C6528 1.394 . S
C6530 C6531 1.369 . S
C6530 C6534 1.531 . S
C6531 C6530 1.369 . S
C6531 C6532 1.410 . S
C6531 C6539 1.503 . S
C6532 C6531 1.410 . S
C6532 C6533 1.392 . S
C6532 C6535 1.511 . S
C6533 C6529 1.376 . S
C6533 C6532 1.392 . S
C6533 H6545 0.929 . S
C6534 C6530 1.531 . S
C6534 H6546 0.960 . S
C6534 H6547 0.962 . S
C6534 H6548 0.960 . S
C6535 C6532 1.511 . S
C6535 H6549 0.961 . S
C6535 H6550 0.961 . S
C6535 H6551 0.961 . S
C6536 C6537 1.370 . S
C6536 C6538 1.363 . S
C6536 H6552 0.931 . S
C6537 C6536 1.370 . S
C6537 C6541 1.408 . S
C6538 C6536 1.363 . S
C6538 C6539 1.370 . S
C6538 C6542 1.524 . S
C6539 C6531 1.503 . S
C6539 C6538 1.370 . S
C6539 C6540 1.403 . S
C6540 C6539 1.403 . S
C6540 C6541 1.404 . S
C6540 C6543 1.539 . S
C6541 C6537 1.408 . S
C6541 C6540 1.404 . S
C6541 H6553 0.930 . S
C6542 C6538 1.524 . S
C6542 H6554 0.956 . S
C6542 H6555 0.961 . S
C6542 H6556 0.961 . S
C6543 C6540 1.539 . S
C6543 H6557 0.958 . S
C6543 H6558 0.961 . S
C6543 H6559 0.960 . S
H6544 C6528 0.931 . S
H6545 C6533 0.929 . S
H6546 C6534 0.960 . S
H6547 C6534 0.962 . S
H6548 C6534 0.960 . S
H6549 C6535 0.961 . S
H6550 C6535 0.961 . S
H6551 C6535 0.961 . S
H6552 C6536 0.931 . S
H6553 C6541 0.930 . S
H6554 C6542 0.956 . S
H6555 C6542 0.961 . S
H6556 C6542 0.961 . S
H6557 C6543 0.958 . S
H6558 C6543 0.961 . S
H6559 C6543 0.960 . S
C6560 C6561 1.391 . S
C6560 C6562 1.394 . S
C6560 H6576 0.931 . S
C6561 C6560 1.391 . S
C6561 C6565 1.376 . S
C6562 C6560 1.394 . S
C6562 C6563 1.369 . S
C6562 C6566 1.531 . S
C6563 C6562 1.369 . S
C6563 C6564 1.410 . S
C6563 C6571 1.503 . S
C6564 C6563 1.410 . S
C6564 C6565 1.392 . S
C6564 C6567 1.511 . S
C6565 C6561 1.376 . S
C6565 C6564 1.392 . S
C6565 H6577 0.929 . S
C6566 C6562 1.531 . S
C6566 H6578 0.960 . S
C6566 H6579 0.962 . S
C6566 H6580 0.960 . S
C6567 C6564 1.511 . S
C6567 H6581 0.961 . S
C6567 H6582 0.961 . S
C6567 H6583 0.961 . S
C6568 C6569 1.370 . S
C6568 C6570 1.363 . S
C6568 H6584 0.931 . S
C6569 C6568 1.370 . S
C6569 C6573 1.408 . S
C6570 C6568 1.363 . S
C6570 C6571 1.370 . S
C6570 C6574 1.524 . S
C6571 C6563 1.503 . S
C6571 C6570 1.370 . S
C6571 C6572 1.403 . S
C6572 C6571 1.403 . S
C6572 C6573 1.404 . S
C6572 C6575 1.539 . S
C6573 C6569 1.408 . S
C6573 C6572 1.404 . S
C6573 H6585 0.930 . S
C6574 C6570 1.524 . S
C6574 H6586 0.956 . S
C6574 H6587 0.961 . S
C6574 H6588 0.961 . S
C6575 C6572 1.539 . S
C6575 H6589 0.958 . S
C6575 H6590 0.961 . S
C6575 H6591 0.960 . S
H6576 C6560 0.931 . S
H6577 C6565 0.929 . S
H6578 C6566 0.960 . S
H6579 C6566 0.962 . S
H6580 C6566 0.960 . S
H6581 C6567 0.961 . S
H6582 C6567 0.961 . S
H6583 C6567 0.961 . S
H6584 C6568 0.931 . S
H6585 C6573 0.930 . S
H6586 C6574 0.956 . S
H6587 C6574 0.961 . S
H6588 C6574 0.961 . S
H6589 C6575 0.958 . S
H6590 C6575 0.961 . S
H6591 C6575 0.960 . S
C6592 C6593 1.391 . S
C6592 C6594 1.394 . S
C6592 H6608 0.931 . S
C6593 C6592 1.391 . S
C6593 C6597 1.376 . S
C6594 C6592 1.394 . S
C6594 C6595 1.369 . S
C6594 C6598 1.531 . S
C6595 C6594 1.369 . S
C6595 C6596 1.410 . S
C6595 C6603 1.503 . S
C6596 C6595 1.410 . S
C6596 C6597 1.392 . S
C6596 C6599 1.511 . S
C6597 C6593 1.376 . S
C6597 C6596 1.392 . S
C6597 H6609 0.929 . S
C6598 C6594 1.531 . S
C6598 H6610 0.960 . S
C6598 H6611 0.962 . S
C6598 H6612 0.960 . S
C6599 C6596 1.511 . S
C6599 H6613 0.961 . S
C6599 H6614 0.961 . S
C6599 H6615 0.961 . S
C6600 C6601 1.370 . S
C6600 C6602 1.363 . S
C6600 H6616 0.931 . S
C6601 C6600 1.370 . S
C6601 C6605 1.408 . S
C6602 C6600 1.363 . S
C6602 C6603 1.370 . S
C6602 C6606 1.524 . S
C6603 C6595 1.503 . S
C6603 C6602 1.370 . S
C6603 C6604 1.403 . S
C6604 C6603 1.403 . S
C6604 C6605 1.404 . S
C6604 C6607 1.539 . S
C6605 C6601 1.408 . S
C6605 C6604 1.404 . S
C6605 H6617 0.930 . S
C6606 C6602 1.524 . S
C6606 H6618 0.956 . S
C6606 H6619 0.961 . S
C6606 H6620 0.961 . S
C6607 C6604 1.539 . S
C6607 H6621 0.958 . S
C6607 H6622 0.961 . S
C6607 H6623 0.960 . S
H6608 C6592 0.931 . S
H6609 C6597 0.929 . S
H6610 C6598 0.960 . S
H6611 C6598 0.962 . S
H6612 C6598 0.960 . S
H6613 C6599 0.961 . S
H6614 C6599 0.961 . S
H6615 C6599 0.961 . S
H6616 C6600 0.931 . S
H6617 C6605 0.930 . S
H6618 C6606 0.956 . S
H6619 C6606 0.961 . S
H6620 C6606 0.961 . S
H6621 C6607 0.958 . S
H6622 C6607 0.961 . S
H6623 C6607 0.960 . S
C6624 C6625 1.391 . S
C6624 C6626 1.394 . S
C6624 H6640 0.931 . S
C6625 C6624 1.391 . S
C6625 C6629 1.376 . S
C6626 C6624 1.394 . S
C6626 C6627 1.369 . S
C6626 C6630 1.531 . S
C6627 C6626 1.369 . S
C6627 C6628 1.410 . S
C6627 C6635 1.503 . S
C6628 C6627 1.410 . S
C6628 C6629 1.392 . S
C6628 C6631 1.511 . S
C6629 C6625 1.376 . S
C6629 C6628 1.392 . S
C6629 H6641 0.929 . S
C6630 C6626 1.531 . S
C6630 H6642 0.960 . S
C6630 H6643 0.962 . S
C6630 H6644 0.960 . S
C6631 C6628 1.511 . S
C6631 H6645 0.961 . S
C6631 H6646 0.961 . S
C6631 H6647 0.961 . S
C6632 C6633 1.370 . S
C6632 C6634 1.363 . S
C6632 H6648 0.931 . S
C6633 C6632 1.370 . S
C6633 C6637 1.408 . S
C6634 C6632 1.363 . S
C6634 C6635 1.370 . S
C6634 C6638 1.524 . S
C6635 C6627 1.503 . S
C6635 C6634 1.370 . S
C6635 C6636 1.403 . S
C6636 C6635 1.403 . S
C6636 C6637 1.404 . S
C6636 C6639 1.539 . S
C6637 C6633 1.408 . S
C6637 C6636 1.404 . S
C6637 H6649 0.930 . S
C6638 C6634 1.524 . S
C6638 H6650 0.956 . S
C6638 H6651 0.961 . S
C6638 H6652 0.961 . S
C6639 C6636 1.539 . S
C6639 H6653 0.958 . S
C6639 H6654 0.961 . S
C6639 H6655 0.960 . S
H6640 C6624 0.931 . S
H6641 C6629 0.929 . S
H6642 C6630 0.960 . S
H6643 C6630 0.962 . S
H6644 C6630 0.960 . S
H6645 C6631 0.961 . S
H6646 C6631 0.961 . S
H6647 C6631 0.961 . S
H6648 C6632 0.931 . S
H6649 C6637 0.930 . S
H6650 C6638 0.956 . S
H6651 C6638 0.961 . S
H6652 C6638 0.961 . S
H6653 C6639 0.958 . S
H6654 C6639 0.961 . S
H6655 C6639 0.960 . S
C6656 C6657 1.391 . S
C6656 C6658 1.394 . S
C6656 H6672 0.931 . S
C6657 C6656 1.391 . S
C6657 C6661 1.376 . S
C6658 C6656 1.394 . S
C6658 C6659 1.369 . S
C6658 C6662 1.531 . S
C6659 C6658 1.369 . S
C6659 C6660 1.410 . S
C6659 C6667 1.503 . S
C6660 C6659 1.410 . S
C6660 C6661 1.392 . S
C6660 C6663 1.511 . S
C6661 C6657 1.376 . S
C6661 C6660 1.392 . S
C6661 H6673 0.929 . S
C6662 C6658 1.531 . S
C6662 H6674 0.960 . S
C6662 H6675 0.962 . S
C6662 H6676 0.960 . S
C6663 C6660 1.511 . S
C6663 H6677 0.961 . S
C6663 H6678 0.961 . S
C6663 H6679 0.961 . S
C6664 C6665 1.370 . S
C6664 C6666 1.363 . S
C6664 H6680 0.931 . S
C6665 C6664 1.370 . S
C6665 C6669 1.408 . S
C6666 C6664 1.363 . S
C6666 C6667 1.370 . S
C6666 C6670 1.524 . S
C6667 C6659 1.503 . S
C6667 C6666 1.370 . S
C6667 C6668 1.403 . S
C6668 C6667 1.403 . S
C6668 C6669 1.404 . S
C6668 C6671 1.539 . S
C6669 C6665 1.408 . S
C6669 C6668 1.404 . S
C6669 H6681 0.930 . S
C6670 C6666 1.524 . S
C6670 H6682 0.956 . S
C6670 H6683 0.961 . S
C6670 H6684 0.961 . S
C6671 C6668 1.539 . S
C6671 H6685 0.958 . S
C6671 H6686 0.961 . S
C6671 H6687 0.960 . S
H6672 C6656 0.931 . S
H6673 C6661 0.929 . S
H6674 C6662 0.960 . S
H6675 C6662 0.962 . S
H6676 C6662 0.960 . S
H6677 C6663 0.961 . S
H6678 C6663 0.961 . S
H6679 C6663 0.961 . S
H6680 C6664 0.931 . S
H6681 C6669 0.930 . S
H6682 C6670 0.956 . S
H6683 C6670 0.961 . S
H6684 C6670 0.961 . S
H6685 C6671 0.958 . S
H6686 C6671 0.961 . S
H6687 C6671 0.960 . S
C6688 C6689 1.391 . S
C6688 C6690 1.394 . S
C6688 H6704 0.931 . S
C6689 C6688 1.391 . S
C6689 C6693 1.376 . S
C6690 C6688 1.394 . S
C6690 C6691 1.369 . S
C6690 C6694 1.531 . S
C6691 C6690 1.369 . S
C6691 C6692 1.410 . S
C6691 C6699 1.503 . S
C6692 C6691 1.410 . S
C6692 C6693 1.392 . S
C6692 C6695 1.511 . S
C6693 C6689 1.376 . S
C6693 C6692 1.392 . S
C6693 H6705 0.929 . S
C6694 C6690 1.531 . S
C6694 H6706 0.960 . S
C6694 H6707 0.962 . S
C6694 H6708 0.960 . S
C6695 C6692 1.511 . S
C6695 H6709 0.961 . S
C6695 H6710 0.961 . S
C6695 H6711 0.961 . S
C6696 C6697 1.370 . S
C6696 C6698 1.363 . S
C6696 H6712 0.931 . S
C6697 C6696 1.370 . S
C6697 C6701 1.408 . S
C6698 C6696 1.363 . S
C6698 C6699 1.370 . S
C6698 C6702 1.524 . S
C6699 C6691 1.503 . S
C6699 C6698 1.370 . S
C6699 C6700 1.403 . S
C6700 C6699 1.403 . S
C6700 C6701 1.404 . S
C6700 C6703 1.539 . S
C6701 C6697 1.408 . S
C6701 C6700 1.404 . S
C6701 H6713 0.930 . S
C6702 C6698 1.524 . S
C6702 H6714 0.956 . S
C6702 H6715 0.961 . S
C6702 H6716 0.961 . S
C6703 C6700 1.539 . S
C6703 H6717 0.958 . S
C6703 H6718 0.961 . S
C6703 H6719 0.960 . S
H6704 C6688 0.931 . S
H6705 C6693 0.929 . S
H6706 C6694 0.960 . S
H6707 C6694 0.962 . S
H6708 C6694 0.960 . S
H6709 C6695 0.961 . S
H6710 C6695 0.961 . S
H6711 C6695 0.961 . S
H6712 C6696 0.931 . S
H6713 C6701 0.930 . S
H6714 C6702 0.956 . S
H6715 C6702 0.961 . S
H6716 C6702 0.961 . S
H6717 C6703 0.958 . S
H6718 C6703 0.961 . S
H6719 C6703 0.960 . S
C6720 C6721 1.391 . S
C6720 C6722 1.394 . S
C6720 H6736 0.931 . S
C6721 C6720 1.391 . S
C6721 C6725 1.376 . S
C6722 C6720 1.394 . S
C6722 C6723 1.369 . S
C6722 C6726 1.531 . S
C6723 C6722 1.369 . S
C6723 C6724 1.410 . S
C6723 C6731 1.503 . S
C6724 C6723 1.410 . S
C6724 C6725 1.392 . S
C6724 C6727 1.511 . S
C6725 C6721 1.376 . S
C6725 C6724 1.392 . S
C6725 H6737 0.929 . S
C6726 C6722 1.531 . S
C6726 H6738 0.960 . S
C6726 H6739 0.962 . S
C6726 H6740 0.960 . S
C6727 C6724 1.511 . S
C6727 H6741 0.961 . S
C6727 H6742 0.961 . S
C6727 H6743 0.961 . S
C6728 C6729 1.370 . S
C6728 C6730 1.363 . S
C6728 H6744 0.931 . S
C6729 C6728 1.370 . S
C6729 C6733 1.408 . S
C6730 C6728 1.363 . S
C6730 C6731 1.370 . S
C6730 C6734 1.524 . S
C6731 C6723 1.503 . S
C6731 C6730 1.370 . S
C6731 C6732 1.403 . S
C6732 C6731 1.403 . S
C6732 C6733 1.404 . S
C6732 C6735 1.539 . S
C6733 C6729 1.408 . S
C6733 C6732 1.404 . S
C6733 H6745 0.930 . S
C6734 C6730 1.524 . S
C6734 H6746 0.956 . S
C6734 H6747 0.961 . S
C6734 H6748 0.961 . S
C6735 C6732 1.539 . S
C6735 H6749 0.958 . S
C6735 H6750 0.961 . S
C6735 H6751 0.960 . S
H6736 C6720 0.931 . S
H6737 C6725 0.929 . S
H6738 C6726 0.960 . S
H6739 C6726 0.962 . S
H6740 C6726 0.960 . S
H6741 C6727 0.961 . S
H6742 C6727 0.961 . S
H6743 C6727 0.961 . S
H6744 C6728 0.931 . S
H6745 C6733 0.930 . S
H6746 C6734 0.956 . S
H6747 C6734 0.961 . S
H6748 C6734 0.961 . S
H6749 C6735 0.958 . S
H6750 C6735 0.961 . S
H6751 C6735 0.960 . S
C6752 C6753 1.391 . S
C6752 C6754 1.394 . S
C6752 H6768 0.931 . S
C6753 C6752 1.391 . S
C6753 C6757 1.376 . S
C6754 C6752 1.394 . S
C6754 C6755 1.369 . S
C6754 C6758 1.531 . S
C6755 C6754 1.369 . S
C6755 C6756 1.410 . S
C6755 C6763 1.503 . S
C6756 C6755 1.410 . S
C6756 C6757 1.392 . S
C6756 C6759 1.511 . S
C6757 C6753 1.376 . S
C6757 C6756 1.392 . S
C6757 H6769 0.929 . S
C6758 C6754 1.531 . S
C6758 H6770 0.960 . S
C6758 H6771 0.962 . S
C6758 H6772 0.960 . S
C6759 C6756 1.511 . S
C6759 H6773 0.961 . S
C6759 H6774 0.961 . S
C6759 H6775 0.961 . S
C6760 C6761 1.370 . S
C6760 C6762 1.363 . S
C6760 H6776 0.931 . S
C6761 C6760 1.370 . S
C6761 C6765 1.408 . S
C6762 C6760 1.363 . S
C6762 C6763 1.370 . S
C6762 C6766 1.524 . S
C6763 C6755 1.503 . S
C6763 C6762 1.370 . S
C6763 C6764 1.403 . S
C6764 C6763 1.403 . S
C6764 C6765 1.404 . S
C6764 C6767 1.539 . S
C6765 C6761 1.408 . S
C6765 C6764 1.404 . S
C6765 H6777 0.930 . S
C6766 C6762 1.524 . S
C6766 H6778 0.956 . S
C6766 H6779 0.961 . S
C6766 H6780 0.961 . S
C6767 C6764 1.539 . S
C6767 H6781 0.958 . S
C6767 H6782 0.961 . S
C6767 H6783 0.960 . S
H6768 C6752 0.931 . S
H6769 C6757 0.929 . S
H6770 C6758 0.960 . S
H6771 C6758 0.962 . S
H6772 C6758 0.960 . S
H6773 C6759 0.961 . S
H6774 C6759 0.961 . S
H6775 C6759 0.961 . S
H6776 C6760 0.931 . S
H6777 C6765 0.930 . S
H6778 C6766 0.956 . S
H6779 C6766 0.961 . S
H6780 C6766 0.961 . S
H6781 C6767 0.958 . S
H6782 C6767 0.961 . S
H6783 C6767 0.960 . S
C6784 C6785 1.391 . S
C6784 C6786 1.394 . S
C6784 H6800 0.931 . S
C6785 C6784 1.391 . S
C6785 C6789 1.376 . S
C6786 C6784 1.394 . S
C6786 C6787 1.369 . S
C6786 C6790 1.531 . S
C6787 C6786 1.369 . S
C6787 C6788 1.410 . S
C6787 C6795 1.503 . S
C6788 C6787 1.410 . S
C6788 C6789 1.392 . S
C6788 C6791 1.511 . S
C6789 C6785 1.376 . S
C6789 C6788 1.392 . S
C6789 H6801 0.929 . S
C6790 C6786 1.531 . S
C6790 H6802 0.960 . S
C6790 H6803 0.962 . S
C6790 H6804 0.960 . S
C6791 C6788 1.511 . S
C6791 H6805 0.961 . S
C6791 H6806 0.961 . S
C6791 H6807 0.961 . S
C6792 C6793 1.370 . S
C6792 C6794 1.363 . S
C6792 H6808 0.931 . S
C6793 C6792 1.370 . S
C6793 C6797 1.408 . S
C6794 C6792 1.363 . S
C6794 C6795 1.370 . S
C6794 C6798 1.524 . S
C6795 C6787 1.503 . S
C6795 C6794 1.370 . S
C6795 C6796 1.403 . S
C6796 C6795 1.403 . S
C6796 C6797 1.404 . S
C6796 C6799 1.539 . S
C6797 C6793 1.408 . S
C6797 C6796 1.404 . S
C6797 H6809 0.930 . S
C6798 C6794 1.524 . S
C6798 H6810 0.956 . S
C6798 H6811 0.961 . S
C6798 H6812 0.961 . S
C6799 C6796 1.539 . S
C6799 H6813 0.958 . S
C6799 H6814 0.961 . S
C6799 H6815 0.960 . S
H6800 C6784 0.931 . S
H6801 C6789 0.929 . S
H6802 C6790 0.960 . S
H6803 C6790 0.962 . S
H6804 C6790 0.960 . S
H6805 C6791 0.961 . S
H6806 C6791 0.961 . S
H6807 C6791 0.961 . S
H6808 C6792 0.931 . S
H6809 C6797 0.930 . S
H6810 C6798 0.956 . S
H6811 C6798 0.961 . S
H6812 C6798 0.961 . S
H6813 C6799 0.958 . S
H6814 C6799 0.961 . S
H6815 C6799 0.960 . S
C6816 C6817 1.391 . S
C6816 C6818 1.394 . S
C6816 H6832 0.931 . S
C6817 C6816 1.391 . S
C6817 C6821 1.376 . S
C6818 C6816 1.394 . S
C6818 C6819 1.369 . S
C6818 C6822 1.531 . S
C6819 C6818 1.369 . S
C6819 C6820 1.410 . S
C6819 C6827 1.503 . S
C6820 C6819 1.410 . S
C6820 C6821 1.392 . S
C6820 C6823 1.511 . S
C6821 C6817 1.376 . S
C6821 C6820 1.392 . S
C6821 H6833 0.929 . S
C6822 C6818 1.531 . S
C6822 H6834 0.960 . S
C6822 H6835 0.962 . S
C6822 H6836 0.960 . S
C6823 C6820 1.511 . S
C6823 H6837 0.961 . S
C6823 H6838 0.961 . S
C6823 H6839 0.961 . S
C6824 C6825 1.370 . S
C6824 C6826 1.363 . S
C6824 H6840 0.931 . S
C6825 C6824 1.370 . S
C6825 C6829 1.408 . S
C6826 C6824 1.363 . S
C6826 C6827 1.370 . S
C6826 C6830 1.524 . S
C6827 C6819 1.503 . S
C6827 C6826 1.370 . S
C6827 C6828 1.403 . S
C6828 C6827 1.403 . S
C6828 C6829 1.404 . S
C6828 C6831 1.539 . S
C6829 C6825 1.408 . S
C6829 C6828 1.404 . S
C6829 H6841 0.930 . S
C6830 C6826 1.524 . S
C6830 H6842 0.956 . S
C6830 H6843 0.961 . S
C6830 H6844 0.961 . S
C6831 C6828 1.539 . S
C6831 H6845 0.958 . S
C6831 H6846 0.961 . S
C6831 H6847 0.960 . S
H6832 C6816 0.931 . S
H6833 C6821 0.929 . S
H6834 C6822 0.960 . S
H6835 C6822 0.962 . S
H6836 C6822 0.960 . S
H6837 C6823 0.961 . S
H6838 C6823 0.961 . S
H6839 C6823 0.961 . S
H6840 C6824 0.931 . S
H6841 C6829 0.930 . S
H6842 C6830 0.956 . S
H6843 C6830 0.961 . S
H6844 C6830 0.961 . S
H6845 C6831 0.958 . S
H6846 C6831 0.961 . S
H6847 C6831 0.960 . S
C6848 C6849 1.391 . S
C6848 C6850 1.394 . S
C6848 H6864 0.931 . S
C6849 C6848 1.391 . S
C6849 C6853 1.376 . S
C6850 C6848 1.394 . S
C6850 C6851 1.369 . S
C6850 C6854 1.531 . S
C6851 C6850 1.369 . S
C6851 C6852 1.410 . S
C6851 C6859 1.503 . S
C6852 C6851 1.410 . S
C6852 C6853 1.392 . S
C6852 C6855 1.511 . S
C6853 C6849 1.376 . S
C6853 C6852 1.392 . S
C6853 H6865 0.929 . S
C6854 C6850 1.531 . S
C6854 H6866 0.960 . S
C6854 H6867 0.962 . S
C6854 H6868 0.960 . S
C6855 C6852 1.511 . S
C6855 H6869 0.961 . S
C6855 H6870 0.961 . S
C6855 H6871 0.961 . S
C6856 C6857 1.370 . S
C6856 C6858 1.363 . S
C6856 H6872 0.931 . S
C6857 C6856 1.370 . S
C6857 C6861 1.408 . S
C6858 C6856 1.363 . S
C6858 C6859 1.370 . S
C6858 C6862 1.524 . S
C6859 C6851 1.503 . S
C6859 C6858 1.370 . S
C6859 C6860 1.403 . S
C6860 C6859 1.403 . S
C6860 C6861 1.404 . S
C6860 C6863 1.539 . S
C6861 C6857 1.408 . S
C6861 C6860 1.404 . S
C6861 H6873 0.930 . S
C6862 C6858 1.524 . S
C6862 H6874 0.956 . S
C6862 H6875 0.961 . S
C6862 H6876 0.961 . S
C6863 C6860 1.539 . S
C6863 H6877 0.958 . S
C6863 H6878 0.961 . S
C6863 H6879 0.960 . S
H6864 C6848 0.931 . S
H6865 C6853 0.929 . S
H6866 C6854 0.960 . S
H6867 C6854 0.962 . S
H6868 C6854 0.960 . S
H6869 C6855 0.961 . S
H6870 C6855 0.961 . S
H6871 C6855 0.961 . S
H6872 C6856 0.931 . S
H6873 C6861 0.930 . S
H6874 C6862 0.956 . S
H6875 C6862 0.961 . S
H6876 C6862 0.961 . S
H6877 C6863 0.958 . S
H6878 C6863 0.961 . S
H6879 C6863 0.960 . S
C6880 C6881 1.391 . S
C6880 C6882 1.394 . S
C6880 H6896 0.931 . S
C6881 C6880 1.391 . S
C6881 C6885 1.376 . S
C6882 C6880 1.394 . S
C6882 C6883 1.369 . S
C6882 C6886 1.531 . S
C6883 C6882 1.369 . S
C6883 C6884 1.410 . S
C6883 C6891 1.503 . S
C6884 C6883 1.410 . S
C6884 C6885 1.392 . S
C6884 C6887 1.511 . S
C6885 C6881 1.376 . S
C6885 C6884 1.392 . S
C6885 H6897 0.929 . S
C6886 C6882 1.531 . S
C6886 H6898 0.960 . S
C6886 H6899 0.962 . S
C6886 H6900 0.960 . S
C6887 C6884 1.511 . S
C6887 H6901 0.961 . S
C6887 H6902 0.961 . S
C6887 H6903 0.961 . S
C6888 C6889 1.370 . S
C6888 C6890 1.363 . S
C6888 H6904 0.931 . S
C6889 C6888 1.370 . S
C6889 C6893 1.408 . S
C6890 C6888 1.363 . S
C6890 C6891 1.370 . S
C6890 C6894 1.524 . S
C6891 C6883 1.503 . S
C6891 C6890 1.370 . S
C6891 C6892 1.403 . S
C6892 C6891 1.403 . S
C6892 C6893 1.404 . S
C6892 C6895 1.539 . S
C6893 C6889 1.408 . S
C6893 C6892 1.404 . S
C6893 H6905 0.930 . S
C6894 C6890 1.524 . S
C6894 H6906 0.956 . S
C6894 H6907 0.961 . S
C6894 H6908 0.961 . S
C6895 C6892 1.539 . S
C6895 H6909 0.958 . S
C6895 H6910 0.961 . S
C6895 H6911 0.960 . S
H6896 C6880 0.931 . S
H6897 C6885 0.929 . S
H6898 C6886 0.960 . S
H6899 C6886 0.962 . S
H6900 C6886 0.960 . S
H6901 C6887 0.961 . S
H6902 C6887 0.961 . S
H6903 C6887 0.961 . S
H6904 C6888 0.931 . S
H6905 C6893 0.930 . S
H6906 C6894 0.956 . S
H6907 C6894 0.961 . S
H6908 C6894 0.961 . S
H6909 C6895 0.958 . S
H6910 C6895 0.961 . S
H6911 C6895 0.960 . S
C6912 C6913 1.391 . S
C6912 C6914 1.394 . S
C6912 H6928 0.931 . S
C6913 C6912 1.391 . S
C6913 C6917 1.376 . S
C6914 C6912 1.394 . S
C6914 C6915 1.369 . S
C6914 C6918 1.531 . S
C6915 C6914 1.369 . S
C6915 C6916 1.410 . S
C6915 C6923 1.503 . S
C6916 C6915 1.410 . S
C6916 C6917 1.392 . S
C6916 C6919 1.511 . S
C6917 C6913 1.376 . S
C6917 C6916 1.392 . S
C6917 H6929 0.929 . S
C6918 C6914 1.531 . S
C6918 H6930 0.960 . S
C6918 H6931 0.962 . S
C6918 H6932 0.960 . S
C6919 C6916 1.511 . S
C6919 H6933 0.961 . S
C6919 H6934 0.961 . S
C6919 H6935 0.961 . S
C6920 C6921 1.370 . S
C6920 C6922 1.363 . S
C6920 H6936 0.931 . S
C6921 C6920 1.370 . S
C6921 C6925 1.408 . S
C6922 C6920 1.363 . S
C6922 C6923 1.370 . S
C6922 C6926 1.524 . S
C6923 C6915 1.503 . S
C6923 C6922 1.370 . S
C6923 C6924 1.403 . S
C6924 C6923 1.403 . S
C6924 C6925 1.404 . S
C6924 C6927 1.539 . S
C6925 C6921 1.408 . S
C6925 C6924 1.404 . S
C6925 H6937 0.930 . S
C6926 C6922 1.524 . S
C6926 H6938 0.956 . S
C6926 H6939 0.961 . S
C6926 H6940 0.961 . S
C6927 C6924 1.539 . S
C6927 H6941 0.958 . S
C6927 H6942 0.961 . S
C6927 H6943 0.960 . S
H6928 C6912 0.931 . S
H6929 C6917 0.929 . S
H6930 C6918 0.960 . S
H6931 C6918 0.962 . S
H6932 C6918 0.960 . S
H6933 C6919 0.961 . S
H6934 C6919 0.961 . S
H6935 C6919 0.961 . S
H6936 C6920 0.931 . S
H6937 C6925 0.930 . S
H6938 C6926 0.956 . S
H6939 C6926 0.961 . S
H6940 C6926 0.961 . S
H6941 C6927 0.958 . S
H6942 C6927 0.961 . S
H6943 C6927 0.960 . S
C6944 C6945 1.391 . S
C6944 C6946 1.394 . S
C6944 H6960 0.931 . S
C6945 C6944 1.391 . S
C6945 C6949 1.376 . S
C6946 C6944 1.394 . S
C6946 C6947 1.369 . S
C6946 C6950 1.531 . S
C6947 C6946 1.369 . S
C6947 C6948 1.410 . S
C6947 C6955 1.503 . S
C6948 C6947 1.410 . S
C6948 C6949 1.392 . S
C6948 C6951 1.511 . S
C6949 C6945 1.376 . S
C6949 C6948 1.392 . S
C6949 H6961 0.929 . S
C6950 C6946 1.531 . S
C6950 H6962 0.960 . S
C6950 H6963 0.962 . S
C6950 H6964 0.960 . S
C6951 C6948 1.511 . S
C6951 H6965 0.961 . S
C6951 H6966 0.961 . S
C6951 H6967 0.961 . S
C6952 C6953 1.370 . S
C6952 C6954 1.363 . S
C6952 H6968 0.931 . S
C6953 C6952 1.370 . S
C6953 C6957 1.408 . S
C6954 C6952 1.363 . S
C6954 C6955 1.370 . S
C6954 C6958 1.524 . S
C6955 C6947 1.503 . S
C6955 C6954 1.370 . S
C6955 C6956 1.403 . S
C6956 C6955 1.403 . S
C6956 C6957 1.404 . S
C6956 C6959 1.539 . S
C6957 C6953 1.408 . S
C6957 C6956 1.404 . S
C6957 H6969 0.930 . S
C6958 C6954 1.524 . S
C6958 H6970 0.956 . S
C6958 H6971 0.961 . S
C6958 H6972 0.961 . S
C6959 C6956 1.539 . S
C6959 H6973 0.958 . S
C6959 H6974 0.961 . S
C6959 H6975 0.960 . S
H6960 C6944 0.931 . S
H6961 C6949 0.929 . S
H6962 C6950 0.960 . S
H6963 C6950 0.962 . S
H6964 C6950 0.960 . S
H6965 C6951 0.961 . S
H6966 C6951 0.961 . S
H6967 C6951 0.961 . S
H6968 C6952 0.931 . S
H6969 C6957 0.930 . S
H6970 C6958 0.956 . S
H6971 C6958 0.961 . S
H6972 C6958 0.961 . S
H6973 C6959 0.958 . S
H6974 C6959 0.961 . S
H6975 C6959 0.960 . S
C6976 C6977 1.391 . S
C6976 C6978 1.394 . S
C6976 H6992 0.931 . S
C6977 C6976 1.391 . S
C6977 C6981 1.376 . S
C6978 C6976 1.394 . S
C6978 C6979 1.369 . S
C6978 C6982 1.531 . S
C6979 C6978 1.369 . S
C6979 C6980 1.410 . S
C6979 C6987 1.503 . S
C6980 C6979 1.410 . S
C6980 C6981 1.392 . S
C6980 C6983 1.511 . S
C6981 C6977 1.376 . S
C6981 C6980 1.392 . S
C6981 H6993 0.929 . S
C6982 C6978 1.531 . S
C6982 H6994 0.960 . S
C6982 H6995 0.962 . S
C6982 H6996 0.960 . S
C6983 C6980 1.511 . S
C6983 H6997 0.961 . S
C6983 H6998 0.961 . S
C6983 H6999 0.961 . S
C6984 C6985 1.370 . S
C6984 C6986 1.363 . S
C6984 H7000 0.931 . S
C6985 C6984 1.370 . S
C6985 C6989 1.408 . S
C6986 C6984 1.363 . S
C6986 C6987 1.370 . S
C6986 C6990 1.524 . S
C6987 C6979 1.503 . S
C6987 C6986 1.370 . S
C6987 C6988 1.403 . S
C6988 C6987 1.403 . S
C6988 C6989 1.404 . S
C6988 C6991 1.539 . S
C6989 C6985 1.408 . S
C6989 C6988 1.404 . S
C6989 H7001 0.930 . S
C6990 C6986 1.524 . S
C6990 H7002 0.956 . S
C6990 H7003 0.961 . S
C6990 H7004 0.961 . S
C6991 C6988 1.539 . S
C6991 H7005 0.958 . S
C6991 H7006 0.961 . S
C6991 H7007 0.960 . S
H6992 C6976 0.931 . S
H6993 C6981 0.929 . S
H6994 C6982 0.960 . S
H6995 C6982 0.962 . S
H6996 C6982 0.960 . S
H6997 C6983 0.961 . S
H6998 C6983 0.961 . S
H6999 C6983 0.961 . S
H7000 C6984 0.931 . S
H7001 C6989 0.930 . S
H7002 C6990 0.956 . S
H7003 C6990 0.961 . S
H7004 C6990 0.961 . S
H7005 C6991 0.958 . S
H7006 C6991 0.961 . S
H7007 C6991 0.960 . S
C7008 C7009 1.391 . S
C7008 C7010 1.394 . S
C7008 H7024 0.931 . S
C7009 C7008 1.391 . S
C7009 C7013 1.376 . S
C7010 C7008 1.394 . S
C7010 C7011 1.369 . S
C7010 C7014 1.531 . S
C7011 C7010 1.369 . S
C7011 C7012 1.410 . S
C7011 C7019 1.503 . S
C7012 C7011 1.410 . S
C7012 C7013 1.392 . S
C7012 C7015 1.511 . S
C7013 C7009 1.376 . S
C7013 C7012 1.392 . S
C7013 H7025 0.929 . S
C7014 C7010 1.531 . S
C7014 H7026 0.960 . S
C7014 H7027 0.962 . S
C7014 H7028 0.960 . S
C7015 C7012 1.511 . S
C7015 H7029 0.961 . S
C7015 H7030 0.961 . S
C7015 H7031 0.961 . S
C7016 C7017 1.370 . S
C7016 C7018 1.363 . S
C7016 H7032 0.931 . S
C7017 C7016 1.370 . S
C7017 C7021 1.408 . S
C7018 C7016 1.363 . S
C7018 C7019 1.370 . S
C7018 C7022 1.524 . S
C7019 C7011 1.503 . S
C7019 C7018 1.370 . S
C7019 C7020 1.403 . S
C7020 C7019 1.403 . S
C7020 C7021 1.404 . S
C7020 C7023 1.539 . S
C7021 C7017 1.408 . S
C7021 C7020 1.404 . S
C7021 H7033 0.930 . S
C7022 C7018 1.524 . S
C7022 H7034 0.956 . S
C7022 H7035 0.961 . S
C7022 H7036 0.961 . S
C7023 C7020 1.539 . S
C7023 H7037 0.958 . S
C7023 H7038 0.961 . S
C7023 H7039 0.960 . S
H7024 C7008 0.931 . S
H7025 C7013 0.929 . S
H7026 C7014 0.960 . S
H7027 C7014 0.962 . S
H7028 C7014 0.960 . S
H7029 C7015 0.961 . S
H7030 C7015 0.961 . S
H7031 C7015 0.961 . S
H7032 C7016 0.931 . S
H7033 C7021 0.930 . S
H7034 C7022 0.956 . S
H7035 C7022 0.961 . S
H7036 C7022 0.961 . S
H7037 C7023 0.958 . S
H7038 C7023 0.961 . S
H7039 C7023 0.960 . S
C7040 C7041 1.391 . S
C7040 C7042 1.394 . S
C7040 H7056 0.931 . S
C7041 C7040 1.391 . S
C7041 C7045 1.376 . S
C7042 C7040 1.394 . S
C7042 C7043 1.369 . S
C7042 C7046 1.531 . S
C7043 C7042 1.369 . S
C7043 C7044 1.410 . S
C7043 C7051 1.503 . S
C7044 C7043 1.410 . S
C7044 C7045 1.392 . S
C7044 C7047 1.511 . S
C7045 C7041 1.376 . S
C7045 C7044 1.392 . S
C7045 H7057 0.929 . S
C7046 C7042 1.531 . S
C7046 H7058 0.960 . S
C7046 H7059 0.962 . S
C7046 H7060 0.960 . S
C7047 C7044 1.511 . S
C7047 H7061 0.961 . S
C7047 H7062 0.961 . S
C7047 H7063 0.961 . S
C7048 C7049 1.370 . S
C7048 C7050 1.363 . S
C7048 H7064 0.931 . S
C7049 C7048 1.370 . S
C7049 C7053 1.408 . S
C7050 C7048 1.363 . S
C7050 C7051 1.370 . S
C7050 C7054 1.524 . S
C7051 C7043 1.503 . S
C7051 C7050 1.370 . S
C7051 C7052 1.403 . S
C7052 C7051 1.403 . S
C7052 C7053 1.404 . S
C7052 C7055 1.539 . S
C7053 C7049 1.408 . S
C7053 C7052 1.404 . S
C7053 H7065 0.930 . S
C7054 C7050 1.524 . S
C7054 H7066 0.956 . S
C7054 H7067 0.961 . S
C7054 H7068 0.961 . S
C7055 C7052 1.539 . S
C7055 H7069 0.958 . S
C7055 H7070 0.961 . S
C7055 H7071 0.960 . S
H7056 C7040 0.931 . S
H7057 C7045 0.929 . S
H7058 C7046 0.960 . S
H7059 C7046 0.962 . S
H7060 C7046 0.960 . S
H7061 C7047 0.961 . S
H7062 C7047 0.961 . S
H7063 C7047 0.961 . S
H7064 C7048 0.931 . S
H7065 C7053 0.930 . S
H7066 C7054 0.956 . S
H7067 C7054 0.961 . S
H7068 C7054 0.961 . S
H7069 C7055 0.958 . S
H7070 C7055 0.961 . S
H7071 C7055 0.960 . S
C7072 C7073 1.391 . S
C7072 C7074 1.394 . S
C7072 H7088 0.931 . S
C7073 C7072 1.391 . S
C7073 C7077 1.376 . S
C7074 C7072 1.394 . S
C7074 C7075 1.369 . S
C7074 C7078 1.531 . S
C7075 C7074 1.369 . S
C7075 C7076 1.410 . S
C7075 C7083 1.503 . S
C7076 C7075 1.410 . S
C7076 C7077 1.392 . S
C7076 C7079 1.511 . S
C7077 C7073 1.376 . S
C7077 C7076 1.392 . S
C7077 H7089 0.929 . S
C7078 C7074 1.531 . S
C7078 H7090 0.960 . S
C7078 H7091 0.962 . S
C7078 H7092 0.960 . S
C7079 C7076 1.511 . S
C7079 H7093 0.961 . S
C7079 H7094 0.961 . S
C7079 H7095 0.961 . S
C7080 C7081 1.370 . S
C7080 C7082 1.363 . S
C7080 H7096 0.931 . S
C7081 C7080 1.370 . S
C7081 C7085 1.408 . S
C7082 C7080 1.363 . S
C7082 C7083 1.370 . S
C7082 C7086 1.524 . S
C7083 C7075 1.503 . S
C7083 C7082 1.370 . S
C7083 C7084 1.403 . S
C7084 C7083 1.403 . S
C7084 C7085 1.404 . S
C7084 C7087 1.539 . S
C7085 C7081 1.408 . S
C7085 C7084 1.404 . S
C7085 H7097 0.930 . S
C7086 C7082 1.524 . S
C7086 H7098 0.956 . S
C7086 H7099 0.961 . S
C7086 H7100 0.961 . S
C7087 C7084 1.539 . S
C7087 H7101 0.958 . S
C7087 H7102 0.961 . S
C7087 H7103 0.960 . S
H7088 C7072 0.931 . S
H7089 C7077 0.929 . S
H7090 C7078 0.960 . S
H7091 C7078 0.962 . S
H7092 C7078 0.960 . S
H7093 C7079 0.961 . S
H7094 C7079 0.961 . S
H7095 C7079 0.961 . S
H7096 C7080 0.931 . S
H7097 C7085 0.930 . S
H7098 C7086 0.956 . S
H7099 C7086 0.961 . S
H7100 C7086 0.961 . S
H7101 C7087 0.958 . S
H7102 C7087 0.961 . S
H7103 C7087 0.960 . S
C7104 C7105 1.391 . S
C7104 C7106 1.394 . S
C7104 H7120 0.931 . S
C7105 C7104 1.391 . S
C7105 C7109 1.376 . S
C7106 C7104 1.394 . S
C7106 C7107 1.369 . S
C7106 C7110 1.531 . S
C7107 C7106 1.369 . S
C7107 C7108 1.410 . S
C7107 C7115 1.503 . S
C7108 C7107 1.410 . S
C7108 C7109 1.392 . S
C7108 C7111 1.511 . S
C7109 C7105 1.376 . S
C7109 C7108 1.392 . S
C7109 H7121 0.929 . S
C7110 C7106 1.531 . S
C7110 H7122 0.960 . S
C7110 H7123 0.962 . S
C7110 H7124 0.960 . S
C7111 C7108 1.511 . S
C7111 H7125 0.961 . S
C7111 H7126 0.961 . S
C7111 H7127 0.961 . S
C7112 C7113 1.370 . S
C7112 C7114 1.363 . S
C7112 H7128 0.931 . S
C7113 C7112 1.370 . S
C7113 C7117 1.408 . S
C7114 C7112 1.363 . S
C7114 C7115 1.370 . S
C7114 C7118 1.524 . S
C7115 C7107 1.503 . S
C7115 C7114 1.370 . S
C7115 C7116 1.403 . S
C7116 C7115 1.403 . S
C7116 C7117 1.404 . S
C7116 C7119 1.539 . S
C7117 C7113 1.408 . S
C7117 C7116 1.404 . S
C7117 H7129 0.930 . S
C7118 C7114 1.524 . S
C7118 H7130 0.956 . S
C7118 H7131 0.961 . S
C7118 H7132 0.961 . S
C7119 C7116 1.539 . S
C7119 H7133 0.958 . S
C7119 H7134 0.961 . S
C7119 H7135 0.960 . S
H7120 C7104 0.931 . S
H7121 C7109 0.929 . S
H7122 C7110 0.960 . S
H7123 C7110 0.962 . S
H7124 C7110 0.960 . S
H7125 C7111 0.961 . S
H7126 C7111 0.961 . S
H7127 C7111 0.961 . S
H7128 C7112 0.931 . S
H7129 C7117 0.930 . S
H7130 C7118 0.956 . S
H7131 C7118 0.961 . S
H7132 C7118 0.961 . S
H7133 C7119 0.958 . S
H7134 C7119 0.961 . S
H7135 C7119 0.960 . S
C7136 C7137 1.391 . S
C7136 C7138 1.394 . S
C7136 H7152 0.931 . S
C7137 C7136 1.391 . S
C7137 C7141 1.376 . S
C7138 C7136 1.394 . S
C7138 C7139 1.369 . S
C7138 C7142 1.531 . S
C7139 C7138 1.369 . S
C7139 C7140 1.410 . S
C7139 C7147 1.503 . S
C7140 C7139 1.410 . S
C7140 C7141 1.392 . S
C7140 C7143 1.511 . S
C7141 C7137 1.376 . S
C7141 C7140 1.392 . S
C7141 H7153 0.929 . S
C7142 C7138 1.531 . S
C7142 H7154 0.960 . S
C7142 H7155 0.962 . S
C7142 H7156 0.960 . S
C7143 C7140 1.511 . S
C7143 H7157 0.961 . S
C7143 H7158 0.961 . S
C7143 H7159 0.961 . S
C7144 C7145 1.370 . S
C7144 C7146 1.363 . S
C7144 H7160 0.931 . S
C7145 C7144 1.370 . S
C7145 C7149 1.408 . S
C7146 C7144 1.363 . S
C7146 C7147 1.370 . S
C7146 C7150 1.524 . S
C7147 C7139 1.503 . S
C7147 C7146 1.370 . S
C7147 C7148 1.403 . S
C7148 C7147 1.403 . S
C7148 C7149 1.404 . S
C7148 C7151 1.539 . S
C7149 C7145 1.408 . S
C7149 C7148 1.404 . S
C7149 H7161 0.930 . S
C7150 C7146 1.524 . S
C7150 H7162 0.956 . S
C7150 H7163 0.961 . S
C7150 H7164 0.961 . S
C7151 C7148 1.539 . S
C7151 H7165 0.958 . S
C7151 H7166 0.961 . S
C7151 H7167 0.960 . S
H7152 C7136 0.931 . S
H7153 C7141 0.929 . S
H7154 C7142 0.960 . S
H7155 C7142 0.962 . S
H7156 C7142 0.960 . S
H7157 C7143 0.961 . S
H7158 C7143 0.961 . S
H7159 C7143 0.961 . S
H7160 C7144 0.931 . S
H7161 C7149 0.930 . S
H7162 C7150 0.956 . S
H7163 C7150 0.961 . S
H7164 C7150 0.961 . S
H7165 C7151 0.958 . S
H7166 C7151 0.961 . S
H7167 C7151 0.960 . S
C7168 C7169 1.391 . S
C7168 C7170 1.394 . S
C7168 H7184 0.931 . S
C7169 C7168 1.391 . S
C7169 C7173 1.376 . S
C7170 C7168 1.394 . S
C7170 C7171 1.369 . S
C7170 C7174 1.531 . S
C7171 C7170 1.369 . S
C7171 C7172 1.410 . S
C7171 C7179 1.503 . S
C7172 C7171 1.410 . S
C7172 C7173 1.392 . S
C7172 C7175 1.511 . S
C7173 C7169 1.376 . S
C7173 C7172 1.392 . S
C7173 H7185 0.929 . S
C7174 C7170 1.531 . S
C7174 H7186 0.960 . S
C7174 H7187 0.962 . S
C7174 H7188 0.960 . S
C7175 C7172 1.511 . S
C7175 H7189 0.961 . S
C7175 H7190 0.961 . S
C7175 H7191 0.961 . S
C7176 C7177 1.370 . S
C7176 C7178 1.363 . S
C7176 H7192 0.931 . S
C7177 C7176 1.370 . S
C7177 C7181 1.408 . S
C7178 C7176 1.363 . S
C7178 C7179 1.370 . S
C7178 C7182 1.524 . S
C7179 C7171 1.503 . S
C7179 C7178 1.370 . S
C7179 C7180 1.403 . S
C7180 C7179 1.403 . S
C7180 C7181 1.404 . S
C7180 C7183 1.539 . S
C7181 C7177 1.408 . S
C7181 C7180 1.404 . S
C7181 H7193 0.930 . S
C7182 C7178 1.524 . S
C7182 H7194 0.956 . S
C7182 H7195 0.961 . S
C7182 H7196 0.961 . S
C7183 C7180 1.539 . S
C7183 H7197 0.958 . S
C7183 H7198 0.961 . S
C7183 H7199 0.960 . S
H7184 C7168 0.931 . S
H7185 C7173 0.929 . S
H7186 C7174 0.960 . S
H7187 C7174 0.962 . S
H7188 C7174 0.960 . S
H7189 C7175 0.961 . S
H7190 C7175 0.961 . S
H7191 C7175 0.961 . S
H7192 C7176 0.931 . S
H7193 C7181 0.930 . S
H7194 C7182 0.956 . S
H7195 C7182 0.961 . S
H7196 C7182 0.961 . S
H7197 C7183 0.958 . S
H7198 C7183 0.961 . S
H7199 C7183 0.960 . S
C7200 C7201 1.391 . S
C7200 C7202 1.394 . S
C7200 H7216 0.931 . S
C7201 C7200 1.391 . S
C7201 C7205 1.376 . S
C7202 C7200 1.394 . S
C7202 C7203 1.369 . S
C7202 C7206 1.531 . S
C7203 C7202 1.369 . S
C7203 C7204 1.410 . S
C7203 C7211 1.503 . S
C7204 C7203 1.410 . S
C7204 C7205 1.392 . S
C7204 C7207 1.511 . S
C7205 C7201 1.376 . S
C7205 C7204 1.392 . S
C7205 H7217 0.929 . S
C7206 C7202 1.531 . S
C7206 H7218 0.960 . S
C7206 H7219 0.962 . S
C7206 H7220 0.960 . S
C7207 C7204 1.511 . S
C7207 H7221 0.961 . S
C7207 H7222 0.961 . S
C7207 H7223 0.961 . S
C7208 C7209 1.370 . S
C7208 C7210 1.363 . S
C7208 H7224 0.931 . S
C7209 C7208 1.370 . S
C7209 C7213 1.408 . S
C7210 C7208 1.363 . S
C7210 C7211 1.370 . S
C7210 C7214 1.524 . S
C7211 C7203 1.503 . S
C7211 C7210 1.370 . S
C7211 C7212 1.403 . S
C7212 C7211 1.403 . S
C7212 C7213 1.404 . S
C7212 C7215 1.539 . S
C7213 C7209 1.408 . S
C7213 C7212 1.404 . S
C7213 H7225 0.930 . S
C7214 C7210 1.524 . S
C7214 H7226 0.956 . S
C7214 H7227 0.961 . S
C7214 H7228 0.961 . S
C7215 C7212 1.539 . S
C7215 H7229 0.958 . S
C7215 H7230 0.961 . S
C7215 H7231 0.960 . S
H7216 C7200 0.931 . S
H7217 C7205 0.929 . S
H7218 C7206 0.960 . S
H7219 C7206 0.962 . S
H7220 C7206 0.960 . S
H7221 C7207 0.961 . S
H7222 C7207 0.961 . S
H7223 C7207 0.961 . S
H7224 C7208 0.931 . S
H7225 C7213 0.930 . S
H7226 C7214 0.956 . S
H7227 C7214 0.961 . S
H7228 C7214 0.961 . S
H7229 C7215 0.958 . S
H7230 C7215 0.961 . S
H7231 C7215 0.960 . S
C7232 C7233 1.391 . S
C7232 C7234 1.394 . S
C7232 H7248 0.931 . S
C7233 C7232 1.391 . S
C7233 C7237 1.376 . S
C7234 C7232 1.394 . S
C7234 C7235 1.369 . S
C7234 C7238 1.531 . S
C7235 C7234 1.369 . S
C7235 C7236 1.410 . S
C7235 C7243 1.503 . S
C7236 C7235 1.410 . S
C7236 C7237 1.392 . S
C7236 C7239 1.511 . S
C7237 C7233 1.376 . S
C7237 C7236 1.392 . S
C7237 H7249 0.929 . S
C7238 C7234 1.531 . S
C7238 H7250 0.960 . S
C7238 H7251 0.962 . S
C7238 H7252 0.960 . S
C7239 C7236 1.511 . S
C7239 H7253 0.961 . S
C7239 H7254 0.961 . S
C7239 H7255 0.961 . S
C7240 C7241 1.370 . S
C7240 C7242 1.363 . S
C7240 H7256 0.931 . S
C7241 C7240 1.370 . S
C7241 C7245 1.408 . S
C7242 C7240 1.363 . S
C7242 C7243 1.370 . S
C7242 C7246 1.524 . S
C7243 C7235 1.503 . S
C7243 C7242 1.370 . S
C7243 C7244 1.403 . S
C7244 C7243 1.403 . S
C7244 C7245 1.404 . S
C7244 C7247 1.539 . S
C7245 C7241 1.408 . S
C7245 C7244 1.404 . S
C7245 H7257 0.930 . S
C7246 C7242 1.524 . S
C7246 H7258 0.956 . S
C7246 H7259 0.961 . S
C7246 H7260 0.961 . S
C7247 C7244 1.539 . S
C7247 H7261 0.958 . S
C7247 H7262 0.961 . S
C7247 H7263 0.960 . S
H7248 C7232 0.931 . S
H7249 C7237 0.929 . S
H7250 C7238 0.960 . S
H7251 C7238 0.962 . S
H7252 C7238 0.960 . S
H7253 C7239 0.961 . S
H7254 C7239 0.961 . S
H7255 C7239 0.961 . S
H7256 C7240 0.931 . S
H7257 C7245 0.930 . S
H7258 C7246 0.956 . S
H7259 C7246 0.961 . S
H7260 C7246 0.961 . S
H7261 C7247 0.958 . S
H7262 C7247 0.961 . S
H7263 C7247 0.960 . S
C7264 C7265 1.391 . S
C7264 C7266 1.394 . S
C7264 H7280 0.931 . S
C7265 C7264 1.391 . S
C7265 C7269 1.376 . S
C7266 C7264 1.394 . S
C7266 C7267 1.369 . S
C7266 C7270 1.531 . S
C7267 C7266 1.369 . S
C7267 C7268 1.410 . S
C7267 C7275 1.503 . S
C7268 C7267 1.410 . S
C7268 C7269 1.392 . S
C7268 C7271 1.511 . S
C7269 C7265 1.376 . S
C7269 C7268 1.392 . S
C7269 H7281 0.929 . S
C7270 C7266 1.531 . S
C7270 H7282 0.960 . S
C7270 H7283 0.962 . S
C7270 H7284 0.960 . S
C7271 C7268 1.511 . S
C7271 H7285 0.961 . S
C7271 H7286 0.961 . S
C7271 H7287 0.961 . S
C7272 C7273 1.370 . S
C7272 C7274 1.363 . S
C7272 H7288 0.931 . S
C7273 C7272 1.370 . S
C7273 C7277 1.408 . S
C7274 C7272 1.363 . S
C7274 C7275 1.370 . S
C7274 C7278 1.524 . S
C7275 C7267 1.503 . S
C7275 C7274 1.370 . S
C7275 C7276 1.403 . S
C7276 C7275 1.403 . S
C7276 C7277 1.404 . S
C7276 C7279 1.539 . S
C7277 C7273 1.408 . S
C7277 C7276 1.404 . S
C7277 H7289 0.930 . S
C7278 C7274 1.524 . S
C7278 H7290 0.956 . S
C7278 H7291 0.961 . S
C7278 H7292 0.961 . S
C7279 C7276 1.539 . S
C7279 H7293 0.958 . S
C7279 H7294 0.961 . S
C7279 H7295 0.960 . S
H7280 C7264 0.931 . S
H7281 C7269 0.929 . S
H7282 C7270 0.960 . S
H7283 C7270 0.962 . S
H7284 C7270 0.960 . S
H7285 C7271 0.961 . S
H7286 C7271 0.961 . S
H7287 C7271 0.961 . S
H7288 C7272 0.931 . S
H7289 C7277 0.930 . S
H7290 C7278 0.956 . S
H7291 C7278 0.961 . S
H7292 C7278 0.961 . S
H7293 C7279 0.958 . S
H7294 C7279 0.961 . S
H7295 C7279 0.960 . S
C7296 C7297 1.391 . S
C7296 C7298 1.394 . S
C7296 H7312 0.931 . S
C7297 C7296 1.391 . S
C7297 C7301 1.376 . S
C7298 C7296 1.394 . S
C7298 C7299 1.369 . S
C7298 C7302 1.531 . S
C7299 C7298 1.369 . S
C7299 C7300 1.410 . S
C7299 C7307 1.503 . S
C7300 C7299 1.410 . S
C7300 C7301 1.392 . S
C7300 C7303 1.511 . S
C7301 C7297 1.376 . S
C7301 C7300 1.392 . S
C7301 H7313 0.929 . S
C7302 C7298 1.531 . S
C7302 H7314 0.960 . S
C7302 H7315 0.962 . S
C7302 H7316 0.960 . S
C7303 C7300 1.511 . S
C7303 H7317 0.961 . S
C7303 H7318 0.961 . S
C7303 H7319 0.961 . S
C7304 C7305 1.370 . S
C7304 C7306 1.363 . S
C7304 H7320 0.931 . S
C7305 C7304 1.370 . S
C7305 C7309 1.408 . S
C7306 C7304 1.363 . S
C7306 C7307 1.370 . S
C7306 C7310 1.524 . S
C7307 C7299 1.503 . S
C7307 C7306 1.370 . S
C7307 C7308 1.403 . S
C7308 C7307 1.403 . S
C7308 C7309 1.404 . S
C7308 C7311 1.539 . S
C7309 C7305 1.408 . S
C7309 C7308 1.404 . S
C7309 H7321 0.930 . S
C7310 C7306 1.524 . S
C7310 H7322 0.956 . S
C7310 H7323 0.961 . S
C7310 H7324 0.961 . S
C7311 C7308 1.539 . S
C7311 H7325 0.958 . S
C7311 H7326 0.961 . S
C7311 H7327 0.960 . S
H7312 C7296 0.931 . S
H7313 C7301 0.929 . S
H7314 C7302 0.960 . S
H7315 C7302 0.962 . S
H7316 C7302 0.960 . S
H7317 C7303 0.961 . S
H7318 C7303 0.961 . S
H7319 C7303 0.961 . S
H7320 C7304 0.931 . S
H7321 C7309 0.930 . S
H7322 C7310 0.956 . S
H7323 C7310 0.961 . S
H7324 C7310 0.961 . S
H7325 C7311 0.958 . S
H7326 C7311 0.961 . S
H7327 C7311 0.960 . S
C7328 C7329 1.391 . S
C7328 C7330 1.394 . S
C7328 H7344 0.931 . S
C7329 C7328 1.391 . S
C7329 C7333 1.376 . S
C7330 C7328 1.394 . S
C7330 C7331 1.369 . S
C7330 C7334 1.531 . S
C7331 C7330 1.369 . S
C7331 C7332 1.410 . S
C7331 C7339 1.503 . S
C7332 C7331 1.410 . S
C7332 C7333 1.392 . S
C7332 C7335 1.511 . S
C7333 C7329 1.376 . S
C7333 C7332 1.392 . S
C7333 H7345 0.929 . S
C7334 C7330 1.531 . S
C7334 H7346 0.960 . S
C7334 H7347 0.962 . S
C7334 H7348 0.960 . S
C7335 C7332 1.511 . S
C7335 H7349 0.961 . S
C7335 H7350 0.961 . S
C7335 H7351 0.961 . S
C7336 C7337 1.370 . S
C7336 C7338 1.363 . S
C7336 H7352 0.931 . S
C7337 C7336 1.370 . S
C7337 C7341 1.408 . S
C7338 C7336 1.363 . S
C7338 C7339 1.370 . S
C7338 C7342 1.524 . S
C7339 C7331 1.503 . S
C7339 C7338 1.370 . S
C7339 C7340 1.403 . S
C7340 C7339 1.403 . S
C7340 C7341 1.404 . S
C7340 C7343 1.539 . S
C7341 C7337 1.408 . S
C7341 C7340 1.404 . S
C7341 H7353 0.930 . S
C7342 C7338 1.524 . S
C7342 H7354 0.956 . S
C7342 H7355 0.961 . S
C7342 H7356 0.961 . S
C7343 C7340 1.539 . S
C7343 H7357 0.958 . S
C7343 H7358 0.961 . S
C7343 H7359 0.960 . S
H7344 C7328 0.931 . S
H7345 C7333 0.929 . S
H7346 C7334 0.960 . S
H7347 C7334 0.962 . S
H7348 C7334 0.960 . S
H7349 C7335 0.961 . S
H7350 C7335 0.961 . S
H7351 C7335 0.961 . S
H7352 C7336 0.931 . S
H7353 C7341 0.930 . S
H7354 C7342 0.956 . S
H7355 C7342 0.961 . S
H7356 C7342 0.961 . S
H7357 C7343 0.958 . S
H7358 C7343 0.961 . S
H7359 C7343 0.960 . S
C7360 C7361 1.391 . S
C7360 C7362 1.394 . S
C7360 H7376 0.931 . S
C7361 C7360 1.391 . S
C7361 C7365 1.376 . S
C7362 C7360 1.394 . S
C7362 C7363 1.369 . S
C7362 C7366 1.531 . S
C7363 C7362 1.369 . S
C7363 C7364 1.410 . S
C7363 C7371 1.503 . S
C7364 C7363 1.410 . S
C7364 C7365 1.392 . S
C7364 C7367 1.511 . S
C7365 C7361 1.376 . S
C7365 C7364 1.392 . S
C7365 H7377 0.929 . S
C7366 C7362 1.531 . S
C7366 H7378 0.960 . S
C7366 H7379 0.962 . S
C7366 H7380 0.960 . S
C7367 C7364 1.511 . S
C7367 H7381 0.961 . S
C7367 H7382 0.961 . S
C7367 H7383 0.961 . S
C7368 C7369 1.370 . S
C7368 C7370 1.363 . S
C7368 H7384 0.931 . S
C7369 C7368 1.370 . S
C7369 C7373 1.408 . S
C7370 C7368 1.363 . S
C7370 C7371 1.370 . S
C7370 C7374 1.524 . S
C7371 C7363 1.503 . S
C7371 C7370 1.370 . S
C7371 C7372 1.403 . S
C7372 C7371 1.403 . S
C7372 C7373 1.404 . S
C7372 C7375 1.539 . S
C7373 C7369 1.408 . S
C7373 C7372 1.404 . S
C7373 H7385 0.930 . S
C7374 C7370 1.524 . S
C7374 H7386 0.956 . S
C7374 H7387 0.961 . S
C7374 H7388 0.961 . S
C7375 C7372 1.539 . S
C7375 H7389 0.958 . S
C7375 H7390 0.961 . S
C7375 H7391 0.960 . S
H7376 C7360 0.931 . S
H7377 C7365 0.929 . S
H7378 C7366 0.960 . S
H7379 C7366 0.962 . S
H7380 C7366 0.960 . S
H7381 C7367 0.961 . S
H7382 C7367 0.961 . S
H7383 C7367 0.961 . S
H7384 C7368 0.931 . S
H7385 C7373 0.930 . S
H7386 C7374 0.956 . S
H7387 C7374 0.961 . S
H7388 C7374 0.961 . S
H7389 C7375 0.958 . S
H7390 C7375 0.961 . S
H7391 C7375 0.960 . S
C7392 C7393 1.391 . S
C7392 C7394 1.394 . S
C7392 H7408 0.931 . S
C7393 C7392 1.391 . S
C7393 C7397 1.376 . S
C7394 C7392 1.394 . S
C7394 C7395 1.369 . S
C7394 C7398 1.531 . S
C7395 C7394 1.369 . S
C7395 C7396 1.410 . S
C7395 C7403 1.503 . S
C7396 C7395 1.410 . S
C7396 C7397 1.392 . S
C7396 C7399 1.511 . S
C7397 C7393 1.376 . S
C7397 C7396 1.392 . S
C7397 H7409 0.929 . S
C7398 C7394 1.531 . S
C7398 H7410 0.960 . S
C7398 H7411 0.962 . S
C7398 H7412 0.960 . S
C7399 C7396 1.511 . S
C7399 H7413 0.961 . S
C7399 H7414 0.961 . S
C7399 H7415 0.961 . S
C7400 C7401 1.370 . S
C7400 C7402 1.363 . S
C7400 H7416 0.931 . S
C7401 C7400 1.370 . S
C7401 C7405 1.408 . S
C7402 C7400 1.363 . S
C7402 C7403 1.370 . S
C7402 C7406 1.524 . S
C7403 C7395 1.503 . S
C7403 C7402 1.370 . S
C7403 C7404 1.403 . S
C7404 C7403 1.403 . S
C7404 C7405 1.404 . S
C7404 C7407 1.539 . S
C7405 C7401 1.408 . S
C7405 C7404 1.404 . S
C7405 H7417 0.930 . S
C7406 C7402 1.524 . S
C7406 H7418 0.956 . S
C7406 H7419 0.961 . S
C7406 H7420 0.961 . S
C7407 C7404 1.539 . S
C7407 H7421 0.958 . S
C7407 H7422 0.961 . S
C7407 H7423 0.960 . S
H7408 C7392 0.931 . S
H7409 C7397 0.929 . S
H7410 C7398 0.960 . S
H7411 C7398 0.962 . S
H7412 C7398 0.960 . S
H7413 C7399 0.961 . S
H7414 C7399 0.961 . S
H7415 C7399 0.961 . S
H7416 C7400 0.931 . S
H7417 C7405 0.930 . S
H7418 C7406 0.956 . S
H7419 C7406 0.961 . S
H7420 C7406 0.961 . S
H7421 C7407 0.958 . S
H7422 C7407 0.961 . S
H7423 C7407 0.960 . S
C7424 C7425 1.391 . S
C7424 C7426 1.394 . S
C7424 H7440 0.931 . S
C7425 C7424 1.391 . S
C7425 C7429 1.376 . S
C7426 C7424 1.394 . S
C7426 C7427 1.369 . S
C7426 C7430 1.531 . S
C7427 C7426 1.369 . S
C7427 C7428 1.410 . S
C7427 C7435 1.503 . S
C7428 C7427 1.410 . S
C7428 C7429 1.392 . S
C7428 C7431 1.511 . S
C7429 C7425 1.376 . S
C7429 C7428 1.392 . S
C7429 H7441 0.929 . S
C7430 C7426 1.531 . S
C7430 H7442 0.960 . S
C7430 H7443 0.962 . S
C7430 H7444 0.960 . S
C7431 C7428 1.511 . S
C7431 H7445 0.961 . S
C7431 H7446 0.961 . S
C7431 H7447 0.961 . S
C7432 C7433 1.370 . S
C7432 C7434 1.363 . S
C7432 H7448 0.931 . S
C7433 C7432 1.370 . S
C7433 C7437 1.408 . S
C7434 C7432 1.363 . S
C7434 C7435 1.370 . S
C7434 C7438 1.524 . S
C7435 C7427 1.503 . S
C7435 C7434 1.370 . S
C7435 C7436 1.403 . S
C7436 C7435 1.403 . S
C7436 C7437 1.404 . S
C7436 C7439 1.539 . S
C7437 C7433 1.408 . S
C7437 C7436 1.404 . S
C7437 H7449 0.930 . S
C7438 C7434 1.524 . S
C7438 H7450 0.956 . S
C7438 H7451 0.961 . S
C7438 H7452 0.961 . S
C7439 C7436 1.539 . S
C7439 H7453 0.958 . S
C7439 H7454 0.961 . S
C7439 H7455 0.960 . S
H7440 C7424 0.931 . S
H7441 C7429 0.929 . S
H7442 C7430 0.960 . S
H7443 C7430 0.962 . S
H7444 C7430 0.960 . S
H7445 C7431 0.961 . S
H7446 C7431 0.961 . S
H7447 C7431 0.961 . S
H7448 C7432 0.931 . S
H7449 C7437 0.930 . S
H7450 C7438 0.956 . S
H7451 C7438 0.961 . S
H7452 C7438 0.961 . S
H7453 C7439 0.958 . S
H7454 C7439 0.961 . S
H7455 C7439 0.960 . S
C7456 C7457 1.391 . S
C7456 C7458 1.394 . S
C7456 H7472 0.931 . S
C7457 C7456 1.391 . S
C7457 C7461 1.376 . S
C7458 C7456 1.394 . S
C7458 C7459 1.369 . S
C7458 C7462 1.531 . S
C7459 C7458 1.369 . S
C7459 C7460 1.410 . S
C7459 C7467 1.503 . S
C7460 C7459 1.410 . S
C7460 C7461 1.392 . S
C7460 C7463 1.511 . S
C7461 C7457 1.376 . S
C7461 C7460 1.392 . S
C7461 H7473 0.929 . S
C7462 C7458 1.531 . S
C7462 H7474 0.960 . S
C7462 H7475 0.962 . S
C7462 H7476 0.960 . S
C7463 C7460 1.511 . S
C7463 H7477 0.961 . S
C7463 H7478 0.961 . S
C7463 H7479 0.961 . S
C7464 C7465 1.370 . S
C7464 C7466 1.363 . S
C7464 H7480 0.931 . S
C7465 C7464 1.370 . S
C7465 C7469 1.408 . S
C7466 C7464 1.363 . S
C7466 C7467 1.370 . S
C7466 C7470 1.524 . S
C7467 C7459 1.503 . S
C7467 C7466 1.370 . S
C7467 C7468 1.403 . S
C7468 C7467 1.403 . S
C7468 C7469 1.404 . S
C7468 C7471 1.539 . S
C7469 C7465 1.408 . S
C7469 C7468 1.404 . S
C7469 H7481 0.930 . S
C7470 C7466 1.524 . S
C7470 H7482 0.956 . S
C7470 H7483 0.961 . S
C7470 H7484 0.961 . S
C7471 C7468 1.539 . S
C7471 H7485 0.958 . S
C7471 H7486 0.961 . S
C7471 H7487 0.960 . S
H7472 C7456 0.931 . S
H7473 C7461 0.929 . S
H7474 C7462 0.960 . S
H7475 C7462 0.962 . S
H7476 C7462 0.960 . S
H7477 C7463 0.961 . S
H7478 C7463 0.961 . S
H7479 C7463 0.961 . S
H7480 C7464 0.931 . S
H7481 C7469 0.930 . S
H7482 C7470 0.956 . S
H7483 C7470 0.961 . S
H7484 C7470 0.961 . S
H7485 C7471 0.958 . S
H7486 C7471 0.961 . S
H7487 C7471 0.960 . S
C7488 C7489 1.391 . S
C7488 C7490 1.394 . S
C7488 H7504 0.931 . S
C7489 C7488 1.391 . S
C7489 C7493 1.376 . S
C7490 C7488 1.394 . S
C7490 C7491 1.369 . S
C7490 C7494 1.531 . S
C7491 C7490 1.369 . S
C7491 C7492 1.410 . S
C7491 C7499 1.503 . S
C7492 C7491 1.410 . S
C7492 C7493 1.392 . S
C7492 C7495 1.511 . S
C7493 C7489 1.376 . S
C7493 C7492 1.392 . S
C7493 H7505 0.929 . S
C7494 C7490 1.531 . S
C7494 H7506 0.960 . S
C7494 H7507 0.962 . S
C7494 H7508 0.960 . S
C7495 C7492 1.511 . S
C7495 H7509 0.961 . S
C7495 H7510 0.961 . S
C7495 H7511 0.961 . S
C7496 C7497 1.370 . S
C7496 C7498 1.363 . S
C7496 H7512 0.931 . S
C7497 C7496 1.370 . S
C7497 C7501 1.408 . S
C7498 C7496 1.363 . S
C7498 C7499 1.370 . S
C7498 C7502 1.524 . S
C7499 C7491 1.503 . S
C7499 C7498 1.370 . S
C7499 C7500 1.403 . S
C7500 C7499 1.403 . S
C7500 C7501 1.404 . S
C7500 C7503 1.539 . S
C7501 C7497 1.408 . S
C7501 C7500 1.404 . S
C7501 H7513 0.930 . S
C7502 C7498 1.524 . S
C7502 H7514 0.956 . S
C7502 H7515 0.961 . S
C7502 H7516 0.961 . S
C7503 C7500 1.539 . S
C7503 H7517 0.958 . S
C7503 H7518 0.961 . S
C7503 H7519 0.960 . S
H7504 C7488 0.931 . S
H7505 C7493 0.929 . S
H7506 C7494 0.960 . S
H7507 C7494 0.962 . S
H7508 C7494 0.960 . S
H7509 C7495 0.961 . S
H7510 C7495 0.961 . S
H7511 C7495 0.961 . S
H7512 C7496 0.931 . S
H7513 C7501 0.930 . S
H7514 C7502 0.956 . S
H7515 C7502 0.961 . S
H7516 C7502 0.961 . S
H7517 C7503 0.958 . S
H7518 C7503 0.961 . S
H7519 C7503 0.960 . S
C7520 C7521 1.391 . S
C7520 C7522 1.394 . S
C7520 H7536 0.931 . S
C7521 C7520 1.391 . S
C7521 C7525 1.376 . S
C7522 C7520 1.394 . S
C7522 C7523 1.369 . S
C7522 C7526 1.531 . S
C7523 C7522 1.369 . S
C7523 C7524 1.410 . S
C7523 C7531 1.503 . S
C7524 C7523 1.410 . S
C7524 C7525 1.392 . S
C7524 C7527 1.511 . S
C7525 C7521 1.376 . S
C7525 C7524 1.392 . S
C7525 H7537 0.929 . S
C7526 C7522 1.531 . S
C7526 H7538 0.960 . S
C7526 H7539 0.962 . S
C7526 H7540 0.960 . S
C7527 C7524 1.511 . S
C7527 H7541 0.961 . S
C7527 H7542 0.961 . S
C7527 H7543 0.961 . S
C7528 C7529 1.370 . S
C7528 C7530 1.363 . S
C7528 H7544 0.931 . S
C7529 C7528 1.370 . S
C7529 C7533 1.408 . S
C7530 C7528 1.363 . S
C7530 C7531 1.370 . S
C7530 C7534 1.524 . S
C7531 C7523 1.503 . S
C7531 C7530 1.370 . S
C7531 C7532 1.403 . S
C7532 C7531 1.403 . S
C7532 C7533 1.404 . S
C7532 C7535 1.539 . S
C7533 C7529 1.408 . S
C7533 C7532 1.404 . S
C7533 H7545 0.930 . S
C7534 C7530 1.524 . S
C7534 H7546 0.956 . S
C7534 H7547 0.961 . S
C7534 H7548 0.961 . S
C7535 C7532 1.539 . S
C7535 H7549 0.958 . S
C7535 H7550 0.961 . S
C7535 H7551 0.960 . S
H7536 C7520 0.931 . S
H7537 C7525 0.929 . S
H7538 C7526 0.960 . S
H7539 C7526 0.962 . S
H7540 C7526 0.960 . S
H7541 C7527 0.961 . S
H7542 C7527 0.961 . S
H7543 C7527 0.961 . S
H7544 C7528 0.931 . S
H7545 C7533 0.930 . S
H7546 C7534 0.956 . S
H7547 C7534 0.961 . S
H7548 C7534 0.961 . S
H7549 C7535 0.958 . S
H7550 C7535 0.961 . S
H7551 C7535 0.960 . S
C7552 C7553 1.391 . S
C7552 C7554 1.394 . S
C7552 H7568 0.931 . S
C7553 C7552 1.391 . S
C7553 C7557 1.376 . S
C7554 C7552 1.394 . S
C7554 C7555 1.369 . S
C7554 C7558 1.531 . S
C7555 C7554 1.369 . S
C7555 C7556 1.410 . S
C7555 C7563 1.503 . S
C7556 C7555 1.410 . S
C7556 C7557 1.392 . S
C7556 C7559 1.511 . S
C7557 C7553 1.376 . S
C7557 C7556 1.392 . S
C7557 H7569 0.929 . S
C7558 C7554 1.531 . S
C7558 H7570 0.960 . S
C7558 H7571 0.962 . S
C7558 H7572 0.960 . S
C7559 C7556 1.511 . S
C7559 H7573 0.961 . S
C7559 H7574 0.961 . S
C7559 H7575 0.961 . S
C7560 C7561 1.370 . S
C7560 C7562 1.363 . S
C7560 H7576 0.931 . S
C7561 C7560 1.370 . S
C7561 C7565 1.408 . S
C7562 C7560 1.363 . S
C7562 C7563 1.370 . S
C7562 C7566 1.524 . S
C7563 C7555 1.503 . S
C7563 C7562 1.370 . S
C7563 C7564 1.403 . S
C7564 C7563 1.403 . S
C7564 C7565 1.404 . S
C7564 C7567 1.539 . S
C7565 C7561 1.408 . S
C7565 C7564 1.404 . S
C7565 H7577 0.930 . S
C7566 C7562 1.524 . S
C7566 H7578 0.956 . S
C7566 H7579 0.961 . S
C7566 H7580 0.961 . S
C7567 C7564 1.539 . S
C7567 H7581 0.958 . S
C7567 H7582 0.961 . S
C7567 H7583 0.960 . S
H7568 C7552 0.931 . S
H7569 C7557 0.929 . S
H7570 C7558 0.960 . S
H7571 C7558 0.962 . S
H7572 C7558 0.960 . S
H7573 C7559 0.961 . S
H7574 C7559 0.961 . S
H7575 C7559 0.961 . S
H7576 C7560 0.931 . S
H7577 C7565 0.930 . S
H7578 C7566 0.956 . S
H7579 C7566 0.961 . S
H7580 C7566 0.961 . S
H7581 C7567 0.958 . S
H7582 C7567 0.961 . S
H7583 C7567 0.960 . S
C7584 C7585 1.391 . S
C7584 C7586 1.394 . S
C7584 H7600 0.931 . S
C7585 C7584 1.391 . S
C7585 C7589 1.376 . S
C7586 C7584 1.394 . S
C7586 C7587 1.369 . S
C7586 C7590 1.531 . S
C7587 C7586 1.369 . S
C7587 C7588 1.410 . S
C7587 C7595 1.503 . S
C7588 C7587 1.410 . S
C7588 C7589 1.392 . S
C7588 C7591 1.511 . S
C7589 C7585 1.376 . S
C7589 C7588 1.392 . S
C7589 H7601 0.929 . S
C7590 C7586 1.531 . S
C7590 H7602 0.960 . S
C7590 H7603 0.962 . S
C7590 H7604 0.960 . S
C7591 C7588 1.511 . S
C7591 H7605 0.961 . S
C7591 H7606 0.961 . S
C7591 H7607 0.961 . S
C7592 C7593 1.370 . S
C7592 C7594 1.363 . S
C7592 H7608 0.931 . S
C7593 C7592 1.370 . S
C7593 C7597 1.408 . S
C7594 C7592 1.363 . S
C7594 C7595 1.370 . S
C7594 C7598 1.524 . S
C7595 C7587 1.503 . S
C7595 C7594 1.370 . S
C7595 C7596 1.403 . S
C7596 C7595 1.403 . S
C7596 C7597 1.404 . S
C7596 C7599 1.539 . S
C7597 C7593 1.408 . S
C7597 C7596 1.404 . S
C7597 H7609 0.930 . S
C7598 C7594 1.524 . S
C7598 H7610 0.956 . S
C7598 H7611 0.961 . S
C7598 H7612 0.961 . S
C7599 C7596 1.539 . S
C7599 H7613 0.958 . S
C7599 H7614 0.961 . S
C7599 H7615 0.960 . S
H7600 C7584 0.931 . S
H7601 C7589 0.929 . S
H7602 C7590 0.960 . S
H7603 C7590 0.962 . S
H7604 C7590 0.960 . S
H7605 C7591 0.961 . S
H7606 C7591 0.961 . S
H7607 C7591 0.961 . S
H7608 C7592 0.931 . S
H7609 C7597 0.930 . S
H7610 C7598 0.956 . S
H7611 C7598 0.961 . S
H7612 C7598 0.961 . S
H7613 C7599 0.958 . S
H7614 C7599 0.961 . S
H7615 C7599 0.960 . S
C7616 C7617 1.391 . S
C7616 C7618 1.394 . S
C7616 H7632 0.931 . S
C7617 C7616 1.391 . S
C7617 C7621 1.376 . S
C7618 C7616 1.394 . S
C7618 C7619 1.369 . S
C7618 C7622 1.531 . S
C7619 C7618 1.369 . S
C7619 C7620 1.410 . S
C7619 C7627 1.503 . S
C7620 C7619 1.410 . S
C7620 C7621 1.392 . S
C7620 C7623 1.511 . S
C7621 C7617 1.376 . S
C7621 C7620 1.392 . S
C7621 H7633 0.929 . S
C7622 C7618 1.531 . S
C7622 H7634 0.960 . S
C7622 H7635 0.962 . S
C7622 H7636 0.960 . S
C7623 C7620 1.511 . S
C7623 H7637 0.961 . S
C7623 H7638 0.961 . S
C7623 H7639 0.961 . S
C7624 C7625 1.370 . S
C7624 C7626 1.363 . S
C7624 H7640 0.931 . S
C7625 C7624 1.370 . S
C7625 C7629 1.408 . S
C7626 C7624 1.363 . S
C7626 C7627 1.370 . S
C7626 C7630 1.524 . S
C7627 C7619 1.503 . S
C7627 C7626 1.370 . S
C7627 C7628 1.403 . S
C7628 C7627 1.403 . S
C7628 C7629 1.404 . S
C7628 C7631 1.539 . S
C7629 C7625 1.408 . S
C7629 C7628 1.404 . S
C7629 H7641 0.930 . S
C7630 C7626 1.524 . S
C7630 H7642 0.956 . S
C7630 H7643 0.961 . S
C7630 H7644 0.961 . S
C7631 C7628 1.539 . S
C7631 H7645 0.958 . S
C7631 H7646 0.961 . S
C7631 H7647 0.960 . S
H7632 C7616 0.931 . S
H7633 C7621 0.929 . S
H7634 C7622 0.960 . S
H7635 C7622 0.962 . S
H7636 C7622 0.960 . S
H7637 C7623 0.961 . S
H7638 C7623 0.961 . S
H7639 C7623 0.961 . S
H7640 C7624 0.931 . S
H7641 C7629 0.930 . S
H7642 C7630 0.956 . S
H7643 C7630 0.961 . S
H7644 C7630 0.961 . S
H7645 C7631 0.958 . S
H7646 C7631 0.961 . S
H7647 C7631 0.960 . S
C7648 C7649 1.391 . S
C7648 C7650 1.394 . S
C7648 H7664 0.931 . S
C7649 C7648 1.391 . S
C7649 C7653 1.376 . S
C7650 C7648 1.394 . S
C7650 C7651 1.369 . S
C7650 C7654 1.531 . S
C7651 C7650 1.369 . S
C7651 C7652 1.410 . S
C7651 C7659 1.503 . S
C7652 C7651 1.410 . S
C7652 C7653 1.392 . S
C7652 C7655 1.511 . S
C7653 C7649 1.376 . S
C7653 C7652 1.392 . S
C7653 H7665 0.929 . S
C7654 C7650 1.531 . S
C7654 H7666 0.960 . S
C7654 H7667 0.962 . S
C7654 H7668 0.960 . S
C7655 C7652 1.511 . S
C7655 H7669 0.961 . S
C7655 H7670 0.961 . S
C7655 H7671 0.961 . S
C7656 C7657 1.370 . S
C7656 C7658 1.363 . S
C7656 H7672 0.931 . S
C7657 C7656 1.370 . S
C7657 C7661 1.408 . S
C7658 C7656 1.363 . S
C7658 C7659 1.370 . S
C7658 C7662 1.524 . S
C7659 C7651 1.503 . S
C7659 C7658 1.370 . S
C7659 C7660 1.403 . S
C7660 C7659 1.403 . S
C7660 C7661 1.404 . S
C7660 C7663 1.539 . S
C7661 C7657 1.408 . S
C7661 C7660 1.404 . S
C7661 H7673 0.930 . S
C7662 C7658 1.524 . S
C7662 H7674 0.956 . S
C7662 H7675 0.961 . S
C7662 H7676 0.961 . S
C7663 C7660 1.539 . S
C7663 H7677 0.958 . S
C7663 H7678 0.961 . S
C7663 H7679 0.960 . S
H7664 C7648 0.931 . S
H7665 C7653 0.929 . S
H7666 C7654 0.960 . S
H7667 C7654 0.962 . S
H7668 C7654 0.960 . S
H7669 C7655 0.961 . S
H7670 C7655 0.961 . S
H7671 C7655 0.961 . S
H7672 C7656 0.931 . S
H7673 C7661 0.930 . S
H7674 C7662 0.956 . S
H7675 C7662 0.961 . S
H7676 C7662 0.961 . S
H7677 C7663 0.958 . S
H7678 C7663 0.961 . S
H7679 C7663 0.960 . S
C7680 C7681 1.391 . S
C7680 C7682 1.394 . S
C7680 H7696 0.931 . S
C7681 C7680 1.391 . S
C7681 C7685 1.376 . S
C7682 C7680 1.394 . S
C7682 C7683 1.369 . S
C7682 C7686 1.531 . S
C7683 C7682 1.369 . S
C7683 C7684 1.410 . S
C7683 C7691 1.503 . S
C7684 C7683 1.410 . S
C7684 C7685 1.392 . S
C7684 C7687 1.511 . S
C7685 C7681 1.376 . S
C7685 C7684 1.392 . S
C7685 H7697 0.929 . S
C7686 C7682 1.531 . S
C7686 H7698 0.960 . S
C7686 H7699 0.962 . S
C7686 H7700 0.960 . S
C7687 C7684 1.511 . S
C7687 H7701 0.961 . S
C7687 H7702 0.961 . S
C7687 H7703 0.961 . S
C7688 C7689 1.370 . S
C7688 C7690 1.363 . S
C7688 H7704 0.931 . S
C7689 C7688 1.370 . S
C7689 C7693 1.408 . S
C7690 C7688 1.363 . S
C7690 C7691 1.370 . S
C7690 C7694 1.524 . S
C7691 C7683 1.503 . S
C7691 C7690 1.370 . S
C7691 C7692 1.403 . S
C7692 C7691 1.403 . S
C7692 C7693 1.404 . S
C7692 C7695 1.539 . S
C7693 C7689 1.408 . S
C7693 C7692 1.404 . S
C7693 H7705 0.930 . S
C7694 C7690 1.524 . S
C7694 H7706 0.956 . S
C7694 H7707 0.961 . S
C7694 H7708 0.961 . S
C7695 C7692 1.539 . S
C7695 H7709 0.958 . S
C7695 H7710 0.961 . S
C7695 H7711 0.960 . S
H7696 C7680 0.931 . S
H7697 C7685 0.929 . S
H7698 C7686 0.960 . S
H7699 C7686 0.962 . S
H7700 C7686 0.960 . S
H7701 C7687 0.961 . S
H7702 C7687 0.961 . S
H7703 C7687 0.961 . S
H7704 C7688 0.931 . S
H7705 C7693 0.930 . S
H7706 C7694 0.956 . S
H7707 C7694 0.961 . S
H7708 C7694 0.961 . S
H7709 C7695 0.958 . S
H7710 C7695 0.961 . S
H7711 C7695 0.960 . S
C7712 C7713 1.391 . S
C7712 C7714 1.394 . S
C7712 H7728 0.931 . S
C7713 C7712 1.391 . S
C7713 C7717 1.376 . S
C7714 C7712 1.394 . S
C7714 C7715 1.369 . S
C7714 C7718 1.531 . S
C7715 C7714 1.369 . S
C7715 C7716 1.410 . S
C7715 C7723 1.503 . S
C7716 C7715 1.410 . S
C7716 C7717 1.392 . S
C7716 C7719 1.511 . S
C7717 C7713 1.376 . S
C7717 C7716 1.392 . S
C7717 H7729 0.929 . S
C7718 C7714 1.531 . S
C7718 H7730 0.960 . S
C7718 H7731 0.962 . S
C7718 H7732 0.960 . S
C7719 C7716 1.511 . S
C7719 H7733 0.961 . S
C7719 H7734 0.961 . S
C7719 H7735 0.961 . S
C7720 C7721 1.370 . S
C7720 C7722 1.363 . S
C7720 H7736 0.931 . S
C7721 C7720 1.370 . S
C7721 C7725 1.408 . S
C7722 C7720 1.363 . S
C7722 C7723 1.370 . S
C7722 C7726 1.524 . S
C7723 C7715 1.503 . S
C7723 C7722 1.370 . S
C7723 C7724 1.403 . S
C7724 C7723 1.403 . S
C7724 C7725 1.404 . S
C7724 C7727 1.539 . S
C7725 C7721 1.408 . S
C7725 C7724 1.404 . S
C7725 H7737 0.930 . S
C7726 C7722 1.524 . S
C7726 H7738 0.956 . S
C7726 H7739 0.961 . S
C7726 H7740 0.961 . S
C7727 C7724 1.539 . S
C7727 H7741 0.958 . S
C7727 H7742 0.961 . S
C7727 H7743 0.960 . S
H7728 C7712 0.931 . S
H7729 C7717 0.929 . S
H7730 C7718 0.960 . S
H7731 C7718 0.962 . S
H7732 C7718 0.960 . S
H7733 C7719 0.961 . S
H7734 C7719 0.961 . S
H7735 C7719 0.961 . S
H7736 C7720 0.931 . S
H7737 C7725 0.930 . S
H7738 C7726 0.956 . S
H7739 C7726 0.961 . S
H7740 C7726 0.961 . S
H7741 C7727 0.958 . S
H7742 C7727 0.961 . S
H7743 C7727 0.960 . S
C7744 C7745 1.391 . S
C7744 C7746 1.394 . S
C7744 H7760 0.931 . S
C7745 C7744 1.391 . S
C7745 C7749 1.376 . S
C7746 C7744 1.394 . S
C7746 C7747 1.369 . S
C7746 C7750 1.531 . S
C7747 C7746 1.369 . S
C7747 C7748 1.410 . S
C7747 C7755 1.503 . S
C7748 C7747 1.410 . S
C7748 C7749 1.392 . S
C7748 C7751 1.511 . S
C7749 C7745 1.376 . S
C7749 C7748 1.392 . S
C7749 H7761 0.929 . S
C7750 C7746 1.531 . S
C7750 H7762 0.960 . S
C7750 H7763 0.962 . S
C7750 H7764 0.960 . S
C7751 C7748 1.511 . S
C7751 H7765 0.961 . S
C7751 H7766 0.961 . S
C7751 H7767 0.961 . S
C7752 C7753 1.370 . S
C7752 C7754 1.363 . S
C7752 H7768 0.931 . S
C7753 C7752 1.370 . S
C7753 C7757 1.408 . S
C7754 C7752 1.363 . S
C7754 C7755 1.370 . S
C7754 C7758 1.524 . S
C7755 C7747 1.503 . S
C7755 C7754 1.370 . S
C7755 C7756 1.403 . S
C7756 C7755 1.403 . S
C7756 C7757 1.404 . S
C7756 C7759 1.539 . S
C7757 C7753 1.408 . S
C7757 C7756 1.404 . S
C7757 H7769 0.930 . S
C7758 C7754 1.524 . S
C7758 H7770 0.956 . S
C7758 H7771 0.961 . S
C7758 H7772 0.961 . S
C7759 C7756 1.539 . S
C7759 H7773 0.958 . S
C7759 H7774 0.961 . S
C7759 H7775 0.960 . S
H7760 C7744 0.931 . S
H7761 C7749 0.929 . S
H7762 C7750 0.960 . S
H7763 C7750 0.962 . S
H7764 C7750 0.960 . S
H7765 C7751 0.961 . S
H7766 C7751 0.961 . S
H7767 C7751 0.961 . S
H7768 C7752 0.931 . S
H7769 C7757 0.930 . S
H7770 C7758 0.956 . S
H7771 C7758 0.961 . S
H7772 C7758 0.961 . S
H7773 C7759 0.958 . S
H7774 C7759 0.961 . S
H7775 C7759 0.960 . S
C7776 C7777 1.391 . S
C7776 C7778 1.394 . S
C7776 H7792 0.931 . S
C7777 C7776 1.391 . S
C7777 C7781 1.376 . S
C7778 C7776 1.394 . S
C7778 C7779 1.369 . S
C7778 C7782 1.531 . S
C7779 C7778 1.369 . S
C7779 C7780 1.410 . S
C7779 C7787 1.503 . S
C7780 C7779 1.410 . S
C7780 C7781 1.392 . S
C7780 C7783 1.511 . S
C7781 C7777 1.376 . S
C7781 C7780 1.392 . S
C7781 H7793 0.929 . S
C7782 C7778 1.531 . S
C7782 H7794 0.960 . S
C7782 H7795 0.962 . S
C7782 H7796 0.960 . S
C7783 C7780 1.511 . S
C7783 H7797 0.961 . S
C7783 H7798 0.961 . S
C7783 H7799 0.961 . S
C7784 C7785 1.370 . S
C7784 C7786 1.363 . S
C7784 H7800 0.931 . S
C7785 C7784 1.370 . S
C7785 C7789 1.408 . S
C7786 C7784 1.363 . S
C7786 C7787 1.370 . S
C7786 C7790 1.524 . S
C7787 C7779 1.503 . S
C7787 C7786 1.370 . S
C7787 C7788 1.403 . S
C7788 C7787 1.403 . S
C7788 C7789 1.404 . S
C7788 C7791 1.539 . S
C7789 C7785 1.408 . S
C7789 C7788 1.404 . S
C7789 H7801 0.930 . S
C7790 C7786 1.524 . S
C7790 H7802 0.956 . S
C7790 H7803 0.961 . S
C7790 H7804 0.961 . S
C7791 C7788 1.539 . S
C7791 H7805 0.958 . S
C7791 H7806 0.961 . S
C7791 H7807 0.960 . S
H7792 C7776 0.931 . S
H7793 C7781 0.929 . S
H7794 C7782 0.960 . S
H7795 C7782 0.962 . S
H7796 C7782 0.960 . S
H7797 C7783 0.961 . S
H7798 C7783 0.961 . S
H7799 C7783 0.961 . S
H7800 C7784 0.931 . S
H7801 C7789 0.930 . S
H7802 C7790 0.956 . S
H7803 C7790 0.961 . S
H7804 C7790 0.961 . S
H7805 C7791 0.958 . S
H7806 C7791 0.961 . S
H7807 C7791 0.960 . S
C7808 C7809 1.391 . S
C7808 C7810 1.394 . S
C7808 H7824 0.931 . S
C7809 C7808 1.391 . S
C7809 C7813 1.376 . S
C7810 C7808 1.394 . S
C7810 C7811 1.369 . S
C7810 C7814 1.531 . S
C7811 C7810 1.369 . S
C7811 C7812 1.410 . S
C7811 C7819 1.503 . S
C7812 C7811 1.410 . S
C7812 C7813 1.392 . S
C7812 C7815 1.511 . S
C7813 C7809 1.376 . S
C7813 C7812 1.392 . S
C7813 H7825 0.929 . S
C7814 C7810 1.531 . S
C7814 H7826 0.960 . S
C7814 H7827 0.962 . S
C7814 H7828 0.960 . S
C7815 C7812 1.511 . S
C7815 H7829 0.961 . S
C7815 H7830 0.961 . S
C7815 H7831 0.961 . S
C7816 C7817 1.370 . S
C7816 C7818 1.363 . S
C7816 H7832 0.931 . S
C7817 C7816 1.370 . S
C7817 C7821 1.408 . S
C7818 C7816 1.363 . S
C7818 C7819 1.370 . S
C7818 C7822 1.524 . S
C7819 C7811 1.503 . S
C7819 C7818 1.370 . S
C7819 C7820 1.403 . S
C7820 C7819 1.403 . S
C7820 C7821 1.404 . S
C7820 C7823 1.539 . S
C7821 C7817 1.408 . S
C7821 C7820 1.404 . S
C7821 H7833 0.930 . S
C7822 C7818 1.524 . S
C7822 H7834 0.956 . S
C7822 H7835 0.961 . S
C7822 H7836 0.961 . S
C7823 C7820 1.539 . S
C7823 H7837 0.958 . S
C7823 H7838 0.961 . S
C7823 H7839 0.960 . S
H7824 C7808 0.931 . S
H7825 C7813 0.929 . S
H7826 C7814 0.960 . S
H7827 C7814 0.962 . S
H7828 C7814 0.960 . S
H7829 C7815 0.961 . S
H7830 C7815 0.961 . S
H7831 C7815 0.961 . S
H7832 C7816 0.931 . S
H7833 C7821 0.930 . S
H7834 C7822 0.956 . S
H7835 C7822 0.961 . S
H7836 C7822 0.961 . S
H7837 C7823 0.958 . S
H7838 C7823 0.961 . S
H7839 C7823 0.960 . S
C7840 C7841 1.391 . S
C7840 C7842 1.394 . S
C7840 H7856 0.931 . S
C7841 C7840 1.391 . S
C7841 C7845 1.376 . S
C7842 C7840 1.394 . S
C7842 C7843 1.369 . S
C7842 C7846 1.531 . S
C7843 C7842 1.369 . S
C7843 C7844 1.410 . S
C7843 C7851 1.503 . S
C7844 C7843 1.410 . S
C7844 C7845 1.392 . S
C7844 C7847 1.511 . S
C7845 C7841 1.376 . S
C7845 C7844 1.392 . S
C7845 H7857 0.929 . S
C7846 C7842 1.531 . S
C7846 H7858 0.960 . S
C7846 H7859 0.962 . S
C7846 H7860 0.960 . S
C7847 C7844 1.511 . S
C7847 H7861 0.961 . S
C7847 H7862 0.961 . S
C7847 H7863 0.961 . S
C7848 C7849 1.370 . S
C7848 C7850 1.363 . S
C7848 H7864 0.931 . S
C7849 C7848 1.370 . S
C7849 C7853 1.408 . S
C7850 C7848 1.363 . S
C7850 C7851 1.370 . S
C7850 C7854 1.524 . S
C7851 C7843 1.503 . S
C7851 C7850 1.370 . S
C7851 C7852 1.403 . S
C7852 C7851 1.403 . S
C7852 C7853 1.404 . S
C7852 C7855 1.539 . S
C7853 C7849 1.408 . S
C7853 C7852 1.404 . S
C7853 H7865 0.930 . S
C7854 C7850 1.524 . S
C7854 H7866 0.956 . S
C7854 H7867 0.961 . S
C7854 H7868 0.961 . S
C7855 C7852 1.539 . S
C7855 H7869 0.958 . S
C7855 H7870 0.961 . S
C7855 H7871 0.960 . S
H7856 C7840 0.931 . S
H7857 C7845 0.929 . S
H7858 C7846 0.960 . S
H7859 C7846 0.962 . S
H7860 C7846 0.960 . S
H7861 C7847 0.961 . S
H7862 C7847 0.961 . S
H7863 C7847 0.961 . S
H7864 C7848 0.931 . S
H7865 C7853 0.930 . S
H7866 C7854 0.956 . S
H7867 C7854 0.961 . S
H7868 C7854 0.961 . S
H7869 C7855 0.958 . S
H7870 C7855 0.961 . S
H7871 C7855 0.960 . S
C7872 C7873 1.391 . S
C7872 C7874 1.394 . S
C7872 H7888 0.931 . S
C7873 C7872 1.391 . S
C7873 C7877 1.376 . S
C7874 C7872 1.394 . S
C7874 C7875 1.369 . S
C7874 C7878 1.531 . S
C7875 C7874 1.369 . S
C7875 C7876 1.410 . S
C7875 C7883 1.503 . S
C7876 C7875 1.410 . S
C7876 C7877 1.392 . S
C7876 C7879 1.511 . S
C7877 C7873 1.376 . S
C7877 C7876 1.392 . S
C7877 H7889 0.929 . S
C7878 C7874 1.531 . S
C7878 H7890 0.960 . S
C7878 H7891 0.962 . S
C7878 H7892 0.960 . S
C7879 C7876 1.511 . S
C7879 H7893 0.961 . S
C7879 H7894 0.961 . S
C7879 H7895 0.961 . S
C7880 C7881 1.370 . S
C7880 C7882 1.363 . S
C7880 H7896 0.931 . S
C7881 C7880 1.370 . S
C7881 C7885 1.408 . S
C7882 C7880 1.363 . S
C7882 C7883 1.370 . S
C7882 C7886 1.524 . S
C7883 C7875 1.503 . S
C7883 C7882 1.370 . S
C7883 C7884 1.403 . S
C7884 C7883 1.403 . S
C7884 C7885 1.404 . S
C7884 C7887 1.539 . S
C7885 C7881 1.408 . S
C7885 C7884 1.404 . S
C7885 H7897 0.930 . S
C7886 C7882 1.524 . S
C7886 H7898 0.956 . S
C7886 H7899 0.961 . S
C7886 H7900 0.961 . S
C7887 C7884 1.539 . S
C7887 H7901 0.958 . S
C7887 H7902 0.961 . S
C7887 H7903 0.960 . S
H7888 C7872 0.931 . S
H7889 C7877 0.929 . S
H7890 C7878 0.960 . S
H7891 C7878 0.962 . S
H7892 C7878 0.960 . S
H7893 C7879 0.961 . S
H7894 C7879 0.961 . S
H7895 C7879 0.961 . S
H7896 C7880 0.931 . S
H7897 C7885 0.930 . S
H7898 C7886 0.956 . S
H7899 C7886 0.961 . S
H7900 C7886 0.961 . S
H7901 C7887 0.958 . S
H7902 C7887 0.961 . S
H7903 C7887 0.960 . S
C7904 C7905 1.391 . S
C7904 C7906 1.394 . S
C7904 H7920 0.931 . S
C7905 C7904 1.391 . S
C7905 C7909 1.376 . S
C7906 C7904 1.394 . S
C7906 C7907 1.369 . S
C7906 C7910 1.531 . S
C7907 C7906 1.369 . S
C7907 C7908 1.410 . S
C7907 C7915 1.503 . S
C7908 C7907 1.410 . S
C7908 C7909 1.392 . S
C7908 C7911 1.511 . S
C7909 C7905 1.376 . S
C7909 C7908 1.392 . S
C7909 H7921 0.929 . S
C7910 C7906 1.531 . S
C7910 H7922 0.960 . S
C7910 H7923 0.962 . S
C7910 H7924 0.960 . S
C7911 C7908 1.511 . S
C7911 H7925 0.961 . S
C7911 H7926 0.961 . S
C7911 H7927 0.961 . S
C7912 C7913 1.370 . S
C7912 C7914 1.363 . S
C7912 H7928 0.931 . S
C7913 C7912 1.370 . S
C7913 C7917 1.408 . S
C7914 C7912 1.363 . S
C7914 C7915 1.370 . S
C7914 C7918 1.524 . S
C7915 C7907 1.503 . S
C7915 C7914 1.370 . S
C7915 C7916 1.403 . S
C7916 C7915 1.403 . S
C7916 C7917 1.404 . S
C7916 C7919 1.539 . S
C7917 C7913 1.408 . S
C7917 C7916 1.404 . S
C7917 H7929 0.930 . S
C7918 C7914 1.524 . S
C7918 H7930 0.956 . S
C7918 H7931 0.961 . S
C7918 H7932 0.961 . S
C7919 C7916 1.539 . S
C7919 H7933 0.958 . S
C7919 H7934 0.961 . S
C7919 H7935 0.960 . S
H7920 C7904 0.931 . S
H7921 C7909 0.929 . S
H7922 C7910 0.960 . S
H7923 C7910 0.962 . S
H7924 C7910 0.960 . S
H7925 C7911 0.961 . S
H7926 C7911 0.961 . S
H7927 C7911 0.961 . S
H7928 C7912 0.931 . S
H7929 C7917 0.930 . S
H7930 C7918 0.956 . S
H7931 C7918 0.961 . S
H7932 C7918 0.961 . S
H7933 C7919 0.958 . S
H7934 C7919 0.961 . S
H7935 C7919 0.960 . S
C7936 C7937 1.391 . S
C7936 C7938 1.394 . S
C7936 H7952 0.931 . S
C7937 C7936 1.391 . S
C7937 C7941 1.376 . S
C7938 C7936 1.394 . S
C7938 C7939 1.369 . S
C7938 C7942 1.531 . S
C7939 C7938 1.369 . S
C7939 C7940 1.410 . S
C7939 C7947 1.503 . S
C7940 C7939 1.410 . S
C7940 C7941 1.392 . S
C7940 C7943 1.511 . S
C7941 C7937 1.376 . S
C7941 C7940 1.392 . S
C7941 H7953 0.929 . S
C7942 C7938 1.531 . S
C7942 H7954 0.960 . S
C7942 H7955 0.962 . S
C7942 H7956 0.960 . S
C7943 C7940 1.511 . S
C7943 H7957 0.961 . S
C7943 H7958 0.961 . S
C7943 H7959 0.961 . S
C7944 C7945 1.370 . S
C7944 C7946 1.363 . S
C7944 H7960 0.931 . S
C7945 C7944 1.370 . S
C7945 C7949 1.408 . S
C7946 C7944 1.363 . S
C7946 C7947 1.370 . S
C7946 C7950 1.524 . S
C7947 C7939 1.503 . S
C7947 C7946 1.370 . S
C7947 C7948 1.403 . S
C7948 C7947 1.403 . S
C7948 C7949 1.404 . S
C7948 C7951 1.539 . S
C7949 C7945 1.408 . S
C7949 C7948 1.404 . S
C7949 H7961 0.930 . S
C7950 C7946 1.524 . S
C7950 H7962 0.956 . S
C7950 H7963 0.961 . S
C7950 H7964 0.961 . S
C7951 C7948 1.539 . S
C7951 H7965 0.958 . S
C7951 H7966 0.961 . S
C7951 H7967 0.960 . S
H7952 C7936 0.931 . S
H7953 C7941 0.929 . S
H7954 C7942 0.960 . S
H7955 C7942 0.962 . S
H7956 C7942 0.960 . S
H7957 C7943 0.961 . S
H7958 C7943 0.961 . S
H7959 C7943 0.961 . S
H7960 C7944 0.931 . S
H7961 C7949 0.930 . S
H7962 C7950 0.956 . S
H7963 C7950 0.961 . S
H7964 C7950 0.961 . S
H7965 C7951 0.958 . S
H7966 C7951 0.961 . S
H7967 C7951 0.960 . S
C7968 C7969 1.391 . S
C7968 C7970 1.394 . S
C7968 H7984 0.931 . S
C7969 C7968 1.391 . S
C7969 C7973 1.376 . S
C7970 C7968 1.394 . S
C7970 C7971 1.369 . S
C7970 C7974 1.531 . S
C7971 C7970 1.369 . S
C7971 C7972 1.410 . S
C7971 C7979 1.503 . S
C7972 C7971 1.410 . S
C7972 C7973 1.392 . S
C7972 C7975 1.511 . S
C7973 C7969 1.376 . S
C7973 C7972 1.392 . S
C7973 H7985 0.929 . S
C7974 C7970 1.531 . S
C7974 H7986 0.960 . S
C7974 H7987 0.962 . S
C7974 H7988 0.960 . S
C7975 C7972 1.511 . S
C7975 H7989 0.961 . S
C7975 H7990 0.961 . S
C7975 H7991 0.961 . S
C7976 C7977 1.370 . S
C7976 C7978 1.363 . S
C7976 H7992 0.931 . S
C7977 C7976 1.370 . S
C7977 C7981 1.408 . S
C7978 C7976 1.363 . S
C7978 C7979 1.370 . S
C7978 C7982 1.524 . S
C7979 C7971 1.503 . S
C7979 C7978 1.370 . S
C7979 C7980 1.403 . S
C7980 C7979 1.403 . S
C7980 C7981 1.404 . S
C7980 C7983 1.539 . S
C7981 C7977 1.408 . S
C7981 C7980 1.404 . S
C7981 H7993 0.930 . S
C7982 C7978 1.524 . S
C7982 H7994 0.956 . S
C7982 H7995 0.961 . S
C7982 H7996 0.961 . S
C7983 C7980 1.539 . S
C7983 H7997 0.958 . S
C7983 H7998 0.961 . S
C7983 H7999 0.960 . S
H7984 C7968 0.931 . S
H7985 C7973 0.929 . S
H7986 C7974 0.960 . S
H7987 C7974 0.962 . S
H7988 C7974 0.960 . S
H7989 C7975 0.961 . S
H7990 C7975 0.961 . S
H7991 C7975 0.961 . S
H7992 C7976 0.931 . S
H7993 C7981 0.930 . S
H7994 C7982 0.956 . S
H7995 C7982 0.961 . S
H7996 C7982 0.961 . S
H7997 C7983 0.958 . S
H7998 C7983 0.961 . S
H7999 C7983 0.960 . S
C8000 C8001 1.391 . S
C8000 C8002 1.394 . S
C8000 H8016 0.931 . S
C8001 C8000 1.391 . S
C8001 C8005 1.376 . S
C8002 C8000 1.394 . S
C8002 C8003 1.369 . S
C8002 C8006 1.531 . S
C8003 C8002 1.369 . S
C8003 C8004 1.410 . S
C8003 C8011 1.503 . S
C8004 C8003 1.410 . S
C8004 C8005 1.392 . S
C8004 C8007 1.511 . S
C8005 C8001 1.376 . S
C8005 C8004 1.392 . S
C8005 H8017 0.929 . S
C8006 C8002 1.531 . S
C8006 H8018 0.960 . S
C8006 H8019 0.962 . S
C8006 H8020 0.960 . S
C8007 C8004 1.511 . S
C8007 H8021 0.961 . S
C8007 H8022 0.961 . S
C8007 H8023 0.961 . S
C8008 C8009 1.370 . S
C8008 C8010 1.363 . S
C8008 H8024 0.931 . S
C8009 C8008 1.370 . S
C8009 C8013 1.408 . S
C8010 C8008 1.363 . S
C8010 C8011 1.370 . S
C8010 C8014 1.524 . S
C8011 C8003 1.503 . S
C8011 C8010 1.370 . S
C8011 C8012 1.403 . S
C8012 C8011 1.403 . S
C8012 C8013 1.404 . S
C8012 C8015 1.539 . S
C8013 C8009 1.408 . S
C8013 C8012 1.404 . S
C8013 H8025 0.930 . S
C8014 C8010 1.524 . S
C8014 H8026 0.956 . S
C8014 H8027 0.961 . S
C8014 H8028 0.961 . S
C8015 C8012 1.539 . S
C8015 H8029 0.958 . S
C8015 H8030 0.961 . S
C8015 H8031 0.960 . S
H8016 C8000 0.931 . S
H8017 C8005 0.929 . S
H8018 C8006 0.960 . S
H8019 C8006 0.962 . S
H8020 C8006 0.960 . S
H8021 C8007 0.961 . S
H8022 C8007 0.961 . S
H8023 C8007 0.961 . S
H8024 C8008 0.931 . S
H8025 C8013 0.930 . S
H8026 C8014 0.956 . S
H8027 C8014 0.961 . S
H8028 C8014 0.961 . S
H8029 C8015 0.958 . S
H8030 C8015 0.961 . S
H8031 C8015 0.960 . S
C8032 C8033 1.391 . S
C8032 C8034 1.394 . S
C8032 H8048 0.931 . S
C8033 C8032 1.391 . S
C8033 C8037 1.376 . S
C8034 C8032 1.394 . S
C8034 C8035 1.369 . S
C8034 C8038 1.531 . S
C8035 C8034 1.369 . S
C8035 C8036 1.410 . S
C8035 C8043 1.503 . S
C8036 C8035 1.410 . S
C8036 C8037 1.392 . S
C8036 C8039 1.511 . S
C8037 C8033 1.376 . S
C8037 C8036 1.392 . S
C8037 H8049 0.929 . S
C8038 C8034 1.531 . S
C8038 H8050 0.960 . S
C8038 H8051 0.962 . S
C8038 H8052 0.960 . S
C8039 C8036 1.511 . S
C8039 H8053 0.961 . S
C8039 H8054 0.961 . S
C8039 H8055 0.961 . S
C8040 C8041 1.370 . S
C8040 C8042 1.363 . S
C8040 H8056 0.931 . S
C8041 C8040 1.370 . S
C8041 C8045 1.408 . S
C8042 C8040 1.363 . S
C8042 C8043 1.370 . S
C8042 C8046 1.524 . S
C8043 C8035 1.503 . S
C8043 C8042 1.370 . S
C8043 C8044 1.403 . S
C8044 C8043 1.403 . S
C8044 C8045 1.404 . S
C8044 C8047 1.539 . S
C8045 C8041 1.408 . S
C8045 C8044 1.404 . S
C8045 H8057 0.930 . S
C8046 C8042 1.524 . S
C8046 H8058 0.956 . S
C8046 H8059 0.961 . S
C8046 H8060 0.961 . S
C8047 C8044 1.539 . S
C8047 H8061 0.958 . S
C8047 H8062 0.961 . S
C8047 H8063 0.960 . S
H8048 C8032 0.931 . S
H8049 C8037 0.929 . S
H8050 C8038 0.960 . S
H8051 C8038 0.962 . S
H8052 C8038 0.960 . S
H8053 C8039 0.961 . S
H8054 C8039 0.961 . S
H8055 C8039 0.961 . S
H8056 C8040 0.931 . S
H8057 C8045 0.930 . S
H8058 C8046 0.956 . S
H8059 C8046 0.961 . S
H8060 C8046 0.961 . S
H8061 C8047 0.958 . S
H8062 C8047 0.961 . S
H8063 C8047 0.960 . S
C8064 C8065 1.391 . S
C8064 C8066 1.394 . S
C8064 H8080 0.931 . S
C8065 C8064 1.391 . S
C8065 C8069 1.376 . S
C8066 C8064 1.394 . S
C8066 C8067 1.369 . S
C8066 C8070 1.531 . S
C8067 C8066 1.369 . S
C8067 C8068 1.410 . S
C8067 C8075 1.503 . S
C8068 C8067 1.410 . S
C8068 C8069 1.392 . S
C8068 C8071 1.511 . S
C8069 C8065 1.376 . S
C8069 C8068 1.392 . S
C8069 H8081 0.929 . S
C8070 C8066 1.531 . S
C8070 H8082 0.960 . S
C8070 H8083 0.962 . S
C8070 H8084 0.960 . S
C8071 C8068 1.511 . S
C8071 H8085 0.961 . S
C8071 H8086 0.961 . S
C8071 H8087 0.961 . S
C8072 C8073 1.370 . S
C8072 C8074 1.363 . S
C8072 H8088 0.931 . S
C8073 C8072 1.370 . S
C8073 C8077 1.408 . S
C8074 C8072 1.363 . S
C8074 C8075 1.370 . S
C8074 C8078 1.524 . S
C8075 C8067 1.503 . S
C8075 C8074 1.370 . S
C8075 C8076 1.403 . S
C8076 C8075 1.403 . S
C8076 C8077 1.404 . S
C8076 C8079 1.539 . S
C8077 C8073 1.408 . S
C8077 C8076 1.404 . S
C8077 H8089 0.930 . S
C8078 C8074 1.524 . S
C8078 H8090 0.956 . S
C8078 H8091 0.961 . S
C8078 H8092 0.961 . S
C8079 C8076 1.539 . S
C8079 H8093 0.958 . S
C8079 H8094 0.961 . S
C8079 H8095 0.960 . S
H8080 C8064 0.931 . S
H8081 C8069 0.929 . S
H8082 C8070 0.960 . S
H8083 C8070 0.962 . S
H8084 C8070 0.960 . S
H8085 C8071 0.961 . S
H8086 C8071 0.961 . S
H8087 C8071 0.961 . S
H8088 C8072 0.931 . S
H8089 C8077 0.930 . S
H8090 C8078 0.956 . S
H8091 C8078 0.961 . S
H8092 C8078 0.961 . S
H8093 C8079 0.958 . S
H8094 C8079 0.961 . S
H8095 C8079 0.960 . S
C8096 C8097 1.391 . S
C8096 C8098 1.394 . S
C8096 H8112 0.931 . S
C8097 C8096 1.391 . S
C8097 C8101 1.376 . S
C8098 C8096 1.394 . S
C8098 C8099 1.369 . S
C8098 C8102 1.531 . S
C8099 C8098 1.369 . S
C8099 C8100 1.410 . S
C8099 C8107 1.503 . S
C8100 C8099 1.410 . S
C8100 C8101 1.392 . S
C8100 C8103 1.511 . S
C8101 C8097 1.376 . S
C8101 C8100 1.392 . S
C8101 H8113 0.929 . S
C8102 C8098 1.531 . S
C8102 H8114 0.960 . S
C8102 H8115 0.962 . S
C8102 H8116 0.960 . S
C8103 C8100 1.511 . S
C8103 H8117 0.961 . S
C8103 H8118 0.961 . S
C8103 H8119 0.961 . S
C8104 C8105 1.370 . S
C8104 C8106 1.363 . S
C8104 H8120 0.931 . S
C8105 C8104 1.370 . S
C8105 C8109 1.408 . S
C8106 C8104 1.363 . S
C8106 C8107 1.370 . S
C8106 C8110 1.524 . S
C8107 C8099 1.503 . S
C8107 C8106 1.370 . S
C8107 C8108 1.403 . S
C8108 C8107 1.403 . S
C8108 C8109 1.404 . S
C8108 C8111 1.539 . S
C8109 C8105 1.408 . S
C8109 C8108 1.404 . S
C8109 H8121 0.930 . S
C8110 C8106 1.524 . S
C8110 H8122 0.956 . S
C8110 H8123 0.961 . S
C8110 H8124 0.961 . S
C8111 C8108 1.539 . S
C8111 H8125 0.958 . S
C8111 H8126 0.961 . S
C8111 H8127 0.960 . S
H8112 C8096 0.931 . S
H8113 C8101 0.929 . S
H8114 C8102 0.960 . S
H8115 C8102 0.962 . S
H8116 C8102 0.960 . S
H8117 C8103 0.961 . S
H8118 C8103 0.961 . S
H8119 C8103 0.961 . S
H8120 C8104 0.931 . S
H8121 C8109 0.930 . S
H8122 C8110 0.956 . S
H8123 C8110 0.961 . S
H8124 C8110 0.961 . S
H8125 C8111 0.958 . S
H8126 C8111 0.961 . S
H8127 C8111 0.960 . S
C8128 C8129 1.391 . S
C8128 C8130 1.394 . S
C8128 H8144 0.931 . S
C8129 C8128 1.391 . S
C8129 C8133 1.376 . S
C8130 C8128 1.394 . S
C8130 C8131 1.369 . S
C8130 C8134 1.531 . S
C8131 C8130 1.369 . S
C8131 C8132 1.410 . S
C8131 C8139 1.503 . S
C8132 C8131 1.410 . S
C8132 C8133 1.392 . S
C8132 C8135 1.511 . S
C8133 C8129 1.376 . S
C8133 C8132 1.392 . S
C8133 H8145 0.929 . S
C8134 C8130 1.531 . S
C8134 H8146 0.960 . S
C8134 H8147 0.962 . S
C8134 H8148 0.960 . S
C8135 C8132 1.511 . S
C8135 H8149 0.961 . S
C8135 H8150 0.961 . S
C8135 H8151 0.961 . S
C8136 C8137 1.370 . S
C8136 C8138 1.363 . S
C8136 H8152 0.931 . S
C8137 C8136 1.370 . S
C8137 C8141 1.408 . S
C8138 C8136 1.363 . S
C8138 C8139 1.370 . S
C8138 C8142 1.524 . S
C8139 C8131 1.503 . S
C8139 C8138 1.370 . S
C8139 C8140 1.403 . S
C8140 C8139 1.403 . S
C8140 C8141 1.404 . S
C8140 C8143 1.539 . S
C8141 C8137 1.408 . S
C8141 C8140 1.404 . S
C8141 H8153 0.930 . S
C8142 C8138 1.524 . S
C8142 H8154 0.956 . S
C8142 H8155 0.961 . S
C8142 H8156 0.961 . S
C8143 C8140 1.539 . S
C8143 H8157 0.958 . S
C8143 H8158 0.961 . S
C8143 H8159 0.960 . S
H8144 C8128 0.931 . S
H8145 C8133 0.929 . S
H8146 C8134 0.960 . S
H8147 C8134 0.962 . S
H8148 C8134 0.960 . S
H8149 C8135 0.961 . S
H8150 C8135 0.961 . S
H8151 C8135 0.961 . S
H8152 C8136 0.931 . S
H8153 C8141 0.930 . S
H8154 C8142 0.956 . S
H8155 C8142 0.961 . S
H8156 C8142 0.961 . S
H8157 C8143 0.958 . S
H8158 C8143 0.961 . S
H8159 C8143 0.960 . S
C8160 C8161 1.391 . S
C8160 C8162 1.394 . S
C8160 H8176 0.931 . S
C8161 C8160 1.391 . S
C8161 C8165 1.376 . S
C8162 C8160 1.394 . S
C8162 C8163 1.369 . S
C8162 C8166 1.531 . S
C8163 C8162 1.369 . S
C8163 C8164 1.410 . S
C8163 C8171 1.503 . S
C8164 C8163 1.410 . S
C8164 C8165 1.392 . S
C8164 C8167 1.511 . S
C8165 C8161 1.376 . S
C8165 C8164 1.392 . S
C8165 H8177 0.929 . S
C8166 C8162 1.531 . S
C8166 H8178 0.960 . S
C8166 H8179 0.962 . S
C8166 H8180 0.960 . S
C8167 C8164 1.511 . S
C8167 H8181 0.961 . S
C8167 H8182 0.961 . S
C8167 H8183 0.961 . S
C8168 C8169 1.370 . S
C8168 C8170 1.363 . S
C8168 H8184 0.931 . S
C8169 C8168 1.370 . S
C8169 C8173 1.408 . S
C8170 C8168 1.363 . S
C8170 C8171 1.370 . S
C8170 C8174 1.524 . S
C8171 C8163 1.503 . S
C8171 C8170 1.370 . S
C8171 C8172 1.403 . S
C8172 C8171 1.403 . S
C8172 C8173 1.404 . S
C8172 C8175 1.539 . S
C8173 C8169 1.408 . S
C8173 C8172 1.404 . S
C8173 H8185 0.930 . S
C8174 C8170 1.524 . S
C8174 H8186 0.956 . S
C8174 H8187 0.961 . S
C8174 H8188 0.961 . S
C8175 C8172 1.539 . S
C8175 H8189 0.958 . S
C8175 H8190 0.961 . S
C8175 H8191 0.960 . S
H8176 C8160 0.931 . S
H8177 C8165 0.929 . S
H8178 C8166 0.960 . S
H8179 C8166 0.962 . S
H8180 C8166 0.960 . S
H8181 C8167 0.961 . S
H8182 C8167 0.961 . S
H8183 C8167 0.961 . S
H8184 C8168 0.931 . S
H8185 C8173 0.930 . S
H8186 C8174 0.956 . S
H8187 C8174 0.961 . S
H8188 C8174 0.961 . S
H8189 C8175 0.958 . S
H8190 C8175 0.961 . S
H8191 C8175 0.960 . S
C8192 C8193 1.391 . S
C8192 C8194 1.394 . S
C8192 H8208 0.931 . S
C8193 C8192 1.391 . S
C8193 C8197 1.376 . S
C8194 C8192 1.394 . S
C8194 C8195 1.369 . S
C8194 C8198 1.531 . S
C8195 C8194 1.369 . S
C8195 C8196 1.410 . S
C8195 C8203 1.503 . S
C8196 C8195 1.410 . S
C8196 C8197 1.392 . S
C8196 C8199 1.511 . S
C8197 C8193 1.376 . S
C8197 C8196 1.392 . S
C8197 H8209 0.929 . S
C8198 C8194 1.531 . S
C8198 H8210 0.960 . S
C8198 H8211 0.962 . S
C8198 H8212 0.960 . S
C8199 C8196 1.511 . S
C8199 H8213 0.961 . S
C8199 H8214 0.961 . S
C8199 H8215 0.961 . S
C8200 C8201 1.370 . S
C8200 C8202 1.363 . S
C8200 H8216 0.931 . S
C8201 C8200 1.370 . S
C8201 C8205 1.408 . S
C8202 C8200 1.363 . S
C8202 C8203 1.370 . S
C8202 C8206 1.524 . S
C8203 C8195 1.503 . S
C8203 C8202 1.370 . S
C8203 C8204 1.403 . S
C8204 C8203 1.403 . S
C8204 C8205 1.404 . S
C8204 C8207 1.539 . S
C8205 C8201 1.408 . S
C8205 C8204 1.404 . S
C8205 H8217 0.930 . S
C8206 C8202 1.524 . S
C8206 H8218 0.956 . S
C8206 H8219 0.961 . S
C8206 H8220 0.961 . S
C8207 C8204 1.539 . S
C8207 H8221 0.958 . S
C8207 H8222 0.961 . S
C8207 H8223 0.960 . S
H8208 C8192 0.931 . S
H8209 C8197 0.929 . S
H8210 C8198 0.960 . S
H8211 C8198 0.962 . S
H8212 C8198 0.960 . S
H8213 C8199 0.961 . S
H8214 C8199 0.961 . S
H8215 C8199 0.961 . S
H8216 C8200 0.931 . S
H8217 C8205 0.930 . S
H8218 C8206 0.956 . S
H8219 C8206 0.961 . S
H8220 C8206 0.961 . S
H8221 C8207 0.958 . S
H8222 C8207 0.961 . S
H8223 C8207 0.960 . S
C8224 C8225 1.391 . S
C8224 C8226 1.394 . S
C8224 H8240 0.931 . S
C8225 C8224 1.391 . S
C8225 C8229 1.376 . S
C8226 C8224 1.394 . S
C8226 C8227 1.369 . S
C8226 C8230 1.531 . S
C8227 C8226 1.369 . S
C8227 C8228 1.410 . S
C8227 C8235 1.503 . S
C8228 C8227 1.410 . S
C8228 C8229 1.392 . S
C8228 C8231 1.511 . S
C8229 C8225 1.376 . S
C8229 C8228 1.392 . S
C8229 H8241 0.929 . S
C8230 C8226 1.531 . S
C8230 H8242 0.960 . S
C8230 H8243 0.962 . S
C8230 H8244 0.960 . S
C8231 C8228 1.511 . S
C8231 H8245 0.961 . S
C8231 H8246 0.961 . S
C8231 H8247 0.961 . S
C8232 C8233 1.370 . S
C8232 C8234 1.363 . S
C8232 H8248 0.931 . S
C8233 C8232 1.370 . S
C8233 C8237 1.408 . S
C8234 C8232 1.363 . S
C8234 C8235 1.370 . S
C8234 C8238 1.524 . S
C8235 C8227 1.503 . S
C8235 C8234 1.370 . S
C8235 C8236 1.403 . S
C8236 C8235 1.403 . S
C8236 C8237 1.404 . S
C8236 C8239 1.539 . S
C8237 C8233 1.408 . S
C8237 C8236 1.404 . S
C8237 H8249 0.930 . S
C8238 C8234 1.524 . S
C8238 H8250 0.956 . S
C8238 H8251 0.961 . S
C8238 H8252 0.961 . S
C8239 C8236 1.539 . S
C8239 H8253 0.958 . S
C8239 H8254 0.961 . S
C8239 H8255 0.960 . S
H8240 C8224 0.931 . S
H8241 C8229 0.929 . S
H8242 C8230 0.960 . S
H8243 C8230 0.962 . S
H8244 C8230 0.960 . S
H8245 C8231 0.961 . S
H8246 C8231 0.961 . S
H8247 C8231 0.961 . S
H8248 C8232 0.931 . S
H8249 C8237 0.930 . S
H8250 C8238 0.956 . S
H8251 C8238 0.961 . S
H8252 C8238 0.961 . S
H8253 C8239 0.958 . S
H8254 C8239 0.961 . S
H8255 C8239 0.960 . S
C8256 C8257 1.391 . S
C8256 C8258 1.394 . S
C8256 H8272 0.931 . S
C8257 C8256 1.391 . S
C8257 C8261 1.376 . S
C8258 C8256 1.394 . S
C8258 C8259 1.369 . S
C8258 C8262 1.531 . S
C8259 C8258 1.369 . S
C8259 C8260 1.410 . S
C8259 C8267 1.503 . S
C8260 C8259 1.410 . S
C8260 C8261 1.392 . S
C8260 C8263 1.511 . S
C8261 C8257 1.376 . S
C8261 C8260 1.392 . S
C8261 H8273 0.929 . S
C8262 C8258 1.531 . S
C8262 H8274 0.960 . S
C8262 H8275 0.962 . S
C8262 H8276 0.960 . S
C8263 C8260 1.511 . S
C8263 H8277 0.961 . S
C8263 H8278 0.961 . S
C8263 H8279 0.961 . S
C8264 C8265 1.370 . S
C8264 C8266 1.363 . S
C8264 H8280 0.931 . S
C8265 C8264 1.370 . S
C8265 C8269 1.408 . S
C8266 C8264 1.363 . S
C8266 C8267 1.370 . S
C8266 C8270 1.524 . S
C8267 C8259 1.503 . S
C8267 C8266 1.370 . S
C8267 C8268 1.403 . S
C8268 C8267 1.403 . S
C8268 C8269 1.404 . S
C8268 C8271 1.539 . S
C8269 C8265 1.408 . S
C8269 C8268 1.404 . S
C8269 H8281 0.930 . S
C8270 C8266 1.524 . S
C8270 H8282 0.956 . S
C8270 H8283 0.961 . S
C8270 H8284 0.961 . S
C8271 C8268 1.539 . S
C8271 H8285 0.958 . S
C8271 H8286 0.961 . S
C8271 H8287 0.960 . S
H8272 C8256 0.931 . S
H8273 C8261 0.929 . S
H8274 C8262 0.960 . S
H8275 C8262 0.962 . S
H8276 C8262 0.960 . S
H8277 C8263 0.961 . S
H8278 C8263 0.961 . S
H8279 C8263 0.961 . S
H8280 C8264 0.931 . S
H8281 C8269 0.930 . S
H8282 C8270 0.956 . S
H8283 C8270 0.961 . S
H8284 C8270 0.961 . S
H8285 C8271 0.958 . S
H8286 C8271 0.961 . S
H8287 C8271 0.960 . S
C8288 C8289 1.391 . S
C8288 C8290 1.394 . S
C8288 H8304 0.931 . S
C8289 C8288 1.391 . S
C8289 C8293 1.376 . S
C8290 C8288 1.394 . S
C8290 C8291 1.369 . S
C8290 C8294 1.531 . S
C8291 C8290 1.369 . S
C8291 C8292 1.410 . S
C8291 C8299 1.503 . S
C8292 C8291 1.410 . S
C8292 C8293 1.392 . S
C8292 C8295 1.511 . S
C8293 C8289 1.376 . S
C8293 C8292 1.392 . S
C8293 H8305 0.929 . S
C8294 C8290 1.531 . S
C8294 H8306 0.960 . S
C8294 H8307 0.962 . S
C8294 H8308 0.960 . S
C8295 C8292 1.511 . S
C8295 H8309 0.961 . S
C8295 H8310 0.961 . S
C8295 H8311 0.961 . S
C8296 C8297 1.370 . S
C8296 C8298 1.363 . S
C8296 H8312 0.931 . S
C8297 C8296 1.370 . S
C8297 C8301 1.408 . S
C8298 C8296 1.363 . S
C8298 C8299 1.370 . S
C8298 C8302 1.524 . S
C8299 C8291 1.503 . S
C8299 C8298 1.370 . S
C8299 C8300 1.403 . S
C8300 C8299 1.403 . S
C8300 C8301 1.404 . S
C8300 C8303 1.539 . S
C8301 C8297 1.408 . S
C8301 C8300 1.404 . S
C8301 H8313 0.930 . S
C8302 C8298 1.524 . S
C8302 H8314 0.956 . S
C8302 H8315 0.961 . S
C8302 H8316 0.961 . S
C8303 C8300 1.539 . S
C8303 H8317 0.958 . S
C8303 H8318 0.961 . S
C8303 H8319 0.960 . S
H8304 C8288 0.931 . S
H8305 C8293 0.929 . S
H8306 C8294 0.960 . S
H8307 C8294 0.962 . S
H8308 C8294 0.960 . S
H8309 C8295 0.961 . S
H8310 C8295 0.961 . S
H8311 C8295 0.961 . S
H8312 C8296 0.931 . S
H8313 C8301 0.930 . S
H8314 C8302 0.956 . S
H8315 C8302 0.961 . S
H8316 C8302 0.961 . S
H8317 C8303 0.958 . S
H8318 C8303 0.961 . S
H8319 C8303 0.960 . S
C8320 C8321 1.391 . S
C8320 C8322 1.394 . S
C8320 H8336 0.931 . S
C8321 C8320 1.391 . S
C8321 C8325 1.376 . S
C8322 C8320 1.394 . S
C8322 C8323 1.369 . S
C8322 C8326 1.531 . S
C8323 C8322 1.369 . S
C8323 C8324 1.410 . S
C8323 C8331 1.503 . S
C8324 C8323 1.410 . S
C8324 C8325 1.392 . S
C8324 C8327 1.511 . S
C8325 C8321 1.376 . S
C8325 C8324 1.392 . S
C8325 H8337 0.929 . S
C8326 C8322 1.531 . S
C8326 H8338 0.960 . S
C8326 H8339 0.962 . S
C8326 H8340 0.960 . S
C8327 C8324 1.511 . S
C8327 H8341 0.961 . S
C8327 H8342 0.961 . S
C8327 H8343 0.961 . S
C8328 C8329 1.370 . S
C8328 C8330 1.363 . S
C8328 H8344 0.931 . S
C8329 C8328 1.370 . S
C8329 C8333 1.408 . S
C8330 C8328 1.363 . S
C8330 C8331 1.370 . S
C8330 C8334 1.524 . S
C8331 C8323 1.503 . S
C8331 C8330 1.370 . S
C8331 C8332 1.403 . S
C8332 C8331 1.403 . S
C8332 C8333 1.404 . S
C8332 C8335 1.539 . S
C8333 C8329 1.408 . S
C8333 C8332 1.404 . S
C8333 H8345 0.930 . S
C8334 C8330 1.524 . S
C8334 H8346 0.956 . S
C8334 H8347 0.961 . S
C8334 H8348 0.961 . S
C8335 C8332 1.539 . S
C8335 H8349 0.958 . S
C8335 H8350 0.961 . S
C8335 H8351 0.960 . S
H8336 C8320 0.931 . S
H8337 C8325 0.929 . S
H8338 C8326 0.960 . S
H8339 C8326 0.962 . S
H8340 C8326 0.960 . S
H8341 C8327 0.961 . S
H8342 C8327 0.961 . S
H8343 C8327 0.961 . S
H8344 C8328 0.931 . S
H8345 C8333 0.930 . S
H8346 C8334 0.956 . S
H8347 C8334 0.961 . S
H8348 C8334 0.961 . S
H8349 C8335 0.958 . S
H8350 C8335 0.961 . S
H8351 C8335 0.960 . S
C8352 C8353 1.391 . S
C8352 C8354 1.394 . S
C8352 H8368 0.931 . S
C8353 C8352 1.391 . S
C8353 C8357 1.376 . S
C8354 C8352 1.394 . S
C8354 C8355 1.369 . S
C8354 C8358 1.531 . S
C8355 C8354 1.369 . S
C8355 C8356 1.410 . S
C8355 C8363 1.503 . S
C8356 C8355 1.410 . S
C8356 C8357 1.392 . S
C8356 C8359 1.511 . S
C8357 C8353 1.376 . S
C8357 C8356 1.392 . S
C8357 H8369 0.929 . S
C8358 C8354 1.531 . S
C8358 H8370 0.960 . S
C8358 H8371 0.962 . S
C8358 H8372 0.960 . S
C8359 C8356 1.511 . S
C8359 H8373 0.961 . S
C8359 H8374 0.961 . S
C8359 H8375 0.961 . S
C8360 C8361 1.370 . S
C8360 C8362 1.363 . S
C8360 H8376 0.931 . S
C8361 C8360 1.370 . S
C8361 C8365 1.408 . S
C8362 C8360 1.363 . S
C8362 C8363 1.370 . S
C8362 C8366 1.524 . S
C8363 C8355 1.503 . S
C8363 C8362 1.370 . S
C8363 C8364 1.403 . S
C8364 C8363 1.403 . S
C8364 C8365 1.404 . S
C8364 C8367 1.539 . S
C8365 C8361 1.408 . S
C8365 C8364 1.404 . S
C8365 H8377 0.930 . S
C8366 C8362 1.524 . S
C8366 H8378 0.956 . S
C8366 H8379 0.961 . S
C8366 H8380 0.961 . S
C8367 C8364 1.539 . S
C8367 H8381 0.958 . S
C8367 H8382 0.961 . S
C8367 H8383 0.960 . S
H8368 C8352 0.931 . S
H8369 C8357 0.929 . S
H8370 C8358 0.960 . S
H8371 C8358 0.962 . S
H8372 C8358 0.960 . S
H8373 C8359 0.961 . S
H8374 C8359 0.961 . S
H8375 C8359 0.961 . S
H8376 C8360 0.931 . S
H8377 C8365 0.930 . S
H8378 C8366 0.956 . S
H8379 C8366 0.961 . S
H8380 C8366 0.961 . S
H8381 C8367 0.958 . S
H8382 C8367 0.961 . S
H8383 C8367 0.960 . S
C8384 C8385 1.391 . S
C8384 C8386 1.394 . S
C8384 H8400 0.931 . S
C8385 C8384 1.391 . S
C8385 C8389 1.376 . S
C8386 C8384 1.394 . S
C8386 C8387 1.369 . S
C8386 C8390 1.531 . S
C8387 C8386 1.369 . S
C8387 C8388 1.410 . S
C8387 C8395 1.503 . S
C8388 C8387 1.410 . S
C8388 C8389 1.392 . S
C8388 C8391 1.511 . S
C8389 C8385 1.376 . S
C8389 C8388 1.392 . S
C8389 H8401 0.929 . S
C8390 C8386 1.531 . S
C8390 H8402 0.960 . S
C8390 H8403 0.962 . S
C8390 H8404 0.960 . S
C8391 C8388 1.511 . S
C8391 H8405 0.961 . S
C8391 H8406 0.961 . S
C8391 H8407 0.961 . S
C8392 C8393 1.370 . S
C8392 C8394 1.363 . S
C8392 H8408 0.931 . S
C8393 C8392 1.370 . S
C8393 C8397 1.408 . S
C8394 C8392 1.363 . S
C8394 C8395 1.370 . S
C8394 C8398 1.524 . S
C8395 C8387 1.503 . S
C8395 C8394 1.370 . S
C8395 C8396 1.403 . S
C8396 C8395 1.403 . S
C8396 C8397 1.404 . S
C8396 C8399 1.539 . S
C8397 C8393 1.408 . S
C8397 C8396 1.404 . S
C8397 H8409 0.930 . S
C8398 C8394 1.524 . S
C8398 H8410 0.956 . S
C8398 H8411 0.961 . S
C8398 H8412 0.961 . S
C8399 C8396 1.539 . S
C8399 H8413 0.958 . S
C8399 H8414 0.961 . S
C8399 H8415 0.960 . S
H8400 C8384 0.931 . S
H8401 C8389 0.929 . S
H8402 C8390 0.960 . S
H8403 C8390 0.962 . S
H8404 C8390 0.960 . S
H8405 C8391 0.961 . S
H8406 C8391 0.961 . S
H8407 C8391 0.961 . S
H8408 C8392 0.931 . S
H8409 C8397 0.930 . S
H8410 C8398 0.956 . S
H8411 C8398 0.961 . S
H8412 C8398 0.961 . S
H8413 C8399 0.958 . S
H8414 C8399 0.961 . S
H8415 C8399 0.960 . S
C8416 C8417 1.391 . S
C8416 C8418 1.394 . S
C8416 H8432 0.931 . S
C8417 C8416 1.391 . S
C8417 C8421 1.376 . S
C8418 C8416 1.394 . S
C8418 C8419 1.369 . S
C8418 C8422 1.531 . S
C8419 C8418 1.369 . S
C8419 C8420 1.410 . S
C8419 C8427 1.503 . S
C8420 C8419 1.410 . S
C8420 C8421 1.392 . S
C8420 C8423 1.511 . S
C8421 C8417 1.376 . S
C8421 C8420 1.392 . S
C8421 H8433 0.929 . S
C8422 C8418 1.531 . S
C8422 H8434 0.960 . S
C8422 H8435 0.962 . S
C8422 H8436 0.960 . S
C8423 C8420 1.511 . S
C8423 H8437 0.961 . S
C8423 H8438 0.961 . S
C8423 H8439 0.961 . S
C8424 C8425 1.370 . S
C8424 C8426 1.363 . S
C8424 H8440 0.931 . S
C8425 C8424 1.370 . S
C8425 C8429 1.408 . S
C8426 C8424 1.363 . S
C8426 C8427 1.370 . S
C8426 C8430 1.524 . S
C8427 C8419 1.503 . S
C8427 C8426 1.370 . S
C8427 C8428 1.403 . S
C8428 C8427 1.403 . S
C8428 C8429 1.404 . S
C8428 C8431 1.539 . S
C8429 C8425 1.408 . S
C8429 C8428 1.404 . S
C8429 H8441 0.930 . S
C8430 C8426 1.524 . S
C8430 H8442 0.956 . S
C8430 H8443 0.961 . S
C8430 H8444 0.961 . S
C8431 C8428 1.539 . S
C8431 H8445 0.958 . S
C8431 H8446 0.961 . S
C8431 H8447 0.960 . S
H8432 C8416 0.931 . S
H8433 C8421 0.929 . S
H8434 C8422 0.960 . S
H8435 C8422 0.962 . S
H8436 C8422 0.960 . S
H8437 C8423 0.961 . S
H8438 C8423 0.961 . S
H8439 C8423 0.961 . S
H8440 C8424 0.931 . S
H8441 C8429 0.930 . S
H8442 C8430 0.956 . S
H8443 C8430 0.961 . S
H8444 C8430 0.961 . S
H8445 C8431 0.958 . S
H8446 C8431 0.961 . S
H8447 C8431 0.960 . S
C8448 C8449 1.391 . S
C8448 C8450 1.394 . S
C8448 H8464 0.931 . S
C8449 C8448 1.391 . S
C8449 C8453 1.376 . S
C8450 C8448 1.394 . S
C8450 C8451 1.369 . S
C8450 C8454 1.531 . S
C8451 C8450 1.369 . S
C8451 C8452 1.410 . S
C8451 C8459 1.503 . S
C8452 C8451 1.410 . S
C8452 C8453 1.392 . S
C8452 C8455 1.511 . S
C8453 C8449 1.376 . S
C8453 C8452 1.392 . S
C8453 H8465 0.929 . S
C8454 C8450 1.531 . S
C8454 H8466 0.960 . S
C8454 H8467 0.962 . S
C8454 H8468 0.960 . S
C8455 C8452 1.511 . S
C8455 H8469 0.961 . S
C8455 H8470 0.961 . S
C8455 H8471 0.961 . S
C8456 C8457 1.370 . S
C8456 C8458 1.363 . S
C8456 H8472 0.931 . S
C8457 C8456 1.370 . S
C8457 C8461 1.408 . S
C8458 C8456 1.363 . S
C8458 C8459 1.370 . S
C8458 C8462 1.524 . S
C8459 C8451 1.503 . S
C8459 C8458 1.370 . S
C8459 C8460 1.403 . S
C8460 C8459 1.403 . S
C8460 C8461 1.404 . S
C8460 C8463 1.539 . S
C8461 C8457 1.408 . S
C8461 C8460 1.404 . S
C8461 H8473 0.930 . S
C8462 C8458 1.524 . S
C8462 H8474 0.956 . S
C8462 H8475 0.961 . S
C8462 H8476 0.961 . S
C8463 C8460 1.539 . S
C8463 H8477 0.958 . S
C8463 H8478 0.961 . S
C8463 H8479 0.960 . S
H8464 C8448 0.931 . S
H8465 C8453 0.929 . S
H8466 C8454 0.960 . S
H8467 C8454 0.962 . S
H8468 C8454 0.960 . S
H8469 C8455 0.961 . S
H8470 C8455 0.961 . S
H8471 C8455 0.961 . S
H8472 C8456 0.931 . S
H8473 C8461 0.930 . S
H8474 C8462 0.956 . S
H8475 C8462 0.961 . S
H8476 C8462 0.961 . S
H8477 C8463 0.958 . S
H8478 C8463 0.961 . S
H8479 C8463 0.960 . S
C8480 C8481 1.391 . S
C8480 C8482 1.394 . S
C8480 H8496 0.931 . S
C8481 C8480 1.391 . S
C8481 C8485 1.376 . S
C8482 C8480 1.394 . S
C8482 C8483 1.369 . S
C8482 C8486 1.531 . S
C8483 C8482 1.369 . S
C8483 C8484 1.410 . S
C8483 C8491 1.503 . S
C8484 C8483 1.410 . S
C8484 C8485 1.392 . S
C8484 C8487 1.511 . S
C8485 C8481 1.376 . S
C8485 C8484 1.392 . S
C8485 H8497 0.929 . S
C8486 C8482 1.531 . S
C8486 H8498 0.960 . S
C8486 H8499 0.962 . S
C8486 H8500 0.960 . S
C8487 C8484 1.511 . S
C8487 H8501 0.961 . S
C8487 H8502 0.961 . S
C8487 H8503 0.961 . S
C8488 C8489 1.370 . S
C8488 C8490 1.363 . S
C8488 H8504 0.931 . S
C8489 C8488 1.370 . S
C8489 C8493 1.408 . S
C8490 C8488 1.363 . S
C8490 C8491 1.370 . S
C8490 C8494 1.524 . S
C8491 C8483 1.503 . S
C8491 C8490 1.370 . S
C8491 C8492 1.403 . S
C8492 C8491 1.403 . S
C8492 C8493 1.404 . S
C8492 C8495 1.539 . S
C8493 C8489 1.408 . S
C8493 C8492 1.404 . S
C8493 H8505 0.930 . S
C8494 C8490 1.524 . S
C8494 H8506 0.956 . S
C8494 H8507 0.961 . S
C8494 H8508 0.961 . S
C8495 C8492 1.539 . S
C8495 H8509 0.958 . S
C8495 H8510 0.961 . S
C8495 H8511 0.960 . S
H8496 C8480 0.931 . S
H8497 C8485 0.929 . S
H8498 C8486 0.960 . S
H8499 C8486 0.962 . S
H8500 C8486 0.960 . S
H8501 C8487 0.961 . S
H8502 C8487 0.961 . S
H8503 C8487 0.961 . S
H8504 C8488 0.931 . S
H8505 C8493 0.930 . S
H8506 C8494 0.956 . S
H8507 C8494 0.961 . S
H8508 C8494 0.961 . S
H8509 C8495 0.958 . S
H8510 C8495 0.961 . S
H8511 C8495 0.960 . S
C8512 C8513 1.391 . S
C8512 C8514 1.394 . S
C8512 H8528 0.931 . S
C8513 C8512 1.391 . S
C8513 C8517 1.376 . S
C8514 C8512 1.394 . S
C8514 C8515 1.369 . S
C8514 C8518 1.531 . S
C8515 C8514 1.369 . S
C8515 C8516 1.410 . S
C8515 C8523 1.503 . S
C8516 C8515 1.410 . S
C8516 C8517 1.392 . S
C8516 C8519 1.511 . S
C8517 C8513 1.376 . S
C8517 C8516 1.392 . S
C8517 H8529 0.929 . S
C8518 C8514 1.531 . S
C8518 H8530 0.960 . S
C8518 H8531 0.962 . S
C8518 H8532 0.960 . S
C8519 C8516 1.511 . S
C8519 H8533 0.961 . S
C8519 H8534 0.961 . S
C8519 H8535 0.961 . S
C8520 C8521 1.370 . S
C8520 C8522 1.363 . S
C8520 H8536 0.931 . S
C8521 C8520 1.370 . S
C8521 C8525 1.408 . S
C8522 C8520 1.363 . S
C8522 C8523 1.370 . S
C8522 C8526 1.524 . S
C8523 C8515 1.503 . S
C8523 C8522 1.370 . S
C8523 C8524 1.403 . S
C8524 C8523 1.403 . S
C8524 C8525 1.404 . S
C8524 C8527 1.539 . S
C8525 C8521 1.408 . S
C8525 C8524 1.404 . S
C8525 H8537 0.930 . S
C8526 C8522 1.524 . S
C8526 H8538 0.956 . S
C8526 H8539 0.961 . S
C8526 H8540 0.961 . S
C8527 C8524 1.539 . S
C8527 H8541 0.958 . S
C8527 H8542 0.961 . S
C8527 H8543 0.960 . S
H8528 C8512 0.931 . S
H8529 C8517 0.929 . S
H8530 C8518 0.960 . S
H8531 C8518 0.962 . S
H8532 C8518 0.960 . S
H8533 C8519 0.961 . S
H8534 C8519 0.961 . S
H8535 C8519 0.961 . S
H8536 C8520 0.931 . S
H8537 C8525 0.930 . S
H8538 C8526 0.956 . S
H8539 C8526 0.961 . S
H8540 C8526 0.961 . S
H8541 C8527 0.958 . S
H8542 C8527 0.961 . S
H8543 C8527 0.960 . S
C8544 C8545 1.391 . S
C8544 C8546 1.394 . S
C8544 H8560 0.931 . S
C8545 C8544 1.391 . S
C8545 C8549 1.376 . S
C8546 C8544 1.394 . S
C8546 C8547 1.369 . S
C8546 C8550 1.531 . S
C8547 C8546 1.369 . S
C8547 C8548 1.410 . S
C8547 C8555 1.503 . S
C8548 C8547 1.410 . S
C8548 C8549 1.392 . S
C8548 C8551 1.511 . S
C8549 C8545 1.376 . S
C8549 C8548 1.392 . S
C8549 H8561 0.929 . S
C8550 C8546 1.531 . S
C8550 H8562 0.960 . S
C8550 H8563 0.962 . S
C8550 H8564 0.960 . S
C8551 C8548 1.511 . S
C8551 H8565 0.961 . S
C8551 H8566 0.961 . S
C8551 H8567 0.961 . S
C8552 C8553 1.370 . S
C8552 C8554 1.363 . S
C8552 H8568 0.931 . S
C8553 C8552 1.370 . S
C8553 C8557 1.408 . S
C8554 C8552 1.363 . S
C8554 C8555 1.370 . S
C8554 C8558 1.524 . S
C8555 C8547 1.503 . S
C8555 C8554 1.370 . S
C8555 C8556 1.403 . S
C8556 C8555 1.403 . S
C8556 C8557 1.404 . S
C8556 C8559 1.539 . S
C8557 C8553 1.408 . S
C8557 C8556 1.404 . S
C8557 H8569 0.930 . S
C8558 C8554 1.524 . S
C8558 H8570 0.956 . S
C8558 H8571 0.961 . S
C8558 H8572 0.961 . S
C8559 C8556 1.539 . S
C8559 H8573 0.958 . S
C8559 H8574 0.961 . S
C8559 H8575 0.960 . S
H8560 C8544 0.931 . S
H8561 C8549 0.929 . S
H8562 C8550 0.960 . S
H8563 C8550 0.962 . S
H8564 C8550 0.960 . S
H8565 C8551 0.961 . S
H8566 C8551 0.961 . S
H8567 C8551 0.961 . S
H8568 C8552 0.931 . S
H8569 C8557 0.930 . S
H8570 C8558 0.956 . S
H8571 C8558 0.961 . S
H8572 C8558 0.961 . S
H8573 C8559 0.958 . S
H8574 C8559 0.961 . S
H8575 C8559 0.960 . S
C8576 C8577 1.391 . S
C8576 C8578 1.394 . S
C8576 H8592 0.931 . S
C8577 C8576 1.391 . S
C8577 C8581 1.376 . S
C8578 C8576 1.394 . S
C8578 C8579 1.369 . S
C8578 C8582 1.531 . S
C8579 C8578 1.369 . S
C8579 C8580 1.410 . S
C8579 C8587 1.503 . S
C8580 C8579 1.410 . S
C8580 C8581 1.392 . S
C8580 C8583 1.511 . S
C8581 C8577 1.376 . S
C8581 C8580 1.392 . S
C8581 H8593 0.929 . S
C8582 C8578 1.531 . S
C8582 H8594 0.960 . S
C8582 H8595 0.962 . S
C8582 H8596 0.960 . S
C8583 C8580 1.511 . S
C8583 H8597 0.961 . S
C8583 H8598 0.961 . S
C8583 H8599 0.961 . S
C8584 C8585 1.370 . S
C8584 C8586 1.363 . S
C8584 H8600 0.931 . S
C8585 C8584 1.370 . S
C8585 C8589 1.408 . S
C8586 C8584 1.363 . S
C8586 C8587 1.370 . S
C8586 C8590 1.524 . S
C8587 C8579 1.503 . S
C8587 C8586 1.370 . S
C8587 C8588 1.403 . S
C8588 C8587 1.403 . S
C8588 C8589 1.404 . S
C8588 C8591 1.539 . S
C8589 C8585 1.408 . S
C8589 C8588 1.404 . S
C8589 H8601 0.930 . S
C8590 C8586 1.524 . S
C8590 H8602 0.956 . S
C8590 H8603 0.961 . S
C8590 H8604 0.961 . S
C8591 C8588 1.539 . S
C8591 H8605 0.958 . S
C8591 H8606 0.961 . S
C8591 H8607 0.960 . S
H8592 C8576 0.931 . S
H8593 C8581 0.929 . S
H8594 C8582 0.960 . S
H8595 C8582 0.962 . S
H8596 C8582 0.960 . S
H8597 C8583 0.961 . S
H8598 C8583 0.961 . S
H8599 C8583 0.961 . S
H8600 C8584 0.931 . S
H8601 C8589 0.930 . S
H8602 C8590 0.956 . S
H8603 C8590 0.961 . S
H8604 C8590 0.961 . S
H8605 C8591 0.958 . S
H8606 C8591 0.961 . S
H8607 C8591 0.960 . S
C8608 C8609 1.391 . S
C8608 C8610 1.394 . S
C8608 H8624 0.931 . S
C8609 C8608 1.391 . S
C8609 C8613 1.376 . S
C8610 C8608 1.394 . S
C8610 C8611 1.369 . S
C8610 C8614 1.531 . S
C8611 C8610 1.369 . S
C8611 C8612 1.410 . S
C8611 C8619 1.503 . S
C8612 C8611 1.410 . S
C8612 C8613 1.392 . S
C8612 C8615 1.511 . S
C8613 C8609 1.376 . S
C8613 C8612 1.392 . S
C8613 H8625 0.929 . S
C8614 C8610 1.531 . S
C8614 H8626 0.960 . S
C8614 H8627 0.962 . S
C8614 H8628 0.960 . S
C8615 C8612 1.511 . S
C8615 H8629 0.961 . S
C8615 H8630 0.961 . S
C8615 H8631 0.961 . S
C8616 C8617 1.370 . S
C8616 C8618 1.363 . S
C8616 H8632 0.931 . S
C8617 C8616 1.370 . S
C8617 C8621 1.408 . S
C8618 C8616 1.363 . S
C8618 C8619 1.370 . S
C8618 C8622 1.524 . S
C8619 C8611 1.503 . S
C8619 C8618 1.370 . S
C8619 C8620 1.403 . S
C8620 C8619 1.403 . S
C8620 C8621 1.404 . S
C8620 C8623 1.539 . S
C8621 C8617 1.408 . S
C8621 C8620 1.404 . S
C8621 H8633 0.930 . S
C8622 C8618 1.524 . S
C8622 H8634 0.956 . S
C8622 H8635 0.961 . S
C8622 H8636 0.961 . S
C8623 C8620 1.539 . S
C8623 H8637 0.958 . S
C8623 H8638 0.961 . S
C8623 H8639 0.960 . S
H8624 C8608 0.931 . S
H8625 C8613 0.929 . S
H8626 C8614 0.960 . S
H8627 C8614 0.962 . S
H8628 C8614 0.960 . S
H8629 C8615 0.961 . S
H8630 C8615 0.961 . S
H8631 C8615 0.961 . S
H8632 C8616 0.931 . S
H8633 C8621 0.930 . S
H8634 C8622 0.956 . S
H8635 C8622 0.961 . S
H8636 C8622 0.961 . S
H8637 C8623 0.958 . S
H8638 C8623 0.961 . S
H8639 C8623 0.960 . S
C4033 C67 3.390 . S
C4041 C403 3.387 . S
C4065 C151 3.379 . S
C4073 C487 3.384 . S
C4097 C571 3.322 . S
C4105 C231 3.353 . S
C4129 C651 3.361 1_554 S
C4137 C319 3.320 . S
C4161 C739 3.383 . S
C4169 C819 3.426 . S
C4193 C823 3.301 1_565 S
C4201 C903 3.340 . S
C4225 C987 3.323 . S
C4233 C907 3.303 . S
C4257 C991 3.382 1_545 S
C4265 C735 3.419 . S
C4289 C1071 3.280 . S
C4297 C315 3.299 . S
C4321 C655 3.209 . S
C4329 C2835 3.259 . S
C4353 C399 3.265 . S
C4361 C1155 3.274 1_455 S
C4385 C483 3.248 . S
C4393 C2923 3.222 . S
C4417 C147 3.281 . S
C4425 C1239 3.299 . S
C4449 C2671 3.223 . S
C4457 C63 3.282 . S
C4481 C2583 3.274 . S
C4489 C235 3.236 . S
C4513 C1652 3.380 . S
C4521 C1316 3.391 . S
C4545 C1400 3.392 . S
C4553 C1736 3.389 . S
C4577 C1502 3.340 . S
C4585 C1820 3.321 . S
C4609 C1568 3.311 . S
C4617 C1922 3.361 1_556 S
C4641 C2090 3.419 . S
C4649 C1988 3.388 . S
C4673 C2072 3.288 1_545 S
C4681 C2174 3.340 . S
C4705 C2258 3.325 . S
C4713 C2156 3.296 . S
C4737 C2006 3.421 1_545 S
C4745 C2240 3.379 . S
C4769 C1586 3.282 . S
C4777 C2342 3.297 . S
C4801 C3602 3.263 . S
C4809 C1904 3.228 . S
C4833 C2426 3.281 1_655 S
C4841 C1670 3.273 . S
C4865 C1754 3.263 . S
C4873 C3668 3.228 . S
C4897 C2510 3.290 . S
C4905 C1418 3.294 . S
C4929 C1334 3.285 1_455 S
C4937 C3416 3.241 . S
C4961 C1484 3.246 . S
C4969 C3350 3.277 . S
C4993 C2755 3.378 . S
C5001 C2587 3.387 . S
C5025 C2839 3.392 . S
C5033 C1075 3.390 . S
C5057 C2667 3.347 . S
C5065 C1159 3.313 . S
C5089 C2919 3.355 . S
C5097 C1243 3.327 . S
C5121 C3007 3.378 . S
C5129 C3087 3.426 . S
C5153 C3091 3.281 . S
C5161 C3171 3.337 . S
C5185 C3255 3.338 . S
C5193 C3175 3.295 . S
C5217 C3003 3.407 . S
C5225 C3259 3.382 . S
C5249 C567 3.263 . S
C5257 C2751 3.280 . S
C5281 C3500 3.378 . S
C5289 C3332 3.390 . S
C5313 C3584 3.388 1_556 S
C5321 C2324 3.386 . S
C5345 C2408 3.322 . S
C5353 C3434 3.358 . S
C5377 C3686 3.343 . S
C5385 C2492 3.327 . S
C5409 C3752 3.389 . S
C5417 C3854 3.419 . S
C5441 C3836 3.290 . S
C5449 C3938 3.334 . S
C5473 C3920 3.280 . S
C5481 C4022 3.339 . S
C5505 C4004 3.382 . S
C5513 C3770 3.426 . S
C5537 C3518 3.265 . S
C5545 C1838 3.281 . S
C5569 C56 0.660 . S
C5577 C1414 0.793 . S
C5601 C3418 0.847 . S
C5609 C140 0.837 . S
C5633 C242 0.828 . S
C5641 C1582 0.731 . S
C5665 C308 0.801 . S
C5673 C3346 0.789 . S
C5697 C392 0.906 . S
C5705 C1906 0.817 . S
C5729 C476 0.743 . S
C5737 C3514 0.750 . S
C5761 C560 0.757 . S
C5769 C1750 0.816 . S
C5793 C2422 0.657 . S
C5801 C662 0.771 . S
C5825 C728 0.869 . S
C5833 C3334 0.780 . S
C5857 C812 0.705 . S
C5865 C1402 0.816 . S
C5889 C896 0.672 . S
C5897 C3430 0.787 . S
C5921 C1570 0.883 . S
C5929 C980 0.813 . S
C5953 C3502 0.834 . S
C5961 C998 0.762 . S
C5985 C1738 0.775 . S
C5993 C746 0.718 . S
C6017 C830 0.685 . S
C6025 C2410 0.766 . S
C6049 C1918 0.720 . S
C6057 C914 0.691 . S
C6081 C3754 0.828 . S
C6089 C1082 0.752 . S
C6113 C2254 0.828 . S
C6121 C644 0.720 . S
C6145 C410 0.647 . S
C6153 C3766 0.755 . S
C6177 C494 0.784 . S
C6185 C2086 0.690 . S
C6209 C1166 0.656 . S
C6217 C2170 0.765 . S
C6241 C3922 0.865 . S
C6249 C1250 0.797 . S
C6273 C74 0.701 . S
C6281 C4006 0.697 . S
C6305 C224 0.725 . S
C6313 C3838 0.793 . S
C6337 C142 0.690 . S
C6345 C1327 0.795 . S
C6369 C1411 0.739 . S
C6377 C2674 0.842 . S
C6401 C1491 0.646 . S
C6409 C310 0.727 . S
C6433 C1579 0.716 . S
C6441 C2578 0.765 . S
C6465 C658 0.854 . S
C6473 C1663 0.854 . S
C6497 C2746 0.662 . S
C6505 C1747 0.787 . S
C6529 C478 0.705 . S
C6537 C1831 0.822 . S
C6561 C1911 0.826 . S
C6569 C1150 0.735 . S
C6593 C1999 0.788 . S
C6601 C2590 0.819 . S
C6625 C154 0.780 . S
C6633 C2083 0.819 . S
C6657 C2167 0.764 . S
C6665 C2662 0.796 . S
C6689 C322 0.847 . S
C6697 C2251 0.841 . S
C6721 C2758 0.785 . S
C6729 C2247 0.734 . S
C6753 C1995 0.681 . S
C6761 C490 0.748 . S
C6785 C2079 0.852 . S
C6793 C1162 0.785 . S
C6817 C646 0.664 . S
C6825 C2163 0.750 . S
C6849 C2331 0.708 . S
C6857 C3010 0.760 . S
C6881 C982 0.801 . S
C6889 C1915 0.721 . S
C6913 C2998 0.615 . S
C6921 C1659 0.712 . S
C6945 C1743 0.762 . S
C6953 C814 0.684 . S
C6977 C2415 0.709 . S
C6985 C898 0.699 . S
C7009 C3178 0.759 . S
C7017 C2499 0.800 . S
C7041 C1323 0.658 . S
C7049 C3262 0.698 . S
C7073 C3094 0.851 . S
C7081 C1495 0.826 . S
C7105 C2338 0.668 . S
C7113 C2576 0.795 . S
C7137 C1064 0.727 . S
C7145 C1486 0.845 . S
C7169 C2506 0.841 . S
C7177 C2678 0.726 . S
C7201 C1232 0.793 . S
C7209 C1330 0.745 . S
C7233 C2744 0.726 . S
C7241 C3670 0.848 . S
C7265 C1666 0.842 . S
C7273 C2828 0.755 . S
C7297 C1148 0.772 . S
C7305 C3598 0.811 . S
C7329 C1834 0.768 . S
C7337 C2930 0.785 . S
C7361 C2996 0.843 . S
C7369 C1318 0.801 . S
C7393 C3080 0.686 . S
C7401 C2326 0.793 . S
C7425 C3164 0.670 . S
C7433 C1498 0.790 . S
C7457 C2494 0.745 . S
C7465 C3248 0.805 . S
C7489 C1654 0.716 . S
C7497 C3266 0.711 . S
C7521 C3014 0.698 . S
C7529 C3586 0.767 . S
C7553 C1822 0.700 . S
C7561 C3098 0.754 . S
C7585 C3182 0.797 . S
C7593 C3682 0.700 . S
C7617 C158 0.658 . S
C7625 C1990 0.722 . S
C7649 C4018 0.742 . S
C7657 C2912 0.788 . S
C7681 C2762 0.632 . S
C7689 C2002 0.695 . S
C7713 C2846 0.761 . S
C7721 C3850 0.739 . S
C7745 C3934 0.843 . S
C7753 C578 0.739 . S
C7777 C2158 0.864 . S
C7785 C326 0.792 . S
C7809 C2594 0.779 . S
C7817 C2242 0.711 . S
C7841 C2074 0.872 . S
C7849 C2660 0.802 . S
C7873 C1066 0.654 . S
C7881 C3343 0.784 . S
C7905 C2335 0.829 . S
C7913 C238 0.786 . S
C7937 C1234 0.811 . S
C7945 C3423 0.772 . S
C7969 C2503 0.700 . S
C7977 C58 0.811 . S
C8001 C3511 0.788 . S
C8009 C2926 0.802 . S
C8033 C394 0.695 . S
C8041 C3595 0.759 . S
C8065 C2830 0.690 . S
C8073 C2419 0.795 . S
C8097 C562 0.645 . S
C8105 C3675 0.737 . S
C8129 C70 0.820 . S
C8137 C3763 0.743 . S
C8161 C3847 0.849 . S
C8169 C1078 0.810 . S
C8193 C226 0.833 . S
C8201 C3931 0.724 . S
C8225 C1246 0.824 . S
C8233 C4015 0.844 . S
C8257 C406 0.687 . S
C8265 C4011 0.751 . S
C8289 C2842 0.718 . S
C8297 C3759 0.764 . S
C8321 C3843 0.747 . S
C8329 C574 0.748 . S
C8353 C2914 0.789 . S
C8361 C3927 0.699 . S
C8385 C742 0.673 . S
C8393 C1407 0.741 . S
C8417 C3679 0.776 . S
C8425 C3250 0.788 . S
C8449 C3507 0.766 . S
C8457 C730 0.689 . S
C8481 C3082 0.647 . S
C8489 C3591 0.722 . S
C8513 C1827 0.651 . S
C8521 C3166 0.722 . S
C8545 C1575 0.794 . S
C8553 C910 0.762 . S
C8577 C994 0.681 . S
C8585 C3339 0.696 . S
C8609 C826 0.760 . S
C8617 C3427 0.764 . S
