# Generated by pormake.
# Topology umo, (4)-cn, num edge types: 1
# Building blocks:
#     Node 0, Type 0, BuildingBlock: ICAMEG_clean_sbu_1, # of connection points: 4
#     Node 1, Type 0, BuildingBlock: ICAMEG_clean_sbu_1, # of connection points: 4
#     Node 2, Type 0, BuildingBlock: ICAMEG_clean_sbu_1, # of connection points: 4
#     Node 3, Type 0, BuildingBlock: ICAMEG_clean_sbu_1, # of connection points: 4
#     Node 4, Type 0, BuildingBlock: ICAMEG_clean_sbu_1, # of connection points: 4
#     Node 5, Type 0, BuildingBlock: ICAMEG_clean_sbu_1, # of connection points: 4
#     Node 6, Type 0, BuildingBlock: ICAMEG_clean_sbu_1, # of connection points: 4
#     Node 7, Type 0, BuildingBlock: ICAMEG_clean_sbu_1, # of connection points: 4
#     Node 8, Type 0, BuildingBlock: ICAMEG_clean_sbu_1, # of connection points: 4
#     Node 9, Type 0, BuildingBlock: ICAMEG_clean_sbu_1, # of connection points: 4
#     Node 10, Type 0, BuildingBlock: ICAMEG_clean_sbu_1, # of connection points: 4
#     Node 11, Type 0, BuildingBlock: ICAMEG_clean_sbu_1, # of connection points: 4
#     Edge 12, Type (0, 0), BuildingBlock: EZIPEK_clean_linker_0, # of connection points: 2
#     Edge 13, Type (0, 0), BuildingBlock: EZIPEK_clean_linker_0, # of connection points: 2
#     Edge 14, Type (0, 0), BuildingBlock: EZIPEK_clean_linker_0, # of connection points: 2
#     Edge 15, Type (0, 0), BuildingBlock: EZIPEK_clean_linker_0, # of connection points: 2
#     Edge 16, Type (0, 0), BuildingBlock: EZIPEK_clean_linker_0, # of connection points: 2
#     Edge 17, Type (0, 0), BuildingBlock: EZIPEK_clean_linker_0, # of connection points: 2
#     Edge 18, Type (0, 0), BuildingBlock: EZIPEK_clean_linker_0, # of connection points: 2
#     Edge 19, Type (0, 0), BuildingBlock: EZIPEK_clean_linker_0, # of connection points: 2
#     Edge 20, Type (0, 0), BuildingBlock: EZIPEK_clean_linker_0, # of connection points: 2
#     Edge 21, Type (0, 0), BuildingBlock: EZIPEK_clean_linker_0, # of connection points: 2
#     Edge 22, Type (0, 0), BuildingBlock: EZIPEK_clean_linker_0, # of connection points: 2
#     Edge 23, Type (0, 0), BuildingBlock: EZIPEK_clean_linker_0, # of connection points: 2
#     Edge 24, Type (0, 0), BuildingBlock: EZIPEK_clean_linker_0, # of connection points: 2
#     Edge 25, Type (0, 0), BuildingBlock: EZIPEK_clean_linker_0, # of connection points: 2
#     Edge 26, Type (0, 0), BuildingBlock: EZIPEK_clean_linker_0, # of connection points: 2
#     Edge 27, Type (0, 0), BuildingBlock: EZIPEK_clean_linker_0, # of connection points: 2
#     Edge 28, Type (0, 0), BuildingBlock: EZIPEK_clean_linker_0, # of connection points: 2
#     Edge 29, Type (0, 0), BuildingBlock: EZIPEK_clean_linker_0, # of connection points: 2
#     Edge 30, Type (0, 0), BuildingBlock: EZIPEK_clean_linker_0, # of connection points: 2
#     Edge 31, Type (0, 0), BuildingBlock: EZIPEK_clean_linker_0, # of connection points: 2
#     Edge 32, Type (0, 0), BuildingBlock: EZIPEK_clean_linker_0, # of connection points: 2
#     Edge 33, Type (0, 0), BuildingBlock: EZIPEK_clean_linker_0, # of connection points: 2
#     Edge 34, Type (0, 0), BuildingBlock: EZIPEK_clean_linker_0, # of connection points: 2
#     Edge 35, Type (0, 0), BuildingBlock: EZIPEK_clean_linker_0, # of connection points: 2
# Relax obj value: 0.092
# Max RMSD: 0.152
# Mean RMSD: 0.151
data_MOF--net-umo--node1-ICAMEG_clean_sbu_1--edge1-EZIPEK_clean_linker_0
_symmetry_space_group_name_H-M    P1
_symmetry_Int_Tables_number       1
_symmetry_cell_setting            triclinic
loop_
_symmetry_equiv_pos_as_xyz
'x, y, z'
_cell_length_a     39.449372
_cell_length_b     39.393872
_cell_length_c     29.720415
_cell_angle_alpha  89.761972
_cell_angle_beta   90.230494
_cell_angle_gamma 120.0637
loop_
_atom_site_label
_atom_site_type_symbol
_atom_site_fract_x
_atom_site_fract_y
_atom_site_fract_z
_atom_type_partial_charge
Co0 Co 0.13342 0.58128 0.42116 0.0
Co1 Co 0.1766 0.52452 0.42774 0.0
O2 O 0.14355 0.54106 0.39701 0.0
C3 C 0.05731 0.51268 0.39907 0.0
O4 O 0.06754 0.49286 0.42598 0.0
C5 C 0.18899 0.52173 0.32665 0.0
O6 O 0.1613 0.52998 0.31813 0.0
O7 O 0.21907 0.57928 0.4266 0.0
O8 O 0.1882 0.61234 0.44549 0.0
H9 H 0.27599 0.53937 0.54383 0.0
H10 H 0.11934 0.56384 0.3229 0.0
O11 O 0.07911 0.54982 0.39507 0.0
H12 H 0.21259 0.70523 0.33167 0.0
H13 H 0.0705 0.66523 0.41936 0.0
H14 H 0.15235 0.62633 0.50633 0.0
H15 H 0.18768 0.66554 0.40057 0.0
H16 H 0.08771 0.61785 0.38814 0.0
O17 O 0.19685 0.51696 0.36737 0.0
H18 H 0.23133 0.55659 0.50489 0.0
H19 H 0.19734 0.46199 0.41405 0.0
H20 H 0.13591 0.67375 0.5388 0.0
H21 H 0.14305 0.60195 0.25284 0.0
H22 H 0.09471 0.69354 0.49519 0.0
H23 H 0.19009 0.67348 0.25703 0.0
O24 O 0.1158 0.55267 0.47931 0.0
H25 H 0.06239 0.4036 0.36068 0.0
H26 H 0.14377 0.45996 0.49584 0.0
H27 H 0.08902 0.39204 0.49804 0.0
H28 H 0.04786 0.3632 0.42994 0.0
H29 H 0.11679 0.47145 0.36054 0.0
H30 H 0.24208 0.44401 0.45158 0.0
H31 H 0.28158 0.48268 0.5172 0.0
O32 O 0.15952 0.53342 0.48954 0.0
C33 C 0.21907 0.61031 0.43824 0.0
C34 C 0.2588 0.52216 0.51543 0.0
C35 C 0.23978 0.46867 0.46363 0.0
N36 N 0.21124 0.5099 0.45772 0.0
C37 C 0.23332 0.53167 0.49335 0.0
C38 C 0.21455 0.47902 0.44244 0.0
C39 C 0.26194 0.49038 0.50044 0.0
C40 C 0.13965 0.59445 0.32489 0.0
N41 N 0.15214 0.61181 0.36579 0.0
C42 C 0.15311 0.61616 0.28515 0.0
C43 C 0.17956 0.65626 0.2875 0.0
C44 C 0.1921 0.67406 0.32935 0.0
C45 C 0.17793 0.6513 0.3683 0.0
C46 C 0.08852 0.65688 0.43865 0.0
C47 C 0.13459 0.63493 0.48704 0.0
C48 C 0.09828 0.63003 0.42118 0.0
N49 N 0.12117 0.61952 0.44529 0.0
C50 C 0.1253 0.66174 0.50565 0.0
C51 C 0.10214 0.67278 0.4812 0.0
C52 C 0.13398 0.54136 0.50531 0.0
C53 C 0.08015 0.41574 0.39057 0.0
C54 C 0.12586 0.44805 0.46636 0.0
C55 C 0.09496 0.40933 0.46765 0.0
C56 C 0.07195 0.39314 0.42944 0.0
N57 N 0.13385 0.47018 0.42816 0.0
C58 C 0.11136 0.45432 0.39057 0.0
Co59 Co 0.67114 0.20179 0.58861 0.0
Co60 Co 0.57168 0.14417 0.59264 0.0
O61 O 0.62183 0.16115 0.56256 0.0
C62 C 0.68061 0.20869 0.48635 0.0
O63 O 0.64608 0.17744 0.48108 0.0
C64 C 0.56576 0.07552 0.54112 0.0
O65 O 0.60031 0.09875 0.5238 0.0
O66 O 0.59228 0.13104 0.64693 0.0
O67 O 0.64938 0.18614 0.65259 0.0
H68 H 0.49211 0.13855 0.72708 0.0
H69 H 0.67499 0.14454 0.52559 0.0
O70 O 0.69471 0.22041 0.52593 0.0
H71 H 0.73452 0.13399 0.66686 0.0
H72 H 0.81767 0.28674 0.60255 0.0
H73 H 0.68974 0.26233 0.65801 0.0
H74 H 0.71062 0.18068 0.66006 0.0
H75 H 0.75624 0.23252 0.57164 0.0
O76 O 0.55058 0.08866 0.56938 0.0
H77 H 0.55232 0.16083 0.68315 0.0
H78 H 0.48601 0.09232 0.5721 0.0
H79 H 0.75036 0.31679 0.68999 0.0
H80 H 0.69881 0.09787 0.53057 0.0
H81 H 0.81495 0.32918 0.66237 0.0
H82 H 0.72882 0.09214 0.60171 0.0
O83 O 0.65014 0.23756 0.58413 0.0
H84 H 0.54824 0.15471 0.42637 0.0
H85 H 0.52721 0.18586 0.58036 0.0
H86 H 0.50247 0.20669 0.51629 0.0
H87 H 0.51297 0.19129 0.43851 0.0
H88 H 0.57229 0.13438 0.49102 0.0
H89 H 0.42489 0.06894 0.6147 0.0
H90 H 0.42767 0.09213 0.69296 0.0
O91 O 0.59133 0.19868 0.61538 0.0
C92 C 0.62094 0.15556 0.67088 0.0
C93 C 0.49047 0.12802 0.6931 0.0
C94 C 0.4528 0.08889 0.63012 0.0
N95 N 0.52293 0.12715 0.62516 0.0
C96 C 0.52456 0.14045 0.66801 0.0
C97 C 0.48757 0.10186 0.60616 0.0
C98 C 0.45436 0.10198 0.67397 0.0
C99 C 0.68796 0.14256 0.55656 0.0
N100 N 0.69105 0.16546 0.59248 0.0
C101 C 0.70147 0.11592 0.55923 0.0
C102 C 0.71825 0.11268 0.59914 0.0
C103 C 0.72141 0.1361 0.63568 0.0
C104 C 0.70757 0.1624 0.63171 0.0
C105 C 0.78972 0.28147 0.61508 0.0
C106 C 0.71773 0.26741 0.64601 0.0
C107 C 0.75486 0.2508 0.59773 0.0
N108 N 0.71947 0.24378 0.61368 0.0
C109 C 0.75196 0.29835 0.66417 0.0
C110 C 0.78817 0.3053 0.64861 0.0
C111 C 0.61759 0.23158 0.59955 0.0
C112 C 0.54325 0.16139 0.46015 0.0
C113 C 0.53163 0.17846 0.54677 0.0
C114 C 0.51756 0.19051 0.51053 0.0
C115 C 0.5235 0.18193 0.46692 0.0
N116 N 0.55104 0.15818 0.54011 0.0
C117 C 0.55687 0.14975 0.49726 0.0
Co118 Co 0.46041 0.66602 0.76982 0.0
Co119 Co 0.40843 0.56567 0.75917 0.0
O120 O 0.44927 0.6178 0.73915 0.0
C121 C 0.45426 0.6832 0.67389 0.0
O122 O 0.42426 0.64765 0.67204 0.0
C123 C 0.47526 0.55816 0.72173 0.0
O124 O 0.49468 0.59578 0.71297 0.0
O125 O 0.43149 0.57646 0.82081 0.0
O126 O 0.44654 0.63845 0.83094 0.0
H127 H 0.3071 0.47349 0.86875 0.0
H128 H 0.52187 0.67172 0.70828 0.0
O129 O 0.47402 0.69531 0.71026 0.0
H130 H 0.58435 0.70584 0.85786 0.0
H131 H 0.53285 0.81192 0.79454 0.0
H132 H 0.41739 0.68577 0.83625 0.0
H133 H 0.5162 0.69056 0.84779 0.0
H134 H 0.52377 0.74982 0.76387 0.0
O135 O 0.44205 0.5424 0.74155 0.0
H136 H 0.3564 0.53786 0.83868 0.0
H137 H 0.37566 0.48279 0.72704 0.0
H138 H 0.42426 0.74713 0.86596 0.0
H139 H 0.59033 0.68722 0.71661 0.0
H140 H 0.48254 0.81091 0.84537 0.0
H141 H 0.62199 0.70421 0.79192 0.0
O142 O 0.40523 0.65164 0.76094 0.0
H143 H 0.40831 0.57155 0.58908 0.0
H144 H 0.32631 0.52623 0.72515 0.0
H145 H 0.29484 0.51237 0.65068 0.0
H146 H 0.33586 0.53506 0.58186 0.0
H147 H 0.43858 0.58427 0.6639 0.0
H148 H 0.32686 0.41782 0.75605 0.0
H149 H 0.29201 0.41283 0.82737 0.0
O150 O 0.37344 0.58682 0.77598 0.0
C151 C 0.43996 0.60535 0.84684 0.0
C152 C 0.32196 0.47526 0.83754 0.0
C153 C 0.33313 0.44403 0.77437 0.0
N154 N 0.36882 0.51424 0.78085 0.0
C155 C 0.34985 0.51168 0.82022 0.0
C156 C 0.36092 0.48096 0.75814 0.0
C157 C 0.31356 0.44125 0.81436 0.0
C158 C 0.5354 0.67915 0.74115 0.0
N159 N 0.51467 0.67949 0.77768 0.0
C160 C 0.57421 0.68787 0.74566 0.0
C161 C 0.59194 0.69736 0.78791 0.0
C162 C 0.57081 0.69819 0.82493 0.0
C163 C 0.53203 0.68919 0.81912 0.0
C164 C 0.50751 0.78434 0.80404 0.0
C165 C 0.44286 0.71331 0.82727 0.0
C166 C 0.5024 0.74904 0.78713 0.0
N167 N 0.47034 0.71413 0.7988 0.0
C168 C 0.44662 0.74801 0.84419 0.0
C169 C 0.47924 0.78375 0.8325 0.0
C170 C 0.37426 0.61916 0.76875 0.0
C171 C 0.39009 0.561 0.61879 0.0
C172 C 0.34456 0.53537 0.6955 0.0
C173 C 0.32646 0.52773 0.65333 0.0
C174 C 0.34946 0.54059 0.61475 0.0
N175 N 0.38453 0.55475 0.69936 0.0
C176 C 0.40715 0.56798 0.66152 0.0
Co177 Co 0.85267 0.41884 0.91735 0.0
Co178 Co 0.8022 0.469 0.92192 0.0
O179 O 0.83761 0.45537 0.89189 0.0
C180 C 0.92472 0.49125 0.89401 0.0
O181 O 0.91154 0.50929 0.91935 0.0
C182 C 0.78552 0.46466 0.82107 0.0
O183 O 0.81739 0.46322 0.81286 0.0
O184 O 0.76346 0.4132 0.92515 0.0
O185 O 0.79874 0.38416 0.94226 0.0
H186 H 0.70303 0.44932 0.03945 0.0
H187 H 0.86643 0.43564 0.81882 0.0
O188 O 0.90611 0.45387 0.89122 0.0
H189 H 0.78144 0.29273 0.83013 0.0
H190 H 0.92692 0.34573 0.91814 0.0
H191 H 0.83835 0.37576 1.00374 0.0
H192 H 0.80353 0.33353 0.89826 0.0
H193 H 0.90392 0.38842 0.88558 0.0
O194 O 0.7775 0.46987 0.86142 0.0
H195 H 0.75091 0.43667 1.00151 0.0
H196 H 0.77344 0.52514 0.90491 0.0
H197 H 0.86056 0.33297 0.03755 0.0
H198 H 0.8461 0.39623 0.74957 0.0
H199 H 0.90514 0.31765 0.99462 0.0
H200 H 0.80282 0.32398 0.755 0.0
O201 O 0.86868 0.44841 0.97472 0.0
H202 H 0.90698 0.59252 0.84684 0.0
H203 H 0.83179 0.53598 0.9857 0.0
H204 H 0.8819 0.60584 0.98381 0.0
H205 H 0.91992 0.63478 0.91383 0.0
H206 H 0.85737 0.52295 0.85076 0.0
H207 H 0.72525 0.53852 0.94145 0.0
H208 H 0.68978 0.50058 1.00943 0.0
O209 O 0.82326 0.46559 0.98377 0.0
C210 C 0.76641 0.3839 0.93745 0.0
C211 C 0.71833 0.46621 1.01 0.0
C212 C 0.73081 0.5162 0.95495 0.0
N213 N 0.76532 0.48052 0.95137 0.0
C214 C 0.74564 0.45927 0.98845 0.0
C215 C 0.75796 0.50845 0.9343 0.0
C216 C 0.71092 0.49492 0.9931 0.0
C217 C 0.84804 0.40463 0.82139 0.0
N218 N 0.83602 0.38748 0.86256 0.0
C219 C 0.8365 0.38222 0.78209 0.0
C220 C 0.81219 0.34172 0.78513 0.0
C221 C 0.80018 0.3242 0.82725 0.0
C222 C 0.81264 0.3476 0.86576 0.0
C223 C 0.90743 0.35213 0.93712 0.0
C224 C 0.85757 0.36906 0.98474 0.0
C225 C 0.89438 0.37631 0.91889 0.0
N226 N 0.86962 0.38432 0.94261 0.0
C227 C 0.87012 0.34488 1.00411 0.0
C228 C 0.89519 0.33636 0.98004 0.0
C229 C 0.85017 0.45969 0.99984 0.0
C230 C 0.89052 0.58035 0.87751 0.0
C231 C 0.84835 0.54797 0.95537 0.0
C232 C 0.87661 0.58777 0.95436 0.0
C233 C 0.89785 0.604 0.91511 0.0
N234 N 0.84116 0.52478 0.91838 0.0
C235 C 0.86194 0.54069 0.8798 0.0
Co236 Co 0.33329 0.8064 0.08851 0.0
Co237 Co 0.43208 0.83982 0.08828 0.0
O238 O 0.38487 0.83556 0.06045 0.0
C239 C 0.32103 0.79266 0.98731 0.0
O240 O 0.35801 0.81811 0.97981 0.0
C241 C 0.45075 0.91913 0.06317 0.0
O242 O 0.4183 0.9117 0.08355 0.0
O243 O 0.42203 0.8599 0.14453 0.0
O244 O 0.3574 0.82203 0.15131 0.0
H245 H 0.50961 0.82469 0.21336 0.0
H246 H 0.34455 0.8655 0.01764 0.0
O247 O 0.30701 0.7873 0.02725 0.0
H248 H 0.30325 0.9064 0.1531 0.0
H249 H 0.18849 0.75545 0.10365 0.0
H250 H 0.30245 0.7509 0.16498 0.0
H251 H 0.30956 0.84738 0.15437 0.0
H252 H 0.25393 0.79534 0.0697 0.0
O253 O 0.46247 0.89437 0.06382 0.0
H254 H 0.44996 0.81641 0.17625 0.0
H255 H 0.51575 0.87653 0.0604 0.0
H256 H 0.23783 0.7107 0.19999 0.0
H257 H 0.33812 0.92424 0.01447 0.0
H258 H 0.18015 0.71285 0.16949 0.0
H259 H 0.31744 0.94532 0.08266 0.0
O260 O 0.3393 0.75996 0.0904 0.0
H261 H 0.45232 0.83476 0.92169 0.0
H262 H 0.45206 0.77796 0.0698 0.0
H263 H 0.46816 0.75307 1.00229 0.0
H264 H 0.46965 0.78229 0.92808 0.0
H265 H 0.43591 0.8586 0.99028 0.0
H266 H 0.57621 0.88556 0.09634 0.0
H267 H 0.57334 0.85947 0.17333 0.0
O268 O 0.40203 0.78483 0.1122 0.0
C269 C 0.3912 0.84512 0.16844 0.0
C270 C 0.51122 0.83604 0.17972 0.0
C271 C 0.5486 0.87027 0.11408 0.0
N272 N 0.47931 0.8457 0.11605 0.0
C273 C 0.47751 0.83135 0.15847 0.0
C274 C 0.51429 0.86512 0.09392 0.0
C275 C 0.54697 0.85561 0.15727 0.0
C276 C 0.33519 0.87393 0.04727 0.0
N277 N 0.32754 0.8527 0.08613 0.0
C278 C 0.33175 0.90751 0.04537 0.0
C279 C 0.32024 0.91937 0.08363 0.0
C280 C 0.31235 0.8976 0.12315 0.0
C281 C 0.31622 0.86424 0.12377 0.0
C282 C 0.21339 0.75443 0.11747 0.0
C283 C 0.27762 0.75225 0.15168 0.0
C284 C 0.25049 0.77696 0.0984 0.0
N285 N 0.28209 0.77599 0.1159 0.0
C286 C 0.24102 0.72932 0.17159 0.0
C287 C 0.20872 0.73052 0.15439 0.0
C288 C 0.36765 0.75624 0.10468 0.0
C289 C 0.45203 0.82199 0.9541 0.0
C290 C 0.45148 0.79018 0.03739 0.0
C291 C 0.46089 0.77609 0.9993 0.0
C292 C 0.46146 0.79238 0.95752 0.0
N293 N 0.44264 0.81954 0.03399 0.0
C294 C 0.44269 0.83533 0.99301 0.0
Co295 Co 0.51874 0.32375 0.25392 0.0
Co296 Co 0.57289 0.42276 0.22504 0.0
O297 O 0.52824 0.36948 0.21807 0.0
C298 C 0.5251 0.30219 0.16006 0.0
O299 O 0.55306 0.33867 0.15537 0.0
C300 C 0.50127 0.42966 0.22838 0.0
O301 O 0.48362 0.39803 0.25349 0.0
O302 O 0.56558 0.42044 0.29245 0.0
O303 O 0.53197 0.3561 0.31117 0.0
H304 H 0.70723 0.52808 0.27711 0.0
H305 H 0.45894 0.31799 0.18921 0.0
O306 O 0.50632 0.29101 0.19714 0.0
H307 H 0.39203 0.28009 0.33597 0.0
H308 H 0.44861 0.17972 0.29193 0.0
H309 H 0.55626 0.31064 0.33408 0.0
H310 H 0.46122 0.29743 0.32911 0.0
H311 H 0.46017 0.23831 0.24918 0.0
O312 O 0.53678 0.44395 0.21683 0.0
H313 H 0.65313 0.4609 0.26865 0.0
H314 H 0.59084 0.50099 0.18812 0.0
H315 H 0.54562 0.25295 0.37798 0.0
H316 H 0.38961 0.3005 0.19426 0.0
H317 H 0.4915 0.18679 0.35679 0.0
H318 H 0.35577 0.28162 0.26815 0.0
O319 O 0.57423 0.3374 0.24866 0.0
H320 H 0.52951 0.40597 0.0632 0.0
H321 H 0.64223 0.44852 0.16553 0.0
H322 H 0.65274 0.45253 0.08367 0.0
H323 H 0.59617 0.43105 0.03176 0.0
H324 H 0.5203 0.40227 0.14539 0.0
H325 H 0.6446 0.56865 0.19575 0.0
H326 H 0.70339 0.58289 0.24073 0.0
O327 O 0.60916 0.40185 0.23196 0.0
C328 C 0.55044 0.39269 0.32181 0.0
C329 C 0.68133 0.52241 0.25836 0.0
C330 C 0.64623 0.54515 0.21273 0.0
N331 N 0.61693 0.47645 0.23065 0.0
C332 C 0.64997 0.48414 0.25406 0.0
C333 C 0.61542 0.50652 0.20917 0.0
C334 C 0.67925 0.55311 0.23782 0.0
C335 C 0.44437 0.30983 0.22144 0.0
N336 N 0.46425 0.30956 0.25903 0.0
C337 C 0.40513 0.29993 0.22411 0.0
C338 C 0.38617 0.28935 0.26557 0.0
C339 C 0.40651 0.28856 0.30364 0.0
C340 C 0.44573 0.29867 0.29965 0.0
C341 C 0.47233 0.20837 0.30141 0.0
C342 C 0.53264 0.2821 0.32475 0.0
C343 C 0.47913 0.24167 0.27722 0.0
N344 N 0.50902 0.27799 0.28899 0.0
C345 C 0.52674 0.24947 0.34973 0.0
C346 C 0.49638 0.21237 0.33785 0.0
C347 C 0.60623 0.36881 0.24039 0.0
C348 C 0.55444 0.41548 0.08542 0.0
C349 C 0.61741 0.43922 0.14329 0.0
C350 C 0.62356 0.44149 0.09688 0.0
C351 C 0.59181 0.42949 0.0678 0.0
N352 N 0.58066 0.42539 0.16036 0.0
C353 C 0.54939 0.41359 0.13204 0.0
Co354 Co 0.45613 0.79445 0.42201 0.0
Co355 Co 0.40417 0.84129 0.45128 0.0
O356 O 0.44606 0.82892 0.46012 0.0
C357 C 0.45138 0.76565 0.51544 0.0
O358 O 0.42251 0.77258 0.52056 0.0
C359 C 0.47804 0.91576 0.47582 0.0
O360 O 0.49558 0.89532 0.48088 0.0
O361 O 0.41565 0.85054 0.38591 0.0
O362 O 0.44163 0.81367 0.36566 0.0
H363 H 0.28489 0.82608 0.37106 0.0
H364 H 0.52031 0.84287 0.48651 0.0
O365 O 0.46958 0.77362 0.47798 0.0
H366 H 0.57767 0.8869 0.33572 0.0
H367 H 0.52937 0.72481 0.38118 0.0
H368 H 0.42707 0.75372 0.33262 0.0
H369 H 0.50923 0.83406 0.34417 0.0
H370 H 0.51213 0.76467 0.42869 0.0
O371 O 0.44214 0.8992 0.46303 0.0
H372 H 0.33771 0.81189 0.38736 0.0
H373 H 0.37963 0.89547 0.49239 0.0
H374 H 0.4448 0.71575 0.28354 0.0
H375 H 0.58917 0.89521 0.47951 0.0
H376 H 0.49606 0.70029 0.30766 0.0
H377 H 0.61822 0.91791 0.4037 0.0
O378 O 0.40047 0.7522 0.42867 0.0
H379 H 0.43189 0.8477 0.6187 0.0
H380 H 0.32971 0.80242 0.50178 0.0
H381 H 0.31071 0.79139 0.5807 0.0
H382 H 0.36173 0.81392 0.64058 0.0
H383 H 0.44974 0.85832 0.53898 0.0
H384 H 0.32782 0.91126 0.47712 0.0
H385 H 0.27968 0.87626 0.41608 0.0
O386 O 0.36658 0.78389 0.44074 0.0
C387 C 0.42732 0.83565 0.35621 0.0
C388 C 0.30572 0.84164 0.39769 0.0
C389 C 0.32987 0.88949 0.45707 0.0
N390 N 0.3623 0.85311 0.44059 0.0
C391 C 0.33577 0.83369 0.40708 0.0
C392 C 0.35955 0.88075 0.46538 0.0
C393 C 0.30283 0.8698 0.42291 0.0
C394 C 0.53276 0.85216 0.45336 0.0
N395 N 0.5104 0.83572 0.41584 0.0
C396 C 0.57179 0.88199 0.44963 0.0
C397 C 0.58805 0.89475 0.40709 0.0
C398 C 0.56529 0.87745 0.36895 0.0
C399 C 0.52637 0.84769 0.37399 0.0
C400 C 0.50644 0.73061 0.37066 0.0
C401 C 0.44876 0.74689 0.34438 0.0
C402 C 0.49599 0.75272 0.39786 0.0
N403 N 0.46713 0.76037 0.38491 0.0
C404 C 0.45892 0.72531 0.31599 0.0
C405 C 0.48779 0.7169 0.3294 0.0
C406 C 0.36861 0.75268 0.43498 0.0
C407 C 0.4093 0.83815 0.59319 0.0
C408 C 0.35244 0.81339 0.52712 0.0
C409 C 0.34136 0.80664 0.57216 0.0
C410 C 0.36999 0.81918 0.60547 0.0
N411 N 0.39107 0.83243 0.51508 0.0
C412 C 0.41932 0.84446 0.54764 0.0
Co413 Co 0.54365 0.40154 0.60929 0.0
Co414 Co 0.64349 0.44722 0.58832 0.0
O415 O 0.59819 0.44108 0.62163 0.0
C416 C 0.54009 0.46476 0.65602 0.0
O417 O 0.56555 0.46394 0.68396 0.0
C418 C 0.67519 0.43103 0.67366 0.0
O419 O 0.65368 0.39332 0.66592 0.0
O420 O 0.62342 0.39013 0.59118 0.0
O421 O 0.55779 0.3604 0.59798 0.0
H422 H 0.71478 0.41697 0.46927 0.0
H423 H 0.59361 0.39681 0.68107 0.0
O424 O 0.52894 0.44271 0.6213 0.0
H425 H 0.46832 0.35721 0.75608 0.0
H426 H 0.41247 0.35675 0.53785 0.0
H427 H 0.491 0.31545 0.62754 0.0
H428 H 0.47687 0.37459 0.676 0.0
H429 H 0.48049 0.40461 0.55913 0.0
O430 O 0.67319 0.45603 0.64763 0.0
H431 H 0.65663 0.40869 0.50947 0.0
H432 H 0.7292 0.49998 0.59974 0.0
H433 H 0.42338 0.2666 0.60651 0.0
H434 H 0.5866 0.38 0.76146 0.0
H435 H 0.3835 0.28717 0.56157 0.0
H436 H 0.52335 0.35969 0.79964 0.0
O437 O 0.55102 0.41564 0.54376 0.0
H438 H 0.67653 0.579 0.64969 0.0
H439 H 0.67947 0.50725 0.51572 0.0
H440 H 0.70448 0.57841 0.51036 0.0
H441 H 0.70328 0.61482 0.57783 0.0
H442 H 0.65078 0.50758 0.65305 0.0
H443 H 0.78807 0.50939 0.56054 0.0
H444 H 0.78131 0.46861 0.49452 0.0
O445 O 0.61468 0.43797 0.52875 0.0
C446 C 0.58955 0.35974 0.59398 0.0
C447 C 0.71823 0.43536 0.49786 0.0
C448 C 0.75934 0.48711 0.54919 0.0
N449 N 0.68939 0.45375 0.55687 0.0
C450 C 0.68533 0.43068 0.52079 0.0
C451 C 0.72584 0.48145 0.57138 0.0
C452 C 0.75544 0.46401 0.51209 0.0
C453 C 0.56626 0.38842 0.69724 0.0
N454 N 0.53583 0.38657 0.67308 0.0
C455 C 0.56232 0.37873 0.74291 0.0
C456 C 0.52687 0.36732 0.76427 0.0
C457 C 0.496 0.36587 0.73983 0.0
C458 C 0.50106 0.37577 0.69418 0.0
C459 C 0.42946 0.34748 0.55772 0.0
C460 C 0.47399 0.3247 0.60786 0.0
C461 C 0.46791 0.37449 0.57009 0.0
N462 N 0.48955 0.3631 0.59528 0.0
C463 C 0.43562 0.29688 0.59615 0.0
C464 C 0.41325 0.30843 0.57095 0.0
C465 C 0.57915 0.42541 0.51603 0.0
C466 C 0.67691 0.56341 0.61997 0.0
C467 C 0.67793 0.52273 0.54483 0.0
C468 C 0.69253 0.56309 0.54177 0.0
C469 C 0.69193 0.5835 0.57965 0.0
N470 N 0.66284 0.50315 0.58433 0.0
C471 C 0.66233 0.52298 0.62167 0.0
Co472 Co 0.18473 0.66358 0.75572 0.0
Co473 Co 0.14216 0.56621 0.78973 0.0
O474 O 0.15209 0.6198 0.7957 0.0
C475 C 0.21701 0.69042 0.8476 0.0
O476 O 0.20869 0.65436 0.85493 0.0
C477 C 0.06492 0.56124 0.78973 0.0
O478 O 0.07785 0.58826 0.75825 0.0
O479 O 0.1317 0.56561 0.72374 0.0
O480 O 0.16407 0.62844 0.70051 0.0
H481 H 0.15679 0.4576 0.72126 0.0
H482 H 0.13503 0.67412 0.82186 0.0
O483 O 0.20776 0.69951 0.81004 0.0
H484 H 0.08895 0.69058 0.67338 0.0
H485 H 0.25078 0.80591 0.7123 0.0
H486 H 0.22515 0.67522 0.6663 0.0
H487 H 0.14391 0.67777 0.67952 0.0
H488 H 0.21047 0.74831 0.75941 0.0
O489 O 0.08591 0.54727 0.80411 0.0
H490 H 0.17137 0.52567 0.73059 0.0
H491 H 0.08817 0.49066 0.83605 0.0
H492 H 0.26546 0.73188 0.61823 0.0
H493 H 0.08012 0.68721 0.81748 0.0
H494 H 0.27855 0.7983 0.64126 0.0
H495 H 0.05663 0.69537 0.74272 0.0
O496 O 0.2279 0.65145 0.76092 0.0
H497 H 0.13599 0.5933 0.95429 0.0
H498 H 0.18447 0.53497 0.84362 0.0
H499 H 0.19656 0.53121 0.92405 0.0
H500 H 0.17232 0.5604 0.98036 0.0
H501 H 0.125 0.59648 0.87318 0.0
H502 H 0.07235 0.42207 0.82765 0.0
H503 H 0.10687 0.40514 0.77004 0.0
O504 O 0.19908 0.58657 0.77756 0.0
C505 C 0.14406 0.59151 0.69269 0.0
C506 C 0.14151 0.46458 0.74647 0.0
C507 C 0.09408 0.44464 0.8061 0.0
N508 N 0.13062 0.5123 0.7836 0.0
C509 C 0.14969 0.50317 0.75188 0.0
C510 C 0.103 0.48355 0.81048 0.0
C511 C 0.11349 0.43516 0.77382 0.0
C512 C 0.12515 0.67801 0.78936 0.0
N513 N 0.14255 0.67513 0.7511 0.0
C514 C 0.09399 0.68527 0.78702 0.0
C515 C 0.08079 0.68978 0.74507 0.0
C516 C 0.09889 0.68706 0.70615 0.0
C517 C 0.12994 0.67971 0.70983 0.0
C518 C 0.24588 0.77738 0.70239 0.0
C519 C 0.23159 0.70376 0.67745 0.0
C520 C 0.22343 0.74457 0.72928 0.0
N521 N 0.21697 0.70832 0.71712 0.0
C522 C 0.25417 0.73593 0.64963 0.0
C523 C 0.26144 0.77301 0.6624 0.0
C524 C 0.22908 0.62014 0.76916 0.0
C525 C 0.14636 0.58 0.93028 0.0
C526 C 0.17315 0.54724 0.86772 0.0
C527 C 0.18036 0.54521 0.91337 0.0
C528 C 0.16679 0.56165 0.94486 0.0
N529 N 0.15279 0.56502 0.8536 0.0
C530 C 0.13966 0.58136 0.8843 0.0
Co531 Co 0.53523 0.18688 0.91868 0.0
Co532 Co 0.59575 0.15152 0.95704 0.0
O533 O 0.5477 0.15486 0.95886 0.0
C534 C 0.53273 0.21487 1.01028 0.0
O535 O 0.56401 0.21231 0.01788 0.0
C536 C 0.52902 0.06986 0.9755 0.0
O537 O 0.50382 0.08159 0.9676 0.0
O538 O 0.59048 0.14303 0.89027 0.0
O539 O 0.55653 0.17151 0.86533 0.0
H540 H 0.72858 0.18868 0.89553 0.0
H541 H 0.4712 0.13162 0.9789 0.0
O542 O 0.51533 0.20398 0.97229 0.0
H543 H 0.42329 0.08751 0.82464 0.0
H544 H 0.45534 0.24855 0.87135 0.0
H545 H 0.56438 0.22839 0.82908 0.0
H546 H 0.48844 0.14525 0.83753 0.0
H547 H 0.47263 0.20843 0.91894 0.0
O548 O 0.56551 0.09274 0.96828 0.0
H549 H 0.66781 0.19118 0.90174 0.0
H550 H 0.62761 0.10567 1.00546 0.0
H551 H 0.54815 0.26874 0.78105 0.0
H552 H 0.40548 0.07413 0.96751 0.0
H553 H 0.49333 0.27938 0.80188 0.0
H554 H 0.38124 0.05154 0.88992 0.0
O555 O 0.58802 0.23373 0.92864 0.0
H556 H 0.54791 0.13833 0.11703 0.0
H557 H 0.66372 0.19758 0.01843 0.0
H558 H 0.67189 0.20995 0.09978 0.0
H559 H 0.61401 0.18014 0.14988 0.0
H560 H 0.54058 0.12721 0.03552 0.0
H561 H 0.6876 0.10184 1.00021 0.0
H562 H 0.73891 0.14369 0.94503 0.0
O563 O 0.62722 0.20948 0.94793 0.0
C564 C 0.57666 0.15465 0.85855 0.0
C565 C 0.70649 0.1703 0.91977 0.0
C566 C 0.68347 0.12155 0.9784 0.0
N567 N 0.64374 0.14868 0.95398 0.0
C568 C 0.6719 0.17164 0.92348 0.0
C569 C 0.64924 0.12369 0.98109 0.0
C570 C 0.71225 0.14505 0.9475 0.0
C571 C 0.46067 0.12228 0.94504 0.0
N572 N 0.48374 0.14168 0.90897 0.0
C573 C 0.42351 0.08956 0.9388 0.0
C574 C 0.40996 0.07686 0.89526 0.0
C575 C 0.43355 0.09699 0.85862 0.0
C576 C 0.47054 0.12958 0.86616 0.0
C577 C 0.47989 0.24489 0.8624 0.0
C578 C 0.54146 0.23367 0.83982 0.0
C579 C 0.49028 0.22254 0.88966 0.0
N580 N 0.52148 0.21793 0.879 0.0
C581 C 0.53193 0.25622 0.81177 0.0
C582 C 0.50112 0.26209 0.82339 0.0
C583 C 0.62137 0.23785 0.93899 0.0
C584 C 0.57349 0.15133 0.0956 0.0
C585 C 0.63821 0.18378 0.03983 0.0
C586 C 0.64311 0.19118 0.08599 0.0
C587 C 0.61055 0.17466 0.11404 0.0
N588 N 0.60177 0.16054 0.02184 0.0
C589 C 0.56958 0.145 0.04919 0.0
Co590 Co 0.41185 0.57599 0.13225 0.0
Co591 Co 0.31642 0.51751 0.09246 0.0
O592 O 0.3598 0.52899 0.13349 0.0
C593 C 0.42345 0.50689 0.14899 0.0
O594 O 0.3863 0.48312 0.14049 0.0
C595 C 0.28709 0.51923 0.18341 0.0
O596 O 0.32235 0.54845 0.19051 0.0
O597 O 0.32486 0.57156 0.0991 0.0
O598 O 0.38711 0.60914 0.12304 0.0
H599 H 0.25293 0.52865 0.94966 0.0
H600 H 0.37898 0.51952 0.20965 0.0
O601 O 0.43851 0.54389 0.14337 0.0
H602 H 0.42896 0.65009 0.27614 0.0
H603 H 0.55298 0.66493 0.17835 0.0
H604 H 0.44689 0.64776 0.07618 0.0
H605 H 0.43458 0.64331 0.19475 0.0
H606 H 0.48804 0.60564 0.18261 0.0
O607 O 0.27883 0.50131 0.14567 0.0
H608 H 0.30727 0.54691 1.00191 0.0
H609 H 0.2317 0.45709 0.09255 0.0
H610 H 0.51129 0.70786 0.07113 0.0
H611 H 0.37275 0.52535 0.29088 0.0
H612 H 0.56498 0.71681 0.12246 0.0
H613 H 0.39811 0.59118 0.32496 0.0
O614 O 0.4156 0.57152 0.06545 0.0
H615 H 0.29201 0.38696 0.14974 0.0
H616 H 0.30993 0.46716 0.01454 0.0
H617 H 0.29934 0.40033 1.00607 0.0
H618 H 0.29019 0.35967 0.074 0.0
H619 H 0.3036 0.45432 0.15665 0.0
H620 H 0.17615 0.43855 0.04138 0.0
H621 H 0.18637 0.4741 0.96916 0.0
O622 O 0.35377 0.5358 0.03937 0.0
C623 C 0.35387 0.60444 0.11115 0.0
C624 C 0.24776 0.51334 0.98144 0.0
C625 C 0.20478 0.46281 0.03287 0.0
N626 N 0.27275 0.5045 0.05171 0.0
C627 C 0.27862 0.52379 1.0116 0.0
C628 C 0.2364 0.47392 0.06211 0.0
C629 C 0.21055 0.48274 0.99231 0.0
C630 C 0.39053 0.54838 0.22381 0.0
N631 N 0.40832 0.58112 0.1971 0.0
C632 C 0.38676 0.55143 0.27009 0.0
C633 C 0.40096 0.58831 0.28917 0.0
C634 C 0.41848 0.62146 0.26182 0.0
C635 C 0.42183 0.61735 0.21568 0.0
C636 C 0.52982 0.66141 0.15581 0.0
C637 C 0.4699 0.65143 0.09887 0.0
C638 C 0.49291 0.62767 0.15795 0.0
N639 N 0.46335 0.62307 0.12991 0.0
C640 C 0.50642 0.68554 0.09574 0.0
C641 C 0.53653 0.69051 0.12449 0.0
C642 C 0.39084 0.55664 0.03328 0.0
C643 C 0.29588 0.40435 0.11988 0.0
C644 C 0.30635 0.44984 0.0443 0.0
C645 C 0.30016 0.41191 0.03927 0.0
C646 C 0.29495 0.38909 0.07738 0.0
N647 N 0.30748 0.46469 0.08612 0.0
C648 C 0.30213 0.4424 0.1236 0.0
Co649 Co 0.80438 0.33545 0.24545 0.0
Co650 Co 0.83758 0.43018 0.28365 0.0
O651 O 0.83224 0.37839 0.28774 0.0
C652 C 0.77 0.30479 0.33506 0.0
O653 O 0.77188 0.33856 0.33987 0.0
C654 C 0.91801 0.44276 0.28973 0.0
O655 O 0.90926 0.41814 0.25623 0.0
O656 O 0.85237 0.43498 0.21861 0.0
O657 O 0.82473 0.37316 0.19238 0.0
H658 H 0.81589 0.53551 0.21694 0.0
H659 H 0.85645 0.33054 0.31383 0.0
O660 O 0.78235 0.2975 0.29866 0.0
H661 H 0.9104 0.32248 0.16765 0.0
H662 H 0.75302 0.19643 0.19476 0.0
H663 H 0.76976 0.32476 0.15212 0.0
H664 H 0.85107 0.32828 0.17129 0.0
H665 H 0.78387 0.25183 0.24713 0.0
O666 O 0.89357 0.4527 0.30319 0.0
H667 H 0.80679 0.46917 0.2234 0.0
H668 H 0.88364 0.50429 0.33572 0.0
H669 H 0.73956 0.27046 0.09873 0.0
H670 H 0.91571 0.32446 0.31202 0.0
H671 H 0.73114 0.20552 0.1196 0.0
H672 H 0.94314 0.32051 0.2384 0.0
O673 O 0.75752 0.34221 0.24798 0.0
H674 H 0.83145 0.39056 0.44615 0.0
H675 H 0.78781 0.45377 0.33492 0.0
H676 H 0.76684 0.44847 0.4134 0.0
H677 H 0.78791 0.41557 0.46984 0.0
H678 H 0.8513 0.39661 0.36703 0.0
H679 H 0.89397 0.57122 0.33026 0.0
H680 H 0.85983 0.58721 0.27066 0.0
O681 O 0.78092 0.40608 0.26624 0.0
C682 C 0.8427 0.41041 0.18642 0.0
C683 C 0.83099 0.52895 0.24302 0.0
C684 C 0.87486 0.549 0.30654 0.0
N685 N 0.84477 0.4827 0.2796 0.0
C686 C 0.82592 0.49133 0.24678 0.0
C687 C 0.8691 0.51105 0.30924 0.0
C688 C 0.85566 0.55793 0.27314 0.0
C689 C 0.8679 0.32822 0.28188 0.0
N690 N 0.85011 0.32934 0.24288 0.0
C691 C 0.9016 0.32504 0.28096 0.0
C692 C 0.91701 0.32291 0.23964 0.0
C693 C 0.89866 0.32403 0.19994 0.0
C694 C 0.86506 0.32731 0.20222 0.0
C695 C 0.75598 0.22439 0.18553 0.0
C696 C 0.76519 0.29664 0.16258 0.0
C697 C 0.7729 0.25589 0.21544 0.0
N698 N 0.7771 0.29151 0.20408 0.0
C699 C 0.74841 0.26589 0.13169 0.0
C700 C 0.74377 0.22953 0.14335 0.0
C701 C 0.75313 0.37181 0.25531 0.0
C702 C 0.82234 0.40519 0.42216 0.0
C703 C 0.79838 0.44083 0.35933 0.0
C704 C 0.78601 0.43752 0.40387 0.0
C705 C 0.7979 0.41928 0.4354 0.0
N706 N 0.82217 0.42666 0.34644 0.0
C707 C 0.83424 0.40929 0.37738 0.0
C708 C 0.27732 0.66028 0.39715 0.0
C709 C 0.25695 0.64671 0.43837 0.0
C710 C 0.31006 0.7019 0.47809 0.0
C711 C 0.33142 0.7146 0.43698 0.0
N712 N 0.33911 0.69977 0.36013 0.0
N713 N 0.2551 0.65008 0.51904 0.0
C714 C 0.31623 0.6919 0.39737 0.0
C715 C 0.27353 0.66634 0.4792 0.0
N716 N 0.25885 0.64391 0.35741 0.0
N717 N 0.32496 0.72354 0.51623 0.0
H718 H 0.22809 0.62421 0.52082 0.0
H719 H 0.26751 0.66048 0.55055 0.0
H720 H 0.35324 0.7472 0.51788 0.0
H721 H 0.30903 0.71908 0.54565 0.0
H722 H 0.2705 0.65577 0.32601 0.0
H723 H 0.23015 0.62064 0.35577 0.0
H724 H 0.33106 0.68135 0.33227 0.0
H725 H 0.36763 0.7229 0.35863 0.0
C726 C 0.59774 0.27512 0.63701 0.0
C727 C 0.60869 0.26345 0.5973 0.0
C728 C 0.59926 0.31054 0.55294 0.0
C729 C 0.58787 0.32166 0.59272 0.0
N730 N 0.56249 0.3048 0.66815 0.0
N731 N 0.61131 0.26302 0.51598 0.0
C732 C 0.58274 0.30088 0.63345 0.0
C733 C 0.60712 0.2792 0.55469 0.0
N734 N 0.60305 0.26282 0.67819 0.0
N735 N 0.60228 0.32993 0.51359 0.0
H736 H 0.61612 0.23934 0.51583 0.0
H737 H 0.60654 0.27057 0.48394 0.0
H738 H 0.59261 0.35013 0.51048 0.0
H739 H 0.61539 0.32703 0.48464 0.0
H740 H 0.5992 0.27372 0.70845 0.0
H741 H 0.61504 0.24464 0.68225 0.0
H742 H 0.55542 0.28814 0.69753 0.0
H743 H 0.54793 0.32048 0.66473 0.0
C744 C 0.28839 0.62825 0.72916 0.0
C745 C 0.26782 0.62277 0.76996 0.0
C746 C 0.31942 0.61801 0.81116 0.0
C747 C 0.33709 0.61903 0.76954 0.0
N748 N 0.33388 0.61615 0.68854 0.0
N749 N 0.26303 0.61166 0.8503 0.0
C750 C 0.32047 0.62185 0.72844 0.0
C751 C 0.28312 0.61734 0.81116 0.0
N752 N 0.27772 0.63995 0.69105 0.0
N753 N 0.33784 0.61869 0.85056 0.0
H754 H 0.23841 0.61458 0.85229 0.0
H755 H 0.26962 0.60242 0.88026 0.0
H756 H 0.36372 0.61762 0.85172 0.0
H757 H 0.32904 0.62279 0.88206 0.0
H758 H 0.29463 0.64894 0.6619 0.0
H759 H 0.25365 0.64382 0.68971 0.0
H760 H 0.3201 0.61357 0.65774 0.0
H761 H 0.35599 0.60924 0.68694 0.0
C762 C 0.70929 0.33112 0.89832 0.0
C763 C 0.72988 0.34636 0.93913 0.0
C764 C 0.67749 0.2925 0.98118 0.0
C765 C 0.65616 0.27777 0.94024 0.0
N766 N 0.64786 0.28896 0.86197 0.0
N767 N 0.73276 0.34604 0.01995 0.0
C768 C 0.6708 0.29897 0.89952 0.0
C769 C 0.71386 0.32826 0.98084 0.0
N770 N 0.72722 0.34655 0.85807 0.0
N771 N 0.6627 0.27244 0.0204 0.0
H772 H 0.75987 0.37188 0.02052 0.0
H773 H 0.72089 0.33676 0.05188 0.0
H774 H 0.6344 0.24885 0.02272 0.0
H775 H 0.67856 0.27837 0.05023 0.0
H776 H 0.71569 0.33347 0.8271 0.0
H777 H 0.75546 0.37052 0.85575 0.0
H778 H 0.65515 0.30637 0.83316 0.0
H779 H 0.62006 0.26471 0.86079 0.0
C780 C 0.36129 0.69999 0.15019 0.0
C781 C 0.36124 0.71636 0.10784 0.0
C782 C 0.34313 0.65449 0.0707 0.0
C783 C 0.34956 0.63986 0.11162 0.0
N784 N 0.36198 0.64745 0.19162 0.0
N785 N 0.35836 0.71197 0.02685 0.0
C786 C 0.35778 0.66231 0.15184 0.0
C787 C 0.35362 0.69432 0.06788 0.0
N788 N 0.36355 0.72002 0.18867 0.0
N789 N 0.32637 0.63053 0.03459 0.0
H790 H 0.3666 0.74142 0.02324 0.0
H791 H 0.35804 0.69856 0.99659 0.0
H792 H 0.3177 0.60107 0.03508 0.0
H793 H 0.31731 0.63896 1.00576 0.0
H794 H 0.35973 0.7082 0.22087 0.0
H795 H 0.36657 0.74789 0.18836 0.0
H796 H 0.37317 0.66389 0.22084 0.0
H797 H 0.35504 0.61846 0.19501 0.0
C798 C 0.69499 0.361 0.20931 0.0
C799 C 0.71315 0.36631 0.25203 0.0
C800 C 0.6581 0.36834 0.28752 0.0
C801 C 0.64268 0.36759 0.24423 0.0
N802 N 0.64901 0.36936 0.16347 0.0
N803 N 0.71213 0.37478 0.33231 0.0
C804 C 0.66173 0.3655 0.20498 0.0
C805 C 0.6946 0.36974 0.29132 0.0
N806 N 0.70907 0.3511 0.17286 0.0
N807 N 0.63778 0.36773 0.32502 0.0
H808 H 0.73683 0.37234 0.33699 0.0
H809 H 0.70337 0.3829 0.36136 0.0
H810 H 0.61264 0.37005 0.3236 0.0
H811 H 0.64443 0.363 0.35752 0.0
H812 H 0.69433 0.34216 0.14221 0.0
H813 H 0.73409 0.34885 0.17432 0.0
H814 H 0.66455 0.37292 0.1339 0.0
H815 H 0.6247 0.37267 0.1589 0.0
C816 C 0.10896 0.57348 0.61682 0.0
C817 C 0.13965 0.57698 0.645 0.0
C818 C 0.15746 0.54398 0.58693 0.0
C819 C 0.13022 0.54498 0.55616 0.0
N820 N 0.06811 0.54285 0.55123 0.0
N821 N 0.19615 0.5694 0.65455 0.0
C822 C 0.10257 0.55492 0.57368 0.0
C823 C 0.16461 0.56323 0.62931 0.0
N824 N 0.08631 0.58859 0.63092 0.0
N825 N 0.17336 0.52092 0.57818 0.0
H826 H 0.20151 0.58172 0.68646 0.0
H827 H 0.21859 0.56527 0.64246 0.0
H828 H 0.16338 0.50081 0.5521 0.0
H829 H 0.19106 0.5165 0.60071 0.0
H830 H 0.0666 0.59148 0.61014 0.0
H831 H 0.08947 0.60109 0.66264 0.0
H832 H 0.04545 0.54656 0.56328 0.0
H833 H 0.05972 0.52387 0.52381 0.0
C834 C 0.58375 0.11802 0.74131 0.0
C835 C 0.61622 0.15199 0.72212 0.0
C836 C 0.62627 0.18504 0.79581 0.0
C837 C 0.58982 0.1537 0.81139 0.0
N838 N 0.53224 0.09131 0.79756 0.0
N839 N 0.67503 0.21364 0.73699 0.0
C840 C 0.56815 0.12047 0.78371 0.0
C841 C 0.63949 0.18429 0.7512 0.0
N842 N 0.56975 0.08254 0.72069 0.0
N843 N 0.64895 0.21506 0.82448 0.0
H844 H 0.6911 0.20892 0.71275 0.0
H845 H 0.68986 0.24155 0.75101 0.0
H846 H 0.63966 0.21706 0.85651 0.0
H847 H 0.67742 0.23726 0.81797 0.0
H848 H 0.54809 0.05624 0.73453 0.0
H849 H 0.58382 0.0787 0.69318 0.0
H850 H 0.51304 0.06852 0.77665 0.0
H851 H 0.52037 0.09174 0.82873 0.0
C852 C 0.41592 0.5473 0.95817 0.0
C853 C 0.40584 0.56986 0.98625 0.0
C854 C 0.43041 0.62203 0.9283 0.0
C855 C 0.43615 0.59753 0.89766 0.0
N856 N 0.45192 0.54587 0.89286 0.0
N857 N 0.39948 0.62703 0.99614 0.0
C858 C 0.43366 0.56247 0.91521 0.0
C859 C 0.41205 0.60672 0.97069 0.0
N860 N 0.40762 0.51083 0.97208 0.0
N861 N 0.44607 0.66111 0.91951 0.0
H862 H 0.38762 0.61789 0.02805 0.0
H863 H 0.39775 0.65103 0.98425 0.0
H864 H 0.46594 0.67544 0.89384 0.0
H865 H 0.44528 0.68093 0.94195 0.0
H866 H 0.40968 0.49075 0.95127 0.0
H867 H 0.39566 0.49945 1.00361 0.0
H868 H 0.45395 0.52216 0.90509 0.0
H869 H 0.47003 0.55934 0.86521 0.0
C870 C 0.87936 0.43238 0.11191 0.0
C871 C 0.84741 0.42628 0.13932 0.0
C872 C 0.82724 0.45732 0.08094 0.0
C873 C 0.85531 0.45805 0.05063 0.0
N874 N 0.91911 0.46415 0.04589 0.0
N875 N 0.78771 0.42845 0.14695 0.0
C876 C 0.8846 0.45051 0.06853 0.0
C877 C 0.82063 0.43768 0.12299 0.0
N878 N 0.90413 0.41995 0.12688 0.0
N879 N 0.80959 0.47879 0.07185 0.0
H880 H 0.78201 0.41474 0.17813 0.0
H881 H 0.76459 0.43126 0.13416 0.0
H882 H 0.81877 0.4989 0.04563 0.0
H883 H 0.79107 0.48187 0.09425 0.0
H884 H 0.92517 0.419 0.10676 0.0
H885 H 0.90176 0.40791 0.15883 0.0
H886 H 0.94286 0.46217 0.05796 0.0
H887 H 0.92601 0.48242 0.01783 0.0
C888 C 0.36818 0.8219 0.24896 0.0
C889 C 0.39688 0.84954 0.21918 0.0
C890 C 0.44542 0.87151 0.2813 0.0
C891 C 0.4181 0.83986 0.30827 0.0
N892 N 0.35442 0.78213 0.31577 0.0
N893 N 0.45673 0.91174 0.21457 0.0
C894 C 0.3798 0.81434 0.29145 0.0
C895 C 0.43401 0.87758 0.23751 0.0
N896 N 0.32934 0.80588 0.23907 0.0
N897 N 0.48257 0.89512 0.29714 0.0
H898 H 0.44675 0.91913 0.18565 0.0
H899 H 0.48289 0.93479 0.22679 0.0
H900 H 0.49129 0.89198 0.32935 0.0
H901 H 0.50544 0.91591 0.27758 0.0
H902 H 0.30696 0.78762 0.26096 0.0
H903 H 0.3195 0.8162 0.21281 0.0
H904 H 0.32817 0.75963 0.30281 0.0
H905 H 0.36109 0.7765 0.3478 0.0
C906 C 0.52592 0.38232 0.40305 0.0
C907 C 0.55633 0.40337 0.37142 0.0
C908 C 0.59614 0.4455 0.43397 0.0
C909 C 0.56952 0.41914 0.46626 0.0
N910 N 0.51189 0.35496 0.47792 0.0
N911 N 0.62565 0.44874 0.36237 0.0
C912 C 0.53498 0.38539 0.44993 0.0
C913 C 0.59296 0.43348 0.38834 0.0
N914 N 0.48811 0.3607 0.38883 0.0
N915 N 0.62359 0.48255 0.44617 0.0
H916 H 0.62567 0.4362 0.33178 0.0
H917 H 0.65336 0.46915 0.37444 0.0
H918 H 0.62305 0.4936 0.47778 0.0
H919 H 0.64242 0.50341 0.42301 0.0
H920 H 0.46464 0.34671 0.41107 0.0
H921 H 0.48022 0.36177 0.35557 0.0
H922 H 0.48806 0.32902 0.46617 0.0
H923 H 0.51932 0.35327 0.51116 0.0
C924 C 0.95238 0.44535 0.36157 0.0
C925 C 0.95465 0.45598 0.31565 0.0
C926 C 0.02552 0.49181 0.323 0.0
C927 C 0.02195 0.49118 0.37054 0.0
N928 N 0.97987 0.4667 0.43573 0.0
N929 N -0.0049 0.4906 0.2518 0.0
C930 C 0.98468 0.46779 0.3902 0.0
C931 C 0.99177 0.47972 0.29591 0.0
N932 N 0.92129 0.41137 0.37651 0.0
N933 N 0.05992 0.49939 0.30396 0.0
H934 H 0.97087 0.48176 0.23078 0.0
H935 H 0.02191 0.5106 0.23741 0.0
H936 H 0.08262 0.501 0.32362 0.0
H937 H 0.06332 0.49776 0.2694 0.0
H938 H 0.91923 0.40099 0.4093 0.0
H939 H 0.90141 0.39099 0.35375 0.0
H940 H 0.95229 0.45203 0.45072 0.0
H941 H 0.00296 0.48292 0.45792 0.0
C942 C 0.54122 0.97949 0.48471 0.0
C943 C 0.49987 0.9575 0.48982 0.0
C944 C 0.50191 0.0159 0.519 0.0
C945 C 0.54313 0.03476 0.52378 0.0
N946 N 0.60065 0.02736 0.5212 0.0
N947 N 0.44463 0.95327 0.53021 0.0
C948 C 0.56263 0.01458 0.50955 0.0
C949 C 0.48093 0.97511 0.5121 0.0
N950 N 0.56008 0.96781 0.45563 0.0
N951 N 0.48285 0.03663 0.51772 0.0
H952 H 0.43186 0.92306 0.53416 0.0
H953 H 0.431 0.96597 0.54791 0.0
H954 H 0.49809 0.06697 0.51359 0.0
H955 H 0.45261 0.02311 0.51291 0.0
H956 H 0.59007 0.98466 0.44944 0.0
H957 H 0.54515 0.94427 0.43364 0.0
H958 H 0.61462 0.0116 0.5134 0.0
H959 H 0.61627 0.05039 0.54357 0.0
C960 C 0.46734 0.49993 0.67798 0.0
C961 C 0.49103 0.53363 0.70451 0.0
C962 C 0.54791 0.52714 0.6869 0.0
C963 C 0.52305 0.48971 0.66764 0.0
N964 N 0.4564 0.43746 0.65278 0.0
N965 N 0.55316 0.57492 0.74126 0.0
C966 C 0.48202 0.47519 0.66521 0.0
C967 C 0.53118 0.54604 0.711 0.0
N968 N 0.43157 0.49231 0.66265 0.0
N969 N 0.58749 0.54534 0.68082 0.0
H970 H 0.54157 0.58829 0.76132 0.0
H971 H 0.58171 0.58246 0.74991 0.0
H972 H 0.60052 0.53348 0.66069 0.0
H973 H 0.60658 0.57406 0.69101 0.0
H974 H 0.41532 0.47054 0.63909 0.0
H975 H 0.4201 0.51034 0.66927 0.0
H976 H 0.42615 0.42472 0.65634 0.0
H977 H 0.46474 0.41762 0.64267 0.0
C978 C 0.02942 0.56153 0.85869 0.0
C979 C 0.02793 0.55016 0.81329 0.0
C980 C 0.95698 0.51307 0.81866 0.0
C981 C 0.95999 0.51465 0.86627 0.0
N982 N 0.00059 0.54143 0.93242 0.0
N983 N 0.98911 0.51509 0.74871 0.0
C984 C -0.00334 0.5394 0.88671 0.0
C985 C 0.9913 0.52595 0.79263 0.0
N986 N 0.06086 0.59513 0.87389 0.0
N987 N 0.92216 0.50291 0.79846 0.0
H988 H 0.01384 0.525 0.7284 0.0
H989 H 0.96289 0.49446 0.73367 0.0
H990 H 0.89831 0.49943 0.81715 0.0
H991 H 0.91893 0.50372 0.76371 0.0
H992 H 0.06229 0.60631 0.90603 0.0
H993 H 0.08277 0.61414 0.85192 0.0
H994 H 0.0278 0.55667 0.94829 0.0
H995 H 0.97715 0.52552 0.9542 0.0
C996 C 0.48261 -0.00238 0.97272 0.0
C997 C 0.51408 0.02988 0.99493 0.0
C998 C 0.50746 0.98724 0.05937 0.0
C999 C 0.47373 0.95644 0.03873 0.0
N1000 N 0.42708 0.93159 0.97781 0.0
N1001 N 0.5597 0.05489 0.05739 0.0
C1002 C 0.46085 0.96135 0.99584 0.0
C1003 C 0.52775 0.02444 0.03753 0.0
N1004 N 0.47474 0.00136 0.92867 0.0
N1005 N 0.51858 0.98123 0.10107 0.0
H1006 H 0.57389 0.08287 0.04424 0.0
H1007 H 0.57347 0.05297 0.08632 0.0
H1008 H 0.50445 0.95427 0.11771 0.0
H1009 H 0.54101 0.00257 0.12048 0.0
H1010 H 0.45469 0.97812 0.90894 0.0
H1011 H 0.49109 0.02714 0.91025 0.0
H1012 H 0.41318 0.93477 0.94961 0.0
H1013 H 0.41143 0.90398 0.99268 0.0
C1014 C 0.46883 0.50431 0.20852 0.0
C1015 C 0.44679 0.4898 0.16789 0.0
C1016 C 0.4555 0.43236 0.17192 0.0
C1017 C 0.47989 0.44853 0.21021 0.0
N1018 N 0.51596 0.50323 0.26011 0.0
N1019 N 0.42803 0.44507 0.1053 0.0
C1020 C 0.4886 0.48562 0.22682 0.0
C1021 C 0.44261 0.45517 0.14803 0.0
N1022 N 0.46911 0.53431 0.23155 0.0
N1023 N 0.44465 0.39521 0.15825 0.0
H1024 H 0.4203 0.46224 0.08577 0.0
H1025 H 0.4277 0.42225 0.08738 0.0
H1026 H 0.45434 0.37803 0.17418 0.0
H1027 H 0.42353 0.38027 0.13359 0.0
H1028 H 0.48017 0.54232 0.26407 0.0
H1029 H 0.45549 0.54924 0.22008 0.0
H1030 H 0.52741 0.53249 0.26925 0.0
H1031 H 0.52927 0.48949 0.27658 0.0
C1032 C 0.21725 0.48582 0.2839 0.0
C1033 C 0.21163 0.51868 0.28801 0.0
C1034 C 0.24531 0.54381 0.21563 0.0
C1035 C 0.25604 0.51448 0.21531 0.0
N1036 N 0.25567 0.45949 0.25131 0.0
N1037 N 0.22637 0.58259 0.26025 0.0
C1038 C 0.24287 0.4859 0.25 0.0
C1039 C 0.227 0.54852 0.25431 0.0
N1040 N 0.19677 0.45376 0.3109 0.0
N1041 N 0.25254 0.56722 0.17866 0.0
H1042 H 0.21436 0.58822 0.28831 0.0
H1043 H 0.24128 0.60703 0.23947 0.0
H1044 H 0.26553 0.56425 0.14959 0.0
H1045 H 0.24202 0.58662 0.175 0.0
H1046 H 0.19701 0.42764 0.30676 0.0
H1047 H 0.17626 0.45172 0.33436 0.0
H1048 H 0.2509 0.44094 0.27858 0.0
H1049 H 0.27325 0.45797 0.22621 0.0
C1050 C 0.76581 0.26537 0.4043 0.0
C1051 C 0.74691 0.27393 0.36903 0.0
C1052 C 0.68508 0.24099 0.41099 0.0
C1053 C 0.70335 0.23036 0.4454 0.0
N1054 N 0.7587 0.22393 0.46825 0.0
N1055 N 0.68704 0.26241 0.33388 0.0
C1056 C 0.74307 0.24009 0.44017 0.0
C1057 C 0.70598 0.2591 0.37081 0.0
N1058 N 0.80566 0.28252 0.4045 0.0
N1059 N 0.64864 0.23615 0.41761 0.0
H1060 H 0.70155 0.27554 0.30396 0.0
H1061 H 0.65667 0.2488 0.33134 0.0
H1062 H 0.6324 0.2241 0.44672 0.0
H1063 H 0.63592 0.24756 0.39607 0.0
H1064 H 0.82152 0.28128 0.43194 0.0
H1065 H 0.823 0.30029 0.3783 0.0
H1066 H 0.78627 0.22706 0.46345 0.0
H1067 H 0.74259 0.20396 0.49353 0.0
C1068 C 0.46516 0.69441 0.59076 0.0
C1069 C 0.46316 0.70909 0.63367 0.0
C1070 C 0.46851 0.76743 0.5968 0.0
C1071 C 0.46223 0.74893 0.5543 0.0
N1072 N 0.45153 0.69261 0.51099 0.0
N1073 N 0.4582 0.75831 0.67706 0.0
C1074 C 0.46036 0.71206 0.55111 0.0
C1075 C 0.46421 0.74561 0.63675 0.0
N1076 N 0.472 0.66374 0.58798 0.0
N1077 N 0.47885 0.80607 0.59888 0.0
H1078 H 0.45341 0.74286 0.70707 0.0
H1079 H 0.45431 0.78249 0.68002 0.0
H1080 H 0.48339 0.82303 0.57005 0.0
H1081 H 0.48711 0.82215 0.62865 0.0
H1082 H 0.47716 0.65388 0.55771 0.0
H1083 H 0.47667 0.65092 0.61638 0.0
H1084 H 0.44522 0.66368 0.50797 0.0
H1085 H 0.44747 0.70413 0.48119 0.0
C1086 C 0.75066 0.42866 0.75007 0.0
C1087 C 0.75781 0.45785 0.78282 0.0
C1088 C 0.70948 0.47004 0.74413 0.0
C1089 C 0.70586 0.44382 0.70933 0.0
N1090 N 0.73354 0.40867 0.67278 0.0
N1091 N 0.7512 0.51367 0.80285 0.0
C1092 C 0.7298 0.42649 0.7103 0.0
C1093 C 0.73923 0.4807 0.77762 0.0
N1094 N 0.76164 0.4013 0.75761 0.0
N1095 N 0.68387 0.48374 0.74631 0.0
H1096 H 0.77484 0.52412 0.825 0.0
H1097 H 0.74081 0.53305 0.79776 0.0
H1098 H 0.66143 0.47613 0.72294 0.0
H1099 H 0.68281 0.49977 0.77354 0.0
H1100 H 0.75357 0.37738 0.73646 0.0
H1101 H 0.77445 0.39949 0.78743 0.0
H1102 H 0.75341 0.39859 0.67079 0.0
H1103 H 0.7204 0.40824 0.64208 0.0
C1104 C 0.30769 0.74954 0.91885 0.0
C1105 C 0.29535 0.76945 0.94876 0.0
C1106 C 0.23147 0.73944 0.90995 0.0
C1107 C 0.24467 0.72123 0.87911 0.0
N1108 N 0.29831 0.71671 0.84726 0.0
N1109 N 0.24922 0.79105 0.96493 0.0
C1110 C 0.28376 0.72883 0.88141 0.0
C1111 C 0.25824 0.76659 0.94208 0.0
N1112 N 0.3412 0.74838 0.9273 0.0
N1113 N 0.19309 0.72992 0.9095 0.0
H1114 H 0.26874 0.81259 0.98695 0.0
H1115 H 0.2242 0.79286 0.95854 0.0
H1116 H 0.17311 0.71105 0.8857 0.0
H1117 H 0.18054 0.73857 0.93444 0.0
H1118 H 0.34879 0.7302 0.91002 0.0
H1119 H 0.35993 0.76274 0.95406 0.0
H1120 H 0.32774 0.72483 0.84454 0.0
H1121 H 0.28177 0.70184 0.81908 0.0
C1122 C 0.51752 0.23887 0.12834 0.0
C1123 C 0.51701 0.27442 0.12196 0.0
C1124 C 0.51949 0.26744 0.03995 0.0
C1125 C 0.51942 0.23167 0.04647 0.0
N1126 N 0.50467 0.17731 0.09541 0.0
N1127 N 0.5045 0.31505 0.07167 0.0
C1128 C 0.51378 0.2154 0.09028 0.0
C1129 C 0.51371 0.28621 0.07766 0.0
N1130 N 0.52457 0.22875 0.16991 0.0
N1131 N 0.52748 0.28489 0.99854 0.0
H1132 H 0.49855 0.32814 0.09863 0.0
H1133 H 0.49854 0.32275 0.04028 0.0
H1134 H 0.53206 0.2724 0.97006 0.0
H1135 H 0.53246 0.31319 0.99318 0.0
H1136 H 0.52949 0.20539 0.17512 0.0
H1137 H 0.52923 0.24558 0.19862 0.0
H1138 H 0.49677 0.16265 0.12622 0.0
H1139 H 0.50082 0.15929 0.06792 0.0
loop_
_geom_bond_atom_site_label_1
_geom_bond_atom_site_label_2
_geom_bond_distance
_geom_bond_site_symmetry_2
_ccdc_geom_bond_type
Co0 O2 2.143 . S
Co0 O8 2.074 . S
Co0 O11 2.093 . S
Co0 O24 2.097 . S
Co0 N41 2.151 . S
Co0 N49 2.214 . S
Co1 O2 2.160 . S
Co1 O7 2.058 . S
Co1 O17 2.057 . S
Co1 O32 2.037 . S
Co1 N36 2.145 . S
Co1 N57 2.257 . S
O2 Co0 2.143 . S
O2 Co1 2.160 . S
C3 O4 1.278 . S
C3 O11 1.224 . S
O4 C3 1.278 . S
C5 O6 1.245 . S
C5 O17 1.232 . S
O6 C5 1.245 . S
O7 Co1 2.058 . S
O7 C33 1.269 . S
O8 Co0 2.074 . S
O8 C33 1.257 . S
H9 C34 0.930 . S
H10 C40 0.930 . S
O11 Co0 2.093 . S
O11 C3 1.224 . S
H12 C44 0.929 . S
H13 C46 0.930 . S
H14 C47 0.930 . S
H15 C45 0.929 . S
H16 C48 0.928 . S
O17 Co1 2.057 . S
O17 C5 1.232 . S
H18 C37 0.929 . S
H19 C38 0.929 . S
H20 C50 0.931 . S
H21 C42 0.929 . S
H22 C51 0.930 . S
H23 C43 0.931 . S
O24 Co0 2.097 . S
O24 C52 1.214 . S
H25 C53 0.929 . S
H26 C54 0.929 . S
H27 C55 0.930 . S
H28 C56 0.929 . S
H29 C58 0.930 . S
H30 C35 0.930 . S
H31 C39 0.930 . S
O32 Co1 2.037 . S
O32 C52 1.234 . S
C33 O7 1.269 . S
C33 O8 1.257 . S
C34 H9 0.930 . S
C34 C37 1.388 . S
C34 C39 1.418 . S
C35 H30 0.930 . S
C35 C38 1.404 . S
C35 C39 1.353 . S
N36 Co1 2.145 . S
N36 C37 1.397 . S
N36 C38 1.334 . S
C37 H18 0.929 . S
C37 C34 1.388 . S
C37 N36 1.397 . S
C38 H19 0.929 . S
C38 C35 1.404 . S
C38 N36 1.334 . S
C39 H31 0.930 . S
C39 C34 1.418 . S
C39 C35 1.353 . S
C40 H10 0.930 . S
C40 N41 1.330 . S
C40 C42 1.446 . S
N41 Co0 2.151 . S
N41 C40 1.330 . S
N41 C45 1.418 . S
C42 H21 0.929 . S
C42 C40 1.446 . S
C42 C43 1.332 . S
C43 H23 0.931 . S
C43 C42 1.332 . S
C43 C44 1.267 . S
C44 H12 0.929 . S
C44 C43 1.267 . S
C44 C45 1.251 . S
C45 H15 0.929 . S
C45 N41 1.418 . S
C45 C44 1.251 . S
C46 H13 0.930 . S
C46 C48 1.406 . S
C46 C51 1.261 . S
C47 H14 0.930 . S
C47 N49 1.325 . S
C47 C50 1.357 . S
C48 H16 0.928 . S
C48 C46 1.406 . S
C48 N49 1.261 . S
N49 Co0 2.214 . S
N49 C47 1.325 . S
N49 C48 1.261 . S
C50 H20 0.931 . S
C50 C47 1.357 . S
C50 C51 1.312 . S
C51 H22 0.930 . S
C51 C46 1.261 . S
C51 C50 1.312 . S
C52 O24 1.214 . S
C52 O32 1.234 . S
C53 H25 0.929 . S
C53 C56 1.391 . S
C53 C58 1.391 . S
C54 H26 0.929 . S
C54 C55 1.390 . S
C54 N57 1.391 . S
C55 H27 0.930 . S
C55 C54 1.390 . S
C55 C56 1.392 . S
C56 H28 0.929 . S
C56 C53 1.391 . S
C56 C55 1.392 . S
N57 Co1 2.257 . S
N57 C54 1.391 . S
N57 C58 1.388 . S
C58 H29 0.930 . S
C58 C53 1.391 . S
C58 N57 1.388 . S
Co59 O61 2.143 . S
Co59 O67 2.074 . S
Co59 O70 2.093 . S
Co59 O83 2.097 . S
Co59 N100 2.151 . S
Co59 N108 2.214 . S
Co60 O61 2.160 . S
Co60 O66 2.058 . S
Co60 O76 2.057 . S
Co60 O91 2.037 . S
Co60 N95 2.145 . S
Co60 N116 2.257 . S
O61 Co59 2.143 . S
O61 Co60 2.160 . S
C62 O63 1.278 . S
C62 O70 1.224 . S
O63 C62 1.278 . S
C64 O65 1.245 . S
C64 O76 1.232 . S
O65 C64 1.245 . S
O66 Co60 2.058 . S
O66 C92 1.269 . S
O67 Co59 2.074 . S
O67 C92 1.257 . S
H68 C93 0.930 . S
H69 C99 0.930 . S
O70 Co59 2.093 . S
O70 C62 1.224 . S
H71 C103 0.929 . S
H72 C105 0.930 . S
H73 C106 0.930 . S
H74 C104 0.929 . S
H75 C107 0.928 . S
O76 Co60 2.057 . S
O76 C64 1.232 . S
H77 C96 0.929 . S
H78 C97 0.929 . S
H79 C109 0.931 . S
H80 C101 0.929 . S
H81 C110 0.930 . S
H82 C102 0.931 . S
O83 Co59 2.097 . S
O83 C111 1.214 . S
H84 C112 0.929 . S
H85 C113 0.929 . S
H86 C114 0.930 . S
H87 C115 0.929 . S
H88 C117 0.930 . S
H89 C94 0.930 . S
H90 C98 0.930 . S
O91 Co60 2.037 . S
O91 C111 1.234 . S
C92 O66 1.269 . S
C92 O67 1.257 . S
C93 H68 0.930 . S
C93 C96 1.388 . S
C93 C98 1.418 . S
C94 H89 0.930 . S
C94 C97 1.404 . S
C94 C98 1.353 . S
N95 Co60 2.145 . S
N95 C96 1.397 . S
N95 C97 1.334 . S
C96 H77 0.929 . S
C96 C93 1.388 . S
C96 N95 1.397 . S
C97 H78 0.929 . S
C97 C94 1.404 . S
C97 N95 1.334 . S
C98 H90 0.930 . S
C98 C93 1.418 . S
C98 C94 1.353 . S
C99 H69 0.930 . S
C99 N100 1.330 . S
C99 C101 1.446 . S
N100 Co59 2.151 . S
N100 C99 1.330 . S
N100 C104 1.418 . S
C101 H80 0.929 . S
C101 C99 1.446 . S
C101 C102 1.332 . S
C102 H82 0.931 . S
C102 C101 1.332 . S
C102 C103 1.267 . S
C103 H71 0.929 . S
C103 C102 1.267 . S
C103 C104 1.251 . S
C104 H74 0.929 . S
C104 N100 1.418 . S
C104 C103 1.251 . S
C105 H72 0.930 . S
C105 C107 1.406 . S
C105 C110 1.261 . S
C106 H73 0.930 . S
C106 N108 1.325 . S
C106 C109 1.357 . S
C107 H75 0.928 . S
C107 C105 1.406 . S
C107 N108 1.261 . S
N108 Co59 2.214 . S
N108 C106 1.325 . S
N108 C107 1.261 . S
C109 H79 0.931 . S
C109 C106 1.357 . S
C109 C110 1.312 . S
C110 H81 0.930 . S
C110 C105 1.261 . S
C110 C109 1.312 . S
C111 O83 1.214 . S
C111 O91 1.234 . S
C112 H84 0.929 . S
C112 C115 1.391 . S
C112 C117 1.391 . S
C113 H85 0.929 . S
C113 C114 1.390 . S
C113 N116 1.391 . S
C114 H86 0.930 . S
C114 C113 1.390 . S
C114 C115 1.392 . S
C115 H87 0.929 . S
C115 C112 1.391 . S
C115 C114 1.392 . S
N116 Co60 2.257 . S
N116 C113 1.391 . S
N116 C117 1.388 . S
C117 H88 0.930 . S
C117 C112 1.391 . S
C117 N116 1.388 . S
Co118 O120 2.143 . S
Co118 O126 2.074 . S
Co118 O129 2.093 . S
Co118 O142 2.097 . S
Co118 N159 2.151 . S
Co118 N167 2.214 . S
Co119 O120 2.160 . S
Co119 O125 2.058 . S
Co119 O135 2.057 . S
Co119 O150 2.037 . S
Co119 N154 2.145 . S
Co119 N175 2.257 . S
O120 Co118 2.143 . S
O120 Co119 2.160 . S
C121 O122 1.278 . S
C121 O129 1.224 . S
O122 C121 1.278 . S
C123 O124 1.245 . S
C123 O135 1.232 . S
O124 C123 1.245 . S
O125 Co119 2.058 . S
O125 C151 1.269 . S
O126 Co118 2.074 . S
O126 C151 1.257 . S
H127 C152 0.930 . S
H128 C158 0.930 . S
O129 Co118 2.093 . S
O129 C121 1.224 . S
H130 C162 0.929 . S
H131 C164 0.930 . S
H132 C165 0.930 . S
H133 C163 0.929 . S
H134 C166 0.928 . S
O135 Co119 2.057 . S
O135 C123 1.232 . S
H136 C155 0.929 . S
H137 C156 0.929 . S
H138 C168 0.931 . S
H139 C160 0.929 . S
H140 C169 0.930 . S
H141 C161 0.931 . S
O142 Co118 2.097 . S
O142 C170 1.214 . S
H143 C171 0.929 . S
H144 C172 0.929 . S
H145 C173 0.930 . S
H146 C174 0.929 . S
H147 C176 0.930 . S
H148 C153 0.930 . S
H149 C157 0.930 . S
O150 Co119 2.037 . S
O150 C170 1.234 . S
C151 O125 1.269 . S
C151 O126 1.257 . S
C152 H127 0.930 . S
C152 C155 1.388 . S
C152 C157 1.418 . S
C153 H148 0.930 . S
C153 C156 1.404 . S
C153 C157 1.353 . S
N154 Co119 2.145 . S
N154 C155 1.397 . S
N154 C156 1.334 . S
C155 H136 0.929 . S
C155 C152 1.388 . S
C155 N154 1.397 . S
C156 H137 0.929 . S
C156 C153 1.404 . S
C156 N154 1.334 . S
C157 H149 0.930 . S
C157 C152 1.418 . S
C157 C153 1.353 . S
C158 H128 0.930 . S
C158 N159 1.330 . S
C158 C160 1.446 . S
N159 Co118 2.151 . S
N159 C158 1.330 . S
N159 C163 1.418 . S
C160 H139 0.929 . S
C160 C158 1.446 . S
C160 C161 1.332 . S
C161 H141 0.931 . S
C161 C160 1.332 . S
C161 C162 1.267 . S
C162 H130 0.929 . S
C162 C161 1.267 . S
C162 C163 1.251 . S
C163 H133 0.929 . S
C163 N159 1.418 . S
C163 C162 1.251 . S
C164 H131 0.930 . S
C164 C166 1.406 . S
C164 C169 1.261 . S
C165 H132 0.930 . S
C165 N167 1.325 . S
C165 C168 1.357 . S
C166 H134 0.928 . S
C166 C164 1.406 . S
C166 N167 1.261 . S
N167 Co118 2.214 . S
N167 C165 1.325 . S
N167 C166 1.261 . S
C168 H138 0.931 . S
C168 C165 1.357 . S
C168 C169 1.312 . S
C169 H140 0.930 . S
C169 C164 1.261 . S
C169 C168 1.312 . S
C170 O142 1.214 . S
C170 O150 1.234 . S
C171 H143 0.929 . S
C171 C174 1.391 . S
C171 C176 1.391 . S
C172 H144 0.929 . S
C172 C173 1.390 . S
C172 N175 1.391 . S
C173 H145 0.930 . S
C173 C172 1.390 . S
C173 C174 1.392 . S
C174 H146 0.929 . S
C174 C171 1.391 . S
C174 C173 1.392 . S
N175 Co119 2.257 . S
N175 C172 1.391 . S
N175 C176 1.388 . S
C176 H147 0.930 . S
C176 C171 1.391 . S
C176 N175 1.388 . S
Co177 O179 2.143 . S
Co177 O185 2.074 . S
Co177 O188 2.093 . S
Co177 O201 2.097 . S
Co177 N218 2.151 . S
Co177 N226 2.214 . S
Co178 O179 2.160 . S
Co178 O184 2.058 . S
Co178 O194 2.057 . S
Co178 O209 2.037 . S
Co178 N213 2.145 . S
Co178 N234 2.257 . S
O179 Co177 2.143 . S
O179 Co178 2.160 . S
C180 O181 1.278 . S
C180 O188 1.224 . S
O181 C180 1.278 . S
C182 O183 1.245 . S
C182 O194 1.232 . S
O183 C182 1.245 . S
O184 Co178 2.058 . S
O184 C210 1.269 . S
O185 Co177 2.074 . S
O185 C210 1.257 . S
H186 C211 0.930 . S
H187 C217 0.930 . S
O188 Co177 2.093 . S
O188 C180 1.224 . S
H189 C221 0.929 . S
H190 C223 0.930 . S
H191 C224 0.930 . S
H192 C222 0.929 . S
H193 C225 0.928 . S
O194 Co178 2.057 . S
O194 C182 1.232 . S
H195 C214 0.929 1_554 S
H196 C215 0.929 . S
H197 C227 0.931 . S
H198 C219 0.929 . S
H199 C228 0.931 . S
H200 C220 0.931 . S
O201 Co177 2.097 . S
O201 C229 1.214 . S
H202 C230 0.929 . S
H203 C231 0.929 . S
H204 C232 0.930 1_554 S
H205 C233 0.929 . S
H206 C235 0.930 . S
H207 C212 0.930 . S
H208 C216 0.930 1_554 S
O209 Co178 2.037 . S
O209 C229 1.234 . S
C210 O184 1.269 . S
C210 O185 1.257 . S
C211 H186 0.930 . S
C211 C214 1.388 1_554 S
C211 C216 1.418 1_554 S
C212 H207 0.930 . S
C212 C215 1.404 . S
C212 C216 1.353 . S
N213 Co178 2.145 . S
N213 C214 1.397 . S
N213 C215 1.334 . S
C214 H195 0.929 1_556 S
C214 C211 1.388 1_556 S
C214 N213 1.397 . S
C215 H196 0.929 . S
C215 C212 1.404 . S
C215 N213 1.334 . S
C216 H208 0.930 1_556 S
C216 C211 1.418 1_556 S
C216 C212 1.353 . S
C217 H187 0.930 . S
C217 N218 1.330 . S
C217 C219 1.446 . S
N218 Co177 2.151 . S
N218 C217 1.330 . S
N218 C222 1.418 . S
C219 H198 0.929 . S
C219 C217 1.446 . S
C219 C220 1.332 . S
C220 H200 0.931 . S
C220 C219 1.332 . S
C220 C221 1.267 . S
C221 H189 0.929 . S
C221 C220 1.267 . S
C221 C222 1.251 . S
C222 H192 0.929 . S
C222 N218 1.418 . S
C222 C221 1.251 . S
C223 H190 0.930 . S
C223 C225 1.406 . S
C223 C228 1.261 . S
C224 H191 0.930 . S
C224 N226 1.325 . S
C224 C227 1.357 1_556 S
C225 H193 0.928 . S
C225 C223 1.406 . S
C225 N226 1.261 . S
N226 Co177 2.214 . S
N226 C224 1.325 . S
N226 C225 1.261 . S
C227 H197 0.931 . S
C227 C224 1.357 1_554 S
C227 C228 1.312 1_554 S
C228 H199 0.931 . S
C228 C223 1.261 . S
C228 C227 1.312 1_556 S
C229 O201 1.214 . S
C229 O209 1.234 . S
C230 H202 0.929 . S
C230 C233 1.391 . S
C230 C235 1.391 . S
C231 H203 0.929 . S
C231 C232 1.390 . S
C231 N234 1.391 . S
C232 H204 0.930 1_556 S
C232 C231 1.390 . S
C232 C233 1.392 . S
C233 H205 0.929 . S
C233 C230 1.391 . S
C233 C232 1.392 . S
N234 Co178 2.257 . S
N234 C231 1.391 . S
N234 C235 1.388 . S
C235 H206 0.930 . S
C235 C230 1.391 . S
C235 N234 1.388 . S
Co236 O238 2.143 . S
Co236 O244 2.074 . S
Co236 O247 2.093 . S
Co236 O260 2.097 . S
Co236 N277 2.151 . S
Co236 N285 2.214 . S
Co237 O238 2.160 . S
Co237 O243 2.058 . S
Co237 O253 2.057 . S
Co237 O268 2.037 . S
Co237 N272 2.145 . S
Co237 N293 2.257 . S
O238 Co236 2.143 . S
O238 Co237 2.160 . S
C239 O240 1.278 . S
C239 O247 1.224 1_556 S
O240 C239 1.278 . S
C241 O242 1.245 . S
C241 O253 1.232 . S
O242 C241 1.245 . S
O243 Co237 2.058 . S
O243 C269 1.269 . S
O244 Co236 2.074 . S
O244 C269 1.257 . S
H245 C270 0.930 . S
H246 C276 0.930 . S
O247 Co236 2.093 . S
O247 C239 1.224 1_554 S
H248 C280 0.929 . S
H249 C282 0.930 . S
H250 C283 0.930 . S
H251 C281 0.929 . S
H252 C284 0.928 . S
O253 Co237 2.057 . S
O253 C241 1.232 . S
H254 C273 0.929 . S
H255 C274 0.929 . S
H256 C286 0.931 . S
H257 C278 0.929 . S
H258 C287 0.930 . S
H259 C279 0.931 . S
O260 Co236 2.097 . S
O260 C288 1.214 . S
H261 C289 0.929 . S
H262 C290 0.929 1_554 S
H263 C291 0.930 . S
H264 C292 0.929 . S
H265 C294 0.930 . S
H266 C271 0.930 . S
H267 C275 0.930 . S
O268 Co237 2.037 . S
O268 C288 1.234 . S
C269 O243 1.269 . S
C269 O244 1.257 . S
C270 H245 0.930 . S
C270 C273 1.388 . S
C270 C275 1.418 . S
C271 H266 0.930 . S
C271 C274 1.404 . S
C271 C275 1.353 . S
N272 Co237 2.145 . S
N272 C273 1.397 . S
N272 C274 1.334 . S
C273 H254 0.929 . S
C273 C270 1.388 . S
C273 N272 1.397 . S
C274 H255 0.929 . S
C274 C271 1.404 . S
C274 N272 1.334 . S
C275 H267 0.930 . S
C275 C270 1.418 . S
C275 C271 1.353 . S
C276 H246 0.930 . S
C276 N277 1.330 . S
C276 C278 1.446 . S
N277 Co236 2.151 . S
N277 C276 1.330 . S
N277 C281 1.418 . S
C278 H257 0.929 . S
C278 C276 1.446 . S
C278 C279 1.332 . S
C279 H259 0.931 . S
C279 C278 1.332 . S
C279 C280 1.267 . S
C280 H248 0.929 . S
C280 C279 1.267 . S
C280 C281 1.251 . S
C281 H251 0.929 . S
C281 N277 1.418 . S
C281 C280 1.251 . S
C282 H249 0.930 . S
C282 C284 1.406 . S
C282 C287 1.261 . S
C283 H250 0.930 . S
C283 N285 1.325 . S
C283 C286 1.357 . S
C284 H252 0.928 . S
C284 C282 1.406 . S
C284 N285 1.261 . S
N285 Co236 2.214 . S
N285 C283 1.325 . S
N285 C284 1.261 . S
C286 H256 0.931 . S
C286 C283 1.357 . S
C286 C287 1.312 . S
C287 H258 0.930 . S
C287 C282 1.261 . S
C287 C286 1.312 . S
C288 O260 1.214 . S
C288 O268 1.234 . S
C289 H261 0.929 . S
C289 C292 1.391 . S
C289 C294 1.391 . S
C290 H262 0.929 1_556 S
C290 C291 1.390 . S
C290 N293 1.391 1_556 S
C291 H263 0.930 . S
C291 C290 1.390 . S
C291 C292 1.392 . S
C292 H264 0.929 . S
C292 C289 1.391 . S
C292 C291 1.392 . S
N293 Co237 2.257 . S
N293 C290 1.391 1_554 S
N293 C294 1.388 1_554 S
C294 H265 0.930 . S
C294 C289 1.391 . S
C294 N293 1.388 1_556 S
Co295 O297 2.143 . S
Co295 O303 2.074 . S
Co295 O306 2.093 . S
Co295 O319 2.097 . S
Co295 N336 2.151 . S
Co295 N344 2.214 . S
Co296 O297 2.160 . S
Co296 O302 2.058 . S
Co296 O312 2.057 . S
Co296 O327 2.037 . S
Co296 N331 2.145 . S
Co296 N352 2.257 . S
O297 Co295 2.143 . S
O297 Co296 2.160 . S
C298 O299 1.278 . S
C298 O306 1.224 . S
O299 C298 1.278 . S
C300 O301 1.245 . S
C300 O312 1.232 . S
O301 C300 1.245 . S
O302 Co296 2.058 . S
O302 C328 1.269 . S
O303 Co295 2.074 . S
O303 C328 1.257 . S
H304 C329 0.930 . S
H305 C335 0.930 . S
O306 Co295 2.093 . S
O306 C298 1.224 . S
H307 C339 0.929 . S
H308 C341 0.930 . S
H309 C342 0.930 . S
H310 C340 0.929 . S
H311 C343 0.928 . S
O312 Co296 2.057 . S
O312 C300 1.232 . S
H313 C332 0.929 . S
H314 C333 0.929 . S
H315 C345 0.931 . S
H316 C337 0.929 . S
H317 C346 0.930 . S
H318 C338 0.931 . S
O319 Co295 2.097 . S
O319 C347 1.214 . S
H320 C348 0.929 . S
H321 C349 0.929 . S
H322 C350 0.930 . S
H323 C351 0.929 . S
H324 C353 0.930 . S
H325 C330 0.930 . S
H326 C334 0.930 . S
O327 Co296 2.037 . S
O327 C347 1.234 . S
C328 O302 1.269 . S
C328 O303 1.257 . S
C329 H304 0.930 . S
C329 C332 1.388 . S
C329 C334 1.418 . S
C330 H325 0.930 . S
C330 C333 1.404 . S
C330 C334 1.353 . S
N331 Co296 2.145 . S
N331 C332 1.397 . S
N331 C333 1.334 . S
C332 H313 0.929 . S
C332 C329 1.388 . S
C332 N331 1.397 . S
C333 H314 0.929 . S
C333 C330 1.404 . S
C333 N331 1.334 . S
C334 H326 0.930 . S
C334 C329 1.418 . S
C334 C330 1.353 . S
C335 H305 0.930 . S
C335 N336 1.330 . S
C335 C337 1.446 . S
N336 Co295 2.151 . S
N336 C335 1.330 . S
N336 C340 1.418 . S
C337 H316 0.929 . S
C337 C335 1.446 . S
C337 C338 1.332 . S
C338 H318 0.931 . S
C338 C337 1.332 . S
C338 C339 1.267 . S
C339 H307 0.929 . S
C339 C338 1.267 . S
C339 C340 1.251 . S
C340 H310 0.929 . S
C340 N336 1.418 . S
C340 C339 1.251 . S
C341 H308 0.930 . S
C341 C343 1.406 . S
C341 C346 1.261 . S
C342 H309 0.930 . S
C342 N344 1.325 . S
C342 C345 1.357 . S
C343 H311 0.928 . S
C343 C341 1.406 . S
C343 N344 1.261 . S
N344 Co295 2.214 . S
N344 C342 1.325 . S
N344 C343 1.261 . S
C345 H315 0.931 . S
C345 C342 1.357 . S
C345 C346 1.312 . S
C346 H317 0.930 . S
C346 C341 1.261 . S
C346 C345 1.312 . S
C347 O319 1.214 . S
C347 O327 1.234 . S
C348 H320 0.929 . S
C348 C351 1.391 . S
C348 C353 1.391 . S
C349 H321 0.929 . S
C349 C350 1.390 . S
C349 N352 1.391 . S
C350 H322 0.930 . S
C350 C349 1.390 . S
C350 C351 1.392 . S
C351 H323 0.929 . S
C351 C348 1.391 . S
C351 C350 1.392 . S
N352 Co296 2.257 . S
N352 C349 1.391 . S
N352 C353 1.388 . S
C353 H324 0.930 . S
C353 C348 1.391 . S
C353 N352 1.388 . S
Co354 O356 2.143 . S
Co354 O362 2.074 . S
Co354 O365 2.093 . S
Co354 O378 2.097 . S
Co354 N395 2.151 . S
Co354 N403 2.214 . S
Co355 O356 2.160 . S
Co355 O361 2.058 . S
Co355 O371 2.057 . S
Co355 O386 2.037 . S
Co355 N390 2.145 . S
Co355 N411 2.257 . S
O356 Co354 2.143 . S
O356 Co355 2.160 . S
C357 O358 1.278 . S
C357 O365 1.224 . S
O358 C357 1.278 . S
C359 O360 1.245 . S
C359 O371 1.232 . S
O360 C359 1.245 . S
O361 Co355 2.058 . S
O361 C387 1.269 . S
O362 Co354 2.074 . S
O362 C387 1.257 . S
H363 C388 0.930 . S
H364 C394 0.930 . S
O365 Co354 2.093 . S
O365 C357 1.224 . S
H366 C398 0.929 . S
H367 C400 0.930 . S
H368 C401 0.930 . S
H369 C399 0.929 . S
H370 C402 0.928 . S
O371 Co355 2.057 . S
O371 C359 1.232 . S
H372 C391 0.929 . S
H373 C392 0.929 . S
H374 C404 0.931 . S
H375 C396 0.929 . S
H376 C405 0.930 . S
H377 C397 0.931 . S
O378 Co354 2.097 . S
O378 C406 1.214 . S
H379 C407 0.929 . S
H380 C408 0.929 . S
H381 C409 0.930 . S
H382 C410 0.929 . S
H383 C412 0.930 . S
H384 C389 0.930 . S
H385 C393 0.930 . S
O386 Co355 2.037 . S
O386 C406 1.234 . S
C387 O361 1.269 . S
C387 O362 1.257 . S
C388 H363 0.930 . S
C388 C391 1.388 . S
C388 C393 1.418 . S
C389 H384 0.930 . S
C389 C392 1.404 . S
C389 C393 1.353 . S
N390 Co355 2.145 . S
N390 C391 1.397 . S
N390 C392 1.334 . S
C391 H372 0.929 . S
C391 C388 1.388 . S
C391 N390 1.397 . S
C392 H373 0.929 . S
C392 C389 1.404 . S
C392 N390 1.334 . S
C393 H385 0.930 . S
C393 C388 1.418 . S
C393 C389 1.353 . S
C394 H364 0.930 . S
C394 N395 1.330 . S
C394 C396 1.446 . S
N395 Co354 2.151 . S
N395 C394 1.330 . S
N395 C399 1.418 . S
C396 H375 0.929 . S
C396 C394 1.446 . S
C396 C397 1.332 . S
C397 H377 0.931 . S
C397 C396 1.332 . S
C397 C398 1.267 . S
C398 H366 0.929 . S
C398 C397 1.267 . S
C398 C399 1.251 . S
C399 H369 0.929 . S
C399 N395 1.418 . S
C399 C398 1.251 . S
C400 H367 0.930 . S
C400 C402 1.406 . S
C400 C405 1.261 . S
C401 H368 0.930 . S
C401 N403 1.325 . S
C401 C404 1.357 . S
C402 H370 0.928 . S
C402 C400 1.406 . S
C402 N403 1.261 . S
N403 Co354 2.214 . S
N403 C401 1.325 . S
N403 C402 1.261 . S
C404 H374 0.931 . S
C404 C401 1.357 . S
C404 C405 1.312 . S
C405 H376 0.930 . S
C405 C400 1.261 . S
C405 C404 1.312 . S
C406 O378 1.214 . S
C406 O386 1.234 . S
C407 H379 0.929 . S
C407 C410 1.391 . S
C407 C412 1.391 . S
C408 H380 0.929 . S
C408 C409 1.390 . S
C408 N411 1.391 . S
C409 H381 0.930 . S
C409 C408 1.390 . S
C409 C410 1.392 . S
C410 H382 0.929 . S
C410 C407 1.391 . S
C410 C409 1.392 . S
N411 Co355 2.257 . S
N411 C408 1.391 . S
N411 C412 1.388 . S
C412 H383 0.930 . S
C412 C407 1.391 . S
C412 N411 1.388 . S
Co413 O415 2.143 . S
Co413 O421 2.074 . S
Co413 O424 2.093 . S
Co413 O437 2.097 . S
Co413 N454 2.151 . S
Co413 N462 2.214 . S
Co414 O415 2.160 . S
Co414 O420 2.058 . S
Co414 O430 2.057 . S
Co414 O445 2.037 . S
Co414 N449 2.145 . S
Co414 N470 2.257 . S
O415 Co413 2.143 . S
O415 Co414 2.160 . S
C416 O417 1.278 . S
C416 O424 1.224 . S
O417 C416 1.278 . S
C418 O419 1.245 . S
C418 O430 1.232 . S
O419 C418 1.245 . S
O420 Co414 2.058 . S
O420 C446 1.269 . S
O421 Co413 2.074 . S
O421 C446 1.257 . S
H422 C447 0.930 . S
H423 C453 0.930 . S
O424 Co413 2.093 . S
O424 C416 1.224 . S
H425 C457 0.929 . S
H426 C459 0.930 . S
H427 C460 0.930 . S
H428 C458 0.929 . S
H429 C461 0.928 . S
O430 Co414 2.057 . S
O430 C418 1.232 . S
H431 C450 0.929 . S
H432 C451 0.929 . S
H433 C463 0.931 . S
H434 C455 0.929 . S
H435 C464 0.930 . S
H436 C456 0.931 . S
O437 Co413 2.097 . S
O437 C465 1.214 . S
H438 C466 0.929 . S
H439 C467 0.929 . S
H440 C468 0.930 . S
H441 C469 0.929 . S
H442 C471 0.930 . S
H443 C448 0.930 . S
H444 C452 0.930 . S
O445 Co414 2.037 . S
O445 C465 1.234 . S
C446 O420 1.269 . S
C446 O421 1.257 . S
C447 H422 0.930 . S
C447 C450 1.388 . S
C447 C452 1.418 . S
C448 H443 0.930 . S
C448 C451 1.404 . S
C448 C452 1.353 . S
N449 Co414 2.145 . S
N449 C450 1.397 . S
N449 C451 1.334 . S
C450 H431 0.929 . S
C450 C447 1.388 . S
C450 N449 1.397 . S
C451 H432 0.929 . S
C451 C448 1.404 . S
C451 N449 1.334 . S
C452 H444 0.930 . S
C452 C447 1.418 . S
C452 C448 1.353 . S
C453 H423 0.930 . S
C453 N454 1.330 . S
C453 C455 1.446 . S
N454 Co413 2.151 . S
N454 C453 1.330 . S
N454 C458 1.418 . S
C455 H434 0.929 . S
C455 C453 1.446 . S
C455 C456 1.332 . S
C456 H436 0.931 . S
C456 C455 1.332 . S
C456 C457 1.267 . S
C457 H425 0.929 . S
C457 C456 1.267 . S
C457 C458 1.251 . S
C458 H428 0.929 . S
C458 N454 1.418 . S
C458 C457 1.251 . S
C459 H426 0.930 . S
C459 C461 1.406 . S
C459 C464 1.261 . S
C460 H427 0.930 . S
C460 N462 1.325 . S
C460 C463 1.357 . S
C461 H429 0.928 . S
C461 C459 1.406 . S
C461 N462 1.261 . S
N462 Co413 2.214 . S
N462 C460 1.325 . S
N462 C461 1.261 . S
C463 H433 0.931 . S
C463 C460 1.357 . S
C463 C464 1.312 . S
C464 H435 0.930 . S
C464 C459 1.261 . S
C464 C463 1.312 . S
C465 O437 1.214 . S
C465 O445 1.234 . S
C466 H438 0.929 . S
C466 C469 1.391 . S
C466 C471 1.391 . S
C467 H439 0.929 . S
C467 C468 1.390 . S
C467 N470 1.391 . S
C468 H440 0.930 . S
C468 C467 1.390 . S
C468 C469 1.392 . S
C469 H441 0.929 . S
C469 C466 1.391 . S
C469 C468 1.392 . S
N470 Co414 2.257 . S
N470 C467 1.391 . S
N470 C471 1.388 . S
C471 H442 0.930 . S
C471 C466 1.391 . S
C471 N470 1.388 . S
Co472 O474 2.143 . S
Co472 O480 2.074 . S
Co472 O483 2.093 . S
Co472 O496 2.097 . S
Co472 N513 2.151 . S
Co472 N521 2.214 . S
Co473 O474 2.160 . S
Co473 O479 2.058 . S
Co473 O489 2.057 . S
Co473 O504 2.037 . S
Co473 N508 2.145 . S
Co473 N529 2.257 . S
O474 Co472 2.143 . S
O474 Co473 2.160 . S
C475 O476 1.278 . S
C475 O483 1.224 . S
O476 C475 1.278 . S
C477 O478 1.245 . S
C477 O489 1.232 . S
O478 C477 1.245 . S
O479 Co473 2.058 . S
O479 C505 1.269 . S
O480 Co472 2.074 . S
O480 C505 1.257 . S
H481 C506 0.930 . S
H482 C512 0.930 . S
O483 Co472 2.093 . S
O483 C475 1.224 . S
H484 C516 0.929 . S
H485 C518 0.930 . S
H486 C519 0.930 . S
H487 C517 0.929 . S
H488 C520 0.928 . S
O489 Co473 2.057 . S
O489 C477 1.232 . S
H490 C509 0.929 . S
H491 C510 0.929 . S
H492 C522 0.931 . S
H493 C514 0.929 . S
H494 C523 0.930 . S
H495 C515 0.931 . S
O496 Co472 2.097 . S
O496 C524 1.214 . S
H497 C525 0.929 . S
H498 C526 0.929 . S
H499 C527 0.930 . S
H500 C528 0.929 . S
H501 C530 0.930 . S
H502 C507 0.930 . S
H503 C511 0.930 . S
O504 Co473 2.037 . S
O504 C524 1.234 . S
C505 O479 1.269 . S
C505 O480 1.257 . S
C506 H481 0.930 . S
C506 C509 1.388 . S
C506 C511 1.418 . S
C507 H502 0.930 . S
C507 C510 1.404 . S
C507 C511 1.353 . S
N508 Co473 2.145 . S
N508 C509 1.397 . S
N508 C510 1.334 . S
C509 H490 0.929 . S
C509 C506 1.388 . S
C509 N508 1.397 . S
C510 H491 0.929 . S
C510 C507 1.404 . S
C510 N508 1.334 . S
C511 H503 0.930 . S
C511 C506 1.418 . S
C511 C507 1.353 . S
C512 H482 0.930 . S
C512 N513 1.330 . S
C512 C514 1.446 . S
N513 Co472 2.151 . S
N513 C512 1.330 . S
N513 C517 1.418 . S
C514 H493 0.929 . S
C514 C512 1.446 . S
C514 C515 1.332 . S
C515 H495 0.931 . S
C515 C514 1.332 . S
C515 C516 1.267 . S
C516 H484 0.929 . S
C516 C515 1.267 . S
C516 C517 1.251 . S
C517 H487 0.929 . S
C517 N513 1.418 . S
C517 C516 1.251 . S
C518 H485 0.930 . S
C518 C520 1.406 . S
C518 C523 1.261 . S
C519 H486 0.930 . S
C519 N521 1.325 . S
C519 C522 1.357 . S
C520 H488 0.928 . S
C520 C518 1.406 . S
C520 N521 1.261 . S
N521 Co472 2.214 . S
N521 C519 1.325 . S
N521 C520 1.261 . S
C522 H492 0.931 . S
C522 C519 1.357 . S
C522 C523 1.312 . S
C523 H494 0.930 . S
C523 C518 1.261 . S
C523 C522 1.312 . S
C524 O496 1.214 . S
C524 O504 1.234 . S
C525 H497 0.929 . S
C525 C528 1.391 . S
C525 C530 1.391 . S
C526 H498 0.929 . S
C526 C527 1.390 . S
C526 N529 1.391 . S
C527 H499 0.930 . S
C527 C526 1.390 . S
C527 C528 1.392 . S
C528 H500 0.929 . S
C528 C525 1.391 . S
C528 C527 1.392 . S
N529 Co473 2.257 . S
N529 C526 1.391 . S
N529 C530 1.388 . S
C530 H501 0.930 . S
C530 C525 1.391 . S
C530 N529 1.388 . S
Co531 O533 2.143 . S
Co531 O539 2.074 . S
Co531 O542 2.093 . S
Co531 O555 2.097 . S
Co531 N572 2.151 . S
Co531 N580 2.214 . S
Co532 O533 2.160 . S
Co532 O538 2.058 . S
Co532 O548 2.057 . S
Co532 O563 2.037 . S
Co532 N567 2.145 . S
Co532 N588 2.257 . S
O533 Co531 2.143 . S
O533 Co532 2.160 . S
C534 O535 1.278 . S
C534 O542 1.224 1_554 S
O535 C534 1.278 . S
C536 O537 1.245 . S
C536 O548 1.232 . S
O537 C536 1.245 . S
O538 Co532 2.058 . S
O538 C564 1.269 . S
O539 Co531 2.074 . S
O539 C564 1.257 . S
H540 C565 0.930 . S
H541 C571 0.930 . S
O542 Co531 2.093 . S
O542 C534 1.224 1_556 S
H543 C575 0.929 . S
H544 C577 0.930 . S
H545 C578 0.930 . S
H546 C576 0.929 . S
H547 C579 0.928 . S
O548 Co532 2.057 . S
O548 C536 1.232 . S
H549 C568 0.929 . S
H550 C569 0.929 . S
H551 C581 0.931 . S
H552 C573 0.929 . S
H553 C582 0.930 . S
H554 C574 0.931 . S
O555 Co531 2.097 . S
O555 C583 1.214 . S
H556 C584 0.929 . S
H557 C585 0.929 1_556 S
H558 C586 0.930 . S
H559 C587 0.929 . S
H560 C589 0.930 . S
H561 C566 0.930 . S
H562 C570 0.930 . S
O563 Co532 2.037 . S
O563 C583 1.234 . S
C564 O538 1.269 . S
C564 O539 1.257 . S
C565 H540 0.930 . S
C565 C568 1.388 . S
C565 C570 1.418 . S
C566 H561 0.930 . S
C566 C569 1.404 . S
C566 C570 1.353 . S
N567 Co532 2.145 . S
N567 C568 1.397 . S
N567 C569 1.334 . S
C568 H549 0.929 . S
C568 C565 1.388 . S
C568 N567 1.397 . S
C569 H550 0.929 . S
C569 C566 1.404 . S
C569 N567 1.334 . S
C570 H562 0.930 . S
C570 C565 1.418 . S
C570 C566 1.353 . S
C571 H541 0.930 . S
C571 N572 1.330 . S
C571 C573 1.446 . S
N572 Co531 2.151 . S
N572 C571 1.330 . S
N572 C576 1.418 . S
C573 H552 0.929 . S
C573 C571 1.446 . S
C573 C574 1.332 . S
C574 H554 0.931 . S
C574 C573 1.332 . S
C574 C575 1.267 . S
C575 H543 0.929 . S
C575 C574 1.267 . S
C575 C576 1.251 . S
C576 H546 0.929 . S
C576 N572 1.418 . S
C576 C575 1.251 . S
C577 H544 0.930 . S
C577 C579 1.406 . S
C577 C582 1.261 . S
C578 H545 0.930 . S
C578 N580 1.325 . S
C578 C581 1.357 . S
C579 H547 0.928 . S
C579 C577 1.406 . S
C579 N580 1.261 . S
N580 Co531 2.214 . S
N580 C578 1.325 . S
N580 C579 1.261 . S
C581 H551 0.931 . S
C581 C578 1.357 . S
C581 C582 1.312 . S
C582 H553 0.930 . S
C582 C577 1.261 . S
C582 C581 1.312 . S
C583 O555 1.214 . S
C583 O563 1.234 . S
C584 H556 0.929 . S
C584 C587 1.391 . S
C584 C589 1.391 . S
C585 H557 0.929 1_554 S
C585 C586 1.390 . S
C585 N588 1.391 1_554 S
C586 H558 0.930 . S
C586 C585 1.390 . S
C586 C587 1.392 . S
C587 H559 0.929 . S
C587 C584 1.391 . S
C587 C586 1.392 . S
N588 Co532 2.257 . S
N588 C585 1.391 1_556 S
N588 C589 1.388 1_556 S
C589 H560 0.930 . S
C589 C584 1.391 . S
C589 N588 1.388 1_554 S
Co590 O592 2.143 . S
Co590 O598 2.074 . S
Co590 O601 2.093 . S
Co590 O614 2.097 . S
Co590 N631 2.151 . S
Co590 N639 2.214 . S
Co591 O592 2.160 . S
Co591 O597 2.058 . S
Co591 O607 2.057 . S
Co591 O622 2.037 . S
Co591 N626 2.145 . S
Co591 N647 2.257 . S
O592 Co590 2.143 . S
O592 Co591 2.160 . S
C593 O594 1.278 . S
C593 O601 1.224 . S
O594 C593 1.278 . S
C595 O596 1.245 . S
C595 O607 1.232 . S
O596 C595 1.245 . S
O597 Co591 2.058 . S
O597 C623 1.269 . S
O598 Co590 2.074 . S
O598 C623 1.257 . S
H599 C624 0.930 . S
H600 C630 0.930 . S
O601 Co590 2.093 . S
O601 C593 1.224 . S
H602 C634 0.929 . S
H603 C636 0.930 . S
H604 C637 0.930 . S
H605 C635 0.929 . S
H606 C638 0.928 . S
O607 Co591 2.057 . S
O607 C595 1.232 . S
H608 C627 0.929 1_556 S
H609 C628 0.929 . S
H610 C640 0.931 . S
H611 C632 0.929 . S
H612 C641 0.930 . S
H613 C633 0.931 . S
O614 Co590 2.097 . S
O614 C642 1.214 . S
H615 C643 0.929 . S
H616 C644 0.929 . S
H617 C645 0.930 1_556 S
H618 C646 0.929 . S
H619 C648 0.930 . S
H620 C625 0.930 . S
H621 C629 0.930 1_556 S
O622 Co591 2.037 . S
O622 C642 1.234 . S
C623 O597 1.269 . S
C623 O598 1.257 . S
C624 H599 0.930 . S
C624 C627 1.388 1_556 S
C624 C629 1.418 1_556 S
C625 H620 0.930 . S
C625 C628 1.404 . S
C625 C629 1.353 . S
N626 Co591 2.145 . S
N626 C627 1.397 . S
N626 C628 1.334 . S
C627 H608 0.929 1_554 S
C627 C624 1.388 1_554 S
C627 N626 1.397 . S
C628 H609 0.929 . S
C628 C625 1.404 . S
C628 N626 1.334 . S
C629 H621 0.930 1_554 S
C629 C624 1.418 1_554 S
C629 C625 1.353 . S
C630 H600 0.930 . S
C630 N631 1.330 . S
C630 C632 1.446 . S
N631 Co590 2.151 . S
N631 C630 1.330 . S
N631 C635 1.418 . S
C632 H611 0.929 . S
C632 C630 1.446 . S
C632 C633 1.332 . S
C633 H613 0.931 . S
C633 C632 1.332 . S
C633 C634 1.267 . S
C634 H602 0.929 . S
C634 C633 1.267 . S
C634 C635 1.251 . S
C635 H605 0.929 . S
C635 N631 1.418 . S
C635 C634 1.251 . S
C636 H603 0.930 . S
C636 C638 1.406 . S
C636 C641 1.261 . S
C637 H604 0.930 . S
C637 N639 1.325 . S
C637 C640 1.357 1_554 S
C638 H606 0.928 . S
C638 C636 1.406 . S
C638 N639 1.261 . S
N639 Co590 2.214 . S
N639 C637 1.325 . S
N639 C638 1.261 . S
C640 H610 0.931 . S
C640 C637 1.357 1_556 S
C640 C641 1.312 1_556 S
C641 H612 0.930 . S
C641 C636 1.261 . S
C641 C640 1.312 1_554 S
C642 O614 1.214 . S
C642 O622 1.234 . S
C643 H615 0.929 . S
C643 C646 1.391 . S
C643 C648 1.391 . S
C644 H616 0.929 . S
C644 C645 1.390 . S
C644 N647 1.391 . S
C645 H617 0.930 1_554 S
C645 C644 1.390 . S
C645 C646 1.392 . S
C646 H618 0.929 . S
C646 C643 1.391 . S
C646 C645 1.392 . S
N647 Co591 2.257 . S
N647 C644 1.391 . S
N647 C648 1.388 . S
C648 H619 0.930 . S
C648 C643 1.391 . S
C648 N647 1.388 . S
Co649 O651 2.143 . S
Co649 O657 2.074 . S
Co649 O660 2.093 . S
Co649 O673 2.097 . S
Co649 N690 2.151 . S
Co649 N698 2.214 . S
Co650 O651 2.160 . S
Co650 O656 2.058 . S
Co650 O666 2.057 . S
Co650 O681 2.037 . S
Co650 N685 2.145 . S
Co650 N706 2.257 . S
O651 Co649 2.143 . S
O651 Co650 2.160 . S
C652 O653 1.278 . S
C652 O660 1.224 . S
O653 C652 1.278 . S
C654 O655 1.245 . S
C654 O666 1.232 . S
O655 C654 1.245 . S
O656 Co650 2.058 . S
O656 C682 1.269 . S
O657 Co649 2.074 . S
O657 C682 1.257 . S
H658 C683 0.930 . S
H659 C689 0.930 . S
O660 Co649 2.093 . S
O660 C652 1.224 . S
H661 C693 0.929 . S
H662 C695 0.930 . S
H663 C696 0.930 . S
H664 C694 0.929 . S
H665 C697 0.928 . S
O666 Co650 2.057 . S
O666 C654 1.232 . S
H667 C686 0.929 . S
H668 C687 0.929 . S
H669 C699 0.931 . S
H670 C691 0.929 . S
H671 C700 0.930 . S
H672 C692 0.931 . S
O673 Co649 2.097 . S
O673 C701 1.214 . S
H674 C702 0.929 . S
H675 C703 0.929 . S
H676 C704 0.930 . S
H677 C705 0.929 . S
H678 C707 0.930 . S
H679 C684 0.930 . S
H680 C688 0.930 . S
O681 Co650 2.037 . S
O681 C701 1.234 . S
C682 O656 1.269 . S
C682 O657 1.257 . S
C683 H658 0.930 . S
C683 C686 1.388 . S
C683 C688 1.418 . S
C684 H679 0.930 . S
C684 C687 1.404 . S
C684 C688 1.353 . S
N685 Co650 2.145 . S
N685 C686 1.397 . S
N685 C687 1.334 . S
C686 H667 0.929 . S
C686 C683 1.388 . S
C686 N685 1.397 . S
C687 H668 0.929 . S
C687 C684 1.404 . S
C687 N685 1.334 . S
C688 H680 0.930 . S
C688 C683 1.418 . S
C688 C684 1.353 . S
C689 H659 0.930 . S
C689 N690 1.330 . S
C689 C691 1.446 . S
N690 Co649 2.151 . S
N690 C689 1.330 . S
N690 C694 1.418 . S
C691 H670 0.929 . S
C691 C689 1.446 . S
C691 C692 1.332 . S
C692 H672 0.931 . S
C692 C691 1.332 . S
C692 C693 1.267 . S
C693 H661 0.929 . S
C693 C692 1.267 . S
C693 C694 1.251 . S
C694 H664 0.929 . S
C694 N690 1.418 . S
C694 C693 1.251 . S
C695 H662 0.930 . S
C695 C697 1.406 . S
C695 C700 1.261 . S
C696 H663 0.930 . S
C696 N698 1.325 . S
C696 C699 1.357 . S
C697 H665 0.928 . S
C697 C695 1.406 . S
C697 N698 1.261 . S
N698 Co649 2.214 . S
N698 C696 1.325 . S
N698 C697 1.261 . S
C699 H669 0.931 . S
C699 C696 1.357 . S
C699 C700 1.312 . S
C700 H671 0.930 . S
C700 C695 1.261 . S
C700 C699 1.312 . S
C701 O673 1.214 . S
C701 O681 1.234 . S
C702 H674 0.929 . S
C702 C705 1.391 . S
C702 C707 1.391 . S
C703 H675 0.929 . S
C703 C704 1.390 . S
C703 N706 1.391 . S
C704 H676 0.930 . S
C704 C703 1.390 . S
C704 C705 1.392 . S
C705 H677 0.929 . S
C705 C702 1.391 . S
C705 C704 1.392 . S
N706 Co650 2.257 . S
N706 C703 1.391 . S
N706 C707 1.388 . S
C707 H678 0.930 . S
C707 C702 1.391 . S
C707 N706 1.388 . S
C708 C709 1.363 . S
C708 C714 1.379 . S
C708 N716 1.356 . S
C709 C708 1.363 . S
C709 C715 1.363 . S
C710 C711 1.363 . S
C710 C715 1.379 . S
C710 N717 1.356 . S
C711 C710 1.363 . S
C711 C714 1.363 . S
N712 C714 1.356 . S
N712 H724 0.984 . S
N712 H725 0.985 . S
N713 C715 1.356 . S
N713 H718 0.984 . S
N713 H719 0.985 . S
C714 C708 1.379 . S
C714 C711 1.363 . S
C714 N712 1.356 . S
C715 C709 1.363 . S
C715 C710 1.379 . S
C715 N713 1.356 . S
N716 C708 1.356 . S
N716 H722 0.984 . S
N716 H723 0.984 . S
N717 C710 1.356 . S
N717 H720 0.984 . S
N717 H721 0.985 . S
H718 N713 0.984 . S
H719 N713 0.985 . S
H720 N717 0.984 . S
H721 N717 0.985 . S
H722 N716 0.984 . S
H723 N716 0.984 . S
H724 N712 0.984 . S
H725 N712 0.985 . S
C726 C727 1.363 . S
C726 C732 1.379 . S
C726 N734 1.356 . S
C727 C726 1.363 . S
C727 C733 1.363 . S
C728 C729 1.363 . S
C728 C733 1.379 . S
C728 N735 1.356 . S
C729 C728 1.363 . S
C729 C732 1.363 . S
N730 C732 1.356 . S
N730 H742 0.984 . S
N730 H743 0.985 . S
N731 C733 1.356 . S
N731 H736 0.984 . S
N731 H737 0.985 . S
C732 C726 1.379 . S
C732 C729 1.363 . S
C732 N730 1.356 . S
C733 C727 1.363 . S
C733 C728 1.379 . S
C733 N731 1.356 . S
N734 C726 1.356 . S
N734 H740 0.984 . S
N734 H741 0.984 . S
N735 C728 1.356 . S
N735 H738 0.984 . S
N735 H739 0.985 . S
H736 N731 0.984 . S
H737 N731 0.985 . S
H738 N735 0.984 . S
H739 N735 0.985 . S
H740 N734 0.984 . S
H741 N734 0.984 . S
H742 N730 0.984 . S
H743 N730 0.985 . S
C744 C745 1.363 . S
C744 C750 1.379 . S
C744 N752 1.356 . S
C745 C744 1.363 . S
C745 C751 1.363 . S
C746 C747 1.363 . S
C746 C751 1.379 . S
C746 N753 1.356 . S
C747 C746 1.363 . S
C747 C750 1.363 . S
N748 C750 1.356 . S
N748 H760 0.984 . S
N748 H761 0.985 . S
N749 C751 1.356 . S
N749 H754 0.984 . S
N749 H755 0.985 . S
C750 C744 1.379 . S
C750 C747 1.363 . S
C750 N748 1.356 . S
C751 C745 1.363 . S
C751 C746 1.379 . S
C751 N749 1.356 . S
N752 C744 1.356 . S
N752 H758 0.984 . S
N752 H759 0.984 . S
N753 C746 1.356 . S
N753 H756 0.984 . S
N753 H757 0.985 . S
H754 N749 0.984 . S
H755 N749 0.985 . S
H756 N753 0.984 . S
H757 N753 0.985 . S
H758 N752 0.984 . S
H759 N752 0.984 . S
H760 N748 0.984 . S
H761 N748 0.985 . S
C762 C763 1.363 . S
C762 C768 1.379 . S
C762 N770 1.356 . S
C763 C762 1.363 . S
C763 C769 1.363 . S
C764 C765 1.363 . S
C764 C769 1.379 . S
C764 N771 1.356 . S
C765 C764 1.363 . S
C765 C768 1.363 . S
N766 C768 1.356 . S
N766 H778 0.984 . S
N766 H779 0.985 . S
N767 C769 1.356 . S
N767 H772 0.984 . S
N767 H773 0.985 . S
C768 C762 1.379 . S
C768 C765 1.363 . S
C768 N766 1.356 . S
C769 C763 1.363 . S
C769 C764 1.379 . S
C769 N767 1.356 . S
N770 C762 1.356 . S
N770 H776 0.984 . S
N770 H777 0.984 . S
N771 C764 1.356 . S
N771 H774 0.984 . S
N771 H775 0.985 . S
H772 N767 0.984 . S
H773 N767 0.985 . S
H774 N771 0.984 . S
H775 N771 0.985 . S
H776 N770 0.984 . S
H777 N770 0.984 . S
H778 N766 0.984 . S
H779 N766 0.985 . S
C780 C781 1.363 . S
C780 C786 1.379 . S
C780 N788 1.356 . S
C781 C780 1.363 . S
C781 C787 1.363 . S
C782 C783 1.363 . S
C782 C787 1.379 . S
C782 N789 1.356 . S
C783 C782 1.363 . S
C783 C786 1.363 . S
N784 C786 1.356 . S
N784 H796 0.984 . S
N784 H797 0.985 . S
N785 C787 1.356 . S
N785 H790 0.984 . S
N785 H791 0.985 . S
C786 C780 1.379 . S
C786 C783 1.363 . S
C786 N784 1.356 . S
C787 C781 1.363 . S
C787 C782 1.379 . S
C787 N785 1.356 . S
N788 C780 1.356 . S
N788 H794 0.984 . S
N788 H795 0.984 . S
N789 C782 1.356 . S
N789 H792 0.984 . S
N789 H793 0.966 1_554 S
H790 N785 0.984 . S
H791 N785 0.985 . S
H792 N789 0.984 . S
H793 N789 0.966 1_556 S
H794 N788 0.984 . S
H795 N788 0.984 . S
H796 N784 0.984 . S
H797 N784 0.985 . S
C798 C799 1.363 . S
C798 C804 1.379 . S
C798 N806 1.356 . S
C799 C798 1.363 . S
C799 C805 1.363 . S
C800 C801 1.363 . S
C800 C805 1.379 . S
C800 N807 1.356 . S
C801 C800 1.363 . S
C801 C804 1.363 . S
N802 C804 1.356 . S
N802 H814 0.984 . S
N802 H815 0.985 . S
N803 C805 1.356 . S
N803 H808 0.984 . S
N803 H809 0.985 . S
C804 C798 1.379 . S
C804 C801 1.363 . S
C804 N802 1.356 . S
C805 C799 1.363 . S
C805 C800 1.379 . S
C805 N803 1.356 . S
N806 C798 1.356 . S
N806 H812 0.984 . S
N806 H813 0.984 . S
N807 C800 1.356 . S
N807 H810 0.984 . S
N807 H811 0.985 . S
H808 N803 0.984 . S
H809 N803 0.985 . S
H810 N807 0.984 . S
H811 N807 0.985 . S
H812 N806 0.984 . S
H813 N806 0.984 . S
H814 N802 0.984 . S
H815 N802 0.985 . S
C816 C817 1.363 . S
C816 C822 1.379 . S
C816 N824 1.356 . S
C817 C816 1.363 . S
C817 C823 1.363 . S
C818 C819 1.363 . S
C818 C823 1.379 . S
C818 N825 1.356 . S
C819 C818 1.363 . S
C819 C822 1.363 . S
N820 C822 1.356 . S
N820 H832 0.984 . S
N820 H833 0.985 . S
N821 C823 1.356 . S
N821 H826 0.984 . S
N821 H827 0.985 . S
C822 C816 1.379 . S
C822 C819 1.363 . S
C822 N820 1.356 . S
C823 C817 1.363 . S
C823 C818 1.379 . S
C823 N821 1.356 . S
N824 C816 1.356 . S
N824 H830 0.984 . S
N824 H831 0.984 . S
N825 C818 1.356 . S
N825 H828 0.984 . S
N825 H829 0.985 . S
H826 N821 0.984 . S
H827 N821 0.985 . S
H828 N825 0.984 . S
H829 N825 0.985 . S
H830 N824 0.984 . S
H831 N824 0.984 . S
H832 N820 0.984 . S
H833 N820 0.985 . S
C834 C835 1.363 . S
C834 C840 1.379 . S
C834 N842 1.356 . S
C835 C834 1.363 . S
C835 C841 1.363 . S
C836 C837 1.363 . S
C836 C841 1.379 . S
C836 N843 1.356 . S
C837 C836 1.363 . S
C837 C840 1.363 . S
N838 C840 1.356 . S
N838 H850 0.984 . S
N838 H851 0.985 . S
N839 C841 1.356 . S
N839 H844 0.984 . S
N839 H845 0.985 . S
C840 C834 1.379 . S
C840 C837 1.363 . S
C840 N838 1.356 . S
C841 C835 1.363 . S
C841 C836 1.379 . S
C841 N839 1.356 . S
N842 C834 1.356 . S
N842 H848 0.984 . S
N842 H849 0.984 . S
N843 C836 1.356 . S
N843 H846 0.984 . S
N843 H847 0.985 . S
H844 N839 0.984 . S
H845 N839 0.985 . S
H846 N843 0.984 . S
H847 N843 0.985 . S
H848 N842 0.984 . S
H849 N842 0.984 . S
H850 N838 0.984 . S
H851 N838 0.985 . S
C852 C853 1.363 . S
C852 C858 1.379 . S
C852 N860 1.356 . S
C853 C852 1.363 . S
C853 C859 1.363 . S
C854 C855 1.363 . S
C854 C859 1.379 . S
C854 N861 1.356 . S
C855 C854 1.363 . S
C855 C858 1.363 . S
N856 C858 1.356 . S
N856 H868 0.984 . S
N856 H869 0.985 . S
N857 C859 1.356 . S
N857 H862 0.984 1_556 S
N857 H863 0.985 . S
C858 C852 1.379 . S
C858 C855 1.363 . S
C858 N856 1.356 . S
C859 C853 1.363 . S
C859 C854 1.379 . S
C859 N857 1.356 . S
N860 C852 1.356 . S
N860 H866 0.984 . S
N860 H867 0.984 . S
N861 C854 1.356 . S
N861 H864 0.984 . S
N861 H865 0.985 . S
H862 N857 0.984 1_554 S
H863 N857 0.985 . S
H864 N861 0.984 . S
H865 N861 0.985 . S
H866 N860 0.984 . S
H867 N860 0.984 . S
H868 N856 0.984 . S
H869 N856 0.985 . S
C870 C871 1.363 . S
C870 C876 1.379 . S
C870 N878 1.356 . S
C871 C870 1.363 . S
C871 C877 1.363 . S
C872 C873 1.363 . S
C872 C877 1.379 . S
C872 N879 1.356 . S
C873 C872 1.363 . S
C873 C876 1.363 . S
N874 C876 1.356 . S
N874 H886 0.989 . S
N874 H887 0.985 1_554 S
N875 C877 1.356 . S
N875 H880 0.984 . S
N875 H881 0.985 . S
C876 C870 1.379 . S
C876 C873 1.363 . S
C876 N874 1.356 . S
C877 C871 1.363 . S
C877 C872 1.379 . S
C877 N875 1.356 . S
N878 C870 1.356 . S
N878 H884 0.984 . S
N878 H885 0.984 . S
N879 C872 1.356 . S
N879 H882 0.984 . S
N879 H883 0.985 . S
H880 N875 0.984 . S
H881 N875 0.985 . S
H882 N879 0.984 . S
H883 N879 0.985 . S
H884 N878 0.984 . S
H885 N878 0.984 . S
H886 N874 0.989 . S
H887 N874 0.985 1_556 S
C888 C889 1.363 . S
C888 C894 1.379 . S
C888 N896 1.356 . S
C889 C888 1.363 . S
C889 C895 1.363 . S
C890 C891 1.363 . S
C890 C895 1.379 . S
C890 N897 1.356 . S
C891 C890 1.363 . S
C891 C894 1.363 . S
N892 C894 1.356 . S
N892 H904 0.984 . S
N892 H905 0.985 . S
N893 C895 1.356 . S
N893 H898 0.984 . S
N893 H899 0.985 . S
C894 C888 1.379 . S
C894 C891 1.363 . S
C894 N892 1.356 . S
C895 C889 1.363 . S
C895 C890 1.379 . S
C895 N893 1.356 . S
N896 C888 1.356 . S
N896 H902 0.984 . S
N896 H903 0.984 . S
N897 C890 1.356 . S
N897 H900 0.984 . S
N897 H901 0.985 . S
H898 N893 0.984 . S
H899 N893 0.985 . S
H900 N897 0.984 . S
H901 N897 0.985 . S
H902 N896 0.984 . S
H903 N896 0.984 . S
H904 N892 0.984 . S
H905 N892 0.985 . S
C906 C907 1.363 . S
C906 C912 1.379 . S
C906 N914 1.356 . S
C907 C906 1.363 . S
C907 C913 1.363 . S
C908 C909 1.363 . S
C908 C913 1.379 . S
C908 N915 1.356 . S
C909 C908 1.363 . S
C909 C912 1.363 . S
N910 C912 1.356 . S
N910 H922 0.984 . S
N910 H923 0.985 . S
N911 C913 1.356 . S
N911 H916 0.984 . S
N911 H917 0.985 . S
C912 C906 1.379 . S
C912 C909 1.363 . S
C912 N910 1.356 . S
C913 C907 1.363 . S
C913 C908 1.379 . S
C913 N911 1.356 . S
N914 C906 1.356 . S
N914 H920 0.984 . S
N914 H921 0.984 . S
N915 C908 1.356 . S
N915 H918 0.984 . S
N915 H919 0.985 . S
H916 N911 0.984 . S
H917 N911 0.985 . S
H918 N915 0.984 . S
H919 N915 0.985 . S
H920 N914 0.984 . S
H921 N914 0.984 . S
H922 N910 0.984 . S
H923 N910 0.985 . S
C924 C925 1.363 . S
C924 C930 1.379 1_655 S
C924 N932 1.356 . S
C925 C924 1.363 . S
C925 C931 1.363 . S
C926 C927 1.363 . S
C926 C931 1.379 1_455 S
C926 N933 1.356 . S
C927 C926 1.363 . S
C927 C930 1.363 . S
N928 C930 1.356 . S
N928 H940 0.974 1_455 S
N928 H941 0.985 . S
N929 C931 1.356 . S
N929 H934 0.984 . S
N929 H935 0.967 1_655 S
C930 C924 1.379 1_455 S
C930 C927 1.363 . S
C930 N928 1.356 . S
C931 C925 1.363 . S
C931 C926 1.379 1_655 S
C931 N929 1.356 . S
N932 C924 1.356 . S
N932 H938 0.984 . S
N932 H939 0.984 . S
N933 C926 1.356 . S
N933 H936 0.984 . S
N933 H937 0.985 . S
H934 N929 0.984 . S
H935 N929 0.967 1_455 S
H936 N933 0.984 . S
H937 N933 0.985 . S
H938 N932 0.984 . S
H939 N932 0.984 . S
H940 N928 0.974 1_655 S
H941 N928 0.985 . S
C942 C943 1.363 . S
C942 C948 1.379 1_565 S
C942 N950 1.356 . S
C943 C942 1.363 . S
C943 C949 1.363 . S
C944 C945 1.363 . S
C944 C949 1.379 1_545 S
C944 N951 1.356 . S
C945 C944 1.363 . S
C945 C948 1.363 . S
N946 C948 1.356 . S
N946 H958 0.984 . S
N946 H959 0.985 . S
N947 C949 1.356 . S
N947 H952 0.984 . S
N947 H953 0.985 . S
C948 C942 1.379 1_545 S
C948 C945 1.363 . S
C948 N946 1.356 . S
C949 C943 1.363 . S
C949 C944 1.379 1_565 S
C949 N947 1.356 . S
N950 C942 1.356 . S
N950 H956 0.984 . S
N950 H957 0.984 . S
N951 C944 1.356 . S
N951 H954 0.984 . S
N951 H955 0.985 . S
H952 N947 0.984 . S
H953 N947 0.985 . S
H954 N951 0.984 . S
H955 N951 0.985 . S
H956 N950 0.984 . S
H957 N950 0.984 . S
H958 N946 0.984 . S
H959 N946 0.985 . S
C960 C961 1.363 . S
C960 C966 1.379 . S
C960 N968 1.356 . S
C961 C960 1.363 . S
C961 C967 1.363 . S
C962 C963 1.363 . S
C962 C967 1.379 . S
C962 N969 1.356 . S
C963 C962 1.363 . S
C963 C966 1.363 . S
N964 C966 1.356 . S
N964 H976 0.984 . S
N964 H977 0.985 . S
N965 C967 1.356 . S
N965 H970 0.984 . S
N965 H971 0.985 . S
C966 C960 1.379 . S
C966 C963 1.363 . S
C966 N964 1.356 . S
C967 C961 1.363 . S
C967 C962 1.379 . S
C967 N965 1.356 . S
N968 C960 1.356 . S
N968 H974 0.984 . S
N968 H975 0.984 . S
N969 C962 1.356 . S
N969 H972 0.984 . S
N969 H973 0.985 . S
H970 N965 0.984 . S
H971 N965 0.985 . S
H972 N969 0.984 . S
H973 N969 0.985 . S
H974 N968 0.984 . S
H975 N968 0.984 . S
H976 N964 0.984 . S
H977 N964 0.985 . S
C978 C979 1.363 . S
C978 C984 1.379 1_455 S
C978 N986 1.356 . S
C979 C978 1.363 . S
C979 C985 1.363 . S
C980 C981 1.363 . S
C980 C985 1.379 1_655 S
C980 N987 1.356 . S
C981 C980 1.363 . S
C981 C984 1.363 . S
N982 C984 1.356 . S
N982 H994 0.979 1_655 S
N982 H995 0.985 . S
N983 C985 1.356 . S
N983 H988 0.984 . S
N983 H989 0.972 1_455 S
C984 C978 1.379 1_655 S
C984 C981 1.363 . S
C984 N982 1.356 . S
C985 C979 1.363 . S
C985 C980 1.379 1_455 S
C985 N983 1.356 . S
N986 C978 1.356 . S
N986 H992 0.984 . S
N986 H993 0.984 . S
N987 C980 1.356 . S
N987 H990 0.984 . S
N987 H991 0.985 . S
H988 N983 0.984 . S
H989 N983 0.972 1_655 S
H990 N987 0.984 . S
H991 N987 0.985 . S
H992 N986 0.984 . S
H993 N986 0.984 . S
H994 N982 0.979 1_455 S
H995 N982 0.985 . S
C996 C997 1.363 . S
C996 C1002 1.379 1_545 S
C996 N1004 1.356 . S
C997 C996 1.363 . S
C997 C1003 1.363 1_556 S
C998 C999 1.363 . S
C998 C1003 1.379 1_565 S
C998 N1005 1.356 . S
C999 C998 1.363 . S
C999 C1002 1.363 1_554 S
N1000 C1002 1.356 . S
N1000 H1012 0.984 . S
N1000 H1013 0.985 . S
N1001 C1003 1.356 . S
N1001 H1006 0.984 . S
N1001 H1007 0.985 . S
C1002 C996 1.379 1_565 S
C1002 C999 1.363 1_556 S
C1002 N1000 1.356 . S
C1003 C997 1.363 1_554 S
C1003 C998 1.379 1_545 S
C1003 N1001 1.356 . S
N1004 C996 1.356 . S
N1004 H1010 0.984 . S
N1004 H1011 0.984 . S
N1005 C998 1.356 . S
N1005 H1008 0.984 . S
N1005 H1009 0.985 . S
H1006 N1001 0.984 . S
H1007 N1001 0.985 . S
H1008 N1005 0.984 . S
H1009 N1005 0.985 . S
H1010 N1004 0.984 . S
H1011 N1004 0.984 . S
H1012 N1000 0.984 . S
H1013 N1000 0.985 . S
C1014 C1015 1.363 . S
C1014 C1020 1.379 . S
C1014 N1022 1.356 . S
C1015 C1014 1.363 . S
C1015 C1021 1.363 . S
C1016 C1017 1.363 . S
C1016 C1021 1.379 . S
C1016 N1023 1.356 . S
C1017 C1016 1.363 . S
C1017 C1020 1.363 . S
N1018 C1020 1.356 . S
N1018 H1030 0.984 . S
N1018 H1031 0.985 . S
N1019 C1021 1.356 . S
N1019 H1024 0.984 . S
N1019 H1025 0.985 . S
C1020 C1014 1.379 . S
C1020 C1017 1.363 . S
C1020 N1018 1.356 . S
C1021 C1015 1.363 . S
C1021 C1016 1.379 . S
C1021 N1019 1.356 . S
N1022 C1014 1.356 . S
N1022 H1028 0.984 . S
N1022 H1029 0.984 . S
N1023 C1016 1.356 . S
N1023 H1026 0.984 . S
N1023 H1027 0.985 . S
H1024 N1019 0.984 . S
H1025 N1019 0.985 . S
H1026 N1023 0.984 . S
H1027 N1023 0.985 . S
H1028 N1022 0.984 . S
H1029 N1022 0.984 . S
H1030 N1018 0.984 . S
H1031 N1018 0.985 . S
C1032 C1033 1.363 . S
C1032 C1038 1.379 . S
C1032 N1040 1.356 . S
C1033 C1032 1.363 . S
C1033 C1039 1.363 . S
C1034 C1035 1.363 . S
C1034 C1039 1.379 . S
C1034 N1041 1.356 . S
C1035 C1034 1.363 . S
C1035 C1038 1.363 . S
N1036 C1038 1.356 . S
N1036 H1048 0.984 . S
N1036 H1049 0.985 . S
N1037 C1039 1.356 . S
N1037 H1042 0.984 . S
N1037 H1043 0.985 . S
C1038 C1032 1.379 . S
C1038 C1035 1.363 . S
C1038 N1036 1.356 . S
C1039 C1033 1.363 . S
C1039 C1034 1.379 . S
C1039 N1037 1.356 . S
N1040 C1032 1.356 . S
N1040 H1046 0.984 . S
N1040 H1047 0.984 . S
N1041 C1034 1.356 . S
N1041 H1044 0.984 . S
N1041 H1045 0.985 . S
H1042 N1037 0.984 . S
H1043 N1037 0.985 . S
H1044 N1041 0.984 . S
H1045 N1041 0.985 . S
H1046 N1040 0.984 . S
H1047 N1040 0.984 . S
H1048 N1036 0.984 . S
H1049 N1036 0.985 . S
C1050 C1051 1.363 . S
C1050 C1056 1.379 . S
C1050 N1058 1.356 . S
C1051 C1050 1.363 . S
C1051 C1057 1.363 . S
C1052 C1053 1.363 . S
C1052 C1057 1.379 . S
C1052 N1059 1.356 . S
C1053 C1052 1.363 . S
C1053 C1056 1.363 . S
N1054 C1056 1.356 . S
N1054 H1066 0.984 . S
N1054 H1067 0.985 . S
N1055 C1057 1.356 . S
N1055 H1060 0.984 . S
N1055 H1061 0.985 . S
C1056 C1050 1.379 . S
C1056 C1053 1.363 . S
C1056 N1054 1.356 . S
C1057 C1051 1.363 . S
C1057 C1052 1.379 . S
C1057 N1055 1.356 . S
N1058 C1050 1.356 . S
N1058 H1064 0.984 . S
N1058 H1065 0.984 . S
N1059 C1052 1.356 . S
N1059 H1062 0.984 . S
N1059 H1063 0.985 . S
H1060 N1055 0.984 . S
H1061 N1055 0.985 . S
H1062 N1059 0.984 . S
H1063 N1059 0.985 . S
H1064 N1058 0.984 . S
H1065 N1058 0.984 . S
H1066 N1054 0.984 . S
H1067 N1054 0.985 . S
C1068 C1069 1.363 . S
C1068 C1074 1.379 . S
C1068 N1076 1.356 . S
C1069 C1068 1.363 . S
C1069 C1075 1.363 . S
C1070 C1071 1.363 . S
C1070 C1075 1.379 . S
C1070 N1077 1.356 . S
C1071 C1070 1.363 . S
C1071 C1074 1.363 . S
N1072 C1074 1.356 . S
N1072 H1084 0.984 . S
N1072 H1085 0.985 . S
N1073 C1075 1.356 . S
N1073 H1078 0.984 . S
N1073 H1079 0.985 . S
C1074 C1068 1.379 . S
C1074 C1071 1.363 . S
C1074 N1072 1.356 . S
C1075 C1069 1.363 . S
C1075 C1070 1.379 . S
C1075 N1073 1.356 . S
N1076 C1068 1.356 . S
N1076 H1082 0.984 . S
N1076 H1083 0.984 . S
N1077 C1070 1.356 . S
N1077 H1080 0.984 . S
N1077 H1081 0.985 . S
H1078 N1073 0.984 . S
H1079 N1073 0.985 . S
H1080 N1077 0.984 . S
H1081 N1077 0.985 . S
H1082 N1076 0.984 . S
H1083 N1076 0.984 . S
H1084 N1072 0.984 . S
H1085 N1072 0.985 . S
C1086 C1087 1.363 . S
C1086 C1092 1.379 . S
C1086 N1094 1.356 . S
C1087 C1086 1.363 . S
C1087 C1093 1.363 . S
C1088 C1089 1.363 . S
C1088 C1093 1.379 . S
C1088 N1095 1.356 . S
C1089 C1088 1.363 . S
C1089 C1092 1.363 . S
N1090 C1092 1.356 . S
N1090 H1102 0.984 . S
N1090 H1103 0.985 . S
N1091 C1093 1.356 . S
N1091 H1096 0.984 . S
N1091 H1097 0.985 . S
C1092 C1086 1.379 . S
C1092 C1089 1.363 . S
C1092 N1090 1.356 . S
C1093 C1087 1.363 . S
C1093 C1088 1.379 . S
C1093 N1091 1.356 . S
N1094 C1086 1.356 . S
N1094 H1100 0.984 . S
N1094 H1101 0.984 . S
N1095 C1088 1.356 . S
N1095 H1098 0.984 . S
N1095 H1099 0.985 . S
H1096 N1091 0.984 . S
H1097 N1091 0.985 . S
H1098 N1095 0.984 . S
H1099 N1095 0.985 . S
H1100 N1094 0.984 . S
H1101 N1094 0.984 . S
H1102 N1090 0.984 . S
H1103 N1090 0.985 . S
C1104 C1105 1.363 . S
C1104 C1110 1.379 . S
C1104 N1112 1.356 . S
C1105 C1104 1.363 . S
C1105 C1111 1.363 . S
C1106 C1107 1.363 . S
C1106 C1111 1.379 . S
C1106 N1113 1.356 . S
C1107 C1106 1.363 . S
C1107 C1110 1.363 . S
N1108 C1110 1.356 . S
N1108 H1120 0.984 . S
N1108 H1121 0.985 . S
N1109 C1111 1.356 . S
N1109 H1114 0.984 . S
N1109 H1115 0.985 . S
C1110 C1104 1.379 . S
C1110 C1107 1.363 . S
C1110 N1108 1.356 . S
C1111 C1105 1.363 . S
C1111 C1106 1.379 . S
C1111 N1109 1.356 . S
N1112 C1104 1.356 . S
N1112 H1118 0.984 . S
N1112 H1119 0.984 . S
N1113 C1106 1.356 . S
N1113 H1116 0.984 . S
N1113 H1117 0.985 . S
H1114 N1109 0.984 . S
H1115 N1109 0.985 . S
H1116 N1113 0.984 . S
H1117 N1113 0.985 . S
H1118 N1112 0.984 . S
H1119 N1112 0.984 . S
H1120 N1108 0.984 . S
H1121 N1108 0.985 . S
C1122 C1123 1.363 . S
C1122 C1128 1.379 . S
C1122 N1130 1.356 . S
C1123 C1122 1.363 . S
C1123 C1129 1.363 . S
C1124 C1125 1.363 . S
C1124 C1129 1.379 . S
C1124 N1131 1.330 1_554 S
C1125 C1124 1.363 . S
C1125 C1128 1.363 . S
N1126 C1128 1.356 . S
N1126 H1138 0.984 . S
N1126 H1139 0.985 . S
N1127 C1129 1.356 . S
N1127 H1132 0.984 . S
N1127 H1133 0.985 . S
C1128 C1122 1.379 . S
C1128 C1125 1.363 . S
C1128 N1126 1.356 . S
C1129 C1123 1.363 . S
C1129 C1124 1.379 . S
C1129 N1127 1.356 . S
N1130 C1122 1.356 . S
N1130 H1136 0.984 . S
N1130 H1137 0.984 . S
N1131 C1124 1.330 1_556 S
N1131 H1134 1.000 . S
N1131 H1135 0.996 . S
H1132 N1127 0.984 . S
H1133 N1127 0.985 . S
H1134 N1131 1.000 . S
H1135 N1131 0.996 . S
H1136 N1130 0.984 . S
H1137 N1130 0.984 . S
H1138 N1126 0.984 . S
H1139 N1126 0.985 . S
C709 C33 1.174 . S
C711 C406 1.169 . S
C727 C111 1.169 . S
C729 C446 1.174 . S
C745 C524 1.169 . S
C747 C170 1.169 . S
C763 C210 1.174 . S
C765 C583 1.169 . S
C781 C288 1.169 . S
C783 C623 1.173 . S
C799 C701 1.169 . S
C801 C347 1.169 . S
C817 C505 1.714 . S
C819 C52 1.736 . S
C835 C92 1.714 . S
C837 C564 1.714 . S
C853 C642 1.735 1_556 S
C855 C151 1.714 . S
C871 C682 1.714 . S
C873 C229 1.735 1_554 S
C889 C269 1.714 . S
C891 C387 1.714 . S
C907 C328 1.714 . S
C909 C465 1.735 . S
C925 C654 1.479 . S
C927 C3 1.481 . S
C943 C359 1.477 . S
C945 C64 1.477 . S
C961 C123 1.478 . S
C963 C416 1.480 . S
C979 C477 1.479 . S
C981 C180 1.481 . S
C997 C536 1.477 . S
C999 C241 1.477 . S
C1015 C593 1.481 . S
C1017 C300 1.478 . S
C1033 C5 1.343 . S
C1035 C595 1.343 . S
C1051 C652 1.328 . S
C1053 C62 1.329 . S
C1069 C121 1.328 . S
C1071 C357 1.329 . S
C1087 C182 1.343 . S
C1089 C418 1.343 . S
C1105 C239 1.329 . S
C1107 C475 1.328 . S
C1123 C298 1.328 . S
C1125 C534 1.329 . S
