# Generated by pormake.
# Topology snz, (6)-cn, num edge types: 1
# Building blocks:
#     Node 0, Type 0, BuildingBlock: BETDEL_clean_sbu_0, # of connection points: 6
#     Node 1, Type 0, BuildingBlock: BETDEL_clean_sbu_0, # of connection points: 6
#     Node 2, Type 0, BuildingBlock: BETDEL_clean_sbu_0, # of connection points: 6
#     Node 3, Type 0, BuildingBlock: BETDEL_clean_sbu_0, # of connection points: 6
#     Node 4, Type 0, BuildingBlock: BETDEL_clean_sbu_0, # of connection points: 6
#     Node 5, Type 0, BuildingBlock: BETDEL_clean_sbu_0, # of connection points: 6
#     Node 6, Type 0, BuildingBlock: BETDEL_clean_sbu_0, # of connection points: 6
#     Node 7, Type 0, BuildingBlock: BETDEL_clean_sbu_0, # of connection points: 6
#     Node 8, Type 0, BuildingBlock: BETDEL_clean_sbu_0, # of connection points: 6
#     Edge 9, Type (0, 0), BuildingBlock: ZUJKAS_clean_linker_0, # of connection points: 2
#     Edge 10, Type (0, 0), BuildingBlock: ZUJKAS_clean_linker_0, # of connection points: 2
#     Edge 11, Type (0, 0), BuildingBlock: ZUJKAS_clean_linker_0, # of connection points: 2
#     Edge 12, Type (0, 0), BuildingBlock: ZUJKAS_clean_linker_0, # of connection points: 2
#     Edge 13, Type (0, 0), BuildingBlock: ZUJKAS_clean_linker_0, # of connection points: 2
#     Edge 14, Type (0, 0), BuildingBlock: ZUJKAS_clean_linker_0, # of connection points: 2
#     Edge 15, Type (0, 0), BuildingBlock: ZUJKAS_clean_linker_0, # of connection points: 2
#     Edge 16, Type (0, 0), BuildingBlock: ZUJKAS_clean_linker_0, # of connection points: 2
#     Edge 17, Type (0, 0), BuildingBlock: ZUJKAS_clean_linker_0, # of connection points: 2
#     Edge 18, Type (0, 0), BuildingBlock: ZUJKAS_clean_linker_0, # of connection points: 2
#     Edge 19, Type (0, 0), BuildingBlock: ZUJKAS_clean_linker_0, # of connection points: 2
#     Edge 20, Type (0, 0), BuildingBlock: ZUJKAS_clean_linker_0, # of connection points: 2
#     Edge 21, Type (0, 0), BuildingBlock: ZUJKAS_clean_linker_0, # of connection points: 2
#     Edge 22, Type (0, 0), BuildingBlock: ZUJKAS_clean_linker_0, # of connection points: 2
#     Edge 23, Type (0, 0), BuildingBlock: ZUJKAS_clean_linker_0, # of connection points: 2
#     Edge 24, Type (0, 0), BuildingBlock: ZUJKAS_clean_linker_0, # of connection points: 2
#     Edge 25, Type (0, 0), BuildingBlock: ZUJKAS_clean_linker_0, # of connection points: 2
#     Edge 26, Type (0, 0), BuildingBlock: ZUJKAS_clean_linker_0, # of connection points: 2
#     Edge 27, Type (0, 0), BuildingBlock: ZUJKAS_clean_linker_0, # of connection points: 2
#     Edge 28, Type (0, 0), BuildingBlock: ZUJKAS_clean_linker_0, # of connection points: 2
#     Edge 29, Type (0, 0), BuildingBlock: ZUJKAS_clean_linker_0, # of connection points: 2
#     Edge 30, Type (0, 0), BuildingBlock: ZUJKAS_clean_linker_0, # of connection points: 2
#     Edge 31, Type (0, 0), BuildingBlock: ZUJKAS_clean_linker_0, # of connection points: 2
#     Edge 32, Type (0, 0), BuildingBlock: ZUJKAS_clean_linker_0, # of connection points: 2
#     Edge 33, Type (0, 0), BuildingBlock: ZUJKAS_clean_linker_0, # of connection points: 2
#     Edge 34, Type (0, 0), BuildingBlock: ZUJKAS_clean_linker_0, # of connection points: 2
#     Edge 35, Type (0, 0), BuildingBlock: ZUJKAS_clean_linker_0, # of connection points: 2
# Relax obj value: 0.167
# Max RMSD: 0.226
# Mean RMSD: 0.174
data_MOF--net-snz--node1-BETDEL_clean_sbu_0--edge1-ZUJKAS_clean_linker_0
_symmetry_space_group_name_H-M    P1
_symmetry_Int_Tables_number       1
_symmetry_cell_setting            triclinic
loop_
_symmetry_equiv_pos_as_xyz
'x, y, z'
_cell_length_a     66.611045
_cell_length_b     68.013745
_cell_length_c     19.002711
_cell_angle_alpha  92.054373
_cell_angle_beta   92.423314
_cell_angle_gamma 120.12728
loop_
_atom_site_label
_atom_site_type_symbol
_atom_site_fract_x
_atom_site_fract_y
_atom_site_fract_z
_atom_type_partial_charge
Dy0 Dy 0.06808 0.4784 0.03281 0.0
C1 C 1.00232 0.50379 0.94048 0.0
C2 C 0.09605 0.46363 0.09051 0.0
Dy3 Dy 0.02898 0.48754 0.99844 0.0
O4 O 0.10092 0.47654 0.03779 0.0
O5 O 0.07595 0.45887 0.11195 0.0
O6 O 0.08307 0.49103 0.92874 0.0
O7 O 0.04709 0.4747 0.93576 0.0
C8 C 0.06327 0.48543 0.89582 0.0
C9 C 0.03362 0.47985 0.13476 0.0
O10 O 0.01014 0.45038 0.96524 0.0
O11 O 0.03664 0.44291 0.02392 0.0
O12 O 1.00033 0.49599 0.00273 0.0
O13 O 0.01856 0.50232 0.9096 0.0
O14 O 0.01373 0.47366 0.10112 0.0
O15 O 0.04991 0.49113 0.09558 0.0
O16 O 0.08635 0.51541 0.06792 0.0
O17 O 0.06055 0.52278 0.00561 0.0
C18 C 0.01616 0.43591 0.98964 0.0
C19 C 0.08077 0.52993 0.04154 0.0
Dy20 Dy 0.5864 0.52659 0.05765 0.0
C21 C 0.56667 0.43784 0.96517 0.0
C22 C 0.59935 0.56882 0.11705 0.0
Dy23 Dy 0.58091 0.48025 0.02604 0.0
O24 O 0.58661 0.55983 0.05842 0.0
O25 O 0.60489 0.55469 0.14338 0.0
O26 O 0.57094 0.52555 0.94912 0.0
O27 O 0.59052 0.5096 0.96383 0.0
C28 C 0.57792 0.51273 0.91953 0.0
C29 C 0.58991 0.49447 0.16377 0.0
O30 O 0.61849 0.50125 0.00477 0.0
O31 O 0.6238 0.53505 0.05687 0.0
O32 O 0.57582 0.4449 0.02928 0.0
O33 O 0.56572 0.45406 0.93414 0.0
O34 O 0.59725 0.48198 0.13373 0.0
O35 O 0.57691 0.49727 0.11998 0.0
O36 O 0.54907 0.50551 0.08053 0.0
O37 O 0.54358 0.47199 0.02604 0.0
C38 C 0.63224 0.5228 0.02851 0.0
C39 C 0.53525 0.48417 0.05537 0.0
Dy40 Dy 0.54382 0.00301 0.0905 0.0
C41 C 0.63651 0.06832 0.03172 0.0
C42 C 0.50063 0.97585 0.13724 0.0
Dy43 Dy 0.5926 0.04217 0.07555 0.0
O44 O 0.50814 0.9716 0.07998 0.0
O45 O 0.51675 0.99485 0.16907 0.0
O46 O 0.54261 0.98842 0.98129 0.0
O47 O 0.56168 0.02374 0.00318 0.0
C48 C 0.55686 0.00791 0.95702 0.0
C49 C 0.5791 0.03718 0.20846 0.0
O50 O 0.57327 0.06023 0.0479 0.0
O51 O 0.53828 0.0331 0.08903 0.0
O52 O 0.62991 0.07078 0.09317 0.0
O53 O 0.61898 0.05198 0.99389 0.0
O54 O 0.59284 0.05679 0.18381 0.0
O55 O 0.57475 0.02138 0.16269 0.0
O56 O 0.56307 0.98497 0.11724 0.0
O57 O 0.59774 0.01181 0.07427 0.0
C58 C 0.55175 0.05348 0.06512 0.0
C59 C 0.58427 0.99144 0.09806 0.0
Dy60 Dy 0.77035 0.84847 0.37508 0.0
C61 C 0.70237 0.87301 0.29589 0.0
C62 C 0.79745 0.83247 0.4315 0.0
Dy63 Dy 0.73111 0.85778 0.34373 0.0
O64 O 0.79969 0.84101 0.37034 0.0
O65 O 0.78072 0.83308 0.4622 0.0
O66 O 0.78549 0.86247 0.27255 0.0
O67 O 0.74932 0.84548 0.27897 0.0
C68 C 0.76559 0.85667 0.23961 0.0
C69 C 0.73594 0.84908 0.47869 0.0
O70 O 0.71086 0.82022 0.31766 0.0
O71 O 0.73901 0.81315 0.36613 0.0
O72 O 0.7081 0.86047 0.25844 0.0
O73 O 0.71223 0.87708 0.35917 0.0
O74 O 0.71598 0.84291 0.44558 0.0
O75 O 0.75211 0.86068 0.43959 0.0
O76 O 0.78842 0.88541 0.40936 0.0
O77 O 0.76347 0.89229 0.34012 0.0
C78 C 0.71774 0.80596 0.33766 0.0
C79 C 0.78314 0.89968 0.37953 0.0
Dy80 Dy 0.21742 0.8565 0.34445 0.0
C81 C 0.19825 0.76738 0.25739 0.0
C82 C 0.23224 0.89943 0.40208 0.0
Dy83 Dy 0.21146 0.81003 0.31362 0.0
O84 O 0.22306 0.89197 0.33821 0.0
O85 O 0.23284 0.88329 0.43478 0.0
O86 O 0.20097 0.85471 0.23697 0.0
O87 O 0.22111 0.83918 0.25041 0.0
C88 C 0.20817 0.84213 0.20684 0.0
C89 C 0.22028 0.82429 0.45163 0.0
O90 O 0.24845 0.83107 0.28713 0.0
O91 O 0.25456 0.86403 0.34688 0.0
O92 O 0.21205 0.77721 0.3137 0.0
O93 O 0.19181 0.78091 0.2315 0.0
O94 O 0.22722 0.81143 0.42219 0.0
O95 O 0.20759 0.82724 0.40728 0.0
O96 O 0.17989 0.8358 0.36695 0.0
O97 O 0.1742 0.80199 0.31378 0.0
C98 C 0.26263 0.85203 0.31477 0.0
C99 C 0.16595 0.81433 0.34278 0.0
Dy100 Dy 0.20567 0.29257 0.29346 0.0
C101 C 0.29843 0.36105 0.2425 0.0
C102 C 0.1615 0.26532 0.33408 0.0
Dy103 Dy 0.25446 0.33213 0.28112 0.0
O104 O 0.16844 0.26412 0.27206 0.0
O105 O 0.17883 0.281 0.37427 0.0
O106 O 0.20607 0.27801 0.18595 0.0
O107 O 0.22399 0.31345 0.20705 0.0
C108 C 0.21983 0.29764 0.16148 0.0
C109 C 0.23994 0.32713 0.41277 0.0
O110 O 0.23579 0.35106 0.26146 0.0
O111 O 0.2001 0.32269 0.29483 0.0
O112 O 0.29327 0.35332 0.30458 0.0
O113 O 0.27955 0.35312 0.20153 0.0
O114 O 0.2536 0.34677 0.38811 0.0
O115 O 0.23607 0.31134 0.36754 0.0
O116 O 0.22558 0.27516 0.32118 0.0
O117 O 0.25905 0.30155 0.27143 0.0
C118 C 0.21399 0.3437 0.27607 0.0
C119 C 0.2466 0.28173 0.29973 0.0
Dy120 Dy 0.40977 0.16487 0.61053 0.0
C121 C 0.37816 0.18652 0.86144 0.0
C122 C 0.41464 0.14272 0.49618 0.0
Dy123 Dy 0.39254 0.17337 0.74593 0.0
O124 O 0.42697 0.16454 0.51204 0.0
O125 O 0.40013 0.13313 0.54427 0.0
O126 O 0.4319 0.20238 0.59829 0.0
O127 O 0.42599 0.19003 0.69993 0.0
C128 C 0.43466 0.20772 0.66585 0.0
C129 C 0.36839 0.13066 0.68803 0.0
O130 O 0.38291 0.19223 0.6692 0.0
O131 O 0.38328 0.173 0.56682 0.0
O132 O 0.36469 0.17121 0.81241 0.0
O133 O 0.39968 0.19517 0.84577 0.0
O134 O 0.37235 0.13549 0.7556 0.0
O135 O 0.37638 0.14865 0.65587 0.0
O136 O 0.42508 0.15111 0.68854 0.0
O137 O 0.4178 0.16415 0.7936 0.0
C138 C 0.37762 0.1867 0.60059 0.0
C139 C 0.42721 0.15394 0.75846 0.0
Dy140 Dy 0.91451 0.17009 0.74202 0.0
C141 C 0.8588 0.15881 0.49258 0.0
C142 C 0.94057 0.18129 0.86655 0.0
Dy143 Dy 0.88384 0.16741 0.6182 0.0
O144 O 0.92951 0.16106 0.8347 0.0
O145 O 0.93712 0.19523 0.83025 0.0
O146 O 0.91873 0.14251 0.68881 0.0
O147 O 0.88687 0.14188 0.67545 0.0
C148 C 0.89803 0.13233 0.65696 0.0
C149 C 0.90051 0.20508 0.70404 0.0
O150 O 0.85624 0.14892 0.69115 0.0
O151 O 0.88097 0.1615 0.79263 0.0
O152 O 0.86872 0.17804 0.53018 0.0
O153 O 0.86262 0.14429 0.52421 0.0
O154 O 0.87965 0.19481 0.67345 0.0
O155 O 0.91153 0.19553 0.68439 0.0
O156 O 0.942 0.18763 0.66813 0.0
O157 O 0.91717 0.17558 0.567 0.0
C158 C 0.8597 0.15154 0.76067 0.0
C159 C 0.93844 0.18509 0.59869 0.0
Dy160 Dy 0.88587 0.65768 0.61557 0.0
C161 C 0.94107 0.69116 0.87719 0.0
C162 C 0.85669 0.64764 0.49811 0.0
Dy163 Dy 0.91289 0.67788 0.7559 0.0
O164 O 0.86579 0.6356 0.51853 0.0
O165 O 0.8635 0.66504 0.54271 0.0
O166 O 0.90261 0.63641 0.60192 0.0
O167 O 0.89583 0.64397 0.70365 0.0
C168 C 0.90529 0.63495 0.66934 0.0
C169 C 0.89311 0.70018 0.70057 0.0
O170 O 0.94172 0.68815 0.68273 0.0
O171 O 0.92044 0.68212 0.5764 0.0
O172 O 0.93557 0.70401 0.84211 0.0
O173 O 0.93153 0.67114 0.84425 0.0
O174 O 0.89492 0.69814 0.76786 0.0
O175 O 0.90311 0.69154 0.66749 0.0
O176 O 0.85697 0.64522 0.68919 0.0
O177 O 0.87842 0.65398 0.79671 0.0
C178 C 0.9406 0.69023 0.61373 0.0
C179 C 0.85823 0.64439 0.75879 0.0
H180 H 0.09669 0.50403 0.8014 0.0
H181 H 0.09131 0.50319 0.67275 0.0
H182 H 0.01687 0.46618 0.68548 0.0
H183 H 0.02219 0.46725 0.81436 0.0
H184 H 0.06964 0.46618 0.57677 0.0
H185 H 0.02541 0.51673 0.56094 0.0
H186 H 0.04021 0.51579 0.64142 0.0
H187 H 0.01149 0.49273 0.61407 0.0
C188 C 0.07917 0.49588 0.77684 0.0
C189 C 0.05987 0.48578 0.81813 0.0
C190 C 0.07611 0.49537 0.7032 0.0
C191 C 0.05369 0.48486 0.66909 0.0
C192 C 0.03436 0.47481 0.71037 0.0
H193 H 0.99995 0.46091 0.22841 0.0
H194 H 0.00507 0.46149 0.3571 0.0
C195 C 0.03742 0.47534 0.78411 0.0
C196 C 0.05063 0.48379 0.59035 0.0
H197 H 0.02659 0.49839 0.4538 0.0
C198 C 0.06032 0.47333 0.54992 0.0
C199 C 0.03841 0.49305 0.55501 0.0
C200 C 0.02846 0.5054 0.59495 0.0
C201 C 0.05781 0.47152 0.47558 0.0
C202 C 0.04562 0.48079 0.44023 0.0
C203 C 0.0359 0.49124 0.48066 0.0
C204 C 0.04269 0.47985 0.36148 0.0
C205 C 0.06777 0.45918 0.43566 0.0
C206 C 0.06211 0.49 0.3206 0.0
C207 C 0.05921 0.48962 0.24686 0.0
C208 C 0.03682 0.47924 0.21242 0.0
C209 C 0.01742 0.46901 0.25329 0.0
C210 C 0.02033 0.46938 0.32695 0.0
H211 H 0.07073 0.44778 0.46961 0.0
H212 H 0.05607 0.44886 0.38902 0.0
H213 H 0.08478 0.47185 0.4168 0.0
H214 H 0.07956 0.49859 0.34581 0.0
H215 H 0.07451 0.49776 0.21693 0.0
H216 H 0.59935 0.49371 0.8468 0.0
H217 H 0.60167 0.49092 0.71857 0.0
H218 H 0.55869 0.52113 0.68865 0.0
H219 H 0.55656 0.52421 0.8166 0.0
H220 H 0.56731 0.46886 0.60887 0.0
H221 H 0.61514 0.56213 0.58112 0.0
H222 H 0.61191 0.54996 0.66565 0.0
H223 H 0.58841 0.55202 0.62348 0.0
C224 C 0.59033 0.49968 0.81283 0.0
C225 C 0.57793 0.50936 0.84187 0.0
C226 C 0.59168 0.4981 0.73953 0.0
C227 C 0.58078 0.50627 0.69382 0.0
C228 C 0.56775 0.51524 0.72274 0.0
H229 H 0.5687 0.51352 0.23747 0.0
H230 H 0.56673 0.51634 0.36586 0.0
C231 C 0.5664 0.51684 0.79593 0.0
C232 C 0.58294 0.50534 0.61604 0.0
H233 H 0.60139 0.53847 0.47486 0.0
C234 C 0.57487 0.48409 0.57965 0.0
C235 C 0.59279 0.52521 0.57769 0.0
C236 C 0.60277 0.54865 0.61394 0.0
C237 C 0.57593 0.48212 0.50604 0.0
C238 C 0.58574 0.50199 0.46766 0.0
C239 C 0.59384 0.52324 0.50408 0.0
C240 C 0.58773 0.50105 0.38978 0.0
C241 C 0.56598 0.45868 0.46979 0.0
C242 C 0.6007 0.4921 0.36034 0.0
C243 C 0.60186 0.49049 0.28704 0.0
C244 C 0.59016 0.4979 0.24153 0.0
C245 C 0.57782 0.50757 0.2711 0.0
C246 C 0.57667 0.50918 0.34449 0.0
H247 H 0.55372 0.44519 0.50277 0.0
H248 H 0.55673 0.45733 0.41826 0.0
H249 H 0.58036 0.45539 0.45989 0.0
H250 H 0.60987 0.48624 0.39409 0.0
H251 H 0.61166 0.48313 0.26597 0.0
H252 H 0.54265 0.97519 0.84914 0.0
H253 H 0.54683 0.98043 0.72264 0.0
H254 H 0.58301 0.05331 0.76554 0.0
H255 H 0.57915 0.04814 0.89233 0.0
H256 H 0.52992 1.00106 0.63589 0.0
H257 H 0.62615 0.04579 0.63682 0.0
H258 H 0.61069 0.03118 0.71147 0.0
H259 H 0.61552 0.05911 0.69593 0.0
C260 C 0.55171 0.99234 0.83169 0.0
C261 C 0.56063 0.01125 0.8808 0.0
C262 C 0.55403 0.99532 0.75928 0.0
C263 C 0.56547 0.01727 0.73425 0.0
C264 C 0.57453 0.0362 0.78337 0.0
H265 H 0.59295 0.06998 0.31598 0.0
H266 H 0.58862 0.06482 0.44247 0.0
C267 C 0.57222 0.03323 0.85589 0.0
C268 C 0.56712 0.02023 0.65674 0.0
H269 H 0.60568 0.04425 0.52951 0.0
C270 C 0.5465 0.01042 0.61262 0.0
C271 C 0.58873 0.03247 0.62611 0.0
C272 C 0.61156 0.04257 0.66983 0.0
C273 C 0.54686 0.01283 0.53929 0.0
C274 C 0.56847 0.02508 0.50867 0.0
C275 C 0.5891 0.0349 0.55278 0.0
C276 C 0.57014 0.02798 0.43115 0.0
C277 C 0.52405 0.00271 0.49553 0.0
C278 C 0.5612 0.00902 0.3822 0.0
C279 C 0.56361 0.01194 0.30968 0.0
C280 C 0.57517 0.0339 0.28461 0.0
C281 C 0.58393 0.05284 0.33355 0.0
C282 C 0.58151 0.04991 0.40596 0.0
H283 H 0.50944 0.99947 0.52851 0.0
H284 H 0.52491 0.01411 0.4539 0.0
H285 H 0.52012 0.98619 0.4694 0.0
H286 H 0.55275 0.99193 0.40017 0.0
H287 H 0.55678 0.99701 0.27338 0.0
H288 H 0.77693 0.86803 0.56065 0.0
H289 H 0.78211 0.86921 0.68956 0.0
H290 H 0.70768 0.83023 0.70103 0.0
H291 H 0.70242 0.82925 0.57229 0.0
H292 H 0.72843 0.86772 0.79609 0.0
H293 H 0.7749 0.81935 0.81574 0.0
H294 H 0.78827 0.8432 0.76175 0.0
H295 H 0.75985 0.81957 0.73479 0.0
C296 C 0.76168 0.85951 0.59062 0.0
C297 C 0.73926 0.84851 0.55624 0.0
C298 C 0.76466 0.8601 0.66437 0.0
C299 C 0.74529 0.84957 0.70528 0.0
C300 C 0.7229 0.83843 0.67082 0.0
H301 H 0.7246 0.8378 0.15757 0.0
H302 H 0.71944 0.83648 0.02863 0.0
C303 C 0.71991 0.83783 0.59714 0.0
C304 C 0.74827 0.85089 0.78402 0.0
H305 H 0.77312 0.83772 0.92197 0.0
C306 C 0.73811 0.86105 0.8236 0.0
C307 C 0.76095 0.84227 0.82015 0.0
C308 C 0.77145 0.83029 0.78107 0.0
C309 C 0.74061 0.86319 0.89792 0.0
C310 C 0.75328 0.85456 0.93408 0.0
C311 C 0.76344 0.84439 0.89448 0.0
C312 C 0.75626 0.85589 0.01284 0.0
C313 C 0.73014 0.87521 0.93693 0.0
C314 C 0.77865 0.86692 0.0473 0.0
C315 C 0.78163 0.86758 0.12099 0.0
C316 C 0.76228 0.8571 0.16196 0.0
C317 C 0.73986 0.8462 0.12758 0.0
C318 C 0.73689 0.84552 0.0538 0.0
H319 H 0.72679 0.88622 0.90226 0.0
H320 H 0.71327 0.86233 0.95601 0.0
H321 H 0.74171 0.88588 0.98334 0.0
H322 H 0.79388 0.875 0.01706 0.0
H323 H 0.79913 0.87608 0.14584 0.0
H324 H 0.19891 0.84344 0.52392 0.0
H325 H 0.19722 0.84702 0.65223 0.0
H326 H 0.23968 0.81628 0.68266 0.0
H327 H 0.24167 0.81293 0.55477 0.0
H328 H 0.17928 0.81235 0.74481 0.0
H329 H 0.27267 0.87246 0.81949 0.0
H330 H 0.26042 0.86767 0.7297 0.0
H331 H 0.2674 0.84769 0.76678 0.0
C332 C 0.20812 0.8377 0.55806 0.0
C333 C 0.22048 0.82795 0.52923 0.0
C334 C 0.20707 0.83969 0.63138 0.0
C335 C 0.21854 0.83217 0.6774 0.0
C336 C 0.23108 0.82263 0.64856 0.0
H337 H 0.22921 0.82296 0.13308 0.0
H338 H 0.2307 0.81963 0.00464 0.0
C339 C 0.23211 0.82062 0.57533 0.0
C340 C 0.2166 0.83339 0.75523 0.0
H341 H 0.24862 0.85465 0.9132 0.0
C342 C 0.19443 0.82172 0.78159 0.0
C343 C 0.23636 0.84553 0.80342 0.0
C344 C 0.26055 0.85923 0.77854 0.0
C345 C 0.19153 0.82149 0.8546 0.0
C346 C 0.2113 0.83359 0.9028 0.0
C347 C 0.23346 0.84529 0.87642 0.0
C348 C 0.20941 0.83461 0.9807 0.0
C349 C 0.16735 0.80782 0.8795 0.0
C350 C 0.19694 0.84411 0.01028 0.0
C351 C 0.19604 0.84598 0.08363 0.0
C352 C 0.20772 0.83855 0.12909 0.0
C353 C 0.21998 0.8288 0.09948 0.0
C354 C 0.2209 0.82695 0.02607 0.0
H355 H 0.15516 0.79471 0.83839 0.0
H356 H 0.16745 0.79925 0.92805 0.0
H357 H 0.16059 0.81942 0.89183 0.0
H358 H 0.18831 0.85056 0.97669 0.0
H359 H 0.18655 0.85368 0.10479 0.0
H360 H 0.25269 0.36 0.5194 0.0
H361 H 0.24925 0.35509 0.6462 0.0
H362 H 0.21585 0.28227 0.60599 0.0
H363 H 0.219 0.28707 0.47875 0.0
H364 H 0.19429 0.29509 0.70542 0.0
H365 H 0.28946 0.33934 0.77269 0.0
H366 H 0.28009 0.35599 0.72518 0.0
H367 H 0.27697 0.3304 0.68311 0.0
C368 C 0.24453 0.34292 0.53752 0.0
C369 C 0.23628 0.32393 0.48905 0.0
C370 C 0.24273 0.34015 0.61014 0.0
C371 C 0.23277 0.31834 0.63602 0.0
C372 C 0.2238 0.29928 0.58748 0.0
H373 H 0.20709 0.26484 0.05466 0.0
H374 H 0.21045 0.26981 0.92787 0.0
C375 C 0.22559 0.30205 0.51474 0.0
C376 C 0.23166 0.31542 0.71356 0.0
H377 H 0.26531 0.32983 0.86884 0.0
C378 C 0.20982 0.30259 0.74107 0.0
C379 C 0.25192 0.32524 0.76033 0.0
C380 C 0.27596 0.33834 0.73393 0.0
C381 C 0.20767 0.29968 0.81392 0.0
C382 C 0.22794 0.30949 0.86069 0.0
C383 C 0.24977 0.32233 0.83318 0.0
C384 C 0.22683 0.30655 0.93821 0.0
C385 C 0.18364 0.28656 0.84033 0.0
C386 C 0.23573 0.32558 0.98681 0.0
C387 C 0.23398 0.32278 0.05954 0.0
C388 C 0.2234 0.30089 0.08516 0.0
C389 C 0.21518 0.28192 0.03661 0.0
C390 C 0.21693 0.28473 0.96399 0.0
H391 H 0.17013 0.28554 0.80156 0.0
H392 H 0.17953 0.26891 0.84911 0.0
H393 H 0.18262 0.2945 0.89114 0.0
H394 H 0.24362 0.3426 0.96836 0.0
H395 H 0.2405 0.33774 0.09557 0.0
H396 H 0.44176 0.16063 0.38695 0.0
H397 H 0.42536 0.1569 0.26689 0.0
H398 H 0.36019 0.10033 0.32085 0.0
H399 H 0.37663 0.10366 0.44089 0.0
H400 H 0.39326 0.12163 0.14885 0.0
H401 H 0.3553 0.16127 0.3207 0.0
H402 H 0.3797 0.15865 0.35243 0.0
H403 H 0.35129 0.13383 0.33983 0.0
C404 C 0.42444 0.1465 0.37206 0.0
C405 C 0.41013 0.13302 0.42332 0.0
C406 C 0.41505 0.14441 0.30351 0.0
C407 C 0.39139 0.12886 0.28641 0.0
C408 C 0.3784 0.11262 0.33387 0.0
H409 H 0.33584 0.15848 0.91003 0.0
H410 H 0.33174 0.14289 0.02567 0.0
C411 C 0.38789 0.11453 0.40234 0.0
C412 C 0.37967 0.13396 0.2288 0.0
H413 H 0.35468 0.16649 0.19961 0.0
C414 C 0.38411 0.13075 0.15938 0.0
C415 C 0.36808 0.14618 0.24362 0.0
C416 C 0.36329 0.15034 0.31807 0.0
C417 C 0.37837 0.14057 0.1044 0.0
C418 C 0.36821 0.15403 0.11999 0.0
C419 C 0.36245 0.1561 0.18857 0.0
C420 C 0.36645 0.16819 0.06643 0.0
C421 C 0.38463 0.13782 0.03064 0.0
C422 C 0.38649 0.18878 0.05458 0.0
C423 C 0.389 0.19762 0.98843 0.0
C424 C 0.37148 0.18573 0.93426 0.0
C425 C 0.34978 0.1677 0.95076 0.0
C426 C 0.34737 0.15872 0.01673 0.0
H427 H 0.39044 0.12513 0.02634 0.0
H428 H 0.36945 0.13241 0.99234 0.0
H429 H 0.39889 0.15443 0.01535 0.0
H430 H 0.40128 0.19634 0.09309 0.0
H431 H 0.40575 0.21177 0.9772 0.0
H432 H 0.85989 0.19162 0.41291 0.0
H433 H 0.87295 0.19638 0.29383 0.0
H434 H 0.85995 0.12747 0.28097 0.0
H435 H 0.84704 0.12265 0.40047 0.0
H436 H 0.90829 0.16427 0.30131 0.0
H437 H 0.85948 0.17651 0.07845 0.0
H438 H 0.86031 0.1898 0.16302 0.0
H439 H 0.8452 0.15931 0.15072 0.0
C440 C 0.85844 0.17703 0.38314 0.0
C441 C 0.85351 0.15713 0.41636 0.0
C442 C 0.86589 0.17977 0.31495 0.0
C443 C 0.86793 0.16245 0.2799 0.0
C444 C 0.85866 0.14106 0.30799 0.0
H445 H 0.94019 0.15113 0.95704 0.0
H446 H 0.93112 0.15179 0.07937 0.0
C447 C 0.85124 0.13833 0.37619 0.0
C448 C 0.88545 0.1687 0.22786 0.0
H449 H 0.8987 0.18734 0.06361 0.0
C450 C 0.90621 0.16921 0.24904 0.0
C451 C 0.88277 0.17567 0.16106 0.0
C452 C 0.8607 0.17521 0.13643 0.0
C453 C 0.92436 0.17621 0.20416 0.0
C454 C 0.9215 0.18272 0.13673 0.0
C455 C 0.90092 0.18268 0.11617 0.0
C456 C 0.93775 0.18641 0.08212 0.0
C457 C 0.94633 0.17651 0.22882 0.0
C458 C 0.94674 0.20643 0.04613 0.0
C459 C 0.95187 0.20606 0.97601 0.0
C460 C 0.94765 0.18554 0.942 0.0
C461 C 0.94311 0.16701 0.98209 0.0
C462 C 0.93802 0.1674 0.05224 0.0
H463 H 0.94848 0.17734 0.28734 0.0
H464 H 0.94551 0.16065 0.20799 0.0
H465 H 0.96187 0.19121 0.209 0.0
H466 H 0.94679 0.2213 0.06892 0.0
H467 H 0.95585 0.22073 0.94624 0.0
H468 H 0.84998 0.6796 0.43696 0.0
H469 H 0.85964 0.68958 0.31621 0.0
H470 H 0.85754 0.62585 0.27255 0.0
H471 H 0.8478 0.61579 0.39269 0.0
H472 H 0.90295 0.69356 0.30741 0.0
H473 H 0.84458 0.64096 0.07672 0.0
H474 H 0.83378 0.64275 0.16102 0.0
H475 H 0.84494 0.62384 0.14584 0.0
C476 C 0.85012 0.66709 0.40031 0.0
C477 C 0.84921 0.64739 0.42435 0.0
C478 C 0.85567 0.67285 0.3313 0.0
C479 C 0.85989 0.65872 0.2863 0.0
C480 C 0.85437 0.63702 0.30646 0.0
H481 H 0.9434 0.66172 0.96546 0.0
H482 H 0.92914 0.65768 0.08315 0.0
C483 C 0.84888 0.63129 0.37544 0.0
C484 C 0.87643 0.66881 0.23133 0.0
H485 H 0.88591 0.65882 0.06285 0.0
C486 C 0.89912 0.68634 0.25336 0.0
C487 C 0.87145 0.65906 0.16161 0.0
C488 C 0.84729 0.64075 0.13474 0.0
C489 C 0.91725 0.69368 0.20814 0.0
C490 C 0.91242 0.68326 0.13946 0.0
C491 C 0.88958 0.66638 0.11648 0.0
C492 C 0.93031 0.69006 0.08828 0.0
C493 C 0.94154 0.71181 0.23461 0.0
C494 C 0.93797 0.71066 0.05636 0.0
C495 C 0.94632 0.71309 0.98932 0.0
C496 C 0.94638 0.69465 0.95378 0.0
C497 C 0.94303 0.67598 0.99142 0.0
C498 C 0.93476 0.67358 0.0585 0.0
H499 H 0.94318 0.71512 0.29286 0.0
H500 H 0.95436 0.70678 0.21962 0.0
H501 H 0.94606 0.72791 0.20979 0.0
H502 H 0.93471 0.72358 0.07885 0.0
H503 H 0.94925 0.72788 0.9617 0.0
H504 H 0.17153 0.33647 0.31192 0.0
H505 H 0.15421 0.36006 0.28763 0.0
H506 H 0.21664 0.40864 0.19467 0.0
H507 H 0.23419 0.38522 0.2186 0.0
H508 H 0.17266 0.40951 0.32758 0.0
H509 H 0.16147 0.38703 0.03837 0.0
H510 H 0.16589 0.37026 0.10212 0.0
H511 H 0.1899 0.39699 0.08071 0.0
C512 C 0.18168 0.35224 0.28674 0.0
C513 C 0.20421 0.35886 0.26673 0.0
C514 C 0.17176 0.36571 0.27311 0.0
C515 C 0.18408 0.38591 0.23877 0.0
C516 C 0.2068 0.39296 0.22065 0.0
H517 H 0.1391 0.47379 0.05345 0.0
H518 H 0.162 0.45684 0.09471 0.0
C519 C 0.21681 0.37958 0.2346 0.0
C520 C 0.17277 0.39911 0.2194 0.0
H521 H 0.14999 0.41282 0.0781 0.0
C522 C 0.16772 0.41033 0.2731 0.0
C523 C 0.16646 0.40012 0.14826 0.0
C524 C 0.17101 0.38787 0.08881 0.0
C525 C 0.15662 0.42274 0.25741 0.0
C526 C 0.14989 0.42341 0.18624 0.0
C527 C 0.15518 0.41233 0.1326 0.0
C528 C 0.13683 0.43496 0.16592 0.0
C529 C 0.15255 0.43529 0.31708 0.0
C530 C 0.1151 0.42835 0.19233 0.0
C531 C 0.1021 0.43815 0.16923 0.0
C532 C 0.11046 0.45448 0.11857 0.0
C533 C 0.13227 0.46125 0.09263 0.0
C534 C 0.14534 0.45157 0.1161 0.0
H535 H 0.16484 0.43897 0.36371 0.0
H536 H 0.15444 0.45159 0.30055 0.0
H537 H 0.13464 0.42453 0.33369 0.0
H538 H 0.10789 0.41516 0.22938 0.0
H539 H 0.08525 0.43251 0.18968 0.0
H540 H 0.62944 0.59064 0.23199 0.0
H541 H 0.64613 0.63056 0.27489 0.0
H542 H 0.6056 0.63987 0.11049 0.0
H543 H 0.58883 0.59992 0.06724 0.0
H544 H 0.6716 0.66808 0.18619 0.0
H545 H 0.59556 0.66849 0.29499 0.0
H546 H 0.59699 0.64277 0.2825 0.0
H547 H 0.59096 0.65495 0.20804 0.0
C548 C 0.62386 0.60112 0.2056 0.0
C549 C 0.60788 0.59226 0.14631 0.0
C550 C 0.6334 0.62388 0.23012 0.0
C551 C 0.62692 0.63806 0.19625 0.0
C552 C 0.61053 0.62909 0.138 0.0
H553 H 0.67798 0.7839 0.24939 0.0
H554 H 0.65498 0.74296 0.21597 0.0
C555 C 0.60108 0.60634 0.1132 0.0
C556 C 0.63871 0.66262 0.21848 0.0
H557 H 0.63007 0.70419 0.29143 0.0
C558 C 0.66256 0.67598 0.20944 0.0
C559 C 0.62675 0.67286 0.24789 0.0
C560 C 0.60117 0.65908 0.25954 0.0
C561 C 0.67484 0.6994 0.22878 0.0
C562 C 0.66305 0.70961 0.25982 0.0
C563 C 0.63908 0.69629 0.26803 0.0
C564 C 0.67552 0.73404 0.28465 0.0
C565 C 0.70025 0.71305 0.21446 0.0
C566 C 0.69414 0.74245 0.33611 0.0
C567 C 0.70737 0.76576 0.35487 0.0
C568 C 0.70204 0.78112 0.32327 0.0
C569 C 0.68256 0.77252 0.27461 0.0
C570 C 0.66941 0.74915 0.2554 0.0
H571 H 0.70479 0.7043 0.17294 0.0
H572 H 0.70488 0.73021 0.19765 0.0
H573 H 0.71103 0.71522 0.26343 0.0
H574 H 0.69877 0.73101 0.3607 0.0
H575 H 0.72205 0.77176 0.39329 0.0
H576 H 0.46569 0.93527 0.07708 0.0
H577 H 0.42568 0.91319 0.11286 0.0
H578 H 0.44211 0.963 0.2853 0.0
H579 H 0.48211 0.98511 0.24997 0.0
H580 H 0.40969 0.89549 0.25307 0.0
H581 H 0.38475 0.95813 0.16714 0.0
H582 H 0.40964 0.95746 0.13581 0.0
H583 H 0.41115 0.96942 0.22295 0.0
C584 C 0.46077 0.94143 0.12281 0.0
C585 C 0.47691 0.96193 0.16061 0.0
C586 C 0.43797 0.92881 0.14319 0.0
C587 C 0.43094 0.93662 0.20121 0.0
C588 C 0.44717 0.95685 0.23988 0.0
H589 H 0.29755 0.89294 0.37421 0.0
H590 H 0.33869 0.91246 0.35047 0.0
C591 C 0.46999 0.9694 0.21979 0.0
C592 C 0.40651 0.92384 0.22057 0.0
H593 H 0.35703 0.92696 0.22582 0.0
C594 C 0.39812 0.9023 0.2471 0.0
C595 C 0.39155 0.93285 0.21279 0.0
C596 C 0.39956 0.95566 0.18266 0.0
C597 C 0.37517 0.88963 0.26725 0.0
C598 C 0.36011 0.89857 0.25896 0.0
C599 C 0.36858 0.92014 0.23235 0.0
C600 C 0.33542 0.88584 0.27679 0.0
C601 C 0.36748 0.86708 0.29871 0.0
C602 C 0.31987 0.86433 0.24341 0.0
C603 C 0.29634 0.85303 0.2573 0.0
C604 C 0.28783 0.86317 0.30408 0.0
C605 C 0.30349 0.88463 0.33786 0.0
C606 C 0.32703 0.89584 0.32432 0.0
H607 H 0.38255 0.86592 0.32066 0.0
H608 H 0.35558 0.8643 0.34128 0.0
H609 H 0.35807 0.85313 0.25688 0.0
H610 H 0.3258 0.85652 0.20521 0.0
H611 H 0.28474 0.83663 0.22983 0.0
H612 H 0.50969 0.04679 0.10238 0.0
H613 H 0.48967 0.06655 0.06194 0.0
H614 H 0.54913 0.11155 0.95013 0.0
H615 H 0.5695 0.09199 0.99081 0.0
H616 H 0.52684 0.13326 0.02131 0.0
H617 H 0.46479 0.05594 0.85228 0.0
H618 H 0.46715 0.05138 0.94407 0.0
H619 H 0.49174 0.05981 0.89191 0.0
C620 C 0.5187 0.06108 0.06992 0.0
C621 C 0.54113 0.06761 0.04911 0.0
C622 C 0.50717 0.07231 0.04676 0.0
C623 C 0.51776 0.09022 1.00203 0.0
C624 C 0.54063 0.09768 0.98441 0.0
H625 H 0.45196 0.13571 0.70351 0.0
H626 H 0.47425 0.12161 0.76673 0.0
C627 C 0.55224 0.08647 0.00773 0.0
C628 C 0.50435 0.10003 0.96973 0.0
H629 H 0.45756 0.08653 0.85584 0.0
C630 C 0.51166 0.12308 0.98524 0.0
C631 C 0.48471 0.08674 0.92208 0.0
C632 C 0.47668 0.06215 0.90093 0.0
C633 C 0.49973 0.13317 0.9545 0.0
C634 C 0.47989 0.11976 0.90763 0.0
C635 C 0.47265 0.09673 0.8922 0.0
C636 C 0.46703 0.12942 0.8707 0.0
C637 C 0.50879 0.15821 0.97088 0.0
C638 C 0.45544 0.13846 0.90818 0.0
C639 C 0.44261 0.14664 0.87203 0.0
C640 C 0.44104 0.14575 0.79774 0.0
C641 C 0.45272 0.13667 0.76065 0.0
C642 C 0.46552 0.12859 0.79672 0.0
H643 H 0.5269 0.1671 0.99519 0.0
H644 H 0.50831 0.16661 0.92231 0.0
H645 H 0.49758 0.16024 0.00858 0.0
H646 H 0.45598 0.13885 0.96527 0.0
H647 H 0.43373 0.15338 0.90226 0.0
H648 H 0.94602 0.23836 0.71517 0.0
H649 H 0.96313 0.27603 0.7764 0.0
H650 H 0.89621 0.25846 0.85164 0.0
H651 H 0.87875 0.22137 0.78536 0.0
H652 H 0.91357 0.29784 0.81325 0.0
H653 H 0.98428 0.29767 0.973 0.0
H654 H 0.98744 0.29296 0.88196 0.0
H655 H 0.96201 0.27239 0.92356 0.0
C656 C 0.93504 0.24254 0.74527 0.0
C657 C 0.9111 0.22707 0.74567 0.0
C658 C 0.94489 0.264 0.78105 0.0
C659 C 0.93118 0.27008 0.82048 0.0
C660 C 0.90725 0.2543 0.82191 0.0
H661 H 0.00781 0.40078 0.07128 0.0
H662 H 0.9843 0.3599 0.03773 0.0
C663 C 0.89727 0.23309 0.7842 0.0
C664 C 0.94145 0.29337 0.85587 0.0
H665 H 0.98963 0.33489 0.95209 0.0
C666 C 0.93002 0.30575 0.84467 0.0
C667 C 0.96261 0.30373 0.89867 0.0
C668 C 0.97458 0.29084 0.92063 0.0
C669 C 0.93953 0.32831 0.87241 0.0
C670 C 0.96182 0.33941 0.90905 0.0
C671 C 0.97279 0.32673 0.92281 0.0
C672 C 0.97441 0.3642 0.93169 0.0
C673 C 0.92524 0.33973 0.86287 0.0
C674 C 0.97668 0.3804 0.88385 0.0
C675 C 0.98936 0.40368 0.90399 0.0
C676 C 1.00088 0.41131 0.97139 0.0
C677 C 0.99897 0.39526 0.01907 0.0
C678 C 0.98562 0.37192 0.99974 0.0
H679 H 0.90632 0.32705 0.86068 0.0
H680 H 0.92926 0.35278 0.90634 0.0
H681 H 0.92881 0.34799 0.81199 0.0
H682 H 0.96917 0.37514 0.83015 0.0
H683 H 0.99102 0.41576 0.86572 0.0
H684 H 0.85235 0.64091 0.90125 0.0
H685 H 0.81567 0.62047 0.95844 0.0
H686 H 0.77779 0.59885 0.75443 0.0
H687 H 0.81409 0.61944 0.69703 0.0
H688 H 0.75886 0.61583 0.84541 0.0
H689 H 0.77434 0.55198 0.97337 0.0
H690 H 0.79637 0.58117 0.99487 0.0
H691 H 0.79207 0.56921 0.9059 0.0
C692 C 0.83622 0.63172 0.86853 0.0
C693 C 0.83622 0.63183 0.79444 0.0
C694 C 0.81527 0.61992 0.90135 0.0
C695 C 0.79399 0.60785 0.8607 0.0
C696 C 0.79399 0.60798 0.78689 0.0
H697 H 0.6554 0.50598 0.95405 0.0
H698 H 0.69557 0.52703 0.92016 0.0
C699 C 0.81483 0.6198 0.75413 0.0
C700 C 0.7715 0.59568 0.89426 0.0
H701 H 0.73965 0.55176 0.99765 0.0
C702 C 0.7547 0.60188 0.87894 0.0
C703 C 0.76602 0.57734 0.93747 0.0
C704 C 0.78304 0.56933 0.95355 0.0
C705 C 0.73254 0.59018 0.90504 0.0
C706 C 0.72712 0.57201 0.94888 0.0
C707 C 0.74393 0.56583 0.96456 0.0
C708 C 0.70371 0.5587 0.97617 0.0
C709 C 0.71485 0.59692 0.88357 0.0
C710 C 0.69521 0.5693 0.02084 0.0
C711 C 0.67225 0.55736 0.04016 0.0
C712 C 0.65735 0.53449 0.01552 0.0
C713 C 0.66633 0.52357 0.97384 0.0
C714 C 0.68931 0.53557 0.95441 0.0
H715 H 0.71991 0.60749 0.83718 0.0
H716 H 0.69744 0.58164 0.87063 0.0
H717 H 0.71338 0.60705 0.92806 0.0
H718 H 0.70618 0.58702 0.03934 0.0
H719 H 0.66604 0.56628 0.07288 0.0
H720 H 0.92801 0.61664 0.60272 0.0
H721 H 0.94356 0.59392 0.65311 0.0
H722 H 0.92026 0.60071 0.85608 0.0
H723 H 0.90459 0.62342 0.80591 0.0
H724 H 0.97749 0.60744 0.77498 0.0
H725 H 0.89214 0.5304 0.81241 0.0
H726 H 0.89507 0.55174 0.75315 0.0
H727 H 0.89632 0.5573 0.8467 0.0
C728 C 0.92618 0.61326 0.65806 0.0
C729 C 0.91505 0.6217 0.7004 0.0
C730 C 0.93508 0.60033 0.68674 0.0
C731 C 0.9328 0.59544 0.75802 0.0
C732 C 0.9219 0.60405 0.8007 0.0
H733 H 0.97298 0.51396 0.0079 0.0
H734 H 0.95594 0.53633 0.96482 0.0
C735 C 0.9131 0.61711 0.77211 0.0
C736 C 0.9421 0.58152 0.78756 0.0
H737 H 0.92585 0.52967 0.85138 0.0
C738 C 0.96624 0.59044 0.79174 0.0
C739 C 0.92734 0.55944 0.80976 0.0
C740 C 0.90125 0.54897 0.80504 0.0
C741 C 0.97607 0.57787 0.81783 0.0
C742 C 0.96128 0.55552 0.83844 0.0
C743 C 0.93713 0.54674 0.83519 0.0
C744 C 0.97058 0.54098 0.86304 0.0
C745 C 1.00223 0.58884 0.82429 0.0
C746 C 0.98388 0.53561 0.81938 0.0
C747 C 0.9937 0.52296 0.84398 0.0
C748 C 0.99012 0.51521 0.91235 0.0
C749 C 0.97601 0.51975 0.95497 0.0
C750 C 0.9663 0.53254 0.93047 0.0
H751 H 0.0109 0.60773 0.82638 0.0
H752 H 0.00819 0.58383 0.87229 0.0
H753 H 0.00796 0.58326 0.77749 0.0
H754 H 0.98689 0.54141 0.76648 0.0
H755 H 0.00438 0.51956 0.80987 0.0
H756 H 0.54859 0.4218 0.8306 0.0
H757 H 0.52805 0.38204 0.78287 0.0
H758 H 0.54032 0.36082 0.98342 0.0
H759 H 0.561 0.40061 0.03149 0.0
H760 H 0.54468 0.34825 0.78161 0.0
H761 H 0.46728 0.32475 0.93547 0.0
H762 H 0.48786 0.35393 0.9191 0.0
H763 H 0.49541 0.33954 0.98308 0.0
C764 C 0.54711 0.40868 0.86426 0.0
C765 C 0.5563 0.41422 0.93475 0.0
C766 C 0.53539 0.38602 0.83697 0.0
C767 C 0.53248 0.36854 0.87991 0.0
C768 C 0.54221 0.37409 0.94974 0.0
H769 H 0.44841 0.22079 0.80521 0.0
H770 H 0.47316 0.25963 0.85822 0.0
C771 C 0.55409 0.39679 0.97696 0.0
C772 C 0.51868 0.34448 0.85192 0.0
H773 H 0.46653 0.29568 0.86239 0.0
C774 C 0.52762 0.33669 0.79927 0.0
C775 C 0.49651 0.32951 0.87548 0.0
C776 C 0.48601 0.33726 0.9311 0.0
C777 C 0.51495 0.3142 0.76955 0.0
C778 C 0.49247 0.29933 0.79176 0.0
C779 C 0.48371 0.30709 0.84523 0.0
C780 C 0.47758 0.27579 0.75944 0.0
C781 C 0.52598 0.3065 0.71555 0.0
C782 C 0.47148 0.27198 0.68652 0.0
C783 C 0.45749 0.24982 0.65615 0.0
C784 C 0.44908 0.2311 0.69829 0.0
C785 C 0.45472 0.23493 0.77146 0.0
C786 C 0.46886 0.25709 0.80177 0.0
H787 H 0.54526 0.31719 0.72064 0.0
H788 H 0.52107 0.28845 0.72071 0.0
H789 H 0.51996 0.30809 0.66184 0.0
H790 H 0.47743 0.28616 0.65307 0.0
H791 H 0.45319 0.24736 0.59971 0.0
H792 H 0.81451 0.12402 0.71268 0.0
H793 H 0.77981 0.11191 0.77677 0.0
H794 H 0.8223 0.14762 0.96708 0.0
H795 H 0.8576 0.16015 0.9026 0.0
H796 H 0.76698 0.08643 0.90075 0.0
H797 H 0.77623 0.17226 0.94091 0.0
H798 H 0.79194 0.16633 0.87631 0.0
H799 H 0.80056 0.16903 0.96844 0.0
C800 C 0.81665 0.12937 0.7682 0.0
C801 C 0.83891 0.14321 0.80235 0.0
C802 C 0.79671 0.12235 0.8048 0.0
C803 C 0.79844 0.12906 0.87639 0.0
C804 C 0.82059 0.14251 0.9115 0.0
H805 H 0.6759 0.09851 0.11257 0.0
H806 H 0.71639 0.11401 0.0823 0.0
C807 C 0.84072 0.14951 0.87475 0.0
C808 C 0.77673 0.12177 0.91268 0.0
H809 H 0.74156 0.14091 0.97314 0.0
C810 C 0.76154 0.09836 0.91749 0.0
C811 C 0.76972 0.13737 0.9347 0.0
C812 C 0.78532 0.16268 0.92975 0.0
C813 C 0.73924 0.09006 0.94157 0.0
C814 C 0.73171 0.10556 0.95987 0.0
C815 C 0.7473 0.12906 0.95842 0.0
C816 C 0.70734 0.09752 0.97704 0.0
C817 C 0.72385 0.06471 0.94644 0.0
C818 C 0.68886 0.08375 0.92711 0.0
C819 C 0.66581 0.07491 0.94422 0.0
C820 C 0.6608 0.07984 0.01141 0.0
C821 C 0.67928 0.09444 0.06037 0.0
C822 C 0.70239 0.10326 0.04323 0.0
H823 H 0.73424 0.05612 0.9515 0.0
H824 H 0.7129 0.06088 0.99215 0.0
H825 H 0.71218 0.05735 0.89759 0.0
H826 H 0.69227 0.07955 0.87512 0.0
H827 H 0.65192 0.06381 0.90532 0.0
H828 H 0.62978 0.00263 0.09823 0.0
H829 H 0.64614 0.97836 0.12198 0.0
H830 H 0.57728 0.92152 0.14311 0.0
H831 H 0.56079 0.94602 0.12193 0.0
H832 H 0.6055 0.92395 0.24687 0.0
H833 H 0.64889 0.93101 1.00035 0.0
H834 H 0.65857 0.95869 0.04165 0.0
H835 H 0.6285 0.94086 0.01008 0.0
C836 C 0.61804 0.9849 0.10712 0.0
C837 C 0.59395 0.97625 0.10803 0.0
C838 C 0.62744 0.97097 0.12015 0.0
C839 C 0.61293 0.94794 0.13279 0.0
C840 C 0.58882 0.93919 0.13301 0.0
H841 H 0.67625 0.86192 0.17055 0.0
H842 H 0.65182 0.87733 0.12908 0.0
C843 C 0.57942 0.95321 0.12091 0.0
C844 C 0.62314 0.93355 0.15067 0.0
H845 H 0.6628 0.91898 0.09998 0.0
C846 C 0.61777 0.9226 0.21416 0.0
C847 C 0.63879 0.93131 0.10746 0.0
C848 C 0.6438 0.94089 0.03574 0.0
C849 C 0.62841 0.91042 0.2372 0.0
C850 C 0.64549 0.9098 0.19682 0.0
C851 C 0.65002 0.91978 0.13165 0.0
C852 C 0.65955 0.89977 0.22259 0.0
C853 C 0.62113 0.89832 0.30455 0.0
C854 C 0.67223 0.90743 0.28844 0.0
C855 C 0.68586 0.89844 0.31245 0.0
C856 C 0.68751 0.88198 0.27044 0.0
C857 C 0.67518 0.87455 0.20403 0.0
C858 C 0.66127 0.88335 0.18034 0.0
H859 H 0.60297 0.89356 0.31454 0.0
H860 H 0.62242 0.88266 0.30296 0.0
H861 H 0.6326 0.9099 0.34967 0.0
H862 H 0.67184 0.92061 0.32102 0.0
H863 H 0.69542 0.90467 0.36352 0.0
H864 H 0.1662 0.74372 0.14784 0.0
H865 H 0.14988 0.70356 0.10856 0.0
H866 H 0.19501 0.69771 0.26541 0.0
H867 H 0.21104 0.73774 0.30586 0.0
H868 H 0.17027 0.6795 0.05695 0.0
H869 H 0.13081 0.64714 0.30992 0.0
H870 H 0.14205 0.67634 0.28894 0.0
H871 H 0.16158 0.66686 0.3185 0.0
C872 C 0.17269 0.73388 0.1737 0.0
C873 C 0.18972 0.74373 0.23022 0.0
C874 C 0.16339 0.71097 0.1512 0.0
C875 C 0.17093 0.69755 0.1849 0.0
C876 C 0.18857 0.70762 0.23972 0.0
H877 H 0.12019 0.55144 0.13116 0.0
H878 H 0.14428 0.59237 0.1629 0.0
C879 C 0.1978 0.7305 0.26247 0.0
C880 C 0.15997 0.67294 0.16342 0.0
H881 H 0.12763 0.61982 0.22312 0.0
C882 C 0.16099 0.66644 0.09329 0.0
C883 C 0.14787 0.65594 0.21097 0.0
C884 C 0.14528 0.66183 0.28612 0.0
C885 C 0.1502 0.64338 0.06939 0.0
C886 C 0.13787 0.62642 0.11671 0.0
C887 C 0.13721 0.6329 0.18711 0.0
C888 C 0.12443 0.60189 0.09352 0.0
C889 C 0.15215 0.63734 0.99381 0.0
C890 C 0.10531 0.59372 0.04404 0.0
C891 C 0.09147 0.57039 0.02596 0.0
C892 C 0.09646 0.55474 0.05721 0.0
C893 C 0.1159 0.56302 0.10589 0.0
C894 C 0.12968 0.58639 0.12419 0.0
H895 H 0.1671 0.65165 0.97032 0.0
H896 H 0.15415 0.62208 0.98986 0.0
H897 H 0.13604 0.63339 0.96207 0.0
H898 H 0.1007 0.60535 0.02074 0.0
H899 H 0.07663 0.56463 0.98835 0.0
H900 H 0.50395 0.43854 0.05017 0.0
H901 H 0.46311 0.41991 0.07596 0.0
H902 H 0.46841 0.48549 0.10921 0.0
H903 H 0.50967 0.50431 0.08629 0.0
H904 H 0.44656 0.45986 0.21019 0.0
H905 H 0.40712 0.40861 0.95842 0.0
H906 H 0.42824 0.40261 0.99759 0.0
H907 H 0.4373 0.43072 0.96931 0.0
C908 C 0.49638 0.44903 0.06211 0.0
C909 C 0.51005 0.47293 0.06588 0.0
C910 C 0.47293 0.43832 0.0764 0.0
C911 C 0.46245 0.45124 0.09306 0.0
C912 C 0.47603 0.47513 0.09611 0.0
H913 H 0.3114 0.38313 0.12108 0.0
H914 H 0.35105 0.40704 0.08497 0.0
C915 C 0.49961 0.48587 0.08291 0.0
C916 C 0.43777 0.43984 0.11139 0.0
H917 H 0.38302 0.39699 0.05679 0.0
C918 C 0.43264 0.4463 0.17618 0.0
C919 C 0.41944 0.42241 0.06663 0.0
C920 C 0.42327 0.41587 0.99381 0.0
C921 C 0.4099 0.43534 0.19846 0.0
C922 C 0.39188 0.41685 0.15592 0.0
C923 C 0.39685 0.41092 0.09003 0.0
C924 C 0.36788 0.40314 0.17916 0.0
C925 C 0.40547 0.44394 0.26703 0.0
C926 C 0.36406 0.39284 0.24383 0.0
C927 C 0.34148 0.37952 0.26494 0.0
C928 C 0.32225 0.3758 0.22106 0.0
C929 C 0.32597 0.38581 0.15598 0.0
C930 C 0.3486 0.39943 0.1353 0.0
H931 H 0.41849 0.46222 0.2798 0.0
H932 H 0.38782 0.44187 0.26519 0.0
H933 H 0.40699 0.43421 0.31055 0.0
H934 H 0.37854 0.3948 0.27761 0.0
H935 H 0.33907 0.37176 0.31502 0.0
H936 H 0.86901 0.71741 0.7645 0.0
H937 H 0.85402 0.74043 0.71333 0.0
H938 H 0.88141 0.73671 0.51468 0.0
H939 H 0.89601 0.71325 0.56531 0.0
H940 H 0.87818 0.7819 0.65997 0.0
H941 H 0.81544 0.719 0.45188 0.0
H942 H 0.82852 0.71109 0.52217 0.0
H943 H 0.84463 0.72441 0.44747 0.0
C944 C 0.87167 0.72137 0.70976 0.0
C945 C 0.88356 0.7135 0.66875 0.0
C946 C 0.86313 0.73453 0.68061 0.0
C947 C 0.86633 0.74007 0.60992 0.0
C948 C 0.87827 0.73224 0.56884 0.0
H949 H 0.82785 0.82397 0.36357 0.0
H950 H 0.84632 0.80273 0.40597 0.0
C951 C 0.8867 0.71894 0.59791 0.0
C952 C 0.85786 0.75474 0.58049 0.0
H953 H 0.82146 0.75644 0.45174 0.0
C954 C 0.86576 0.77631 0.61448 0.0
C955 C 0.84174 0.74748 0.52088 0.0
C956 C 0.8319 0.72416 0.48377 0.0
C957 C 0.85792 0.79076 0.59071 0.0
C958 C 0.84161 0.78338 0.53178 0.0
C959 C 0.83402 0.76203 0.49686 0.0
C960 C 0.83145 0.79717 0.50744 0.0
C961 C 0.86722 0.81387 0.62858 0.0
C962 C 0.81703 0.80106 0.55055 0.0
C963 C 0.80644 0.81308 0.52644 0.0
C964 C 0.81012 0.82142 0.45882 0.0
C965 C 0.82485 0.81783 0.4161 0.0
C966 C 0.83532 0.80566 0.44009 0.0
H967 H 0.88355 0.81915 0.66135 0.0
H968 H 0.8706 0.827 0.5904 0.0
H969 H 0.8541 0.81325 0.66392 0.0
H970 H 0.81357 0.79437 0.60231 0.0
H971 H 0.79506 0.8155 0.56026 0.0
H972 H 0.35291 0.09066 0.75023 0.0
H973 H 0.32858 0.05204 0.69563 0.0
H974 H 0.32666 0.07967 0.49618 0.0
H975 H 0.35142 0.11834 0.55032 0.0
H976 H 0.28473 0.03231 0.63407 0.0
H977 H 0.34485 0.03332 0.4385 0.0
H978 H 0.35417 0.05498 0.50973 0.0
H979 H 0.3383 0.0558 0.43206 0.0
C980 C 0.34741 0.08847 0.69463 0.0
C981 C 0.35411 0.10743 0.65439 0.0
C982 C 0.3335 0.06642 0.66352 0.0
C983 C 0.32602 0.06292 0.5916 0.0
C984 C 0.33262 0.0819 0.55134 0.0
H985 H 0.23807 0.93615 0.3324 0.0
H986 H 0.25928 0.97629 0.37699 0.0
C987 C 0.34666 0.10398 0.5824 0.0
C988 C 0.31074 0.03939 0.55986 0.0
H989 H 0.30708 1.00075 0.43247 0.0
C990 C 0.28963 0.02542 0.58999 0.0
C991 C 0.31709 0.03045 0.50203 0.0
C992 C 0.33992 0.04432 0.46899 0.0
C993 C 0.27477 0.00275 0.56424 0.0
C994 C 0.2813 0.99371 0.50733 0.0
C995 C 0.30214 0.00777 0.47609 0.0
C996 C 0.26729 0.96941 0.48157 0.0
C997 C 0.25215 0.98864 0.59795 0.0
C998 C 0.26473 0.9523 0.5257 0.0
C999 C 0.25271 0.92944 0.50037 0.0
C1000 C 0.24304 0.92331 0.43046 0.0
C1001 C 0.24523 0.94041 0.38667 0.0
C1002 C 0.2574 0.96331 0.41193 0.0
H1003 H 0.24693 0.99948 0.62798 0.0
H1004 H 0.23794 0.97758 0.55753 0.0
H1005 H 0.25422 0.9775 0.63528 0.0
H1006 H 0.27255 0.95668 0.57926 0.0
H1007 H 0.2514 0.91661 0.53509 0.0
H1008 H 0.98362 0.21315 0.64492 0.0
H1009 H 0.01823 0.22255 0.58319 0.0
H1010 H 0.97549 0.1832 0.39716 0.0
H1011 H 0.94028 0.17374 0.45894 0.0
H1012 H 0.02847 0.18949 0.52767 0.0
H1013 H 0.02523 0.24436 0.32178 0.0
H1014 H 0.00877 0.23879 0.39909 0.0
H1015 H 0.99964 0.217 0.32919 0.0
C1016 C 0.98142 0.2066 0.59062 0.0
C1017 C 0.95912 0.19256 0.55703 0.0
C1018 C 1.0013 0.21202 0.5554 0.0
C1019 C 0.99947 0.2036 0.48564 0.0
C1020 C 0.97728 0.1901 0.45079 0.0
H1021 H 0.12265 0.23637 0.2493 0.0
H1022 H 0.08195 0.2182 0.27995 0.0
C1023 C 0.9572 0.18469 0.48615 0.0
C1024 C 0.02104 0.20827 0.45219 0.0
H1025 H 0.05823 0.24018 0.3302 0.0
C1026 C 0.03485 0.20035 0.4839 0.0
C1027 C 0.02922 0.22223 0.39468 0.0
C1028 C 0.0151 0.23126 0.35909 0.0
C1029 C 0.057 0.20676 0.46159 0.0
C1030 C 0.06579 0.22182 0.40689 0.0
C1031 C 0.05151 0.22877 0.37251 0.0
C1032 C 0.09034 0.23188 0.38855 0.0
C1033 C 0.07096 0.19762 0.49761 0.0
C1034 C 0.10853 0.24561 0.43938 0.0
C1035 C 0.13169 0.25595 0.42207 0.0
C1036 C 0.13712 0.25283 0.3535 0.0
C1037 C 0.11895 0.23891 0.30274 0.0
C1038 C 0.09572 0.22862 0.32004 0.0
H1039 H 0.05953 0.18139 0.52192 0.0
H1040 H 0.08165 0.1947 0.45993 0.0
H1041 H 0.08284 0.21018 0.5403 0.0
H1042 H 0.10478 0.24871 0.4922 0.0
H1043 H 0.14533 0.26674 0.46206 0.0
H1044 H 0.35215 0.1698 0.47387 0.0
H1045 H 0.32794 0.18255 0.41366 0.0
H1046 H 0.34878 0.23595 0.57797 0.0
H1047 H 0.37219 0.22267 0.63986 0.0
H1048 H 0.30392 0.21562 0.5493 0.0
H1049 H 0.34603 0.23535 0.29568 0.0
H1050 H 0.33512 0.20636 0.3165 0.0
H1051 H 0.3584 0.2291 0.37185 0.0
C1052 C 0.35172 0.18438 0.49686 0.0
C1053 C 0.36412 0.19525 0.56164 0.0
C1054 C 0.33796 0.19175 0.4621 0.0
C1055 C 0.33678 0.21047 0.49054 0.0
C1056 C 0.34939 0.22147 0.55484 0.0
H1057 H 0.29246 0.29489 0.29323 0.0
H1058 H 0.31227 0.27526 0.33532 0.0
C1059 C 0.36281 0.21389 0.59017 0.0
C1060 C 0.3218 0.21822 0.45523 0.0
H1061 H 0.31143 0.23704 0.3011 0.0
C1062 C 0.30558 0.22032 0.495 0.0
C1063 C 0.32403 0.22447 0.38445 0.0
C1064 C 0.34198 0.22393 0.33982 0.0
C1065 C 0.29191 0.22889 0.46674 0.0
C1066 C 0.29382 0.23477 0.39556 0.0
C1067 C 0.30975 0.23229 0.35534 0.0
C1068 C 0.28101 0.24538 0.36387 0.0
C1069 C 0.27637 0.23251 0.51463 0.0
C1070 C 0.25666 0.23486 0.36354 0.0
C1071 C 0.24522 0.24626 0.34038 0.0
C1072 C 0.25789 0.26819 0.31563 0.0
C1073 C 0.28209 0.27803 0.31194 0.0
C1074 C 0.2935 0.2668 0.33605 0.0
H1075 H 0.28151 0.23286 0.57125 0.0
H1076 H 0.27679 0.24872 0.50517 0.0
H1077 H 0.2582 0.21829 0.50418 0.0
H1078 H 0.24653 0.21804 0.38267 0.0
H1079 H 0.22655 0.2381 0.34326 0.0
H1080 H 0.80701 0.92009 0.50474 0.0
H1081 H 0.82771 0.96066 0.54084 0.0
H1082 H 0.81467 0.97566 0.33056 0.0
H1083 H 0.7923 0.93477 0.29605 0.0
H1084 H 0.86394 0.99549 0.50982 0.0
H1085 H 0.79142 0.01001 0.43465 0.0
H1086 H 0.78789 0.98196 0.43127 0.0
H1087 H 0.80054 1.00034 0.36026 0.0
C1088 C 0.80865 0.93208 0.46616 0.0
C1089 C 0.79796 0.92435 0.39777 0.0
C1090 C 0.82049 0.9553 0.48681 0.0
C1091 C 0.82234 0.97138 0.43908 0.0
C1092 C 0.81275 0.96368 0.36936 0.0
H1093 H 0.91931 0.11562 0.57508 0.0
H1094 H 0.90177 0.07775 0.51377 0.0
C1095 C 0.80022 0.94033 0.34933 0.0
C1096 C 0.83417 0.99601 0.46325 0.0
H1097 H 0.82757 0.04271 0.47099 0.0
C1098 C 0.85589 0.00576 0.50155 0.0
C1099 C 0.82365 0.00948 0.45339 0.0
C1100 C 0.7995 0.99985 0.41834 0.0
C1101 C 0.86707 0.02821 0.53164 0.0
C1102 C 0.85695 0.04193 0.51962 0.0
C1103 C 0.83549 0.03236 0.47988 0.0
C1104 C 0.86747 0.06572 0.55133 0.0
C1105 C 0.88896 0.03641 0.57887 0.0
C1106 C 0.85379 0.07227 0.58893 0.0
C1107 C 0.86358 0.09422 0.62122 0.0
C1108 C 0.88737 0.10988 0.61804 0.0
C1109 C 0.90099 0.10364 0.57921 0.0
C1110 C 0.89101 0.08192 0.54484 0.0
H1111 H 0.89005 0.02194 0.6002 0.0
H1112 H 0.90435 0.04599 0.54785 0.0
H1113 H 0.88991 0.04771 0.62406 0.0
H1114 H 0.83558 0.06025 0.59462 0.0
H1115 H 0.8527 0.09868 0.65076 0.0
H1116 H 0.94626 0.69816 0.47305 0.0
H1117 H 0.9829 0.71873 0.41573 0.0
H1118 H 0.02135 0.73142 0.6166 0.0
H1119 H 0.98503 0.71071 0.67406 0.0
H1120 H 0.01932 0.76371 0.43958 0.0
H1121 H 0.04999 0.7032 0.49264 0.0
H1122 H 0.02033 0.6962 0.50242 0.0
H1123 H 0.04266 0.71308 0.57088 0.0
C1124 C 0.96251 0.70522 0.50502 0.0
C1125 C 0.96265 0.70259 0.57817 0.0
C1126 C 0.98343 0.71703 0.47215 0.0
C1127 C 0.00486 0.7263 0.5117 0.0
C1128 C 0.00503 0.72398 0.58476 0.0
H1129 H 0.1435 0.83026 0.42459 0.0
H1130 H 0.10331 0.8091 0.45779 0.0
C1131 C 0.98419 0.71219 0.61759 0.0
C1132 C 0.02714 0.73864 0.4772 0.0
H1133 H 0.07819 0.73948 0.45582 0.0
C1134 C 0.03213 0.75832 0.44252 0.0
C1135 C 0.0437 0.73141 0.48013 0.0
C1136 C 0.03885 0.70969 0.51289 0.0
C1137 C 0.05358 0.77141 0.4128 0.0
C1138 C 0.07059 0.76479 0.41894 0.0
C1139 C 0.06525 0.7447 0.45163 0.0
C1140 C 0.09422 0.77853 0.39315 0.0
C1141 C 0.05774 0.79208 0.37477 0.0
C1142 C 0.10258 0.76843 0.34592 0.0
C1143 C 0.12561 0.78041 0.32734 0.0
C1144 C 0.14085 0.80277 0.35578 0.0
C1145 C 0.13223 0.81314 0.40125 0.0
C1146 C 0.10917 0.80109 0.42007 0.0
H1147 H 0.0411 0.79091 0.35628 0.0
H1148 H 0.06742 0.80747 0.41151 0.0
H1149 H 0.06821 0.79431 0.32865 0.0
H1150 H 0.09139 0.75104 0.32458 0.0
H1151 H 0.13161 0.77188 0.29205 0.0
loop_
_geom_bond_atom_site_label_1
_geom_bond_atom_site_label_2
_geom_bond_distance
_geom_bond_site_symmetry_2
_ccdc_geom_bond_type
Dy0 O4 2.398 1_554 S
Dy0 O5 2.491 . S
Dy0 O6 2.403 1_554 S
Dy0 O7 2.664 1_554 S
Dy0 O11 2.326 1_554 S
Dy0 O15 2.310 . S
Dy0 O16 2.351 . S
C1 O12 1.185 1_556 S
C1 O13 1.355 . S
C2 O4 1.185 1_554 S
C2 O5 1.355 . S
Dy3 O7 2.310 1_654 S
Dy3 O10 2.351 1_554 S
Dy3 O12 2.398 . S
Dy3 O13 2.491 1_554 S
Dy3 O14 2.403 . S
Dy3 O15 2.664 1_655 S
Dy3 O17 2.326 1_655 S
O4 Dy0 2.398 1_556 S
O4 C2 1.185 1_556 S
O5 Dy0 2.491 . S
O5 C2 1.355 . S
O6 Dy0 2.403 1_556 S
O6 C8 1.254 . S
O7 Dy0 2.664 1_556 S
O7 Dy3 2.310 1_456 S
O7 C8 1.268 . S
C8 O6 1.254 . S
C8 O7 1.268 . S
C9 O14 1.254 1_455 S
C9 O15 1.268 . S
O10 Dy3 2.351 1_556 S
O10 C18 1.281 . S
O11 Dy0 2.326 1_556 S
O11 C18 1.238 1_455 S
O12 C1 1.185 1_554 S
O12 Dy3 2.398 . S
O13 C1 1.355 . S
O13 Dy3 2.491 1_556 S
O14 Dy3 2.403 . S
O14 C9 1.254 1_655 S
O15 Dy0 2.310 . S
O15 Dy3 2.664 1_455 S
O15 C9 1.268 . S
O16 Dy0 2.351 . S
O16 C19 1.249 . S
O17 Dy3 2.326 1_455 S
O17 C19 1.267 . S
C18 O10 1.281 . S
C18 O11 1.238 1_655 S
C19 O16 1.249 . S
C19 O17 1.267 . S
Dy20 O24 2.398 . S
Dy20 O25 2.491 . S
Dy20 O26 2.403 1_554 S
Dy20 O27 2.664 . S
Dy20 O31 2.326 . S
Dy20 O35 2.310 . S
Dy20 O36 2.351 . S
C21 O32 1.185 . S
C21 O33 1.355 . S
C22 O24 1.185 . S
C22 O25 1.355 . S
Dy23 O27 2.310 . S
Dy23 O30 2.351 . S
Dy23 O32 2.398 . S
Dy23 O33 2.491 . S
Dy23 O34 2.403 . S
Dy23 O35 2.664 . S
Dy23 O37 2.326 . S
O24 Dy20 2.398 . S
O24 C22 1.185 . S
O25 Dy20 2.491 . S
O25 C22 1.355 . S
O26 Dy20 2.403 1_556 S
O26 C28 1.254 . S
O27 Dy20 2.664 . S
O27 Dy23 2.310 . S
O27 C28 1.268 1_554 S
C28 O26 1.254 . S
C28 O27 1.268 1_556 S
C29 O34 1.254 . S
C29 O35 1.268 . S
O30 Dy23 2.351 . S
O30 C38 1.249 . S
O31 Dy20 2.326 . S
O31 C38 1.267 . S
O32 C21 1.185 . S
O32 Dy23 2.398 . S
O33 C21 1.355 . S
O33 Dy23 2.491 . S
O34 Dy23 2.403 . S
O34 C29 1.254 . S
O35 Dy20 2.310 . S
O35 Dy23 2.664 . S
O35 C29 1.268 . S
O36 Dy20 2.351 . S
O36 C39 1.249 . S
O37 Dy23 2.326 . S
O37 C39 1.267 . S
C38 O30 1.249 . S
C38 O31 1.267 . S
C39 O36 1.249 . S
C39 O37 1.267 . S
Dy40 O44 2.398 . S
Dy40 O45 2.491 . S
Dy40 O46 2.403 . S
Dy40 O47 2.664 . S
Dy40 O51 2.326 . S
Dy40 O55 2.310 . S
Dy40 O56 2.351 . S
C41 O52 1.185 . S
C41 O53 1.355 . S
C42 O44 1.185 . S
C42 O45 1.355 . S
Dy43 O47 2.310 . S
Dy43 O50 2.351 . S
Dy43 O52 2.398 . S
Dy43 O53 2.491 . S
Dy43 O54 2.403 . S
Dy43 O55 2.664 . S
Dy43 O57 2.326 . S
O44 Dy40 2.398 . S
O44 C42 1.185 . S
O45 Dy40 2.491 . S
O45 C42 1.355 . S
O46 Dy40 2.403 . S
O46 C48 1.254 . S
O47 Dy40 2.664 . S
O47 Dy43 2.310 . S
O47 C48 1.268 . S
C48 O46 1.254 . S
C48 O47 1.268 . S
C49 O54 1.254 . S
C49 O55 1.268 . S
O50 Dy43 2.351 . S
O50 C58 1.249 . S
O51 Dy40 2.326 . S
O51 C58 1.267 . S
O52 C41 1.185 . S
O52 Dy43 2.398 . S
O53 C41 1.355 . S
O53 Dy43 2.491 . S
O54 Dy43 2.403 . S
O54 C49 1.254 . S
O55 Dy40 2.310 . S
O55 Dy43 2.664 . S
O55 C49 1.268 . S
O56 Dy40 2.351 . S
O56 C59 1.249 . S
O57 Dy43 2.326 . S
O57 C59 1.267 . S
C58 O50 1.249 . S
C58 O51 1.267 . S
C59 O56 1.249 . S
C59 O57 1.267 . S
Dy60 O64 2.398 . S
Dy60 O65 2.491 . S
Dy60 O66 2.403 . S
Dy60 O67 2.664 . S
Dy60 O71 2.326 . S
Dy60 O75 2.310 . S
Dy60 O76 2.351 . S
C61 O72 1.185 . S
C61 O73 1.355 . S
C62 O64 1.185 . S
C62 O65 1.355 . S
Dy63 O67 2.310 . S
Dy63 O70 2.351 . S
Dy63 O72 2.398 . S
Dy63 O73 2.491 . S
Dy63 O74 2.403 . S
Dy63 O75 2.664 . S
Dy63 O77 2.326 . S
O64 Dy60 2.398 . S
O64 C62 1.185 . S
O65 Dy60 2.491 . S
O65 C62 1.355 . S
O66 Dy60 2.403 . S
O66 C68 1.254 . S
O67 Dy60 2.664 . S
O67 Dy63 2.310 . S
O67 C68 1.268 . S
C68 O66 1.254 . S
C68 O67 1.268 . S
C69 O74 1.254 . S
C69 O75 1.268 . S
O70 Dy63 2.351 . S
O70 C78 1.249 . S
O71 Dy60 2.326 . S
O71 C78 1.267 . S
O72 C61 1.185 . S
O72 Dy63 2.398 . S
O73 C61 1.355 . S
O73 Dy63 2.491 . S
O74 Dy63 2.403 . S
O74 C69 1.254 . S
O75 Dy60 2.310 . S
O75 Dy63 2.664 . S
O75 C69 1.268 . S
O76 Dy60 2.351 . S
O76 C79 1.249 . S
O77 Dy63 2.326 . S
O77 C79 1.267 . S
C78 O70 1.249 . S
C78 O71 1.267 . S
C79 O76 1.249 . S
C79 O77 1.267 . S
Dy80 O84 2.398 . S
Dy80 O85 2.491 . S
Dy80 O86 2.403 . S
Dy80 O87 2.664 . S
Dy80 O91 2.326 . S
Dy80 O95 2.310 . S
Dy80 O96 2.351 . S
C81 O92 1.185 . S
C81 O93 1.355 . S
C82 O84 1.185 . S
C82 O85 1.355 . S
Dy83 O87 2.310 . S
Dy83 O90 2.351 . S
Dy83 O92 2.398 . S
Dy83 O93 2.491 . S
Dy83 O94 2.403 . S
Dy83 O95 2.664 . S
Dy83 O97 2.326 . S
O84 Dy80 2.398 . S
O84 C82 1.185 . S
O85 Dy80 2.491 . S
O85 C82 1.355 . S
O86 Dy80 2.403 . S
O86 C88 1.254 . S
O87 Dy80 2.664 . S
O87 Dy83 2.310 . S
O87 C88 1.268 . S
C88 O86 1.254 . S
C88 O87 1.268 . S
C89 O94 1.254 . S
C89 O95 1.268 . S
O90 Dy83 2.351 . S
O90 C98 1.249 . S
O91 Dy80 2.326 . S
O91 C98 1.267 . S
O92 C81 1.185 . S
O92 Dy83 2.398 . S
O93 C81 1.355 . S
O93 Dy83 2.491 . S
O94 Dy83 2.403 . S
O94 C89 1.254 . S
O95 Dy80 2.310 . S
O95 Dy83 2.664 . S
O95 C89 1.268 . S
O96 Dy80 2.351 . S
O96 C99 1.249 . S
O97 Dy83 2.326 . S
O97 C99 1.267 . S
C98 O90 1.249 . S
C98 O91 1.267 . S
C99 O96 1.249 . S
C99 O97 1.267 . S
Dy100 O104 2.398 . S
Dy100 O105 2.491 . S
Dy100 O106 2.403 . S
Dy100 O107 2.664 . S
Dy100 O111 2.326 . S
Dy100 O115 2.310 . S
Dy100 O116 2.351 . S
C101 O112 1.185 . S
C101 O113 1.355 . S
C102 O104 1.185 . S
C102 O105 1.355 . S
Dy103 O107 2.310 . S
Dy103 O110 2.351 . S
Dy103 O112 2.398 . S
Dy103 O113 2.491 . S
Dy103 O114 2.403 . S
Dy103 O115 2.664 . S
Dy103 O117 2.326 . S
O104 Dy100 2.398 . S
O104 C102 1.185 . S
O105 Dy100 2.491 . S
O105 C102 1.355 . S
O106 Dy100 2.403 . S
O106 C108 1.254 . S
O107 Dy100 2.664 . S
O107 Dy103 2.310 . S
O107 C108 1.268 . S
C108 O106 1.254 . S
C108 O107 1.268 . S
C109 O114 1.254 . S
C109 O115 1.268 . S
O110 Dy103 2.351 . S
O110 C118 1.249 . S
O111 Dy100 2.326 . S
O111 C118 1.267 . S
O112 C101 1.185 . S
O112 Dy103 2.398 . S
O113 C101 1.355 . S
O113 Dy103 2.491 . S
O114 Dy103 2.403 . S
O114 C109 1.254 . S
O115 Dy100 2.310 . S
O115 Dy103 2.664 . S
O115 C109 1.268 . S
O116 Dy100 2.351 . S
O116 C119 1.249 . S
O117 Dy103 2.326 . S
O117 C119 1.267 . S
C118 O110 1.249 . S
C118 O111 1.267 . S
C119 O116 1.249 . S
C119 O117 1.267 . S
Dy120 O124 2.398 . S
Dy120 O125 2.491 . S
Dy120 O126 2.403 . S
Dy120 O127 2.664 . S
Dy120 O131 2.326 . S
Dy120 O135 2.310 . S
Dy120 O136 2.351 . S
C121 O132 1.185 . S
C121 O133 1.355 . S
C122 O124 1.185 . S
C122 O125 1.355 . S
Dy123 O127 2.310 . S
Dy123 O130 2.351 . S
Dy123 O132 2.398 . S
Dy123 O133 2.491 . S
Dy123 O134 2.403 . S
Dy123 O135 2.664 . S
Dy123 O137 2.326 . S
O124 Dy120 2.398 . S
O124 C122 1.185 . S
O125 Dy120 2.491 . S
O125 C122 1.355 . S
O126 Dy120 2.403 . S
O126 C128 1.254 . S
O127 Dy120 2.664 . S
O127 Dy123 2.310 . S
O127 C128 1.268 . S
C128 O126 1.254 . S
C128 O127 1.268 . S
C129 O134 1.254 . S
C129 O135 1.268 . S
O130 Dy123 2.351 . S
O130 C138 1.249 . S
O131 Dy120 2.326 . S
O131 C138 1.267 . S
O132 C121 1.185 . S
O132 Dy123 2.398 . S
O133 C121 1.355 . S
O133 Dy123 2.491 . S
O134 Dy123 2.403 . S
O134 C129 1.254 . S
O135 Dy120 2.310 . S
O135 Dy123 2.664 . S
O135 C129 1.268 . S
O136 Dy120 2.351 . S
O136 C139 1.249 . S
O137 Dy123 2.326 . S
O137 C139 1.267 . S
C138 O130 1.249 . S
C138 O131 1.267 . S
C139 O136 1.249 . S
C139 O137 1.267 . S
Dy140 O144 2.398 . S
Dy140 O145 2.491 . S
Dy140 O146 2.403 . S
Dy140 O147 2.664 . S
Dy140 O151 2.326 . S
Dy140 O155 2.310 . S
Dy140 O156 2.351 . S
C141 O152 1.185 . S
C141 O153 1.355 . S
C142 O144 1.185 . S
C142 O145 1.355 . S
Dy143 O147 2.310 . S
Dy143 O150 2.351 . S
Dy143 O152 2.398 . S
Dy143 O153 2.491 . S
Dy143 O154 2.403 . S
Dy143 O155 2.664 . S
Dy143 O157 2.326 . S
O144 Dy140 2.398 . S
O144 C142 1.185 . S
O145 Dy140 2.491 . S
O145 C142 1.355 . S
O146 Dy140 2.403 . S
O146 C148 1.254 . S
O147 Dy140 2.664 . S
O147 Dy143 2.310 . S
O147 C148 1.268 . S
C148 O146 1.254 . S
C148 O147 1.268 . S
C149 O154 1.254 . S
C149 O155 1.268 . S
O150 Dy143 2.351 . S
O150 C158 1.249 . S
O151 Dy140 2.326 . S
O151 C158 1.267 . S
O152 C141 1.185 . S
O152 Dy143 2.398 . S
O153 C141 1.355 . S
O153 Dy143 2.491 . S
O154 Dy143 2.403 . S
O154 C149 1.254 . S
O155 Dy140 2.310 . S
O155 Dy143 2.664 . S
O155 C149 1.268 . S
O156 Dy140 2.351 . S
O156 C159 1.249 . S
O157 Dy143 2.326 . S
O157 C159 1.267 . S
C158 O150 1.249 . S
C158 O151 1.267 . S
C159 O156 1.249 . S
C159 O157 1.267 . S
Dy160 O164 2.398 . S
Dy160 O165 2.491 . S
Dy160 O166 2.403 . S
Dy160 O167 2.664 . S
Dy160 O171 2.326 . S
Dy160 O175 2.310 . S
Dy160 O176 2.351 . S
C161 O172 1.185 . S
C161 O173 1.355 . S
C162 O164 1.185 . S
C162 O165 1.355 . S
Dy163 O167 2.310 . S
Dy163 O170 2.351 . S
Dy163 O172 2.398 . S
Dy163 O173 2.491 . S
Dy163 O174 2.403 . S
Dy163 O175 2.664 . S
Dy163 O177 2.326 . S
O164 Dy160 2.398 . S
O164 C162 1.185 . S
O165 Dy160 2.491 . S
O165 C162 1.355 . S
O166 Dy160 2.403 . S
O166 C168 1.254 . S
O167 Dy160 2.664 . S
O167 Dy163 2.310 . S
O167 C168 1.268 . S
C168 O166 1.254 . S
C168 O167 1.268 . S
C169 O174 1.254 . S
C169 O175 1.268 . S
O170 Dy163 2.351 . S
O170 C178 1.249 . S
O171 Dy160 2.326 . S
O171 C178 1.267 . S
O172 C161 1.185 . S
O172 Dy163 2.398 . S
O173 C161 1.355 . S
O173 Dy163 2.491 . S
O174 Dy163 2.403 . S
O174 C169 1.254 . S
O175 Dy160 2.310 . S
O175 Dy163 2.664 . S
O175 C169 1.268 . S
O176 Dy160 2.351 . S
O176 C179 1.249 . S
O177 Dy163 2.326 . S
O177 C179 1.267 . S
C178 O170 1.249 . S
C178 O171 1.267 . S
C179 O176 1.249 . S
C179 O177 1.267 . S
H180 C188 0.929 . S
H181 C190 0.930 . S
H182 C192 0.892 1_655 S
H183 C195 0.929 . S
H184 C198 0.930 . S
H185 C200 0.960 . S
H186 C200 0.960 . S
H187 C200 0.960 . S
C188 H180 0.929 . S
C188 C189 1.377 . S
C188 C190 1.384 . S
C189 C188 1.377 . S
C189 C195 1.390 . S
C190 H181 0.930 . S
C190 C188 1.384 . S
C190 C191 1.372 . S
C191 C190 1.372 . S
C191 C192 1.400 . S
C191 C196 1.490 . S
C192 H182 0.892 1_455 S
C192 C191 1.400 . S
C192 C195 1.386 . S
H193 C209 0.930 . S
H194 C210 0.953 . S
C195 H183 0.929 . S
C195 C189 1.390 . S
C195 C192 1.386 . S
C196 C191 1.490 . S
C196 C198 1.395 . S
C196 C199 1.403 . S
H197 C203 0.930 . S
C198 H184 0.930 . S
C198 C196 1.395 . S
C198 C201 1.403 . S
C199 C196 1.403 . S
C199 C200 1.524 . S
C199 C203 1.400 . S
C200 H185 0.960 . S
C200 H186 0.960 . S
C200 H187 0.960 . S
C200 C199 1.524 . S
C201 C198 1.403 . S
C201 C202 1.392 . S
C201 C205 1.495 . S
C202 C201 1.392 . S
C202 C203 1.385 . S
C202 C204 1.478 . S
C203 H197 0.930 . S
C203 C199 1.400 . S
C203 C202 1.385 . S
C204 C202 1.478 . S
C204 C206 1.381 . S
C204 C210 1.360 1_455 S
C205 C201 1.495 . S
C205 H211 0.959 . S
C205 H212 0.961 . S
C205 H213 0.960 . S
C206 C204 1.381 . S
C206 C207 1.394 . S
C206 H214 0.930 . S
C207 C206 1.394 . S
C207 C208 1.383 . S
C207 H215 0.929 . S
C208 C207 1.383 . S
C208 C209 1.377 1_455 S
C209 H193 0.930 . S
C209 C208 1.377 1_655 S
C209 C210 1.381 . S
C210 H194 0.953 . S
C210 C204 1.360 1_655 S
C210 C209 1.381 . S
H211 C205 0.959 . S
H212 C205 0.961 . S
H213 C205 0.960 . S
H214 C206 0.930 . S
H215 C207 0.929 . S
H216 C224 0.929 . S
H217 C226 0.930 . S
H218 C228 0.930 . S
H219 C231 0.929 . S
H220 C234 0.930 . S
H221 C236 0.960 . S
H222 C236 0.960 . S
H223 C236 0.960 . S
C224 H216 0.929 . S
C224 C225 1.377 . S
C224 C226 1.384 . S
C225 C224 1.377 . S
C225 C231 1.390 . S
C226 H217 0.930 . S
C226 C224 1.384 . S
C226 C227 1.372 . S
C227 C226 1.372 . S
C227 C228 1.400 . S
C227 C232 1.490 . S
C228 H218 0.930 . S
C228 C227 1.400 . S
C228 C231 1.386 . S
H229 C245 0.930 . S
H230 C246 0.931 . S
C231 H219 0.929 . S
C231 C225 1.390 . S
C231 C228 1.386 . S
C232 C227 1.490 . S
C232 C234 1.395 . S
C232 C235 1.403 . S
H233 C239 0.930 . S
C234 H220 0.930 . S
C234 C232 1.395 . S
C234 C237 1.403 . S
C235 C232 1.403 . S
C235 C236 1.524 . S
C235 C239 1.400 . S
C236 H221 0.960 . S
C236 H222 0.960 . S
C236 H223 0.960 . S
C236 C235 1.524 . S
C237 C234 1.403 . S
C237 C238 1.392 . S
C237 C241 1.495 . S
C238 C237 1.392 . S
C238 C239 1.385 . S
C238 C240 1.478 . S
C239 H233 0.930 . S
C239 C235 1.400 . S
C239 C238 1.385 . S
C240 C238 1.478 . S
C240 C242 1.381 . S
C240 C246 1.383 . S
C241 C237 1.495 . S
C241 H247 0.959 . S
C241 H248 0.961 . S
C241 H249 0.960 . S
C242 C240 1.381 . S
C242 C243 1.394 . S
C242 H250 0.930 . S
C243 C242 1.394 . S
C243 C244 1.383 . S
C243 H251 0.929 . S
C244 C243 1.383 . S
C244 C245 1.377 . S
C245 H229 0.930 . S
C245 C244 1.377 . S
C245 C246 1.379 . S
C246 H230 0.931 . S
C246 C240 1.383 . S
C246 C245 1.379 . S
H247 C241 0.959 . S
H248 C241 0.961 . S
H249 C241 0.960 . S
H250 C242 0.930 . S
H251 C243 0.929 . S
H252 C260 0.929 . S
H253 C262 0.930 . S
H254 C264 0.930 . S
H255 C267 0.929 . S
H256 C270 0.930 . S
H257 C272 0.960 . S
H258 C272 0.960 . S
H259 C272 0.960 . S
C260 H252 0.929 . S
C260 C261 1.377 . S
C260 C262 1.384 . S
C261 C260 1.377 . S
C261 C267 1.390 . S
C262 H253 0.930 . S
C262 C260 1.384 . S
C262 C263 1.372 . S
C263 C262 1.372 . S
C263 C264 1.400 . S
C263 C268 1.490 . S
C264 H254 0.930 . S
C264 C263 1.400 . S
C264 C267 1.386 . S
H265 C281 0.930 . S
H266 C282 0.931 . S
C267 H255 0.929 . S
C267 C261 1.390 . S
C267 C264 1.386 . S
C268 C263 1.490 . S
C268 C270 1.395 . S
C268 C271 1.403 . S
H269 C275 0.930 . S
C270 H256 0.930 . S
C270 C268 1.395 . S
C270 C273 1.403 . S
C271 C268 1.403 . S
C271 C272 1.524 . S
C271 C275 1.400 . S
C272 H257 0.960 . S
C272 H258 0.960 . S
C272 H259 0.960 . S
C272 C271 1.524 . S
C273 C270 1.403 . S
C273 C274 1.392 . S
C273 C277 1.495 . S
C274 C273 1.392 . S
C274 C275 1.385 . S
C274 C276 1.478 . S
C275 H269 0.930 . S
C275 C271 1.400 . S
C275 C274 1.385 . S
C276 C274 1.478 . S
C276 C278 1.381 . S
C276 C282 1.383 . S
C277 C273 1.495 . S
C277 H283 0.959 . S
C277 H284 0.961 . S
C277 H285 0.960 . S
C278 C276 1.381 . S
C278 C279 1.394 . S
C278 H286 0.930 . S
C279 C278 1.394 . S
C279 C280 1.383 . S
C279 H287 0.929 . S
C280 C279 1.383 . S
C280 C281 1.377 . S
C281 H265 0.930 . S
C281 C280 1.377 . S
C281 C282 1.379 . S
C282 H266 0.931 . S
C282 C276 1.383 . S
C282 C281 1.379 . S
H283 C277 0.959 . S
H284 C277 0.961 . S
H285 C277 0.960 . S
H286 C278 0.930 . S
H287 C279 0.929 . S
H288 C296 0.929 . S
H289 C298 0.930 . S
H290 C300 0.930 . S
H291 C303 0.929 . S
H292 C306 0.930 . S
H293 C308 0.960 . S
H294 C308 0.960 . S
H295 C308 0.960 . S
C296 H288 0.929 . S
C296 C297 1.377 . S
C296 C298 1.384 . S
C297 C296 1.377 . S
C297 C303 1.390 . S
C298 H289 0.930 . S
C298 C296 1.384 . S
C298 C299 1.372 . S
C299 C298 1.372 . S
C299 C300 1.400 . S
C299 C304 1.490 . S
C300 H290 0.930 . S
C300 C299 1.400 . S
C300 C303 1.386 . S
H301 C317 0.930 . S
H302 C318 0.931 . S
C303 H291 0.929 . S
C303 C297 1.390 . S
C303 C300 1.386 . S
C304 C299 1.490 . S
C304 C306 1.395 . S
C304 C307 1.403 . S
H305 C311 0.930 . S
C306 H292 0.930 . S
C306 C304 1.395 . S
C306 C309 1.403 . S
C307 C304 1.403 . S
C307 C308 1.524 . S
C307 C311 1.400 . S
C308 H293 0.960 . S
C308 H294 0.960 . S
C308 H295 0.960 . S
C308 C307 1.524 . S
C309 C306 1.403 . S
C309 C310 1.392 . S
C309 C313 1.495 . S
C310 C309 1.392 . S
C310 C311 1.385 . S
C310 C312 1.478 . S
C311 H305 0.930 . S
C311 C307 1.400 . S
C311 C310 1.385 . S
C312 C310 1.478 . S
C312 C314 1.381 1_556 S
C312 C318 1.383 1_556 S
C313 C309 1.495 . S
C313 H319 0.959 . S
C313 H320 0.961 . S
C313 H321 0.960 . S
C314 C312 1.381 1_554 S
C314 C315 1.394 . S
C314 H322 0.930 . S
C315 C314 1.394 . S
C315 C316 1.383 . S
C315 H323 0.929 . S
C316 C315 1.383 . S
C316 C317 1.377 . S
C317 H301 0.930 . S
C317 C316 1.377 . S
C317 C318 1.379 . S
C318 H302 0.931 . S
C318 C312 1.383 1_554 S
C318 C317 1.379 . S
H319 C313 0.959 . S
H320 C313 0.961 . S
H321 C313 0.960 . S
H322 C314 0.930 . S
H323 C315 0.929 . S
H324 C332 0.929 . S
H325 C334 0.930 . S
H326 C336 0.930 . S
H327 C339 0.929 . S
H328 C342 0.930 . S
H329 C344 0.960 . S
H330 C344 0.960 . S
H331 C344 0.960 . S
C332 H324 0.929 . S
C332 C333 1.377 . S
C332 C334 1.384 . S
C333 C332 1.377 . S
C333 C339 1.390 . S
C334 H325 0.930 . S
C334 C332 1.384 . S
C334 C335 1.372 . S
C335 C334 1.372 . S
C335 C336 1.400 . S
C335 C340 1.490 . S
C336 H326 0.930 . S
C336 C335 1.400 . S
C336 C339 1.386 . S
H337 C353 0.930 . S
H338 C354 0.931 . S
C339 H327 0.929 . S
C339 C333 1.390 . S
C339 C336 1.386 . S
C340 C335 1.490 . S
C340 C342 1.395 . S
C340 C343 1.403 . S
H341 C347 0.930 . S
C342 H328 0.930 . S
C342 C340 1.395 . S
C342 C345 1.403 . S
C343 C340 1.403 . S
C343 C344 1.524 . S
C343 C347 1.400 . S
C344 H329 0.960 . S
C344 H330 0.960 . S
C344 H331 0.960 . S
C344 C343 1.524 . S
C345 C342 1.403 . S
C345 C346 1.392 . S
C345 C349 1.495 . S
C346 C345 1.392 . S
C346 C347 1.385 . S
C346 C348 1.478 . S
C347 H341 0.930 . S
C347 C343 1.400 . S
C347 C346 1.385 . S
C348 C346 1.478 . S
C348 C350 1.381 . S
C348 C354 1.383 . S
C349 C345 1.495 . S
C349 H355 0.959 . S
C349 H356 0.961 . S
C349 H357 0.960 . S
C350 C348 1.381 . S
C350 C351 1.394 1_556 S
C350 H358 0.930 . S
C351 C350 1.394 1_554 S
C351 C352 1.383 . S
C351 H359 0.929 . S
C352 C351 1.383 . S
C352 C353 1.377 . S
C353 H337 0.930 . S
C353 C352 1.377 . S
C353 C354 1.379 1_554 S
C354 H338 0.931 . S
C354 C348 1.383 . S
C354 C353 1.379 1_556 S
H355 C349 0.959 . S
H356 C349 0.961 . S
H357 C349 0.960 . S
H358 C350 0.930 . S
H359 C351 0.929 . S
H360 C368 0.929 . S
H361 C370 0.930 . S
H362 C372 0.930 . S
H363 C375 0.929 . S
H364 C378 0.930 . S
H365 C380 0.960 . S
H366 C380 0.960 . S
H367 C380 0.960 . S
C368 H360 0.929 . S
C368 C369 1.377 . S
C368 C370 1.384 . S
C369 C368 1.377 . S
C369 C375 1.390 . S
C370 H361 0.930 . S
C370 C368 1.384 . S
C370 C371 1.372 . S
C371 C370 1.372 . S
C371 C372 1.400 . S
C371 C376 1.490 . S
C372 H362 0.930 . S
C372 C371 1.400 . S
C372 C375 1.386 . S
H373 C389 0.930 . S
H374 C390 0.931 . S
C375 H363 0.929 . S
C375 C369 1.390 . S
C375 C372 1.386 . S
C376 C371 1.490 . S
C376 C378 1.395 . S
C376 C379 1.403 . S
H377 C383 0.930 . S
C378 H364 0.930 . S
C378 C376 1.395 . S
C378 C381 1.403 . S
C379 C376 1.403 . S
C379 C380 1.524 . S
C379 C383 1.400 . S
C380 H365 0.960 . S
C380 H366 0.960 . S
C380 H367 0.960 . S
C380 C379 1.524 . S
C381 C378 1.403 . S
C381 C382 1.392 . S
C381 C385 1.495 . S
C382 C381 1.392 . S
C382 C383 1.385 . S
C382 C384 1.478 . S
C383 H377 0.930 . S
C383 C379 1.400 . S
C383 C382 1.385 . S
C384 C382 1.478 . S
C384 C386 1.381 . S
C384 C390 1.383 . S
C385 C381 1.495 . S
C385 H391 0.959 . S
C385 H392 0.961 . S
C385 H393 0.960 . S
C386 C384 1.381 . S
C386 C387 1.394 . S
C386 H394 0.930 . S
C387 C386 1.394 . S
C387 C388 1.383 . S
C387 H395 0.929 . S
C388 C387 1.383 . S
C388 C389 1.377 . S
C389 H373 0.930 . S
C389 C388 1.377 . S
C389 C390 1.379 . S
C390 H374 0.931 . S
C390 C384 1.383 . S
C390 C389 1.379 . S
H391 C385 0.959 . S
H392 C385 0.961 . S
H393 C385 0.960 . S
H394 C386 0.930 . S
H395 C387 0.929 . S
H396 C404 0.929 . S
H397 C406 0.930 . S
H398 C408 0.930 . S
H399 C411 0.929 . S
H400 C414 0.930 . S
H401 C416 0.960 . S
H402 C416 0.960 . S
H403 C416 0.960 . S
C404 H396 0.929 . S
C404 C405 1.377 . S
C404 C406 1.384 . S
C405 C404 1.377 . S
C405 C411 1.390 . S
C406 H397 0.930 . S
C406 C404 1.384 . S
C406 C407 1.372 . S
C407 C406 1.372 . S
C407 C408 1.400 . S
C407 C412 1.490 . S
C408 H398 0.930 . S
C408 C407 1.400 . S
C408 C411 1.386 . S
H409 C425 0.930 . S
H410 C426 0.922 1_554 S
C411 H399 0.929 . S
C411 C405 1.390 . S
C411 C408 1.386 . S
C412 C407 1.490 . S
C412 C414 1.395 . S
C412 C415 1.403 . S
H413 C419 0.930 . S
C414 H400 0.930 . S
C414 C412 1.395 . S
C414 C417 1.403 . S
C415 C412 1.403 . S
C415 C416 1.524 . S
C415 C419 1.400 . S
C416 H401 0.960 . S
C416 H402 0.960 . S
C416 H403 0.960 . S
C416 C415 1.524 . S
C417 C414 1.403 . S
C417 C418 1.392 . S
C417 C421 1.495 . S
C418 C417 1.392 . S
C418 C419 1.385 . S
C418 C420 1.478 . S
C419 H413 0.930 . S
C419 C415 1.400 . S
C419 C418 1.385 . S
C420 C418 1.478 . S
C420 C422 1.381 1_554 S
C420 C426 1.377 1_554 S
C421 C417 1.495 . S
C421 H427 0.959 . S
C421 H428 0.961 . S
C421 H429 0.960 . S
C422 C420 1.381 1_556 S
C422 C423 1.394 . S
C422 H430 0.930 1_556 S
C423 C422 1.394 . S
C423 C424 1.383 . S
C423 H431 0.929 . S
C424 C423 1.383 . S
C424 C425 1.377 . S
C425 H409 0.930 . S
C425 C424 1.377 . S
C425 C426 1.394 . S
C426 H410 0.922 1_556 S
C426 C420 1.377 1_556 S
C426 C425 1.394 . S
H427 C421 0.959 . S
H428 C421 0.961 . S
H429 C421 0.960 . S
H430 C422 0.930 1_554 S
H431 C423 0.929 . S
H432 C440 0.929 . S
H433 C442 0.930 . S
H434 C444 0.930 . S
H435 C447 0.929 . S
H436 C450 0.930 . S
H437 C452 0.960 . S
H438 C452 0.960 . S
H439 C452 0.960 . S
C440 H432 0.929 . S
C440 C441 1.377 . S
C440 C442 1.384 . S
C441 C440 1.377 . S
C441 C447 1.390 . S
C442 H433 0.930 . S
C442 C440 1.384 . S
C442 C443 1.372 . S
C443 C442 1.372 . S
C443 C444 1.400 . S
C443 C448 1.490 . S
C444 H434 0.930 . S
C444 C443 1.400 . S
C444 C447 1.386 . S
H445 C461 0.930 . S
H446 C462 0.931 1_554 S
C447 H435 0.929 . S
C447 C441 1.390 . S
C447 C444 1.386 . S
C448 C443 1.490 . S
C448 C450 1.395 . S
C448 C451 1.403 . S
H449 C455 0.930 . S
C450 H436 0.930 . S
C450 C448 1.395 . S
C450 C453 1.403 . S
C451 C448 1.403 . S
C451 C452 1.524 . S
C451 C455 1.400 . S
C452 H437 0.960 . S
C452 H438 0.960 . S
C452 H439 0.960 . S
C452 C451 1.524 . S
C453 C450 1.403 . S
C453 C454 1.392 . S
C453 C457 1.495 . S
C454 C453 1.392 . S
C454 C455 1.385 . S
C454 C456 1.478 . S
C455 H449 0.930 . S
C455 C451 1.400 . S
C455 C454 1.385 . S
C456 C454 1.478 . S
C456 C458 1.381 1_554 S
C456 C462 1.383 1_554 S
C457 C453 1.495 . S
C457 H463 0.959 . S
C457 H464 0.961 . S
C457 H465 0.960 . S
C458 C456 1.381 1_556 S
C458 C459 1.394 . S
C458 H466 0.930 1_556 S
C459 C458 1.394 . S
C459 C460 1.383 . S
C459 H467 0.929 . S
C460 C459 1.383 . S
C460 C461 1.377 . S
C461 H445 0.930 . S
C461 C460 1.377 . S
C461 C462 1.379 . S
C462 H446 0.931 1_556 S
C462 C456 1.383 1_556 S
C462 C461 1.379 . S
H463 C457 0.959 . S
H464 C457 0.961 . S
H465 C457 0.960 . S
H466 C458 0.930 1_554 S
H467 C459 0.929 . S
H468 C476 0.929 . S
H469 C478 0.930 . S
H470 C480 0.930 . S
H471 C483 0.929 . S
H472 C486 0.930 . S
H473 C488 0.960 . S
H474 C488 0.960 . S
H475 C488 0.960 . S
C476 H468 0.929 . S
C476 C477 1.377 . S
C476 C478 1.384 . S
C477 C476 1.377 . S
C477 C483 1.390 . S
C478 H469 0.930 . S
C478 C476 1.384 . S
C478 C479 1.372 . S
C479 C478 1.372 . S
C479 C480 1.400 . S
C479 C484 1.490 . S
C480 H470 0.930 . S
C480 C479 1.400 . S
C480 C483 1.386 . S
H481 C497 0.930 . S
H482 C498 0.931 . S
C483 H471 0.929 . S
C483 C477 1.390 . S
C483 C480 1.386 . S
C484 C479 1.490 . S
C484 C486 1.395 . S
C484 C487 1.403 . S
H485 C491 0.930 . S
C486 H472 0.930 . S
C486 C484 1.395 . S
C486 C489 1.403 . S
C487 C484 1.403 . S
C487 C488 1.524 . S
C487 C491 1.400 . S
C488 H473 0.960 . S
C488 H474 0.960 . S
C488 H475 0.960 . S
C488 C487 1.524 . S
C489 C486 1.403 . S
C489 C490 1.392 . S
C489 C493 1.495 . S
C490 C489 1.392 . S
C490 C491 1.385 . S
C490 C492 1.478 . S
C491 H485 0.930 . S
C491 C487 1.400 . S
C491 C490 1.385 . S
C492 C490 1.478 . S
C492 C494 1.381 1_554 S
C492 C498 1.383 . S
C493 C489 1.495 . S
C493 H499 0.959 . S
C493 H500 0.961 . S
C493 H501 0.960 . S
C494 C492 1.381 1_556 S
C494 C495 1.394 . S
C494 H502 0.930 1_556 S
C495 C494 1.394 . S
C495 C496 1.383 . S
C495 H503 0.929 . S
C496 C495 1.383 . S
C496 C497 1.377 . S
C497 H481 0.930 . S
C497 C496 1.377 . S
C497 C498 1.379 1_556 S
C498 H482 0.931 . S
C498 C492 1.383 . S
C498 C497 1.379 1_554 S
H499 C493 0.959 . S
H500 C493 0.961 . S
H501 C493 0.960 . S
H502 C494 0.930 1_554 S
H503 C495 0.929 . S
H504 C512 0.929 . S
H505 C514 0.930 . S
H506 C516 0.930 . S
H507 C519 0.929 . S
H508 C522 0.930 . S
H509 C524 0.960 1_556 S
H510 C524 0.960 1_556 S
H511 C524 0.960 . S
C512 H504 0.929 . S
C512 C513 1.377 . S
C512 C514 1.384 . S
C513 C512 1.377 . S
C513 C519 1.390 . S
C514 H505 0.930 . S
C514 C512 1.384 . S
C514 C515 1.372 . S
C515 C514 1.372 . S
C515 C516 1.400 . S
C515 C520 1.490 . S
C516 H506 0.930 . S
C516 C515 1.400 . S
C516 C519 1.386 . S
H517 C533 0.930 . S
H518 C534 0.931 . S
C519 H507 0.929 . S
C519 C513 1.390 . S
C519 C516 1.386 . S
C520 C515 1.490 . S
C520 C522 1.395 . S
C520 C523 1.403 . S
H521 C527 0.930 . S
C522 H508 0.930 . S
C522 C520 1.395 . S
C522 C525 1.403 . S
C523 C520 1.403 . S
C523 C524 1.524 . S
C523 C527 1.400 . S
C524 H509 0.960 1_554 S
C524 H510 0.960 1_554 S
C524 H511 0.960 . S
C524 C523 1.524 . S
C525 C522 1.403 . S
C525 C526 1.392 . S
C525 C529 1.495 . S
C526 C525 1.392 . S
C526 C527 1.385 . S
C526 C528 1.478 . S
C527 H521 0.930 . S
C527 C523 1.400 . S
C527 C526 1.385 . S
C528 C526 1.478 . S
C528 C530 1.381 . S
C528 C534 1.383 . S
C529 C525 1.495 . S
C529 H535 0.959 . S
C529 H536 0.961 . S
C529 H537 0.960 . S
C530 C528 1.381 . S
C530 C531 1.394 . S
C530 H538 0.930 . S
C531 C530 1.394 . S
C531 C532 1.383 . S
C531 H539 0.929 . S
C532 C531 1.383 . S
C532 C533 1.377 . S
C533 H517 0.930 . S
C533 C532 1.377 . S
C533 C534 1.379 . S
C534 H518 0.931 . S
C534 C528 1.383 . S
C534 C533 1.379 . S
H535 C529 0.959 . S
H536 C529 0.961 . S
H537 C529 0.960 . S
H538 C530 0.930 . S
H539 C531 0.929 . S
H540 C548 0.929 . S
H541 C550 0.930 . S
H542 C552 0.930 . S
H543 C555 0.929 . S
H544 C558 0.930 . S
H545 C560 0.960 . S
H546 C560 0.960 . S
H547 C560 0.960 . S
C548 H540 0.929 . S
C548 C549 1.377 . S
C548 C550 1.384 . S
C549 C548 1.377 . S
C549 C555 1.390 . S
C550 H541 0.930 . S
C550 C548 1.384 . S
C550 C551 1.372 . S
C551 C550 1.372 . S
C551 C552 1.400 . S
C551 C556 1.490 . S
C552 H542 0.930 . S
C552 C551 1.400 . S
C552 C555 1.386 . S
H553 C569 0.930 . S
H554 C570 0.931 . S
C555 H543 0.929 . S
C555 C549 1.390 . S
C555 C552 1.386 . S
C556 C551 1.490 . S
C556 C558 1.395 . S
C556 C559 1.403 . S
H557 C563 0.930 . S
C558 H544 0.930 . S
C558 C556 1.395 . S
C558 C561 1.403 . S
C559 C556 1.403 . S
C559 C560 1.524 . S
C559 C563 1.400 . S
C560 H545 0.960 . S
C560 H546 0.960 . S
C560 H547 0.960 . S
C560 C559 1.524 . S
C561 C558 1.403 . S
C561 C562 1.392 . S
C561 C565 1.495 . S
C562 C561 1.392 . S
C562 C563 1.385 . S
C562 C564 1.478 . S
C563 H557 0.930 . S
C563 C559 1.400 . S
C563 C562 1.385 . S
C564 C562 1.478 . S
C564 C566 1.381 . S
C564 C570 1.383 . S
C565 C561 1.495 . S
C565 H571 0.959 . S
C565 H572 0.961 . S
C565 H573 0.960 . S
C566 C564 1.381 . S
C566 C567 1.394 . S
C566 H574 0.930 . S
C567 C566 1.394 . S
C567 C568 1.383 . S
C567 H575 0.929 . S
C568 C567 1.383 . S
C568 C569 1.377 . S
C569 H553 0.930 . S
C569 C568 1.377 . S
C569 C570 1.379 . S
C570 H554 0.931 . S
C570 C564 1.383 . S
C570 C569 1.379 . S
H571 C565 0.959 . S
H572 C565 0.961 . S
H573 C565 0.960 . S
H574 C566 0.930 . S
H575 C567 0.929 . S
H576 C584 0.949 . S
H577 C586 0.930 . S
H578 C588 0.930 . S
H579 C591 0.929 . S
H580 C594 0.930 . S
H581 C596 0.960 . S
H582 C596 0.960 . S
H583 C596 0.960 . S
C584 H576 0.949 . S
C584 C585 1.377 . S
C584 C586 1.384 . S
C585 C584 1.377 . S
C585 C591 1.390 . S
C586 H577 0.930 . S
C586 C584 1.384 . S
C586 C587 1.372 . S
C587 C586 1.372 . S
C587 C588 1.400 . S
C587 C592 1.490 . S
C588 H578 0.930 . S
C588 C587 1.400 . S
C588 C591 1.386 . S
H589 C605 0.930 . S
H590 C606 0.931 . S
C591 H579 0.929 . S
C591 C585 1.390 . S
C591 C588 1.386 . S
C592 C587 1.490 . S
C592 C594 1.395 . S
C592 C595 1.403 . S
H593 C599 0.930 . S
C594 H580 0.930 . S
C594 C592 1.395 . S
C594 C597 1.403 . S
C595 C592 1.403 . S
C595 C596 1.524 . S
C595 C599 1.400 . S
C596 H581 0.960 . S
C596 H582 0.960 . S
C596 H583 0.960 . S
C596 C595 1.524 . S
C597 C594 1.403 . S
C597 C598 1.392 . S
C597 C601 1.495 . S
C598 C597 1.392 . S
C598 C599 1.385 . S
C598 C600 1.478 . S
C599 H593 0.930 . S
C599 C595 1.400 . S
C599 C598 1.385 . S
C600 C598 1.478 . S
C600 C602 1.381 . S
C600 C606 1.383 . S
C601 C597 1.495 . S
C601 H607 0.959 . S
C601 H608 0.961 . S
C601 H609 0.960 . S
C602 C600 1.381 . S
C602 C603 1.394 . S
C602 H610 0.930 . S
C603 C602 1.394 . S
C603 C604 1.383 . S
C603 H611 0.929 . S
C604 C603 1.383 . S
C604 C605 1.377 . S
C605 H589 0.930 . S
C605 C604 1.377 . S
C605 C606 1.379 . S
C606 H590 0.931 . S
C606 C600 1.383 . S
C606 C605 1.379 . S
H607 C601 0.959 . S
H608 C601 0.961 . S
H609 C601 0.960 . S
H610 C602 0.930 . S
H611 C603 0.929 . S
H612 C620 0.929 . S
H613 C622 0.930 . S
H614 C624 0.930 . S
H615 C627 0.929 . S
H616 C630 0.930 . S
H617 C632 0.960 . S
H618 C632 0.960 . S
H619 C632 0.960 . S
C620 H612 0.929 . S
C620 C621 1.377 . S
C620 C622 1.384 . S
C621 C620 1.377 . S
C621 C627 1.390 . S
C622 H613 0.930 . S
C622 C620 1.384 . S
C622 C623 1.372 . S
C623 C622 1.372 . S
C623 C624 1.400 . S
C623 C628 1.490 . S
C624 H614 0.930 . S
C624 C623 1.400 . S
C624 C627 1.386 . S
H625 C641 0.930 . S
H626 C642 0.931 . S
C627 H615 0.929 . S
C627 C621 1.390 . S
C627 C624 1.386 . S
C628 C623 1.490 . S
C628 C630 1.395 . S
C628 C631 1.403 1_554 S
H629 C635 0.930 . S
C630 H616 0.930 . S
C630 C628 1.395 . S
C630 C633 1.409 . S
C631 C628 1.403 1_556 S
C631 C632 1.524 . S
C631 C635 1.400 . S
C632 H617 0.960 . S
C632 H618 0.960 . S
C632 H619 0.960 . S
C632 C631 1.524 . S
C633 C630 1.409 . S
C633 C634 1.380 1_554 S
C633 C637 1.502 . S
C634 C633 1.380 1_556 S
C634 C635 1.385 . S
C634 C636 1.478 . S
C635 H629 0.930 . S
C635 C631 1.400 . S
C635 C634 1.385 . S
C636 C634 1.478 . S
C636 C638 1.381 . S
C636 C642 1.383 . S
C637 C633 1.502 . S
C637 H643 0.959 . S
C637 H644 0.961 . S
C637 H645 0.960 . S
C638 C636 1.381 . S
C638 C639 1.394 . S
C638 H646 0.930 . S
C639 C638 1.394 . S
C639 C640 1.383 . S
C639 H647 0.929 . S
C640 C639 1.383 . S
C640 C641 1.377 . S
C641 H625 0.930 . S
C641 C640 1.377 . S
C641 C642 1.379 . S
C642 H626 0.931 . S
C642 C636 1.383 . S
C642 C641 1.379 . S
H643 C637 0.959 . S
H644 C637 0.961 . S
H645 C637 0.960 . S
H646 C638 0.930 . S
H647 C639 0.929 . S
H648 C656 0.929 . S
H649 C658 0.930 . S
H650 C660 0.930 . S
H651 C663 0.929 . S
H652 C666 0.930 . S
H653 C668 0.960 . S
H654 C668 0.960 . S
H655 C668 0.960 . S
C656 H648 0.929 . S
C656 C657 1.377 . S
C656 C658 1.384 . S
C657 C656 1.377 . S
C657 C663 1.390 . S
C658 H649 0.930 . S
C658 C656 1.384 . S
C658 C659 1.372 . S
C659 C658 1.372 . S
C659 C660 1.400 . S
C659 C664 1.490 . S
C660 H650 0.930 . S
C660 C659 1.400 . S
C660 C663 1.386 . S
H661 C677 0.930 . S
H662 C678 0.931 1_554 S
C663 H651 0.929 . S
C663 C657 1.390 . S
C663 C660 1.386 . S
C664 C659 1.490 . S
C664 C666 1.395 . S
C664 C667 1.403 . S
H665 C671 0.930 . S
C666 H652 0.930 . S
C666 C664 1.395 . S
C666 C669 1.403 . S
C667 C664 1.403 . S
C667 C668 1.524 . S
C667 C671 1.400 . S
C668 H653 0.960 . S
C668 H654 0.960 . S
C668 H655 0.960 . S
C668 C667 1.524 . S
C669 C666 1.403 . S
C669 C670 1.392 . S
C669 C673 1.495 . S
C670 C669 1.392 . S
C670 C671 1.385 . S
C670 C672 1.478 . S
C671 H665 0.930 . S
C671 C667 1.400 . S
C671 C670 1.385 . S
C672 C670 1.478 . S
C672 C674 1.381 . S
C672 C678 1.383 . S
C673 C669 1.495 . S
C673 H679 0.959 . S
C673 H680 0.961 . S
C673 H681 0.960 . S
C674 C672 1.381 . S
C674 C675 1.394 . S
C674 H682 0.930 . S
C675 C674 1.394 . S
C675 C676 1.383 . S
C675 H683 0.929 1_655 S
C676 C675 1.383 . S
C676 C677 1.377 1_556 S
C677 H661 0.930 . S
C677 C676 1.377 1_554 S
C677 C678 1.379 1_554 S
C678 H662 0.931 1_556 S
C678 C672 1.383 . S
C678 C677 1.379 1_556 S
H679 C673 0.959 . S
H680 C673 0.961 . S
H681 C673 0.960 . S
H682 C674 0.930 . S
H683 C675 0.929 1_455 S
H684 C692 0.929 . S
H685 C694 0.930 . S
H686 C696 0.930 . S
H687 C699 0.929 . S
H688 C702 0.930 . S
H689 C704 0.960 . S
H690 C704 0.960 . S
H691 C704 0.960 . S
C692 H684 0.929 . S
C692 C693 1.377 . S
C692 C694 1.384 . S
C693 C692 1.377 . S
C693 C699 1.390 . S
C694 H685 0.930 . S
C694 C692 1.384 . S
C694 C695 1.372 . S
C695 C694 1.372 . S
C695 C696 1.400 . S
C695 C700 1.490 . S
C696 H686 0.930 . S
C696 C695 1.400 . S
C696 C699 1.386 . S
H697 C713 0.930 . S
H698 C714 0.931 . S
C699 H687 0.929 . S
C699 C693 1.390 . S
C699 C696 1.386 . S
C700 C695 1.490 . S
C700 C702 1.395 . S
C700 C703 1.403 . S
H701 C707 0.930 1_554 S
C702 H688 0.930 . S
C702 C700 1.395 . S
C702 C705 1.403 . S
C703 C700 1.403 . S
C703 C704 1.524 . S
C703 C707 1.400 . S
C704 H689 0.960 . S
C704 H690 0.960 . S
C704 H691 0.960 . S
C704 C703 1.524 . S
C705 C702 1.403 . S
C705 C706 1.392 . S
C705 C709 1.495 . S
C706 C705 1.392 . S
C706 C707 1.385 . S
C706 C708 1.478 . S
C707 H701 0.930 1_556 S
C707 C703 1.400 . S
C707 C706 1.385 . S
C708 C706 1.478 . S
C708 C710 1.381 1_556 S
C708 C714 1.383 . S
C709 C705 1.495 . S
C709 H715 0.959 . S
C709 H716 0.961 . S
C709 H717 0.960 . S
C710 C708 1.381 1_554 S
C710 C711 1.394 . S
C710 H718 0.930 . S
C711 C710 1.394 . S
C711 C712 1.383 . S
C711 H719 0.929 . S
C712 C711 1.383 . S
C712 C713 1.377 . S
C713 H697 0.930 . S
C713 C712 1.377 . S
C713 C714 1.379 1_554 S
C714 H698 0.931 . S
C714 C708 1.383 . S
C714 C713 1.379 1_556 S
H715 C709 0.959 . S
H716 C709 0.961 . S
H717 C709 0.960 . S
H718 C710 0.930 . S
H719 C711 0.929 . S
H720 C728 0.929 . S
H721 C730 0.930 . S
H722 C732 0.930 . S
H723 C735 0.929 . S
H724 C738 0.930 . S
H725 C740 0.960 . S
H726 C740 0.960 . S
H727 C740 0.960 . S
C728 H720 0.929 . S
C728 C729 1.377 . S
C728 C730 1.384 . S
C729 C728 1.377 . S
C729 C735 1.390 . S
C730 H721 0.930 . S
C730 C728 1.384 . S
C730 C731 1.372 . S
C731 C730 1.372 . S
C731 C732 1.400 . S
C731 C736 1.490 . S
C732 H722 0.930 . S
C732 C731 1.400 . S
C732 C735 1.386 . S
H733 C749 0.930 . S
H734 C750 0.931 1_554 S
C735 H723 0.929 . S
C735 C729 1.390 . S
C735 C732 1.386 . S
C736 C731 1.490 . S
C736 C738 1.395 . S
C736 C739 1.403 . S
H737 C743 0.930 . S
C738 H724 0.930 . S
C738 C736 1.395 . S
C738 C741 1.403 . S
C739 C736 1.403 . S
C739 C740 1.524 . S
C739 C743 1.400 . S
C740 H725 0.960 . S
C740 H726 0.960 . S
C740 H727 0.960 . S
C740 C739 1.524 . S
C741 C738 1.403 . S
C741 C742 1.392 . S
C741 C745 1.495 . S
C742 C741 1.392 . S
C742 C743 1.385 . S
C742 C744 1.478 . S
C743 H737 0.930 . S
C743 C739 1.400 . S
C743 C742 1.385 . S
C744 C742 1.478 . S
C744 C746 1.381 . S
C744 C750 1.383 . S
C745 C741 1.495 . S
C745 H751 0.959 1_655 S
C745 H752 0.961 1_655 S
C745 H753 0.960 . S
C746 C744 1.381 . S
C746 C747 1.394 . S
C746 H754 0.930 . S
C747 C746 1.394 . S
C747 C748 1.383 . S
C747 H755 0.929 . S
C748 C747 1.383 . S
C748 C749 1.377 1_556 S
C749 H733 0.930 . S
C749 C748 1.377 1_554 S
C749 C750 1.379 1_554 S
C750 H734 0.931 1_556 S
C750 C744 1.383 . S
C750 C749 1.379 1_556 S
H751 C745 0.959 1_455 S
H752 C745 0.961 1_455 S
H753 C745 0.960 . S
H754 C746 0.930 . S
H755 C747 0.929 . S
H756 C764 0.929 . S
H757 C766 0.930 . S
H758 C768 0.930 . S
H759 C771 0.929 . S
H760 C774 0.930 . S
H761 C776 0.960 . S
H762 C776 0.960 . S
H763 C776 0.960 . S
C764 H756 0.929 . S
C764 C765 1.377 . S
C764 C766 1.384 1_554 S
C765 C764 1.377 . S
C765 C771 1.390 . S
C766 H757 0.930 . S
C766 C764 1.384 1_556 S
C766 C767 1.372 . S
C767 C766 1.372 . S
C767 C768 1.400 . S
C767 C772 1.490 . S
C768 H758 0.930 . S
C768 C767 1.400 . S
C768 C771 1.386 1_556 S
H769 C785 0.930 . S
H770 C786 0.931 . S
C771 H759 0.929 . S
C771 C765 1.390 . S
C771 C768 1.386 1_554 S
C772 C767 1.490 . S
C772 C774 1.395 . S
C772 C775 1.403 . S
H773 C779 0.930 . S
C774 H760 0.930 . S
C774 C772 1.395 . S
C774 C777 1.403 . S
C775 C772 1.403 . S
C775 C776 1.524 1_556 S
C775 C779 1.400 . S
C776 H761 0.960 . S
C776 H762 0.960 . S
C776 H763 0.960 . S
C776 C775 1.524 1_554 S
C777 C774 1.403 . S
C777 C778 1.392 . S
C777 C781 1.495 . S
C778 C777 1.392 . S
C778 C779 1.385 . S
C778 C780 1.478 . S
C779 H773 0.930 . S
C779 C775 1.400 . S
C779 C778 1.385 . S
C780 C778 1.478 . S
C780 C782 1.381 . S
C780 C786 1.383 . S
C781 C777 1.495 . S
C781 H787 0.959 . S
C781 H788 0.961 . S
C781 H789 0.960 . S
C782 C780 1.381 . S
C782 C783 1.394 . S
C782 H790 0.930 . S
C783 C782 1.394 . S
C783 C784 1.383 . S
C783 H791 0.929 . S
C784 C783 1.383 . S
C784 C785 1.377 . S
C785 H769 0.930 . S
C785 C784 1.377 . S
C785 C786 1.379 . S
C786 H770 0.931 . S
C786 C780 1.383 . S
C786 C785 1.379 . S
H787 C781 0.959 . S
H788 C781 0.961 . S
H789 C781 0.960 . S
H790 C782 0.930 . S
H791 C783 0.929 . S
H792 C800 0.929 . S
H793 C802 0.930 . S
H794 C804 0.930 . S
H795 C807 0.929 . S
H796 C810 0.930 . S
H797 C812 0.960 . S
H798 C812 0.960 1_556 S
H799 C812 0.960 . S
C800 H792 0.929 . S
C800 C801 1.377 . S
C800 C802 1.384 . S
C801 C800 1.377 . S
C801 C807 1.390 . S
C802 H793 0.930 . S
C802 C800 1.384 . S
C802 C803 1.372 . S
C803 C802 1.372 . S
C803 C804 1.400 . S
C803 C808 1.490 . S
C804 H794 0.930 . S
C804 C803 1.400 . S
C804 C807 1.386 . S
H805 C821 0.930 . S
H806 C822 0.931 . S
C807 H795 0.929 . S
C807 C801 1.390 . S
C807 C804 1.386 . S
C808 C803 1.490 . S
C808 C810 1.395 . S
C808 C811 1.403 . S
H809 C815 0.930 . S
C810 H796 0.930 . S
C810 C808 1.395 . S
C810 C813 1.403 . S
C811 C808 1.403 . S
C811 C812 1.524 1_556 S
C811 C815 1.400 1_556 S
C812 H797 0.960 . S
C812 H798 0.960 1_554 S
C812 H799 0.960 . S
C812 C811 1.524 1_554 S
C813 C810 1.403 . S
C813 C814 1.392 . S
C813 C817 1.495 . S
C814 C813 1.392 . S
C814 C815 1.385 1_556 S
C814 C816 1.478 1_556 S
C815 H809 0.930 . S
C815 C811 1.400 1_554 S
C815 C814 1.385 1_554 S
C816 C814 1.478 1_554 S
C816 C818 1.381 . S
C816 C822 1.383 . S
C817 C813 1.495 . S
C817 H823 0.959 . S
C817 H824 0.961 . S
C817 H825 0.960 . S
C818 C816 1.381 . S
C818 C819 1.394 . S
C818 H826 0.930 1_554 S
C819 C818 1.394 . S
C819 C820 1.383 . S
C819 H827 0.929 . S
C820 C819 1.383 . S
C820 C821 1.377 . S
C821 H805 0.930 . S
C821 C820 1.377 . S
C821 C822 1.379 . S
C822 H806 0.931 . S
C822 C816 1.383 . S
C822 C821 1.379 . S
H823 C817 0.959 . S
H824 C817 0.961 . S
H825 C817 0.960 . S
H826 C818 0.930 1_556 S
H827 C819 0.929 . S
H828 C836 0.929 . S
H829 C838 0.930 . S
H830 C840 0.930 . S
H831 C843 0.929 . S
H832 C846 0.930 . S
H833 C848 0.960 . S
H834 C848 0.960 . S
H835 C848 0.960 . S
C836 H828 0.929 . S
C836 C837 1.377 . S
C836 C838 1.384 . S
C837 C836 1.377 . S
C837 C843 1.390 1_545 S
C838 H829 0.930 . S
C838 C836 1.384 . S
C838 C839 1.372 1_545 S
C839 C838 1.372 1_565 S
C839 C840 1.400 . S
C839 C844 1.490 . S
C840 H830 0.930 . S
C840 C839 1.400 . S
C840 C843 1.386 . S
H841 C857 0.930 . S
H842 C858 0.931 . S
C843 H831 0.929 . S
C843 C837 1.390 1_565 S
C843 C840 1.386 . S
C844 C839 1.490 . S
C844 C846 1.395 . S
C844 C847 1.403 . S
H845 C851 0.930 . S
C846 H832 0.930 . S
C846 C844 1.395 . S
C846 C849 1.403 . S
C847 C844 1.403 . S
C847 C848 1.524 . S
C847 C851 1.400 . S
C848 H833 0.960 . S
C848 H834 0.960 . S
C848 H835 0.960 . S
C848 C847 1.524 . S
C849 C846 1.403 . S
C849 C850 1.392 . S
C849 C853 1.495 . S
C850 C849 1.392 . S
C850 C851 1.385 . S
C850 C852 1.478 . S
C851 H845 0.930 . S
C851 C847 1.400 . S
C851 C850 1.385 . S
C852 C850 1.478 . S
C852 C854 1.381 . S
C852 C858 1.383 . S
C853 C849 1.495 . S
C853 H859 0.959 . S
C853 H860 0.961 . S
C853 H861 0.960 . S
C854 C852 1.381 . S
C854 C855 1.394 . S
C854 H862 0.930 . S
C855 C854 1.394 . S
C855 C856 1.383 . S
C855 H863 0.929 . S
C856 C855 1.383 . S
C856 C857 1.377 . S
C857 H841 0.930 . S
C857 C856 1.377 . S
C857 C858 1.379 . S
C858 H842 0.931 . S
C858 C852 1.383 . S
C858 C857 1.379 . S
H859 C853 0.959 . S
H860 C853 0.961 . S
H861 C853 0.960 . S
H862 C854 0.930 . S
H863 C855 0.929 . S
H864 C872 0.929 . S
H865 C874 0.930 . S
H866 C876 0.930 . S
H867 C879 0.929 . S
H868 C882 0.930 . S
H869 C884 0.960 . S
H870 C884 0.960 . S
H871 C884 0.960 . S
C872 H864 0.929 . S
C872 C873 1.377 . S
C872 C874 1.384 . S
C873 C872 1.377 . S
C873 C879 1.390 . S
C874 H865 0.930 . S
C874 C872 1.384 . S
C874 C875 1.372 . S
C875 C874 1.372 . S
C875 C876 1.400 . S
C875 C880 1.490 . S
C876 H866 0.930 . S
C876 C875 1.400 . S
C876 C879 1.386 . S
H877 C893 0.930 . S
H878 C894 0.931 . S
C879 H867 0.929 . S
C879 C873 1.390 . S
C879 C876 1.386 . S
C880 C875 1.490 . S
C880 C882 1.395 . S
C880 C883 1.403 . S
H881 C887 0.930 . S
C882 H868 0.930 . S
C882 C880 1.395 . S
C882 C885 1.403 . S
C883 C880 1.403 . S
C883 C884 1.524 . S
C883 C887 1.400 . S
C884 H869 0.960 . S
C884 H870 0.960 . S
C884 H871 0.960 . S
C884 C883 1.524 . S
C885 C882 1.403 . S
C885 C886 1.392 . S
C885 C889 1.495 . S
C886 C885 1.392 . S
C886 C887 1.385 . S
C886 C888 1.478 . S
C887 H881 0.930 . S
C887 C883 1.400 . S
C887 C886 1.385 . S
C888 C886 1.478 . S
C888 C890 1.381 . S
C888 C894 1.383 . S
C889 C885 1.495 . S
C889 H895 0.959 1_554 S
C889 H896 0.961 1_554 S
C889 H897 0.960 . S
C890 C888 1.381 . S
C890 C891 1.394 . S
C890 H898 0.930 . S
C891 C890 1.394 . S
C891 C892 1.383 . S
C891 H899 0.929 . S
C892 C891 1.383 . S
C892 C893 1.377 . S
C893 H877 0.930 . S
C893 C892 1.377 . S
C893 C894 1.379 . S
C894 H878 0.931 . S
C894 C888 1.383 . S
C894 C893 1.379 . S
H895 C889 0.959 1_556 S
H896 C889 0.961 1_556 S
H897 C889 0.960 . S
H898 C890 0.930 . S
H899 C891 0.929 . S
H900 C908 0.929 . S
H901 C910 0.930 . S
H902 C912 0.930 . S
H903 C915 0.929 . S
H904 C918 0.930 . S
H905 C920 0.960 1_556 S
H906 C920 0.960 . S
H907 C920 0.960 1_556 S
C908 H900 0.929 . S
C908 C909 1.377 . S
C908 C910 1.384 . S
C909 C908 1.377 . S
C909 C915 1.390 . S
C910 H901 0.930 . S
C910 C908 1.384 . S
C910 C911 1.372 . S
C911 C910 1.372 . S
C911 C912 1.400 . S
C911 C916 1.490 . S
C912 H902 0.930 . S
C912 C911 1.400 . S
C912 C915 1.386 . S
H913 C929 0.930 . S
H914 C930 0.931 . S
C915 H903 0.929 . S
C915 C909 1.390 . S
C915 C912 1.386 . S
C916 C911 1.490 . S
C916 C918 1.395 . S
C916 C919 1.403 . S
H917 C923 0.930 . S
C918 H904 0.930 . S
C918 C916 1.395 . S
C918 C921 1.403 . S
C919 C916 1.403 . S
C919 C920 1.524 . S
C919 C923 1.400 . S
C920 H905 0.960 1_554 S
C920 H906 0.960 . S
C920 H907 0.960 1_554 S
C920 C919 1.524 . S
C921 C918 1.403 . S
C921 C922 1.392 . S
C921 C925 1.495 . S
C922 C921 1.392 . S
C922 C923 1.385 . S
C922 C924 1.478 . S
C923 H917 0.930 . S
C923 C919 1.400 . S
C923 C922 1.385 . S
C924 C922 1.478 . S
C924 C926 1.381 . S
C924 C930 1.383 . S
C925 C921 1.495 . S
C925 H931 0.959 . S
C925 H932 0.961 . S
C925 H933 0.960 . S
C926 C924 1.381 . S
C926 C927 1.394 . S
C926 H934 0.930 . S
C927 C926 1.394 . S
C927 C928 1.383 . S
C927 H935 0.929 . S
C928 C927 1.383 . S
C928 C929 1.377 . S
C929 H913 0.930 . S
C929 C928 1.377 . S
C929 C930 1.379 . S
C930 H914 0.931 . S
C930 C924 1.383 . S
C930 C929 1.379 . S
H931 C925 0.959 . S
H932 C925 0.961 . S
H933 C925 0.960 . S
H934 C926 0.930 . S
H935 C927 0.929 . S
H936 C944 0.929 . S
H937 C946 0.930 . S
H938 C948 0.930 . S
H939 C951 0.929 . S
H940 C954 0.930 . S
H941 C956 0.960 . S
H942 C956 0.960 . S
H943 C956 0.960 . S
C944 H936 0.929 . S
C944 C945 1.377 . S
C944 C946 1.384 . S
C945 C944 1.377 . S
C945 C951 1.390 . S
C946 H937 0.930 . S
C946 C944 1.384 . S
C946 C947 1.372 . S
C947 C946 1.372 . S
C947 C948 1.400 . S
C947 C952 1.490 . S
C948 H938 0.930 . S
C948 C947 1.400 . S
C948 C951 1.386 . S
H949 C965 0.930 . S
H950 C966 0.931 . S
C951 H939 0.929 . S
C951 C945 1.390 . S
C951 C948 1.386 . S
C952 C947 1.490 . S
C952 C954 1.395 . S
C952 C955 1.403 . S
H953 C959 0.930 . S
C954 H940 0.930 . S
C954 C952 1.395 . S
C954 C957 1.403 . S
C955 C952 1.403 . S
C955 C956 1.524 . S
C955 C959 1.400 . S
C956 H941 0.960 . S
C956 H942 0.960 . S
C956 H943 0.960 . S
C956 C955 1.524 . S
C957 C954 1.403 . S
C957 C958 1.392 . S
C957 C961 1.495 . S
C958 C957 1.392 . S
C958 C959 1.385 . S
C958 C960 1.478 . S
C959 H953 0.930 . S
C959 C955 1.400 . S
C959 C958 1.385 . S
C960 C958 1.478 . S
C960 C962 1.381 . S
C960 C966 1.383 . S
C961 C957 1.495 . S
C961 H967 0.959 . S
C961 H968 0.961 . S
C961 H969 0.960 . S
C962 C960 1.381 . S
C962 C963 1.394 . S
C962 H970 0.930 . S
C963 C962 1.394 . S
C963 C964 1.383 . S
C963 H971 0.929 . S
C964 C963 1.383 . S
C964 C965 1.377 . S
C965 H949 0.930 . S
C965 C964 1.377 . S
C965 C966 1.379 . S
C966 H950 0.931 . S
C966 C960 1.383 . S
C966 C965 1.379 . S
H967 C961 0.959 . S
H968 C961 0.961 . S
H969 C961 0.960 . S
H970 C962 0.930 . S
H971 C963 0.929 . S
H972 C980 0.929 . S
H973 C982 0.930 . S
H974 C984 0.930 . S
H975 C987 0.929 . S
H976 C990 0.930 . S
H977 C992 0.960 . S
H978 C992 0.960 . S
H979 C992 0.960 . S
C980 H972 0.929 . S
C980 C981 1.377 . S
C980 C982 1.384 . S
C981 C980 1.377 . S
C981 C987 1.390 . S
C982 H973 0.930 . S
C982 C980 1.384 . S
C982 C983 1.372 . S
C983 C982 1.372 . S
C983 C984 1.400 . S
C983 C988 1.490 . S
C984 H974 0.930 . S
C984 C983 1.400 . S
C984 C987 1.386 . S
H985 C1001 0.930 . S
H986 C1002 0.931 . S
C987 H975 0.929 . S
C987 C981 1.390 . S
C987 C984 1.386 . S
C988 C983 1.490 . S
C988 C990 1.395 . S
C988 C991 1.403 . S
H989 C995 0.930 . S
C990 H976 0.930 . S
C990 C988 1.395 . S
C990 C993 1.403 . S
C991 C988 1.403 . S
C991 C992 1.524 . S
C991 C995 1.400 . S
C992 H977 0.960 . S
C992 H978 0.960 . S
C992 H979 0.960 . S
C992 C991 1.524 . S
C993 C990 1.403 . S
C993 C994 1.392 1_545 S
C993 C997 1.495 1_545 S
C994 C993 1.392 1_565 S
C994 C995 1.385 1_565 S
C994 C996 1.478 . S
C995 H989 0.930 . S
C995 C991 1.400 . S
C995 C994 1.385 1_545 S
C996 C994 1.478 . S
C996 C998 1.381 . S
C996 C1002 1.383 . S
C997 C993 1.495 1_565 S
C997 H1003 0.959 . S
C997 H1004 0.961 . S
C997 H1005 0.960 . S
C998 C996 1.381 . S
C998 C999 1.394 . S
C998 H1006 0.930 . S
C999 C998 1.394 . S
C999 C1000 1.383 . S
C999 H1007 0.929 . S
C1000 C999 1.383 . S
C1000 C1001 1.377 . S
C1001 H985 0.930 . S
C1001 C1000 1.377 . S
C1001 C1002 1.379 . S
C1002 H986 0.931 . S
C1002 C996 1.383 . S
C1002 C1001 1.379 . S
H1003 C997 0.959 . S
H1004 C997 0.961 . S
H1005 C997 0.960 . S
H1006 C998 0.930 . S
H1007 C999 0.929 . S
H1008 C1016 0.929 . S
H1009 C1018 0.931 1_455 S
H1010 C1020 0.930 . S
H1011 C1023 0.929 . S
H1012 C1026 0.930 . S
H1013 C1028 0.960 . S
H1014 C1028 0.960 . S
H1015 C1028 0.960 1_655 S
C1016 H1008 0.929 . S
C1016 C1017 1.377 . S
C1016 C1018 1.383 . S
C1017 C1016 1.377 . S
C1017 C1023 1.390 . S
C1018 H1009 0.931 1_655 S
C1018 C1016 1.383 . S
C1018 C1019 1.372 . S
C1019 C1018 1.372 . S
C1019 C1020 1.400 . S
C1019 C1024 1.490 1_655 S
C1020 H1010 0.930 . S
C1020 C1019 1.400 . S
C1020 C1023 1.386 . S
H1021 C1037 0.930 . S
H1022 C1038 0.931 . S
C1023 H1011 0.929 . S
C1023 C1017 1.390 . S
C1023 C1020 1.386 . S
C1024 C1019 1.490 1_455 S
C1024 C1026 1.395 . S
C1024 C1027 1.403 . S
H1025 C1031 0.930 . S
C1026 H1012 0.930 . S
C1026 C1024 1.395 . S
C1026 C1029 1.403 . S
C1027 C1024 1.403 . S
C1027 C1028 1.524 . S
C1027 C1031 1.400 . S
C1028 H1013 0.960 . S
C1028 H1014 0.960 . S
C1028 H1015 0.960 1_455 S
C1028 C1027 1.524 . S
C1029 C1026 1.403 . S
C1029 C1030 1.392 . S
C1029 C1033 1.495 . S
C1030 C1029 1.392 . S
C1030 C1031 1.385 . S
C1030 C1032 1.478 . S
C1031 H1025 0.930 . S
C1031 C1027 1.400 . S
C1031 C1030 1.385 . S
C1032 C1030 1.478 . S
C1032 C1034 1.381 . S
C1032 C1038 1.383 . S
C1033 C1029 1.495 . S
C1033 H1039 0.959 . S
C1033 H1040 0.961 . S
C1033 H1041 0.960 . S
C1034 C1032 1.381 . S
C1034 C1035 1.394 . S
C1034 H1042 0.930 . S
C1035 C1034 1.394 . S
C1035 C1036 1.383 . S
C1035 H1043 0.929 . S
C1036 C1035 1.383 . S
C1036 C1037 1.377 . S
C1037 H1021 0.930 . S
C1037 C1036 1.377 . S
C1037 C1038 1.379 . S
C1038 H1022 0.931 . S
C1038 C1032 1.383 . S
C1038 C1037 1.379 . S
H1039 C1033 0.959 . S
H1040 C1033 0.961 . S
H1041 C1033 0.960 . S
H1042 C1034 0.930 . S
H1043 C1035 0.929 . S
H1044 C1052 0.929 . S
H1045 C1054 0.930 . S
H1046 C1056 0.930 . S
H1047 C1059 0.929 . S
H1048 C1062 0.930 . S
H1049 C1064 0.960 . S
H1050 C1064 0.960 . S
H1051 C1064 0.960 . S
C1052 H1044 0.929 . S
C1052 C1053 1.377 . S
C1052 C1054 1.384 . S
C1053 C1052 1.377 . S
C1053 C1059 1.390 . S
C1054 H1045 0.930 . S
C1054 C1052 1.384 . S
C1054 C1055 1.372 . S
C1055 C1054 1.372 . S
C1055 C1056 1.400 . S
C1055 C1060 1.490 . S
C1056 H1046 0.930 . S
C1056 C1055 1.400 . S
C1056 C1059 1.386 . S
H1057 C1073 0.930 . S
H1058 C1074 0.931 . S
C1059 H1047 0.929 . S
C1059 C1053 1.390 . S
C1059 C1056 1.386 . S
C1060 C1055 1.490 . S
C1060 C1062 1.395 . S
C1060 C1063 1.403 . S
H1061 C1067 0.930 . S
C1062 H1048 0.930 . S
C1062 C1060 1.395 . S
C1062 C1065 1.403 . S
C1063 C1060 1.403 . S
C1063 C1064 1.524 . S
C1063 C1067 1.400 . S
C1064 H1049 0.960 . S
C1064 H1050 0.960 . S
C1064 H1051 0.960 . S
C1064 C1063 1.524 . S
C1065 C1062 1.403 . S
C1065 C1066 1.392 . S
C1065 C1069 1.495 . S
C1066 C1065 1.392 . S
C1066 C1067 1.385 . S
C1066 C1068 1.478 . S
C1067 H1061 0.930 . S
C1067 C1063 1.400 . S
C1067 C1066 1.385 . S
C1068 C1066 1.478 . S
C1068 C1070 1.381 . S
C1068 C1074 1.383 . S
C1069 C1065 1.495 . S
C1069 H1075 0.959 . S
C1069 H1076 0.961 . S
C1069 H1077 0.960 . S
C1070 C1068 1.381 . S
C1070 C1071 1.394 . S
C1070 H1078 0.930 . S
C1071 C1070 1.394 . S
C1071 C1072 1.383 . S
C1071 H1079 0.929 . S
C1072 C1071 1.383 . S
C1072 C1073 1.377 . S
C1073 H1057 0.930 . S
C1073 C1072 1.377 . S
C1073 C1074 1.379 . S
C1074 H1058 0.931 . S
C1074 C1068 1.383 . S
C1074 C1073 1.379 . S
H1075 C1069 0.959 . S
H1076 C1069 0.961 . S
H1077 C1069 0.960 . S
H1078 C1070 0.930 . S
H1079 C1071 0.929 . S
H1080 C1088 0.929 . S
H1081 C1090 0.930 . S
H1082 C1092 0.930 . S
H1083 C1095 0.929 . S
H1084 C1098 0.930 1_565 S
H1085 C1100 0.960 . S
H1086 C1100 0.960 1_565 S
H1087 C1100 0.960 . S
C1088 H1080 0.929 . S
C1088 C1089 1.377 . S
C1088 C1090 1.384 . S
C1089 C1088 1.377 . S
C1089 C1095 1.390 . S
C1090 H1081 0.930 . S
C1090 C1088 1.384 . S
C1090 C1091 1.372 . S
C1091 C1090 1.372 . S
C1091 C1092 1.400 . S
C1091 C1096 1.490 . S
C1092 H1082 0.930 . S
C1092 C1091 1.400 . S
C1092 C1095 1.386 . S
H1093 C1109 0.930 . S
H1094 C1110 0.931 . S
C1095 H1083 0.929 . S
C1095 C1089 1.390 . S
C1095 C1092 1.386 . S
C1096 C1091 1.490 . S
C1096 C1098 1.395 1_565 S
C1096 C1099 1.403 1_565 S
H1097 C1103 0.930 . S
C1098 H1084 0.930 1_545 S
C1098 C1096 1.395 1_545 S
C1098 C1101 1.403 . S
C1099 C1096 1.403 1_545 S
C1099 C1100 1.524 . S
C1099 C1103 1.400 . S
C1100 H1085 0.960 . S
C1100 H1086 0.960 1_545 S
C1100 H1087 0.960 . S
C1100 C1099 1.524 . S
C1101 C1098 1.403 . S
C1101 C1102 1.392 . S
C1101 C1105 1.495 . S
C1102 C1101 1.392 . S
C1102 C1103 1.385 . S
C1102 C1104 1.478 . S
C1103 H1097 0.930 . S
C1103 C1099 1.400 . S
C1103 C1102 1.385 . S
C1104 C1102 1.478 . S
C1104 C1106 1.381 . S
C1104 C1110 1.383 . S
C1105 C1101 1.495 . S
C1105 H1111 0.959 . S
C1105 H1112 0.961 . S
C1105 H1113 0.960 . S
C1106 C1104 1.381 . S
C1106 C1107 1.394 . S
C1106 H1114 0.930 . S
C1107 C1106 1.394 . S
C1107 C1108 1.383 . S
C1107 H1115 0.929 . S
C1108 C1107 1.383 . S
C1108 C1109 1.377 . S
C1109 H1093 0.930 . S
C1109 C1108 1.377 . S
C1109 C1110 1.379 . S
C1110 H1094 0.931 . S
C1110 C1104 1.383 . S
C1110 C1109 1.379 . S
H1111 C1105 0.959 . S
H1112 C1105 0.961 . S
H1113 C1105 0.960 . S
H1114 C1106 0.930 . S
H1115 C1107 0.929 . S
H1116 C1124 0.929 . S
H1117 C1126 0.930 . S
H1118 C1128 0.930 1_455 S
H1119 C1131 0.929 . S
H1120 C1134 0.930 . S
H1121 C1136 0.960 . S
H1122 C1136 0.960 . S
H1123 C1136 0.960 . S
C1124 H1116 0.929 . S
C1124 C1125 1.377 . S
C1124 C1126 1.384 . S
C1125 C1124 1.377 . S
C1125 C1131 1.390 . S
C1126 H1117 0.930 . S
C1126 C1124 1.384 . S
C1126 C1127 1.372 . S
C1127 C1126 1.372 . S
C1127 C1128 1.400 . S
C1127 C1132 1.490 1_655 S
C1128 H1118 0.930 1_655 S
C1128 C1127 1.400 . S
C1128 C1131 1.386 . S
H1129 C1145 0.930 . S
H1130 C1146 0.931 . S
C1131 H1119 0.929 . S
C1131 C1125 1.390 . S
C1131 C1128 1.386 . S
C1132 C1127 1.490 1_455 S
C1132 C1134 1.395 . S
C1132 C1135 1.403 . S
H1133 C1139 0.930 . S
C1134 H1120 0.930 . S
C1134 C1132 1.395 . S
C1134 C1137 1.403 . S
C1135 C1132 1.403 . S
C1135 C1136 1.524 . S
C1135 C1139 1.400 . S
C1136 H1121 0.960 . S
C1136 H1122 0.960 . S
C1136 H1123 0.960 . S
C1136 C1135 1.524 . S
C1137 C1134 1.403 . S
C1137 C1138 1.392 . S
C1137 C1141 1.495 . S
C1138 C1137 1.392 . S
C1138 C1139 1.385 . S
C1138 C1140 1.478 . S
C1139 H1133 0.930 . S
C1139 C1135 1.400 . S
C1139 C1138 1.385 . S
C1140 C1138 1.478 . S
C1140 C1142 1.381 . S
C1140 C1146 1.383 . S
C1141 C1137 1.495 . S
C1141 H1147 0.959 . S
C1141 H1148 0.961 . S
C1141 H1149 0.960 . S
C1142 C1140 1.381 . S
C1142 C1143 1.394 . S
C1142 H1150 0.930 . S
C1143 C1142 1.394 . S
C1143 C1144 1.383 . S
C1143 H1151 0.929 . S
C1144 C1143 1.383 . S
C1144 C1145 1.377 . S
C1145 H1129 0.930 . S
C1145 C1144 1.377 . S
C1145 C1146 1.379 . S
C1146 H1130 0.931 . S
C1146 C1140 1.383 . S
C1146 C1145 1.379 . S
H1147 C1141 0.959 . S
H1148 C1141 0.961 . S
H1149 C1141 0.960 . S
H1150 C1142 0.930 . S
H1151 C1143 0.929 . S
C189 C8 1.461 . S
C208 C9 1.470 . S
C225 C28 1.490 . S
C244 C29 1.471 . S
C261 C48 1.515 1_556 S
C280 C49 1.524 . S
C297 C69 1.462 . S
C316 C68 1.474 . S
C333 C89 1.494 . S
C352 C88 1.486 . S
C369 C109 1.512 . S
C388 C108 1.496 1_556 S
C405 C122 0.573 . S
C424 C121 0.629 . S
C441 C141 0.571 . S
C460 C142 0.564 . S
C477 C162 0.564 . S
C496 C161 0.621 . S
C513 C118 1.918 . S
C532 C2 1.922 . S
C549 C22 1.894 . S
C568 C78 1.909 . S
C585 C42 1.989 1_565 S
C604 C98 1.991 . S
C621 C58 1.607 . S
C640 C139 1.695 . S
C657 C149 1.151 . S
C676 C18 1.103 . S
C693 C179 1.636 . S
C712 C38 1.530 . S
C729 C168 1.164 . S
C748 C1 1.164 . S
C765 C21 1.213 . S
C784 C128 1.208 . S
C801 C158 1.738 . S
C820 C41 1.682 . S
C837 C59 1.921 . S
C856 C61 1.917 . S
C873 C81 1.899 . S
C892 C19 1.908 . S
C909 C39 2.002 . S
C928 C101 1.972 . S
C945 C169 1.167 . S
C964 C62 1.153 . S
C981 C129 1.218 . S
C1000 C82 1.188 . S
C1017 C159 1.734 . S
C1036 C102 1.678 . S
C1053 C138 1.699 . S
C1072 C119 1.599 . S
C1089 C79 1.120 . S
C1108 C148 1.129 . S
C1125 C178 1.633 . S
C1144 C99 1.580 . S
