# Generated by pormake.
# Topology sxa, (6)-cn, num edge types: 1
# Building blocks:
#     Node 0, Type 0, BuildingBlock: MIDCAF_clean_sbu_0, # of connection points: 6
#     Node 1, Type 0, BuildingBlock: MIDCAF_clean_sbu_0, # of connection points: 6
#     Node 2, Type 0, BuildingBlock: MIDCAF_clean_sbu_0, # of connection points: 6
#     Node 3, Type 0, BuildingBlock: MIDCAF_clean_sbu_0, # of connection points: 6
#     Edge 4, Type (0, 0), BuildingBlock: TEMPAE_clean_linker_10, # of connection points: 2
#     Edge 5, Type (0, 0), BuildingBlock: TEMPAE_clean_linker_10, # of connection points: 2
#     Edge 6, Type (0, 0), BuildingBlock: TEMPAE_clean_linker_10, # of connection points: 2
#     Edge 7, Type (0, 0), BuildingBlock: TEMPAE_clean_linker_10, # of connection points: 2
#     Edge 8, Type (0, 0), BuildingBlock: TEMPAE_clean_linker_10, # of connection points: 2
#     Edge 9, Type (0, 0), BuildingBlock: TEMPAE_clean_linker_10, # of connection points: 2
#     Edge 10, Type (0, 0), BuildingBlock: TEMPAE_clean_linker_10, # of connection points: 2
#     Edge 11, Type (0, 0), BuildingBlock: TEMPAE_clean_linker_10, # of connection points: 2
#     Edge 12, Type (0, 0), BuildingBlock: TEMPAE_clean_linker_10, # of connection points: 2
#     Edge 13, Type (0, 0), BuildingBlock: TEMPAE_clean_linker_10, # of connection points: 2
#     Edge 14, Type (0, 0), BuildingBlock: TEMPAE_clean_linker_10, # of connection points: 2
#     Edge 15, Type (0, 0), BuildingBlock: TEMPAE_clean_linker_10, # of connection points: 2
# Relax obj value: 0.200
# Max RMSD: 0.180
# Mean RMSD: 0.180
data_MOF--net-sxa--node1-MIDCAF_clean_sbu_0--edge1-TEMPAE_clean_linker_10
_symmetry_space_group_name_H-M    P1
_symmetry_Int_Tables_number       1
_symmetry_cell_setting            triclinic
loop_
_symmetry_equiv_pos_as_xyz
'x, y, z'
_cell_length_a     22.539684
_cell_length_b     28.247704
_cell_length_c     19.071496
_cell_angle_alpha  90.062098
_cell_angle_beta   89.844679
_cell_angle_gamma 90.115233
loop_
_atom_site_label
_atom_site_type_symbol
_atom_site_fract_x
_atom_site_fract_y
_atom_site_fract_z
_atom_type_partial_charge
Zn0 Zn 0.90349 0.84692 0.28329 0.0
Zn1 Zn 0.0585 0.68435 0.2358 0.0
Zn2 Zn -0.01039 0.74651 0.2048 0.0
C3 C 0.10926 0.76886 0.16109 0.0
C4 C -0.00294 0.63608 0.14243 0.0
O5 O 0.93995 0.74443 0.30459 0.0
O6 O 0.95178 0.81213 0.35872 0.0
C7 C 0.98237 0.85938 0.14761 0.0
O8 O 0.05859 0.78814 0.1689 0.0
O9 O 0.11729 0.72634 0.1807 0.0
O10 O 0.03406 0.62528 0.18924 0.0
O11 O 0.9779 0.67901 0.13958 0.0
O12 O 0.95029 0.87346 0.19875 0.0
O13 O -0.00078 0.81543 0.14211 0.0
O14 O 0.90799 0.7736 0.22329 0.0
O15 O 0.82781 0.81175 0.24603 0.0
C16 C 0.85307 0.77875 0.21232 0.0
O17 O 0.04899 0.75724 0.29653 0.0
O18 O 0.06935 0.6874 0.33986 0.0
C19 C 0.93368 0.76966 0.36017 0.0
C20 C 0.07263 0.73197 0.34461 0.0
Zn21 Zn 0.53774 0.25266 0.26027 0.0
Zn22 Zn 0.46727 0.38313 0.2882 0.0
Zn23 Zn 0.49474 0.31799 0.21338 0.0
C24 C 0.36629 0.35107 0.22523 0.0
C25 C 0.51866 0.42847 0.18743 0.0
O26 O 0.5646 0.33169 0.29457 0.0
O27 O 0.55393 0.26788 0.35933 0.0
C28 C 0.47482 0.20827 0.16402 0.0
O29 O 0.40015 0.31475 0.2263 0.0
O30 O 0.38757 0.39107 0.24095 0.0
O31 O 0.52484 0.43279 0.2534 0.0
O32 O 0.50125 0.38846 0.16265 0.0
O33 O 0.48479 0.19937 0.22799 0.0
O34 O 0.48276 0.25143 0.14275 0.0
O35 O 0.53544 0.28513 0.12682 0.0
O36 O 0.60953 0.26737 0.19487 0.0
C37 C 0.59086 0.27713 0.13414 0.0
O38 O 0.43504 0.29222 0.29558 0.0
O39 O 0.45797 0.34382 0.37791 0.0
C40 C 0.577 0.30834 0.35042 0.0
C41 C 0.43281 0.30524 0.36015 0.0
Zn42 Zn 0.95752 0.15229 0.68111 0.0
Zn43 Zn 0.02976 0.31441 0.72831 0.0
Zn44 Zn -0.00612 0.24688 0.77601 0.0
C45 C 0.07599 0.29899 0.86161 0.0
C46 C 0.95632 0.3564 0.8142 0.0
O47 O 0.93155 0.26555 0.69858 0.0
O48 O 0.95143 0.21208 0.61635 0.0
C49 C 0.01197 0.13907 0.81251 0.0
O50 O 0.02206 0.28502 0.86463 0.0
O51 O 0.0977 0.3086 0.80195 0.0
O52 O 0.96928 0.36484 0.75078 0.0
O53 O 0.96702 0.31435 0.83789 0.0
O54 O 0.02549 0.1318 0.74861 0.0
O55 O 0.98685 0.17816 0.82979 0.0
O56 O 0.9199 0.20491 0.76998 0.0
O57 O 0.87503 0.14277 0.72826 0.0
C58 C 0.87386 0.1793 0.76672 0.0
O59 O 0.06989 0.23482 0.70441 0.0
O60 O 0.04961 0.29288 0.63229 0.0
C61 C 0.92686 0.25077 0.63548 0.0
C62 C 0.07861 0.25566 0.64552 0.0
Zn63 Zn 0.54517 0.87462 0.74079 0.0
Zn64 Zn 0.40637 0.71316 0.7069 0.0
Zn65 Zn 0.48976 0.81303 0.78367 0.0
C66 C 0.34978 0.78054 0.77399 0.0
C67 C 0.47999 0.70457 0.84776 0.0
O68 O 0.55354 0.79472 0.69831 0.0
O69 O 0.56021 0.86091 0.63907 0.0
C70 C 0.49272 0.92489 0.83439 0.0
O71 O 0.40541 0.78679 0.76921 0.0
O72 O 0.32827 0.74586 0.74025 0.0
O73 O 0.44925 0.68992 0.79598 0.0
O74 O 0.49827 0.74802 0.85142 0.0
O75 O 0.51418 0.93614 0.77546 0.0
O76 O 0.48509 0.88072 0.84869 0.0
O77 O 0.56687 0.77405 0.80356 0.0
O78 O 0.60909 0.84431 0.80517 0.0
C79 C 0.61114 0.8003 0.81919 0.0
O80 O 0.43532 0.81692 0.68832 0.0
O81 O 0.45363 0.7508 0.63298 0.0
C82 C 0.57238 0.81732 0.64451 0.0
C83 C 0.43097 0.79183 0.63239 0.0
C84 C 0.93763 0.3919 0.93495 0.0
C85 C 0.94359 0.39755 0.86208 0.0
C86 C 0.93691 0.43149 0.98066 0.0
C87 C 0.94324 0.47808 0.95333 0.0
C88 C 0.94592 0.48396 0.87961 0.0
C89 C 0.94538 0.44399 0.83527 0.0
C90 C 0.93256 0.42312 0.05859 0.0
C91 C 0.95411 0.53236 0.84739 0.0
C92 C 0.92343 0.59077 0.06622 0.0
C93 C 0.9816 0.59879 0.0896 0.0
C94 C 0.90969 0.55126 0.02305 0.0
C95 C 0.95542 0.51976 0.00107 0.0
C96 C 0.01438 0.52895 0.02293 0.0
C97 C 0.0264 0.56761 0.06729 0.0
C98 C 0.84598 0.54231 0.00296 0.0
C99 C 0.06524 0.4979 -0.00062 0.0
H100 H 0.93576 0.35649 0.95664 0.0
H101 H 0.94981 0.44929 0.77923 0.0
H102 H 0.97704 0.42737 0.08257 0.0
H103 H 0.90255 0.44939 0.08341 0.0
H104 H 0.91618 0.38691 0.07076 0.0
H105 H 0.94963 0.53166 0.7894 0.0
H106 H 0.92134 0.55772 0.86904 0.0
H107 H -0.00107 0.54602 0.86059 0.0
H108 H 0.8884 0.61421 0.08388 0.0
H109 H 0.07155 0.57356 0.08477 0.0
H110 H 0.83087 0.50847 0.02662 0.0
H111 H 0.84183 0.53855 0.94531 0.0
H112 H 0.81606 0.57114 0.02087 0.0
H113 H 0.05855 0.46122 0.01852 0.0
H114 H 0.10881 0.51082 0.01877 0.0
H115 H 0.06686 0.4964 0.94125 0.0
C116 C 0.50228 0.51541 0.16798 0.0
C117 C 0.52152 0.47149 0.14177 0.0
C118 C 0.49785 0.55559 0.12443 0.0
C119 C 0.51522 0.55268 0.05302 0.0
C120 C 0.53728 0.5089 0.02708 0.0
C121 C 0.53891 0.46869 0.07119 0.0
C122 C 0.47171 0.60054 0.15416 0.0
C123 C 0.55814 0.50429 0.95216 0.0
C124 C 0.44578 0.63382 0.91574 0.0
C125 C 0.48903 0.66934 0.90594 0.0
C126 C 0.4531 0.59693 0.96442 0.0
C127 C 0.5058 0.5941 0.00427 0.0
C128 C 0.54894 0.63056 0.99687 0.0
C129 C 0.53984 0.66808 0.94846 0.0
C130 C 0.40426 0.56062 0.97264 0.0
C131 C 0.60565 0.62878 0.03845 0.0
H132 H 0.48782 0.51785 0.22212 0.0
H133 H 0.55385 0.43501 0.05042 0.0
H134 H 0.50174 0.63097 0.14442 0.0
H135 H 0.42916 0.60834 0.12743 0.0
H136 H 0.46321 0.59795 0.21143 0.0
H137 H 0.57999 0.46973 0.94203 0.0
H138 H 0.51984 0.50775 0.91615 0.0
H139 H 0.58982 0.53318 0.93938 0.0
H140 H 0.40556 0.63471 0.88473 0.0
H141 H 0.57317 0.69536 0.94245 0.0
H142 H 0.39169 0.55711 0.0287 0.0
H143 H 0.42019 0.5255 0.95471 0.0
H144 H 0.364 0.5699 0.94216 0.0
H145 H 0.6308 0.66234 0.03503 0.0
H146 H 0.63382 0.5996 0.01817 0.0
H147 H 0.59666 0.62121 0.09449 0.0
C148 C 0.53394 0.98984 0.9085 0.0
C149 C 0.48452 0.96311 0.88754 0.0
C150 C 0.52806 1.02974 0.95242 0.0
C151 C 0.47097 0.04449 0.97503 0.0
C152 C 0.42069 1.01752 0.95386 0.0
C153 C 0.42809 0.97709 0.91066 0.0
C154 C 0.58322 0.05619 0.97458 0.0
C155 C 0.35893 0.03205 0.97542 0.0
C156 C 0.46604 0.12073 0.14101 0.0
C157 C 0.46599 0.1673 0.11455 0.0
C158 C 0.46606 0.08088 0.09649 0.0
C159 C 0.46479 0.08696 0.02281 0.0
C160 C 0.46214 0.13378 0.99552 0.0
C161 C 0.46324 0.17326 0.04149 0.0
C162 C 0.47041 0.03213 0.12856 0.0
C163 C 0.45996 0.14226 0.91751 0.0
H164 H 0.57758 0.97954 0.88996 0.0
H165 H 0.38961 0.95737 0.89302 0.0
H166 H 0.58101 0.09338 0.95624 0.0
H167 H 0.58611 0.0571 0.03264 0.0
H168 H 0.62439 0.0399 0.95347 0.0
H169 H 0.35545 0.03356 0.0334 0.0
H170 H 0.34949 0.06812 0.95538 0.0
H171 H 0.32451 1.00733 0.95533 0.0
H172 H 0.4683 0.11516 0.19715 0.0
H173 H 0.46336 0.20878 0.02006 0.0
H174 H 0.51295 1.01547 0.11272 0.0
H175 H 0.43414 1.0091 0.10901 0.0
H176 H 0.46825 0.03308 0.18675 0.0
H177 H 0.50305 0.13232 0.8935 0.0
H178 H 0.45085 0.17991 0.90473 0.0
H179 H 0.42524 0.11975 0.89316 0.0
C180 C 0.0032 0.88831 0.02303 0.0
C181 C 0.00012 0.89685 0.09552 0.0
C182 C 0.00968 0.92619 0.97456 0.0
C183 C 0.01411 0.97377 -0.0011 0.0
C184 C 0.01478 0.98188 0.0722 0.0
C185 C 0.00738 0.94376 0.11904 0.0
C186 C 0.00962 0.91545 0.89716 0.0
C187 C 0.02143 1.0313 0.10147 0.0
C188 C 0.06639 0.0746 0.87693 0.0
C189 C 0.01315 0.09809 0.86203 0.0
C190 C 0.06771 0.0345 0.92132 0.0
C191 C 0.01401 1.01552 0.94889 0.0
C192 C 0.95989 0.03872 0.93227 0.0
C193 C 0.96026 0.07999 0.89031 0.0
C194 C 0.12688 1.01278 0.93861 0.0
C195 C 0.9013 1.01981 0.95868 0.0
H196 H -0.00231 0.8524 0.00404 0.0
H197 H 0.00592 0.95096 0.17487 0.0
H198 H 0.9706 0.93237 0.87227 0.0
H199 H 0.04988 0.93054 0.87213 0.0
H200 H 0.00822 0.8768 0.88638 0.0
H201 H 0.02627 1.03141 0.15942 0.0
H202 H 0.06075 0.04895 0.07798 0.0
H203 H 0.98195 0.05271 0.08767 0.0
H204 H 0.10734 0.08812 0.85463 0.0
H205 H 0.91878 0.09742 0.8779 0.0
H206 H 0.13185 0.97912 0.9093 0.0
H207 H 0.12981 1.00487 0.99543 0.0
H208 H 0.16447 0.03634 0.92409 0.0
H209 H 0.89646 0.98197 0.94395 0.0
H210 H 0.86294 0.03978 0.93741 0.0
H211 H 0.89984 1.02182 0.01675 0.0
C212 C 0.32893 0.82433 0.60879 0.0
C213 C 0.37892 0.79896 0.58571 0.0
C214 C 0.27453 0.82131 0.57288 0.0
C215 C 0.27049 0.79347 0.51121 0.0
C216 C 0.3222 0.77132 0.48445 0.0
C217 C 0.37549 0.77397 0.52229 0.0
C218 C 0.22058 0.84503 0.60394 0.0
C219 C 0.32047 0.74228 0.41795 0.0
C220 C 0.13187 0.72712 0.45516 0.0
C221 C 0.11357 0.75338 0.39675 0.0
C222 C 0.18023 0.74184 0.49619 0.0
C223 C 0.21183 0.78346 0.47775 0.0
C224 C 0.19087 0.81192 0.42196 0.0
C225 C 0.14172 0.79671 0.38241 0.0
C226 C 0.19997 0.71103 0.5564 0.0
C227 C 0.22299 0.85656 0.40058 0.0
H228 H 0.331 0.84403 0.65751 0.0
H229 H 0.414 0.75468 0.50372 0.0
H230 H 0.19394 0.86255 0.56265 0.0
H231 H 0.19196 0.81786 0.62904 0.0
H232 H 0.23274 0.87169 0.64433 0.0
H233 H 0.36548 0.73153 0.4003 0.0
H234 H 0.29364 0.70984 0.42682 0.0
H235 H 0.29897 0.76256 0.37523 0.0
H236 H 0.11008 0.6938 0.46695 0.0
H237 H 0.12808 0.81718 0.3372 0.0
H238 H 0.20829 0.73284 0.60379 0.0
H239 H 0.24225 0.69328 0.54238 0.0
H240 H 0.16663 0.68338 0.56952 0.0
H241 H 0.2338 0.87844 0.44718 0.0
H242 H 0.19652 0.87819 0.36349 0.0
H243 H 0.26551 0.84706 0.37475 0.0
C244 C 0.17457 0.21332 0.62002 0.0
C245 C 0.12826 0.24286 0.59798 0.0
C246 C 0.22792 0.21073 0.58149 0.0
C247 C 0.23516 0.23901 0.52069 0.0
C248 C 0.18648 0.26531 0.49501 0.0
C249 C 0.13356 0.26644 0.5335 0.0
C250 C 0.27773 0.1802 0.60829 0.0
C251 C 0.19174 0.29566 0.43001 0.0
C252 C 0.37824 0.30144 0.47426 0.0
C253 C 0.39188 0.28083 0.40933 0.0
C254 C 0.32991 0.28534 0.51421 0.0
C255 C 0.29489 0.24718 0.48918 0.0
C256 C 0.31226 0.22309 0.42735 0.0
C257 C 0.36029 0.24045 0.38779 0.0
C258 C 0.31306 0.3122 0.57981 0.0
C259 C 0.27756 0.18137 0.39967 0.0
H260 H 0.17059 0.19445 0.66927 0.0
H261 H 0.09752 0.28852 0.51515 0.0
H262 H 0.30054 0.16197 0.56427 0.0
H263 H 0.311 0.20274 0.63518 0.0
H264 H 0.26148 0.15324 0.64617 0.0
H265 H 0.14877 0.3119 0.41497 0.0
H266 H 0.22435 0.32449 0.43927 0.0
H267 H 0.20818 0.27435 0.38519 0.0
H268 H 0.40274 0.3323 0.49175 0.0
H269 H 0.37096 0.2238 0.33809 0.0
H270 H 0.30496 0.28742 0.62386 0.0
H271 H 0.27127 0.33192 0.57052 0.0
H272 H 0.34789 0.33789 0.59581 0.0
H273 H 0.25819 0.16004 0.44289 0.0
H274 H 0.30594 0.15812 0.36668 0.0
H275 H 0.24066 0.19434 0.3665 0.0
C276 C 0.85916 0.31829 0.60545 0.0
C277 C 0.885 0.27474 0.5872 0.0
C278 C 0.81191 0.33711 0.5664 0.0
C279 C 0.78909 0.31122 0.50884 0.0
C280 C 0.81769 0.26892 0.48744 0.0
C281 C 0.86557 0.25149 0.52643 0.0
C282 C 0.78422 0.3831 0.58972 0.0
C283 C 0.79483 0.23996 0.42652 0.0
C284 C 0.62623 0.30319 0.46624 0.0
C285 C 0.62472 0.32304 0.39894 0.0
C286 C 0.67856 0.30304 0.50567 0.0
C287 C 0.73069 0.32357 0.47725 0.0
C288 C 0.72753 0.34868 0.41304 0.0
C289 C 0.67439 0.34803 0.37431 0.0
C290 C 0.67941 0.27648 0.57439 0.0
C291 C 0.78149 0.37258 0.38222 0.0
H292 H 0.87425 0.33687 0.65188 0.0
H293 H 0.88532 0.21799 0.51156 0.0
H294 H 0.76901 0.40422 0.54416 0.0
H295 H 0.74501 0.37546 0.62313 0.0
H296 H 0.8158 0.40473 0.62096 0.0
H297 H 0.8245 0.20984 0.41348 0.0
H298 H 0.75024 0.22564 0.43955 0.0
H299 H 0.79006 0.26246 0.37928 0.0
H300 H 0.58758 0.28447 0.48593 0.0
H301 H 0.67345 0.3636 0.32239 0.0
H302 H 0.70118 0.29793 0.61572 0.0
H303 H 0.70546 0.24343 0.56806 0.0
H304 H 0.63409 0.2669 0.59258 0.0
H305 H 0.80808 0.39012 0.42372 0.0
H306 H 0.76907 0.39929 0.34215 0.0
H307 H 0.81007 0.34565 0.35667 0.0
C308 C 0.83655 0.7299 0.38817 0.0
C309 C 0.88408 0.75887 0.4091 0.0
C310 C 0.78286 0.72941 0.42609 0.0
C311 C 0.77686 0.75817 0.48659 0.0
C312 C 0.82657 0.78397 0.51132 0.0
C313 C 0.87941 0.78409 0.47222 0.0
C314 C 0.73128 0.70104 0.39813 0.0
C315 C 0.82262 0.81451 0.57621 0.0
C316 C 0.63303 0.81962 0.53464 0.0
C317 C 0.61633 0.79572 0.59602 0.0
C318 C 0.68299 0.80556 0.49581 0.0
C319 C 0.71741 0.7667 0.51898 0.0
C320 C 0.69817 0.74017 0.57782 0.0
C321 C 0.64776 0.75496 0.61564 0.0
C322 C 0.70126 0.83447 0.43273 0.0
C323 C 0.73303 0.69818 0.6038 0.0
H324 H 0.83959 0.7102 0.3395 0.0
H325 H 0.91615 0.80616 0.48906 0.0
H326 H 0.70668 0.68349 0.44138 0.0
H327 H 0.69997 0.72514 0.37117 0.0
H328 H 0.74596 0.6737 0.35995 0.0
H329 H 0.8667 0.82817 0.59266 0.0
H330 H 0.7932 0.84515 0.5658 0.0
H331 H 0.80293 0.79426 0.62034 0.0
H332 H 0.60869 0.85085 0.51868 0.0
H333 H 0.63525 0.73621 0.66302 0.0
H334 H 0.71044 0.81104 0.38729 0.0
H335 H 0.74278 0.85404 0.44465 0.0
H336 H 0.66674 0.86048 0.41744 0.0
H337 H 0.74694 0.67529 0.55943 0.0
H338 H 0.70711 0.67658 0.64174 0.0
H339 H 0.77386 0.71083 0.6303 0.0
C340 C 0.252 0.80291 0.82413 0.0
C341 C 0.31352 0.80901 0.82223 0.0
C342 C 0.21952 0.81728 0.88298 0.0
C343 C 0.25 0.83761 0.94061 0.0
C344 C 0.30975 0.8517 0.93301 0.0
C345 C 0.34118 0.83674 0.87368 0.0
C346 C 0.15479 0.80375 0.88777 0.0
C347 C 0.34222 0.87662 0.99158 0.0
C348 C 0.14837 0.83946 0.09702 0.0
C349 C 0.15586 0.79284 0.12036 0.0
C350 C 0.18378 0.8575 0.04278 0.0
C351 C 0.22667 0.82782 0.01152 0.0
C352 C 0.23977 0.78323 0.04184 0.0
C353 C 0.20436 0.7665 0.09647 0.0
C354 C 0.17158 0.90648 0.01553 0.0
C355 C 0.28696 0.75082 0.01205 0.0
H356 H 0.23013 0.78306 0.78288 0.0
H357 H 0.38847 0.84247 0.87143 0.0
H358 H 0.14986 0.7723 0.92219 0.0
H359 H 0.12844 0.83288 0.91108 0.0
H360 H 0.13597 0.79495 0.83556 0.0
H361 H 0.38836 0.88619 0.9766 0.0
H362 H 0.318 0.90927 0.00658 0.0
H363 H 0.34402 0.85364 0.03867 0.0
H364 H 0.11288 0.86088 0.11821 0.0
H365 H 0.21173 0.73101 0.11617 0.0
H366 H 0.21221 0.92319 0.99374 0.0
H367 H 0.15314 0.9295 0.05751 0.0
H368 H 0.13823 0.90423 0.97311 0.0
H369 H 0.27462 0.73978 0.95815 0.0
H370 H 0.29307 0.7184 0.04416 0.0
H371 H 0.33017 0.76952 0.00893 0.0
C372 C 0.07814 0.31637 0.98933 0.0
C373 C 0.10866 0.30957 0.92593 0.0
C374 C 0.10902 0.32561 0.05141 0.0
C375 C 0.17162 0.32722 0.04956 0.0
C376 C 0.20254 0.32049 0.98549 0.0
C377 C 0.17049 0.31211 0.92421 0.0
C378 C 0.07484 0.33367 0.11855 0.0
C379 C 0.26956 0.32154 0.98165 0.0
C380 C 0.27661 0.38663 0.17223 0.0
C381 C 0.30526 0.3468 0.19966 0.0
C382 C 0.2271 0.38133 0.12894 0.0
C383 C 0.20615 0.33523 0.11397 0.0
C384 C 0.22954 0.29573 0.15 0.0
C385 C 0.2794 0.30198 0.19241 0.0
C386 C 0.20265 0.42435 0.09209 0.0
C387 C 0.20705 0.24615 0.13686 0.0
H388 H 0.03011 0.31471 0.99038 0.0
H389 H 0.1939 0.30656 0.87514 0.0
H390 H 0.09094 0.30957 0.16023 0.0
H391 H 0.08219 0.37041 0.1372 0.0
H392 H 0.02638 0.32812 0.11168 0.0
H393 H 0.28642 0.31588 0.9275 0.0
H394 H 0.28643 0.35612 0.00083 0.0
H395 H 0.2883 0.29361 0.0159 0.0
H396 H 0.29604 0.42149 0.17885 0.0
H397 H 0.30068 0.27132 0.21543 0.0
H398 H 0.15374 0.42212 0.08694 0.0
H399 H 0.22167 0.4263 0.03842 0.0
H400 H 0.21422 0.45757 0.12017 0.0
H401 H 0.15804 0.2456 0.13191 0.0
H402 H 0.22024 0.22158 0.1795 0.0
H403 H 0.22606 0.2328 0.08687 0.0
C404 C 0.60328 0.26307 0.00657 0.0
C405 C 0.62885 0.27019 0.07267 0.0
C406 C 0.63852 0.25135 0.94877 0.0
C407 C 0.70045 0.24718 0.95774 0.0
C408 C 0.72684 0.25741 0.02331 0.0
C409 C 0.69047 0.26853 0.08037 0.0
C410 C 0.60925 0.24123 0.87919 0.0
C411 C 0.79318 0.25474 0.03391 0.0
C412 C 0.7899 0.16258 0.8471 0.0
C413 C 0.82135 0.19439 0.80521 0.0
C414 C 0.74803 0.17936 0.89542 0.0
C415 C 0.73754 0.22874 0.90036 0.0
C416 C 0.76653 0.26054 0.85461 0.0
C417 C 0.8084 0.24285 0.80756 0.0
C418 C 0.71808 0.14474 0.9444 0.0
C419 C 0.75561 0.31329 0.85763 0.0
H420 H 0.55554 0.26481 0.00049 0.0
H421 H 0.71017 0.27504 0.13131 0.0
H422 H 0.63219 0.2606 0.83639 0.0
H423 H 0.61266 0.20288 0.86723 0.0
H424 H 0.56159 0.25121 0.87914 0.0
H425 H 0.80666 0.26661 0.08711 0.0
H426 H 0.80837 0.21775 0.02621 0.0
H427 H 0.8165 0.27698 0.99459 0.0
H428 H 0.80082 0.12522 0.84539 0.0
H429 H 0.83274 0.26722 0.77429 0.0
H430 H 0.66938 0.15019 0.94418 0.0
H431 H 0.73371 0.151 -0.00122 0.0
H432 H 0.72753 0.10736 0.93013 0.0
H433 H 0.70809 0.32071 0.84756 0.0
H434 H 0.78281 0.33306 0.81871 0.0
H435 H 0.76594 0.3271 0.9107 0.0
C436 C 0.76149 0.75588 0.14916 0.0
C437 C 0.82326 0.75467 0.15391 0.0
C438 C 0.73341 0.74712 0.08519 0.0
C439 C 0.76838 0.73636 0.02521 0.0
C440 C 0.8297 0.72778 0.03274 0.0
C441 C 0.85675 0.73802 0.097 0.0
C442 C 0.66767 0.75702 0.08087 0.0
C443 C 0.86785 0.71414 0.97091 0.0
C444 C 0.6702 0.73249 0.86663 0.0
C445 C 0.66278 0.78127 0.85662 0.0
C446 C 0.71135 0.71565 0.9158 0.0
C447 C 0.74436 0.74874 0.95559 0.0
C448 C 0.74347 0.79727 0.93725 0.0
C449 C 0.70251 0.81295 0.88796 0.0
C450 C 0.71816 0.66299 0.92582 0.0
C451 C 0.7813 0.83355 0.97477 0.0
H452 H 0.73544 0.76801 0.19359 0.0
H453 H 0.9046 0.73784 0.10007 0.0
H454 H 0.66057 0.79589 0.08276 0.0
H455 H 0.64701 0.7433 0.03233 0.0
H456 H 0.64436 0.74144 0.1268 0.0
H457 H 0.91201 0.70097 0.9877 0.0
H458 H 0.84569 0.6863 0.93933 0.0
H459 H 0.87459 0.74545 0.93665 0.0
H460 H 0.64198 0.7077 0.83883 0.0
H461 H 0.69878 0.85063 0.87813 0.0
H462 H 0.7547 0.65038 0.89151 0.0
H463 H 0.67734 0.64365 0.91014 0.0
H464 H 0.72976 0.65364 0.98056 0.0
H465 H 0.76308 0.83983 0.02809 0.0
H466 H 0.78242 0.86795 0.94659 0.0
H467 H 0.82748 0.82067 0.98053 0.0
loop_
_geom_bond_atom_site_label_1
_geom_bond_atom_site_label_2
_geom_bond_distance
_geom_bond_site_symmetry_2
_ccdc_geom_bond_type
Zn0 O6 1.920 . S
Zn0 O12 1.898 . S
Zn0 O15 1.905 . S
Zn1 O9 1.905 . S
Zn1 O10 1.898 . S
Zn1 O18 1.920 . S
Zn2 O5 2.080 1_455 S
Zn2 O8 2.114 . S
Zn2 O11 2.120 1_455 S
Zn2 O13 2.120 . S
Zn2 O14 2.114 1_455 S
Zn2 O17 2.080 . S
C3 O8 1.166 . S
C3 O9 1.182 . S
C4 O10 1.167 . S
C4 O11 1.299 1_455 S
O5 Zn2 2.080 1_655 S
O5 C19 1.305 . S
O6 Zn0 1.920 . S
O6 C19 1.234 . S
C7 O12 1.167 . S
C7 O13 1.299 1_655 S
O8 Zn2 2.114 . S
O8 C3 1.166 . S
O9 Zn1 1.905 . S
O9 C3 1.182 . S
O10 Zn1 1.898 . S
O10 C4 1.167 . S
O11 Zn2 2.120 1_655 S
O11 C4 1.299 1_655 S
O12 Zn0 1.898 . S
O12 C7 1.167 . S
O13 Zn2 2.120 . S
O13 C7 1.299 1_455 S
O14 Zn2 2.114 1_655 S
O14 C16 1.166 . S
O15 Zn0 1.905 . S
O15 C16 1.182 . S
C16 O14 1.166 . S
C16 O15 1.182 . S
O17 Zn2 2.080 . S
O17 C20 1.305 . S
O18 Zn1 1.920 . S
O18 C20 1.234 . S
C19 O5 1.305 . S
C19 O6 1.234 . S
C20 O17 1.305 . S
C20 O18 1.234 . S
Zn21 O27 1.920 . S
Zn21 O33 1.898 . S
Zn21 O36 1.905 . S
Zn22 O30 1.905 . S
Zn22 O31 1.898 . S
Zn22 O39 1.920 . S
Zn23 O26 2.080 . S
Zn23 O29 2.114 . S
Zn23 O32 2.120 . S
Zn23 O34 2.120 . S
Zn23 O35 2.114 . S
Zn23 O38 2.080 . S
C24 O29 1.166 . S
C24 O30 1.182 . S
C25 O31 1.167 . S
C25 O32 1.299 . S
O26 Zn23 2.080 . S
O26 C40 1.305 . S
O27 Zn21 1.920 . S
O27 C40 1.234 . S
C28 O33 1.167 . S
C28 O34 1.299 . S
O29 Zn23 2.114 . S
O29 C24 1.166 . S
O30 Zn22 1.905 . S
O30 C24 1.182 . S
O31 Zn22 1.898 . S
O31 C25 1.167 . S
O32 Zn23 2.120 . S
O32 C25 1.299 . S
O33 Zn21 1.898 . S
O33 C28 1.167 . S
O34 Zn23 2.120 . S
O34 C28 1.299 . S
O35 Zn23 2.114 . S
O35 C37 1.166 . S
O36 Zn21 1.905 . S
O36 C37 1.182 . S
C37 O35 1.166 . S
C37 O36 1.182 . S
O38 Zn23 2.080 . S
O38 C41 1.305 . S
O39 Zn22 1.920 . S
O39 C41 1.234 . S
C40 O26 1.305 . S
C40 O27 1.234 . S
C41 O38 1.305 . S
C41 O39 1.234 . S
Zn42 O48 1.920 . S
Zn42 O54 1.898 . S
Zn42 O57 1.905 . S
Zn43 O51 1.905 . S
Zn43 O52 1.898 . S
Zn43 O60 1.920 . S
Zn44 O47 2.080 1_455 S
Zn44 O50 2.114 . S
Zn44 O53 2.120 1_455 S
Zn44 O55 2.120 . S
Zn44 O56 2.114 1_455 S
Zn44 O59 2.080 . S
C45 O50 1.166 . S
C45 O51 1.182 . S
C46 O52 1.167 . S
C46 O53 1.299 1_455 S
O47 Zn44 2.080 1_655 S
O47 C61 1.305 . S
O48 Zn42 1.920 . S
O48 C61 1.234 . S
C49 O54 1.167 . S
C49 O55 1.299 1_655 S
O50 Zn44 2.114 . S
O50 C45 1.166 . S
O51 Zn43 1.905 . S
O51 C45 1.182 . S
O52 Zn43 1.898 . S
O52 C46 1.167 . S
O53 Zn44 2.120 1_655 S
O53 C46 1.299 1_655 S
O54 Zn42 1.898 . S
O54 C49 1.167 . S
O55 Zn44 2.120 . S
O55 C49 1.299 1_455 S
O56 Zn44 2.114 1_655 S
O56 C58 1.166 . S
O57 Zn42 1.905 . S
O57 C58 1.182 . S
C58 O56 1.166 . S
C58 O57 1.182 . S
O59 Zn44 2.080 . S
O59 C62 1.305 . S
O60 Zn43 1.920 . S
O60 C62 1.234 . S
C61 O47 1.305 . S
C61 O48 1.234 . S
C62 O59 1.305 . S
C62 O60 1.234 . S
Zn63 O69 1.920 . S
Zn63 O75 1.898 . S
Zn63 O78 1.905 . S
Zn64 O72 1.905 . S
Zn64 O73 1.898 . S
Zn64 O81 1.920 . S
Zn65 O68 2.080 . S
Zn65 O71 2.114 . S
Zn65 O74 2.120 . S
Zn65 O76 2.120 . S
Zn65 O77 2.114 . S
Zn65 O80 2.080 . S
C66 O71 1.166 . S
C66 O72 1.182 . S
C67 O73 1.167 . S
C67 O74 1.299 . S
O68 Zn65 2.080 . S
O68 C82 1.305 . S
O69 Zn63 1.920 . S
O69 C82 1.234 . S
C70 O75 1.167 . S
C70 O76 1.299 . S
O71 Zn65 2.114 . S
O71 C66 1.166 . S
O72 Zn64 1.905 . S
O72 C66 1.182 . S
O73 Zn64 1.898 . S
O73 C67 1.167 . S
O74 Zn65 2.120 . S
O74 C67 1.299 . S
O75 Zn63 1.898 . S
O75 C70 1.167 . S
O76 Zn65 2.120 . S
O76 C70 1.299 . S
O77 Zn65 2.114 . S
O77 C79 1.166 . S
O78 Zn63 1.905 . S
O78 C79 1.182 . S
C79 O77 1.166 . S
C79 O78 1.182 . S
O80 Zn65 2.080 . S
O80 C83 1.305 . S
O81 Zn64 1.920 . S
O81 C83 1.234 . S
C82 O68 1.305 . S
C82 O69 1.234 . S
C83 O80 1.305 . S
C83 O81 1.234 . S
C84 C85 1.391 . S
C84 C86 1.394 1_556 S
C84 H100 0.931 . S
C85 C84 1.391 . S
C85 C89 1.376 . S
C86 C84 1.394 1_554 S
C86 C87 1.369 1_554 S
C86 C90 1.531 . S
C87 C86 1.369 1_556 S
C87 C88 1.410 . S
C87 C95 1.503 1_556 S
C88 C87 1.410 . S
C88 C89 1.392 . S
C88 C91 1.511 . S
C89 C85 1.376 . S
C89 C88 1.392 . S
C89 H101 0.929 1_455 S
C90 C86 1.531 . S
C90 H102 0.960 . S
C90 H103 0.962 1_455 S
C90 H104 0.960 . S
C91 C88 1.511 . S
C91 H105 0.961 1_455 S
C91 H106 0.961 1_455 S
C91 H107 0.961 . S
C92 C93 1.370 . S
C92 C94 1.363 . S
C92 H108 0.931 . S
C93 C92 1.370 . S
C93 C97 1.408 1_655 S
C94 C92 1.363 . S
C94 C95 1.370 1_655 S
C94 C98 1.524 . S
C95 C87 1.503 1_554 S
C95 C94 1.370 1_455 S
C95 C96 1.403 . S
C96 C95 1.403 . S
C96 C97 1.404 . S
C96 C99 1.539 . S
C97 C93 1.408 1_455 S
C97 C96 1.404 . S
C97 H109 0.930 . S
C98 C94 1.524 . S
C98 H110 0.956 . S
C98 H111 0.961 1_554 S
C98 H112 0.961 . S
C99 C96 1.539 . S
C99 H113 0.958 . S
C99 H114 0.961 . S
C99 H115 0.960 1_554 S
H100 C84 0.931 . S
H101 C89 0.929 1_655 S
H102 C90 0.960 . S
H103 C90 0.962 1_655 S
H104 C90 0.960 . S
H105 C91 0.961 1_655 S
H106 C91 0.961 1_655 S
H107 C91 0.961 . S
H108 C92 0.931 . S
H109 C97 0.930 . S
H110 C98 0.956 . S
H111 C98 0.961 1_556 S
H112 C98 0.961 . S
H113 C99 0.958 . S
H114 C99 0.961 . S
H115 C99 0.960 1_556 S
C116 C117 1.391 . S
C116 C118 1.394 . S
C116 H132 0.931 . S
C117 C116 1.391 . S
C117 C121 1.376 . S
C118 C116 1.394 . S
C118 C119 1.369 . S
C118 C122 1.531 . S
C119 C118 1.369 . S
C119 C120 1.410 . S
C119 C127 1.503 1_554 S
C120 C119 1.410 . S
C120 C121 1.392 . S
C120 C123 1.511 1_554 S
C121 C117 1.376 . S
C121 C120 1.392 . S
C121 H133 0.929 . S
C122 C118 1.531 . S
C122 H134 0.960 . S
C122 H135 0.962 . S
C122 H136 0.960 . S
C123 C120 1.511 1_556 S
C123 H137 0.961 . S
C123 H138 0.961 . S
C123 H139 0.961 . S
C124 C125 1.370 . S
C124 C126 1.363 . S
C124 H140 0.931 . S
C125 C124 1.370 . S
C125 C129 1.408 . S
C126 C124 1.363 . S
C126 C127 1.370 . S
C126 C130 1.524 . S
C127 C119 1.503 1_556 S
C127 C126 1.370 . S
C127 C128 1.403 1_556 S
C128 C127 1.403 1_554 S
C128 C129 1.404 1_554 S
C128 C131 1.539 . S
C129 C125 1.408 . S
C129 C128 1.404 1_556 S
C129 H141 0.930 . S
C130 C126 1.524 . S
C130 H142 0.956 . S
C130 H143 0.961 . S
C130 H144 0.961 . S
C131 C128 1.539 . S
C131 H145 0.958 . S
C131 H146 0.961 . S
C131 H147 0.960 . S
H132 C116 0.931 . S
H133 C121 0.929 . S
H134 C122 0.960 . S
H135 C122 0.962 . S
H136 C122 0.960 . S
H137 C123 0.961 . S
H138 C123 0.961 . S
H139 C123 0.961 . S
H140 C124 0.931 . S
H141 C129 0.930 . S
H142 C130 0.956 . S
H143 C130 0.961 . S
H144 C130 0.961 . S
H145 C131 0.958 . S
H146 C131 0.961 . S
H147 C131 0.960 . S
C148 C149 1.391 . S
C148 C150 1.394 . S
C148 H164 0.931 . S
C149 C148 1.391 . S
C149 C153 1.376 . S
C150 C148 1.394 . S
C150 C151 1.369 . S
C150 C154 1.531 1_565 S
C151 C150 1.369 . S
C151 C152 1.410 . S
C151 C159 1.503 1_566 S
C152 C151 1.410 . S
C152 C153 1.392 . S
C152 C155 1.511 1_556 S
C153 C149 1.376 . S
C153 C152 1.392 . S
C153 H165 0.929 . S
C154 C150 1.531 1_545 S
C154 H166 0.960 . S
C154 H167 0.961 1_545 S
C154 H168 0.960 . S
C155 C152 1.511 1_554 S
C155 H169 0.961 . S
C155 H170 0.961 . S
C155 H171 0.961 1_554 S
C156 C157 1.370 . S
C156 C158 1.363 . S
C156 H172 0.931 . S
C157 C156 1.370 . S
C157 C161 1.408 . S
C158 C156 1.363 . S
C158 C159 1.370 . S
C158 C162 1.524 1_545 S
C159 C151 1.503 1_544 S
C159 C158 1.370 . S
C159 C160 1.403 1_554 S
C160 C159 1.403 1_556 S
C160 C161 1.404 1_556 S
C160 C163 1.539 . S
C161 C157 1.408 . S
C161 C160 1.404 1_554 S
C161 H173 0.930 . S
C162 C158 1.524 1_565 S
C162 H174 0.956 . S
C162 H175 0.961 . S
C162 H176 0.961 . S
C163 C160 1.539 . S
C163 H177 0.958 . S
C163 H178 0.961 . S
C163 H179 0.960 . S
H164 C148 0.931 . S
H165 C153 0.929 . S
H166 C154 0.960 . S
H167 C154 0.961 1_565 S
H168 C154 0.960 . S
H169 C155 0.961 . S
H170 C155 0.961 . S
H171 C155 0.961 1_556 S
H172 C156 0.931 . S
H173 C161 0.930 . S
H174 C162 0.956 . S
H175 C162 0.961 . S
H176 C162 0.961 . S
H177 C163 0.958 . S
H178 C163 0.961 . S
H179 C163 0.960 . S
C180 C181 1.399 . S
C180 C182 1.394 1_554 S
C180 H196 0.931 . S
C181 C180 1.399 . S
C181 C185 1.367 1_455 S
C182 C180 1.394 1_556 S
C182 C183 1.369 1_456 S
C182 C186 1.531 . S
C183 C182 1.369 1_654 S
C183 C184 1.410 . S
C183 C191 1.503 1_564 S
C184 C183 1.410 . S
C184 C185 1.392 . S
C184 C187 1.511 1_565 S
C185 C181 1.367 1_655 S
C185 C184 1.392 . S
C185 H197 0.929 . S
C186 C182 1.531 . S
C186 H198 0.960 . S
C186 H199 0.962 . S
C186 H200 0.960 . S
C187 C184 1.511 1_545 S
C187 H201 0.961 . S
C187 H202 0.961 . S
C187 H203 0.961 . S
C188 C189 1.370 . S
C188 C190 1.363 . S
C188 H204 0.931 . S
C189 C188 1.370 . S
C189 C193 1.408 1_455 S
C190 C188 1.363 . S
C190 C191 1.370 1_455 S
C190 C194 1.524 1_556 S
C191 C183 1.503 1_546 S
C191 C190 1.370 1_655 S
C191 C192 1.403 . S
C192 C191 1.403 . S
C192 C193 1.404 . S
C192 C195 1.539 1_545 S
C193 C189 1.408 1_655 S
C193 C192 1.404 . S
C193 H205 0.930 . S
C194 C190 1.524 1_554 S
C194 H206 0.956 . S
C194 H207 0.961 . S
C194 H208 0.961 . S
C195 C192 1.539 1_565 S
C195 H209 0.958 . S
C195 H210 0.961 1_565 S
C195 H211 0.960 . S
H196 C180 0.931 . S
H197 C185 0.929 . S
H198 C186 0.960 . S
H199 C186 0.962 . S
H200 C186 0.960 . S
H201 C187 0.961 . S
H202 C187 0.961 . S
H203 C187 0.961 . S
H204 C188 0.931 . S
H205 C193 0.930 . S
H206 C194 0.956 . S
H207 C194 0.961 . S
H208 C194 0.961 . S
H209 C195 0.958 . S
H210 C195 0.961 1_545 S
H211 C195 0.960 . S
C212 C213 1.391 . S
C212 C214 1.394 . S
C212 H228 0.931 . S
C213 C212 1.391 . S
C213 C217 1.376 . S
C214 C212 1.394 . S
C214 C215 1.369 . S
C214 C218 1.531 . S
C215 C214 1.369 . S
C215 C216 1.410 . S
C215 C223 1.503 . S
C216 C215 1.410 . S
C216 C217 1.392 . S
C216 C219 1.511 . S
C217 C213 1.376 . S
C217 C216 1.392 . S
C217 H229 0.929 . S
C218 C214 1.531 . S
C218 H230 0.960 . S
C218 H231 0.962 . S
C218 H232 0.960 . S
C219 C216 1.511 . S
C219 H233 0.961 . S
C219 H234 0.961 . S
C219 H235 0.961 . S
C220 C221 1.370 . S
C220 C222 1.363 . S
C220 H236 0.931 . S
C221 C220 1.370 . S
C221 C225 1.408 . S
C222 C220 1.363 . S
C222 C223 1.370 . S
C222 C226 1.524 . S
C223 C215 1.503 . S
C223 C222 1.370 . S
C223 C224 1.403 . S
C224 C223 1.403 . S
C224 C225 1.404 . S
C224 C227 1.539 . S
C225 C221 1.408 . S
C225 C224 1.404 . S
C225 H237 0.930 . S
C226 C222 1.524 . S
C226 H238 0.956 . S
C226 H239 0.961 . S
C226 H240 0.961 . S
C227 C224 1.539 . S
C227 H241 0.958 . S
C227 H242 0.961 . S
C227 H243 0.960 . S
H228 C212 0.931 . S
H229 C217 0.929 . S
H230 C218 0.960 . S
H231 C218 0.962 . S
H232 C218 0.960 . S
H233 C219 0.961 . S
H234 C219 0.961 . S
H235 C219 0.961 . S
H236 C220 0.931 . S
H237 C225 0.930 . S
H238 C226 0.956 . S
H239 C226 0.961 . S
H240 C226 0.961 . S
H241 C227 0.958 . S
H242 C227 0.961 . S
H243 C227 0.960 . S
C244 C245 1.391 . S
C244 C246 1.394 . S
C244 H260 0.931 . S
C245 C244 1.391 . S
C245 C249 1.376 . S
C246 C244 1.394 . S
C246 C247 1.369 . S
C246 C250 1.531 . S
C247 C246 1.369 . S
C247 C248 1.410 . S
C247 C255 1.503 . S
C248 C247 1.410 . S
C248 C249 1.392 . S
C248 C251 1.511 . S
C249 C245 1.376 . S
C249 C248 1.392 . S
C249 H261 0.929 . S
C250 C246 1.531 . S
C250 H262 0.960 . S
C250 H263 0.962 . S
C250 H264 0.960 . S
C251 C248 1.511 . S
C251 H265 0.961 . S
C251 H266 0.961 . S
C251 H267 0.961 . S
C252 C253 1.370 . S
C252 C254 1.363 . S
C252 H268 0.931 . S
C253 C252 1.370 . S
C253 C257 1.408 . S
C254 C252 1.363 . S
C254 C255 1.370 . S
C254 C258 1.524 . S
C255 C247 1.503 . S
C255 C254 1.370 . S
C255 C256 1.403 . S
C256 C255 1.403 . S
C256 C257 1.404 . S
C256 C259 1.539 . S
C257 C253 1.408 . S
C257 C256 1.404 . S
C257 H269 0.930 . S
C258 C254 1.524 . S
C258 H270 0.956 . S
C258 H271 0.961 . S
C258 H272 0.961 . S
C259 C256 1.539 . S
C259 H273 0.958 . S
C259 H274 0.961 . S
C259 H275 0.960 . S
H260 C244 0.931 . S
H261 C249 0.929 . S
H262 C250 0.960 . S
H263 C250 0.962 . S
H264 C250 0.960 . S
H265 C251 0.961 . S
H266 C251 0.961 . S
H267 C251 0.961 . S
H268 C252 0.931 . S
H269 C257 0.930 . S
H270 C258 0.956 . S
H271 C258 0.961 . S
H272 C258 0.961 . S
H273 C259 0.958 . S
H274 C259 0.961 . S
H275 C259 0.960 . S
C276 C277 1.391 . S
C276 C278 1.394 . S
C276 H292 0.931 . S
C277 C276 1.391 . S
C277 C281 1.376 . S
C278 C276 1.394 . S
C278 C279 1.369 . S
C278 C282 1.531 . S
C279 C278 1.369 . S
C279 C280 1.410 . S
C279 C287 1.503 . S
C280 C279 1.410 . S
C280 C281 1.392 . S
C280 C283 1.511 . S
C281 C277 1.376 . S
C281 C280 1.392 . S
C281 H293 0.929 . S
C282 C278 1.531 . S
C282 H294 0.960 . S
C282 H295 0.962 . S
C282 H296 0.960 . S
C283 C280 1.511 . S
C283 H297 0.961 . S
C283 H298 0.961 . S
C283 H299 0.961 . S
C284 C285 1.370 . S
C284 C286 1.363 . S
C284 H300 0.931 . S
C285 C284 1.370 . S
C285 C289 1.408 . S
C286 C284 1.363 . S
C286 C287 1.370 . S
C286 C290 1.524 . S
C287 C279 1.503 . S
C287 C286 1.370 . S
C287 C288 1.403 . S
C288 C287 1.403 . S
C288 C289 1.404 . S
C288 C291 1.539 . S
C289 C285 1.408 . S
C289 C288 1.404 . S
C289 H301 0.930 . S
C290 C286 1.524 . S
C290 H302 0.956 . S
C290 H303 0.961 . S
C290 H304 0.961 . S
C291 C288 1.539 . S
C291 H305 0.958 . S
C291 H306 0.961 . S
C291 H307 0.960 . S
H292 C276 0.931 . S
H293 C281 0.929 . S
H294 C282 0.960 . S
H295 C282 0.962 . S
H296 C282 0.960 . S
H297 C283 0.961 . S
H298 C283 0.961 . S
H299 C283 0.961 . S
H300 C284 0.931 . S
H301 C289 0.930 . S
H302 C290 0.956 . S
H303 C290 0.961 . S
H304 C290 0.961 . S
H305 C291 0.958 . S
H306 C291 0.961 . S
H307 C291 0.960 . S
C308 C309 1.391 . S
C308 C310 1.394 . S
C308 H324 0.931 . S
C309 C308 1.391 . S
C309 C313 1.376 . S
C310 C308 1.394 . S
C310 C311 1.369 . S
C310 C314 1.531 . S
C311 C310 1.369 . S
C311 C312 1.410 . S
C311 C319 1.503 . S
C312 C311 1.410 . S
C312 C313 1.392 . S
C312 C315 1.511 . S
C313 C309 1.376 . S
C313 C312 1.392 . S
C313 H325 0.929 . S
C314 C310 1.531 . S
C314 H326 0.960 . S
C314 H327 0.962 . S
C314 H328 0.960 . S
C315 C312 1.511 . S
C315 H329 0.961 . S
C315 H330 0.961 . S
C315 H331 0.961 . S
C316 C317 1.370 . S
C316 C318 1.363 . S
C316 H332 0.931 . S
C317 C316 1.370 . S
C317 C321 1.408 . S
C318 C316 1.363 . S
C318 C319 1.370 . S
C318 C322 1.524 . S
C319 C311 1.503 . S
C319 C318 1.370 . S
C319 C320 1.403 . S
C320 C319 1.403 . S
C320 C321 1.404 . S
C320 C323 1.539 . S
C321 C317 1.408 . S
C321 C320 1.404 . S
C321 H333 0.930 . S
C322 C318 1.524 . S
C322 H334 0.956 . S
C322 H335 0.961 . S
C322 H336 0.961 . S
C323 C320 1.539 . S
C323 H337 0.958 . S
C323 H338 0.961 . S
C323 H339 0.960 . S
H324 C308 0.931 . S
H325 C313 0.929 . S
H326 C314 0.960 . S
H327 C314 0.962 . S
H328 C314 0.960 . S
H329 C315 0.961 . S
H330 C315 0.961 . S
H331 C315 0.961 . S
H332 C316 0.931 . S
H333 C321 0.930 . S
H334 C322 0.956 . S
H335 C322 0.961 . S
H336 C322 0.961 . S
H337 C323 0.958 . S
H338 C323 0.961 . S
H339 C323 0.960 . S
C340 C341 1.391 . S
C340 C342 1.394 . S
C340 H356 0.931 . S
C341 C340 1.391 . S
C341 C345 1.376 . S
C342 C340 1.394 . S
C342 C343 1.369 . S
C342 C346 1.531 . S
C343 C342 1.369 . S
C343 C344 1.410 1_556 S
C343 C351 1.503 1_556 S
C344 C343 1.410 1_554 S
C344 C345 1.392 1_554 S
C344 C347 1.511 . S
C345 C341 1.376 . S
C345 C344 1.392 1_556 S
C345 H357 0.929 1_556 S
C346 C342 1.531 . S
C346 H358 0.960 . S
C346 H359 0.962 . S
C346 H360 0.960 . S
C347 C344 1.511 . S
C347 H361 0.961 . S
C347 H362 0.961 . S
C347 H363 0.961 . S
C348 C349 1.370 . S
C348 C350 1.363 . S
C348 H364 0.931 . S
C349 C348 1.370 . S
C349 C353 1.408 . S
C350 C348 1.363 . S
C350 C351 1.370 . S
C350 C354 1.524 1_554 S
C351 C343 1.503 1_554 S
C351 C350 1.370 . S
C351 C352 1.403 . S
C352 C351 1.403 . S
C352 C353 1.404 . S
C352 C355 1.539 . S
C353 C349 1.408 . S
C353 C352 1.404 . S
C353 H365 0.930 . S
C354 C350 1.524 1_556 S
C354 H366 0.956 . S
C354 H367 0.961 . S
C354 H368 0.961 . S
C355 C352 1.539 . S
C355 H369 0.958 . S
C355 H370 0.961 . S
C355 H371 0.960 . S
H356 C340 0.931 . S
H357 C345 0.929 1_554 S
H358 C346 0.960 . S
H359 C346 0.962 . S
H360 C346 0.960 . S
H361 C347 0.961 . S
H362 C347 0.961 . S
H363 C347 0.961 . S
H364 C348 0.931 . S
H365 C353 0.930 . S
H366 C354 0.956 . S
H367 C354 0.961 . S
H368 C354 0.961 . S
H369 C355 0.958 . S
H370 C355 0.961 . S
H371 C355 0.960 . S
C372 C373 1.391 . S
C372 C374 1.394 1_556 S
C372 H388 0.931 . S
C373 C372 1.391 . S
C373 C377 1.376 . S
C374 C372 1.394 1_554 S
C374 C375 1.369 1_554 S
C374 C378 1.531 . S
C375 C374 1.369 1_556 S
C375 C376 1.410 . S
C375 C383 1.503 1_556 S
C376 C375 1.410 . S
C376 C377 1.392 . S
C376 C379 1.511 . S
C377 C373 1.376 . S
C377 C376 1.392 . S
C377 H389 0.929 . S
C378 C374 1.531 . S
C378 H390 0.960 . S
C378 H391 0.962 . S
C378 H392 0.960 . S
C379 C376 1.511 . S
C379 H393 0.961 . S
C379 H394 0.961 . S
C379 H395 0.961 . S
C380 C381 1.370 . S
C380 C382 1.363 1_554 S
C380 H396 0.931 1_554 S
C381 C380 1.370 . S
C381 C385 1.408 . S
C382 C380 1.363 1_556 S
C382 C383 1.370 1_556 S
C382 C386 1.524 . S
C383 C375 1.503 1_554 S
C383 C382 1.370 1_554 S
C383 C384 1.403 . S
C384 C383 1.403 . S
C384 C385 1.404 . S
C384 C387 1.539 . S
C385 C381 1.408 . S
C385 C384 1.404 . S
C385 H397 0.930 . S
C386 C382 1.524 . S
C386 H398 0.956 . S
C386 H399 0.961 . S
C386 H400 0.961 . S
C387 C384 1.539 . S
C387 H401 0.958 . S
C387 H402 0.961 . S
C387 H403 0.960 . S
H388 C372 0.931 . S
H389 C377 0.929 . S
H390 C378 0.960 . S
H391 C378 0.962 . S
H392 C378 0.960 . S
H393 C379 0.961 . S
H394 C379 0.961 . S
H395 C379 0.961 . S
H396 C380 0.931 1_556 S
H397 C385 0.930 . S
H398 C386 0.956 . S
H399 C386 0.961 . S
H400 C386 0.961 . S
H401 C387 0.958 . S
H402 C387 0.961 . S
H403 C387 0.960 . S
C404 C405 1.391 . S
C404 C406 1.394 1_554 S
C404 H420 0.931 . S
C405 C404 1.391 . S
C405 C409 1.376 . S
C406 C404 1.394 1_556 S
C406 C407 1.369 1_556 S
C406 C410 1.531 . S
C407 C406 1.369 1_554 S
C407 C408 1.410 . S
C407 C415 1.503 1_554 S
C408 C407 1.410 . S
C408 C409 1.392 . S
C408 C411 1.511 . S
C409 C405 1.376 . S
C409 C408 1.392 . S
C409 H421 0.929 . S
C410 C406 1.531 . S
C410 H422 0.960 . S
C410 H423 0.962 . S
C410 H424 0.960 . S
C411 C408 1.511 . S
C411 H425 0.961 . S
C411 H426 0.961 . S
C411 H427 0.961 . S
C412 C413 1.370 . S
C412 C414 1.363 1_556 S
C412 H428 0.931 1_556 S
C413 C412 1.370 . S
C413 C417 1.408 . S
C414 C412 1.363 1_554 S
C414 C415 1.370 1_554 S
C414 C418 1.524 . S
C415 C407 1.503 1_556 S
C415 C414 1.370 1_556 S
C415 C416 1.403 . S
C416 C415 1.403 . S
C416 C417 1.404 . S
C416 C419 1.539 . S
C417 C413 1.408 . S
C417 C416 1.404 . S
C417 H429 0.930 . S
C418 C414 1.524 . S
C418 H430 0.956 . S
C418 H431 0.961 . S
C418 H432 0.961 . S
C419 C416 1.539 . S
C419 H433 0.958 . S
C419 H434 0.961 . S
C419 H435 0.960 . S
H420 C404 0.931 . S
H421 C409 0.929 . S
H422 C410 0.960 . S
H423 C410 0.962 . S
H424 C410 0.960 . S
H425 C411 0.961 . S
H426 C411 0.961 . S
H427 C411 0.961 . S
H428 C412 0.931 1_554 S
H429 C417 0.930 . S
H430 C418 0.956 . S
H431 C418 0.961 . S
H432 C418 0.961 . S
H433 C419 0.958 . S
H434 C419 0.961 . S
H435 C419 0.960 . S
C436 C437 1.391 . S
C436 C438 1.394 . S
C436 H452 0.931 . S
C437 C436 1.391 . S
C437 C441 1.376 . S
C438 C436 1.394 . S
C438 C439 1.369 . S
C438 C442 1.531 . S
C439 C438 1.369 . S
C439 C440 1.410 1_554 S
C439 C447 1.503 1_554 S
C440 C439 1.410 1_556 S
C440 C441 1.392 1_556 S
C440 C443 1.511 . S
C441 C437 1.376 . S
C441 C440 1.392 1_554 S
C441 H453 0.929 1_554 S
C442 C438 1.531 . S
C442 H454 0.960 . S
C442 H455 0.962 . S
C442 H456 0.960 . S
C443 C440 1.511 . S
C443 H457 0.961 . S
C443 H458 0.961 . S
C443 H459 0.961 . S
C444 C445 1.370 . S
C444 C446 1.363 . S
C444 H460 0.931 . S
C445 C444 1.370 . S
C445 C449 1.408 . S
C446 C444 1.363 . S
C446 C447 1.370 . S
C446 C450 1.524 1_556 S
C447 C439 1.503 1_556 S
C447 C446 1.370 . S
C447 C448 1.403 . S
C448 C447 1.403 . S
C448 C449 1.404 . S
C448 C451 1.539 . S
C449 C445 1.408 . S
C449 C448 1.404 . S
C449 H461 0.930 . S
C450 C446 1.524 1_554 S
C450 H462 0.956 . S
C450 H463 0.961 . S
C450 H464 0.961 . S
C451 C448 1.539 . S
C451 H465 0.958 . S
C451 H466 0.961 . S
C451 H467 0.960 . S
H452 C436 0.931 . S
H453 C441 0.929 1_556 S
H454 C442 0.960 . S
H455 C442 0.962 . S
H456 C442 0.960 . S
H457 C443 0.961 . S
H458 C443 0.961 . S
H459 C443 0.961 . S
H460 C444 0.931 . S
H461 C449 0.930 . S
H462 C450 0.956 . S
H463 C450 0.961 . S
H464 C450 0.961 . S
H465 C451 0.958 . S
H466 C451 0.961 . S
H467 C451 0.960 . S
C85 C46 1.792 . S
C93 C4 1.817 1_655 S
C117 C25 1.855 . S
C125 C67 1.843 . S
C149 C70 1.848 . S
C157 C28 1.840 . S
C181 C7 1.791 1_455 S
C189 C49 1.819 1_455 S
C213 C83 1.726 . S
C221 C20 1.694 . S
C245 C62 1.734 . S
C253 C41 1.686 . S
C277 C61 1.733 . S
C285 C40 1.681 . S
C309 C19 1.708 . S
C317 C82 1.704 . S
C341 C66 0.614 . S
C349 C3 0.623 . S
C373 C45 0.774 . S
C381 C24 0.670 . S
C405 C37 0.782 . S
C413 C58 0.678 . S
C437 C16 0.646 . S
C445 C79 0.623 . S
