# Generated by pormake.
# Topology zfh, (5)-cn, num edge types: 1
# Building blocks:
#     Node 0, Type 0, BuildingBlock: XOMCOT_clean_sbu_1, # of connection points: 5
#     Node 1, Type 0, BuildingBlock: XOMCOT_clean_sbu_1, # of connection points: 5
#     Node 2, Type 0, BuildingBlock: XOMCOT_clean_sbu_1, # of connection points: 5
#     Node 3, Type 0, BuildingBlock: XOMCOT_clean_sbu_1, # of connection points: 5
#     Node 4, Type 0, BuildingBlock: XOMCOT_clean_sbu_1, # of connection points: 5
#     Node 5, Type 0, BuildingBlock: XOMCOT_clean_sbu_1, # of connection points: 5
#     Node 6, Type 0, BuildingBlock: XOMCOT_clean_sbu_1, # of connection points: 5
#     Node 7, Type 0, BuildingBlock: XOMCOT_clean_sbu_1, # of connection points: 5
#     Node 8, Type 0, BuildingBlock: XOMCOT_clean_sbu_1, # of connection points: 5
#     Node 9, Type 0, BuildingBlock: XOMCOT_clean_sbu_1, # of connection points: 5
#     Node 10, Type 0, BuildingBlock: XOMCOT_clean_sbu_1, # of connection points: 5
#     Node 11, Type 0, BuildingBlock: XOMCOT_clean_sbu_1, # of connection points: 5
#     Node 12, Type 0, BuildingBlock: XOMCOT_clean_sbu_1, # of connection points: 5
#     Node 13, Type 0, BuildingBlock: XOMCOT_clean_sbu_1, # of connection points: 5
#     Node 14, Type 0, BuildingBlock: XOMCOT_clean_sbu_1, # of connection points: 5
#     Node 15, Type 0, BuildingBlock: XOMCOT_clean_sbu_1, # of connection points: 5
#     Edge 16, Type (0, 0), BuildingBlock: UVAHIK_clean_linker_0, # of connection points: 2
#     Edge 17, Type (0, 0), BuildingBlock: UVAHIK_clean_linker_0, # of connection points: 2
#     Edge 18, Type (0, 0), BuildingBlock: UVAHIK_clean_linker_0, # of connection points: 2
#     Edge 19, Type (0, 0), BuildingBlock: UVAHIK_clean_linker_0, # of connection points: 2
#     Edge 20, Type (0, 0), BuildingBlock: UVAHIK_clean_linker_0, # of connection points: 2
#     Edge 21, Type (0, 0), BuildingBlock: UVAHIK_clean_linker_0, # of connection points: 2
#     Edge 22, Type (0, 0), BuildingBlock: UVAHIK_clean_linker_0, # of connection points: 2
#     Edge 23, Type (0, 0), BuildingBlock: UVAHIK_clean_linker_0, # of connection points: 2
#     Edge 24, Type (0, 0), BuildingBlock: UVAHIK_clean_linker_0, # of connection points: 2
#     Edge 25, Type (0, 0), BuildingBlock: UVAHIK_clean_linker_0, # of connection points: 2
#     Edge 26, Type (0, 0), BuildingBlock: UVAHIK_clean_linker_0, # of connection points: 2
#     Edge 27, Type (0, 0), BuildingBlock: UVAHIK_clean_linker_0, # of connection points: 2
#     Edge 28, Type (0, 0), BuildingBlock: UVAHIK_clean_linker_0, # of connection points: 2
#     Edge 29, Type (0, 0), BuildingBlock: UVAHIK_clean_linker_0, # of connection points: 2
#     Edge 30, Type (0, 0), BuildingBlock: UVAHIK_clean_linker_0, # of connection points: 2
#     Edge 31, Type (0, 0), BuildingBlock: UVAHIK_clean_linker_0, # of connection points: 2
#     Edge 32, Type (0, 0), BuildingBlock: UVAHIK_clean_linker_0, # of connection points: 2
#     Edge 33, Type (0, 0), BuildingBlock: UVAHIK_clean_linker_0, # of connection points: 2
#     Edge 34, Type (0, 0), BuildingBlock: UVAHIK_clean_linker_0, # of connection points: 2
#     Edge 35, Type (0, 0), BuildingBlock: UVAHIK_clean_linker_0, # of connection points: 2
#     Edge 36, Type (0, 0), BuildingBlock: UVAHIK_clean_linker_0, # of connection points: 2
#     Edge 37, Type (0, 0), BuildingBlock: UVAHIK_clean_linker_0, # of connection points: 2
#     Edge 38, Type (0, 0), BuildingBlock: UVAHIK_clean_linker_0, # of connection points: 2
#     Edge 39, Type (0, 0), BuildingBlock: UVAHIK_clean_linker_0, # of connection points: 2
#     Edge 40, Type (0, 0), BuildingBlock: UVAHIK_clean_linker_0, # of connection points: 2
#     Edge 41, Type (0, 0), BuildingBlock: UVAHIK_clean_linker_0, # of connection points: 2
#     Edge 42, Type (0, 0), BuildingBlock: UVAHIK_clean_linker_0, # of connection points: 2
#     Edge 43, Type (0, 0), BuildingBlock: UVAHIK_clean_linker_0, # of connection points: 2
#     Edge 44, Type (0, 0), BuildingBlock: UVAHIK_clean_linker_0, # of connection points: 2
#     Edge 45, Type (0, 0), BuildingBlock: UVAHIK_clean_linker_0, # of connection points: 2
#     Edge 46, Type (0, 0), BuildingBlock: UVAHIK_clean_linker_0, # of connection points: 2
#     Edge 47, Type (0, 0), BuildingBlock: UVAHIK_clean_linker_0, # of connection points: 2
#     Edge 48, Type (0, 0), BuildingBlock: UVAHIK_clean_linker_0, # of connection points: 2
#     Edge 49, Type (0, 0), BuildingBlock: UVAHIK_clean_linker_0, # of connection points: 2
#     Edge 50, Type (0, 0), BuildingBlock: UVAHIK_clean_linker_0, # of connection points: 2
#     Edge 51, Type (0, 0), BuildingBlock: UVAHIK_clean_linker_0, # of connection points: 2
#     Edge 52, Type (0, 0), BuildingBlock: UVAHIK_clean_linker_0, # of connection points: 2
#     Edge 53, Type (0, 0), BuildingBlock: UVAHIK_clean_linker_0, # of connection points: 2
#     Edge 54, Type (0, 0), BuildingBlock: UVAHIK_clean_linker_0, # of connection points: 2
#     Edge 55, Type (0, 0), BuildingBlock: UVAHIK_clean_linker_0, # of connection points: 2
# Relax obj value: 0.228
# Max RMSD: 0.219
# Mean RMSD: 0.219
data_MOF--net-zfh--node1-XOMCOT_clean_sbu_1--edge1-UVAHIK_clean_linker_0
_symmetry_space_group_name_H-M    P1
_symmetry_Int_Tables_number       1
_symmetry_cell_setting            triclinic
loop_
_symmetry_equiv_pos_as_xyz
'x, y, z'
_cell_length_a     50.333469
_cell_length_b     50.326151
_cell_length_c     65.270707
_cell_angle_alpha  89.985612
_cell_angle_beta   89.977726
_cell_angle_gamma 90.101205
loop_
_atom_site_label
_atom_site_type_symbol
_atom_site_fract_x
_atom_site_fract_y
_atom_site_fract_z
_atom_type_partial_charge
C0 C 0.5322 0.22873 0.36911 0.0
C1 C 0.51799 0.25197 0.37018 0.0
N2 N 0.49939 0.24934 0.38491 0.0
N3 N 0.5225 0.21139 0.38298 0.0
C4 C 0.50246 0.22448 0.39236 0.0
H5 H 0.54928 0.22514 0.35947 0.0
Co6 Co 0.5382 0.17928 0.39001 0.0
C7 C 0.49292 0.1412 0.39109 0.0
O8 O 0.50717 0.1236 0.38125 0.0
N9 N 0.55544 0.14649 0.39747 0.0
C10 C 0.57604 0.1072 0.3961 0.0
C11 C 0.56112 0.12523 0.38548 0.0
C12 C 0.56761 0.14049 0.41546 0.0
N13 N 0.58044 0.11688 0.41496 0.0
O14 O 0.54026 0.19172 0.41756 0.0
H15 H 0.55504 0.12257 0.36975 0.0
H16 H 0.56811 0.1536 0.42852 0.0
O17 O 0.50278 0.16394 0.39546 0.0
C18 C 0.56166 0.20495 0.41981 0.0
O19 O 0.57882 0.20531 0.40462 0.0
N20 N 0.53794 0.16958 0.36234 0.0
C21 C 0.54535 0.15557 0.32152 0.0
C22 C 0.51964 0.15744 0.32974 0.0
C23 C 0.5163 0.16523 0.35016 0.0
C24 C 0.56279 0.17014 0.3541 0.0
C25 C 0.56701 0.16275 0.33384 0.0
H26 H 0.49644 0.16766 0.3561 0.0
H27 H 0.57957 0.17529 0.36367 0.0
H28 H 0.49153 0.21655 0.40528 0.0
H29 H 0.52158 0.26969 0.3612 0.0
H30 H 0.58332 0.08851 0.39016 0.0
H31 H 0.50234 0.15303 0.32047 0.0
H32 H 0.5872 0.16178 0.32815 0.0
C33 C 0.28472 0.52487 0.38158 0.0
C34 C 0.26159 0.51103 0.37804 0.0
N35 N 0.26008 0.49085 0.3916 0.0
N36 N 0.29793 0.51335 0.39717 0.0
C37 C 0.28243 0.49275 0.40299 0.0
H38 H 0.29086 0.54287 0.37388 0.0
Co39 Co 0.32802 0.52627 0.41024 0.0
C40 C 0.34539 0.47792 0.43193 0.0
O41 O 0.34437 0.49036 0.44961 0.0
N42 N 0.35802 0.53984 0.42332 0.0
C43 C 0.39905 0.54776 0.43433 0.0
C44 C 0.38279 0.52974 0.42455 0.0
C45 C 0.35982 0.56403 0.4321 0.0
N46 N 0.38452 0.56938 0.43908 0.0
O47 O 0.30855 0.52692 0.43531 0.0
H48 H 0.38885 0.51078 0.41833 0.0
H49 H 0.34351 0.57792 0.43263 0.0
O50 O 0.33937 0.49021 0.4155 0.0
C51 C 0.29457 0.54765 0.438 0.0
O52 O 0.29529 0.56658 0.42413 0.0
N53 N 0.34631 0.52727 0.38537 0.0
C54 C 0.3718 0.53597 0.34815 0.0
C55 C 0.37272 0.51092 0.35749 0.0
C56 C 0.35953 0.50684 0.37609 0.0
C57 C 0.34568 0.55182 0.37663 0.0
C58 C 0.35803 0.55656 0.35787 0.0
H59 H 0.36013 0.48731 0.38287 0.0
H60 H 0.33526 0.56778 0.38429 0.0
H61 H 0.28715 0.47991 0.41576 0.0
H62 H 0.24649 0.51627 0.36697 0.0
H63 H 0.41995 0.5451 0.43759 0.0
H64 H 0.38317 0.49459 0.3503 0.0
H65 H 0.35712 0.57621 0.35114 0.0
C66 C 0.96807 0.28161 0.38158 0.0
C67 C 0.97935 0.2569 0.37916 0.0
N68 N 0.9952 0.25215 0.39537 0.0
N69 N 0.97694 0.29259 0.39917 0.0
C70 C 0.99304 0.27388 0.40733 0.0
H71 H 0.95438 0.29079 0.37102 0.0
Co72 Co 0.96847 0.32526 0.41152 0.0
C73 C 0.02705 0.32816 0.40346 0.0
O74 O 0.02483 0.31211 0.38769 0.0
N75 N 0.95923 0.35704 0.42405 0.0
C76 C 0.95592 0.399 0.43444 0.0
C77 C 0.97106 0.38113 0.42346 0.0
C78 C 0.93705 0.36076 0.43523 0.0
N79 N 0.93463 0.38597 0.4419 0.0
O80 O 0.97052 0.30831 0.43776 0.0
H81 H 0.98927 0.38555 0.41536 0.0
H82 H 0.92248 0.34541 0.43805 0.0
O83 O 0.00632 0.33511 0.41349 0.0
C84 C 0.94931 0.29599 0.44261 0.0
O85 O 0.92897 0.29677 0.43001 0.0
N86 N 0.96408 0.34175 0.38593 0.0
C87 C 0.94859 0.36539 0.34919 0.0
C88 C 0.97479 0.36777 0.35621 0.0
C89 C 0.98206 0.35622 0.37485 0.0
C90 C 0.93835 0.33997 0.3796 0.0
C91 C 0.93017 0.35154 0.36124 0.0
H92 H 0.00186 0.35979 0.38034 0.0
H93 H 0.92413 0.32924 0.38889 0.0
H94 H 0.00341 0.27645 0.42171 0.0
H95 H 0.97653 0.24377 0.36621 0.0
H96 H 0.96032 0.41982 0.43688 0.0
H97 H 0.98938 0.37901 0.3476 0.0
H98 H 0.9097 0.34935 0.35639 0.0
C99 C 0.22248 0.97389 0.38394 0.0
C100 C 0.2455 0.98768 0.37992 0.0
N101 N 0.24876 0.00625 0.39454 0.0
N102 N 0.21082 0.9839 0.40093 0.0
C103 C 0.22771 0.00329 0.40714 0.0
H104 H 0.2155 0.95731 0.37502 0.0
Co105 Co 0.18031 0.97355 0.41601 0.0
C106 C 0.17068 0.02943 0.40493 0.0
O107 O 0.18087 0.02428 0.38682 0.0
N108 N 0.15122 0.96295 0.43141 0.0
C109 C 0.1174 0.96028 0.45313 0.0
C110 C 0.13641 0.97684 0.44487 0.0
C111 C 0.14114 0.93813 0.43185 0.0
N112 N 0.12048 0.93589 0.44494 0.0
O113 O 0.20111 0.97589 0.44034 0.0
H114 H 0.13958 0.99743 0.44885 0.0
H115 H 0.149 0.92198 0.42275 0.0
O116 O 0.1694 0.01098 0.41842 0.0
C117 C 0.21196 0.95343 0.44348 0.0
O118 O 0.20579 0.93371 0.43116 0.0
N119 N 0.15973 0.96871 0.39223 0.0
C120 C 0.12949 0.95472 0.35815 0.0
C121 C 0.12192 0.97614 0.3705 0.0
C122 C 0.1371 0.98257 0.38772 0.0
C123 C 0.16571 0.94632 0.38147 0.0
C124 C 0.15144 0.93944 0.36396 0.0
H125 H 0.13003 0.99812 0.3977 0.0
H126 H 0.18143 0.93342 0.38675 0.0
H127 H 0.22429 0.01532 0.42062 0.0
H128 H 0.25911 0.98379 0.36744 0.0
H129 H 0.10311 0.96558 0.46482 0.0
H130 H 0.10441 0.98773 0.36692 0.0
H131 H 0.15706 0.92192 0.35535 0.0
C132 C 0.02499 0.76947 0.13041 0.0
C133 C 0.00854 0.74763 0.13125 0.0
N134 N 0.99059 0.74954 0.11598 0.0
N135 N 0.01733 0.78517 0.11479 0.0
C136 C 0.99646 0.77249 0.10622 0.0
H137 H 0.04178 0.77341 0.1403 0.0
Co138 Co 0.03352 0.81635 0.10625 0.0
C139 C 0.99201 0.84148 0.08176 0.0
O140 O 0.00883 0.84448 0.06652 0.0
N141 N 0.04995 0.84793 0.09769 0.0
C142 C 0.05922 0.89073 0.09294 0.0
C143 C 0.04258 0.87296 0.10253 0.0
C144 C 0.07116 0.85102 0.08524 0.0
N145 N 0.07711 0.87687 0.08198 0.0
O146 O 0.03832 0.80101 0.07978 0.0
H147 H 0.02577 0.87803 0.11207 0.0
H148 H 0.08205 0.83469 0.07857 0.0
O149 O 0.99949 0.83032 0.09829 0.0
C150 C 0.0585 0.7859 0.07865 0.0
O151 O 0.0738 0.78344 0.09486 0.0
N152 N 0.03016 0.83019 0.13258 0.0
C153 C 0.03177 0.84993 0.1723 0.0
C154 C 0.00773 0.84915 0.16149 0.0
C155 C 0.00723 0.83876 0.14163 0.0
C156 C 0.05358 0.83056 0.14297 0.0
C157 C 0.05483 0.84026 0.16292 0.0
H158 H 0.98849 0.83773 0.13364 0.0
H159 H 0.07142 0.82333 0.1356 0.0
H160 H 0.98594 0.77988 0.09295 0.0
H161 H 0.01028 0.7312 0.14186 0.0
H162 H 0.05768 0.91217 0.0934 0.0
H163 H 0.98951 0.85625 0.1684 0.0
H164 H 0.07377 0.84069 0.1708 0.0
C165 C 0.72938 0.03294 0.10216 0.0
C166 C 0.75282 0.02026 0.10685 0.0
N167 N 0.75506 0.99849 0.09487 0.0
N168 N 0.71682 0.01919 0.08737 0.0
C169 C 0.7328 0.9984 0.08327 0.0
H170 H 0.72243 0.0515 0.10854 0.0
Co171 Co 0.68658 0.02899 0.07314 0.0
C172 C 0.67064 0.97703 0.05591 0.0
O173 O 0.67064 0.98658 0.03718 0.0
N174 N 0.65615 0.03918 0.0589 0.0
C175 C 0.61421 0.04441 0.0491 0.0
C176 C 0.63175 0.028 0.05915 0.0
C177 C 0.65292 0.06234 0.04884 0.0
N178 N 0.62759 0.0661 0.0427 0.0
O179 O 0.70669 0.02793 0.04819 0.0
H180 H 0.62669 0.00977 0.06702 0.0
H181 H 0.66848 0.07701 0.04726 0.0
O182 O 0.67664 0.99204 0.07092 0.0
C183 C 0.71949 0.04975 0.04686 0.0
O184 O 0.7156 0.06775 0.06115 0.0
N185 N 0.66812 0.03242 0.09761 0.0
C186 C 0.64421 0.04554 0.13465 0.0
C187 C 0.64901 0.01885 0.12961 0.0
C188 C 0.66126 0.01265 0.11095 0.0
C189 C 0.6633 0.05833 0.10219 0.0
C190 C 0.6512 0.06533 0.12052 0.0
H191 H 0.66583 0.99217 0.10755 0.0
H192 H 0.66937 0.07371 0.09159 0.0
H193 H 0.72837 0.984 0.07148 0.0
H194 H 0.76746 0.02733 0.11768 0.0
H195 H 0.59313 0.04095 0.0472 0.0
H196 H 0.64419 0.00305 0.14026 0.0
H197 H 0.64759 0.08614 0.12369 0.0
C198 C 0.4877 0.72329 0.12759 0.0
C199 C 0.50323 0.74571 0.1294 0.0
N200 N 0.51966 0.74692 0.1131 0.0
N201 N 0.49438 0.71033 0.11028 0.0
C202 C 0.51397 0.72512 0.10185 0.0
H203 H 0.47179 0.71751 0.1378 0.0
Co204 Co 0.47711 0.68146 0.09831 0.0
C205 C 0.52083 0.65907 0.07372 0.0
O206 O 0.50634 0.6594 0.05698 0.0
N207 N 0.45966 0.65272 0.08633 0.0
C208 C 0.44765 0.61217 0.07658 0.0
C209 C 0.46674 0.62688 0.08655 0.0
C210 C 0.43618 0.65323 0.07637 0.0
N211 N 0.4284 0.6288 0.07016 0.0
O212 O 0.47466 0.701 0.07326 0.0
H213 H 0.48459 0.61918 0.09358 0.0
H214 H 0.42475 0.67116 0.07409 0.0
O215 O 0.51112 0.66729 0.09057 0.0
C216 C 0.45666 0.71866 0.07437 0.0
O217 O 0.44221 0.71996 0.09112 0.0
N218 N 0.47774 0.66329 0.12323 0.0
C219 C 0.47138 0.63814 0.16084 0.0
C220 C 0.49562 0.63658 0.15036 0.0
C221 C 0.49857 0.64966 0.13157 0.0
C222 C 0.45402 0.66476 0.13318 0.0
C223 C 0.45047 0.65255 0.15214 0.0
H224 H 0.51751 0.64866 0.12388 0.0
H225 H 0.43781 0.67569 0.12632 0.0
H226 H 0.5227 0.72083 0.08706 0.0
H227 H 0.50198 0.76034 0.14151 0.0
H228 H 0.44811 0.59093 0.07407 0.0
H229 H 0.51219 0.62567 0.15676 0.0
H230 H 0.43143 0.654 0.15979 0.0
C231 C 0.77675 0.46666 0.11611 0.0
C232 C 0.75371 0.48077 0.11932 0.0
N233 N 0.75273 0.50076 0.10558 0.0
N234 N 0.79028 0.47783 0.10051 0.0
C235 C 0.77523 0.49856 0.09446 0.0
H236 H 0.78267 0.44873 0.12402 0.0
Co237 Co 0.81974 0.46436 0.08708 0.0
C238 C 0.85747 0.50884 0.08472 0.0
O239 O 0.87615 0.49194 0.09 0.0
N240 N 0.84904 0.45023 0.07239 0.0
C241 C 0.87843 0.44547 0.04704 0.0
C242 C 0.8593 0.4616 0.05531 0.0
C243 C 0.86134 0.42632 0.07334 0.0
N244 N 0.87961 0.42327 0.05839 0.0
O245 O 0.80033 0.46568 0.06199 0.0
H246 H 0.85258 0.48014 0.04876 0.0
H247 H 0.85632 0.41071 0.08396 0.0
O248 O 0.8334 0.50082 0.08297 0.0
C249 C 0.78979 0.44309 0.05864 0.0
O250 O 0.7951 0.42359 0.0714 0.0
N251 N 0.83726 0.46123 0.11259 0.0
C252 C 0.85818 0.45205 0.15156 0.0
C253 C 0.85268 0.47797 0.14501 0.0
C254 C 0.84176 0.48211 0.12558 0.0
C255 C 0.84042 0.43589 0.11952 0.0
C256 C 0.85164 0.43083 0.13865 0.0
H257 H 0.83614 0.50206 0.12134 0.0
H258 H 0.83289 0.41946 0.11065 0.0
H259 H 0.77986 0.51065 0.08121 0.0
H260 H 0.73849 0.47614 0.13049 0.0
H261 H 0.88941 0.44898 0.03303 0.0
H262 H 0.85651 0.49485 0.15487 0.0
H263 H 0.85411 0.41046 0.14366 0.0
C264 C 0.46605 0.76993 0.6207 0.0
C265 C 0.47862 0.74572 0.62194 0.0
N266 N 0.49933 0.74566 0.60875 0.0
N267 N 0.47883 0.78516 0.60691 0.0
C268 C 0.49895 0.76999 0.59996 0.0
H269 H 0.44807 0.77564 0.62862 0.0
Co270 Co 0.4678 0.81746 0.59647 0.0
C271 C 0.51728 0.83753 0.57819 0.0
O272 O 0.50535 0.84009 0.56039 0.0
N273 N 0.45635 0.84992 0.58588 0.0
C274 C 0.45079 0.8929 0.5793 0.0
C275 C 0.46619 0.87447 0.58939 0.0
C276 C 0.43492 0.85392 0.57389 0.0
N277 N 0.43113 0.87986 0.56951 0.0
O278 O 0.46758 0.80194 0.56969 0.0
H279 H 0.4833 0.87872 0.59887 0.0
H280 H 0.42186 0.83814 0.56891 0.0
O281 O 0.50442 0.82852 0.59352 0.0
C282 C 0.44649 0.78856 0.56652 0.0
O283 O 0.42796 0.78852 0.58072 0.0
N284 N 0.46625 0.83145 0.62286 0.0
C285 C 0.45767 0.84896 0.66277 0.0
C286 C 0.48351 0.84364 0.65579 0.0
C287 C 0.48738 0.83461 0.63575 0.0
C288 C 0.44109 0.83662 0.62934 0.0
C289 C 0.43635 0.84552 0.6492 0.0
H290 H 0.50721 0.8295 0.63085 0.0
H291 H 0.42455 0.83344 0.61904 0.0
H292 H 0.51235 0.77653 0.58803 0.0
H293 H 0.47206 0.72913 0.63118 0.0
H294 H 0.45394 0.91417 0.5791 0.0
H295 H 0.50044 0.84562 0.66591 0.0
H296 H 0.41612 0.84959 0.65391 0.0
C297 C 0.70986 0.47279 0.61972 0.0
C298 C 0.73217 0.48811 0.62319 0.0
N299 N 0.73462 0.50566 0.60766 0.0
N300 N 0.69829 0.48084 0.60219 0.0
C301 C 0.71367 0.5009 0.59531 0.0
H302 H 0.70316 0.45616 0.62888 0.0
Co303 Co 0.67033 0.46557 0.58791 0.0
C304 C 0.65074 0.51177 0.56446 0.0
O305 O 0.65045 0.49849 0.54714 0.0
N306 N 0.64232 0.4501 0.57343 0.0
C307 C 0.60239 0.43967 0.56136 0.0
C308 C 0.61674 0.45798 0.57246 0.0
C309 C 0.64299 0.42693 0.56308 0.0
N310 N 0.61897 0.4201 0.55547 0.0
O311 O 0.69237 0.46436 0.56409 0.0
H312 H 0.60891 0.47565 0.57969 0.0
H313 H 0.66061 0.41482 0.56175 0.0
O314 O 0.65801 0.50049 0.58097 0.0
C315 C 0.70832 0.44478 0.56475 0.0
O316 O 0.70631 0.428 0.58012 0.0
N317 N 0.64964 0.46538 0.61158 0.0
C318 C 0.61776 0.45964 0.64608 0.0
C319 C 0.62614 0.48494 0.63975 0.0
C320 C 0.64215 0.48742 0.62232 0.0
C321 C 0.64261 0.44064 0.61806 0.0
C322 C 0.62637 0.43732 0.63512 0.0
H323 H 0.6486 0.50697 0.61758 0.0
H324 H 0.64944 0.42337 0.60973 0.0
H325 H 0.70998 0.51115 0.58103 0.0
H326 H 0.74623 0.4855 0.63556 0.0
H327 H 0.58139 0.44077 0.5579 0.0
H328 H 0.62015 0.50258 0.64805 0.0
H329 H 0.62089 0.41743 0.63987 0.0
C330 C 0.01881 0.71939 0.60968 0.0
C331 C 0.00285 0.74093 0.61384 0.0
N332 N 0.98257 0.74103 0.60033 0.0
N333 N 0.00849 0.70581 0.59378 0.0
C334 C 0.98644 0.71939 0.58846 0.0
H335 H 0.03742 0.71473 0.61712 0.0
Co336 Co 0.02375 0.67803 0.57929 0.0
C337 C 0.98305 0.63598 0.57857 0.0
O338 O 0.00204 0.61871 0.58222 0.0
N339 N 0.03948 0.65043 0.56361 0.0
C340 C 0.04574 0.62225 0.53765 0.0
C341 C 0.02824 0.63951 0.54674 0.0
C342 C 0.06442 0.64033 0.56373 0.0
N343 N 0.06851 0.62291 0.54835 0.0
O344 O 0.01786 0.69735 0.5545 0.0
H345 H 0.00876 0.6445 0.54095 0.0
H346 H 0.0799 0.64632 0.57414 0.0
O347 O 0.9887 0.66074 0.57707 0.0
C348 C 0.03909 0.70795 0.54772 0.0
O349 O 0.06153 0.70333 0.55736 0.0
N350 N 0.03124 0.66067 0.6043 0.0
C351 C 0.04726 0.63824 0.64141 0.0
C352 C 0.02021 0.64037 0.63656 0.0
C353 C 0.01258 0.65223 0.61811 0.0
C354 C 0.05735 0.6611 0.60978 0.0
C355 C 0.0659 0.64934 0.62794 0.0
H356 H 0.99167 0.65507 0.61523 0.0
H357 H 0.07156 0.6715 0.60032 0.0
H358 H 0.97409 0.71404 0.57553 0.0
H359 H 0.00684 0.75621 0.62509 0.0
H360 H 0.04256 0.61128 0.5236 0.0
H361 H 0.00507 0.633 0.64691 0.0
H362 H 0.08686 0.64964 0.63169 0.0
C363 C 0.77721 0.024 0.62366 0.0
C364 C 0.75627 0.00797 0.62939 0.0
N365 N 0.7534 0.98869 0.61521 0.0
N366 N 0.78759 0.01476 0.60602 0.0
C367 C 0.7728 0.9932 0.60134 0.0
H368 H 0.78357 0.04195 0.63134 0.0
Co369 Co 0.81246 0.03098 0.58901 0.0
C370 C 0.85281 0.98957 0.58156 0.0
O371 O 0.87129 0.00791 0.58344 0.0
N372 N 0.83686 0.04755 0.57093 0.0
C373 C 0.8602 0.05439 0.54232 0.0
C374 C 0.84336 0.03735 0.5524 0.0
C375 C 0.84908 0.07159 0.57118 0.0
N376 N 0.86369 0.07592 0.55416 0.0
O377 O 0.78852 0.02717 0.56654 0.0
H378 H 0.83596 0.01872 0.54641 0.0
H379 H 0.84704 0.08614 0.58318 0.0
O380 O 0.82831 0.99595 0.58342 0.0
C381 C 0.77126 0.04562 0.56693 0.0
O382 O 0.77261 0.06337 0.58167 0.0
N383 N 0.83454 0.03664 0.6119 0.0
C384 C 0.86178 0.05035 0.64761 0.0
C385 C 0.8595 0.02368 0.64165 0.0
C386 C 0.84533 0.01717 0.62392 0.0
C387 C 0.83487 0.06234 0.61842 0.0
C388 C 0.84897 0.06977 0.63587 0.0
H389 H 0.84227 0.99645 0.6204 0.0
H390 H 0.82316 0.07706 0.61047 0.0
H391 H 0.77504 0.98221 0.58719 0.0
H392 H 0.74357 0.01093 0.64257 0.0
H393 H 0.86835 0.0517 0.52711 0.0
H394 H 0.86826 0.00796 0.65074 0.0
H395 H 0.84893 0.09041 0.64059 0.0
C396 C 0.98238 0.23919 0.87214 0.0
C397 C 0.99293 0.26442 0.87114 0.0
N398 N 0.00674 0.26896 0.88845 0.0
N399 N 0.98982 0.22756 0.88989 0.0
C400 C 0.00408 0.24656 0.89966 0.0
H401 H 0.96982 0.23015 0.86066 0.0
Co402 Co 0.97922 0.19411 0.90014 0.0
C403 C 0.03948 0.18866 0.89713 0.0
O404 O 0.04335 0.2121 0.88887 0.0
N405 N 0.96765 0.16139 0.91052 0.0
C406 C 0.96094 0.11815 0.91542 0.0
C407 C 0.97672 0.13688 0.90596 0.0
C408 C 0.94624 0.15703 0.92253 0.0
N409 N 0.94173 0.13091 0.92587 0.0
O410 O 0.98211 0.20765 0.92739 0.0
H411 H 0.993 0.1328 0.89565 0.0
H412 H 0.9334 0.17266 0.92798 0.0
O413 O 0.01594 0.18079 0.90147 0.0
C414 C 0.96144 0.22005 0.93322 0.0
O415 O 0.94114 0.2218 0.92063 0.0
N416 N 0.97457 0.18094 0.87353 0.0
C417 C 0.96121 0.15808 0.83608 0.0
C418 C 0.98767 0.16472 0.84048 0.0
C419 C 0.99399 0.17615 0.85939 0.0
C420 C 0.94864 0.17579 0.86906 0.0
C421 C 0.94153 0.16409 0.85052 0.0
H422 H 0.01441 0.18105 0.8625 0.0
H423 H 0.93341 0.18031 0.88023 0.0
H424 H 0.01272 0.24388 0.91469 0.0
H425 H 0.99086 0.27817 0.85849 0.0
H426 H 0.96328 0.09682 0.91443 0.0
H427 H 0.0034 0.16055 0.82962 0.0
H428 H 0.9208 0.15979 0.84751 0.0
C429 C 0.27756 0.96608 0.87958 0.0
C430 C 0.25654 0.98066 0.87211 0.0
N431 N 0.25529 0.00364 0.88266 0.0
N432 N 0.28937 0.97985 0.89477 0.0
C433 C 0.27548 0.00268 0.8962 0.0
H434 H 0.28279 0.94605 0.87517 0.0
Co435 Co 0.31382 0.96729 0.91361 0.0
C436 C 0.35328 0.01006 0.91812 0.0
O437 O 0.37175 0.99161 0.91805 0.0
N438 N 0.33772 0.95448 0.93365 0.0
C439 C 0.35796 0.95293 0.96394 0.0
C440 C 0.34195 0.96765 0.9514 0.0
C441 C 0.35084 0.9312 0.93619 0.0
N442 N 0.36346 0.92984 0.95446 0.0
O443 O 0.28865 0.97356 0.93499 0.0
H444 H 0.33346 0.98675 0.95519 0.0
H445 H 0.35016 0.9149 0.92552 0.0
O446 O 0.32881 0.00337 0.91639 0.0
C447 C 0.2741 0.95291 0.93637 0.0
O448 O 0.27895 0.93299 0.92389 0.0
N449 N 0.3369 0.95887 0.89188 0.0
C450 C 0.36412 0.9407 0.85731 0.0
C451 C 0.36153 0.96801 0.86111 0.0
C452 C 0.34727 0.97671 0.87822 0.0
C453 C 0.33804 0.93238 0.88777 0.0
C454 C 0.35209 0.92281 0.87094 0.0
H455 H 0.3436 0.99772 0.87984 0.0
H456 H 0.3269 0.91858 0.89711 0.0
H457 H 0.27865 0.01725 0.90816 0.0
H458 H 0.2425 0.97432 0.86053 0.0
H459 H 0.36465 0.95876 0.97903 0.0
H460 H 0.36934 0.98255 0.85045 0.0
H461 H 0.35299 0.90156 0.86842 0.0
C462 C 0.51761 0.27978 0.87234 0.0
C463 C 0.50224 0.25734 0.86983 0.0
N464 N 0.4841 0.25647 0.88505 0.0
N465 N 0.50908 0.29308 0.88898 0.0
C466 C 0.48872 0.27847 0.89637 0.0
H467 H 0.53444 0.28558 0.86305 0.0
Co468 Co 0.52412 0.32291 0.901 0.0
C469 C 0.47825 0.34338 0.92423 0.0
O470 O 0.49182 0.34368 0.94141 0.0
N471 N 0.5394 0.35288 0.91312 0.0
C472 C 0.54849 0.3942 0.92292 0.0
C473 C 0.53069 0.37822 0.91266 0.0
C474 C 0.56261 0.35401 0.92342 0.0
N475 N 0.5686 0.37889 0.92971 0.0
O476 O 0.52657 0.30389 0.9262 0.0
H477 H 0.51263 0.38471 0.90523 0.0
H478 H 0.57523 0.33697 0.92584 0.0
O479 O 0.48919 0.33556 0.90771 0.0
C480 C 0.54715 0.28924 0.92635 0.0
O481 O 0.56316 0.28996 0.91043 0.0
N482 N 0.52341 0.34051 0.87595 0.0
C483 C 0.5286 0.36399 0.83758 0.0
C484 C 0.50337 0.35987 0.84618 0.0
C485 C 0.50116 0.3478 0.86541 0.0
C486 C 0.54802 0.34444 0.86787 0.0
C487 C 0.55109 0.35625 0.84874 0.0
H488 H 0.48162 0.34383 0.87151 0.0
H489 H 0.56536 0.33808 0.87632 0.0
H490 H 0.47795 0.28366 0.91014 0.0
H491 H 0.50505 0.24227 0.85821 0.0
H492 H 0.54656 0.41538 0.92533 0.0
H493 H 0.48553 0.36519 0.83787 0.0
H494 H 0.57093 0.35925 0.84271 0.0
C495 C 0.23114 0.5438 0.8737 0.0
C496 C 0.25374 0.52874 0.87139 0.0
N497 N 0.25441 0.5105 0.88653 0.0
N498 N 0.21755 0.53497 0.89013 0.0
C499 C 0.23216 0.51473 0.89762 0.0
H500 H 0.2253 0.56049 0.8643 0.0
Co501 Co 0.18728 0.54965 0.90158 0.0
C502 C 0.16422 0.50341 0.92277 0.0
O503 O 0.16382 0.51665 0.94011 0.0
N504 N 0.15692 0.56467 0.91311 0.0
C505 C 0.11518 0.57438 0.92123 0.0
C506 C 0.13141 0.55682 0.91103 0.0
C507 C 0.1557 0.58709 0.92437 0.0
N508 N 0.13056 0.59341 0.92965 0.0
O509 O 0.20486 0.55049 0.92763 0.0
H510 H 0.125 0.53958 0.90244 0.0
H511 H 0.17289 0.59899 0.92818 0.0
O512 O 0.17341 0.51438 0.90664 0.0
C513 C 0.22024 0.57053 0.92912 0.0
O514 O 0.22138 0.5873 0.91369 0.0
N515 N 0.17121 0.55063 0.87585 0.0
C516 C 0.15047 0.55805 0.8367 0.0
C517 C 0.15484 0.53234 0.84435 0.0
C518 C 0.16545 0.52903 0.864 0.0
C519 C 0.16713 0.57568 0.86868 0.0
C520 C 0.1566 0.57986 0.84923 0.0
H521 H 0.16966 0.5092 0.86939 0.0
H522 H 0.17235 0.59256 0.87813 0.0
H523 H 0.22709 0.50414 0.91152 0.0
H524 H 0.26861 0.53127 0.85957 0.0
H525 H 0.09378 0.5731 0.92246 0.0
H526 H 0.15083 0.51498 0.83505 0.0
H527 H 0.15331 0.60004 0.84406 0.0
C528 C 0.2769 0.03656 0.41529 0.0
C529 C 0.27014 0.02529 0.39624 0.0
C530 C 0.29785 0.0548 0.41685 0.0
C531 C 0.34091 0.09892 0.38516 0.0
H532 H 0.39182 0.09011 0.42922 0.0
C533 C 0.45099 0.12253 0.37756 0.0
C534 C 0.46428 0.13597 0.39337 0.0
C535 C 0.42448 0.1152 0.37973 0.0
C536 C 0.37747 0.09322 0.41709 0.0
H537 H 0.27991 0.02492 0.36388 0.0
H538 H 0.31672 0.05585 0.36667 0.0
H539 H 0.35047 0.06458 0.42961 0.0
H540 H 0.46028 0.15292 0.42368 0.0
H541 H 0.41351 0.13907 0.42787 0.0
H542 H 0.36873 0.12632 0.37204 0.0
C543 C 0.30561 0.05102 0.38039 0.0
C544 C 0.35379 0.07858 0.41727 0.0
C545 C 0.2847 0.03289 0.37882 0.0
C546 C 0.45035 0.1426 0.41129 0.0
C547 C 0.42376 0.13464 0.41369 0.0
C548 C 0.36463 0.11331 0.3849 0.0
C549 C 0.3125 0.06221 0.39941 0.0
C550 C 0.33564 0.08059 0.40093 0.0
C551 C 0.41071 0.12071 0.39792 0.0
C552 C 0.3835 0.10998 0.40052 0.0
H553 H 0.26633 0.031 0.42907 0.0
H554 H 0.30254 0.0631 0.43172 0.0
H555 H 0.32707 0.1015 0.37261 0.0
H556 H 0.46125 0.11736 0.36351 0.0
H557 H 0.41501 0.10426 0.36743 0.0
C558 C 0.35461 0.43629 0.4122 0.0
C559 C 0.35642 0.45071 0.43059 0.0
C560 C 0.36725 0.41174 0.41015 0.0
C561 C 0.42443 0.37535 0.4302 0.0
H562 H 0.39529 0.31686 0.39865 0.0
C563 C 0.49012 0.29662 0.39187 0.0
C564 C 0.48208 0.26988 0.39253 0.0
C565 C 0.47345 0.31669 0.39905 0.0
C566 C 0.40359 0.33288 0.40771 0.0
H567 H 0.37195 0.45008 0.46158 0.0
H568 H 0.39406 0.40714 0.45798 0.0
H569 H 0.36723 0.35498 0.40702 0.0
H570 H 0.45026 0.24321 0.40134 0.0
H571 H 0.42082 0.2785 0.41383 0.0
H572 H 0.4609 0.35354 0.43058 0.0
C573 C 0.38305 0.415 0.44508 0.0
C574 C 0.3876 0.3548 0.41235 0.0
C575 C 0.37025 0.43952 0.44718 0.0
C576 C 0.45699 0.26364 0.40071 0.0
C577 C 0.44012 0.28382 0.40772 0.0
C578 C 0.44043 0.35355 0.42546 0.0
C579 C 0.38208 0.40105 0.42642 0.0
C580 C 0.39799 0.37649 0.42335 0.0
C581 C 0.44822 0.31057 0.40697 0.0
C582 C 0.43035 0.33231 0.41382 0.0
H583 H 0.3439 0.44422 0.39918 0.0
H584 H 0.36629 0.40164 0.39552 0.0
H585 H 0.43313 0.39181 0.43855 0.0
H586 H 0.50947 0.30207 0.38596 0.0
H587 H 0.48017 0.33711 0.39804 0.0
C588 C 0.05421 0.36614 0.41719 0.0
C589 C 0.05282 0.34163 0.40694 0.0
C590 C 0.07807 0.38048 0.41773 0.0
C591 C 0.13379 0.40359 0.42272 0.0
H592 H 0.17443 0.40177 0.37226 0.0
C593 C 0.23367 0.45998 0.41323 0.0
C594 C 0.2382 0.47254 0.39427 0.0
C595 C 0.21203 0.44281 0.41587 0.0
C596 C 0.16326 0.40269 0.38642 0.0
H597 H 0.07577 0.31196 0.39064 0.0
H598 H 0.11741 0.33644 0.39215 0.0
H599 H 0.13501 0.37433 0.3756 0.0
H600 H 0.22354 0.47644 0.36318 0.0
H601 H 0.18557 0.44729 0.36791 0.0
H602 H 0.16156 0.43291 0.43314 0.0
C603 C 0.09995 0.34515 0.39912 0.0
C604 C 0.14081 0.38659 0.38848 0.0
C605 C 0.07609 0.33101 0.39838 0.0
C606 C 0.2206 0.46738 0.37803 0.0
C607 C 0.19895 0.45033 0.38069 0.0
C608 C 0.15623 0.41985 0.42061 0.0
C609 C 0.10109 0.37045 0.40822 0.0
C610 C 0.12568 0.38687 0.40661 0.0
C611 C 0.19436 0.43781 0.39964 0.0
C612 C 0.17112 0.41976 0.40235 0.0
H613 H 0.03663 0.37483 0.42398 0.0
H614 H 0.07812 0.39995 0.42479 0.0
H615 H 0.12279 0.40415 0.43698 0.0
H616 H 0.24655 0.46368 0.42619 0.0
H617 H 0.20927 0.43333 0.43061 0.0
C618 C 0.15837 0.07479 0.39293 0.0
C619 C 0.15621 0.05473 0.40782 0.0
C620 C 0.14177 0.09692 0.39352 0.0
C621 C 0.09082 0.12786 0.38928 0.0
H622 H 0.07243 0.16751 0.43817 0.0
C623 C 0.00645 0.20492 0.38935 0.0
C624 C 0.01213 0.22944 0.39871 0.0
C625 C 0.02349 0.18327 0.3919 0.0
C626 C 0.07745 0.15664 0.42439 0.0
H627 H 0.13603 0.04304 0.43577 0.0
H628 H 0.1069 0.08185 0.43679 0.0
H629 H 0.1049 0.13142 0.44031 0.0
H630 H 0.04031 0.25022 0.41818 0.0
H631 H 0.0698 0.21246 0.4227 0.0
H632 H 0.06375 0.15311 0.37327 0.0
C633 C 0.12149 0.08035 0.42465 0.0
C634 C 0.09587 0.13589 0.42565 0.0
C635 C 0.13816 0.0581 0.42405 0.0
C636 C 0.03501 0.23159 0.411 0.0
C637 C 0.05198 0.20991 0.4136 0.0
C638 C 0.07235 0.14843 0.38805 0.0
C639 C 0.1226 0.09956 0.40903 0.0
C640 C 0.10291 0.12144 0.40805 0.0
C641 C 0.04657 0.1856 0.4039 0.0
C642 C 0.06553 0.16314 0.40555 0.0
H643 H 0.1723 0.07301 0.38035 0.0
H644 H 0.14352 0.11171 0.38153 0.0
H645 H 0.09552 0.11683 0.3755 0.0
H646 H 0.98882 0.20241 0.38008 0.0
H647 H 0.01858 0.16466 0.38446 0.0
C648 C 0.77952 0.96226 0.07719 0.0
C649 C 0.77735 0.98042 0.09354 0.0
C650 C 0.80139 0.94535 0.0756 0.0
C651 C 0.85783 0.91781 0.1055 0.0
H652 H 0.88688 0.90367 0.05158 0.0
C653 C 0.96019 0.87449 0.06705 0.0
C654 C 0.96547 0.85384 0.08092 0.0
C655 C 0.93605 0.88812 0.06783 0.0
C656 C 0.87917 0.90756 0.06677 0.0
H657 H 0.79684 0.99422 0.12129 0.0
H658 H 0.83525 0.96565 0.11802 0.0
H659 H 0.84789 0.93178 0.05495 0.0
H660 H 0.94913 0.83027 0.10573 0.0
H661 H 0.90669 0.85337 0.10664 0.0
H662 H 0.88985 0.89474 0.11742 0.0
C663 C 0.8197 0.96415 0.10661 0.0
C664 C 0.85653 0.9234 0.06869 0.0
C665 C 0.7977 0.98089 0.10833 0.0
C666 C 0.94573 0.84632 0.09499 0.0
C667 C 0.92147 0.85971 0.0956 0.0
C668 C 0.88061 0.90221 0.1036 0.0
C669 C 0.82189 0.94623 0.09018 0.0
C670 C 0.84562 0.92882 0.0881 0.0
C671 C 0.91652 0.88117 0.08234 0.0
C672 C 0.89164 0.89694 0.08421 0.0
H673 H 0.76461 0.96111 0.06534 0.0
H674 H 0.80214 0.9315 0.06292 0.0
H675 H 0.8498 0.92121 0.12067 0.0
H676 H 0.97511 0.88084 0.05612 0.0
H677 H 0.93313 0.90473 0.05754 0.0
C678 C 0.55956 0.76386 0.09504 0.0
C679 C 0.53731 0.76841 0.1076 0.0
C680 C 0.5762 0.78489 0.08924 0.0
C681 C 0.59419 0.8541 0.10342 0.0
H682 H 0.62181 0.85758 0.04802 0.0
C683 C 0.66484 0.93819 0.07936 0.0
C684 C 0.66016 0.9501 0.06023 0.0
C685 C 0.65251 0.91424 0.08457 0.0
C686 C 0.61416 0.85698 0.06352 0.0
H687 H 0.51491 0.7988 0.12356 0.0
H688 H 0.54365 0.83533 0.11339 0.0
H689 H 0.59443 0.81982 0.05838 0.0
H690 H 0.63968 0.94567 0.03123 0.0
H691 H 0.61768 0.90408 0.04044 0.0
H692 H 0.61292 0.89164 0.1084 0.0
C693 C 0.54867 0.81546 0.10837 0.0
C694 C 0.59871 0.83516 0.06955 0.0
C695 C 0.53214 0.79446 0.11423 0.0
C696 C 0.64375 0.93694 0.04606 0.0
C697 C 0.6312 0.91304 0.05135 0.0
C698 C 0.60951 0.87591 0.0974 0.0
C699 C 0.57093 0.81098 0.09581 0.0
C700 C 0.58834 0.83356 0.08954 0.0
C701 C 0.63497 0.90168 0.07085 0.0
C702 C 0.61961 0.87774 0.07734 0.0
H703 H 0.56425 0.74399 0.08985 0.0
H704 H 0.59336 0.78063 0.07979 0.0
H705 H 0.58688 0.85339 0.11902 0.0
H706 H 0.67771 0.94762 0.0905 0.0
H707 H 0.65644 0.90577 0.09951 0.0
C708 C 0.55555 0.62982 0.05781 0.0
C709 C 0.54743 0.6466 0.07383 0.0
C710 C 0.57955 0.61589 0.05917 0.0
C711 C 0.64367 0.61309 0.08713 0.0
H712 H 0.64034 0.53782 0.0747 0.0
C713 C 0.73519 0.54343 0.0925 0.0
C714 C 0.73084 0.51851 0.10167 0.0
C715 C 0.71383 0.56012 0.08784 0.0
C716 C 0.64157 0.5588 0.07828 0.0
H717 H 0.55877 0.66304 0.1033 0.0
H718 H 0.60039 0.63876 0.10567 0.0
H719 H 0.60175 0.5658 0.06818 0.0
H720 H 0.70052 0.49162 0.11307 0.0
H721 H 0.66337 0.52082 0.10522 0.0
H722 H 0.68328 0.60591 0.09776 0.0
C723 C 0.58832 0.63632 0.09206 0.0
C724 C 0.61957 0.5749 0.0743 0.0
C725 C 0.56433 0.65007 0.09077 0.0
C726 C 0.70464 0.51078 0.10623 0.0
C727 C 0.6833 0.52737 0.10147 0.0
C728 C 0.66573 0.59701 0.09102 0.0
C729 C 0.59599 0.61868 0.07647 0.0
C730 C 0.62023 0.60216 0.07895 0.0
C731 C 0.68762 0.55217 0.09212 0.0
C732 C 0.66478 0.5696 0.08692 0.0
H733 H 0.543 0.62676 0.04455 0.0
H734 H 0.58508 0.60267 0.04679 0.0
H735 H 0.64487 0.63407 0.09071 0.0
H736 H 0.75514 0.55006 0.08895 0.0
H737 H 0.7178 0.57906 0.08056 0.0
C738 C 0.96148 0.72802 0.09022 0.0
C739 C 0.97056 0.73024 0.11054 0.0
C740 C 0.94346 0.70807 0.08473 0.0
C741 C 0.89679 0.65755 0.10609 0.0
H742 H 0.91626 0.61737 0.0577 0.0
C743 C 0.8461 0.55749 0.08556 0.0
C744 C 0.86466 0.53711 0.08225 0.0
C745 C 0.85435 0.58413 0.08573 0.0
C746 C 0.91041 0.62851 0.07117 0.0
H747 H 0.96668 0.71401 0.14116 0.0
H748 H 0.93586 0.6789 0.13154 0.0
H749 H 0.9392 0.65883 0.06531 0.0
H750 H 0.90593 0.52858 0.07538 0.0
H751 H 0.92017 0.57465 0.07554 0.0
H752 H 0.86905 0.6263 0.11251 0.0
C753 C 0.94244 0.69271 0.11986 0.0
C754 C 0.9234 0.65241 0.07545 0.0
C755 C 0.96044 0.71263 0.12534 0.0
C756 C 0.89119 0.54385 0.07809 0.0
C757 C 0.89932 0.57031 0.07801 0.0
C758 C 0.88377 0.63361 0.10178 0.0
C759 C 0.93405 0.6899 0.09942 0.0
C760 C 0.91734 0.6668 0.09331 0.0
C761 C 0.88117 0.59075 0.08224 0.0
C762 C 0.89108 0.6184 0.08464 0.0
H763 H 0.96894 0.74111 0.07839 0.0
H764 H 0.93722 0.70661 0.06889 0.0
H765 H 0.89136 0.66838 0.11979 0.0
H766 H 0.82552 0.5528 0.08887 0.0
H767 H 0.83991 0.5995 0.08896 0.0
C768 C 0.55817 0.84315 0.59963 0.0
C769 C 0.54448 0.84808 0.58125 0.0
C770 C 0.58272 0.85517 0.60345 0.0
C771 C 0.63854 0.89156 0.57871 0.0
H772 H 0.64841 0.92063 0.6332 0.0
C773 C 0.73505 0.94633 0.60203 0.0
C774 C 0.73183 0.9699 0.61333 0.0
C775 C 0.71358 0.92911 0.59886 0.0
C776 C 0.64595 0.91272 0.61789 0.0
H777 H 0.54636 0.86876 0.55213 0.0
H778 H 0.58902 0.89002 0.55889 0.0
H779 H 0.60861 0.89498 0.62552 0.0
H780 H 0.70341 0.99363 0.6303 0.0
H781 H 0.66611 0.96377 0.62479 0.0
H782 H 0.67544 0.9102 0.57089 0.0
C783 C 0.58093 0.87662 0.57029 0.0
C784 C 0.62326 0.89771 0.61354 0.0
C785 C 0.55639 0.8645 0.56644 0.0
C786 C 0.70677 0.97549 0.62181 0.0
C787 C 0.68532 0.95833 0.61862 0.0
C788 C 0.66124 0.90662 0.58306 0.0
C789 C 0.59417 0.87248 0.589 0.0
C790 C 0.61913 0.88714 0.59384 0.0
C791 C 0.68837 0.93506 0.60693 0.0
C792 C 0.66508 0.91763 0.60265 0.0
H793 H 0.54975 0.83028 0.61125 0.0
H794 H 0.59261 0.85109 0.61784 0.0
H795 H 0.63614 0.88348 0.56344 0.0
H796 H 0.75416 0.94122 0.59555 0.0
H797 H 0.71673 0.91115 0.59007 0.0
C798 C 0.64776 0.55577 0.58163 0.0
C799 C 0.63958 0.53878 0.56578 0.0
C800 C 0.63497 0.57997 0.58485 0.0
C801 C 0.58622 0.62752 0.56225 0.0
H802 H 0.57555 0.64594 0.61934 0.0
C803 C 0.53338 0.72448 0.58647 0.0
C804 C 0.5166 0.72358 0.60376 0.0
C805 C 0.54957 0.70292 0.58144 0.0
C806 C 0.57806 0.641 0.60331 0.0
H807 H 0.61227 0.53405 0.54042 0.0
H808 H 0.58918 0.57596 0.54643 0.0
H809 H 0.60133 0.60695 0.61066 0.0
H810 H 0.50436 0.69877 0.62936 0.0
H811 H 0.53155 0.66109 0.62011 0.0
H812 H 0.56168 0.66088 0.555 0.0
C813 C 0.6059 0.57097 0.55611 0.0
C814 C 0.59332 0.61882 0.59828 0.0
C815 C 0.61907 0.5469 0.55266 0.0
C816 C 0.51665 0.70041 0.61585 0.0
C817 C 0.53262 0.67875 0.61067 0.0
C818 C 0.57066 0.64958 0.5673 0.0
C819 C 0.6133 0.58753 0.57256 0.0
C820 C 0.59763 0.61174 0.57769 0.0
C821 C 0.54932 0.67971 0.5934 0.0
C822 C 0.5663 0.65656 0.58791 0.0
H823 H 0.66376 0.5501 0.59183 0.0
H824 H 0.64178 0.5925 0.59727 0.0
H825 H 0.5893 0.62288 0.54623 0.0
H826 H 0.53403 0.74166 0.57657 0.0
H827 H 0.56244 0.70458 0.5682 0.0
C828 C 0.77285 0.53258 0.61967 0.0
C829 C 0.75664 0.52334 0.60363 0.0
C830 C 0.79505 0.54848 0.61555 0.0
C831 C 0.8424 0.56271 0.57401 0.0
H832 H 0.86567 0.61974 0.60974 0.0
C833 C 0.95005 0.59927 0.576 0.0
C834 C 0.95523 0.62656 0.57814 0.0
C835 C 0.92417 0.58955 0.57721 0.0
C836 C 0.85924 0.60412 0.59946 0.0
H837 H 0.75111 0.524 0.57062 0.0
H838 H 0.78921 0.55209 0.56358 0.0
H839 H 0.8229 0.59803 0.61597 0.0
H840 H 0.93725 0.6652 0.58284 0.0
H841 H 0.89166 0.64806 0.58502 0.0
H842 H 0.8787 0.56859 0.55759 0.0
C843 C 0.78495 0.54683 0.57933 0.0
C844 C 0.83491 0.59147 0.60317 0.0
C845 C 0.76283 0.53093 0.58343 0.0
C846 C 0.93383 0.64407 0.58106 0.0
C847 C 0.9078 0.63425 0.58246 0.0
C848 C 0.86666 0.57528 0.57034 0.0
C849 C 0.80156 0.55548 0.59529 0.0
C850 C 0.8264 0.57035 0.59066 0.0
C851 C 0.90277 0.60684 0.58068 0.0
C852 C 0.8756 0.59579 0.58323 0.0
H853 H 0.76851 0.52734 0.6354 0.0
H854 H 0.80758 0.55461 0.62819 0.0
H855 H 0.83662 0.54636 0.56418 0.0
H856 H 0.96608 0.58525 0.57369 0.0
H857 H 0.92103 0.5683 0.57604 0.0
C858 C 0.88728 0.9553 0.57444 0.0
C859 C 0.86092 0.96143 0.57966 0.0
C860 C 0.89608 0.92904 0.57442 0.0
C861 C 0.88292 0.86464 0.59832 0.0
H862 H 0.9341 0.84001 0.5582 0.0
C863 C 0.9562 0.77873 0.61366 0.0
C864 C 0.96338 0.76198 0.59734 0.0
C865 C 0.9395 0.8005 0.61039 0.0
C866 C 0.91954 0.84634 0.56939 0.0
H867 H 0.82285 0.94471 0.58846 0.0
H868 H 0.83834 0.89854 0.58848 0.0
H869 H 0.91219 0.88262 0.55328 0.0
H870 H 0.9579 0.75474 0.56483 0.0
H871 H 0.92846 0.79232 0.55925 0.0
H872 H 0.89055 0.82844 0.61457 0.0
C873 C 0.85218 0.91421 0.58447 0.0
C874 C 0.90718 0.87091 0.56666 0.0
C875 C 0.84328 0.94059 0.58432 0.0
C876 C 0.95267 0.76701 0.57781 0.0
C877 C 0.93599 0.78878 0.57455 0.0
C878 C 0.89536 0.84004 0.60108 0.0
C879 C 0.87878 0.9082 0.57973 0.0
C880 C 0.88917 0.88063 0.58131 0.0
C881 C 0.92958 0.80608 0.59072 0.0
C882 C 0.91421 0.83083 0.58685 0.0
H883 H 0.90137 0.97087 0.57073 0.0
H884 H 0.91676 0.92518 0.57095 0.0
H885 H 0.86926 0.87162 0.60995 0.0
H886 H 0.96383 0.77526 0.62892 0.0
H887 H 0.93518 0.81353 0.62317 0.0
C888 C 0.2395 0.04974 0.88632 0.0
C889 C 0.23414 0.02282 0.8825 0.0
C890 C 0.21877 0.06812 0.88772 0.0
C891 C 0.14631 0.07648 0.87687 0.0
H892 H 0.15281 0.13396 0.91614 0.0
C893 C 0.05782 0.14251 0.90069 0.0
C894 C 0.06212 0.16995 0.89837 0.0
C895 C 0.07903 0.12468 0.89948 0.0
C896 C 0.15081 0.11803 0.90508 0.0
H897 H 0.20298 0.99391 0.87731 0.0
H898 H 0.16674 0.02559 0.88038 0.0
H899 H 0.18933 0.10263 0.91191 0.0
H900 H 0.09234 0.20028 0.89412 0.0
H901 H 0.12944 0.16911 0.89257 0.0
H902 H 0.10737 0.09159 0.87061 0.0
C903 C 0.18692 0.03289 0.88164 0.0
C904 C 0.17179 0.10017 0.9025 0.0
C905 C 0.20769 0.01464 0.87989 0.0
C906 C 0.08829 0.17925 0.89583 0.0
C907 C 0.10956 0.16145 0.895 0.0
C908 C 0.12519 0.09407 0.87972 0.0
C909 C 0.19213 0.05988 0.88571 0.0
C910 C 0.16988 0.07915 0.88831 0.0
C911 C 0.10504 0.13398 0.89638 0.0
C912 C 0.12727 0.11503 0.89381 0.0
H913 H 0.25977 0.05653 0.88824 0.0
H914 H 0.22369 0.08877 0.8904 0.0
H915 H 0.14421 0.06096 0.8655 0.0
H916 H 0.03803 0.13466 0.90284 0.0
H917 H 0.07509 0.10358 0.90083 0.0
C918 C 0.34405 0.05862 0.91216 0.0
C919 C 0.3615 0.03829 0.91819 0.0
C920 C 0.35313 0.0849 0.91049 0.0
C921 C 0.40862 0.1294 0.92599 0.0
H922 H 0.39206 0.16781 0.87612 0.0
C923 C 0.45567 0.23143 0.90939 0.0
C924 C 0.46549 0.2353 0.88942 0.0
C925 C 0.43895 0.21001 0.91387 0.0
C926 C 0.3969 0.15733 0.89012 0.0
H927 H 0.40181 0.02972 0.92791 0.0
H928 H 0.41751 0.0751 0.92495 0.0
H929 H 0.3703 0.12532 0.88304 0.0
H930 H 0.46434 0.22005 0.85835 0.0
H931 H 0.43594 0.18226 0.86628 0.0
H932 H 0.43614 0.16054 0.93266 0.0
C933 C 0.39683 0.071 0.92162 0.0
C934 C 0.38416 0.13315 0.89421 0.0
C935 C 0.38785 0.04488 0.92317 0.0
C936 C 0.45752 0.21754 0.87394 0.0
C937 C 0.44088 0.19603 0.87845 0.0
C938 C 0.42135 0.15348 0.9219 0.0
C939 C 0.37973 0.0913 0.91503 0.0
C940 C 0.39036 0.11861 0.91197 0.0
C941 C 0.43169 0.19177 0.89854 0.0
C942 C 0.41607 0.16751 0.90372 0.0
H943 H 0.32363 0.05413 0.90818 0.0
H944 H 0.33943 0.10015 0.90549 0.0
H945 H 0.41358 0.11887 0.93994 0.0
H946 H 0.46144 0.24445 0.9218 0.0
H947 H 0.43197 0.20756 0.92946 0.0
C948 C 0.44268 0.37328 0.93813 0.0
C949 C 0.45155 0.35546 0.92304 0.0
C950 C 0.4191 0.38754 0.93529 0.0
C951 C 0.37758 0.41234 0.89323 0.0
H952 H 0.32776 0.43061 0.93628 0.0
C953 C 0.30132 0.49632 0.88378 0.0
C954 C 0.27533 0.49175 0.89088 0.0
C955 C 0.32168 0.47842 0.88822 0.0
C956 C 0.3414 0.42549 0.92407 0.0
H957 H 0.44164 0.33699 0.894 0.0
H958 H 0.40055 0.36159 0.88918 0.0
H959 H 0.36447 0.40023 0.94364 0.0
H960 H 0.25045 0.46443 0.90807 0.0
H961 H 0.2861 0.43325 0.9159 0.0
H962 H 0.35463 0.43744 0.87364 0.0
C963 C 0.41209 0.36513 0.90292 0.0
C964 C 0.36252 0.4083 0.92833 0.0
C965 C 0.43561 0.35098 0.90571 0.0
C966 C 0.27026 0.46879 0.90258 0.0
C967 C 0.29069 0.4509 0.90708 0.0
C968 C 0.35659 0.42955 0.889 0.0
C969 C 0.40396 0.38415 0.91736 0.0
C970 C 0.38088 0.40159 0.91295 0.0
C971 C 0.31661 0.4555 0.89989 0.0
C972 C 0.33836 0.43647 0.90439 0.0
H973 H 0.45455 0.37715 0.95164 0.0
H974 H 0.41342 0.40212 0.94667 0.0
H975 H 0.39156 0.40788 0.88109 0.0
H976 H 0.30614 0.51398 0.87509 0.0
H977 H 0.34154 0.48276 0.88275 0.0
C978 C 0.15362 0.46189 0.90324 0.0
C979 C 0.15086 0.47722 0.92111 0.0
C980 C 0.13902 0.43848 0.90069 0.0
C981 C 0.0987 0.38801 0.92838 0.0
H982 H 0.06854 0.37609 0.8745 0.0
C983 C 0.04449 0.29039 0.90637 0.0
C984 C 0.02218 0.29227 0.89347 0.0
C985 C 0.06014 0.31276 0.91051 0.0
C986 C 0.07658 0.3792 0.8897 0.0
H987 H 0.13123 0.47945 0.95063 0.0
H988 H 0.1055 0.43874 0.94609 0.0
H989 H 0.09625 0.41493 0.88047 0.0
H990 H 0.9984 0.3194 0.8754 0.0
H991 H 0.0255 0.35842 0.88273 0.0
H992 H 0.07839 0.35257 0.9377 0.0
C993 C 0.11916 0.44468 0.93411 0.0
C994 C 0.09284 0.40131 0.89306 0.0
C995 C 0.13388 0.46808 0.9367 0.0
C996 C 0.01566 0.31716 0.88511 0.0
C997 C 0.03125 0.33953 0.88931 0.0
C998 C 0.08238 0.36587 0.92503 0.0
C999 C 0.1212 0.42983 0.91591 0.0
C1000 C 0.10415 0.40601 0.91243 0.0
C1001 C 0.05385 0.33758 0.9019 0.0
C1002 C 0.07109 0.3612 0.90563 0.0
H1003 H 0.16682 0.46815 0.89104 0.0
H1004 H 0.14158 0.42725 0.88667 0.0
H1005 H 0.10723 0.39089 0.94345 0.0
H1006 H 0.05034 0.27148 0.91282 0.0
H1007 H 0.07759 0.31041 0.92004 0.0
C1008 C 0.53702 0.12204 0.29378 0.0
C1009 C 0.5501 0.14512 0.30061 0.0
C1010 C 0.54479 0.10972 0.27552 0.0
C1011 C 0.60431 0.10213 0.24445 0.0
H1012 H 0.55784 0.07665 0.20132 0.0
C1013 C 0.64412 0.07484 0.16545 0.0
C1014 C 0.63309 0.05323 0.15482 0.0
C1015 C 0.63305 0.08344 0.18382 0.0
C1016 C 0.57101 0.08324 0.21342 0.0
H1017 H 0.57988 0.17464 0.29283 0.0
H1018 H 0.59353 0.15305 0.26114 0.0
H1019 H 0.53875 0.09793 0.23172 0.0
H1020 H 0.60215 0.02324 0.15533 0.0
H1021 H 0.58286 0.03813 0.18787 0.0
H1022 H 0.63654 0.08755 0.22644 0.0
C1023 C 0.57768 0.14421 0.27008 0.0
C1024 C 0.56009 0.09551 0.23072 0.0
C1025 C 0.56986 0.15655 0.2882 0.0
C1026 C 0.61109 0.03991 0.16325 0.0
C1027 C 0.59992 0.04858 0.18174 0.0
C1028 C 0.61517 0.08974 0.22732 0.0
C1029 C 0.56581 0.12025 0.2639 0.0
C1030 C 0.57673 0.10563 0.24614 0.0
C1031 C 0.61075 0.07055 0.19215 0.0
C1032 C 0.59873 0.08074 0.21136 0.0
H1033 H 0.52183 0.1127 0.30309 0.0
H1034 H 0.53533 0.09126 0.27106 0.0
H1035 H 0.61754 0.10916 0.25637 0.0
H1036 H 0.66131 0.08528 0.1595 0.0
H1037 H 0.64169 0.10063 0.19128 0.0
C1038 C 0.41258 0.53701 0.32624 0.0
C1039 C 0.38509 0.54088 0.32834 0.0
C1040 C 0.42541 0.54388 0.30796 0.0
C1041 C 0.41546 0.5546 0.25325 0.0
H1042 H 0.47068 0.60828 0.25704 0.0
C1043 C 0.4705 0.59705 0.18237 0.0
C1044 C 0.46752 0.62469 0.18072 0.0
C1045 C 0.46408 0.58406 0.20068 0.0
C1046 C 0.4555 0.59307 0.25581 0.0
H1047 H 0.34925 0.5539 0.31305 0.0
H1048 H 0.37157 0.56518 0.28084 0.0
H1049 H 0.45188 0.58909 0.28841 0.0
H1050 H 0.45667 0.66065 0.19686 0.0
H1051 H 0.44618 0.63803 0.2291 0.0
H1052 H 0.41878 0.55886 0.22067 0.0
C1053 C 0.3832 0.55711 0.29334 0.0
C1054 C 0.44487 0.58204 0.27369 0.0
C1055 C 0.37048 0.5508 0.31172 0.0
C1056 C 0.45909 0.63929 0.19784 0.0
C1057 C 0.45323 0.6264 0.21624 0.0
C1058 C 0.42646 0.56523 0.23538 0.0
C1059 C 0.41082 0.55411 0.29141 0.0
C1060 C 0.42434 0.56317 0.27255 0.0
C1061 C 0.45518 0.59864 0.2177 0.0
C1062 C 0.44614 0.58499 0.23652 0.0
H1063 H 0.4242 0.5295 0.33894 0.0
H1064 H 0.44674 0.54141 0.30679 0.0
H1065 H 0.39965 0.54004 0.25203 0.0
H1066 H 0.47683 0.58543 0.16929 0.0
H1067 H 0.46573 0.56262 0.20149 0.0
C1068 C 0.89052 0.42917 0.17467 0.0
C1069 C 0.86922 0.44687 0.1722 0.0
C1070 C 0.90014 0.42317 0.1942 0.0
C1071 C 0.87903 0.41867 0.24729 0.0
H1072 H 0.95436 0.41808 0.25967 0.0
C1073 C 0.91713 0.39252 0.3281 0.0
C1074 C 0.94045 0.37737 0.32944 0.0
C1075 C 0.90912 0.40327 0.30935 0.0
C1076 C 0.93327 0.4178 0.25642 0.0
H1077 H 0.8413 0.47227 0.18814 0.0
H1078 H 0.85791 0.46145 0.22241 0.0
H1079 H 0.93927 0.43264 0.22597 0.0
H1080 H 0.97366 0.36145 0.31231 0.0
H1081 H 0.95933 0.37939 0.27945 0.0
H1082 H 0.87287 0.40288 0.27729 0.0
C1083 C 0.86724 0.4524 0.20919 0.0
C1084 C 0.92466 0.42629 0.23715 0.0
C1085 C 0.85788 0.45871 0.18962 0.0
C1086 C 0.95572 0.3733 0.31172 0.0
C1087 C 0.94753 0.38372 0.29292 0.0
C1088 C 0.88762 0.40983 0.26646 0.0
C1089 C 0.88836 0.43446 0.21165 0.0
C1090 C 0.89747 0.42669 0.23238 0.0
C1091 C 0.92406 0.39878 0.29145 0.0
C1092 C 0.91488 0.40914 0.27127 0.0
H1093 H 0.89966 0.41987 0.16146 0.0
H1094 H 0.91631 0.40913 0.19569 0.0
H1095 H 0.85796 0.41846 0.2439 0.0
H1096 H 0.90518 0.39624 0.3416 0.0
H1097 H 0.89124 0.41519 0.30895 0.0
C1098 C 0.08666 0.94355 0.34061 0.0
C1099 C 0.11424 0.94767 0.33961 0.0
C1100 C 0.07265 0.93536 0.32321 0.0
C1101 C 0.07481 0.93443 0.26725 0.0
H1102 H 0.03545 0.86823 0.27077 0.0
C1103 C 0.02417 0.88729 0.19683 0.0
C1104 C 0.03326 0.86138 0.1931 0.0
C1105 C 0.02876 0.89937 0.2158 0.0
C1106 C 0.04612 0.88689 0.26965 0.0
H1107 H 0.14871 0.94737 0.31976 0.0
H1108 H 0.12414 0.93362 0.28922 0.0
H1109 H 0.05418 0.88803 0.3019 0.0
H1110 H 0.0528 0.82717 0.20639 0.0
H1111 H 0.0604 0.84809 0.23969 0.0
H1112 H 0.06738 0.93299 0.23497 0.0
C1113 C 0.11341 0.93654 0.30343 0.0
C1114 C 0.05669 0.89825 0.28741 0.0
C1115 C 0.12746 0.94421 0.32088 0.0
C1116 C 0.04573 0.84723 0.20893 0.0
C1117 C 0.0499 0.85911 0.22797 0.0
C1118 C 0.06388 0.92332 0.24956 0.0
C1119 C 0.08595 0.93175 0.3045 0.0
C1120 C 0.07171 0.92174 0.28626 0.0
C1121 C 0.04205 0.8855 0.23141 0.0
C1122 C 0.05002 0.8991 0.25053 0.0
H1123 H 0.0761 0.94596 0.35495 0.0
H1124 H 0.05147 0.93177 0.32436 0.0
H1125 H 0.08624 0.95263 0.26602 0.0
H1126 H 0.01463 0.89861 0.18479 0.0
H1127 H 0.02248 0.91972 0.21813 0.0
C1128 C 0.36681 0.90953 0.82743 0.0
C1129 C 0.37762 0.9309 0.83852 0.0
C1130 C 0.37922 0.90029 0.80971 0.0
C1131 C 0.42445 0.92055 0.7685 0.0
H1132 H 0.42684 0.84477 0.75783 0.0
C1133 C 0.46854 0.87675 0.69368 0.0
C1134 C 0.45268 0.85728 0.68423 0.0
C1135 C 0.46287 0.88527 0.71363 0.0
C1136 C 0.42625 0.86599 0.76056 0.0
H1137 H 0.41005 0.95929 0.83966 0.0
H1138 H 0.43169 0.94319 0.80848 0.0
H1139 H 0.41045 0.86079 0.79072 0.0
H1140 H 0.41913 0.83077 0.6885 0.0
H1141 H 0.40905 0.84579 0.72305 0.0
H1142 H 0.43972 0.92572 0.73812 0.0
C1143 C 0.41351 0.9337 0.81355 0.0
C1144 C 0.41685 0.87516 0.77938 0.0
C1145 C 0.40111 0.94293 0.83137 0.0
C1146 C 0.43149 0.84606 0.69527 0.0
C1147 C 0.42592 0.85444 0.71517 0.0
C1148 C 0.43386 0.91135 0.74963 0.0
C1149 C 0.40271 0.91222 0.80257 0.0
C1150 C 0.41529 0.90255 0.7834 0.0
C1151 C 0.44139 0.87428 0.72453 0.0
C1152 C 0.4343 0.88399 0.7453 0.0
H1153 H 0.34841 0.9002 0.8322 0.0
H1154 H 0.37005 0.8841 0.80135 0.0
H1155 H 0.42331 0.94177 0.77108 0.0
H1156 H 0.48494 0.88582 0.6855 0.0
H1157 H 0.47525 0.90046 0.7205 0.0
C1158 C 0.54967 0.36398 0.80296 0.0
C1159 C 0.53168 0.37544 0.81681 0.0
C1160 C 0.55354 0.37508 0.78364 0.0
C1161 C 0.5487 0.43758 0.75538 0.0
H1162 H 0.55931 0.39121 0.70867 0.0
C1163 C 0.60774 0.46764 0.68314 0.0
C1164 C 0.60077 0.45602 0.66435 0.0
C1165 C 0.59394 0.46089 0.70101 0.0
C1166 C 0.55595 0.40458 0.72141 0.0
H1167 H 0.50336 0.40732 0.82123 0.0
H1168 H 0.5101 0.42682 0.78718 0.0
H1169 H 0.54461 0.37253 0.74105 0.0
H1170 H 0.57267 0.4301 0.64907 0.0
H1171 H 0.54819 0.41874 0.68012 0.0
H1172 H 0.56035 0.46963 0.73567 0.0
C1173 C 0.52127 0.40929 0.79142 0.0
C1174 C 0.54784 0.39378 0.74005 0.0
C1175 C 0.51727 0.39804 0.8108 0.0
C1176 C 0.5787 0.43896 0.66347 0.0
C1177 C 0.56476 0.43243 0.68125 0.0
C1178 C 0.55684 0.44844 0.73666 0.0
C1179 C 0.53951 0.39793 0.77768 0.0
C1180 C 0.54476 0.41004 0.75737 0.0
C1181 C 0.5728 0.44257 0.70033 0.0
C1182 C 0.56108 0.43195 0.71957 0.0
H1183 H 0.56082 0.34638 0.80708 0.0
H1184 H 0.56798 0.36605 0.7735 0.0
H1185 H 0.54658 0.45059 0.76849 0.0
H1186 H 0.62477 0.48076 0.68422 0.0
H1187 H 0.60081 0.4689 0.71547 0.0
C1188 C 0.07822 0.60857 0.66081 0.0
C1189 C 0.05615 0.62562 0.66077 0.0
C1190 C 0.0876 0.59774 0.67912 0.0
C1191 C 0.06981 0.58597 0.73365 0.0
H1192 H 0.14623 0.58585 0.74111 0.0
C1193 C 0.11946 0.54663 0.80775 0.0
C1194 C 0.14018 0.56236 0.81564 0.0
C1195 C 0.1092 0.5516 0.7882 0.0
C1196 C 0.12484 0.58582 0.73931 0.0
H1197 H 0.02639 0.64445 0.67986 0.0
H1198 H 0.04298 0.62587 0.7119 0.0
H1199 H 0.12761 0.59989 0.7085 0.0
H1200 H 0.16698 0.59501 0.80887 0.0
H1201 H 0.14878 0.60403 0.77511 0.0
H1202 H 0.06709 0.57293 0.76481 0.0
C1203 C 0.05276 0.62043 0.69774 0.0
C1204 C 0.11416 0.59356 0.7205 0.0
C1205 C 0.04327 0.63114 0.67938 0.0
C1206 C 0.15075 0.58277 0.80339 0.0
C1207 C 0.14054 0.58772 0.7839 0.0
C1208 C 0.08052 0.57828 0.7525 0.0
C1209 C 0.07524 0.60386 0.69785 0.0
C1210 C 0.0865 0.59403 0.7175 0.0
C1211 C 0.11954 0.57232 0.7761 0.0
C1212 C 0.10816 0.57847 0.75563 0.0
H1213 H 0.08828 0.60362 0.64664 0.0
H1214 H 0.10464 0.58465 0.6786 0.0
H1215 H 0.04843 0.58578 0.73177 0.0
H1216 H 0.1108 0.53084 0.81686 0.0
H1217 H 0.09319 0.5392 0.78255 0.0
C1218 C 0.96364 0.15385 0.79781 0.0
C1219 C 0.954 0.14458 0.8167 0.0
C1220 C 0.95567 0.14172 0.77953 0.0
C1221 C 0.90203 0.0991 0.7586 0.0
H1222 H 0.94961 0.09243 0.71215 0.0
C1223 C 0.8713 0.044 0.68499 0.0
C1224 C 0.87583 0.05797 0.66668 0.0
C1225 C 0.88275 0.05266 0.70332 0.0
C1226 C 0.93611 0.09425 0.725 0.0
H1227 H 0.92952 0.11469 0.83141 0.0
H1228 H 0.91612 0.09313 0.79965 0.0
H1229 H 0.96613 0.1111 0.74427 0.0
H1230 H 0.89673 0.09122 0.65299 0.0
H1231 H 0.91682 0.10631 0.68503 0.0
H1232 H 0.87207 0.08216 0.73935 0.0
C1233 C 0.92915 0.11025 0.7988 0.0
C1234 C 0.94551 0.10504 0.74337 0.0
C1235 C 0.93688 0.12253 0.81702 0.0
C1236 C 0.89276 0.0802 0.66693 0.0
C1237 C 0.90441 0.08871 0.68521 0.0
C1238 C 0.89272 0.08812 0.74032 0.0
C1239 C 0.93812 0.1199 0.77979 0.0
C1240 C 0.92853 0.10774 0.76037 0.0
C1241 C 0.89915 0.07529 0.70365 0.0
C1242 C 0.9096 0.08573 0.7233 0.0
H1243 H 0.97672 0.17094 0.79714 0.0
H1244 H 0.96272 0.14992 0.76518 0.0
H1245 H 0.88821 0.10137 0.7712 0.0
H1246 H 0.85818 0.02692 0.68529 0.0
H1247 H 0.87854 0.04182 0.7173 0.0
C1248 C 0.59535 0.11331 0.4511 0.0
C1249 C 0.59754 0.10559 0.43046 0.0
C1250 C 0.61278 0.10318 0.46585 0.0
C1251 C 0.67922 0.0725 0.47058 0.0
H1252 H 0.65595 0.05751 0.52602 0.0
C1253 C 0.751 0.0333 0.533 0.0
C1254 C 0.74986 0.04749 0.55151 0.0
C1255 C 0.73125 0.03677 0.51811 0.0
C1256 C 0.66272 0.06163 0.51059 0.0
H1257 H 0.61993 0.0808 0.40937 0.0
H1258 H 0.64949 0.06267 0.43504 0.0
H1259 H 0.62343 0.07075 0.50026 0.0
H1260 H 0.72669 0.07562 0.56927 0.0
H1261 H 0.69247 0.08155 0.54347 0.0
H1262 H 0.71855 0.06363 0.48101 0.0
C1263 C 0.63458 0.07689 0.4398 0.0
C1264 C 0.64413 0.06933 0.49586 0.0
C1265 C 0.61729 0.08708 0.42507 0.0
C1266 C 0.72824 0.0645 0.55511 0.0
C1267 C 0.70847 0.06774 0.54039 0.0
C1268 C 0.69778 0.06466 0.48529 0.0
C1269 C 0.63276 0.08501 0.46033 0.0
C1270 C 0.6522 0.07525 0.47575 0.0
C1271 C 0.70989 0.0542 0.52163 0.0
C1272 C 0.6898 0.05958 0.50553 0.0
H1273 H 0.58025 0.12724 0.45591 0.0
H1274 H 0.61095 0.11008 0.4815 0.0
H1275 H 0.68622 0.07726 0.45533 0.0
H1276 H 0.76742 0.02004 0.52983 0.0
H1277 H 0.73275 0.02596 0.50381 0.0
C1278 C 0.3751 0.61015 0.45897 0.0
C1279 C 0.3934 0.59346 0.44902 0.0
C1280 C 0.38349 0.63358 0.46843 0.0
C1281 C 0.4417 0.66576 0.49151 0.0
H1282 H 0.39784 0.72883 0.48756 0.0
C1283 C 0.46522 0.7616 0.53749 0.0
C1284 C 0.4432 0.77146 0.54831 0.0
C1285 C 0.4617 0.74247 0.52209 0.0
C1286 C 0.41032 0.71139 0.48881 0.0
H1287 H 0.43504 0.58868 0.44121 0.0
H1288 H 0.44971 0.62948 0.45801 0.0
H1289 H 0.38677 0.68973 0.46722 0.0
H1290 H 0.40027 0.77012 0.55087 0.0
H1291 H 0.39415 0.73713 0.52417 0.0
H1292 H 0.46474 0.6872 0.51363 0.0
C1293 C 0.42883 0.62425 0.45849 0.0
C1294 C 0.40394 0.68898 0.4772 0.0
C1295 C 0.42041 0.60081 0.44892 0.0
C1296 C 0.41764 0.76284 0.54283 0.0
C1297 C 0.41411 0.74404 0.5274 0.0
C1298 C 0.44806 0.68822 0.50319 0.0
C1299 C 0.41043 0.64095 0.46828 0.0
C1300 C 0.41912 0.66567 0.47882 0.0
C1301 C 0.43609 0.73321 0.51711 0.0
C1302 C 0.432 0.71103 0.50238 0.0
H1303 H 0.35426 0.60496 0.45978 0.0
H1304 H 0.36887 0.6457 0.47622 0.0
H1305 H 0.45371 0.64806 0.49318 0.0
H1306 H 0.48517 0.7678 0.54151 0.0
H1307 H 0.47901 0.7346 0.51434 0.0
C1308 C 0.90455 0.42246 0.45236 0.0
C1309 C 0.9136 0.3962 0.45459 0.0
C1310 C 0.88324 0.43174 0.46418 0.0
C1311 C 0.84685 0.4179 0.51201 0.0
H1312 H 0.78654 0.45155 0.48569 0.0
C1313 C 0.74524 0.4183 0.54993 0.0
C1314 C 0.73043 0.44191 0.55003 0.0
C1315 C 0.76793 0.41602 0.53787 0.0
C1316 C 0.80341 0.44256 0.4933 0.0
H1317 H 0.90808 0.35941 0.47132 0.0
H1318 H 0.87112 0.37546 0.49184 0.0
H1319 H 0.82678 0.44218 0.46578 0.0
H1320 H 0.72728 0.48142 0.537 0.0
H1321 H 0.76729 0.47735 0.51567 0.0
H1322 H 0.82354 0.4177 0.53936 0.0
C1323 C 0.88036 0.38892 0.481 0.0
C1324 C 0.82642 0.43722 0.48193 0.0
C1325 C 0.90135 0.37963 0.4691 0.0
C1326 C 0.73827 0.46294 0.53716 0.0
C1327 C 0.76115 0.46063 0.525 0.0
C1328 C 0.82399 0.42323 0.52332 0.0
C1329 C 0.87096 0.41501 0.47863 0.0
C1330 C 0.84805 0.42414 0.49107 0.0
C1331 C 0.7765 0.43731 0.52561 0.0
C1332 C 0.80172 0.43488 0.51397 0.0
H1333 H 0.91355 0.43558 0.44119 0.0
H1334 H 0.87644 0.45196 0.4621 0.0
H1335 H 0.86342 0.40831 0.51957 0.0
H1336 H 0.73959 0.40162 0.55949 0.0
H1337 H 0.77895 0.39755 0.53828 0.0
C1338 C 0.11835 0.88708 0.44882 0.0
C1339 C 0.10609 0.91206 0.45028 0.0
C1340 C 0.10506 0.86413 0.45517 0.0
C1341 C 0.05165 0.84251 0.48996 0.0
H1342 H 0.06498 0.77421 0.46448 0.0
C1343 C 0.01745 0.74448 0.52768 0.0
C1344 C 0.03891 0.7271 0.53064 0.0
C1345 C 0.01978 0.76583 0.51398 0.0
C1346 C 0.0609 0.79317 0.47167 0.0
H1347 H 0.06976 0.93235 0.45872 0.0
H1348 H 0.04642 0.89223 0.46972 0.0
H1349 H 0.08019 0.81481 0.44766 0.0
H1350 H 0.07873 0.71709 0.52075 0.0
H1351 H 0.0826 0.7538 0.49667 0.0
H1352 H 0.03303 0.82074 0.51425 0.0
C1353 C 0.06653 0.89046 0.464 0.0
C1354 C 0.06974 0.81642 0.46211 0.0
C1355 C 0.07991 0.91346 0.45771 0.0
C1356 C 0.06192 0.73027 0.51876 0.0
C1357 C 0.06407 0.75121 0.50488 0.0
C1358 C 0.04266 0.81925 0.49944 0.0
C1359 C 0.07908 0.86554 0.46306 0.0
C1360 C 0.06604 0.84131 0.47149 0.0
C1361 C 0.04338 0.76971 0.50279 0.0
C1362 C 0.04799 0.7943 0.49074 0.0
H1363 H 0.13862 0.8853 0.44346 0.0
H1364 H 0.11558 0.8454 0.45459 0.0
H1365 H 0.04863 0.86127 0.49773 0.0
H1366 H 0.99957 0.74254 0.53681 0.0
H1367 H 0.00349 0.77976 0.51262 0.0
C1368 C 0.24882 0.96893 0.9674 0.0
C1369 C 0.25223 0.95054 0.95141 0.0
C1370 C 0.22853 0.96525 0.98191 0.0
C1371 C 0.16521 0.92868 0.98983 0.0
H1372 H 0.18202 0.93303 0.0477 0.0
C1373 C 0.10403 0.87364 0.05047 0.0
C1374 C 0.09692 0.88752 0.0683 0.0
C1375 C 0.12216 0.88456 0.03662 0.0
C1376 C 0.17694 0.93208 0.03159 0.0
H1377 H 0.23677 0.91425 0.93788 0.0
H1378 H 0.20197 0.90789 0.96294 0.0
H1379 H 0.21478 0.94766 0.02232 0.0
H1380 H 0.1038 0.9234 0.08589 0.0
H1381 H 0.13575 0.94246 0.06166 0.0
H1382 H 0.1278 0.91232 -0.00101 0.0
C1383 C 0.21459 0.92526 0.96431 0.0
C1384 C 0.19564 0.94054 0.01707 0.0
C1385 C 0.23477 0.92881 0.95 0.0
C1386 C 0.10875 0.91236 0.07218 0.0
C1387 C 0.12713 0.92319 0.05841 0.0
C1388 C 0.14667 0.92012 0.00428 0.0
C1389 C 0.21123 0.94332 0.98049 0.0
C1390 C 0.19022 0.93825 0.99601 0.0
C1391 C 0.13377 0.90952 0.04036 0.0
C1392 C 0.15257 0.9211 0.02529 0.0
H1393 H 0.26201 0.98584 0.96888 0.0
H1394 H 0.22636 0.97955 0.99419 0.0
H1395 H 0.1602 0.92721 0.97373 0.0
H1396 H 0.09509 0.85461 0.04694 0.0
H1397 H 0.12716 0.8734 0.02297 0.0
C1398 C 0.59004 0.09669 0.03588 0.0
C1399 C 0.61689 0.08967 0.03324 0.0
C1400 C 0.58012 0.12022 0.02744 0.0
C1401 C 0.60212 0.18562 0.00818 0.0
H1402 H 0.53596 0.18543 0.97775 0.0
C1403 C 0.57899 0.26143 0.94583 0.0
C1404 C 0.55298 0.27089 0.94336 0.0
C1405 C 0.58464 0.24199 0.96035 0.0
C1406 C 0.55418 0.18596 0.98656 0.0
H1407 H 0.65402 0.10151 0.01904 0.0
H1408 H 0.63679 0.14245 0.00443 0.0
H1409 H 0.54993 0.14536 0.99594 0.0
H1410 H 0.51251 0.26803 0.95451 0.0
H1411 H 0.52242 0.23354 0.98003 0.0
H1412 H 0.60681 0.22591 -0.00165 0.0
C1413 C 0.62354 0.13004 0.01338 0.0
C1414 C 0.56222 0.163 0.99692 0.0
C1415 C 0.63342 0.10653 0.02173 0.0
C1416 C 0.53277 0.26113 0.95619 0.0
C1417 C 0.5384 0.24132 0.97066 0.0
C1418 C 0.5941 0.20852 -0.00213 0.0
C1419 C 0.59685 0.13727 0.01627 0.0
C1420 C 0.58666 0.16238 0.00733 0.0
C1421 C 0.56437 0.23136 0.97269 0.0
C1422 C 0.57044 0.2087 0.98645 0.0
H1423 H 0.57681 0.08437 0.04486 0.0
H1424 H 0.55949 0.12534 0.03001 0.0
H1425 H 0.62076 0.18594 0.01648 0.0
H1426 H 0.59499 0.26866 0.9362 0.0
H1427 H 0.60477 0.23451 0.96132 0.0
C1428 C 0.24288 0.55466 0.96128 0.0
C1429 C 0.23714 0.57511 0.94731 0.0
C1430 C 0.26077 0.55906 0.97742 0.0
C1431 C 0.29364 0.6128 0.00707 0.0
H1432 H 0.35061 0.56195 0.01442 0.0
C1433 C 0.39221 0.64077 0.04621 0.0
C1434 C 0.40471 0.62193 0.05885 0.0
C1435 C 0.36967 0.63394 0.03485 0.0
C1436 C 0.33462 0.57617 0.01283 0.0
H1437 H 0.24487 0.61639 0.93972 0.0
H1438 H 0.27573 0.62399 0.96765 0.0
H1439 H 0.31407 0.55165 0.99113 0.0
H1440 H 0.40274 0.58127 0.06979 0.0
H1441 H 0.36346 0.56937 0.04994 0.0
H1442 H 0.31436 0.63756 0.02842 0.0
C1443 C 0.26648 0.60461 0.96631 0.0
C1444 C 0.31365 0.57023 -0.0005 0.0
C1445 C 0.24892 0.60017 0.95017 0.0
C1446 C 0.39391 0.59616 0.05998 0.0
C1447 C 0.37135 0.58933 0.04861 0.0
C1448 C 0.31454 0.61872 0.0204 0.0
C1449 C 0.2729 0.58407 0.98 0.0
C1450 C 0.29324 0.58874 0.99612 0.0
C1451 C 0.35901 0.60811 0.03584 0.0
C1452 C 0.33559 0.60073 0.02311 0.0
H1453 H 0.23413 0.53513 0.95942 0.0
H1454 H 0.26523 0.54288 0.98781 0.0
H1455 H 0.27797 0.62729 0.00507 0.0
H1456 H 0.40018 0.66065 0.04469 0.0
H1457 H 0.36099 0.64878 0.02489 0.0
C1458 C 0.92071 0.40189 0.04651 0.0
C1459 C 0.89438 0.39978 0.05336 0.0
C1460 C 0.93415 0.37956 0.03918 0.0
C1461 C 0.92818 0.30552 0.03266 0.0
H1462 H 0.96919 0.31968 0.98354 0.0
C1463 C 0.93579 0.23664 0.96303 0.0
C1464 C 0.96032 0.23397 0.95302 0.0
C1465 C 0.93333 0.25321 0.98003 0.0
C1466 C 0.9583 0.31539 -0.00252 0.0
H1467 H 0.86161 0.37281 0.05856 0.0
H1468 H 0.88438 0.33399 0.04493 0.0
H1469 H 0.95416 0.3565 0.0045 0.0
H1470 H 0.00182 0.24545 0.95336 0.0
H1471 H 0.99727 0.27541 0.98286 0.0
H1472 H 0.93067 0.26433 0.02438 0.0
C1473 C 0.89522 0.35255 0.0458 0.0
C1474 C 0.94968 0.33653 0.00961 0.0
C1475 C 0.88202 0.37481 0.05354 0.0
C1476 C 0.98272 0.24713 0.9609 0.0
C1477 C 0.98011 0.26427 0.97768 0.0
C1478 C 0.93642 0.2844 0.02029 0.0
C1479 C 0.92129 0.35473 0.03805 0.0
C1480 C 0.93385 0.33197 0.02707 0.0
C1481 C 0.95524 0.26786 0.9871 0.0
C1482 C 0.95098 0.28923 0.00231 0.0
H1483 H 0.93066 0.42098 0.04648 0.0
H1484 H 0.9544 0.38198 0.0339 0.0
H1485 H 0.91664 0.30111 0.04624 0.0
H1486 H 0.91827 0.2266 0.95725 0.0
H1487 H 0.91389 0.25583 0.98687 0.0
C1488 C 0.24452 0.92437 0.46122 0.0
C1489 C 0.23331 0.94972 0.45878 0.0
C1490 C 0.26658 0.92065 0.47372 0.0
C1491 C 0.30442 0.94561 0.51679 0.0
H1492 H 0.36157 0.90555 0.49162 0.0
C1493 C 0.40163 0.91731 0.55996 0.0
C1494 C 0.41031 0.89102 0.55702 0.0
C1495 C 0.38113 0.92783 0.54795 0.0
C1496 C 0.34576 0.91662 0.49894 0.0
H1497 H 0.23584 0.99095 0.46827 0.0
H1498 H 0.27459 0.98422 0.49065 0.0
H1499 H 0.32302 0.91801 0.4713 0.0
H1500 H 0.40451 0.85542 0.53882 0.0
H1501 H 0.3686 0.87339 0.51834 0.0
H1502 H 0.32682 0.94333 0.54468 0.0
C1503 C 0.26616 0.96736 0.48263 0.0
C1504 C 0.32375 0.92385 0.48727 0.0
C1505 C 0.24404 0.97117 0.46988 0.0
C1506 C 0.39816 0.87559 0.54172 0.0
C1507 C 0.37776 0.88606 0.52975 0.0
C1508 C 0.32647 0.93819 0.52857 0.0
C1509 C 0.27796 0.94214 0.48423 0.0
C1510 C 0.30257 0.9378 0.49619 0.0
C1511 C 0.36901 0.91231 0.53267 0.0
C1512 C 0.34705 0.92298 0.51987 0.0
H1513 H 0.23666 0.90734 0.45307 0.0
H1514 H 0.27498 0.90091 0.47499 0.0
H1515 H 0.28829 0.95633 0.52401 0.0
H1516 H 0.4104 0.92966 0.57174 0.0
H1517 H 0.37492 0.94815 0.55052 0.0
C1518 C 0.54572 0.23169 0.44989 0.0
C1519 C 0.56669 0.22164 0.43799 0.0
C1520 C 0.55063 0.25126 0.46472 0.0
C1521 C 0.59898 0.30441 0.47461 0.0
H1522 H 0.5664 0.30937 0.52829 0.0
C1523 C 0.63223 0.38345 0.53242 0.0
C1524 C 0.61248 0.39669 0.5437 0.0
C1525 C 0.62597 0.36109 0.52073 0.0
C1526 C 0.57544 0.30837 0.51325 0.0
H1527 H 0.60933 0.2225 0.43331 0.0
H1528 H 0.6179 0.25602 0.45928 0.0
H1529 H 0.55648 0.27119 0.50626 0.0
H1530 H 0.57068 0.3962 0.55186 0.0
H1531 H 0.55965 0.3575 0.53103 0.0
H1532 H 0.61771 0.3415 0.48129 0.0
C1533 C 0.59762 0.24947 0.45686 0.0
C1534 C 0.56978 0.28651 0.50068 0.0
C1535 C 0.59273 0.23015 0.44206 0.0
C1536 C 0.58633 0.38675 0.54316 0.0
C1537 C 0.58006 0.36434 0.53142 0.0
C1538 C 0.60456 0.32618 0.48708 0.0
C1539 C 0.57657 0.26094 0.46785 0.0
C1540 C 0.58176 0.28418 0.48131 0.0
C1541 C 0.59977 0.3514 0.51992 0.0
C1542 C 0.5931 0.32834 0.50663 0.0
H1543 H 0.52544 0.22555 0.44698 0.0
H1544 H 0.53401 0.25975 0.47296 0.0
H1545 H 0.60801 0.30357 0.45955 0.0
H1546 H 0.65251 0.3906 0.53229 0.0
H1547 H 0.64173 0.35137 0.51229 0.0
C1548 C 0.27059 0.57517 0.46356 0.0
C1549 C 0.27613 0.55 0.45539 0.0
C1550 C 0.25065 0.57829 0.4782 0.0
C1551 C 0.18669 0.55256 0.49062 0.0
H1552 H 0.19277 0.5948 0.54007 0.0
C1553 C 0.09311 0.58443 0.53486 0.0
C1554 C 0.09307 0.61038 0.54269 0.0
C1555 C 0.1167 0.57289 0.52792 0.0
C1556 C 0.19062 0.58316 0.52622 0.0
H1557 H 0.26579 0.50821 0.45633 0.0
H1558 H 0.23 0.51386 0.48159 0.0
H1559 H 0.23277 0.58215 0.52132 0.0
H1560 H 0.1175 0.64462 0.5496 0.0
H1561 H 0.15845 0.62518 0.53673 0.0
H1562 H 0.14469 0.55506 0.4944 0.0
C1563 C 0.24153 0.53102 0.4769 0.0
C1564 C 0.21358 0.57572 0.51563 0.0
C1565 C 0.26199 0.52778 0.46258 0.0
C1566 C 0.11711 0.62444 0.54387 0.0
C1567 C 0.14061 0.61315 0.53657 0.0
C1568 C 0.1637 0.56041 0.50095 0.0
C1569 C 0.23546 0.55638 0.48459 0.0
C1570 C 0.21176 0.56077 0.49755 0.0
C1571 C 0.14071 0.58732 0.52824 0.0
C1572 C 0.1653 0.57633 0.51867 0.0
H1573 H 0.28126 0.59257 0.45824 0.0
H1574 H 0.24617 0.59808 0.48375 0.0
H1575 H 0.18477 0.54132 0.47654 0.0
H1576 H 0.07481 0.57315 0.53403 0.0
H1577 H 0.11599 0.55278 0.52208 0.0
C1578 C 0.92348 0.27618 0.47118 0.0
C1579 C 0.94777 0.27877 0.46081 0.0
C1580 C 0.92008 0.25657 0.48607 0.0
C1581 C 0.93962 0.18962 0.49522 0.0
H1582 H 0.90394 0.19755 0.5475 0.0
C1583 C 0.90288 0.09745 0.53885 0.0
C1584 C 0.87819 0.09949 0.54867 0.0
C1585 C 0.91605 0.12018 0.53187 0.0
C1586 C 0.91368 0.1949 0.53286 0.0
H1587 H 0.98792 0.26372 0.45829 0.0
H1588 H 0.98166 0.22858 0.484 0.0
H1589 H 0.91886 0.23694 0.52887 0.0
H1590 H 0.848 0.12669 0.55928 0.0
H1591 H 0.87013 0.16639 0.54627 0.0
H1592 H 0.93283 0.14799 0.49812 0.0
C1593 C 0.96546 0.24211 0.48081 0.0
C1594 C 0.92247 0.21749 0.52233 0.0
C1595 C 0.96908 0.26223 0.46623 0.0
C1596 C 0.86717 0.12471 0.55191 0.0
C1597 C 0.88002 0.14745 0.54452 0.0
C1598 C 0.93039 0.16708 0.5055 0.0
C1599 C 0.94072 0.23877 0.49052 0.0
C1600 C 0.93513 0.21505 0.50326 0.0
C1601 C 0.90448 0.14549 0.53409 0.0
C1602 C 0.91682 0.16938 0.52431 0.0
H1603 H 0.90677 0.28872 0.46722 0.0
H1604 H 0.90075 0.25427 0.49318 0.0
H1605 H 0.94895 0.18722 0.48037 0.0
H1606 H 0.91187 0.07817 0.53644 0.0
H1607 H 0.93514 0.11779 0.52447 0.0
C1608 C 0.75128 0.0802 0.02966 0.0
C1609 C 0.74029 0.05459 0.03126 0.0
C1610 C 0.77324 0.08494 0.01724 0.0
C1611 C 0.8121 0.0631 0.97362 0.0
H1612 H 0.86852 0.10174 0.00116 0.0
C1613 C 0.911 0.09347 0.93331 0.0
C1614 C 0.92019 0.11935 0.93749 0.0
C1615 C 0.88982 0.08257 0.94445 0.0
C1616 C 0.85292 0.09112 0.99316 0.0
H1617 H 0.74292 0.01409 0.02016 0.0
H1618 H 0.7816 0.02262 -0.00208 0.0
H1619 H 0.82944 0.0879 0.02035 0.0
H1620 H 0.91441 0.1538 0.95693 0.0
H1621 H 0.87733 0.13519 0.97589 0.0
H1622 H 0.83531 0.06716 0.94622 0.0
C1623 C 0.77306 0.03888 0.00656 0.0
C1624 C 0.83059 0.08309 0.0042 0.0
C1625 C 0.75097 0.03402 0.01922 0.0
C1626 C 0.90774 0.13396 0.95311 0.0
C1627 C 0.88664 0.12311 0.9642 0.0
C1628 C 0.83449 0.07134 0.96248 0.0
C1629 C 0.7848 0.06427 0.00596 0.0
C1630 C 0.80967 0.06957 0.99447 0.0
C1631 C 0.87742 0.09726 0.96007 0.0
C1632 C 0.85486 0.08603 0.97205 0.0
H1633 H 0.74338 0.09661 0.03849 0.0
H1634 H 0.78152 0.10483 0.01673 0.0
H1635 H 0.79621 0.05275 0.96577 0.0
H1636 H 0.9199 0.08172 0.92126 0.0
H1637 H 0.88331 0.06255 0.94095 0.0
C1638 C 0.38093 0.90524 0.98428 0.0
C1639 C 0.37803 0.90772 0.96294 0.0
C1640 C 0.39517 0.88422 0.99268 0.0
C1641 C 0.41592 0.81606 0.98391 0.0
H1642 H 0.46007 0.83073 0.0313 0.0
C1643 C 0.46188 0.73496 0.03807 0.0
C1644 C 0.45328 0.73904 0.05833 0.0
C1645 C 0.45787 0.75469 0.02318 0.0
C1646 C 0.44808 0.82634 0.01793 0.0
H1647 H 0.38789 0.88964 0.93373 0.0
H1648 H 0.41248 0.85233 0.94862 0.0
H1649 H 0.44345 0.86746 0.01062 0.0
H1650 H 0.43439 0.76702 0.079 0.0
H1651 H 0.42796 0.80127 0.05331 0.0
H1652 H 0.41977 0.77483 0.99193 0.0
C1653 C 0.40371 0.86698 0.95871 0.0
C1654 C 0.43849 0.84732 0.00616 0.0
C1655 C 0.38954 0.88827 0.95022 0.0
C1656 C 0.4411 0.76319 0.0635 0.0
C1657 C 0.43759 0.78292 0.04884 0.0
C1658 C 0.42566 0.79496 0.99571 0.0
C1659 C 0.40684 0.86493 0.98005 0.0
C1660 C 0.42134 0.84248 0.98958 0.0
C1661 C 0.44586 0.7789 0.02855 0.0
C1662 C 0.44088 0.80006 0.01332 0.0
H1663 H 0.37184 0.91929 0.99465 0.0
H1664 H 0.3966 0.88281 0.00921 0.0
H1665 H 0.40273 0.81177 0.97122 0.0
H1666 H 0.47129 0.71647 0.03371 0.0
H1667 H 0.46431 0.75116 0.00758 0.0
C1668 C 0.75803 0.46024 0.03188 0.0
C1669 C 0.7699 0.43885 0.04228 0.0
C1670 C 0.73683 0.45573 0.01835 0.0
C1671 C 0.68336 0.4074 0.01008 0.0
H1672 H 0.67621 0.43806 0.95588 0.0
C1673 C 0.60528 0.36873 0.95366 0.0
C1674 C 0.59146 0.38714 0.94148 0.0
C1675 C 0.62712 0.37666 0.96533 0.0
C1676 C 0.67775 0.42963 0.97109 0.0
H1677 H 0.76994 0.39595 0.04572 0.0
H1678 H 0.73334 0.38822 0.02227 0.0
H1679 H 0.71475 0.44954 0.97707 0.0
H1680 H 0.59031 0.42839 0.93183 0.0
H1681 H 0.62809 0.44237 0.95264 0.0
H1682 H 0.64655 0.38762 0.00439 0.0
C1683 C 0.73996 0.40846 0.02479 0.0
C1684 C 0.69983 0.43618 0.98318 0.0
C1685 C 0.76104 0.41291 0.03817 0.0
C1686 C 0.60024 0.41372 0.94119 0.0
C1687 C 0.62211 0.42169 0.95295 0.0
C1688 C 0.66134 0.40099 -0.00189 0.0
C1689 C 0.72716 0.42981 0.01514 0.0
C1690 C 0.70306 0.42471 0.00264 0.0
C1691 C 0.63569 0.40327 0.96528 0.0
C1692 C 0.65847 0.4116 0.97832 0.0
H1693 H 0.76443 0.48045 0.03477 0.0
H1694 H 0.72731 0.47255 0.01108 0.0
H1695 H 0.68502 0.39871 0.02521 0.0
H1696 H 0.59903 0.34818 0.95449 0.0
H1697 H 0.63736 0.36184 0.97439 0.0
C1698 C 0.08993 0.75926 0.0576 0.0
C1699 C 0.0648 0.77098 0.05979 0.0
C1700 C 0.09578 0.74369 0.04054 0.0
C1701 C 0.06437 0.70093 0.00262 0.0
H1702 H 0.13392 0.70345 0.97708 0.0
C1703 C 0.09641 0.62635 0.93964 0.0
C1704 C 0.1221 0.61578 0.9418 0.0
C1705 C 0.08823 0.64789 0.95162 0.0
C1706 C 0.11445 0.70241 0.98411 0.0
H1707 H 0.02618 0.77604 0.04564 0.0
H1708 H 0.03638 0.7484 0.01571 0.0
H1709 H 0.12161 0.73727 0.00206 0.0
H1710 H 0.15917 0.61937 0.95851 0.0
H1711 H 0.14497 0.6567 0.97937 0.0
H1712 H 0.05753 0.66555 0.98518 0.0
C1713 C 0.05152 0.75137 0.02728 0.0
C1714 C 0.10739 0.72182 -0.00164 0.0
C1715 C 0.04574 0.76727 0.04432 0.0
C1716 C 0.13944 0.62729 0.95616 0.0
C1717 C 0.13129 0.64876 0.96812 0.0
C1718 C 0.07148 0.68142 0.98839 0.0
C1719 C 0.07657 0.73929 0.02531 0.0
C1720 C 0.08253 0.72093 0.00814 0.0
C1721 C 0.10559 0.65932 0.96602 0.0
C1722 C 0.09686 0.68158 0.97936 0.0
H1723 H 0.10508 0.76181 0.06922 0.0
H1724 H 0.11513 0.73437 0.03962 0.0
H1725 H 0.04516 0.69959 0.01005 0.0
H1726 H 0.08268 0.61819 0.92853 0.0
H1727 H 0.0684 0.65573 0.94949 0.0
loop_
_geom_bond_atom_site_label_1
_geom_bond_atom_site_label_2
_geom_bond_distance
_geom_bond_site_symmetry_2
_ccdc_geom_bond_type
C0 C1 1.351 . S
C0 N3 1.368 . S
C0 H5 0.931 . S
C1 C0 1.351 . S
C1 N2 1.373 . S
C1 H29 0.930 . S
N2 C1 1.373 . S
N2 C4 1.340 . S
N3 C0 1.368 . S
N3 C4 1.321 . S
N3 Co6 2.135 . S
C4 N2 1.340 . S
C4 N3 1.321 . S
C4 H28 0.930 . S
H5 C0 0.931 . S
Co6 N3 2.135 . S
Co6 N9 2.121 . S
Co6 O14 2.055 . S
Co6 O17 2.039 . S
Co6 N20 2.140 . S
C7 O8 1.227 . S
C7 O17 1.265 . S
O8 C7 1.227 . S
N9 Co6 2.121 . S
N9 C11 1.375 . S
N9 C12 1.313 . S
C10 C11 1.338 . S
C10 N13 1.377 . S
C10 H30 0.930 . S
C11 N9 1.375 . S
C11 C10 1.338 . S
C11 H15 0.931 . S
C12 N9 1.313 . S
C12 N13 1.344 . S
C12 H16 0.930 . S
N13 C10 1.377 . S
N13 C12 1.344 . S
O14 Co6 2.055 . S
O14 C18 1.253 . S
H15 C11 0.931 . S
H16 C12 0.930 . S
O17 Co6 2.039 . S
O17 C7 1.265 . S
C18 O14 1.253 . S
C18 O19 1.227 . S
O19 C18 1.227 . S
N20 Co6 2.140 . S
N20 C23 1.346 . S
N20 C24 1.345 . S
C21 C22 1.387 . S
C21 C25 1.391 . S
C22 C21 1.387 . S
C22 C23 1.369 . S
C22 H31 0.929 . S
C23 N20 1.346 . S
C23 C22 1.369 . S
C23 H26 0.928 . S
C24 N20 1.345 . S
C24 C25 1.371 . S
C24 H27 0.931 . S
C25 C21 1.391 . S
C25 C24 1.371 . S
C25 H32 0.930 . S
H26 C23 0.928 . S
H27 C24 0.931 . S
H28 C4 0.930 . S
H29 C1 0.930 . S
H30 C10 0.930 . S
H31 C22 0.929 . S
H32 C25 0.930 . S
C33 C34 1.351 . S
C33 N36 1.368 . S
C33 H38 0.931 . S
C34 C33 1.351 . S
C34 N35 1.373 . S
C34 H62 0.930 . S
N35 C34 1.373 . S
N35 C37 1.340 . S
N36 C33 1.368 . S
N36 C37 1.321 . S
N36 Co39 2.135 . S
C37 N35 1.340 . S
C37 N36 1.321 . S
C37 H61 0.930 . S
H38 C33 0.931 . S
Co39 N36 2.135 . S
Co39 N42 2.121 . S
Co39 O47 2.055 . S
Co39 O50 2.039 . S
Co39 N53 2.140 . S
C40 O41 1.227 . S
C40 O50 1.265 . S
O41 C40 1.227 . S
N42 Co39 2.121 . S
N42 C44 1.375 . S
N42 C45 1.313 . S
C43 C44 1.338 . S
C43 N46 1.377 . S
C43 H63 0.930 . S
C44 N42 1.375 . S
C44 C43 1.338 . S
C44 H48 0.931 . S
C45 N42 1.313 . S
C45 N46 1.344 . S
C45 H49 0.930 . S
N46 C43 1.377 . S
N46 C45 1.344 . S
O47 Co39 2.055 . S
O47 C51 1.253 . S
H48 C44 0.931 . S
H49 C45 0.930 . S
O50 Co39 2.039 . S
O50 C40 1.265 . S
C51 O47 1.253 . S
C51 O52 1.227 . S
O52 C51 1.227 . S
N53 Co39 2.140 . S
N53 C56 1.346 . S
N53 C57 1.345 . S
C54 C55 1.387 . S
C54 C58 1.391 . S
C55 C54 1.387 . S
C55 C56 1.369 . S
C55 H64 0.929 . S
C56 N53 1.346 . S
C56 C55 1.369 . S
C56 H59 0.928 . S
C57 N53 1.345 . S
C57 C58 1.371 . S
C57 H60 0.931 . S
C58 C54 1.391 . S
C58 C57 1.371 . S
C58 H65 0.930 . S
H59 C56 0.928 . S
H60 C57 0.931 . S
H61 C37 0.930 . S
H62 C34 0.930 . S
H63 C43 0.930 . S
H64 C55 0.929 . S
H65 C58 0.930 . S
C66 C67 1.351 . S
C66 N69 1.368 . S
C66 H71 0.931 . S
C67 C66 1.351 . S
C67 N68 1.373 1_655 S
C67 H95 0.930 . S
N68 C67 1.373 1_455 S
N68 C70 1.340 . S
N69 C66 1.368 . S
N69 C70 1.321 1_655 S
N69 Co72 2.135 . S
C70 N68 1.340 . S
C70 N69 1.321 1_455 S
C70 H94 0.930 . S
H71 C66 0.931 . S
Co72 N69 2.135 . S
Co72 N75 2.121 . S
Co72 O80 2.055 . S
Co72 O83 2.039 . S
Co72 N86 2.140 . S
C73 O74 1.227 . S
C73 O83 1.265 1_455 S
O74 C73 1.227 . S
N75 Co72 2.121 . S
N75 C77 1.375 . S
N75 C78 1.313 . S
C76 C77 1.338 . S
C76 N79 1.377 . S
C76 H96 0.930 . S
C77 N75 1.375 . S
C77 C76 1.338 . S
C77 H81 0.931 . S
C78 N75 1.313 . S
C78 N79 1.344 . S
C78 H82 0.930 . S
N79 C76 1.377 . S
N79 C78 1.344 . S
O80 Co72 2.055 . S
O80 C84 1.253 . S
H81 C77 0.931 . S
H82 C78 0.930 . S
O83 Co72 2.039 . S
O83 C73 1.265 1_655 S
C84 O80 1.253 . S
C84 O85 1.227 . S
O85 C84 1.227 . S
N86 Co72 2.140 . S
N86 C89 1.346 . S
N86 C90 1.345 . S
C87 C88 1.387 . S
C87 C91 1.391 . S
C88 C87 1.387 . S
C88 C89 1.369 . S
C88 H97 0.929 . S
C89 N86 1.346 . S
C89 C88 1.369 . S
C89 H92 0.928 . S
C90 N86 1.345 . S
C90 C91 1.371 . S
C90 H93 0.931 . S
C91 C87 1.391 . S
C91 C90 1.371 . S
C91 H98 0.930 . S
H92 C89 0.928 . S
H93 C90 0.931 . S
H94 C70 0.930 . S
H95 C67 0.930 . S
H96 C76 0.930 . S
H97 C88 0.929 . S
H98 C91 0.930 . S
C99 C100 1.351 . S
C99 N102 1.368 . S
C99 H104 0.931 . S
C100 C99 1.351 . S
C100 N101 1.373 1_565 S
C100 H128 0.930 . S
N101 C100 1.373 1_545 S
N101 C103 1.340 . S
N102 C99 1.368 . S
N102 C103 1.321 1_565 S
N102 Co105 2.135 . S
C103 N101 1.340 . S
C103 N102 1.321 1_545 S
C103 H127 0.930 . S
H104 C99 0.931 . S
Co105 N102 2.135 . S
Co105 N108 2.121 . S
Co105 O113 2.055 . S
Co105 O116 2.039 . S
Co105 N119 2.140 . S
C106 O107 1.227 . S
C106 O116 1.265 1_545 S
O107 C106 1.227 . S
N108 Co105 2.121 . S
N108 C110 1.375 . S
N108 C111 1.313 . S
C109 C110 1.338 . S
C109 N112 1.377 . S
C109 H129 0.930 . S
C110 N108 1.375 . S
C110 C109 1.338 . S
C110 H114 0.931 . S
C111 N108 1.313 . S
C111 N112 1.344 . S
C111 H115 0.930 . S
N112 C109 1.377 . S
N112 C111 1.344 . S
O113 Co105 2.055 . S
O113 C117 1.253 . S
H114 C110 0.931 . S
H115 C111 0.930 . S
O116 Co105 2.039 . S
O116 C106 1.265 1_565 S
C117 O113 1.253 . S
C117 O118 1.227 . S
O118 C117 1.227 . S
N119 Co105 2.140 . S
N119 C122 1.346 . S
N119 C123 1.345 . S
C120 C121 1.387 . S
C120 C124 1.391 . S
C121 C120 1.387 . S
C121 C122 1.369 . S
C121 H130 0.929 . S
C122 N119 1.346 . S
C122 C121 1.369 . S
C122 H125 0.928 . S
C123 N119 1.345 . S
C123 C124 1.371 . S
C123 H126 0.931 . S
C124 C120 1.391 . S
C124 C123 1.371 . S
C124 H131 0.930 . S
H125 C122 0.928 . S
H126 C123 0.931 . S
H127 C103 0.930 . S
H128 C100 0.930 . S
H129 C109 0.930 . S
H130 C121 0.929 . S
H131 C124 0.930 . S
C132 C133 1.351 . S
C132 N135 1.368 . S
C132 H137 0.931 . S
C133 C132 1.351 . S
C133 N134 1.373 1_455 S
C133 H161 0.930 . S
N134 C133 1.373 1_655 S
N134 C136 1.340 . S
N135 C132 1.368 . S
N135 C136 1.321 1_455 S
N135 Co138 2.135 . S
C136 N134 1.340 . S
C136 N135 1.321 1_655 S
C136 H160 0.930 . S
H137 C132 0.931 . S
Co138 N135 2.135 . S
Co138 N141 2.121 . S
Co138 O146 2.055 . S
Co138 O149 2.039 . S
Co138 N152 2.140 . S
C139 O140 1.227 . S
C139 O149 1.265 1_655 S
O140 C139 1.227 . S
N141 Co138 2.121 . S
N141 C143 1.375 . S
N141 C144 1.313 . S
C142 C143 1.338 . S
C142 N145 1.377 . S
C142 H162 0.930 . S
C143 N141 1.375 . S
C143 C142 1.338 . S
C143 H147 0.931 . S
C144 N141 1.313 . S
C144 N145 1.344 . S
C144 H148 0.930 . S
N145 C142 1.377 . S
N145 C144 1.344 . S
O146 Co138 2.055 . S
O146 C150 1.253 . S
H147 C143 0.931 . S
H148 C144 0.930 . S
O149 Co138 2.039 . S
O149 C139 1.265 1_455 S
C150 O146 1.253 . S
C150 O151 1.227 . S
O151 C150 1.227 . S
N152 Co138 2.140 . S
N152 C155 1.346 . S
N152 C156 1.345 . S
C153 C154 1.387 . S
C153 C157 1.391 . S
C154 C153 1.387 . S
C154 C155 1.369 . S
C154 H163 0.929 . S
C155 N152 1.346 . S
C155 C154 1.369 . S
C155 H158 0.928 . S
C156 N152 1.345 . S
C156 C157 1.371 . S
C156 H159 0.931 . S
C157 C153 1.391 . S
C157 C156 1.371 . S
C157 H164 0.930 . S
H158 C155 0.928 . S
H159 C156 0.931 . S
H160 C136 0.930 . S
H161 C133 0.930 . S
H162 C142 0.930 . S
H163 C154 0.929 . S
H164 C157 0.930 . S
C165 C166 1.351 . S
C165 N168 1.368 . S
C165 H170 0.931 . S
C166 C165 1.351 . S
C166 N167 1.373 1_545 S
C166 H194 0.930 . S
N167 C166 1.373 1_565 S
N167 C169 1.340 . S
N168 C165 1.368 . S
N168 C169 1.321 1_545 S
N168 Co171 2.135 . S
C169 N167 1.340 . S
C169 N168 1.321 1_565 S
C169 H193 0.930 . S
H170 C165 0.931 . S
Co171 N168 2.135 . S
Co171 N174 2.121 . S
Co171 O179 2.055 . S
Co171 O182 2.039 . S
Co171 N185 2.140 . S
C172 O173 1.227 . S
C172 O182 1.265 1_565 S
O173 C172 1.227 . S
N174 Co171 2.121 . S
N174 C176 1.375 . S
N174 C177 1.313 . S
C175 C176 1.338 . S
C175 N178 1.377 . S
C175 H195 0.930 . S
C176 N174 1.375 . S
C176 C175 1.338 . S
C176 H180 0.931 . S
C177 N174 1.313 . S
C177 N178 1.344 . S
C177 H181 0.930 . S
N178 C175 1.377 . S
N178 C177 1.344 . S
O179 Co171 2.055 . S
O179 C183 1.253 . S
H180 C176 0.931 . S
H181 C177 0.930 . S
O182 Co171 2.039 . S
O182 C172 1.265 1_545 S
C183 O179 1.253 . S
C183 O184 1.227 . S
O184 C183 1.227 . S
N185 Co171 2.140 . S
N185 C188 1.346 . S
N185 C189 1.345 . S
C186 C187 1.387 . S
C186 C190 1.391 . S
C187 C186 1.387 . S
C187 C188 1.369 . S
C187 H196 0.929 . S
C188 N185 1.346 . S
C188 C187 1.369 . S
C188 H191 0.928 . S
C189 N185 1.345 . S
C189 C190 1.371 . S
C189 H192 0.931 . S
C190 C186 1.391 . S
C190 C189 1.371 . S
C190 H197 0.930 . S
H191 C188 0.928 . S
H192 C189 0.931 . S
H193 C169 0.930 . S
H194 C166 0.930 . S
H195 C175 0.930 . S
H196 C187 0.929 . S
H197 C190 0.930 . S
C198 C199 1.351 . S
C198 N201 1.368 . S
C198 H203 0.931 . S
C199 C198 1.351 . S
C199 N200 1.373 . S
C199 H227 0.930 . S
N200 C199 1.373 . S
N200 C202 1.340 . S
N201 C198 1.368 . S
N201 C202 1.321 . S
N201 Co204 2.135 . S
C202 N200 1.340 . S
C202 N201 1.321 . S
C202 H226 0.930 . S
H203 C198 0.931 . S
Co204 N201 2.135 . S
Co204 N207 2.121 . S
Co204 O212 2.055 . S
Co204 O215 2.039 . S
Co204 N218 2.140 . S
C205 O206 1.227 . S
C205 O215 1.265 . S
O206 C205 1.227 . S
N207 Co204 2.121 . S
N207 C209 1.375 . S
N207 C210 1.313 . S
C208 C209 1.338 . S
C208 N211 1.377 . S
C208 H228 0.930 . S
C209 N207 1.375 . S
C209 C208 1.338 . S
C209 H213 0.931 . S
C210 N207 1.313 . S
C210 N211 1.344 . S
C210 H214 0.930 . S
N211 C208 1.377 . S
N211 C210 1.344 . S
O212 Co204 2.055 . S
O212 C216 1.253 . S
H213 C209 0.931 . S
H214 C210 0.930 . S
O215 Co204 2.039 . S
O215 C205 1.265 . S
C216 O212 1.253 . S
C216 O217 1.227 . S
O217 C216 1.227 . S
N218 Co204 2.140 . S
N218 C221 1.346 . S
N218 C222 1.345 . S
C219 C220 1.387 . S
C219 C223 1.391 . S
C220 C219 1.387 . S
C220 C221 1.369 . S
C220 H229 0.929 . S
C221 N218 1.346 . S
C221 C220 1.369 . S
C221 H224 0.928 . S
C222 N218 1.345 . S
C222 C223 1.371 . S
C222 H225 0.931 . S
C223 C219 1.391 . S
C223 C222 1.371 . S
C223 H230 0.930 . S
H224 C221 0.928 . S
H225 C222 0.931 . S
H226 C202 0.930 . S
H227 C199 0.930 . S
H228 C208 0.930 . S
H229 C220 0.929 . S
H230 C223 0.930 . S
C231 C232 1.351 . S
C231 N234 1.368 . S
C231 H236 0.931 . S
C232 C231 1.351 . S
C232 N233 1.373 . S
C232 H260 0.930 . S
N233 C232 1.373 . S
N233 C235 1.340 . S
N234 C231 1.368 . S
N234 C235 1.321 . S
N234 Co237 2.135 . S
C235 N233 1.340 . S
C235 N234 1.321 . S
C235 H259 0.930 . S
H236 C231 0.931 . S
Co237 N234 2.135 . S
Co237 N240 2.121 . S
Co237 O245 2.055 . S
Co237 O248 2.039 . S
Co237 N251 2.140 . S
C238 O239 1.227 . S
C238 O248 1.265 . S
O239 C238 1.227 . S
N240 Co237 2.121 . S
N240 C242 1.375 . S
N240 C243 1.313 . S
C241 C242 1.338 . S
C241 N244 1.377 . S
C241 H261 0.930 . S
C242 N240 1.375 . S
C242 C241 1.338 . S
C242 H246 0.931 . S
C243 N240 1.313 . S
C243 N244 1.344 . S
C243 H247 0.930 . S
N244 C241 1.377 . S
N244 C243 1.344 . S
O245 Co237 2.055 . S
O245 C249 1.253 . S
H246 C242 0.931 . S
H247 C243 0.930 . S
O248 Co237 2.039 . S
O248 C238 1.265 . S
C249 O245 1.253 . S
C249 O250 1.227 . S
O250 C249 1.227 . S
N251 Co237 2.140 . S
N251 C254 1.346 . S
N251 C255 1.345 . S
C252 C253 1.387 . S
C252 C256 1.391 . S
C253 C252 1.387 . S
C253 C254 1.369 . S
C253 H262 0.929 . S
C254 N251 1.346 . S
C254 C253 1.369 . S
C254 H257 0.928 . S
C255 N251 1.345 . S
C255 C256 1.371 . S
C255 H258 0.931 . S
C256 C252 1.391 . S
C256 C255 1.371 . S
C256 H263 0.930 . S
H257 C254 0.928 . S
H258 C255 0.931 . S
H259 C235 0.930 . S
H260 C232 0.930 . S
H261 C241 0.930 . S
H262 C253 0.929 . S
H263 C256 0.930 . S
C264 C265 1.351 . S
C264 N267 1.368 . S
C264 H269 0.931 . S
C265 C264 1.351 . S
C265 N266 1.373 . S
C265 H293 0.930 . S
N266 C265 1.373 . S
N266 C268 1.340 . S
N267 C264 1.368 . S
N267 C268 1.321 . S
N267 Co270 2.135 . S
C268 N266 1.340 . S
C268 N267 1.321 . S
C268 H292 0.930 . S
H269 C264 0.931 . S
Co270 N267 2.135 . S
Co270 N273 2.121 . S
Co270 O278 2.055 . S
Co270 O281 2.039 . S
Co270 N284 2.140 . S
C271 O272 1.227 . S
C271 O281 1.265 . S
O272 C271 1.227 . S
N273 Co270 2.121 . S
N273 C275 1.375 . S
N273 C276 1.313 . S
C274 C275 1.338 . S
C274 N277 1.377 . S
C274 H294 0.930 . S
C275 N273 1.375 . S
C275 C274 1.338 . S
C275 H279 0.931 . S
C276 N273 1.313 . S
C276 N277 1.344 . S
C276 H280 0.930 . S
N277 C274 1.377 . S
N277 C276 1.344 . S
O278 Co270 2.055 . S
O278 C282 1.253 . S
H279 C275 0.931 . S
H280 C276 0.930 . S
O281 Co270 2.039 . S
O281 C271 1.265 . S
C282 O278 1.253 . S
C282 O283 1.227 . S
O283 C282 1.227 . S
N284 Co270 2.140 . S
N284 C287 1.346 . S
N284 C288 1.345 . S
C285 C286 1.387 . S
C285 C289 1.391 . S
C286 C285 1.387 . S
C286 C287 1.369 . S
C286 H295 0.929 . S
C287 N284 1.346 . S
C287 C286 1.369 . S
C287 H290 0.928 . S
C288 N284 1.345 . S
C288 C289 1.371 . S
C288 H291 0.931 . S
C289 C285 1.391 . S
C289 C288 1.371 . S
C289 H296 0.930 . S
H290 C287 0.928 . S
H291 C288 0.931 . S
H292 C268 0.930 . S
H293 C265 0.930 . S
H294 C274 0.930 . S
H295 C286 0.929 . S
H296 C289 0.930 . S
C297 C298 1.351 . S
C297 N300 1.368 . S
C297 H302 0.931 . S
C298 C297 1.351 . S
C298 N299 1.373 . S
C298 H326 0.930 . S
N299 C298 1.373 . S
N299 C301 1.340 . S
N300 C297 1.368 . S
N300 C301 1.321 . S
N300 Co303 2.135 . S
C301 N299 1.340 . S
C301 N300 1.321 . S
C301 H325 0.930 . S
H302 C297 0.931 . S
Co303 N300 2.135 . S
Co303 N306 2.121 . S
Co303 O311 2.055 . S
Co303 O314 2.039 . S
Co303 N317 2.140 . S
C304 O305 1.227 . S
C304 O314 1.265 . S
O305 C304 1.227 . S
N306 Co303 2.121 . S
N306 C308 1.375 . S
N306 C309 1.313 . S
C307 C308 1.338 . S
C307 N310 1.377 . S
C307 H327 0.930 . S
C308 N306 1.375 . S
C308 C307 1.338 . S
C308 H312 0.931 . S
C309 N306 1.313 . S
C309 N310 1.344 . S
C309 H313 0.930 . S
N310 C307 1.377 . S
N310 C309 1.344 . S
O311 Co303 2.055 . S
O311 C315 1.253 . S
H312 C308 0.931 . S
H313 C309 0.930 . S
O314 Co303 2.039 . S
O314 C304 1.265 . S
C315 O311 1.253 . S
C315 O316 1.227 . S
O316 C315 1.227 . S
N317 Co303 2.140 . S
N317 C320 1.346 . S
N317 C321 1.345 . S
C318 C319 1.387 . S
C318 C322 1.391 . S
C319 C318 1.387 . S
C319 C320 1.369 . S
C319 H328 0.929 . S
C320 N317 1.346 . S
C320 C319 1.369 . S
C320 H323 0.928 . S
C321 N317 1.345 . S
C321 C322 1.371 . S
C321 H324 0.931 . S
C322 C318 1.391 . S
C322 C321 1.371 . S
C322 H329 0.930 . S
H323 C320 0.928 . S
H324 C321 0.931 . S
H325 C301 0.930 . S
H326 C298 0.930 . S
H327 C307 0.930 . S
H328 C319 0.929 . S
H329 C322 0.930 . S
C330 C331 1.351 . S
C330 N333 1.368 . S
C330 H335 0.931 . S
C331 C330 1.351 . S
C331 N332 1.373 1_455 S
C331 H359 0.930 . S
N332 C331 1.373 1_655 S
N332 C334 1.340 . S
N333 C330 1.368 . S
N333 C334 1.321 1_455 S
N333 Co336 2.135 . S
C334 N332 1.340 . S
C334 N333 1.321 1_655 S
C334 H358 0.930 . S
H335 C330 0.931 . S
Co336 N333 2.135 . S
Co336 N339 2.121 . S
Co336 O344 2.055 . S
Co336 O347 2.039 . S
Co336 N350 2.140 . S
C337 O338 1.227 . S
C337 O347 1.265 1_655 S
O338 C337 1.227 . S
N339 Co336 2.121 . S
N339 C341 1.375 . S
N339 C342 1.313 . S
C340 C341 1.338 . S
C340 N343 1.377 . S
C340 H360 0.930 . S
C341 N339 1.375 . S
C341 C340 1.338 . S
C341 H345 0.931 . S
C342 N339 1.313 . S
C342 N343 1.344 . S
C342 H346 0.930 . S
N343 C340 1.377 . S
N343 C342 1.344 . S
O344 Co336 2.055 . S
O344 C348 1.253 . S
H345 C341 0.931 . S
H346 C342 0.930 . S
O347 Co336 2.039 . S
O347 C337 1.265 1_455 S
C348 O344 1.253 . S
C348 O349 1.227 . S
O349 C348 1.227 . S
N350 Co336 2.140 . S
N350 C353 1.346 . S
N350 C354 1.345 . S
C351 C352 1.387 . S
C351 C355 1.391 . S
C352 C351 1.387 . S
C352 C353 1.369 . S
C352 H361 0.929 . S
C353 N350 1.346 . S
C353 C352 1.369 . S
C353 H356 0.928 . S
C354 N350 1.345 . S
C354 C355 1.371 . S
C354 H357 0.931 . S
C355 C351 1.391 . S
C355 C354 1.371 . S
C355 H362 0.930 . S
H356 C353 0.928 . S
H357 C354 0.931 . S
H358 C334 0.930 . S
H359 C331 0.930 . S
H360 C340 0.930 . S
H361 C352 0.929 . S
H362 C355 0.930 . S
C363 C364 1.351 . S
C363 N366 1.368 . S
C363 H368 0.931 . S
C364 C363 1.351 . S
C364 N365 1.373 1_545 S
C364 H392 0.930 . S
N365 C364 1.373 1_565 S
N365 C367 1.340 . S
N366 C363 1.368 . S
N366 C367 1.321 1_545 S
N366 Co369 2.135 . S
C367 N365 1.340 . S
C367 N366 1.321 1_565 S
C367 H391 0.930 . S
H368 C363 0.931 . S
Co369 N366 2.135 . S
Co369 N372 2.121 . S
Co369 O377 2.055 . S
Co369 O380 2.039 . S
Co369 N383 2.140 . S
C370 O371 1.227 . S
C370 O380 1.265 1_565 S
O371 C370 1.227 . S
N372 Co369 2.121 . S
N372 C374 1.375 . S
N372 C375 1.313 . S
C373 C374 1.338 . S
C373 N376 1.377 . S
C373 H393 0.930 . S
C374 N372 1.375 . S
C374 C373 1.338 . S
C374 H378 0.931 . S
C375 N372 1.313 . S
C375 N376 1.344 . S
C375 H379 0.930 . S
N376 C373 1.377 . S
N376 C375 1.344 . S
O377 Co369 2.055 . S
O377 C381 1.253 . S
H378 C374 0.931 . S
H379 C375 0.930 . S
O380 Co369 2.039 . S
O380 C370 1.265 1_545 S
C381 O377 1.253 . S
C381 O382 1.227 . S
O382 C381 1.227 . S
N383 Co369 2.140 . S
N383 C386 1.346 . S
N383 C387 1.345 . S
C384 C385 1.387 . S
C384 C388 1.391 . S
C385 C384 1.387 . S
C385 C386 1.369 . S
C385 H394 0.929 . S
C386 N383 1.346 . S
C386 C385 1.369 . S
C386 H389 0.928 . S
C387 N383 1.345 . S
C387 C388 1.371 . S
C387 H390 0.931 . S
C388 C384 1.391 . S
C388 C387 1.371 . S
C388 H395 0.930 . S
H389 C386 0.928 . S
H390 C387 0.931 . S
H391 C367 0.930 . S
H392 C364 0.930 . S
H393 C373 0.930 . S
H394 C385 0.929 . S
H395 C388 0.930 . S
C396 C397 1.351 . S
C396 N399 1.368 . S
C396 H401 0.931 . S
C397 C396 1.351 . S
C397 N398 1.373 1_655 S
C397 H425 0.930 . S
N398 C397 1.373 1_455 S
N398 C400 1.340 . S
N399 C396 1.368 . S
N399 C400 1.321 1_655 S
N399 Co402 2.135 . S
C400 N398 1.340 . S
C400 N399 1.321 1_455 S
C400 H424 0.930 . S
H401 C396 0.931 . S
Co402 N399 2.135 . S
Co402 N405 2.121 . S
Co402 O410 2.055 . S
Co402 O413 2.039 . S
Co402 N416 2.140 . S
C403 O404 1.227 . S
C403 O413 1.265 1_455 S
O404 C403 1.227 . S
N405 Co402 2.121 . S
N405 C407 1.375 . S
N405 C408 1.313 . S
C406 C407 1.338 . S
C406 N409 1.377 . S
C406 H426 0.930 . S
C407 N405 1.375 . S
C407 C406 1.338 . S
C407 H411 0.931 . S
C408 N405 1.313 . S
C408 N409 1.344 . S
C408 H412 0.930 . S
N409 C406 1.377 . S
N409 C408 1.344 . S
O410 Co402 2.055 . S
O410 C414 1.253 . S
H411 C407 0.931 . S
H412 C408 0.930 . S
O413 Co402 2.039 . S
O413 C403 1.265 1_655 S
C414 O410 1.253 . S
C414 O415 1.227 . S
O415 C414 1.227 . S
N416 Co402 2.140 . S
N416 C419 1.346 . S
N416 C420 1.345 . S
C417 C418 1.387 . S
C417 C421 1.391 . S
C418 C417 1.387 . S
C418 C419 1.369 . S
C418 H427 0.929 . S
C419 N416 1.346 . S
C419 C418 1.369 . S
C419 H422 0.928 . S
C420 N416 1.345 . S
C420 C421 1.371 . S
C420 H423 0.931 . S
C421 C417 1.391 . S
C421 C420 1.371 . S
C421 H428 0.930 . S
H422 C419 0.928 . S
H423 C420 0.931 . S
H424 C400 0.930 . S
H425 C397 0.930 . S
H426 C406 0.930 . S
H427 C418 0.929 . S
H428 C421 0.930 . S
C429 C430 1.351 . S
C429 N432 1.368 . S
C429 H434 0.931 . S
C430 C429 1.351 . S
C430 N431 1.373 1_565 S
C430 H458 0.930 . S
N431 C430 1.373 1_545 S
N431 C433 1.340 . S
N432 C429 1.368 . S
N432 C433 1.321 1_565 S
N432 Co435 2.135 . S
C433 N431 1.340 . S
C433 N432 1.321 1_545 S
C433 H457 0.930 . S
H434 C429 0.931 . S
Co435 N432 2.135 . S
Co435 N438 2.121 . S
Co435 O443 2.055 . S
Co435 O446 2.039 . S
Co435 N449 2.140 . S
C436 O437 1.227 . S
C436 O446 1.265 1_545 S
O437 C436 1.227 . S
N438 Co435 2.121 . S
N438 C440 1.375 . S
N438 C441 1.313 . S
C439 C440 1.338 . S
C439 N442 1.377 . S
C439 H459 0.930 . S
C440 N438 1.375 . S
C440 C439 1.338 . S
C440 H444 0.931 . S
C441 N438 1.313 . S
C441 N442 1.344 . S
C441 H445 0.930 . S
N442 C439 1.377 . S
N442 C441 1.344 . S
O443 Co435 2.055 . S
O443 C447 1.253 . S
H444 C440 0.931 . S
H445 C441 0.930 . S
O446 Co435 2.039 . S
O446 C436 1.265 1_565 S
C447 O443 1.253 . S
C447 O448 1.227 . S
O448 C447 1.227 . S
N449 Co435 2.140 . S
N449 C452 1.346 . S
N449 C453 1.345 . S
C450 C451 1.387 . S
C450 C454 1.391 . S
C451 C450 1.387 . S
C451 C452 1.369 . S
C451 H460 0.929 . S
C452 N449 1.346 . S
C452 C451 1.369 . S
C452 H455 0.928 . S
C453 N449 1.345 . S
C453 C454 1.371 . S
C453 H456 0.931 . S
C454 C450 1.391 . S
C454 C453 1.371 . S
C454 H461 0.930 . S
H455 C452 0.928 . S
H456 C453 0.931 . S
H457 C433 0.930 . S
H458 C430 0.930 . S
H459 C439 0.930 . S
H460 C451 0.929 . S
H461 C454 0.930 . S
C462 C463 1.351 . S
C462 N465 1.368 . S
C462 H467 0.931 . S
C463 C462 1.351 . S
C463 N464 1.373 . S
C463 H491 0.930 . S
N464 C463 1.373 . S
N464 C466 1.340 . S
N465 C462 1.368 . S
N465 C466 1.321 . S
N465 Co468 2.135 . S
C466 N464 1.340 . S
C466 N465 1.321 . S
C466 H490 0.930 . S
H467 C462 0.931 . S
Co468 N465 2.135 . S
Co468 N471 2.121 . S
Co468 O476 2.055 . S
Co468 O479 2.039 . S
Co468 N482 2.140 . S
C469 O470 1.227 . S
C469 O479 1.265 . S
O470 C469 1.227 . S
N471 Co468 2.121 . S
N471 C473 1.375 . S
N471 C474 1.313 . S
C472 C473 1.338 . S
C472 N475 1.377 . S
C472 H492 0.930 . S
C473 N471 1.375 . S
C473 C472 1.338 . S
C473 H477 0.931 . S
C474 N471 1.313 . S
C474 N475 1.344 . S
C474 H478 0.930 . S
N475 C472 1.377 . S
N475 C474 1.344 . S
O476 Co468 2.055 . S
O476 C480 1.253 . S
H477 C473 0.931 . S
H478 C474 0.930 . S
O479 Co468 2.039 . S
O479 C469 1.265 . S
C480 O476 1.253 . S
C480 O481 1.227 . S
O481 C480 1.227 . S
N482 Co468 2.140 . S
N482 C485 1.346 . S
N482 C486 1.345 . S
C483 C484 1.387 . S
C483 C487 1.391 . S
C484 C483 1.387 . S
C484 C485 1.369 . S
C484 H493 0.929 . S
C485 N482 1.346 . S
C485 C484 1.369 . S
C485 H488 0.928 . S
C486 N482 1.345 . S
C486 C487 1.371 . S
C486 H489 0.931 . S
C487 C483 1.391 . S
C487 C486 1.371 . S
C487 H494 0.930 . S
H488 C485 0.928 . S
H489 C486 0.931 . S
H490 C466 0.930 . S
H491 C463 0.930 . S
H492 C472 0.930 . S
H493 C484 0.929 . S
H494 C487 0.930 . S
C495 C496 1.351 . S
C495 N498 1.368 . S
C495 H500 0.931 . S
C496 C495 1.351 . S
C496 N497 1.373 . S
C496 H524 0.930 . S
N497 C496 1.373 . S
N497 C499 1.340 . S
N498 C495 1.368 . S
N498 C499 1.321 . S
N498 Co501 2.135 . S
C499 N497 1.340 . S
C499 N498 1.321 . S
C499 H523 0.930 . S
H500 C495 0.931 . S
Co501 N498 2.135 . S
Co501 N504 2.121 . S
Co501 O509 2.055 . S
Co501 O512 2.039 . S
Co501 N515 2.140 . S
C502 O503 1.227 . S
C502 O512 1.265 . S
O503 C502 1.227 . S
N504 Co501 2.121 . S
N504 C506 1.375 . S
N504 C507 1.313 . S
C505 C506 1.338 . S
C505 N508 1.377 . S
C505 H525 0.930 . S
C506 N504 1.375 . S
C506 C505 1.338 . S
C506 H510 0.931 . S
C507 N504 1.313 . S
C507 N508 1.344 . S
C507 H511 0.930 . S
N508 C505 1.377 . S
N508 C507 1.344 . S
O509 Co501 2.055 . S
O509 C513 1.253 . S
H510 C506 0.931 . S
H511 C507 0.930 . S
O512 Co501 2.039 . S
O512 C502 1.265 . S
C513 O509 1.253 . S
C513 O514 1.227 . S
O514 C513 1.227 . S
N515 Co501 2.140 . S
N515 C518 1.346 . S
N515 C519 1.345 . S
C516 C517 1.387 . S
C516 C520 1.391 . S
C517 C516 1.387 . S
C517 C518 1.369 . S
C517 H526 0.929 . S
C518 N515 1.346 . S
C518 C517 1.369 . S
C518 H521 0.928 . S
C519 N515 1.345 . S
C519 C520 1.371 . S
C519 H522 0.931 . S
C520 C516 1.391 . S
C520 C519 1.371 . S
C520 H527 0.930 . S
H521 C518 0.928 . S
H522 C519 0.931 . S
H523 C499 0.930 . S
H524 C496 0.930 . S
H525 C505 0.930 . S
H526 C517 0.929 . S
H527 C520 0.930 . S
C528 C529 1.349 . S
C528 C530 1.327 . S
C528 H553 0.950 . S
C529 C528 1.349 . S
C529 C545 1.349 . S
C530 C528 1.327 . S
C530 C549 1.429 . S
C530 H554 0.950 . S
C531 C548 1.574 . S
C531 C550 1.368 . S
C531 H555 0.949 . S
H532 C536 0.949 . S
C533 C534 1.349 . S
C533 C535 1.327 . S
C533 H556 0.950 . S
C534 C533 1.349 . S
C534 C546 1.349 . S
C535 C533 1.327 . S
C535 C551 1.429 . S
C535 H557 0.950 . S
C536 H532 0.949 . S
C536 C544 1.574 . S
C536 C552 1.368 . S
H537 C545 0.950 . S
H538 C543 0.950 . S
H539 C544 0.949 . S
H540 C546 0.950 . S
H541 C547 0.950 . S
H542 C548 0.949 . S
C543 H538 0.950 . S
C543 C545 1.327 . S
C543 C549 1.429 . S
C544 C536 1.574 . S
C544 H539 0.949 . S
C544 C550 1.368 . S
C545 C529 1.349 . S
C545 H537 0.950 . S
C545 C543 1.327 . S
C546 C534 1.349 . S
C546 H540 0.950 . S
C546 C547 1.327 . S
C547 H541 0.950 . S
C547 C546 1.327 . S
C547 C551 1.429 . S
C548 C531 1.574 . S
C548 H542 0.949 . S
C548 C552 1.368 . S
C549 C530 1.429 . S
C549 C543 1.429 . S
C549 C550 1.523 . S
C550 C531 1.368 . S
C550 C544 1.368 . S
C550 C549 1.523 . S
C551 C535 1.429 . S
C551 C547 1.429 . S
C551 C552 1.523 . S
C552 C536 1.368 . S
C552 C548 1.368 . S
C552 C551 1.523 . S
H553 C528 0.950 . S
H554 C530 0.950 . S
H555 C531 0.949 . S
H556 C533 0.950 . S
H557 C535 0.950 . S
C558 C559 1.349 . S
C558 C560 1.327 . S
C558 H583 0.950 . S
C559 C558 1.349 . S
C559 C575 1.349 . S
C560 C558 1.327 . S
C560 C579 1.429 . S
C560 H584 0.950 . S
C561 C578 1.574 . S
C561 C580 1.368 . S
C561 H585 0.949 . S
H562 C566 0.949 . S
C563 C564 1.349 . S
C563 C565 1.327 . S
C563 H586 0.950 . S
C564 C563 1.349 . S
C564 C576 1.349 . S
C565 C563 1.327 . S
C565 C581 1.429 . S
C565 H587 0.950 . S
C566 H562 0.949 . S
C566 C574 1.574 . S
C566 C582 1.368 . S
H567 C575 0.950 . S
H568 C573 0.950 . S
H569 C574 0.949 . S
H570 C576 0.950 . S
H571 C577 0.950 . S
H572 C578 0.949 . S
C573 H568 0.950 . S
C573 C575 1.327 . S
C573 C579 1.429 . S
C574 C566 1.574 . S
C574 H569 0.949 . S
C574 C580 1.368 . S
C575 C559 1.349 . S
C575 H567 0.950 . S
C575 C573 1.327 . S
C576 C564 1.349 . S
C576 H570 0.950 . S
C576 C577 1.327 . S
C577 H571 0.950 . S
C577 C576 1.327 . S
C577 C581 1.429 . S
C578 C561 1.574 . S
C578 H572 0.949 . S
C578 C582 1.368 . S
C579 C560 1.429 . S
C579 C573 1.429 . S
C579 C580 1.523 . S
C580 C561 1.368 . S
C580 C574 1.368 . S
C580 C579 1.523 . S
C581 C565 1.429 . S
C581 C577 1.429 . S
C581 C582 1.523 . S
C582 C566 1.368 . S
C582 C578 1.368 . S
C582 C581 1.523 . S
H583 C558 0.950 . S
H584 C560 0.950 . S
H585 C561 0.949 . S
H586 C563 0.950 . S
H587 C565 0.950 . S
C588 C589 1.349 . S
C588 C590 1.327 . S
C588 H613 0.950 . S
C589 C588 1.349 . S
C589 C605 1.349 . S
C590 C588 1.327 . S
C590 C609 1.429 . S
C590 H614 0.950 . S
C591 C608 1.574 . S
C591 C610 1.368 . S
C591 H615 0.949 . S
H592 C596 0.949 . S
C593 C594 1.349 . S
C593 C595 1.327 . S
C593 H616 0.950 . S
C594 C593 1.349 . S
C594 C606 1.349 . S
C595 C593 1.327 . S
C595 C611 1.429 . S
C595 H617 0.950 . S
C596 H592 0.949 . S
C596 C604 1.574 . S
C596 C612 1.368 . S
H597 C605 0.950 . S
H598 C603 0.950 . S
H599 C604 0.949 . S
H600 C606 0.950 . S
H601 C607 0.950 . S
H602 C608 0.949 . S
C603 H598 0.950 . S
C603 C605 1.327 . S
C603 C609 1.429 . S
C604 C596 1.574 . S
C604 H599 0.949 . S
C604 C610 1.368 . S
C605 C589 1.349 . S
C605 H597 0.950 . S
C605 C603 1.327 . S
C606 C594 1.349 . S
C606 H600 0.950 . S
C606 C607 1.327 . S
C607 H601 0.950 . S
C607 C606 1.327 . S
C607 C611 1.429 . S
C608 C591 1.574 . S
C608 H602 0.949 . S
C608 C612 1.368 . S
C609 C590 1.429 . S
C609 C603 1.429 . S
C609 C610 1.523 . S
C610 C591 1.368 . S
C610 C604 1.368 . S
C610 C609 1.523 . S
C611 C595 1.429 . S
C611 C607 1.429 . S
C611 C612 1.523 . S
C612 C596 1.368 . S
C612 C608 1.368 . S
C612 C611 1.523 . S
H613 C588 0.950 . S
H614 C590 0.950 . S
H615 C591 0.949 . S
H616 C593 0.950 . S
H617 C595 0.950 . S
C618 C619 1.349 . S
C618 C620 1.327 . S
C618 H643 0.950 . S
C619 C618 1.349 . S
C619 C635 1.349 . S
C620 C618 1.327 . S
C620 C639 1.429 . S
C620 H644 0.950 . S
C621 C638 1.574 . S
C621 C640 1.368 . S
C621 H645 0.949 . S
H622 C626 0.949 . S
C623 C624 1.349 . S
C623 C625 1.327 . S
C623 H646 0.950 . S
C624 C623 1.349 . S
C624 C636 1.349 . S
C625 C623 1.327 . S
C625 C641 1.429 . S
C625 H647 0.950 . S
C626 H622 0.949 . S
C626 C634 1.574 . S
C626 C642 1.368 . S
H627 C635 0.950 . S
H628 C633 0.950 . S
H629 C634 0.949 . S
H630 C636 0.950 . S
H631 C637 0.950 . S
H632 C638 0.949 . S
C633 H628 0.950 . S
C633 C635 1.327 . S
C633 C639 1.429 . S
C634 C626 1.574 . S
C634 H629 0.949 . S
C634 C640 1.368 . S
C635 C619 1.349 . S
C635 H627 0.950 . S
C635 C633 1.327 . S
C636 C624 1.349 . S
C636 H630 0.950 . S
C636 C637 1.327 . S
C637 H631 0.950 . S
C637 C636 1.327 . S
C637 C641 1.429 . S
C638 C621 1.574 . S
C638 H632 0.949 . S
C638 C642 1.368 . S
C639 C620 1.429 . S
C639 C633 1.429 . S
C639 C640 1.523 . S
C640 C621 1.368 . S
C640 C634 1.368 . S
C640 C639 1.523 . S
C641 C625 1.429 . S
C641 C637 1.429 . S
C641 C642 1.523 . S
C642 C626 1.368 . S
C642 C638 1.368 . S
C642 C641 1.523 . S
H643 C618 0.950 . S
H644 C620 0.950 . S
H645 C621 0.949 . S
H646 C623 0.950 . S
H647 C625 0.950 . S
C648 C649 1.349 . S
C648 C650 1.327 . S
C648 H673 0.950 . S
C649 C648 1.349 . S
C649 C665 1.349 . S
C650 C648 1.327 . S
C650 C669 1.429 . S
C650 H674 0.950 . S
C651 C668 1.574 . S
C651 C670 1.368 . S
C651 H675 0.949 . S
H652 C656 0.949 . S
C653 C654 1.349 . S
C653 C655 1.327 . S
C653 H676 0.950 . S
C654 C653 1.349 . S
C654 C666 1.349 . S
C655 C653 1.327 . S
C655 C671 1.429 . S
C655 H677 0.950 . S
C656 H652 0.949 . S
C656 C664 1.574 . S
C656 C672 1.368 . S
H657 C665 0.950 . S
H658 C663 0.950 . S
H659 C664 0.949 . S
H660 C666 0.950 . S
H661 C667 0.950 . S
H662 C668 0.949 . S
C663 H658 0.950 . S
C663 C665 1.327 . S
C663 C669 1.429 . S
C664 C656 1.574 . S
C664 H659 0.949 . S
C664 C670 1.368 . S
C665 C649 1.349 . S
C665 H657 0.950 . S
C665 C663 1.327 . S
C666 C654 1.349 . S
C666 H660 0.950 . S
C666 C667 1.327 . S
C667 H661 0.950 . S
C667 C666 1.327 . S
C667 C671 1.429 . S
C668 C651 1.574 . S
C668 H662 0.949 . S
C668 C672 1.368 . S
C669 C650 1.429 . S
C669 C663 1.429 . S
C669 C670 1.523 . S
C670 C651 1.368 . S
C670 C664 1.368 . S
C670 C669 1.523 . S
C671 C655 1.429 . S
C671 C667 1.429 . S
C671 C672 1.523 . S
C672 C656 1.368 . S
C672 C668 1.368 . S
C672 C671 1.523 . S
H673 C648 0.950 . S
H674 C650 0.950 . S
H675 C651 0.949 . S
H676 C653 0.950 . S
H677 C655 0.950 . S
C678 C679 1.349 . S
C678 C680 1.327 . S
C678 H703 0.950 . S
C679 C678 1.349 . S
C679 C695 1.349 . S
C680 C678 1.327 . S
C680 C699 1.429 . S
C680 H704 0.950 . S
C681 C698 1.574 . S
C681 C700 1.368 . S
C681 H705 0.949 . S
H682 C686 0.949 . S
C683 C684 1.349 . S
C683 C685 1.327 . S
C683 H706 0.950 . S
C684 C683 1.349 . S
C684 C696 1.349 . S
C685 C683 1.327 . S
C685 C701 1.429 . S
C685 H707 0.950 . S
C686 H682 0.949 . S
C686 C694 1.574 . S
C686 C702 1.368 . S
H687 C695 0.950 . S
H688 C693 0.950 . S
H689 C694 0.949 . S
H690 C696 0.950 . S
H691 C697 0.950 . S
H692 C698 0.949 . S
C693 H688 0.950 . S
C693 C695 1.327 . S
C693 C699 1.429 . S
C694 C686 1.574 . S
C694 H689 0.949 . S
C694 C700 1.368 . S
C695 C679 1.349 . S
C695 H687 0.950 . S
C695 C693 1.327 . S
C696 C684 1.349 . S
C696 H690 0.950 . S
C696 C697 1.327 . S
C697 H691 0.950 . S
C697 C696 1.327 . S
C697 C701 1.429 . S
C698 C681 1.574 . S
C698 H692 0.949 . S
C698 C702 1.368 . S
C699 C680 1.429 . S
C699 C693 1.429 . S
C699 C700 1.523 . S
C700 C681 1.368 . S
C700 C694 1.368 . S
C700 C699 1.523 . S
C701 C685 1.429 . S
C701 C697 1.429 . S
C701 C702 1.523 . S
C702 C686 1.368 . S
C702 C698 1.368 . S
C702 C701 1.523 . S
H703 C678 0.950 . S
H704 C680 0.950 . S
H705 C681 0.949 . S
H706 C683 0.950 . S
H707 C685 0.950 . S
C708 C709 1.349 . S
C708 C710 1.327 . S
C708 H733 0.950 . S
C709 C708 1.349 . S
C709 C725 1.349 . S
C710 C708 1.327 . S
C710 C729 1.429 . S
C710 H734 0.950 . S
C711 C728 1.574 . S
C711 C730 1.368 . S
C711 H735 0.949 . S
H712 C716 0.949 . S
C713 C714 1.349 . S
C713 C715 1.327 . S
C713 H736 0.950 . S
C714 C713 1.349 . S
C714 C726 1.349 . S
C715 C713 1.327 . S
C715 C731 1.429 . S
C715 H737 0.950 . S
C716 H712 0.949 . S
C716 C724 1.574 . S
C716 C732 1.368 . S
H717 C725 0.950 . S
H718 C723 0.950 . S
H719 C724 0.949 . S
H720 C726 0.950 . S
H721 C727 0.950 . S
H722 C728 0.949 . S
C723 H718 0.950 . S
C723 C725 1.327 . S
C723 C729 1.429 . S
C724 C716 1.574 . S
C724 H719 0.949 . S
C724 C730 1.368 . S
C725 C709 1.349 . S
C725 H717 0.950 . S
C725 C723 1.327 . S
C726 C714 1.349 . S
C726 H720 0.950 . S
C726 C727 1.327 . S
C727 H721 0.950 . S
C727 C726 1.327 . S
C727 C731 1.429 . S
C728 C711 1.574 . S
C728 H722 0.949 . S
C728 C732 1.368 . S
C729 C710 1.429 . S
C729 C723 1.429 . S
C729 C730 1.523 . S
C730 C711 1.368 . S
C730 C724 1.368 . S
C730 C729 1.523 . S
C731 C715 1.429 . S
C731 C727 1.429 . S
C731 C732 1.523 . S
C732 C716 1.368 . S
C732 C728 1.368 . S
C732 C731 1.523 . S
H733 C708 0.950 . S
H734 C710 0.950 . S
H735 C711 0.949 . S
H736 C713 0.950 . S
H737 C715 0.950 . S
C738 C739 1.349 . S
C738 C740 1.327 . S
C738 H763 0.950 . S
C739 C738 1.349 . S
C739 C755 1.349 . S
C740 C738 1.327 . S
C740 C759 1.429 . S
C740 H764 0.950 . S
C741 C758 1.574 . S
C741 C760 1.368 . S
C741 H765 0.949 . S
H742 C746 0.949 . S
C743 C744 1.349 . S
C743 C745 1.327 . S
C743 H766 0.950 . S
C744 C743 1.349 . S
C744 C756 1.349 . S
C745 C743 1.327 . S
C745 C761 1.429 . S
C745 H767 0.950 . S
C746 H742 0.949 . S
C746 C754 1.574 . S
C746 C762 1.368 . S
H747 C755 0.950 . S
H748 C753 0.950 . S
H749 C754 0.949 . S
H750 C756 0.950 . S
H751 C757 0.950 . S
H752 C758 0.949 . S
C753 H748 0.950 . S
C753 C755 1.327 . S
C753 C759 1.429 . S
C754 C746 1.574 . S
C754 H749 0.949 . S
C754 C760 1.368 . S
C755 C739 1.349 . S
C755 H747 0.950 . S
C755 C753 1.327 . S
C756 C744 1.349 . S
C756 H750 0.950 . S
C756 C757 1.327 . S
C757 H751 0.950 . S
C757 C756 1.327 . S
C757 C761 1.429 . S
C758 C741 1.574 . S
C758 H752 0.949 . S
C758 C762 1.368 . S
C759 C740 1.429 . S
C759 C753 1.429 . S
C759 C760 1.523 . S
C760 C741 1.368 . S
C760 C754 1.368 . S
C760 C759 1.523 . S
C761 C745 1.429 . S
C761 C757 1.429 . S
C761 C762 1.523 . S
C762 C746 1.368 . S
C762 C758 1.368 . S
C762 C761 1.523 . S
H763 C738 0.950 . S
H764 C740 0.950 . S
H765 C741 0.949 . S
H766 C743 0.950 . S
H767 C745 0.950 . S
C768 C769 1.349 . S
C768 C770 1.327 . S
C768 H793 0.950 . S
C769 C768 1.349 . S
C769 C785 1.349 . S
C770 C768 1.327 . S
C770 C789 1.429 . S
C770 H794 0.950 . S
C771 C788 1.574 . S
C771 C790 1.368 . S
C771 H795 0.949 . S
H772 C776 0.949 . S
C773 C774 1.349 . S
C773 C775 1.327 . S
C773 H796 0.950 . S
C774 C773 1.349 . S
C774 C786 1.349 . S
C775 C773 1.327 . S
C775 C791 1.429 . S
C775 H797 0.950 . S
C776 H772 0.949 . S
C776 C784 1.574 . S
C776 C792 1.368 . S
H777 C785 0.950 . S
H778 C783 0.950 . S
H779 C784 0.949 . S
H780 C786 0.950 . S
H781 C787 0.950 . S
H782 C788 0.949 . S
C783 H778 0.950 . S
C783 C785 1.327 . S
C783 C789 1.429 . S
C784 C776 1.574 . S
C784 H779 0.949 . S
C784 C790 1.368 . S
C785 C769 1.349 . S
C785 H777 0.950 . S
C785 C783 1.327 . S
C786 C774 1.349 . S
C786 H780 0.950 . S
C786 C787 1.327 . S
C787 H781 0.950 . S
C787 C786 1.327 . S
C787 C791 1.429 . S
C788 C771 1.574 . S
C788 H782 0.949 . S
C788 C792 1.368 . S
C789 C770 1.429 . S
C789 C783 1.429 . S
C789 C790 1.523 . S
C790 C771 1.368 . S
C790 C784 1.368 . S
C790 C789 1.523 . S
C791 C775 1.429 . S
C791 C787 1.429 . S
C791 C792 1.523 . S
C792 C776 1.368 . S
C792 C788 1.368 . S
C792 C791 1.523 . S
H793 C768 0.950 . S
H794 C770 0.950 . S
H795 C771 0.949 . S
H796 C773 0.950 . S
H797 C775 0.950 . S
C798 C799 1.349 . S
C798 C800 1.327 . S
C798 H823 0.950 . S
C799 C798 1.349 . S
C799 C815 1.349 . S
C800 C798 1.327 . S
C800 C819 1.429 . S
C800 H824 0.950 . S
C801 C818 1.574 . S
C801 C820 1.368 . S
C801 H825 0.949 . S
H802 C806 0.949 . S
C803 C804 1.349 . S
C803 C805 1.327 . S
C803 H826 0.950 . S
C804 C803 1.349 . S
C804 C816 1.349 . S
C805 C803 1.327 . S
C805 C821 1.429 . S
C805 H827 0.950 . S
C806 H802 0.949 . S
C806 C814 1.574 . S
C806 C822 1.368 . S
H807 C815 0.950 . S
H808 C813 0.950 . S
H809 C814 0.949 . S
H810 C816 0.950 . S
H811 C817 0.950 . S
H812 C818 0.949 . S
C813 H808 0.950 . S
C813 C815 1.327 . S
C813 C819 1.429 . S
C814 C806 1.574 . S
C814 H809 0.949 . S
C814 C820 1.368 . S
C815 C799 1.349 . S
C815 H807 0.950 . S
C815 C813 1.327 . S
C816 C804 1.349 . S
C816 H810 0.950 . S
C816 C817 1.327 . S
C817 H811 0.950 . S
C817 C816 1.327 . S
C817 C821 1.429 . S
C818 C801 1.574 . S
C818 H812 0.949 . S
C818 C822 1.368 . S
C819 C800 1.429 . S
C819 C813 1.429 . S
C819 C820 1.523 . S
C820 C801 1.368 . S
C820 C814 1.368 . S
C820 C819 1.523 . S
C821 C805 1.429 . S
C821 C817 1.429 . S
C821 C822 1.523 . S
C822 C806 1.368 . S
C822 C818 1.368 . S
C822 C821 1.523 . S
H823 C798 0.950 . S
H824 C800 0.950 . S
H825 C801 0.949 . S
H826 C803 0.950 . S
H827 C805 0.950 . S
C828 C829 1.349 . S
C828 C830 1.327 . S
C828 H853 0.950 . S
C829 C828 1.349 . S
C829 C845 1.349 . S
C830 C828 1.327 . S
C830 C849 1.429 . S
C830 H854 0.950 . S
C831 C848 1.574 . S
C831 C850 1.368 . S
C831 H855 0.949 . S
H832 C836 0.949 . S
C833 C834 1.349 . S
C833 C835 1.327 . S
C833 H856 0.950 . S
C834 C833 1.349 . S
C834 C846 1.349 . S
C835 C833 1.327 . S
C835 C851 1.429 . S
C835 H857 0.950 . S
C836 H832 0.949 . S
C836 C844 1.574 . S
C836 C852 1.368 . S
H837 C845 0.950 . S
H838 C843 0.950 . S
H839 C844 0.949 . S
H840 C846 0.950 . S
H841 C847 0.950 . S
H842 C848 0.949 . S
C843 H838 0.950 . S
C843 C845 1.327 . S
C843 C849 1.429 . S
C844 C836 1.574 . S
C844 H839 0.949 . S
C844 C850 1.368 . S
C845 C829 1.349 . S
C845 H837 0.950 . S
C845 C843 1.327 . S
C846 C834 1.349 . S
C846 H840 0.950 . S
C846 C847 1.327 . S
C847 H841 0.950 . S
C847 C846 1.327 . S
C847 C851 1.429 . S
C848 C831 1.574 . S
C848 H842 0.949 . S
C848 C852 1.368 . S
C849 C830 1.429 . S
C849 C843 1.429 . S
C849 C850 1.523 . S
C850 C831 1.368 . S
C850 C844 1.368 . S
C850 C849 1.523 . S
C851 C835 1.429 . S
C851 C847 1.429 . S
C851 C852 1.523 . S
C852 C836 1.368 . S
C852 C848 1.368 . S
C852 C851 1.523 . S
H853 C828 0.950 . S
H854 C830 0.950 . S
H855 C831 0.949 . S
H856 C833 0.950 . S
H857 C835 0.950 . S
C858 C859 1.349 . S
C858 C860 1.327 . S
C858 H883 0.950 . S
C859 C858 1.349 . S
C859 C875 1.349 . S
C860 C858 1.327 . S
C860 C879 1.429 . S
C860 H884 0.950 . S
C861 C878 1.574 . S
C861 C880 1.368 . S
C861 H885 0.949 . S
H862 C866 0.949 . S
C863 C864 1.349 . S
C863 C865 1.327 . S
C863 H886 0.950 . S
C864 C863 1.349 . S
C864 C876 1.349 . S
C865 C863 1.327 . S
C865 C881 1.429 . S
C865 H887 0.950 . S
C866 H862 0.949 . S
C866 C874 1.574 . S
C866 C882 1.368 . S
H867 C875 0.950 . S
H868 C873 0.950 . S
H869 C874 0.949 . S
H870 C876 0.950 . S
H871 C877 0.950 . S
H872 C878 0.949 . S
C873 H868 0.950 . S
C873 C875 1.327 . S
C873 C879 1.429 . S
C874 C866 1.574 . S
C874 H869 0.949 . S
C874 C880 1.368 . S
C875 C859 1.349 . S
C875 H867 0.950 . S
C875 C873 1.327 . S
C876 C864 1.349 . S
C876 H870 0.950 . S
C876 C877 1.327 . S
C877 H871 0.950 . S
C877 C876 1.327 . S
C877 C881 1.429 . S
C878 C861 1.574 . S
C878 H872 0.949 . S
C878 C882 1.368 . S
C879 C860 1.429 . S
C879 C873 1.429 . S
C879 C880 1.523 . S
C880 C861 1.368 . S
C880 C874 1.368 . S
C880 C879 1.523 . S
C881 C865 1.429 . S
C881 C877 1.429 . S
C881 C882 1.523 . S
C882 C866 1.368 . S
C882 C878 1.368 . S
C882 C881 1.523 . S
H883 C858 0.950 . S
H884 C860 0.950 . S
H885 C861 0.949 . S
H886 C863 0.950 . S
H887 C865 0.950 . S
C888 C889 1.349 . S
C888 C890 1.327 . S
C888 H913 0.950 . S
C889 C888 1.349 . S
C889 C905 1.349 . S
C890 C888 1.327 . S
C890 C909 1.429 . S
C890 H914 0.950 . S
C891 C908 1.574 . S
C891 C910 1.368 . S
C891 H915 0.949 . S
H892 C896 0.949 . S
C893 C894 1.349 . S
C893 C895 1.327 . S
C893 H916 0.950 . S
C894 C893 1.349 . S
C894 C906 1.349 . S
C895 C893 1.327 . S
C895 C911 1.429 . S
C895 H917 0.950 . S
C896 H892 0.949 . S
C896 C904 1.574 . S
C896 C912 1.368 . S
H897 C905 0.950 . S
H898 C903 0.950 . S
H899 C904 0.949 . S
H900 C906 0.950 . S
H901 C907 0.950 . S
H902 C908 0.949 . S
C903 H898 0.950 . S
C903 C905 1.327 . S
C903 C909 1.429 . S
C904 C896 1.574 . S
C904 H899 0.949 . S
C904 C910 1.368 . S
C905 C889 1.349 . S
C905 H897 0.950 . S
C905 C903 1.327 . S
C906 C894 1.349 . S
C906 H900 0.950 . S
C906 C907 1.327 . S
C907 H901 0.950 . S
C907 C906 1.327 . S
C907 C911 1.429 . S
C908 C891 1.574 . S
C908 H902 0.949 . S
C908 C912 1.368 . S
C909 C890 1.429 . S
C909 C903 1.429 . S
C909 C910 1.523 . S
C910 C891 1.368 . S
C910 C904 1.368 . S
C910 C909 1.523 . S
C911 C895 1.429 . S
C911 C907 1.429 . S
C911 C912 1.523 . S
C912 C896 1.368 . S
C912 C908 1.368 . S
C912 C911 1.523 . S
H913 C888 0.950 . S
H914 C890 0.950 . S
H915 C891 0.949 . S
H916 C893 0.950 . S
H917 C895 0.950 . S
C918 C919 1.349 . S
C918 C920 1.327 . S
C918 H943 0.950 . S
C919 C918 1.349 . S
C919 C935 1.349 . S
C920 C918 1.327 . S
C920 C939 1.429 . S
C920 H944 0.950 . S
C921 C938 1.574 . S
C921 C940 1.368 . S
C921 H945 0.949 . S
H922 C926 0.949 . S
C923 C924 1.349 . S
C923 C925 1.327 . S
C923 H946 0.950 . S
C924 C923 1.349 . S
C924 C936 1.349 . S
C925 C923 1.327 . S
C925 C941 1.429 . S
C925 H947 0.950 . S
C926 H922 0.949 . S
C926 C934 1.574 . S
C926 C942 1.368 . S
H927 C935 0.950 . S
H928 C933 0.950 . S
H929 C934 0.949 . S
H930 C936 0.950 . S
H931 C937 0.950 . S
H932 C938 0.949 . S
C933 H928 0.950 . S
C933 C935 1.327 . S
C933 C939 1.429 . S
C934 C926 1.574 . S
C934 H929 0.949 . S
C934 C940 1.368 . S
C935 C919 1.349 . S
C935 H927 0.950 . S
C935 C933 1.327 . S
C936 C924 1.349 . S
C936 H930 0.950 . S
C936 C937 1.327 . S
C937 H931 0.950 . S
C937 C936 1.327 . S
C937 C941 1.429 . S
C938 C921 1.574 . S
C938 H932 0.949 . S
C938 C942 1.368 . S
C939 C920 1.429 . S
C939 C933 1.429 . S
C939 C940 1.523 . S
C940 C921 1.368 . S
C940 C934 1.368 . S
C940 C939 1.523 . S
C941 C925 1.429 . S
C941 C937 1.429 . S
C941 C942 1.523 . S
C942 C926 1.368 . S
C942 C938 1.368 . S
C942 C941 1.523 . S
H943 C918 0.950 . S
H944 C920 0.950 . S
H945 C921 0.949 . S
H946 C923 0.950 . S
H947 C925 0.950 . S
C948 C949 1.349 . S
C948 C950 1.327 . S
C948 H973 0.950 . S
C949 C948 1.349 . S
C949 C965 1.349 . S
C950 C948 1.327 . S
C950 C969 1.429 . S
C950 H974 0.950 . S
C951 C968 1.574 . S
C951 C970 1.368 . S
C951 H975 0.949 . S
H952 C956 0.949 . S
C953 C954 1.349 . S
C953 C955 1.327 . S
C953 H976 0.950 . S
C954 C953 1.349 . S
C954 C966 1.349 . S
C955 C953 1.327 . S
C955 C971 1.429 . S
C955 H977 0.950 . S
C956 H952 0.949 . S
C956 C964 1.574 . S
C956 C972 1.368 . S
H957 C965 0.950 . S
H958 C963 0.950 . S
H959 C964 0.949 . S
H960 C966 0.950 . S
H961 C967 0.950 . S
H962 C968 0.949 . S
C963 H958 0.950 . S
C963 C965 1.327 . S
C963 C969 1.429 . S
C964 C956 1.574 . S
C964 H959 0.949 . S
C964 C970 1.368 . S
C965 C949 1.349 . S
C965 H957 0.950 . S
C965 C963 1.327 . S
C966 C954 1.349 . S
C966 H960 0.950 . S
C966 C967 1.327 . S
C967 H961 0.950 . S
C967 C966 1.327 . S
C967 C971 1.429 . S
C968 C951 1.574 . S
C968 H962 0.949 . S
C968 C972 1.368 . S
C969 C950 1.429 . S
C969 C963 1.429 . S
C969 C970 1.523 . S
C970 C951 1.368 . S
C970 C964 1.368 . S
C970 C969 1.523 . S
C971 C955 1.429 . S
C971 C967 1.429 . S
C971 C972 1.523 . S
C972 C956 1.368 . S
C972 C968 1.368 . S
C972 C971 1.523 . S
H973 C948 0.950 . S
H974 C950 0.950 . S
H975 C951 0.949 . S
H976 C953 0.950 . S
H977 C955 0.950 . S
C978 C979 1.349 . S
C978 C980 1.327 . S
C978 H1003 0.950 . S
C979 C978 1.349 . S
C979 C995 1.349 . S
C980 C978 1.327 . S
C980 C999 1.429 . S
C980 H1004 0.950 . S
C981 C998 1.574 . S
C981 C1000 1.368 . S
C981 H1005 0.949 . S
H982 C986 0.949 . S
C983 C984 1.349 . S
C983 C985 1.327 . S
C983 H1006 0.950 . S
C984 C983 1.349 . S
C984 C996 1.349 . S
C985 C983 1.327 . S
C985 C1001 1.429 . S
C985 H1007 0.950 . S
C986 H982 0.949 . S
C986 C994 1.574 . S
C986 C1002 1.368 . S
H987 C995 0.950 . S
H988 C993 0.950 . S
H989 C994 0.949 . S
H990 C996 0.950 . S
H991 C997 0.950 . S
H992 C998 0.949 . S
C993 H988 0.950 . S
C993 C995 1.327 . S
C993 C999 1.429 . S
C994 C986 1.574 . S
C994 H989 0.949 . S
C994 C1000 1.368 . S
C995 C979 1.349 . S
C995 H987 0.950 . S
C995 C993 1.327 . S
C996 C984 1.349 . S
C996 H990 0.950 . S
C996 C997 1.327 . S
C997 H991 0.950 . S
C997 C996 1.327 . S
C997 C1001 1.429 . S
C998 C981 1.574 . S
C998 H992 0.949 . S
C998 C1002 1.368 . S
C999 C980 1.429 . S
C999 C993 1.429 . S
C999 C1000 1.523 . S
C1000 C981 1.368 . S
C1000 C994 1.368 . S
C1000 C999 1.523 . S
C1001 C985 1.429 . S
C1001 C997 1.429 . S
C1001 C1002 1.523 . S
C1002 C986 1.368 . S
C1002 C998 1.368 . S
C1002 C1001 1.523 . S
H1003 C978 0.950 . S
H1004 C980 0.950 . S
H1005 C981 0.949 . S
H1006 C983 0.950 . S
H1007 C985 0.950 . S
C1008 C1009 1.349 . S
C1008 C1010 1.327 . S
C1008 H1033 0.950 . S
C1009 C1008 1.349 . S
C1009 C1025 1.349 . S
C1010 C1008 1.327 . S
C1010 C1029 1.429 . S
C1010 H1034 0.950 . S
C1011 C1028 1.574 . S
C1011 C1030 1.368 . S
C1011 H1035 0.949 . S
H1012 C1016 0.949 . S
C1013 C1014 1.349 . S
C1013 C1015 1.327 . S
C1013 H1036 0.950 . S
C1014 C1013 1.349 . S
C1014 C1026 1.349 . S
C1015 C1013 1.327 . S
C1015 C1031 1.429 . S
C1015 H1037 0.950 . S
C1016 H1012 0.949 . S
C1016 C1024 1.574 . S
C1016 C1032 1.368 . S
H1017 C1025 0.950 . S
H1018 C1023 0.950 . S
H1019 C1024 0.949 . S
H1020 C1026 0.950 . S
H1021 C1027 0.950 . S
H1022 C1028 0.949 . S
C1023 H1018 0.950 . S
C1023 C1025 1.327 . S
C1023 C1029 1.429 . S
C1024 C1016 1.574 . S
C1024 H1019 0.949 . S
C1024 C1030 1.368 . S
C1025 C1009 1.349 . S
C1025 H1017 0.950 . S
C1025 C1023 1.327 . S
C1026 C1014 1.349 . S
C1026 H1020 0.950 . S
C1026 C1027 1.327 . S
C1027 H1021 0.950 . S
C1027 C1026 1.327 . S
C1027 C1031 1.429 . S
C1028 C1011 1.574 . S
C1028 H1022 0.949 . S
C1028 C1032 1.368 . S
C1029 C1010 1.429 . S
C1029 C1023 1.429 . S
C1029 C1030 1.523 . S
C1030 C1011 1.368 . S
C1030 C1024 1.368 . S
C1030 C1029 1.523 . S
C1031 C1015 1.429 . S
C1031 C1027 1.429 . S
C1031 C1032 1.523 . S
C1032 C1016 1.368 . S
C1032 C1028 1.368 . S
C1032 C1031 1.523 . S
H1033 C1008 0.950 . S
H1034 C1010 0.950 . S
H1035 C1011 0.949 . S
H1036 C1013 0.950 . S
H1037 C1015 0.950 . S
C1038 C1039 1.349 . S
C1038 C1040 1.327 . S
C1038 H1063 0.950 . S
C1039 C1038 1.349 . S
C1039 C1055 1.349 . S
C1040 C1038 1.327 . S
C1040 C1059 1.429 . S
C1040 H1064 0.950 . S
C1041 C1058 1.574 . S
C1041 C1060 1.368 . S
C1041 H1065 0.949 . S
H1042 C1046 0.949 . S
C1043 C1044 1.349 . S
C1043 C1045 1.327 . S
C1043 H1066 0.950 . S
C1044 C1043 1.349 . S
C1044 C1056 1.349 . S
C1045 C1043 1.327 . S
C1045 C1061 1.429 . S
C1045 H1067 0.950 . S
C1046 H1042 0.949 . S
C1046 C1054 1.574 . S
C1046 C1062 1.368 . S
H1047 C1055 0.950 . S
H1048 C1053 0.950 . S
H1049 C1054 0.949 . S
H1050 C1056 0.950 . S
H1051 C1057 0.950 . S
H1052 C1058 0.949 . S
C1053 H1048 0.950 . S
C1053 C1055 1.327 . S
C1053 C1059 1.429 . S
C1054 C1046 1.574 . S
C1054 H1049 0.949 . S
C1054 C1060 1.368 . S
C1055 C1039 1.349 . S
C1055 H1047 0.950 . S
C1055 C1053 1.327 . S
C1056 C1044 1.349 . S
C1056 H1050 0.950 . S
C1056 C1057 1.327 . S
C1057 H1051 0.950 . S
C1057 C1056 1.327 . S
C1057 C1061 1.429 . S
C1058 C1041 1.574 . S
C1058 H1052 0.949 . S
C1058 C1062 1.368 . S
C1059 C1040 1.429 . S
C1059 C1053 1.429 . S
C1059 C1060 1.523 . S
C1060 C1041 1.368 . S
C1060 C1054 1.368 . S
C1060 C1059 1.523 . S
C1061 C1045 1.429 . S
C1061 C1057 1.429 . S
C1061 C1062 1.523 . S
C1062 C1046 1.368 . S
C1062 C1058 1.368 . S
C1062 C1061 1.523 . S
H1063 C1038 0.950 . S
H1064 C1040 0.950 . S
H1065 C1041 0.949 . S
H1066 C1043 0.950 . S
H1067 C1045 0.950 . S
C1068 C1069 1.349 . S
C1068 C1070 1.327 . S
C1068 H1093 0.950 . S
C1069 C1068 1.349 . S
C1069 C1085 1.349 . S
C1070 C1068 1.327 . S
C1070 C1089 1.429 . S
C1070 H1094 0.950 . S
C1071 C1088 1.574 . S
C1071 C1090 1.368 . S
C1071 H1095 0.949 . S
H1072 C1076 0.949 . S
C1073 C1074 1.349 . S
C1073 C1075 1.327 . S
C1073 H1096 0.950 . S
C1074 C1073 1.349 . S
C1074 C1086 1.349 . S
C1075 C1073 1.327 . S
C1075 C1091 1.429 . S
C1075 H1097 0.950 . S
C1076 H1072 0.949 . S
C1076 C1084 1.574 . S
C1076 C1092 1.368 . S
H1077 C1085 0.950 . S
H1078 C1083 0.950 . S
H1079 C1084 0.949 . S
H1080 C1086 0.950 . S
H1081 C1087 0.950 . S
H1082 C1088 0.949 . S
C1083 H1078 0.950 . S
C1083 C1085 1.327 . S
C1083 C1089 1.429 . S
C1084 C1076 1.574 . S
C1084 H1079 0.949 . S
C1084 C1090 1.368 . S
C1085 C1069 1.349 . S
C1085 H1077 0.950 . S
C1085 C1083 1.327 . S
C1086 C1074 1.349 . S
C1086 H1080 0.950 . S
C1086 C1087 1.327 . S
C1087 H1081 0.950 . S
C1087 C1086 1.327 . S
C1087 C1091 1.429 . S
C1088 C1071 1.574 . S
C1088 H1082 0.949 . S
C1088 C1092 1.368 . S
C1089 C1070 1.429 . S
C1089 C1083 1.429 . S
C1089 C1090 1.523 . S
C1090 C1071 1.368 . S
C1090 C1084 1.368 . S
C1090 C1089 1.523 . S
C1091 C1075 1.429 . S
C1091 C1087 1.429 . S
C1091 C1092 1.523 . S
C1092 C1076 1.368 . S
C1092 C1088 1.368 . S
C1092 C1091 1.523 . S
H1093 C1068 0.950 . S
H1094 C1070 0.950 . S
H1095 C1071 0.949 . S
H1096 C1073 0.950 . S
H1097 C1075 0.950 . S
C1098 C1099 1.349 . S
C1098 C1100 1.327 . S
C1098 H1123 0.950 . S
C1099 C1098 1.349 . S
C1099 C1115 1.349 . S
C1100 C1098 1.327 . S
C1100 C1119 1.429 . S
C1100 H1124 0.950 . S
C1101 C1118 1.574 . S
C1101 C1120 1.368 . S
C1101 H1125 0.949 . S
H1102 C1106 0.949 . S
C1103 C1104 1.349 . S
C1103 C1105 1.327 . S
C1103 H1126 0.950 . S
C1104 C1103 1.349 . S
C1104 C1116 1.349 . S
C1105 C1103 1.327 . S
C1105 C1121 1.429 . S
C1105 H1127 0.950 . S
C1106 H1102 0.949 . S
C1106 C1114 1.574 . S
C1106 C1122 1.368 . S
H1107 C1115 0.950 . S
H1108 C1113 0.950 . S
H1109 C1114 0.949 . S
H1110 C1116 0.950 . S
H1111 C1117 0.950 . S
H1112 C1118 0.949 . S
C1113 H1108 0.950 . S
C1113 C1115 1.327 . S
C1113 C1119 1.429 . S
C1114 C1106 1.574 . S
C1114 H1109 0.949 . S
C1114 C1120 1.368 . S
C1115 C1099 1.349 . S
C1115 H1107 0.950 . S
C1115 C1113 1.327 . S
C1116 C1104 1.349 . S
C1116 H1110 0.950 . S
C1116 C1117 1.327 . S
C1117 H1111 0.950 . S
C1117 C1116 1.327 . S
C1117 C1121 1.429 . S
C1118 C1101 1.574 . S
C1118 H1112 0.949 . S
C1118 C1122 1.368 . S
C1119 C1100 1.429 . S
C1119 C1113 1.429 . S
C1119 C1120 1.523 . S
C1120 C1101 1.368 . S
C1120 C1114 1.368 . S
C1120 C1119 1.523 . S
C1121 C1105 1.429 . S
C1121 C1117 1.429 . S
C1121 C1122 1.523 . S
C1122 C1106 1.368 . S
C1122 C1118 1.368 . S
C1122 C1121 1.523 . S
H1123 C1098 0.950 . S
H1124 C1100 0.950 . S
H1125 C1101 0.949 . S
H1126 C1103 0.950 . S
H1127 C1105 0.950 . S
C1128 C1129 1.349 . S
C1128 C1130 1.327 . S
C1128 H1153 0.950 . S
C1129 C1128 1.349 . S
C1129 C1145 1.349 . S
C1130 C1128 1.327 . S
C1130 C1149 1.429 . S
C1130 H1154 0.950 . S
C1131 C1148 1.574 . S
C1131 C1150 1.368 . S
C1131 H1155 0.949 . S
H1132 C1136 0.949 . S
C1133 C1134 1.349 . S
C1133 C1135 1.327 . S
C1133 H1156 0.950 . S
C1134 C1133 1.349 . S
C1134 C1146 1.349 . S
C1135 C1133 1.327 . S
C1135 C1151 1.429 . S
C1135 H1157 0.950 . S
C1136 H1132 0.949 . S
C1136 C1144 1.574 . S
C1136 C1152 1.368 . S
H1137 C1145 0.950 . S
H1138 C1143 0.950 . S
H1139 C1144 0.949 . S
H1140 C1146 0.950 . S
H1141 C1147 0.950 . S
H1142 C1148 0.949 . S
C1143 H1138 0.950 . S
C1143 C1145 1.327 . S
C1143 C1149 1.429 . S
C1144 C1136 1.574 . S
C1144 H1139 0.949 . S
C1144 C1150 1.368 . S
C1145 C1129 1.349 . S
C1145 H1137 0.950 . S
C1145 C1143 1.327 . S
C1146 C1134 1.349 . S
C1146 H1140 0.950 . S
C1146 C1147 1.327 . S
C1147 H1141 0.950 . S
C1147 C1146 1.327 . S
C1147 C1151 1.429 . S
C1148 C1131 1.574 . S
C1148 H1142 0.949 . S
C1148 C1152 1.368 . S
C1149 C1130 1.429 . S
C1149 C1143 1.429 . S
C1149 C1150 1.523 . S
C1150 C1131 1.368 . S
C1150 C1144 1.368 . S
C1150 C1149 1.523 . S
C1151 C1135 1.429 . S
C1151 C1147 1.429 . S
C1151 C1152 1.523 . S
C1152 C1136 1.368 . S
C1152 C1148 1.368 . S
C1152 C1151 1.523 . S
H1153 C1128 0.950 . S
H1154 C1130 0.950 . S
H1155 C1131 0.949 . S
H1156 C1133 0.950 . S
H1157 C1135 0.950 . S
C1158 C1159 1.349 . S
C1158 C1160 1.327 . S
C1158 H1183 0.950 . S
C1159 C1158 1.349 . S
C1159 C1175 1.349 . S
C1160 C1158 1.327 . S
C1160 C1179 1.429 . S
C1160 H1184 0.950 . S
C1161 C1178 1.574 . S
C1161 C1180 1.368 . S
C1161 H1185 0.949 . S
H1162 C1166 0.949 . S
C1163 C1164 1.349 . S
C1163 C1165 1.327 . S
C1163 H1186 0.950 . S
C1164 C1163 1.349 . S
C1164 C1176 1.349 . S
C1165 C1163 1.327 . S
C1165 C1181 1.429 . S
C1165 H1187 0.950 . S
C1166 H1162 0.949 . S
C1166 C1174 1.574 . S
C1166 C1182 1.368 . S
H1167 C1175 0.950 . S
H1168 C1173 0.950 . S
H1169 C1174 0.949 . S
H1170 C1176 0.950 . S
H1171 C1177 0.950 . S
H1172 C1178 0.949 . S
C1173 H1168 0.950 . S
C1173 C1175 1.327 . S
C1173 C1179 1.429 . S
C1174 C1166 1.574 . S
C1174 H1169 0.949 . S
C1174 C1180 1.368 . S
C1175 C1159 1.349 . S
C1175 H1167 0.950 . S
C1175 C1173 1.327 . S
C1176 C1164 1.349 . S
C1176 H1170 0.950 . S
C1176 C1177 1.327 . S
C1177 H1171 0.950 . S
C1177 C1176 1.327 . S
C1177 C1181 1.429 . S
C1178 C1161 1.574 . S
C1178 H1172 0.949 . S
C1178 C1182 1.368 . S
C1179 C1160 1.429 . S
C1179 C1173 1.429 . S
C1179 C1180 1.523 . S
C1180 C1161 1.368 . S
C1180 C1174 1.368 . S
C1180 C1179 1.523 . S
C1181 C1165 1.429 . S
C1181 C1177 1.429 . S
C1181 C1182 1.523 . S
C1182 C1166 1.368 . S
C1182 C1178 1.368 . S
C1182 C1181 1.523 . S
H1183 C1158 0.950 . S
H1184 C1160 0.950 . S
H1185 C1161 0.949 . S
H1186 C1163 0.950 . S
H1187 C1165 0.950 . S
C1188 C1189 1.349 . S
C1188 C1190 1.327 . S
C1188 H1213 0.950 . S
C1189 C1188 1.349 . S
C1189 C1205 1.349 . S
C1190 C1188 1.327 . S
C1190 C1209 1.429 . S
C1190 H1214 0.950 . S
C1191 C1208 1.574 . S
C1191 C1210 1.368 . S
C1191 H1215 0.949 . S
H1192 C1196 0.949 . S
C1193 C1194 1.349 . S
C1193 C1195 1.327 . S
C1193 H1216 0.950 . S
C1194 C1193 1.349 . S
C1194 C1206 1.349 . S
C1195 C1193 1.327 . S
C1195 C1211 1.429 . S
C1195 H1217 0.950 . S
C1196 H1192 0.949 . S
C1196 C1204 1.574 . S
C1196 C1212 1.368 . S
H1197 C1205 0.950 . S
H1198 C1203 0.950 . S
H1199 C1204 0.949 . S
H1200 C1206 0.950 . S
H1201 C1207 0.950 . S
H1202 C1208 0.949 . S
C1203 H1198 0.950 . S
C1203 C1205 1.327 . S
C1203 C1209 1.429 . S
C1204 C1196 1.574 . S
C1204 H1199 0.949 . S
C1204 C1210 1.368 . S
C1205 C1189 1.349 . S
C1205 H1197 0.950 . S
C1205 C1203 1.327 . S
C1206 C1194 1.349 . S
C1206 H1200 0.950 . S
C1206 C1207 1.327 . S
C1207 H1201 0.950 . S
C1207 C1206 1.327 . S
C1207 C1211 1.429 . S
C1208 C1191 1.574 . S
C1208 H1202 0.949 . S
C1208 C1212 1.368 . S
C1209 C1190 1.429 . S
C1209 C1203 1.429 . S
C1209 C1210 1.523 . S
C1210 C1191 1.368 . S
C1210 C1204 1.368 . S
C1210 C1209 1.523 . S
C1211 C1195 1.429 . S
C1211 C1207 1.429 . S
C1211 C1212 1.523 . S
C1212 C1196 1.368 . S
C1212 C1208 1.368 . S
C1212 C1211 1.523 . S
H1213 C1188 0.950 . S
H1214 C1190 0.950 . S
H1215 C1191 0.949 . S
H1216 C1193 0.950 . S
H1217 C1195 0.950 . S
C1218 C1219 1.349 . S
C1218 C1220 1.327 . S
C1218 H1243 0.950 . S
C1219 C1218 1.349 . S
C1219 C1235 1.349 . S
C1220 C1218 1.327 . S
C1220 C1239 1.429 . S
C1220 H1244 0.950 . S
C1221 C1238 1.574 . S
C1221 C1240 1.368 . S
C1221 H1245 0.949 . S
H1222 C1226 0.949 . S
C1223 C1224 1.349 . S
C1223 C1225 1.327 . S
C1223 H1246 0.950 . S
C1224 C1223 1.349 . S
C1224 C1236 1.349 . S
C1225 C1223 1.327 . S
C1225 C1241 1.429 . S
C1225 H1247 0.950 . S
C1226 H1222 0.949 . S
C1226 C1234 1.574 . S
C1226 C1242 1.368 . S
H1227 C1235 0.950 . S
H1228 C1233 0.950 . S
H1229 C1234 0.949 . S
H1230 C1236 0.950 . S
H1231 C1237 0.950 . S
H1232 C1238 0.949 . S
C1233 H1228 0.950 . S
C1233 C1235 1.327 . S
C1233 C1239 1.429 . S
C1234 C1226 1.574 . S
C1234 H1229 0.949 . S
C1234 C1240 1.368 . S
C1235 C1219 1.349 . S
C1235 H1227 0.950 . S
C1235 C1233 1.327 . S
C1236 C1224 1.349 . S
C1236 H1230 0.950 . S
C1236 C1237 1.327 . S
C1237 H1231 0.950 . S
C1237 C1236 1.327 . S
C1237 C1241 1.429 . S
C1238 C1221 1.574 . S
C1238 H1232 0.949 . S
C1238 C1242 1.368 . S
C1239 C1220 1.429 . S
C1239 C1233 1.429 . S
C1239 C1240 1.523 . S
C1240 C1221 1.368 . S
C1240 C1234 1.368 . S
C1240 C1239 1.523 . S
C1241 C1225 1.429 . S
C1241 C1237 1.429 . S
C1241 C1242 1.523 . S
C1242 C1226 1.368 . S
C1242 C1238 1.368 . S
C1242 C1241 1.523 . S
H1243 C1218 0.950 . S
H1244 C1220 0.950 . S
H1245 C1221 0.949 . S
H1246 C1223 0.950 . S
H1247 C1225 0.950 . S
C1248 C1249 1.349 . S
C1248 C1250 1.327 . S
C1248 H1273 0.950 . S
C1249 C1248 1.349 . S
C1249 C1265 1.349 . S
C1250 C1248 1.327 . S
C1250 C1269 1.429 . S
C1250 H1274 0.950 . S
C1251 C1268 1.574 . S
C1251 C1270 1.368 . S
C1251 H1275 0.949 . S
H1252 C1256 0.949 . S
C1253 C1254 1.349 . S
C1253 C1255 1.327 . S
C1253 H1276 0.950 . S
C1254 C1253 1.349 . S
C1254 C1266 1.349 . S
C1255 C1253 1.327 . S
C1255 C1271 1.429 . S
C1255 H1277 0.950 . S
C1256 H1252 0.949 . S
C1256 C1264 1.574 . S
C1256 C1272 1.368 . S
H1257 C1265 0.950 . S
H1258 C1263 0.950 . S
H1259 C1264 0.949 . S
H1260 C1266 0.950 . S
H1261 C1267 0.950 . S
H1262 C1268 0.949 . S
C1263 H1258 0.950 . S
C1263 C1265 1.327 . S
C1263 C1269 1.429 . S
C1264 C1256 1.574 . S
C1264 H1259 0.949 . S
C1264 C1270 1.368 . S
C1265 C1249 1.349 . S
C1265 H1257 0.950 . S
C1265 C1263 1.327 . S
C1266 C1254 1.349 . S
C1266 H1260 0.950 . S
C1266 C1267 1.327 . S
C1267 H1261 0.950 . S
C1267 C1266 1.327 . S
C1267 C1271 1.429 . S
C1268 C1251 1.574 . S
C1268 H1262 0.949 . S
C1268 C1272 1.368 . S
C1269 C1250 1.429 . S
C1269 C1263 1.429 . S
C1269 C1270 1.523 . S
C1270 C1251 1.368 . S
C1270 C1264 1.368 . S
C1270 C1269 1.523 . S
C1271 C1255 1.429 . S
C1271 C1267 1.429 . S
C1271 C1272 1.523 . S
C1272 C1256 1.368 . S
C1272 C1268 1.368 . S
C1272 C1271 1.523 . S
H1273 C1248 0.950 . S
H1274 C1250 0.950 . S
H1275 C1251 0.949 . S
H1276 C1253 0.950 . S
H1277 C1255 0.950 . S
C1278 C1279 1.349 . S
C1278 C1280 1.327 . S
C1278 H1303 0.950 . S
C1279 C1278 1.349 . S
C1279 C1295 1.349 . S
C1280 C1278 1.327 . S
C1280 C1299 1.429 . S
C1280 H1304 0.950 . S
C1281 C1298 1.574 . S
C1281 C1300 1.368 . S
C1281 H1305 0.949 . S
H1282 C1286 0.949 . S
C1283 C1284 1.349 . S
C1283 C1285 1.327 . S
C1283 H1306 0.950 . S
C1284 C1283 1.349 . S
C1284 C1296 1.349 . S
C1285 C1283 1.327 . S
C1285 C1301 1.429 . S
C1285 H1307 0.950 . S
C1286 H1282 0.949 . S
C1286 C1294 1.574 . S
C1286 C1302 1.368 . S
H1287 C1295 0.950 . S
H1288 C1293 0.950 . S
H1289 C1294 0.949 . S
H1290 C1296 0.950 . S
H1291 C1297 0.950 . S
H1292 C1298 0.949 . S
C1293 H1288 0.950 . S
C1293 C1295 1.327 . S
C1293 C1299 1.429 . S
C1294 C1286 1.574 . S
C1294 H1289 0.949 . S
C1294 C1300 1.368 . S
C1295 C1279 1.349 . S
C1295 H1287 0.950 . S
C1295 C1293 1.327 . S
C1296 C1284 1.349 . S
C1296 H1290 0.950 . S
C1296 C1297 1.327 . S
C1297 H1291 0.950 . S
C1297 C1296 1.327 . S
C1297 C1301 1.429 . S
C1298 C1281 1.574 . S
C1298 H1292 0.949 . S
C1298 C1302 1.368 . S
C1299 C1280 1.429 . S
C1299 C1293 1.429 . S
C1299 C1300 1.523 . S
C1300 C1281 1.368 . S
C1300 C1294 1.368 . S
C1300 C1299 1.523 . S
C1301 C1285 1.429 . S
C1301 C1297 1.429 . S
C1301 C1302 1.523 . S
C1302 C1286 1.368 . S
C1302 C1298 1.368 . S
C1302 C1301 1.523 . S
H1303 C1278 0.950 . S
H1304 C1280 0.950 . S
H1305 C1281 0.949 . S
H1306 C1283 0.950 . S
H1307 C1285 0.950 . S
C1308 C1309 1.349 . S
C1308 C1310 1.327 . S
C1308 H1333 0.950 . S
C1309 C1308 1.349 . S
C1309 C1325 1.349 . S
C1310 C1308 1.327 . S
C1310 C1329 1.429 . S
C1310 H1334 0.950 . S
C1311 C1328 1.574 . S
C1311 C1330 1.368 . S
C1311 H1335 0.949 . S
H1312 C1316 0.949 . S
C1313 C1314 1.349 . S
C1313 C1315 1.327 . S
C1313 H1336 0.950 . S
C1314 C1313 1.349 . S
C1314 C1326 1.349 . S
C1315 C1313 1.327 . S
C1315 C1331 1.429 . S
C1315 H1337 0.950 . S
C1316 H1312 0.949 . S
C1316 C1324 1.574 . S
C1316 C1332 1.368 . S
H1317 C1325 0.950 . S
H1318 C1323 0.950 . S
H1319 C1324 0.949 . S
H1320 C1326 0.950 . S
H1321 C1327 0.950 . S
H1322 C1328 0.949 . S
C1323 H1318 0.950 . S
C1323 C1325 1.327 . S
C1323 C1329 1.429 . S
C1324 C1316 1.574 . S
C1324 H1319 0.949 . S
C1324 C1330 1.368 . S
C1325 C1309 1.349 . S
C1325 H1317 0.950 . S
C1325 C1323 1.327 . S
C1326 C1314 1.349 . S
C1326 H1320 0.950 . S
C1326 C1327 1.327 . S
C1327 H1321 0.950 . S
C1327 C1326 1.327 . S
C1327 C1331 1.429 . S
C1328 C1311 1.574 . S
C1328 H1322 0.949 . S
C1328 C1332 1.368 . S
C1329 C1310 1.429 . S
C1329 C1323 1.429 . S
C1329 C1330 1.523 . S
C1330 C1311 1.368 . S
C1330 C1324 1.368 . S
C1330 C1329 1.523 . S
C1331 C1315 1.429 . S
C1331 C1327 1.429 . S
C1331 C1332 1.523 . S
C1332 C1316 1.368 . S
C1332 C1328 1.368 . S
C1332 C1331 1.523 . S
H1333 C1308 0.950 . S
H1334 C1310 0.950 . S
H1335 C1311 0.949 . S
H1336 C1313 0.950 . S
H1337 C1315 0.950 . S
C1338 C1339 1.349 . S
C1338 C1340 1.327 . S
C1338 H1363 0.950 . S
C1339 C1338 1.349 . S
C1339 C1355 1.349 . S
C1340 C1338 1.327 . S
C1340 C1359 1.429 . S
C1340 H1364 0.950 . S
C1341 C1358 1.574 . S
C1341 C1360 1.368 . S
C1341 H1365 0.949 . S
H1342 C1346 0.949 . S
C1343 C1344 1.349 . S
C1343 C1345 1.327 . S
C1343 H1366 0.950 . S
C1344 C1343 1.349 . S
C1344 C1356 1.349 . S
C1345 C1343 1.327 . S
C1345 C1361 1.429 . S
C1345 H1367 0.950 . S
C1346 H1342 0.949 . S
C1346 C1354 1.574 . S
C1346 C1362 1.368 . S
H1347 C1355 0.950 . S
H1348 C1353 0.950 . S
H1349 C1354 0.949 . S
H1350 C1356 0.950 . S
H1351 C1357 0.950 . S
H1352 C1358 0.949 . S
C1353 H1348 0.950 . S
C1353 C1355 1.327 . S
C1353 C1359 1.429 . S
C1354 C1346 1.574 . S
C1354 H1349 0.949 . S
C1354 C1360 1.368 . S
C1355 C1339 1.349 . S
C1355 H1347 0.950 . S
C1355 C1353 1.327 . S
C1356 C1344 1.349 . S
C1356 H1350 0.950 . S
C1356 C1357 1.327 . S
C1357 H1351 0.950 . S
C1357 C1356 1.327 . S
C1357 C1361 1.429 . S
C1358 C1341 1.574 . S
C1358 H1352 0.949 . S
C1358 C1362 1.368 . S
C1359 C1340 1.429 . S
C1359 C1353 1.429 . S
C1359 C1360 1.523 . S
C1360 C1341 1.368 . S
C1360 C1354 1.368 . S
C1360 C1359 1.523 . S
C1361 C1345 1.429 . S
C1361 C1357 1.429 . S
C1361 C1362 1.523 . S
C1362 C1346 1.368 . S
C1362 C1358 1.368 . S
C1362 C1361 1.523 . S
H1363 C1338 0.950 . S
H1364 C1340 0.950 . S
H1365 C1341 0.949 . S
H1366 C1343 0.950 . S
H1367 C1345 0.950 . S
C1368 C1369 1.349 . S
C1368 C1370 1.327 . S
C1368 H1393 0.950 . S
C1369 C1368 1.349 . S
C1369 C1385 1.349 . S
C1370 C1368 1.327 . S
C1370 C1389 1.429 . S
C1370 H1394 0.950 . S
C1371 C1388 1.574 . S
C1371 C1390 1.368 . S
C1371 H1395 0.949 . S
H1372 C1376 0.949 . S
C1373 C1374 1.349 . S
C1373 C1375 1.327 . S
C1373 H1396 0.950 . S
C1374 C1373 1.349 . S
C1374 C1386 1.349 . S
C1375 C1373 1.327 . S
C1375 C1391 1.429 . S
C1375 H1397 0.950 . S
C1376 H1372 0.949 . S
C1376 C1384 1.574 . S
C1376 C1392 1.368 . S
H1377 C1385 0.950 . S
H1378 C1383 0.950 . S
H1379 C1384 0.949 . S
H1380 C1386 0.950 . S
H1381 C1387 0.950 . S
H1382 C1388 0.949 . S
C1383 H1378 0.950 . S
C1383 C1385 1.327 . S
C1383 C1389 1.429 . S
C1384 C1376 1.574 . S
C1384 H1379 0.949 . S
C1384 C1390 1.368 1_554 S
C1385 C1369 1.349 . S
C1385 H1377 0.950 . S
C1385 C1383 1.327 . S
C1386 C1374 1.349 . S
C1386 H1380 0.950 . S
C1386 C1387 1.327 . S
C1387 H1381 0.950 . S
C1387 C1386 1.327 . S
C1387 C1391 1.429 . S
C1388 C1371 1.574 . S
C1388 H1382 0.949 . S
C1388 C1392 1.368 1_556 S
C1389 C1370 1.429 . S
C1389 C1383 1.429 . S
C1389 C1390 1.523 . S
C1390 C1371 1.368 . S
C1390 C1384 1.368 1_556 S
C1390 C1389 1.523 . S
C1391 C1375 1.429 . S
C1391 C1387 1.429 . S
C1391 C1392 1.523 . S
C1392 C1376 1.368 . S
C1392 C1388 1.368 1_554 S
C1392 C1391 1.523 . S
H1393 C1368 0.950 . S
H1394 C1370 0.950 . S
H1395 C1371 0.949 . S
H1396 C1373 0.950 . S
H1397 C1375 0.950 . S
C1398 C1399 1.349 . S
C1398 C1400 1.327 . S
C1398 H1423 0.950 . S
C1399 C1398 1.349 . S
C1399 C1415 1.349 . S
C1400 C1398 1.327 . S
C1400 C1419 1.429 . S
C1400 H1424 0.950 . S
C1401 C1418 1.574 1_554 S
C1401 C1420 1.368 . S
C1401 H1425 0.949 . S
H1402 C1406 0.949 . S
C1403 C1404 1.349 . S
C1403 C1405 1.327 . S
C1403 H1426 0.950 . S
C1404 C1403 1.349 . S
C1404 C1416 1.349 . S
C1405 C1403 1.327 . S
C1405 C1421 1.429 . S
C1405 H1427 0.950 . S
C1406 H1402 0.949 . S
C1406 C1414 1.574 1_556 S
C1406 C1422 1.368 . S
H1407 C1415 0.950 . S
H1408 C1413 0.950 . S
H1409 C1414 0.949 . S
H1410 C1416 0.950 . S
H1411 C1417 0.950 . S
H1412 C1418 0.949 . S
C1413 H1408 0.950 . S
C1413 C1415 1.327 . S
C1413 C1419 1.429 . S
C1414 C1406 1.574 1_554 S
C1414 H1409 0.949 . S
C1414 C1420 1.368 . S
C1415 C1399 1.349 . S
C1415 H1407 0.950 . S
C1415 C1413 1.327 . S
C1416 C1404 1.349 . S
C1416 H1410 0.950 . S
C1416 C1417 1.327 . S
C1417 H1411 0.950 . S
C1417 C1416 1.327 . S
C1417 C1421 1.429 . S
C1418 C1401 1.574 1_556 S
C1418 H1412 0.949 . S
C1418 C1422 1.368 . S
C1419 C1400 1.429 . S
C1419 C1413 1.429 . S
C1419 C1420 1.523 . S
C1420 C1401 1.368 . S
C1420 C1414 1.368 . S
C1420 C1419 1.523 . S
C1421 C1405 1.429 . S
C1421 C1417 1.429 . S
C1421 C1422 1.523 . S
C1422 C1406 1.368 . S
C1422 C1418 1.368 . S
C1422 C1421 1.523 . S
H1423 C1398 0.950 . S
H1424 C1400 0.950 . S
H1425 C1401 0.949 . S
H1426 C1403 0.950 . S
H1427 C1405 0.950 . S
C1428 C1429 1.349 . S
C1428 C1430 1.327 . S
C1428 H1453 0.950 . S
C1429 C1428 1.349 . S
C1429 C1445 1.349 . S
C1430 C1428 1.327 . S
C1430 C1449 1.429 . S
C1430 H1454 0.950 . S
C1431 C1448 1.574 1_556 S
C1431 C1450 1.368 . S
C1431 H1455 0.949 . S
H1432 C1436 0.949 . S
C1433 C1434 1.349 . S
C1433 C1435 1.327 . S
C1433 H1456 0.950 . S
C1434 C1433 1.349 . S
C1434 C1446 1.349 . S
C1435 C1433 1.327 . S
C1435 C1451 1.429 . S
C1435 H1457 0.950 . S
C1436 H1432 0.949 . S
C1436 C1444 1.574 1_554 S
C1436 C1452 1.368 . S
H1437 C1445 0.950 . S
H1438 C1443 0.950 . S
H1439 C1444 0.949 . S
H1440 C1446 0.950 . S
H1441 C1447 0.950 . S
H1442 C1448 0.949 . S
C1443 H1438 0.950 . S
C1443 C1445 1.327 . S
C1443 C1449 1.429 . S
C1444 C1436 1.574 1_556 S
C1444 H1439 0.949 . S
C1444 C1450 1.368 . S
C1445 C1429 1.349 . S
C1445 H1437 0.950 . S
C1445 C1443 1.327 . S
C1446 C1434 1.349 . S
C1446 H1440 0.950 . S
C1446 C1447 1.327 . S
C1447 H1441 0.950 . S
C1447 C1446 1.327 . S
C1447 C1451 1.429 . S
C1448 C1431 1.574 1_554 S
C1448 H1442 0.949 . S
C1448 C1452 1.368 . S
C1449 C1430 1.429 . S
C1449 C1443 1.429 . S
C1449 C1450 1.523 . S
C1450 C1431 1.368 . S
C1450 C1444 1.368 . S
C1450 C1449 1.523 . S
C1451 C1435 1.429 . S
C1451 C1447 1.429 . S
C1451 C1452 1.523 . S
C1452 C1436 1.368 . S
C1452 C1448 1.368 . S
C1452 C1451 1.523 . S
H1453 C1428 0.950 . S
H1454 C1430 0.950 . S
H1455 C1431 0.949 . S
H1456 C1433 0.950 . S
H1457 C1435 0.950 . S
C1458 C1459 1.349 . S
C1458 C1460 1.327 . S
C1458 H1483 0.950 . S
C1459 C1458 1.349 . S
C1459 C1475 1.349 . S
C1460 C1458 1.327 . S
C1460 C1479 1.429 . S
C1460 H1484 0.950 . S
C1461 C1478 1.574 1_554 S
C1461 C1480 1.368 . S
C1461 H1485 0.949 . S
H1462 C1466 0.949 . S
C1463 C1464 1.349 . S
C1463 C1465 1.327 . S
C1463 H1486 0.950 . S
C1464 C1463 1.349 . S
C1464 C1476 1.349 . S
C1465 C1463 1.327 . S
C1465 C1481 1.429 . S
C1465 H1487 0.950 . S
C1466 H1462 0.949 . S
C1466 C1474 1.606 . S
C1466 C1482 1.368 . S
H1467 C1475 0.950 . S
H1468 C1473 0.950 . S
H1469 C1474 0.946 1_554 S
H1470 C1476 0.950 . S
H1471 C1477 0.950 . S
H1472 C1478 0.949 . S
C1473 H1468 0.950 . S
C1473 C1475 1.327 . S
C1473 C1479 1.429 . S
C1474 C1466 1.606 . S
C1474 H1469 0.946 1_556 S
C1474 C1480 1.341 1_556 S
C1475 C1459 1.349 . S
C1475 H1467 0.950 . S
C1475 C1473 1.327 . S
C1476 C1464 1.349 . S
C1476 H1470 0.950 . S
C1476 C1477 1.327 . S
C1477 H1471 0.950 . S
C1477 C1476 1.327 . S
C1477 C1481 1.429 . S
C1478 C1461 1.574 1_556 S
C1478 H1472 0.949 . S
C1478 C1482 1.368 . S
C1479 C1460 1.429 . S
C1479 C1473 1.429 . S
C1479 C1480 1.523 . S
C1480 C1461 1.368 . S
C1480 C1474 1.341 1_554 S
C1480 C1479 1.523 . S
C1481 C1465 1.429 . S
C1481 C1477 1.429 . S
C1481 C1482 1.523 . S
C1482 C1466 1.368 . S
C1482 C1478 1.368 . S
C1482 C1481 1.523 . S
H1483 C1458 0.950 . S
H1484 C1460 0.950 . S
H1485 C1461 0.949 . S
H1486 C1463 0.950 . S
H1487 C1465 0.950 . S
C1488 C1489 1.349 . S
C1488 C1490 1.327 . S
C1488 H1513 0.950 . S
C1489 C1488 1.349 . S
C1489 C1505 1.349 . S
C1490 C1488 1.327 . S
C1490 C1509 1.429 . S
C1490 H1514 0.950 . S
C1491 C1508 1.574 . S
C1491 C1510 1.368 . S
C1491 H1515 0.949 . S
H1492 C1496 0.949 . S
C1493 C1494 1.349 . S
C1493 C1495 1.327 . S
C1493 H1516 0.950 . S
C1494 C1493 1.349 . S
C1494 C1506 1.349 . S
C1495 C1493 1.327 . S
C1495 C1511 1.429 . S
C1495 H1517 0.950 . S
C1496 H1492 0.949 . S
C1496 C1504 1.574 . S
C1496 C1512 1.368 . S
H1497 C1505 0.950 . S
H1498 C1503 0.950 . S
H1499 C1504 0.949 . S
H1500 C1506 0.950 . S
H1501 C1507 0.950 . S
H1502 C1508 0.949 . S
C1503 H1498 0.950 . S
C1503 C1505 1.327 . S
C1503 C1509 1.429 . S
C1504 C1496 1.574 . S
C1504 H1499 0.949 . S
C1504 C1510 1.368 . S
C1505 C1489 1.349 . S
C1505 H1497 0.950 . S
C1505 C1503 1.327 . S
C1506 C1494 1.349 . S
C1506 H1500 0.950 . S
C1506 C1507 1.327 . S
C1507 H1501 0.950 . S
C1507 C1506 1.327 . S
C1507 C1511 1.429 . S
C1508 C1491 1.574 . S
C1508 H1502 0.949 . S
C1508 C1512 1.368 . S
C1509 C1490 1.429 . S
C1509 C1503 1.429 . S
C1509 C1510 1.523 . S
C1510 C1491 1.368 . S
C1510 C1504 1.368 . S
C1510 C1509 1.523 . S
C1511 C1495 1.429 . S
C1511 C1507 1.429 . S
C1511 C1512 1.523 . S
C1512 C1496 1.368 . S
C1512 C1508 1.368 . S
C1512 C1511 1.523 . S
H1513 C1488 0.950 . S
H1514 C1490 0.950 . S
H1515 C1491 0.949 . S
H1516 C1493 0.950 . S
H1517 C1495 0.950 . S
C1518 C1519 1.349 . S
C1518 C1520 1.327 . S
C1518 H1543 0.950 . S
C1519 C1518 1.349 . S
C1519 C1535 1.349 . S
C1520 C1518 1.327 . S
C1520 C1539 1.429 . S
C1520 H1544 0.950 . S
C1521 C1538 1.574 . S
C1521 C1540 1.368 . S
C1521 H1545 0.949 . S
H1522 C1526 0.949 . S
C1523 C1524 1.349 . S
C1523 C1525 1.327 . S
C1523 H1546 0.950 . S
C1524 C1523 1.349 . S
C1524 C1536 1.349 . S
C1525 C1523 1.327 . S
C1525 C1541 1.429 . S
C1525 H1547 0.950 . S
C1526 H1522 0.949 . S
C1526 C1534 1.574 . S
C1526 C1542 1.368 . S
H1527 C1535 0.950 . S
H1528 C1533 0.950 . S
H1529 C1534 0.949 . S
H1530 C1536 0.950 . S
H1531 C1537 0.950 . S
H1532 C1538 0.949 . S
C1533 H1528 0.950 . S
C1533 C1535 1.327 . S
C1533 C1539 1.429 . S
C1534 C1526 1.574 . S
C1534 H1529 0.949 . S
C1534 C1540 1.368 . S
C1535 C1519 1.349 . S
C1535 H1527 0.950 . S
C1535 C1533 1.327 . S
C1536 C1524 1.349 . S
C1536 H1530 0.950 . S
C1536 C1537 1.327 . S
C1537 H1531 0.950 . S
C1537 C1536 1.327 . S
C1537 C1541 1.429 . S
C1538 C1521 1.574 . S
C1538 H1532 0.949 . S
C1538 C1542 1.368 . S
C1539 C1520 1.429 . S
C1539 C1533 1.429 . S
C1539 C1540 1.523 . S
C1540 C1521 1.368 . S
C1540 C1534 1.368 . S
C1540 C1539 1.523 . S
C1541 C1525 1.429 . S
C1541 C1537 1.429 . S
C1541 C1542 1.523 . S
C1542 C1526 1.368 . S
C1542 C1538 1.368 . S
C1542 C1541 1.523 . S
H1543 C1518 0.950 . S
H1544 C1520 0.950 . S
H1545 C1521 0.949 . S
H1546 C1523 0.950 . S
H1547 C1525 0.950 . S
C1548 C1549 1.349 . S
C1548 C1550 1.327 . S
C1548 H1573 0.950 . S
C1549 C1548 1.349 . S
C1549 C1565 1.349 . S
C1550 C1548 1.327 . S
C1550 C1569 1.429 . S
C1550 H1574 0.950 . S
C1551 C1568 1.574 . S
C1551 C1570 1.368 . S
C1551 H1575 0.949 . S
H1552 C1556 0.949 . S
C1553 C1554 1.349 . S
C1553 C1555 1.327 . S
C1553 H1576 0.950 . S
C1554 C1553 1.349 . S
C1554 C1566 1.349 . S
C1555 C1553 1.327 . S
C1555 C1571 1.429 . S
C1555 H1577 0.950 . S
C1556 H1552 0.949 . S
C1556 C1564 1.574 . S
C1556 C1572 1.368 . S
H1557 C1565 0.950 . S
H1558 C1563 0.950 . S
H1559 C1564 0.949 . S
H1560 C1566 0.950 . S
H1561 C1567 0.950 . S
H1562 C1568 0.949 . S
C1563 H1558 0.950 . S
C1563 C1565 1.327 . S
C1563 C1569 1.429 . S
C1564 C1556 1.574 . S
C1564 H1559 0.949 . S
C1564 C1570 1.368 . S
C1565 C1549 1.349 . S
C1565 H1557 0.950 . S
C1565 C1563 1.327 . S
C1566 C1554 1.349 . S
C1566 H1560 0.950 . S
C1566 C1567 1.327 . S
C1567 H1561 0.950 . S
C1567 C1566 1.327 . S
C1567 C1571 1.429 . S
C1568 C1551 1.574 . S
C1568 H1562 0.949 . S
C1568 C1572 1.368 . S
C1569 C1550 1.429 . S
C1569 C1563 1.429 . S
C1569 C1570 1.523 . S
C1570 C1551 1.368 . S
C1570 C1564 1.368 . S
C1570 C1569 1.523 . S
C1571 C1555 1.429 . S
C1571 C1567 1.429 . S
C1571 C1572 1.523 . S
C1572 C1556 1.368 . S
C1572 C1568 1.368 . S
C1572 C1571 1.523 . S
H1573 C1548 0.950 . S
H1574 C1550 0.950 . S
H1575 C1551 0.949 . S
H1576 C1553 0.950 . S
H1577 C1555 0.950 . S
C1578 C1579 1.349 . S
C1578 C1580 1.327 . S
C1578 H1603 0.950 . S
C1579 C1578 1.349 . S
C1579 C1595 1.349 . S
C1580 C1578 1.327 . S
C1580 C1599 1.429 . S
C1580 H1604 0.950 . S
C1581 C1598 1.574 . S
C1581 C1600 1.368 . S
C1581 H1605 0.949 . S
H1582 C1586 0.949 . S
C1583 C1584 1.349 . S
C1583 C1585 1.327 . S
C1583 H1606 0.950 . S
C1584 C1583 1.349 . S
C1584 C1596 1.349 . S
C1585 C1583 1.327 . S
C1585 C1601 1.429 . S
C1585 H1607 0.950 . S
C1586 H1582 0.949 . S
C1586 C1594 1.574 . S
C1586 C1602 1.368 . S
H1587 C1595 0.950 . S
H1588 C1593 0.950 . S
H1589 C1594 0.949 . S
H1590 C1596 0.950 . S
H1591 C1597 0.950 . S
H1592 C1598 0.949 . S
C1593 H1588 0.950 . S
C1593 C1595 1.327 . S
C1593 C1599 1.429 . S
C1594 C1586 1.574 . S
C1594 H1589 0.949 . S
C1594 C1600 1.368 . S
C1595 C1579 1.349 . S
C1595 H1587 0.950 . S
C1595 C1593 1.327 . S
C1596 C1584 1.349 . S
C1596 H1590 0.950 . S
C1596 C1597 1.327 . S
C1597 H1591 0.950 . S
C1597 C1596 1.327 . S
C1597 C1601 1.429 . S
C1598 C1581 1.574 . S
C1598 H1592 0.949 . S
C1598 C1602 1.368 . S
C1599 C1580 1.429 . S
C1599 C1593 1.429 . S
C1599 C1600 1.523 . S
C1600 C1581 1.368 . S
C1600 C1594 1.368 . S
C1600 C1599 1.523 . S
C1601 C1585 1.429 . S
C1601 C1597 1.429 . S
C1601 C1602 1.523 . S
C1602 C1586 1.368 . S
C1602 C1598 1.368 . S
C1602 C1601 1.523 . S
H1603 C1578 0.950 . S
H1604 C1580 0.950 . S
H1605 C1581 0.949 . S
H1606 C1583 0.950 . S
H1607 C1585 0.950 . S
C1608 C1609 1.349 . S
C1608 C1610 1.327 . S
C1608 H1633 0.950 . S
C1609 C1608 1.349 . S
C1609 C1625 1.349 . S
C1610 C1608 1.327 . S
C1610 C1629 1.429 . S
C1610 H1634 0.950 . S
C1611 C1628 1.574 . S
C1611 C1630 1.368 1_556 S
C1611 H1635 0.949 . S
H1612 C1616 0.949 . S
C1613 C1614 1.349 . S
C1613 C1615 1.327 . S
C1613 H1636 0.950 . S
C1614 C1613 1.349 . S
C1614 C1626 1.349 . S
C1615 C1613 1.327 . S
C1615 C1631 1.429 . S
C1615 H1637 0.950 . S
C1616 H1612 0.949 . S
C1616 C1624 1.574 . S
C1616 C1632 1.368 1_554 S
H1617 C1625 0.950 . S
H1618 C1623 0.950 . S
H1619 C1624 0.949 . S
H1620 C1626 0.950 . S
H1621 C1627 0.950 . S
H1622 C1628 0.949 . S
C1623 H1618 0.950 . S
C1623 C1625 1.327 . S
C1623 C1629 1.429 . S
C1624 C1616 1.574 . S
C1624 H1619 0.949 . S
C1624 C1630 1.368 . S
C1625 C1609 1.349 . S
C1625 H1617 0.950 . S
C1625 C1623 1.327 . S
C1626 C1614 1.349 . S
C1626 H1620 0.950 . S
C1626 C1627 1.327 . S
C1627 H1621 0.950 . S
C1627 C1626 1.327 . S
C1627 C1631 1.429 . S
C1628 C1611 1.574 . S
C1628 H1622 0.949 . S
C1628 C1632 1.368 . S
C1629 C1610 1.429 . S
C1629 C1623 1.429 . S
C1629 C1630 1.523 . S
C1630 C1611 1.368 1_554 S
C1630 C1624 1.368 . S
C1630 C1629 1.523 . S
C1631 C1615 1.429 . S
C1631 C1627 1.429 . S
C1631 C1632 1.523 . S
C1632 C1616 1.368 1_556 S
C1632 C1628 1.368 . S
C1632 C1631 1.523 . S
H1633 C1608 0.950 . S
H1634 C1610 0.950 . S
H1635 C1611 0.949 . S
H1636 C1613 0.950 . S
H1637 C1615 0.950 . S
C1638 C1639 1.349 . S
C1638 C1640 1.327 . S
C1638 H1663 0.950 . S
C1639 C1638 1.349 . S
C1639 C1655 1.349 . S
C1640 C1638 1.327 . S
C1640 C1659 1.429 . S
C1640 H1664 0.950 . S
C1641 C1658 1.534 1_556 S
C1641 C1660 1.368 . S
C1641 H1665 0.949 . S
H1642 C1646 0.949 . S
C1643 C1644 1.349 . S
C1643 C1645 1.327 . S
C1643 H1666 0.950 . S
C1644 C1643 1.349 . S
C1644 C1656 1.349 . S
C1645 C1643 1.327 . S
C1645 C1661 1.429 . S
C1645 H1667 0.950 . S
C1646 H1642 0.949 . S
C1646 C1654 1.574 . S
C1646 C1662 1.368 . S
H1647 C1655 0.950 . S
H1648 C1653 0.950 . S
H1649 C1654 0.949 . S
H1650 C1656 0.950 . S
H1651 C1657 0.950 . S
H1652 C1658 0.949 . S
C1653 H1648 0.950 . S
C1653 C1655 1.327 . S
C1653 C1659 1.429 . S
C1654 C1646 1.574 . S
C1654 H1649 0.949 . S
C1654 C1660 1.368 1_554 S
C1655 C1639 1.349 . S
C1655 H1647 0.950 . S
C1655 C1653 1.327 . S
C1656 C1644 1.349 . S
C1656 H1650 0.950 . S
C1656 C1657 1.327 . S
C1657 H1651 0.950 . S
C1657 C1656 1.327 . S
C1657 C1661 1.429 . S
C1658 C1641 1.534 1_554 S
C1658 H1652 0.949 . S
C1658 C1662 1.411 . S
C1659 C1640 1.429 . S
C1659 C1653 1.429 . S
C1659 C1660 1.523 . S
C1660 C1641 1.368 . S
C1660 C1654 1.368 1_556 S
C1660 C1659 1.523 . S
C1661 C1645 1.429 . S
C1661 C1657 1.429 . S
C1661 C1662 1.523 . S
C1662 C1646 1.368 . S
C1662 C1658 1.411 . S
C1662 C1661 1.523 . S
H1663 C1638 0.950 . S
H1664 C1640 0.950 . S
H1665 C1641 0.949 . S
H1666 C1643 0.950 . S
H1667 C1645 0.950 . S
C1668 C1669 1.349 . S
C1668 C1670 1.327 . S
C1668 H1693 0.950 . S
C1669 C1668 1.349 . S
C1669 C1685 1.349 . S
C1670 C1668 1.327 . S
C1670 C1689 1.429 . S
C1670 H1694 0.950 . S
C1671 C1688 1.574 . S
C1671 C1690 1.368 . S
C1671 H1695 0.949 . S
H1672 C1676 0.949 . S
C1673 C1674 1.349 . S
C1673 C1675 1.327 . S
C1673 H1696 0.950 . S
C1674 C1673 1.349 . S
C1674 C1686 1.349 . S
C1675 C1673 1.327 . S
C1675 C1691 1.429 . S
C1675 H1697 0.950 . S
C1676 H1672 0.949 . S
C1676 C1684 1.574 . S
C1676 C1692 1.368 . S
H1677 C1685 0.950 . S
H1678 C1683 0.950 . S
H1679 C1684 0.949 . S
H1680 C1686 0.950 . S
H1681 C1687 0.950 . S
H1682 C1688 0.949 . S
C1683 H1678 0.950 . S
C1683 C1685 1.327 . S
C1683 C1689 1.429 . S
C1684 C1676 1.574 . S
C1684 H1679 0.949 . S
C1684 C1690 1.368 1_556 S
C1685 C1669 1.349 . S
C1685 H1677 0.950 . S
C1685 C1683 1.327 . S
C1686 C1674 1.349 . S
C1686 H1680 0.950 . S
C1686 C1687 1.327 . S
C1687 H1681 0.950 . S
C1687 C1686 1.327 . S
C1687 C1691 1.429 . S
C1688 C1671 1.574 . S
C1688 H1682 0.949 . S
C1688 C1692 1.368 1_554 S
C1689 C1670 1.429 . S
C1689 C1683 1.429 . S
C1689 C1690 1.523 . S
C1690 C1671 1.368 . S
C1690 C1684 1.368 1_554 S
C1690 C1689 1.523 . S
C1691 C1675 1.429 . S
C1691 C1687 1.429 . S
C1691 C1692 1.523 . S
C1692 C1676 1.368 . S
C1692 C1688 1.368 1_556 S
C1692 C1691 1.523 . S
H1693 C1668 0.950 . S
H1694 C1670 0.950 . S
H1695 C1671 0.949 . S
H1696 C1673 0.950 . S
H1697 C1675 0.950 . S
C1698 C1699 1.349 . S
C1698 C1700 1.327 . S
C1698 H1723 0.950 . S
C1699 C1698 1.349 . S
C1699 C1715 1.349 . S
C1700 C1698 1.327 . S
C1700 C1719 1.429 . S
C1700 H1724 0.950 . S
C1701 C1718 1.574 1_554 S
C1701 C1720 1.368 . S
C1701 H1725 0.949 . S
H1702 C1706 0.949 . S
C1703 C1704 1.349 . S
C1703 C1705 1.327 . S
C1703 H1726 0.950 . S
C1704 C1703 1.349 . S
C1704 C1716 1.349 . S
C1705 C1703 1.327 . S
C1705 C1721 1.429 . S
C1705 H1727 0.950 . S
C1706 H1702 0.949 . S
C1706 C1714 1.574 1_556 S
C1706 C1722 1.368 . S
H1707 C1715 0.950 . S
H1708 C1713 0.950 . S
H1709 C1714 0.949 . S
H1710 C1716 0.950 . S
H1711 C1717 0.950 . S
H1712 C1718 0.949 . S
C1713 H1708 0.950 . S
C1713 C1715 1.327 . S
C1713 C1719 1.429 . S
C1714 C1706 1.574 1_554 S
C1714 H1709 0.949 . S
C1714 C1720 1.368 . S
C1715 C1699 1.349 . S
C1715 H1707 0.950 . S
C1715 C1713 1.327 . S
C1716 C1704 1.349 . S
C1716 H1710 0.950 . S
C1716 C1717 1.327 . S
C1717 H1711 0.950 . S
C1717 C1716 1.327 . S
C1717 C1721 1.429 . S
C1718 C1701 1.574 1_556 S
C1718 H1712 0.949 . S
C1718 C1722 1.368 . S
C1719 C1700 1.429 . S
C1719 C1713 1.429 . S
C1719 C1720 1.523 . S
C1720 C1701 1.368 . S
C1720 C1714 1.368 . S
C1720 C1719 1.523 . S
C1721 C1705 1.429 . S
C1721 C1717 1.429 . S
C1721 C1722 1.523 . S
C1722 C1706 1.368 . S
C1722 C1718 1.368 . S
C1722 C1721 1.523 . S
H1723 C1698 0.950 . S
H1724 C1700 0.950 . S
H1725 C1701 0.949 . S
H1726 C1703 0.950 . S
H1727 C1705 0.950 . S
C529 N101 1.383 . S
C534 C7 1.508 . S
C559 C40 1.508 . S
C564 N2 1.383 . S
C589 C73 1.508 . S
C594 N35 1.383 . S
C619 C106 1.508 . S
C624 N68 1.383 . S
C649 N167 1.383 . S
C654 C139 1.508 . S
C679 N200 1.383 . S
C684 C172 1.508 . S
C709 C205 1.508 . S
C714 N233 1.383 . S
C739 N134 1.383 . S
C744 C238 1.508 . S
C769 C271 1.508 . S
C774 N365 1.383 . S
C799 C304 1.508 . S
C804 N266 1.383 . S
C829 N299 1.383 . S
C834 C337 1.508 . S
C859 C370 1.508 . S
C864 N332 1.383 . S
C889 N431 1.383 . S
C894 C403 1.508 . S
C919 C436 1.508 . S
C924 N464 1.383 . S
C949 C469 1.508 . S
C954 N497 1.383 . S
C979 C502 1.508 . S
C984 N398 1.383 . S
C1009 C21 1.580 . S
C1014 C186 1.580 . S
C1039 C54 1.580 . S
C1044 C219 1.580 . S
C1069 C252 1.580 . S
C1074 C87 1.580 . S
C1099 C120 1.580 . S
C1104 C153 1.580 . S
C1129 C450 1.580 . S
C1134 C285 1.580 . S
C1159 C483 1.580 . S
C1164 C318 1.580 . S
C1189 C351 1.580 . S
C1194 C516 1.580 . S
C1219 C417 1.580 . S
C1224 C384 1.580 . S
C1249 N13 1.016 . S
C1254 C381 1.024 . S
C1279 N46 1.016 . S
C1284 C282 1.024 . S
C1309 N79 1.016 . S
C1314 C315 1.024 . S
C1339 N112 1.016 . S
C1344 C348 1.024 . S
C1369 C447 1.024 . S
C1374 N145 1.016 . S
C1399 N178 1.016 . S
C1404 C480 1.024 . S
C1429 C513 1.024 . S
C1434 N211 1.016 . S
C1459 N244 1.016 . S
C1464 C414 1.024 . S
C1489 C117 1.024 . S
C1494 N277 1.016 . S
C1519 C18 1.024 . S
C1524 N310 1.016 . S
C1549 C51 1.024 . S
C1554 N343 1.016 . S
C1579 C84 1.024 . S
C1584 N376 1.016 . S
C1609 C183 1.024 . S
C1614 N409 1.016 . S
C1639 N442 1.016 . S
C1644 C216 1.024 . S
C1669 C249 1.024 . S
C1674 N475 1.016 . S
C1699 C150 1.024 . S
C1704 N508 1.016 . S
