# Generated by pormake.
# Topology mmt, (4)-cn, num edge types: 1
# Building blocks:
#     Node 0, Type 0, BuildingBlock: QUQFOY_clean_sbu_1, # of connection points: 4
#     Node 1, Type 0, BuildingBlock: QUQFOY_clean_sbu_1, # of connection points: 4
#     Node 2, Type 0, BuildingBlock: QUQFOY_clean_sbu_1, # of connection points: 4
#     Node 3, Type 0, BuildingBlock: QUQFOY_clean_sbu_1, # of connection points: 4
#     Node 4, Type 0, BuildingBlock: QUQFOY_clean_sbu_1, # of connection points: 4
#     Node 5, Type 0, BuildingBlock: QUQFOY_clean_sbu_1, # of connection points: 4
#     Node 6, Type 0, BuildingBlock: QUQFOY_clean_sbu_1, # of connection points: 4
#     Node 7, Type 0, BuildingBlock: QUQFOY_clean_sbu_1, # of connection points: 4
#     Edge 8, Type (0, 0), BuildingBlock: TEMPAE_clean_linker_10, # of connection points: 2
#     Edge 9, Type (0, 0), BuildingBlock: TEMPAE_clean_linker_10, # of connection points: 2
#     Edge 10, Type (0, 0), BuildingBlock: TEMPAE_clean_linker_10, # of connection points: 2
#     Edge 11, Type (0, 0), BuildingBlock: TEMPAE_clean_linker_10, # of connection points: 2
#     Edge 12, Type (0, 0), BuildingBlock: TEMPAE_clean_linker_10, # of connection points: 2
#     Edge 13, Type (0, 0), BuildingBlock: TEMPAE_clean_linker_10, # of connection points: 2
#     Edge 14, Type (0, 0), BuildingBlock: TEMPAE_clean_linker_10, # of connection points: 2
#     Edge 15, Type (0, 0), BuildingBlock: TEMPAE_clean_linker_10, # of connection points: 2
#     Edge 16, Type (0, 0), BuildingBlock: TEMPAE_clean_linker_10, # of connection points: 2
#     Edge 17, Type (0, 0), BuildingBlock: TEMPAE_clean_linker_10, # of connection points: 2
#     Edge 18, Type (0, 0), BuildingBlock: TEMPAE_clean_linker_10, # of connection points: 2
#     Edge 19, Type (0, 0), BuildingBlock: TEMPAE_clean_linker_10, # of connection points: 2
#     Edge 20, Type (0, 0), BuildingBlock: TEMPAE_clean_linker_10, # of connection points: 2
#     Edge 21, Type (0, 0), BuildingBlock: TEMPAE_clean_linker_10, # of connection points: 2
#     Edge 22, Type (0, 0), BuildingBlock: TEMPAE_clean_linker_10, # of connection points: 2
#     Edge 23, Type (0, 0), BuildingBlock: TEMPAE_clean_linker_10, # of connection points: 2
# Relax obj value: 0.022
# Max RMSD: 0.102
# Mean RMSD: 0.102
data_MOF--net-mmt--node1-QUQFOY_clean_sbu_1--edge1-TEMPAE_clean_linker_10
_symmetry_space_group_name_H-M    P1
_symmetry_Int_Tables_number       1
_symmetry_cell_setting            triclinic
loop_
_symmetry_equiv_pos_as_xyz
'x, y, z'
_cell_length_a     22.079419
_cell_length_b     42.86161
_cell_length_c     46.994461
_cell_angle_alpha  90.075518
_cell_angle_beta   90.002524
_cell_angle_gamma 89.97436
loop_
_atom_site_label
_atom_site_type_symbol
_atom_site_fract_x
_atom_site_fract_y
_atom_site_fract_z
_atom_type_partial_charge
O0 O 0.22645 0.55831 0.33152 0.0
Cd1 Cd 0.15933 0.59131 0.33641 0.0
Cd2 Cd 0.10614 0.5391 0.36374 0.0
O3 O 0.18129 0.51602 0.3479 0.0
O4 O 0.20186 0.62921 0.32209 0.0
O5 O 0.16449 0.62616 0.36558 0.0
C6 C 0.19341 0.64196 0.34657 0.0
C7 C 0.07458 0.52851 0.41023 0.0
C8 C 0.22633 0.52907 0.33599 0.0
C9 C 0.03928 0.5689 0.31428 0.0
O10 O 0.03898 0.54988 0.335 0.0
O11 O 0.08405 0.58703 0.31033 0.0
O12 O 0.0645 0.50923 0.38974 0.0
O13 O 0.10379 0.55386 0.40454 0.0
O14 O 0.28512 0.94418 0.3215 0.0
Cd15 Cd 0.35468 0.9175 0.33766 0.0
Cd16 Cd 0.36471 0.97088 0.36772 0.0
O17 O 0.27833 0.98093 0.35413 0.0
O18 O 0.33442 0.87617 0.32068 0.0
O19 O 0.34115 0.88359 0.36708 0.0
C20 C 0.32946 0.86516 0.34603 0.0
C21 C 0.39439 0.9793 0.41479 0.0
C22 C 0.25888 0.96816 0.33153 0.0
C23 C 0.45553 0.95742 0.32108 0.0
O24 O 0.42978 0.97757 0.33686 0.0
O25 O 0.43799 0.92919 0.32112 0.0
O26 O 0.38233 1.00222 0.39801 0.0
O27 O 0.3882 0.95126 0.40506 0.0
O28 O 0.72623 0.45948 0.18759 0.0
Cd29 Cd 0.65888 0.42667 0.18245 0.0
Cd30 Cd 0.60626 0.4791 0.15521 0.0
O31 O 0.68166 0.5019 0.17109 0.0
O32 O 0.7008 0.38853 0.19667 0.0
O33 O 0.66396 0.39198 0.15311 0.0
C34 C 0.69243 0.37594 0.17212 0.0
C35 C 0.57483 0.48988 0.10873 0.0
C36 C 0.72645 0.48872 0.18311 0.0
C37 C 0.53893 0.44932 0.20453 0.0
O38 O 0.53895 0.46848 0.18391 0.0
O39 O 0.58345 0.43099 0.20841 0.0
O40 O 0.56494 0.50916 0.12925 0.0
O41 O 0.60377 0.46443 0.11438 0.0
O42 O 0.78462 0.07238 0.19508 0.0
Cd43 Cd 0.85359 0.10026 0.18001 0.0
Cd44 Cd 0.8675 0.04568 0.15021 0.0
O45 O 0.78289 0.03327 0.16448 0.0
O46 O 0.82935 0.14111 0.19686 0.0
O47 O 0.84062 0.13429 0.1506 0.0
C48 C 0.82621 0.15235 0.17154 0.0
C49 C 0.89873 0.03478 0.10376 0.0
C50 C 0.76118 0.04715 0.18609 0.0
C51 C 0.95606 0.0624 0.1978 0.0
O52 O 0.93293 0.04218 0.18127 0.0
O53 O 0.93615 0.0902 0.19824 0.0
O54 O 0.89427 0.0131 0.12258 0.0
O55 O 0.8835 0.06281 0.11092 0.0
O56 O 0.76879 0.45256 0.68876 0.0
Cd57 Cd 0.84063 0.42245 0.68374 0.0
Cd58 Cd 0.88616 0.4748 0.65433 0.0
O59 O 0.80612 0.49466 0.66826 0.0
O60 O 0.8058 0.38341 0.69992 0.0
O61 O 0.83777 0.38658 0.65554 0.0
C62 C 0.81317 0.37028 0.67553 0.0
C63 C 0.91675 0.48299 0.60732 0.0
C64 C 0.76411 0.48113 0.68198 0.0
C65 C 0.9564 0.45188 0.70523 0.0
O66 O 0.95352 0.47063 0.68432 0.0
O67 O 0.91593 0.43114 0.70888 0.0
O68 O 0.91697 0.50529 0.62572 0.0
O69 O 0.89853 0.45579 0.61546 0.0
O70 O 0.72097 0.06197 0.68562 0.0
Cd71 Cd 0.65236 0.09428 0.68227 0.0
Cd72 Cd 0.59885 0.04179 0.65467 0.0
O73 O 0.67554 0.01948 0.66969 0.0
O74 O 0.69389 0.13211 0.69746 0.0
O75 O 0.65538 0.13017 0.65417 0.0
C76 C 0.68431 0.14561 0.67346 0.0
C77 C 0.56447 0.02981 0.60881 0.0
C78 C 0.72106 0.03275 0.68101 0.0
C79 C 0.5343 0.07016 0.70543 0.0
O80 O 0.53289 0.05178 0.68421 0.0
O81 O 0.57898 0.0884 0.70924 0.0
O82 O 0.55722 0.01078 0.62971 0.0
O83 O 0.59251 0.05571 0.61371 0.0
O84 O 0.26819 0.56633 0.83061 0.0
Cd85 Cd 0.33976 0.59666 0.83517 0.0
Cd86 Cd 0.38626 0.54445 0.86477 0.0
O87 O 0.30651 0.5243 0.85086 0.0
O88 O 0.30387 0.63535 0.81874 0.0
O89 O 0.33705 0.63292 0.86297 0.0
C90 C 0.31163 0.64882 0.84294 0.0
C91 C 0.41709 0.53613 0.91174 0.0
C92 C 0.26408 0.53773 0.83733 0.0
C93 C 0.45578 0.56742 0.81367 0.0
O94 O 0.45345 0.54889 0.83475 0.0
O95 O 0.41484 0.58791 0.80988 0.0
O96 O 0.41757 0.51393 0.89325 0.0
O97 O 0.39852 0.56332 0.90372 0.0
O98 O 0.22197 0.9562 0.8291 0.0
Cd99 Cd 0.1515 0.92525 0.83425 0.0
Cd100 Cd 0.1042 0.97793 0.86349 0.0
O101 O 0.18443 0.99799 0.85016 0.0
O102 O 0.18836 0.8866 0.81812 0.0
O103 O 0.15597 0.88952 0.86247 0.0
C104 C 0.18142 0.87348 0.84251 0.0
C105 C 0.07144 0.98648 0.9101 0.0
C106 C 0.22648 0.9847 0.83623 0.0
C107 C 0.03462 0.95344 0.81274 0.0
O108 O 0.03776 0.9729 0.83314 0.0
O109 O 0.07523 0.93268 0.80943 0.0
O110 O 0.07193 1.00864 0.89163 0.0
O111 O 0.0903 0.95924 0.90232 0.0
C112 C 0.33134 0.52461 0.31707 0.0
C113 C 0.27636 0.51016 0.32401 0.0
C114 C 0.37496 0.50921 0.30058 0.0
C115 C 0.36313 0.47866 0.29052 0.0
C116 C 0.30977 0.46304 0.29925 0.0
C117 C 0.26698 0.47897 0.31604 0.0
C118 C 0.43171 0.52659 0.29218 0.0
C119 C 0.29566 0.43042 0.28913 0.0
C120 C 0.435 0.46621 0.21843 0.0
C121 C 0.48917 0.45108 0.22562 0.0
C122 C 0.39154 0.47329 0.23918 0.0
C123 C 0.40266 0.46527 0.26793 0.0
C124 C 0.45522 0.44802 0.27505 0.0
C125 C 0.49788 0.44101 0.25374 0.0
C126 C 0.33561 0.49127 0.23055 0.0
C127 C 0.46854 0.43891 0.30541 0.0
H128 H 0.3392 0.54858 0.32349 0.0
H129 H 0.22457 0.46764 0.32133 0.0
H130 H 0.4723 0.51181 0.29563 0.0
H131 H 0.42979 0.53235 0.26918 0.0
H132 H 0.43733 0.54863 0.30436 0.0
H133 H 0.25869 0.41957 0.30173 0.0
H134 H 0.28129 0.43126 0.26651 0.0
H135 H 0.3364 0.41533 0.29033 0.0
H136 H 0.42757 0.47369 0.19668 0.0
H137 H 0.53962 0.42926 0.25947 0.0
H138 H 0.3382 0.51534 0.2392 0.0
H139 H 0.29443 0.48021 0.23953 0.0
H140 H 0.33054 0.49272 0.20707 0.0
H141 H 0.48315 0.45985 0.31749 0.0
H142 H 0.50505 0.42112 0.30673 0.0
H143 H 0.42736 0.42965 0.31594 0.0
C144 C 0.04767 0.0706 0.22854 0.0
C145 C -0.00035 0.05176 0.21944 0.0
C146 C 0.08947 0.05946 0.24874 0.0
C147 C 0.08144 0.02933 0.26059 0.0
C148 C 0.03116 0.01099 0.2524 0.0
C149 C 0.99149 0.02223 0.23162 0.0
C150 C 0.14346 0.07931 0.25646 0.0
C151 C 0.0201 0.97906 0.26498 0.0
C152 C 0.21434 0.98041 0.28445 0.0
C153 C 0.21218 0.98374 0.31412 0.0
C154 C 0.1737 0.99629 0.26685 0.0
C155 C 0.12846 0.01533 0.27922 0.0
C156 C 0.12579 0.01882 0.30919 0.0
C157 C 0.16845 1.0033 0.32634 0.0
C158 C 0.17889 0.99242 0.23496 0.0
C159 C 0.07709 0.03827 0.32311 0.0
H160 H 0.05363 0.09351 0.21921 0.0
H161 H 0.95347 1.00792 0.22504 0.0
H162 H 0.14744 0.08153 0.2799 0.0
H163 H 0.18547 0.06787 0.24873 0.0
H164 H 0.14074 0.10303 0.24705 0.0
H165 H 0.97536 0.96938 0.25873 0.0
H166 H 0.05583 0.96269 0.2577 0.0
H167 H 0.02245 0.9801 0.28855 0.0
H168 H 0.2489 0.96583 0.27483 0.0
H169 H 0.16702 1.00605 0.34927 0.0
H170 H 0.18051 0.01558 0.22447 0.0
H171 H 0.13845 0.98002 0.22669 0.0
H172 H 0.21986 0.979 0.22871 0.0
H173 H 0.07734 0.06226 0.31429 0.0
H174 H 0.08274 0.03966 0.34656 0.0
H175 H 0.032 0.02807 0.31839 0.0
C176 C 0.83114 0.49283 0.20251 0.0
C177 C 0.77661 0.5075 0.19513 0.0
C178 C 0.87481 0.50826 0.21894 0.0
C179 C 0.86353 0.53908 0.22846 0.0
C180 C 0.81065 0.55486 0.2193 0.0
C181 C 0.76778 0.53888 0.2026 0.0
C182 C 0.93105 0.49069 0.22781 0.0
C183 C 0.79713 0.58775 0.22885 0.0
C184 C 0.93502 0.55253 0.30048 0.0
C185 C 0.9896 0.56714 0.29315 0.0
C186 C 0.89155 0.54534 0.27977 0.0
C187 C 0.90312 0.55269 0.25091 0.0
C188 C 0.95615 0.56944 0.24362 0.0
C189 C -0.00121 0.5766 0.26489 0.0
C190 C 0.83514 0.52791 0.28858 0.0
C191 C 0.96997 0.57783 0.21313 0.0
H192 H 0.83861 0.4687 0.19648 0.0
H193 H 0.72573 0.55038 0.19697 0.0
H194 H 0.97202 0.50512 0.22421 0.0
H195 H 0.92872 0.48545 0.25091 0.0
H196 H 0.9363 0.46834 0.21606 0.0
H197 H 0.7605 0.59857 0.21599 0.0
H198 H 0.78255 0.58746 0.25144 0.0
H199 H 0.83819 0.60257 0.22747 0.0
H200 H 0.92725 0.54553 0.32234 0.0
H201 H 0.04086 0.58794 0.25905 0.0
H202 H 0.83727 0.50364 0.28039 0.0
H203 H 0.7943 0.53903 0.2793 0.0
H204 H 0.82978 0.52701 0.31207 0.0
H205 H 0.9842 0.55655 0.20144 0.0
H206 H 0.0069 0.59534 0.21158 0.0
H207 H 0.9291 0.58715 0.20234 0.0
C208 C 0.71893 0.03509 0.23353 0.0
C209 C 0.71508 0.0318 0.2039 0.0
C210 C 0.6779 0.02012 0.25156 0.0
C211 C 0.63055 1.00215 0.23966 0.0
C212 C 0.6264 0.99858 0.20972 0.0
C213 C 0.66955 0.01308 0.19212 0.0
C214 C 0.68486 0.02391 0.28338 0.0
C215 C 0.57549 0.98024 0.19632 0.0
C216 C 0.54714 0.94842 0.29064 0.0
C217 C 0.50048 0.96804 0.30003 0.0
C218 C 0.58938 0.95888 0.2704 0.0
C219 C 0.5833 0.98921 0.25877 0.0
C220 C 0.53477 1.00856 0.26744 0.0
C221 C 0.49456 0.99792 0.28827 0.0
C222 C 0.6416 0.93797 0.26224 0.0
C223 C 0.52593 0.04079 0.25511 0.0
H224 H 0.75498 0.04901 0.24273 0.0
H225 H 0.66688 0.01042 0.16921 0.0
H226 H 0.64597 0.03729 0.29203 0.0
H227 H 0.68487 1.00075 0.2939 0.0
H228 H 0.72727 0.03632 0.28919 0.0
H229 H 0.58013 0.97859 0.17283 0.0
H230 H 0.57391 0.95633 0.20527 0.0
H231 H 0.53156 0.99157 0.20135 0.0
H232 H 0.55146 0.92525 0.29965 0.0
H233 H 0.45768 0.0129 0.29506 0.0
H234 H 0.68479 0.94873 0.26928 0.0
H235 H 0.64401 0.93538 0.23879 0.0
H236 H 0.6379 0.91442 0.27194 0.0
H237 H 0.5635 0.05623 0.26197 0.0
H238 H 0.48247 0.05152 0.26193 0.0
H239 H 0.52686 0.03979 0.23152 0.0
C240 C 0.4933 0.57073 0.7635 0.0
C241 C 0.50365 0.56282 0.79205 0.0
C242 C 0.5342 0.56168 0.7421 0.0
C243 C 0.58697 0.54481 0.74958 0.0
C244 C 0.59951 0.53866 0.7786 0.0
C245 C 0.55743 0.54748 0.79944 0.0
C246 C 0.51903 0.56845 0.71141 0.0
C247 C 0.65593 0.52131 0.78757 0.0
C248 C 0.65996 0.48415 0.70224 0.0
C249 C 0.7131 0.4994 0.69377 0.0
C250 C 0.61619 0.49955 0.71868 0.0
C251 C 0.62636 0.53079 0.72729 0.0
C252 C 0.67793 0.54697 0.71719 0.0
C253 C 0.72056 0.53112 0.70031 0.0
C254 C 0.5611 0.48165 0.72845 0.0
C255 C 0.69057 0.58021 0.72601 0.0
H256 H 0.45162 0.58247 0.75765 0.0
H257 H 0.5659 0.54159 0.82152 0.0
H258 H 0.55902 0.57794 0.70006 0.0
H259 H 0.50605 0.54642 0.70058 0.0
H260 H 0.48096 0.58526 0.70937 0.0
H261 H 0.66197 0.52121 0.81104 0.0
H262 H 0.65333 0.49679 0.78008 0.0
H263 H 0.6966 0.53197 0.7777 0.0
H264 H 0.65374 0.45972 0.697 0.0
H265 H 0.76171 0.543 0.69393 0.0
H266 H 0.51944 0.49567 0.72516 0.0
H267 H 0.56486 0.47679 0.75157 0.0
H268 H 0.55606 0.45908 0.71704 0.0
H269 H 0.64915 0.59472 0.72424 0.0
H270 H 0.727 0.59094 0.71298 0.0
H271 H 0.70492 0.58061 0.74864 0.0
C272 C 0.82748 0.02837 0.69802 0.0
C273 C 0.77161 0.01404 0.69261 0.0
C274 C 0.8717 0.01354 0.71457 0.0
C275 C 0.85939 0.98382 0.72634 0.0
C276 C 0.80498 0.9682 0.71913 0.0
C277 C 0.76175 0.98346 0.70215 0.0
C278 C 0.92964 0.03078 0.72125 0.0
C279 C 0.79019 0.9365 0.73122 0.0
C280 C 0.99256 0.94537 0.7637 0.0
C281 C 0.98555 0.95686 0.7915 0.0
C282 C 0.95024 0.95262 0.74235 0.0
C283 C 0.89958 0.97148 0.74911 0.0
C284 C 0.89036 0.98139 0.77755 0.0
C285 C 0.93362 0.97414 0.79832 0.0
C286 C 0.96169 0.94168 0.71229 0.0
C287 C 0.83638 1.0011 0.78578 0.0
H288 H 0.83557 0.05188 0.69041 0.0
H289 H 0.71856 0.97229 0.69809 0.0
H290 H 0.92908 0.03843 0.74382 0.0
H291 H 0.96936 0.01523 0.7184 0.0
H292 H 0.93566 0.05169 0.7076 0.0
H293 H 0.75177 0.92532 0.71985 0.0
H294 H 0.8301 0.92082 0.73014 0.0
H295 H 0.77769 0.93904 0.75397 0.0
H296 H 0.03265 0.93202 0.75827 0.0
H297 H 0.92755 0.98277 0.81983 0.0
H298 H 0.9759 0.96181 0.69906 0.0
H299 H 0.9197 0.93208 0.70273 0.0
H300 H -0.00227 0.92362 0.71129 0.0
H301 H 0.84015 0.02443 0.77572 0.0
H302 H 0.83279 1.00434 0.80918 0.0
H303 H 0.7939 0.99025 0.77796 0.0
C304 C 0.22153 0.48779 0.81847 0.0
C305 C 0.21328 0.51931 0.82558 0.0
C306 C 0.17906 0.47198 0.80148 0.0
C307 C 0.12685 0.488 0.79186 0.0
C308 C 0.1159 0.51896 0.80109 0.0
C309 C 0.15953 0.53433 0.81761 0.0
C310 C 0.19257 0.43905 0.79199 0.0
C311 C 0.06009 0.53665 0.79186 0.0
C312 C 0.05751 0.47241 0.71959 0.0
C313 C 0.00432 0.45647 0.72682 0.0
C314 C 0.09955 0.48111 0.74049 0.0
C315 C 0.08758 0.4742 0.76941 0.0
C316 C 0.03546 0.45674 0.77672 0.0
C317 C 0.99458 0.44784 0.75526 0.0
C318 C 0.15529 0.49912 0.73171 0.0
C319 C 0.02091 0.44914 0.80731 0.0
H320 H 0.26317 0.47609 0.82446 0.0
H321 H 0.15273 0.55861 0.82329 0.0
H322 H 0.15159 0.4242 0.79357 0.0
H323 H 0.20668 0.43928 0.76933 0.0
H324 H 0.22944 0.42829 0.80473 0.0
H325 H 0.05452 0.55889 0.80375 0.0
H326 H 0.06335 0.54211 0.76884 0.0
H327 H 0.01893 0.52222 0.79499 0.0
H328 H 0.06553 0.47886 0.69761 0.0
H329 H 0.95338 0.43563 0.76099 0.0
H330 H 0.19643 0.48855 0.74123 0.0
H331 H 0.15203 0.52344 0.73969 0.0
H332 H 0.16098 0.49984 0.70823 0.0
H333 H 0.06134 0.4397 0.81835 0.0
H334 H 0.98338 0.432 0.80912 0.0
H335 H 0.00742 0.47081 0.8186 0.0
C336 C 0.32991 0.98791 0.81519 0.0
C337 C 0.27763 1.00317 0.82483 0.0
C338 C 0.37361 1.00376 0.79913 0.0
C339 C 0.36442 0.03556 0.79221 0.0
C340 C 0.31399 0.05169 0.80363 0.0
C341 C 0.27125 0.03531 0.81999 0.0
C342 C 0.42741 0.98581 0.78786 0.0
C343 C 0.30259 0.08557 0.79677 0.0
C344 C 0.49875 0.07407 0.75594 0.0
C345 C 0.48639 0.06734 0.72728 0.0
C346 C 0.45779 0.0655 0.77747 0.0
C347 C 0.40314 0.05025 0.77004 0.0
C348 C 0.38849 0.04572 0.74099 0.0
C349 C 0.43046 0.05412 0.72 0.0
C350 C 0.47503 0.07075 0.80818 0.0
C351 C 0.33016 0.0301 0.73208 0.0
H352 H 0.33544 0.96315 0.81915 0.0
H353 H 0.23088 0.04725 0.82734 0.0
H354 H 0.42244 0.98248 0.76455 0.0
H355 H 0.46987 0.99905 0.7915 0.0
H356 H 0.43183 0.96249 0.79795 0.0
H357 H 0.26795 0.09602 0.81104 0.0
H358 H 0.34496 0.09934 0.79846 0.0
H359 H 0.28629 0.08754 0.77451 0.0
H360 H 0.54201 0.08422 0.76171 0.0
H361 H 0.4204 0.04921 0.69786 0.0
H362 H 0.48852 0.04819 0.81784 0.0
H363 H 0.43597 0.07982 0.82052 0.0
H364 H 0.51347 0.08731 0.81031 0.0
H365 H 0.33131 1.00515 0.73834 0.0
H366 H 0.32265 0.03142 0.70873 0.0
H367 H 0.291 0.04102 0.74303 0.0
C368 C -0.00277 0.50551 0.44253 0.0
C369 C 0.05176 0.52181 0.43913 0.0
C370 C 0.97408 0.49906 0.4697 0.0
C371 C 0.00743 0.50814 0.49408 0.0
C372 C 0.06317 0.52414 0.49073 0.0
C373 C 0.08413 0.53132 0.46325 0.0
C374 C 0.91347 0.48299 0.47231 0.0
C375 C 0.10094 0.53336 0.51616 0.0
C376 C 0.92714 0.51765 0.56512 0.0
C377 C 0.93784 0.4887 0.57798 0.0
C378 C 0.94847 0.52404 0.5376 0.0
C379 C 0.98337 0.50134 0.52305 0.0
C380 C 0.9948 0.47213 0.53611 0.0
C381 C 0.97087 0.46593 0.56325 0.0
C382 C 0.93335 0.55501 0.52405 0.0
C383 C 0.03334 0.44769 0.52167 0.0
H384 H 0.9719 0.49838 0.42385 0.0
H385 H 0.12654 0.54372 0.4606 0.0
H386 H 0.91875 0.46049 0.48366 0.0
H387 H 0.88209 0.49762 0.48507 0.0
H388 H 0.89238 0.47837 0.45126 0.0
H389 H 0.1446 0.54424 0.50989 0.0
H390 H 0.07556 0.55012 0.52964 0.0
H391 H 0.11058 0.51254 0.52943 0.0
H392 H 0.90129 0.53521 0.57648 0.0
H393 H 0.97972 0.44367 0.57336 0.0
H394 H 0.91069 0.55116 0.50325 0.0
H395 H 0.97548 0.5683 0.51984 0.0
H396 H 0.90326 0.56949 0.53766 0.0
H397 H 0.01226 0.44053 0.50126 0.0
H398 H 0.03964 0.42661 0.53508 0.0
H399 H 0.07852 0.45756 0.51658 0.0
C400 C 0.40033 0.01287 0.45809 0.0
C401 C 0.41681 0.98535 0.44392 0.0
C402 C 0.42351 0.01989 0.48516 0.0
C403 C 0.46574 0.99937 0.49797 0.0
C404 C 0.48269 0.97157 0.48369 0.0
C405 C 0.45724 0.96464 0.45699 0.0
C406 C 0.40278 0.04926 0.50005 0.0
C407 C 0.52869 0.94949 0.49631 0.0
C408 C 0.56661 0.03406 0.55565 0.0
C409 C 0.53984 0.02217 0.58038 0.0
C410 C 0.54378 0.02628 0.52862 0.0
C411 C 0.49183 1.00699 0.52639 0.0
C412 C 0.46416 0.99536 0.55139 0.0
C413 C 0.48907 1.00269 0.57804 0.0
C414 C 0.57549 0.03848 0.50244 0.0
C415 C 0.40768 0.97554 0.55002 0.0
H416 H 0.36886 0.02886 0.44805 0.0
H417 H 0.47057 0.94353 0.4459 0.0
H418 H 0.38408 0.04343 0.52131 0.0
H419 H 0.44183 0.06508 0.50348 0.0
H420 H 0.36764 0.06199 0.48775 0.0
H421 H 0.53797 0.92921 0.48223 0.0
H422 H 0.57183 0.96206 0.50024 0.0
H423 H 0.51246 0.9407 0.51714 0.0
H424 H 0.60611 0.04895 0.55742 0.0
H425 H 0.46794 0.99368 0.59716 0.0
H426 H 0.54442 0.05372 0.49018 0.0
H427 H 0.58835 0.01876 0.48835 0.0
H428 H 0.61689 0.052 0.50777 0.0
H429 H 0.37125 0.98838 0.53872 0.0
H430 H 0.39091 0.96895 0.57147 0.0
H431 H 0.41673 0.95392 0.53775 0.0
C432 C 0.49761 0.51311 0.07647 0.0
C433 C 0.55207 0.4967 0.07984 0.0
C434 C 0.4745 0.51966 0.04931 0.0
C435 C 0.50782 0.5106 0.02492 0.0
C436 C 0.5635 0.49451 0.02823 0.0
C437 C 0.58441 0.48721 0.05571 0.0
C438 C 0.41395 0.53582 0.04673 0.0
C439 C 0.60126 0.4853 1.00279 0.0
C440 C 0.42748 0.50134 0.95386 0.0
C441 C 0.43822 0.53032 0.94106 0.0
C442 C 0.44882 0.49487 0.98136 0.0
C443 C 0.48378 0.51749 0.99596 0.0
C444 C 0.49527 0.54673 0.98296 0.0
C445 C 0.47132 0.55302 0.95583 0.0
C446 C 0.43362 0.46388 0.99485 0.0
C447 C 0.53389 0.57109 0.99744 0.0
H448 H 0.4723 0.52022 0.09516 0.0
H449 H 0.62677 0.47474 0.05833 0.0
H450 H 0.4193 0.55834 0.03542 0.0
H451 H 0.38251 0.52126 0.03393 0.0
H452 H 0.39287 0.54042 0.06778 0.0
H453 H 0.64489 0.47436 0.00904 0.0
H454 H 0.57584 0.4686 0.98928 0.0
H455 H 0.61094 0.50614 0.98956 0.0
H456 H 0.40159 0.48385 0.94246 0.0
H457 H 0.4802 0.5753 0.94577 0.0
H458 H 0.41098 0.4677 0.01565 0.0
H459 H 0.47571 0.45054 0.99903 0.0
H460 H 0.40349 0.44947 0.98121 0.0
H461 H 0.51283 0.57823 0.01785 0.0
H462 H 0.54026 0.59218 0.98406 0.0
H463 H 0.57904 0.56114 1.00252 0.0
C464 C 0.00815 0.97146 0.95185 0.0
C465 C 0.04852 0.99234 0.93907 0.0
C466 C 0.98197 0.97826 0.97842 0.0
C467 C -0.00131 1.00595 0.99297 0.0
C468 C 0.04108 0.02658 0.98043 0.0
C469 C 0.06443 0.01985 0.95332 0.0
C470 C 0.93538 0.95623 0.99059 0.0
C471 C 0.06205 0.05565 0.9957 0.0
C472 C 0.89801 0.04056 0.0508 0.0
C473 C 0.92357 0.02765 0.07536 0.0
C474 C 0.92098 0.03303 0.02373 0.0
C475 C 0.9723 0.01327 0.02139 0.0
C476 C -0.00102 1.0008 0.04631 0.0
C477 C 0.97345 1.00761 0.07294 0.0
C478 C 0.88993 0.04588 0.99763 0.0
C479 C 0.05513 0.98071 0.04489 0.0
H480 H -0.0047 0.9504 0.94057 0.0
H481 H 0.09585 0.03593 0.94337 0.0
H482 H 0.95129 0.94684 0.01125 0.0
H483 H 0.89253 0.96901 0.99473 0.0
H484 H 0.92567 0.93634 0.97611 0.0
H485 H 0.09786 0.06825 0.98374 0.0
H486 H 0.02331 0.07173 0.99899 0.0
H487 H 0.07995 0.04949 0.01704 0.0
H488 H 0.85915 0.05588 0.05274 0.0
H489 H 0.99352 0.99789 0.09204 0.0
H490 H 0.87721 0.02651 0.98313 0.0
H491 H 0.92135 0.06131 0.98579 0.0
H492 H 0.84854 0.0594 1.00302 0.0
H493 H 0.04579 0.9592 0.03252 0.0
H494 H 0.07168 0.97391 0.06633 0.0
H495 H 0.09183 0.99344 0.03369 0.0
C496 C 0.26918 0.68389 0.33843 0.0
C497 C 0.21636 0.67377 0.35211 0.0
C498 C 0.28951 0.71473 0.34121 0.0
C499 C 0.25508 0.73631 0.35733 0.0
C500 C 0.20258 0.72597 0.37193 0.0
C501 C 0.18429 0.69462 0.36947 0.0
C502 C 0.34657 0.7245 0.3259 0.0
C503 C 0.16382 0.74839 0.38874 0.0
C504 C 0.32734 0.81514 0.37383 0.0
C505 C 0.30847 0.83276 0.35034 0.0
C506 C 0.30962 0.78373 0.37678 0.0
C507 C 0.27072 0.77012 0.35621 0.0
C508 C 0.24963 0.78837 0.33315 0.0
C509 C 0.2695 0.81925 0.33028 0.0
C510 C 0.3343 0.76482 0.40123 0.0
C511 C 0.20695 0.77509 0.31111 0.0
H512 H 0.29444 0.66768 0.32525 0.0
H513 H 0.14327 0.68682 0.37995 0.0
H514 H 0.33482 0.74017 0.30796 0.0
H515 H 0.37671 0.73772 0.34046 0.0
H516 H 0.37198 0.7042 0.31728 0.0
H517 H 0.12792 0.73622 0.40101 0.0
H518 H 0.19204 0.76216 0.4037 0.0
H519 H 0.1419 0.76514 0.37398 0.0
H520 H 0.35759 0.82556 0.38932 0.0
H521 H 0.25415 0.83297 0.3123 0.0
H522 H 0.36375 0.74593 0.39285 0.0
H523 H 0.29683 0.7535 0.41306 0.0
H524 H 0.36111 0.77926 0.4163 0.0
H525 H 0.23031 0.75662 0.29872 0.0
H526 H 0.19043 0.79315 0.29605 0.0
H527 H 0.16729 0.76417 0.32163 0.0
C528 C 0.76414 0.19782 0.18663 0.0
C529 C 0.80484 0.18468 0.16712 0.0
C530 C 0.74452 0.22877 0.18389 0.0
C531 C 0.76755 0.24743 0.16154 0.0
C532 C 0.80798 0.23416 0.14144 0.0
C533 C 0.82551 0.2027 0.14424 0.0
C534 C 0.70023 0.24169 0.2054 0.0
C535 C 0.83463 0.2535 0.11775 0.0
C536 C 0.68363 0.32374 0.1483 0.0
C537 C 0.71491 0.34404 0.16649 0.0
C538 C 0.7014 0.29232 0.14559 0.0
C539 C 0.75256 0.28135 0.16084 0.0
C540 C 0.78624 0.30236 0.17789 0.0
C541 C 0.76647 0.33328 0.18083 0.0
C542 C 0.66348 0.27052 0.12773 0.0
C543 C 0.84189 0.29189 0.19396 0.0
H544 H 0.74744 0.18379 0.20414 0.0
H545 H 0.8571 0.19257 0.12918 0.0
H546 H 0.72282 0.25974 0.21858 0.0
H547 H 0.66162 0.25306 0.1944 0.0
H548 H 0.68223 0.22334 0.21977 0.0
H549 H 0.86206 0.23925 0.10277 0.0
H550 H 0.79821 0.26537 0.10564 0.0
H551 H 0.86399 0.27195 0.12693 0.0
H552 H 0.64359 0.33201 0.13728 0.0
H553 H 0.79116 0.34906 0.19467 0.0
H554 H 0.64017 0.25357 0.1418 0.0
H555 H 0.69253 0.25692 0.11299 0.0
H556 H 0.62874 0.28317 0.11512 0.0
H557 H 0.82847 0.27581 0.21133 0.0
H558 H 0.86694 0.31182 0.20347 0.0
H559 H 0.87294 0.27891 0.17965 0.0
C560 C 0.67615 0.19801 0.64995 0.0
C561 C 0.70607 0.17783 0.66873 0.0
C562 C 0.69352 0.22951 0.64771 0.0
C563 C 0.74281 0.24075 0.66413 0.0
C564 C 0.77507 0.21994 0.68192 0.0
C565 C 0.75583 0.18888 0.68427 0.0
C566 C 0.65729 0.25109 0.62891 0.0
C567 C 0.82862 0.23073 0.69935 0.0
C568 C 0.817 0.31933 0.64902 0.0
C569 C 0.79299 0.3377 0.671 0.0
C570 C 0.80011 0.28782 0.64598 0.0
C571 C 0.75735 0.2747 0.66501 0.0
C572 C 0.7313 0.29359 0.6865 0.0
C573 C 0.74988 0.3247 0.6894 0.0
C574 C 0.82963 0.26829 0.62312 0.0
C575 C 0.68482 0.28074 0.70696 0.0
H576 H 0.63756 0.18953 0.63797 0.0
H577 H 0.77957 0.17323 0.69855 0.0
H578 H 0.63261 0.26821 0.64233 0.0
H579 H 0.68775 0.26451 0.61471 0.0
H580 H 0.62384 0.23828 0.61566 0.0
H581 H 0.85262 0.211 0.70972 0.0
H582 H 0.86128 0.24352 0.68573 0.0
H583 H 0.81306 0.24708 0.71614 0.0
H584 H 0.85038 0.32929 0.63476 0.0
H585 H 0.73057 0.33889 0.70623 0.0
H586 H 0.79472 0.25635 0.6101 0.0
H587 H 0.85782 0.24989 0.63314 0.0
H588 H 0.85884 0.28242 0.60884 0.0
H589 H 0.64747 0.26931 0.69508 0.0
H590 H 0.66524 0.29914 0.72088 0.0
H591 H 0.70603 0.26274 0.72067 0.0
C592 C 0.31794 0.70076 0.8676 0.0
C593 C 0.29093 0.68133 0.84722 0.0
C594 C 0.30079 0.7323 0.87007 0.0
C595 C 0.25462 0.74433 0.85221 0.0
C596 C 0.22546 0.72433 0.83252 0.0
C597 C 0.24447 0.69324 0.83003 0.0
C598 C 0.33376 0.75303 0.89091 0.0
C599 C 0.17523 0.73598 0.81346 0.0
C600 C 0.17614 0.8218 0.86752 0.0
C601 C 0.20282 0.84113 0.84702 0.0
C602 C 0.19361 0.79032 0.8701 0.0
C603 C 0.23978 0.77827 0.85222 0.0
C604 C 0.2687 0.79821 0.83245 0.0
C605 C 0.24936 0.82923 0.82986 0.0
C606 C 0.16088 0.76966 0.89103 0.0
C607 C 0.31892 0.78654 0.81337 0.0
H608 H 0.35394 0.69162 0.88088 0.0
H609 H 0.22289 0.67819 0.81449 0.0
H610 H 0.35994 0.77092 0.8791 0.0
H611 H 0.30099 0.7656 0.90467 0.0
H612 H 0.36547 0.73969 0.90465 0.0
H613 H 0.15347 0.71681 0.80125 0.0
H614 H 0.14002 0.74802 0.82626 0.0
H615 H 0.19361 0.75322 0.79813 0.0
H616 H 0.14006 0.83093 0.88078 0.0
H617 H 0.27067 0.84422 0.81422 0.0
H618 H 0.1938 0.75712 0.9047 0.0
H619 H 0.13453 0.75176 0.87928 0.0
H620 H 0.12936 0.78305 0.90485 0.0
H621 H 0.35415 0.77453 0.82614 0.0
H622 H 0.34065 0.8057 0.80118 0.0
H623 H 0.30052 0.76929 0.79802 0.0
loop_
_geom_bond_atom_site_label_1
_geom_bond_atom_site_label_2
_geom_bond_distance
_geom_bond_site_symmetry_2
_ccdc_geom_bond_type
O0 Cd1 2.223 . S
O0 C8 1.315 . S
Cd1 O0 2.223 . S
Cd1 O4 2.297 . S
Cd1 O5 2.439 . S
Cd1 O11 2.240 . S
Cd2 O3 2.240 . S
Cd2 O10 2.223 . S
Cd2 O12 2.297 . S
Cd2 O13 2.439 . S
O3 Cd2 2.240 . S
O3 C8 1.279 . S
O4 Cd1 2.297 . S
O4 C6 1.247 . S
O5 Cd1 2.439 . S
O5 C6 1.208 . S
C6 O4 1.247 . S
C6 O5 1.208 . S
C7 O12 1.247 . S
C7 O13 1.208 . S
C8 O0 1.315 . S
C8 O3 1.279 . S
C9 O10 1.315 . S
C9 O11 1.279 . S
O10 Cd2 2.223 . S
O10 C9 1.315 . S
O11 Cd1 2.240 . S
O11 C9 1.279 . S
O12 Cd2 2.297 . S
O12 C7 1.247 . S
O13 Cd2 2.439 . S
O13 C7 1.208 . S
O14 Cd15 2.223 . S
O14 C22 1.315 . S
Cd15 O14 2.223 . S
Cd15 O18 2.297 . S
Cd15 O19 2.439 . S
Cd15 O25 2.240 . S
Cd16 O17 2.240 . S
Cd16 O24 2.223 . S
Cd16 O26 2.297 . S
Cd16 O27 2.439 . S
O17 Cd16 2.240 . S
O17 C22 1.279 . S
O18 Cd15 2.297 . S
O18 C20 1.247 . S
O19 Cd15 2.439 . S
O19 C20 1.208 . S
C20 O18 1.247 . S
C20 O19 1.208 . S
C21 O26 1.247 . S
C21 O27 1.208 . S
C22 O14 1.315 . S
C22 O17 1.279 . S
C23 O24 1.315 . S
C23 O25 1.279 . S
O24 Cd16 2.223 . S
O24 C23 1.315 . S
O25 Cd15 2.240 . S
O25 C23 1.279 . S
O26 Cd16 2.297 . S
O26 C21 1.247 . S
O27 Cd16 2.439 . S
O27 C21 1.208 . S
O28 Cd29 2.223 . S
O28 C36 1.315 . S
Cd29 O28 2.223 . S
Cd29 O32 2.297 . S
Cd29 O33 2.439 . S
Cd29 O39 2.240 . S
Cd30 O31 2.240 . S
Cd30 O38 2.223 . S
Cd30 O40 2.297 . S
Cd30 O41 2.439 . S
O31 Cd30 2.240 . S
O31 C36 1.279 . S
O32 Cd29 2.297 . S
O32 C34 1.247 . S
O33 Cd29 2.439 . S
O33 C34 1.208 . S
C34 O32 1.247 . S
C34 O33 1.208 . S
C35 O40 1.247 . S
C35 O41 1.208 . S
C36 O28 1.315 . S
C36 O31 1.279 . S
C37 O38 1.315 . S
C37 O39 1.279 . S
O38 Cd30 2.223 . S
O38 C37 1.315 . S
O39 Cd29 2.240 . S
O39 C37 1.279 . S
O40 Cd30 2.297 . S
O40 C35 1.247 . S
O41 Cd30 2.439 . S
O41 C35 1.208 . S
O42 Cd43 2.223 . S
O42 C50 1.315 . S
Cd43 O42 2.223 . S
Cd43 O46 2.297 . S
Cd43 O47 2.439 . S
Cd43 O53 2.240 . S
Cd44 O45 2.240 . S
Cd44 O52 2.223 . S
Cd44 O54 2.297 . S
Cd44 O55 2.439 . S
O45 Cd44 2.240 . S
O45 C50 1.279 . S
O46 Cd43 2.297 . S
O46 C48 1.247 . S
O47 Cd43 2.439 . S
O47 C48 1.208 . S
C48 O46 1.247 . S
C48 O47 1.208 . S
C49 O54 1.247 . S
C49 O55 1.208 . S
C50 O42 1.315 . S
C50 O45 1.279 . S
C51 O52 1.315 . S
C51 O53 1.279 . S
O52 Cd44 2.223 . S
O52 C51 1.315 . S
O53 Cd43 2.240 . S
O53 C51 1.279 . S
O54 Cd44 2.297 . S
O54 C49 1.247 . S
O55 Cd44 2.439 . S
O55 C49 1.208 . S
O56 Cd57 2.223 . S
O56 C64 1.315 . S
Cd57 O56 2.223 . S
Cd57 O60 2.297 . S
Cd57 O61 2.439 . S
Cd57 O67 2.240 . S
Cd58 O59 2.240 . S
Cd58 O66 2.223 . S
Cd58 O68 2.297 . S
Cd58 O69 2.439 . S
O59 Cd58 2.240 . S
O59 C64 1.279 . S
O60 Cd57 2.297 . S
O60 C62 1.247 . S
O61 Cd57 2.439 . S
O61 C62 1.208 . S
C62 O60 1.247 . S
C62 O61 1.208 . S
C63 O68 1.247 . S
C63 O69 1.208 . S
C64 O56 1.315 . S
C64 O59 1.279 . S
C65 O66 1.315 . S
C65 O67 1.279 . S
O66 Cd58 2.223 . S
O66 C65 1.315 . S
O67 Cd57 2.240 . S
O67 C65 1.279 . S
O68 Cd58 2.297 . S
O68 C63 1.247 . S
O69 Cd58 2.439 . S
O69 C63 1.208 . S
O70 Cd71 2.223 . S
O70 C78 1.315 . S
Cd71 O70 2.223 . S
Cd71 O74 2.297 . S
Cd71 O75 2.439 . S
Cd71 O81 2.240 . S
Cd72 O73 2.240 . S
Cd72 O80 2.223 . S
Cd72 O82 2.297 . S
Cd72 O83 2.439 . S
O73 Cd72 2.240 . S
O73 C78 1.279 . S
O74 Cd71 2.297 . S
O74 C76 1.247 . S
O75 Cd71 2.439 . S
O75 C76 1.208 . S
C76 O74 1.247 . S
C76 O75 1.208 . S
C77 O82 1.247 . S
C77 O83 1.208 . S
C78 O70 1.315 . S
C78 O73 1.279 . S
C79 O80 1.315 . S
C79 O81 1.279 . S
O80 Cd72 2.223 . S
O80 C79 1.315 . S
O81 Cd71 2.240 . S
O81 C79 1.279 . S
O82 Cd72 2.297 . S
O82 C77 1.247 . S
O83 Cd72 2.439 . S
O83 C77 1.208 . S
O84 Cd85 2.223 . S
O84 C92 1.315 . S
Cd85 O84 2.223 . S
Cd85 O88 2.297 . S
Cd85 O89 2.439 . S
Cd85 O95 2.240 . S
Cd86 O87 2.240 . S
Cd86 O94 2.223 . S
Cd86 O96 2.297 . S
Cd86 O97 2.439 . S
O87 Cd86 2.240 . S
O87 C92 1.279 . S
O88 Cd85 2.297 . S
O88 C90 1.247 . S
O89 Cd85 2.439 . S
O89 C90 1.208 . S
C90 O88 1.247 . S
C90 O89 1.208 . S
C91 O96 1.247 . S
C91 O97 1.208 . S
C92 O84 1.315 . S
C92 O87 1.279 . S
C93 O94 1.315 . S
C93 O95 1.279 . S
O94 Cd86 2.223 . S
O94 C93 1.315 . S
O95 Cd85 2.240 . S
O95 C93 1.279 . S
O96 Cd86 2.297 . S
O96 C91 1.247 . S
O97 Cd86 2.439 . S
O97 C91 1.208 . S
O98 Cd99 2.223 . S
O98 C106 1.315 . S
Cd99 O98 2.223 . S
Cd99 O102 2.297 . S
Cd99 O103 2.439 . S
Cd99 O109 2.240 . S
Cd100 O101 2.240 . S
Cd100 O108 2.223 . S
Cd100 O110 2.297 . S
Cd100 O111 2.439 . S
O101 Cd100 2.240 . S
O101 C106 1.279 . S
O102 Cd99 2.297 . S
O102 C104 1.247 . S
O103 Cd99 2.439 . S
O103 C104 1.208 . S
C104 O102 1.247 . S
C104 O103 1.208 . S
C105 O110 1.247 . S
C105 O111 1.208 . S
C106 O98 1.315 . S
C106 O101 1.279 . S
C107 O108 1.315 . S
C107 O109 1.279 . S
O108 Cd100 2.223 . S
O108 C107 1.315 . S
O109 Cd99 2.240 . S
O109 C107 1.279 . S
O110 Cd100 2.297 . S
O110 C105 1.247 . S
O111 Cd100 2.439 . S
O111 C105 1.208 . S
C112 C113 1.391 . S
C112 C114 1.394 . S
C112 H128 0.931 . S
C113 C112 1.391 . S
C113 C117 1.376 . S
C114 C112 1.394 . S
C114 C115 1.369 . S
C114 C118 1.531 . S
C115 C114 1.369 . S
C115 C116 1.410 . S
C115 C123 1.503 . S
C116 C115 1.410 . S
C116 C117 1.392 . S
C116 C119 1.511 . S
C117 C113 1.376 . S
C117 C116 1.392 . S
C117 H129 0.929 . S
C118 C114 1.531 . S
C118 H130 0.960 . S
C118 H131 0.962 . S
C118 H132 0.960 . S
C119 C116 1.511 . S
C119 H133 0.961 . S
C119 H134 0.961 . S
C119 H135 0.961 . S
C120 C121 1.370 . S
C120 C122 1.363 . S
C120 H136 0.931 . S
C121 C120 1.370 . S
C121 C125 1.408 . S
C122 C120 1.363 . S
C122 C123 1.370 . S
C122 C126 1.524 . S
C123 C115 1.503 . S
C123 C122 1.370 . S
C123 C124 1.403 . S
C124 C123 1.403 . S
C124 C125 1.404 . S
C124 C127 1.539 . S
C125 C121 1.408 . S
C125 C124 1.404 . S
C125 H137 0.930 . S
C126 C122 1.524 . S
C126 H138 0.956 . S
C126 H139 0.961 . S
C126 H140 0.961 . S
C127 C124 1.539 . S
C127 H141 0.958 . S
C127 H142 0.961 . S
C127 H143 0.960 . S
H128 C112 0.931 . S
H129 C117 0.929 . S
H130 C118 0.960 . S
H131 C118 0.962 . S
H132 C118 0.960 . S
H133 C119 0.961 . S
H134 C119 0.961 . S
H135 C119 0.961 . S
H136 C120 0.931 . S
H137 C125 0.930 . S
H138 C126 0.956 . S
H139 C126 0.961 . S
H140 C126 0.961 . S
H141 C127 0.958 . S
H142 C127 0.961 . S
H143 C127 0.960 . S
C144 C145 1.391 . S
C144 C146 1.394 . S
C144 H160 0.931 . S
C145 C144 1.391 . S
C145 C149 1.367 1_445 S
C146 C144 1.394 . S
C146 C147 1.369 . S
C146 C150 1.531 . S
C147 C146 1.369 . S
C147 C148 1.410 1_545 S
C147 C155 1.503 1_545 S
C148 C147 1.410 1_565 S
C148 C149 1.396 1_455 S
C148 C151 1.511 . S
C149 C145 1.367 1_665 S
C149 C148 1.396 1_655 S
C149 H161 0.934 . S
C150 C146 1.531 . S
C150 H162 0.960 . S
C150 H163 0.962 . S
C150 H164 0.960 . S
C151 C148 1.511 . S
C151 H165 0.961 1_455 S
C151 H166 0.961 . S
C151 H167 0.961 . S
C152 C153 1.370 . S
C152 C154 1.363 . S
C152 H168 0.931 . S
C153 C152 1.370 . S
C153 C157 1.408 . S
C154 C152 1.363 . S
C154 C155 1.370 . S
C154 C158 1.524 . S
C155 C147 1.503 1_565 S
C155 C154 1.370 . S
C155 C156 1.401 1_565 S
C156 C155 1.401 1_545 S
C156 C157 1.402 1_545 S
C156 C159 1.542 . S
C157 C153 1.408 . S
C157 C156 1.402 1_565 S
C157 H169 0.930 . S
C158 C154 1.524 . S
C158 H170 0.956 . S
C158 H171 0.961 . S
C158 H172 0.961 . S
C159 C156 1.542 . S
C159 H173 0.958 . S
C159 H174 0.961 . S
C159 H175 0.960 . S
H160 C144 0.931 . S
H161 C149 0.934 . S
H162 C150 0.960 . S
H163 C150 0.962 . S
H164 C150 0.960 . S
H165 C151 0.961 1_655 S
H166 C151 0.961 . S
H167 C151 0.961 . S
H168 C152 0.931 . S
H169 C157 0.930 . S
H170 C158 0.956 . S
H171 C158 0.961 . S
H172 C158 0.961 . S
H173 C159 0.958 . S
H174 C159 0.961 . S
H175 C159 0.960 . S
C176 C177 1.391 . S
C176 C178 1.394 . S
C176 H192 0.931 . S
C177 C176 1.391 . S
C177 C181 1.376 . S
C178 C176 1.394 . S
C178 C179 1.369 . S
C178 C182 1.531 . S
C179 C178 1.369 . S
C179 C180 1.410 . S
C179 C187 1.503 . S
C180 C179 1.410 . S
C180 C181 1.392 . S
C180 C183 1.511 . S
C181 C177 1.376 . S
C181 C180 1.392 . S
C181 H193 0.929 . S
C182 C178 1.531 . S
C182 H194 0.960 . S
C182 H195 0.962 . S
C182 H196 0.960 . S
C183 C180 1.511 . S
C183 H197 0.961 . S
C183 H198 0.961 . S
C183 H199 0.961 . S
C184 C185 1.370 . S
C184 C186 1.363 . S
C184 H200 0.931 . S
C185 C184 1.370 . S
C185 C189 1.408 1_655 S
C186 C184 1.363 . S
C186 C187 1.370 . S
C186 C190 1.524 . S
C187 C179 1.503 . S
C187 C186 1.370 . S
C187 C188 1.403 . S
C188 C187 1.403 . S
C188 C189 1.404 1_655 S
C188 C191 1.539 . S
C189 C185 1.408 1_455 S
C189 C188 1.404 1_455 S
C189 H201 0.930 . S
C190 C186 1.524 . S
C190 H202 0.956 . S
C190 H203 0.961 . S
C190 H204 0.961 . S
C191 C188 1.539 . S
C191 H205 0.958 . S
C191 H206 0.961 1_655 S
C191 H207 0.960 . S
H192 C176 0.931 . S
H193 C181 0.929 . S
H194 C182 0.960 . S
H195 C182 0.962 . S
H196 C182 0.960 . S
H197 C183 0.961 . S
H198 C183 0.961 . S
H199 C183 0.961 . S
H200 C184 0.931 . S
H201 C189 0.930 . S
H202 C190 0.956 . S
H203 C190 0.961 . S
H204 C190 0.961 . S
H205 C191 0.958 . S
H206 C191 0.961 1_455 S
H207 C191 0.960 . S
C208 C209 1.391 . S
C208 C210 1.394 . S
C208 H224 0.931 . S
C209 C208 1.391 . S
C209 C213 1.376 . S
C210 C208 1.394 . S
C210 C211 1.369 . S
C210 C214 1.531 . S
C211 C210 1.369 . S
C211 C212 1.410 . S
C211 C219 1.503 . S
C212 C211 1.410 . S
C212 C213 1.392 . S
C212 C215 1.511 1_545 S
C213 C209 1.376 . S
C213 C212 1.392 . S
C213 H225 0.929 . S
C214 C210 1.531 . S
C214 H226 0.960 . S
C214 H227 0.962 . S
C214 H228 0.960 . S
C215 C212 1.511 1_565 S
C215 H229 0.961 . S
C215 H230 0.961 . S
C215 H231 0.961 1_565 S
C216 C217 1.370 . S
C216 C218 1.363 . S
C216 H232 0.931 . S
C217 C216 1.370 . S
C217 C221 1.408 1_565 S
C218 C216 1.363 . S
C218 C219 1.370 1_565 S
C218 C222 1.524 . S
C219 C211 1.503 . S
C219 C218 1.370 1_545 S
C219 C220 1.403 . S
C220 C219 1.403 . S
C220 C221 1.404 . S
C220 C223 1.539 . S
C221 C217 1.408 1_545 S
C221 C220 1.404 . S
C221 H233 0.930 . S
C222 C218 1.524 . S
C222 H234 0.956 . S
C222 H235 0.961 . S
C222 H236 0.961 . S
C223 C220 1.539 . S
C223 H237 0.958 . S
C223 H238 0.961 . S
C223 H239 0.960 . S
H224 C208 0.931 . S
H225 C213 0.929 . S
H226 C214 0.960 . S
H227 C214 0.962 . S
H228 C214 0.960 . S
H229 C215 0.961 . S
H230 C215 0.961 . S
H231 C215 0.961 1_545 S
H232 C216 0.931 . S
H233 C221 0.930 . S
H234 C222 0.956 . S
H235 C222 0.961 . S
H236 C222 0.961 . S
H237 C223 0.958 . S
H238 C223 0.961 . S
H239 C223 0.960 . S
C240 C241 1.391 . S
C240 C242 1.394 . S
C240 H256 0.931 . S
C241 C240 1.391 . S
C241 C245 1.376 . S
C242 C240 1.394 . S
C242 C243 1.369 . S
C242 C246 1.531 . S
C243 C242 1.369 . S
C243 C244 1.410 . S
C243 C251 1.503 . S
C244 C243 1.410 . S
C244 C245 1.392 . S
C244 C247 1.511 . S
C245 C241 1.376 . S
C245 C244 1.392 . S
C245 H257 0.929 . S
C246 C242 1.531 . S
C246 H258 0.960 . S
C246 H259 0.962 . S
C246 H260 0.960 . S
C247 C244 1.511 . S
C247 H261 0.961 . S
C247 H262 0.961 . S
C247 H263 0.961 . S
C248 C249 1.370 . S
C248 C250 1.363 . S
C248 H264 0.931 . S
C249 C248 1.370 . S
C249 C253 1.408 . S
C250 C248 1.363 . S
C250 C251 1.370 . S
C250 C254 1.524 . S
C251 C243 1.503 . S
C251 C250 1.370 . S
C251 C252 1.403 . S
C252 C251 1.403 . S
C252 C253 1.404 . S
C252 C255 1.539 . S
C253 C249 1.408 . S
C253 C252 1.404 . S
C253 H265 0.930 . S
C254 C250 1.524 . S
C254 H266 0.956 . S
C254 H267 0.961 . S
C254 H268 0.961 . S
C255 C252 1.539 . S
C255 H269 0.958 . S
C255 H270 0.961 . S
C255 H271 0.960 . S
H256 C240 0.931 . S
H257 C245 0.929 . S
H258 C246 0.960 . S
H259 C246 0.962 . S
H260 C246 0.960 . S
H261 C247 0.961 . S
H262 C247 0.961 . S
H263 C247 0.961 . S
H264 C248 0.931 . S
H265 C253 0.930 . S
H266 C254 0.956 . S
H267 C254 0.961 . S
H268 C254 0.961 . S
H269 C255 0.958 . S
H270 C255 0.961 . S
H271 C255 0.960 . S
C272 C273 1.391 . S
C272 C274 1.394 . S
C272 H288 0.931 . S
C273 C272 1.391 . S
C273 C277 1.376 . S
C274 C272 1.394 . S
C274 C275 1.369 . S
C274 C278 1.531 . S
C275 C274 1.369 . S
C275 C276 1.410 . S
C275 C283 1.503 . S
C276 C275 1.410 . S
C276 C277 1.392 . S
C276 C279 1.511 1_545 S
C277 C273 1.376 . S
C277 C276 1.392 . S
C277 H289 0.929 . S
C278 C274 1.531 . S
C278 H290 0.960 . S
C278 H291 0.962 . S
C278 H292 0.960 . S
C279 C276 1.511 1_565 S
C279 H293 0.961 . S
C279 H294 0.961 . S
C279 H295 0.961 . S
C280 C281 1.370 . S
C280 C282 1.363 . S
C280 H296 0.927 1_655 S
C281 C280 1.370 . S
C281 C285 1.408 1_565 S
C282 C280 1.363 . S
C282 C283 1.370 1_565 S
C282 C286 1.524 . S
C283 C275 1.503 . S
C283 C282 1.370 1_545 S
C283 C284 1.403 . S
C284 C283 1.403 . S
C284 C285 1.404 . S
C284 C287 1.539 . S
C285 C281 1.408 1_545 S
C285 C284 1.404 . S
C285 H297 0.930 . S
C286 C282 1.524 . S
C286 H298 0.956 . S
C286 H299 0.961 . S
C286 H300 0.961 . S
C287 C284 1.539 . S
C287 H301 0.958 . S
C287 H302 0.961 . S
C287 H303 0.960 . S
H288 C272 0.931 . S
H289 C277 0.929 . S
H290 C278 0.960 . S
H291 C278 0.962 . S
H292 C278 0.960 . S
H293 C279 0.961 . S
H294 C279 0.961 . S
H295 C279 0.961 . S
H296 C280 0.927 1_455 S
H297 C285 0.930 . S
H298 C286 0.956 . S
H299 C286 0.961 . S
H300 C286 0.961 . S
H301 C287 0.958 . S
H302 C287 0.961 . S
H303 C287 0.960 . S
C304 C305 1.391 . S
C304 C306 1.394 . S
C304 H320 0.931 . S
C305 C304 1.391 . S
C305 C309 1.376 . S
C306 C304 1.394 . S
C306 C307 1.369 . S
C306 C310 1.531 . S
C307 C306 1.369 . S
C307 C308 1.410 . S
C307 C315 1.503 . S
C308 C307 1.410 . S
C308 C309 1.392 . S
C308 C311 1.511 . S
C309 C305 1.376 . S
C309 C308 1.392 . S
C309 H321 0.929 . S
C310 C306 1.531 . S
C310 H322 0.960 . S
C310 H323 0.962 . S
C310 H324 0.960 . S
C311 C308 1.511 . S
C311 H325 0.961 . S
C311 H326 0.961 . S
C311 H327 0.961 . S
C312 C313 1.370 . S
C312 C314 1.363 . S
C312 H328 0.931 . S
C313 C312 1.370 . S
C313 C317 1.408 1_455 S
C314 C312 1.363 . S
C314 C315 1.370 . S
C314 C318 1.524 . S
C315 C307 1.503 . S
C315 C314 1.370 . S
C315 C316 1.403 . S
C316 C315 1.403 . S
C316 C317 1.404 1_455 S
C316 C319 1.539 . S
C317 C313 1.408 1_655 S
C317 C316 1.404 1_655 S
C317 H329 0.930 . S
C318 C314 1.524 . S
C318 H330 0.956 . S
C318 H331 0.961 . S
C318 H332 0.961 . S
C319 C316 1.539 . S
C319 H333 0.958 . S
C319 H334 0.961 1_455 S
C319 H335 0.960 . S
H320 C304 0.931 . S
H321 C309 0.929 . S
H322 C310 0.960 . S
H323 C310 0.962 . S
H324 C310 0.960 . S
H325 C311 0.961 . S
H326 C311 0.961 . S
H327 C311 0.961 . S
H328 C312 0.931 . S
H329 C317 0.930 . S
H330 C318 0.956 . S
H331 C318 0.961 . S
H332 C318 0.961 . S
H333 C319 0.958 . S
H334 C319 0.961 1_655 S
H335 C319 0.960 . S
C336 C337 1.391 . S
C336 C338 1.394 . S
C336 H352 0.931 . S
C337 C336 1.391 . S
C337 C341 1.376 . S
C338 C336 1.394 . S
C338 C339 1.369 . S
C338 C342 1.531 . S
C339 C338 1.369 . S
C339 C340 1.410 1_565 S
C339 C347 1.503 . S
C340 C339 1.410 1_545 S
C340 C341 1.392 1_545 S
C340 C343 1.511 . S
C341 C337 1.376 . S
C341 C340 1.392 1_565 S
C341 H353 0.929 1_565 S
C342 C338 1.531 . S
C342 H354 0.960 . S
C342 H355 0.962 . S
C342 H356 0.960 . S
C343 C340 1.511 . S
C343 H357 0.961 . S
C343 H358 0.961 . S
C343 H359 0.961 . S
C344 C345 1.370 . S
C344 C346 1.363 . S
C344 H360 0.931 . S
C345 C344 1.370 . S
C345 C349 1.408 . S
C346 C344 1.363 . S
C346 C347 1.370 1_545 S
C346 C350 1.524 . S
C347 C339 1.503 . S
C347 C346 1.370 1_565 S
C347 C348 1.403 . S
C348 C347 1.403 . S
C348 C349 1.404 1_565 S
C348 C351 1.539 . S
C349 C345 1.408 . S
C349 C348 1.404 1_545 S
C349 H361 0.930 . S
C350 C346 1.524 . S
C350 H362 0.944 1_545 S
C350 H363 0.961 . S
C350 H364 0.961 . S
C351 C348 1.539 . S
C351 H365 0.958 . S
C351 H366 0.961 . S
C351 H367 0.960 . S
H352 C336 0.931 . S
H353 C341 0.929 1_545 S
H354 C342 0.960 . S
H355 C342 0.962 . S
H356 C342 0.960 . S
H357 C343 0.961 . S
H358 C343 0.961 . S
H359 C343 0.961 . S
H360 C344 0.931 . S
H361 C349 0.930 . S
H362 C350 0.944 1_565 S
H363 C350 0.961 . S
H364 C350 0.961 . S
H365 C351 0.958 . S
H366 C351 0.961 . S
H367 C351 0.960 . S
C368 C369 1.391 . S
C368 C370 1.394 1_455 S
C368 H384 0.931 1_455 S
C369 C368 1.391 . S
C369 C373 1.376 . S
C370 C368 1.394 1_655 S
C370 C371 1.369 1_655 S
C370 C374 1.531 . S
C371 C370 1.369 1_455 S
C371 C372 1.410 . S
C371 C379 1.503 1_455 S
C372 C371 1.410 . S
C372 C373 1.392 . S
C372 C375 1.511 . S
C373 C369 1.376 . S
C373 C372 1.392 . S
C373 H385 0.929 . S
C374 C370 1.531 . S
C374 H386 0.960 . S
C374 H387 0.962 . S
C374 H388 0.960 . S
C375 C372 1.511 . S
C375 H389 0.961 . S
C375 H390 0.961 . S
C375 H391 0.961 . S
C376 C377 1.370 . S
C376 C378 1.363 . S
C376 H392 0.931 . S
C377 C376 1.370 . S
C377 C381 1.408 1_655 S
C378 C376 1.363 . S
C378 C379 1.370 . S
C378 C382 1.524 . S
C379 C371 1.503 1_655 S
C379 C378 1.370 . S
C379 C380 1.403 1_655 S
C380 C379 1.403 1_455 S
C380 C381 1.404 . S
C380 C383 1.539 . S
C381 C377 1.408 1_455 S
C381 C380 1.404 . S
C381 H393 0.930 . S
C382 C378 1.524 . S
C382 H394 0.956 . S
C382 H395 0.961 . S
C382 H396 0.961 . S
C383 C380 1.539 . S
C383 H397 0.958 . S
C383 H398 0.961 . S
C383 H399 0.960 . S
H384 C368 0.931 1_655 S
H385 C373 0.929 . S
H386 C374 0.960 . S
H387 C374 0.962 . S
H388 C374 0.960 . S
H389 C375 0.961 . S
H390 C375 0.961 . S
H391 C375 0.961 . S
H392 C376 0.931 . S
H393 C381 0.930 . S
H394 C382 0.956 . S
H395 C382 0.961 . S
H396 C382 0.961 . S
H397 C383 0.958 . S
H398 C383 0.961 . S
H399 C383 0.960 . S
C400 C401 1.398 . S
C400 C402 1.391 1_565 S
C400 H416 0.926 1_565 S
C401 C400 1.398 . S
C401 C405 1.376 . S
C402 C400 1.391 1_545 S
C402 C403 1.369 1_545 S
C402 C406 1.531 . S
C403 C402 1.369 1_565 S
C403 C404 1.410 . S
C403 C411 1.503 1_565 S
C404 C403 1.410 . S
C404 C405 1.392 . S
C404 C407 1.511 . S
C405 C401 1.376 . S
C405 C404 1.392 . S
C405 H417 0.929 . S
C406 C402 1.531 . S
C406 H418 0.960 . S
C406 H419 0.962 . S
C406 H420 0.960 . S
C407 C404 1.511 . S
C407 H421 0.961 . S
C407 H422 0.961 . S
C407 H423 0.961 . S
C408 C409 1.370 . S
C408 C410 1.363 . S
C408 H424 0.931 . S
C409 C408 1.370 . S
C409 C413 1.408 . S
C410 C408 1.363 . S
C410 C411 1.370 . S
C410 C414 1.524 . S
C411 C403 1.503 1_545 S
C411 C410 1.370 . S
C411 C412 1.403 . S
C412 C411 1.403 . S
C412 C413 1.404 . S
C412 C415 1.539 1_545 S
C413 C409 1.408 . S
C413 C412 1.404 . S
C413 H425 0.930 . S
C414 C410 1.524 . S
C414 H426 0.956 . S
C414 H427 0.961 1_545 S
C414 H428 0.961 . S
C415 C412 1.539 1_565 S
C415 H429 0.958 1_565 S
C415 H430 0.961 . S
C415 H431 0.960 . S
H416 C400 0.926 1_545 S
H417 C405 0.929 . S
H418 C406 0.960 . S
H419 C406 0.962 . S
H420 C406 0.960 . S
H421 C407 0.961 . S
H422 C407 0.961 . S
H423 C407 0.961 . S
H424 C408 0.931 . S
H425 C413 0.930 . S
H426 C414 0.956 . S
H427 C414 0.961 1_565 S
H428 C414 0.961 . S
H429 C415 0.958 1_545 S
H430 C415 0.961 . S
H431 C415 0.960 . S
C432 C433 1.391 . S
C432 C434 1.394 . S
C432 H448 0.931 . S
C433 C432 1.391 . S
C433 C437 1.376 . S
C434 C432 1.394 . S
C434 C435 1.369 . S
C434 C438 1.531 . S
C435 C434 1.369 . S
C435 C436 1.410 . S
C435 C443 1.503 1_554 S
C436 C435 1.410 . S
C436 C437 1.392 . S
C436 C439 1.511 1_554 S
C437 C433 1.376 . S
C437 C436 1.392 . S
C437 H449 0.929 . S
C438 C434 1.531 . S
C438 H450 0.960 . S
C438 H451 0.962 . S
C438 H452 0.960 . S
C439 C436 1.511 1_556 S
C439 H453 0.961 . S
C439 H454 0.961 . S
C439 H455 0.961 . S
C440 C441 1.370 . S
C440 C442 1.363 . S
C440 H456 0.931 . S
C441 C440 1.370 . S
C441 C445 1.408 . S
C442 C440 1.363 . S
C442 C443 1.370 . S
C442 C446 1.524 . S
C443 C435 1.503 1_556 S
C443 C442 1.370 . S
C443 C444 1.403 . S
C444 C443 1.403 . S
C444 C445 1.404 . S
C444 C447 1.539 . S
C445 C441 1.408 . S
C445 C444 1.404 . S
C445 H457 0.930 . S
C446 C442 1.524 . S
C446 H458 0.956 1_556 S
C446 H459 0.963 . S
C446 H460 0.961 . S
C447 C444 1.539 . S
C447 H461 0.958 . S
C447 H462 0.961 . S
C447 H463 0.960 . S
H448 C432 0.931 . S
H449 C437 0.929 . S
H450 C438 0.960 . S
H451 C438 0.962 . S
H452 C438 0.960 . S
H453 C439 0.961 . S
H454 C439 0.961 . S
H455 C439 0.961 . S
H456 C440 0.931 . S
H457 C445 0.930 . S
H458 C446 0.956 1_554 S
H459 C446 0.963 . S
H460 C446 0.961 . S
H461 C447 0.958 . S
H462 C447 0.961 . S
H463 C447 0.960 . S
C464 C465 1.391 . S
C464 C466 1.394 1_455 S
C464 H480 0.931 1_455 S
C465 C464 1.391 . S
C465 C469 1.376 . S
C466 C464 1.394 1_655 S
C466 C467 1.369 1_655 S
C466 C470 1.531 . S
C467 C466 1.369 1_455 S
C467 C468 1.410 1_565 S
C467 C475 1.503 1_466 S
C468 C467 1.410 1_545 S
C468 C469 1.392 1_545 S
C468 C471 1.511 . S
C469 C465 1.376 . S
C469 C468 1.392 1_565 S
C469 H481 0.929 1_565 S
C470 C466 1.531 . S
C470 H482 0.960 1_556 S
C470 H483 0.962 . S
C470 H484 0.960 . S
C471 C468 1.511 . S
C471 H485 0.961 . S
C471 H486 0.961 . S
C471 H487 0.961 . S
C472 C473 1.370 . S
C472 C474 1.363 . S
C472 H488 0.931 . S
C473 C472 1.370 . S
C473 C477 1.408 1_655 S
C474 C472 1.363 . S
C474 C475 1.370 . S
C474 C478 1.524 1_554 S
C475 C467 1.503 1_644 S
C475 C474 1.370 . S
C475 C476 1.403 1_645 S
C476 C475 1.403 1_465 S
C476 C477 1.404 1_565 S
C476 C479 1.539 . S
C477 C473 1.408 1_455 S
C477 C476 1.404 1_545 S
C477 H489 0.930 . S
C478 C474 1.524 1_556 S
C478 H490 0.956 . S
C478 H491 0.961 . S
C478 H492 0.961 . S
C479 C476 1.539 . S
C479 H493 0.958 . S
C479 H494 0.961 . S
C479 H495 0.960 . S
H480 C464 0.931 1_655 S
H481 C469 0.929 1_545 S
H482 C470 0.960 1_554 S
H483 C470 0.962 . S
H484 C470 0.960 . S
H485 C471 0.961 . S
H486 C471 0.961 . S
H487 C471 0.961 . S
H488 C472 0.931 . S
H489 C477 0.930 . S
H490 C478 0.956 . S
H491 C478 0.961 . S
H492 C478 0.961 . S
H493 C479 0.958 . S
H494 C479 0.961 . S
H495 C479 0.960 . S
C496 C497 1.391 . S
C496 C498 1.394 . S
C496 H512 0.931 . S
C497 C496 1.391 . S
C497 C501 1.376 . S
C498 C496 1.394 . S
C498 C499 1.369 . S
C498 C502 1.531 . S
C499 C498 1.369 . S
C499 C500 1.410 . S
C499 C507 1.503 . S
C500 C499 1.410 . S
C500 C501 1.392 . S
C500 C503 1.511 . S
C501 C497 1.376 . S
C501 C500 1.392 . S
C501 H513 0.929 . S
C502 C498 1.531 . S
C502 H514 0.960 . S
C502 H515 0.962 . S
C502 H516 0.960 . S
C503 C500 1.511 . S
C503 H517 0.961 . S
C503 H518 0.961 . S
C503 H519 0.961 . S
C504 C505 1.370 . S
C504 C506 1.363 . S
C504 H520 0.931 . S
C505 C504 1.370 . S
C505 C509 1.408 . S
C506 C504 1.363 . S
C506 C507 1.370 . S
C506 C510 1.524 . S
C507 C499 1.503 . S
C507 C506 1.370 . S
C507 C508 1.403 . S
C508 C507 1.403 . S
C508 C509 1.404 . S
C508 C511 1.539 . S
C509 C505 1.408 . S
C509 C508 1.404 . S
C509 H521 0.930 . S
C510 C506 1.524 . S
C510 H522 0.956 . S
C510 H523 0.961 . S
C510 H524 0.961 . S
C511 C508 1.539 . S
C511 H525 0.958 . S
C511 H526 0.961 . S
C511 H527 0.960 . S
H512 C496 0.931 . S
H513 C501 0.929 . S
H514 C502 0.960 . S
H515 C502 0.962 . S
H516 C502 0.960 . S
H517 C503 0.961 . S
H518 C503 0.961 . S
H519 C503 0.961 . S
H520 C504 0.931 . S
H521 C509 0.930 . S
H522 C510 0.956 . S
H523 C510 0.961 . S
H524 C510 0.961 . S
H525 C511 0.958 . S
H526 C511 0.961 . S
H527 C511 0.960 . S
C528 C529 1.391 . S
C528 C530 1.394 . S
C528 H544 0.931 . S
C529 C528 1.391 . S
C529 C533 1.376 . S
C530 C528 1.394 . S
C530 C531 1.369 . S
C530 C534 1.531 . S
C531 C530 1.369 . S
C531 C532 1.410 . S
C531 C539 1.503 . S
C532 C531 1.410 . S
C532 C533 1.392 . S
C532 C535 1.511 . S
C533 C529 1.376 . S
C533 C532 1.392 . S
C533 H545 0.929 . S
C534 C530 1.531 . S
C534 H546 0.960 . S
C534 H547 0.962 . S
C534 H548 0.960 . S
C535 C532 1.511 . S
C535 H549 0.961 . S
C535 H550 0.961 . S
C535 H551 0.961 . S
C536 C537 1.370 . S
C536 C538 1.363 . S
C536 H552 0.931 . S
C537 C536 1.370 . S
C537 C541 1.408 . S
C538 C536 1.363 . S
C538 C539 1.370 . S
C538 C542 1.524 . S
C539 C531 1.503 . S
C539 C538 1.370 . S
C539 C540 1.403 . S
C540 C539 1.403 . S
C540 C541 1.404 . S
C540 C543 1.539 . S
C541 C537 1.408 . S
C541 C540 1.404 . S
C541 H553 0.930 . S
C542 C538 1.524 . S
C542 H554 0.956 . S
C542 H555 0.961 . S
C542 H556 0.961 . S
C543 C540 1.539 . S
C543 H557 0.958 . S
C543 H558 0.961 . S
C543 H559 0.960 . S
H544 C528 0.931 . S
H545 C533 0.929 . S
H546 C534 0.960 . S
H547 C534 0.962 . S
H548 C534 0.960 . S
H549 C535 0.961 . S
H550 C535 0.961 . S
H551 C535 0.961 . S
H552 C536 0.931 . S
H553 C541 0.930 . S
H554 C542 0.956 . S
H555 C542 0.961 . S
H556 C542 0.961 . S
H557 C543 0.958 . S
H558 C543 0.961 . S
H559 C543 0.960 . S
C560 C561 1.391 . S
C560 C562 1.394 . S
C560 H576 0.931 . S
C561 C560 1.391 . S
C561 C565 1.376 . S
C562 C560 1.394 . S
C562 C563 1.369 . S
C562 C566 1.531 . S
C563 C562 1.369 . S
C563 C564 1.410 . S
C563 C571 1.503 . S
C564 C563 1.410 . S
C564 C565 1.392 . S
C564 C567 1.511 . S
C565 C561 1.376 . S
C565 C564 1.392 . S
C565 H577 0.929 . S
C566 C562 1.531 . S
C566 H578 0.960 . S
C566 H579 0.962 . S
C566 H580 0.960 . S
C567 C564 1.511 . S
C567 H581 0.961 . S
C567 H582 0.961 . S
C567 H583 0.961 . S
C568 C569 1.370 . S
C568 C570 1.363 . S
C568 H584 0.931 . S
C569 C568 1.370 . S
C569 C573 1.408 . S
C570 C568 1.363 . S
C570 C571 1.370 . S
C570 C574 1.524 . S
C571 C563 1.503 . S
C571 C570 1.370 . S
C571 C572 1.403 . S
C572 C571 1.403 . S
C572 C573 1.404 . S
C572 C575 1.539 . S
C573 C569 1.408 . S
C573 C572 1.404 . S
C573 H585 0.930 . S
C574 C570 1.524 . S
C574 H586 0.956 . S
C574 H587 0.961 . S
C574 H588 0.961 . S
C575 C572 1.539 . S
C575 H589 0.958 . S
C575 H590 0.961 . S
C575 H591 0.960 . S
H576 C560 0.931 . S
H577 C565 0.929 . S
H578 C566 0.960 . S
H579 C566 0.962 . S
H580 C566 0.960 . S
H581 C567 0.961 . S
H582 C567 0.961 . S
H583 C567 0.961 . S
H584 C568 0.931 . S
H585 C573 0.930 . S
H586 C574 0.956 . S
H587 C574 0.961 . S
H588 C574 0.961 . S
H589 C575 0.958 . S
H590 C575 0.961 . S
H591 C575 0.960 . S
C592 C593 1.391 . S
C592 C594 1.394 . S
C592 H608 0.931 . S
C593 C592 1.391 . S
C593 C597 1.376 . S
C594 C592 1.394 . S
C594 C595 1.369 . S
C594 C598 1.531 . S
C595 C594 1.369 . S
C595 C596 1.410 . S
C595 C603 1.503 . S
C596 C595 1.410 . S
C596 C597 1.392 . S
C596 C599 1.511 . S
C597 C593 1.376 . S
C597 C596 1.392 . S
C597 H609 0.929 . S
C598 C594 1.531 . S
C598 H610 0.960 . S
C598 H611 0.962 . S
C598 H612 0.960 . S
C599 C596 1.511 . S
C599 H613 0.961 . S
C599 H614 0.961 . S
C599 H615 0.961 . S
C600 C601 1.370 . S
C600 C602 1.363 . S
C600 H616 0.931 . S
C601 C600 1.370 . S
C601 C605 1.408 . S
C602 C600 1.363 . S
C602 C603 1.370 . S
C602 C606 1.524 . S
C603 C595 1.503 . S
C603 C602 1.370 . S
C603 C604 1.403 . S
C604 C603 1.403 . S
C604 C605 1.404 . S
C604 C607 1.539 . S
C605 C601 1.408 . S
C605 C604 1.404 . S
C605 H617 0.930 . S
C606 C602 1.524 . S
C606 H618 0.956 . S
C606 H619 0.961 . S
C606 H620 0.961 . S
C607 C604 1.539 . S
C607 H621 0.958 . S
C607 H622 0.961 . S
C607 H623 0.960 . S
H608 C592 0.931 . S
H609 C597 0.929 . S
H610 C598 0.960 . S
H611 C598 0.962 . S
H612 C598 0.960 . S
H613 C599 0.961 . S
H614 C599 0.961 . S
H615 C599 0.961 . S
H616 C600 0.931 . S
H617 C605 0.930 . S
H618 C606 0.956 . S
H619 C606 0.961 . S
H620 C606 0.961 . S
H621 C607 0.958 . S
H622 C607 0.961 . S
H623 C607 0.960 . S
C113 C8 1.677 . S
C121 C37 1.687 . S
C145 C51 1.692 1_455 S
C153 C22 1.682 . S
C177 C36 1.663 . S
C185 C9 1.682 1_655 S
C209 C50 1.661 . S
C217 C23 1.682 . S
C241 C93 1.686 . S
C249 C64 1.683 . S
C273 C78 1.660 . S
C281 C107 1.678 1_655 S
C305 C92 1.676 . S
C313 C65 1.685 1_455 S
C337 C106 1.664 . S
C345 C79 1.679 . S
C369 C7 1.457 . S
C377 C63 1.500 . S
C401 C21 1.477 . S
C409 C77 1.490 . S
C433 C35 1.463 . S
C441 C91 1.497 . S
C465 C105 1.490 . S
C473 C49 1.489 . S
C497 C6 1.462 . S
C505 C20 1.494 . S
C529 C48 1.460 . S
C537 C34 1.491 . S
C561 C76 1.469 . S
C569 C62 1.480 . S
C593 C90 1.461 . S
C601 C104 1.483 . S
