# Generated by pormake.
# Topology sxc, (6)-cn, num edge types: 1
# Building blocks:
#     Node 0, Type 0, BuildingBlock: BETDAH_clean_sbu_0, # of connection points: 6
#     Node 1, Type 0, BuildingBlock: BETDAH_clean_sbu_0, # of connection points: 6
#     Node 2, Type 0, BuildingBlock: BETDAH_clean_sbu_0, # of connection points: 6
#     Edge 3, Type (0, 0), BuildingBlock: MIFKUJ_clean_linker_0, # of connection points: 2
#     Edge 4, Type (0, 0), BuildingBlock: MIFKUJ_clean_linker_0, # of connection points: 2
#     Edge 5, Type (0, 0), BuildingBlock: MIFKUJ_clean_linker_0, # of connection points: 2
#     Edge 6, Type (0, 0), BuildingBlock: MIFKUJ_clean_linker_0, # of connection points: 2
#     Edge 7, Type (0, 0), BuildingBlock: MIFKUJ_clean_linker_0, # of connection points: 2
#     Edge 8, Type (0, 0), BuildingBlock: MIFKUJ_clean_linker_0, # of connection points: 2
#     Edge 9, Type (0, 0), BuildingBlock: MIFKUJ_clean_linker_0, # of connection points: 2
#     Edge 10, Type (0, 0), BuildingBlock: MIFKUJ_clean_linker_0, # of connection points: 2
#     Edge 11, Type (0, 0), BuildingBlock: MIFKUJ_clean_linker_0, # of connection points: 2
# Relax obj value: 0.212
# Max RMSD: 0.146
# Mean RMSD: 0.080
data_MOF--net-sxc--node1-BETDAH_clean_sbu_0--edge1-MIFKUJ_clean_linker_0
_symmetry_space_group_name_H-M    P1
_symmetry_Int_Tables_number       1
_symmetry_cell_setting            triclinic
loop_
_symmetry_equiv_pos_as_xyz
'x, y, z'
_cell_length_a     20.376225
_cell_length_b     21.983984
_cell_length_c     58.072313
_cell_angle_alpha  96.658205
_cell_angle_beta   89.971541
_cell_angle_gamma 96.530776
loop_
_atom_site_label
_atom_site_type_symbol
_atom_site_fract_x
_atom_site_fract_y
_atom_site_fract_z
_atom_type_partial_charge
Ho0 Ho 0.17119 0.12688 0.01189 0.0
Ho1 Ho 1.03522 0.11877 0.01697 0.0
C2 C 0.1026 0.26336 0.01597 0.0
C3 C 0.29169 0.15245 -0.00113 0.0
C4 C 0.33587 0.20998 0.9978 0.0
C5 C 0.31677 0.2581 0.98625 0.0
C6 C 0.35746 0.31394 0.98701 0.0
C7 C 0.41747 0.32281 -0.00049 0.0
C8 C 0.43704 0.27429 0.01064 0.0
C9 C 0.39672 0.21826 0.00968 0.0
C10 C 0.13683 0.12455 0.05692 0.0
C11 C 0.10403 0.9823 0.01309 0.0
C12 C 0.91401 0.09362 0.02937 0.0
C13 C 0.86869 1.03657 0.0299 0.0
C14 C 0.88663 0.98703 0.04087 0.0
C15 C 0.84451 0.93196 0.03979 0.0
C16 C 0.78423 0.92527 0.02752 0.0
C17 C 0.766 0.97508 0.01684 0.0
C18 C 0.80773 1.03036 0.01814 0.0
C19 C 0.07041 0.12176 0.97208 0.0
O20 O 0.15624 0.23341 0.01131 0.0
O21 O 1.04761 0.22746 0.02065 0.0
O22 O 0.27602 0.13955 0.01966 0.0
O23 O 0.24122 0.14176 0.98451 0.0
O24 O 0.18105 0.09373 0.0466 0.0
O25 O 0.11244 0.15625 0.04285 0.0
O26 O 1.05025 1.0122 0.01757 0.0
O27 O 0.15911 1.01824 0.00853 0.0
O28 O 0.93069 0.10735 0.00876 0.0
O29 O 0.96405 0.10287 0.04392 0.0
O30 O 1.02675 0.1532 0.98241 0.0
O31 O 0.09389 0.08937 0.98609 0.0
H32 H 0.26986 0.25323 0.97707 0.0
H33 H 0.34098 0.3509 0.97847 0.0
H34 H 0.48333 0.27987 0.02024 0.0
H35 H 0.4124 0.18178 0.01869 0.0
H36 H 0.93364 0.99027 0.04989 0.0
H37 H 0.85999 0.89393 0.04793 0.0
H38 H 0.71958 0.97111 0.00739 0.0
H39 H 0.79299 1.06796 0.00955 0.0
Ho40 Ho 0.09823 0.17456 0.35104 0.0
Ho41 Ho 0.07919 1.04701 0.34601 0.0
C42 C 0.94954 0.10742 0.35086 0.0
C43 C 0.09118 0.28832 0.34504 0.0
C44 C 0.07741 0.31293 0.32341 0.0
C45 C 1.05755 0.27215 0.30356 0.0
C46 C 1.05143 0.29416 0.28215 0.0
C47 C 1.06417 0.35748 0.28042 0.0
C48 C 0.08207 0.39837 0.30053 0.0
C49 C 0.08891 0.37617 0.32187 0.0
C50 C 0.10918 0.13235 0.39324 0.0
C51 C 0.22997 0.11278 0.34723 0.0
C52 C 0.08349 0.92939 0.34314 0.0
C53 C 0.10356 0.88672 0.32367 0.0
C54 C 0.14045 0.83908 0.32785 0.0
C55 C 0.16026 0.79895 0.30937 0.0
C56 C 0.14321 0.80566 0.28635 0.0
C57 C 0.10784 0.85463 0.28223 0.0
C58 C 0.08849 0.89491 0.30068 0.0
C59 C 0.07003 0.09215 0.30411 0.0
O60 O 0.98833 0.15137 0.34225 0.0
O61 O 0.97737 1.06258 0.35873 0.0
O62 O 1.04252 0.25319 0.3529 0.0
O63 O 0.14663 0.26432 0.34535 0.0
O64 O 0.14419 0.1796 0.38652 0.0
O65 O 1.06651 0.11087 0.37773 0.0
O66 O 0.19044 1.06482 0.35268 0.0
O67 O 0.20369 0.16155 0.34204 0.0
O68 O 1.02959 0.95419 0.33992 0.0
O69 O 0.13048 0.96945 0.35272 0.0
O70 O 1.03203 1.04698 0.31082 0.0
O71 O 0.11283 0.11087 0.31975 0.0
H72 H 1.0483 0.22311 0.30459 0.0
H73 H 1.03748 0.26177 0.26697 0.0
H74 H 0.09329 0.44738 0.29959 0.0
H75 H 0.10482 0.4081 0.33698 0.0
H76 H 0.1537 0.83277 0.34542 0.0
H77 H 0.18841 0.76226 0.31311 0.0
H78 H 0.09311 0.86068 0.2648 0.0
H79 H 1.06096 0.93197 0.29693 0.0
Ho80 Ho 0.10219 1.03405 0.68389 0.0
Ho81 Ho 0.10924 0.16519 0.67892 0.0
C82 C 0.96402 0.09586 0.68068 0.0
C83 C 0.08114 0.92505 0.69677 0.0
C84 C 1.02403 0.87814 0.69728 0.0
C85 C 0.96571 0.89182 0.70868 0.0
C86 C 0.91051 0.84783 0.70744 0.0
C87 C 0.91269 0.78991 0.69464 0.0
C88 C 0.97148 0.77573 0.68378 0.0
C89 C 1.0269 0.81947 0.68522 0.0
C90 C 0.11043 1.0593 0.63911 0.0
C91 C 0.24716 0.10322 0.68196 0.0
C92 C 0.12959 0.27439 0.66618 0.0
C93 C 0.18708 0.31972 0.66405 0.0
C94 C 0.24532 0.30229 0.65358 0.0
C95 C 0.30089 0.3454 0.65321 0.0
C96 C 0.29915 0.40612 0.66355 0.0
C97 C 0.24056 0.42376 0.6736 0.0
C98 C 0.18473 0.38084 0.67372 0.0
C99 C 0.09982 0.1398 0.72366 0.0
O100 O 0.99311 1.04987 0.68758 0.0
O101 O 0.99984 0.14364 0.67347 0.0
O102 O 0.10181 0.93548 0.67614 0.0
O103 O 0.0804 0.97567 0.71096 0.0
O104 O 0.1411 1.01812 0.64748 0.0
O105 O 0.07529 0.08369 0.6547 0.0
O106 O 0.21795 0.14862 0.67466 0.0
O107 O 0.2114 1.05619 0.68971 0.0
O108 O 0.1144 0.26401 0.68733 0.0
O109 O 0.12567 0.22391 0.6517 0.0
O110 O 0.06915 0.1807 0.7151 0.0
O111 O 0.13569 0.1156 0.70824 0.0
H112 H 0.96205 0.93683 0.71807 0.0
H113 H 0.86538 0.85989 0.71575 0.0
H114 H 0.97423 0.73111 0.67395 0.0
H115 H 0.07156 0.80802 0.67642 0.0
H116 H 0.24847 0.25519 0.64617 0.0
H117 H 0.34596 0.33074 0.64565 0.0
H118 H 0.23832 0.47049 0.68162 0.0
H119 H 0.14017 0.39496 0.68187 0.0
H120 H 0.20945 0.36096 0.01275 0.0
H121 H 0.21053 0.47309 0.01243 0.0
H122 H 0.99934 0.45441 0.01782 0.0
H123 H 0.99843 0.34237 0.0184 0.0
H124 H 1.01968 0.54706 0.99319 0.0
H125 H 0.1337 0.5275 0.06252 0.0
H126 H 0.21879 0.49859 0.08799 0.0
H127 H 0.36908 0.60729 0.05394 0.0
H128 H 0.28512 0.63573 0.02785 0.0
H129 H 0.99726 0.88451 0.0162 0.0
H130 H 0.99635 0.77243 0.01657 0.0
H131 H 0.2076 0.79143 0.01147 0.0
H132 H 0.20835 0.90344 0.01085 0.0
H133 H 0.18738 0.69855 0.03596 0.0
H134 H 0.0729 0.71814 0.96664 0.0
H135 H 0.98756 0.74665 0.94118 0.0
H136 H 0.83782 0.63748 0.97528 0.0
H137 H 0.92198 0.60965 0.00143 0.0
C138 C 0.1625 0.37966 0.01403 0.0
C139 C 0.10382 0.33763 0.01579 0.0
C140 C 0.16311 0.44633 0.01396 0.0
C141 C 0.10503 0.47822 0.01539 0.0
C142 C 1.04638 0.43588 0.01671 0.0
C143 C 1.04585 0.36939 0.01713 0.0
C144 C 0.10498 0.55283 0.01539 0.0
C145 C 1.05649 0.57921 0.00301 0.0
C146 C 0.15232 0.60017 0.02735 0.0
C147 C 0.20314 0.58256 0.0428 0.0
C148 C 0.185 0.54448 0.06018 0.0
C149 C 0.23305 0.52825 0.07477 0.0
C150 C 0.29939 0.55059 0.07242 0.0
C151 C 0.31775 0.5895 0.05556 0.0
C152 C 0.26993 0.6056 0.04084 0.0
C153 C 1.04426 0.8659 0.01499 0.0
C154 C 0.1029 0.90803 0.01331 0.0
C155 C 1.04376 0.79925 0.0151 0.0
C156 C 0.1019 0.76743 0.01375 0.0
C157 C 0.16052 0.80988 0.0125 0.0
C158 C 0.16095 0.87636 0.01206 0.0
C159 C 0.10204 0.69281 0.01376 0.0
C160 C 0.15056 0.66642 0.02614 0.0
C161 C 1.05469 0.64544 0.00181 0.0
C162 C 1.00373 0.66295 0.9864 0.0
C163 C 1.02166 0.70101 0.969 0.0
C164 C 0.97346 0.71699 0.95441 0.0
C165 C 0.90721 0.69439 0.95677 0.0
C166 C 0.88907 0.6555 0.97365 0.0
C167 C 0.93701 0.6397 0.98839 0.0
H168 H 0.86998 0.70667 0.94541 0.0
H169 H 0.33651 0.5381 0.08377 0.0
H170 H 0.30126 1.01857 0.35627 0.0
H171 H 0.42117 1.01722 0.35672 0.0
H172 H 0.44766 0.20352 0.33912 0.0
H173 H 0.32752 0.20469 0.33824 0.0
H174 H 0.53231 0.1402 0.3153 0.0
H175 H 0.47554 0.16422 0.39583 0.0
H176 H 0.41543 0.13731 0.43079 0.0
H177 H 0.49097 0.96163 0.42405 0.0
H178 H 0.55084 0.98718 0.38885 0.0
H179 H 0.87771 0.19938 0.34017 0.0
H180 H 0.75789 0.20056 0.3399 0.0
H181 H 0.73243 1.01737 0.36064 0.0
H182 H 0.8527 1.01694 0.3617 0.0
H183 H 0.64684 1.07866 0.38276 0.0
H184 H 0.70335 1.05371 0.30232 0.0
H185 H 0.76327 1.07971 0.26721 0.0
H186 H 0.6879 0.25543 0.2734 0.0
H187 H 0.62822 0.23081 0.30873 0.0
C188 C 0.3324 1.05941 0.3525 0.0
C189 C 0.30391 0.11187 0.34732 0.0
C190 C 0.4015 1.05871 0.35289 0.0
C191 C 0.44472 0.11062 0.34832 0.0
C192 C 0.41625 0.16272 0.34279 0.0
C193 C 0.3471 0.16341 0.34236 0.0
C194 C 0.51911 0.11058 0.34921 0.0
C195 C 0.55721 0.12751 0.33023 0.0
C196 C 0.55269 0.09265 0.36833 0.0
C197 C 0.51716 1.07739 0.38958 0.0
C198 C 0.47898 0.11969 0.40172 0.0
C199 C 0.445 0.1047 0.42158 0.0
C200 C 0.44925 1.04774 0.4296 0.0
C201 C 0.48766 1.00571 0.4178 0.0
C202 C 0.52167 1.02044 0.3979 0.0
C203 C 0.84678 0.15921 0.34468 0.0
C204 C 0.87559 0.10793 0.35086 0.0
C205 C 0.77768 0.15974 0.34437 0.0
C206 C 0.73469 0.10855 0.34978 0.0
C207 C 0.76355 1.05761 0.35628 0.0
C208 C 0.83278 1.0573 0.35683 0.0
C209 C 0.66019 0.10826 0.34883 0.0
C210 C 0.62202 0.09129 0.3678 0.0
C211 C 0.62651 0.12596 0.32966 0.0
C212 C 0.66181 0.14062 0.30829 0.0
C213 C 0.69987 0.09804 0.29627 0.0
C214 C 0.73376 0.11251 0.27632 0.0
C215 C 0.72952 0.16924 0.26811 0.0
C216 C 0.6912 0.21153 0.27979 0.0
C217 C 0.65729 0.19732 0.29977 0.0
H218 H 0.75583 0.18038 0.25268 0.0
H219 H 0.42289 1.03621 0.44498 0.0
H220 H 0.86124 0.73046 0.65398 0.0
H221 H 0.75657 0.66372 0.648 0.0
H222 H 0.72349 0.68467 0.72175 0.0
H223 H 0.82828 0.75176 0.72784 0.0
H224 H 0.69615 0.56151 0.69945 0.0
H225 H 0.64961 0.76711 0.69218 0.0
H226 H 0.66389 0.86783 0.67699 0.0
H227 H 0.61298 0.77951 0.60848 0.0
H228 H 0.60036 0.67792 0.62314 0.0
H229 H 0.35228 0.47307 0.70253 0.0
H230 H 0.45827 0.53829 0.70649 0.0
H231 H 0.48875 0.50155 0.6329 0.0
H232 H 0.38275 0.43544 0.62886 0.0
H233 H 0.51807 0.63107 0.65403 0.0
H234 H 0.56236 0.42469 0.6622 0.0
H235 H 0.54476 0.32541 0.67838 0.0
H236 H 0.59789 0.41692 0.74626 0.0
H237 H 0.61377 0.51715 0.73061 0.0
C238 C 0.83202 0.72004 0.66891 0.0
C239 C 0.8524 0.74602 0.69136 0.0
C240 C 0.77233 0.68235 0.66547 0.0
C241 C 0.73257 0.66993 0.68444 0.0
C242 C 0.75382 0.69403 0.70695 0.0
C243 C 0.81321 0.73236 0.71039 0.0
C244 C 0.66762 0.63347 0.68067 0.0
C245 C 0.65692 0.57686 0.68972 0.0
C246 C 0.61732 0.65355 0.66761 0.0
C247 C 0.62501 0.71468 0.65872 0.0
C248 C 0.6424 0.76899 0.67382 0.0
C249 C 0.65016 0.82628 0.66531 0.0
C250 C 0.63964 0.83005 0.64177 0.0
C251 C 0.62135 0.7765 0.6267 0.0
C252 C 0.61402 0.71902 0.63509 0.0
C253 C 0.38121 0.47972 0.68717 0.0
C254 C 0.35985 0.44953 0.6654 0.0
C255 C 0.44158 0.51658 0.68947 0.0
C256 C 0.48093 0.52408 0.66999 0.0
C257 C 0.45866 0.49597 0.64806 0.0
C258 C 0.39862 0.45827 0.6458 0.0
C259 C 0.5467 0.55925 0.67282 0.0
C260 C 0.55749 0.61562 0.66362 0.0
C261 C 0.59698 0.5391 0.68584 0.0
C262 C 0.58833 0.47867 0.69526 0.0
C263 C 0.56943 0.42384 0.68063 0.0
C264 C 0.55973 0.36736 0.68971 0.0
C265 C 0.56982 0.36491 0.71336 0.0
C266 C 0.58979 0.41893 0.72796 0.0
C267 C 0.59904 0.47562 0.719 0.0
H268 H 0.56265 0.32108 0.72032 0.0
H269 H 0.64523 0.8745 0.63525 0.0
H270 H 0.88976 0.17554 0.66249 0.0
H271 H 0.77038 0.17606 0.6625 0.0
H272 H 0.74914 1.01493 0.6989 0.0
H273 H 0.86953 1.01311 0.69834 0.0
H274 H 0.65495 1.0032 0.66772 0.0
H275 H 0.73085 0.16923 0.72645 0.0
H276 H 0.79767 0.26533 0.74266 0.0
H277 H 0.71989 0.36222 0.69063 0.0
H278 H 0.65318 0.26648 0.67398 0.0
H279 H 0.32165 1.02283 0.69964 0.0
H280 H 0.44098 1.02187 0.69919 0.0
H281 H 0.46174 0.18371 0.66319 0.0
H282 H 0.34144 0.18586 0.66414 0.0
H283 H 0.55628 0.19517 0.69397 0.0
H284 H 0.479 1.03018 0.63558 0.0
H285 H 0.41279 0.93423 0.61894 0.0
H286 H 0.49364 0.83523 0.66967 0.0
H287 H 0.55975 0.93078 0.68679 0.0
C288 C 0.86004 0.14006 0.67058 0.0
C289 C 0.89006 0.09449 0.68058 0.0
C290 C 0.79122 0.14074 0.67072 0.0
C291 C 0.74977 0.09651 0.68121 0.0
C292 C 0.77943 1.05007 0.69083 0.0
C293 C 0.84858 1.04907 0.69053 0.0
C294 C 0.67588 0.09845 0.68176 0.0
C295 C 0.63355 1.04503 0.67384 0.0
C296 C 0.64689 0.15324 0.68904 0.0
C297 C 0.68731 0.21068 0.69892 0.0
C298 C 0.72833 0.21097 0.7184 0.0
C299 C 0.76612 0.26537 0.72767 0.0
C300 C 0.76308 0.31983 0.71766 0.0
C301 C 0.72229 0.31998 0.69835 0.0
C302 C 0.68437 0.26571 0.68902 0.0
C303 C 0.35125 1.05837 0.69155 0.0
C304 C 0.32111 0.10426 0.68179 0.0
C305 C 0.42004 1.05744 0.69115 0.0
C306 C 0.46135 0.1018 0.68067 0.0
C307 C 0.43157 0.14848 0.67126 0.0
C308 C 0.36245 0.14968 0.67178 0.0
C309 C 0.53525 0.09985 0.67999 0.0
C310 C 0.5776 0.1533 0.68788 0.0
C311 C 0.56425 1.04508 0.67264 0.0
C312 C 0.52393 0.98774 0.66257 0.0
C313 C 0.48226 0.98805 0.6433 0.0
C314 C 0.44483 0.93371 0.63376 0.0
C315 C 0.44892 0.87869 0.64327 0.0
C316 C 0.49041 0.8779 0.66235 0.0
C317 C 0.52795 0.93211 0.67195 0.0
H318 H 0.42002 0.83666 0.63583 0.0
H319 H 0.79229 0.36192 0.72489 0.0
H320 H 0.7432 0.85452 0.06159 0.0
H321 H 0.67777 0.75312 0.05697 0.0
H322 H 0.66662 0.75957 0.98307 0.0
H323 H 0.73029 0.8616 0.98775 0.0
H324 H 0.55187 0.71233 -0.00161 0.0
H325 H 0.7797 0.6864 0.00956 0.0
H326 H 0.88664 0.70286 0.03047 0.0
H327 H 0.79855 0.61466 0.08694 0.0
H328 H 0.69035 0.60002 0.06687 0.0
H329 H 0.45629 0.39372 0.9652 0.0
H330 H 0.51997 0.496 0.96955 0.0
H331 H 0.53162 0.49126 0.04353 0.0
H332 H 0.46962 0.38854 0.03915 0.0
H333 H 0.64627 0.53758 0.02791 0.0
H334 H 0.41823 0.56396 0.01673 0.0
H335 H 0.31134 0.54766 0.99577 0.0
H336 H 0.40018 0.63453 0.93911 0.0
H337 H 0.50825 0.6492 0.95929 0.0
C338 C 0.72639 0.83427 0.04441 0.0
C339 C 0.74191 0.86556 0.02501 0.0
C340 C 0.68912 0.77646 0.04177 0.0
C341 C 0.66821 0.74835 0.01962 0.0
C342 C 0.6822 0.78037 0.00032 0.0
C343 C 0.71858 0.83856 0.003 0.0
C344 C 0.63396 0.68466 0.01636 0.0
C345 C 0.5728 0.67395 0.00461 0.0
C346 C 0.66097 0.63485 0.02486 0.0
C347 C 0.72659 0.64251 0.03673 0.0
C348 C 0.78294 0.67081 0.02649 0.0
C349 C 0.84381 0.67991 0.03822 0.0
C350 C 0.84946 0.65955 0.05995 0.0
C351 C 0.79412 0.63036 0.07008 0.0
C352 C 0.73292 0.62188 0.05858 0.0
C353 C 0.47272 0.41459 0.98235 0.0
C354 C 0.45803 0.38347 0.00185 0.0
C355 C 0.50898 0.47291 0.98483 0.0
C356 C 0.52975 0.50162 0.00691 0.0
C357 C 0.5162 0.46996 0.02633 0.0
C358 C 0.4808 0.41136 0.02382 0.0
C359 C 0.56409 0.56527 0.00999 0.0
C360 C 0.62532 0.57596 0.02169 0.0
C361 C 0.53717 0.61503 0.00143 0.0
C362 C 0.47165 0.60729 0.9895 0.0
C363 C 0.41515 0.5793 -0.00025 0.0
C364 C 0.35433 0.57025 0.98799 0.0
C365 C 0.34893 0.59026 0.96619 0.0
C366 C 0.40443 0.61909 0.95603 0.0
C367 C 0.46555 0.62759 0.96758 0.0
H368 H 0.30174 0.58338 0.95715 0.0
H369 H 0.89669 0.66645 0.06895 0.0
H370 H 0.12025 0.31288 0.23996 0.0
H371 H 0.14251 0.36772 0.20602 0.0
H372 H 1.03188 0.51242 0.23674 0.0
H373 H 1.00712 0.45629 0.26965 0.0
H374 H 1.03315 0.51634 0.19117 0.0
H375 H 0.23724 0.4966 0.25119 0.0
H376 H 0.31194 0.42187 0.26081 0.0
H377 H 0.32449 0.35537 0.18858 0.0
H378 H 0.25033 0.43016 0.17864 0.0
H379 H 0.1321 0.68155 0.28677 0.0
H380 H 0.14316 0.60293 0.25455 0.0
H381 H 0.19336 0.74297 0.20923 0.0
H382 H 0.18363 0.82308 0.24195 0.0
H383 H 0.26129 0.59066 0.21865 0.0
H384 H 0.12015 0.69309 0.1742 0.0
H385 H 1.0413 0.76826 0.16964 0.0
H386 H 0.90273 0.67397 0.21287 0.0
H387 H 0.98095 0.59861 0.21783 0.0
C388 C 0.09836 0.3551 0.23885 0.0
C389 C 1.06347 0.38138 0.25765 0.0
C390 C 0.11147 0.38672 0.21946 0.0
C391 C 0.09072 0.44537 0.21885 0.0
C392 C 1.04893 0.46745 0.23648 0.0
C393 C 1.03546 0.43579 0.25562 0.0
C394 C 0.12375 0.49096 0.20424 0.0
C395 C 0.08416 0.53232 0.19599 0.0
C396 C 0.19171 0.51112 0.20834 0.0
C397 C 0.23852 0.46859 0.21421 0.0
C398 C 0.25659 0.46636 0.23741 0.0
C399 C 0.29858 0.42394 0.24291 0.0
C400 C 0.32296 0.3839 0.22532 0.0
C401 C 0.30563 0.3864 0.20218 0.0
C402 C 0.26369 0.42877 0.1966 0.0
C403 C 0.14725 0.69605 0.27019 0.0
C404 C 0.15694 0.7587 0.26698 0.0
C405 C 0.1533 0.65098 0.25171 0.0
C406 C 0.1691 0.66721 0.22953 0.0
C407 C 0.18094 0.72959 0.2262 0.0
C408 C 0.17497 0.77514 0.24486 0.0
C409 C 0.16634 0.61673 0.21029 0.0
C410 C 0.21248 0.57453 0.2114 0.0
C411 C 0.10445 0.59601 0.19951 0.0
C412 C 1.05629 0.64007 0.19625 0.0
C413 C 0.07283 0.68844 0.18272 0.0
C414 C 1.02827 0.73109 0.18008 0.0
C415 C 0.96698 0.72582 0.19092 0.0
C416 C 0.95012 0.67786 0.20441 0.0
C417 C 0.99447 0.63503 0.20707 0.0
H418 H 0.93254 0.75889 0.18888 0.0
H419 H 0.35526 0.35094 0.22962 0.0
H420 H 0.98268 1.04735 0.26919 0.0
H421 H 0.98955 1.06233 0.2282 0.0
H422 H 0.17152 0.18194 0.24174 0.0
H423 H 0.16433 0.16747 0.28315 0.0
H424 H 0.09487 0.22439 0.20911 0.0
H425 H 0.17304 1.03064 0.2204 0.0
H426 H 0.16511 0.92788 0.2339 0.0
H427 H 0.99281 0.8694 0.19092 0.0
H428 H 0.99925 0.97213 0.17742 0.0
H429 H 0.20357 1.07129 0.08808 0.0
H430 H 0.18995 1.07578 0.12984 0.0
H431 H 1.03315 0.1908 0.12619 0.0
H432 H 1.04821 0.18772 0.08397 0.0
H433 H 0.09566 1.03392 0.15431 0.0
H434 H 1.0155 0.27379 0.17811 0.0
H435 H 1.03025 0.37761 0.16523 0.0
H436 H 0.22084 0.34455 0.13825 0.0
H437 H 0.20721 0.24064 0.15101 0.0
C438 C 1.02411 1.07712 0.26353 0.0
C439 C 0.07348 0.10545 0.27945 0.0
C440 C 1.02799 0.08567 0.23999 0.0
C441 C 0.08168 0.12241 0.23159 0.0
C442 C 0.12973 0.15305 0.24764 0.0
C443 C 0.12581 0.1445 0.27131 0.0
C444 C 0.08931 0.12538 0.20597 0.0
C445 C 0.09506 0.18273 0.19715 0.0
C446 C 0.0898 1.07128 0.19011 0.0
C447 C 0.08635 1.00922 0.19803 0.0
C448 C 0.13327 0.99593 0.21392 0.0
C449 C 0.12909 0.9376 0.22155 0.0
C450 C 0.07853 0.89196 0.21325 0.0
C451 C 1.03205 0.90464 0.19731 0.0
C452 C 1.03596 0.96291 0.18965 0.0
C453 C 0.16635 0.09798 0.09609 0.0
C454 C 0.12707 0.12924 0.08256 0.0
C455 C 0.15844 0.10038 0.12012 0.0
C456 C 0.11074 0.13388 0.13154 0.0
C457 C 0.07119 0.1654 0.11807 0.0
C458 C 0.07948 0.16333 0.09385 0.0
C459 C 0.10173 0.13303 0.15727 0.0
C460 C 0.09539 1.0758 0.16617 0.0
C461 C 0.10145 0.18725 0.17313 0.0
C462 C 0.11004 0.24937 0.16531 0.0
C463 C 1.06044 0.28868 0.16936 0.0
C464 C 0.06853 0.34744 0.16203 0.0
C465 C 0.12631 0.36755 0.15084 0.0
C466 C 0.176 0.32883 0.14684 0.0
C467 C 0.16806 0.26997 0.15407 0.0
H468 H 0.13272 0.41324 0.14535 0.0
H469 H 0.07534 0.84679 0.21915 0.0
H470 H 1.01542 1.05863 0.41505 0.0
H471 H 1.00984 1.04555 0.45655 0.0
H472 H 0.19269 0.1647 0.4688 0.0
H473 H 0.19744 0.1789 0.42772 0.0
H474 H 0.08123 1.00014 0.48647 0.0
H475 H 0.19742 0.24721 0.5213 0.0
H476 H 0.20392 0.35284 0.51034 0.0
H477 H 1.02337 0.30506 0.47097 0.0
H478 H 1.01532 0.19944 0.48194 0.0
H479 H 0.18094 1.00569 0.60386 0.0
H480 H 0.17569 1.01678 0.56248 0.0
H481 H 1.02777 0.14165 0.57572 0.0
H482 H 1.03406 0.13157 0.61733 0.0
H483 H 0.10884 0.18397 0.54532 0.0
H484 H 0.98942 0.98734 0.55104 0.0
H485 H 0.96958 0.88193 0.56212 0.0
H486 H 0.13293 0.82922 0.52067 0.0
H487 H 0.15432 0.93461 0.50958 0.0
C488 C 1.05441 0.08191 0.42662 0.0
C489 C 0.10651 0.12034 0.41806 0.0
C490 C 1.05129 1.07437 0.45039 0.0
C491 C 0.10016 0.10505 0.46615 0.0
C492 C 0.15331 0.14167 0.45734 0.0
C493 C 0.15619 0.14951 0.43372 0.0
C494 C 0.09588 0.09932 0.49173 0.0
C495 C 0.08732 1.04044 0.49928 0.0
C496 C 0.10215 0.15161 0.50875 0.0
C497 C 0.10615 0.21525 0.50228 0.0
C498 C 0.15897 0.25933 0.51039 0.0
C499 C 0.16295 0.31919 0.50416 0.0
C500 C 0.1142 0.3356 0.48991 0.0
C501 C 1.06123 0.29224 0.48193 0.0
C502 C 1.05697 0.23235 0.48813 0.0
C503 C 0.14726 1.03555 0.59798 0.0
C504 C 0.10766 1.06747 0.61395 0.0
C505 C 0.14397 1.04161 0.57421 0.0
C506 C 0.10045 1.07927 0.56563 0.0
C507 C 1.06165 0.11209 0.58168 0.0
C508 C 1.06515 0.10621 0.60552 0.0
C509 C 0.09603 0.08477 0.54007 0.0
C510 C 0.10285 0.14364 0.53252 0.0
C511 C 0.0866 1.0325 0.52308 0.0
C512 C 0.07381 0.96903 0.52964 0.0
C513 C 1.0214 0.95339 0.54442 0.0
C514 C 1.00984 0.89363 0.55068 0.0
C515 C 1.05006 0.84895 0.54215 0.0
C516 C 0.10185 0.8639 0.52728 0.0
C517 C 0.11368 0.92363 0.52098 0.0
H518 H 1.04103 0.8027 0.54702 0.0
H519 H 0.11741 0.38194 0.48509 0.0
H520 H 0.16714 1.06076 0.74581 0.0
H521 H 0.17145 1.05191 0.78763 0.0
H522 H 1.04268 0.19452 0.80034 0.0
H523 H 1.03823 0.20335 0.7588 0.0
H524 H 0.14499 0.21384 0.83102 0.0
H525 H 0.98697 1.04201 0.80144 0.0
H526 H 0.95102 0.94642 0.77589 0.0
H527 H 0.10227 0.85617 0.80487 0.0
H528 H 0.13992 0.95164 0.83031 0.0
H529 H 1.01874 0.18953 0.942 0.0
H530 H 1.03323 0.18597 0.90026 0.0
H531 H 0.16123 1.04323 0.90184 0.0
H532 H 0.14626 1.04637 0.94415 0.0
H533 H 0.07406 1.01893 0.86403 0.0
H534 H 0.22702 0.18695 0.89577 0.0
H535 H 0.26493 0.28233 0.92112 0.0
H536 H 0.12751 0.3794 0.88789 0.0
H537 H 0.08789 0.28429 0.8626 0.0
C538 C 0.13963 0.09005 0.75755 0.0
C539 C 0.10231 0.13275 0.74891 0.0
C540 C 0.142 0.0849 0.78149 0.0
C541 C 0.10719 0.12241 0.79734 0.0
C542 C 0.0702 0.16513 0.78864 0.0
C543 C 0.0675 0.16999 0.76479 0.0
C544 C 0.10894 0.11783 0.82297 0.0
C545 C 0.12898 0.17125 0.83818 0.0
C546 C 0.09021 1.06194 0.83253 0.0
C547 C 1.06674 1.00418 0.81759 0.0
C548 C 1.01286 1.00191 0.80225 0.0
C549 C 0.99215 0.94775 0.78779 0.0
C550 C 1.02446 0.89531 0.78871 0.0
C551 C 0.07737 0.89686 0.80415 0.0
C552 C 0.09842 0.95099 0.81859 0.0
C553 C 1.05009 0.15725 0.93358 0.0
C554 C 0.08146 0.11834 0.94654 0.0
C555 C 1.05851 0.1554 0.90959 0.0
C556 C 0.09893 0.11482 0.8977 0.0
C557 C 0.12984 1.07508 0.91051 0.0
C558 C 0.12152 1.07707 0.93472 0.0
C559 C 0.1087 0.11534 0.87205 0.0
C560 C 0.09082 1.06132 0.85685 0.0
C561 C 0.12984 0.17064 0.86244 0.0
C562 C 0.15415 0.22829 0.87738 0.0
C563 C 0.20456 0.22852 0.89396 0.0
C564 C 0.22639 0.28256 0.90831 0.0
C565 C 0.19858 0.33687 0.90613 0.0
C566 C 0.14899 0.33728 0.88956 0.0
C567 C 0.12686 0.28332 0.87519 0.0
H568 H 0.21552 0.37866 0.91727 0.0
H569 H 1.00839 0.85344 0.77748 0.0
loop_
_geom_bond_atom_site_label_1
_geom_bond_atom_site_label_2
_geom_bond_distance
_geom_bond_site_symmetry_2
_ccdc_geom_bond_type
Ho0 C3 2.811 . S
Ho0 O20 2.322 . S
Ho0 O22 2.378 . S
Ho0 O23 2.524 1_554 S
Ho0 O24 2.381 . S
Ho0 O25 2.669 1_455 S
Ho0 O27 2.346 1_545 S
Ho0 O31 2.305 1_554 S
Ho1 C12 2.804 1_546 S
Ho1 O21 2.347 1_556 S
Ho1 O25 2.279 1_556 S
Ho1 O26 2.326 1_545 S
Ho1 O28 2.386 1_545 S
Ho1 O29 2.503 1_546 S
Ho1 O30 2.416 . S
Ho1 O31 2.687 1_655 S
C2 O20 1.259 . S
C2 O21 1.268 1_455 S
C3 Ho0 2.811 . S
C3 C4 1.488 . S
C3 O22 1.215 . S
C3 O23 1.289 1_554 S
C4 C3 1.488 . S
C4 C5 1.348 1_554 S
C4 C9 1.413 . S
C5 C4 1.348 1_556 S
C5 C6 1.442 . S
C5 H32 0.930 . S
C6 C5 1.442 . S
C6 C7 1.381 1_556 S
C6 H33 0.931 . S
C7 C6 1.381 1_554 S
C7 C8 1.321 . S
C8 C7 1.321 . S
C8 C9 1.403 . S
C8 H34 0.934 . S
C9 C4 1.413 . S
C9 C8 1.403 . S
C9 H35 0.930 . S
C10 O24 1.275 . S
C10 O25 1.256 1_455 S
C11 O26 1.259 1_454 S
C11 O27 1.268 . S
C12 Ho1 2.804 1_564 S
C12 C13 1.488 . S
C12 O28 1.215 1_554 S
C12 O29 1.289 . S
C13 C12 1.488 . S
C13 C14 1.348 . S
C13 C18 1.413 1_554 S
C14 C13 1.348 . S
C14 C15 1.442 . S
C14 H36 0.930 . S
C15 C14 1.442 . S
C15 C16 1.381 . S
C15 H37 0.931 . S
C16 C15 1.381 . S
C16 C17 1.321 1_554 S
C17 C16 1.321 1_556 S
C17 C18 1.403 . S
C17 H38 0.934 . S
C18 C13 1.413 1_556 S
C18 C17 1.403 . S
C18 H39 0.930 . S
C19 O30 1.277 . S
C19 O31 1.256 1_655 S
O20 Ho0 2.322 . S
O20 C2 1.259 . S
O21 Ho1 2.347 1_554 S
O21 C2 1.268 1_655 S
O22 Ho0 2.378 . S
O22 C3 1.215 . S
O23 Ho0 2.524 1_556 S
O23 C3 1.289 1_556 S
O24 Ho0 2.381 . S
O24 C10 1.275 . S
O25 Ho0 2.669 1_655 S
O25 Ho1 2.279 1_554 S
O25 C10 1.256 1_655 S
O26 Ho1 2.326 1_565 S
O26 C11 1.259 1_656 S
O27 Ho0 2.346 1_565 S
O27 C11 1.268 . S
O28 Ho1 2.386 1_565 S
O28 C12 1.215 1_556 S
O29 Ho1 2.503 1_564 S
O29 C12 1.289 . S
O30 Ho1 2.416 . S
O30 C19 1.277 . S
O31 Ho0 2.305 1_556 S
O31 Ho1 2.687 1_455 S
O31 C19 1.256 1_455 S
H32 C5 0.930 . S
H33 C6 0.931 . S
H34 C8 0.934 . S
H35 C9 0.930 . S
H36 C14 0.930 . S
H37 C15 0.931 . S
H38 C17 0.934 . S
H39 C18 0.930 . S
Ho40 C43 2.811 . S
Ho40 O60 2.322 1_455 S
Ho40 O62 2.378 . S
Ho40 O63 2.524 . S
Ho40 O64 2.381 . S
Ho40 O65 2.669 . S
Ho40 O67 2.346 . S
Ho40 O71 2.305 . S
Ho41 C52 2.811 . S
Ho41 O61 2.354 1_455 S
Ho41 O65 2.305 1_565 S
Ho41 O66 2.322 . S
Ho41 O68 2.378 . S
Ho41 O69 2.524 . S
Ho41 O70 2.381 . S
Ho41 O71 2.669 1_565 S
C42 O60 1.259 . S
C42 O61 1.257 1_545 S
C43 Ho40 2.811 . S
C43 C44 1.488 . S
C43 O62 1.215 . S
C43 O63 1.289 . S
C44 C43 1.488 . S
C44 C45 1.348 1_455 S
C44 C49 1.413 . S
C45 C44 1.348 1_655 S
C45 C46 1.442 . S
C45 H72 0.930 . S
C46 C45 1.442 . S
C46 C47 1.381 . S
C46 H73 0.931 . S
C47 C46 1.381 . S
C47 C48 1.321 1_655 S
C48 C47 1.321 1_455 S
C48 C49 1.403 . S
C48 H74 0.934 . S
C49 C44 1.413 . S
C49 C48 1.403 . S
C49 H75 0.930 . S
C50 O64 1.275 . S
C50 O65 1.256 . S
C51 O66 1.259 1_545 S
C51 O67 1.268 . S
C52 Ho41 2.811 . S
C52 C53 1.488 . S
C52 O68 1.215 . S
C52 O69 1.289 . S
C53 C52 1.488 . S
C53 C54 1.348 . S
C53 C58 1.413 . S
C54 C53 1.348 . S
C54 C55 1.442 . S
C54 H76 0.930 . S
C55 C54 1.442 . S
C55 C56 1.381 . S
C55 H77 0.931 . S
C56 C55 1.381 . S
C56 C57 1.321 . S
C57 C56 1.321 . S
C57 C58 1.403 . S
C57 H78 0.934 . S
C58 C53 1.413 . S
C58 C57 1.403 . S
C58 H79 0.930 . S
C59 O70 1.275 1_545 S
C59 O71 1.256 . S
O60 Ho40 2.322 1_655 S
O60 C42 1.259 . S
O61 Ho41 2.354 1_655 S
O61 C42 1.257 1_565 S
O62 Ho40 2.378 . S
O62 C43 1.215 . S
O63 Ho40 2.524 . S
O63 C43 1.289 . S
O64 Ho40 2.381 . S
O64 C50 1.275 . S
O65 Ho40 2.669 . S
O65 Ho41 2.305 1_545 S
O65 C50 1.256 . S
O66 Ho41 2.322 . S
O66 C51 1.259 1_565 S
O67 Ho40 2.346 . S
O67 C51 1.268 . S
O68 Ho41 2.378 . S
O68 C52 1.215 . S
O69 Ho41 2.524 . S
O69 C52 1.289 . S
O70 Ho41 2.381 . S
O70 C59 1.275 1_565 S
O71 Ho40 2.305 . S
O71 Ho41 2.669 1_545 S
O71 C59 1.256 . S
H72 C45 0.930 . S
H73 C46 0.931 . S
H74 C48 0.934 . S
H75 C49 0.930 . S
H76 C54 0.930 . S
H77 C55 0.931 . S
H78 C57 0.934 . S
H79 C58 0.930 . S
Ho80 C83 2.811 1_455 S
Ho80 O100 2.322 1_455 S
Ho80 O102 2.378 1_455 S
Ho80 O103 2.524 1_455 S
Ho80 O104 2.381 . S
Ho80 O105 2.669 1_565 S
Ho80 O107 2.346 . S
Ho80 O111 2.305 1_565 S
Ho81 C92 2.811 . S
Ho81 O101 2.346 1_455 S
Ho81 O105 2.305 . S
Ho81 O106 2.322 . S
Ho81 O108 2.378 . S
Ho81 O109 2.524 . S
Ho81 O110 2.381 . S
Ho81 O111 2.669 . S
C82 O100 1.259 1_545 S
C82 O101 1.268 . S
C83 Ho80 2.811 1_655 S
C83 C84 1.488 . S
C83 O102 1.215 . S
C83 O103 1.289 . S
C84 C83 1.488 . S
C84 C85 1.348 . S
C84 C89 1.413 . S
C85 C84 1.348 . S
C85 C86 1.442 . S
C85 H112 0.930 . S
C86 C85 1.442 . S
C86 C87 1.381 . S
C86 H113 0.931 . S
C87 C86 1.381 . S
C87 C88 1.321 . S
C88 C87 1.321 . S
C88 C89 1.403 . S
C88 H114 0.934 . S
C89 C84 1.413 . S
C89 C88 1.403 . S
C89 H115 0.930 . S
C90 O104 1.263 1_545 S
C90 O105 1.261 . S
C91 O106 1.259 . S
C91 O107 1.268 1_545 S
C92 Ho81 2.811 . S
C92 C93 1.488 . S
C92 O108 1.215 . S
C92 O109 1.289 . S
C93 C92 1.488 . S
C93 C94 1.348 . S
C93 C98 1.413 . S
C94 C93 1.348 . S
C94 C95 1.442 . S
C94 H116 0.930 . S
C95 C94 1.442 . S
C95 C96 1.381 . S
C95 H117 0.931 . S
C96 C95 1.381 . S
C96 C97 1.321 . S
C97 C96 1.321 . S
C97 C98 1.403 . S
C97 H118 0.934 . S
C98 C93 1.413 . S
C98 C97 1.403 . S
C98 H119 0.930 . S
C99 O110 1.275 . S
C99 O111 1.256 . S
O100 Ho80 2.322 1_655 S
O100 C82 1.259 1_565 S
O101 Ho81 2.346 1_655 S
O101 C82 1.268 . S
O102 Ho80 2.378 1_655 S
O102 C83 1.215 . S
O103 Ho80 2.524 1_655 S
O103 C83 1.289 . S
O104 Ho80 2.381 . S
O104 C90 1.263 1_565 S
O105 Ho80 2.669 1_545 S
O105 Ho81 2.305 . S
O105 C90 1.261 . S
O106 Ho81 2.322 . S
O106 C91 1.259 . S
O107 Ho80 2.346 . S
O107 C91 1.268 1_565 S
O108 Ho81 2.378 . S
O108 C92 1.215 . S
O109 Ho81 2.524 . S
O109 C92 1.289 . S
O110 Ho81 2.381 . S
O110 C99 1.275 . S
O111 Ho80 2.305 1_545 S
O111 Ho81 2.669 . S
O111 C99 1.256 . S
H112 C85 0.930 . S
H113 C86 0.931 . S
H114 C88 0.934 . S
H115 C89 0.930 . S
H116 C94 0.930 . S
H117 C95 0.931 . S
H118 C97 0.934 . S
H119 C98 0.930 . S
H120 C138 0.952 . S
H121 C140 0.951 . S
H122 C142 0.950 . S
H123 C143 0.950 . S
H124 C145 0.950 . S
H125 C148 0.950 . S
H126 C149 0.950 . S
H127 C151 0.950 . S
H128 C152 0.950 . S
H129 C153 0.951 . S
H130 C155 0.951 . S
H131 C157 0.948 1_556 S
H132 C158 0.949 1_556 S
H133 C160 0.950 . S
H134 C163 0.950 . S
H135 C164 0.950 . S
H136 C166 0.950 . S
H137 C167 0.950 . S
C138 H120 0.952 . S
C138 C139 1.366 . S
C138 C140 1.388 . S
C139 C138 1.366 . S
C139 C143 1.385 1_455 S
C140 H121 0.951 . S
C140 C138 1.388 . S
C140 C141 1.366 . S
C141 C140 1.366 . S
C141 C142 1.414 1_455 S
C141 C144 1.499 . S
C142 H122 0.950 . S
C142 C141 1.414 1_655 S
C142 C143 1.374 . S
C143 H123 0.950 . S
C143 C139 1.385 1_655 S
C143 C142 1.374 . S
C144 C141 1.499 . S
C144 C145 1.373 1_454 S
C144 C146 1.389 . S
C145 H124 0.950 . S
C145 C144 1.373 1_656 S
C145 C161 1.377 . S
C146 C144 1.389 . S
C146 C147 1.524 . S
C146 C160 1.377 . S
C147 C146 1.524 . S
C147 C148 1.397 . S
C147 C152 1.363 . S
C148 H125 0.950 . S
C148 C147 1.397 . S
C148 C149 1.334 . S
C149 H126 0.950 . S
C149 C148 1.334 . S
C149 C150 1.287 . S
C150 C149 1.287 . S
C150 C151 1.524 . S
C150 H169 0.913 . S
C151 H127 0.950 . S
C151 C150 1.524 . S
C151 C152 1.415 . S
C152 H128 0.950 . S
C152 C147 1.363 . S
C152 C151 1.415 . S
C153 H129 0.951 . S
C153 C154 1.366 1_655 S
C153 C155 1.388 . S
C154 C153 1.366 1_455 S
C154 C158 1.385 . S
C155 H130 0.951 . S
C155 C153 1.388 . S
C155 C156 1.366 1_655 S
C156 C155 1.366 1_455 S
C156 C157 1.422 . S
C156 C159 1.499 . S
C157 H131 0.948 1_554 S
C157 C156 1.422 . S
C157 C158 1.371 . S
C158 H132 0.949 1_554 S
C158 C154 1.385 . S
C158 C157 1.371 . S
C159 C156 1.499 . S
C159 C160 1.373 . S
C159 C161 1.389 1_454 S
C160 H133 0.950 . S
C160 C146 1.377 . S
C160 C159 1.373 . S
C161 C145 1.377 . S
C161 C159 1.389 1_656 S
C161 C162 1.524 . S
C162 C161 1.524 . S
C162 C163 1.397 . S
C162 C167 1.363 . S
C163 H134 0.950 . S
C163 C162 1.397 . S
C163 C164 1.334 . S
C164 H135 0.950 . S
C164 C163 1.334 . S
C164 C165 1.287 . S
C165 C164 1.287 . S
C165 C166 1.524 . S
C165 H168 0.999 . S
C166 H136 0.950 . S
C166 C165 1.524 . S
C166 C167 1.415 . S
C167 H137 0.950 . S
C167 C162 1.363 . S
C167 C166 1.415 . S
H168 C165 0.999 . S
H169 C150 0.913 . S
H170 C188 0.951 . S
H171 C190 0.951 . S
H172 C192 0.950 . S
H173 C193 0.950 . S
H174 C195 0.950 . S
H175 C198 0.950 . S
H176 C199 0.950 . S
H177 C201 0.950 . S
H178 C202 0.950 . S
H179 C203 0.951 . S
H180 C205 0.951 . S
H181 C207 0.950 1_565 S
H182 C208 0.950 1_565 S
H183 C210 0.950 . S
H184 C213 0.950 . S
H185 C214 0.950 . S
H186 C216 0.950 . S
H187 C217 0.950 . S
C188 H170 0.951 . S
C188 C189 1.366 1_565 S
C188 C190 1.388 . S
C189 C188 1.366 1_545 S
C189 C193 1.385 . S
C190 H171 0.951 . S
C190 C188 1.388 . S
C190 C191 1.366 1_565 S
C191 C190 1.366 1_545 S
C191 C192 1.414 . S
C191 C194 1.499 . S
C192 H172 0.950 . S
C192 C191 1.414 . S
C192 C193 1.374 . S
C193 H173 0.950 . S
C193 C189 1.385 . S
C193 C192 1.374 . S
C194 C191 1.499 . S
C194 C195 1.373 . S
C194 C196 1.389 1_545 S
C195 H174 0.950 . S
C195 C194 1.373 . S
C195 C211 1.377 . S
C196 C194 1.389 1_565 S
C196 C197 1.524 . S
C196 C210 1.377 . S
C197 C196 1.524 . S
C197 C198 1.397 . S
C197 C202 1.363 . S
C198 H175 0.950 . S
C198 C197 1.397 . S
C198 C199 1.334 . S
C199 H176 0.950 . S
C199 C198 1.334 . S
C199 C200 1.287 . S
C200 C199 1.287 . S
C200 C201 1.524 . S
C200 H219 0.913 . S
C201 H177 0.950 . S
C201 C200 1.524 . S
C201 C202 1.415 . S
C202 H178 0.950 . S
C202 C197 1.363 . S
C202 C201 1.415 . S
C203 H179 0.951 . S
C203 C204 1.366 . S
C203 C205 1.388 . S
C204 C203 1.366 . S
C204 C208 1.385 . S
C205 H180 0.951 . S
C205 C203 1.388 . S
C205 C206 1.366 . S
C206 C205 1.366 . S
C206 C207 1.414 . S
C206 C209 1.499 . S
C207 H181 0.950 1_545 S
C207 C206 1.414 . S
C207 C208 1.374 . S
C208 H182 0.950 1_545 S
C208 C204 1.385 . S
C208 C207 1.374 . S
C209 C206 1.499 . S
C209 C210 1.373 1_545 S
C209 C211 1.389 . S
C210 H183 0.950 . S
C210 C196 1.377 . S
C210 C209 1.373 1_565 S
C211 C195 1.377 . S
C211 C209 1.389 . S
C211 C212 1.524 . S
C212 C211 1.524 . S
C212 C213 1.397 . S
C212 C217 1.363 . S
C213 H184 0.950 . S
C213 C212 1.397 . S
C213 C214 1.334 . S
C214 H185 0.950 . S
C214 C213 1.334 . S
C214 C215 1.287 . S
C215 C214 1.287 . S
C215 C216 1.524 . S
C215 H218 0.999 . S
C216 H186 0.950 . S
C216 C215 1.524 . S
C216 C217 1.415 . S
C217 H187 0.950 . S
C217 C212 1.363 . S
C217 C216 1.415 . S
H218 C215 0.999 . S
H219 C200 0.913 . S
H220 C238 0.951 . S
H221 C240 0.951 . S
H222 C242 0.950 . S
H223 C243 0.950 . S
H224 C245 0.950 . S
H225 C248 0.950 . S
H226 C249 0.950 . S
H227 C251 0.950 . S
H228 C252 0.950 . S
H229 C253 0.951 . S
H230 C255 0.951 . S
H231 C257 0.950 . S
H232 C258 0.950 . S
H233 C260 0.950 . S
H234 C263 0.950 . S
H235 C264 0.950 . S
H236 C266 0.950 . S
H237 C267 0.950 . S
C238 H220 0.951 . S
C238 C239 1.366 . S
C238 C240 1.388 . S
C239 C238 1.366 . S
C239 C243 1.385 . S
C240 H221 0.951 . S
C240 C238 1.388 . S
C240 C241 1.366 . S
C241 C240 1.366 . S
C241 C242 1.414 . S
C241 C244 1.499 . S
C242 H222 0.950 . S
C242 C241 1.414 . S
C242 C243 1.374 . S
C243 H223 0.950 . S
C243 C239 1.385 . S
C243 C242 1.374 . S
C244 C241 1.499 . S
C244 C245 1.373 . S
C244 C246 1.389 . S
C245 H224 0.950 . S
C245 C244 1.373 . S
C245 C261 1.377 . S
C246 C244 1.389 . S
C246 C247 1.524 . S
C246 C260 1.377 . S
C247 C246 1.524 . S
C247 C248 1.397 . S
C247 C252 1.363 . S
C248 H225 0.950 . S
C248 C247 1.397 . S
C248 C249 1.334 . S
C249 H226 0.950 . S
C249 C248 1.334 . S
C249 C250 1.287 . S
C250 C249 1.287 . S
C250 C251 1.524 . S
C250 H269 0.913 . S
C251 H227 0.950 . S
C251 C250 1.524 . S
C251 C252 1.415 . S
C252 H228 0.950 . S
C252 C247 1.363 . S
C252 C251 1.415 . S
C253 H229 0.951 . S
C253 C254 1.366 . S
C253 C255 1.388 . S
C254 C253 1.366 . S
C254 C258 1.385 . S
C255 H230 0.951 . S
C255 C253 1.388 . S
C255 C256 1.366 . S
C256 C255 1.366 . S
C256 C257 1.414 . S
C256 C259 1.499 . S
C257 H231 0.950 . S
C257 C256 1.414 . S
C257 C258 1.374 . S
C258 H232 0.950 . S
C258 C254 1.385 . S
C258 C257 1.374 . S
C259 C256 1.499 . S
C259 C260 1.373 . S
C259 C261 1.389 . S
C260 H233 0.950 . S
C260 C246 1.377 . S
C260 C259 1.373 . S
C261 C245 1.377 . S
C261 C259 1.389 . S
C261 C262 1.524 . S
C262 C261 1.524 . S
C262 C263 1.397 . S
C262 C267 1.363 . S
C263 H234 0.950 . S
C263 C262 1.397 . S
C263 C264 1.334 . S
C264 H235 0.950 . S
C264 C263 1.334 . S
C264 C265 1.287 . S
C265 C264 1.287 . S
C265 C266 1.524 . S
C265 H268 0.999 . S
C266 H236 0.950 . S
C266 C265 1.524 . S
C266 C267 1.415 . S
C267 H237 0.950 . S
C267 C262 1.363 . S
C267 C266 1.415 . S
H268 C265 0.999 . S
H269 C250 0.913 . S
H270 C288 0.951 . S
H271 C290 0.951 . S
H272 C292 0.950 . S
H273 C293 0.950 . S
H274 C295 0.950 . S
H275 C298 0.950 . S
H276 C299 0.950 . S
H277 C301 0.950 . S
H278 C302 0.950 . S
H279 C303 0.951 . S
H280 C305 0.951 . S
H281 C307 0.950 . S
H282 C308 0.950 . S
H283 C310 0.950 . S
H284 C313 0.950 . S
H285 C314 0.950 . S
H286 C316 0.950 . S
H287 C317 0.950 . S
C288 H270 0.951 . S
C288 C289 1.366 . S
C288 C290 1.388 . S
C289 C288 1.366 . S
C289 C293 1.385 1_545 S
C290 H271 0.951 . S
C290 C288 1.388 . S
C290 C291 1.366 . S
C291 C290 1.366 . S
C291 C292 1.414 1_545 S
C291 C294 1.499 . S
C292 H272 0.950 . S
C292 C291 1.414 1_565 S
C292 C293 1.374 . S
C293 H273 0.950 . S
C293 C289 1.385 1_565 S
C293 C292 1.374 . S
C294 C291 1.499 . S
C294 C295 1.373 1_545 S
C294 C296 1.389 . S
C295 H274 0.950 . S
C295 C294 1.373 1_565 S
C295 C311 1.377 . S
C296 C294 1.389 . S
C296 C297 1.524 . S
C296 C310 1.377 . S
C297 C296 1.524 . S
C297 C298 1.397 . S
C297 C302 1.363 . S
C298 H275 0.950 . S
C298 C297 1.397 . S
C298 C299 1.334 . S
C299 H276 0.950 . S
C299 C298 1.334 . S
C299 C300 1.287 . S
C300 C299 1.287 . S
C300 C301 1.524 . S
C300 H319 0.913 . S
C301 H277 0.950 . S
C301 C300 1.524 . S
C301 C302 1.415 . S
C302 H278 0.950 . S
C302 C297 1.363 . S
C302 C301 1.415 . S
C303 H279 0.951 . S
C303 C304 1.366 1_565 S
C303 C305 1.388 . S
C304 C303 1.366 1_545 S
C304 C308 1.385 . S
C305 H280 0.951 . S
C305 C303 1.388 . S
C305 C306 1.366 1_565 S
C306 C305 1.366 1_545 S
C306 C307 1.414 . S
C306 C309 1.499 . S
C307 H281 0.950 . S
C307 C306 1.414 . S
C307 C308 1.374 . S
C308 H282 0.950 . S
C308 C304 1.385 . S
C308 C307 1.374 . S
C309 C306 1.499 . S
C309 C310 1.373 . S
C309 C311 1.389 1_545 S
C310 H283 0.950 . S
C310 C296 1.377 . S
C310 C309 1.373 . S
C311 C295 1.377 . S
C311 C309 1.389 1_565 S
C311 C312 1.524 . S
C312 C311 1.524 . S
C312 C313 1.397 . S
C312 C317 1.363 . S
C313 H284 0.950 . S
C313 C312 1.397 . S
C313 C314 1.334 . S
C314 H285 0.950 . S
C314 C313 1.334 . S
C314 C315 1.287 . S
C315 C314 1.287 . S
C315 C316 1.524 . S
C315 H318 0.999 . S
C316 H286 0.950 . S
C316 C315 1.524 . S
C316 C317 1.415 . S
C317 H287 0.950 . S
C317 C312 1.363 . S
C317 C316 1.415 . S
H318 C315 0.999 . S
H319 C300 0.913 . S
H320 C338 0.951 . S
H321 C340 0.951 . S
H322 C342 0.950 . S
H323 C343 0.950 . S
H324 C345 0.950 . S
H325 C348 0.950 1_556 S
H326 C349 0.950 . S
H327 C351 0.950 . S
H328 C352 0.950 . S
H329 C353 0.951 . S
H330 C355 0.951 . S
H331 C357 0.950 . S
H332 C358 0.950 . S
H333 C360 0.950 . S
H334 C363 0.950 1_554 S
H335 C364 0.950 . S
H336 C366 0.950 . S
H337 C367 0.950 . S
C338 H320 0.951 . S
C338 C339 1.366 . S
C338 C340 1.388 . S
C339 C338 1.366 . S
C339 C343 1.385 1_554 S
C340 H321 0.951 . S
C340 C338 1.388 . S
C340 C341 1.366 . S
C341 C340 1.366 . S
C341 C342 1.414 1_554 S
C341 C344 1.499 . S
C342 H322 0.950 . S
C342 C341 1.414 1_556 S
C342 C343 1.374 . S
C343 H323 0.950 . S
C343 C339 1.385 1_556 S
C343 C342 1.374 . S
C344 C341 1.499 . S
C344 C345 1.373 1_554 S
C344 C346 1.389 . S
C345 H324 0.950 . S
C345 C344 1.373 1_556 S
C345 C361 1.377 . S
C346 C344 1.389 . S
C346 C347 1.524 . S
C346 C360 1.377 . S
C347 C346 1.524 . S
C347 C348 1.397 . S
C347 C352 1.363 . S
C348 H325 0.950 1_554 S
C348 C347 1.397 . S
C348 C349 1.334 . S
C349 H326 0.950 . S
C349 C348 1.334 . S
C349 C350 1.287 . S
C350 C349 1.287 . S
C350 C351 1.524 . S
C350 H369 0.913 . S
C351 H327 0.950 . S
C351 C350 1.524 . S
C351 C352 1.415 . S
C352 H328 0.950 . S
C352 C347 1.363 . S
C352 C351 1.415 . S
C353 H329 0.951 . S
C353 C354 1.366 1_556 S
C353 C355 1.388 . S
C354 C353 1.366 1_554 S
C354 C358 1.385 . S
C355 H330 0.951 . S
C355 C353 1.388 . S
C355 C356 1.366 1_556 S
C356 C355 1.366 1_554 S
C356 C357 1.414 . S
C356 C359 1.499 . S
C357 H331 0.950 . S
C357 C356 1.414 . S
C357 C358 1.374 . S
C358 H332 0.950 . S
C358 C354 1.385 . S
C358 C357 1.374 . S
C359 C356 1.499 . S
C359 C360 1.373 . S
C359 C361 1.389 1_554 S
C360 H333 0.950 . S
C360 C346 1.377 . S
C360 C359 1.373 . S
C361 C345 1.377 . S
C361 C359 1.389 1_556 S
C361 C362 1.524 . S
C362 C361 1.524 . S
C362 C363 1.397 . S
C362 C367 1.363 . S
C363 H334 0.950 1_556 S
C363 C362 1.397 . S
C363 C364 1.334 . S
C364 H335 0.950 . S
C364 C363 1.334 . S
C364 C365 1.287 . S
C365 C364 1.287 . S
C365 C366 1.524 . S
C365 H368 0.999 . S
C366 H336 0.950 . S
C366 C365 1.524 . S
C366 C367 1.415 . S
C367 H337 0.950 . S
C367 C362 1.363 . S
C367 C366 1.415 . S
H368 C365 0.999 . S
H369 C350 0.913 . S
H370 C388 0.951 . S
H371 C390 0.951 . S
H372 C392 0.950 . S
H373 C393 0.950 . S
H374 C395 0.950 1_655 S
H375 C398 0.950 1_655 S
H376 C399 0.950 . S
H377 C401 0.950 . S
H378 C402 0.950 . S
H379 C403 0.951 . S
H380 C405 0.951 . S
H381 C407 0.950 . S
H382 C408 0.950 . S
H383 C410 0.950 . S
H384 C413 0.950 . S
H385 C414 0.950 . S
H386 C416 0.950 . S
H387 C417 0.950 . S
C388 H370 0.951 . S
C388 C389 1.366 1_455 S
C388 C390 1.388 . S
C389 C388 1.366 1_655 S
C389 C393 1.385 . S
C390 H371 0.951 . S
C390 C388 1.388 . S
C390 C391 1.366 1_455 S
C391 C390 1.366 1_655 S
C391 C392 1.414 . S
C391 C394 1.499 1_655 S
C392 H372 0.950 . S
C392 C391 1.414 . S
C392 C393 1.374 . S
C393 H373 0.950 . S
C393 C389 1.385 . S
C393 C392 1.374 . S
C394 C391 1.499 1_455 S
C394 C395 1.373 . S
C394 C396 1.389 . S
C395 H374 0.950 1_455 S
C395 C394 1.373 . S
C395 C411 1.377 . S
C396 C394 1.389 . S
C396 C397 1.524 . S
C396 C410 1.377 . S
C397 C396 1.524 . S
C397 C398 1.397 . S
C397 C402 1.363 . S
C398 H375 0.950 1_455 S
C398 C397 1.397 . S
C398 C399 1.334 . S
C399 H376 0.950 . S
C399 C398 1.334 . S
C399 C400 1.287 . S
C400 C399 1.287 . S
C400 C401 1.524 . S
C400 H419 0.913 . S
C401 H377 0.950 . S
C401 C400 1.524 . S
C401 C402 1.415 . S
C402 H378 0.950 . S
C402 C397 1.363 . S
C402 C401 1.415 . S
C403 H379 0.951 . S
C403 C404 1.366 . S
C403 C405 1.388 . S
C404 C403 1.366 . S
C404 C408 1.385 . S
C405 H380 0.951 . S
C405 C403 1.388 . S
C405 C406 1.366 . S
C406 C405 1.366 . S
C406 C407 1.414 . S
C406 C409 1.499 . S
C407 H381 0.950 . S
C407 C406 1.414 . S
C407 C408 1.374 . S
C408 H382 0.950 . S
C408 C404 1.385 . S
C408 C407 1.374 . S
C409 C406 1.499 . S
C409 C410 1.373 . S
C409 C411 1.389 . S
C410 H383 0.950 . S
C410 C396 1.377 . S
C410 C409 1.373 . S
C411 C395 1.377 . S
C411 C409 1.389 . S
C411 C412 1.524 . S
C412 C411 1.524 . S
C412 C413 1.397 . S
C412 C417 1.363 1_455 S
C413 H384 0.950 . S
C413 C412 1.397 . S
C413 C414 1.334 . S
C414 H385 0.950 . S
C414 C413 1.334 . S
C414 C415 1.287 1_455 S
C415 C414 1.287 1_655 S
C415 C416 1.524 . S
C415 H418 0.999 . S
C416 H386 0.950 . S
C416 C415 1.524 . S
C416 C417 1.415 . S
C417 H387 0.950 . S
C417 C412 1.363 1_655 S
C417 C416 1.415 . S
H418 C415 0.999 . S
H419 C400 0.913 . S
H420 C438 0.951 . S
H421 C440 0.951 . S
H422 C442 0.950 . S
H423 C443 0.950 . S
H424 C445 0.950 . S
H425 C448 0.950 1_455 S
H426 C449 0.950 . S
H427 C451 0.950 . S
H428 C452 0.950 . S
H429 C453 0.951 . S
H430 C455 0.951 . S
H431 C457 0.950 . S
H432 C458 0.950 . S
H433 C460 0.950 . S
H434 C463 0.950 . S
H435 C464 0.950 . S
H436 C466 0.950 . S
H437 C467 0.950 . S
C438 H420 0.951 . S
C438 C439 1.366 1_655 S
C438 C440 1.388 . S
C439 C438 1.366 1_455 S
C439 C443 1.385 . S
C440 H421 0.951 . S
C440 C438 1.388 . S
C440 C441 1.366 1_655 S
C441 C440 1.366 1_455 S
C441 C442 1.414 . S
C441 C444 1.499 . S
C442 H422 0.950 . S
C442 C441 1.414 . S
C442 C443 1.374 . S
C443 H423 0.950 . S
C443 C439 1.385 . S
C443 C442 1.374 . S
C444 C441 1.499 . S
C444 C445 1.373 . S
C444 C446 1.389 1_445 S
C445 H424 0.950 . S
C445 C444 1.373 . S
C445 C461 1.377 . S
C446 C444 1.389 1_665 S
C446 C447 1.524 . S
C446 C460 1.377 . S
C447 C446 1.524 . S
C447 C448 1.397 . S
C447 C452 1.363 . S
C448 H425 0.950 1_655 S
C448 C447 1.397 . S
C448 C449 1.334 . S
C449 H426 0.950 . S
C449 C448 1.334 . S
C449 C450 1.287 . S
C450 C449 1.287 . S
C450 C451 1.524 . S
C450 H469 0.913 . S
C451 H427 0.950 . S
C451 C450 1.524 . S
C451 C452 1.415 . S
C452 H428 0.950 . S
C452 C447 1.363 . S
C452 C451 1.415 . S
C453 H429 0.951 . S
C453 C454 1.366 . S
C453 C455 1.388 . S
C454 C453 1.366 . S
C454 C458 1.385 1_455 S
C455 H430 0.951 . S
C455 C453 1.388 . S
C455 C456 1.366 . S
C456 C455 1.366 . S
C456 C457 1.414 1_455 S
C456 C459 1.499 . S
C457 H431 0.950 . S
C457 C456 1.414 1_655 S
C457 C458 1.374 . S
C458 H432 0.950 . S
C458 C454 1.385 1_655 S
C458 C457 1.374 . S
C459 C456 1.499 . S
C459 C460 1.373 1_445 S
C459 C461 1.389 . S
C460 H433 0.950 . S
C460 C446 1.377 . S
C460 C459 1.373 1_665 S
C461 C445 1.377 . S
C461 C459 1.389 . S
C461 C462 1.524 . S
C462 C461 1.524 . S
C462 C463 1.397 . S
C462 C467 1.363 . S
C463 H434 0.950 . S
C463 C462 1.397 . S
C463 C464 1.334 . S
C464 H435 0.950 . S
C464 C463 1.334 . S
C464 C465 1.287 . S
C465 C464 1.287 . S
C465 C466 1.524 . S
C465 H468 0.999 . S
C466 H436 0.950 . S
C466 C465 1.524 . S
C466 C467 1.415 . S
C467 H437 0.950 . S
C467 C462 1.363 . S
C467 C466 1.415 . S
H468 C465 0.999 . S
H469 C450 0.913 . S
H470 C488 0.951 . S
H471 C490 0.951 . S
H472 C492 0.950 . S
H473 C493 0.950 . S
H474 C495 0.950 . S
H475 C498 0.950 . S
H476 C499 0.950 . S
H477 C501 0.950 . S
H478 C502 0.950 . S
H479 C503 0.951 . S
H480 C505 0.951 . S
H481 C507 0.950 . S
H482 C508 0.950 . S
H483 C510 0.950 . S
H484 C513 0.950 . S
H485 C514 0.950 . S
H486 C516 0.950 . S
H487 C517 0.950 . S
C488 H470 0.951 . S
C488 C489 1.366 . S
C488 C490 1.388 . S
C489 C488 1.366 . S
C489 C493 1.385 1_545 S
C490 H471 0.951 . S
C490 C488 1.388 . S
C490 C491 1.366 . S
C491 C490 1.366 . S
C491 C492 1.414 1_545 S
C491 C494 1.499 . S
C492 H472 0.950 . S
C492 C491 1.414 1_565 S
C492 C493 1.374 . S
C493 H473 0.950 . S
C493 C489 1.385 1_565 S
C493 C492 1.374 . S
C494 C491 1.499 . S
C494 C495 1.373 1_545 S
C494 C496 1.389 . S
C495 H474 0.950 . S
C495 C494 1.373 1_565 S
C495 C511 1.377 . S
C496 C494 1.389 . S
C496 C497 1.524 . S
C496 C510 1.377 . S
C497 C496 1.524 . S
C497 C498 1.397 . S
C497 C502 1.363 . S
C498 H475 0.950 . S
C498 C497 1.397 . S
C498 C499 1.334 . S
C499 H476 0.950 . S
C499 C498 1.334 . S
C499 C500 1.287 . S
C500 C499 1.287 . S
C500 C501 1.524 . S
C500 H519 0.913 . S
C501 H477 0.950 . S
C501 C500 1.524 . S
C501 C502 1.415 . S
C502 H478 0.950 . S
C502 C497 1.363 . S
C502 C501 1.415 . S
C503 H479 0.951 . S
C503 C504 1.366 1_565 S
C503 C505 1.388 . S
C504 C503 1.366 1_545 S
C504 C508 1.385 . S
C505 H480 0.951 . S
C505 C503 1.388 . S
C505 C506 1.366 1_565 S
C506 C505 1.366 1_545 S
C506 C507 1.414 . S
C506 C509 1.499 . S
C507 H481 0.950 . S
C507 C506 1.414 . S
C507 C508 1.374 . S
C508 H482 0.950 . S
C508 C504 1.385 . S
C508 C507 1.374 . S
C509 C506 1.499 . S
C509 C510 1.373 . S
C509 C511 1.389 1_545 S
C510 H483 0.950 . S
C510 C496 1.377 . S
C510 C509 1.373 . S
C511 C495 1.377 . S
C511 C509 1.389 1_565 S
C511 C512 1.524 . S
C512 C511 1.524 . S
C512 C513 1.397 1_455 S
C512 C517 1.363 . S
C513 H484 0.950 . S
C513 C512 1.397 1_655 S
C513 C514 1.334 . S
C514 H485 0.950 . S
C514 C513 1.334 . S
C514 C515 1.287 . S
C515 C514 1.287 . S
C515 C516 1.524 1_655 S
C515 H518 0.999 . S
C516 H486 0.950 . S
C516 C515 1.524 1_455 S
C516 C517 1.415 . S
C517 H487 0.950 . S
C517 C512 1.363 . S
C517 C516 1.415 . S
H518 C515 0.999 . S
H519 C500 0.913 . S
H520 C538 0.945 1_565 S
H521 C540 0.939 1_565 S
H522 C542 0.950 . S
H523 C543 0.950 . S
H524 C545 0.950 . S
H525 C548 0.950 . S
H526 C549 0.950 . S
H527 C551 0.950 . S
H528 C552 0.950 . S
H529 C553 0.951 . S
H530 C555 0.951 . S
H531 C557 0.950 1_565 S
H532 C558 0.950 . S
H533 C560 0.950 . S
H534 C563 0.950 . S
H535 C564 0.950 . S
H536 C566 0.950 . S
H537 C567 0.950 . S
C538 H520 0.945 1_545 S
C538 C539 1.372 . S
C538 C540 1.389 . S
C539 C538 1.372 . S
C539 C543 1.385 1_455 S
C540 H521 0.939 1_545 S
C540 C538 1.389 . S
C540 C541 1.376 . S
C541 C540 1.376 . S
C541 C542 1.414 1_455 S
C541 C544 1.499 . S
C542 H522 0.950 . S
C542 C541 1.414 1_655 S
C542 C543 1.374 . S
C543 H523 0.950 . S
C543 C539 1.385 1_655 S
C543 C542 1.374 . S
C544 C541 1.499 . S
C544 C545 1.373 . S
C544 C546 1.389 1_545 S
C545 H524 0.950 . S
C545 C544 1.373 . S
C545 C561 1.377 . S
C546 C544 1.389 1_565 S
C546 C547 1.524 . S
C546 C560 1.377 . S
C547 C546 1.524 . S
C547 C548 1.397 1_455 S
C547 C552 1.363 . S
C548 H525 0.950 . S
C548 C547 1.397 1_655 S
C548 C549 1.334 . S
C549 H526 0.950 . S
C549 C548 1.334 . S
C549 C550 1.287 1_655 S
C550 C549 1.287 1_455 S
C550 C551 1.524 . S
C550 H569 0.913 . S
C551 H527 0.950 . S
C551 C550 1.524 . S
C551 C552 1.415 . S
C552 H528 0.950 . S
C552 C547 1.363 . S
C552 C551 1.415 . S
C553 H529 0.951 . S
C553 C554 1.366 1_655 S
C553 C555 1.388 . S
C554 C553 1.366 1_455 S
C554 C558 1.385 . S
C555 H530 0.951 . S
C555 C553 1.388 . S
C555 C556 1.366 1_655 S
C556 C555 1.366 1_455 S
C556 C557 1.414 . S
C556 C559 1.499 . S
C557 H531 0.950 1_545 S
C557 C556 1.414 . S
C557 C558 1.374 . S
C558 H532 0.950 . S
C558 C554 1.385 . S
C558 C557 1.374 . S
C559 C556 1.499 . S
C559 C560 1.373 1_545 S
C559 C561 1.389 . S
C560 H533 0.950 . S
C560 C546 1.377 . S
C560 C559 1.373 1_565 S
C561 C545 1.377 . S
C561 C559 1.389 . S
C561 C562 1.524 . S
C562 C561 1.524 . S
C562 C563 1.397 . S
C562 C567 1.363 1_455 S
C563 H534 0.950 . S
C563 C562 1.397 . S
C563 C564 1.334 . S
C564 H535 0.950 . S
C564 C563 1.334 . S
C564 C565 1.287 . S
C565 C564 1.287 . S
C565 C566 1.524 1_455 S
C565 H568 0.999 . S
C566 H536 0.950 . S
C566 C565 1.524 1_655 S
C566 C567 1.415 . S
C567 H537 0.950 . S
C567 C562 1.363 1_655 S
C567 C566 1.415 . S
H568 C565 0.999 . S
H569 C550 0.913 . S
C139 C2 4.861 . S
C154 C11 4.861 . S
C189 C51 3.039 . S
C204 C42 3.039 . S
C239 C87 0.590 . S
C254 C96 0.590 . S
C289 C82 2.995 . S
C304 C91 2.995 . S
C339 C16 0.600 . S
C354 C7 0.600 . S
C389 C47 0.854 . S
C404 C56 0.854 . S
C439 C59 1.468 . S
C454 C10 1.458 . S
C489 C50 1.474 . S
C504 C90 1.478 . S
C539 C99 1.466 . S
C554 C19 1.477 1_455 S
