# Generated by pormake.
# Topology can, (4)-cn, num edge types: 1
# Building blocks:
#     Node 0, Type 0, BuildingBlock: TATPOV_clean_sbu_0, # of connection points: 4
#     Node 1, Type 0, BuildingBlock: TATPOV_clean_sbu_0, # of connection points: 4
#     Node 2, Type 0, BuildingBlock: TATPOV_clean_sbu_0, # of connection points: 4
#     Node 3, Type 0, BuildingBlock: TATPOV_clean_sbu_0, # of connection points: 4
#     Node 4, Type 0, BuildingBlock: TATPOV_clean_sbu_0, # of connection points: 4
#     Node 5, Type 0, BuildingBlock: TATPOV_clean_sbu_0, # of connection points: 4
#     Node 6, Type 0, BuildingBlock: TATPOV_clean_sbu_0, # of connection points: 4
#     Node 7, Type 0, BuildingBlock: TATPOV_clean_sbu_0, # of connection points: 4
#     Node 8, Type 0, BuildingBlock: TATPOV_clean_sbu_0, # of connection points: 4
#     Node 9, Type 0, BuildingBlock: TATPOV_clean_sbu_0, # of connection points: 4
#     Node 10, Type 0, BuildingBlock: TATPOV_clean_sbu_0, # of connection points: 4
#     Node 11, Type 0, BuildingBlock: TATPOV_clean_sbu_0, # of connection points: 4
#     Edge 12, Type (0, 0), BuildingBlock: EZIPEK_clean_linker_0, # of connection points: 2
#     Edge 13, Type (0, 0), BuildingBlock: EZIPEK_clean_linker_0, # of connection points: 2
#     Edge 14, Type (0, 0), BuildingBlock: EZIPEK_clean_linker_0, # of connection points: 2
#     Edge 15, Type (0, 0), BuildingBlock: EZIPEK_clean_linker_0, # of connection points: 2
#     Edge 16, Type (0, 0), BuildingBlock: EZIPEK_clean_linker_0, # of connection points: 2
#     Edge 17, Type (0, 0), BuildingBlock: EZIPEK_clean_linker_0, # of connection points: 2
#     Edge 18, Type (0, 0), BuildingBlock: EZIPEK_clean_linker_0, # of connection points: 2
#     Edge 19, Type (0, 0), BuildingBlock: EZIPEK_clean_linker_0, # of connection points: 2
#     Edge 20, Type (0, 0), BuildingBlock: EZIPEK_clean_linker_0, # of connection points: 2
#     Edge 21, Type (0, 0), BuildingBlock: EZIPEK_clean_linker_0, # of connection points: 2
#     Edge 22, Type (0, 0), BuildingBlock: EZIPEK_clean_linker_0, # of connection points: 2
#     Edge 23, Type (0, 0), BuildingBlock: EZIPEK_clean_linker_0, # of connection points: 2
#     Edge 24, Type (0, 0), BuildingBlock: EZIPEK_clean_linker_0, # of connection points: 2
#     Edge 25, Type (0, 0), BuildingBlock: EZIPEK_clean_linker_0, # of connection points: 2
#     Edge 26, Type (0, 0), BuildingBlock: EZIPEK_clean_linker_0, # of connection points: 2
#     Edge 27, Type (0, 0), BuildingBlock: EZIPEK_clean_linker_0, # of connection points: 2
#     Edge 28, Type (0, 0), BuildingBlock: EZIPEK_clean_linker_0, # of connection points: 2
#     Edge 29, Type (0, 0), BuildingBlock: EZIPEK_clean_linker_0, # of connection points: 2
#     Edge 30, Type (0, 0), BuildingBlock: EZIPEK_clean_linker_0, # of connection points: 2
#     Edge 31, Type (0, 0), BuildingBlock: EZIPEK_clean_linker_0, # of connection points: 2
#     Edge 32, Type (0, 0), BuildingBlock: EZIPEK_clean_linker_0, # of connection points: 2
#     Edge 33, Type (0, 0), BuildingBlock: EZIPEK_clean_linker_0, # of connection points: 2
#     Edge 34, Type (0, 0), BuildingBlock: EZIPEK_clean_linker_0, # of connection points: 2
#     Edge 35, Type (0, 0), BuildingBlock: EZIPEK_clean_linker_0, # of connection points: 2
# Relax obj value: 0.055
# Max RMSD: 0.074
# Mean RMSD: 0.074
data_MOF--net-can--node1-TATPOV_clean_sbu_0--edge1-EZIPEK_clean_linker_0
_symmetry_space_group_name_H-M    P1
_symmetry_Int_Tables_number       1
_symmetry_cell_setting            triclinic
loop_
_symmetry_equiv_pos_as_xyz
'x, y, z'
_cell_length_a     42.283316
_cell_length_b     42.429107
_cell_length_c     19.823441
_cell_angle_alpha  90.177265
_cell_angle_beta   90.01141
_cell_angle_gamma 119.93051
loop_
_atom_site_label
_atom_site_type_symbol
_atom_site_fract_x
_atom_site_fract_y
_atom_site_fract_z
_atom_type_partial_charge
Zn0 Zn 0.00891 0.3959 0.21628 0.0
Zn1 Zn 0.07402 0.40055 0.21564 0.0
O2 O 0.05656 0.38598 0.31421 0.0
O3 O 1.00296 0.38309 0.31408 0.0
O4 O 0.12194 0.401 0.21092 0.0
O5 O 0.98942 0.35669 0.14625 0.0
O6 O 0.04422 0.36358 0.14036 0.0
C7 C 0.02766 0.38033 0.34481 0.0
C8 C 0.06791 0.46788 0.18553 0.0
O9 O 0.08785 0.45356 0.19466 0.0
O10 O 0.03351 0.44886 0.18967 0.0
C11 C 0.15068 0.42406 0.24167 0.0
O12 O 0.14987 0.44887 0.28027 0.0
C13 C 0.01122 0.3479 0.11998 0.0
Zn14 Zn 0.61457 0.00467 0.7699 0.0
Zn15 Zn 0.67283 0.06931 0.74026 0.0
O16 O 0.68613 0.05306 0.82901 0.0
O17 O 0.63632 1.00272 0.85798 0.0
O18 O 0.71952 0.11544 0.71843 0.0
O19 O 0.62304 0.98239 0.68709 0.0
O20 O 0.6655 0.0376 0.65771 0.0
C21 C 0.6688 0.02711 0.87042 0.0
C22 C 0.59839 0.06326 0.75264 0.0
O23 O 0.63276 0.08353 0.74541 0.0
O24 O 0.58442 0.02941 0.76226 0.0
C25 C 0.7329 0.14197 0.7596 0.0
O26 O 0.71519 0.14 0.81528 0.0
C27 C 0.64562 0.00391 0.6443 0.0
Zn28 Zn 0.6273 0.6161 0.29258 0.0
Zn29 Zn 0.61049 0.66835 0.26184 0.0
O30 O 0.62903 0.68073 0.3595 0.0
O31 O 0.64352 0.6388 0.38407 0.0
O32 O 0.60137 0.70879 0.2333 0.0
O33 O 0.66303 0.63157 0.21588 0.0
O34 O 0.64809 0.67279 0.19189 0.0
C35 C 0.64095 0.66621 0.40094 0.0
C36 C 0.5507 0.58837 0.262 0.0
O37 O 0.56035 0.62176 0.25384 0.0
O38 O 0.57387 0.57905 0.27813 0.0
C39 C 0.59382 0.72697 0.27475 0.0
O40 O 0.58995 0.71852 0.33905 0.0
C41 C 0.66719 0.65785 0.17966 0.0
Zn42 Zn 1.00571 0.61734 0.7277 0.0
Zn43 Zn 0.94133 0.61379 0.71681 0.0
O44 O 0.96512 0.64738 0.79873 0.0
O45 O 0.02041 0.65527 0.80081 0.0
O46 O 0.89356 0.61303 0.70494 0.0
O47 O 0.01582 0.63025 0.62975 0.0
O48 O 0.9659 0.63401 0.62527 0.0
C49 C 0.99703 0.66271 0.82429 0.0
C50 C 0.94586 0.54538 0.74733 0.0
O51 O 0.92671 0.56004 0.73315 0.0
O52 O 0.98023 0.56444 0.75158 0.0
C53 C 0.86459 0.59138 0.73638 0.0
O54 O 0.86494 0.56808 0.77943 0.0
C55 C 0.99421 0.63693 0.5968 0.0
Zn56 Zn 0.40196 1.00271 0.28637 0.0
Zn57 Zn 0.34629 0.93753 0.25428 0.0
O58 O 0.33227 0.94958 0.34715 0.0
O59 O 0.38154 1.00023 0.37807 0.0
O60 O 0.30205 0.89052 0.2264 0.0
O61 O 0.39001 0.02666 0.211 0.0
O62 O 0.35216 0.971 0.17563 0.0
C63 C 0.3497 0.97462 0.39061 0.0
C64 C 0.42228 0.94801 0.25589 0.0
O65 O 0.38802 0.92609 0.25327 0.0
O66 O 0.43475 0.98159 0.26687 0.0
C67 C 0.29033 0.86144 0.26027 0.0
O68 O 0.3074 0.8615 0.31569 0.0
C69 C 0.36934 0.00518 0.16575 0.0
Zn70 Zn 0.39525 0.39297 0.6738 0.0
Zn71 Zn 0.40777 0.3387 0.70343 0.0
O72 O 0.3803 0.34146 0.78645 0.0
O73 O 0.36178 0.37935 0.75397 0.0
O74 O 0.41565 0.29599 0.71687 0.0
O75 O 0.37562 0.3726 0.58245 0.0
O76 O 0.38028 0.32526 0.61275 0.0
C77 C 0.36328 0.35865 0.79815 0.0
C78 C 0.47108 0.41634 0.70068 0.0
O79 O 0.45976 0.3824 0.7041 0.0
O80 O 0.44914 0.4278 0.68875 0.0
C81 C 0.38999 0.26397 0.70382 0.0
O82 O 0.35765 0.25872 0.68701 0.0
C83 C 0.37082 0.34128 0.56991 0.0
Zn84 Zn 0.62838 1.00136 0.24292 0.0
Zn85 Zn 0.61718 0.93401 0.23034 0.0
O86 O 0.65221 0.96261 0.15216 0.0
O87 O 0.66335 0.01849 0.1659 0.0
O88 O 0.6136 0.88485 0.22838 0.0
O89 O 0.64588 0.00583 0.33754 0.0
O90 O 0.63448 0.94937 0.32774 0.0
C91 C 0.66897 0.99587 0.13402 0.0
C92 C 0.55252 0.94625 0.22153 0.0
O93 O 0.56467 0.92418 0.21882 0.0
O94 O 0.57412 0.98005 0.22903 0.0
C95 C 0.58709 0.85564 0.2052 0.0
O96 O 0.55964 0.85622 0.17538 0.0
C97 C 0.6445 0.97792 0.36299 0.0
Zn98 Zn 0.62131 0.62059 0.80159 0.0
Zn99 Zn 0.67639 0.61023 0.77062 0.0
O100 O 0.67195 0.6381 0.6901 0.0
O101 O 0.63481 0.65684 0.72645 0.0
O102 O 0.72201 0.60745 0.75619 0.0
O103 O 0.63908 0.63699 0.89535 0.0
O104 O 0.68756 0.63408 0.86469 0.0
C105 C 0.65481 0.65534 0.68056 0.0
C106 C 0.60047 0.54576 0.76754 0.0
O107 O 0.63467 0.55751 0.76587 0.0
O108 O 0.58829 0.56702 0.78029 0.0
C109 C 0.73026 0.59475 0.70538 0.0
O110 O 0.70812 0.58233 0.65325 0.0
C111 C 0.67029 0.64149 0.90863 0.0
Zn112 Zn 0.01591 0.61743 0.18308 0.0
Zn113 Zn 0.08232 0.67587 0.19607 0.0
O114 O 0.06144 0.68888 0.11426 0.0
O115 O 1.00535 0.64332 0.10818 0.0
O116 O 0.13113 0.72061 0.21196 0.0
O117 O 1.00487 0.62186 0.28036 0.0
O118 O 0.05701 0.67319 0.28577 0.0
C119 C 0.02995 0.67406 0.08713 0.0
C120 C 0.07347 0.60054 0.16886 0.0
O121 O 0.09399 0.63438 0.18103 0.0
O122 O 0.03928 0.58709 0.16371 0.0
C123 C 0.15968 0.7299 0.1773 0.0
O124 O 0.15862 0.70979 0.12588 0.0
C125 C 0.0275 0.64959 0.31346 0.0
Zn126 Zn 0.39296 0.00537 0.7699 0.0
Zn127 Zn 0.39944 0.07056 0.75034 0.0
O128 O 0.36564 0.03791 0.67364 0.0
O129 O 0.35776 0.98368 0.69301 0.0
O130 O 0.39839 0.11724 0.74112 0.0
O131 O 0.37547 1.00344 0.86439 0.0
O132 O 0.38167 0.05753 0.84765 0.0
C133 C 0.35052 0.00424 0.65823 0.0
C134 C 0.46732 0.06342 0.74449 0.0
O135 O 0.45342 0.08402 0.74117 0.0
O136 O 0.44741 0.02959 0.75444 0.0
C137 C 0.4136 0.14081 0.69509 0.0
O138 O 0.4324 0.13587 0.64766 0.0
C139 C 0.37384 0.03065 0.88595 0.0
Zn140 Zn 0.39087 0.38029 0.1941 0.0
Zn141 Zn 0.33729 0.39591 0.21722 0.0
O142 O 0.32945 0.37884 0.11814 0.0
O143 O 0.37295 0.36555 0.09975 0.0
O144 O 0.29479 0.40376 0.23726 0.0
O145 O 0.37292 0.34349 0.26827 0.0
O146 O 0.33119 0.35838 0.28905 0.0
C147 C 0.346 0.368 0.07901 0.0
C148 C 0.41698 0.45597 0.22735 0.0
O149 O 0.3832 0.44618 0.23078 0.0
O150 O 0.42709 0.43318 0.21365 0.0
C151 C 0.28192 0.41638 0.19386 0.0
O152 O 0.29729 0.42609 0.13424 0.0
C153 C 0.34598 0.33933 0.30286 0.0
Zn154 Zn 1.00079 0.39553 0.76075 0.0
Zn155 Zn 0.93408 0.33901 0.73418 0.0
O156 O 0.96126 0.34483 0.64481 0.0
O157 O 0.01725 0.38826 0.66952 0.0
O158 O 0.88373 0.29548 0.72295 0.0
O159 O 1.00548 0.37154 0.84391 0.0
O160 O 0.95239 0.32425 0.81824 0.0
C161 C 0.99443 0.36568 0.62783 0.0
C162 C 0.9442 0.41455 0.76017 0.0
O163 O 0.92329 0.38078 0.74847 0.0
O164 O 0.9782 0.42755 0.76769 0.0
C165 C 0.87908 0.2635 0.72367 0.0
O166 O 0.90761 0.25896 0.72585 0.0
C167 C 0.9799 0.33986 0.85729 0.0
C168 C 0.02506 0.32744 0.00922 0.0
C169 C 0.99934 0.32493 0.05758 0.0
C170 C 0.95364 0.31057 0.97005 0.0
C171 C 0.98205 0.32281 0.92125 0.0
N172 N 0.04045 0.33056 0.88993 0.0
N173 N 0.93595 0.2919 0.08622 0.0
C174 C 0.01633 0.32662 0.93954 0.0
C175 C 0.96234 0.30869 0.03843 0.0
N176 N 0.0569 0.32979 0.03028 0.0
N177 N 0.91954 0.30395 0.95308 0.0
H178 H 0.94263 0.2897 0.13608 0.0
H179 H 0.90818 0.27696 0.07512 0.0
H180 H 0.91086 0.3033 0.90385 0.0
H181 H 0.89984 0.30013 -0.01131 0.0
H182 H 0.07754 0.33238 -0.00167 0.0
H183 H 0.06111 0.32585 0.08068 0.0
H184 H 0.06689 0.33576 0.89846 0.0
H185 H 0.03326 0.3278 0.83895 0.0
C186 C 0.67852 0.99317 0.47255 0.0
C187 C 0.64506 0.97593 0.43689 0.0
C188 C 0.61176 0.97475 0.538 0.0
C189 C 0.64505 0.99107 0.57488 0.0
N190 N 0.70863 0.00835 0.58175 0.0
N191 N 0.57923 0.941 0.43873 0.0
C192 C 0.67806 0.99789 0.54353 0.0
C193 C 0.61148 0.96319 0.47101 0.0
N194 N 0.71058 0.00586 0.43822 0.0
N195 N 0.58112 0.97332 0.56424 0.0
H196 H 0.57779 0.93264 0.3888 0.0
H197 H 0.55418 0.92802 0.4635 0.0
H198 H 0.58017 0.98367 0.61143 0.0
H199 H 0.55749 0.96546 0.53616 0.0
H200 H 0.73611 0.02237 0.45992 0.0
H201 H 0.7114 1.00111 0.38671 0.0
H202 H 0.73271 0.01082 0.56271 0.0
H203 H 0.70884 0.01142 0.63403 0.0
C204 C 0.6898 0.69332 0.07196 0.0
C205 C 0.68823 0.6662 0.11537 0.0
C206 C 0.69301 0.63254 0.02018 0.0
C207 C 0.68581 0.65474 0.97646 0.0
N208 N 0.68674 0.71117 0.9566 0.0
N209 N 0.71267 0.62642 0.13192 0.0
C210 C 0.68792 0.68723 0.00109 0.0
C211 C 0.69801 0.64115 0.08984 0.0
N212 N 0.69385 0.72472 0.09916 0.0
N213 N 0.692 0.60171 -0.00314 0.0
H214 H 0.71918 0.63502 0.18196 0.0
H215 H 0.72271 0.60979 0.11518 0.0
H216 H 0.68842 0.59403 0.94629 0.0
H217 H 0.69252 0.58247 0.02866 0.0
H218 H 0.69582 0.74634 0.07126 0.0
H219 H 0.69837 0.73018 0.15077 0.0
H220 H 0.68509 0.73394 0.97056 0.0
H221 H 0.68755 0.70806 0.90447 0.0
C222 C 0.98335 0.64063 0.40587 0.0
C223 C 0.01989 0.65316 0.38552 0.0
C224 C 0.03868 0.66788 0.50335 0.0
C225 C 1.00184 0.64664 0.52425 0.0
N226 N 0.93857 0.60691 0.49087 0.0
N227 N 0.08222 0.6726 0.42035 0.0
C228 C 0.97378 0.63168 0.47451 0.0
C229 C 0.04779 0.66563 0.43548 0.0
N230 N 0.9578 0.63749 0.36005 0.0
N231 N 0.06499 0.69022 0.54809 0.0
H232 H 0.08999 0.66808 0.37316 0.0
H233 H 0.10201 0.67866 0.45733 0.0
H234 H 0.05892 0.69398 0.59747 0.0
H235 H 0.09179 0.70815 0.53351 0.0
H236 H 0.93145 0.63099 0.37398 0.0
H237 H 0.96431 0.64579 0.31002 0.0
H238 H 0.91846 0.5932 0.4544 0.0
H239 H 0.93005 0.59675 0.53918 0.0
C240 C 0.40289 0.05231 -0.00288 0.0
C241 C 0.37033 0.03378 0.95914 0.0
C242 C 0.33602 0.00697 0.0626 0.0
C243 C 0.36951 0.01903 0.09739 0.0
N244 N 0.43565 0.04791 0.09232 0.0
N245 N 0.3054 0.99383 0.95391 0.0
C246 C 0.40328 0.04096 0.06385 0.0
C247 C 0.33658 0.01147 -0.00851 0.0
N248 N 0.43384 0.07968 0.96867 0.0
N249 N 0.30396 0.99155 0.09761 0.0
H250 H 0.30503 0.99828 0.90221 0.0
H251 H 0.28053 0.97386 0.97329 0.0
H252 H 0.30296 0.98874 0.14998 0.0
H253 H 0.27894 0.98479 0.0758 0.0
H254 H 0.45745 0.0961 -0.00365 0.0
H255 H 0.43466 0.08858 0.91946 0.0
H256 H 0.4603 0.06037 0.0662 0.0
H257 H 0.43781 0.0377 0.13869 0.0
C258 C 0.36129 0.30687 0.39057 0.0
C259 C 0.33745 0.31883 0.36769 0.0
C260 C 0.32155 0.32334 0.48416 0.0
C261 C 0.35407 0.32392 0.5047 0.0
N262 N 0.40333 0.31219 0.47803 0.0
N263 N 0.28197 0.31911 0.39065 0.0
C264 C 0.37284 0.31321 0.45876 0.0
C265 C 0.31303 0.32059 0.41414 0.0
N266 N 0.37251 0.28949 0.34703 0.0
N267 N 0.29982 0.3264 0.53172 0.0
H268 H 0.2743 0.31346 0.34002 0.0
H269 H 0.26274 0.32081 0.42075 0.0
H270 H 0.30474 0.32626 0.58331 0.0
H271 H 0.27671 0.3282 0.52099 0.0
H272 H 0.38796 0.27777 0.36194 0.0
H273 H 0.36225 0.283 0.29791 0.0
H274 H 0.4202 0.30888 0.44392 0.0
H275 H 0.4132 0.31668 0.52724 0.0
C276 C 0.04271 0.70578 0.90889 0.0
C277 C 1.00577 0.68432 0.88827 0.0
C278 C 0.986 0.67736 0.00544 0.0
C279 C 0.02262 0.6896 0.02528 0.0
N280 N 0.08493 0.73525 0.00197 0.0
N281 N 0.94473 0.67116 0.91427 0.0
C282 C 0.05101 0.71043 0.97901 0.0
C283 C 0.97791 0.677 0.93571 0.0
N284 N 0.06944 0.72113 0.86127 0.0
N285 N 0.95937 0.666 0.05331 0.0
H286 H 0.94014 0.67539 0.86429 0.0
H287 H 0.92358 0.66693 0.94655 0.0
H288 H 0.96562 0.67022 0.10469 0.0
H289 H 0.93159 0.65261 0.04239 0.0
H290 H 0.0972 0.73334 0.87194 0.0
H291 H 0.06326 0.72129 0.8103 0.0
H292 H 0.10651 0.75218 0.97068 0.0
H293 H 0.09006 0.74239 0.05278 0.0
C294 C 0.32418 0.94741 0.50417 0.0
C295 C 0.33324 0.97536 0.45608 0.0
C296 C 0.33056 0.01469 0.54423 0.0
C297 C 0.33065 0.99035 0.59267 0.0
N298 N 0.30407 0.92687 0.61849 0.0
N299 N 0.33626 0.03175 0.42589 0.0
C300 C 0.31958 0.95429 0.57247 0.0
C301 C 0.33292 0.00761 0.47472 0.0
N302 N 0.32298 0.91573 0.48618 0.0
N303 N 0.3268 0.04335 0.56502 0.0
H304 H 0.33549 0.02578 0.37457 0.0
H305 H 0.34004 0.05751 0.43561 0.0
H306 H 0.32101 0.04612 0.61515 0.0
H307 H 0.32548 0.06194 0.53274 0.0
H308 H 0.32111 0.89659 0.52112 0.0
H309 H 0.32577 0.90929 0.43664 0.0
H310 H 0.29299 0.8995 0.60594 0.0
H311 H 0.29826 0.93152 0.66751 0.0
C312 C 0.32843 0.32807 0.90343 0.0
C313 C 0.3518 0.36043 0.86782 0.0
C314 C 0.35599 0.39662 0.96729 0.0
C315 C 0.33885 0.36444 0.00591 0.0
N316 N 0.30813 0.29923 0.01285 0.0
N317 N 0.39389 0.42557 0.87081 0.0
C318 C 0.32446 0.32995 0.9744 0.0
C319 C 0.36672 0.39487 0.90051 0.0
N320 N 0.30996 0.29582 0.86934 0.0
N321 N 0.36348 0.42911 -0.00473 0.0
H322 H 0.40533 0.42574 0.8242 0.0
H323 H 0.40826 0.45042 0.89591 0.0
H324 H 0.35669 0.43157 0.04478 0.0
H325 H 0.37291 0.45286 0.96721 0.0
H326 H 0.29022 0.27177 0.89148 0.0
H327 H 0.31218 0.29386 0.81725 0.0
H328 H 0.30083 0.27345 -0.00544 0.0
H329 H 0.30323 0.3 0.06429 0.0
C330 C 0.01605 0.40248 0.52283 0.0
C331 C 1.00506 0.36896 0.55603 0.0
C332 C 0.0121 0.34275 0.45042 0.0
C333 C 0.02498 0.37694 0.41888 0.0
N334 N 0.04772 0.44136 0.42817 0.0
N335 N 0.99774 0.30889 0.55546 0.0
C336 C 0.02981 0.40747 0.45633 0.0
C337 C 1.00459 0.3395 0.521 0.0
N338 N 0.01115 0.42878 0.55312 0.0
N339 N 1.00599 0.31329 0.41249 0.0
H340 H 0.99194 0.30574 0.60696 0.0
H341 H 1.0004 0.28784 0.53437 0.0
H342 H 0.01254 0.31528 0.36134 0.0
H343 H 0.99281 0.28676 0.43061 0.0
H344 H 0.01497 0.452 0.52822 0.0
H345 H 0.99962 0.42586 0.60081 0.0
H346 H 0.05533 0.46515 0.45537 0.0
H347 H 0.05823 0.44601 0.37928 0.0
C348 C 0.69947 0.05251 0.98263 0.0
C349 C 0.68588 0.0242 0.93365 0.0
C350 C 0.68441 0.98156 0.01874 0.0
C351 C 0.68909 0.00746 0.06855 0.0
N352 N 0.72362 0.07094 0.09598 0.0
N353 N 0.67679 0.96578 0.89916 0.0
C354 C 0.7045 0.04428 0.04956 0.0
C355 C 0.68256 0.99 0.94983 0.0
N356 N 0.70441 0.08605 0.96743 0.0
N357 N 0.68264 0.94982 0.03769 0.0
H358 H 0.67769 0.97266 0.84838 0.0
H359 H 0.67194 0.93949 0.90651 0.0
H360 H 0.68858 0.94582 0.08695 0.0
H361 H 0.67844 0.92895 0.0048 0.0
H362 H 0.70984 0.1059 0.00381 0.0
H363 H 0.70123 0.09363 0.91923 0.0
H364 H 0.73788 0.09852 0.08418 0.0
H365 H 0.72851 0.06472 0.14446 0.0
C366 C 0.61492 0.66274 0.51364 0.0
C367 C 0.64634 0.67677 0.4727 0.0
C368 C 0.68426 0.68824 0.57332 0.0
C369 C 0.65215 0.66685 0.61143 0.0
N370 N 0.58618 0.6276 0.61278 0.0
N371 N 0.71139 0.70441 0.46172 0.0
C372 C 0.61716 0.65306 0.58089 0.0
C373 C 0.68131 0.69049 0.5022 0.0
N374 N 0.58252 0.65688 0.48747 0.0
N375 N 0.7173 0.7063 0.60516 0.0
H376 H 0.70989 0.70806 0.40998 0.0
H377 H 0.73727 0.71097 0.47878 0.0
H378 H 0.71999 0.70541 0.65736 0.0
H379 H 0.74139 0.72458 0.58093 0.0
H380 H 0.55957 0.64969 0.51714 0.0
H381 H 0.5797 0.66304 0.4378 0.0
H382 H 0.56078 0.61405 0.58912 0.0
H383 H 0.58597 0.61647 0.65959 0.0
C384 C 0.10203 0.56718 0.22202 0.0
C385 C 0.0881 0.57527 0.1635 0.0
C386 C 0.07842 0.51892 0.11 0.0
C387 C 0.08415 0.50736 0.17341 0.0
N388 N 0.10451 0.52052 0.28878 0.0
N389 N 0.06927 0.56302 0.04753 0.0
C390 C 0.09793 0.53192 0.22866 0.0
C391 C 0.07893 0.55264 0.10557 0.0
N392 N 0.11826 0.59278 0.2716 0.0
N393 N 0.072 0.49717 0.05477 0.0
H394 H 0.07172 0.58865 0.04244 0.0
H395 H 0.0585 0.54653 0.00513 0.0
H396 H 0.07197 0.47258 0.05763 0.0
H397 H 0.06946 0.50439 0.00582 0.0
H398 H 0.13156 0.58967 0.31305 0.0
H399 H 0.12163 0.61875 0.26827 0.0
H400 H 0.10989 0.53507 0.33371 0.0
H401 H 0.10316 0.49545 0.2944 0.0
C402 C 0.52749 0.0873 0.80225 0.0
C403 C 0.50723 0.07834 0.74124 0.0
C404 C 0.55518 0.07305 0.68227 0.0
C405 C 0.57332 0.07785 0.74488 0.0
N406 N 0.58346 0.09925 0.85936 0.0
N407 N 0.50536 0.07313 0.62065 0.0
C408 C 0.5618 0.08861 0.80318 0.0
C409 C 0.52257 0.07503 0.68012 0.0
N410 N 0.51274 0.0924 0.85973 0.0
N411 N 0.5682 0.06462 0.626 0.0
H412 H 0.4815 0.07471 0.61882 0.0
H413 H 0.51591 0.07294 0.57334 0.0
H414 H 0.59289 0.06462 0.62592 0.0
H415 H 0.55442 0.0568 0.58012 0.0
H416 H 0.52379 0.09505 0.90769 0.0
H417 H 0.48848 0.0932 0.85928 0.0
H418 H 0.5781 0.10961 0.90276 0.0
H419 H 0.60864 0.10027 0.86037 0.0
C420 C 0.49316 0.53942 0.31274 0.0
C421 C 0.51201 0.55962 0.25484 0.0
C422 C 0.46092 0.51754 0.18305 0.0
C423 C 0.4454 0.49421 0.2392 0.0
N424 N 0.44533 0.48219 0.35779 0.0
N425 N 0.51465 0.56877 0.13455 0.0
C426 C 0.46082 0.50521 0.30444 0.0
C427 C 0.49578 0.54937 0.18992 0.0
N428 N 0.50618 0.5533 0.37551 0.0
N429 N 0.44231 0.50893 0.12324 0.0
H430 H 0.5399 0.59257 0.13785 0.0
H431 H 0.50636 0.56039 0.08511 0.0
H432 H 0.41684 0.48561 0.11706 0.0
H433 H 0.45039 0.52619 0.08176 0.0
H434 H 0.49224 0.54159 0.42001 0.0
H435 H 0.52965 0.57852 0.38284 0.0
H436 H 0.45753 0.48642 0.40507 0.0
H437 H 0.4207 0.45771 0.35381 0.0
C438 C 0.91797 0.48278 0.69939 0.0
C439 C 0.92922 0.50569 0.75695 0.0
C440 C 0.93261 0.45868 0.82258 0.0
C441 C 0.92982 0.43994 0.76169 0.0
N442 N 0.91755 0.43192 0.64218 0.0
N443 N 0.94219 0.51453 0.87565 0.0
C444 C 0.9207 0.45069 0.70033 0.0
C445 C 0.93421 0.49291 0.81976 0.0
N446 N 0.90584 0.49235 0.64351 0.0
N447 N 0.93421 0.4437 0.88252 0.0
H448 H 0.9414 0.53874 0.87504 0.0
H449 H 0.95026 0.50912 0.92172 0.0
H450 H 0.93272 0.41842 0.88502 0.0
H451 H 0.934 0.45458 0.92951 0.0
H452 H 0.89445 0.47549 0.60169 0.0
H453 H 0.90395 0.5159 0.64156 0.0
H454 H 0.91563 0.44092 0.59439 0.0
H455 H 0.91855 0.40787 0.64123 0.0
C456 C 0.46572 0.94516 0.17517 0.0
C457 C 0.44835 0.93563 0.23895 0.0
C458 C 0.49136 0.91666 0.27717 0.0
C459 C 0.51292 0.93335 0.21918 0.0
N460 N 0.51971 0.95957 0.10916 0.0
N461 N 0.44186 0.90989 0.34941 0.0
C462 C 0.49939 0.94579 0.16637 0.0
C463 C 0.45985 0.91983 0.28912 0.0
N464 N 0.44996 0.95383 0.12363 0.0
N465 N 0.50149 0.89853 0.32112 0.0
H466 H 0.41798 0.91077 0.35833 0.0
H467 H 0.45113 0.90219 0.39138 0.0
H468 H 0.5243 0.89568 0.3133 0.0
H469 H 0.48574 0.88356 0.36191 0.0
H470 H 0.45962 0.95863 0.07433 0.0
H471 H 0.42517 0.95336 0.12915 0.0
H472 H 0.51395 0.97308 0.07166 0.0
H473 H 0.54328 0.95814 0.1001 0.0
C474 C 0.55225 0.48372 0.80265 0.0
C475 C 0.57401 0.50751 0.7507 0.0
C476 C 0.53264 0.46574 0.66454 0.0
C477 C 0.50945 0.44329 0.7166 0.0
N478 N 0.50015 0.42555 0.83361 0.0
N479 N 0.59068 0.51817 0.63338 0.0
C480 C 0.52049 0.45038 0.78524 0.0
C481 C 0.56621 0.49729 0.68186 0.0
N482 N 0.56128 0.49401 0.86851 0.0
N483 N 0.52164 0.45751 0.59882 0.0
H484 H 0.61519 0.54172 0.64466 0.0
H485 H 0.58826 0.51101 0.58263 0.0
H486 H 0.49816 0.4335 0.58477 0.0
H487 H 0.53485 0.47465 0.55838 0.0
H488 H 0.54462 0.48038 0.90933 0.0
H489 H 0.58549 0.51732 0.8824 0.0
H490 H 0.50806 0.42744 0.88382 0.0
H491 H 0.47619 0.40137 0.82279 0.0
C492 C 0.21671 0.45359 0.20739 0.0
C493 C 0.18498 0.42293 0.23319 0.0
C494 C 0.21616 0.3873 0.22955 0.0
C495 C 0.24885 0.41884 0.20938 0.0
N496 N 0.28231 0.48384 0.19321 0.0
N497 N 0.15712 0.36321 0.28307 0.0
C498 C 0.24974 0.45256 0.20238 0.0
C499 C 0.18548 0.39053 0.24849 0.0
N500 N 0.21499 0.48307 0.18459 0.0
N501 N 0.21367 0.35392 0.22741 0.0
H502 H 0.13448 0.36484 0.29912 0.0
H503 H 0.15775 0.34061 0.30175 0.0
H504 H 0.23504 0.35002 0.21193 0.0
H505 H 0.18928 0.32966 0.23459 0.0
H506 H 0.2362 0.50443 0.1585 0.0
H507 H 0.19122 0.48474 0.18599 0.0
H508 H 0.28506 0.50964 0.1948 0.0
H509 H 0.30719 0.48434 0.19072 0.0
C510 C 0.83304 0.21008 0.79033 0.0
C511 C 0.84181 0.23189 0.73152 0.0
C512 C 0.77819 0.19632 0.69327 0.0
C513 C 0.77034 0.17275 0.74918 0.0
N514 N 0.79197 0.1525 0.84301 0.0
N515 N 0.82457 0.2426 0.6217 0.0
C516 C 0.79824 0.1783 0.79551 0.0
C517 C 0.81486 0.22416 0.68145 0.0
N518 N 0.85726 0.22056 0.84281 0.0
N519 N 0.75042 0.19288 0.65288 0.0
H520 H 0.85119 0.26297 0.61115 0.0
H521 H 0.80706 0.23567 0.58044 0.0
H522 H 0.72328 0.17277 0.65996 0.0
H523 H 0.75375 0.21164 0.61585 0.0
H524 H 0.85064 0.20797 0.88979 0.0
H525 H 0.88288 0.24394 0.84193 0.0
H526 H 0.81249 0.1532 0.87317 0.0
H527 H 0.76704 0.12849 0.84798 0.0
C528 C 0.61998 0.78746 0.21621 0.0
C529 C 0.59062 0.75842 0.25123 0.0
C530 C 0.55834 0.79295 0.25532 0.0
C531 C 0.58652 0.82084 0.21633 0.0
N532 N 0.63977 0.84086 0.14645 0.0
N533 N 0.52821 0.7298 0.28944 0.0
C534 C 0.61599 0.81688 0.19261 0.0
C535 C 0.55865 0.76003 0.26633 0.0
N536 N 0.65245 0.78811 0.20877 0.0
N537 N 0.53235 0.79852 0.28508 0.0
H538 H 0.52713 0.70494 0.29673 0.0
H539 H 0.503 0.72834 0.29477 0.0
H540 H 0.53137 0.82244 0.27969 0.0
H541 H 0.51371 0.78071 0.32018 0.0
H542 H 0.67592 0.8105 0.19015 0.0
H543 H 0.65715 0.7678 0.22703 0.0
H544 H 0.65957 0.83722 0.12214 0.0
H545 H 0.63737 0.86247 0.12736 0.0
C546 C 0.79852 0.56075 0.70262 0.0
C547 C 0.83055 0.59254 0.72457 0.0
C548 C 0.79814 0.62688 0.71901 0.0
C549 C 0.76501 0.5941 0.70633 0.0
N550 N 0.73255 0.52859 0.69628 0.0
N551 N 0.85937 0.65464 0.76451 0.0
C552 C 0.76486 0.56066 0.70045 0.0
C553 C 0.83006 0.62538 0.73541 0.0
N554 N 0.80044 0.53101 0.68175 0.0
N555 N 0.79936 0.65958 0.71354 0.0
H556 H 0.88299 0.65447 0.77902 0.0
H557 H 0.85892 0.67786 0.78024 0.0
H558 H 0.77671 0.6618 0.69992 0.0
H559 H 0.82354 0.68448 0.7156 0.0
H560 H 0.77876 0.50852 0.65862 0.0
H561 H 0.82471 0.53023 0.68136 0.0
H562 H 0.73074 0.50323 0.6996 0.0
H563 H 0.7072 0.52711 0.69558 0.0
C564 C 0.2242 0.8282 0.22668 0.0
C565 C 0.25718 0.82781 0.23769 0.0
C566 C 0.22579 0.76249 0.21209 0.0
C567 C 0.19383 0.76375 0.195 0.0
N568 N 0.16519 0.79953 0.17165 0.0
N569 N 0.29137 0.79639 0.22713 0.0
C570 C 0.19378 0.79714 0.19809 0.0
C571 C 0.25858 0.79545 0.22653 0.0
N572 N 0.22128 0.85755 0.24641 0.0
N573 N 0.22452 0.72976 0.21754 0.0
H574 H 0.31613 0.82013 0.23597 0.0
H575 H 0.29441 0.77447 0.21236 0.0
H576 H 0.20094 0.70493 0.20846 0.0
H577 H 0.24591 0.72705 0.23707 0.0
H578 H 0.1967 0.85766 0.24606 0.0
H579 H 0.24248 0.88046 0.26959 0.0
H580 H 0.16544 0.82407 0.16625 0.0
H581 H 0.14277 0.7776 0.14871 0.0
C582 C 0.41118 0.22427 0.75845 0.0
C583 C 0.39742 0.23332 0.70091 0.0
C584 C 0.39308 0.18089 0.63994 0.0
C585 C 0.40962 0.17361 0.69546 0.0
N586 N 0.44149 0.19286 0.8019 0.0
N587 N 0.38352 0.22549 0.5817 0.0
C588 C 0.42074 0.19663 0.75315 0.0
C589 C 0.39072 0.21313 0.64009 0.0
N590 N 0.41368 0.24094 0.81893 0.0
N591 N 0.37807 0.15625 0.58842 0.0
H592 H 0.38257 0.24954 0.57902 0.0
H593 H 0.38219 0.21389 0.53463 0.0
H594 H 0.3786 0.13195 0.58672 0.0
H595 H 0.36211 0.15829 0.55054 0.0
H596 H 0.41974 0.23264 0.86415 0.0
H597 H 0.40644 0.26094 0.82519 0.0
H598 H 0.45353 0.21121 0.84159 0.0
H599 H 0.44972 0.17345 0.79913 0.0
loop_
_geom_bond_atom_site_label_1
_geom_bond_atom_site_label_2
_geom_bond_distance
_geom_bond_site_symmetry_2
_ccdc_geom_bond_type
Zn0 O3 2.031 . S
Zn0 O5 2.049 1_455 S
Zn0 O10 2.067 . S
Zn1 O2 1.962 . S
Zn1 O4 1.986 . S
Zn1 O6 1.996 . S
Zn1 O9 1.943 . S
O2 Zn1 1.962 . S
O2 C7 1.254 . S
O3 Zn0 2.031 . S
O3 C7 1.269 . S
O4 Zn1 1.986 . S
O4 C11 1.262 . S
O5 Zn0 2.049 1_655 S
O5 C13 1.260 1_655 S
O6 Zn1 1.996 . S
O6 C13 1.257 . S
C7 O2 1.254 . S
C7 O3 1.269 . S
C8 O9 1.249 . S
C8 O10 1.270 . S
O9 Zn1 1.943 . S
O9 C8 1.249 . S
O10 Zn0 2.067 . S
O10 C8 1.270 . S
C11 O4 1.262 . S
C11 O12 1.232 . S
O12 C11 1.232 . S
C13 O5 1.260 1_455 S
C13 O6 1.257 . S
Zn14 O17 2.031 . S
Zn14 O19 2.049 1_545 S
Zn14 O24 2.067 . S
Zn15 O16 1.962 . S
Zn15 O18 1.986 . S
Zn15 O20 1.996 . S
Zn15 O23 1.943 . S
O16 Zn15 1.962 . S
O16 C21 1.254 . S
O17 Zn14 2.031 . S
O17 C21 1.269 . S
O18 Zn15 1.986 . S
O18 C25 1.262 . S
O19 Zn14 2.049 1_565 S
O19 C27 1.260 1_565 S
O20 Zn15 1.996 . S
O20 C27 1.257 . S
C21 O16 1.254 . S
C21 O17 1.269 . S
C22 O23 1.249 . S
C22 O24 1.270 . S
O23 Zn15 1.943 . S
O23 C22 1.249 . S
O24 Zn14 2.067 . S
O24 C22 1.270 . S
C25 O18 1.262 . S
C25 O26 1.232 . S
O26 C25 1.232 . S
C27 O19 1.260 1_545 S
C27 O20 1.257 . S
Zn28 O31 2.031 . S
Zn28 O33 2.049 . S
Zn28 O38 2.067 . S
Zn29 O30 1.962 . S
Zn29 O32 1.986 . S
Zn29 O34 1.996 . S
Zn29 O37 1.943 . S
O30 Zn29 1.962 . S
O30 C35 1.254 . S
O31 Zn28 2.031 . S
O31 C35 1.269 . S
O32 Zn29 1.986 . S
O32 C39 1.262 . S
O33 Zn28 2.049 . S
O33 C41 1.260 . S
O34 Zn29 1.996 . S
O34 C41 1.257 . S
C35 O30 1.254 . S
C35 O31 1.269 . S
C36 O37 1.249 . S
C36 O38 1.270 . S
O37 Zn29 1.943 . S
O37 C36 1.249 . S
O38 Zn28 2.067 . S
O38 C36 1.270 . S
C39 O32 1.262 . S
C39 O40 1.232 . S
O40 C39 1.232 . S
C41 O33 1.260 . S
C41 O34 1.257 . S
Zn42 O45 2.031 . S
Zn42 O47 2.049 1_655 S
Zn42 O52 2.067 . S
Zn43 O44 1.962 . S
Zn43 O46 1.986 . S
Zn43 O48 1.996 . S
Zn43 O51 1.943 . S
O44 Zn43 1.962 . S
O44 C49 1.254 . S
O45 Zn42 2.031 . S
O45 C49 1.269 . S
O46 Zn43 1.986 . S
O46 C53 1.262 . S
O47 Zn42 2.049 1_455 S
O47 C55 1.260 1_455 S
O48 Zn43 1.996 . S
O48 C55 1.257 . S
C49 O44 1.254 . S
C49 O45 1.269 . S
C50 O51 1.249 . S
C50 O52 1.270 . S
O51 Zn43 1.943 . S
O51 C50 1.249 . S
O52 Zn42 2.067 . S
O52 C50 1.270 . S
C53 O46 1.262 . S
C53 O54 1.232 . S
O54 C53 1.232 . S
C55 O47 1.260 1_655 S
C55 O48 1.257 . S
Zn56 O59 2.031 . S
Zn56 O61 2.049 1_565 S
Zn56 O66 2.067 . S
Zn57 O58 1.962 . S
Zn57 O60 1.986 . S
Zn57 O62 1.996 . S
Zn57 O65 1.943 . S
O58 Zn57 1.962 . S
O58 C63 1.254 . S
O59 Zn56 2.031 . S
O59 C63 1.269 . S
O60 Zn57 1.986 . S
O60 C67 1.262 . S
O61 Zn56 2.049 1_545 S
O61 C69 1.260 1_545 S
O62 Zn57 1.996 . S
O62 C69 1.257 . S
C63 O58 1.254 . S
C63 O59 1.269 . S
C64 O65 1.249 . S
C64 O66 1.270 . S
O65 Zn57 1.943 . S
O65 C64 1.249 . S
O66 Zn56 2.067 . S
O66 C64 1.270 . S
C67 O60 1.262 . S
C67 O68 1.232 . S
O68 C67 1.232 . S
C69 O61 1.260 1_565 S
C69 O62 1.257 . S
Zn70 O73 2.031 . S
Zn70 O75 2.049 . S
Zn70 O80 2.067 . S
Zn71 O72 1.962 . S
Zn71 O74 1.986 . S
Zn71 O76 1.996 . S
Zn71 O79 1.943 . S
O72 Zn71 1.962 . S
O72 C77 1.254 . S
O73 Zn70 2.031 . S
O73 C77 1.269 . S
O74 Zn71 1.986 . S
O74 C81 1.262 . S
O75 Zn70 2.049 . S
O75 C83 1.260 . S
O76 Zn71 1.996 . S
O76 C83 1.257 . S
C77 O72 1.254 . S
C77 O73 1.269 . S
C78 O79 1.249 . S
C78 O80 1.270 . S
O79 Zn71 1.943 . S
O79 C78 1.249 . S
O80 Zn70 2.067 . S
O80 C78 1.270 . S
C81 O74 1.262 . S
C81 O82 1.232 . S
O82 C81 1.232 . S
C83 O75 1.260 . S
C83 O76 1.257 . S
Zn84 O87 2.031 . S
Zn84 O89 2.049 1_565 S
Zn84 O94 2.067 . S
Zn85 O86 1.962 . S
Zn85 O88 1.986 . S
Zn85 O90 1.996 . S
Zn85 O93 1.943 . S
O86 Zn85 1.962 . S
O86 C91 1.254 . S
O87 Zn84 2.031 . S
O87 C91 1.269 . S
O88 Zn85 1.986 . S
O88 C95 1.262 . S
O89 Zn84 2.049 1_545 S
O89 C97 1.260 1_545 S
O90 Zn85 1.996 . S
O90 C97 1.257 . S
C91 O86 1.254 . S
C91 O87 1.269 . S
C92 O93 1.249 . S
C92 O94 1.270 . S
O93 Zn85 1.943 . S
O93 C92 1.249 . S
O94 Zn84 2.067 . S
O94 C92 1.270 . S
C95 O88 1.262 . S
C95 O96 1.232 . S
O96 C95 1.232 . S
C97 O89 1.260 1_565 S
C97 O90 1.257 . S
Zn98 O101 2.031 . S
Zn98 O103 2.049 . S
Zn98 O108 2.067 . S
Zn99 O100 1.962 . S
Zn99 O102 1.986 . S
Zn99 O104 1.996 . S
Zn99 O107 1.943 . S
O100 Zn99 1.962 . S
O100 C105 1.254 . S
O101 Zn98 2.031 . S
O101 C105 1.269 . S
O102 Zn99 1.986 . S
O102 C109 1.262 . S
O103 Zn98 2.049 . S
O103 C111 1.260 . S
O104 Zn99 1.996 . S
O104 C111 1.257 . S
C105 O100 1.254 . S
C105 O101 1.269 . S
C106 O107 1.249 . S
C106 O108 1.270 . S
O107 Zn99 1.943 . S
O107 C106 1.249 . S
O108 Zn98 2.067 . S
O108 C106 1.270 . S
C109 O102 1.262 . S
C109 O110 1.232 . S
O110 C109 1.232 . S
C111 O103 1.260 . S
C111 O104 1.257 . S
Zn112 O115 2.031 . S
Zn112 O117 2.049 1_455 S
Zn112 O122 2.067 . S
Zn113 O114 1.962 . S
Zn113 O116 1.986 . S
Zn113 O118 1.996 . S
Zn113 O121 1.943 . S
O114 Zn113 1.962 . S
O114 C119 1.254 . S
O115 Zn112 2.031 . S
O115 C119 1.269 . S
O116 Zn113 1.986 . S
O116 C123 1.262 . S
O117 Zn112 2.049 1_655 S
O117 C125 1.260 1_655 S
O118 Zn113 1.996 . S
O118 C125 1.257 . S
C119 O114 1.254 . S
C119 O115 1.269 . S
C120 O121 1.249 . S
C120 O122 1.270 . S
O121 Zn113 1.943 . S
O121 C120 1.249 . S
O122 Zn112 2.067 . S
O122 C120 1.270 . S
C123 O116 1.262 . S
C123 O124 1.232 . S
O124 C123 1.232 . S
C125 O117 1.260 1_455 S
C125 O118 1.257 . S
Zn126 O129 2.031 . S
Zn126 O131 2.049 1_545 S
Zn126 O136 2.067 . S
Zn127 O128 1.962 . S
Zn127 O130 1.986 . S
Zn127 O132 1.996 . S
Zn127 O135 1.943 . S
O128 Zn127 1.962 . S
O128 C133 1.254 . S
O129 Zn126 2.031 . S
O129 C133 1.269 . S
O130 Zn127 1.986 . S
O130 C137 1.262 . S
O131 Zn126 2.049 1_565 S
O131 C139 1.260 1_565 S
O132 Zn127 1.996 . S
O132 C139 1.257 . S
C133 O128 1.254 . S
C133 O129 1.269 . S
C134 O135 1.249 . S
C134 O136 1.270 . S
O135 Zn127 1.943 . S
O135 C134 1.249 . S
O136 Zn126 2.067 . S
O136 C134 1.270 . S
C137 O130 1.262 . S
C137 O138 1.232 . S
O138 C137 1.232 . S
C139 O131 1.260 1_545 S
C139 O132 1.257 . S
Zn140 O143 2.031 . S
Zn140 O145 2.049 . S
Zn140 O150 2.067 . S
Zn141 O142 1.962 . S
Zn141 O144 1.986 . S
Zn141 O146 1.996 . S
Zn141 O149 1.943 . S
O142 Zn141 1.962 . S
O142 C147 1.254 . S
O143 Zn140 2.031 . S
O143 C147 1.269 . S
O144 Zn141 1.986 . S
O144 C151 1.262 . S
O145 Zn140 2.049 . S
O145 C153 1.260 . S
O146 Zn141 1.996 . S
O146 C153 1.257 . S
C147 O142 1.254 . S
C147 O143 1.269 . S
C148 O149 1.249 . S
C148 O150 1.270 . S
O149 Zn141 1.943 . S
O149 C148 1.249 . S
O150 Zn140 2.067 . S
O150 C148 1.270 . S
C151 O144 1.262 . S
C151 O152 1.232 . S
O152 C151 1.232 . S
C153 O145 1.260 . S
C153 O146 1.257 . S
Zn154 O157 2.031 . S
Zn154 O159 2.049 1_655 S
Zn154 O164 2.067 . S
Zn155 O156 1.962 . S
Zn155 O158 1.986 . S
Zn155 O160 1.996 . S
Zn155 O163 1.943 . S
O156 Zn155 1.962 . S
O156 C161 1.254 . S
O157 Zn154 2.031 . S
O157 C161 1.269 . S
O158 Zn155 1.986 . S
O158 C165 1.262 . S
O159 Zn154 2.049 1_455 S
O159 C167 1.260 1_455 S
O160 Zn155 1.996 . S
O160 C167 1.257 . S
C161 O156 1.254 . S
C161 O157 1.269 . S
C162 O163 1.249 . S
C162 O164 1.270 . S
O163 Zn155 1.943 . S
O163 C162 1.249 . S
O164 Zn154 2.067 . S
O164 C162 1.270 . S
C165 O158 1.262 . S
C165 O166 1.232 . S
O166 C165 1.232 . S
C167 O159 1.260 1_655 S
C167 O160 1.257 . S
C168 C169 1.363 . S
C168 C174 1.379 1_554 S
C168 N176 1.356 . S
C169 C168 1.363 . S
C169 C175 1.363 1_455 S
C170 C171 1.363 . S
C170 C175 1.379 1_556 S
C170 N177 1.356 . S
C171 C170 1.363 . S
C171 C174 1.363 1_655 S
N172 C174 1.356 . S
N172 H184 0.984 . S
N172 H185 0.985 . S
N173 C175 1.356 . S
N173 H178 0.984 . S
N173 H179 0.985 . S
C174 C168 1.379 1_556 S
C174 C171 1.363 1_455 S
C174 N172 1.356 . S
C175 C169 1.363 1_655 S
C175 C170 1.379 1_554 S
C175 N173 1.356 . S
N176 C168 1.356 . S
N176 H182 0.984 1_554 S
N176 H183 0.984 . S
N177 C170 1.356 . S
N177 H180 0.984 . S
N177 H181 0.985 1_556 S
H178 N173 0.984 . S
H179 N173 0.985 . S
H180 N177 0.984 . S
H181 N177 0.985 1_554 S
H182 N176 0.984 1_556 S
H183 N176 0.984 . S
H184 N172 0.984 . S
H185 N172 0.985 . S
C186 C187 1.363 1_545 S
C186 C192 1.379 . S
C186 N194 1.356 1_545 S
C187 C186 1.363 1_565 S
C187 C193 1.363 . S
C188 C189 1.363 1_565 S
C188 C193 1.379 . S
C188 N195 1.356 1_565 S
C189 C188 1.363 1_545 S
C189 C192 1.363 . S
N190 C192 1.356 . S
N190 H202 0.984 . S
N190 H203 0.985 . S
N191 C193 1.356 . S
N191 H196 0.984 . S
N191 H197 0.985 . S
C192 C186 1.379 . S
C192 C189 1.363 . S
C192 N190 1.356 . S
C193 C187 1.363 . S
C193 C188 1.379 . S
C193 N191 1.356 . S
N194 C186 1.356 1_565 S
N194 H200 0.984 1_565 S
N194 H201 0.984 . S
N195 C188 1.356 1_545 S
N195 H198 0.984 . S
N195 H199 0.985 1_545 S
H196 N191 0.984 . S
H197 N191 0.985 . S
H198 N195 0.984 . S
H199 N195 0.985 1_565 S
H200 N194 0.984 1_545 S
H201 N194 0.984 . S
H202 N190 0.984 . S
H203 N190 0.985 . S
C204 C205 1.363 . S
C204 C210 1.379 1_554 S
C204 N212 1.356 . S
C205 C204 1.363 . S
C205 C211 1.363 . S
C206 C207 1.363 . S
C206 C211 1.379 1_556 S
C206 N213 1.356 . S
C207 C206 1.363 . S
C207 C210 1.363 . S
N208 C210 1.356 . S
N208 H220 0.984 . S
N208 H221 0.985 . S
N209 C211 1.356 . S
N209 H214 0.984 . S
N209 H215 0.985 . S
C210 C204 1.379 1_556 S
C210 C207 1.363 . S
C210 N208 1.356 . S
C211 C205 1.363 . S
C211 C206 1.379 1_554 S
C211 N209 1.356 . S
N212 C204 1.356 . S
N212 H218 0.984 . S
N212 H219 0.984 . S
N213 C206 1.356 . S
N213 H216 0.984 . S
N213 H217 0.985 . S
H214 N209 0.984 . S
H215 N209 0.985 . S
H216 N213 0.984 . S
H217 N213 0.985 . S
H218 N212 0.984 . S
H219 N212 0.984 . S
H220 N208 0.984 . S
H221 N208 0.985 . S
C222 C223 1.363 1_655 S
C222 C228 1.379 . S
C222 N230 1.356 . S
C223 C222 1.363 1_455 S
C223 C229 1.363 . S
C224 C225 1.363 1_455 S
C224 C229 1.379 . S
C224 N231 1.356 . S
C225 C224 1.363 1_655 S
C225 C228 1.363 . S
N226 C228 1.356 . S
N226 H238 0.984 . S
N226 H239 0.985 . S
N227 C229 1.356 . S
N227 H232 0.984 . S
N227 H233 0.985 . S
C228 C222 1.379 . S
C228 C225 1.363 . S
C228 N226 1.356 . S
C229 C223 1.363 . S
C229 C224 1.379 . S
C229 N227 1.356 . S
N230 C222 1.356 . S
N230 H236 0.984 . S
N230 H237 0.984 . S
N231 C224 1.356 . S
N231 H234 0.984 . S
N231 H235 0.985 . S
H232 N227 0.984 . S
H233 N227 0.985 . S
H234 N231 0.984 . S
H235 N231 0.985 . S
H236 N230 0.984 . S
H237 N230 0.984 . S
H238 N226 0.984 . S
H239 N226 0.985 . S
C240 C241 1.363 . S
C240 C246 1.379 1_556 S
C240 N248 1.356 . S
C241 C240 1.363 . S
C241 C247 1.363 1_545 S
C242 C243 1.363 . S
C242 C247 1.379 1_554 S
C242 N249 1.356 . S
C243 C242 1.363 . S
C243 C246 1.363 1_565 S
N244 C246 1.356 . S
N244 H256 0.984 . S
N244 H257 0.985 1_545 S
N245 C247 1.356 . S
N245 H250 0.984 1_565 S
N245 H251 0.985 . S
C246 C240 1.379 1_554 S
C246 C243 1.363 1_545 S
C246 N244 1.356 . S
C247 C241 1.363 1_565 S
C247 C242 1.379 1_556 S
C247 N245 1.356 . S
N248 C240 1.356 . S
N248 H254 0.984 . S
N248 H255 0.984 . S
N249 C242 1.356 . S
N249 H252 0.984 . S
N249 H253 0.985 . S
H250 N245 0.984 1_545 S
H251 N245 0.985 . S
H252 N249 0.984 . S
H253 N249 0.985 . S
H254 N248 0.984 . S
H255 N248 0.984 . S
H256 N244 0.984 . S
H257 N244 0.985 1_565 S
C258 C259 1.363 . S
C258 C264 1.379 . S
C258 N266 1.356 . S
C259 C258 1.363 . S
C259 C265 1.363 . S
C260 C261 1.363 . S
C260 C265 1.379 . S
C260 N267 1.356 . S
C261 C260 1.363 . S
C261 C264 1.363 . S
N262 C264 1.356 . S
N262 H274 0.984 . S
N262 H275 0.985 . S
N263 C265 1.356 . S
N263 H268 0.984 . S
N263 H269 0.985 . S
C264 C258 1.379 . S
C264 C261 1.363 . S
C264 N262 1.356 . S
C265 C259 1.363 . S
C265 C260 1.379 . S
C265 N263 1.356 . S
N266 C258 1.356 . S
N266 H272 0.984 . S
N266 H273 0.984 . S
N267 C260 1.356 . S
N267 H270 0.984 . S
N267 H271 0.985 . S
H268 N263 0.984 . S
H269 N263 0.985 . S
H270 N267 0.984 . S
H271 N267 0.985 . S
H272 N266 0.984 . S
H273 N266 0.984 . S
H274 N262 0.984 . S
H275 N262 0.985 . S
C276 C277 1.363 1_455 S
C276 C282 1.379 1_556 S
C276 N284 1.356 . S
C277 C276 1.363 1_655 S
C277 C283 1.363 . S
C278 C279 1.363 1_655 S
C278 C283 1.379 1_554 S
C278 N285 1.356 . S
C279 C278 1.363 1_455 S
C279 C282 1.363 . S
N280 C282 1.356 . S
N280 H292 0.984 . S
N280 H293 0.985 . S
N281 C283 1.356 . S
N281 H286 0.984 . S
N281 H287 0.985 . S
C282 C276 1.379 1_554 S
C282 C279 1.363 . S
C282 N280 1.356 . S
C283 C277 1.363 . S
C283 C278 1.379 1_556 S
C283 N281 1.356 . S
N284 C276 1.356 . S
N284 H290 0.984 . S
N284 H291 0.984 1_455 S
N285 C278 1.356 . S
N285 H288 0.984 1_655 S
N285 H289 0.985 . S
H286 N281 0.984 . S
H287 N281 0.985 . S
H288 N285 0.984 1_455 S
H289 N285 0.985 . S
H290 N284 0.984 . S
H291 N284 0.984 1_655 S
H292 N280 0.984 . S
H293 N280 0.985 . S
C294 C295 1.363 . S
C294 C300 1.379 . S
C294 N302 1.356 . S
C295 C294 1.363 . S
C295 C301 1.363 1_565 S
C296 C297 1.363 . S
C296 C301 1.379 . S
C296 N303 1.356 . S
C297 C296 1.363 . S
C297 C300 1.363 1_545 S
N298 C300 1.356 . S
N298 H310 0.984 . S
N298 H311 0.985 . S
N299 C301 1.356 . S
N299 H304 0.984 . S
N299 H305 0.985 . S
C300 C294 1.379 . S
C300 C297 1.363 1_565 S
C300 N298 1.356 . S
C301 C295 1.363 1_545 S
C301 C296 1.379 . S
C301 N299 1.356 . S
N302 C294 1.356 . S
N302 H308 0.984 . S
N302 H309 0.984 . S
N303 C296 1.356 . S
N303 H306 0.984 . S
N303 H307 0.985 . S
H304 N299 0.984 . S
H305 N299 0.985 . S
H306 N303 0.984 . S
H307 N303 0.985 . S
H308 N302 0.984 . S
H309 N302 0.984 . S
H310 N298 0.984 . S
H311 N298 0.985 . S
C312 C313 1.363 . S
C312 C318 1.379 1_556 S
C312 N320 1.356 . S
C313 C312 1.363 . S
C313 C319 1.363 . S
C314 C315 1.363 . S
C314 C319 1.379 1_554 S
C314 N321 1.356 . S
C315 C314 1.363 . S
C315 C318 1.363 . S
N316 C318 1.356 . S
N316 H328 0.984 . S
N316 H329 0.985 . S
N317 C319 1.356 . S
N317 H322 0.984 . S
N317 H323 0.985 . S
C318 C312 1.379 1_554 S
C318 C315 1.363 . S
C318 N316 1.356 . S
C319 C313 1.363 . S
C319 C314 1.379 1_556 S
C319 N317 1.356 . S
N320 C312 1.356 . S
N320 H326 0.984 . S
N320 H327 0.984 . S
N321 C314 1.356 . S
N321 H324 0.984 . S
N321 H325 0.985 . S
H322 N317 0.984 . S
H323 N317 0.985 . S
H324 N321 0.984 . S
H325 N321 0.985 . S
H326 N320 0.984 . S
H327 N320 0.984 . S
H328 N316 0.984 . S
H329 N316 0.985 . S
C330 C331 1.363 . S
C330 C336 1.379 1_655 S
C330 N338 1.356 . S
C331 C330 1.363 . S
C331 C337 1.363 . S
C332 C333 1.363 . S
C332 C337 1.379 1_455 S
C332 N339 1.356 . S
C333 C332 1.363 . S
C333 C336 1.363 . S
N334 C336 1.356 . S
N334 H346 0.984 . S
N334 H347 0.985 . S
N335 C337 1.356 . S
N335 H340 0.984 . S
N335 H341 0.985 . S
C336 C330 1.379 1_455 S
C336 C333 1.363 . S
C336 N334 1.356 . S
C337 C331 1.363 . S
C337 C332 1.379 1_655 S
C337 N335 1.356 . S
N338 C330 1.356 . S
N338 H344 0.984 . S
N338 H345 0.984 . S
N339 C332 1.356 . S
N339 H342 0.984 . S
N339 H343 0.985 . S
H340 N335 0.984 . S
H341 N335 0.985 . S
H342 N339 0.984 . S
H343 N339 0.985 . S
H344 N338 0.984 . S
H345 N338 0.984 . S
H346 N334 0.984 . S
H347 N334 0.985 . S
C348 C349 1.363 . S
C348 C354 1.379 1_556 S
C348 N356 1.356 . S
C349 C348 1.363 . S
C349 C355 1.363 1_545 S
C350 C351 1.363 . S
C350 C355 1.379 1_554 S
C350 N357 1.356 . S
C351 C350 1.363 . S
C351 C354 1.363 1_565 S
N352 C354 1.356 . S
N352 H364 0.984 . S
N352 H365 0.985 . S
N353 C355 1.356 . S
N353 H358 0.984 . S
N353 H359 0.985 . S
C354 C348 1.379 1_554 S
C354 C351 1.363 1_545 S
C354 N352 1.356 . S
C355 C349 1.363 1_565 S
C355 C350 1.379 1_556 S
C355 N353 1.356 . S
N356 C348 1.356 . S
N356 H362 0.984 . S
N356 H363 0.984 . S
N357 C350 1.356 . S
N357 H360 0.984 . S
N357 H361 0.985 . S
H358 N353 0.984 . S
H359 N353 0.985 . S
H360 N357 0.984 . S
H361 N357 0.985 . S
H362 N356 0.984 . S
H363 N356 0.984 . S
H364 N352 0.984 . S
H365 N352 0.985 . S
C366 C367 1.363 . S
C366 C372 1.379 . S
C366 N374 1.356 . S
C367 C366 1.363 . S
C367 C373 1.363 . S
C368 C369 1.363 . S
C368 C373 1.379 . S
C368 N375 1.356 . S
C369 C368 1.363 . S
C369 C372 1.363 . S
N370 C372 1.356 . S
N370 H382 0.984 . S
N370 H383 0.985 . S
N371 C373 1.356 . S
N371 H376 0.984 . S
N371 H377 0.985 . S
C372 C366 1.379 . S
C372 C369 1.363 . S
C372 N370 1.356 . S
C373 C367 1.363 . S
C373 C368 1.379 . S
C373 N371 1.356 . S
N374 C366 1.356 . S
N374 H380 0.984 . S
N374 H381 0.984 . S
N375 C368 1.356 . S
N375 H378 0.984 . S
N375 H379 0.985 . S
H376 N371 0.984 . S
H377 N371 0.985 . S
H378 N375 0.984 . S
H379 N375 0.985 . S
H380 N374 0.984 . S
H381 N374 0.984 . S
H382 N370 0.984 . S
H383 N370 0.985 . S
C384 C385 1.363 . S
C384 C390 1.379 . S
C384 N392 1.356 . S
C385 C384 1.363 . S
C385 C391 1.363 . S
C386 C387 1.363 . S
C386 C391 1.379 . S
C386 N393 1.356 . S
C387 C386 1.363 . S
C387 C390 1.363 . S
N388 C390 1.356 . S
N388 H400 0.984 . S
N388 H401 0.985 . S
N389 C391 1.356 . S
N389 H394 0.984 . S
N389 H395 0.985 . S
C390 C384 1.379 . S
C390 C387 1.363 . S
C390 N388 1.356 . S
C391 C385 1.363 . S
C391 C386 1.379 . S
C391 N389 1.356 . S
N392 C384 1.356 . S
N392 H398 0.984 . S
N392 H399 0.984 . S
N393 C386 1.356 . S
N393 H396 0.984 . S
N393 H397 0.985 . S
H394 N389 0.984 . S
H395 N389 0.985 . S
H396 N393 0.984 . S
H397 N393 0.985 . S
H398 N392 0.984 . S
H399 N392 0.984 . S
H400 N388 0.984 . S
H401 N388 0.985 . S
C402 C403 1.363 . S
C402 C408 1.379 . S
C402 N410 1.356 . S
C403 C402 1.363 . S
C403 C409 1.363 . S
C404 C405 1.363 . S
C404 C409 1.379 . S
C404 N411 1.356 . S
C405 C404 1.363 . S
C405 C408 1.363 . S
N406 C408 1.356 . S
N406 H418 0.984 . S
N406 H419 0.985 . S
N407 C409 1.356 . S
N407 H412 0.984 . S
N407 H413 0.985 . S
C408 C402 1.379 . S
C408 C405 1.363 . S
C408 N406 1.356 . S
C409 C403 1.363 . S
C409 C404 1.379 . S
C409 N407 1.356 . S
N410 C402 1.356 . S
N410 H416 0.984 . S
N410 H417 0.984 . S
N411 C404 1.356 . S
N411 H414 0.984 . S
N411 H415 0.985 . S
H412 N407 0.984 . S
H413 N407 0.985 . S
H414 N411 0.984 . S
H415 N411 0.985 . S
H416 N410 0.984 . S
H417 N410 0.984 . S
H418 N406 0.984 . S
H419 N406 0.985 . S
C420 C421 1.363 . S
C420 C426 1.379 . S
C420 N428 1.356 . S
C421 C420 1.363 . S
C421 C427 1.363 . S
C422 C423 1.363 . S
C422 C427 1.379 . S
C422 N429 1.356 . S
C423 C422 1.363 . S
C423 C426 1.363 . S
N424 C426 1.356 . S
N424 H436 0.984 . S
N424 H437 0.985 . S
N425 C427 1.356 . S
N425 H430 0.984 . S
N425 H431 0.985 . S
C426 C420 1.379 . S
C426 C423 1.363 . S
C426 N424 1.356 . S
C427 C421 1.363 . S
C427 C422 1.379 . S
C427 N425 1.356 . S
N428 C420 1.356 . S
N428 H434 0.984 . S
N428 H435 0.984 . S
N429 C422 1.356 . S
N429 H432 0.984 . S
N429 H433 0.985 . S
H430 N425 0.984 . S
H431 N425 0.985 . S
H432 N429 0.984 . S
H433 N429 0.985 . S
H434 N428 0.984 . S
H435 N428 0.984 . S
H436 N424 0.984 . S
H437 N424 0.985 . S
C438 C439 1.363 . S
C438 C444 1.379 . S
C438 N446 1.356 . S
C439 C438 1.363 . S
C439 C445 1.363 . S
C440 C441 1.363 . S
C440 C445 1.379 . S
C440 N447 1.356 . S
C441 C440 1.363 . S
C441 C444 1.363 . S
N442 C444 1.356 . S
N442 H454 0.984 . S
N442 H455 0.985 . S
N443 C445 1.356 . S
N443 H448 0.984 . S
N443 H449 0.985 . S
C444 C438 1.379 . S
C444 C441 1.363 . S
C444 N442 1.356 . S
C445 C439 1.363 . S
C445 C440 1.379 . S
C445 N443 1.356 . S
N446 C438 1.356 . S
N446 H452 0.984 . S
N446 H453 0.984 . S
N447 C440 1.356 . S
N447 H450 0.984 . S
N447 H451 0.985 . S
H448 N443 0.984 . S
H449 N443 0.985 . S
H450 N447 0.984 . S
H451 N447 0.985 . S
H452 N446 0.984 . S
H453 N446 0.984 . S
H454 N442 0.984 . S
H455 N442 0.985 . S
C456 C457 1.363 . S
C456 C462 1.379 . S
C456 N464 1.356 . S
C457 C456 1.363 . S
C457 C463 1.363 . S
C458 C459 1.363 . S
C458 C463 1.379 . S
C458 N465 1.356 . S
C459 C458 1.363 . S
C459 C462 1.363 . S
N460 C462 1.356 . S
N460 H472 0.984 . S
N460 H473 0.985 . S
N461 C463 1.356 . S
N461 H466 0.984 . S
N461 H467 0.985 . S
C462 C456 1.379 . S
C462 C459 1.363 . S
C462 N460 1.356 . S
C463 C457 1.363 . S
C463 C458 1.379 . S
C463 N461 1.356 . S
N464 C456 1.356 . S
N464 H470 0.984 . S
N464 H471 0.984 . S
N465 C458 1.356 . S
N465 H468 0.984 . S
N465 H469 0.985 . S
H466 N461 0.984 . S
H467 N461 0.985 . S
H468 N465 0.984 . S
H469 N465 0.985 . S
H470 N464 0.984 . S
H471 N464 0.984 . S
H472 N460 0.984 . S
H473 N460 0.985 . S
C474 C475 1.363 . S
C474 C480 1.379 . S
C474 N482 1.356 . S
C475 C474 1.363 . S
C475 C481 1.363 . S
C476 C477 1.363 . S
C476 C481 1.379 . S
C476 N483 1.356 . S
C477 C476 1.363 . S
C477 C480 1.363 . S
N478 C480 1.356 . S
N478 H490 0.984 . S
N478 H491 0.985 . S
N479 C481 1.356 . S
N479 H484 0.984 . S
N479 H485 0.985 . S
C480 C474 1.379 . S
C480 C477 1.363 . S
C480 N478 1.356 . S
C481 C475 1.363 . S
C481 C476 1.379 . S
C481 N479 1.356 . S
N482 C474 1.356 . S
N482 H488 0.984 . S
N482 H489 0.984 . S
N483 C476 1.356 . S
N483 H486 0.984 . S
N483 H487 0.985 . S
H484 N479 0.984 . S
H485 N479 0.985 . S
H486 N483 0.984 . S
H487 N483 0.985 . S
H488 N482 0.984 . S
H489 N482 0.984 . S
H490 N478 0.984 . S
H491 N478 0.985 . S
C492 C493 1.363 . S
C492 C498 1.379 . S
C492 N500 1.356 . S
C493 C492 1.363 . S
C493 C499 1.363 . S
C494 C495 1.363 . S
C494 C499 1.379 . S
C494 N501 1.356 . S
C495 C494 1.363 . S
C495 C498 1.363 . S
N496 C498 1.356 . S
N496 H508 0.984 . S
N496 H509 0.985 . S
N497 C499 1.356 . S
N497 H502 0.984 . S
N497 H503 0.985 . S
C498 C492 1.379 . S
C498 C495 1.363 . S
C498 N496 1.356 . S
C499 C493 1.363 . S
C499 C494 1.379 . S
C499 N497 1.356 . S
N500 C492 1.356 . S
N500 H506 0.984 . S
N500 H507 0.984 . S
N501 C494 1.356 . S
N501 H504 0.984 . S
N501 H505 0.985 . S
H502 N497 0.984 . S
H503 N497 0.985 . S
H504 N501 0.984 . S
H505 N501 0.985 . S
H506 N500 0.984 . S
H507 N500 0.984 . S
H508 N496 0.984 . S
H509 N496 0.985 . S
C510 C511 1.363 . S
C510 C516 1.379 . S
C510 N518 1.356 . S
C511 C510 1.363 . S
C511 C517 1.363 . S
C512 C513 1.363 . S
C512 C517 1.379 . S
C512 N519 1.356 . S
C513 C512 1.363 . S
C513 C516 1.363 . S
N514 C516 1.356 . S
N514 H526 0.984 . S
N514 H527 0.985 . S
N515 C517 1.356 . S
N515 H520 0.984 . S
N515 H521 0.985 . S
C516 C510 1.379 . S
C516 C513 1.363 . S
C516 N514 1.356 . S
C517 C511 1.363 . S
C517 C512 1.379 . S
C517 N515 1.356 . S
N518 C510 1.356 . S
N518 H524 0.984 . S
N518 H525 0.984 . S
N519 C512 1.356 . S
N519 H522 0.984 . S
N519 H523 0.985 . S
H520 N515 0.984 . S
H521 N515 0.985 . S
H522 N519 0.984 . S
H523 N519 0.985 . S
H524 N518 0.984 . S
H525 N518 0.984 . S
H526 N514 0.984 . S
H527 N514 0.985 . S
C528 C529 1.363 . S
C528 C534 1.379 . S
C528 N536 1.356 . S
C529 C528 1.363 . S
C529 C535 1.363 . S
C530 C531 1.363 . S
C530 C535 1.379 . S
C530 N537 1.356 . S
C531 C530 1.363 . S
C531 C534 1.363 . S
N532 C534 1.356 . S
N532 H544 0.984 . S
N532 H545 0.985 . S
N533 C535 1.356 . S
N533 H538 0.984 . S
N533 H539 0.985 . S
C534 C528 1.379 . S
C534 C531 1.363 . S
C534 N532 1.356 . S
C535 C529 1.363 . S
C535 C530 1.379 . S
C535 N533 1.356 . S
N536 C528 1.356 . S
N536 H542 0.984 . S
N536 H543 0.984 . S
N537 C530 1.356 . S
N537 H540 0.984 . S
N537 H541 0.985 . S
H538 N533 0.984 . S
H539 N533 0.985 . S
H540 N537 0.984 . S
H541 N537 0.985 . S
H542 N536 0.984 . S
H543 N536 0.984 . S
H544 N532 0.984 . S
H545 N532 0.985 . S
C546 C547 1.363 . S
C546 C552 1.379 . S
C546 N554 1.356 . S
C547 C546 1.363 . S
C547 C553 1.363 . S
C548 C549 1.363 . S
C548 C553 1.379 . S
C548 N555 1.356 . S
C549 C548 1.363 . S
C549 C552 1.363 . S
N550 C552 1.356 . S
N550 H562 0.984 . S
N550 H563 0.985 . S
N551 C553 1.356 . S
N551 H556 0.984 . S
N551 H557 0.985 . S
C552 C546 1.379 . S
C552 C549 1.363 . S
C552 N550 1.356 . S
C553 C547 1.363 . S
C553 C548 1.379 . S
C553 N551 1.356 . S
N554 C546 1.356 . S
N554 H560 0.984 . S
N554 H561 0.984 . S
N555 C548 1.356 . S
N555 H558 0.984 . S
N555 H559 0.985 . S
H556 N551 0.984 . S
H557 N551 0.985 . S
H558 N555 0.984 . S
H559 N555 0.985 . S
H560 N554 0.984 . S
H561 N554 0.984 . S
H562 N550 0.984 . S
H563 N550 0.985 . S
C564 C565 1.363 . S
C564 C570 1.379 . S
C564 N572 1.356 . S
C565 C564 1.363 . S
C565 C571 1.363 . S
C566 C567 1.363 . S
C566 C571 1.379 . S
C566 N573 1.356 . S
C567 C566 1.363 . S
C567 C570 1.363 . S
N568 C570 1.356 . S
N568 H580 0.984 . S
N568 H581 0.985 . S
N569 C571 1.356 . S
N569 H574 0.984 . S
N569 H575 0.985 . S
C570 C564 1.379 . S
C570 C567 1.363 . S
C570 N568 1.356 . S
C571 C565 1.363 . S
C571 C566 1.379 . S
C571 N569 1.356 . S
N572 C564 1.356 . S
N572 H578 0.984 . S
N572 H579 0.984 . S
N573 C566 1.356 . S
N573 H576 0.984 . S
N573 H577 0.985 . S
H574 N569 0.984 . S
H575 N569 0.985 . S
H576 N573 0.984 . S
H577 N573 0.985 . S
H578 N572 0.984 . S
H579 N572 0.984 . S
H580 N568 0.984 . S
H581 N568 0.985 . S
C582 C583 1.363 . S
C582 C588 1.379 . S
C582 N590 1.356 . S
C583 C582 1.363 . S
C583 C589 1.363 . S
C584 C585 1.363 . S
C584 C589 1.379 . S
C584 N591 1.356 . S
C585 C584 1.363 . S
C585 C588 1.363 . S
N586 C588 1.356 . S
N586 H598 0.984 . S
N586 H599 0.985 . S
N587 C589 1.356 . S
N587 H592 0.984 . S
N587 H593 0.985 . S
C588 C582 1.379 . S
C588 C585 1.363 . S
C588 N586 1.356 . S
C589 C583 1.363 . S
C589 C584 1.379 . S
C589 N587 1.356 . S
N590 C582 1.356 . S
N590 H596 0.984 . S
N590 H597 0.984 . S
N591 C584 1.356 . S
N591 H594 0.984 . S
N591 H595 0.985 . S
H592 N587 0.984 . S
H593 N587 0.985 . S
H594 N591 0.984 . S
H595 N591 0.985 . S
H596 N590 0.984 . S
H597 N590 0.984 . S
H598 N586 0.984 . S
H599 N586 0.985 . S
C169 C13 1.320 . S
C171 C167 1.320 . S
C187 C97 1.320 . S
C189 C27 1.320 . S
C205 C41 1.320 . S
C207 C111 1.320 . S
C223 C125 1.320 . S
C225 C55 1.320 . S
C241 C139 1.320 . S
C243 C69 1.320 . S
C259 C153 1.320 . S
C261 C83 1.320 . S
C277 C49 1.480 . S
C279 C119 1.480 . S
C295 C63 1.480 . S
C297 C133 1.480 . S
C313 C77 1.480 . S
C315 C147 1.480 . S
C331 C161 1.480 . S
C333 C7 1.480 . S
C349 C21 1.480 . S
C351 C91 1.480 . S
C367 C35 1.480 . S
C369 C105 1.480 . S
C385 C120 1.418 . S
C387 C8 1.418 . S
C403 C134 1.418 . S
C405 C22 1.418 . S
C421 C36 1.418 . S
C423 C148 1.418 . S
C439 C50 1.418 . S
C441 C162 1.418 . S
C457 C64 1.418 . S
C459 C92 1.418 . S
C475 C106 1.418 . S
C477 C78 1.418 . S
C493 C11 1.391 . S
C495 C151 1.391 . S
C511 C165 1.391 . S
C513 C25 1.391 . S
C529 C39 1.391 . S
C531 C95 1.391 . S
C547 C53 1.391 . S
C549 C109 1.391 . S
C565 C67 1.391 . S
C567 C123 1.391 . S
C583 C81 1.391 . S
C585 C137 1.391 . S
