# Generated by pormake.
# Topology xfu, (5)-cn, num edge types: 1
# Building blocks:
#     Node 0, Type 0, BuildingBlock: BEQFEK_clean_sbu_0, # of connection points: 5
#     Node 1, Type 0, BuildingBlock: BEQFEK_clean_sbu_0, # of connection points: 5
#     Node 2, Type 0, BuildingBlock: BEQFEK_clean_sbu_0, # of connection points: 5
#     Node 3, Type 0, BuildingBlock: BEQFEK_clean_sbu_0, # of connection points: 5
#     Node 4, Type 0, BuildingBlock: BEQFEK_clean_sbu_0, # of connection points: 5
#     Node 5, Type 0, BuildingBlock: BEQFEK_clean_sbu_0, # of connection points: 5
#     Node 6, Type 0, BuildingBlock: BEQFEK_clean_sbu_0, # of connection points: 5
#     Node 7, Type 0, BuildingBlock: BEQFEK_clean_sbu_0, # of connection points: 5
#     Edge 8, Type (0, 0), BuildingBlock: AJUNOK_clean_linker_0, # of connection points: 2
#     Edge 9, Type (0, 0), BuildingBlock: AJUNOK_clean_linker_0, # of connection points: 2
#     Edge 10, Type (0, 0), BuildingBlock: AJUNOK_clean_linker_0, # of connection points: 2
#     Edge 11, Type (0, 0), BuildingBlock: AJUNOK_clean_linker_0, # of connection points: 2
#     Edge 12, Type (0, 0), BuildingBlock: AJUNOK_clean_linker_0, # of connection points: 2
#     Edge 13, Type (0, 0), BuildingBlock: AJUNOK_clean_linker_0, # of connection points: 2
#     Edge 14, Type (0, 0), BuildingBlock: AJUNOK_clean_linker_0, # of connection points: 2
#     Edge 15, Type (0, 0), BuildingBlock: AJUNOK_clean_linker_0, # of connection points: 2
#     Edge 16, Type (0, 0), BuildingBlock: AJUNOK_clean_linker_0, # of connection points: 2
#     Edge 17, Type (0, 0), BuildingBlock: AJUNOK_clean_linker_0, # of connection points: 2
#     Edge 18, Type (0, 0), BuildingBlock: AJUNOK_clean_linker_0, # of connection points: 2
#     Edge 19, Type (0, 0), BuildingBlock: AJUNOK_clean_linker_0, # of connection points: 2
#     Edge 20, Type (0, 0), BuildingBlock: AJUNOK_clean_linker_0, # of connection points: 2
#     Edge 21, Type (0, 0), BuildingBlock: AJUNOK_clean_linker_0, # of connection points: 2
#     Edge 22, Type (0, 0), BuildingBlock: AJUNOK_clean_linker_0, # of connection points: 2
#     Edge 23, Type (0, 0), BuildingBlock: AJUNOK_clean_linker_0, # of connection points: 2
#     Edge 24, Type (0, 0), BuildingBlock: AJUNOK_clean_linker_0, # of connection points: 2
#     Edge 25, Type (0, 0), BuildingBlock: AJUNOK_clean_linker_0, # of connection points: 2
#     Edge 26, Type (0, 0), BuildingBlock: AJUNOK_clean_linker_0, # of connection points: 2
#     Edge 27, Type (0, 0), BuildingBlock: AJUNOK_clean_linker_0, # of connection points: 2
# Relax obj value: 0.263
# Max RMSD: 0.191
# Mean RMSD: 0.191
data_MOF--net-xfu--node1-BEQFEK_clean_sbu_0--edge1-AJUNOK_clean_linker_0
_symmetry_space_group_name_H-M    P1
_symmetry_Int_Tables_number       1
_symmetry_cell_setting            triclinic
loop_
_symmetry_equiv_pos_as_xyz
'x, y, z'
_cell_length_a     22.935073
_cell_length_b     22.987656
_cell_length_c     45.034205
_cell_angle_alpha  90.018955
_cell_angle_beta   90.166804
_cell_angle_gamma 90.033946
loop_
_atom_site_label
_atom_site_type_symbol
_atom_site_fract_x
_atom_site_fract_y
_atom_site_fract_z
_atom_type_partial_charge
Co0 Co 0.07648 0.29793 0.67113 0.0
Co1 Co 0.07277 0.18732 0.6305 0.0
C2 C 0.17119 0.27572 0.62829 0.0
O3 O 0.14664 0.30942 0.64686 0.0
O4 O 0.14802 0.22745 0.62071 0.0
C5 C 0.08859 0.41389 0.69532 0.0
O6 O 0.11487 0.42573 0.67014 0.0
C7 C 0.06289 0.13239 0.57234 0.0
C8 C 0.03497 0.04307 0.58348 0.0
C9 C 0.0467 0.07968 0.55978 0.0
N10 N 0.06048 0.12727 0.60201 0.0
N11 N 0.04432 0.07361 0.60858 0.0
C12 C 0.0756 0.18833 0.55667 0.0
H13 H 0.06714 0.22586 0.57157 0.0
H14 H 0.04879 0.19217 0.53621 0.0
H15 H 0.12228 0.18915 0.55029 0.0
C16 C 0.95809 0.31257 0.64713 0.0
N17 N 0.01005 0.28562 0.64746 0.0
N18 N 0.00742 0.23877 0.63073 0.0
C19 C 0.95297 0.23401 0.61952 0.0
C20 C 0.91999 0.2808 0.62948 0.0
C21 C 0.94436 0.36554 0.66511 0.0
H22 H 0.97918 0.39844 0.662 0.0
H23 H 0.90177 0.38467 0.65863 0.0
H24 H 0.94335 0.35367 0.68899 0.0
O25 O 0.09071 0.23055 0.69746 0.0
O26 O 0.08208 0.15068 0.67007 0.0
H27 H 0.88243 0.18104 0.60201 0.0
H28 H 0.94872 0.18101 0.58062 0.0
C29 C 0.93071 0.18144 0.60344 0.0
H30 H 0.94548 0.14154 0.61503 0.0
H31 H 0.0383 0.05828 0.63016 0.0
O32 O 0.06663 0.36373 0.69899 0.0
C33 C 0.09088 0.17542 0.69498 0.0
Co34 Co 0.78292 0.57589 0.17113 0.0
Co35 Co 0.89657 0.57344 0.13272 0.0
C36 C 0.81109 0.67469 0.13182 0.0
O37 O 0.77548 0.64966 0.14926 0.0
O38 O 0.85866 0.65027 0.12421 0.0
C39 C 0.66782 0.59215 0.19548 0.0
O40 O 0.658 0.62213 0.17114 0.0
C41 C 0.95237 0.56369 0.07467 0.0
C42 C 0.04437 0.54734 0.08657 0.0
C43 C 0.0071 0.55395 0.06249 0.0
N44 N 0.9572 0.56258 0.10441 0.0
N45 N 0.0123 0.55278 0.11141 0.0
C46 C 0.89654 0.57604 0.05858 0.0
H47 H 0.86531 0.59874 0.0733 0.0
H48 H 0.87633 0.53436 0.05161 0.0
H49 H 0.90484 0.60264 0.03847 0.0
C50 C 0.76637 0.46135 0.14427 0.0
N51 N 0.79421 0.51266 0.14564 0.0
N52 N 0.84344 0.50936 0.13083 0.0
C53 C 0.8492 0.45481 0.12015 0.0
C54 C 0.80056 0.4225 0.1284 0.0
C55 C 0.71053 0.44883 0.16017 0.0
H56 H 0.67898 0.48442 0.15583 0.0
H57 H 0.69141 0.40675 0.15296 0.0
H58 H 0.71884 0.44762 0.18445 0.0
O59 O 0.84972 0.58168 0.19869 0.0
O60 O 0.93197 0.57876 0.17294 0.0
H61 H 0.9425 0.44904 0.11894 0.0
H62 H 0.90551 0.38345 0.10717 0.0
C63 C 0.90418 0.43168 0.10675 0.0
H64 H 0.90703 0.44631 0.08334 0.0
H65 H 0.02801 0.5499 0.13312 0.0
O66 O 0.716 0.56559 0.19823 0.0
C67 C 0.90514 0.58218 0.19759 0.0
Co68 Co 0.51307 0.28623 0.67045 0.0
Co69 Co 0.51946 0.40242 0.63423 0.0
C70 C 0.41653 0.31941 0.63038 0.0
O71 O 0.44059 0.28199 0.64717 0.0
O72 O 0.44177 0.36731 0.62431 0.0
C73 C 0.48607 0.1726 0.69264 0.0
O74 O 0.45617 0.16844 0.66782 0.0
C75 C 0.53152 0.45932 0.57688 0.0
C76 C 0.53775 0.55232 0.5888 0.0
C77 C 0.53619 0.51457 0.56479 0.0
N78 N 0.53057 0.46412 0.6066 0.0
N79 N 0.5345 0.51981 0.61364 0.0
C80 C 0.52382 0.40307 0.56057 0.0
H81 H 0.50749 0.36866 0.57567 0.0
H82 H 0.56641 0.38881 0.55155 0.0
H83 H 0.49331 0.40891 0.54163 0.0
C84 C 0.62911 0.26969 0.6445 0.0
N85 N 0.57818 0.2983 0.64609 0.0
N86 N 0.58243 0.34796 0.63173 0.0
C87 C 0.63709 0.35301 0.62101 0.0
C88 C 0.6684 0.30336 0.62861 0.0
C89 C 0.64123 0.21388 0.66043 0.0
H90 H 0.64664 0.22294 0.68449 0.0
H91 H 0.60364 0.18393 0.65774 0.0
H92 H 0.68137 0.19277 0.65191 0.0
O93 O 0.50638 0.35117 0.69894 0.0
O94 O 0.51472 0.43504 0.67513 0.0
H95 H 0.70974 0.41 0.61102 0.0
H96 H 0.65096 0.41069 0.58452 0.0
C97 C 0.66164 0.40819 0.60851 0.0
H98 H 0.64209 0.44632 0.61979 0.0
H99 H 0.53388 0.53568 0.63535 0.0
O100 O 0.51875 0.21665 0.69644 0.0
C101 C 0.50819 0.40652 0.69915 0.0
Co102 Co 0.7942 0.01755 0.17095 0.0
Co103 Co 0.68122 0.02104 0.13162 0.0
C104 C 0.76557 0.91984 0.13029 0.0
O105 O 0.79988 0.9446 0.14854 0.0
O106 O 0.71801 0.94383 0.12217 0.0
C107 C 0.90782 0.99406 0.19284 0.0
O108 O 0.91431 0.96995 0.16662 0.0
C109 C 0.6271 0.02975 0.07333 0.0
C110 C 0.53932 0.06388 0.08329 0.0
C111 C 0.57581 0.04844 0.0601 0.0
N112 N 0.62143 0.03424 0.10291 0.0
N113 N 0.56862 0.05407 0.10879 0.0
C114 C 0.68259 0.01292 0.05823 0.0
H115 H 0.72043 0.02047 0.07316 0.0
H116 H 0.68819 0.03783 0.03731 0.0
H117 H 0.68088 0.96592 0.05267 0.0
C118 C 0.81275 0.13197 0.14459 0.0
N119 N 0.78412 0.08111 0.14578 0.0
N120 N 0.73535 0.08485 0.13047 0.0
C121 C 0.73079 0.13938 0.11956 0.0
C122 C 0.77961 0.17113 0.12828 0.0
C123 C 0.86844 0.1437 0.16094 0.0
H124 H 0.89972 0.10789 0.15662 0.0
H125 H 0.88807 0.18573 0.15408 0.0
H126 H 0.85978 0.14445 0.18516 0.0
O127 O 0.72748 0.01206 0.1982 0.0
O128 O 0.64561 0.01448 0.17185 0.0
H129 H 0.67788 0.21113 0.10348 0.0
H130 H 0.67238 0.14442 0.08264 0.0
C131 C 0.67678 0.16303 0.10525 0.0
H132 H 0.63808 0.14998 0.11835 0.0
H133 H 0.55322 0.06251 0.13014 0.0
O134 O 0.86231 0.02378 0.19786 0.0
C135 C 0.67209 0.01112 0.19672 0.0
Co136 Co 0.01058 0.7815 0.33434 0.0
Co137 Co 0.01201 0.90165 0.36711 0.0
C138 C 0.91321 0.8132 0.3732 0.0
O139 O 0.93891 0.77449 0.35786 0.0
O140 O 0.93661 0.86278 0.37768 0.0
C141 C 0.98899 0.6689 0.30901 0.0
O142 O 0.95245 0.66328 0.33124 0.0
C143 C 0.01621 0.96234 0.42337 0.0
C144 C 0.03907 0.05249 0.41106 0.0
C145 C 0.02708 0.01702 0.43519 0.0
N146 N 0.02088 0.96548 0.39373 0.0
N147 N 0.03421 0.01953 0.3864 0.0
C148 C 0.00654 0.90652 0.43976 0.0
H149 H 0.02521 0.86958 0.4271 0.0
H150 H 0.02626 0.90821 0.46228 0.0
H151 H 0.95899 0.89876 0.44187 0.0
C152 C 0.1276 0.77339 0.36006 0.0
N153 N 0.07549 0.79957 0.35776 0.0
N154 N 0.07771 0.85081 0.37072 0.0
C155 C 0.13207 0.8591 0.38147 0.0
C156 C 0.16544 0.81018 0.3751 0.0
C157 C 0.14208 0.71669 0.34555 0.0
H158 H 0.1056 0.68558 0.34868 0.0
H159 H 0.18284 0.69795 0.35483 0.0
H160 H 0.14766 0.72376 0.32135 0.0
O161 O 0.99837 0.84345 0.30504 0.0
O162 O 0.00413 0.93065 0.32555 0.0
H163 H 0.20202 0.91753 0.39434 0.0
H164 H 0.13665 0.92179 0.41638 0.0
C165 C 0.1537 0.91585 0.39356 0.0
H166 H 0.13723 0.95212 0.37964 0.0
H167 H 0.04096 0.03366 0.36466 0.0
O168 O 0.02237 0.71291 0.30849 0.0
C169 C 0.99728 0.89849 0.30274 0.0
Co170 Co 0.2959 0.51164 0.82806 0.0
Co171 Co 0.18591 0.5172 0.8694 0.0
C172 C 0.26492 0.41427 0.86981 0.0
O173 O 0.29946 0.43845 0.85146 0.0
O174 O 0.21827 0.43912 0.87824 0.0
C175 C 0.41857 0.51642 0.80414 0.0
O176 O 0.44078 0.52454 0.83071 0.0
C177 C 0.12394 0.51915 0.92601 0.0
C178 C 0.04419 0.5688 0.91518 0.0
C179 C 0.07365 0.54208 0.93832 0.0
N180 N 0.12479 0.53255 0.897 0.0
N181 N 0.07666 0.56162 0.89055 0.0
C182 C 0.17022 0.48406 0.9412 0.0
H183 H 0.16763 0.43852 0.93313 0.0
H184 H 0.21393 0.50102 0.93518 0.0
H185 H 0.16489 0.4839 0.96566 0.0
C186 C 0.31397 0.62919 0.85246 0.0
N187 N 0.28729 0.57711 0.85247 0.0
N188 N 0.24437 0.57748 0.87179 0.0
C189 C 0.24513 0.62883 0.88629 0.0
C190 C 0.28883 0.66387 0.87436 0.0
C191 C 0.35391 0.64823 0.82803 0.0
H192 H 0.344 0.62389 0.80736 0.0
H193 H 0.39965 0.63884 0.83446 0.0
H194 H 0.34947 0.69547 0.82353 0.0
O195 O 0.22962 0.50807 0.80116 0.0
O196 O 0.14985 0.51354 0.82869 0.0
H197 H 0.16021 0.65186 0.90197 0.0
H198 H 0.21945 0.68321 0.92335 0.0
C199 C 0.20453 0.64411 0.91105 0.0
H200 H 0.2024 0.60748 0.9269 0.0
H201 H 0.06664 0.57773 0.86948 0.0
O202 O 0.36374 0.51218 0.80077 0.0
C203 C 0.17451 0.50957 0.80343 0.0
Co204 Co 0.5699 0.80014 0.33061 0.0
Co205 Co 0.56561 0.68747 0.36982 0.0
C206 C 0.66716 0.77189 0.37157 0.0
O207 O 0.64297 0.80686 0.35344 0.0
O208 O 0.64267 0.72435 0.37909 0.0
C209 C 0.58916 0.91461 0.30585 0.0
O210 O 0.62007 0.92373 0.33002 0.0
C211 C 0.55595 0.63235 0.42781 0.0
C212 C 0.53547 0.54097 0.41658 0.0
C213 C 0.54406 0.57851 0.44026 0.0
N214 N 0.55357 0.62712 0.39814 0.0
N215 N 0.54145 0.57239 0.39152 0.0
C216 C 0.57299 0.68735 0.44341 0.0
H217 H 0.54184 0.7224 0.43746 0.0
H218 H 0.57452 0.68184 0.46786 0.0
H219 H 0.61667 0.7012 0.43562 0.0
C220 C 0.45518 0.81893 0.35715 0.0
N221 N 0.50585 0.7899 0.35565 0.0
N222 N 0.50227 0.74184 0.37142 0.0
C223 C 0.44829 0.7385 0.38318 0.0
C224 C 0.41678 0.78742 0.3746 0.0
C225 C 0.4423 0.87294 0.33981 0.0
H226 H 0.43806 0.86164 0.31593 0.0
H227 H 0.47907 0.90397 0.34217 0.0
H228 H 0.40144 0.89394 0.34744 0.0
O229 O 0.57567 0.73336 0.30339 0.0
O230 O 0.57131 0.65189 0.32963 0.0
H231 H 0.43972 0.64583 0.38673 0.0
H232 H 0.37621 0.68576 0.39884 0.0
C233 C 0.42456 0.68557 0.39831 0.0
H234 H 0.44099 0.68429 0.42148 0.0
H235 H 0.53728 0.55651 0.3699 0.0
O236 O 0.56133 0.86712 0.30329 0.0
C237 C 0.57552 0.67812 0.30483 0.0
Co238 Co 0.27922 0.06684 0.83184 0.0
Co239 Co 0.39619 0.07238 0.86828 0.0
C240 C 0.30831 0.16857 0.87095 0.0
O241 O 0.27277 0.14133 0.85417 0.0
O242 O 0.35719 0.14647 0.878 0.0
C243 C 0.15381 0.04234 0.79993 0.0
O244 O 0.11961 0.0022 0.81118 0.0
C245 C 0.46243 0.07896 0.92317 0.0
C246 C 0.54729 0.04008 0.91134 0.0
C247 C 0.5162 0.06325 0.93493 0.0
N248 N 0.46195 0.06586 0.8941 0.0
N249 N 0.51304 0.04335 0.88702 0.0
C250 C 0.40953 0.09923 0.93963 0.0
H251 H 0.36934 0.08361 0.92839 0.0
H252 H 0.41007 0.08367 0.96296 0.0
H253 H 0.40854 0.14748 0.93958 0.0
C254 C 0.28049 0.94791 0.85562 0.0
N255 N 0.30049 0.00289 0.85565 0.0
N256 N 0.34647 0.00639 0.87305 0.0
C257 C 0.35489 0.95428 0.88623 0.0
C258 C 0.3139 0.91501 0.87518 0.0
C259 C 0.23715 0.92552 0.83344 0.0
H260 H 0.2412 0.94976 0.81229 0.0
H261 H 0.19255 0.93174 0.84233 0.0
H262 H 0.2438 0.87865 0.8287 0.0
O263 O 0.33888 0.07616 0.8011 0.0
O264 O 0.42304 0.07808 0.82587 0.0
H265 H 0.44409 0.94293 0.89914 0.0
H266 H 0.39266 0.90093 0.92095 0.0
C267 C 0.40026 0.94294 0.90947 0.0
H268 H 0.39901 0.97788 0.92634 0.0
H269 H 0.52376 0.02833 0.86586 0.0
O270 O 0.20287 0.05238 0.81213 0.0
C271 C 0.39433 0.07934 0.80149 0.0
C272 C 0.07794 0.06643 0.47728 0.0
C273 C 0.02998 0.03421 0.46681 0.0
C274 C 0.08299 0.08143 0.50738 0.0
C275 C 0.04002 0.06503 0.52796 0.0
H276 H 0.11248 0.079 0.46222 0.0
H277 H 0.12144 0.10483 0.51465 0.0
S278 S 0.90263 0.98644 0.51112 0.0
N279 N 0.93625 0.99102 0.47883 0.0
N280 N 0.94623 0.01819 0.53547 0.0
C281 C 0.9912 0.03403 0.51762 0.0
C282 C 0.98594 0.01904 0.48699 0.0
C283 C 0.98796 0.52478 0.00953 0.0
C284 C 0.02421 0.55174 0.03078 0.0
C285 C 0.00407 0.52206 0.97953 0.0
C286 C 0.05748 0.54504 0.96993 0.0
H287 H 0.94742 0.50457 0.0161 0.0
H288 H 0.97506 0.50099 0.96383 0.0
S289 S 0.16675 0.6224 0.01607 0.0
N290 N 0.11512 0.60354 0.03967 0.0
N291 N 0.14535 0.59783 0.98335 0.0
C292 C 0.09394 0.57231 0.99076 0.0
C293 C 0.07747 0.57549 0.02121 0.0
C294 C 0.57309 0.50111 0.513 0.0
C295 C 0.5371 0.53112 0.53307 0.0
C296 C 0.57475 0.5165 0.48288 0.0
C297 C 0.54105 0.56282 0.47197 0.0
H298 H 0.60102 0.46624 0.52066 0.0
H299 H 0.60335 0.49267 0.46814 0.0
S300 S 0.43625 0.652 0.51479 0.0
N301 N 0.46489 0.60736 0.53959 0.0
N302 N 0.46782 0.63597 0.48291 0.0
C303 C 0.5042 0.59253 0.49164 0.0
C304 C 0.5025 0.57692 0.52227 0.0
C305 C 0.5601 0.01165 0.97833 0.0
C306 C 0.53418 0.0621 0.96653 0.0
C307 C 0.57414 0.00771 0.0086 0.0
C308 C 0.56275 0.05409 0.02807 0.0
H309 H 0.56814 0.97433 0.96423 0.0
H310 H 0.59264 0.96755 0.01693 0.0
S311 S 0.50291 0.19837 0.00758 0.0
N312 N 0.50361 0.16155 0.97609 0.0
N313 N 0.52833 0.15347 0.03315 0.0
C314 C 0.53853 0.10535 0.01642 0.0
C315 C 0.52483 0.1096 0.98557 0.0
C316 C 0.16002 0.13047 0.76785 0.0
C317 C 0.13622 0.07505 0.77308 0.0
C318 C 0.1443 0.16271 0.74273 0.0
C319 C 0.1052 0.14028 0.72148 0.0
H320 H 0.19065 0.14945 0.78346 0.0
H321 H 0.16377 0.20525 0.73969 0.0
S322 S 0.03097 0.99712 0.72447 0.0
N323 N 0.07118 -0.00088 0.75495 0.0
N324 N 0.04292 0.05937 0.70722 0.0
C325 C 0.08139 0.08476 0.72623 0.0
C326 C 0.09649 0.0523 0.75218 0.0
C327 C 0.93247 0.59567 0.27986 0.0
C328 C 0.97934 0.6351 0.28128 0.0
C329 C 0.9116 0.5751 0.25259 0.0
C330 C 0.93719 0.59245 0.22566 0.0
H331 H 0.90892 0.58363 0.29975 0.0
H332 H 0.873 0.54787 0.25254 0.0
S333 S 0.06799 0.6858 0.21731 0.0
N334 N 0.05623 0.68386 0.25345 0.0
N335 N 0.01674 0.64482 0.20219 0.0
C336 C 0.98775 0.6269 0.22683 0.0
C337 C 0.00893 0.64828 0.25466 0.0
C338 C 0.45535 0.43061 0.77771 0.0
C339 C 0.45442 0.49131 0.78042 0.0
C340 C 0.47608 0.40388 0.75198 0.0
C341 C 0.49621 0.43687 0.72767 0.0
H342 H 0.43681 0.40359 0.79502 0.0
H343 H 0.47326 0.35691 0.7507 0.0
S344 S 0.51004 0.59782 0.72576 0.0
N345 N 0.48026 0.58403 0.75839 0.0
N346 N 0.51999 0.53398 0.70965 0.0
C347 C 0.4991 0.49782 0.73097 0.0
C348 C 0.47786 0.52504 0.75742 0.0
C349 C 0.64583 0.99032 0.27861 0.0
C350 C 0.59883 0.95101 0.27905 0.0
C351 C 0.66616 0.01364 0.25187 0.0
C352 C 0.63995 -0.00083 0.22454 0.0
H353 H 0.66999 -3e-05 0.29872 0.0
H354 H 0.70498 0.04052 0.25247 0.0
S355 S 0.50814 0.90781 0.21418 0.0
N356 N 0.52087 0.90588 0.25028 0.0
N357 N 0.5593 0.94995 0.19999 0.0
C358 C 0.58912 0.96503 0.22496 0.0
C359 C 0.56852 0.94086 0.25224 0.0
C360 C 0.97199 0.9841 0.27031 0.0
C361 C 0.98329 0.92412 0.27321 0.0
C362 C 0.95066 0.00741 0.24356 0.0
C363 C 0.94097 0.97184 0.21861 0.0
H364 H 0.97713 0.01291 0.28917 0.0
H365 H 0.93978 0.05324 0.2427 0.0
S366 S 0.96491 0.8125 0.2139 0.0
N367 N 0.98465 0.83 0.248 0.0
N368 N 0.94512 0.87416 0.19815 0.0
C369 C 0.95457 0.91244 0.2207 0.0
C370 C 0.9756 0.88851 0.24789 0.0
C371 C 0.16608 0.51402 0.74848 0.0
C372 C 0.14052 0.49962 0.77592 0.0
C373 C 0.14509 0.49063 0.72184 0.0
C374 C 0.09806 0.45141 0.72167 0.0
H375 H 0.20523 0.54039 0.74776 0.0
H376 H 0.16909 0.49965 0.70168 0.0
S377 S 0.0078 0.4101 0.78666 0.0
N378 N 0.05968 0.45177 0.80073 0.0
N379 N 0.01999 0.40752 0.75055 0.0
C380 C 0.06801 0.44194 0.74851 0.0
C381 C 0.08925 0.4662 0.77569 0.0
C382 C 0.57155 0.6715 0.24972 0.0
C383 C 0.58639 0.64557 0.27702 0.0
C384 C 0.59354 0.65019 0.22289 0.0
C385 C 0.63195 0.60254 0.22235 0.0
H386 H 0.54542 0.71076 0.24919 0.0
H387 H 0.58379 0.67415 0.20278 0.0
S388 S 0.6754 0.51241 0.28721 0.0
N389 N 0.63472 0.56456 0.30152 0.0
N390 N 0.67646 0.52439 0.25106 0.0
C391 C 0.64235 0.5726 0.24919 0.0
C392 C 0.61947 0.59415 0.27656 0.0
C393 C 0.47707 0.12247 0.7727 0.0
C394 C 0.42459 0.09083 0.77302 0.0
C395 C 0.49944 0.14495 0.74609 0.0
C396 C 0.47037 0.13635 0.71879 0.0
H397 H 0.49897 0.13337 0.79331 0.0
H398 H 0.53798 0.17214 0.74725 0.0
S399 S 0.33759 0.04635 0.70714 0.0
N400 N 0.34887 0.04458 0.74333 0.0
N401 N 0.39087 0.08635 0.69342 0.0
C402 C 0.421 0.09988 0.71853 0.0
C403 C 0.39806 0.07736 0.74563 0.0
C404 C 0.82408 0.28591 0.65495 0.0
C405 C 0.85594 0.28668 0.62837 0.0
C406 C 0.7633 0.29071 0.65473 0.0
C407 C 0.73237 0.29631 0.62791 0.0
H408 H 0.84631 0.2813 0.67608 0.0
H409 H 0.7404 0.29077 0.67573 0.0
S410 S 0.79556 0.30057 0.55235 0.0
N411 N 0.85258 0.29348 0.57459 0.0
N412 N 0.73772 0.30234 0.57415 0.0
C413 C 0.76364 0.29714 0.60117 0.0
C414 C 0.82565 0.29213 0.6014 0.0
C415 C 0.7935 0.32724 0.10162 0.0
C416 C 0.79538 0.35845 0.12845 0.0
C417 C 0.78845 0.26632 0.10158 0.0
C418 C 0.78553 0.23513 0.12838 0.0
H419 H 0.79563 0.35011 0.08062 0.0
H420 H 0.78691 0.24345 0.08056 0.0
S421 S 0.78948 0.2968 0.20444 0.0
N422 N 0.79604 0.3537 0.18235 0.0
N423 N 0.7835 0.2399 0.18227 0.0
C424 C 0.78725 0.266 0.15527 0.0
C425 C 0.79303 0.32758 0.1553 0.0
C426 C 0.32101 0.79491 0.349 0.0
C427 C 0.35294 0.79478 0.37565 0.0
C428 C 0.26031 0.80017 0.34913 0.0
C429 C 0.22956 0.80548 0.37592 0.0
H430 H 0.34309 0.79022 0.3279 0.0
H431 H 0.23722 0.80018 0.3281 0.0
S432 S 0.29302 0.80818 0.4516 0.0
N433 N 0.34991 0.80084 0.42945 0.0
N434 N 0.23511 0.81093 0.4297 0.0
C435 C 0.26091 0.80596 0.40271 0.0
C436 C 0.32287 0.80032 0.40258 0.0
C437 C 0.25519 0.82479 0.88198 0.0
C438 C 0.31028 0.851 0.87931 0.0
C439 C 0.24873 0.76434 0.88095 0.0
C440 C 0.29742 0.72738 0.87892 0.0
H441 H 0.2163 0.85136 0.88343 0.0
H442 H 0.20493 0.74686 0.88053 0.0
S443 S 0.45201 0.77361 0.87438 0.0
N444 N 0.41475 0.83501 0.87441 0.0
N445 N 0.40314 0.72127 0.87752 0.0
C446 C 0.35314 0.75287 0.8785 0.0
C447 C 0.35953 0.81464 0.87765 0.0
C448 C 0.33287 0.25271 0.62005 0.0
C449 C 0.35493 0.30981 0.62157 0.0
C450 C 0.27271 0.24204 0.61903 0.0
C451 C 0.23241 0.28809 0.62014 0.0
H452 H 0.36219 0.21585 0.62137 0.0
H453 H 0.25782 0.19733 0.61991 0.0
S454 S 0.26745 0.44556 0.61945 0.0
N455 N 0.33164 0.41307 0.62009 0.0
N456 N 0.21855 0.39281 0.61896 0.0
C457 C 0.25386 0.34535 0.6191 0.0
C458 C 0.31516 0.35628 0.61958 0.0
C459 C 0.74271 0.7579 0.12343 0.0
C460 C 0.80018 0.73632 0.12385 0.0
C461 C 0.73152 0.81789 0.12247 0.0
C462 C 0.77746 0.85842 0.12256 0.0
H463 H 0.70611 0.72833 0.12538 0.0
H464 H 0.68674 0.83253 0.12407 0.0
S465 S 0.93545 0.82467 0.11968 0.0
N466 N 0.90336 0.7604 0.12094 0.0
N467 N 0.88222 0.87298 0.1198 0.0
C468 C 0.8349 0.83741 0.12075 0.0
C469 C 0.84631 0.77637 0.1212 0.0
C470 C 0.76821 0.73634 0.38096 0.0
C471 C 0.72846 0.78287 0.38019 0.0
C472 C 0.82852 0.74645 0.38122 0.0
C473 C 0.85122 0.80342 0.38125 0.0
H474 H 0.75288 0.69192 0.37894 0.0
H475 H 0.85748 0.70937 0.37958 0.0
S476 S 0.76465 0.93971 0.38548 0.0
N477 N 0.71537 0.88742 0.38376 0.0
N478 N 0.82857 0.90671 0.38502 0.0
C479 C 0.81169 0.85007 0.38372 0.0
C480 C 0.75031 0.83972 0.38291 0.0
C481 C 0.23944 0.25262 0.87562 0.0
C482 C 0.29647 0.23048 0.87821 0.0
C483 C 0.22886 0.31273 0.87566 0.0
C484 C 0.27509 0.35276 0.87765 0.0
H485 H 0.20299 0.22344 0.87199 0.0
H486 H 0.18474 0.32785 0.87184 0.0
S487 S 0.43101 0.31804 0.88973 0.0
N488 N 0.39878 0.254 0.88706 0.0
N489 N 0.37864 0.36677 0.88601 0.0
C490 C 0.33156 0.33145 0.88257 0.0
C491 C 0.3423 0.27031 0.88322 0.0
loop_
_geom_bond_atom_site_label_1
_geom_bond_atom_site_label_2
_geom_bond_distance
_geom_bond_site_symmetry_2
_ccdc_geom_bond_type
Co0 O3 1.970 . S
Co0 N17 1.989 . S
Co0 O25 1.967 . S
Co0 O32 1.920 . S
Co1 O4 1.966 . S
Co1 N10 2.022 . S
Co1 N18 1.993 . S
Co1 O26 1.941 . S
C2 O3 1.258 . S
C2 O4 1.263 . S
O3 Co0 1.970 . S
O3 C2 1.258 . S
O4 Co1 1.966 . S
O4 C2 1.263 . S
C5 O6 1.235 . S
C5 O32 1.289 . S
O6 C5 1.235 . S
C7 C9 1.400 . S
C7 N10 1.351 . S
C7 C12 1.501 . S
C8 C9 1.387 . S
C8 N11 1.341 . S
C9 C7 1.400 . S
C9 C8 1.387 . S
N10 Co1 2.022 . S
N10 C7 1.351 . S
N10 N11 1.365 . S
N11 C8 1.341 . S
N11 N10 1.365 . S
N11 H31 0.862 . S
C12 C7 1.501 . S
C12 H13 0.961 . S
C12 H14 0.961 . S
C12 H15 0.960 . S
H13 C12 0.961 . S
H14 C12 0.961 . S
H15 C12 0.960 . S
C16 N17 1.342 1_655 S
C16 C20 1.401 . S
C16 C21 1.499 . S
N17 Co0 1.989 . S
N17 C16 1.342 1_455 S
N17 N18 1.388 . S
N18 Co1 1.993 . S
N18 N17 1.388 . S
N18 C19 1.346 1_455 S
C19 N18 1.346 1_655 S
C19 C20 1.396 . S
C19 C29 1.510 . S
C20 C16 1.401 . S
C20 C19 1.396 . S
C21 C16 1.499 . S
C21 H22 0.959 . S
C21 H23 0.960 . S
C21 H24 0.961 . S
H22 C21 0.959 . S
H23 C21 0.960 . S
H24 C21 0.961 . S
O25 Co0 1.967 . S
O25 C33 1.258 . S
O26 Co1 1.941 . S
O26 C33 1.266 . S
H27 C29 0.959 . S
H28 C29 0.961 . S
C29 C19 1.510 . S
C29 H27 0.959 . S
C29 H28 0.961 . S
C29 H30 0.960 . S
H30 C29 0.960 . S
H31 N11 0.862 . S
O32 Co0 1.920 . S
O32 C5 1.289 . S
C33 O25 1.258 . S
C33 O26 1.266 . S
Co34 O37 1.970 . S
Co34 N51 1.989 . S
Co34 O59 1.967 . S
Co34 O66 1.920 . S
Co35 O38 1.966 . S
Co35 N44 2.022 . S
Co35 N52 1.993 . S
Co35 O60 1.941 . S
C36 O37 1.258 . S
C36 O38 1.263 . S
O37 Co34 1.970 . S
O37 C36 1.258 . S
O38 Co35 1.966 . S
O38 C36 1.263 . S
C39 O40 1.235 . S
C39 O66 1.289 . S
O40 C39 1.235 . S
C41 C43 1.400 . S
C41 N44 1.351 . S
C41 C46 1.501 . S
C42 C43 1.387 1_455 S
C42 N45 1.341 1_455 S
C43 C41 1.400 . S
C43 C42 1.387 1_655 S
N44 Co35 2.022 . S
N44 C41 1.351 . S
N44 N45 1.365 . S
N45 C42 1.341 1_655 S
N45 N44 1.365 . S
N45 H65 0.862 1_655 S
C46 C41 1.501 . S
C46 H47 0.961 . S
C46 H48 0.961 . S
C46 H49 0.960 . S
H47 C46 0.961 . S
H48 C46 0.961 . S
H49 C46 0.960 . S
C50 N51 1.342 . S
C50 C54 1.401 . S
C50 C55 1.499 . S
N51 Co34 1.989 . S
N51 C50 1.342 . S
N51 N52 1.388 . S
N52 Co35 1.993 . S
N52 N51 1.388 . S
N52 C53 1.346 . S
C53 N52 1.346 . S
C53 C54 1.396 . S
C53 C63 1.510 . S
C54 C50 1.401 . S
C54 C53 1.396 . S
C55 C50 1.499 . S
C55 H56 0.959 . S
C55 H57 0.960 . S
C55 H58 0.961 . S
H56 C55 0.959 . S
H57 C55 0.960 . S
H58 C55 0.961 . S
O59 Co34 1.967 . S
O59 C67 1.258 . S
O60 Co35 1.941 . S
O60 C67 1.266 . S
H61 C63 0.959 . S
H62 C63 0.961 . S
C63 C53 1.510 . S
C63 H61 0.959 . S
C63 H62 0.961 . S
C63 H64 0.960 . S
H64 C63 0.960 . S
H65 N45 0.862 1_455 S
O66 Co34 1.920 . S
O66 C39 1.289 . S
C67 O59 1.258 . S
C67 O60 1.266 . S
Co68 O71 1.970 . S
Co68 N85 1.989 . S
Co68 O93 1.967 . S
Co68 O100 1.920 . S
Co69 O72 1.966 . S
Co69 N78 2.022 . S
Co69 N86 1.993 . S
Co69 O94 1.941 . S
C70 O71 1.258 . S
C70 O72 1.263 . S
O71 Co68 1.970 . S
O71 C70 1.258 . S
O72 Co69 1.966 . S
O72 C70 1.263 . S
C73 O74 1.235 . S
C73 O100 1.289 . S
O74 C73 1.235 . S
C75 C77 1.400 . S
C75 N78 1.351 . S
C75 C80 1.501 . S
C76 C77 1.387 . S
C76 N79 1.341 . S
C77 C75 1.400 . S
C77 C76 1.387 . S
N78 Co69 2.022 . S
N78 C75 1.351 . S
N78 N79 1.365 . S
N79 C76 1.341 . S
N79 N78 1.365 . S
N79 H99 0.862 . S
C80 C75 1.501 . S
C80 H81 0.961 . S
C80 H82 0.961 . S
C80 H83 0.960 . S
H81 C80 0.961 . S
H82 C80 0.961 . S
H83 C80 0.960 . S
C84 N85 1.342 . S
C84 C88 1.401 . S
C84 C89 1.499 . S
N85 Co68 1.989 . S
N85 C84 1.342 . S
N85 N86 1.388 . S
N86 Co69 1.993 . S
N86 N85 1.388 . S
N86 C87 1.346 . S
C87 N86 1.346 . S
C87 C88 1.396 . S
C87 C97 1.510 . S
C88 C84 1.401 . S
C88 C87 1.396 . S
C89 C84 1.499 . S
C89 H90 0.959 . S
C89 H91 0.960 . S
C89 H92 0.961 . S
H90 C89 0.959 . S
H91 C89 0.960 . S
H92 C89 0.961 . S
O93 Co68 1.967 . S
O93 C101 1.258 . S
O94 Co69 1.941 . S
O94 C101 1.266 . S
H95 C97 0.959 . S
H96 C97 0.961 . S
C97 C87 1.510 . S
C97 H95 0.959 . S
C97 H96 0.961 . S
C97 H98 0.960 . S
H98 C97 0.960 . S
H99 N79 0.862 . S
O100 Co68 1.920 . S
O100 C73 1.289 . S
C101 O93 1.258 . S
C101 O94 1.266 . S
Co102 O105 1.970 1_545 S
Co102 N119 1.989 . S
Co102 O127 1.967 1_545 S
Co102 O134 1.920 . S
Co103 O106 1.966 1_545 S
Co103 N112 2.022 . S
Co103 N120 1.993 . S
Co103 O128 1.941 1_545 S
C104 O105 1.258 . S
C104 O106 1.263 . S
O105 Co102 1.970 1_565 S
O105 C104 1.258 . S
O106 Co103 1.966 1_565 S
O106 C104 1.263 . S
C107 O108 1.235 . S
C107 O134 1.289 . S
O108 C107 1.235 . S
C109 C111 1.400 . S
C109 N112 1.351 . S
C109 C114 1.501 1_545 S
C110 C111 1.387 . S
C110 N113 1.341 . S
C111 C109 1.400 . S
C111 C110 1.387 . S
N112 Co103 2.022 . S
N112 C109 1.351 . S
N112 N113 1.365 . S
N113 C110 1.341 . S
N113 N112 1.365 . S
N113 H133 0.862 . S
C114 C109 1.501 1_565 S
C114 H115 0.961 . S
C114 H116 0.961 . S
C114 H117 0.960 . S
H115 C114 0.961 . S
H116 C114 0.961 . S
H117 C114 0.960 . S
C118 N119 1.342 . S
C118 C122 1.401 . S
C118 C123 1.499 . S
N119 Co102 1.989 . S
N119 C118 1.342 . S
N119 N120 1.388 . S
N120 Co103 1.993 . S
N120 N119 1.388 . S
N120 C121 1.346 . S
C121 N120 1.346 . S
C121 C122 1.396 . S
C121 C131 1.510 . S
C122 C118 1.401 . S
C122 C121 1.396 . S
C123 C118 1.499 . S
C123 H124 0.959 . S
C123 H125 0.960 . S
C123 H126 0.961 . S
H124 C123 0.959 . S
H125 C123 0.960 . S
H126 C123 0.961 . S
O127 Co102 1.967 1_565 S
O127 C135 1.258 . S
O128 Co103 1.941 1_565 S
O128 C135 1.266 . S
H129 C131 0.959 . S
H130 C131 0.961 . S
C131 C121 1.510 . S
C131 H129 0.959 . S
C131 H130 0.961 . S
C131 H132 0.960 . S
H132 C131 0.960 . S
H133 N113 0.862 . S
O134 Co102 1.920 . S
O134 C107 1.289 . S
C135 O127 1.258 . S
C135 O128 1.266 . S
Co136 O139 1.970 1_455 S
Co136 N153 1.989 . S
Co136 O161 1.967 1_455 S
Co136 O168 1.920 . S
Co137 O140 1.966 1_455 S
Co137 N146 2.022 . S
Co137 N154 1.993 . S
Co137 O162 1.941 1_455 S
C138 O139 1.258 . S
C138 O140 1.263 . S
O139 Co136 1.970 1_655 S
O139 C138 1.258 . S
O140 Co137 1.966 1_655 S
O140 C138 1.263 . S
C141 O142 1.235 . S
C141 O168 1.289 . S
O142 C141 1.235 . S
C143 C145 1.400 . S
C143 N146 1.351 . S
C143 C148 1.501 1_455 S
C144 C145 1.387 1_545 S
C144 N147 1.336 1_545 S
C145 C143 1.400 . S
C145 C144 1.387 1_565 S
N146 Co137 2.022 . S
N146 C143 1.351 . S
N146 N147 1.376 . S
N147 C144 1.336 1_565 S
N147 N146 1.376 . S
N147 H167 0.857 1_565 S
C148 C143 1.501 1_655 S
C148 H149 0.961 . S
C148 H150 0.961 . S
C148 H151 0.960 . S
H149 C148 0.961 . S
H150 C148 0.961 . S
H151 C148 0.960 . S
C152 N153 1.342 . S
C152 C156 1.401 . S
C152 C157 1.499 . S
N153 Co136 1.989 . S
N153 C152 1.342 . S
N153 N154 1.388 . S
N154 Co137 1.993 . S
N154 N153 1.388 . S
N154 C155 1.346 . S
C155 N154 1.346 . S
C155 C156 1.396 . S
C155 C165 1.510 . S
C156 C152 1.401 . S
C156 C155 1.396 . S
C157 C152 1.499 . S
C157 H158 0.959 . S
C157 H159 0.960 . S
C157 H160 0.961 . S
H158 C157 0.959 . S
H159 C157 0.960 . S
H160 C157 0.961 . S
O161 Co136 1.967 1_655 S
O161 C169 1.258 . S
O162 Co137 1.941 1_655 S
O162 C169 1.266 . S
H163 C165 0.959 . S
H164 C165 0.961 . S
C165 C155 1.510 . S
C165 H163 0.959 . S
C165 H164 0.961 . S
C165 H166 0.960 . S
H166 C165 0.960 . S
H167 N147 0.857 1_545 S
O168 Co136 1.920 . S
O168 C141 1.289 . S
C169 O161 1.258 . S
C169 O162 1.266 . S
Co170 O173 1.970 . S
Co170 N187 1.989 . S
Co170 O195 1.967 . S
Co170 O202 1.920 . S
Co171 O174 1.966 . S
Co171 N180 2.022 . S
Co171 N188 1.993 . S
Co171 O196 1.941 . S
C172 O173 1.258 . S
C172 O174 1.263 . S
O173 Co170 1.970 . S
O173 C172 1.258 . S
O174 Co171 1.966 . S
O174 C172 1.263 . S
C175 O176 1.235 . S
C175 O202 1.289 . S
O176 C175 1.235 . S
C177 C179 1.400 . S
C177 N180 1.351 . S
C177 C182 1.501 . S
C178 C179 1.387 . S
C178 N181 1.341 . S
C179 C177 1.400 . S
C179 C178 1.387 . S
N180 Co171 2.022 . S
N180 C177 1.351 . S
N180 N181 1.365 . S
N181 C178 1.341 . S
N181 N180 1.365 . S
N181 H201 0.862 . S
C182 C177 1.501 . S
C182 H183 0.961 . S
C182 H184 0.961 . S
C182 H185 0.960 . S
H183 C182 0.961 . S
H184 C182 0.961 . S
H185 C182 0.960 . S
C186 N187 1.342 . S
C186 C190 1.401 . S
C186 C191 1.499 . S
N187 Co170 1.989 . S
N187 C186 1.342 . S
N187 N188 1.388 . S
N188 Co171 1.993 . S
N188 N187 1.388 . S
N188 C189 1.346 . S
C189 N188 1.346 . S
C189 C190 1.396 . S
C189 C199 1.510 . S
C190 C186 1.401 . S
C190 C189 1.396 . S
C191 C186 1.499 . S
C191 H192 0.959 . S
C191 H193 0.960 . S
C191 H194 0.961 . S
H192 C191 0.959 . S
H193 C191 0.960 . S
H194 C191 0.961 . S
O195 Co170 1.967 . S
O195 C203 1.258 . S
O196 Co171 1.941 . S
O196 C203 1.266 . S
H197 C199 0.959 . S
H198 C199 0.961 . S
C199 C189 1.510 . S
C199 H197 0.959 . S
C199 H198 0.961 . S
C199 H200 0.960 . S
H200 C199 0.960 . S
H201 N181 0.862 . S
O202 Co170 1.920 . S
O202 C175 1.289 . S
C203 O195 1.258 . S
C203 O196 1.266 . S
Co204 O207 1.970 . S
Co204 N221 1.989 . S
Co204 O229 1.967 . S
Co204 O236 1.920 . S
Co205 O208 1.966 . S
Co205 N214 2.022 . S
Co205 N222 1.993 . S
Co205 O230 1.941 . S
C206 O207 1.258 . S
C206 O208 1.263 . S
O207 Co204 1.970 . S
O207 C206 1.258 . S
O208 Co205 1.966 . S
O208 C206 1.263 . S
C209 O210 1.235 . S
C209 O236 1.289 . S
O210 C209 1.235 . S
C211 C213 1.400 . S
C211 N214 1.351 . S
C211 C216 1.501 . S
C212 C213 1.387 . S
C212 N215 1.341 . S
C213 C211 1.400 . S
C213 C212 1.387 . S
N214 Co205 2.022 . S
N214 C211 1.351 . S
N214 N215 1.365 . S
N215 C212 1.341 . S
N215 N214 1.365 . S
N215 H235 0.862 . S
C216 C211 1.501 . S
C216 H217 0.961 . S
C216 H218 0.961 . S
C216 H219 0.960 . S
H217 C216 0.961 . S
H218 C216 0.961 . S
H219 C216 0.960 . S
C220 N221 1.342 . S
C220 C224 1.401 . S
C220 C225 1.499 . S
N221 Co204 1.989 . S
N221 C220 1.342 . S
N221 N222 1.388 . S
N222 Co205 1.993 . S
N222 N221 1.388 . S
N222 C223 1.346 . S
C223 N222 1.346 . S
C223 C224 1.396 . S
C223 C233 1.510 . S
C224 C220 1.401 . S
C224 C223 1.396 . S
C225 C220 1.499 . S
C225 H226 0.959 . S
C225 H227 0.960 . S
C225 H228 0.961 . S
H226 C225 0.959 . S
H227 C225 0.960 . S
H228 C225 0.961 . S
O229 Co204 1.967 . S
O229 C237 1.258 . S
O230 Co205 1.941 . S
O230 C237 1.266 . S
H231 C233 0.959 . S
H232 C233 0.961 . S
C233 C223 1.510 . S
C233 H231 0.959 . S
C233 H232 0.961 . S
C233 H234 0.960 . S
H234 C233 0.960 . S
H235 N215 0.862 . S
O236 Co204 1.920 . S
O236 C209 1.289 . S
C237 O229 1.258 . S
C237 O230 1.266 . S
Co238 O241 1.970 . S
Co238 N255 1.989 . S
Co238 O263 1.967 . S
Co238 O270 1.920 . S
Co239 O242 1.966 . S
Co239 N248 2.022 . S
Co239 N256 1.993 . S
Co239 O264 1.941 . S
C240 O241 1.258 . S
C240 O242 1.263 . S
O241 Co238 1.970 . S
O241 C240 1.258 . S
O242 Co239 1.966 . S
O242 C240 1.263 . S
C243 O244 1.235 . S
C243 O270 1.289 . S
O244 C243 1.235 . S
C245 C247 1.400 . S
C245 N248 1.351 . S
C245 C250 1.501 . S
C246 C247 1.387 . S
C246 N249 1.341 . S
C247 C245 1.400 . S
C247 C246 1.387 . S
N248 Co239 2.022 . S
N248 C245 1.351 . S
N248 N249 1.365 . S
N249 C246 1.341 . S
N249 N248 1.365 . S
N249 H269 0.862 . S
C250 C245 1.501 . S
C250 H251 0.961 . S
C250 H252 0.961 . S
C250 H253 0.960 . S
H251 C250 0.961 . S
H252 C250 0.961 . S
H253 C250 0.960 . S
C254 N255 1.342 1_565 S
C254 C258 1.401 . S
C254 C259 1.499 . S
N255 Co238 1.989 . S
N255 C254 1.342 1_545 S
N255 N256 1.388 . S
N256 Co239 1.993 . S
N256 N255 1.388 . S
N256 C257 1.346 1_545 S
C257 N256 1.346 1_565 S
C257 C258 1.396 . S
C257 C267 1.510 . S
C258 C254 1.401 . S
C258 C257 1.396 . S
C259 C254 1.499 . S
C259 H260 0.959 . S
C259 H261 0.960 . S
C259 H262 0.961 . S
H260 C259 0.959 . S
H261 C259 0.960 . S
H262 C259 0.961 . S
O263 Co238 1.967 . S
O263 C271 1.258 . S
O264 Co239 1.941 . S
O264 C271 1.266 . S
H265 C267 0.959 . S
H266 C267 0.961 . S
C267 C257 1.510 . S
C267 H265 0.959 . S
C267 H266 0.961 . S
C267 H268 0.960 . S
H268 C267 0.960 . S
H269 N249 0.862 . S
O270 Co238 1.920 . S
O270 C243 1.289 . S
C271 O263 1.258 . S
C271 O264 1.266 . S
C272 C273 1.369 . S
C272 C274 1.419 . S
C272 H276 0.930 . S
C273 C272 1.369 . S
C273 C282 1.429 1_455 S
C274 C272 1.419 . S
C274 C275 1.363 . S
C274 H277 0.929 . S
C275 C274 1.363 . S
C275 C281 1.428 1_455 S
H276 C272 0.930 . S
H277 C274 0.929 . S
S278 N279 1.613 . S
S278 N280 1.610 . S
N279 S278 1.613 . S
N279 C282 1.350 . S
N280 S278 1.610 . S
N280 C281 1.351 . S
C281 C275 1.428 1_655 S
C281 N280 1.351 . S
C281 C282 1.434 . S
C282 C273 1.429 1_655 S
C282 N279 1.350 . S
C282 C281 1.434 . S
C283 C284 1.369 1_656 S
C283 C285 1.419 1_655 S
C283 H287 0.930 . S
C284 C283 1.369 1_454 S
C284 C293 1.429 . S
C285 C283 1.419 1_455 S
C285 C286 1.363 . S
C285 H288 0.929 . S
C286 C285 1.363 . S
C286 C292 1.428 1_556 S
H287 C283 0.930 . S
H288 C285 0.929 . S
S289 N290 1.613 . S
S289 N291 1.610 . S
N290 S289 1.613 . S
N290 C293 1.350 . S
N291 S289 1.610 . S
N291 C292 1.351 . S
C292 C286 1.428 1_554 S
C292 N291 1.351 . S
C292 C293 1.434 . S
C293 C284 1.429 . S
C293 N290 1.350 . S
C293 C292 1.434 . S
C294 C295 1.369 . S
C294 C296 1.419 . S
C294 H298 0.930 . S
C295 C294 1.369 . S
C295 C304 1.429 . S
C296 C294 1.419 . S
C296 C297 1.363 . S
C296 H299 0.929 . S
C297 C296 1.363 . S
C297 C303 1.428 . S
H298 C294 0.930 . S
H299 C296 0.929 . S
S300 N301 1.613 . S
S300 N302 1.610 . S
N301 S300 1.613 . S
N301 C304 1.350 . S
N302 S300 1.610 . S
N302 C303 1.351 . S
C303 C297 1.428 . S
C303 N302 1.351 . S
C303 C304 1.434 . S
C304 C295 1.429 . S
C304 N301 1.350 . S
C304 C303 1.434 . S
C305 C306 1.369 1_565 S
C305 C307 1.419 1_556 S
C305 H309 0.930 . S
C306 C305 1.369 1_545 S
C306 C315 1.429 . S
C307 C305 1.419 1_554 S
C307 C308 1.351 1_565 S
C307 H310 0.941 . S
C308 C307 1.351 1_545 S
C308 C314 1.428 . S
H309 C305 0.930 . S
H310 C307 0.941 . S
S311 N312 1.613 1_554 S
S311 N313 1.610 . S
N312 S311 1.613 1_556 S
N312 C315 1.350 . S
N313 S311 1.610 . S
N313 C314 1.351 . S
C314 C308 1.428 . S
C314 N313 1.351 . S
C314 C315 1.434 1_554 S
C315 C306 1.429 . S
C315 N312 1.350 . S
C315 C314 1.434 1_556 S
C316 C317 1.369 . S
C316 C318 1.419 . S
C316 H320 0.930 . S
C317 C316 1.369 . S
C317 C326 1.429 . S
C318 C316 1.419 . S
C318 C319 1.363 . S
C318 H321 0.929 . S
C319 C318 1.363 . S
C319 C325 1.428 . S
H320 C316 0.930 . S
H321 C318 0.929 . S
S322 N323 1.613 . S
S322 N324 1.610 . S
N323 S322 1.613 . S
N323 C326 1.350 . S
N324 S322 1.610 . S
N324 C325 1.351 . S
C325 C319 1.428 . S
C325 N324 1.351 . S
C325 C326 1.434 . S
C326 C317 1.429 . S
C326 N323 1.350 . S
C326 C325 1.434 . S
C327 C328 1.369 . S
C327 C329 1.419 1_455 S
C327 H331 0.930 . S
C328 C327 1.369 . S
C328 C337 1.429 1_455 S
C329 C327 1.419 1_655 S
C329 C330 1.363 . S
C329 H332 0.929 . S
C330 C329 1.363 . S
C330 C336 1.428 . S
H331 C327 0.930 . S
H332 C329 0.929 . S
S333 N334 1.613 . S
S333 N335 1.610 . S
N334 S333 1.613 . S
N334 C337 1.350 . S
N335 S333 1.610 . S
N335 C336 1.351 . S
C336 C330 1.428 . S
C336 N335 1.351 . S
C336 C337 1.434 . S
C337 C328 1.429 1_655 S
C337 N334 1.350 . S
C337 C336 1.434 . S
C338 C339 1.369 . S
C338 C340 1.419 . S
C338 H342 0.930 . S
C339 C338 1.369 . S
C339 C348 1.429 . S
C340 C338 1.419 . S
C340 C341 1.363 . S
C340 H343 0.929 . S
C341 C340 1.363 . S
C341 C347 1.428 . S
H342 C338 0.930 . S
H343 C340 0.929 . S
S344 N345 1.613 . S
S344 N346 1.610 . S
N345 S344 1.613 . S
N345 C348 1.350 . S
N346 S344 1.610 . S
N346 C347 1.351 . S
C347 C341 1.428 . S
C347 N346 1.351 . S
C347 C348 1.434 . S
C348 C339 1.429 . S
C348 N345 1.350 . S
C348 C347 1.434 . S
C349 C350 1.369 . S
C349 C351 1.419 . S
C349 H353 0.930 1_565 S
C350 C349 1.369 . S
C350 C359 1.429 . S
C351 C349 1.419 . S
C351 C352 1.363 . S
C351 H354 0.929 1_565 S
C352 C351 1.363 . S
C352 C358 1.428 . S
H353 C349 0.930 1_545 S
H354 C351 0.929 1_545 S
S355 N356 1.613 . S
S355 N357 1.610 . S
N356 S355 1.613 . S
N356 C359 1.350 . S
N357 S355 1.610 . S
N357 C358 1.351 . S
C358 C352 1.428 . S
C358 N357 1.351 . S
C358 C359 1.434 . S
C359 C350 1.429 . S
C359 N356 1.350 . S
C359 C358 1.434 . S
C360 C361 1.369 1_545 S
C360 C362 1.419 . S
C360 H364 0.930 1_655 S
C361 C360 1.369 1_565 S
C361 C370 1.429 . S
C362 C360 1.419 . S
C362 C363 1.363 . S
C362 H365 0.929 . S
C363 C362 1.363 . S
C363 C369 1.428 1_545 S
H364 C360 0.930 1_455 S
H365 C362 0.929 . S
S366 N367 1.613 . S
S366 N368 1.610 . S
N367 S366 1.613 . S
N367 C370 1.350 . S
N368 S366 1.610 . S
N368 C369 1.351 . S
C369 C363 1.428 1_565 S
C369 N368 1.351 . S
C369 C370 1.434 . S
C370 C361 1.429 . S
C370 N367 1.350 . S
C370 C369 1.434 . S
C371 C372 1.369 . S
C371 C373 1.419 . S
C371 H375 0.930 . S
C372 C371 1.369 . S
C372 C381 1.429 . S
C373 C371 1.419 . S
C373 C374 1.363 . S
C373 H376 0.929 . S
C374 C373 1.363 . S
C374 C380 1.428 . S
H375 C371 0.930 . S
H376 C373 0.929 . S
S377 N378 1.613 1_655 S
S377 N379 1.610 . S
N378 S377 1.613 1_455 S
N378 C381 1.350 . S
N379 S377 1.610 . S
N379 C380 1.351 1_655 S
C380 C374 1.428 . S
C380 N379 1.351 1_455 S
C380 C381 1.434 . S
C381 C372 1.429 . S
C381 N378 1.350 . S
C381 C380 1.434 . S
C382 C383 1.369 . S
C382 C384 1.419 . S
C382 H386 0.930 . S
C383 C382 1.369 . S
C383 C392 1.429 . S
C384 C382 1.419 . S
C384 C385 1.363 . S
C384 H387 0.929 . S
C385 C384 1.363 . S
C385 C391 1.428 . S
H386 C382 0.930 . S
H387 C384 0.929 . S
S388 N389 1.613 . S
S388 N390 1.610 . S
N389 S388 1.613 . S
N389 C392 1.350 . S
N390 S388 1.610 . S
N390 C391 1.351 . S
C391 C385 1.428 . S
C391 N390 1.351 . S
C391 C392 1.434 . S
C392 C383 1.429 . S
C392 N389 1.350 . S
C392 C391 1.434 . S
C393 C394 1.369 . S
C393 C395 1.419 . S
C393 H397 0.930 . S
C394 C393 1.369 . S
C394 C403 1.429 . S
C395 C393 1.419 . S
C395 C396 1.363 . S
C395 H398 0.929 . S
C396 C395 1.363 . S
C396 C402 1.428 . S
H397 C393 0.930 . S
H398 C395 0.929 . S
S399 N400 1.613 . S
S399 N401 1.610 . S
N400 S399 1.613 . S
N400 C403 1.350 . S
N401 S399 1.610 . S
N401 C402 1.351 . S
C402 C396 1.428 . S
C402 N401 1.351 . S
C402 C403 1.434 . S
C403 C394 1.429 . S
C403 N400 1.350 . S
C403 C402 1.434 . S
C404 C405 1.369 . S
C404 C406 1.419 . S
C404 H408 0.930 . S
C405 C404 1.369 . S
C405 C414 1.429 . S
C406 C404 1.419 . S
C406 C407 1.363 . S
C406 H409 0.929 . S
C407 C406 1.363 . S
C407 C413 1.428 . S
H408 C404 0.930 . S
H409 C406 0.929 . S
S410 N411 1.613 . S
S410 N412 1.610 . S
N411 S410 1.613 . S
N411 C414 1.350 . S
N412 S410 1.610 . S
N412 C413 1.351 . S
C413 C407 1.428 . S
C413 N412 1.351 . S
C413 C414 1.434 . S
C414 C405 1.429 . S
C414 N411 1.350 . S
C414 C413 1.434 . S
C415 C416 1.369 . S
C415 C417 1.419 . S
C415 H419 0.930 . S
C416 C415 1.369 . S
C416 C425 1.429 . S
C417 C415 1.419 . S
C417 C418 1.363 . S
C417 H420 0.929 . S
C418 C417 1.363 . S
C418 C424 1.428 . S
H419 C415 0.930 . S
H420 C417 0.929 . S
S421 N422 1.613 . S
S421 N423 1.610 . S
N422 S421 1.613 . S
N422 C425 1.350 . S
N423 S421 1.610 . S
N423 C424 1.351 . S
C424 C418 1.428 . S
C424 N423 1.351 . S
C424 C425 1.434 . S
C425 C416 1.429 . S
C425 N422 1.350 . S
C425 C424 1.434 . S
C426 C427 1.369 . S
C426 C428 1.419 . S
C426 H430 0.930 . S
C427 C426 1.369 . S
C427 C436 1.429 . S
C428 C426 1.419 . S
C428 C429 1.363 . S
C428 H431 0.929 . S
C429 C428 1.363 . S
C429 C435 1.428 . S
H430 C426 0.930 . S
H431 C428 0.929 . S
S432 N433 1.613 . S
S432 N434 1.610 . S
N433 S432 1.613 . S
N433 C436 1.350 . S
N434 S432 1.610 . S
N434 C435 1.351 . S
C435 C429 1.428 . S
C435 N434 1.351 . S
C435 C436 1.434 . S
C436 C427 1.429 . S
C436 N433 1.350 . S
C436 C435 1.434 . S
C437 C438 1.369 . S
C437 C439 1.419 . S
C437 H441 0.930 . S
C438 C437 1.369 . S
C438 C447 1.429 . S
C439 C437 1.419 . S
C439 C440 1.363 . S
C439 H442 0.929 . S
C440 C439 1.363 . S
C440 C446 1.428 . S
H441 C437 0.930 . S
H442 C439 0.929 . S
S443 N444 1.613 . S
S443 N445 1.610 . S
N444 S443 1.613 . S
N444 C447 1.350 . S
N445 S443 1.610 . S
N445 C446 1.351 . S
C446 C440 1.428 . S
C446 N445 1.351 . S
C446 C447 1.434 . S
C447 C438 1.429 . S
C447 N444 1.350 . S
C447 C446 1.434 . S
C448 C449 1.369 . S
C448 C450 1.419 . S
C448 H452 0.930 . S
C449 C448 1.369 . S
C449 C458 1.429 . S
C450 C448 1.419 . S
C450 C451 1.363 . S
C450 H453 0.929 . S
C451 C450 1.363 . S
C451 C457 1.428 . S
H452 C448 0.930 . S
H453 C450 0.929 . S
S454 N455 1.613 . S
S454 N456 1.610 . S
N455 S454 1.613 . S
N455 C458 1.350 . S
N456 S454 1.610 . S
N456 C457 1.351 . S
C457 C451 1.428 . S
C457 N456 1.351 . S
C457 C458 1.434 . S
C458 C449 1.429 . S
C458 N455 1.350 . S
C458 C457 1.434 . S
C459 C460 1.369 . S
C459 C461 1.419 . S
C459 H463 0.930 . S
C460 C459 1.369 . S
C460 C469 1.429 . S
C461 C459 1.419 . S
C461 C462 1.363 . S
C461 H464 0.929 . S
C462 C461 1.363 . S
C462 C468 1.428 . S
H463 C459 0.930 . S
H464 C461 0.929 . S
S465 N466 1.613 . S
S465 N467 1.610 . S
N466 S465 1.613 . S
N466 C469 1.350 . S
N467 S465 1.610 . S
N467 C468 1.351 . S
C468 C462 1.428 . S
C468 N467 1.351 . S
C468 C469 1.434 . S
C469 C460 1.429 . S
C469 N466 1.350 . S
C469 C468 1.434 . S
C470 C471 1.369 . S
C470 C472 1.419 . S
C470 H474 0.930 . S
C471 C470 1.369 . S
C471 C480 1.429 . S
C472 C470 1.419 . S
C472 C473 1.363 . S
C472 H475 0.929 . S
C473 C472 1.363 . S
C473 C479 1.428 . S
H474 C470 0.930 . S
H475 C472 0.929 . S
S476 N477 1.613 . S
S476 N478 1.610 . S
N477 S476 1.613 . S
N477 C480 1.350 . S
N478 S476 1.610 . S
N478 C479 1.351 . S
C479 C473 1.428 . S
C479 N478 1.351 . S
C479 C480 1.434 . S
C480 C471 1.429 . S
C480 N477 1.350 . S
C480 C479 1.434 . S
C481 C482 1.369 . S
C481 C483 1.419 . S
C481 H485 0.930 . S
C482 C481 1.369 . S
C482 C491 1.429 . S
C483 C481 1.419 . S
C483 C484 1.363 . S
C483 H486 0.929 . S
C484 C483 1.363 . S
C484 C490 1.428 . S
H485 C481 0.930 . S
H486 C483 0.929 . S
S487 N488 1.613 . S
S487 N489 1.610 . S
N488 S487 1.613 . S
N488 C491 1.350 . S
N489 S487 1.610 . S
N489 C490 1.351 . S
C490 C484 1.428 . S
C490 N489 1.351 . S
C490 C491 1.434 . S
C491 C482 1.429 . S
C491 N488 1.350 . S
C491 C490 1.434 . S
C273 C145 1.449 1_545 S
C275 C9 1.454 . S
C284 C43 1.447 1_455 S
C286 C179 1.456 . S
C295 C77 1.451 . S
C297 C213 1.453 . S
C306 C247 1.450 . S
C308 C111 1.453 . S
C317 C243 1.039 . S
C319 C33 1.054 . S
C328 C141 1.028 . S
C330 C67 1.052 . S
C339 C175 1.039 . S
C341 C101 1.054 . S
C350 C209 1.030 . S
C352 C135 1.053 . S
C361 C169 1.050 . S
C363 C107 1.029 . S
C372 C203 1.055 . S
C374 C5 1.037 . S
C383 C237 1.053 . S
C385 C39 1.031 . S
C394 C271 1.050 . S
C396 C73 1.030 . S
C405 C20 1.325 . S
C407 C88 1.325 . S
C416 C54 1.324 . S
C418 C122 1.324 . S
C427 C224 1.325 . S
C429 C156 1.325 . S
C438 C258 1.324 . S
C440 C190 1.324 . S
C449 C70 1.443 . S
C451 C2 1.446 . S
C460 C36 1.444 . S
C462 C104 1.447 . S
C471 C206 1.448 . S
C473 C138 1.446 . S
C482 C240 1.448 . S
C484 C172 1.449 . S
