# Generated by pormake.
# Topology uob, (4)-cn, num edge types: 1
# Building blocks:
#     Node 0, Type 0, BuildingBlock: CEKHIL_clean_sbu_0, # of connection points: 4
#     Node 1, Type 0, BuildingBlock: CEKHIL_clean_sbu_0, # of connection points: 4
#     Node 2, Type 0, BuildingBlock: CEKHIL_clean_sbu_0, # of connection points: 4
#     Node 3, Type 0, BuildingBlock: CEKHIL_clean_sbu_0, # of connection points: 4
#     Node 4, Type 0, BuildingBlock: CEKHIL_clean_sbu_0, # of connection points: 4
#     Node 5, Type 0, BuildingBlock: CEKHIL_clean_sbu_0, # of connection points: 4
#     Node 6, Type 0, BuildingBlock: CEKHIL_clean_sbu_0, # of connection points: 4
#     Node 7, Type 0, BuildingBlock: CEKHIL_clean_sbu_0, # of connection points: 4
#     Node 8, Type 0, BuildingBlock: CEKHIL_clean_sbu_0, # of connection points: 4
#     Node 9, Type 0, BuildingBlock: CEKHIL_clean_sbu_0, # of connection points: 4
#     Node 10, Type 0, BuildingBlock: CEKHIL_clean_sbu_0, # of connection points: 4
#     Node 11, Type 0, BuildingBlock: CEKHIL_clean_sbu_0, # of connection points: 4
#     Node 12, Type 0, BuildingBlock: CEKHIL_clean_sbu_0, # of connection points: 4
#     Node 13, Type 0, BuildingBlock: CEKHIL_clean_sbu_0, # of connection points: 4
#     Node 14, Type 0, BuildingBlock: CEKHIL_clean_sbu_0, # of connection points: 4
#     Node 15, Type 0, BuildingBlock: CEKHIL_clean_sbu_0, # of connection points: 4
#     Edge 16, Type (0, 0), BuildingBlock: TEMPAE_clean_linker_10, # of connection points: 2
#     Edge 17, Type (0, 0), BuildingBlock: TEMPAE_clean_linker_10, # of connection points: 2
#     Edge 18, Type (0, 0), BuildingBlock: TEMPAE_clean_linker_10, # of connection points: 2
#     Edge 19, Type (0, 0), BuildingBlock: TEMPAE_clean_linker_10, # of connection points: 2
#     Edge 20, Type (0, 0), BuildingBlock: TEMPAE_clean_linker_10, # of connection points: 2
#     Edge 21, Type (0, 0), BuildingBlock: TEMPAE_clean_linker_10, # of connection points: 2
#     Edge 22, Type (0, 0), BuildingBlock: TEMPAE_clean_linker_10, # of connection points: 2
#     Edge 23, Type (0, 0), BuildingBlock: TEMPAE_clean_linker_10, # of connection points: 2
#     Edge 24, Type (0, 0), BuildingBlock: TEMPAE_clean_linker_10, # of connection points: 2
#     Edge 25, Type (0, 0), BuildingBlock: TEMPAE_clean_linker_10, # of connection points: 2
#     Edge 26, Type (0, 0), BuildingBlock: TEMPAE_clean_linker_10, # of connection points: 2
#     Edge 27, Type (0, 0), BuildingBlock: TEMPAE_clean_linker_10, # of connection points: 2
#     Edge 28, Type (0, 0), BuildingBlock: TEMPAE_clean_linker_10, # of connection points: 2
#     Edge 29, Type (0, 0), BuildingBlock: TEMPAE_clean_linker_10, # of connection points: 2
#     Edge 30, Type (0, 0), BuildingBlock: TEMPAE_clean_linker_10, # of connection points: 2
#     Edge 31, Type (0, 0), BuildingBlock: TEMPAE_clean_linker_10, # of connection points: 2
#     Edge 32, Type (0, 0), BuildingBlock: TEMPAE_clean_linker_10, # of connection points: 2
#     Edge 33, Type (0, 0), BuildingBlock: TEMPAE_clean_linker_10, # of connection points: 2
#     Edge 34, Type (0, 0), BuildingBlock: TEMPAE_clean_linker_10, # of connection points: 2
#     Edge 35, Type (0, 0), BuildingBlock: TEMPAE_clean_linker_10, # of connection points: 2
#     Edge 36, Type (0, 0), BuildingBlock: TEMPAE_clean_linker_10, # of connection points: 2
#     Edge 37, Type (0, 0), BuildingBlock: TEMPAE_clean_linker_10, # of connection points: 2
#     Edge 38, Type (0, 0), BuildingBlock: TEMPAE_clean_linker_10, # of connection points: 2
#     Edge 39, Type (0, 0), BuildingBlock: TEMPAE_clean_linker_10, # of connection points: 2
#     Edge 40, Type (0, 0), BuildingBlock: TEMPAE_clean_linker_10, # of connection points: 2
#     Edge 41, Type (0, 0), BuildingBlock: TEMPAE_clean_linker_10, # of connection points: 2
#     Edge 42, Type (0, 0), BuildingBlock: TEMPAE_clean_linker_10, # of connection points: 2
#     Edge 43, Type (0, 0), BuildingBlock: TEMPAE_clean_linker_10, # of connection points: 2
#     Edge 44, Type (0, 0), BuildingBlock: TEMPAE_clean_linker_10, # of connection points: 2
#     Edge 45, Type (0, 0), BuildingBlock: TEMPAE_clean_linker_10, # of connection points: 2
#     Edge 46, Type (0, 0), BuildingBlock: TEMPAE_clean_linker_10, # of connection points: 2
#     Edge 47, Type (0, 0), BuildingBlock: TEMPAE_clean_linker_10, # of connection points: 2
# Relax obj value: 0.172
# Max RMSD: 0.200
# Mean RMSD: 0.200
data_MOF--net-uob--node1-CEKHIL_clean_sbu_0--edge1-TEMPAE_clean_linker_10
_symmetry_space_group_name_H-M    P1
_symmetry_Int_Tables_number       1
_symmetry_cell_setting            triclinic
loop_
_symmetry_equiv_pos_as_xyz
'x, y, z'
_cell_length_a     53.494408
_cell_length_b     53.36074
_cell_length_c     26.974358
_cell_angle_alpha  90.021019
_cell_angle_beta   89.983139
_cell_angle_gamma 90.030677
loop_
_atom_site_label
_atom_site_type_symbol
_atom_site_fract_x
_atom_site_fract_y
_atom_site_fract_z
_atom_type_partial_charge
Co0 Co 0.14402 0.06738 0.27314 0.0
O1 O 0.17956 0.07276 0.27655 0.0
O2 O 0.16013 0.03983 0.308 0.0
C3 C 0.13847 0.0783 0.19329 0.0
O4 O 0.10764 0.05554 0.27515 0.0
Co5 Co 0.10928 0.11325 0.25276 0.0
O6 O 0.08329 0.08676 0.24636 0.0
C7 C 0.13324 0.10783 0.34959 0.0
C8 C 0.18096 0.05214 0.30186 0.0
C9 C 0.08625 0.06422 0.26111 0.0
O10 O 0.13976 0.08541 0.33793 0.0
O11 O 0.12322 0.12314 0.31899 0.0
O12 O 0.14622 0.0558 0.20404 0.0
O13 O 0.13738 0.09363 0.23004 0.0
Co14 Co 0.94726 0.64645 0.51662 0.0
O15 O 0.94063 0.68172 0.52203 0.0
O16 O 0.97425 0.66315 0.55224 0.0
C17 C 0.93692 0.64191 0.43648 0.0
O18 O 0.96016 0.61028 0.51633 0.0
Co19 Co 0.90263 0.61064 0.49306 0.0
O20 O 0.93005 0.58604 0.48278 0.0
C21 C 0.90711 0.63289 0.59199 0.0
C22 C 0.96123 0.68363 0.54706 0.0
C23 C 0.95229 0.58916 0.4988 0.0
O24 O 0.92916 0.64069 0.58088 0.0
O25 O 0.89241 0.62256 0.5606 0.0
O26 O 0.95908 0.65009 0.44816 0.0
O27 O 0.92141 0.63977 0.47271 0.0
Co28 Co 0.37339 0.45597 0.7728 0.0
O29 O 0.33777 0.45098 0.77456 0.0
O30 O 0.35723 0.48443 0.80398 0.0
C31 C 0.38055 0.44313 0.69465 0.0
O32 O 0.40966 0.46771 0.77595 0.0
Co33 Co 0.40808 0.40937 0.76035 0.0
O34 O 0.4352 0.43484 0.76124 0.0
C35 C 0.38156 0.41719 0.85359 0.0
C36 C 0.33638 0.47215 0.79814 0.0
C37 C 0.43153 0.45804 0.7699 0.0
O38 O 0.37629 0.43959 0.83963 0.0
O39 O 0.39166 0.40096 0.82503 0.0
O40 O 0.37246 0.46581 0.70268 0.0
O41 O 0.38076 0.42863 0.73278 0.0
Co42 Co 0.56851 0.87541 0.01857 0.0
O43 O 0.57444 0.83989 0.02244 0.0
O44 O 0.54253 0.85925 0.05767 0.0
C45 C 0.57638 0.87978 0.93741 0.0
O46 O 0.55607 0.91177 0.02099 0.0
Co47 Co 0.61166 0.91183 -0.01198 0.0
O48 O 0.5835 0.93555 0.97846 0.0
C49 C 0.61084 0.89002 0.08799 0.0
C50 C 0.55471 0.83844 0.05028 0.0
C51 C 0.56246 0.93253 -0.00016 0.0
O52 O 0.58922 0.88035 0.07981 0.0
O53 O 0.62345 0.90228 0.05584 0.0
O54 O 0.55437 0.87225 0.95174 0.0
O55 O 0.59296 0.88194 0.97165 0.0
Co56 Co 0.14529 0.45318 0.02874 0.0
O57 O 0.18088 0.44786 0.02773 0.0
O58 O 0.16197 0.48179 -0.00076 0.0
C59 C 0.13728 0.43985 0.10619 0.0
O60 O 0.10919 0.46535 0.02506 0.0
Co61 Co 0.10992 0.40691 0.03843 0.0
O62 O 0.08318 0.43276 0.03937 0.0
C63 C 0.13713 0.41533 0.94607 0.0
C64 C 0.18265 0.46928 0.00512 0.0
C65 C 0.08721 0.45595 0.03119 0.0
O66 O 0.14272 0.43746 0.96122 0.0
O67 O 0.12646 0.39899 0.97359 0.0
O68 O 0.14582 0.46244 0.0991 0.0
O69 O 0.13725 0.42558 0.06766 0.0
Co70 Co 0.56677 0.64592 0.28754 0.0
O71 O 0.57228 0.68139 0.28138 0.0
O72 O 0.54001 0.66129 0.24914 0.0
C73 C 0.576 0.64281 0.36855 0.0
O74 O 0.55492 0.60939 0.28826 0.0
Co75 Co 0.61174 0.61155 0.31566 0.0
O76 O 0.58486 0.58623 0.32504 0.0
C77 C 0.60829 0.63215 0.21517 0.0
C78 C 0.55211 0.68231 0.25482 0.0
C79 C 0.56292 0.58863 0.30706 0.0
O80 O 0.58609 0.64001 0.22478 0.0
O81 O 0.62266 0.62238 0.24778 0.0
O82 O 0.55373 0.64993 0.35512 0.0
O83 O 0.59208 0.64056 0.33335 0.0
Co84 Co 0.37572 0.06867 0.52619 0.0
O85 O 0.34016 0.0743 0.52553 0.0
O86 O 0.35866 0.04079 0.49431 0.0
C87 C 0.38331 0.08054 0.60495 0.0
O88 O 0.41192 0.05642 0.52169 0.0
Co89 Co 0.41142 0.11437 0.54092 0.0
O90 O 0.43704 0.08764 0.54805 0.0
C91 C 0.38492 0.10805 0.44679 0.0
C92 C 0.33807 0.05334 0.50144 0.0
C93 C 0.43358 0.06498 0.53446 0.0
O94 O 0.37858 0.08581 0.4601 0.0
O95 O 0.39595 0.12354 0.47568 0.0
O96 O 0.3749 0.05807 0.59599 0.0
O97 O 0.38369 0.0954 0.56738 0.0
Co98 Co 0.95213 0.87697 0.77732 0.0
O99 O 0.94881 0.84113 0.77329 0.0
O100 O 0.97884 0.86298 0.73696 0.0
C101 C 0.94455 0.88071 0.85878 0.0
O102 O 0.9618 0.91408 0.77534 0.0
Co103 Co 0.90594 0.90924 0.80841 0.0
O104 O 0.93133 0.93636 0.81246 0.0
C105 C 0.90824 0.88763 0.70881 0.0
C106 C 0.96834 0.84129 0.74478 0.0
C107 C 0.953 0.9348 0.79298 0.0
O108 O 0.93095 0.88083 0.71637 0.0
O109 O 0.89426 0.89769 0.74168 0.0
O110 O 0.9669 0.87469 0.84378 0.0
O111 O 0.9276 0.88149 0.825 0.0
Co112 Co 0.64523 0.56655 0.7748 0.0
O113 O 0.68084 0.57164 0.77555 0.0
O114 O 0.66174 0.53779 0.80404 0.0
C115 C 0.63729 0.57998 0.69743 0.0
O116 O 0.60901 0.55466 0.77861 0.0
Co117 Co 0.61035 0.61316 0.76549 0.0
O118 O 0.58332 0.5876 0.76573 0.0
C119 C 0.63777 0.60455 0.85739 0.0
C120 C 0.68251 0.55017 0.79794 0.0
C121 C 0.58709 0.56432 0.77336 0.0
O122 O 0.64287 0.58228 0.84241 0.0
O123 O 0.62739 0.62103 0.8298 0.0
O124 O 0.64563 0.55732 0.70443 0.0
O125 O 0.6374 0.59423 0.73598 0.0
Co126 Co 0.45515 0.14725 0.01542 0.0
O127 O 0.45134 0.18308 0.01899 0.0
O128 O 0.48266 0.16208 0.05256 0.0
C129 C 0.44548 0.14258 0.93476 0.0
O130 O 0.46531 0.11027 0.0175 0.0
Co131 Co 0.40831 0.1146 -0.00871 0.0
O132 O 0.43356 0.08736 0.9865 0.0
C133 C 0.41331 0.1372 0.0896 0.0
C134 C 0.47147 0.1835 0.04574 0.0
C135 C 0.4559 0.08924 0.0027 0.0
O136 O 0.43587 0.14353 0.07891 0.0
O137 O 0.39819 0.12765 0.05807 0.0
O138 O 0.46806 0.14917 0.94731 0.0
O139 O 0.42945 0.142 0.9703 0.0
Co140 Co 0.87746 0.94356 0.27389 0.0
O141 O 0.84211 0.93665 0.27452 0.0
O142 O 0.85971 0.96981 0.30922 0.0
C143 C 0.88492 0.93436 0.19402 0.0
O144 O 0.91326 0.95714 0.27899 0.0
Co145 Co 0.91534 0.90036 0.25244 0.0
O146 O 0.9388 0.92883 0.24323 0.0
C147 C 0.88995 0.9027 0.34868 0.0
C148 C 0.83951 0.95683 0.30092 0.0
C149 C 0.9347 0.95055 0.26122 0.0
O150 O 0.8811 0.92436 0.33747 0.0
O151 O 0.9028 0.88925 0.31881 0.0
O152 O 0.87584 0.95624 0.20567 0.0
O153 O 0.88617 0.91841 0.22973 0.0
Co154 Co 0.0644 0.3765 0.51632 0.0
O155 O 0.0695 0.34102 0.52367 0.0
O156 O 0.03743 0.36176 0.5551 0.0
C157 C 0.07386 0.37896 0.43524 0.0
O158 O 0.0529 0.41308 0.51461 0.0
Co159 Co 0.10966 0.41041 0.48747 0.0
O160 O 0.08309 0.43606 0.47815 0.0
C161 C 0.10606 0.39019 0.58821 0.0
C162 C 0.04933 0.34058 0.55034 0.0
C163 C 0.0611 0.4338 0.49595 0.0
O164 O 0.0837 0.38269 0.57895 0.0
O165 O 0.12056 0.39954 0.55532 0.0
O166 O 0.05148 0.37213 0.44867 0.0
O167 O 0.08985 0.38135 0.47055 0.0
Co168 Co 0.64189 0.94404 0.52284 0.0
O169 O 0.67725 0.93728 0.52154 0.0
O170 O 0.65938 0.97026 0.48687 0.0
C171 C 0.63493 0.93499 0.60291 0.0
O172 O 0.60601 0.95744 0.51835 0.0
Co173 Co 0.60424 0.90072 0.54586 0.0
O174 O 0.58062 0.92905 0.55434 0.0
C175 C 0.62832 0.90335 0.44837 0.0
C176 C 0.67966 0.95738 0.49491 0.0
C177 C 0.58457 0.95073 0.53605 0.0
O178 O 0.63792 0.92469 0.45952 0.0
O179 O 0.61534 0.89007 0.47828 0.0
O180 O 0.64385 0.95689 0.59094 0.0
O181 O 0.63354 0.91897 0.56735 0.0
Co182 Co 0.0658 0.14821 0.78448 0.0
O183 O 0.0718 0.18379 0.78285 0.0
O184 O 0.03841 0.1653 0.75134 0.0
C185 C 0.07702 0.14137 0.86378 0.0
O186 O 0.05317 0.11206 0.78056 0.0
Co187 Co 0.11044 0.11167 0.80259 0.0
O188 O 0.08302 0.08692 0.81223 0.0
C189 C 0.10548 0.13728 0.70677 0.0
C190 C 0.05107 0.18587 0.75818 0.0
C191 C 0.06087 0.09057 0.79628 0.0
O192 O 0.08348 0.14463 0.71919 0.0
O193 O 0.12025 0.12585 0.73648 0.0
O194 O 0.05468 0.14968 0.85391 0.0
O195 O 0.09208 0.14037 0.82663 0.0
Co196 Co 0.87302 0.5625 0.02906 0.0
O197 O 0.83737 0.56692 0.02721 0.0
O198 O 0.85737 0.53396 -0.00295 0.0
C199 C 0.87966 0.57499 0.10754 0.0
O200 O 0.90952 0.55146 0.02599 0.0
Co201 Co 0.90683 0.60967 0.0431 0.0
O202 O 0.93431 0.58462 0.04292 0.0
C203 C 0.88063 0.60201 0.94949 0.0
C204 C 0.83633 0.54586 0.00318 0.0
C205 C 0.93118 0.56143 0.0332 0.0
O206 O 0.87582 0.57938 0.96272 0.0
O207 O 0.89033 0.61825 0.97859 0.0
O208 O 0.87203 0.5522 0.09892 0.0
O209 O 0.87978 0.5897 0.06974 0.0
Co210 Co 0.45145 0.37483 0.28541 0.0
O211 O 0.44568 0.3394 0.27884 0.0
O212 O 0.47866 0.35911 0.24867 0.0
C213 C 0.44115 0.37839 0.36593 0.0
O214 O 0.46358 0.41129 0.28667 0.0
Co215 Co 0.40623 0.40953 0.31094 0.0
O216 O 0.4331 0.43479 0.32088 0.0
C217 C 0.41077 0.38825 0.21119 0.0
C218 C 0.46619 0.33824 0.25331 0.0
C219 C 0.45534 0.4322 0.30448 0.0
O220 O 0.433 0.38077 0.22162 0.0
O221 O 0.396 0.39797 0.24318 0.0
O222 O 0.46349 0.37087 0.35377 0.0
O223 O 0.42558 0.38054 0.32985 0.0
C224 C 0.31272 0.02734 0.44177 0.0
C225 C 0.31392 0.04624 0.4779 0.0
C226 C 0.29087 0.02361 0.41345 0.0
C227 C 0.26977 0.03919 0.42135 0.0
C228 C 0.27043 0.05721 0.45992 0.0
C229 C 0.29242 0.06048 0.48763 0.0
C230 C 0.29088 1.00397 0.37321 0.0
C231 C 0.24841 0.07418 0.46997 0.0
C232 C 0.22671 0.05822 0.31598 0.0
C233 C 0.20463 0.0452 0.32733 0.0
C234 C 0.2484 0.05532 0.3447 0.0
C235 C 0.24816 0.03897 0.38607 0.0
C236 C 0.22641 0.02462 0.39602 0.0
C237 C 0.20488 0.0279 0.36652 0.0
C238 C 0.27115 0.07091 0.33238 0.0
C239 C 0.22541 1.00683 0.43943 0.0
H240 H 0.32921 0.01621 0.43398 0.0
H241 H 0.29305 0.07502 0.51568 0.0
H242 H 0.27335 0.99286 0.37428 0.0
H243 H 0.29179 0.01326 0.33646 0.0
H244 H 0.30705 0.99102 0.37652 0.0
H245 H 0.25102 0.08559 0.50405 0.0
H246 H 0.24575 0.08709 0.43815 0.0
H247 H 0.23103 0.06303 0.47392 0.0
H248 H 0.22679 0.07151 0.28559 0.0
H249 H 0.18792 0.01779 0.37565 0.0
H250 H 0.28801 0.05888 0.33008 0.0
H251 H 0.27442 0.08481 0.3623 0.0
H252 H 0.26905 0.08115 0.29676 0.0
H253 H 0.24242 0.99497 0.44056 0.0
H254 H 0.20869 0.99449 0.43802 0.0
H255 H 0.22481 0.01772 0.47446 0.0
C256 C 0.96988 0.79473 0.73868 0.0
C257 C 0.97594 0.81814 0.71841 0.0
C258 C 0.97221 0.77264 0.71073 0.0
C259 C 0.98035 0.774 0.66082 0.0
C260 C 0.98808 0.79743 0.64121 0.0
C261 C 0.98595 0.81923 0.67041 0.0
C262 C 0.96408 0.74812 0.73354 0.0
C263 C 0.99677 0.79978 0.5882 0.0
C264 C 0.9909 0.71126 0.5954 0.0
C265 C 0.96766 0.70753 0.5724 0.0
C266 C 0.99586 0.73333 0.62255 0.0
C267 C 0.97696 0.7518 0.62763 0.0
C268 C 0.95371 0.74828 0.60352 0.0
C269 C 0.94947 0.7264 0.57598 0.0
C270 C 0.02105 0.73663 0.6468 0.0
C271 C 0.93284 0.76722 0.60837 0.0
H272 H 0.9623 0.79377 0.77592 0.0
H273 H 0.99051 0.83731 0.65444 0.0
H274 H 0.9461 0.74213 0.71677 0.0
H275 H 0.978 0.73322 0.72588 0.0
H276 H 0.96148 0.74964 0.7743 0.0
H277 H 1.00585 0.81815 0.58101 0.0
H278 H 0.0101 0.78458 0.5788 0.0
H279 H 0.98048 0.79793 0.563 0.0
H280 H 1.00508 0.69683 0.59267 0.0
H281 H 0.9314 0.72371 0.55859 0.0
H282 H 0.01889 0.73634 0.6877 0.0
H283 H 0.02913 0.7551 0.63673 0.0
H284 H 0.03442 0.72169 0.63592 0.0
H285 H 0.92699 0.76866 0.64774 0.0
H286 H 0.91621 0.76215 0.58581 0.0
H287 H 0.93942 0.78602 0.59668 0.0
C288 C 0.2906 0.46682 0.81259 0.0
C289 C 0.31288 0.47951 0.82357 0.0
C290 C 0.26927 0.46966 0.84239 0.0
C291 C 0.2702 0.4855 0.88452 0.0
C292 C 0.29211 0.49968 0.89389 0.0
C293 C 0.31321 0.49655 0.86322 0.0
C294 C 0.24625 0.45437 0.83058 0.0
C295 C 0.29385 0.51692 0.93811 0.0
C296 C 0.20694 0.49635 0.94591 0.0
C297 C 0.20642 0.47686 0.98085 0.0
C298 C 0.22818 0.50048 0.91611 0.0
C299 C 0.24933 0.48472 0.92134 0.0
C300 C 0.24945 0.46613 0.95883 0.0
C301 C 0.22804 0.46246 -0.01194 0.0
C302 C 0.22739 0.52071 0.87707 0.0
C303 C 0.27163 0.44901 0.96606 0.0
H304 H 0.29012 0.45375 0.78182 0.0
H305 H 0.33037 0.50639 0.87207 0.0
H306 H 0.24353 0.43987 0.85959 0.0
H307 H 0.22938 0.46645 0.83056 0.0
H308 H 0.24765 0.44486 0.79403 0.0
H309 H 0.31039 0.52947 0.9359 0.0
H310 H 0.27675 0.52855 0.9414 0.0
H311 H 0.29536 0.50557 0.97243 0.0
H312 H 0.19033 0.50759 0.94007 0.0
H313 H 0.2279 0.44746 0.01517 0.0
H314 H 0.22556 0.51196 0.83992 0.0
H315 H 0.245 0.5317 0.87717 0.0
H316 H 0.21141 0.53369 0.88262 0.0
H317 H 0.27367 0.43662 0.93324 0.0
H318 H 0.26968 0.43706 -0.00044 0.0
H319 H 0.28909 0.4601 0.96938 0.0
C320 C 0.52842 0.81328 0.10993 0.0
C321 C 0.54832 0.81464 0.07609 0.0
C322 C 0.52445 0.79159 0.13876 0.0
C323 C 0.5409 0.7709 0.13397 0.0
C324 C 0.56029 0.77182 0.09823 0.0
C325 C 0.56367 0.79356 0.06972 0.0
C326 C 0.50335 0.79125 0.17587 0.0
C327 C 0.57837 0.75032 0.09188 0.0
C328 C 0.55697 0.72835 0.242 0.0
C329 C 0.5453 0.7058 0.2285 0.0
C330 C 0.55438 0.75008 0.21314 0.0
C331 C 0.5398 0.74934 0.16935 0.0
C332 C 0.5267 0.72706 0.15709 0.0
C333 C 0.52958 0.70552 0.18688 0.0
C334 C 0.56858 0.77339 0.22795 0.0
C335 C 0.51083 0.72551 0.11097 0.0
H336 H 0.51641 0.82943 0.11503 0.0
H337 H 0.57905 0.79432 0.04359 0.0
H338 H 0.4926 0.77352 0.17285 0.0
H339 H 0.51111 0.79214 0.21397 0.0
H340 H 0.49036 0.80728 0.17073 0.0
H341 H 0.5913 0.75322 0.06015 0.0
H342 H 0.58968 0.74812 0.1261 0.0
H343 H 0.56806 0.73252 0.08602 0.0
H344 H 0.56899 0.72882 0.27435 0.0
H345 H 0.52053 0.68818 0.17612 0.0
H346 H 0.55602 0.78992 0.22786 0.0
H347 H 0.58366 0.77706 0.20062 0.0
H348 H 0.57717 0.77166 0.26529 0.0
H349 H 0.49851 0.74216 0.10797 0.0
H350 H 0.4991 0.70833 0.11037 0.0
H351 H 0.5231 0.72535 0.0778 0.0
C352 C 0.70704 0.52217 0.855 0.0
C353 C 0.70633 0.54232 0.82158 0.0
C354 C 0.72838 0.51763 0.88426 0.0
C355 C 0.74938 0.53369 0.88014 0.0
C356 C 0.7493 0.553 0.84412 0.0
C357 C 0.72784 0.55703 0.81529 0.0
C358 C 0.72785 0.49659 0.9216 0.0
C359 C 0.77129 0.57053 0.83819 0.0
C360 C 0.79042 0.55026 -0.01013 0.0
C361 C 0.81293 0.53829 0.97773 0.0
C362 C 0.76908 0.54751 0.96011 0.0
C363 C 0.77024 0.53249 0.91686 0.0
C364 C 0.79239 0.51891 0.90632 0.0
C365 C 0.8135 0.52194 0.93697 0.0
C366 C 0.74582 0.56214 0.97316 0.0
C367 C 0.79436 0.50253 0.86089 0.0
H368 H 0.69054 0.51066 0.86005 0.0
H369 H 0.72756 0.57254 0.78935 0.0
H370 H 0.74559 0.48586 0.9206 0.0
H371 H 0.7259 0.50452 0.95943 0.0
H372 H 0.71203 0.48352 0.91499 0.0
H373 H 0.76919 0.58313 0.80568 0.0
H374 H 0.77322 0.58226 0.87196 0.0
H375 H 0.78887 0.55972 0.83393 0.0
H376 H 0.78977 0.56277 0.02152 0.0
H377 H 0.83084 0.51266 0.92724 0.0
H378 H 0.72915 0.54978 0.97229 0.0
H379 H 0.74285 0.57716 0.94532 0.0
H380 H 0.74709 0.57094 0.01042 0.0
H381 H 0.77738 0.49078 0.85665 0.0
H382 H 0.81103 0.49014 0.86229 0.0
H383 H 0.79583 0.51453 0.82743 0.0
C384 C 0.49432 0.31331 0.19632 0.0
C385 C 0.47308 0.31473 0.22681 0.0
C386 C 0.49898 0.29189 0.16699 0.0
C387 C 0.48183 0.2716 0.16767 0.0
C388 C 0.46094 0.27261 0.19989 0.0
C389 C 0.45695 0.294 0.22912 0.0
C390 C 0.52171 0.29137 0.13391 0.0
C391 C 0.44204 0.25158 0.20178 0.0
C392 C 0.46893 0.22989 0.0566 0.0
C393 C 0.4789 0.20686 0.07198 0.0
C394 C 0.47142 0.25157 0.08575 0.0
C395 C 0.48405 0.25025 0.13184 0.0
C396 C 0.49567 0.22745 0.14598 0.0
C397 C 0.49301 0.20601 0.1158 0.0
C398 C 0.45891 0.27544 0.06879 0.0
C399 C 0.50944 0.22523 0.19457 0.0
H400 H 0.50694 0.32917 0.19437 0.0
H401 H 0.44051 0.2948 0.25258 0.0
H402 H 0.53185 0.27337 0.13821 0.0
H403 H 0.5158 0.29276 0.09459 0.0
H404 H 0.53476 0.30704 0.14205 0.0
H405 H 0.4276 0.25461 0.23077 0.0
H406 H 0.43254 0.24991 0.16536 0.0
H407 H 0.45151 0.23348 0.20916 0.0
H408 H 0.45818 0.23077 0.02258 0.0
H409 H 0.50072 0.18829 0.12806 0.0
H410 H 0.47192 0.29154 0.0721 0.0
H411 H 0.44256 0.2794 0.09287 0.0
H412 H 0.45236 0.27421 0.02979 0.0
H413 H 0.52191 0.24159 0.20032 0.0
H414 H 0.52076 0.2078 0.1965 0.0
H415 H 0.49576 0.225 0.22549 0.0
C416 C 0.79403 0.94822 0.31404 0.0
C417 C 0.81521 0.96273 0.32502 0.0
C418 C 0.77179 0.95082 0.34125 0.0
C419 C 0.77059 0.96836 0.38061 0.0
C420 C 0.79148 0.98397 0.39028 0.0
C421 C 0.81355 0.98098 0.36237 0.0
C422 C 0.74997 0.93384 0.32942 0.0
C423 C 0.79094 1.00298 0.43169 0.0
C424 C 0.70512 0.98066 0.43136 0.0
C425 C 0.70384 0.96328 0.47033 0.0
C426 C 0.72712 0.98343 0.4031 0.0
C427 C 0.74832 0.96852 0.41414 0.0
C428 C 0.74749 0.95193 0.4551 0.0
C429 C 0.72531 0.9495 0.48255 0.0
C430 C 0.72724 1.00139 0.35991 0.0
C431 C 0.76967 0.93576 0.46849 0.0
H432 H 0.79506 0.93415 0.28514 0.0
H433 H 0.82981 0.99225 0.37119 0.0
H434 H 0.74675 0.92077 0.36077 0.0
H435 H 0.73265 0.94499 0.32457 0.0
H436 H 0.75315 0.92262 0.29529 0.0
H437 H 0.80746 0.0156 0.43082 0.0
H438 H 0.77373 0.01452 0.4295 0.0
H439 H 0.79063 0.99314 0.4679 0.0
H440 H 0.68862 0.99135 0.42155 0.0
H441 H 0.72456 0.93611 0.51273 0.0
H442 H 0.72771 0.99066 0.32468 0.0
H443 H 0.74421 0.01333 0.36088 0.0
H444 H 0.71047 0.01366 0.35964 0.0
H445 H 0.7732 0.92204 0.43837 0.0
H446 H 0.76672 0.9253 0.5036 0.0
H447 H 0.78673 0.94742 0.47231 0.0
C448 C 0.02665 0.31854 0.61967 0.0
C449 C 0.04235 0.31752 0.57801 0.0
C450 C 0.02356 0.29747 0.65066 0.0
C451 C 0.03641 0.2749 0.63961 0.0
C452 C 0.051 0.27342 0.59588 0.0
C453 C 0.05381 0.2947 0.5658 0.0
C454 C 1.00769 0.29981 0.69667 0.0
C455 C 0.06491 0.24976 0.58229 0.0
C456 C 0.05977 0.23099 0.74015 0.0
C457 C 0.04432 0.20996 0.73384 0.0
C458 C 0.05646 0.25274 0.71161 0.0
C459 C 0.03708 0.25369 0.67589 0.0
C460 C 0.02038 0.23317 0.67157 0.0
C461 C 0.02425 0.21148 0.70045 0.0
C462 C 0.07475 0.27411 0.71762 0.0
C463 C 0.99924 0.23355 0.63456 0.0
H464 H 0.01777 0.33611 0.62945 0.0
H465 H 0.06581 0.29367 0.53347 0.0
H466 H 0.99515 0.28336 0.70051 0.0
H467 H 0.01994 0.30026 0.72984 0.0
H468 H 0.99617 0.31713 0.69636 0.0
H469 H 0.07371 0.25097 0.54506 0.0
H470 H 0.07978 0.24615 0.61006 0.0
H471 H 0.05207 0.23343 0.58278 0.0
H472 H 0.07525 0.23011 0.766 0.0
H473 H 0.01215 0.19539 0.69538 0.0
H474 H 0.06463 0.29208 0.72246 0.0
H475 H 0.08633 0.2758 0.68364 0.0
H476 H 0.08741 0.27138 0.74981 0.0
H477 H 0.98897 0.25158 0.63659 0.0
H478 H 0.98585 0.21794 0.64067 0.0
H479 H 1.00694 0.23188 0.59651 0.0
C480 C 0.06434 0.02447 0.28687 0.0
C481 C 0.06381 0.04771 0.26255 0.0
C482 C 0.04298 1.00908 0.28877 0.0
C483 C 0.0206 0.01697 0.26539 0.0
C484 C 0.01994 0.04039 0.24086 0.0
C485 C 0.04145 0.05547 0.23989 0.0
C486 C 0.04438 0.98429 0.31557 0.0
C487 C 0.99659 0.04938 0.21488 0.0
C488 C 0.97452 0.96668 0.22529 0.0
C489 C 0.95591 0.96844 0.2618 0.0
C490 C 0.99547 0.9825 0.22584 0.0
C491 C 0.99822 1.00027 0.26443 0.0
C492 C 0.97945 1.00223 0.30139 0.0
C493 C 0.95834 0.98647 0.29931 0.0
C494 C 0.01468 0.98017 0.18503 0.0
C495 C 0.98187 0.02071 0.34348 0.0
H496 H 0.08142 0.01833 0.30473 0.0
H497 H 0.04075 0.07332 0.22079 0.0
H498 H 0.02952 0.98323 0.34419 0.0
H499 H 0.04109 0.96873 0.28906 0.0
H500 H 0.06279 0.98134 0.33371 0.0
H501 H 0.99898 0.06829 0.19831 0.0
H502 H 0.99144 0.03605 0.18499 0.0
H503 H 0.98073 0.05001 0.24133 0.0
H504 H 0.97262 0.95294 0.19589 0.0
H505 H 0.9441 0.98776 0.3278 0.0
H506 H 0.03309 0.97509 0.20102 0.0
H507 H 0.01699 0.99844 0.16593 0.0
H508 H 0.00946 0.96581 0.15705 0.0
H509 H 0.99928 0.01694 0.36454 0.0
H510 H 0.96576 0.01981 0.36943 0.0
H511 H 0.9833 0.04005 0.32866 0.0
C512 C 0.96344 0.54649 0.46734 0.0
C513 C 0.96921 0.56705 0.49783 0.0
C514 C 0.97835 0.52486 0.46706 0.0
C515 C 0.99952 0.52352 0.49838 0.0
C516 C 1.00561 0.54425 0.52902 0.0
C517 C 0.99048 0.56584 0.52815 0.0
C518 C 0.97138 0.5034 0.43322 0.0
C519 C 0.02796 0.54348 0.56311 0.0
C520 C 0.02433 0.45826 0.52836 0.0
C521 C 0.04484 0.4564 0.49612 0.0
C522 C 0.00966 0.48014 0.5301 0.0
C523 C 0.0154 0.50051 0.49834 0.0
C524 C 0.03587 0.49861 0.46531 0.0
C525 C 0.05038 0.4767 0.46481 0.0
C526 C 0.98809 0.48151 0.56607 0.0
C527 C 0.04236 0.51968 0.4302 0.0
H528 H 0.94719 0.54727 0.44339 0.0
H529 H 0.99502 0.58155 0.55198 0.0
H530 H 0.98715 0.49909 0.4079 0.0
H531 H 0.9677 0.4863 0.45543 0.0
H532 H 0.95455 0.50755 0.41055 0.0
H533 H 0.03013 0.56106 0.58477 0.0
H534 H 0.02611 0.52756 0.58932 0.0
H535 H 0.04526 0.54033 0.54129 0.0
H536 H 0.02 0.44278 0.55292 0.0
H537 H 0.06607 0.47542 0.43947 0.0
H538 H 0.97033 0.48423 0.54555 0.0
H539 H 0.99045 0.49788 0.591 0.0
H540 H 0.98643 0.46432 0.58908 0.0
H541 H 0.02624 0.52367 0.40557 0.0
H542 H 0.05887 0.51525 0.40679 0.0
H543 H 0.04632 0.53704 0.45142 0.0
C544 C 0.45554 0.49599 0.7444 0.0
C545 C 0.45369 0.47434 0.77341 0.0
C546 C 0.47751 0.51045 0.74459 0.0
C547 C 0.49763 0.50354 0.77596 0.0
C548 C 0.4954 0.4821 0.80657 0.0
C549 C 0.47363 0.46746 0.80414 0.0
C550 C 0.47945 0.53273 0.71032 0.0
C551 C 0.51599 0.47461 0.84186 0.0
C552 C 0.56347 0.52632 0.74679 0.0
C553 C 0.56499 0.5479 0.77611 0.0
C554 C 0.54152 0.51182 0.74594 0.0
C555 C 0.52107 0.51863 0.77656 0.0
C556 C 0.52296 0.53999 0.80753 0.0
C557 C 0.54473 0.55466 0.80615 0.0
C558 C 0.53997 0.48964 0.71131 0.0
C559 C 0.50199 0.54736 0.84206 0.0
H560 H 0.44015 0.50106 0.72025 0.0
H561 H 0.47204 0.45071 0.82669 0.0
H562 H 0.48265 0.55008 0.73207 0.0
H563 H 0.49572 0.53038 0.68521 0.0
H564 H 0.46237 0.53527 0.68747 0.0
H565 H 0.51067 0.45834 0.8653 0.0
H566 H 0.53309 0.46969 0.82077 0.0
H567 H 0.5208 0.4906 0.86641 0.0
H568 H 0.5791 0.52135 0.72313 0.0
H569 H 0.54604 0.57136 0.82893 0.0
H570 H 0.52403 0.49212 0.68544 0.0
H571 H 0.53645 0.47224 0.73266 0.0
H572 H 0.55733 0.48714 0.68925 0.0
H573 H 0.48515 0.55243 0.82031 0.0
H574 H 0.50708 0.56351 0.86603 0.0
H575 H 0.49685 0.53128 0.86609 0.0
C576 C 0.5456 0.97167 0.96209 0.0
C577 C 0.54535 0.95436 0.00122 0.0
C578 C 0.5308 0.99336 0.96347 0.0
C579 C 0.51572 0.99822 0.00552 0.0
C580 C 0.5153 0.98076 0.04515 0.0
C581 C 0.52991 0.95886 0.04227 0.0
C582 C 0.53136 0.01111 0.91987 0.0
C583 C 0.49973 0.98544 0.0909 0.0
C584 C 0.49567 0.0662 0.02401 0.0
C585 C 0.47128 0.06598 0.00478 0.0
C586 C 0.51016 0.04418 0.02556 0.0
C587 C 0.5001 0.02139 0.00728 0.0
C588 C 0.47545 0.02099 -0.01166 0.0
C589 C 0.46139 0.04318 -0.01263 0.0
C590 C 0.53635 0.04536 0.04623 0.0
C591 C 0.46405 0.99717 0.96817 0.0
H592 H 0.55737 0.96817 0.93009 0.0
H593 H 0.52986 0.94565 0.0728 0.0
H594 H 0.51221 0.01363 0.9049 0.0
H595 H 0.53808 0.0298 0.932 0.0
H596 H 0.54367 1.00432 0.88953 0.0
H597 H 0.50151 0.97011 0.11853 0.0
H598 H 0.50555 1.0033 0.10856 0.0
H599 H 0.47975 0.98741 0.08063 0.0
H600 H 0.50351 0.0836 0.03773 0.0
H601 H 0.44259 0.04263 0.97245 0.0
H602 H 0.55003 0.04063 0.01676 0.0
H603 H 0.53861 0.03131 0.07621 0.0
H604 H 0.54101 0.06418 0.06121 0.0
H605 H 0.47513 0.99043 0.93604 0.0
H606 H 0.44438 0.99981 0.9561 0.0
H607 H 0.46456 0.98223 -0.00326 0.0
C608 C 0.04776 0.46941 -0.00921 0.0
C609 C 0.06536 0.47256 0.02865 0.0
C610 C 0.02596 0.48403 -0.01061 0.0
C611 C 0.02132 0.50153 0.02782 0.0
C612 C 0.03911 0.50464 0.06631 0.0
C613 C 0.06115 0.49032 0.06585 0.0
C614 C 1.00788 0.4807 0.94692 0.0
C615 C 0.03458 0.52262 0.10858 0.0
C616 C 0.9756 0.5551 0.00843 0.0
C617 C 0.95372 0.54554 0.02993 0.0
C618 C 0.99753 0.54073 0.00637 0.0
C619 C 0.99784 0.51653 0.02785 0.0
C620 C 0.97577 0.5068 0.04974 0.0
C621 C 0.95382 0.52129 0.04978 0.0
C622 C 0.02038 0.55146 0.98123 0.0
C623 C 0.97552 0.48135 0.07416 0.0
H624 H 0.05115 0.45554 0.96218 0.0
H625 H 0.07473 0.49238 0.09543 0.0
H626 H 0.98971 0.47368 0.96105 0.0
H627 H 1.00429 0.49901 0.92878 0.0
H628 H 0.01495 0.46734 0.9186 0.0
H629 H 0.05008 0.52253 0.13599 0.0
H630 H 0.03234 0.54195 0.09416 0.0
H631 H 0.01695 0.51762 0.1279 0.0
H632 H 0.97546 0.5738 -0.00729 0.0
H633 H 0.93695 0.514 0.06681 0.0
H634 H 0.0271 0.53841 0.95209 0.0
H635 H 0.03573 0.55366 0.00853 0.0
H636 H 0.01665 0.56999 0.96398 0.0
H637 H 0.98064 0.46667 0.04688 0.0
H638 H 0.95696 0.47666 0.09015 0.0
H639 H 0.98968 0.48078 0.10421 0.0
C640 C 0.49338 0.45602 0.27567 0.0
C641 C 0.47182 0.45469 0.30518 0.0
C642 C 0.5082 0.47786 0.27469 0.0
C643 C 0.50146 0.49874 0.30435 0.0
C644 C 0.47994 0.49734 0.33472 0.0
C645 C 0.46538 0.47545 0.33461 0.0
C646 C 0.53095 0.47866 0.24164 0.0
C647 C 0.47228 0.51898 0.36751 0.0
C648 C 0.55168 0.54607 0.33917 0.0
C649 C 0.54654 0.5661 0.30695 0.0
C650 C 0.5372 0.52413 0.33865 0.0
C651 C 0.51717 0.52189 0.30467 0.0
C652 C 0.5118 0.54202 0.27206 0.0
C653 C 0.52642 0.56396 0.27384 0.0
C654 C 0.5433 0.50335 0.37469 0.0
C655 C 0.49071 0.5403 0.23507 0.0
H656 H 0.49846 0.44018 0.25263 0.0
H657 H 0.44888 0.47462 0.3579 0.0
H658 H 0.52933 0.49446 0.2151 0.0
H659 H 0.54795 0.48203 0.26424 0.0
H660 H 0.5335 0.46101 0.22038 0.0
H661 H 0.45513 0.51484 0.38924 0.0
H662 H 0.48761 0.52359 0.39368 0.0
H663 H 0.46885 0.5359 0.34462 0.0
H664 H 0.56704 0.54758 0.3652 0.0
H665 H 0.52241 0.57924 0.2486 0.0
H666 H 0.54771 0.48589 0.35415 0.0
H667 H 0.52684 0.49936 0.39845 0.0
H668 H 0.55941 0.50807 0.39895 0.0
H669 H 0.49354 0.52384 0.21055 0.0
H670 H 0.48921 0.55737 0.2117 0.0
H671 H 0.47271 0.53748 0.25473 0.0
C672 C 0.4774 0.05465 0.55967 0.0
C673 C 0.45574 0.04818 0.53314 0.0
C674 C 0.49872 0.03935 0.55885 0.0
C675 C 0.49862 0.0171 0.53032 0.0
C676 C 0.47694 1.01053 0.50301 0.0
C677 C 0.45568 0.02604 0.50506 0.0
C678 C 0.52124 0.04682 0.58925 0.0
C679 C 0.47619 0.98707 0.47177 0.0
C680 C 0.56187 0.98779 0.49985 0.0
C681 C 0.56314 0.96839 0.53484 0.0
C682 C 0.54081 1.00357 0.49733 0.0
C683 C 0.5208 1.00015 0.53118 0.0
C684 C 0.52222 0.98086 0.56704 0.0
C685 C 0.54323 0.96516 0.56819 0.0
C686 C 0.53985 0.02377 0.45823 0.0
C687 C 0.50159 0.97684 0.60446 0.0
H688 H 0.47763 0.07162 0.58178 0.0
H689 H 0.43912 0.02098 0.48418 0.0
H690 H 0.52533 0.03211 0.61715 0.0
H691 H 0.53793 0.04848 0.56506 0.0
H692 H 0.51846 0.06491 0.60889 0.0
H693 H 0.45836 0.98517 0.451 0.0
H694 H 0.4919 0.98714 0.4449 0.0
H695 H 0.47856 0.97034 0.49571 0.0
H696 H 0.57708 0.99028 0.47376 0.0
H697 H 0.54414 0.95036 0.59567 0.0
H698 H 0.53827 0.04244 0.47605 0.0
H699 H 0.52301 0.02121 0.43473 0.0
H700 H 0.55666 0.02368 0.43404 0.0
H701 H 0.49878 0.99415 0.6266 0.0
H702 H 0.50567 0.96113 0.63022 0.0
H703 H 0.48374 0.97283 0.58511 0.0
C704 C 0.02693 0.06541 0.75574 0.0
C705 C 0.04377 0.06876 0.79499 0.0
C706 C 0.01204 0.04371 0.75267 0.0
C707 C 0.01357 0.02531 0.79047 0.0
C708 C 0.0301 0.029 0.83082 0.0
C709 C 0.04523 0.05048 0.83221 0.0
C710 C 0.99499 0.04025 0.70861 0.0
C711 C 0.03182 1.01024 0.8726 0.0
C712 C 0.95933 0.98048 0.8112 0.0
C713 C 0.96843 0.95803 0.79064 0.0
C714 C 0.97361 1.00255 0.81049 0.0
C715 C 0.99763 1.00237 0.78857 0.0
C716 C 1.00682 0.97996 0.76698 0.0
C717 C 0.99215 0.95806 0.76838 0.0
C718 C 0.96315 0.02597 0.83417 0.0
C719 C 0.03229 0.97906 0.74296 0.0
H720 H 0.02598 0.0794 0.72666 0.0
H721 H 0.05812 0.05312 0.86279 0.0
H722 H 0.99994 0.02273 0.68875 0.0
H723 H 0.97534 0.03832 0.72121 0.0
H724 H 0.99615 0.05616 0.68215 0.0
H725 H 0.04516 0.0162 0.90188 0.0
H726 H 0.01315 1.00756 0.88974 0.0
H727 H 0.03787 0.99179 0.85796 0.0
H728 H 0.94105 0.98083 0.82846 0.0
H729 H 0.99936 0.94093 0.75221 0.0
H730 H 0.96295 0.04156 0.80698 0.0
H731 H 0.97529 0.03185 0.86543 0.0
H732 H 0.94386 0.02321 0.84841 0.0
H733 H 0.0338 0.99383 0.71417 0.0
H734 H 0.0362 0.96059 0.72559 0.0
H735 H 0.04693 0.98289 0.77107 0.0
C736 C 0.13822 0.13667 0.64053 0.0
C737 C 0.11318 0.14004 0.65448 0.0
C738 C 0.14502 0.13548 0.59039 0.0
C739 C 0.12622 0.13713 0.55369 0.0
C740 C 0.10123 0.14233 0.56748 0.0
C741 C 0.09505 0.14397 0.61777 0.0
C742 C 0.17201 0.13086 0.57687 0.0
C743 C 0.0806 0.14408 0.52938 0.0
C744 C 0.13776 0.14052 0.41533 0.0
C745 C 0.13493 0.11529 0.40198 0.0
C746 C 0.13668 0.14787 0.46523 0.0
C747 C 0.13172 0.12963 0.50199 0.0
C748 C 0.12973 0.10403 0.48873 0.0
C749 C 0.13176 0.09714 0.4389 0.0
C750 C 0.13983 0.1752 0.47828 0.0
C751 C 0.12398 0.08403 0.52676 0.0
H752 H 0.15242 0.13414 0.66876 0.0
H753 H 0.07569 0.1468 0.62822 0.0
H754 H 0.17446 0.11095 0.56606 0.0
H755 H 0.17759 0.14256 0.54471 0.0
H756 H 0.18478 0.13489 0.60836 0.0
H757 H 0.06267 0.15051 0.54581 0.0
H758 H 0.0859 0.15715 0.49923 0.0
H759 H 0.07757 0.12538 0.51236 0.0
H760 H 0.1405 0.15453 0.38673 0.0
H761 H 0.12945 0.07763 0.4286 0.0
H762 H 0.15154 0.17738 0.51196 0.0
H763 H 0.12129 0.18354 0.48639 0.0
H764 H 0.1485 0.18595 0.44748 0.0
H765 H 0.13806 0.08442 0.5569 0.0
H766 H 0.1237 0.06493 0.5104 0.0
H767 H 0.10546 0.08775 0.54382 0.0
C768 C 0.87403 0.631 0.65751 0.0
C769 C 0.89926 0.63384 0.6444 0.0
C770 C 0.86689 0.62882 0.70736 0.0
C771 C 0.88552 0.62888 0.74454 0.0
C772 C 0.91084 0.63302 0.73168 0.0
C773 C 0.91736 0.63573 0.68176 0.0
C774 C 0.83962 0.62528 0.71997 0.0
C775 C 0.93131 0.63297 0.7703 0.0
C776 C 0.8751 0.63392 0.88268 0.0
C777 C 0.8774 0.60877 0.89694 0.0
C778 C 0.87562 0.64071 0.83248 0.0
C779 C 0.87926 0.62192 0.79619 0.0
C780 C 0.88011 0.59639 0.81027 0.0
C781 C 0.87883 0.5901 0.86053 0.0
C782 C 0.8737 0.66804 0.8186 0.0
C783 C 0.8843 0.57581 0.77266 0.0
H784 H 0.8599 0.62992 0.62878 0.0
H785 H 0.93689 0.63799 0.67193 0.0
H786 H 0.83618 0.60541 0.72998 0.0
H787 H 0.83436 0.6369 0.75246 0.0
H788 H 0.82726 0.63018 0.68835 0.0
H789 H 0.94987 0.6377 0.75438 0.0
H790 H 0.927 0.6466 0.80013 0.0
H791 H 0.9325 0.61415 0.78768 0.0
H792 H 0.87356 0.64837 0.91079 0.0
H793 H 0.88056 0.57061 0.8714 0.0
H794 H 0.8617 0.6705 0.78541 0.0
H795 H 0.89254 0.67534 0.80929 0.0
H796 H 0.86599 0.6795 0.84941 0.0
H797 H 0.87061 0.57733 0.74196 0.0
H798 H 0.8827 0.55684 0.7893 0.0
H799 H 0.90324 0.57779 0.75631 0.0
C800 C 0.37728 0.38912 0.14648 0.0
C801 C 0.40271 0.38762 0.15892 0.0
C802 C 0.36974 0.39124 0.09686 0.0
C803 C 0.38812 0.39252 0.05926 0.0
C804 C 0.41373 0.39002 0.07149 0.0
C805 C 0.42068 0.3873 0.12115 0.0
C806 C 0.34223 0.3931 0.08494 0.0
C807 C 0.43393 0.3916 0.03241 0.0
C808 C 0.37765 0.38565 0.92157 0.0
C809 C 0.37844 0.41077 0.90639 0.0
C810 C 0.37863 0.37937 0.97198 0.0
C811 C 0.38111 0.39867 0.0076 0.0
C812 C 0.38025 0.42407 -0.00734 0.0
C813 C 0.37862 0.42982 0.94216 0.0
C814 C 0.37857 0.3521 -0.01319 0.0
C815 C 0.38311 0.4452 0.02954 0.0
H816 H 0.36329 0.38906 0.17557 0.0
H817 H 0.44036 0.38617 0.13053 0.0
H818 H 0.33757 0.41267 0.07471 0.0
H819 H 0.33747 0.38104 0.05276 0.0
H820 H 0.33036 0.38758 0.11693 0.0
H821 H 0.4529 0.38844 0.04796 0.0
H822 H 0.43055 0.37754 0.00288 0.0
H823 H 0.43354 0.41038 0.01474 0.0
H824 H 0.37705 0.37087 0.89401 0.0
H825 H 0.37914 0.44928 0.93063 0.0
H826 H 0.36662 0.34909 0.01991 0.0
H827 H 0.39784 0.34626 -0.00332 0.0
H828 H 0.37183 0.33983 0.95632 0.0
H829 H 0.36992 0.4428 0.06088 0.0
H830 H 0.37981 0.46385 0.01244 0.0
H831 H 0.40231 0.44492 0.04509 0.0
C832 C 0.6531 0.89602 0.37188 0.0
C833 C 0.6302 0.89509 0.39689 0.0
C834 C 0.65431 0.89115 0.32088 0.0
C835 C 0.63187 0.88672 0.29449 0.0
C836 C 0.60884 0.88489 0.3202 0.0
C837 C 0.60841 0.88857 0.37147 0.0
C838 C 0.67937 0.892 0.29521 0.0
C839 C 0.58436 0.88104 0.29322 0.0
C840 C 0.62407 0.91118 0.16458 0.0
C841 C 0.62046 0.88888 0.13848 0.0
C842 C 0.62913 0.91073 0.21539 0.0
C843 C 0.6316 0.88733 0.23974 0.0
C844 C 0.63016 0.86476 0.21233 0.0
C845 C 0.62386 0.86578 0.16196 0.0
C846 C 0.62983 0.93521 0.24356 0.0
C847 C 0.63408 0.83957 0.23654 0.0
H848 H 0.66995 0.90092 0.39204 0.0
H849 H 0.59074 0.88809 0.39118 0.0
H850 H 0.68025 0.87825 0.26437 0.0
H851 H 0.68244 0.91094 0.27946 0.0
H852 H 0.69486 0.88811 0.32153 0.0
H853 H 0.56819 0.8799 0.31897 0.0
H854 H 0.58115 0.89681 0.26716 0.0
H855 H 0.58498 0.86359 0.27099 0.0
H856 H 0.62126 0.92895 0.14589 0.0
H857 H 0.62121 0.8486 0.14113 0.0
H858 H 0.64766 0.93699 0.26414 0.0
H859 H 0.61445 0.93563 0.2712 0.0
H860 H 0.62785 0.95171 0.21878 0.0
H861 H 0.64964 0.84041 0.26372 0.0
H862 H 0.63823 0.82478 0.20874 0.0
H863 H 0.61692 0.83403 0.25687 0.0
C864 C 0.14014 0.38977 0.65174 0.0
C865 C 0.11458 0.3899 0.64014 0.0
C866 C 0.1482 0.39149 0.70113 0.0
C867 C 0.13024 0.39413 0.73928 0.0
C868 C 0.10443 0.39367 0.72778 0.0
C869 C 0.09692 0.39123 0.6784 0.0
C870 C 0.17584 0.39116 0.71232 0.0
C871 C 0.08468 0.39685 0.7674 0.0
C872 C 0.13972 0.38454 0.8764 0.0
C873 C 0.14059 0.40943 0.89306 0.0
C874 C 0.13873 0.37907 0.82563 0.0
C875 C 0.13801 0.39898 0.79107 0.0
C876 C 0.14084 0.42401 0.8075 0.0
C877 C 0.14236 0.42892 0.85838 0.0
C878 C 0.13662 0.35209 0.80925 0.0
C879 C 0.13995 0.4458 0.7718 0.0
H880 H 0.15382 0.3885 0.6222 0.0
H881 H 0.07715 0.39147 0.66958 0.0
H882 H 0.182 0.41012 0.72393 0.0
H883 H 0.17988 0.37818 0.74344 0.0
H884 H 0.18709 0.38541 0.67961 0.0
H885 H 0.06541 0.39582 0.75217 0.0
H886 H 0.08675 0.38214 0.79613 0.0
H887 H 0.08707 0.41526 0.78598 0.0
H888 H 0.13887 0.36937 0.90307 0.0
H889 H 0.14322 0.4482 0.87096 0.0
H890 H 0.14833 0.3486 0.776 0.0
H891 H 0.11695 0.34794 0.79908 0.0
H892 H 0.14232 0.33891 0.83905 0.0
H893 H 0.15245 0.44246 0.73971 0.0
H894 H 0.14542 0.46373 0.78974 0.0
H895 H 0.12065 0.44781 0.7572 0.0
C896 C 0.6422 0.63113 0.15121 0.0
C897 C 0.6167 0.6324 0.1631 0.0
C898 C 0.65004 0.62899 0.10173 0.0
C899 C 0.63188 0.62737 0.06376 0.0
C900 C 0.60617 0.62942 0.0755 0.0
C901 C 0.59892 0.63223 0.12499 0.0
C902 C 0.67763 0.62763 0.09031 0.0
C903 C 0.58618 0.62743 0.03607 0.0
C904 C 0.64196 0.63554 0.92635 0.0
C905 C 0.6414 0.61055 0.91029 0.0
C906 C 0.64121 0.64138 0.97699 0.0
C907 C 0.63923 0.62176 0.01201 0.0
C908 C 0.64051 0.5965 -0.00383 0.0
C909 C 0.64187 0.5912 0.94542 0.0
C910 C 0.6408 0.66853 -0.00727 0.0
C911 C 0.63822 0.57502 0.03237 0.0
H912 H 0.65602 0.63153 0.1806 0.0
H913 H 0.57918 0.63311 0.13396 0.0
H914 H 0.68266 0.60821 0.07963 0.0
H915 H 0.68235 0.63997 0.05855 0.0
H916 H 0.68925 0.63314 0.12267 0.0
H917 H 0.56706 0.62985 0.0514 0.0
H918 H 0.58921 0.64182 0.00704 0.0
H919 H 0.58726 0.60881 0.01783 0.0
H920 H 0.64209 0.65056 0.89931 0.0
H921 H 0.64157 0.57183 0.93324 0.0
H922 H 0.65271 0.67148 0.0259 0.0
H923 H 0.62143 0.67394 0.00282 0.0
H924 H 0.64731 0.68115 0.96263 0.0
H925 H 0.65111 0.57766 0.06412 0.0
H926 H 0.6423 0.55665 0.01477 0.0
H927 H 0.61891 0.57449 0.04742 0.0
C928 C 0.38223 0.14043 0.38006 0.0
C929 C 0.38166 0.11516 0.39435 0.0
C930 C 0.38298 0.14713 0.32982 0.0
C931 C 0.38385 0.12807 0.29342 0.0
C932 C 0.38154 0.10262 0.30754 0.0
C933 C 0.38019 0.0965 0.3579 0.0
C934 C 0.38444 0.17449 0.31594 0.0
C935 C 0.38263 0.08172 0.2698 0.0
C936 C 0.38001 0.13863 0.15477 0.0
C937 C 0.40542 0.13857 0.14192 0.0
C938 C 0.37255 0.13687 0.20453 0.0
C939 C 0.39096 0.13423 0.24178 0.0
C940 C 0.41663 0.13522 0.22913 0.0
C941 C 0.42353 0.13772 0.17939 0.0
C942 C 0.34503 0.13675 0.2169 0.0
C943 C 0.43687 0.13211 0.26775 0.0
H944 H 0.38287 0.15496 0.40813 0.0
H945 H 0.37961 0.07694 0.3687 0.0
H946 H 0.40394 0.17928 0.30563 0.0
H947 H 0.37243 0.1785 0.28337 0.0
H948 H 0.37868 0.18684 0.34708 0.0
H949 H 0.37828 0.06316 0.28639 0.0
H950 H 0.36931 0.08527 0.23914 0.0
H951 H 0.40165 0.0809 0.25344 0.0
H952 H 0.36595 0.13959 0.12589 0.0
H953 H 0.4432 0.13762 0.1697 0.0
H954 H 0.34125 0.14837 0.2502 0.0
H955 H 0.33898 0.11734 0.22541 0.0
H956 H 0.33352 0.14383 0.18563 0.0
H957 H 0.43455 0.14617 0.29767 0.0
H958 H 0.45593 0.13415 0.25188 0.0
H959 H 0.43535 0.11328 0.28497 0.0
C960 C 0.90443 0.9083 0.62827 0.0
C961 C 0.89937 0.88749 0.65784 0.0
C962 C 0.89885 0.90801 0.57773 0.0
C963 C 0.88775 0.88635 0.55675 0.0
C964 C 0.88145 0.86568 0.58723 0.0
C965 C 0.88766 0.86639 0.63777 0.0
C966 C 0.90603 0.93038 0.54645 0.0
C967 C 0.86917 0.84253 0.56628 0.0
C968 C 0.86583 0.9011 0.42754 0.0
C969 C 0.88686 0.89398 0.39995 0.0
C970 C 0.86458 0.89626 0.47851 0.0
C971 C 0.88523 0.88487 0.50225 0.0
C972 C 0.90569 0.87607 0.47387 0.0
C973 C 0.90608 0.88046 0.42276 0.0
C974 C 0.842 0.90494 0.50736 0.0
C975 C 0.92824 0.86417 0.49799 0.0
H976 H 0.91359 0.9245 0.64448 0.0
H977 H 0.88389 0.85033 0.66126 0.0
H978 H 0.92012 0.92472 0.51839 0.0
H979 H 0.88949 0.93756 0.52618 0.0
H980 H 0.91395 0.94591 0.56896 0.0
H981 H 0.86065 0.83082 0.59586 0.0
H982 H 0.8545 0.84759 0.53899 0.0
H983 H 0.88335 0.83104 0.5467 0.0
H984 H 0.85073 0.91117 0.40958 0.0
H985 H 0.92232 0.87492 0.40134 0.0
H986 H 0.84652 0.92264 0.527 0.0
H987 H 0.83664 0.89087 0.53572 0.0
H988 H 0.82573 0.90846 0.48273 0.0
H989 H 0.93835 0.87848 0.52015 0.0
H990 H 0.94142 0.85621 0.47031 0.0
H991 H 0.92244 0.84906 0.52371 0.0
C992 C 0.06662 0.12506 0.94872 0.0
C993 C 0.08436 0.13071 0.91219 0.0
C994 C 0.07395 0.11424 -0.00597 0.0
C995 C 0.09961 0.10935 0.00296 0.0
C996 C 0.11747 0.11473 0.96582 0.0
C997 C 0.10962 0.12524 0.92092 0.0
C998 C 0.05435 0.1084 0.03259 0.0
C999 C 0.14503 0.1101 0.97399 0.0
C1000 C 0.12446 0.11103 0.13424 0.0
C1001 C 0.12867 0.0856 0.14418 0.0
C1002 C 0.11448 0.11887 0.08888 0.0
C1003 C 0.10828 0.1008 0.05253 0.0
C1004 C 0.11209 0.075 0.06252 0.0
C1005 C 0.12244 0.06768 0.10825 0.0
C1006 C 0.11107 0.14658 0.07951 0.0
C1007 C 0.1054 0.05521 0.02479 0.0
H1008 H 0.04704 0.12893 0.94182 0.0
H1009 H 0.12344 0.12948 0.89273 0.0
H1010 H 0.05613 0.08865 0.045 0.0
H1011 H 0.05722 0.12045 0.06561 0.0
H1012 H 0.03508 0.11144 0.01848 0.0
H1013 H 0.15637 0.11421 0.94045 0.0
H1014 H 0.15187 0.12204 0.00483 0.0
H1015 H 0.14824 0.09031 0.98484 0.0
H1016 H 0.12921 0.12498 0.16192 0.0
H1017 H 0.12538 0.04797 0.11608 0.0
H1018 H 0.09136 0.15058 0.06954 0.0
H1019 H 0.12286 0.15247 0.04773 0.0
H1020 H 0.11615 0.15815 0.11223 0.0
H1021 H 0.08562 0.05738 0.01319 0.0
H1022 H 0.10811 0.03592 0.03934 0.0
H1023 H 0.11711 0.05754 -0.00884 0.0
C1024 C 0.94895 0.62297 0.35499 0.0
C1025 C 0.9305 0.63212 0.38707 0.0
C1026 C 0.94236 0.61181 0.30961 0.0
C1027 C 0.91682 0.61032 0.29595 0.0
C1028 C 0.89822 0.61976 0.32822 0.0
C1029 C 0.90529 0.63033 0.37356 0.0
C1030 C 0.96263 0.60153 0.27642 0.0
C1031 C 0.87082 0.61897 0.31463 0.0
C1032 C 0.89766 0.60825 0.16118 0.0
C1033 C 0.88993 0.58329 0.15564 0.0
C1034 C 0.90734 0.61699 0.20614 0.0
C1035 C 0.90936 0.60037 0.24672 0.0
C1036 C 0.9022 0.57494 0.24114 0.0
C1037 C 0.89247 0.56668 0.19554 0.0
C1038 C 0.91465 0.64426 0.21064 0.0
C1039 C 0.90431 0.55666 0.28363 0.0
H1040 H 0.96842 0.62397 0.36589 0.0
H1041 H 0.89101 0.63736 0.39848 0.0
H1042 H 0.95901 0.58145 0.26843 0.0
H1043 H 0.96255 0.61157 0.24042 0.0
H1044 H 0.9815 0.60333 0.29326 0.0
H1045 H 0.8587 0.62683 0.34424 0.0
H1046 H 0.86763 0.62978 0.28008 0.0
H1047 H 0.86496 0.59937 0.30733 0.0
H1048 H 0.89586 0.62119 0.13043 0.0
H1049 H 0.88673 0.54732 0.19126 0.0
H1050 H 0.93409 0.64593 0.22449 0.0
H1051 H 0.90231 0.6537 0.23794 0.0
H1052 H 0.91324 0.65437 0.17475 0.0
H1053 H 0.92345 0.55716 0.29943 0.0
H1054 H 0.89996 0.53715 0.27211 0.0
H1055 H 0.8912 0.56212 0.31362 0.0
C1056 C 0.39925 0.40993 0.64168 0.0
C1057 C 0.39135 0.43485 0.64694 0.0
C1058 C 0.40949 0.40126 0.5971 0.0
C1059 C 0.41194 0.41793 0.55666 0.0
C1060 C 0.40463 0.44331 0.56203 0.0
C1061 C 0.39431 0.45149 0.6072 0.0
C1062 C 0.41691 0.37403 0.59283 0.0
C1063 C 0.40717 0.46165 0.51973 0.0
C1064 C 0.45256 0.39627 0.44887 0.0
C1065 C 0.43441 0.38737 0.41585 0.0
C1066 C 0.44556 0.40686 0.4946 0.0
C1067 C 0.41991 0.40806 0.5076 0.0
C1068 C 0.40163 0.39875 0.4745 0.0
C1069 C 0.4091 0.38872 0.42892 0.0
C1070 C 0.46552 0.41695 0.52875 0.0
C1071 C 0.37412 0.39926 0.48728 0.0
H1072 H 0.39713 0.39697 0.67232 0.0
H1073 H 0.38847 0.47083 0.61127 0.0
H1074 H 0.40482 0.36455 0.56514 0.0
H1075 H 0.43647 0.37243 0.57956 0.0
H1076 H 0.41524 0.36391 0.62866 0.0
H1077 H 0.40263 0.48114 0.53112 0.0
H1078 H 0.4265 0.46126 0.5048 0.0
H1079 H 0.39444 0.45617 0.48912 0.0
H1080 H 0.47211 0.39559 0.43841 0.0
H1081 H 0.39503 0.38185 0.40336 0.0
H1082 H 0.46486 0.40699 0.56481 0.0
H1083 H 0.46201 0.43708 0.53642 0.0
H1084 H 0.48457 0.41494 0.51286 0.0
H1085 H 0.37074 0.38841 0.52172 0.0
H1086 H 0.3623 0.39131 0.45729 0.0
H1087 H 0.36804 0.4188 0.49442 0.0
C1088 C 0.62182 0.9475 0.68886 0.0
C1089 C 0.62355 0.92935 0.65148 0.0
C1090 C 0.61107 0.94157 0.73499 0.0
C1091 C 0.60202 0.91698 0.74356 0.0
C1092 C 0.60288 0.89897 0.7052 0.0
C1093 C 0.6137 0.90535 0.65979 0.0
C1094 C 0.61025 0.96128 0.77509 0.0
C1095 C 0.59354 0.87251 0.71285 0.0
C1096 C 0.60698 0.8891 0.8716 0.0
C1097 C 0.582 0.88867 0.88705 0.0
C1098 C 0.6137 0.89887 0.82548 0.0
C1099 C 0.59497 0.90878 0.79416 0.0
C1100 C 0.56966 0.90877 0.80976 0.0
C1101 C 0.56339 0.89844 0.85612 0.0
C1102 C 0.64085 0.89811 0.80993 0.0
C1103 C 0.54931 0.91958 0.77748 0.0
H1104 H 0.62912 0.96616 0.68234 0.0
H1105 H 0.61481 0.89123 0.631 0.0
H1106 H 0.59144 0.96192 0.7924 0.0
H1107 H 0.62382 0.95644 0.80467 0.0
H1108 H 0.61493 0.98021 0.76067 0.0
H1109 H 0.59341 0.8615 0.67788 0.0
H1110 H 0.60571 0.86276 0.73999 0.0
H1111 H 0.57434 0.87268 0.72833 0.0
H1112 H 0.62139 0.8816 0.89565 0.0
H1113 H 0.54413 0.89853 0.86858 0.0
H1114 H 0.64742 0.9172 0.80023 0.0
H1115 H 0.64293 0.88626 0.77637 0.0
H1116 H 0.65317 0.89049 0.83943 0.0
H1117 H 0.554 0.93915 0.76716 0.0
H1118 H 0.5308 0.91942 0.79618 0.0
H1119 H 0.54787 0.90869 0.74256 0.0
C1120 C 0.10567 0.38605 0.3702 0.0
C1121 C 0.08049 0.38651 0.38438 0.0
C1122 C 0.11327 0.39505 0.3239 0.0
C1123 C 0.09527 0.40519 0.29116 0.0
C1124 C 0.0697 0.40551 0.30501 0.0
C1125 C 0.06254 0.39593 0.35152 0.0
C1126 C 0.14065 0.3939 0.31023 0.0
C1127 C 0.05006 0.41646 0.27122 0.0
C1128 C 0.12316 0.44809 0.19335 0.0
C1129 C 0.12558 0.43166 0.15313 0.0
C1130 C 0.11217 0.44008 0.23797 0.0
C1131 C 0.10355 0.41506 0.24232 0.0
C1132 C 0.10529 0.39866 0.20128 0.0
C1133 C 0.11629 0.40715 0.15725 0.0
C1134 C 0.11047 0.45814 0.28093 0.0
C1135 C 0.09637 0.37184 0.20443 0.0
H1136 H 0.11956 0.3787 0.3956 0.0
H1137 H 0.0431 0.39659 0.36279 0.0
H1138 H 0.14309 0.38317 0.27531 0.0
H1139 H 0.1479 0.41309 0.30361 0.0
H1140 H 0.15215 0.38495 0.33957 0.0
H1141 H 0.03092 0.41461 0.28681 0.0
H1142 H 0.05401 0.43662 0.26487 0.0
H1143 H 0.05061 0.40706 0.23455 0.0
H1144 H 0.13005 0.46713 0.19016 0.0
H1145 H 0.11794 0.39436 0.12619 0.0
H1146 H 0.12294 0.45181 0.3113 0.0
H1147 H 0.09114 0.4585 0.29587 0.0
H1148 H 0.11591 0.4775 0.27023 0.0
H1149 H 0.10816 0.36136 0.23117 0.0
H1150 H 0.09719 0.36213 0.16802 0.0
H1151 H 0.07687 0.37112 0.21834 0.0
C1152 C 0.61623 0.61272 0.64671 0.0
C1153 C 0.62582 0.58833 0.65042 0.0
C1154 C 0.60554 0.62139 0.60254 0.0
C1155 C 0.60448 0.6053 0.56094 0.0
C1156 C 0.61342 0.58038 0.56482 0.0
C1157 C 0.62404 0.57217 0.60961 0.0
C1158 C 0.59625 0.64808 0.59989 0.0
C1159 C 0.61246 0.56266 0.52122 0.0
C1160 C 0.56424 0.6248 0.45108 0.0
C1161 C 0.58234 0.63481 0.41922 0.0
C1162 C 0.57111 0.61484 0.4974 0.0
C1163 C 0.59654 0.61544 0.51214 0.0
C1164 C 0.6147 0.62615 0.48041 0.0
C1165 C 0.60739 0.63547 0.43419 0.0
C1166 C 0.55134 0.60323 0.53005 0.0
C1167 C 0.64192 0.62761 0.49511 0.0
H1168 H 0.61738 0.62528 0.67821 0.0
H1169 H 0.6312 0.55323 0.61246 0.0
H1170 H 0.60813 0.65897 0.57394 0.0
H1171 H 0.57688 0.64859 0.58528 0.0
H1172 H 0.59655 0.6575 0.63662 0.0
H1173 H 0.61807 0.54331 0.53151 0.0
H1174 H 0.59331 0.56213 0.50543 0.0
H1175 H 0.62516 0.56944 0.4916 0.0
H1176 H 0.54491 0.62398 0.43912 0.0
H1177 H 0.62139 0.64327 0.40952 0.0
H1178 H 0.55133 0.61235 0.56701 0.0
H1179 H 0.5556 0.58311 0.53594 0.0
H1180 H 0.53233 0.60483 0.51376 0.0
H1181 H 0.64387 0.63809 0.53044 0.0
H1182 H 0.65357 0.63698 0.46648 0.0
H1183 H 0.6494 0.60849 0.50138 0.0
C1184 C 0.4041 0.11247 0.65811 0.0
C1185 C 0.39454 0.08812 0.6528 0.0
C1186 C 0.4147 0.12051 0.70283 0.0
C1187 C 0.41573 0.10384 0.7435 0.0
C1188 C 0.40676 0.07898 0.73808 0.0
C1189 C 0.39622 0.0714 0.69269 0.0
C1190 C 0.42399 0.14718 0.70702 0.0
C1191 C 0.40772 0.06064 0.78062 0.0
C1192 C 0.45654 0.12329 0.85277 0.0
C1193 C 0.43866 0.1335 0.8849 0.0
C1194 C 0.44935 0.11295 0.80691 0.0
C1195 C 0.42382 0.11334 0.79281 0.0
C1196 C 0.40584 0.12395 0.82505 0.0
C1197 C 0.41346 0.13367 0.87081 0.0
C1198 C 0.46898 0.10146 0.77375 0.0
C1199 C 0.37852 0.12522 0.81107 0.0
H1200 H 0.40302 0.12551 0.6274 0.0
H1201 H 0.38909 0.05249 0.68864 0.0
H1202 H 0.41226 0.15762 0.73395 0.0
H1203 H 0.44345 0.14748 0.72121 0.0
H1204 H 0.42349 0.1572 0.67095 0.0
H1205 H 0.40202 0.04146 0.76923 0.0
H1206 H 0.42688 0.05984 0.79626 0.0
H1207 H 0.39508 0.06702 0.8107 0.0
H1208 H 0.47599 0.12283 0.86398 0.0
H1209 H 0.3996 0.14158 0.89563 0.0
H1210 H 0.46939 0.11132 0.73756 0.0
H1211 H 0.46423 0.08158 0.76612 0.0
H1212 H 0.48794 0.10227 0.79045 0.0
H1213 H 0.37625 0.13622 0.77646 0.0
H1214 H 0.36691 0.13398 0.84051 0.0
H1215 H 0.37123 0.10611 0.80374 0.0
C1216 C 0.90697 0.90495 0.13773 0.0
C1217 C 0.89651 0.92873 0.1456 0.0
C1218 C 0.91787 0.8986 0.09235 0.0
C1219 C 0.91818 0.9164 0.05359 0.0
C1220 C 0.90851 0.94078 0.06173 0.0
C1221 C 0.89771 0.94669 0.10782 0.0
C1222 C 0.92793 0.87239 0.08518 0.0
C1223 C 0.9087 0.96027 0.0212 0.0
C1224 C 0.95711 0.89934 0.94042 0.0
C1225 C 0.93874 0.88915 0.90941 0.0
C1226 C 0.95068 0.90912 -0.01284 0.0
C1227 C 0.92543 0.90819 0.00306 0.0
C1228 C 0.90695 0.89773 0.97179 0.0
C1229 C 0.91383 0.88851 0.9253 0.0
C1230 C 0.97076 0.92046 0.01943 0.0
C1231 C 0.87991 0.89594 -0.01232 0.0
H1232 H 0.90627 0.89098 0.16683 0.0
H1233 H 0.88993 0.96518 0.11398 0.0
H1234 H 0.91593 0.8621 0.05848 0.0
H1235 H 0.94706 0.87301 0.06937 0.0
H1236 H 0.92851 0.86163 0.12042 0.0
H1237 H 0.90329 0.97909 0.03512 0.0
H1238 H 0.92753 0.96152 0.0041 0.0
H1239 H 0.89542 0.95472 -0.00843 0.0
H1240 H 0.97632 0.90019 0.92774 0.0
H1241 H 0.89959 0.88062 0.90128 0.0
H1242 H 0.97223 0.90987 0.05469 0.0
H1243 H 0.96574 0.94003 0.02913 0.0
H1244 H 0.98933 0.92047 0.001 0.0
H1245 H 0.87836 0.88414 0.0214 0.0
H1246 H 0.86779 0.88775 0.9584 0.0
H1247 H 0.87265 0.9148 -0.00276 0.0
loop_
_geom_bond_atom_site_label_1
_geom_bond_atom_site_label_2
_geom_bond_distance
_geom_bond_site_symmetry_2
_ccdc_geom_bond_type
Co0 O1 2.216 . S
Co0 O2 2.091 . S
Co0 O4 2.004 . S
Co0 O10 2.021 . S
Co0 O12 2.137 . S
Co0 O13 2.244 . S
O1 Co0 2.216 . S
O1 C8 1.247 . S
O2 Co0 2.091 . S
O2 C8 1.261 . S
C3 O12 1.247 . S
C3 O13 1.272 . S
O4 Co0 2.004 . S
O4 C9 1.259 . S
Co5 O6 2.061 . S
Co5 O11 2.052 . S
Co5 O13 2.135 . S
O6 Co5 2.061 . S
O6 C9 1.235 . S
C7 O10 1.238 . S
C7 O11 1.241 . S
C8 O1 1.247 . S
C8 O2 1.261 . S
C9 O4 1.259 . S
C9 O6 1.235 . S
O10 Co0 2.021 . S
O10 C7 1.238 . S
O11 Co5 2.052 . S
O11 C7 1.241 . S
O12 Co0 2.137 . S
O12 C3 1.247 . S
O13 Co0 2.244 . S
O13 C3 1.272 . S
O13 Co5 2.135 . S
Co14 O15 2.216 . S
Co14 O16 2.091 . S
Co14 O18 2.004 . S
Co14 O24 2.021 . S
Co14 O26 2.137 . S
Co14 O27 2.244 . S
O15 Co14 2.216 . S
O15 C22 1.247 . S
O16 Co14 2.091 . S
O16 C22 1.261 . S
C17 O26 1.247 . S
C17 O27 1.272 . S
O18 Co14 2.004 . S
O18 C23 1.259 . S
Co19 O20 2.061 . S
Co19 O25 2.052 . S
Co19 O27 2.135 . S
O20 Co19 2.061 . S
O20 C23 1.235 . S
C21 O24 1.238 . S
C21 O25 1.241 . S
C22 O15 1.247 . S
C22 O16 1.261 . S
C23 O18 1.259 . S
C23 O20 1.235 . S
O24 Co14 2.021 . S
O24 C21 1.238 . S
O25 Co19 2.052 . S
O25 C21 1.241 . S
O26 Co14 2.137 . S
O26 C17 1.247 . S
O27 Co14 2.244 . S
O27 C17 1.272 . S
O27 Co19 2.135 . S
Co28 O29 2.216 . S
Co28 O30 2.091 . S
Co28 O32 2.004 . S
Co28 O38 2.021 . S
Co28 O40 2.137 . S
Co28 O41 2.244 . S
O29 Co28 2.216 . S
O29 C36 1.247 . S
O30 Co28 2.091 . S
O30 C36 1.261 . S
C31 O40 1.247 . S
C31 O41 1.272 . S
O32 Co28 2.004 . S
O32 C37 1.259 . S
Co33 O34 2.061 . S
Co33 O39 2.052 . S
Co33 O41 2.135 . S
O34 Co33 2.061 . S
O34 C37 1.235 . S
C35 O38 1.238 . S
C35 O39 1.241 . S
C36 O29 1.247 . S
C36 O30 1.261 . S
C37 O32 1.259 . S
C37 O34 1.235 . S
O38 Co28 2.021 . S
O38 C35 1.238 . S
O39 Co33 2.052 . S
O39 C35 1.241 . S
O40 Co28 2.137 . S
O40 C31 1.247 . S
O41 Co28 2.244 . S
O41 C31 1.272 . S
O41 Co33 2.135 . S
Co42 O43 2.216 . S
Co42 O44 2.091 . S
Co42 O46 2.004 . S
Co42 O52 2.021 . S
Co42 O54 2.137 1_554 S
Co42 O55 2.244 . S
O43 Co42 2.216 . S
O43 C50 1.247 . S
O44 Co42 2.091 . S
O44 C50 1.261 . S
C45 O54 1.247 . S
C45 O55 1.272 1_556 S
O46 Co42 2.004 . S
O46 C51 1.259 . S
Co47 O48 2.061 . S
Co47 O53 2.052 . S
Co47 O55 2.135 . S
O48 Co47 2.061 . S
O48 C51 1.235 . S
C49 O52 1.238 . S
C49 O53 1.241 . S
C50 O43 1.247 . S
C50 O44 1.261 . S
C51 O46 1.259 . S
C51 O48 1.235 . S
O52 Co42 2.021 . S
O52 C49 1.238 . S
O53 Co47 2.052 . S
O53 C49 1.241 . S
O54 Co42 2.137 1_556 S
O54 C45 1.247 . S
O55 Co42 2.244 . S
O55 C45 1.272 1_554 S
O55 Co47 2.135 . S
Co56 O57 2.216 . S
Co56 O58 2.088 1_554 S
Co56 O60 2.004 . S
Co56 O66 2.021 1_554 S
Co56 O68 2.137 . S
Co56 O69 2.244 . S
O57 Co56 2.216 . S
O57 C64 1.244 1_554 S
O58 Co56 2.088 1_556 S
O58 C64 1.261 . S
C59 O68 1.247 . S
C59 O69 1.272 . S
O60 Co56 2.004 . S
O60 C65 1.259 . S
Co61 O62 2.061 . S
Co61 O67 2.052 1_554 S
Co61 O69 2.135 . S
O62 Co61 2.061 . S
O62 C65 1.235 . S
C63 O66 1.238 . S
C63 O67 1.241 . S
C64 O57 1.244 1_556 S
C64 O58 1.261 . S
C65 O60 1.259 . S
C65 O62 1.235 . S
O66 Co56 2.021 1_556 S
O66 C63 1.238 . S
O67 Co61 2.052 1_556 S
O67 C63 1.241 . S
O68 Co56 2.137 . S
O68 C59 1.247 . S
O69 Co56 2.244 . S
O69 C59 1.272 . S
O69 Co61 2.135 . S
Co70 O71 2.216 . S
Co70 O72 2.091 . S
Co70 O74 2.004 . S
Co70 O80 2.021 . S
Co70 O82 2.137 . S
Co70 O83 2.244 . S
O71 Co70 2.216 . S
O71 C78 1.247 . S
O72 Co70 2.091 . S
O72 C78 1.261 . S
C73 O82 1.247 . S
C73 O83 1.272 . S
O74 Co70 2.004 . S
O74 C79 1.259 . S
Co75 O76 2.061 . S
Co75 O81 2.052 . S
Co75 O83 2.135 . S
O76 Co75 2.061 . S
O76 C79 1.235 . S
C77 O80 1.238 . S
C77 O81 1.241 . S
C78 O71 1.247 . S
C78 O72 1.261 . S
C79 O74 1.259 . S
C79 O76 1.235 . S
O80 Co70 2.021 . S
O80 C77 1.238 . S
O81 Co75 2.052 . S
O81 C77 1.241 . S
O82 Co70 2.137 . S
O82 C73 1.247 . S
O83 Co70 2.244 . S
O83 C73 1.272 . S
O83 Co75 2.135 . S
Co84 O85 2.216 . S
Co84 O86 2.091 . S
Co84 O88 2.004 . S
Co84 O94 2.021 . S
Co84 O96 2.137 . S
Co84 O97 2.244 . S
O85 Co84 2.216 . S
O85 C92 1.247 . S
O86 Co84 2.091 . S
O86 C92 1.261 . S
C87 O96 1.247 . S
C87 O97 1.272 . S
O88 Co84 2.004 . S
O88 C93 1.259 . S
Co89 O90 2.061 . S
Co89 O95 2.052 . S
Co89 O97 2.135 . S
O90 Co89 2.061 . S
O90 C93 1.235 . S
C91 O94 1.238 . S
C91 O95 1.241 . S
C92 O85 1.247 . S
C92 O86 1.261 . S
C93 O88 1.259 . S
C93 O90 1.235 . S
O94 Co84 2.021 . S
O94 C91 1.238 . S
O95 Co89 2.052 . S
O95 C91 1.241 . S
O96 Co84 2.137 . S
O96 C87 1.247 . S
O97 Co84 2.244 . S
O97 C87 1.272 . S
O97 Co89 2.135 . S
Co98 O99 2.216 . S
Co98 O100 2.091 . S
Co98 O102 2.004 . S
Co98 O108 2.021 . S
Co98 O110 2.137 . S
Co98 O111 2.244 . S
O99 Co98 2.216 . S
O99 C106 1.247 . S
O100 Co98 2.091 . S
O100 C106 1.261 . S
C101 O110 1.247 . S
C101 O111 1.272 . S
O102 Co98 2.004 . S
O102 C107 1.259 . S
Co103 O104 2.061 . S
Co103 O109 2.052 . S
Co103 O111 2.135 . S
O104 Co103 2.061 . S
O104 C107 1.235 . S
C105 O108 1.238 . S
C105 O109 1.241 . S
C106 O99 1.247 . S
C106 O100 1.261 . S
C107 O102 1.259 . S
C107 O104 1.235 . S
O108 Co98 2.021 . S
O108 C105 1.238 . S
O109 Co103 2.052 . S
O109 C105 1.241 . S
O110 Co98 2.137 . S
O110 C101 1.247 . S
O111 Co98 2.244 . S
O111 C101 1.272 . S
O111 Co103 2.135 . S
Co112 O113 2.216 . S
Co112 O114 2.091 . S
Co112 O116 2.004 . S
Co112 O122 2.021 . S
Co112 O124 2.137 . S
Co112 O125 2.244 . S
O113 Co112 2.216 . S
O113 C120 1.247 . S
O114 Co112 2.091 . S
O114 C120 1.261 . S
C115 O124 1.247 . S
C115 O125 1.272 . S
O116 Co112 2.004 . S
O116 C121 1.259 . S
Co117 O118 2.061 . S
Co117 O123 2.052 . S
Co117 O125 2.135 . S
O118 Co117 2.061 . S
O118 C121 1.235 . S
C119 O122 1.238 . S
C119 O123 1.241 . S
C120 O113 1.247 . S
C120 O114 1.261 . S
C121 O116 1.259 . S
C121 O118 1.235 . S
O122 Co112 2.021 . S
O122 C119 1.238 . S
O123 Co117 2.052 . S
O123 C119 1.241 . S
O124 Co112 2.137 . S
O124 C115 1.247 . S
O125 Co112 2.244 . S
O125 C115 1.272 . S
O125 Co117 2.135 . S
Co126 O127 2.216 . S
Co126 O128 2.091 . S
Co126 O130 2.004 . S
Co126 O136 2.021 . S
Co126 O138 2.137 1_554 S
Co126 O139 2.244 . S
O127 Co126 2.216 . S
O127 C134 1.247 . S
O128 Co126 2.091 . S
O128 C134 1.261 . S
C129 O138 1.247 . S
C129 O139 1.272 1_556 S
O130 Co126 2.004 . S
O130 C135 1.259 . S
Co131 O132 2.061 . S
Co131 O137 2.052 . S
Co131 O139 2.135 . S
O132 Co131 2.061 . S
O132 C135 1.235 . S
C133 O136 1.238 . S
C133 O137 1.241 . S
C134 O127 1.247 . S
C134 O128 1.261 . S
C135 O130 1.259 . S
C135 O132 1.235 . S
O136 Co126 2.021 . S
O136 C133 1.238 . S
O137 Co131 2.052 . S
O137 C133 1.241 . S
O138 Co126 2.137 1_556 S
O138 C129 1.247 . S
O139 Co126 2.244 . S
O139 C129 1.272 1_554 S
O139 Co131 2.135 . S
Co140 O141 2.216 . S
Co140 O142 2.091 . S
Co140 O144 2.004 . S
Co140 O150 2.021 . S
Co140 O152 2.137 . S
Co140 O153 2.244 . S
O141 Co140 2.216 . S
O141 C148 1.247 . S
O142 Co140 2.091 . S
O142 C148 1.261 . S
C143 O152 1.247 . S
C143 O153 1.272 . S
O144 Co140 2.004 . S
O144 C149 1.259 . S
Co145 O146 2.061 . S
Co145 O151 2.052 . S
Co145 O153 2.135 . S
O146 Co145 2.061 . S
O146 C149 1.235 . S
C147 O150 1.238 . S
C147 O151 1.241 . S
C148 O141 1.247 . S
C148 O142 1.261 . S
C149 O144 1.259 . S
C149 O146 1.235 . S
O150 Co140 2.021 . S
O150 C147 1.238 . S
O151 Co145 2.052 . S
O151 C147 1.241 . S
O152 Co140 2.137 . S
O152 C143 1.247 . S
O153 Co140 2.244 . S
O153 C143 1.272 . S
O153 Co145 2.135 . S
Co154 O155 2.216 . S
Co154 O156 2.091 . S
Co154 O158 2.004 . S
Co154 O164 2.021 . S
Co154 O166 2.137 . S
Co154 O167 2.244 . S
O155 Co154 2.216 . S
O155 C162 1.247 . S
O156 Co154 2.091 . S
O156 C162 1.261 . S
C157 O166 1.247 . S
C157 O167 1.272 . S
O158 Co154 2.004 . S
O158 C163 1.259 . S
Co159 O160 2.061 . S
Co159 O165 2.052 . S
Co159 O167 2.135 . S
O160 Co159 2.061 . S
O160 C163 1.235 . S
C161 O164 1.238 . S
C161 O165 1.241 . S
C162 O155 1.247 . S
C162 O156 1.261 . S
C163 O158 1.259 . S
C163 O160 1.235 . S
O164 Co154 2.021 . S
O164 C161 1.238 . S
O165 Co159 2.052 . S
O165 C161 1.241 . S
O166 Co154 2.137 . S
O166 C157 1.247 . S
O167 Co154 2.244 . S
O167 C157 1.272 . S
O167 Co159 2.135 . S
Co168 O169 2.216 . S
Co168 O170 2.091 . S
Co168 O172 2.004 . S
Co168 O178 2.021 . S
Co168 O180 2.137 . S
Co168 O181 2.244 . S
O169 Co168 2.216 . S
O169 C176 1.247 . S
O170 Co168 2.091 . S
O170 C176 1.261 . S
C171 O180 1.247 . S
C171 O181 1.272 . S
O172 Co168 2.004 . S
O172 C177 1.259 . S
Co173 O174 2.061 . S
Co173 O179 2.052 . S
Co173 O181 2.135 . S
O174 Co173 2.061 . S
O174 C177 1.235 . S
C175 O178 1.238 . S
C175 O179 1.241 . S
C176 O169 1.247 . S
C176 O170 1.261 . S
C177 O172 1.259 . S
C177 O174 1.235 . S
O178 Co168 2.021 . S
O178 C175 1.238 . S
O179 Co173 2.052 . S
O179 C175 1.241 . S
O180 Co168 2.137 . S
O180 C171 1.247 . S
O181 Co168 2.244 . S
O181 C171 1.272 . S
O181 Co173 2.135 . S
Co182 O183 2.216 . S
Co182 O184 2.091 . S
Co182 O186 2.004 . S
Co182 O192 2.021 . S
Co182 O194 2.137 . S
Co182 O195 2.244 . S
O183 Co182 2.216 . S
O183 C190 1.247 . S
O184 Co182 2.091 . S
O184 C190 1.261 . S
C185 O194 1.247 . S
C185 O195 1.272 . S
O186 Co182 2.004 . S
O186 C191 1.259 . S
Co187 O188 2.061 . S
Co187 O193 2.052 . S
Co187 O195 2.135 . S
O188 Co187 2.061 . S
O188 C191 1.235 . S
C189 O192 1.238 . S
C189 O193 1.241 . S
C190 O183 1.247 . S
C190 O184 1.261 . S
C191 O186 1.259 . S
C191 O188 1.235 . S
O192 Co182 2.021 . S
O192 C189 1.238 . S
O193 Co187 2.052 . S
O193 C189 1.241 . S
O194 Co182 2.137 . S
O194 C185 1.247 . S
O195 Co182 2.244 . S
O195 C185 1.272 . S
O195 Co187 2.135 . S
Co196 O197 2.216 . S
Co196 O198 2.088 1_554 S
Co196 O200 2.004 . S
Co196 O206 2.021 1_554 S
Co196 O208 2.137 . S
Co196 O209 2.244 . S
O197 Co196 2.216 . S
O197 C204 1.244 1_554 S
O198 Co196 2.088 1_556 S
O198 C204 1.261 . S
C199 O208 1.247 . S
C199 O209 1.272 . S
O200 Co196 2.004 . S
O200 C205 1.259 . S
Co201 O202 2.061 . S
Co201 O207 2.052 1_554 S
Co201 O209 2.135 . S
O202 Co201 2.061 . S
O202 C205 1.235 . S
C203 O206 1.238 . S
C203 O207 1.241 . S
C204 O197 1.244 1_556 S
C204 O198 1.261 . S
C205 O200 1.259 . S
C205 O202 1.235 . S
O206 Co196 2.021 1_556 S
O206 C203 1.238 . S
O207 Co201 2.052 1_556 S
O207 C203 1.241 . S
O208 Co196 2.137 . S
O208 C199 1.247 . S
O209 Co196 2.244 . S
O209 C199 1.272 . S
O209 Co201 2.135 . S
Co210 O211 2.216 . S
Co210 O212 2.091 . S
Co210 O214 2.004 . S
Co210 O220 2.021 . S
Co210 O222 2.137 . S
Co210 O223 2.244 . S
O211 Co210 2.216 . S
O211 C218 1.247 . S
O212 Co210 2.091 . S
O212 C218 1.261 . S
C213 O222 1.247 . S
C213 O223 1.272 . S
O214 Co210 2.004 . S
O214 C219 1.259 . S
Co215 O216 2.061 . S
Co215 O221 2.052 . S
Co215 O223 2.135 . S
O216 Co215 2.061 . S
O216 C219 1.235 . S
C217 O220 1.238 . S
C217 O221 1.241 . S
C218 O211 1.247 . S
C218 O212 1.261 . S
C219 O214 1.259 . S
C219 O216 1.235 . S
O220 Co210 2.021 . S
O220 C217 1.238 . S
O221 Co215 2.052 . S
O221 C217 1.241 . S
O222 Co210 2.137 . S
O222 C213 1.247 . S
O223 Co210 2.244 . S
O223 C213 1.272 . S
O223 Co215 2.135 . S
C224 C225 1.391 . S
C224 C226 1.394 . S
C224 H240 0.931 . S
C225 C224 1.391 . S
C225 C229 1.376 . S
C226 C224 1.394 . S
C226 C227 1.369 . S
C226 C230 1.531 . S
C227 C226 1.369 . S
C227 C228 1.410 . S
C227 C235 1.503 . S
C228 C227 1.410 . S
C228 C229 1.392 . S
C228 C231 1.511 . S
C229 C225 1.376 . S
C229 C228 1.392 . S
C229 H241 0.929 . S
C230 C226 1.531 . S
C230 H242 0.960 . S
C230 H243 0.962 . S
C230 H244 0.960 . S
C231 C228 1.511 . S
C231 H245 0.961 . S
C231 H246 0.961 . S
C231 H247 0.961 . S
C232 C233 1.370 . S
C232 C234 1.363 . S
C232 H248 0.931 . S
C233 C232 1.370 . S
C233 C237 1.408 . S
C234 C232 1.363 . S
C234 C235 1.370 . S
C234 C238 1.524 . S
C235 C227 1.503 . S
C235 C234 1.370 . S
C235 C236 1.403 . S
C236 C235 1.403 . S
C236 C237 1.404 . S
C236 C239 1.539 . S
C237 C233 1.408 . S
C237 C236 1.404 . S
C237 H249 0.930 . S
C238 C234 1.524 . S
C238 H250 0.956 . S
C238 H251 0.961 . S
C238 H252 0.961 . S
C239 C236 1.539 . S
C239 H253 0.958 . S
C239 H254 0.961 . S
C239 H255 0.960 . S
H240 C224 0.931 . S
H241 C229 0.929 . S
H242 C230 0.960 . S
H243 C230 0.962 . S
H244 C230 0.960 . S
H245 C231 0.961 . S
H246 C231 0.961 . S
H247 C231 0.961 . S
H248 C232 0.931 . S
H249 C237 0.930 . S
H250 C238 0.956 . S
H251 C238 0.961 . S
H252 C238 0.961 . S
H253 C239 0.958 . S
H254 C239 0.961 . S
H255 C239 0.960 . S
C256 C257 1.391 . S
C256 C258 1.394 . S
C256 H272 0.931 . S
C257 C256 1.391 . S
C257 C261 1.376 . S
C258 C256 1.394 . S
C258 C259 1.369 . S
C258 C262 1.531 . S
C259 C258 1.369 . S
C259 C260 1.410 . S
C259 C267 1.503 . S
C260 C259 1.410 . S
C260 C261 1.392 . S
C260 C263 1.511 . S
C261 C257 1.376 . S
C261 C260 1.392 . S
C261 H273 0.929 . S
C262 C258 1.531 . S
C262 H274 0.960 . S
C262 H275 0.962 . S
C262 H276 0.960 . S
C263 C260 1.511 . S
C263 H277 0.961 . S
C263 H278 0.961 . S
C263 H279 0.961 . S
C264 C265 1.370 . S
C264 C266 1.363 . S
C264 H280 0.931 . S
C265 C264 1.370 . S
C265 C269 1.408 . S
C266 C264 1.363 . S
C266 C267 1.370 . S
C266 C270 1.524 . S
C267 C259 1.503 . S
C267 C266 1.370 . S
C267 C268 1.403 . S
C268 C267 1.403 . S
C268 C269 1.404 . S
C268 C271 1.539 . S
C269 C265 1.408 . S
C269 C268 1.404 . S
C269 H281 0.930 . S
C270 C266 1.524 . S
C270 H282 0.956 . S
C270 H283 0.961 . S
C270 H284 0.961 . S
C271 C268 1.539 . S
C271 H285 0.958 . S
C271 H286 0.961 . S
C271 H287 0.960 . S
H272 C256 0.931 . S
H273 C261 0.929 . S
H274 C262 0.960 . S
H275 C262 0.962 . S
H276 C262 0.960 . S
H277 C263 0.961 . S
H278 C263 0.961 . S
H279 C263 0.961 . S
H280 C264 0.931 . S
H281 C269 0.930 . S
H282 C270 0.956 . S
H283 C270 0.961 . S
H284 C270 0.961 . S
H285 C271 0.958 . S
H286 C271 0.961 . S
H287 C271 0.960 . S
C288 C289 1.391 . S
C288 C290 1.394 . S
C288 H304 0.931 . S
C289 C288 1.391 . S
C289 C293 1.376 . S
C290 C288 1.394 . S
C290 C291 1.369 . S
C290 C294 1.531 . S
C291 C290 1.369 . S
C291 C292 1.410 . S
C291 C299 1.503 . S
C292 C291 1.410 . S
C292 C293 1.392 . S
C292 C295 1.511 . S
C293 C289 1.376 . S
C293 C292 1.392 . S
C293 H305 0.929 . S
C294 C290 1.531 . S
C294 H306 0.960 . S
C294 H307 0.962 . S
C294 H308 0.960 . S
C295 C292 1.511 . S
C295 H309 0.961 . S
C295 H310 0.961 . S
C295 H311 0.961 . S
C296 C297 1.370 . S
C296 C298 1.363 . S
C296 H312 0.931 . S
C297 C296 1.370 . S
C297 C301 1.408 . S
C298 C296 1.363 . S
C298 C299 1.370 . S
C298 C302 1.524 . S
C299 C291 1.503 . S
C299 C298 1.370 . S
C299 C300 1.403 . S
C300 C299 1.403 . S
C300 C301 1.404 . S
C300 C303 1.539 . S
C301 C297 1.408 . S
C301 C300 1.404 . S
C301 H313 0.930 . S
C302 C298 1.524 . S
C302 H314 0.956 . S
C302 H315 0.961 . S
C302 H316 0.961 . S
C303 C300 1.539 . S
C303 H317 0.958 . S
C303 H318 0.961 . S
C303 H319 0.960 . S
H304 C288 0.931 . S
H305 C293 0.929 . S
H306 C294 0.960 . S
H307 C294 0.962 . S
H308 C294 0.960 . S
H309 C295 0.961 . S
H310 C295 0.961 . S
H311 C295 0.961 . S
H312 C296 0.931 . S
H313 C301 0.930 . S
H314 C302 0.956 . S
H315 C302 0.961 . S
H316 C302 0.961 . S
H317 C303 0.958 . S
H318 C303 0.961 . S
H319 C303 0.960 . S
C320 C321 1.391 . S
C320 C322 1.394 . S
C320 H336 0.931 . S
C321 C320 1.391 . S
C321 C325 1.376 . S
C322 C320 1.394 . S
C322 C323 1.369 . S
C322 C326 1.531 . S
C323 C322 1.369 . S
C323 C324 1.410 . S
C323 C331 1.503 . S
C324 C323 1.410 . S
C324 C325 1.392 . S
C324 C327 1.511 . S
C325 C321 1.376 . S
C325 C324 1.392 . S
C325 H337 0.929 . S
C326 C322 1.531 . S
C326 H338 0.960 . S
C326 H339 0.962 . S
C326 H340 0.960 . S
C327 C324 1.511 . S
C327 H341 0.961 . S
C327 H342 0.961 . S
C327 H343 0.961 . S
C328 C329 1.370 . S
C328 C330 1.363 . S
C328 H344 0.931 . S
C329 C328 1.370 . S
C329 C333 1.408 . S
C330 C328 1.363 . S
C330 C331 1.370 . S
C330 C334 1.524 . S
C331 C323 1.503 . S
C331 C330 1.370 . S
C331 C332 1.403 . S
C332 C331 1.403 . S
C332 C333 1.404 . S
C332 C335 1.539 . S
C333 C329 1.408 . S
C333 C332 1.404 . S
C333 H345 0.930 . S
C334 C330 1.524 . S
C334 H346 0.956 . S
C334 H347 0.961 . S
C334 H348 0.961 . S
C335 C332 1.539 . S
C335 H349 0.958 . S
C335 H350 0.961 . S
C335 H351 0.960 . S
H336 C320 0.931 . S
H337 C325 0.929 . S
H338 C326 0.960 . S
H339 C326 0.962 . S
H340 C326 0.960 . S
H341 C327 0.961 . S
H342 C327 0.961 . S
H343 C327 0.961 . S
H344 C328 0.931 . S
H345 C333 0.930 . S
H346 C334 0.956 . S
H347 C334 0.961 . S
H348 C334 0.961 . S
H349 C335 0.958 . S
H350 C335 0.961 . S
H351 C335 0.960 . S
C352 C353 1.391 . S
C352 C354 1.394 . S
C352 H368 0.931 . S
C353 C352 1.391 . S
C353 C357 1.376 . S
C354 C352 1.394 . S
C354 C355 1.369 . S
C354 C358 1.531 . S
C355 C354 1.369 . S
C355 C356 1.410 . S
C355 C363 1.503 . S
C356 C355 1.410 . S
C356 C357 1.392 . S
C356 C359 1.511 . S
C357 C353 1.376 . S
C357 C356 1.392 . S
C357 H369 0.929 . S
C358 C354 1.531 . S
C358 H370 0.960 . S
C358 H371 0.962 . S
C358 H372 0.960 . S
C359 C356 1.511 . S
C359 H373 0.961 . S
C359 H374 0.961 . S
C359 H375 0.961 . S
C360 C361 1.370 . S
C360 C362 1.363 . S
C360 H376 0.931 1_556 S
C361 C360 1.370 . S
C361 C365 1.408 . S
C362 C360 1.363 . S
C362 C363 1.370 . S
C362 C366 1.524 . S
C363 C355 1.503 . S
C363 C362 1.370 . S
C363 C364 1.403 . S
C364 C363 1.403 . S
C364 C365 1.404 . S
C364 C367 1.539 . S
C365 C361 1.408 . S
C365 C364 1.404 . S
C365 H377 0.930 . S
C366 C362 1.524 . S
C366 H378 0.956 . S
C366 H379 0.961 . S
C366 H380 0.961 1_556 S
C367 C364 1.539 . S
C367 H381 0.958 . S
C367 H382 0.961 . S
C367 H383 0.960 . S
H368 C352 0.931 . S
H369 C357 0.929 . S
H370 C358 0.960 . S
H371 C358 0.962 . S
H372 C358 0.960 . S
H373 C359 0.961 . S
H374 C359 0.961 . S
H375 C359 0.961 . S
H376 C360 0.931 1_554 S
H377 C365 0.930 . S
H378 C366 0.956 . S
H379 C366 0.961 . S
H380 C366 0.961 1_554 S
H381 C367 0.958 . S
H382 C367 0.961 . S
H383 C367 0.960 . S
C384 C385 1.391 . S
C384 C386 1.394 . S
C384 H400 0.931 . S
C385 C384 1.391 . S
C385 C389 1.376 . S
C386 C384 1.394 . S
C386 C387 1.369 . S
C386 C390 1.531 . S
C387 C386 1.369 . S
C387 C388 1.410 . S
C387 C395 1.503 . S
C388 C387 1.410 . S
C388 C389 1.392 . S
C388 C391 1.511 . S
C389 C385 1.376 . S
C389 C388 1.392 . S
C389 H401 0.929 . S
C390 C386 1.531 . S
C390 H402 0.960 . S
C390 H403 0.962 . S
C390 H404 0.960 . S
C391 C388 1.511 . S
C391 H405 0.961 . S
C391 H406 0.961 . S
C391 H407 0.961 . S
C392 C393 1.370 . S
C392 C394 1.363 . S
C392 H408 0.931 . S
C393 C392 1.370 . S
C393 C397 1.408 . S
C394 C392 1.363 . S
C394 C395 1.370 . S
C394 C398 1.524 . S
C395 C387 1.503 . S
C395 C394 1.370 . S
C395 C396 1.403 . S
C396 C395 1.403 . S
C396 C397 1.404 . S
C396 C399 1.539 . S
C397 C393 1.408 . S
C397 C396 1.404 . S
C397 H409 0.930 . S
C398 C394 1.524 . S
C398 H410 0.956 . S
C398 H411 0.961 . S
C398 H412 0.961 . S
C399 C396 1.539 . S
C399 H413 0.958 . S
C399 H414 0.961 . S
C399 H415 0.960 . S
H400 C384 0.931 . S
H401 C389 0.929 . S
H402 C390 0.960 . S
H403 C390 0.962 . S
H404 C390 0.960 . S
H405 C391 0.961 . S
H406 C391 0.961 . S
H407 C391 0.961 . S
H408 C392 0.931 . S
H409 C397 0.930 . S
H410 C398 0.956 . S
H411 C398 0.961 . S
H412 C398 0.961 . S
H413 C399 0.958 . S
H414 C399 0.961 . S
H415 C399 0.960 . S
C416 C417 1.391 . S
C416 C418 1.394 . S
C416 H432 0.931 . S
C417 C416 1.391 . S
C417 C421 1.376 . S
C418 C416 1.394 . S
C418 C419 1.369 . S
C418 C422 1.531 . S
C419 C418 1.369 . S
C419 C420 1.410 . S
C419 C427 1.503 . S
C420 C419 1.410 . S
C420 C421 1.392 . S
C420 C423 1.511 . S
C421 C417 1.376 . S
C421 C420 1.392 . S
C421 H433 0.929 . S
C422 C418 1.531 . S
C422 H434 0.960 . S
C422 H435 0.962 . S
C422 H436 0.960 . S
C423 C420 1.511 . S
C423 H437 0.961 . S
C423 H438 0.961 . S
C423 H439 0.961 . S
C424 C425 1.370 . S
C424 C426 1.363 . S
C424 H440 0.931 . S
C425 C424 1.370 . S
C425 C429 1.408 . S
C426 C424 1.363 . S
C426 C427 1.370 . S
C426 C430 1.524 . S
C427 C419 1.503 . S
C427 C426 1.370 . S
C427 C428 1.403 . S
C428 C427 1.403 . S
C428 C429 1.404 . S
C428 C431 1.539 . S
C429 C425 1.408 . S
C429 C428 1.404 . S
C429 H441 0.930 . S
C430 C426 1.524 . S
C430 H442 0.956 . S
C430 H443 0.961 . S
C430 H444 0.961 . S
C431 C428 1.539 . S
C431 H445 0.958 . S
C431 H446 0.961 . S
C431 H447 0.960 . S
H432 C416 0.931 . S
H433 C421 0.929 . S
H434 C422 0.960 . S
H435 C422 0.962 . S
H436 C422 0.960 . S
H437 C423 0.961 . S
H438 C423 0.961 . S
H439 C423 0.961 . S
H440 C424 0.931 . S
H441 C429 0.930 . S
H442 C430 0.956 . S
H443 C430 0.961 . S
H444 C430 0.961 . S
H445 C431 0.958 . S
H446 C431 0.961 . S
H447 C431 0.960 . S
C448 C449 1.391 . S
C448 C450 1.394 . S
C448 H464 0.931 . S
C449 C448 1.391 . S
C449 C453 1.376 . S
C450 C448 1.394 . S
C450 C451 1.369 . S
C450 C454 1.531 . S
C451 C450 1.369 . S
C451 C452 1.410 . S
C451 C459 1.503 . S
C452 C451 1.410 . S
C452 C453 1.392 . S
C452 C455 1.511 . S
C453 C449 1.376 . S
C453 C452 1.392 . S
C453 H465 0.929 . S
C454 C450 1.531 . S
C454 H466 0.960 . S
C454 H467 0.962 . S
C454 H468 0.960 . S
C455 C452 1.511 . S
C455 H469 0.961 . S
C455 H470 0.961 . S
C455 H471 0.961 . S
C456 C457 1.370 . S
C456 C458 1.363 . S
C456 H472 0.931 . S
C457 C456 1.370 . S
C457 C461 1.408 . S
C458 C456 1.363 . S
C458 C459 1.370 . S
C458 C462 1.524 . S
C459 C451 1.503 . S
C459 C458 1.370 . S
C459 C460 1.403 . S
C460 C459 1.403 . S
C460 C461 1.404 . S
C460 C463 1.539 . S
C461 C457 1.408 . S
C461 C460 1.404 . S
C461 H473 0.930 . S
C462 C458 1.524 . S
C462 H474 0.956 . S
C462 H475 0.961 . S
C462 H476 0.961 . S
C463 C460 1.539 . S
C463 H477 0.958 . S
C463 H478 0.961 . S
C463 H479 0.960 . S
H464 C448 0.931 . S
H465 C453 0.929 . S
H466 C454 0.960 . S
H467 C454 0.962 . S
H468 C454 0.960 . S
H469 C455 0.961 . S
H470 C455 0.961 . S
H471 C455 0.961 . S
H472 C456 0.931 . S
H473 C461 0.930 . S
H474 C462 0.956 . S
H475 C462 0.961 . S
H476 C462 0.961 . S
H477 C463 0.958 . S
H478 C463 0.961 . S
H479 C463 0.960 . S
C480 C481 1.391 . S
C480 C482 1.394 1_545 S
C480 H496 0.931 1_545 S
C481 C480 1.391 . S
C481 C485 1.376 . S
C482 C480 1.394 1_565 S
C482 C483 1.369 1_565 S
C482 C486 1.531 . S
C483 C482 1.369 1_545 S
C483 C484 1.410 . S
C483 C491 1.503 1_445 S
C484 C483 1.410 . S
C484 C485 1.392 . S
C484 C487 1.511 1_455 S
C485 C481 1.376 . S
C485 C484 1.392 . S
C485 H497 0.929 . S
C486 C482 1.531 . S
C486 H498 0.960 . S
C486 H499 0.962 . S
C486 H500 0.960 . S
C487 C484 1.511 1_655 S
C487 H501 0.961 . S
C487 H502 0.961 . S
C487 H503 0.961 . S
C488 C489 1.370 . S
C488 C490 1.363 . S
C488 H504 0.931 . S
C489 C488 1.370 . S
C489 C493 1.408 . S
C490 C488 1.363 . S
C490 C491 1.370 . S
C490 C494 1.524 . S
C491 C483 1.503 1_665 S
C491 C490 1.370 . S
C491 C492 1.403 . S
C492 C491 1.403 . S
C492 C493 1.404 . S
C492 C495 1.539 . S
C493 C489 1.408 . S
C493 C492 1.404 . S
C493 H505 0.930 . S
C494 C490 1.524 . S
C494 H506 0.956 1_655 S
C494 H507 0.961 1_565 S
C494 H508 0.961 . S
C495 C492 1.539 . S
C495 H509 0.958 . S
C495 H510 0.971 . S
C495 H511 0.960 1_565 S
H496 C480 0.931 1_565 S
H497 C485 0.929 . S
H498 C486 0.960 . S
H499 C486 0.962 . S
H500 C486 0.960 . S
H501 C487 0.961 . S
H502 C487 0.961 . S
H503 C487 0.961 . S
H504 C488 0.931 . S
H505 C493 0.930 . S
H506 C494 0.956 1_455 S
H507 C494 0.961 1_545 S
H508 C494 0.961 . S
H509 C495 0.958 . S
H510 C495 0.971 . S
H511 C495 0.960 1_545 S
C512 C513 1.391 . S
C512 C514 1.394 . S
C512 H528 0.931 . S
C513 C512 1.391 . S
C513 C517 1.376 . S
C514 C512 1.394 . S
C514 C515 1.369 . S
C514 C518 1.531 . S
C515 C514 1.369 . S
C515 C516 1.410 1_655 S
C515 C523 1.503 1_655 S
C516 C515 1.410 1_455 S
C516 C517 1.392 1_455 S
C516 C519 1.511 . S
C517 C513 1.376 . S
C517 C516 1.392 1_655 S
C517 H529 0.929 1_655 S
C518 C514 1.531 . S
C518 H530 0.960 . S
C518 H531 0.962 . S
C518 H532 0.960 . S
C519 C516 1.511 . S
C519 H533 0.961 . S
C519 H534 0.961 . S
C519 H535 0.961 . S
C520 C521 1.370 . S
C520 C522 1.363 . S
C520 H536 0.931 . S
C521 C520 1.370 . S
C521 C525 1.408 . S
C522 C520 1.363 . S
C522 C523 1.370 . S
C522 C526 1.524 1_455 S
C523 C515 1.503 1_455 S
C523 C522 1.370 . S
C523 C524 1.403 . S
C524 C523 1.403 . S
C524 C525 1.404 . S
C524 C527 1.539 . S
C525 C521 1.408 . S
C525 C524 1.404 . S
C525 H537 0.930 . S
C526 C522 1.524 1_655 S
C526 H538 0.956 . S
C526 H539 0.961 . S
C526 H540 0.961 . S
C527 C524 1.539 . S
C527 H541 0.958 . S
C527 H542 0.961 . S
C527 H543 0.960 . S
H528 C512 0.931 . S
H529 C517 0.929 1_455 S
H530 C518 0.960 . S
H531 C518 0.962 . S
H532 C518 0.960 . S
H533 C519 0.961 . S
H534 C519 0.961 . S
H535 C519 0.961 . S
H536 C520 0.931 . S
H537 C525 0.930 . S
H538 C526 0.956 . S
H539 C526 0.961 . S
H540 C526 0.961 . S
H541 C527 0.958 . S
H542 C527 0.961 . S
H543 C527 0.960 . S
C544 C545 1.391 . S
C544 C546 1.394 . S
C544 H560 0.931 . S
C545 C544 1.391 . S
C545 C549 1.376 . S
C546 C544 1.394 . S
C546 C547 1.369 . S
C546 C550 1.531 . S
C547 C546 1.369 . S
C547 C548 1.410 . S
C547 C555 1.503 . S
C548 C547 1.410 . S
C548 C549 1.392 . S
C548 C551 1.511 . S
C549 C545 1.376 . S
C549 C548 1.392 . S
C549 H561 0.929 . S
C550 C546 1.531 . S
C550 H562 0.960 . S
C550 H563 0.962 . S
C550 H564 0.960 . S
C551 C548 1.511 . S
C551 H565 0.961 . S
C551 H566 0.961 . S
C551 H567 0.961 . S
C552 C553 1.370 . S
C552 C554 1.363 . S
C552 H568 0.931 . S
C553 C552 1.370 . S
C553 C557 1.408 . S
C554 C552 1.363 . S
C554 C555 1.370 . S
C554 C558 1.524 . S
C555 C547 1.503 . S
C555 C554 1.370 . S
C555 C556 1.403 . S
C556 C555 1.403 . S
C556 C557 1.404 . S
C556 C559 1.539 . S
C557 C553 1.408 . S
C557 C556 1.404 . S
C557 H569 0.930 . S
C558 C554 1.524 . S
C558 H570 0.956 . S
C558 H571 0.961 . S
C558 H572 0.961 . S
C559 C556 1.539 . S
C559 H573 0.958 . S
C559 H574 0.961 . S
C559 H575 0.960 . S
H560 C544 0.931 . S
H561 C549 0.929 . S
H562 C550 0.960 . S
H563 C550 0.962 . S
H564 C550 0.960 . S
H565 C551 0.961 . S
H566 C551 0.961 . S
H567 C551 0.961 . S
H568 C552 0.931 . S
H569 C557 0.930 . S
H570 C558 0.956 . S
H571 C558 0.961 . S
H572 C558 0.961 . S
H573 C559 0.958 . S
H574 C559 0.961 . S
H575 C559 0.960 . S
C576 C577 1.391 . S
C576 C578 1.394 . S
C576 H592 0.931 1_554 S
C577 C576 1.391 . S
C577 C581 1.376 . S
C578 C576 1.394 . S
C578 C579 1.369 . S
C578 C582 1.531 1_554 S
C579 C578 1.369 . S
C579 C580 1.410 . S
C579 C587 1.503 1_565 S
C580 C579 1.410 . S
C580 C581 1.392 . S
C580 C583 1.511 . S
C581 C577 1.376 . S
C581 C580 1.392 . S
C581 H593 0.929 . S
C582 C578 1.531 1_556 S
C582 H594 0.960 . S
C582 H595 0.962 . S
C582 H596 0.960 . S
C583 C580 1.511 . S
C583 H597 0.961 . S
C583 H598 0.961 1_565 S
C583 H599 0.961 . S
C584 C585 1.370 . S
C584 C586 1.363 . S
C584 H600 0.931 . S
C585 C584 1.370 . S
C585 C589 1.408 . S
C586 C584 1.363 . S
C586 C587 1.370 . S
C586 C590 1.524 . S
C587 C579 1.503 1_545 S
C587 C586 1.370 . S
C587 C588 1.403 . S
C588 C587 1.403 . S
C588 C589 1.404 . S
C588 C591 1.539 1_545 S
C589 C585 1.408 . S
C589 C588 1.404 . S
C589 H601 0.930 . S
C590 C586 1.524 . S
C590 H602 0.956 1_554 S
C590 H603 0.961 . S
C590 H604 0.961 . S
C591 C588 1.539 1_565 S
C591 H605 0.958 . S
C591 H606 0.977 . S
C591 H607 0.960 . S
H592 C576 0.931 1_556 S
H593 C581 0.929 . S
H594 C582 0.960 . S
H595 C582 0.962 . S
H596 C582 0.960 . S
H597 C583 0.961 . S
H598 C583 0.961 1_545 S
H599 C583 0.961 . S
H600 C584 0.931 . S
H601 C589 0.930 . S
H602 C590 0.956 1_556 S
H603 C590 0.961 . S
H604 C590 0.961 . S
H605 C591 0.958 . S
H606 C591 0.977 . S
H607 C591 0.960 . S
C608 C609 1.391 1_556 S
C608 C610 1.394 . S
C608 H624 0.931 . S
C609 C608 1.391 1_554 S
C609 C613 1.376 . S
C610 C608 1.394 . S
C610 C611 1.369 1_556 S
C610 C614 1.531 1_455 S
C611 C610 1.369 1_554 S
C611 C612 1.410 . S
C611 C619 1.503 1_455 S
C612 C611 1.410 . S
C612 C613 1.392 . S
C612 C615 1.511 . S
C613 C609 1.376 . S
C613 C612 1.392 . S
C613 H625 0.929 . S
C614 C610 1.531 1_655 S
C614 H626 0.960 . S
C614 H627 0.962 . S
C614 H628 0.960 . S
C615 C612 1.511 . S
C615 H629 0.961 . S
C615 H630 0.961 . S
C615 H631 0.961 . S
C616 C617 1.370 1_556 S
C616 C618 1.363 . S
C616 H632 0.931 . S
C617 C616 1.370 1_554 S
C617 C621 1.408 . S
C618 C616 1.363 . S
C618 C619 1.370 1_556 S
C618 C622 1.524 1_655 S
C619 C611 1.503 1_655 S
C619 C618 1.370 1_554 S
C619 C620 1.403 . S
C620 C619 1.403 . S
C620 C621 1.404 . S
C620 C623 1.539 . S
C621 C617 1.408 . S
C621 C620 1.404 . S
C621 H633 0.930 . S
C622 C618 1.524 1_455 S
C622 H634 0.956 . S
C622 H635 0.961 . S
C622 H636 0.961 . S
C623 C620 1.539 . S
C623 H637 0.958 . S
C623 H638 0.961 . S
C623 H639 0.960 . S
H624 C608 0.931 . S
H625 C613 0.929 . S
H626 C614 0.960 . S
H627 C614 0.962 . S
H628 C614 0.960 . S
H629 C615 0.961 . S
H630 C615 0.961 . S
H631 C615 0.961 . S
H632 C616 0.931 . S
H633 C621 0.930 . S
H634 C622 0.956 . S
H635 C622 0.961 . S
H636 C622 0.961 . S
H637 C623 0.958 . S
H638 C623 0.961 . S
H639 C623 0.960 . S
C640 C641 1.391 . S
C640 C642 1.394 . S
C640 H656 0.931 . S
C641 C640 1.391 . S
C641 C645 1.376 . S
C642 C640 1.394 . S
C642 C643 1.369 . S
C642 C646 1.531 . S
C643 C642 1.369 . S
C643 C644 1.410 . S
C643 C651 1.503 . S
C644 C643 1.410 . S
C644 C645 1.392 . S
C644 C647 1.511 . S
C645 C641 1.376 . S
C645 C644 1.392 . S
C645 H657 0.929 . S
C646 C642 1.531 . S
C646 H658 0.960 . S
C646 H659 0.962 . S
C646 H660 0.960 . S
C647 C644 1.511 . S
C647 H661 0.961 . S
C647 H662 0.961 . S
C647 H663 0.961 . S
C648 C649 1.370 . S
C648 C650 1.363 . S
C648 H664 0.931 . S
C649 C648 1.370 . S
C649 C653 1.408 . S
C650 C648 1.363 . S
C650 C651 1.370 . S
C650 C654 1.524 . S
C651 C643 1.503 . S
C651 C650 1.370 . S
C651 C652 1.403 . S
C652 C651 1.403 . S
C652 C653 1.404 . S
C652 C655 1.539 . S
C653 C649 1.408 . S
C653 C652 1.404 . S
C653 H665 0.930 . S
C654 C650 1.524 . S
C654 H666 0.956 . S
C654 H667 0.961 . S
C654 H668 0.961 . S
C655 C652 1.539 . S
C655 H669 0.958 . S
C655 H670 0.961 . S
C655 H671 0.960 . S
H656 C640 0.931 . S
H657 C645 0.929 . S
H658 C646 0.960 . S
H659 C646 0.962 . S
H660 C646 0.960 . S
H661 C647 0.961 . S
H662 C647 0.961 . S
H663 C647 0.961 . S
H664 C648 0.931 . S
H665 C653 0.930 . S
H666 C654 0.956 . S
H667 C654 0.961 . S
H668 C654 0.961 . S
H669 C655 0.958 . S
H670 C655 0.961 . S
H671 C655 0.960 . S
C672 C673 1.391 . S
C672 C674 1.394 . S
C672 H688 0.931 . S
C673 C672 1.391 . S
C673 C677 1.376 . S
C674 C672 1.394 . S
C674 C675 1.369 . S
C674 C678 1.531 . S
C675 C674 1.369 . S
C675 C676 1.410 1_545 S
C675 C683 1.503 1_545 S
C676 C675 1.410 1_565 S
C676 C677 1.392 1_565 S
C676 C679 1.511 . S
C677 C673 1.376 . S
C677 C676 1.392 1_545 S
C677 H689 0.928 . S
C678 C674 1.531 . S
C678 H690 0.960 . S
C678 H691 0.962 . S
C678 H692 0.960 . S
C679 C676 1.511 . S
C679 H693 0.961 . S
C679 H694 0.961 . S
C679 H695 0.961 . S
C680 C681 1.370 . S
C680 C682 1.382 . S
C680 H696 0.931 . S
C681 C680 1.370 . S
C681 C685 1.408 . S
C682 C680 1.382 . S
C682 C683 1.385 . S
C682 C686 1.492 1_565 S
C683 C675 1.503 1_565 S
C683 C682 1.385 . S
C683 C684 1.403 . S
C684 C683 1.403 . S
C684 C685 1.404 . S
C684 C687 1.539 . S
C685 C681 1.408 . S
C685 C684 1.404 . S
C685 H697 0.930 . S
C686 C682 1.492 1_545 S
C686 H698 0.956 . S
C686 H699 0.961 . S
C686 H700 0.961 . S
C687 C684 1.539 . S
C687 H701 0.958 . S
C687 H702 0.961 . S
C687 H703 0.960 . S
H688 C672 0.931 . S
H689 C677 0.928 . S
H690 C678 0.960 . S
H691 C678 0.962 . S
H692 C678 0.960 . S
H693 C679 0.961 . S
H694 C679 0.961 . S
H695 C679 0.961 . S
H696 C680 0.931 . S
H697 C685 0.930 . S
H698 C686 0.956 . S
H699 C686 0.961 . S
H700 C686 0.961 . S
H701 C687 0.958 . S
H702 C687 0.961 . S
H703 C687 0.960 . S
C704 C705 1.391 . S
C704 C706 1.394 . S
C704 H720 0.931 . S
C705 C704 1.391 . S
C705 C709 1.376 . S
C706 C704 1.394 . S
C706 C707 1.369 . S
C706 C710 1.531 . S
C707 C706 1.369 . S
C707 C708 1.410 . S
C707 C715 1.503 1_445 S
C708 C707 1.410 . S
C708 C709 1.392 . S
C708 C711 1.499 1_455 S
C709 C705 1.376 . S
C709 C708 1.392 . S
C709 H721 0.929 . S
C710 C706 1.531 . S
C710 H722 0.960 1_545 S
C710 H723 0.962 . S
C710 H724 0.960 . S
C711 C708 1.499 1_655 S
C711 H725 0.971 . S
C711 H726 0.984 . S
C711 H727 0.940 1_655 S
C712 C713 1.370 . S
C712 C714 1.363 . S
C712 H728 0.931 . S
C713 C712 1.370 . S
C713 C717 1.408 . S
C714 C712 1.363 . S
C714 C715 1.370 . S
C714 C718 1.524 1_565 S
C715 C707 1.503 1_665 S
C715 C714 1.370 . S
C715 C716 1.403 1_655 S
C716 C715 1.403 1_455 S
C716 C717 1.404 1_455 S
C716 C719 1.539 . S
C717 C713 1.408 . S
C717 C716 1.404 1_655 S
C717 H729 0.930 1_655 S
C718 C714 1.524 1_545 S
C718 H730 0.956 . S
C718 H731 0.961 . S
C718 H732 0.961 . S
C719 C716 1.539 . S
C719 H733 0.958 . S
C719 H734 0.961 . S
C719 H735 0.960 . S
H720 C704 0.931 . S
H721 C709 0.929 . S
H722 C710 0.960 1_565 S
H723 C710 0.962 . S
H724 C710 0.960 . S
H725 C711 0.971 . S
H726 C711 0.984 . S
H727 C711 0.940 1_455 S
H728 C712 0.931 . S
H729 C717 0.930 1_455 S
H730 C718 0.956 . S
H731 C718 0.961 . S
H732 C718 0.961 . S
H733 C719 0.958 . S
H734 C719 0.961 . S
H735 C719 0.960 . S
C736 C737 1.391 . S
C736 C738 1.394 . S
C736 H752 0.931 . S
C737 C736 1.391 . S
C737 C741 1.376 . S
C738 C736 1.394 . S
C738 C739 1.369 . S
C738 C742 1.531 . S
C739 C738 1.369 . S
C739 C740 1.410 . S
C739 C747 1.503 . S
C740 C739 1.410 . S
C740 C741 1.392 . S
C740 C743 1.511 . S
C741 C737 1.376 . S
C741 C740 1.392 . S
C741 H753 0.929 . S
C742 C738 1.531 . S
C742 H754 0.960 . S
C742 H755 0.962 . S
C742 H756 0.960 . S
C743 C740 1.511 . S
C743 H757 0.961 . S
C743 H758 0.961 . S
C743 H759 0.961 . S
C744 C745 1.370 . S
C744 C746 1.363 . S
C744 H760 0.931 . S
C745 C744 1.370 . S
C745 C749 1.408 . S
C746 C744 1.363 . S
C746 C747 1.370 . S
C746 C750 1.524 . S
C747 C739 1.503 . S
C747 C746 1.370 . S
C747 C748 1.403 . S
C748 C747 1.403 . S
C748 C749 1.404 . S
C748 C751 1.539 . S
C749 C745 1.408 . S
C749 C748 1.404 . S
C749 H761 0.930 . S
C750 C746 1.524 . S
C750 H762 0.956 . S
C750 H763 0.961 . S
C750 H764 0.961 . S
C751 C748 1.539 . S
C751 H765 0.958 . S
C751 H766 0.961 . S
C751 H767 0.960 . S
H752 C736 0.931 . S
H753 C741 0.929 . S
H754 C742 0.960 . S
H755 C742 0.962 . S
H756 C742 0.960 . S
H757 C743 0.961 . S
H758 C743 0.961 . S
H759 C743 0.961 . S
H760 C744 0.931 . S
H761 C749 0.930 . S
H762 C750 0.956 . S
H763 C750 0.961 . S
H764 C750 0.961 . S
H765 C751 0.958 . S
H766 C751 0.961 . S
H767 C751 0.960 . S
C768 C769 1.391 . S
C768 C770 1.394 . S
C768 H784 0.931 . S
C769 C768 1.391 . S
C769 C773 1.376 . S
C770 C768 1.394 . S
C770 C771 1.369 . S
C770 C774 1.531 . S
C771 C770 1.369 . S
C771 C772 1.410 . S
C771 C779 1.503 . S
C772 C771 1.410 . S
C772 C773 1.392 . S
C772 C775 1.511 . S
C773 C769 1.376 . S
C773 C772 1.392 . S
C773 H785 0.929 . S
C774 C770 1.531 . S
C774 H786 0.960 . S
C774 H787 0.962 . S
C774 H788 0.960 . S
C775 C772 1.511 . S
C775 H789 0.961 . S
C775 H790 0.961 . S
C775 H791 0.961 . S
C776 C777 1.370 . S
C776 C778 1.363 . S
C776 H792 0.931 . S
C777 C776 1.370 . S
C777 C781 1.408 . S
C778 C776 1.363 . S
C778 C779 1.370 . S
C778 C782 1.524 . S
C779 C771 1.503 . S
C779 C778 1.370 . S
C779 C780 1.403 . S
C780 C779 1.403 . S
C780 C781 1.404 . S
C780 C783 1.539 . S
C781 C777 1.408 . S
C781 C780 1.404 . S
C781 H793 0.930 . S
C782 C778 1.524 . S
C782 H794 0.956 . S
C782 H795 0.961 . S
C782 H796 0.961 . S
C783 C780 1.539 . S
C783 H797 0.958 . S
C783 H798 0.961 . S
C783 H799 0.960 . S
H784 C768 0.931 . S
H785 C773 0.929 . S
H786 C774 0.960 . S
H787 C774 0.962 . S
H788 C774 0.960 . S
H789 C775 0.961 . S
H790 C775 0.961 . S
H791 C775 0.961 . S
H792 C776 0.931 . S
H793 C781 0.930 . S
H794 C782 0.956 . S
H795 C782 0.961 . S
H796 C782 0.961 . S
H797 C783 0.958 . S
H798 C783 0.961 . S
H799 C783 0.960 . S
C800 C801 1.391 . S
C800 C802 1.394 . S
C800 H816 0.931 . S
C801 C800 1.391 . S
C801 C805 1.376 . S
C802 C800 1.394 . S
C802 C803 1.369 . S
C802 C806 1.531 . S
C803 C802 1.369 . S
C803 C804 1.410 . S
C803 C811 1.503 . S
C804 C803 1.410 . S
C804 C805 1.392 . S
C804 C807 1.511 . S
C805 C801 1.376 . S
C805 C804 1.392 . S
C805 H817 0.929 . S
C806 C802 1.531 . S
C806 H818 0.960 . S
C806 H819 0.962 . S
C806 H820 0.960 . S
C807 C804 1.511 . S
C807 H821 0.961 . S
C807 H822 0.961 . S
C807 H823 0.961 . S
C808 C809 1.370 . S
C808 C810 1.363 . S
C808 H824 0.931 . S
C809 C808 1.370 . S
C809 C813 1.408 . S
C810 C808 1.363 . S
C810 C811 1.370 1_556 S
C810 C814 1.524 1_556 S
C811 C803 1.503 . S
C811 C810 1.370 1_554 S
C811 C812 1.403 1_554 S
C812 C811 1.403 1_556 S
C812 C813 1.404 . S
C812 C815 1.539 1_556 S
C813 C809 1.408 . S
C813 C812 1.404 . S
C813 H825 0.930 . S
C814 C810 1.524 1_554 S
C814 H826 0.956 . S
C814 H827 0.961 . S
C814 H828 0.961 1_554 S
C815 C812 1.539 1_554 S
C815 H829 0.958 . S
C815 H830 0.961 1_554 S
C815 H831 0.960 . S
H816 C800 0.931 . S
H817 C805 0.929 . S
H818 C806 0.960 . S
H819 C806 0.962 . S
H820 C806 0.960 . S
H821 C807 0.961 . S
H822 C807 0.961 . S
H823 C807 0.961 . S
H824 C808 0.931 . S
H825 C813 0.930 . S
H826 C814 0.956 . S
H827 C814 0.961 . S
H828 C814 0.961 1_556 S
H829 C815 0.958 . S
H830 C815 0.961 1_556 S
H831 C815 0.960 . S
C832 C833 1.391 . S
C832 C834 1.394 . S
C832 H848 0.931 . S
C833 C832 1.391 . S
C833 C837 1.376 . S
C834 C832 1.394 . S
C834 C835 1.369 . S
C834 C838 1.531 . S
C835 C834 1.369 . S
C835 C836 1.410 . S
C835 C843 1.503 . S
C836 C835 1.410 . S
C836 C837 1.392 . S
C836 C839 1.511 . S
C837 C833 1.376 . S
C837 C836 1.392 . S
C837 H849 0.929 . S
C838 C834 1.531 . S
C838 H850 0.960 . S
C838 H851 0.962 . S
C838 H852 0.960 . S
C839 C836 1.511 . S
C839 H853 0.961 . S
C839 H854 0.961 . S
C839 H855 0.961 . S
C840 C841 1.370 . S
C840 C842 1.363 . S
C840 H856 0.931 . S
C841 C840 1.370 . S
C841 C845 1.408 . S
C842 C840 1.363 . S
C842 C843 1.370 . S
C842 C846 1.524 . S
C843 C835 1.503 . S
C843 C842 1.370 . S
C843 C844 1.403 . S
C844 C843 1.403 . S
C844 C845 1.404 . S
C844 C847 1.539 . S
C845 C841 1.408 . S
C845 C844 1.404 . S
C845 H857 0.930 . S
C846 C842 1.524 . S
C846 H858 0.956 . S
C846 H859 0.961 . S
C846 H860 0.961 . S
C847 C844 1.539 . S
C847 H861 0.958 . S
C847 H862 0.961 . S
C847 H863 0.960 . S
H848 C832 0.931 . S
H849 C837 0.929 . S
H850 C838 0.960 . S
H851 C838 0.962 . S
H852 C838 0.960 . S
H853 C839 0.961 . S
H854 C839 0.961 . S
H855 C839 0.961 . S
H856 C840 0.931 . S
H857 C845 0.930 . S
H858 C846 0.956 . S
H859 C846 0.961 . S
H860 C846 0.961 . S
H861 C847 0.958 . S
H862 C847 0.961 . S
H863 C847 0.960 . S
C864 C865 1.391 . S
C864 C866 1.394 . S
C864 H880 0.931 . S
C865 C864 1.391 . S
C865 C869 1.376 . S
C866 C864 1.394 . S
C866 C867 1.369 . S
C866 C870 1.531 . S
C867 C866 1.369 . S
C867 C868 1.410 . S
C867 C875 1.503 . S
C868 C867 1.410 . S
C868 C869 1.392 . S
C868 C871 1.511 . S
C869 C865 1.376 . S
C869 C868 1.392 . S
C869 H881 0.929 . S
C870 C866 1.531 . S
C870 H882 0.960 . S
C870 H883 0.962 . S
C870 H884 0.960 . S
C871 C868 1.511 . S
C871 H885 0.961 . S
C871 H886 0.961 . S
C871 H887 0.961 . S
C872 C873 1.370 . S
C872 C874 1.363 . S
C872 H888 0.931 . S
C873 C872 1.370 . S
C873 C877 1.408 . S
C874 C872 1.363 . S
C874 C875 1.370 . S
C874 C878 1.524 . S
C875 C867 1.503 . S
C875 C874 1.370 . S
C875 C876 1.403 . S
C876 C875 1.403 . S
C876 C877 1.404 . S
C876 C879 1.539 . S
C877 C873 1.408 . S
C877 C876 1.404 . S
C877 H889 0.930 . S
C878 C874 1.524 . S
C878 H890 0.956 . S
C878 H891 0.961 . S
C878 H892 0.961 . S
C879 C876 1.539 . S
C879 H893 0.958 . S
C879 H894 0.961 . S
C879 H895 0.960 . S
H880 C864 0.931 . S
H881 C869 0.929 . S
H882 C870 0.960 . S
H883 C870 0.962 . S
H884 C870 0.960 . S
H885 C871 0.961 . S
H886 C871 0.961 . S
H887 C871 0.961 . S
H888 C872 0.931 . S
H889 C877 0.930 . S
H890 C878 0.956 . S
H891 C878 0.961 . S
H892 C878 0.961 . S
H893 C879 0.958 . S
H894 C879 0.961 . S
H895 C879 0.960 . S
C896 C897 1.391 . S
C896 C898 1.394 . S
C896 H912 0.931 . S
C897 C896 1.391 . S
C897 C901 1.376 . S
C898 C896 1.394 . S
C898 C899 1.369 . S
C898 C902 1.531 . S
C899 C898 1.369 . S
C899 C900 1.410 . S
C899 C907 1.503 . S
C900 C899 1.410 . S
C900 C901 1.392 . S
C900 C903 1.511 . S
C901 C897 1.376 . S
C901 C900 1.392 . S
C901 H913 0.929 . S
C902 C898 1.531 . S
C902 H914 0.960 . S
C902 H915 0.962 . S
C902 H916 0.960 . S
C903 C900 1.511 . S
C903 H917 0.961 . S
C903 H918 0.961 . S
C903 H919 0.961 . S
C904 C905 1.370 . S
C904 C906 1.363 . S
C904 H920 0.931 . S
C905 C904 1.370 . S
C905 C909 1.408 . S
C906 C904 1.363 . S
C906 C907 1.370 1_556 S
C906 C910 1.524 1_556 S
C907 C899 1.503 . S
C907 C906 1.370 1_554 S
C907 C908 1.403 1_554 S
C908 C907 1.403 1_556 S
C908 C909 1.404 . S
C908 C911 1.539 1_556 S
C909 C905 1.408 . S
C909 C908 1.404 . S
C909 H921 0.930 . S
C910 C906 1.524 1_554 S
C910 H922 0.956 . S
C910 H923 0.961 . S
C910 H924 0.961 1_554 S
C911 C908 1.539 1_554 S
C911 H925 0.958 . S
C911 H926 0.961 1_554 S
C911 H927 0.960 . S
H912 C896 0.931 . S
H913 C901 0.929 . S
H914 C902 0.960 . S
H915 C902 0.962 . S
H916 C902 0.960 . S
H917 C903 0.961 . S
H918 C903 0.961 . S
H919 C903 0.961 . S
H920 C904 0.931 . S
H921 C909 0.930 . S
H922 C910 0.956 . S
H923 C910 0.961 . S
H924 C910 0.961 1_556 S
H925 C911 0.958 . S
H926 C911 0.961 1_556 S
H927 C911 0.960 . S
C928 C929 1.391 . S
C928 C930 1.394 . S
C928 H944 0.931 . S
C929 C928 1.391 . S
C929 C933 1.376 . S
C930 C928 1.394 . S
C930 C931 1.369 . S
C930 C934 1.531 . S
C931 C930 1.369 . S
C931 C932 1.410 . S
C931 C939 1.503 . S
C932 C931 1.410 . S
C932 C933 1.392 . S
C932 C935 1.511 . S
C933 C929 1.376 . S
C933 C932 1.392 . S
C933 H945 0.929 . S
C934 C930 1.531 . S
C934 H946 0.960 . S
C934 H947 0.962 . S
C934 H948 0.960 . S
C935 C932 1.511 . S
C935 H949 0.961 . S
C935 H950 0.961 . S
C935 H951 0.961 . S
C936 C937 1.370 . S
C936 C938 1.363 . S
C936 H952 0.931 . S
C937 C936 1.370 . S
C937 C941 1.408 . S
C938 C936 1.363 . S
C938 C939 1.370 . S
C938 C942 1.524 . S
C939 C931 1.503 . S
C939 C938 1.370 . S
C939 C940 1.403 . S
C940 C939 1.403 . S
C940 C941 1.404 . S
C940 C943 1.539 . S
C941 C937 1.408 . S
C941 C940 1.404 . S
C941 H953 0.930 . S
C942 C938 1.524 . S
C942 H954 0.956 . S
C942 H955 0.961 . S
C942 H956 0.961 . S
C943 C940 1.539 . S
C943 H957 0.958 . S
C943 H958 0.961 . S
C943 H959 0.960 . S
H944 C928 0.931 . S
H945 C933 0.929 . S
H946 C934 0.960 . S
H947 C934 0.962 . S
H948 C934 0.960 . S
H949 C935 0.961 . S
H950 C935 0.961 . S
H951 C935 0.961 . S
H952 C936 0.931 . S
H953 C941 0.930 . S
H954 C942 0.956 . S
H955 C942 0.961 . S
H956 C942 0.961 . S
H957 C943 0.958 . S
H958 C943 0.961 . S
H959 C943 0.960 . S
C960 C961 1.391 . S
C960 C962 1.394 . S
C960 H976 0.931 . S
C961 C960 1.391 . S
C961 C965 1.376 . S
C962 C960 1.394 . S
C962 C963 1.369 . S
C962 C966 1.531 . S
C963 C962 1.369 . S
C963 C964 1.410 . S
C963 C971 1.503 . S
C964 C963 1.410 . S
C964 C965 1.392 . S
C964 C967 1.511 . S
C965 C961 1.376 . S
C965 C964 1.392 . S
C965 H977 0.929 . S
C966 C962 1.531 . S
C966 H978 0.960 . S
C966 H979 0.962 . S
C966 H980 0.960 . S
C967 C964 1.511 . S
C967 H981 0.961 . S
C967 H982 0.961 . S
C967 H983 0.961 . S
C968 C969 1.370 . S
C968 C970 1.363 . S
C968 H984 0.931 . S
C969 C968 1.370 . S
C969 C973 1.408 . S
C970 C968 1.363 . S
C970 C971 1.370 . S
C970 C974 1.524 . S
C971 C963 1.503 . S
C971 C970 1.370 . S
C971 C972 1.403 . S
C972 C971 1.403 . S
C972 C973 1.404 . S
C972 C975 1.539 . S
C973 C969 1.408 . S
C973 C972 1.404 . S
C973 H985 0.930 . S
C974 C970 1.524 . S
C974 H986 0.956 . S
C974 H987 0.961 . S
C974 H988 0.961 . S
C975 C972 1.539 . S
C975 H989 0.958 . S
C975 H990 0.961 . S
C975 H991 0.960 . S
H976 C960 0.931 . S
H977 C965 0.929 . S
H978 C966 0.960 . S
H979 C966 0.962 . S
H980 C966 0.960 . S
H981 C967 0.961 . S
H982 C967 0.961 . S
H983 C967 0.961 . S
H984 C968 0.931 . S
H985 C973 0.930 . S
H986 C974 0.956 . S
H987 C974 0.961 . S
H988 C974 0.961 . S
H989 C975 0.958 . S
H990 C975 0.961 . S
H991 C975 0.960 . S
C992 C993 1.391 . S
C992 C994 1.394 . S
C992 H1008 0.931 . S
C993 C992 1.391 . S
C993 C997 1.376 . S
C994 C992 1.394 . S
C994 C995 1.369 1_556 S
C994 C998 1.531 1_556 S
C995 C994 1.369 1_554 S
C995 C996 1.410 1_554 S
C995 C1003 1.503 . S
C996 C995 1.410 1_556 S
C996 C997 1.392 . S
C996 C999 1.511 1_556 S
C997 C993 1.376 . S
C997 C996 1.392 . S
C997 H1009 0.929 . S
C998 C994 1.531 1_554 S
C998 H1010 0.960 . S
C998 H1011 0.962 . S
C998 H1012 0.960 1_554 S
C999 C996 1.511 1_554 S
C999 H1013 0.961 1_554 S
C999 H1014 0.961 . S
C999 H1015 0.961 . S
C1000 C1001 1.370 . S
C1000 C1002 1.363 . S
C1000 H1016 0.931 . S
C1001 C1000 1.370 . S
C1001 C1005 1.408 . S
C1002 C1000 1.363 . S
C1002 C1003 1.370 . S
C1002 C1006 1.524 . S
C1003 C995 1.503 . S
C1003 C1002 1.370 . S
C1003 C1004 1.403 . S
C1004 C1003 1.403 . S
C1004 C1005 1.404 . S
C1004 C1007 1.539 . S
C1005 C1001 1.408 . S
C1005 C1004 1.404 . S
C1005 H1017 0.930 . S
C1006 C1002 1.524 . S
C1006 H1018 0.956 . S
C1006 H1019 0.961 . S
C1006 H1020 0.961 . S
C1007 C1004 1.539 . S
C1007 H1021 0.958 . S
C1007 H1022 0.961 . S
C1007 H1023 0.960 . S
H1008 C992 0.931 . S
H1009 C997 0.929 . S
H1010 C998 0.960 . S
H1011 C998 0.962 . S
H1012 C998 0.960 1_556 S
H1013 C999 0.961 1_556 S
H1014 C999 0.961 . S
H1015 C999 0.961 . S
H1016 C1000 0.931 . S
H1017 C1005 0.930 . S
H1018 C1006 0.956 . S
H1019 C1006 0.961 . S
H1020 C1006 0.961 . S
H1021 C1007 0.958 . S
H1022 C1007 0.961 . S
H1023 C1007 0.960 . S
C1024 C1025 1.391 . S
C1024 C1026 1.394 . S
C1024 H1040 0.931 . S
C1025 C1024 1.391 . S
C1025 C1029 1.376 . S
C1026 C1024 1.394 . S
C1026 C1027 1.369 . S
C1026 C1030 1.531 . S
C1027 C1026 1.369 . S
C1027 C1028 1.410 . S
C1027 C1035 1.503 . S
C1028 C1027 1.410 . S
C1028 C1029 1.392 . S
C1028 C1031 1.511 . S
C1029 C1025 1.376 . S
C1029 C1028 1.392 . S
C1029 H1041 0.929 . S
C1030 C1026 1.531 . S
C1030 H1042 0.960 . S
C1030 H1043 0.962 . S
C1030 H1044 0.960 . S
C1031 C1028 1.511 . S
C1031 H1045 0.961 . S
C1031 H1046 0.961 . S
C1031 H1047 0.961 . S
C1032 C1033 1.370 . S
C1032 C1034 1.363 . S
C1032 H1048 0.931 . S
C1033 C1032 1.370 . S
C1033 C1037 1.408 . S
C1034 C1032 1.363 . S
C1034 C1035 1.370 . S
C1034 C1038 1.524 . S
C1035 C1027 1.503 . S
C1035 C1034 1.370 . S
C1035 C1036 1.403 . S
C1036 C1035 1.403 . S
C1036 C1037 1.404 . S
C1036 C1039 1.539 . S
C1037 C1033 1.408 . S
C1037 C1036 1.404 . S
C1037 H1049 0.930 . S
C1038 C1034 1.524 . S
C1038 H1050 0.956 . S
C1038 H1051 0.961 . S
C1038 H1052 0.961 . S
C1039 C1036 1.539 . S
C1039 H1053 0.958 . S
C1039 H1054 0.961 . S
C1039 H1055 0.960 . S
H1040 C1024 0.931 . S
H1041 C1029 0.929 . S
H1042 C1030 0.960 . S
H1043 C1030 0.962 . S
H1044 C1030 0.960 . S
H1045 C1031 0.961 . S
H1046 C1031 0.961 . S
H1047 C1031 0.961 . S
H1048 C1032 0.931 . S
H1049 C1037 0.930 . S
H1050 C1038 0.956 . S
H1051 C1038 0.961 . S
H1052 C1038 0.961 . S
H1053 C1039 0.958 . S
H1054 C1039 0.961 . S
H1055 C1039 0.960 . S
C1056 C1057 1.391 . S
C1056 C1058 1.394 . S
C1056 H1072 0.931 . S
C1057 C1056 1.391 . S
C1057 C1061 1.376 . S
C1058 C1056 1.394 . S
C1058 C1059 1.369 . S
C1058 C1062 1.531 . S
C1059 C1058 1.369 . S
C1059 C1060 1.410 . S
C1059 C1067 1.503 . S
C1060 C1059 1.410 . S
C1060 C1061 1.392 . S
C1060 C1063 1.511 . S
C1061 C1057 1.376 . S
C1061 C1060 1.392 . S
C1061 H1073 0.929 . S
C1062 C1058 1.531 . S
C1062 H1074 0.960 . S
C1062 H1075 0.962 . S
C1062 H1076 0.960 . S
C1063 C1060 1.511 . S
C1063 H1077 0.961 . S
C1063 H1078 0.961 . S
C1063 H1079 0.961 . S
C1064 C1065 1.370 . S
C1064 C1066 1.363 . S
C1064 H1080 0.931 . S
C1065 C1064 1.370 . S
C1065 C1069 1.408 . S
C1066 C1064 1.363 . S
C1066 C1067 1.370 . S
C1066 C1070 1.524 . S
C1067 C1059 1.503 . S
C1067 C1066 1.370 . S
C1067 C1068 1.403 . S
C1068 C1067 1.403 . S
C1068 C1069 1.404 . S
C1068 C1071 1.539 . S
C1069 C1065 1.408 . S
C1069 C1068 1.404 . S
C1069 H1081 0.930 . S
C1070 C1066 1.524 . S
C1070 H1082 0.956 . S
C1070 H1083 0.961 . S
C1070 H1084 0.961 . S
C1071 C1068 1.539 . S
C1071 H1085 0.958 . S
C1071 H1086 0.961 . S
C1071 H1087 0.960 . S
H1072 C1056 0.931 . S
H1073 C1061 0.929 . S
H1074 C1062 0.960 . S
H1075 C1062 0.962 . S
H1076 C1062 0.960 . S
H1077 C1063 0.961 . S
H1078 C1063 0.961 . S
H1079 C1063 0.961 . S
H1080 C1064 0.931 . S
H1081 C1069 0.930 . S
H1082 C1070 0.956 . S
H1083 C1070 0.961 . S
H1084 C1070 0.961 . S
H1085 C1071 0.958 . S
H1086 C1071 0.961 . S
H1087 C1071 0.960 . S
C1088 C1089 1.391 . S
C1088 C1090 1.394 . S
C1088 H1104 0.931 . S
C1089 C1088 1.391 . S
C1089 C1093 1.376 . S
C1090 C1088 1.394 . S
C1090 C1091 1.369 . S
C1090 C1094 1.531 . S
C1091 C1090 1.369 . S
C1091 C1092 1.410 . S
C1091 C1099 1.503 . S
C1092 C1091 1.410 . S
C1092 C1093 1.392 . S
C1092 C1095 1.511 . S
C1093 C1089 1.376 . S
C1093 C1092 1.392 . S
C1093 H1105 0.929 . S
C1094 C1090 1.531 . S
C1094 H1106 0.960 . S
C1094 H1107 0.962 . S
C1094 H1108 0.960 . S
C1095 C1092 1.511 . S
C1095 H1109 0.961 . S
C1095 H1110 0.961 . S
C1095 H1111 0.961 . S
C1096 C1097 1.370 . S
C1096 C1098 1.363 . S
C1096 H1112 0.931 . S
C1097 C1096 1.370 . S
C1097 C1101 1.408 . S
C1098 C1096 1.363 . S
C1098 C1099 1.370 . S
C1098 C1102 1.524 . S
C1099 C1091 1.503 . S
C1099 C1098 1.370 . S
C1099 C1100 1.403 . S
C1100 C1099 1.403 . S
C1100 C1101 1.404 . S
C1100 C1103 1.539 . S
C1101 C1097 1.408 . S
C1101 C1100 1.404 . S
C1101 H1113 0.930 . S
C1102 C1098 1.524 . S
C1102 H1114 0.956 . S
C1102 H1115 0.961 . S
C1102 H1116 0.961 . S
C1103 C1100 1.539 . S
C1103 H1117 0.958 . S
C1103 H1118 0.961 . S
C1103 H1119 0.960 . S
H1104 C1088 0.931 . S
H1105 C1093 0.929 . S
H1106 C1094 0.960 . S
H1107 C1094 0.962 . S
H1108 C1094 0.960 . S
H1109 C1095 0.961 . S
H1110 C1095 0.961 . S
H1111 C1095 0.961 . S
H1112 C1096 0.931 . S
H1113 C1101 0.930 . S
H1114 C1102 0.956 . S
H1115 C1102 0.961 . S
H1116 C1102 0.961 . S
H1117 C1103 0.958 . S
H1118 C1103 0.961 . S
H1119 C1103 0.960 . S
C1120 C1121 1.391 . S
C1120 C1122 1.394 . S
C1120 H1136 0.931 . S
C1121 C1120 1.391 . S
C1121 C1125 1.376 . S
C1122 C1120 1.394 . S
C1122 C1123 1.369 . S
C1122 C1126 1.531 . S
C1123 C1122 1.369 . S
C1123 C1124 1.410 . S
C1123 C1131 1.503 . S
C1124 C1123 1.410 . S
C1124 C1125 1.392 . S
C1124 C1127 1.511 . S
C1125 C1121 1.376 . S
C1125 C1124 1.392 . S
C1125 H1137 0.929 . S
C1126 C1122 1.531 . S
C1126 H1138 0.960 . S
C1126 H1139 0.962 . S
C1126 H1140 0.960 . S
C1127 C1124 1.511 . S
C1127 H1141 0.961 . S
C1127 H1142 0.961 . S
C1127 H1143 0.961 . S
C1128 C1129 1.370 . S
C1128 C1130 1.363 . S
C1128 H1144 0.931 . S
C1129 C1128 1.370 . S
C1129 C1133 1.408 . S
C1130 C1128 1.363 . S
C1130 C1131 1.370 . S
C1130 C1134 1.524 . S
C1131 C1123 1.503 . S
C1131 C1130 1.370 . S
C1131 C1132 1.403 . S
C1132 C1131 1.403 . S
C1132 C1133 1.404 . S
C1132 C1135 1.539 . S
C1133 C1129 1.408 . S
C1133 C1132 1.404 . S
C1133 H1145 0.930 . S
C1134 C1130 1.524 . S
C1134 H1146 0.956 . S
C1134 H1147 0.961 . S
C1134 H1148 0.961 . S
C1135 C1132 1.539 . S
C1135 H1149 0.958 . S
C1135 H1150 0.961 . S
C1135 H1151 0.960 . S
H1136 C1120 0.931 . S
H1137 C1125 0.929 . S
H1138 C1126 0.960 . S
H1139 C1126 0.962 . S
H1140 C1126 0.960 . S
H1141 C1127 0.961 . S
H1142 C1127 0.961 . S
H1143 C1127 0.961 . S
H1144 C1128 0.931 . S
H1145 C1133 0.930 . S
H1146 C1134 0.956 . S
H1147 C1134 0.961 . S
H1148 C1134 0.961 . S
H1149 C1135 0.958 . S
H1150 C1135 0.961 . S
H1151 C1135 0.960 . S
C1152 C1153 1.391 . S
C1152 C1154 1.394 . S
C1152 H1168 0.931 . S
C1153 C1152 1.391 . S
C1153 C1157 1.376 . S
C1154 C1152 1.394 . S
C1154 C1155 1.369 . S
C1154 C1158 1.531 . S
C1155 C1154 1.369 . S
C1155 C1156 1.410 . S
C1155 C1163 1.503 . S
C1156 C1155 1.410 . S
C1156 C1157 1.392 . S
C1156 C1159 1.511 . S
C1157 C1153 1.376 . S
C1157 C1156 1.392 . S
C1157 H1169 0.929 . S
C1158 C1154 1.531 . S
C1158 H1170 0.960 . S
C1158 H1171 0.962 . S
C1158 H1172 0.960 . S
C1159 C1156 1.511 . S
C1159 H1173 0.961 . S
C1159 H1174 0.961 . S
C1159 H1175 0.961 . S
C1160 C1161 1.370 . S
C1160 C1162 1.363 . S
C1160 H1176 0.931 . S
C1161 C1160 1.370 . S
C1161 C1165 1.408 . S
C1162 C1160 1.363 . S
C1162 C1163 1.370 . S
C1162 C1166 1.524 . S
C1163 C1155 1.503 . S
C1163 C1162 1.370 . S
C1163 C1164 1.403 . S
C1164 C1163 1.403 . S
C1164 C1165 1.404 . S
C1164 C1167 1.539 . S
C1165 C1161 1.408 . S
C1165 C1164 1.404 . S
C1165 H1177 0.930 . S
C1166 C1162 1.524 . S
C1166 H1178 0.956 . S
C1166 H1179 0.961 . S
C1166 H1180 0.961 . S
C1167 C1164 1.539 . S
C1167 H1181 0.958 . S
C1167 H1182 0.961 . S
C1167 H1183 0.960 . S
H1168 C1152 0.931 . S
H1169 C1157 0.929 . S
H1170 C1158 0.960 . S
H1171 C1158 0.962 . S
H1172 C1158 0.960 . S
H1173 C1159 0.961 . S
H1174 C1159 0.961 . S
H1175 C1159 0.961 . S
H1176 C1160 0.931 . S
H1177 C1165 0.930 . S
H1178 C1166 0.956 . S
H1179 C1166 0.961 . S
H1180 C1166 0.961 . S
H1181 C1167 0.958 . S
H1182 C1167 0.961 . S
H1183 C1167 0.960 . S
C1184 C1185 1.391 . S
C1184 C1186 1.394 . S
C1184 H1200 0.931 . S
C1185 C1184 1.391 . S
C1185 C1189 1.376 . S
C1186 C1184 1.394 . S
C1186 C1187 1.369 . S
C1186 C1190 1.531 . S
C1187 C1186 1.369 . S
C1187 C1188 1.410 . S
C1187 C1195 1.503 . S
C1188 C1187 1.410 . S
C1188 C1189 1.392 . S
C1188 C1191 1.511 . S
C1189 C1185 1.376 . S
C1189 C1188 1.392 . S
C1189 H1201 0.929 . S
C1190 C1186 1.531 . S
C1190 H1202 0.960 . S
C1190 H1203 0.962 . S
C1190 H1204 0.960 . S
C1191 C1188 1.511 . S
C1191 H1205 0.961 . S
C1191 H1206 0.961 . S
C1191 H1207 0.961 . S
C1192 C1193 1.370 . S
C1192 C1194 1.363 . S
C1192 H1208 0.931 . S
C1193 C1192 1.370 . S
C1193 C1197 1.408 . S
C1194 C1192 1.363 . S
C1194 C1195 1.370 . S
C1194 C1198 1.524 . S
C1195 C1187 1.503 . S
C1195 C1194 1.370 . S
C1195 C1196 1.403 . S
C1196 C1195 1.403 . S
C1196 C1197 1.404 . S
C1196 C1199 1.539 . S
C1197 C1193 1.408 . S
C1197 C1196 1.404 . S
C1197 H1209 0.930 . S
C1198 C1194 1.524 . S
C1198 H1210 0.956 . S
C1198 H1211 0.961 . S
C1198 H1212 0.961 . S
C1199 C1196 1.539 . S
C1199 H1213 0.958 . S
C1199 H1214 0.961 . S
C1199 H1215 0.960 . S
H1200 C1184 0.931 . S
H1201 C1189 0.929 . S
H1202 C1190 0.960 . S
H1203 C1190 0.962 . S
H1204 C1190 0.960 . S
H1205 C1191 0.961 . S
H1206 C1191 0.961 . S
H1207 C1191 0.961 . S
H1208 C1192 0.931 . S
H1209 C1197 0.930 . S
H1210 C1198 0.956 . S
H1211 C1198 0.961 . S
H1212 C1198 0.961 . S
H1213 C1199 0.958 . S
H1214 C1199 0.961 . S
H1215 C1199 0.960 . S
C1216 C1217 1.391 . S
C1216 C1218 1.394 . S
C1216 H1232 0.931 . S
C1217 C1216 1.391 . S
C1217 C1221 1.376 . S
C1218 C1216 1.394 . S
C1218 C1219 1.369 . S
C1218 C1222 1.531 . S
C1219 C1218 1.369 . S
C1219 C1220 1.410 . S
C1219 C1227 1.503 . S
C1220 C1219 1.410 . S
C1220 C1221 1.392 . S
C1220 C1223 1.511 . S
C1221 C1217 1.376 . S
C1221 C1220 1.392 . S
C1221 H1233 0.929 . S
C1222 C1218 1.531 . S
C1222 H1234 0.960 . S
C1222 H1235 0.962 . S
C1222 H1236 0.960 . S
C1223 C1220 1.511 . S
C1223 H1237 0.961 . S
C1223 H1238 0.961 . S
C1223 H1239 0.961 . S
C1224 C1225 1.370 . S
C1224 C1226 1.363 . S
C1224 H1240 0.931 . S
C1225 C1224 1.370 . S
C1225 C1229 1.408 . S
C1226 C1224 1.363 . S
C1226 C1227 1.370 1_556 S
C1226 C1230 1.524 1_556 S
C1227 C1219 1.503 . S
C1227 C1226 1.370 1_554 S
C1227 C1228 1.403 1_554 S
C1228 C1227 1.403 1_556 S
C1228 C1229 1.404 . S
C1228 C1231 1.539 1_556 S
C1229 C1225 1.408 . S
C1229 C1228 1.404 . S
C1229 H1241 0.930 . S
C1230 C1226 1.524 1_554 S
C1230 H1242 0.956 . S
C1230 H1243 0.961 . S
C1230 H1244 0.961 1_554 S
C1231 C1228 1.539 1_554 S
C1231 H1245 0.958 . S
C1231 H1246 0.961 1_554 S
C1231 H1247 0.960 . S
H1232 C1216 0.931 . S
H1233 C1221 0.929 . S
H1234 C1222 0.960 . S
H1235 C1222 0.962 . S
H1236 C1222 0.960 . S
H1237 C1223 0.961 . S
H1238 C1223 0.961 . S
H1239 C1223 0.961 . S
H1240 C1224 0.931 . S
H1241 C1229 0.930 . S
H1242 C1230 0.956 . S
H1243 C1230 0.961 . S
H1244 C1230 0.961 1_556 S
H1245 C1231 0.958 . S
H1246 C1231 0.961 1_556 S
H1247 C1231 0.960 . S
C225 C92 1.530 . S
C233 C8 1.513 . S
C257 C106 1.526 . S
C265 C22 1.514 . S
C289 C36 1.511 . S
C297 C64 1.526 . S
C321 C50 1.533 . S
C329 C78 1.511 . S
C353 C120 1.532 . S
C361 C204 1.518 . S
C385 C218 1.530 . S
C393 C134 1.512 . S
C417 C148 1.500 . S
C425 C176 1.525 . S
C449 C162 1.511 . S
C457 C190 1.521 . S
C481 C9 1.407 . S
C489 C149 1.413 . S
C513 C23 1.422 . S
C521 C163 1.401 . S
C545 C37 1.432 . S
C553 C121 1.402 . S
C577 C51 1.437 . S
C585 C135 1.399 . S
C609 C65 1.380 . S
C617 C205 1.419 . S
C641 C219 1.392 . S
C649 C79 1.419 . S
C673 C93 1.426 . S
C681 C177 1.400 . S
C705 C191 1.375 . S
C713 C107 1.421 . S
C737 C189 0.338 . S
C745 C7 0.364 . S
C769 C21 0.348 . S
C777 C203 0.362 . S
C801 C217 0.360 . S
C809 C35 0.361 . S
C833 C175 0.466 . S
C841 C49 0.396 . S
C865 C161 0.391 . S
C873 C63 0.363 . S
C897 C77 0.374 . S
C905 C119 0.361 . S
C929 C91 0.361 . S
C937 C133 0.361 . S
C961 C105 0.335 . S
C969 C147 0.398 . S
C993 C185 1.496 . S
C1001 C3 1.480 . S
C1025 C17 1.501 . S
C1033 C199 1.482 . S
C1057 C31 1.499 . S
C1065 C213 1.493 . S
C1089 C171 1.468 . S
C1097 C45 1.482 . S
C1121 C157 1.471 . S
C1129 C59 1.495 . S
C1153 C115 1.499 . S
C1161 C73 1.493 . S
C1185 C87 1.501 . S
C1193 C129 1.492 . S
C1217 C143 1.498 . S
C1225 C101 1.494 . S
