# Generated by pormake.
# Topology zfs, (5)-cn, num edge types: 1
# Building blocks:
#     Node 0, Type 0, BuildingBlock: XOMCOT_clean_sbu_0, # of connection points: 5
#     Node 1, Type 0, BuildingBlock: XOMCOT_clean_sbu_0, # of connection points: 5
#     Node 2, Type 0, BuildingBlock: XOMCOT_clean_sbu_0, # of connection points: 5
#     Node 3, Type 0, BuildingBlock: XOMCOT_clean_sbu_0, # of connection points: 5
#     Node 4, Type 0, BuildingBlock: XOMCOT_clean_sbu_0, # of connection points: 5
#     Node 5, Type 0, BuildingBlock: XOMCOT_clean_sbu_0, # of connection points: 5
#     Node 6, Type 0, BuildingBlock: XOMCOT_clean_sbu_0, # of connection points: 5
#     Node 7, Type 0, BuildingBlock: XOMCOT_clean_sbu_0, # of connection points: 5
#     Edge 8, Type (0, 0), None
#     Edge 9, Type (0, 0), None
#     Edge 10, Type (0, 0), None
#     Edge 11, Type (0, 0), None
#     Edge 12, Type (0, 0), None
#     Edge 13, Type (0, 0), None
#     Edge 14, Type (0, 0), None
#     Edge 15, Type (0, 0), None
#     Edge 16, Type (0, 0), None
#     Edge 17, Type (0, 0), None
#     Edge 18, Type (0, 0), None
#     Edge 19, Type (0, 0), None
#     Edge 20, Type (0, 0), None
#     Edge 21, Type (0, 0), None
#     Edge 22, Type (0, 0), None
#     Edge 23, Type (0, 0), None
#     Edge 24, Type (0, 0), None
#     Edge 25, Type (0, 0), None
#     Edge 26, Type (0, 0), None
#     Edge 27, Type (0, 0), None
# Relax obj value: 0.217
# Max RMSD: 0.183
# Mean RMSD: 0.183
data_MOF--net-zfs--node1-XOMCOT_clean_sbu_0--edge1-none
_symmetry_space_group_name_H-M    P1
_symmetry_Int_Tables_number       1
_symmetry_cell_setting            triclinic
loop_
_symmetry_equiv_pos_as_xyz
'x, y, z'
_cell_length_a     16.1394
_cell_length_b     16.139848
_cell_length_c     20.308644
_cell_angle_alpha  89.999965
_cell_angle_beta   89.992918
_cell_angle_gamma 89.985161
loop_
_atom_site_label
_atom_site_type_symbol
_atom_site_fract_x
_atom_site_fract_y
_atom_site_fract_z
_atom_type_partial_charge
Co0 Co 0.17983 0.23978 0.21945 0.0
C1 C 0.12253 0.3316 0.10865 0.0
C2 C 1.02063 0.26933 0.15443 0.0
C3 C 0.9955 0.29955 0.09433 0.0
N4 N 0.10064 0.28797 0.16205 0.0
N5 N 1.06121 0.33654 0.06513 0.0
H6 H 0.1853 0.34746 0.09607 0.0
H7 H 0.98656 0.22971 0.1871 0.0
C8 C 1.02513 0.25715 0.31791 0.0
O9 O 1.00043 0.32658 0.29049 0.0
N10 N 0.26535 0.19724 0.27672 0.0
C11 C 0.33604 0.24243 0.27957 0.0
C12 C 0.34379 0.27575 0.34178 0.0
C13 C 0.24349 0.1891 0.34002 0.0
N14 N 0.28188 0.24476 0.37835 0.0
C15 C 0.25159 0.40281 0.20955 0.0
C16 C 0.1837 0.47058 0.32178 0.0
C17 C 0.22229 0.52305 0.27627 0.0
C18 C 0.25867 0.48799 0.22052 0.0
C19 C 0.17586 0.38596 0.30779 0.0
N20 N 0.20507 0.35343 0.25007 0.0
H21 H 0.28239 0.37714 0.16718 0.0
H22 H 0.14684 0.34761 0.34411 0.0
H23 H 0.36684 0.26758 0.23672 0.0
H24 H 0.1891 0.15583 0.35521 0.0
O25 O 0.25774 0.23045 0.14411 0.0
O26 O 0.17113 0.13249 0.16997 0.0
O27 O 0.08914 0.21893 0.29387 0.0
C28 C 0.22745 0.15851 0.12888 0.0
H29 H 0.9375 0.28467 0.07039 0.0
H30 H 0.38338 0.32695 0.35561 0.0
H31 H 0.15738 0.49516 0.36681 0.0
H32 H 0.29197 0.52617 0.18552 0.0
Co33 Co 0.89724 0.17986 0.46946 0.0
C34 C 0.80541 0.12269 0.35864 0.0
C35 C 0.86741 1.02065 0.40448 0.0
C36 C 0.83714 0.99555 0.3444 0.0
N37 N 0.84899 0.10073 0.41205 0.0
N38 N 0.8003 1.06134 0.31516 0.0
H39 H 0.78964 0.18548 0.34605 0.0
H40 H 0.90688 0.98647 0.43719 0.0
C41 C 0.87985 1.02518 0.56795 0.0
O42 O 0.81036 1.00057 0.54061 0.0
N43 N 0.93983 0.26532 0.52674 0.0
C44 C 0.89468 0.33606 0.52958 0.0
C45 C 0.86135 0.34387 0.5918 0.0
C46 C 0.94794 0.24347 0.59004 0.0
N47 N 0.89229 0.28192 0.62837 0.0
C48 C 0.73421 0.25171 0.4596 0.0
C49 C 0.66645 0.18384 0.57181 0.0
C50 C 0.61397 0.22241 0.5263 0.0
C51 C 0.64903 0.25879 0.47056 0.0
C52 C 0.75108 0.176 0.55784 0.0
N53 N 0.78361 0.20519 0.50011 0.0
H54 H 0.75988 0.2825 0.41723 0.0
H55 H 0.78943 0.14698 0.59415 0.0
H56 H 0.86955 0.36687 0.48674 0.0
H57 H 0.98117 0.18904 0.60524 0.0
O58 O 0.90659 0.25777 0.39414 0.0
O59 O 1.00452 0.17107 0.41995 0.0
O60 O 0.91809 0.08914 0.54386 0.0
C61 C 0.97852 0.22742 0.37889 0.0
H62 H 0.85186 0.93746 0.32051 0.0
H63 H 0.81017 0.38352 0.60563 0.0
H64 H 0.64187 0.15752 0.61684 0.0
H65 H 0.61084 0.29208 0.43555 0.0
Co66 Co 0.95726 0.89728 0.71946 0.0
C67 C 1.01448 0.80544 0.60864 0.0
C68 C 0.11645 0.86757 0.65442 0.0
C69 C 0.14155 0.83734 0.59432 0.0
N70 N 1.03641 0.84904 0.66204 0.0
N71 N 0.0758 0.80043 0.56512 0.0
H72 H 0.95169 0.78964 0.59607 0.0
H73 H 0.15057 0.90712 0.6871 0.0
C74 C 0.11196 0.87989 0.8179 0.0
O75 O 0.13663 0.81042 0.79052 0.0
N76 N 0.87177 0.93987 0.77676 0.0
C77 C 0.80106 0.89471 0.77962 0.0
C78 C 0.79331 0.86138 0.84184 0.0
C79 C 0.89364 0.948 0.84005 0.0
N80 N 0.85525 0.89235 0.87838 0.0
C81 C 0.88545 0.73427 0.7096 0.0
C82 C 0.95334 0.6665 0.82181 0.0
C83 C 0.91474 0.61403 0.77631 0.0
C84 C 0.87835 0.6491 0.72058 0.0
C85 C 0.96119 0.75111 0.80782 0.0
N86 N 0.93198 0.78365 0.7501 0.0
H87 H 0.85465 0.75994 0.66724 0.0
H88 H 0.99023 0.78946 0.84413 0.0
H89 H 0.77024 0.86957 0.73679 0.0
H90 H 0.94805 0.98125 0.85523 0.0
O91 O 0.87933 0.90663 0.64415 0.0
O92 O 0.96598 1.00456 0.66997 0.0
O93 O 1.04797 0.91812 0.79385 0.0
C94 C 0.90964 0.97856 0.62891 0.0
H95 H 0.19958 0.85215 0.57038 0.0
H96 H 0.7537 0.8102 0.85568 0.0
H97 H 0.97966 0.64192 0.86683 0.0
H98 H 0.84504 0.61092 0.68558 0.0
Co99 Co 0.23984 0.95721 0.96943 0.0
C100 C 0.33166 1.01439 0.85859 0.0
C101 C 0.26964 0.11641 0.90444 0.0
C102 C 0.29988 0.14151 0.84434 0.0
N103 N 0.28809 1.03633 0.91201 0.0
N104 N 0.33672 0.07572 0.8151 0.0
H105 H 0.34743 0.95159 0.84599 0.0
H106 H 0.23016 0.15057 0.93715 0.0
C107 C 0.25722 0.11188 0.06792 0.0
O108 O 0.32671 0.13649 0.04056 0.0
N109 N 0.19724 0.87174 1.02672 0.0
C110 C 0.2424 0.80101 1.02956 0.0
C111 C 0.2757 0.7932 0.09178 0.0
C112 C 0.1891 0.8936 0.09001 0.0
N113 N 0.24474 0.85515 0.12834 0.0
C114 C 0.40288 0.88538 0.95955 0.0
C115 C 0.47058 0.95319 0.0718 0.0
C116 C 0.52309 0.91463 1.02629 0.0
C117 C 0.48806 0.87828 0.97053 0.0
C118 C 0.38597 0.96105 0.05781 0.0
N119 N 0.35346 0.93189 1.00007 0.0
H120 H 0.37723 0.8546 0.91717 0.0
H121 H 0.3476 0.99006 0.09412 0.0
H122 H 0.26755 0.7702 0.98672 0.0
H123 H 0.15586 0.94803 0.10521 0.0
O124 O 0.2305 0.87929 0.89411 0.0
O125 O 0.13256 0.96599 0.91994 0.0
O126 O 0.21898 1.04793 0.04383 0.0
C127 C 0.15857 0.90963 0.87887 0.0
H128 H 0.28511 0.19958 0.82045 0.0
H129 H 0.32688 0.75356 0.10561 0.0
H130 H 0.49514 0.97949 0.11684 0.0
H131 H 0.52626 0.845 0.93552 0.0
Co132 Co 0.17982 0.89733 0.34282 0.0
C133 C 0.12231 0.80546 0.45348 0.0
C134 C 1.02062 0.86844 0.40793 0.0
C135 C 0.99541 0.83821 0.46801 0.0
N136 N 0.10053 0.8493 0.40016 0.0
N137 N 1.06102 0.80083 0.49704 0.0
H138 H 0.18502 0.78924 0.46598 0.0
H139 H 0.98677 0.9084 0.37537 0.0
C140 C 1.02508 0.88014 0.24447 0.0
O141 O 1.00023 0.81089 0.27207 0.0
N142 N 0.26544 0.93977 0.28557 0.0
C143 C 0.33605 0.89441 0.2827 0.0
C144 C 0.34365 0.86093 0.22052 0.0
C145 C 0.24355 0.94789 0.22228 0.0
N146 N 0.28168 0.89196 0.18403 0.0
C147 C 0.25163 0.73426 0.35271 0.0
C148 C 0.18351 0.66641 0.24064 0.0
C149 C 0.22225 0.61397 0.2861 0.0
C150 C 0.25874 0.64908 0.34177 0.0
C151 C 0.17566 0.75103 0.25459 0.0
N152 N 0.20501 0.78363 0.31224 0.0
H153 H 0.28251 0.75996 0.39502 0.0
H154 H 0.14654 0.78934 0.21829 0.0
H155 H 0.36688 0.86929 0.32554 0.0
H156 H 0.18925 0.98134 0.2071 0.0
O157 O 0.25762 0.90656 0.41821 0.0
O158 O 0.17114 1.00464 0.39226 0.0
O159 O 0.08923 0.91824 0.26836 0.0
C160 C 0.22736 0.97854 0.43339 0.0
H161 H 0.9375 0.85328 0.49204 0.0
H162 H 0.38313 0.80962 0.20669 0.0
H163 H 0.15711 0.6418 0.19566 0.0
H164 H 0.29214 0.61093 0.37673 0.0
Co165 Co 0.23971 0.17981 0.59282 0.0
C166 C 0.33161 0.12231 0.70348 0.0
C167 C 0.26879 1.02059 0.65787 0.0
C168 C 0.29905 0.99537 0.71794 0.0
N169 N 0.2878 0.10052 0.65015 0.0
N170 N 0.33632 1.061 0.74701 0.0
H171 H 0.34776 0.18502 0.716 0.0
H172 H 0.22891 0.9867 0.62528 0.0
C173 C 0.257 1.02509 0.49441 0.0
O174 O 0.32629 1.00024 0.52197 0.0
N175 N 0.19721 0.26541 0.53558 0.0
C176 C 0.2425 0.33604 0.53272 0.0
C177 C 0.27599 0.34366 0.47054 0.0
C178 C 0.18911 0.24353 0.47229 0.0
N179 N 0.24501 0.28169 0.43404 0.0
C180 C 0.40271 0.25166 0.60272 0.0
C181 C 0.47065 0.18359 0.49064 0.0
C182 C 0.52304 0.22234 0.53611 0.0
C183 C 0.48789 0.25881 0.59178 0.0
C184 C 0.38603 0.1757 0.50459 0.0
N185 N 0.3534 0.20503 0.56224 0.0
H186 H 0.37697 0.28252 0.64504 0.0
H187 H 0.34775 0.14657 0.46829 0.0
H188 H 0.26759 0.36687 0.57557 0.0
H189 H 0.15571 0.18922 0.45709 0.0
O190 O 0.23043 0.2576 0.66821 0.0
O191 O 0.1324 0.1711 0.64227 0.0
O192 O 0.21887 0.08921 0.51835 0.0
C193 C 0.15847 0.22732 0.68341 0.0
H194 H 0.28406 0.93743 0.74193 0.0
H195 H 0.32727 0.38316 0.45672 0.0
H196 H 0.4953 0.15719 0.44566 0.0
H197 H 0.52601 0.29222 0.62675 0.0
Co198 Co 0.95719 0.23975 0.84284 0.0
C199 C 1.01472 0.33159 0.95351 0.0
C200 C 0.11639 0.26858 0.90793 0.0
C201 C 0.1416 0.29879 0.96801 0.0
N202 N 1.03649 0.28776 0.90017 0.0
N203 N 0.076 0.33617 0.99706 0.0
H204 H 0.95201 0.34782 0.96602 0.0
H205 H 0.15023 0.22862 0.87535 0.0
C206 C 0.11193 0.25694 0.74446 0.0
O207 O 0.13679 0.32618 0.77206 0.0
N208 N 0.87156 0.19733 0.7856 0.0
C209 C 0.80096 0.2427 0.78274 0.0
C210 C 0.79337 0.27617 0.72055 0.0
C211 C 0.89345 0.18919 0.72231 0.0
N212 N 0.85534 0.24512 0.68406 0.0
C213 C 0.8854 0.40282 0.85276 0.0
C214 C 0.9535 0.47067 0.74066 0.0
C215 C 0.91478 0.52311 0.78614 0.0
C216 C 0.8783 0.48801 0.84182 0.0
C217 C 0.96136 0.38605 0.75462 0.0
N218 N 0.93201 0.35346 0.81228 0.0
H219 H 0.85453 0.37712 0.89508 0.0
H220 H 0.99046 0.34774 0.71831 0.0
H221 H 0.77013 0.26783 0.82558 0.0
H222 H 0.94775 0.15573 0.70713 0.0
O223 O 0.87939 0.23053 0.91824 0.0
O224 O 0.96586 0.13243 0.89227 0.0
O225 O 1.04778 0.21885 0.76836 0.0
C226 C 0.90964 0.15854 0.93342 0.0
H227 H 0.1995 0.28368 0.99203 0.0
H228 H 0.7539 0.32748 0.70673 0.0
H229 H 0.9799 0.49529 0.69568 0.0
H230 H 0.8449 0.52616 0.8768 0.0
Co231 Co 0.89731 0.95728 0.09285 0.0
C232 C 0.8054 1.01473 0.20355 0.0
C233 C 0.8681 0.11649 0.15789 0.0
C234 C 0.83785 0.1417 0.21797 0.0
N235 N 0.84917 1.03654 0.15019 0.0
N236 N 0.80066 0.07605 0.24707 0.0
H237 H 0.7893 0.95201 0.21608 0.0
H238 H 0.90792 0.15042 0.12528 0.0
C239 C 0.87998 0.11198 0.99444 0.0
O240 O 0.81067 0.1368 1.02198 0.0
N241 N 0.93985 0.87169 0.03561 0.0
C242 C 0.89457 0.80106 0.03275 0.0
C243 C 0.86112 0.79343 0.97056 0.0
C244 C 0.94798 0.89358 0.97232 0.0
N245 N 0.8921 0.85541 0.93406 0.0
C246 C 0.73431 0.88542 0.10276 0.0
C247 C 0.66642 0.95343 0.99064 0.0
C248 C 0.61401 0.91469 0.03611 0.0
C249 C 0.64913 0.87826 0.09181 0.0
C250 C 0.75104 0.96134 1.00461 0.0
N251 N 0.78364 0.93203 0.06227 0.0
H252 H 0.76002 0.85458 0.14509 0.0
H253 H 0.78933 0.99046 0.9683 0.0
H254 H 0.86947 0.77022 0.07559 0.0
H255 H 0.98137 0.9479 0.95714 0.0
O256 O 0.90659 0.87948 0.16824 0.0
O257 O 1.0046 0.96601 0.1423 0.0
O258 O 0.91814 1.04789 1.01839 0.0
C259 C 0.97854 0.90977 0.18343 0.0
H260 H 0.85281 0.19967 0.24194 0.0
H261 H 0.80986 0.75392 0.95674 0.0
H262 H 0.6418 0.9798 0.94565 0.0
H263 H 0.611 0.84486 0.12678 0.0
loop_
_geom_bond_atom_site_label_1
_geom_bond_atom_site_label_2
_geom_bond_distance
_geom_bond_site_symmetry_2
_ccdc_geom_bond_type
Co0 N4 2.148 1_455 S
Co0 N10 2.128 . S
Co0 N20 2.194 . S
Co0 O25 2.351 . S
Co0 O26 2.155 . S
Co0 O27 2.096 1_455 S
C1 N4 1.301 . S
C1 N5 1.328 . S
C1 H6 0.930 1_655 S
C2 C3 1.333 . S
C2 N4 1.317 . S
C2 H7 0.930 . S
C3 C2 1.333 . S
C3 N5 1.350 . S
C3 H29 0.931 . S
N4 Co0 2.148 1_655 S
N4 C1 1.301 . S
N4 C2 1.317 . S
N5 C1 1.328 . S
N5 C3 1.350 . S
H6 C1 0.930 1_455 S
H7 C2 0.930 . S
C8 O9 1.224 . S
C8 O27 1.247 . S
O9 C8 1.224 . S
N10 Co0 2.128 . S
N10 C11 1.355 . S
N10 C13 1.311 . S
C11 N10 1.355 . S
C11 C12 1.363 . S
C11 H23 0.929 . S
C12 C11 1.363 . S
C12 N14 1.375 . S
C12 H30 0.931 . S
C13 N10 1.311 . S
C13 N14 1.347 . S
C13 H24 0.929 . S
N14 C12 1.375 . S
N14 C13 1.347 . S
C15 C18 1.365 . S
C15 N20 1.328 . S
C15 H21 0.929 . S
C16 C17 1.362 . S
C16 C19 1.378 . S
C16 H31 0.929 . S
C17 C16 1.362 . S
C17 C18 1.366 . S
C18 C15 1.365 . S
C18 C17 1.366 . S
C18 H32 0.930 . S
C19 C16 1.378 . S
C19 N20 1.315 . S
C19 H22 0.930 1_455 S
N20 Co0 2.194 . S
N20 C15 1.328 . S
N20 C19 1.315 . S
H21 C15 0.929 . S
H22 C19 0.930 1_655 S
H23 C11 0.929 . S
H24 C13 0.929 . S
O25 Co0 2.351 . S
O25 C28 1.244 . S
O26 Co0 2.155 . S
O26 C28 1.240 . S
O27 Co0 2.096 1_655 S
O27 C8 1.247 . S
C28 O25 1.244 . S
C28 O26 1.240 . S
H29 C3 0.931 . S
H30 C12 0.931 . S
H31 C16 0.929 . S
H32 C18 0.930 . S
Co33 N37 2.148 1_545 S
Co33 N43 2.128 . S
Co33 N53 2.194 . S
Co33 O58 2.351 . S
Co33 O59 2.155 . S
Co33 O60 2.096 1_545 S
C34 N37 1.301 . S
C34 N38 1.328 . S
C34 H39 0.930 1_565 S
C35 C36 1.333 . S
C35 N37 1.317 . S
C35 H40 0.930 . S
C36 C35 1.333 . S
C36 N38 1.350 . S
C36 H62 0.931 . S
N37 Co33 2.148 1_565 S
N37 C34 1.301 . S
N37 C35 1.317 . S
N38 C34 1.328 . S
N38 C36 1.350 . S
H39 C34 0.930 1_545 S
H40 C35 0.930 . S
C41 O42 1.224 . S
C41 O60 1.247 . S
O42 C41 1.224 . S
N43 Co33 2.128 . S
N43 C44 1.355 . S
N43 C46 1.311 . S
C44 N43 1.355 . S
C44 C45 1.363 . S
C44 H56 0.929 . S
C45 C44 1.363 . S
C45 N47 1.375 . S
C45 H63 0.931 . S
C46 N43 1.311 . S
C46 N47 1.347 . S
C46 H57 0.929 . S
N47 C45 1.375 . S
N47 C46 1.347 . S
C48 C51 1.365 . S
C48 N53 1.328 . S
C48 H54 0.929 . S
C49 C50 1.362 . S
C49 C52 1.378 . S
C49 H64 0.929 . S
C50 C49 1.362 . S
C50 C51 1.366 . S
C51 C48 1.365 . S
C51 C50 1.366 . S
C51 H65 0.930 . S
C52 C49 1.378 . S
C52 N53 1.315 . S
C52 H55 0.930 1_545 S
N53 Co33 2.194 . S
N53 C48 1.328 . S
N53 C52 1.315 . S
H54 C48 0.929 . S
H55 C52 0.930 1_565 S
H56 C44 0.929 . S
H57 C46 0.929 . S
O58 Co33 2.351 . S
O58 C61 1.244 . S
O59 Co33 2.155 . S
O59 C61 1.240 . S
O60 Co33 2.096 1_565 S
O60 C41 1.247 . S
C61 O58 1.244 . S
C61 O59 1.240 . S
H62 C36 0.931 . S
H63 C45 0.931 . S
H64 C49 0.929 . S
H65 C51 0.930 . S
Co66 N70 2.148 1_655 S
Co66 N76 2.128 . S
Co66 N86 2.194 . S
Co66 O91 2.351 . S
Co66 O92 2.155 . S
Co66 O93 2.096 1_655 S
C67 N70 1.301 . S
C67 N71 1.328 . S
C67 H72 0.930 1_455 S
C68 C69 1.333 . S
C68 N70 1.317 . S
C68 H73 0.930 . S
C69 C68 1.333 . S
C69 N71 1.350 . S
C69 H95 0.931 . S
N70 Co66 2.148 1_455 S
N70 C67 1.301 . S
N70 C68 1.317 . S
N71 C67 1.328 . S
N71 C69 1.350 . S
H72 C67 0.930 1_655 S
H73 C68 0.930 . S
C74 O75 1.224 . S
C74 O93 1.247 . S
O75 C74 1.224 . S
N76 Co66 2.128 . S
N76 C77 1.355 . S
N76 C79 1.311 . S
C77 N76 1.355 . S
C77 C78 1.363 . S
C77 H89 0.929 . S
C78 C77 1.363 . S
C78 N80 1.375 . S
C78 H96 0.931 . S
C79 N76 1.311 . S
C79 N80 1.347 . S
C79 H90 0.929 . S
N80 C78 1.375 . S
N80 C79 1.347 . S
C81 C84 1.365 . S
C81 N86 1.328 . S
C81 H87 0.929 . S
C82 C83 1.362 . S
C82 C85 1.378 . S
C82 H97 0.929 . S
C83 C82 1.362 . S
C83 C84 1.366 . S
C84 C81 1.365 . S
C84 C83 1.366 . S
C84 H98 0.930 . S
C85 C82 1.378 . S
C85 N86 1.315 . S
C85 H88 0.930 1_655 S
N86 Co66 2.194 . S
N86 C81 1.328 . S
N86 C85 1.315 . S
H87 C81 0.929 . S
H88 C85 0.930 1_455 S
H89 C77 0.929 . S
H90 C79 0.929 . S
O91 Co66 2.351 . S
O91 C94 1.244 . S
O92 Co66 2.155 . S
O92 C94 1.240 . S
O93 Co66 2.096 1_455 S
O93 C74 1.247 . S
C94 O91 1.244 . S
C94 O92 1.240 . S
H95 C69 0.931 . S
H96 C78 0.931 . S
H97 C82 0.929 . S
H98 C84 0.930 . S
Co99 N103 2.148 1_565 S
Co99 N109 2.128 1_556 S
Co99 N119 2.194 . S
Co99 O124 2.351 . S
Co99 O125 2.155 . S
Co99 O126 2.096 1_565 S
C100 N103 1.301 . S
C100 N104 1.328 . S
C100 H105 0.930 1_545 S
C101 C102 1.333 . S
C101 N103 1.317 . S
C101 H106 0.930 . S
C102 C101 1.333 . S
C102 N104 1.350 . S
C102 H128 0.931 . S
N103 Co99 2.148 1_545 S
N103 C100 1.301 . S
N103 C101 1.317 . S
N104 C100 1.328 . S
N104 C102 1.350 . S
H105 C100 0.930 1_565 S
H106 C101 0.930 . S
C107 O108 1.224 . S
C107 O126 1.247 1_554 S
O108 C107 1.224 . S
N109 Co99 2.128 1_554 S
N109 C110 1.355 . S
N109 C112 1.311 . S
C110 N109 1.355 . S
C110 C111 1.363 . S
C110 H122 0.929 . S
C111 C110 1.363 . S
C111 N113 1.375 . S
C111 H129 0.931 . S
C112 N109 1.311 . S
C112 N113 1.347 . S
C112 H123 0.929 . S
N113 C111 1.375 . S
N113 C112 1.347 . S
C114 C117 1.365 . S
C114 N119 1.328 . S
C114 H120 0.929 . S
C115 C116 1.362 1_554 S
C115 C118 1.378 1_554 S
C115 H130 0.929 . S
C116 C115 1.362 1_556 S
C116 C117 1.366 . S
C117 C114 1.365 . S
C117 C116 1.366 . S
C117 H131 0.930 . S
C118 C115 1.378 1_556 S
C118 N119 1.315 . S
C118 H121 0.930 1_566 S
N119 Co99 2.194 . S
N119 C114 1.328 . S
N119 C118 1.315 . S
H120 C114 0.929 . S
H121 C118 0.930 1_544 S
H122 C110 0.929 . S
H123 C112 0.929 . S
O124 Co99 2.351 . S
O124 C127 1.244 . S
O125 Co99 2.155 . S
O125 C127 1.240 . S
O126 Co99 2.096 1_545 S
O126 C107 1.247 1_556 S
C127 O124 1.244 . S
C127 O125 1.240 . S
H128 C102 0.931 . S
H129 C111 0.931 . S
H130 C115 0.929 . S
H131 C117 0.930 . S
Co132 N136 2.148 1_455 S
Co132 N142 2.128 . S
Co132 N152 2.194 . S
Co132 O157 2.351 . S
Co132 O158 2.155 . S
Co132 O159 2.096 1_455 S
C133 N136 1.301 . S
C133 N137 1.328 . S
C133 H138 0.930 1_655 S
C134 C135 1.333 . S
C134 N136 1.317 . S
C134 H139 0.930 . S
C135 C134 1.333 . S
C135 N137 1.350 . S
C135 H161 0.931 . S
N136 Co132 2.148 1_655 S
N136 C133 1.301 . S
N136 C134 1.317 . S
N137 C133 1.328 . S
N137 C135 1.350 . S
H138 C133 0.930 1_455 S
H139 C134 0.930 . S
C140 O141 1.224 . S
C140 O159 1.247 . S
O141 C140 1.224 . S
N142 Co132 2.128 . S
N142 C143 1.355 . S
N142 C145 1.311 . S
C143 N142 1.355 . S
C143 C144 1.363 . S
C143 H155 0.929 . S
C144 C143 1.363 . S
C144 N146 1.375 . S
C144 H162 0.931 . S
C145 N142 1.311 . S
C145 N146 1.347 . S
C145 H156 0.929 . S
N146 C144 1.375 . S
N146 C145 1.347 . S
C147 C150 1.365 . S
C147 N152 1.328 . S
C147 H153 0.929 . S
C148 C149 1.362 . S
C148 C151 1.378 . S
C148 H163 0.929 . S
C149 C148 1.362 . S
C149 C150 1.366 . S
C150 C147 1.365 . S
C150 C149 1.366 . S
C150 H164 0.930 . S
C151 C148 1.378 . S
C151 N152 1.315 . S
C151 H154 0.930 1_455 S
N152 Co132 2.194 . S
N152 C147 1.328 . S
N152 C151 1.315 . S
H153 C147 0.929 . S
H154 C151 0.930 1_655 S
H155 C143 0.929 . S
H156 C145 0.929 . S
O157 Co132 2.351 . S
O157 C160 1.244 . S
O158 Co132 2.155 . S
O158 C160 1.240 . S
O159 Co132 2.096 1_655 S
O159 C140 1.247 . S
C160 O157 1.244 . S
C160 O158 1.240 . S
H161 C135 0.931 . S
H162 C144 0.931 . S
H163 C148 0.929 . S
H164 C150 0.930 . S
Co165 N169 2.148 1_545 S
Co165 N175 2.128 . S
Co165 N185 2.194 . S
Co165 O190 2.351 . S
Co165 O191 2.155 . S
Co165 O192 2.096 1_545 S
C166 N169 1.301 . S
C166 N170 1.328 . S
C166 H171 0.930 1_565 S
C167 C168 1.333 . S
C167 N169 1.317 . S
C167 H172 0.930 . S
C168 C167 1.333 . S
C168 N170 1.350 . S
C168 H194 0.931 . S
N169 Co165 2.148 1_565 S
N169 C166 1.301 . S
N169 C167 1.317 . S
N170 C166 1.328 . S
N170 C168 1.350 . S
H171 C166 0.930 1_545 S
H172 C167 0.930 . S
C173 O174 1.224 . S
C173 O192 1.247 . S
O174 C173 1.224 . S
N175 Co165 2.128 . S
N175 C176 1.355 . S
N175 C178 1.311 . S
C176 N175 1.355 . S
C176 C177 1.363 . S
C176 H188 0.929 . S
C177 C176 1.363 . S
C177 N179 1.375 . S
C177 H195 0.931 . S
C178 N175 1.311 . S
C178 N179 1.347 . S
C178 H189 0.929 . S
N179 C177 1.375 . S
N179 C178 1.347 . S
C180 C183 1.365 . S
C180 N185 1.328 . S
C180 H186 0.929 . S
C181 C182 1.362 . S
C181 C184 1.378 . S
C181 H196 0.929 . S
C182 C181 1.362 . S
C182 C183 1.366 . S
C183 C180 1.365 . S
C183 C182 1.366 . S
C183 H197 0.930 . S
C184 C181 1.378 . S
C184 N185 1.315 . S
C184 H187 0.930 1_545 S
N185 Co165 2.194 . S
N185 C180 1.328 . S
N185 C184 1.315 . S
H186 C180 0.929 . S
H187 C184 0.930 1_565 S
H188 C176 0.929 . S
H189 C178 0.929 . S
O190 Co165 2.351 . S
O190 C193 1.244 . S
O191 Co165 2.155 . S
O191 C193 1.240 . S
O192 Co165 2.096 1_565 S
O192 C173 1.247 . S
C193 O190 1.244 . S
C193 O191 1.240 . S
H194 C168 0.931 . S
H195 C177 0.931 . S
H196 C181 0.929 . S
H197 C183 0.930 . S
Co198 N202 2.148 1_655 S
Co198 N208 2.128 . S
Co198 N218 2.194 . S
Co198 O223 2.351 . S
Co198 O224 2.155 . S
Co198 O225 2.096 1_655 S
C199 N202 1.301 . S
C199 N203 1.328 . S
C199 H204 0.930 1_455 S
C200 C201 1.333 . S
C200 N202 1.317 . S
C200 H205 0.930 . S
C201 C200 1.333 . S
C201 N203 1.350 . S
C201 H227 0.931 . S
N202 Co198 2.148 1_455 S
N202 C199 1.301 . S
N202 C200 1.317 . S
N203 C199 1.328 . S
N203 C201 1.350 . S
H204 C199 0.930 1_655 S
H205 C200 0.930 . S
C206 O207 1.224 . S
C206 O225 1.247 . S
O207 C206 1.224 . S
N208 Co198 2.128 . S
N208 C209 1.355 . S
N208 C211 1.311 . S
C209 N208 1.355 . S
C209 C210 1.363 . S
C209 H221 0.929 . S
C210 C209 1.363 . S
C210 N212 1.375 . S
C210 H228 0.931 . S
C211 N208 1.311 . S
C211 N212 1.347 . S
C211 H222 0.929 . S
N212 C210 1.375 . S
N212 C211 1.347 . S
C213 C216 1.365 . S
C213 N218 1.328 . S
C213 H219 0.929 . S
C214 C215 1.362 . S
C214 C217 1.378 . S
C214 H229 0.929 . S
C215 C214 1.362 . S
C215 C216 1.366 . S
C216 C213 1.365 . S
C216 C215 1.366 . S
C216 H230 0.930 . S
C217 C214 1.378 . S
C217 N218 1.315 . S
C217 H220 0.930 1_655 S
N218 Co198 2.194 . S
N218 C213 1.328 . S
N218 C217 1.315 . S
H219 C213 0.929 . S
H220 C217 0.930 1_455 S
H221 C209 0.929 . S
H222 C211 0.929 . S
O223 Co198 2.351 . S
O223 C226 1.244 . S
O224 Co198 2.155 . S
O224 C226 1.240 . S
O225 Co198 2.096 1_455 S
O225 C206 1.247 . S
C226 O223 1.244 . S
C226 O224 1.240 . S
H227 C201 0.931 . S
H228 C210 0.931 . S
H229 C214 0.929 . S
H230 C216 0.930 . S
Co231 N235 2.148 1_565 S
Co231 N241 2.128 1_554 S
Co231 N251 2.194 . S
Co231 O256 2.351 . S
Co231 O257 2.155 . S
Co231 O258 2.096 1_565 S
C232 N235 1.301 . S
C232 N236 1.328 . S
C232 H237 0.930 1_545 S
C233 C234 1.333 . S
C233 N235 1.317 . S
C233 H238 0.930 . S
C234 C233 1.333 . S
C234 N236 1.350 . S
C234 H260 0.931 . S
N235 Co231 2.148 1_545 S
N235 C232 1.301 . S
N235 C233 1.317 . S
N236 C232 1.328 . S
N236 C234 1.350 . S
H237 C232 0.930 1_565 S
H238 C233 0.930 . S
C239 O240 1.224 . S
C239 O258 1.247 1_556 S
O240 C239 1.224 . S
N241 Co231 2.128 1_556 S
N241 C242 1.355 . S
N241 C244 1.311 . S
C242 N241 1.355 . S
C242 C243 1.363 . S
C242 H254 0.929 . S
C243 C242 1.363 . S
C243 N245 1.375 . S
C243 H261 0.931 . S
C244 N241 1.311 . S
C244 N245 1.347 . S
C244 H255 0.929 . S
N245 C243 1.375 . S
N245 C244 1.347 . S
C246 C249 1.365 . S
C246 N251 1.328 . S
C246 H252 0.929 . S
C247 C248 1.362 1_556 S
C247 C250 1.378 1_556 S
C247 H262 0.929 . S
C248 C247 1.362 1_554 S
C248 C249 1.366 . S
C249 C246 1.365 . S
C249 C248 1.366 . S
C249 H263 0.930 . S
C250 C247 1.378 1_554 S
C250 N251 1.315 . S
C250 H253 0.930 1_564 S
N251 Co231 2.194 . S
N251 C246 1.328 . S
N251 C250 1.315 . S
H252 C246 0.929 . S
H253 C250 0.930 1_546 S
H254 C242 0.929 . S
H255 C244 0.929 . S
O256 Co231 2.351 . S
O256 C259 1.244 . S
O257 Co231 2.155 . S
O257 C259 1.240 . S
O258 Co231 2.096 1_545 S
O258 C239 1.247 1_554 S
C259 O256 1.244 . S
C259 O257 1.240 . S
H260 C234 0.931 . S
H261 C243 0.931 . S
H262 C247 0.929 . S
H263 C249 0.930 . S
C149 C17 1.755 . S
C50 C182 1.755 . S
C83 C215 1.755 . S
C116 C248 1.755 1_556 S
N179 N14 0.255 . S
N47 N212 0.255 . S
N245 N80 0.255 . S
N113 N146 0.255 . S
N5 N203 2.779 1_654 S
N236 N38 2.779 1_545 S
N71 N137 2.779 1_455 S
N170 N104 2.779 1_565 S
C28 C107 2.551 . S
C8 C61 2.551 . S
C41 C94 2.551 . S
C74 C127 2.551 . S
C160 C173 2.551 . S
C193 C206 2.551 . S
C226 C239 2.551 . S
C140 C259 2.551 . S
