# Generated by pormake.
# Topology can, (4)-cn, num edge types: 1
# Building blocks:
#     Node 0, Type 0, BuildingBlock: QUQFOY_clean_sbu_1, # of connection points: 4
#     Node 1, Type 0, BuildingBlock: QUQFOY_clean_sbu_1, # of connection points: 4
#     Node 2, Type 0, BuildingBlock: QUQFOY_clean_sbu_1, # of connection points: 4
#     Node 3, Type 0, BuildingBlock: QUQFOY_clean_sbu_1, # of connection points: 4
#     Node 4, Type 0, BuildingBlock: QUQFOY_clean_sbu_1, # of connection points: 4
#     Node 5, Type 0, BuildingBlock: QUQFOY_clean_sbu_1, # of connection points: 4
#     Node 6, Type 0, BuildingBlock: QUQFOY_clean_sbu_1, # of connection points: 4
#     Node 7, Type 0, BuildingBlock: QUQFOY_clean_sbu_1, # of connection points: 4
#     Node 8, Type 0, BuildingBlock: QUQFOY_clean_sbu_1, # of connection points: 4
#     Node 9, Type 0, BuildingBlock: QUQFOY_clean_sbu_1, # of connection points: 4
#     Node 10, Type 0, BuildingBlock: QUQFOY_clean_sbu_1, # of connection points: 4
#     Node 11, Type 0, BuildingBlock: QUQFOY_clean_sbu_1, # of connection points: 4
#     Edge 12, Type (0, 0), BuildingBlock: CIFDUS_clean_linker_0, # of connection points: 2
#     Edge 13, Type (0, 0), BuildingBlock: CIFDUS_clean_linker_0, # of connection points: 2
#     Edge 14, Type (0, 0), BuildingBlock: CIFDUS_clean_linker_0, # of connection points: 2
#     Edge 15, Type (0, 0), BuildingBlock: CIFDUS_clean_linker_0, # of connection points: 2
#     Edge 16, Type (0, 0), BuildingBlock: CIFDUS_clean_linker_0, # of connection points: 2
#     Edge 17, Type (0, 0), BuildingBlock: CIFDUS_clean_linker_0, # of connection points: 2
#     Edge 18, Type (0, 0), BuildingBlock: CIFDUS_clean_linker_0, # of connection points: 2
#     Edge 19, Type (0, 0), BuildingBlock: CIFDUS_clean_linker_0, # of connection points: 2
#     Edge 20, Type (0, 0), BuildingBlock: CIFDUS_clean_linker_0, # of connection points: 2
#     Edge 21, Type (0, 0), BuildingBlock: CIFDUS_clean_linker_0, # of connection points: 2
#     Edge 22, Type (0, 0), BuildingBlock: CIFDUS_clean_linker_0, # of connection points: 2
#     Edge 23, Type (0, 0), BuildingBlock: CIFDUS_clean_linker_0, # of connection points: 2
#     Edge 24, Type (0, 0), BuildingBlock: CIFDUS_clean_linker_0, # of connection points: 2
#     Edge 25, Type (0, 0), BuildingBlock: CIFDUS_clean_linker_0, # of connection points: 2
#     Edge 26, Type (0, 0), BuildingBlock: CIFDUS_clean_linker_0, # of connection points: 2
#     Edge 27, Type (0, 0), BuildingBlock: CIFDUS_clean_linker_0, # of connection points: 2
#     Edge 28, Type (0, 0), BuildingBlock: CIFDUS_clean_linker_0, # of connection points: 2
#     Edge 29, Type (0, 0), BuildingBlock: CIFDUS_clean_linker_0, # of connection points: 2
#     Edge 30, Type (0, 0), BuildingBlock: CIFDUS_clean_linker_0, # of connection points: 2
#     Edge 31, Type (0, 0), BuildingBlock: CIFDUS_clean_linker_0, # of connection points: 2
#     Edge 32, Type (0, 0), BuildingBlock: CIFDUS_clean_linker_0, # of connection points: 2
#     Edge 33, Type (0, 0), BuildingBlock: CIFDUS_clean_linker_0, # of connection points: 2
#     Edge 34, Type (0, 0), BuildingBlock: CIFDUS_clean_linker_0, # of connection points: 2
#     Edge 35, Type (0, 0), BuildingBlock: CIFDUS_clean_linker_0, # of connection points: 2
# Relax obj value: 0.079
# Max RMSD: 0.097
# Mean RMSD: 0.097
data_MOF--net-can--node1-QUQFOY_clean_sbu_1--edge1-CIFDUS_clean_linker_0
_symmetry_space_group_name_H-M    P1
_symmetry_Int_Tables_number       1
_symmetry_cell_setting            triclinic
loop_
_symmetry_equiv_pos_as_xyz
'x, y, z'
_cell_length_a     50.912598
_cell_length_b     50.914202
_cell_length_c     25.014808
_cell_angle_alpha  90.021667
_cell_angle_beta   89.975058
_cell_angle_gamma 120.24259
loop_
_atom_site_label
_atom_site_type_symbol
_atom_site_fract_x
_atom_site_fract_y
_atom_site_fract_z
_atom_type_partial_charge
O0 O 0.06461 0.39056 0.18009 0.0
Cd1 Cd 0.08618 0.41003 0.25123 0.0
Cd2 Cd 0.02743 0.38435 0.28367 0.0
O3 O 0.01753 0.36274 0.20926 0.0
O4 O 0.12975 0.42498 0.2348 0.0
O5 O 0.10374 0.38886 0.29412 0.0
C6 C 0.1289 0.40563 0.26884 0.0
C7 C 0.0111 0.36051 0.36742 0.0
C8 C 0.03686 0.37109 0.17135 0.0
C9 C 0.064 0.45231 0.28218 0.0
O10 O 0.03746 0.42905 0.28276 0.0
O11 O 0.08708 0.44931 0.27533 0.0
O12 O 0.99252 0.3623 0.3345 0.0
O13 O 0.03868 0.37051 0.35132 0.0
O14 O 0.67246 0.07009 0.66655 0.0
Cd15 Cd 0.67244 0.08857 0.73985 0.0
Cd16 Cd 0.64845 0.03067 0.76907 0.0
O17 O 0.66334 0.02514 0.6941 0.0
O18 O 0.69926 0.13327 0.72968 0.0
O19 O 0.71104 0.10609 0.78303 0.0
C20 C 0.71849 0.13198 0.76145 0.0
C21 C 0.65854 0.01731 0.85337 0.0
C22 C 0.66985 0.0444 0.65651 0.0
C23 C 0.60727 0.05666 0.77055 0.0
O24 O 0.60898 0.03262 0.76806 0.0
O25 O 0.63121 0.08258 0.76626 0.0
O26 O 0.64076 0.99688 0.81955 0.0
O27 O 0.6726 0.04532 0.83762 0.0
O28 O 0.62017 0.67419 0.16395 0.0
Cd29 Cd 0.59344 0.67417 0.22595 0.0
Cd30 Cd 0.61687 0.64255 0.27408 0.0
O31 O 0.64301 0.65318 0.20588 0.0
O32 O 0.5841 0.70629 0.20491 0.0
O33 O 0.60897 0.70848 0.27898 0.0
C34 C 0.59789 0.7207 0.24775 0.0
C35 C 0.63893 0.649 0.35842 0.0
C36 C 0.63931 0.66514 0.16411 0.0
C37 C 0.54917 0.6097 0.25488 0.0
O38 O 0.57224 0.60781 0.26835 0.0
O39 O 0.55234 0.63488 0.23909 0.0
O40 O 0.63619 0.62794 0.32637 0.0
O41 O 0.62999 0.66726 0.34187 0.0
O42 O 0.95169 0.62677 0.67185 0.0
Cd43 Cd 0.92466 0.59854 0.73226 0.0
Cd44 Cd 0.97986 0.62084 0.78095 0.0
O45 O 0.99578 0.64767 0.71356 0.0
O46 O 0.88307 0.58896 0.7112 0.0
O47 O 0.90503 0.61215 0.78695 0.0
C48 C 0.88183 0.60136 0.7553 0.0
C49 C 0.99611 0.64226 0.86574 0.0
C50 C 0.98017 0.6453 0.67232 0.0
C51 C 0.94431 0.55356 0.75738 0.0
O52 O 0.96921 0.57614 0.77321 0.0
O53 O 0.92273 0.5573 0.74131 0.0
O54 O 0.01405 0.63923 0.8332 0.0
O55 O 0.9689 0.63385 0.84952 0.0
O56 O 0.33127 0.94516 0.17296 0.0
Cd57 Cd 0.33397 0.91864 0.23255 0.0
Cd58 Cd 0.3575 0.97406 0.28598 0.0
O59 O 0.34399 0.9871 0.21808 0.0
O60 O 0.30849 0.8769 0.20272 0.0
O61 O 0.29758 0.89179 0.27846 0.0
C62 C 0.29043 0.87091 0.24277 0.0
C63 C 0.35036 0.98883 0.37098 0.0
C64 C 0.33543 0.97193 0.17487 0.0
C65 C 0.39927 0.94874 0.26473 0.0
O66 O 0.39628 0.97106 0.27914 0.0
O67 O 0.37647 0.92429 0.24789 0.0
O68 O 0.36937 0.00826 0.33734 0.0
O69 O 0.33427 0.96087 0.35562 0.0
O70 O 0.3816 0.33034 0.67069 0.0
Cd71 Cd 0.41013 0.33193 0.7308 0.0
Cd72 Cd 0.38009 0.35649 0.7834 0.0
O73 O 0.35421 0.34541 0.71535 0.0
O74 O 0.42487 0.30511 0.7023 0.0
O75 O 0.3984 0.29533 0.77722 0.0
C76 C 0.41181 0.28735 0.74237 0.0
C77 C 0.35651 0.34712 0.86673 0.0
C78 C 0.36002 0.33605 0.6724 0.0
C79 C 0.44776 0.39666 0.76536 0.0
O80 O 0.42279 0.39451 0.77963 0.0
O81 O 0.44832 0.37359 0.74728 0.0
O82 O 0.35797 0.36788 0.83539 0.0
O83 O 0.36775 0.33081 0.85 0.0
O84 O 0.61968 0.94322 0.35741 0.0
Cd85 Cd 0.59638 0.92037 0.28958 0.0
Cd86 Cd 0.62077 0.97882 0.25448 0.0
O87 O 0.64366 0.99041 0.32774 0.0
O88 O 0.58486 0.87784 0.30798 0.0
O89 O 0.61311 0.90207 0.23772 0.0
C90 C 0.60013 0.87789 0.26694 0.0
C91 C 0.64364 0.99498 0.16982 0.0
C92 C 0.6379 0.97136 0.36536 0.0
C93 C 0.55257 0.9415 0.26431 0.0
O94 O 0.57575 0.96776 0.25769 0.0
O95 O 0.55576 0.91877 0.2742 0.0
O96 O 0.64147 0.01341 0.20256 0.0
O97 O 0.63439 0.96762 0.18637 0.0
O98 O 0.67646 0.61674 0.86591 0.0
Cd99 Cd 0.67643 0.59037 0.80322 0.0
Cd100 Cd 0.64515 0.61407 0.75591 0.0
O101 O 0.65609 0.64023 0.82411 0.0
O102 O 0.70898 0.58137 0.8226 0.0
O103 O 0.71043 0.60668 0.74956 0.0
C104 C 0.72308 0.59563 0.77985 0.0
C105 C 0.65154 0.63615 0.6716 0.0
C106 C 0.66778 0.63617 0.8659 0.0
C107 C 0.61207 0.54628 0.77467 0.0
O108 O 0.61029 0.5695 0.76184 0.0
O109 O 0.63724 0.54922 0.78984 0.0
O110 O 0.63057 0.63351 0.7038 0.0
O111 O 0.66974 0.62709 0.68798 0.0
O112 O 0.06354 0.67559 0.37675 0.0
Cd113 Cd 0.08949 0.67209 0.31699 0.0
Cd114 Cd 0.03431 0.64921 0.26459 0.0
O115 O 0.02156 0.66324 0.33213 0.0
O116 O 0.13144 0.69758 0.34585 0.0
O117 O 0.11608 0.70823 0.27042 0.0
C118 C 0.13715 0.71554 0.30576 0.0
C119 C 0.02072 0.65728 0.17948 0.0
C120 C 0.03695 0.67192 0.37506 0.0
C121 C 0.05859 0.60663 0.28562 0.0
O122 O 0.03648 0.60997 0.2714 0.0
O123 O 0.08326 0.62928 0.30215 0.0
O124 O 1.00073 0.63831 0.21247 0.0
O125 O 0.04858 0.67279 0.19559 0.0
O126 O 0.38512 0.06069 0.88128 0.0
Cd127 Cd 0.41355 0.08979 0.82302 0.0
Cd128 Cd 0.3895 0.03415 0.76859 0.0
O129 O 0.36303 0.01754 0.83641 0.0
O130 O 0.42477 0.13027 0.8536 0.0
O131 O 0.40093 0.1138 0.77627 0.0
C132 C 0.41233 0.13473 0.81246 0.0
C133 C 0.36755 0.01702 0.68411 0.0
C134 C 0.36605 0.03238 0.87907 0.0
C135 C 0.45728 0.06936 0.79114 0.0
O136 O 0.4343 0.04491 0.77486 0.0
O137 O 0.45419 0.09094 0.80956 0.0
O138 O 0.37112 0.99956 0.71691 0.0
O139 O 0.37567 0.04424 0.69983 0.0
O140 O 0.33055 0.38706 0.37342 0.0
Cd141 Cd 0.33296 0.41285 0.30787 0.0
Cd142 Cd 0.35519 0.37988 0.26199 0.0
O143 O 0.34117 0.35538 0.33169 0.0
O144 O 0.30893 0.43251 0.32702 0.0
O145 O 0.29532 0.39795 0.2629 0.0
C146 C 0.28986 0.41612 0.29049 0.0
C147 C 0.34415 0.35567 0.17931 0.0
C148 C 0.33353 0.36372 0.3739 0.0
C149 C 0.39804 0.44684 0.27272 0.0
O150 O 0.39527 0.42095 0.26437 0.0
O151 O 0.3751 0.44888 0.28649 0.0
O152 O 0.36346 0.35476 0.21145 0.0
O153 O 0.32995 0.36934 0.19525 0.0
O154 O 0.93716 0.33397 0.87189 0.0
Cd155 Cd 0.91807 0.33559 0.80013 0.0
Cd156 Cd 0.97638 0.35803 0.76793 0.0
O157 O 0.98194 0.34321 0.84274 0.0
O158 O 0.87344 0.3138 0.81454 0.0
O159 O 0.89482 0.29642 0.75855 0.0
C160 C 0.8707 0.29296 0.78208 0.0
C161 C 0.98902 0.347 0.68374 0.0
C162 C 0.96292 0.33648 0.88081 0.0
C163 C 0.95283 0.40114 0.76858 0.0
O164 O 0.97632 0.39845 0.76893 0.0
O165 O 0.92661 0.37787 0.77472 0.0
O166 O 0.00972 0.36452 0.71739 0.0
O167 O 0.96103 0.33372 0.69958 0.0
H168 H 0.97894 0.33921 0.1312 0.0
H169 H 0.07318 0.37988 0.085 0.0
H170 H 0.05854 0.36982 0.99127 0.0
H171 H 0.01946 0.35439 0.92138 0.0
H172 H 0.92534 0.3149 0.96745 0.0
H173 H 0.93943 0.31924 0.06148 0.0
C174 C 0.99625 0.34541 0.10075 0.0
C175 C 0.02714 0.36059 0.11544 0.0
C176 C 0.98772 0.33998 0.04645 0.0
C177 C 0.04921 0.36842 0.07513 0.0
C178 C 0.04088 0.36272 0.02129 0.0
C179 C 1.00197 0.3462 0.95191 0.0
C180 C 0.97141 0.33461 0.93707 0.0
C181 C 0.01027 0.34925 1.0063 0.0
C182 C 0.94909 0.32418 0.97746 0.0
C183 C 0.95712 0.32671 0.03144 0.0
H184 H 0.66602 0.02932 0.40567 0.0
H185 H 0.63447 0.93623 0.45048 0.0
H186 H 0.64423 0.95089 0.54425 0.0
H187 H 0.65641 0.98911 0.61482 0.0
H188 H 0.68723 0.08205 0.5699 0.0
H189 H 0.68336 0.06849 0.47575 0.0
C190 C 0.66184 0.01232 0.43579 0.0
C191 C 0.6492 0.98166 0.42074 0.0
C192 C 0.66706 0.0208 0.49013 0.0
C193 C 0.64394 0.96 0.46064 0.0
C194 C 0.64944 0.96833 0.51452 0.0
C195 C 0.66276 0.00651 0.5845 0.0
C196 C 0.67173 0.03648 0.59981 0.0
C197 C 0.66016 0.99851 0.52995 0.0
C198 C 0.67994 0.05869 0.55964 0.0
C199 C 0.67771 0.05097 0.50553 0.0
H200 H 0.63508 0.68719 0.06742 0.0
H201 H 0.67699 0.6422 0.14656 0.0
H202 H 0.69329 0.63292 0.0604 0.0
H203 H 0.68937 0.63129 0.96266 0.0
H204 H 0.64572 0.67457 0.88355 0.0
H205 H 0.63681 0.69115 0.96971 0.0
C206 C 0.64823 0.67581 0.066 0.0
C207 C 0.6543 0.66494 0.11343 0.0
C208 C 0.65699 0.66996 1.01624 0.0
C209 C 0.67171 0.65057 0.11074 0.0
C210 C 0.68095 0.64513 0.06141 0.0
C211 C 0.67836 0.64479 0.96409 0.0
C212 C 0.66776 0.65118 0.91666 0.0
C213 C 0.67273 0.65373 1.01386 0.0
C214 C 0.65387 0.66904 0.91937 0.0
C215 C 0.64865 0.67845 0.9687 0.0
H216 H 0.0643 0.69333 0.47119 0.0
H217 H 0.97712 0.654 0.3924 0.0
H218 H 0.95197 0.64652 0.47874 0.0
H219 H 0.95413 0.64381 0.57644 0.0
H220 H 0.04127 0.68136 0.65496 0.0
H221 H 0.06698 0.69727 0.56882 0.0
C222 C 0.03984 0.68362 0.47274 0.0
C223 C 0.02259 0.67367 0.42541 0.0
C224 C 0.02545 0.67876 0.52255 0.0
C225 C 0.99097 0.66162 0.42817 0.0
C226 C 0.97652 0.65718 0.47761 0.0
C227 C 0.97878 0.656 0.5749 0.0
C228 C 0.99569 0.6608 0.6221 0.0
C229 C 0.99343 0.66451 0.5251 0.0
C230 C 0.02762 0.67702 0.6193 0.0
C231 C 0.04238 0.68604 0.56998 0.0
H232 H 0.36622 0.057 0.9758 0.0
H233 H 0.33082 0.97094 0.8942 0.0
H234 H 0.31396 0.94416 0.97929 0.0
H235 H 0.31613 0.94567 0.07719 0.0
H236 H 0.35317 0.03183 0.15898 0.0
H237 H 0.36199 0.05794 0.07339 0.0
C238 C 0.35435 0.03235 0.97642 0.0
C239 C 0.35035 0.01608 0.92867 0.0
C240 C 0.34522 0.01708 0.02562 0.0
C241 C 0.33449 0.98412 0.93029 0.0
C242 C 0.32494 0.96875 0.97903 0.0
C243 C 0.32563 0.97011 0.07645 0.0
C244 C 0.33451 0.98679 0.1245 0.0
C245 C 0.33125 0.98507 0.02705 0.0
C246 C 0.34635 0.0184 0.12269 0.0
C247 C 0.35157 0.0334 0.07368 0.0
H248 H 0.31349 0.37201 0.46981 0.0
H249 H 0.35033 0.32145 0.39339 0.0
H250 H 0.35768 0.30453 0.4803 0.0
H251 H 0.36088 0.31051 0.57764 0.0
H252 H 0.32489 0.36173 0.65429 0.0
H253 H 0.30946 0.37142 0.56765 0.0
C254 C 0.32263 0.35685 0.47209 0.0
C255 C 0.33196 0.34858 0.42523 0.0
C256 C 0.32719 0.3475 0.52227 0.0
C257 C 0.34325 0.32847 0.42883 0.0
C258 C 0.34759 0.31886 0.47857 0.0
C259 C 0.34915 0.32331 0.57551 0.0
C260 C 0.34464 0.33591 0.62221 0.0
C261 C 0.34078 0.32923 0.52554 0.0
C262 C 0.3289 0.35197 0.61891 0.0
C263 C 0.32022 0.3577 0.56931 0.0
H264 H 0.96059 0.63547 0.95197 0.0
H265 H 0.05408 0.67248 0.90391 0.0
H266 H 0.07045 0.68405 0.99689 0.0
H267 H 0.05775 0.67867 0.09256 0.0
H268 H 0.96394 0.63845 0.14088 0.0
H269 H 0.94825 0.6335 0.04746 0.0
C270 C 0.98458 0.64655 0.96178 0.0
C271 C 0.00605 0.65293 0.9211 0.0
C272 C 0.99379 0.65238 1.01557 0.0
C273 C 0.03705 0.66712 0.93451 0.0
C274 C 0.04645 0.67373 0.98772 0.0
C275 C 0.03395 0.66938 0.08265 0.0
C276 C 0.01205 0.65884 0.12359 0.0
C277 C 0.02496 0.66573 0.02872 0.0
C278 C 0.98125 0.64659 0.11008 0.0
C279 C 0.97223 0.64368 0.05663 0.0
H280 H 0.32948 0.95284 0.45928 0.0
H281 H 0.36997 0.04612 0.40775 0.0
H282 H 0.37565 0.06291 0.50064 0.0
H283 H 0.37411 0.05164 0.5966 0.0
H284 H 0.33691 0.95866 0.64783 0.0
H285 H 0.32472 0.94126 0.55542 0.0
C286 C 0.33899 0.97678 0.46839 0.0
C287 C 0.34937 0.99819 0.42667 0.0
C288 C 0.34308 0.98639 0.52202 0.0
C289 C 0.36193 0.02917 0.43915 0.0
C290 C 0.36526 0.03882 0.49229 0.0
C291 C 0.36285 0.02754 0.5876 0.0
C292 C 0.35657 0.00652 0.62903 0.0
C293 C 0.35668 0.01772 0.53411 0.0
C294 C 0.34219 0.97536 0.61665 0.0
C295 C 0.33523 0.96537 0.56377 0.0
H296 H 0.36465 0.31826 0.95106 0.0
H297 H 0.32268 0.37045 0.90607 0.0
H298 H 0.31097 0.37385 0.9995 0.0
H299 H 0.31877 0.36792 0.09446 0.0
H300 H 0.36366 0.31854 0.13977 0.0
H301 H 0.36766 0.30773 0.04601 0.0
C302 C 0.35239 0.32982 0.96163 0.0
C303 C 0.34485 0.34436 0.92179 0.0
C304 C 0.34648 0.33245 1.01565 0.0
C305 C 0.32901 0.35932 0.93609 0.0
C306 C 0.32234 0.36133 0.98953 0.0
C307 C 0.32882 0.35423 0.08389 0.0
C308 C 0.34117 0.34433 0.12396 0.0
C309 C 0.33189 0.34888 0.02979 0.0
C310 C 0.35421 0.32668 0.10961 0.0
C311 C 0.35659 0.32055 0.05597 0.0
H312 H 0.95131 0.32588 0.59698 0.0
H313 H 0.04536 0.36504 0.64286 0.0
H314 H 0.06023 0.3697 0.54896 0.0
H315 H 0.04722 0.3675 0.45348 0.0
H316 H 0.95343 0.33079 0.40784 0.0
H317 H 0.93788 0.32013 0.50136 0.0
C318 C 0.97499 0.33488 0.58651 0.0
C319 C 0.99715 0.34514 0.62717 0.0
C320 C 0.98354 0.33823 0.53216 0.0
C321 C 0.02778 0.35702 0.61259 0.0
C322 C 0.03635 0.35979 0.55876 0.0
C323 C 0.02332 0.35666 0.46388 0.0
C324 C 1.00158 0.35008 0.42345 0.0
C325 C 0.01454 0.3512 0.51812 0.0
C326 C 0.97072 0.33624 0.43794 0.0
C327 C 0.96178 0.33017 0.49157 0.0
H328 H 0.67925 0.05483 0.94033 0.0
H329 H 0.63967 0.96076 0.89419 0.0
H330 H 0.63441 0.94577 0.98813 0.0
H331 H 0.63644 0.95877 0.08368 0.0
H332 H 0.67334 0.05259 0.12937 0.0
H333 H 0.68442 0.06817 0.03592 0.0
C334 C 0.67002 0.03111 0.95076 0.0
C335 C 0.65987 0.00899 0.91002 0.0
C336 C 0.66628 0.0225 1.00509 0.0
C337 C 0.64764 0.97831 0.92454 0.0
C338 C 0.64452 0.96967 0.97838 0.0
C339 C 0.64739 0.98268 0.0733 0.0
C340 C 0.65396 0.00444 0.11372 0.0
C341 C 0.65307 0.99148 1.01908 0.0
C342 C 0.66791 0.0353 0.09926 0.0
C343 C 0.67422 0.04426 0.04569 0.0
H344 H 0.62802 0.67416 0.44529 0.0
H345 H 0.67319 0.62572 0.39589 0.0
H346 H 0.68465 0.62092 0.48896 0.0
H347 H 0.67689 0.62549 0.58473 0.0
H348 H 0.62804 0.67023 0.63416 0.0
H349 H 0.62327 0.68175 0.54111 0.0
C350 C 0.64088 0.66308 0.45489 0.0
C351 C 0.64965 0.65024 0.41382 0.0
C352 C 0.6465 0.65949 0.50865 0.0
C353 C 0.66603 0.63566 0.42685 0.0
C354 C 0.67255 0.63285 0.48008 0.0
C355 C 0.66572 0.63827 0.57516 0.0
C356 C 0.65275 0.6469 0.61622 0.0
C357 C 0.66217 0.64393 0.5214 0.0
C358 C 0.63807 0.66318 0.6032 0.0
C359 C 0.63528 0.66974 0.54998 0.0
H360 H 0.1022 0.59099 0.30056 0.0
H361 H 0.00657 0.55283 0.26704 0.0
H362 H 0.99971 0.50195 0.2652 0.0
H363 H 0.02067 0.46813 0.27203 0.0
H364 H 0.11648 0.50586 0.30236 0.0
H365 H 0.12334 0.55691 0.30678 0.0
C366 C 0.07986 0.57155 0.29289 0.0
C367 C 0.05498 0.57585 0.28396 0.0
C368 C 0.07604 0.54219 0.29144 0.0
C369 C 0.0262 0.55033 0.27388 0.0
C370 C 0.02219 0.52113 0.27293 0.0
C371 C 0.04303 0.48747 0.27998 0.0
C372 C 0.06797 0.48312 0.28705 0.0
C373 C 0.04692 0.51679 0.2816 0.0
C374 C 0.09686 0.50853 0.29674 0.0
C375 C 0.10082 0.53776 0.29924 0.0
H376 H 0.4703 0.02421 0.77855 0.0
H377 H 0.51283 0.12127 0.8003 0.0
H378 H 0.56304 0.12598 0.79665 0.0
H379 H 0.59486 0.10249 0.78604 0.0
H380 H 0.55164 0.00512 0.7668 0.0
H381 H 0.50178 1.00067 0.77102 0.0
C382 C 0.49053 0.04644 0.78236 0.0
C383 C 0.48778 0.07236 0.78933 0.0
C384 C 0.51925 0.04894 0.78085 0.0
C385 C 0.51427 0.10093 0.79487 0.0
C386 C 0.543 0.10365 0.79275 0.0
C387 C 0.57454 0.08028 0.78294 0.0
C388 C 0.5771 0.05421 0.77593 0.0
C389 C 0.54577 0.0778 0.78563 0.0
C390 C 0.55046 0.02561 0.77227 0.0
C391 C 0.52186 0.023 0.77453 0.0
H392 H 0.53545 0.55092 0.25907 0.0
H393 H 0.49406 0.60689 0.25557 0.0
H394 H 0.44357 0.56148 0.26087 0.0
H395 H 0.41123 0.5058 0.26739 0.0
H396 H 0.45309 0.45015 0.26731 0.0
H397 H 0.5033 0.49554 0.26235 0.0
C398 C 0.5154 0.55322 0.25959 0.0
C399 C 0.51854 0.58227 0.25728 0.0
C400 C 0.4865 0.52706 0.2619 0.0
C401 C 0.49229 0.5848 0.25728 0.0
C402 C 0.46341 0.55884 0.26039 0.0
C403 C 0.43134 0.50361 0.26626 0.0
C404 C 0.42835 0.47458 0.26794 0.0
C405 C 0.46025 0.52985 0.26284 0.0
C406 C 0.45466 0.47217 0.26596 0.0
C407 C 0.48343 0.49813 0.26326 0.0
H408 H 0.98882 0.5392 0.76422 0.0
H409 H 0.89154 0.49879 0.74963 0.0
H410 H 0.88558 0.44805 0.75059 0.0
H411 H 0.90798 0.41517 0.75732 0.0
H412 H 0.00546 0.45603 0.76959 0.0
H413 H 0.01128 0.50654 0.76739 0.0
C414 C 0.96629 0.51931 0.76134 0.0
C415 C 0.94066 0.5228 0.75724 0.0
C416 C 0.96305 0.49026 0.76133 0.0
C417 C 0.91167 0.49676 0.75286 0.0
C418 C 0.90823 0.46773 0.75344 0.0
C419 C 0.93051 0.43511 0.7593 0.0
C420 C 0.95621 0.43172 0.76385 0.0
C421 C 0.93376 0.4642 0.75786 0.0
C422 C 0.98525 0.45788 0.76604 0.0
C423 C 0.98863 0.48683 0.76496 0.0
H424 H 0.41387 0.90414 0.25425 0.0
H425 H 0.45364 1.00084 0.27825 0.0
H426 H 0.50429 0.00709 0.27866 0.0
H427 H 0.53749 0.98541 0.27237 0.0
H428 H 0.49826 0.88861 0.25202 0.0
H429 H 0.44732 0.88218 0.24987 0.0
C430 C 0.43362 0.92657 0.25956 0.0
C431 C 0.42986 0.95195 0.26612 0.0
C432 C 0.46284 0.93005 0.26029 0.0
C433 C 0.45575 0.98084 0.2733 0.0
C434 C 0.48481 0.9845 0.27339 0.0
C435 C 0.51783 0.9629 0.26718 0.0
C436 C 0.52172 0.93757 0.26207 0.0
C437 C 0.48863 0.9593 0.26686 0.0
C438 C 0.49592 0.90852 0.25606 0.0
C439 C 0.46677 0.90481 0.25481 0.0
H440 H 0.55359 0.53329 0.77537 0.0
H441 H 0.60854 0.49082 0.77023 0.0
H442 H 0.56258 0.4406 0.76619 0.0
H443 H 0.50656 0.40879 0.76377 0.0
H444 H 0.45233 0.45203 0.77337 0.0
H445 H 0.49823 0.50184 0.77608 0.0
C446 C 0.55555 0.51306 0.77318 0.0
C447 C 0.58443 0.5158 0.77271 0.0
C448 C 0.52913 0.48436 0.77177 0.0
C449 C 0.58655 0.48933 0.77065 0.0
C450 C 0.56029 0.46062 0.76826 0.0
C451 C 0.50483 0.42913 0.76643 0.0
C452 C 0.47602 0.42664 0.76821 0.0
C453 C 0.53142 0.45785 0.76874 0.0
C454 C 0.47417 0.45322 0.77214 0.0
C455 C 0.50042 0.48177 0.77355 0.0
H456 H 0.18754 0.44883 0.25365 0.0
H457 H 0.13071 0.35541 0.30193 0.0
H458 H 0.17557 0.34964 0.30919 0.0
H459 H 0.23127 0.37146 0.3015 0.0
H460 H 0.28794 0.46612 0.26142 0.0
H461 H 0.24288 0.4712 0.25054 0.0
C462 C 0.18501 0.42722 0.26586 0.0
C463 C 0.15594 0.40253 0.27701 0.0
C464 C 0.21085 0.4243 0.27089 0.0
C465 C 0.15293 0.37477 0.29342 0.0
C466 C 0.17853 0.37143 0.29726 0.0
C467 C 0.23352 0.39303 0.28987 0.0
C468 C 0.26256 0.41829 0.28121 0.0
C469 C 0.2076 0.39601 0.28584 0.0
C470 C 0.26562 0.44639 0.26759 0.0
C471 C 0.23994 0.44929 0.26161 0.0
H472 H 0.8563 0.23409 0.78898 0.0
H473 H 0.81804 0.2913 0.75898 0.0
H474 H 0.76732 0.24643 0.74988 0.0
H475 H 0.73389 0.19097 0.75132 0.0
H476 H 0.77108 0.13366 0.78978 0.0
H477 H 0.82211 0.1784 0.79565 0.0
C478 C 0.83681 0.23655 0.7799 0.0
C479 C 0.84073 0.26572 0.77362 0.0
C480 C 0.80757 0.21069 0.77702 0.0
C481 C 0.8154 0.26892 0.76337 0.0
C482 C 0.78646 0.24333 0.7584 0.0
C483 C 0.75316 0.18831 0.76124 0.0
C484 C 0.74879 0.1591 0.76994 0.0
C485 C 0.78226 0.21412 0.76541 0.0
C486 C 0.77388 0.15596 0.78326 0.0
C487 C 0.80307 0.1815 0.78624 0.0
H488 H 0.60165 0.76286 0.17762 0.0
H489 H 0.60026 0.74463 0.34625 0.0
H490 H 0.60103 0.79203 0.36707 0.0
H491 H 0.60006 0.83754 0.33699 0.0
H492 H 0.60545 0.85782 0.16865 0.0
H493 H 0.60535 0.81073 0.14777 0.0
C494 C 0.60162 0.76937 0.2189 0.0
C495 C 0.60053 0.75023 0.26041 0.0
C496 C 0.60274 0.79691 0.23047 0.0
C497 C 0.60105 0.75906 0.31372 0.0
C498 C 0.60139 0.78606 0.32559 0.0
C499 C 0.60131 0.83164 0.29576 0.0
C500 C 0.60238 0.8508 0.2543 0.0
C501 C 0.60191 0.80497 0.28426 0.0
C502 C 0.60457 0.84332 0.20112 0.0
C503 C 0.60441 0.8164 0.18923 0.0
H504 H 0.84156 0.60278 0.68663 0.0
H505 H 0.86061 0.60292 0.85465 0.0
H506 H 0.81297 0.60127 0.8771 0.0
H507 H 0.76506 0.5978 0.84865 0.0
H508 H 0.74771 0.60123 0.6808 0.0
H509 H 0.79569 0.60361 0.65837 0.0
C510 C 0.83528 0.60254 0.72815 0.0
C511 C 0.8543 0.60262 0.76899 0.0
C512 C 0.80822 0.60217 0.74066 0.0
C513 C 0.84626 0.60284 0.8226 0.0
C514 C 0.81902 0.6018 0.83541 0.0
C515 C 0.77186 0.59913 0.80717 0.0
C516 C 0.75281 0.59897 0.76633 0.0
C517 C 0.79969 0.60111 0.79474 0.0
C518 C 0.76204 0.60127 0.71283 0.0
C519 C 0.78939 0.60254 0.70004 0.0
H520 H 0.26025 0.8401 0.3322 0.0
H521 H 0.25666 0.83563 0.16005 0.0
H522 H 0.20848 0.78751 0.16381 0.0
H523 H 0.16698 0.7467 0.21623 0.0
H524 H 0.17294 0.74895 0.38828 0.0
H525 H 0.22043 0.79769 0.38451 0.0
C526 C 0.24886 0.82852 0.29562 0.0
C527 C 0.26182 0.8414 0.24598 0.0
C528 C 0.22158 0.80041 0.29808 0.0
C529 C 0.24711 0.82605 0.19879 0.0
C530 C 0.21954 0.79859 0.20088 0.0
C531 C 0.17876 0.7579 0.25279 0.0
C532 C 0.16646 0.74439 0.30241 0.0
C533 C 0.2065 0.78556 0.2503 0.0
C534 C 0.18207 0.75889 0.34955 0.0
C535 C 0.20917 0.78681 0.34746 0.0
H536 H 0.40778 0.25598 0.83292 0.0
H537 H 0.41549 0.25381 0.66149 0.0
H538 H 0.41471 0.20553 0.66748 0.0
H539 H 0.41254 0.1641 0.72166 0.0
H540 H 0.40941 0.16859 0.89349 0.0
H541 H 0.40763 0.21558 0.88729 0.0
C542 C 0.40921 0.24484 0.79696 0.0
C543 C 0.41158 0.25832 0.74689 0.0
C544 C 0.40958 0.21748 0.8008 0.0
C545 C 0.41379 0.2439 0.70057 0.0
C546 C 0.41326 0.21626 0.70392 0.0
C547 C 0.41133 0.17535 0.75762 0.0
C548 C 0.41094 0.16291 0.80788 0.0
C549 C 0.41124 0.20286 0.75382 0.0
C550 C 0.40981 0.17786 0.85431 0.0
C551 C 0.40875 0.20468 0.85082 0.0
loop_
_geom_bond_atom_site_label_1
_geom_bond_atom_site_label_2
_geom_bond_distance
_geom_bond_site_symmetry_2
_ccdc_geom_bond_type
O0 Cd1 2.223 . S
O0 C8 1.315 . S
Cd1 O0 2.223 . S
Cd1 O4 2.297 . S
Cd1 O5 2.439 . S
Cd1 O11 2.240 . S
Cd2 O3 2.240 . S
Cd2 O10 2.223 . S
Cd2 O12 2.297 1_455 S
Cd2 O13 2.439 . S
O3 Cd2 2.240 . S
O3 C8 1.279 . S
O4 Cd1 2.297 . S
O4 C6 1.247 . S
O5 Cd1 2.439 . S
O5 C6 1.208 . S
C6 O4 1.247 . S
C6 O5 1.208 . S
C7 O12 1.247 1_455 S
C7 O13 1.208 . S
C8 O0 1.315 . S
C8 O3 1.279 . S
C9 O10 1.315 . S
C9 O11 1.279 . S
O10 Cd2 2.223 . S
O10 C9 1.315 . S
O11 Cd1 2.240 . S
O11 C9 1.279 . S
O12 Cd2 2.297 1_655 S
O12 C7 1.247 1_655 S
O13 Cd2 2.439 . S
O13 C7 1.208 . S
O14 Cd15 2.223 . S
O14 C22 1.315 . S
Cd15 O14 2.223 . S
Cd15 O18 2.297 . S
Cd15 O19 2.439 . S
Cd15 O25 2.240 . S
Cd16 O17 2.240 . S
Cd16 O24 2.223 . S
Cd16 O26 2.297 1_545 S
Cd16 O27 2.439 . S
O17 Cd16 2.240 . S
O17 C22 1.279 . S
O18 Cd15 2.297 . S
O18 C20 1.247 . S
O19 Cd15 2.439 . S
O19 C20 1.208 . S
C20 O18 1.247 . S
C20 O19 1.208 . S
C21 O26 1.247 1_545 S
C21 O27 1.208 . S
C22 O14 1.315 . S
C22 O17 1.279 . S
C23 O24 1.315 . S
C23 O25 1.279 . S
O24 Cd16 2.223 . S
O24 C23 1.315 . S
O25 Cd15 2.240 . S
O25 C23 1.279 . S
O26 Cd16 2.297 1_565 S
O26 C21 1.247 1_565 S
O27 Cd16 2.439 . S
O27 C21 1.208 . S
O28 Cd29 2.223 . S
O28 C36 1.315 . S
Cd29 O28 2.223 . S
Cd29 O32 2.297 . S
Cd29 O33 2.439 . S
Cd29 O39 2.240 . S
Cd30 O31 2.240 . S
Cd30 O38 2.223 . S
Cd30 O40 2.297 . S
Cd30 O41 2.439 . S
O31 Cd30 2.240 . S
O31 C36 1.279 . S
O32 Cd29 2.297 . S
O32 C34 1.247 . S
O33 Cd29 2.439 . S
O33 C34 1.208 . S
C34 O32 1.247 . S
C34 O33 1.208 . S
C35 O40 1.247 . S
C35 O41 1.208 . S
C36 O28 1.315 . S
C36 O31 1.279 . S
C37 O38 1.315 . S
C37 O39 1.279 . S
O38 Cd30 2.223 . S
O38 C37 1.315 . S
O39 Cd29 2.240 . S
O39 C37 1.279 . S
O40 Cd30 2.297 . S
O40 C35 1.247 . S
O41 Cd30 2.439 . S
O41 C35 1.208 . S
O42 Cd43 2.223 . S
O42 C50 1.315 . S
Cd43 O42 2.223 . S
Cd43 O46 2.297 . S
Cd43 O47 2.439 . S
Cd43 O53 2.240 . S
Cd44 O45 2.240 . S
Cd44 O52 2.223 . S
Cd44 O54 2.297 1_655 S
Cd44 O55 2.439 . S
O45 Cd44 2.240 . S
O45 C50 1.279 . S
O46 Cd43 2.297 . S
O46 C48 1.247 . S
O47 Cd43 2.439 . S
O47 C48 1.208 . S
C48 O46 1.247 . S
C48 O47 1.208 . S
C49 O54 1.247 1_655 S
C49 O55 1.208 . S
C50 O42 1.315 . S
C50 O45 1.279 . S
C51 O52 1.315 . S
C51 O53 1.279 . S
O52 Cd44 2.223 . S
O52 C51 1.315 . S
O53 Cd43 2.240 . S
O53 C51 1.279 . S
O54 Cd44 2.297 1_455 S
O54 C49 1.247 1_455 S
O55 Cd44 2.439 . S
O55 C49 1.208 . S
O56 Cd57 2.223 . S
O56 C64 1.315 . S
Cd57 O56 2.223 . S
Cd57 O60 2.297 . S
Cd57 O61 2.439 . S
Cd57 O67 2.240 . S
Cd58 O59 2.240 . S
Cd58 O66 2.223 . S
Cd58 O68 2.297 1_565 S
Cd58 O69 2.439 . S
O59 Cd58 2.240 . S
O59 C64 1.279 . S
O60 Cd57 2.297 . S
O60 C62 1.247 . S
O61 Cd57 2.439 . S
O61 C62 1.208 . S
C62 O60 1.247 . S
C62 O61 1.208 . S
C63 O68 1.247 1_565 S
C63 O69 1.208 . S
C64 O56 1.315 . S
C64 O59 1.279 . S
C65 O66 1.315 . S
C65 O67 1.279 . S
O66 Cd58 2.223 . S
O66 C65 1.315 . S
O67 Cd57 2.240 . S
O67 C65 1.279 . S
O68 Cd58 2.297 1_545 S
O68 C63 1.247 1_545 S
O69 Cd58 2.439 . S
O69 C63 1.208 . S
O70 Cd71 2.223 . S
O70 C78 1.315 . S
Cd71 O70 2.223 . S
Cd71 O74 2.297 . S
Cd71 O75 2.439 . S
Cd71 O81 2.240 . S
Cd72 O73 2.240 . S
Cd72 O80 2.223 . S
Cd72 O82 2.297 . S
Cd72 O83 2.439 . S
O73 Cd72 2.240 . S
O73 C78 1.279 . S
O74 Cd71 2.297 . S
O74 C76 1.247 . S
O75 Cd71 2.439 . S
O75 C76 1.208 . S
C76 O74 1.247 . S
C76 O75 1.208 . S
C77 O82 1.247 . S
C77 O83 1.208 . S
C78 O70 1.315 . S
C78 O73 1.279 . S
C79 O80 1.315 . S
C79 O81 1.279 . S
O80 Cd72 2.223 . S
O80 C79 1.315 . S
O81 Cd71 2.240 . S
O81 C79 1.279 . S
O82 Cd72 2.297 . S
O82 C77 1.247 . S
O83 Cd72 2.439 . S
O83 C77 1.208 . S
O84 Cd85 2.223 . S
O84 C92 1.315 . S
Cd85 O84 2.223 . S
Cd85 O88 2.297 . S
Cd85 O89 2.439 . S
Cd85 O95 2.240 . S
Cd86 O87 2.240 . S
Cd86 O94 2.223 . S
Cd86 O96 2.297 1_565 S
Cd86 O97 2.439 . S
O87 Cd86 2.240 . S
O87 C92 1.279 . S
O88 Cd85 2.297 . S
O88 C90 1.247 . S
O89 Cd85 2.439 . S
O89 C90 1.208 . S
C90 O88 1.247 . S
C90 O89 1.208 . S
C91 O96 1.247 1_565 S
C91 O97 1.208 . S
C92 O84 1.315 . S
C92 O87 1.279 . S
C93 O94 1.315 . S
C93 O95 1.279 . S
O94 Cd86 2.223 . S
O94 C93 1.315 . S
O95 Cd85 2.240 . S
O95 C93 1.279 . S
O96 Cd86 2.297 1_545 S
O96 C91 1.247 1_545 S
O97 Cd86 2.439 . S
O97 C91 1.208 . S
O98 Cd99 2.223 . S
O98 C106 1.315 . S
Cd99 O98 2.223 . S
Cd99 O102 2.297 . S
Cd99 O103 2.439 . S
Cd99 O109 2.240 . S
Cd100 O101 2.240 . S
Cd100 O108 2.223 . S
Cd100 O110 2.297 . S
Cd100 O111 2.439 . S
O101 Cd100 2.240 . S
O101 C106 1.279 . S
O102 Cd99 2.297 . S
O102 C104 1.247 . S
O103 Cd99 2.439 . S
O103 C104 1.208 . S
C104 O102 1.247 . S
C104 O103 1.208 . S
C105 O110 1.247 . S
C105 O111 1.208 . S
C106 O98 1.315 . S
C106 O101 1.279 . S
C107 O108 1.315 . S
C107 O109 1.279 . S
O108 Cd100 2.223 . S
O108 C107 1.315 . S
O109 Cd99 2.240 . S
O109 C107 1.279 . S
O110 Cd100 2.297 . S
O110 C105 1.247 . S
O111 Cd100 2.439 . S
O111 C105 1.208 . S
O112 Cd113 2.223 . S
O112 C120 1.315 . S
Cd113 O112 2.223 . S
Cd113 O116 2.297 . S
Cd113 O117 2.439 . S
Cd113 O123 2.240 . S
Cd114 O115 2.240 . S
Cd114 O122 2.223 . S
Cd114 O124 2.297 1_455 S
Cd114 O125 2.439 . S
O115 Cd114 2.240 . S
O115 C120 1.279 . S
O116 Cd113 2.297 . S
O116 C118 1.247 . S
O117 Cd113 2.439 . S
O117 C118 1.208 . S
C118 O116 1.247 . S
C118 O117 1.208 . S
C119 O124 1.247 1_455 S
C119 O125 1.208 . S
C120 O112 1.315 . S
C120 O115 1.279 . S
C121 O122 1.315 . S
C121 O123 1.279 . S
O122 Cd114 2.223 . S
O122 C121 1.315 . S
O123 Cd113 2.240 . S
O123 C121 1.279 . S
O124 Cd114 2.297 1_655 S
O124 C119 1.247 1_655 S
O125 Cd114 2.439 . S
O125 C119 1.208 . S
O126 Cd127 2.223 . S
O126 C134 1.315 . S
Cd127 O126 2.223 . S
Cd127 O130 2.297 . S
Cd127 O131 2.439 . S
Cd127 O137 2.240 . S
Cd128 O129 2.240 . S
Cd128 O136 2.223 . S
Cd128 O138 2.297 1_545 S
Cd128 O139 2.439 . S
O129 Cd128 2.240 . S
O129 C134 1.279 . S
O130 Cd127 2.297 . S
O130 C132 1.247 . S
O131 Cd127 2.439 . S
O131 C132 1.208 . S
C132 O130 1.247 . S
C132 O131 1.208 . S
C133 O138 1.247 1_545 S
C133 O139 1.208 . S
C134 O126 1.315 . S
C134 O129 1.279 . S
C135 O136 1.315 . S
C135 O137 1.279 . S
O136 Cd128 2.223 . S
O136 C135 1.315 . S
O137 Cd127 2.240 . S
O137 C135 1.279 . S
O138 Cd128 2.297 1_565 S
O138 C133 1.247 1_565 S
O139 Cd128 2.439 . S
O139 C133 1.208 . S
O140 Cd141 2.223 . S
O140 C148 1.315 . S
Cd141 O140 2.223 . S
Cd141 O144 2.297 . S
Cd141 O145 2.439 . S
Cd141 O151 2.240 . S
Cd142 O143 2.240 . S
Cd142 O150 2.223 . S
Cd142 O152 2.297 . S
Cd142 O153 2.439 . S
O143 Cd142 2.240 . S
O143 C148 1.279 . S
O144 Cd141 2.297 . S
O144 C146 1.247 . S
O145 Cd141 2.439 . S
O145 C146 1.208 . S
C146 O144 1.247 . S
C146 O145 1.208 . S
C147 O152 1.247 . S
C147 O153 1.208 . S
C148 O140 1.315 . S
C148 O143 1.279 . S
C149 O150 1.315 . S
C149 O151 1.279 . S
O150 Cd142 2.223 . S
O150 C149 1.315 . S
O151 Cd141 2.240 . S
O151 C149 1.279 . S
O152 Cd142 2.297 . S
O152 C147 1.247 . S
O153 Cd142 2.439 . S
O153 C147 1.208 . S
O154 Cd155 2.223 . S
O154 C162 1.315 . S
Cd155 O154 2.223 . S
Cd155 O158 2.297 . S
Cd155 O159 2.439 . S
Cd155 O165 2.240 . S
Cd156 O157 2.240 . S
Cd156 O164 2.223 . S
Cd156 O166 2.297 1_655 S
Cd156 O167 2.439 . S
O157 Cd156 2.240 . S
O157 C162 1.279 . S
O158 Cd155 2.297 . S
O158 C160 1.247 . S
O159 Cd155 2.439 . S
O159 C160 1.208 . S
C160 O158 1.247 . S
C160 O159 1.208 . S
C161 O166 1.247 1_655 S
C161 O167 1.208 . S
C162 O154 1.315 . S
C162 O157 1.279 . S
C163 O164 1.315 . S
C163 O165 1.279 . S
O164 Cd156 2.223 . S
O164 C163 1.315 . S
O165 Cd155 2.240 . S
O165 C163 1.279 . S
O166 Cd156 2.297 1_455 S
O166 C161 1.247 1_455 S
O167 Cd156 2.439 . S
O167 C161 1.208 . S
H168 C174 0.930 . S
H169 C177 0.930 . S
H170 C178 0.930 1_556 S
H171 C179 0.930 . S
H172 C182 0.930 . S
H173 C183 0.930 1_554 S
C174 H168 0.930 . S
C174 C175 1.355 1_655 S
C174 C176 1.415 . S
C175 C174 1.355 1_455 S
C175 C177 1.419 . S
C176 C174 1.415 . S
C176 C181 1.425 1_654 S
C176 C183 1.409 1_554 S
C177 H169 0.930 . S
C177 C175 1.419 . S
C177 C178 1.362 . S
C178 H170 0.930 1_554 S
C178 C177 1.362 . S
C178 C181 1.409 1_554 S
C179 H171 0.930 . S
C179 C180 1.355 1_455 S
C179 C181 1.415 . S
C180 C179 1.355 1_655 S
C180 C182 1.419 . S
C181 C176 1.425 1_456 S
C181 C178 1.409 1_556 S
C181 C179 1.415 . S
C182 H172 0.930 . S
C182 C180 1.419 . S
C182 C183 1.362 . S
C183 H173 0.930 1_556 S
C183 C176 1.409 1_556 S
C183 C182 1.362 . S
H184 C190 0.930 . S
H185 C193 0.930 . S
H186 C194 0.930 . S
H187 C195 0.930 . S
H188 C198 0.930 . S
H189 C199 0.930 . S
C190 H184 0.930 . S
C190 C191 1.355 1_545 S
C190 C192 1.415 . S
C191 C190 1.355 1_565 S
C191 C193 1.419 . S
C192 C190 1.415 . S
C192 C197 1.425 1_545 S
C192 C199 1.409 . S
C193 H185 0.930 . S
C193 C191 1.419 . S
C193 C194 1.362 . S
C194 H186 0.930 . S
C194 C193 1.362 . S
C194 C197 1.409 . S
C195 H187 0.930 . S
C195 C196 1.355 1_565 S
C195 C197 1.415 . S
C196 C195 1.355 1_545 S
C196 C198 1.419 . S
C197 C192 1.425 1_565 S
C197 C194 1.409 . S
C197 C195 1.415 . S
C198 H188 0.930 . S
C198 C196 1.419 . S
C198 C199 1.362 . S
C199 H189 0.930 . S
C199 C192 1.409 . S
C199 C198 1.362 . S
H200 C206 0.930 . S
H201 C209 0.930 . S
H202 C210 0.930 . S
H203 C211 0.930 . S
H204 C214 0.930 . S
H205 C215 0.930 . S
C206 H200 0.930 . S
C206 C207 1.355 . S
C206 C208 1.415 . S
C207 C206 1.355 . S
C207 C209 1.419 . S
C208 C206 1.415 . S
C208 C213 1.425 1_554 S
C208 C215 1.409 1_554 S
C209 H201 0.930 . S
C209 C207 1.419 . S
C209 C210 1.362 . S
C210 H202 0.930 . S
C210 C209 1.362 . S
C210 C213 1.409 1_554 S
C211 H203 0.930 . S
C211 C212 1.355 . S
C211 C213 1.415 . S
C212 C211 1.355 . S
C212 C214 1.419 . S
C213 C208 1.425 1_556 S
C213 C210 1.409 1_556 S
C213 C211 1.415 . S
C214 H204 0.930 . S
C214 C212 1.419 . S
C214 C215 1.362 . S
C215 H205 0.930 . S
C215 C208 1.409 1_556 S
C215 C214 1.362 . S
H216 C222 0.930 . S
H217 C225 0.930 . S
H218 C226 0.930 . S
H219 C227 0.930 . S
H220 C230 0.930 . S
H221 C231 0.930 . S
C222 H216 0.930 . S
C222 C223 1.355 . S
C222 C224 1.415 . S
C223 C222 1.355 . S
C223 C225 1.419 . S
C224 C222 1.415 . S
C224 C229 1.425 1_455 S
C224 C231 1.409 . S
C225 H217 0.930 . S
C225 C223 1.419 . S
C225 C226 1.362 1_455 S
C226 H218 0.930 . S
C226 C225 1.362 1_655 S
C226 C229 1.409 . S
C227 H219 0.930 . S
C227 C228 1.355 . S
C227 C229 1.415 . S
C228 C227 1.355 . S
C228 C230 1.419 . S
C229 C224 1.425 1_655 S
C229 C226 1.409 . S
C229 C227 1.415 . S
C230 H220 0.930 . S
C230 C228 1.419 . S
C230 C231 1.362 1_655 S
C231 H221 0.930 . S
C231 C224 1.409 . S
C231 C230 1.362 1_455 S
H232 C238 0.930 . S
H233 C241 0.930 . S
H234 C242 0.941 1_565 S
H235 C243 0.930 . S
H236 C246 0.930 . S
H237 C247 0.941 1_545 S
C238 H232 0.930 . S
C238 C239 1.355 . S
C238 C240 1.415 . S
C239 C238 1.355 . S
C239 C241 1.419 . S
C240 C238 1.415 . S
C240 C245 1.425 1_546 S
C240 C247 1.393 1_546 S
C241 H233 0.930 . S
C241 C239 1.419 . S
C241 C242 1.370 . S
C242 H234 0.941 1_545 S
C242 C241 1.370 . S
C242 C245 1.393 1_546 S
C243 H235 0.930 . S
C243 C244 1.355 . S
C243 C245 1.415 . S
C244 C243 1.355 . S
C244 C246 1.419 . S
C245 C240 1.425 1_564 S
C245 C242 1.393 1_564 S
C245 C243 1.415 . S
C246 H236 0.930 . S
C246 C244 1.419 . S
C246 C247 1.370 . S
C247 H237 0.941 1_565 S
C247 C240 1.393 1_564 S
C247 C246 1.370 . S
H248 C254 0.930 . S
H249 C257 0.930 . S
H250 C258 0.930 . S
H251 C259 0.930 . S
H252 C262 0.930 . S
H253 C263 0.930 . S
C254 H248 0.930 . S
C254 C255 1.355 . S
C254 C256 1.415 . S
C255 C254 1.355 . S
C255 C257 1.419 . S
C256 C254 1.415 . S
C256 C261 1.425 . S
C256 C263 1.409 . S
C257 H249 0.930 . S
C257 C255 1.419 . S
C257 C258 1.362 . S
C258 H250 0.930 . S
C258 C257 1.362 . S
C258 C261 1.409 . S
C259 H251 0.930 . S
C259 C260 1.355 . S
C259 C261 1.415 . S
C260 C259 1.355 . S
C260 C262 1.419 . S
C261 C256 1.425 . S
C261 C258 1.409 . S
C261 C259 1.415 . S
C262 H252 0.930 . S
C262 C260 1.419 . S
C262 C263 1.362 . S
C263 H253 0.930 . S
C263 C256 1.409 . S
C263 C262 1.362 . S
H264 C270 0.930 . S
H265 C273 0.930 . S
H266 C274 0.930 . S
H267 C275 0.930 . S
H268 C278 0.930 . S
H269 C279 0.930 . S
C270 H264 0.930 . S
C270 C271 1.355 . S
C270 C272 1.415 . S
C271 C270 1.355 . S
C271 C273 1.419 1_655 S
C272 C270 1.415 . S
C272 C277 1.425 1_656 S
C272 C279 1.409 1_556 S
C273 H265 0.930 . S
C273 C271 1.419 1_455 S
C273 C274 1.362 . S
C274 H266 0.930 . S
C274 C273 1.362 . S
C274 C277 1.409 1_556 S
C275 H267 0.930 . S
C275 C276 1.355 . S
C275 C277 1.415 . S
C276 C275 1.355 . S
C276 C278 1.419 1_455 S
C277 C272 1.425 1_454 S
C277 C274 1.409 1_554 S
C277 C275 1.415 . S
C278 H268 0.930 . S
C278 C276 1.419 1_655 S
C278 C279 1.362 . S
C279 H269 0.930 . S
C279 C272 1.409 1_554 S
C279 C278 1.362 . S
H280 C286 0.930 . S
H281 C289 0.928 1_545 S
H282 C290 0.930 . S
H283 C291 0.930 . S
H284 C294 0.928 1_565 S
H285 C295 0.930 . S
C286 H280 0.930 . S
C286 C287 1.355 . S
C286 C288 1.415 . S
C287 C286 1.355 . S
C287 C289 1.419 . S
C288 C286 1.415 . S
C288 C293 1.425 1_565 S
C288 C295 1.409 . S
C289 H281 0.928 1_565 S
C289 C287 1.419 . S
C289 C290 1.362 1_565 S
C290 H282 0.930 . S
C290 C289 1.362 1_545 S
C290 C293 1.409 . S
C291 H283 0.930 . S
C291 C292 1.355 . S
C291 C293 1.415 . S
C292 C291 1.355 . S
C292 C294 1.419 . S
C293 C288 1.425 1_545 S
C293 C290 1.409 . S
C293 C291 1.415 . S
C294 H284 0.928 1_545 S
C294 C292 1.419 . S
C294 C295 1.362 1_545 S
C295 H285 0.930 . S
C295 C288 1.409 . S
C295 C294 1.362 1_565 S
H296 C302 0.930 . S
H297 C305 0.930 . S
H298 C306 0.930 . S
H299 C307 0.930 . S
H300 C310 0.930 . S
H301 C311 0.930 . S
C302 H296 0.930 . S
C302 C303 1.355 . S
C302 C304 1.415 . S
C303 C302 1.355 . S
C303 C305 1.419 . S
C304 C302 1.415 . S
C304 C309 1.425 1_556 S
C304 C311 1.409 1_556 S
C305 H297 0.930 . S
C305 C303 1.419 . S
C305 C306 1.362 . S
C306 H298 0.930 . S
C306 C305 1.362 . S
C306 C309 1.409 1_556 S
C307 H299 0.930 . S
C307 C308 1.355 . S
C307 C309 1.415 . S
C308 C307 1.355 . S
C308 C310 1.419 . S
C309 C304 1.425 1_554 S
C309 C306 1.409 1_554 S
C309 C307 1.415 . S
C310 H300 0.930 . S
C310 C308 1.419 . S
C310 C311 1.362 . S
C311 H301 0.930 . S
C311 C304 1.409 1_554 S
C311 C310 1.362 . S
H312 C318 0.930 . S
H313 C321 0.930 . S
H314 C322 0.930 . S
H315 C323 0.930 . S
H316 C326 0.930 . S
H317 C327 0.930 . S
C318 H312 0.930 . S
C318 C319 1.355 . S
C318 C320 1.415 . S
C319 C318 1.355 . S
C319 C321 1.419 1_655 S
C320 C318 1.415 . S
C320 C325 1.425 1_655 S
C320 C327 1.409 . S
C321 H313 0.930 . S
C321 C319 1.419 1_455 S
C321 C322 1.362 . S
C322 H314 0.930 . S
C322 C321 1.362 . S
C322 C325 1.409 . S
C323 H315 0.930 . S
C323 C324 1.355 . S
C323 C325 1.415 . S
C324 C323 1.355 . S
C324 C326 1.419 1_455 S
C325 C320 1.425 1_455 S
C325 C322 1.409 . S
C325 C323 1.415 . S
C326 H316 0.930 . S
C326 C324 1.419 1_655 S
C326 C327 1.362 . S
C327 H317 0.930 . S
C327 C320 1.409 . S
C327 C326 1.362 . S
H328 C334 0.930 . S
H329 C337 0.930 . S
H330 C338 0.930 . S
H331 C339 0.930 . S
H332 C342 0.930 . S
H333 C343 0.930 . S
C334 H328 0.930 . S
C334 C335 1.355 . S
C334 C336 1.415 . S
C335 C334 1.355 . S
C335 C337 1.419 1_545 S
C336 C334 1.415 . S
C336 C341 1.425 1_546 S
C336 C343 1.409 1_556 S
C337 H329 0.930 . S
C337 C335 1.419 1_565 S
C337 C338 1.362 . S
C338 H330 0.930 . S
C338 C337 1.362 . S
C338 C341 1.409 1_556 S
C339 H331 0.930 . S
C339 C340 1.355 . S
C339 C341 1.415 . S
C340 C339 1.355 . S
C340 C342 1.419 1_565 S
C341 C336 1.425 1_564 S
C341 C338 1.409 1_554 S
C341 C339 1.415 . S
C342 H332 0.930 . S
C342 C340 1.419 1_545 S
C342 C343 1.362 . S
C343 H333 0.930 . S
C343 C336 1.409 1_554 S
C343 C342 1.362 . S
H344 C350 0.930 . S
H345 C353 0.930 . S
H346 C354 0.930 . S
H347 C355 0.930 . S
H348 C358 0.930 . S
H349 C359 0.930 . S
C350 H344 0.930 . S
C350 C351 1.355 . S
C350 C352 1.415 . S
C351 C350 1.355 . S
C351 C353 1.419 . S
C352 C350 1.415 . S
C352 C357 1.425 . S
C352 C359 1.409 . S
C353 H345 0.930 . S
C353 C351 1.419 . S
C353 C354 1.362 . S
C354 H346 0.930 . S
C354 C353 1.362 . S
C354 C357 1.409 . S
C355 H347 0.930 . S
C355 C356 1.355 . S
C355 C357 1.415 . S
C356 C355 1.355 . S
C356 C358 1.419 . S
C357 C352 1.425 . S
C357 C354 1.409 . S
C357 C355 1.415 . S
C358 H348 0.930 . S
C358 C356 1.419 . S
C358 C359 1.362 . S
C359 H349 0.930 . S
C359 C352 1.409 . S
C359 C358 1.362 . S
H360 C366 0.930 . S
H361 C369 0.930 . S
H362 C370 0.930 . S
H363 C371 0.930 . S
H364 C374 0.930 . S
H365 C375 0.930 . S
C366 H360 0.930 . S
C366 C367 1.355 . S
C366 C368 1.415 . S
C367 C366 1.355 . S
C367 C369 1.419 . S
C368 C366 1.415 . S
C368 C373 1.425 . S
C368 C375 1.409 . S
C369 H361 0.930 . S
C369 C367 1.419 . S
C369 C370 1.362 . S
C370 H362 0.930 . S
C370 C369 1.362 . S
C370 C373 1.409 . S
C371 H363 0.930 . S
C371 C372 1.355 . S
C371 C373 1.415 . S
C372 C371 1.355 . S
C372 C374 1.419 . S
C373 C368 1.425 . S
C373 C370 1.409 . S
C373 C371 1.415 . S
C374 H364 0.930 . S
C374 C372 1.419 . S
C374 C375 1.362 . S
C375 H365 0.930 . S
C375 C368 1.409 . S
C375 C374 1.362 . S
H376 C382 0.930 . S
H377 C385 0.930 . S
H378 C386 0.930 . S
H379 C387 0.930 . S
H380 C390 0.930 . S
H381 C391 0.930 1_565 S
C382 H376 0.930 . S
C382 C383 1.355 . S
C382 C384 1.415 . S
C383 C382 1.355 . S
C383 C385 1.419 . S
C384 C382 1.415 . S
C384 C389 1.425 . S
C384 C391 1.409 . S
C385 H377 0.930 . S
C385 C383 1.419 . S
C385 C386 1.362 . S
C386 H378 0.930 . S
C386 C385 1.362 . S
C386 C389 1.409 . S
C387 H379 0.930 . S
C387 C388 1.355 . S
C387 C389 1.415 . S
C388 C387 1.355 . S
C388 C390 1.419 . S
C389 C384 1.425 . S
C389 C386 1.409 . S
C389 C387 1.415 . S
C390 H380 0.930 . S
C390 C388 1.419 . S
C390 C391 1.362 . S
C391 H381 0.930 1_545 S
C391 C384 1.409 . S
C391 C390 1.362 . S
H392 C398 0.930 . S
H393 C401 0.930 . S
H394 C402 0.930 . S
H395 C403 0.930 . S
H396 C406 0.930 . S
H397 C407 0.930 . S
C398 H392 0.930 . S
C398 C399 1.355 . S
C398 C400 1.415 . S
C399 C398 1.355 . S
C399 C401 1.419 . S
C400 C398 1.415 . S
C400 C405 1.425 . S
C400 C407 1.409 . S
C401 H393 0.930 . S
C401 C399 1.419 . S
C401 C402 1.362 . S
C402 H394 0.930 . S
C402 C401 1.362 . S
C402 C405 1.409 . S
C403 H395 0.930 . S
C403 C404 1.355 . S
C403 C405 1.415 . S
C404 C403 1.355 . S
C404 C406 1.419 . S
C405 C400 1.425 . S
C405 C402 1.409 . S
C405 C403 1.415 . S
C406 H396 0.930 . S
C406 C404 1.419 . S
C406 C407 1.362 . S
C407 H397 0.930 . S
C407 C400 1.409 . S
C407 C406 1.362 . S
H408 C414 0.930 . S
H409 C417 0.930 . S
H410 C418 0.930 . S
H411 C419 0.930 . S
H412 C422 0.930 1_455 S
H413 C423 0.930 1_455 S
C414 H408 0.930 . S
C414 C415 1.355 . S
C414 C416 1.415 . S
C415 C414 1.355 . S
C415 C417 1.419 . S
C416 C414 1.415 . S
C416 C421 1.425 . S
C416 C423 1.409 . S
C417 H409 0.930 . S
C417 C415 1.419 . S
C417 C418 1.362 . S
C418 H410 0.930 . S
C418 C417 1.362 . S
C418 C421 1.409 . S
C419 H411 0.930 . S
C419 C420 1.355 . S
C419 C421 1.415 . S
C420 C419 1.355 . S
C420 C422 1.419 . S
C421 C416 1.425 . S
C421 C418 1.409 . S
C421 C419 1.415 . S
C422 H412 0.930 1_655 S
C422 C420 1.419 . S
C422 C423 1.362 . S
C423 H413 0.930 1_655 S
C423 C416 1.409 . S
C423 C422 1.362 . S
H424 C430 0.930 . S
H425 C433 0.930 . S
H426 C434 0.930 . S
H427 C435 0.930 . S
H428 C438 0.930 . S
H429 C439 0.930 . S
C430 H424 0.930 . S
C430 C431 1.355 . S
C430 C432 1.415 . S
C431 C430 1.355 . S
C431 C433 1.419 . S
C432 C430 1.415 . S
C432 C437 1.425 . S
C432 C439 1.409 . S
C433 H425 0.930 . S
C433 C431 1.419 . S
C433 C434 1.362 . S
C434 H426 0.930 . S
C434 C433 1.362 . S
C434 C437 1.409 . S
C435 H427 0.930 . S
C435 C436 1.355 . S
C435 C437 1.415 . S
C436 C435 1.355 . S
C436 C438 1.419 . S
C437 C432 1.425 . S
C437 C434 1.409 . S
C437 C435 1.415 . S
C438 H428 0.930 . S
C438 C436 1.419 . S
C438 C439 1.362 . S
C439 H429 0.930 . S
C439 C432 1.409 . S
C439 C438 1.362 . S
H440 C446 0.930 . S
H441 C449 0.930 . S
H442 C450 0.930 . S
H443 C451 0.930 . S
H444 C454 0.930 . S
H445 C455 0.930 . S
C446 H440 0.930 . S
C446 C447 1.355 . S
C446 C448 1.415 . S
C447 C446 1.355 . S
C447 C449 1.419 . S
C448 C446 1.415 . S
C448 C453 1.425 . S
C448 C455 1.409 . S
C449 H441 0.930 . S
C449 C447 1.419 . S
C449 C450 1.362 . S
C450 H442 0.930 . S
C450 C449 1.362 . S
C450 C453 1.409 . S
C451 H443 0.930 . S
C451 C452 1.355 . S
C451 C453 1.415 . S
C452 C451 1.355 . S
C452 C454 1.419 . S
C453 C448 1.425 . S
C453 C450 1.409 . S
C453 C451 1.415 . S
C454 H444 0.930 . S
C454 C452 1.419 . S
C454 C455 1.362 . S
C455 H445 0.930 . S
C455 C448 1.409 . S
C455 C454 1.362 . S
H456 C462 0.930 . S
H457 C465 0.930 . S
H458 C466 0.930 . S
H459 C467 0.930 . S
H460 C470 0.930 . S
H461 C471 0.930 . S
C462 H456 0.930 . S
C462 C463 1.355 . S
C462 C464 1.415 . S
C463 C462 1.355 . S
C463 C465 1.419 . S
C464 C462 1.415 . S
C464 C469 1.425 . S
C464 C471 1.409 . S
C465 H457 0.930 . S
C465 C463 1.419 . S
C465 C466 1.362 . S
C466 H458 0.930 . S
C466 C465 1.362 . S
C466 C469 1.409 . S
C467 H459 0.930 . S
C467 C468 1.355 . S
C467 C469 1.415 . S
C468 C467 1.355 . S
C468 C470 1.419 . S
C469 C464 1.425 . S
C469 C466 1.409 . S
C469 C467 1.415 . S
C470 H460 0.930 . S
C470 C468 1.419 . S
C470 C471 1.362 . S
C471 H461 0.930 . S
C471 C464 1.409 . S
C471 C470 1.362 . S
H472 C478 0.930 . S
H473 C481 0.930 . S
H474 C482 0.930 . S
H475 C483 0.930 . S
H476 C486 0.930 . S
H477 C487 0.930 . S
C478 H472 0.930 . S
C478 C479 1.355 . S
C478 C480 1.415 . S
C479 C478 1.355 . S
C479 C481 1.419 . S
C480 C478 1.415 . S
C480 C485 1.425 . S
C480 C487 1.409 . S
C481 H473 0.930 . S
C481 C479 1.419 . S
C481 C482 1.362 . S
C482 H474 0.930 . S
C482 C481 1.362 . S
C482 C485 1.409 . S
C483 H475 0.930 . S
C483 C484 1.355 . S
C483 C485 1.415 . S
C484 C483 1.355 . S
C484 C486 1.419 . S
C485 C480 1.425 . S
C485 C482 1.409 . S
C485 C483 1.415 . S
C486 H476 0.930 . S
C486 C484 1.419 . S
C486 C487 1.362 . S
C487 H477 0.930 . S
C487 C480 1.409 . S
C487 C486 1.362 . S
H488 C494 0.930 . S
H489 C497 0.930 . S
H490 C498 0.930 . S
H491 C499 0.930 . S
H492 C502 0.930 . S
H493 C503 0.930 . S
C494 H488 0.930 . S
C494 C495 1.355 . S
C494 C496 1.415 . S
C495 C494 1.355 . S
C495 C497 1.419 . S
C496 C494 1.415 . S
C496 C501 1.425 . S
C496 C503 1.409 . S
C497 H489 0.930 . S
C497 C495 1.419 . S
C497 C498 1.362 . S
C498 H490 0.930 . S
C498 C497 1.362 . S
C498 C501 1.409 . S
C499 H491 0.930 . S
C499 C500 1.355 . S
C499 C501 1.415 . S
C500 C499 1.355 . S
C500 C502 1.419 . S
C501 C496 1.425 . S
C501 C498 1.409 . S
C501 C499 1.415 . S
C502 H492 0.930 . S
C502 C500 1.419 . S
C502 C503 1.362 . S
C503 H493 0.930 . S
C503 C496 1.409 . S
C503 C502 1.362 . S
H504 C510 0.930 . S
H505 C513 0.930 . S
H506 C514 0.930 . S
H507 C515 0.930 . S
H508 C518 0.930 . S
H509 C519 0.930 . S
C510 H504 0.930 . S
C510 C511 1.355 . S
C510 C512 1.415 . S
C511 C510 1.355 . S
C511 C513 1.419 . S
C512 C510 1.415 . S
C512 C517 1.425 . S
C512 C519 1.409 . S
C513 H505 0.930 . S
C513 C511 1.419 . S
C513 C514 1.362 . S
C514 H506 0.930 . S
C514 C513 1.362 . S
C514 C517 1.409 . S
C515 H507 0.930 . S
C515 C516 1.355 . S
C515 C517 1.415 . S
C516 C515 1.355 . S
C516 C518 1.419 . S
C517 C512 1.425 . S
C517 C514 1.409 . S
C517 C515 1.415 . S
C518 H508 0.930 . S
C518 C516 1.419 . S
C518 C519 1.362 . S
C519 H509 0.930 . S
C519 C512 1.409 . S
C519 C518 1.362 . S
H520 C526 0.930 . S
H521 C529 0.930 . S
H522 C530 0.930 . S
H523 C531 0.930 . S
H524 C534 0.930 . S
H525 C535 0.930 . S
C526 H520 0.930 . S
C526 C527 1.355 . S
C526 C528 1.415 . S
C527 C526 1.355 . S
C527 C529 1.419 . S
C528 C526 1.415 . S
C528 C533 1.425 . S
C528 C535 1.409 . S
C529 H521 0.930 . S
C529 C527 1.419 . S
C529 C530 1.362 . S
C530 H522 0.930 . S
C530 C529 1.362 . S
C530 C533 1.409 . S
C531 H523 0.930 . S
C531 C532 1.355 . S
C531 C533 1.415 . S
C532 C531 1.355 . S
C532 C534 1.419 . S
C533 C528 1.425 . S
C533 C530 1.409 . S
C533 C531 1.415 . S
C534 H524 0.930 . S
C534 C532 1.419 . S
C534 C535 1.362 . S
C535 H525 0.930 . S
C535 C528 1.409 . S
C535 C534 1.362 . S
H536 C542 0.930 . S
H537 C545 0.930 . S
H538 C546 0.930 . S
H539 C547 0.930 . S
H540 C550 0.930 . S
H541 C551 0.930 . S
C542 H536 0.930 . S
C542 C543 1.355 . S
C542 C544 1.415 . S
C543 C542 1.355 . S
C543 C545 1.419 . S
C544 C542 1.415 . S
C544 C549 1.425 . S
C544 C551 1.409 . S
C545 H537 0.930 . S
C545 C543 1.419 . S
C545 C546 1.362 . S
C546 H538 0.930 . S
C546 C545 1.362 . S
C546 C549 1.409 . S
C547 H539 0.930 . S
C547 C548 1.355 . S
C547 C549 1.415 . S
C548 C547 1.355 . S
C548 C550 1.419 . S
C549 C544 1.425 . S
C549 C546 1.409 . S
C549 C547 1.415 . S
C550 H540 0.930 . S
C550 C548 1.419 . S
C550 C551 1.362 . S
C551 H541 0.930 . S
C551 C544 1.409 . S
C551 C550 1.362 . S
C175 C8 1.834 . S
C180 C162 1.825 . S
C191 C92 1.820 . S
C196 C22 1.821 . S
C207 C36 1.859 . S
C212 C106 1.854 . S
C223 C120 1.855 . S
C228 C50 1.846 . S
C239 C134 1.853 . S
C244 C64 1.844 . S
C255 C148 1.832 . S
C260 C78 1.842 . S
C271 C49 1.008 . S
C276 C119 1.019 . S
C287 C63 1.038 . S
C292 C133 1.015 . S
C303 C77 1.008 . S
C308 C147 1.020 . S
C319 C161 1.030 . S
C324 C7 1.009 . S
C335 C21 1.018 . S
C340 C91 1.008 . S
C351 C35 1.022 . S
C356 C105 1.007 . S
C367 C121 1.751 . S
C372 C9 1.765 . S
C383 C135 1.765 . S
C388 C23 1.754 . S
C399 C37 1.749 . S
C404 C149 1.729 . S
C415 C51 1.753 . S
C420 C163 1.732 . S
C431 C65 1.727 . S
C436 C93 1.731 . S
C447 C107 1.763 . S
C452 C79 1.746 . S
C463 C6 1.719 . S
C468 C146 1.683 . S
C479 C160 1.675 . S
C484 C20 1.725 . S
C495 C34 1.690 . S
C500 C90 1.698 . S
C511 C48 1.710 . S
C516 C104 1.680 . S
C527 C62 1.701 . S
C532 C118 1.703 . S
C543 C76 1.674 . S
C548 C132 1.725 . S
