# Generated by pormake.
# Topology ung, (4)-cn, num edge types: 1
# Building blocks:
#     Node 0, Type 0, BuildingBlock: ICAMEG_clean_sbu_1, # of connection points: 4
#     Node 1, Type 0, BuildingBlock: ICAMEG_clean_sbu_1, # of connection points: 4
#     Node 2, Type 0, BuildingBlock: ICAMEG_clean_sbu_1, # of connection points: 4
#     Node 3, Type 0, BuildingBlock: ICAMEG_clean_sbu_1, # of connection points: 4
#     Node 4, Type 0, BuildingBlock: ICAMEG_clean_sbu_1, # of connection points: 4
#     Node 5, Type 0, BuildingBlock: ICAMEG_clean_sbu_1, # of connection points: 4
#     Node 6, Type 0, BuildingBlock: ICAMEG_clean_sbu_1, # of connection points: 4
#     Node 7, Type 0, BuildingBlock: ICAMEG_clean_sbu_1, # of connection points: 4
#     Node 8, Type 0, BuildingBlock: ICAMEG_clean_sbu_1, # of connection points: 4
#     Node 9, Type 0, BuildingBlock: ICAMEG_clean_sbu_1, # of connection points: 4
#     Node 10, Type 0, BuildingBlock: ICAMEG_clean_sbu_1, # of connection points: 4
#     Node 11, Type 0, BuildingBlock: ICAMEG_clean_sbu_1, # of connection points: 4
#     Node 12, Type 0, BuildingBlock: ICAMEG_clean_sbu_1, # of connection points: 4
#     Node 13, Type 0, BuildingBlock: ICAMEG_clean_sbu_1, # of connection points: 4
#     Node 14, Type 0, BuildingBlock: ICAMEG_clean_sbu_1, # of connection points: 4
#     Node 15, Type 0, BuildingBlock: ICAMEG_clean_sbu_1, # of connection points: 4
#     Node 16, Type 0, BuildingBlock: ICAMEG_clean_sbu_1, # of connection points: 4
#     Node 17, Type 0, BuildingBlock: ICAMEG_clean_sbu_1, # of connection points: 4
#     Edge 18, Type (0, 0), BuildingBlock: MIFKUJ_clean_linker_0, # of connection points: 2
#     Edge 19, Type (0, 0), BuildingBlock: MIFKUJ_clean_linker_0, # of connection points: 2
#     Edge 20, Type (0, 0), BuildingBlock: MIFKUJ_clean_linker_0, # of connection points: 2
#     Edge 21, Type (0, 0), BuildingBlock: MIFKUJ_clean_linker_0, # of connection points: 2
#     Edge 22, Type (0, 0), BuildingBlock: MIFKUJ_clean_linker_0, # of connection points: 2
#     Edge 23, Type (0, 0), BuildingBlock: MIFKUJ_clean_linker_0, # of connection points: 2
#     Edge 24, Type (0, 0), BuildingBlock: MIFKUJ_clean_linker_0, # of connection points: 2
#     Edge 25, Type (0, 0), BuildingBlock: MIFKUJ_clean_linker_0, # of connection points: 2
#     Edge 26, Type (0, 0), BuildingBlock: MIFKUJ_clean_linker_0, # of connection points: 2
#     Edge 27, Type (0, 0), BuildingBlock: MIFKUJ_clean_linker_0, # of connection points: 2
#     Edge 28, Type (0, 0), BuildingBlock: MIFKUJ_clean_linker_0, # of connection points: 2
#     Edge 29, Type (0, 0), BuildingBlock: MIFKUJ_clean_linker_0, # of connection points: 2
#     Edge 30, Type (0, 0), BuildingBlock: MIFKUJ_clean_linker_0, # of connection points: 2
#     Edge 31, Type (0, 0), BuildingBlock: MIFKUJ_clean_linker_0, # of connection points: 2
#     Edge 32, Type (0, 0), BuildingBlock: MIFKUJ_clean_linker_0, # of connection points: 2
#     Edge 33, Type (0, 0), BuildingBlock: MIFKUJ_clean_linker_0, # of connection points: 2
#     Edge 34, Type (0, 0), BuildingBlock: MIFKUJ_clean_linker_0, # of connection points: 2
#     Edge 35, Type (0, 0), BuildingBlock: MIFKUJ_clean_linker_0, # of connection points: 2
#     Edge 36, Type (0, 0), BuildingBlock: MIFKUJ_clean_linker_0, # of connection points: 2
#     Edge 37, Type (0, 0), BuildingBlock: MIFKUJ_clean_linker_0, # of connection points: 2
#     Edge 38, Type (0, 0), BuildingBlock: MIFKUJ_clean_linker_0, # of connection points: 2
#     Edge 39, Type (0, 0), BuildingBlock: MIFKUJ_clean_linker_0, # of connection points: 2
#     Edge 40, Type (0, 0), BuildingBlock: MIFKUJ_clean_linker_0, # of connection points: 2
#     Edge 41, Type (0, 0), BuildingBlock: MIFKUJ_clean_linker_0, # of connection points: 2
#     Edge 42, Type (0, 0), BuildingBlock: MIFKUJ_clean_linker_0, # of connection points: 2
#     Edge 43, Type (0, 0), BuildingBlock: MIFKUJ_clean_linker_0, # of connection points: 2
#     Edge 44, Type (0, 0), BuildingBlock: MIFKUJ_clean_linker_0, # of connection points: 2
#     Edge 45, Type (0, 0), BuildingBlock: MIFKUJ_clean_linker_0, # of connection points: 2
#     Edge 46, Type (0, 0), BuildingBlock: MIFKUJ_clean_linker_0, # of connection points: 2
#     Edge 47, Type (0, 0), BuildingBlock: MIFKUJ_clean_linker_0, # of connection points: 2
#     Edge 48, Type (0, 0), BuildingBlock: MIFKUJ_clean_linker_0, # of connection points: 2
#     Edge 49, Type (0, 0), BuildingBlock: MIFKUJ_clean_linker_0, # of connection points: 2
#     Edge 50, Type (0, 0), BuildingBlock: MIFKUJ_clean_linker_0, # of connection points: 2
#     Edge 51, Type (0, 0), BuildingBlock: MIFKUJ_clean_linker_0, # of connection points: 2
#     Edge 52, Type (0, 0), BuildingBlock: MIFKUJ_clean_linker_0, # of connection points: 2
#     Edge 53, Type (0, 0), BuildingBlock: MIFKUJ_clean_linker_0, # of connection points: 2
# Relax obj value: 0.018
# Max RMSD: 0.106
# Mean RMSD: 0.106
data_MOF--net-ung--node1-ICAMEG_clean_sbu_1--edge1-MIFKUJ_clean_linker_0
_symmetry_space_group_name_H-M    P1
_symmetry_Int_Tables_number       1
_symmetry_cell_setting            triclinic
loop_
_symmetry_equiv_pos_as_xyz
'x, y, z'
_cell_length_a     98.536476
_cell_length_b     98.603821
_cell_length_c     31.430558
_cell_angle_alpha  90.043209
_cell_angle_beta   90.107863
_cell_angle_gamma 119.97894
loop_
_atom_site_label
_atom_site_type_symbol
_atom_site_fract_x
_atom_site_fract_y
_atom_site_fract_z
_atom_type_partial_charge
Co0 Co 0.08204 0.64476 0.21773 0.0
Co1 Co 0.05034 0.62915 0.28571 0.0
O2 O 0.06629 0.62777 0.25235 0.0
C3 C 0.06609 0.61835 0.15787 0.0
O4 O 0.05283 0.6166 0.17243 0.0
C5 C 0.06663 0.61986 0.34779 0.0
O6 O 0.07984 0.63114 0.33233 0.0
O7 O 0.06629 0.64936 0.31146 0.0
O8 O 0.08531 0.66051 0.26244 0.0
H9 H 0.02265 0.65598 0.34575 0.0
H10 H 0.08498 0.6168 0.23542 0.0
O11 O 0.07908 0.62926 0.17231 0.0
H12 H 0.13292 0.66147 0.29446 0.0
H13 H 0.12802 0.66916 0.11783 0.0
H14 H 0.08925 0.67699 0.19673 0.0
H15 H 0.11308 0.66565 0.25823 0.0
H16 H 0.10825 0.64815 0.16306 0.0
O17 O 0.05359 0.61751 0.333 0.0
H18 H 0.04253 0.65403 0.30281 0.0
H19 H 0.0243 0.60682 0.34157 0.0
H20 H 0.10886 0.69835 0.1521 0.0
H21 H 0.10457 0.6121 0.27114 0.0
H22 H 0.12844 0.69449 0.11227 0.0
H23 H 0.12872 0.63454 0.30108 0.0
O24 O 0.06583 0.64829 0.19033 0.0
H25 H 0.02873 0.57332 0.23907 0.0
H26 H 0.01921 0.61787 0.24437 0.0
H27 H 0.99966 0.59317 0.21043 0.0
H28 H 0.00436 0.57066 0.20767 0.0
H29 H 0.04804 0.59829 0.27232 0.0
H30 H 0.00427 0.60829 0.38518 0.0
H31 H 0.00333 0.63299 0.38732 0.0
O32 O 0.04679 0.64075 0.23918 0.0
C33 C 0.07898 0.66085 0.29748 0.0
C34 C 0.0229 0.64513 0.34496 0.0
C35 C 0.0126 0.61837 0.36713 0.0
N36 N 0.03448 0.63029 0.31942 0.0
C37 C 0.0341 0.64395 0.32061 0.0
C38 C 0.02398 0.61762 0.34245 0.0
C39 C 0.01207 0.63223 0.36831 0.0
C40 C 0.09554 0.62664 0.24799 0.0
N41 N 0.09792 0.64149 0.24456 0.0
C42 C 0.10655 0.6239 0.26834 0.0
C43 C 0.12009 0.63649 0.28519 0.0
C44 C 0.12245 0.6516 0.28151 0.0
C45 C 0.11116 0.65389 0.26103 0.0
C46 C 0.11958 0.67099 0.1351 0.0
C47 C 0.09779 0.67527 0.1797 0.0
C48 C 0.10834 0.65913 0.1607 0.0
N49 N 0.0977 0.6614 0.18276 0.0
C50 C 0.10884 0.68738 0.15439 0.0
C51 C 0.11981 0.68521 0.13201 0.0
C52 C 0.05302 0.64701 0.2037 0.0
C53 C 0.02653 0.58303 0.24016 0.0
C54 C 0.02136 0.60815 0.24319 0.0
C55 C 0.01023 0.59418 0.22401 0.0
C56 C 0.01287 0.58155 0.2225 0.0
N57 N 0.03472 0.6095 0.26047 0.0
C58 C 0.03739 0.59718 0.25911 0.0
Co59 Co 0.50469 0.48751 0.28994 0.0
Co60 Co 0.48812 0.50332 0.22414 0.0
O61 O 0.50562 0.50456 0.25639 0.0
C62 C 0.51509 0.51374 0.34992 0.0
O63 O 0.50342 0.51526 0.33543 0.0
C64 C 0.51329 0.51258 0.16135 0.0
O65 O 0.51481 0.50091 0.1757 0.0
O66 O 0.4837 0.48321 0.19742 0.0
O67 O 0.49209 0.47195 0.24493 0.0
H68 H 0.43324 0.47699 0.16602 0.0
H69 H 0.53544 0.51571 0.27235 0.0
O70 O 0.5173 0.50291 0.3356 0.0
H71 H 0.5386 0.47156 0.20926 0.0
H72 H 0.52726 0.46314 0.3869 0.0
H73 H 0.48005 0.45503 0.31022 0.0
H74 H 0.51481 0.46702 0.2472 0.0
H75 H 0.52796 0.48424 0.34311 0.0
O76 O 0.50287 0.51518 0.17683 0.0
H77 H 0.45527 0.4786 0.20756 0.0
H78 H 0.48426 0.52592 0.16979 0.0
H79 H 0.47885 0.43358 0.35338 0.0
H80 H 0.55953 0.52076 0.23504 0.0
H81 H 0.50258 0.43757 0.39209 0.0
H82 H 0.56118 0.49859 0.20302 0.0
O83 O 0.48502 0.48363 0.31813 0.0
H84 H 0.52253 0.55884 0.27315 0.0
H85 H 0.46845 0.51431 0.2675 0.0
H86 H 0.47375 0.53873 0.30344 0.0
H87 H 0.50096 0.56121 0.30641 0.0
H88 H 0.51672 0.53415 0.23788 0.0
H89 H 0.46258 0.52478 0.12756 0.0
H90 H 0.43683 0.5002 0.12565 0.0
O91 O 0.47319 0.49146 0.27086 0.0
C92 C 0.48511 0.47171 0.21044 0.0
C93 C 0.44439 0.48778 0.16671 0.0
C94 C 0.46087 0.5146 0.14508 0.0
N95 N 0.47098 0.50238 0.19137 0.0
C96 C 0.45689 0.48878 0.19027 0.0
C97 C 0.4731 0.51517 0.16898 0.0
C98 C 0.44642 0.50081 0.14404 0.0
C99 C 0.53615 0.50598 0.25895 0.0
N100 N 0.52377 0.49108 0.26217 0.0
C101 C 0.54979 0.50892 0.23768 0.0
C102 C 0.5507 0.49648 0.21966 0.0
C103 C 0.53803 0.48131 0.22314 0.0
C104 C 0.52458 0.47882 0.2446 0.0
C105 C 0.51685 0.46125 0.37012 0.0
C106 C 0.49045 0.45682 0.32678 0.0
C107 C 0.51717 0.47316 0.34535 0.0
N108 N 0.50409 0.47082 0.32389 0.0
C109 C 0.48969 0.44465 0.35126 0.0
C110 C 0.503 0.4469 0.373 0.0
C111 C 0.47339 0.48493 0.30572 0.0
C112 C 0.51062 0.54914 0.27194 0.0
C113 C 0.48032 0.52404 0.2687 0.0
C114 C 0.48325 0.53784 0.28902 0.0
C115 C 0.49851 0.55046 0.29066 0.0
N116 N 0.49226 0.52283 0.25045 0.0
C117 C 0.50725 0.53516 0.25184 0.0
Co118 Co 0.63189 0.05159 0.21183 0.0
Co119 Co 0.64643 0.08355 0.27892 0.0
O120 O 0.62983 0.06729 0.24439 0.0
C121 C 0.622 0.06707 0.14906 0.0
O122 O 0.63331 0.08037 0.16416 0.0
C123 C 0.62008 0.06727 0.3383 0.0
O124 O 0.61901 0.05415 0.32496 0.0
O125 O 0.65047 0.06792 0.30762 0.0
O126 O 0.64406 0.04893 0.25878 0.0
H127 H 0.69984 0.11245 0.34614 0.0
H128 H 0.60041 0.048 0.22429 0.0
O129 O 0.61982 0.05414 0.16415 0.0
H130 H 0.59763 0.00122 0.28962 0.0
H131 H 0.6121 0.00506 0.11401 0.0
H132 H 0.65755 0.04484 0.19503 0.0
H133 H 0.62189 0.0211 0.25485 0.0
H134 H 0.61 0.02492 0.15679 0.0
O135 O 0.63059 0.08033 0.32334 0.0
H136 H 0.67898 0.09208 0.30152 0.0
H137 H 0.64862 0.10961 0.33216 0.0
H138 H 0.66014 0.02513 0.15296 0.0
H139 H 0.57585 0.02831 0.25825 0.0
H140 H 0.63729 0.00504 0.11206 0.0
H141 H 0.57437 0.00475 0.29139 0.0
O142 O 0.65187 0.06783 0.18617 0.0
H143 H 0.6125 0.10401 0.22131 0.0
H144 H 0.66669 0.11455 0.23795 0.0
H145 H 0.66183 0.13357 0.19983 0.0
H146 H 0.63456 0.12834 0.19131 0.0
H147 H 0.61789 0.08526 0.25892 0.0
H148 H 0.6691 0.13008 0.37743 0.0
H149 H 0.69496 0.13163 0.38449 0.0
O150 O 0.66252 0.08703 0.23512 0.0
C151 C 0.64996 0.05543 0.29444 0.0
C152 C 0.68865 0.11193 0.3432 0.0
C153 C 0.67139 0.12181 0.36081 0.0
N154 N 0.66266 0.09974 0.31397 0.0
C155 C 0.67681 0.10045 0.31788 0.0
C156 C 0.65982 0.11017 0.33521 0.0
C157 C 0.68589 0.12268 0.36474 0.0
C158 C 0.5998 0.03768 0.23818 0.0
N159 N 0.61254 0.03565 0.23735 0.0
C160 C 0.58588 0.02661 0.25755 0.0
C161 C 0.58507 0.01341 0.2762 0.0
C162 C 0.59811 0.01142 0.27523 0.0
C163 C 0.61183 0.02273 0.25557 0.0
C164 C 0.62212 0.01372 0.13179 0.0
C165 C 0.64753 0.03606 0.1776 0.0
C166 C 0.62101 0.025 0.15601 0.0
N167 N 0.6336 0.03592 0.17873 0.0
C168 C 0.64908 0.02496 0.1537 0.0
C169 C 0.63626 0.01371 0.13072 0.0
C170 C 0.66317 0.08063 0.20047 0.0
C171 C 0.62443 0.10644 0.22492 0.0
C172 C 0.6548 0.11218 0.2343 0.0
C173 C 0.65212 0.12301 0.21277 0.0
C174 C 0.63681 0.12008 0.20803 0.0
N175 N 0.6426 0.09883 0.25075 0.0
C176 C 0.62757 0.0959 0.24634 0.0
Co177 Co 0.04925 0.48476 0.78635 0.0
Co178 Co 0.07927 0.4993 0.7138 0.0
O179 O 0.06449 0.50154 0.75021 0.0
C180 C 0.06567 0.51165 0.84455 0.0
O181 O 0.07883 0.51323 0.82969 0.0
C182 C 0.06364 0.51073 0.656 0.0
O183 O 0.05029 0.49961 0.67128 0.0
O184 O 0.06198 0.48008 0.68783 0.0
O185 O 0.04551 0.46846 0.74246 0.0
H186 H 0.10211 0.46972 0.64194 0.0
H187 H 0.04556 0.51224 0.76816 0.0
O188 O 0.05259 0.50065 0.8309 0.0
H189 H 0.99726 0.46661 0.71434 0.0
H190 H 0.00457 0.46089 0.89048 0.0
H191 H 0.04291 0.45298 0.80959 0.0
H192 H 0.01781 0.46314 0.74888 0.0
H193 H 0.02356 0.48155 0.84292 0.0
O194 O 0.07654 0.51226 0.66939 0.0
H195 H 0.08414 0.47295 0.68991 0.0
H196 H 0.10539 0.52107 0.65722 0.0
H197 H 0.02408 0.43198 0.85653 0.0
H198 H 0.02525 0.51623 0.73414 0.0
H199 H 0.00472 0.43587 0.89738 0.0
H200 H 0.00091 0.49331 0.70682 0.0
O201 O 0.06605 0.48191 0.8123 0.0
H202 H 0.10532 0.5549 0.76596 0.0
H203 H 0.11046 0.50787 0.75095 0.0
H204 H 0.13169 0.53149 0.78527 0.0
H205 H 0.1292 0.55523 0.7929 0.0
H206 H 0.08431 0.53098 0.73222 0.0
H207 H 0.12357 0.51835 0.60876 0.0
H208 H 0.122 0.49253 0.60096 0.0
O209 O 0.08237 0.4863 0.75751 0.0
C210 C 0.05021 0.46838 0.70469 0.0
C211 C 0.10295 0.48105 0.64522 0.0
C212 C 0.11498 0.50834 0.62655 0.0
N213 N 0.09383 0.49722 0.6767 0.0
C214 C 0.09285 0.48296 0.67244 0.0
C215 C 0.10466 0.5098 0.65401 0.0
C216 C 0.1141 0.49385 0.62219 0.0
C217 C 0.03493 0.5022 0.75676 0.0
N218 N 0.03285 0.48748 0.76069 0.0
C219 C 0.0235 0.50453 0.73735 0.0
C220 C 0.00985 0.49167 0.72197 0.0
C221 C 0.00781 0.47669 0.72615 0.0
C222 C 0.0195 0.4748 0.74566 0.0
C223 C 0.01292 0.45904 0.87276 0.0
C224 C 0.03445 0.45471 0.82702 0.0
C225 C 0.0237 0.4707 0.84584 0.0
N226 N 0.03421 0.4684 0.82319 0.0
C227 C 0.02385 0.4428 0.85366 0.0
C228 C 0.013 0.445 0.8766 0.0
C229 C 0.07758 0.48152 0.79521 0.0
C230 C 0.10656 0.54464 0.76272 0.0
C231 C 0.10927 0.51814 0.75426 0.0
C232 C 0.12135 0.53149 0.77363 0.0
C233 C 0.11995 0.54481 0.77788 0.0
N234 N 0.09618 0.51807 0.73943 0.0
C235 C 0.09473 0.53109 0.74347 0.0
Co236 Co 0.63007 0.64614 0.72671 0.0
Co237 Co 0.64626 0.62904 0.78937 0.0
O238 O 0.62903 0.62844 0.75721 0.0
C239 C 0.62117 0.62153 0.66209 0.0
O240 O 0.63267 0.61981 0.67698 0.0
C241 C 0.6206 0.61886 0.85099 0.0
O242 O 0.6191 0.63065 0.83755 0.0
O243 O 0.65076 0.64881 0.81855 0.0
O244 O 0.64156 0.66051 0.77504 0.0
H245 H 0.70082 0.65397 0.84933 0.0
H246 H 0.59958 0.61702 0.73844 0.0
O247 O 0.61854 0.63191 0.67786 0.0
H248 H 0.59345 0.6587 0.80658 0.0
H249 H 0.6085 0.67237 0.63309 0.0
H250 H 0.65444 0.67935 0.71428 0.0
H251 H 0.6182 0.66488 0.77119 0.0
H252 H 0.60753 0.65027 0.6725 0.0
O253 O 0.63119 0.61653 0.83547 0.0
H254 H 0.67914 0.65323 0.80811 0.0
H255 H 0.64953 0.60547 0.84084 0.0
H256 H 0.65586 0.70182 0.67581 0.0
H257 H 0.57457 0.61033 0.77315 0.0
H258 H 0.63277 0.69839 0.6348 0.0
H259 H 0.57141 0.63125 0.8077 0.0
O260 O 0.65039 0.65123 0.69999 0.0
H261 H 0.61178 0.57446 0.73367 0.0
H262 H 0.66599 0.61853 0.74417 0.0
H263 H 0.6607 0.5947 0.70493 0.0
H264 H 0.63342 0.57245 0.69951 0.0
H265 H 0.61758 0.59857 0.77226 0.0
H266 H 0.67086 0.60571 0.88269 0.0
H267 H 0.69675 0.63008 0.88698 0.0
O268 O 0.66147 0.64152 0.74392 0.0
C269 C 0.64878 0.66024 0.80851 0.0
C270 C 0.68961 0.64326 0.8476 0.0
C271 C 0.67279 0.61619 0.86637 0.0
N272 N 0.66313 0.62929 0.82185 0.0
C273 C 0.6773 0.64277 0.82422 0.0
C274 C 0.66075 0.61613 0.84271 0.0
C275 C 0.68731 0.62986 0.86875 0.0
C276 C 0.59824 0.62621 0.75306 0.0
N277 N 0.61033 0.64133 0.75273 0.0
C278 C 0.58407 0.62234 0.77281 0.0
C279 C 0.58232 0.63408 0.79224 0.0
C280 C 0.59468 0.64948 0.79165 0.0
C281 C 0.60869 0.65291 0.77167 0.0
C282 C 0.61863 0.67402 0.65089 0.0
C283 C 0.64431 0.6778 0.69674 0.0
C284 C 0.61816 0.66153 0.67316 0.0
N285 N 0.63087 0.66356 0.6959 0.0
C286 C 0.6452 0.69055 0.6749 0.0
C287 C 0.63225 0.68861 0.65188 0.0
C288 C 0.66173 0.64921 0.71103 0.0
C289 C 0.62372 0.58405 0.73595 0.0
C290 C 0.65409 0.6089 0.74195 0.0
C291 C 0.65117 0.59543 0.71975 0.0
C292 C 0.63586 0.58295 0.71673 0.0
N293 N 0.64211 0.60991 0.76068 0.0
C294 C 0.62708 0.59771 0.75794 0.0
Co295 Co 0.49996 0.07839 0.78202 0.0
Co296 Co 0.48643 0.04794 0.71067 0.0
O297 O 0.50291 0.06392 0.74626 0.0
C298 C 0.51229 0.0638 0.84037 0.0
O299 O 0.50133 0.05032 0.82519 0.0
C300 C 0.5129 0.065 0.65192 0.0
O301 O 0.51375 0.07796 0.66586 0.0
O302 O 0.48244 0.06388 0.6839 0.0
O303 O 0.4864 0.08047 0.73789 0.0
H304 H 0.43338 0.0198 0.64118 0.0
H305 H 0.53216 0.08477 0.76402 0.0
O306 O 0.51345 0.07652 0.82684 0.0
H307 H 0.53015 0.13053 0.70873 0.0
H308 H 0.5176 0.12322 0.88517 0.0
H309 H 0.47285 0.08219 0.80476 0.0
H310 H 0.5071 0.10891 0.74362 0.0
H311 H 0.52108 0.10512 0.83819 0.0
O312 O 0.50245 0.05179 0.66625 0.0
H313 H 0.454 0.03967 0.68743 0.0
H314 H 0.48455 0.02253 0.65517 0.0
H315 H 0.46888 0.10011 0.85104 0.0
H316 H 0.55554 0.10621 0.72972 0.0
H317 H 0.49136 0.1208 0.89168 0.0
H318 H 0.55461 0.12927 0.70166 0.0
O319 O 0.48113 0.06083 0.8083 0.0
H320 H 0.52035 0.02689 0.76439 0.0
H321 H 0.46615 0.0165 0.7494 0.0
H322 H 0.47102 0.99705 0.78503 0.0
H323 H 0.49828 0.00219 0.7927 0.0
H324 H 0.51497 0.04608 0.72929 0.0
H325 H 0.46432 0.00257 0.60825 0.0
H326 H 0.43849 0.00107 0.60119 0.0
O327 O 0.47004 0.04371 0.7545 0.0
C328 C 0.48151 0.07519 0.70048 0.0
C329 C 0.44457 0.02029 0.64413 0.0
C330 C 0.46194 0.01063 0.6256 0.0
N331 N 0.47039 0.03214 0.67433 0.0
C332 C 0.45626 0.03148 0.67037 0.0
C333 C 0.47336 0.02197 0.65215 0.0
C334 C 0.44745 0.0098 0.62166 0.0
C335 C 0.53172 0.09484 0.75229 0.0
N336 N 0.51832 0.09562 0.75602 0.0
C337 C 0.54497 0.10691 0.73273 0.0
C338 C 0.54443 0.11984 0.71693 0.0
C339 C 0.53071 0.12055 0.72086 0.0
C340 C 0.51769 0.10825 0.74057 0.0
C341 C 0.50773 0.11428 0.86754 0.0
C342 C 0.48272 0.09124 0.82207 0.0
C343 C 0.50962 0.10399 0.84095 0.0
N344 N 0.49722 0.09273 0.81842 0.0
C345 C 0.48038 0.10132 0.84836 0.0
C346 C 0.493 0.11292 0.87118 0.0
C347 C 0.46972 0.04862 0.79186 0.0
C348 C 0.50842 0.02449 0.76112 0.0
C349 C 0.47805 0.01884 0.75267 0.0
C350 C 0.48073 0.00777 0.7728 0.0
C351 C 0.49603 0.01065 0.77706 0.0
N352 N 0.49026 0.03239 0.73712 0.0
C353 C 0.50529 0.03528 0.7411 0.0
Co354 Co 0.71326 0.96167 0.62385 0.0
Co355 Co 0.74434 0.97782 0.55407 0.0
O356 O 0.72915 0.96063 0.58917 0.0
C357 C 0.73008 0.95231 0.68379 0.0
O358 O 0.7431 0.9639 0.66844 0.0
C359 C 0.72894 0.95124 0.4945 0.0
O360 O 0.71553 0.94887 0.50975 0.0
O361 O 0.72749 0.9804 0.52746 0.0
O362 O 0.70935 0.97361 0.57873 0.0
H363 H 0.76867 0.0311 0.48705 0.0
H364 H 0.71106 0.93097 0.60806 0.0
O365 O 0.71688 0.94978 0.66976 0.0
H366 H 0.66238 0.92602 0.54901 0.0
H367 H 0.66759 0.93963 0.72482 0.0
H368 H 0.70538 0.98628 0.64457 0.0
H369 H 0.68198 0.95054 0.58367 0.0
H370 H 0.68752 0.93874 0.6794 0.0
O371 O 0.74178 0.96248 0.50861 0.0
H372 H 0.74999 0.0095 0.5327 0.0
H373 H 0.77077 0.98229 0.49848 0.0
H374 H 0.68557 0.98766 0.68933 0.0
H375 H 0.69171 0.90619 0.57403 0.0
H376 H 0.66649 0.96421 0.72985 0.0
H377 H 0.66719 0.90362 0.54406 0.0
O378 O 0.72922 0.98176 0.65003 0.0
H379 H 0.76914 0.94702 0.60573 0.0
H380 H 0.77532 0.99968 0.59355 0.0
H381 H 0.79599 0.99654 0.62862 0.0
H382 H 0.79297 0.97005 0.63484 0.0
H383 H 0.74869 0.95068 0.57124 0.0
H384 H 0.78965 0.00358 0.45226 0.0
H385 H 0.78869 0.02822 0.44643 0.0
O386 O 0.74722 0.99348 0.5987 0.0
C387 C 0.71501 0.97944 0.54241 0.0
C388 C 0.76925 0.02045 0.48945 0.0
C389 C 0.78101 0.00499 0.46989 0.0
N390 N 0.75939 0.99471 0.51854 0.0
C391 C 0.75873 0.00819 0.51534 0.0
C392 C 0.77028 0.99297 0.49605 0.0
C393 C 0.78046 0.01881 0.46663 0.0
C394 C 0.70034 0.92989 0.59551 0.0
N395 N 0.69761 0.94216 0.59806 0.0
C396 C 0.68946 0.91585 0.5761 0.0
C397 C 0.67571 0.91443 0.55924 0.0
C398 C 0.67302 0.92699 0.56198 0.0
C399 C 0.68417 0.94086 0.58156 0.0
C400 C 0.67581 0.94991 0.70722 0.0
C401 C 0.69704 0.97599 0.66185 0.0
C402 C 0.68713 0.94948 0.68151 0.0
N403 N 0.69749 0.9624 0.65902 0.0
C404 C 0.68588 0.97686 0.68726 0.0
C405 C 0.67519 0.9637 0.71002 0.0
C406 C 0.74134 0.99358 0.63476 0.0
C407 C 0.77061 0.95862 0.6031 0.0
C408 C 0.7739 0.98812 0.59622 0.0
C409 C 0.78566 0.98641 0.61603 0.0
C410 C 0.78397 0.97155 0.61949 0.0
N411 N 0.76084 0.97538 0.5802 0.0
C412 C 0.7591 0.96078 0.58344 0.0
Co413 Co 0.16611 0.82105 0.61434 0.0
Co414 Co 0.15145 0.83732 0.54392 0.0
O415 O 0.16828 0.83821 0.57883 0.0
C416 C 0.17751 0.84768 0.67384 0.0
O417 O 0.16622 0.84984 0.65937 0.0
C418 C 0.17743 0.84602 0.48413 0.0
O419 O 0.17854 0.83428 0.49987 0.0
O420 O 0.14708 0.81711 0.51823 0.0
O421 O 0.15307 0.80527 0.57004 0.0
H422 H 0.09776 0.81179 0.47809 0.0
H423 H 0.19776 0.84782 0.59643 0.0
O424 O 0.17917 0.83653 0.65932 0.0
H425 H 0.19808 0.80135 0.53954 0.0
H426 H 0.18543 0.79527 0.71712 0.0
H427 H 0.13985 0.78963 0.63676 0.0
H428 H 0.17464 0.7987 0.57544 0.0
H429 H 0.18801 0.81646 0.67006 0.0
O430 O 0.16701 0.84893 0.49798 0.0
H431 H 0.11884 0.81296 0.52319 0.0
H432 H 0.14899 0.86032 0.48769 0.0
H433 H 0.13676 0.76816 0.68337 0.0
H434 H 0.22151 0.85098 0.56113 0.0
H435 H 0.15967 0.77091 0.72393 0.0
H436 H 0.22174 0.82764 0.53224 0.0
O437 O 0.14684 0.81886 0.64085 0.0
H438 H 0.18597 0.89274 0.59348 0.0
H439 H 0.13161 0.84892 0.58325 0.0
H440 H 0.13687 0.87359 0.61758 0.0
H441 H 0.16421 0.89572 0.62283 0.0
H442 H 0.1802 0.86783 0.55969 0.0
H443 H 0.12829 0.85963 0.4419 0.0
H444 H 0.10243 0.83525 0.43705 0.0
O445 O 0.13558 0.82564 0.58907 0.0
C446 C 0.14722 0.80523 0.53374 0.0
C447 C 0.10895 0.8225 0.48009 0.0
C448 C 0.12609 0.84935 0.45973 0.0
N449 N 0.13505 0.83675 0.50845 0.0
C450 C 0.12091 0.82325 0.5057 0.0
C451 C 0.13778 0.84966 0.48566 0.0
C452 C 0.11159 0.83566 0.45703 0.0
C453 C 0.19784 0.83759 0.58439 0.0
N454 N 0.18486 0.82309 0.58818 0.0
C455 C 0.2113 0.83946 0.56426 0.0
C456 C 0.21141 0.82636 0.54799 0.0
C457 C 0.19813 0.81161 0.55206 0.0
C458 C 0.18488 0.81018 0.57234 0.0
C459 C 0.17538 0.79392 0.69952 0.0
C460 C 0.1499 0.79087 0.65411 0.0
C461 C 0.17676 0.80588 0.67286 0.0
N462 N 0.16413 0.80421 0.65041 0.0
C463 C 0.14806 0.77869 0.68053 0.0
C464 C 0.16092 0.78025 0.70332 0.0
C465 C 0.13542 0.81996 0.62565 0.0
C466 C 0.174 0.8832 0.59126 0.0
C467 C 0.14354 0.85849 0.58546 0.0
C468 C 0.14644 0.87244 0.60487 0.0
C469 C 0.16179 0.88486 0.60778 0.0
N470 N 0.15558 0.85697 0.56928 0.0
C471 C 0.17065 0.86909 0.572 0.0
Co472 Co 0.3122 0.4132 0.61966 0.0
Co473 Co 0.29771 0.38315 0.54654 0.0
O474 O 0.29551 0.39802 0.58291 0.0
C475 C 0.28525 0.39675 0.67739 0.0
O476 O 0.28319 0.38353 0.6615 0.0
C477 C 0.28712 0.39944 0.48847 0.0
O478 O 0.29819 0.41257 0.50507 0.0
O479 O 0.3174 0.4002 0.52177 0.0
O480 O 0.32843 0.41709 0.576 0.0
H481 H 0.32679 0.35926 0.47745 0.0
H482 H 0.28458 0.41671 0.60167 0.0
O483 O 0.2964 0.40976 0.66421 0.0
H484 H 0.33004 0.46532 0.54948 0.0
H485 H 0.33599 0.45748 0.72557 0.0
H486 H 0.34397 0.41947 0.64316 0.0
H487 H 0.33369 0.44479 0.58324 0.0
H488 H 0.31544 0.43882 0.6769 0.0
O489 O 0.2853 0.38637 0.50115 0.0
H490 H 0.32377 0.37755 0.52466 0.0
H491 H 0.27598 0.35745 0.48848 0.0
H492 H 0.36484 0.43793 0.69138 0.0
H493 H 0.28041 0.43699 0.56845 0.0
H494 H 0.36092 0.45712 0.73298 0.0
H495 H 0.30325 0.46149 0.54194 0.0
O496 O 0.31512 0.39642 0.64518 0.0
H497 H 0.24178 0.35808 0.59515 0.0
H498 H 0.28821 0.35175 0.58321 0.0
H499 H 0.26412 0.33079 0.61609 0.0
H500 H 0.24068 0.33388 0.62219 0.0
H501 H 0.26614 0.37879 0.56279 0.0
H502 H 0.2785 0.33896 0.44068 0.0
H503 H 0.30404 0.33977 0.43507 0.0
O504 O 0.31017 0.37961 0.59114 0.0
C505 C 0.32891 0.41217 0.53882 0.0
C506 C 0.31558 0.35873 0.47978 0.0
C507 C 0.28849 0.34737 0.45909 0.0
N508 N 0.29967 0.36845 0.50967 0.0
C509 C 0.31378 0.36903 0.50656 0.0
C510 C 0.28713 0.35787 0.48617 0.0
C511 C 0.30282 0.34782 0.45596 0.0
C512 C 0.29459 0.42741 0.59062 0.0
N513 N 0.30937 0.42959 0.59457 0.0
C514 C 0.29215 0.43882 0.57166 0.0
C515 C 0.30497 0.45255 0.55674 0.0
C516 C 0.32 0.4547 0.56092 0.0
C517 C 0.32199 0.44302 0.57998 0.0
C518 C 0.33786 0.4492 0.70752 0.0
C519 C 0.34222 0.42785 0.66095 0.0
C520 C 0.32626 0.4386 0.67994 0.0
N521 N 0.32856 0.42816 0.65693 0.0
C522 C 0.35406 0.43825 0.68829 0.0
C523 C 0.35184 0.449 0.71166 0.0
C524 C 0.31518 0.38465 0.62861 0.0
C525 C 0.2519 0.35657 0.59255 0.0
C526 C 0.27807 0.3532 0.58582 0.0
C527 C 0.26445 0.34127 0.60439 0.0
C528 C 0.2513 0.34301 0.60778 0.0
N529 N 0.27856 0.36645 0.57091 0.0
C530 C 0.26571 0.36823 0.57409 0.0
Co531 Co 0.7187 0.82104 0.12129 0.0
Co532 Co 0.75028 0.83733 0.05287 0.0
O533 O 0.73415 0.83825 0.08672 0.0
C534 C 0.73422 0.84746 0.18135 0.0
O535 O 0.74761 0.84979 0.16604 0.0
C536 C 0.73336 0.84616 0.99172 0.0
O537 O 0.72036 0.83459 0.00727 0.0
O538 O 0.73461 0.81703 0.02693 0.0
O539 O 0.7157 0.80551 0.07616 0.0
H540 H 0.77889 0.81178 0.9905 0.0
H541 H 0.71503 0.8486 0.10437 0.0
O542 O 0.72136 0.83627 0.16716 0.0
H543 H 0.66732 0.8034 0.04629 0.0
H544 H 0.67307 0.79536 0.22213 0.0
H545 H 0.71245 0.78908 0.14143 0.0
H546 H 0.68761 0.7997 0.08159 0.0
H547 H 0.69229 0.81675 0.17676 0.0
O548 O 0.74658 0.84886 0.00609 0.0
H549 H 0.75874 0.813 0.03413 0.0
H550 H 0.776 0.86025 0.99726 0.0
H551 H 0.69342 0.76738 0.1862 0.0
H552 H 0.69497 0.85283 0.06967 0.0
H553 H 0.67353 0.77045 0.22695 0.0
H554 H 0.67094 0.83013 0.04019 0.0
O555 O 0.73528 0.81803 0.1481 0.0
H556 H 0.77092 0.89289 0.10065 0.0
H557 H 0.7815 0.84904 0.09402 0.0
H558 H 0.80074 0.87383 0.12827 0.0
H559 H 0.79551 0.89597 0.1317 0.0
H560 H 0.75193 0.86786 0.06705 0.0
H561 H 0.79626 0.85951 0.95296 0.0
H562 H 0.79784 0.83516 0.94952 0.0
O563 O 0.75424 0.82575 0.09886 0.0
C564 C 0.72208 0.80536 0.04099 0.0
C565 C 0.77837 0.82248 0.99188 0.0
C566 C 0.7881 0.84926 0.97076 0.0
N567 N 0.76631 0.83673 0.01859 0.0
C568 C 0.76702 0.82326 0.01664 0.0
C569 C 0.77659 0.8496 0.99584 0.0
C570 C 0.78898 0.8356 0.96885 0.0
C571 C 0.70453 0.83865 0.09198 0.0
N572 N 0.70247 0.82391 0.09511 0.0
C573 C 0.69325 0.84112 0.07222 0.0
C574 C 0.67977 0.82838 0.05563 0.0
C575 C 0.67774 0.81339 0.05901 0.0
C576 C 0.68929 0.81136 0.07892 0.0
C577 C 0.68165 0.79387 0.20445 0.0
C578 C 0.70377 0.79047 0.15885 0.0
C579 C 0.69257 0.80594 0.17877 0.0
N580 N 0.70339 0.80411 0.15621 0.0
C581 C 0.69305 0.77815 0.18424 0.0
C582 C 0.68191 0.77989 0.20713 0.0
C583 C 0.74812 0.81949 0.13445 0.0
C584 C 0.77336 0.88335 0.09924 0.0
C585 C 0.77912 0.85862 0.09546 0.0
C586 C 0.79008 0.87263 0.11482 0.0
C587 C 0.78714 0.88506 0.11671 0.0
N588 N 0.76564 0.85704 0.07835 0.0
C589 C 0.76268 0.86917 0.08008 0.0
Co590 Co 0.31293 0.96271 0.1169 0.0
Co591 Co 0.29655 0.97797 0.04913 0.0
O592 O 0.29553 0.96099 0.08317 0.0
C593 C 0.28694 0.95196 0.17744 0.0
O594 O 0.28514 0.96348 0.16326 0.0
C595 C 0.28574 0.95171 0.98867 0.0
O596 O 0.29759 0.95022 0.00171 0.0
O597 O 0.31594 0.98123 0.0207 0.0
O598 O 0.32835 0.97561 0.07192 0.0
H599 H 0.32283 0.03138 0.9824 0.0
H600 H 0.28547 0.93136 0.09974 0.0
O601 O 0.29779 0.94989 0.16253 0.0
H602 H 0.33065 0.93002 0.03716 0.0
H603 H 0.33889 0.94198 0.21447 0.0
H604 H 0.34496 0.98832 0.1379 0.0
H605 H 0.33428 0.95361 0.07451 0.0
H606 H 0.31735 0.94025 0.1703 0.0
O607 O 0.28354 0.96239 0.00427 0.0
H608 H 0.3215 0.01004 0.02639 0.0
H609 H 0.27322 0.98139 0.99667 0.0
H610 H 0.36685 0.99054 0.18141 0.0
H611 H 0.28134 0.90746 0.06307 0.0
H612 H 0.36388 0.96725 0.22007 0.0
H613 H 0.30402 0.90671 0.03131 0.0
O614 O 0.31597 0.98214 0.14462 0.0
H615 H 0.24183 0.94569 0.10568 0.0
H616 H 0.28708 0.99905 0.09157 0.0
H617 H 0.26357 0.99506 0.13001 0.0
H618 H 0.24072 0.96822 0.13723 0.0
H619 H 0.26564 0.95019 0.06787 0.0
H620 H 0.27404 0.00237 0.95206 0.0
H621 H 0.29897 0.0276 0.94487 0.0
O622 O 0.30961 0.99388 0.09328 0.0
C623 C 0.32793 0.98109 0.03545 0.0
C624 C 0.31188 0.02046 0.98542 0.0
C625 C 0.28451 0.00417 0.96835 0.0
N626 N 0.29727 0.99456 0.01445 0.0
C627 C 0.31105 0.00836 0.0104 0.0
C628 C 0.28412 0.99233 0.99359 0.0
C629 C 0.29849 0.01833 0.96434 0.0
C630 C 0.29543 0.93106 0.08646 0.0
N631 N 0.31011 0.94383 0.08948 0.0
C632 C 0.293 0.91752 0.06555 0.0
C633 C 0.30573 0.91712 0.04768 0.0
C634 C 0.32068 0.93019 0.05093 0.0
C635 C 0.32265 0.94353 0.07205 0.0
C636 C 0.34034 0.9522 0.19768 0.0
C637 C 0.34363 0.97811 0.15438 0.0
C638 C 0.32818 0.95129 0.17268 0.0
N639 N 0.32997 0.96413 0.15121 0.0
C640 C 0.35604 0.97945 0.17908 0.0
C641 C 0.35436 0.96638 0.2008 0.0
C642 C 0.31546 0.99388 0.12958 0.0
C643 C 0.25168 0.95745 0.1026 0.0
C644 C 0.27719 0.98734 0.0946 0.0
C645 C 0.2639 0.98515 0.11634 0.0
C646 C 0.25108 0.97009 0.12036 0.0
N647 N 0.2777 0.97487 0.07731 0.0
C648 C 0.26517 0.96008 0.08103 0.0
Co649 Co 0.16884 0.41472 0.11729 0.0
Co650 Co 0.1544 0.383 0.04905 0.0
O651 O 0.17113 0.39947 0.08295 0.0
C652 C 0.17968 0.39937 0.17776 0.0
O653 O 0.16869 0.38605 0.16184 0.0
C654 C 0.18003 0.39997 0.98762 0.0
O655 O 0.18167 0.41308 0.00311 0.0
O656 O 0.14932 0.39829 0.02264 0.0
O657 O 0.15624 0.41732 0.07159 0.0
H658 H 0.1002 0.35295 0.98703 0.0
H659 H 0.20051 0.41912 0.10222 0.0
O660 O 0.1814 0.41227 0.16379 0.0
H661 H 0.20181 0.46585 0.0414 0.0
H662 H 0.18822 0.46058 0.21746 0.0
H663 H 0.14281 0.42066 0.13656 0.0
H664 H 0.17796 0.44537 0.07638 0.0
H665 H 0.19061 0.44126 0.17292 0.0
O666 O 0.16962 0.38685 0.00243 0.0
H667 H 0.12133 0.37357 0.03045 0.0
H668 H 0.1523 0.35744 0.9937 0.0
H669 H 0.13992 0.43982 0.18041 0.0
H670 H 0.22467 0.43939 0.06785 0.0
H671 H 0.16274 0.45997 0.22125 0.0
H672 H 0.2254 0.46293 0.03702 0.0
O673 O 0.14919 0.39804 0.14348 0.0
H674 H 0.19074 0.36431 0.09877 0.0
H675 H 0.13565 0.35157 0.08947 0.0
H676 H 0.14202 0.33307 0.12452 0.0
H677 H 0.16974 0.3394 0.12932 0.0
H678 H 0.18385 0.38254 0.06437 0.0
H679 H 0.13155 0.33673 0.94958 0.0
H680 H 0.10526 0.33435 0.9462 0.0
O681 O 0.13881 0.37873 0.09484 0.0
C682 C 0.1499 0.41076 0.03634 0.0
C683 C 0.11159 0.35383 0.98835 0.0
C684 C 0.1292 0.34474 0.96728 0.0
N685 N 0.13799 0.36662 0.01485 0.0
C686 C 0.12359 0.36546 0.01297 0.0
C687 C 0.14091 0.35652 0.99224 0.0
C688 C 0.11445 0.34341 0.96541 0.0
C689 C 0.2008 0.42942 0.08929 0.0
N690 N 0.18788 0.4311 0.09153 0.0
C691 C 0.21449 0.44082 0.0697 0.0
C692 C 0.21488 0.45402 0.05235 0.0
C693 C 0.20165 0.45566 0.05478 0.0
C694 C 0.18816 0.44401 0.07455 0.0
C695 C 0.1782 0.45188 0.19973 0.0
C696 C 0.15282 0.42947 0.154 0.0
C697 C 0.17948 0.4409 0.17452 0.0
N698 N 0.1669 0.42995 0.15187 0.0
C699 C 0.1511 0.44025 0.17889 0.0
C700 C 0.1639 0.45154 0.20183 0.0
C701 C 0.13818 0.38493 0.12984 0.0
C702 C 0.17861 0.3614 0.09681 0.0
C703 C 0.14773 0.35443 0.09158 0.0
C704 C 0.15127 0.34389 0.11134 0.0
C705 C 0.16683 0.34744 0.11399 0.0
N706 N 0.15935 0.36811 0.07484 0.0
C707 C 0.17463 0.37165 0.07721 0.0
Co708 Co 0.41898 0.31373 0.88447 0.0
Co709 Co 0.38717 0.29888 0.95164 0.0
O710 O 0.40245 0.29674 0.91722 0.0
C711 C 0.40237 0.28854 0.82164 0.0
O712 O 0.38937 0.28765 0.83529 0.0
C713 C 0.40146 0.28644 0.01075 0.0
O714 O 0.41505 0.29744 0.99646 0.0
O715 O 0.40402 0.31778 0.98037 0.0
O716 O 0.42276 0.32916 0.9307 0.0
H717 H 0.36322 0.32809 0.01962 0.0
H718 H 0.42014 0.28461 0.89907 0.0
O719 O 0.4155 0.29856 0.83766 0.0
H720 H 0.46867 0.32688 0.96304 0.0
H721 H 0.46576 0.33733 0.78729 0.0
H722 H 0.4281 0.34673 0.86664 0.0
H723 H 0.44994 0.33282 0.92731 0.0
H724 H 0.44494 0.31631 0.83019 0.0
O725 O 0.38883 0.28529 0.99636 0.0
H726 H 0.38217 0.32519 0.97496 0.0
H727 H 0.35981 0.27669 0.00393 0.0
H728 H 0.44881 0.36812 0.82443 0.0
H729 H 0.43861 0.27817 0.93418 0.0
H730 H 0.46783 0.36348 0.78438 0.0
H731 H 0.46306 0.29939 0.96662 0.0
O732 O 0.40364 0.31861 0.85751 0.0
H733 H 0.36192 0.2441 0.89341 0.0
H734 H 0.35698 0.2912 0.90959 0.0
H735 H 0.33659 0.26836 0.87051 0.0
H736 H 0.33899 0.24459 0.86224 0.0
H737 H 0.38212 0.26726 0.93193 0.0
H738 H 0.34063 0.27907 0.04912 0.0
H739 H 0.34225 0.3049 0.05705 0.0
O740 O 0.38526 0.31251 0.90776 0.0
C741 C 0.41683 0.32919 0.96673 0.0
C742 C 0.36234 0.31675 0.01626 0.0
C743 C 0.34969 0.28924 0.03286 0.0
N744 N 0.37198 0.30076 0.98649 0.0
C745 C 0.37301 0.31503 0.9909 0.0
C746 C 0.36058 0.28797 0.00728 0.0
C747 C 0.35059 0.30374 0.03729 0.0
C748 C 0.43083 0.29393 0.9127 0.0
N749 N 0.43399 0.30908 0.91096 0.0
C750 C 0.44122 0.2902 0.93271 0.0
C751 C 0.45491 0.30211 0.95096 0.0
C752 C 0.45807 0.31754 0.94899 0.0
C753 C 0.4474 0.32082 0.9288 0.0
C754 C 0.45757 0.33951 0.80467 0.0
C755 C 0.43639 0.34465 0.8495 0.0
C756 C 0.44574 0.32765 0.82894 0.0
N757 N 0.4354 0.33034 0.85116 0.0
C758 C 0.44807 0.35679 0.82556 0.0
C759 C 0.45872 0.35418 0.80306 0.0
C760 C 0.39155 0.31858 0.87213 0.0
C761 C 0.36071 0.25436 0.89697 0.0
C762 C 0.3581 0.2809 0.90615 0.0
C763 C 0.34651 0.26799 0.88404 0.0
C764 C 0.34786 0.25466 0.87942 0.0
N765 N 0.37068 0.28053 0.92324 0.0
C766 C 0.37207 0.26748 0.91892 0.0
Co767 Co 0.83683 0.15412 0.93705 0.0
Co768 Co 0.82016 0.17199 0.87976 0.0
O769 O 0.83771 0.17197 0.90813 0.0
C770 C 0.84712 0.17861 0.00246 0.0
O771 O 0.83543 0.18044 0.98981 0.0
C772 C 0.84354 0.18082 0.81167 0.0
O773 O 0.84363 0.16778 0.81926 0.0
O774 O 0.81417 0.15183 0.85005 0.0
O775 O 0.82439 0.13998 0.88938 0.0
H776 H 0.76446 0.14882 0.82966 0.0
H777 H 0.86719 0.18307 0.92172 0.0
O778 O 0.84937 0.16821 0.98517 0.0
H779 H 0.87141 0.14097 0.8492 0.0
H780 H 0.85927 0.12711 0.02416 0.0
H781 H 0.8123 0.12105 0.95059 0.0
H782 H 0.84762 0.13504 0.88951 0.0
H783 H 0.86 0.14945 0.98667 0.0
O784 O 0.83451 0.18419 0.83225 0.0
H785 H 0.78656 0.14873 0.86638 0.0
H786 H 0.81688 0.19603 0.83056 0.0
H787 H 0.81108 0.0984 0.98745 0.0
H788 H 0.89123 0.18951 0.88194 0.0
H789 H 0.8347 0.10134 0.0245 0.0
H790 H 0.89341 0.16839 0.84512 0.0
O791 O 0.81701 0.14924 0.96685 0.0
H792 H 0.85748 0.22616 0.93378 0.0
H793 H 0.8023 0.18389 0.92856 0.0
H794 H 0.80933 0.20811 0.96827 0.0
H795 H 0.8371 0.22947 0.97105 0.0
H796 H 0.84994 0.20169 0.89478 0.0
H797 H 0.79514 0.19659 0.79315 0.0
H798 H 0.76868 0.17288 0.7927 0.0
O799 O 0.80586 0.16002 0.92711 0.0
C800 C 0.81631 0.14033 0.85807 0.0
C801 C 0.77592 0.15924 0.82972 0.0
C802 C 0.79315 0.18604 0.80918 0.0
N803 N 0.80297 0.17238 0.85079 0.0
C804 C 0.78847 0.15927 0.85054 0.0
C805 C 0.80542 0.18564 0.8303 0.0
C806 C 0.7783 0.17274 0.80895 0.0
C807 C 0.86811 0.17379 0.9061 0.0
N808 N 0.85601 0.15869 0.90792 0.0
C809 C 0.88173 0.17752 0.88352 0.0
C810 C 0.88294 0.16566 0.86283 0.0
C811 C 0.87059 0.15028 0.86506 0.0
C812 C 0.85713 0.14699 0.88784 0.0
C813 C 0.84891 0.12567 0.00804 0.0
C814 C 0.82265 0.1224 0.96646 0.0
C815 C 0.84925 0.13828 0.98686 0.0
N816 N 0.83624 0.13651 0.96622 0.0
C817 C 0.82187 0.10954 0.98735 0.0
C818 C 0.83512 0.11121 0.00819 0.0
C819 C 0.80586 0.15193 0.95871 0.0
C820 C 0.84533 0.21697 0.93269 0.0
C821 C 0.8144 0.19311 0.92965 0.0
C822 C 0.81831 0.20682 0.95213 0.0
C823 C 0.8339 0.2188 0.95365 0.0
N824 N 0.82568 0.1914 0.90915 0.0
C825 C 0.84098 0.20311 0.91047 0.0
Co826 Co 0.9629 0.71725 0.88623 0.0
Co827 Co 0.97939 0.74886 0.95449 0.0
O828 O 0.96194 0.73315 0.92086 0.0
C829 C 0.95238 0.73323 0.82692 0.0
O830 O 0.96395 0.74643 0.84166 0.0
C831 C 0.95358 0.7332 0.01556 0.0
O832 O 0.95173 0.71993 0.00065 0.0
O833 O 0.98294 0.7326 0.98095 0.0
O834 O 0.97563 0.71405 0.93052 0.0
H835 H 0.03357 0.77533 0.01734 0.0
H836 H 0.93208 0.71442 0.9047 0.0
O837 O 0.95021 0.7202 0.84119 0.0
H838 H 0.92921 0.66684 0.96461 0.0
H839 H 0.94049 0.6709 0.78711 0.0
H840 H 0.98768 0.70976 0.86426 0.0
H841 H 0.95297 0.68642 0.9273 0.0
H842 H 0.93968 0.69097 0.83228 0.0
O843 O 0.96439 0.74616 0.00095 0.0
H844 H 0.01166 0.75566 0.97393 0.0
H845 H 0.98363 0.77541 0.00915 0.0
H846 H 0.98898 0.68982 0.81974 0.0
H847 H 0.90803 0.69507 0.94143 0.0
H848 H 0.96526 0.67021 0.78078 0.0
H849 H 0.90652 0.67111 0.97184 0.0
O850 O 0.98246 0.73332 0.85837 0.0
H851 H 0.94679 0.772 0.90488 0.0
H852 H 0.00013 0.77952 0.91244 0.0
H853 H 0.99589 0.79938 0.87683 0.0
H854 H 0.96907 0.79569 0.87294 0.0
H855 H 0.95152 0.75233 0.93972 0.0
H856 H 0.00519 0.79523 0.05322 0.0
H857 H 0.03041 0.79531 0.05736 0.0
O858 O 0.99466 0.75177 0.90873 0.0
C859 C 0.982 0.7201 0.9662 0.0
C860 C 0.02267 0.77546 0.01564 0.0
C861 C 0.00673 0.78662 0.03583 0.0
N862 N 0.99646 0.76451 0.98864 0.0
C863 C 0.01024 0.76439 0.991 0.0
C864 C 0.99456 0.77536 0.01088 0.0
C865 C 0.02088 0.78666 0.03813 0.0
C866 C 0.93144 0.70393 0.91741 0.0
N867 N 0.94388 0.70152 0.91366 0.0
C868 C 0.91782 0.69305 0.93835 0.0
C869 C 0.91699 0.67962 0.95547 0.0
C870 C 0.92972 0.67723 0.95144 0.0
C871 C 0.94316 0.68837 0.93035 0.0
C872 C 0.95089 0.67936 0.804 0.0
C873 C 0.97729 0.7012 0.8476 0.0
C874 C 0.95051 0.69077 0.82955 0.0
N875 N 0.96359 0.70143 0.85114 0.0
C876 C 0.97811 0.68997 0.82235 0.0
C877 C 0.96479 0.67898 0.80047 0.0
C878 C 0.99433 0.74569 0.8726 0.0
C879 C 0.95854 0.77376 0.90649 0.0
C880 C 0.98841 0.77781 0.9108 0.0
C881 C 0.98609 0.78911 0.89068 0.0
C882 C 0.97104 0.78704 0.88853 0.0
N883 N 0.97609 0.76481 0.92832 0.0
C884 C 0.96131 0.7627 0.92637 0.0
Co885 Co 0.38211 0.15204 0.45545 0.0
Co886 Co 0.41282 0.16736 0.38464 0.0
O887 O 0.3976 0.16908 0.42046 0.0
C888 C 0.39861 0.17819 0.51562 0.0
O889 O 0.41171 0.17957 0.50101 0.0
C890 C 0.39694 0.17846 0.32642 0.0
O891 O 0.38365 0.1673 0.34186 0.0
O892 O 0.39601 0.14789 0.35802 0.0
O893 O 0.37843 0.13622 0.41038 0.0
H894 H 0.43739 0.13907 0.31478 0.0
H895 H 0.37893 0.17997 0.43963 0.0
O896 O 0.38548 0.16755 0.50115 0.0
H897 H 0.33064 0.13532 0.38207 0.0
H898 H 0.33689 0.12766 0.55779 0.0
H899 H 0.37514 0.11985 0.47613 0.0
H900 H 0.35081 0.13116 0.41626 0.0
H901 H 0.35633 0.14867 0.5119 0.0
O902 O 0.40989 0.18012 0.33984 0.0
H903 H 0.41874 0.14163 0.36162 0.0
H904 H 0.43896 0.18966 0.32893 0.0
H905 H 0.35584 0.0985 0.52136 0.0
H906 H 0.359 0.18465 0.40601 0.0
H907 H 0.33653 0.10234 0.56258 0.0
H908 H 0.33467 0.16222 0.3768 0.0
O909 O 0.39856 0.14855 0.48116 0.0
H910 H 0.43695 0.2226 0.43876 0.0
H911 H 0.44406 0.17677 0.42286 0.0
H912 H 0.46455 0.20052 0.45857 0.0
H913 H 0.46105 0.22366 0.46672 0.0
H914 H 0.41672 0.19858 0.40343 0.0
H915 H 0.45783 0.18762 0.28162 0.0
H916 H 0.45713 0.16219 0.27442 0.0
O917 O 0.41612 0.15464 0.42865 0.0
C918 C 0.38382 0.13621 0.3735 0.0
C919 C 0.43787 0.15024 0.3178 0.0
C920 C 0.44931 0.17748 0.29915 0.0
N921 N 0.42787 0.16582 0.3483 0.0
C922 C 0.42736 0.15177 0.34436 0.0
C923 C 0.4386 0.17856 0.32594 0.0
C924 C 0.44892 0.16321 0.29512 0.0
C925 C 0.36829 0.17014 0.42741 0.0
N926 N 0.366 0.1553 0.4301 0.0
C927 C 0.35708 0.17286 0.40823 0.0
C928 C 0.34345 0.16028 0.39179 0.0
C929 C 0.34118 0.14518 0.3947 0.0
C930 C 0.35266 0.1429 0.41402 0.0
C931 C 0.34522 0.12583 0.53989 0.0
C932 C 0.3667 0.12157 0.49374 0.0
C933 C 0.35626 0.13769 0.51391 0.0
N934 N 0.36675 0.13542 0.49104 0.0
C935 C 0.35584 0.10945 0.5194 0.0
C936 C 0.34502 0.11162 0.54256 0.0
C937 C 0.41066 0.14895 0.46526 0.0
C938 C 0.43863 0.21262 0.43526 0.0
C939 C 0.44245 0.18679 0.42626 0.0
C940 C 0.45411 0.20022 0.44647 0.0
C941 C 0.45214 0.21319 0.451 0.0
N942 N 0.42924 0.18632 0.41087 0.0
C943 C 0.42725 0.19901 0.41512 0.0
Co944 Co 0.96314 0.31091 0.37729 0.0
Co945 Co 0.97853 0.29485 0.44666 0.0
O946 O 0.96148 0.29388 0.41264 0.0
C947 C 0.95272 0.28419 0.31884 0.0
O948 O 0.96412 0.28247 0.33459 0.0
C949 C 0.95293 0.28697 0.50678 0.0
O950 O 0.95082 0.29759 0.48766 0.0
O951 O 0.98355 0.31547 0.47086 0.0
O952 O 0.97557 0.32672 0.4221 0.0
H953 H 0.03323 0.32028 0.50572 0.0
H954 H 0.93181 0.28327 0.39334 0.0
O955 O 0.95072 0.29531 0.33186 0.0
H956 H 0.92925 0.32838 0.45165 0.0
H957 H 0.94235 0.33539 0.27479 0.0
H958 H 0.98849 0.34298 0.35612 0.0
H959 H 0.95329 0.33215 0.41679 0.0
H960 H 0.94072 0.3144 0.32094 0.0
O961 O 0.96367 0.28426 0.49464 0.0
H962 H 0.01168 0.31889 0.46232 0.0
H963 H 0.98123 0.27251 0.50511 0.0
H964 H 0.9906 0.36432 0.31061 0.0
H965 H 0.90747 0.279 0.42747 0.0
H966 H 0.96741 0.36059 0.26955 0.0
H967 H 0.90611 0.30165 0.45713 0.0
O968 O 0.98292 0.31418 0.35122 0.0
H969 H 0.94239 0.23905 0.40281 0.0
H970 H 0.99731 0.28191 0.40789 0.0
H971 H 0.99104 0.25662 0.37557 0.0
H972 H 0.9634 0.23498 0.37289 0.0
H973 H 0.94919 0.26458 0.43452 0.0
H974 H 0.00241 0.27344 0.54927 0.0
H975 H 0.02865 0.29743 0.5496 0.0
O976 O 0.9937 0.30553 0.39954 0.0
C977 C 0.98235 0.32698 0.45699 0.0
C978 C 0.02187 0.30974 0.50573 0.0
C979 C 0.00456 0.28346 0.53022 0.0
N980 N 0.99527 0.29559 0.48092 0.0
C981 C 0.00963 0.30887 0.48113 0.0
C982 C 0.9926 0.28301 0.50523 0.0
C983 C 0.01928 0.29692 0.53038 0.0
C984 C 0.93124 0.29321 0.40564 0.0
N985 N 0.94393 0.30795 0.40286 0.0
C986 C 0.91745 0.29071 0.42513 0.0
C987 C 0.91671 0.30342 0.44184 0.0
C988 C 0.92969 0.31842 0.4388 0.0
C989 C 0.94329 0.32047 0.41911 0.0
C990 C 0.95252 0.33717 0.29261 0.0
C991 C 0.97832 0.34132 0.33859 0.0
C992 C 0.95168 0.32533 0.31873 0.0
N993 N 0.96446 0.32753 0.3415 0.0
C994 C 0.9796 0.35342 0.31276 0.0
C995 C 0.96659 0.35131 0.28969 0.0
C996 C 0.99404 0.31216 0.3644 0.0
C997 C 0.95448 0.24838 0.40387 0.0
C998 C 0.98527 0.27256 0.40674 0.0
C999 C 0.98178 0.25826 0.3885 0.0
C1000 C 0.96627 0.24611 0.38704 0.0
N1001 N 0.97364 0.2747 0.42316 0.0
C1002 C 0.95841 0.26284 0.42194 0.0
Co1003 Co 0.83313 0.74531 0.45156 0.0
Co1004 Co 0.81869 0.71427 0.38162 0.0
O1005 O 0.8356 0.7306 0.41542 0.0
C1006 C 0.84611 0.73097 0.50849 0.0
O1007 O 0.83515 0.71744 0.49359 0.0
C1008 C 0.84412 0.73152 0.32013 0.0
O1009 O 0.84521 0.74442 0.33546 0.0
O1010 O 0.81376 0.72976 0.35614 0.0
O1011 O 0.81913 0.74723 0.40874 0.0
H1012 H 0.76439 0.68475 0.31997 0.0
H1013 H 0.86505 0.75143 0.43085 0.0
O1014 O 0.84705 0.74363 0.49524 0.0
H1015 H 0.86249 0.79676 0.3745 0.0
H1016 H 0.85218 0.79078 0.55308 0.0
H1017 H 0.80637 0.74932 0.47695 0.0
H1018 H 0.83994 0.77561 0.41229 0.0
H1019 H 0.85501 0.77239 0.50561 0.0
O1020 O 0.83392 0.71825 0.33476 0.0
H1021 H 0.78566 0.70516 0.36352 0.0
H1022 H 0.81634 0.68885 0.3253 0.0
H1023 H 0.80302 0.76747 0.52392 0.0
H1024 H 0.88795 0.77241 0.39365 0.0
H1025 H 0.82605 0.7884 0.56235 0.0
H1026 H 0.88672 0.79525 0.36501 0.0
O1027 O 0.81451 0.72797 0.47949 0.0
H1028 H 0.8545 0.69449 0.42811 0.0
H1029 H 0.79972 0.68297 0.42235 0.0
H1030 H 0.80579 0.66402 0.45595 0.0
H1031 H 0.83335 0.66973 0.45893 0.0
H1032 H 0.84792 0.71319 0.39522 0.0
H1033 H 0.79544 0.66834 0.28103 0.0
H1034 H 0.76923 0.66616 0.27833 0.0
O1035 O 0.80311 0.70997 0.42782 0.0
C1036 C 0.81335 0.7414 0.3724 0.0
C1037 C 0.77575 0.68555 0.321 0.0
C1038 C 0.79318 0.67635 0.2991 0.0
N1039 N 0.80217 0.69809 0.34724 0.0
C1040 C 0.78782 0.69705 0.3457 0.0
C1041 C 0.80497 0.688 0.32415 0.0
C1042 C 0.77847 0.67513 0.29761 0.0
C1043 C 0.86451 0.76142 0.41895 0.0
N1044 N 0.85121 0.76233 0.42395 0.0
C1045 C 0.87748 0.77323 0.39773 0.0
C1046 C 0.87677 0.78603 0.3816 0.0
C1047 C 0.86317 0.78688 0.3869 0.0
C1048 C 0.85043 0.77485 0.40826 0.0
C1049 C 0.84207 0.78174 0.53639 0.0
C1050 C 0.81647 0.75846 0.49332 0.0
C1051 C 0.8436 0.77129 0.50951 0.0
N1052 N 0.8309 0.75991 0.48819 0.0
C1053 C 0.81449 0.76868 0.51998 0.0
C1054 C 0.82741 0.7804 0.54158 0.0
C1055 C 0.80308 0.71539 0.4647 0.0
C1056 C 0.84244 0.69185 0.42691 0.0
C1057 C 0.81174 0.68556 0.42364 0.0
C1058 C 0.81511 0.67477 0.44262 0.0
C1059 C 0.83057 0.67797 0.44425 0.0
N1060 N 0.82345 0.69914 0.40668 0.0
C1061 C 0.83864 0.70236 0.40814 0.0
H1062 H 0.09126 0.53655 0.88116 0.0
H1063 H 0.09143 0.55481 0.93419 0.0
H1064 H 0.04089 0.53011 0.93367 0.0
H1065 H 0.04059 0.51191 0.88048 0.0
H1066 H 0.0528 0.56143 0.93096 0.0
H1067 H 0.06067 0.52511 0.01424 0.0
H1068 H 0.07358 0.51011 0.03433 0.0
H1069 H 0.11678 0.55293 0.05601 0.0
H1070 H 0.10418 0.5682 0.03545 0.0
H1071 H 0.04074 0.59358 0.12011 0.0
H1072 H 0.04089 0.57567 0.06645 0.0
H1073 H 0.09142 0.60067 0.06815 0.0
H1074 H 0.09141 0.61852 0.12199 0.0
H1075 H 0.07973 0.5694 0.06998 0.0
H1076 H 0.07182 0.60573 0.98722 0.0
H1077 H 0.05893 0.62074 0.9671 0.0
H1078 H 0.01582 0.57792 0.94437 0.0
H1079 H 0.0284 0.56265 0.96496 0.0
C1080 C 0.08018 0.53498 0.89239 0.0
C1081 C 0.06591 0.52272 0.87675 0.0
C1082 C 0.0803 0.54541 0.92277 0.0
C1083 C 0.06616 0.54373 0.93816 0.0
C1084 C 0.05193 0.53161 0.92225 0.0
C1085 C 0.05179 0.52119 0.89194 0.0
C1086 C 0.06618 0.5546 0.9708 0.0
C1087 C 0.05852 0.56303 0.96157 0.0
C1088 C 0.07393 0.55694 0.01035 0.0
C1089 C 0.08152 0.54779 0.02288 0.0
C1090 C 0.07296 0.53133 0.02295 0.0
C1091 C 0.08021 0.52278 0.03449 0.0
C1092 C 0.096 0.53056 0.04633 0.0
C1093 C 0.10456 0.54692 0.04677 0.0
C1094 C 0.09736 0.55552 0.03521 0.0
C1095 C 0.05189 0.5953 0.10899 0.0
C1096 C 0.06606 0.60753 0.12518 0.0
C1097 C 0.05195 0.58508 0.07824 0.0
C1098 C 0.06618 0.58694 0.06301 0.0
C1099 C 0.08032 0.59903 0.07943 0.0
C1100 C 0.08028 0.60926 0.11011 0.0
C1101 C 0.06633 0.57621 0.03017 0.0
C1102 C 0.07402 0.56781 0.03935 0.0
C1103 C 0.0586 0.5739 0.99058 0.0
C1104 C 0.05101 0.58305 0.97805 0.0
C1105 C 0.05956 0.59951 0.97827 0.0
C1106 C 0.05231 0.60807 0.96672 0.0
C1107 C 0.03655 0.60029 0.95458 0.0
C1108 C 0.02802 0.58393 0.95385 0.0
C1109 C 0.0352 0.57532 0.96542 0.0
H1110 H 0.03096 0.60693 0.94563 0.0
H1111 H 0.1016 0.52393 0.05525 0.0
H1112 H 0.59633 0.61991 0.88989 0.0
H1113 H 0.57816 0.60165 0.9425 0.0
H1114 H 0.60194 0.57496 0.93747 0.0
H1115 H 0.62009 0.59306 0.8846 0.0
H1116 H 0.57038 0.55616 0.9349 0.0
H1117 H 0.60785 0.59889 0.02032 0.0
H1118 H 0.62375 0.62649 0.04248 0.0
H1119 H 0.5819 0.62842 0.06706 0.0
H1120 H 0.56574 0.60087 0.04446 0.0
H1121 H 0.53723 0.51098 0.12214 0.0
H1122 H 0.55535 0.52889 0.0688 0.0
H1123 H 0.53189 0.55591 0.07276 0.0
H1124 H 0.51381 0.53817 0.12628 0.0
H1125 H 0.56343 0.57447 0.07597 0.0
H1126 H 0.52596 0.5317 0.99036 0.0
H1127 H 0.51009 0.50408 0.96835 0.0
H1128 H 0.552 0.50218 0.94432 0.0
H1129 H 0.56812 0.52975 0.96677 0.0
C1130 C 0.59774 0.61019 0.90007 0.0
C1131 C 0.60971 0.60799 0.88324 0.0
C1132 C 0.58736 0.59979 0.9302 0.0
C1133 C 0.58881 0.58704 0.94416 0.0
C1134 C 0.60064 0.58473 0.92713 0.0
C1135 C 0.61103 0.59513 0.89705 0.0
C1136 C 0.57791 0.57607 0.97638 0.0
C1137 C 0.569 0.56012 0.96597 0.0
C1138 C 0.5759 0.58131 0.01654 0.0
C1139 C 0.58559 0.59786 0.03028 0.0
C1140 C 0.60204 0.60524 0.03011 0.0
C1141 C 0.6111 0.62087 0.04281 0.0
C1142 C 0.60384 0.62922 0.05606 0.0
C1143 C 0.5875 0.62194 0.05674 0.0
C1144 C 0.57839 0.60632 0.04401 0.0
C1145 C 0.53587 0.52069 0.11152 0.0
C1146 C 0.52404 0.52312 0.12833 0.0
C1147 C 0.54621 0.53088 0.08098 0.0
C1148 C 0.54487 0.54364 0.0666 0.0
C1149 C 0.53312 0.54612 0.08344 0.0
C1150 C 0.52276 0.53594 0.11391 0.0
C1151 C 0.55586 0.55456 0.03445 0.0
C1152 C 0.5648 0.5705 0.0449 0.0
C1153 C 0.5579 0.5493 0.99435 0.0
C1154 C 0.54824 0.53274 0.98067 0.0
C1155 C 0.53179 0.52536 0.98072 0.0
C1156 C 0.52275 0.50971 0.9681 0.0
C1157 C 0.53003 0.50136 0.95506 0.0
C1158 C 0.54637 0.50865 0.95449 0.0
C1159 C 0.55547 0.52429 0.96713 0.0
H1160 H 0.52301 0.48925 0.9453 0.0
H1161 H 0.61088 0.64132 0.06589 0.0
H1162 H 0.62095 0.09224 0.11625 0.0
H1163 H 0.60243 0.09196 0.0638 0.0
H1164 H 0.58055 0.04171 0.05406 0.0
H1165 H 0.59881 0.04184 0.10691 0.0
H1166 H 0.59632 0.08258 0.98218 0.0
H1167 H 0.54143 0.02598 0.03941 0.0
H1168 H 0.53095 0.01096 0.10572 0.0
H1169 H 0.55744 0.05289 0.17931 0.0
H1170 H 0.56789 0.0682 0.11348 0.0
H1171 H 0.51442 0.03916 0.8725 0.0
H1172 H 0.53337 0.04005 0.92439 0.0
H1173 H 0.55434 0.09023 0.93319 0.0
H1174 H 0.53559 0.0895 0.88092 0.0
H1175 H 0.53908 0.04977 0.00599 0.0
H1176 H 0.59371 0.10645 0.94926 0.0
H1177 H 0.60426 0.12161 0.88319 0.0
H1178 H 0.5783 0.07974 0.809 0.0
H1179 H 0.56779 0.06429 0.87461 0.0
C1180 C 0.61223 0.08113 0.10283 0.0
C1181 C 0.6113 0.06705 0.11592 0.0
C1182 C 0.60168 0.081 0.07281 0.0
C1183 C 0.58998 0.0668 0.05543 0.0
C1184 C 0.5893 0.05278 0.06762 0.0
C1185 C 0.59979 0.05288 0.09774 0.0
C1186 C 0.57837 0.06661 0.0249 0.0
C1187 C 0.58381 0.07557 0.98765 0.0
C1188 C 0.56204 0.05723 0.03167 0.0
C1189 C 0.55556 0.0482 0.07148 0.0
C1190 C 0.54496 0.03201 0.06974 0.0
C1191 C 0.53903 0.02344 0.10725 0.0
C1192 C 0.54357 0.03096 0.14671 0.0
C1193 C 0.55398 0.04708 0.14874 0.0
C1194 C 0.55992 0.0557 0.11133 0.0
C1195 C 0.52305 0.05039 0.8855 0.0
C1196 C 0.52353 0.06427 0.87247 0.0
C1197 C 0.53385 0.05087 0.91522 0.0
C1198 C 0.54537 0.06521 0.93233 0.0
C1199 C 0.54571 0.07906 0.91989 0.0
C1200 C 0.53495 0.0786 0.89011 0.0
C1201 C 0.55702 0.06568 0.96318 0.0
C1202 C 0.55159 0.05678 0.00053 0.0
C1203 C 0.57335 0.07514 0.95654 0.0
C1204 C 0.57984 0.08426 0.91686 0.0
C1205 C 0.59031 0.10047 0.91885 0.0
C1206 C 0.59628 0.10912 0.88148 0.0
C1207 C 0.59191 0.10165 0.84192 0.0
C1208 C 0.58163 0.08551 0.83965 0.0
C1209 C 0.57565 0.07681 0.87692 0.0
H1210 H 0.59653 0.10837 0.81303 0.0
H1211 H 0.539 0.0243 0.1757 0.0
H1212 H 0.61782 0.09205 0.36832 0.0
H1213 H 0.59963 0.09171 0.4214 0.0
H1214 H 0.57924 0.04171 0.43463 0.0
H1215 H 0.59722 0.04189 0.38073 0.0
H1216 H 0.55702 0.0497 0.4308 0.0
H1217 H 0.60477 0.06709 0.5093 0.0
H1218 H 0.63302 0.08379 0.52386 0.0
H1219 H 0.62747 0.12424 0.53141 0.0
H1220 H 0.59921 0.1078 0.5163 0.0
H1221 H 0.51567 0.04058 0.62149 0.0
H1222 H 0.53402 0.04135 0.56835 0.0
H1223 H 0.55379 0.09129 0.55603 0.0
H1224 H 0.53562 0.09069 0.61006 0.0
H1225 H 0.57632 0.08357 0.55909 0.0
H1226 H 0.52848 0.06607 0.48107 0.0
H1227 H 0.50022 0.04929 0.46676 0.0
H1228 H 0.50596 0.00897 0.45847 0.0
H1229 H 0.53422 0.02548 0.47333 0.0
C1230 C 0.60949 0.08097 0.38253 0.0
C1231 C 0.60903 0.067 0.37049 0.0
C1232 C 0.59914 0.08081 0.41301 0.0
C1233 C 0.58824 0.06672 0.43244 0.0
C1234 C 0.5876 0.05272 0.42011 0.0
C1235 C 0.59791 0.05286 0.38941 0.0
C1236 C 0.57742 0.0666 0.46537 0.0
C1237 C 0.56124 0.05695 0.45914 0.0
C1238 C 0.58294 0.07635 0.50181 0.0
C1239 C 0.5999 0.08623 0.51128 0.0
C1240 C 0.6096 0.07956 0.51377 0.0
C1241 C 0.6256 0.08898 0.52216 0.0
C1242 C 0.63204 0.10507 0.52845 0.0
C1243 C 0.62247 0.11177 0.52649 0.0
C1244 C 0.60645 0.10241 0.51805 0.0
C1245 C 0.52389 0.05175 0.60748 0.0
C1246 C 0.5241 0.06557 0.61977 0.0
C1247 C 0.53434 0.05215 0.57698 0.0
C1248 C 0.5451 0.06634 0.55773 0.0
C1249 C 0.54553 0.08021 0.57038 0.0
C1250 C 0.53511 0.07983 0.60114 0.0
C1251 C 0.55592 0.06665 0.52455 0.0
C1252 C 0.5721 0.07634 0.53072 0.0
C1253 C 0.55041 0.05693 0.48806 0.0
C1254 C 0.53344 0.047 0.47867 0.0
C1255 C 0.52369 0.05361 0.47647 0.0
C1256 C 0.50768 0.04415 0.46822 0.0
C1257 C 0.50129 0.02807 0.4618 0.0
C1258 C 0.51092 0.02143 0.46349 0.0
C1259 C 0.52694 0.03083 0.47178 0.0
H1260 H 0.48889 0.02077 0.45544 0.0
H1261 H 0.64444 0.11234 0.53493 0.0
H1262 H 0.09185 0.61852 0.37952 0.0
H1263 H 0.09156 0.60008 0.43219 0.0
H1264 H 0.04146 0.57926 0.4444 0.0
H1265 H 0.04159 0.59739 0.39149 0.0
H1266 H 0.0825 0.59443 0.51463 0.0
H1267 H 0.02506 0.54014 0.4584 0.0
H1268 H 0.00964 0.52978 0.3924 0.0
H1269 H 0.05138 0.55537 0.31793 0.0
H1270 H 0.06708 0.56567 0.38346 0.0
H1271 H 0.03875 0.51284 0.62506 0.0
H1272 H 0.03942 0.53171 0.57334 0.0
H1273 H 0.08952 0.55223 0.56224 0.0
H1274 H 0.08902 0.53364 0.61423 0.0
H1275 H 0.04866 0.53726 0.49125 0.0
H1276 H 0.10614 0.59146 0.54736 0.0
H1277 H 0.12158 0.60189 0.61329 0.0
H1278 H 0.07985 0.57651 0.68791 0.0
H1279 H 0.06413 0.56612 0.62246 0.0
C1280 C 0.08079 0.61005 0.39356 0.0
C1281 C 0.06673 0.60935 0.38113 0.0
C1282 C 0.08064 0.59955 0.42368 0.0
C1283 C 0.06646 0.58816 0.44173 0.0
C1284 C 0.0525 0.58775 0.43027 0.0
C1285 C 0.05261 0.59817 0.4001 0.0
C1286 C 0.06618 0.57653 0.47214 0.0
C1287 C 0.07528 0.58193 0.50927 0.0
C1288 C 0.05648 0.56023 0.46551 0.0
C1289 C 0.04721 0.55379 0.42587 0.0
C1290 C 0.03095 0.54348 0.42795 0.0
C1291 C 0.02217 0.53763 0.39062 0.0
C1292 C 0.02952 0.54196 0.351 0.0
C1293 C 0.04569 0.55207 0.34863 0.0
C1294 C 0.05454 0.55793 0.38586 0.0
C1295 C 0.04991 0.52136 0.61156 0.0
C1296 C 0.06384 0.52178 0.6239 0.0
C1297 C 0.05026 0.53211 0.58197 0.0
C1298 C 0.06454 0.54349 0.56436 0.0
C1299 C 0.07841 0.54373 0.576 0.0
C1300 C 0.07808 0.53304 0.60563 0.0
C1301 C 0.06496 0.55515 0.53382 0.0
C1302 C 0.05589 0.54976 0.49663 0.0
C1303 C 0.0747 0.57146 0.54039 0.0
C1304 C 0.08399 0.57789 0.57998 0.0
C1305 C 0.10025 0.58817 0.57783 0.0
C1306 C 0.10905 0.59406 0.61512 0.0
C1307 C 0.10171 0.58982 0.65476 0.0
C1308 C 0.08553 0.57974 0.65719 0.0
C1309 C 0.07667 0.57383 0.62001 0.0
H1310 H 0.10855 0.59438 0.68359 0.0
H1311 H 0.02269 0.53745 0.32214 0.0
H1312 H 0.62063 0.59558 0.6293 0.0
H1313 H 0.60279 0.5776 0.57548 0.0
H1314 H 0.5804 0.60551 0.56477 0.0
H1315 H 0.598 0.62339 0.6192 0.0
H1316 H 0.55913 0.57526 0.56895 0.0
H1317 H 0.60593 0.60661 0.48829 0.0
H1318 H 0.63412 0.61888 0.4722 0.0
H1319 H 0.63003 0.57352 0.46353 0.0
H1320 H 0.60184 0.56097 0.48015 0.0
H1321 H 0.51613 0.54025 0.38013 0.0
H1322 H 0.5344 0.55882 0.43228 0.0
H1323 H 0.55685 0.53102 0.44442 0.0
H1324 H 0.53882 0.51254 0.39171 0.0
H1325 H 0.57813 0.56139 0.43908 0.0
H1326 H 0.53143 0.53008 0.52043 0.0
H1327 H 0.50325 0.51778 0.53664 0.0
H1328 H 0.50719 0.5631 0.54407 0.0
H1329 H 0.53536 0.57567 0.52733 0.0
C1330 C 0.61198 0.59796 0.6153 0.0
C1331 C 0.61078 0.61096 0.62839 0.0
C1332 C 0.60181 0.58768 0.58445 0.0
C1333 C 0.59037 0.5903 0.56573 0.0
C1334 C 0.58915 0.60326 0.57877 0.0
C1335 C 0.59925 0.6135 0.60979 0.0
C1336 C 0.57947 0.57936 0.53317 0.0
C1337 C 0.56329 0.5724 0.54025 0.0
C1338 C 0.58489 0.57535 0.49622 0.0
C1339 C 0.60181 0.58286 0.48584 0.0
C1340 C 0.61106 0.59925 0.48324 0.0
C1341 C 0.62704 0.60626 0.47398 0.0
C1342 C 0.63387 0.59699 0.46696 0.0
C1343 C 0.62472 0.58069 0.46903 0.0
C1344 C 0.60875 0.57362 0.47832 0.0
C1345 C 0.52491 0.53805 0.39401 0.0
C1346 C 0.52596 0.52487 0.38197 0.0
C1347 C 0.53532 0.54866 0.42389 0.0
C1348 C 0.54687 0.5462 0.44264 0.0
C1349 C 0.54802 0.53313 0.43039 0.0
C1350 C 0.53767 0.52255 0.40036 0.0
C1351 C 0.5578 0.5573 0.47487 0.0
C1352 C 0.57398 0.56428 0.46775 0.0
C1353 C 0.55238 0.56134 0.51179 0.0
C1354 C 0.53547 0.55381 0.52224 0.0
C1355 C 0.52626 0.53742 0.52523 0.0
C1356 C 0.51029 0.5304 0.53456 0.0
C1357 C 0.50342 0.53965 0.54127 0.0
C1358 C 0.51252 0.55595 0.53881 0.0
C1359 C 0.52849 0.56303 0.52945 0.0
H1360 H 0.49105 0.53419 0.54846 0.0
H1361 H 0.64624 0.60243 0.45982 0.0
H1362 H 0.70881 0.84434 0.22452 0.0
H1363 H 0.70812 0.86202 0.27766 0.0
H1364 H 0.75808 0.8923 0.26559 0.0
H1365 H 0.75893 0.87448 0.21274 0.0
H1366 H 0.74922 0.8884 0.34777 0.0
H1367 H 0.73261 0.90153 0.21828 0.0
H1368 H 0.71657 0.89604 0.1534 0.0
H1369 H 0.67502 0.87864 0.22943 0.0
H1370 H 0.6908 0.88381 0.29477 0.0
H1371 H 0.7544 0.95445 0.45135 0.0
H1372 H 0.75515 0.93686 0.39802 0.0
H1373 H 0.7052 0.90647 0.40995 0.0
H1374 H 0.70428 0.9242 0.46298 0.0
H1375 H 0.7141 0.91048 0.32773 0.0
H1376 H 0.73073 0.89731 0.45721 0.0
H1377 H 0.7468 0.90281 0.52205 0.0
H1378 H 0.78834 0.92034 0.44594 0.0
H1379 H 0.77254 0.91516 0.38064 0.0
C1380 C 0.71967 0.85474 0.23315 0.0
C1381 C 0.73393 0.85803 0.21427 0.0
C1382 C 0.71924 0.86487 0.26345 0.0
C1383 C 0.73301 0.8786 0.27514 0.0
C1384 C 0.74731 0.88178 0.25694 0.0
C1385 C 0.74777 0.87161 0.22671 0.0
C1386 C 0.73244 0.88962 0.30628 0.0
C1387 C 0.74171 0.89341 0.34312 0.0
C1388 C 0.72236 0.89586 0.30064 0.0
C1389 C 0.71288 0.89293 0.26141 0.0
C1390 C 0.72004 0.89643 0.22116 0.0
C1391 C 0.711 0.89339 0.1843 0.0
C1392 C 0.69478 0.88696 0.18729 0.0
C1393 C 0.68758 0.88361 0.22716 0.0
C1394 C 0.69657 0.8866 0.26412 0.0
C1395 C 0.74355 0.94404 0.44266 0.0
C1396 C 0.72928 0.94069 0.46155 0.0
C1397 C 0.74402 0.93397 0.41224 0.0
C1398 C 0.73027 0.92024 0.40045 0.0
C1399 C 0.71596 0.91699 0.41867 0.0
C1400 C 0.71546 0.92712 0.44901 0.0
C1401 C 0.73087 0.90926 0.36923 0.0
C1402 C 0.72162 0.90548 0.33237 0.0
C1403 C 0.74096 0.90303 0.37484 0.0
C1404 C 0.75046 0.90597 0.41405 0.0
C1405 C 0.7433 0.90243 0.45431 0.0
C1406 C 0.75236 0.90548 0.49115 0.0
C1407 C 0.76858 0.91195 0.48812 0.0
C1408 C 0.77577 0.91534 0.44824 0.0
C1409 C 0.76677 0.91234 0.4113 0.0
H1410 H 0.77557 0.91432 0.51668 0.0
H1411 H 0.6878 0.88461 0.15872 0.0
H1412 H 0.20308 0.84542 0.45325 0.0
H1413 H 0.22178 0.86287 0.40015 0.0
H1414 H 0.1957 0.88712 0.3879 0.0
H1415 H 0.17689 0.86969 0.44056 0.0
H1416 H 0.20445 0.88139 0.31063 0.0
H1417 H 0.22848 0.90276 0.44612 0.0
H1418 H 0.23814 0.90177 0.51784 0.0
H1419 H 0.27057 0.8895 0.46382 0.0
H1420 H 0.26093 0.89019 0.39176 0.0
H1421 H 0.26079 0.951 0.21002 0.0
H1422 H 0.24246 0.93247 0.26185 0.0
H1423 H 0.27004 0.90966 0.26932 0.0
H1424 H 0.28853 0.92822 0.21774 0.0
H1425 H 0.26076 0.91393 0.34803 0.0
H1426 H 0.23725 0.89329 0.21228 0.0
H1427 H 0.22767 0.89442 0.14058 0.0
H1428 H 0.19429 0.90531 0.19494 0.0
H1429 H 0.20384 0.90449 0.26699 0.0
C1430 C 0.20127 0.85441 0.43909 0.0
C1431 C 0.18852 0.8562 0.4512 0.0
C1432 C 0.212 0.8644 0.40889 0.0
C1433 C 0.21018 0.87636 0.3904 0.0
C1434 C 0.1973 0.87796 0.4018 0.0
C1435 C 0.1866 0.86802 0.43204 0.0
C1436 C 0.22185 0.88742 0.3597 0.0
C1437 C 0.21673 0.88863 0.31892 0.0
C1438 C 0.23792 0.89659 0.37032 0.0
C1439 C 0.24387 0.89637 0.41358 0.0
C1440 C 0.23759 0.89974 0.44955 0.0
C1441 C 0.24307 0.89925 0.49026 0.0
C1442 C 0.25493 0.89553 0.49539 0.0
C1443 C 0.26137 0.89235 0.4598 0.0
C1444 C 0.25591 0.8928 0.41901 0.0
C1445 C 0.26301 0.9421 0.22281 0.0
C1446 C 0.27609 0.94105 0.20967 0.0
C1447 C 0.25249 0.93148 0.25229 0.0
C1448 C 0.25482 0.9196 0.26905 0.0
C1449 C 0.26803 0.91873 0.25669 0.0
C1450 C 0.27854 0.92931 0.22711 0.0
C1451 C 0.24334 0.90797 0.29905 0.0
C1452 C 0.24849 0.90665 0.33968 0.0
C1453 C 0.2273 0.89869 0.28829 0.0
C1454 C 0.22136 0.89896 0.24503 0.0
C1455 C 0.22794 0.89603 0.20894 0.0
C1456 C 0.22251 0.89661 0.16824 0.0
C1457 C 0.21041 0.89998 0.1632 0.0
C1458 C 0.20368 0.90272 0.19889 0.0
C1459 C 0.20909 0.90219 0.23968 0.0
H1460 H 0.20623 0.90043 0.13165 0.0
H1461 H 0.25915 0.89515 0.52694 0.0
H1462 H 0.28485 0.42462 0.46142 0.0
H1463 H 0.26664 0.42479 0.40864 0.0
H1464 H 0.24692 0.37513 0.38928 0.0
H1465 H 0.26512 0.37485 0.44174 0.0
H1466 H 0.25198 0.39083 0.31405 0.0
H1467 H 0.22781 0.38815 0.44851 0.0
H1468 H 0.22671 0.39654 0.52173 0.0
H1469 H 0.23522 0.44105 0.47522 0.0
H1470 H 0.23662 0.43301 0.40172 0.0
H1471 H 0.18207 0.37455 0.20703 0.0
H1472 H 0.20037 0.37492 0.2603 0.0
H1473 H 0.21988 0.42469 0.27658 0.0
H1474 H 0.20156 0.42443 0.22349 0.0
H1475 H 0.21513 0.4093 0.35316 0.0
H1476 H 0.23907 0.41179 0.21846 0.0
H1477 H 0.23991 0.4032 0.14531 0.0
H1478 H 0.23164 0.35885 0.19245 0.0
H1479 H 0.2305 0.36709 0.26589 0.0
C1480 C 0.27669 0.41375 0.4458 0.0
C1481 C 0.27641 0.39972 0.45583 0.0
C1482 C 0.26625 0.41386 0.41578 0.0
C1483 C 0.25535 0.39995 0.39532 0.0
C1484 C 0.25524 0.38599 0.40472 0.0
C1485 C 0.26561 0.38585 0.43483 0.0
C1486 C 0.24393 0.39989 0.36438 0.0
C1487 C 0.2438 0.39469 0.32272 0.0
C1488 C 0.23348 0.40523 0.37553 0.0
C1489 C 0.23249 0.41004 0.41964 0.0
C1490 C 0.22957 0.39978 0.45392 0.0
C1491 C 0.22888 0.40446 0.49547 0.0
C1492 C 0.23095 0.41934 0.50314 0.0
C1493 C 0.23366 0.42954 0.46923 0.0
C1494 C 0.23439 0.42492 0.42762 0.0
C1495 C 0.19019 0.38557 0.22208 0.0
C1496 C 0.1904 0.39947 0.21093 0.0
C1497 C 0.20068 0.38576 0.2524 0.0
C1498 C 0.21157 0.39986 0.27209 0.0
C1499 C 0.21157 0.41369 0.26172 0.0
C1500 C 0.20114 0.41353 0.23126 0.0
C1501 C 0.22316 0.40021 0.30289 0.0
C1502 C 0.22333 0.40546 0.34449 0.0
C1503 C 0.23364 0.39491 0.29172 0.0
C1504 C 0.23455 0.39 0.24765 0.0
C1505 C 0.23732 0.40016 0.21321 0.0
C1506 C 0.23786 0.39536 0.17169 0.0
C1507 C 0.23578 0.38047 0.16422 0.0
C1508 C 0.23322 0.37037 0.19828 0.0
C1509 C 0.23264 0.3751 0.23987 0.0
H1510 H 0.23619 0.37677 0.13204 0.0
H1511 H 0.23041 0.42294 0.53533 0.0
H1512 H 0.17674 0.37524 0.94091 0.0
H1513 H 0.19456 0.3751 0.88757 0.0
H1514 H 0.22505 0.42481 0.90471 0.0
H1515 H 0.20703 0.42513 0.9579 0.0
H1516 H 0.22177 0.41656 0.82125 0.0
H1517 H 0.23371 0.39904 0.95098 0.0
H1518 H 0.22743 0.38263 0.01518 0.0
H1519 H 0.21013 0.34146 0.93727 0.0
H1520 H 0.21608 0.3576 0.87258 0.0
H1521 H 0.28835 0.42176 0.72251 0.0
H1522 H 0.27036 0.42218 0.77481 0.0
H1523 H 0.23968 0.37248 0.75828 0.0
H1524 H 0.25784 0.37187 0.70613 0.0
H1525 H 0.24314 0.38085 0.84151 0.0
H1526 H 0.2312 0.39842 0.71174 0.0
H1527 H 0.23744 0.41485 0.64761 0.0
H1528 H 0.2548 0.45599 0.72569 0.0
H1529 H 0.24888 0.43982 0.79031 0.0
C1530 C 0.18721 0.38618 0.93333 0.0
C1531 C 0.19055 0.40019 0.95387 0.0
C1532 C 0.1974 0.38606 0.90288 0.0
C1533 C 0.21126 0.39989 0.89275 0.0
C1534 C 0.21443 0.414 0.91224 0.0
C1535 C 0.20415 0.41416 0.94262 0.0
C1536 C 0.22251 0.39947 0.86232 0.0
C1537 C 0.22662 0.40892 0.82594 0.0
C1538 C 0.22854 0.38923 0.86807 0.0
C1539 C 0.22523 0.37952 0.90693 0.0
C1540 C 0.22848 0.38648 0.94754 0.0
C1541 C 0.22499 0.37723 0.98402 0.0
C1542 C 0.21836 0.36101 0.98031 0.0
C1543 C 0.21526 0.35402 0.94009 0.0
C1544 C 0.2187 0.36322 0.9035 0.0
C1545 C 0.2778 0.41088 0.72995 0.0
C1546 C 0.27447 0.39678 0.70998 0.0
C1547 C 0.2675 0.41117 0.75979 0.0
C1548 C 0.25357 0.39742 0.76992 0.0
C1549 C 0.25035 0.38324 0.75076 0.0
C1550 C 0.26072 0.38291 0.72097 0.0
C1551 C 0.24238 0.39792 0.80038 0.0
C1552 C 0.23829 0.38848 0.8368 0.0
C1553 C 0.23637 0.40819 0.79468 0.0
C1554 C 0.23972 0.41791 0.75586 0.0
C1555 C 0.23644 0.41098 0.71523 0.0
C1556 C 0.23991 0.42025 0.67879 0.0
C1557 C 0.24654 0.43646 0.68257 0.0
C1558 C 0.24967 0.44343 0.72281 0.0
C1559 C 0.24625 0.43422 0.75936 0.0
H1560 H 0.24923 0.44361 0.65432 0.0
H1561 H 0.21564 0.35387 0.00859 0.0
H1562 H 0.7579 0.86931 0.94799 0.0
H1563 H 0.75713 0.88707 0.8953 0.0
H1564 H 0.70691 0.86453 0.90834 0.0
H1565 H 0.70753 0.84648 0.96073 0.0
H1566 H 0.71562 0.87032 0.82589 0.0
H1567 H 0.73067 0.89936 0.95674 0.0
H1568 H 0.74655 0.91027 0.02173 0.0
H1569 H 0.7877 0.93694 0.94583 0.0
H1570 H 0.7721 0.926 0.88036 0.0
H1571 H 0.70547 0.92894 0.7268 0.0
H1572 H 0.70616 0.91099 0.77899 0.0
H1573 H 0.75639 0.93354 0.76626 0.0
H1574 H 0.75585 0.95177 0.71437 0.0
H1575 H 0.74764 0.92772 0.84853 0.0
H1576 H 0.73255 0.89867 0.71763 0.0
H1577 H 0.71664 0.88773 0.65271 0.0
H1578 H 0.67553 0.86107 0.72877 0.0
H1579 H 0.69116 0.87204 0.79417 0.0
C1580 C 0.74667 0.86808 0.93961 0.0
C1581 C 0.73277 0.85652 0.95869 0.0
C1582 C 0.74627 0.87829 0.90957 0.0
C1583 C 0.732 0.87728 0.89837 0.0
C1584 C 0.71806 0.86553 0.91662 0.0
C1585 C 0.71844 0.85525 0.94659 0.0
C1586 C 0.73168 0.8886 0.86794 0.0
C1587 C 0.72246 0.88286 0.8311 0.0
C1588 C 0.74087 0.90498 0.87433 0.0
C1589 C 0.75024 0.91175 0.91365 0.0
C1590 C 0.74312 0.90748 0.95391 0.0
C1591 C 0.75207 0.91367 0.99083 0.0
C1592 C 0.76813 0.92426 0.98791 0.0
C1593 C 0.77526 0.92872 0.94805 0.0
C1594 C 0.76637 0.92254 0.91102 0.0
C1595 C 0.71669 0.93012 0.73512 0.0
C1596 C 0.73061 0.94175 0.71632 0.0
C1597 C 0.71705 0.91981 0.76486 0.0
C1598 C 0.7313 0.92078 0.77605 0.0
C1599 C 0.74526 0.93257 0.75798 0.0
C1600 C 0.74493 0.94296 0.72831 0.0
C1601 C 0.7316 0.90944 0.80645 0.0
C1602 C 0.74081 0.91518 0.84331 0.0
C1603 C 0.72239 0.89306 0.80008 0.0
C1604 C 0.71301 0.88629 0.7608 0.0
C1605 C 0.7201 0.89055 0.72051 0.0
C1606 C 0.71113 0.88434 0.68362 0.0
C1607 C 0.69508 0.87374 0.68661 0.0
C1608 C 0.68796 0.8693 0.7265 0.0
C1609 C 0.69688 0.8755 0.7635 0.0
H1610 H 0.68815 0.86895 0.65801 0.0
H1611 H 0.77504 0.92903 0.01654 0.0
H1612 H 0.25942 0.95082 0.95731 0.0
H1613 H 0.24116 0.93287 0.90423 0.0
H1614 H 0.2687 0.91011 0.89354 0.0
H1615 H 0.28715 0.92812 0.94657 0.0
H1616 H 0.25992 0.91561 0.81563 0.0
H1617 H 0.23533 0.89289 0.94821 0.0
H1618 H 0.22515 0.8927 0.01994 0.0
H1619 H 0.19229 0.90468 0.96714 0.0
H1620 H 0.20245 0.90518 0.89511 0.0
H1621 H 0.20329 0.84775 0.70627 0.0
H1622 H 0.22155 0.86535 0.75997 0.0
H1623 H 0.19498 0.88916 0.76956 0.0
H1624 H 0.17657 0.87155 0.7158 0.0
H1625 H 0.20329 0.88288 0.84829 0.0
H1626 H 0.2282 0.90573 0.71552 0.0
H1627 H 0.23842 0.90571 0.64398 0.0
H1628 H 0.27074 0.89316 0.6976 0.0
H1629 H 0.26053 0.89286 0.76944 0.0
C1630 C 0.26163 0.94201 0.9437 0.0
C1631 C 0.27474 0.94088 0.95625 0.0
C1632 C 0.25114 0.93172 0.91345 0.0
C1633 C 0.25349 0.92006 0.89525 0.0
C1634 C 0.26667 0.91902 0.90725 0.0
C1635 C 0.27717 0.92929 0.93763 0.0
C1636 C 0.24217 0.90897 0.8637 0.0
C1637 C 0.24758 0.90828 0.82294 0.0
C1638 C 0.22601 0.89967 0.87304 0.0
C1639 C 0.21976 0.89922 0.91628 0.0
C1640 C 0.22601 0.8956 0.95191 0.0
C1641 C 0.22024 0.89542 0.99263 0.0
C1642 C 0.20811 0.89871 0.99811 0.0
C1643 C 0.2017 0.90215 0.96286 0.0
C1644 C 0.20745 0.90237 0.92206 0.0
C1645 C 0.20129 0.85671 0.71978 0.0
C1646 C 0.18848 0.85827 0.70667 0.0
C1647 C 0.21178 0.86679 0.7504 0.0
C1648 C 0.20969 0.87863 0.76847 0.0
C1649 C 0.1968 0.88009 0.75596 0.0
C1650 C 0.18632 0.87005 0.72515 0.0
C1651 C 0.22104 0.88955 0.80022 0.0
C1652 C 0.21564 0.8902 0.84102 0.0
C1653 C 0.23721 0.89879 0.79095 0.0
C1654 C 0.24349 0.89912 0.74783 0.0
C1655 C 0.2374 0.90285 0.71203 0.0
C1656 C 0.2432 0.90291 0.67143 0.0
C1657 C 0.25519 0.89939 0.66623 0.0
C1658 C 0.26143 0.89586 0.70166 0.0
C1659 C 0.25565 0.89575 0.74234 0.0
H1660 H 0.25966 0.89944 0.63477 0.0
H1661 H 0.20366 0.89857 0.02967 0.0
H1662 H 0.37665 0.26577 0.77972 0.0
H1663 H 0.37593 0.24723 0.72676 0.0
H1664 H 0.42608 0.26776 0.73684 0.0
H1665 H 0.42697 0.28651 0.78908 0.0
H1666 H 0.4168 0.26209 0.65533 0.0
H1667 H 0.40131 0.2336 0.78723 0.0
H1668 H 0.38537 0.22349 0.85222 0.0
H1669 H 0.34388 0.1978 0.77625 0.0
H1670 H 0.35954 0.20796 0.71078 0.0
H1671 H 0.42422 0.20155 0.55644 0.0
H1672 H 0.42471 0.22019 0.60861 0.0
H1673 H 0.37446 0.19886 0.59911 0.0
H1674 H 0.37381 0.17997 0.54776 0.0
H1675 H 0.3836 0.20497 0.67999 0.0
H1676 H 0.39905 0.23326 0.54806 0.0
H1677 H 0.41493 0.24339 0.48299 0.0
H1678 H 0.45641 0.26948 0.55873 0.0
H1679 H 0.44081 0.25931 0.62429 0.0
C1680 C 0.38754 0.26638 0.77053 0.0
C1681 C 0.40186 0.27758 0.78873 0.0
C1682 C 0.3871 0.25574 0.74038 0.0
C1683 C 0.40094 0.256 0.72825 0.0
C1684 C 0.41527 0.26735 0.74575 0.0
C1685 C 0.41573 0.27803 0.77573 0.0
C1686 C 0.4005 0.24428 0.69784 0.0
C1687 C 0.40968 0.2496 0.66094 0.0
C1688 C 0.39097 0.22799 0.70479 0.0
C1689 C 0.38158 0.22165 0.74411 0.0
C1690 C 0.38877 0.22587 0.78439 0.0
C1691 C 0.37979 0.22013 0.82131 0.0
C1692 C 0.36362 0.21004 0.81837 0.0
C1693 C 0.3564 0.20563 0.77848 0.0
C1694 C 0.36533 0.21137 0.74146 0.0
C1695 C 0.41327 0.20079 0.56557 0.0
C1696 C 0.39899 0.1893 0.54786 0.0
C1697 C 0.41357 0.21149 0.59525 0.0
C1698 C 0.39963 0.21105 0.60733 0.0
C1699 C 0.38535 0.19943 0.59023 0.0
C1700 C 0.38502 0.18867 0.56078 0.0
C1701 C 0.39992 0.22277 0.63747 0.0
C1702 C 0.39071 0.21746 0.67433 0.0
C1703 C 0.40942 0.23907 0.63046 0.0
C1704 C 0.41878 0.24541 0.59108 0.0
C1705 C 0.41157 0.24108 0.55084 0.0
C1706 C 0.42052 0.24684 0.51387 0.0
C1707 C 0.43667 0.25704 0.51673 0.0
C1708 C 0.4439 0.26156 0.55657 0.0
C1709 C 0.43501 0.25582 0.59365 0.0
H1710 H 0.44358 0.26147 0.48807 0.0
H1711 H 0.35668 0.20562 0.84699 0.0
H1712 H 0.85409 0.17492 0.73792 0.0
H1713 H 0.873 0.19413 0.68824 0.0
H1714 H 0.87805 0.23162 0.77011 0.0
H1715 H 0.85824 0.21246 0.81778 0.0
H1716 H 0.87901 0.24077 0.69702 0.0
H1717 H 0.90571 0.21811 0.76471 0.0
H1718 H 0.91001 0.19701 0.79109 0.0
H1719 H 0.91004 0.18199 0.66283 0.0
H1720 H 0.90543 0.20282 0.63569 0.0
H1721 H 0.96053 0.2767 0.57804 0.0
H1722 H 0.94287 0.26051 0.63467 0.0
H1723 H 0.90375 0.25849 0.56654 0.0
H1724 H 0.92163 0.27575 0.51191 0.0
H1725 H 0.92169 0.23336 0.63943 0.0
H1726 H 0.87415 0.25227 0.62782 0.0
H1727 H 0.87291 0.27621 0.61328 0.0
H1728 H 0.92098 0.30457 0.65149 0.0
H1729 H 0.92245 0.28081 0.66687 0.0
C1730 C 0.85921 0.18728 0.74501 0.0
C1731 C 0.8548 0.19226 0.78154 0.0
C1732 C 0.8701 0.19825 0.71686 0.0
C1733 C 0.87727 0.21437 0.72582 0.0
C1734 C 0.87272 0.21929 0.76233 0.0
C1735 C 0.86144 0.20834 0.78966 0.0
C1736 C 0.88948 0.22609 0.6972 0.0
C1737 C 0.88839 0.23918 0.68461 0.0
C1738 C 0.90208 0.22438 0.68211 0.0
C1739 C 0.9051 0.21196 0.69818 0.0
C1740 C 0.90655 0.21025 0.74213 0.0
C1741 C 0.90904 0.19834 0.75723 0.0
C1742 C 0.91028 0.18815 0.72866 0.0
C1743 C 0.90906 0.18988 0.68492 0.0
C1744 C 0.90652 0.20175 0.66966 0.0
C1745 C 0.94817 0.27295 0.57569 0.0
C1746 C 0.94238 0.27753 0.54111 0.0
C1747 C 0.93807 0.26364 0.60786 0.0
C1748 C 0.92195 0.2584 0.60538 0.0
C1749 C 0.91617 0.26277 0.57013 0.0
C1750 C 0.92636 0.27253 0.53874 0.0
C1751 C 0.91112 0.24796 0.63881 0.0
C1752 C 0.91243 0.23507 0.6522 0.0
C1753 C 0.8993 0.25038 0.65667 0.0
C1754 C 0.89843 0.26474 0.64813 0.0
C1755 C 0.88443 0.26361 0.63334 0.0
C1756 C 0.88369 0.27715 0.62491 0.0
C1757 C 0.89687 0.2919 0.63134 0.0
C1758 C 0.9108 0.29314 0.64639 0.0
C1759 C 0.91159 0.27964 0.65494 0.0
H1760 H 0.89628 0.30236 0.62473 0.0
H1761 H 0.9122 0.17893 0.7404 0.0
H1762 H 0.92906 0.70821 0.78452 0.0
H1763 H 0.91152 0.70845 0.72996 0.0
H1764 H 0.93362 0.75869 0.74102 0.0
H1765 H 0.95145 0.75859 0.79512 0.0
H1766 H 0.89011 0.71731 0.73283 0.0
H1767 H 0.93291 0.77414 0.64455 0.0
H1768 H 0.96123 0.79013 0.63003 0.0
H1769 H 0.96604 0.74933 0.6411 0.0
H1770 H 0.93773 0.73307 0.65509 0.0
H1771 H 0.86921 0.75678 0.54916 0.0
H1772 H 0.88743 0.75761 0.6034 0.0
H1773 H 0.86702 0.7075 0.59413 0.0
H1774 H 0.84862 0.70652 0.54034 0.0
H1775 H 0.90977 0.74947 0.60203 0.0
H1776 H 0.867 0.69273 0.69164 0.0
H1777 H 0.83873 0.67687 0.70688 0.0
H1778 H 0.83391 0.7176 0.69356 0.0
H1779 H 0.86218 0.73374 0.67883 0.0
C1780 C 0.93024 0.71933 0.7753 0.0
C1781 C 0.94172 0.7334 0.79399 0.0
C1782 C 0.92016 0.71943 0.74417 0.0
C1783 C 0.92136 0.73359 0.73107 0.0
C1784 C 0.93267 0.74765 0.75008 0.0
C1785 C 0.94282 0.74757 0.78109 0.0
C1786 C 0.91063 0.73355 0.69779 0.0
C1787 C 0.89442 0.72419 0.70398 0.0
C1788 C 0.91624 0.74284 0.66064 0.0
C1789 C 0.93323 0.75243 0.65132 0.0
C1790 C 0.94 0.76857 0.64369 0.0
C1791 C 0.95606 0.77768 0.63559 0.0
C1792 C 0.96544 0.77076 0.6348 0.0
C1793 C 0.95878 0.75469 0.64188 0.0
C1794 C 0.94273 0.74553 0.64995 0.0
C1795 C 0.86858 0.74593 0.55867 0.0
C1796 C 0.85737 0.73156 0.54069 0.0
C1797 C 0.87905 0.74644 0.58958 0.0
C1798 C 0.87847 0.73261 0.60319 0.0
C1799 C 0.8675 0.71829 0.58465 0.0
C1800 C 0.857 0.71775 0.55383 0.0
C1801 C 0.88926 0.73313 0.63696 0.0
C1802 C 0.90548 0.7426 0.6309 0.0
C1803 C 0.88366 0.72395 0.67427 0.0
C1804 C 0.86668 0.7144 0.6837 0.0
C1805 C 0.85992 0.69831 0.69213 0.0
C1806 C 0.84389 0.68927 0.70066 0.0
C1807 C 0.83452 0.69621 0.70105 0.0
C1808 C 0.84117 0.71223 0.69308 0.0
C1809 C 0.85719 0.72132 0.68459 0.0
H1810 H 0.82212 0.68919 0.70761 0.0
H1811 H 0.97787 0.77784 0.62862 0.0
H1812 H 0.84307 0.70717 0.27609 0.0
H1813 H 0.86189 0.70813 0.22421 0.0
H1814 H 0.88915 0.75833 0.23814 0.0
H1815 H 0.87016 0.75752 0.28975 0.0
H1816 H 0.88686 0.74958 0.15555 0.0
H1817 H 0.90027 0.73494 0.28774 0.0
H1818 H 0.895 0.71926 0.35307 0.0
H1819 H 0.88105 0.67794 0.27802 0.0
H1820 H 0.88601 0.69332 0.2122 0.0
H1821 H 0.95542 0.75837 0.05735 0.0
H1822 H 0.9371 0.75842 0.10941 0.0
H1823 H 0.90879 0.70818 0.09899 0.0
H1824 H 0.92722 0.70797 0.0473 0.0
H1825 H 0.91212 0.71756 0.18072 0.0
H1826 H 0.89826 0.7321 0.04862 0.0
H1827 H 0.90338 0.74772 0.98324 0.0
H1828 H 0.91815 0.78924 0.05816 0.0
H1829 H 0.91335 0.7739 0.12402 0.0
C1830 C 0.85303 0.71844 0.26807 0.0
C1831 C 0.85518 0.73227 0.28724 0.0
C1832 C 0.86381 0.71896 0.23848 0.0
C1833 C 0.87705 0.73327 0.22786 0.0
C1834 C 0.87903 0.74716 0.24603 0.0
C1835 C 0.86818 0.74667 0.27553 0.0
C1836 C 0.88894 0.73365 0.1983 0.0
C1837 C 0.89256 0.74276 0.16133 0.0
C1838 C 0.89613 0.7245 0.20549 0.0
C1839 C 0.89339 0.71526 0.24503 0.0
C1840 C 0.89599 0.72249 0.28516 0.0
C1841 C 0.89306 0.71366 0.32228 0.0
C1842 C 0.88766 0.69761 0.3197 0.0
C1843 C 0.88523 0.69037 0.27997 0.0
C1844 C 0.88811 0.69914 0.24275 0.0
C1845 C 0.94532 0.74731 0.06618 0.0
C1846 C 0.94275 0.73316 0.04809 0.0
C1847 C 0.93483 0.74737 0.09584 0.0
C1848 C 0.92147 0.73332 0.10763 0.0
C1849 C 0.91902 0.71915 0.09026 0.0
C1850 C 0.92955 0.71906 0.0607 0.0
C1851 C 0.90999 0.73343 0.13785 0.0
C1852 C 0.90645 0.72441 0.17497 0.0
C1853 C 0.90288 0.74267 0.1308 0.0
C1854 C 0.90559 0.75188 0.09124 0.0
C1855 C 0.9027 0.74458 0.05115 0.0
C1856 C 0.90554 0.75338 0.01401 0.0
C1857 C 0.91113 0.76947 0.01654 0.0
C1858 C 0.91384 0.77678 0.05624 0.0
C1859 C 0.91106 0.76804 0.09349 0.0
H1860 H 0.91332 0.77626 0.98775 0.0
H1861 H 0.88539 0.69079 0.34847 0.0
H1862 H 0.37207 0.18102 0.29752 0.0
H1863 H 0.37243 0.19929 0.24429 0.0
H1864 H 0.4222 0.21857 0.22818 0.0
H1865 H 0.422 0.2006 0.28188 0.0
H1866 H 0.41541 0.24131 0.23286 0.0
H1867 H 0.39528 0.19298 0.15487 0.0
H1868 H 0.37728 0.16492 0.14099 0.0
H1869 H 0.33839 0.17308 0.13587 0.0
H1870 H 0.35614 0.20117 0.15029 0.0
H1871 H 0.4256 0.283 0.04112 0.0
H1872 H 0.42436 0.26452 0.09482 0.0
H1873 H 0.37464 0.24627 0.10809 0.0
H1874 H 0.37571 0.26449 0.05376 0.0
H1875 H 0.38089 0.22304 0.10566 0.0
H1876 H 0.40106 0.27144 0.18249 0.0
H1877 H 0.41906 0.2995 0.19631 0.0
H1878 H 0.45784 0.29122 0.20375 0.0
H1879 H 0.44009 0.26313 0.1894 0.0
C1880 C 0.38308 0.18911 0.28253 0.0
C1881 C 0.39699 0.18931 0.29381 0.0
C1882 C 0.38326 0.19952 0.25201 0.0
C1883 C 0.39732 0.21018 0.23185 0.0
C1884 C 0.41122 0.21045 0.24329 0.0
C1885 C 0.41107 0.20013 0.27393 0.0
C1886 C 0.39764 0.2212 0.19913 0.0
C1887 C 0.40799 0.23729 0.20478 0.0
C1888 C 0.3877 0.21601 0.163 0.0
C1889 C 0.37702 0.19915 0.15407 0.0
C1890 C 0.38288 0.18877 0.15109 0.0
C1891 C 0.37272 0.17287 0.14307 0.0
C1892 C 0.35669 0.16722 0.13766 0.0
C1893 C 0.3508 0.17747 0.14013 0.0
C1894 C 0.3609 0.19339 0.14818 0.0
C1895 C 0.4144 0.27509 0.05553 0.0
C1896 C 0.40077 0.27528 0.04334 0.0
C1897 C 0.41372 0.26455 0.08634 0.0
C1898 C 0.39944 0.25415 0.10595 0.0
C1899 C 0.38579 0.2542 0.09346 0.0
C1900 C 0.38643 0.26466 0.06247 0.0
C1901 C 0.39872 0.24313 0.13929 0.0
C1902 C 0.38828 0.22705 0.13378 0.0
C1903 C 0.40859 0.24833 0.17557 0.0
C1904 C 0.41926 0.2652 0.18449 0.0
C1905 C 0.41344 0.27562 0.18678 0.0
C1906 C 0.4236 0.29153 0.19476 0.0
C1907 C 0.43959 0.29714 0.2008 0.0
C1908 C 0.44545 0.28685 0.19901 0.0
C1909 C 0.43535 0.27093 0.19101 0.0
H1910 H 0.44743 0.30946 0.20696 0.0
H1911 H 0.34885 0.1549 0.13147 0.0
H1912 H 0.95358 0.25928 0.2833 0.0
H1913 H 0.93556 0.24075 0.23057 0.0
H1914 H 0.90934 0.26506 0.22951 0.0
H1915 H 0.92722 0.28359 0.28239 0.0
H1916 H 0.89019 0.23322 0.23257 0.0
H1917 H 0.93426 0.27066 0.15063 0.0
H1918 H 0.96231 0.28621 0.13263 0.0
H1919 H 0.96375 0.244 0.11024 0.0
H1920 H 0.93576 0.22818 0.12878 0.0
H1921 H 0.84665 0.20292 0.04282 0.0
H1922 H 0.86474 0.22022 0.09726 0.0
H1923 H 0.89023 0.19522 0.09199 0.0
H1924 H 0.87228 0.17792 0.03707 0.0
H1925 H 0.90985 0.22666 0.09322 0.0
H1926 H 0.86565 0.18914 0.1731 0.0
H1927 H 0.8376 0.17352 0.19101 0.0
H1928 H 0.83637 0.21562 0.21757 0.0
H1929 H 0.86437 0.23151 0.19914 0.0
C1930 C 0.944 0.26072 0.27181 0.0
C1931 C 0.9419 0.27298 0.28683 0.0
C1932 C 0.93372 0.25012 0.24165 0.0
C1933 C 0.9212 0.25162 0.2259 0.0
C1934 C 0.91894 0.26371 0.24127 0.0
C1935 C 0.92922 0.27432 0.27134 0.0
C1936 C 0.91053 0.24071 0.193 0.0
C1937 C 0.89445 0.2319 0.20192 0.0
C1938 C 0.91617 0.23875 0.15343 0.0
C1939 C 0.93294 0.24823 0.14152 0.0
C1940 C 0.94058 0.26469 0.14215 0.0
C1941 C 0.95647 0.27356 0.13182 0.0
C1942 C 0.96482 0.2661 0.12042 0.0
C1943 C 0.95728 0.24976 0.11915 0.0
C1944 C 0.9414 0.24084 0.12954 0.0
C1945 C 0.85606 0.20104 0.05331 0.0
C1946 C 0.85796 0.18896 0.03582 0.0
C1947 C 0.86638 0.21093 0.08449 0.0
C1948 C 0.87872 0.20889 0.09901 0.0
C1949 C 0.88076 0.19697 0.08127 0.0
C1950 C 0.87045 0.18706 0.05003 0.0
C1951 C 0.88949 0.21923 0.13268 0.0
C1952 C 0.90559 0.22792 0.12393 0.0
C1953 C 0.88386 0.22106 0.17244 0.0
C1954 C 0.86709 0.21153 0.18437 0.0
C1955 C 0.85938 0.19508 0.18251 0.0
C1956 C 0.84349 0.18617 0.19277 0.0
C1957 C 0.8352 0.19357 0.20531 0.0
C1958 C 0.84281 0.2099 0.20779 0.0
C1959 C 0.85869 0.21886 0.19748 0.0
H1960 H 0.82289 0.18666 0.21318 0.0
H1961 H 0.97712 0.27298 0.1125 0.0
H1962 H 0.06883 0.66743 0.3718 0.0
H1963 H 0.08089 0.69221 0.41076 0.0
H1964 H 0.11821 0.71247 0.31867 0.0
H1965 H 0.10641 0.68776 0.27974 0.0
H1966 H 0.12947 0.72069 0.39819 0.0
H1967 H 0.08877 0.72024 0.31376 0.0
H1968 H 0.06181 0.70914 0.28635 0.0
H1969 H 0.04522 0.70928 0.41247 0.0
H1970 H 0.07206 0.72016 0.44078 0.0
H1971 H 0.13427 0.80005 0.45382 0.0
H1972 H 0.12307 0.77585 0.41227 0.0
H1973 H 0.13263 0.7529 0.51521 0.0
H1974 H 0.14408 0.77702 0.55667 0.0
H1975 H 0.09863 0.74708 0.4253 0.0
H1976 H 0.14292 0.72749 0.4749 0.0
H1977 H 0.1705 0.73952 0.49797 0.0
H1978 H 0.18139 0.78174 0.43126 0.0
H1979 H 0.15395 0.76988 0.40721 0.0
C1980 C 0.07966 0.6771 0.35993 0.0
C1981 C 0.0866 0.67558 0.3225 0.0
C1982 C 0.0865 0.69128 0.38217 0.0
C1983 C 0.10035 0.70422 0.36732 0.0
C1984 C 0.10752 0.70263 0.33065 0.0
C1985 C 0.10071 0.68848 0.30838 0.0
C1986 C 0.10722 0.71952 0.38952 0.0
C1987 C 0.12273 0.72646 0.40418 0.0
C1988 C 0.09852 0.72719 0.39647 0.0
C1989 C 0.08241 0.72089 0.37944 0.0
C1990 C 0.07936 0.71781 0.33569 0.0
C1991 C 0.0641 0.71157 0.31999 0.0
C1992 C 0.05181 0.70847 0.34766 0.0
C1993 C 0.05476 0.71167 0.39108 0.0
C1994 C 0.06999 0.71788 0.40697 0.0
C1995 C 0.13404 0.78988 0.46764 0.0
C1996 C 0.14022 0.79056 0.5085 0.0
C1997 C 0.12756 0.77603 0.44388 0.0
C1998 C 0.12717 0.76264 0.46045 0.0
C1999 C 0.13304 0.76318 0.50151 0.0
C2000 C 0.13956 0.77701 0.52521 0.0
C2001 C 0.12079 0.7481 0.43473 0.0
C2002 C 0.10537 0.74131 0.41936 0.0
C2003 C 0.12969 0.74073 0.42633 0.0
C2004 C 0.14633 0.74783 0.4396 0.0
C2005 C 0.15122 0.7393 0.46494 0.0
C2006 C 0.16683 0.7461 0.47822 0.0
C2007 C 0.17768 0.76141 0.4662 0.0
C2008 C 0.17297 0.76991 0.44067 0.0
C2009 C 0.15738 0.76315 0.42722 0.0
H2010 H 0.18974 0.76666 0.47662 0.0
H2011 H 0.04 0.70362 0.33544 0.0
H2012 H 0.44655 0.48607 0.29186 0.0
H2013 H 0.4228 0.47433 0.33458 0.0
H2014 H 0.44396 0.45687 0.42297 0.0
H2015 H 0.46784 0.46845 0.38013 0.0
H2016 H 0.41432 0.43466 0.40305 0.0
H2017 H 0.44049 0.48784 0.44975 0.0
H2018 H 0.4543 0.51653 0.44128 0.0
H2019 H 0.41364 0.51339 0.38122 0.0
H2020 H 0.39966 0.48464 0.38876 0.0
H2021 H 0.35647 0.43727 0.56564 0.0
H2022 H 0.38146 0.45013 0.52842 0.0
H2023 H 0.36027 0.41938 0.42088 0.0
H2024 H 0.33521 0.40615 0.45821 0.0
H2025 H 0.39124 0.46609 0.45635 0.0
H2026 H 0.38659 0.41077 0.37794 0.0
H2027 H 0.37348 0.38233 0.39116 0.0
H2028 H 0.37317 0.39038 0.52535 0.0
H2029 H 0.3865 0.41886 0.513 0.0
C2030 C 0.44625 0.47981 0.32048 0.0
C2031 C 0.45918 0.47828 0.33262 0.0
C2032 C 0.43265 0.47313 0.34491 0.0
C2033 C 0.43168 0.46485 0.38211 0.0
C2034 C 0.4445 0.46323 0.39435 0.0
C2035 C 0.45816 0.46993 0.36992 0.0
C2036 C 0.41717 0.45774 0.40782 0.0
C2037 C 0.40929 0.44153 0.41481 0.0
C2038 C 0.41076 0.46677 0.4237 0.0
C2039 C 0.41907 0.48407 0.41952 0.0
C2040 C 0.43452 0.49326 0.43447 0.0
C2041 C 0.44238 0.50953 0.42987 0.0
C2042 C 0.43486 0.51677 0.41064 0.0
C2043 C 0.41945 0.50776 0.39608 0.0
C2044 C 0.41155 0.49148 0.40055 0.0
C2045 C 0.35705 0.43323 0.534 0.0
C2046 C 0.34382 0.42057 0.51505 0.0
C2047 C 0.37137 0.44066 0.51273 0.0
C2048 C 0.37277 0.43559 0.47214 0.0
C2049 C 0.35949 0.4233 0.45252 0.0
C2050 C 0.34516 0.41579 0.47385 0.0
C2051 C 0.38822 0.44296 0.45083 0.0
C2052 C 0.39628 0.45923 0.44466 0.0
C2053 C 0.39496 0.43403 0.43652 0.0
C2054 C 0.38742 0.41694 0.44445 0.0
C2055 C 0.38382 0.40647 0.41028 0.0
C2056 C 0.37633 0.39035 0.41762 0.0
C2057 C 0.37244 0.38455 0.45905 0.0
C2058 C 0.37614 0.39488 0.49326 0.0
C2059 C 0.38366 0.41101 0.4861 0.0
H2060 H 0.3666 0.37206 0.46465 0.0
H2061 H 0.44097 0.52937 0.40708 0.0
H2062 H 0.71797 0.98598 0.45732 0.0
H2063 H 0.70632 0.99877 0.41695 0.0
H2064 H 0.68317 0.0015 0.53037 0.0
H2065 H 0.69422 0.98811 0.57052 0.0
H2066 H 0.66434 0.99493 0.46623 0.0
H2067 H 0.71766 0.03293 0.49309 0.0
H2068 H 0.74619 0.04323 0.49422 0.0
H2069 H 0.74671 0.04148 0.3578 0.0
H2070 H 0.71811 0.03074 0.35582 0.0
H2071 H 0.65317 0.05693 0.38111 0.0
H2072 H 0.66419 0.04426 0.42545 0.0
H2073 H 0.67365 0.02532 0.31302 0.0
H2074 H 0.6623 0.03751 0.26868 0.0
H2075 H 0.69966 0.04156 0.38008 0.0
H2076 H 0.64505 0.0014 0.3575 0.0
H2077 H 0.61667 0.99181 0.35978 0.0
H2078 H 0.61947 0.99994 0.49459 0.0
H2079 H 0.64795 0.00987 0.49293 0.0
C2080 C 0.7103 0.98919 0.4736 0.0
C2081 C 0.70712 0.98615 0.5172 0.0
C2082 C 0.70371 0.99658 0.45054 0.0
C2083 C 0.69416 0.00143 0.47085 0.0
C2084 C 0.69055 0.99793 0.51405 0.0
C2085 C 0.69691 0.99029 0.53698 0.0
C2086 C 0.68825 0.01048 0.44727 0.0
C2087 C 0.67212 0.00524 0.4479 0.0
C2088 C 0.69839 0.02397 0.42331 0.0
C2089 C 0.71569 0.0309 0.42431 0.0
C2090 C 0.72384 0.03466 0.46331 0.0
C2091 C 0.74002 0.04057 0.46412 0.0
C2092 C 0.74825 0.04301 0.42612 0.0
C2093 C 0.74031 0.03957 0.38722 0.0
C2094 C 0.72411 0.03356 0.38622 0.0
C2095 C 0.65763 0.05009 0.3659 0.0
C2096 C 0.65681 0.04813 0.32148 0.0
C2097 C 0.66391 0.04289 0.3912 0.0
C2098 C 0.66972 0.03393 0.37232 0.0
C2099 C 0.66924 0.03225 0.32801 0.0
C2100 C 0.66267 0.03913 0.30282 0.0
C2101 C 0.67584 0.0258 0.39876 0.0
C2102 C 0.69199 0.03129 0.39871 0.0
C2103 C 0.6658 0.01274 0.42391 0.0
C2104 C 0.64865 0.00655 0.425 0.0
C2105 C 0.63964 0.00129 0.38755 0.0
C2106 C 0.62353 0.99576 0.38874 0.0
C2107 C 0.61627 0.99531 0.42729 0.0
C2108 C 0.62511 0.00033 0.46474 0.0
C2109 C 0.64123 0.0059 0.4637 0.0
H2110 H 0.6038 0.99103 0.42816 0.0
H2111 H 0.76078 0.04757 0.42683 0.0
H2112 H 0.6883 0.11005 0.21204 0.0
H2113 H 0.71293 0.12243 0.17285 0.0
H2114 H 0.69679 0.0806 0.09712 0.0
H2115 H 0.6719 0.06833 0.13502 0.0
H2116 H 0.73577 0.11643 0.16397 0.0
H2117 H 0.71092 0.08972 0.99793 0.0
H2118 H 0.6865 0.08022 0.95659 0.0
H2119 H 0.67498 0.11011 0.02856 0.0
H2120 H 0.69943 0.11995 0.06989 0.0
H2121 H 0.79812 0.13017 0.02233 0.0
H2122 H 0.77437 0.11842 0.06587 0.0
H2123 H 0.7588 0.14711 0.00284 0.0
H2124 H 0.7821 0.15854 0.95872 0.0
H2125 H 0.73588 0.1185 0.00626 0.0
H2126 H 0.77341 0.15494 0.10479 0.0
H2127 H 0.79803 0.16754 0.14604 0.0
H2128 H 0.78459 0.12405 0.20924 0.0
H2129 H 0.75998 0.11113 0.16791 0.0
C2130 C 0.68992 0.10351 0.18682 0.0
C2131 C 0.67802 0.08826 0.17632 0.0
C2132 C 0.70407 0.11057 0.16467 0.0
C2133 C 0.70666 0.10251 0.13178 0.0
C2134 C 0.69494 0.08717 0.12183 0.0
C2135 C 0.68071 0.08016 0.14357 0.0
C2136 C 0.72149 0.11026 0.10734 0.0
C2137 C 0.73581 0.11688 0.12948 0.0
C2138 C 0.72155 0.11111 0.0624 0.0
C2139 C 0.70693 0.10544 0.03728 0.0
C2140 C 0.7032 0.09431 0.0048 0.0
C2141 C 0.68935 0.08886 0.98139 0.0
C2142 C 0.67917 0.09452 0.99004 0.0
C2143 C 0.68285 0.1057 0.02199 0.0
C2144 C 0.69669 0.1112 0.04544 0.0
C2145 C 0.78968 0.13405 0.01797 0.0
C2146 C 0.79204 0.14531 0.987 0.0
C2147 C 0.77614 0.12735 0.04295 0.0
C2148 C 0.76485 0.13195 0.03771 0.0
C2149 C 0.76731 0.14333 0.00729 0.0
C2150 C 0.78071 0.14991 0.98216 0.0
C2151 C 0.75017 0.12463 0.0628 0.0
C2152 C 0.73587 0.11803 0.04075 0.0
C2153 C 0.75017 0.12427 0.1078 0.0
C2154 C 0.76492 0.13202 0.13293 0.0
C2155 C 0.77575 0.14803 0.12725 0.0
C2156 C 0.7897 0.15524 0.15068 0.0
C2157 C 0.79289 0.14659 0.18015 0.0
C2158 C 0.78212 0.13073 0.18634 0.0
C2159 C 0.76816 0.12346 0.16295 0.0
H2160 H 0.8037 0.15219 0.19824 0.0
H2161 H 0.66845 0.09027 0.97192 0.0
H2162 H 0.98412 0.69438 0.94391 0.0
H2163 H 0.99602 0.68193 0.98436 0.0
H2164 H 0.00735 0.71546 0.08572 0.0
H2165 H 0.99576 0.72828 0.04507 0.0
H2166 H 0.03145 0.71111 0.07035 0.0
H2167 H 0.97643 0.67833 0.09409 0.0
H2168 H 0.94869 0.66228 0.07307 0.0
H2169 H 0.95918 0.63075 0.00559 0.0
H2170 H 0.98704 0.64676 0.02565 0.0
H2171 H 0.0254 0.64619 0.22057 0.0
H2172 H 0.01314 0.65826 0.18009 0.0
H2173 H 0.05008 0.67449 0.08696 0.0
H2174 H 0.06265 0.66262 0.12761 0.0
H2175 H 0.00142 0.65418 0.10139 0.0
H2176 H 0.05806 0.71068 0.05307 0.0
H2177 H 0.08515 0.7271 0.07917 0.0
H2178 H 0.06992 0.71195 0.20706 0.0
H2179 H 0.04271 0.69564 0.18185 0.0
C2180 C 0.98909 0.69913 0.97484 0.0
C2181 C 0.98889 0.71231 0.9913 0.0
C2182 C 0.99587 0.69195 0.99797 0.0
C2183 C 0.00242 0.69766 0.03826 0.0
C2184 C 0.00236 0.71087 0.05469 0.0
C2185 C 0.99565 0.71812 0.03147 0.0
C2186 C 0.00929 0.6898 0.06326 0.0
C2187 C 0.02489 0.69866 0.07712 0.0
C2188 C 0.00065 0.67361 0.07266 0.0
C2189 C 0.98385 0.66382 0.06107 0.0
C2190 C 0.97284 0.66803 0.07454 0.0
C2191 C 0.9571 0.65893 0.06282 0.0
C2192 C 0.95218 0.64552 0.03793 0.0
C2193 C 0.963 0.64115 0.02483 0.0
C2194 C 0.97878 0.65023 0.03639 0.0
C2195 C 0.03093 0.65224 0.19137 0.0
C2196 C 0.04509 0.65349 0.1775 0.0
C2197 C 0.02384 0.6591 0.16819 0.0
C2198 C 0.03077 0.66739 0.13078 0.0
C2199 C 0.04465 0.66831 0.1161 0.0
C2200 C 0.05179 0.66146 0.1393 0.0
C2201 C 0.02364 0.67544 0.1079 0.0
C2202 C 0.00799 0.66661 0.09447 0.0
C2203 C 0.03212 0.69173 0.09976 0.0
C2204 C 0.04838 0.70182 0.11545 0.0
C2205 C 0.06048 0.71092 0.08678 0.0
C2206 C 0.07586 0.7202 0.10143 0.0
C2207 C 0.07926 0.72053 0.14473 0.0
C2208 C 0.06727 0.71164 0.17352 0.0
C2209 C 0.05188 0.70237 0.15906 0.0
H2210 H 0.09117 0.72769 0.15598 0.0
H2211 H 0.93999 0.6385 0.02886 0.0
H2212 H 0.40837 0.33444 0.04546 0.0
H2213 H 0.42074 0.35881 0.0862 0.0
H2214 H 0.45567 0.3809 0.98833 0.0
H2215 H 0.44363 0.35655 0.94774 0.0
H2216 H 0.46873 0.38949 0.06511 0.0
H2217 H 0.42448 0.3865 0.99281 0.0
H2218 H 0.39668 0.37379 0.97157 0.0
H2219 H 0.38331 0.37253 0.1021 0.0
H2220 H 0.41103 0.38501 0.1242 0.0
H2221 H 0.4701 0.46625 0.13336 0.0
H2222 H 0.45907 0.44233 0.09057 0.0
H2223 H 0.4732 0.42045 0.1861 0.0
H2224 H 0.48448 0.44428 0.22867 0.0
H2225 H 0.43615 0.41288 0.10551 0.0
H2226 H 0.48438 0.39689 0.13861 0.0
H2227 H 0.51262 0.41033 0.15543 0.0
H2228 H 0.51909 0.45185 0.09291 0.0
H2229 H 0.49095 0.43858 0.07513 0.0
C2230 C 0.41877 0.34442 0.03272 0.0
C2231 C 0.42492 0.34354 0.99312 0.0
C2232 C 0.42578 0.35836 0.056 0.0
C2233 C 0.43897 0.37172 0.03995 0.0
C2234 C 0.44547 0.37073 0.00124 0.0
C2235 C 0.43852 0.35679 0.97801 0.0
C2236 C 0.44569 0.38688 0.06279 0.0
C2237 C 0.46161 0.39459 0.074 0.0
C2238 C 0.43647 0.39371 0.07349 0.0
C2239 C 0.41982 0.38658 0.0602 0.0
C2240 C 0.4156 0.38344 0.01701 0.0
C2241 C 0.39986 0.37628 0.00481 0.0
C2242 C 0.38823 0.37232 0.03548 0.0
C2243 C 0.39233 0.37558 0.07839 0.0
C2244 C 0.40806 0.38272 0.09077 0.0
C2245 C 0.47091 0.45637 0.14524 0.0
C2246 C 0.4783 0.45726 0.18435 0.0
C2247 C 0.46454 0.44269 0.12081 0.0
C2248 C 0.46547 0.42969 0.13494 0.0
C2249 C 0.47258 0.43044 0.17425 0.0
C2250 C 0.479 0.4441 0.1986 0.0
C2251 C 0.45912 0.41532 0.10857 0.0
C2252 C 0.44327 0.40777 0.09664 0.0
C2253 C 0.46849 0.40881 0.09638 0.0
C2254 C 0.48552 0.41677 0.10589 0.0
C2255 C 0.49185 0.40885 0.12823 0.0
C2256 C 0.50784 0.41645 0.13797 0.0
C2257 C 0.51763 0.43195 0.12536 0.0
C2258 C 0.51148 0.43986 0.10278 0.0
C2259 C 0.49551 0.43231 0.09289 0.0
H2260 H 0.53 0.43782 0.13303 0.0
H2261 H 0.37605 0.36674 0.02598 0.0
H2262 H 0.98886 0.33005 0.54218 0.0
H2263 H 0.99988 0.35405 0.58491 0.0
H2264 H 0.00253 0.38054 0.47308 0.0
H2265 H 0.9912 0.3566 0.43021 0.0
H2266 H 0.03115 0.39306 0.52913 0.0
H2267 H 0.97507 0.37377 0.53155 0.0
H2268 H 0.94767 0.35325 0.54397 0.0
H2269 H 0.95841 0.35015 0.67484 0.0
H2270 H 0.98596 0.37048 0.66297 0.0
H2271 H 0.04923 0.46524 0.61836 0.0
H2272 H 0.03671 0.441 0.57712 0.0
H2273 H 0.02054 0.41425 0.69317 0.0
H2274 H 0.03243 0.43853 0.7345 0.0
H2275 H 0.99884 0.4011 0.6362 0.0
H2276 H 0.05355 0.41925 0.63889 0.0
H2277 H 0.08163 0.43853 0.63095 0.0
H2278 H 0.0749 0.44208 0.49727 0.0
H2279 H 0.04671 0.42299 0.50454 0.0
C2280 C 0.99181 0.34098 0.52666 0.0
C2281 C 0.98914 0.34144 0.48284 0.0
C2282 C 0.99807 0.35465 0.55111 0.0
C2283 C 0.00198 0.36898 0.53201 0.0
C2284 C 0.99958 0.36954 0.48824 0.0
C2285 C 0.99305 0.35585 0.4639 0.0
C2286 C 0.00838 0.38341 0.55786 0.0
C2287 C 0.02408 0.39496 0.55219 0.0
C2288 C 0.99924 0.3855 0.58891 0.0
C2289 C 0.98261 0.37353 0.59626 0.0
C2290 C 0.97162 0.36862 0.56289 0.0
C2291 C 0.95606 0.35704 0.56984 0.0
C2292 C 0.95131 0.35037 0.61014 0.0
C2293 C 0.96211 0.35531 0.64362 0.0
C2294 C 0.97769 0.36687 0.6368 0.0
C2295 C 0.04293 0.4542 0.63506 0.0
C2296 C 0.04193 0.45377 0.67967 0.0
C2297 C 0.03583 0.44034 0.61149 0.0
C2298 C 0.02799 0.42577 0.63208 0.0
C2299 C 0.02657 0.42534 0.67657 0.0
C2300 C 0.0334 0.43923 0.70015 0.0
C2301 C 0.02167 0.41101 0.60724 0.0
C2302 C 0.00598 0.3993 0.61318 0.0
C2303 C 0.03095 0.4086 0.57711 0.0
C2304 C 0.04798 0.41979 0.57234 0.0
C2305 C 0.05804 0.4242 0.60783 0.0
C2306 C 0.07398 0.4351 0.60346 0.0
C2307 C 0.08004 0.44156 0.56365 0.0
C2308 C 0.07018 0.43707 0.5281 0.0
C2309 C 0.05422 0.4262 0.53232 0.0
H2310 H 0.09237 0.45003 0.56035 0.0
H2311 H 0.93926 0.34139 0.61546 0.0
H2312 H 0.66729 0.66581 0.63673 0.0
H2313 H 0.69073 0.6764 0.59217 0.0
H2314 H 0.71188 0.65887 0.68041 0.0
H2315 H 0.68856 0.64808 0.72471 0.0
H2316 H 0.72105 0.69784 0.6071 0.0
H2317 H 0.73274 0.646 0.6263 0.0
H2318 H 0.71763 0.61748 0.63835 0.0
H2319 H 0.67706 0.61546 0.5811 0.0
H2320 H 0.69198 0.64391 0.5681 0.0
H2321 H 0.79835 0.72222 0.54593 0.0
H2322 H 0.77388 0.71002 0.58588 0.0
H2323 H 0.75062 0.67798 0.48203 0.0
H2324 H 0.7751 0.68982 0.44215 0.0
H2325 H 0.7409 0.66329 0.55624 0.0
H2326 H 0.74739 0.71039 0.49396 0.0
H2327 H 0.7619 0.73861 0.47764 0.0
H2328 H 0.76379 0.74944 0.61062 0.0
H2329 H 0.74953 0.72127 0.62782 0.0
C2330 C 0.67691 0.66418 0.64664 0.0
C2331 C 0.67595 0.65596 0.68416 0.0
C2332 C 0.69032 0.67029 0.62121 0.0
C2333 C 0.70294 0.66825 0.63274 0.0
C2334 C 0.70215 0.66035 0.67055 0.0
C2335 C 0.68879 0.65421 0.69591 0.0
C2336 C 0.71696 0.67425 0.60526 0.0
C2337 C 0.72537 0.69029 0.59588 0.0
C2338 C 0.72242 0.66432 0.58994 0.0
C2339 C 0.71346 0.64712 0.59657 0.0
C2340 C 0.72062 0.63945 0.61604 0.0
C2341 C 0.71208 0.6233 0.62309 0.0
C2342 C 0.69638 0.61467 0.61062 0.0
C2343 C 0.68921 0.62217 0.59087 0.0
C2344 C 0.6977 0.63831 0.58369 0.0
C2345 C 0.78809 0.71247 0.53168 0.0
C2346 C 0.78868 0.70711 0.49061 0.0
C2347 C 0.77409 0.70555 0.55453 0.0
C2348 C 0.76037 0.69329 0.53657 0.0
C2349 C 0.76106 0.68747 0.49639 0.0
C2350 C 0.77507 0.69431 0.4736 0.0
C2351 C 0.7452 0.68694 0.55901 0.0
C2352 C 0.73655 0.67083 0.56736 0.0
C2353 C 0.73934 0.69675 0.57253 0.0
C2354 C 0.74749 0.71371 0.5622 0.0
C2355 C 0.75096 0.71879 0.51975 0.0
C2356 C 0.75915 0.73478 0.51034 0.0
C2357 C 0.76379 0.74581 0.54308 0.0
C2358 C 0.7602 0.74088 0.58529 0.0
C2359 C 0.75205 0.7249 0.59489 0.0
H2360 H 0.77016 0.75819 0.53574 0.0
H2361 H 0.68978 0.60218 0.6162 0.0
H2362 H 0.43388 0.14346 0.4383 0.0
H2363 H 0.44635 0.13137 0.47812 0.0
H2364 H 0.41833 0.12712 0.5879 0.0
H2365 H 0.40564 0.13913 0.54831 0.0
H2366 H 0.45111 0.13876 0.6052 0.0
H2367 H 0.40739 0.09619 0.53036 0.0
H2368 H 0.3921 0.08377 0.46536 0.0
H2369 H 0.4321 0.08436 0.40932 0.0
H2370 H 0.4477 0.097 0.47379 0.0
H2371 H 0.46424 0.08764 0.73039 0.0
H2372 H 0.45223 0.09995 0.68964 0.0
H2373 H 0.47092 0.09232 0.57366 0.0
H2374 H 0.48215 0.07906 0.61432 0.0
H2375 H 0.44359 0.08745 0.55742 0.0
H2376 H 0.48761 0.12912 0.62768 0.0
H2377 H 0.5048 0.14318 0.6885 0.0
H2378 H 0.46738 0.14658 0.74777 0.0
H2379 H 0.44988 0.13231 0.68762 0.0
C2380 C 0.43038 0.14003 0.47097 0.0
C2381 C 0.41868 0.14221 0.49003 0.0
C2382 C 0.43752 0.13311 0.49362 0.0
C2383 C 0.43318 0.12828 0.53578 0.0
C2384 C 0.42182 0.13077 0.55534 0.0
C2385 C 0.41455 0.13758 0.53259 0.0
C2386 C 0.44018 0.12022 0.55908 0.0
C2387 C 0.44934 0.12745 0.59519 0.0
C2388 C 0.43828 0.10576 0.54491 0.0
C2389 C 0.42874 0.09765 0.50677 0.0
C2390 C 0.41294 0.09373 0.5041 0.0
C2391 C 0.40422 0.08665 0.46736 0.0
C2392 C 0.41113 0.08332 0.43318 0.0
C2393 C 0.42676 0.08697 0.4358 0.0
C2394 C 0.43554 0.09407 0.47245 0.0
C2395 C 0.46578 0.08859 0.69619 0.0
C2396 C 0.47423 0.08254 0.67549 0.0
C2397 C 0.45898 0.09571 0.6729 0.0
C2398 C 0.46099 0.09747 0.62859 0.0
C2399 C 0.46924 0.09118 0.60779 0.0
C2400 C 0.47569 0.08365 0.63101 0.0
C2401 C 0.45452 0.1059 0.60414 0.0
C2402 C 0.44545 0.09877 0.56765 0.0
C2403 C 0.4568 0.12066 0.61743 0.0
C2404 C 0.46739 0.12953 0.65327 0.0
C2405 C 0.48302 0.1328 0.65378 0.0
C2406 C 0.49282 0.1408 0.68813 0.0
C2407 C 0.48718 0.14574 0.72201 0.0
C2408 C 0.47173 0.14273 0.72152 0.0
C2409 C 0.46187 0.1347 0.68728 0.0
H2410 H 0.49478 0.15192 0.7486 0.0
H2411 H 0.40438 0.07788 0.40471 0.0
H2412 H 0.33024 0.9841 0.94888 0.0
H2413 H 0.35422 0.99506 0.90605 0.0
H2414 H 0.38184 0.00458 0.02031 0.0
H2415 H 0.358 0.99334 0.06324 0.0
H2416 H 0.39213 0.03048 0.95584 0.0
H2417 H 0.3773 0.97586 0.97309 0.0
H2418 H 0.35862 0.94751 0.96836 0.0
H2419 H 0.3545 0.95149 0.83349 0.0
H2420 H 0.37294 0.97994 0.83758 0.0
H2421 H 0.46609 0.05002 0.87755 0.0
H2422 H 0.44167 0.03753 0.91773 0.0
H2423 H 0.41587 0.01611 0.80251 0.0
H2424 H 0.44033 0.02806 0.76234 0.0
H2425 H 0.40373 0.99628 0.86516 0.0
H2426 H 0.41849 0.0498 0.8443 0.0
H2427 H 0.43633 0.07837 0.84574 0.0
H2428 H 0.43927 0.07723 0.98188 0.0
H2429 H 0.42167 0.0486 0.98121 0.0
C2430 C 0.34143 0.98855 0.96483 0.0
C2431 C 0.34226 0.98782 0.00936 0.0
C2432 C 0.35507 0.99477 0.94038 0.0
C2433 C 0.36971 0.00059 0.9602 0.0
C2434 C 0.37061 0.00015 0.0046 0.0
C2435 C 0.35698 0.99365 0.02898 0.0
C2436 C 0.38414 0.00692 0.93463 0.0
C2437 C 0.39479 0.02304 0.9363 0.0
C2438 C 0.38725 0.99719 0.90829 0.0
C2439 C 0.37635 0.98005 0.90572 0.0
C2440 C 0.37229 0.97072 0.94249 0.0
C2441 C 0.36177 0.95463 0.93992 0.0
C2442 C 0.35534 0.94771 0.90067 0.0
C2443 C 0.35947 0.95687 0.86389 0.0
C2444 C 0.36996 0.97298 0.86631 0.0
C2445 C 0.45523 0.04256 0.8608 0.0
C2446 C 0.45512 0.04016 0.81669 0.0
C2447 C 0.44127 0.03548 0.88378 0.0
C2448 C 0.4269 0.02619 0.86295 0.0
C2449 C 0.42681 0.02329 0.8192 0.0
C2450 C 0.44081 0.03017 0.79628 0.0
C2451 C 0.41196 0.01993 0.88661 0.0
C2452 C 0.40113 0.00381 0.88452 0.0
C2453 C 0.40855 0.02973 0.91202 0.0
C2454 C 0.41886 0.04702 0.91267 0.0
C2455 C 0.423 0.05563 0.87454 0.0
C2456 C 0.43308 0.07183 0.87521 0.0
C2457 C 0.43896 0.07961 0.91387 0.0
C2458 C 0.43472 0.07119 0.95195 0.0
C2459 C 0.42469 0.05497 0.95145 0.0
H2460 H 0.44677 0.09215 0.91433 0.0
H2461 H 0.3472 0.93525 0.89873 0.0
H2462 H 0.09482 0.46902 0.76441 0.0
H2463 H 0.1075 0.45724 0.80501 0.0
H2464 H 0.09165 0.46748 0.92206 0.0
H2465 H 0.07858 0.47899 0.88168 0.0
H2466 H 0.1258 0.4758 0.91574 0.0
H2467 H 0.0723 0.43356 0.89645 0.0
H2468 H 0.04904 0.41686 0.8526 0.0
H2469 H 0.0756 0.40123 0.7803 0.0
H2470 H 0.09912 0.41809 0.82327 0.0
H2471 H 0.14096 0.43149 0.06264 0.0
H2472 H 0.129 0.44345 0.02052 0.0
H2473 H 0.131 0.41901 0.90884 0.0
H2474 H 0.1424 0.4064 0.95145 0.0
H2475 H 0.10443 0.41834 0.90958 0.0
H2476 H 0.15742 0.45884 0.92711 0.0
H2477 H 0.18179 0.47613 0.96625 0.0
H2478 H 0.15824 0.4959 0.03541 0.0
H2479 H 0.13365 0.47853 0.9972 0.0
C2480 C 0.09407 0.46884 0.7988 0.0
C2481 C 0.08566 0.47489 0.81988 0.0
C2482 C 0.1013 0.46209 0.82187 0.0
C2483 C 0.10046 0.46151 0.86638 0.0
C2484 C 0.09241 0.46786 0.88766 0.0
C2485 C 0.0849 0.47435 0.86457 0.0
C2486 C 0.10765 0.45388 0.89061 0.0
C2487 C 0.12107 0.46322 0.91496 0.0
C2488 C 0.10171 0.43757 0.88809 0.0
C2489 C 0.08751 0.42721 0.86277 0.0
C2490 C 0.07322 0.42667 0.87096 0.0
C2491 C 0.05998 0.41716 0.84631 0.0
C2492 C 0.06085 0.40802 0.81361 0.0
C2493 C 0.07495 0.40833 0.8056 0.0
C2494 C 0.08824 0.41786 0.83011 0.0
C2495 C 0.1389 0.42865 0.02911 0.0
C2496 C 0.14274 0.41806 0.01034 0.0
C2497 C 0.13211 0.43558 0.00497 0.0
C2498 C 0.12939 0.43241 0.96126 0.0
C2499 C 0.13304 0.42169 0.94248 0.0
C2500 C 0.13959 0.41452 0.96683 0.0
C2501 C 0.12262 0.44022 0.93544 0.0
C2502 C 0.10927 0.43093 0.91054 0.0
C2503 C 0.12882 0.45665 0.93685 0.0
C2504 C 0.14365 0.46728 0.95952 0.0
C2505 C 0.15741 0.4668 0.95086 0.0
C2506 C 0.17126 0.47662 0.97287 0.0
C2507 C 0.17155 0.48708 0.00336 0.0
C2508 C 0.158 0.48778 0.01181 0.0
C2509 C 0.14409 0.47795 0.98996 0.0
H2510 H 0.18229 0.49467 0.02037 0.0
H2511 H 0.05059 0.40066 0.79454 0.0
H2512 H 0.64151 0.68359 0.81078 0.0
H2513 H 0.65423 0.70767 0.85232 0.0
H2514 H 0.68487 0.69322 0.90915 0.0
H2515 H 0.67174 0.66872 0.86885 0.0
H2516 H 0.67688 0.70717 0.96652 0.0
H2517 H 0.69684 0.71921 0.82486 0.0
H2518 H 0.69472 0.71917 0.74666 0.0
H2519 H 0.67146 0.74606 0.75547 0.0
H2520 H 0.67321 0.74605 0.83379 0.0
H2521 H 0.73412 0.79782 0.97219 0.0
H2522 H 0.72245 0.77287 0.93407 0.0
H2523 H 0.68157 0.75482 0.0142 0.0
H2524 H 0.6933 0.77944 0.05331 0.0
H2525 H 0.69731 0.7572 0.88769 0.0
H2526 H 0.66648 0.7163 0.03156 0.0
H2527 H 0.6702 0.71578 0.10906 0.0
H2528 H 0.71968 0.74673 0.09456 0.0
H2529 H 0.7163 0.74725 0.01692 0.0
C2530 C 0.65084 0.68542 0.8324 0.0
C2531 C 0.65568 0.67426 0.83623 0.0
C2532 C 0.65817 0.69926 0.85599 0.0
C2533 C 0.67075 0.70242 0.88311 0.0
C2534 C 0.67524 0.69106 0.88825 0.0
C2535 C 0.66773 0.67707 0.86514 0.0
C2536 C 0.6795 0.71779 0.90499 0.0
C2537 C 0.68137 0.71811 0.94931 0.0
C2538 C 0.68571 0.73208 0.88238 0.0
C2539 C 0.68507 0.73254 0.83522 0.0
C2540 C 0.69123 0.72507 0.81013 0.0
C2541 C 0.69008 0.72505 0.76578 0.0
C2542 C 0.68293 0.73258 0.74611 0.0
C2543 C 0.67698 0.74022 0.77075 0.0
C2544 C 0.67807 0.74025 0.81513 0.0
C2545 C 0.72262 0.78856 0.98165 0.0
C2546 C 0.71469 0.79064 0.01597 0.0
C2547 C 0.71596 0.7743 0.95978 0.0
C2548 C 0.70124 0.76188 0.97171 0.0
C2549 C 0.69309 0.76411 0.00504 0.0
C2550 C 0.6998 0.77827 0.0272 0.0
C2551 C 0.69438 0.74658 0.94939 0.0
C2552 C 0.69289 0.74627 0.90494 0.0
C2553 C 0.68889 0.73231 0.97178 0.0
C2554 C 0.6911 0.7319 0.01842 0.0
C2555 C 0.67817 0.72293 0.04488 0.0
C2556 C 0.68021 0.72265 0.08884 0.0
C2557 C 0.69516 0.73124 0.10672 0.0
C2558 C 0.7081 0.74011 0.08068 0.0
C2559 C 0.70613 0.74041 0.03669 0.0
H2560 H 0.6967 0.73098 0.14076 0.0
H2561 H 0.68202 0.73251 0.71178 0.0
H2562 H 0.73219 0.99961 0.71163 0.0
H2563 H 0.74361 0.02466 0.74933 0.0
H2564 H 0.77851 0.04618 0.65118 0.0
H2565 H 0.76718 0.02136 0.61311 0.0
H2566 H 0.77219 0.04344 0.78289 0.0
H2567 H 0.78545 0.08315 0.63388 0.0
H2568 H 0.7745 0.0816 0.56222 0.0
H2569 H 0.72927 0.04579 0.60493 0.0
H2570 H 0.73988 0.0473 0.67699 0.0
H2571 H 0.82663 0.12 0.84037 0.0
H2572 H 0.81302 0.0955 0.80075 0.0
H2573 H 0.77492 0.1041 0.77513 0.0
H2574 H 0.78891 0.12908 0.81334 0.0
H2575 H 0.77944 0.09103 0.70862 0.0
H2576 H 0.77352 0.07978 0.85749 0.0
H2577 H 0.78272 0.08133 0.93132 0.0
H2578 H 0.80885 0.05916 0.89379 0.0
H2579 H 0.80006 0.05776 0.81957 0.0
C2580 C 0.74234 0.00964 0.69813 0.0
C2581 C 0.74871 0.00844 0.6592 0.0
C2582 C 0.74885 0.02395 0.71976 0.0
C2583 C 0.76176 0.03731 0.70274 0.0
C2584 C 0.76837 0.03607 0.6645 0.0
C2585 C 0.76191 0.02181 0.64289 0.0
C2586 C 0.76838 0.05262 0.72478 0.0
C2587 C 0.77374 0.05384 0.76674 0.0
C2588 C 0.77005 0.0661 0.70397 0.0
C2589 C 0.76352 0.06526 0.66079 0.0
C2590 C 0.77316 0.075 0.62805 0.0
C2591 C 0.76701 0.07412 0.58734 0.0
C2592 C 0.75121 0.06359 0.57902 0.0
C2593 C 0.74152 0.05392 0.61139 0.0
C2594 C 0.7476 0.05477 0.65216 0.0
C2595 C 0.81543 0.11676 0.82599 0.0
C2596 C 0.80875 0.12636 0.83038 0.0
C2597 C 0.80761 0.10271 0.80348 0.0
C2598 C 0.79273 0.09773 0.78599 0.0
C2599 C 0.78634 0.10764 0.78864 0.0
C2600 C 0.79433 0.1219 0.81047 0.0
C2601 C 0.78369 0.08196 0.76635 0.0
C2602 C 0.77784 0.08063 0.72488 0.0
C2603 C 0.78121 0.06829 0.78801 0.0
C2604 C 0.78619 0.06875 0.83288 0.0
C2605 C 0.78127 0.07529 0.86494 0.0
C2606 C 0.78643 0.07616 0.90686 0.0
C2607 C 0.79637 0.07035 0.91722 0.0
C2608 C 0.80115 0.06365 0.88571 0.0
C2609 C 0.79608 0.06281 0.84372 0.0
H2610 H 0.80035 0.07103 0.94968 0.0
H2611 H 0.74646 0.06296 0.54754 0.0
H2612 H 0.13243 0.81625 0.71182 0.0
H2613 H 0.10821 0.80439 0.75308 0.0
H2614 H 0.08149 0.79698 0.63776 0.0
H2615 H 0.10571 0.80956 0.59671 0.0
H2616 H 0.06876 0.80468 0.69681 0.0
H2617 H 0.08588 0.76738 0.68643 0.0
H2618 H 0.10474 0.75793 0.69177 0.0
H2619 H 0.10796 0.76547 0.82686 0.0
H2620 H 0.08933 0.77525 0.82223 0.0
H2621 H 0.99675 0.74339 0.78646 0.0
H2622 H 0.02064 0.75633 0.74337 0.0
H2623 H 0.04801 0.77779 0.85626 0.0
H2624 H 0.02425 0.76524 0.89942 0.0
H2625 H 0.05952 0.76198 0.79681 0.0
H2626 H 0.04165 0.79995 0.80204 0.0
H2627 H 0.02159 0.80766 0.79221 0.0
H2628 H 0.01801 0.79575 0.65963 0.0
H2629 H 0.03789 0.78773 0.66886 0.0
C2630 C 0.12139 0.81219 0.69535 0.0
C2631 C 0.12094 0.8137 0.65102 0.0
C2632 C 0.10755 0.80535 0.7189 0.0
C2633 C 0.09297 0.79943 0.69841 0.0
C2634 C 0.09256 0.8014 0.65429 0.0
C2635 C 0.10643 0.80856 0.63084 0.0
C2636 C 0.07816 0.79082 0.72277 0.0
C2637 C 0.06671 0.79523 0.71824 0.0
C2638 C 0.0754 0.77844 0.75081 0.0
C2639 C 0.08631 0.77219 0.75393 0.0
C2640 C 0.09067 0.7671 0.71726 0.0
C2641 C 0.10132 0.76169 0.72015 0.0
C2642 C 0.10757 0.76114 0.75962 0.0
C2643 C 0.10312 0.76593 0.7963 0.0
C2644 C 0.09251 0.7714 0.79357 0.0
C2645 C 0.00786 0.75086 0.80208 0.0
C2646 C 0.00862 0.75334 0.8463 0.0
C2647 C 0.02146 0.75822 0.77747 0.0
C2648 C 0.03601 0.76796 0.79681 0.0
C2649 C 0.03685 0.77027 0.84092 0.0
C2650 C 0.02326 0.76316 0.86542 0.0
C2651 C 0.05039 0.77601 0.77102 0.0
C2652 C 0.06168 0.77143 0.77523 0.0
C2653 C 0.05282 0.78794 0.74196 0.0
C2654 C 0.04114 0.79309 0.73624 0.0
C2655 C 0.0365 0.79886 0.77087 0.0
C2656 C 0.02518 0.80331 0.76539 0.0
C2657 C 0.01851 0.80216 0.72534 0.0
C2658 C 0.02318 0.79662 0.69065 0.0
C2659 C 0.03449 0.79213 0.69597 0.0
H2660 H 0.00973 0.80559 0.72117 0.0
H2661 H 0.11584 0.75697 0.76177 0.0
H2662 H 0.31898 0.38506 0.71481 0.0
H2663 H 0.33161 0.37329 0.75542 0.0
H2664 H 0.34011 0.35537 0.63927 0.0
H2665 H 0.32686 0.3665 0.59869 0.0
H2666 H 0.33253 0.33455 0.69813 0.0
H2667 H 0.36892 0.38935 0.68953 0.0
H2668 H 0.37755 0.41744 0.69617 0.0
H2669 H 0.36988 0.41216 0.83105 0.0
H2670 H 0.36092 0.38397 0.82512 0.0
H2671 H 0.39377 0.32376 0.78622 0.0
H2672 H 0.38089 0.33505 0.74402 0.0
H2673 H 0.36042 0.34141 0.85801 0.0
H2674 H 0.37295 0.32989 0.90032 0.0
H2675 H 0.37501 0.36831 0.79888 0.0
H2676 H 0.33803 0.31254 0.80373 0.0
H2677 H 0.33045 0.28483 0.79396 0.0
H2678 H 0.34135 0.29293 0.66092 0.0
H2679 H 0.34929 0.32079 0.6701 0.0
C2680 C 0.32346 0.37853 0.69795 0.0
C2681 C 0.32204 0.37682 0.65351 0.0
C2682 C 0.33075 0.37187 0.72117 0.0
C2683 C 0.33716 0.36375 0.70032 0.0
C2684 C 0.33532 0.36163 0.65608 0.0
C2685 C 0.32776 0.36803 0.6329 0.0
C2686 C 0.34606 0.35778 0.72452 0.0
C2687 C 0.34195 0.34201 0.71969 0.0
C2688 C 0.35832 0.36746 0.75293 0.0
C2689 C 0.36412 0.38451 0.75682 0.0
C2690 C 0.36901 0.39416 0.72059 0.0
C2691 C 0.37395 0.4101 0.72422 0.0
C2692 C 0.37423 0.41657 0.76399 0.0
C2693 C 0.36964 0.40713 0.80025 0.0
C2694 C 0.36463 0.39117 0.79678 0.0
C2695 C 0.38659 0.32763 0.80231 0.0
C2696 C 0.38431 0.32587 0.84656 0.0
C2697 C 0.37924 0.33405 0.77818 0.0
C2698 C 0.36972 0.33901 0.79801 0.0
C2699 C 0.36775 0.33765 0.84224 0.0
C2700 C 0.37485 0.33099 0.86627 0.0
C2701 C 0.36136 0.34516 0.77253 0.0
C2702 C 0.36562 0.36094 0.77713 0.0
C2703 C 0.34944 0.33559 0.74337 0.0
C2704 C 0.34442 0.31878 0.7377 0.0
C2705 C 0.33894 0.30845 0.77247 0.0
C2706 C 0.33456 0.29271 0.76703 0.0
C2707 C 0.33546 0.28713 0.72686 0.0
C2708 C 0.34069 0.29727 0.69203 0.0
C2709 C 0.34513 0.31304 0.69733 0.0
H2710 H 0.33206 0.27494 0.7227 0.0
H2711 H 0.37803 0.42891 0.76672 0.0
H2712 H 0.00265 0.33224 0.29671 0.0
H2713 H 0.02703 0.3433 0.25646 0.0
H2714 H 0.04201 0.31654 0.33176 0.0
H2715 H 0.01797 0.30588 0.37314 0.0
H2716 H 0.06499 0.34471 0.32467 0.0
H2717 H 0.02906 0.30652 0.22743 0.0
H2718 H 0.00489 0.29265 0.18463 0.0
H2719 H 0.01781 0.33475 0.11465 0.0
H2720 H 0.04196 0.34894 0.15745 0.0
H2721 H 0.11454 0.35466 0.12034 0.0
H2722 H 0.09024 0.34105 0.16045 0.0
H2723 H 0.10401 0.38277 0.23486 0.0
H2724 H 0.1287 0.39631 0.196 0.0
H2725 H 0.0666 0.34519 0.16692 0.0
H2726 H 0.0889 0.37364 0.33323 0.0
H2727 H 0.11301 0.38446 0.37654 0.0
H2728 H 0.12736 0.35593 0.30875 0.0
H2729 H 0.10325 0.34478 0.26547 0.0
C2730 C 0.01107 0.32861 0.30452 0.0
C2731 C 0.00832 0.31813 0.3381 0.0
C2732 C 0.02499 0.33491 0.28136 0.0
C2733 C 0.03628 0.33063 0.29081 0.0
C2734 C 0.03348 0.32004 0.32397 0.0
C2735 C 0.01967 0.31389 0.34748 0.0
C2736 C 0.05125 0.33756 0.26704 0.0
C2737 C 0.06534 0.34478 0.29017 0.0
C2738 C 0.05171 0.33736 0.22205 0.0
C2739 C 0.03726 0.32884 0.19593 0.0
C2740 C 0.0267 0.31285 0.20311 0.0
C2741 C 0.013 0.30493 0.17882 0.0
C2742 C 0.00979 0.31282 0.14701 0.0
C2743 C 0.0203 0.32865 0.13933 0.0
C2744 C 0.034 0.33664 0.16357 0.0
C2745 C 0.11252 0.36092 0.14555 0.0
C2746 C 0.12367 0.37655 0.1552 0.0
C2747 C 0.09855 0.35313 0.16829 0.0
C2748 C 0.09534 0.36082 0.20092 0.0
C2749 C 0.10636 0.37648 0.2104 0.0
C2750 C 0.12047 0.38422 0.18807 0.0
C2751 C 0.08035 0.3525 0.22457 0.0
C2752 C 0.06625 0.34506 0.20142 0.0
C2753 C 0.07988 0.35201 0.26956 0.0
C2754 C 0.09433 0.3585 0.29584 0.0
C2755 C 0.09717 0.36963 0.3277 0.0
C2756 C 0.11084 0.37583 0.35222 0.0
C2757 C 0.12173 0.37092 0.34531 0.0
C2758 C 0.11895 0.35976 0.31397 0.0
C2759 C 0.10529 0.35351 0.2894 0.0
H2760 H 0.13232 0.37575 0.36429 0.0
H2761 H 0.99918 0.30666 0.12827 0.0
H2762 H 0.81057 0.7422 0.28607 0.0
H2763 H 0.79928 0.75553 0.24585 0.0
H2764 H 0.78766 0.76996 0.36324 0.0
H2765 H 0.79927 0.75706 0.40368 0.0
H2766 H 0.76275 0.75601 0.29244 0.0
H2767 H 0.81657 0.79582 0.32471 0.0
H2768 H 0.84502 0.80572 0.32546 0.0
H2769 H 0.84486 0.80187 0.18934 0.0
H2770 H 0.81632 0.79164 0.18789 0.0
H2771 H 0.74376 0.81172 0.21883 0.0
H2772 H 0.75539 0.79907 0.25996 0.0
H2773 H 0.78135 0.79912 0.14944 0.0
H2774 H 0.77031 0.81236 0.10866 0.0
H2775 H 0.79891 0.80504 0.21618 0.0
H2776 H 0.74652 0.76671 0.18008 0.0
H2777 H 0.718 0.75596 0.17518 0.0
H2778 H 0.71472 0.7547 0.31145 0.0
H2779 H 0.74334 0.76593 0.31723 0.0
C2780 C 0.80551 0.74813 0.30326 0.0
C2781 C 0.80587 0.74868 0.34796 0.0
C2782 C 0.79909 0.75571 0.2803 0.0
C2783 C 0.79267 0.76368 0.30173 0.0
C2784 C 0.79255 0.76382 0.34629 0.0
C2785 C 0.79926 0.75654 0.36925 0.0
C2786 C 0.78678 0.77253 0.27766 0.0
C2787 C 0.7706 0.76682 0.27611 0.0
C2788 C 0.79709 0.78635 0.25547 0.0
C2789 C 0.81429 0.79281 0.25624 0.0
C2790 C 0.82257 0.79695 0.29498 0.0
C2791 C 0.83872 0.80264 0.29553 0.0
C2792 C 0.84674 0.80438 0.25748 0.0
C2793 C 0.83863 0.80049 0.21879 0.0
C2794 C 0.82247 0.79475 0.21809 0.0
C2795 C 0.75205 0.80916 0.20338 0.0
C2796 C 0.75599 0.81291 0.16035 0.0
C2797 C 0.75864 0.80187 0.22688 0.0
C2798 C 0.76897 0.79781 0.20752 0.0
C2799 C 0.77336 0.80207 0.16503 0.0
C2800 C 0.76699 0.80961 0.14171 0.0
C2801 C 0.77477 0.78865 0.23107 0.0
C2802 C 0.79096 0.79425 0.23244 0.0
C2803 C 0.76441 0.77454 0.25239 0.0
C2804 C 0.74712 0.76731 0.24909 0.0
C2805 C 0.73974 0.76422 0.20903 0.0
C2806 C 0.72355 0.75805 0.20608 0.0
C2807 C 0.71454 0.75463 0.24297 0.0
C2808 C 0.72172 0.75736 0.2829 0.0
C2809 C 0.73793 0.76366 0.28604 0.0
H2810 H 0.702 0.74985 0.24061 0.0
H2811 H 0.85924 0.80878 0.25797 0.0
H2812 H 0.31894 0.99682 0.21597 0.0
H2813 H 0.33026 0.02107 0.2579 0.0
H2814 H 0.33913 0.04791 0.14275 0.0
H2815 H 0.32746 0.02376 0.10068 0.0
H2816 H 0.36573 0.05773 0.21036 0.0
H2817 H 0.31168 0.0452 0.18684 0.0
H2818 H 0.28313 0.02723 0.18947 0.0
H2819 H 0.28572 0.02269 0.32469 0.0
H2820 H 0.31435 0.04041 0.3227 0.0
H2821 H 0.38718 0.13252 0.28857 0.0
H2822 H 0.37489 0.1082 0.24767 0.0
H2823 H 0.35054 0.08255 0.36011 0.0
H2824 H 0.3623 0.10688 0.40087 0.0
H2825 H 0.33175 0.07131 0.29535 0.0
H2826 H 0.38392 0.08303 0.32398 0.0
H2827 H 0.41267 0.09961 0.327 0.0
H2828 H 0.41439 0.10375 0.19085 0.0
H2829 H 0.38559 0.08738 0.18706 0.0
C2830 C 0.3233 0.00789 0.19962 0.0
C2831 C 0.32226 0.0084 0.15508 0.0
C2832 C 0.32975 0.02169 0.22356 0.0
C2833 C 0.33551 0.03619 0.20325 0.0
C2834 C 0.33475 0.03678 0.15883 0.0
C2835 C 0.328 0.02299 0.13495 0.0
C2836 C 0.34208 0.05076 0.22844 0.0
C2837 C 0.35834 0.06085 0.22858 0.0
C2838 C 0.33241 0.05442 0.25327 0.0
C2839 C 0.31517 0.04398 0.25455 0.0
C2840 C 0.30618 0.04025 0.21707 0.0
C2841 C 0.28998 0.03013 0.21845 0.0
C2842 C 0.28262 0.02379 0.2572 0.0
C2843 C 0.29144 0.02759 0.29468 0.0
C2844 C 0.30765 0.03768 0.29344 0.0
C2845 C 0.37914 0.12172 0.30457 0.0
C2846 C 0.37582 0.12164 0.34807 0.0
C2847 C 0.37217 0.10781 0.28118 0.0
C2848 C 0.36203 0.09349 0.30101 0.0
C2849 C 0.35836 0.09344 0.34414 0.0
C2850 C 0.36514 0.10737 0.36743 0.0
C2851 C 0.3555 0.07855 0.27697 0.0
C2852 C 0.33923 0.0683 0.27717 0.0
C2853 C 0.36522 0.07455 0.25327 0.0
C2854 C 0.38258 0.08409 0.25526 0.0
C2855 C 0.39042 0.08754 0.29468 0.0
C2856 C 0.40672 0.0969 0.29654 0.0
C2857 C 0.41535 0.10277 0.25914 0.0
C2858 C 0.40768 0.09922 0.2198 0.0
C2859 C 0.39137 0.08988 0.21777 0.0
H2860 H 0.42797 0.11004 0.26065 0.0
H2861 H 0.27007 0.01595 0.25822 0.0
loop_
_geom_bond_atom_site_label_1
_geom_bond_atom_site_label_2
_geom_bond_distance
_geom_bond_site_symmetry_2
_ccdc_geom_bond_type
Co0 O2 2.143 . S
Co0 O8 2.074 . S
Co0 O11 2.093 . S
Co0 O24 2.097 . S
Co0 N41 2.151 . S
Co0 N49 2.214 . S
Co1 O2 2.160 . S
Co1 O7 2.058 . S
Co1 O17 2.057 . S
Co1 O32 2.037 . S
Co1 N36 2.145 . S
Co1 N57 2.257 . S
O2 Co0 2.143 . S
O2 Co1 2.160 . S
C3 O4 1.278 . S
C3 O11 1.224 . S
O4 C3 1.278 . S
C5 O6 1.245 . S
C5 O17 1.232 . S
O6 C5 1.245 . S
O7 Co1 2.058 . S
O7 C33 1.269 . S
O8 Co0 2.074 . S
O8 C33 1.257 . S
H9 C34 0.930 . S
H10 C40 0.930 . S
O11 Co0 2.093 . S
O11 C3 1.224 . S
H12 C44 0.929 . S
H13 C46 0.930 . S
H14 C47 0.930 . S
H15 C45 0.929 . S
H16 C48 0.928 . S
O17 Co1 2.057 . S
O17 C5 1.232 . S
H18 C37 0.929 . S
H19 C38 0.929 . S
H20 C50 0.931 . S
H21 C42 0.929 . S
H22 C51 0.930 . S
H23 C43 0.931 . S
O24 Co0 2.097 . S
O24 C52 1.214 . S
H25 C53 0.929 . S
H26 C54 0.929 . S
H27 C55 0.930 1_655 S
H28 C56 0.929 1_655 S
H29 C58 0.930 . S
H30 C35 0.930 . S
H31 C39 0.930 . S
O32 Co1 2.037 . S
O32 C52 1.234 . S
C33 O7 1.269 . S
C33 O8 1.257 . S
C34 H9 0.930 . S
C34 C37 1.388 . S
C34 C39 1.418 . S
C35 H30 0.930 . S
C35 C38 1.404 . S
C35 C39 1.353 . S
N36 Co1 2.145 . S
N36 C37 1.397 . S
N36 C38 1.334 . S
C37 H18 0.929 . S
C37 C34 1.388 . S
C37 N36 1.397 . S
C38 H19 0.929 . S
C38 C35 1.404 . S
C38 N36 1.334 . S
C39 H31 0.930 . S
C39 C34 1.418 . S
C39 C35 1.353 . S
C40 H10 0.930 . S
C40 N41 1.330 . S
C40 C42 1.446 . S
N41 Co0 2.151 . S
N41 C40 1.330 . S
N41 C45 1.418 . S
C42 H21 0.929 . S
C42 C40 1.446 . S
C42 C43 1.332 . S
C43 H23 0.931 . S
C43 C42 1.332 . S
C43 C44 1.267 . S
C44 H12 0.929 . S
C44 C43 1.267 . S
C44 C45 1.251 . S
C45 H15 0.929 . S
C45 N41 1.418 . S
C45 C44 1.251 . S
C46 H13 0.930 . S
C46 C48 1.406 . S
C46 C51 1.261 . S
C47 H14 0.930 . S
C47 N49 1.325 . S
C47 C50 1.357 . S
C48 H16 0.928 . S
C48 C46 1.406 . S
C48 N49 1.261 . S
N49 Co0 2.214 . S
N49 C47 1.325 . S
N49 C48 1.261 . S
C50 H20 0.931 . S
C50 C47 1.357 . S
C50 C51 1.312 . S
C51 H22 0.930 . S
C51 C46 1.261 . S
C51 C50 1.312 . S
C52 O24 1.214 . S
C52 O32 1.234 . S
C53 H25 0.929 . S
C53 C56 1.391 . S
C53 C58 1.391 . S
C54 H26 0.929 . S
C54 C55 1.390 . S
C54 N57 1.391 . S
C55 H27 0.930 1_455 S
C55 C54 1.390 . S
C55 C56 1.392 . S
C56 H28 0.929 1_455 S
C56 C53 1.391 . S
C56 C55 1.392 . S
N57 Co1 2.257 . S
N57 C54 1.391 . S
N57 C58 1.388 . S
C58 H29 0.930 . S
C58 C53 1.391 . S
C58 N57 1.388 . S
Co59 O61 2.143 . S
Co59 O67 2.074 . S
Co59 O70 2.093 . S
Co59 O83 2.097 . S
Co59 N100 2.151 . S
Co59 N108 2.214 . S
Co60 O61 2.160 . S
Co60 O66 2.058 . S
Co60 O76 2.057 . S
Co60 O91 2.037 . S
Co60 N95 2.145 . S
Co60 N116 2.257 . S
O61 Co59 2.143 . S
O61 Co60 2.160 . S
C62 O63 1.278 . S
C62 O70 1.224 . S
O63 C62 1.278 . S
C64 O65 1.245 . S
C64 O76 1.232 . S
O65 C64 1.245 . S
O66 Co60 2.058 . S
O66 C92 1.269 . S
O67 Co59 2.074 . S
O67 C92 1.257 . S
H68 C93 0.930 . S
H69 C99 0.930 . S
O70 Co59 2.093 . S
O70 C62 1.224 . S
H71 C103 0.929 . S
H72 C105 0.930 . S
H73 C106 0.930 . S
H74 C104 0.929 . S
H75 C107 0.928 . S
O76 Co60 2.057 . S
O76 C64 1.232 . S
H77 C96 0.929 . S
H78 C97 0.929 . S
H79 C109 0.931 . S
H80 C101 0.929 . S
H81 C110 0.930 . S
H82 C102 0.931 . S
O83 Co59 2.097 . S
O83 C111 1.214 . S
H84 C112 0.929 . S
H85 C113 0.929 . S
H86 C114 0.930 . S
H87 C115 0.929 . S
H88 C117 0.930 . S
H89 C94 0.930 . S
H90 C98 0.930 . S
O91 Co60 2.037 . S
O91 C111 1.234 . S
C92 O66 1.269 . S
C92 O67 1.257 . S
C93 H68 0.930 . S
C93 C96 1.388 . S
C93 C98 1.418 . S
C94 H89 0.930 . S
C94 C97 1.404 . S
C94 C98 1.353 . S
N95 Co60 2.145 . S
N95 C96 1.397 . S
N95 C97 1.334 . S
C96 H77 0.929 . S
C96 C93 1.388 . S
C96 N95 1.397 . S
C97 H78 0.929 . S
C97 C94 1.404 . S
C97 N95 1.334 . S
C98 H90 0.930 . S
C98 C93 1.418 . S
C98 C94 1.353 . S
C99 H69 0.930 . S
C99 N100 1.330 . S
C99 C101 1.446 . S
N100 Co59 2.151 . S
N100 C99 1.330 . S
N100 C104 1.418 . S
C101 H80 0.929 . S
C101 C99 1.446 . S
C101 C102 1.332 . S
C102 H82 0.931 . S
C102 C101 1.332 . S
C102 C103 1.267 . S
C103 H71 0.929 . S
C103 C102 1.267 . S
C103 C104 1.251 . S
C104 H74 0.929 . S
C104 N100 1.418 . S
C104 C103 1.251 . S
C105 H72 0.930 . S
C105 C107 1.406 . S
C105 C110 1.261 . S
C106 H73 0.930 . S
C106 N108 1.325 . S
C106 C109 1.357 . S
C107 H75 0.928 . S
C107 C105 1.406 . S
C107 N108 1.261 . S
N108 Co59 2.214 . S
N108 C106 1.325 . S
N108 C107 1.261 . S
C109 H79 0.931 . S
C109 C106 1.357 . S
C109 C110 1.312 . S
C110 H81 0.930 . S
C110 C105 1.261 . S
C110 C109 1.312 . S
C111 O83 1.214 . S
C111 O91 1.234 . S
C112 H84 0.929 . S
C112 C115 1.391 . S
C112 C117 1.391 . S
C113 H85 0.929 . S
C113 C114 1.390 . S
C113 N116 1.391 . S
C114 H86 0.930 . S
C114 C113 1.390 . S
C114 C115 1.392 . S
C115 H87 0.929 . S
C115 C112 1.391 . S
C115 C114 1.392 . S
N116 Co60 2.257 . S
N116 C113 1.391 . S
N116 C117 1.388 . S
C117 H88 0.930 . S
C117 C112 1.391 . S
C117 N116 1.388 . S
Co118 O120 2.143 . S
Co118 O126 2.074 . S
Co118 O129 2.093 . S
Co118 O142 2.097 . S
Co118 N159 2.151 . S
Co118 N167 2.214 . S
Co119 O120 2.160 . S
Co119 O125 2.058 . S
Co119 O135 2.057 . S
Co119 O150 2.037 . S
Co119 N154 2.145 . S
Co119 N175 2.257 . S
O120 Co118 2.143 . S
O120 Co119 2.160 . S
C121 O122 1.278 . S
C121 O129 1.224 . S
O122 C121 1.278 . S
C123 O124 1.245 . S
C123 O135 1.232 . S
O124 C123 1.245 . S
O125 Co119 2.058 . S
O125 C151 1.269 . S
O126 Co118 2.074 . S
O126 C151 1.257 . S
H127 C152 0.930 . S
H128 C158 0.930 . S
O129 Co118 2.093 . S
O129 C121 1.224 . S
H130 C162 0.929 1_565 S
H131 C164 0.930 . S
H132 C165 0.930 . S
H133 C163 0.929 . S
H134 C166 0.928 . S
O135 Co119 2.057 . S
O135 C123 1.232 . S
H136 C155 0.929 . S
H137 C156 0.929 . S
H138 C168 0.931 . S
H139 C160 0.929 . S
H140 C169 0.930 . S
H141 C161 0.902 1_565 S
O142 Co118 2.097 . S
O142 C170 1.214 . S
H143 C171 0.929 . S
H144 C172 0.929 . S
H145 C173 0.930 . S
H146 C174 0.929 . S
H147 C176 0.930 . S
H148 C153 0.930 . S
H149 C157 0.930 . S
O150 Co119 2.037 . S
O150 C170 1.234 . S
C151 O125 1.269 . S
C151 O126 1.257 . S
C152 H127 0.930 . S
C152 C155 1.388 . S
C152 C157 1.418 . S
C153 H148 0.930 . S
C153 C156 1.404 . S
C153 C157 1.353 . S
N154 Co119 2.145 . S
N154 C155 1.397 . S
N154 C156 1.334 . S
C155 H136 0.929 . S
C155 C152 1.388 . S
C155 N154 1.397 . S
C156 H137 0.929 . S
C156 C153 1.404 . S
C156 N154 1.334 . S
C157 H149 0.930 . S
C157 C152 1.418 . S
C157 C153 1.353 . S
C158 H128 0.930 . S
C158 N159 1.330 . S
C158 C160 1.446 . S
N159 Co118 2.151 . S
N159 C158 1.330 . S
N159 C163 1.418 . S
C160 H139 0.929 . S
C160 C158 1.446 . S
C160 C161 1.377 . S
C161 H141 0.902 1_545 S
C161 C160 1.377 . S
C161 C162 1.250 . S
C162 H130 0.929 1_545 S
C162 C161 1.250 . S
C162 C163 1.251 . S
C163 H133 0.929 . S
C163 N159 1.418 . S
C163 C162 1.251 . S
C164 H131 0.930 . S
C164 C166 1.406 . S
C164 C169 1.261 . S
C165 H132 0.930 . S
C165 N167 1.325 . S
C165 C168 1.357 . S
C166 H134 0.928 . S
C166 C164 1.406 . S
C166 N167 1.261 . S
N167 Co118 2.214 . S
N167 C165 1.325 . S
N167 C166 1.261 . S
C168 H138 0.931 . S
C168 C165 1.357 . S
C168 C169 1.312 . S
C169 H140 0.930 . S
C169 C164 1.261 . S
C169 C168 1.312 . S
C170 O142 1.214 . S
C170 O150 1.234 . S
C171 H143 0.929 . S
C171 C174 1.391 . S
C171 C176 1.391 . S
C172 H144 0.929 . S
C172 C173 1.390 . S
C172 N175 1.391 . S
C173 H145 0.930 . S
C173 C172 1.390 . S
C173 C174 1.392 . S
C174 H146 0.929 . S
C174 C171 1.391 . S
C174 C173 1.392 . S
N175 Co119 2.257 . S
N175 C172 1.391 . S
N175 C176 1.388 . S
C176 H147 0.930 . S
C176 C171 1.391 . S
C176 N175 1.388 . S
Co177 O179 2.143 . S
Co177 O185 2.074 . S
Co177 O188 2.093 . S
Co177 O201 2.097 . S
Co177 N218 2.151 . S
Co177 N226 2.214 . S
Co178 O179 2.160 . S
Co178 O184 2.058 . S
Co178 O194 2.057 . S
Co178 O209 2.037 . S
Co178 N213 2.145 . S
Co178 N234 2.257 . S
O179 Co177 2.143 . S
O179 Co178 2.160 . S
C180 O181 1.278 . S
C180 O188 1.224 . S
O181 C180 1.278 . S
C182 O183 1.245 . S
C182 O194 1.232 . S
O183 C182 1.245 . S
O184 Co178 2.058 . S
O184 C210 1.269 . S
O185 Co177 2.074 . S
O185 C210 1.257 . S
H186 C211 0.930 . S
H187 C217 0.930 . S
O188 Co177 2.093 . S
O188 C180 1.224 . S
H189 C221 0.929 1_655 S
H190 C223 0.930 . S
H191 C224 0.930 . S
H192 C222 0.929 . S
H193 C225 0.928 . S
O194 Co178 2.057 . S
O194 C182 1.232 . S
H195 C214 0.929 . S
H196 C215 0.929 . S
H197 C227 0.931 . S
H198 C219 0.929 . S
H199 C228 0.930 . S
H200 C220 0.878 1_655 S
O201 Co177 2.097 . S
O201 C229 1.214 . S
H202 C230 0.929 . S
H203 C231 0.929 . S
H204 C232 0.930 . S
H205 C233 0.929 . S
H206 C235 0.930 . S
H207 C212 0.930 . S
H208 C216 0.930 . S
O209 Co178 2.037 . S
O209 C229 1.234 . S
C210 O184 1.269 . S
C210 O185 1.257 . S
C211 H186 0.930 . S
C211 C214 1.388 . S
C211 C216 1.418 . S
C212 H207 0.930 . S
C212 C215 1.404 . S
C212 C216 1.353 . S
N213 Co178 2.145 . S
N213 C214 1.397 . S
N213 C215 1.334 . S
C214 H195 0.929 . S
C214 C211 1.388 . S
C214 N213 1.397 . S
C215 H196 0.929 . S
C215 C212 1.404 . S
C215 N213 1.334 . S
C216 H208 0.930 . S
C216 C211 1.418 . S
C216 C212 1.353 . S
C217 H187 0.930 . S
C217 N218 1.330 . S
C217 C219 1.446 . S
N218 Co177 2.151 . S
N218 C217 1.330 . S
N218 C222 1.418 . S
C219 H198 0.929 . S
C219 C217 1.446 . S
C219 C220 1.351 . S
C220 H200 0.878 1_455 S
C220 C219 1.351 . S
C220 C221 1.300 . S
C221 H189 0.929 1_455 S
C221 C220 1.300 . S
C221 C222 1.251 . S
C222 H192 0.929 . S
C222 N218 1.418 . S
C222 C221 1.251 . S
C223 H190 0.930 . S
C223 C225 1.406 . S
C223 C228 1.261 . S
C224 H191 0.930 . S
C224 N226 1.325 . S
C224 C227 1.357 . S
C225 H193 0.928 . S
C225 C223 1.406 . S
C225 N226 1.261 . S
N226 Co177 2.214 . S
N226 C224 1.325 . S
N226 C225 1.261 . S
C227 H197 0.931 . S
C227 C224 1.357 . S
C227 C228 1.312 . S
C228 H199 0.930 . S
C228 C223 1.261 . S
C228 C227 1.312 . S
C229 O201 1.214 . S
C229 O209 1.234 . S
C230 H202 0.929 . S
C230 C233 1.391 . S
C230 C235 1.391 . S
C231 H203 0.929 . S
C231 C232 1.390 . S
C231 N234 1.391 . S
C232 H204 0.930 . S
C232 C231 1.390 . S
C232 C233 1.392 . S
C233 H205 0.929 . S
C233 C230 1.391 . S
C233 C232 1.392 . S
N234 Co178 2.257 . S
N234 C231 1.391 . S
N234 C235 1.388 . S
C235 H206 0.930 . S
C235 C230 1.391 . S
C235 N234 1.388 . S
Co236 O238 2.143 . S
Co236 O244 2.074 . S
Co236 O247 2.093 . S
Co236 O260 2.097 . S
Co236 N277 2.151 . S
Co236 N285 2.214 . S
Co237 O238 2.160 . S
Co237 O243 2.058 . S
Co237 O253 2.057 . S
Co237 O268 2.037 . S
Co237 N272 2.145 . S
Co237 N293 2.257 . S
O238 Co236 2.143 . S
O238 Co237 2.160 . S
C239 O240 1.278 . S
C239 O247 1.224 . S
O240 C239 1.278 . S
C241 O242 1.245 . S
C241 O253 1.232 . S
O242 C241 1.245 . S
O243 Co237 2.058 . S
O243 C269 1.269 . S
O244 Co236 2.074 . S
O244 C269 1.257 . S
H245 C270 0.930 . S
H246 C276 0.930 . S
O247 Co236 2.093 . S
O247 C239 1.224 . S
H248 C280 0.929 . S
H249 C282 0.930 . S
H250 C283 0.930 . S
H251 C281 0.929 . S
H252 C284 0.928 . S
O253 Co237 2.057 . S
O253 C241 1.232 . S
H254 C273 0.929 . S
H255 C274 0.929 . S
H256 C286 0.931 . S
H257 C278 0.929 . S
H258 C287 0.930 . S
H259 C279 0.931 . S
O260 Co236 2.097 . S
O260 C288 1.214 . S
H261 C289 0.929 . S
H262 C290 0.929 . S
H263 C291 0.930 . S
H264 C292 0.929 . S
H265 C294 0.930 . S
H266 C271 0.930 . S
H267 C275 0.930 . S
O268 Co237 2.037 . S
O268 C288 1.234 . S
C269 O243 1.269 . S
C269 O244 1.257 . S
C270 H245 0.930 . S
C270 C273 1.388 . S
C270 C275 1.418 . S
C271 H266 0.930 . S
C271 C274 1.404 . S
C271 C275 1.353 . S
N272 Co237 2.145 . S
N272 C273 1.397 . S
N272 C274 1.334 . S
C273 H254 0.929 . S
C273 C270 1.388 . S
C273 N272 1.397 . S
C274 H255 0.929 . S
C274 C271 1.404 . S
C274 N272 1.334 . S
C275 H267 0.930 . S
C275 C270 1.418 . S
C275 C271 1.353 . S
C276 H246 0.930 . S
C276 N277 1.330 . S
C276 C278 1.446 . S
N277 Co236 2.151 . S
N277 C276 1.330 . S
N277 C281 1.418 . S
C278 H257 0.929 . S
C278 C276 1.446 . S
C278 C279 1.332 . S
C279 H259 0.931 . S
C279 C278 1.332 . S
C279 C280 1.267 . S
C280 H248 0.929 . S
C280 C279 1.267 . S
C280 C281 1.251 . S
C281 H251 0.929 . S
C281 N277 1.418 . S
C281 C280 1.251 . S
C282 H249 0.930 . S
C282 C284 1.406 . S
C282 C287 1.261 . S
C283 H250 0.930 . S
C283 N285 1.325 . S
C283 C286 1.357 . S
C284 H252 0.928 . S
C284 C282 1.406 . S
C284 N285 1.261 . S
N285 Co236 2.214 . S
N285 C283 1.325 . S
N285 C284 1.261 . S
C286 H256 0.931 . S
C286 C283 1.357 . S
C286 C287 1.312 . S
C287 H258 0.930 . S
C287 C282 1.261 . S
C287 C286 1.312 . S
C288 O260 1.214 . S
C288 O268 1.234 . S
C289 H261 0.929 . S
C289 C292 1.391 . S
C289 C294 1.391 . S
C290 H262 0.929 . S
C290 C291 1.390 . S
C290 N293 1.391 . S
C291 H263 0.930 . S
C291 C290 1.390 . S
C291 C292 1.392 . S
C292 H264 0.929 . S
C292 C289 1.391 . S
C292 C291 1.392 . S
N293 Co237 2.257 . S
N293 C290 1.391 . S
N293 C294 1.388 . S
C294 H265 0.930 . S
C294 C289 1.391 . S
C294 N293 1.388 . S
Co295 O297 2.143 . S
Co295 O303 2.074 . S
Co295 O306 2.093 . S
Co295 O319 2.097 . S
Co295 N336 2.151 . S
Co295 N344 2.214 . S
Co296 O297 2.160 . S
Co296 O302 2.058 . S
Co296 O312 2.057 . S
Co296 O327 2.037 . S
Co296 N331 2.145 . S
Co296 N352 2.257 . S
O297 Co295 2.143 . S
O297 Co296 2.160 . S
C298 O299 1.278 . S
C298 O306 1.224 . S
O299 C298 1.278 . S
C300 O301 1.245 . S
C300 O312 1.232 . S
O301 C300 1.245 . S
O302 Co296 2.058 . S
O302 C328 1.269 . S
O303 Co295 2.074 . S
O303 C328 1.257 . S
H304 C329 0.930 . S
H305 C335 0.930 . S
O306 Co295 2.093 . S
O306 C298 1.224 . S
H307 C339 0.929 . S
H308 C341 0.930 . S
H309 C342 0.930 . S
H310 C340 0.929 . S
H311 C343 0.928 . S
O312 Co296 2.057 . S
O312 C300 1.232 . S
H313 C332 0.929 . S
H314 C333 0.929 . S
H315 C345 0.931 . S
H316 C337 0.929 . S
H317 C346 0.930 . S
H318 C338 0.931 . S
O319 Co295 2.097 . S
O319 C347 1.214 . S
H320 C348 0.929 . S
H321 C349 0.929 . S
H322 C350 0.930 1_565 S
H323 C351 0.929 1_565 S
H324 C353 0.930 . S
H325 C330 0.930 . S
H326 C334 0.930 . S
O327 Co296 2.037 . S
O327 C347 1.234 . S
C328 O302 1.269 . S
C328 O303 1.257 . S
C329 H304 0.930 . S
C329 C332 1.388 . S
C329 C334 1.418 . S
C330 H325 0.930 . S
C330 C333 1.404 . S
C330 C334 1.353 . S
N331 Co296 2.145 . S
N331 C332 1.397 . S
N331 C333 1.334 . S
C332 H313 0.929 . S
C332 C329 1.388 . S
C332 N331 1.397 . S
C333 H314 0.929 . S
C333 C330 1.404 . S
C333 N331 1.334 . S
C334 H326 0.930 . S
C334 C329 1.418 . S
C334 C330 1.353 . S
C335 H305 0.930 . S
C335 N336 1.330 . S
C335 C337 1.446 . S
N336 Co295 2.151 . S
N336 C335 1.330 . S
N336 C340 1.418 . S
C337 H316 0.929 . S
C337 C335 1.446 . S
C337 C338 1.332 . S
C338 H318 0.931 . S
C338 C337 1.332 . S
C338 C339 1.267 . S
C339 H307 0.929 . S
C339 C338 1.267 . S
C339 C340 1.251 . S
C340 H310 0.929 . S
C340 N336 1.418 . S
C340 C339 1.251 . S
C341 H308 0.930 . S
C341 C343 1.406 . S
C341 C346 1.261 . S
C342 H309 0.930 . S
C342 N344 1.325 . S
C342 C345 1.357 . S
C343 H311 0.928 . S
C343 C341 1.406 . S
C343 N344 1.261 . S
N344 Co295 2.214 . S
N344 C342 1.325 . S
N344 C343 1.261 . S
C345 H315 0.931 . S
C345 C342 1.357 . S
C345 C346 1.312 . S
C346 H317 0.930 . S
C346 C341 1.261 . S
C346 C345 1.312 . S
C347 O319 1.214 . S
C347 O327 1.234 . S
C348 H320 0.929 . S
C348 C351 1.391 . S
C348 C353 1.391 . S
C349 H321 0.929 . S
C349 C350 1.390 . S
C349 N352 1.391 . S
C350 H322 0.930 1_545 S
C350 C349 1.390 . S
C350 C351 1.392 . S
C351 H323 0.929 1_545 S
C351 C348 1.391 . S
C351 C350 1.392 . S
N352 Co296 2.257 . S
N352 C349 1.391 . S
N352 C353 1.388 . S
C353 H324 0.930 . S
C353 C348 1.391 . S
C353 N352 1.388 . S
Co354 O356 2.143 . S
Co354 O362 2.074 . S
Co354 O365 2.093 . S
Co354 O378 2.097 . S
Co354 N395 2.151 . S
Co354 N403 2.214 . S
Co355 O356 2.160 . S
Co355 O361 2.058 . S
Co355 O371 2.057 . S
Co355 O386 2.037 . S
Co355 N390 2.145 . S
Co355 N411 2.257 . S
O356 Co354 2.143 . S
O356 Co355 2.160 . S
C357 O358 1.278 . S
C357 O365 1.224 . S
O358 C357 1.278 . S
C359 O360 1.245 . S
C359 O371 1.232 . S
O360 C359 1.245 . S
O361 Co355 2.058 . S
O361 C387 1.269 . S
O362 Co354 2.074 . S
O362 C387 1.257 . S
H363 C388 0.930 . S
H364 C394 0.930 . S
O365 Co354 2.093 . S
O365 C357 1.224 . S
H366 C398 0.929 . S
H367 C400 0.930 . S
H368 C401 0.930 . S
H369 C399 0.929 . S
H370 C402 0.928 . S
O371 Co355 2.057 . S
O371 C359 1.232 . S
H372 C391 0.929 . S
H373 C392 0.929 . S
H374 C404 0.931 1_545 S
H375 C396 0.929 . S
H376 C405 0.930 . S
H377 C397 0.931 . S
O378 Co354 2.097 . S
O378 C406 1.214 . S
H379 C407 0.929 . S
H380 C408 0.900 1_545 S
H381 C409 0.956 . S
H382 C410 0.929 . S
H383 C412 0.930 . S
H384 C389 0.971 . S
H385 C393 0.930 . S
O386 Co355 2.037 . S
O386 C406 1.234 . S
C387 O361 1.269 . S
C387 O362 1.257 . S
C388 H363 0.930 . S
C388 C391 1.388 . S
C388 C393 1.418 . S
C389 H384 0.971 . S
C389 C392 1.404 1_545 S
C389 C393 1.353 . S
N390 Co355 2.145 . S
N390 C391 1.397 1_565 S
N390 C392 1.334 . S
C391 H372 0.929 . S
C391 C388 1.388 . S
C391 N390 1.397 1_545 S
C392 H373 0.929 . S
C392 C389 1.404 1_565 S
C392 N390 1.334 . S
C393 H385 0.930 . S
C393 C388 1.418 . S
C393 C389 1.353 . S
C394 H364 0.930 . S
C394 N395 1.330 . S
C394 C396 1.446 . S
N395 Co354 2.151 . S
N395 C394 1.330 . S
N395 C399 1.418 . S
C396 H375 0.929 . S
C396 C394 1.446 . S
C396 C397 1.332 . S
C397 H377 0.931 . S
C397 C396 1.332 . S
C397 C398 1.267 . S
C398 H366 0.929 . S
C398 C397 1.267 . S
C398 C399 1.251 . S
C399 H369 0.929 . S
C399 N395 1.418 . S
C399 C398 1.251 . S
C400 H367 0.930 . S
C400 C402 1.406 . S
C400 C405 1.261 . S
C401 H368 0.930 . S
C401 N403 1.325 . S
C401 C404 1.357 . S
C402 H370 0.928 . S
C402 C400 1.406 . S
C402 N403 1.261 . S
N403 Co354 2.214 . S
N403 C401 1.325 . S
N403 C402 1.261 . S
C404 H374 0.931 1_565 S
C404 C401 1.357 . S
C404 C405 1.312 . S
C405 H376 0.930 . S
C405 C400 1.261 . S
C405 C404 1.312 . S
C406 O378 1.214 . S
C406 O386 1.234 . S
C407 H379 0.929 . S
C407 C410 1.391 . S
C407 C412 1.391 . S
C408 H380 0.900 1_565 S
C408 C409 1.390 . S
C408 N411 1.391 . S
C409 H381 0.956 . S
C409 C408 1.390 . S
C409 C410 1.392 . S
C410 H382 0.929 . S
C410 C407 1.391 . S
C410 C409 1.392 . S
N411 Co355 2.257 . S
N411 C408 1.391 . S
N411 C412 1.388 . S
C412 H383 0.930 . S
C412 C407 1.391 . S
C412 N411 1.388 . S
Co413 O415 2.143 . S
Co413 O421 2.074 . S
Co413 O424 2.093 . S
Co413 O437 2.097 . S
Co413 N454 2.151 . S
Co413 N462 2.214 . S
Co414 O415 2.160 . S
Co414 O420 2.058 . S
Co414 O430 2.057 . S
Co414 O445 2.037 . S
Co414 N449 2.145 . S
Co414 N470 2.257 . S
O415 Co413 2.143 . S
O415 Co414 2.160 . S
C416 O417 1.278 . S
C416 O424 1.224 . S
O417 C416 1.278 . S
C418 O419 1.245 . S
C418 O430 1.232 . S
O419 C418 1.245 . S
O420 Co414 2.058 . S
O420 C446 1.269 . S
O421 Co413 2.074 . S
O421 C446 1.257 . S
H422 C447 0.930 . S
H423 C453 0.930 . S
O424 Co413 2.093 . S
O424 C416 1.224 . S
H425 C457 0.929 . S
H426 C459 0.930 . S
H427 C460 0.930 . S
H428 C458 0.929 . S
H429 C461 0.928 . S
O430 Co414 2.057 . S
O430 C418 1.232 . S
H431 C450 0.929 . S
H432 C451 0.929 . S
H433 C463 0.931 . S
H434 C455 0.929 . S
H435 C464 0.930 . S
H436 C456 0.931 . S
O437 Co413 2.097 . S
O437 C465 1.214 . S
H438 C466 0.929 . S
H439 C467 0.929 . S
H440 C468 0.930 . S
H441 C469 0.929 . S
H442 C471 0.930 . S
H443 C448 0.930 . S
H444 C452 0.930 . S
O445 Co414 2.037 . S
O445 C465 1.234 . S
C446 O420 1.269 . S
C446 O421 1.257 . S
C447 H422 0.930 . S
C447 C450 1.388 . S
C447 C452 1.418 . S
C448 H443 0.930 . S
C448 C451 1.404 . S
C448 C452 1.353 . S
N449 Co414 2.145 . S
N449 C450 1.397 . S
N449 C451 1.334 . S
C450 H431 0.929 . S
C450 C447 1.388 . S
C450 N449 1.397 . S
C451 H432 0.929 . S
C451 C448 1.404 . S
C451 N449 1.334 . S
C452 H444 0.930 . S
C452 C447 1.418 . S
C452 C448 1.353 . S
C453 H423 0.930 . S
C453 N454 1.330 . S
C453 C455 1.446 . S
N454 Co413 2.151 . S
N454 C453 1.330 . S
N454 C458 1.418 . S
C455 H434 0.929 . S
C455 C453 1.446 . S
C455 C456 1.332 . S
C456 H436 0.931 . S
C456 C455 1.332 . S
C456 C457 1.267 . S
C457 H425 0.929 . S
C457 C456 1.267 . S
C457 C458 1.251 . S
C458 H428 0.929 . S
C458 N454 1.418 . S
C458 C457 1.251 . S
C459 H426 0.930 . S
C459 C461 1.406 . S
C459 C464 1.261 . S
C460 H427 0.930 . S
C460 N462 1.325 . S
C460 C463 1.357 . S
C461 H429 0.928 . S
C461 C459 1.406 . S
C461 N462 1.261 . S
N462 Co413 2.214 . S
N462 C460 1.325 . S
N462 C461 1.261 . S
C463 H433 0.931 . S
C463 C460 1.357 . S
C463 C464 1.312 . S
C464 H435 0.930 . S
C464 C459 1.261 . S
C464 C463 1.312 . S
C465 O437 1.214 . S
C465 O445 1.234 . S
C466 H438 0.929 . S
C466 C469 1.391 . S
C466 C471 1.391 . S
C467 H439 0.929 . S
C467 C468 1.390 . S
C467 N470 1.391 . S
C468 H440 0.930 . S
C468 C467 1.390 . S
C468 C469 1.392 . S
C469 H441 0.929 . S
C469 C466 1.391 . S
C469 C468 1.392 . S
N470 Co414 2.257 . S
N470 C467 1.391 . S
N470 C471 1.388 . S
C471 H442 0.930 . S
C471 C466 1.391 . S
C471 N470 1.388 . S
Co472 O474 2.143 . S
Co472 O480 2.074 . S
Co472 O483 2.093 . S
Co472 O496 2.097 . S
Co472 N513 2.151 . S
Co472 N521 2.214 . S
Co473 O474 2.160 . S
Co473 O479 2.058 . S
Co473 O489 2.057 . S
Co473 O504 2.037 . S
Co473 N508 2.145 . S
Co473 N529 2.257 . S
O474 Co472 2.143 . S
O474 Co473 2.160 . S
C475 O476 1.278 . S
C475 O483 1.224 . S
O476 C475 1.278 . S
C477 O478 1.245 . S
C477 O489 1.232 . S
O478 C477 1.245 . S
O479 Co473 2.058 . S
O479 C505 1.269 . S
O480 Co472 2.074 . S
O480 C505 1.257 . S
H481 C506 0.930 . S
H482 C512 0.930 . S
O483 Co472 2.093 . S
O483 C475 1.224 . S
H484 C516 0.929 . S
H485 C518 0.930 . S
H486 C519 0.930 . S
H487 C517 0.929 . S
H488 C520 0.928 . S
O489 Co473 2.057 . S
O489 C477 1.232 . S
H490 C509 0.929 . S
H491 C510 0.929 . S
H492 C522 0.931 . S
H493 C514 0.929 . S
H494 C523 0.930 . S
H495 C515 0.931 . S
O496 Co472 2.097 . S
O496 C524 1.214 . S
H497 C525 0.929 . S
H498 C526 0.929 . S
H499 C527 0.930 . S
H500 C528 0.929 . S
H501 C530 0.930 . S
H502 C507 0.930 . S
H503 C511 0.930 . S
O504 Co473 2.037 . S
O504 C524 1.234 . S
C505 O479 1.269 . S
C505 O480 1.257 . S
C506 H481 0.930 . S
C506 C509 1.388 . S
C506 C511 1.418 . S
C507 H502 0.930 . S
C507 C510 1.404 . S
C507 C511 1.353 . S
N508 Co473 2.145 . S
N508 C509 1.397 . S
N508 C510 1.334 . S
C509 H490 0.929 . S
C509 C506 1.388 . S
C509 N508 1.397 . S
C510 H491 0.929 . S
C510 C507 1.404 . S
C510 N508 1.334 . S
C511 H503 0.930 . S
C511 C506 1.418 . S
C511 C507 1.353 . S
C512 H482 0.930 . S
C512 N513 1.330 . S
C512 C514 1.446 . S
N513 Co472 2.151 . S
N513 C512 1.330 . S
N513 C517 1.418 . S
C514 H493 0.929 . S
C514 C512 1.446 . S
C514 C515 1.332 . S
C515 H495 0.931 . S
C515 C514 1.332 . S
C515 C516 1.267 . S
C516 H484 0.929 . S
C516 C515 1.267 . S
C516 C517 1.251 . S
C517 H487 0.929 . S
C517 N513 1.418 . S
C517 C516 1.251 . S
C518 H485 0.930 . S
C518 C520 1.406 . S
C518 C523 1.261 . S
C519 H486 0.930 . S
C519 N521 1.325 . S
C519 C522 1.357 . S
C520 H488 0.928 . S
C520 C518 1.406 . S
C520 N521 1.261 . S
N521 Co472 2.214 . S
N521 C519 1.325 . S
N521 C520 1.261 . S
C522 H492 0.931 . S
C522 C519 1.357 . S
C522 C523 1.312 . S
C523 H494 0.930 . S
C523 C518 1.261 . S
C523 C522 1.312 . S
C524 O496 1.214 . S
C524 O504 1.234 . S
C525 H497 0.929 . S
C525 C528 1.391 . S
C525 C530 1.391 . S
C526 H498 0.929 . S
C526 C527 1.390 . S
C526 N529 1.391 . S
C527 H499 0.930 . S
C527 C526 1.390 . S
C527 C528 1.392 . S
C528 H500 0.929 . S
C528 C525 1.391 . S
C528 C527 1.392 . S
N529 Co473 2.257 . S
N529 C526 1.391 . S
N529 C530 1.388 . S
C530 H501 0.930 . S
C530 C525 1.391 . S
C530 N529 1.388 . S
Co531 O533 2.143 . S
Co531 O539 2.074 . S
Co531 O542 2.093 . S
Co531 O555 2.097 . S
Co531 N572 2.151 . S
Co531 N580 2.214 . S
Co532 O533 2.160 . S
Co532 O538 2.058 . S
Co532 O548 2.057 1_554 S
Co532 O563 2.037 . S
Co532 N567 2.145 1_554 S
Co532 N588 2.257 . S
O533 Co531 2.143 . S
O533 Co532 2.160 . S
C534 O535 1.278 . S
C534 O542 1.224 . S
O535 C534 1.278 . S
C536 O537 1.245 1_556 S
C536 O548 1.232 . S
O537 C536 1.245 1_554 S
O538 Co532 2.058 . S
O538 C564 1.269 . S
O539 Co531 2.074 . S
O539 C564 1.257 . S
H540 C565 0.930 . S
H541 C571 0.930 . S
O542 Co531 2.093 . S
O542 C534 1.224 . S
H543 C575 0.929 . S
H544 C577 0.930 . S
H545 C578 0.930 . S
H546 C576 0.929 . S
H547 C579 0.928 . S
O548 Co532 2.057 1_556 S
O548 C536 1.232 . S
H549 C568 0.929 . S
H550 C569 0.929 . S
H551 C581 0.931 . S
H552 C573 0.929 . S
H553 C582 0.930 . S
H554 C574 0.931 . S
O555 Co531 2.097 . S
O555 C583 1.214 . S
H556 C584 0.929 . S
H557 C585 0.929 . S
H558 C586 0.930 . S
H559 C587 0.929 . S
H560 C589 0.930 . S
H561 C566 0.930 . S
H562 C570 0.930 . S
O563 Co532 2.037 . S
O563 C583 1.234 . S
C564 O538 1.269 . S
C564 O539 1.257 . S
C565 H540 0.930 . S
C565 C568 1.388 1_556 S
C565 C570 1.418 . S
C566 H561 0.930 . S
C566 C569 1.404 . S
C566 C570 1.353 . S
N567 Co532 2.145 1_556 S
N567 C568 1.397 1_556 S
N567 C569 1.334 . S
C568 H549 0.929 . S
C568 C565 1.388 1_554 S
C568 N567 1.397 1_554 S
C569 H550 0.929 . S
C569 C566 1.404 . S
C569 N567 1.334 . S
C570 H562 0.930 . S
C570 C565 1.418 . S
C570 C566 1.353 . S
C571 H541 0.930 . S
C571 N572 1.330 . S
C571 C573 1.446 . S
N572 Co531 2.151 . S
N572 C571 1.330 . S
N572 C576 1.418 . S
C573 H552 0.929 . S
C573 C571 1.446 . S
C573 C574 1.332 . S
C574 H554 0.931 . S
C574 C573 1.332 . S
C574 C575 1.267 . S
C575 H543 0.929 . S
C575 C574 1.267 . S
C575 C576 1.251 . S
C576 H546 0.929 . S
C576 N572 1.418 . S
C576 C575 1.251 . S
C577 H544 0.930 . S
C577 C579 1.406 . S
C577 C582 1.261 . S
C578 H545 0.930 . S
C578 N580 1.325 . S
C578 C581 1.357 . S
C579 H547 0.928 . S
C579 C577 1.406 . S
C579 N580 1.261 . S
N580 Co531 2.214 . S
N580 C578 1.325 . S
N580 C579 1.261 . S
C581 H551 0.931 . S
C581 C578 1.357 . S
C581 C582 1.312 . S
C582 H553 0.930 . S
C582 C577 1.261 . S
C582 C581 1.312 . S
C583 O555 1.214 . S
C583 O563 1.234 . S
C584 H556 0.929 . S
C584 C587 1.391 . S
C584 C589 1.391 . S
C585 H557 0.929 . S
C585 C586 1.390 . S
C585 N588 1.391 . S
C586 H558 0.930 . S
C586 C585 1.390 . S
C586 C587 1.392 . S
C587 H559 0.929 . S
C587 C584 1.391 . S
C587 C586 1.392 . S
N588 Co532 2.257 . S
N588 C585 1.391 . S
N588 C589 1.388 . S
C589 H560 0.930 . S
C589 C584 1.391 . S
C589 N588 1.388 . S
Co590 O592 2.143 . S
Co590 O598 2.074 . S
Co590 O601 2.093 . S
Co590 O614 2.097 . S
Co590 N631 2.151 . S
Co590 N639 2.214 . S
Co591 O592 2.160 . S
Co591 O597 2.058 . S
Co591 O607 2.041 1_554 S
Co591 O622 2.037 . S
Co591 N626 2.145 1_554 S
Co591 N647 2.257 . S
O592 Co590 2.143 . S
O592 Co591 2.160 . S
C593 O594 1.278 . S
C593 O601 1.224 . S
O594 C593 1.278 . S
C595 O596 1.245 1_556 S
C595 O607 1.233 . S
O596 C595 1.245 1_554 S
O597 Co591 2.058 . S
O597 C623 1.269 . S
O598 Co590 2.074 . S
O598 C623 1.257 . S
H599 C624 0.930 . S
H600 C630 0.930 . S
O601 Co590 2.093 . S
O601 C593 1.224 . S
H602 C634 0.929 . S
H603 C636 0.930 . S
H604 C637 0.930 . S
H605 C635 0.929 . S
H606 C638 0.928 . S
O607 Co591 2.041 1_556 S
O607 C595 1.233 . S
H608 C627 0.929 . S
H609 C628 0.929 . S
H610 C640 0.931 1_545 S
H611 C632 0.929 . S
H612 C641 0.930 . S
H613 C633 0.931 . S
O614 Co590 2.097 . S
O614 C642 1.214 . S
H615 C643 0.929 . S
H616 C644 0.915 1_545 S
H617 C645 0.981 . S
H618 C646 0.929 . S
H619 C648 0.930 . S
H620 C625 0.932 . S
H621 C629 0.930 . S
O622 Co591 2.037 . S
O622 C642 1.234 . S
C623 O597 1.269 . S
C623 O598 1.257 . S
C624 H599 0.930 . S
C624 C627 1.388 1_556 S
C624 C629 1.418 . S
C625 H620 0.932 . S
C625 C628 1.404 1_545 S
C625 C629 1.353 . S
N626 Co591 2.145 1_556 S
N626 C627 1.397 1_566 S
N626 C628 1.334 . S
C627 H608 0.929 . S
C627 C624 1.388 1_554 S
C627 N626 1.397 1_544 S
C628 H609 0.929 . S
C628 C625 1.404 1_565 S
C628 N626 1.334 . S
C629 H621 0.930 . S
C629 C624 1.418 . S
C629 C625 1.353 . S
C630 H600 0.930 . S
C630 N631 1.330 . S
C630 C632 1.446 . S
N631 Co590 2.151 . S
N631 C630 1.330 . S
N631 C635 1.418 . S
C632 H611 0.929 . S
C632 C630 1.446 . S
C632 C633 1.332 . S
C633 H613 0.931 . S
C633 C632 1.332 . S
C633 C634 1.267 . S
C634 H602 0.929 . S
C634 C633 1.267 . S
C634 C635 1.251 . S
C635 H605 0.929 . S
C635 N631 1.418 . S
C635 C634 1.251 . S
C636 H603 0.930 . S
C636 C638 1.406 . S
C636 C641 1.261 . S
C637 H604 0.930 . S
C637 N639 1.325 . S
C637 C640 1.357 . S
C638 H606 0.928 . S
C638 C636 1.406 . S
C638 N639 1.261 . S
N639 Co590 2.214 . S
N639 C637 1.325 . S
N639 C638 1.261 . S
C640 H610 0.931 1_565 S
C640 C637 1.357 . S
C640 C641 1.312 . S
C641 H612 0.930 . S
C641 C636 1.261 . S
C641 C640 1.312 . S
C642 O614 1.214 . S
C642 O622 1.234 . S
C643 H615 0.929 . S
C643 C646 1.391 . S
C643 C648 1.391 . S
C644 H616 0.915 1_565 S
C644 C645 1.390 . S
C644 N647 1.391 . S
C645 H617 0.981 . S
C645 C644 1.390 . S
C645 C646 1.392 . S
C646 H618 0.929 . S
C646 C643 1.391 . S
C646 C645 1.392 . S
N647 Co591 2.257 . S
N647 C644 1.391 . S
N647 C648 1.388 . S
C648 H619 0.930 . S
C648 C643 1.391 . S
C648 N647 1.388 . S
Co649 O651 2.143 . S
Co649 O657 2.074 . S
Co649 O660 2.093 . S
Co649 O673 2.097 . S
Co649 N690 2.151 . S
Co649 N698 2.214 . S
Co650 O651 2.160 . S
Co650 O656 2.058 . S
Co650 O666 2.057 1_554 S
Co650 O681 2.037 . S
Co650 N685 2.145 1_554 S
Co650 N706 2.257 . S
O651 Co649 2.143 . S
O651 Co650 2.160 . S
C652 O653 1.278 . S
C652 O660 1.224 . S
O653 C652 1.278 . S
C654 O655 1.245 1_556 S
C654 O666 1.232 . S
O655 C654 1.245 1_554 S
O656 Co650 2.058 . S
O656 C682 1.269 . S
O657 Co649 2.074 . S
O657 C682 1.257 . S
H658 C683 0.930 . S
H659 C689 0.930 . S
O660 Co649 2.093 . S
O660 C652 1.224 . S
H661 C693 0.929 . S
H662 C695 0.930 . S
H663 C696 0.930 . S
H664 C694 0.929 . S
H665 C697 0.928 . S
O666 Co650 2.057 1_556 S
O666 C654 1.232 . S
H667 C686 0.929 . S
H668 C687 0.929 . S
H669 C699 0.931 . S
H670 C691 0.929 . S
H671 C700 0.930 . S
H672 C692 0.931 . S
O673 Co649 2.097 . S
O673 C701 1.214 . S
H674 C702 0.929 . S
H675 C703 0.929 . S
H676 C704 0.930 . S
H677 C705 0.929 . S
H678 C707 0.930 . S
H679 C684 0.930 . S
H680 C688 0.930 . S
O681 Co650 2.037 . S
O681 C701 1.234 . S
C682 O656 1.269 . S
C682 O657 1.257 . S
C683 H658 0.930 . S
C683 C686 1.388 1_556 S
C683 C688 1.418 . S
C684 H679 0.930 . S
C684 C687 1.404 . S
C684 C688 1.353 . S
N685 Co650 2.145 1_556 S
N685 C686 1.397 1_556 S
N685 C687 1.334 . S
C686 H667 0.929 . S
C686 C683 1.388 1_554 S
C686 N685 1.397 1_554 S
C687 H668 0.929 . S
C687 C684 1.404 . S
C687 N685 1.334 . S
C688 H680 0.930 . S
C688 C683 1.418 . S
C688 C684 1.353 . S
C689 H659 0.930 . S
C689 N690 1.330 . S
C689 C691 1.446 . S
N690 Co649 2.151 . S
N690 C689 1.330 . S
N690 C694 1.418 . S
C691 H670 0.929 . S
C691 C689 1.446 . S
C691 C692 1.332 . S
C692 H672 0.931 . S
C692 C691 1.332 . S
C692 C693 1.267 . S
C693 H661 0.929 . S
C693 C692 1.267 . S
C693 C694 1.251 . S
C694 H664 0.929 . S
C694 N690 1.418 . S
C694 C693 1.251 . S
C695 H662 0.930 . S
C695 C697 1.406 . S
C695 C700 1.261 . S
C696 H663 0.930 . S
C696 N698 1.325 . S
C696 C699 1.357 . S
C697 H665 0.928 . S
C697 C695 1.406 . S
C697 N698 1.261 . S
N698 Co649 2.214 . S
N698 C696 1.325 . S
N698 C697 1.261 . S
C699 H669 0.931 . S
C699 C696 1.357 . S
C699 C700 1.312 . S
C700 H671 0.930 . S
C700 C695 1.261 . S
C700 C699 1.312 . S
C701 O673 1.214 . S
C701 O681 1.234 . S
C702 H674 0.929 . S
C702 C705 1.391 . S
C702 C707 1.391 . S
C703 H675 0.929 . S
C703 C704 1.390 . S
C703 N706 1.391 . S
C704 H676 0.930 . S
C704 C703 1.390 . S
C704 C705 1.392 . S
C705 H677 0.929 . S
C705 C702 1.391 . S
C705 C704 1.392 . S
N706 Co650 2.257 . S
N706 C703 1.391 . S
N706 C707 1.388 . S
C707 H678 0.930 . S
C707 C702 1.391 . S
C707 N706 1.388 . S
Co708 O710 2.143 . S
Co708 O716 2.074 . S
Co708 O719 2.093 . S
Co708 O732 2.097 . S
Co708 N749 2.151 . S
Co708 N757 2.214 . S
Co709 O710 2.160 . S
Co709 O715 2.058 . S
Co709 O725 2.057 1_556 S
Co709 O740 2.037 . S
Co709 N744 2.145 1_556 S
Co709 N765 2.257 . S
O710 Co708 2.143 . S
O710 Co709 2.160 . S
C711 O712 1.278 . S
C711 O719 1.224 . S
O712 C711 1.278 . S
C713 O714 1.245 1_554 S
C713 O725 1.232 . S
O714 C713 1.245 1_556 S
O715 Co709 2.058 . S
O715 C741 1.269 . S
O716 Co708 2.074 . S
O716 C741 1.257 . S
H717 C742 0.930 . S
H718 C748 0.930 . S
O719 Co708 2.093 . S
O719 C711 1.224 . S
H720 C752 0.929 . S
H721 C754 0.930 . S
H722 C755 0.930 . S
H723 C753 0.929 . S
H724 C756 0.928 . S
O725 Co709 2.057 1_554 S
O725 C713 1.232 . S
H726 C745 0.929 . S
H727 C746 0.929 . S
H728 C758 0.931 . S
H729 C750 0.929 . S
H730 C759 0.930 . S
H731 C751 0.931 . S
O732 Co708 2.097 . S
O732 C760 1.214 . S
H733 C761 0.929 . S
H734 C762 0.929 . S
H735 C763 0.930 . S
H736 C764 0.929 . S
H737 C766 0.930 . S
H738 C743 0.930 . S
H739 C747 0.930 . S
O740 Co709 2.037 . S
O740 C760 1.234 . S
C741 O715 1.269 . S
C741 O716 1.257 . S
C742 H717 0.930 . S
C742 C745 1.388 1_554 S
C742 C747 1.418 . S
C743 H738 0.930 . S
C743 C746 1.404 . S
C743 C747 1.353 . S
N744 Co709 2.145 1_554 S
N744 C745 1.397 1_554 S
N744 C746 1.334 . S
C745 H726 0.929 . S
C745 C742 1.388 1_556 S
C745 N744 1.397 1_556 S
C746 H727 0.929 . S
C746 C743 1.404 . S
C746 N744 1.334 . S
C747 H739 0.930 . S
C747 C742 1.418 . S
C747 C743 1.353 . S
C748 H718 0.930 . S
C748 N749 1.330 . S
C748 C750 1.446 . S
N749 Co708 2.151 . S
N749 C748 1.330 . S
N749 C753 1.418 . S
C750 H729 0.929 . S
C750 C748 1.446 . S
C750 C751 1.332 . S
C751 H731 0.931 . S
C751 C750 1.332 . S
C751 C752 1.267 . S
C752 H720 0.929 . S
C752 C751 1.267 . S
C752 C753 1.251 . S
C753 H723 0.929 . S
C753 N749 1.418 . S
C753 C752 1.251 . S
C754 H721 0.930 . S
C754 C756 1.406 . S
C754 C759 1.261 . S
C755 H722 0.930 . S
C755 N757 1.325 . S
C755 C758 1.357 . S
C756 H724 0.928 . S
C756 C754 1.406 . S
C756 N757 1.261 . S
N757 Co708 2.214 . S
N757 C755 1.325 . S
N757 C756 1.261 . S
C758 H728 0.931 . S
C758 C755 1.357 . S
C758 C759 1.312 . S
C759 H730 0.930 . S
C759 C754 1.261 . S
C759 C758 1.312 . S
C760 O732 1.214 . S
C760 O740 1.234 . S
C761 H733 0.929 . S
C761 C764 1.391 . S
C761 C766 1.391 . S
C762 H734 0.929 . S
C762 C763 1.390 . S
C762 N765 1.391 . S
C763 H735 0.930 . S
C763 C762 1.390 . S
C763 C764 1.392 . S
C764 H736 0.929 . S
C764 C761 1.391 . S
C764 C763 1.392 . S
N765 Co709 2.257 . S
N765 C762 1.391 . S
N765 C766 1.388 . S
C766 H737 0.930 . S
C766 C761 1.391 . S
C766 N765 1.388 . S
Co767 O769 2.143 . S
Co767 O775 2.074 . S
Co767 O778 2.093 1_556 S
Co767 O791 2.097 . S
Co767 N808 2.151 . S
Co767 N816 2.214 1_556 S
Co768 O769 2.160 . S
Co768 O774 2.058 . S
Co768 O784 2.057 . S
Co768 O799 2.037 . S
Co768 N803 2.145 . S
Co768 N824 2.257 . S
O769 Co767 2.143 . S
O769 Co768 2.160 . S
C770 O771 1.278 1_554 S
C770 O778 1.224 . S
O771 C770 1.278 1_556 S
C772 O773 1.245 . S
C772 O784 1.232 . S
O773 C772 1.245 . S
O774 Co768 2.058 . S
O774 C800 1.269 . S
O775 Co767 2.074 . S
O775 C800 1.257 . S
H776 C801 0.930 . S
H777 C807 0.930 . S
O778 Co767 2.093 1_554 S
O778 C770 1.224 . S
H779 C811 0.929 . S
H780 C813 0.930 . S
H781 C814 0.930 1_556 S
H782 C812 0.929 . S
H783 C815 0.928 . S
O784 Co768 2.057 . S
O784 C772 1.232 . S
H785 C804 0.929 . S
H786 C805 0.929 . S
H787 C817 0.931 . S
H788 C809 0.929 . S
H789 C818 0.930 . S
H790 C810 0.931 . S
O791 Co767 2.097 . S
O791 C819 1.214 . S
H792 C820 0.929 . S
H793 C821 0.929 . S
H794 C822 0.930 . S
H795 C823 0.929 . S
H796 C825 0.930 . S
H797 C802 0.930 . S
H798 C806 0.930 . S
O799 Co768 2.037 . S
O799 C819 1.234 . S
C800 O774 1.269 . S
C800 O775 1.257 . S
C801 H776 0.930 . S
C801 C804 1.388 . S
C801 C806 1.418 . S
C802 H797 0.930 . S
C802 C805 1.404 . S
C802 C806 1.353 . S
N803 Co768 2.145 . S
N803 C804 1.397 . S
N803 C805 1.334 . S
C804 H785 0.929 . S
C804 C801 1.388 . S
C804 N803 1.397 . S
C805 H786 0.929 . S
C805 C802 1.404 . S
C805 N803 1.334 . S
C806 H798 0.930 . S
C806 C801 1.418 . S
C806 C802 1.353 . S
C807 H777 0.930 . S
C807 N808 1.330 . S
C807 C809 1.446 . S
N808 Co767 2.151 . S
N808 C807 1.330 . S
N808 C812 1.418 . S
C809 H788 0.929 . S
C809 C807 1.446 . S
C809 C810 1.332 . S
C810 H790 0.931 . S
C810 C809 1.332 . S
C810 C811 1.267 . S
C811 H779 0.929 . S
C811 C810 1.267 . S
C811 C812 1.251 . S
C812 H782 0.929 . S
C812 N808 1.418 . S
C812 C811 1.251 . S
C813 H780 0.930 . S
C813 C815 1.406 . S
C813 C818 1.261 . S
C814 H781 0.930 1_554 S
C814 N816 1.325 . S
C814 C817 1.357 . S
C815 H783 0.928 . S
C815 C813 1.406 . S
C815 N816 1.261 . S
N816 Co767 2.214 1_554 S
N816 C814 1.325 . S
N816 C815 1.261 . S
C817 H787 0.931 . S
C817 C814 1.357 . S
C817 C818 1.312 . S
C818 H789 0.930 . S
C818 C813 1.261 . S
C818 C817 1.312 . S
C819 O791 1.214 . S
C819 O799 1.234 . S
C820 H792 0.929 . S
C820 C823 1.391 . S
C820 C825 1.391 . S
C821 H793 0.929 . S
C821 C822 1.390 . S
C821 N824 1.391 . S
C822 H794 0.930 . S
C822 C821 1.390 . S
C822 C823 1.392 . S
C823 H795 0.929 . S
C823 C820 1.391 . S
C823 C822 1.392 . S
N824 Co768 2.257 . S
N824 C821 1.391 . S
N824 C825 1.388 . S
C825 H796 0.930 . S
C825 C820 1.391 . S
C825 N824 1.388 . S
Co826 O828 2.143 . S
Co826 O834 2.074 . S
Co826 O837 2.093 . S
Co826 O850 2.097 . S
Co826 N867 2.151 . S
Co826 N875 2.214 . S
Co827 O828 2.160 . S
Co827 O833 2.058 . S
Co827 O843 2.051 1_556 S
Co827 O858 2.037 . S
Co827 N862 2.145 1_556 S
Co827 N883 2.257 . S
O828 Co826 2.143 . S
O828 Co827 2.160 . S
C829 O830 1.278 . S
C829 O837 1.224 . S
O830 C829 1.278 . S
C831 O832 1.245 1_554 S
C831 O843 1.232 . S
O832 C831 1.245 1_556 S
O833 Co827 2.058 . S
O833 C859 1.269 . S
O834 Co826 2.074 . S
O834 C859 1.257 . S
H835 C860 0.930 . S
H836 C866 0.930 . S
O837 Co826 2.093 . S
O837 C829 1.224 . S
H838 C870 0.929 . S
H839 C872 0.930 . S
H840 C873 0.930 . S
H841 C871 0.929 . S
H842 C874 0.928 . S
O843 Co827 2.051 1_554 S
O843 C831 1.232 . S
H844 C863 0.929 . S
H845 C864 0.929 . S
H846 C876 0.931 1_455 S
H847 C868 0.929 . S
H848 C877 0.930 . S
H849 C869 0.931 . S
O850 Co826 2.097 . S
O850 C878 1.214 . S
H851 C879 0.929 . S
H852 C880 0.870 1_455 S
H853 C881 0.940 . S
H854 C882 0.929 . S
H855 C884 0.930 . S
H856 C861 0.930 . S
H857 C865 0.930 . S
O858 Co827 2.037 . S
O858 C878 1.234 . S
C859 O833 1.269 . S
C859 O834 1.257 . S
C860 H835 0.930 . S
C860 C863 1.388 1_554 S
C860 C865 1.418 . S
C861 H856 0.930 . S
C861 C864 1.404 1_455 S
C861 C865 1.353 . S
N862 Co827 2.145 1_554 S
N862 C863 1.397 1_654 S
N862 C864 1.334 . S
C863 H844 0.929 . S
C863 C860 1.388 1_556 S
C863 N862 1.397 1_456 S
C864 H845 0.929 . S
C864 C861 1.404 1_655 S
C864 N862 1.334 . S
C865 H857 0.930 . S
C865 C860 1.418 . S
C865 C861 1.353 . S
C866 H836 0.930 . S
C866 N867 1.330 . S
C866 C868 1.446 . S
N867 Co826 2.151 . S
N867 C866 1.330 . S
N867 C871 1.418 . S
C868 H847 0.929 . S
C868 C866 1.446 . S
C868 C869 1.332 . S
C869 H849 0.931 . S
C869 C868 1.332 . S
C869 C870 1.267 . S
C870 H838 0.929 . S
C870 C869 1.267 . S
C870 C871 1.251 . S
C871 H841 0.929 . S
C871 N867 1.418 . S
C871 C870 1.251 . S
C872 H839 0.930 . S
C872 C874 1.406 . S
C872 C877 1.261 . S
C873 H840 0.930 . S
C873 N875 1.325 . S
C873 C876 1.357 . S
C874 H842 0.928 . S
C874 C872 1.406 . S
C874 N875 1.261 . S
N875 Co826 2.214 . S
N875 C873 1.325 . S
N875 C874 1.261 . S
C876 H846 0.931 1_655 S
C876 C873 1.357 . S
C876 C877 1.312 . S
C877 H848 0.930 . S
C877 C872 1.261 . S
C877 C876 1.312 . S
C878 O850 1.214 . S
C878 O858 1.234 . S
C879 H851 0.929 . S
C879 C882 1.391 . S
C879 C884 1.391 . S
C880 H852 0.870 1_655 S
C880 C881 1.390 . S
C880 N883 1.391 . S
C881 H853 0.940 . S
C881 C880 1.390 . S
C881 C882 1.392 . S
C882 H854 0.929 . S
C882 C879 1.391 . S
C882 C881 1.392 . S
N883 Co827 2.257 . S
N883 C880 1.391 . S
N883 C884 1.388 . S
C884 H855 0.930 . S
C884 C879 1.391 . S
C884 N883 1.388 . S
Co885 O887 2.143 . S
Co885 O893 2.074 . S
Co885 O896 2.093 . S
Co885 O909 2.097 . S
Co885 N926 2.151 . S
Co885 N934 2.214 . S
Co886 O887 2.160 . S
Co886 O892 2.058 . S
Co886 O902 2.057 . S
Co886 O917 2.037 . S
Co886 N921 2.145 . S
Co886 N942 2.257 . S
O887 Co885 2.143 . S
O887 Co886 2.160 . S
C888 O889 1.278 . S
C888 O896 1.224 . S
O889 C888 1.278 . S
C890 O891 1.245 . S
C890 O902 1.232 . S
O891 C890 1.245 . S
O892 Co886 2.058 . S
O892 C918 1.269 . S
O893 Co885 2.074 . S
O893 C918 1.257 . S
H894 C919 0.930 . S
H895 C925 0.930 . S
O896 Co885 2.093 . S
O896 C888 1.224 . S
H897 C929 0.929 . S
H898 C931 0.930 . S
H899 C932 0.930 . S
H900 C930 0.929 . S
H901 C933 0.928 . S
O902 Co886 2.057 . S
O902 C890 1.232 . S
H903 C922 0.929 . S
H904 C923 0.929 . S
H905 C935 0.931 . S
H906 C927 0.929 . S
H907 C936 0.930 . S
H908 C928 0.931 . S
O909 Co885 2.097 . S
O909 C937 1.214 . S
H910 C938 0.929 . S
H911 C939 0.929 . S
H912 C940 0.930 . S
H913 C941 0.929 . S
H914 C943 0.930 . S
H915 C920 0.930 . S
H916 C924 0.930 . S
O917 Co886 2.037 . S
O917 C937 1.234 . S
C918 O892 1.269 . S
C918 O893 1.257 . S
C919 H894 0.930 . S
C919 C922 1.388 . S
C919 C924 1.418 . S
C920 H915 0.930 . S
C920 C923 1.404 . S
C920 C924 1.353 . S
N921 Co886 2.145 . S
N921 C922 1.397 . S
N921 C923 1.334 . S
C922 H903 0.929 . S
C922 C919 1.388 . S
C922 N921 1.397 . S
C923 H904 0.929 . S
C923 C920 1.404 . S
C923 N921 1.334 . S
C924 H916 0.930 . S
C924 C919 1.418 . S
C924 C920 1.353 . S
C925 H895 0.930 . S
C925 N926 1.330 . S
C925 C927 1.446 . S
N926 Co885 2.151 . S
N926 C925 1.330 . S
N926 C930 1.418 . S
C927 H906 0.929 . S
C927 C925 1.446 . S
C927 C928 1.332 . S
C928 H908 0.931 . S
C928 C927 1.332 . S
C928 C929 1.267 . S
C929 H897 0.929 . S
C929 C928 1.267 . S
C929 C930 1.251 . S
C930 H900 0.929 . S
C930 N926 1.418 . S
C930 C929 1.251 . S
C931 H898 0.930 . S
C931 C933 1.406 . S
C931 C936 1.261 . S
C932 H899 0.930 . S
C932 N934 1.325 . S
C932 C935 1.357 . S
C933 H901 0.928 . S
C933 C931 1.406 . S
C933 N934 1.261 . S
N934 Co885 2.214 . S
N934 C932 1.325 . S
N934 C933 1.261 . S
C935 H905 0.931 . S
C935 C932 1.357 . S
C935 C936 1.312 . S
C936 H907 0.930 . S
C936 C931 1.261 . S
C936 C935 1.312 . S
C937 O909 1.214 . S
C937 O917 1.234 . S
C938 H910 0.929 . S
C938 C941 1.391 . S
C938 C943 1.391 . S
C939 H911 0.929 . S
C939 C940 1.390 . S
C939 N942 1.391 . S
C940 H912 0.930 . S
C940 C939 1.390 . S
C940 C941 1.392 . S
C941 H913 0.929 . S
C941 C938 1.391 . S
C941 C940 1.392 . S
N942 Co886 2.257 . S
N942 C939 1.391 . S
N942 C943 1.388 . S
C943 H914 0.930 . S
C943 C938 1.391 . S
C943 N942 1.388 . S
Co944 O946 2.143 . S
Co944 O952 2.074 . S
Co944 O955 2.093 . S
Co944 O968 2.097 . S
Co944 N985 2.151 . S
Co944 N993 2.214 . S
Co945 O946 2.160 . S
Co945 O951 2.058 . S
Co945 O961 2.057 . S
Co945 O976 2.037 . S
Co945 N980 2.145 . S
Co945 N1001 2.257 . S
O946 Co944 2.143 . S
O946 Co945 2.160 . S
C947 O948 1.278 . S
C947 O955 1.224 . S
O948 C947 1.278 . S
C949 O950 1.245 . S
C949 O961 1.232 . S
O950 C949 1.245 . S
O951 Co945 2.058 . S
O951 C977 1.269 . S
O952 Co944 2.074 . S
O952 C977 1.257 . S
H953 C978 0.930 . S
H954 C984 0.930 . S
O955 Co944 2.093 . S
O955 C947 1.224 . S
H956 C988 0.929 . S
H957 C990 0.930 . S
H958 C991 0.930 . S
H959 C989 0.929 . S
H960 C992 0.928 . S
O961 Co945 2.057 . S
O961 C949 1.232 . S
H962 C981 0.929 . S
H963 C982 0.929 . S
H964 C994 0.931 1_455 S
H965 C986 0.929 . S
H966 C995 0.930 . S
H967 C987 0.931 . S
O968 Co944 2.097 . S
O968 C996 1.214 . S
H969 C997 0.929 . S
H970 C998 0.896 1_455 S
H971 C999 0.938 . S
H972 C1000 0.929 . S
H973 C1002 0.930 . S
H974 C979 0.930 . S
H975 C983 0.930 . S
O976 Co945 2.037 . S
O976 C996 1.234 . S
C977 O951 1.269 . S
C977 O952 1.257 . S
C978 H953 0.930 . S
C978 C981 1.388 . S
C978 C983 1.418 . S
C979 H974 0.930 . S
C979 C982 1.404 1_455 S
C979 C983 1.353 . S
N980 Co945 2.145 . S
N980 C981 1.397 1_655 S
N980 C982 1.334 . S
C981 H962 0.929 . S
C981 C978 1.388 . S
C981 N980 1.397 1_455 S
C982 H963 0.929 . S
C982 C979 1.404 1_655 S
C982 N980 1.334 . S
C983 H975 0.930 . S
C983 C978 1.418 . S
C983 C979 1.353 . S
C984 H954 0.930 . S
C984 N985 1.330 . S
C984 C986 1.446 . S
N985 Co944 2.151 . S
N985 C984 1.330 . S
N985 C989 1.418 . S
C986 H965 0.929 . S
C986 C984 1.446 . S
C986 C987 1.332 . S
C987 H967 0.931 . S
C987 C986 1.332 . S
C987 C988 1.267 . S
C988 H956 0.929 . S
C988 C987 1.267 . S
C988 C989 1.251 . S
C989 H959 0.929 . S
C989 N985 1.418 . S
C989 C988 1.251 . S
C990 H957 0.930 . S
C990 C992 1.406 . S
C990 C995 1.261 . S
C991 H958 0.930 . S
C991 N993 1.325 . S
C991 C994 1.357 . S
C992 H960 0.928 . S
C992 C990 1.406 . S
C992 N993 1.261 . S
N993 Co944 2.214 . S
N993 C991 1.325 . S
N993 C992 1.261 . S
C994 H964 0.931 1_655 S
C994 C991 1.357 . S
C994 C995 1.312 . S
C995 H966 0.930 . S
C995 C990 1.261 . S
C995 C994 1.312 . S
C996 O968 1.214 . S
C996 O976 1.234 . S
C997 H969 0.929 . S
C997 C1000 1.391 . S
C997 C1002 1.391 . S
C998 H970 0.896 1_655 S
C998 C999 1.390 . S
C998 N1001 1.391 . S
C999 H971 0.938 . S
C999 C998 1.390 . S
C999 C1000 1.392 . S
C1000 H972 0.929 . S
C1000 C997 1.391 . S
C1000 C999 1.392 . S
N1001 Co945 2.257 . S
N1001 C998 1.391 . S
N1001 C1002 1.388 . S
C1002 H973 0.930 . S
C1002 C997 1.391 . S
C1002 N1001 1.388 . S
Co1003 O1005 2.143 . S
Co1003 O1011 2.074 . S
Co1003 O1014 2.093 . S
Co1003 O1027 2.097 . S
Co1003 N1044 2.151 . S
Co1003 N1052 2.214 . S
Co1004 O1005 2.160 . S
Co1004 O1010 2.058 . S
Co1004 O1020 2.057 . S
Co1004 O1035 2.037 . S
Co1004 N1039 2.145 . S
Co1004 N1060 2.257 . S
O1005 Co1003 2.143 . S
O1005 Co1004 2.160 . S
C1006 O1007 1.278 . S
C1006 O1014 1.224 . S
O1007 C1006 1.278 . S
C1008 O1009 1.245 . S
C1008 O1020 1.232 . S
O1009 C1008 1.245 . S
O1010 Co1004 2.058 . S
O1010 C1036 1.269 . S
O1011 Co1003 2.074 . S
O1011 C1036 1.257 . S
H1012 C1037 0.930 . S
H1013 C1043 0.930 . S
O1014 Co1003 2.093 . S
O1014 C1006 1.224 . S
H1015 C1047 0.929 . S
H1016 C1049 0.930 . S
H1017 C1050 0.930 . S
H1018 C1048 0.929 . S
H1019 C1051 0.928 . S
O1020 Co1004 2.057 . S
O1020 C1008 1.232 . S
H1021 C1040 0.929 . S
H1022 C1041 0.929 . S
H1023 C1053 0.931 . S
H1024 C1045 0.929 . S
H1025 C1054 0.930 . S
H1026 C1046 0.931 . S
O1027 Co1003 2.097 . S
O1027 C1055 1.214 . S
H1028 C1056 0.929 . S
H1029 C1057 0.929 . S
H1030 C1058 0.930 . S
H1031 C1059 0.929 . S
H1032 C1061 0.930 . S
H1033 C1038 0.930 . S
H1034 C1042 0.930 . S
O1035 Co1004 2.037 . S
O1035 C1055 1.234 . S
C1036 O1010 1.269 . S
C1036 O1011 1.257 . S
C1037 H1012 0.930 . S
C1037 C1040 1.388 . S
C1037 C1042 1.418 . S
C1038 H1033 0.930 . S
C1038 C1041 1.404 . S
C1038 C1042 1.353 . S
N1039 Co1004 2.145 . S
N1039 C1040 1.397 . S
N1039 C1041 1.334 . S
C1040 H1021 0.929 . S
C1040 C1037 1.388 . S
C1040 N1039 1.397 . S
C1041 H1022 0.929 . S
C1041 C1038 1.404 . S
C1041 N1039 1.334 . S
C1042 H1034 0.930 . S
C1042 C1037 1.418 . S
C1042 C1038 1.353 . S
C1043 H1013 0.930 . S
C1043 N1044 1.330 . S
C1043 C1045 1.446 . S
N1044 Co1003 2.151 . S
N1044 C1043 1.330 . S
N1044 C1048 1.418 . S
C1045 H1024 0.929 . S
C1045 C1043 1.446 . S
C1045 C1046 1.332 . S
C1046 H1026 0.931 . S
C1046 C1045 1.332 . S
C1046 C1047 1.267 . S
C1047 H1015 0.929 . S
C1047 C1046 1.267 . S
C1047 C1048 1.251 . S
C1048 H1018 0.929 . S
C1048 N1044 1.418 . S
C1048 C1047 1.251 . S
C1049 H1016 0.930 . S
C1049 C1051 1.406 . S
C1049 C1054 1.261 . S
C1050 H1017 0.930 . S
C1050 N1052 1.325 . S
C1050 C1053 1.357 . S
C1051 H1019 0.928 . S
C1051 C1049 1.406 . S
C1051 N1052 1.261 . S
N1052 Co1003 2.214 . S
N1052 C1050 1.325 . S
N1052 C1051 1.261 . S
C1053 H1023 0.931 . S
C1053 C1050 1.357 . S
C1053 C1054 1.312 . S
C1054 H1025 0.930 . S
C1054 C1049 1.261 . S
C1054 C1053 1.312 . S
C1055 O1027 1.214 . S
C1055 O1035 1.234 . S
C1056 H1028 0.929 . S
C1056 C1059 1.391 . S
C1056 C1061 1.391 . S
C1057 H1029 0.929 . S
C1057 C1058 1.390 . S
C1057 N1060 1.391 . S
C1058 H1030 0.930 . S
C1058 C1057 1.390 . S
C1058 C1059 1.392 . S
C1059 H1031 0.929 . S
C1059 C1056 1.391 . S
C1059 C1058 1.392 . S
N1060 Co1004 2.257 . S
N1060 C1057 1.391 . S
N1060 C1061 1.388 . S
C1061 H1032 0.930 . S
C1061 C1056 1.391 . S
C1061 N1060 1.388 . S
H1062 C1080 0.951 . S
H1063 C1082 0.951 . S
H1064 C1084 0.950 . S
H1065 C1085 0.950 . S
H1066 C1087 0.950 . S
H1067 C1090 0.950 . S
H1068 C1091 0.950 . S
H1069 C1093 0.950 . S
H1070 C1094 0.950 . S
H1071 C1095 0.951 . S
H1072 C1097 0.951 . S
H1073 C1099 0.950 . S
H1074 C1100 0.950 . S
H1075 C1102 0.950 . S
H1076 C1105 0.950 . S
H1077 C1106 0.950 . S
H1078 C1108 0.950 . S
H1079 C1109 0.950 . S
C1080 H1062 0.951 . S
C1080 C1081 1.366 . S
C1080 C1082 1.388 . S
C1081 C1080 1.366 . S
C1081 C1085 1.385 . S
C1082 H1063 0.951 . S
C1082 C1080 1.388 . S
C1082 C1083 1.366 . S
C1083 C1082 1.366 . S
C1083 C1084 1.414 . S
C1083 C1086 1.499 . S
C1084 H1064 0.950 . S
C1084 C1083 1.414 . S
C1084 C1085 1.374 . S
C1085 H1065 0.950 . S
C1085 C1081 1.385 . S
C1085 C1084 1.374 . S
C1086 C1083 1.499 . S
C1086 C1087 1.373 . S
C1086 C1088 1.389 1_556 S
C1087 H1066 0.950 . S
C1087 C1086 1.373 . S
C1087 C1103 1.377 . S
C1088 C1086 1.389 1_554 S
C1088 C1089 1.524 . S
C1088 C1102 1.377 . S
C1089 C1088 1.524 . S
C1089 C1090 1.397 . S
C1089 C1094 1.363 . S
C1090 H1067 0.950 . S
C1090 C1089 1.397 . S
C1090 C1091 1.334 . S
C1091 H1068 0.950 . S
C1091 C1090 1.334 . S
C1091 C1092 1.287 . S
C1092 C1091 1.287 . S
C1092 C1093 1.524 . S
C1092 H1111 0.913 . S
C1093 H1069 0.950 . S
C1093 C1092 1.524 . S
C1093 C1094 1.415 . S
C1094 H1070 0.950 . S
C1094 C1089 1.363 . S
C1094 C1093 1.415 . S
C1095 H1071 0.951 . S
C1095 C1096 1.366 . S
C1095 C1097 1.388 . S
C1096 C1095 1.366 . S
C1096 C1100 1.385 . S
C1097 H1072 0.951 . S
C1097 C1095 1.388 . S
C1097 C1098 1.366 . S
C1098 C1097 1.366 . S
C1098 C1099 1.414 . S
C1098 C1101 1.499 . S
C1099 H1073 0.950 . S
C1099 C1098 1.414 . S
C1099 C1100 1.374 . S
C1100 H1074 0.950 . S
C1100 C1096 1.385 . S
C1100 C1099 1.374 . S
C1101 C1098 1.499 . S
C1101 C1102 1.373 . S
C1101 C1103 1.389 1_554 S
C1102 H1075 0.950 . S
C1102 C1088 1.377 . S
C1102 C1101 1.373 . S
C1103 C1087 1.377 . S
C1103 C1101 1.389 1_556 S
C1103 C1104 1.524 . S
C1104 C1103 1.524 . S
C1104 C1105 1.397 . S
C1104 C1109 1.363 . S
C1105 H1076 0.950 . S
C1105 C1104 1.397 . S
C1105 C1106 1.334 . S
C1106 H1077 0.950 . S
C1106 C1105 1.334 . S
C1106 C1107 1.287 . S
C1107 C1106 1.287 . S
C1107 C1108 1.524 . S
C1107 H1110 0.999 . S
C1108 H1078 0.950 . S
C1108 C1107 1.524 . S
C1108 C1109 1.415 . S
C1109 H1079 0.950 . S
C1109 C1104 1.363 . S
C1109 C1108 1.415 . S
H1110 C1107 0.999 . S
H1111 C1092 0.913 . S
H1112 C1130 0.951 . S
H1113 C1132 0.951 . S
H1114 C1134 0.950 . S
H1115 C1135 0.950 . S
H1116 C1137 0.950 . S
H1117 C1140 0.950 1_556 S
H1118 C1141 0.950 . S
H1119 C1143 0.950 . S
H1120 C1144 0.950 . S
H1121 C1145 0.951 . S
H1122 C1147 0.951 . S
H1123 C1149 0.950 . S
H1124 C1150 0.950 . S
H1125 C1152 0.950 . S
H1126 C1155 0.950 1_554 S
H1127 C1156 0.950 . S
H1128 C1158 0.950 . S
H1129 C1159 0.950 . S
C1130 H1112 0.951 . S
C1130 C1131 1.366 . S
C1130 C1132 1.388 . S
C1131 C1130 1.366 . S
C1131 C1135 1.385 . S
C1132 H1113 0.951 . S
C1132 C1130 1.388 . S
C1132 C1133 1.366 . S
C1133 C1132 1.366 . S
C1133 C1134 1.414 . S
C1133 C1136 1.499 . S
C1134 H1114 0.950 . S
C1134 C1133 1.414 . S
C1134 C1135 1.374 . S
C1135 H1115 0.950 . S
C1135 C1131 1.385 . S
C1135 C1134 1.374 . S
C1136 C1133 1.499 . S
C1136 C1137 1.373 . S
C1136 C1138 1.389 1_556 S
C1137 H1116 0.950 . S
C1137 C1136 1.373 . S
C1137 C1153 1.377 . S
C1138 C1136 1.389 1_554 S
C1138 C1139 1.524 . S
C1138 C1152 1.377 . S
C1139 C1138 1.524 . S
C1139 C1140 1.397 . S
C1139 C1144 1.363 . S
C1140 H1117 0.950 1_554 S
C1140 C1139 1.397 . S
C1140 C1141 1.334 . S
C1141 H1118 0.950 . S
C1141 C1140 1.334 . S
C1141 C1142 1.287 . S
C1142 C1141 1.287 . S
C1142 C1143 1.524 . S
C1142 H1161 0.913 . S
C1143 H1119 0.950 . S
C1143 C1142 1.524 . S
C1143 C1144 1.415 . S
C1144 H1120 0.950 . S
C1144 C1139 1.363 . S
C1144 C1143 1.415 . S
C1145 H1121 0.951 . S
C1145 C1146 1.366 . S
C1145 C1147 1.388 . S
C1146 C1145 1.366 . S
C1146 C1150 1.385 . S
C1147 H1122 0.951 . S
C1147 C1145 1.388 . S
C1147 C1148 1.366 . S
C1148 C1147 1.366 . S
C1148 C1149 1.414 . S
C1148 C1151 1.499 . S
C1149 H1123 0.950 . S
C1149 C1148 1.414 . S
C1149 C1150 1.374 . S
C1150 H1124 0.950 . S
C1150 C1146 1.385 . S
C1150 C1149 1.374 . S
C1151 C1148 1.499 . S
C1151 C1152 1.373 . S
C1151 C1153 1.389 1_554 S
C1152 H1125 0.950 . S
C1152 C1138 1.377 . S
C1152 C1151 1.373 . S
C1153 C1137 1.377 . S
C1153 C1151 1.389 1_556 S
C1153 C1154 1.524 . S
C1154 C1153 1.524 . S
C1154 C1155 1.397 . S
C1154 C1159 1.363 . S
C1155 H1126 0.950 1_556 S
C1155 C1154 1.397 . S
C1155 C1156 1.334 . S
C1156 H1127 0.950 . S
C1156 C1155 1.334 . S
C1156 C1157 1.287 . S
C1157 C1156 1.287 . S
C1157 C1158 1.524 . S
C1157 H1160 0.999 . S
C1158 H1128 0.950 . S
C1158 C1157 1.524 . S
C1158 C1159 1.415 . S
C1159 H1129 0.950 . S
C1159 C1154 1.363 . S
C1159 C1158 1.415 . S
H1160 C1157 0.999 . S
H1161 C1142 0.913 . S
H1162 C1180 0.951 . S
H1163 C1182 0.951 . S
H1164 C1184 0.950 . S
H1165 C1185 0.950 . S
H1166 C1187 0.950 . S
H1167 C1190 0.950 . S
H1168 C1191 0.950 . S
H1169 C1193 0.950 . S
H1170 C1194 0.950 . S
H1171 C1195 0.951 . S
H1172 C1197 0.951 . S
H1173 C1199 0.950 . S
H1174 C1200 0.950 . S
H1175 C1202 0.950 . S
H1176 C1205 0.950 . S
H1177 C1206 0.950 . S
H1178 C1208 0.950 . S
H1179 C1209 0.950 . S
C1180 H1162 0.951 . S
C1180 C1181 1.366 . S
C1180 C1182 1.388 . S
C1181 C1180 1.366 . S
C1181 C1185 1.385 . S
C1182 H1163 0.951 . S
C1182 C1180 1.388 . S
C1182 C1183 1.366 . S
C1183 C1182 1.366 . S
C1183 C1184 1.414 . S
C1183 C1186 1.499 . S
C1184 H1164 0.950 . S
C1184 C1183 1.414 . S
C1184 C1185 1.374 . S
C1185 H1165 0.950 . S
C1185 C1181 1.385 . S
C1185 C1184 1.374 . S
C1186 C1183 1.499 . S
C1186 C1187 1.373 . S
C1186 C1188 1.389 . S
C1187 H1166 0.950 . S
C1187 C1186 1.373 . S
C1187 C1203 1.377 1_554 S
C1188 C1186 1.389 . S
C1188 C1189 1.524 . S
C1188 C1202 1.377 1_554 S
C1189 C1188 1.524 . S
C1189 C1190 1.397 . S
C1189 C1194 1.363 . S
C1190 H1167 0.950 . S
C1190 C1189 1.397 . S
C1190 C1191 1.334 . S
C1191 H1168 0.950 . S
C1191 C1190 1.334 . S
C1191 C1192 1.287 . S
C1192 C1191 1.287 . S
C1192 C1193 1.524 . S
C1192 H1211 0.947 . S
C1193 H1169 0.950 . S
C1193 C1192 1.524 . S
C1193 C1194 1.415 . S
C1194 H1170 0.950 . S
C1194 C1189 1.363 . S
C1194 C1193 1.415 . S
C1195 H1171 0.951 . S
C1195 C1196 1.366 . S
C1195 C1197 1.388 . S
C1196 C1195 1.366 . S
C1196 C1200 1.385 . S
C1197 H1172 0.951 . S
C1197 C1195 1.388 . S
C1197 C1198 1.366 . S
C1198 C1197 1.366 . S
C1198 C1199 1.414 . S
C1198 C1201 1.499 . S
C1199 H1173 0.950 . S
C1199 C1198 1.414 . S
C1199 C1200 1.374 . S
C1200 H1174 0.950 . S
C1200 C1196 1.385 . S
C1200 C1199 1.374 . S
C1201 C1198 1.499 . S
C1201 C1202 1.373 . S
C1201 C1203 1.389 . S
C1202 H1175 0.950 . S
C1202 C1188 1.377 1_556 S
C1202 C1201 1.373 . S
C1203 C1187 1.377 1_556 S
C1203 C1201 1.389 . S
C1203 C1204 1.524 . S
C1204 C1203 1.524 . S
C1204 C1205 1.397 . S
C1204 C1209 1.363 . S
C1205 H1176 0.950 . S
C1205 C1204 1.397 . S
C1205 C1206 1.334 . S
C1206 H1177 0.950 . S
C1206 C1205 1.334 . S
C1206 C1207 1.287 . S
C1207 C1206 1.287 . S
C1207 C1208 1.524 . S
C1207 H1210 0.999 . S
C1208 H1178 0.950 . S
C1208 C1207 1.524 . S
C1208 C1209 1.415 . S
C1209 H1179 0.950 . S
C1209 C1204 1.363 . S
C1209 C1208 1.415 . S
H1210 C1207 0.999 . S
H1211 C1192 0.947 . S
H1212 C1230 0.951 . S
H1213 C1232 0.951 . S
H1214 C1234 0.950 . S
H1215 C1235 0.950 . S
H1216 C1237 0.950 . S
H1217 C1240 0.950 . S
H1218 C1241 0.950 . S
H1219 C1243 0.950 . S
H1220 C1244 0.950 . S
H1221 C1245 0.951 . S
H1222 C1247 0.951 . S
H1223 C1249 0.950 . S
H1224 C1250 0.950 . S
H1225 C1252 0.950 . S
H1226 C1255 0.950 . S
H1227 C1256 0.950 . S
H1228 C1258 0.950 1_565 S
H1229 C1259 0.950 . S
C1230 H1212 0.951 . S
C1230 C1231 1.366 . S
C1230 C1232 1.388 . S
C1231 C1230 1.366 . S
C1231 C1235 1.385 . S
C1232 H1213 0.951 . S
C1232 C1230 1.388 . S
C1232 C1233 1.366 . S
C1233 C1232 1.366 . S
C1233 C1234 1.414 . S
C1233 C1236 1.499 . S
C1234 H1214 0.950 . S
C1234 C1233 1.414 . S
C1234 C1235 1.374 . S
C1235 H1215 0.950 . S
C1235 C1231 1.385 . S
C1235 C1234 1.374 . S
C1236 C1233 1.499 . S
C1236 C1237 1.373 . S
C1236 C1238 1.389 . S
C1237 H1216 0.950 . S
C1237 C1236 1.373 . S
C1237 C1253 1.377 . S
C1238 C1236 1.389 . S
C1238 C1239 1.524 . S
C1238 C1252 1.377 . S
C1239 C1238 1.524 . S
C1239 C1240 1.397 . S
C1239 C1244 1.363 . S
C1240 H1217 0.950 . S
C1240 C1239 1.397 . S
C1240 C1241 1.334 . S
C1241 H1218 0.950 . S
C1241 C1240 1.334 . S
C1241 C1242 1.287 . S
C1242 C1241 1.287 . S
C1242 C1243 1.524 . S
C1242 H1261 0.913 . S
C1243 H1219 0.950 . S
C1243 C1242 1.524 . S
C1243 C1244 1.415 . S
C1244 H1220 0.950 . S
C1244 C1239 1.363 . S
C1244 C1243 1.415 . S
C1245 H1221 0.951 . S
C1245 C1246 1.366 . S
C1245 C1247 1.388 . S
C1246 C1245 1.366 . S
C1246 C1250 1.385 . S
C1247 H1222 0.951 . S
C1247 C1245 1.388 . S
C1247 C1248 1.366 . S
C1248 C1247 1.366 . S
C1248 C1249 1.414 . S
C1248 C1251 1.499 . S
C1249 H1223 0.950 . S
C1249 C1248 1.414 . S
C1249 C1250 1.374 . S
C1250 H1224 0.950 . S
C1250 C1246 1.385 . S
C1250 C1249 1.374 . S
C1251 C1248 1.499 . S
C1251 C1252 1.373 . S
C1251 C1253 1.389 . S
C1252 H1225 0.950 . S
C1252 C1238 1.377 . S
C1252 C1251 1.373 . S
C1253 C1237 1.377 . S
C1253 C1251 1.389 . S
C1253 C1254 1.524 . S
C1254 C1253 1.524 . S
C1254 C1255 1.397 . S
C1254 C1259 1.363 . S
C1255 H1226 0.950 . S
C1255 C1254 1.397 . S
C1255 C1256 1.334 . S
C1256 H1227 0.950 . S
C1256 C1255 1.334 . S
C1256 C1257 1.287 . S
C1257 C1256 1.287 . S
C1257 C1258 1.524 . S
C1257 H1260 0.999 1_545 S
C1258 H1228 0.950 1_545 S
C1258 C1257 1.524 . S
C1258 C1259 1.415 . S
C1259 H1229 0.950 . S
C1259 C1254 1.363 . S
C1259 C1258 1.415 . S
H1260 C1257 0.999 1_565 S
H1261 C1242 0.913 . S
H1262 C1280 0.951 . S
H1263 C1282 0.951 . S
H1264 C1284 0.950 . S
H1265 C1285 0.950 . S
H1266 C1287 0.950 . S
H1267 C1290 0.950 . S
H1268 C1291 0.950 . S
H1269 C1293 0.950 . S
H1270 C1294 0.950 . S
H1271 C1295 0.951 . S
H1272 C1297 0.951 . S
H1273 C1299 0.950 . S
H1274 C1300 0.950 . S
H1275 C1302 0.950 . S
H1276 C1305 0.950 . S
H1277 C1306 0.950 . S
H1278 C1308 0.950 . S
H1279 C1309 0.950 . S
C1280 H1262 0.951 . S
C1280 C1281 1.366 . S
C1280 C1282 1.388 . S
C1281 C1280 1.366 . S
C1281 C1285 1.385 . S
C1282 H1263 0.951 . S
C1282 C1280 1.388 . S
C1282 C1283 1.366 . S
C1283 C1282 1.366 . S
C1283 C1284 1.414 . S
C1283 C1286 1.499 . S
C1284 H1264 0.950 . S
C1284 C1283 1.414 . S
C1284 C1285 1.374 . S
C1285 H1265 0.950 . S
C1285 C1281 1.385 . S
C1285 C1284 1.374 . S
C1286 C1283 1.499 . S
C1286 C1287 1.373 . S
C1286 C1288 1.389 . S
C1287 H1266 0.950 . S
C1287 C1286 1.373 . S
C1287 C1303 1.377 . S
C1288 C1286 1.389 . S
C1288 C1289 1.524 . S
C1288 C1302 1.377 . S
C1289 C1288 1.524 . S
C1289 C1290 1.397 . S
C1289 C1294 1.363 . S
C1290 H1267 0.950 . S
C1290 C1289 1.397 . S
C1290 C1291 1.334 . S
C1291 H1268 0.950 . S
C1291 C1290 1.334 . S
C1291 C1292 1.287 . S
C1292 C1291 1.287 . S
C1292 C1293 1.524 . S
C1292 H1311 0.933 . S
C1293 H1269 0.950 . S
C1293 C1292 1.524 . S
C1293 C1294 1.415 . S
C1294 H1270 0.950 . S
C1294 C1289 1.363 . S
C1294 C1293 1.415 . S
C1295 H1271 0.951 . S
C1295 C1296 1.366 . S
C1295 C1297 1.388 . S
C1296 C1295 1.366 . S
C1296 C1300 1.385 . S
C1297 H1272 0.951 . S
C1297 C1295 1.388 . S
C1297 C1298 1.366 . S
C1298 C1297 1.366 . S
C1298 C1299 1.414 . S
C1298 C1301 1.499 . S
C1299 H1273 0.950 . S
C1299 C1298 1.414 . S
C1299 C1300 1.374 . S
C1300 H1274 0.950 . S
C1300 C1296 1.385 . S
C1300 C1299 1.374 . S
C1301 C1298 1.499 . S
C1301 C1302 1.373 . S
C1301 C1303 1.389 . S
C1302 H1275 0.950 . S
C1302 C1288 1.377 . S
C1302 C1301 1.373 . S
C1303 C1287 1.377 . S
C1303 C1301 1.389 . S
C1303 C1304 1.524 . S
C1304 C1303 1.524 . S
C1304 C1305 1.397 . S
C1304 C1309 1.363 . S
C1305 H1276 0.950 . S
C1305 C1304 1.397 . S
C1305 C1306 1.334 . S
C1306 H1277 0.950 . S
C1306 C1305 1.334 . S
C1306 C1307 1.287 . S
C1307 C1306 1.287 . S
C1307 C1308 1.524 . S
C1307 H1310 0.999 . S
C1308 H1278 0.950 . S
C1308 C1307 1.524 . S
C1308 C1309 1.415 . S
C1309 H1279 0.950 . S
C1309 C1304 1.363 . S
C1309 C1308 1.415 . S
H1310 C1307 0.999 . S
H1311 C1292 0.933 . S
H1312 C1330 0.951 . S
H1313 C1332 0.951 . S
H1314 C1334 0.950 . S
H1315 C1335 0.950 . S
H1316 C1337 0.950 . S
H1317 C1340 0.950 . S
H1318 C1341 0.950 . S
H1319 C1343 0.950 . S
H1320 C1344 0.950 . S
H1321 C1345 0.951 . S
H1322 C1347 0.951 . S
H1323 C1349 0.950 . S
H1324 C1350 0.950 . S
H1325 C1352 0.950 . S
H1326 C1355 0.950 . S
H1327 C1356 0.950 . S
H1328 C1358 0.950 . S
H1329 C1359 0.950 . S
C1330 H1312 0.951 . S
C1330 C1331 1.366 . S
C1330 C1332 1.388 . S
C1331 C1330 1.366 . S
C1331 C1335 1.385 . S
C1332 H1313 0.951 . S
C1332 C1330 1.388 . S
C1332 C1333 1.366 . S
C1333 C1332 1.366 . S
C1333 C1334 1.414 . S
C1333 C1336 1.499 . S
C1334 H1314 0.950 . S
C1334 C1333 1.414 . S
C1334 C1335 1.374 . S
C1335 H1315 0.950 . S
C1335 C1331 1.385 . S
C1335 C1334 1.374 . S
C1336 C1333 1.499 . S
C1336 C1337 1.373 . S
C1336 C1338 1.389 . S
C1337 H1316 0.950 . S
C1337 C1336 1.373 . S
C1337 C1353 1.377 . S
C1338 C1336 1.389 . S
C1338 C1339 1.524 . S
C1338 C1352 1.377 . S
C1339 C1338 1.524 . S
C1339 C1340 1.397 . S
C1339 C1344 1.363 . S
C1340 H1317 0.950 . S
C1340 C1339 1.397 . S
C1340 C1341 1.334 . S
C1341 H1318 0.950 . S
C1341 C1340 1.334 . S
C1341 C1342 1.287 . S
C1342 C1341 1.287 . S
C1342 C1343 1.524 . S
C1342 H1361 0.913 . S
C1343 H1319 0.950 . S
C1343 C1342 1.524 . S
C1343 C1344 1.415 . S
C1344 H1320 0.950 . S
C1344 C1339 1.363 . S
C1344 C1343 1.415 . S
C1345 H1321 0.951 . S
C1345 C1346 1.366 . S
C1345 C1347 1.388 . S
C1346 C1345 1.366 . S
C1346 C1350 1.385 . S
C1347 H1322 0.951 . S
C1347 C1345 1.388 . S
C1347 C1348 1.366 . S
C1348 C1347 1.366 . S
C1348 C1349 1.414 . S
C1348 C1351 1.499 . S
C1349 H1323 0.950 . S
C1349 C1348 1.414 . S
C1349 C1350 1.374 . S
C1350 H1324 0.950 . S
C1350 C1346 1.385 . S
C1350 C1349 1.374 . S
C1351 C1348 1.499 . S
C1351 C1352 1.373 . S
C1351 C1353 1.389 . S
C1352 H1325 0.950 . S
C1352 C1338 1.377 . S
C1352 C1351 1.373 . S
C1353 C1337 1.377 . S
C1353 C1351 1.389 . S
C1353 C1354 1.524 . S
C1354 C1353 1.524 . S
C1354 C1355 1.397 . S
C1354 C1359 1.363 . S
C1355 H1326 0.950 . S
C1355 C1354 1.397 . S
C1355 C1356 1.334 . S
C1356 H1327 0.950 . S
C1356 C1355 1.334 . S
C1356 C1357 1.287 . S
C1357 C1356 1.287 . S
C1357 C1358 1.524 . S
C1357 H1360 0.999 . S
C1358 H1328 0.950 . S
C1358 C1357 1.524 . S
C1358 C1359 1.415 . S
C1359 H1329 0.950 . S
C1359 C1354 1.363 . S
C1359 C1358 1.415 . S
H1360 C1357 0.999 . S
H1361 C1342 0.913 . S
H1362 C1380 0.951 . S
H1363 C1382 0.951 . S
H1364 C1384 0.950 . S
H1365 C1385 0.950 . S
H1366 C1387 0.950 . S
H1367 C1390 0.950 . S
H1368 C1391 0.950 . S
H1369 C1393 0.950 . S
H1370 C1394 0.950 . S
H1371 C1395 0.951 . S
H1372 C1397 0.951 . S
H1373 C1399 0.950 . S
H1374 C1400 0.950 . S
H1375 C1402 0.950 . S
H1376 C1405 0.950 . S
H1377 C1406 0.950 . S
H1378 C1408 0.950 . S
H1379 C1409 0.950 . S
C1380 H1362 0.951 . S
C1380 C1381 1.366 . S
C1380 C1382 1.388 . S
C1381 C1380 1.366 . S
C1381 C1385 1.385 . S
C1382 H1363 0.951 . S
C1382 C1380 1.388 . S
C1382 C1383 1.366 . S
C1383 C1382 1.366 . S
C1383 C1384 1.414 . S
C1383 C1386 1.499 . S
C1384 H1364 0.950 . S
C1384 C1383 1.414 . S
C1384 C1385 1.374 . S
C1385 H1365 0.950 . S
C1385 C1381 1.385 . S
C1385 C1384 1.374 . S
C1386 C1383 1.499 . S
C1386 C1387 1.373 . S
C1386 C1388 1.389 . S
C1387 H1366 0.950 . S
C1387 C1386 1.373 . S
C1387 C1403 1.377 . S
C1388 C1386 1.389 . S
C1388 C1389 1.524 . S
C1388 C1402 1.377 . S
C1389 C1388 1.524 . S
C1389 C1390 1.397 . S
C1389 C1394 1.363 . S
C1390 H1367 0.950 . S
C1390 C1389 1.397 . S
C1390 C1391 1.334 . S
C1391 H1368 0.950 . S
C1391 C1390 1.334 . S
C1391 C1392 1.287 . S
C1392 C1391 1.287 . S
C1392 C1393 1.524 . S
C1392 H1411 0.913 . S
C1393 H1369 0.950 . S
C1393 C1392 1.524 . S
C1393 C1394 1.415 . S
C1394 H1370 0.950 . S
C1394 C1389 1.363 . S
C1394 C1393 1.415 . S
C1395 H1371 0.951 . S
C1395 C1396 1.366 . S
C1395 C1397 1.388 . S
C1396 C1395 1.366 . S
C1396 C1400 1.385 . S
C1397 H1372 0.951 . S
C1397 C1395 1.388 . S
C1397 C1398 1.366 . S
C1398 C1397 1.366 . S
C1398 C1399 1.414 . S
C1398 C1401 1.499 . S
C1399 H1373 0.950 . S
C1399 C1398 1.414 . S
C1399 C1400 1.374 . S
C1400 H1374 0.950 . S
C1400 C1396 1.385 . S
C1400 C1399 1.374 . S
C1401 C1398 1.499 . S
C1401 C1402 1.373 . S
C1401 C1403 1.389 . S
C1402 H1375 0.950 . S
C1402 C1388 1.377 . S
C1402 C1401 1.373 . S
C1403 C1387 1.377 . S
C1403 C1401 1.389 . S
C1403 C1404 1.524 . S
C1404 C1403 1.524 . S
C1404 C1405 1.397 . S
C1404 C1409 1.363 . S
C1405 H1376 0.950 . S
C1405 C1404 1.397 . S
C1405 C1406 1.334 . S
C1406 H1377 0.950 . S
C1406 C1405 1.334 . S
C1406 C1407 1.287 . S
C1407 C1406 1.287 . S
C1407 C1408 1.524 . S
C1407 H1410 0.999 . S
C1408 H1378 0.950 . S
C1408 C1407 1.524 . S
C1408 C1409 1.415 . S
C1409 H1379 0.950 . S
C1409 C1404 1.363 . S
C1409 C1408 1.415 . S
H1410 C1407 0.999 . S
H1411 C1392 0.913 . S
H1412 C1430 0.951 . S
H1413 C1432 0.951 . S
H1414 C1434 0.950 . S
H1415 C1435 0.950 . S
H1416 C1437 0.950 . S
H1417 C1440 0.950 . S
H1418 C1441 0.950 . S
H1419 C1443 0.950 . S
H1420 C1444 0.950 . S
H1421 C1445 0.951 . S
H1422 C1447 0.951 . S
H1423 C1449 0.950 . S
H1424 C1450 0.950 . S
H1425 C1452 0.950 . S
H1426 C1455 0.950 . S
H1427 C1456 0.950 . S
H1428 C1458 0.950 . S
H1429 C1459 0.950 . S
C1430 H1412 0.951 . S
C1430 C1431 1.366 . S
C1430 C1432 1.388 . S
C1431 C1430 1.366 . S
C1431 C1435 1.385 . S
C1432 H1413 0.951 . S
C1432 C1430 1.388 . S
C1432 C1433 1.366 . S
C1433 C1432 1.366 . S
C1433 C1434 1.414 . S
C1433 C1436 1.499 . S
C1434 H1414 0.950 . S
C1434 C1433 1.414 . S
C1434 C1435 1.374 . S
C1435 H1415 0.950 . S
C1435 C1431 1.385 . S
C1435 C1434 1.374 . S
C1436 C1433 1.499 . S
C1436 C1437 1.373 . S
C1436 C1438 1.389 . S
C1437 H1416 0.950 . S
C1437 C1436 1.373 . S
C1437 C1453 1.377 . S
C1438 C1436 1.389 . S
C1438 C1439 1.524 . S
C1438 C1452 1.377 . S
C1439 C1438 1.524 . S
C1439 C1440 1.397 . S
C1439 C1444 1.363 . S
C1440 H1417 0.950 . S
C1440 C1439 1.397 . S
C1440 C1441 1.334 . S
C1441 H1418 0.950 . S
C1441 C1440 1.334 . S
C1441 C1442 1.287 . S
C1442 C1441 1.287 . S
C1442 C1443 1.524 . S
C1442 H1461 0.913 . S
C1443 H1419 0.950 . S
C1443 C1442 1.524 . S
C1443 C1444 1.415 . S
C1444 H1420 0.950 . S
C1444 C1439 1.363 . S
C1444 C1443 1.415 . S
C1445 H1421 0.951 . S
C1445 C1446 1.366 . S
C1445 C1447 1.388 . S
C1446 C1445 1.366 . S
C1446 C1450 1.385 . S
C1447 H1422 0.951 . S
C1447 C1445 1.388 . S
C1447 C1448 1.366 . S
C1448 C1447 1.366 . S
C1448 C1449 1.414 . S
C1448 C1451 1.499 . S
C1449 H1423 0.950 . S
C1449 C1448 1.414 . S
C1449 C1450 1.374 . S
C1450 H1424 0.950 . S
C1450 C1446 1.385 . S
C1450 C1449 1.374 . S
C1451 C1448 1.499 . S
C1451 C1452 1.373 . S
C1451 C1453 1.389 . S
C1452 H1425 0.950 . S
C1452 C1438 1.377 . S
C1452 C1451 1.373 . S
C1453 C1437 1.377 . S
C1453 C1451 1.389 . S
C1453 C1454 1.524 . S
C1454 C1453 1.524 . S
C1454 C1455 1.397 . S
C1454 C1459 1.363 . S
C1455 H1426 0.950 . S
C1455 C1454 1.397 . S
C1455 C1456 1.334 . S
C1456 H1427 0.950 . S
C1456 C1455 1.334 . S
C1456 C1457 1.287 . S
C1457 C1456 1.287 . S
C1457 C1458 1.524 . S
C1457 H1460 0.999 . S
C1458 H1428 0.950 . S
C1458 C1457 1.524 . S
C1458 C1459 1.415 . S
C1459 H1429 0.950 . S
C1459 C1454 1.363 . S
C1459 C1458 1.415 . S
H1460 C1457 0.999 . S
H1461 C1442 0.913 . S
H1462 C1480 0.951 . S
H1463 C1482 0.951 . S
H1464 C1484 0.950 . S
H1465 C1485 0.950 . S
H1466 C1487 0.950 . S
H1467 C1490 0.950 . S
H1468 C1491 0.950 . S
H1469 C1493 0.950 . S
H1470 C1494 0.950 . S
H1471 C1495 0.951 . S
H1472 C1497 0.951 . S
H1473 C1499 0.950 . S
H1474 C1500 0.950 . S
H1475 C1502 0.950 . S
H1476 C1505 0.950 . S
H1477 C1506 0.950 . S
H1478 C1508 0.950 . S
H1479 C1509 0.950 . S
C1480 H1462 0.951 . S
C1480 C1481 1.366 . S
C1480 C1482 1.388 . S
C1481 C1480 1.366 . S
C1481 C1485 1.385 . S
C1482 H1463 0.951 . S
C1482 C1480 1.388 . S
C1482 C1483 1.366 . S
C1483 C1482 1.366 . S
C1483 C1484 1.414 . S
C1483 C1486 1.499 . S
C1484 H1464 0.950 . S
C1484 C1483 1.414 . S
C1484 C1485 1.374 . S
C1485 H1465 0.950 . S
C1485 C1481 1.385 . S
C1485 C1484 1.374 . S
C1486 C1483 1.499 . S
C1486 C1487 1.373 . S
C1486 C1488 1.389 . S
C1487 H1466 0.950 . S
C1487 C1486 1.373 . S
C1487 C1503 1.377 . S
C1488 C1486 1.389 . S
C1488 C1489 1.524 . S
C1488 C1502 1.377 . S
C1489 C1488 1.524 . S
C1489 C1490 1.397 . S
C1489 C1494 1.363 . S
C1490 H1467 0.950 . S
C1490 C1489 1.397 . S
C1490 C1491 1.334 . S
C1491 H1468 0.950 . S
C1491 C1490 1.334 . S
C1491 C1492 1.287 . S
C1492 C1491 1.287 . S
C1492 C1493 1.524 . S
C1492 H1511 0.913 . S
C1493 H1469 0.950 . S
C1493 C1492 1.524 . S
C1493 C1494 1.415 . S
C1494 H1470 0.950 . S
C1494 C1489 1.363 . S
C1494 C1493 1.415 . S
C1495 H1471 0.951 . S
C1495 C1496 1.366 . S
C1495 C1497 1.388 . S
C1496 C1495 1.366 . S
C1496 C1500 1.385 . S
C1497 H1472 0.951 . S
C1497 C1495 1.388 . S
C1497 C1498 1.366 . S
C1498 C1497 1.366 . S
C1498 C1499 1.414 . S
C1498 C1501 1.499 . S
C1499 H1473 0.950 . S
C1499 C1498 1.414 . S
C1499 C1500 1.374 . S
C1500 H1474 0.950 . S
C1500 C1496 1.385 . S
C1500 C1499 1.374 . S
C1501 C1498 1.499 . S
C1501 C1502 1.373 . S
C1501 C1503 1.389 . S
C1502 H1475 0.950 . S
C1502 C1488 1.377 . S
C1502 C1501 1.373 . S
C1503 C1487 1.377 . S
C1503 C1501 1.389 . S
C1503 C1504 1.524 . S
C1504 C1503 1.524 . S
C1504 C1505 1.397 . S
C1504 C1509 1.363 . S
C1505 H1476 0.950 . S
C1505 C1504 1.397 . S
C1505 C1506 1.334 . S
C1506 H1477 0.950 . S
C1506 C1505 1.334 . S
C1506 C1507 1.287 . S
C1507 C1506 1.287 . S
C1507 C1508 1.524 . S
C1507 H1510 0.999 . S
C1508 H1478 0.950 . S
C1508 C1507 1.524 . S
C1508 C1509 1.415 . S
C1509 H1479 0.950 . S
C1509 C1504 1.363 . S
C1509 C1508 1.415 . S
H1510 C1507 0.999 . S
H1511 C1492 0.913 . S
H1512 C1530 0.951 . S
H1513 C1532 0.951 . S
H1514 C1534 0.950 . S
H1515 C1535 0.950 1_554 S
H1516 C1537 0.950 . S
H1517 C1540 0.950 . S
H1518 C1541 0.950 . S
H1519 C1543 0.950 . S
H1520 C1544 0.950 . S
H1521 C1545 0.951 . S
H1522 C1547 0.951 . S
H1523 C1549 0.950 . S
H1524 C1550 0.950 . S
H1525 C1552 0.950 . S
H1526 C1555 0.950 . S
H1527 C1556 0.950 . S
H1528 C1558 0.950 . S
H1529 C1559 0.950 . S
C1530 H1512 0.951 . S
C1530 C1531 1.366 . S
C1530 C1532 1.388 . S
C1531 C1530 1.366 . S
C1531 C1535 1.385 . S
C1532 H1513 0.951 . S
C1532 C1530 1.388 . S
C1532 C1533 1.366 . S
C1533 C1532 1.366 . S
C1533 C1534 1.414 . S
C1533 C1536 1.499 . S
C1534 H1514 0.950 . S
C1534 C1533 1.414 . S
C1534 C1535 1.374 . S
C1535 H1515 0.950 1_556 S
C1535 C1531 1.385 . S
C1535 C1534 1.374 . S
C1536 C1533 1.499 . S
C1536 C1537 1.373 . S
C1536 C1538 1.389 . S
C1537 H1516 0.950 . S
C1537 C1536 1.373 . S
C1537 C1553 1.377 . S
C1538 C1536 1.389 . S
C1538 C1539 1.524 . S
C1538 C1552 1.377 . S
C1539 C1538 1.524 . S
C1539 C1540 1.397 . S
C1539 C1544 1.363 . S
C1540 H1517 0.950 . S
C1540 C1539 1.397 . S
C1540 C1541 1.334 . S
C1541 H1518 0.950 . S
C1541 C1540 1.334 . S
C1541 C1542 1.287 . S
C1542 C1541 1.287 . S
C1542 C1543 1.524 . S
C1542 H1561 0.913 . S
C1543 H1519 0.950 . S
C1543 C1542 1.524 . S
C1543 C1544 1.415 . S
C1544 H1520 0.950 . S
C1544 C1539 1.363 . S
C1544 C1543 1.415 . S
C1545 H1521 0.951 . S
C1545 C1546 1.366 . S
C1545 C1547 1.388 . S
C1546 C1545 1.366 . S
C1546 C1550 1.385 . S
C1547 H1522 0.951 . S
C1547 C1545 1.388 . S
C1547 C1548 1.366 . S
C1548 C1547 1.366 . S
C1548 C1549 1.414 . S
C1548 C1551 1.499 . S
C1549 H1523 0.950 . S
C1549 C1548 1.414 . S
C1549 C1550 1.374 . S
C1550 H1524 0.950 . S
C1550 C1546 1.385 . S
C1550 C1549 1.374 . S
C1551 C1548 1.499 . S
C1551 C1552 1.373 . S
C1551 C1553 1.389 . S
C1552 H1525 0.950 . S
C1552 C1538 1.377 . S
C1552 C1551 1.373 . S
C1553 C1537 1.377 . S
C1553 C1551 1.389 . S
C1553 C1554 1.524 . S
C1554 C1553 1.524 . S
C1554 C1555 1.397 . S
C1554 C1559 1.363 . S
C1555 H1526 0.950 . S
C1555 C1554 1.397 . S
C1555 C1556 1.334 . S
C1556 H1527 0.950 . S
C1556 C1555 1.334 . S
C1556 C1557 1.287 . S
C1557 C1556 1.287 . S
C1557 C1558 1.524 . S
C1557 H1560 0.999 . S
C1558 H1528 0.950 . S
C1558 C1557 1.524 . S
C1558 C1559 1.415 . S
C1559 H1529 0.950 . S
C1559 C1554 1.363 . S
C1559 C1558 1.415 . S
H1560 C1557 0.999 . S
H1561 C1542 0.913 . S
H1562 C1580 0.951 . S
H1563 C1582 0.951 . S
H1564 C1584 0.950 . S
H1565 C1585 0.950 . S
H1566 C1587 0.950 . S
H1567 C1590 0.950 . S
H1568 C1591 0.950 . S
H1569 C1593 0.950 . S
H1570 C1594 0.950 . S
H1571 C1595 0.951 . S
H1572 C1597 0.951 . S
H1573 C1599 0.950 . S
H1574 C1600 0.950 . S
H1575 C1602 0.950 . S
H1576 C1605 0.950 . S
H1577 C1606 0.950 . S
H1578 C1608 0.950 . S
H1579 C1609 0.950 . S
C1580 H1562 0.951 . S
C1580 C1581 1.366 . S
C1580 C1582 1.388 . S
C1581 C1580 1.366 . S
C1581 C1585 1.385 . S
C1582 H1563 0.951 . S
C1582 C1580 1.388 . S
C1582 C1583 1.366 . S
C1583 C1582 1.366 . S
C1583 C1584 1.414 . S
C1583 C1586 1.499 . S
C1584 H1564 0.950 . S
C1584 C1583 1.414 . S
C1584 C1585 1.374 . S
C1585 H1565 0.950 . S
C1585 C1581 1.385 . S
C1585 C1584 1.374 . S
C1586 C1583 1.499 . S
C1586 C1587 1.373 . S
C1586 C1588 1.389 . S
C1587 H1566 0.950 . S
C1587 C1586 1.373 . S
C1587 C1603 1.377 . S
C1588 C1586 1.389 . S
C1588 C1589 1.524 . S
C1588 C1602 1.377 . S
C1589 C1588 1.524 . S
C1589 C1590 1.397 . S
C1589 C1594 1.363 . S
C1590 H1567 0.950 . S
C1590 C1589 1.397 . S
C1590 C1591 1.334 . S
C1591 H1568 0.950 . S
C1591 C1590 1.334 . S
C1591 C1592 1.287 . S
C1592 C1591 1.287 . S
C1592 C1593 1.524 . S
C1592 H1611 0.913 . S
C1593 H1569 0.950 . S
C1593 C1592 1.524 . S
C1593 C1594 1.415 . S
C1594 H1570 0.950 . S
C1594 C1589 1.363 . S
C1594 C1593 1.415 . S
C1595 H1571 0.951 . S
C1595 C1596 1.366 . S
C1595 C1597 1.388 . S
C1596 C1595 1.366 . S
C1596 C1600 1.385 . S
C1597 H1572 0.951 . S
C1597 C1595 1.388 . S
C1597 C1598 1.366 . S
C1598 C1597 1.366 . S
C1598 C1599 1.414 . S
C1598 C1601 1.499 . S
C1599 H1573 0.950 . S
C1599 C1598 1.414 . S
C1599 C1600 1.374 . S
C1600 H1574 0.950 . S
C1600 C1596 1.385 . S
C1600 C1599 1.374 . S
C1601 C1598 1.499 . S
C1601 C1602 1.373 . S
C1601 C1603 1.389 . S
C1602 H1575 0.950 . S
C1602 C1588 1.377 . S
C1602 C1601 1.373 . S
C1603 C1587 1.377 . S
C1603 C1601 1.389 . S
C1603 C1604 1.524 . S
C1604 C1603 1.524 . S
C1604 C1605 1.397 . S
C1604 C1609 1.363 . S
C1605 H1576 0.950 . S
C1605 C1604 1.397 . S
C1605 C1606 1.334 . S
C1606 H1577 0.950 . S
C1606 C1605 1.334 . S
C1606 C1607 1.287 . S
C1607 C1606 1.287 . S
C1607 C1608 1.524 . S
C1607 H1610 0.999 . S
C1608 H1578 0.950 . S
C1608 C1607 1.524 . S
C1608 C1609 1.415 . S
C1609 H1579 0.950 . S
C1609 C1604 1.363 . S
C1609 C1608 1.415 . S
H1610 C1607 0.999 . S
H1611 C1592 0.913 . S
H1612 C1630 0.951 . S
H1613 C1632 0.951 . S
H1614 C1634 0.950 . S
H1615 C1635 0.950 . S
H1616 C1637 0.950 . S
H1617 C1640 0.950 . S
H1618 C1641 0.950 . S
H1619 C1643 0.950 . S
H1620 C1644 0.950 . S
H1621 C1645 0.951 . S
H1622 C1647 0.951 . S
H1623 C1649 0.950 . S
H1624 C1650 0.950 . S
H1625 C1652 0.950 . S
H1626 C1655 0.950 . S
H1627 C1656 0.950 . S
H1628 C1658 0.950 . S
H1629 C1659 0.950 . S
C1630 H1612 0.951 . S
C1630 C1631 1.366 . S
C1630 C1632 1.388 . S
C1631 C1630 1.366 . S
C1631 C1635 1.385 . S
C1632 H1613 0.951 . S
C1632 C1630 1.388 . S
C1632 C1633 1.366 . S
C1633 C1632 1.366 . S
C1633 C1634 1.414 . S
C1633 C1636 1.499 . S
C1634 H1614 0.950 . S
C1634 C1633 1.414 . S
C1634 C1635 1.374 . S
C1635 H1615 0.950 . S
C1635 C1631 1.385 . S
C1635 C1634 1.374 . S
C1636 C1633 1.499 . S
C1636 C1637 1.373 . S
C1636 C1638 1.389 . S
C1637 H1616 0.950 . S
C1637 C1636 1.373 . S
C1637 C1653 1.377 . S
C1638 C1636 1.389 . S
C1638 C1639 1.524 . S
C1638 C1652 1.377 . S
C1639 C1638 1.524 . S
C1639 C1640 1.397 . S
C1639 C1644 1.363 . S
C1640 H1617 0.950 . S
C1640 C1639 1.397 . S
C1640 C1641 1.334 . S
C1641 H1618 0.950 . S
C1641 C1640 1.334 . S
C1641 C1642 1.287 . S
C1642 C1641 1.287 . S
C1642 C1643 1.524 . S
C1642 H1661 0.913 1_556 S
C1643 H1619 0.950 . S
C1643 C1642 1.524 . S
C1643 C1644 1.415 . S
C1644 H1620 0.950 . S
C1644 C1639 1.363 . S
C1644 C1643 1.415 . S
C1645 H1621 0.951 . S
C1645 C1646 1.366 . S
C1645 C1647 1.388 . S
C1646 C1645 1.366 . S
C1646 C1650 1.385 . S
C1647 H1622 0.951 . S
C1647 C1645 1.388 . S
C1647 C1648 1.366 . S
C1648 C1647 1.366 . S
C1648 C1649 1.414 . S
C1648 C1651 1.499 . S
C1649 H1623 0.950 . S
C1649 C1648 1.414 . S
C1649 C1650 1.374 . S
C1650 H1624 0.950 . S
C1650 C1646 1.385 . S
C1650 C1649 1.374 . S
C1651 C1648 1.499 . S
C1651 C1652 1.373 . S
C1651 C1653 1.389 . S
C1652 H1625 0.950 . S
C1652 C1638 1.377 . S
C1652 C1651 1.373 . S
C1653 C1637 1.377 . S
C1653 C1651 1.389 . S
C1653 C1654 1.524 . S
C1654 C1653 1.524 . S
C1654 C1655 1.397 . S
C1654 C1659 1.363 . S
C1655 H1626 0.950 . S
C1655 C1654 1.397 . S
C1655 C1656 1.334 . S
C1656 H1627 0.950 . S
C1656 C1655 1.334 . S
C1656 C1657 1.287 . S
C1657 C1656 1.287 . S
C1657 C1658 1.524 . S
C1657 H1660 0.999 . S
C1658 H1628 0.950 . S
C1658 C1657 1.524 . S
C1658 C1659 1.415 . S
C1659 H1629 0.950 . S
C1659 C1654 1.363 . S
C1659 C1658 1.415 . S
H1660 C1657 0.999 . S
H1661 C1642 0.913 1_554 S
H1662 C1680 0.951 . S
H1663 C1682 0.951 . S
H1664 C1684 0.950 . S
H1665 C1685 0.950 . S
H1666 C1687 0.950 . S
H1667 C1690 0.950 . S
H1668 C1691 0.950 . S
H1669 C1693 0.950 . S
H1670 C1694 0.950 . S
H1671 C1695 0.951 . S
H1672 C1697 0.951 . S
H1673 C1699 0.950 . S
H1674 C1700 0.950 . S
H1675 C1702 0.950 . S
H1676 C1705 0.950 . S
H1677 C1706 0.950 . S
H1678 C1708 0.950 . S
H1679 C1709 0.950 . S
C1680 H1662 0.951 . S
C1680 C1681 1.366 . S
C1680 C1682 1.388 . S
C1681 C1680 1.366 . S
C1681 C1685 1.385 . S
C1682 H1663 0.951 . S
C1682 C1680 1.388 . S
C1682 C1683 1.366 . S
C1683 C1682 1.366 . S
C1683 C1684 1.414 . S
C1683 C1686 1.499 . S
C1684 H1664 0.950 . S
C1684 C1683 1.414 . S
C1684 C1685 1.374 . S
C1685 H1665 0.950 . S
C1685 C1681 1.385 . S
C1685 C1684 1.374 . S
C1686 C1683 1.499 . S
C1686 C1687 1.373 . S
C1686 C1688 1.389 . S
C1687 H1666 0.950 . S
C1687 C1686 1.373 . S
C1687 C1703 1.377 . S
C1688 C1686 1.389 . S
C1688 C1689 1.524 . S
C1688 C1702 1.377 . S
C1689 C1688 1.524 . S
C1689 C1690 1.397 . S
C1689 C1694 1.363 . S
C1690 H1667 0.950 . S
C1690 C1689 1.397 . S
C1690 C1691 1.334 . S
C1691 H1668 0.950 . S
C1691 C1690 1.334 . S
C1691 C1692 1.287 . S
C1692 C1691 1.287 . S
C1692 C1693 1.524 . S
C1692 H1711 0.913 . S
C1693 H1669 0.950 . S
C1693 C1692 1.524 . S
C1693 C1694 1.415 . S
C1694 H1670 0.950 . S
C1694 C1689 1.363 . S
C1694 C1693 1.415 . S
C1695 H1671 0.951 . S
C1695 C1696 1.366 . S
C1695 C1697 1.388 . S
C1696 C1695 1.366 . S
C1696 C1700 1.385 . S
C1697 H1672 0.951 . S
C1697 C1695 1.388 . S
C1697 C1698 1.366 . S
C1698 C1697 1.366 . S
C1698 C1699 1.414 . S
C1698 C1701 1.499 . S
C1699 H1673 0.950 . S
C1699 C1698 1.414 . S
C1699 C1700 1.374 . S
C1700 H1674 0.950 . S
C1700 C1696 1.385 . S
C1700 C1699 1.374 . S
C1701 C1698 1.499 . S
C1701 C1702 1.373 . S
C1701 C1703 1.389 . S
C1702 H1675 0.950 . S
C1702 C1688 1.377 . S
C1702 C1701 1.373 . S
C1703 C1687 1.377 . S
C1703 C1701 1.389 . S
C1703 C1704 1.524 . S
C1704 C1703 1.524 . S
C1704 C1705 1.397 . S
C1704 C1709 1.363 . S
C1705 H1676 0.950 . S
C1705 C1704 1.397 . S
C1705 C1706 1.334 . S
C1706 H1677 0.950 . S
C1706 C1705 1.334 . S
C1706 C1707 1.287 . S
C1707 C1706 1.287 . S
C1707 C1708 1.524 . S
C1707 H1710 0.999 . S
C1708 H1678 0.950 . S
C1708 C1707 1.524 . S
C1708 C1709 1.415 . S
C1709 H1679 0.950 . S
C1709 C1704 1.363 . S
C1709 C1708 1.415 . S
H1710 C1707 0.999 . S
H1711 C1692 0.913 . S
H1712 C1730 0.951 . S
H1713 C1732 0.951 . S
H1714 C1734 0.950 . S
H1715 C1735 0.950 . S
H1716 C1737 0.950 . S
H1717 C1740 0.950 . S
H1718 C1741 0.950 . S
H1719 C1743 0.950 . S
H1720 C1744 0.950 . S
H1721 C1745 0.951 . S
H1722 C1747 0.951 . S
H1723 C1749 0.950 . S
H1724 C1750 0.950 . S
H1725 C1752 0.950 . S
H1726 C1755 0.950 . S
H1727 C1756 0.950 . S
H1728 C1758 0.950 . S
H1729 C1759 0.950 . S
C1730 H1712 0.951 . S
C1730 C1731 1.366 . S
C1730 C1732 1.388 . S
C1731 C1730 1.366 . S
C1731 C1735 1.385 . S
C1732 H1713 0.951 . S
C1732 C1730 1.388 . S
C1732 C1733 1.366 . S
C1733 C1732 1.366 . S
C1733 C1734 1.414 . S
C1733 C1736 1.499 . S
C1734 H1714 0.950 . S
C1734 C1733 1.414 . S
C1734 C1735 1.374 . S
C1735 H1715 0.950 . S
C1735 C1731 1.385 . S
C1735 C1734 1.374 . S
C1736 C1733 1.499 . S
C1736 C1737 1.373 . S
C1736 C1738 1.389 . S
C1737 H1716 0.950 . S
C1737 C1736 1.373 . S
C1737 C1753 1.377 . S
C1738 C1736 1.389 . S
C1738 C1739 1.524 . S
C1738 C1752 1.377 . S
C1739 C1738 1.524 . S
C1739 C1740 1.397 . S
C1739 C1744 1.363 . S
C1740 H1717 0.950 . S
C1740 C1739 1.397 . S
C1740 C1741 1.334 . S
C1741 H1718 0.950 . S
C1741 C1740 1.334 . S
C1741 C1742 1.287 . S
C1742 C1741 1.287 . S
C1742 C1743 1.524 . S
C1742 H1761 0.913 . S
C1743 H1719 0.950 . S
C1743 C1742 1.524 . S
C1743 C1744 1.415 . S
C1744 H1720 0.950 . S
C1744 C1739 1.363 . S
C1744 C1743 1.415 . S
C1745 H1721 0.951 . S
C1745 C1746 1.366 . S
C1745 C1747 1.388 . S
C1746 C1745 1.366 . S
C1746 C1750 1.385 . S
C1747 H1722 0.951 . S
C1747 C1745 1.388 . S
C1747 C1748 1.366 . S
C1748 C1747 1.366 . S
C1748 C1749 1.414 . S
C1748 C1751 1.499 . S
C1749 H1723 0.950 . S
C1749 C1748 1.414 . S
C1749 C1750 1.374 . S
C1750 H1724 0.950 . S
C1750 C1746 1.385 . S
C1750 C1749 1.374 . S
C1751 C1748 1.499 . S
C1751 C1752 1.373 . S
C1751 C1753 1.389 . S
C1752 H1725 0.950 . S
C1752 C1738 1.377 . S
C1752 C1751 1.373 . S
C1753 C1737 1.377 . S
C1753 C1751 1.389 . S
C1753 C1754 1.524 . S
C1754 C1753 1.524 . S
C1754 C1755 1.397 . S
C1754 C1759 1.363 . S
C1755 H1726 0.950 . S
C1755 C1754 1.397 . S
C1755 C1756 1.334 . S
C1756 H1727 0.950 . S
C1756 C1755 1.334 . S
C1756 C1757 1.287 . S
C1757 C1756 1.287 . S
C1757 C1758 1.524 . S
C1757 H1760 0.999 . S
C1758 H1728 0.950 . S
C1758 C1757 1.524 . S
C1758 C1759 1.415 . S
C1759 H1729 0.950 . S
C1759 C1754 1.363 . S
C1759 C1758 1.415 . S
H1760 C1757 0.999 . S
H1761 C1742 0.913 . S
H1762 C1780 0.951 . S
H1763 C1782 0.951 . S
H1764 C1784 0.950 . S
H1765 C1785 0.950 . S
H1766 C1787 0.950 . S
H1767 C1790 0.950 . S
H1768 C1791 0.950 . S
H1769 C1793 0.950 . S
H1770 C1794 0.950 . S
H1771 C1795 0.951 . S
H1772 C1797 0.951 . S
H1773 C1799 0.950 . S
H1774 C1800 0.950 . S
H1775 C1802 0.950 . S
H1776 C1805 0.950 . S
H1777 C1806 0.950 . S
H1778 C1808 0.950 . S
H1779 C1809 0.950 . S
C1780 H1762 0.951 . S
C1780 C1781 1.366 . S
C1780 C1782 1.388 . S
C1781 C1780 1.366 . S
C1781 C1785 1.385 . S
C1782 H1763 0.951 . S
C1782 C1780 1.388 . S
C1782 C1783 1.366 . S
C1783 C1782 1.366 . S
C1783 C1784 1.414 . S
C1783 C1786 1.499 . S
C1784 H1764 0.950 . S
C1784 C1783 1.414 . S
C1784 C1785 1.374 . S
C1785 H1765 0.950 . S
C1785 C1781 1.385 . S
C1785 C1784 1.374 . S
C1786 C1783 1.499 . S
C1786 C1787 1.373 . S
C1786 C1788 1.389 . S
C1787 H1766 0.950 . S
C1787 C1786 1.373 . S
C1787 C1803 1.377 . S
C1788 C1786 1.389 . S
C1788 C1789 1.524 . S
C1788 C1802 1.377 . S
C1789 C1788 1.524 . S
C1789 C1790 1.397 . S
C1789 C1794 1.363 . S
C1790 H1767 0.950 . S
C1790 C1789 1.397 . S
C1790 C1791 1.334 . S
C1791 H1768 0.950 . S
C1791 C1790 1.334 . S
C1791 C1792 1.287 . S
C1792 C1791 1.287 . S
C1792 C1793 1.524 . S
C1792 H1811 0.913 . S
C1793 H1769 0.950 . S
C1793 C1792 1.524 . S
C1793 C1794 1.415 . S
C1794 H1770 0.950 . S
C1794 C1789 1.363 . S
C1794 C1793 1.415 . S
C1795 H1771 0.951 . S
C1795 C1796 1.366 . S
C1795 C1797 1.388 . S
C1796 C1795 1.366 . S
C1796 C1800 1.385 . S
C1797 H1772 0.951 . S
C1797 C1795 1.388 . S
C1797 C1798 1.366 . S
C1798 C1797 1.366 . S
C1798 C1799 1.414 . S
C1798 C1801 1.499 . S
C1799 H1773 0.950 . S
C1799 C1798 1.414 . S
C1799 C1800 1.374 . S
C1800 H1774 0.950 . S
C1800 C1796 1.385 . S
C1800 C1799 1.374 . S
C1801 C1798 1.499 . S
C1801 C1802 1.373 . S
C1801 C1803 1.389 . S
C1802 H1775 0.950 . S
C1802 C1788 1.377 . S
C1802 C1801 1.373 . S
C1803 C1787 1.377 . S
C1803 C1801 1.389 . S
C1803 C1804 1.524 . S
C1804 C1803 1.524 . S
C1804 C1805 1.397 . S
C1804 C1809 1.363 . S
C1805 H1776 0.950 . S
C1805 C1804 1.397 . S
C1805 C1806 1.334 . S
C1806 H1777 0.950 . S
C1806 C1805 1.334 . S
C1806 C1807 1.287 . S
C1807 C1806 1.287 . S
C1807 C1808 1.524 . S
C1807 H1810 0.999 . S
C1808 H1778 0.950 . S
C1808 C1807 1.524 . S
C1808 C1809 1.415 . S
C1809 H1779 0.950 . S
C1809 C1804 1.363 . S
C1809 C1808 1.415 . S
H1810 C1807 0.999 . S
H1811 C1792 0.913 . S
H1812 C1830 0.951 . S
H1813 C1832 0.951 . S
H1814 C1834 0.950 . S
H1815 C1835 0.950 . S
H1816 C1837 0.950 . S
H1817 C1840 0.950 . S
H1818 C1841 0.950 . S
H1819 C1843 0.950 . S
H1820 C1844 0.950 . S
H1821 C1845 0.951 . S
H1822 C1847 0.951 . S
H1823 C1849 0.950 . S
H1824 C1850 0.950 . S
H1825 C1852 0.950 . S
H1826 C1855 0.950 . S
H1827 C1856 0.950 . S
H1828 C1858 0.950 . S
H1829 C1859 0.950 . S
C1830 H1812 0.951 . S
C1830 C1831 1.366 . S
C1830 C1832 1.388 . S
C1831 C1830 1.366 . S
C1831 C1835 1.385 . S
C1832 H1813 0.951 . S
C1832 C1830 1.388 . S
C1832 C1833 1.366 . S
C1833 C1832 1.366 . S
C1833 C1834 1.414 . S
C1833 C1836 1.499 . S
C1834 H1814 0.950 . S
C1834 C1833 1.414 . S
C1834 C1835 1.374 . S
C1835 H1815 0.950 . S
C1835 C1831 1.385 . S
C1835 C1834 1.374 . S
C1836 C1833 1.499 . S
C1836 C1837 1.373 . S
C1836 C1838 1.389 . S
C1837 H1816 0.950 . S
C1837 C1836 1.373 . S
C1837 C1853 1.377 . S
C1838 C1836 1.389 . S
C1838 C1839 1.524 . S
C1838 C1852 1.377 . S
C1839 C1838 1.524 . S
C1839 C1840 1.397 . S
C1839 C1844 1.363 . S
C1840 H1817 0.950 . S
C1840 C1839 1.397 . S
C1840 C1841 1.334 . S
C1841 H1818 0.950 . S
C1841 C1840 1.334 . S
C1841 C1842 1.287 . S
C1842 C1841 1.287 . S
C1842 C1843 1.524 . S
C1842 H1861 0.913 . S
C1843 H1819 0.950 . S
C1843 C1842 1.524 . S
C1843 C1844 1.415 . S
C1844 H1820 0.950 . S
C1844 C1839 1.363 . S
C1844 C1843 1.415 . S
C1845 H1821 0.951 . S
C1845 C1846 1.366 . S
C1845 C1847 1.388 . S
C1846 C1845 1.366 . S
C1846 C1850 1.385 . S
C1847 H1822 0.951 . S
C1847 C1845 1.388 . S
C1847 C1848 1.366 . S
C1848 C1847 1.366 . S
C1848 C1849 1.414 . S
C1848 C1851 1.499 . S
C1849 H1823 0.950 . S
C1849 C1848 1.414 . S
C1849 C1850 1.374 . S
C1850 H1824 0.950 . S
C1850 C1846 1.385 . S
C1850 C1849 1.374 . S
C1851 C1848 1.499 . S
C1851 C1852 1.373 . S
C1851 C1853 1.389 . S
C1852 H1825 0.950 . S
C1852 C1838 1.377 . S
C1852 C1851 1.373 . S
C1853 C1837 1.377 . S
C1853 C1851 1.389 . S
C1853 C1854 1.524 . S
C1854 C1853 1.524 . S
C1854 C1855 1.397 . S
C1854 C1859 1.363 . S
C1855 H1826 0.950 . S
C1855 C1854 1.397 . S
C1855 C1856 1.334 . S
C1856 H1827 0.950 . S
C1856 C1855 1.334 . S
C1856 C1857 1.287 . S
C1857 C1856 1.287 . S
C1857 C1858 1.524 . S
C1857 H1860 0.999 . S
C1858 H1828 0.950 . S
C1858 C1857 1.524 . S
C1858 C1859 1.415 . S
C1859 H1829 0.950 . S
C1859 C1854 1.363 . S
C1859 C1858 1.415 . S
H1860 C1857 0.999 . S
H1861 C1842 0.913 . S
H1862 C1880 0.951 . S
H1863 C1882 0.951 . S
H1864 C1884 0.950 . S
H1865 C1885 0.950 . S
H1866 C1887 0.950 . S
H1867 C1890 0.950 . S
H1868 C1891 0.950 . S
H1869 C1893 0.950 . S
H1870 C1894 0.950 . S
H1871 C1895 0.951 1_556 S
H1872 C1897 0.951 . S
H1873 C1899 0.950 . S
H1874 C1900 0.950 . S
H1875 C1902 0.950 . S
H1876 C1905 0.950 . S
H1877 C1906 0.950 . S
H1878 C1908 0.950 . S
H1879 C1909 0.950 . S
C1880 H1862 0.951 . S
C1880 C1881 1.366 . S
C1880 C1882 1.388 . S
C1881 C1880 1.366 . S
C1881 C1885 1.385 . S
C1882 H1863 0.951 . S
C1882 C1880 1.388 . S
C1882 C1883 1.366 . S
C1883 C1882 1.366 . S
C1883 C1884 1.414 . S
C1883 C1886 1.499 . S
C1884 H1864 0.950 . S
C1884 C1883 1.414 . S
C1884 C1885 1.374 . S
C1885 H1865 0.950 . S
C1885 C1881 1.385 . S
C1885 C1884 1.374 . S
C1886 C1883 1.499 . S
C1886 C1887 1.373 . S
C1886 C1888 1.389 . S
C1887 H1866 0.950 . S
C1887 C1886 1.373 . S
C1887 C1903 1.377 . S
C1888 C1886 1.389 . S
C1888 C1889 1.524 . S
C1888 C1902 1.377 . S
C1889 C1888 1.524 . S
C1889 C1890 1.397 . S
C1889 C1894 1.363 . S
C1890 H1867 0.950 . S
C1890 C1889 1.397 . S
C1890 C1891 1.334 . S
C1891 H1868 0.950 . S
C1891 C1890 1.334 . S
C1891 C1892 1.287 . S
C1892 C1891 1.287 . S
C1892 C1893 1.524 . S
C1892 H1911 0.913 . S
C1893 H1869 0.950 . S
C1893 C1892 1.524 . S
C1893 C1894 1.415 . S
C1894 H1870 0.950 . S
C1894 C1889 1.363 . S
C1894 C1893 1.415 . S
C1895 H1871 0.951 1_554 S
C1895 C1896 1.366 . S
C1895 C1897 1.388 . S
C1896 C1895 1.366 . S
C1896 C1900 1.385 . S
C1897 H1872 0.951 . S
C1897 C1895 1.388 . S
C1897 C1898 1.366 . S
C1898 C1897 1.366 . S
C1898 C1899 1.414 . S
C1898 C1901 1.499 . S
C1899 H1873 0.950 . S
C1899 C1898 1.414 . S
C1899 C1900 1.374 . S
C1900 H1874 0.950 . S
C1900 C1896 1.385 . S
C1900 C1899 1.374 . S
C1901 C1898 1.499 . S
C1901 C1902 1.373 . S
C1901 C1903 1.389 . S
C1902 H1875 0.950 . S
C1902 C1888 1.377 . S
C1902 C1901 1.373 . S
C1903 C1887 1.377 . S
C1903 C1901 1.389 . S
C1903 C1904 1.524 . S
C1904 C1903 1.524 . S
C1904 C1905 1.397 . S
C1904 C1909 1.363 . S
C1905 H1876 0.950 . S
C1905 C1904 1.397 . S
C1905 C1906 1.334 . S
C1906 H1877 0.950 . S
C1906 C1905 1.334 . S
C1906 C1907 1.287 . S
C1907 C1906 1.287 . S
C1907 C1908 1.524 . S
C1907 H1910 0.999 . S
C1908 H1878 0.950 . S
C1908 C1907 1.524 . S
C1908 C1909 1.415 . S
C1909 H1879 0.950 . S
C1909 C1904 1.363 . S
C1909 C1908 1.415 . S
H1910 C1907 0.999 . S
H1911 C1892 0.913 . S
H1912 C1930 0.951 . S
H1913 C1932 0.951 . S
H1914 C1934 0.950 . S
H1915 C1935 0.950 . S
H1916 C1937 0.950 . S
H1917 C1940 0.950 . S
H1918 C1941 0.950 . S
H1919 C1943 0.950 . S
H1920 C1944 0.950 . S
H1921 C1945 0.951 . S
H1922 C1947 0.951 . S
H1923 C1949 0.950 . S
H1924 C1950 0.950 . S
H1925 C1952 0.950 . S
H1926 C1955 0.950 . S
H1927 C1956 0.950 . S
H1928 C1958 0.950 . S
H1929 C1959 0.950 . S
C1930 H1912 0.951 . S
C1930 C1931 1.366 . S
C1930 C1932 1.388 . S
C1931 C1930 1.366 . S
C1931 C1935 1.385 . S
C1932 H1913 0.951 . S
C1932 C1930 1.388 . S
C1932 C1933 1.366 . S
C1933 C1932 1.366 . S
C1933 C1934 1.414 . S
C1933 C1936 1.499 . S
C1934 H1914 0.950 . S
C1934 C1933 1.414 . S
C1934 C1935 1.374 . S
C1935 H1915 0.950 . S
C1935 C1931 1.385 . S
C1935 C1934 1.374 . S
C1936 C1933 1.499 . S
C1936 C1937 1.373 . S
C1936 C1938 1.389 . S
C1937 H1916 0.950 . S
C1937 C1936 1.373 . S
C1937 C1953 1.377 . S
C1938 C1936 1.389 . S
C1938 C1939 1.524 . S
C1938 C1952 1.377 . S
C1939 C1938 1.524 . S
C1939 C1940 1.397 . S
C1939 C1944 1.363 . S
C1940 H1917 0.950 . S
C1940 C1939 1.397 . S
C1940 C1941 1.334 . S
C1941 H1918 0.950 . S
C1941 C1940 1.334 . S
C1941 C1942 1.287 . S
C1942 C1941 1.287 . S
C1942 C1943 1.524 . S
C1942 H1961 0.913 . S
C1943 H1919 0.950 . S
C1943 C1942 1.524 . S
C1943 C1944 1.415 . S
C1944 H1920 0.950 . S
C1944 C1939 1.363 . S
C1944 C1943 1.415 . S
C1945 H1921 0.951 . S
C1945 C1946 1.366 . S
C1945 C1947 1.388 . S
C1946 C1945 1.366 . S
C1946 C1950 1.385 . S
C1947 H1922 0.951 . S
C1947 C1945 1.388 . S
C1947 C1948 1.366 . S
C1948 C1947 1.366 . S
C1948 C1949 1.414 . S
C1948 C1951 1.499 . S
C1949 H1923 0.950 . S
C1949 C1948 1.414 . S
C1949 C1950 1.374 . S
C1950 H1924 0.950 . S
C1950 C1946 1.385 . S
C1950 C1949 1.374 . S
C1951 C1948 1.499 . S
C1951 C1952 1.373 . S
C1951 C1953 1.389 . S
C1952 H1925 0.950 . S
C1952 C1938 1.377 . S
C1952 C1951 1.373 . S
C1953 C1937 1.377 . S
C1953 C1951 1.389 . S
C1953 C1954 1.524 . S
C1954 C1953 1.524 . S
C1954 C1955 1.397 . S
C1954 C1959 1.363 . S
C1955 H1926 0.950 . S
C1955 C1954 1.397 . S
C1955 C1956 1.334 . S
C1956 H1927 0.950 . S
C1956 C1955 1.334 . S
C1956 C1957 1.287 . S
C1957 C1956 1.287 . S
C1957 C1958 1.524 . S
C1957 H1960 0.999 . S
C1958 H1928 0.950 . S
C1958 C1957 1.524 . S
C1958 C1959 1.415 . S
C1959 H1929 0.950 . S
C1959 C1954 1.363 . S
C1959 C1958 1.415 . S
H1960 C1957 0.999 . S
H1961 C1942 0.913 . S
H1962 C1980 0.951 . S
H1963 C1982 0.951 . S
H1964 C1984 0.950 . S
H1965 C1985 0.950 . S
H1966 C1987 0.950 . S
H1967 C1990 0.950 . S
H1968 C1991 0.950 . S
H1969 C1993 0.950 . S
H1970 C1994 0.950 . S
H1971 C1995 0.951 . S
H1972 C1997 0.951 . S
H1973 C1999 0.950 . S
H1974 C2000 0.950 . S
H1975 C2002 0.950 . S
H1976 C2005 0.950 . S
H1977 C2006 0.950 . S
H1978 C2008 0.950 . S
H1979 C2009 0.950 . S
C1980 H1962 0.951 . S
C1980 C1981 1.366 . S
C1980 C1982 1.388 . S
C1981 C1980 1.366 . S
C1981 C1985 1.385 . S
C1982 H1963 0.951 . S
C1982 C1980 1.388 . S
C1982 C1983 1.366 . S
C1983 C1982 1.366 . S
C1983 C1984 1.414 . S
C1983 C1986 1.499 . S
C1984 H1964 0.950 . S
C1984 C1983 1.414 . S
C1984 C1985 1.374 . S
C1985 H1965 0.950 . S
C1985 C1981 1.385 . S
C1985 C1984 1.374 . S
C1986 C1983 1.499 . S
C1986 C1987 1.373 . S
C1986 C1988 1.389 . S
C1987 H1966 0.950 . S
C1987 C1986 1.373 . S
C1987 C2003 1.377 . S
C1988 C1986 1.389 . S
C1988 C1989 1.524 . S
C1988 C2002 1.377 . S
C1989 C1988 1.524 . S
C1989 C1990 1.397 . S
C1989 C1994 1.363 . S
C1990 H1967 0.950 . S
C1990 C1989 1.397 . S
C1990 C1991 1.334 . S
C1991 H1968 0.950 . S
C1991 C1990 1.334 . S
C1991 C1992 1.287 . S
C1992 C1991 1.287 . S
C1992 C1993 1.524 . S
C1992 H2011 0.913 . S
C1993 H1969 0.950 . S
C1993 C1992 1.524 . S
C1993 C1994 1.415 . S
C1994 H1970 0.950 . S
C1994 C1989 1.363 . S
C1994 C1993 1.415 . S
C1995 H1971 0.951 . S
C1995 C1996 1.366 . S
C1995 C1997 1.388 . S
C1996 C1995 1.366 . S
C1996 C2000 1.385 . S
C1997 H1972 0.951 . S
C1997 C1995 1.388 . S
C1997 C1998 1.366 . S
C1998 C1997 1.366 . S
C1998 C1999 1.414 . S
C1998 C2001 1.499 . S
C1999 H1973 0.950 . S
C1999 C1998 1.414 . S
C1999 C2000 1.374 . S
C2000 H1974 0.950 . S
C2000 C1996 1.385 . S
C2000 C1999 1.374 . S
C2001 C1998 1.499 . S
C2001 C2002 1.373 . S
C2001 C2003 1.389 . S
C2002 H1975 0.950 . S
C2002 C1988 1.377 . S
C2002 C2001 1.373 . S
C2003 C1987 1.377 . S
C2003 C2001 1.389 . S
C2003 C2004 1.524 . S
C2004 C2003 1.524 . S
C2004 C2005 1.397 . S
C2004 C2009 1.363 . S
C2005 H1976 0.950 . S
C2005 C2004 1.397 . S
C2005 C2006 1.334 . S
C2006 H1977 0.950 . S
C2006 C2005 1.334 . S
C2006 C2007 1.287 . S
C2007 C2006 1.287 . S
C2007 C2008 1.524 . S
C2007 H2010 0.999 . S
C2008 H1978 0.950 . S
C2008 C2007 1.524 . S
C2008 C2009 1.415 . S
C2009 H1979 0.950 . S
C2009 C2004 1.363 . S
C2009 C2008 1.415 . S
H2010 C2007 0.999 . S
H2011 C1992 0.913 . S
H2012 C2030 0.951 . S
H2013 C2032 0.951 . S
H2014 C2034 0.950 . S
H2015 C2035 0.950 . S
H2016 C2037 0.950 . S
H2017 C2040 0.950 . S
H2018 C2041 0.950 . S
H2019 C2043 0.950 . S
H2020 C2044 0.950 . S
H2021 C2045 0.951 . S
H2022 C2047 0.951 . S
H2023 C2049 0.950 . S
H2024 C2050 0.950 . S
H2025 C2052 0.950 . S
H2026 C2055 0.950 . S
H2027 C2056 0.950 . S
H2028 C2058 0.950 . S
H2029 C2059 0.950 . S
C2030 H2012 0.951 . S
C2030 C2031 1.366 . S
C2030 C2032 1.388 . S
C2031 C2030 1.366 . S
C2031 C2035 1.385 . S
C2032 H2013 0.951 . S
C2032 C2030 1.388 . S
C2032 C2033 1.366 . S
C2033 C2032 1.366 . S
C2033 C2034 1.414 . S
C2033 C2036 1.499 . S
C2034 H2014 0.950 . S
C2034 C2033 1.414 . S
C2034 C2035 1.374 . S
C2035 H2015 0.950 . S
C2035 C2031 1.385 . S
C2035 C2034 1.374 . S
C2036 C2033 1.499 . S
C2036 C2037 1.373 . S
C2036 C2038 1.389 . S
C2037 H2016 0.950 . S
C2037 C2036 1.373 . S
C2037 C2053 1.377 . S
C2038 C2036 1.389 . S
C2038 C2039 1.524 . S
C2038 C2052 1.377 . S
C2039 C2038 1.524 . S
C2039 C2040 1.397 . S
C2039 C2044 1.363 . S
C2040 H2017 0.950 . S
C2040 C2039 1.397 . S
C2040 C2041 1.334 . S
C2041 H2018 0.950 . S
C2041 C2040 1.334 . S
C2041 C2042 1.287 . S
C2042 C2041 1.287 . S
C2042 C2043 1.524 . S
C2042 H2061 0.913 . S
C2043 H2019 0.950 . S
C2043 C2042 1.524 . S
C2043 C2044 1.415 . S
C2044 H2020 0.950 . S
C2044 C2039 1.363 . S
C2044 C2043 1.415 . S
C2045 H2021 0.951 . S
C2045 C2046 1.366 . S
C2045 C2047 1.388 . S
C2046 C2045 1.366 . S
C2046 C2050 1.385 . S
C2047 H2022 0.951 . S
C2047 C2045 1.388 . S
C2047 C2048 1.366 . S
C2048 C2047 1.366 . S
C2048 C2049 1.414 . S
C2048 C2051 1.499 . S
C2049 H2023 0.950 . S
C2049 C2048 1.414 . S
C2049 C2050 1.374 . S
C2050 H2024 0.950 . S
C2050 C2046 1.385 . S
C2050 C2049 1.374 . S
C2051 C2048 1.499 . S
C2051 C2052 1.373 . S
C2051 C2053 1.389 . S
C2052 H2025 0.950 . S
C2052 C2038 1.377 . S
C2052 C2051 1.373 . S
C2053 C2037 1.377 . S
C2053 C2051 1.389 . S
C2053 C2054 1.524 . S
C2054 C2053 1.524 . S
C2054 C2055 1.397 . S
C2054 C2059 1.363 . S
C2055 H2026 0.950 . S
C2055 C2054 1.397 . S
C2055 C2056 1.334 . S
C2056 H2027 0.950 . S
C2056 C2055 1.334 . S
C2056 C2057 1.287 . S
C2057 C2056 1.287 . S
C2057 C2058 1.524 . S
C2057 H2060 0.999 . S
C2058 H2028 0.950 . S
C2058 C2057 1.524 . S
C2058 C2059 1.415 . S
C2059 H2029 0.950 . S
C2059 C2054 1.363 . S
C2059 C2058 1.415 . S
H2060 C2057 0.999 . S
H2061 C2042 0.913 . S
H2062 C2080 0.951 . S
H2063 C2082 0.951 . S
H2064 C2084 0.950 . S
H2065 C2085 0.950 . S
H2066 C2087 0.950 1_565 S
H2067 C2090 0.950 . S
H2068 C2091 0.950 . S
H2069 C2093 0.950 . S
H2070 C2094 0.950 . S
H2071 C2095 0.951 . S
H2072 C2097 0.951 . S
H2073 C2099 0.950 . S
H2074 C2100 0.950 . S
H2075 C2102 0.950 . S
H2076 C2105 0.950 . S
H2077 C2106 0.950 . S
H2078 C2108 0.962 . S
H2079 C2109 0.950 . S
C2080 H2062 0.951 . S
C2080 C2081 1.366 . S
C2080 C2082 1.388 . S
C2081 C2080 1.366 . S
C2081 C2085 1.385 . S
C2082 H2063 0.951 . S
C2082 C2080 1.388 . S
C2082 C2083 1.366 1_565 S
C2083 C2082 1.366 1_545 S
C2083 C2084 1.414 . S
C2083 C2086 1.499 . S
C2084 H2064 0.950 . S
C2084 C2083 1.414 . S
C2084 C2085 1.374 1_545 S
C2085 H2065 0.950 . S
C2085 C2081 1.385 . S
C2085 C2084 1.374 1_565 S
C2086 C2083 1.499 . S
C2086 C2087 1.373 . S
C2086 C2088 1.389 . S
C2087 H2066 0.950 1_545 S
C2087 C2086 1.373 . S
C2087 C2103 1.377 . S
C2088 C2086 1.389 . S
C2088 C2089 1.524 . S
C2088 C2102 1.377 . S
C2089 C2088 1.524 . S
C2089 C2090 1.397 . S
C2089 C2094 1.363 . S
C2090 H2067 0.950 . S
C2090 C2089 1.397 . S
C2090 C2091 1.334 . S
C2091 H2068 0.950 . S
C2091 C2090 1.334 . S
C2091 C2092 1.287 . S
C2092 C2091 1.287 . S
C2092 C2093 1.524 . S
C2092 H2111 0.913 . S
C2093 H2069 0.950 . S
C2093 C2092 1.524 . S
C2093 C2094 1.415 . S
C2094 H2070 0.950 . S
C2094 C2089 1.363 . S
C2094 C2093 1.415 . S
C2095 H2071 0.951 . S
C2095 C2096 1.366 . S
C2095 C2097 1.388 . S
C2096 C2095 1.366 . S
C2096 C2100 1.385 . S
C2097 H2072 0.951 . S
C2097 C2095 1.388 . S
C2097 C2098 1.366 . S
C2098 C2097 1.366 . S
C2098 C2099 1.414 . S
C2098 C2101 1.499 . S
C2099 H2073 0.950 . S
C2099 C2098 1.414 . S
C2099 C2100 1.374 . S
C2100 H2074 0.950 . S
C2100 C2096 1.385 . S
C2100 C2099 1.374 . S
C2101 C2098 1.499 . S
C2101 C2102 1.373 . S
C2101 C2103 1.389 . S
C2102 H2075 0.950 . S
C2102 C2088 1.377 . S
C2102 C2101 1.373 . S
C2103 C2087 1.377 . S
C2103 C2101 1.389 . S
C2103 C2104 1.524 . S
C2104 C2103 1.524 . S
C2104 C2105 1.397 1_545 S
C2104 C2109 1.363 . S
C2105 H2076 0.950 . S
C2105 C2104 1.397 1_565 S
C2105 C2106 1.334 . S
C2106 H2077 0.950 . S
C2106 C2105 1.334 . S
C2106 C2107 1.287 . S
C2107 C2106 1.287 . S
C2107 C2108 1.524 . S
C2107 H2110 0.999 . S
C2108 H2078 0.962 . S
C2108 C2107 1.524 . S
C2108 C2109 1.415 1_565 S
C2109 H2079 0.950 . S
C2109 C2104 1.363 . S
C2109 C2108 1.415 1_545 S
H2110 C2107 0.999 . S
H2111 C2092 0.913 . S
H2112 C2130 0.951 . S
H2113 C2132 0.951 . S
H2114 C2134 0.950 . S
H2115 C2135 0.950 . S
H2116 C2137 0.950 . S
H2117 C2140 0.950 . S
H2118 C2141 0.950 . S
H2119 C2143 0.950 . S
H2120 C2144 0.950 . S
H2121 C2145 0.951 . S
H2122 C2147 0.951 . S
H2123 C2149 0.950 . S
H2124 C2150 0.950 . S
H2125 C2152 0.950 . S
H2126 C2155 0.950 . S
H2127 C2156 0.950 . S
H2128 C2158 0.950 . S
H2129 C2159 0.950 . S
C2130 H2112 0.951 . S
C2130 C2131 1.366 . S
C2130 C2132 1.388 . S
C2131 C2130 1.366 . S
C2131 C2135 1.385 . S
C2132 H2113 0.951 . S
C2132 C2130 1.388 . S
C2132 C2133 1.366 . S
C2133 C2132 1.366 . S
C2133 C2134 1.414 . S
C2133 C2136 1.499 . S
C2134 H2114 0.950 . S
C2134 C2133 1.414 . S
C2134 C2135 1.374 . S
C2135 H2115 0.950 . S
C2135 C2131 1.385 . S
C2135 C2134 1.374 . S
C2136 C2133 1.499 . S
C2136 C2137 1.373 . S
C2136 C2138 1.389 . S
C2137 H2116 0.950 . S
C2137 C2136 1.373 . S
C2137 C2153 1.377 . S
C2138 C2136 1.389 . S
C2138 C2139 1.524 . S
C2138 C2152 1.377 . S
C2139 C2138 1.524 . S
C2139 C2140 1.397 . S
C2139 C2144 1.363 . S
C2140 H2117 0.950 . S
C2140 C2139 1.397 . S
C2140 C2141 1.334 . S
C2141 H2118 0.950 . S
C2141 C2140 1.334 . S
C2141 C2142 1.287 1_554 S
C2142 C2141 1.287 1_556 S
C2142 C2143 1.524 . S
C2142 H2161 0.913 . S
C2143 H2119 0.950 . S
C2143 C2142 1.524 . S
C2143 C2144 1.415 1_556 S
C2144 H2120 0.950 . S
C2144 C2139 1.363 . S
C2144 C2143 1.415 1_554 S
C2145 H2121 0.951 . S
C2145 C2146 1.366 1_554 S
C2145 C2147 1.388 . S
C2146 C2145 1.366 1_556 S
C2146 C2150 1.385 . S
C2147 H2122 0.951 . S
C2147 C2145 1.388 . S
C2147 C2148 1.366 . S
C2148 C2147 1.366 . S
C2148 C2149 1.414 . S
C2148 C2151 1.499 . S
C2149 H2123 0.950 . S
C2149 C2148 1.414 . S
C2149 C2150 1.374 1_554 S
C2150 H2124 0.950 . S
C2150 C2146 1.385 . S
C2150 C2149 1.374 1_556 S
C2151 C2148 1.499 . S
C2151 C2152 1.373 . S
C2151 C2153 1.389 . S
C2152 H2125 0.950 . S
C2152 C2138 1.377 . S
C2152 C2151 1.373 . S
C2153 C2137 1.377 . S
C2153 C2151 1.389 . S
C2153 C2154 1.524 . S
C2154 C2153 1.524 . S
C2154 C2155 1.397 . S
C2154 C2159 1.363 . S
C2155 H2126 0.950 . S
C2155 C2154 1.397 . S
C2155 C2156 1.334 . S
C2156 H2127 0.950 . S
C2156 C2155 1.334 . S
C2156 C2157 1.287 . S
C2157 C2156 1.287 . S
C2157 C2158 1.524 . S
C2157 H2160 0.999 . S
C2158 H2128 0.950 . S
C2158 C2157 1.524 . S
C2158 C2159 1.415 . S
C2159 H2129 0.950 . S
C2159 C2154 1.363 . S
C2159 C2158 1.415 . S
H2160 C2157 0.999 . S
H2161 C2142 0.913 . S
H2162 C2180 0.951 . S
H2163 C2182 0.951 . S
H2164 C2184 0.950 . S
H2165 C2185 0.950 . S
H2166 C2187 0.950 . S
H2167 C2190 0.950 . S
H2168 C2191 0.950 . S
H2169 C2193 0.950 . S
H2170 C2194 0.950 . S
H2171 C2195 0.951 . S
H2172 C2197 0.951 . S
H2173 C2199 0.950 . S
H2174 C2200 0.950 . S
H2175 C2202 0.955 . S
H2176 C2205 0.950 . S
H2177 C2206 0.950 . S
H2178 C2208 0.950 . S
H2179 C2209 0.950 . S
C2180 H2162 0.951 . S
C2180 C2181 1.366 . S
C2180 C2182 1.388 . S
C2181 C2180 1.366 . S
C2181 C2185 1.385 1_556 S
C2182 H2163 0.951 . S
C2182 C2180 1.388 . S
C2182 C2183 1.363 1_556 S
C2183 C2182 1.363 1_554 S
C2183 C2184 1.411 1_655 S
C2183 C2186 1.504 1_655 S
C2184 H2164 0.950 . S
C2184 C2183 1.411 1_455 S
C2184 C2185 1.374 1_455 S
C2185 H2165 0.950 . S
C2185 C2181 1.385 1_554 S
C2185 C2184 1.374 1_655 S
C2186 C2183 1.504 1_455 S
C2186 C2187 1.373 . S
C2186 C2188 1.389 1_455 S
C2187 H2166 0.950 . S
C2187 C2186 1.373 . S
C2187 C2203 1.377 . S
C2188 C2186 1.389 1_655 S
C2188 C2189 1.577 . S
C2188 C2202 1.327 1_655 S
C2189 C2188 1.577 . S
C2189 C2190 1.397 . S
C2189 C2194 1.363 . S
C2190 H2167 0.950 . S
C2190 C2189 1.397 . S
C2190 C2191 1.334 . S
C2191 H2168 0.950 . S
C2191 C2190 1.334 . S
C2191 C2192 1.287 . S
C2192 C2191 1.287 . S
C2192 C2193 1.524 . S
C2192 H2211 0.913 . S
C2193 H2169 0.950 . S
C2193 C2192 1.524 . S
C2193 C2194 1.415 . S
C2194 H2170 0.950 . S
C2194 C2189 1.363 . S
C2194 C2193 1.415 . S
C2195 H2171 0.951 . S
C2195 C2196 1.366 . S
C2195 C2197 1.388 . S
C2196 C2195 1.366 . S
C2196 C2200 1.385 . S
C2197 H2172 0.951 . S
C2197 C2195 1.388 . S
C2197 C2198 1.366 . S
C2198 C2197 1.366 . S
C2198 C2199 1.414 . S
C2198 C2201 1.499 . S
C2199 H2173 0.950 . S
C2199 C2198 1.414 . S
C2199 C2200 1.374 . S
C2200 H2174 0.950 . S
C2200 C2196 1.385 . S
C2200 C2199 1.374 . S
C2201 C2198 1.499 . S
C2201 C2202 1.373 . S
C2201 C2203 1.389 . S
C2202 H2175 0.955 . S
C2202 C2188 1.327 1_455 S
C2202 C2201 1.373 . S
C2203 C2187 1.377 . S
C2203 C2201 1.389 . S
C2203 C2204 1.524 . S
C2204 C2203 1.524 . S
C2204 C2205 1.397 . S
C2204 C2209 1.363 . S
C2205 H2176 0.950 . S
C2205 C2204 1.397 . S
C2205 C2206 1.334 . S
C2206 H2177 0.950 . S
C2206 C2205 1.334 . S
C2206 C2207 1.287 . S
C2207 C2206 1.287 . S
C2207 C2208 1.524 . S
C2207 H2210 0.999 . S
C2208 H2178 0.950 . S
C2208 C2207 1.524 . S
C2208 C2209 1.415 . S
C2209 H2179 0.950 . S
C2209 C2204 1.363 . S
C2209 C2208 1.415 . S
H2210 C2207 0.999 . S
H2211 C2192 0.913 . S
H2212 C2230 0.951 . S
H2213 C2232 0.951 . S
H2214 C2234 0.950 . S
H2215 C2235 0.950 . S
H2216 C2237 0.950 . S
H2217 C2240 0.950 1_556 S
H2218 C2241 0.950 . S
H2219 C2243 0.950 . S
H2220 C2244 0.950 . S
H2221 C2245 0.951 . S
H2222 C2247 0.951 . S
H2223 C2249 0.950 . S
H2224 C2250 0.950 . S
H2225 C2252 0.950 . S
H2226 C2255 0.950 . S
H2227 C2256 0.950 . S
H2228 C2258 0.950 . S
H2229 C2259 0.950 . S
C2230 H2212 0.951 . S
C2230 C2231 1.366 1_554 S
C2230 C2232 1.388 . S
C2231 C2230 1.366 1_556 S
C2231 C2235 1.385 . S
C2232 H2213 0.951 . S
C2232 C2230 1.388 . S
C2232 C2233 1.366 . S
C2233 C2232 1.366 . S
C2233 C2234 1.414 1_554 S
C2233 C2236 1.499 . S
C2234 H2214 0.950 . S
C2234 C2233 1.414 1_556 S
C2234 C2235 1.374 . S
C2235 H2215 0.950 . S
C2235 C2231 1.385 . S
C2235 C2234 1.374 . S
C2236 C2233 1.499 . S
C2236 C2237 1.373 . S
C2236 C2238 1.389 . S
C2237 H2216 0.950 . S
C2237 C2236 1.373 . S
C2237 C2253 1.377 . S
C2238 C2236 1.389 . S
C2238 C2239 1.524 . S
C2238 C2252 1.377 . S
C2239 C2238 1.524 . S
C2239 C2240 1.397 . S
C2239 C2244 1.363 . S
C2240 H2217 0.950 1_554 S
C2240 C2239 1.397 . S
C2240 C2241 1.334 1_554 S
C2241 H2218 0.950 . S
C2241 C2240 1.334 1_556 S
C2241 C2242 1.287 1_556 S
C2242 C2241 1.287 1_554 S
C2242 C2243 1.524 . S
C2242 H2261 0.913 . S
C2243 H2219 0.950 . S
C2243 C2242 1.524 . S
C2243 C2244 1.415 . S
C2244 H2220 0.950 . S
C2244 C2239 1.363 . S
C2244 C2243 1.415 . S
C2245 H2221 0.951 . S
C2245 C2246 1.366 . S
C2245 C2247 1.388 . S
C2246 C2245 1.366 . S
C2246 C2250 1.385 . S
C2247 H2222 0.951 . S
C2247 C2245 1.388 . S
C2247 C2248 1.366 . S
C2248 C2247 1.366 . S
C2248 C2249 1.414 . S
C2248 C2251 1.499 . S
C2249 H2223 0.950 . S
C2249 C2248 1.414 . S
C2249 C2250 1.374 . S
C2250 H2224 0.950 . S
C2250 C2246 1.385 . S
C2250 C2249 1.374 . S
C2251 C2248 1.499 . S
C2251 C2252 1.373 . S
C2251 C2253 1.389 . S
C2252 H2225 0.950 . S
C2252 C2238 1.377 . S
C2252 C2251 1.373 . S
C2253 C2237 1.377 . S
C2253 C2251 1.389 . S
C2253 C2254 1.524 . S
C2254 C2253 1.524 . S
C2254 C2255 1.397 . S
C2254 C2259 1.363 . S
C2255 H2226 0.950 . S
C2255 C2254 1.397 . S
C2255 C2256 1.334 . S
C2256 H2227 0.950 . S
C2256 C2255 1.334 . S
C2256 C2257 1.287 . S
C2257 C2256 1.287 . S
C2257 C2258 1.524 . S
C2257 H2260 0.999 . S
C2258 H2228 0.950 . S
C2258 C2257 1.524 . S
C2258 C2259 1.415 . S
C2259 H2229 0.950 . S
C2259 C2254 1.363 . S
C2259 C2258 1.415 . S
H2260 C2257 0.999 . S
H2261 C2242 0.913 . S
H2262 C2280 0.951 . S
H2263 C2282 0.951 . S
H2264 C2284 0.950 . S
H2265 C2285 0.950 . S
H2266 C2287 0.950 . S
H2267 C2290 0.950 . S
H2268 C2291 0.950 . S
H2269 C2293 0.950 . S
H2270 C2294 0.950 . S
H2271 C2295 0.951 . S
H2272 C2297 0.951 . S
H2273 C2299 0.950 . S
H2274 C2300 0.950 . S
H2275 C2302 0.987 . S
H2276 C2305 0.950 . S
H2277 C2306 0.950 . S
H2278 C2308 0.950 . S
H2279 C2309 0.950 . S
C2280 H2262 0.951 . S
C2280 C2281 1.366 . S
C2280 C2282 1.388 . S
C2281 C2280 1.366 . S
C2281 C2285 1.385 . S
C2282 H2263 0.951 . S
C2282 C2280 1.388 . S
C2282 C2283 1.366 . S
C2283 C2282 1.366 . S
C2283 C2284 1.414 1_655 S
C2283 C2286 1.499 1_655 S
C2284 H2264 0.950 . S
C2284 C2283 1.414 1_455 S
C2284 C2285 1.374 1_455 S
C2285 H2265 0.950 . S
C2285 C2281 1.385 . S
C2285 C2284 1.374 1_655 S
C2286 C2283 1.499 1_455 S
C2286 C2287 1.373 . S
C2286 C2288 1.342 1_455 S
C2287 H2266 0.950 . S
C2287 C2286 1.373 . S
C2287 C2303 1.377 . S
C2288 C2286 1.342 1_655 S
C2288 C2289 1.583 . S
C2288 C2302 1.374 1_655 S
C2289 C2288 1.583 . S
C2289 C2290 1.397 . S
C2289 C2294 1.363 . S
C2290 H2267 0.950 . S
C2290 C2289 1.397 . S
C2290 C2291 1.334 . S
C2291 H2268 0.950 . S
C2291 C2290 1.334 . S
C2291 C2292 1.287 . S
C2292 C2291 1.287 . S
C2292 C2293 1.524 . S
C2292 H2311 0.913 . S
C2293 H2269 0.950 . S
C2293 C2292 1.524 . S
C2293 C2294 1.415 . S
C2294 H2270 0.950 . S
C2294 C2289 1.363 . S
C2294 C2293 1.415 . S
C2295 H2271 0.951 . S
C2295 C2296 1.366 . S
C2295 C2297 1.388 . S
C2296 C2295 1.366 . S
C2296 C2300 1.385 . S
C2297 H2272 0.951 . S
C2297 C2295 1.388 . S
C2297 C2298 1.366 . S
C2298 C2297 1.366 . S
C2298 C2299 1.414 . S
C2298 C2301 1.499 . S
C2299 H2273 0.950 . S
C2299 C2298 1.414 . S
C2299 C2300 1.374 . S
C2300 H2274 0.950 . S
C2300 C2296 1.385 . S
C2300 C2299 1.374 . S
C2301 C2298 1.499 . S
C2301 C2302 1.373 . S
C2301 C2303 1.389 . S
C2302 H2275 0.987 . S
C2302 C2288 1.374 1_455 S
C2302 C2301 1.373 . S
C2303 C2287 1.377 . S
C2303 C2301 1.389 . S
C2303 C2304 1.524 . S
C2304 C2303 1.524 . S
C2304 C2305 1.397 . S
C2304 C2309 1.363 . S
C2305 H2276 0.950 . S
C2305 C2304 1.397 . S
C2305 C2306 1.334 . S
C2306 H2277 0.950 . S
C2306 C2305 1.334 . S
C2306 C2307 1.287 . S
C2307 C2306 1.287 . S
C2307 C2308 1.524 . S
C2307 H2310 0.999 . S
C2308 H2278 0.950 . S
C2308 C2307 1.524 . S
C2308 C2309 1.415 . S
C2309 H2279 0.950 . S
C2309 C2304 1.363 . S
C2309 C2308 1.415 . S
H2310 C2307 0.999 . S
H2311 C2292 0.913 . S
H2312 C2330 0.951 . S
H2313 C2332 0.951 . S
H2314 C2334 0.950 . S
H2315 C2335 0.950 . S
H2316 C2337 0.950 . S
H2317 C2340 0.950 . S
H2318 C2341 0.950 . S
H2319 C2343 0.950 . S
H2320 C2344 0.950 . S
H2321 C2345 0.951 . S
H2322 C2347 0.951 . S
H2323 C2349 0.950 . S
H2324 C2350 0.950 . S
H2325 C2352 0.950 . S
H2326 C2355 0.950 . S
H2327 C2356 0.950 . S
H2328 C2358 0.950 . S
H2329 C2359 0.950 . S
C2330 H2312 0.951 . S
C2330 C2331 1.366 . S
C2330 C2332 1.388 . S
C2331 C2330 1.366 . S
C2331 C2335 1.385 . S
C2332 H2313 0.951 . S
C2332 C2330 1.388 . S
C2332 C2333 1.366 . S
C2333 C2332 1.366 . S
C2333 C2334 1.414 . S
C2333 C2336 1.499 . S
C2334 H2314 0.950 . S
C2334 C2333 1.414 . S
C2334 C2335 1.374 . S
C2335 H2315 0.950 . S
C2335 C2331 1.385 . S
C2335 C2334 1.374 . S
C2336 C2333 1.499 . S
C2336 C2337 1.373 . S
C2336 C2338 1.389 . S
C2337 H2316 0.950 . S
C2337 C2336 1.373 . S
C2337 C2353 1.377 . S
C2338 C2336 1.389 . S
C2338 C2339 1.524 . S
C2338 C2352 1.377 . S
C2339 C2338 1.524 . S
C2339 C2340 1.397 . S
C2339 C2344 1.363 . S
C2340 H2317 0.950 . S
C2340 C2339 1.397 . S
C2340 C2341 1.334 . S
C2341 H2318 0.950 . S
C2341 C2340 1.334 . S
C2341 C2342 1.287 . S
C2342 C2341 1.287 . S
C2342 C2343 1.524 . S
C2342 H2361 0.913 . S
C2343 H2319 0.950 . S
C2343 C2342 1.524 . S
C2343 C2344 1.415 . S
C2344 H2320 0.950 . S
C2344 C2339 1.363 . S
C2344 C2343 1.415 . S
C2345 H2321 0.951 . S
C2345 C2346 1.366 . S
C2345 C2347 1.388 . S
C2346 C2345 1.366 . S
C2346 C2350 1.385 . S
C2347 H2322 0.951 . S
C2347 C2345 1.388 . S
C2347 C2348 1.366 . S
C2348 C2347 1.366 . S
C2348 C2349 1.414 . S
C2348 C2351 1.499 . S
C2349 H2323 0.950 . S
C2349 C2348 1.414 . S
C2349 C2350 1.374 . S
C2350 H2324 0.950 . S
C2350 C2346 1.385 . S
C2350 C2349 1.374 . S
C2351 C2348 1.499 . S
C2351 C2352 1.373 . S
C2351 C2353 1.389 . S
C2352 H2325 0.950 . S
C2352 C2338 1.377 . S
C2352 C2351 1.373 . S
C2353 C2337 1.377 . S
C2353 C2351 1.389 . S
C2353 C2354 1.524 . S
C2354 C2353 1.524 . S
C2354 C2355 1.397 . S
C2354 C2359 1.363 . S
C2355 H2326 0.950 . S
C2355 C2354 1.397 . S
C2355 C2356 1.334 . S
C2356 H2327 0.950 . S
C2356 C2355 1.334 . S
C2356 C2357 1.287 . S
C2357 C2356 1.287 . S
C2357 C2358 1.524 . S
C2357 H2360 0.999 . S
C2358 H2328 0.950 . S
C2358 C2357 1.524 . S
C2358 C2359 1.415 . S
C2359 H2329 0.950 . S
C2359 C2354 1.363 . S
C2359 C2358 1.415 . S
H2360 C2357 0.999 . S
H2361 C2342 0.913 . S
H2362 C2380 0.951 . S
H2363 C2382 0.951 . S
H2364 C2384 0.950 . S
H2365 C2385 0.950 . S
H2366 C2387 0.950 . S
H2367 C2390 0.950 . S
H2368 C2391 0.950 . S
H2369 C2393 0.950 . S
H2370 C2394 0.950 . S
H2371 C2395 0.951 . S
H2372 C2397 0.951 . S
H2373 C2399 0.950 . S
H2374 C2400 0.950 . S
H2375 C2402 0.950 . S
H2376 C2405 0.950 . S
H2377 C2406 0.950 . S
H2378 C2408 0.950 . S
H2379 C2409 0.950 . S
C2380 H2362 0.951 . S
C2380 C2381 1.366 . S
C2380 C2382 1.388 . S
C2381 C2380 1.366 . S
C2381 C2385 1.385 . S
C2382 H2363 0.951 . S
C2382 C2380 1.388 . S
C2382 C2383 1.366 . S
C2383 C2382 1.366 . S
C2383 C2384 1.414 . S
C2383 C2386 1.499 . S
C2384 H2364 0.950 . S
C2384 C2383 1.414 . S
C2384 C2385 1.374 . S
C2385 H2365 0.950 . S
C2385 C2381 1.385 . S
C2385 C2384 1.374 . S
C2386 C2383 1.499 . S
C2386 C2387 1.373 . S
C2386 C2388 1.389 . S
C2387 H2366 0.950 . S
C2387 C2386 1.373 . S
C2387 C2403 1.377 . S
C2388 C2386 1.389 . S
C2388 C2389 1.524 . S
C2388 C2402 1.377 . S
C2389 C2388 1.524 . S
C2389 C2390 1.397 . S
C2389 C2394 1.363 . S
C2390 H2367 0.950 . S
C2390 C2389 1.397 . S
C2390 C2391 1.334 . S
C2391 H2368 0.950 . S
C2391 C2390 1.334 . S
C2391 C2392 1.287 . S
C2392 C2391 1.287 . S
C2392 C2393 1.524 . S
C2392 H2411 0.913 . S
C2393 H2369 0.950 . S
C2393 C2392 1.524 . S
C2393 C2394 1.415 . S
C2394 H2370 0.950 . S
C2394 C2389 1.363 . S
C2394 C2393 1.415 . S
C2395 H2371 0.951 . S
C2395 C2396 1.366 . S
C2395 C2397 1.388 . S
C2396 C2395 1.366 . S
C2396 C2400 1.385 . S
C2397 H2372 0.951 . S
C2397 C2395 1.388 . S
C2397 C2398 1.366 . S
C2398 C2397 1.366 . S
C2398 C2399 1.414 . S
C2398 C2401 1.499 . S
C2399 H2373 0.950 . S
C2399 C2398 1.414 . S
C2399 C2400 1.374 . S
C2400 H2374 0.950 . S
C2400 C2396 1.385 . S
C2400 C2399 1.374 . S
C2401 C2398 1.499 . S
C2401 C2402 1.373 . S
C2401 C2403 1.389 . S
C2402 H2375 0.950 . S
C2402 C2388 1.377 . S
C2402 C2401 1.373 . S
C2403 C2387 1.377 . S
C2403 C2401 1.389 . S
C2403 C2404 1.524 . S
C2404 C2403 1.524 . S
C2404 C2405 1.397 . S
C2404 C2409 1.363 . S
C2405 H2376 0.950 . S
C2405 C2404 1.397 . S
C2405 C2406 1.334 . S
C2406 H2377 0.950 . S
C2406 C2405 1.334 . S
C2406 C2407 1.287 . S
C2407 C2406 1.287 . S
C2407 C2408 1.524 . S
C2407 H2410 0.999 . S
C2408 H2378 0.950 . S
C2408 C2407 1.524 . S
C2408 C2409 1.415 . S
C2409 H2379 0.950 . S
C2409 C2404 1.363 . S
C2409 C2408 1.415 . S
H2410 C2407 0.999 . S
H2411 C2392 0.913 . S
H2412 C2430 0.951 . S
H2413 C2432 0.951 . S
H2414 C2434 0.950 . S
H2415 C2435 0.926 1_545 S
H2416 C2437 0.950 . S
H2417 C2440 0.950 . S
H2418 C2441 0.950 1_554 S
H2419 C2443 0.950 . S
H2420 C2444 0.950 . S
H2421 C2445 0.951 . S
H2422 C2447 0.951 . S
H2423 C2449 0.950 . S
H2424 C2450 0.950 . S
H2425 C2452 0.898 1_565 S
H2426 C2455 0.950 . S
H2427 C2456 0.950 . S
H2428 C2458 0.950 . S
H2429 C2459 0.950 . S
C2430 H2412 0.951 . S
C2430 C2431 1.366 1_556 S
C2430 C2432 1.388 . S
C2431 C2430 1.366 1_554 S
C2431 C2435 1.412 . S
C2432 H2413 0.951 . S
C2432 C2430 1.388 . S
C2432 C2433 1.364 . S
C2433 C2432 1.364 . S
C2433 C2434 1.416 1_566 S
C2433 C2436 1.499 1_565 S
C2434 H2414 0.950 . S
C2434 C2433 1.416 1_544 S
C2434 C2435 1.376 1_545 S
C2435 H2415 0.926 1_565 S
C2435 C2431 1.412 . S
C2435 C2434 1.376 1_565 S
C2436 C2433 1.499 1_545 S
C2436 C2437 1.373 . S
C2436 C2438 1.389 1_545 S
C2437 H2416 0.950 . S
C2437 C2436 1.373 . S
C2437 C2453 1.377 . S
C2438 C2436 1.389 1_565 S
C2438 C2439 1.524 . S
C2438 C2452 1.377 1_565 S
C2439 C2438 1.524 . S
C2439 C2440 1.397 . S
C2439 C2444 1.363 . S
C2440 H2417 0.950 . S
C2440 C2439 1.397 . S
C2440 C2441 1.334 . S
C2441 H2418 0.950 1_556 S
C2441 C2440 1.334 . S
C2441 C2442 1.287 . S
C2442 C2441 1.287 . S
C2442 C2443 1.524 . S
C2442 H2461 0.913 . S
C2443 H2419 0.950 . S
C2443 C2442 1.524 . S
C2443 C2444 1.415 . S
C2444 H2420 0.950 . S
C2444 C2439 1.363 . S
C2444 C2443 1.415 . S
C2445 H2421 0.951 . S
C2445 C2446 1.366 . S
C2445 C2447 1.388 . S
C2446 C2445 1.366 . S
C2446 C2450 1.385 . S
C2447 H2422 0.951 . S
C2447 C2445 1.388 . S
C2447 C2448 1.366 . S
C2448 C2447 1.366 . S
C2448 C2449 1.414 . S
C2448 C2451 1.499 . S
C2449 H2423 0.950 . S
C2449 C2448 1.414 . S
C2449 C2450 1.374 . S
C2450 H2424 0.950 . S
C2450 C2446 1.385 . S
C2450 C2449 1.374 . S
C2451 C2448 1.499 . S
C2451 C2452 1.373 . S
C2451 C2453 1.389 . S
C2452 H2425 0.898 1_545 S
C2452 C2438 1.377 1_545 S
C2452 C2451 1.373 . S
C2453 C2437 1.377 . S
C2453 C2451 1.389 . S
C2453 C2454 1.524 . S
C2454 C2453 1.524 . S
C2454 C2455 1.397 . S
C2454 C2459 1.363 . S
C2455 H2426 0.950 . S
C2455 C2454 1.397 . S
C2455 C2456 1.334 . S
C2456 H2427 0.950 . S
C2456 C2455 1.334 . S
C2456 C2457 1.287 . S
C2457 C2456 1.287 . S
C2457 C2458 1.524 . S
C2457 H2460 0.999 . S
C2458 H2428 0.950 . S
C2458 C2457 1.524 . S
C2458 C2459 1.415 . S
C2459 H2429 0.950 . S
C2459 C2454 1.363 . S
C2459 C2458 1.415 . S
H2460 C2457 0.999 . S
H2461 C2442 0.913 . S
H2462 C2480 0.951 . S
H2463 C2482 0.951 . S
H2464 C2484 0.950 . S
H2465 C2485 0.950 . S
H2466 C2487 0.950 . S
H2467 C2490 0.950 . S
H2468 C2491 0.950 . S
H2469 C2493 0.950 . S
H2470 C2494 0.950 . S
H2471 C2495 0.951 . S
H2472 C2497 0.951 . S
H2473 C2499 0.950 . S
H2474 C2500 0.950 . S
H2475 C2502 0.950 . S
H2476 C2505 0.950 . S
H2477 C2506 0.950 . S
H2478 C2508 0.950 1_554 S
H2479 C2509 0.950 . S
C2480 H2462 0.951 . S
C2480 C2481 1.366 . S
C2480 C2482 1.388 . S
C2481 C2480 1.366 . S
C2481 C2485 1.385 . S
C2482 H2463 0.951 . S
C2482 C2480 1.388 . S
C2482 C2483 1.366 . S
C2483 C2482 1.366 . S
C2483 C2484 1.414 . S
C2483 C2486 1.499 . S
C2484 H2464 0.950 . S
C2484 C2483 1.414 . S
C2484 C2485 1.374 . S
C2485 H2465 0.950 . S
C2485 C2481 1.385 . S
C2485 C2484 1.374 . S
C2486 C2483 1.499 . S
C2486 C2487 1.373 . S
C2486 C2488 1.389 . S
C2487 H2466 0.950 . S
C2487 C2486 1.373 . S
C2487 C2503 1.377 . S
C2488 C2486 1.389 . S
C2488 C2489 1.524 . S
C2488 C2502 1.377 . S
C2489 C2488 1.524 . S
C2489 C2490 1.397 . S
C2489 C2494 1.363 . S
C2490 H2467 0.950 . S
C2490 C2489 1.397 . S
C2490 C2491 1.334 . S
C2491 H2468 0.950 . S
C2491 C2490 1.334 . S
C2491 C2492 1.287 . S
C2492 C2491 1.287 . S
C2492 C2493 1.524 . S
C2492 H2511 0.913 . S
C2493 H2469 0.950 . S
C2493 C2492 1.524 . S
C2493 C2494 1.415 . S
C2494 H2470 0.950 . S
C2494 C2489 1.363 . S
C2494 C2493 1.415 . S
C2495 H2471 0.951 . S
C2495 C2496 1.366 . S
C2495 C2497 1.388 . S
C2496 C2495 1.366 . S
C2496 C2500 1.385 1_554 S
C2497 H2472 0.951 . S
C2497 C2495 1.388 . S
C2497 C2498 1.366 1_554 S
C2498 C2497 1.366 1_556 S
C2498 C2499 1.414 . S
C2498 C2501 1.499 . S
C2499 H2473 0.950 . S
C2499 C2498 1.414 . S
C2499 C2500 1.374 . S
C2500 H2474 0.950 . S
C2500 C2496 1.385 1_556 S
C2500 C2499 1.374 . S
C2501 C2498 1.499 . S
C2501 C2502 1.373 . S
C2501 C2503 1.389 . S
C2502 H2475 0.950 . S
C2502 C2488 1.377 . S
C2502 C2501 1.373 . S
C2503 C2487 1.377 . S
C2503 C2501 1.389 . S
C2503 C2504 1.524 . S
C2504 C2503 1.524 . S
C2504 C2505 1.397 . S
C2504 C2509 1.363 . S
C2505 H2476 0.950 . S
C2505 C2504 1.397 . S
C2505 C2506 1.334 . S
C2506 H2477 0.950 . S
C2506 C2505 1.334 . S
C2506 C2507 1.287 . S
C2507 C2506 1.287 . S
C2507 C2508 1.524 . S
C2507 H2510 0.999 . S
C2508 H2478 0.950 1_556 S
C2508 C2507 1.524 . S
C2508 C2509 1.415 . S
C2509 H2479 0.950 . S
C2509 C2504 1.363 . S
C2509 C2508 1.415 . S
H2510 C2507 0.999 . S
H2511 C2492 0.913 . S
H2512 C2530 0.951 . S
H2513 C2532 0.951 . S
H2514 C2534 0.950 . S
H2515 C2535 0.950 . S
H2516 C2537 0.950 . S
H2517 C2540 0.950 . S
H2518 C2541 0.950 . S
H2519 C2543 0.950 . S
H2520 C2544 0.950 . S
H2521 C2545 0.951 . S
H2522 C2547 0.951 . S
H2523 C2549 0.950 . S
H2524 C2550 0.950 . S
H2525 C2552 0.950 . S
H2526 C2555 0.950 . S
H2527 C2556 0.950 . S
H2528 C2558 0.950 . S
H2529 C2559 0.949 1_556 S
C2530 H2512 0.951 . S
C2530 C2531 1.366 . S
C2530 C2532 1.388 . S
C2531 C2530 1.366 . S
C2531 C2535 1.385 . S
C2532 H2513 0.951 . S
C2532 C2530 1.388 . S
C2532 C2533 1.366 . S
C2533 C2532 1.366 . S
C2533 C2534 1.414 . S
C2533 C2536 1.499 . S
C2534 H2514 0.950 . S
C2534 C2533 1.414 . S
C2534 C2535 1.374 . S
C2535 H2515 0.950 . S
C2535 C2531 1.385 . S
C2535 C2534 1.374 . S
C2536 C2533 1.499 . S
C2536 C2537 1.373 . S
C2536 C2538 1.389 . S
C2537 H2516 0.950 . S
C2537 C2536 1.373 . S
C2537 C2553 1.377 . S
C2538 C2536 1.389 . S
C2538 C2539 1.524 . S
C2538 C2552 1.377 . S
C2539 C2538 1.524 . S
C2539 C2540 1.397 . S
C2539 C2544 1.363 . S
C2540 H2517 0.950 . S
C2540 C2539 1.397 . S
C2540 C2541 1.334 . S
C2541 H2518 0.950 . S
C2541 C2540 1.334 . S
C2541 C2542 1.287 . S
C2542 C2541 1.287 . S
C2542 C2543 1.524 . S
C2542 H2561 0.913 . S
C2543 H2519 0.950 . S
C2543 C2542 1.524 . S
C2543 C2544 1.415 . S
C2544 H2520 0.950 . S
C2544 C2539 1.363 . S
C2544 C2543 1.415 . S
C2545 H2521 0.951 . S
C2545 C2546 1.366 . S
C2545 C2547 1.388 1_554 S
C2546 C2545 1.366 . S
C2546 C2550 1.385 . S
C2547 H2522 0.951 . S
C2547 C2545 1.388 1_556 S
C2547 C2548 1.366 . S
C2548 C2547 1.366 . S
C2548 C2549 1.414 . S
C2548 C2551 1.499 . S
C2549 H2523 0.950 . S
C2549 C2548 1.414 . S
C2549 C2550 1.374 1_556 S
C2550 H2524 0.950 . S
C2550 C2546 1.385 . S
C2550 C2549 1.374 1_554 S
C2551 C2548 1.499 . S
C2551 C2552 1.373 . S
C2551 C2553 1.389 . S
C2552 H2525 0.950 . S
C2552 C2538 1.377 . S
C2552 C2551 1.373 . S
C2553 C2537 1.377 . S
C2553 C2551 1.389 . S
C2553 C2554 1.524 . S
C2554 C2553 1.524 . S
C2554 C2555 1.397 1_556 S
C2554 C2559 1.363 1_556 S
C2555 H2526 0.950 . S
C2555 C2554 1.397 1_554 S
C2555 C2556 1.334 . S
C2556 H2527 0.950 . S
C2556 C2555 1.334 . S
C2556 C2557 1.287 . S
C2557 C2556 1.287 . S
C2557 C2558 1.524 . S
C2557 H2560 0.999 . S
C2558 H2528 0.950 . S
C2558 C2557 1.524 . S
C2558 C2559 1.416 . S
C2559 H2529 0.949 1_554 S
C2559 C2554 1.363 1_554 S
C2559 C2558 1.416 . S
H2560 C2557 0.999 . S
H2561 C2542 0.913 . S
H2562 C2580 0.951 . S
H2563 C2582 0.951 . S
H2564 C2584 0.950 . S
H2565 C2585 0.950 . S
H2566 C2587 0.950 . S
H2567 C2590 0.950 . S
H2568 C2591 0.950 . S
H2569 C2593 0.950 . S
H2570 C2594 0.950 . S
H2571 C2595 0.951 . S
H2572 C2597 0.951 . S
H2573 C2599 0.950 . S
H2574 C2600 0.950 . S
H2575 C2602 0.950 . S
H2576 C2605 0.950 . S
H2577 C2606 0.950 . S
H2578 C2608 0.950 . S
H2579 C2609 0.950 . S
C2580 H2562 0.951 . S
C2580 C2581 1.366 . S
C2580 C2582 1.388 . S
C2581 C2580 1.366 . S
C2581 C2585 1.385 . S
C2582 H2563 0.951 . S
C2582 C2580 1.388 . S
C2582 C2583 1.366 . S
C2583 C2582 1.366 . S
C2583 C2584 1.414 . S
C2583 C2586 1.499 . S
C2584 H2564 0.950 . S
C2584 C2583 1.414 . S
C2584 C2585 1.374 . S
C2585 H2565 0.950 . S
C2585 C2581 1.385 . S
C2585 C2584 1.374 . S
C2586 C2583 1.499 . S
C2586 C2587 1.373 . S
C2586 C2588 1.389 . S
C2587 H2566 0.950 . S
C2587 C2586 1.373 . S
C2587 C2603 1.377 . S
C2588 C2586 1.389 . S
C2588 C2589 1.524 . S
C2588 C2602 1.377 . S
C2589 C2588 1.524 . S
C2589 C2590 1.397 . S
C2589 C2594 1.363 . S
C2590 H2567 0.950 . S
C2590 C2589 1.397 . S
C2590 C2591 1.334 . S
C2591 H2568 0.950 . S
C2591 C2590 1.334 . S
C2591 C2592 1.287 . S
C2592 C2591 1.287 . S
C2592 C2593 1.524 . S
C2592 H2611 0.913 . S
C2593 H2569 0.950 . S
C2593 C2592 1.524 . S
C2593 C2594 1.415 . S
C2594 H2570 0.950 . S
C2594 C2589 1.363 . S
C2594 C2593 1.415 . S
C2595 H2571 0.951 . S
C2595 C2596 1.366 . S
C2595 C2597 1.388 . S
C2596 C2595 1.366 . S
C2596 C2600 1.385 . S
C2597 H2572 0.951 . S
C2597 C2595 1.388 . S
C2597 C2598 1.366 . S
C2598 C2597 1.366 . S
C2598 C2599 1.414 . S
C2598 C2601 1.499 . S
C2599 H2573 0.950 . S
C2599 C2598 1.414 . S
C2599 C2600 1.374 . S
C2600 H2574 0.950 . S
C2600 C2596 1.385 . S
C2600 C2599 1.374 . S
C2601 C2598 1.499 . S
C2601 C2602 1.373 . S
C2601 C2603 1.389 . S
C2602 H2575 0.950 . S
C2602 C2588 1.377 . S
C2602 C2601 1.373 . S
C2603 C2587 1.377 . S
C2603 C2601 1.389 . S
C2603 C2604 1.524 . S
C2604 C2603 1.524 . S
C2604 C2605 1.397 . S
C2604 C2609 1.363 . S
C2605 H2576 0.950 . S
C2605 C2604 1.397 . S
C2605 C2606 1.334 . S
C2606 H2577 0.950 . S
C2606 C2605 1.334 . S
C2606 C2607 1.287 . S
C2607 C2606 1.287 . S
C2607 C2608 1.524 . S
C2607 H2610 0.999 . S
C2608 H2578 0.950 . S
C2608 C2607 1.524 . S
C2608 C2609 1.415 . S
C2609 H2579 0.950 . S
C2609 C2604 1.363 . S
C2609 C2608 1.415 . S
H2610 C2607 0.999 . S
H2611 C2592 0.913 . S
H2612 C2630 0.951 . S
H2613 C2632 0.951 . S
H2614 C2634 0.950 . S
H2615 C2635 0.950 . S
H2616 C2637 0.950 . S
H2617 C2640 0.950 . S
H2618 C2641 0.950 . S
H2619 C2643 0.950 . S
H2620 C2644 0.950 . S
H2621 C2645 0.982 . S
H2622 C2647 0.951 . S
H2623 C2649 0.950 . S
H2624 C2650 0.950 . S
H2625 C2652 0.950 . S
H2626 C2655 0.950 . S
H2627 C2656 0.950 . S
H2628 C2658 0.950 . S
H2629 C2659 0.950 . S
C2630 H2612 0.951 . S
C2630 C2631 1.366 . S
C2630 C2632 1.388 . S
C2631 C2630 1.366 . S
C2631 C2635 1.385 . S
C2632 H2613 0.951 . S
C2632 C2630 1.388 . S
C2632 C2633 1.366 . S
C2633 C2632 1.366 . S
C2633 C2634 1.414 . S
C2633 C2636 1.499 . S
C2634 H2614 0.950 . S
C2634 C2633 1.414 . S
C2634 C2635 1.374 . S
C2635 H2615 0.950 . S
C2635 C2631 1.385 . S
C2635 C2634 1.374 . S
C2636 C2633 1.499 . S
C2636 C2637 1.373 . S
C2636 C2638 1.389 . S
C2637 H2616 0.950 . S
C2637 C2636 1.373 . S
C2637 C2653 1.377 . S
C2638 C2636 1.389 . S
C2638 C2639 1.524 . S
C2638 C2652 1.377 . S
C2639 C2638 1.524 . S
C2639 C2640 1.397 . S
C2639 C2644 1.363 . S
C2640 H2617 0.950 . S
C2640 C2639 1.397 . S
C2640 C2641 1.334 . S
C2641 H2618 0.950 . S
C2641 C2640 1.334 . S
C2641 C2642 1.287 . S
C2642 C2641 1.287 . S
C2642 C2643 1.524 . S
C2642 H2661 0.913 . S
C2643 H2619 0.950 . S
C2643 C2642 1.524 . S
C2643 C2644 1.415 . S
C2644 H2620 0.950 . S
C2644 C2639 1.363 . S
C2644 C2643 1.415 . S
C2645 H2621 0.982 . S
C2645 C2646 1.366 . S
C2645 C2647 1.388 . S
C2646 C2645 1.366 . S
C2646 C2650 1.385 . S
C2647 H2622 0.951 . S
C2647 C2645 1.388 . S
C2647 C2648 1.366 . S
C2648 C2647 1.366 . S
C2648 C2649 1.414 . S
C2648 C2651 1.499 . S
C2649 H2623 0.950 . S
C2649 C2648 1.414 . S
C2649 C2650 1.374 . S
C2650 H2624 0.950 . S
C2650 C2646 1.385 . S
C2650 C2649 1.374 . S
C2651 C2648 1.499 . S
C2651 C2652 1.373 . S
C2651 C2653 1.389 . S
C2652 H2625 0.950 . S
C2652 C2638 1.377 . S
C2652 C2651 1.373 . S
C2653 C2637 1.377 . S
C2653 C2651 1.389 . S
C2653 C2654 1.524 . S
C2654 C2653 1.524 . S
C2654 C2655 1.397 . S
C2654 C2659 1.363 . S
C2655 H2626 0.950 . S
C2655 C2654 1.397 . S
C2655 C2656 1.334 . S
C2656 H2627 0.950 . S
C2656 C2655 1.334 . S
C2656 C2657 1.287 . S
C2657 C2656 1.287 . S
C2657 C2658 1.524 . S
C2657 H2660 0.999 . S
C2658 H2628 0.950 . S
C2658 C2657 1.524 . S
C2658 C2659 1.415 . S
C2659 H2629 0.950 . S
C2659 C2654 1.363 . S
C2659 C2658 1.415 . S
H2660 C2657 0.999 . S
H2661 C2642 0.913 . S
H2662 C2680 0.951 . S
H2663 C2682 0.951 . S
H2664 C2684 0.950 . S
H2665 C2685 0.950 . S
H2666 C2687 0.950 . S
H2667 C2690 0.950 . S
H2668 C2691 0.950 . S
H2669 C2693 0.950 . S
H2670 C2694 0.950 . S
H2671 C2695 0.951 . S
H2672 C2697 0.951 . S
H2673 C2699 0.950 . S
H2674 C2700 0.950 . S
H2675 C2702 0.950 . S
H2676 C2705 0.950 . S
H2677 C2706 0.950 . S
H2678 C2708 0.950 . S
H2679 C2709 0.950 . S
C2680 H2662 0.951 . S
C2680 C2681 1.366 . S
C2680 C2682 1.388 . S
C2681 C2680 1.366 . S
C2681 C2685 1.385 . S
C2682 H2663 0.951 . S
C2682 C2680 1.388 . S
C2682 C2683 1.366 . S
C2683 C2682 1.366 . S
C2683 C2684 1.414 . S
C2683 C2686 1.499 . S
C2684 H2664 0.950 . S
C2684 C2683 1.414 . S
C2684 C2685 1.374 . S
C2685 H2665 0.950 . S
C2685 C2681 1.385 . S
C2685 C2684 1.374 . S
C2686 C2683 1.499 . S
C2686 C2687 1.373 . S
C2686 C2688 1.389 . S
C2687 H2666 0.950 . S
C2687 C2686 1.373 . S
C2687 C2703 1.377 . S
C2688 C2686 1.389 . S
C2688 C2689 1.524 . S
C2688 C2702 1.377 . S
C2689 C2688 1.524 . S
C2689 C2690 1.397 . S
C2689 C2694 1.363 . S
C2690 H2667 0.950 . S
C2690 C2689 1.397 . S
C2690 C2691 1.334 . S
C2691 H2668 0.950 . S
C2691 C2690 1.334 . S
C2691 C2692 1.287 . S
C2692 C2691 1.287 . S
C2692 C2693 1.524 . S
C2692 H2711 0.913 . S
C2693 H2669 0.950 . S
C2693 C2692 1.524 . S
C2693 C2694 1.415 . S
C2694 H2670 0.950 . S
C2694 C2689 1.363 . S
C2694 C2693 1.415 . S
C2695 H2671 0.951 . S
C2695 C2696 1.366 . S
C2695 C2697 1.388 . S
C2696 C2695 1.366 . S
C2696 C2700 1.385 . S
C2697 H2672 0.951 . S
C2697 C2695 1.388 . S
C2697 C2698 1.366 . S
C2698 C2697 1.366 . S
C2698 C2699 1.414 . S
C2698 C2701 1.499 . S
C2699 H2673 0.950 . S
C2699 C2698 1.414 . S
C2699 C2700 1.374 . S
C2700 H2674 0.950 . S
C2700 C2696 1.385 . S
C2700 C2699 1.374 . S
C2701 C2698 1.499 . S
C2701 C2702 1.373 . S
C2701 C2703 1.389 . S
C2702 H2675 0.950 . S
C2702 C2688 1.377 . S
C2702 C2701 1.373 . S
C2703 C2687 1.377 . S
C2703 C2701 1.389 . S
C2703 C2704 1.524 . S
C2704 C2703 1.524 . S
C2704 C2705 1.397 . S
C2704 C2709 1.363 . S
C2705 H2676 0.950 . S
C2705 C2704 1.397 . S
C2705 C2706 1.334 . S
C2706 H2677 0.950 . S
C2706 C2705 1.334 . S
C2706 C2707 1.287 . S
C2707 C2706 1.287 . S
C2707 C2708 1.524 . S
C2707 H2710 0.999 . S
C2708 H2678 0.950 . S
C2708 C2707 1.524 . S
C2708 C2709 1.415 . S
C2709 H2679 0.950 . S
C2709 C2704 1.363 . S
C2709 C2708 1.415 . S
H2710 C2707 0.999 . S
H2711 C2692 0.913 . S
H2712 C2730 0.951 . S
H2713 C2732 0.951 . S
H2714 C2734 0.950 . S
H2715 C2735 0.950 . S
H2716 C2737 0.950 . S
H2717 C2740 0.950 . S
H2718 C2741 0.950 . S
H2719 C2743 0.950 . S
H2720 C2744 0.950 . S
H2721 C2745 0.951 . S
H2722 C2747 0.951 . S
H2723 C2749 0.950 . S
H2724 C2750 0.950 . S
H2725 C2752 0.950 . S
H2726 C2755 0.950 . S
H2727 C2756 0.950 . S
H2728 C2758 0.950 . S
H2729 C2759 0.950 . S
C2730 H2712 0.951 . S
C2730 C2731 1.366 . S
C2730 C2732 1.388 . S
C2731 C2730 1.366 . S
C2731 C2735 1.385 . S
C2732 H2713 0.951 . S
C2732 C2730 1.388 . S
C2732 C2733 1.366 . S
C2733 C2732 1.366 . S
C2733 C2734 1.414 . S
C2733 C2736 1.499 . S
C2734 H2714 0.950 . S
C2734 C2733 1.414 . S
C2734 C2735 1.374 . S
C2735 H2715 0.950 . S
C2735 C2731 1.385 . S
C2735 C2734 1.374 . S
C2736 C2733 1.499 . S
C2736 C2737 1.373 . S
C2736 C2738 1.389 . S
C2737 H2716 0.950 . S
C2737 C2736 1.373 . S
C2737 C2753 1.377 . S
C2738 C2736 1.389 . S
C2738 C2739 1.524 . S
C2738 C2752 1.377 . S
C2739 C2738 1.524 . S
C2739 C2740 1.397 . S
C2739 C2744 1.363 . S
C2740 H2717 0.950 . S
C2740 C2739 1.397 . S
C2740 C2741 1.334 . S
C2741 H2718 0.950 . S
C2741 C2740 1.334 . S
C2741 C2742 1.287 . S
C2742 C2741 1.287 . S
C2742 C2743 1.524 . S
C2742 H2761 0.913 . S
C2743 H2719 0.950 . S
C2743 C2742 1.524 . S
C2743 C2744 1.415 . S
C2744 H2720 0.950 . S
C2744 C2739 1.363 . S
C2744 C2743 1.415 . S
C2745 H2721 0.951 . S
C2745 C2746 1.366 . S
C2745 C2747 1.388 . S
C2746 C2745 1.366 . S
C2746 C2750 1.385 . S
C2747 H2722 0.951 . S
C2747 C2745 1.388 . S
C2747 C2748 1.366 . S
C2748 C2747 1.366 . S
C2748 C2749 1.414 . S
C2748 C2751 1.499 . S
C2749 H2723 0.950 . S
C2749 C2748 1.414 . S
C2749 C2750 1.374 . S
C2750 H2724 0.950 . S
C2750 C2746 1.385 . S
C2750 C2749 1.374 . S
C2751 C2748 1.499 . S
C2751 C2752 1.373 . S
C2751 C2753 1.389 . S
C2752 H2725 0.950 . S
C2752 C2738 1.377 . S
C2752 C2751 1.373 . S
C2753 C2737 1.377 . S
C2753 C2751 1.389 . S
C2753 C2754 1.524 . S
C2754 C2753 1.524 . S
C2754 C2755 1.397 . S
C2754 C2759 1.363 . S
C2755 H2726 0.950 . S
C2755 C2754 1.397 . S
C2755 C2756 1.334 . S
C2756 H2727 0.950 . S
C2756 C2755 1.334 . S
C2756 C2757 1.287 . S
C2757 C2756 1.287 . S
C2757 C2758 1.524 . S
C2757 H2760 0.999 . S
C2758 H2728 0.950 . S
C2758 C2757 1.524 . S
C2758 C2759 1.415 . S
C2759 H2729 0.950 . S
C2759 C2754 1.363 . S
C2759 C2758 1.415 . S
H2760 C2757 0.999 . S
H2761 C2742 0.913 . S
H2762 C2780 0.951 . S
H2763 C2782 0.951 . S
H2764 C2784 0.950 . S
H2765 C2785 0.950 . S
H2766 C2787 0.950 . S
H2767 C2790 0.950 . S
H2768 C2791 0.950 . S
H2769 C2793 0.950 . S
H2770 C2794 0.950 . S
H2771 C2795 0.951 . S
H2772 C2797 0.951 . S
H2773 C2799 0.950 . S
H2774 C2800 0.950 . S
H2775 C2802 0.950 . S
H2776 C2805 0.950 . S
H2777 C2806 0.950 . S
H2778 C2808 0.950 . S
H2779 C2809 0.950 . S
C2780 H2762 0.951 . S
C2780 C2781 1.366 . S
C2780 C2782 1.388 . S
C2781 C2780 1.366 . S
C2781 C2785 1.385 . S
C2782 H2763 0.951 . S
C2782 C2780 1.388 . S
C2782 C2783 1.366 . S
C2783 C2782 1.366 . S
C2783 C2784 1.414 . S
C2783 C2786 1.499 . S
C2784 H2764 0.950 . S
C2784 C2783 1.414 . S
C2784 C2785 1.374 . S
C2785 H2765 0.950 . S
C2785 C2781 1.385 . S
C2785 C2784 1.374 . S
C2786 C2783 1.499 . S
C2786 C2787 1.373 . S
C2786 C2788 1.389 . S
C2787 H2766 0.950 . S
C2787 C2786 1.373 . S
C2787 C2803 1.377 . S
C2788 C2786 1.389 . S
C2788 C2789 1.524 . S
C2788 C2802 1.377 . S
C2789 C2788 1.524 . S
C2789 C2790 1.397 . S
C2789 C2794 1.363 . S
C2790 H2767 0.950 . S
C2790 C2789 1.397 . S
C2790 C2791 1.334 . S
C2791 H2768 0.950 . S
C2791 C2790 1.334 . S
C2791 C2792 1.287 . S
C2792 C2791 1.287 . S
C2792 C2793 1.524 . S
C2792 H2811 0.913 . S
C2793 H2769 0.950 . S
C2793 C2792 1.524 . S
C2793 C2794 1.415 . S
C2794 H2770 0.950 . S
C2794 C2789 1.363 . S
C2794 C2793 1.415 . S
C2795 H2771 0.951 . S
C2795 C2796 1.366 . S
C2795 C2797 1.388 . S
C2796 C2795 1.366 . S
C2796 C2800 1.385 . S
C2797 H2772 0.951 . S
C2797 C2795 1.388 . S
C2797 C2798 1.366 . S
C2798 C2797 1.366 . S
C2798 C2799 1.414 . S
C2798 C2801 1.499 . S
C2799 H2773 0.950 . S
C2799 C2798 1.414 . S
C2799 C2800 1.374 . S
C2800 H2774 0.950 . S
C2800 C2796 1.385 . S
C2800 C2799 1.374 . S
C2801 C2798 1.499 . S
C2801 C2802 1.373 . S
C2801 C2803 1.389 . S
C2802 H2775 0.950 . S
C2802 C2788 1.377 . S
C2802 C2801 1.373 . S
C2803 C2787 1.377 . S
C2803 C2801 1.389 . S
C2803 C2804 1.524 . S
C2804 C2803 1.524 . S
C2804 C2805 1.397 . S
C2804 C2809 1.363 . S
C2805 H2776 0.950 . S
C2805 C2804 1.397 . S
C2805 C2806 1.334 . S
C2806 H2777 0.950 . S
C2806 C2805 1.334 . S
C2806 C2807 1.287 . S
C2807 C2806 1.287 . S
C2807 C2808 1.524 . S
C2807 H2810 0.999 . S
C2808 H2778 0.950 . S
C2808 C2807 1.524 . S
C2808 C2809 1.415 . S
C2809 H2779 0.950 . S
C2809 C2804 1.363 . S
C2809 C2808 1.415 . S
H2810 C2807 0.999 . S
H2811 C2792 0.913 . S
H2812 C2830 0.953 . S
H2813 C2832 0.951 . S
H2814 C2834 0.950 . S
H2815 C2835 0.950 . S
H2816 C2837 0.950 . S
H2817 C2840 0.950 . S
H2818 C2841 0.950 . S
H2819 C2843 0.950 . S
H2820 C2844 0.950 . S
H2821 C2845 0.951 . S
H2822 C2847 0.951 . S
H2823 C2849 0.950 . S
H2824 C2850 0.950 . S
H2825 C2852 0.950 . S
H2826 C2855 0.950 . S
H2827 C2856 0.950 . S
H2828 C2858 0.950 . S
H2829 C2859 0.950 . S
C2830 H2812 0.953 . S
C2830 C2831 1.366 . S
C2830 C2832 1.388 . S
C2831 C2830 1.366 . S
C2831 C2835 1.385 . S
C2832 H2813 0.951 . S
C2832 C2830 1.388 . S
C2832 C2833 1.366 . S
C2833 C2832 1.366 . S
C2833 C2834 1.414 . S
C2833 C2836 1.499 . S
C2834 H2814 0.950 . S
C2834 C2833 1.414 . S
C2834 C2835 1.374 . S
C2835 H2815 0.950 . S
C2835 C2831 1.385 . S
C2835 C2834 1.374 . S
C2836 C2833 1.499 . S
C2836 C2837 1.373 . S
C2836 C2838 1.389 . S
C2837 H2816 0.950 . S
C2837 C2836 1.373 . S
C2837 C2853 1.377 . S
C2838 C2836 1.389 . S
C2838 C2839 1.524 . S
C2838 C2852 1.377 . S
C2839 C2838 1.524 . S
C2839 C2840 1.397 . S
C2839 C2844 1.363 . S
C2840 H2817 0.950 . S
C2840 C2839 1.397 . S
C2840 C2841 1.334 . S
C2841 H2818 0.950 . S
C2841 C2840 1.334 . S
C2841 C2842 1.287 . S
C2842 C2841 1.287 . S
C2842 C2843 1.524 . S
C2842 H2861 0.913 . S
C2843 H2819 0.950 . S
C2843 C2842 1.524 . S
C2843 C2844 1.415 . S
C2844 H2820 0.950 . S
C2844 C2839 1.363 . S
C2844 C2843 1.415 . S
C2845 H2821 0.951 . S
C2845 C2846 1.366 . S
C2845 C2847 1.388 . S
C2846 C2845 1.366 . S
C2846 C2850 1.385 . S
C2847 H2822 0.951 . S
C2847 C2845 1.388 . S
C2847 C2848 1.366 . S
C2848 C2847 1.366 . S
C2848 C2849 1.414 . S
C2848 C2851 1.499 . S
C2849 H2823 0.950 . S
C2849 C2848 1.414 . S
C2849 C2850 1.374 . S
C2850 H2824 0.950 . S
C2850 C2846 1.385 . S
C2850 C2849 1.374 . S
C2851 C2848 1.499 . S
C2851 C2852 1.373 . S
C2851 C2853 1.389 . S
C2852 H2825 0.950 . S
C2852 C2838 1.377 . S
C2852 C2851 1.373 . S
C2853 C2837 1.377 . S
C2853 C2851 1.389 . S
C2853 C2854 1.524 . S
C2854 C2853 1.524 . S
C2854 C2855 1.397 . S
C2854 C2859 1.363 . S
C2855 H2826 0.950 . S
C2855 C2854 1.397 . S
C2855 C2856 1.334 . S
C2856 H2827 0.950 . S
C2856 C2855 1.334 . S
C2856 C2857 1.287 . S
C2857 C2856 1.287 . S
C2857 C2858 1.524 . S
C2857 H2860 0.999 . S
C2858 H2828 0.950 . S
C2858 C2857 1.524 . S
C2858 C2859 1.415 . S
C2859 H2829 0.950 . S
C2859 C2854 1.363 . S
C2859 C2858 1.415 . S
H2860 C2857 0.999 . S
H2861 C2842 0.913 . S
C1081 C180 1.243 . S
C1096 C3 1.243 . S
C1131 C241 1.247 . S
C1146 C64 1.248 . S
C1181 C121 1.243 . S
C1196 C298 1.243 . S
C1231 C123 1.246 . S
C1246 C300 1.246 . S
C1281 C5 1.245 . S
C1296 C182 1.245 . S
C1331 C239 1.241 . S
C1346 C62 1.241 . S
C1381 C534 1.239 . S
C1396 C359 1.244 . S
C1431 C418 1.246 . S
C1446 C593 1.240 . S
C1481 C477 1.246 . S
C1496 C652 1.240 . S
C1531 C654 1.249 . S
C1546 C475 1.244 . S
C1581 C536 1.249 . S
C1596 C357 1.243 . S
C1631 C595 1.249 . S
C1646 C416 1.243 . S
C1681 C711 1.243 . S
C1696 C888 1.243 . S
C1731 C772 1.249 . S
C1746 C949 1.249 . S
C1781 C829 1.244 . S
C1796 C1006 1.244 . S
C1831 C1008 1.246 . S
C1846 C831 1.246 . S
C1881 C890 1.247 . S
C1896 C713 1.246 . S
C1931 C947 1.242 . S
C1946 C770 1.242 . S
C1981 C33 1.493 . S
C1996 C446 1.493 . S
C2031 C111 1.497 . S
C2046 C505 1.496 . S
C2081 C387 1.493 . S
C2096 C151 1.492 . S
C2131 C170 1.499 . S
C2146 C819 1.499 . S
C2181 C859 1.494 . S
C2196 C52 1.496 . S
C2231 C741 1.491 . S
C2246 C92 1.491 . S
C2281 C977 1.491 . S
C2296 C210 1.492 . S
C2331 C288 1.499 . S
C2346 C1055 1.499 . S
C2381 C937 1.495 . S
C2396 C328 1.494 . S
C2431 C623 1.494 . S
C2446 C347 1.495 . S
C2481 C229 1.495 . S
C2496 C682 1.494 . S
C2531 C269 1.491 . S
C2546 C564 1.491 . S
C2581 C406 1.494 1_545 S
C2596 C800 1.493 . S
C2631 C465 1.497 . S
C2646 C878 1.497 1_455 S
C2681 C524 1.498 . S
C2696 C760 1.498 . S
C2731 C996 1.499 1_455 S
C2746 C701 1.499 . S
C2781 C1036 1.495 . S
C2796 C583 1.496 . S
C2831 C642 1.496 1_545 S
C2846 C918 1.495 . S
