# Generated by pormake.
# Topology zft, (5)-cn, num edge types: 1
# Building blocks:
#     Node 0, Type 0, BuildingBlock: XOMCOT_clean_sbu_0, # of connection points: 5
#     Node 1, Type 0, BuildingBlock: XOMCOT_clean_sbu_0, # of connection points: 5
#     Node 2, Type 0, BuildingBlock: XOMCOT_clean_sbu_0, # of connection points: 5
#     Node 3, Type 0, BuildingBlock: XOMCOT_clean_sbu_0, # of connection points: 5
#     Node 4, Type 0, BuildingBlock: XOMCOT_clean_sbu_0, # of connection points: 5
#     Node 5, Type 0, BuildingBlock: XOMCOT_clean_sbu_0, # of connection points: 5
#     Node 6, Type 0, BuildingBlock: XOMCOT_clean_sbu_0, # of connection points: 5
#     Node 7, Type 0, BuildingBlock: XOMCOT_clean_sbu_0, # of connection points: 5
#     Edge 8, Type (0, 0), BuildingBlock: ZUJKAS_clean_linker_0, # of connection points: 2
#     Edge 9, Type (0, 0), BuildingBlock: ZUJKAS_clean_linker_0, # of connection points: 2
#     Edge 10, Type (0, 0), BuildingBlock: ZUJKAS_clean_linker_0, # of connection points: 2
#     Edge 11, Type (0, 0), BuildingBlock: ZUJKAS_clean_linker_0, # of connection points: 2
#     Edge 12, Type (0, 0), BuildingBlock: ZUJKAS_clean_linker_0, # of connection points: 2
#     Edge 13, Type (0, 0), BuildingBlock: ZUJKAS_clean_linker_0, # of connection points: 2
#     Edge 14, Type (0, 0), BuildingBlock: ZUJKAS_clean_linker_0, # of connection points: 2
#     Edge 15, Type (0, 0), BuildingBlock: ZUJKAS_clean_linker_0, # of connection points: 2
#     Edge 16, Type (0, 0), BuildingBlock: ZUJKAS_clean_linker_0, # of connection points: 2
#     Edge 17, Type (0, 0), BuildingBlock: ZUJKAS_clean_linker_0, # of connection points: 2
#     Edge 18, Type (0, 0), BuildingBlock: ZUJKAS_clean_linker_0, # of connection points: 2
#     Edge 19, Type (0, 0), BuildingBlock: ZUJKAS_clean_linker_0, # of connection points: 2
#     Edge 20, Type (0, 0), BuildingBlock: ZUJKAS_clean_linker_0, # of connection points: 2
#     Edge 21, Type (0, 0), BuildingBlock: ZUJKAS_clean_linker_0, # of connection points: 2
#     Edge 22, Type (0, 0), BuildingBlock: ZUJKAS_clean_linker_0, # of connection points: 2
#     Edge 23, Type (0, 0), BuildingBlock: ZUJKAS_clean_linker_0, # of connection points: 2
#     Edge 24, Type (0, 0), BuildingBlock: ZUJKAS_clean_linker_0, # of connection points: 2
#     Edge 25, Type (0, 0), BuildingBlock: ZUJKAS_clean_linker_0, # of connection points: 2
#     Edge 26, Type (0, 0), BuildingBlock: ZUJKAS_clean_linker_0, # of connection points: 2
#     Edge 27, Type (0, 0), BuildingBlock: ZUJKAS_clean_linker_0, # of connection points: 2
# Relax obj value: 0.077
# Max RMSD: 0.162
# Mean RMSD: 0.162
data_MOF--net-zft--node1-XOMCOT_clean_sbu_0--edge1-ZUJKAS_clean_linker_0
_symmetry_space_group_name_H-M    P1
_symmetry_Int_Tables_number       1
_symmetry_cell_setting            triclinic
loop_
_symmetry_equiv_pos_as_xyz
'x, y, z'
_cell_length_a     35.695165
_cell_length_b     35.742276
_cell_length_c     65.313528
_cell_angle_alpha  89.893243
_cell_angle_beta   89.962751
_cell_angle_gamma 89.898311
loop_
_atom_site_label
_atom_site_type_symbol
_atom_site_fract_x
_atom_site_fract_y
_atom_site_fract_z
_atom_type_partial_charge
Co0 Co 0.13766 0.26648 0.16446 0.0
C1 C 0.18844 0.32332 0.14732 0.0
C2 C 0.2165 0.27062 0.15123 0.0
C3 C 0.24216 0.29668 0.14449 0.0
N4 N 0.18288 0.28741 0.15297 0.0
N5 N 0.22453 0.3299 0.14215 0.0
H6 H 0.16682 0.34453 0.14797 0.0
H7 H 0.22232 0.24183 0.15522 0.0
C8 C 0.13487 0.18697 0.14925 0.0
O9 O 0.09863 0.19055 0.14625 0.0
N10 N 0.0922 0.24576 0.17647 0.0
C11 C 0.05695 0.25928 0.175 0.0
C12 C 0.03296 0.23561 0.18506 0.0
C13 C 0.08916 0.21476 0.18833 0.0
N14 N 0.05312 0.20758 0.19331 0.0
C15 C 0.08912 0.30798 0.13796 0.0
C16 C 0.09602 0.2637 0.10361 0.0
C17 C 0.06864 0.29192 0.10387 0.0
C18 C 0.06671 0.31528 0.121 0.0
C19 C 0.11813 0.25748 0.12104 0.0
N20 N 0.11205 0.27738 0.13861 0.0
H21 H 0.08664 0.32637 0.15094 0.0
H22 H 0.13977 0.23649 0.12026 0.0
H23 H 0.04856 0.28473 0.1675 0.0
H24 H 0.1126 0.19713 0.19258 0.0
O25 O 0.12824 0.3131 0.17835 0.0
O26 O 0.16092 0.26602 0.19131 0.0
O27 O 0.15416 0.21485 0.15546 0.0
C28 C 0.14792 0.29986 0.19342 0.0
H29 H 0.27165 0.29156 0.14188 0.0
H30 H 1.00289 0.23892 0.18639 0.0
H31 H 0.09967 0.24595 0.09033 0.0
H32 H 0.04755 0.33881 0.12146 0.0
Co33 Co 0.25368 0.63124 0.4151 0.0
C34 C 0.1961 0.68221 0.39726 0.0
C35 C 0.24622 0.71126 0.40546 0.0
C36 C 0.21966 0.73722 0.39973 0.0
N37 N 0.23177 0.67657 0.40354 0.0
N38 N 0.18809 0.71886 0.39462 0.0
H39 H 0.17513 0.66067 0.3965 0.0
H40 H 0.27349 0.71747 0.41179 0.0
C41 C 0.31496 0.66344 0.38939 0.0
O42 O 0.28992 0.66893 0.37494 0.0
N43 N 0.27488 0.58659 0.4271 0.0
C44 C 0.25768 0.55314 0.42806 0.0
C45 C 0.28223 0.52737 0.43607 0.0
C46 C 0.30961 0.58093 0.43472 0.0
N47 N 0.31487 0.54477 0.4402 0.0
C48 C 0.21005 0.59295 0.38482 0.0
C49 C 0.26946 0.56217 0.36353 0.0
C50 C 0.23289 0.55257 0.3579 0.0
C51 C 0.20299 0.56836 0.36874 0.0
C52 C 0.2753 0.5866 0.37992 0.0
N53 N 0.24577 0.6028 0.38996 0.0
H54 H 0.18663 0.60201 0.3939 0.0
H55 H 0.30365 0.59074 0.38512 0.0
H56 H 0.22944 0.54773 0.42289 0.0
H57 H 0.33083 0.60243 0.4357 0.0
O58 O 0.20674 0.62082 0.4286 0.0
O59 O 0.25248 0.6551 0.44168 0.0
O60 O 0.30538 0.64789 0.40625 0.0
C61 C 0.21886 0.64141 0.44357 0.0
H62 H 0.22289 0.76731 0.40012 0.0
H63 H 0.27647 0.49802 0.43869 0.0
H64 H 0.29336 0.54945 0.35603 0.0
H65 H 0.1743 0.56104 0.36515 0.0
Co66 Co 0.89364 0.75961 0.66651 0.0
C67 C 0.84852 0.70241 0.64602 0.0
C68 C 0.81639 0.75234 0.65117 0.0
C69 C 0.79299 0.72508 0.64351 0.0
N70 N 0.85112 0.73797 0.65272 0.0
N71 N 0.81318 0.69354 0.64044 0.0
H72 H 0.87188 0.6831 0.64606 0.0
H73 H 0.80821 0.77991 0.65632 0.0
C74 C 0.89584 0.83742 0.64871 0.0
O75 O 0.93161 0.83255 0.64469 0.0
N76 N 0.9364 0.78082 0.68113 0.0
C77 C 0.96651 0.76179 0.68817 0.0
C78 C 0.98965 0.78578 0.69849 0.0
C79 C 0.94085 0.81594 0.68855 0.0
N80 N 0.9737 0.81991 0.6986 0.0
C81 C 0.95279 0.72691 0.64281 0.0
C82 C 0.93352 0.75792 0.60552 0.0
C83 C 0.96523 0.73478 0.6067 0.0
C84 C 0.97439 0.71885 0.62563 0.0
C85 C 0.91239 0.765 0.62319 0.0
N86 N 0.92336 0.75124 0.64181 0.0
H87 H 0.95917 0.71232 0.65675 0.0
H88 H 0.88697 0.78125 0.62181 0.0
H89 H 0.97093 0.73204 0.687 0.0
H90 H 0.92051 0.83815 0.68687 0.0
O91 O 0.90233 0.71216 0.67976 0.0
O92 O 0.86633 0.75733 0.69216 0.0
O93 O 0.877 0.81122 0.65724 0.0
C94 C 0.87999 0.72367 0.69415 0.0
H95 H 0.763 0.72771 0.64157 0.0
H96 H 0.01572 0.77838 0.70595 0.0
H97 H 0.92465 0.7697 0.59102 0.0
H98 H 0.99816 0.70018 0.62721 0.0
Co99 Co 0.77195 0.39124 0.91529 0.0
C100 C 0.83128 0.34058 0.89998 0.0
C101 C 0.77688 0.32077 0.89132 0.0
C102 C 0.80351 0.29653 0.88364 0.0
N103 N 0.79434 0.34845 0.90159 0.0
N104 N 0.83759 0.30899 0.88925 0.0
H105 H 0.85334 0.35779 0.90625 0.0
H106 H 0.74695 0.31812 0.88941 0.0
C107 C 0.69213 0.39268 0.90021 0.0
O108 O 0.69503 0.42896 0.89727 0.0
N109 N 0.75004 0.43415 0.92937 0.0
C110 C 0.76564 0.46823 0.93182 0.0
C111 C 0.74136 0.49077 0.94242 0.0
C112 C 0.71706 0.43607 0.93963 0.0
N113 N 0.71067 0.47072 0.94717 0.0
C114 C 0.80813 0.44603 0.89008 0.0
C115 C 0.76744 0.43426 0.85477 0.0
C116 C 0.79409 0.46304 0.85507 0.0
C117 C 0.81509 0.46818 0.87293 0.0
C118 C 0.76154 0.41252 0.87235 0.0
N119 N 0.77991 0.42028 0.89023 0.0
H120 H 0.82606 0.44953 0.90317 0.0
H121 H 0.74257 0.38917 0.87133 0.0
H122 H 0.79309 0.47652 0.9268 0.0
H123 H 0.69766 0.41299 0.94106 0.0
O124 O 0.81894 0.40138 0.92871 0.0
O125 O 0.77451 0.36471 0.94119 0.0
O126 O 0.7203 0.3739 0.90667 0.0
C127 C 0.80771 0.37928 0.94326 0.0
H128 H 0.79821 0.27137 0.87491 0.0
H129 H 0.74607 0.51972 0.94651 0.0
H130 H 0.75183 0.42811 0.84097 0.0
H131 H 0.83662 0.48942 0.8738 0.0
Co132 Co 0.63752 0.25829 0.58465 0.0
C133 C 0.69567 0.20239 0.59631 0.0
C134 C 0.69968 0.25229 0.61432 0.0
C135 C 0.72496 0.22641 0.62177 0.0
N136 N 0.6813 0.23729 0.59828 0.0
N137 N 0.72232 0.19503 0.61043 0.0
H138 H 0.68538 0.18175 0.58565 0.0
H139 H 0.69391 0.27941 0.6209 0.0
C140 C 0.63984 0.34284 0.59197 0.0
O141 O 0.60465 0.34646 0.58657 0.0
N142 N 0.59316 0.27753 0.57099 0.0
C143 C 0.55765 0.26695 0.57492 0.0
C144 C 0.53403 0.28503 0.56158 0.0
C145 C 0.59076 0.30064 0.55459 0.0
N146 N 0.55476 0.3065 0.54893 0.0
C147 C 0.60359 0.21417 0.61586 0.0
C148 C 0.57023 0.2715 0.63756 0.0
C149 C 0.56298 0.23448 0.64338 0.0
C150 C 0.58063 0.2056 0.63254 0.0
C151 C 0.59348 0.27885 0.62085 0.0
N152 N 0.60916 0.25037 0.60984 0.0
H153 H 0.61629 0.1915 0.60742 0.0
H154 H 0.59766 0.30745 0.61672 0.0
H155 H 0.54925 0.24739 0.58669 0.0
H156 H 0.61473 0.3138 0.54744 0.0
O157 O 0.62754 0.21105 0.57141 0.0
O158 O 0.66333 0.25603 0.55863 0.0
O159 O 0.65512 0.31038 0.59311 0.0
C160 C 0.64884 0.22285 0.55657 0.0
H161 H 0.74312 0.23011 0.63487 0.0
H162 H 0.50375 0.2834 0.56166 0.0
H163 H 0.55779 0.29472 0.64577 0.0
H164 H 0.5758 0.17655 0.63645 0.0
Co165 Co 0.2728 0.13543 0.83537 0.0
C166 C 0.32991 0.18372 0.85436 0.0
C167 C 0.27683 0.21176 0.85213 0.0
C168 C 0.3029 0.23656 0.85965 0.0
N169 N 0.29384 0.17868 0.84882 0.0
N170 N 0.33637 0.219 0.86091 0.0
H171 H 0.35132 0.16251 0.85261 0.0
H172 H 0.24788 0.21796 0.84863 0.0
C173 C 0.19357 0.13259 0.85101 0.0
O174 O 0.19781 0.09664 0.85459 0.0
N175 N 0.25179 0.09234 0.82121 0.0
C176 C 0.26915 0.05981 0.81665 0.0
C177 C 0.24625 0.03876 0.80436 0.0
C178 C 0.21895 0.09097 0.81086 0.0
N179 N 0.21466 0.05831 0.80076 0.0
C180 C 0.30771 0.07943 0.86037 0.0
C181 C 0.26928 0.09422 0.89615 0.0
C182 C 0.29432 0.06394 0.89566 0.0
C183 C 0.31427 0.0573 0.87757 0.0
C184 C 0.26377 0.11591 0.87851 0.0
N185 N 0.28089 0.10669 0.86046 0.0
H186 H 0.32495 0.07491 0.84711 0.0
H187 H 0.24586 0.1402 0.87948 0.0
H188 H 0.2973 0.05218 0.8208 0.0
H189 H 0.1992 0.11393 0.81007 0.0
O190 O 0.32035 0.12626 0.82227 0.0
O191 O 0.27511 0.1617 0.80942 0.0
O192 O 0.22081 0.15187 0.8439 0.0
C193 C 0.30866 0.14773 0.80752 0.0
H194 H 0.29763 0.26554 0.86348 0.0
H195 H 0.25265 1.01131 0.79831 0.0
H196 H 0.25454 0.10144 0.91009 0.0
H197 H 0.33463 0.03487 0.87656 0.0
Co198 Co 0.38895 0.76658 0.08463 0.0
C199 C 0.34116 0.82285 0.1048 0.0
C200 C 0.31311 0.76999 0.10236 0.0
C201 C 0.28836 0.79587 0.11022 0.0
N202 N 0.34616 0.78698 0.09896 0.0
N203 N 0.30593 0.82922 0.11159 0.0
H204 H 0.36226 0.84429 0.10297 0.0
H205 H 0.30681 0.74126 0.09857 0.0
C206 C 0.3929 0.68762 0.10075 0.0
O207 O 0.42895 0.69214 0.10401 0.0
N208 N 0.43167 0.74633 0.06951 0.0
C209 C 0.46188 0.76548 0.06278 0.0
C210 C 0.48365 0.74249 0.05089 0.0
C211 C 0.4349 0.71221 0.06063 0.0
N212 N 0.46678 0.70893 0.04959 0.0
C213 C 0.44738 0.79972 0.10854 0.0
C214 C 0.43063 0.76515 0.14526 0.0
C215 C 0.46136 0.78951 0.14434 0.0
C216 C 0.46924 0.80722 0.1257 0.0
C217 C 0.40922 0.75865 0.12764 0.0
N218 N 0.41898 0.77426 0.10925 0.0
H219 H 0.45274 0.81555 0.09488 0.0
H220 H 0.3845 0.74144 0.12892 0.0
H221 H 0.46718 0.7948 0.06517 0.0
H222 H 0.41375 0.69065 0.06146 0.0
O223 O 0.39679 0.81457 0.07182 0.0
O224 O 0.36116 0.7695 0.05917 0.0
O225 O 0.37338 0.71446 0.09334 0.0
C226 C 0.37443 0.80331 0.05742 0.0
H227 H 0.25935 0.79065 0.11407 0.0
H228 H 0.50975 0.7501 0.04355 0.0
H229 H 0.42267 0.75196 0.15956 0.0
H230 H 0.49221 0.82683 0.12431 0.0
Co231 Co 0.75326 0.8892 0.33488 0.0
C232 C 0.69395 0.83779 0.34987 0.0
C233 C 0.74734 0.81068 0.34979 0.0
C234 C 0.72049 0.78481 0.35524 0.0
N235 N 0.73095 0.84446 0.34711 0.0
N236 N 0.68691 0.80199 0.35513 0.0
H237 H 0.6721 0.85794 0.34685 0.0
H238 H 0.77639 0.80432 0.3467 0.0
C239 C 0.81632 0.86157 0.36104 0.0
O240 O 0.79266 0.86039 0.37645 0.0
N241 N 0.77458 0.93312 0.32215 0.0
C242 C 0.75823 0.96712 0.32175 0.0
C243 C 0.78293 0.99232 0.31341 0.0
C244 C 0.80883 0.93784 0.31371 0.0
N245 N 0.81464 0.97394 0.3084 0.0
C246 C 0.71158 0.92302 0.36782 0.0
C247 C 0.77053 0.963 0.38421 0.0
C248 C 0.7347 0.96752 0.39271 0.0
C249 C 0.70513 0.94677 0.38437 0.0
C250 C 0.77582 0.93858 0.36775 0.0
N251 N 0.74667 0.91829 0.35995 0.0
H252 H 0.68783 0.90996 0.36082 0.0
H253 H 0.80324 0.93706 0.36079 0.0
H254 H 0.73067 0.97332 0.32775 0.0
H255 H 0.82946 0.91579 0.31217 0.0
O256 O 0.70608 0.90038 0.32182 0.0
O257 O 0.75075 0.86465 0.30856 0.0
O258 O 0.80514 0.8723 0.34337 0.0
C259 C 0.71734 0.8791 0.30689 0.0
H260 H 0.72499 0.7552 0.35775 0.0
H261 H 0.77812 0.022 0.31129 0.0
H262 H 0.79407 0.97923 0.38966 0.0
H263 H 0.67691 0.94929 0.3903 0.0
H264 H 0.1335 0.37397 0.19807 0.0
H265 H 0.14993 0.41398 0.22684 0.0
H266 H 0.19762 0.31913 0.25846 0.0
H267 H 0.18216 0.27889 0.22927 0.0
H268 H 0.12773 0.41199 0.26577 0.0
H269 H 0.28205 0.39402 0.26207 0.0
H270 H 0.25128 0.37831 0.24195 0.0
H271 H 0.25679 0.35093 0.26489 0.0
C272 C 0.14749 0.36154 0.21113 0.0
C273 C 0.15664 0.32328 0.21139 0.0
C274 C 0.15689 0.38449 0.22757 0.0
C275 C 0.17553 0.36972 0.24469 0.0
C276 C 0.18407 0.33133 0.24521 0.0
H277 H 0.18645 0.49226 0.35983 0.0
H278 H 0.17346 0.44656 0.33297 0.0
C279 C 0.17495 0.30832 0.22861 0.0
C280 C 0.18515 0.39473 0.26201 0.0
H281 H 0.25817 0.42846 0.29022 0.0
C282 C 0.15626 0.41557 0.27113 0.0
C283 C 0.22246 0.3998 0.26877 0.0
C284 C 0.25501 0.37988 0.25881 0.0
C285 C 0.16358 0.44139 0.28676 0.0
C286 C 0.20074 0.44568 0.29394 0.0
C287 C 0.22967 0.42487 0.28483 0.0
C288 C 0.21016 0.4722 0.3106 0.0
C289 C 0.13155 0.46461 0.29495 0.0
C290 C 0.23634 0.50088 0.30726 0.0
C291 C 0.2442 0.52676 0.32272 0.0
C292 C 0.22583 0.52448 0.34171 0.0
C293 C 0.20038 0.49517 0.34517 0.0
C294 C 0.19288 0.4691 0.32983 0.0
H295 H 0.10782 0.46585 0.28396 0.0
H296 H 0.12104 0.45178 0.30932 0.0
H297 H 0.14066 0.49363 0.29834 0.0
H298 H 0.25016 0.50367 0.29257 0.0
H299 H 0.26397 0.54905 0.31967 0.0
H300 H 0.99301 0.66709 0.59465 0.0
H301 H 0.03649 0.65433 0.56662 0.0
H302 H 0.03404 0.77082 0.54935 0.0
H303 H 0.99029 0.78385 0.57748 0.0
H304 H 0.03039 0.7222 0.51597 0.0
H305 H 0.14722 0.68362 0.56778 0.0
H306 H 0.10528 0.65733 0.57248 0.0
H307 H 0.10546 0.70705 0.5767 0.0
C308 C 1.00177 0.69004 0.58492 0.0
C309 C 0.98864 0.72659 0.58844 0.0
C310 C 0.02667 0.68271 0.56893 0.0
C311 C 0.03921 0.71179 0.55624 0.0
C312 C 0.02495 0.74805 0.55912 0.0
H313 H 0.23293 0.69017 0.47492 0.0
H314 H 0.18964 0.70954 0.50209 0.0
C315 C 0.99985 0.75541 0.5751 0.0
C316 C 0.06739 0.70417 0.54008 0.0
H317 H 0.15518 0.66864 0.53246 0.0
C318 C 0.05777 0.71075 0.51956 0.0
C319 C 0.10336 0.68986 0.54483 0.0
C320 C 0.11616 0.68439 0.56665 0.0
C321 C 0.08272 0.70214 0.5036 0.0
C322 C 0.11791 0.68594 0.50831 0.0
C323 C 0.12801 0.68061 0.52887 0.0
C324 C 0.14438 0.67372 0.49213 0.0
C325 C 0.07124 0.7107 0.48185 0.0
C326 C 0.13362 0.64648 0.47788 0.0
C327 C 0.15822 0.63539 0.46239 0.0
C328 C 0.19422 0.65109 0.46098 0.0
C329 C 0.20539 0.67755 0.47563 0.0
C330 C 0.18068 0.68871 0.49112 0.0
H331 H 0.04906 0.73253 0.48126 0.0
H332 H 0.09553 0.72027 0.4726 0.0
H333 H 0.05986 0.68497 0.47472 0.0
H334 H 0.10611 0.63382 0.47869 0.0
H335 H 0.14883 0.6148 0.45139 0.0
H336 H 0.74152 0.49491 0.82991 0.0
H337 H 0.75216 0.53977 0.80205 0.0
H338 H 0.87136 0.53201 0.81188 0.0
H339 H 0.86106 0.4871 0.83954 0.0
H340 H 0.84368 0.60598 0.81048 0.0
H341 H 0.79504 0.52162 0.74418 0.0
H342 H 0.76276 0.52527 0.76523 0.0
H343 H 0.80635 0.50091 0.76865 0.0
C344 C 0.77002 0.50226 0.82588 0.0
C345 C 0.80043 0.48758 0.837 0.0
C346 C 0.77604 0.52793 0.80999 0.0
C347 C 0.81256 0.53911 0.80488 0.0
C348 C 0.84295 0.52388 0.81566 0.0
H349 H 0.90404 0.65244 0.70072 0.0
H350 H 0.88545 0.60969 0.72805 0.0
C351 C 0.83699 0.4983 0.8315 0.0
C352 C 0.81936 0.5677 0.78885 0.0
H353 H 0.81271 0.58411 0.73746 0.0
C354 C 0.83676 0.60132 0.79452 0.0
C355 C 0.81047 0.56138 0.76805 0.0
C356 C 0.79289 0.52526 0.76103 0.0
C357 C 0.84593 0.62868 0.7799 0.0
C358 C 0.83701 0.62239 0.75911 0.0
C359 C 0.81925 0.58893 0.75346 0.0
C360 C 0.84809 0.64903 0.74279 0.0
C361 C 0.86619 0.66352 0.78672 0.0
C362 C 0.83321 0.68541 0.742 0.0
C363 C 0.8439 0.71009 0.72637 0.0
C364 C 0.86954 0.69865 0.71127 0.0
C365 C 0.88434 0.6622 0.71216 0.0
C366 C 0.87365 0.63764 0.72772 0.0
H367 H 0.8776 0.66064 0.80247 0.0
H368 H 0.88958 0.67018 0.77611 0.0
H369 H 0.84639 0.68749 0.78658 0.0
H370 H 0.81303 0.69456 0.75334 0.0
H371 H 0.83182 0.7379 0.726 0.0
H372 H 0.796 0.32817 0.97398 0.0
H373 H 0.8395 0.31111 0.00161 0.0
H374 H 0.9195 0.39123 0.97876 0.0
H375 H 0.87643 0.40849 0.95129 0.0
H376 H 0.91618 0.28393 0.99727 0.0
H377 H 0.90678 0.41754 0.0403 0.0
H378 H 0.8722 0.40368 0.02164 0.0
H379 H 0.91635 0.42255 0.01342 0.0
C380 C 0.82274 0.34234 0.97497 0.0
C381 C 0.8327 0.36983 0.96055 0.0
C382 C 0.84757 0.33246 0.99067 0.0
C383 C 0.88251 0.35018 0.99229 0.0
C384 C 0.89245 0.37761 0.97793 0.0
H385 H 0.08157 0.28902 0.0623 0.0
H386 H 0.03619 0.30063 0.03475 0.0
C387 C 0.8678 0.38737 0.96223 0.0
C388 C 0.90897 0.33985 0.00881 0.0
H389 H 0.95448 0.37513 0.05043 0.0
C390 C 0.92449 0.30374 0.00897 0.0
C391 C 0.91952 0.36577 0.02407 0.0
C392 C 0.90267 0.40448 0.02505 0.0
C393 C 0.95082 0.29302 0.02387 0.0
C394 C 0.96204 0.31926 0.03883 0.0
C395 C 0.94607 0.35518 0.03881 0.0
C396 C 0.98927 0.30983 0.05516 0.0
C397 C 0.96602 0.25363 0.0237 0.0
C398 C 0.97794 0.31128 0.07568 0.0
C399 C 1.00366 0.30475 0.09135 0.0
C400 C 0.04143 0.2969 0.08686 0.0
C401 C 0.05264 0.29472 0.06625 0.0
C402 C 0.02676 0.3013 0.05051 0.0
H403 H 0.94871 0.23474 0.01409 0.0
H404 H 0.99488 0.25386 0.01738 0.0
H405 H 0.96733 0.24206 0.03948 0.0
H406 H 0.94914 0.31772 0.07959 0.0
H407 H 0.99391 0.30592 0.10704 0.0
H408 H 0.70272 0.23364 0.5274 0.0
H409 H 0.7195 0.19162 0.49929 0.0
H410 H 0.63163 0.11584 0.51759 0.0
H411 H 0.61555 0.1571 0.54608 0.0
H412 H 0.69528 0.079 0.51023 0.0
H413 H 0.66657 0.17583 0.44567 0.0
H414 H 0.69963 0.19407 0.46375 0.0
H415 H 0.652 0.18576 0.47155 0.0
C416 C 0.68678 0.20818 0.52531 0.0
C417 C 0.65771 0.19873 0.53888 0.0
C418 C 0.69628 0.18427 0.50918 0.0
C419 C 0.67644 0.15084 0.50612 0.0
C420 C 0.64727 0.14152 0.51961 0.0
H421 H 0.6737 0.01328 0.39784 0.0
H422 H 0.6612 0.05669 0.42573 0.0
C423 C 0.63804 0.16518 0.53586 0.0
C424 C 0.6867 0.12485 0.4893 0.0
H425 H 0.69686 0.11861 0.43743 0.0
C426 C 0.69556 0.08764 0.4943 0.0
C427 C 0.6867 0.13605 0.4685 0.0
C428 C 0.67536 0.17499 0.46199 0.0
C429 C 0.7043 0.06129 0.47911 0.0
C430 C 0.70526 0.07272 0.45836 0.0
C431 C 0.69649 0.10996 0.45336 0.0
C432 C 0.71348 0.04614 0.44148 0.0
C433 C 0.71123 0.02122 0.48543 0.0
C434 C 0.74725 0.02596 0.4409 0.0
C435 C 0.75421 1.0004 0.42513 0.0
C436 C 0.72772 0.99489 0.40948 0.0
C437 C 0.69436 0.01596 0.40988 0.0
C438 C 0.68731 0.04118 0.42572 0.0
H439 H 0.69945 0.01514 0.50083 0.0
H440 H 0.69876 1.00142 0.47427 0.0
H441 H 0.74185 0.01602 0.48607 0.0
H442 H 0.76827 0.02995 0.45264 0.0
H443 H 0.78014 0.98464 0.42538 0.0
H444 H 0.37727 0.11823 0.79917 0.0
H445 H 0.41909 0.13396 0.77088 0.0
H446 H 0.33783 0.21289 0.74782 0.0
H447 H 0.29532 0.19678 0.77603 0.0
H448 H 0.36935 0.16798 0.71741 0.0
H449 H 0.47991 0.22995 0.7663 0.0
H450 H 0.46731 0.18326 0.7737 0.0
H451 H 0.43333 0.22031 0.77567 0.0
C452 C 0.36822 0.13894 0.78809 0.0
C453 C 0.33309 0.15647 0.78989 0.0
C454 C 0.39228 0.14805 0.772 0.0
C455 C 0.3819 0.17516 0.75751 0.0
C456 C 0.34647 0.1921 0.75896 0.0
H457 H 0.4954 0.26786 0.65085 0.0
H458 H 0.451 0.25388 0.67834 0.0
C459 C 0.32225 0.18288 0.77506 0.0
C460 C 0.40803 0.18542 0.74078 0.0
H461 H 0.49612 0.21853 0.73149 0.0
C462 C 0.39695 0.17931 0.72045 0.0
C463 C 0.44402 0.20022 0.74483 0.0
C464 C 0.45678 0.20918 0.76629 0.0
C465 C 0.42134 0.18669 0.70405 0.0
C466 C 0.4575 0.20094 0.70814 0.0
C467 C 0.46844 0.20738 0.72845 0.0
C468 C 0.48444 0.20946 0.69154 0.0
C469 C 0.4086 0.17833 0.68252 0.0
C470 C 0.51831 0.18965 0.69016 0.0
C471 C 0.54391 0.19774 0.67456 0.0
C472 C 0.5362 0.22608 0.66019 0.0
C473 C 0.50236 0.24613 0.66179 0.0
C474 C 0.47676 0.23792 0.67734 0.0
H475 H 0.38365 0.15979 0.68231 0.0
H476 H 0.40102 0.20492 0.67475 0.0
H477 H 0.4314 0.16488 0.67359 0.0
H478 H 0.52483 0.16776 0.7011 0.0
H479 H 0.56988 0.18209 0.67386 0.0
H480 H 0.39841 0.87456 0.051 0.0
H481 H 0.37951 0.91767 0.0239 0.0
H482 H 0.30699 0.83328 0.99853 0.0
H483 H 0.32614 0.78955 0.02564 0.0
H484 H 0.35098 0.8697 0.96927 0.0
H485 H 0.27903 0.97234 0.01922 0.0
H486 H 0.32595 0.96203 0.02736 0.0
H487 H 0.29108 0.92576 0.02774 0.0
C488 C 0.37841 0.86508 0.03968 0.0
C489 C 0.36365 0.82866 0.0405 0.0
C490 C 0.36743 0.8899 0.02429 0.0
C491 C 0.34127 0.87895 0.00946 0.0
C492 C 0.32696 0.84237 0.00997 0.0
H493 H 0.24095 0.03561 0.92156 0.0
H494 H 0.24996 0.99008 0.94929 0.0
C495 C 0.33795 0.81743 0.02542 0.0
C496 C 0.32994 0.90552 0.99313 0.0
H497 H 0.29361 0.99286 0.98521 0.0
C498 C 0.33809 0.89647 0.97272 0.0
C499 C 0.31264 0.94021 0.99764 0.0
C500 C 0.3013 0.95058 0.01916 0.0
C501 C 0.33077 0.92182 0.95677 0.0
C502 C 0.31543 0.95735 0.96142 0.0
C503 C 0.30584 0.9658 0.98172 0.0
C504 C 0.31005 0.98637 0.94543 0.0
C505 C 0.33959 0.91035 0.93506 0.0
C506 C 0.34098 1.00027 0.93459 0.0
C507 C 0.33597 0.02633 0.91887 0.0
C508 C 0.2999 0.03918 0.91373 0.0
C509 C 0.26909 0.0264 0.92521 0.0
C510 C 0.27416 1.00024 0.94096 0.0
H511 H 0.34114 0.87944 0.9335 0.0
H512 H 0.31818 0.92122 0.92424 0.0
H513 H 0.36719 0.92206 0.93059 0.0
H514 H 0.36903 0.9907 0.93817 0.0
H515 H 0.36037 0.03622 0.91063 0.0
H516 H 0.64622 0.9044 0.30044 0.0
H517 H 0.60284 0.88585 0.2734 0.0
H518 H 0.68704 0.8128 0.24794 0.0
H519 H 0.73093 0.83167 0.27484 0.0
H520 H 0.65113 0.85511 0.21863 0.0
H521 H 0.5474 0.78649 0.26941 0.0
H522 H 0.55756 0.83378 0.27672 0.0
H523 H 0.59385 0.79887 0.27793 0.0
C524 C 0.65561 0.88448 0.28905 0.0
C525 C 0.69201 0.86945 0.28979 0.0
C526 C 0.63063 0.87365 0.27372 0.0
C527 C 0.64143 0.84734 0.25892 0.0
C528 C 0.67804 0.8329 0.25932 0.0
H529 H 0.48853 0.73926 0.17244 0.0
H530 H 0.53233 0.75161 0.20059 0.0
C531 C 0.7031 0.84378 0.27467 0.0
C532 C 0.61478 0.83572 0.24271 0.0
H533 H 0.52789 0.79833 0.23498 0.0
C534 C 0.6243 0.84245 0.22219 0.0
C535 C 0.58002 0.81864 0.24737 0.0
C536 C 0.56919 0.80864 0.26903 0.0
C537 C 0.59952 0.8337 0.20624 0.0
C538 C 0.56398 0.81843 0.21096 0.0
C539 C 0.55493 0.8105 0.23142 0.0
C540 C 0.53569 0.81115 0.19482 0.0
C541 C 0.61175 0.84071 0.18444 0.0
C542 C 0.52214 0.84068 0.18273 0.0
C543 C 0.49719 0.83374 0.16674 0.0
C544 C 0.48503 0.79711 0.16258 0.0
C545 C 0.4973 0.76777 0.1753 0.0
C546 C 0.52243 0.77475 0.19131 0.0
H547 H 0.64274 0.84229 0.18313 0.0
H548 H 0.60147 0.81837 0.17408 0.0
H549 H 0.59999 0.8678 0.17914 0.0
H550 H 0.5312 0.86912 0.18553 0.0
H551 H 0.4876 0.85707 0.15752 0.0
H552 H 0.34174 0.89121 0.12557 0.0
H553 H 0.31386 0.95239 0.13289 0.0
H554 H 0.205 0.90986 0.11657 0.0
H555 H 0.2325 0.84895 0.10906 0.0
H556 H 0.27382 0.99923 0.10615 0.0
H557 H 0.18597 0.95774 0.17246 0.0
H558 H 0.22357 0.9288 0.16287 0.0
H559 H 0.17892 0.9294 0.15013 0.0
C560 C 0.31188 0.89483 0.12353 0.0
C561 C 0.28941 0.86492 0.11682 0.0
C562 C 0.29597 0.9298 0.1278 0.0
C563 C 0.25727 0.93554 0.12558 0.0
C564 C 0.23479 0.90584 0.11887 0.0
H565 H 0.10283 0.12162 0.13624 0.0
H566 H 0.1337 0.06149 0.13017 0.0
C567 C 0.25063 0.87092 0.1146 0.0
C568 C 0.24047 0.97288 0.12954 0.0
H569 H 0.17425 0.01792 0.15819 0.0
C570 C 0.25227 1.00343 0.11764 0.0
C571 C 0.21229 0.97826 0.1445 0.0
C572 C 0.19963 0.94691 0.15837 0.0
C573 C 0.23594 0.039 0.11993 0.0
C574 C 0.20748 0.04427 0.13475 0.0
C575 C 0.19595 0.01379 0.14677 0.0
C576 C 0.18916 0.08113 0.13799 0.0
C577 C 0.24855 0.07036 0.10606 0.0
C578 C 0.21004 0.1121 0.14455 0.0
C579 C 0.19249 0.14656 0.14801 0.0
C580 C 0.15364 0.15068 0.14508 0.0
C581 C 0.1328 0.11953 0.13857 0.0
C582 C 0.15038 0.08509 0.13512 0.0
H583 H 0.26342 0.05968 0.09231 0.0
H584 H 0.22436 0.08762 0.101 0.0
H585 H 0.26813 0.08874 0.11456 0.0
H586 H 0.23986 0.10952 0.14726 0.0
H587 H 0.20939 0.16984 0.15316 0.0
H588 H 0.66966 0.74537 0.381 0.0
H589 H 0.60749 0.71794 0.38686 0.0
H590 H 0.56011 0.79311 0.3421 0.0
H591 H 0.62197 0.82029 0.33606 0.0
H592 H 0.53984 0.76024 0.39925 0.0
H593 H 0.52385 0.68612 0.32505 0.0
H594 H 0.56893 0.70016 0.33497 0.0
H595 H 0.53845 0.73416 0.32341 0.0
C596 C 0.64602 0.75573 0.37229 0.0
C597 C 0.65067 0.78508 0.35816 0.0
C598 C 0.61057 0.7402 0.37571 0.0
C599 C 0.57932 0.75334 0.3648 0.0
C600 C 0.58394 0.78235 0.35054 0.0
H601 H 0.34239 0.70755 0.35868 0.0
H602 H 0.40691 0.72829 0.35358 0.0
C603 C 0.61925 0.7981 0.34725 0.0
C604 C 0.54158 0.73769 0.36876 0.0
H605 H 0.47012 0.68955 0.34628 0.0
C606 C 0.52463 0.7445 0.38777 0.0
C607 C 0.52184 0.71744 0.35367 0.0
C608 C 0.53918 0.70869 0.33315 0.0
C609 C 0.48791 0.73251 0.39192 0.0
C610 C 0.46804 0.71223 0.3768 0.0
C611 C 0.48531 0.70504 0.35787 0.0
C612 C 0.42894 0.69916 0.38006 0.0
C613 C 0.47032 0.74297 0.41214 0.0
C614 C 0.41984 0.67544 0.39649 0.0
C615 C 0.38283 0.66382 0.39958 0.0
C616 C 0.35429 0.6752 0.38607 0.0
C617 C 0.36366 0.69825 0.36937 0.0
C618 C 0.40057 0.71014 0.36642 0.0
H619 H 0.48494 0.76696 0.41939 0.0
H620 H 0.44031 0.75038 0.41023 0.0
H621 H 0.47225 0.7188 0.42277 0.0
H622 H 0.44138 0.66576 0.40691 0.0
H623 H 0.37664 0.64574 0.41246 0.0
H624 H 0.74031 0.14273 0.58206 0.0
H625 H 0.76995 0.0819 0.58811 0.0
H626 H 0.77564 0.10585 0.65273 0.0
H627 H 0.74655 0.16687 0.64671 0.0
H628 H 0.83981 0.07567 0.63952 0.0
H629 H 0.72136 0.9898 0.6116 0.0
H630 H 0.73816 0.02233 0.59278 0.0
H631 H 0.71715 0.03943 0.61602 0.0
C632 C 0.7477 0.13494 0.59757 0.0
C633 C 0.74091 0.15964 0.61391 0.0
C634 C 0.76452 0.10007 0.60102 0.0
C635 C 0.77436 0.08886 0.62094 0.0
C636 C 0.76819 0.11374 0.63723 0.0
H637 H 0.82564 0.86117 0.6598 0.0
H638 H 0.79688 0.92221 0.65324 0.0
C639 C 0.75169 0.14874 0.63376 0.0
C640 C 0.7916 0.05152 0.62484 0.0
H641 H 0.77843 0.95757 0.6183 0.0
C642 C 0.82632 0.04985 0.63492 0.0
C643 C 0.77378 0.01771 0.61915 0.0
C644 C 0.73539 0.01727 0.60948 0.0
C645 C 0.84387 0.01549 0.63925 0.0
C646 C 0.82675 0.98176 0.63284 0.0
C647 C 0.7918 0.98339 0.623 0.0
C648 C 0.84427 0.94449 0.63653 0.0
C649 C 0.88018 0.01572 0.65108 0.0
C650 C 0.88026 0.93633 0.62904 0.0
C651 C 0.89692 0.90155 0.63292 0.0
C652 C 0.87772 0.87392 0.64413 0.0
C653 C 0.84128 0.8818 0.65116 0.0
C654 C 0.82477 0.91671 0.6474 0.0
H655 H 0.88365 0.04203 0.65991 0.0
H656 H 0.88172 0.99173 0.66188 0.0
H657 H 0.90398 0.01358 0.64021 0.0
H658 H 0.89551 0.95686 0.62013 0.0
H659 H 0.92485 0.89633 0.62709 0.0
H660 H 0.39878 0.18313 0.87471 0.0
H661 H 0.45977 0.21107 0.88234 0.0
H662 H 0.41648 0.31993 0.86641 0.0
H663 H 0.35578 0.29239 0.85856 0.0
H664 H 0.50683 0.25213 0.85609 0.0
H665 H 0.46323 0.33767 0.92276 0.0
H666 H 0.43487 0.30014 0.91277 0.0
H667 H 0.43507 0.34509 0.90035 0.0
C668 C 0.40219 0.213 0.8728 0.0
C669 C 0.3721 0.23546 0.86612 0.0
C670 C 0.43706 0.22894 0.87724 0.0
C671 C 0.44252 0.26767 0.87526 0.0
C672 C 0.41268 0.29012 0.86853 0.0
H673 H 0.62608 0.42382 0.88728 0.0
H674 H 0.56649 0.39215 0.88103 0.0
C675 C 0.37787 0.27425 0.86407 0.0
C676 C 0.47968 0.28459 0.87955 0.0
H677 H 0.52349 0.35045 0.90881 0.0
C678 C 0.51059 0.2734 0.86773 0.0
C679 C 0.48449 0.31238 0.89472 0.0
C680 C 0.45276 0.32433 0.90853 0.0
C681 C 0.54595 0.29002 0.87028 0.0
C682 C 0.55064 0.31815 0.88528 0.0
C683 C 0.51982 0.32901 0.89726 0.0
C684 C 0.58719 0.33696 0.88871 0.0
C685 C 0.57772 0.27812 0.85648 0.0
C686 C 0.61858 0.31651 0.89526 0.0
C687 C 0.65274 0.33452 0.89884 0.0
C688 C 0.65614 0.37342 0.89602 0.0
C689 C 0.62456 0.39383 0.88952 0.0
C690 C 0.59042 0.37579 0.88598 0.0
H691 H 0.56743 0.26331 0.84265 0.0
H692 H 0.59456 0.30263 0.85155 0.0
H693 H 0.59642 0.25874 0.86498 0.0
H694 H 0.61656 0.28664 0.89786 0.0
H695 H 0.67638 0.31794 0.90396 0.0
H696 H 0.61644 0.41519 0.5889 0.0
H697 H 0.65049 0.47176 0.5978 0.0
H698 H 0.745 0.40528 0.61719 0.0
H699 H 0.71117 0.34804 0.60791 0.0
H700 H 0.67745 0.49343 0.63513 0.0
H701 H 0.79365 0.48114 0.57878 0.0
H702 H 0.75185 0.45294 0.57727 0.0
H703 H 0.78778 0.44165 0.59552 0.0
C704 C 0.64449 0.41239 0.59503 0.0
C705 C 0.66105 0.37695 0.59768 0.0
C706 C 0.66394 0.44488 0.60011 0.0
C707 C 0.70045 0.44286 0.60794 0.0
C708 C 0.71711 0.40757 0.61079 0.0
H709 H 0.84485 0.62565 0.6487 0.0
H710 H 0.81905 0.56411 0.64095 0.0
C711 C 0.69765 0.37486 0.60561 0.0
C712 C 0.72024 0.47797 0.61346 0.0
H713 H 0.79563 0.53266 0.6014 0.0
C714 C 0.70334 0.50193 0.62778 0.0
C715 C 0.75408 0.48902 0.6039 0.0
C716 C 0.77285 0.46507 0.58788 0.0
C717 C 0.7191 0.53674 0.63265 0.0
C718 C 0.75244 0.54812 0.62277 0.0
C719 C 0.76995 0.52385 0.60886 0.0
C720 C 0.76899 0.58553 0.62645 0.0
C721 C 0.70001 0.5611 0.64837 0.0
C722 C 0.74977 0.61801 0.62044 0.0
C723 C 0.76461 0.65337 0.62464 0.0
C724 C 0.79901 0.657 0.63497 0.0
C725 C 0.81858 0.62422 0.64052 0.0
C726 C 0.80377 0.58887 0.63622 0.0
H727 H 0.67983 0.54498 0.65786 0.0
H728 H 0.72091 0.57439 0.65862 0.0
H729 H 0.68433 0.5837 0.64043 0.0
H730 H 0.72314 0.61599 0.61258 0.0
H731 H 0.74905 0.67782 0.61981 0.0
H732 H 0.13607 0.1072 0.87498 0.0
H733 H 0.07574 0.13755 0.88136 0.0
H734 H 0.10749 0.2289 0.84175 0.0
H735 H 0.16848 0.19951 0.83607 0.0
H736 H 0.07513 0.25542 0.87421 0.0
H737 H 0.98647 0.14051 0.84507 0.0
H738 H 0.01617 0.12515 0.86555 0.0
H739 H 0.03662 0.14082 0.84181 0.0
C740 C 0.13015 0.13372 0.8676 0.0
C741 C 0.15699 0.15087 0.85495 0.0
C742 C 0.09548 0.15092 0.87113 0.0
C743 C 0.08655 0.18514 0.86166 0.0
C744 C 0.11354 0.20243 0.84916 0.0
H745 H 0.8587 0.27334 0.85463 0.0
H746 H 0.91979 0.2447 0.84754 0.0
C747 C 0.14843 0.18558 0.84592 0.0
C748 C 0.04957 0.20348 0.86514 0.0
H749 H 0.95507 0.18862 0.8637 0.0
C750 C 0.04888 0.24085 0.87177 0.0
C751 C 0.01518 0.18482 0.86162 0.0
C752 C 0.01357 0.14577 0.85291 0.0
C753 C 0.01498 0.25986 0.87524 0.0
C754 C 0.98063 0.24056 0.87278 0.0
C755 C 0.98131 0.20336 0.86586 0.0
C756 C 0.9437 0.25844 0.87706 0.0
C757 C 0.01651 0.30073 0.88096 0.0
C758 C 0.93646 0.27537 0.89607 0.0
C759 C 0.90183 0.29232 0.89995 0.0
C760 C 0.87333 0.29179 0.88513 0.0
C761 C 0.88016 0.27402 0.86633 0.0
C762 C 0.91506 0.2577 0.86229 0.0
H763 H 0.0429 0.31395 0.87558 0.0
H764 H 0.99251 0.3165 0.87442 0.0
H765 H 0.01566 0.30335 0.89788 0.0
H766 H 0.95746 0.27521 0.90802 0.0
H767 H 0.89702 0.30519 0.91472 0.0
H768 H 0.31923 0.66839 0.09568 0.0
H769 H 0.28993 0.60784 0.10237 0.0
H770 H 0.39611 0.56341 0.12247 0.0
H771 H 0.42584 0.62379 0.11559 0.0
H772 H 0.3585 0.51657 0.09525 0.0
H773 H 0.2639 0.56215 0.15796 0.0
H774 H 0.25972 0.58915 0.13486 0.0
H775 H 0.30271 0.59024 0.14917 0.0
C776 C 0.33638 0.64585 0.10163 0.0
C777 C 0.37491 0.65108 0.10519 0.0
C778 C 0.3195 0.61127 0.10555 0.0
C779 C 0.34069 0.58125 0.11323 0.0
C780 C 0.37917 0.58626 0.11666 0.0
H781 H 0.29738 0.35034 0.1468 0.0
H782 H 0.32521 0.41093 0.1389 0.0
C783 C 0.39611 0.62084 0.11275 0.0
C784 C 0.32296 0.54431 0.11714 0.0
H785 H 0.25509 0.50064 0.14529 0.0
C786 C 0.33599 0.51305 0.10625 0.0
C787 C 0.29348 0.53978 0.13143 0.0
C788 C 0.27928 0.57201 0.14418 0.0
C789 C 0.32005 0.47748 0.10907 0.0
C790 C 0.29069 0.47292 0.12344 0.0
C791 C 0.27752 0.50421 0.13425 0.0
C792 C 0.27379 0.43577 0.12777 0.0
C793 C 0.3343 0.44523 0.09638 0.0
C794 C 0.23542 0.42968 0.1245 0.0
C795 C 0.21934 0.39491 0.12897 0.0
C796 C 0.24126 0.36552 0.13697 0.0
C797 C 0.2797 0.37188 0.14029 0.0
C798 C 0.29573 0.40663 0.1358 0.0
H799 H 0.34933 0.45507 0.08247 0.0
H800 H 0.35422 0.42841 0.10565 0.0
H801 H 0.31096 0.4267 0.0916 0.0
H802 H 0.21793 0.45183 0.11837 0.0
H803 H 0.18978 0.39102 0.12603 0.0
H804 H 0.85084 0.8429 0.39699 0.0
H805 H 0.91509 0.82106 0.40191 0.0
H806 H 0.93471 0.82888 0.33688 0.0
H807 H 0.8707 0.85166 0.33186 0.0
H808 H 0.94843 0.75897 0.38747 0.0
H809 H 0.0246 0.88385 0.3592 0.0
H810 H 0.97502 0.8845 0.36462 0.0
H811 H 0.99206 0.86531 0.34092 0.0
C812 C 0.86886 0.84026 0.38372 0.0
C813 C 0.85561 0.84914 0.36403 0.0
C814 C 0.90562 0.82773 0.38657 0.0
C815 C 0.92996 0.8238 0.36982 0.0
C816 C 0.91679 0.83252 0.35011 0.0
H817 H 0.13324 0.688 0.37159 0.0
H818 H 0.07069 0.71354 0.36511 0.0
C819 C 0.88007 0.84531 0.34725 0.0
C820 C 0.96859 0.80922 0.37297 0.0
H821 H 0.06114 0.82919 0.36527 0.0
C822 C 0.97307 0.77439 0.38266 0.0
C823 C 1.00078 0.82954 0.36693 0.0
C824 C 0.99801 0.86803 0.35753 0.0
C825 C 1.00875 0.75914 0.3863 0.0
C826 C 0.04089 0.77885 0.37962 0.0
C827 C 0.03647 0.81389 0.37015 0.0
C828 C 0.07936 0.76395 0.38278 0.0
C829 C 1.01166 0.72247 0.39769 0.0
C830 C 0.10553 0.78436 0.39424 0.0
C831 C 0.1414 0.76994 0.39784 0.0
C832 C 0.15185 0.73477 0.39002 0.0
C833 C 0.12585 0.71482 0.37812 0.0
C834 C 0.09006 0.72936 0.37444 0.0
H835 H 0.98575 0.71631 0.4065 0.0
H836 H 0.01591 0.69947 0.38653 0.0
H837 H 0.03577 0.72255 0.40843 0.0
H838 H 0.09793 0.81117 0.40078 0.0
H839 H 0.16053 0.7859 0.40721 0.0
H840 H 0.85716 0.94737 0.27734 0.0
H841 H 0.90726 0.98134 0.25939 0.0
H842 H 0.89703 0.0719 0.30268 0.0
H843 H 0.84622 0.03865 0.31994 0.0
H844 H 0.89172 0.09738 0.26566 0.0
H845 H 0.01594 1.00459 0.26858 0.0
H846 H 0.97554 0.9817 0.25818 0.0
H847 H 0.97516 0.99703 0.28442 0.0
C848 C 0.86636 0.97415 0.28319 0.0
C849 C 0.84778 0.99064 0.29985 0.0
C850 C 0.8951 0.99347 0.27304 0.0
C851 C 0.90623 0.02917 0.27974 0.0
C852 C 0.88897 0.04451 0.29715 0.0
H853 H 0.07961 0.17648 0.22835 0.0
H854 H 0.04687 0.12993 0.24977 0.0
C855 C 0.85992 0.02558 0.307 0.0
C856 C 0.93222 0.05269 0.26738 0.0
H857 H 0.01836 0.05529 0.24438 0.0
C858 C 0.91954 0.08818 0.26122 0.0
C859 C 0.96869 0.04098 0.26166 0.0
C860 C 0.98482 1.00415 0.26873 0.0
C861 C 0.94185 0.11197 0.24932 0.0
C862 C 0.97754 0.0996 0.24273 0.0
C863 C 0.99079 0.0645 0.24922 0.0
C864 C 1.00063 0.12282 0.22871 0.0
C865 C 0.92696 0.15038 0.24404 0.0
C866 C 0.98632 0.13292 0.20948 0.0
C867 C 1.00457 0.15961 0.19753 0.0
C868 C 0.03792 0.17622 0.20434 0.0
C869 C 0.05391 0.16401 0.22283 0.0
C870 C 0.03525 0.13753 0.23502 0.0
H871 H 0.90482 0.15944 0.25493 0.0
H872 H 0.94968 0.17156 0.2441 0.0
H873 H 0.91441 0.14971 0.22851 0.0
H874 H 0.96011 0.1213 0.2041 0.0
H875 H 0.9921 0.16813 0.18314 0.0
H876 H 0.58524 0.37345 0.53833 0.0
H877 H 0.55544 0.42251 0.51747 0.0
H878 H 0.46119 0.35007 0.50662 0.0
H879 H 0.49086 0.30091 0.52705 0.0
H880 H 0.51249 0.40953 0.47122 0.0
H881 H 0.43293 0.45878 0.53947 0.0
H882 H 0.47902 0.43805 0.54152 0.0
H883 H 0.43927 0.40908 0.5362 0.0
C884 C 0.55862 0.36767 0.53107 0.0
C885 C 0.54026 0.33337 0.53445 0.0
C886 C 0.54159 0.39577 0.51928 0.0
C887 C 0.50609 0.38985 0.51068 0.0
C888 C 0.48855 0.35513 0.51323 0.0
H889 H 0.33866 0.47415 0.43347 0.0
H890 H 0.39137 0.44242 0.44975 0.0
C891 C 0.50546 0.32716 0.52497 0.0
C892 C 0.48571 0.42034 0.50013 0.0
H893 H 0.41297 0.48106 0.50714 0.0
C894 C 0.49118 0.42573 0.47908 0.0
C895 C 0.45824 0.44156 0.51052 0.0
C896 C 0.45191 0.43693 0.53321 0.0
C897 C 0.46842 0.45059 0.46792 0.0
C898 C 0.43922 0.47 0.47807 0.0
C899 C 0.4353 0.46615 0.49936 0.0
C900 C 0.40988 0.49092 0.46671 0.0
C901 C 0.47527 0.45524 0.44527 0.0
C902 C 0.4025 0.52877 0.47093 0.0
C903 C 0.3721 0.54702 0.46165 0.0
C904 C 0.34821 0.52746 0.44834 0.0
C905 C 0.35626 0.48984 0.44385 0.0
C906 C 0.3867 0.47179 0.45294 0.0
H907 H 0.50482 0.44878 0.44124 0.0
H908 H 0.45705 0.43555 0.43675 0.0
H909 H 0.46862 0.48414 0.44015 0.0
H910 H 0.41983 0.54395 0.48168 0.0
H911 H 0.3664 0.57593 0.46549 0.0
H912 H 0.04696 0.83715 0.70069 0.0
H913 H 0.07516 0.8915 0.71702 0.0
H914 H 0.96543 0.93359 0.73236 0.0
H915 H 0.93676 0.87853 0.71603 0.0
H916 H 0.05997 0.97256 0.70858 0.0
H917 H 0.02707 0.92518 0.78802 0.0
H918 H 0.02762 0.89267 0.76689 0.0
H919 H 0.99049 0.92625 0.76901 0.0
C920 C 0.02876 0.85784 0.70759 0.0
C921 C 0.98965 0.85331 0.70731 0.0
C922 C 0.04491 0.88904 0.71677 0.0
C923 C 0.0224 0.91637 0.726 0.0
C924 C 0.98325 0.9126 0.7254 0.0
H925 H 0.14119 0.0751 0.80641 0.0
H926 H 0.08781 0.0493 0.78729 0.0
C927 C 0.96694 0.88132 0.716 0.0
C928 C 0.04086 0.94776 0.73677 0.0
H929 H 0.07073 0.97365 0.7843 0.0
C930 C 0.06166 0.97344 0.72516 0.0
C931 C 0.04276 0.94898 0.75837 0.0
C932 C 0.02095 0.92185 0.77145 0.0
C933 C 0.08611 0.99885 0.73457 0.0
C934 C 0.09045 0.99792 0.7561 0.0
C935 C 0.0675 0.9742 0.76779 0.0
C936 C 0.1221 0.01706 0.76641 0.0
C937 C 0.10807 0.02555 0.7213 0.0
C938 C 0.15895 1.00756 0.76101 0.0
C939 C 0.18922 0.02209 0.77186 0.0
C940 C 0.18339 0.04636 0.78846 0.0
C941 C 0.14651 0.05674 0.79356 0.0
C942 C 0.11605 0.04193 0.78272 0.0
H943 H 0.09254 0.03237 0.70703 0.0
H944 H 0.11439 0.05195 0.72954 0.0
H945 H 0.13493 0.01218 0.71682 0.0
H946 H 0.16433 0.98783 0.74878 0.0
H947 H 0.21726 0.01386 0.76743 0.0
H948 H 0.66443 0.43456 0.97375 0.0
H949 H 0.60995 0.46167 0.99171 0.0
H950 H 0.62774 0.56631 0.96023 0.0
H951 H 0.68144 0.53958 0.94242 0.0
H952 H 0.61266 0.52769 0.01744 0.0
H953 H 0.51459 0.54657 0.95277 0.0
H954 H 0.55341 0.51406 0.95193 0.0
H955 H 0.56086 0.56302 0.94691 0.0
C956 C 0.65624 0.46314 0.97052 0.0
C957 C 0.6773 0.48507 0.95683 0.0
C958 C 0.62528 0.4786 0.98078 0.0
C959 C 0.61455 0.51586 0.97709 0.0
C960 C 0.63512 0.53735 0.96308 0.0
H961 H 0.50837 0.70897 0.01503 0.0
H962 H 0.53787 0.65519 0.99863 0.0
C963 C 0.66608 0.52216 0.95308 0.0
C964 C 0.58378 0.53398 0.98874 0.0
H965 H 0.50622 0.58842 0.98153 0.0
C966 C 0.58872 0.54012 0.00978 0.0
C967 C 0.55258 0.55007 0.97869 0.0
C968 C 0.54478 0.5428 0.95636 0.0
C969 C 0.56505 0.56456 0.02064 0.0
C970 C 0.53548 0.58285 0.01019 0.0
C971 C 0.529 0.57454 0.9895 0.0
C972 C 0.51459 0.61442 0.01957 0.0
C973 C 0.57352 0.57281 0.04281 0.0
C974 C 0.49092 0.60929 0.03653 0.0
C975 C 0.47399 0.64021 0.04601 0.0
C976 C 0.48066 0.67667 0.03871 0.0
C977 C 0.50321 0.68137 0.02124 0.0
C978 C 0.51988 0.6506 0.01177 0.0
H979 H 0.60018 0.55975 0.04794 0.0
H980 H 0.57527 0.60349 0.04531 0.0
H981 H 0.55051 0.56188 0.05255 0.0
H982 H 0.48609 0.58153 0.04265 0.0
H983 H 0.45684 0.63575 0.05948 0.0
loop_
_geom_bond_atom_site_label_1
_geom_bond_atom_site_label_2
_geom_bond_distance
_geom_bond_site_symmetry_2
_ccdc_geom_bond_type
Co0 N4 2.148 . S
Co0 N10 2.128 . S
Co0 N20 2.194 . S
Co0 O25 2.351 . S
Co0 O26 2.155 . S
Co0 O27 2.096 . S
C1 N4 1.301 . S
C1 N5 1.328 . S
C1 H6 0.930 . S
C2 C3 1.333 . S
C2 N4 1.317 . S
C2 H7 0.930 . S
C3 C2 1.333 . S
C3 N5 1.350 . S
C3 H29 0.931 . S
N4 Co0 2.148 . S
N4 C1 1.301 . S
N4 C2 1.317 . S
N5 C1 1.328 . S
N5 C3 1.350 . S
H6 C1 0.930 . S
H7 C2 0.930 . S
C8 O9 1.224 . S
C8 O27 1.247 . S
O9 C8 1.224 . S
N10 Co0 2.128 . S
N10 C11 1.355 . S
N10 C13 1.311 . S
C11 N10 1.355 . S
C11 C12 1.363 . S
C11 H23 0.929 . S
C12 C11 1.363 . S
C12 N14 1.375 . S
C12 H30 0.931 1_455 S
C13 N10 1.311 . S
C13 N14 1.347 . S
C13 H24 0.929 . S
N14 C12 1.375 . S
N14 C13 1.347 . S
C15 C18 1.365 . S
C15 N20 1.328 . S
C15 H21 0.929 . S
C16 C17 1.362 . S
C16 C19 1.378 . S
C16 H31 0.929 . S
C17 C16 1.362 . S
C17 C18 1.366 . S
C18 C15 1.365 . S
C18 C17 1.366 . S
C18 H32 0.930 . S
C19 C16 1.378 . S
C19 N20 1.315 . S
C19 H22 0.930 . S
N20 Co0 2.194 . S
N20 C15 1.328 . S
N20 C19 1.315 . S
H21 C15 0.929 . S
H22 C19 0.930 . S
H23 C11 0.929 . S
H24 C13 0.929 . S
O25 Co0 2.351 . S
O25 C28 1.244 . S
O26 Co0 2.155 . S
O26 C28 1.240 . S
O27 Co0 2.096 . S
O27 C8 1.247 . S
C28 O25 1.244 . S
C28 O26 1.240 . S
H29 C3 0.931 . S
H30 C12 0.931 1_655 S
H31 C16 0.929 . S
H32 C18 0.930 . S
Co33 N37 2.148 . S
Co33 N43 2.128 . S
Co33 N53 2.194 . S
Co33 O58 2.351 . S
Co33 O59 2.155 . S
Co33 O60 2.096 . S
C34 N37 1.301 . S
C34 N38 1.328 . S
C34 H39 0.930 . S
C35 C36 1.333 . S
C35 N37 1.317 . S
C35 H40 0.930 . S
C36 C35 1.333 . S
C36 N38 1.350 . S
C36 H62 0.931 . S
N37 Co33 2.148 . S
N37 C34 1.301 . S
N37 C35 1.317 . S
N38 C34 1.328 . S
N38 C36 1.350 . S
H39 C34 0.930 . S
H40 C35 0.930 . S
C41 O42 1.224 . S
C41 O60 1.247 . S
O42 C41 1.224 . S
N43 Co33 2.128 . S
N43 C44 1.355 . S
N43 C46 1.311 . S
C44 N43 1.355 . S
C44 C45 1.363 . S
C44 H56 0.929 . S
C45 C44 1.363 . S
C45 N47 1.375 . S
C45 H63 0.931 . S
C46 N43 1.311 . S
C46 N47 1.347 . S
C46 H57 0.929 . S
N47 C45 1.375 . S
N47 C46 1.347 . S
C48 C51 1.365 . S
C48 N53 1.328 . S
C48 H54 0.929 . S
C49 C50 1.362 . S
C49 C52 1.378 . S
C49 H64 0.929 . S
C50 C49 1.362 . S
C50 C51 1.366 . S
C51 C48 1.365 . S
C51 C50 1.366 . S
C51 H65 0.930 . S
C52 C49 1.378 . S
C52 N53 1.315 . S
C52 H55 0.930 . S
N53 Co33 2.194 . S
N53 C48 1.328 . S
N53 C52 1.315 . S
H54 C48 0.929 . S
H55 C52 0.930 . S
H56 C44 0.929 . S
H57 C46 0.929 . S
O58 Co33 2.351 . S
O58 C61 1.244 . S
O59 Co33 2.155 . S
O59 C61 1.240 . S
O60 Co33 2.096 . S
O60 C41 1.247 . S
C61 O58 1.244 . S
C61 O59 1.240 . S
H62 C36 0.931 . S
H63 C45 0.931 . S
H64 C49 0.929 . S
H65 C51 0.930 . S
Co66 N70 2.148 . S
Co66 N76 2.128 . S
Co66 N86 2.194 . S
Co66 O91 2.351 . S
Co66 O92 2.155 . S
Co66 O93 2.096 . S
C67 N70 1.301 . S
C67 N71 1.328 . S
C67 H72 0.930 . S
C68 C69 1.333 . S
C68 N70 1.317 . S
C68 H73 0.930 . S
C69 C68 1.333 . S
C69 N71 1.350 . S
C69 H95 0.931 . S
N70 Co66 2.148 . S
N70 C67 1.301 . S
N70 C68 1.317 . S
N71 C67 1.328 . S
N71 C69 1.350 . S
H72 C67 0.930 . S
H73 C68 0.930 . S
C74 O75 1.224 . S
C74 O93 1.247 . S
O75 C74 1.224 . S
N76 Co66 2.128 . S
N76 C77 1.355 . S
N76 C79 1.311 . S
C77 N76 1.355 . S
C77 C78 1.363 . S
C77 H89 0.929 . S
C78 C77 1.363 . S
C78 N80 1.375 . S
C78 H96 0.931 1_655 S
C79 N76 1.311 . S
C79 N80 1.347 . S
C79 H90 0.929 . S
N80 C78 1.375 . S
N80 C79 1.347 . S
C81 C84 1.365 . S
C81 N86 1.328 . S
C81 H87 0.929 . S
C82 C83 1.362 . S
C82 C85 1.378 . S
C82 H97 0.929 . S
C83 C82 1.362 . S
C83 C84 1.366 . S
C84 C81 1.365 . S
C84 C83 1.366 . S
C84 H98 0.930 . S
C85 C82 1.378 . S
C85 N86 1.315 . S
C85 H88 0.930 . S
N86 Co66 2.194 . S
N86 C81 1.328 . S
N86 C85 1.315 . S
H87 C81 0.929 . S
H88 C85 0.930 . S
H89 C77 0.929 . S
H90 C79 0.929 . S
O91 Co66 2.351 . S
O91 C94 1.244 . S
O92 Co66 2.155 . S
O92 C94 1.240 . S
O93 Co66 2.096 . S
O93 C74 1.247 . S
C94 O91 1.244 . S
C94 O92 1.240 . S
H95 C69 0.931 . S
H96 C78 0.931 1_455 S
H97 C82 0.929 . S
H98 C84 0.930 . S
Co99 N103 2.148 . S
Co99 N109 2.128 . S
Co99 N119 2.194 . S
Co99 O124 2.351 . S
Co99 O125 2.155 . S
Co99 O126 2.096 . S
C100 N103 1.301 . S
C100 N104 1.328 . S
C100 H105 0.930 . S
C101 C102 1.333 . S
C101 N103 1.317 . S
C101 H106 0.930 . S
C102 C101 1.333 . S
C102 N104 1.350 . S
C102 H128 0.931 . S
N103 Co99 2.148 . S
N103 C100 1.301 . S
N103 C101 1.317 . S
N104 C100 1.328 . S
N104 C102 1.350 . S
H105 C100 0.930 . S
H106 C101 0.930 . S
C107 O108 1.224 . S
C107 O126 1.247 . S
O108 C107 1.224 . S
N109 Co99 2.128 . S
N109 C110 1.355 . S
N109 C112 1.311 . S
C110 N109 1.355 . S
C110 C111 1.363 . S
C110 H122 0.929 . S
C111 C110 1.363 . S
C111 N113 1.375 . S
C111 H129 0.931 . S
C112 N109 1.311 . S
C112 N113 1.347 . S
C112 H123 0.929 . S
N113 C111 1.375 . S
N113 C112 1.347 . S
C114 C117 1.365 . S
C114 N119 1.328 . S
C114 H120 0.929 . S
C115 C116 1.362 . S
C115 C118 1.378 . S
C115 H130 0.929 . S
C116 C115 1.362 . S
C116 C117 1.366 . S
C117 C114 1.365 . S
C117 C116 1.366 . S
C117 H131 0.930 . S
C118 C115 1.378 . S
C118 N119 1.315 . S
C118 H121 0.930 . S
N119 Co99 2.194 . S
N119 C114 1.328 . S
N119 C118 1.315 . S
H120 C114 0.929 . S
H121 C118 0.930 . S
H122 C110 0.929 . S
H123 C112 0.929 . S
O124 Co99 2.351 . S
O124 C127 1.244 . S
O125 Co99 2.155 . S
O125 C127 1.240 . S
O126 Co99 2.096 . S
O126 C107 1.247 . S
C127 O124 1.244 . S
C127 O125 1.240 . S
H128 C102 0.931 . S
H129 C111 0.931 . S
H130 C115 0.929 . S
H131 C117 0.930 . S
Co132 N136 2.148 . S
Co132 N142 2.128 . S
Co132 N152 2.194 . S
Co132 O157 2.351 . S
Co132 O158 2.155 . S
Co132 O159 2.096 . S
C133 N136 1.301 . S
C133 N137 1.328 . S
C133 H138 0.930 . S
C134 C135 1.333 . S
C134 N136 1.317 . S
C134 H139 0.930 . S
C135 C134 1.333 . S
C135 N137 1.350 . S
C135 H161 0.931 . S
N136 Co132 2.148 . S
N136 C133 1.301 . S
N136 C134 1.317 . S
N137 C133 1.328 . S
N137 C135 1.350 . S
H138 C133 0.930 . S
H139 C134 0.930 . S
C140 O141 1.224 . S
C140 O159 1.247 . S
O141 C140 1.224 . S
N142 Co132 2.128 . S
N142 C143 1.355 . S
N142 C145 1.311 . S
C143 N142 1.355 . S
C143 C144 1.363 . S
C143 H155 0.929 . S
C144 C143 1.363 . S
C144 N146 1.375 . S
C144 H162 0.931 . S
C145 N142 1.311 . S
C145 N146 1.347 . S
C145 H156 0.929 . S
N146 C144 1.375 . S
N146 C145 1.347 . S
C147 C150 1.365 . S
C147 N152 1.328 . S
C147 H153 0.929 . S
C148 C149 1.362 . S
C148 C151 1.378 . S
C148 H163 0.929 . S
C149 C148 1.362 . S
C149 C150 1.366 . S
C150 C147 1.365 . S
C150 C149 1.366 . S
C150 H164 0.930 . S
C151 C148 1.378 . S
C151 N152 1.315 . S
C151 H154 0.930 . S
N152 Co132 2.194 . S
N152 C147 1.328 . S
N152 C151 1.315 . S
H153 C147 0.929 . S
H154 C151 0.930 . S
H155 C143 0.929 . S
H156 C145 0.929 . S
O157 Co132 2.351 . S
O157 C160 1.244 . S
O158 Co132 2.155 . S
O158 C160 1.240 . S
O159 Co132 2.096 . S
O159 C140 1.247 . S
C160 O157 1.244 . S
C160 O158 1.240 . S
H161 C135 0.931 . S
H162 C144 0.931 . S
H163 C148 0.929 . S
H164 C150 0.930 . S
Co165 N169 2.148 . S
Co165 N175 2.128 . S
Co165 N185 2.194 . S
Co165 O190 2.351 . S
Co165 O191 2.155 . S
Co165 O192 2.096 . S
C166 N169 1.301 . S
C166 N170 1.328 . S
C166 H171 0.930 . S
C167 C168 1.333 . S
C167 N169 1.317 . S
C167 H172 0.930 . S
C168 C167 1.333 . S
C168 N170 1.350 . S
C168 H194 0.931 . S
N169 Co165 2.148 . S
N169 C166 1.301 . S
N169 C167 1.317 . S
N170 C166 1.328 . S
N170 C168 1.350 . S
H171 C166 0.930 . S
H172 C167 0.930 . S
C173 O174 1.224 . S
C173 O192 1.247 . S
O174 C173 1.224 . S
N175 Co165 2.128 . S
N175 C176 1.355 . S
N175 C178 1.311 . S
C176 N175 1.355 . S
C176 C177 1.363 . S
C176 H188 0.929 . S
C177 C176 1.363 . S
C177 N179 1.375 . S
C177 H195 0.931 1_545 S
C178 N175 1.311 . S
C178 N179 1.347 . S
C178 H189 0.929 . S
N179 C177 1.375 . S
N179 C178 1.347 . S
C180 C183 1.365 . S
C180 N185 1.328 . S
C180 H186 0.929 . S
C181 C182 1.362 . S
C181 C184 1.378 . S
C181 H196 0.929 . S
C182 C181 1.362 . S
C182 C183 1.366 . S
C183 C180 1.365 . S
C183 C182 1.366 . S
C183 H197 0.930 . S
C184 C181 1.378 . S
C184 N185 1.315 . S
C184 H187 0.930 . S
N185 Co165 2.194 . S
N185 C180 1.328 . S
N185 C184 1.315 . S
H186 C180 0.929 . S
H187 C184 0.930 . S
H188 C176 0.929 . S
H189 C178 0.929 . S
O190 Co165 2.351 . S
O190 C193 1.244 . S
O191 Co165 2.155 . S
O191 C193 1.240 . S
O192 Co165 2.096 . S
O192 C173 1.247 . S
C193 O190 1.244 . S
C193 O191 1.240 . S
H194 C168 0.931 . S
H195 C177 0.931 1_565 S
H196 C181 0.929 . S
H197 C183 0.930 . S
Co198 N202 2.148 . S
Co198 N208 2.128 . S
Co198 N218 2.194 . S
Co198 O223 2.351 . S
Co198 O224 2.155 . S
Co198 O225 2.096 . S
C199 N202 1.301 . S
C199 N203 1.328 . S
C199 H204 0.930 . S
C200 C201 1.333 . S
C200 N202 1.317 . S
C200 H205 0.930 . S
C201 C200 1.333 . S
C201 N203 1.350 . S
C201 H227 0.931 . S
N202 Co198 2.148 . S
N202 C199 1.301 . S
N202 C200 1.317 . S
N203 C199 1.328 . S
N203 C201 1.350 . S
H204 C199 0.930 . S
H205 C200 0.930 . S
C206 O207 1.224 . S
C206 O225 1.247 . S
O207 C206 1.224 . S
N208 Co198 2.128 . S
N208 C209 1.355 . S
N208 C211 1.311 . S
C209 N208 1.355 . S
C209 C210 1.363 . S
C209 H221 0.929 . S
C210 C209 1.363 . S
C210 N212 1.375 . S
C210 H228 0.931 . S
C211 N208 1.311 . S
C211 N212 1.347 . S
C211 H222 0.929 . S
N212 C210 1.375 . S
N212 C211 1.347 . S
C213 C216 1.365 . S
C213 N218 1.328 . S
C213 H219 0.929 . S
C214 C215 1.362 . S
C214 C217 1.378 . S
C214 H229 0.929 . S
C215 C214 1.362 . S
C215 C216 1.366 . S
C216 C213 1.365 . S
C216 C215 1.366 . S
C216 H230 0.930 . S
C217 C214 1.378 . S
C217 N218 1.315 . S
C217 H220 0.930 . S
N218 Co198 2.194 . S
N218 C213 1.328 . S
N218 C217 1.315 . S
H219 C213 0.929 . S
H220 C217 0.930 . S
H221 C209 0.929 . S
H222 C211 0.929 . S
O223 Co198 2.351 . S
O223 C226 1.244 . S
O224 Co198 2.155 . S
O224 C226 1.240 . S
O225 Co198 2.096 . S
O225 C206 1.247 . S
C226 O223 1.244 . S
C226 O224 1.240 . S
H227 C201 0.931 . S
H228 C210 0.931 . S
H229 C214 0.929 . S
H230 C216 0.930 . S
Co231 N235 2.148 . S
Co231 N241 2.128 . S
Co231 N251 2.194 . S
Co231 O256 2.351 . S
Co231 O257 2.155 . S
Co231 O258 2.096 . S
C232 N235 1.301 . S
C232 N236 1.328 . S
C232 H237 0.930 . S
C233 C234 1.333 . S
C233 N235 1.317 . S
C233 H238 0.930 . S
C234 C233 1.333 . S
C234 N236 1.350 . S
C234 H260 0.931 . S
N235 Co231 2.148 . S
N235 C232 1.301 . S
N235 C233 1.317 . S
N236 C232 1.328 . S
N236 C234 1.350 . S
H237 C232 0.930 . S
H238 C233 0.930 . S
C239 O240 1.224 . S
C239 O258 1.247 . S
O240 C239 1.224 . S
N241 Co231 2.128 . S
N241 C242 1.355 . S
N241 C244 1.311 . S
C242 N241 1.355 . S
C242 C243 1.363 . S
C242 H254 0.929 . S
C243 C242 1.363 . S
C243 N245 1.375 . S
C243 H261 0.931 1_565 S
C244 N241 1.311 . S
C244 N245 1.347 . S
C244 H255 0.929 . S
N245 C243 1.375 . S
N245 C244 1.347 . S
C246 C249 1.365 . S
C246 N251 1.328 . S
C246 H252 0.929 . S
C247 C248 1.362 . S
C247 C250 1.378 . S
C247 H262 0.929 . S
C248 C247 1.362 . S
C248 C249 1.366 . S
C249 C246 1.365 . S
C249 C248 1.366 . S
C249 H263 0.930 . S
C250 C247 1.378 . S
C250 N251 1.315 . S
C250 H253 0.930 . S
N251 Co231 2.194 . S
N251 C246 1.328 . S
N251 C250 1.315 . S
H252 C246 0.929 . S
H253 C250 0.930 . S
H254 C242 0.929 . S
H255 C244 0.929 . S
O256 Co231 2.351 . S
O256 C259 1.244 . S
O257 Co231 2.155 . S
O257 C259 1.240 . S
O258 Co231 2.096 . S
O258 C239 1.247 . S
C259 O256 1.244 . S
C259 O257 1.240 . S
H260 C234 0.931 . S
H261 C243 0.931 1_545 S
H262 C247 0.929 . S
H263 C249 0.930 . S
H264 C272 0.929 . S
H265 C274 0.930 . S
H266 C276 0.930 . S
H267 C279 0.929 . S
H268 C282 0.930 . S
H269 C284 0.960 . S
H270 C284 0.960 . S
H271 C284 0.960 . S
C272 H264 0.929 . S
C272 C273 1.377 . S
C272 C274 1.384 . S
C273 C272 1.377 . S
C273 C279 1.390 . S
C274 H265 0.930 . S
C274 C272 1.384 . S
C274 C275 1.372 . S
C275 C274 1.372 . S
C275 C276 1.400 . S
C275 C280 1.490 . S
C276 H266 0.930 . S
C276 C275 1.400 . S
C276 C279 1.386 . S
H277 C293 0.930 . S
H278 C294 0.931 . S
C279 H267 0.929 . S
C279 C273 1.390 . S
C279 C276 1.386 . S
C280 C275 1.490 . S
C280 C282 1.395 . S
C280 C283 1.403 . S
H281 C287 0.930 . S
C282 H268 0.930 . S
C282 C280 1.395 . S
C282 C285 1.403 . S
C283 C280 1.403 . S
C283 C284 1.524 . S
C283 C287 1.400 . S
C284 H269 0.960 . S
C284 H270 0.960 . S
C284 H271 0.960 . S
C284 C283 1.524 . S
C285 C282 1.403 . S
C285 C286 1.392 . S
C285 C289 1.495 . S
C286 C285 1.392 . S
C286 C287 1.385 . S
C286 C288 1.478 . S
C287 H281 0.930 . S
C287 C283 1.400 . S
C287 C286 1.385 . S
C288 C286 1.478 . S
C288 C290 1.381 . S
C288 C294 1.383 . S
C289 C285 1.495 . S
C289 H295 0.959 . S
C289 H296 0.961 . S
C289 H297 0.960 . S
C290 C288 1.381 . S
C290 C291 1.394 . S
C290 H298 0.930 . S
C291 C290 1.394 . S
C291 C292 1.383 . S
C291 H299 0.929 . S
C292 C291 1.383 . S
C292 C293 1.377 . S
C293 H277 0.930 . S
C293 C292 1.377 . S
C293 C294 1.379 . S
C294 H278 0.931 . S
C294 C288 1.383 . S
C294 C293 1.379 . S
H295 C289 0.959 . S
H296 C289 0.961 . S
H297 C289 0.960 . S
H298 C290 0.930 . S
H299 C291 0.929 . S
H300 C308 0.929 1_655 S
H301 C310 0.930 . S
H302 C312 0.930 . S
H303 C315 0.929 . S
H304 C318 0.930 . S
H305 C320 0.960 . S
H306 C320 0.960 . S
H307 C320 0.960 . S
C308 H300 0.929 1_455 S
C308 C309 1.377 . S
C308 C310 1.384 . S
C309 C308 1.377 . S
C309 C315 1.390 . S
C310 H301 0.930 . S
C310 C308 1.384 . S
C310 C311 1.372 . S
C311 C310 1.372 . S
C311 C312 1.400 . S
C311 C316 1.490 . S
C312 H302 0.930 . S
C312 C311 1.400 . S
C312 C315 1.386 . S
H313 C329 0.930 . S
H314 C330 0.931 . S
C315 H303 0.929 . S
C315 C309 1.390 . S
C315 C312 1.386 . S
C316 C311 1.490 . S
C316 C318 1.395 . S
C316 C319 1.403 . S
H317 C323 0.930 . S
C318 H304 0.930 . S
C318 C316 1.395 . S
C318 C321 1.403 . S
C319 C316 1.403 . S
C319 C320 1.524 . S
C319 C323 1.400 . S
C320 H305 0.960 . S
C320 H306 0.960 . S
C320 H307 0.960 . S
C320 C319 1.524 . S
C321 C318 1.403 . S
C321 C322 1.392 . S
C321 C325 1.495 . S
C322 C321 1.392 . S
C322 C323 1.385 . S
C322 C324 1.478 . S
C323 H317 0.930 . S
C323 C319 1.400 . S
C323 C322 1.385 . S
C324 C322 1.478 . S
C324 C326 1.381 . S
C324 C330 1.383 . S
C325 C321 1.495 . S
C325 H331 0.959 . S
C325 H332 0.961 . S
C325 H333 0.960 . S
C326 C324 1.381 . S
C326 C327 1.394 . S
C326 H334 0.930 . S
C327 C326 1.394 . S
C327 C328 1.383 . S
C327 H335 0.929 . S
C328 C327 1.383 . S
C328 C329 1.377 . S
C329 H313 0.930 . S
C329 C328 1.377 . S
C329 C330 1.379 . S
C330 H314 0.931 . S
C330 C324 1.383 . S
C330 C329 1.379 . S
H331 C325 0.959 . S
H332 C325 0.961 . S
H333 C325 0.960 . S
H334 C326 0.930 . S
H335 C327 0.929 . S
H336 C344 0.929 . S
H337 C346 0.930 . S
H338 C348 0.930 . S
H339 C351 0.929 . S
H340 C354 0.930 . S
H341 C356 0.960 . S
H342 C356 0.960 . S
H343 C356 0.960 . S
C344 H336 0.929 . S
C344 C345 1.377 . S
C344 C346 1.384 . S
C345 C344 1.377 . S
C345 C351 1.390 . S
C346 H337 0.930 . S
C346 C344 1.384 . S
C346 C347 1.372 . S
C347 C346 1.372 . S
C347 C348 1.400 . S
C347 C352 1.490 . S
C348 H338 0.930 . S
C348 C347 1.400 . S
C348 C351 1.386 . S
H349 C365 0.930 . S
H350 C366 0.931 . S
C351 H339 0.929 . S
C351 C345 1.390 . S
C351 C348 1.386 . S
C352 C347 1.490 . S
C352 C354 1.395 . S
C352 C355 1.403 . S
H353 C359 0.930 . S
C354 H340 0.930 . S
C354 C352 1.395 . S
C354 C357 1.403 . S
C355 C352 1.403 . S
C355 C356 1.524 . S
C355 C359 1.400 . S
C356 H341 0.960 . S
C356 H342 0.960 . S
C356 H343 0.960 . S
C356 C355 1.524 . S
C357 C354 1.403 . S
C357 C358 1.392 . S
C357 C361 1.495 . S
C358 C357 1.392 . S
C358 C359 1.385 . S
C358 C360 1.478 . S
C359 H353 0.930 . S
C359 C355 1.400 . S
C359 C358 1.385 . S
C360 C358 1.478 . S
C360 C362 1.381 . S
C360 C366 1.383 . S
C361 C357 1.495 . S
C361 H367 0.959 . S
C361 H368 0.961 . S
C361 H369 0.960 . S
C362 C360 1.381 . S
C362 C363 1.394 . S
C362 H370 0.930 . S
C363 C362 1.394 . S
C363 C364 1.383 . S
C363 H371 0.929 . S
C364 C363 1.383 . S
C364 C365 1.377 . S
C365 H349 0.930 . S
C365 C364 1.377 . S
C365 C366 1.379 . S
C366 H350 0.931 . S
C366 C360 1.383 . S
C366 C365 1.379 . S
H367 C361 0.959 . S
H368 C361 0.961 . S
H369 C361 0.960 . S
H370 C362 0.930 . S
H371 C363 0.929 . S
H372 C380 0.929 . S
H373 C382 0.930 1_554 S
H374 C384 0.930 . S
H375 C387 0.929 . S
H376 C390 0.930 . S
H377 C392 0.970 . S
H378 C392 0.958 1_556 S
H379 C392 0.934 1_556 S
C380 H372 0.929 . S
C380 C381 1.377 . S
C380 C382 1.384 . S
C381 C380 1.377 . S
C381 C387 1.390 . S
C382 H373 0.930 1_556 S
C382 C380 1.384 . S
C382 C383 1.372 . S
C383 C382 1.372 . S
C383 C384 1.400 . S
C383 C388 1.490 1_556 S
C384 H374 0.930 . S
C384 C383 1.400 . S
C384 C387 1.386 . S
H385 C401 0.930 . S
H386 C402 0.931 . S
C387 H375 0.929 . S
C387 C381 1.390 . S
C387 C384 1.386 . S
C388 C383 1.490 1_554 S
C388 C390 1.395 . S
C388 C391 1.403 . S
H389 C395 0.930 . S
C390 H376 0.930 . S
C390 C388 1.395 . S
C390 C393 1.403 . S
C391 C388 1.403 . S
C391 C392 1.542 . S
C391 C395 1.400 . S
C392 H377 0.970 . S
C392 H378 0.958 1_554 S
C392 H379 0.934 1_554 S
C392 C391 1.542 . S
C393 C390 1.403 . S
C393 C394 1.392 . S
C393 C397 1.495 . S
C394 C393 1.392 . S
C394 C395 1.385 . S
C394 C396 1.478 . S
C395 H389 0.930 . S
C395 C391 1.400 . S
C395 C394 1.385 . S
C396 C394 1.478 . S
C396 C398 1.381 . S
C396 C402 1.383 . S
C397 C393 1.495 . S
C397 H403 0.959 . S
C397 H404 0.961 . S
C397 H405 0.960 . S
C398 C396 1.381 . S
C398 C399 1.394 . S
C398 H406 0.930 . S
C399 C398 1.394 . S
C399 C400 1.383 . S
C399 H407 0.929 . S
C400 C399 1.383 . S
C400 C401 1.377 1_655 S
C401 H385 0.930 . S
C401 C400 1.377 1_455 S
C401 C402 1.379 1_455 S
C402 H386 0.931 . S
C402 C396 1.383 . S
C402 C401 1.379 1_655 S
H403 C397 0.959 . S
H404 C397 0.961 . S
H405 C397 0.960 . S
H406 C398 0.930 . S
H407 C399 0.929 . S
H408 C416 0.929 . S
H409 C418 0.930 . S
H410 C420 0.930 . S
H411 C423 0.929 . S
H412 C426 0.930 . S
H413 C428 0.960 . S
H414 C428 0.960 . S
H415 C428 0.960 . S
C416 H408 0.929 . S
C416 C417 1.377 . S
C416 C418 1.384 . S
C417 C416 1.377 . S
C417 C423 1.390 . S
C418 H409 0.930 . S
C418 C416 1.384 . S
C418 C419 1.372 . S
C419 C418 1.372 . S
C419 C420 1.400 . S
C419 C424 1.490 . S
C420 H410 0.930 . S
C420 C419 1.400 . S
C420 C423 1.386 . S
H421 C437 0.930 . S
H422 C438 0.931 . S
C423 H411 0.929 . S
C423 C417 1.390 . S
C423 C420 1.386 . S
C424 C419 1.490 . S
C424 C426 1.395 . S
C424 C427 1.403 . S
H425 C431 0.930 . S
C426 H412 0.930 . S
C426 C424 1.395 . S
C426 C429 1.403 . S
C427 C424 1.403 . S
C427 C428 1.524 . S
C427 C431 1.400 . S
C428 H413 0.960 . S
C428 H414 0.960 . S
C428 H415 0.960 . S
C428 C427 1.524 . S
C429 C426 1.403 . S
C429 C430 1.392 . S
C429 C433 1.495 . S
C430 C429 1.392 . S
C430 C431 1.385 . S
C430 C432 1.478 . S
C431 H425 0.930 . S
C431 C427 1.400 . S
C431 C430 1.385 . S
C432 C430 1.478 . S
C432 C434 1.381 . S
C432 C438 1.383 . S
C433 C429 1.495 . S
C433 H439 0.959 1_545 S
C433 H440 0.961 1_545 S
C433 H441 0.960 1_545 S
C434 C432 1.381 . S
C434 C435 1.394 . S
C434 H442 0.930 . S
C435 C434 1.394 . S
C435 C436 1.384 . S
C435 H443 0.929 1_545 S
C436 C435 1.384 . S
C436 C437 1.379 . S
C437 H421 0.930 . S
C437 C436 1.379 . S
C437 C438 1.379 . S
C438 H422 0.931 . S
C438 C432 1.383 . S
C438 C437 1.379 . S
H439 C433 0.959 1_565 S
H440 C433 0.961 1_565 S
H441 C433 0.960 1_565 S
H442 C434 0.930 . S
H443 C435 0.929 1_565 S
H444 C452 0.929 . S
H445 C454 0.930 . S
H446 C456 0.930 . S
H447 C459 0.929 . S
H448 C462 0.930 . S
H449 C464 0.960 . S
H450 C464 0.960 . S
H451 C464 0.960 . S
C452 H444 0.929 . S
C452 C453 1.377 . S
C452 C454 1.384 . S
C453 C452 1.377 . S
C453 C459 1.390 . S
C454 H445 0.930 . S
C454 C452 1.384 . S
C454 C455 1.372 . S
C455 C454 1.372 . S
C455 C456 1.400 . S
C455 C460 1.490 . S
C456 H446 0.930 . S
C456 C455 1.400 . S
C456 C459 1.386 . S
H457 C473 0.930 . S
H458 C474 0.931 . S
C459 H447 0.929 . S
C459 C453 1.390 . S
C459 C456 1.386 . S
C460 C455 1.490 . S
C460 C462 1.395 . S
C460 C463 1.403 . S
H461 C467 0.930 . S
C462 H448 0.930 . S
C462 C460 1.395 . S
C462 C465 1.403 . S
C463 C460 1.403 . S
C463 C464 1.524 . S
C463 C467 1.400 . S
C464 H449 0.960 . S
C464 H450 0.960 . S
C464 H451 0.960 . S
C464 C463 1.524 . S
C465 C462 1.403 . S
C465 C466 1.392 . S
C465 C469 1.495 . S
C466 C465 1.392 . S
C466 C467 1.385 . S
C466 C468 1.478 . S
C467 H461 0.930 . S
C467 C463 1.400 . S
C467 C466 1.385 . S
C468 C466 1.478 . S
C468 C470 1.381 . S
C468 C474 1.383 . S
C469 C465 1.495 . S
C469 H475 0.959 . S
C469 H476 0.961 . S
C469 H477 0.960 . S
C470 C468 1.381 . S
C470 C471 1.394 . S
C470 H478 0.930 . S
C471 C470 1.394 . S
C471 C472 1.383 . S
C471 H479 0.929 . S
C472 C471 1.383 . S
C472 C473 1.377 . S
C473 H457 0.930 . S
C473 C472 1.377 . S
C473 C474 1.379 . S
C474 H458 0.931 . S
C474 C468 1.383 . S
C474 C473 1.379 . S
H475 C469 0.959 . S
H476 C469 0.961 . S
H477 C469 0.960 . S
H478 C470 0.930 . S
H479 C471 0.929 . S
H480 C488 0.929 . S
H481 C490 0.930 . S
H482 C492 0.930 . S
H483 C495 0.929 . S
H484 C498 0.930 . S
H485 C500 0.960 . S
H486 C500 0.960 . S
H487 C500 0.960 . S
C488 H480 0.929 . S
C488 C489 1.377 . S
C488 C490 1.384 . S
C489 C488 1.377 . S
C489 C495 1.390 . S
C490 H481 0.930 . S
C490 C488 1.384 . S
C490 C491 1.372 . S
C491 C490 1.372 . S
C491 C492 1.400 . S
C491 C496 1.490 1_554 S
C492 H482 0.930 . S
C492 C491 1.400 . S
C492 C495 1.386 . S
H493 C509 0.930 . S
H494 C510 0.931 . S
C495 H483 0.929 . S
C495 C489 1.390 . S
C495 C492 1.386 . S
C496 C491 1.490 1_556 S
C496 C498 1.395 . S
C496 C499 1.403 . S
H497 C503 0.930 . S
C498 H484 0.930 . S
C498 C496 1.395 . S
C498 C501 1.403 . S
C499 C496 1.403 . S
C499 C500 1.524 1_556 S
C499 C503 1.400 . S
C500 H485 0.960 . S
C500 H486 0.960 . S
C500 H487 0.960 . S
C500 C499 1.524 1_554 S
C501 C498 1.403 . S
C501 C502 1.392 . S
C501 C505 1.495 . S
C502 C501 1.392 . S
C502 C503 1.385 . S
C502 C504 1.478 . S
C503 H497 0.930 . S
C503 C499 1.400 . S
C503 C502 1.385 . S
C504 C502 1.478 . S
C504 C506 1.381 . S
C504 C510 1.383 . S
C505 C501 1.495 . S
C505 H511 0.959 . S
C505 H512 0.961 . S
C505 H513 0.960 . S
C506 C504 1.381 . S
C506 C507 1.394 1_565 S
C506 H514 0.930 . S
C507 C506 1.394 1_545 S
C507 C508 1.383 1_545 S
C507 H515 0.929 . S
C508 C507 1.383 1_565 S
C508 C509 1.377 . S
C509 H493 0.930 . S
C509 C508 1.377 . S
C509 C510 1.379 . S
C510 H494 0.931 . S
C510 C504 1.383 . S
C510 C509 1.379 . S
H511 C505 0.959 . S
H512 C505 0.961 . S
H513 C505 0.960 . S
H514 C506 0.930 . S
H515 C507 0.929 . S
H516 C524 0.929 . S
H517 C526 0.930 . S
H518 C528 0.930 . S
H519 C531 0.929 . S
H520 C534 0.930 . S
H521 C536 0.960 . S
H522 C536 0.960 . S
H523 C536 0.960 . S
C524 H516 0.929 . S
C524 C525 1.377 . S
C524 C526 1.384 . S
C525 C524 1.377 . S
C525 C531 1.390 . S
C526 H517 0.930 . S
C526 C524 1.384 . S
C526 C527 1.372 . S
C527 C526 1.372 . S
C527 C528 1.400 . S
C527 C532 1.490 . S
C528 H518 0.930 . S
C528 C527 1.400 . S
C528 C531 1.386 . S
H529 C545 0.930 . S
H530 C546 0.931 . S
C531 H519 0.929 . S
C531 C525 1.390 . S
C531 C528 1.386 . S
C532 C527 1.490 . S
C532 C534 1.395 . S
C532 C535 1.403 . S
H533 C539 0.930 . S
C534 H520 0.930 . S
C534 C532 1.395 . S
C534 C537 1.403 . S
C535 C532 1.403 . S
C535 C536 1.524 . S
C535 C539 1.400 . S
C536 H521 0.960 . S
C536 H522 0.960 . S
C536 H523 0.960 . S
C536 C535 1.524 . S
C537 C534 1.403 . S
C537 C538 1.392 . S
C537 C541 1.495 . S
C538 C537 1.392 . S
C538 C539 1.385 . S
C538 C540 1.478 . S
C539 H533 0.930 . S
C539 C535 1.400 . S
C539 C538 1.385 . S
C540 C538 1.478 . S
C540 C542 1.381 . S
C540 C546 1.383 . S
C541 C537 1.495 . S
C541 H547 0.959 . S
C541 H548 0.961 . S
C541 H549 0.960 . S
C542 C540 1.381 . S
C542 C543 1.394 . S
C542 H550 0.930 . S
C543 C542 1.394 . S
C543 C544 1.383 . S
C543 H551 0.929 . S
C544 C543 1.383 . S
C544 C545 1.377 . S
C545 H529 0.930 . S
C545 C544 1.377 . S
C545 C546 1.379 . S
C546 H530 0.931 . S
C546 C540 1.383 . S
C546 C545 1.379 . S
H547 C541 0.959 . S
H548 C541 0.961 . S
H549 C541 0.960 . S
H550 C542 0.930 . S
H551 C543 0.929 . S
H552 C560 0.929 . S
H553 C562 0.930 . S
H554 C564 0.930 . S
H555 C567 0.929 . S
H556 C570 0.930 . S
H557 C572 0.960 . S
H558 C572 0.960 . S
H559 C572 0.960 . S
C560 H552 0.929 . S
C560 C561 1.377 . S
C560 C562 1.384 . S
C561 C560 1.377 . S
C561 C567 1.390 . S
C562 H553 0.930 . S
C562 C560 1.384 . S
C562 C563 1.372 . S
C563 C562 1.372 . S
C563 C564 1.400 . S
C563 C568 1.490 . S
C564 H554 0.930 . S
C564 C563 1.400 . S
C564 C567 1.386 . S
H565 C581 0.930 . S
H566 C582 0.931 . S
C567 H555 0.929 . S
C567 C561 1.390 . S
C567 C564 1.386 . S
C568 C563 1.490 . S
C568 C570 1.395 1_565 S
C568 C571 1.406 . S
H569 C575 0.930 . S
C570 H556 0.930 . S
C570 C568 1.395 1_545 S
C570 C573 1.403 . S
C571 C568 1.406 . S
C571 C572 1.546 . S
C571 C575 1.374 1_565 S
C572 H557 0.960 . S
C572 H558 0.960 . S
C572 H559 0.960 . S
C572 C571 1.546 . S
C573 C570 1.403 . S
C573 C574 1.392 . S
C573 C577 1.495 . S
C574 C573 1.392 . S
C574 C575 1.385 . S
C574 C576 1.478 . S
C575 H569 0.930 . S
C575 C571 1.374 1_545 S
C575 C574 1.385 . S
C576 C574 1.478 . S
C576 C578 1.381 . S
C576 C582 1.383 . S
C577 C573 1.495 . S
C577 H583 0.959 . S
C577 H584 0.961 . S
C577 H585 0.960 . S
C578 C576 1.381 . S
C578 C579 1.394 . S
C578 H586 0.930 . S
C579 C578 1.394 . S
C579 C580 1.383 . S
C579 H587 0.929 . S
C580 C579 1.383 . S
C580 C581 1.377 . S
C581 H565 0.930 . S
C581 C580 1.377 . S
C581 C582 1.379 . S
C582 H566 0.931 . S
C582 C576 1.383 . S
C582 C581 1.379 . S
H583 C577 0.959 . S
H584 C577 0.961 . S
H585 C577 0.960 . S
H586 C578 0.930 . S
H587 C579 0.929 . S
H588 C596 0.929 . S
H589 C598 0.930 . S
H590 C600 0.930 . S
H591 C603 0.929 . S
H592 C606 0.930 . S
H593 C608 0.960 . S
H594 C608 0.960 . S
H595 C608 0.960 . S
C596 H588 0.929 . S
C596 C597 1.377 . S
C596 C598 1.384 . S
C597 C596 1.377 . S
C597 C603 1.390 . S
C598 H589 0.930 . S
C598 C596 1.384 . S
C598 C599 1.372 . S
C599 C598 1.372 . S
C599 C600 1.400 . S
C599 C604 1.490 . S
C600 H590 0.930 . S
C600 C599 1.400 . S
C600 C603 1.386 . S
H601 C617 0.930 . S
H602 C618 0.931 . S
C603 H591 0.929 . S
C603 C597 1.390 . S
C603 C600 1.386 . S
C604 C599 1.490 . S
C604 C606 1.395 . S
C604 C607 1.403 . S
H605 C611 0.930 . S
C606 H592 0.930 . S
C606 C604 1.395 . S
C606 C609 1.403 . S
C607 C604 1.403 . S
C607 C608 1.524 . S
C607 C611 1.400 . S
C608 H593 0.960 . S
C608 H594 0.960 . S
C608 H595 0.960 . S
C608 C607 1.524 . S
C609 C606 1.403 . S
C609 C610 1.392 . S
C609 C613 1.495 . S
C610 C609 1.392 . S
C610 C611 1.385 . S
C610 C612 1.478 . S
C611 H605 0.930 . S
C611 C607 1.400 . S
C611 C610 1.385 . S
C612 C610 1.478 . S
C612 C614 1.381 . S
C612 C618 1.383 . S
C613 C609 1.495 . S
C613 H619 0.959 . S
C613 H620 0.961 . S
C613 H621 0.960 . S
C614 C612 1.381 . S
C614 C615 1.394 . S
C614 H622 0.930 . S
C615 C614 1.394 . S
C615 C616 1.383 . S
C615 H623 0.929 . S
C616 C615 1.383 . S
C616 C617 1.377 . S
C617 H601 0.930 . S
C617 C616 1.377 . S
C617 C618 1.379 . S
C618 H602 0.931 . S
C618 C612 1.383 . S
C618 C617 1.379 . S
H619 C613 0.959 . S
H620 C613 0.961 . S
H621 C613 0.960 . S
H622 C614 0.930 . S
H623 C615 0.929 . S
H624 C632 0.929 . S
H625 C634 0.930 . S
H626 C636 0.930 . S
H627 C639 0.929 . S
H628 C642 0.930 . S
H629 C644 0.960 . S
H630 C644 0.960 . S
H631 C644 0.960 . S
C632 H624 0.929 . S
C632 C633 1.377 . S
C632 C634 1.384 . S
C633 C632 1.377 . S
C633 C639 1.390 . S
C634 H625 0.930 . S
C634 C632 1.384 . S
C634 C635 1.372 . S
C635 C634 1.372 . S
C635 C636 1.400 . S
C635 C640 1.490 . S
C636 H626 0.930 . S
C636 C635 1.400 . S
C636 C639 1.386 . S
H637 C653 0.930 . S
H638 C654 0.931 . S
C639 H627 0.929 . S
C639 C633 1.390 . S
C639 C636 1.386 . S
C640 C635 1.490 . S
C640 C642 1.395 . S
C640 C643 1.403 1_545 S
H641 C647 0.930 . S
C642 H628 0.930 . S
C642 C640 1.395 . S
C642 C645 1.403 1_545 S
C643 C640 1.403 1_565 S
C643 C644 1.524 . S
C643 C647 1.400 . S
C644 H629 0.960 . S
C644 H630 0.960 . S
C644 H631 0.960 . S
C644 C643 1.524 . S
C645 C642 1.403 1_565 S
C645 C646 1.392 . S
C645 C649 1.495 . S
C646 C645 1.392 . S
C646 C647 1.385 . S
C646 C648 1.478 . S
C647 H641 0.930 . S
C647 C643 1.400 . S
C647 C646 1.385 . S
C648 C646 1.478 . S
C648 C650 1.381 . S
C648 C654 1.383 . S
C649 C645 1.495 . S
C649 H655 0.959 . S
C649 H656 0.961 . S
C649 H657 0.960 . S
C650 C648 1.381 . S
C650 C651 1.394 . S
C650 H658 0.930 . S
C651 C650 1.394 . S
C651 C652 1.383 . S
C651 H659 0.929 . S
C652 C651 1.383 . S
C652 C653 1.377 . S
C653 H637 0.930 . S
C653 C652 1.377 . S
C653 C654 1.379 . S
C654 H638 0.931 . S
C654 C648 1.383 . S
C654 C653 1.379 . S
H655 C649 0.959 . S
H656 C649 0.961 . S
H657 C649 0.960 . S
H658 C650 0.930 . S
H659 C651 0.929 . S
H660 C668 0.929 . S
H661 C670 0.930 . S
H662 C672 0.930 . S
H663 C675 0.929 . S
H664 C678 0.930 . S
H665 C680 0.960 . S
H666 C680 0.960 . S
H667 C680 0.960 . S
C668 H660 0.929 . S
C668 C669 1.377 . S
C668 C670 1.384 . S
C669 C668 1.377 . S
C669 C675 1.390 . S
C670 H661 0.930 . S
C670 C668 1.384 . S
C670 C671 1.372 . S
C671 C670 1.372 . S
C671 C672 1.400 . S
C671 C676 1.490 . S
C672 H662 0.930 . S
C672 C671 1.400 . S
C672 C675 1.386 . S
H673 C689 0.930 . S
H674 C690 0.931 . S
C675 H663 0.929 . S
C675 C669 1.390 . S
C675 C672 1.386 . S
C676 C671 1.490 . S
C676 C678 1.395 . S
C676 C679 1.403 . S
H677 C683 0.930 . S
C678 H664 0.930 . S
C678 C676 1.395 . S
C678 C681 1.403 . S
C679 C676 1.403 . S
C679 C680 1.524 . S
C679 C683 1.400 . S
C680 H665 0.960 . S
C680 H666 0.960 . S
C680 H667 0.960 . S
C680 C679 1.524 . S
C681 C678 1.403 . S
C681 C682 1.392 . S
C681 C685 1.495 . S
C682 C681 1.392 . S
C682 C683 1.385 . S
C682 C684 1.478 . S
C683 H677 0.930 . S
C683 C679 1.400 . S
C683 C682 1.385 . S
C684 C682 1.478 . S
C684 C686 1.381 . S
C684 C690 1.383 . S
C685 C681 1.495 . S
C685 H691 0.959 . S
C685 H692 0.961 . S
C685 H693 0.960 . S
C686 C684 1.381 . S
C686 C687 1.394 . S
C686 H694 0.930 . S
C687 C686 1.394 . S
C687 C688 1.383 . S
C687 H695 0.929 . S
C688 C687 1.383 . S
C688 C689 1.377 . S
C689 H673 0.930 . S
C689 C688 1.377 . S
C689 C690 1.379 . S
C690 H674 0.931 . S
C690 C684 1.383 . S
C690 C689 1.379 . S
H691 C685 0.959 . S
H692 C685 0.961 . S
H693 C685 0.960 . S
H694 C686 0.930 . S
H695 C687 0.929 . S
H696 C704 0.929 . S
H697 C706 0.930 . S
H698 C708 0.930 . S
H699 C711 0.929 . S
H700 C714 0.930 . S
H701 C716 0.960 . S
H702 C716 0.960 . S
H703 C716 0.960 . S
C704 H696 0.929 . S
C704 C705 1.377 . S
C704 C706 1.384 . S
C705 C704 1.377 . S
C705 C711 1.390 . S
C706 H697 0.930 . S
C706 C704 1.384 . S
C706 C707 1.372 . S
C707 C706 1.372 . S
C707 C708 1.400 . S
C707 C712 1.490 . S
C708 H698 0.930 . S
C708 C707 1.400 . S
C708 C711 1.386 . S
H709 C725 0.930 . S
H710 C726 0.931 . S
C711 H699 0.929 . S
C711 C705 1.390 . S
C711 C708 1.386 . S
C712 C707 1.490 . S
C712 C714 1.395 . S
C712 C715 1.403 . S
H713 C719 0.930 . S
C714 H700 0.930 . S
C714 C712 1.395 . S
C714 C717 1.403 . S
C715 C712 1.403 . S
C715 C716 1.524 . S
C715 C719 1.400 . S
C716 H701 0.960 . S
C716 H702 0.960 . S
C716 H703 0.960 . S
C716 C715 1.524 . S
C717 C714 1.403 . S
C717 C718 1.392 . S
C717 C721 1.495 . S
C718 C717 1.392 . S
C718 C719 1.385 . S
C718 C720 1.478 . S
C719 H713 0.930 . S
C719 C715 1.400 . S
C719 C718 1.385 . S
C720 C718 1.478 . S
C720 C722 1.381 . S
C720 C726 1.383 . S
C721 C717 1.495 . S
C721 H727 0.959 . S
C721 H728 0.961 . S
C721 H729 0.960 . S
C722 C720 1.381 . S
C722 C723 1.394 . S
C722 H730 0.930 . S
C723 C722 1.394 . S
C723 C724 1.383 . S
C723 H731 0.929 . S
C724 C723 1.383 . S
C724 C725 1.377 . S
C725 H709 0.930 . S
C725 C724 1.377 . S
C725 C726 1.379 . S
C726 H710 0.931 . S
C726 C720 1.383 . S
C726 C725 1.379 . S
H727 C721 0.959 . S
H728 C721 0.961 . S
H729 C721 0.960 . S
H730 C722 0.930 . S
H731 C723 0.929 . S
H732 C740 0.929 . S
H733 C742 0.930 . S
H734 C744 0.930 . S
H735 C747 0.929 . S
H736 C750 0.930 . S
H737 C752 0.960 . S
H738 C752 0.960 . S
H739 C752 0.960 . S
C740 H732 0.929 . S
C740 C741 1.377 . S
C740 C742 1.384 . S
C741 C740 1.377 . S
C741 C747 1.390 . S
C742 H733 0.930 . S
C742 C740 1.384 . S
C742 C743 1.372 . S
C743 C742 1.372 . S
C743 C744 1.400 . S
C743 C748 1.490 . S
C744 H734 0.930 . S
C744 C743 1.400 . S
C744 C747 1.386 . S
H745 C761 0.930 . S
H746 C762 0.931 . S
C747 H735 0.929 . S
C747 C741 1.390 . S
C747 C744 1.386 . S
C748 C743 1.490 . S
C748 C750 1.395 . S
C748 C751 1.403 . S
H749 C755 0.930 . S
C750 H736 0.930 . S
C750 C748 1.395 . S
C750 C753 1.403 . S
C751 C748 1.403 . S
C751 C752 1.524 . S
C751 C755 1.400 1_455 S
C752 H737 0.960 . S
C752 H738 0.960 . S
C752 H739 0.960 . S
C752 C751 1.524 . S
C753 C750 1.403 . S
C753 C754 1.392 1_455 S
C753 C757 1.495 . S
C754 C753 1.392 1_655 S
C754 C755 1.385 . S
C754 C756 1.478 . S
C755 H749 0.930 . S
C755 C751 1.400 1_655 S
C755 C754 1.385 . S
C756 C754 1.478 . S
C756 C758 1.381 . S
C756 C762 1.383 . S
C757 C753 1.495 . S
C757 H763 0.959 . S
C757 H764 0.961 . S
C757 H765 0.960 . S
C758 C756 1.381 . S
C758 C759 1.394 . S
C758 H766 0.930 . S
C759 C758 1.394 . S
C759 C760 1.383 . S
C759 H767 0.929 . S
C760 C759 1.383 . S
C760 C761 1.377 . S
C761 H745 0.930 . S
C761 C760 1.377 . S
C761 C762 1.379 . S
C762 H746 0.931 . S
C762 C756 1.383 . S
C762 C761 1.379 . S
H763 C757 0.959 . S
H764 C757 0.961 . S
H765 C757 0.960 . S
H766 C758 0.930 . S
H767 C759 0.929 . S
H768 C776 0.929 . S
H769 C778 0.930 . S
H770 C780 0.930 . S
H771 C783 0.929 . S
H772 C786 0.930 . S
H773 C788 0.960 . S
H774 C788 0.960 . S
H775 C788 0.960 . S
C776 H768 0.929 . S
C776 C777 1.377 . S
C776 C778 1.384 . S
C777 C776 1.377 . S
C777 C783 1.390 . S
C778 H769 0.930 . S
C778 C776 1.384 . S
C778 C779 1.372 . S
C779 C778 1.372 . S
C779 C780 1.400 . S
C779 C784 1.490 . S
C780 H770 0.930 . S
C780 C779 1.400 . S
C780 C783 1.386 . S
H781 C797 0.930 . S
H782 C798 0.931 . S
C783 H771 0.929 . S
C783 C777 1.390 . S
C783 C780 1.386 . S
C784 C779 1.490 . S
C784 C786 1.395 . S
C784 C787 1.403 . S
H785 C791 0.930 . S
C786 H772 0.930 . S
C786 C784 1.395 . S
C786 C789 1.403 . S
C787 C784 1.403 . S
C787 C788 1.524 . S
C787 C791 1.400 . S
C788 H773 0.960 . S
C788 H774 0.960 . S
C788 H775 0.960 . S
C788 C787 1.524 . S
C789 C786 1.403 . S
C789 C790 1.392 . S
C789 C793 1.495 . S
C790 C789 1.392 . S
C790 C791 1.385 . S
C790 C792 1.478 . S
C791 H785 0.930 . S
C791 C787 1.400 . S
C791 C790 1.385 . S
C792 C790 1.478 . S
C792 C794 1.381 . S
C792 C798 1.383 . S
C793 C789 1.495 . S
C793 H799 0.959 . S
C793 H800 0.961 . S
C793 H801 0.960 . S
C794 C792 1.381 . S
C794 C795 1.394 . S
C794 H802 0.930 . S
C795 C794 1.394 . S
C795 C796 1.383 . S
C795 H803 0.929 . S
C796 C795 1.383 . S
C796 C797 1.377 . S
C797 H781 0.930 . S
C797 C796 1.377 . S
C797 C798 1.379 . S
C798 H782 0.931 . S
C798 C792 1.383 . S
C798 C797 1.379 . S
H799 C793 0.959 . S
H800 C793 0.961 . S
H801 C793 0.960 . S
H802 C794 0.930 . S
H803 C795 0.929 . S
H804 C812 0.929 . S
H805 C814 0.930 . S
H806 C816 0.930 . S
H807 C819 0.929 . S
H808 C822 0.930 . S
H809 C824 0.960 . S
H810 C824 0.960 . S
H811 C824 0.960 . S
C812 H804 0.929 . S
C812 C813 1.377 . S
C812 C814 1.384 . S
C813 C812 1.377 . S
C813 C819 1.390 . S
C814 H805 0.930 . S
C814 C812 1.384 . S
C814 C815 1.372 . S
C815 C814 1.372 . S
C815 C816 1.400 . S
C815 C820 1.490 . S
C816 H806 0.930 . S
C816 C815 1.400 . S
C816 C819 1.386 . S
H817 C833 0.930 . S
H818 C834 0.931 . S
C819 H807 0.929 . S
C819 C813 1.390 . S
C819 C816 1.386 . S
C820 C815 1.490 . S
C820 C822 1.395 . S
C820 C823 1.403 . S
H821 C827 0.930 1_455 S
C822 H808 0.930 . S
C822 C820 1.395 . S
C822 C825 1.403 . S
C823 C820 1.403 . S
C823 C824 1.524 . S
C823 C827 1.400 . S
C824 H809 0.960 . S
C824 H810 0.960 . S
C824 H811 0.960 . S
C824 C823 1.524 . S
C825 C822 1.403 . S
C825 C826 1.392 1_655 S
C825 C829 1.495 . S
C826 C825 1.392 1_455 S
C826 C827 1.385 1_455 S
C826 C828 1.478 . S
C827 H821 0.930 1_655 S
C827 C823 1.400 . S
C827 C826 1.385 1_655 S
C828 C826 1.478 . S
C828 C830 1.381 . S
C828 C834 1.383 . S
C829 C825 1.495 . S
C829 H835 0.959 . S
C829 H836 0.961 . S
C829 H837 0.960 1_655 S
C830 C828 1.381 . S
C830 C831 1.394 . S
C830 H838 0.930 . S
C831 C830 1.394 . S
C831 C832 1.383 . S
C831 H839 0.929 . S
C832 C831 1.383 . S
C832 C833 1.377 . S
C833 H817 0.930 . S
C833 C832 1.377 . S
C833 C834 1.379 . S
C834 H818 0.931 . S
C834 C828 1.383 . S
C834 C833 1.379 . S
H835 C829 0.959 . S
H836 C829 0.961 . S
H837 C829 0.960 1_455 S
H838 C830 0.930 . S
H839 C831 0.929 . S
H840 C848 0.929 . S
H841 C850 0.930 . S
H842 C852 0.930 . S
H843 C855 0.929 . S
H844 C858 0.930 . S
H845 C860 0.960 . S
H846 C860 0.960 . S
H847 C860 0.960 . S
C848 H840 0.929 . S
C848 C849 1.377 . S
C848 C850 1.384 1_565 S
C849 C848 1.377 . S
C849 C855 1.390 1_565 S
C850 H841 0.930 . S
C850 C848 1.384 1_545 S
C850 C851 1.372 . S
C851 C850 1.372 . S
C851 C852 1.400 . S
C851 C856 1.490 . S
C852 H842 0.930 . S
C852 C851 1.400 . S
C852 C855 1.386 . S
H853 C869 0.930 . S
H854 C870 0.931 . S
C855 H843 0.929 . S
C855 C849 1.390 1_545 S
C855 C852 1.386 . S
C856 C851 1.490 . S
C856 C858 1.395 . S
C856 C859 1.403 . S
H857 C863 0.930 . S
C858 H844 0.930 . S
C858 C856 1.395 . S
C858 C861 1.403 . S
C859 C856 1.403 . S
C859 C860 1.524 . S
C859 C863 1.400 . S
C860 H845 0.960 . S
C860 H846 0.960 . S
C860 H847 0.960 . S
C860 C859 1.524 . S
C861 C858 1.403 . S
C861 C862 1.392 . S
C861 C865 1.495 . S
C862 C861 1.392 . S
C862 C863 1.385 . S
C862 C864 1.478 . S
C863 H857 0.930 . S
C863 C859 1.400 . S
C863 C862 1.385 . S
C864 C862 1.478 . S
C864 C866 1.381 . S
C864 C870 1.383 . S
C865 C861 1.495 . S
C865 H871 0.959 . S
C865 H872 0.961 . S
C865 H873 0.960 . S
C866 C864 1.381 . S
C866 C867 1.394 . S
C866 H874 0.930 . S
C867 C866 1.394 . S
C867 C868 1.383 1_655 S
C867 H875 0.929 . S
C868 C867 1.383 1_455 S
C868 C869 1.377 . S
C869 H853 0.930 . S
C869 C868 1.377 . S
C869 C870 1.379 1_455 S
C870 H854 0.931 . S
C870 C864 1.383 . S
C870 C869 1.379 1_655 S
H871 C865 0.959 . S
H872 C865 0.961 . S
H873 C865 0.960 . S
H874 C866 0.930 . S
H875 C867 0.929 . S
H876 C884 0.929 . S
H877 C886 0.930 . S
H878 C888 0.930 . S
H879 C891 0.929 . S
H880 C894 0.930 . S
H881 C896 0.960 . S
H882 C896 0.960 . S
H883 C896 0.960 . S
C884 H876 0.929 . S
C884 C885 1.377 . S
C884 C886 1.384 . S
C885 C884 1.377 . S
C885 C891 1.390 . S
C886 H877 0.930 . S
C886 C884 1.384 . S
C886 C887 1.372 . S
C887 C886 1.372 . S
C887 C888 1.400 . S
C887 C892 1.490 . S
C888 H878 0.930 . S
C888 C887 1.400 . S
C888 C891 1.386 . S
H889 C905 0.930 . S
H890 C906 0.931 . S
C891 H879 0.929 . S
C891 C885 1.390 . S
C891 C888 1.386 . S
C892 C887 1.490 . S
C892 C894 1.395 . S
C892 C895 1.403 . S
H893 C899 0.930 . S
C894 H880 0.930 . S
C894 C892 1.395 . S
C894 C897 1.403 . S
C895 C892 1.403 . S
C895 C896 1.524 . S
C895 C899 1.400 . S
C896 H881 0.960 . S
C896 H882 0.960 . S
C896 H883 0.960 . S
C896 C895 1.524 . S
C897 C894 1.403 . S
C897 C898 1.392 . S
C897 C901 1.495 . S
C898 C897 1.392 . S
C898 C899 1.385 . S
C898 C900 1.478 . S
C899 H893 0.930 . S
C899 C895 1.400 . S
C899 C898 1.385 . S
C900 C898 1.478 . S
C900 C902 1.381 . S
C900 C906 1.383 . S
C901 C897 1.495 . S
C901 H907 0.959 . S
C901 H908 0.961 . S
C901 H909 0.960 . S
C902 C900 1.381 . S
C902 C903 1.394 . S
C902 H910 0.930 . S
C903 C902 1.394 . S
C903 C904 1.383 . S
C903 H911 0.929 . S
C904 C903 1.383 . S
C904 C905 1.377 . S
C905 H889 0.930 . S
C905 C904 1.377 . S
C905 C906 1.379 . S
C906 H890 0.931 . S
C906 C900 1.383 . S
C906 C905 1.379 . S
H907 C901 0.959 . S
H908 C901 0.961 . S
H909 C901 0.960 . S
H910 C902 0.930 . S
H911 C903 0.929 . S
H912 C920 0.929 . S
H913 C922 0.930 . S
H914 C924 0.930 . S
H915 C927 0.929 . S
H916 C930 0.930 . S
H917 C932 0.960 . S
H918 C932 0.960 . S
H919 C932 0.960 1_655 S
C920 H912 0.929 . S
C920 C921 1.377 1_455 S
C920 C922 1.384 . S
C921 C920 1.377 1_655 S
C921 C927 1.390 . S
C922 H913 0.930 . S
C922 C920 1.384 . S
C922 C923 1.372 . S
C923 C922 1.372 . S
C923 C924 1.400 1_455 S
C923 C928 1.490 . S
C924 H914 0.930 . S
C924 C923 1.400 1_655 S
C924 C927 1.386 . S
H925 C941 0.930 . S
H926 C942 0.936 . S
C927 H915 0.929 . S
C927 C921 1.390 . S
C927 C924 1.386 . S
C928 C923 1.490 . S
C928 C930 1.395 . S
C928 C931 1.403 . S
H929 C935 0.930 . S
C930 H916 0.930 . S
C930 C928 1.395 . S
C930 C933 1.403 . S
C931 C928 1.403 . S
C931 C932 1.524 . S
C931 C935 1.400 . S
C932 H917 0.960 . S
C932 H918 0.960 . S
C932 H919 0.960 1_455 S
C932 C931 1.524 . S
C933 C930 1.403 . S
C933 C934 1.392 . S
C933 C937 1.495 . S
C934 C933 1.392 . S
C934 C935 1.385 . S
C934 C936 1.478 . S
C935 H929 0.930 . S
C935 C931 1.400 . S
C935 C934 1.385 . S
C936 C934 1.478 . S
C936 C938 1.381 . S
C936 C942 1.366 1_565 S
C937 C933 1.495 . S
C937 H943 0.959 . S
C937 H944 0.961 . S
C937 H945 0.960 . S
C938 C936 1.381 . S
C938 C939 1.394 . S
C938 H946 0.930 . S
C939 C938 1.394 . S
C939 C940 1.383 1_565 S
C939 H947 0.929 . S
C940 C939 1.383 1_545 S
C940 C941 1.377 . S
C941 H925 0.930 . S
C941 C940 1.377 . S
C941 C942 1.391 . S
C942 H926 0.936 . S
C942 C936 1.366 1_545 S
C942 C941 1.391 . S
H943 C937 0.959 . S
H944 C937 0.961 . S
H945 C937 0.960 . S
H946 C938 0.930 . S
H947 C939 0.929 . S
H948 C956 0.929 . S
H949 C958 0.930 . S
H950 C960 0.930 . S
H951 C963 0.929 . S
H952 C966 0.930 . S
H953 C968 0.960 . S
H954 C968 0.960 . S
H955 C968 0.960 . S
C956 H948 0.929 . S
C956 C957 1.377 . S
C956 C958 1.384 . S
C957 C956 1.377 . S
C957 C963 1.390 . S
C958 H949 0.930 . S
C958 C956 1.384 . S
C958 C959 1.372 . S
C959 C958 1.372 . S
C959 C960 1.400 . S
C959 C964 1.490 . S
C960 H950 0.930 . S
C960 C959 1.400 . S
C960 C963 1.386 . S
H961 C977 0.930 . S
H962 C978 0.931 . S
C963 H951 0.929 . S
C963 C957 1.390 . S
C963 C960 1.386 . S
C964 C959 1.490 . S
C964 C966 1.395 1_556 S
C964 C967 1.403 . S
H965 C971 0.934 . S
C966 H952 0.930 . S
C966 C964 1.395 1_554 S
C966 C969 1.403 . S
C967 C964 1.403 . S
C967 C968 1.524 . S
C967 C971 1.418 . S
C968 H953 0.960 . S
C968 H954 0.960 . S
C968 H955 0.960 . S
C968 C967 1.524 . S
C969 C966 1.403 . S
C969 C970 1.392 . S
C969 C973 1.495 . S
C970 C969 1.392 . S
C970 C971 1.364 1_554 S
C970 C972 1.478 . S
C971 H965 0.934 . S
C971 C967 1.418 . S
C971 C970 1.364 1_556 S
C972 C970 1.478 . S
C972 C974 1.381 . S
C972 C978 1.383 . S
C973 C969 1.495 . S
C973 H979 0.959 . S
C973 H980 0.961 . S
C973 H981 0.960 . S
C974 C972 1.381 . S
C974 C975 1.394 . S
C974 H982 0.930 . S
C975 C974 1.394 . S
C975 C976 1.383 . S
C975 H983 0.929 . S
C976 C975 1.383 . S
C976 C977 1.377 . S
C977 H961 0.930 . S
C977 C976 1.377 . S
C977 C978 1.379 . S
C978 H962 0.931 . S
C978 C972 1.383 . S
C978 C977 1.379 . S
H979 C973 0.959 . S
H980 C973 0.961 . S
H981 C973 0.960 . S
H982 C974 0.930 . S
H983 C975 0.929 . S
C273 C28 1.044 . S
C292 C50 1.023 . S
C309 C83 1.043 1_455 S
C328 C61 1.054 . S
C345 C116 1.041 . S
C364 C94 1.038 . S
C381 C127 1.048 . S
C400 C17 1.058 1_655 S
C417 C160 1.043 . S
C436 C248 1.018 1_545 S
C453 C193 1.048 . S
C472 C149 1.056 . S
C489 C226 1.048 . S
C508 C182 1.049 1_565 S
C525 C259 1.048 . S
C544 C215 1.055 . S
C561 N203 1.793 . S
C580 C8 1.793 . S
C597 N236 1.792 . S
C616 C41 1.787 . S
C633 N137 1.793 . S
C652 C74 1.780 . S
C669 N170 1.794 . S
C688 C107 1.792 . S
C705 C140 1.792 . S
C724 N71 1.784 . S
C741 C173 1.790 . S
C760 N104 1.792 . S
C777 C206 1.793 . S
C796 N5 1.788 . S
C813 C239 1.790 . S
C832 N38 1.787 . S
C849 N245 1.464 . S
C868 N14 1.444 . S
C885 N146 1.465 . S
C904 N47 1.488 . S
C921 N80 1.456 . S
C940 N179 1.441 . S
C957 N113 1.466 . S
C976 N212 1.450 . S
