# Generated by pormake.
# Topology unr, (4)-cn, num edge types: 1
# Building blocks:
#     Node 0, Type 0, BuildingBlock: QUQFOY_clean_sbu_1, # of connection points: 4
#     Node 1, Type 0, BuildingBlock: QUQFOY_clean_sbu_1, # of connection points: 4
#     Node 2, Type 0, BuildingBlock: QUQFOY_clean_sbu_1, # of connection points: 4
#     Node 3, Type 0, BuildingBlock: QUQFOY_clean_sbu_1, # of connection points: 4
#     Node 4, Type 0, BuildingBlock: QUQFOY_clean_sbu_1, # of connection points: 4
#     Node 5, Type 0, BuildingBlock: QUQFOY_clean_sbu_1, # of connection points: 4
#     Node 6, Type 0, BuildingBlock: QUQFOY_clean_sbu_1, # of connection points: 4
#     Node 7, Type 0, BuildingBlock: QUQFOY_clean_sbu_1, # of connection points: 4
#     Node 8, Type 0, BuildingBlock: QUQFOY_clean_sbu_1, # of connection points: 4
#     Node 9, Type 0, BuildingBlock: QUQFOY_clean_sbu_1, # of connection points: 4
#     Node 10, Type 0, BuildingBlock: QUQFOY_clean_sbu_1, # of connection points: 4
#     Node 11, Type 0, BuildingBlock: QUQFOY_clean_sbu_1, # of connection points: 4
#     Node 12, Type 0, BuildingBlock: QUQFOY_clean_sbu_1, # of connection points: 4
#     Node 13, Type 0, BuildingBlock: QUQFOY_clean_sbu_1, # of connection points: 4
#     Node 14, Type 0, BuildingBlock: QUQFOY_clean_sbu_1, # of connection points: 4
#     Node 15, Type 0, BuildingBlock: QUQFOY_clean_sbu_1, # of connection points: 4
#     Node 16, Type 0, BuildingBlock: QUQFOY_clean_sbu_1, # of connection points: 4
#     Node 17, Type 0, BuildingBlock: QUQFOY_clean_sbu_1, # of connection points: 4
#     Node 18, Type 0, BuildingBlock: QUQFOY_clean_sbu_1, # of connection points: 4
#     Node 19, Type 0, BuildingBlock: QUQFOY_clean_sbu_1, # of connection points: 4
#     Node 20, Type 0, BuildingBlock: QUQFOY_clean_sbu_1, # of connection points: 4
#     Node 21, Type 0, BuildingBlock: QUQFOY_clean_sbu_1, # of connection points: 4
#     Node 22, Type 0, BuildingBlock: QUQFOY_clean_sbu_1, # of connection points: 4
#     Node 23, Type 0, BuildingBlock: QUQFOY_clean_sbu_1, # of connection points: 4
#     Node 24, Type 0, BuildingBlock: QUQFOY_clean_sbu_1, # of connection points: 4
#     Node 25, Type 0, BuildingBlock: QUQFOY_clean_sbu_1, # of connection points: 4
#     Node 26, Type 0, BuildingBlock: QUQFOY_clean_sbu_1, # of connection points: 4
#     Node 27, Type 0, BuildingBlock: QUQFOY_clean_sbu_1, # of connection points: 4
#     Node 28, Type 0, BuildingBlock: QUQFOY_clean_sbu_1, # of connection points: 4
#     Node 29, Type 0, BuildingBlock: QUQFOY_clean_sbu_1, # of connection points: 4
#     Node 30, Type 0, BuildingBlock: QUQFOY_clean_sbu_1, # of connection points: 4
#     Node 31, Type 0, BuildingBlock: QUQFOY_clean_sbu_1, # of connection points: 4
#     Node 32, Type 0, BuildingBlock: QUQFOY_clean_sbu_1, # of connection points: 4
#     Node 33, Type 0, BuildingBlock: QUQFOY_clean_sbu_1, # of connection points: 4
#     Node 34, Type 0, BuildingBlock: QUQFOY_clean_sbu_1, # of connection points: 4
#     Node 35, Type 0, BuildingBlock: QUQFOY_clean_sbu_1, # of connection points: 4
#     Edge 36, Type (0, 0), BuildingBlock: XIVTED_clean_linker_0, # of connection points: 2
#     Edge 37, Type (0, 0), BuildingBlock: XIVTED_clean_linker_0, # of connection points: 2
#     Edge 38, Type (0, 0), BuildingBlock: XIVTED_clean_linker_0, # of connection points: 2
#     Edge 39, Type (0, 0), BuildingBlock: XIVTED_clean_linker_0, # of connection points: 2
#     Edge 40, Type (0, 0), BuildingBlock: XIVTED_clean_linker_0, # of connection points: 2
#     Edge 41, Type (0, 0), BuildingBlock: XIVTED_clean_linker_0, # of connection points: 2
#     Edge 42, Type (0, 0), BuildingBlock: XIVTED_clean_linker_0, # of connection points: 2
#     Edge 43, Type (0, 0), BuildingBlock: XIVTED_clean_linker_0, # of connection points: 2
#     Edge 44, Type (0, 0), BuildingBlock: XIVTED_clean_linker_0, # of connection points: 2
#     Edge 45, Type (0, 0), BuildingBlock: XIVTED_clean_linker_0, # of connection points: 2
#     Edge 46, Type (0, 0), BuildingBlock: XIVTED_clean_linker_0, # of connection points: 2
#     Edge 47, Type (0, 0), BuildingBlock: XIVTED_clean_linker_0, # of connection points: 2
#     Edge 48, Type (0, 0), BuildingBlock: XIVTED_clean_linker_0, # of connection points: 2
#     Edge 49, Type (0, 0), BuildingBlock: XIVTED_clean_linker_0, # of connection points: 2
#     Edge 50, Type (0, 0), BuildingBlock: XIVTED_clean_linker_0, # of connection points: 2
#     Edge 51, Type (0, 0), BuildingBlock: XIVTED_clean_linker_0, # of connection points: 2
#     Edge 52, Type (0, 0), BuildingBlock: XIVTED_clean_linker_0, # of connection points: 2
#     Edge 53, Type (0, 0), BuildingBlock: XIVTED_clean_linker_0, # of connection points: 2
#     Edge 54, Type (0, 0), BuildingBlock: XIVTED_clean_linker_0, # of connection points: 2
#     Edge 55, Type (0, 0), BuildingBlock: XIVTED_clean_linker_0, # of connection points: 2
#     Edge 56, Type (0, 0), BuildingBlock: XIVTED_clean_linker_0, # of connection points: 2
#     Edge 57, Type (0, 0), BuildingBlock: XIVTED_clean_linker_0, # of connection points: 2
#     Edge 58, Type (0, 0), BuildingBlock: XIVTED_clean_linker_0, # of connection points: 2
#     Edge 59, Type (0, 0), BuildingBlock: XIVTED_clean_linker_0, # of connection points: 2
#     Edge 60, Type (0, 0), BuildingBlock: XIVTED_clean_linker_0, # of connection points: 2
#     Edge 61, Type (0, 0), BuildingBlock: XIVTED_clean_linker_0, # of connection points: 2
#     Edge 62, Type (0, 0), BuildingBlock: XIVTED_clean_linker_0, # of connection points: 2
#     Edge 63, Type (0, 0), BuildingBlock: XIVTED_clean_linker_0, # of connection points: 2
#     Edge 64, Type (0, 0), BuildingBlock: XIVTED_clean_linker_0, # of connection points: 2
#     Edge 65, Type (0, 0), BuildingBlock: XIVTED_clean_linker_0, # of connection points: 2
#     Edge 66, Type (0, 0), BuildingBlock: XIVTED_clean_linker_0, # of connection points: 2
#     Edge 67, Type (0, 0), BuildingBlock: XIVTED_clean_linker_0, # of connection points: 2
#     Edge 68, Type (0, 0), BuildingBlock: XIVTED_clean_linker_0, # of connection points: 2
#     Edge 69, Type (0, 0), BuildingBlock: XIVTED_clean_linker_0, # of connection points: 2
#     Edge 70, Type (0, 0), BuildingBlock: XIVTED_clean_linker_0, # of connection points: 2
#     Edge 71, Type (0, 0), BuildingBlock: XIVTED_clean_linker_0, # of connection points: 2
#     Edge 72, Type (0, 0), BuildingBlock: XIVTED_clean_linker_0, # of connection points: 2
#     Edge 73, Type (0, 0), BuildingBlock: XIVTED_clean_linker_0, # of connection points: 2
#     Edge 74, Type (0, 0), BuildingBlock: XIVTED_clean_linker_0, # of connection points: 2
#     Edge 75, Type (0, 0), BuildingBlock: XIVTED_clean_linker_0, # of connection points: 2
#     Edge 76, Type (0, 0), BuildingBlock: XIVTED_clean_linker_0, # of connection points: 2
#     Edge 77, Type (0, 0), BuildingBlock: XIVTED_clean_linker_0, # of connection points: 2
#     Edge 78, Type (0, 0), BuildingBlock: XIVTED_clean_linker_0, # of connection points: 2
#     Edge 79, Type (0, 0), BuildingBlock: XIVTED_clean_linker_0, # of connection points: 2
#     Edge 80, Type (0, 0), BuildingBlock: XIVTED_clean_linker_0, # of connection points: 2
#     Edge 81, Type (0, 0), BuildingBlock: XIVTED_clean_linker_0, # of connection points: 2
#     Edge 82, Type (0, 0), BuildingBlock: XIVTED_clean_linker_0, # of connection points: 2
#     Edge 83, Type (0, 0), BuildingBlock: XIVTED_clean_linker_0, # of connection points: 2
#     Edge 84, Type (0, 0), BuildingBlock: XIVTED_clean_linker_0, # of connection points: 2
#     Edge 85, Type (0, 0), BuildingBlock: XIVTED_clean_linker_0, # of connection points: 2
#     Edge 86, Type (0, 0), BuildingBlock: XIVTED_clean_linker_0, # of connection points: 2
#     Edge 87, Type (0, 0), BuildingBlock: XIVTED_clean_linker_0, # of connection points: 2
#     Edge 88, Type (0, 0), BuildingBlock: XIVTED_clean_linker_0, # of connection points: 2
#     Edge 89, Type (0, 0), BuildingBlock: XIVTED_clean_linker_0, # of connection points: 2
#     Edge 90, Type (0, 0), BuildingBlock: XIVTED_clean_linker_0, # of connection points: 2
#     Edge 91, Type (0, 0), BuildingBlock: XIVTED_clean_linker_0, # of connection points: 2
#     Edge 92, Type (0, 0), BuildingBlock: XIVTED_clean_linker_0, # of connection points: 2
#     Edge 93, Type (0, 0), BuildingBlock: XIVTED_clean_linker_0, # of connection points: 2
#     Edge 94, Type (0, 0), BuildingBlock: XIVTED_clean_linker_0, # of connection points: 2
#     Edge 95, Type (0, 0), BuildingBlock: XIVTED_clean_linker_0, # of connection points: 2
#     Edge 96, Type (0, 0), BuildingBlock: XIVTED_clean_linker_0, # of connection points: 2
#     Edge 97, Type (0, 0), BuildingBlock: XIVTED_clean_linker_0, # of connection points: 2
#     Edge 98, Type (0, 0), BuildingBlock: XIVTED_clean_linker_0, # of connection points: 2
#     Edge 99, Type (0, 0), BuildingBlock: XIVTED_clean_linker_0, # of connection points: 2
#     Edge 100, Type (0, 0), BuildingBlock: XIVTED_clean_linker_0, # of connection points: 2
#     Edge 101, Type (0, 0), BuildingBlock: XIVTED_clean_linker_0, # of connection points: 2
#     Edge 102, Type (0, 0), BuildingBlock: XIVTED_clean_linker_0, # of connection points: 2
#     Edge 103, Type (0, 0), BuildingBlock: XIVTED_clean_linker_0, # of connection points: 2
#     Edge 104, Type (0, 0), BuildingBlock: XIVTED_clean_linker_0, # of connection points: 2
#     Edge 105, Type (0, 0), BuildingBlock: XIVTED_clean_linker_0, # of connection points: 2
#     Edge 106, Type (0, 0), BuildingBlock: XIVTED_clean_linker_0, # of connection points: 2
#     Edge 107, Type (0, 0), BuildingBlock: XIVTED_clean_linker_0, # of connection points: 2
# Relax obj value: 0.304
# Max RMSD: 0.107
# Mean RMSD: 0.107
data_MOF--net-unr--node1-QUQFOY_clean_sbu_1--edge1-XIVTED_clean_linker_0
_symmetry_space_group_name_H-M    P1
_symmetry_Int_Tables_number       1
_symmetry_cell_setting            triclinic
loop_
_symmetry_equiv_pos_as_xyz
'x, y, z'
_cell_length_a     49.411217
_cell_length_b     49.398127
_cell_length_c     135.37527
_cell_angle_alpha  89.999257
_cell_angle_beta   90.007302
_cell_angle_gamma 120.00221
loop_
_atom_site_label
_atom_site_type_symbol
_atom_site_fract_x
_atom_site_fract_y
_atom_site_fract_z
_atom_type_partial_charge
O0 O 0.15732 0.09481 0.17741 0.0
Cd1 Cd 0.17954 0.14243 0.17783 0.0
Cd2 Cd 0.16763 0.13302 0.19787 0.0
O3 O 0.16475 0.09141 0.1933 0.0
O4 O 0.21207 0.15716 0.16755 0.0
O5 O 0.22195 0.1619 0.1837 0.0
C6 C 0.23179 0.16403 0.17471 0.0
C7 C 0.1716 0.14136 0.21506 0.0
C8 C 0.1574 0.07897 0.18477 0.0
C9 C 0.1342 0.15832 0.18442 0.0
O10 O 0.13672 0.14602 0.19235 0.0
O11 O 0.15206 0.16246 0.17715 0.0
O12 O 0.14745 0.11871 0.21097 0.0
O13 O 0.19485 0.15907 0.20942 0.0
O14 O 0.89754 0.05905 0.17733 0.0
Cd15 Cd 0.84993 0.03383 0.17722 0.0
Cd16 Cd 0.8573 0.02953 0.19754 0.0
O17 O 0.89906 0.06864 0.19327 0.0
O18 O 0.83644 0.05223 0.16675 0.0
O19 O 0.82983 0.05652 0.18282 0.0
C20 C 0.82869 0.06466 0.17381 0.0
C21 C 0.84977 0.02449 0.21477 0.0
C22 C 0.91247 0.07441 0.18489 0.0
C23 C 0.83272 0.97186 0.18354 0.0
O24 O 0.84395 0.98587 0.19168 0.0
O25 O 0.82989 0.98639 0.17626 0.0
O26 O 0.87191 0.02266 0.21046 0.0
O27 O 0.83187 0.03035 0.20934 0.0
O28 O 0.93345 0.83521 0.17586 0.0
Cd29 Cd 0.95879 0.81294 0.17608 0.0
Cd30 Cd 0.96114 0.82369 0.19639 0.0
O31 O 0.92269 0.82695 0.19174 0.0
O32 O 0.94099 0.78048 0.16576 0.0
O33 O 0.93594 0.77048 0.18191 0.0
C34 C 0.92823 0.76068 0.17291 0.0
C35 C 0.9645 0.82003 0.21365 0.0
C36 C 0.91758 0.83475 0.18328 0.0
C37 C 0.02016 0.85731 0.183 0.0
O38 O 0.00537 0.85414 0.191 0.0
O39 O 0.00631 0.84041 0.17556 0.0
O40 O 0.96666 0.84426 0.20942 0.0
O41 O 0.9592 0.79663 0.20811 0.0
O42 O 0.09582 0.15777 0.32416 0.0
Cd43 Cd 0.1434 0.17916 0.32367 0.0
Cd44 Cd 0.13383 0.16851 0.30356 0.0
O45 O 0.09292 0.16666 0.30836 0.0
O46 O 0.15922 0.21185 0.33393 0.0
O47 O 0.1634 0.22152 0.31776 0.0
C48 C 0.16616 0.23155 0.32675 0.0
C49 C 0.14113 0.17292 0.28633 0.0
C50 C 0.08032 0.15886 0.31685 0.0
C51 C 0.15804 0.13329 0.31662 0.0
O52 O 0.14593 0.13658 0.30875 0.0
O53 O 0.16255 0.15085 0.324 0.0
O54 O 0.11833 0.14897 0.29043 0.0
O55 O 0.15982 0.19566 0.29199 0.0
O56 O 0.83528 0.93578 0.32426 0.0
Cd57 Cd 0.81342 0.96151 0.32409 0.0
Cd58 Cd 0.82467 0.9647 0.30389 0.0
O59 O 0.82747 0.92582 0.30833 0.0
O60 O 0.7809 0.94356 0.33437 0.0
O61 O 0.77099 0.93918 0.31823 0.0
C62 C 0.76112 0.93118 0.3272 0.0
C63 C 0.82072 0.96853 0.28666 0.0
C64 C 0.83489 0.92018 0.31677 0.0
C65 C 0.85848 0.02307 0.31752 0.0
O66 O 0.85546 0.00865 0.30945 0.0
O67 O 0.84122 0.00894 0.32486 0.0
O68 O 0.84499 0.9705 0.29081 0.0
O69 O 0.79749 0.96324 0.29228 0.0
O70 O 0.05645 0.89599 0.32277 0.0
Cd71 Cd 0.03077 0.84839 0.32284 0.0
Cd72 Cd 0.02711 0.85597 0.30257 0.0
O73 O 0.06635 0.89761 0.30685 0.0
O74 O 0.04871 0.83455 0.33336 0.0
O75 O 0.05312 0.82788 0.31729 0.0
C76 C 0.06109 0.82663 0.32633 0.0
C77 C 0.02227 0.84776 0.28537 0.0
C78 C 0.07204 0.91094 0.31524 0.0
C79 C 0.96922 0.83208 0.3164 0.0
O80 O 0.9835 0.84334 0.3083 0.0
O81 O 0.98339 0.82882 0.32371 0.0
O82 O 0.02078 0.8703 0.28953 0.0
O83 O 0.02776 0.82987 0.29094 0.0
O84 O 0.83506 0.89773 0.82413 0.0
Cd85 Cd 0.81277 0.85013 0.82391 0.0
Cd86 Cd 0.82457 0.8586 0.80368 0.0
O87 O 0.82695 0.90004 0.80823 0.0
O88 O 0.78025 0.83576 0.83419 0.0
O89 O 0.77033 0.83038 0.81805 0.0
C90 C 0.76049 0.82854 0.82702 0.0
C91 C 0.82127 0.85128 0.78643 0.0
C92 C 0.83449 0.91301 0.81668 0.0
C93 C 0.85763 0.83336 0.8174 0.0
O94 O 0.85501 0.8451 0.80935 0.0
O95 O 0.84015 0.83007 0.82469 0.0
O96 O 0.8454 0.87348 0.79067 0.0
O97 O 0.79782 0.83322 0.79196 0.0
O98 O 0.09448 0.93469 0.82413 0.0
Cd99 Cd 0.14205 0.96094 0.82348 0.0
Cd100 Cd 0.13235 0.96029 0.80351 0.0
O101 O 0.09162 0.9214 0.80848 0.0
O102 O 0.15845 0.94448 0.83369 0.0
O103 O 0.1618 0.93846 0.81751 0.0
C104 C 0.165 0.93146 0.82649 0.0
C105 C 0.14019 0.96143 0.78634 0.0
C106 C 0.079 0.91734 0.81695 0.0
C107 C 0.15601 0.02071 0.81594 0.0
O108 O 0.14366 0.00459 0.80821 0.0
O109 O 0.16109 0.00841 0.82342 0.0
O110 O 0.11699 0.96252 0.79017 0.0
O111 O 0.15905 0.95857 0.79227 0.0
O112 O 0.05635 0.15846 0.8225 0.0
Cd113 Cd 0.03081 0.1805 0.82305 0.0
Cd114 Cd 0.02484 0.16836 0.80273 0.0
O115 O 0.06418 0.16544 0.80645 0.0
O116 O 0.04966 0.21194 0.83363 0.0
O117 O 0.05287 0.2236 0.81764 0.0
C118 C 0.06151 0.23249 0.82666 0.0
C119 C 0.01728 0.17053 0.78562 0.0
C120 C 0.07081 0.15829 0.81478 0.0
C121 C 0.96852 0.13518 0.81724 0.0
O122 O 0.98194 0.138 0.80899 0.0
O123 O 0.98351 0.15274 0.82444 0.0
O124 O 0.01609 0.14665 0.7898 0.0
O125 O 0.0243 0.19453 0.7911 0.0
O126 O 0.89657 0.83711 0.67669 0.0
Cd127 Cd 0.84898 0.81419 0.67698 0.0
Cd128 Cd 0.8577 0.82785 0.69716 0.0
O129 O 0.89978 0.8315 0.69272 0.0
O130 O 0.83511 0.78137 0.66681 0.0
O131 O 0.82981 0.77194 0.68298 0.0
C132 C 0.82815 0.76187 0.67404 0.0
C133 C 0.85059 0.82568 0.71442 0.0
C134 C 0.91238 0.83812 0.6842 0.0
C135 C 0.8309 0.85856 0.68305 0.0
O136 O 0.84277 0.85675 0.69118 0.0
O137 O 0.82822 0.84089 0.67587 0.0
O138 O 0.87217 0.84987 0.71002 0.0
O139 O 0.83308 0.80155 0.70906 0.0
O140 O 0.15751 0.0603 0.67809 0.0
Cd141 Cd 0.17965 0.03485 0.67771 0.0
Cd142 Cd 0.16799 0.02978 0.69804 0.0
O143 O 0.16416 0.06849 0.69413 0.0
O144 O 0.21116 0.05349 0.66715 0.0
O145 O 0.22266 0.05715 0.68317 0.0
C146 C 0.23162 0.06561 0.67414 0.0
C147 C 0.1709 0.02323 0.71517 0.0
C148 C 0.15701 0.0748 0.68575 0.0
C149 C 0.13478 0.97269 0.68382 0.0
O150 O 0.13779 0.98642 0.69203 0.0
O151 O 0.15196 0.98746 0.67653 0.0
O152 O 0.14676 0.02156 0.71103 0.0
O153 O 0.19475 0.03017 0.70964 0.0
O154 O 0.93111 0.09491 0.6764 0.0
Cd155 Cd 0.9571 0.14247 0.67725 0.0
Cd156 Cd 0.95584 0.13214 0.69722 0.0
O157 O 0.91738 0.09142 0.69202 0.0
O158 O 0.9409 0.15924 0.66708 0.0
O159 O 0.93414 0.16165 0.68326 0.0
C160 C 0.9275 0.1653 0.67428 0.0
C161 C 0.95613 0.13952 0.71439 0.0
C162 C 0.91361 0.07912 0.6835 0.0
C163 C 0.0168 0.1569 0.68503 0.0
O164 O 0.00052 0.14426 0.69271 0.0
O165 O 0.00457 0.16182 0.6775 0.0
O166 O 0.95764 0.11655 0.71057 0.0
O167 O 0.95328 0.15838 0.70846 0.0
O168 O 0.82467 0.42841 0.51094 0.0
Cd169 Cd 0.84632 0.47603 0.51121 0.0
Cd170 Cd 0.83574 0.46727 0.5313 0.0
O171 O 0.83304 0.42571 0.52679 0.0
O172 O 0.87857 0.49103 0.50084 0.0
O173 O 0.88891 0.49624 0.51696 0.0
C174 C 0.89855 0.49838 0.50794 0.0
C175 C 0.8406 0.47598 0.54847 0.0
C176 C 0.82531 0.41293 0.51832 0.0
C177 C 0.80076 0.49131 0.51807 0.0
O178 O 0.804 0.47945 0.526 0.0
O179 O 0.81826 0.49544 0.5107 0.0
O180 O 0.81639 0.45308 0.54451 0.0
O181 O 0.86343 0.49383 0.54271 0.0
O182 O 0.56369 0.39222 0.51088 0.0
Cd183 Cd 0.51611 0.36707 0.51043 0.0
Cd184 Cd 0.52229 0.36194 0.5308 0.0
O185 O 0.56463 0.40091 0.52687 0.0
O186 O 0.50347 0.38591 0.49985 0.0
O187 O 0.49567 0.38965 0.51587 0.0
C188 C 0.49523 0.39813 0.50685 0.0
C189 C 0.51315 0.35553 0.54796 0.0
C190 C 0.57838 0.40704 0.51854 0.0
C191 C 0.49836 0.30484 0.51656 0.0
O192 O 0.50905 0.31855 0.52478 0.0
O193 O 0.49611 0.31967 0.50926 0.0
O194 O 0.53553 0.3538 0.54377 0.0
O195 O 0.49611 0.36238 0.54245 0.0
O196 O 0.6005 0.16904 0.51004 0.0
Cd197 Cd 0.62576 0.1467 0.51051 0.0
Cd198 Cd 0.62776 0.1581 0.53067 0.0
O199 O 0.58945 0.16145 0.52591 0.0
O200 O 0.60823 0.11419 0.50021 0.0
O201 O 0.60261 0.10424 0.51635 0.0
C202 C 0.59519 0.09442 0.50734 0.0
C203 C 0.63091 0.15381 0.54791 0.0
C204 C 0.58453 0.16895 0.51738 0.0
C205 C 0.68701 0.1914 0.51742 0.0
O206 O 0.67208 0.18863 0.52535 0.0
O207 O 0.67329 0.17409 0.51004 0.0
O208 O 0.63309 0.1782 0.54377 0.0
O209 O 0.62556 0.13059 0.54228 0.0
O210 O 0.76216 0.49197 0.65706 0.0
Cd211 Cd 0.80976 0.51344 0.65723 0.0
Cd212 Cd 0.80277 0.50373 0.63697 0.0
O213 O 0.76148 0.50198 0.64124 0.0
O214 O 0.82416 0.54561 0.66763 0.0
O215 O 0.83064 0.55608 0.65152 0.0
C216 C 0.83219 0.56568 0.66052 0.0
C217 C 0.81087 0.50777 0.61976 0.0
C218 C 0.7477 0.49361 0.64955 0.0
C219 C 0.82526 0.4679 0.6505 0.0
O220 O 0.81426 0.47162 0.64245 0.0
O221 O 0.82884 0.48513 0.6579 0.0
O222 O 0.78797 0.48388 0.62385 0.0
O223 O 0.82935 0.53061 0.62542 0.0
O224 O 0.50097 0.26901 0.65736 0.0
Cd225 Cd 0.47951 0.29511 0.65667 0.0
Cd226 Cd 0.49019 0.29588 0.63673 0.0
O227 O 0.49201 0.25687 0.6416 0.0
O228 O 0.44665 0.27834 0.66686 0.0
O229 O 0.43727 0.27258 0.65068 0.0
C230 C 0.42709 0.26541 0.65966 0.0
C231 C 0.48427 0.29754 0.61953 0.0
C232 C 0.49982 0.25222 0.65012 0.0
C233 C 0.52557 0.35553 0.64959 0.0
O234 O 0.52253 0.34006 0.64176 0.0
O235 O 0.50771 0.34257 0.65692 0.0
O236 O 0.50858 0.29897 0.62346 0.0
O237 O 0.46216 0.29419 0.62536 0.0
O238 O 0.72201 0.23021 0.65718 0.0
Cd239 Cd 0.69667 0.1826 0.65728 0.0
Cd240 Cd 0.69273 0.19003 0.63693 0.0
O241 O 0.7319 0.23167 0.64127 0.0
O242 O 0.71483 0.16896 0.66779 0.0
O243 O 0.71939 0.16248 0.65172 0.0
C244 C 0.72737 0.16126 0.66075 0.0
C245 C 0.688 0.18261 0.61969 0.0
C246 C 0.73757 0.24509 0.64965 0.0
C247 C 0.63487 0.16553 0.65084 0.0
O248 O 0.64903 0.17678 0.64272 0.0
O249 O 0.64926 0.16265 0.65815 0.0
O250 O 0.68628 0.20484 0.62399 0.0
O251 O 0.69355 0.16454 0.62515 0.0
O252 O 0.50059 0.23068 0.15793 0.0
Cd253 Cd 0.47954 0.18314 0.15707 0.0
Cd254 Cd 0.48724 0.19308 0.13718 0.0
O255 O 0.48915 0.23361 0.1424 0.0
O256 O 0.44668 0.16596 0.16727 0.0
O257 O 0.43735 0.16353 0.1511 0.0
C258 C 0.42713 0.15976 0.16009 0.0
C259 C 0.47793 0.18481 0.12012 0.0
C260 C 0.49812 0.24615 0.15086 0.0
C261 C 0.52516 0.16968 0.14899 0.0
O262 O 0.52094 0.18213 0.14137 0.0
O263 O 0.50817 0.16438 0.15658 0.0
O264 O 0.50268 0.20825 0.12364 0.0
O265 O 0.45732 0.16583 0.12631 0.0
O266 O 0.76273 0.26877 0.15632 0.0
Cd267 Cd 0.81028 0.29488 0.15687 0.0
Cd268 Cd 0.80404 0.30026 0.13648 0.0
O269 O 0.76182 0.26102 0.14026 0.0
O270 O 0.8233 0.27653 0.16749 0.0
O271 O 0.83178 0.27324 0.1515 0.0
C272 C 0.8322 0.26478 0.16053 0.0
C273 C 0.81322 0.30747 0.11934 0.0
C274 C 0.74809 0.25432 0.1486 0.0
C275 C 0.82669 0.3569 0.15085 0.0
O276 O 0.81637 0.34324 0.14262 0.0
O277 O 0.82925 0.34218 0.15813 0.0
O278 O 0.79059 0.30859 0.12358 0.0
O279 O 0.8305 0.30075 0.12477 0.0
O280 O 0.7213 0.48968 0.1571 0.0
Cd281 Cd 0.69625 0.51224 0.15692 0.0
Cd282 Cd 0.69142 0.49876 0.13667 0.0
O283 O 0.7305 0.49626 0.14111 0.0
O284 O 0.71477 0.54466 0.16723 0.0
O285 O 0.71915 0.55477 0.15111 0.0
C286 C 0.7273 0.56449 0.16009 0.0
C287 C 0.68626 0.5005 0.1194 0.0
C288 C 0.73647 0.48941 0.14959 0.0
C289 C 0.63405 0.46728 0.15084 0.0
O290 O 0.64779 0.46927 0.1427 0.0
O291 O 0.64886 0.48513 0.158 0.0
O292 O 0.68418 0.47659 0.12385 0.0
O293 O 0.69244 0.52459 0.12472 0.0
O294 O 0.55975 0.16741 0.01216 0.0
Cd295 Cd 0.51222 0.14545 0.01141 0.0
Cd296 Cd 0.51768 0.15864 0.03173 0.0
O297 O 0.56079 0.16301 0.02834 0.0
O298 O 0.50038 0.11425 0.00078 0.0
O299 O 0.4907 0.10219 0.01672 0.0
C300 C 0.4911 0.09351 0.00772 0.0
C301 C 0.5068 0.15641 0.04875 0.0
C302 C 0.57452 0.1691 0.02001 0.0
C303 C 0.49454 0.19074 0.01677 0.0
O304 O 0.5045 0.1881 0.02517 0.0
O305 O 0.49291 0.17332 0.00965 0.0
O306 O 0.5292 0.18065 0.04463 0.0
O307 O 0.49085 0.1321 0.04329 0.0
O308 O 0.82355 0.39214 0.01025 0.0
Cd309 Cd 0.84418 0.36526 0.01108 0.0
Cd310 Cd 0.83669 0.36797 0.03099 0.0
O311 O 0.83504 0.40672 0.02577 0.0
O312 O 0.8768 0.38046 0.00081 0.0
O313 O 0.88652 0.38761 0.01695 0.0
C314 C 0.89656 0.39381 0.00794 0.0
C315 C 0.84508 0.36811 0.04809 0.0
C316 C 0.8261 0.4102 0.01729 0.0
C317 C 0.79816 0.30655 0.01923 0.0
O318 O 0.80271 0.32348 0.02681 0.0
O319 O 0.81509 0.31791 0.01161 0.0
O320 O 0.8207 0.36732 0.04447 0.0
O321 O 0.86603 0.37009 0.04199 0.0
O322 O 0.60142 0.42891 0.00931 0.0
Cd323 Cd 0.62672 0.47649 0.00982 0.0
Cd324 Cd 0.62976 0.46703 0.02997 0.0
O325 O 0.59117 0.42548 0.02524 0.0
O326 O 0.60879 0.49144 0.99965 0.0
O327 O 0.60386 0.49584 0.01583 0.0
C328 C 0.59606 0.49821 0.00687 0.0
C329 C 0.63315 0.4742 0.04722 0.0
C330 C 0.58574 0.41308 0.0167 0.0
C331 C 0.68838 0.49329 0.01639 0.0
O332 O 0.67394 0.48118 0.0244 0.0
O333 O 0.67419 0.49667 0.00911 0.0
O334 O 0.63556 0.45222 0.04301 0.0
O335 O 0.62763 0.49208 0.04166 0.0
O336 O 0.49011 0.76305 0.84388 0.0
Cd337 Cd 0.51223 0.81067 0.84411 0.0
Cd338 Cd 0.5006 0.80194 0.8643 0.0
O339 O 0.49861 0.76072 0.85975 0.0
O340 O 0.54473 0.82522 0.83381 0.0
O341 O 0.55467 0.83056 0.84996 0.0
C342 C 0.56451 0.83248 0.84097 0.0
C343 C 0.50342 0.80903 0.88155 0.0
C344 C 0.49089 0.74777 0.8513 0.0
C345 C 0.46695 0.82672 0.85067 0.0
O346 O 0.4697 0.81482 0.85866 0.0
O347 O 0.48464 0.83054 0.84338 0.0
O348 O 0.47961 0.78662 0.87725 0.0
O349 O 0.52688 0.82743 0.87609 0.0
O350 O 0.23024 0.72636 0.8439 0.0
Cd351 Cd 0.18262 0.70101 0.84399 0.0
Cd352 Cd 0.19069 0.69786 0.86417 0.0
O353 O 0.23199 0.7372 0.85974 0.0
O354 O 0.1685 0.71917 0.83363 0.0
O355 O 0.16277 0.72372 0.84975 0.0
C356 C 0.16116 0.73174 0.84075 0.0
C357 C 0.18309 0.69361 0.8814 0.0
C358 C 0.24525 0.74243 0.85134 0.0
C359 C 0.16641 0.63959 0.85051 0.0
O360 O 0.17817 0.65415 0.85853 0.0
O361 O 0.16265 0.65354 0.84323 0.0
O362 O 0.20566 0.69226 0.8772 0.0
O363 O 0.16476 0.69852 0.87584 0.0
O364 O 0.26684 0.50326 0.84322 0.0
Cd365 Cd 0.29232 0.48112 0.84317 0.0
Cd366 Cd 0.29535 0.49166 0.86346 0.0
O367 O 0.25616 0.49394 0.85906 0.0
O368 O 0.27433 0.44908 0.83273 0.0
O369 O 0.26977 0.43841 0.84882 0.0
C370 C 0.26184 0.42897 0.83981 0.0
C371 C 0.29959 0.48818 0.88068 0.0
C372 C 0.25087 0.50211 0.8507 0.0
C373 C 0.35372 0.52598 0.84983 0.0
O374 O 0.33913 0.52278 0.85787 0.0
O375 O 0.33978 0.50873 0.84246 0.0
O376 O 0.30109 0.51218 0.8765 0.0
O377 O 0.2945 0.46491 0.87512 0.0
O378 O 0.42596 0.82341 0.99074 0.0
Cd379 Cd 0.47357 0.84548 0.99042 0.0
Cd380 Cd 0.46461 0.83403 0.97029 0.0
O381 O 0.423 0.83112 0.97485 0.0
O382 O 0.48831 0.87802 0.00071 0.0
O383 O 0.49336 0.88792 0.98456 0.0
C384 C 0.49543 0.89779 0.99355 0.0
C385 C 0.47273 0.83819 0.95309 0.0
C386 C 0.41034 0.82365 0.98335 0.0
C387 C 0.48969 0.80032 0.98373 0.0
O388 O 0.47772 0.80314 0.97576 0.0
O389 O 0.49344 0.81785 0.99106 0.0
O390 O 0.45021 0.81394 0.95717 0.0
O391 O 0.49053 0.86137 0.95874 0.0
O392 O 0.16699 0.59971 0.99039 0.0
Cd393 Cd 0.14437 0.62471 0.99039 0.0
Cd394 Cd 0.15595 0.62853 0.97011 0.0
O395 O 0.1595 0.58997 0.97444 0.0
O396 O 0.11266 0.60649 0.00091 0.0
O397 O 0.10152 0.60151 0.98485 0.0
C398 C 0.0924 0.59363 0.99389 0.0
C399 C 0.15262 0.63334 0.9529 0.0
C400 C 0.16703 0.58442 0.98288 0.0
C401 C 0.18876 0.68663 0.98391 0.0
O402 O 0.18606 0.6724 0.97583 0.0
O403 O 0.17152 0.67222 0.99123 0.0
O404 O 0.17686 0.63538 0.95709 0.0
O405 O 0.129 0.62719 0.95844 0.0
O406 O 0.39104 0.56353 0.98986 0.0
Cd407 Cd 0.3656 0.51591 0.98974 0.0
Cd408 Cd 0.36284 0.52406 0.96951 0.0
O409 O 0.40174 0.56569 0.97399 0.0
O410 O 0.38359 0.50153 1.00008 0.0
O411 O 0.38815 0.49595 0.98394 0.0
C412 C 0.39608 0.49416 0.99294 0.0
C413 C 0.35867 0.51624 0.95228 0.0
C414 C 0.40695 0.57876 0.98242 0.0
C415 C 0.30425 0.49942 0.98305 0.0
O416 O 0.31891 0.51102 0.97503 0.0
O417 O 0.31814 0.49605 0.99042 0.0
O418 O 0.35699 0.53868 0.95645 0.0
O419 O 0.36405 0.4983 0.95787 0.0
O420 O 0.16875 0.56483 0.49059 0.0
Cd421 Cd 0.14672 0.51724 0.49007 0.0
Cd422 Cd 0.1572 0.52664 0.46995 0.0
O423 O 0.15899 0.56748 0.47486 0.0
O424 O 0.11416 0.50188 0.50036 0.0
O425 O 0.10433 0.49778 0.4842 0.0
C426 C 0.09444 0.49519 0.49321 0.0
C427 C 0.15231 0.5197 0.45271 0.0
C428 C 0.1672 0.58021 0.48333 0.0
C429 C 0.19176 0.50155 0.48296 0.0
O430 O 0.18875 0.51387 0.47509 0.0
O431 O 0.17431 0.49736 0.49035 0.0
O432 O 0.17653 0.54226 0.4568 0.0
O433 O 0.1297 0.50099 0.4584 0.0
O434 O 0.42836 0.60104 0.49032 0.0
Cd435 Cd 0.47594 0.62761 0.49023 0.0
Cd436 Cd 0.46795 0.62902 0.47009 0.0
O437 O 0.42664 0.58978 0.47451 0.0
O438 O 0.49116 0.61066 0.50065 0.0
O439 O 0.49677 0.60578 0.48454 0.0
C440 C 0.49886 0.59827 0.49356 0.0
C441 C 0.47694 0.63291 0.45294 0.0
C442 C 0.41341 0.58469 0.4829 0.0
C443 C 0.49039 0.68806 0.48322 0.0
O444 O 0.47906 0.67276 0.47529 0.0
O445 O 0.4946 0.67502 0.49067 0.0
O446 O 0.45367 0.63367 0.45684 0.0
O447 O 0.49504 0.62848 0.45875 0.0
O448 O 0.38853 0.82437 0.48967 0.0
Cd449 Cd 0.36339 0.84682 0.49012 0.0
Cd450 Cd 0.35728 0.83404 0.46975 0.0
O451 O 0.39642 0.83089 0.47361 0.0
O452 O 0.3823 0.87811 0.50075 0.0
O453 O 0.38596 0.89 0.48477 0.0
C454 C 0.39446 0.89874 0.4938 0.0
C455 C 0.34994 0.8357 0.4526 0.0
C456 C 0.40295 0.82389 0.48199 0.0
C457 C 0.30092 0.80183 0.48432 0.0
O458 O 0.31427 0.80431 0.47607 0.0
O459 O 0.31605 0.81945 0.49149 0.0
O460 O 0.34837 0.81182 0.45689 0.0
O461 O 0.35715 0.85995 0.45797 0.0
O462 O 0.22949 0.5025 0.34369 0.0
Cd463 Cd 0.18189 0.47958 0.34338 0.0
Cd464 Cd 0.18865 0.49271 0.36376 0.0
O465 O 0.23137 0.49704 0.35979 0.0
O466 O 0.16948 0.44795 0.33286 0.0
O467 O 0.16194 0.43663 0.34889 0.0
C468 C 0.1615 0.42762 0.33988 0.0
C469 C 0.18007 0.49072 0.38094 0.0
C470 C 0.24469 0.50373 0.35138 0.0
C471 C 0.16309 0.52367 0.34922 0.0
O472 O 0.17401 0.52145 0.35749 0.0
O473 O 0.16132 0.50642 0.34202 0.0
O474 O 0.20182 0.51496 0.37661 0.0
O475 O 0.16333 0.46638 0.37556 0.0
O476 O 0.49097 0.72713 0.34447 0.0
Cd477 Cd 0.51277 0.70132 0.34441 0.0
Cd478 Cd 0.50357 0.69929 0.36463 0.0
O479 O 0.50115 0.7384 0.36026 0.0
O480 O 0.54495 0.71906 0.33402 0.0
O481 O 0.55536 0.72351 0.35013 0.0
C482 C 0.56496 0.73143 0.34113 0.0
C483 C 0.50826 0.69576 0.38183 0.0
C484 C 0.49251 0.74338 0.35193 0.0
C485 C 0.46776 0.64039 0.35136 0.0
O486 O 0.47156 0.65538 0.35935 0.0
O487 O 0.48473 0.65387 0.34389 0.0
O488 O 0.48416 0.69451 0.37781 0.0
O489 O 0.53098 0.70019 0.3761 0.0
O490 O 0.26501 0.76068 0.343 0.0
Cd491 Cd 0.29061 0.80823 0.34395 0.0
Cd492 Cd 0.29061 0.79742 0.36384 0.0
O493 O 0.25208 0.75658 0.35872 0.0
O494 O 0.2739 0.8246 0.33383 0.0
O495 O 0.26746 0.82716 0.35002 0.0
C496 C 0.26055 0.8306 0.34105 0.0
C497 C 0.29155 0.80473 0.38104 0.0
C498 C 0.24795 0.74458 0.35014 0.0
C499 C 0.35092 0.82305 0.35126 0.0
O500 O 0.33516 0.81004 0.35899 0.0
O501 O 0.33812 0.82807 0.3439 0.0
O502 O 0.29332 0.78199 0.37714 0.0
O503 O 0.28815 0.8234 0.37517 0.0
H504 H 0.10272 0.15587 0.16746 0.0
H505 H 0.9517 0.11246 0.19939 0.0
H506 H 0.10255 0.16865 0.19898 0.0
H507 H 0.9498 0.09015 0.16846 0.0
H508 H 0.00828 0.14595 0.19837 0.0
H509 H 0.04898 0.1459 0.16672 0.0
C510 C 0.09176 0.15764 0.17417 0.0
C511 C 0.10675 0.16238 0.18333 0.0
C512 C -0.00455 0.13407 0.19177 0.0
C513 C 0.04535 0.15046 0.18257 0.0
C514 C 0.96312 0.11485 0.19236 0.0
C515 C 0.94605 0.09787 0.18406 0.0
C516 C 0.0109 0.13615 0.18285 0.0
C517 C 0.96208 0.10234 0.1751 0.0
C518 C 0.06098 0.15166 0.17376 0.0
C519 C 0.09152 0.16443 0.1918 0.0
N520 N 0.99368 0.12067 0.17477 0.0
N521 N 0.06144 0.15788 0.19124 0.0
H522 H 0.81874 0.92778 0.19772 0.0
H523 H 0.90177 0.85494 0.16654 0.0
H524 H 0.839 0.94513 0.16662 0.0
H525 H 0.88008 0.83784 0.19761 0.0
H526 H 0.86837 0.87821 0.16547 0.0
H527 H 0.82879 0.88433 0.19674 0.0
C528 C 0.82447 0.92185 0.19062 0.0
C529 C 0.82868 0.94042 0.18228 0.0
C530 C 0.87053 0.86893 0.17249 0.0
C531 C 0.8412 0.89137 0.18116 0.0
C532 C 0.8897 0.85572 0.17311 0.0
C533 C 0.89432 0.84507 0.18223 0.0
C534 C 0.85603 0.87167 0.18105 0.0
C535 C 0.87769 0.84626 0.19046 0.0
C536 C 0.83039 0.89713 0.19006 0.0
C537 C 0.83578 0.93154 0.17324 0.0
N538 N 0.85967 0.85976 0.1897 0.0
N539 N 0.84262 0.90809 0.17297 0.0
H540 H 0.13917 0.04436 0.16773 0.0
H541 H 0.06292 0.88593 0.19763 0.0
H542 H 0.15268 0.03719 0.19893 0.0
H543 H 0.04864 0.89161 0.16644 0.0
H544 H 0.10659 0.93942 0.19723 0.0
H545 H 0.11608 0.98781 0.16624 0.0
C546 C 0.13763 0.03097 0.17425 0.0
C547 C 0.14721 0.04547 0.18352 0.0
C548 C 0.09442 0.92882 0.19041 0.0
C549 C 0.12082 0.9807 0.18185 0.0
C550 C 0.06958 0.8982 0.19063 0.0
C551 C 0.0518 0.88463 0.1821 0.0
C552 C 0.10109 0.94617 0.18164 0.0
C553 C 0.06161 0.90135 0.17321 0.0
C554 C 0.12453 -0.00134 0.17338 0.0
C555 C 0.14509 0.02697 0.19167 0.0
N556 N 0.08515 0.93161 0.17325 0.0
N557 N 0.13171 0.99551 0.19067 0.0
H558 H 0.15563 0.10095 0.33336 0.0
H559 H 0.10998 0.95046 0.30077 0.0
H560 H 0.16701 0.10157 0.30175 0.0
H561 H 0.08825 0.94785 0.33178 0.0
H562 H 0.14376 0.007 0.30193 0.0
H563 H 0.145 0.04694 0.33381 0.0
C564 C 0.15692 0.09009 0.32657 0.0
C565 C 0.16149 0.10542 0.31748 0.0
C566 C 0.13193 0.99402 0.30852 0.0
C567 C 0.14885 0.04372 0.3179 0.0
C568 C 0.11255 0.96171 0.30785 0.0
C569 C 0.09566 0.94447 0.31613 0.0
C570 C 0.13428 0.00925 0.31751 0.0
C571 C 0.10037 0.96028 0.32515 0.0
C572 C 0.15058 0.05917 0.32681 0.0
C573 C 0.16294 0.0903 0.30889 0.0
N574 N 0.11887 0.99185 0.32557 0.0
N575 N 0.15607 0.06009 0.30929 0.0
H576 H 0.88825 0.06654 0.30316 0.0
H577 H 0.04502 0.13913 0.33375 0.0
H578 H 0.89203 0.05038 0.3343 0.0
H579 H 0.03946 0.15658 0.30277 0.0
H580 H 0.98846 0.11638 0.33505 0.0
H581 H 0.94181 0.10995 0.30393 0.0
C582 C 0.90013 0.07273 0.31023 0.0
C583 C 0.88599 0.0545 0.31864 0.0
C584 C -0.00033 0.12564 0.328 0.0
C585 C 0.94762 0.10349 0.31953 0.0
C586 C 0.03198 0.13855 0.32724 0.0
C587 C 0.04693 0.14911 0.31808 0.0
C588 C 0.98217 0.12308 0.31952 0.0
C589 C 0.02889 0.14821 0.30994 0.0
C590 C 0.93079 0.09743 0.31066 0.0
C591 C 0.90222 0.0637 0.32763 0.0
N592 N -0.00258 0.13496 0.31083 0.0
N593 N 0.93254 0.0871 0.32779 0.0
H594 H 0.85409 0.90316 0.33348 0.0
H595 H 0.92574 0.81934 0.30211 0.0
H596 H 0.83787 0.88301 0.30231 0.0
H597 H 0.94234 0.83824 0.3333 0.0
H598 H 0.88287 0.83026 0.30307 0.0
H599 H 0.87651 0.86899 0.33446 0.0
C600 C 0.8549 0.89128 0.32686 0.0
C601 C 0.84475 0.89654 0.31775 0.0
C602 C 0.89537 0.83137 0.30976 0.0
C603 C 0.87036 0.85737 0.31882 0.0
C604 C 0.91975 0.82496 0.30923 0.0
C605 C 0.93797 0.82855 0.3176 0.0
C606 C 0.88959 0.84203 0.3187 0.0
C607 C 0.92903 0.8355 0.32665 0.0
C608 C 0.86761 0.87167 0.32744 0.0
C609 C 0.84593 0.88013 0.30945 0.0
N610 N 0.90592 0.84282 0.32692 0.0
N611 N 0.85894 0.86165 0.31017 0.0
H612 H 0.88736 0.81935 0.80311 0.0
H613 H 0.04363 0.90313 0.83381 0.0
H614 H 0.89071 0.83917 0.83425 0.0
H615 H 0.03819 0.87769 0.80305 0.0
H616 H 0.98702 0.86974 0.83511 0.0
H617 H 0.94066 0.82882 0.80401 0.0
C618 C 0.89908 0.82487 0.8102 0.0
C619 C 0.88492 0.82911 0.81858 0.0
C620 C -0.00174 0.87105 0.82811 0.0
C621 C 0.94627 0.84099 0.81962 0.0
C622 C 0.03061 0.89021 0.82736 0.0
C623 C 0.0456 0.89382 0.81824 0.0
C624 C 0.98078 0.85559 0.81968 0.0
C625 C 0.02758 0.87611 0.81018 0.0
C626 C 0.92959 0.83043 0.81071 0.0
C627 C 0.90094 0.83592 0.8276 0.0
N628 N -0.00392 0.85817 0.81106 0.0
N629 N 0.93113 0.84247 0.82784 0.0
H630 H 0.10583 0.15403 0.79981 0.0
H631 H 0.15564 0.05254 0.83249 0.0
H632 H 0.08936 0.13935 0.8312 0.0
H633 H 0.16248 0.05947 0.80072 0.0
H634 H 0.14509 0.09597 0.83277 0.0
H635 H 0.13917 0.13071 0.80067 0.0
C636 C 0.10947 0.14622 0.80691 0.0
C637 C 0.09418 0.14799 0.8154 0.0
C638 C 0.14963 0.08845 0.82575 0.0
C639 C 0.13229 0.12119 0.81644 0.0
C640 C 0.15591 0.06383 0.8256 0.0
C641 C 0.15922 0.05199 0.81655 0.0
C642 C 0.14668 0.10113 0.81679 0.0
C643 C 0.1594 0.0675 0.80785 0.0
C644 C 0.12859 0.13297 0.8074 0.0
C645 C 0.10021 0.13794 0.82442 0.0
N646 N 0.15261 0.0909 0.80817 0.0
N647 N 0.11843 0.12454 0.82467 0.0
H648 H 0.83341 0.9523 0.80262 0.0
H649 H 0.94273 0.10295 0.83438 0.0
H650 H 0.85726 0.94989 0.83317 0.0
H651 H 0.92406 0.10376 0.80328 0.0
H652 H 0.89989 0.04879 0.83531 0.0
H653 H 0.85538 0.00869 0.80394 0.0
C654 C 0.84299 0.96357 0.80964 0.0
C655 C 0.84416 0.94644 0.81773 0.0
C656 C 0.90466 0.06108 0.82834 0.0
C657 C 0.86948 0.01108 0.81929 0.0
C658 C 0.92892 0.09211 0.82783 0.0
C659 C 0.93735 0.10753 0.81869 0.0
C660 C 0.88893 0.04561 0.81965 0.0
C661 C 0.9187 0.09242 0.81043 0.0
C662 C 0.85545 0.99579 0.8104 0.0
C663 C 0.85635 0.96224 0.82669 0.0
N664 N 0.89575 0.06209 0.81107 0.0
N665 N 0.86901 0.99376 0.82718 0.0
H666 H 0.90056 0.04414 0.66659 0.0
H667 H 0.81441 0.88738 0.69695 0.0
H668 H 0.87289 0.03801 0.69714 0.0
H669 H 0.83764 0.89141 0.66608 0.0
H670 H 0.82336 0.94048 0.69589 0.0
H671 H 0.86714 0.98756 0.66511 0.0
C672 C 0.88715 0.03098 0.67295 0.0
C673 C 0.89014 0.04576 0.68208 0.0
C674 C 0.82581 0.92959 0.68927 0.0
C675 C 0.85186 0.98098 0.68042 0.0
C676 C 0.82053 0.89918 0.68987 0.0
C677 C 0.82592 0.88531 0.68164 0.0
C678 C 0.83728 0.94646 0.68044 0.0
C679 C 0.8335 0.90142 0.67262 0.0
C680 C 0.86797 -0.00135 0.67209 0.0
C681 C 0.87182 0.02757 0.69001 0.0
N682 N 0.8398 0.93154 0.67231 0.0
N683 N 0.85386 0.9961 0.68904 0.0
H684 H 0.10517 0.92813 0.69789 0.0
H685 H 0.94779 0.85675 0.66732 0.0
H686 H 0.10088 0.9468 0.66698 0.0
H687 H 0.95347 0.84257 0.69856 0.0
H688 H 0.00433 0.87927 0.66606 0.0
H689 H 0.05128 0.88538 0.69708 0.0
C690 C 0.09311 0.9226 0.69085 0.0
C691 C 0.10721 0.94138 0.68254 0.0
C692 C 0.99315 0.87082 0.67316 0.0
C693 C 0.04524 0.89317 0.68162 0.0
C694 C 0.96085 0.85804 0.6739 0.0
C695 C 0.94593 0.84839 0.68311 0.0
C696 C 0.01066 0.87406 0.6817 0.0
C697 C 0.96402 0.85022 0.69134 0.0
C698 C 0.06226 0.89831 0.6904 0.0
C699 C 0.09073 0.93304 0.67358 0.0
N700 N -0.00454 0.86321 0.69046 0.0
N701 N 0.06026 0.90999 0.67342 0.0
H702 H 0.05605 0.16578 0.70034 0.0
H703 H 0.14057 0.09463 0.66908 0.0
H704 H 0.04859 0.15537 0.66866 0.0
H705 H 0.14901 0.10754 0.70071 0.0
H706 H 0.11628 0.12712 0.66827 0.0
H707 H 0.1 0.15641 0.70005 0.0
C708 C 0.06422 0.16229 0.69329 0.0
C709 C 0.04831 0.1607 0.68453 0.0
C710 C 0.12387 0.12324 0.67537 0.0
C711 C 0.09802 0.14908 0.68416 0.0
C712 C 0.13766 0.10459 0.67585 0.0
C713 C 0.1462 0.09775 0.68501 0.0
C714 C 0.11837 0.13497 0.68413 0.0
C715 C 0.14232 0.11172 0.6935 0.0
C716 C 0.08924 0.1568 0.69312 0.0
C717 C 0.06006 0.15651 0.67559 0.0
N718 N 0.12826 0.12927 0.69287 0.0
N719 N 0.08378 0.15007 0.67565 0.0
H720 H 0.61757 0.44338 0.53334 0.0
H721 H 0.76896 0.48937 0.50123 0.0
H722 H 0.616 0.42403 0.50217 0.0
H723 H 0.76871 0.50017 0.53285 0.0
H724 H 0.71511 0.47909 0.50064 0.0
H725 H 0.67422 0.47663 0.53247 0.0
C726 C 0.62907 0.44636 0.52629 0.0
C727 C 0.61207 0.4303 0.51787 0.0
C728 C 0.72711 0.48445 0.50768 0.0
C729 C 0.67699 0.46831 0.51682 0.0
C730 C 0.75795 0.4906 0.50801 0.0
C731 C 0.77299 0.4949 0.51714 0.0
C732 C 0.71143 0.48263 0.51654 0.0
C733 C 0.75766 0.49628 0.52568 0.0
C734 C 0.66145 0.46545 0.52579 0.0
C735 C 0.62822 0.4355 0.50889 0.0
N736 N 0.72753 0.48959 0.5252 0.0
N737 N 0.65983 0.45369 0.50864 0.0
H738 H 0.48284 0.26011 0.53062 0.0
H739 H 0.56942 0.18885 0.50043 0.0
H740 H 0.50649 0.27891 0.49975 0.0
H741 H 0.54632 0.17213 0.53142 0.0
H742 H 0.53577 0.21175 0.499 0.0
H743 H 0.49339 0.21696 0.52983 0.0
C744 C 0.4894 0.25454 0.52359 0.0
C745 C 0.49443 0.27345 0.51529 0.0
C746 C 0.53769 0.20264 0.50608 0.0
C747 C 0.50753 0.22477 0.5144 0.0
C748 C 0.557 0.18965 0.50691 0.0
C749 C 0.56127 0.17919 0.51612 0.0
C750 C 0.52267 0.20534 0.51451 0.0
C751 C 0.54421 0.1804 0.52422 0.0
C752 C 0.49562 0.23001 0.52316 0.0
C753 C 0.5026 0.26505 0.50635 0.0
N754 N 0.52602 0.19366 0.52325 0.0
N755 N 0.5097 0.24177 0.5062 0.0
H756 H 0.72956 0.2207 0.53205 0.0
H757 H 0.80647 0.3776 0.50142 0.0
H758 H 0.71579 0.22484 0.50075 0.0
H759 H 0.82115 0.37177 0.53262 0.0
H760 H 0.78304 0.32095 0.50019 0.0
H761 H 0.7735 0.27401 0.53145 0.0
C762 C 0.73638 0.2326 0.52499 0.0
C763 C 0.71868 0.21865 0.51647 0.0
C764 C 0.79183 0.33211 0.50727 0.0
C765 C 0.7683 0.28 0.51578 0.0
C766 C 0.80513 0.36448 0.508 0.0
C767 C 0.81512 0.3794 0.51719 0.0
C768 C 0.7883 0.31451 0.51582 0.0
C769 C 0.81324 0.36124 0.52541 0.0
C770 C 0.76139 0.26311 0.52466 0.0
C771 C 0.72869 0.23488 0.5075 0.0
N772 N 0.79963 0.32971 0.52455 0.0
N773 N 0.7524 0.26507 0.50743 0.0
H774 H 0.8216 0.43553 0.66737 0.0
H775 H 0.77582 0.2843 0.63517 0.0
H776 H 0.83461 0.43573 0.63585 0.0
H777 H 0.75352 0.28232 0.6661 0.0
H778 H 0.80983 0.34081 0.63626 0.0
H779 H 0.81034 0.38135 0.66799 0.0
C780 C 0.8231 0.42453 0.66063 0.0
C781 C 0.82831 0.43982 0.65151 0.0
C782 C 0.79782 0.32797 0.64285 0.0
C783 C 0.81495 0.37789 0.65213 0.0
C784 C 0.77831 0.29568 0.64222 0.0
C785 C 0.76121 0.27862 0.6505 0.0
C786 C 0.8001 0.34339 0.6518 0.0
C787 C 0.76581 0.2946 0.65948 0.0
C788 C 0.8164 0.3935 0.66097 0.0
C789 C 0.83003 0.42451 0.64301 0.0
N790 N 0.78445 0.32616 0.65986 0.0
N791 N 0.82279 0.39419 0.6435 0.0
H792 H 0.55657 0.38584 0.66647 0.0
H793 H 0.70908 0.49307 0.63495 0.0
H794 H 0.55855 0.39593 0.63478 0.0
H795 H 0.70978 0.47167 0.66584 0.0
H796 H 0.65243 0.46967 0.63573 0.0
H797 H 0.61032 0.4296 0.66724 0.0
C798 C 0.56794 0.39789 0.65971 0.0
C799 C 0.55341 0.38686 0.65053 0.0
C800 C 0.66502 0.47049 0.64238 0.0
C801 C 0.61481 0.43643 0.65134 0.0
C802 C 0.69739 0.4838 0.64193 0.0
C803 C 0.71414 0.48366 0.65028 0.0
C804 C 0.64922 0.45676 0.65122 0.0
C805 C 0.69775 0.47177 0.65917 0.0
C806 C 0.59871 0.42269 0.66015 0.0
C807 C 0.56918 0.40333 0.642 0.0
N808 N 0.66613 0.45835 0.65937 0.0
N809 N 0.59922 0.42694 0.64259 0.0
H810 H 0.59084 0.15114 0.63662 0.0
H811 H 0.51998 0.23723 0.66704 0.0
H812 H 0.60819 0.17242 0.66766 0.0
H813 H 0.5014 0.2129 0.63617 0.0
H814 H 0.54247 0.2032 0.66843 0.0
H815 H 0.54755 0.16144 0.63745 0.0
C816 C 0.58493 0.15714 0.64368 0.0
C817 C 0.60346 0.16157 0.65204 0.0
C818 C 0.53302 0.20491 0.66139 0.0
C819 C 0.55462 0.17441 0.65298 0.0
C820 C 0.52025 0.22444 0.66058 0.0
C821 C 0.50946 0.22852 0.65141 0.0
C822 C 0.53518 0.18953 0.65296 0.0
C823 C 0.50998 0.21096 0.64334 0.0
C824 C 0.5603 0.1632 0.64415 0.0
C825 C 0.59462 0.16901 0.66102 0.0
N826 N 0.52308 0.19262 0.64427 0.0
N827 N 0.57129 0.17602 0.66121 0.0
H828 H 0.71138 0.23327 0.16516 0.0
H829 H 0.55654 0.16302 0.13352 0.0
H830 H 0.70795 0.22208 0.13346 0.0
H831 H 0.5584 0.17043 0.16529 0.0
H832 H 0.61011 0.17313 0.1338 0.0
H833 H 0.65463 0.20033 0.16577 0.0
C834 C 0.69875 0.2236 0.15833 0.0
C835 C 0.7144 0.23104 0.14922 0.0
C836 C 0.59867 0.17192 0.14074 0.0
C837 C 0.64939 0.19334 0.14987 0.0
C838 C 0.56802 0.16603 0.14058 0.0
C839 C 0.55329 0.16655 0.14938 0.0
C840 C 0.6149 0.17896 0.14975 0.0
C841 C 0.56904 0.17014 0.15833 0.0
C842 C 0.66632 0.20469 0.15869 0.0
C843 C 0.69685 0.21742 0.14064 0.0
N844 N 0.59932 0.17697 0.15827 0.0
N845 N 0.66525 0.19963 0.14117 0.0
H846 H 0.81968 0.38298 0.16784 0.0
H847 H 0.77582 0.48909 0.13541 0.0
H848 H 0.83935 0.4008 0.13673 0.0
H849 H 0.7516 0.46804 0.1662 0.0
H850 H 0.81051 0.46748 0.13683 0.0
H851 H 0.80755 0.42529 0.16852 0.0
C852 C 0.82252 0.39651 0.16123 0.0
C853 C 0.82981 0.38796 0.15216 0.0
C854 C 0.79793 0.46793 0.14332 0.0
C855 C 0.81535 0.43576 0.15282 0.0
C856 C 0.778 0.48018 0.14249 0.0
C857 C 0.76022 0.47973 0.15064 0.0
C858 C 0.79989 0.45484 0.15232 0.0
C859 C 0.76445 0.46838 0.15968 0.0
C860 C 0.81529 0.42046 0.16159 0.0
C861 C 0.83315 0.40625 0.14383 0.0
N862 N 0.78348 0.45593 0.16024 0.0
N863 N 0.8253 0.42888 0.14431 0.0
H864 H 0.5207 0.28164 0.16766 0.0
H865 H 0.58887 0.43745 0.13695 0.0
H866 H 0.4972 0.28663 0.13724 0.0
H867 H 0.60835 0.43467 0.16787 0.0
H868 H 0.54523 0.38411 0.13814 0.0
H869 H 0.54341 0.3382 0.16902 0.0
C870 C 0.51992 0.29454 0.1613 0.0
C871 C 0.50772 0.27946 0.15225 0.0
C872 C 0.55851 0.39531 0.14474 0.0
C873 C 0.53371 0.34422 0.15376 0.0
C874 C 0.58335 0.42586 0.14407 0.0
C875 C 0.60255 0.44018 0.15228 0.0
C876 C 0.55335 0.37877 0.15363 0.0
C877 C 0.59423 0.42431 0.16135 0.0
C878 C 0.53281 0.32686 0.1621 0.0
C879 C 0.50691 0.29732 0.14432 0.0
N880 N 0.57071 0.39407 0.16172 0.0
N881 N 0.52019 0.32879 0.14521 0.0
H882 H 0.5705 0.37772 0.99982 0.0
H883 H 0.47773 0.22062 0.03018 0.0
H884 H 0.54655 0.37237 0.03071 0.0
H885 H 0.50506 0.22441 0.99973 0.0
H886 H 0.48972 0.27474 0.02904 0.0
H887 H 0.53558 0.32132 0.99842 0.0
C888 C 0.55765 0.36477 0.00628 0.0
C889 C 0.56202 0.37971 0.01546 0.0
C890 C 0.49244 0.2636 0.02252 0.0
C891 C 0.52192 0.31516 0.01388 0.0
C892 C 0.48538 0.23261 0.02316 0.0
C893 C 0.49105 0.21831 0.0151 0.0
C894 C 0.50583 0.28054 0.01382 0.0
C895 C 0.50063 0.23471 0.00615 0.0
C896 C 0.53762 0.33256 0.00546 0.0
C897 C 0.54438 0.36179 0.02354 0.0
N898 N 0.50853 0.26531 0.00582 0.0
N899 N 0.52545 0.33042 0.02258 0.0
H900 H 0.76692 0.26921 0.03484 0.0
H901 H 0.61111 0.18299 0.00348 0.0
H902 H 0.76417 0.27381 0.00305 0.0
H903 H 0.61499 0.17951 0.0353 0.0
H904 H 0.66785 0.20675 0.00287 0.0
H905 H 0.71305 0.22629 0.03476 0.0
C906 C 0.75517 0.26063 0.02781 0.0
C907 C 0.76976 0.27547 0.01895 0.0
C908 C 0.65626 0.20039 0.00997 0.0
C909 C 0.70783 0.22688 0.01882 0.0
C910 C 0.62384 0.18691 0.01034 0.0
C911 C 0.6083 0.17986 0.01948 0.0
C912 C 0.67332 0.20706 0.01881 0.0
C913 C 0.62599 0.18501 0.0281 0.0
C914 C 0.72434 0.2362 0.02777 0.0
C915 C 0.75366 0.26319 0.01006 0.0
N916 N 0.65759 0.1987 0.02756 0.0
N917 N 0.72324 0.24003 0.01023 0.0
H918 H 0.80454 0.42357 1.00036 0.0
H919 H 0.73221 0.50789 0.03069 0.0
H920 H 0.82582 0.45096 0.03094 0.0
H921 H 0.71586 0.48771 0.99956 0.0
H922 H 0.77636 0.49891 0.02983 0.0
H923 H 0.78138 0.45698 0.99889 0.0
C924 C 0.80474 0.43693 0.00674 0.0
C925 C 0.81644 0.43384 0.01586 0.0
C926 C 0.76365 0.49713 0.02312 0.0
C927 C 0.7899 0.47208 0.01423 0.0
C928 C 0.73851 0.50241 0.02361 0.0
C929 C 0.72006 0.49792 0.01523 0.0
C930 C 0.76987 0.48656 0.01424 0.0
C931 C 0.72938 0.49115 0.00622 0.0
C932 C 0.79159 0.45611 0.00588 0.0
C933 C 0.81652 0.45211 0.02381 0.0
N934 N 0.75318 0.48484 0.00601 0.0
N935 N 0.80297 0.47003 0.02285 0.0
H936 H 0.28457 0.78169 0.86562 0.0
H937 H 0.43529 0.82368 0.83369 0.0
H938 H 0.28234 0.75719 0.83488 0.0
H939 H 0.43533 0.83737 0.86517 0.0
H940 H 0.38153 0.81363 0.83293 0.0
H941 H 0.34112 0.81525 0.86447 0.0
C942 C 0.29591 0.78361 0.85859 0.0
C943 C 0.27877 0.766 0.8504 0.0
C944 C 0.39359 0.81961 0.83997 0.0
C945 C 0.34357 0.80435 0.84905 0.0
C946 C 0.42437 0.82563 0.84039 0.0
C947 C 0.43944 0.83065 0.84954 0.0
C948 C 0.37801 0.81868 0.84876 0.0
C949 C 0.42425 0.83293 0.85799 0.0
C950 C 0.32822 0.80287 0.85794 0.0
C951 C 0.29468 0.7699 0.84145 0.0
N952 N 0.39416 0.82636 0.85742 0.0
N953 N 0.32627 0.78827 0.84105 0.0
H954 H 0.16929 0.6111 0.83348 0.0
H955 H 0.21189 0.50214 0.86508 0.0
H956 H 0.15621 0.59729 0.86497 0.0
H957 H 0.2359 0.52466 0.83433 0.0
H958 H 0.17839 0.52522 0.86408 0.0
H959 H 0.17945 0.56746 0.83262 0.0
C960 C 0.16752 0.59823 0.84016 0.0
C961 C 0.16262 0.60821 0.84935 0.0
C962 C 0.19065 0.52474 0.85751 0.0
C963 C 0.17471 0.55882 0.84845 0.0
C964 C 0.20987 0.51162 0.85808 0.0
C965 C 0.22733 0.51214 0.84984 0.0
C966 C 0.18904 0.5387 0.84865 0.0
C967 C 0.22332 0.52427 0.84093 0.0
C968 C 0.17359 0.5735 0.83968 0.0
C969 C 0.16055 0.59072 0.85777 0.0
N970 N 0.20497 0.53752 0.84061 0.0
N971 N 0.16717 0.56724 0.85714 0.0
H972 H 0.38242 0.55836 0.83297 0.0
H973 H 0.49043 0.70792 0.86545 0.0
H974 H 0.39595 0.55704 0.86441 0.0
H975 H 0.46905 0.71127 0.8347 0.0
H976 H 0.46755 0.65142 0.8641 0.0
H977 H 0.42608 0.61219 0.8324 0.0
C978 C 0.39524 0.56902 0.83969 0.0
C979 C 0.38517 0.55356 0.84879 0.0
C980 C 0.46824 0.66455 0.85761 0.0
C981 C 0.43457 0.61507 0.84823 0.0
C982 C 0.48124 0.69684 0.85838 0.0
C983 C 0.48098 0.71428 0.85024 0.0
C984 C 0.45463 0.64952 0.84865 0.0
C985 C 0.46923 0.69869 0.84122 0.0
C986 C 0.41998 0.59984 0.83938 0.0
C987 C 0.4026 0.56842 0.85727 0.0
N988 N 0.45607 0.66712 0.84071 0.0
N989 N 0.42608 0.59855 0.85682 0.0
H990 H 0.44578 0.61867 0.96817 0.0
H991 H 0.48675 0.76823 0.0006 0.0
H992 H 0.42165 0.6154 0.99898 0.0
H993 H 0.50075 0.76935 0.96911 0.0
H994 H 0.4771 0.71458 0.00117 0.0
H995 H 0.47898 0.67525 0.96946 0.0
C996 C 0.44771 0.62978 0.97524 0.0
C997 C 0.4303 0.61233 0.98342 0.0
C998 C 0.48306 0.72685 0.99418 0.0
C999 C 0.46823 0.67718 0.98493 0.0
C1000 C 0.48885 0.75758 0.99386 0.0
C1001 C 0.49384 0.77291 0.98476 0.0
C1002 C 0.48232 0.71159 0.98533 0.0
C1003 C 0.49632 0.75805 0.97626 0.0
C1004 C 0.46676 0.66212 0.97598 0.0
C1005 C 0.43419 0.62798 0.99243 0.0
N1006 N 0.48996 0.72801 0.97672 0.0
N1007 N 0.45236 0.65958 0.99291 0.0
H1008 H 0.21803 0.73048 0.96962 0.0
H1009 H 0.37501 0.80439 1.00024 0.0
H1010 H 0.22223 0.7139 0.00071 0.0
H1011 H 0.36925 0.82003 0.96911 0.0
H1012 H 0.31842 0.78134 0.00151 0.0
H1013 H 0.27148 0.77411 0.97039 0.0
C1014 C 0.22996 0.73663 0.97668 0.0
C1015 C 0.216 0.71822 0.98507 0.0
C1016 C 0.32959 0.79025 0.99443 0.0
C1017 C 0.27749 0.76745 0.98595 0.0
C1018 C 0.36192 0.80333 0.99369 0.0
C1019 C 0.37683 0.8135 0.9845 0.0
C1020 C 0.31202 0.78714 0.98592 0.0
C1021 C 0.35871 0.81198 0.97631 0.0
C1022 C 0.26056 0.76145 0.97711 0.0
C1023 C 0.23229 0.72737 0.99405 0.0
N1024 N 0.32723 0.7986 0.97719 0.0
N1025 N 0.26254 0.7509 0.99421 0.0
H1026 H 0.18578 0.5672 0.99964 0.0
H1027 H 0.26147 0.48669 0.96853 0.0
H1028 H 0.17183 0.54848 0.96834 0.0
H1029 H 0.27621 0.5047 0.99981 0.0
H1030 H 0.21808 0.49686 0.96926 0.0
H1031 H 0.20908 0.53383 0.00067 0.0
C1032 C 0.18728 0.5558 0.993 0.0
C1033 C 0.17748 0.56123 0.98384 0.0
C1034 C 0.23029 0.49794 0.97603 0.0
C1035 C 0.20411 0.52297 0.98498 0.0
C1036 C 0.25498 0.49196 0.97561 0.0
C1037 C 0.2728 0.49551 0.98408 0.0
C1038 C 0.2238 0.50813 0.98493 0.0
C1039 C 0.26321 0.502 0.99309 0.0
C1040 C 0.2005 0.53665 0.9936 0.0
C1041 C 0.17957 0.54544 0.97552 0.0
N1042 N 0.2398 0.5089 0.99324 0.0
N1043 N 0.19306 0.5274 0.97627 0.0
H1044 H 0.22225 0.49047 0.46817 0.0
H1045 H 0.37724 0.56762 0.49962 0.0
H1046 H 0.22442 0.50466 0.49967 0.0
H1047 H 0.37309 0.54793 0.4684 0.0
H1048 H 0.32053 0.53449 0.50054 0.0
H1049 H 0.27547 0.49968 0.46891 0.0
C1050 C 0.2337 0.49473 0.47529 0.0
C1051 C 0.21922 0.49746 0.48384 0.0
C1052 C 0.33207 0.537 0.49352 0.0
C1053 C 0.28046 0.50896 0.48471 0.0
C1054 C 0.36447 0.55602 0.49298 0.0
C1055 C 0.37988 0.56117 0.48387 0.0
C1056 C 0.31494 0.52326 0.48487 0.0
C1057 C 0.36217 0.54511 0.47555 0.0
C1058 C 0.26416 0.50012 0.47571 0.0
C1059 C 0.2349 0.50264 0.49289 0.0
N1060 N 0.33061 0.5273 0.47622 0.0
N1061 N 0.26504 0.50902 0.49305 0.0
H1062 H 0.48729 0.71785 0.49992 0.0
H1063 H 0.43881 0.82019 0.46719 0.0
H1064 H 0.49867 0.72837 0.4683 0.0
H1065 H 0.42061 0.80438 0.49847 0.0
H1066 H 0.47248 0.79729 0.46821 0.0
H1067 H 0.47584 0.76067 0.50028 0.0
C1068 C 0.48839 0.72983 0.4931 0.0
C1069 C 0.49323 0.71914 0.48404 0.0
C1070 C 0.46144 0.79918 0.47488 0.0
C1071 C 0.47961 0.76756 0.48436 0.0
C1072 C 0.44212 0.81219 0.47429 0.0
C1073 C 0.42629 0.81358 0.48271 0.0
C1074 C 0.46479 0.78723 0.48393 0.0
C1075 C 0.43191 0.80329 0.49175 0.0
C1076 C 0.48157 0.75408 0.49329 0.0
C1077 C 0.4944 0.73549 0.47543 0.0
N1078 N 0.45033 0.79013 0.4921 0.0
N1079 N 0.48705 0.7585 0.47577 0.0
H1080 H 0.27538 0.76963 0.50147 0.0
H1081 H 0.16446 0.61964 0.46967 0.0
H1082 H 0.256 0.77084 0.47045 0.0
H1083 H 0.19095 0.61666 0.49988 0.0
H1084 H 0.18619 0.67593 0.47122 0.0
H1085 H 0.23239 0.71554 0.50241 0.0
C1086 C 0.26137 0.7589 0.49494 0.0
C1087 C 0.26964 0.77439 0.48581 0.0
C1088 C 0.18689 0.66292 0.47756 0.0
C1089 C 0.22104 0.71257 0.48679 0.0
C1090 C 0.17456 0.63075 0.47667 0.0
C1091 C 0.17657 0.6135 0.48458 0.0
C1092 C 0.2016 0.67805 0.48639 0.0
C1093 C 0.1894 0.62912 0.49352 0.0
C1094 C 0.23703 0.72792 0.49546 0.0
C1095 C 0.25074 0.75943 0.47759 0.0
N1096 N 0.2019 0.6606 0.49414 0.0
N1097 N 0.22771 0.72914 0.47823 0.0
H1098 H 0.2347 0.71009 0.33312 0.0
H1099 H 0.14542 0.55207 0.36291 0.0
H1100 H 0.20733 0.70309 0.36372 0.0
H1101 H 0.17169 0.55731 0.33229 0.0
H1102 H 0.15516 0.60548 0.36194 0.0
H1103 H 0.20087 0.65361 0.33144 0.0
C1104 C 0.22129 0.69676 0.33946 0.0
C1105 C 0.22445 0.71126 0.34864 0.0
C1106 C 0.15812 0.59479 0.35535 0.0
C1107 C 0.18567 0.6466 0.34676 0.0
C1108 C 0.15235 0.56421 0.35589 0.0
C1109 C 0.15839 0.55057 0.34773 0.0
C1110 C 0.17065 0.61204 0.34664 0.0
C1111 C 0.16703 0.56712 0.33879 0.0
C1112 C 0.20188 0.6645 0.33848 0.0
C1113 C 0.20612 0.69286 0.35655 0.0
N1114 N 0.17374 0.59737 0.33854 0.0
N1115 N 0.18789 0.66145 0.35546 0.0
H1116 H 0.28106 0.52087 0.33472 0.0
H1117 H 0.43708 0.59876 0.36611 0.0
H1118 H 0.28526 0.51074 0.36628 0.0
H1119 H 0.43412 0.61162 0.33469 0.0
H1120 H 0.38325 0.55584 0.36551 0.0
H1121 H 0.33775 0.54421 0.33389 0.0
C1122 C 0.29384 0.52324 0.34147 0.0
C1123 C 0.27843 0.51445 0.35062 0.0
C1124 C 0.3945 0.56756 0.35869 0.0
C1125 C 0.34336 0.54112 0.34971 0.0
C1126 C 0.42531 0.59197 0.35903 0.0
C1127 C 0.4398 0.60915 0.35047 0.0
C1128 C 0.3779 0.56065 0.34976 0.0
C1129 C 0.42368 0.59915 0.34148 0.0
C1130 C 0.32623 0.53648 0.34098 0.0
C1131 C 0.29617 0.51766 0.35908 0.0
N1132 N 0.39326 0.57599 0.34139 0.0
N1133 N 0.32772 0.53111 0.35844 0.0
H1134 H 0.38233 0.82357 0.3345 0.0
H1135 H 0.49099 0.78119 0.36646 0.0
H1136 H 0.39092 0.83092 0.36624 0.0
H1137 H 0.47047 0.75879 0.33553 0.0
H1138 H 0.46662 0.81357 0.36554 0.0
H1139 H 0.42698 0.81492 0.33391 0.0
C1140 C 0.39423 0.82437 0.34131 0.0
C1141 C 0.38255 0.82726 0.35046 0.0
C1142 C 0.46785 0.80193 0.35892 0.0
C1143 C 0.43314 0.81699 0.34984 0.0
C1144 C 0.48172 0.78337 0.35944 0.0
C1145 C 0.48209 0.76662 0.35112 0.0
C1146 C 0.45409 0.80362 0.35003 0.0
C1147 C 0.47018 0.7708 0.34219 0.0
C1148 C 0.41954 0.81918 0.34098 0.0
C1149 C 0.39883 0.82814 0.35905 0.0
N1150 N 0.45621 0.7885 0.34192 0.0
N1151 N 0.42297 0.82248 0.35855 0.0
H1152 H 0.09944 0.13379 0.27287 0.0
H1153 H 0.21387 0.19217 0.22617 0.0
H1154 H 0.19408 0.21062 0.2753 0.0
H1155 H 0.1271 0.10455 0.22825 0.0
H1156 H 0.20752 0.20295 0.24355 0.0
H1157 H 0.10864 0.12766 0.25567 0.0
C1158 C 0.12219 0.14959 0.26976 0.0
C1159 C 0.14611 0.17258 0.27557 0.0
C1160 C 0.19007 0.18134 0.24017 0.0
C1161 C 0.15706 0.16536 0.25574 0.0
C1162 C 0.19374 0.17511 0.23029 0.0
C1163 C 0.17091 0.14748 0.22573 0.0
C1164 C 0.16331 0.15985 0.24542 0.0
C1165 C 0.14523 0.12624 0.23139 0.0
C1166 C 0.12751 0.14596 0.25991 0.0
C1167 C 0.17501 0.19256 0.27106 0.0
N1168 N 0.1421 0.13297 0.24087 0.0
N1169 N 0.17982 0.18837 0.26139 0.0
H1170 H 0.88848 0.01861 0.22763 0.0
H1171 H 0.77967 0.97857 0.27543 0.0
H1172 H 0.79981 0.01582 0.22637 0.0
H1173 H 0.86313 0.97155 0.2734 0.0
H1174 H 0.78548 0.99309 0.25781 0.0
H1175 H 0.87939 0.00392 0.24485 0.0
C1176 C 0.86705 0.01504 0.231 0.0
C1177 C 0.84481 0.01833 0.22551 0.0
C1178 C 0.80233 0.98816 0.26125 0.0
C1179 C 0.83398 0.00105 0.24543 0.0
C1180 C 0.79895 0.97974 0.27128 0.0
C1181 C 0.82106 0.97402 0.27591 0.0
C1182 C 0.828 0.99086 0.25592 0.0
C1183 C 0.84564 0.97598 0.2702 0.0
C1184 C 0.86178 0.00649 0.24088 0.0
C1185 C 0.81758 0.01355 0.23035 0.0
N1186 N 0.84846 0.98433 0.26057 0.0
N1187 N 0.81283 0.005 0.24006 0.0
H1188 H 0.01292 0.79694 0.2741 0.0
H1189 H 0.96646 0.86223 0.22679 0.0
H1190 H 0.0166 0.88597 0.27224 0.0
H1191 H 0.97538 0.77979 0.22502 0.0
H1192 H 0.98094 0.86768 0.24405 0.0
H1193 H -0.00276 0.78758 0.25657 0.0
C1194 C 0.01075 0.81459 0.27 0.0
C1195 C 0.01594 0.84222 0.27465 0.0
C1196 C 0.97975 0.84829 0.23995 0.0
C1197 C -0.00228 0.83152 0.25478 0.0
C1198 C 0.9713 0.84508 0.23006 0.0
C1199 C 0.96989 0.82062 0.22442 0.0
C1200 C 0.98702 0.82697 0.24435 0.0
C1201 C 0.9762 0.79899 0.22912 0.0
C1202 C 0.00167 0.80917 0.26003 0.0
C1203 C 0.01267 0.86424 0.26902 0.0
N1204 N 0.9847 0.80276 0.23884 0.0
N1205 N 0.00368 0.85833 0.25945 0.0
H1206 H 0.88859 0.87121 0.72715 0.0
H1207 H 0.78022 0.8007 0.77503 0.0
H1208 H 0.80155 0.78358 0.72614 0.0
H1209 H 0.86442 0.89071 0.77333 0.0
H1210 H 0.78623 0.79246 0.75738 0.0
H1211 H 0.87958 0.8766 0.74441 0.0
C1212 C 0.86755 0.85293 0.73058 0.0
C1213 C 0.84575 0.82694 0.72516 0.0
C1214 C 0.80322 0.81402 0.7609 0.0
C1215 C 0.83502 0.83312 0.74512 0.0
C1216 C 0.79972 0.81881 0.77094 0.0
C1217 C 0.82193 0.84638 0.77567 0.0
C1218 C 0.82908 0.83701 0.75564 0.0
C1219 C 0.84681 0.869 0.77005 0.0
C1220 C 0.86233 0.85608 0.74049 0.0
C1221 C 0.81899 0.80398 0.73007 0.0
N1222 N 0.84972 0.86374 0.7604 0.0
N1223 N 0.81428 0.80764 0.7398 0.0
H1224 H 0.09722 0.95213 0.77242 0.0
H1225 H 0.21497 0.01847 0.72658 0.0
H1226 H 0.19472 0.9806 0.77577 0.0
H1227 H 0.12333 0.00906 0.72787 0.0
H1228 H 0.20855 0.00044 0.74388 0.0
H1229 H 0.10618 0.96628 0.7551 0.0
C1230 C 0.12056 0.96115 0.76947 0.0
C1231 C 0.14532 0.9655 0.77557 0.0
C1232 C 0.19001 0.00249 0.74033 0.0
C1233 C 0.156 0.98242 0.75564 0.0
C1234 C 0.1937 0.01288 0.7305 0.0
C1235 C 0.16964 0.01523 0.72576 0.0
C1236 C 0.16199 0.99422 0.74533 0.0
C1237 C 0.14252 0.00757 0.73116 0.0
C1238 C 0.12573 0.96941 0.75956 0.0
C1239 C 0.175 0.97693 0.7713 0.0
N1240 N 0.13945 -0.00266 0.74059 0.0
N1241 N 0.17965 0.98534 0.76157 0.0
H1242 H 0.94638 0.09636 0.72831 0.0
H1243 H 0.01319 0.2147 0.77406 0.0
H1244 H 0.9748 0.19389 0.725 0.0
H1245 H 0.00126 0.12197 0.77315 0.0
H1246 H -0.00499 0.20802 0.75678 0.0
H1247 H 0.95994 0.10515 0.74568 0.0
C1248 C 0.95525 0.11967 0.73128 0.0
C1249 C 0.95976 0.14449 0.72518 0.0
C1250 C -0.0035 0.18928 0.76041 0.0
C1251 C 0.97603 0.15499 0.74516 0.0
C1252 C 0.00697 0.19311 0.77023 0.0
C1253 C 0.00877 0.16887 0.77506 0.0
C1254 C 0.98759 0.16095 0.7555 0.0
C1255 C 0.00029 0.14134 0.76978 0.0
C1256 C 0.96317 0.12475 0.74122 0.0
C1257 C 0.97101 0.17413 0.72947 0.0
N1258 N 0.99003 0.13816 0.76035 0.0
N1259 N 0.97912 0.17869 0.73922 0.0
H1260 H 0.88255 0.52759 0.55938 0.0
H1261 H 0.76939 0.46845 0.60632 0.0
H1262 H 0.79752 0.43852 0.56191 0.0
H1263 H 0.86391 0.54551 0.60875 0.0
H1264 H 0.77865 0.46232 0.58913 0.0
H1265 H 0.8766 0.5384 0.5768 0.0
C1266 C 0.86291 0.51022 0.5636 0.0
C1267 C 0.84039 0.48218 0.55916 0.0
C1268 C 0.7975 0.48065 0.59336 0.0
C1269 C 0.83324 0.49458 0.57888 0.0
C1270 C 0.79215 0.48428 0.6032 0.0
C1271 C 0.81601 0.50734 0.60901 0.0
C1272 C 0.82703 0.50013 0.58919 0.0
C1273 C 0.8449 0.52739 0.60451 0.0
C1274 C 0.85947 0.51647 0.5735 0.0
C1275 C 0.81536 0.46055 0.56495 0.0
N1276 N 0.84974 0.5232 0.59484 0.0
N1277 N 0.81241 0.4673 0.57444 0.0
H1278 H 0.46499 0.35167 0.55951 0.0
H1279 H 0.51924 0.28943 0.60579 0.0
H1280 H 0.54666 0.34127 0.56059 0.0
H1281 H 0.448 0.31509 0.60872 0.0
H1282 H 0.52401 0.3026 0.5884 0.0
H1283 H 0.45421 0.33475 0.57692 0.0
C1284 C 0.48072 0.34607 0.56341 0.0
C1285 C 0.50676 0.34788 0.55858 0.0
C1286 C 0.50721 0.30535 0.59279 0.0
C1287 C 0.49435 0.32817 0.5783 0.0
C1288 C 0.50438 0.29767 0.60274 0.0
C1289 C 0.48342 0.30147 0.60874 0.0
C1290 C 0.48912 0.31723 0.58871 0.0
C1291 C 0.46449 0.31188 0.60433 0.0
C1292 C 0.47448 0.33632 0.5733 0.0
C1293 C 0.52628 0.34022 0.56395 0.0
N1294 N 0.46798 0.31972 0.59456 0.0
N1295 N 0.5196 0.33066 0.57345 0.0
H1296 H 0.64006 0.11214 0.55912 0.0
H1297 H 0.6845 0.22242 0.60672 0.0
H1298 H 0.6351 0.19676 0.56117 0.0
H1299 H 0.6774 0.1318 0.6082 0.0
H1300 H 0.66966 0.21345 0.58949 0.0
H1301 H 0.65509 0.11796 0.5767 0.0
C1302 C 0.64177 0.13167 0.56327 0.0
C1303 C 0.63647 0.15409 0.55866 0.0
C1304 C 0.6713 0.19539 0.59352 0.0
C1305 C 0.65396 0.16106 0.57859 0.0
C1306 C 0.67995 0.20059 0.60339 0.0
C1307 C 0.68203 0.17775 0.60895 0.0
C1308 C 0.66453 0.16705 0.58904 0.0
C1309 C 0.67606 0.15002 0.60417 0.0
C1310 C 0.65049 0.13505 0.57327 0.0
C1311 C 0.63915 0.179 0.56436 0.0
N1312 N 0.66741 0.14533 0.59447 0.0
N1313 N 0.64781 0.18183 0.57396 0.0
H1314 H 0.46192 0.10983 0.06064 0.0
H1315 H 0.50499 0.22877 0.10595 0.0
H1316 H 0.5341 0.20702 0.06073 0.0
H1317 H 0.44514 0.12938 0.10982 0.0
H1318 H 0.50837 0.22061 0.08843 0.0
H1319 H 0.44967 0.11556 0.07792 0.0
C1320 C 0.4752 0.13224 0.06428 0.0
C1321 C 0.49918 0.15793 0.05924 0.0
C1322 C 0.4943 0.20046 0.09305 0.0
C1323 C 0.485 0.16472 0.0788 0.0
C1324 C 0.49225 0.20516 0.10306 0.0
C1325 C 0.47505 0.17969 0.10935 0.0
C1326 C 0.47936 0.16995 0.08922 0.0
C1327 C 0.45869 0.14963 0.10519 0.0
C1328 C 0.46814 0.13551 0.0741 0.0
C1329 C 0.51554 0.18647 0.06428 0.0
N1330 N 0.46157 0.14548 0.09536 0.0
N1331 N 0.5081 0.18904 0.07372 0.0
H1332 H 0.88104 0.34905 0.05837 0.0
H1333 H 0.77928 0.32175 0.10692 0.0
H1334 H 0.81249 0.37792 0.06229 0.0
H1335 H 0.8617 0.31257 0.10766 0.0
H1336 H 0.79078 0.33937 0.09 0.0
H1337 H 0.87561 0.33468 0.07601 0.0
C1338 C 0.86535 0.3529 0.06297 0.0
C1339 C 0.84693 0.36437 0.05886 0.0
C1340 C 0.80653 0.33361 0.09381 0.0
C1341 C 0.84029 0.34766 0.07883 0.0
C1342 C 0.79983 0.3233 0.10351 0.0
C1343 C 0.81959 0.31571 0.10876 0.0
C1344 C 0.83319 0.33634 0.08918 0.0
C1345 C 0.84583 0.31817 0.10386 0.0
C1346 C 0.86213 0.34454 0.07299 0.0
C1347 C 0.82685 0.36878 0.0651 0.0
N1348 N 0.85192 0.3283 0.0943 0.0
N1349 N 0.82392 0.3602 0.07471 0.0
H1350 H 0.67906 0.45482 0.10677 0.0
H1351 H 0.6415 0.52441 0.0586 0.0
H1352 H 0.67903 0.54217 0.10754 0.0
H1353 H 0.63723 0.43511 0.0604 0.0
H1354 H 0.65514 0.53272 0.07628 0.0
H1355 H 0.66499 0.44918 0.08948 0.0
C1356 C 0.67622 0.47299 0.10328 0.0
C1357 C 0.68017 0.49899 0.10865 0.0
C1358 C 0.65103 0.5113 0.07278 0.0
C1359 C 0.66365 0.49251 0.08865 0.0
C1360 C 0.64311 0.50647 0.06271 0.0
C1361 C 0.63834 0.47908 0.058 0.0
C1362 C 0.65417 0.48853 0.07808 0.0
C1363 C 0.64086 0.45668 0.06367 0.0
C1364 C 0.66805 0.46969 0.09336 0.0
C1365 C 0.67627 0.52178 0.10366 0.0
N1366 N 0.64867 0.46197 0.07334 0.0
N1367 N 0.6681 0.51797 0.09392 0.0
H1368 H 0.52388 0.87989 0.94201 0.0
H1369 H 0.46083 0.76859 0.89457 0.0
H1370 H 0.4347 0.79489 0.93978 0.0
H1371 H 0.5428 0.86034 0.89299 0.0
H1372 H 0.45452 0.77757 0.91177 0.0
H1373 H 0.53387 0.8739 0.92451 0.0
C1374 C 0.50631 0.86024 0.93783 0.0
C1375 C 0.47847 0.83777 0.94237 0.0
C1376 C 0.47398 0.79586 0.90772 0.0
C1377 C 0.48989 0.8306 0.92255 0.0
C1378 C 0.47769 0.79067 0.89787 0.0
C1379 C 0.50228 0.81383 0.8923 0.0
C1380 C 0.49493 0.82453 0.91215 0.0
C1381 C 0.52351 0.84186 0.89703 0.0
C1382 C 0.51209 0.85676 0.92789 0.0
C1383 C 0.45658 0.8127 0.93664 0.0
N1384 N 0.51927 0.84655 0.90672 0.0
N1385 N 0.46284 0.80977 0.9271 0.0
H1386 H 0.11038 0.64137 0.9416 0.0
H1387 H 0.22389 0.69319 0.89464 0.0
H1388 H 0.19742 0.64097 0.93985 0.0
H1389 H 0.13102 0.6804 0.89262 0.0
H1390 H 0.21476 0.67811 0.91185 0.0
H1391 H 0.11674 0.65768 0.92413 0.0
C1392 C 0.13059 0.64438 0.93753 0.0
C1393 C 0.15347 0.63993 0.9422 0.0
C1394 C 0.19625 0.67857 0.90771 0.0
C1395 C 0.16105 0.65888 0.9224 0.0
C1396 C 0.20153 0.68735 0.89784 0.0
C1397 C 0.17811 0.68785 0.89214 0.0
C1398 C 0.16721 0.67002 0.91201 0.0
C1399 C 0.14971 0.68031 0.89677 0.0
C1400 C 0.13426 0.65382 0.9276 0.0
C1401 C 0.17924 0.64428 0.93662 0.0
N1402 N 0.14493 0.67148 0.90646 0.0
N1403 N 0.18234 0.6536 0.92708 0.0
H1404 H 0.30157 0.53023 0.89389 0.0
H1405 H 0.3492 0.46539 0.94102 0.0
H1406 H 0.3114 0.44835 0.89193 0.0
H1407 H 0.35348 0.5547 0.93914 0.0
H1408 H 0.3334 0.45601 0.9235 0.0
H1409 H 0.3166 0.53585 0.9111 0.0
C1410 C 0.30675 0.51324 0.89711 0.0
C1411 C 0.30541 0.48889 0.89143 0.0
C1412 C 0.33801 0.47767 0.92695 0.0
C1413 C 0.32317 0.49544 0.9113 0.0
C1414 C 0.34716 0.48311 0.93691 0.0
C1415 C 0.35252 0.5108 0.94156 0.0
C1416 C 0.33413 0.50008 0.92171 0.0
C1417 C 0.34941 0.5329 0.93592 0.0
C1418 C 0.31551 0.51656 0.90697 0.0
C1419 C 0.31215 0.46747 0.89606 0.0
N1420 N 0.34032 0.52698 0.92636 0.0
N1421 N 0.32094 0.47132 0.90576 0.0
H1422 H 0.19004 0.56226 0.43922 0.0
H1423 H 0.13252 0.44653 0.39268 0.0
H1424 H 0.11467 0.4669 0.44163 0.0
H1425 H 0.21399 0.5388 0.39345 0.0
H1426 H 0.12253 0.45278 0.41015 0.0
H1427 H 0.19498 0.55401 0.42183 0.0
C1428 C 0.17432 0.53954 0.43606 0.0
C1429 C 0.15207 0.51517 0.44191 0.0
C1430 C 0.14258 0.47152 0.40645 0.0
C1431 C 0.15789 0.50528 0.42187 0.0
C1432 C 0.14837 0.46793 0.39652 0.0
C1433 C 0.17412 0.49218 0.39159 0.0
C1434 C 0.16265 0.49959 0.4114 0.0
C1435 C 0.19381 0.51946 0.39689 0.0
C1436 C 0.17723 0.53477 0.4261 0.0
C1437 C 0.13214 0.48632 0.43736 0.0
N1438 N 0.1876 0.52238 0.40645 0.0
N1439 N 0.13568 0.48204 0.42759 0.0
H1440 H 0.469 0.69752 0.39537 0.0
H1441 H 0.52944 0.64456 0.44218 0.0
H1442 H 0.54655 0.6809 0.39271 0.0
H1443 H 0.4387 0.63661 0.43938 0.0
H1444 H 0.54026 0.66174 0.42479 0.0
H1445 H 0.46308 0.68173 0.41252 0.0
C1446 C 0.48499 0.69071 0.39843 0.0
C1447 C 0.5081 0.69022 0.39256 0.0
C1448 C 0.51796 0.65597 0.42802 0.0
C1449 C 0.50113 0.67154 0.41233 0.0
C1450 C 0.51171 0.64604 0.4379 0.0
C1451 C 0.4832 0.63936 0.44226 0.0
C1452 C 0.4956 0.65939 0.42259 0.0
C1453 C 0.46111 0.64176 0.4364 0.0
C1454 C 0.48147 0.68149 0.40824 0.0
C1455 C 0.52838 0.68154 0.39699 0.0
N1456 N 0.46787 0.65175 0.42694 0.0
N1457 N 0.5243 0.67228 0.40664 0.0
H1458 H 0.3466 0.87983 0.44079 0.0
H1459 H 0.28366 0.76185 0.39485 0.0
H1460 H 0.33406 0.78683 0.44026 0.0
H1461 H 0.30854 0.85852 0.39178 0.0
H1462 H 0.29668 0.77051 0.41225 0.0
H1463 H 0.32938 0.87306 0.42341 0.0
C1464 C 0.34044 0.85815 0.43703 0.0
C1465 C 0.34181 0.83388 0.44199 0.0
C1466 C 0.29926 0.78994 0.40783 0.0
C1467 C 0.32176 0.82587 0.4223 0.0
C1468 C 0.29167 0.78494 0.39787 0.0
C1469 C 0.29529 0.80956 0.39183 0.0
C1470 C 0.31089 0.81992 0.41188 0.0
C1471 C 0.30545 0.83891 0.3962 0.0
C1472 C 0.33051 0.85427 0.42714 0.0
C1473 C 0.33342 0.80623 0.43679 0.0
N1474 N 0.31322 0.84342 0.40598 0.0
N1475 N 0.32373 0.80303 0.42729 0.0
H1476 H 0.27605 0.16998 0.18807 0.0
H1477 H 0.38243 0.15288 0.14678 0.0
H1478 H 0.25827 0.16694 0.15674 0.0
H1479 H 0.40035 0.15581 0.1781 0.0
H1480 H 0.33567 0.15603 0.15033 0.0
H1481 H 0.32245 0.16608 0.18456 0.0
C1482 C 0.28223 0.16912 0.18044 0.0
C1483 C 0.26317 0.16867 0.17269 0.0
C1484 C 0.34968 0.1557 0.15643 0.0
C1485 C 0.31578 0.1634 0.16863 0.0
C1486 C 0.3762 0.15353 0.15441 0.0
C1487 C 0.39544 0.15425 0.16215 0.0
C1488 C 0.34239 0.15867 0.16626 0.0
C1489 C 0.38626 0.15527 0.1719 0.0
C1490 C 0.30854 0.16653 0.17845 0.0
C1491 C 0.27223 0.16731 0.16296 0.0
N1492 N 0.36054 0.15775 0.17367 0.0
N1493 N 0.29775 0.16447 0.16121 0.0
H1494 H 0.82645 0.08829 0.15577 0.0
H1495 H 0.83395 0.24115 0.17862 0.0
H1496 H 0.82183 0.10271 0.18704 0.0
H1497 H 0.84045 0.22741 0.1474 0.0
H1498 H 0.83085 0.19111 0.18189 0.0
H1499 H 0.82991 0.13849 0.15254 0.0
C1500 C 0.82559 0.10174 0.16195 0.0
C1501 C 0.82396 0.09132 0.1717 0.0
C1502 C 0.83323 0.19916 0.17433 0.0
C1503 C 0.82865 0.14918 0.16806 0.0
C1504 C 0.83532 0.22789 0.17246 0.0
C1505 C 0.83733 0.23843 0.16272 0.0
C1506 C 0.83304 0.18077 0.1664 0.0
C1507 C 0.83893 0.22022 0.15503 0.0
C1508 C 0.82789 0.13058 0.16011 0.0
C1509 C 0.82302 0.1098 0.17941 0.0
N1510 N 0.83646 0.19212 0.15703 0.0
N1511 N 0.82564 0.13797 0.17743 0.0
H1512 H 0.90522 0.73377 0.15493 0.0
H1513 H 0.75047 0.59142 0.17804 0.0
H1514 H 0.88967 0.7166 0.18626 0.0
H1515 H 0.76599 0.60838 0.14671 0.0
H1516 H 0.8008 0.63808 0.1812 0.0
H1517 H 0.85497 0.68701 0.15175 0.0
C1518 C 0.89152 0.71985 0.16114 0.0
C1519 C 0.90162 0.7292 0.17088 0.0
C1520 C 0.7931 0.63175 0.17363 0.0
C1521 C 0.84372 0.67603 0.16729 0.0
C1522 C 0.7642 0.60527 0.17182 0.0
C1523 C 0.75405 0.5959 0.16209 0.0
C1524 C 0.81205 0.64897 0.16565 0.0
C1525 C 0.77287 0.61473 0.15433 0.0
C1526 C 0.86266 0.69331 0.15932 0.0
C1527 C 0.88283 0.71028 0.17863 0.0
N1528 N 0.8011 0.64023 0.15628 0.0
N1529 N 0.85465 0.68474 0.17667 0.0
H1530 H 0.15949 0.40191 0.32183 0.0
H1531 H 0.17103 0.25881 0.34473 0.0
H1532 H 0.15552 0.38304 0.3531 0.0
H1533 H 0.17189 0.27574 0.31341 0.0
H1534 H 0.16793 0.30576 0.34795 0.0
H1535 H 0.16356 0.35551 0.31858 0.0
C1536 C 0.15891 0.3877 0.32801 0.0
C1537 C 0.15725 0.39643 0.33776 0.0
C1538 C 0.16908 0.29937 0.34037 0.0
C1539 C 0.16265 0.34367 0.33409 0.0
C1540 C 0.17118 0.27272 0.33853 0.0
C1541 C 0.17155 0.26323 0.32878 0.0
C1542 C 0.16727 0.31662 0.33241 0.0
C1543 C 0.17163 0.28216 0.32104 0.0
C1544 C 0.16154 0.36136 0.32614 0.0
C1545 C 0.1567 0.37717 0.34546 0.0
N1546 N 0.1692 0.30782 0.32302 0.0
N1547 N 0.15966 0.35183 0.34347 0.0
H1548 H 0.61024 0.76803 0.35447 0.0
H1549 H 0.71636 0.89425 0.31376 0.0
H1550 H 0.59083 0.75608 0.32317 0.0
H1551 H 0.73472 0.90665 0.34511 0.0
H1552 H 0.66953 0.84408 0.31707 0.0
H1553 H 0.65708 0.81811 0.35111 0.0
C1554 C 0.61614 0.77562 0.34687 0.0
C1555 C 0.5965 0.75789 0.33909 0.0
C1556 C 0.68366 0.85791 0.32323 0.0
C1557 C 0.64965 0.81554 0.33522 0.0
C1558 C 0.71023 0.88674 0.32135 0.0
C1559 C 0.72957 0.90462 0.32917 0.0
C1560 C 0.67646 0.84689 0.33299 0.0
C1561 C 0.72055 0.89361 0.33885 0.0
C1562 C 0.64272 0.8044 0.34497 0.0
C1563 C 0.60525 0.769 0.3294 0.0
N1564 N 0.69479 0.86533 0.34048 0.0
N1565 N 0.63105 0.79725 0.32775 0.0
H1566 H 0.09855 0.8187 0.31315 0.0
H1567 H 0.22233 0.83657 0.35445 0.0
H1568 H 0.08495 0.82503 0.34439 0.0
H1569 H 0.23749 0.83457 0.3231 0.0
H1570 H 0.17227 0.83322 0.35094 0.0
H1571 H 0.1486 0.82215 0.31674 0.0
C1572 C 0.10578 0.82019 0.32078 0.0
C1573 C 0.08759 0.82172 0.32848 0.0
C1574 C 0.18669 0.8338 0.34482 0.0
C1575 C 0.14519 0.82645 0.33262 0.0
C1576 C 0.21545 0.83606 0.34682 0.0
C1577 C 0.23408 0.83571 0.33906 0.0
C1578 C 0.17647 0.83106 0.335 0.0
C1579 C 0.22386 0.83483 0.32932 0.0
C1580 C 0.13454 0.82253 0.32282 0.0
C1581 C 0.09824 0.82384 0.33822 0.0
N1582 N 0.19562 0.83225 0.32758 0.0
N1583 N 0.12646 0.82639 0.34001 0.0
H1584 H 0.71584 0.8211 0.8136 0.0
H1585 H 0.60926 0.84011 0.85439 0.0
H1586 H 0.73412 0.82657 0.84494 0.0
H1587 H 0.59088 0.83451 0.82305 0.0
H1588 H 0.65607 0.83681 0.85103 0.0
H1589 H 0.66907 0.82449 0.81695 0.0
C1590 C 0.70971 0.82239 0.8212 0.0
C1591 C 0.729 0.82368 0.829 0.0
C1592 C 0.64194 0.83657 0.84488 0.0
C1593 C 0.67595 0.82835 0.83287 0.0
C1594 C 0.61538 0.83881 0.84679 0.0
C1595 C 0.59604 0.83745 0.83899 0.0
C1596 C 0.64915 0.83289 0.83512 0.0
C1597 C 0.60506 0.83557 0.8293 0.0
C1598 C 0.68318 0.82468 0.8231 0.0
C1599 C 0.71997 0.82556 0.83869 0.0
N1600 N 0.63082 0.83308 0.82764 0.0
N1601 N 0.69424 0.8281 0.84035 0.0
H1602 H 0.15397 0.7693 0.85411 0.0
H1603 H 0.17226 0.89406 0.8131 0.0
H1604 H 0.15932 0.756 0.82279 0.0
H1605 H 0.16828 0.90795 0.84444 0.0
H1606 H 0.16917 0.84408 0.81653 0.0
H1607 H 0.15762 0.81954 0.85068 0.0
C1608 C 0.15529 0.77664 0.8465 0.0
C1609 C 0.15646 0.75846 0.83873 0.0
C1610 C 0.16926 0.8582 0.82267 0.0
C1611 C 0.16143 0.81628 0.83476 0.0
C1612 C 0.17138 0.88692 0.82072 0.0
C1613 C 0.17037 0.90516 0.8285 0.0
C1614 C 0.16603 0.84762 0.83246 0.0
C1615 C 0.16905 0.89463 0.83821 0.0
C1616 C 0.15774 0.80551 0.84455 0.0
C1617 C 0.1584 0.76927 0.82902 0.0
N1618 N 0.16662 0.86641 0.83991 0.0
N1619 N 0.16107 0.79759 0.82732 0.0
H1620 H 0.2384 0.40285 0.82178 0.0
H1621 H 0.08536 0.25797 0.84472 0.0
H1622 H 0.22388 0.38413 0.85306 0.0
H1623 H 0.09915 0.27779 0.81347 0.0
H1624 H 0.13554 0.30474 0.84795 0.0
H1625 H 0.18825 0.35602 0.81857 0.0
C1626 C 0.22494 0.38858 0.82797 0.0
C1627 C 0.23531 0.39751 0.83771 0.0
C1628 C 0.12748 0.29902 0.84039 0.0
C1629 C 0.17752 0.34424 0.83409 0.0
C1630 C 0.09867 0.27247 0.83854 0.0
C1631 C 0.08809 0.26388 0.8288 0.0
C1632 C 0.14591 0.31707 0.83244 0.0
C1633 C 0.10637 0.28352 0.8211 0.0
C1634 C 0.19614 0.362 0.82613 0.0
C1635 C 0.21683 0.37814 0.84544 0.0
N1636 N 0.13454 0.30907 0.82308 0.0
N1637 N 0.18869 0.35255 0.84346 0.0
H1638 H 0.84158 0.61113 0.64715 0.0
H1639 H 0.82123 0.71775 0.68762 0.0
H1640 H 0.83333 0.59167 0.67845 0.0
H1641 H 0.82659 0.7352 0.65622 0.0
H1642 H 0.825 0.67108 0.68443 0.0
H1643 H 0.83863 0.65817 0.65044 0.0
C1644 C 0.83978 0.61706 0.65474 0.0
C1645 C 0.83753 0.59734 0.66253 0.0
C1646 C 0.82509 0.68499 0.67824 0.0
C1647 C 0.83337 0.65072 0.66633 0.0
C1648 C 0.82259 0.71146 0.68004 0.0
C1649 C 0.8237 0.73047 0.67218 0.0
C1650 C 0.82881 0.67756 0.6685 0.0
C1651 C 0.8257 0.72127 0.66252 0.0
C1652 C 0.83774 0.64375 0.6566 0.0
C1653 C 0.83506 0.60614 0.6722 0.0
N1654 N 0.82845 0.69561 0.66096 0.0
N1655 N 0.83277 0.63205 0.67382 0.0
H1656 H 0.38244 0.22793 0.64627 0.0
H1657 H 0.27728 0.10263 0.68732 0.0
H1658 H 0.40039 0.24184 0.67761 0.0
H1659 H 0.2566 0.09031 0.65611 0.0
H1660 H 0.32378 0.15285 0.68381 0.0
H1661 H 0.33562 0.17787 0.64971 0.0
C1662 C 0.37621 0.22078 0.65388 0.0
C1663 C 0.39546 0.23904 0.66166 0.0
C1664 C 0.3092 0.13904 0.67772 0.0
C1665 C 0.34237 0.18143 0.66564 0.0
C1666 C 0.28283 0.11018 0.67971 0.0
C1667 C 0.26294 0.09229 0.672 0.0
C1668 C 0.3157 0.15008 0.66795 0.0
C1669 C 0.27122 0.10336 0.66229 0.0
C1670 C 0.34965 0.19202 0.65584 0.0
C1671 C 0.3863 0.2285 0.67138 0.0
N1672 N 0.29685 0.13166 0.66055 0.0
N1673 N 0.36057 0.20025 0.67308 0.0
H1674 H 0.75003 0.15776 0.67884 0.0
H1675 H 0.90588 0.17126 0.65629 0.0
H1676 H 0.76638 0.15582 0.64758 0.0
H1677 H 0.88823 0.16978 0.68758 0.0
H1678 H 0.85585 0.16808 0.65297 0.0
H1679 H 0.80028 0.1615 0.68221 0.0
C1680 C 0.76392 0.15754 0.67268 0.0
C1681 C 0.75403 0.15658 0.66291 0.0
C1682 C 0.86303 0.16872 0.66056 0.0
C1683 C 0.81194 0.16163 0.66671 0.0
C1684 C 0.89177 0.17088 0.66247 0.0
C1685 C 0.9012 0.17063 0.67223 0.0
C1686 C 0.84355 0.16623 0.66847 0.0
C1687 C 0.88191 0.17002 0.67994 0.0
C1688 C 0.79277 0.15999 0.67461 0.0
C1689 C 0.77305 0.15646 0.65523 0.0
N1690 N 0.85385 0.16755 0.67789 0.0
N1691 N 0.80124 0.15926 0.6573 0.0
H1692 H 0.04973 0.48837 0.4799 0.0
H1693 H 0.94366 0.50597 0.5212 0.0
H1694 H 0.06811 0.4923 0.51121 0.0
H1695 H 0.92464 0.50101 0.48991 0.0
H1696 H 0.99047 0.50288 0.51764 0.0
H1697 H 0.00303 0.49169 0.48344 0.0
C1698 C 0.04363 0.48931 0.48753 0.0
C1699 C 0.06294 0.49019 0.49527 0.0
C1700 C 0.9762 0.50274 0.51155 0.0
C1701 C 0.00997 0.49478 0.49936 0.0
C1702 C 0.94965 0.50487 0.51357 0.0
C1703 C 0.93011 0.5036 0.50584 0.0
C1704 C 0.98322 0.49927 0.50173 0.0
C1705 C 0.93896 0.50198 0.49611 0.0
C1706 C 0.01714 0.49155 0.48954 0.0
C1707 C 0.05395 0.49161 0.50501 0.0
N1708 N 0.96472 0.49959 0.49433 0.0
N1709 N 0.02826 0.49412 0.50677 0.0
H1710 H 0.49359 0.42192 0.48877 0.0
H1711 H 0.50258 0.5755 0.5116 0.0
H1712 H 0.4883 0.43626 0.52002 0.0
H1713 H 0.50593 0.5604 0.48032 0.0
H1714 H 0.49965 0.52554 0.51485 0.0
H1715 H 0.49736 0.47225 0.48551 0.0
C1716 C 0.49265 0.43539 0.49494 0.0
C1717 C 0.49073 0.4249 0.50469 0.0
C1718 C 0.50131 0.53328 0.50728 0.0
C1719 C 0.49577 0.4829 0.50101 0.0
C1720 C 0.50331 0.56197 0.50542 0.0
C1721 C 0.50434 0.57209 0.49566 0.0
C1722 C 0.50024 0.51451 0.49933 0.0
C1723 C 0.50515 0.55353 0.48795 0.0
C1724 C 0.49512 0.46429 0.49307 0.0
C1725 C 0.48971 0.4434 0.51238 0.0
N1726 N 0.50279 0.52549 0.48995 0.0
N1727 N 0.49251 0.47163 0.51038 0.0
H1728 H 0.57262 0.06768 0.48932 0.0
H1729 H 0.4179 0.92397 0.51193 0.0
H1730 H 0.55627 0.05022 0.52062 0.0
H1731 H 0.43283 0.94394 0.48071 0.0
H1732 H 0.4682 0.97047 0.51529 0.0
H1733 H 0.52243 0.021 0.48603 0.0
C1734 C 0.55875 0.05371 0.49551 0.0
C1735 C 0.56861 0.06296 0.50527 0.0
C1736 C 0.46036 0.96485 0.50771 0.0
C1737 C 0.51078 0.00987 0.50154 0.0
C1738 C 0.43149 0.93845 0.50579 0.0
C1739 C 0.42118 0.92998 0.49602 0.0
C1740 C 0.47913 0.98285 0.49981 0.0
C1741 C 0.43982 0.94958 0.48836 0.0
C1742 C 0.52992 0.02722 0.49362 0.0
C1743 C 0.54961 0.04398 0.51297 0.0
N1744 N 0.46804 0.97496 0.49042 0.0
N1745 N 0.52146 0.01846 0.51095 0.0
H1746 H 0.48089 0.04727 0.02087 0.0
H1747 H 0.50368 0.94286 0.98016 0.0
H1748 H 0.49211 0.06897 0.98972 0.0
H1749 H 0.49676 0.92381 0.01147 0.0
H1750 H 0.50029 0.98965 0.98351 0.0
H1751 H 0.48435 0.00056 0.01746 0.0
C1752 C 0.48346 0.0419 0.01329 0.0
C1753 C 0.48634 0.06213 0.00558 0.0
C1754 C 0.4998 0.97538 0.98965 0.0
C1755 C 0.49108 0.00914 0.00165 0.0
C1756 C 0.50207 0.94883 0.98775 0.0
C1757 C 0.50037 0.92931 0.99554 0.0
C1758 C 0.49569 0.98237 0.9994 0.0
C1759 C 0.4981 0.93813 0.00523 0.0
C1760 C 0.4858 0.01541 0.01136 0.0
C1761 C 0.48985 0.05409 0.9959 0.0
N1762 N 0.49554 0.96387 0.00688 0.0
N1763 N 0.49236 0.02834 0.99422 0.0
H1764 H 0.92368 0.41486 0.98985 0.0
H1765 H 0.06652 0.57119 0.01202 0.0
H1766 H 0.94102 0.43291 0.02109 0.0
H1767 H 0.04802 0.55404 0.98079 0.0
H1768 H 0.02026 0.52084 0.01549 0.0
H1769 H 0.97063 0.46469 0.98638 0.0
C1770 C 0.93769 0.429 0.99599 0.0
C1771 C 0.92829 0.41977 0.00578 0.0
C1772 C 0.02616 0.52819 0.00788 0.0
C1773 C 0.98166 0.47719 0.00186 0.0
C1774 C 0.05242 0.55709 0.00589 0.0
C1775 C 0.06122 0.56681 0.99609 0.0
C1776 C 0.00862 0.50879 1.00002 0.0
C1777 C 0.04209 0.54752 0.98846 0.0
C1778 C 0.96433 0.45762 0.994 0.0
C1779 C 0.94735 0.43909 0.01343 0.0
N1780 N 0.01682 0.51929 0.99058 0.0
N1781 N 0.97297 0.46704 0.0113 0.0
H1782 H 0.43319 0.48641 0.97956 0.0
H1783 H 0.55854 0.5049 0.02037 0.0
H1784 H 0.42044 0.49231 0.01088 0.0
H1785 H 0.57194 0.501 0.98899 0.0
H1786 H 0.50835 0.50148 0.01704 0.0
H1787 H 0.48331 0.48976 0.98294 0.0
C1788 C 0.44062 0.48779 0.98716 0.0
C1789 C 0.42265 0.48922 0.99495 0.0
C1790 C 0.52241 0.50165 0.01088 0.0
C1791 C 0.48033 0.49383 0.99885 0.0
C1792 C 0.55124 0.50395 0.01277 0.0
C1793 C 0.56942 0.5031 0.00495 0.0
C1794 C 0.51167 0.4984 0.0011 0.0
C1795 C 0.55867 0.50165 0.99525 0.0
C1796 C 0.46942 0.49006 0.98908 0.0
C1797 C 0.43356 0.4912 0.00465 0.0
N1798 N 0.53038 0.49908 0.99361 0.0
N1799 N 0.46182 0.4937 0.00632 0.0
loop_
_geom_bond_atom_site_label_1
_geom_bond_atom_site_label_2
_geom_bond_distance
_geom_bond_site_symmetry_2
_ccdc_geom_bond_type
O0 Cd1 2.223 . S
O0 C8 1.315 . S
Cd1 O0 2.223 . S
Cd1 O4 2.297 . S
Cd1 O5 2.439 . S
Cd1 O11 2.240 . S
Cd2 O3 2.240 . S
Cd2 O10 2.223 . S
Cd2 O12 2.297 . S
Cd2 O13 2.439 . S
O3 Cd2 2.240 . S
O3 C8 1.279 . S
O4 Cd1 2.297 . S
O4 C6 1.247 . S
O5 Cd1 2.439 . S
O5 C6 1.208 . S
C6 O4 1.247 . S
C6 O5 1.208 . S
C7 O12 1.247 . S
C7 O13 1.208 . S
C8 O0 1.315 . S
C8 O3 1.279 . S
C9 O10 1.315 . S
C9 O11 1.279 . S
O10 Cd2 2.223 . S
O10 C9 1.315 . S
O11 Cd1 2.240 . S
O11 C9 1.279 . S
O12 Cd2 2.297 . S
O12 C7 1.247 . S
O13 Cd2 2.439 . S
O13 C7 1.208 . S
O14 Cd15 2.223 . S
O14 C22 1.315 . S
Cd15 O14 2.223 . S
Cd15 O18 2.297 . S
Cd15 O19 2.439 . S
Cd15 O25 2.240 1_545 S
Cd16 O17 2.240 . S
Cd16 O24 2.223 1_545 S
Cd16 O26 2.297 1_545 S
Cd16 O27 2.439 . S
O17 Cd16 2.240 . S
O17 C22 1.279 . S
O18 Cd15 2.297 . S
O18 C20 1.247 . S
O19 Cd15 2.439 . S
O19 C20 1.208 . S
C20 O18 1.247 . S
C20 O19 1.208 . S
C21 O26 1.247 . S
C21 O27 1.208 1_565 S
C22 O14 1.315 . S
C22 O17 1.279 . S
C23 O24 1.315 . S
C23 O25 1.279 . S
O24 Cd16 2.223 1_565 S
O24 C23 1.315 . S
O25 Cd15 2.240 1_565 S
O25 C23 1.279 . S
O26 Cd16 2.297 1_565 S
O26 C21 1.247 . S
O27 Cd16 2.439 . S
O27 C21 1.208 1_545 S
O28 Cd29 2.223 . S
O28 C36 1.315 . S
Cd29 O28 2.223 . S
Cd29 O32 2.297 . S
Cd29 O33 2.439 . S
Cd29 O39 2.240 1_655 S
Cd30 O31 2.240 . S
Cd30 O38 2.223 1_655 S
Cd30 O40 2.297 1_655 S
Cd30 O41 2.439 . S
O31 Cd30 2.240 . S
O31 C36 1.279 . S
O32 Cd29 2.297 . S
O32 C34 1.247 . S
O33 Cd29 2.439 . S
O33 C34 1.208 . S
C34 O32 1.247 . S
C34 O33 1.208 . S
C35 O40 1.247 . S
C35 O41 1.208 1_455 S
C36 O28 1.315 . S
C36 O31 1.279 . S
C37 O38 1.315 . S
C37 O39 1.279 . S
O38 Cd30 2.223 1_455 S
O38 C37 1.315 . S
O39 Cd29 2.240 1_455 S
O39 C37 1.279 . S
O40 Cd30 2.297 1_455 S
O40 C35 1.247 . S
O41 Cd30 2.439 . S
O41 C35 1.208 1_655 S
O42 Cd43 2.223 . S
O42 C50 1.315 . S
Cd43 O42 2.223 . S
Cd43 O46 2.297 . S
Cd43 O47 2.439 . S
Cd43 O53 2.240 . S
Cd44 O45 2.240 . S
Cd44 O52 2.223 . S
Cd44 O54 2.297 . S
Cd44 O55 2.439 . S
O45 Cd44 2.240 . S
O45 C50 1.279 . S
O46 Cd43 2.297 . S
O46 C48 1.247 . S
O47 Cd43 2.439 . S
O47 C48 1.208 . S
C48 O46 1.247 . S
C48 O47 1.208 . S
C49 O54 1.247 . S
C49 O55 1.208 . S
C50 O42 1.315 . S
C50 O45 1.279 . S
C51 O52 1.315 . S
C51 O53 1.279 . S
O52 Cd44 2.223 . S
O52 C51 1.315 . S
O53 Cd43 2.240 . S
O53 C51 1.279 . S
O54 Cd44 2.297 . S
O54 C49 1.247 . S
O55 Cd44 2.439 . S
O55 C49 1.208 . S
O56 Cd57 2.223 . S
O56 C64 1.315 . S
Cd57 O56 2.223 . S
Cd57 O60 2.297 . S
Cd57 O61 2.439 . S
Cd57 O67 2.240 1_565 S
Cd58 O59 2.240 . S
Cd58 O66 2.223 1_565 S
Cd58 O68 2.297 1_565 S
Cd58 O69 2.439 . S
O59 Cd58 2.240 . S
O59 C64 1.279 . S
O60 Cd57 2.297 . S
O60 C62 1.247 . S
O61 Cd57 2.439 . S
O61 C62 1.208 . S
C62 O60 1.247 . S
C62 O61 1.208 . S
C63 O68 1.247 . S
C63 O69 1.208 1_545 S
C64 O56 1.315 . S
C64 O59 1.279 . S
C65 O66 1.315 . S
C65 O67 1.279 . S
O66 Cd58 2.223 1_545 S
O66 C65 1.315 . S
O67 Cd57 2.240 1_545 S
O67 C65 1.279 . S
O68 Cd58 2.297 1_545 S
O68 C63 1.247 . S
O69 Cd58 2.439 . S
O69 C63 1.208 1_565 S
O70 Cd71 2.223 . S
O70 C78 1.315 . S
Cd71 O70 2.223 . S
Cd71 O74 2.297 . S
Cd71 O75 2.439 . S
Cd71 O81 2.240 1_455 S
Cd72 O73 2.240 . S
Cd72 O80 2.223 1_455 S
Cd72 O82 2.297 1_455 S
Cd72 O83 2.439 . S
O73 Cd72 2.240 . S
O73 C78 1.279 . S
O74 Cd71 2.297 . S
O74 C76 1.247 . S
O75 Cd71 2.439 . S
O75 C76 1.208 . S
C76 O74 1.247 . S
C76 O75 1.208 . S
C77 O82 1.247 . S
C77 O83 1.208 1_655 S
C78 O70 1.315 . S
C78 O73 1.279 . S
C79 O80 1.315 . S
C79 O81 1.279 . S
O80 Cd72 2.223 1_655 S
O80 C79 1.315 . S
O81 Cd71 2.240 1_655 S
O81 C79 1.279 . S
O82 Cd72 2.297 1_655 S
O82 C77 1.247 . S
O83 Cd72 2.439 . S
O83 C77 1.208 1_455 S
O84 Cd85 2.223 . S
O84 C92 1.315 . S
Cd85 O84 2.223 . S
Cd85 O88 2.297 . S
Cd85 O89 2.439 . S
Cd85 O95 2.240 . S
Cd86 O87 2.240 . S
Cd86 O94 2.223 . S
Cd86 O96 2.297 . S
Cd86 O97 2.439 . S
O87 Cd86 2.240 . S
O87 C92 1.279 . S
O88 Cd85 2.297 . S
O88 C90 1.247 . S
O89 Cd85 2.439 . S
O89 C90 1.208 . S
C90 O88 1.247 . S
C90 O89 1.208 . S
C91 O96 1.247 . S
C91 O97 1.208 . S
C92 O84 1.315 . S
C92 O87 1.279 . S
C93 O94 1.315 . S
C93 O95 1.279 . S
O94 Cd86 2.223 . S
O94 C93 1.315 . S
O95 Cd85 2.240 . S
O95 C93 1.279 . S
O96 Cd86 2.297 . S
O96 C91 1.247 . S
O97 Cd86 2.439 . S
O97 C91 1.208 . S
O98 Cd99 2.223 . S
O98 C106 1.315 . S
Cd99 O98 2.223 . S
Cd99 O102 2.297 . S
Cd99 O103 2.439 . S
Cd99 O109 2.240 1_565 S
Cd100 O101 2.240 . S
Cd100 O108 2.223 1_565 S
Cd100 O110 2.297 1_565 S
Cd100 O111 2.439 . S
O101 Cd100 2.240 . S
O101 C106 1.279 . S
O102 Cd99 2.297 . S
O102 C104 1.247 . S
O103 Cd99 2.439 . S
O103 C104 1.208 . S
C104 O102 1.247 . S
C104 O103 1.208 . S
C105 O110 1.247 . S
C105 O111 1.208 1_545 S
C106 O98 1.315 . S
C106 O101 1.279 . S
C107 O108 1.315 . S
C107 O109 1.279 . S
O108 Cd100 2.223 1_545 S
O108 C107 1.315 . S
O109 Cd99 2.240 1_545 S
O109 C107 1.279 . S
O110 Cd100 2.297 1_545 S
O110 C105 1.247 . S
O111 Cd100 2.439 . S
O111 C105 1.208 1_565 S
O112 Cd113 2.223 . S
O112 C120 1.315 . S
Cd113 O112 2.223 . S
Cd113 O116 2.297 . S
Cd113 O117 2.439 . S
Cd113 O123 2.240 1_455 S
Cd114 O115 2.240 . S
Cd114 O122 2.223 1_455 S
Cd114 O124 2.297 1_455 S
Cd114 O125 2.439 . S
O115 Cd114 2.240 . S
O115 C120 1.279 . S
O116 Cd113 2.297 . S
O116 C118 1.247 . S
O117 Cd113 2.439 . S
O117 C118 1.208 . S
C118 O116 1.247 . S
C118 O117 1.208 . S
C119 O124 1.247 . S
C119 O125 1.208 1_655 S
C120 O112 1.315 . S
C120 O115 1.279 . S
C121 O122 1.315 . S
C121 O123 1.279 . S
O122 Cd114 2.223 1_655 S
O122 C121 1.315 . S
O123 Cd113 2.240 1_655 S
O123 C121 1.279 . S
O124 Cd114 2.297 1_655 S
O124 C119 1.247 . S
O125 Cd114 2.439 . S
O125 C119 1.208 1_455 S
O126 Cd127 2.223 . S
O126 C134 1.315 . S
Cd127 O126 2.223 . S
Cd127 O130 2.297 . S
Cd127 O131 2.439 . S
Cd127 O137 2.240 . S
Cd128 O129 2.240 . S
Cd128 O136 2.223 . S
Cd128 O138 2.297 . S
Cd128 O139 2.439 . S
O129 Cd128 2.240 . S
O129 C134 1.279 . S
O130 Cd127 2.297 . S
O130 C132 1.247 . S
O131 Cd127 2.439 . S
O131 C132 1.208 . S
C132 O130 1.247 . S
C132 O131 1.208 . S
C133 O138 1.247 . S
C133 O139 1.208 . S
C134 O126 1.315 . S
C134 O129 1.279 . S
C135 O136 1.315 . S
C135 O137 1.279 . S
O136 Cd128 2.223 . S
O136 C135 1.315 . S
O137 Cd127 2.240 . S
O137 C135 1.279 . S
O138 Cd128 2.297 . S
O138 C133 1.247 . S
O139 Cd128 2.439 . S
O139 C133 1.208 . S
O140 Cd141 2.223 . S
O140 C148 1.315 . S
Cd141 O140 2.223 . S
Cd141 O144 2.297 . S
Cd141 O145 2.439 . S
Cd141 O151 2.240 1_545 S
Cd142 O143 2.240 . S
Cd142 O150 2.223 1_545 S
Cd142 O152 2.297 1_545 S
Cd142 O153 2.439 . S
O143 Cd142 2.240 . S
O143 C148 1.279 . S
O144 Cd141 2.297 . S
O144 C146 1.247 . S
O145 Cd141 2.439 . S
O145 C146 1.208 . S
C146 O144 1.247 . S
C146 O145 1.208 . S
C147 O152 1.247 . S
C147 O153 1.208 1_565 S
C148 O140 1.315 . S
C148 O143 1.279 . S
C149 O150 1.315 . S
C149 O151 1.279 . S
O150 Cd142 2.223 1_565 S
O150 C149 1.315 . S
O151 Cd141 2.240 1_565 S
O151 C149 1.279 . S
O152 Cd142 2.297 1_565 S
O152 C147 1.247 . S
O153 Cd142 2.439 . S
O153 C147 1.208 1_545 S
O154 Cd155 2.223 . S
O154 C162 1.315 . S
Cd155 O154 2.223 . S
Cd155 O158 2.297 . S
Cd155 O159 2.439 . S
Cd155 O165 2.240 1_655 S
Cd156 O157 2.240 . S
Cd156 O164 2.223 1_655 S
Cd156 O166 2.297 1_655 S
Cd156 O167 2.439 . S
O157 Cd156 2.240 . S
O157 C162 1.279 . S
O158 Cd155 2.297 . S
O158 C160 1.247 . S
O159 Cd155 2.439 . S
O159 C160 1.208 . S
C160 O158 1.247 . S
C160 O159 1.208 . S
C161 O166 1.247 . S
C161 O167 1.208 1_455 S
C162 O154 1.315 . S
C162 O157 1.279 . S
C163 O164 1.315 . S
C163 O165 1.279 . S
O164 Cd156 2.223 1_455 S
O164 C163 1.315 . S
O165 Cd155 2.240 1_455 S
O165 C163 1.279 . S
O166 Cd156 2.297 1_455 S
O166 C161 1.247 . S
O167 Cd156 2.439 . S
O167 C161 1.208 1_655 S
O168 Cd169 2.223 . S
O168 C176 1.315 . S
Cd169 O168 2.223 . S
Cd169 O172 2.297 . S
Cd169 O173 2.439 . S
Cd169 O179 2.240 . S
Cd170 O171 2.240 . S
Cd170 O178 2.223 . S
Cd170 O180 2.297 . S
Cd170 O181 2.439 . S
O171 Cd170 2.240 . S
O171 C176 1.279 . S
O172 Cd169 2.297 . S
O172 C174 1.247 . S
O173 Cd169 2.439 . S
O173 C174 1.208 . S
C174 O172 1.247 . S
C174 O173 1.208 . S
C175 O180 1.247 . S
C175 O181 1.208 . S
C176 O168 1.315 . S
C176 O171 1.279 . S
C177 O178 1.315 . S
C177 O179 1.279 . S
O178 Cd170 2.223 . S
O178 C177 1.315 . S
O179 Cd169 2.240 . S
O179 C177 1.279 . S
O180 Cd170 2.297 . S
O180 C175 1.247 . S
O181 Cd170 2.439 . S
O181 C175 1.208 . S
O182 Cd183 2.223 . S
O182 C190 1.315 . S
Cd183 O182 2.223 . S
Cd183 O186 2.297 . S
Cd183 O187 2.439 . S
Cd183 O193 2.240 . S
Cd184 O185 2.240 . S
Cd184 O192 2.223 . S
Cd184 O194 2.297 . S
Cd184 O195 2.439 . S
O185 Cd184 2.240 . S
O185 C190 1.279 . S
O186 Cd183 2.297 . S
O186 C188 1.247 . S
O187 Cd183 2.439 . S
O187 C188 1.208 . S
C188 O186 1.247 . S
C188 O187 1.208 . S
C189 O194 1.247 . S
C189 O195 1.208 . S
C190 O182 1.315 . S
C190 O185 1.279 . S
C191 O192 1.315 . S
C191 O193 1.279 . S
O192 Cd184 2.223 . S
O192 C191 1.315 . S
O193 Cd183 2.240 . S
O193 C191 1.279 . S
O194 Cd184 2.297 . S
O194 C189 1.247 . S
O195 Cd184 2.439 . S
O195 C189 1.208 . S
O196 Cd197 2.223 . S
O196 C204 1.315 . S
Cd197 O196 2.223 . S
Cd197 O200 2.297 . S
Cd197 O201 2.439 . S
Cd197 O207 2.240 . S
Cd198 O199 2.240 . S
Cd198 O206 2.223 . S
Cd198 O208 2.297 . S
Cd198 O209 2.439 . S
O199 Cd198 2.240 . S
O199 C204 1.279 . S
O200 Cd197 2.297 . S
O200 C202 1.247 . S
O201 Cd197 2.439 . S
O201 C202 1.208 . S
C202 O200 1.247 . S
C202 O201 1.208 . S
C203 O208 1.247 . S
C203 O209 1.208 . S
C204 O196 1.315 . S
C204 O199 1.279 . S
C205 O206 1.315 . S
C205 O207 1.279 . S
O206 Cd198 2.223 . S
O206 C205 1.315 . S
O207 Cd197 2.240 . S
O207 C205 1.279 . S
O208 Cd198 2.297 . S
O208 C203 1.247 . S
O209 Cd198 2.439 . S
O209 C203 1.208 . S
O210 Cd211 2.223 . S
O210 C218 1.315 . S
Cd211 O210 2.223 . S
Cd211 O214 2.297 . S
Cd211 O215 2.439 . S
Cd211 O221 2.240 . S
Cd212 O213 2.240 . S
Cd212 O220 2.223 . S
Cd212 O222 2.297 . S
Cd212 O223 2.439 . S
O213 Cd212 2.240 . S
O213 C218 1.279 . S
O214 Cd211 2.297 . S
O214 C216 1.247 . S
O215 Cd211 2.439 . S
O215 C216 1.208 . S
C216 O214 1.247 . S
C216 O215 1.208 . S
C217 O222 1.247 . S
C217 O223 1.208 . S
C218 O210 1.315 . S
C218 O213 1.279 . S
C219 O220 1.315 . S
C219 O221 1.279 . S
O220 Cd212 2.223 . S
O220 C219 1.315 . S
O221 Cd211 2.240 . S
O221 C219 1.279 . S
O222 Cd212 2.297 . S
O222 C217 1.247 . S
O223 Cd212 2.439 . S
O223 C217 1.208 . S
O224 Cd225 2.223 . S
O224 C232 1.315 . S
Cd225 O224 2.223 . S
Cd225 O228 2.297 . S
Cd225 O229 2.439 . S
Cd225 O235 2.240 . S
Cd226 O227 2.240 . S
Cd226 O234 2.223 . S
Cd226 O236 2.297 . S
Cd226 O237 2.439 . S
O227 Cd226 2.240 . S
O227 C232 1.279 . S
O228 Cd225 2.297 . S
O228 C230 1.247 . S
O229 Cd225 2.439 . S
O229 C230 1.208 . S
C230 O228 1.247 . S
C230 O229 1.208 . S
C231 O236 1.247 . S
C231 O237 1.208 . S
C232 O224 1.315 . S
C232 O227 1.279 . S
C233 O234 1.315 . S
C233 O235 1.279 . S
O234 Cd226 2.223 . S
O234 C233 1.315 . S
O235 Cd225 2.240 . S
O235 C233 1.279 . S
O236 Cd226 2.297 . S
O236 C231 1.247 . S
O237 Cd226 2.439 . S
O237 C231 1.208 . S
O238 Cd239 2.223 . S
O238 C246 1.315 . S
Cd239 O238 2.223 . S
Cd239 O242 2.297 . S
Cd239 O243 2.439 . S
Cd239 O249 2.240 . S
Cd240 O241 2.240 . S
Cd240 O248 2.223 . S
Cd240 O250 2.297 . S
Cd240 O251 2.439 . S
O241 Cd240 2.240 . S
O241 C246 1.279 . S
O242 Cd239 2.297 . S
O242 C244 1.247 . S
O243 Cd239 2.439 . S
O243 C244 1.208 . S
C244 O242 1.247 . S
C244 O243 1.208 . S
C245 O250 1.247 . S
C245 O251 1.208 . S
C246 O238 1.315 . S
C246 O241 1.279 . S
C247 O248 1.315 . S
C247 O249 1.279 . S
O248 Cd240 2.223 . S
O248 C247 1.315 . S
O249 Cd239 2.240 . S
O249 C247 1.279 . S
O250 Cd240 2.297 . S
O250 C245 1.247 . S
O251 Cd240 2.439 . S
O251 C245 1.208 . S
O252 Cd253 2.223 . S
O252 C260 1.315 . S
Cd253 O252 2.223 . S
Cd253 O256 2.297 . S
Cd253 O257 2.439 . S
Cd253 O263 2.240 . S
Cd254 O255 2.240 . S
Cd254 O262 2.223 . S
Cd254 O264 2.297 . S
Cd254 O265 2.439 . S
O255 Cd254 2.240 . S
O255 C260 1.279 . S
O256 Cd253 2.297 . S
O256 C258 1.247 . S
O257 Cd253 2.439 . S
O257 C258 1.208 . S
C258 O256 1.247 . S
C258 O257 1.208 . S
C259 O264 1.247 . S
C259 O265 1.208 . S
C260 O252 1.315 . S
C260 O255 1.279 . S
C261 O262 1.315 . S
C261 O263 1.279 . S
O262 Cd254 2.223 . S
O262 C261 1.315 . S
O263 Cd253 2.240 . S
O263 C261 1.279 . S
O264 Cd254 2.297 . S
O264 C259 1.247 . S
O265 Cd254 2.439 . S
O265 C259 1.208 . S
O266 Cd267 2.223 . S
O266 C274 1.315 . S
Cd267 O266 2.223 . S
Cd267 O270 2.297 . S
Cd267 O271 2.439 . S
Cd267 O277 2.240 . S
Cd268 O269 2.240 . S
Cd268 O276 2.223 . S
Cd268 O278 2.297 . S
Cd268 O279 2.439 . S
O269 Cd268 2.240 . S
O269 C274 1.279 . S
O270 Cd267 2.297 . S
O270 C272 1.247 . S
O271 Cd267 2.439 . S
O271 C272 1.208 . S
C272 O270 1.247 . S
C272 O271 1.208 . S
C273 O278 1.247 . S
C273 O279 1.208 . S
C274 O266 1.315 . S
C274 O269 1.279 . S
C275 O276 1.315 . S
C275 O277 1.279 . S
O276 Cd268 2.223 . S
O276 C275 1.315 . S
O277 Cd267 2.240 . S
O277 C275 1.279 . S
O278 Cd268 2.297 . S
O278 C273 1.247 . S
O279 Cd268 2.439 . S
O279 C273 1.208 . S
O280 Cd281 2.223 . S
O280 C288 1.315 . S
Cd281 O280 2.223 . S
Cd281 O284 2.297 . S
Cd281 O285 2.439 . S
Cd281 O291 2.240 . S
Cd282 O283 2.240 . S
Cd282 O290 2.223 . S
Cd282 O292 2.297 . S
Cd282 O293 2.439 . S
O283 Cd282 2.240 . S
O283 C288 1.279 . S
O284 Cd281 2.297 . S
O284 C286 1.247 . S
O285 Cd281 2.439 . S
O285 C286 1.208 . S
C286 O284 1.247 . S
C286 O285 1.208 . S
C287 O292 1.247 . S
C287 O293 1.208 . S
C288 O280 1.315 . S
C288 O283 1.279 . S
C289 O290 1.315 . S
C289 O291 1.279 . S
O290 Cd282 2.223 . S
O290 C289 1.315 . S
O291 Cd281 2.240 . S
O291 C289 1.279 . S
O292 Cd282 2.297 . S
O292 C287 1.247 . S
O293 Cd282 2.439 . S
O293 C287 1.208 . S
O294 Cd295 2.223 . S
O294 C302 1.315 . S
Cd295 O294 2.223 . S
Cd295 O298 2.296 . S
Cd295 O299 2.439 . S
Cd295 O305 2.240 . S
Cd296 O297 2.240 . S
Cd296 O304 2.223 . S
Cd296 O306 2.297 . S
Cd296 O307 2.439 . S
O297 Cd296 2.240 . S
O297 C302 1.279 . S
O298 Cd295 2.296 . S
O298 C300 1.245 . S
O299 Cd295 2.439 . S
O299 C300 1.208 . S
C300 O298 1.245 . S
C300 O299 1.208 . S
C301 O306 1.247 . S
C301 O307 1.208 . S
C302 O294 1.315 . S
C302 O297 1.279 . S
C303 O304 1.315 . S
C303 O305 1.279 . S
O304 Cd296 2.223 . S
O304 C303 1.315 . S
O305 Cd295 2.240 . S
O305 C303 1.279 . S
O306 Cd296 2.297 . S
O306 C301 1.247 . S
O307 Cd296 2.439 . S
O307 C301 1.208 . S
O308 Cd309 2.223 . S
O308 C316 1.315 . S
Cd309 O308 2.223 . S
Cd309 O312 2.296 . S
Cd309 O313 2.439 . S
Cd309 O319 2.240 . S
Cd310 O311 2.240 . S
Cd310 O318 2.223 . S
Cd310 O320 2.297 . S
Cd310 O321 2.439 . S
O311 Cd310 2.240 . S
O311 C316 1.279 . S
O312 Cd309 2.296 . S
O312 C314 1.245 . S
O313 Cd309 2.439 . S
O313 C314 1.208 . S
C314 O312 1.245 . S
C314 O313 1.208 . S
C315 O320 1.247 . S
C315 O321 1.208 . S
C316 O308 1.315 . S
C316 O311 1.279 . S
C317 O318 1.315 . S
C317 O319 1.279 . S
O318 Cd310 2.223 . S
O318 C317 1.315 . S
O319 Cd309 2.240 . S
O319 C317 1.279 . S
O320 Cd310 2.297 . S
O320 C315 1.247 . S
O321 Cd310 2.439 . S
O321 C315 1.208 . S
O322 Cd323 2.223 . S
O322 C330 1.315 . S
Cd323 O322 2.223 . S
Cd323 O326 2.296 . S
Cd323 O327 2.439 . S
Cd323 O333 2.240 . S
Cd324 O325 2.240 . S
Cd324 O332 2.223 . S
Cd324 O334 2.297 . S
Cd324 O335 2.439 . S
O325 Cd324 2.240 . S
O325 C330 1.279 . S
O326 Cd323 2.296 . S
O326 C328 1.245 . S
O327 Cd323 2.439 . S
O327 C328 1.208 . S
C328 O326 1.245 . S
C328 O327 1.208 . S
C329 O334 1.247 . S
C329 O335 1.208 . S
C330 O322 1.315 . S
C330 O325 1.279 . S
C331 O332 1.315 . S
C331 O333 1.279 . S
O332 Cd324 2.223 . S
O332 C331 1.315 . S
O333 Cd323 2.240 . S
O333 C331 1.279 . S
O334 Cd324 2.297 . S
O334 C329 1.247 . S
O335 Cd324 2.439 . S
O335 C329 1.208 . S
O336 Cd337 2.223 . S
O336 C344 1.315 . S
Cd337 O336 2.223 . S
Cd337 O340 2.297 . S
Cd337 O341 2.439 . S
Cd337 O347 2.240 . S
Cd338 O339 2.240 . S
Cd338 O346 2.223 . S
Cd338 O348 2.297 . S
Cd338 O349 2.439 . S
O339 Cd338 2.240 . S
O339 C344 1.279 . S
O340 Cd337 2.297 . S
O340 C342 1.247 . S
O341 Cd337 2.439 . S
O341 C342 1.208 . S
C342 O340 1.247 . S
C342 O341 1.208 . S
C343 O348 1.247 . S
C343 O349 1.208 . S
C344 O336 1.315 . S
C344 O339 1.279 . S
C345 O346 1.315 . S
C345 O347 1.279 . S
O346 Cd338 2.223 . S
O346 C345 1.315 . S
O347 Cd337 2.240 . S
O347 C345 1.279 . S
O348 Cd338 2.297 . S
O348 C343 1.247 . S
O349 Cd338 2.439 . S
O349 C343 1.208 . S
O350 Cd351 2.223 . S
O350 C358 1.315 . S
Cd351 O350 2.223 . S
Cd351 O354 2.297 . S
Cd351 O355 2.439 . S
Cd351 O361 2.240 . S
Cd352 O353 2.240 . S
Cd352 O360 2.223 . S
Cd352 O362 2.297 . S
Cd352 O363 2.439 . S
O353 Cd352 2.240 . S
O353 C358 1.279 . S
O354 Cd351 2.297 . S
O354 C356 1.247 . S
O355 Cd351 2.439 . S
O355 C356 1.208 . S
C356 O354 1.247 . S
C356 O355 1.208 . S
C357 O362 1.247 . S
C357 O363 1.208 . S
C358 O350 1.315 . S
C358 O353 1.279 . S
C359 O360 1.315 . S
C359 O361 1.279 . S
O360 Cd352 2.223 . S
O360 C359 1.315 . S
O361 Cd351 2.240 . S
O361 C359 1.279 . S
O362 Cd352 2.297 . S
O362 C357 1.247 . S
O363 Cd352 2.439 . S
O363 C357 1.208 . S
O364 Cd365 2.223 . S
O364 C372 1.315 . S
Cd365 O364 2.223 . S
Cd365 O368 2.297 . S
Cd365 O369 2.439 . S
Cd365 O375 2.240 . S
Cd366 O367 2.240 . S
Cd366 O374 2.223 . S
Cd366 O376 2.297 . S
Cd366 O377 2.439 . S
O367 Cd366 2.240 . S
O367 C372 1.279 . S
O368 Cd365 2.297 . S
O368 C370 1.247 . S
O369 Cd365 2.439 . S
O369 C370 1.208 . S
C370 O368 1.247 . S
C370 O369 1.208 . S
C371 O376 1.247 . S
C371 O377 1.208 . S
C372 O364 1.315 . S
C372 O367 1.279 . S
C373 O374 1.315 . S
C373 O375 1.279 . S
O374 Cd366 2.223 . S
O374 C373 1.315 . S
O375 Cd365 2.240 . S
O375 C373 1.279 . S
O376 Cd366 2.297 . S
O376 C371 1.247 . S
O377 Cd366 2.439 . S
O377 C371 1.208 . S
O378 Cd379 2.223 . S
O378 C386 1.315 . S
Cd379 O378 2.223 . S
Cd379 O382 2.296 . S
Cd379 O383 2.439 . S
Cd379 O389 2.240 . S
Cd380 O381 2.240 . S
Cd380 O388 2.223 . S
Cd380 O390 2.297 . S
Cd380 O391 2.439 . S
O381 Cd380 2.240 . S
O381 C386 1.279 . S
O382 Cd379 2.296 . S
O382 C384 1.245 . S
O383 Cd379 2.439 . S
O383 C384 1.208 . S
C384 O382 1.245 . S
C384 O383 1.208 . S
C385 O390 1.247 . S
C385 O391 1.208 . S
C386 O378 1.315 . S
C386 O381 1.279 . S
C387 O388 1.315 . S
C387 O389 1.279 . S
O388 Cd380 2.223 . S
O388 C387 1.315 . S
O389 Cd379 2.240 . S
O389 C387 1.279 . S
O390 Cd380 2.297 . S
O390 C385 1.247 . S
O391 Cd380 2.439 . S
O391 C385 1.208 . S
O392 Cd393 2.223 . S
O392 C400 1.315 . S
Cd393 O392 2.223 . S
Cd393 O396 2.296 . S
Cd393 O397 2.439 . S
Cd393 O403 2.240 . S
Cd394 O395 2.240 . S
Cd394 O402 2.223 . S
Cd394 O404 2.297 . S
Cd394 O405 2.439 . S
O395 Cd394 2.240 . S
O395 C400 1.279 . S
O396 Cd393 2.296 . S
O396 C398 1.245 . S
O397 Cd393 2.439 . S
O397 C398 1.208 . S
C398 O396 1.245 . S
C398 O397 1.208 . S
C399 O404 1.247 . S
C399 O405 1.208 . S
C400 O392 1.315 . S
C400 O395 1.279 . S
C401 O402 1.315 . S
C401 O403 1.279 . S
O402 Cd394 2.223 . S
O402 C401 1.315 . S
O403 Cd393 2.240 . S
O403 C401 1.279 . S
O404 Cd394 2.297 . S
O404 C399 1.247 . S
O405 Cd394 2.439 . S
O405 C399 1.208 . S
O406 Cd407 2.223 . S
O406 C414 1.315 . S
Cd407 O406 2.223 . S
Cd407 O410 2.296 . S
Cd407 O411 2.439 . S
Cd407 O417 2.240 . S
Cd408 O409 2.240 . S
Cd408 O416 2.223 . S
Cd408 O418 2.297 . S
Cd408 O419 2.439 . S
O409 Cd408 2.240 . S
O409 C414 1.279 . S
O410 Cd407 2.296 . S
O410 C412 1.245 . S
O411 Cd407 2.439 . S
O411 C412 1.208 . S
C412 O410 1.245 . S
C412 O411 1.208 . S
C413 O418 1.247 . S
C413 O419 1.208 . S
C414 O406 1.315 . S
C414 O409 1.279 . S
C415 O416 1.315 . S
C415 O417 1.279 . S
O416 Cd408 2.223 . S
O416 C415 1.315 . S
O417 Cd407 2.240 . S
O417 C415 1.279 . S
O418 Cd408 2.297 . S
O418 C413 1.247 . S
O419 Cd408 2.439 . S
O419 C413 1.208 . S
O420 Cd421 2.223 . S
O420 C428 1.315 . S
Cd421 O420 2.223 . S
Cd421 O424 2.297 . S
Cd421 O425 2.439 . S
Cd421 O431 2.240 . S
Cd422 O423 2.240 . S
Cd422 O430 2.223 . S
Cd422 O432 2.297 . S
Cd422 O433 2.439 . S
O423 Cd422 2.240 . S
O423 C428 1.279 . S
O424 Cd421 2.297 . S
O424 C426 1.247 . S
O425 Cd421 2.439 . S
O425 C426 1.208 . S
C426 O424 1.247 . S
C426 O425 1.208 . S
C427 O432 1.247 . S
C427 O433 1.208 . S
C428 O420 1.315 . S
C428 O423 1.279 . S
C429 O430 1.315 . S
C429 O431 1.279 . S
O430 Cd422 2.223 . S
O430 C429 1.315 . S
O431 Cd421 2.240 . S
O431 C429 1.279 . S
O432 Cd422 2.297 . S
O432 C427 1.247 . S
O433 Cd422 2.439 . S
O433 C427 1.208 . S
O434 Cd435 2.223 . S
O434 C442 1.315 . S
Cd435 O434 2.223 . S
Cd435 O438 2.297 . S
Cd435 O439 2.439 . S
Cd435 O445 2.240 . S
Cd436 O437 2.240 . S
Cd436 O444 2.223 . S
Cd436 O446 2.297 . S
Cd436 O447 2.439 . S
O437 Cd436 2.240 . S
O437 C442 1.279 . S
O438 Cd435 2.297 . S
O438 C440 1.247 . S
O439 Cd435 2.439 . S
O439 C440 1.208 . S
C440 O438 1.247 . S
C440 O439 1.208 . S
C441 O446 1.247 . S
C441 O447 1.208 . S
C442 O434 1.315 . S
C442 O437 1.279 . S
C443 O444 1.315 . S
C443 O445 1.279 . S
O444 Cd436 2.223 . S
O444 C443 1.315 . S
O445 Cd435 2.240 . S
O445 C443 1.279 . S
O446 Cd436 2.297 . S
O446 C441 1.247 . S
O447 Cd436 2.439 . S
O447 C441 1.208 . S
O448 Cd449 2.223 . S
O448 C456 1.315 . S
Cd449 O448 2.223 . S
Cd449 O452 2.297 . S
Cd449 O453 2.439 . S
Cd449 O459 2.240 . S
Cd450 O451 2.240 . S
Cd450 O458 2.223 . S
Cd450 O460 2.297 . S
Cd450 O461 2.439 . S
O451 Cd450 2.240 . S
O451 C456 1.279 . S
O452 Cd449 2.297 . S
O452 C454 1.247 . S
O453 Cd449 2.439 . S
O453 C454 1.208 . S
C454 O452 1.247 . S
C454 O453 1.208 . S
C455 O460 1.247 . S
C455 O461 1.208 . S
C456 O448 1.315 . S
C456 O451 1.279 . S
C457 O458 1.315 . S
C457 O459 1.279 . S
O458 Cd450 2.223 . S
O458 C457 1.315 . S
O459 Cd449 2.240 . S
O459 C457 1.279 . S
O460 Cd450 2.297 . S
O460 C455 1.247 . S
O461 Cd450 2.439 . S
O461 C455 1.208 . S
O462 Cd463 2.223 . S
O462 C470 1.315 . S
Cd463 O462 2.223 . S
Cd463 O466 2.297 . S
Cd463 O467 2.439 . S
Cd463 O473 2.240 . S
Cd464 O465 2.240 . S
Cd464 O472 2.223 . S
Cd464 O474 2.297 . S
Cd464 O475 2.439 . S
O465 Cd464 2.240 . S
O465 C470 1.279 . S
O466 Cd463 2.297 . S
O466 C468 1.247 . S
O467 Cd463 2.439 . S
O467 C468 1.208 . S
C468 O466 1.247 . S
C468 O467 1.208 . S
C469 O474 1.247 . S
C469 O475 1.208 . S
C470 O462 1.315 . S
C470 O465 1.279 . S
C471 O472 1.315 . S
C471 O473 1.279 . S
O472 Cd464 2.223 . S
O472 C471 1.315 . S
O473 Cd463 2.240 . S
O473 C471 1.279 . S
O474 Cd464 2.297 . S
O474 C469 1.247 . S
O475 Cd464 2.439 . S
O475 C469 1.208 . S
O476 Cd477 2.223 . S
O476 C484 1.315 . S
Cd477 O476 2.223 . S
Cd477 O480 2.297 . S
Cd477 O481 2.439 . S
Cd477 O487 2.240 . S
Cd478 O479 2.240 . S
Cd478 O486 2.223 . S
Cd478 O488 2.297 . S
Cd478 O489 2.439 . S
O479 Cd478 2.240 . S
O479 C484 1.279 . S
O480 Cd477 2.297 . S
O480 C482 1.247 . S
O481 Cd477 2.439 . S
O481 C482 1.208 . S
C482 O480 1.247 . S
C482 O481 1.208 . S
C483 O488 1.247 . S
C483 O489 1.208 . S
C484 O476 1.315 . S
C484 O479 1.279 . S
C485 O486 1.315 . S
C485 O487 1.279 . S
O486 Cd478 2.223 . S
O486 C485 1.315 . S
O487 Cd477 2.240 . S
O487 C485 1.279 . S
O488 Cd478 2.297 . S
O488 C483 1.247 . S
O489 Cd478 2.439 . S
O489 C483 1.208 . S
O490 Cd491 2.223 . S
O490 C498 1.315 . S
Cd491 O490 2.223 . S
Cd491 O494 2.297 . S
Cd491 O495 2.439 . S
Cd491 O501 2.240 . S
Cd492 O493 2.240 . S
Cd492 O500 2.223 . S
Cd492 O502 2.297 . S
Cd492 O503 2.439 . S
O493 Cd492 2.240 . S
O493 C498 1.279 . S
O494 Cd491 2.297 . S
O494 C496 1.247 . S
O495 Cd491 2.439 . S
O495 C496 1.208 . S
C496 O494 1.247 . S
C496 O495 1.208 . S
C497 O502 1.247 . S
C497 O503 1.208 . S
C498 O490 1.315 . S
C498 O493 1.279 . S
C499 O500 1.315 . S
C499 O501 1.279 . S
O500 Cd492 2.223 . S
O500 C499 1.315 . S
O501 Cd491 2.240 . S
O501 C499 1.279 . S
O502 Cd492 2.297 . S
O502 C497 1.247 . S
O503 Cd492 2.439 . S
O503 C497 1.208 . S
H504 C510 0.930 . S
H505 C514 0.930 . S
H506 C519 0.929 . S
H507 C517 0.929 . S
H508 C512 0.929 . S
H509 C518 0.929 . S
C510 H504 0.930 . S
C510 C511 1.367 . S
C510 C518 1.378 . S
C511 C510 1.367 . S
C511 C519 1.433 . S
C512 H508 0.929 . S
C512 C514 1.378 . S
C512 C516 1.350 . S
C513 C516 1.463 1_455 S
C513 C518 1.350 . S
C513 N521 1.427 . S
C514 H505 0.930 . S
C514 C512 1.378 . S
C514 C515 1.367 . S
C515 C514 1.367 . S
C515 C517 1.433 . S
C516 C512 1.350 . S
C516 C513 1.463 1_655 S
C516 N520 1.427 . S
C517 H507 0.929 . S
C517 C515 1.433 . S
C517 N520 1.384 . S
C518 H509 0.929 . S
C518 C510 1.378 . S
C518 C513 1.350 . S
C519 H506 0.929 . S
C519 C511 1.433 . S
C519 N521 1.384 . S
N520 C516 1.427 . S
N520 C517 1.384 . S
N521 C513 1.427 . S
N521 C519 1.384 . S
H522 C528 0.930 . S
H523 C532 0.930 . S
H524 C537 0.929 . S
H525 C535 0.929 . S
H526 C530 0.929 . S
H527 C536 0.929 . S
C528 H522 0.930 . S
C528 C529 1.367 . S
C528 C536 1.378 . S
C529 C528 1.367 . S
C529 C537 1.433 . S
C530 H526 0.929 . S
C530 C532 1.378 . S
C530 C534 1.350 . S
C531 C534 1.463 . S
C531 C536 1.350 . S
C531 N539 1.427 . S
C532 H523 0.930 . S
C532 C530 1.378 . S
C532 C533 1.367 . S
C533 C532 1.367 . S
C533 C535 1.433 . S
C534 C530 1.350 . S
C534 C531 1.463 . S
C534 N538 1.427 . S
C535 H525 0.929 . S
C535 C533 1.433 . S
C535 N538 1.384 . S
C536 H527 0.929 . S
C536 C528 1.378 . S
C536 C531 1.350 . S
C537 H524 0.929 . S
C537 C529 1.433 . S
C537 N539 1.384 . S
N538 C534 1.427 . S
N538 C535 1.384 . S
N539 C531 1.427 . S
N539 C537 1.384 . S
H540 C546 0.930 . S
H541 C550 0.930 . S
H542 C555 0.929 . S
H543 C553 0.929 . S
H544 C548 0.929 . S
H545 C554 0.929 . S
C546 H540 0.930 . S
C546 C547 1.367 . S
C546 C554 1.378 . S
C547 C546 1.367 . S
C547 C555 1.433 . S
C548 H544 0.929 . S
C548 C550 1.378 . S
C548 C552 1.350 . S
C549 C552 1.463 1_545 S
C549 C554 1.350 . S
C549 N557 1.427 . S
C550 H541 0.930 . S
C550 C548 1.378 . S
C550 C551 1.367 . S
C551 C550 1.367 . S
C551 C553 1.433 . S
C552 C548 1.350 . S
C552 C549 1.463 1_565 S
C552 N556 1.427 . S
C553 H543 0.929 . S
C553 C551 1.433 . S
C553 N556 1.384 . S
C554 H545 0.929 . S
C554 C546 1.378 . S
C554 C549 1.350 . S
C555 H542 0.929 . S
C555 C547 1.433 . S
C555 N557 1.384 . S
N556 C552 1.427 . S
N556 C553 1.384 . S
N557 C549 1.427 . S
N557 C555 1.384 . S
H558 C564 0.930 . S
H559 C568 0.930 . S
H560 C573 0.929 . S
H561 C571 0.929 . S
H562 C566 0.929 . S
H563 C572 0.929 . S
C564 H558 0.930 . S
C564 C565 1.367 . S
C564 C572 1.378 . S
C565 C564 1.367 . S
C565 C573 1.433 . S
C566 H562 0.929 . S
C566 C568 1.378 . S
C566 C570 1.350 . S
C567 C570 1.463 1_545 S
C567 C572 1.350 . S
C567 N575 1.427 . S
C568 H559 0.930 . S
C568 C566 1.378 . S
C568 C569 1.367 . S
C569 C568 1.367 . S
C569 C571 1.433 . S
C570 C566 1.350 . S
C570 C567 1.463 1_565 S
C570 N574 1.427 . S
C571 H561 0.929 . S
C571 C569 1.433 . S
C571 N574 1.384 . S
C572 H563 0.929 . S
C572 C564 1.378 . S
C572 C567 1.350 . S
C573 H560 0.929 . S
C573 C565 1.433 . S
C573 N575 1.384 . S
N574 C570 1.427 . S
N574 C571 1.384 . S
N575 C567 1.427 . S
N575 C573 1.384 . S
H576 C582 0.930 . S
H577 C586 0.930 . S
H578 C591 0.929 . S
H579 C589 0.929 . S
H580 C584 0.929 . S
H581 C590 0.929 . S
C582 H576 0.930 . S
C582 C583 1.367 . S
C582 C590 1.378 . S
C583 C582 1.367 . S
C583 C591 1.433 . S
C584 H580 0.929 . S
C584 C586 1.378 . S
C584 C588 1.350 . S
C585 C588 1.463 1_655 S
C585 C590 1.350 . S
C585 N593 1.427 . S
C586 H577 0.930 . S
C586 C584 1.378 . S
C586 C587 1.367 . S
C587 C586 1.367 . S
C587 C589 1.433 . S
C588 C584 1.350 . S
C588 C585 1.463 1_455 S
C588 N592 1.427 . S
C589 H579 0.929 . S
C589 C587 1.433 . S
C589 N592 1.384 . S
C590 H581 0.929 . S
C590 C582 1.378 . S
C590 C585 1.350 . S
C591 H578 0.929 . S
C591 C583 1.433 . S
C591 N593 1.384 . S
N592 C588 1.427 . S
N592 C589 1.384 . S
N593 C585 1.427 . S
N593 C591 1.384 . S
H594 C600 0.930 . S
H595 C604 0.930 . S
H596 C609 0.929 . S
H597 C607 0.929 . S
H598 C602 0.929 . S
H599 C608 0.929 . S
C600 H594 0.930 . S
C600 C601 1.367 . S
C600 C608 1.378 . S
C601 C600 1.367 . S
C601 C609 1.433 . S
C602 H598 0.929 . S
C602 C604 1.378 . S
C602 C606 1.350 . S
C603 C606 1.463 . S
C603 C608 1.350 . S
C603 N611 1.427 . S
C604 H595 0.930 . S
C604 C602 1.378 . S
C604 C605 1.367 . S
C605 C604 1.367 . S
C605 C607 1.433 . S
C606 C602 1.350 . S
C606 C603 1.463 . S
C606 N610 1.427 . S
C607 H597 0.929 . S
C607 C605 1.433 . S
C607 N610 1.384 . S
C608 H599 0.929 . S
C608 C600 1.378 . S
C608 C603 1.350 . S
C609 H596 0.929 . S
C609 C601 1.433 . S
C609 N611 1.384 . S
N610 C606 1.427 . S
N610 C607 1.384 . S
N611 C603 1.427 . S
N611 C609 1.384 . S
H612 C618 0.930 . S
H613 C622 0.930 . S
H614 C627 0.929 . S
H615 C625 0.929 . S
H616 C620 0.929 . S
H617 C626 0.929 . S
C618 H612 0.930 . S
C618 C619 1.367 . S
C618 C626 1.378 . S
C619 C618 1.367 . S
C619 C627 1.433 . S
C620 H616 0.929 . S
C620 C622 1.378 . S
C620 C624 1.350 . S
C621 C624 1.463 1_655 S
C621 C626 1.350 . S
C621 N629 1.427 . S
C622 H613 0.930 . S
C622 C620 1.378 . S
C622 C623 1.367 . S
C623 C622 1.367 . S
C623 C625 1.433 . S
C624 C620 1.350 . S
C624 C621 1.463 1_455 S
C624 N628 1.427 . S
C625 H615 0.929 . S
C625 C623 1.433 . S
C625 N628 1.384 . S
C626 H617 0.929 . S
C626 C618 1.378 . S
C626 C621 1.350 . S
C627 H614 0.929 . S
C627 C619 1.433 . S
C627 N629 1.384 . S
N628 C624 1.427 . S
N628 C625 1.384 . S
N629 C621 1.427 . S
N629 C627 1.384 . S
H630 C636 0.930 . S
H631 C640 0.930 . S
H632 C645 0.929 . S
H633 C643 0.929 . S
H634 C638 0.929 . S
H635 C644 0.929 . S
C636 H630 0.930 . S
C636 C637 1.367 . S
C636 C644 1.378 . S
C637 C636 1.367 . S
C637 C645 1.433 . S
C638 H634 0.929 . S
C638 C640 1.378 . S
C638 C642 1.350 . S
C639 C642 1.463 . S
C639 C644 1.350 . S
C639 N647 1.427 . S
C640 H631 0.930 . S
C640 C638 1.378 . S
C640 C641 1.367 . S
C641 C640 1.367 . S
C641 C643 1.433 . S
C642 C638 1.350 . S
C642 C639 1.463 . S
C642 N646 1.427 . S
C643 H633 0.929 . S
C643 C641 1.433 . S
C643 N646 1.384 . S
C644 H635 0.929 . S
C644 C636 1.378 . S
C644 C639 1.350 . S
C645 H632 0.929 . S
C645 C637 1.433 . S
C645 N647 1.384 . S
N646 C642 1.427 . S
N646 C643 1.384 . S
N647 C639 1.427 . S
N647 C645 1.384 . S
H648 C654 0.930 . S
H649 C658 0.930 . S
H650 C663 0.929 . S
H651 C661 0.929 . S
H652 C656 0.929 . S
H653 C662 0.929 . S
C654 H648 0.930 . S
C654 C655 1.367 . S
C654 C662 1.378 . S
C655 C654 1.367 . S
C655 C663 1.433 . S
C656 H652 0.929 . S
C656 C658 1.378 . S
C656 C660 1.350 . S
C657 C660 1.463 1_565 S
C657 C662 1.350 . S
C657 N665 1.427 . S
C658 H649 0.930 . S
C658 C656 1.378 . S
C658 C659 1.367 . S
C659 C658 1.367 . S
C659 C661 1.433 . S
C660 C656 1.350 . S
C660 C657 1.463 1_545 S
C660 N664 1.427 . S
C661 H651 0.929 . S
C661 C659 1.433 . S
C661 N664 1.384 . S
C662 H653 0.929 . S
C662 C654 1.378 . S
C662 C657 1.350 . S
C663 H650 0.929 . S
C663 C655 1.433 . S
C663 N665 1.384 . S
N664 C660 1.427 . S
N664 C661 1.384 . S
N665 C657 1.427 . S
N665 C663 1.384 . S
H666 C672 0.930 . S
H667 C676 0.930 . S
H668 C681 0.929 . S
H669 C679 0.929 . S
H670 C674 0.929 . S
H671 C680 0.929 . S
C672 H666 0.930 . S
C672 C673 1.367 . S
C672 C680 1.378 . S
C673 C672 1.367 . S
C673 C681 1.433 . S
C674 H670 0.929 . S
C674 C676 1.378 . S
C674 C678 1.350 . S
C675 C678 1.463 1_545 S
C675 C680 1.350 . S
C675 N683 1.427 . S
C676 H667 0.930 . S
C676 C674 1.378 . S
C676 C677 1.367 . S
C677 C676 1.367 . S
C677 C679 1.433 . S
C678 C674 1.350 . S
C678 C675 1.463 1_565 S
C678 N682 1.427 . S
C679 H669 0.929 . S
C679 C677 1.433 . S
C679 N682 1.384 . S
C680 H671 0.929 . S
C680 C672 1.378 . S
C680 C675 1.350 . S
C681 H668 0.929 . S
C681 C673 1.433 . S
C681 N683 1.384 . S
N682 C678 1.427 . S
N682 C679 1.384 . S
N683 C675 1.427 . S
N683 C681 1.384 . S
H684 C690 0.930 . S
H685 C694 0.930 . S
H686 C699 0.929 . S
H687 C697 0.929 . S
H688 C692 0.929 . S
H689 C698 0.929 . S
C690 H684 0.930 . S
C690 C691 1.367 . S
C690 C698 1.378 . S
C691 C690 1.367 . S
C691 C699 1.433 . S
C692 H688 0.929 . S
C692 C694 1.378 . S
C692 C696 1.350 . S
C693 C696 1.463 1_455 S
C693 C698 1.350 . S
C693 N701 1.427 . S
C694 H685 0.930 . S
C694 C692 1.378 . S
C694 C695 1.367 . S
C695 C694 1.367 . S
C695 C697 1.433 . S
C696 C692 1.350 . S
C696 C693 1.463 1_655 S
C696 N700 1.427 . S
C697 H687 0.929 . S
C697 C695 1.433 . S
C697 N700 1.384 . S
C698 H689 0.929 . S
C698 C690 1.378 . S
C698 C693 1.350 . S
C699 H686 0.929 . S
C699 C691 1.433 . S
C699 N701 1.384 . S
N700 C696 1.427 . S
N700 C697 1.384 . S
N701 C693 1.427 . S
N701 C699 1.384 . S
H702 C708 0.930 . S
H703 C712 0.930 . S
H704 C717 0.929 . S
H705 C715 0.929 . S
H706 C710 0.929 . S
H707 C716 0.929 . S
C708 H702 0.930 . S
C708 C709 1.367 . S
C708 C716 1.378 . S
C709 C708 1.367 . S
C709 C717 1.433 . S
C710 H706 0.929 . S
C710 C712 1.378 . S
C710 C714 1.350 . S
C711 C714 1.463 . S
C711 C716 1.350 . S
C711 N719 1.427 . S
C712 H703 0.930 . S
C712 C710 1.378 . S
C712 C713 1.367 . S
C713 C712 1.367 . S
C713 C715 1.433 . S
C714 C710 1.350 . S
C714 C711 1.463 . S
C714 N718 1.427 . S
C715 H705 0.929 . S
C715 C713 1.433 . S
C715 N718 1.384 . S
C716 H707 0.929 . S
C716 C708 1.378 . S
C716 C711 1.350 . S
C717 H704 0.929 . S
C717 C709 1.433 . S
C717 N719 1.384 . S
N718 C714 1.427 . S
N718 C715 1.384 . S
N719 C711 1.427 . S
N719 C717 1.384 . S
H720 C726 0.930 . S
H721 C730 0.930 . S
H722 C735 0.929 . S
H723 C733 0.929 . S
H724 C728 0.929 . S
H725 C734 0.929 . S
C726 H720 0.930 . S
C726 C727 1.367 . S
C726 C734 1.378 . S
C727 C726 1.367 . S
C727 C735 1.433 . S
C728 H724 0.929 . S
C728 C730 1.378 . S
C728 C732 1.350 . S
C729 C732 1.463 . S
C729 C734 1.350 . S
C729 N737 1.427 . S
C730 H721 0.930 . S
C730 C728 1.378 . S
C730 C731 1.367 . S
C731 C730 1.367 . S
C731 C733 1.433 . S
C732 C728 1.350 . S
C732 C729 1.463 . S
C732 N736 1.427 . S
C733 H723 0.929 . S
C733 C731 1.433 . S
C733 N736 1.384 . S
C734 H725 0.929 . S
C734 C726 1.378 . S
C734 C729 1.350 . S
C735 H722 0.929 . S
C735 C727 1.433 . S
C735 N737 1.384 . S
N736 C732 1.427 . S
N736 C733 1.384 . S
N737 C729 1.427 . S
N737 C735 1.384 . S
H738 C744 0.930 . S
H739 C748 0.930 . S
H740 C753 0.929 . S
H741 C751 0.929 . S
H742 C746 0.929 . S
H743 C752 0.929 . S
C744 H738 0.930 . S
C744 C745 1.367 . S
C744 C752 1.378 . S
C745 C744 1.367 . S
C745 C753 1.433 . S
C746 H742 0.929 . S
C746 C748 1.378 . S
C746 C750 1.350 . S
C747 C750 1.463 . S
C747 C752 1.350 . S
C747 N755 1.427 . S
C748 H739 0.930 . S
C748 C746 1.378 . S
C748 C749 1.367 . S
C749 C748 1.367 . S
C749 C751 1.433 . S
C750 C746 1.350 . S
C750 C747 1.463 . S
C750 N754 1.427 . S
C751 H741 0.929 . S
C751 C749 1.433 . S
C751 N754 1.384 . S
C752 H743 0.929 . S
C752 C744 1.378 . S
C752 C747 1.350 . S
C753 H740 0.929 . S
C753 C745 1.433 . S
C753 N755 1.384 . S
N754 C750 1.427 . S
N754 C751 1.384 . S
N755 C747 1.427 . S
N755 C753 1.384 . S
H756 C762 0.930 . S
H757 C766 0.930 . S
H758 C771 0.929 . S
H759 C769 0.929 . S
H760 C764 0.929 . S
H761 C770 0.929 . S
C762 H756 0.930 . S
C762 C763 1.367 . S
C762 C770 1.378 . S
C763 C762 1.367 . S
C763 C771 1.433 . S
C764 H760 0.929 . S
C764 C766 1.378 . S
C764 C768 1.350 . S
C765 C768 1.463 . S
C765 C770 1.350 . S
C765 N773 1.427 . S
C766 H757 0.930 . S
C766 C764 1.378 . S
C766 C767 1.367 . S
C767 C766 1.367 . S
C767 C769 1.433 . S
C768 C764 1.350 . S
C768 C765 1.463 . S
C768 N772 1.427 . S
C769 H759 0.929 . S
C769 C767 1.433 . S
C769 N772 1.384 . S
C770 H761 0.929 . S
C770 C762 1.378 . S
C770 C765 1.350 . S
C771 H758 0.929 . S
C771 C763 1.433 . S
C771 N773 1.384 . S
N772 C768 1.427 . S
N772 C769 1.384 . S
N773 C765 1.427 . S
N773 C771 1.384 . S
H774 C780 0.930 . S
H775 C784 0.930 . S
H776 C789 0.929 . S
H777 C787 0.929 . S
H778 C782 0.929 . S
H779 C788 0.929 . S
C780 H774 0.930 . S
C780 C781 1.367 . S
C780 C788 1.378 . S
C781 C780 1.367 . S
C781 C789 1.433 . S
C782 H778 0.929 . S
C782 C784 1.378 . S
C782 C786 1.350 . S
C783 C786 1.463 . S
C783 C788 1.350 . S
C783 N791 1.427 . S
C784 H775 0.930 . S
C784 C782 1.378 . S
C784 C785 1.367 . S
C785 C784 1.367 . S
C785 C787 1.433 . S
C786 C782 1.350 . S
C786 C783 1.463 . S
C786 N790 1.427 . S
C787 H777 0.929 . S
C787 C785 1.433 . S
C787 N790 1.384 . S
C788 H779 0.929 . S
C788 C780 1.378 . S
C788 C783 1.350 . S
C789 H776 0.929 . S
C789 C781 1.433 . S
C789 N791 1.384 . S
N790 C786 1.427 . S
N790 C787 1.384 . S
N791 C783 1.427 . S
N791 C789 1.384 . S
H792 C798 0.930 . S
H793 C802 0.930 . S
H794 C807 0.929 . S
H795 C805 0.929 . S
H796 C800 0.929 . S
H797 C806 0.929 . S
C798 H792 0.930 . S
C798 C799 1.367 . S
C798 C806 1.378 . S
C799 C798 1.367 . S
C799 C807 1.433 . S
C800 H796 0.929 . S
C800 C802 1.378 . S
C800 C804 1.350 . S
C801 C804 1.463 . S
C801 C806 1.350 . S
C801 N809 1.427 . S
C802 H793 0.930 . S
C802 C800 1.378 . S
C802 C803 1.367 . S
C803 C802 1.367 . S
C803 C805 1.433 . S
C804 C800 1.350 . S
C804 C801 1.463 . S
C804 N808 1.427 . S
C805 H795 0.929 . S
C805 C803 1.433 . S
C805 N808 1.384 . S
C806 H797 0.929 . S
C806 C798 1.378 . S
C806 C801 1.350 . S
C807 H794 0.929 . S
C807 C799 1.433 . S
C807 N809 1.384 . S
N808 C804 1.427 . S
N808 C805 1.384 . S
N809 C801 1.427 . S
N809 C807 1.384 . S
H810 C816 0.930 . S
H811 C820 0.930 . S
H812 C825 0.929 . S
H813 C823 0.929 . S
H814 C818 0.929 . S
H815 C824 0.929 . S
C816 H810 0.930 . S
C816 C817 1.367 . S
C816 C824 1.378 . S
C817 C816 1.367 . S
C817 C825 1.433 . S
C818 H814 0.929 . S
C818 C820 1.378 . S
C818 C822 1.350 . S
C819 C822 1.463 . S
C819 C824 1.350 . S
C819 N827 1.427 . S
C820 H811 0.930 . S
C820 C818 1.378 . S
C820 C821 1.367 . S
C821 C820 1.367 . S
C821 C823 1.433 . S
C822 C818 1.350 . S
C822 C819 1.463 . S
C822 N826 1.427 . S
C823 H813 0.929 . S
C823 C821 1.433 . S
C823 N826 1.384 . S
C824 H815 0.929 . S
C824 C816 1.378 . S
C824 C819 1.350 . S
C825 H812 0.929 . S
C825 C817 1.433 . S
C825 N827 1.384 . S
N826 C822 1.427 . S
N826 C823 1.384 . S
N827 C819 1.427 . S
N827 C825 1.384 . S
H828 C834 0.930 . S
H829 C838 0.930 . S
H830 C843 0.929 . S
H831 C841 0.929 . S
H832 C836 0.929 . S
H833 C842 0.929 . S
C834 H828 0.930 . S
C834 C835 1.367 . S
C834 C842 1.378 . S
C835 C834 1.367 . S
C835 C843 1.433 . S
C836 H832 0.929 . S
C836 C838 1.378 . S
C836 C840 1.350 . S
C837 C840 1.463 . S
C837 C842 1.350 . S
C837 N845 1.427 . S
C838 H829 0.930 . S
C838 C836 1.378 . S
C838 C839 1.367 . S
C839 C838 1.367 . S
C839 C841 1.433 . S
C840 C836 1.350 . S
C840 C837 1.463 . S
C840 N844 1.427 . S
C841 H831 0.929 . S
C841 C839 1.433 . S
C841 N844 1.384 . S
C842 H833 0.929 . S
C842 C834 1.378 . S
C842 C837 1.350 . S
C843 H830 0.929 . S
C843 C835 1.433 . S
C843 N845 1.384 . S
N844 C840 1.427 . S
N844 C841 1.384 . S
N845 C837 1.427 . S
N845 C843 1.384 . S
H846 C852 0.930 . S
H847 C856 0.930 . S
H848 C861 0.929 . S
H849 C859 0.929 . S
H850 C854 0.929 . S
H851 C860 0.929 . S
C852 H846 0.930 . S
C852 C853 1.367 . S
C852 C860 1.378 . S
C853 C852 1.367 . S
C853 C861 1.433 . S
C854 H850 0.929 . S
C854 C856 1.378 . S
C854 C858 1.350 . S
C855 C858 1.463 . S
C855 C860 1.350 . S
C855 N863 1.427 . S
C856 H847 0.930 . S
C856 C854 1.378 . S
C856 C857 1.367 . S
C857 C856 1.367 . S
C857 C859 1.433 . S
C858 C854 1.350 . S
C858 C855 1.463 . S
C858 N862 1.427 . S
C859 H849 0.929 . S
C859 C857 1.433 . S
C859 N862 1.384 . S
C860 H851 0.929 . S
C860 C852 1.378 . S
C860 C855 1.350 . S
C861 H848 0.929 . S
C861 C853 1.433 . S
C861 N863 1.384 . S
N862 C858 1.427 . S
N862 C859 1.384 . S
N863 C855 1.427 . S
N863 C861 1.384 . S
H864 C870 0.930 . S
H865 C874 0.930 . S
H866 C879 0.929 . S
H867 C877 0.929 . S
H868 C872 0.929 . S
H869 C878 0.929 . S
C870 H864 0.930 . S
C870 C871 1.367 . S
C870 C878 1.378 . S
C871 C870 1.367 . S
C871 C879 1.433 . S
C872 H868 0.929 . S
C872 C874 1.378 . S
C872 C876 1.350 . S
C873 C876 1.463 . S
C873 C878 1.350 . S
C873 N881 1.427 . S
C874 H865 0.930 . S
C874 C872 1.378 . S
C874 C875 1.367 . S
C875 C874 1.367 . S
C875 C877 1.433 . S
C876 C872 1.350 . S
C876 C873 1.463 . S
C876 N880 1.427 . S
C877 H867 0.929 . S
C877 C875 1.433 . S
C877 N880 1.384 . S
C878 H869 0.929 . S
C878 C870 1.378 . S
C878 C873 1.350 . S
C879 H866 0.929 . S
C879 C871 1.433 . S
C879 N881 1.384 . S
N880 C876 1.427 . S
N880 C877 1.384 . S
N881 C873 1.427 . S
N881 C879 1.384 . S
H882 C888 0.834 1_556 S
H883 C892 0.930 . S
H884 C897 0.929 . S
H885 C895 0.929 . S
H886 C890 0.929 . S
H887 C896 0.953 . S
C888 H882 0.834 1_554 S
C888 C889 1.367 . S
C888 C896 1.378 . S
C889 C888 1.367 . S
C889 C897 1.433 . S
C890 H886 0.929 . S
C890 C892 1.378 . S
C890 C894 1.350 . S
C891 C894 1.463 . S
C891 C896 1.350 . S
C891 N899 1.427 . S
C892 H883 0.930 . S
C892 C890 1.378 . S
C892 C893 1.367 . S
C893 C892 1.367 . S
C893 C895 1.433 . S
C894 C890 1.350 . S
C894 C891 1.463 . S
C894 N898 1.427 . S
C895 H885 0.929 . S
C895 C893 1.433 . S
C895 N898 1.384 . S
C896 H887 0.953 . S
C896 C888 1.378 . S
C896 C891 1.350 . S
C897 H884 0.929 . S
C897 C889 1.433 . S
C897 N899 1.384 . S
N898 C894 1.427 . S
N898 C895 1.384 . S
N899 C891 1.427 . S
N899 C897 1.384 . S
H900 C906 0.930 . S
H901 C910 0.975 . S
H902 C915 0.929 . S
H903 C913 0.929 . S
H904 C908 0.929 . S
H905 C914 0.929 . S
C906 H900 0.930 . S
C906 C907 1.367 . S
C906 C914 1.378 . S
C907 C906 1.367 . S
C907 C915 1.433 . S
C908 H904 0.929 . S
C908 C910 1.378 . S
C908 C912 1.350 . S
C909 C912 1.463 . S
C909 C914 1.350 . S
C909 N917 1.427 . S
C910 H901 0.975 . S
C910 C908 1.378 . S
C910 C911 1.367 . S
C911 C910 1.367 . S
C911 C913 1.433 . S
C912 C908 1.350 . S
C912 C909 1.463 . S
C912 N916 1.427 . S
C913 H903 0.929 . S
C913 C911 1.433 . S
C913 N916 1.384 . S
C914 H905 0.929 . S
C914 C906 1.378 . S
C914 C909 1.350 . S
C915 H902 0.929 . S
C915 C907 1.433 . S
C915 N917 1.384 . S
N916 C912 1.427 . S
N916 C913 1.384 . S
N917 C909 1.427 . S
N917 C915 1.384 . S
H918 C924 0.930 . S
H919 C928 0.930 . S
H920 C933 0.929 . S
H921 C931 0.929 . S
H922 C926 0.929 . S
H923 C932 0.929 . S
C924 H918 0.930 . S
C924 C925 1.367 . S
C924 C932 1.378 . S
C925 C924 1.367 . S
C925 C933 1.433 . S
C926 H922 0.929 . S
C926 C928 1.378 . S
C926 C930 1.350 . S
C927 C930 1.463 . S
C927 C932 1.350 . S
C927 N935 1.427 . S
C928 H919 0.930 . S
C928 C926 1.378 . S
C928 C929 1.367 . S
C929 C928 1.367 . S
C929 C931 1.433 . S
C930 C926 1.350 . S
C930 C927 1.463 . S
C930 N934 1.427 . S
C931 H921 0.929 . S
C931 C929 1.433 . S
C931 N934 1.384 . S
C932 H923 0.929 . S
C932 C924 1.378 . S
C932 C927 1.350 . S
C933 H920 0.929 . S
C933 C925 1.433 . S
C933 N935 1.384 . S
N934 C930 1.427 . S
N934 C931 1.384 . S
N935 C927 1.427 . S
N935 C933 1.384 . S
H936 C942 0.930 . S
H937 C946 0.930 . S
H938 C951 0.929 . S
H939 C949 0.929 . S
H940 C944 0.929 . S
H941 C950 0.929 . S
C942 H936 0.930 . S
C942 C943 1.367 . S
C942 C950 1.378 . S
C943 C942 1.367 . S
C943 C951 1.433 . S
C944 H940 0.929 . S
C944 C946 1.378 . S
C944 C948 1.350 . S
C945 C948 1.463 . S
C945 C950 1.350 . S
C945 N953 1.427 . S
C946 H937 0.930 . S
C946 C944 1.378 . S
C946 C947 1.367 . S
C947 C946 1.367 . S
C947 C949 1.433 . S
C948 C944 1.350 . S
C948 C945 1.463 . S
C948 N952 1.427 . S
C949 H939 0.929 . S
C949 C947 1.433 . S
C949 N952 1.384 . S
C950 H941 0.929 . S
C950 C942 1.378 . S
C950 C945 1.350 . S
C951 H938 0.929 . S
C951 C943 1.433 . S
C951 N953 1.384 . S
N952 C948 1.427 . S
N952 C949 1.384 . S
N953 C945 1.427 . S
N953 C951 1.384 . S
H954 C960 0.930 . S
H955 C964 0.930 . S
H956 C969 0.929 . S
H957 C967 0.929 . S
H958 C962 0.929 . S
H959 C968 0.929 . S
C960 H954 0.930 . S
C960 C961 1.367 . S
C960 C968 1.378 . S
C961 C960 1.367 . S
C961 C969 1.433 . S
C962 H958 0.929 . S
C962 C964 1.378 . S
C962 C966 1.350 . S
C963 C966 1.463 . S
C963 C968 1.350 . S
C963 N971 1.427 . S
C964 H955 0.930 . S
C964 C962 1.378 . S
C964 C965 1.367 . S
C965 C964 1.367 . S
C965 C967 1.433 . S
C966 C962 1.350 . S
C966 C963 1.463 . S
C966 N970 1.427 . S
C967 H957 0.929 . S
C967 C965 1.433 . S
C967 N970 1.384 . S
C968 H959 0.929 . S
C968 C960 1.378 . S
C968 C963 1.350 . S
C969 H956 0.929 . S
C969 C961 1.433 . S
C969 N971 1.384 . S
N970 C966 1.427 . S
N970 C967 1.384 . S
N971 C963 1.427 . S
N971 C969 1.384 . S
H972 C978 0.930 . S
H973 C982 0.930 . S
H974 C987 0.929 . S
H975 C985 0.929 . S
H976 C980 0.929 . S
H977 C986 0.929 . S
C978 H972 0.930 . S
C978 C979 1.367 . S
C978 C986 1.378 . S
C979 C978 1.367 . S
C979 C987 1.433 . S
C980 H976 0.929 . S
C980 C982 1.378 . S
C980 C984 1.350 . S
C981 C984 1.463 . S
C981 C986 1.350 . S
C981 N989 1.427 . S
C982 H973 0.930 . S
C982 C980 1.378 . S
C982 C983 1.367 . S
C983 C982 1.367 . S
C983 C985 1.433 . S
C984 C980 1.350 . S
C984 C981 1.463 . S
C984 N988 1.427 . S
C985 H975 0.929 . S
C985 C983 1.433 . S
C985 N988 1.384 . S
C986 H977 0.929 . S
C986 C978 1.378 . S
C986 C981 1.350 . S
C987 H974 0.929 . S
C987 C979 1.433 . S
C987 N989 1.384 . S
N988 C984 1.427 . S
N988 C985 1.384 . S
N989 C981 1.427 . S
N989 C987 1.384 . S
H990 C996 0.930 . S
H991 C1000 0.930 . S
H992 C1005 0.987 . S
H993 C1003 0.929 . S
H994 C998 0.929 . S
H995 C1004 0.929 . S
C996 H990 0.930 . S
C996 C997 1.367 . S
C996 C1004 1.378 . S
C997 C996 1.367 . S
C997 C1005 1.433 . S
C998 H994 0.929 . S
C998 C1000 1.378 . S
C998 C1002 1.350 . S
C999 C1002 1.463 . S
C999 C1004 1.350 . S
C999 N1007 1.427 . S
C1000 H991 0.930 . S
C1000 C998 1.378 . S
C1000 C1001 1.367 . S
C1001 C1000 1.367 . S
C1001 C1003 1.433 . S
C1002 C998 1.350 . S
C1002 C999 1.463 . S
C1002 N1006 1.427 . S
C1003 H993 0.929 . S
C1003 C1001 1.433 . S
C1003 N1006 1.384 . S
C1004 H995 0.929 . S
C1004 C996 1.378 . S
C1004 C999 1.350 . S
C1005 H992 0.987 . S
C1005 C997 1.433 . S
C1005 N1007 1.384 . S
N1006 C1002 1.427 . S
N1006 C1003 1.384 . S
N1007 C999 1.427 . S
N1007 C1005 1.384 . S
H1008 C1014 0.930 . S
H1009 C1018 0.943 . S
H1010 C1023 0.929 . S
H1011 C1021 0.929 . S
H1012 C1016 0.929 . S
H1013 C1022 0.929 . S
C1014 H1008 0.930 . S
C1014 C1015 1.367 . S
C1014 C1022 1.378 . S
C1015 C1014 1.367 . S
C1015 C1023 1.433 . S
C1016 H1012 0.929 . S
C1016 C1018 1.378 . S
C1016 C1020 1.350 . S
C1017 C1020 1.463 . S
C1017 C1022 1.350 . S
C1017 N1025 1.427 . S
C1018 H1009 0.943 . S
C1018 C1016 1.378 . S
C1018 C1019 1.367 . S
C1019 C1018 1.367 . S
C1019 C1021 1.433 . S
C1020 C1016 1.350 . S
C1020 C1017 1.463 . S
C1020 N1024 1.427 . S
C1021 H1011 0.929 . S
C1021 C1019 1.433 . S
C1021 N1024 1.384 . S
C1022 H1013 0.929 . S
C1022 C1014 1.378 . S
C1022 C1017 1.350 . S
C1023 H1010 0.929 . S
C1023 C1015 1.433 . S
C1023 N1025 1.384 . S
N1024 C1020 1.427 . S
N1024 C1021 1.384 . S
N1025 C1017 1.427 . S
N1025 C1023 1.384 . S
H1026 C1032 0.930 1_554 S
H1027 C1036 0.930 . S
H1028 C1041 0.929 . S
H1029 C1039 0.929 . S
H1030 C1034 0.929 . S
H1031 C1040 0.936 . S
C1032 H1026 0.930 1_556 S
C1032 C1033 1.367 . S
C1032 C1040 1.378 . S
C1033 C1032 1.367 . S
C1033 C1041 1.433 . S
C1034 H1030 0.929 . S
C1034 C1036 1.378 . S
C1034 C1038 1.350 . S
C1035 C1038 1.463 . S
C1035 C1040 1.350 . S
C1035 N1043 1.427 . S
C1036 H1027 0.930 . S
C1036 C1034 1.378 . S
C1036 C1037 1.367 . S
C1037 C1036 1.367 . S
C1037 C1039 1.433 . S
C1038 C1034 1.350 . S
C1038 C1035 1.463 . S
C1038 N1042 1.427 . S
C1039 H1029 0.929 . S
C1039 C1037 1.433 . S
C1039 N1042 1.384 . S
C1040 H1031 0.936 . S
C1040 C1032 1.378 . S
C1040 C1035 1.350 . S
C1041 H1028 0.929 . S
C1041 C1033 1.433 . S
C1041 N1043 1.384 . S
N1042 C1038 1.427 . S
N1042 C1039 1.384 . S
N1043 C1035 1.427 . S
N1043 C1041 1.384 . S
H1044 C1050 0.930 . S
H1045 C1054 0.930 . S
H1046 C1059 0.929 . S
H1047 C1057 0.929 . S
H1048 C1052 0.929 . S
H1049 C1058 0.929 . S
C1050 H1044 0.930 . S
C1050 C1051 1.367 . S
C1050 C1058 1.378 . S
C1051 C1050 1.367 . S
C1051 C1059 1.433 . S
C1052 H1048 0.929 . S
C1052 C1054 1.378 . S
C1052 C1056 1.350 . S
C1053 C1056 1.463 . S
C1053 C1058 1.350 . S
C1053 N1061 1.427 . S
C1054 H1045 0.930 . S
C1054 C1052 1.378 . S
C1054 C1055 1.367 . S
C1055 C1054 1.367 . S
C1055 C1057 1.433 . S
C1056 C1052 1.350 . S
C1056 C1053 1.463 . S
C1056 N1060 1.427 . S
C1057 H1047 0.929 . S
C1057 C1055 1.433 . S
C1057 N1060 1.384 . S
C1058 H1049 0.929 . S
C1058 C1050 1.378 . S
C1058 C1053 1.350 . S
C1059 H1046 0.929 . S
C1059 C1051 1.433 . S
C1059 N1061 1.384 . S
N1060 C1056 1.427 . S
N1060 C1057 1.384 . S
N1061 C1053 1.427 . S
N1061 C1059 1.384 . S
H1062 C1068 0.930 . S
H1063 C1072 0.930 . S
H1064 C1077 0.929 . S
H1065 C1075 0.929 . S
H1066 C1070 0.929 . S
H1067 C1076 0.929 . S
C1068 H1062 0.930 . S
C1068 C1069 1.367 . S
C1068 C1076 1.378 . S
C1069 C1068 1.367 . S
C1069 C1077 1.433 . S
C1070 H1066 0.929 . S
C1070 C1072 1.378 . S
C1070 C1074 1.350 . S
C1071 C1074 1.463 . S
C1071 C1076 1.350 . S
C1071 N1079 1.427 . S
C1072 H1063 0.930 . S
C1072 C1070 1.378 . S
C1072 C1073 1.367 . S
C1073 C1072 1.367 . S
C1073 C1075 1.433 . S
C1074 C1070 1.350 . S
C1074 C1071 1.463 . S
C1074 N1078 1.427 . S
C1075 H1065 0.929 . S
C1075 C1073 1.433 . S
C1075 N1078 1.384 . S
C1076 H1067 0.929 . S
C1076 C1068 1.378 . S
C1076 C1071 1.350 . S
C1077 H1064 0.929 . S
C1077 C1069 1.433 . S
C1077 N1079 1.384 . S
N1078 C1074 1.427 . S
N1078 C1075 1.384 . S
N1079 C1071 1.427 . S
N1079 C1077 1.384 . S
H1080 C1086 0.930 . S
H1081 C1090 0.930 . S
H1082 C1095 0.929 . S
H1083 C1093 0.929 . S
H1084 C1088 0.929 . S
H1085 C1094 0.929 . S
C1086 H1080 0.930 . S
C1086 C1087 1.367 . S
C1086 C1094 1.378 . S
C1087 C1086 1.367 . S
C1087 C1095 1.433 . S
C1088 H1084 0.929 . S
C1088 C1090 1.378 . S
C1088 C1092 1.350 . S
C1089 C1092 1.463 . S
C1089 C1094 1.350 . S
C1089 N1097 1.427 . S
C1090 H1081 0.930 . S
C1090 C1088 1.378 . S
C1090 C1091 1.367 . S
C1091 C1090 1.367 . S
C1091 C1093 1.433 . S
C1092 C1088 1.350 . S
C1092 C1089 1.463 . S
C1092 N1096 1.427 . S
C1093 H1083 0.929 . S
C1093 C1091 1.433 . S
C1093 N1096 1.384 . S
C1094 H1085 0.929 . S
C1094 C1086 1.378 . S
C1094 C1089 1.350 . S
C1095 H1082 0.929 . S
C1095 C1087 1.433 . S
C1095 N1097 1.384 . S
N1096 C1092 1.427 . S
N1096 C1093 1.384 . S
N1097 C1089 1.427 . S
N1097 C1095 1.384 . S
H1098 C1104 0.930 . S
H1099 C1108 0.930 . S
H1100 C1113 0.929 . S
H1101 C1111 0.929 . S
H1102 C1106 0.929 . S
H1103 C1112 0.929 . S
C1104 H1098 0.930 . S
C1104 C1105 1.367 . S
C1104 C1112 1.378 . S
C1105 C1104 1.367 . S
C1105 C1113 1.433 . S
C1106 H1102 0.929 . S
C1106 C1108 1.378 . S
C1106 C1110 1.350 . S
C1107 C1110 1.463 . S
C1107 C1112 1.350 . S
C1107 N1115 1.427 . S
C1108 H1099 0.930 . S
C1108 C1106 1.378 . S
C1108 C1109 1.367 . S
C1109 C1108 1.367 . S
C1109 C1111 1.433 . S
C1110 C1106 1.350 . S
C1110 C1107 1.463 . S
C1110 N1114 1.427 . S
C1111 H1101 0.929 . S
C1111 C1109 1.433 . S
C1111 N1114 1.384 . S
C1112 H1103 0.929 . S
C1112 C1104 1.378 . S
C1112 C1107 1.350 . S
C1113 H1100 0.929 . S
C1113 C1105 1.433 . S
C1113 N1115 1.384 . S
N1114 C1110 1.427 . S
N1114 C1111 1.384 . S
N1115 C1107 1.427 . S
N1115 C1113 1.384 . S
H1116 C1122 0.930 . S
H1117 C1126 0.930 . S
H1118 C1131 0.929 . S
H1119 C1129 0.929 . S
H1120 C1124 0.929 . S
H1121 C1130 0.929 . S
C1122 H1116 0.930 . S
C1122 C1123 1.367 . S
C1122 C1130 1.378 . S
C1123 C1122 1.367 . S
C1123 C1131 1.433 . S
C1124 H1120 0.929 . S
C1124 C1126 1.378 . S
C1124 C1128 1.350 . S
C1125 C1128 1.463 . S
C1125 C1130 1.350 . S
C1125 N1133 1.427 . S
C1126 H1117 0.930 . S
C1126 C1124 1.378 . S
C1126 C1127 1.367 . S
C1127 C1126 1.367 . S
C1127 C1129 1.433 . S
C1128 C1124 1.350 . S
C1128 C1125 1.463 . S
C1128 N1132 1.427 . S
C1129 H1119 0.929 . S
C1129 C1127 1.433 . S
C1129 N1132 1.384 . S
C1130 H1121 0.929 . S
C1130 C1122 1.378 . S
C1130 C1125 1.350 . S
C1131 H1118 0.929 . S
C1131 C1123 1.433 . S
C1131 N1133 1.384 . S
N1132 C1128 1.427 . S
N1132 C1129 1.384 . S
N1133 C1125 1.427 . S
N1133 C1131 1.384 . S
H1134 C1140 0.930 . S
H1135 C1144 0.930 . S
H1136 C1149 0.929 . S
H1137 C1147 0.929 . S
H1138 C1142 0.929 . S
H1139 C1148 0.929 . S
C1140 H1134 0.930 . S
C1140 C1141 1.367 . S
C1140 C1148 1.378 . S
C1141 C1140 1.367 . S
C1141 C1149 1.433 . S
C1142 H1138 0.929 . S
C1142 C1144 1.378 . S
C1142 C1146 1.350 . S
C1143 C1146 1.463 . S
C1143 C1148 1.350 . S
C1143 N1151 1.427 . S
C1144 H1135 0.930 . S
C1144 C1142 1.378 . S
C1144 C1145 1.367 . S
C1145 C1144 1.367 . S
C1145 C1147 1.433 . S
C1146 C1142 1.350 . S
C1146 C1143 1.463 . S
C1146 N1150 1.427 . S
C1147 H1137 0.929 . S
C1147 C1145 1.433 . S
C1147 N1150 1.384 . S
C1148 H1139 0.929 . S
C1148 C1140 1.378 . S
C1148 C1143 1.350 . S
C1149 H1136 0.929 . S
C1149 C1141 1.433 . S
C1149 N1151 1.384 . S
N1150 C1146 1.427 . S
N1150 C1147 1.384 . S
N1151 C1143 1.427 . S
N1151 C1149 1.384 . S
H1152 C1158 0.930 . S
H1153 C1162 0.930 . S
H1154 C1167 0.929 . S
H1155 C1165 0.929 . S
H1156 C1160 0.929 . S
H1157 C1166 0.929 . S
C1158 H1152 0.930 . S
C1158 C1159 1.367 . S
C1158 C1166 1.378 . S
C1159 C1158 1.367 . S
C1159 C1167 1.433 . S
C1160 H1156 0.929 . S
C1160 C1162 1.378 . S
C1160 C1164 1.350 . S
C1161 C1164 1.463 . S
C1161 C1166 1.350 . S
C1161 N1169 1.427 . S
C1162 H1153 0.930 . S
C1162 C1160 1.378 . S
C1162 C1163 1.367 . S
C1163 C1162 1.367 . S
C1163 C1165 1.433 . S
C1164 C1160 1.350 . S
C1164 C1161 1.463 . S
C1164 N1168 1.427 . S
C1165 H1155 0.929 . S
C1165 C1163 1.433 . S
C1165 N1168 1.384 . S
C1166 H1157 0.929 . S
C1166 C1158 1.378 . S
C1166 C1161 1.350 . S
C1167 H1154 0.929 . S
C1167 C1159 1.433 . S
C1167 N1169 1.384 . S
N1168 C1164 1.427 . S
N1168 C1165 1.384 . S
N1169 C1161 1.427 . S
N1169 C1167 1.384 . S
H1170 C1176 0.930 . S
H1171 C1180 0.930 . S
H1172 C1185 0.929 . S
H1173 C1183 0.929 . S
H1174 C1178 0.929 . S
H1175 C1184 0.929 . S
C1176 H1170 0.930 . S
C1176 C1177 1.367 . S
C1176 C1184 1.378 . S
C1177 C1176 1.367 . S
C1177 C1185 1.433 1_565 S
C1178 H1174 0.929 . S
C1178 C1180 1.378 . S
C1178 C1182 1.350 . S
C1179 C1182 1.463 1_565 S
C1179 C1184 1.350 . S
C1179 N1187 1.427 1_565 S
C1180 H1171 0.930 . S
C1180 C1178 1.378 . S
C1180 C1181 1.367 . S
C1181 C1180 1.367 . S
C1181 C1183 1.433 1_545 S
C1182 C1178 1.350 . S
C1182 C1179 1.463 1_545 S
C1182 N1186 1.427 1_545 S
C1183 H1173 0.929 . S
C1183 C1181 1.433 1_565 S
C1183 N1186 1.384 . S
C1184 H1175 0.929 . S
C1184 C1176 1.378 . S
C1184 C1179 1.350 . S
C1185 H1172 0.929 . S
C1185 C1177 1.433 1_545 S
C1185 N1187 1.384 . S
N1186 C1182 1.427 1_565 S
N1186 C1183 1.384 . S
N1187 C1179 1.427 1_545 S
N1187 C1185 1.384 . S
H1188 C1194 0.930 . S
H1189 C1198 0.930 . S
H1190 C1203 0.929 . S
H1191 C1201 0.929 . S
H1192 C1196 0.929 . S
H1193 C1202 0.929 . S
C1194 H1188 0.930 . S
C1194 C1195 1.367 . S
C1194 C1202 1.378 . S
C1195 C1194 1.367 . S
C1195 C1203 1.433 1_655 S
C1196 H1192 0.929 . S
C1196 C1198 1.378 . S
C1196 C1200 1.350 . S
C1197 C1200 1.463 1_655 S
C1197 C1202 1.350 . S
C1197 N1205 1.427 1_655 S
C1198 H1189 0.930 . S
C1198 C1196 1.378 . S
C1198 C1199 1.367 . S
C1199 C1198 1.367 . S
C1199 C1201 1.433 1_455 S
C1200 C1196 1.350 . S
C1200 C1197 1.463 1_455 S
C1200 N1204 1.427 1_455 S
C1201 H1191 0.929 . S
C1201 C1199 1.433 1_655 S
C1201 N1204 1.384 . S
C1202 H1193 0.929 . S
C1202 C1194 1.378 . S
C1202 C1197 1.350 . S
C1203 H1190 0.929 . S
C1203 C1195 1.433 1_455 S
C1203 N1205 1.384 . S
N1204 C1200 1.427 1_655 S
N1204 C1201 1.384 . S
N1205 C1197 1.427 1_455 S
N1205 C1203 1.384 . S
H1206 C1212 0.930 . S
H1207 C1216 0.930 . S
H1208 C1221 0.929 . S
H1209 C1219 0.929 . S
H1210 C1214 0.929 . S
H1211 C1220 0.929 . S
C1212 H1206 0.930 . S
C1212 C1213 1.367 . S
C1212 C1220 1.378 . S
C1213 C1212 1.367 . S
C1213 C1221 1.433 . S
C1214 H1210 0.929 . S
C1214 C1216 1.378 . S
C1214 C1218 1.350 . S
C1215 C1218 1.463 . S
C1215 C1220 1.350 . S
C1215 N1223 1.427 . S
C1216 H1207 0.930 . S
C1216 C1214 1.378 . S
C1216 C1217 1.367 . S
C1217 C1216 1.367 . S
C1217 C1219 1.433 . S
C1218 C1214 1.350 . S
C1218 C1215 1.463 . S
C1218 N1222 1.427 . S
C1219 H1209 0.929 . S
C1219 C1217 1.433 . S
C1219 N1222 1.384 . S
C1220 H1211 0.929 . S
C1220 C1212 1.378 . S
C1220 C1215 1.350 . S
C1221 H1208 0.929 . S
C1221 C1213 1.433 . S
C1221 N1223 1.384 . S
N1222 C1218 1.427 . S
N1222 C1219 1.384 . S
N1223 C1215 1.427 . S
N1223 C1221 1.384 . S
H1224 C1230 0.930 . S
H1225 C1234 0.930 . S
H1226 C1239 0.929 . S
H1227 C1237 0.929 . S
H1228 C1232 0.929 . S
H1229 C1238 0.929 . S
C1230 H1224 0.930 . S
C1230 C1231 1.367 1_565 S
C1230 C1238 1.378 . S
C1231 C1230 1.367 1_545 S
C1231 C1239 1.433 . S
C1232 H1228 0.929 . S
C1232 C1234 1.378 . S
C1232 C1236 1.350 1_545 S
C1233 C1236 1.463 1_545 S
C1233 C1238 1.350 1_545 S
C1233 N1241 1.427 . S
C1234 H1225 0.930 . S
C1234 C1232 1.378 . S
C1234 C1235 1.367 1_545 S
C1235 C1234 1.367 1_565 S
C1235 C1237 1.433 . S
C1236 C1232 1.350 1_565 S
C1236 C1233 1.463 1_565 S
C1236 N1240 1.427 . S
C1237 H1227 0.929 . S
C1237 C1235 1.433 . S
C1237 N1240 1.384 . S
C1238 H1229 0.929 . S
C1238 C1230 1.378 . S
C1238 C1233 1.350 1_565 S
C1239 H1226 0.929 . S
C1239 C1231 1.433 . S
C1239 N1241 1.384 . S
N1240 C1236 1.427 . S
N1240 C1237 1.384 . S
N1241 C1233 1.427 . S
N1241 C1239 1.384 . S
H1242 C1248 0.930 . S
H1243 C1252 0.930 . S
H1244 C1257 0.929 . S
H1245 C1255 0.929 . S
H1246 C1250 0.929 . S
H1247 C1256 0.929 . S
C1248 H1242 0.930 . S
C1248 C1249 1.367 1_655 S
C1248 C1256 1.378 . S
C1249 C1248 1.367 1_455 S
C1249 C1257 1.433 . S
C1250 H1246 0.929 . S
C1250 C1252 1.378 . S
C1250 C1254 1.350 1_455 S
C1251 C1254 1.463 1_455 S
C1251 C1256 1.350 1_455 S
C1251 N1259 1.427 . S
C1252 H1243 0.930 . S
C1252 C1250 1.378 . S
C1252 C1253 1.367 1_455 S
C1253 C1252 1.367 1_655 S
C1253 C1255 1.433 . S
C1254 C1250 1.350 1_655 S
C1254 C1251 1.463 1_655 S
C1254 N1258 1.427 . S
C1255 H1245 0.929 . S
C1255 C1253 1.433 . S
C1255 N1258 1.384 . S
C1256 H1247 0.929 . S
C1256 C1248 1.378 . S
C1256 C1251 1.350 1_655 S
C1257 H1244 0.929 . S
C1257 C1249 1.433 . S
C1257 N1259 1.384 . S
N1258 C1254 1.427 . S
N1258 C1255 1.384 . S
N1259 C1251 1.427 . S
N1259 C1257 1.384 . S
H1260 C1266 0.930 . S
H1261 C1270 0.930 . S
H1262 C1275 0.929 . S
H1263 C1273 0.929 . S
H1264 C1268 0.929 . S
H1265 C1274 0.929 . S
C1266 H1260 0.930 . S
C1266 C1267 1.367 . S
C1266 C1274 1.378 . S
C1267 C1266 1.367 . S
C1267 C1275 1.433 . S
C1268 H1264 0.929 . S
C1268 C1270 1.378 . S
C1268 C1272 1.350 . S
C1269 C1272 1.463 . S
C1269 C1274 1.350 . S
C1269 N1277 1.427 . S
C1270 H1261 0.930 . S
C1270 C1268 1.378 . S
C1270 C1271 1.367 . S
C1271 C1270 1.367 . S
C1271 C1273 1.433 . S
C1272 C1268 1.350 . S
C1272 C1269 1.463 . S
C1272 N1276 1.427 . S
C1273 H1263 0.929 . S
C1273 C1271 1.433 . S
C1273 N1276 1.384 . S
C1274 H1265 0.929 . S
C1274 C1266 1.378 . S
C1274 C1269 1.350 . S
C1275 H1262 0.929 . S
C1275 C1267 1.433 . S
C1275 N1277 1.384 . S
N1276 C1272 1.427 . S
N1276 C1273 1.384 . S
N1277 C1269 1.427 . S
N1277 C1275 1.384 . S
H1278 C1284 0.930 . S
H1279 C1288 0.930 . S
H1280 C1293 0.929 . S
H1281 C1291 0.929 . S
H1282 C1286 0.929 . S
H1283 C1292 0.929 . S
C1284 H1278 0.930 . S
C1284 C1285 1.367 . S
C1284 C1292 1.378 . S
C1285 C1284 1.367 . S
C1285 C1293 1.433 . S
C1286 H1282 0.929 . S
C1286 C1288 1.378 . S
C1286 C1290 1.350 . S
C1287 C1290 1.463 . S
C1287 C1292 1.350 . S
C1287 N1295 1.427 . S
C1288 H1279 0.930 . S
C1288 C1286 1.378 . S
C1288 C1289 1.367 . S
C1289 C1288 1.367 . S
C1289 C1291 1.433 . S
C1290 C1286 1.350 . S
C1290 C1287 1.463 . S
C1290 N1294 1.427 . S
C1291 H1281 0.929 . S
C1291 C1289 1.433 . S
C1291 N1294 1.384 . S
C1292 H1283 0.929 . S
C1292 C1284 1.378 . S
C1292 C1287 1.350 . S
C1293 H1280 0.929 . S
C1293 C1285 1.433 . S
C1293 N1295 1.384 . S
N1294 C1290 1.427 . S
N1294 C1291 1.384 . S
N1295 C1287 1.427 . S
N1295 C1293 1.384 . S
H1296 C1302 0.930 . S
H1297 C1306 0.930 . S
H1298 C1311 0.929 . S
H1299 C1309 0.929 . S
H1300 C1304 0.929 . S
H1301 C1310 0.929 . S
C1302 H1296 0.930 . S
C1302 C1303 1.367 . S
C1302 C1310 1.378 . S
C1303 C1302 1.367 . S
C1303 C1311 1.433 . S
C1304 H1300 0.929 . S
C1304 C1306 1.378 . S
C1304 C1308 1.350 . S
C1305 C1308 1.463 . S
C1305 C1310 1.350 . S
C1305 N1313 1.427 . S
C1306 H1297 0.930 . S
C1306 C1304 1.378 . S
C1306 C1307 1.367 . S
C1307 C1306 1.367 . S
C1307 C1309 1.433 . S
C1308 C1304 1.350 . S
C1308 C1305 1.463 . S
C1308 N1312 1.427 . S
C1309 H1299 0.929 . S
C1309 C1307 1.433 . S
C1309 N1312 1.384 . S
C1310 H1301 0.929 . S
C1310 C1302 1.378 . S
C1310 C1305 1.350 . S
C1311 H1298 0.929 . S
C1311 C1303 1.433 . S
C1311 N1313 1.384 . S
N1312 C1308 1.427 . S
N1312 C1309 1.384 . S
N1313 C1305 1.427 . S
N1313 C1311 1.384 . S
H1314 C1320 0.930 . S
H1315 C1324 0.930 . S
H1316 C1329 0.929 . S
H1317 C1327 0.929 . S
H1318 C1322 0.929 . S
H1319 C1328 0.929 . S
C1320 H1314 0.930 . S
C1320 C1321 1.367 . S
C1320 C1328 1.378 . S
C1321 C1320 1.367 . S
C1321 C1329 1.433 . S
C1322 H1318 0.929 . S
C1322 C1324 1.378 . S
C1322 C1326 1.350 . S
C1323 C1326 1.463 . S
C1323 C1328 1.350 . S
C1323 N1331 1.427 . S
C1324 H1315 0.930 . S
C1324 C1322 1.378 . S
C1324 C1325 1.367 . S
C1325 C1324 1.367 . S
C1325 C1327 1.433 . S
C1326 C1322 1.350 . S
C1326 C1323 1.463 . S
C1326 N1330 1.427 . S
C1327 H1317 0.929 . S
C1327 C1325 1.433 . S
C1327 N1330 1.384 . S
C1328 H1319 0.929 . S
C1328 C1320 1.378 . S
C1328 C1323 1.350 . S
C1329 H1316 0.929 . S
C1329 C1321 1.433 . S
C1329 N1331 1.384 . S
N1330 C1326 1.427 . S
N1330 C1327 1.384 . S
N1331 C1323 1.427 . S
N1331 C1329 1.384 . S
H1332 C1338 0.930 . S
H1333 C1342 0.930 . S
H1334 C1347 0.929 . S
H1335 C1345 0.929 . S
H1336 C1340 0.929 . S
H1337 C1346 0.929 . S
C1338 H1332 0.930 . S
C1338 C1339 1.367 . S
C1338 C1346 1.378 . S
C1339 C1338 1.367 . S
C1339 C1347 1.433 . S
C1340 H1336 0.929 . S
C1340 C1342 1.378 . S
C1340 C1344 1.350 . S
C1341 C1344 1.463 . S
C1341 C1346 1.350 . S
C1341 N1349 1.427 . S
C1342 H1333 0.930 . S
C1342 C1340 1.378 . S
C1342 C1343 1.367 . S
C1343 C1342 1.367 . S
C1343 C1345 1.433 . S
C1344 C1340 1.350 . S
C1344 C1341 1.463 . S
C1344 N1348 1.427 . S
C1345 H1335 0.929 . S
C1345 C1343 1.433 . S
C1345 N1348 1.384 . S
C1346 H1337 0.929 . S
C1346 C1338 1.378 . S
C1346 C1341 1.350 . S
C1347 H1334 0.929 . S
C1347 C1339 1.433 . S
C1347 N1349 1.384 . S
N1348 C1344 1.427 . S
N1348 C1345 1.384 . S
N1349 C1341 1.427 . S
N1349 C1347 1.384 . S
H1350 C1356 0.930 . S
H1351 C1360 0.930 . S
H1352 C1365 0.929 . S
H1353 C1363 0.929 . S
H1354 C1358 0.929 . S
H1355 C1364 0.929 . S
C1356 H1350 0.930 . S
C1356 C1357 1.367 . S
C1356 C1364 1.378 . S
C1357 C1356 1.367 . S
C1357 C1365 1.433 . S
C1358 H1354 0.929 . S
C1358 C1360 1.378 . S
C1358 C1362 1.350 . S
C1359 C1362 1.463 . S
C1359 C1364 1.350 . S
C1359 N1367 1.427 . S
C1360 H1351 0.930 . S
C1360 C1358 1.378 . S
C1360 C1361 1.367 . S
C1361 C1360 1.367 . S
C1361 C1363 1.433 . S
C1362 C1358 1.350 . S
C1362 C1359 1.463 . S
C1362 N1366 1.427 . S
C1363 H1353 0.929 . S
C1363 C1361 1.433 . S
C1363 N1366 1.384 . S
C1364 H1355 0.929 . S
C1364 C1356 1.378 . S
C1364 C1359 1.350 . S
C1365 H1352 0.929 . S
C1365 C1357 1.433 . S
C1365 N1367 1.384 . S
N1366 C1362 1.427 . S
N1366 C1363 1.384 . S
N1367 C1359 1.427 . S
N1367 C1365 1.384 . S
H1368 C1374 0.930 . S
H1369 C1378 0.930 . S
H1370 C1383 0.929 . S
H1371 C1381 0.929 . S
H1372 C1376 0.929 . S
H1373 C1382 0.929 . S
C1374 H1368 0.930 . S
C1374 C1375 1.367 . S
C1374 C1382 1.378 . S
C1375 C1374 1.367 . S
C1375 C1383 1.433 . S
C1376 H1372 0.929 . S
C1376 C1378 1.378 . S
C1376 C1380 1.350 . S
C1377 C1380 1.463 . S
C1377 C1382 1.350 . S
C1377 N1385 1.427 . S
C1378 H1369 0.930 . S
C1378 C1376 1.378 . S
C1378 C1379 1.367 . S
C1379 C1378 1.367 . S
C1379 C1381 1.433 . S
C1380 C1376 1.350 . S
C1380 C1377 1.463 . S
C1380 N1384 1.427 . S
C1381 H1371 0.929 . S
C1381 C1379 1.433 . S
C1381 N1384 1.384 . S
C1382 H1373 0.929 . S
C1382 C1374 1.378 . S
C1382 C1377 1.350 . S
C1383 H1370 0.929 . S
C1383 C1375 1.433 . S
C1383 N1385 1.384 . S
N1384 C1380 1.427 . S
N1384 C1381 1.384 . S
N1385 C1377 1.427 . S
N1385 C1383 1.384 . S
H1386 C1392 0.930 . S
H1387 C1396 0.930 . S
H1388 C1401 0.929 . S
H1389 C1399 0.929 . S
H1390 C1394 0.929 . S
H1391 C1400 0.929 . S
C1392 H1386 0.930 . S
C1392 C1393 1.367 . S
C1392 C1400 1.378 . S
C1393 C1392 1.367 . S
C1393 C1401 1.433 . S
C1394 H1390 0.929 . S
C1394 C1396 1.378 . S
C1394 C1398 1.350 . S
C1395 C1398 1.463 . S
C1395 C1400 1.350 . S
C1395 N1403 1.427 . S
C1396 H1387 0.930 . S
C1396 C1394 1.378 . S
C1396 C1397 1.367 . S
C1397 C1396 1.367 . S
C1397 C1399 1.433 . S
C1398 C1394 1.350 . S
C1398 C1395 1.463 . S
C1398 N1402 1.427 . S
C1399 H1389 0.929 . S
C1399 C1397 1.433 . S
C1399 N1402 1.384 . S
C1400 H1391 0.929 . S
C1400 C1392 1.378 . S
C1400 C1395 1.350 . S
C1401 H1388 0.929 . S
C1401 C1393 1.433 . S
C1401 N1403 1.384 . S
N1402 C1398 1.427 . S
N1402 C1399 1.384 . S
N1403 C1395 1.427 . S
N1403 C1401 1.384 . S
H1404 C1410 0.930 . S
H1405 C1414 0.930 . S
H1406 C1419 0.929 . S
H1407 C1417 0.929 . S
H1408 C1412 0.929 . S
H1409 C1418 0.929 . S
C1410 H1404 0.930 . S
C1410 C1411 1.367 . S
C1410 C1418 1.378 . S
C1411 C1410 1.367 . S
C1411 C1419 1.433 . S
C1412 H1408 0.929 . S
C1412 C1414 1.378 . S
C1412 C1416 1.350 . S
C1413 C1416 1.463 . S
C1413 C1418 1.350 . S
C1413 N1421 1.427 . S
C1414 H1405 0.930 . S
C1414 C1412 1.378 . S
C1414 C1415 1.367 . S
C1415 C1414 1.367 . S
C1415 C1417 1.433 . S
C1416 C1412 1.350 . S
C1416 C1413 1.463 . S
C1416 N1420 1.427 . S
C1417 H1407 0.929 . S
C1417 C1415 1.433 . S
C1417 N1420 1.384 . S
C1418 H1409 0.929 . S
C1418 C1410 1.378 . S
C1418 C1413 1.350 . S
C1419 H1406 0.929 . S
C1419 C1411 1.433 . S
C1419 N1421 1.384 . S
N1420 C1416 1.427 . S
N1420 C1417 1.384 . S
N1421 C1413 1.427 . S
N1421 C1419 1.384 . S
H1422 C1428 0.930 . S
H1423 C1432 0.930 . S
H1424 C1437 0.929 . S
H1425 C1435 0.929 . S
H1426 C1430 0.929 . S
H1427 C1436 0.929 . S
C1428 H1422 0.930 . S
C1428 C1429 1.367 . S
C1428 C1436 1.378 . S
C1429 C1428 1.367 . S
C1429 C1437 1.433 . S
C1430 H1426 0.929 . S
C1430 C1432 1.378 . S
C1430 C1434 1.350 . S
C1431 C1434 1.463 . S
C1431 C1436 1.350 . S
C1431 N1439 1.427 . S
C1432 H1423 0.930 . S
C1432 C1430 1.378 . S
C1432 C1433 1.367 . S
C1433 C1432 1.367 . S
C1433 C1435 1.433 . S
C1434 C1430 1.350 . S
C1434 C1431 1.463 . S
C1434 N1438 1.427 . S
C1435 H1425 0.929 . S
C1435 C1433 1.433 . S
C1435 N1438 1.384 . S
C1436 H1427 0.929 . S
C1436 C1428 1.378 . S
C1436 C1431 1.350 . S
C1437 H1424 0.929 . S
C1437 C1429 1.433 . S
C1437 N1439 1.384 . S
N1438 C1434 1.427 . S
N1438 C1435 1.384 . S
N1439 C1431 1.427 . S
N1439 C1437 1.384 . S
H1440 C1446 0.930 . S
H1441 C1450 0.930 . S
H1442 C1455 0.929 . S
H1443 C1453 0.929 . S
H1444 C1448 0.929 . S
H1445 C1454 0.929 . S
C1446 H1440 0.930 . S
C1446 C1447 1.367 . S
C1446 C1454 1.378 . S
C1447 C1446 1.367 . S
C1447 C1455 1.433 . S
C1448 H1444 0.929 . S
C1448 C1450 1.378 . S
C1448 C1452 1.350 . S
C1449 C1452 1.463 . S
C1449 C1454 1.350 . S
C1449 N1457 1.427 . S
C1450 H1441 0.930 . S
C1450 C1448 1.378 . S
C1450 C1451 1.367 . S
C1451 C1450 1.367 . S
C1451 C1453 1.433 . S
C1452 C1448 1.350 . S
C1452 C1449 1.463 . S
C1452 N1456 1.427 . S
C1453 H1443 0.929 . S
C1453 C1451 1.433 . S
C1453 N1456 1.384 . S
C1454 H1445 0.929 . S
C1454 C1446 1.378 . S
C1454 C1449 1.350 . S
C1455 H1442 0.929 . S
C1455 C1447 1.433 . S
C1455 N1457 1.384 . S
N1456 C1452 1.427 . S
N1456 C1453 1.384 . S
N1457 C1449 1.427 . S
N1457 C1455 1.384 . S
H1458 C1464 0.930 . S
H1459 C1468 0.930 . S
H1460 C1473 0.929 . S
H1461 C1471 0.929 . S
H1462 C1466 0.929 . S
H1463 C1472 0.929 . S
C1464 H1458 0.930 . S
C1464 C1465 1.367 . S
C1464 C1472 1.378 . S
C1465 C1464 1.367 . S
C1465 C1473 1.433 . S
C1466 H1462 0.929 . S
C1466 C1468 1.378 . S
C1466 C1470 1.350 . S
C1467 C1470 1.463 . S
C1467 C1472 1.350 . S
C1467 N1475 1.427 . S
C1468 H1459 0.930 . S
C1468 C1466 1.378 . S
C1468 C1469 1.367 . S
C1469 C1468 1.367 . S
C1469 C1471 1.433 . S
C1470 C1466 1.350 . S
C1470 C1467 1.463 . S
C1470 N1474 1.427 . S
C1471 H1461 0.929 . S
C1471 C1469 1.433 . S
C1471 N1474 1.384 . S
C1472 H1463 0.929 . S
C1472 C1464 1.378 . S
C1472 C1467 1.350 . S
C1473 H1460 0.929 . S
C1473 C1465 1.433 . S
C1473 N1475 1.384 . S
N1474 C1470 1.427 . S
N1474 C1471 1.384 . S
N1475 C1467 1.427 . S
N1475 C1473 1.384 . S
H1476 C1482 0.930 . S
H1477 C1486 0.930 . S
H1478 C1491 0.929 . S
H1479 C1489 0.929 . S
H1480 C1484 0.929 . S
H1481 C1490 0.929 . S
C1482 H1476 0.930 . S
C1482 C1483 1.367 . S
C1482 C1490 1.378 . S
C1483 C1482 1.367 . S
C1483 C1491 1.433 . S
C1484 H1480 0.929 . S
C1484 C1486 1.378 . S
C1484 C1488 1.350 . S
C1485 C1488 1.463 . S
C1485 C1490 1.350 . S
C1485 N1493 1.427 . S
C1486 H1477 0.930 . S
C1486 C1484 1.378 . S
C1486 C1487 1.367 . S
C1487 C1486 1.367 . S
C1487 C1489 1.433 . S
C1488 C1484 1.350 . S
C1488 C1485 1.463 . S
C1488 N1492 1.427 . S
C1489 H1479 0.929 . S
C1489 C1487 1.433 . S
C1489 N1492 1.384 . S
C1490 H1481 0.929 . S
C1490 C1482 1.378 . S
C1490 C1485 1.350 . S
C1491 H1478 0.929 . S
C1491 C1483 1.433 . S
C1491 N1493 1.384 . S
N1492 C1488 1.427 . S
N1492 C1489 1.384 . S
N1493 C1485 1.427 . S
N1493 C1491 1.384 . S
H1494 C1500 0.930 . S
H1495 C1504 0.930 . S
H1496 C1509 0.929 . S
H1497 C1507 0.929 . S
H1498 C1502 0.929 . S
H1499 C1508 0.929 . S
C1500 H1494 0.930 . S
C1500 C1501 1.367 . S
C1500 C1508 1.378 . S
C1501 C1500 1.367 . S
C1501 C1509 1.433 . S
C1502 H1498 0.929 . S
C1502 C1504 1.378 . S
C1502 C1506 1.350 . S
C1503 C1506 1.463 . S
C1503 C1508 1.350 . S
C1503 N1511 1.427 . S
C1504 H1495 0.930 . S
C1504 C1502 1.378 . S
C1504 C1505 1.367 . S
C1505 C1504 1.367 . S
C1505 C1507 1.433 . S
C1506 C1502 1.350 . S
C1506 C1503 1.463 . S
C1506 N1510 1.427 . S
C1507 H1497 0.929 . S
C1507 C1505 1.433 . S
C1507 N1510 1.384 . S
C1508 H1499 0.929 . S
C1508 C1500 1.378 . S
C1508 C1503 1.350 . S
C1509 H1496 0.929 . S
C1509 C1501 1.433 . S
C1509 N1511 1.384 . S
N1510 C1506 1.427 . S
N1510 C1507 1.384 . S
N1511 C1503 1.427 . S
N1511 C1509 1.384 . S
H1512 C1518 0.930 . S
H1513 C1522 0.930 . S
H1514 C1527 0.929 . S
H1515 C1525 0.929 . S
H1516 C1520 0.929 . S
H1517 C1526 0.929 . S
C1518 H1512 0.930 . S
C1518 C1519 1.367 . S
C1518 C1526 1.378 . S
C1519 C1518 1.367 . S
C1519 C1527 1.433 . S
C1520 H1516 0.929 . S
C1520 C1522 1.378 . S
C1520 C1524 1.350 . S
C1521 C1524 1.463 . S
C1521 C1526 1.350 . S
C1521 N1529 1.427 . S
C1522 H1513 0.930 . S
C1522 C1520 1.378 . S
C1522 C1523 1.367 . S
C1523 C1522 1.367 . S
C1523 C1525 1.433 . S
C1524 C1520 1.350 . S
C1524 C1521 1.463 . S
C1524 N1528 1.427 . S
C1525 H1515 0.929 . S
C1525 C1523 1.433 . S
C1525 N1528 1.384 . S
C1526 H1517 0.929 . S
C1526 C1518 1.378 . S
C1526 C1521 1.350 . S
C1527 H1514 0.929 . S
C1527 C1519 1.433 . S
C1527 N1529 1.384 . S
N1528 C1524 1.427 . S
N1528 C1525 1.384 . S
N1529 C1521 1.427 . S
N1529 C1527 1.384 . S
H1530 C1536 0.930 . S
H1531 C1540 0.930 . S
H1532 C1545 0.929 . S
H1533 C1543 0.929 . S
H1534 C1538 0.929 . S
H1535 C1544 0.929 . S
C1536 H1530 0.930 . S
C1536 C1537 1.367 . S
C1536 C1544 1.378 . S
C1537 C1536 1.367 . S
C1537 C1545 1.433 . S
C1538 H1534 0.929 . S
C1538 C1540 1.378 . S
C1538 C1542 1.350 . S
C1539 C1542 1.463 . S
C1539 C1544 1.350 . S
C1539 N1547 1.427 . S
C1540 H1531 0.930 . S
C1540 C1538 1.378 . S
C1540 C1541 1.367 . S
C1541 C1540 1.367 . S
C1541 C1543 1.433 . S
C1542 C1538 1.350 . S
C1542 C1539 1.463 . S
C1542 N1546 1.427 . S
C1543 H1533 0.929 . S
C1543 C1541 1.433 . S
C1543 N1546 1.384 . S
C1544 H1535 0.929 . S
C1544 C1536 1.378 . S
C1544 C1539 1.350 . S
C1545 H1532 0.929 . S
C1545 C1537 1.433 . S
C1545 N1547 1.384 . S
N1546 C1542 1.427 . S
N1546 C1543 1.384 . S
N1547 C1539 1.427 . S
N1547 C1545 1.384 . S
H1548 C1554 0.930 . S
H1549 C1558 0.930 . S
H1550 C1563 0.929 . S
H1551 C1561 0.929 . S
H1552 C1556 0.929 . S
H1553 C1562 0.929 . S
C1554 H1548 0.930 . S
C1554 C1555 1.367 . S
C1554 C1562 1.378 . S
C1555 C1554 1.367 . S
C1555 C1563 1.433 . S
C1556 H1552 0.929 . S
C1556 C1558 1.378 . S
C1556 C1560 1.350 . S
C1557 C1560 1.463 . S
C1557 C1562 1.350 . S
C1557 N1565 1.427 . S
C1558 H1549 0.930 . S
C1558 C1556 1.378 . S
C1558 C1559 1.367 . S
C1559 C1558 1.367 . S
C1559 C1561 1.433 . S
C1560 C1556 1.350 . S
C1560 C1557 1.463 . S
C1560 N1564 1.427 . S
C1561 H1551 0.929 . S
C1561 C1559 1.433 . S
C1561 N1564 1.384 . S
C1562 H1553 0.929 . S
C1562 C1554 1.378 . S
C1562 C1557 1.350 . S
C1563 H1550 0.929 . S
C1563 C1555 1.433 . S
C1563 N1565 1.384 . S
N1564 C1560 1.427 . S
N1564 C1561 1.384 . S
N1565 C1557 1.427 . S
N1565 C1563 1.384 . S
H1566 C1572 0.930 . S
H1567 C1576 0.930 . S
H1568 C1581 0.929 . S
H1569 C1579 0.929 . S
H1570 C1574 0.929 . S
H1571 C1580 0.929 . S
C1572 H1566 0.930 . S
C1572 C1573 1.367 . S
C1572 C1580 1.378 . S
C1573 C1572 1.367 . S
C1573 C1581 1.433 . S
C1574 H1570 0.929 . S
C1574 C1576 1.378 . S
C1574 C1578 1.350 . S
C1575 C1578 1.463 . S
C1575 C1580 1.350 . S
C1575 N1583 1.427 . S
C1576 H1567 0.930 . S
C1576 C1574 1.378 . S
C1576 C1577 1.367 . S
C1577 C1576 1.367 . S
C1577 C1579 1.433 . S
C1578 C1574 1.350 . S
C1578 C1575 1.463 . S
C1578 N1582 1.427 . S
C1579 H1569 0.929 . S
C1579 C1577 1.433 . S
C1579 N1582 1.384 . S
C1580 H1571 0.929 . S
C1580 C1572 1.378 . S
C1580 C1575 1.350 . S
C1581 H1568 0.929 . S
C1581 C1573 1.433 . S
C1581 N1583 1.384 . S
N1582 C1578 1.427 . S
N1582 C1579 1.384 . S
N1583 C1575 1.427 . S
N1583 C1581 1.384 . S
H1584 C1590 0.930 . S
H1585 C1594 0.930 . S
H1586 C1599 0.929 . S
H1587 C1597 0.929 . S
H1588 C1592 0.929 . S
H1589 C1598 0.929 . S
C1590 H1584 0.930 . S
C1590 C1591 1.367 . S
C1590 C1598 1.378 . S
C1591 C1590 1.367 . S
C1591 C1599 1.433 . S
C1592 H1588 0.929 . S
C1592 C1594 1.378 . S
C1592 C1596 1.350 . S
C1593 C1596 1.463 . S
C1593 C1598 1.350 . S
C1593 N1601 1.427 . S
C1594 H1585 0.930 . S
C1594 C1592 1.378 . S
C1594 C1595 1.367 . S
C1595 C1594 1.367 . S
C1595 C1597 1.433 . S
C1596 C1592 1.350 . S
C1596 C1593 1.463 . S
C1596 N1600 1.427 . S
C1597 H1587 0.929 . S
C1597 C1595 1.433 . S
C1597 N1600 1.384 . S
C1598 H1589 0.929 . S
C1598 C1590 1.378 . S
C1598 C1593 1.350 . S
C1599 H1586 0.929 . S
C1599 C1591 1.433 . S
C1599 N1601 1.384 . S
N1600 C1596 1.427 . S
N1600 C1597 1.384 . S
N1601 C1593 1.427 . S
N1601 C1599 1.384 . S
H1602 C1608 0.930 . S
H1603 C1612 0.930 . S
H1604 C1617 0.929 . S
H1605 C1615 0.929 . S
H1606 C1610 0.929 . S
H1607 C1616 0.929 . S
C1608 H1602 0.930 . S
C1608 C1609 1.367 . S
C1608 C1616 1.378 . S
C1609 C1608 1.367 . S
C1609 C1617 1.433 . S
C1610 H1606 0.929 . S
C1610 C1612 1.378 . S
C1610 C1614 1.350 . S
C1611 C1614 1.463 . S
C1611 C1616 1.350 . S
C1611 N1619 1.427 . S
C1612 H1603 0.930 . S
C1612 C1610 1.378 . S
C1612 C1613 1.367 . S
C1613 C1612 1.367 . S
C1613 C1615 1.433 . S
C1614 C1610 1.350 . S
C1614 C1611 1.463 . S
C1614 N1618 1.427 . S
C1615 H1605 0.929 . S
C1615 C1613 1.433 . S
C1615 N1618 1.384 . S
C1616 H1607 0.929 . S
C1616 C1608 1.378 . S
C1616 C1611 1.350 . S
C1617 H1604 0.929 . S
C1617 C1609 1.433 . S
C1617 N1619 1.384 . S
N1618 C1614 1.427 . S
N1618 C1615 1.384 . S
N1619 C1611 1.427 . S
N1619 C1617 1.384 . S
H1620 C1626 0.930 . S
H1621 C1630 0.930 . S
H1622 C1635 0.929 . S
H1623 C1633 0.929 . S
H1624 C1628 0.929 . S
H1625 C1634 0.929 . S
C1626 H1620 0.930 . S
C1626 C1627 1.367 . S
C1626 C1634 1.378 . S
C1627 C1626 1.367 . S
C1627 C1635 1.433 . S
C1628 H1624 0.929 . S
C1628 C1630 1.378 . S
C1628 C1632 1.350 . S
C1629 C1632 1.463 . S
C1629 C1634 1.350 . S
C1629 N1637 1.427 . S
C1630 H1621 0.930 . S
C1630 C1628 1.378 . S
C1630 C1631 1.367 . S
C1631 C1630 1.367 . S
C1631 C1633 1.433 . S
C1632 C1628 1.350 . S
C1632 C1629 1.463 . S
C1632 N1636 1.427 . S
C1633 H1623 0.929 . S
C1633 C1631 1.433 . S
C1633 N1636 1.384 . S
C1634 H1625 0.929 . S
C1634 C1626 1.378 . S
C1634 C1629 1.350 . S
C1635 H1622 0.929 . S
C1635 C1627 1.433 . S
C1635 N1637 1.384 . S
N1636 C1632 1.427 . S
N1636 C1633 1.384 . S
N1637 C1629 1.427 . S
N1637 C1635 1.384 . S
H1638 C1644 0.930 . S
H1639 C1648 0.930 . S
H1640 C1653 0.929 . S
H1641 C1651 0.929 . S
H1642 C1646 0.929 . S
H1643 C1652 0.929 . S
C1644 H1638 0.930 . S
C1644 C1645 1.367 . S
C1644 C1652 1.378 . S
C1645 C1644 1.367 . S
C1645 C1653 1.433 . S
C1646 H1642 0.929 . S
C1646 C1648 1.378 . S
C1646 C1650 1.350 . S
C1647 C1650 1.463 . S
C1647 C1652 1.350 . S
C1647 N1655 1.427 . S
C1648 H1639 0.930 . S
C1648 C1646 1.378 . S
C1648 C1649 1.367 . S
C1649 C1648 1.367 . S
C1649 C1651 1.433 . S
C1650 C1646 1.350 . S
C1650 C1647 1.463 . S
C1650 N1654 1.427 . S
C1651 H1641 0.929 . S
C1651 C1649 1.433 . S
C1651 N1654 1.384 . S
C1652 H1643 0.929 . S
C1652 C1644 1.378 . S
C1652 C1647 1.350 . S
C1653 H1640 0.929 . S
C1653 C1645 1.433 . S
C1653 N1655 1.384 . S
N1654 C1650 1.427 . S
N1654 C1651 1.384 . S
N1655 C1647 1.427 . S
N1655 C1653 1.384 . S
H1656 C1662 0.930 . S
H1657 C1666 0.930 . S
H1658 C1671 0.929 . S
H1659 C1669 0.929 . S
H1660 C1664 0.929 . S
H1661 C1670 0.929 . S
C1662 H1656 0.930 . S
C1662 C1663 1.367 . S
C1662 C1670 1.378 . S
C1663 C1662 1.367 . S
C1663 C1671 1.433 . S
C1664 H1660 0.929 . S
C1664 C1666 1.378 . S
C1664 C1668 1.350 . S
C1665 C1668 1.463 . S
C1665 C1670 1.350 . S
C1665 N1673 1.427 . S
C1666 H1657 0.930 . S
C1666 C1664 1.378 . S
C1666 C1667 1.367 . S
C1667 C1666 1.367 . S
C1667 C1669 1.433 . S
C1668 C1664 1.350 . S
C1668 C1665 1.463 . S
C1668 N1672 1.427 . S
C1669 H1659 0.929 . S
C1669 C1667 1.433 . S
C1669 N1672 1.384 . S
C1670 H1661 0.929 . S
C1670 C1662 1.378 . S
C1670 C1665 1.350 . S
C1671 H1658 0.929 . S
C1671 C1663 1.433 . S
C1671 N1673 1.384 . S
N1672 C1668 1.427 . S
N1672 C1669 1.384 . S
N1673 C1665 1.427 . S
N1673 C1671 1.384 . S
H1674 C1680 0.930 . S
H1675 C1684 0.930 . S
H1676 C1689 0.929 . S
H1677 C1687 0.929 . S
H1678 C1682 0.929 . S
H1679 C1688 0.929 . S
C1680 H1674 0.930 . S
C1680 C1681 1.367 . S
C1680 C1688 1.378 . S
C1681 C1680 1.367 . S
C1681 C1689 1.433 . S
C1682 H1678 0.929 . S
C1682 C1684 1.378 . S
C1682 C1686 1.350 . S
C1683 C1686 1.463 . S
C1683 C1688 1.350 . S
C1683 N1691 1.427 . S
C1684 H1675 0.930 . S
C1684 C1682 1.378 . S
C1684 C1685 1.367 . S
C1685 C1684 1.367 . S
C1685 C1687 1.433 . S
C1686 C1682 1.350 . S
C1686 C1683 1.463 . S
C1686 N1690 1.427 . S
C1687 H1677 0.929 . S
C1687 C1685 1.433 . S
C1687 N1690 1.384 . S
C1688 H1679 0.929 . S
C1688 C1680 1.378 . S
C1688 C1683 1.350 . S
C1689 H1676 0.929 . S
C1689 C1681 1.433 . S
C1689 N1691 1.384 . S
N1690 C1686 1.427 . S
N1690 C1687 1.384 . S
N1691 C1683 1.427 . S
N1691 C1689 1.384 . S
H1692 C1698 0.930 . S
H1693 C1702 0.930 . S
H1694 C1707 0.929 . S
H1695 C1705 0.929 . S
H1696 C1700 0.929 1_455 S
H1697 C1706 0.929 1_655 S
C1698 H1692 0.930 . S
C1698 C1699 1.367 . S
C1698 C1706 1.378 . S
C1699 C1698 1.367 . S
C1699 C1707 1.433 . S
C1700 H1696 0.929 1_655 S
C1700 C1702 1.378 . S
C1700 C1704 1.350 . S
C1701 C1704 1.463 1_455 S
C1701 C1706 1.350 . S
C1701 N1709 1.427 . S
C1702 H1693 0.930 . S
C1702 C1700 1.378 . S
C1702 C1703 1.367 . S
C1703 C1702 1.367 . S
C1703 C1705 1.433 . S
C1704 C1700 1.350 . S
C1704 C1701 1.463 1_655 S
C1704 N1708 1.427 . S
C1705 H1695 0.929 . S
C1705 C1703 1.433 . S
C1705 N1708 1.384 . S
C1706 H1697 0.929 1_455 S
C1706 C1698 1.378 . S
C1706 C1701 1.350 . S
C1707 H1694 0.929 . S
C1707 C1699 1.433 . S
C1707 N1709 1.384 . S
N1708 C1704 1.427 . S
N1708 C1705 1.384 . S
N1709 C1701 1.427 . S
N1709 C1707 1.384 . S
H1710 C1716 0.930 . S
H1711 C1720 0.930 . S
H1712 C1725 0.929 . S
H1713 C1723 0.929 . S
H1714 C1718 0.929 . S
H1715 C1724 0.929 . S
C1716 H1710 0.930 . S
C1716 C1717 1.367 . S
C1716 C1724 1.378 . S
C1717 C1716 1.367 . S
C1717 C1725 1.433 . S
C1718 H1714 0.929 . S
C1718 C1720 1.378 . S
C1718 C1722 1.350 . S
C1719 C1722 1.463 . S
C1719 C1724 1.350 . S
C1719 N1727 1.427 . S
C1720 H1711 0.930 . S
C1720 C1718 1.378 . S
C1720 C1721 1.367 . S
C1721 C1720 1.367 . S
C1721 C1723 1.433 . S
C1722 C1718 1.350 . S
C1722 C1719 1.463 . S
C1722 N1726 1.427 . S
C1723 H1713 0.929 . S
C1723 C1721 1.433 . S
C1723 N1726 1.384 . S
C1724 H1715 0.929 . S
C1724 C1716 1.378 . S
C1724 C1719 1.350 . S
C1725 H1712 0.929 . S
C1725 C1717 1.433 . S
C1725 N1727 1.384 . S
N1726 C1722 1.427 . S
N1726 C1723 1.384 . S
N1727 C1719 1.427 . S
N1727 C1725 1.384 . S
H1728 C1734 0.930 . S
H1729 C1738 0.930 . S
H1730 C1743 0.929 . S
H1731 C1741 0.929 . S
H1732 C1736 0.929 1_545 S
H1733 C1742 0.929 1_565 S
C1734 H1728 0.930 . S
C1734 C1735 1.367 . S
C1734 C1742 1.378 . S
C1735 C1734 1.367 . S
C1735 C1743 1.433 . S
C1736 H1732 0.929 1_565 S
C1736 C1738 1.378 . S
C1736 C1740 1.350 . S
C1737 C1740 1.463 1_545 S
C1737 C1742 1.350 . S
C1737 N1745 1.427 . S
C1738 H1729 0.930 . S
C1738 C1736 1.378 . S
C1738 C1739 1.367 . S
C1739 C1738 1.367 . S
C1739 C1741 1.433 . S
C1740 C1736 1.350 . S
C1740 C1737 1.463 1_565 S
C1740 N1744 1.427 . S
C1741 H1731 0.929 . S
C1741 C1739 1.433 . S
C1741 N1744 1.384 . S
C1742 H1733 0.929 1_545 S
C1742 C1734 1.378 . S
C1742 C1737 1.350 . S
C1743 H1730 0.929 . S
C1743 C1735 1.433 . S
C1743 N1745 1.384 . S
N1744 C1740 1.427 . S
N1744 C1741 1.384 . S
N1745 C1737 1.427 . S
N1745 C1743 1.384 . S
H1746 C1752 0.930 . S
H1747 C1756 0.930 . S
H1748 C1761 0.929 . S
H1749 C1759 0.929 . S
H1750 C1754 0.929 1_545 S
H1751 C1760 0.929 1_565 S
C1752 H1746 0.930 . S
C1752 C1753 1.367 . S
C1752 C1760 1.378 . S
C1753 C1752 1.367 . S
C1753 C1761 1.433 1_554 S
C1754 H1750 0.929 1_565 S
C1754 C1756 1.378 . S
C1754 C1758 1.350 . S
C1755 C1758 1.463 1_544 S
C1755 C1760 1.350 . S
C1755 N1763 1.427 1_554 S
C1756 H1747 0.930 . S
C1756 C1754 1.378 . S
C1756 C1757 1.367 . S
C1757 C1756 1.367 . S
C1757 C1759 1.433 1_556 S
C1758 C1754 1.350 . S
C1758 C1755 1.463 1_566 S
C1758 N1762 1.427 1_556 S
C1759 H1749 0.929 . S
C1759 C1757 1.433 1_554 S
C1759 N1762 1.384 . S
C1760 H1751 0.929 1_545 S
C1760 C1752 1.378 . S
C1760 C1755 1.350 . S
C1761 H1748 0.929 . S
C1761 C1753 1.433 1_556 S
C1761 N1763 1.384 . S
N1762 C1758 1.427 1_554 S
N1762 C1759 1.384 . S
N1763 C1755 1.427 1_556 S
N1763 C1761 1.384 . S
H1764 C1770 0.930 . S
H1765 C1774 0.930 . S
H1766 C1779 0.929 . S
H1767 C1777 0.929 . S
H1768 C1772 0.929 . S
H1769 C1778 0.929 . S
C1770 H1764 0.930 . S
C1770 C1771 1.367 1_556 S
C1770 C1778 1.378 . S
C1771 C1770 1.367 1_554 S
C1771 C1779 1.433 . S
C1772 H1768 0.929 . S
C1772 C1774 1.378 . S
C1772 C1776 1.279 1_554 S
C1773 C1776 1.444 1_654 S
C1773 C1778 1.279 1_554 S
C1773 N1781 1.523 . S
C1774 H1765 0.930 . S
C1774 C1772 1.378 . S
C1774 C1775 1.367 1_554 S
C1775 C1774 1.367 1_556 S
C1775 C1777 1.433 . S
C1776 C1772 1.279 1_556 S
C1776 C1773 1.444 1_456 S
C1776 N1780 1.523 . S
C1777 H1767 0.929 . S
C1777 C1775 1.433 . S
C1777 N1780 1.384 . S
C1778 H1769 0.929 . S
C1778 C1770 1.378 . S
C1778 C1773 1.279 1_556 S
C1779 H1766 0.929 . S
C1779 C1771 1.433 . S
C1779 N1781 1.384 . S
N1780 C1776 1.523 . S
N1780 C1777 1.384 . S
N1781 C1773 1.523 . S
N1781 C1779 1.384 . S
H1782 C1788 0.930 . S
H1783 C1792 0.930 . S
H1784 C1797 0.929 . S
H1785 C1795 0.929 . S
H1786 C1790 0.929 . S
H1787 C1796 0.929 . S
C1788 H1782 0.930 . S
C1788 C1789 1.367 . S
C1788 C1796 1.378 . S
C1789 C1788 1.367 . S
C1789 C1797 1.433 1_556 S
C1790 H1786 0.929 . S
C1790 C1792 1.378 . S
C1790 C1794 1.350 . S
C1791 C1794 1.463 1_556 S
C1791 C1796 1.350 . S
C1791 N1799 1.427 1_556 S
C1792 H1783 0.930 . S
C1792 C1790 1.378 . S
C1792 C1793 1.367 . S
C1793 C1792 1.367 . S
C1793 C1795 1.433 1_554 S
C1794 C1790 1.350 . S
C1794 C1791 1.463 1_554 S
C1794 N1798 1.427 1_554 S
C1795 H1785 0.929 . S
C1795 C1793 1.433 1_556 S
C1795 N1798 1.384 . S
C1796 H1787 0.929 . S
C1796 C1788 1.378 . S
C1796 C1791 1.350 . S
C1797 H1784 0.929 . S
C1797 C1789 1.433 1_554 S
C1797 N1799 1.384 . S
N1798 C1794 1.427 1_556 S
N1798 C1795 1.384 . S
N1799 C1791 1.427 1_554 S
N1799 C1797 1.384 . S
C511 C9 1.346 . S
C515 C22 1.453 . S
C529 C23 1.346 . S
C533 C36 1.457 . S
C547 C8 1.456 . S
C551 C37 1.347 . S
C565 C51 1.355 . S
C569 C78 1.455 . S
C583 C65 1.345 . S
C587 C50 1.456 . S
C601 C64 1.455 . S
C605 C79 1.335 . S
C619 C93 1.343 . S
C623 C106 1.456 . S
C637 C120 1.453 . S
C641 C107 1.338 . S
C655 C92 1.454 . S
C659 C121 1.353 . S
C673 C162 1.455 . S
C677 C135 1.334 . S
C691 C149 1.354 . S
C695 C134 1.456 . S
C709 C163 1.352 . S
C713 C148 1.456 . S
C727 C190 1.453 . S
C731 C177 1.350 . S
C745 C191 1.354 . S
C749 C204 1.456 . S
C763 C205 1.347 . S
C767 C176 1.457 . S
C781 C219 1.344 . S
C785 C246 1.453 . S
C799 C233 1.344 . S
C803 C218 1.453 . S
C817 C247 1.345 . S
C821 C232 1.457 . S
C835 C274 1.457 . S
C839 C261 1.343 . S
C853 C275 1.355 . S
C857 C288 1.455 . S
C871 C260 1.457 . S
C875 C289 1.342 . S
C889 C330 1.456 . S
C893 C303 1.336 . S
C907 C317 1.341 . S
C911 C302 1.456 . S
C925 C316 1.457 . S
C929 C331 1.348 . S
C943 C358 1.455 . S
C947 C345 1.355 . S
C961 C359 1.343 . S
C965 C372 1.453 . S
C979 C373 1.346 . S
C983 C344 1.453 . S
C997 C414 1.454 . S
C1001 C387 1.354 . S
C1015 C401 1.341 . S
C1019 C386 1.456 . S
C1033 C400 1.456 . S
C1037 C415 1.337 . S
C1051 C429 1.339 . S
C1055 C442 1.456 . S
C1069 C443 1.355 . S
C1073 C456 1.455 . S
C1087 C457 1.351 . S
C1091 C428 1.454 . S
C1105 C498 1.456 . S
C1109 C471 1.342 . S
C1123 C470 1.456 . S
C1127 C485 1.340 . S
C1141 C499 1.353 . S
C1145 C484 1.454 . S
C1159 C49 1.741 . S
C1163 C7 1.747 . S
C1177 C21 1.747 . S
C1181 C63 1.757 . S
C1195 C77 1.756 . S
C1199 C35 1.749 . S
C1213 C133 1.746 . S
C1217 C91 1.757 . S
C1231 C105 1.740 . S
C1235 C147 1.749 . S
C1249 C161 1.740 . S
C1253 C119 1.750 . S
C1267 C175 1.746 . S
C1271 C217 1.742 . S
C1285 C189 1.749 . S
C1289 C231 1.740 . S
C1303 C203 1.751 . S
C1307 C245 1.740 . S
C1321 C301 1.745 . S
C1325 C259 1.743 . S
C1339 C315 1.757 . S
C1343 C273 1.746 . S
C1357 C287 1.743 . S
C1361 C329 1.757 . S
C1375 C385 1.756 . S
C1379 C343 1.740 . S
C1393 C399 1.752 . S
C1397 C357 1.739 . S
C1411 C371 1.740 . S
C1415 C413 1.756 . S
C1429 C427 1.739 . S
C1433 C469 1.754 . S
C1447 C483 1.740 . S
C1451 C441 1.750 . S
C1465 C455 1.748 . S
C1469 C497 1.741 . S
C1483 C6 1.587 . S
C1487 C258 1.587 . S
C1501 C20 1.589 . S
C1505 C272 1.589 . S
C1519 C34 1.594 . S
C1523 C286 1.594 . S
C1537 C468 1.593 . S
C1541 C48 1.593 . S
C1555 C482 1.598 . S
C1559 C62 1.598 . S
C1573 C76 1.588 . S
C1577 C496 1.588 . S
C1591 C90 1.589 . S
C1595 C342 1.589 . S
C1609 C356 1.591 . S
C1613 C104 1.591 . S
C1627 C370 1.592 . S
C1631 C118 1.592 . S
C1645 C216 1.597 . S
C1649 C132 1.597 . S
C1663 C230 1.589 . S
C1667 C146 1.589 . S
C1681 C244 1.598 . S
C1685 C160 1.598 . S
C1699 C426 1.598 . S
C1703 C174 1.598 . S
C1717 C188 1.592 . S
C1721 C440 1.592 . S
C1735 C202 1.597 . S
C1739 C454 1.597 . S
C1753 C300 1.596 . S
C1757 C384 1.596 . S
C1771 C314 1.590 . S
C1775 C398 1.590 . S
C1789 C412 1.590 . S
C1793 C328 1.590 . S
