# Generated by pormake.
# Topology rac, (4)-cn, num edge types: 1
# Building blocks:
#     Node 0, Type 0, BuildingBlock: QUQFOY_clean_sbu_1, # of connection points: 4
#     Node 1, Type 0, BuildingBlock: QUQFOY_clean_sbu_1, # of connection points: 4
#     Node 2, Type 0, BuildingBlock: QUQFOY_clean_sbu_1, # of connection points: 4
#     Node 3, Type 0, BuildingBlock: QUQFOY_clean_sbu_1, # of connection points: 4
#     Node 4, Type 0, BuildingBlock: QUQFOY_clean_sbu_1, # of connection points: 4
#     Node 5, Type 0, BuildingBlock: QUQFOY_clean_sbu_1, # of connection points: 4
#     Node 6, Type 0, BuildingBlock: QUQFOY_clean_sbu_1, # of connection points: 4
#     Node 7, Type 0, BuildingBlock: QUQFOY_clean_sbu_1, # of connection points: 4
#     Edge 8, Type (0, 0), BuildingBlock: FUNLAD_clean_linker_0, # of connection points: 2
#     Edge 9, Type (0, 0), BuildingBlock: FUNLAD_clean_linker_0, # of connection points: 2
#     Edge 10, Type (0, 0), BuildingBlock: FUNLAD_clean_linker_0, # of connection points: 2
#     Edge 11, Type (0, 0), BuildingBlock: FUNLAD_clean_linker_0, # of connection points: 2
#     Edge 12, Type (0, 0), BuildingBlock: FUNLAD_clean_linker_0, # of connection points: 2
#     Edge 13, Type (0, 0), BuildingBlock: FUNLAD_clean_linker_0, # of connection points: 2
#     Edge 14, Type (0, 0), BuildingBlock: FUNLAD_clean_linker_0, # of connection points: 2
#     Edge 15, Type (0, 0), BuildingBlock: FUNLAD_clean_linker_0, # of connection points: 2
#     Edge 16, Type (0, 0), BuildingBlock: FUNLAD_clean_linker_0, # of connection points: 2
#     Edge 17, Type (0, 0), BuildingBlock: FUNLAD_clean_linker_0, # of connection points: 2
#     Edge 18, Type (0, 0), BuildingBlock: FUNLAD_clean_linker_0, # of connection points: 2
#     Edge 19, Type (0, 0), BuildingBlock: FUNLAD_clean_linker_0, # of connection points: 2
#     Edge 20, Type (0, 0), BuildingBlock: FUNLAD_clean_linker_0, # of connection points: 2
#     Edge 21, Type (0, 0), BuildingBlock: FUNLAD_clean_linker_0, # of connection points: 2
#     Edge 22, Type (0, 0), BuildingBlock: FUNLAD_clean_linker_0, # of connection points: 2
#     Edge 23, Type (0, 0), BuildingBlock: FUNLAD_clean_linker_0, # of connection points: 2
# Relax obj value: 0.260
# Max RMSD: 0.149
# Mean RMSD: 0.149
data_MOF--net-rac--node1-QUQFOY_clean_sbu_1--edge1-FUNLAD_clean_linker_0
_symmetry_space_group_name_H-M    P1
_symmetry_Int_Tables_number       1
_symmetry_cell_setting            triclinic
loop_
_symmetry_equiv_pos_as_xyz
'x, y, z'
_cell_length_a     48.689044
_cell_length_b     23.283289
_cell_length_c     53.733068
_cell_angle_alpha  89.801133
_cell_angle_beta   89.981608
_cell_angle_gamma 89.992718
loop_
_atom_site_label
_atom_site_type_symbol
_atom_site_fract_x
_atom_site_fract_y
_atom_site_fract_z
_atom_type_partial_charge
O0 O 0.36386 0.33183 0.05884 0.0
Cd1 Cd 0.39185 0.26846 0.05185 0.0
Cd2 Cd 0.37849 0.24598 0.10282 0.0
O3 O 0.36471 0.32888 0.09985 0.0
O4 O 0.41156 0.29973 0.02204 0.0
O5 O 0.4311 0.29049 0.05899 0.0
C6 C 0.43217 0.31013 0.03645 0.0
C7 C 0.38808 0.2186 0.14433 0.0
C8 C 0.35744 0.35317 0.07973 0.0
C9 C 0.35718 0.16752 0.06048 0.0
O10 O 0.35612 0.18668 0.0826 0.0
O11 O 0.37396 0.18876 0.04471 0.0
O12 O 0.36351 0.22641 0.13638 0.0
O13 O 0.40785 0.2258 0.12866 0.0
O14 O 0.15373 0.6884 0.06012 0.0
Cd15 Cd 0.12469 0.74881 0.05169 0.0
Cd16 Cd 0.13267 0.77225 0.10252 0.0
O17 O 0.14892 0.6911 0.10086 0.0
O18 O 0.10517 0.71536 0.02238 0.0
O19 O 0.08581 0.72559 0.05939 0.0
C20 C 0.0847 0.70508 0.03704 0.0
C21 C 0.11955 0.79631 0.14351 0.0
C22 C 0.15881 0.66785 0.08151 0.0
C23 C 0.15617 0.85286 0.06158 0.0
O24 O 0.1552 0.83449 0.0839 0.0
O25 O 0.14148 0.82958 0.04477 0.0
O26 O 0.14476 0.79257 0.13682 0.0
O27 O 0.10108 0.7875 0.12677 0.0
O28 O 0.36097 0.19695 0.46931 0.0
Cd29 Cd 0.39197 0.25197 0.46117 0.0
Cd30 Cd 0.37765 0.23073 0.4139 0.0
O31 O 0.36195 0.15881 0.43186 0.0
O32 O 0.42102 0.23756 0.4866 0.0
O33 O 0.42492 0.21221 0.44696 0.0
C34 C 0.43415 0.20951 0.46956 0.0
C35 C 0.39016 0.2183 0.37185 0.0
C36 C 0.35393 0.15765 0.45439 0.0
C37 C 0.36132 0.34522 0.43821 0.0
O38 O 0.35837 0.30853 0.42092 0.0
O39 O 0.37768 0.33517 0.45622 0.0
O40 O 0.36505 0.21624 0.37917 0.0
O41 O 0.40875 0.22676 0.38856 0.0
O42 O 0.15487 0.81315 0.47042 0.0
Cd43 Cd 0.12516 0.7557 0.46139 0.0
Cd44 Cd 0.14169 0.77789 0.41482 0.0
O45 O 0.15406 0.85186 0.433 0.0
O46 O 0.09403 0.77091 0.48457 0.0
O47 O 0.09301 0.79186 0.44422 0.0
C48 C 0.08201 0.79641 0.46609 0.0
C49 C 0.13389 0.78851 0.37171 0.0
C50 C 0.16129 0.85358 0.45572 0.0
C51 C 0.15881 0.66513 0.4409 0.0
O52 O 0.16225 0.7025 0.42384 0.0
O53 O 0.14072 0.67321 0.45769 0.0
O54 O 0.15795 0.79223 0.38136 0.0
O55 O 0.11357 0.77938 0.38662 0.0
O56 O 0.65205 0.70058 0.95643 0.0
Cd57 Cd 0.62176 0.76024 0.95853 0.0
Cd58 Cd 0.63245 0.77254 0.90758 0.0
O59 O 0.65577 0.70089 0.91553 0.0
O60 O 0.59865 0.73335 0.98701 0.0
O61 O 0.58463 0.73209 0.94777 0.0
C62 C 0.58066 0.7173 0.97076 0.0
C63 C 0.61778 0.77499 0.86566 0.0
C64 C 0.66241 0.68057 0.93665 0.0
C65 C 0.64851 0.86968 0.94353 0.0
O66 O 0.64765 0.84875 0.92169 0.0
O67 O 0.63724 0.84335 0.96172 0.0
O68 O 0.64294 0.78274 0.87195 0.0
O69 O 0.60023 0.76696 0.88331 0.0
O70 O 0.86206 0.33056 0.95944 0.0
Cd71 Cd 0.88999 0.26607 0.96259 0.0
Cd72 Cd 0.88203 0.25908 0.91122 0.0
O73 O 0.86938 0.34136 0.91932 0.0
O74 O 0.91365 0.28943 0.99112 0.0
O75 O 0.92794 0.28873 0.95191 0.0
C76 C 0.93215 0.30315 0.97487 0.0
C77 C 0.89226 0.25303 0.86831 0.0
C78 C 0.85922 0.35938 0.93958 0.0
C79 C 0.85732 0.16722 0.94681 0.0
O80 O 0.8587 0.19177 0.92561 0.0
O81 O 0.87184 0.18553 0.96487 0.0
O82 O 0.86768 0.25871 0.87654 0.0
O83 O 0.91163 0.24802 0.88453 0.0
O84 O 0.65146 0.8125 0.5505 0.0
Cd85 Cd 0.6221 0.7525 0.54392 0.0
Cd86 Cd 0.63191 0.72897 0.59662 0.0
O87 O 0.65477 0.8024 0.59126 0.0
O88 O 0.60389 0.78153 0.51291 0.0
O89 O 0.58342 0.78056 0.54967 0.0
C90 C 0.58329 0.79649 0.52657 0.0
C91 C 0.62053 0.71636 0.63912 0.0
C92 C 0.66134 0.82799 0.57123 0.0
C93 C 0.64863 0.64022 0.55648 0.0
O94 O 0.64669 0.65632 0.57903 0.0
O95 O 0.63849 0.67055 0.53893 0.0
O96 O 0.64499 0.70943 0.6308 0.0
O97 O 0.60172 0.72951 0.62322 0.0
O98 O 0.86082 0.17517 0.54929 0.0
Cd99 Cd 0.8884 0.23866 0.542 0.0
Cd100 Cd 0.88003 0.25882 0.59482 0.0
O101 O 0.86625 0.17608 0.58998 0.0
O102 O 0.90866 0.20957 0.51221 0.0
O103 O 0.9275 0.21725 0.54957 0.0
C104 C 0.92904 0.19878 0.52691 0.0
C105 C 0.88637 0.27416 0.63798 0.0
C106 C 0.85695 0.15256 0.57047 0.0
C107 C 0.8568 0.34272 0.55437 0.0
O108 O 0.8587 0.32404 0.57663 0.0
O109 O 0.87012 0.3185 0.53686 0.0
O110 O 0.86258 0.26981 0.62798 0.0
O111 O 0.90733 0.27222 0.62334 0.0
C112 C 0.30797 0.14028 0.05928 0.0
C113 C 0.33523 0.12739 0.05271 0.0
C114 C 0.28672 0.10159 0.05449 0.0
C115 C 0.29225 0.04831 0.04338 0.0
C116 C 0.31948 0.03571 0.03635 0.0
C117 C 0.34078 0.07538 0.04059 0.0
C118 C 0.27059 1.0031 0.0421 0.0
C119 C 0.2436 0.0148 0.03897 0.0
C120 C 0.22166 0.97135 0.04354 0.0
C121 C 0.19729 0.97169 0.02942 0.0
C122 C 0.17584 0.93304 0.03484 0.0
C123 C 0.17801 0.89504 0.05513 0.0
H124 H 0.242 0.9322 0.07521 0.0
C125 C 0.2023 0.8955 0.06935 0.0
C126 C 0.22387 0.93267 0.06353 0.0
H127 H 0.20486 0.86643 0.08497 0.0
H128 H 0.30313 0.18017 0.06865 0.0
H129 H 0.26621 0.11233 0.06073 0.0
H130 H 0.32437 0.99463 0.02805 0.0
H131 H 0.36163 0.06432 0.03548 0.0
H132 H 0.27702 0.95887 0.04497 0.0
H133 H 0.23723 0.05794 0.03379 0.0
H134 H 0.19491 1.0017 0.01412 0.0
H135 H 0.15745 0.93359 0.0235 0.0
C136 C 0.19545 0.60388 0.42195 0.0
C137 C 0.17906 0.61736 0.44269 0.0
C138 C 0.21817 0.56749 0.42425 0.0
C139 C 0.22546 0.54398 0.44752 0.0
C140 C 0.20806 0.5545 0.46794 0.0
C141 C 0.18514 0.59086 0.4656 0.0
C142 C 0.25076 0.50811 0.451 0.0
C143 C 0.27266 0.51033 0.4355 0.0
C144 C 0.29723 0.47218 0.43748 0.0
C145 C 0.31127 0.45769 0.41553 0.0
C146 C 0.33322 0.41898 0.41602 0.0
C147 C 0.3423 0.39501 0.43859 0.0
H148 H 0.29715 0.46151 0.47764 0.0
C149 C 0.32946 0.41219 0.46082 0.0
C150 C 0.30697 0.4501 0.46027 0.0
H151 H 0.33579 0.39389 0.47847 0.0
H152 H 0.19119 0.62291 0.40393 0.0
H153 H 0.22999 0.55849 0.40768 0.0
H154 H 0.21275 0.53619 0.48601 0.0
H155 H 0.17305 0.60044 0.48199 0.0
H156 H 0.25129 0.47923 0.46691 0.0
H157 H 0.2723 0.53943 0.4197 0.0
H158 H 0.30448 0.47451 0.39774 0.0
H159 H 0.34258 0.40633 0.39858 0.0
C160 C 0.68366 0.92176 0.96936 0.0
C161 C 0.66735 0.91895 0.94776 0.0
C162 C 0.70653 0.95862 0.9704 0.0
C163 C 0.71337 0.99382 0.94989 0.0
C164 C 0.69571 0.99394 0.9292 0.0
C165 C 0.67321 0.95675 0.92803 0.0
C166 C 0.73893 0.02945 0.94844 0.0
C167 C 0.76138 0.02322 0.96307 0.0
C168 C 0.78733 0.05621 0.95861 0.0
C169 C 0.80442 0.07103 0.9787 0.0
C170 C 0.8281 0.10457 0.97493 0.0
C171 C 0.83542 0.12329 0.95088 0.0
H172 H 0.7837 0.05953 0.91835 0.0
C173 C 0.81919 0.10523 0.93067 0.0
C174 C 0.79555 0.07221 0.93446 0.0
H175 H 0.82424 0.11809 0.91183 0.0
H176 H 0.67986 0.89281 0.9848 0.0
H177 H 0.71906 0.95813 0.98701 0.0
H178 H 0.70009 0.02095 0.91322 0.0
H179 H 0.66113 0.95562 0.91111 0.0
H180 H 0.73972 0.06093 0.93348 0.0
H181 H 0.76103 0.99359 0.97868 0.0
H182 H 0.79893 0.05836 0.99747 0.0
H183 H 0.84005 0.11758 0.99095 0.0
C184 C 0.68507 0.59311 0.53029 0.0
C185 C 0.66755 0.59164 0.55113 0.0
C186 C 0.70805 0.55656 0.52892 0.0
C187 C 0.71378 0.51734 0.54832 0.0
C188 C 0.6949 0.51309 0.56806 0.0
C189 C 0.67227 0.54985 0.56955 0.0
C190 C 0.73964 0.48256 0.55006 0.0
C191 C 0.76156 0.48613 0.53462 0.0
C192 C 0.78759 0.45388 0.5396 0.0
C193 C 0.80352 0.43284 0.51977 0.0
C194 C 0.82705 0.3993 0.52433 0.0
C195 C 0.83538 0.38689 0.54887 0.0
H196 H 0.78592 0.46188 0.57981 0.0
C197 C 0.8204 0.41142 0.56859 0.0
C198 C 0.7969 0.44434 0.56405 0.0
H199 H 0.82625 0.40357 0.58775 0.0
H200 H 0.68219 0.62525 0.5159 0.0
H201 H 0.72165 0.56096 0.51313 0.0
H202 H 0.6984 0.48306 0.58319 0.0
H203 H 0.65923 0.54759 0.58587 0.0
H204 H 0.74104 0.45335 0.56583 0.0
H205 H 0.76062 0.51223 0.5179 0.0
H206 H 0.79716 0.44045 0.50073 0.0
H207 H 0.83801 0.38122 0.50866 0.0
C208 C 0.41718 0.21728 0.18315 0.0
C209 C 0.39271 0.20308 0.17072 0.0
C210 C 0.41968 0.20775 0.2089 0.0
C211 C 0.39785 0.18304 0.22244 0.0
C212 C 0.37407 0.16641 0.20961 0.0
C213 C 0.3714 0.17683 0.18418 0.0
C214 C 0.39812 0.17509 0.24993 0.0
C215 C 0.41278 0.20742 0.26593 0.0
C216 C 0.4075 0.20643 0.29328 0.0
C217 C 0.42852 0.22091 0.31006 0.0
C218 C 0.42329 0.22346 0.33575 0.0
C219 C 0.39679 0.21249 0.34504 0.0
H220 H 0.36397 0.18624 0.29048 0.0
C221 C 0.37585 0.19808 0.32821 0.0
C222 C 0.38106 0.19527 0.30273 0.0
H223 H 0.35513 0.18983 0.33464 0.0
H224 H 0.43395 0.2375 0.17319 0.0
H225 H 0.43858 0.21997 0.21805 0.0
H226 H 0.357 0.14696 0.21946 0.0
H227 H 0.35238 0.16493 0.17509 0.0
H228 H 0.38353 0.14422 0.25741 0.0
H229 H 0.428 0.23751 0.25897 0.0
H230 H 0.44896 0.23056 0.30328 0.0
H231 H 0.43983 0.23511 0.34823 0.0
C232 C 0.10449 0.79064 0.3329 0.0
C233 C 0.13044 0.79347 0.34437 0.0
C234 C 0.10211 0.79424 0.30686 0.0
C235 C 0.12573 0.80057 0.2919 0.0
C236 C 0.15147 0.80349 0.30356 0.0
C237 C 0.15381 0.80017 0.32933 0.0
C238 C 0.12531 0.80332 0.26419 0.0
C239 C 0.10289 0.80941 0.24964 0.0
C240 C 0.1054 0.81278 0.22201 0.0
C241 C 0.08476 0.78974 0.2067 0.0
C242 C 0.08844 0.78703 0.18079 0.0
C243 C 0.11284 0.80737 0.1699 0.0
H244 H 0.14444 0.85818 0.22167 0.0
C245 C 0.13252 0.83397 0.18506 0.0
C246 C 0.12873 0.83728 0.21071 0.0
H247 H 0.15127 0.85117 0.17714 0.0
H248 H 0.08609 0.78532 0.34401 0.0
H249 H 0.08188 0.79124 0.2987 0.0
H250 H 0.17007 0.80834 0.29265 0.0
H251 H 0.17416 0.80244 0.33743 0.0
H252 H 0.14524 0.80002 0.2552 0.0
H253 H 0.08248 0.80992 0.25772 0.0
H254 H 0.06636 0.77154 0.21486 0.0
H255 H 0.07288 0.76648 0.1695 0.0
C256 C 0.63034 0.78418 0.82086 0.0
C257 C 0.61019 0.7728 0.83895 0.0
C258 C 0.62464 0.7774 0.79564 0.0
C259 C 0.59864 0.75863 0.78772 0.0
C260 C 0.57796 0.75009 0.80562 0.0
C261 C 0.58373 0.75675 0.83108 0.0
C262 C 0.59322 0.7477 0.76087 0.0
C263 C 0.61285 0.72487 0.74618 0.0
C264 C 0.61121 0.71708 0.71871 0.0
C265 C 0.63261 0.68671 0.70722 0.0
C266 C 0.63469 0.68438 0.68139 0.0
C267 C 0.61531 0.71215 0.66622 0.0
H268 H 0.57421 0.76697 0.71162 0.0
C269 C 0.59291 0.73996 0.6775 0.0
C270 C 0.59092 0.74273 0.70358 0.0
H271 H 0.57773 0.76198 0.66624 0.0
H272 H 0.65083 0.7975 0.82617 0.0
H273 H 0.64077 0.78662 0.78232 0.0
H274 H 0.55763 0.73648 0.79997 0.0
H275 H 0.56771 0.74802 0.84456 0.0
H276 H 0.57296 0.75719 0.75354 0.0
H277 H 0.63197 0.71141 0.7549 0.0
H278 H 0.64849 0.66629 0.71827 0.0
H279 H 0.65207 0.66216 0.6733 0.0
C280 C 0.91397 0.26947 0.67784 0.0
C281 C 0.88876 0.27714 0.66545 0.0
C282 C 0.91484 0.26559 0.70397 0.0
C283 C 0.89043 0.26928 0.718 0.0
C284 C 0.86556 0.2788 0.70548 0.0
C285 C 0.86473 0.2829 0.67967 0.0
C286 C 0.88903 0.26117 0.74544 0.0
C287 C 0.9101 0.26668 0.76156 0.0
C288 C 0.90574 0.26312 0.78905 0.0
C289 C 0.92726 0.24591 0.80489 0.0
C290 C 0.92318 0.24214 0.83075 0.0
C291 C 0.89747 0.25556 0.84115 0.0
H292 H 0.86363 0.2947 0.7886 0.0
C293 C 0.87625 0.27384 0.82531 0.0
C294 C 0.88038 0.27826 0.79976 0.0
H295 H 0.85636 0.28589 0.83269 0.0
H296 H 0.93282 0.26455 0.66736 0.0
H297 H 0.93439 0.25773 0.7129 0.0
H298 H 0.84645 0.28224 0.71573 0.0
H299 H 0.84494 0.28913 0.67084 0.0
H300 H 0.8688 0.25112 0.75275 0.0
H301 H 0.93077 0.27435 0.75475 0.0
H302 H 0.94715 0.2349 0.79723 0.0
H303 H 0.94003 0.22854 0.84253 0.0
C304 C 0.45299 0.37725 0.00491 0.0
C305 C 0.45423 0.35051 0.02842 0.0
C306 C 0.47081 0.42245 0.99877 0.0
C307 C 0.49034 0.44229 0.01608 0.0
C308 C 0.49252 0.41341 0.03904 0.0
C309 C 0.47465 0.36833 0.0452 0.0
C310 C 0.50883 0.49246 0.01103 0.0
C311 C 0.50384 0.53358 0.99373 0.0
C312 C 0.52237 0.58374 0.98898 0.0
C313 C 0.52198 0.61035 0.96544 0.0
C314 C 0.53993 0.65568 0.95981 0.0
C315 C 0.55849 0.6762 0.97775 0.0
H316 H 0.54034 0.58842 0.02595 0.0
C317 C 0.55785 0.65165 1.00173 0.0
C318 C 0.54006 0.60604 0.0073 0.0
H319 H 0.57178 0.66638 0.01607 0.0
H320 H 0.43762 0.36454 0.99144 0.0
H321 H 0.46898 0.44169 0.98051 0.0
H322 H 0.50758 0.42697 0.05265 0.0
H323 H 0.47622 0.34888 0.06349 0.0
H324 H 0.52705 0.49592 0.02256 0.0
H325 H 0.48577 0.53028 0.98202 0.0
H326 H 0.50832 0.59482 0.95105 0.0
H327 H 0.53984 0.67342 0.94115 0.0
C328 C 0.06383 0.63652 0.00633 0.0
C329 C 0.06262 0.66443 0.02951 0.0
C330 C 0.04576 0.59154 1.00067 0.0
C331 C 0.026 0.57312 0.01812 0.0
C332 C 0.02391 0.60306 0.04074 0.0
C333 C 0.04205 0.6479 0.04644 0.0
C334 C 0.0071 0.5235 0.01355 0.0
C335 C 0.01181 0.48147 0.99673 0.0
C336 C 0.99272 0.43215 0.99237 0.0
C337 C 0.99279 0.40498 0.96903 0.0
C338 C 0.97414 0.36081 0.96369 0.0
C339 C 0.95519 0.34207 0.98173 0.0
H340 H 0.97465 0.42945 0.02935 0.0
C341 C 0.95621 0.36694 0.00556 0.0
C342 C 0.97471 0.41139 0.01083 0.0
H343 H 0.942 0.35355 0.01996 0.0
H344 H 0.07933 0.64822 0.99277 0.0
H345 H 0.04754 0.57141 0.98264 0.0
H346 H 0.00869 0.59059 0.05445 0.0
H347 H 0.04049 0.6683 0.06447 0.0
H348 H 0.98875 0.52134 0.02498 0.0
H349 H 0.02999 0.48346 0.98509 0.0
H350 H 0.0067 0.41932 0.95454 0.0
H351 H 0.97397 0.34277 0.94514 0.0
C352 C 0.54592 0.8696 0.53313 0.0
C353 C 0.56235 0.83733 0.51677 0.0
C354 C 0.52958 0.9149 0.52421 0.0
C355 C 0.52917 0.92876 0.49866 0.0
C356 C 0.54443 0.89445 0.48223 0.0
C357 C 0.56103 0.84974 0.49116 0.0
C358 C 0.51283 0.97787 0.48842 0.0
C359 C 0.50732 0.02624 0.50139 0.0
C360 C 0.49081 0.07607 0.49184 0.0
C361 C 0.48168 0.11746 0.50896 0.0
C362 C 0.46464 0.16281 0.50146 0.0
C363 C 0.45635 0.1684 0.47651 0.0
H364 H 0.4908 0.05398 0.45247 0.0
C365 C 0.46666 0.12895 0.45905 0.0
C366 C 0.48369 0.08341 0.46657 0.0
H367 H 0.46073 0.13188 0.43966 0.0
H368 H 0.54645 0.86134 0.55297 0.0
H369 H 0.5174 0.93898 0.5374 0.0
H370 H 0.54423 0.90345 0.46243 0.0
H371 H 0.57339 0.82582 0.47802 0.0
H372 H 0.50599 0.97407 0.4693 0.0
H373 H 0.51495 0.0295 0.52033 0.0
H374 H 0.48702 0.11372 0.52848 0.0
H375 H 0.45714 0.19225 0.51547 0.0
C376 C 0.95092 0.13389 0.49525 0.0
C377 C 0.95135 0.15898 0.51905 0.0
C378 C 0.96883 0.08884 0.48921 0.0
C379 C 0.98765 0.06745 0.5069 0.0
C380 C 0.989 0.09474 0.53021 0.0
C381 C 0.97109 0.13973 0.53624 0.0
C382 C 1.00596 0.01676 0.50227 0.0
C383 C 1.00372 0.98035 0.48278 0.0
C384 C 0.02218 0.92975 0.47907 0.0
C385 C 0.02764 0.91065 0.45477 0.0
C386 C 0.04599 0.86529 0.45051 0.0
C387 C 0.05893 0.8371 0.47051 0.0
H388 H 0.02967 0.91171 0.51817 0.0
C389 C 0.0522 0.85401 0.4949 0.0
C390 C 0.03412 0.8998 0.49914 0.0
H391 H 0.06174 0.83334 0.51078 0.0
H392 H 0.93605 0.14767 0.48148 0.0
H393 H 0.96741 0.07077 0.47077 0.0
H394 H 1.00342 0.07999 0.54419 0.0
H395 H 0.97202 0.15784 0.55476 0.0
H396 H 0.02193 0.00877 0.51596 0.0
H397 H 0.98848 0.98813 0.46847 0.0
H398 H 0.01842 0.93222 0.43894 0.0
H399 H 0.05068 0.85353 0.43149 0.0
C400 C 0.1931 0.60104 0.06306 0.0
C401 C 0.17904 0.6212 0.08412 0.0
C402 C 0.21543 0.56424 0.06576 0.0
C403 C 0.22408 0.54698 0.08958 0.0
C404 C 0.20878 0.56335 0.11046 0.0
C405 C 0.1865 0.60056 0.10779 0.0
C406 C 0.24925 0.51271 0.09302 0.0
C407 C 0.27148 0.5206 0.07854 0.0
C408 C 0.29603 0.48373 0.08019 0.0
C409 C 0.31082 0.47249 0.05837 0.0
C410 C 0.33189 0.43204 0.05847 0.0
C411 C 0.33873 0.40277 0.08052 0.0
H412 H 0.2939 0.46733 0.11999 0.0
C413 C 0.32542 0.41756 0.10279 0.0
C414 C 0.3042 0.45773 0.10264 0.0
H415 H 0.3305 0.39627 0.12015 0.0
H416 H 0.1876 0.6154 0.04453 0.0
H417 H 0.22616 0.55017 0.04921 0.0
H418 H 0.21482 0.54947 0.12893 0.0
H419 H 0.17584 0.61484 0.12436 0.0
H420 H 0.24944 0.48117 0.10795 0.0
H421 H 0.27101 0.55261 0.06377 0.0
H422 H 0.30514 0.49284 0.04095 0.0
H423 H 0.34206 0.42213 0.04107 0.0
C424 C 0.31664 0.12466 0.48263 0.0
C425 C 0.33455 0.11324 0.46274 0.0
C426 C 0.2959 0.08586 0.48871 0.0
C427 C 0.29317 0.03465 0.4753 0.0
C428 C 0.31216 0.02138 0.45656 0.0
C429 C 0.33252 0.06082 0.45006 0.0
C430 C 0.26934 0.99686 0.47906 0.0
C431 C 0.24375 0.01843 0.47961 0.0
C432 C 0.2199 0.98045 0.47657 0.0
C433 C 0.20072 0.99271 0.45785 0.0
C434 C 0.18083 0.95218 0.45154 0.0
C435 C 0.17949 0.89965 0.46439 0.0
H436 H 0.23215 0.91957 0.50504 0.0
C437 C 0.19739 0.88949 0.48444 0.0
C438 C 0.21766 0.9294 0.49033 0.0
H439 H 0.19673 0.84937 0.4947 0.0
H440 H 0.31781 0.16474 0.49276 0.0
H441 H 0.2816 0.09646 0.50345 0.0
H442 H 0.31033 0.98187 0.44609 0.0
H443 H 0.34627 0.05087 0.43482 0.0
H444 H 0.27243 0.95077 0.47737 0.0
H445 H 0.24054 0.06454 0.47809 0.0
H446 H 0.20218 0.03208 0.44711 0.0
H447 H 0.16707 0.96117 0.43617 0.0
C448 C 0.70054 0.62399 0.91775 0.0
C449 C 0.68406 0.63669 0.93847 0.0
C450 C 0.72314 0.58774 0.92026 0.0
C451 C 0.72959 0.56358 0.94355 0.0
C452 C 0.71225 0.57358 0.96387 0.0
C453 C 0.68977 0.6102 0.96143 0.0
C454 C 0.75409 0.52733 0.94718 0.0
C455 C 0.77744 0.53532 0.93428 0.0
C456 C 0.80114 0.49638 0.93699 0.0
C457 C 0.81695 0.48365 0.91594 0.0
C458 C 0.83696 0.44093 0.91705 0.0
C459 C 0.84163 0.41078 0.93936 0.0
H460 H 0.79621 0.4803 0.9766 0.0
C461 C 0.82736 0.42701 0.96094 0.0
C462 C 0.8073 0.46955 0.95978 0.0
H463 H 0.83086 0.4053 0.97852 0.0
H464 H 0.69649 0.64334 0.89976 0.0
H465 H 0.73551 0.57891 0.90398 0.0
H466 H 0.71659 0.5545 0.98187 0.0
H467 H 0.67725 0.6187 0.97768 0.0
H468 H 0.75281 0.49368 0.96119 0.0
H469 H 0.77871 0.56882 0.9202 0.0
H470 H 0.81282 0.5046 0.89829 0.0
H471 H 0.84791 0.42993 0.90017 0.0
C472 C 0.69833 0.88243 0.59304 0.0
C473 C 0.68235 0.87338 0.57164 0.0
C474 C 0.72043 0.92046 0.59237 0.0
C475 C 0.72687 0.95001 0.57026 0.0
C476 C 0.70992 0.94351 0.54939 0.0
C477 C 0.68795 0.90529 0.55 0.0
C478 C 0.75115 0.9875 0.56803 0.0
C479 C 0.77413 0.98015 0.58153 0.0
C480 C 0.79804 0.0181 0.57806 0.0
C481 C 0.81284 0.03642 0.59891 0.0
C482 C 0.83311 0.07835 0.59634 0.0
C483 C 0.83904 0.10189 0.57281 0.0
H484 H 0.79504 0.02301 0.53779 0.0
C485 C 0.82575 0.07985 0.55171 0.0
C486 C 0.80543 0.03826 0.55432 0.0
H487 H 0.8302 0.09633 0.53328 0.0
H488 H 0.69431 0.85889 0.61007 0.0
H489 H 0.73244 0.92623 0.60911 0.0
H490 H 0.71424 0.96658 0.53228 0.0
H491 H 0.6758 0.89977 0.53329 0.0
H492 H 0.75042 0.02104 0.55392 0.0
H493 H 0.77526 0.9475 0.59596 0.0
H494 H 0.80774 0.02055 0.61731 0.0
H495 H 0.8433 0.09395 0.61294 0.0
loop_
_geom_bond_atom_site_label_1
_geom_bond_atom_site_label_2
_geom_bond_distance
_geom_bond_site_symmetry_2
_ccdc_geom_bond_type
O0 Cd1 2.223 . S
O0 C8 1.315 . S
Cd1 O0 2.223 . S
Cd1 O4 2.297 . S
Cd1 O5 2.439 . S
Cd1 O11 2.240 . S
Cd2 O3 2.240 . S
Cd2 O10 2.223 . S
Cd2 O12 2.297 . S
Cd2 O13 2.439 . S
O3 Cd2 2.240 . S
O3 C8 1.279 . S
O4 Cd1 2.297 . S
O4 C6 1.247 . S
O5 Cd1 2.439 . S
O5 C6 1.208 . S
C6 O4 1.247 . S
C6 O5 1.208 . S
C7 O12 1.247 . S
C7 O13 1.208 . S
C8 O0 1.315 . S
C8 O3 1.279 . S
C9 O10 1.315 . S
C9 O11 1.279 . S
O10 Cd2 2.223 . S
O10 C9 1.315 . S
O11 Cd1 2.240 . S
O11 C9 1.279 . S
O12 Cd2 2.297 . S
O12 C7 1.247 . S
O13 Cd2 2.439 . S
O13 C7 1.208 . S
O14 Cd15 2.223 . S
O14 C22 1.315 . S
Cd15 O14 2.223 . S
Cd15 O18 2.297 . S
Cd15 O19 2.439 . S
Cd15 O25 2.240 . S
Cd16 O17 2.240 . S
Cd16 O24 2.223 . S
Cd16 O26 2.297 . S
Cd16 O27 2.439 . S
O17 Cd16 2.240 . S
O17 C22 1.279 . S
O18 Cd15 2.297 . S
O18 C20 1.247 . S
O19 Cd15 2.439 . S
O19 C20 1.208 . S
C20 O18 1.247 . S
C20 O19 1.208 . S
C21 O26 1.247 . S
C21 O27 1.208 . S
C22 O14 1.315 . S
C22 O17 1.279 . S
C23 O24 1.315 . S
C23 O25 1.279 . S
O24 Cd16 2.223 . S
O24 C23 1.315 . S
O25 Cd15 2.240 . S
O25 C23 1.279 . S
O26 Cd16 2.297 . S
O26 C21 1.247 . S
O27 Cd16 2.439 . S
O27 C21 1.208 . S
O28 Cd29 2.223 . S
O28 C36 1.315 . S
Cd29 O28 2.223 . S
Cd29 O32 2.297 . S
Cd29 O33 2.439 . S
Cd29 O39 2.240 . S
Cd30 O31 2.240 . S
Cd30 O38 2.223 . S
Cd30 O40 2.297 . S
Cd30 O41 2.439 . S
O31 Cd30 2.240 . S
O31 C36 1.279 . S
O32 Cd29 2.297 . S
O32 C34 1.247 . S
O33 Cd29 2.439 . S
O33 C34 1.208 . S
C34 O32 1.247 . S
C34 O33 1.208 . S
C35 O40 1.247 . S
C35 O41 1.208 . S
C36 O28 1.315 . S
C36 O31 1.279 . S
C37 O38 1.315 . S
C37 O39 1.279 . S
O38 Cd30 2.223 . S
O38 C37 1.315 . S
O39 Cd29 2.240 . S
O39 C37 1.279 . S
O40 Cd30 2.297 . S
O40 C35 1.247 . S
O41 Cd30 2.439 . S
O41 C35 1.208 . S
O42 Cd43 2.223 . S
O42 C50 1.315 . S
Cd43 O42 2.223 . S
Cd43 O46 2.297 . S
Cd43 O47 2.439 . S
Cd43 O53 2.240 . S
Cd44 O45 2.240 . S
Cd44 O52 2.223 . S
Cd44 O54 2.297 . S
Cd44 O55 2.439 . S
O45 Cd44 2.240 . S
O45 C50 1.279 . S
O46 Cd43 2.297 . S
O46 C48 1.247 . S
O47 Cd43 2.439 . S
O47 C48 1.208 . S
C48 O46 1.247 . S
C48 O47 1.208 . S
C49 O54 1.247 . S
C49 O55 1.208 . S
C50 O42 1.315 . S
C50 O45 1.279 . S
C51 O52 1.315 . S
C51 O53 1.279 . S
O52 Cd44 2.223 . S
O52 C51 1.315 . S
O53 Cd43 2.240 . S
O53 C51 1.279 . S
O54 Cd44 2.297 . S
O54 C49 1.247 . S
O55 Cd44 2.439 . S
O55 C49 1.208 . S
O56 Cd57 2.223 . S
O56 C64 1.315 . S
Cd57 O56 2.223 . S
Cd57 O60 2.297 . S
Cd57 O61 2.439 . S
Cd57 O67 2.240 . S
Cd58 O59 2.240 . S
Cd58 O66 2.223 . S
Cd58 O68 2.297 . S
Cd58 O69 2.439 . S
O59 Cd58 2.240 . S
O59 C64 1.279 . S
O60 Cd57 2.297 . S
O60 C62 1.247 . S
O61 Cd57 2.439 . S
O61 C62 1.208 . S
C62 O60 1.247 . S
C62 O61 1.208 . S
C63 O68 1.247 . S
C63 O69 1.208 . S
C64 O56 1.315 . S
C64 O59 1.279 . S
C65 O66 1.315 . S
C65 O67 1.279 . S
O66 Cd58 2.223 . S
O66 C65 1.315 . S
O67 Cd57 2.240 . S
O67 C65 1.279 . S
O68 Cd58 2.297 . S
O68 C63 1.247 . S
O69 Cd58 2.439 . S
O69 C63 1.208 . S
O70 Cd71 2.223 . S
O70 C78 1.315 . S
Cd71 O70 2.223 . S
Cd71 O74 2.297 . S
Cd71 O75 2.439 . S
Cd71 O81 2.240 . S
Cd72 O73 2.240 . S
Cd72 O80 2.223 . S
Cd72 O82 2.297 . S
Cd72 O83 2.439 . S
O73 Cd72 2.240 . S
O73 C78 1.279 . S
O74 Cd71 2.297 . S
O74 C76 1.247 . S
O75 Cd71 2.439 . S
O75 C76 1.208 . S
C76 O74 1.247 . S
C76 O75 1.208 . S
C77 O82 1.247 . S
C77 O83 1.208 . S
C78 O70 1.315 . S
C78 O73 1.279 . S
C79 O80 1.315 . S
C79 O81 1.279 . S
O80 Cd72 2.223 . S
O80 C79 1.315 . S
O81 Cd71 2.240 . S
O81 C79 1.279 . S
O82 Cd72 2.297 . S
O82 C77 1.247 . S
O83 Cd72 2.439 . S
O83 C77 1.208 . S
O84 Cd85 2.223 . S
O84 C92 1.315 . S
Cd85 O84 2.223 . S
Cd85 O88 2.297 . S
Cd85 O89 2.439 . S
Cd85 O95 2.240 . S
Cd86 O87 2.240 . S
Cd86 O94 2.223 . S
Cd86 O96 2.297 . S
Cd86 O97 2.439 . S
O87 Cd86 2.240 . S
O87 C92 1.279 . S
O88 Cd85 2.297 . S
O88 C90 1.247 . S
O89 Cd85 2.439 . S
O89 C90 1.208 . S
C90 O88 1.247 . S
C90 O89 1.208 . S
C91 O96 1.247 . S
C91 O97 1.208 . S
C92 O84 1.315 . S
C92 O87 1.279 . S
C93 O94 1.315 . S
C93 O95 1.279 . S
O94 Cd86 2.223 . S
O94 C93 1.315 . S
O95 Cd85 2.240 . S
O95 C93 1.279 . S
O96 Cd86 2.297 . S
O96 C91 1.247 . S
O97 Cd86 2.439 . S
O97 C91 1.208 . S
O98 Cd99 2.223 . S
O98 C106 1.315 . S
Cd99 O98 2.223 . S
Cd99 O102 2.297 . S
Cd99 O103 2.439 . S
Cd99 O109 2.240 . S
Cd100 O101 2.240 . S
Cd100 O108 2.223 . S
Cd100 O110 2.297 . S
Cd100 O111 2.439 . S
O101 Cd100 2.240 . S
O101 C106 1.279 . S
O102 Cd99 2.297 . S
O102 C104 1.247 . S
O103 Cd99 2.439 . S
O103 C104 1.208 . S
C104 O102 1.247 . S
C104 O103 1.208 . S
C105 O110 1.247 . S
C105 O111 1.208 . S
C106 O98 1.315 . S
C106 O101 1.279 . S
C107 O108 1.315 . S
C107 O109 1.279 . S
O108 Cd100 2.223 . S
O108 C107 1.315 . S
O109 Cd99 2.240 . S
O109 C107 1.279 . S
O110 Cd100 2.297 . S
O110 C105 1.247 . S
O111 Cd100 2.439 . S
O111 C105 1.208 . S
C112 C113 1.386 . S
C112 C114 1.383 . S
C112 H128 0.951 . S
C113 C112 1.386 . S
C113 C117 1.383 . S
C114 C112 1.383 . S
C114 C115 1.402 . S
C114 H129 0.951 . S
C115 C114 1.402 . S
C115 C116 1.375 . S
C115 C118 1.481 1_545 S
C116 C115 1.375 . S
C116 C117 1.367 . S
C116 H130 0.951 1_545 S
C117 C113 1.383 . S
C117 C116 1.367 . S
C117 H131 0.950 . S
C118 C115 1.481 1_565 S
C118 C119 1.297 . S
C118 H132 0.950 . S
C119 C118 1.297 . S
C119 C120 1.479 . S
C119 H133 0.950 1_565 S
C120 C119 1.479 . S
C120 C121 1.375 . S
C120 C126 1.404 . S
C121 C120 1.375 . S
C121 C122 1.369 . S
C121 H134 0.950 1_565 S
C122 C121 1.369 . S
C122 C123 1.392 . S
C122 H135 0.951 . S
C123 C122 1.392 . S
C123 C125 1.384 . S
H124 C126 0.949 . S
C125 C123 1.384 . S
C125 C126 1.385 . S
C125 H127 0.950 . S
C126 C120 1.404 . S
C126 H124 0.949 . S
C126 C125 1.385 . S
H127 C125 0.950 . S
H128 C112 0.951 . S
H129 C114 0.951 . S
H130 C116 0.951 1_565 S
H131 C117 0.950 . S
H132 C118 0.950 . S
H133 C119 0.950 1_545 S
H134 C121 0.950 1_545 S
H135 C122 0.951 . S
C136 C137 1.386 . S
C136 C138 1.383 . S
C136 H152 0.951 . S
C137 C136 1.386 . S
C137 C141 1.383 . S
C138 C136 1.383 . S
C138 C139 1.402 . S
C138 H153 0.951 . S
C139 C138 1.402 . S
C139 C140 1.375 . S
C139 C142 1.481 . S
C140 C139 1.375 . S
C140 C141 1.367 . S
C140 H154 0.951 . S
C141 C137 1.383 . S
C141 C140 1.367 . S
C141 H155 0.950 . S
C142 C139 1.481 . S
C142 C143 1.297 . S
C142 H156 0.950 . S
C143 C142 1.297 . S
C143 C144 1.479 . S
C143 H157 0.950 . S
C144 C143 1.479 . S
C144 C145 1.375 . S
C144 C150 1.404 . S
C145 C144 1.375 . S
C145 C146 1.369 . S
C145 H158 0.950 . S
C146 C145 1.369 . S
C146 C147 1.392 . S
C146 H159 0.951 . S
C147 C146 1.392 . S
C147 C149 1.384 . S
H148 C150 0.949 . S
C149 C147 1.384 . S
C149 C150 1.385 . S
C149 H151 0.950 . S
C150 C144 1.404 . S
C150 H148 0.949 . S
C150 C149 1.385 . S
H151 C149 0.950 . S
H152 C136 0.951 . S
H153 C138 0.951 . S
H154 C140 0.951 . S
H155 C141 0.950 . S
H156 C142 0.950 . S
H157 C143 0.950 . S
H158 C145 0.950 . S
H159 C146 0.951 . S
C160 C161 1.386 . S
C160 C162 1.383 . S
C160 H176 0.951 . S
C161 C160 1.386 . S
C161 C165 1.383 . S
C162 C160 1.383 . S
C162 C163 1.402 . S
C162 H177 0.951 . S
C163 C162 1.402 . S
C163 C164 1.375 . S
C163 C166 1.481 . S
C164 C163 1.375 . S
C164 C165 1.367 . S
C164 H178 0.951 . S
C165 C161 1.383 . S
C165 C164 1.367 . S
C165 H179 0.950 . S
C166 C163 1.481 . S
C166 C167 1.297 1_565 S
C166 H180 0.950 . S
C167 C166 1.297 1_545 S
C167 C168 1.479 . S
C167 H181 0.950 . S
C168 C167 1.479 . S
C168 C169 1.375 . S
C168 C174 1.404 . S
C169 C168 1.375 . S
C169 C170 1.369 . S
C169 H182 0.950 . S
C170 C169 1.369 . S
C170 C171 1.392 . S
C170 H183 0.951 . S
C171 C170 1.392 . S
C171 C173 1.384 . S
H172 C174 0.949 . S
C173 C171 1.384 . S
C173 C174 1.385 . S
C173 H175 0.950 . S
C174 C168 1.404 . S
C174 H172 0.949 . S
C174 C173 1.385 . S
H175 C173 0.950 . S
H176 C160 0.951 . S
H177 C162 0.951 . S
H178 C164 0.951 . S
H179 C165 0.950 . S
H180 C166 0.950 . S
H181 C167 0.950 . S
H182 C169 0.950 . S
H183 C170 0.951 . S
C184 C185 1.386 . S
C184 C186 1.383 . S
C184 H200 0.951 . S
C185 C184 1.386 . S
C185 C189 1.383 . S
C186 C184 1.383 . S
C186 C187 1.402 . S
C186 H201 0.951 . S
C187 C186 1.402 . S
C187 C188 1.375 . S
C187 C190 1.481 . S
C188 C187 1.375 . S
C188 C189 1.367 . S
C188 H202 0.951 . S
C189 C185 1.383 . S
C189 C188 1.367 . S
C189 H203 0.950 . S
C190 C187 1.481 . S
C190 C191 1.297 . S
C190 H204 0.950 . S
C191 C190 1.297 . S
C191 C192 1.479 . S
C191 H205 0.950 . S
C192 C191 1.479 . S
C192 C193 1.375 . S
C192 C198 1.404 . S
C193 C192 1.375 . S
C193 C194 1.369 . S
C193 H206 0.950 . S
C194 C193 1.369 . S
C194 C195 1.392 . S
C194 H207 0.951 . S
C195 C194 1.392 . S
C195 C197 1.384 . S
H196 C198 0.949 . S
C197 C195 1.384 . S
C197 C198 1.385 . S
C197 H199 0.950 . S
C198 C192 1.404 . S
C198 H196 0.949 . S
C198 C197 1.385 . S
H199 C197 0.950 . S
H200 C184 0.951 . S
H201 C186 0.951 . S
H202 C188 0.951 . S
H203 C189 0.950 . S
H204 C190 0.950 . S
H205 C191 0.950 . S
H206 C193 0.950 . S
H207 C194 0.951 . S
C208 C209 1.386 . S
C208 C210 1.383 . S
C208 H224 0.951 . S
C209 C208 1.386 . S
C209 C213 1.383 . S
C210 C208 1.383 . S
C210 C211 1.402 . S
C210 H225 0.951 . S
C211 C210 1.402 . S
C211 C212 1.375 . S
C211 C214 1.481 . S
C212 C211 1.375 . S
C212 C213 1.367 . S
C212 H226 0.951 . S
C213 C209 1.383 . S
C213 C212 1.367 . S
C213 H227 0.950 . S
C214 C211 1.481 . S
C214 C215 1.297 . S
C214 H228 0.950 . S
C215 C214 1.297 . S
C215 C216 1.479 . S
C215 H229 0.950 . S
C216 C215 1.479 . S
C216 C217 1.375 . S
C216 C222 1.404 . S
C217 C216 1.375 . S
C217 C218 1.369 . S
C217 H230 0.950 . S
C218 C217 1.369 . S
C218 C219 1.392 . S
C218 H231 0.951 . S
C219 C218 1.392 . S
C219 C221 1.384 . S
H220 C222 0.949 . S
C221 C219 1.384 . S
C221 C222 1.385 . S
C221 H223 0.950 . S
C222 C216 1.404 . S
C222 H220 0.949 . S
C222 C221 1.385 . S
H223 C221 0.950 . S
H224 C208 0.951 . S
H225 C210 0.951 . S
H226 C212 0.951 . S
H227 C213 0.950 . S
H228 C214 0.950 . S
H229 C215 0.950 . S
H230 C217 0.950 . S
H231 C218 0.951 . S
C232 C233 1.386 . S
C232 C234 1.383 . S
C232 H248 0.951 . S
C233 C232 1.386 . S
C233 C237 1.383 . S
C234 C232 1.383 . S
C234 C235 1.402 . S
C234 H249 0.951 . S
C235 C234 1.402 . S
C235 C236 1.375 . S
C235 C238 1.481 . S
C236 C235 1.375 . S
C236 C237 1.367 . S
C236 H250 0.951 . S
C237 C233 1.383 . S
C237 C236 1.367 . S
C237 H251 0.950 . S
C238 C235 1.481 . S
C238 C239 1.297 . S
C238 H252 0.950 . S
C239 C238 1.297 . S
C239 C240 1.479 . S
C239 H253 0.950 . S
C240 C239 1.479 . S
C240 C241 1.375 . S
C240 C246 1.404 . S
C241 C240 1.375 . S
C241 C242 1.369 . S
C241 H254 0.950 . S
C242 C241 1.369 . S
C242 C243 1.392 . S
C242 H255 0.951 . S
C243 C242 1.392 . S
C243 C245 1.384 . S
H244 C246 0.949 . S
C245 C243 1.384 . S
C245 C246 1.385 . S
C245 H247 0.950 . S
C246 C240 1.404 . S
C246 H244 0.949 . S
C246 C245 1.385 . S
H247 C245 0.950 . S
H248 C232 0.951 . S
H249 C234 0.951 . S
H250 C236 0.951 . S
H251 C237 0.950 . S
H252 C238 0.950 . S
H253 C239 0.950 . S
H254 C241 0.950 . S
H255 C242 0.951 . S
C256 C257 1.386 . S
C256 C258 1.383 . S
C256 H272 0.951 . S
C257 C256 1.386 . S
C257 C261 1.383 . S
C258 C256 1.383 . S
C258 C259 1.402 . S
C258 H273 0.951 . S
C259 C258 1.402 . S
C259 C260 1.375 . S
C259 C262 1.481 . S
C260 C259 1.375 . S
C260 C261 1.367 . S
C260 H274 0.951 . S
C261 C257 1.383 . S
C261 C260 1.367 . S
C261 H275 0.950 . S
C262 C259 1.481 . S
C262 C263 1.297 . S
C262 H276 0.950 . S
C263 C262 1.297 . S
C263 C264 1.479 . S
C263 H277 0.950 . S
C264 C263 1.479 . S
C264 C265 1.375 . S
C264 C270 1.404 . S
C265 C264 1.375 . S
C265 C266 1.369 . S
C265 H278 0.950 . S
C266 C265 1.369 . S
C266 C267 1.392 . S
C266 H279 0.951 . S
C267 C266 1.392 . S
C267 C269 1.384 . S
H268 C270 0.949 . S
C269 C267 1.384 . S
C269 C270 1.385 . S
C269 H271 0.950 . S
C270 C264 1.404 . S
C270 H268 0.949 . S
C270 C269 1.385 . S
H271 C269 0.950 . S
H272 C256 0.951 . S
H273 C258 0.951 . S
H274 C260 0.951 . S
H275 C261 0.950 . S
H276 C262 0.950 . S
H277 C263 0.950 . S
H278 C265 0.950 . S
H279 C266 0.951 . S
C280 C281 1.386 . S
C280 C282 1.383 . S
C280 H296 0.951 . S
C281 C280 1.386 . S
C281 C285 1.383 . S
C282 C280 1.383 . S
C282 C283 1.402 . S
C282 H297 0.951 . S
C283 C282 1.402 . S
C283 C284 1.375 . S
C283 C286 1.481 . S
C284 C283 1.375 . S
C284 C285 1.367 . S
C284 H298 0.951 . S
C285 C281 1.383 . S
C285 C284 1.367 . S
C285 H299 0.950 . S
C286 C283 1.481 . S
C286 C287 1.297 . S
C286 H300 0.950 . S
C287 C286 1.297 . S
C287 C288 1.479 . S
C287 H301 0.950 . S
C288 C287 1.479 . S
C288 C289 1.375 . S
C288 C294 1.404 . S
C289 C288 1.375 . S
C289 C290 1.369 . S
C289 H302 0.950 . S
C290 C289 1.369 . S
C290 C291 1.392 . S
C290 H303 0.951 . S
C291 C290 1.392 . S
C291 C293 1.384 . S
H292 C294 0.949 . S
C293 C291 1.384 . S
C293 C294 1.385 . S
C293 H295 0.950 . S
C294 C288 1.404 . S
C294 H292 0.949 . S
C294 C293 1.385 . S
H295 C293 0.950 . S
H296 C280 0.951 . S
H297 C282 0.951 . S
H298 C284 0.951 . S
H299 C285 0.950 . S
H300 C286 0.950 . S
H301 C287 0.950 . S
H302 C289 0.950 . S
H303 C290 0.951 . S
C304 C305 1.386 . S
C304 C306 1.383 . S
C304 H320 0.951 . S
C305 C304 1.386 . S
C305 C309 1.383 . S
C306 C304 1.383 . S
C306 C307 1.402 . S
C306 H321 0.951 1_554 S
C307 C306 1.402 . S
C307 C308 1.375 . S
C307 C310 1.481 . S
C308 C307 1.375 . S
C308 C309 1.367 . S
C308 H322 0.951 . S
C309 C305 1.383 . S
C309 C308 1.367 . S
C309 H323 0.950 . S
C310 C307 1.481 . S
C310 C311 1.297 1_554 S
C310 H324 0.950 . S
C311 C310 1.297 1_556 S
C311 C312 1.479 . S
C311 H325 0.950 . S
C312 C311 1.479 . S
C312 C313 1.375 . S
C312 C318 1.404 1_556 S
C313 C312 1.375 . S
C313 C314 1.369 . S
C313 H326 0.950 . S
C314 C313 1.369 . S
C314 C315 1.392 . S
C314 H327 0.951 . S
C315 C314 1.392 . S
C315 C317 1.384 . S
H316 C318 0.949 . S
C317 C315 1.384 . S
C317 C318 1.385 1_556 S
C317 H319 0.950 1_556 S
C318 C312 1.404 1_554 S
C318 H316 0.949 . S
C318 C317 1.385 1_554 S
H319 C317 0.950 1_554 S
H320 C304 0.951 . S
H321 C306 0.951 1_556 S
H322 C308 0.951 . S
H323 C309 0.950 . S
H324 C310 0.950 . S
H325 C311 0.950 . S
H326 C313 0.950 . S
H327 C314 0.951 . S
C328 C329 1.386 . S
C328 C330 1.383 . S
C328 H344 0.951 . S
C329 C328 1.386 . S
C329 C333 1.383 . S
C330 C328 1.383 . S
C330 C331 1.402 . S
C330 H345 0.951 1_554 S
C331 C330 1.402 . S
C331 C332 1.375 . S
C331 C334 1.485 . S
C332 C331 1.375 . S
C332 C333 1.367 . S
C332 H346 0.951 . S
C333 C329 1.383 . S
C333 C332 1.367 . S
C333 H347 0.950 . S
C334 C331 1.485 . S
C334 C335 1.290 1_454 S
C334 H348 0.953 . S
C335 C334 1.290 1_656 S
C335 C336 1.479 . S
C335 H349 0.950 . S
C336 C335 1.479 . S
C336 C337 1.375 . S
C336 C342 1.404 . S
C337 C336 1.375 . S
C337 C338 1.369 . S
C337 H350 0.950 . S
C338 C337 1.369 . S
C338 C339 1.392 . S
C338 H351 0.951 . S
C339 C338 1.392 . S
C339 C341 1.384 . S
H340 C342 0.949 1_455 S
C341 C339 1.384 . S
C341 C342 1.385 . S
C341 H343 0.950 . S
C342 C336 1.404 . S
C342 H340 0.949 1_655 S
C342 C341 1.385 . S
H343 C341 0.950 . S
H344 C328 0.951 . S
H345 C330 0.951 1_556 S
H346 C332 0.951 . S
H347 C333 0.950 . S
H348 C334 0.953 . S
H349 C335 0.950 . S
H350 C337 0.950 . S
H351 C338 0.951 . S
C352 C353 1.386 . S
C352 C354 1.383 . S
C352 H368 0.951 . S
C353 C352 1.386 . S
C353 C357 1.383 . S
C354 C352 1.383 . S
C354 C355 1.402 . S
C354 H369 0.951 . S
C355 C354 1.402 . S
C355 C356 1.375 . S
C355 C358 1.481 . S
C356 C355 1.375 . S
C356 C357 1.367 . S
C356 H370 0.951 . S
C357 C353 1.383 . S
C357 C356 1.367 . S
C357 H371 0.950 . S
C358 C355 1.481 . S
C358 C359 1.297 1_565 S
C358 H372 0.950 . S
C359 C358 1.297 1_545 S
C359 C360 1.479 . S
C359 H373 0.950 . S
C360 C359 1.479 . S
C360 C361 1.375 . S
C360 C366 1.404 . S
C361 C360 1.375 . S
C361 C362 1.369 . S
C361 H374 0.950 . S
C362 C361 1.369 . S
C362 C363 1.392 . S
C362 H375 0.951 . S
C363 C362 1.392 . S
C363 C365 1.384 . S
H364 C366 0.945 1_565 S
C365 C363 1.384 . S
C365 C366 1.385 . S
C365 H367 0.950 . S
C366 C360 1.404 . S
C366 H364 0.945 1_545 S
C366 C365 1.385 . S
H367 C365 0.950 . S
H368 C352 0.951 . S
H369 C354 0.951 . S
H370 C356 0.951 . S
H371 C357 0.950 . S
H372 C358 0.950 . S
H373 C359 0.950 . S
H374 C361 0.950 . S
H375 C362 0.951 . S
C376 C377 1.386 . S
C376 C378 1.383 . S
C376 H392 0.951 . S
C377 C376 1.386 . S
C377 C381 1.383 . S
C378 C376 1.383 . S
C378 C379 1.402 . S
C378 H393 0.951 1_655 S
C379 C378 1.402 . S
C379 C380 1.375 . S
C379 C382 1.481 1_545 S
C380 C379 1.375 . S
C380 C381 1.367 . S
C380 H394 0.951 1_545 S
C381 C377 1.383 . S
C381 C380 1.367 . S
C381 H395 0.950 . S
C382 C379 1.481 1_565 S
C382 C383 1.297 1_655 S
C382 H396 0.950 . S
C383 C382 1.297 1_455 S
C383 C384 1.479 . S
C383 H397 0.950 1_565 S
C384 C383 1.479 . S
C384 C385 1.375 . S
C384 C390 1.404 . S
C385 C384 1.375 . S
C385 C386 1.369 . S
C385 H398 0.950 . S
C386 C385 1.369 . S
C386 C387 1.392 . S
C386 H399 0.951 . S
C387 C386 1.392 . S
C387 C389 1.384 . S
H388 C390 0.949 . S
C389 C387 1.384 . S
C389 C390 1.385 . S
C389 H391 0.950 . S
C390 C384 1.404 . S
C390 H388 0.949 . S
C390 C389 1.385 . S
H391 C389 0.950 . S
H392 C376 0.951 . S
H393 C378 0.951 1_455 S
H394 C380 0.951 1_565 S
H395 C381 0.950 . S
H396 C382 0.950 . S
H397 C383 0.950 1_545 S
H398 C385 0.950 . S
H399 C386 0.951 . S
C400 C401 1.386 . S
C400 C402 1.383 . S
C400 H416 0.951 . S
C401 C400 1.386 . S
C401 C405 1.383 . S
C402 C400 1.383 . S
C402 C403 1.402 . S
C402 H417 0.951 . S
C403 C402 1.402 . S
C403 C404 1.375 . S
C403 C406 1.481 . S
C404 C403 1.375 . S
C404 C405 1.367 . S
C404 H418 0.951 . S
C405 C401 1.383 . S
C405 C404 1.367 . S
C405 H419 0.950 . S
C406 C403 1.481 . S
C406 C407 1.297 . S
C406 H420 0.950 . S
C407 C406 1.297 . S
C407 C408 1.479 . S
C407 H421 0.950 . S
C408 C407 1.479 . S
C408 C409 1.375 . S
C408 C414 1.404 . S
C409 C408 1.375 . S
C409 C410 1.369 . S
C409 H422 0.950 . S
C410 C409 1.369 . S
C410 C411 1.392 . S
C410 H423 0.951 . S
C411 C410 1.392 . S
C411 C413 1.384 . S
H412 C414 0.949 . S
C413 C411 1.384 . S
C413 C414 1.385 . S
C413 H415 0.950 . S
C414 C408 1.404 . S
C414 H412 0.949 . S
C414 C413 1.385 . S
H415 C413 0.950 . S
H416 C400 0.951 . S
H417 C402 0.951 . S
H418 C404 0.951 . S
H419 C405 0.950 . S
H420 C406 0.950 . S
H421 C407 0.950 . S
H422 C409 0.950 . S
H423 C410 0.951 . S
C424 C425 1.386 . S
C424 C426 1.383 . S
C424 H440 0.951 . S
C425 C424 1.386 . S
C425 C429 1.383 . S
C426 C424 1.383 . S
C426 C427 1.402 . S
C426 H441 0.951 . S
C427 C426 1.402 . S
C427 C428 1.375 . S
C427 C430 1.481 1_545 S
C428 C427 1.375 . S
C428 C429 1.367 . S
C428 H442 0.951 1_545 S
C429 C425 1.383 . S
C429 C428 1.367 . S
C429 H443 0.950 . S
C430 C427 1.481 1_565 S
C430 C431 1.297 . S
C430 H444 0.950 . S
C431 C430 1.297 . S
C431 C432 1.479 . S
C431 H445 0.950 1_565 S
C432 C431 1.479 . S
C432 C433 1.375 . S
C432 C438 1.404 . S
C433 C432 1.375 . S
C433 C434 1.369 . S
C433 H446 0.950 . S
C434 C433 1.369 . S
C434 C435 1.392 . S
C434 H447 0.951 . S
C435 C434 1.392 . S
C435 C437 1.384 . S
H436 C438 0.949 . S
C437 C435 1.384 . S
C437 C438 1.385 . S
C437 H439 0.950 . S
C438 C432 1.404 . S
C438 H436 0.949 . S
C438 C437 1.385 . S
H439 C437 0.950 . S
H440 C424 0.951 . S
H441 C426 0.951 . S
H442 C428 0.951 1_565 S
H443 C429 0.950 . S
H444 C430 0.950 . S
H445 C431 0.950 1_545 S
H446 C433 0.950 . S
H447 C434 0.951 . S
C448 C449 1.386 . S
C448 C450 1.383 . S
C448 H464 0.951 . S
C449 C448 1.386 . S
C449 C453 1.383 . S
C450 C448 1.383 . S
C450 C451 1.402 . S
C450 H465 0.951 . S
C451 C450 1.402 . S
C451 C452 1.375 . S
C451 C454 1.481 . S
C452 C451 1.375 . S
C452 C453 1.367 . S
C452 H466 0.951 . S
C453 C449 1.383 . S
C453 C452 1.367 . S
C453 H467 0.950 . S
C454 C451 1.481 . S
C454 C455 1.297 . S
C454 H468 0.950 . S
C455 C454 1.297 . S
C455 C456 1.479 . S
C455 H469 0.950 . S
C456 C455 1.479 . S
C456 C457 1.375 . S
C456 C462 1.404 . S
C457 C456 1.375 . S
C457 C458 1.369 . S
C457 H470 0.950 . S
C458 C457 1.369 . S
C458 C459 1.392 . S
C458 H471 0.951 . S
C459 C458 1.392 . S
C459 C461 1.384 . S
H460 C462 0.949 . S
C461 C459 1.384 . S
C461 C462 1.385 . S
C461 H463 0.950 . S
C462 C456 1.404 . S
C462 H460 0.949 . S
C462 C461 1.385 . S
H463 C461 0.950 . S
H464 C448 0.951 . S
H465 C450 0.951 . S
H466 C452 0.951 . S
H467 C453 0.950 . S
H468 C454 0.950 . S
H469 C455 0.950 . S
H470 C457 0.950 . S
H471 C458 0.951 . S
C472 C473 1.386 . S
C472 C474 1.383 . S
C472 H488 0.951 . S
C473 C472 1.386 . S
C473 C477 1.383 . S
C474 C472 1.383 . S
C474 C475 1.402 . S
C474 H489 0.951 . S
C475 C474 1.402 . S
C475 C476 1.375 . S
C475 C478 1.481 . S
C476 C475 1.375 . S
C476 C477 1.367 . S
C476 H490 0.951 . S
C477 C473 1.383 . S
C477 C476 1.367 . S
C477 H491 0.950 . S
C478 C475 1.481 . S
C478 C479 1.297 . S
C478 H492 0.950 1_565 S
C479 C478 1.297 . S
C479 C480 1.479 1_565 S
C479 H493 0.950 . S
C480 C479 1.479 1_545 S
C480 C481 1.375 . S
C480 C486 1.404 . S
C481 C480 1.375 . S
C481 C482 1.369 . S
C481 H494 0.950 . S
C482 C481 1.369 . S
C482 C483 1.392 . S
C482 H495 0.951 . S
C483 C482 1.392 . S
C483 C485 1.384 . S
H484 C486 0.949 . S
C485 C483 1.384 . S
C485 C486 1.385 . S
C485 H487 0.950 . S
C486 C480 1.404 . S
C486 H484 0.949 . S
C486 C485 1.385 . S
H487 C485 0.950 . S
H488 C472 0.951 . S
H489 C474 0.951 . S
H490 C476 0.951 . S
H491 C477 0.950 . S
H492 C478 0.950 1_545 S
H493 C479 0.950 . S
H494 C481 0.950 . S
H495 C482 0.951 . S
C113 C9 1.658 . S
C123 C23 1.666 . S
C137 C51 1.651 . S
C147 C37 1.655 . S
C161 C65 1.613 . S
C171 C79 1.666 . S
C185 C93 1.608 . S
C195 C107 1.655 . S
C209 C7 1.672 . S
C219 C35 1.638 . S
C233 C49 1.659 . S
C243 C21 1.735 . S
C257 C63 1.718 . S
C267 C91 1.732 . S
C281 C105 1.678 . S
C291 C77 1.648 . S
C305 C6 1.236 . S
C315 C62 1.230 . S
C329 C20 1.206 . S
C339 C76 1.249 . S
C353 C90 1.221 . S
C363 C34 1.250 . S
C377 C104 1.225 . S
C387 C48 1.187 . S
C401 C22 1.293 . S
C411 C8 1.277 . S
C425 C36 1.288 . S
C435 C50 1.288 . S
C449 C64 1.299 . S
C459 C78 1.283 . S
C473 C92 1.303 . S
C483 C106 1.277 . S
