# Generated by pormake.
# Topology vbm, (6)-cn, num edge types: 1
# Building blocks:
#     Node 0, Type 0, BuildingBlock: GEDQOX_clean_sbu_0, # of connection points: 6
#     Node 1, Type 0, BuildingBlock: GEDQOX_clean_sbu_0, # of connection points: 6
#     Node 2, Type 0, BuildingBlock: GEDQOX_clean_sbu_0, # of connection points: 6
#     Node 3, Type 0, BuildingBlock: GEDQOX_clean_sbu_0, # of connection points: 6
#     Node 4, Type 0, BuildingBlock: GEDQOX_clean_sbu_0, # of connection points: 6
#     Node 5, Type 0, BuildingBlock: GEDQOX_clean_sbu_0, # of connection points: 6
#     Node 6, Type 0, BuildingBlock: GEDQOX_clean_sbu_0, # of connection points: 6
#     Node 7, Type 0, BuildingBlock: GEDQOX_clean_sbu_0, # of connection points: 6
#     Node 8, Type 0, BuildingBlock: GEDQOX_clean_sbu_0, # of connection points: 6
#     Node 9, Type 0, BuildingBlock: GEDQOX_clean_sbu_0, # of connection points: 6
#     Node 10, Type 0, BuildingBlock: GEDQOX_clean_sbu_0, # of connection points: 6
#     Node 11, Type 0, BuildingBlock: GEDQOX_clean_sbu_0, # of connection points: 6
#     Node 12, Type 0, BuildingBlock: GEDQOX_clean_sbu_0, # of connection points: 6
#     Node 13, Type 0, BuildingBlock: GEDQOX_clean_sbu_0, # of connection points: 6
#     Node 14, Type 0, BuildingBlock: GEDQOX_clean_sbu_0, # of connection points: 6
#     Node 15, Type 0, BuildingBlock: GEDQOX_clean_sbu_0, # of connection points: 6
#     Edge 16, Type (0, 0), BuildingBlock: KIFKEQ_clean_linker_1, # of connection points: 2
#     Edge 17, Type (0, 0), BuildingBlock: KIFKEQ_clean_linker_1, # of connection points: 2
#     Edge 18, Type (0, 0), BuildingBlock: KIFKEQ_clean_linker_1, # of connection points: 2
#     Edge 19, Type (0, 0), BuildingBlock: KIFKEQ_clean_linker_1, # of connection points: 2
#     Edge 20, Type (0, 0), BuildingBlock: KIFKEQ_clean_linker_1, # of connection points: 2
#     Edge 21, Type (0, 0), BuildingBlock: KIFKEQ_clean_linker_1, # of connection points: 2
#     Edge 22, Type (0, 0), BuildingBlock: KIFKEQ_clean_linker_1, # of connection points: 2
#     Edge 23, Type (0, 0), BuildingBlock: KIFKEQ_clean_linker_1, # of connection points: 2
#     Edge 24, Type (0, 0), BuildingBlock: KIFKEQ_clean_linker_1, # of connection points: 2
#     Edge 25, Type (0, 0), BuildingBlock: KIFKEQ_clean_linker_1, # of connection points: 2
#     Edge 26, Type (0, 0), BuildingBlock: KIFKEQ_clean_linker_1, # of connection points: 2
#     Edge 27, Type (0, 0), BuildingBlock: KIFKEQ_clean_linker_1, # of connection points: 2
#     Edge 28, Type (0, 0), BuildingBlock: KIFKEQ_clean_linker_1, # of connection points: 2
#     Edge 29, Type (0, 0), BuildingBlock: KIFKEQ_clean_linker_1, # of connection points: 2
#     Edge 30, Type (0, 0), BuildingBlock: KIFKEQ_clean_linker_1, # of connection points: 2
#     Edge 31, Type (0, 0), BuildingBlock: KIFKEQ_clean_linker_1, # of connection points: 2
#     Edge 32, Type (0, 0), BuildingBlock: KIFKEQ_clean_linker_1, # of connection points: 2
#     Edge 33, Type (0, 0), BuildingBlock: KIFKEQ_clean_linker_1, # of connection points: 2
#     Edge 34, Type (0, 0), BuildingBlock: KIFKEQ_clean_linker_1, # of connection points: 2
#     Edge 35, Type (0, 0), BuildingBlock: KIFKEQ_clean_linker_1, # of connection points: 2
#     Edge 36, Type (0, 0), BuildingBlock: KIFKEQ_clean_linker_1, # of connection points: 2
#     Edge 37, Type (0, 0), BuildingBlock: KIFKEQ_clean_linker_1, # of connection points: 2
#     Edge 38, Type (0, 0), BuildingBlock: KIFKEQ_clean_linker_1, # of connection points: 2
#     Edge 39, Type (0, 0), BuildingBlock: KIFKEQ_clean_linker_1, # of connection points: 2
#     Edge 40, Type (0, 0), BuildingBlock: KIFKEQ_clean_linker_1, # of connection points: 2
#     Edge 41, Type (0, 0), BuildingBlock: KIFKEQ_clean_linker_1, # of connection points: 2
#     Edge 42, Type (0, 0), BuildingBlock: KIFKEQ_clean_linker_1, # of connection points: 2
#     Edge 43, Type (0, 0), BuildingBlock: KIFKEQ_clean_linker_1, # of connection points: 2
#     Edge 44, Type (0, 0), BuildingBlock: KIFKEQ_clean_linker_1, # of connection points: 2
#     Edge 45, Type (0, 0), BuildingBlock: KIFKEQ_clean_linker_1, # of connection points: 2
#     Edge 46, Type (0, 0), BuildingBlock: KIFKEQ_clean_linker_1, # of connection points: 2
#     Edge 47, Type (0, 0), BuildingBlock: KIFKEQ_clean_linker_1, # of connection points: 2
#     Edge 48, Type (0, 0), BuildingBlock: KIFKEQ_clean_linker_1, # of connection points: 2
#     Edge 49, Type (0, 0), BuildingBlock: KIFKEQ_clean_linker_1, # of connection points: 2
#     Edge 50, Type (0, 0), BuildingBlock: KIFKEQ_clean_linker_1, # of connection points: 2
#     Edge 51, Type (0, 0), BuildingBlock: KIFKEQ_clean_linker_1, # of connection points: 2
#     Edge 52, Type (0, 0), BuildingBlock: KIFKEQ_clean_linker_1, # of connection points: 2
#     Edge 53, Type (0, 0), BuildingBlock: KIFKEQ_clean_linker_1, # of connection points: 2
#     Edge 54, Type (0, 0), BuildingBlock: KIFKEQ_clean_linker_1, # of connection points: 2
#     Edge 55, Type (0, 0), BuildingBlock: KIFKEQ_clean_linker_1, # of connection points: 2
#     Edge 56, Type (0, 0), BuildingBlock: KIFKEQ_clean_linker_1, # of connection points: 2
#     Edge 57, Type (0, 0), BuildingBlock: KIFKEQ_clean_linker_1, # of connection points: 2
#     Edge 58, Type (0, 0), BuildingBlock: KIFKEQ_clean_linker_1, # of connection points: 2
#     Edge 59, Type (0, 0), BuildingBlock: KIFKEQ_clean_linker_1, # of connection points: 2
#     Edge 60, Type (0, 0), BuildingBlock: KIFKEQ_clean_linker_1, # of connection points: 2
#     Edge 61, Type (0, 0), BuildingBlock: KIFKEQ_clean_linker_1, # of connection points: 2
#     Edge 62, Type (0, 0), BuildingBlock: KIFKEQ_clean_linker_1, # of connection points: 2
#     Edge 63, Type (0, 0), BuildingBlock: KIFKEQ_clean_linker_1, # of connection points: 2
# Relax obj value: 0.191
# Max RMSD: 0.206
# Mean RMSD: 0.206
data_MOF--net-vbm--node1-GEDQOX_clean_sbu_0--edge1-KIFKEQ_clean_linker_1
_symmetry_space_group_name_H-M    P1
_symmetry_Int_Tables_number       1
_symmetry_cell_setting            triclinic
loop_
_symmetry_equiv_pos_as_xyz
'x, y, z'
_cell_length_a     105.22492
_cell_length_b     15.827764
_cell_length_c     59.160885
_cell_angle_alpha  90.090597
_cell_angle_beta   90.095455
_cell_angle_gamma 89.322488
loop_
_atom_site_label
_atom_site_type_symbol
_atom_site_fract_x
_atom_site_fract_y
_atom_site_fract_z
_atom_type_partial_charge
Nd0 Nd 0.12483 0.13297 0.13961 0.0
Nd1 Nd 0.15602 0.13136 0.13007 0.0
C2 C 0.1021 0.1316 0.15863 0.0
C3 C 0.08861 0.11301 0.15411 0.0
C4 C 0.08124 0.07976 0.17159 0.0
C5 C 0.06824 0.06653 0.16854 0.0
C6 C 0.0623 0.08627 0.14786 0.0
C7 C 0.06977 0.11828 0.13015 0.0
C8 C 0.08282 0.13138 0.13323 0.0
C9 C 0.13017 0.13011 0.09366 0.0
C10 C 0.14034 0.9532 0.13308 0.0
C11 C 0.17912 0.13674 0.11263 0.0
C12 C 0.19203 0.16829 0.11789 0.0
C13 C 0.19806 0.22159 0.10242 0.0
C14 C 0.21059 0.24732 0.10601 0.0
C15 C 0.21744 0.2202 0.12518 0.0
C16 C 0.21129 0.16822 0.14095 0.0
C17 C 0.19872 0.14267 0.13738 0.0
C18 C 0.15014 0.12881 0.17592 0.0
C19 C 0.14074 0.31205 0.1375 0.0
O20 O 0.11006 0.06736 0.15959 0.0
O21 O 0.10688 0.1983 0.14885 0.0
O22 O 0.11876 0.13029 0.10202 0.0
O23 O 0.13799 0.12983 0.1098 0.0
O24 O 0.13054 0.99325 0.14243 0.0
O25 O 0.15011 0.99321 0.12397 0.0
O26 O 0.17025 0.19321 0.10807 0.0
O27 O 0.17494 0.07272 0.12445 0.0
O28 O 0.1617 0.13054 0.16827 0.0
O29 O 0.14276 0.13201 0.15932 0.0
O30 O 0.15099 0.27265 0.12959 0.0
O31 O 0.13051 0.272 0.14471 0.0
H32 H 0.08551 0.06552 0.18785 0.0
H33 H 0.06279 1.04296 0.18264 0.0
H34 H 0.06553 0.13315 0.11392 0.0
H35 H 0.08834 0.15676 0.11942 0.0
H36 H 0.19316 0.24197 0.08723 0.0
H37 H 0.21503 0.28643 0.09334 0.0
H38 H 0.21619 0.14708 0.15607 0.0
H39 H 0.19433 0.10194 0.14974 0.0
Nd40 Nd 0.90172 0.95514 0.13211 0.0
Nd41 Nd 0.8736 0.95964 0.13381 0.0
C42 C 0.92669 0.9655 0.13214 0.0
C43 C 0.94024 0.98661 0.13446 0.0
C44 C 0.94556 1.01152 0.15515 0.0
C45 C 0.95861 1.02782 0.15674 0.0
C46 C 0.96658 1.019 0.1377 0.0
C47 C 0.9611 0.9945 0.11703 0.0
C48 C 0.9481 0.97882 0.11545 0.0
C49 C 0.89015 0.91667 0.09142 0.0
C50 C 0.88791 0.14076 0.13204 0.0
C51 C 0.84871 0.97219 0.12702 0.0
C52 C 0.83612 0.93297 0.13075 0.0
C53 C 0.83154 0.87067 0.11593 0.0
C54 C 0.81899 0.84281 0.11747 0.0
C55 C 0.81065 0.87677 0.1338 0.0
C56 C 0.81537 0.93704 0.14909 0.0
C57 C 0.82792 0.96494 0.14753 0.0
C58 C 0.88452 0.94668 0.17625 0.0
C59 C 0.88772 0.7784 0.13771 0.0
O60 O 0.92025 0.9362 0.14934 0.0
O61 O 0.91975 0.99271 0.11524 0.0
O62 O 0.89935 0.8733 0.10034 0.0
O63 O 0.88695 0.97645 0.10441 0.0
O64 O 0.89873 0.09861 0.134 0.0
O65 O 0.87696 0.10166 0.1304 0.0
O66 O 0.85657 0.93556 0.11282 0.0
O67 O 0.8545 1.00678 0.14425 0.0
O68 O 0.87475 0.90408 0.1695 0.0
O69 O 0.88843 0.99345 0.16049 0.0
O70 O 0.87756 0.81758 0.12965 0.0
O71 O 0.89789 0.82033 0.14395 0.0
H72 H 0.93967 1.01814 0.17006 0.0
H73 H 0.96244 0.04764 0.17287 0.0
H74 H 0.96689 0.98532 0.10209 0.0
H75 H 0.94421 0.959 0.09934 0.0
H76 H 0.83751 0.84537 0.10259 0.0
H77 H 0.81568 0.79714 0.10522 0.0
H78 H 0.8093 0.96373 0.16209 0.0
H79 H 0.83109 1.01356 0.15908 0.0
Nd80 Nd 0.12746 0.95303 0.37763 0.0
Nd81 Nd 0.15517 0.96318 0.38425 0.0
C82 C 0.1032 0.96308 0.3653 0.0
C83 C 0.08998 0.98847 0.37081 0.0
C84 C 0.08355 1.04545 0.35653 0.0
C85 C 0.07049 0.05995 0.35891 0.0
C86 C 0.06353 1.01717 0.37553 0.0
C87 C 0.07005 0.96244 0.39037 0.0
C88 C 0.08314 0.94829 0.38807 0.0
C89 C 0.13481 0.93476 0.42242 0.0
C90 C 0.1402 0.13821 0.38538 0.0
C91 C 0.17951 0.95302 0.39604 0.0
C92 C 0.19207 0.91227 0.39218 0.0
C93 C 0.19864 0.87724 0.41064 0.0
C94 C 0.2113 0.85047 0.40847 0.0
C95 C 0.21773 0.85853 0.38776 0.0
C96 C 0.21098 0.89065 0.36902 0.0
C97 C 0.19829 0.91717 0.37119 0.0
C98 C 0.14772 0.99331 0.34036 0.0
C99 C 0.14247 0.7779 0.37505 0.0
O100 O 0.11147 1.02133 0.36046 0.0
O101 O 0.10822 0.89904 0.3761 0.0
O102 O 0.12574 0.89332 0.41293 0.0
O103 O 0.13926 0.98776 0.40883 0.0
O104 O 0.1312 0.09624 0.37477 0.0
O105 O 0.14959 0.09711 0.39544 0.0
O106 O 0.17062 0.91018 0.40617 0.0
O107 O 0.17507 1.00354 0.38042 0.0
O108 O 0.15657 1.03354 0.35082 0.0
O109 O 0.14336 0.93466 0.3525 0.0
O110 O 0.15184 0.81881 0.38488 0.0
O111 O 0.13277 0.81957 0.36628 0.0
H112 H 0.08854 0.07624 0.34289 0.0
H113 H 0.06573 0.10182 0.34706 0.0
H114 H 0.06497 0.92941 0.40353 0.0
H115 H 0.0878 0.90371 0.39932 0.0
H116 H 0.19413 0.87369 0.42706 0.0
H117 H 0.21622 0.8269 0.42331 0.0
H118 H 0.21558 0.89655 0.35275 0.0
H119 H 0.19349 0.94394 0.3566 0.0
Nd120 Nd 0.90254 0.13612 0.38138 0.0
Nd121 Nd 0.87302 0.13734 0.38397 0.0
C122 C 0.92718 0.11236 0.37734 0.0
C123 C 0.9411 0.09974 0.37671 0.0
C124 C 0.94758 0.09125 0.3561 0.0
C125 C 0.96081 0.08007 0.35583 0.0
C126 C 0.96777 0.07855 0.37615 0.0
C127 C 0.96124 0.08701 0.39673 0.0
C128 C 0.94804 0.09707 0.397 0.0
C129 C 0.89239 0.17268 0.42317 0.0
C130 C 0.88758 0.95564 0.38281 0.0
C131 C 0.84948 0.14703 0.39947 0.0
C132 C 0.83649 0.17941 0.39485 0.0
C133 C 0.82982 0.22039 0.41227 0.0
C134 C 0.81708 0.244 0.40943 0.0
C135 C 0.81067 0.22699 0.38906 0.0
C136 C 0.81747 0.18772 0.37137 0.0
C137 C 0.83027 0.16427 0.37421 0.0
C138 C 0.87955 0.12816 0.33877 0.0
C139 C 0.88837 0.31672 0.37693 0.0
O140 O 0.92046 0.1469 0.361 0.0
O141 O 0.92071 0.08953 0.39512 0.0
O142 O 0.90188 0.21188 0.4143 0.0
O143 O 0.88846 0.11585 0.40993 0.0
O144 O 0.89793 0.99588 0.37671 0.0
O145 O 0.87716 0.99629 0.38918 0.0
O146 O 0.85824 0.20181 0.40485 0.0
O147 O 0.85376 0.08459 0.38695 0.0
O148 O 0.86799 0.13312 0.3462 0.0
O149 O 0.88724 0.13171 0.35514 0.0
O150 O 0.87779 0.27927 0.38334 0.0
O151 O 0.89898 0.27455 0.37246 0.0
H152 H 0.94242 0.09309 0.34024 0.0
H153 H 0.96562 0.07421 0.33972 0.0
H154 H 0.96633 0.08528 0.41265 0.0
H155 H 0.94328 0.10372 0.41314 0.0
H156 H 0.83438 0.23207 0.4284 0.0
H157 H 0.81212 0.27309 0.42352 0.0
H158 H 0.81288 0.1747 0.35536 0.0
H159 H 0.83519 0.13289 0.36044 0.0
Nd160 Nd 0.87327 0.95498 0.88535 0.0
Nd161 Nd 0.90466 0.95389 0.87773 0.0
C162 C 0.85009 0.95018 0.90238 0.0
C163 C 0.83723 0.91692 0.89775 0.0
C164 C 0.83141 0.86604 0.91403 0.0
C165 C 0.8188 0.8408 0.91138 0.0
C166 C 0.81164 0.86627 0.89242 0.0
C167 C 0.81763 0.91454 0.87563 0.0
C168 C 0.83029 0.93967 0.87827 0.0
C169 C 0.87976 0.95607 0.83985 0.0
C170 C 0.88871 0.7746 0.87864 0.0
C171 C 0.92776 0.95552 0.86022 0.0
C172 C 0.94101 0.97969 0.86492 0.0
C173 C 0.94852 1.00742 0.84694 0.0
C174 C 0.96136 1.02501 0.85022 0.0
C175 C 0.96704 1.01558 0.87165 0.0
C176 C 0.95942 0.98904 0.88981 0.0
C177 C 0.94651 0.97134 0.88649 0.0
C178 C 0.89816 0.95477 0.92323 0.0
C179 C 0.88911 0.13408 0.88396 0.0
O180 O 0.85905 0.89546 0.90782 0.0
O181 O 0.85415 1.01208 0.88965 0.0
O182 O 0.86813 0.95415 0.84714 0.0
O183 O 0.88707 0.95386 0.85667 0.0
O184 O 0.87819 0.81355 0.88552 0.0
O185 O 0.89916 0.81465 0.87249 0.0
O186 O 0.91941 1.01653 0.85702 0.0
O187 O 0.92322 0.89139 0.8715 0.0
O188 O 0.90982 0.95419 0.91596 0.0
O189 O 0.8909 0.95693 0.90636 0.0
O190 O 0.89936 0.0945 0.87612 0.0
O191 O 0.87888 0.0939 0.89125 0.0
H192 H 0.83653 0.8474 0.92916 0.0
H193 H 0.81461 0.80218 0.92443 0.0
H194 H 0.8124 0.93569 0.86087 0.0
H195 H 0.83452 0.97872 0.86535 0.0
H196 H 0.94448 1.01376 0.83015 0.0
H197 H 0.96693 1.0438 0.83573 0.0
H198 H 0.96343 0.98197 0.90659 0.0
H199 H 0.94088 0.95019 0.90067 0.0
Nd200 Nd 0.15568 0.12903 0.88436 0.0
Nd201 Nd 0.12579 0.13779 0.87898 0.0
C202 C 0.18011 0.13856 0.89515 0.0
C203 C 0.19229 0.1829 0.89163 0.0
C204 C 0.1979 0.22575 0.9098 0.0
C205 C 0.21034 0.25538 0.90821 0.0
C206 C 0.21754 0.24225 0.88844 0.0
C207 C 0.21169 0.20293 0.86985 0.0
C208 C 0.19922 0.17353 0.87142 0.0
C209 C 0.14654 0.09477 0.84184 0.0
C210 C 0.14159 0.31542 0.8779 0.0
C211 C 0.10232 0.13561 0.86287 0.0
C212 C 0.08903 0.11197 0.86779 0.0
C213 C 0.08239 0.06436 0.85175 0.0
C214 C 0.06939 0.04978 0.85428 0.0
C215 C 0.06268 0.08286 0.87292 0.0
C216 C 0.06946 0.12767 0.88952 0.0
C217 C 0.08251 0.14224 0.88697 0.0
C218 C 0.13193 0.13424 0.92464 0.0
C219 C 0.14027 0.95601 0.88705 0.0
O220 O 0.1711 0.17594 0.90688 0.0
O221 O 0.17573 0.09262 0.87857 0.0
O222 O 0.15632 0.05766 0.8509 0.0
O223 O 0.14221 0.15268 0.85459 0.0
O224 O 0.15232 0.27304 0.88157 0.0
O225 O 0.13061 0.27747 0.87474 0.0
O226 O 0.11062 0.0748 0.85911 0.0
O227 O 0.10707 0.19969 0.87393 0.0
O228 O 0.12041 0.13935 0.91701 0.0
O229 O 0.13944 0.13139 0.90819 0.0
O230 O 0.13089 0.99637 0.87658 0.0
O231 O 0.14984 0.99723 0.89633 0.0
H232 H 0.19284 0.23349 0.92561 0.0
H233 H 0.21443 0.28685 0.92272 0.0
H234 H 0.21694 0.19106 0.85442 0.0
H235 H 0.19523 0.14033 0.8571 0.0
H236 H 0.08719 1.04041 0.83682 0.0
H237 H 0.06455 1.01363 0.84139 0.0
H238 H 0.06459 0.15442 0.90402 0.0
H239 H 0.08738 0.17927 0.89965 0.0
Nd240 Nd 0.87283 0.13737 0.63224 0.0
Nd241 Nd 0.90178 0.1416 0.63472 0.0
C242 C 0.84928 0.14386 0.61684 0.0
C243 C 0.83634 0.1767 0.62131 0.0
C244 C 0.83006 0.22176 0.60417 0.0
C245 C 0.81731 0.24528 0.60655 0.0
C246 C 0.81051 0.22384 0.62613 0.0
C247 C 0.81696 0.18183 0.64377 0.0
C248 C 0.82977 0.15829 0.64137 0.0
C249 C 0.87906 0.1292 0.67761 0.0
C250 C 0.88738 0.31945 0.63971 0.0
C251 C 0.9264 0.11757 0.6379 0.0
C252 C 0.94018 0.1041 0.63972 0.0
C253 C 0.94575 0.08792 0.66083 0.0
C254 C 0.95879 0.07161 0.66256 0.0
C255 C 0.96654 0.07247 0.64318 0.0
C256 C 0.96086 0.08905 0.62205 0.0
C257 C 0.9478 0.10409 0.62032 0.0
C258 C 0.89123 0.17331 0.5929 0.0
C259 C 0.88776 0.9595 0.63416 0.0
O260 O 0.85796 0.19847 0.61102 0.0
O261 O 0.85365 0.08273 0.6297 0.0
O262 O 0.86757 0.13214 0.66981 0.0
O263 O 0.88692 0.13401 0.66157 0.0
O264 O 0.87727 0.2801 0.63176 0.0
O265 O 0.89781 0.27768 0.64551 0.0
O266 O 0.91982 0.15604 0.65373 0.0
O267 O 0.91991 0.09301 0.62024 0.0
O268 O 0.90012 0.21847 0.60181 0.0
O269 O 0.88803 0.11524 0.60619 0.0
O270 O 0.89746 1.00223 0.64221 0.0
O271 O 0.87774 0.99841 0.62553 0.0
H272 H 0.83493 0.23675 0.58858 0.0
H273 H 0.81271 0.27908 0.59284 0.0
H274 H 0.81198 0.16416 0.65902 0.0
H275 H 0.83441 0.12366 0.65491 0.0
H276 H 0.93996 0.08642 0.67596 0.0
H277 H 0.96276 0.05768 0.67905 0.0
H278 H 0.96653 0.09196 0.60681 0.0
H279 H 0.94369 0.11659 0.60384 0.0
Nd280 Nd 0.15589 0.9612 0.6329 0.0
Nd281 Nd 0.12664 0.95692 0.63358 0.0
C282 C 0.17964 0.9544 0.61852 0.0
C283 C 0.19241 0.91799 0.62288 0.0
C284 C 0.19861 0.87455 0.60534 0.0
C285 C 0.21126 0.84829 0.6077 0.0
C286 C 0.21805 0.86526 0.62766 0.0
C287 C 0.21166 0.90546 0.64567 0.0
C288 C 0.19895 0.93174 0.6433 0.0
C289 C 0.14863 0.96326 0.67771 0.0
C290 C 0.14137 0.7798 0.63886 0.0
C291 C 0.10164 0.96193 0.6355 0.0
C292 C 0.08843 0.99254 0.63763 0.0
C293 C 0.08337 1.02136 0.65822 0.0
C294 C 0.07033 1.03927 0.66007 0.0
C295 C 0.06216 1.0277 0.64144 0.0
C296 C 0.0674 1.00032 0.62081 0.0
C297 C 0.08037 0.98337 0.61894 0.0
C298 C 0.13809 0.92797 0.59236 0.0
C299 C 0.14061 0.1408 0.63393 0.0
O300 O 0.17082 0.90324 0.61122 0.0
O301 O 0.17532 1.01277 0.63234 0.0
O302 O 0.16033 0.96012 0.67094 0.0
O303 O 0.14121 0.96067 0.66098 0.0
O304 O 0.15152 0.81897 0.63118 0.0
O305 O 0.13098 0.82169 0.64464 0.0
O306 O 0.10873 0.9473 0.65334 0.0
O307 O 0.10801 0.97805 0.6171 0.0
O308 O 0.12922 0.88127 0.60064 0.0
O309 O 0.14098 0.9854 0.60616 0.0
O310 O 0.13002 0.09933 0.638 0.0
O311 O 0.15141 0.1018 0.62898 0.0
H312 H 0.19377 0.86309 0.58946 0.0
H313 H 0.2158 0.81601 0.59366 0.0
H314 H 0.21662 0.91979 0.66124 0.0
H315 H 0.1944 0.96501 0.65716 0.0
H316 H 0.0894 1.02835 0.67294 0.0
H317 H 0.06665 0.06121 0.67615 0.0
H318 H 0.06145 0.98863 0.60623 0.0
H319 H 0.08402 0.95971 0.60299 0.0
Nd320 Nd 0.62508 0.63142 0.13929 0.0
Nd321 Nd 0.65623 0.62992 0.12971 0.0
C322 C 0.60224 0.63171 0.15793 0.0
C323 C 0.58874 0.61401 0.15318 0.0
C324 C 0.58116 0.58298 0.17067 0.0
C325 C 0.56817 0.57017 0.16734 0.0
C326 C 0.56242 0.58796 0.14635 0.0
C327 C 0.57009 0.61813 0.12867 0.0
C328 C 0.58314 0.6309 0.13204 0.0
C329 C 0.63044 0.62516 0.09329 0.0
C330 C 0.64063 0.45195 0.1334 0.0
C331 C 0.67923 0.63448 0.11186 0.0
C332 C 0.69216 0.66604 0.11672 0.0
C333 C 0.69869 0.70986 0.09983 0.0
C334 C 0.71121 0.73579 0.10328 0.0
C335 C 0.71755 0.71842 0.12375 0.0
C336 C 0.7109 0.67583 0.14087 0.0
C337 C 0.69833 0.65008 0.13743 0.0
C338 C 0.65049 0.62759 0.17565 0.0
C339 C 0.64099 0.81068 0.137 0.0
O340 O 0.6101 0.56698 0.15907 0.0
O341 O 0.60718 0.69798 0.14819 0.0
O342 O 0.61903 0.62494 0.10166 0.0
O343 O 0.63822 0.62745 0.10945 0.0
O344 O 0.63093 0.49219 0.14304 0.0
O345 O 0.65025 0.49186 0.12378 0.0
O346 O 0.67036 0.69098 0.10735 0.0
O347 O 0.67513 0.57116 0.12402 0.0
O348 O 0.66201 0.62934 0.16782 0.0
O349 O 0.64302 0.63081 0.15914 0.0
O350 O 0.65121 0.77115 0.12905 0.0
O351 O 0.63077 0.77059 0.14427 0.0
H352 H 0.58526 0.57001 0.18714 0.0
H353 H 0.56257 0.54822 0.18146 0.0
H354 H 0.56603 0.63159 0.11222 0.0
H355 H 0.58882 0.65469 0.11823 0.0
H356 H 0.69416 0.72271 0.08372 0.0
H357 H 0.71604 0.76747 0.08961 0.0
H358 H 0.71541 0.66246 0.15697 0.0
H359 H 0.69351 0.61691 0.15086 0.0
Nd360 Nd 0.40259 0.45595 0.13555 0.0
Nd361 Nd 0.37284 0.46326 0.13216 0.0
C362 C 0.42717 0.4601 0.14547 0.0
C363 C 0.44014 0.49355 0.1421 0.0
C364 C 0.44639 0.53123 0.16043 0.0
C365 C 0.45936 0.54905 0.15931 0.0
C366 C 0.46647 0.52905 0.13986 0.0
C367 C 0.46008 0.49502 0.12106 0.0
C368 C 0.44706 0.47726 0.12218 0.0
C369 C 0.39259 0.43594 0.0928 0.0
C370 C 0.38835 0.64284 0.13239 0.0
C371 C 0.3491 0.45922 0.11719 0.0
C372 C 0.33631 0.42519 0.12216 0.0
C373 C 0.33056 0.37106 0.10646 0.0
C374 C 0.31803 0.3447 0.10944 0.0
C375 C 0.31087 0.37204 0.12821 0.0
C376 C 0.31674 0.42468 0.14425 0.0
C377 C 0.32931 0.45094 0.14128 0.0
C378 C 0.37955 0.45582 0.17744 0.0
C379 C 0.38751 0.28173 0.13807 0.0
O380 O 0.41864 0.50572 0.15621 0.0
O381 O 0.42232 0.41192 0.12979 0.0
O382 O 0.40236 0.39437 0.1004 0.0
O383 O 0.38865 0.48878 0.10727 0.0
O384 O 0.39926 0.60038 0.13396 0.0
O385 O 0.37724 0.60511 0.13053 0.0
O386 O 0.35795 0.40575 0.11053 0.0
O387 O 0.35347 0.51913 0.13028 0.0
O388 O 0.36793 0.45506 0.17019 0.0
O389 O 0.38697 0.45531 0.16079 0.0
O390 O 0.37811 0.32218 0.12772 0.0
O391 O 0.39695 0.32338 0.14751 0.0
H392 H 0.44134 0.54374 0.17605 0.0
H393 H 0.46388 0.57675 0.17397 0.0
H394 H 0.46524 0.47823 0.10585 0.0
H395 H 0.44258 0.44749 0.10778 0.0
H396 H 0.33567 0.35084 0.09147 0.0
H397 H 0.31381 0.30518 0.09656 0.0
H398 H 0.31159 0.44608 0.15907 0.0
H399 H 0.33345 0.49265 0.15375 0.0
Nd400 Nd 0.62627 0.457 0.37752 0.0
Nd401 Nd 0.6538 0.46462 0.38545 0.0
C402 C 0.60222 0.47067 0.36404 0.0
C403 C 0.58897 0.49577 0.3694 0.0
C404 C 0.58197 0.54085 0.35314 0.0
C405 C 0.56891 0.5544 0.35578 0.0
C406 C 0.5625 0.52291 0.37478 0.0
C407 C 0.56963 0.48111 0.39164 0.0
C408 C 0.58274 0.46741 0.38896 0.0
C409 C 0.6325 0.43944 0.42292 0.0
C410 C 0.63928 0.64049 0.38544 0.0
C411 C 0.67801 0.45058 0.39801 0.0
C412 C 0.69061 0.41263 0.39251 0.0
C413 C 0.69631 0.35523 0.40763 0.0
C414 C 0.70894 0.32866 0.40467 0.0
C415 C 0.71621 0.35941 0.38659 0.0
C416 C 0.71034 0.41425 0.37095 0.0
C417 C 0.69769 0.44054 0.37385 0.0
C418 C 0.64726 0.49372 0.34096 0.0
C419 C 0.64099 0.28031 0.37615 0.0
O420 O 0.6106 0.52942 0.36053 0.0
O421 O 0.60699 0.40422 0.3741 0.0
O422 O 0.62334 0.40104 0.41284 0.0
O423 O 0.63763 0.49059 0.40953 0.0
O424 O 0.63057 0.59898 0.374 0.0
O425 O 0.64823 0.59874 0.39652 0.0
O426 O 0.66909 0.40175 0.40581 0.0
O427 O 0.67359 0.5099 0.38476 0.0
O428 O 0.65613 0.53234 0.35177 0.0
O429 O 0.64246 0.43641 0.35304 0.0
O430 O 0.65019 0.32104 0.38648 0.0
O431 O 0.63145 0.32218 0.36688 0.0
H432 H 0.58654 0.56301 0.33789 0.0
H433 H 0.56378 0.58817 0.34266 0.0
H434 H 0.56499 0.45569 0.40643 0.0
H435 H 0.5879 0.43211 0.40176 0.0
H436 H 0.69114 0.33338 0.42229 0.0
H437 H 0.71318 0.28702 0.41716 0.0
H438 H 0.7156 0.43815 0.35664 0.0
H439 H 0.69363 0.48489 0.36185 0.0
Nd440 Nd 0.40271 0.6428 0.37791 0.0
Nd441 Nd 0.37508 0.634 0.38589 0.0
C442 C 0.42675 0.63136 0.3644 0.0
C443 C 0.43998 0.60479 0.36928 0.0
C444 C 0.44737 0.5727 0.35149 0.0
C445 C 0.46037 0.55713 0.35441 0.0
C446 C 0.46632 0.57299 0.3753 0.0
C447 C 0.4588 0.60314 0.39336 0.0
C448 C 0.44575 0.61902 0.39037 0.0
C449 C 0.39631 0.66145 0.42319 0.0
C450 C 0.38988 0.45867 0.38614 0.0
C451 C 0.35093 0.64704 0.39871 0.0
C452 C 0.33819 0.68322 0.39334 0.0
C453 C 0.33243 0.74047 0.40844 0.0
C454 C 0.31969 0.76524 0.40564 0.0
C455 C 0.3124 0.73259 0.38777 0.0
C456 C 0.31831 0.67781 0.37217 0.0
C457 C 0.33106 0.6535 0.37487 0.0
C458 C 0.38164 0.60412 0.3415 0.0
C459 C 0.38778 0.81861 0.37634 0.0
O460 O 0.41832 0.57376 0.35984 0.0
O461 O 0.42205 0.69518 0.37574 0.0
O462 O 0.40534 0.70118 0.41316 0.0
O463 O 0.39138 0.60922 0.40981 0.0
O464 O 0.39864 0.50017 0.37489 0.0
O465 O 0.38084 0.50032 0.39702 0.0
O466 O 0.3598 0.69724 0.40616 0.0
O467 O 0.35538 0.58727 0.38561 0.0
O468 O 0.37274 0.56577 0.35222 0.0
O469 O 0.38639 0.66182 0.35357 0.0
O470 O 0.37865 0.77786 0.38679 0.0
O471 O 0.39729 0.77673 0.36697 0.0
H472 H 0.44316 0.56238 0.335 0.0
H473 H 0.46582 0.53551 0.33997 0.0
H474 H 0.46301 0.61513 0.40975 0.0
H475 H 0.44026 0.64415 0.40437 0.0
H476 H 0.33763 0.76362 0.42296 0.0
H477 H 0.31541 0.80699 0.41807 0.0
H478 H 0.31299 0.65247 0.35805 0.0
H479 H 0.33517 0.60921 0.3629 0.0
Nd480 Nd 0.37361 0.45758 0.88514 0.0
Nd481 Nd 0.40327 0.4502 0.88029 0.0
C482 C 0.35015 0.45519 0.9011 0.0
C483 C 0.33725 0.42301 0.89652 0.0
C484 C 0.3305 0.38579 0.91423 0.0
C485 C 0.31789 0.3613 0.91122 0.0
C486 C 0.31169 0.37344 0.89035 0.0
C487 C 0.31857 0.40917 0.8724 0.0
C488 C 0.33124 0.43361 0.87544 0.0
C489 C 0.37953 0.45136 0.83947 0.0
C490 C 0.38808 0.27641 0.87809 0.0
C491 C 0.42778 0.45408 0.87001 0.0
C492 C 0.44058 0.49048 0.87293 0.0
C493 C 0.44709 0.51825 0.85371 0.0
C494 C 0.45999 0.5379 0.85489 0.0
C495 C 0.46676 0.52965 0.87532 0.0
C496 C 0.46007 0.50609 0.89488 0.0
C497 C 0.44711 0.48651 0.89369 0.0
C498 C 0.39402 0.42908 0.92358 0.0
C499 C 0.38915 0.63637 0.88446 0.0
O500 O 0.35894 0.40024 0.90713 0.0
O501 O 0.35443 0.51499 0.88796 0.0
O502 O 0.36805 0.45133 0.84734 0.0
O503 O 0.38725 0.45026 0.85573 0.0
O504 O 0.3788 0.31685 0.8887 0.0
O505 O 0.39752 0.31775 0.86863 0.0
O506 O 0.4191 0.49583 0.85855 0.0
O507 O 0.42311 0.40944 0.88651 0.0
O508 O 0.40368 0.38831 0.91528 0.0
O509 O 0.38982 0.48204 0.90938 0.0
O510 O 0.3999 0.59413 0.88096 0.0
O511 O 0.37823 0.59821 0.88816 0.0
H512 H 0.3349 0.37749 0.93066 0.0
H513 H 0.31288 0.33521 0.92552 0.0
H514 H 0.31415 0.41847 0.85603 0.0
H515 H 0.33623 0.46192 0.86142 0.0
H516 H 0.44232 0.52126 0.83748 0.0
H517 H 0.46474 0.55749 0.83958 0.0
H518 H 0.46496 0.49861 0.91088 0.0
H519 H 0.44239 0.46479 0.90882 0.0
Nd520 Nd 0.65678 0.6312 0.88657 0.0
Nd521 Nd 0.62544 0.63361 0.87829 0.0
C522 C 0.67994 0.63507 0.90381 0.0
C523 C 0.69274 0.66879 0.89928 0.0
C524 C 0.69979 0.70105 0.91736 0.0
C525 C 0.71223 0.72862 0.91412 0.0
C526 C 0.71793 0.72478 0.89263 0.0
C527 C 0.71076 0.6936 0.87437 0.0
C528 C 0.69826 0.66605 0.87764 0.0
C529 C 0.65038 0.62877 0.84095 0.0
C530 C 0.64155 0.81215 0.8793 0.0
C531 C 0.60243 0.63182 0.86025 0.0
C532 C 0.58898 0.61355 0.8652 0.0
C533 C 0.58171 0.57315 0.84864 0.0
C534 C 0.56872 0.56036 0.85189 0.0
C535 C 0.56268 0.58771 0.87185 0.0
C536 C 0.57005 0.62687 0.88868 0.0
C537 C 0.5831 0.63954 0.88541 0.0
C538 C 0.63162 0.63371 0.92398 0.0
C539 C 0.64093 0.45322 0.88439 0.0
O540 O 0.67099 0.68965 0.90938 0.0
O541 O 0.67591 0.57404 0.8907 0.0
O542 O 0.66201 0.63072 0.84831 0.0
O543 O 0.64311 0.63181 0.85773 0.0
O544 O 0.65192 0.77286 0.88676 0.0
O545 O 0.63117 0.7721 0.87262 0.0
O546 O 0.61037 0.56749 0.85903 0.0
O547 O 0.60738 0.69881 0.86971 0.0
O548 O 0.62004 0.63585 0.91633 0.0
O549 O 0.63904 0.63043 0.90736 0.0
O550 O 0.63091 0.4933 0.87577 0.0
O551 O 0.65095 0.49311 0.8927 0.0
H552 H 0.69575 0.70345 0.93419 0.0
H553 H 0.71748 0.75087 0.92867 0.0
H554 H 0.71479 0.69061 0.85755 0.0
H555 H 0.69299 0.64183 0.86334 0.0
H556 H 0.58603 0.55301 0.83288 0.0
H557 H 0.56335 0.53112 0.83841 0.0
H558 H 0.56575 0.64776 0.90437 0.0
H559 H 0.58852 0.67059 0.89853 0.0
Nd560 Nd 0.37363 0.63037 0.63041 0.0
Nd561 Nd 0.40329 0.62619 0.63821 0.0
C562 C 0.35049 0.64243 0.61317 0.0
C563 C 0.33763 0.6755 0.61845 0.0
C564 C 0.33081 0.71845 0.60157 0.0
C565 C 0.31827 0.74488 0.60529 0.0
C566 C 0.31223 0.729 0.62604 0.0
C567 C 0.31919 0.6875 0.64317 0.0
C568 C 0.33178 0.66115 0.63944 0.0
C569 C 0.37859 0.62569 0.67661 0.0
C570 C 0.38924 0.80818 0.63724 0.0
C571 C 0.42696 0.59164 0.65038 0.0
C572 C 0.44074 0.60361 0.6479 0.0
C573 C 0.44853 0.58478 0.66646 0.0
C574 C 0.46172 0.58201 0.66412 0.0
C575 C 0.46742 0.59834 0.64314 0.0
C576 C 0.45962 0.62102 0.6247 0.0
C577 C 0.44634 0.62312 0.62702 0.0
C578 C 0.39567 0.65366 0.59407 0.0
C579 C 0.38754 0.44894 0.63528 0.0
O580 O 0.35937 0.69777 0.60909 0.0
O581 O 0.35458 0.57698 0.62473 0.0
O582 O 0.36729 0.63069 0.66798 0.0
O583 O 0.38651 0.62732 0.66078 0.0
O584 O 0.37945 0.7696 0.62789 0.0
O585 O 0.39906 0.76596 0.64578 0.0
O586 O 0.42006 0.65031 0.66034 0.0
O587 O 0.42103 0.55261 0.63403 0.0
O588 O 0.40563 0.68679 0.60337 0.0
O589 O 0.39052 0.60311 0.60771 0.0
O590 O 0.39713 0.48951 0.64452 0.0
O591 O 0.37799 0.48949 0.62544 0.0
H592 H 0.33511 0.72993 0.58525 0.0
H593 H 0.31318 0.77552 0.59158 0.0
H594 H 0.31489 0.6752 0.65944 0.0
H595 H 0.33686 0.62855 0.65284 0.0
H596 H 0.44439 0.56903 0.68265 0.0
H597 H 0.46748 0.5656 0.67871 0.0
H598 H 0.46374 0.63366 0.60831 0.0
H599 H 0.44047 0.63718 0.61241 0.0
Nd600 Nd 0.65376 0.46246 0.63174 0.0
Nd601 Nd 0.62639 0.45333 0.63928 0.0
C602 C 0.67795 0.4504 0.61944 0.0
C603 C 0.69042 0.40877 0.62345 0.0
C604 C 0.69645 0.367 0.60543 0.0
C605 C 0.70908 0.33965 0.60735 0.0
C606 C 0.71602 0.35391 0.62731 0.0
C607 C 0.70978 0.39178 0.64581 0.0
C608 C 0.6971 0.41912 0.64389 0.0
C609 C 0.64709 0.49308 0.67607 0.0
C610 C 0.64122 0.27755 0.64138 0.0
C611 C 0.60228 0.46656 0.65222 0.0
C612 C 0.58919 0.49337 0.64623 0.0
C613 C 0.58257 0.54788 0.66089 0.0
C614 C 0.56963 0.56488 0.65763 0.0
C615 C 0.56299 0.52737 0.63964 0.0
C616 C 0.56974 0.4749 0.6245 0.0
C617 C 0.58271 0.45808 0.62774 0.0
C618 C 0.63288 0.43399 0.59412 0.0
C619 C 0.63916 0.63794 0.63109 0.0
O620 O 0.66893 0.40712 0.60976 0.0
O621 O 0.6737 0.50298 0.63474 0.0
O622 O 0.65572 0.53326 0.66512 0.0
O623 O 0.64246 0.43461 0.66411 0.0
O624 O 0.65047 0.31825 0.63126 0.0
O625 O 0.63161 0.31941 0.65037 0.0
O626 O 0.61071 0.52449 0.65645 0.0
O627 O 0.6071 0.40065 0.64195 0.0
O628 O 0.62405 0.39271 0.60426 0.0
O629 O 0.63764 0.48734 0.60739 0.0
O630 O 0.63034 0.59629 0.64215 0.0
O631 O 0.64832 0.59634 0.62058 0.0
H632 H 0.69155 0.35846 0.58949 0.0
H633 H 0.71352 0.30919 0.59292 0.0
H634 H 0.71485 0.40403 0.66139 0.0
H635 H 0.69274 0.45134 0.65811 0.0
H636 H 0.58731 0.57494 0.67543 0.0
H637 H 0.56471 0.60463 0.66978 0.0
H638 H 0.56494 0.44583 0.61031 0.0
H639 H 0.58755 0.41558 0.61615 0.0
H640 H 0.22861 0.37263 0.11635 0.0
H641 H 0.23722 0.12125 0.1407 0.0
H642 H 0.25105 0.40798 0.11867 0.0
H643 H 0.2596 0.15772 0.1439 0.0
H644 H 0.29988 0.2194 0.1187 0.0
H645 H 0.27742 0.18408 0.1195 0.0
H646 H 0.26838 0.43446 0.14429 0.0
H647 H 0.29081 0.47095 0.14259 0.0
C648 C 0.23527 0.32494 0.12231 0.0
C649 C 0.23106 0.24385 0.1282 0.0
C650 C 0.24815 0.34558 0.1239 0.0
C651 C 0.2572 0.28571 0.13142 0.0
C652 C 0.25295 0.20516 0.13776 0.0
C653 C 0.24007 0.18454 0.13619 0.0
C654 C 0.29311 0.26712 0.12424 0.0
C655 C 0.29721 0.34826 0.13044 0.0
C656 C 0.28021 0.2465 0.12496 0.0
C657 C 0.27103 0.30642 0.1319 0.0
C658 C 0.27515 0.38699 0.13858 0.0
C659 C 0.28806 0.40761 0.13787 0.0
H660 H 0.78984 0.97906 0.1412 0.0
H661 H 0.80036 0.71984 0.12688 0.0
H662 H 0.76748 0.94115 0.14053 0.0
H663 H 0.77795 0.68262 0.12528 0.0
H664 H 0.7368 0.62772 0.14417 0.0
H665 H 0.75909 0.66599 0.14818 0.0
H666 H 0.75145 0.90129 0.11357 0.0
H667 H 0.72911 0.86454 0.11034 0.0
C668 C 0.78741 0.91378 0.13808 0.0
C669 C 0.79696 0.85254 0.13414 0.0
C670 C 0.77455 0.89224 0.13739 0.0
C671 C 0.77086 0.80884 0.13274 0.0
C672 C 0.78041 0.7473 0.12912 0.0
C673 C 0.79328 0.76887 0.12978 0.0
C674 C 0.73983 0.68819 0.1377 0.0
C675 C 0.73111 0.74295 0.12691 0.0
C676 C 0.75266 0.70969 0.13976 0.0
C677 C 0.75712 0.78666 0.13114 0.0
C678 C 0.74837 0.84188 0.12062 0.0
C679 C 0.73555 0.82033 0.11853 0.0
H680 H 0.30021 0.88573 0.3929 0.0
H681 H 0.29316 0.62222 0.37941 0.0
H682 H 0.27733 0.915 0.39189 0.0
H683 H 0.27034 0.65161 0.37814 0.0
H684 H 0.23055 0.72307 0.4061 0.0
H685 H 0.25338 0.69353 0.40527 0.0
H686 H 0.25907 0.91661 0.36481 0.0
H687 H 0.23628 0.94721 0.366 0.0
C688 C 0.29378 0.83416 0.38965 0.0
C689 C 0.29852 0.75171 0.38618 0.0
C690 C 0.28068 0.851 0.3889 0.0
C691 C 0.27201 0.78559 0.38495 0.0
C692 C 0.27676 0.70326 0.38139 0.0
C693 C 0.28985 0.68661 0.38189 0.0
C694 C 0.23667 0.76587 0.39703 0.0
C695 C 0.23156 0.8375 0.38611 0.0
C696 C 0.24974 0.74857 0.39641 0.0
C697 C 0.25805 0.80278 0.385 0.0
C698 C 0.25294 0.874 0.37391 0.0
C699 C 0.23985 0.89097 0.37438 0.0
H700 H 0.79203 0.13146 0.36947 0.0
H701 H 0.798 0.36928 0.40355 0.0
H702 H 0.76928 0.16301 0.36718 0.0
H703 H 0.77526 0.39956 0.40186 0.0
H704 H 0.73566 0.46564 0.37607 0.0
H705 H 0.75837 0.43377 0.37486 0.0
H706 H 0.75092 0.17475 0.39287 0.0
H707 H 0.72813 0.20614 0.3935 0.0
C708 C 0.78852 0.19077 0.37631 0.0
C709 C 0.79687 0.24782 0.3867 0.0
C710 C 0.77545 0.20839 0.37523 0.0
C711 C 0.77043 0.28372 0.38438 0.0
C712 C 0.77881 0.34132 0.39444 0.0
C713 C 0.79185 0.32356 0.39561 0.0
C714 C 0.73883 0.40153 0.37943 0.0
C715 C 0.73004 0.33841 0.38484 0.0
C716 C 0.75188 0.3835 0.37899 0.0
C717 C 0.75649 0.30179 0.38386 0.0
C718 C 0.74769 0.2382 0.38885 0.0
C719 C 0.73463 0.25637 0.38942 0.0
H720 H 0.72981 0.86007 0.9119 0.0
H721 H 0.73666 0.64983 0.86672 0.0
H722 H 0.75219 0.89596 0.91027 0.0
H723 H 0.75915 0.68609 0.86505 0.0
H724 H 0.7977 0.81947 0.85494 0.0
H725 H 0.77493 0.79001 0.85294 0.0
H726 H 0.7717 0.83635 0.92468 0.0
H727 H 0.79416 0.86877 0.9265 0.0
C728 C 0.73609 0.82132 0.90163 0.0
C729 C 0.73141 0.75127 0.88971 0.0
C730 C 0.74896 0.84194 0.9007 0.0
C731 C 0.75755 0.79319 0.88781 0.0
C732 C 0.75281 0.72527 0.87507 0.0
C733 C 0.73989 0.70452 0.87602 0.0
C734 C 0.7921 0.824 0.87023 0.0
C735 C 0.79782 0.84625 0.8909 0.0
C736 C 0.77906 0.80636 0.86912 0.0
C737 C 0.77144 0.81121 0.88862 0.0
C738 C 0.7772 0.83322 0.90924 0.0
C739 C 0.79017 0.85064 0.91035 0.0
H740 H 0.29948 0.23492 0.907 0.0
H741 H 0.29285 0.46154 0.86793 0.0
H742 H 0.27692 0.20384 0.9055 0.0
H743 H 0.2702 0.43049 0.86647 0.0
H744 H 0.23132 0.30812 0.85311 0.0
H745 H 0.25408 0.33654 0.85195 0.0
H746 H 0.25759 0.25676 0.9215 0.0
H747 H 0.2351 0.22465 0.92232 0.0
C748 C 0.29321 0.27834 0.89814 0.0
C749 C 0.29802 0.35119 0.88778 0.0
C750 C 0.28024 0.26058 0.8973 0.0
C751 C 0.27167 0.31518 0.88612 0.0
C752 C 0.27651 0.38666 0.87511 0.0
C753 C 0.28952 0.40444 0.87593 0.0
C754 C 0.23697 0.29611 0.8681 0.0
C755 C 0.23131 0.26421 0.88783 0.0
C756 C 0.25001 0.3132 0.8675 0.0
C757 C 0.25773 0.29856 0.8866 0.0
C758 C 0.25202 0.26756 0.90635 0.0
C759 C 0.23903 0.25041 0.90693 0.0
H760 H 0.72996 0.28409 0.66222 0.0
H761 H 0.73358 0.38196 0.59445 0.0
H762 H 0.75277 0.2522 0.66291 0.0
H763 H 0.75622 0.35116 0.59519 0.0
H764 H 0.79291 0.20261 0.59286 0.0
H765 H 0.77027 0.2327 0.59411 0.0
H766 H 0.77377 0.31441 0.66355 0.0
H767 H 0.79659 0.28317 0.66233 0.0
C768 C 0.73562 0.29917 0.64753 0.0
C769 C 0.7299 0.33441 0.62815 0.0
C770 C 0.7487 0.28113 0.64794 0.0
C771 C 0.75634 0.29825 0.62901 0.0
C772 C 0.75061 0.33506 0.60987 0.0
C773 C 0.73759 0.35271 0.60943 0.0
C774 C 0.7889 0.22775 0.60836 0.0
C775 C 0.79661 0.24149 0.62741 0.0
C776 C 0.77588 0.24506 0.60908 0.0
C777 C 0.77017 0.27696 0.62885 0.0
C778 C 0.77782 0.2893 0.6481 0.0
C779 C 0.79091 0.27159 0.64739 0.0
H780 H 0.23585 0.88784 0.59486 0.0
H781 H 0.23169 0.79937 0.66346 0.0
H782 H 0.25846 0.85609 0.59635 0.0
H783 H 0.25459 0.77014 0.66524 0.0
H784 H 0.29348 0.63928 0.64723 0.0
H785 H 0.27083 0.67382 0.64931 0.0
H786 H 0.27751 0.90804 0.61417 0.0
H787 H 0.30008 0.87385 0.61215 0.0
C788 C 0.23976 0.86124 0.61027 0.0
C789 C 0.23191 0.84561 0.62898 0.0
C790 C 0.25278 0.84414 0.61124 0.0
C791 C 0.25838 0.81115 0.63097 0.0
C792 C 0.25057 0.79515 0.64973 0.0
C793 C 0.23747 0.81255 0.64878 0.0
C794 C 0.29015 0.69882 0.64029 0.0
C795 C 0.29861 0.75332 0.62928 0.0
C796 C 0.27715 0.71857 0.64147 0.0
C797 C 0.27231 0.79318 0.63164 0.0
C798 C 0.28086 0.8491 0.62145 0.0
C799 C 0.29382 0.82948 0.62029 0.0
H800 H 0.13858 0.88931 0.30637 0.0
H801 H 0.14856 0.14687 0.32152 0.0
H802 H 0.13664 0.92643 0.26599 0.0
H803 H 0.14638 0.18403 0.28187 0.0
H804 H 0.16439 0.17289 0.21156 0.0
H805 H 0.16106 0.14093 0.25121 0.0
H806 H 0.12558 1.02064 0.23481 0.0
H807 H 0.12897 0.0539 0.1945 0.0
C808 C 0.14002 0.95405 0.30116 0.0
C809 C 0.14397 1.0149 0.31693 0.0
C810 C 0.13889 0.97541 0.27811 0.0
C811 C 0.1416 0.0579 0.27069 0.0
C812 C 0.1445 0.1196 0.28692 0.0
C813 C 0.14574 0.09828 0.30966 0.0
C814 C 0.15577 0.14076 0.2164 0.0
C815 C 0.1469 0.11664 0.20001 0.0
C816 C 0.15384 0.12251 0.23915 0.0
C817 C 0.14302 0.07857 0.24624 0.0
C818 C 0.13401 0.05455 0.22986 0.0
C819 C 0.13587 0.07431 0.20689 0.0
H820 H 0.8632 0.13772 0.30388 0.0
H821 H 0.90248 0.07921 0.31911 0.0
H822 H 0.86635 0.09221 0.26508 0.0
H823 H 0.90567 1.03367 0.2795 0.0
H824 H 0.90235 0.05048 0.19578 0.0
H825 H 0.90312 0.09767 0.23547 0.0
H826 H 0.8714 0.93761 0.25086 0.0
H827 H 0.87076 0.88963 0.21179 0.0
C828 C 0.87259 0.11605 0.29886 0.0
C829 C 0.88256 0.11142 0.31465 0.0
C830 C 0.87437 0.08972 0.2766 0.0
C831 C 0.8862 0.05825 0.26934 0.0
C832 C 0.89645 0.05763 0.2847 0.0
C833 C 0.89463 0.08373 0.30729 0.0
C834 C 0.89573 1.02422 0.20779 0.0
C835 C 0.88644 0.96667 0.20058 0.0
C836 C 0.89619 0.05112 0.23048 0.0
C837 C 0.88725 1.02186 0.24618 0.0
C838 C 0.87836 0.96171 0.2391 0.0
C839 C 0.87802 0.93404 0.21668 0.0
H840 H 0.90153 0.07309 0.69771 0.0
H841 H 0.86282 0.14813 0.71223 0.0
H842 H 0.90416 1.02652 0.73735 0.0
H843 H 0.86543 0.10299 0.7511 0.0
H844 H 0.86577 0.90909 0.80429 0.0
H845 H 0.86788 0.95258 0.76517 0.0
H846 H 0.90277 0.0802 0.78133 0.0
H847 H 0.9007 1.03477 0.8211 0.0
C848 C 0.89371 0.08124 0.70942 0.0
C849 C 0.88191 0.11339 0.70182 0.0
C850 C 0.8952 0.05458 0.73204 0.0
C851 C 0.88491 0.05953 0.7472 0.0
C852 C 0.87346 0.09658 0.73975 0.0
C853 C 0.87198 0.12283 0.71744 0.0
C854 C 0.87406 0.94481 0.79948 0.0
C855 C 0.88302 0.96887 0.81576 0.0
C856 C 0.87524 0.97017 0.77706 0.0
C857 C 0.88535 1.02131 0.77023 0.0
C858 C 0.89487 1.04086 0.78612 0.0
C859 C 0.89371 1.01472 0.80882 0.0
H860 H 0.14709 0.94027 0.82332 0.0
H861 H 0.13639 0.19819 0.80847 0.0
H862 H 0.14457 0.90271 0.78373 0.0
H863 H 0.13414 0.16081 0.76817 0.0
H864 H 0.12714 1.03813 0.69628 0.0
H865 H 0.12347 0.06917 0.73671 0.0
H866 H 0.15899 0.94398 0.75312 0.0
H867 H 0.16258 0.91409 0.71343 0.0
C868 C 0.14396 0.98872 0.81156 0.0
C869 C 0.1421 0.07231 0.81888 0.0
C870 C 0.14256 0.96725 0.78884 0.0
C871 C 0.13942 1.02906 0.77269 0.0
C872 C 0.13656 0.1117 0.78022 0.0
C873 C 0.13784 0.13318 0.80324 0.0
C874 C 0.13398 1.01609 0.7087 0.0
C875 C 0.14511 0.9732 0.70179 0.0
C876 C 0.13196 1.03453 0.73175 0.0
C877 C 0.1409 1.00862 0.74818 0.0
C878 C 0.1518 0.9638 0.74106 0.0
C879 C 0.15389 0.94678 0.71825 0.0
H880 H 0.63742 0.39186 0.30696 0.0
H881 H 0.64994 0.6449 0.32137 0.0
H882 H 0.63597 0.42794 0.26642 0.0
H883 H 0.64825 0.68108 0.28163 0.0
H884 H 0.66536 0.66536 0.21104 0.0
H885 H 0.66218 0.63324 0.25069 0.0
H886 H 0.62573 0.52468 0.23512 0.0
H887 H 0.629 0.5578 0.19477 0.0
C888 C 0.63957 0.45545 0.30155 0.0
C889 C 0.64404 0.51512 0.31721 0.0
C890 C 0.63871 0.47624 0.27841 0.0
C891 C 0.64223 0.55703 0.27074 0.0
C892 C 0.64575 0.6178 0.28682 0.0
C893 C 0.64671 0.59703 0.30965 0.0
C894 C 0.65658 0.63566 0.21604 0.0
C895 C 0.64739 0.6149 0.19983 0.0
C896 C 0.65473 0.61731 0.23883 0.0
C897 C 0.64366 0.57675 0.24618 0.0
C898 C 0.63436 0.55588 0.22999 0.0
C899 C 0.63616 0.57561 0.20698 0.0
H900 H 0.39117 0.70356 0.30694 0.0
H901 H 0.38019 0.4493 0.32342 0.0
H902 H 0.39314 0.66227 0.26684 0.0
H903 H 0.38247 0.40783 0.28412 0.0
H904 H 0.36555 0.40942 0.21308 0.0
H905 H 0.36862 0.44431 0.25262 0.0
H906 H 0.4038 0.56817 0.23638 0.0
H907 H 0.40062 0.53245 0.19614 0.0
C908 C 0.3895 0.63862 0.30209 0.0
C909 C 0.38528 0.58 0.31816 0.0
C910 C 0.39065 0.61484 0.27918 0.0
C911 C 0.38771 0.53203 0.27219 0.0
C912 C 0.3845 0.47253 0.28875 0.0
C913 C 0.38321 0.49631 0.31133 0.0
C914 C 0.37407 0.44273 0.21794 0.0
C915 C 0.38289 0.46736 0.20157 0.0
C916 C 0.37586 0.46274 0.24066 0.0
C917 C 0.3865 0.50878 0.24778 0.0
C918 C 0.3955 0.53276 0.23145 0.0
C919 C 0.39377 0.51147 0.2085 0.0
H920 H 0.40032 0.52757 0.81966 0.0
H921 H 0.36478 0.4066 0.80453 0.0
H922 H 0.40196 0.57268 0.77984 0.0
H923 H 0.36649 0.44929 0.76527 0.0
H924 H 0.36167 0.63785 0.71046 0.0
H925 H 0.36398 0.5923 0.74935 0.0
H926 H 0.40327 0.52533 0.73714 0.0
H927 H 0.40094 0.57265 0.69756 0.0
C928 C 0.39308 0.50855 0.80772 0.0
C929 C 0.38237 0.46403 0.81518 0.0
C930 C 0.39399 0.53454 0.78498 0.0
C931 C 0.3842 0.51619 0.76949 0.0
C932 C 0.37403 0.46642 0.77683 0.0
C933 C 0.37309 0.44131 0.79933 0.0
C934 C 0.37087 0.61443 0.71603 0.0
C935 C 0.38108 0.60824 0.70087 0.0
C936 C 0.37218 0.5877 0.73835 0.0
C937 C 0.38373 0.55329 0.74628 0.0
C938 C 0.39423 0.55118 0.73151 0.0
C939 C 0.3929 0.57828 0.70891 0.0
H940 H 0.62923 0.55279 0.82228 0.0
H941 H 0.6643 0.67579 0.80534 0.0
H942 H 0.6258 0.5199 0.78191 0.0
H943 H 0.66097 0.64391 0.76568 0.0
H944 H 0.64875 0.64622 0.69515 0.0
H945 H 0.6468 0.68399 0.73478 0.0
H946 H 0.63635 0.42788 0.75067 0.0
H947 H 0.63799 0.39032 0.71026 0.0
C948 C 0.63604 0.57422 0.8099 0.0
C949 C 0.64698 0.6175 0.81685 0.0
C950 C 0.63416 0.55463 0.78689 0.0
C951 C 0.64308 0.57965 0.77052 0.0
C952 C 0.6538 0.6247 0.77768 0.0
C953 C 0.65574 0.64291 0.80047 0.0
C954 C 0.64585 0.59806 0.70701 0.0
C955 C 0.64374 0.515 0.69969 0.0
C956 C 0.64475 0.61971 0.72977 0.0
C957 C 0.64169 0.55864 0.74601 0.0
C958 C 0.63872 0.47645 0.73856 0.0
C959 C 0.63969 0.45482 0.71549 0.0
H960 H 0.14859 1.04079 0.9508 0.0
H961 H 0.12216 0.25084 0.95278 0.0
H962 H 0.14986 1.04296 0.99244 0.0
H963 H 0.12425 0.25821 0.9937 0.0
H964 H 0.11275 0.15359 0.06125 0.0
H965 H 0.11551 0.16099 0.02088 0.0
H966 H 0.15603 0.12525 0.02886 0.0
H967 H 0.15317 0.11698 0.07032 0.0
C968 C 0.14347 0.08939 0.9601 0.0
C969 C 0.13522 0.1454 0.94873 0.0
C970 C 0.14427 0.09108 0.98387 0.0
C971 C 0.13713 0.15061 0.99643 0.0
C972 C 0.12971 0.21061 0.98465 0.0
C973 C 0.12859 0.20695 0.96118 0.0
C974 C 0.1223 0.14745 0.05459 0.0
C975 C 0.13273 0.13487 0.06905 0.0
C976 C 0.1239 0.1524 0.03131 0.0
C977 C 0.136 0.14494 0.02155 0.0
C978 C 0.14656 0.13138 0.03589 0.0
C979 C 0.14495 0.12697 0.05956 0.0
H980 H 0.91354 0.89883 0.95632 0.0
H981 H 0.87516 0.98789 0.94461 0.0
H982 H 0.90914 0.88454 0.9963 0.0
H983 H 0.8707 0.97419 0.98544 0.0
H984 H 0.87865 1.03812 0.06473 0.0
H985 H 0.87843 1.04262 0.0232 0.0
H986 H 0.89603 0.79496 0.02118 0.0
H987 H 0.89638 0.79098 0.06232 0.0
C988 C 0.9041 0.91522 0.96233 0.0
C989 C 0.89471 0.9446 0.94733 0.0
C990 C 0.90155 0.90643 0.98529 0.0
C991 C 0.88954 0.92758 0.99409 0.0
C992 C 0.88005 0.95738 0.97914 0.0
C993 C 0.88257 0.96489 0.95584 0.0
C994 C 0.8822 0.984 0.05534 0.0
C995 C 0.8877 0.91465 0.06675 0.0
C996 C 0.88204 0.98648 0.03158 0.0
C997 C 0.88738 0.91966 0.0189 0.0
C998 C 0.89204 0.84808 0.03044 0.0
C999 C 0.89221 0.84568 0.05402 0.0
H1000 H 0.12585 0.82199 0.45259 0.0
H1001 H 0.1496 1.04161 0.4479 0.0
H1002 H 0.12842 0.8211 0.49333 0.0
H1003 H 0.15227 1.04112 0.4891 0.0
H1004 H 0.14072 0.06627 0.56516 0.0
H1005 H 0.14124 0.0679 0.52379 0.0
H1006 H 0.14229 0.79468 0.52326 0.0
H1007 H 0.14096 0.79396 0.5644 0.0
C1008 C 0.13169 0.87002 0.46033 0.0
C1009 C 0.13736 0.93251 0.44707 0.0
C1010 C 0.13326 0.86924 0.48377 0.0
C1011 C 0.14056 0.93112 0.49473 0.0
C1012 C 0.14646 0.993 0.48136 0.0
C1013 C 0.14498 0.99319 0.45774 0.0
C1014 C 0.14128 1.0068 0.5561 0.0
C1015 C 0.14076 0.92992 0.56787 0.0
C1016 C 0.1416 1.00757 0.53238 0.0
C1017 C 0.14163 0.93136 0.51999 0.0
C1018 C 0.14189 0.85467 0.53206 0.0
C1019 C 0.14128 0.85404 0.55566 0.0
H1020 H 0.89107 0.31062 0.56575 0.0
H1021 H 0.88471 1.04211 0.56515 0.0
H1022 H 0.88866 0.315 0.52487 0.0
H1023 H 0.8832 1.04446 0.52392 0.0
H1024 H 0.87602 0.07616 0.44851 0.0
H1025 H 0.87328 0.07959 0.48966 0.0
H1026 H 0.90061 0.28112 0.49395 0.0
H1027 H 0.90273 0.2802 0.45334 0.0
C1028 C 0.88912 0.25247 0.55677 0.0
C1029 C 0.88816 0.17608 0.56853 0.0
C1030 C 0.88788 0.25457 0.53325 0.0
C1031 C 0.88603 0.17974 0.52075 0.0
C1032 C 0.88451 0.10362 0.53277 0.0
C1033 C 0.88543 0.10202 0.55644 0.0
C1034 C 0.88123 0.122 0.45835 0.0
C1035 C 0.8896 0.17781 0.44769 0.0
C1036 C 0.87977 0.12356 0.48198 0.0
C1037 C 0.8867 0.18073 0.49542 0.0
C1038 C 0.89485 0.23739 0.48445 0.0
C1039 C 0.89618 0.23637 0.461 0.0
H1040 H 0.65338 0.64233 0.07008 0.0
H1041 H 0.61314 0.60532 0.06056 0.0
H1042 H 0.65607 0.65027 0.02857 0.0
H1043 H 0.61579 0.61177 0.02011 0.0
H1044 H 0.61855 0.72687 0.95385 0.0
H1045 H 0.62055 0.72889 0.99468 0.0
H1046 H 0.65336 0.56318 0.99054 0.0
H1047 H 0.65156 0.56391 0.94884 0.0
C1048 C 0.64518 0.6352 0.0592 0.0
C1049 C 0.63302 0.62411 0.06861 0.0
C1050 C 0.64671 0.63952 0.0355 0.0
C1051 C 0.6361 0.63332 0.02101 0.0
C1052 C 0.62413 0.61899 0.03066 0.0
C1053 C 0.62262 0.61481 0.05398 0.0
C1054 C 0.62635 0.69207 0.96156 0.0
C1055 C 0.63479 0.64436 0.94821 0.0
C1056 C 0.62748 0.69291 0.985 0.0
C1057 C 0.63691 0.64443 0.99597 0.0
C1058 C 0.64597 0.60101 0.98261 0.0
C1059 C 0.64494 0.6013 0.9588 0.0
H1060 H 0.37772 0.53291 0.94804 0.0
H1061 H 0.40331 0.31925 0.9544 0.0
H1062 H 0.37444 0.53231 0.98914 0.0
H1063 H 0.4006 0.32047 0.99487 0.0
H1064 H 0.39093 0.29807 0.0662 0.0
H1065 H 0.38813 0.29276 0.0254 0.0
H1066 H 0.38432 0.56518 0.02384 0.0
H1067 H 0.38618 0.56879 0.06511 0.0
C1068 C 0.38257 0.48558 0.95819 0.0
C1069 C 0.39083 0.42645 0.948 0.0
C1070 C 0.38078 0.48554 0.98178 0.0
C1071 C 0.38723 0.42631 0.99563 0.0
C1072 C 0.39521 0.36611 0.98507 0.0
C1073 C 0.3969 0.36589 0.96169 0.0
C1074 C 0.38921 0.35653 0.05712 0.0
C1075 C 0.38885 0.43377 0.06871 0.0
C1076 C 0.38775 0.35384 0.03364 0.0
C1077 C 0.38636 0.42878 0.02096 0.0
C1078 C 0.38531 0.50597 0.03284 0.0
C1079 C 0.38642 0.50829 0.05652 0.0
H1080 H 0.65344 0.47323 0.44933 0.0
H1081 H 0.61351 0.41655 0.45286 0.0
H1082 H 0.65466 0.47116 0.49088 0.0
H1083 H 0.61445 0.41903 0.49377 0.0
H1084 H 0.62092 0.33267 0.5642 0.0
H1085 H 0.62185 0.33493 0.5233 0.0
H1086 H 0.64876 0.539 0.52607 0.0
H1087 H 0.64807 0.53449 0.56755 0.0
C1088 C 0.64491 0.46143 0.45901 0.0
C1089 C 0.63342 0.44406 0.4479 0.0
C1090 C 0.64557 0.46055 0.48279 0.0
C1091 C 0.63469 0.44353 0.49586 0.0
C1092 C 0.62314 0.42952 0.48447 0.0
C1093 C 0.62256 0.42872 0.46091 0.0
C1094 C 0.6271 0.37783 0.55615 0.0
C1095 C 0.63429 0.43407 0.56914 0.0
C1096 C 0.62756 0.37971 0.53257 0.0
C1097 C 0.63517 0.43843 0.52115 0.0
C1098 C 0.64277 0.49293 0.53419 0.0
C1099 C 0.64233 0.49075 0.55796 0.0
H1100 H 0.41486 0.63137 0.56454 0.0
H1101 H 0.37411 0.66089 0.56751 0.0
H1102 H 0.414 0.62911 0.52353 0.0
H1103 H 0.37321 0.66239 0.52586 0.0
H1104 H 0.3779 0.58447 0.4489 0.0
H1105 H 0.37668 0.579 0.49042 0.0
H1106 H 0.41031 0.73212 0.49482 0.0
H1107 H 0.41156 0.73666 0.45393 0.0
C1108 C 0.40569 0.63788 0.55633 0.0
C1109 C 0.39457 0.64715 0.56917 0.0
C1110 C 0.40519 0.63705 0.53277 0.0
C1111 C 0.39356 0.6473 0.52127 0.0
C1112 C 0.38232 0.65404 0.53414 0.0
C1113 C 0.38282 0.65344 0.55794 0.0
C1114 C 0.385 0.61683 0.45886 0.0
C1115 C 0.39491 0.66022 0.44815 0.0
C1116 C 0.38426 0.61416 0.48261 0.0
C1117 C 0.39351 0.65401 0.49604 0.0
C1118 C 0.40318 0.69908 0.48513 0.0
C1119 C 0.40385 0.70222 0.46159 0.0
H1120 H 0.98264 0.97949 0.17291 0.0
H1121 H 0.98237 0.08972 0.10612 0.0
H1122 H 1.00552 0.99799 0.17504 0.0
H1123 H 1.00534 0.10296 0.10765 0.0
H1124 H 0.04519 0.19218 0.12674 0.0
H1125 H 0.02219 0.17845 0.1244 0.0
H1126 H 0.02472 0.94153 0.16045 0.0
H1127 H 0.04767 0.95599 0.16302 0.0
C1128 C 0.98742 1.00798 0.15869 0.0
C1129 C 0.98058 1.0329 0.13933 0.0
C1130 C 1.00062 1.01734 0.15976 0.0
C1131 C 1.00738 0.05132 0.14144 0.0
C1132 C 1.00051 0.07722 0.12219 0.0
C1133 C 0.9873 0.0685 0.12119 0.0
C1134 C 0.04085 0.1367 0.13395 0.0
C1135 C 0.04831 0.07543 0.14517 0.0
C1136 C 0.02763 0.12877 0.13262 0.0
C1137 C 0.02151 0.05914 0.14238 0.0
C1138 C 0.02902 0.99704 0.15318 0.0
C1139 C 0.04222 1.00517 0.1546 0.0
H1140 H 0.98231 0.96469 0.35243 0.0
H1141 H 0.98495 0.17186 0.3997 0.0
H1142 H 1.00551 0.94939 0.35271 0.0
H1143 H 1.00808 0.1564 0.40005 0.0
H1144 H 0.04928 0.16259 0.37256 0.0
H1145 H 0.02612 0.1768 0.37255 0.0
H1146 H 0.02281 0.90693 0.38063 0.0
H1147 H 0.04597 0.89249 0.38041 0.0
C1148 C 0.98786 1.00711 0.36278 0.0
C1149 C 0.98183 0.06947 0.37603 0.0
C1150 C 1.0011 0.99792 0.36309 0.0
C1151 C 1.00859 0.05174 0.3764 0.0
C1152 C 1.00256 0.11444 0.38951 0.0
C1153 C 0.98933 0.12288 0.38943 0.0
C1154 C 0.0436 0.10633 0.37433 0.0
C1155 C 0.04946 1.02648 0.37656 0.0
C1156 C 0.03035 0.11452 0.37446 0.0
C1157 C 0.02266 1.04296 0.37656 0.0
C1158 C 0.0285 0.96311 0.37881 0.0
C1159 C 0.04176 0.955 0.37893 0.0
H1160 H 0.04548 0.0982 0.83852 0.0
H1161 H 0.0479 0.04938 0.91023 0.0
H1162 H 0.02255 0.08378 0.84001 0.0
H1163 H 0.02473 1.03773 0.91186 0.0
H1164 H 0.98439 0.9262 0.89739 0.0
H1165 H 1.00738 0.94501 0.89926 0.0
H1166 H 1.00411 0.1589 0.85431 0.0
H1167 H 0.98122 0.14072 0.85257 0.0
C1168 C 0.04113 0.08402 0.85463 0.0
C1169 C 0.04859 0.07435 0.87423 0.0
C1170 C 0.02792 0.07692 0.85554 0.0
C1171 C 0.02175 0.06015 0.87608 0.0
C1172 C 0.02918 0.05022 0.89573 0.0
C1173 C 0.04245 0.05762 0.89483 0.0
C1174 C 0.98854 0.97813 0.8882 0.0
C1175 C 0.98092 1.03127 0.87459 0.0
C1176 C 1.00174 0.98883 0.88926 0.0
C1177 C 1.00763 0.05275 0.87668 0.0
C1178 C 0.99995 0.10776 0.8638 0.0
C1179 C 0.98679 0.09726 0.86279 0.0
H1180 H 0.98257 0.12533 0.67693 0.0
H1181 H 0.98227 0.98916 0.61347 0.0
H1182 H 1.00571 0.11389 0.678 0.0
H1183 H 1.00539 0.98117 0.61424 0.0
H1184 H 0.04558 0.09103 0.60973 0.0
H1185 H 0.02249 0.09597 0.61146 0.0
H1186 H 0.02371 1.00005 0.67966 0.0
H1187 H 0.04688 0.99123 0.67775 0.0
C1188 C 0.98738 0.09204 0.66336 0.0
C1189 C 0.98052 0.05918 0.64494 0.0
C1190 C 1.00064 0.08595 0.66396 0.0
C1191 C 1.0073 0.04785 0.64604 0.0
C1192 C 1.00047 1.0124 0.62805 0.0
C1193 C 0.98723 1.01736 0.62759 0.0
C1194 C 0.04098 0.07017 0.62507 0.0
C1195 C 0.04815 1.03974 0.64351 0.0
C1196 C 0.02775 0.07327 0.62604 0.0
C1197 C 0.02135 0.04744 0.64559 0.0
C1198 C 0.02845 1.02042 0.6644 0.0
C1199 C 0.04172 1.01602 0.66333 0.0
H1200 H 0.48313 0.49589 0.17436 0.0
H1201 H 0.4819 0.58287 0.1052 0.0
H1202 H 0.50606 0.51058 0.17472 0.0
H1203 H 0.50506 0.59396 0.10523 0.0
H1204 H 0.54542 0.68981 0.12337 0.0
H1205 H 0.52238 0.67534 0.12076 0.0
H1206 H 0.52476 0.44521 0.15977 0.0
H1207 H 0.54769 0.45975 0.16241 0.0
C1208 C 0.48774 0.51863 0.15922 0.0
C1209 C 0.48059 0.53883 0.1398 0.0
C1210 C 0.50096 0.5258 0.15931 0.0
C1211 C 0.50749 0.55293 0.13996 0.0
C1212 C 0.50036 0.57346 0.12051 0.0
C1213 C 0.48708 0.56631 0.12042 0.0
C1214 C 0.54105 0.63551 0.13113 0.0
C1215 C 0.54845 0.57639 0.14329 0.0
C1216 C 0.52781 0.62722 0.12964 0.0
C1217 C 0.52164 0.55959 0.14027 0.0
C1218 C 0.52911 0.49924 0.15183 0.0
C1219 C 0.5423 0.50754 0.15333 0.0
H1220 H 0.48326 0.67096 0.39898 0.0
H1221 H 0.48136 0.44768 0.35703 0.0
H1222 H 0.50638 0.65697 0.40024 0.0
H1223 H 0.5044 0.43462 0.35807 0.0
H1224 H 0.54529 0.49934 0.34082 0.0
H1225 H 0.52226 0.51032 0.34249 0.0
H1226 H 0.5244 0.56891 0.41371 0.0
H1227 H 0.54763 0.56041 0.41187 0.0
C1228 C 0.48772 0.61817 0.3903 0.0
C1229 C 0.48038 0.56091 0.37772 0.0
C1230 C 0.501 0.6103 0.391 0.0
C1231 C 0.50728 0.54523 0.37905 0.0
C1232 C 0.49991 0.48657 0.36708 0.0
C1233 C 0.48667 0.49416 0.36647 0.0
C1234 C 0.54089 0.51552 0.35681 0.0
C1235 C 0.54836 0.52959 0.37618 0.0
C1236 C 0.52765 0.5207 0.35784 0.0
C1237 C 0.52144 0.54001 0.37826 0.0
C1238 C 0.52887 0.5544 0.39767 0.0
C1239 C 0.54218 0.54883 0.39666 0.0
H1240 H 0.48397 0.47833 0.84342 0.0
H1241 H 0.48157 0.60306 0.90831 0.0
H1242 H 0.50688 0.49351 0.84373 0.0
H1243 H 0.50471 0.61461 0.90913 0.0
H1244 H 0.54534 0.70007 0.88991 0.0
H1245 H 0.52228 0.68656 0.89175 0.0
H1246 H 0.52531 0.43782 0.86191 0.0
H1247 H 0.54827 0.45159 0.85996 0.0
C1248 C 0.48831 0.50948 0.85774 0.0
C1249 C 0.48085 0.54007 0.87576 0.0
C1250 C 0.50153 0.51696 0.85809 0.0
C1251 C 0.50772 0.55471 0.87654 0.0
C1252 C 0.50028 0.5857 0.89456 0.0
C1253 C 0.48701 0.57833 0.8942 0.0
C1254 C 0.5411 0.64203 0.88403 0.0
C1255 C 0.54869 0.57721 0.87461 0.0
C1256 C 0.52785 0.63428 0.88508 0.0
C1257 C 0.52187 0.56145 0.87676 0.0
C1258 C 0.52952 0.49569 0.86799 0.0
C1259 C 0.54272 0.5035 0.8669 0.0
H1260 H 0.48231 0.46856 0.65847 0.0
H1261 H 0.48411 0.70381 0.62184 0.0
H1262 H 0.50531 0.45269 0.6559 0.0
H1263 H 0.50724 0.68721 0.6189 0.0
H1264 H 0.54903 0.6733 0.6454 0.0
H1265 H 0.52593 0.69032 0.64466 0.0
H1266 H 0.52216 0.42604 0.62802 0.0
H1267 H 0.5452 0.40843 0.62937 0.0
C1268 C 0.48764 0.51693 0.64985 0.0
C1269 C 0.48141 0.58783 0.64052 0.0
C1270 C 0.50081 0.50737 0.64816 0.0
C1271 C 0.50812 0.56866 0.63719 0.0
C1272 C 0.50189 0.63923 0.62762 0.0
C1273 C 0.48865 0.64844 0.62914 0.0
C1274 C 0.54327 0.61885 0.64156 0.0
C1275 C 0.54898 0.53948 0.63748 0.0
C1276 C 0.53004 0.62881 0.64092 0.0
C1277 C 0.5222 0.55952 0.63632 0.0
C1278 C 0.52792 0.48053 0.63182 0.0
C1279 C 0.54114 0.47066 0.63235 0.0
H1280 H 0.15742 0.84338 0.11316 0.0
H1281 H 0.12334 0.84952 0.1538 0.0
H1282 H 0.15738 0.68954 0.11405 0.0
H1283 H 0.1236 0.6966 0.15556 0.0
H1284 H 0.12014 0.4192 0.13767 0.0
H1285 H 0.12 0.57278 0.13568 0.0
H1286 H 0.1611 0.57099 0.13656 0.0
H1287 H 0.16117 0.41728 0.13737 0.0
C1288 C 0.14995 0.81205 0.12236 0.0
C1289 C 0.14037 0.85921 0.13332 0.0
C1290 C 0.14997 0.72352 0.12306 0.0
C1291 C 0.14049 0.67975 0.13491 0.0
C1292 C 0.13094 0.72731 0.14589 0.0
C1293 C 0.13084 0.81557 0.14501 0.0
C1294 C 0.12914 0.45169 0.13755 0.0
C1295 C 0.14066 0.40588 0.13769 0.0
C1296 C 0.12908 0.54008 0.13649 0.0
C1297 C 0.14055 0.5852 0.13594 0.0
C1298 C 0.15207 0.53901 0.13646 0.0
C1299 C 0.15212 0.4506 0.13713 0.0
H1300 H 0.90854 0.24435 0.13215 0.0
H1301 H 0.86748 0.2491 0.13351 0.0
H1302 H 0.90871 0.3976 0.13462 0.0
H1303 H 0.8676 0.40242 0.13501 0.0
H1304 H 0.87128 0.67298 0.15848 0.0
H1305 H 0.87164 0.51854 0.15798 0.0
H1306 H 0.90483 0.52228 0.11487 0.0
H1307 H 0.90486 0.6763 0.11692 0.0
C1308 C 0.89954 0.27812 0.13282 0.0
C1309 C 0.888 0.23432 0.13263 0.0
C1310 C 0.89963 0.36632 0.13406 0.0
C1311 C 0.88817 0.41308 0.13504 0.0
C1312 C 0.87663 0.36896 0.13469 0.0
C1313 C 0.87655 0.28077 0.13356 0.0
C1314 C 0.87868 0.64016 0.14912 0.0
C1315 C 0.8881 0.68564 0.13791 0.0
C1316 C 0.87885 0.55179 0.14861 0.0
C1317 C 0.88824 0.50728 0.13629 0.0
C1318 C 0.89762 0.55377 0.12496 0.0
C1319 C 0.89763 0.642 0.12601 0.0
H1320 H 0.12539 0.24156 0.35913 0.0
H1321 H 0.15507 0.2472 0.40958 0.0
H1322 H 0.12627 0.39414 0.35567 0.0
H1323 H 0.15555 0.40071 0.40703 0.0
H1324 H 0.16238 0.66831 0.38286 0.0
H1325 H 0.1618 0.51462 0.38517 0.0
H1326 H 0.12135 0.5225 0.37205 0.0
H1327 H 0.12214 0.67512 0.36853 0.0
C1328 C 0.13198 0.27557 0.36978 0.0
C1329 C 0.14014 0.23199 0.38468 0.0
C1330 C 0.13245 0.36358 0.36788 0.0
C1331 C 0.14099 0.41085 0.38105 0.0
C1332 C 0.14901 0.367 0.39624 0.0
C1333 C 0.14865 0.27875 0.39791 0.0
C1334 C 0.1534 0.63695 0.38023 0.0
C1335 C 0.14234 0.68405 0.37531 0.0
C1336 C 0.15302 0.54864 0.3818 0.0
C1337 C 0.14151 0.50513 0.37889 0.0
C1338 C 0.13046 0.55278 0.37395 0.0
C1339 C 0.1309 0.64079 0.372 0.0
H1340 H 0.90579 0.41833 0.3965 0.0
H1341 H 0.87122 0.42408 0.35732 0.0
H1342 H 0.90543 0.57226 0.39873 0.0
H1343 H 0.87121 0.57854 0.35809 0.0
H1344 H 0.86723 0.84933 0.38322 0.0
H1345 H 0.86752 0.69552 0.38162 0.0
H1346 H 0.90858 0.69664 0.3785 0.0
H1347 H 0.90825 0.84993 0.38086 0.0
C1348 C 0.89827 0.45302 0.38793 0.0
C1349 C 0.88858 0.40984 0.37662 0.0
C1350 C 0.89806 0.54131 0.38911 0.0
C1351 C 0.8883 0.58858 0.37855 0.0
C1352 C 0.87873 0.5447 0.36686 0.0
C1353 C 0.87878 0.45625 0.36618 0.0
C1354 C 0.87632 0.8166 0.38239 0.0
C1355 C 0.88771 0.86197 0.3822 0.0
C1356 C 0.8765 0.72823 0.3812 0.0
C1357 C 0.88808 0.68295 0.37985 0.0
C1358 C 0.89947 0.72874 0.3798 0.0
C1359 C 0.89929 0.81699 0.38095 0.0
H1360 H 0.86946 0.24314 0.89465 0.0
H1361 H 0.90869 0.2386 0.87312 0.0
H1362 H 0.86944 0.39693 0.89365 0.0
H1363 H 0.90853 0.3914 0.87112 0.0
H1364 H 0.90862 0.66974 0.88872 0.0
H1365 H 0.90863 0.5162 0.89134 0.0
H1366 H 0.86925 0.5147 0.8702 0.0
H1367 H 0.86914 0.66872 0.86907 0.0
C1368 C 0.87809 0.27481 0.8897 0.0
C1369 C 0.88908 0.22808 0.88403 0.0
C1370 C 0.87805 0.36332 0.88887 0.0
C1371 C 0.88898 0.40753 0.88223 0.0
C1372 C 0.89997 0.36042 0.87668 0.0
C1373 C 0.90003 0.27218 0.87765 0.0
C1374 C 0.90001 0.63634 0.88451 0.0
C1375 C 0.8889 0.68108 0.87862 0.0
C1376 C 0.9 0.54806 0.88592 0.0
C1377 C 0.88894 0.50205 0.88095 0.0
C1378 C 0.87788 0.54736 0.87466 0.0
C1379 C 0.87783 0.63577 0.87377 0.0
H1380 H 0.12109 0.42289 0.87882 0.0
H1381 H 0.16215 0.42132 0.87866 0.0
H1382 H 0.12089 0.5755 0.88211 0.0
H1383 H 0.16197 0.57535 0.88101 0.0
H1384 H 0.15732 0.84652 0.90736 0.0
H1385 H 0.15779 0.69241 0.90509 0.0
H1386 H 0.12449 0.69974 0.86221 0.0
H1387 H 0.12375 0.85229 0.86521 0.0
C1388 C 0.13011 0.45515 0.87912 0.0
C1389 C 0.14165 0.40942 0.87834 0.0
C1390 C 0.13 0.5432 0.88093 0.0
C1391 C 0.14141 0.58856 0.88175 0.0
C1392 C 0.15297 0.54285 0.88077 0.0
C1393 C 0.15309 0.45439 0.87919 0.0
C1394 C 0.15003 0.81505 0.89764 0.0
C1395 C 0.14043 0.86206 0.88665 0.0
C1396 C 0.15037 0.72656 0.89613 0.0
C1397 C 0.14117 0.68293 0.88348 0.0
C1398 C 0.13161 0.73038 0.8725 0.0
C1399 C 0.13121 0.81843 0.87414 0.0
H1400 H 0.90048 0.85853 0.66426 0.0
H1401 H 0.87571 0.84967 0.60613 0.0
H1402 H 0.90014 0.70483 0.66679 0.0
H1403 H 0.87592 0.69603 0.60769 0.0
H1404 H 0.86799 0.4279 0.62804 0.0
H1405 H 0.86817 0.58124 0.62737 0.0
H1406 H 0.90707 0.57769 0.65107 0.0
H1407 H 0.90667 0.42425 0.65266 0.0
C1408 C 0.8951 0.82348 0.65183 0.0
C1409 C 0.88805 0.86606 0.63509 0.0
C1410 C 0.89495 0.73516 0.65318 0.0
C1411 C 0.88794 0.68714 0.63753 0.0
C1412 C 0.88115 0.7303 0.62046 0.0
C1413 C 0.8811 0.81858 0.61941 0.0
C1414 C 0.87655 0.45975 0.63333 0.0
C1415 C 0.88731 0.41337 0.64043 0.0
C1416 C 0.87671 0.54809 0.6327 0.0
C1417 C 0.88767 0.59274 0.63896 0.0
C1418 C 0.89838 0.54617 0.64637 0.0
C1419 C 0.89819 0.45776 0.64716 0.0
H1420 H 0.12021 0.24929 0.63052 0.0
H1421 H 0.16087 0.2432 0.64053 0.0
H1422 H 0.12036 0.40335 0.63202 0.0
H1423 H 0.161 0.3962 0.64318 0.0
H1424 H 0.15963 0.67127 0.62282 0.0
H1425 H 0.15915 0.51817 0.62155 0.0
H1426 H 0.12277 0.52211 0.65545 0.0
H1427 H 0.12302 0.67593 0.65582 0.0
C1428 C 0.12916 0.28089 0.63324 0.0
C1429 C 0.14053 0.23416 0.63521 0.0
C1430 C 0.12925 0.36928 0.63427 0.0
C1431 C 0.14071 0.41284 0.63765 0.0
C1432 C 0.15203 0.36546 0.64001 0.0
C1433 C 0.15196 0.27743 0.63862 0.0
C1434 C 0.15154 0.63961 0.63011 0.0
C1435 C 0.14138 0.68612 0.63947 0.0
C1436 C 0.15129 0.55141 0.62949 0.0
C1437 C 0.14093 0.5071 0.63845 0.0
C1438 C 0.13082 0.55375 0.64806 0.0
C1439 C 0.13102 0.64215 0.64847 0.0
H1440 H 0.62055 0.9186 0.14111 0.0
H1441 H 0.66135 0.91577 0.13326 0.0
H1442 H 0.62041 0.07224 0.13955 0.0
H1443 H 0.66133 0.06935 0.13275 0.0
H1444 H 0.65638 0.34227 0.11035 0.0
H1445 H 0.65631 0.18841 0.11111 0.0
H1446 H 0.62534 0.19537 0.15906 0.0
H1447 H 0.62507 0.34851 0.1575 0.0
C1448 C 0.62952 0.95078 0.13936 0.0
C1449 C 0.64095 0.90461 0.1373 0.0
C1450 C 0.62946 1.03922 0.13857 0.0
C1451 C 0.64087 0.08406 0.136 0.0
C1452 C 0.65232 1.03758 0.13427 0.0
C1453 C 0.65235 0.94917 0.13476 0.0
C1454 C 0.64953 0.3109 0.12099 0.0
C1455 C 0.6407 0.35804 0.13377 0.0
C1456 C 0.64954 0.22239 0.12157 0.0
C1457 C 0.64082 0.17861 0.13517 0.0
C1458 C 0.63205 0.22616 0.14803 0.0
C1459 C 0.63195 0.31446 0.14725 0.0
H1460 H 0.37152 0.74754 0.1537 0.0
H1461 H 0.40557 0.74946 0.11315 0.0
H1462 H 0.3718 0.90249 0.15576 0.0
H1463 H 0.40558 0.90496 0.1147 0.0
H1464 H 0.37789 0.17772 0.10568 0.0
H1465 H 0.37864 1.02284 0.10437 0.0
H1466 H 0.39839 1.01772 0.16821 0.0
H1467 H 0.39796 0.17324 0.16939 0.0
C1468 C 0.379 0.78116 0.14507 0.0
C1469 C 0.38851 0.73653 0.13319 0.0
C1470 C 0.37917 0.86958 0.14636 0.0
C1471 C 0.38872 0.91516 0.13543 0.0
C1472 C 0.39818 0.87089 0.12339 0.0
C1473 C 0.39817 0.78222 0.1225 0.0
C1474 C 0.38236 0.14369 0.1195 0.0
C1475 C 0.38781 0.18776 0.13771 0.0
C1476 C 0.38283 0.05521 0.11865 0.0
C1477 C 0.38858 1.00885 0.13616 0.0
C1478 C 0.39397 0.0524 0.15447 0.0
C1479 C 0.39371 0.14114 0.15512 0.0
H1480 H 0.66073 0.17243 0.38635 0.0
H1481 H 0.62121 0.17564 0.36657 0.0
H1482 H 0.66043 1.01874 0.38825 0.0
H1483 H 0.62068 1.02267 0.36955 0.0
H1484 H 0.62594 0.74297 0.35675 0.0
H1485 H 0.62678 0.89554 0.35346 0.0
H1486 H 0.65344 0.90373 0.40914 0.0
H1487 H 0.65303 0.75001 0.41159 0.0
C1488 C 0.65196 0.14029 0.38243 0.0
C1489 C 0.64102 0.18644 0.37616 0.0
C1490 C 0.65174 0.05194 0.38375 0.0
C1491 C 0.64051 1.00735 0.37917 0.0
C1492 C 0.62959 0.05394 0.37281 0.0
C1493 C 0.62987 0.14211 0.37117 0.0
C1494 C 0.63194 0.7773 0.36838 0.0
C1495 C 0.63937 0.73417 0.38453 0.0
C1496 C 0.63239 0.86528 0.36657 0.0
C1497 C 0.64015 0.91301 0.38107 0.0
C1498 C 0.64751 0.8696 0.39738 0.0
C1499 C 0.64719 0.78129 0.39897 0.0
H1500 H 0.40749 0.92296 0.36622 0.0
H1501 H 0.36821 0.92701 0.38719 0.0
H1502 H 0.40814 0.07584 0.36932 0.0
H1503 H 0.36861 0.08071 0.38921 0.0
H1504 H 0.37635 0.34928 0.41252 0.0
H1505 H 0.37584 0.1956 0.40992 0.0
H1506 H 0.40202 0.20341 0.35369 0.0
H1507 H 0.40298 0.35598 0.35714 0.0
C1508 C 0.3989 0.95666 0.3711 0.0
C1509 C 0.38778 0.91253 0.37639 0.0
C1510 C 0.39925 1.04482 0.37281 0.0
C1511 C 0.38843 0.09169 0.37954 0.0
C1512 C 0.37723 0.04733 0.38441 0.0
C1513 C 0.37694 0.95895 0.38302 0.0
C1514 C 0.38207 0.31791 0.39975 0.0
C1515 C 0.3898 0.36493 0.38521 0.0
C1516 C 0.38169 0.22961 0.39807 0.0
C1517 C 0.38888 0.18607 0.38155 0.0
C1518 C 0.39655 0.23371 0.36696 0.0
C1519 C 0.39707 0.3217 0.36887 0.0
H1520 H 0.40964 0.74145 0.88088 0.0
H1521 H 0.36868 0.74405 0.88605 0.0
H1522 H 0.40948 0.89534 0.879 0.0
H1523 H 0.36846 0.89686 0.8833 0.0
H1524 H 0.37254 0.17214 0.90175 0.0
H1525 H 0.37317 1.01922 0.90362 0.0
H1526 H 0.4043 1.01365 0.85603 0.0
H1527 H 0.40399 0.16788 0.85489 0.0
C1528 C 0.4006 0.77473 0.88159 0.0
C1529 C 0.38919 0.73016 0.88381 0.0
C1530 C 0.40049 0.86312 0.88029 0.0
C1531 C 0.38896 0.90911 0.88103 0.0
C1532 C 0.37756 0.86416 0.88312 0.0
C1533 C 0.37768 0.77608 0.8846 0.0
C1534 C 0.3795 0.13853 0.89157 0.0
C1535 C 0.38819 0.18257 0.8781 0.0
C1536 C 0.37982 0.05038 0.89256 0.0
C1537 C 0.38875 1.00342 0.87991 0.0
C1538 C 0.3974 0.04748 0.86627 0.0
C1539 C 0.39716 0.13602 0.86545 0.0
H1540 H 0.65888 0.34375 0.9019 0.0
H1541 H 0.62306 0.34913 0.86609 0.0
H1542 H 0.65891 0.18997 0.90081 0.0
H1543 H 0.62335 0.19622 0.86409 0.0
H1544 H 0.62095 0.9185 0.88186 0.0
H1545 H 0.62078 0.07201 0.88408 0.0
H1546 H 0.66172 0.07171 0.8778 0.0
H1547 H 0.66187 0.91787 0.87683 0.0
C1548 C 0.65103 0.31227 0.89373 0.0
C1549 C 0.64095 0.35922 0.88416 0.0
C1550 C 0.65109 0.22376 0.8929 0.0
C1551 C 0.64114 0.17976 0.88231 0.0
C1552 C 0.63108 0.22709 0.87277 0.0
C1553 C 0.63096 0.31536 0.87377 0.0
C1554 C 0.6299 0.95132 0.88082 0.0
C1555 C 0.64142 0.90592 0.87913 0.0
C1556 C 0.62982 1.03968 0.88202 0.0
C1557 C 0.64124 0.08521 0.88112 0.0
C1558 C 0.65274 1.0394 0.87904 0.0
C1559 C 0.65283 0.95097 0.87827 0.0
H1560 H 0.37437 0.91379 0.61188 0.0
H1561 H 0.40387 0.91522 0.6627 0.0
H1562 H 0.37409 0.06686 0.61138 0.0
H1563 H 0.40316 0.06929 0.66315 0.0
H1564 H 0.40784 0.34433 0.64325 0.0
H1565 H 0.40837 0.19092 0.64367 0.0
H1566 H 0.36793 0.18796 0.63043 0.0
H1567 H 0.36761 0.34166 0.62882 0.0
C1568 C 0.38072 0.94687 0.62318 0.0
C1569 C 0.38915 0.90202 0.63736 0.0
C1570 C 0.38049 1.03515 0.62303 0.0
C1571 C 0.38853 0.08145 0.63733 0.0
C1572 C 0.39695 1.03637 0.6516 0.0
C1573 C 0.39732 0.94778 0.65148 0.0
C1574 C 0.39906 0.31088 0.64042 0.0
C1575 C 0.38768 0.3553 0.63594 0.0
C1576 C 0.39934 0.22255 0.64083 0.0
C1577 C 0.3882 0.17605 0.63712 0.0
C1578 C 0.37678 0.22092 0.63291 0.0
C1579 C 0.37655 0.30934 0.63213 0.0
H1580 H 0.62405 0.74186 0.65659 0.0
H1581 H 0.65453 0.74637 0.60784 0.0
H1582 H 0.62493 0.89435 0.66012 0.0
H1583 H 0.65504 0.89993 0.61047 0.0
H1584 H 0.66132 0.16844 0.63489 0.0
H1585 H 0.66087 1.01462 0.63266 0.0
H1586 H 0.6202 1.02189 0.64321 0.0
H1587 H 0.62085 0.17463 0.6467 0.0
C1588 C 0.63082 0.77558 0.64633 0.0
C1589 C 0.63918 0.73171 0.63186 0.0
C1590 C 0.6313 0.86355 0.64826 0.0
C1591 C 0.64004 0.91054 0.63557 0.0
C1592 C 0.64831 0.86642 0.62086 0.0
C1593 C 0.64794 0.77815 0.61913 0.0
C1594 C 0.65232 0.13687 0.63698 0.0
C1595 C 0.64115 0.18377 0.64119 0.0
C1596 C 0.65202 0.04852 0.63546 0.0
C1597 C 0.64048 1.00484 0.63767 0.0
C1598 C 0.62932 0.05233 0.64188 0.0
C1599 C 0.62968 0.14037 0.64382 0.0
loop_
_geom_bond_atom_site_label_1
_geom_bond_atom_site_label_2
_geom_bond_distance
_geom_bond_site_symmetry_2
_ccdc_geom_bond_type
Nd0 C2 2.836 . S
Nd0 O20 2.500 . S
Nd0 O21 2.492 . S
Nd0 O22 2.487 . S
Nd0 O23 2.682 . S
Nd0 O24 2.410 1_545 S
Nd0 O29 2.414 . S
Nd0 O31 2.424 . S
Nd1 C11 2.836 . S
Nd1 O23 2.414 . S
Nd1 O25 2.424 1_545 S
Nd1 O26 2.500 . S
Nd1 O27 2.492 . S
Nd1 O28 2.487 . S
Nd1 O29 2.682 . S
Nd1 O30 2.410 . S
C2 Nd0 2.836 . S
C2 C3 1.498 1_545 S
C2 O20 1.258 . S
C2 O21 1.239 . S
C3 C2 1.498 1_565 S
C3 C4 1.366 . S
C3 C8 1.407 . S
C4 C3 1.366 . S
C4 C5 1.392 . S
C4 H32 0.930 . S
C5 C4 1.392 . S
C5 C6 1.398 . S
C5 H33 0.929 . S
C6 C5 1.398 . S
C6 C7 1.352 . S
C7 C6 1.352 . S
C7 C8 1.384 . S
C7 H34 0.930 . S
C8 C3 1.407 . S
C8 C7 1.384 . S
C8 H35 0.929 1_565 S
C9 O22 1.241 . S
C9 O23 1.273 . S
C10 O24 1.251 . S
C10 O25 1.268 . S
C11 Nd1 2.836 . S
C11 C12 1.498 . S
C11 O26 1.258 . S
C11 O27 1.239 . S
C12 C11 1.498 . S
C12 C13 1.366 . S
C12 C17 1.407 . S
C13 C12 1.366 . S
C13 C14 1.392 . S
C13 H36 0.930 . S
C14 C13 1.392 . S
C14 C15 1.398 . S
C14 H37 0.929 . S
C15 C14 1.398 . S
C15 C16 1.352 . S
C16 C15 1.352 . S
C16 C17 1.384 . S
C16 H38 0.930 . S
C17 C12 1.407 . S
C17 C16 1.384 . S
C17 H39 0.929 . S
C18 O28 1.241 . S
C18 O29 1.273 . S
C19 O30 1.251 . S
C19 O31 1.268 . S
O20 Nd0 2.500 . S
O20 C2 1.258 . S
O21 Nd0 2.492 . S
O21 C2 1.239 . S
O22 Nd0 2.487 . S
O22 C9 1.241 . S
O23 Nd0 2.682 . S
O23 Nd1 2.414 . S
O23 C9 1.273 . S
O24 Nd0 2.410 1_565 S
O24 C10 1.251 . S
O25 Nd1 2.424 1_565 S
O25 C10 1.268 . S
O26 Nd1 2.500 . S
O26 C11 1.258 . S
O27 Nd1 2.492 . S
O27 C11 1.239 . S
O28 Nd1 2.487 . S
O28 C18 1.241 . S
O29 Nd0 2.414 . S
O29 Nd1 2.682 . S
O29 C18 1.273 . S
O30 Nd1 2.410 . S
O30 C19 1.251 . S
O31 Nd0 2.424 . S
O31 C19 1.268 . S
H32 C4 0.930 . S
H33 C5 0.929 . S
H34 C7 0.930 . S
H35 C8 0.929 1_545 S
H36 C13 0.930 . S
H37 C14 0.929 . S
H38 C16 0.930 . S
H39 C17 0.929 . S
Nd40 C42 2.836 . S
Nd40 O60 2.500 . S
Nd40 O61 2.492 . S
Nd40 O62 2.487 . S
Nd40 O63 2.682 . S
Nd40 O64 2.410 1_565 S
Nd40 O69 2.414 . S
Nd40 O71 2.424 . S
Nd41 C51 2.836 . S
Nd41 O63 2.414 . S
Nd41 O65 2.424 1_565 S
Nd41 O66 2.500 . S
Nd41 O67 2.492 . S
Nd41 O68 2.487 . S
Nd41 O69 2.682 . S
Nd41 O70 2.410 . S
C42 Nd40 2.836 . S
C42 C43 1.498 1_565 S
C42 O60 1.258 . S
C42 O61 1.239 . S
C43 C42 1.498 1_545 S
C43 C44 1.366 . S
C43 C48 1.407 . S
C44 C43 1.366 . S
C44 C45 1.392 . S
C44 H72 0.930 . S
C45 C44 1.392 . S
C45 C46 1.398 . S
C45 H73 0.929 . S
C46 C45 1.398 . S
C46 C47 1.352 . S
C47 C46 1.352 . S
C47 C48 1.384 . S
C47 H74 0.930 . S
C48 C43 1.407 . S
C48 C47 1.384 . S
C48 H75 0.929 1_545 S
C49 O62 1.241 . S
C49 O63 1.273 . S
C50 O64 1.251 . S
C50 O65 1.268 . S
C51 Nd41 2.836 . S
C51 C52 1.498 . S
C51 O66 1.258 . S
C51 O67 1.239 . S
C52 C51 1.498 . S
C52 C53 1.366 . S
C52 C57 1.407 . S
C53 C52 1.366 . S
C53 C54 1.392 . S
C53 H76 0.930 . S
C54 C53 1.392 . S
C54 C55 1.398 . S
C54 H77 0.929 . S
C55 C54 1.398 . S
C55 C56 1.352 . S
C56 C55 1.352 . S
C56 C57 1.384 . S
C56 H78 0.930 . S
C57 C52 1.407 . S
C57 C56 1.384 . S
C57 H79 0.929 . S
C58 O68 1.241 . S
C58 O69 1.273 . S
C59 O70 1.251 . S
C59 O71 1.268 . S
O60 Nd40 2.500 . S
O60 C42 1.258 . S
O61 Nd40 2.492 . S
O61 C42 1.239 . S
O62 Nd40 2.487 . S
O62 C49 1.241 . S
O63 Nd40 2.682 . S
O63 Nd41 2.414 . S
O63 C49 1.273 . S
O64 Nd40 2.410 1_545 S
O64 C50 1.251 . S
O65 Nd41 2.424 1_545 S
O65 C50 1.268 . S
O66 Nd41 2.500 . S
O66 C51 1.258 . S
O67 Nd41 2.492 . S
O67 C51 1.239 . S
O68 Nd41 2.487 . S
O68 C58 1.241 . S
O69 Nd40 2.414 . S
O69 Nd41 2.682 . S
O69 C58 1.273 . S
O70 Nd41 2.410 . S
O70 C59 1.251 . S
O71 Nd40 2.424 . S
O71 C59 1.268 . S
H72 C44 0.930 . S
H73 C45 0.929 . S
H74 C47 0.930 . S
H75 C48 0.929 1_565 S
H76 C53 0.930 . S
H77 C54 0.929 . S
H78 C56 0.930 . S
H79 C57 0.929 . S
Nd80 C82 2.836 . S
Nd80 O100 2.500 . S
Nd80 O101 2.492 . S
Nd80 O102 2.487 . S
Nd80 O103 2.682 . S
Nd80 O104 2.410 1_565 S
Nd80 O109 2.414 . S
Nd80 O111 2.424 . S
Nd81 C91 2.836 . S
Nd81 O103 2.414 . S
Nd81 O105 2.424 1_565 S
Nd81 O106 2.500 . S
Nd81 O107 2.492 . S
Nd81 O108 2.487 . S
Nd81 O109 2.682 . S
Nd81 O110 2.410 . S
C82 Nd80 2.836 . S
C82 C83 1.498 1_565 S
C82 O100 1.258 . S
C82 O101 1.239 . S
C83 C82 1.498 1_545 S
C83 C84 1.366 . S
C83 C88 1.407 . S
C84 C83 1.366 . S
C84 C85 1.392 . S
C84 H112 0.930 . S
C85 C84 1.392 . S
C85 C86 1.398 . S
C85 H113 0.929 . S
C86 C85 1.398 . S
C86 C87 1.352 . S
C87 C86 1.352 . S
C87 C88 1.384 . S
C87 H114 0.930 . S
C88 C83 1.407 . S
C88 C87 1.384 . S
C88 H115 0.929 1_545 S
C89 O102 1.241 . S
C89 O103 1.273 . S
C90 O104 1.251 . S
C90 O105 1.268 . S
C91 Nd81 2.836 . S
C91 C92 1.498 . S
C91 O106 1.258 . S
C91 O107 1.239 . S
C92 C91 1.498 . S
C92 C93 1.366 . S
C92 C97 1.407 . S
C93 C92 1.366 . S
C93 C94 1.392 . S
C93 H116 0.930 . S
C94 C93 1.392 . S
C94 C95 1.398 . S
C94 H117 0.929 . S
C95 C94 1.398 . S
C95 C96 1.352 . S
C96 C95 1.352 . S
C96 C97 1.384 . S
C96 H118 0.930 . S
C97 C92 1.407 . S
C97 C96 1.384 . S
C97 H119 0.929 . S
C98 O108 1.241 . S
C98 O109 1.273 . S
C99 O110 1.251 . S
C99 O111 1.268 . S
O100 Nd80 2.500 . S
O100 C82 1.258 . S
O101 Nd80 2.492 . S
O101 C82 1.239 . S
O102 Nd80 2.487 . S
O102 C89 1.241 . S
O103 Nd80 2.682 . S
O103 Nd81 2.414 . S
O103 C89 1.273 . S
O104 Nd80 2.410 1_545 S
O104 C90 1.251 . S
O105 Nd81 2.424 1_545 S
O105 C90 1.268 . S
O106 Nd81 2.500 . S
O106 C91 1.258 . S
O107 Nd81 2.492 . S
O107 C91 1.239 . S
O108 Nd81 2.487 . S
O108 C98 1.241 . S
O109 Nd80 2.414 . S
O109 Nd81 2.682 . S
O109 C98 1.273 . S
O110 Nd81 2.410 . S
O110 C99 1.251 . S
O111 Nd80 2.424 . S
O111 C99 1.268 . S
H112 C84 0.930 . S
H113 C85 0.929 . S
H114 C87 0.930 . S
H115 C88 0.929 1_565 S
H116 C93 0.930 . S
H117 C94 0.929 . S
H118 C96 0.930 . S
H119 C97 0.929 . S
Nd120 C122 2.836 . S
Nd120 O140 2.500 . S
Nd120 O141 2.492 . S
Nd120 O142 2.487 . S
Nd120 O143 2.682 . S
Nd120 O144 2.410 1_545 S
Nd120 O149 2.414 . S
Nd120 O151 2.424 . S
Nd121 C131 2.836 . S
Nd121 O143 2.414 . S
Nd121 O145 2.424 1_545 S
Nd121 O146 2.500 . S
Nd121 O147 2.492 . S
Nd121 O148 2.487 . S
Nd121 O149 2.682 . S
Nd121 O150 2.410 . S
C122 Nd120 2.836 . S
C122 C123 1.498 1_545 S
C122 O140 1.258 . S
C122 O141 1.239 . S
C123 C122 1.498 1_565 S
C123 C124 1.366 . S
C123 C128 1.407 . S
C124 C123 1.366 . S
C124 C125 1.392 . S
C124 H152 0.930 . S
C125 C124 1.392 . S
C125 C126 1.398 . S
C125 H153 0.929 . S
C126 C125 1.398 . S
C126 C127 1.352 . S
C127 C126 1.352 . S
C127 C128 1.384 . S
C127 H154 0.930 . S
C128 C123 1.407 . S
C128 C127 1.384 . S
C128 H155 0.929 1_565 S
C129 O142 1.241 . S
C129 O143 1.273 . S
C130 O144 1.251 . S
C130 O145 1.268 . S
C131 Nd121 2.836 . S
C131 C132 1.498 . S
C131 O146 1.258 . S
C131 O147 1.239 . S
C132 C131 1.498 . S
C132 C133 1.366 . S
C132 C137 1.407 . S
C133 C132 1.366 . S
C133 C134 1.392 . S
C133 H156 0.930 . S
C134 C133 1.392 . S
C134 C135 1.398 . S
C134 H157 0.929 . S
C135 C134 1.398 . S
C135 C136 1.352 . S
C136 C135 1.352 . S
C136 C137 1.384 . S
C136 H158 0.930 . S
C137 C132 1.407 . S
C137 C136 1.384 . S
C137 H159 0.929 . S
C138 O148 1.241 . S
C138 O149 1.273 . S
C139 O150 1.251 . S
C139 O151 1.268 . S
O140 Nd120 2.500 . S
O140 C122 1.258 . S
O141 Nd120 2.492 . S
O141 C122 1.239 . S
O142 Nd120 2.487 . S
O142 C129 1.241 . S
O143 Nd120 2.682 . S
O143 Nd121 2.414 . S
O143 C129 1.273 . S
O144 Nd120 2.410 1_565 S
O144 C130 1.251 . S
O145 Nd121 2.424 1_565 S
O145 C130 1.268 . S
O146 Nd121 2.500 . S
O146 C131 1.258 . S
O147 Nd121 2.492 . S
O147 C131 1.239 . S
O148 Nd121 2.487 . S
O148 C138 1.241 . S
O149 Nd120 2.414 . S
O149 Nd121 2.682 . S
O149 C138 1.273 . S
O150 Nd121 2.410 . S
O150 C139 1.251 . S
O151 Nd120 2.424 . S
O151 C139 1.268 . S
H152 C124 0.930 . S
H153 C125 0.929 . S
H154 C127 0.930 . S
H155 C128 0.929 1_545 S
H156 C133 0.930 . S
H157 C134 0.929 . S
H158 C136 0.930 . S
H159 C137 0.929 . S
Nd160 C162 2.836 . S
Nd160 O180 2.500 . S
Nd160 O181 2.492 . S
Nd160 O182 2.487 . S
Nd160 O183 2.682 . S
Nd160 O184 2.410 . S
Nd160 O189 2.414 . S
Nd160 O191 2.424 1_565 S
Nd161 C171 2.836 . S
Nd161 O183 2.414 . S
Nd161 O185 2.424 . S
Nd161 O186 2.500 . S
Nd161 O187 2.492 . S
Nd161 O188 2.487 . S
Nd161 O189 2.682 . S
Nd161 O190 2.410 1_565 S
C162 Nd160 2.836 . S
C162 C163 1.498 . S
C162 O180 1.258 . S
C162 O181 1.239 . S
C163 C162 1.498 . S
C163 C164 1.366 . S
C163 C168 1.407 . S
C164 C163 1.366 . S
C164 C165 1.392 . S
C164 H192 0.930 . S
C165 C164 1.392 . S
C165 C166 1.398 . S
C165 H193 0.929 . S
C166 C165 1.398 . S
C166 C167 1.352 . S
C167 C166 1.352 . S
C167 C168 1.384 . S
C167 H194 0.930 . S
C168 C163 1.407 . S
C168 C167 1.384 . S
C168 H195 0.929 . S
C169 O182 1.241 . S
C169 O183 1.273 . S
C170 O184 1.251 . S
C170 O185 1.268 . S
C171 Nd161 2.836 . S
C171 C172 1.498 1_565 S
C171 O186 1.258 . S
C171 O187 1.239 . S
C172 C171 1.498 1_545 S
C172 C173 1.366 . S
C172 C177 1.407 . S
C173 C172 1.366 . S
C173 C174 1.392 . S
C173 H196 0.930 . S
C174 C173 1.392 . S
C174 C175 1.398 . S
C174 H197 0.929 . S
C175 C174 1.398 . S
C175 C176 1.352 . S
C176 C175 1.352 . S
C176 C177 1.384 . S
C176 H198 0.930 . S
C177 C172 1.407 . S
C177 C176 1.384 . S
C177 H199 0.929 1_545 S
C178 O188 1.241 . S
C178 O189 1.273 . S
C179 O190 1.251 . S
C179 O191 1.268 . S
O180 Nd160 2.500 . S
O180 C162 1.258 . S
O181 Nd160 2.492 . S
O181 C162 1.239 . S
O182 Nd160 2.487 . S
O182 C169 1.241 . S
O183 Nd160 2.682 . S
O183 Nd161 2.414 . S
O183 C169 1.273 . S
O184 Nd160 2.410 . S
O184 C170 1.251 . S
O185 Nd161 2.424 . S
O185 C170 1.268 . S
O186 Nd161 2.500 . S
O186 C171 1.258 . S
O187 Nd161 2.492 . S
O187 C171 1.239 . S
O188 Nd161 2.487 . S
O188 C178 1.241 . S
O189 Nd160 2.414 . S
O189 Nd161 2.682 . S
O189 C178 1.273 . S
O190 Nd161 2.410 1_545 S
O190 C179 1.251 . S
O191 Nd160 2.424 1_545 S
O191 C179 1.268 . S
H192 C164 0.930 . S
H193 C165 0.929 . S
H194 C167 0.930 . S
H195 C168 0.929 . S
H196 C173 0.930 . S
H197 C174 0.929 . S
H198 C176 0.930 . S
H199 C177 0.929 1_565 S
Nd200 C202 2.836 . S
Nd200 O220 2.500 . S
Nd200 O221 2.492 . S
Nd200 O222 2.487 . S
Nd200 O223 2.682 . S
Nd200 O224 2.410 . S
Nd200 O229 2.414 . S
Nd200 O231 2.424 1_545 S
Nd201 C211 2.836 . S
Nd201 O223 2.414 . S
Nd201 O225 2.424 . S
Nd201 O226 2.500 . S
Nd201 O227 2.492 . S
Nd201 O228 2.487 . S
Nd201 O229 2.682 . S
Nd201 O230 2.410 1_545 S
C202 Nd200 2.836 . S
C202 C203 1.498 . S
C202 O220 1.258 . S
C202 O221 1.239 . S
C203 C202 1.498 . S
C203 C204 1.366 . S
C203 C208 1.407 . S
C204 C203 1.366 . S
C204 C205 1.392 . S
C204 H232 0.930 . S
C205 C204 1.392 . S
C205 C206 1.398 . S
C205 H233 0.929 . S
C206 C205 1.398 . S
C206 C207 1.352 . S
C207 C206 1.352 . S
C207 C208 1.384 . S
C207 H234 0.930 . S
C208 C203 1.407 . S
C208 C207 1.384 . S
C208 H235 0.929 . S
C209 O222 1.241 . S
C209 O223 1.273 . S
C210 O224 1.251 . S
C210 O225 1.268 . S
C211 Nd201 2.836 . S
C211 C212 1.498 1_545 S
C211 O226 1.258 . S
C211 O227 1.239 . S
C212 C211 1.498 1_565 S
C212 C213 1.366 . S
C212 C217 1.407 . S
C213 C212 1.366 . S
C213 C214 1.392 . S
C213 H236 0.930 . S
C214 C213 1.392 . S
C214 C215 1.398 . S
C214 H237 0.929 . S
C215 C214 1.398 . S
C215 C216 1.352 . S
C216 C215 1.352 . S
C216 C217 1.384 . S
C216 H238 0.930 . S
C217 C212 1.407 . S
C217 C216 1.384 . S
C217 H239 0.929 1_565 S
C218 O228 1.241 . S
C218 O229 1.273 . S
C219 O230 1.251 . S
C219 O231 1.268 . S
O220 Nd200 2.500 . S
O220 C202 1.258 . S
O221 Nd200 2.492 . S
O221 C202 1.239 . S
O222 Nd200 2.487 . S
O222 C209 1.241 . S
O223 Nd200 2.682 . S
O223 Nd201 2.414 . S
O223 C209 1.273 . S
O224 Nd200 2.410 . S
O224 C210 1.251 . S
O225 Nd201 2.424 . S
O225 C210 1.268 . S
O226 Nd201 2.500 . S
O226 C211 1.258 . S
O227 Nd201 2.492 . S
O227 C211 1.239 . S
O228 Nd201 2.487 . S
O228 C218 1.241 . S
O229 Nd200 2.414 . S
O229 Nd201 2.682 . S
O229 C218 1.273 . S
O230 Nd201 2.410 1_565 S
O230 C219 1.251 . S
O231 Nd200 2.424 1_565 S
O231 C219 1.268 . S
H232 C204 0.930 . S
H233 C205 0.929 . S
H234 C207 0.930 . S
H235 C208 0.929 . S
H236 C213 0.930 . S
H237 C214 0.929 . S
H238 C216 0.930 . S
H239 C217 0.929 1_545 S
Nd240 C242 2.836 . S
Nd240 O260 2.500 . S
Nd240 O261 2.492 . S
Nd240 O262 2.487 . S
Nd240 O263 2.682 . S
Nd240 O264 2.410 . S
Nd240 O269 2.414 . S
Nd240 O271 2.424 1_545 S
Nd241 C251 2.836 . S
Nd241 O263 2.414 . S
Nd241 O265 2.424 . S
Nd241 O266 2.500 . S
Nd241 O267 2.492 . S
Nd241 O268 2.487 . S
Nd241 O269 2.682 . S
Nd241 O270 2.410 1_545 S
C242 Nd240 2.836 . S
C242 C243 1.498 . S
C242 O260 1.258 . S
C242 O261 1.239 . S
C243 C242 1.498 . S
C243 C244 1.366 . S
C243 C248 1.407 . S
C244 C243 1.366 . S
C244 C245 1.392 . S
C244 H272 0.930 . S
C245 C244 1.392 . S
C245 C246 1.398 . S
C245 H273 0.929 . S
C246 C245 1.398 . S
C246 C247 1.352 . S
C247 C246 1.352 . S
C247 C248 1.384 . S
C247 H274 0.930 . S
C248 C243 1.407 . S
C248 C247 1.384 . S
C248 H275 0.929 . S
C249 O262 1.241 . S
C249 O263 1.273 . S
C250 O264 1.251 . S
C250 O265 1.268 . S
C251 Nd241 2.836 . S
C251 C252 1.498 1_545 S
C251 O266 1.258 . S
C251 O267 1.239 . S
C252 C251 1.498 1_565 S
C252 C253 1.366 . S
C252 C257 1.407 . S
C253 C252 1.366 . S
C253 C254 1.392 . S
C253 H276 0.930 . S
C254 C253 1.392 . S
C254 C255 1.398 . S
C254 H277 0.929 . S
C255 C254 1.398 . S
C255 C256 1.352 . S
C256 C255 1.352 . S
C256 C257 1.384 . S
C256 H278 0.930 . S
C257 C252 1.407 . S
C257 C256 1.384 . S
C257 H279 0.929 1_565 S
C258 O268 1.241 . S
C258 O269 1.273 . S
C259 O270 1.251 . S
C259 O271 1.268 . S
O260 Nd240 2.500 . S
O260 C242 1.258 . S
O261 Nd240 2.492 . S
O261 C242 1.239 . S
O262 Nd240 2.487 . S
O262 C249 1.241 . S
O263 Nd240 2.682 . S
O263 Nd241 2.414 . S
O263 C249 1.273 . S
O264 Nd240 2.410 . S
O264 C250 1.251 . S
O265 Nd241 2.424 . S
O265 C250 1.268 . S
O266 Nd241 2.500 . S
O266 C251 1.258 . S
O267 Nd241 2.492 . S
O267 C251 1.239 . S
O268 Nd241 2.487 . S
O268 C258 1.241 . S
O269 Nd240 2.414 . S
O269 Nd241 2.682 . S
O269 C258 1.273 . S
O270 Nd241 2.410 1_565 S
O270 C259 1.251 . S
O271 Nd240 2.424 1_565 S
O271 C259 1.268 . S
H272 C244 0.930 . S
H273 C245 0.929 . S
H274 C247 0.930 . S
H275 C248 0.929 . S
H276 C253 0.930 . S
H277 C254 0.929 . S
H278 C256 0.930 . S
H279 C257 0.929 1_545 S
Nd280 C282 2.836 . S
Nd280 O300 2.500 . S
Nd280 O301 2.492 . S
Nd280 O302 2.487 . S
Nd280 O303 2.682 . S
Nd280 O304 2.410 . S
Nd280 O309 2.414 . S
Nd280 O311 2.424 1_565 S
Nd281 C291 2.836 . S
Nd281 O303 2.414 . S
Nd281 O305 2.424 . S
Nd281 O306 2.500 . S
Nd281 O307 2.492 . S
Nd281 O308 2.487 . S
Nd281 O309 2.682 . S
Nd281 O310 2.410 1_565 S
C282 Nd280 2.836 . S
C282 C283 1.498 . S
C282 O300 1.258 . S
C282 O301 1.239 . S
C283 C282 1.498 . S
C283 C284 1.366 . S
C283 C288 1.407 . S
C284 C283 1.366 . S
C284 C285 1.392 . S
C284 H312 0.930 . S
C285 C284 1.392 . S
C285 C286 1.398 . S
C285 H313 0.929 . S
C286 C285 1.398 . S
C286 C287 1.352 . S
C287 C286 1.352 . S
C287 C288 1.384 . S
C287 H314 0.930 . S
C288 C283 1.407 . S
C288 C287 1.384 . S
C288 H315 0.929 . S
C289 O302 1.241 . S
C289 O303 1.273 . S
C290 O304 1.251 . S
C290 O305 1.268 . S
C291 Nd281 2.836 . S
C291 C292 1.498 1_565 S
C291 O306 1.258 . S
C291 O307 1.239 . S
C292 C291 1.498 1_545 S
C292 C293 1.366 . S
C292 C297 1.407 . S
C293 C292 1.366 . S
C293 C294 1.392 . S
C293 H316 0.930 . S
C294 C293 1.392 . S
C294 C295 1.398 . S
C294 H317 0.929 . S
C295 C294 1.398 . S
C295 C296 1.352 . S
C296 C295 1.352 . S
C296 C297 1.384 . S
C296 H318 0.930 . S
C297 C292 1.407 . S
C297 C296 1.384 . S
C297 H319 0.929 1_545 S
C298 O308 1.241 . S
C298 O309 1.273 . S
C299 O310 1.251 . S
C299 O311 1.268 . S
O300 Nd280 2.500 . S
O300 C282 1.258 . S
O301 Nd280 2.492 . S
O301 C282 1.239 . S
O302 Nd280 2.487 . S
O302 C289 1.241 . S
O303 Nd280 2.682 . S
O303 Nd281 2.414 . S
O303 C289 1.273 . S
O304 Nd280 2.410 . S
O304 C290 1.251 . S
O305 Nd281 2.424 . S
O305 C290 1.268 . S
O306 Nd281 2.500 . S
O306 C291 1.258 . S
O307 Nd281 2.492 . S
O307 C291 1.239 . S
O308 Nd281 2.487 . S
O308 C298 1.241 . S
O309 Nd280 2.414 . S
O309 Nd281 2.682 . S
O309 C298 1.273 . S
O310 Nd281 2.410 1_545 S
O310 C299 1.251 . S
O311 Nd280 2.424 1_545 S
O311 C299 1.268 . S
H312 C284 0.930 . S
H313 C285 0.929 . S
H314 C287 0.930 . S
H315 C288 0.929 . S
H316 C293 0.930 . S
H317 C294 0.929 . S
H318 C296 0.930 . S
H319 C297 0.929 1_565 S
Nd320 C322 2.836 . S
Nd320 O340 2.500 . S
Nd320 O341 2.492 . S
Nd320 O342 2.487 . S
Nd320 O343 2.682 . S
Nd320 O344 2.410 . S
Nd320 O349 2.414 . S
Nd320 O351 2.424 . S
Nd321 C331 2.836 . S
Nd321 O343 2.414 . S
Nd321 O345 2.424 . S
Nd321 O346 2.500 . S
Nd321 O347 2.492 . S
Nd321 O348 2.487 . S
Nd321 O349 2.682 . S
Nd321 O350 2.410 . S
C322 Nd320 2.836 . S
C322 C323 1.498 . S
C322 O340 1.258 . S
C322 O341 1.239 . S
C323 C322 1.498 . S
C323 C324 1.366 . S
C323 C328 1.407 . S
C324 C323 1.366 . S
C324 C325 1.392 . S
C324 H352 0.930 . S
C325 C324 1.392 . S
C325 C326 1.398 . S
C325 H353 0.929 . S
C326 C325 1.398 . S
C326 C327 1.352 . S
C327 C326 1.352 . S
C327 C328 1.384 . S
C327 H354 0.930 . S
C328 C323 1.407 . S
C328 C327 1.384 . S
C328 H355 0.929 . S
C329 O342 1.241 . S
C329 O343 1.273 . S
C330 O344 1.251 . S
C330 O345 1.268 . S
C331 Nd321 2.836 . S
C331 C332 1.498 . S
C331 O346 1.258 . S
C331 O347 1.239 . S
C332 C331 1.498 . S
C332 C333 1.366 . S
C332 C337 1.407 . S
C333 C332 1.366 . S
C333 C334 1.392 . S
C333 H356 0.930 . S
C334 C333 1.392 . S
C334 C335 1.398 . S
C334 H357 0.929 . S
C335 C334 1.398 . S
C335 C336 1.352 . S
C336 C335 1.352 . S
C336 C337 1.384 . S
C336 H358 0.930 . S
C337 C332 1.407 . S
C337 C336 1.384 . S
C337 H359 0.929 . S
C338 O348 1.241 . S
C338 O349 1.273 . S
C339 O350 1.251 . S
C339 O351 1.268 . S
O340 Nd320 2.500 . S
O340 C322 1.258 . S
O341 Nd320 2.492 . S
O341 C322 1.239 . S
O342 Nd320 2.487 . S
O342 C329 1.241 . S
O343 Nd320 2.682 . S
O343 Nd321 2.414 . S
O343 C329 1.273 . S
O344 Nd320 2.410 . S
O344 C330 1.251 . S
O345 Nd321 2.424 . S
O345 C330 1.268 . S
O346 Nd321 2.500 . S
O346 C331 1.258 . S
O347 Nd321 2.492 . S
O347 C331 1.239 . S
O348 Nd321 2.487 . S
O348 C338 1.241 . S
O349 Nd320 2.414 . S
O349 Nd321 2.682 . S
O349 C338 1.273 . S
O350 Nd321 2.410 . S
O350 C339 1.251 . S
O351 Nd320 2.424 . S
O351 C339 1.268 . S
H352 C324 0.930 . S
H353 C325 0.929 . S
H354 C327 0.930 . S
H355 C328 0.929 . S
H356 C333 0.930 . S
H357 C334 0.929 . S
H358 C336 0.930 . S
H359 C337 0.929 . S
Nd360 C362 2.836 . S
Nd360 O380 2.500 . S
Nd360 O381 2.492 . S
Nd360 O382 2.487 . S
Nd360 O383 2.682 . S
Nd360 O384 2.410 . S
Nd360 O389 2.414 . S
Nd360 O391 2.424 . S
Nd361 C371 2.836 . S
Nd361 O383 2.414 . S
Nd361 O385 2.424 . S
Nd361 O386 2.500 . S
Nd361 O387 2.492 . S
Nd361 O388 2.487 . S
Nd361 O389 2.682 . S
Nd361 O390 2.410 . S
C362 Nd360 2.836 . S
C362 C363 1.498 . S
C362 O380 1.258 . S
C362 O381 1.239 . S
C363 C362 1.498 . S
C363 C364 1.366 . S
C363 C368 1.407 . S
C364 C363 1.366 . S
C364 C365 1.392 . S
C364 H392 0.930 . S
C365 C364 1.392 . S
C365 C366 1.398 . S
C365 H393 0.929 . S
C366 C365 1.398 . S
C366 C367 1.352 . S
C367 C366 1.352 . S
C367 C368 1.384 . S
C367 H394 0.930 . S
C368 C363 1.407 . S
C368 C367 1.384 . S
C368 H395 0.929 . S
C369 O382 1.241 . S
C369 O383 1.273 . S
C370 O384 1.251 . S
C370 O385 1.268 . S
C371 Nd361 2.836 . S
C371 C372 1.498 . S
C371 O386 1.258 . S
C371 O387 1.239 . S
C372 C371 1.498 . S
C372 C373 1.366 . S
C372 C377 1.407 . S
C373 C372 1.366 . S
C373 C374 1.392 . S
C373 H396 0.930 . S
C374 C373 1.392 . S
C374 C375 1.398 . S
C374 H397 0.929 . S
C375 C374 1.398 . S
C375 C376 1.352 . S
C376 C375 1.352 . S
C376 C377 1.384 . S
C376 H398 0.930 . S
C377 C372 1.407 . S
C377 C376 1.384 . S
C377 H399 0.929 . S
C378 O388 1.241 . S
C378 O389 1.273 . S
C379 O390 1.251 . S
C379 O391 1.268 . S
O380 Nd360 2.500 . S
O380 C362 1.258 . S
O381 Nd360 2.492 . S
O381 C362 1.239 . S
O382 Nd360 2.487 . S
O382 C369 1.241 . S
O383 Nd360 2.682 . S
O383 Nd361 2.414 . S
O383 C369 1.273 . S
O384 Nd360 2.410 . S
O384 C370 1.251 . S
O385 Nd361 2.424 . S
O385 C370 1.268 . S
O386 Nd361 2.500 . S
O386 C371 1.258 . S
O387 Nd361 2.492 . S
O387 C371 1.239 . S
O388 Nd361 2.487 . S
O388 C378 1.241 . S
O389 Nd360 2.414 . S
O389 Nd361 2.682 . S
O389 C378 1.273 . S
O390 Nd361 2.410 . S
O390 C379 1.251 . S
O391 Nd360 2.424 . S
O391 C379 1.268 . S
H392 C364 0.930 . S
H393 C365 0.929 . S
H394 C367 0.930 . S
H395 C368 0.929 . S
H396 C373 0.930 . S
H397 C374 0.929 . S
H398 C376 0.930 . S
H399 C377 0.929 . S
Nd400 C402 2.836 . S
Nd400 O420 2.500 . S
Nd400 O421 2.492 . S
Nd400 O422 2.487 . S
Nd400 O423 2.682 . S
Nd400 O424 2.410 . S
Nd400 O429 2.414 . S
Nd400 O431 2.424 . S
Nd401 C411 2.836 . S
Nd401 O423 2.414 . S
Nd401 O425 2.424 . S
Nd401 O426 2.500 . S
Nd401 O427 2.492 . S
Nd401 O428 2.487 . S
Nd401 O429 2.682 . S
Nd401 O430 2.410 . S
C402 Nd400 2.836 . S
C402 C403 1.498 . S
C402 O420 1.258 . S
C402 O421 1.239 . S
C403 C402 1.498 . S
C403 C404 1.366 . S
C403 C408 1.407 . S
C404 C403 1.366 . S
C404 C405 1.392 . S
C404 H432 0.930 . S
C405 C404 1.392 . S
C405 C406 1.398 . S
C405 H433 0.929 . S
C406 C405 1.398 . S
C406 C407 1.352 . S
C407 C406 1.352 . S
C407 C408 1.384 . S
C407 H434 0.930 . S
C408 C403 1.407 . S
C408 C407 1.384 . S
C408 H435 0.929 . S
C409 O422 1.241 . S
C409 O423 1.273 . S
C410 O424 1.251 . S
C410 O425 1.268 . S
C411 Nd401 2.836 . S
C411 C412 1.498 . S
C411 O426 1.258 . S
C411 O427 1.239 . S
C412 C411 1.498 . S
C412 C413 1.366 . S
C412 C417 1.407 . S
C413 C412 1.366 . S
C413 C414 1.392 . S
C413 H436 0.930 . S
C414 C413 1.392 . S
C414 C415 1.398 . S
C414 H437 0.929 . S
C415 C414 1.398 . S
C415 C416 1.352 . S
C416 C415 1.352 . S
C416 C417 1.384 . S
C416 H438 0.930 . S
C417 C412 1.407 . S
C417 C416 1.384 . S
C417 H439 0.929 . S
C418 O428 1.241 . S
C418 O429 1.273 . S
C419 O430 1.251 . S
C419 O431 1.268 . S
O420 Nd400 2.500 . S
O420 C402 1.258 . S
O421 Nd400 2.492 . S
O421 C402 1.239 . S
O422 Nd400 2.487 . S
O422 C409 1.241 . S
O423 Nd400 2.682 . S
O423 Nd401 2.414 . S
O423 C409 1.273 . S
O424 Nd400 2.410 . S
O424 C410 1.251 . S
O425 Nd401 2.424 . S
O425 C410 1.268 . S
O426 Nd401 2.500 . S
O426 C411 1.258 . S
O427 Nd401 2.492 . S
O427 C411 1.239 . S
O428 Nd401 2.487 . S
O428 C418 1.241 . S
O429 Nd400 2.414 . S
O429 Nd401 2.682 . S
O429 C418 1.273 . S
O430 Nd401 2.410 . S
O430 C419 1.251 . S
O431 Nd400 2.424 . S
O431 C419 1.268 . S
H432 C404 0.930 . S
H433 C405 0.929 . S
H434 C407 0.930 . S
H435 C408 0.929 . S
H436 C413 0.930 . S
H437 C414 0.929 . S
H438 C416 0.930 . S
H439 C417 0.929 . S
Nd440 C442 2.836 . S
Nd440 O460 2.500 . S
Nd440 O461 2.492 . S
Nd440 O462 2.487 . S
Nd440 O463 2.682 . S
Nd440 O464 2.410 . S
Nd440 O469 2.414 . S
Nd440 O471 2.424 . S
Nd441 C451 2.836 . S
Nd441 O463 2.414 . S
Nd441 O465 2.424 . S
Nd441 O466 2.500 . S
Nd441 O467 2.492 . S
Nd441 O468 2.487 . S
Nd441 O469 2.682 . S
Nd441 O470 2.410 . S
C442 Nd440 2.836 . S
C442 C443 1.498 . S
C442 O460 1.258 . S
C442 O461 1.239 . S
C443 C442 1.498 . S
C443 C444 1.366 . S
C443 C448 1.407 . S
C444 C443 1.366 . S
C444 C445 1.392 . S
C444 H472 0.930 . S
C445 C444 1.392 . S
C445 C446 1.398 . S
C445 H473 0.929 . S
C446 C445 1.398 . S
C446 C447 1.352 . S
C447 C446 1.352 . S
C447 C448 1.384 . S
C447 H474 0.930 . S
C448 C443 1.407 . S
C448 C447 1.384 . S
C448 H475 0.929 . S
C449 O462 1.241 . S
C449 O463 1.273 . S
C450 O464 1.251 . S
C450 O465 1.268 . S
C451 Nd441 2.836 . S
C451 C452 1.498 . S
C451 O466 1.258 . S
C451 O467 1.239 . S
C452 C451 1.498 . S
C452 C453 1.366 . S
C452 C457 1.407 . S
C453 C452 1.366 . S
C453 C454 1.392 . S
C453 H476 0.930 . S
C454 C453 1.392 . S
C454 C455 1.398 . S
C454 H477 0.929 . S
C455 C454 1.398 . S
C455 C456 1.352 . S
C456 C455 1.352 . S
C456 C457 1.384 . S
C456 H478 0.930 . S
C457 C452 1.407 . S
C457 C456 1.384 . S
C457 H479 0.929 . S
C458 O468 1.241 . S
C458 O469 1.273 . S
C459 O470 1.251 . S
C459 O471 1.268 . S
O460 Nd440 2.500 . S
O460 C442 1.258 . S
O461 Nd440 2.492 . S
O461 C442 1.239 . S
O462 Nd440 2.487 . S
O462 C449 1.241 . S
O463 Nd440 2.682 . S
O463 Nd441 2.414 . S
O463 C449 1.273 . S
O464 Nd440 2.410 . S
O464 C450 1.251 . S
O465 Nd441 2.424 . S
O465 C450 1.268 . S
O466 Nd441 2.500 . S
O466 C451 1.258 . S
O467 Nd441 2.492 . S
O467 C451 1.239 . S
O468 Nd441 2.487 . S
O468 C458 1.241 . S
O469 Nd440 2.414 . S
O469 Nd441 2.682 . S
O469 C458 1.273 . S
O470 Nd441 2.410 . S
O470 C459 1.251 . S
O471 Nd440 2.424 . S
O471 C459 1.268 . S
H472 C444 0.930 . S
H473 C445 0.929 . S
H474 C447 0.930 . S
H475 C448 0.929 . S
H476 C453 0.930 . S
H477 C454 0.929 . S
H478 C456 0.930 . S
H479 C457 0.929 . S
Nd480 C482 2.836 . S
Nd480 O500 2.500 . S
Nd480 O501 2.492 . S
Nd480 O502 2.487 . S
Nd480 O503 2.682 . S
Nd480 O504 2.410 . S
Nd480 O509 2.414 . S
Nd480 O511 2.424 . S
Nd481 C491 2.836 . S
Nd481 O503 2.414 . S
Nd481 O505 2.424 . S
Nd481 O506 2.500 . S
Nd481 O507 2.492 . S
Nd481 O508 2.487 . S
Nd481 O509 2.682 . S
Nd481 O510 2.410 . S
C482 Nd480 2.836 . S
C482 C483 1.498 . S
C482 O500 1.258 . S
C482 O501 1.239 . S
C483 C482 1.498 . S
C483 C484 1.366 . S
C483 C488 1.407 . S
C484 C483 1.366 . S
C484 C485 1.392 . S
C484 H512 0.930 . S
C485 C484 1.392 . S
C485 C486 1.398 . S
C485 H513 0.929 . S
C486 C485 1.398 . S
C486 C487 1.352 . S
C487 C486 1.352 . S
C487 C488 1.384 . S
C487 H514 0.930 . S
C488 C483 1.407 . S
C488 C487 1.384 . S
C488 H515 0.929 . S
C489 O502 1.241 . S
C489 O503 1.273 . S
C490 O504 1.251 . S
C490 O505 1.268 . S
C491 Nd481 2.836 . S
C491 C492 1.498 . S
C491 O506 1.258 . S
C491 O507 1.239 . S
C492 C491 1.498 . S
C492 C493 1.366 . S
C492 C497 1.407 . S
C493 C492 1.366 . S
C493 C494 1.392 . S
C493 H516 0.930 . S
C494 C493 1.392 . S
C494 C495 1.398 . S
C494 H517 0.929 . S
C495 C494 1.398 . S
C495 C496 1.352 . S
C496 C495 1.352 . S
C496 C497 1.384 . S
C496 H518 0.930 . S
C497 C492 1.407 . S
C497 C496 1.384 . S
C497 H519 0.929 . S
C498 O508 1.241 . S
C498 O509 1.273 . S
C499 O510 1.251 . S
C499 O511 1.268 . S
O500 Nd480 2.500 . S
O500 C482 1.258 . S
O501 Nd480 2.492 . S
O501 C482 1.239 . S
O502 Nd480 2.487 . S
O502 C489 1.241 . S
O503 Nd480 2.682 . S
O503 Nd481 2.414 . S
O503 C489 1.273 . S
O504 Nd480 2.410 . S
O504 C490 1.251 . S
O505 Nd481 2.424 . S
O505 C490 1.268 . S
O506 Nd481 2.500 . S
O506 C491 1.258 . S
O507 Nd481 2.492 . S
O507 C491 1.239 . S
O508 Nd481 2.487 . S
O508 C498 1.241 . S
O509 Nd480 2.414 . S
O509 Nd481 2.682 . S
O509 C498 1.273 . S
O510 Nd481 2.410 . S
O510 C499 1.251 . S
O511 Nd480 2.424 . S
O511 C499 1.268 . S
H512 C484 0.930 . S
H513 C485 0.929 . S
H514 C487 0.930 . S
H515 C488 0.929 . S
H516 C493 0.930 . S
H517 C494 0.929 . S
H518 C496 0.930 . S
H519 C497 0.929 . S
Nd520 C522 2.836 . S
Nd520 O540 2.500 . S
Nd520 O541 2.492 . S
Nd520 O542 2.487 . S
Nd520 O543 2.682 . S
Nd520 O544 2.410 . S
Nd520 O549 2.414 . S
Nd520 O551 2.424 . S
Nd521 C531 2.836 . S
Nd521 O543 2.414 . S
Nd521 O545 2.424 . S
Nd521 O546 2.500 . S
Nd521 O547 2.492 . S
Nd521 O548 2.487 . S
Nd521 O549 2.682 . S
Nd521 O550 2.410 . S
C522 Nd520 2.836 . S
C522 C523 1.498 . S
C522 O540 1.258 . S
C522 O541 1.239 . S
C523 C522 1.498 . S
C523 C524 1.366 . S
C523 C528 1.407 . S
C524 C523 1.366 . S
C524 C525 1.392 . S
C524 H552 0.930 . S
C525 C524 1.392 . S
C525 C526 1.398 . S
C525 H553 0.929 . S
C526 C525 1.398 . S
C526 C527 1.352 . S
C527 C526 1.352 . S
C527 C528 1.384 . S
C527 H554 0.930 . S
C528 C523 1.407 . S
C528 C527 1.384 . S
C528 H555 0.929 . S
C529 O542 1.241 . S
C529 O543 1.273 . S
C530 O544 1.251 . S
C530 O545 1.268 . S
C531 Nd521 2.836 . S
C531 C532 1.498 . S
C531 O546 1.258 . S
C531 O547 1.239 . S
C532 C531 1.498 . S
C532 C533 1.366 . S
C532 C537 1.407 . S
C533 C532 1.366 . S
C533 C534 1.392 . S
C533 H556 0.930 . S
C534 C533 1.392 . S
C534 C535 1.398 . S
C534 H557 0.929 . S
C535 C534 1.398 . S
C535 C536 1.352 . S
C536 C535 1.352 . S
C536 C537 1.384 . S
C536 H558 0.930 . S
C537 C532 1.407 . S
C537 C536 1.384 . S
C537 H559 0.929 . S
C538 O548 1.241 . S
C538 O549 1.273 . S
C539 O550 1.251 . S
C539 O551 1.268 . S
O540 Nd520 2.500 . S
O540 C522 1.258 . S
O541 Nd520 2.492 . S
O541 C522 1.239 . S
O542 Nd520 2.487 . S
O542 C529 1.241 . S
O543 Nd520 2.682 . S
O543 Nd521 2.414 . S
O543 C529 1.273 . S
O544 Nd520 2.410 . S
O544 C530 1.251 . S
O545 Nd521 2.424 . S
O545 C530 1.268 . S
O546 Nd521 2.500 . S
O546 C531 1.258 . S
O547 Nd521 2.492 . S
O547 C531 1.239 . S
O548 Nd521 2.487 . S
O548 C538 1.241 . S
O549 Nd520 2.414 . S
O549 Nd521 2.682 . S
O549 C538 1.273 . S
O550 Nd521 2.410 . S
O550 C539 1.251 . S
O551 Nd520 2.424 . S
O551 C539 1.268 . S
H552 C524 0.930 . S
H553 C525 0.929 . S
H554 C527 0.930 . S
H555 C528 0.929 . S
H556 C533 0.930 . S
H557 C534 0.929 . S
H558 C536 0.930 . S
H559 C537 0.929 . S
Nd560 C562 2.836 . S
Nd560 O580 2.500 . S
Nd560 O581 2.492 . S
Nd560 O582 2.487 . S
Nd560 O583 2.682 . S
Nd560 O584 2.410 . S
Nd560 O589 2.414 . S
Nd560 O591 2.424 . S
Nd561 C571 2.836 . S
Nd561 O583 2.414 . S
Nd561 O585 2.424 . S
Nd561 O586 2.500 . S
Nd561 O587 2.492 . S
Nd561 O588 2.487 . S
Nd561 O589 2.682 . S
Nd561 O590 2.410 . S
C562 Nd560 2.836 . S
C562 C563 1.498 . S
C562 O580 1.258 . S
C562 O581 1.239 . S
C563 C562 1.498 . S
C563 C564 1.366 . S
C563 C568 1.407 . S
C564 C563 1.366 . S
C564 C565 1.392 . S
C564 H592 0.930 . S
C565 C564 1.392 . S
C565 C566 1.398 . S
C565 H593 0.929 . S
C566 C565 1.398 . S
C566 C567 1.352 . S
C567 C566 1.352 . S
C567 C568 1.384 . S
C567 H594 0.930 . S
C568 C563 1.407 . S
C568 C567 1.384 . S
C568 H595 0.929 . S
C569 O582 1.241 . S
C569 O583 1.273 . S
C570 O584 1.251 . S
C570 O585 1.268 . S
C571 Nd561 2.836 . S
C571 C572 1.498 . S
C571 O586 1.258 . S
C571 O587 1.239 . S
C572 C571 1.498 . S
C572 C573 1.366 . S
C572 C577 1.407 . S
C573 C572 1.366 . S
C573 C574 1.392 . S
C573 H596 0.930 . S
C574 C573 1.392 . S
C574 C575 1.398 . S
C574 H597 0.929 . S
C575 C574 1.398 . S
C575 C576 1.352 . S
C576 C575 1.352 . S
C576 C577 1.384 . S
C576 H598 0.930 . S
C577 C572 1.407 . S
C577 C576 1.384 . S
C577 H599 0.929 . S
C578 O588 1.241 . S
C578 O589 1.273 . S
C579 O590 1.251 . S
C579 O591 1.268 . S
O580 Nd560 2.500 . S
O580 C562 1.258 . S
O581 Nd560 2.492 . S
O581 C562 1.239 . S
O582 Nd560 2.487 . S
O582 C569 1.241 . S
O583 Nd560 2.682 . S
O583 Nd561 2.414 . S
O583 C569 1.273 . S
O584 Nd560 2.410 . S
O584 C570 1.251 . S
O585 Nd561 2.424 . S
O585 C570 1.268 . S
O586 Nd561 2.500 . S
O586 C571 1.258 . S
O587 Nd561 2.492 . S
O587 C571 1.239 . S
O588 Nd561 2.487 . S
O588 C578 1.241 . S
O589 Nd560 2.414 . S
O589 Nd561 2.682 . S
O589 C578 1.273 . S
O590 Nd561 2.410 . S
O590 C579 1.251 . S
O591 Nd560 2.424 . S
O591 C579 1.268 . S
H592 C564 0.930 . S
H593 C565 0.929 . S
H594 C567 0.930 . S
H595 C568 0.929 . S
H596 C573 0.930 . S
H597 C574 0.929 . S
H598 C576 0.930 . S
H599 C577 0.929 . S
Nd600 C602 2.836 . S
Nd600 O620 2.500 . S
Nd600 O621 2.492 . S
Nd600 O622 2.487 . S
Nd600 O623 2.682 . S
Nd600 O624 2.410 . S
Nd600 O629 2.414 . S
Nd600 O631 2.424 . S
Nd601 C611 2.836 . S
Nd601 O623 2.414 . S
Nd601 O625 2.424 . S
Nd601 O626 2.500 . S
Nd601 O627 2.492 . S
Nd601 O628 2.487 . S
Nd601 O629 2.682 . S
Nd601 O630 2.410 . S
C602 Nd600 2.836 . S
C602 C603 1.498 . S
C602 O620 1.258 . S
C602 O621 1.239 . S
C603 C602 1.498 . S
C603 C604 1.366 . S
C603 C608 1.407 . S
C604 C603 1.366 . S
C604 C605 1.392 . S
C604 H632 0.930 . S
C605 C604 1.392 . S
C605 C606 1.398 . S
C605 H633 0.929 . S
C606 C605 1.398 . S
C606 C607 1.352 . S
C607 C606 1.352 . S
C607 C608 1.384 . S
C607 H634 0.930 . S
C608 C603 1.407 . S
C608 C607 1.384 . S
C608 H635 0.929 . S
C609 O622 1.241 . S
C609 O623 1.273 . S
C610 O624 1.251 . S
C610 O625 1.268 . S
C611 Nd601 2.836 . S
C611 C612 1.498 . S
C611 O626 1.258 . S
C611 O627 1.239 . S
C612 C611 1.498 . S
C612 C613 1.366 . S
C612 C617 1.407 . S
C613 C612 1.366 . S
C613 C614 1.392 . S
C613 H636 0.930 . S
C614 C613 1.392 . S
C614 C615 1.398 . S
C614 H637 0.929 . S
C615 C614 1.398 . S
C615 C616 1.352 . S
C616 C615 1.352 . S
C616 C617 1.384 . S
C616 H638 0.930 . S
C617 C612 1.407 . S
C617 C616 1.384 . S
C617 H639 0.929 . S
C618 O628 1.241 . S
C618 O629 1.273 . S
C619 O630 1.251 . S
C619 O631 1.268 . S
O620 Nd600 2.500 . S
O620 C602 1.258 . S
O621 Nd600 2.492 . S
O621 C602 1.239 . S
O622 Nd600 2.487 . S
O622 C609 1.241 . S
O623 Nd600 2.682 . S
O623 Nd601 2.414 . S
O623 C609 1.273 . S
O624 Nd600 2.410 . S
O624 C610 1.251 . S
O625 Nd601 2.424 . S
O625 C610 1.268 . S
O626 Nd601 2.500 . S
O626 C611 1.258 . S
O627 Nd601 2.492 . S
O627 C611 1.239 . S
O628 Nd601 2.487 . S
O628 C618 1.241 . S
O629 Nd600 2.414 . S
O629 Nd601 2.682 . S
O629 C618 1.273 . S
O630 Nd601 2.410 . S
O630 C619 1.251 . S
O631 Nd600 2.424 . S
O631 C619 1.268 . S
H632 C604 0.930 . S
H633 C605 0.929 . S
H634 C607 0.930 . S
H635 C608 0.929 . S
H636 C613 0.930 . S
H637 C614 0.929 . S
H638 C616 0.930 . S
H639 C617 0.929 . S
H640 C648 0.950 . S
H641 C653 0.950 . S
H642 C650 0.950 . S
H643 C652 0.950 . S
H644 C654 0.950 . S
H645 C656 0.950 . S
H646 C658 0.950 . S
H647 C659 0.950 . S
C648 H640 0.950 . S
C648 C649 1.386 . S
C648 C650 1.391 . S
C649 C648 1.386 . S
C649 C653 1.393 . S
C650 H642 0.950 . S
C650 C648 1.391 . S
C650 C651 1.400 . S
C651 C650 1.400 . S
C651 C652 1.398 . S
C651 C657 1.491 . S
C652 H643 0.950 . S
C652 C651 1.398 . S
C652 C653 1.391 . S
C653 H641 0.950 . S
C653 C649 1.393 . S
C653 C652 1.391 . S
C654 H644 0.950 . S
C654 C655 1.386 . S
C654 C656 1.391 . S
C655 C654 1.386 . S
C655 C659 1.393 . S
C656 H645 0.950 . S
C656 C654 1.391 . S
C656 C657 1.400 . S
C657 C651 1.491 . S
C657 C656 1.400 . S
C657 C658 1.398 . S
C658 H646 0.950 . S
C658 C657 1.398 . S
C658 C659 1.391 . S
C659 H647 0.950 . S
C659 C655 1.393 . S
C659 C658 1.391 . S
H660 C668 0.950 . S
H661 C673 0.950 . S
H662 C670 0.950 . S
H663 C672 0.950 . S
H664 C674 0.950 . S
H665 C676 0.950 . S
H666 C678 0.950 . S
H667 C679 0.950 . S
C668 H660 0.950 . S
C668 C669 1.386 . S
C668 C670 1.391 . S
C669 C668 1.386 . S
C669 C673 1.393 . S
C670 H662 0.950 . S
C670 C668 1.391 . S
C670 C671 1.400 . S
C671 C670 1.400 . S
C671 C672 1.398 . S
C671 C677 1.491 . S
C672 H663 0.950 . S
C672 C671 1.398 . S
C672 C673 1.391 . S
C673 H661 0.950 . S
C673 C669 1.393 . S
C673 C672 1.391 . S
C674 H664 0.950 . S
C674 C675 1.386 . S
C674 C676 1.391 . S
C675 C674 1.386 . S
C675 C679 1.393 . S
C676 H665 0.950 . S
C676 C674 1.391 . S
C676 C677 1.400 . S
C677 C671 1.491 . S
C677 C676 1.400 . S
C677 C678 1.398 . S
C678 H666 0.950 . S
C678 C677 1.398 . S
C678 C679 1.391 . S
C679 H667 0.950 . S
C679 C675 1.393 . S
C679 C678 1.391 . S
H680 C688 0.950 . S
H681 C693 0.950 . S
H682 C690 0.950 . S
H683 C692 0.950 . S
H684 C694 0.950 . S
H685 C696 0.950 . S
H686 C698 0.950 . S
H687 C699 0.950 . S
C688 H680 0.950 . S
C688 C689 1.386 . S
C688 C690 1.391 . S
C689 C688 1.386 . S
C689 C693 1.393 . S
C690 H682 0.950 . S
C690 C688 1.391 . S
C690 C691 1.400 . S
C691 C690 1.400 . S
C691 C692 1.398 . S
C691 C697 1.491 . S
C692 H683 0.950 . S
C692 C691 1.398 . S
C692 C693 1.391 . S
C693 H681 0.950 . S
C693 C689 1.393 . S
C693 C692 1.391 . S
C694 H684 0.950 . S
C694 C695 1.386 . S
C694 C696 1.391 . S
C695 C694 1.386 . S
C695 C699 1.393 . S
C696 H685 0.950 . S
C696 C694 1.391 . S
C696 C697 1.400 . S
C697 C691 1.491 . S
C697 C696 1.400 . S
C697 C698 1.398 . S
C698 H686 0.950 . S
C698 C697 1.398 . S
C698 C699 1.391 . S
C699 H687 0.950 . S
C699 C695 1.393 . S
C699 C698 1.391 . S
H700 C708 0.950 . S
H701 C713 0.950 . S
H702 C710 0.950 . S
H703 C712 0.950 . S
H704 C714 0.950 . S
H705 C716 0.950 . S
H706 C718 0.950 . S
H707 C719 0.950 . S
C708 H700 0.950 . S
C708 C709 1.386 . S
C708 C710 1.391 . S
C709 C708 1.386 . S
C709 C713 1.393 . S
C710 H702 0.950 . S
C710 C708 1.391 . S
C710 C711 1.400 . S
C711 C710 1.400 . S
C711 C712 1.398 . S
C711 C717 1.491 . S
C712 H703 0.950 . S
C712 C711 1.398 . S
C712 C713 1.391 . S
C713 H701 0.950 . S
C713 C709 1.393 . S
C713 C712 1.391 . S
C714 H704 0.950 . S
C714 C715 1.386 . S
C714 C716 1.391 . S
C715 C714 1.386 . S
C715 C719 1.393 . S
C716 H705 0.950 . S
C716 C714 1.391 . S
C716 C717 1.400 . S
C717 C711 1.491 . S
C717 C716 1.400 . S
C717 C718 1.398 . S
C718 H706 0.950 . S
C718 C717 1.398 . S
C718 C719 1.391 . S
C719 H707 0.950 . S
C719 C715 1.393 . S
C719 C718 1.391 . S
H720 C728 0.950 . S
H721 C733 0.950 . S
H722 C730 0.950 . S
H723 C732 0.950 . S
H724 C734 0.950 . S
H725 C736 0.950 . S
H726 C738 0.950 . S
H727 C739 0.950 . S
C728 H720 0.950 . S
C728 C729 1.386 . S
C728 C730 1.391 . S
C729 C728 1.386 . S
C729 C733 1.393 . S
C730 H722 0.950 . S
C730 C728 1.391 . S
C730 C731 1.400 . S
C731 C730 1.400 . S
C731 C732 1.398 . S
C731 C737 1.491 . S
C732 H723 0.950 . S
C732 C731 1.398 . S
C732 C733 1.391 . S
C733 H721 0.950 . S
C733 C729 1.393 . S
C733 C732 1.391 . S
C734 H724 0.950 . S
C734 C735 1.386 . S
C734 C736 1.391 . S
C735 C734 1.386 . S
C735 C739 1.393 . S
C736 H725 0.950 . S
C736 C734 1.391 . S
C736 C737 1.400 . S
C737 C731 1.491 . S
C737 C736 1.400 . S
C737 C738 1.398 . S
C738 H726 0.950 . S
C738 C737 1.398 . S
C738 C739 1.391 . S
C739 H727 0.950 . S
C739 C735 1.393 . S
C739 C738 1.391 . S
H740 C748 0.950 . S
H741 C753 0.950 . S
H742 C750 0.950 . S
H743 C752 0.950 . S
H744 C754 0.950 . S
H745 C756 0.950 . S
H746 C758 0.950 . S
H747 C759 0.950 . S
C748 H740 0.950 . S
C748 C749 1.386 . S
C748 C750 1.391 . S
C749 C748 1.386 . S
C749 C753 1.393 . S
C750 H742 0.950 . S
C750 C748 1.391 . S
C750 C751 1.400 . S
C751 C750 1.400 . S
C751 C752 1.398 . S
C751 C757 1.491 . S
C752 H743 0.950 . S
C752 C751 1.398 . S
C752 C753 1.391 . S
C753 H741 0.950 . S
C753 C749 1.393 . S
C753 C752 1.391 . S
C754 H744 0.950 . S
C754 C755 1.386 . S
C754 C756 1.391 . S
C755 C754 1.386 . S
C755 C759 1.393 . S
C756 H745 0.950 . S
C756 C754 1.391 . S
C756 C757 1.400 . S
C757 C751 1.491 . S
C757 C756 1.400 . S
C757 C758 1.398 . S
C758 H746 0.950 . S
C758 C757 1.398 . S
C758 C759 1.391 . S
C759 H747 0.950 . S
C759 C755 1.393 . S
C759 C758 1.391 . S
H760 C768 0.950 . S
H761 C773 0.950 . S
H762 C770 0.950 . S
H763 C772 0.950 . S
H764 C774 0.950 . S
H765 C776 0.950 . S
H766 C778 0.950 . S
H767 C779 0.950 . S
C768 H760 0.950 . S
C768 C769 1.386 . S
C768 C770 1.391 . S
C769 C768 1.386 . S
C769 C773 1.393 . S
C770 H762 0.950 . S
C770 C768 1.391 . S
C770 C771 1.400 . S
C771 C770 1.400 . S
C771 C772 1.398 . S
C771 C777 1.491 . S
C772 H763 0.950 . S
C772 C771 1.398 . S
C772 C773 1.391 . S
C773 H761 0.950 . S
C773 C769 1.393 . S
C773 C772 1.391 . S
C774 H764 0.950 . S
C774 C775 1.386 . S
C774 C776 1.391 . S
C775 C774 1.386 . S
C775 C779 1.393 . S
C776 H765 0.950 . S
C776 C774 1.391 . S
C776 C777 1.400 . S
C777 C771 1.491 . S
C777 C776 1.400 . S
C777 C778 1.398 . S
C778 H766 0.950 . S
C778 C777 1.398 . S
C778 C779 1.391 . S
C779 H767 0.950 . S
C779 C775 1.393 . S
C779 C778 1.391 . S
H780 C788 0.950 . S
H781 C793 0.950 . S
H782 C790 0.950 . S
H783 C792 0.950 . S
H784 C794 0.950 . S
H785 C796 0.950 . S
H786 C798 0.950 . S
H787 C799 0.950 . S
C788 H780 0.950 . S
C788 C789 1.386 . S
C788 C790 1.391 . S
C789 C788 1.386 . S
C789 C793 1.393 . S
C790 H782 0.950 . S
C790 C788 1.391 . S
C790 C791 1.400 . S
C791 C790 1.400 . S
C791 C792 1.398 . S
C791 C797 1.491 . S
C792 H783 0.950 . S
C792 C791 1.398 . S
C792 C793 1.391 . S
C793 H781 0.950 . S
C793 C789 1.393 . S
C793 C792 1.391 . S
C794 H784 0.950 . S
C794 C795 1.386 . S
C794 C796 1.391 . S
C795 C794 1.386 . S
C795 C799 1.393 . S
C796 H785 0.950 . S
C796 C794 1.391 . S
C796 C797 1.400 . S
C797 C791 1.491 . S
C797 C796 1.400 . S
C797 C798 1.398 . S
C798 H786 0.950 . S
C798 C797 1.398 . S
C798 C799 1.391 . S
C799 H787 0.950 . S
C799 C795 1.393 . S
C799 C798 1.391 . S
H800 C808 0.950 . S
H801 C813 0.950 . S
H802 C810 0.950 . S
H803 C812 0.950 . S
H804 C814 0.950 . S
H805 C816 0.950 . S
H806 C818 0.950 . S
H807 C819 0.950 . S
C808 H800 0.950 . S
C808 C809 1.386 . S
C808 C810 1.391 . S
C809 C808 1.386 . S
C809 C813 1.393 1_565 S
C810 H802 0.950 . S
C810 C808 1.391 . S
C810 C811 1.400 . S
C811 C810 1.400 . S
C811 C812 1.398 1_565 S
C811 C817 1.491 1_565 S
C812 H803 0.950 . S
C812 C811 1.398 1_545 S
C812 C813 1.391 . S
C813 H801 0.950 . S
C813 C809 1.393 1_545 S
C813 C812 1.391 . S
C814 H804 0.950 . S
C814 C815 1.386 . S
C814 C816 1.391 . S
C815 C814 1.386 . S
C815 C819 1.393 1_545 S
C816 H805 0.950 . S
C816 C814 1.391 . S
C816 C817 1.400 . S
C817 C811 1.491 1_545 S
C817 C816 1.400 . S
C817 C818 1.398 1_545 S
C818 H806 0.950 . S
C818 C817 1.398 1_565 S
C818 C819 1.391 . S
C819 H807 0.950 . S
C819 C815 1.393 1_565 S
C819 C818 1.391 . S
H820 C828 0.950 . S
H821 C833 0.950 . S
H822 C830 0.950 . S
H823 C832 0.950 . S
H824 C834 0.950 . S
H825 C836 0.950 . S
H826 C838 0.950 . S
H827 C839 0.950 . S
C828 H820 0.950 . S
C828 C829 1.386 . S
C828 C830 1.391 . S
C829 C828 1.386 . S
C829 C833 1.393 . S
C830 H822 0.950 . S
C830 C828 1.391 . S
C830 C831 1.400 . S
C831 C830 1.400 . S
C831 C832 1.398 . S
C831 C837 1.491 1_545 S
C832 H823 0.950 . S
C832 C831 1.398 . S
C832 C833 1.391 . S
C833 H821 0.950 . S
C833 C829 1.393 . S
C833 C832 1.391 . S
C834 H824 0.950 . S
C834 C835 1.386 . S
C834 C836 1.391 . S
C835 C834 1.386 . S
C835 C839 1.393 . S
C836 H825 0.950 . S
C836 C834 1.391 . S
C836 C837 1.400 . S
C837 C831 1.491 1_565 S
C837 C836 1.400 . S
C837 C838 1.398 . S
C838 H826 0.950 . S
C838 C837 1.398 . S
C838 C839 1.391 . S
C839 H827 0.950 . S
C839 C835 1.393 . S
C839 C838 1.391 . S
H840 C848 0.950 . S
H841 C853 0.950 . S
H842 C850 0.950 . S
H843 C852 0.950 . S
H844 C854 0.950 . S
H845 C856 0.950 . S
H846 C858 0.950 . S
H847 C859 0.950 . S
C848 H840 0.950 . S
C848 C849 1.386 . S
C848 C850 1.391 . S
C849 C848 1.386 . S
C849 C853 1.393 . S
C850 H842 0.950 . S
C850 C848 1.391 . S
C850 C851 1.400 . S
C851 C850 1.400 . S
C851 C852 1.398 . S
C851 C857 1.491 1_545 S
C852 H843 0.950 . S
C852 C851 1.398 . S
C852 C853 1.391 . S
C853 H841 0.950 . S
C853 C849 1.393 . S
C853 C852 1.391 . S
C854 H844 0.950 . S
C854 C855 1.386 . S
C854 C856 1.391 . S
C855 C854 1.386 . S
C855 C859 1.393 . S
C856 H845 0.950 . S
C856 C854 1.391 . S
C856 C857 1.400 . S
C857 C851 1.491 1_565 S
C857 C856 1.400 . S
C857 C858 1.398 . S
C858 H846 0.950 . S
C858 C857 1.398 . S
C858 C859 1.391 . S
C859 H847 0.950 . S
C859 C855 1.393 . S
C859 C858 1.391 . S
H860 C868 0.950 1_565 S
H861 C873 0.950 . S
H862 C870 0.950 . S
H863 C872 0.950 . S
H864 C874 0.950 1_545 S
H865 C876 0.950 . S
H866 C878 0.950 . S
H867 C879 0.950 . S
C868 H860 0.950 1_545 S
C868 C869 1.386 . S
C868 C870 1.391 1_545 S
C869 C868 1.386 . S
C869 C873 1.393 . S
C870 H862 0.950 . S
C870 C868 1.391 1_565 S
C870 C871 1.400 1_565 S
C871 C870 1.400 1_545 S
C871 C872 1.398 . S
C871 C877 1.491 1_545 S
C872 H863 0.950 . S
C872 C871 1.398 . S
C872 C873 1.391 . S
C873 H861 0.950 . S
C873 C869 1.393 . S
C873 C872 1.391 . S
C874 H864 0.950 1_565 S
C874 C875 1.386 . S
C874 C876 1.391 1_565 S
C875 C874 1.386 . S
C875 C879 1.393 . S
C876 H865 0.950 . S
C876 C874 1.391 1_545 S
C876 C877 1.400 1_545 S
C877 C871 1.491 1_565 S
C877 C876 1.400 1_565 S
C877 C878 1.398 . S
C878 H866 0.950 . S
C878 C877 1.398 . S
C878 C879 1.391 . S
C879 H867 0.950 . S
C879 C875 1.393 . S
C879 C878 1.391 . S
H880 C888 0.950 . S
H881 C893 0.950 . S
H882 C890 0.950 . S
H883 C892 0.950 . S
H884 C894 0.950 . S
H885 C896 0.950 . S
H886 C898 0.950 . S
H887 C899 0.950 . S
C888 H880 0.950 . S
C888 C889 1.386 . S
C888 C890 1.391 . S
C889 C888 1.386 . S
C889 C893 1.393 . S
C890 H882 0.950 . S
C890 C888 1.391 . S
C890 C891 1.400 . S
C891 C890 1.400 . S
C891 C892 1.398 . S
C891 C897 1.491 . S
C892 H883 0.950 . S
C892 C891 1.398 . S
C892 C893 1.391 . S
C893 H881 0.950 . S
C893 C889 1.393 . S
C893 C892 1.391 . S
C894 H884 0.950 . S
C894 C895 1.386 . S
C894 C896 1.391 . S
C895 C894 1.386 . S
C895 C899 1.393 . S
C896 H885 0.950 . S
C896 C894 1.391 . S
C896 C897 1.400 . S
C897 C891 1.491 . S
C897 C896 1.400 . S
C897 C898 1.398 . S
C898 H886 0.950 . S
C898 C897 1.398 . S
C898 C899 1.391 . S
C899 H887 0.950 . S
C899 C895 1.393 . S
C899 C898 1.391 . S
H900 C908 0.950 . S
H901 C913 0.950 . S
H902 C910 0.950 . S
H903 C912 0.950 . S
H904 C914 0.950 . S
H905 C916 0.950 . S
H906 C918 0.950 . S
H907 C919 0.950 . S
C908 H900 0.950 . S
C908 C909 1.386 . S
C908 C910 1.391 . S
C909 C908 1.386 . S
C909 C913 1.393 . S
C910 H902 0.950 . S
C910 C908 1.391 . S
C910 C911 1.400 . S
C911 C910 1.400 . S
C911 C912 1.398 . S
C911 C917 1.491 . S
C912 H903 0.950 . S
C912 C911 1.398 . S
C912 C913 1.391 . S
C913 H901 0.950 . S
C913 C909 1.393 . S
C913 C912 1.391 . S
C914 H904 0.950 . S
C914 C915 1.386 . S
C914 C916 1.391 . S
C915 C914 1.386 . S
C915 C919 1.393 . S
C916 H905 0.950 . S
C916 C914 1.391 . S
C916 C917 1.400 . S
C917 C911 1.491 . S
C917 C916 1.400 . S
C917 C918 1.398 . S
C918 H906 0.950 . S
C918 C917 1.398 . S
C918 C919 1.391 . S
C919 H907 0.950 . S
C919 C915 1.393 . S
C919 C918 1.391 . S
H920 C928 0.950 . S
H921 C933 0.950 . S
H922 C930 0.950 . S
H923 C932 0.950 . S
H924 C934 0.950 . S
H925 C936 0.950 . S
H926 C938 0.950 . S
H927 C939 0.950 . S
C928 H920 0.950 . S
C928 C929 1.386 . S
C928 C930 1.391 . S
C929 C928 1.386 . S
C929 C933 1.393 . S
C930 H922 0.950 . S
C930 C928 1.391 . S
C930 C931 1.400 . S
C931 C930 1.400 . S
C931 C932 1.398 . S
C931 C937 1.491 . S
C932 H923 0.950 . S
C932 C931 1.398 . S
C932 C933 1.391 . S
C933 H921 0.950 . S
C933 C929 1.393 . S
C933 C932 1.391 . S
C934 H924 0.950 . S
C934 C935 1.386 . S
C934 C936 1.391 . S
C935 C934 1.386 . S
C935 C939 1.393 . S
C936 H925 0.950 . S
C936 C934 1.391 . S
C936 C937 1.400 . S
C937 C931 1.491 . S
C937 C936 1.400 . S
C937 C938 1.398 . S
C938 H926 0.950 . S
C938 C937 1.398 . S
C938 C939 1.391 . S
C939 H927 0.950 . S
C939 C935 1.393 . S
C939 C938 1.391 . S
H940 C948 0.950 . S
H941 C953 0.950 . S
H942 C950 0.950 . S
H943 C952 0.950 . S
H944 C954 0.950 . S
H945 C956 0.950 . S
H946 C958 0.950 . S
H947 C959 0.950 . S
C948 H940 0.950 . S
C948 C949 1.386 . S
C948 C950 1.391 . S
C949 C948 1.386 . S
C949 C953 1.393 . S
C950 H942 0.950 . S
C950 C948 1.391 . S
C950 C951 1.400 . S
C951 C950 1.400 . S
C951 C952 1.398 . S
C951 C957 1.491 . S
C952 H943 0.950 . S
C952 C951 1.398 . S
C952 C953 1.391 . S
C953 H941 0.950 . S
C953 C949 1.393 . S
C953 C952 1.391 . S
C954 H944 0.950 . S
C954 C955 1.386 . S
C954 C956 1.391 . S
C955 C954 1.386 . S
C955 C959 1.393 . S
C956 H945 0.950 . S
C956 C954 1.391 . S
C956 C957 1.400 . S
C957 C951 1.491 . S
C957 C956 1.400 . S
C957 C958 1.398 . S
C958 H946 0.950 . S
C958 C957 1.398 . S
C958 C959 1.391 . S
C959 H947 0.950 . S
C959 C955 1.393 . S
C959 C958 1.391 . S
H960 C968 0.950 . S
H961 C973 0.950 . S
H962 C970 0.950 . S
H963 C972 0.950 . S
H964 C974 0.950 . S
H965 C976 0.950 . S
H966 C978 0.950 . S
H967 C979 0.950 . S
C968 H960 0.950 . S
C968 C969 1.386 . S
C968 C970 1.391 . S
C969 C968 1.386 . S
C969 C973 1.393 . S
C970 H962 0.950 . S
C970 C968 1.391 . S
C970 C971 1.400 . S
C971 C970 1.400 . S
C971 C972 1.398 . S
C971 C977 1.491 1_556 S
C972 H963 0.950 . S
C972 C971 1.398 . S
C972 C973 1.391 . S
C973 H961 0.950 . S
C973 C969 1.393 . S
C973 C972 1.391 . S
C974 H964 0.950 . S
C974 C975 1.386 . S
C974 C976 1.391 . S
C975 C974 1.386 . S
C975 C979 1.393 . S
C976 H965 0.950 . S
C976 C974 1.391 . S
C976 C977 1.400 . S
C977 C971 1.491 1_554 S
C977 C976 1.400 . S
C977 C978 1.398 . S
C978 H966 0.950 . S
C978 C977 1.398 . S
C978 C979 1.391 . S
C979 H967 0.950 . S
C979 C975 1.393 . S
C979 C978 1.391 . S
H980 C988 0.950 . S
H981 C993 0.950 . S
H982 C990 0.950 . S
H983 C992 0.950 . S
H984 C994 0.950 . S
H985 C996 0.950 . S
H986 C998 0.950 . S
H987 C999 0.950 . S
C988 H980 0.950 . S
C988 C989 1.386 . S
C988 C990 1.391 . S
C989 C988 1.386 . S
C989 C993 1.393 . S
C990 H982 0.950 . S
C990 C988 1.391 . S
C990 C991 1.400 . S
C991 C990 1.400 . S
C991 C992 1.398 . S
C991 C997 1.491 1_556 S
C992 H983 0.950 . S
C992 C991 1.398 . S
C992 C993 1.391 . S
C993 H981 0.950 . S
C993 C989 1.393 . S
C993 C992 1.391 . S
C994 H984 0.950 . S
C994 C995 1.386 . S
C994 C996 1.391 . S
C995 C994 1.386 . S
C995 C999 1.393 . S
C996 H985 0.950 . S
C996 C994 1.391 . S
C996 C997 1.400 . S
C997 C991 1.491 1_554 S
C997 C996 1.400 . S
C997 C998 1.398 . S
C998 H986 0.950 . S
C998 C997 1.398 . S
C998 C999 1.391 . S
C999 H987 0.950 . S
C999 C995 1.393 . S
C999 C998 1.391 . S
H1000 C1008 0.950 . S
H1001 C1013 0.950 . S
H1002 C1010 0.950 . S
H1003 C1012 0.950 . S
H1004 C1014 0.950 . S
H1005 C1016 0.950 . S
H1006 C1018 0.950 . S
H1007 C1019 0.950 . S
C1008 H1000 0.950 . S
C1008 C1009 1.386 . S
C1008 C1010 1.391 . S
C1009 C1008 1.386 . S
C1009 C1013 1.393 . S
C1010 H1002 0.950 . S
C1010 C1008 1.391 . S
C1010 C1011 1.400 . S
C1011 C1010 1.400 . S
C1011 C1012 1.398 . S
C1011 C1017 1.491 . S
C1012 H1003 0.950 . S
C1012 C1011 1.398 . S
C1012 C1013 1.391 . S
C1013 H1001 0.950 . S
C1013 C1009 1.393 . S
C1013 C1012 1.391 . S
C1014 H1004 0.950 . S
C1014 C1015 1.386 . S
C1014 C1016 1.391 . S
C1015 C1014 1.386 . S
C1015 C1019 1.393 . S
C1016 H1005 0.950 . S
C1016 C1014 1.391 . S
C1016 C1017 1.400 . S
C1017 C1011 1.491 . S
C1017 C1016 1.400 . S
C1017 C1018 1.398 . S
C1018 H1006 0.950 . S
C1018 C1017 1.398 . S
C1018 C1019 1.391 . S
C1019 H1007 0.950 . S
C1019 C1015 1.393 . S
C1019 C1018 1.391 . S
H1020 C1028 0.950 . S
H1021 C1033 0.950 . S
H1022 C1030 0.950 . S
H1023 C1032 0.950 . S
H1024 C1034 0.950 . S
H1025 C1036 0.950 . S
H1026 C1038 0.950 . S
H1027 C1039 0.950 . S
C1028 H1020 0.950 . S
C1028 C1029 1.386 . S
C1028 C1030 1.391 . S
C1029 C1028 1.386 . S
C1029 C1033 1.393 . S
C1030 H1022 0.950 . S
C1030 C1028 1.391 . S
C1030 C1031 1.400 . S
C1031 C1030 1.400 . S
C1031 C1032 1.398 . S
C1031 C1037 1.491 . S
C1032 H1023 0.950 . S
C1032 C1031 1.398 . S
C1032 C1033 1.391 . S
C1033 H1021 0.950 . S
C1033 C1029 1.393 . S
C1033 C1032 1.391 . S
C1034 H1024 0.950 . S
C1034 C1035 1.386 . S
C1034 C1036 1.391 . S
C1035 C1034 1.386 . S
C1035 C1039 1.393 . S
C1036 H1025 0.950 . S
C1036 C1034 1.391 . S
C1036 C1037 1.400 . S
C1037 C1031 1.491 . S
C1037 C1036 1.400 . S
C1037 C1038 1.398 . S
C1038 H1026 0.950 . S
C1038 C1037 1.398 . S
C1038 C1039 1.391 . S
C1039 H1027 0.950 . S
C1039 C1035 1.393 . S
C1039 C1038 1.391 . S
H1040 C1048 0.950 . S
H1041 C1053 0.950 . S
H1042 C1050 0.950 . S
H1043 C1052 0.950 . S
H1044 C1054 0.950 . S
H1045 C1056 0.950 . S
H1046 C1058 0.950 . S
H1047 C1059 0.950 . S
C1048 H1040 0.950 . S
C1048 C1049 1.386 . S
C1048 C1050 1.391 . S
C1049 C1048 1.386 . S
C1049 C1053 1.393 . S
C1050 H1042 0.950 . S
C1050 C1048 1.391 . S
C1050 C1051 1.400 . S
C1051 C1050 1.400 . S
C1051 C1052 1.398 . S
C1051 C1057 1.491 1_554 S
C1052 H1043 0.950 . S
C1052 C1051 1.398 . S
C1052 C1053 1.391 . S
C1053 H1041 0.950 . S
C1053 C1049 1.393 . S
C1053 C1052 1.391 . S
C1054 H1044 0.950 . S
C1054 C1055 1.386 . S
C1054 C1056 1.391 . S
C1055 C1054 1.386 . S
C1055 C1059 1.393 . S
C1056 H1045 0.950 . S
C1056 C1054 1.391 . S
C1056 C1057 1.400 . S
C1057 C1051 1.491 1_556 S
C1057 C1056 1.400 . S
C1057 C1058 1.398 . S
C1058 H1046 0.950 . S
C1058 C1057 1.398 . S
C1058 C1059 1.391 . S
C1059 H1047 0.950 . S
C1059 C1055 1.393 . S
C1059 C1058 1.391 . S
H1060 C1068 0.950 . S
H1061 C1073 0.950 . S
H1062 C1070 0.950 . S
H1063 C1072 0.950 . S
H1064 C1074 0.950 . S
H1065 C1076 0.950 . S
H1066 C1078 0.950 . S
H1067 C1079 0.950 . S
C1068 H1060 0.950 . S
C1068 C1069 1.386 . S
C1068 C1070 1.391 . S
C1069 C1068 1.386 . S
C1069 C1073 1.393 . S
C1070 H1062 0.950 . S
C1070 C1068 1.391 . S
C1070 C1071 1.400 . S
C1071 C1070 1.400 . S
C1071 C1072 1.398 . S
C1071 C1077 1.491 1_556 S
C1072 H1063 0.950 . S
C1072 C1071 1.398 . S
C1072 C1073 1.391 . S
C1073 H1061 0.950 . S
C1073 C1069 1.393 . S
C1073 C1072 1.391 . S
C1074 H1064 0.950 . S
C1074 C1075 1.386 . S
C1074 C1076 1.391 . S
C1075 C1074 1.386 . S
C1075 C1079 1.393 . S
C1076 H1065 0.950 . S
C1076 C1074 1.391 . S
C1076 C1077 1.400 . S
C1077 C1071 1.491 1_554 S
C1077 C1076 1.400 . S
C1077 C1078 1.398 . S
C1078 H1066 0.950 . S
C1078 C1077 1.398 . S
C1078 C1079 1.391 . S
C1079 H1067 0.950 . S
C1079 C1075 1.393 . S
C1079 C1078 1.391 . S
H1080 C1088 0.950 . S
H1081 C1093 0.950 . S
H1082 C1090 0.950 . S
H1083 C1092 0.950 . S
H1084 C1094 0.950 . S
H1085 C1096 0.950 . S
H1086 C1098 0.950 . S
H1087 C1099 0.950 . S
C1088 H1080 0.950 . S
C1088 C1089 1.386 . S
C1088 C1090 1.391 . S
C1089 C1088 1.386 . S
C1089 C1093 1.393 . S
C1090 H1082 0.950 . S
C1090 C1088 1.391 . S
C1090 C1091 1.400 . S
C1091 C1090 1.400 . S
C1091 C1092 1.398 . S
C1091 C1097 1.491 . S
C1092 H1083 0.950 . S
C1092 C1091 1.398 . S
C1092 C1093 1.391 . S
C1093 H1081 0.950 . S
C1093 C1089 1.393 . S
C1093 C1092 1.391 . S
C1094 H1084 0.950 . S
C1094 C1095 1.386 . S
C1094 C1096 1.391 . S
C1095 C1094 1.386 . S
C1095 C1099 1.393 . S
C1096 H1085 0.950 . S
C1096 C1094 1.391 . S
C1096 C1097 1.400 . S
C1097 C1091 1.491 . S
C1097 C1096 1.400 . S
C1097 C1098 1.398 . S
C1098 H1086 0.950 . S
C1098 C1097 1.398 . S
C1098 C1099 1.391 . S
C1099 H1087 0.950 . S
C1099 C1095 1.393 . S
C1099 C1098 1.391 . S
H1100 C1108 0.950 . S
H1101 C1113 0.950 . S
H1102 C1110 0.950 . S
H1103 C1112 0.950 . S
H1104 C1114 0.950 . S
H1105 C1116 0.950 . S
H1106 C1118 0.950 . S
H1107 C1119 0.950 . S
C1108 H1100 0.950 . S
C1108 C1109 1.386 . S
C1108 C1110 1.391 . S
C1109 C1108 1.386 . S
C1109 C1113 1.393 . S
C1110 H1102 0.950 . S
C1110 C1108 1.391 . S
C1110 C1111 1.400 . S
C1111 C1110 1.400 . S
C1111 C1112 1.398 . S
C1111 C1117 1.491 . S
C1112 H1103 0.950 . S
C1112 C1111 1.398 . S
C1112 C1113 1.391 . S
C1113 H1101 0.950 . S
C1113 C1109 1.393 . S
C1113 C1112 1.391 . S
C1114 H1104 0.950 . S
C1114 C1115 1.386 . S
C1114 C1116 1.391 . S
C1115 C1114 1.386 . S
C1115 C1119 1.393 . S
C1116 H1105 0.950 . S
C1116 C1114 1.391 . S
C1116 C1117 1.400 . S
C1117 C1111 1.491 . S
C1117 C1116 1.400 . S
C1117 C1118 1.398 . S
C1118 H1106 0.950 . S
C1118 C1117 1.398 . S
C1118 C1119 1.391 . S
C1119 H1107 0.950 . S
C1119 C1115 1.393 . S
C1119 C1118 1.391 . S
H1120 C1128 0.950 . S
H1121 C1133 0.950 . S
H1122 C1130 0.950 . S
H1123 C1132 0.950 . S
H1124 C1134 0.950 . S
H1125 C1136 0.950 . S
H1126 C1138 0.950 . S
H1127 C1139 0.950 . S
C1128 H1120 0.950 . S
C1128 C1129 1.386 . S
C1128 C1130 1.391 1_545 S
C1129 C1128 1.386 . S
C1129 C1133 1.393 . S
C1130 H1122 0.950 . S
C1130 C1128 1.391 1_565 S
C1130 C1131 1.400 1_565 S
C1131 C1130 1.400 1_545 S
C1131 C1132 1.398 . S
C1131 C1137 1.491 1_645 S
C1132 H1123 0.950 . S
C1132 C1131 1.398 . S
C1132 C1133 1.391 . S
C1133 H1121 0.950 . S
C1133 C1129 1.393 . S
C1133 C1132 1.391 . S
C1134 H1124 0.950 . S
C1134 C1135 1.386 . S
C1134 C1136 1.391 1_565 S
C1135 C1134 1.386 . S
C1135 C1139 1.393 . S
C1136 H1125 0.950 . S
C1136 C1134 1.391 1_545 S
C1136 C1137 1.400 1_545 S
C1137 C1131 1.491 1_465 S
C1137 C1136 1.400 1_565 S
C1137 C1138 1.398 . S
C1138 H1126 0.950 . S
C1138 C1137 1.398 . S
C1138 C1139 1.391 . S
C1139 H1127 0.950 . S
C1139 C1135 1.393 . S
C1139 C1138 1.391 . S
H1140 C1148 0.950 . S
H1141 C1153 0.950 . S
H1142 C1150 0.950 . S
H1143 C1152 0.950 . S
H1144 C1154 0.950 . S
H1145 C1156 0.950 . S
H1146 C1158 0.950 . S
H1147 C1159 0.950 . S
C1148 H1140 0.950 . S
C1148 C1149 1.386 . S
C1148 C1150 1.391 . S
C1149 C1148 1.386 . S
C1149 C1153 1.393 1_565 S
C1150 H1142 0.950 . S
C1150 C1148 1.391 . S
C1150 C1151 1.400 . S
C1151 C1150 1.400 . S
C1151 C1152 1.398 1_565 S
C1151 C1157 1.491 1_665 S
C1152 H1143 0.950 . S
C1152 C1151 1.398 1_545 S
C1152 C1153 1.391 . S
C1153 H1141 0.950 . S
C1153 C1149 1.393 1_545 S
C1153 C1152 1.391 . S
C1154 H1144 0.950 . S
C1154 C1155 1.386 . S
C1154 C1156 1.391 . S
C1155 C1154 1.386 . S
C1155 C1159 1.393 1_545 S
C1156 H1145 0.950 . S
C1156 C1154 1.391 . S
C1156 C1157 1.400 . S
C1157 C1151 1.491 1_445 S
C1157 C1156 1.400 . S
C1157 C1158 1.398 1_545 S
C1158 H1146 0.950 . S
C1158 C1157 1.398 1_565 S
C1158 C1159 1.391 . S
C1159 H1147 0.950 . S
C1159 C1155 1.393 1_565 S
C1159 C1158 1.391 . S
H1160 C1168 0.950 . S
H1161 C1173 0.950 . S
H1162 C1170 0.950 1_545 S
H1163 C1172 0.950 . S
H1164 C1174 0.950 . S
H1165 C1176 0.950 1_565 S
H1166 C1178 0.950 . S
H1167 C1179 0.950 . S
C1168 H1160 0.950 . S
C1168 C1169 1.386 . S
C1168 C1170 1.391 . S
C1169 C1168 1.386 . S
C1169 C1173 1.393 . S
C1170 H1162 0.950 1_565 S
C1170 C1168 1.391 . S
C1170 C1171 1.400 . S
C1171 C1170 1.400 . S
C1171 C1172 1.398 . S
C1171 C1177 1.491 1_465 S
C1172 H1163 0.950 . S
C1172 C1171 1.398 . S
C1172 C1173 1.391 . S
C1173 H1161 0.950 . S
C1173 C1169 1.393 . S
C1173 C1172 1.391 . S
C1174 H1164 0.950 . S
C1174 C1175 1.386 . S
C1174 C1176 1.391 . S
C1175 C1174 1.386 . S
C1175 C1179 1.393 . S
C1176 H1165 0.950 1_545 S
C1176 C1174 1.391 . S
C1176 C1177 1.400 . S
C1177 C1171 1.491 1_645 S
C1177 C1176 1.400 . S
C1177 C1178 1.398 . S
C1178 H1166 0.950 . S
C1178 C1177 1.398 . S
C1178 C1179 1.391 . S
C1179 H1167 0.950 . S
C1179 C1175 1.393 . S
C1179 C1178 1.391 . S
H1180 C1188 0.950 . S
H1181 C1193 0.950 . S
H1182 C1190 0.950 1_545 S
H1183 C1192 0.950 . S
H1184 C1194 0.950 . S
H1185 C1196 0.950 1_565 S
H1186 C1198 0.950 . S
H1187 C1199 0.950 . S
C1188 H1180 0.950 . S
C1188 C1189 1.386 . S
C1188 C1190 1.391 . S
C1189 C1188 1.386 . S
C1189 C1193 1.393 . S
C1190 H1182 0.950 1_565 S
C1190 C1188 1.391 . S
C1190 C1191 1.400 . S
C1191 C1190 1.400 . S
C1191 C1192 1.398 . S
C1191 C1197 1.491 1_665 S
C1192 H1183 0.950 . S
C1192 C1191 1.398 . S
C1192 C1193 1.391 . S
C1193 H1181 0.950 . S
C1193 C1189 1.393 . S
C1193 C1192 1.391 . S
C1194 H1184 0.950 . S
C1194 C1195 1.386 . S
C1194 C1196 1.391 . S
C1195 C1194 1.386 . S
C1195 C1199 1.393 . S
C1196 H1185 0.950 1_545 S
C1196 C1194 1.391 . S
C1196 C1197 1.400 . S
C1197 C1191 1.491 1_445 S
C1197 C1196 1.400 . S
C1197 C1198 1.398 . S
C1198 H1186 0.950 . S
C1198 C1197 1.398 . S
C1198 C1199 1.391 . S
C1199 H1187 0.950 . S
C1199 C1195 1.393 . S
C1199 C1198 1.391 . S
H1200 C1208 0.950 . S
H1201 C1213 0.950 . S
H1202 C1210 0.950 . S
H1203 C1212 0.950 . S
H1204 C1214 0.950 . S
H1205 C1216 0.950 . S
H1206 C1218 0.950 . S
H1207 C1219 0.950 . S
C1208 H1200 0.950 . S
C1208 C1209 1.386 . S
C1208 C1210 1.391 . S
C1209 C1208 1.386 . S
C1209 C1213 1.393 . S
C1210 H1202 0.950 . S
C1210 C1208 1.391 . S
C1210 C1211 1.400 . S
C1211 C1210 1.400 . S
C1211 C1212 1.398 . S
C1211 C1217 1.491 . S
C1212 H1203 0.950 . S
C1212 C1211 1.398 . S
C1212 C1213 1.391 . S
C1213 H1201 0.950 . S
C1213 C1209 1.393 . S
C1213 C1212 1.391 . S
C1214 H1204 0.950 . S
C1214 C1215 1.386 . S
C1214 C1216 1.391 . S
C1215 C1214 1.386 . S
C1215 C1219 1.393 . S
C1216 H1205 0.950 . S
C1216 C1214 1.391 . S
C1216 C1217 1.400 . S
C1217 C1211 1.491 . S
C1217 C1216 1.400 . S
C1217 C1218 1.398 . S
C1218 H1206 0.950 . S
C1218 C1217 1.398 . S
C1218 C1219 1.391 . S
C1219 H1207 0.950 . S
C1219 C1215 1.393 . S
C1219 C1218 1.391 . S
H1220 C1228 0.950 . S
H1221 C1233 0.950 . S
H1222 C1230 0.950 . S
H1223 C1232 0.950 . S
H1224 C1234 0.950 . S
H1225 C1236 0.950 . S
H1226 C1238 0.950 . S
H1227 C1239 0.950 . S
C1228 H1220 0.950 . S
C1228 C1229 1.386 . S
C1228 C1230 1.391 . S
C1229 C1228 1.386 . S
C1229 C1233 1.393 . S
C1230 H1222 0.950 . S
C1230 C1228 1.391 . S
C1230 C1231 1.400 . S
C1231 C1230 1.400 . S
C1231 C1232 1.398 . S
C1231 C1237 1.491 . S
C1232 H1223 0.950 . S
C1232 C1231 1.398 . S
C1232 C1233 1.391 . S
C1233 H1221 0.950 . S
C1233 C1229 1.393 . S
C1233 C1232 1.391 . S
C1234 H1224 0.950 . S
C1234 C1235 1.386 . S
C1234 C1236 1.391 . S
C1235 C1234 1.386 . S
C1235 C1239 1.393 . S
C1236 H1225 0.950 . S
C1236 C1234 1.391 . S
C1236 C1237 1.400 . S
C1237 C1231 1.491 . S
C1237 C1236 1.400 . S
C1237 C1238 1.398 . S
C1238 H1226 0.950 . S
C1238 C1237 1.398 . S
C1238 C1239 1.391 . S
C1239 H1227 0.950 . S
C1239 C1235 1.393 . S
C1239 C1238 1.391 . S
H1240 C1248 0.950 . S
H1241 C1253 0.950 . S
H1242 C1250 0.950 . S
H1243 C1252 0.950 . S
H1244 C1254 0.950 . S
H1245 C1256 0.950 . S
H1246 C1258 0.950 . S
H1247 C1259 0.950 . S
C1248 H1240 0.950 . S
C1248 C1249 1.386 . S
C1248 C1250 1.391 . S
C1249 C1248 1.386 . S
C1249 C1253 1.393 . S
C1250 H1242 0.950 . S
C1250 C1248 1.391 . S
C1250 C1251 1.400 . S
C1251 C1250 1.400 . S
C1251 C1252 1.398 . S
C1251 C1257 1.491 . S
C1252 H1243 0.950 . S
C1252 C1251 1.398 . S
C1252 C1253 1.391 . S
C1253 H1241 0.950 . S
C1253 C1249 1.393 . S
C1253 C1252 1.391 . S
C1254 H1244 0.950 . S
C1254 C1255 1.386 . S
C1254 C1256 1.391 . S
C1255 C1254 1.386 . S
C1255 C1259 1.393 . S
C1256 H1245 0.950 . S
C1256 C1254 1.391 . S
C1256 C1257 1.400 . S
C1257 C1251 1.491 . S
C1257 C1256 1.400 . S
C1257 C1258 1.398 . S
C1258 H1246 0.950 . S
C1258 C1257 1.398 . S
C1258 C1259 1.391 . S
C1259 H1247 0.950 . S
C1259 C1255 1.393 . S
C1259 C1258 1.391 . S
H1260 C1268 0.950 . S
H1261 C1273 0.950 . S
H1262 C1270 0.950 . S
H1263 C1272 0.950 . S
H1264 C1274 0.950 . S
H1265 C1276 0.950 . S
H1266 C1278 0.950 . S
H1267 C1279 0.950 . S
C1268 H1260 0.950 . S
C1268 C1269 1.386 . S
C1268 C1270 1.391 . S
C1269 C1268 1.386 . S
C1269 C1273 1.393 . S
C1270 H1262 0.950 . S
C1270 C1268 1.391 . S
C1270 C1271 1.400 . S
C1271 C1270 1.400 . S
C1271 C1272 1.398 . S
C1271 C1277 1.491 . S
C1272 H1263 0.950 . S
C1272 C1271 1.398 . S
C1272 C1273 1.391 . S
C1273 H1261 0.950 . S
C1273 C1269 1.393 . S
C1273 C1272 1.391 . S
C1274 H1264 0.950 . S
C1274 C1275 1.386 . S
C1274 C1276 1.391 . S
C1275 C1274 1.386 . S
C1275 C1279 1.393 . S
C1276 H1265 0.950 . S
C1276 C1274 1.391 . S
C1276 C1277 1.400 . S
C1277 C1271 1.491 . S
C1277 C1276 1.400 . S
C1277 C1278 1.398 . S
C1278 H1266 0.950 . S
C1278 C1277 1.398 . S
C1278 C1279 1.391 . S
C1279 H1267 0.950 . S
C1279 C1275 1.393 . S
C1279 C1278 1.391 . S
H1280 C1288 0.950 . S
H1281 C1293 0.950 . S
H1282 C1290 0.950 . S
H1283 C1292 0.950 . S
H1284 C1294 0.950 . S
H1285 C1296 0.950 . S
H1286 C1298 0.950 . S
H1287 C1299 0.950 . S
C1288 H1280 0.950 . S
C1288 C1289 1.386 . S
C1288 C1290 1.391 . S
C1289 C1288 1.386 . S
C1289 C1293 1.393 . S
C1290 H1282 0.950 . S
C1290 C1288 1.391 . S
C1290 C1291 1.400 . S
C1291 C1290 1.400 . S
C1291 C1292 1.398 . S
C1291 C1297 1.491 . S
C1292 H1283 0.950 . S
C1292 C1291 1.398 . S
C1292 C1293 1.391 . S
C1293 H1281 0.950 . S
C1293 C1289 1.393 . S
C1293 C1292 1.391 . S
C1294 H1284 0.950 . S
C1294 C1295 1.386 . S
C1294 C1296 1.391 . S
C1295 C1294 1.386 . S
C1295 C1299 1.393 . S
C1296 H1285 0.950 . S
C1296 C1294 1.391 . S
C1296 C1297 1.400 . S
C1297 C1291 1.491 . S
C1297 C1296 1.400 . S
C1297 C1298 1.398 . S
C1298 H1286 0.950 . S
C1298 C1297 1.398 . S
C1298 C1299 1.391 . S
C1299 H1287 0.950 . S
C1299 C1295 1.393 . S
C1299 C1298 1.391 . S
H1300 C1308 0.950 . S
H1301 C1313 0.950 . S
H1302 C1310 0.950 . S
H1303 C1312 0.950 . S
H1304 C1314 0.950 . S
H1305 C1316 0.950 . S
H1306 C1318 0.950 . S
H1307 C1319 0.950 . S
C1308 H1300 0.950 . S
C1308 C1309 1.386 . S
C1308 C1310 1.391 . S
C1309 C1308 1.386 . S
C1309 C1313 1.393 . S
C1310 H1302 0.950 . S
C1310 C1308 1.391 . S
C1310 C1311 1.400 . S
C1311 C1310 1.400 . S
C1311 C1312 1.398 . S
C1311 C1317 1.491 . S
C1312 H1303 0.950 . S
C1312 C1311 1.398 . S
C1312 C1313 1.391 . S
C1313 H1301 0.950 . S
C1313 C1309 1.393 . S
C1313 C1312 1.391 . S
C1314 H1304 0.950 . S
C1314 C1315 1.386 . S
C1314 C1316 1.391 . S
C1315 C1314 1.386 . S
C1315 C1319 1.393 . S
C1316 H1305 0.950 . S
C1316 C1314 1.391 . S
C1316 C1317 1.400 . S
C1317 C1311 1.491 . S
C1317 C1316 1.400 . S
C1317 C1318 1.398 . S
C1318 H1306 0.950 . S
C1318 C1317 1.398 . S
C1318 C1319 1.391 . S
C1319 H1307 0.950 . S
C1319 C1315 1.393 . S
C1319 C1318 1.391 . S
H1320 C1328 0.950 . S
H1321 C1333 0.950 . S
H1322 C1330 0.950 . S
H1323 C1332 0.950 . S
H1324 C1334 0.950 . S
H1325 C1336 0.950 . S
H1326 C1338 0.950 . S
H1327 C1339 0.950 . S
C1328 H1320 0.950 . S
C1328 C1329 1.386 . S
C1328 C1330 1.391 . S
C1329 C1328 1.386 . S
C1329 C1333 1.393 . S
C1330 H1322 0.950 . S
C1330 C1328 1.391 . S
C1330 C1331 1.400 . S
C1331 C1330 1.400 . S
C1331 C1332 1.398 . S
C1331 C1337 1.491 . S
C1332 H1323 0.950 . S
C1332 C1331 1.398 . S
C1332 C1333 1.391 . S
C1333 H1321 0.950 . S
C1333 C1329 1.393 . S
C1333 C1332 1.391 . S
C1334 H1324 0.950 . S
C1334 C1335 1.386 . S
C1334 C1336 1.391 . S
C1335 C1334 1.386 . S
C1335 C1339 1.393 . S
C1336 H1325 0.950 . S
C1336 C1334 1.391 . S
C1336 C1337 1.400 . S
C1337 C1331 1.491 . S
C1337 C1336 1.400 . S
C1337 C1338 1.398 . S
C1338 H1326 0.950 . S
C1338 C1337 1.398 . S
C1338 C1339 1.391 . S
C1339 H1327 0.950 . S
C1339 C1335 1.393 . S
C1339 C1338 1.391 . S
H1340 C1348 0.950 . S
H1341 C1353 0.950 . S
H1342 C1350 0.950 . S
H1343 C1352 0.950 . S
H1344 C1354 0.950 . S
H1345 C1356 0.950 . S
H1346 C1358 0.950 . S
H1347 C1359 0.950 . S
C1348 H1340 0.950 . S
C1348 C1349 1.386 . S
C1348 C1350 1.391 . S
C1349 C1348 1.386 . S
C1349 C1353 1.393 . S
C1350 H1342 0.950 . S
C1350 C1348 1.391 . S
C1350 C1351 1.400 . S
C1351 C1350 1.400 . S
C1351 C1352 1.398 . S
C1351 C1357 1.491 . S
C1352 H1343 0.950 . S
C1352 C1351 1.398 . S
C1352 C1353 1.391 . S
C1353 H1341 0.950 . S
C1353 C1349 1.393 . S
C1353 C1352 1.391 . S
C1354 H1344 0.950 . S
C1354 C1355 1.386 . S
C1354 C1356 1.391 . S
C1355 C1354 1.386 . S
C1355 C1359 1.393 . S
C1356 H1345 0.950 . S
C1356 C1354 1.391 . S
C1356 C1357 1.400 . S
C1357 C1351 1.491 . S
C1357 C1356 1.400 . S
C1357 C1358 1.398 . S
C1358 H1346 0.950 . S
C1358 C1357 1.398 . S
C1358 C1359 1.391 . S
C1359 H1347 0.950 . S
C1359 C1355 1.393 . S
C1359 C1358 1.391 . S
H1360 C1368 0.950 . S
H1361 C1373 0.950 . S
H1362 C1370 0.950 . S
H1363 C1372 0.950 . S
H1364 C1374 0.950 . S
H1365 C1376 0.950 . S
H1366 C1378 0.950 . S
H1367 C1379 0.950 . S
C1368 H1360 0.950 . S
C1368 C1369 1.386 . S
C1368 C1370 1.391 . S
C1369 C1368 1.386 . S
C1369 C1373 1.393 . S
C1370 H1362 0.950 . S
C1370 C1368 1.391 . S
C1370 C1371 1.400 . S
C1371 C1370 1.400 . S
C1371 C1372 1.398 . S
C1371 C1377 1.491 . S
C1372 H1363 0.950 . S
C1372 C1371 1.398 . S
C1372 C1373 1.391 . S
C1373 H1361 0.950 . S
C1373 C1369 1.393 . S
C1373 C1372 1.391 . S
C1374 H1364 0.950 . S
C1374 C1375 1.386 . S
C1374 C1376 1.391 . S
C1375 C1374 1.386 . S
C1375 C1379 1.393 . S
C1376 H1365 0.950 . S
C1376 C1374 1.391 . S
C1376 C1377 1.400 . S
C1377 C1371 1.491 . S
C1377 C1376 1.400 . S
C1377 C1378 1.398 . S
C1378 H1366 0.950 . S
C1378 C1377 1.398 . S
C1378 C1379 1.391 . S
C1379 H1367 0.950 . S
C1379 C1375 1.393 . S
C1379 C1378 1.391 . S
H1380 C1388 0.950 . S
H1381 C1393 0.950 . S
H1382 C1390 0.950 . S
H1383 C1392 0.950 . S
H1384 C1394 0.950 . S
H1385 C1396 0.950 . S
H1386 C1398 0.950 . S
H1387 C1399 0.950 . S
C1388 H1380 0.950 . S
C1388 C1389 1.386 . S
C1388 C1390 1.391 . S
C1389 C1388 1.386 . S
C1389 C1393 1.393 . S
C1390 H1382 0.950 . S
C1390 C1388 1.391 . S
C1390 C1391 1.400 . S
C1391 C1390 1.400 . S
C1391 C1392 1.398 . S
C1391 C1397 1.491 . S
C1392 H1383 0.950 . S
C1392 C1391 1.398 . S
C1392 C1393 1.391 . S
C1393 H1381 0.950 . S
C1393 C1389 1.393 . S
C1393 C1392 1.391 . S
C1394 H1384 0.950 . S
C1394 C1395 1.386 . S
C1394 C1396 1.391 . S
C1395 C1394 1.386 . S
C1395 C1399 1.393 . S
C1396 H1385 0.950 . S
C1396 C1394 1.391 . S
C1396 C1397 1.400 . S
C1397 C1391 1.491 . S
C1397 C1396 1.400 . S
C1397 C1398 1.398 . S
C1398 H1386 0.950 . S
C1398 C1397 1.398 . S
C1398 C1399 1.391 . S
C1399 H1387 0.950 . S
C1399 C1395 1.393 . S
C1399 C1398 1.391 . S
H1400 C1408 0.950 . S
H1401 C1413 0.950 . S
H1402 C1410 0.950 . S
H1403 C1412 0.950 . S
H1404 C1414 0.950 . S
H1405 C1416 0.950 . S
H1406 C1418 0.950 . S
H1407 C1419 0.950 . S
C1408 H1400 0.950 . S
C1408 C1409 1.386 . S
C1408 C1410 1.391 . S
C1409 C1408 1.386 . S
C1409 C1413 1.393 . S
C1410 H1402 0.950 . S
C1410 C1408 1.391 . S
C1410 C1411 1.400 . S
C1411 C1410 1.400 . S
C1411 C1412 1.398 . S
C1411 C1417 1.491 . S
C1412 H1403 0.950 . S
C1412 C1411 1.398 . S
C1412 C1413 1.391 . S
C1413 H1401 0.950 . S
C1413 C1409 1.393 . S
C1413 C1412 1.391 . S
C1414 H1404 0.950 . S
C1414 C1415 1.386 . S
C1414 C1416 1.391 . S
C1415 C1414 1.386 . S
C1415 C1419 1.393 . S
C1416 H1405 0.950 . S
C1416 C1414 1.391 . S
C1416 C1417 1.400 . S
C1417 C1411 1.491 . S
C1417 C1416 1.400 . S
C1417 C1418 1.398 . S
C1418 H1406 0.950 . S
C1418 C1417 1.398 . S
C1418 C1419 1.391 . S
C1419 H1407 0.950 . S
C1419 C1415 1.393 . S
C1419 C1418 1.391 . S
H1420 C1428 0.950 . S
H1421 C1433 0.950 . S
H1422 C1430 0.950 . S
H1423 C1432 0.950 . S
H1424 C1434 0.950 . S
H1425 C1436 0.950 . S
H1426 C1438 0.950 . S
H1427 C1439 0.950 . S
C1428 H1420 0.950 . S
C1428 C1429 1.386 . S
C1428 C1430 1.391 . S
C1429 C1428 1.386 . S
C1429 C1433 1.393 . S
C1430 H1422 0.950 . S
C1430 C1428 1.391 . S
C1430 C1431 1.400 . S
C1431 C1430 1.400 . S
C1431 C1432 1.398 . S
C1431 C1437 1.491 . S
C1432 H1423 0.950 . S
C1432 C1431 1.398 . S
C1432 C1433 1.391 . S
C1433 H1421 0.950 . S
C1433 C1429 1.393 . S
C1433 C1432 1.391 . S
C1434 H1424 0.950 . S
C1434 C1435 1.386 . S
C1434 C1436 1.391 . S
C1435 C1434 1.386 . S
C1435 C1439 1.393 . S
C1436 H1425 0.950 . S
C1436 C1434 1.391 . S
C1436 C1437 1.400 . S
C1437 C1431 1.491 . S
C1437 C1436 1.400 . S
C1437 C1438 1.398 . S
C1438 H1426 0.950 . S
C1438 C1437 1.398 . S
C1438 C1439 1.391 . S
C1439 H1427 0.950 . S
C1439 C1435 1.393 . S
C1439 C1438 1.391 . S
H1440 C1448 0.950 . S
H1441 C1453 0.950 . S
H1442 C1450 0.950 . S
H1443 C1452 0.950 . S
H1444 C1454 0.950 . S
H1445 C1456 0.950 . S
H1446 C1458 0.950 . S
H1447 C1459 0.950 . S
C1448 H1440 0.950 . S
C1448 C1449 1.386 . S
C1448 C1450 1.391 1_565 S
C1449 C1448 1.386 . S
C1449 C1453 1.393 . S
C1450 H1442 0.950 . S
C1450 C1448 1.391 1_545 S
C1450 C1451 1.400 . S
C1451 C1450 1.400 . S
C1451 C1452 1.398 . S
C1451 C1457 1.491 . S
C1452 H1443 0.950 . S
C1452 C1451 1.398 . S
C1452 C1453 1.391 1_545 S
C1453 H1441 0.950 . S
C1453 C1449 1.393 . S
C1453 C1452 1.391 1_565 S
C1454 H1444 0.950 . S
C1454 C1455 1.386 . S
C1454 C1456 1.391 . S
C1455 C1454 1.386 . S
C1455 C1459 1.393 . S
C1456 H1445 0.950 . S
C1456 C1454 1.391 . S
C1456 C1457 1.400 . S
C1457 C1451 1.491 . S
C1457 C1456 1.400 . S
C1457 C1458 1.398 . S
C1458 H1446 0.950 . S
C1458 C1457 1.398 . S
C1458 C1459 1.391 . S
C1459 H1447 0.950 . S
C1459 C1455 1.393 . S
C1459 C1458 1.391 . S
H1460 C1468 0.950 . S
H1461 C1473 0.950 . S
H1462 C1470 0.950 . S
H1463 C1472 0.950 . S
H1464 C1474 0.950 . S
H1465 C1476 0.950 . S
H1466 C1478 0.950 . S
H1467 C1479 0.950 . S
C1468 H1460 0.950 . S
C1468 C1469 1.386 . S
C1468 C1470 1.391 . S
C1469 C1468 1.386 . S
C1469 C1473 1.393 . S
C1470 H1462 0.950 . S
C1470 C1468 1.391 . S
C1470 C1471 1.400 . S
C1471 C1470 1.400 . S
C1471 C1472 1.398 . S
C1471 C1477 1.491 . S
C1472 H1463 0.950 . S
C1472 C1471 1.398 . S
C1472 C1473 1.391 . S
C1473 H1461 0.950 . S
C1473 C1469 1.393 . S
C1473 C1472 1.391 . S
C1474 H1464 0.950 . S
C1474 C1475 1.386 . S
C1474 C1476 1.391 1_545 S
C1475 C1474 1.386 . S
C1475 C1479 1.393 . S
C1476 H1465 0.950 . S
C1476 C1474 1.391 1_565 S
C1476 C1477 1.400 . S
C1477 C1471 1.491 . S
C1477 C1476 1.400 . S
C1477 C1478 1.398 . S
C1478 H1466 0.950 . S
C1478 C1477 1.398 . S
C1478 C1479 1.391 1_565 S
C1479 H1467 0.950 . S
C1479 C1475 1.393 . S
C1479 C1478 1.391 1_545 S
H1480 C1488 0.950 . S
H1481 C1493 0.950 . S
H1482 C1490 0.950 . S
H1483 C1492 0.950 . S
H1484 C1494 0.950 . S
H1485 C1496 0.950 . S
H1486 C1498 0.950 . S
H1487 C1499 0.950 . S
C1488 H1480 0.950 . S
C1488 C1489 1.386 . S
C1488 C1490 1.391 1_545 S
C1489 C1488 1.386 . S
C1489 C1493 1.393 . S
C1490 H1482 0.950 . S
C1490 C1488 1.391 1_565 S
C1490 C1491 1.400 . S
C1491 C1490 1.400 . S
C1491 C1492 1.398 . S
C1491 C1497 1.491 . S
C1492 H1483 0.950 . S
C1492 C1491 1.398 . S
C1492 C1493 1.391 1_565 S
C1493 H1481 0.950 . S
C1493 C1489 1.393 . S
C1493 C1492 1.391 1_545 S
C1494 H1484 0.950 . S
C1494 C1495 1.386 . S
C1494 C1496 1.391 . S
C1495 C1494 1.386 . S
C1495 C1499 1.393 . S
C1496 H1485 0.950 . S
C1496 C1494 1.391 . S
C1496 C1497 1.400 . S
C1497 C1491 1.491 . S
C1497 C1496 1.400 . S
C1497 C1498 1.398 . S
C1498 H1486 0.950 . S
C1498 C1497 1.398 . S
C1498 C1499 1.391 . S
C1499 H1487 0.950 . S
C1499 C1495 1.393 . S
C1499 C1498 1.391 . S
H1500 C1508 0.950 . S
H1501 C1513 0.950 . S
H1502 C1510 0.950 . S
H1503 C1512 0.950 . S
H1504 C1514 0.950 . S
H1505 C1516 0.950 . S
H1506 C1518 0.950 . S
H1507 C1519 0.950 . S
C1508 H1500 0.950 . S
C1508 C1509 1.386 . S
C1508 C1510 1.391 1_565 S
C1509 C1508 1.386 . S
C1509 C1513 1.393 . S
C1510 H1502 0.950 . S
C1510 C1508 1.391 1_545 S
C1510 C1511 1.400 . S
C1511 C1510 1.400 . S
C1511 C1512 1.398 . S
C1511 C1517 1.491 . S
C1512 H1503 0.950 . S
C1512 C1511 1.398 . S
C1512 C1513 1.391 1_545 S
C1513 H1501 0.950 . S
C1513 C1509 1.393 . S
C1513 C1512 1.391 1_565 S
C1514 H1504 0.950 . S
C1514 C1515 1.386 . S
C1514 C1516 1.391 . S
C1515 C1514 1.386 . S
C1515 C1519 1.393 . S
C1516 H1505 0.950 . S
C1516 C1514 1.391 . S
C1516 C1517 1.400 . S
C1517 C1511 1.491 . S
C1517 C1516 1.400 . S
C1517 C1518 1.398 . S
C1518 H1506 0.950 . S
C1518 C1517 1.398 . S
C1518 C1519 1.391 . S
C1519 H1507 0.950 . S
C1519 C1515 1.393 . S
C1519 C1518 1.391 . S
H1520 C1528 0.950 . S
H1521 C1533 0.950 . S
H1522 C1530 0.950 . S
H1523 C1532 0.950 . S
H1524 C1534 0.950 . S
H1525 C1536 0.950 . S
H1526 C1538 0.950 . S
H1527 C1539 0.950 . S
C1528 H1520 0.950 . S
C1528 C1529 1.386 . S
C1528 C1530 1.391 . S
C1529 C1528 1.386 . S
C1529 C1533 1.393 . S
C1530 H1522 0.950 . S
C1530 C1528 1.391 . S
C1530 C1531 1.400 . S
C1531 C1530 1.400 . S
C1531 C1532 1.398 . S
C1531 C1537 1.491 . S
C1532 H1523 0.950 . S
C1532 C1531 1.398 . S
C1532 C1533 1.391 . S
C1533 H1521 0.950 . S
C1533 C1529 1.393 . S
C1533 C1532 1.391 . S
C1534 H1524 0.950 . S
C1534 C1535 1.386 . S
C1534 C1536 1.391 1_545 S
C1535 C1534 1.386 . S
C1535 C1539 1.393 . S
C1536 H1525 0.950 . S
C1536 C1534 1.391 1_565 S
C1536 C1537 1.400 . S
C1537 C1531 1.491 . S
C1537 C1536 1.400 . S
C1537 C1538 1.398 . S
C1538 H1526 0.950 . S
C1538 C1537 1.398 . S
C1538 C1539 1.391 1_565 S
C1539 H1527 0.950 . S
C1539 C1535 1.393 . S
C1539 C1538 1.391 1_545 S
H1540 C1548 0.950 . S
H1541 C1553 0.950 . S
H1542 C1550 0.950 . S
H1543 C1552 0.950 . S
H1544 C1554 0.950 . S
H1545 C1556 0.950 . S
H1546 C1558 0.950 . S
H1547 C1559 0.950 . S
C1548 H1540 0.950 . S
C1548 C1549 1.386 . S
C1548 C1550 1.391 . S
C1549 C1548 1.386 . S
C1549 C1553 1.393 . S
C1550 H1542 0.950 . S
C1550 C1548 1.391 . S
C1550 C1551 1.400 . S
C1551 C1550 1.400 . S
C1551 C1552 1.398 . S
C1551 C1557 1.491 . S
C1552 H1543 0.950 . S
C1552 C1551 1.398 . S
C1552 C1553 1.391 . S
C1553 H1541 0.950 . S
C1553 C1549 1.393 . S
C1553 C1552 1.391 . S
C1554 H1544 0.950 . S
C1554 C1555 1.386 . S
C1554 C1556 1.391 1_565 S
C1555 C1554 1.386 . S
C1555 C1559 1.393 . S
C1556 H1545 0.950 . S
C1556 C1554 1.391 1_545 S
C1556 C1557 1.400 . S
C1557 C1551 1.491 . S
C1557 C1556 1.400 . S
C1557 C1558 1.398 . S
C1558 H1546 0.950 . S
C1558 C1557 1.398 . S
C1558 C1559 1.391 1_545 S
C1559 H1547 0.950 . S
C1559 C1555 1.393 . S
C1559 C1558 1.391 1_565 S
H1560 C1568 0.950 . S
H1561 C1573 0.950 . S
H1562 C1570 0.950 . S
H1563 C1572 0.950 . S
H1564 C1574 0.950 . S
H1565 C1576 0.950 . S
H1566 C1578 0.950 . S
H1567 C1579 0.950 . S
C1568 H1560 0.950 . S
C1568 C1569 1.386 . S
C1568 C1570 1.391 1_565 S
C1569 C1568 1.386 . S
C1569 C1573 1.393 . S
C1570 H1562 0.950 . S
C1570 C1568 1.391 1_545 S
C1570 C1571 1.400 . S
C1571 C1570 1.400 . S
C1571 C1572 1.398 . S
C1571 C1577 1.491 . S
C1572 H1563 0.950 . S
C1572 C1571 1.398 . S
C1572 C1573 1.391 1_545 S
C1573 H1561 0.950 . S
C1573 C1569 1.393 . S
C1573 C1572 1.391 1_565 S
C1574 H1564 0.950 . S
C1574 C1575 1.386 . S
C1574 C1576 1.391 . S
C1575 C1574 1.386 . S
C1575 C1579 1.393 . S
C1576 H1565 0.950 . S
C1576 C1574 1.391 . S
C1576 C1577 1.400 . S
C1577 C1571 1.491 . S
C1577 C1576 1.400 . S
C1577 C1578 1.398 . S
C1578 H1566 0.950 . S
C1578 C1577 1.398 . S
C1578 C1579 1.391 . S
C1579 H1567 0.950 . S
C1579 C1575 1.393 . S
C1579 C1578 1.391 . S
H1580 C1588 0.950 . S
H1581 C1593 0.950 . S
H1582 C1590 0.950 . S
H1583 C1592 0.950 . S
H1584 C1594 0.950 . S
H1585 C1596 0.950 . S
H1586 C1598 0.950 . S
H1587 C1599 0.950 . S
C1588 H1580 0.950 . S
C1588 C1589 1.386 . S
C1588 C1590 1.391 . S
C1589 C1588 1.386 . S
C1589 C1593 1.393 . S
C1590 H1582 0.950 . S
C1590 C1588 1.391 . S
C1590 C1591 1.400 . S
C1591 C1590 1.400 . S
C1591 C1592 1.398 . S
C1591 C1597 1.491 . S
C1592 H1583 0.950 . S
C1592 C1591 1.398 . S
C1592 C1593 1.391 . S
C1593 H1581 0.950 . S
C1593 C1589 1.393 . S
C1593 C1592 1.391 . S
C1594 H1584 0.950 . S
C1594 C1595 1.386 . S
C1594 C1596 1.391 1_545 S
C1595 C1594 1.386 . S
C1595 C1599 1.393 . S
C1596 H1585 0.950 . S
C1596 C1594 1.391 1_565 S
C1596 C1597 1.400 . S
C1597 C1591 1.491 . S
C1597 C1596 1.400 . S
C1597 C1598 1.398 . S
C1598 H1586 0.950 . S
C1598 C1597 1.398 . S
C1598 C1599 1.391 1_565 S
C1599 H1587 0.950 . S
C1599 C1595 1.393 . S
C1599 C1598 1.391 1_545 S
C649 C15 2.012 . S
C655 C375 2.014 . S
C669 C55 2.020 . S
C675 C335 2.018 . S
C689 C455 2.008 . S
C695 C95 2.010 . S
C709 C135 2.013 . S
C715 C415 2.011 . S
C729 C526 2.003 . S
C735 C166 2.003 . S
C749 C486 2.004 . S
C755 C206 2.003 . S
C769 C606 2.027 . S
C775 C246 2.026 . S
C789 C286 2.007 . S
C795 C566 2.009 . S
C809 C98 1.513 . S
C815 C18 1.494 . S
C829 C138 1.516 . S
C835 C58 1.509 . S
C849 C249 1.510 . S
C855 C169 1.516 . S
C869 C209 1.513 . S
C875 C289 1.494 . S
C889 C418 1.510 . S
C895 C338 1.496 . S
C909 C458 1.511 . S
C915 C378 1.495 . S
C929 C489 1.515 . S
C935 C569 1.510 . S
C949 C529 1.519 . S
C955 C609 1.504 . S
C969 C218 1.508 . S
C975 C9 1.499 . S
C989 C178 1.494 . S
C995 C49 1.513 . S
C1009 C89 1.511 . S
C1015 C298 1.496 . S
C1029 C258 1.492 . S
C1035 C129 1.516 . S
C1049 C329 1.500 . S
C1055 C538 1.507 . S
C1069 C498 1.516 . S
C1075 C369 1.492 . S
C1089 C409 1.504 . S
C1095 C618 1.504 . S
C1109 C578 1.509 . S
C1115 C449 1.499 . S
C1129 C46 2.280 . S
C1135 C6 2.281 . S
C1149 C126 2.287 . S
C1155 C86 2.285 . S
C1169 C215 2.302 . S
C1175 C175 2.302 . S
C1189 C255 2.302 . S
C1195 C295 2.302 . S
C1209 C366 2.280 . S
C1215 C326 2.281 . S
C1229 C446 2.301 . S
C1235 C406 2.302 . S
C1249 C495 2.300 . S
C1255 C535 2.299 . S
C1269 C575 2.289 . S
C1275 C615 2.291 . S
C1289 C10 2.442 . S
C1295 C19 2.442 . S
C1309 C50 2.430 . S
C1315 C59 2.430 . S
C1329 C90 2.437 . S
C1335 C99 2.437 . S
C1349 C139 2.430 . S
C1355 C130 2.430 . S
C1369 C179 2.430 . S
C1375 C170 2.430 . S
C1389 C210 2.439 . S
C1395 C219 2.439 . S
C1409 C259 2.430 . S
C1415 C250 2.430 . S
C1429 C299 2.441 . S
C1435 C290 2.441 . S
C1449 C339 2.440 . S
C1455 C330 2.440 . S
C1469 C370 2.445 . S
C1475 C379 2.445 . S
C1489 C419 2.432 . S
C1495 C410 2.432 . S
C1509 C459 2.443 . S
C1515 C450 2.443 . S
C1529 C499 2.433 . S
C1535 C490 2.433 . S
C1549 C539 2.433 . S
C1555 C530 2.433 . S
C1569 C570 2.440 . S
C1575 C579 2.440 . S
C1589 C619 2.439 . S
C1595 C610 2.439 . S
