# Generated by pormake.
# Topology wib, (6)-cn, num edge types: 1
# Building blocks:
#     Node 0, Type 0, BuildingBlock: OJICUG_clean_sbu_0, # of connection points: 6
#     Node 1, Type 0, BuildingBlock: OJICUG_clean_sbu_0, # of connection points: 6
#     Node 2, Type 0, BuildingBlock: OJICUG_clean_sbu_0, # of connection points: 6
#     Node 3, Type 0, BuildingBlock: OJICUG_clean_sbu_0, # of connection points: 6
#     Node 4, Type 0, BuildingBlock: OJICUG_clean_sbu_0, # of connection points: 6
#     Node 5, Type 0, BuildingBlock: OJICUG_clean_sbu_0, # of connection points: 6
#     Node 6, Type 0, BuildingBlock: OJICUG_clean_sbu_0, # of connection points: 6
#     Node 7, Type 0, BuildingBlock: OJICUG_clean_sbu_0, # of connection points: 6
#     Node 8, Type 0, BuildingBlock: OJICUG_clean_sbu_0, # of connection points: 6
#     Node 9, Type 0, BuildingBlock: OJICUG_clean_sbu_0, # of connection points: 6
#     Node 10, Type 0, BuildingBlock: OJICUG_clean_sbu_0, # of connection points: 6
#     Node 11, Type 0, BuildingBlock: OJICUG_clean_sbu_0, # of connection points: 6
#     Node 12, Type 0, BuildingBlock: OJICUG_clean_sbu_0, # of connection points: 6
#     Node 13, Type 0, BuildingBlock: OJICUG_clean_sbu_0, # of connection points: 6
#     Node 14, Type 0, BuildingBlock: OJICUG_clean_sbu_0, # of connection points: 6
#     Node 15, Type 0, BuildingBlock: OJICUG_clean_sbu_0, # of connection points: 6
#     Edge 16, Type (0, 0), BuildingBlock: XUDNAN_clean_linker_2, # of connection points: 2
#     Edge 17, Type (0, 0), BuildingBlock: XUDNAN_clean_linker_2, # of connection points: 2
#     Edge 18, Type (0, 0), BuildingBlock: XUDNAN_clean_linker_2, # of connection points: 2
#     Edge 19, Type (0, 0), BuildingBlock: XUDNAN_clean_linker_2, # of connection points: 2
#     Edge 20, Type (0, 0), BuildingBlock: XUDNAN_clean_linker_2, # of connection points: 2
#     Edge 21, Type (0, 0), BuildingBlock: XUDNAN_clean_linker_2, # of connection points: 2
#     Edge 22, Type (0, 0), BuildingBlock: XUDNAN_clean_linker_2, # of connection points: 2
#     Edge 23, Type (0, 0), BuildingBlock: XUDNAN_clean_linker_2, # of connection points: 2
#     Edge 24, Type (0, 0), BuildingBlock: XUDNAN_clean_linker_2, # of connection points: 2
#     Edge 25, Type (0, 0), BuildingBlock: XUDNAN_clean_linker_2, # of connection points: 2
#     Edge 26, Type (0, 0), BuildingBlock: XUDNAN_clean_linker_2, # of connection points: 2
#     Edge 27, Type (0, 0), BuildingBlock: XUDNAN_clean_linker_2, # of connection points: 2
#     Edge 28, Type (0, 0), BuildingBlock: XUDNAN_clean_linker_2, # of connection points: 2
#     Edge 29, Type (0, 0), BuildingBlock: XUDNAN_clean_linker_2, # of connection points: 2
#     Edge 30, Type (0, 0), BuildingBlock: XUDNAN_clean_linker_2, # of connection points: 2
#     Edge 31, Type (0, 0), BuildingBlock: XUDNAN_clean_linker_2, # of connection points: 2
#     Edge 32, Type (0, 0), BuildingBlock: XUDNAN_clean_linker_2, # of connection points: 2
#     Edge 33, Type (0, 0), BuildingBlock: XUDNAN_clean_linker_2, # of connection points: 2
#     Edge 34, Type (0, 0), BuildingBlock: XUDNAN_clean_linker_2, # of connection points: 2
#     Edge 35, Type (0, 0), BuildingBlock: XUDNAN_clean_linker_2, # of connection points: 2
#     Edge 36, Type (0, 0), BuildingBlock: XUDNAN_clean_linker_2, # of connection points: 2
#     Edge 37, Type (0, 0), BuildingBlock: XUDNAN_clean_linker_2, # of connection points: 2
#     Edge 38, Type (0, 0), BuildingBlock: XUDNAN_clean_linker_2, # of connection points: 2
#     Edge 39, Type (0, 0), BuildingBlock: XUDNAN_clean_linker_2, # of connection points: 2
#     Edge 40, Type (0, 0), BuildingBlock: XUDNAN_clean_linker_2, # of connection points: 2
#     Edge 41, Type (0, 0), BuildingBlock: XUDNAN_clean_linker_2, # of connection points: 2
#     Edge 42, Type (0, 0), BuildingBlock: XUDNAN_clean_linker_2, # of connection points: 2
#     Edge 43, Type (0, 0), BuildingBlock: XUDNAN_clean_linker_2, # of connection points: 2
#     Edge 44, Type (0, 0), BuildingBlock: XUDNAN_clean_linker_2, # of connection points: 2
#     Edge 45, Type (0, 0), BuildingBlock: XUDNAN_clean_linker_2, # of connection points: 2
#     Edge 46, Type (0, 0), BuildingBlock: XUDNAN_clean_linker_2, # of connection points: 2
#     Edge 47, Type (0, 0), BuildingBlock: XUDNAN_clean_linker_2, # of connection points: 2
#     Edge 48, Type (0, 0), BuildingBlock: XUDNAN_clean_linker_2, # of connection points: 2
#     Edge 49, Type (0, 0), BuildingBlock: XUDNAN_clean_linker_2, # of connection points: 2
#     Edge 50, Type (0, 0), BuildingBlock: XUDNAN_clean_linker_2, # of connection points: 2
#     Edge 51, Type (0, 0), BuildingBlock: XUDNAN_clean_linker_2, # of connection points: 2
#     Edge 52, Type (0, 0), BuildingBlock: XUDNAN_clean_linker_2, # of connection points: 2
#     Edge 53, Type (0, 0), BuildingBlock: XUDNAN_clean_linker_2, # of connection points: 2
#     Edge 54, Type (0, 0), BuildingBlock: XUDNAN_clean_linker_2, # of connection points: 2
#     Edge 55, Type (0, 0), BuildingBlock: XUDNAN_clean_linker_2, # of connection points: 2
#     Edge 56, Type (0, 0), BuildingBlock: XUDNAN_clean_linker_2, # of connection points: 2
#     Edge 57, Type (0, 0), BuildingBlock: XUDNAN_clean_linker_2, # of connection points: 2
#     Edge 58, Type (0, 0), BuildingBlock: XUDNAN_clean_linker_2, # of connection points: 2
#     Edge 59, Type (0, 0), BuildingBlock: XUDNAN_clean_linker_2, # of connection points: 2
#     Edge 60, Type (0, 0), BuildingBlock: XUDNAN_clean_linker_2, # of connection points: 2
#     Edge 61, Type (0, 0), BuildingBlock: XUDNAN_clean_linker_2, # of connection points: 2
#     Edge 62, Type (0, 0), BuildingBlock: XUDNAN_clean_linker_2, # of connection points: 2
#     Edge 63, Type (0, 0), BuildingBlock: XUDNAN_clean_linker_2, # of connection points: 2
# Relax obj value: 0.382
# Max RMSD: 0.261
# Mean RMSD: 0.261
data_MOF--net-wib--node1-OJICUG_clean_sbu_0--edge1-XUDNAN_clean_linker_2
_symmetry_space_group_name_H-M    P1
_symmetry_Int_Tables_number       1
_symmetry_cell_setting            triclinic
loop_
_symmetry_equiv_pos_as_xyz
'x, y, z'
_cell_length_a     31.584484
_cell_length_b     31.539007
_cell_length_c     58.033633
_cell_angle_alpha  89.905238
_cell_angle_beta   89.970109
_cell_angle_gamma 89.981189
loop_
_atom_site_label
_atom_site_type_symbol
_atom_site_fract_x
_atom_site_fract_y
_atom_site_fract_z
_atom_type_partial_charge
Sc0 Sc 0.10411 0.48945 0.28505 0.0
Sc1 Sc 0.14212 0.56384 0.32476 0.0
Sc2 Sc 0.06423 0.5927 0.2861 0.0
O3 O 0.10309 0.54809 0.29881 0.0
C4 C 0.09934 0.55175 0.24077 0.0
C5 C 0.20179 0.50442 0.29379 0.0
C6 C 0.14776 0.64532 0.29626 0.0
C7 C 0.11702 0.47305 0.34024 0.0
C8 C 0.00633 0.50952 0.28132 0.0
C9 C 0.05722 0.61634 0.3371 0.0
O10 O 0.09908 0.51429 0.24943 0.0
O11 O 0.1945 0.52604 0.31189 0.0
O12 O 0.10848 0.64351 0.29169 0.0
O13 O 0.1135 0.45981 0.31938 0.0
O14 O 0.01424 0.54863 0.27832 0.0
O15 O 0.09623 0.60739 0.34024 0.0
O16 O 0.03491 0.48309 0.28754 0.0
O17 O 0.11923 0.51223 0.3453 0.0
O18 O 0.03687 0.60363 0.31952 0.0
O19 O 0.17226 0.4913 0.28067 0.0
O20 O 0.09117 0.58473 0.2525 0.0
O21 O 0.16785 0.61493 0.3054 0.0
Sc22 Sc 0.26661 0.35486 0.53431 0.0
Sc23 Sc 0.19402 0.39514 0.57392 0.0
Sc24 Sc 0.16041 0.32272 0.53305 0.0
O25 O 0.20733 0.35679 0.5473 0.0
C26 C 0.20823 0.35404 0.48865 0.0
C27 C 0.25781 0.45221 0.54398 0.0
C28 C 0.11901 0.41283 0.54091 0.0
C29 C 0.28084 0.3639 0.59 0.0
C30 C 0.23997 0.25848 0.53132 0.0
C31 C 0.13114 0.31607 0.58379 0.0
O32 O 0.24489 0.3517 0.49802 0.0
O33 O 0.23744 0.44494 0.56258 0.0
O34 O 0.11472 0.37386 0.5357 0.0
O35 O 0.29479 0.36243 0.56919 0.0
O36 O 0.20134 0.26853 0.52794 0.0
O37 O 0.14531 0.35309 0.58823 0.0
O38 O 0.26818 0.28576 0.53681 0.0
O39 O 0.24154 0.36556 0.59461 0.0
O40 O 0.14143 0.29633 0.56558 0.0
O41 O 0.26801 0.42279 0.53009 0.0
O42 O 0.17434 0.34751 0.49975 0.0
O43 O 0.14835 0.42656 0.55371 0.0
Sc44 Sc 0.42195 0.4133 0.78563 0.0
Sc45 Sc 0.354 0.44987 0.82788 0.0
Sc46 Sc 0.38874 0.51849 0.78463 0.0
O47 O 0.38832 0.46064 0.79944 0.0
C48 C 0.48426 0.49305 0.77992 0.0
C49 C 0.43778 0.3936 0.83713 0.0
C50 C 0.38136 0.54034 0.83933 0.0
C51 C 0.33821 0.36591 0.80235 0.0
C52 C 0.38718 0.45499 0.74099 0.0
C53 C 0.29236 0.50707 0.79613 0.0
O54 O 0.47324 0.45492 0.77591 0.0
O55 O 0.40085 0.40653 0.84277 0.0
O56 O 0.38049 0.55175 0.8181 0.0
O57 O 0.37516 0.36542 0.79363 0.0
O58 O 0.39263 0.49233 0.74919 0.0
O59 O 0.30118 0.48858 0.81519 0.0
O60 O 0.39107 0.42189 0.75324 0.0
O61 O 0.32304 0.39775 0.81269 0.0
O62 O 0.32068 0.51722 0.78146 0.0
O63 O 0.45394 0.40145 0.81752 0.0
O64 O 0.4579 0.52112 0.78688 0.0
O65 O 0.38332 0.50168 0.84517 0.0
Sc66 Sc 0.23312 0.64748 0.03571 0.0
Sc67 Sc 0.30519 0.60596 0.0754 0.0
Sc68 Sc 0.33977 0.67808 0.03436 0.0
O69 O 0.29239 0.64458 0.04868 0.0
C70 C 0.29115 0.6488 0.98982 0.0
C71 C 0.24087 0.54977 0.04544 0.0
C72 C 0.37973 0.58712 0.04216 0.0
C73 C 0.21863 0.63855 0.09146 0.0
C74 C 0.26142 0.74369 0.03315 0.0
C75 C 0.36949 0.68382 0.08513 0.0
O76 O 0.2546 0.65072 0.99935 0.0
O77 O 0.26122 0.55679 0.06405 0.0
O78 O 0.38431 0.6259 0.03653 0.0
O79 O 0.20486 0.64053 0.07063 0.0
O80 O 0.29991 0.7331 0.02987 0.0
O81 O 0.3546 0.64714 0.08977 0.0
O82 O 0.2326 0.71664 0.03814 0.0
O83 O 0.25787 0.63582 0.09611 0.0
O84 O 0.35959 0.70355 0.06684 0.0
O85 O 0.23086 0.57941 0.03157 0.0
O86 O 0.32513 0.65477 1.0009 0.0
O87 O 0.35054 0.57402 0.05529 0.0
Sc88 Sc 0.93103 0.399 0.75819 0.0
Sc89 Sc 0.85079 0.42403 0.71989 0.0
Sc90 Sc 0.8901 0.50226 0.75719 0.0
O91 O 0.89102 0.44234 0.74485 0.0
C92 C 0.8968 0.44348 0.80285 0.0
C93 C 0.84825 0.34406 0.75093 0.0
C94 C 0.79183 0.48623 0.74997 0.0
C95 C 0.93664 0.37349 0.70702 0.0
C96 C 0.98813 0.48319 0.76054 0.0
C97 C 0.8751 0.51467 0.70185 0.0
O98 O 0.90566 0.40977 0.7919 0.0
O99 O 0.82785 0.37319 0.74075 0.0
O100 O 0.82199 0.50167 0.76184 0.0
O101 O 0.95698 0.38563 0.72473 0.0
O102 O 0.95901 0.50892 0.75434 0.0
O103 O 0.87003 0.47532 0.69774 0.0
O104 O 0.98091 0.44412 0.76411 0.0
O105 O 0.89739 0.38163 0.70407 0.0
O106 O 0.88099 0.5292 0.72229 0.0
O107 O 0.88767 0.34646 0.75493 0.0
O108 O 0.89557 0.48016 0.79328 0.0
O109 O 0.79823 0.46115 0.73313 0.0
Sc110 Sc 0.83618 0.67947 0.50824 0.0
Sc111 Sc 0.80599 0.60452 0.46802 0.0
Sc112 Sc 0.73236 0.64112 0.50853 0.0
O113 O 0.79105 0.64211 0.49474 0.0
C114 C 0.7943 0.6421 0.55292 0.0
C115 C 0.88859 0.59676 0.49537 0.0
C116 C 0.74674 0.54367 0.49858 0.0
C117 C 0.85988 0.68966 0.45713 0.0
C118 C 0.75378 0.73835 0.51354 0.0
C119 C 0.71529 0.63155 0.45329 0.0
O120 O 0.82751 0.65019 0.54135 0.0
O121 O 0.85797 0.57732 0.48611 0.0
O122 O 0.73352 0.5728 0.51194 0.0
O123 O 0.84861 0.70895 0.47541 0.0
O124 O 0.7271 0.71044 0.50686 0.0
O125 O 0.75429 0.62874 0.44813 0.0
O126 O 0.79264 0.72966 0.51675 0.0
O127 O 0.84857 0.65153 0.45299 0.0
O128 O 0.7022 0.63393 0.47422 0.0
O129 O 0.8864 0.63521 0.50166 0.0
O130 O 0.75701 0.64402 0.54423 0.0
O131 O 0.76856 0.55148 0.48058 0.0
Sc132 Sc 0.6044 0.4882 0.25747 0.0
Sc133 Sc 0.64011 0.55628 0.21427 0.0
Sc134 Sc 0.57155 0.59387 0.25632 0.0
O135 O 0.60515 0.5461 0.24263 0.0
C136 C 0.50857 0.51405 0.2614 0.0
C137 C 0.61131 0.46619 0.20278 0.0
C138 C 0.55797 0.6148 0.20453 0.0
C139 C 0.70097 0.49801 0.24605 0.0
C140 C 0.60489 0.5511 0.3014 0.0
C141 C 0.65698 0.63953 0.2404 0.0
O142 O 0.53547 0.48595 0.25518 0.0
O143 O 0.61036 0.50482 0.19674 0.0
O144 O 0.54113 0.60772 0.22405 0.0
O145 O 0.67247 0.4886 0.26075 0.0
O146 O 0.60046 0.58436 0.28931 0.0
O147 O 0.67136 0.60771 0.22972 0.0
O148 O 0.60061 0.51385 0.29293 0.0
O149 O 0.69242 0.51666 0.22699 0.0
O150 O 0.62013 0.64073 0.24928 0.0
O151 O 0.61211 0.45506 0.22404 0.0
O152 O 0.51889 0.55261 0.26492 0.0
O153 O 0.59464 0.60091 0.19913 0.0
Sc154 Sc 0.76366 0.35805 1.00941 0.0
Sc155 Sc 0.69097 0.39536 0.96856 0.0
Sc156 Sc 0.66035 0.31799 1.00746 0.0
O157 O 0.70545 0.35675 0.99501 0.0
C158 C 0.74346 0.26016 1.01307 0.0
C159 C 0.78213 0.36871 0.95442 0.0
C160 C 0.63756 0.31079 0.9562 0.0
C161 C 0.74875 0.45582 0.99996 0.0
C162 C 0.7003 0.35308 0.05319 0.0
C163 C 0.60781 0.40128 0.99557 0.0
O164 O 0.77008 0.28893 1.00743 0.0
O165 O 0.74331 0.37202 0.94895 0.0
O166 O 0.64904 0.29043 0.9741 0.0
O167 O 0.7617 0.42642 1.01329 0.0
O168 O 0.66776 0.3447 0.04116 0.0
O169 O 0.63846 0.42127 0.98663 0.0
O170 O 0.73786 0.35342 0.04477 0.0
O171 O 0.72768 0.44825 0.98171 0.0
O172 O 0.61002 0.36249 1.00134 0.0
O173 O 0.79471 0.36611 0.97542 0.0
O174 O 0.70419 0.26782 1.01541 0.0
O175 O 0.64881 0.34914 0.9527 0.0
Sc176 Sc 0.61362 0.99639 0.78592 0.0
Sc177 Sc 0.65731 0.07906 0.82069 0.0
Sc178 Sc 0.56163 0.09428 0.78298 0.0
O179 O 0.61155 0.05769 0.79683 0.0
C180 C 0.59085 0.04331 0.73945 0.0
C181 C 0.71349 0.01252 0.79249 0.0
C182 C 0.63869 0.12517 0.77655 0.0
C183 C 0.62889 0.98786 0.84068 0.0
C184 C 0.51205 0.01281 0.79045 0.0
C185 C 0.57553 0.13699 0.83272 0.0
O186 O 0.6157 0.01885 0.7505 0.0
O187 O 0.70894 0.0432 0.80641 0.0
O188 O 0.60471 0.13996 0.76892 0.0
O189 O 0.61681 0.97215 0.82136 0.0
O190 O 0.51653 0.05115 0.79633 0.0
O191 O 0.61136 0.12046 0.83739 0.0
O192 O 0.54367 0.98961 0.78478 0.0
O193 O 0.64151 0.02612 0.84294 0.0
O194 O 0.55543 0.13038 0.81412 0.0
O195 O 0.68213 0.99326 0.78366 0.0
O196 O 0.56144 0.06364 0.74948 0.0
O197 O 0.63468 0.08979 0.78702 0.0
Sc198 Sc 0.76756 0.85925 0.0356 0.0
Sc199 Sc 0.69771 0.89385 0.07814 0.0
Sc200 Sc 0.66095 0.82991 0.03353 0.0
O201 O 0.7087 0.86054 0.04921 0.0
C202 C 0.70926 0.86373 0.99013 0.0
C203 C 0.75881 0.95508 0.04836 0.0
C204 C 0.61975 0.91831 0.048 0.0
C205 C 0.78613 0.86346 0.09081 0.0
C206 C 0.73903 0.76386 0.03066 0.0
C207 C 0.63515 0.81387 0.08492 0.0
O208 O 0.74557 0.85828 0.99941 0.0
O209 O 0.73943 0.94571 0.06707 0.0
O210 O 0.61696 0.88207 0.03842 0.0
O211 O 0.79827 0.86504 0.06975 0.0
O212 O 0.70084 0.77508 0.02661 0.0
O213 O 0.65119 0.84878 0.09179 0.0
O214 O 0.76761 0.79016 0.03703 0.0
O215 O 0.74725 0.8616 0.09616 0.0
O216 O 0.64091 0.79946 0.06477 0.0
O217 O 0.7685 0.92736 0.03331 0.0
O218 O 0.67507 0.85871 1.00114 0.0
O219 O 0.64899 0.92805 0.06188 0.0
Sc220 Sc 0.93231 0.91178 0.28563 0.0
Sc221 Sc 0.85224 0.93941 0.32353 0.0
Sc222 Sc 0.89266 0.01585 0.28523 0.0
O223 O 0.89302 0.95632 0.29839 0.0
C224 C 0.99112 0.99468 0.28216 0.0
C225 C 0.93527 0.8841 0.33653 0.0
C226 C 0.87925 0.02919 0.3407 0.0
C227 C 0.84687 0.86129 0.29161 0.0
C228 C 0.89885 0.95572 0.24022 0.0
C229 C 0.79399 1.00122 0.29301 0.0
O230 O 0.98346 0.95534 0.28022 0.0
O231 O 0.8968 0.89531 0.33939 0.0
O232 O 0.88449 0.0436 0.32012 0.0
O233 O 0.88652 0.86189 0.28818 0.0
O234 O 0.89674 0.9927 0.24931 0.0
O235 O 0.80041 0.97756 0.31044 0.0
O236 O 0.90879 0.92278 0.2516 0.0
O237 O 0.8275 0.88975 0.30279 0.0
O238 O 0.82421 0.01583 0.28082 0.0
O239 O 0.95684 0.89635 0.31923 0.0
O240 O 0.96219 0.02164 0.28714 0.0
O241 O 0.87394 0.98997 0.34508 0.0
Sc242 Sc 0.73545 0.14129 0.53721 0.0
Sc243 Sc 0.80761 0.10458 0.5781 0.0
Sc244 Sc 0.84064 0.17544 0.53638 0.0
O245 O 0.79434 0.14059 0.55059 0.0
C246 C 0.79664 0.14007 0.49233 0.0
C247 C 0.74627 0.04419 0.54818 0.0
C248 C 0.88944 0.09109 0.55129 0.0
C249 C 0.71858 0.13381 0.59252 0.0
C250 C 0.7601 0.23721 0.53193 0.0
C251 C 0.8643 0.18823 0.5873 0.0
O252 O 0.75966 0.14405 0.50127 0.0
O253 O 0.76742 0.05227 0.56643 0.0
O254 O 0.88954 0.12876 0.5434 0.0
O255 O 0.70495 0.13502 0.57166 0.0
O256 O 0.79835 0.22707 0.52763 0.0
O257 O 0.85305 0.15037 0.5922 0.0
O258 O 0.73291 0.21026 0.53912 0.0
O259 O 0.7578 0.13306 0.59716 0.0
O260 O 0.85374 0.20626 0.56857 0.0
O261 O 0.73498 0.07308 0.5341 0.0
O262 O 0.83041 0.14553 0.50381 0.0
O263 O 0.85756 0.07434 0.5608 0.0
Sc264 Sc 0.4262 0.90803 0.25016 0.0
Sc265 Sc 0.35326 0.94487 0.2101 0.0
Sc266 Sc 0.3908 0.01363 0.25264 0.0
O267 O 0.39083 0.95598 0.23749 0.0
C268 C 0.38952 0.94861 0.29583 0.0
C269 C 0.33588 0.86705 0.24116 0.0
C270 C 0.29389 0.00606 0.24049 0.0
C271 C 0.43244 0.88273 0.19918 0.0
C272 C 0.48869 0.98789 0.25594 0.0
C273 C 0.38573 0.0337 0.19711 0.0
O274 O 0.40221 0.91776 0.28375 0.0
O275 O 0.32236 0.89719 0.22881 0.0
O276 O 0.32271 0.01551 0.25483 0.0
O277 O 0.45255 0.89341 0.21714 0.0
O278 O 0.46032 0.01628 0.25266 0.0
O279 O 0.38278 0.99496 0.1912 0.0
O280 O 0.48006 0.94846 0.25648 0.0
O281 O 0.39538 0.89691 0.19497 0.0
O282 O 0.38718 0.04546 0.21837 0.0
O283 O 0.37482 0.86233 0.24644 0.0
O284 O 0.38782 0.98664 0.28804 0.0
O285 O 0.30191 0.98636 0.2218 0.0
Sc286 Sc 0.33909 0.18946 1.00357 0.0
Sc287 Sc 0.3147 0.10815 0.96619 0.0
Sc288 Sc 0.23663 0.14752 1.00381 0.0
O289 O 0.29614 0.14867 0.99099 0.0
C290 C 0.29719 0.15416 0.04878 0.0
C291 C 0.39514 0.10741 0.9958 0.0
C292 C 0.25366 0.04924 0.99687 0.0
C293 C 0.36519 0.19395 0.95302 0.0
C294 C 0.25488 0.24588 1.00715 0.0
C295 C 0.224 0.13199 0.94849 0.0
O296 O 0.33018 0.16379 0.03737 0.0
O297 O 0.36601 0.0856 0.98665 0.0
O298 O 0.23784 0.07942 1.00859 0.0
O299 O 0.35057 0.21521 0.96984 0.0
O300 O 0.22911 0.21671 1.00109 0.0
O301 O 0.26335 0.12738 0.94435 0.0
O302 O 0.29398 0.2387 1.01019 0.0
O303 O 0.35731 0.15454 0.95048 0.0
O304 O 0.20931 0.13787 0.96894 0.0
O305 O 0.39152 0.14687 0.99943 0.0
O306 O 0.26007 0.15279 0.03976 0.0
O307 O 0.27828 0.05549 0.97982 0.0
Sc308 Sc 0.1142 0.98235 0.75318 0.0
Sc309 Sc 0.15647 0.05984 0.71603 0.0
Sc310 Sc 0.07665 0.08669 0.75362 0.0
O311 O 0.11526 0.04218 0.74064 0.0
C312 C 0.01715 0.00468 0.75639 0.0
C313 C 0.12884 0.97086 0.69772 0.0
C314 C 0.07281 0.11438 0.70312 0.0
C315 C 0.2126 0.99549 0.74607 0.0
C316 C 0.10987 0.04206 0.79858 0.0
C317 C 0.16144 0.13665 0.74858 0.0
O318 O 0.04507 0.97754 0.7504 0.0
O319 O 0.13493 0.01018 0.69381 0.0
O320 O 0.05139 0.1007 0.72014 0.0
O321 O 0.18207 0.98091 0.75796 0.0
O322 O 0.10162 0.07567 0.78735 0.0
O323 O 0.18143 0.10804 0.73786 0.0
O324 O 0.10981 0.00506 0.78933 0.0
O325 O 0.20722 0.02043 0.72907 0.0
O326 O 0.12146 0.13707 0.75013 0.0
O327 O 0.12259 0.95584 0.71808 0.0
O328 O 0.02603 0.04341 0.75956 0.0
O329 O 0.11187 0.10486 0.70048 0.0
Sc330 Sc 0.26699 0.85491 0.50126 0.0
Sc331 Sc 0.18443 0.89586 0.46688 0.0
Sc332 Sc 0.16279 0.81612 0.50644 0.0
O333 O 0.20528 0.85513 0.49132 0.0
C334 C 0.2449 0.7563 0.50558 0.0
C335 C 0.27064 0.86535 0.44545 0.0
C336 C 0.1279 0.81292 0.45652 0.0
C337 C 0.25181 0.95379 0.4936 0.0
C338 C 0.21471 0.84977 0.54923 0.0
C339 C 0.11215 0.90255 0.50275 0.0
O340 O 0.2716 0.78524 0.50032 0.0
O341 O 0.23151 0.87415 0.44338 0.0
O342 O 0.14106 0.79213 0.47386 0.0
O343 O 0.26925 0.92347 0.50453 0.0
O344 O 0.18044 0.83798 0.53985 0.0
O345 O 0.13801 0.92091 0.48942 0.0
O346 O 0.24957 0.85404 0.53815 0.0
O347 O 0.22416 0.94753 0.47808 0.0
O348 O 0.11377 0.86324 0.50737 0.0
O349 O 0.28891 0.85918 0.46496 0.0
O350 O 0.20596 0.76415 0.50876 0.0
O351 O 0.13819 0.85142 0.45289 0.0
H352 H 0.2713 0.55218 0.30475 0.0
H353 H 0.23384 0.43914 0.26753 0.0
H354 H 0.30858 0.42725 0.25615 0.0
H355 H 0.34653 0.58758 0.26303 0.0
H356 H 0.38274 0.60863 0.28411 0.0
H357 H 0.32695 0.60643 0.29034 0.0
H358 H 0.34222 0.56323 0.32738 0.0
H359 H 0.39812 0.56526 0.32133 0.0
H360 H 0.37239 0.51482 0.32549 0.0
H361 H 0.38907 0.42788 0.24921 0.0
H362 H 0.46559 0.44387 0.24505 0.0
H363 H 0.4482 0.55852 0.28521 0.0
C364 C 0.27882 0.52457 0.29445 0.0
C365 C 0.24669 0.49623 0.28731 0.0
C366 C 0.25788 0.46115 0.27332 0.0
C367 C 0.30029 0.45412 0.26681 0.0
C368 C 0.33117 0.48278 0.27413 0.0
C369 C 0.32074 0.51755 0.28747 0.0
C370 C 0.3592 0.54492 0.29215 0.0
C371 C 0.35351 0.58951 0.28178 0.0
C372 C 0.36853 0.54717 0.31813 0.0
C373 C 0.39306 0.52006 0.27951 0.0
C374 C 0.37653 0.48409 0.26938 0.0
C375 C 0.40222 0.45608 0.25703 0.0
C376 C 0.44573 0.46531 0.25481 0.0
C377 C 0.46311 0.50253 0.26467 0.0
C378 C 0.43611 0.52994 0.27727 0.0
H379 H 0.2053 0.698 0.53255 0.0
H380 H 0.31459 0.71291 0.48798 0.0
H381 H 0.33225 0.63675 0.49397 0.0
H382 H 0.25402 0.62687 0.57346 0.0
H383 H 0.20606 0.59695 0.57786 0.0
H384 H 0.20322 0.65224 0.57018 0.0
H385 H 0.15623 0.63363 0.53494 0.0
H386 H 0.1588 0.57843 0.54268 0.0
H387 H 0.17487 0.59524 0.51431 0.0
H388 H 0.33369 0.55608 0.50308 0.0
H389 H 0.32185 0.48208 0.51608 0.0
H390 H 0.2137 0.52341 0.55621 0.0
C391 C 0.23308 0.68548 0.52398 0.0
C392 C 0.25838 0.71152 0.50957 0.0
C393 C 0.29474 0.69371 0.49907 0.0
C394 C 0.30488 0.65044 0.50235 0.0
C395 C 0.27872 0.62566 0.51648 0.0
C396 C 0.24381 0.64292 0.52729 0.0
C397 C 0.22049 0.61024 0.54164 0.0
C398 C 0.221 0.6223 0.56731 0.0
C399 C 0.17492 0.60403 0.53286 0.0
C400 C 0.24733 0.57142 0.53713 0.0
C401 C 0.28065 0.58064 0.52246 0.0
C402 C 0.30806 0.54887 0.51484 0.0
C403 C 0.30108 0.50688 0.5223 0.0
C404 C 0.26731 0.49696 0.53751 0.0
C405 C 0.24046 0.52998 0.54509 0.0
H406 H 0.22297 0.46153 0.81021 0.0
H407 H 0.25944 0.56846 0.76757 0.0
H408 H 0.18482 0.57743 0.75535 0.0
H409 H 0.15105 0.41805 0.77007 0.0
H410 H 0.11407 0.39956 0.7915 0.0
H411 H 0.16931 0.40453 0.79858 0.0
H412 H 0.15032 0.45349 0.83288 0.0
H413 H 0.09494 0.44858 0.82595 0.0
H414 H 0.11887 0.50033 0.82787 0.0
H415 H 0.10464 0.57323 0.74712 0.0
H416 H 0.0292 0.55302 0.74185 0.0
H417 H 0.04771 0.44656 0.78818 0.0
C418 C 0.21516 0.48743 0.79868 0.0
C419 C 0.24707 0.51473 0.79015 0.0
C420 C 0.23556 0.54735 0.7745 0.0
C421 C 0.19319 0.55273 0.76749 0.0
C422 C 0.16257 0.5249 0.77601 0.0
C423 C 0.17322 0.49271 0.79118 0.0
C424 C 0.13526 0.46506 0.79656 0.0
C425 C 0.14289 0.41909 0.7887 0.0
C426 C 0.1242 0.467 0.82234 0.0
C427 C 0.10157 0.48653 0.78204 0.0
C428 C 0.11757 0.52134 0.77051 0.0
C429 C 0.09189 0.54596 0.75608 0.0
C430 C 0.04903 0.53436 0.75322 0.0
C431 C 0.03243 0.49805 0.76442 0.0
C432 C 0.05931 0.47429 0.77914 0.0
H433 H 0.29231 0.30342 0.0354 0.0
H434 H 0.1855 0.28921 0.98912 0.0
H435 H 0.16751 0.36528 0.99502 0.0
H436 H 0.24167 0.37517 0.07567 0.0
H437 H 0.28965 0.40472 0.08061 0.0
H438 H 0.2924 0.34935 0.0732 0.0
H439 H 0.34129 0.36735 0.03857 0.0
H440 H 0.33874 0.42262 0.04606 0.0
H441 H 0.32396 0.40572 1.01753 0.0
H442 H 0.16606 0.44606 1.00393 0.0
H443 H 0.17792 0.52011 1.01673 0.0
H444 H 0.28374 0.47819 0.05851 0.0
C445 C 0.26489 0.31604 0.02652 0.0
C446 C 0.24044 0.29022 1.01163 0.0
C447 C 0.20462 0.30819 1.00065 0.0
C448 C 0.19433 0.35143 1.00386 0.0
C449 C 0.21978 0.37608 1.01838 0.0
C450 C 0.25404 0.35863 0.02972 0.0
C451 C 0.27689 0.39128 0.04427 0.0
C452 C 0.27502 0.37941 0.06996 0.0
C453 C 0.32292 0.39707 0.03611 0.0
C454 C 0.25058 0.43029 0.03923 0.0
C455 C 0.21789 0.42119 0.02416 0.0
C456 C 0.19116 0.45316 1.01601 0.0
C457 C 0.19816 0.4952 0.02336 0.0
C458 C 0.23128 0.50501 0.03897 0.0
C459 C 0.25745 0.47178 0.04706 0.0
H460 H 0.54288 0.44629 0.75644 0.0
H461 H 0.52984 0.56238 0.79586 0.0
H462 H 0.60727 0.57454 0.79218 0.0
H463 H 0.64035 0.41273 0.78056 0.0
H464 H 0.66045 0.39136 0.75395 0.0
H465 H 0.60427 0.39292 0.75907 0.0
H466 H 0.5933 0.43537 0.72126 0.0
H467 H 0.64943 0.43358 0.71587 0.0
H468 H 0.62235 0.48388 0.71673 0.0
H469 H 0.6883 0.57072 0.78578 0.0
H470 H 0.76256 0.55416 0.77529 0.0
H471 H 0.71997 0.4416 0.73926 0.0
C472 C 0.556 0.47453 0.76426 0.0
C473 C 0.53 0.50337 0.77653 0.0
C474 C 0.54888 0.53992 0.7863 0.0
C475 C 0.59291 0.54694 0.78436 0.0
C476 C 0.61757 0.51733 0.77244 0.0
C477 C 0.5995 0.48205 0.7624 0.0
C478 C 0.6324 0.45463 0.75062 0.0
C479 C 0.63447 0.41031 0.76172 0.0
C480 C 0.62386 0.45172 0.72458 0.0
C481 C 0.67211 0.47983 0.75555 0.0
C482 C 0.66317 0.51574 0.76831 0.0
C483 C 0.6954 0.54289 0.7756 0.0
C484 C 0.73756 0.53316 0.76961 0.0
C485 C 0.74724 0.4968 0.75623 0.0
C486 C 0.71378 0.47 0.74917 0.0
H487 H 0.803 0.29758 0.50723 0.0
H488 H 0.68991 0.27969 0.54863 0.0
H489 H 0.67277 0.35597 0.54401 0.0
H490 H 0.83128 0.3995 0.52861 0.0
H491 H 0.84946 0.4189 0.5011 0.0
H492 H 0.85205 0.36311 0.50751 0.0
H493 H 0.80819 0.34679 0.47083 0.0
H494 H 0.80549 0.4026 0.46435 0.0
H495 H 0.75749 0.37203 0.46685 0.0
H496 H 0.67093 0.43625 0.53658 0.0
H497 H 0.68198 0.51113 0.52501 0.0
H498 H 0.79437 0.47432 0.487 0.0
C499 C 0.7745 0.3095 0.51533 0.0
C500 C 0.74787 0.28245 0.52841 0.0
C501 C 0.71076 0.29959 0.53849 0.0
C502 C 0.70086 0.34295 0.53601 0.0
C503 C 0.72811 0.36871 0.52318 0.0
C504 C 0.76398 0.3524 0.51284 0.0
C505 C 0.78814 0.3864 0.49984 0.0
C506 C 0.83286 0.39231 0.50987 0.0
C507 C 0.78991 0.37635 0.47393 0.0
C508 C 0.76048 0.42463 0.50457 0.0
C509 C 0.72616 0.414 0.5182 0.0
C510 C 0.69742 0.44471 0.52567 0.0
C511 C 0.70397 0.48718 0.51904 0.0
C512 C 0.73867 0.49859 0.50481 0.0
C513 C 0.76702 0.46662 0.49746 0.0
H514 H 0.77231 0.54056 0.23165 0.0
H515 H 0.73173 0.43552 0.27457 0.0
H516 H 0.80601 0.42319 0.28646 0.0
H517 H 0.8744 0.49685 0.21361 0.0
H518 H 0.90077 0.54741 0.21536 0.0
H519 H 0.84513 0.54509 0.20866 0.0
H520 H 0.82889 0.59501 0.24296 0.0
H521 H 0.88441 0.59745 0.24978 0.0
H522 H 0.84694 0.5808 0.27141 0.0
H523 H 0.88644 0.4238 0.29446 0.0
H524 H 0.96265 0.44094 0.29972 0.0
H525 H 0.94852 0.54774 0.25318 0.0
C526 C 0.77911 0.51439 0.24318 0.0
C527 C 0.74609 0.48861 0.25188 0.0
C528 C 0.7564 0.45554 0.26751 0.0
C529 C 0.7986 0.44823 0.27434 0.0
C530 C 0.83036 0.47455 0.26564 0.0
C531 C 0.82094 0.50717 0.2505 0.0
C532 C 0.86013 0.53298 0.24493 0.0
C533 C 0.87073 0.53041 0.21911 0.0
C534 C 0.85476 0.57929 0.25274 0.0
C535 C 0.89303 0.51003 0.25934 0.0
C536 C 0.8756 0.47602 0.27096 0.0
C537 C 0.90031 0.4504 0.2854 0.0
C538 C 0.94365 0.46022 0.28825 0.0
C539 C 0.96173 0.49578 0.27702 0.0
C540 C 0.93582 0.52048 0.26221 0.0
H541 H 0.70128 0.52538 0.98816 0.0
H542 H 0.81287 0.48831 0.02679 0.0
H543 H 0.82419 0.56325 0.03801 0.0
H544 H 0.73938 0.62652 0.96748 0.0
H545 H 0.68889 0.6524 0.97092 0.0
H546 H 0.6911 0.59636 0.96512 0.0
H547 H 0.64649 0.58155 1.00166 0.0
H548 H 0.64417 0.63747 1.0077 0.0
H549 H 0.66429 0.60129 0.02913 0.0
H550 H 0.82341 0.64364 0.04457 0.0
H551 H 0.80779 0.72034 0.04811 0.0
H552 H 0.69448 0.70317 1.00689 0.0
C553 C 0.72844 0.53303 0.99875 0.0
C554 C 0.75655 0.50092 1.00633 0.0
C555 C 0.79104 0.5123 0.02066 0.0
C556 C 0.79775 0.55483 0.02709 0.0
C557 C 0.76935 0.58566 1.01934 0.0
C558 C 0.73513 0.57511 1.00565 0.0
C559 C 0.70803 0.61367 1.00049 0.0
C560 C 0.7068 0.62277 0.97446 0.0
C561 C 0.6631 0.60816 1.01034 0.0
C562 C 0.73239 0.64771 1.0133 0.0
C563 C 0.7679 0.63111 0.02389 0.0
C564 C 0.79556 0.65685 0.0364 0.0
C565 C 0.78652 0.70047 0.03826 0.0
C566 C 0.74982 0.71802 0.0279 0.0
C567 C 0.72265 0.69095 1.01521 0.0
H568 H 0.78732 0.05258 0.80393 0.0
H569 H 0.73924 0.9454 0.76513 0.0
H570 H 0.81242 0.9278 0.75297 0.0
H571 H 0.8635 0.08449 0.76349 0.0
H572 H 0.90208 0.10017 0.7847 0.0
H573 H 0.8466 0.10221 0.79155 0.0
H574 H 0.85847 0.05401 0.82705 0.0
H575 H 0.91424 0.05203 0.82068 0.0
H576 H 0.88448 0.00355 0.82352 0.0
H577 H 0.89343 0.92396 0.74418 0.0
H578 H 0.97068 0.93675 0.73882 0.0
H579 H 0.96164 0.04627 0.78368 0.0
C580 C 0.79194 0.02503 0.7931 0.0
C581 C 0.75731 1.00025 0.78567 0.0
C582 C 0.76517 0.96486 0.77119 0.0
C583 C 0.8067 0.95456 0.76421 0.0
C584 C 0.84009 0.97992 0.77183 0.0
C585 C 0.83286 0.01446 0.78597 0.0
C586 C 0.8733 0.038 0.79121 0.0
C587 C 0.87123 0.08391 0.78218 0.0
C588 C 0.8832 0.0368 0.81715 0.0
C589 C 0.90457 0.01171 0.77766 0.0
C590 C 0.88532 0.97807 0.76666 0.0
C591 C 0.9087 0.9502 0.75282 0.0
C592 C 0.95257 0.95751 0.74993 0.0
C593 C 0.97228 0.99263 0.76066 0.0
C594 C 0.9477 0.01931 0.77498 0.0
H595 H 0.71301 0.0249 0.06138 0.0
H596 H 0.82403 0.98749 0.02245 0.0
H597 H 0.83562 0.0623 1.01099 0.0
H598 H 0.67558 0.09796 1.02009 0.0
H599 H 0.655 0.13502 0.04089 0.0
H600 H 0.65852 0.07959 0.04802 0.0
H601 H 0.7033 0.09758 0.08404 0.0
H602 H 0.69991 0.15317 0.07709 0.0
H603 H 0.75094 0.12851 0.08084 0.0
H604 H 0.83349 0.14258 1.00289 0.0
H605 H 0.81484 0.21837 0.99696 0.0
H606 H 0.70306 0.20089 0.0394 0.0
C607 C 0.74036 0.03258 0.0509 0.0
C608 C 0.76808 1.00039 0.04317 0.0
C609 C 0.80262 0.01165 0.02878 0.0
C610 C 0.80947 0.0541 0.0222 0.0
C611 C 0.78119 0.08503 0.02988 0.0
C612 C 0.74715 0.07461 0.04381 0.0
C613 C 0.71942 0.11293 0.04827 0.0
C614 C 0.67448 0.10596 0.03874 0.0
C615 C 0.71835 0.12368 0.0741 0.0
C616 C 0.74299 0.14652 0.03465 0.0
C617 C 0.77887 0.13016 0.02438 0.0
C618 C 0.80542 0.15564 1.01089 0.0
C619 C 0.7947 0.1987 1.00765 0.0
C620 C 0.75738 0.21569 1.01755 0.0
C621 C 0.73166 0.18901 0.03138 0.0
H622 H 0.55032 0.94098 0.27717 0.0
H623 H 0.52976 0.06244 0.24382 0.0
H624 H 0.60565 0.08017 0.24963 0.0
H625 H 0.62218 0.97844 0.32066 0.0
H626 H 0.65395 0.93095 0.32009 0.0
H627 H 0.59854 0.92841 0.31294 0.0
H628 H 0.61775 0.89362 0.27407 0.0
H629 H 0.67344 0.89733 0.28043 0.0
H630 H 0.65283 0.92071 0.25444 0.0
H631 H 0.68667 0.08199 0.25761 0.0
H632 H 0.76125 0.07027 0.26961 0.0
H633 H 0.72553 0.94967 0.2998 0.0
C634 C 0.56158 0.97139 0.27101 0.0
C635 C 0.53387 1.0002 0.25985 0.0
C636 C 0.55018 0.03981 0.25241 0.0
C637 C 0.59333 0.05007 0.25559 0.0
C638 C 0.61975 0.02067 0.26655 0.0
C639 C 0.60414 0.98232 0.27435 0.0
C640 C 0.63841 0.95628 0.28595 0.0
C641 C 0.62762 0.94806 0.31142 0.0
C642 C 0.646 0.91451 0.27294 0.0
C643 C 0.67594 0.98581 0.28356 0.0
C644 C 0.66494 0.02261 0.27205 0.0
C645 C 0.69529 0.05348 0.26689 0.0
C646 C 0.73764 0.04655 0.27374 0.0
C647 C 0.74925 0.0094 0.28599 0.0
C648 C 0.71767 0.97886 0.29092 0.0
H649 H 0.79338 0.79596 0.54117 0.0
H650 H 0.68523 0.78262 0.49574 0.0
H651 H 0.66894 0.85909 0.501 0.0
H652 H 0.74471 0.87088 0.58104 0.0
H653 H 0.79344 0.89952 0.58536 0.0
H654 H 0.79477 0.84376 0.5787 0.0
H655 H 0.84357 0.85908 0.54376 0.0
H656 H 0.84228 0.91484 0.55025 0.0
H657 H 0.8267 0.89649 0.52211 0.0
H658 H 0.66911 0.93955 0.5089 0.0
H659 H 0.68248 0.01389 0.52046 0.0
H660 H 0.78868 0.97246 0.56214 0.0
C661 C 0.76598 0.80888 0.53241 0.0
C662 C 0.74066 0.78313 0.51791 0.0
C663 C 0.70499 0.80151 0.50698 0.0
C664 C 0.69563 0.84498 0.50984 0.0
C665 C 0.72185 0.86952 0.52396 0.0
C666 C 0.75599 0.85181 0.53529 0.0
C667 C 0.77978 0.88468 0.54927 0.0
C668 C 0.77805 0.87407 0.57513 0.0
C669 C 0.82579 0.88902 0.54083 0.0
C670 C 0.75424 0.92407 0.54381 0.0
C671 C 0.72101 0.91486 0.52912 0.0
C672 C 0.69466 0.94683 0.52067 0.0
C673 C 0.70255 0.98905 0.52731 0.0
C674 C 0.73628 0.99914 0.54248 0.0
C675 C 0.76208 0.96588 0.55094 0.0
H676 H 0.04803 0.95413 0.25462 0.0
H677 H 0.03528 0.06526 0.298 0.0
H678 H 0.11091 0.08279 0.29065 0.0
H679 H 0.15164 0.92425 0.27139 0.0
H680 H 0.167 0.90751 0.2429 0.0
H681 H 0.11228 0.9052 0.25144 0.0
H682 H 0.09225 0.9514 0.21604 0.0
H683 H 0.14713 0.95401 0.20767 0.0
H684 H 0.11746 0.00216 0.21203 0.0
H685 H 0.19085 0.0838 0.28067 0.0
H686 H 0.26434 0.0713 0.26739 0.0
H687 H 0.22212 0.96176 0.22871 0.0
C688 C 0.06093 0.98232 0.26261 0.0
C689 C 0.03559 0.00815 0.27712 0.0
C690 C 0.05387 0.045 0.28685 0.0
C691 C 0.09687 0.05508 0.28278 0.0
C692 C 0.12098 0.02843 0.26861 0.0
C693 C 0.10329 0.99307 0.25847 0.0
C694 C 0.13541 0.96932 0.24391 0.0
C695 C 0.14195 0.9239 0.25297 0.0
C696 C 0.12227 0.96924 0.2184 0.0
C697 C 0.17449 0.99626 0.24769 0.0
C698 C 0.16571 0.03014 0.26207 0.0
C699 C 0.19769 0.05776 0.26913 0.0
C700 C 0.23942 0.05039 0.26149 0.0
C701 C 0.24904 0.01599 0.24665 0.0
C702 C 0.21578 0.98898 0.23953 0.0
H703 H 0.3083 0.9824 0.99512 0.0
H704 H 0.18057 0.01596 1.01541 0.0
H705 H 0.16753 0.94137 0.02725 0.0
H706 H 0.28838 0.87971 0.9729 0.0
H707 H 0.33598 0.85668 0.98463 0.0
H708 H 0.33447 0.91228 0.97766 0.0
H709 H 0.35578 0.93169 1.01974 0.0
H710 H 0.35899 0.87585 0.02613 0.0
H711 H 0.32587 0.90993 0.04335 0.0
H712 H 0.1687 0.86077 0.03566 0.0
H713 H 0.18514 0.78459 0.04165 0.0
H714 H 0.31343 0.80708 1.01765 0.0
C715 C 0.27744 0.974 1.00187 0.0
C716 C 0.2452 0.00479 1.00402 0.0
C717 C 0.20563 0.99277 1.01352 0.0
C718 C 0.19797 0.95049 1.02026 0.0
C719 C 0.23052 0.92082 1.01785 0.0
C720 C 0.26966 0.93236 1.00916 0.0
C721 C 0.30007 0.8953 1.00917 0.0
C722 C 0.31561 0.88542 0.98463 0.0
C723 C 0.33739 0.90366 0.02557 0.0
C724 C 0.27164 0.86058 1.0184 0.0
C725 C 0.23166 0.87568 0.02344 0.0
C726 C 0.20005 0.84879 0.03189 0.0
C727 C 0.20965 0.8055 0.03523 0.0
C728 C 0.25061 0.78951 0.03024 0.0
C729 C 0.28179 0.81788 0.02181 0.0
H730 H 0.44632 0.06307 0.77848 0.0
H731 H 0.47792 0.93124 0.79114 0.0
H732 H 0.40345 0.9112 0.78205 0.0
H733 H 0.34066 0.06265 0.80105 0.0
H734 H 0.32067 0.09755 0.77898 0.0
H735 H 0.37518 0.10119 0.78783 0.0
H736 H 0.39985 0.09038 0.74574 0.0
H737 H 0.34554 0.08716 0.73658 0.0
H738 H 0.38175 0.04471 0.7299 0.0
H739 H 0.32258 0.90759 0.77243 0.0
H740 H 0.24823 0.91964 0.75977 0.0
H741 H 0.27546 0.05308 0.75021 0.0
C742 C 0.4377 0.02991 0.77977 0.0
C743 C 0.46784 0.99875 0.78605 0.0
C744 C 0.45527 0.95567 0.78666 0.0
C745 C 0.41306 0.94411 0.78154 0.0
C746 C 0.38423 0.97596 0.7754 0.0
C747 C 0.39648 0.01794 0.77427 0.0
C748 C 0.36101 0.04633 0.76599 0.0
C749 C 0.34867 0.07883 0.78457 0.0
C750 C 0.37275 0.06841 0.74319 0.0
C751 C 0.32649 0.01392 0.76252 0.0
C752 C 0.33988 0.97354 0.7684 0.0
C753 C 0.31216 0.93902 0.76753 0.0
C754 C 0.27005 0.94609 0.76037 0.0
C755 C 0.25654 0.9871 0.75363 0.0
C756 C 0.28526 0.02121 0.75476 0.0
H757 H 0.19346 0.19739 0.5096 0.0
H758 H 0.31311 0.21642 0.54481 0.0
H759 H 0.33073 0.14052 0.53869 0.0
H760 H 0.17163 0.09426 0.53151 0.0
H761 H 0.1492 0.07484 0.50505 0.0
H762 H 0.14568 0.13037 0.51197 0.0
H763 H 0.18205 0.15042 0.47357 0.0
H764 H 0.18476 0.09515 0.466 0.0
H765 H 0.23227 0.12681 0.46624 0.0
H766 H 0.33301 0.05991 0.52959 0.0
H767 H 0.32121 0.98563 0.51701 0.0
H768 H 0.2017 0.02308 0.48633 0.0
C769 C 0.22341 0.18583 0.51616 0.0
C770 C 0.25178 0.21308 0.52786 0.0
C771 C 0.2908 0.19632 0.53582 0.0
C772 C 0.30103 0.15319 0.53244 0.0
C773 C 0.27214 0.1273 0.52083 0.0
C774 C 0.23424 0.14331 0.51271 0.0
C775 C 0.20857 0.1096 0.50055 0.0
C776 C 0.16627 0.10186 0.51302 0.0
C777 C 0.20152 0.1212 0.47508 0.0
C778 C 0.23779 0.07189 0.50299 0.0
C779 C 0.27419 0.08233 0.51491 0.0
C780 C 0.30478 0.05169 0.52003 0.0
C781 C 0.29783 0.00954 0.51282 0.0
C782 C 0.26086 0.99847 0.50035 0.0
C783 C 0.23077 0.03042 0.49537 0.0
H784 H 0.23313 0.65529 0.29063 0.0
H785 H 0.11334 0.72307 0.28892 0.0
H786 H 0.15074 0.78856 0.27827 0.0
H787 H 0.29941 0.74367 0.31176 0.0
H788 H 0.34324 0.72958 0.2934 0.0
H789 H 0.30799 0.68902 0.30395 0.0
H790 H 0.29344 0.66481 0.262 0.0
H791 H 0.32858 0.70526 0.25139 0.0
H792 H 0.27472 0.70293 0.2412 0.0
H793 H 0.19817 0.84369 0.26509 0.0
H794 H 0.25413 0.88788 0.24858 0.0
H795 H 0.34465 0.78512 0.25738 0.0
C796 C 0.21496 0.68417 0.28847 0.0
C797 C 0.17049 0.68448 0.29088 0.0
C798 C 0.1475 0.72241 0.28734 0.0
C799 C 0.16842 0.75972 0.28138 0.0
C800 C 0.21217 0.75826 0.27887 0.0
C801 C 0.23531 0.72162 0.28219 0.0
C802 C 0.28156 0.72809 0.27625 0.0
C803 C 0.3097 0.72225 0.29762 0.0
C804 C 0.29536 0.69853 0.25654 0.0
C805 C 0.28042 0.77392 0.26855 0.0
C806 C 0.24006 0.79055 0.27054 0.0
C807 C 0.23 0.83133 0.26353 0.0
C808 C 0.26201 0.85592 0.25397 0.0
C809 C 0.30361 0.83957 0.25145 0.0
C810 C 0.31314 0.79827 0.25917 0.0
H811 H 0.03686 0.40238 0.52655 0.0
H812 H 0.13858 0.49458 0.53195 0.0
H813 H 0.09198 0.54976 0.51628 0.0
H814 H 0.98788 0.44744 0.47321 0.0
H815 H 0.93488 0.43705 0.48333 0.0
H816 H 0.97781 0.40274 0.49182 0.0
H817 H 0.95927 0.41547 0.53477 0.0
H818 H 0.91652 0.44987 0.52643 0.0
H819 H 0.95712 0.46899 0.5456 0.0
H820 H 0.03424 0.5962 0.50504 0.0
H821 H 0.96652 0.63255 0.49807 0.0
H822 H 0.9011 0.51139 0.49956 0.0
C823 C 0.04935 0.43402 0.52399 0.0
C824 C 0.09097 0.44444 0.53057 0.0
C825 C 0.10644 0.48618 0.52729 0.0
C826 C 0.08045 0.51764 0.51818 0.0
C827 C 0.03926 0.50673 0.51238 0.0
C828 C 0.02364 0.46604 0.51504 0.0
C829 C 0.97692 0.46407 0.50943 0.0
C830 C 0.96892 0.43618 0.48817 0.0
C831 C 0.95095 0.44871 0.5303 0.0
C832 C 0.96864 0.51032 0.50419 0.0
C833 C 0.00525 0.53412 0.50567 0.0
C834 C 0.00537 0.578 0.50341 0.0
C835 C 0.96679 0.59832 0.49969 0.0
C836 C 0.92886 0.57462 0.49833 0.0
C837 C 0.92986 0.53006 0.50023 0.0
H838 H 0.34726 0.29903 0.77269 0.0
H839 H 0.26804 0.34854 0.82772 0.0
H840 H 0.21826 0.28978 0.82228 0.0
H841 H 0.26719 0.27284 0.73621 0.0
H842 H 0.28959 0.22425 0.72533 0.0
H843 H 0.32379 0.26537 0.73593 0.0
H844 H 0.358 0.21286 0.76482 0.0
H845 H 0.32437 0.17115 0.7541 0.0
H846 H 0.32481 0.18344 0.78442 0.0
H847 H 0.17249 0.23447 0.80764 0.0
H848 H 0.13375 0.18058 0.78566 0.0
H849 H 0.24199 0.16492 0.74018 0.0
C850 C 0.32004 0.29676 0.78399 0.0
C851 C 0.31134 0.32827 0.80053 0.0
C852 C 0.2751 0.32482 0.8148 0.0
C853 C 0.2468 0.29142 0.81199 0.0
C854 C 0.25548 0.26168 0.79503 0.0
C855 C 0.29136 0.26353 0.78142 0.0
C856 C 0.2908 0.22963 0.763 0.0
C857 C 0.29294 0.24921 0.73869 0.0
C858 C 0.32662 0.19735 0.76682 0.0
C859 C 0.24798 0.2101 0.76774 0.0
C860 C 0.22857 0.2288 0.7865 0.0
C861 C 0.18753 0.21891 0.79318 0.0
C862 C 0.16565 0.18871 0.78041 0.0
C863 C 0.18495 0.169 0.76118 0.0
C864 C 0.22677 0.17944 0.75492 0.0
H865 H 0.59539 0.48667 0.99907 0.0
H866 H 0.52993 0.36549 0.99987 0.0
H867 H 0.46261 0.40211 1.00752 0.0
H868 H 0.54225 0.53012 0.04531 0.0
H869 H 0.53967 0.58337 0.03405 0.0
H870 H 0.58173 0.54858 0.02522 0.0
H871 H 0.56107 0.56014 0.98242 0.0
H872 H 0.51883 0.59503 0.99118 0.0
H873 H 0.50749 0.54979 0.97328 0.0
H874 H 0.40543 0.44908 1.01913 0.0
H875 H 0.35963 0.50498 0.03469 0.0
H876 H 0.46124 0.59672 0.02661 0.0
C877 C 0.56669 0.46801 1.00037 0.0
C878 C 0.56762 0.4234 0.99893 0.0
C879 C 0.52976 0.39976 1.00111 0.0
C880 C 0.49139 0.42024 1.00522 0.0
C881 C 0.49164 0.46419 1.00698 0.0
C882 C 0.52813 0.48792 1.0046 0.0
C883 C 0.52019 0.53434 1.0095 0.0
C884 C 0.54757 0.54999 0.02972 0.0
C885 C 0.52731 0.56141 0.98779 0.0
C886 C 0.47385 0.53255 1.01592 0.0
C887 C 0.45803 0.49183 1.01396 0.0
C888 C 0.4171 0.48123 0.02047 0.0
C889 C 0.39158 0.51311 0.0295 0.0
C890 C 0.40725 0.55496 0.03197 0.0
C891 C 0.44858 0.56501 0.0247 0.0
H892 H 0.76472 0.33863 0.76145 0.0
H893 H 0.87985 0.26393 0.75704 0.0
H894 H 0.83941 0.19951 0.76755 0.0
H895 H 0.71846 0.28027 0.81042 0.0
H896 H 0.66557 0.28545 0.7992 0.0
H897 H 0.70427 0.32598 0.79337 0.0
H898 H 0.69188 0.31744 0.7494 0.0
H899 H 0.65256 0.27768 0.75524 0.0
H900 H 0.6966 0.26564 0.73658 0.0
H901 H 0.78468 0.14269 0.77343 0.0
H902 H 0.72044 0.09828 0.77546 0.0
H903 H 0.64248 0.21112 0.77849 0.0
C904 C 0.7815 0.30877 0.7629 0.0
C905 C 0.82521 0.30599 0.75835 0.0
C906 C 0.84627 0.26656 0.76057 0.0
C907 C 0.82363 0.22993 0.76655 0.0
C908 C 0.78031 0.23371 0.77067 0.0
C909 C 0.75961 0.27224 0.76915 0.0
C910 C 0.71269 0.26773 0.77336 0.0
C911 C 0.6995 0.29125 0.79541 0.0
C912 C 0.68694 0.283 0.75239 0.0
C913 C 0.70979 0.22029 0.77643 0.0
C914 C 0.74916 0.20121 0.7751 0.0
C915 C 0.75388 0.15729 0.77533 0.0
C916 C 0.71732 0.13228 0.77677 0.0
C917 C 0.6769 0.15134 0.778 0.0
C918 C 0.6732 0.19584 0.77806 0.0
H919 H 0.76934 0.83052 0.30432 0.0
H920 H 0.86876 0.81859 0.25291 0.0
H921 H 0.82614 0.76592 0.23209 0.0
H922 H 0.74435 0.72087 0.30632 0.0
H923 H 0.68831 0.72899 0.31021 0.0
H924 H 0.72524 0.76822 0.32026 0.0
H925 H 0.68596 0.82492 0.29616 0.0
H926 H 0.64953 0.78569 0.28545 0.0
H927 H 0.67966 0.81754 0.26552 0.0
H928 H 0.77575 0.71436 0.21758 0.0
H929 H 0.72239 0.6588 0.21209 0.0
H930 H 0.65532 0.70208 0.27311 0.0
C931 C 0.7819 0.81693 0.28861 0.0
C932 C 0.8222 0.82832 0.2802 0.0
C933 C 0.83806 0.80978 0.25975 0.0
C934 C 0.81393 0.78038 0.24762 0.0
C935 C 0.77422 0.77003 0.25624 0.0
C936 C 0.75841 0.78715 0.27638 0.0
C937 C 0.71627 0.76764 0.28278 0.0
C938 C 0.71874 0.74508 0.30628 0.0
C939 C 0.68076 0.80096 0.28244 0.0
C940 C 0.71144 0.73637 0.26327 0.0
C941 C 0.74496 0.73897 0.24801 0.0
C942 C 0.74915 0.71202 0.22928 0.0
C943 C 0.7188 0.68051 0.22641 0.0
C944 C 0.68503 0.67618 0.24231 0.0
C945 C 0.68063 0.70512 0.26061 0.0
H946 H 0.54813 0.91247 0.02111 0.0
H947 H 0.62445 1.0012 0.0607 0.0
H948 H 0.57763 0.05926 0.04921 0.0
H949 H 0.52467 0.98536 0.97404 0.0
H950 H 0.47125 0.96644 0.97046 0.0
H951 H 0.5118 0.93112 0.98092 0.0
H952 H 0.46665 0.91479 1.01742 0.0
H953 H 0.42611 0.94939 1.00645 0.0
H954 H 0.4477 0.95819 0.0348 0.0
H955 H 0.5239 0.10745 0.03434 0.0
H956 H 0.46094 0.1433 1.01904 0.0
H957 H 0.41773 0.0242 0.9895 0.0
C958 C 0.55494 0.94408 0.02736 0.0
C959 C 0.58987 0.95214 0.04182 0.0
C960 C 0.59774 0.99401 0.04969 0.0
C961 C 0.57156 0.02741 0.04314 0.0
C962 C 0.53772 0.01848 0.02875 0.0
C963 C 0.52899 0.97798 0.02106 0.0
C964 C 0.48948 0.97726 1.00637 0.0
C965 C 0.49994 0.96428 0.98147 0.0
C966 C 0.45549 0.94819 1.01693 0.0
C967 C 0.47688 0.02346 1.00772 0.0
C968 C 0.50571 0.04667 0.02035 0.0
C969 C 0.50095 0.0898 0.02438 0.0
C970 C 0.46505 0.1098 1.01562 0.0
C971 C 0.43429 0.08644 1.00321 0.0
C972 C 0.44067 0.04285 0.99895 0.0
H973 H 0.0797 0.97833 0.4887 0.0
H974 H 0.07519 0.88547 0.54403 0.0
H975 H 0.02499 0.93068 0.56522 0.0
H976 H 0.06925 0.07346 0.5249 0.0
H977 H 0.03506 0.10039 0.50477 0.0
H978 H 0.07438 0.06369 0.49439 0.0
H979 H 0.01749 0.01976 0.47317 0.0
H980 H 0.97818 0.05712 0.48257 0.0
H981 H 0.97165 1.00149 0.48883 0.0
H982 H 0.97199 0.98106 0.57858 0.0
H983 H 0.91324 0.03168 0.58222 0.0
H984 H 0.95115 0.09249 0.51829 0.0
C985 C 0.06841 0.96781 0.50539 0.0
C986 C 0.08097 0.92855 0.51478 0.0
C987 C 0.06537 0.91532 0.53648 0.0
C988 C 0.03741 0.94099 0.54876 0.0
C989 C 0.02565 0.97957 0.53905 0.0
C990 C 0.04025 0.99286 0.51779 0.0
C991 C 0.01917 0.03359 0.51022 0.0
C992 C 0.05141 0.06993 0.50849 0.0
C993 C 0.99519 0.02757 0.48736 0.0
C994 C 0.9892 0.04013 0.53017 0.0
C995 C 0.99427 0.00906 0.54681 0.0
C996 C 0.96799 0.00593 0.5659 0.0
C997 C 0.93463 0.03457 0.56769 0.0
C998 C 0.9279 0.06558 0.55041 0.0
C999 C 0.95623 0.06935 0.53183 0.0
H1000 H 0.097 0.48041 0.38607 0.0
H1001 H 0.16327 0.39957 0.33769 0.0
H1002 H 0.1957 0.36045 0.37027 0.0
H1003 H 0.17762 0.49066 0.42632 0.0
H1004 H 0.14417 0.48853 0.45148 0.0
H1005 H 0.1232 0.50764 0.42456 0.0
H1006 H 0.06333 0.45156 0.42607 0.0
H1007 H 0.08352 0.43312 0.45332 0.0
H1008 H 0.0767 0.39641 0.42984 0.0
H1009 H 0.2283 0.3362 0.40904 0.0
H1010 H 0.24692 0.32082 0.4499 0.0
H1011 H 0.15596 0.41501 0.47221 0.0
C1012 C 0.11728 0.4536 0.38232 0.0
C1013 C 0.12718 0.44282 0.35925 0.0
C1014 C 0.15445 0.40792 0.35514 0.0
C1015 C 0.17348 0.38585 0.37359 0.0
C1016 C 0.16441 0.39851 0.39612 0.0
C1017 C 0.13589 0.43082 0.4005 0.0
C1018 C 0.1315 0.43864 0.42617 0.0
C1019 C 0.14493 0.48406 0.43249 0.0
C1020 C 0.08607 0.42935 0.43433 0.0
C1021 C 0.16254 0.40631 0.43559 0.0
C1022 C 0.18173 0.3837 0.41808 0.0
C1023 C 0.21296 0.35339 0.42284 0.0
C1024 C 0.22375 0.34513 0.44605 0.0
C1025 C 0.20297 0.36674 0.46416 0.0
C1026 C 0.17234 0.39794 0.45869 0.0
H1027 H 0.331 0.39842 0.72315 0.0
H1028 H 0.42067 0.49557 0.70297 0.0
H1029 H 0.40894 0.47719 0.66181 0.0
H1030 H 0.35572 0.32143 0.68005 0.0
H1031 H 0.30149 0.30569 0.67559 0.0
H1032 H 0.31791 0.32579 0.70321 0.0
H1033 H 0.25996 0.38377 0.70143 0.0
H1034 H 0.24281 0.36335 0.67404 0.0
H1035 H 0.25733 0.41839 0.67671 0.0
H1036 H 0.38872 0.44502 0.6225 0.0
H1037 H 0.35246 0.41284 0.58899 0.0
H1038 H 0.27272 0.34035 0.63534 0.0
C1039 C 0.34803 0.41601 0.71004 0.0
C1040 C 0.3769 0.44837 0.71623 0.0
C1041 C 0.39822 0.47091 0.6986 0.0
C1042 C 0.39205 0.46032 0.67521 0.0
C1043 C 0.36396 0.42754 0.66974 0.0
C1044 C 0.34155 0.40649 0.68671 0.0
C1045 C 0.31119 0.37442 0.67644 0.0
C1046 C 0.32226 0.32916 0.68429 0.0
C1047 C 0.2651 0.38567 0.68251 0.0
C1048 C 0.31994 0.38046 0.65094 0.0
C1049 C 0.35109 0.41059 0.64739 0.0
C1050 C 0.36427 0.42149 0.62517 0.0
C1051 C 0.34386 0.40258 0.60618 0.0
C1052 C 0.31004 0.37365 0.60945 0.0
C1053 C 0.29881 0.36189 0.63222 0.0
H1054 H 0.40726 0.5371 0.88422 0.0
H1055 H 0.32793 0.60915 0.83752 0.0
H1056 H 0.29483 0.64537 0.87088 0.0
H1057 H 0.33149 0.5182 0.92603 0.0
H1058 H 0.36641 0.5235 0.95041 0.0
H1059 H 0.3872 0.50701 0.92298 0.0
H1060 H 0.44097 0.56904 0.92331 0.0
H1061 H 0.4211 0.58492 0.95108 0.0
H1062 H 0.42225 0.62245 0.92763 0.0
H1063 H 0.26341 0.66641 0.9107 0.0
H1064 H 0.24642 0.67891 0.95206 0.0
H1065 H 0.34861 0.5946 0.97163 0.0
C1066 C 0.38399 0.56161 0.88094 0.0
C1067 C 0.37065 0.57064 0.85816 0.0
C1068 C 0.33944 0.60234 0.85471 0.0
C1069 C 0.32002 0.62266 0.87363 0.0
C1070 C 0.33254 0.61142 0.89593 0.0
C1071 C 0.36473 0.5824 0.89955 0.0
C1072 C 0.37191 0.57477 0.92505 0.0
C1073 C 0.36376 0.52811 0.93148 0.0
C1074 C 0.41671 0.58865 0.93219 0.0
C1075 C 0.33844 0.60352 0.93529 0.0
C1076 C 0.31556 0.62416 0.91836 0.0
C1077 C 0.28163 0.65081 0.92403 0.0
C1078 C 0.27183 0.65742 0.94754 0.0
C1079 C 0.29621 0.63785 0.96504 0.0
C1080 C 0.32955 0.61027 0.95864 0.0
H1081 H 0.23122 0.65478 0.13746 0.0
H1082 H 0.14016 0.60098 0.08988 0.0
H1083 H 0.09949 0.57201 0.12281 0.0
H1084 H 0.23377 0.57073 0.17642 0.0
H1085 H 0.23765 0.60281 0.20201 0.0
H1086 H 0.25752 0.62265 0.17499 0.0
H1087 H 0.2099 0.68922 0.17843 0.0
H1088 H 0.19069 0.67004 0.20575 0.0
H1089 H 0.15381 0.68288 0.18308 0.0
H1090 H 0.07397 0.54069 0.16142 0.0
H1091 H 0.05927 0.52112 0.20219 0.0
H1092 H 0.16452 0.59908 0.22421 0.0
C1093 C 0.20204 0.63797 0.13395 0.0
C1094 C 0.1888 0.63051 0.11097 0.0
C1095 C 0.15067 0.60783 0.10724 0.0
C1096 C 0.12759 0.59078 0.12588 0.0
C1097 C 0.14259 0.5972 0.14825 0.0
C1098 C 0.17836 0.6213 0.15235 0.0
C1099 C 0.18827 0.62325 0.17792 0.0
C1100 C 0.23188 0.60369 0.18313 0.0
C1101 C 0.18548 0.66907 0.18682 0.0
C1102 C 0.15288 0.59605 0.1876 0.0
C1103 C 0.12711 0.58074 0.17026 0.0
C1104 C 0.09365 0.55305 0.1751 0.0
C1105 C 0.08574 0.54172 0.19825 0.0
C1106 C 0.11082 0.55849 0.21624 0.0
C1107 C 0.14484 0.58584 0.21073 0.0
H1108 H 0.84042 0.57524 0.56899 0.0
H1109 H 0.763 0.68042 0.59184 0.0
H1110 H 0.78038 0.66296 0.63256 0.0
H1111 H 0.80833 0.50362 0.61494 0.0
H1112 H 0.85957 0.47866 0.61678 0.0
H1113 H 0.84187 0.50082 0.58984 0.0
H1114 H 0.90969 0.54675 0.58798 0.0
H1115 H 0.92726 0.52535 0.61514 0.0
H1116 H 0.92203 0.58188 0.61152 0.0
H1117 H 0.81007 0.63531 0.67102 0.0
H1118 H 0.83779 0.59309 0.7037 0.0
H1119 H 0.89077 0.50235 0.65561 0.0
C1120 C 0.8269 0.59436 0.58262 0.0
C1121 C 0.80036 0.62922 0.57734 0.0
C1122 C 0.78309 0.65342 0.59557 0.0
C1123 C 0.79315 0.64392 0.6187 0.0
C1124 C 0.81998 0.60963 0.62334 0.0
C1125 C 0.83574 0.58463 0.60577 0.0
C1126 C 0.86175 0.54807 0.61529 0.0
C1127 C 0.84167 0.50526 0.60883 0.0
C1128 C 0.90792 0.55069 0.60698 0.0
C1129 C 0.8585 0.55643 0.64099 0.0
C1130 C 0.835 0.59256 0.6453 0.0
C1131 C 0.82828 0.60687 0.66777 0.0
C1132 C 0.8446 0.58289 0.68628 0.0
C1133 C 0.86676 0.54448 0.68233 0.0
C1134 C 0.87424 0.53167 0.65927 0.0
H1135 H 0.65837 0.60956 0.32016 0.0
H1136 H 0.574 0.50677 0.33881 0.0
H1137 H 0.58667 0.52203 0.38025 0.0
H1138 H 0.73496 0.58833 0.3644 0.0
H1139 H 0.74752 0.64349 0.36876 0.0
H1140 H 0.72932 0.62568 0.34104 0.0
H1141 H 0.66859 0.68096 0.34236 0.0
H1142 H 0.6868 0.69875 0.37012 0.0
H1143 H 0.63282 0.68141 0.36655 0.0
H1144 H 0.60774 0.55103 0.42017 0.0
H1145 H 0.64516 0.58067 0.45403 0.0
H1146 H 0.71986 0.66037 0.40874 0.0
C1147 C 0.64253 0.59023 0.33298 0.0
C1148 C 0.61492 0.55711 0.32627 0.0
C1149 C 0.59535 0.53216 0.34355 0.0
C1150 C 0.60208 0.54093 0.36712 0.0
C1151 C 0.62902 0.57433 0.37314 0.0
C1152 C 0.64967 0.5979 0.35648 0.0
C1153 C 0.67951 0.62992 0.36726 0.0
C1154 C 0.72555 0.62131 0.35994 0.0
C1155 C 0.66612 0.67547 0.36122 0.0
C1156 C 0.67272 0.62071 0.39266 0.0
C1157 C 0.64271 0.58929 0.39578 0.0
C1158 C 0.63128 0.57559 0.41784 0.0
C1159 C 0.65231 0.59304 0.43704 0.0
C1160 C 0.68507 0.62327 0.43412 0.0
C1161 C 0.69455 0.63779 0.41159 0.0
H1162 H 0.63812 0.40318 0.07093 0.0
H1163 H 0.74572 0.32645 0.09112 0.0
H1164 H 0.72897 0.34005 0.13232 0.0
H1165 H 0.65403 0.48307 0.11401 0.0
H1166 H 0.59823 0.49263 0.11797 0.0
H1167 H 0.6176 0.47411 0.09061 0.0
H1168 H 0.56568 0.41067 0.09275 0.0
H1169 H 0.54672 0.42856 0.12036 0.0
H1170 H 0.56732 0.37557 0.11728 0.0
H1171 H 0.69839 0.36157 0.17177 0.0
H1172 H 0.66638 0.39927 0.2049 0.0
H1173 H 0.58241 0.46601 0.15826 0.0
C1174 C 0.65812 0.38913 0.08405 0.0
C1175 C 0.69304 0.36342 0.07787 0.0
C1176 C 0.7189 0.34628 0.09549 0.0
C1177 C 0.70933 0.35354 0.11891 0.0
C1178 C 0.67419 0.3786 0.12442 0.0
C1179 C 0.64962 0.3969 0.10738 0.0
C1180 C 0.61577 0.42536 0.11759 0.0
C1181 C 0.62179 0.47152 0.10958 0.0
C1182 C 0.57124 0.40905 0.11164 0.0
C1183 C 0.62498 0.42041 0.1431 0.0
C1184 C 0.65815 0.39256 0.14677 0.0
C1185 C 0.67242 0.38338 0.16901 0.0
C1186 C 0.65364 0.40454 0.1878 0.0
C1187 C 0.62147 0.43521 0.18426 0.0
C1188 C 0.60646 0.44229 0.16159 0.0
H1189 H 0.84194 0.38683 0.82164 0.0
H1190 H 0.92791 0.48833 0.83987 0.0
H1191 H 0.91425 0.4742 0.8814 0.0
H1192 H 0.765 0.41078 0.86546 0.0
H1193 H 0.75109 0.35599 0.87006 0.0
H1194 H 0.77008 0.37304 0.84232 0.0
H1195 H 0.82899 0.31605 0.84421 0.0
H1196 H 0.81074 0.29937 0.87221 0.0
H1197 H 0.86503 0.31546 0.86829 0.0
H1198 H 0.89188 0.44648 0.92138 0.0
H1199 H 0.85316 0.41831 0.95526 0.0
H1200 H 0.77794 0.33904 0.91019 0.0
C1201 C 0.85786 0.40611 0.83441 0.0
C1202 C 0.8862 0.43852 0.82763 0.0
C1203 C 0.90599 0.46349 0.84475 0.0
C1204 C 0.89869 0.45535 0.86834 0.0
C1205 C 0.87099 0.42259 0.87447 0.0
C1206 C 0.85014 0.3991 0.8579 0.0
C1207 C 0.81944 0.36794 0.86874 0.0
C1208 C 0.77371 0.37754 0.8612 0.0
C1209 C 0.83181 0.32199 0.86302 0.0
C1210 C 0.82612 0.37744 0.89408 0.0
C1211 C 0.85666 0.40834 0.89713 0.0
C1212 C 0.86792 0.42232 0.91912 0.0
C1213 C 0.84616 0.40572 0.93833 0.0
C1214 C 0.8129 0.37607 0.93543 0.0
C1215 C 0.80362 0.36119 0.91299 0.0
H1216 H 0.6212 0.00684 0.88684 0.0
H1217 H 0.65515 0.90521 0.84013 0.0
H1218 H 0.68219 0.86317 0.87303 0.0
H1219 H 0.70782 0.99961 0.92402 0.0
H1220 H 0.67874 0.00889 0.95026 0.0
H1221 H 0.65958 0.03017 0.92341 0.0
H1222 H 0.58764 0.99219 0.92918 0.0
H1223 H 0.60622 0.97165 0.95633 0.0
H1224 H 0.58673 0.9359 0.9346 0.0
H1225 H 0.71336 0.8356 0.91104 0.0
H1226 H 0.73278 0.81923 0.95161 0.0
H1227 H 0.67352 0.93615 0.97366 0.0
C1228 C 0.63331 0.97527 0.88361 0.0
C1229 C 0.63575 0.95925 0.86084 0.0
C1230 C 0.65222 0.91793 0.85739 0.0
C1231 C 0.66816 0.894 0.87598 0.0
C1232 C 0.66666 0.91135 0.89809 0.0
C1233 C 0.64839 0.95053 0.90205 0.0
C1234 C 0.64993 0.96172 0.92749 0.0
C1235 C 0.67555 0.00252 0.93152 0.0
C1236 C 0.60496 0.96558 0.93748 0.0
C1237 C 0.67281 0.92326 0.93714 0.0
C1238 C 0.68275 0.89475 0.9199 0.0
C1239 C 0.70529 0.85756 0.92467 0.0
C1240 C 0.71668 0.84869 0.94768 0.0
C1241 C 0.70511 0.87664 0.96564 0.0
C1242 C 0.68314 0.91446 0.96018 0.0
H1243 H 0.78469 0.83671 0.13593 0.0
H1244 H 0.85236 0.91916 0.0888 0.0
H1245 H 0.88908 0.95254 0.12176 0.0
H1246 H 0.76702 0.90923 0.17965 0.0
H1247 H 0.77613 0.87322 0.20329 0.0
H1248 H 0.75797 0.85319 0.17602 0.0
H1249 H 0.82187 0.80209 0.17422 0.0
H1250 H 0.84035 0.82175 0.20155 0.0
H1251 H 0.87483 0.82288 0.17683 0.0
H1252 H 0.91043 0.98421 0.16096 0.0
H1253 H 0.92475 1.00134 0.20206 0.0
H1254 H 0.84764 0.89438 0.22295 0.0
C1255 C 0.8083 0.86081 0.1325 0.0
C1256 C 0.81596 0.87493 0.10969 0.0
C1257 C 0.84658 0.9071 0.106 0.0
C1258 C 0.86723 0.92666 0.12469 0.0
C1259 C 0.85767 0.91315 0.14702 0.0
C1260 C 0.82989 0.87998 0.15091 0.0
C1261 C 0.82501 0.87134 0.1765 0.0
C1262 C 0.77879 0.87711 0.18431 0.0
C1263 C 0.84151 0.82686 0.18263 0.0
C1264 C 0.85329 0.90558 0.18644 0.0
C1265 C 0.87156 0.92979 0.16925 0.0
C1266 C 0.89689 0.96489 0.17451 0.0
C1267 C 0.90457 0.97469 0.19787 0.0
C1268 C 0.88754 0.94908 0.21563 0.0
C1269 C 0.86145 0.91429 0.2097 0.0
H1270 H 0.84939 0.08056 0.47419 0.0
H1271 H 0.75706 0.17558 0.45463 0.0
H1272 H 0.77384 0.16283 0.41334 0.0
H1273 H 0.92649 0.10077 0.43047 0.0
H1274 H 0.93906 0.04562 0.42603 0.0
H1275 H 0.92031 0.0633 0.45371 0.0
H1276 H 0.85941 0.00846 0.4523 0.0
H1277 H 0.87833 0.99028 0.42478 0.0
H1278 H 0.8243 0.00786 0.42782 0.0
H1279 H 0.80435 0.14113 0.37376 0.0
H1280 H 0.83426 0.10345 0.34002 0.0
H1281 H 0.90241 0.01916 0.38593 0.0
C1282 C 0.83245 0.09846 0.46118 0.0
C1283 C 0.80193 0.12913 0.46757 0.0
C1284 C 0.78025 0.15171 0.45009 0.0
C1285 C 0.78997 0.14495 0.42663 0.0
C1286 C 0.82095 0.115 0.42092 0.0
C1287 C 0.84102 0.09138 0.43777 0.0
C1288 C 0.87111 0.05926 0.42726 0.0
C1289 C 0.91697 0.06777 0.43481 0.0
C1290 C 0.85745 0.01378 0.4334 0.0
C1291 C 0.86513 0.06844 0.40181 0.0
C1292 C 0.83676 0.10129 0.39845 0.0
C1293 C 0.82646 0.11532 0.37629 0.0
C1294 C 0.84409 0.09409 0.35717 0.0
C1295 C 0.87111 0.05865 0.36026 0.0
C1296 C 0.88232 0.04647 0.38296 0.0
H1297 H 0.74087 0.11267 0.63649 0.0
H1298 H 0.63021 0.13477 0.59376 0.0
H1299 H 0.58428 0.11301 0.62654 0.0
H1300 H 0.70386 0.01895 0.66232 0.0
H1301 H 0.72803 0.02946 0.68985 0.0
H1302 H 0.75131 0.05056 0.66394 0.0
H1303 H 0.7473 0.12664 0.68065 0.0
H1304 H 0.72466 0.10571 0.70678 0.0
H1305 H 0.69732 0.14664 0.69099 0.0
H1306 H 0.55088 0.0884 0.66545 0.0
H1307 H 0.53426 0.06258 0.70488 0.0
H1308 H 0.66833 0.05069 0.71923 0.0
C1309 C 0.70695 0.11383 0.63388 0.0
C1310 C 0.6893 0.12617 0.6124 0.0
C1311 C 0.64464 0.12606 0.61002 0.0
C1312 C 0.61833 0.11353 0.62856 0.0
C1313 C 0.63717 0.10061 0.64926 0.0
C1314 C 0.68059 0.10069 0.65186 0.0
C1315 C 0.69378 0.08355 0.67518 0.0
C1316 C 0.72083 0.04324 0.67266 0.0
C1317 C 0.71713 0.11767 0.68922 0.0
C1318 C 0.651 0.07358 0.68552 0.0
C1319 C 0.61854 0.08408 0.67054 0.0
C1320 C 0.5762 0.07964 0.67709 0.0
C1321 C 0.56702 0.06477 0.69948 0.0
C1322 C 0.59997 0.05355 0.71492 0.0
C1323 C 0.64241 0.05765 0.7076 0.0
H1324 H 0.35263 0.0958 0.06528 0.0
H1325 H 0.25795 0.18628 0.08751 0.0
H1326 H 0.27653 0.17125 0.1284 0.0
H1327 H 0.33118 0.01922 0.11021 0.0
H1328 H 0.38575 0.00297 0.11244 0.0
H1329 H 0.36559 0.02277 0.08549 0.0
H1330 H 0.42509 0.07923 0.08482 0.0
H1331 H 0.44486 0.06024 0.11206 0.0
H1332 H 0.43057 0.11524 0.10873 0.0
H1333 H 0.30842 0.14709 0.16725 0.0
H1334 H 0.33946 0.10707 0.19988 0.0
H1335 H 0.4096 0.02915 0.15169 0.0
C1336 C 0.33564 0.11228 0.0788 0.0
C1337 C 0.30388 0.14228 0.0733 0.0
C1338 C 0.28212 0.16297 0.09139 0.0
C1339 C 0.29284 0.15491 0.11462 0.0
C1340 C 0.32496 0.1256 0.11945 0.0
C1341 C 0.34526 0.10389 0.10196 0.0
C1342 C 0.37653 0.07186 0.11153 0.0
C1343 C 0.364 0.02653 0.10451 0.0
C1344 C 0.42195 0.08229 0.10382 0.0
C1345 C 0.37093 0.07886 0.13721 0.0
C1346 C 0.34171 0.11056 0.14149 0.0
C1347 C 0.33126 0.12222 0.16401 0.0
C1348 C 0.34955 0.09967 0.18251 0.0
C1349 C 0.37745 0.06524 0.17846 0.0
C1350 C 0.38892 0.05566 0.15543 0.0
H1351 H 0.23597 0.1496 0.90256 0.0
H1352 H 0.14806 0.08982 0.94987 0.0
H1353 H 0.10955 0.05856 0.91681 0.0
H1354 H 0.15649 0.17358 0.85697 0.0
H1355 H 0.19429 0.16376 0.83432 0.0
H1356 H 0.21199 0.18369 0.86173 0.0
H1357 H 0.26409 0.12041 0.8647 0.0
H1358 H 0.24549 0.09989 0.83761 0.0
H1359 H 0.24393 0.06703 0.86304 0.0
H1360 H 0.08626 0.02607 0.87797 0.0
H1361 H 0.07248 0.00696 0.83706 0.0
H1362 H 0.17248 0.09214 0.81549 0.0
C1363 C 0.20783 0.13099 0.90596 0.0
C1364 C 0.19483 0.12258 0.9289 0.0
C1365 C 0.15819 0.09749 0.93253 0.0
C1366 C 0.13642 0.07913 0.91381 0.0
C1367 C 0.15113 0.0867 0.89146 0.0
C1368 C 0.18529 0.11315 0.88747 0.0
C1369 C 0.19496 0.11634 0.86189 0.0
C1370 C 0.18905 0.16207 0.85323 0.0
C1371 C 0.23977 0.09993 0.85651 0.0
C1372 C 0.16144 0.08705 0.85209 0.0
C1373 C 0.13676 0.06967 0.86936 0.0
C1374 C 0.10509 0.04003 0.86435 0.0
C1375 C 0.09772 0.02895 0.84111 0.0
C1376 C 0.12151 0.04789 0.82318 0.0
C1377 C 0.15385 0.07709 0.82889 0.0
H1378 H 0.12153 0.98885 0.6516 0.0
H1379 H 0.15671 0.88813 0.69883 0.0
H1380 H 0.18532 0.84666 0.66612 0.0
H1381 H 0.0918 0.91924 0.60275 0.0
H1382 H 0.11227 0.95644 0.58195 0.0
H1383 H 0.09128 0.97525 0.60892 0.0
H1384 H 0.16226 0.01421 0.6164 0.0
H1385 H 0.18374 0.99415 0.58983 0.0
H1386 H 0.21096 0.98438 0.61661 0.0
H1387 H 0.21633 0.819 0.62795 0.0
H1388 H 0.23693 0.80367 0.58744 0.0
H1389 H 0.18062 0.92231 0.56575 0.0
C1390 C 0.13424 0.95758 0.65505 0.0
C1391 C 0.13657 0.94173 0.67789 0.0
C1392 C 0.15386 0.90078 0.68154 0.0
C1393 C 0.17068 0.87718 0.66305 0.0
C1394 C 0.16956 0.89467 0.64092 0.0
C1395 C 0.15079 0.93356 0.63682 0.0
C1396 C 0.15395 0.94577 0.61157 0.0
C1397 C 0.10969 0.94936 0.60066 0.0
C1398 C 0.17924 0.98707 0.60844 0.0
C1399 C 0.17806 0.90807 0.60211 0.0
C1400 C 0.18707 0.87894 0.61926 0.0
C1401 C 0.20935 0.84165 0.61445 0.0
C1402 C 0.22146 0.8334 0.59149 0.0
C1403 C 0.21141 0.86237 0.57369 0.0
C1404 C 0.18971 0.90021 0.57919 0.0
H1405 H 0.40008 0.97523 0.34207 0.0
H1406 H 0.32831 0.89094 0.29774 0.0
H1407 H 0.29762 0.85595 0.33156 0.0
H1408 H 0.42219 0.89926 0.38693 0.0
H1409 H 0.41433 0.93513 0.4107 0.0
H1410 H 0.43155 0.95523 0.38314 0.0
H1411 H 0.36786 0.00687 0.38187 0.0
H1412 H 0.35112 0.98766 0.40967 0.0
H1413 H 0.31501 0.98638 0.38564 0.0
H1414 H 0.27665 0.82722 0.36898 0.0
H1415 H 0.25493 0.81495 0.4092 0.0
H1416 H 0.33612 0.91776 0.43151 0.0
C1417 C 0.37724 0.95007 0.33962 0.0
C1418 C 0.36677 0.93571 0.31717 0.0
C1419 C 0.33701 0.90234 0.31471 0.0
C1420 C 0.31955 0.88198 0.33384 0.0
C1421 C 0.33162 0.89539 0.35564 0.0
C1422 C 0.35879 0.92928 0.35884 0.0
C1423 C 0.36451 0.93767 0.38454 0.0
C1424 C 0.41091 0.93146 0.39175 0.0
C1425 C 0.34867 0.98229 0.3908 0.0
C1426 C 0.33627 0.90333 0.39499 0.0
C1427 C 0.3184 0.87897 0.37781 0.0
C1428 C 0.29049 0.84594 0.38265 0.0
C1429 C 0.27871 0.83882 0.40558 0.0
C1430 C 0.29466 0.86451 0.42353 0.0
C1431 C 0.32468 0.89659 0.41823 0.0
H1432 H 0.09079 0.6941 0.34276 0.0
H1433 H 0.97958 0.61934 0.35816 0.0
H1434 H 0.9422 0.6841 0.371 0.0
H1435 H 0.0711 0.78647 0.38703 0.0
H1436 H 0.09035 0.82322 0.36574 0.0
H1437 H 0.11242 0.77052 0.36743 0.0
H1438 H 0.09507 0.76198 0.32415 0.0
H1439 H 0.07047 0.81301 0.32281 0.0
H1440 H 0.04094 0.76655 0.31448 0.0
H1441 H 0.9127 0.75683 0.37477 0.0
H1442 H 0.88979 0.828 0.36274 0.0
H1443 H 0.01768 0.85661 0.34039 0.0
C1444 C 0.05947 0.69121 0.35022 0.0
C1445 C 0.03849 0.65166 0.35036 0.0
C1446 C 0.99651 0.64919 0.35863 0.0
C1447 C 0.97517 0.68586 0.366 0.0
C1448 C 0.99606 0.72488 0.36471 0.0
C1449 C 0.03741 0.72778 0.35693 0.0
C1450 C 0.04935 0.77353 0.35187 0.0
C1451 C 0.0828 0.78933 0.36904 0.0
C1452 C 0.06475 0.77905 0.32683 0.0
C1453 C 0.00728 0.79535 0.35598 0.0
C1454 C 0.97774 0.76722 0.36473 0.0
C1455 C 0.93573 0.77919 0.3682 0.0
C1456 C 0.92302 0.81995 0.36135 0.0
C1457 C 0.95189 0.848 0.35042 0.0
C1458 C 0.99496 0.83607 0.3488 0.0
H1459 H 0.10414 0.23351 0.58643 0.0
H1460 H 0.0747 0.36015 0.61048 0.0
H1461 H 0.00407 0.33571 0.62274 0.0
H1462 H 0.01441 0.21293 0.5609 0.0
H1463 H 0.00864 0.15788 0.5687 0.0
H1464 H 0.06027 0.1814 0.56798 0.0
H1465 H 0.07327 0.15999 0.61076 0.0
H1466 H 0.02191 0.13498 0.61088 0.0
H1467 H 0.03461 0.17419 0.63227 0.0
H1468 H 0.93149 0.30394 0.62097 0.0
H1469 H 0.86671 0.26498 0.60945 0.0
H1470 H 0.94315 0.15685 0.59038 0.0
C1471 C 0.08358 0.25558 0.59531 0.0
C1472 C 0.09512 0.29876 0.59748 0.0
C1473 C 0.06699 0.32684 0.60883 0.0
C1474 C 0.02659 0.31321 0.61582 0.0
C1475 C 0.01514 0.27105 0.61206 0.0
C1476 C 0.04342 0.24222 0.60276 0.0
C1477 C 0.02189 0.20015 0.5979 0.0
C1478 C 0.02657 0.18741 0.57237 0.0
C1479 C 0.03897 0.16528 0.61391 0.0
C1480 C 0.97645 0.21102 0.60389 0.0
C1481 C 0.97319 0.25185 0.61241 0.0
C1482 C 0.93376 0.27135 0.61531 0.0
C1483 C 0.89707 0.24906 0.60878 0.0
C1484 C 0.9 0.20742 0.59995 0.0
C1485 C 0.94006 0.18784 0.59824 0.0
H1486 H 0.52184 0.3735 0.83801 0.0
H1487 H 0.4001 0.3357 0.86556 0.0
H1488 H 0.43001 0.26658 0.87658 0.0
H1489 H 0.54089 0.28699 0.81095 0.0
H1490 H 0.59701 0.28187 0.81544 0.0
H1491 H 0.57283 0.33318 0.81679 0.0
H1492 H 0.60068 0.34584 0.85809 0.0
H1493 H 0.62764 0.29549 0.85655 0.0
H1494 H 0.59192 0.30628 0.88003 0.0
H1495 H 0.46589 0.19694 0.87455 0.0
H1496 H 0.50502 0.13455 0.85984 0.0
H1497 H 0.60536 0.21653 0.83576 0.0
C1498 C 0.50226 0.35167 0.84771 0.0
C1499 C 0.45878 0.36027 0.85113 0.0
C1500 C 0.4337 0.33037 0.86319 0.0
C1501 C 0.45051 0.29083 0.86955 0.0
C1502 C 0.4929 0.28222 0.86464 0.0
C1503 C 0.51881 0.31231 0.85447 0.0
C1504 C 0.56065 0.293 0.8471 0.0
C1505 C 0.56823 0.29914 0.82105 0.0
C1506 C 0.59739 0.31125 0.8613 0.0
C1507 C 0.55306 0.24684 0.85309 0.0
C1508 C 0.51417 0.24133 0.86369 0.0
C1509 C 0.49708 0.20095 0.86713 0.0
C1510 C 0.5195 0.16563 0.85881 0.0
C1511 C 0.55881 0.1709 0.84755 0.0
C1512 C 0.57638 0.21178 0.84542 0.0
H1513 H 0.55636 0.84425 0.0897 0.0
H1514 H 0.63508 0.73654 0.10658 0.0
H1515 H 0.5714 0.69616 0.11859 0.0
H1516 H 0.46801 0.82494 0.13285 0.0
H1517 H 0.42755 0.83891 0.11229 0.0
H1518 H 0.47852 0.8647 0.11136 0.0
H1519 H 0.49 0.84313 0.06913 0.0
H1520 H 0.43873 0.8188 0.06889 0.0
H1521 H 0.48475 0.78823 0.061 0.0
H1522 H 0.49905 0.66339 0.12135 0.0
H1523 H 0.42769 0.63893 0.11033 0.0
H1524 H 0.39578 0.76637 0.08838 0.0
C1525 C 0.5602 0.81305 0.09725 0.0
C1526 C 0.60059 0.79404 0.09825 0.0
C1527 C 0.6045 0.75209 0.10658 0.0
C1528 C 0.56842 0.72897 0.11335 0.0
C1529 C 0.52861 0.74805 0.11131 0.0
C1530 C 0.5244 0.78926 0.10336 0.0
C1531 C 0.47851 0.79973 0.09817 0.0
C1532 C 0.46213 0.8341 0.11465 0.0
C1533 C 0.4727 0.81321 0.07281 0.0
C1534 C 0.45777 0.75729 0.10307 0.0
C1535 C 0.48685 0.72838 0.11152 0.0
C1536 C 0.47591 0.68599 0.11514 0.0
C1537 C 0.43508 0.67236 0.10892 0.0
C1538 C 0.40597 0.70073 0.09853 0.0
C1539 C 0.41708 0.74406 0.09657 0.0
H1540 H 0.98927 0.13686 0.69893 0.0
H1541 H 0.11563 0.17439 0.67808 0.0
H1542 H 0.08856 0.24464 0.66688 0.0
H1543 H 0.9309 0.20716 0.65375 0.0
H1544 H 0.8893 0.21858 0.67408 0.0
H1545 H 0.91483 0.16739 0.67422 0.0
H1546 H 0.934 0.17572 0.71718 0.0
H1547 H 0.90805 0.22617 0.71769 0.0
H1548 H 0.96266 0.22211 0.72646 0.0
H1549 H 0.05438 0.31509 0.671 0.0
H1550 H 0.01352 0.37665 0.68526 0.0
H1551 H 0.90706 0.29463 0.69963 0.0
C1552 C 0.01082 0.15915 0.69094 0.0
C1553 C 0.05459 0.15002 0.6895 0.0
C1554 C 0.08192 0.1803 0.67924 0.0
C1555 C 0.06679 0.22051 0.67285 0.0
C1556 C 0.024 0.22965 0.67614 0.0
C1557 C 0.99603 0.19928 0.68421 0.0
C1558 C 0.9529 0.2185 0.68902 0.0
C1559 C 0.92002 0.20195 0.67174 0.0
C1560 C 0.93865 0.21015 0.71406 0.0
C1561 C 0.96227 0.26505 0.68485 0.0
C1562 C 0.00323 0.27081 0.67693 0.0
C1563 C 0.02169 0.31106 0.67615 0.0
C1564 C 0.99835 0.34591 0.68429 0.0
C1565 C 0.95674 0.34042 0.69273 0.0
C1566 C 0.93805 0.2998 0.69213 0.0
H1567 H 0.88731 0.7725 0.4556 0.0
H1568 H 0.91528 0.64688 0.42942 0.0
H1569 H 0.98614 0.67077 0.41788 0.0
H1570 H 0.9586 0.83232 0.41027 0.0
H1571 H 0.97202 0.8707 0.43201 0.0
H1572 H 0.92003 0.84703 0.43173 0.0
H1573 H 0.93127 0.82385 0.47428 0.0
H1574 H 0.9834 0.84624 0.47424 0.0
H1575 H 0.97622 0.79108 0.48145 0.0
H1576 H 0.05875 0.70029 0.42101 0.0
H1577 H 0.12402 0.73693 0.43378 0.0
H1578 H 0.0497 0.84624 0.45342 0.0
C1579 C 0.90754 0.7507 0.44632 0.0
C1580 C 0.89553 0.70781 0.44351 0.0
C1581 C 0.92329 0.68 0.43165 0.0
C1582 C 0.96387 0.6933 0.425 0.0
C1583 C 0.97585 0.735 0.42944 0.0
C1584 C 0.94792 0.76384 0.43905 0.0
C1585 C 0.97015 0.80525 0.44453 0.0
C1586 C 0.95424 0.84093 0.42869 0.0
C1587 C 0.96496 0.81723 0.47013 0.0
C1588 C 0.01554 0.79362 0.4388 0.0
C1589 C 0.01815 0.75318 0.42971 0.0
C1590 C 0.05711 0.73267 0.4271 0.0
C1591 C 0.09405 0.7536 0.43438 0.0
C1592 C 0.09183 0.79488 0.44371 0.0
C1593 C 0.05227 0.81551 0.44521 0.0
H1594 H 0.58972 0.69296 0.19816 0.0
H1595 H 0.48075 0.61509 0.18296 0.0
H1596 H 0.44178 0.67868 0.1695 0.0
H1597 H 0.53468 0.76626 0.22544 0.0
H1598 H 0.56532 0.81199 0.2171 0.0
H1599 H 0.58958 0.76061 0.21745 0.0
H1600 H 0.6108 0.76833 0.17418 0.0
H1601 H 0.58801 0.82079 0.17466 0.0
H1602 H 0.57089 0.78302 0.15346 0.0
H1603 H 0.41033 0.75134 0.16511 0.0
H1604 H 0.38685 0.82375 0.17491 0.0
H1605 H 0.51447 0.85504 0.19635 0.0
C1606 C 0.55857 0.68916 0.19063 0.0
C1607 C 0.53875 0.64905 0.19061 0.0
C1608 C 0.49688 0.64537 0.18229 0.0
C1609 C 0.47459 0.6814 0.17465 0.0
C1610 C 0.49437 0.72101 0.1758 0.0
C1611 C 0.53558 0.72503 0.18365 0.0
C1612 C 0.54652 0.77113 0.18822 0.0
C1613 C 0.55975 0.77785 0.21354 0.0
C1614 C 0.58113 0.78669 0.17164 0.0
C1615 C 0.50447 0.7922 0.18294 0.0
C1616 C 0.47528 0.76308 0.17491 0.0
C1617 C 0.43316 0.77448 0.171 0.0
C1618 C 0.42011 0.81593 0.17649 0.0
C1619 C 0.44884 0.84532 0.18631 0.0
C1620 C 0.4919 0.83359 0.18855 0.0
H1621 H 0.44282 0.15927 0.95089 0.0
H1622 H 0.372 0.27109 0.93143 0.0
H1623 H 0.43876 0.30678 0.92028 0.0
H1624 H 0.51433 0.21336 0.98046 0.0
H1625 H 0.55958 0.18023 0.97458 0.0
H1626 H 0.50733 0.1582 0.97329 0.0
H1627 H 0.52027 0.13357 0.93121 0.0
H1628 H 0.57319 0.15488 0.93277 0.0
H1629 H 0.53812 0.17139 0.91002 0.0
H1630 H 0.51273 0.3333 0.916 0.0
H1631 H 0.58422 0.35497 0.92778 0.0
H1632 H 0.60722 0.22888 0.95508 0.0
C1633 C 0.4413 0.19028 0.94287 0.0
C1634 C 0.40225 0.21183 0.94095 0.0
C1635 C 0.4015 0.25361 0.93218 0.0
C1636 C 0.43929 0.27398 0.92576 0.0
C1637 C 0.47759 0.25225 0.9284 0.0
C1638 C 0.47885 0.21142 0.93712 0.0
C1639 C 0.52361 0.19887 0.94379 0.0
C1640 C 0.52634 0.18703 0.96954 0.0
C1641 C 0.53973 0.16252 0.92853 0.0
C1642 C 0.54704 0.23971 0.93856 0.0
C1643 C 0.52034 0.26928 0.92859 0.0
C1644 C 0.53394 0.31031 0.92366 0.0
C1645 C 0.57489 0.32227 0.93037 0.0
C1646 C 0.6015 0.29371 0.94255 0.0
C1647 C 0.5879 0.25134 0.94566 0.0
loop_
_geom_bond_atom_site_label_1
_geom_bond_atom_site_label_2
_geom_bond_distance
_geom_bond_site_symmetry_2
_ccdc_geom_bond_type
Sc0 O3 2.025 . S
Sc0 O10 2.105 . S
Sc0 O13 2.105 . S
Sc0 O16 2.105 . S
Sc0 O19 2.105 . S
Sc1 O3 2.025 . S
Sc1 O11 2.105 . S
Sc1 O15 2.105 . S
Sc1 O17 2.105 . S
Sc1 O21 2.105 . S
Sc2 O3 2.025 . S
Sc2 O12 2.105 . S
Sc2 O14 2.105 . S
Sc2 O18 2.105 . S
Sc2 O20 2.105 . S
O3 Sc0 2.025 . S
O3 Sc1 2.025 . S
O3 Sc2 2.025 . S
C4 O10 1.268 . S
C4 O20 1.268 . S
C5 O11 1.268 . S
C5 O19 1.268 . S
C6 O12 1.268 . S
C6 O21 1.268 . S
C7 O13 1.268 . S
C7 O17 1.268 . S
C8 O14 1.268 . S
C8 O16 1.268 . S
C9 O15 1.268 . S
C9 O18 1.268 . S
O10 Sc0 2.105 . S
O10 C4 1.268 . S
O11 Sc1 2.105 . S
O11 C5 1.268 . S
O12 Sc2 2.105 . S
O12 C6 1.268 . S
O13 Sc0 2.105 . S
O13 C7 1.268 . S
O14 Sc2 2.105 . S
O14 C8 1.268 . S
O15 Sc1 2.105 . S
O15 C9 1.268 . S
O16 Sc0 2.105 . S
O16 C8 1.268 . S
O17 Sc1 2.105 . S
O17 C7 1.268 . S
O18 Sc2 2.105 . S
O18 C9 1.268 . S
O19 Sc0 2.105 . S
O19 C5 1.268 . S
O20 Sc2 2.105 . S
O20 C4 1.268 . S
O21 Sc1 2.105 . S
O21 C6 1.268 . S
Sc22 O25 2.025 . S
Sc22 O32 2.105 . S
Sc22 O35 2.105 . S
Sc22 O38 2.105 . S
Sc22 O41 2.105 . S
Sc23 O25 2.025 . S
Sc23 O33 2.105 . S
Sc23 O37 2.105 . S
Sc23 O39 2.105 . S
Sc23 O43 2.105 . S
Sc24 O25 2.025 . S
Sc24 O34 2.105 . S
Sc24 O36 2.105 . S
Sc24 O40 2.105 . S
Sc24 O42 2.105 . S
O25 Sc22 2.025 . S
O25 Sc23 2.025 . S
O25 Sc24 2.025 . S
C26 O32 1.268 . S
C26 O42 1.268 . S
C27 O33 1.268 . S
C27 O41 1.268 . S
C28 O34 1.268 . S
C28 O43 1.268 . S
C29 O35 1.268 . S
C29 O39 1.268 . S
C30 O36 1.268 . S
C30 O38 1.268 . S
C31 O37 1.268 . S
C31 O40 1.268 . S
O32 Sc22 2.105 . S
O32 C26 1.268 . S
O33 Sc23 2.105 . S
O33 C27 1.268 . S
O34 Sc24 2.105 . S
O34 C28 1.268 . S
O35 Sc22 2.105 . S
O35 C29 1.268 . S
O36 Sc24 2.105 . S
O36 C30 1.268 . S
O37 Sc23 2.105 . S
O37 C31 1.268 . S
O38 Sc22 2.105 . S
O38 C30 1.268 . S
O39 Sc23 2.105 . S
O39 C29 1.268 . S
O40 Sc24 2.105 . S
O40 C31 1.268 . S
O41 Sc22 2.105 . S
O41 C27 1.268 . S
O42 Sc24 2.105 . S
O42 C26 1.268 . S
O43 Sc23 2.105 . S
O43 C28 1.268 . S
Sc44 O47 2.025 . S
Sc44 O54 2.105 . S
Sc44 O57 2.105 . S
Sc44 O60 2.105 . S
Sc44 O63 2.105 . S
Sc45 O47 2.025 . S
Sc45 O55 2.105 . S
Sc45 O59 2.105 . S
Sc45 O61 2.105 . S
Sc45 O65 2.105 . S
Sc46 O47 2.025 . S
Sc46 O56 2.105 . S
Sc46 O58 2.105 . S
Sc46 O62 2.105 . S
Sc46 O64 2.105 . S
O47 Sc44 2.025 . S
O47 Sc45 2.025 . S
O47 Sc46 2.025 . S
C48 O54 1.268 . S
C48 O64 1.268 . S
C49 O55 1.268 . S
C49 O63 1.268 . S
C50 O56 1.268 . S
C50 O65 1.268 . S
C51 O57 1.268 . S
C51 O61 1.268 . S
C52 O58 1.268 . S
C52 O60 1.268 . S
C53 O59 1.268 . S
C53 O62 1.268 . S
O54 Sc44 2.105 . S
O54 C48 1.268 . S
O55 Sc45 2.105 . S
O55 C49 1.268 . S
O56 Sc46 2.105 . S
O56 C50 1.268 . S
O57 Sc44 2.105 . S
O57 C51 1.268 . S
O58 Sc46 2.105 . S
O58 C52 1.268 . S
O59 Sc45 2.105 . S
O59 C53 1.268 . S
O60 Sc44 2.105 . S
O60 C52 1.268 . S
O61 Sc45 2.105 . S
O61 C51 1.268 . S
O62 Sc46 2.105 . S
O62 C53 1.268 . S
O63 Sc44 2.105 . S
O63 C49 1.268 . S
O64 Sc46 2.105 . S
O64 C48 1.268 . S
O65 Sc45 2.105 . S
O65 C50 1.268 . S
Sc66 O69 2.025 . S
Sc66 O76 2.105 1_554 S
Sc66 O79 2.105 . S
Sc66 O82 2.105 . S
Sc66 O85 2.105 . S
Sc67 O69 2.025 . S
Sc67 O77 2.105 . S
Sc67 O81 2.105 . S
Sc67 O83 2.105 . S
Sc67 O87 2.105 . S
Sc68 O69 2.025 1_556 S
Sc68 O78 2.105 . S
Sc68 O80 2.105 . S
Sc68 O84 2.105 1_556 S
Sc68 O86 2.105 . S
O69 Sc66 2.025 . S
O69 Sc67 2.025 . S
O69 Sc68 2.025 1_554 S
C70 O76 1.268 . S
C70 O86 1.268 . S
C71 O77 1.268 . S
C71 O85 1.268 . S
C72 O78 1.259 1_554 S
C72 O87 1.285 . S
C73 O79 1.268 . S
C73 O83 1.268 . S
C74 O80 1.268 . S
C74 O82 1.268 1_556 S
C75 O81 1.268 . S
C75 O84 1.268 . S
O76 Sc66 2.105 1_556 S
O76 C70 1.268 . S
O77 Sc67 2.105 . S
O77 C71 1.268 . S
O78 Sc68 2.105 . S
O78 C72 1.259 1_556 S
O79 Sc66 2.105 . S
O79 C73 1.268 . S
O80 Sc68 2.105 . S
O80 C74 1.268 . S
O81 Sc67 2.105 . S
O81 C75 1.268 . S
O82 Sc66 2.105 . S
O82 C74 1.268 1_554 S
O83 Sc67 2.105 . S
O83 C73 1.268 . S
O84 Sc68 2.105 1_554 S
O84 C75 1.268 . S
O85 Sc66 2.105 . S
O85 C71 1.268 . S
O86 Sc68 2.105 . S
O86 C70 1.268 . S
O87 Sc67 2.105 . S
O87 C72 1.285 . S
Sc88 O91 2.025 . S
Sc88 O98 2.105 . S
Sc88 O101 2.105 . S
Sc88 O104 2.105 . S
Sc88 O107 2.105 . S
Sc89 O91 2.025 . S
Sc89 O99 2.105 . S
Sc89 O103 2.105 . S
Sc89 O105 2.105 . S
Sc89 O109 2.105 . S
Sc90 O91 2.025 . S
Sc90 O100 2.105 . S
Sc90 O102 2.105 . S
Sc90 O106 2.105 . S
Sc90 O108 2.105 . S
O91 Sc88 2.025 . S
O91 Sc89 2.025 . S
O91 Sc90 2.025 . S
C92 O98 1.268 . S
C92 O108 1.268 . S
C93 O99 1.268 . S
C93 O107 1.268 . S
C94 O100 1.268 . S
C94 O109 1.268 . S
C95 O101 1.268 . S
C95 O105 1.268 . S
C96 O102 1.268 . S
C96 O104 1.268 . S
C97 O103 1.268 . S
C97 O106 1.268 . S
O98 Sc88 2.105 . S
O98 C92 1.268 . S
O99 Sc89 2.105 . S
O99 C93 1.268 . S
O100 Sc90 2.105 . S
O100 C94 1.268 . S
O101 Sc88 2.105 . S
O101 C95 1.268 . S
O102 Sc90 2.105 . S
O102 C96 1.268 . S
O103 Sc89 2.105 . S
O103 C97 1.268 . S
O104 Sc88 2.105 . S
O104 C96 1.268 . S
O105 Sc89 2.105 . S
O105 C95 1.268 . S
O106 Sc90 2.105 . S
O106 C97 1.268 . S
O107 Sc88 2.105 . S
O107 C93 1.268 . S
O108 Sc90 2.105 . S
O108 C92 1.268 . S
O109 Sc89 2.105 . S
O109 C94 1.268 . S
Sc110 O113 2.025 . S
Sc110 O120 2.105 . S
Sc110 O123 2.105 . S
Sc110 O126 2.105 . S
Sc110 O129 2.105 . S
Sc111 O113 2.025 . S
Sc111 O121 2.105 . S
Sc111 O125 2.105 . S
Sc111 O127 2.105 . S
Sc111 O131 2.105 . S
Sc112 O113 2.025 . S
Sc112 O122 2.105 . S
Sc112 O124 2.105 . S
Sc112 O128 2.105 . S
Sc112 O130 2.105 . S
O113 Sc110 2.025 . S
O113 Sc111 2.025 . S
O113 Sc112 2.025 . S
C114 O120 1.268 . S
C114 O130 1.268 . S
C115 O121 1.268 . S
C115 O129 1.268 . S
C116 O122 1.268 . S
C116 O131 1.268 . S
C117 O123 1.268 . S
C117 O127 1.268 . S
C118 O124 1.268 . S
C118 O126 1.268 . S
C119 O125 1.268 . S
C119 O128 1.268 . S
O120 Sc110 2.105 . S
O120 C114 1.268 . S
O121 Sc111 2.105 . S
O121 C115 1.268 . S
O122 Sc112 2.105 . S
O122 C116 1.268 . S
O123 Sc110 2.105 . S
O123 C117 1.268 . S
O124 Sc112 2.105 . S
O124 C118 1.268 . S
O125 Sc111 2.105 . S
O125 C119 1.268 . S
O126 Sc110 2.105 . S
O126 C118 1.268 . S
O127 Sc111 2.105 . S
O127 C117 1.268 . S
O128 Sc112 2.105 . S
O128 C119 1.268 . S
O129 Sc110 2.105 . S
O129 C115 1.268 . S
O130 Sc112 2.105 . S
O130 C114 1.268 . S
O131 Sc111 2.105 . S
O131 C116 1.268 . S
Sc132 O135 2.025 . S
Sc132 O142 2.105 . S
Sc132 O145 2.105 . S
Sc132 O148 2.105 . S
Sc132 O151 2.105 . S
Sc133 O135 2.025 . S
Sc133 O143 2.105 . S
Sc133 O147 2.105 . S
Sc133 O149 2.105 . S
Sc133 O153 2.105 . S
Sc134 O135 2.025 . S
Sc134 O144 2.105 . S
Sc134 O146 2.105 . S
Sc134 O150 2.105 . S
Sc134 O152 2.105 . S
O135 Sc132 2.025 . S
O135 Sc133 2.025 . S
O135 Sc134 2.025 . S
C136 O142 1.268 . S
C136 O152 1.268 . S
C137 O143 1.268 . S
C137 O151 1.268 . S
C138 O144 1.268 . S
C138 O153 1.268 . S
C139 O145 1.268 . S
C139 O149 1.268 . S
C140 O146 1.268 . S
C140 O148 1.268 . S
C141 O147 1.268 . S
C141 O150 1.268 . S
O142 Sc132 2.105 . S
O142 C136 1.268 . S
O143 Sc133 2.105 . S
O143 C137 1.268 . S
O144 Sc134 2.105 . S
O144 C138 1.268 . S
O145 Sc132 2.105 . S
O145 C139 1.268 . S
O146 Sc134 2.105 . S
O146 C140 1.268 . S
O147 Sc133 2.105 . S
O147 C141 1.268 . S
O148 Sc132 2.105 . S
O148 C140 1.268 . S
O149 Sc133 2.105 . S
O149 C139 1.268 . S
O150 Sc134 2.105 . S
O150 C141 1.268 . S
O151 Sc132 2.105 . S
O151 C137 1.268 . S
O152 Sc134 2.105 . S
O152 C136 1.268 . S
O153 Sc133 2.105 . S
O153 C138 1.268 . S
Sc154 O157 2.025 . S
Sc154 O164 2.105 . S
Sc154 O167 2.105 . S
Sc154 O170 2.105 1_556 S
Sc154 O173 2.105 . S
Sc155 O157 2.025 . S
Sc155 O165 2.105 . S
Sc155 O169 2.105 . S
Sc155 O171 2.105 . S
Sc155 O175 2.105 . S
Sc156 O157 2.025 1_554 S
Sc156 O166 2.105 1_554 S
Sc156 O168 2.105 . S
Sc156 O172 2.105 . S
Sc156 O174 2.105 . S
O157 Sc154 2.025 . S
O157 Sc155 2.025 . S
O157 Sc156 2.025 1_556 S
C158 O164 1.268 1_554 S
C158 O174 1.268 . S
C159 O165 1.268 . S
C159 O173 1.268 . S
C160 O166 1.268 . S
C160 O175 1.268 . S
C161 O167 1.268 . S
C161 O171 1.268 . S
C162 O168 1.268 . S
C162 O170 1.268 . S
C163 O169 1.285 . S
C163 O172 1.259 1_556 S
O164 Sc154 2.105 . S
O164 C158 1.268 1_556 S
O165 Sc155 2.105 . S
O165 C159 1.268 . S
O166 Sc156 2.105 1_556 S
O166 C160 1.268 . S
O167 Sc154 2.105 . S
O167 C161 1.268 . S
O168 Sc156 2.105 . S
O168 C162 1.268 . S
O169 Sc155 2.105 . S
O169 C163 1.285 . S
O170 Sc154 2.105 1_554 S
O170 C162 1.268 . S
O171 Sc155 2.105 . S
O171 C161 1.268 . S
O172 Sc156 2.105 . S
O172 C163 1.259 1_554 S
O173 Sc154 2.105 . S
O173 C159 1.268 . S
O174 Sc156 2.105 . S
O174 C158 1.268 . S
O175 Sc155 2.105 . S
O175 C160 1.268 . S
Sc176 O179 2.025 . S
Sc176 O186 2.105 . S
Sc176 O189 2.105 1_545 S
Sc176 O192 2.105 1_545 S
Sc176 O195 2.105 . S
Sc177 O179 2.025 . S
Sc177 O187 2.105 . S
Sc177 O191 2.105 . S
Sc177 O193 2.105 . S
Sc177 O197 2.105 . S
Sc178 O179 2.025 . S
Sc178 O188 2.105 . S
Sc178 O190 2.105 . S
Sc178 O194 2.105 . S
Sc178 O196 2.105 . S
O179 Sc176 2.025 . S
O179 Sc177 2.025 . S
O179 Sc178 2.025 . S
C180 O186 1.268 . S
C180 O196 1.268 . S
C181 O187 1.268 . S
C181 O195 1.268 . S
C182 O188 1.268 . S
C182 O197 1.268 . S
C183 O189 1.268 1_545 S
C183 O193 1.268 . S
C184 O190 1.268 . S
C184 O192 1.268 1_545 S
C185 O191 1.268 . S
C185 O194 1.268 . S
O186 Sc176 2.105 . S
O186 C180 1.268 . S
O187 Sc177 2.105 . S
O187 C181 1.268 . S
O188 Sc178 2.105 . S
O188 C182 1.268 . S
O189 Sc176 2.105 1_565 S
O189 C183 1.268 1_565 S
O190 Sc178 2.105 . S
O190 C184 1.268 . S
O191 Sc177 2.105 . S
O191 C185 1.268 . S
O192 Sc176 2.105 1_565 S
O192 C184 1.268 1_565 S
O193 Sc177 2.105 . S
O193 C183 1.268 . S
O194 Sc178 2.105 . S
O194 C185 1.268 . S
O195 Sc176 2.105 . S
O195 C181 1.268 . S
O196 Sc178 2.105 . S
O196 C180 1.268 . S
O197 Sc177 2.105 . S
O197 C182 1.268 . S
Sc198 O201 2.025 . S
Sc198 O208 2.105 1_554 S
Sc198 O211 2.105 . S
Sc198 O214 2.105 . S
Sc198 O217 2.105 . S
Sc199 O201 2.025 . S
Sc199 O209 2.105 . S
Sc199 O213 2.105 . S
Sc199 O215 2.105 . S
Sc199 O219 2.105 . S
Sc200 O201 2.025 1_556 S
Sc200 O210 2.105 . S
Sc200 O212 2.105 . S
Sc200 O216 2.105 1_556 S
Sc200 O218 2.105 . S
O201 Sc198 2.025 . S
O201 Sc199 2.025 . S
O201 Sc200 2.025 1_554 S
C202 O208 1.268 . S
C202 O218 1.268 . S
C203 O209 1.268 1_545 S
C203 O217 1.268 1_545 S
C204 O210 1.259 1_554 S
C204 O219 1.285 . S
C205 O211 1.268 . S
C205 O215 1.268 . S
C206 O212 1.268 . S
C206 O214 1.268 1_556 S
C207 O213 1.268 . S
C207 O216 1.268 . S
O208 Sc198 2.105 1_556 S
O208 C202 1.268 . S
O209 Sc199 2.105 . S
O209 C203 1.268 1_565 S
O210 Sc200 2.105 . S
O210 C204 1.259 1_556 S
O211 Sc198 2.105 . S
O211 C205 1.268 . S
O212 Sc200 2.105 . S
O212 C206 1.268 . S
O213 Sc199 2.105 . S
O213 C207 1.268 . S
O214 Sc198 2.105 . S
O214 C206 1.268 1_554 S
O215 Sc199 2.105 . S
O215 C205 1.268 . S
O216 Sc200 2.105 1_554 S
O216 C207 1.268 . S
O217 Sc198 2.105 . S
O217 C203 1.268 1_565 S
O218 Sc200 2.105 . S
O218 C202 1.268 . S
O219 Sc199 2.105 . S
O219 C204 1.285 . S
Sc220 O223 2.025 . S
Sc220 O230 2.105 . S
Sc220 O233 2.105 . S
Sc220 O236 2.105 . S
Sc220 O239 2.105 . S
Sc221 O223 2.025 . S
Sc221 O231 2.105 . S
Sc221 O235 2.105 . S
Sc221 O237 2.105 . S
Sc221 O241 2.105 . S
Sc222 O223 2.025 . S
Sc222 O232 2.105 1_565 S
Sc222 O234 2.105 . S
Sc222 O238 2.105 . S
Sc222 O240 2.105 1_565 S
O223 Sc220 2.025 . S
O223 Sc221 2.025 . S
O223 Sc222 2.025 . S
C224 O230 1.268 . S
C224 O240 1.268 1_565 S
C225 O231 1.268 . S
C225 O239 1.268 . S
C226 O232 1.268 1_565 S
C226 O241 1.268 . S
C227 O233 1.268 . S
C227 O237 1.268 . S
C228 O234 1.268 . S
C228 O236 1.268 . S
C229 O235 1.268 . S
C229 O238 1.268 . S
O230 Sc220 2.105 . S
O230 C224 1.268 . S
O231 Sc221 2.105 . S
O231 C225 1.268 . S
O232 Sc222 2.105 1_545 S
O232 C226 1.268 1_545 S
O233 Sc220 2.105 . S
O233 C227 1.268 . S
O234 Sc222 2.105 . S
O234 C228 1.268 . S
O235 Sc221 2.105 . S
O235 C229 1.268 . S
O236 Sc220 2.105 . S
O236 C228 1.268 . S
O237 Sc221 2.105 . S
O237 C227 1.268 . S
O238 Sc222 2.105 . S
O238 C229 1.268 . S
O239 Sc220 2.105 . S
O239 C225 1.268 . S
O240 Sc222 2.105 1_545 S
O240 C224 1.268 1_545 S
O241 Sc221 2.105 . S
O241 C226 1.268 . S
Sc242 O245 2.025 . S
Sc242 O252 2.105 . S
Sc242 O255 2.105 . S
Sc242 O258 2.105 . S
Sc242 O261 2.105 . S
Sc243 O245 2.025 . S
Sc243 O253 2.105 . S
Sc243 O257 2.105 . S
Sc243 O259 2.105 . S
Sc243 O263 2.105 . S
Sc244 O245 2.025 . S
Sc244 O254 2.105 . S
Sc244 O256 2.105 . S
Sc244 O260 2.105 . S
Sc244 O262 2.105 . S
O245 Sc242 2.025 . S
O245 Sc243 2.025 . S
O245 Sc244 2.025 . S
C246 O252 1.268 . S
C246 O262 1.268 . S
C247 O253 1.268 1_565 S
C247 O261 1.268 1_565 S
C248 O254 1.268 . S
C248 O263 1.268 . S
C249 O255 1.268 . S
C249 O259 1.268 . S
C250 O256 1.268 . S
C250 O258 1.268 . S
C251 O257 1.268 . S
C251 O260 1.268 . S
O252 Sc242 2.105 . S
O252 C246 1.268 . S
O253 Sc243 2.105 . S
O253 C247 1.268 1_545 S
O254 Sc244 2.105 . S
O254 C248 1.268 . S
O255 Sc242 2.105 . S
O255 C249 1.268 . S
O256 Sc244 2.105 . S
O256 C250 1.268 . S
O257 Sc243 2.105 . S
O257 C251 1.268 . S
O258 Sc242 2.105 . S
O258 C250 1.268 . S
O259 Sc243 2.105 . S
O259 C249 1.268 . S
O260 Sc244 2.105 . S
O260 C251 1.268 . S
O261 Sc242 2.105 . S
O261 C247 1.268 1_545 S
O262 Sc244 2.105 . S
O262 C246 1.268 . S
O263 Sc243 2.105 . S
O263 C248 1.268 . S
Sc264 O267 2.025 . S
Sc264 O274 2.105 . S
Sc264 O277 2.105 . S
Sc264 O280 2.105 . S
Sc264 O283 2.105 . S
Sc265 O267 2.025 . S
Sc265 O275 2.105 . S
Sc265 O279 2.105 . S
Sc265 O281 2.105 . S
Sc265 O285 2.105 . S
Sc266 O267 2.025 . S
Sc266 O276 2.105 . S
Sc266 O278 2.105 1_565 S
Sc266 O282 2.105 1_565 S
Sc266 O284 2.105 . S
O267 Sc264 2.025 . S
O267 Sc265 2.025 . S
O267 Sc266 2.025 . S
C268 O274 1.268 . S
C268 O284 1.268 . S
C269 O275 1.268 . S
C269 O283 1.268 . S
C270 O276 1.268 . S
C270 O285 1.268 . S
C271 O277 1.268 . S
C271 O281 1.268 . S
C272 O278 1.268 1_565 S
C272 O280 1.268 . S
C273 O279 1.268 . S
C273 O282 1.268 1_565 S
O274 Sc264 2.105 . S
O274 C268 1.268 . S
O275 Sc265 2.105 . S
O275 C269 1.268 . S
O276 Sc266 2.105 . S
O276 C270 1.268 . S
O277 Sc264 2.105 . S
O277 C271 1.268 . S
O278 Sc266 2.105 1_545 S
O278 C272 1.268 1_545 S
O279 Sc265 2.105 . S
O279 C273 1.268 . S
O280 Sc264 2.105 . S
O280 C272 1.268 . S
O281 Sc265 2.105 . S
O281 C271 1.268 . S
O282 Sc266 2.105 1_545 S
O282 C273 1.268 1_545 S
O283 Sc264 2.105 . S
O283 C269 1.268 . S
O284 Sc266 2.105 . S
O284 C268 1.268 . S
O285 Sc265 2.105 . S
O285 C270 1.268 . S
Sc286 O289 2.025 1_554 S
Sc286 O296 2.105 . S
Sc286 O299 2.105 1_554 S
Sc286 O302 2.105 . S
Sc286 O305 2.105 . S
Sc287 O289 2.025 . S
Sc287 O297 2.105 . S
Sc287 O301 2.105 . S
Sc287 O303 2.105 . S
Sc287 O307 2.105 . S
Sc288 O289 2.025 . S
Sc288 O298 2.105 . S
Sc288 O300 2.105 . S
Sc288 O304 2.105 . S
Sc288 O306 2.105 1_556 S
O289 Sc286 2.025 1_556 S
O289 Sc287 2.025 . S
O289 Sc288 2.025 . S
C290 O296 1.268 . S
C290 O306 1.268 . S
C291 O297 1.285 . S
C291 O305 1.259 1_556 S
C292 O298 1.268 1_565 S
C292 O307 1.268 1_565 S
C293 O299 1.268 . S
C293 O303 1.268 . S
C294 O300 1.268 1_554 S
C294 O302 1.268 . S
C295 O301 1.268 . S
C295 O304 1.268 . S
O296 Sc286 2.105 . S
O296 C290 1.268 . S
O297 Sc287 2.105 . S
O297 C291 1.285 . S
O298 Sc288 2.105 . S
O298 C292 1.268 1_545 S
O299 Sc286 2.105 1_556 S
O299 C293 1.268 . S
O300 Sc288 2.105 . S
O300 C294 1.268 1_556 S
O301 Sc287 2.105 . S
O301 C295 1.268 . S
O302 Sc286 2.105 . S
O302 C294 1.268 . S
O303 Sc287 2.105 . S
O303 C293 1.268 . S
O304 Sc288 2.105 . S
O304 C295 1.268 . S
O305 Sc286 2.105 . S
O305 C291 1.259 1_554 S
O306 Sc288 2.105 1_554 S
O306 C290 1.268 . S
O307 Sc287 2.105 . S
O307 C292 1.268 1_545 S
Sc308 O311 2.025 . S
Sc308 O318 2.105 1_545 S
Sc308 O321 2.105 . S
Sc308 O324 2.105 . S
Sc308 O327 2.105 1_545 S
Sc309 O311 2.025 . S
Sc309 O319 2.105 . S
Sc309 O323 2.105 . S
Sc309 O325 2.105 . S
Sc309 O329 2.105 . S
Sc310 O311 2.025 . S
Sc310 O320 2.105 . S
Sc310 O322 2.105 . S
Sc310 O326 2.105 . S
Sc310 O328 2.105 . S
O311 Sc308 2.025 . S
O311 Sc309 2.025 . S
O311 Sc310 2.025 . S
C312 O318 1.268 1_545 S
C312 O328 1.268 . S
C313 O319 1.268 . S
C313 O327 1.268 1_545 S
C314 O320 1.268 . S
C314 O329 1.268 . S
C315 O321 1.268 . S
C315 O325 1.268 . S
C316 O322 1.268 . S
C316 O324 1.268 . S
C317 O323 1.268 . S
C317 O326 1.268 . S
O318 Sc308 2.105 1_565 S
O318 C312 1.268 1_565 S
O319 Sc309 2.105 . S
O319 C313 1.268 . S
O320 Sc310 2.105 . S
O320 C314 1.268 . S
O321 Sc308 2.105 . S
O321 C315 1.268 . S
O322 Sc310 2.105 . S
O322 C316 1.268 . S
O323 Sc309 2.105 . S
O323 C317 1.268 . S
O324 Sc308 2.105 . S
O324 C316 1.268 . S
O325 Sc309 2.105 . S
O325 C315 1.268 . S
O326 Sc310 2.105 . S
O326 C317 1.268 . S
O327 Sc308 2.105 1_565 S
O327 C313 1.268 1_565 S
O328 Sc310 2.105 . S
O328 C312 1.268 . S
O329 Sc309 2.105 . S
O329 C314 1.268 . S
Sc330 O333 2.025 . S
Sc330 O340 2.105 . S
Sc330 O343 2.105 . S
Sc330 O346 2.105 . S
Sc330 O349 2.105 . S
Sc331 O333 2.025 . S
Sc331 O341 2.105 . S
Sc331 O345 2.105 . S
Sc331 O347 2.105 . S
Sc331 O351 2.105 . S
Sc332 O333 2.025 . S
Sc332 O342 2.105 . S
Sc332 O344 2.105 . S
Sc332 O348 2.105 . S
Sc332 O350 2.105 . S
O333 Sc330 2.025 . S
O333 Sc331 2.025 . S
O333 Sc332 2.025 . S
C334 O340 1.268 . S
C334 O350 1.268 . S
C335 O341 1.268 . S
C335 O349 1.268 . S
C336 O342 1.268 . S
C336 O351 1.268 . S
C337 O343 1.268 1_545 S
C337 O347 1.268 1_545 S
C338 O344 1.268 . S
C338 O346 1.268 . S
C339 O345 1.268 . S
C339 O348 1.268 . S
O340 Sc330 2.105 . S
O340 C334 1.268 . S
O341 Sc331 2.105 . S
O341 C335 1.268 . S
O342 Sc332 2.105 . S
O342 C336 1.268 . S
O343 Sc330 2.105 . S
O343 C337 1.268 1_565 S
O344 Sc332 2.105 . S
O344 C338 1.268 . S
O345 Sc331 2.105 . S
O345 C339 1.268 . S
O346 Sc330 2.105 . S
O346 C338 1.268 . S
O347 Sc331 2.105 . S
O347 C337 1.268 1_565 S
O348 Sc332 2.105 . S
O348 C339 1.268 . S
O349 Sc330 2.105 . S
O349 C335 1.268 . S
O350 Sc332 2.105 . S
O350 C334 1.268 . S
O351 Sc331 2.105 . S
O351 C336 1.268 . S
H352 C364 0.930 . S
H353 C366 0.930 . S
H354 C367 0.930 . S
H355 C371 0.959 . S
H356 C371 0.959 . S
H357 C371 0.961 . S
H358 C372 0.960 . S
H359 C372 0.961 . S
H360 C372 0.959 . S
H361 C375 0.929 . S
H362 C376 0.931 . S
H363 C378 0.930 . S
C364 H352 0.930 . S
C364 C365 1.399 . S
C364 C369 1.399 . S
C365 C364 1.399 . S
C365 C366 1.376 . S
C366 H353 0.930 . S
C366 C365 1.376 . S
C366 C367 1.388 . S
C367 H354 0.930 . S
C367 C366 1.388 . S
C367 C368 1.390 . S
C368 C367 1.390 . S
C368 C369 1.394 . S
C368 C374 1.465 . S
C369 C364 1.399 . S
C369 C368 1.394 . S
C369 C370 1.516 . S
C370 C369 1.516 . S
C370 C371 1.502 . S
C370 C372 1.561 . S
C370 C373 1.526 . S
C371 H355 0.959 . S
C371 H356 0.959 . S
C371 H357 0.961 . S
C371 C370 1.502 . S
C372 H358 0.960 . S
C372 H359 0.961 . S
C372 H360 0.959 . S
C372 C370 1.561 . S
C373 C370 1.526 . S
C373 C374 1.396 . S
C373 C378 1.390 . S
C374 C368 1.465 . S
C374 C373 1.396 . S
C374 C375 1.399 . S
C375 H361 0.929 . S
C375 C374 1.399 . S
C375 C376 1.385 . S
C376 H362 0.931 . S
C376 C375 1.385 . S
C376 C377 1.389 . S
C377 C376 1.389 . S
C377 C378 1.387 . S
C378 H363 0.930 . S
C378 C373 1.390 . S
C378 C377 1.387 . S
H379 C391 0.930 . S
H380 C393 0.930 . S
H381 C394 0.930 . S
H382 C398 0.959 . S
H383 C398 0.959 . S
H384 C398 0.961 . S
H385 C399 0.960 . S
H386 C399 0.961 . S
H387 C399 0.959 . S
H388 C402 0.929 . S
H389 C403 0.931 . S
H390 C405 0.930 . S
C391 H379 0.930 . S
C391 C392 1.399 . S
C391 C396 1.399 . S
C392 C391 1.399 . S
C392 C393 1.376 . S
C393 H380 0.930 . S
C393 C392 1.376 . S
C393 C394 1.388 . S
C394 H381 0.930 . S
C394 C393 1.388 . S
C394 C395 1.390 . S
C395 C394 1.390 . S
C395 C396 1.394 . S
C395 C401 1.465 . S
C396 C391 1.399 . S
C396 C395 1.394 . S
C396 C397 1.516 . S
C397 C396 1.516 . S
C397 C398 1.502 . S
C397 C399 1.561 . S
C397 C400 1.526 . S
C398 H382 0.959 . S
C398 H383 0.959 . S
C398 H384 0.961 . S
C398 C397 1.502 . S
C399 H385 0.960 . S
C399 H386 0.961 . S
C399 H387 0.959 . S
C399 C397 1.561 . S
C400 C397 1.526 . S
C400 C401 1.396 . S
C400 C405 1.390 . S
C401 C395 1.465 . S
C401 C400 1.396 . S
C401 C402 1.399 . S
C402 H388 0.929 . S
C402 C401 1.399 . S
C402 C403 1.385 . S
C403 H389 0.931 . S
C403 C402 1.385 . S
C403 C404 1.389 . S
C404 C403 1.389 . S
C404 C405 1.387 . S
C405 H390 0.930 . S
C405 C400 1.390 . S
C405 C404 1.387 . S
H406 C418 0.930 . S
H407 C420 0.930 . S
H408 C421 0.930 . S
H409 C425 0.959 . S
H410 C425 0.959 . S
H411 C425 0.961 . S
H412 C426 0.960 . S
H413 C426 0.961 . S
H414 C426 0.959 . S
H415 C429 0.929 . S
H416 C430 0.931 . S
H417 C432 0.930 1_655 S
C418 H406 0.930 . S
C418 C419 1.399 . S
C418 C423 1.399 . S
C419 C418 1.399 . S
C419 C420 1.376 . S
C420 H407 0.930 . S
C420 C419 1.376 . S
C420 C421 1.388 . S
C421 H408 0.930 . S
C421 C420 1.388 . S
C421 C422 1.390 . S
C422 C421 1.390 . S
C422 C423 1.394 . S
C422 C428 1.465 . S
C423 C418 1.399 . S
C423 C422 1.394 . S
C423 C424 1.516 . S
C424 C423 1.516 . S
C424 C425 1.502 . S
C424 C426 1.561 . S
C424 C427 1.526 . S
C425 H409 0.959 . S
C425 H410 0.959 . S
C425 H411 0.961 . S
C425 C424 1.502 . S
C426 H412 0.960 . S
C426 H413 0.961 . S
C426 H414 0.959 . S
C426 C424 1.561 . S
C427 C424 1.526 . S
C427 C428 1.396 . S
C427 C432 1.390 . S
C428 C422 1.465 . S
C428 C427 1.396 . S
C428 C429 1.399 . S
C429 H415 0.929 . S
C429 C428 1.399 . S
C429 C430 1.385 1_455 S
C430 H416 0.931 . S
C430 C429 1.385 1_655 S
C430 C431 1.389 . S
C431 C430 1.389 . S
C431 C432 1.387 1_655 S
C432 H417 0.930 1_455 S
C432 C427 1.390 . S
C432 C431 1.387 1_455 S
H433 C445 0.930 . S
H434 C447 0.930 . S
H435 C448 0.930 . S
H436 C452 0.959 . S
H437 C452 0.959 . S
H438 C452 0.961 . S
H439 C453 0.960 . S
H440 C453 0.961 . S
H441 C453 0.959 . S
H442 C456 0.929 . S
H443 C457 0.931 . S
H444 C459 0.930 . S
C445 H433 0.930 . S
C445 C446 1.431 . S
C445 C450 1.399 . S
C446 C445 1.431 . S
C446 C447 1.345 1_554 S
C447 H434 0.930 . S
C447 C446 1.345 1_556 S
C447 C448 1.388 . S
C448 H435 0.930 . S
C448 C447 1.388 . S
C448 C449 1.378 1_556 S
C449 C448 1.378 1_554 S
C449 C450 1.406 . S
C449 C455 1.467 . S
C450 C445 1.399 . S
C450 C449 1.406 . S
C450 C451 1.516 . S
C451 C450 1.516 . S
C451 C452 1.502 . S
C451 C453 1.561 . S
C451 C454 1.526 . S
C452 H436 0.959 . S
C452 H437 0.959 . S
C452 H438 0.961 . S
C452 C451 1.502 . S
C453 H439 0.960 . S
C453 H440 0.961 . S
C453 H441 0.959 . S
C453 C451 1.561 . S
C454 C451 1.526 . S
C454 C455 1.396 . S
C454 C459 1.390 . S
C455 C449 1.467 . S
C455 C454 1.396 . S
C455 C456 1.399 1_554 S
C456 H442 0.929 . S
C456 C455 1.399 1_556 S
C456 C457 1.385 . S
C457 H443 0.931 . S
C457 C456 1.385 . S
C457 C458 1.389 1_556 S
C458 C457 1.389 1_554 S
C458 C459 1.387 . S
C459 H444 0.930 . S
C459 C454 1.390 . S
C459 C458 1.387 . S
H460 C472 0.930 . S
H461 C474 0.930 . S
H462 C475 0.930 . S
H463 C479 0.959 . S
H464 C479 0.959 . S
H465 C479 0.961 . S
H466 C480 0.960 . S
H467 C480 0.961 . S
H468 C480 0.959 . S
H469 C483 0.929 . S
H470 C484 0.931 . S
H471 C486 0.930 . S
C472 H460 0.930 . S
C472 C473 1.399 . S
C472 C477 1.399 . S
C473 C472 1.399 . S
C473 C474 1.376 . S
C474 H461 0.930 . S
C474 C473 1.376 . S
C474 C475 1.388 . S
C475 H462 0.930 . S
C475 C474 1.388 . S
C475 C476 1.390 . S
C476 C475 1.390 . S
C476 C477 1.394 . S
C476 C482 1.465 . S
C477 C472 1.399 . S
C477 C476 1.394 . S
C477 C478 1.516 . S
C478 C477 1.516 . S
C478 C479 1.502 . S
C478 C480 1.561 . S
C478 C481 1.526 . S
C479 H463 0.959 . S
C479 H464 0.959 . S
C479 H465 0.961 . S
C479 C478 1.502 . S
C480 H466 0.960 . S
C480 H467 0.961 . S
C480 H468 0.959 . S
C480 C478 1.561 . S
C481 C478 1.526 . S
C481 C482 1.396 . S
C481 C486 1.390 . S
C482 C476 1.465 . S
C482 C481 1.396 . S
C482 C483 1.399 . S
C483 H469 0.929 . S
C483 C482 1.399 . S
C483 C484 1.385 . S
C484 H470 0.931 . S
C484 C483 1.385 . S
C484 C485 1.389 . S
C485 C484 1.389 . S
C485 C486 1.387 . S
C486 H471 0.930 . S
C486 C481 1.390 . S
C486 C485 1.387 . S
H487 C499 0.930 . S
H488 C501 0.930 . S
H489 C502 0.930 . S
H490 C506 0.959 . S
H491 C506 0.959 . S
H492 C506 0.961 . S
H493 C507 0.960 . S
H494 C507 0.961 . S
H495 C507 0.959 . S
H496 C510 0.929 . S
H497 C511 0.931 . S
H498 C513 0.930 . S
C499 H487 0.930 . S
C499 C500 1.399 . S
C499 C504 1.399 . S
C500 C499 1.399 . S
C500 C501 1.376 . S
C501 H488 0.930 . S
C501 C500 1.376 . S
C501 C502 1.388 . S
C502 H489 0.930 . S
C502 C501 1.388 . S
C502 C503 1.390 . S
C503 C502 1.390 . S
C503 C504 1.394 . S
C503 C509 1.465 . S
C504 C499 1.399 . S
C504 C503 1.394 . S
C504 C505 1.516 . S
C505 C504 1.516 . S
C505 C506 1.502 . S
C505 C507 1.561 . S
C505 C508 1.526 . S
C506 H490 0.959 . S
C506 H491 0.959 . S
C506 H492 0.961 . S
C506 C505 1.502 . S
C507 H493 0.960 . S
C507 H494 0.961 . S
C507 H495 0.959 . S
C507 C505 1.561 . S
C508 C505 1.526 . S
C508 C509 1.396 . S
C508 C513 1.390 . S
C509 C503 1.465 . S
C509 C508 1.396 . S
C509 C510 1.399 . S
C510 H496 0.929 . S
C510 C509 1.399 . S
C510 C511 1.385 . S
C511 H497 0.931 . S
C511 C510 1.385 . S
C511 C512 1.389 . S
C512 C511 1.389 . S
C512 C513 1.387 . S
C513 H498 0.930 . S
C513 C508 1.390 . S
C513 C512 1.387 . S
H514 C526 0.930 . S
H515 C528 0.930 . S
H516 C529 0.930 . S
H517 C533 0.959 . S
H518 C533 0.959 . S
H519 C533 0.961 . S
H520 C534 0.960 . S
H521 C534 0.961 . S
H522 C534 0.959 . S
H523 C537 0.929 . S
H524 C538 0.931 . S
H525 C540 0.930 1_455 S
C526 H514 0.930 . S
C526 C527 1.399 . S
C526 C531 1.399 . S
C527 C526 1.399 . S
C527 C528 1.376 . S
C528 H515 0.930 . S
C528 C527 1.376 . S
C528 C529 1.388 . S
C529 H516 0.930 . S
C529 C528 1.388 . S
C529 C530 1.390 . S
C530 C529 1.390 . S
C530 C531 1.394 . S
C530 C536 1.465 . S
C531 C526 1.399 . S
C531 C530 1.394 . S
C531 C532 1.516 . S
C532 C531 1.516 . S
C532 C533 1.502 . S
C532 C534 1.561 . S
C532 C535 1.526 . S
C533 H517 0.959 . S
C533 H518 0.959 . S
C533 H519 0.961 . S
C533 C532 1.502 . S
C534 H520 0.960 . S
C534 H521 0.961 . S
C534 H522 0.959 . S
C534 C532 1.561 . S
C535 C532 1.526 . S
C535 C536 1.396 . S
C535 C540 1.390 . S
C536 C530 1.465 . S
C536 C535 1.396 . S
C536 C537 1.399 . S
C537 H523 0.929 . S
C537 C536 1.399 . S
C537 C538 1.385 1_655 S
C538 H524 0.931 . S
C538 C537 1.385 1_455 S
C538 C539 1.389 . S
C539 C538 1.389 . S
C539 C540 1.387 1_455 S
C540 H525 0.930 1_655 S
C540 C535 1.390 . S
C540 C539 1.387 1_655 S
H541 C553 0.930 . S
H542 C555 0.930 . S
H543 C556 0.930 . S
H544 C560 0.959 . S
H545 C560 0.959 . S
H546 C560 0.961 . S
H547 C561 0.960 . S
H548 C561 0.961 . S
H549 C561 0.959 . S
H550 C564 0.929 . S
H551 C565 0.931 . S
H552 C567 0.930 . S
C553 H541 0.930 . S
C553 C554 1.399 . S
C553 C558 1.399 . S
C554 C553 1.399 . S
C554 C555 1.376 1_556 S
C555 H542 0.930 . S
C555 C554 1.376 1_554 S
C555 C556 1.388 . S
C556 H543 0.930 . S
C556 C555 1.388 . S
C556 C557 1.390 1_554 S
C557 C556 1.390 1_556 S
C557 C558 1.394 . S
C557 C563 1.461 1_556 S
C558 C553 1.399 . S
C558 C557 1.394 . S
C558 C559 1.516 . S
C559 C558 1.516 . S
C559 C560 1.502 . S
C559 C561 1.561 . S
C559 C562 1.526 . S
C560 H544 0.959 . S
C560 H545 0.959 . S
C560 H546 0.961 . S
C560 C559 1.502 . S
C561 H547 0.960 . S
C561 H548 0.961 . S
C561 H549 0.959 . S
C561 C559 1.561 . S
C562 C559 1.526 . S
C562 C563 1.375 1_556 S
C562 C567 1.390 . S
C563 C557 1.461 1_554 S
C563 C562 1.375 1_554 S
C563 C564 1.419 . S
C564 H550 0.929 . S
C564 C563 1.419 . S
C564 C565 1.385 . S
C565 H551 0.931 . S
C565 C564 1.385 . S
C565 C566 1.383 1_554 S
C566 C565 1.383 1_556 S
C566 C567 1.393 . S
C567 H552 0.930 . S
C567 C562 1.390 . S
C567 C566 1.393 . S
H568 C580 0.930 . S
H569 C582 0.930 . S
H570 C583 0.930 . S
H571 C587 0.959 . S
H572 C587 0.959 . S
H573 C587 0.961 . S
H574 C588 0.960 . S
H575 C588 0.961 . S
H576 C588 0.959 . S
H577 C591 0.929 . S
H578 C592 0.931 . S
H579 C594 0.930 1_455 S
C580 H568 0.930 . S
C580 C581 1.399 . S
C580 C585 1.399 . S
C581 C580 1.399 . S
C581 C582 1.376 1_545 S
C582 H569 0.930 . S
C582 C581 1.376 1_565 S
C582 C583 1.388 . S
C583 H570 0.930 . S
C583 C582 1.388 . S
C583 C584 1.390 1_565 S
C584 C583 1.390 1_545 S
C584 C585 1.394 . S
C584 C590 1.465 1_545 S
C585 C580 1.399 . S
C585 C584 1.394 . S
C585 C586 1.516 . S
C586 C585 1.516 . S
C586 C587 1.502 . S
C586 C588 1.561 . S
C586 C589 1.526 . S
C587 H571 0.959 . S
C587 H572 0.959 . S
C587 H573 0.961 . S
C587 C586 1.502 . S
C588 H574 0.960 . S
C588 H575 0.961 . S
C588 H576 0.959 . S
C588 C586 1.561 . S
C589 C586 1.526 . S
C589 C590 1.396 1_545 S
C589 C594 1.390 . S
C590 C584 1.465 1_565 S
C590 C589 1.396 1_565 S
C590 C591 1.399 . S
C591 H577 0.929 . S
C591 C590 1.399 . S
C591 C592 1.385 1_655 S
C592 H578 0.931 . S
C592 C591 1.385 1_455 S
C592 C593 1.389 1_565 S
C593 C592 1.389 1_545 S
C593 C594 1.387 1_455 S
C594 H579 0.930 1_655 S
C594 C589 1.390 . S
C594 C593 1.387 1_655 S
H595 C607 0.930 . S
H596 C609 0.930 . S
H597 C610 0.930 1_556 S
H598 C614 0.959 . S
H599 C614 0.959 . S
H600 C614 0.961 . S
H601 C615 0.960 . S
H602 C615 0.961 . S
H603 C615 0.959 . S
H604 C618 0.929 . S
H605 C619 0.931 . S
H606 C621 0.930 . S
C607 H595 0.930 . S
C607 C608 1.399 . S
C607 C612 1.399 . S
C608 C607 1.399 . S
C608 C609 1.376 . S
C609 H596 0.930 . S
C609 C608 1.376 . S
C609 C610 1.388 . S
C610 H597 0.930 1_554 S
C610 C609 1.388 . S
C610 C611 1.390 . S
C611 C610 1.390 . S
C611 C612 1.394 . S
C611 C617 1.465 . S
C612 C607 1.399 . S
C612 C611 1.394 . S
C612 C613 1.516 . S
C613 C612 1.516 . S
C613 C614 1.502 . S
C613 C615 1.561 . S
C613 C616 1.526 . S
C614 H598 0.959 . S
C614 H599 0.959 . S
C614 H600 0.961 . S
C614 C613 1.502 . S
C615 H601 0.960 . S
C615 H602 0.961 . S
C615 H603 0.959 . S
C615 C613 1.561 . S
C616 C613 1.526 . S
C616 C617 1.396 . S
C616 C621 1.390 . S
C617 C611 1.465 . S
C617 C616 1.396 . S
C617 C618 1.399 1_554 S
C618 H604 0.929 . S
C618 C617 1.399 1_556 S
C618 C619 1.385 . S
C619 H605 0.931 . S
C619 C618 1.385 . S
C619 C620 1.389 1_556 S
C620 C619 1.389 1_554 S
C620 C621 1.387 . S
C621 H606 0.930 . S
C621 C616 1.390 . S
C621 C620 1.387 . S
H622 C634 0.930 . S
H623 C636 0.930 . S
H624 C637 0.930 . S
H625 C641 0.959 . S
H626 C641 0.959 . S
H627 C641 0.961 . S
H628 C642 0.960 . S
H629 C642 0.961 . S
H630 C642 0.959 . S
H631 C645 0.929 . S
H632 C646 0.931 . S
H633 C648 0.930 . S
C634 H622 0.930 . S
C634 C635 1.399 . S
C634 C639 1.399 . S
C635 C634 1.399 . S
C635 C636 1.376 1_565 S
C636 H623 0.930 . S
C636 C635 1.376 1_545 S
C636 C637 1.388 . S
C637 H624 0.930 . S
C637 C636 1.388 . S
C637 C638 1.390 . S
C638 C637 1.390 . S
C638 C639 1.394 1_545 S
C638 C644 1.467 . S
C639 C634 1.399 . S
C639 C638 1.394 1_565 S
C639 C640 1.516 . S
C640 C639 1.516 . S
C640 C641 1.502 . S
C640 C642 1.561 . S
C640 C643 1.526 . S
C641 H625 0.959 . S
C641 H626 0.959 . S
C641 H627 0.961 . S
C641 C640 1.502 . S
C642 H628 0.960 . S
C642 H629 0.961 . S
C642 H630 0.959 . S
C642 C640 1.561 . S
C643 C640 1.526 . S
C643 C644 1.372 1_565 S
C643 C648 1.390 . S
C644 C638 1.467 . S
C644 C643 1.372 1_545 S
C644 C645 1.416 . S
C645 H631 0.929 . S
C645 C644 1.416 . S
C645 C646 1.385 . S
C646 H632 0.931 . S
C646 C645 1.385 . S
C646 C647 1.389 1_545 S
C647 C646 1.389 1_565 S
C647 C648 1.387 . S
C648 H633 0.930 . S
C648 C643 1.390 . S
C648 C647 1.387 . S
H649 C661 0.930 . S
H650 C663 0.930 . S
H651 C664 0.930 . S
H652 C668 0.959 . S
H653 C668 0.959 . S
H654 C668 0.961 . S
H655 C669 0.960 . S
H656 C669 0.961 . S
H657 C669 0.959 . S
H658 C672 0.929 . S
H659 C673 0.931 . S
H660 C675 0.930 . S
C661 H649 0.930 . S
C661 C662 1.399 . S
C661 C666 1.399 . S
C662 C661 1.399 . S
C662 C663 1.376 . S
C663 H650 0.930 . S
C663 C662 1.376 . S
C663 C664 1.388 . S
C664 H651 0.930 . S
C664 C663 1.388 . S
C664 C665 1.390 . S
C665 C664 1.390 . S
C665 C666 1.394 . S
C665 C671 1.465 . S
C666 C661 1.399 . S
C666 C665 1.394 . S
C666 C667 1.516 . S
C667 C666 1.516 . S
C667 C668 1.502 . S
C667 C669 1.561 . S
C667 C670 1.526 . S
C668 H652 0.959 . S
C668 H653 0.959 . S
C668 H654 0.961 . S
C668 C667 1.502 . S
C669 H655 0.960 . S
C669 H656 0.961 . S
C669 H657 0.959 . S
C669 C667 1.561 . S
C670 C667 1.526 . S
C670 C671 1.396 . S
C670 C675 1.390 . S
C671 C665 1.465 . S
C671 C670 1.396 . S
C671 C672 1.399 . S
C672 H658 0.929 . S
C672 C671 1.399 . S
C672 C673 1.385 . S
C673 H659 0.931 . S
C673 C672 1.385 . S
C673 C674 1.389 . S
C674 C673 1.389 . S
C674 C675 1.387 . S
C675 H660 0.930 . S
C675 C670 1.390 . S
C675 C674 1.387 . S
H676 C688 0.943 . S
H677 C690 0.930 . S
H678 C691 0.930 . S
H679 C695 0.959 . S
H680 C695 0.959 . S
H681 C695 0.961 . S
H682 C696 0.960 . S
H683 C696 0.961 . S
H684 C696 0.959 . S
H685 C699 0.929 . S
H686 C700 0.931 . S
H687 C702 0.930 . S
C688 H676 0.943 . S
C688 C689 1.414 . S
C688 C693 1.372 1_655 S
C689 C688 1.414 . S
C689 C690 1.376 1_565 S
C690 H677 0.930 . S
C690 C689 1.376 1_545 S
C690 C691 1.388 1_655 S
C691 H678 0.930 . S
C691 C690 1.388 1_455 S
C691 C692 1.390 . S
C692 C691 1.390 . S
C692 C693 1.394 1_545 S
C692 C698 1.465 1_545 S
C693 C688 1.372 1_455 S
C693 C692 1.394 1_565 S
C693 C694 1.516 . S
C694 C693 1.516 . S
C694 C695 1.502 . S
C694 C696 1.561 . S
C694 C697 1.526 . S
C695 H679 0.959 . S
C695 H680 0.959 . S
C695 H681 0.961 . S
C695 C694 1.502 . S
C696 H682 0.960 . S
C696 H683 0.961 . S
C696 H684 0.959 . S
C696 C694 1.561 . S
C697 C694 1.526 . S
C697 C698 1.396 . S
C697 C702 1.390 . S
C698 C692 1.465 1_565 S
C698 C697 1.396 . S
C698 C699 1.399 1_565 S
C699 H685 0.929 . S
C699 C698 1.399 1_545 S
C699 C700 1.385 . S
C700 H686 0.931 . S
C700 C699 1.385 . S
C700 C701 1.389 1_545 S
C701 C700 1.389 1_565 S
C701 C702 1.387 . S
C702 H687 0.930 . S
C702 C697 1.390 . S
C702 C701 1.387 . S
H703 C715 0.930 1_554 S
H704 C717 0.930 . S
H705 C718 0.930 . S
H706 C722 0.959 . S
H707 C722 0.959 . S
H708 C722 0.961 . S
H709 C723 0.960 . S
H710 C723 0.961 . S
H711 C723 0.959 . S
H712 C726 0.929 . S
H713 C727 0.931 . S
H714 C729 0.930 . S
C715 H703 0.930 1_556 S
C715 C716 1.399 . S
C715 C720 1.399 . S
C716 C715 1.399 . S
C716 C717 1.376 . S
C717 H704 0.930 . S
C717 C716 1.376 . S
C717 C718 1.388 . S
C718 H705 0.930 . S
C718 C717 1.388 . S
C718 C719 1.390 . S
C719 C718 1.390 . S
C719 C720 1.394 . S
C719 C725 1.465 . S
C720 C715 1.399 . S
C720 C719 1.394 . S
C720 C721 1.516 1_556 S
C721 C720 1.516 1_554 S
C721 C722 1.502 . S
C721 C723 1.561 . S
C721 C724 1.526 . S
C722 H706 0.959 . S
C722 H707 0.959 . S
C722 H708 0.961 . S
C722 C721 1.502 . S
C723 H709 0.960 . S
C723 H710 0.961 . S
C723 H711 0.959 . S
C723 C721 1.561 . S
C724 C721 1.526 . S
C724 C725 1.396 1_554 S
C724 C729 1.390 . S
C725 C719 1.465 . S
C725 C724 1.396 1_556 S
C725 C726 1.399 . S
C726 H712 0.929 . S
C726 C725 1.399 . S
C726 C727 1.385 . S
C727 H713 0.931 . S
C727 C726 1.385 . S
C727 C728 1.389 . S
C728 C727 1.389 . S
C728 C729 1.387 1_556 S
C729 H714 0.930 . S
C729 C724 1.390 . S
C729 C728 1.387 1_554 S
H730 C742 0.930 . S
H731 C744 0.930 . S
H732 C745 0.930 . S
H733 C749 0.959 . S
H734 C749 0.959 . S
H735 C749 0.961 . S
H736 C750 0.960 . S
H737 C750 0.961 . S
H738 C750 0.959 . S
H739 C753 0.929 . S
H740 C754 0.931 . S
H741 C756 0.930 . S
C742 H730 0.930 . S
C742 C743 1.399 . S
C742 C747 1.399 . S
C743 C742 1.399 . S
C743 C744 1.376 1_545 S
C744 H731 0.930 . S
C744 C743 1.376 1_565 S
C744 C745 1.388 . S
C745 H732 0.930 . S
C745 C744 1.388 . S
C745 C746 1.390 . S
C746 C745 1.390 . S
C746 C747 1.394 1_565 S
C746 C752 1.465 1_565 S
C747 C742 1.399 . S
C747 C746 1.394 1_545 S
C747 C748 1.516 . S
C748 C747 1.516 . S
C748 C749 1.502 . S
C748 C750 1.561 . S
C748 C751 1.526 . S
C749 H733 0.959 . S
C749 H734 0.959 . S
C749 H735 0.961 . S
C749 C748 1.502 . S
C750 H736 0.960 . S
C750 H737 0.961 . S
C750 H738 0.959 . S
C750 C748 1.561 . S
C751 C748 1.526 . S
C751 C752 1.396 . S
C751 C756 1.390 . S
C752 C746 1.465 1_545 S
C752 C751 1.396 . S
C752 C753 1.399 1_545 S
C753 H739 0.929 . S
C753 C752 1.399 1_565 S
C753 C754 1.385 . S
C754 H740 0.931 . S
C754 C753 1.385 . S
C754 C755 1.389 1_565 S
C755 C754 1.389 1_545 S
C755 C756 1.387 . S
C756 H741 0.930 . S
C756 C751 1.390 . S
C756 C755 1.387 . S
H757 C769 0.930 . S
H758 C771 0.930 . S
H759 C772 0.930 . S
H760 C776 0.959 . S
H761 C776 0.959 . S
H762 C776 0.961 . S
H763 C777 0.960 . S
H764 C777 0.961 . S
H765 C777 0.959 . S
H766 C780 0.929 . S
H767 C781 0.931 . S
H768 C783 0.930 . S
C769 H757 0.930 . S
C769 C770 1.399 . S
C769 C774 1.399 . S
C770 C769 1.399 . S
C770 C771 1.376 . S
C771 H758 0.930 . S
C771 C770 1.376 . S
C771 C772 1.388 . S
C772 H759 0.930 . S
C772 C771 1.388 . S
C772 C773 1.390 . S
C773 C772 1.390 . S
C773 C774 1.394 . S
C773 C779 1.465 . S
C774 C769 1.399 . S
C774 C773 1.394 . S
C774 C775 1.516 . S
C775 C774 1.516 . S
C775 C776 1.502 . S
C775 C777 1.561 . S
C775 C778 1.526 . S
C776 H760 0.959 . S
C776 H761 0.959 . S
C776 H762 0.961 . S
C776 C775 1.502 . S
C777 H763 0.960 . S
C777 H764 0.961 . S
C777 H765 0.959 . S
C777 C775 1.561 . S
C778 C775 1.526 . S
C778 C779 1.396 . S
C778 C783 1.390 . S
C779 C773 1.465 . S
C779 C778 1.396 . S
C779 C780 1.399 . S
C780 H766 0.929 . S
C780 C779 1.399 . S
C780 C781 1.385 . S
C781 H767 0.931 . S
C781 C780 1.385 . S
C781 C782 1.389 . S
C782 C781 1.389 . S
C782 C783 1.387 . S
C783 H768 0.930 . S
C783 C778 1.390 . S
C783 C782 1.387 . S
H784 C796 0.930 . S
H785 C798 0.930 . S
H786 C799 0.930 . S
H787 C803 0.959 . S
H788 C803 0.959 . S
H789 C803 0.961 . S
H790 C804 0.960 . S
H791 C804 0.961 . S
H792 C804 0.959 . S
H793 C807 0.929 . S
H794 C808 0.931 . S
H795 C810 0.930 . S
C796 H784 0.930 . S
C796 C797 1.399 . S
C796 C801 1.399 . S
C797 C796 1.399 . S
C797 C798 1.376 . S
C798 H785 0.930 . S
C798 C797 1.376 . S
C798 C799 1.388 . S
C799 H786 0.930 . S
C799 C798 1.388 . S
C799 C800 1.390 . S
C800 C799 1.390 . S
C800 C801 1.394 . S
C800 C806 1.465 . S
C801 C796 1.399 . S
C801 C800 1.394 . S
C801 C802 1.516 . S
C802 C801 1.516 . S
C802 C803 1.502 . S
C802 C804 1.561 . S
C802 C805 1.526 . S
C803 H787 0.959 . S
C803 H788 0.959 . S
C803 H789 0.961 . S
C803 C802 1.502 . S
C804 H790 0.960 . S
C804 H791 0.961 . S
C804 H792 0.959 . S
C804 C802 1.561 . S
C805 C802 1.526 . S
C805 C806 1.396 . S
C805 C810 1.390 . S
C806 C800 1.465 . S
C806 C805 1.396 . S
C806 C807 1.399 . S
C807 H793 0.929 . S
C807 C806 1.399 . S
C807 C808 1.385 . S
C808 H794 0.931 . S
C808 C807 1.385 . S
C808 C809 1.389 . S
C809 C808 1.389 . S
C809 C810 1.387 . S
C810 H795 0.930 . S
C810 C805 1.390 . S
C810 C809 1.387 . S
H811 C823 0.930 . S
H812 C825 0.930 . S
H813 C826 0.930 . S
H814 C830 0.959 . S
H815 C830 0.959 . S
H816 C830 0.961 1_455 S
H817 C831 0.960 . S
H818 C831 0.961 1_655 S
H819 C831 0.959 . S
H820 C834 0.929 . S
H821 C835 0.931 . S
H822 C837 0.930 . S
C823 H811 0.930 . S
C823 C824 1.399 . S
C823 C828 1.399 . S
C824 C823 1.399 . S
C824 C825 1.376 . S
C825 H812 0.930 . S
C825 C824 1.376 . S
C825 C826 1.388 . S
C826 H813 0.930 . S
C826 C825 1.388 . S
C826 C827 1.390 . S
C827 C826 1.390 . S
C827 C828 1.394 . S
C827 C833 1.465 1_455 S
C828 C823 1.399 . S
C828 C827 1.394 . S
C828 C829 1.516 . S
C829 C828 1.516 . S
C829 C830 1.502 1_455 S
C829 C831 1.561 . S
C829 C832 1.526 1_455 S
C830 H814 0.959 . S
C830 H815 0.959 . S
C830 H816 0.961 1_655 S
C830 C829 1.502 1_655 S
C831 H817 0.960 . S
C831 H818 0.961 1_455 S
C831 H819 0.959 . S
C831 C829 1.561 . S
C832 C829 1.526 1_655 S
C832 C833 1.396 . S
C832 C837 1.390 . S
C833 C827 1.465 1_655 S
C833 C832 1.396 . S
C833 C834 1.399 . S
C834 H820 0.929 . S
C834 C833 1.399 . S
C834 C835 1.385 . S
C835 H821 0.931 . S
C835 C834 1.385 . S
C835 C836 1.389 . S
C836 C835 1.389 . S
C836 C837 1.387 . S
C837 H822 0.930 . S
C837 C832 1.390 . S
C837 C836 1.387 . S
H838 C850 0.930 . S
H839 C852 0.930 . S
H840 C853 0.930 . S
H841 C857 0.959 . S
H842 C857 0.959 . S
H843 C857 0.961 . S
H844 C858 0.960 . S
H845 C858 0.961 . S
H846 C858 0.959 . S
H847 C861 0.929 . S
H848 C862 0.931 . S
H849 C864 0.930 . S
C850 H838 0.930 . S
C850 C851 1.399 . S
C850 C855 1.399 . S
C851 C850 1.399 . S
C851 C852 1.376 . S
C852 H839 0.930 . S
C852 C851 1.376 . S
C852 C853 1.388 . S
C853 H840 0.930 . S
C853 C852 1.388 . S
C853 C854 1.390 . S
C854 C853 1.390 . S
C854 C855 1.394 . S
C854 C860 1.465 . S
C855 C850 1.399 . S
C855 C854 1.394 . S
C855 C856 1.516 . S
C856 C855 1.516 . S
C856 C857 1.502 . S
C856 C858 1.561 . S
C856 C859 1.526 . S
C857 H841 0.959 . S
C857 H842 0.959 . S
C857 H843 0.961 . S
C857 C856 1.502 . S
C858 H844 0.960 . S
C858 H845 0.961 . S
C858 H846 0.959 . S
C858 C856 1.561 . S
C859 C856 1.526 . S
C859 C860 1.396 . S
C859 C864 1.390 . S
C860 C854 1.465 . S
C860 C859 1.396 . S
C860 C861 1.399 . S
C861 H847 0.929 . S
C861 C860 1.399 . S
C861 C862 1.385 . S
C862 H848 0.931 . S
C862 C861 1.385 . S
C862 C863 1.389 . S
C863 C862 1.389 . S
C863 C864 1.387 . S
C864 H849 0.930 . S
C864 C859 1.390 . S
C864 C863 1.387 . S
H865 C877 0.930 . S
H866 C879 0.930 . S
H867 C880 0.930 . S
H868 C884 0.959 . S
H869 C884 0.959 . S
H870 C884 0.961 . S
H871 C885 0.960 . S
H872 C885 0.961 . S
H873 C885 0.959 . S
H874 C888 0.929 . S
H875 C889 0.931 . S
H876 C891 0.930 . S
C877 H865 0.930 . S
C877 C878 1.399 1_556 S
C877 C882 1.399 . S
C878 C877 1.399 1_554 S
C878 C879 1.376 . S
C879 H866 0.930 . S
C879 C878 1.376 . S
C879 C880 1.388 . S
C880 H867 0.930 . S
C880 C879 1.388 . S
C880 C881 1.390 . S
C881 C880 1.390 . S
C881 C882 1.394 1_554 S
C881 C887 1.465 . S
C882 C877 1.399 . S
C882 C881 1.394 1_556 S
C882 C883 1.516 . S
C883 C882 1.516 . S
C883 C884 1.502 . S
C883 C885 1.561 . S
C883 C886 1.526 . S
C884 H868 0.959 . S
C884 H869 0.959 . S
C884 H870 0.961 . S
C884 C883 1.502 . S
C885 H871 0.960 . S
C885 H872 0.961 . S
C885 H873 0.959 . S
C885 C883 1.561 . S
C886 C883 1.526 . S
C886 C887 1.396 1_556 S
C886 C891 1.390 . S
C887 C881 1.465 . S
C887 C886 1.396 1_554 S
C887 C888 1.399 . S
C888 H874 0.929 . S
C888 C887 1.399 . S
C888 C889 1.385 . S
C889 H875 0.931 . S
C889 C888 1.385 . S
C889 C890 1.389 1_554 S
C890 C889 1.389 1_556 S
C890 C891 1.387 . S
C891 H876 0.930 . S
C891 C886 1.390 . S
C891 C890 1.387 . S
H892 C904 0.930 . S
H893 C906 0.930 . S
H894 C907 0.930 . S
H895 C911 0.959 . S
H896 C911 0.959 . S
H897 C911 0.961 . S
H898 C912 0.960 . S
H899 C912 0.961 . S
H900 C912 0.959 . S
H901 C915 0.929 . S
H902 C916 0.931 . S
H903 C918 0.930 . S
C904 H892 0.930 . S
C904 C905 1.399 . S
C904 C909 1.399 . S
C905 C904 1.399 . S
C905 C906 1.376 . S
C906 H893 0.930 . S
C906 C905 1.376 . S
C906 C907 1.388 . S
C907 H894 0.930 . S
C907 C906 1.388 . S
C907 C908 1.390 . S
C908 C907 1.390 . S
C908 C909 1.394 . S
C908 C914 1.465 . S
C909 C904 1.399 . S
C909 C908 1.394 . S
C909 C910 1.516 . S
C910 C909 1.516 . S
C910 C911 1.502 . S
C910 C912 1.561 . S
C910 C913 1.526 . S
C911 H895 0.959 . S
C911 H896 0.959 . S
C911 H897 0.961 . S
C911 C910 1.502 . S
C912 H898 0.960 . S
C912 H899 0.961 . S
C912 H900 0.959 . S
C912 C910 1.561 . S
C913 C910 1.526 . S
C913 C914 1.396 . S
C913 C918 1.390 . S
C914 C908 1.465 . S
C914 C913 1.396 . S
C914 C915 1.399 . S
C915 H901 0.929 . S
C915 C914 1.399 . S
C915 C916 1.385 . S
C916 H902 0.931 . S
C916 C915 1.385 . S
C916 C917 1.389 . S
C917 C916 1.389 . S
C917 C918 1.387 . S
C918 H903 0.930 . S
C918 C913 1.390 . S
C918 C917 1.387 . S
H919 C931 0.930 . S
H920 C933 0.930 . S
H921 C934 0.930 . S
H922 C938 0.959 . S
H923 C938 0.959 . S
H924 C938 0.961 . S
H925 C939 0.960 . S
H926 C939 0.961 . S
H927 C939 0.959 . S
H928 C942 0.929 . S
H929 C943 0.931 . S
H930 C945 0.930 . S
C931 H919 0.930 . S
C931 C932 1.399 . S
C931 C936 1.399 . S
C932 C931 1.399 . S
C932 C933 1.376 . S
C933 H920 0.930 . S
C933 C932 1.376 . S
C933 C934 1.388 . S
C934 H921 0.930 . S
C934 C933 1.388 . S
C934 C935 1.390 . S
C935 C934 1.390 . S
C935 C936 1.394 . S
C935 C941 1.465 . S
C936 C931 1.399 . S
C936 C935 1.394 . S
C936 C937 1.516 . S
C937 C936 1.516 . S
C937 C938 1.502 . S
C937 C939 1.561 . S
C937 C940 1.526 . S
C938 H922 0.959 . S
C938 H923 0.959 . S
C938 H924 0.961 . S
C938 C937 1.502 . S
C939 H925 0.960 . S
C939 H926 0.961 . S
C939 H927 0.959 . S
C939 C937 1.561 . S
C940 C937 1.526 . S
C940 C941 1.396 . S
C940 C945 1.390 . S
C941 C935 1.465 . S
C941 C940 1.396 . S
C941 C942 1.399 . S
C942 H928 0.929 . S
C942 C941 1.399 . S
C942 C943 1.385 . S
C943 H929 0.931 . S
C943 C942 1.385 . S
C943 C944 1.389 . S
C944 C943 1.389 . S
C944 C945 1.387 . S
C945 H930 0.930 . S
C945 C940 1.390 . S
C945 C944 1.387 . S
H946 C958 0.930 . S
H947 C960 0.930 . S
H948 C961 0.930 . S
H949 C965 0.959 . S
H950 C965 0.959 . S
H951 C965 0.961 . S
H952 C966 0.960 1_565 S
H953 C966 0.961 . S
H954 C966 0.959 . S
H955 C969 0.929 . S
H956 C970 0.931 . S
H957 C972 0.930 . S
C958 H946 0.930 . S
C958 C959 1.399 1_554 S
C958 C963 1.399 . S
C959 C958 1.399 1_556 S
C959 C960 1.376 . S
C960 H947 0.930 . S
C960 C959 1.376 . S
C960 C961 1.388 1_565 S
C961 H948 0.930 . S
C961 C960 1.388 1_545 S
C961 C962 1.390 . S
C962 C961 1.390 . S
C962 C963 1.394 1_546 S
C962 C968 1.465 . S
C963 C958 1.399 . S
C963 C962 1.394 1_564 S
C963 C964 1.516 . S
C964 C963 1.516 . S
C964 C965 1.502 . S
C964 C966 1.561 1_565 S
C964 C967 1.526 1_565 S
C965 H949 0.959 . S
C965 H950 0.959 . S
C965 H951 0.961 . S
C965 C964 1.502 . S
C966 H952 0.960 1_545 S
C966 H953 0.961 . S
C966 H954 0.959 . S
C966 C964 1.561 1_545 S
C967 C964 1.526 1_545 S
C967 C968 1.396 1_554 S
C967 C972 1.390 . S
C968 C962 1.465 . S
C968 C967 1.396 1_556 S
C968 C969 1.399 . S
C969 H955 0.929 . S
C969 C968 1.399 . S
C969 C970 1.385 . S
C970 H956 0.931 . S
C970 C969 1.385 . S
C970 C971 1.389 1_556 S
C971 C970 1.389 1_554 S
C971 C972 1.387 . S
C972 H957 0.930 . S
C972 C967 1.390 . S
C972 C971 1.387 . S
H973 C985 0.930 . S
H974 C987 0.930 . S
H975 C988 0.924 1_545 S
H976 C992 0.959 . S
H977 C992 0.959 1_655 S
H978 C992 0.961 1_565 S
H979 C993 0.960 1_455 S
H980 C993 0.961 . S
H981 C993 0.959 . S
H982 C996 0.929 . S
H983 C997 0.931 . S
H984 C999 0.930 . S
C985 H973 0.930 . S
C985 C986 1.399 . S
C985 C990 1.399 . S
C986 C985 1.399 . S
C986 C987 1.376 . S
C987 H974 0.930 . S
C987 C986 1.376 . S
C987 C988 1.388 . S
C988 H975 0.924 1_565 S
C988 C987 1.388 . S
C988 C989 1.390 . S
C989 C988 1.390 . S
C989 C990 1.394 . S
C989 C995 1.465 1_465 S
C990 C985 1.399 . S
C990 C989 1.394 . S
C990 C991 1.496 1_455 S
C991 C990 1.496 1_655 S
C991 C992 1.495 1_665 S
C991 C993 1.570 . S
C991 C994 1.546 1_565 S
C992 H976 0.959 . S
C992 H977 0.959 1_455 S
C992 H978 0.961 1_545 S
C992 C991 1.495 1_445 S
C993 H979 0.960 1_655 S
C993 H980 0.961 . S
C993 H981 0.959 . S
C993 C991 1.570 . S
C994 C991 1.546 1_545 S
C994 C995 1.396 . S
C994 C999 1.390 . S
C995 C989 1.465 1_645 S
C995 C994 1.396 . S
C995 C996 1.399 . S
C996 H982 0.929 . S
C996 C995 1.399 . S
C996 C997 1.385 . S
C997 H983 0.931 . S
C997 C996 1.385 . S
C997 C998 1.389 . S
C998 C997 1.389 . S
C998 C999 1.387 . S
C999 H984 0.930 . S
C999 C994 1.390 . S
C999 C998 1.387 . S
H1000 C1012 0.930 . S
H1001 C1014 0.930 . S
H1002 C1015 0.930 . S
H1003 C1019 0.959 . S
H1004 C1019 0.959 . S
H1005 C1019 0.961 . S
H1006 C1020 0.960 . S
H1007 C1020 0.961 . S
H1008 C1020 0.959 . S
H1009 C1023 0.929 . S
H1010 C1024 0.931 . S
H1011 C1026 0.930 . S
C1012 H1000 0.930 . S
C1012 C1013 1.399 . S
C1012 C1017 1.399 . S
C1013 C1012 1.399 . S
C1013 C1014 1.376 . S
C1014 H1001 0.930 . S
C1014 C1013 1.376 . S
C1014 C1015 1.388 . S
C1015 H1002 0.930 . S
C1015 C1014 1.388 . S
C1015 C1016 1.390 . S
C1016 C1015 1.390 . S
C1016 C1017 1.394 . S
C1016 C1022 1.465 . S
C1017 C1012 1.399 . S
C1017 C1016 1.394 . S
C1017 C1018 1.516 . S
C1018 C1017 1.516 . S
C1018 C1019 1.502 . S
C1018 C1020 1.561 . S
C1018 C1021 1.526 . S
C1019 H1003 0.959 . S
C1019 H1004 0.959 . S
C1019 H1005 0.961 . S
C1019 C1018 1.502 . S
C1020 H1006 0.960 . S
C1020 H1007 0.961 . S
C1020 H1008 0.959 . S
C1020 C1018 1.561 . S
C1021 C1018 1.526 . S
C1021 C1022 1.396 . S
C1021 C1026 1.390 . S
C1022 C1016 1.465 . S
C1022 C1021 1.396 . S
C1022 C1023 1.399 . S
C1023 H1009 0.929 . S
C1023 C1022 1.399 . S
C1023 C1024 1.385 . S
C1024 H1010 0.931 . S
C1024 C1023 1.385 . S
C1024 C1025 1.389 . S
C1025 C1024 1.389 . S
C1025 C1026 1.387 . S
C1026 H1011 0.930 . S
C1026 C1021 1.390 . S
C1026 C1025 1.387 . S
H1027 C1039 0.930 . S
H1028 C1041 0.930 . S
H1029 C1042 0.930 . S
H1030 C1046 0.959 . S
H1031 C1046 0.959 . S
H1032 C1046 0.961 . S
H1033 C1047 0.960 . S
H1034 C1047 0.961 . S
H1035 C1047 0.959 . S
H1036 C1050 0.929 . S
H1037 C1051 0.931 . S
H1038 C1053 0.930 . S
C1039 H1027 0.930 . S
C1039 C1040 1.399 . S
C1039 C1044 1.399 . S
C1040 C1039 1.399 . S
C1040 C1041 1.376 . S
C1041 H1028 0.930 . S
C1041 C1040 1.376 . S
C1041 C1042 1.388 . S
C1042 H1029 0.930 . S
C1042 C1041 1.388 . S
C1042 C1043 1.390 . S
C1043 C1042 1.390 . S
C1043 C1044 1.394 . S
C1043 C1049 1.465 . S
C1044 C1039 1.399 . S
C1044 C1043 1.394 . S
C1044 C1045 1.516 . S
C1045 C1044 1.516 . S
C1045 C1046 1.502 . S
C1045 C1047 1.561 . S
C1045 C1048 1.526 . S
C1046 H1030 0.959 . S
C1046 H1031 0.959 . S
C1046 H1032 0.961 . S
C1046 C1045 1.502 . S
C1047 H1033 0.960 . S
C1047 H1034 0.961 . S
C1047 H1035 0.959 . S
C1047 C1045 1.561 . S
C1048 C1045 1.526 . S
C1048 C1049 1.396 . S
C1048 C1053 1.390 . S
C1049 C1043 1.465 . S
C1049 C1048 1.396 . S
C1049 C1050 1.399 . S
C1050 H1036 0.929 . S
C1050 C1049 1.399 . S
C1050 C1051 1.385 . S
C1051 H1037 0.931 . S
C1051 C1050 1.385 . S
C1051 C1052 1.389 . S
C1052 C1051 1.389 . S
C1052 C1053 1.387 . S
C1053 H1038 0.930 . S
C1053 C1048 1.390 . S
C1053 C1052 1.387 . S
H1054 C1066 0.930 . S
H1055 C1068 0.930 . S
H1056 C1069 0.930 . S
H1057 C1073 0.959 . S
H1058 C1073 0.959 . S
H1059 C1073 0.961 . S
H1060 C1074 0.960 . S
H1061 C1074 0.961 . S
H1062 C1074 0.959 . S
H1063 C1077 0.929 . S
H1064 C1078 0.931 . S
H1065 C1080 0.930 . S
C1066 H1054 0.930 . S
C1066 C1067 1.399 . S
C1066 C1071 1.399 . S
C1067 C1066 1.399 . S
C1067 C1068 1.376 . S
C1068 H1055 0.930 . S
C1068 C1067 1.376 . S
C1068 C1069 1.388 . S
C1069 H1056 0.930 . S
C1069 C1068 1.388 . S
C1069 C1070 1.390 . S
C1070 C1069 1.390 . S
C1070 C1071 1.394 . S
C1070 C1076 1.465 . S
C1071 C1066 1.399 . S
C1071 C1070 1.394 . S
C1071 C1072 1.516 . S
C1072 C1071 1.516 . S
C1072 C1073 1.502 . S
C1072 C1074 1.561 . S
C1072 C1075 1.526 . S
C1073 H1057 0.959 . S
C1073 H1058 0.959 . S
C1073 H1059 0.961 . S
C1073 C1072 1.502 . S
C1074 H1060 0.960 . S
C1074 H1061 0.961 . S
C1074 H1062 0.959 . S
C1074 C1072 1.561 . S
C1075 C1072 1.526 . S
C1075 C1076 1.396 . S
C1075 C1080 1.390 . S
C1076 C1070 1.465 . S
C1076 C1075 1.396 . S
C1076 C1077 1.399 . S
C1077 H1063 0.929 . S
C1077 C1076 1.399 . S
C1077 C1078 1.385 . S
C1078 H1064 0.931 . S
C1078 C1077 1.385 . S
C1078 C1079 1.389 . S
C1079 C1078 1.389 . S
C1079 C1080 1.387 . S
C1080 H1065 0.930 . S
C1080 C1075 1.390 . S
C1080 C1079 1.387 . S
H1081 C1093 0.930 . S
H1082 C1095 0.930 . S
H1083 C1096 0.930 . S
H1084 C1100 0.959 . S
H1085 C1100 0.959 . S
H1086 C1100 0.961 . S
H1087 C1101 0.960 . S
H1088 C1101 0.961 . S
H1089 C1101 0.959 . S
H1090 C1104 0.929 . S
H1091 C1105 0.931 . S
H1092 C1107 0.930 . S
C1093 H1081 0.930 . S
C1093 C1094 1.399 . S
C1093 C1098 1.399 . S
C1094 C1093 1.399 . S
C1094 C1095 1.376 . S
C1095 H1082 0.930 . S
C1095 C1094 1.376 . S
C1095 C1096 1.388 . S
C1096 H1083 0.930 . S
C1096 C1095 1.388 . S
C1096 C1097 1.390 . S
C1097 C1096 1.390 . S
C1097 C1098 1.394 . S
C1097 C1103 1.465 . S
C1098 C1093 1.399 . S
C1098 C1097 1.394 . S
C1098 C1099 1.516 . S
C1099 C1098 1.516 . S
C1099 C1100 1.502 . S
C1099 C1101 1.561 . S
C1099 C1102 1.526 . S
C1100 H1084 0.959 . S
C1100 H1085 0.959 . S
C1100 H1086 0.961 . S
C1100 C1099 1.502 . S
C1101 H1087 0.960 . S
C1101 H1088 0.961 . S
C1101 H1089 0.959 . S
C1101 C1099 1.561 . S
C1102 C1099 1.526 . S
C1102 C1103 1.396 . S
C1102 C1107 1.390 . S
C1103 C1097 1.465 . S
C1103 C1102 1.396 . S
C1103 C1104 1.399 . S
C1104 H1090 0.929 . S
C1104 C1103 1.399 . S
C1104 C1105 1.385 . S
C1105 H1091 0.931 . S
C1105 C1104 1.385 . S
C1105 C1106 1.389 . S
C1106 C1105 1.389 . S
C1106 C1107 1.387 . S
C1107 H1092 0.930 . S
C1107 C1102 1.390 . S
C1107 C1106 1.387 . S
H1108 C1120 0.930 . S
H1109 C1122 0.930 . S
H1110 C1123 0.930 . S
H1111 C1127 0.959 . S
H1112 C1127 0.959 . S
H1113 C1127 0.961 . S
H1114 C1128 0.960 . S
H1115 C1128 0.961 . S
H1116 C1128 0.959 . S
H1117 C1131 0.929 . S
H1118 C1132 0.931 . S
H1119 C1134 0.930 . S
C1120 H1108 0.930 . S
C1120 C1121 1.399 . S
C1120 C1125 1.399 . S
C1121 C1120 1.399 . S
C1121 C1122 1.376 . S
C1122 H1109 0.930 . S
C1122 C1121 1.376 . S
C1122 C1123 1.388 . S
C1123 H1110 0.930 . S
C1123 C1122 1.388 . S
C1123 C1124 1.390 . S
C1124 C1123 1.390 . S
C1124 C1125 1.394 . S
C1124 C1130 1.465 . S
C1125 C1120 1.399 . S
C1125 C1124 1.394 . S
C1125 C1126 1.516 . S
C1126 C1125 1.516 . S
C1126 C1127 1.502 . S
C1126 C1128 1.561 . S
C1126 C1129 1.526 . S
C1127 H1111 0.959 . S
C1127 H1112 0.959 . S
C1127 H1113 0.961 . S
C1127 C1126 1.502 . S
C1128 H1114 0.960 . S
C1128 H1115 0.961 . S
C1128 H1116 0.959 . S
C1128 C1126 1.561 . S
C1129 C1126 1.526 . S
C1129 C1130 1.396 . S
C1129 C1134 1.390 . S
C1130 C1124 1.465 . S
C1130 C1129 1.396 . S
C1130 C1131 1.399 . S
C1131 H1117 0.929 . S
C1131 C1130 1.399 . S
C1131 C1132 1.385 . S
C1132 H1118 0.931 . S
C1132 C1131 1.385 . S
C1132 C1133 1.389 . S
C1133 C1132 1.389 . S
C1133 C1134 1.387 . S
C1134 H1119 0.930 . S
C1134 C1129 1.390 . S
C1134 C1133 1.387 . S
H1135 C1147 0.930 . S
H1136 C1149 0.930 . S
H1137 C1150 0.930 . S
H1138 C1154 0.959 . S
H1139 C1154 0.959 . S
H1140 C1154 0.961 . S
H1141 C1155 0.960 . S
H1142 C1155 0.961 . S
H1143 C1155 0.959 . S
H1144 C1158 0.929 . S
H1145 C1159 0.931 . S
H1146 C1161 0.930 . S
C1147 H1135 0.930 . S
C1147 C1148 1.399 . S
C1147 C1152 1.399 . S
C1148 C1147 1.399 . S
C1148 C1149 1.376 . S
C1149 H1136 0.930 . S
C1149 C1148 1.376 . S
C1149 C1150 1.388 . S
C1150 H1137 0.930 . S
C1150 C1149 1.388 . S
C1150 C1151 1.390 . S
C1151 C1150 1.390 . S
C1151 C1152 1.394 . S
C1151 C1157 1.465 . S
C1152 C1147 1.399 . S
C1152 C1151 1.394 . S
C1152 C1153 1.516 . S
C1153 C1152 1.516 . S
C1153 C1154 1.502 . S
C1153 C1155 1.561 . S
C1153 C1156 1.526 . S
C1154 H1138 0.959 . S
C1154 H1139 0.959 . S
C1154 H1140 0.961 . S
C1154 C1153 1.502 . S
C1155 H1141 0.960 . S
C1155 H1142 0.961 . S
C1155 H1143 0.959 . S
C1155 C1153 1.561 . S
C1156 C1153 1.526 . S
C1156 C1157 1.396 . S
C1156 C1161 1.390 . S
C1157 C1151 1.465 . S
C1157 C1156 1.396 . S
C1157 C1158 1.399 . S
C1158 H1144 0.929 . S
C1158 C1157 1.399 . S
C1158 C1159 1.385 . S
C1159 H1145 0.931 . S
C1159 C1158 1.385 . S
C1159 C1160 1.389 . S
C1160 C1159 1.389 . S
C1160 C1161 1.387 . S
C1161 H1146 0.930 . S
C1161 C1156 1.390 . S
C1161 C1160 1.387 . S
H1162 C1174 0.930 . S
H1163 C1176 0.930 . S
H1164 C1177 0.930 . S
H1165 C1181 0.959 . S
H1166 C1181 0.959 . S
H1167 C1181 0.961 . S
H1168 C1182 0.960 . S
H1169 C1182 0.961 . S
H1170 C1182 0.959 . S
H1171 C1185 0.929 . S
H1172 C1186 0.931 . S
H1173 C1188 0.930 . S
C1174 H1162 0.930 . S
C1174 C1175 1.399 . S
C1174 C1179 1.399 . S
C1175 C1174 1.399 . S
C1175 C1176 1.376 . S
C1176 H1163 0.930 . S
C1176 C1175 1.376 . S
C1176 C1177 1.388 . S
C1177 H1164 0.930 . S
C1177 C1176 1.388 . S
C1177 C1178 1.390 . S
C1178 C1177 1.390 . S
C1178 C1179 1.394 . S
C1178 C1184 1.465 . S
C1179 C1174 1.399 . S
C1179 C1178 1.394 . S
C1179 C1180 1.516 . S
C1180 C1179 1.516 . S
C1180 C1181 1.502 . S
C1180 C1182 1.561 . S
C1180 C1183 1.526 . S
C1181 H1165 0.959 . S
C1181 H1166 0.959 . S
C1181 H1167 0.961 . S
C1181 C1180 1.502 . S
C1182 H1168 0.960 . S
C1182 H1169 0.961 . S
C1182 H1170 0.959 . S
C1182 C1180 1.561 . S
C1183 C1180 1.526 . S
C1183 C1184 1.396 . S
C1183 C1188 1.390 . S
C1184 C1178 1.465 . S
C1184 C1183 1.396 . S
C1184 C1185 1.399 . S
C1185 H1171 0.929 . S
C1185 C1184 1.399 . S
C1185 C1186 1.385 . S
C1186 H1172 0.931 . S
C1186 C1185 1.385 . S
C1186 C1187 1.389 . S
C1187 C1186 1.389 . S
C1187 C1188 1.387 . S
C1188 H1173 0.930 . S
C1188 C1183 1.390 . S
C1188 C1187 1.387 . S
H1189 C1201 0.930 . S
H1190 C1203 0.930 . S
H1191 C1204 0.930 . S
H1192 C1208 0.959 . S
H1193 C1208 0.959 . S
H1194 C1208 0.961 . S
H1195 C1209 0.960 . S
H1196 C1209 0.961 . S
H1197 C1209 0.959 . S
H1198 C1212 0.929 . S
H1199 C1213 0.931 . S
H1200 C1215 0.930 . S
C1201 H1189 0.930 . S
C1201 C1202 1.399 . S
C1201 C1206 1.399 . S
C1202 C1201 1.399 . S
C1202 C1203 1.376 . S
C1203 H1190 0.930 . S
C1203 C1202 1.376 . S
C1203 C1204 1.388 . S
C1204 H1191 0.930 . S
C1204 C1203 1.388 . S
C1204 C1205 1.390 . S
C1205 C1204 1.390 . S
C1205 C1206 1.394 . S
C1205 C1211 1.465 . S
C1206 C1201 1.399 . S
C1206 C1205 1.394 . S
C1206 C1207 1.516 . S
C1207 C1206 1.516 . S
C1207 C1208 1.502 . S
C1207 C1209 1.561 . S
C1207 C1210 1.526 . S
C1208 H1192 0.959 . S
C1208 H1193 0.959 . S
C1208 H1194 0.961 . S
C1208 C1207 1.502 . S
C1209 H1195 0.960 . S
C1209 H1196 0.961 . S
C1209 H1197 0.959 . S
C1209 C1207 1.561 . S
C1210 C1207 1.526 . S
C1210 C1211 1.396 . S
C1210 C1215 1.390 . S
C1211 C1205 1.465 . S
C1211 C1210 1.396 . S
C1211 C1212 1.399 . S
C1212 H1198 0.929 . S
C1212 C1211 1.399 . S
C1212 C1213 1.385 . S
C1213 H1199 0.931 . S
C1213 C1212 1.385 . S
C1213 C1214 1.389 . S
C1214 C1213 1.389 . S
C1214 C1215 1.387 . S
C1215 H1200 0.930 . S
C1215 C1210 1.390 . S
C1215 C1214 1.387 . S
H1216 C1228 0.930 . S
H1217 C1230 0.930 . S
H1218 C1231 0.930 . S
H1219 C1235 0.959 . S
H1220 C1235 0.959 . S
H1221 C1235 0.961 . S
H1222 C1236 0.960 . S
H1223 C1236 0.961 . S
H1224 C1236 0.959 . S
H1225 C1239 0.929 . S
H1226 C1240 0.931 . S
H1227 C1242 0.930 1_545 S
C1228 H1216 0.930 . S
C1228 C1229 1.399 1_545 S
C1228 C1233 1.399 . S
C1229 C1228 1.399 1_565 S
C1229 C1230 1.376 . S
C1230 H1217 0.930 . S
C1230 C1229 1.376 . S
C1230 C1231 1.388 . S
C1231 H1218 0.930 . S
C1231 C1230 1.388 . S
C1231 C1232 1.390 . S
C1232 C1231 1.390 . S
C1232 C1233 1.394 1_565 S
C1232 C1238 1.465 . S
C1233 C1228 1.399 . S
C1233 C1232 1.394 1_545 S
C1233 C1234 1.516 . S
C1234 C1233 1.516 . S
C1234 C1235 1.502 . S
C1234 C1236 1.561 . S
C1234 C1237 1.526 1_545 S
C1235 H1219 0.959 . S
C1235 H1220 0.959 . S
C1235 H1221 0.961 . S
C1235 C1234 1.502 . S
C1236 H1222 0.960 . S
C1236 H1223 0.961 . S
C1236 H1224 0.959 . S
C1236 C1234 1.561 . S
C1237 C1234 1.526 1_565 S
C1237 C1238 1.396 . S
C1237 C1242 1.390 . S
C1238 C1232 1.465 . S
C1238 C1237 1.396 . S
C1238 C1239 1.399 . S
C1239 H1225 0.929 . S
C1239 C1238 1.399 . S
C1239 C1240 1.385 . S
C1240 H1226 0.931 . S
C1240 C1239 1.385 . S
C1240 C1241 1.389 . S
C1241 C1240 1.389 . S
C1241 C1242 1.387 . S
C1242 H1227 0.930 1_565 S
C1242 C1237 1.390 . S
C1242 C1241 1.387 . S
H1243 C1255 0.930 . S
H1244 C1257 0.930 . S
H1245 C1258 0.930 . S
H1246 C1262 0.959 . S
H1247 C1262 0.959 . S
H1248 C1262 0.961 . S
H1249 C1263 0.960 . S
H1250 C1263 0.961 . S
H1251 C1263 0.959 . S
H1252 C1266 0.929 1_545 S
H1253 C1267 0.931 1_545 S
H1254 C1269 0.930 . S
C1255 H1243 0.930 . S
C1255 C1256 1.399 . S
C1255 C1260 1.399 . S
C1256 C1255 1.399 . S
C1256 C1257 1.376 . S
C1257 H1244 0.930 . S
C1257 C1256 1.376 . S
C1257 C1258 1.388 . S
C1258 H1245 0.930 . S
C1258 C1257 1.388 . S
C1258 C1259 1.390 . S
C1259 C1258 1.390 . S
C1259 C1260 1.394 . S
C1259 C1265 1.465 . S
C1260 C1255 1.399 . S
C1260 C1259 1.394 . S
C1260 C1261 1.516 . S
C1261 C1260 1.516 . S
C1261 C1262 1.502 . S
C1261 C1263 1.561 . S
C1261 C1264 1.526 . S
C1262 H1246 0.959 . S
C1262 H1247 0.959 . S
C1262 H1248 0.961 . S
C1262 C1261 1.502 . S
C1263 H1249 0.960 . S
C1263 H1250 0.961 . S
C1263 H1251 0.959 . S
C1263 C1261 1.561 . S
C1264 C1261 1.526 . S
C1264 C1265 1.396 . S
C1264 C1269 1.390 . S
C1265 C1259 1.465 . S
C1265 C1264 1.396 . S
C1265 C1266 1.399 . S
C1266 H1252 0.929 1_565 S
C1266 C1265 1.399 . S
C1266 C1267 1.385 . S
C1267 H1253 0.931 1_565 S
C1267 C1266 1.385 . S
C1267 C1268 1.389 . S
C1268 C1267 1.389 . S
C1268 C1269 1.387 . S
C1269 H1254 0.930 . S
C1269 C1264 1.390 . S
C1269 C1268 1.387 . S
H1270 C1282 0.930 . S
H1271 C1284 0.930 . S
H1272 C1285 0.930 . S
H1273 C1289 0.959 . S
H1274 C1289 0.959 1_565 S
H1275 C1289 0.961 . S
H1276 C1290 0.960 . S
H1277 C1290 0.961 . S
H1278 C1290 0.959 . S
H1279 C1293 0.929 . S
H1280 C1294 0.931 . S
H1281 C1296 0.930 . S
C1282 H1270 0.930 . S
C1282 C1283 1.399 . S
C1282 C1287 1.399 . S
C1283 C1282 1.399 . S
C1283 C1284 1.376 . S
C1284 H1271 0.930 . S
C1284 C1283 1.376 . S
C1284 C1285 1.388 . S
C1285 H1272 0.930 . S
C1285 C1284 1.388 . S
C1285 C1286 1.390 . S
C1286 C1285 1.390 . S
C1286 C1287 1.394 . S
C1286 C1292 1.465 . S
C1287 C1282 1.399 . S
C1287 C1286 1.394 . S
C1287 C1288 1.516 1_545 S
C1288 C1287 1.516 1_565 S
C1288 C1289 1.502 1_565 S
C1288 C1290 1.561 . S
C1288 C1291 1.526 1_565 S
C1289 H1273 0.959 . S
C1289 H1274 0.959 1_545 S
C1289 H1275 0.961 . S
C1289 C1288 1.502 1_545 S
C1290 H1276 0.960 . S
C1290 H1277 0.961 . S
C1290 H1278 0.959 . S
C1290 C1288 1.561 . S
C1291 C1288 1.526 1_545 S
C1291 C1292 1.396 . S
C1291 C1296 1.390 1_545 S
C1292 C1286 1.465 . S
C1292 C1291 1.396 . S
C1292 C1293 1.399 . S
C1293 H1279 0.929 . S
C1293 C1292 1.399 . S
C1293 C1294 1.385 . S
C1294 H1280 0.931 . S
C1294 C1293 1.385 . S
C1294 C1295 1.389 . S
C1295 C1294 1.389 . S
C1295 C1296 1.387 1_545 S
C1296 H1281 0.930 . S
C1296 C1291 1.390 1_565 S
C1296 C1295 1.387 1_565 S
H1297 C1309 0.930 . S
H1298 C1311 0.930 . S
H1299 C1312 0.930 . S
H1300 C1316 0.959 . S
H1301 C1316 0.959 . S
H1302 C1316 0.961 . S
H1303 C1317 0.960 . S
H1304 C1317 0.961 . S
H1305 C1317 0.959 . S
H1306 C1320 0.929 . S
H1307 C1321 0.931 . S
H1308 C1323 0.930 . S
C1309 H1297 0.930 . S
C1309 C1310 1.399 . S
C1309 C1314 1.399 . S
C1310 C1309 1.399 . S
C1310 C1311 1.376 . S
C1311 H1298 0.930 . S
C1311 C1310 1.376 . S
C1311 C1312 1.388 . S
C1312 H1299 0.930 . S
C1312 C1311 1.388 . S
C1312 C1313 1.390 . S
C1313 C1312 1.390 . S
C1313 C1314 1.394 . S
C1313 C1319 1.465 . S
C1314 C1309 1.399 . S
C1314 C1313 1.394 . S
C1314 C1315 1.516 . S
C1315 C1314 1.516 . S
C1315 C1316 1.502 . S
C1315 C1317 1.561 . S
C1315 C1318 1.526 . S
C1316 H1300 0.959 . S
C1316 H1301 0.959 . S
C1316 H1302 0.961 . S
C1316 C1315 1.502 . S
C1317 H1303 0.960 . S
C1317 H1304 0.961 . S
C1317 H1305 0.959 . S
C1317 C1315 1.561 . S
C1318 C1315 1.526 . S
C1318 C1319 1.396 . S
C1318 C1323 1.390 . S
C1319 C1313 1.465 . S
C1319 C1318 1.396 . S
C1319 C1320 1.399 . S
C1320 H1306 0.929 . S
C1320 C1319 1.399 . S
C1320 C1321 1.385 . S
C1321 H1307 0.931 . S
C1321 C1320 1.385 . S
C1321 C1322 1.389 . S
C1322 C1321 1.389 . S
C1322 C1323 1.387 . S
C1323 H1308 0.930 . S
C1323 C1318 1.390 . S
C1323 C1322 1.387 . S
H1324 C1336 0.930 . S
H1325 C1338 0.930 . S
H1326 C1339 0.930 . S
H1327 C1343 0.959 1_545 S
H1328 C1343 0.959 . S
H1329 C1343 0.961 . S
H1330 C1344 0.960 . S
H1331 C1344 0.961 . S
H1332 C1344 0.959 . S
H1333 C1347 0.929 . S
H1334 C1348 0.931 . S
H1335 C1350 0.930 . S
C1336 H1324 0.930 . S
C1336 C1337 1.399 . S
C1336 C1341 1.399 . S
C1337 C1336 1.399 . S
C1337 C1338 1.376 . S
C1338 H1325 0.930 . S
C1338 C1337 1.376 . S
C1338 C1339 1.388 . S
C1339 H1326 0.930 . S
C1339 C1338 1.388 . S
C1339 C1340 1.390 . S
C1340 C1339 1.390 . S
C1340 C1341 1.394 . S
C1340 C1346 1.465 . S
C1341 C1336 1.399 . S
C1341 C1340 1.394 . S
C1341 C1342 1.516 1_545 S
C1342 C1341 1.516 1_565 S
C1342 C1343 1.502 . S
C1342 C1344 1.561 . S
C1342 C1345 1.526 1_565 S
C1343 H1327 0.959 1_565 S
C1343 H1328 0.959 . S
C1343 H1329 0.961 . S
C1343 C1342 1.502 . S
C1344 H1330 0.960 . S
C1344 H1331 0.961 . S
C1344 H1332 0.959 . S
C1344 C1342 1.561 . S
C1345 C1342 1.526 1_545 S
C1345 C1346 1.396 . S
C1345 C1350 1.390 1_545 S
C1346 C1340 1.465 . S
C1346 C1345 1.396 . S
C1346 C1347 1.399 . S
C1347 H1333 0.929 . S
C1347 C1346 1.399 . S
C1347 C1348 1.385 . S
C1348 H1334 0.931 . S
C1348 C1347 1.385 . S
C1348 C1349 1.389 . S
C1349 C1348 1.389 . S
C1349 C1350 1.387 1_545 S
C1350 H1335 0.930 . S
C1350 C1345 1.390 1_565 S
C1350 C1349 1.387 1_565 S
H1351 C1363 0.930 . S
H1352 C1365 0.930 . S
H1353 C1366 0.930 . S
H1354 C1370 0.959 . S
H1355 C1370 0.959 . S
H1356 C1370 0.961 . S
H1357 C1371 0.960 . S
H1358 C1371 0.961 . S
H1359 C1371 0.959 . S
H1360 C1374 0.929 1_565 S
H1361 C1375 0.924 1_565 S
H1362 C1377 0.930 . S
C1363 H1351 0.930 . S
C1363 C1364 1.399 . S
C1363 C1368 1.399 . S
C1364 C1363 1.399 . S
C1364 C1365 1.376 . S
C1365 H1352 0.930 . S
C1365 C1364 1.376 . S
C1365 C1366 1.388 . S
C1366 H1353 0.930 . S
C1366 C1365 1.388 . S
C1366 C1367 1.390 . S
C1367 C1366 1.390 . S
C1367 C1368 1.394 . S
C1367 C1373 1.465 . S
C1368 C1363 1.399 . S
C1368 C1367 1.394 . S
C1368 C1369 1.516 . S
C1369 C1368 1.516 . S
C1369 C1370 1.502 . S
C1369 C1371 1.561 . S
C1369 C1372 1.526 . S
C1370 H1354 0.959 . S
C1370 H1355 0.959 . S
C1370 H1356 0.961 . S
C1370 C1369 1.502 . S
C1371 H1357 0.960 . S
C1371 H1358 0.961 . S
C1371 H1359 0.959 . S
C1371 C1369 1.561 . S
C1372 C1369 1.526 . S
C1372 C1373 1.396 . S
C1372 C1377 1.390 . S
C1373 C1367 1.465 . S
C1373 C1372 1.396 . S
C1373 C1374 1.399 . S
C1374 H1360 0.929 1_545 S
C1374 C1373 1.399 . S
C1374 C1375 1.386 . S
C1375 H1361 0.924 1_545 S
C1375 C1374 1.386 . S
C1375 C1376 1.396 . S
C1376 C1375 1.396 . S
C1376 C1377 1.387 . S
C1377 H1362 0.930 . S
C1377 C1372 1.390 . S
C1377 C1376 1.387 . S
H1378 C1390 0.930 . S
H1379 C1392 0.930 . S
H1380 C1393 0.930 . S
H1381 C1397 0.959 . S
H1382 C1397 0.959 . S
H1383 C1397 0.961 . S
H1384 C1398 0.960 . S
H1385 C1398 0.961 . S
H1386 C1398 0.959 . S
H1387 C1401 0.929 . S
H1388 C1402 0.931 . S
H1389 C1404 0.930 1_545 S
C1390 H1378 0.930 . S
C1390 C1391 1.399 1_545 S
C1390 C1395 1.399 . S
C1391 C1390 1.399 1_565 S
C1391 C1392 1.376 . S
C1392 H1379 0.930 . S
C1392 C1391 1.376 . S
C1392 C1393 1.388 . S
C1393 H1380 0.930 . S
C1393 C1392 1.388 . S
C1393 C1394 1.390 . S
C1394 C1393 1.390 . S
C1394 C1395 1.394 1_565 S
C1394 C1400 1.465 . S
C1395 C1390 1.399 . S
C1395 C1394 1.394 1_545 S
C1395 C1396 1.516 . S
C1396 C1395 1.516 . S
C1396 C1397 1.502 . S
C1396 C1398 1.561 . S
C1396 C1399 1.526 1_545 S
C1397 H1381 0.959 . S
C1397 H1382 0.959 . S
C1397 H1383 0.961 . S
C1397 C1396 1.502 . S
C1398 H1384 0.960 . S
C1398 H1385 0.961 . S
C1398 H1386 0.959 . S
C1398 C1396 1.561 . S
C1399 C1396 1.526 1_565 S
C1399 C1400 1.396 . S
C1399 C1404 1.390 . S
C1400 C1394 1.465 . S
C1400 C1399 1.396 . S
C1400 C1401 1.399 . S
C1401 H1387 0.929 . S
C1401 C1400 1.399 . S
C1401 C1402 1.385 . S
C1402 H1388 0.931 . S
C1402 C1401 1.385 . S
C1402 C1403 1.389 . S
C1403 C1402 1.389 . S
C1403 C1404 1.387 . S
C1404 H1389 0.930 1_565 S
C1404 C1399 1.390 . S
C1404 C1403 1.387 . S
H1405 C1417 0.930 1_545 S
H1406 C1419 0.930 . S
H1407 C1420 0.930 . S
H1408 C1424 0.959 . S
H1409 C1424 0.959 1_545 S
H1410 C1424 0.961 1_545 S
H1411 C1425 0.960 . S
H1412 C1425 0.961 . S
H1413 C1425 0.959 . S
H1414 C1428 0.929 . S
H1415 C1429 0.931 . S
H1416 C1431 0.930 . S
C1417 H1405 0.930 1_565 S
C1417 C1418 1.399 . S
C1417 C1422 1.399 . S
C1418 C1417 1.399 . S
C1418 C1419 1.376 . S
C1419 H1406 0.930 . S
C1419 C1418 1.376 . S
C1419 C1420 1.388 . S
C1420 H1407 0.930 . S
C1420 C1419 1.388 . S
C1420 C1421 1.390 . S
C1421 C1420 1.390 . S
C1421 C1422 1.394 . S
C1421 C1427 1.465 . S
C1422 C1417 1.399 . S
C1422 C1421 1.394 . S
C1422 C1423 1.516 . S
C1423 C1422 1.516 . S
C1423 C1424 1.502 . S
C1423 C1425 1.561 1_565 S
C1423 C1426 1.526 . S
C1424 H1408 0.959 . S
C1424 H1409 0.959 1_565 S
C1424 H1410 0.961 1_565 S
C1424 C1423 1.502 . S
C1425 H1411 0.960 . S
C1425 H1412 0.961 . S
C1425 H1413 0.959 . S
C1425 C1423 1.561 1_545 S
C1426 C1423 1.526 . S
C1426 C1427 1.396 . S
C1426 C1431 1.390 . S
C1427 C1421 1.465 . S
C1427 C1426 1.396 . S
C1427 C1428 1.399 . S
C1428 H1414 0.929 . S
C1428 C1427 1.399 . S
C1428 C1429 1.385 . S
C1429 H1415 0.931 . S
C1429 C1428 1.385 . S
C1429 C1430 1.389 . S
C1430 C1429 1.389 . S
C1430 C1431 1.387 . S
C1431 H1416 0.930 . S
C1431 C1426 1.390 . S
C1431 C1430 1.387 . S
H1432 C1444 0.930 . S
H1433 C1446 0.930 . S
H1434 C1447 0.930 . S
H1435 C1451 0.959 . S
H1436 C1451 0.959 . S
H1437 C1451 0.961 . S
H1438 C1452 0.960 . S
H1439 C1452 0.961 . S
H1440 C1452 0.959 . S
H1441 C1455 0.929 . S
H1442 C1456 0.931 . S
H1443 C1458 0.930 . S
C1444 H1432 0.930 . S
C1444 C1445 1.399 . S
C1444 C1449 1.399 . S
C1445 C1444 1.399 . S
C1445 C1446 1.376 . S
C1446 H1433 0.930 . S
C1446 C1445 1.376 . S
C1446 C1447 1.388 . S
C1447 H1434 0.930 . S
C1447 C1446 1.388 . S
C1447 C1448 1.390 . S
C1448 C1447 1.390 . S
C1448 C1449 1.394 . S
C1448 C1454 1.465 1_455 S
C1449 C1444 1.399 . S
C1449 C1448 1.394 . S
C1449 C1450 1.516 . S
C1450 C1449 1.516 . S
C1450 C1451 1.502 . S
C1450 C1452 1.561 1_455 S
C1450 C1453 1.526 1_455 S
C1451 H1435 0.959 . S
C1451 H1436 0.959 . S
C1451 H1437 0.961 . S
C1451 C1450 1.502 . S
C1452 H1438 0.960 . S
C1452 H1439 0.961 . S
C1452 H1440 0.959 . S
C1452 C1450 1.561 1_655 S
C1453 C1450 1.526 1_655 S
C1453 C1454 1.396 . S
C1453 C1458 1.390 . S
C1454 C1448 1.465 1_655 S
C1454 C1453 1.396 . S
C1454 C1455 1.399 . S
C1455 H1441 0.929 . S
C1455 C1454 1.399 . S
C1455 C1456 1.385 . S
C1456 H1442 0.931 . S
C1456 C1455 1.385 . S
C1456 C1457 1.389 . S
C1457 C1456 1.389 . S
C1457 C1458 1.387 . S
C1458 H1443 0.930 . S
C1458 C1453 1.390 . S
C1458 C1457 1.387 . S
H1459 C1471 0.930 . S
H1460 C1473 0.930 . S
H1461 C1474 0.930 . S
H1462 C1478 0.959 . S
H1463 C1478 0.959 . S
H1464 C1478 0.961 . S
H1465 C1479 0.960 1_455 S
H1466 C1479 0.961 . S
H1467 C1479 0.959 . S
H1468 C1482 0.929 . S
H1469 C1483 0.931 . S
H1470 C1485 0.930 . S
C1471 H1459 0.930 . S
C1471 C1472 1.399 . S
C1471 C1476 1.399 . S
C1472 C1471 1.399 . S
C1472 C1473 1.376 . S
C1473 H1460 0.930 . S
C1473 C1472 1.376 . S
C1473 C1474 1.388 . S
C1474 H1461 0.930 . S
C1474 C1473 1.388 . S
C1474 C1475 1.390 . S
C1475 C1474 1.390 . S
C1475 C1476 1.394 . S
C1475 C1481 1.465 1_455 S
C1476 C1471 1.399 . S
C1476 C1475 1.394 . S
C1476 C1477 1.516 . S
C1477 C1476 1.516 . S
C1477 C1478 1.502 . S
C1477 C1479 1.561 1_455 S
C1477 C1480 1.526 1_455 S
C1478 H1462 0.959 . S
C1478 H1463 0.959 . S
C1478 H1464 0.961 . S
C1478 C1477 1.502 . S
C1479 H1465 0.960 1_655 S
C1479 H1466 0.961 . S
C1479 H1467 0.959 . S
C1479 C1477 1.561 1_655 S
C1480 C1477 1.526 1_655 S
C1480 C1481 1.396 . S
C1480 C1485 1.390 . S
C1481 C1475 1.465 1_655 S
C1481 C1480 1.396 . S
C1481 C1482 1.399 . S
C1482 H1468 0.929 . S
C1482 C1481 1.399 . S
C1482 C1483 1.385 . S
C1483 H1469 0.931 . S
C1483 C1482 1.385 . S
C1483 C1484 1.389 . S
C1484 C1483 1.389 . S
C1484 C1485 1.387 . S
C1485 H1470 0.930 . S
C1485 C1480 1.390 . S
C1485 C1484 1.387 . S
H1486 C1498 0.930 . S
H1487 C1500 0.930 . S
H1488 C1501 0.930 . S
H1489 C1505 0.959 . S
H1490 C1505 0.959 . S
H1491 C1505 0.961 . S
H1492 C1506 0.960 . S
H1493 C1506 0.961 . S
H1494 C1506 0.959 . S
H1495 C1509 0.929 . S
H1496 C1510 0.931 . S
H1497 C1512 0.930 . S
C1498 H1486 0.930 . S
C1498 C1499 1.399 . S
C1498 C1503 1.399 . S
C1499 C1498 1.399 . S
C1499 C1500 1.376 . S
C1500 H1487 0.930 . S
C1500 C1499 1.376 . S
C1500 C1501 1.388 . S
C1501 H1488 0.930 . S
C1501 C1500 1.388 . S
C1501 C1502 1.390 . S
C1502 C1501 1.390 . S
C1502 C1503 1.394 . S
C1502 C1508 1.465 . S
C1503 C1498 1.399 . S
C1503 C1502 1.394 . S
C1503 C1504 1.516 . S
C1504 C1503 1.516 . S
C1504 C1505 1.502 . S
C1504 C1506 1.561 . S
C1504 C1507 1.526 . S
C1505 H1489 0.959 . S
C1505 H1490 0.959 . S
C1505 H1491 0.961 . S
C1505 C1504 1.502 . S
C1506 H1492 0.960 . S
C1506 H1493 0.961 . S
C1506 H1494 0.959 . S
C1506 C1504 1.561 . S
C1507 C1504 1.526 . S
C1507 C1508 1.396 . S
C1507 C1512 1.390 . S
C1508 C1502 1.465 . S
C1508 C1507 1.396 . S
C1508 C1509 1.399 . S
C1509 H1495 0.929 . S
C1509 C1508 1.399 . S
C1509 C1510 1.385 . S
C1510 H1496 0.931 . S
C1510 C1509 1.385 . S
C1510 C1511 1.389 . S
C1511 C1510 1.389 . S
C1511 C1512 1.387 . S
C1512 H1497 0.930 . S
C1512 C1507 1.390 . S
C1512 C1511 1.387 . S
H1513 C1525 0.930 . S
H1514 C1527 0.930 . S
H1515 C1528 0.930 . S
H1516 C1532 0.959 . S
H1517 C1532 0.959 . S
H1518 C1532 0.961 . S
H1519 C1533 0.960 . S
H1520 C1533 0.961 . S
H1521 C1533 0.959 1_554 S
H1522 C1536 0.929 . S
H1523 C1537 0.931 . S
H1524 C1539 0.930 . S
C1525 H1513 0.930 . S
C1525 C1526 1.399 . S
C1525 C1530 1.399 . S
C1526 C1525 1.399 . S
C1526 C1527 1.376 . S
C1527 H1514 0.930 . S
C1527 C1526 1.376 . S
C1527 C1528 1.388 . S
C1528 H1515 0.930 . S
C1528 C1527 1.388 . S
C1528 C1529 1.390 . S
C1529 C1528 1.390 . S
C1529 C1530 1.394 . S
C1529 C1535 1.465 . S
C1530 C1525 1.399 . S
C1530 C1529 1.394 . S
C1530 C1531 1.516 . S
C1531 C1530 1.516 . S
C1531 C1532 1.502 . S
C1531 C1533 1.561 1_554 S
C1531 C1534 1.526 . S
C1532 H1516 0.959 . S
C1532 H1517 0.959 . S
C1532 H1518 0.961 . S
C1532 C1531 1.502 . S
C1533 H1519 0.960 . S
C1533 H1520 0.961 . S
C1533 H1521 0.959 1_556 S
C1533 C1531 1.561 1_556 S
C1534 C1531 1.526 . S
C1534 C1535 1.396 . S
C1534 C1539 1.390 . S
C1535 C1529 1.465 . S
C1535 C1534 1.396 . S
C1535 C1536 1.399 . S
C1536 H1522 0.929 . S
C1536 C1535 1.399 . S
C1536 C1537 1.385 . S
C1537 H1523 0.931 . S
C1537 C1536 1.385 . S
C1537 C1538 1.389 . S
C1538 C1537 1.389 . S
C1538 C1539 1.387 . S
C1539 H1524 0.930 . S
C1539 C1534 1.390 . S
C1539 C1538 1.387 . S
H1540 C1552 0.930 . S
H1541 C1554 0.930 . S
H1542 C1555 0.930 . S
H1543 C1559 0.959 . S
H1544 C1559 0.959 . S
H1545 C1559 0.961 . S
H1546 C1560 0.960 . S
H1547 C1560 0.961 1_655 S
H1548 C1560 0.959 . S
H1549 C1563 0.929 1_455 S
H1550 C1564 0.931 . S
H1551 C1566 0.930 . S
C1552 H1540 0.930 . S
C1552 C1553 1.399 . S
C1552 C1557 1.399 . S
C1553 C1552 1.399 . S
C1553 C1554 1.376 . S
C1554 H1541 0.930 . S
C1554 C1553 1.376 . S
C1554 C1555 1.388 . S
C1555 H1542 0.930 . S
C1555 C1554 1.388 . S
C1555 C1556 1.390 . S
C1556 C1555 1.390 . S
C1556 C1557 1.394 . S
C1556 C1562 1.465 1_455 S
C1557 C1552 1.399 . S
C1557 C1556 1.394 . S
C1557 C1558 1.516 1_455 S
C1558 C1557 1.516 1_655 S
C1558 C1559 1.502 . S
C1558 C1560 1.561 1_655 S
C1558 C1561 1.526 . S
C1559 H1543 0.959 . S
C1559 H1544 0.959 . S
C1559 H1545 0.961 . S
C1559 C1558 1.502 . S
C1560 H1546 0.960 . S
C1560 H1547 0.961 1_455 S
C1560 H1548 0.959 . S
C1560 C1558 1.561 1_455 S
C1561 C1558 1.526 . S
C1561 C1562 1.396 . S
C1561 C1566 1.390 . S
C1562 C1556 1.465 1_655 S
C1562 C1561 1.396 . S
C1562 C1563 1.399 . S
C1563 H1549 0.929 1_655 S
C1563 C1562 1.399 . S
C1563 C1564 1.385 . S
C1564 H1550 0.931 . S
C1564 C1563 1.385 . S
C1564 C1565 1.389 . S
C1565 C1564 1.389 . S
C1565 C1566 1.387 . S
C1566 H1551 0.930 . S
C1566 C1561 1.390 . S
C1566 C1565 1.387 . S
H1567 C1579 0.930 . S
H1568 C1581 0.930 . S
H1569 C1582 0.930 . S
H1570 C1586 0.959 . S
H1571 C1586 0.959 . S
H1572 C1586 0.961 . S
H1573 C1587 0.960 . S
H1574 C1587 0.961 . S
H1575 C1587 0.959 . S
H1576 C1590 0.929 . S
H1577 C1591 0.931 . S
H1578 C1593 0.930 . S
C1579 H1567 0.930 . S
C1579 C1580 1.399 . S
C1579 C1584 1.399 . S
C1580 C1579 1.399 . S
C1580 C1581 1.376 . S
C1581 H1568 0.930 . S
C1581 C1580 1.376 . S
C1581 C1582 1.388 . S
C1582 H1569 0.930 . S
C1582 C1581 1.388 . S
C1582 C1583 1.390 . S
C1583 C1582 1.390 . S
C1583 C1584 1.394 . S
C1583 C1589 1.465 1_655 S
C1584 C1579 1.399 . S
C1584 C1583 1.394 . S
C1584 C1585 1.516 . S
C1585 C1584 1.516 . S
C1585 C1586 1.502 . S
C1585 C1587 1.561 1_655 S
C1585 C1588 1.526 1_655 S
C1586 H1570 0.959 . S
C1586 H1571 0.959 . S
C1586 H1572 0.961 . S
C1586 C1585 1.502 . S
C1587 H1573 0.960 . S
C1587 H1574 0.961 . S
C1587 H1575 0.959 . S
C1587 C1585 1.561 1_455 S
C1588 C1585 1.526 1_455 S
C1588 C1589 1.396 . S
C1588 C1593 1.390 . S
C1589 C1583 1.465 1_455 S
C1589 C1588 1.396 . S
C1589 C1590 1.399 . S
C1590 H1576 0.929 . S
C1590 C1589 1.399 . S
C1590 C1591 1.385 . S
C1591 H1577 0.931 . S
C1591 C1590 1.385 . S
C1591 C1592 1.389 . S
C1592 C1591 1.389 . S
C1592 C1593 1.387 . S
C1593 H1578 0.930 . S
C1593 C1588 1.390 . S
C1593 C1592 1.387 . S
H1594 C1606 0.930 . S
H1595 C1608 0.930 . S
H1596 C1609 0.930 . S
H1597 C1613 0.959 . S
H1598 C1613 0.959 . S
H1599 C1613 0.961 . S
H1600 C1614 0.960 . S
H1601 C1614 0.961 . S
H1602 C1614 0.959 . S
H1603 C1617 0.929 . S
H1604 C1618 0.931 . S
H1605 C1620 0.930 . S
C1606 H1594 0.930 . S
C1606 C1607 1.399 . S
C1606 C1611 1.399 . S
C1607 C1606 1.399 . S
C1607 C1608 1.376 . S
C1608 H1595 0.930 . S
C1608 C1607 1.376 . S
C1608 C1609 1.388 . S
C1609 H1596 0.930 . S
C1609 C1608 1.388 . S
C1609 C1610 1.390 . S
C1610 C1609 1.390 . S
C1610 C1611 1.394 . S
C1610 C1616 1.465 . S
C1611 C1606 1.399 . S
C1611 C1610 1.394 . S
C1611 C1612 1.516 . S
C1612 C1611 1.516 . S
C1612 C1613 1.502 . S
C1612 C1614 1.561 . S
C1612 C1615 1.526 . S
C1613 H1597 0.959 . S
C1613 H1598 0.959 . S
C1613 H1599 0.961 . S
C1613 C1612 1.502 . S
C1614 H1600 0.960 . S
C1614 H1601 0.961 . S
C1614 H1602 0.959 . S
C1614 C1612 1.561 . S
C1615 C1612 1.526 . S
C1615 C1616 1.396 . S
C1615 C1620 1.390 . S
C1616 C1610 1.465 . S
C1616 C1615 1.396 . S
C1616 C1617 1.399 . S
C1617 H1603 0.929 . S
C1617 C1616 1.399 . S
C1617 C1618 1.385 . S
C1618 H1604 0.931 . S
C1618 C1617 1.385 . S
C1618 C1619 1.389 . S
C1619 C1618 1.389 . S
C1619 C1620 1.387 . S
C1620 H1605 0.930 . S
C1620 C1615 1.390 . S
C1620 C1619 1.387 . S
H1621 C1633 0.930 . S
H1622 C1635 0.930 . S
H1623 C1636 0.930 . S
H1624 C1640 0.959 . S
H1625 C1640 0.959 . S
H1626 C1640 0.961 . S
H1627 C1641 0.960 . S
H1628 C1641 0.961 . S
H1629 C1641 0.959 . S
H1630 C1644 0.929 . S
H1631 C1645 0.931 . S
H1632 C1647 0.930 . S
C1633 H1621 0.930 . S
C1633 C1634 1.399 . S
C1633 C1638 1.399 . S
C1634 C1633 1.399 . S
C1634 C1635 1.376 . S
C1635 H1622 0.930 . S
C1635 C1634 1.376 . S
C1635 C1636 1.388 . S
C1636 H1623 0.930 . S
C1636 C1635 1.388 . S
C1636 C1637 1.390 . S
C1637 C1636 1.390 . S
C1637 C1638 1.394 . S
C1637 C1643 1.465 . S
C1638 C1633 1.399 . S
C1638 C1637 1.394 . S
C1638 C1639 1.516 . S
C1639 C1638 1.516 . S
C1639 C1640 1.502 . S
C1639 C1641 1.561 . S
C1639 C1642 1.526 . S
C1640 H1624 0.959 . S
C1640 H1625 0.959 . S
C1640 H1626 0.961 . S
C1640 C1639 1.502 . S
C1641 H1627 0.960 . S
C1641 H1628 0.961 . S
C1641 H1629 0.959 . S
C1641 C1639 1.561 . S
C1642 C1639 1.526 . S
C1642 C1643 1.396 . S
C1642 C1647 1.390 . S
C1643 C1637 1.465 . S
C1643 C1642 1.396 . S
C1643 C1644 1.399 . S
C1644 H1630 0.929 . S
C1644 C1643 1.399 . S
C1644 C1645 1.385 . S
C1645 H1631 0.931 . S
C1645 C1644 1.385 . S
C1645 C1646 1.389 . S
C1646 C1645 1.389 . S
C1646 C1647 1.387 . S
C1647 H1632 0.930 . S
C1647 C1642 1.390 . S
C1647 C1646 1.387 . S
C365 C5 1.635 . S
C377 C136 1.581 . S
C392 C334 1.577 . S
C404 C27 1.635 . S
C419 C53 1.640 . S
C431 C96 1.590 . S
C446 C294 1.576 . S
C458 C71 1.635 . S
C473 C48 1.610 . S
C485 C94 1.637 . S
C500 C250 1.552 . S
C512 C116 1.637 . S
C527 C139 1.634 . S
C539 C8 1.559 . S
C554 C161 1.634 . S
C566 C206 1.589 . S
C581 C181 1.641 . S
C593 C312 1.607 . S
C608 C203 1.641 . S
C620 C158 1.619 . S
C635 C272 1.620 . S
C647 C229 1.642 . S
C662 C118 1.572 . S
C674 C247 1.635 . S
C689 C224 1.618 . S
C701 C270 1.641 . S
C716 C292 1.639 . S
C728 C74 1.567 . S
C743 C184 1.596 . S
C755 C315 1.642 . S
C770 C30 1.618 . S
C782 C337 1.639 . S
C797 C6 0.432 . S
C809 C269 0.684 . S
C824 C28 0.689 . S
C836 C115 0.437 . S
C851 C51 0.433 . S
C863 C317 0.685 . S
C878 C163 0.627 1_554 S
C890 C72 0.457 1_556 S
C905 C93 0.631 . S
C917 C182 0.478 . S
C932 C227 0.689 . S
C944 C141 0.440 . S
C959 C204 0.674 1_556 S
C971 C291 0.423 1_554 S
C986 C339 0.650 . S
C998 C248 0.459 . S
C1013 C7 1.456 . S
C1025 C26 1.446 . S
C1040 C52 1.509 . S
C1052 C29 1.356 . S
C1067 C50 1.454 . S
C1079 C70 1.447 . S
C1094 C73 1.393 . S
C1106 C4 1.489 . S
C1121 C114 1.497 . S
C1133 C97 1.357 . S
C1148 C140 1.489 . S
C1160 C119 1.425 . S
C1175 C162 1.509 . S
C1187 C137 1.366 . S
C1202 C92 1.479 . S
C1214 C159 1.372 . S
C1229 C183 1.452 1_565 S
C1241 C202 1.448 . S
C1256 C205 1.393 . S
C1268 C228 1.484 . S
C1283 C246 1.499 . S
C1295 C226 1.370 1_545 S
C1310 C249 1.414 . S
C1322 C180 1.471 . S
C1337 C290 1.444 . S
C1349 C273 1.458 1_545 S
C1364 C295 1.357 . S
C1376 C316 1.507 . S
C1391 C313 1.384 1_565 S
C1403 C338 1.470 . S
C1418 C268 1.474 . S
C1430 C335 1.445 . S
C1445 C9 1.428 . S
C1457 C225 1.408 . S
C1472 C31 1.325 . S
C1484 C251 1.350 . S
C1499 C49 1.327 . S
C1511 C185 1.357 . S
C1526 C207 1.425 . S
C1538 C75 1.395 . S
C1553 C314 1.378 . S
C1565 C95 1.427 . S
C1580 C117 1.394 . S
C1592 C336 1.425 . S
C1607 C138 1.421 . S
C1619 C271 1.405 . S
C1634 C293 1.366 . S
C1646 C160 1.327 . S
