# Generated by pormake.
# Topology wjh, (4)-cn, num edge types: 1
# Building blocks:
#     Node 0, Type 0, BuildingBlock: ESEHIV_clean_sbu_0, # of connection points: 4
#     Node 1, Type 0, BuildingBlock: ESEHIV_clean_sbu_0, # of connection points: 4
#     Node 2, Type 0, BuildingBlock: ESEHIV_clean_sbu_0, # of connection points: 4
#     Node 3, Type 0, BuildingBlock: ESEHIV_clean_sbu_0, # of connection points: 4
#     Node 4, Type 0, BuildingBlock: ESEHIV_clean_sbu_0, # of connection points: 4
#     Node 5, Type 0, BuildingBlock: ESEHIV_clean_sbu_0, # of connection points: 4
#     Node 6, Type 0, BuildingBlock: ESEHIV_clean_sbu_0, # of connection points: 4
#     Node 7, Type 0, BuildingBlock: ESEHIV_clean_sbu_0, # of connection points: 4
#     Node 8, Type 0, BuildingBlock: ESEHIV_clean_sbu_0, # of connection points: 4
#     Node 9, Type 0, BuildingBlock: ESEHIV_clean_sbu_0, # of connection points: 4
#     Node 10, Type 0, BuildingBlock: ESEHIV_clean_sbu_0, # of connection points: 4
#     Node 11, Type 0, BuildingBlock: ESEHIV_clean_sbu_0, # of connection points: 4
#     Edge 12, Type (0, 0), BuildingBlock: KIFKEQ_clean_linker_1, # of connection points: 2
#     Edge 13, Type (0, 0), BuildingBlock: KIFKEQ_clean_linker_1, # of connection points: 2
#     Edge 14, Type (0, 0), BuildingBlock: KIFKEQ_clean_linker_1, # of connection points: 2
#     Edge 15, Type (0, 0), BuildingBlock: KIFKEQ_clean_linker_1, # of connection points: 2
#     Edge 16, Type (0, 0), BuildingBlock: KIFKEQ_clean_linker_1, # of connection points: 2
#     Edge 17, Type (0, 0), BuildingBlock: KIFKEQ_clean_linker_1, # of connection points: 2
#     Edge 18, Type (0, 0), BuildingBlock: KIFKEQ_clean_linker_1, # of connection points: 2
#     Edge 19, Type (0, 0), BuildingBlock: KIFKEQ_clean_linker_1, # of connection points: 2
#     Edge 20, Type (0, 0), BuildingBlock: KIFKEQ_clean_linker_1, # of connection points: 2
#     Edge 21, Type (0, 0), BuildingBlock: KIFKEQ_clean_linker_1, # of connection points: 2
#     Edge 22, Type (0, 0), BuildingBlock: KIFKEQ_clean_linker_1, # of connection points: 2
#     Edge 23, Type (0, 0), BuildingBlock: KIFKEQ_clean_linker_1, # of connection points: 2
#     Edge 24, Type (0, 0), BuildingBlock: KIFKEQ_clean_linker_1, # of connection points: 2
#     Edge 25, Type (0, 0), BuildingBlock: KIFKEQ_clean_linker_1, # of connection points: 2
#     Edge 26, Type (0, 0), BuildingBlock: KIFKEQ_clean_linker_1, # of connection points: 2
#     Edge 27, Type (0, 0), BuildingBlock: KIFKEQ_clean_linker_1, # of connection points: 2
#     Edge 28, Type (0, 0), BuildingBlock: KIFKEQ_clean_linker_1, # of connection points: 2
#     Edge 29, Type (0, 0), BuildingBlock: KIFKEQ_clean_linker_1, # of connection points: 2
#     Edge 30, Type (0, 0), BuildingBlock: KIFKEQ_clean_linker_1, # of connection points: 2
#     Edge 31, Type (0, 0), BuildingBlock: KIFKEQ_clean_linker_1, # of connection points: 2
#     Edge 32, Type (0, 0), BuildingBlock: KIFKEQ_clean_linker_1, # of connection points: 2
#     Edge 33, Type (0, 0), BuildingBlock: KIFKEQ_clean_linker_1, # of connection points: 2
#     Edge 34, Type (0, 0), BuildingBlock: KIFKEQ_clean_linker_1, # of connection points: 2
#     Edge 35, Type (0, 0), BuildingBlock: KIFKEQ_clean_linker_1, # of connection points: 2
# Relax obj value: 0.035
# Max RMSD: 0.089
# Mean RMSD: 0.089
data_MOF--net-wjh--node1-ESEHIV_clean_sbu_0--edge1-KIFKEQ_clean_linker_1
_symmetry_space_group_name_H-M    P1
_symmetry_Int_Tables_number       1
_symmetry_cell_setting            triclinic
loop_
_symmetry_equiv_pos_as_xyz
'x, y, z'
_cell_length_a     67.921177
_cell_length_b     68.143699
_cell_length_c     29.127347
_cell_angle_alpha  90.117693
_cell_angle_beta   89.723838
_cell_angle_gamma 119.89167
loop_
_atom_site_label
_atom_site_type_symbol
_atom_site_fract_x
_atom_site_fract_y
_atom_site_fract_z
_atom_type_partial_charge
Cu0 Cu 0.55551 0.15841 0.09909 0.0
N1 N 0.52691 0.13242 0.10454 0.0
N2 N 0.49969 0.09609 0.10892 0.0
C3 C 0.5222 0.11073 0.10439 0.0
C4 C 0.48997 0.10917 0.1121 0.0
C5 C 0.50677 0.13152 0.10938 0.0
O6 O 0.57048 0.15608 0.04298 0.0
C7 C 0.56023 0.16043 0.19345 0.0
O8 O 0.53984 0.15786 0.18903 0.0
H9 H 0.53507 0.10587 0.10115 0.0
H10 H 0.50446 0.1461 0.11073 0.0
N11 N 0.55188 0.18358 0.09089 0.0
N12 N 0.55705 0.21859 0.09467 0.0
C13 C 0.56265 0.20373 0.11254 0.0
C14 C 0.53904 0.18575 0.05851 0.0
C15 C 0.54216 0.20728 0.06078 0.0
C16 C 0.55809 0.14704 1.00765 0.0
O17 O 0.53604 0.1385 1.01144 0.0
H18 H 0.57479 0.2076 0.13985 0.0
H19 H 0.52836 0.17265 0.03452 0.0
O20 O 0.57147 0.16177 0.15714 0.0
H21 H 0.47195 0.10306 0.11517 0.0
H22 H 0.53399 0.21403 0.03927 0.0
Cu23 Cu 0.40617 0.54589 0.22973 0.0
N24 N 0.41025 0.52097 0.22367 0.0
N25 N 0.42818 0.50098 0.22421 0.0
C26 C 0.43014 0.52155 0.22985 0.0
C27 C 0.40609 0.48693 0.21405 0.0
C28 C 0.39507 0.49933 0.21374 0.0
O29 O 0.42365 0.56593 0.17889 0.0
C30 C 0.41884 0.57408 0.3132 0.0
O31 O 0.41557 0.58907 0.29142 0.0
H32 H 0.44562 0.53675 0.23935 0.0
H33 H 0.37725 0.49296 0.20708 0.0
N34 N 0.37529 0.53657 0.22447 0.0
N35 N 0.34086 0.53195 0.23871 0.0
C36 C 0.3623 0.54034 0.25425 0.0
C37 C 0.36159 0.52529 0.1891 0.0
C38 C 0.34037 0.52248 0.19769 0.0
C39 C 0.41561 0.57405 0.14984 0.0
O40 O 0.39597 0.57271 0.15828 0.0
H41 H 0.36859 0.54949 0.28615 0.0
H42 H 0.36682 0.51978 0.15887 0.0
O43 O 0.41649 0.55669 0.29198 0.0
H44 H 0.3984 0.469 0.20709 0.0
H45 H 0.32571 0.51402 0.17558 0.0
Cu46 Cu 0.86378 0.39596 0.3849 0.0
N47 N 0.88953 0.39281 0.38817 0.0
N48 N 0.92557 0.40078 0.39375 0.0
C49 C 0.91143 0.40931 0.39009 0.0
C50 C 0.91198 0.37808 0.39402 0.0
C51 C 0.88979 0.37322 0.3905 0.0
O52 O 0.86521 0.41268 0.32897 0.0
C53 C 0.86392 0.40204 0.48014 0.0
O54 O 0.86895 0.38577 0.47892 0.0
H55 H 0.91681 0.42717 0.38974 0.0
H56 H 0.87483 0.35658 0.39 0.0
N57 N 0.83821 0.36715 0.37981 0.0
N58 N 0.80829 0.33356 0.3977 0.0
C59 C 0.82532 0.35333 0.41392 0.0
C60 C 0.82896 0.35576 0.3407 0.0
C61 C 0.81051 0.33507 0.3516 0.0
C62 C 0.87217 0.40814 0.29177 0.0
O63 O 0.87948 0.39356 0.29315 0.0
H64 H 0.82813 0.35776 0.44987 0.0
H65 H 0.83522 0.36199 0.30657 0.0
O66 O 0.86132 0.40987 0.44223 0.0
H67 H 0.91766 0.36583 0.39623 0.0
H68 H 0.79981 0.32202 0.32745 0.0
Cu69 Cu 0.46947 0.85904 0.57456 0.0
N70 N 0.49926 0.88261 0.57961 0.0
N71 N 0.52887 0.91769 0.58382 0.0
C72 C 0.50644 0.90482 0.57527 0.0
C73 C 0.53604 0.90294 0.59386 0.0
C74 C 0.51772 0.8813 0.59118 0.0
O75 O 0.45743 0.86486 0.51822 0.0
C76 C 0.44165 0.84248 0.65704 0.0
O77 O 0.43455 0.82204 0.6409 0.0
H78 H 0.49524 0.91138 0.56741 0.0
H79 H 0.51777 0.86572 0.59791 0.0
N80 N 0.47034 0.83216 0.56721 0.0
N81 N 0.47354 0.80155 0.58044 0.0
C82 C 0.47365 0.81978 0.59914 0.0
C83 C 0.46872 0.82171 0.52699 0.0
C84 C 0.47049 0.80278 0.53504 0.0
C85 C 0.44033 0.8498 0.4963 0.0
O86 O 0.42783 0.82978 0.51515 0.0
H87 H 0.47591 0.82398 0.63531 0.0
H88 H 0.46671 0.82763 0.49389 0.0
O89 O 0.4546 0.85959 0.63227 0.0
H90 H 0.55326 0.90745 0.60254 0.0
H91 H 0.47005 0.79109 0.50929 0.0
Cu92 Cu 0.57161 0.41453 0.75562 0.0
N93 N 0.57719 0.44413 0.76462 0.0
N94 N 0.57393 0.47524 0.76739 0.0
C95 C 0.56613 0.45453 0.74843 0.0
C96 C 0.59062 0.478 0.79617 0.0
C97 C 0.59255 0.45887 0.7944 0.0
O98 O 0.55595 0.40103 0.69816 0.0
C99 C 0.53828 0.39651 0.82553 0.0
O100 O 0.52953 0.40684 0.8024 0.0
H101 H 0.55212 0.44683 0.72471 0.0
H102 H 0.60395 0.45563 0.81455 0.0
N103 N 0.59952 0.41548 0.74911 0.0
N104 N 0.63465 0.42111 0.75896 0.0
C105 C 0.617 0.42203 0.7786 0.0
C106 C 0.6063 0.41007 0.71 0.0
C107 C 0.62783 0.41349 0.7159 0.0
C108 C 0.53823 0.39917 0.67928 0.0
O109 O 0.52601 0.40647 0.70047 0.0
H110 H 0.61697 0.4278 0.81321 0.0
H111 H 0.5963 0.40423 0.67901 0.0
O112 O 0.55594 0.39679 0.80977 0.0
H113 H 0.60061 0.49272 0.81738 0.0
H114 H 0.63765 0.41047 0.69037 0.0
Cu115 Cu 0.14493 0.61327 0.91452 0.0
N116 N 0.11799 0.61396 0.92228 0.0
N117 N 0.08143 0.60467 0.92272 0.0
C118 C 0.09672 0.59846 0.90986 0.0
C119 C 0.09372 0.62495 0.94353 0.0
C120 C 0.11618 0.63058 0.94322 0.0
O121 O 0.14291 0.597 0.85743 0.0
C122 C 0.13564 0.58936 0.99946 0.0
O123 O 0.11441 0.58204 0.98813 0.0
H124 H 0.09255 0.58271 0.89293 0.0
H125 H 0.13027 0.64571 0.95749 0.0
N126 N 0.16771 0.64329 0.90699 0.0
N127 N 0.19842 0.67718 0.91814 0.0
C128 C 0.18586 0.65571 0.93378 0.0
C129 C 0.16869 0.65728 0.87347 0.0
C130 C 0.1876 0.67816 0.88016 0.0
C131 C 0.1602 0.60324 0.8314 0.0
O132 O 0.18024 0.61866 0.84639 0.0
H133 H 0.18974 0.64907 0.96399 0.0
H134 H 0.15631 0.65261 0.84636 0.0
O135 O 0.15132 0.60157 0.97088 0.0
H136 H 0.08705 0.63514 0.95777 0.0
H137 H 0.19262 0.69304 0.85928 0.0
Cu138 Cu 0.84971 0.46747 0.88573 0.0
N139 N 0.87589 0.49569 0.87957 0.0
N140 N 0.91244 0.52267 0.87986 0.0
C141 C 0.89731 0.50075 0.88895 0.0
C142 C 0.89999 0.53165 0.864 0.0
C143 C 0.87749 0.51495 0.86368 0.0
O144 O 0.85214 0.4536 0.94288 0.0
C145 C 0.84417 0.45744 0.79194 0.0
O146 O 0.84045 0.4746 0.79247 0.0
H147 H 0.90161 0.48862 0.90261 0.0
H148 H 0.8633 0.51667 0.85223 0.0
N149 N 0.82434 0.47143 0.89038 0.0
N150 N 0.78952 0.46687 0.88227 0.0
C151 C 0.8035 0.4586 0.87224 0.0
C152 C 0.8235 0.4883 0.91267 0.0
C153 C 0.80214 0.48557 0.90775 0.0
C154 C 0.8573 0.46556 0.97937 0.0
O155 O 0.86095 0.48635 0.97643 0.0
H156 H 0.79875 0.44354 0.85207 0.0
H157 H 0.83759 0.50193 0.93062 0.0
O158 O 0.8479 0.45056 0.82992 0.0
H159 H 0.90669 0.54894 0.85259 0.0
H160 H 0.7966 0.4969 0.92086 0.0
Cu161 Cu 0.39599 0.86201 0.07394 0.0
N162 N 0.40008 0.89097 0.06547 0.0
N163 N 0.41222 0.92804 0.06859 0.0
C164 C 0.41502 0.91096 0.08457 0.0
C165 C 0.39495 0.91837 0.0384 0.0
C166 C 0.38756 0.89559 0.03654 0.0
O167 O 0.40584 0.85853 0.13507 0.0
C168 C 0.42384 0.86882 0.99483 0.0
O169 O 0.43514 0.88989 1.00912 0.0
H170 H 0.42751 0.91294 0.10979 0.0
H171 H 0.37405 0.88318 1.01531 0.0
N172 N 0.36477 0.84238 0.07394 0.0
N173 N 0.33034 0.81312 0.05902 0.0
C174 C 0.35286 0.82302 0.05017 0.0
C175 C 0.34939 0.84489 0.09858 0.0
C176 C 0.32815 0.82691 0.08946 0.0
C177 C 0.42518 0.8696 0.15421 0.0
O178 O 0.44261 0.88474 0.13039 0.0
H179 H 0.36064 0.81627 1.02732 0.0
H180 H 0.3534 0.85893 0.12139 0.0
O181 O 0.40805 0.85402 1.02013 0.0
H182 H 0.3884 0.92719 1.01833 0.0
H183 H 0.31232 0.82445 0.10359 0.0
Cu184 Cu 0.5434 0.39331 0.24723 0.0
N185 N 0.55144 0.42372 0.2511 0.0
N186 N 0.54382 0.45198 0.25451 0.0
C187 C 0.53583 0.42971 0.2609 0.0
C188 C 0.56552 0.46049 0.24031 0.0
C189 C 0.57027 0.44295 0.23857 0.0
O190 O 0.53143 0.38062 0.30783 0.0
C191 C 0.53001 0.39215 0.15876 0.0
O192 O 0.54942 0.41123 0.15988 0.0
H193 H 0.51834 0.41755 0.26916 0.0
H194 H 0.58577 0.4439 0.22622 0.0
N195 N 0.56705 0.38794 0.23229 0.0
N196 N 0.58178 0.36741 0.20471 0.0
C197 C 0.56288 0.36884 0.21068 0.0
C198 C 0.58956 0.39925 0.2403 0.0
C199 C 0.59871 0.38644 0.22354 0.0
C200 C 0.54636 0.38889 0.33936 0.0
O201 O 0.56734 0.40364 0.32777 0.0
H202 H 0.546 0.35585 0.20074 0.0
H203 H 0.59861 0.41539 0.25766 0.0
O204 O 0.52259 0.38042 0.1954 0.0
H205 H 0.5768 0.47787 0.23017 0.0
H206 H 0.61634 0.39077 0.22508 0.0
Cu207 Cu 0.15638 0.54358 0.41568 0.0
N208 N 0.13139 0.51461 0.42226 0.0
N209 N 0.09547 0.48624 0.42112 0.0
C210 C 0.10986 0.50814 0.41054 0.0
C211 C 0.10856 0.47859 0.43975 0.0
C212 C 0.13072 0.49617 0.44048 0.0
O213 O 0.15802 0.56145 0.46992 0.0
C214 C 0.16868 0.57014 0.33161 0.0
O215 O 0.18937 0.58163 0.34807 0.0
H216 H 0.10488 0.51939 0.39488 0.0
H217 H 0.14527 0.49567 0.45397 0.0
N218 N 0.18283 0.54163 0.41732 0.0
N219 N 0.21439 0.54067 0.39957 0.0
C220 C 0.19549 0.54009 0.38315 0.0
C221 C 0.19393 0.54294 0.45632 0.0
C222 C 0.21336 0.54239 0.44556 0.0
C223 C 0.14109 0.55832 0.49446 0.0
O224 O 0.12043 0.54486 0.47944 0.0
H225 H 0.19132 0.53925 0.34712 0.0
H226 H 0.18837 0.54452 0.49029 0.0
O227 O 0.15297 0.55489 0.35626 0.0
H228 H 0.10247 0.46172 0.45311 0.0
H229 H 0.22578 0.54317 0.46975 0.0
Cu230 Cu 0.62613 0.14964 0.59674 0.0
N231 N 0.62877 0.12386 0.59099 0.0
N232 N 0.61962 0.08752 0.58698 0.0
C233 C 0.61214 0.10221 0.59582 0.0
C234 C 0.64184 0.10061 0.57625 0.0
C235 C 0.64741 0.12297 0.57871 0.0
O236 O 0.60996 0.14683 0.6544 0.0
C237 C 0.61399 0.16883 0.52067 0.0
O238 O 0.62665 0.18859 0.54023 0.0
H239 H 0.59494 0.09745 0.60553 0.0
H240 H 0.66378 0.13758 0.57125 0.0
N241 N 0.65554 0.17445 0.60036 0.0
N242 N 0.68899 0.20437 0.58162 0.0
C243 C 0.66886 0.18766 0.566 0.0
C244 C 0.66791 0.18265 0.63879 0.0
C245 C 0.68847 0.2012 0.62743 0.0
C246 C 0.6126 0.1637 0.67816 0.0
O247 O 0.62461 0.18418 0.66101 0.0
H248 H 0.66369 0.18534 0.53041 0.0
H249 H 0.66227 0.17569 0.67279 0.0
O250 O 0.61067 0.1509 0.54111 0.0
H251 H 0.65321 0.09453 0.56608 0.0
H252 H 0.70199 0.21149 0.65107 0.0
Cu253 Cu 0.48189 0.61549 0.73028 0.0
N254 N 0.50545 0.609 0.72298 0.0
N255 N 0.52486 0.59043 0.72172 0.0
C256 C 0.50633 0.59074 0.73796 0.0
C257 C 0.53612 0.60935 0.69602 0.0
C258 C 0.52412 0.62073 0.69687 0.0
O259 O 0.46655 0.60386 0.78949 0.0
C260 C 0.46116 0.58866 0.65059 0.0
O261 O 0.47043 0.5769 0.66506 0.0
H262 H 0.49308 0.57743 0.75843 0.0
H263 H 0.52832 0.63614 0.67862 0.0
N264 N 0.49431 0.64685 0.73105 0.0
N265 N 0.4984 0.68108 0.71847 0.0
C266 C 0.48524 0.65851 0.712 0.0
C267 C 0.5139 0.66248 0.7502 0.0
C268 C 0.51646 0.68359 0.74256 0.0
C269 C 0.47909 0.60928 0.82509 0.0
O270 O 0.50122 0.62111 0.81958 0.0
H271 H 0.46947 0.65051 0.6931 0.0
H272 H 0.52555 0.6588 0.76828 0.0
O273 O 0.46238 0.60455 0.6758 0.0
H274 H 0.55179 0.61449 0.67747 0.0
H275 H 0.5305 0.69948 0.75424 0.0
H276 H 0.60469 0.17848 0.22198 0.0
H277 H 0.53545 0.14374 0.2714 0.0
H278 H 0.61814 0.18057 0.30115 0.0
H279 H 0.54877 0.14556 0.34952 0.0
H280 H 0.58119 0.1317 0.47526 0.0
H281 H 0.56921 0.12929 0.39541 0.0
H282 H 0.61705 0.20039 0.3771 0.0
H283 H 0.62888 0.20293 0.45716 0.0
C284 C 0.59238 0.17115 0.24956 0.0
C285 C 0.56902 0.161 0.24037 0.0
C286 C 0.60005 0.17246 0.29485 0.0
C287 C 0.58449 0.1632 0.33157 0.0
C288 C 0.56118 0.15269 0.32204 0.0
C289 C 0.55357 0.15176 0.27719 0.0
C290 C 0.58907 0.14686 0.45433 0.0
C291 C 0.60586 0.16755 0.4728 0.0
C292 C 0.58222 0.14547 0.40857 0.0
C293 C 0.59227 0.16464 0.37988 0.0
C294 C 0.60916 0.18529 0.3982 0.0
C295 C 0.61574 0.18677 0.44422 0.0
H296 H 0.41509 0.54126 0.37181 0.0
H297 H 0.43357 0.61173 0.36834 0.0
H298 H 0.42276 0.54406 0.45344 0.0
H299 H 0.4424 0.61493 0.4503 0.0
H300 H 0.44019 0.60932 0.60728 0.0
H301 H 0.42866 0.60565 0.52682 0.0
H302 H 0.45262 0.5583 0.50469 0.0
H303 H 0.46304 0.56119 0.58473 0.0
C304 C 0.42106 0.55749 0.3884 0.0
C305 C 0.4239 0.57633 0.36326 0.0
C306 C 0.4256 0.55915 0.43544 0.0
C307 C 0.43351 0.57981 0.45889 0.0
C308 C 0.43611 0.59865 0.43381 0.0
C309 C 0.43123 0.59689 0.38663 0.0
C310 C 0.44267 0.59789 0.58528 0.0
C311 C 0.45242 0.58545 0.60273 0.0
C312 C 0.43628 0.59595 0.53892 0.0
C313 C 0.43963 0.58165 0.50878 0.0
C314 C 0.44923 0.56913 0.52663 0.0
C315 C 0.45536 0.57088 0.57283 0.0
H316 H 0.82775 0.46154 0.7095 0.0
H317 H 0.86398 0.43166 0.77254 0.0
H318 H 0.83175 0.44789 0.6348 0.0
H319 H 0.86897 0.41881 0.69741 0.0
H320 H 0.85753 0.38124 0.56295 0.0
H321 H 0.85161 0.39343 0.63747 0.0
H322 H 0.8573 0.45364 0.57541 0.0
H323 H 0.86218 0.44072 0.50009 0.0
C324 C 0.83664 0.45206 0.70738 0.0
C325 C 0.84551 0.44767 0.7471 0.0
C326 C 0.83915 0.4444 0.6643 0.0
C327 C 0.85088 0.43233 0.65947 0.0
C328 C 0.85953 0.42772 0.69947 0.0
C329 C 0.85674 0.43515 0.74273 0.0
C330 C 0.85752 0.3971 0.56509 0.0
C331 C 0.86039 0.41003 0.52541 0.0
C332 C 0.85426 0.40421 0.60813 0.0
C333 C 0.85407 0.42466 0.61306 0.0
C334 C 0.85696 0.43762 0.57321 0.0
C335 C 0.85992 0.43031 0.5299 0.0
H336 H 0.42211 0.81017 0.72421 0.0
H337 H 0.45155 0.88198 0.7013 0.0
H338 H 0.41837 0.81564 0.80573 0.0
H339 H 0.44704 0.88741 0.78257 0.0
H340 H 0.45869 0.89471 0.93581 0.0
H341 H 0.4623 0.88782 0.85503 0.0
H342 H 0.39924 0.82421 0.86304 0.0
H343 H 0.39613 0.8308 0.94442 0.0
C344 C 0.42746 0.82711 0.73639 0.0
C345 C 0.43718 0.84563 0.70597 0.0
C346 C 0.42524 0.83026 0.78336 0.0
C347 C 0.43255 0.85202 0.80132 0.0
C348 C 0.44168 0.87045 0.77052 0.0
C349 C 0.44406 0.86732 0.72363 0.0
C350 C 0.44571 0.87911 0.92051 0.0
C351 C 0.42714 0.86331 0.94682 0.0
C352 C 0.44764 0.87525 0.87385 0.0
C353 C 0.43092 0.85556 0.85184 0.0
C354 C 0.41261 0.83948 0.87855 0.0
C355 C 0.41079 0.84326 0.9254 0.0
H356 H 0.52263 0.35402 0.11359 0.0
H357 H 0.5164 0.41368 0.10102 0.0
H358 H 0.51845 0.34851 0.0301 0.0
H359 H 0.51219 0.40838 1.01832 0.0
H360 H 0.50191 0.39477 0.87015 0.0
H361 H 0.49181 0.38656 0.95104 0.0
H362 H 0.54565 0.371 0.96871 0.0
H363 H 0.55555 0.37887 0.88766 0.0
C364 C 0.51923 0.36527 0.09318 0.0
C365 C 0.51946 0.38407 0.11357 0.0
C366 C 0.5172 0.36236 0.04537 0.0
C367 C 0.51518 0.37811 1.01739 0.0
C368 C 0.51344 0.39575 0.03864 0.0
C369 C 0.51577 0.39879 0.08611 0.0
C370 C 0.51132 0.38916 0.89102 0.0
C371 C 0.52979 0.38782 0.87249 0.0
C372 C 0.50554 0.38449 0.93747 0.0
C373 C 0.51805 0.37835 0.96656 0.0
C374 C 0.5355 0.37548 0.94729 0.0
C375 C 0.5413 0.38017 0.90079 0.0
H376 H 0.19589 0.6043 0.27185 0.0
H377 H 0.131 0.54282 0.28091 0.0
H378 H 0.1884 0.60865 0.19168 0.0
H379 H 0.12393 0.54649 0.20065 0.0
H380 H 0.10617 0.57049 0.07113 0.0
H381 H 0.11442 0.56662 0.15024 0.0
H382 H 0.18549 0.59521 0.11578 0.0
H383 H 0.17721 0.60006 0.03629 0.0
C384 C 0.18004 0.59167 0.25672 0.0
C385 C 0.16398 0.57333 0.28309 0.0
C386 C 0.17581 0.59403 0.21049 0.0
C387 C 0.1555 0.57796 0.18918 0.0
C388 C 0.13956 0.55954 0.21571 0.0
C389 C 0.14366 0.55735 0.26195 0.0
C390 C 0.12358 0.57585 0.08015 0.0
C391 C 0.141 0.58553 0.04705 0.0
C392 C 0.12833 0.5735 0.12581 0.0
C393 C 0.15066 0.58048 0.13994 0.0
C394 C 0.16812 0.58991 0.10663 0.0
C395 C 0.16336 0.5925 0.06082 0.0
H396 H 0.60912 0.3506 0.22868 0.0
H397 H 0.55614 0.34136 0.13506 0.0
H398 H 0.60705 0.3158 0.19951 0.0
H399 H 0.55355 0.30659 0.10697 0.0
H400 H 0.56275 0.25309 0.04017 0.0
H401 H 0.57298 0.29128 0.06379 0.0
H402 H 0.57986 0.27489 0.20385 0.0
H403 H 0.56987 0.23662 0.17984 0.0
C404 C 0.59729 0.34131 0.20146 0.0
C405 C 0.58266 0.34856 0.18439 0.0
C406 C 0.59593 0.32129 0.1851 0.0
C407 C 0.58007 0.30833 0.15102 0.0
C408 C 0.56613 0.3162 0.13283 0.0
C409 C 0.56743 0.33603 0.14927 0.0
C410 C 0.56649 0.25765 0.07598 0.0
C411 C 0.56514 0.24172 0.10827 0.0
C412 C 0.5724 0.27955 0.08954 0.0
C413 C 0.57696 0.28609 0.13583 0.0
C414 C 0.57664 0.27049 0.16785 0.0
C415 C 0.57084 0.24854 0.15416 0.0
H416 H 0.30609 0.53382 0.19762 0.0
H417 H 0.33381 0.53281 0.33002 0.0
H418 H 0.27529 0.53645 0.23503 0.0
H419 H 0.30283 0.53492 0.3676 0.0
H420 H 0.25885 0.56219 0.42153 0.0
H421 H 0.28934 0.56038 0.38136 0.0
H422 H 0.24146 0.51613 0.27986 0.0
H423 H 0.21097 0.51852 0.3199 0.0
C424 C 0.30547 0.53391 0.23475 0.0
C425 C 0.32246 0.53319 0.26085 0.0
C426 C 0.28777 0.53538 0.25625 0.0
C427 C 0.28654 0.536 0.30441 0.0
C428 C 0.30344 0.53499 0.33044 0.0
C429 C 0.32122 0.53373 0.30894 0.0
C430 C 0.25482 0.55202 0.39072 0.0
C431 C 0.23247 0.54032 0.3741 0.0
C432 C 0.27231 0.5509 0.3677 0.0
C433 C 0.2679 0.53786 0.3276 0.0
C434 C 0.24557 0.52651 0.31039 0.0
C435 C 0.22806 0.52782 0.3333 0.0
H436 H 0.69914 0.20361 0.4917 0.0
H437 H 0.71902 0.24647 0.61172 0.0
H438 H 0.72848 0.23471 0.44684 0.0
H439 H 0.74818 0.27758 0.56696 0.0
H440 H 0.81252 0.32164 0.48425 0.0
H441 H 0.78401 0.28985 0.52879 0.0
H442 H 0.73712 0.27099 0.41559 0.0
H443 H 0.76572 0.30269 0.37098 0.0
C444 C 0.70968 0.2197 0.50845 0.0
C445 C 0.70673 0.22253 0.55532 0.0
C446 C 0.72648 0.23754 0.48274 0.0
C447 C 0.74069 0.25867 0.50327 0.0
C448 C 0.73781 0.26144 0.55021 0.0
C449 C 0.72107 0.24358 0.57592 0.0
C450 C 0.79608 0.31082 0.469 0.0
C451 C 0.7914 0.31475 0.42406 0.0
C452 C 0.77972 0.29257 0.49453 0.0
C453 C 0.75825 0.27785 0.4758 0.0
C454 C 0.7536 0.28176 0.43081 0.0
C455 C 0.76999 0.29996 0.40523 0.0
H456 H 0.49776 0.80618 0.65757 0.0
H457 H 0.45522 0.75771 0.55546 0.0
H458 H 0.50313 0.77697 0.69464 0.0
H459 H 0.4609 0.72875 0.59176 0.0
H460 H 0.45789 0.67691 0.69387 0.0
H461 H 0.45122 0.70628 0.66329 0.0
H462 H 0.52259 0.75501 0.67598 0.0
H463 H 0.52943 0.72563 0.70592 0.0
C464 C 0.48944 0.78928 0.64326 0.0
C465 C 0.47616 0.78428 0.60346 0.0
C466 C 0.49267 0.77262 0.66421 0.0
C467 C 0.48246 0.75057 0.64608 0.0
C468 C 0.46884 0.74551 0.60682 0.0
C469 C 0.46578 0.76217 0.58571 0.0
C470 C 0.47224 0.6938 0.68991 0.0
C471 C 0.49426 0.69873 0.70214 0.0
C472 C 0.46837 0.71067 0.67248 0.0
C473 C 0.48638 0.73295 0.66709 0.0
C474 C 0.50831 0.73806 0.68025 0.0
C475 C 0.51221 0.72115 0.69743 0.0
H476 H 0.64479 0.42043 0.849 0.0
H477 H 0.67445 0.43651 0.71323 0.0
H478 H 0.68179 0.43007 0.88098 0.0
H479 H 0.71117 0.44617 0.74488 0.0
H480 H 0.76916 0.4412 0.80693 0.0
H481 H 0.73097 0.42891 0.77932 0.0
H482 H 0.71942 0.46203 0.89441 0.0
H483 H 0.75724 0.47349 0.92306 0.0
C484 C 0.65919 0.42616 0.82604 0.0
C485 C 0.65655 0.42747 0.77849 0.0
C486 C 0.68041 0.43167 0.84432 0.0
C487 C 0.69946 0.43868 0.81545 0.0
C488 C 0.69681 0.4403 0.76804 0.0
C489 C 0.67569 0.43477 0.74985 0.0
C490 C 0.7584 0.44556 0.82679 0.0
C491 C 0.76644 0.4585 0.86711 0.0
C492 C 0.73654 0.43874 0.81065 0.0
C493 C 0.72214 0.44467 0.83437 0.0
C494 C 0.72995 0.45705 0.87537 0.0
C495 C 0.7518 0.46387 0.89151 0.0
H496 H 0.23111 0.71471 0.87522 0.0
H497 H 0.21168 0.6815 1.00728 0.0
H498 H 0.26367 0.74684 0.91012 0.0
H499 H 0.2449 0.71322 0.04182 0.0
H500 H 0.28867 0.78569 0.09586 0.0
H501 H 0.25756 0.75203 0.0616 0.0
H502 H 0.30008 0.75905 0.94485 0.0
H503 H 0.33092 0.79339 0.97818 0.0
C504 C 0.2338 0.71419 0.91167 0.0
C505 C 0.21857 0.69553 0.93843 0.0
C506 C 0.25269 0.73252 0.9316 0.0
C507 C 0.2569 0.73267 0.97883 0.0
C508 C 0.242 0.7138 1.00544 0.0
C509 C 0.22306 0.69546 0.9855 0.0
C510 C 0.29139 0.7802 0.06274 0.0
C511 C 0.31232 0.79244 0.03969 0.0
C512 C 0.2736 0.76067 0.04335 0.0
C513 C 0.27628 0.75281 1.00043 0.0
C514 C 0.29734 0.76478 0.97772 0.0
C515 C 0.31514 0.78436 0.99711 0.0
H516 H 0.62067 0.19645 0.74196 0.0
H517 H 0.58669 0.12387 0.72481 0.0
H518 H 0.60909 0.19146 0.82248 0.0
H519 H 0.57528 0.11892 0.80549 0.0
H520 H 0.53596 0.12111 0.93384 0.0
H521 H 0.54959 0.12468 0.85532 0.0
H522 H 0.61571 0.17816 0.89705 0.0
H523 H 0.60188 0.17467 0.97631 0.0
C524 C 0.61066 0.17941 0.75526 0.0
C525 C 0.6045 0.16056 0.72665 0.0
C526 C 0.60424 0.17657 0.80165 0.0
C527 C 0.59135 0.1548 0.82066 0.0
C528 C 0.58507 0.13594 0.79198 0.0
C529 C 0.59162 0.13878 0.74565 0.0
C530 C 0.55351 0.13349 0.92653 0.0
C531 C 0.56781 0.14765 0.96145 0.0
C532 C 0.56136 0.13546 0.88139 0.0
C533 C 0.58372 0.15178 0.86966 0.0
C534 C 0.59829 0.16557 0.9048 0.0
C535 C 0.59046 0.16344 0.9503 0.0
H536 H 0.43411 0.58732 0.85251 0.0
H537 H 0.50246 0.61878 0.90544 0.0
H538 H 0.41924 0.57953 0.93119 0.0
H539 H 0.48775 0.61152 0.98336 0.0
H540 H 0.45333 0.57392 0.11596 0.0
H541 H 0.46803 0.5817 0.03765 0.0
H542 H 0.41658 0.59826 0.99999 0.0
H543 H 0.40159 0.59003 0.07814 0.0
C544 C 0.44596 0.59255 0.88081 0.0
C545 C 0.46948 0.60363 0.87246 0.0
C546 C 0.43746 0.58826 0.92599 0.0
C547 C 0.45228 0.5949 0.96387 0.0
C548 C 0.47577 0.60585 0.95527 0.0
C549 C 0.48422 0.61012 0.91034 0.0
C550 C 0.44529 0.57947 0.09118 0.0
C551 C 0.42628 0.58138 0.10359 0.0
C552 C 0.45374 0.58395 0.04612 0.0
C553 C 0.44344 0.5905 1.01216 0.0
C554 C 0.42473 0.59288 1.02487 0.0
C555 C 0.41627 0.58839 0.06994 0.0
H556 H 0.85097 0.42337 1.00102 0.0
H557 H 0.86792 0.48784 0.06133 0.0
H558 H 0.85408 0.40954 0.07663 0.0
H559 H 0.87143 0.47427 0.13615 0.0
H560 H 0.85409 0.43553 0.27251 0.0
H561 H 0.84971 0.44865 0.19716 0.0
H562 H 0.88209 0.4147 0.13341 0.0
H563 H 0.88608 0.40133 0.20818 0.0
C564 C 0.85541 0.4346 0.03027 0.0
C565 C 0.85918 0.45671 1.0249 0.0
C566 C 0.85731 0.42673 0.07365 0.0
C567 C 0.86299 0.44077 0.11273 0.0
C568 C 0.86669 0.46283 0.10718 0.0
C569 C 0.86482 0.47067 0.06398 0.0
C570 C 0.86036 0.43097 0.24243 0.0
C571 C 0.87045 0.41738 0.24659 0.0
C572 C 0.85789 0.43852 0.19915 0.0
C573 C 0.86544 0.43266 0.15895 0.0
C574 C 0.8757 0.41923 0.16333 0.0
C575 C 0.87817 0.41172 0.20645 0.0
H576 H 0.46319 0.8888 0.44513 0.0
H577 H 0.40981 0.81904 0.43568 0.0
H578 H 0.45936 0.89375 0.3633 0.0
H579 H 0.40649 0.82372 0.35389 0.0
H580 H 0.39136 0.84377 0.21549 0.0
H581 H 0.39433 0.84 0.29776 0.0
H582 H 0.467 0.88423 0.28932 0.0
H583 H 0.46387 0.8886 0.20694 0.0
C584 C 0.45056 0.87453 0.4257 0.0
C585 C 0.43677 0.85353 0.44727 0.0
C586 C 0.44851 0.8773 0.37851 0.0
C587 C 0.43269 0.85912 0.35145 0.0
C588 C 0.41866 0.83825 0.37336 0.0
C589 C 0.42062 0.83553 0.4205 0.0
C590 C 0.40802 0.85266 0.23104 0.0
C591 C 0.42739 0.86647 0.20429 0.0
C592 C 0.40975 0.8504 0.27845 0.0
C593 C 0.43092 0.86177 0.30069 0.0
C594 C 0.45033 0.87547 0.27381 0.0
C595 C 0.44858 0.87783 0.22634 0.0
H596 H 0.51275 0.40635 0.61546 0.0
H597 H 0.55294 0.37393 0.63378 0.0
H598 H 0.51078 0.39871 0.53293 0.0
H599 H 0.55042 0.36574 0.55205 0.0
H600 H 0.57527 0.39303 0.40675 0.0
H601 H 0.56904 0.39083 0.48886 0.0
H602 H 0.49882 0.37171 0.46735 0.0
H603 H 0.5053 0.37426 0.38382 0.0
C604 C 0.52065 0.39709 0.60209 0.0
C605 C 0.53334 0.3911 0.63106 0.0
C606 C 0.51945 0.39262 0.55479 0.0
C607 C 0.53078 0.38195 0.53567 0.0
C608 C 0.54195 0.37447 0.56538 0.0
C609 C 0.54334 0.37911 0.61234 0.0
C610 C 0.55837 0.38801 0.41934 0.0
C611 C 0.5408 0.38388 0.38875 0.0
C612 C 0.55474 0.38658 0.46661 0.0
C613 C 0.5334 0.38103 0.48493 0.0
C614 C 0.5155 0.37615 0.45436 0.0
C615 C 0.51913 0.3774 0.40659 0.0
H616 H 0.10998 0.5598 0.55251 0.0
H617 H 0.1798 0.57536 0.54602 0.0
H618 H 0.11463 0.57046 0.63333 0.0
H619 H 0.18424 0.58502 0.62715 0.0
H620 H 0.19212 0.62053 0.76331 0.0
H621 H 0.18762 0.61103 0.68236 0.0
H622 H 0.11808 0.55902 0.70729 0.0
H623 H 0.12238 0.5694 0.78844 0.0
C624 C 0.12637 0.56557 0.56831 0.0
C625 C 0.14454 0.56684 0.54256 0.0
C626 C 0.12898 0.57144 0.61496 0.0
C627 C 0.14978 0.5785 0.63742 0.0
C628 C 0.16804 0.58005 0.6113 0.0
C629 C 0.1655 0.57445 0.56454 0.0
C630 C 0.17587 0.60694 0.75171 0.0
C631 C 0.15762 0.59571 0.78263 0.0
C632 C 0.1733 0.60139 0.705 0.0
C633 C 0.15246 0.5842 0.68767 0.0
C634 C 0.13429 0.57265 0.71886 0.0
C635 C 0.1368 0.57842 0.76564 0.0
H636 H 0.45903 0.06722 0.14783 0.0
H637 H 0.51419 0.06935 0.06934 0.0
H638 H 0.43836 0.02609 0.1429 0.0
H639 H 0.4935 0.02813 0.06455 0.0
H640 H 0.45642 0.95192 0.09449 0.0
H641 H 0.47856 0.99266 0.10936 0.0
H642 H 0.41929 0.99857 0.08186 0.0
H643 H 0.3972 0.95803 0.0683 0.0
C644 C 0.46675 0.05894 0.12944 0.0
C645 C 0.4882 0.07167 0.10859 0.0
C646 C 0.45491 0.03534 0.1267 0.0
C647 C 0.46421 0.02383 0.10305 0.0
C648 C 0.48596 0.03647 0.08345 0.0
C649 C 0.49782 0.06012 0.08617 0.0
C650 C 0.44809 0.96191 0.09231 0.0
C651 C 0.42508 0.95176 0.07998 0.0
C652 C 0.46081 0.98526 0.10037 0.0
C653 C 0.4507 0.99887 0.09672 0.0
C654 C 0.42756 0.98858 0.08544 0.0
C655 C 0.41494 0.96535 0.07714 0.0
H656 H 0.50965 0.44325 0.31307 0.0
H657 H 0.54678 0.48465 0.19708 0.0
H658 H 0.48254 0.45668 0.30749 0.0
H659 H 0.51945 0.49797 0.19083 0.0
H660 H 0.47372 0.52899 0.21491 0.0
H661 H 0.50354 0.5195 0.2262 0.0
H662 H 0.45261 0.45022 0.2548 0.0
H663 H 0.42292 0.45988 0.24543 0.0
C664 C 0.51208 0.45539 0.28658 0.0
C665 C 0.53019 0.46276 0.2553 0.0
C666 C 0.49649 0.46299 0.28317 0.0
C667 C 0.49856 0.47808 0.24818 0.0
C668 C 0.5174 0.48641 0.21831 0.0
C669 C 0.53311 0.47886 0.22192 0.0
C670 C 0.46887 0.51179 0.2241 0.0
C671 C 0.44585 0.49523 0.22946 0.0
C672 C 0.486 0.50631 0.23011 0.0
C673 C 0.48051 0.48414 0.24171 0.0
C674 C 0.45749 0.46756 0.24666 0.0
C675 C 0.4404 0.47303 0.24065 0.0
H676 H 0.06845 0.44119 0.40753 0.0
H677 H 0.06719 0.50354 0.42336 0.0
H678 H 0.02723 0.42046 0.39973 0.0
H679 H 0.02601 0.48289 0.41637 0.0
H680 H 0.95446 0.44209 0.35799 0.0
H681 H 0.99579 0.46281 0.3632 0.0
H682 H 0.99333 0.40838 0.44361 0.0
H683 H 0.95212 0.38762 0.43762 0.0
C684 C 0.05934 0.45044 0.40966 0.0
C685 C 0.07111 0.47401 0.41595 0.0
C686 C 0.0357 0.43857 0.40529 0.0
C687 C 0.02322 0.44997 0.40747 0.0
C688 C 0.03505 0.47358 0.41369 0.0
C689 C 0.05869 0.48545 0.41775 0.0
C690 C 0.96276 0.43464 0.37699 0.0
C691 C 0.94999 0.41319 0.39729 0.0
C692 C 0.98647 0.44652 0.38005 0.0
C693 C 0.99797 0.43728 0.40378 0.0
C694 C 0.98513 0.41585 0.42429 0.0
C695 C 0.96146 0.40394 0.42096 0.0
H696 H 0.56584 0.94396 0.63569 0.0
H697 H 0.52187 0.94673 0.53255 0.0
H698 H 0.58775 0.98516 0.63722 0.0
H699 H 0.54396 0.98795 0.53339 0.0
H700 H 0.57374 0.06096 0.57989 0.0
H701 H 0.55184 0.01988 0.58034 0.0
H702 H 0.61379 0.01712 0.59259 0.0
H703 H 0.63561 0.05819 0.59466 0.0
C704 C 0.56102 0.95337 0.61295 0.0
C705 C 0.5421 0.94207 0.58403 0.0
C706 C 0.57359 0.97702 0.61377 0.0
C707 C 0.56764 0.98994 0.58545 0.0
C708 C 0.54879 0.97858 0.55629 0.0
C709 C 0.53614 0.95494 0.5557 0.0
C710 C 0.58274 0.05168 0.58332 0.0
C711 C 0.60654 0.06307 0.58728 0.0
C712 C 0.57015 0.02804 0.58294 0.0
C713 C 0.58102 0.01513 0.58632 0.0
C714 C 0.6048 0.02648 0.59042 0.0
C715 C 0.61737 0.05012 0.59102 0.0
H716 H 0.55477 0.48074 0.69052 0.0
H717 H 0.57377 0.50481 0.82941 0.0
H718 H 0.54134 0.5077 0.67911 0.0
H719 H 0.56081 0.53194 0.81782 0.0
H720 H 0.51509 0.56262 0.7951 0.0
H721 H 0.52544 0.53332 0.80579 0.0
H722 H 0.55846 0.54947 0.67312 0.0
H723 H 0.54775 0.57838 0.66213 0.0
C724 C 0.55598 0.49169 0.71864 0.0
C725 C 0.56548 0.49072 0.76075 0.0
C726 C 0.54846 0.50725 0.71202 0.0
C727 C 0.55005 0.52199 0.74756 0.0
C728 C 0.55917 0.52071 0.78988 0.0
C729 C 0.56685 0.50533 0.79634 0.0
C730 C 0.52438 0.55977 0.7681 0.0
C731 C 0.5307 0.57293 0.72791 0.0
C732 C 0.53046 0.54311 0.77434 0.0
C733 C 0.54281 0.53909 0.74032 0.0
C734 C 0.5488 0.55201 0.69982 0.0
C735 C 0.54289 0.56878 0.69377 0.0
H736 H 0.04986 0.6085 0.97332 0.0
H737 H 0.05744 0.57229 0.85891 0.0
H738 H 0.00899 0.58833 0.96247 0.0
H739 H 0.01632 0.55188 0.8484 0.0
H740 H 0.9397 0.5041 0.8764 0.0
H741 H 0.9808 0.52353 0.88713 0.0
H742 H 0.9815 0.58675 0.90607 0.0
H743 H 0.94044 0.56726 0.89659 0.0
C744 C 0.04289 0.5964 0.94557 0.0
C745 C 0.05709 0.59222 0.91676 0.0
C746 C 0.01939 0.58478 0.93942 0.0
C747 C 0.00941 0.5686 0.90442 0.0
C748 C 0.02349 0.56411 0.87598 0.0
C749 C 0.04707 0.57581 0.88203 0.0
C750 C 0.9486 0.5221 0.88323 0.0
C751 C 0.93675 0.53411 0.88573 0.0
C752 C 0.97218 0.53328 0.88888 0.0
C753 C 0.98441 0.55668 0.89751 0.0
C754 C 0.97255 0.56867 0.89994 0.0
C755 C 0.94903 0.55754 0.89403 0.0
loop_
_geom_bond_atom_site_label_1
_geom_bond_atom_site_label_2
_geom_bond_distance
_geom_bond_site_symmetry_2
_ccdc_geom_bond_type
Cu0 N1 1.999 . S
Cu0 O6 1.974 1_554 S
Cu0 N11 1.985 . S
Cu0 O20 1.959 . S
N1 Cu0 1.999 . S
N1 C3 1.263 . S
N1 C5 1.389 . S
N2 C3 1.358 . S
N2 C4 1.400 . S
C3 N1 1.263 . S
C3 N2 1.358 . S
C3 H9 0.930 . S
C4 N2 1.400 . S
C4 C5 1.351 . S
C4 H21 0.930 . S
C5 N1 1.389 . S
C5 C4 1.351 . S
C5 H10 0.930 . S
O6 Cu0 1.974 1_556 S
O6 C16 1.282 . S
C7 O8 1.261 . S
C7 O20 1.251 . S
O8 C7 1.261 . S
H9 C3 0.930 . S
H10 C5 0.930 . S
N11 Cu0 1.985 . S
N11 C13 1.335 . S
N11 C14 1.390 . S
N12 C13 1.345 . S
N12 C15 1.336 . S
C13 N11 1.335 . S
C13 N12 1.345 . S
C13 H18 0.930 . S
C14 N11 1.390 . S
C14 C15 1.346 . S
C14 H19 0.916 1_554 S
C15 N12 1.336 . S
C15 C14 1.346 . S
C15 H22 0.929 . S
C16 O6 1.282 . S
C16 O17 1.216 . S
O17 C16 1.216 . S
H18 C13 0.930 . S
H19 C14 0.916 1_556 S
O20 Cu0 1.959 . S
O20 C7 1.251 . S
H21 C4 0.930 . S
H22 C15 0.929 . S
Cu23 N24 1.999 . S
Cu23 O29 1.974 . S
Cu23 N34 1.985 . S
Cu23 O43 1.959 . S
N24 Cu23 1.999 . S
N24 C26 1.263 . S
N24 C28 1.389 . S
N25 C26 1.358 . S
N25 C27 1.400 . S
C26 N24 1.263 . S
C26 N25 1.358 . S
C26 H32 0.930 . S
C27 N25 1.400 . S
C27 C28 1.351 . S
C27 H44 0.930 . S
C28 N24 1.389 . S
C28 C27 1.351 . S
C28 H33 0.930 . S
O29 Cu23 1.974 . S
O29 C39 1.282 . S
C30 O31 1.261 . S
C30 O43 1.251 . S
O31 C30 1.261 . S
H32 C26 0.930 . S
H33 C28 0.930 . S
N34 Cu23 1.985 . S
N34 C36 1.335 . S
N34 C37 1.390 . S
N35 C36 1.345 . S
N35 C38 1.336 . S
C36 N34 1.335 . S
C36 N35 1.345 . S
C36 H41 0.930 . S
C37 N34 1.390 . S
C37 C38 1.346 . S
C37 H42 0.930 . S
C38 N35 1.336 . S
C38 C37 1.346 . S
C38 H45 0.929 . S
C39 O29 1.282 . S
C39 O40 1.216 . S
O40 C39 1.216 . S
H41 C36 0.930 . S
H42 C37 0.930 . S
O43 Cu23 1.959 . S
O43 C30 1.251 . S
H44 C27 0.930 . S
H45 C38 0.929 . S
Cu46 N47 1.999 . S
Cu46 O52 1.974 . S
Cu46 N57 1.985 . S
Cu46 O66 1.959 . S
N47 Cu46 1.999 . S
N47 C49 1.263 . S
N47 C51 1.389 . S
N48 C49 1.358 . S
N48 C50 1.400 . S
C49 N47 1.263 . S
C49 N48 1.358 . S
C49 H55 0.930 . S
C50 N48 1.400 . S
C50 C51 1.351 . S
C50 H67 0.930 . S
C51 N47 1.389 . S
C51 C50 1.351 . S
C51 H56 0.930 . S
O52 Cu46 1.974 . S
O52 C62 1.282 . S
C53 O54 1.261 . S
C53 O66 1.251 . S
O54 C53 1.261 . S
H55 C49 0.930 . S
H56 C51 0.930 . S
N57 Cu46 1.985 . S
N57 C59 1.335 . S
N57 C60 1.390 . S
N58 C59 1.345 . S
N58 C61 1.336 . S
C59 N57 1.335 . S
C59 N58 1.345 . S
C59 H64 0.930 . S
C60 N57 1.390 . S
C60 C61 1.346 . S
C60 H65 0.930 . S
C61 N58 1.336 . S
C61 C60 1.346 . S
C61 H68 0.929 . S
C62 O52 1.282 . S
C62 O63 1.216 . S
O63 C62 1.216 . S
H64 C59 0.930 . S
H65 C60 0.930 . S
O66 Cu46 1.959 . S
O66 C53 1.251 . S
H67 C50 0.930 . S
H68 C61 0.929 . S
Cu69 N70 1.999 . S
Cu69 O75 1.974 . S
Cu69 N80 1.985 . S
Cu69 O89 1.959 . S
N70 Cu69 1.999 . S
N70 C72 1.263 . S
N70 C74 1.389 . S
N71 C72 1.358 . S
N71 C73 1.400 . S
C72 N70 1.263 . S
C72 N71 1.358 . S
C72 H78 0.930 . S
C73 N71 1.400 . S
C73 C74 1.351 . S
C73 H90 0.930 . S
C74 N70 1.389 . S
C74 C73 1.351 . S
C74 H79 0.930 . S
O75 Cu69 1.974 . S
O75 C85 1.282 . S
C76 O77 1.261 . S
C76 O89 1.251 . S
O77 C76 1.261 . S
H78 C72 0.930 . S
H79 C74 0.930 . S
N80 Cu69 1.985 . S
N80 C82 1.335 . S
N80 C83 1.390 . S
N81 C82 1.345 . S
N81 C84 1.336 . S
C82 N80 1.335 . S
C82 N81 1.345 . S
C82 H87 0.930 . S
C83 N80 1.390 . S
C83 C84 1.346 . S
C83 H88 0.930 . S
C84 N81 1.336 . S
C84 C83 1.346 . S
C84 H91 0.929 . S
C85 O75 1.282 . S
C85 O86 1.216 . S
O86 C85 1.216 . S
H87 C82 0.930 . S
H88 C83 0.930 . S
O89 Cu69 1.959 . S
O89 C76 1.251 . S
H90 C73 0.930 . S
H91 C84 0.929 . S
Cu92 N93 1.999 . S
Cu92 O98 1.974 . S
Cu92 N103 1.985 . S
Cu92 O112 1.959 . S
N93 Cu92 1.999 . S
N93 C95 1.263 . S
N93 C97 1.389 . S
N94 C95 1.358 . S
N94 C96 1.400 . S
C95 N93 1.263 . S
C95 N94 1.358 . S
C95 H101 0.930 . S
C96 N94 1.400 . S
C96 C97 1.351 . S
C96 H113 0.930 . S
C97 N93 1.389 . S
C97 C96 1.351 . S
C97 H102 0.930 . S
O98 Cu92 1.974 . S
O98 C108 1.282 . S
C99 O100 1.261 . S
C99 O112 1.251 . S
O100 C99 1.261 . S
H101 C95 0.930 . S
H102 C97 0.930 . S
N103 Cu92 1.985 . S
N103 C105 1.335 . S
N103 C106 1.390 . S
N104 C105 1.345 . S
N104 C107 1.336 . S
C105 N103 1.335 . S
C105 N104 1.345 . S
C105 H110 0.930 . S
C106 N103 1.390 . S
C106 C107 1.346 . S
C106 H111 0.930 . S
C107 N104 1.336 . S
C107 C106 1.346 . S
C107 H114 0.929 . S
C108 O98 1.282 . S
C108 O109 1.216 . S
O109 C108 1.216 . S
H110 C105 0.930 . S
H111 C106 0.930 . S
O112 Cu92 1.959 . S
O112 C99 1.251 . S
H113 C96 0.930 . S
H114 C107 0.929 . S
Cu115 N116 1.999 . S
Cu115 O121 1.974 . S
Cu115 N126 1.985 . S
Cu115 O135 1.959 . S
N116 Cu115 1.999 . S
N116 C118 1.263 . S
N116 C120 1.389 . S
N117 C118 1.358 . S
N117 C119 1.400 . S
C118 N116 1.263 . S
C118 N117 1.358 . S
C118 H124 0.930 . S
C119 N117 1.400 . S
C119 C120 1.351 . S
C119 H136 0.930 . S
C120 N116 1.389 . S
C120 C119 1.351 . S
C120 H125 0.930 . S
O121 Cu115 1.974 . S
O121 C131 1.282 . S
C122 O123 1.261 . S
C122 O135 1.251 . S
O123 C122 1.261 . S
H124 C118 0.930 . S
H125 C120 0.930 . S
N126 Cu115 1.985 . S
N126 C128 1.335 . S
N126 C129 1.390 . S
N127 C128 1.345 . S
N127 C130 1.336 . S
C128 N126 1.335 . S
C128 N127 1.345 . S
C128 H133 0.930 . S
C129 N126 1.390 . S
C129 C130 1.346 . S
C129 H134 0.930 . S
C130 N127 1.336 . S
C130 C129 1.346 . S
C130 H137 0.929 . S
C131 O121 1.282 . S
C131 O132 1.216 . S
O132 C131 1.216 . S
H133 C128 0.930 . S
H134 C129 0.930 . S
O135 Cu115 1.959 . S
O135 C122 1.251 . S
H136 C119 0.930 . S
H137 C130 0.929 . S
Cu138 N139 1.999 . S
Cu138 O144 1.974 . S
Cu138 N149 1.985 . S
Cu138 O158 1.959 . S
N139 Cu138 1.999 . S
N139 C141 1.263 . S
N139 C143 1.389 . S
N140 C141 1.358 . S
N140 C142 1.400 . S
C141 N139 1.263 . S
C141 N140 1.358 . S
C141 H147 0.930 . S
C142 N140 1.400 . S
C142 C143 1.351 . S
C142 H159 0.930 . S
C143 N139 1.389 . S
C143 C142 1.351 . S
C143 H148 0.930 . S
O144 Cu138 1.974 . S
O144 C154 1.282 . S
C145 O146 1.261 . S
C145 O158 1.251 . S
O146 C145 1.261 . S
H147 C141 0.930 . S
H148 C143 0.930 . S
N149 Cu138 1.985 . S
N149 C151 1.335 . S
N149 C152 1.390 . S
N150 C151 1.345 . S
N150 C153 1.336 . S
C151 N149 1.335 . S
C151 N150 1.345 . S
C151 H156 0.930 . S
C152 N149 1.390 . S
C152 C153 1.346 . S
C152 H157 0.930 . S
C153 N150 1.336 . S
C153 C152 1.346 . S
C153 H160 0.929 . S
C154 O144 1.282 . S
C154 O155 1.216 . S
O155 C154 1.216 . S
H156 C151 0.930 . S
H157 C152 0.930 . S
O158 Cu138 1.959 . S
O158 C145 1.251 . S
H159 C142 0.930 . S
H160 C153 0.929 . S
Cu161 N162 1.999 . S
Cu161 O167 1.974 . S
Cu161 N172 1.985 . S
Cu161 O181 1.959 1_554 S
N162 Cu161 1.999 . S
N162 C164 1.263 . S
N162 C166 1.401 . S
N163 C164 1.358 . S
N163 C165 1.400 . S
C164 N162 1.263 . S
C164 N163 1.358 . S
C164 H170 0.930 . S
C165 N163 1.400 . S
C165 C166 1.355 . S
C165 H182 0.930 1_554 S
C166 N162 1.401 . S
C166 C165 1.355 . S
C166 H171 0.916 1_554 S
O167 Cu161 1.974 . S
O167 C177 1.282 . S
C168 O169 1.261 . S
C168 O181 1.251 . S
O169 C168 1.261 . S
H170 C164 0.930 . S
H171 C166 0.916 1_556 S
N172 Cu161 1.985 . S
N172 C174 1.335 . S
N172 C175 1.390 . S
N173 C174 1.345 . S
N173 C176 1.336 . S
C174 N172 1.335 . S
C174 N173 1.345 . S
C174 H179 0.930 1_554 S
C175 N172 1.390 . S
C175 C176 1.346 . S
C175 H180 0.930 . S
C176 N173 1.336 . S
C176 C175 1.346 . S
C176 H183 0.929 . S
C177 O167 1.282 . S
C177 O178 1.216 . S
O178 C177 1.216 . S
H179 C174 0.930 1_556 S
H180 C175 0.930 . S
O181 Cu161 1.959 1_556 S
O181 C168 1.251 . S
H182 C165 0.930 1_556 S
H183 C176 0.929 . S
Cu184 N185 1.999 . S
Cu184 O190 1.974 . S
Cu184 N195 1.985 . S
Cu184 O204 1.959 . S
N185 Cu184 1.999 . S
N185 C187 1.263 . S
N185 C189 1.389 . S
N186 C187 1.358 . S
N186 C188 1.400 . S
C187 N185 1.263 . S
C187 N186 1.358 . S
C187 H193 0.930 . S
C188 N186 1.400 . S
C188 C189 1.351 . S
C188 H205 0.930 . S
C189 N185 1.389 . S
C189 C188 1.351 . S
C189 H194 0.930 . S
O190 Cu184 1.974 . S
O190 C200 1.282 . S
C191 O192 1.261 . S
C191 O204 1.251 . S
O192 C191 1.261 . S
H193 C187 0.930 . S
H194 C189 0.930 . S
N195 Cu184 1.985 . S
N195 C197 1.335 . S
N195 C198 1.390 . S
N196 C197 1.345 . S
N196 C199 1.336 . S
C197 N195 1.335 . S
C197 N196 1.345 . S
C197 H202 0.930 . S
C198 N195 1.390 . S
C198 C199 1.346 . S
C198 H203 0.930 . S
C199 N196 1.336 . S
C199 C198 1.346 . S
C199 H206 0.929 . S
C200 O190 1.282 . S
C200 O201 1.216 . S
O201 C200 1.216 . S
H202 C197 0.930 . S
H203 C198 0.930 . S
O204 Cu184 1.959 . S
O204 C191 1.251 . S
H205 C188 0.930 . S
H206 C199 0.929 . S
Cu207 N208 1.999 . S
Cu207 O213 1.974 . S
Cu207 N218 1.985 . S
Cu207 O227 1.959 . S
N208 Cu207 1.999 . S
N208 C210 1.263 . S
N208 C212 1.389 . S
N209 C210 1.358 . S
N209 C211 1.400 . S
C210 N208 1.263 . S
C210 N209 1.358 . S
C210 H216 0.930 . S
C211 N209 1.400 . S
C211 C212 1.351 . S
C211 H228 0.930 . S
C212 N208 1.389 . S
C212 C211 1.351 . S
C212 H217 0.930 . S
O213 Cu207 1.974 . S
O213 C223 1.282 . S
C214 O215 1.261 . S
C214 O227 1.251 . S
O215 C214 1.261 . S
H216 C210 0.930 . S
H217 C212 0.930 . S
N218 Cu207 1.985 . S
N218 C220 1.335 . S
N218 C221 1.390 . S
N219 C220 1.345 . S
N219 C222 1.336 . S
C220 N218 1.335 . S
C220 N219 1.345 . S
C220 H225 0.930 . S
C221 N218 1.390 . S
C221 C222 1.346 . S
C221 H226 0.930 . S
C222 N219 1.336 . S
C222 C221 1.346 . S
C222 H229 0.929 . S
C223 O213 1.282 . S
C223 O224 1.216 . S
O224 C223 1.216 . S
H225 C220 0.930 . S
H226 C221 0.930 . S
O227 Cu207 1.959 . S
O227 C214 1.251 . S
H228 C211 0.930 . S
H229 C222 0.929 . S
Cu230 N231 1.999 . S
Cu230 O236 1.974 . S
Cu230 N241 1.985 . S
Cu230 O250 1.959 . S
N231 Cu230 1.999 . S
N231 C233 1.263 . S
N231 C235 1.389 . S
N232 C233 1.358 . S
N232 C234 1.400 . S
C233 N231 1.263 . S
C233 N232 1.358 . S
C233 H239 0.930 . S
C234 N232 1.400 . S
C234 C235 1.351 . S
C234 H251 0.930 . S
C235 N231 1.389 . S
C235 C234 1.351 . S
C235 H240 0.930 . S
O236 Cu230 1.974 . S
O236 C246 1.282 . S
C237 O238 1.261 . S
C237 O250 1.251 . S
O238 C237 1.261 . S
H239 C233 0.930 . S
H240 C235 0.930 . S
N241 Cu230 1.985 . S
N241 C243 1.335 . S
N241 C244 1.390 . S
N242 C243 1.345 . S
N242 C245 1.336 . S
C243 N241 1.335 . S
C243 N242 1.345 . S
C243 H248 0.930 . S
C244 N241 1.390 . S
C244 C245 1.346 . S
C244 H249 0.930 . S
C245 N242 1.336 . S
C245 C244 1.346 . S
C245 H252 0.929 . S
C246 O236 1.282 . S
C246 O247 1.216 . S
O247 C246 1.216 . S
H248 C243 0.930 . S
H249 C244 0.930 . S
O250 Cu230 1.959 . S
O250 C237 1.251 . S
H251 C234 0.930 . S
H252 C245 0.929 . S
Cu253 N254 1.999 . S
Cu253 O259 1.974 . S
Cu253 N264 1.985 . S
Cu253 O273 1.959 . S
N254 Cu253 1.999 . S
N254 C256 1.263 . S
N254 C258 1.389 . S
N255 C256 1.358 . S
N255 C257 1.400 . S
C256 N254 1.263 . S
C256 N255 1.358 . S
C256 H262 0.930 . S
C257 N255 1.400 . S
C257 C258 1.351 . S
C257 H274 0.930 . S
C258 N254 1.389 . S
C258 C257 1.351 . S
C258 H263 0.930 . S
O259 Cu253 1.974 . S
O259 C269 1.282 . S
C260 O261 1.261 . S
C260 O273 1.251 . S
O261 C260 1.261 . S
H262 C256 0.930 . S
H263 C258 0.930 . S
N264 Cu253 1.985 . S
N264 C266 1.335 . S
N264 C267 1.390 . S
N265 C266 1.345 . S
N265 C268 1.336 . S
C266 N264 1.335 . S
C266 N265 1.345 . S
C266 H271 0.930 . S
C267 N264 1.390 . S
C267 C268 1.346 . S
C267 H272 0.930 . S
C268 N265 1.336 . S
C268 C267 1.346 . S
C268 H275 0.929 . S
C269 O259 1.282 . S
C269 O270 1.216 . S
O270 C269 1.216 . S
H271 C266 0.930 . S
H272 C267 0.930 . S
O273 Cu253 1.959 . S
O273 C260 1.251 . S
H274 C257 0.930 . S
H275 C268 0.929 . S
H276 C284 0.950 . S
H277 C289 0.950 . S
H278 C286 0.950 . S
H279 C288 0.950 . S
H280 C290 0.950 . S
H281 C292 0.950 . S
H282 C294 0.950 . S
H283 C295 0.950 . S
C284 H276 0.950 . S
C284 C285 1.386 . S
C284 C286 1.391 . S
C285 C284 1.386 . S
C285 C289 1.393 . S
C286 H278 0.950 . S
C286 C284 1.391 . S
C286 C287 1.400 . S
C287 C286 1.400 . S
C287 C288 1.398 . S
C287 C293 1.491 . S
C288 H279 0.950 . S
C288 C287 1.398 . S
C288 C289 1.391 . S
C289 H277 0.950 . S
C289 C285 1.393 . S
C289 C288 1.391 . S
C290 H280 0.950 . S
C290 C291 1.386 . S
C290 C292 1.391 . S
C291 C290 1.386 . S
C291 C295 1.393 . S
C292 H281 0.950 . S
C292 C290 1.391 . S
C292 C293 1.400 . S
C293 C287 1.491 . S
C293 C292 1.400 . S
C293 C294 1.398 . S
C294 H282 0.950 . S
C294 C293 1.398 . S
C294 C295 1.391 . S
C295 H283 0.950 . S
C295 C291 1.393 . S
C295 C294 1.391 . S
H296 C304 0.950 . S
H297 C309 0.950 . S
H298 C306 0.950 . S
H299 C308 0.950 . S
H300 C310 0.950 . S
H301 C312 0.950 . S
H302 C314 0.950 . S
H303 C315 0.950 . S
C304 H296 0.950 . S
C304 C305 1.386 . S
C304 C306 1.391 . S
C305 C304 1.386 . S
C305 C309 1.393 . S
C306 H298 0.950 . S
C306 C304 1.391 . S
C306 C307 1.400 . S
C307 C306 1.400 . S
C307 C308 1.398 . S
C307 C313 1.491 . S
C308 H299 0.950 . S
C308 C307 1.398 . S
C308 C309 1.391 . S
C309 H297 0.950 . S
C309 C305 1.393 . S
C309 C308 1.391 . S
C310 H300 0.950 . S
C310 C311 1.386 . S
C310 C312 1.391 . S
C311 C310 1.386 . S
C311 C315 1.393 . S
C312 H301 0.950 . S
C312 C310 1.391 . S
C312 C313 1.400 . S
C313 C307 1.491 . S
C313 C312 1.400 . S
C313 C314 1.398 . S
C314 H302 0.950 . S
C314 C313 1.398 . S
C314 C315 1.391 . S
C315 H303 0.950 . S
C315 C311 1.393 . S
C315 C314 1.391 . S
H316 C324 0.950 . S
H317 C329 0.950 . S
H318 C326 0.950 . S
H319 C328 0.950 . S
H320 C330 0.950 . S
H321 C332 0.950 . S
H322 C334 0.950 . S
H323 C335 0.950 . S
C324 H316 0.950 . S
C324 C325 1.386 . S
C324 C326 1.391 . S
C325 C324 1.386 . S
C325 C329 1.393 . S
C326 H318 0.950 . S
C326 C324 1.391 . S
C326 C327 1.400 . S
C327 C326 1.400 . S
C327 C328 1.398 . S
C327 C333 1.491 . S
C328 H319 0.950 . S
C328 C327 1.398 . S
C328 C329 1.391 . S
C329 H317 0.950 . S
C329 C325 1.393 . S
C329 C328 1.391 . S
C330 H320 0.950 . S
C330 C331 1.386 . S
C330 C332 1.391 . S
C331 C330 1.386 . S
C331 C335 1.393 . S
C332 H321 0.950 . S
C332 C330 1.391 . S
C332 C333 1.400 . S
C333 C327 1.491 . S
C333 C332 1.400 . S
C333 C334 1.398 . S
C334 H322 0.950 . S
C334 C333 1.398 . S
C334 C335 1.391 . S
C335 H323 0.950 . S
C335 C331 1.393 . S
C335 C334 1.391 . S
H336 C344 0.950 . S
H337 C349 0.950 . S
H338 C346 0.950 . S
H339 C348 0.950 . S
H340 C350 0.950 . S
H341 C352 0.950 . S
H342 C354 0.950 . S
H343 C355 0.950 . S
C344 H336 0.950 . S
C344 C345 1.386 . S
C344 C346 1.391 . S
C345 C344 1.386 . S
C345 C349 1.393 . S
C346 H338 0.950 . S
C346 C344 1.391 . S
C346 C347 1.400 . S
C347 C346 1.400 . S
C347 C348 1.398 . S
C347 C353 1.491 . S
C348 H339 0.950 . S
C348 C347 1.398 . S
C348 C349 1.391 . S
C349 H337 0.950 . S
C349 C345 1.393 . S
C349 C348 1.391 . S
C350 H340 0.950 . S
C350 C351 1.386 . S
C350 C352 1.391 . S
C351 C350 1.386 . S
C351 C355 1.393 . S
C352 H341 0.950 . S
C352 C350 1.391 . S
C352 C353 1.400 . S
C353 C347 1.491 . S
C353 C352 1.400 . S
C353 C354 1.398 . S
C354 H342 0.950 . S
C354 C353 1.398 . S
C354 C355 1.391 . S
C355 H343 0.950 . S
C355 C351 1.393 . S
C355 C354 1.391 . S
H356 C364 0.950 . S
H357 C369 0.950 . S
H358 C366 0.950 1_556 S
H359 C368 0.960 . S
H360 C370 0.950 . S
H361 C372 0.950 . S
H362 C374 0.950 . S
H363 C375 0.950 . S
C364 H356 0.950 . S
C364 C365 1.386 . S
C364 C366 1.391 . S
C365 C364 1.386 . S
C365 C369 1.393 . S
C366 H358 0.950 1_554 S
C366 C364 1.391 . S
C366 C367 1.400 1_554 S
C367 C366 1.400 1_556 S
C367 C368 1.398 1_556 S
C367 C373 1.491 . S
C368 H359 0.960 . S
C368 C367 1.398 1_554 S
C368 C369 1.391 . S
C369 H357 0.950 . S
C369 C365 1.393 . S
C369 C368 1.391 . S
C370 H360 0.950 . S
C370 C371 1.386 . S
C370 C372 1.391 . S
C371 C370 1.386 . S
C371 C375 1.393 . S
C372 H361 0.950 . S
C372 C370 1.391 . S
C372 C373 1.400 . S
C373 C367 1.491 . S
C373 C372 1.400 . S
C373 C374 1.398 . S
C374 H362 0.950 . S
C374 C373 1.398 . S
C374 C375 1.391 . S
C375 H363 0.950 . S
C375 C371 1.393 . S
C375 C374 1.391 . S
H376 C384 0.950 . S
H377 C389 0.950 . S
H378 C386 0.950 . S
H379 C388 0.950 . S
H380 C390 0.950 . S
H381 C392 0.950 . S
H382 C394 0.950 . S
H383 C395 0.950 . S
C384 H376 0.950 . S
C384 C385 1.386 . S
C384 C386 1.391 . S
C385 C384 1.386 . S
C385 C389 1.393 . S
C386 H378 0.950 . S
C386 C384 1.391 . S
C386 C387 1.400 . S
C387 C386 1.400 . S
C387 C388 1.398 . S
C387 C393 1.491 . S
C388 H379 0.950 . S
C388 C387 1.398 . S
C388 C389 1.391 . S
C389 H377 0.950 . S
C389 C385 1.393 . S
C389 C388 1.391 . S
C390 H380 0.950 . S
C390 C391 1.386 . S
C390 C392 1.391 . S
C391 C390 1.386 . S
C391 C395 1.393 . S
C392 H381 0.950 . S
C392 C390 1.391 . S
C392 C393 1.400 . S
C393 C387 1.491 . S
C393 C392 1.400 . S
C393 C394 1.398 . S
C394 H382 0.950 . S
C394 C393 1.398 . S
C394 C395 1.391 . S
C395 H383 0.950 . S
C395 C391 1.393 . S
C395 C394 1.391 . S
H396 C404 0.950 . S
H397 C409 0.950 . S
H398 C406 0.950 . S
H399 C408 0.950 . S
H400 C410 0.950 . S
H401 C412 0.950 . S
H402 C414 0.950 . S
H403 C415 0.950 . S
C404 H396 0.950 . S
C404 C405 1.386 . S
C404 C406 1.391 . S
C405 C404 1.386 . S
C405 C409 1.393 . S
C406 H398 0.950 . S
C406 C404 1.391 . S
C406 C407 1.400 . S
C407 C406 1.400 . S
C407 C408 1.398 . S
C407 C413 1.491 . S
C408 H399 0.950 . S
C408 C407 1.398 . S
C408 C409 1.391 . S
C409 H397 0.950 . S
C409 C405 1.393 . S
C409 C408 1.391 . S
C410 H400 0.950 . S
C410 C411 1.386 . S
C410 C412 1.391 . S
C411 C410 1.386 . S
C411 C415 1.393 . S
C412 H401 0.950 . S
C412 C410 1.391 . S
C412 C413 1.400 . S
C413 C407 1.491 . S
C413 C412 1.400 . S
C413 C414 1.398 . S
C414 H402 0.950 . S
C414 C413 1.398 . S
C414 C415 1.391 . S
C415 H403 0.950 . S
C415 C411 1.393 . S
C415 C414 1.391 . S
H416 C424 0.950 . S
H417 C429 0.950 . S
H418 C426 0.950 . S
H419 C428 0.950 . S
H420 C430 0.950 . S
H421 C432 0.950 . S
H422 C434 0.950 . S
H423 C435 0.950 . S
C424 H416 0.950 . S
C424 C425 1.386 . S
C424 C426 1.391 . S
C425 C424 1.386 . S
C425 C429 1.393 . S
C426 H418 0.950 . S
C426 C424 1.391 . S
C426 C427 1.400 . S
C427 C426 1.400 . S
C427 C428 1.398 . S
C427 C433 1.491 . S
C428 H419 0.950 . S
C428 C427 1.398 . S
C428 C429 1.391 . S
C429 H417 0.950 . S
C429 C425 1.393 . S
C429 C428 1.391 . S
C430 H420 0.950 . S
C430 C431 1.386 . S
C430 C432 1.391 . S
C431 C430 1.386 . S
C431 C435 1.393 . S
C432 H421 0.950 . S
C432 C430 1.391 . S
C432 C433 1.400 . S
C433 C427 1.491 . S
C433 C432 1.400 . S
C433 C434 1.398 . S
C434 H422 0.950 . S
C434 C433 1.398 . S
C434 C435 1.391 . S
C435 H423 0.950 . S
C435 C431 1.393 . S
C435 C434 1.391 . S
H436 C444 0.950 . S
H437 C449 0.950 . S
H438 C446 0.950 . S
H439 C448 0.950 . S
H440 C450 0.950 . S
H441 C452 0.950 . S
H442 C454 0.950 . S
H443 C455 0.950 . S
C444 H436 0.950 . S
C444 C445 1.386 . S
C444 C446 1.391 . S
C445 C444 1.386 . S
C445 C449 1.393 . S
C446 H438 0.950 . S
C446 C444 1.391 . S
C446 C447 1.400 . S
C447 C446 1.400 . S
C447 C448 1.398 . S
C447 C453 1.491 . S
C448 H439 0.950 . S
C448 C447 1.398 . S
C448 C449 1.391 . S
C449 H437 0.950 . S
C449 C445 1.393 . S
C449 C448 1.391 . S
C450 H440 0.950 . S
C450 C451 1.386 . S
C450 C452 1.391 . S
C451 C450 1.386 . S
C451 C455 1.393 . S
C452 H441 0.950 . S
C452 C450 1.391 . S
C452 C453 1.400 . S
C453 C447 1.491 . S
C453 C452 1.400 . S
C453 C454 1.398 . S
C454 H442 0.950 . S
C454 C453 1.398 . S
C454 C455 1.391 . S
C455 H443 0.950 . S
C455 C451 1.393 . S
C455 C454 1.391 . S
H456 C464 0.950 . S
H457 C469 0.950 . S
H458 C466 0.950 . S
H459 C468 0.950 . S
H460 C470 0.950 . S
H461 C472 0.950 . S
H462 C474 0.950 . S
H463 C475 0.950 . S
C464 H456 0.950 . S
C464 C465 1.386 . S
C464 C466 1.391 . S
C465 C464 1.386 . S
C465 C469 1.393 . S
C466 H458 0.950 . S
C466 C464 1.391 . S
C466 C467 1.400 . S
C467 C466 1.400 . S
C467 C468 1.398 . S
C467 C473 1.491 . S
C468 H459 0.950 . S
C468 C467 1.398 . S
C468 C469 1.391 . S
C469 H457 0.950 . S
C469 C465 1.393 . S
C469 C468 1.391 . S
C470 H460 0.950 . S
C470 C471 1.386 . S
C470 C472 1.391 . S
C471 C470 1.386 . S
C471 C475 1.393 . S
C472 H461 0.950 . S
C472 C470 1.391 . S
C472 C473 1.400 . S
C473 C467 1.491 . S
C473 C472 1.400 . S
C473 C474 1.398 . S
C474 H462 0.950 . S
C474 C473 1.398 . S
C474 C475 1.391 . S
C475 H463 0.950 . S
C475 C471 1.393 . S
C475 C474 1.391 . S
H476 C484 0.950 . S
H477 C489 0.950 . S
H478 C486 0.950 . S
H479 C488 0.950 . S
H480 C490 0.950 . S
H481 C492 0.950 . S
H482 C494 0.950 . S
H483 C495 0.950 . S
C484 H476 0.950 . S
C484 C485 1.386 . S
C484 C486 1.391 . S
C485 C484 1.386 . S
C485 C489 1.393 . S
C486 H478 0.950 . S
C486 C484 1.391 . S
C486 C487 1.400 . S
C487 C486 1.400 . S
C487 C488 1.398 . S
C487 C493 1.491 . S
C488 H479 0.950 . S
C488 C487 1.398 . S
C488 C489 1.391 . S
C489 H477 0.950 . S
C489 C485 1.393 . S
C489 C488 1.391 . S
C490 H480 0.950 . S
C490 C491 1.386 . S
C490 C492 1.391 . S
C491 C490 1.386 . S
C491 C495 1.393 . S
C492 H481 0.950 . S
C492 C490 1.391 . S
C492 C493 1.400 . S
C493 C487 1.491 . S
C493 C492 1.400 . S
C493 C494 1.398 . S
C494 H482 0.950 . S
C494 C493 1.398 . S
C494 C495 1.391 . S
C495 H483 0.950 . S
C495 C491 1.393 . S
C495 C494 1.391 . S
H496 C504 0.950 . S
H497 C509 0.950 . S
H498 C506 0.950 . S
H499 C508 0.950 . S
H500 C510 0.950 . S
H501 C512 0.950 1_554 S
H502 C514 0.950 . S
H503 C515 0.950 . S
C504 H496 0.950 . S
C504 C505 1.386 . S
C504 C506 1.391 . S
C505 C504 1.386 . S
C505 C509 1.393 . S
C506 H498 0.950 . S
C506 C504 1.391 . S
C506 C507 1.400 . S
C507 C506 1.400 . S
C507 C508 1.398 . S
C507 C513 1.491 . S
C508 H499 0.950 . S
C508 C507 1.398 . S
C508 C509 1.391 . S
C509 H497 0.950 . S
C509 C505 1.393 . S
C509 C508 1.391 . S
C510 H500 0.950 . S
C510 C511 1.386 1_554 S
C510 C512 1.391 1_554 S
C511 C510 1.386 1_556 S
C511 C515 1.393 . S
C512 H501 0.950 1_556 S
C512 C510 1.391 1_556 S
C512 C513 1.400 . S
C513 C507 1.491 . S
C513 C512 1.400 . S
C513 C514 1.398 . S
C514 H502 0.950 . S
C514 C513 1.398 . S
C514 C515 1.391 . S
C515 H503 0.950 . S
C515 C511 1.393 . S
C515 C514 1.391 . S
H516 C524 0.950 . S
H517 C529 0.950 . S
H518 C526 0.950 . S
H519 C528 0.950 . S
H520 C530 0.950 . S
H521 C532 0.950 . S
H522 C534 0.950 . S
H523 C535 0.950 . S
C524 H516 0.950 . S
C524 C525 1.386 . S
C524 C526 1.391 . S
C525 C524 1.386 . S
C525 C529 1.393 . S
C526 H518 0.950 . S
C526 C524 1.391 . S
C526 C527 1.400 . S
C527 C526 1.400 . S
C527 C528 1.398 . S
C527 C533 1.491 . S
C528 H519 0.950 . S
C528 C527 1.398 . S
C528 C529 1.391 . S
C529 H517 0.950 . S
C529 C525 1.393 . S
C529 C528 1.391 . S
C530 H520 0.950 . S
C530 C531 1.386 . S
C530 C532 1.391 . S
C531 C530 1.386 . S
C531 C535 1.393 . S
C532 H521 0.950 . S
C532 C530 1.391 . S
C532 C533 1.400 . S
C533 C527 1.491 . S
C533 C532 1.400 . S
C533 C534 1.398 . S
C534 H522 0.950 . S
C534 C533 1.398 . S
C534 C535 1.391 . S
C535 H523 0.950 . S
C535 C531 1.393 . S
C535 C534 1.391 . S
H536 C544 0.950 . S
H537 C549 0.950 . S
H538 C546 0.950 . S
H539 C548 0.950 . S
H540 C550 0.950 . S
H541 C552 0.950 1_556 S
H542 C554 0.950 1_556 S
H543 C555 0.950 . S
C544 H536 0.950 . S
C544 C545 1.386 . S
C544 C546 1.391 . S
C545 C544 1.386 . S
C545 C549 1.393 . S
C546 H538 0.950 . S
C546 C544 1.391 . S
C546 C547 1.400 . S
C547 C546 1.400 . S
C547 C548 1.398 . S
C547 C553 1.491 . S
C548 H539 0.950 . S
C548 C547 1.398 . S
C548 C549 1.391 . S
C549 H537 0.950 . S
C549 C545 1.393 . S
C549 C548 1.391 . S
C550 H540 0.950 . S
C550 C551 1.386 . S
C550 C552 1.391 . S
C551 C550 1.386 . S
C551 C555 1.393 . S
C552 H541 0.950 1_554 S
C552 C550 1.391 . S
C552 C553 1.400 1_554 S
C553 C547 1.491 . S
C553 C552 1.400 1_556 S
C553 C554 1.398 1_556 S
C554 H542 0.950 1_554 S
C554 C553 1.398 1_554 S
C554 C555 1.391 . S
C555 H543 0.950 . S
C555 C551 1.393 . S
C555 C554 1.391 . S
H556 C564 0.950 . S
H557 C569 0.950 . S
H558 C566 0.950 . S
H559 C568 0.950 . S
H560 C570 0.950 . S
H561 C572 0.950 . S
H562 C574 0.950 . S
H563 C575 0.950 . S
C564 H556 0.950 . S
C564 C565 1.386 . S
C564 C566 1.391 . S
C565 C564 1.386 . S
C565 C569 1.393 . S
C566 H558 0.950 . S
C566 C564 1.391 . S
C566 C567 1.400 . S
C567 C566 1.400 . S
C567 C568 1.398 . S
C567 C573 1.491 . S
C568 H559 0.950 . S
C568 C567 1.398 . S
C568 C569 1.391 . S
C569 H557 0.950 . S
C569 C565 1.393 . S
C569 C568 1.391 . S
C570 H560 0.950 . S
C570 C571 1.386 . S
C570 C572 1.391 . S
C571 C570 1.386 . S
C571 C575 1.393 . S
C572 H561 0.950 . S
C572 C570 1.391 . S
C572 C573 1.400 . S
C573 C567 1.491 . S
C573 C572 1.400 . S
C573 C574 1.398 . S
C574 H562 0.950 . S
C574 C573 1.398 . S
C574 C575 1.391 . S
C575 H563 0.950 . S
C575 C571 1.393 . S
C575 C574 1.391 . S
H576 C584 0.950 . S
H577 C589 0.950 . S
H578 C586 0.950 . S
H579 C588 0.950 . S
H580 C590 0.950 . S
H581 C592 0.950 . S
H582 C594 0.950 . S
H583 C595 0.950 . S
C584 H576 0.950 . S
C584 C585 1.386 . S
C584 C586 1.391 . S
C585 C584 1.386 . S
C585 C589 1.393 . S
C586 H578 0.950 . S
C586 C584 1.391 . S
C586 C587 1.400 . S
C587 C586 1.400 . S
C587 C588 1.398 . S
C587 C593 1.491 . S
C588 H579 0.950 . S
C588 C587 1.398 . S
C588 C589 1.391 . S
C589 H577 0.950 . S
C589 C585 1.393 . S
C589 C588 1.391 . S
C590 H580 0.950 . S
C590 C591 1.386 . S
C590 C592 1.391 . S
C591 C590 1.386 . S
C591 C595 1.393 . S
C592 H581 0.950 . S
C592 C590 1.391 . S
C592 C593 1.400 . S
C593 C587 1.491 . S
C593 C592 1.400 . S
C593 C594 1.398 . S
C594 H582 0.950 . S
C594 C593 1.398 . S
C594 C595 1.391 . S
C595 H583 0.950 . S
C595 C591 1.393 . S
C595 C594 1.391 . S
H596 C604 0.950 . S
H597 C609 0.950 . S
H598 C606 0.950 . S
H599 C608 0.950 . S
H600 C610 0.950 . S
H601 C612 0.950 . S
H602 C614 0.950 . S
H603 C615 0.950 . S
C604 H596 0.950 . S
C604 C605 1.386 . S
C604 C606 1.391 . S
C605 C604 1.386 . S
C605 C609 1.393 . S
C606 H598 0.950 . S
C606 C604 1.391 . S
C606 C607 1.400 . S
C607 C606 1.400 . S
C607 C608 1.398 . S
C607 C613 1.491 . S
C608 H599 0.950 . S
C608 C607 1.398 . S
C608 C609 1.391 . S
C609 H597 0.950 . S
C609 C605 1.393 . S
C609 C608 1.391 . S
C610 H600 0.950 . S
C610 C611 1.386 . S
C610 C612 1.391 . S
C611 C610 1.386 . S
C611 C615 1.393 . S
C612 H601 0.950 . S
C612 C610 1.391 . S
C612 C613 1.400 . S
C613 C607 1.491 . S
C613 C612 1.400 . S
C613 C614 1.398 . S
C614 H602 0.950 . S
C614 C613 1.398 . S
C614 C615 1.391 . S
C615 H603 0.950 . S
C615 C611 1.393 . S
C615 C614 1.391 . S
H616 C624 0.950 . S
H617 C629 0.950 . S
H618 C626 0.950 . S
H619 C628 0.950 . S
H620 C630 0.950 . S
H621 C632 0.950 . S
H622 C634 0.950 . S
H623 C635 0.950 . S
C624 H616 0.950 . S
C624 C625 1.386 . S
C624 C626 1.391 . S
C625 C624 1.386 . S
C625 C629 1.393 . S
C626 H618 0.950 . S
C626 C624 1.391 . S
C626 C627 1.400 . S
C627 C626 1.400 . S
C627 C628 1.398 . S
C627 C633 1.491 . S
C628 H619 0.950 . S
C628 C627 1.398 . S
C628 C629 1.391 . S
C629 H617 0.950 . S
C629 C625 1.393 . S
C629 C628 1.391 . S
C630 H620 0.950 . S
C630 C631 1.386 . S
C630 C632 1.391 . S
C631 C630 1.386 . S
C631 C635 1.393 . S
C632 H621 0.950 . S
C632 C630 1.391 . S
C632 C633 1.400 . S
C633 C627 1.491 . S
C633 C632 1.400 . S
C633 C634 1.398 . S
C634 H622 0.950 . S
C634 C633 1.398 . S
C634 C635 1.391 . S
C635 H623 0.950 . S
C635 C631 1.393 . S
C635 C634 1.391 . S
H636 C644 0.950 . S
H637 C649 0.952 1_556 S
H638 C646 0.950 . S
H639 C648 0.950 1_556 S
H640 C650 0.950 1_556 S
H641 C652 0.950 1_556 S
H642 C654 0.950 . S
H643 C655 0.950 . S
C644 H636 0.950 . S
C644 C645 1.386 . S
C644 C646 1.391 . S
C645 C644 1.386 . S
C645 C649 1.391 . S
C646 H638 0.950 . S
C646 C644 1.391 . S
C646 C647 1.400 . S
C647 C646 1.400 . S
C647 C648 1.398 . S
C647 C653 1.491 1_545 S
C648 H639 0.950 1_554 S
C648 C647 1.398 . S
C648 C649 1.390 . S
C649 H637 0.952 1_554 S
C649 C645 1.391 . S
C649 C648 1.390 . S
C650 H640 0.950 1_554 S
C650 C651 1.386 . S
C650 C652 1.391 . S
C651 C650 1.386 . S
C651 C655 1.393 . S
C652 H641 0.950 1_554 S
C652 C650 1.391 . S
C652 C653 1.400 . S
C653 C647 1.491 1_565 S
C653 C652 1.400 . S
C653 C654 1.398 . S
C654 H642 0.950 . S
C654 C653 1.398 . S
C654 C655 1.391 . S
C655 H643 0.950 . S
C655 C651 1.393 . S
C655 C654 1.391 . S
H656 C664 0.950 . S
H657 C669 0.950 . S
H658 C666 0.950 . S
H659 C668 0.950 . S
H660 C670 0.950 . S
H661 C672 0.950 . S
H662 C674 0.950 . S
H663 C675 0.950 . S
C664 H656 0.950 . S
C664 C665 1.386 . S
C664 C666 1.391 . S
C665 C664 1.386 . S
C665 C669 1.393 . S
C666 H658 0.950 . S
C666 C664 1.391 . S
C666 C667 1.400 . S
C667 C666 1.400 . S
C667 C668 1.398 . S
C667 C673 1.491 . S
C668 H659 0.950 . S
C668 C667 1.398 . S
C668 C669 1.391 . S
C669 H657 0.950 . S
C669 C665 1.393 . S
C669 C668 1.391 . S
C670 H660 0.950 . S
C670 C671 1.386 . S
C670 C672 1.391 . S
C671 C670 1.386 . S
C671 C675 1.393 . S
C672 H661 0.950 . S
C672 C670 1.391 . S
C672 C673 1.400 . S
C673 C667 1.491 . S
C673 C672 1.400 . S
C673 C674 1.398 . S
C674 H662 0.950 . S
C674 C673 1.398 . S
C674 C675 1.391 . S
C675 H663 0.950 . S
C675 C671 1.393 . S
C675 C674 1.391 . S
H676 C684 0.950 . S
H677 C689 0.950 . S
H678 C686 0.950 . S
H679 C688 0.950 . S
H680 C690 0.950 . S
H681 C692 0.950 . S
H682 C694 0.950 . S
H683 C695 0.950 . S
C684 H676 0.950 . S
C684 C685 1.386 . S
C684 C686 1.391 . S
C685 C684 1.386 . S
C685 C689 1.393 . S
C686 H678 0.950 . S
C686 C684 1.391 . S
C686 C687 1.400 . S
C687 C686 1.400 . S
C687 C688 1.398 . S
C687 C693 1.491 1_455 S
C688 H679 0.950 . S
C688 C687 1.398 . S
C688 C689 1.391 . S
C689 H677 0.950 . S
C689 C685 1.393 . S
C689 C688 1.391 . S
C690 H680 0.950 . S
C690 C691 1.386 . S
C690 C692 1.391 . S
C691 C690 1.386 . S
C691 C695 1.393 . S
C692 H681 0.950 . S
C692 C690 1.391 . S
C692 C693 1.400 . S
C693 C687 1.491 1_655 S
C693 C692 1.400 . S
C693 C694 1.398 . S
C694 H682 0.950 . S
C694 C693 1.398 . S
C694 C695 1.391 . S
C695 H683 0.950 . S
C695 C691 1.393 . S
C695 C694 1.391 . S
H696 C704 0.950 . S
H697 C709 0.950 . S
H698 C706 0.950 . S
H699 C708 0.950 . S
H700 C710 0.950 . S
H701 C712 0.950 . S
H702 C714 0.950 . S
H703 C715 0.950 . S
C704 H696 0.950 . S
C704 C705 1.386 . S
C704 C706 1.391 . S
C705 C704 1.386 . S
C705 C709 1.393 . S
C706 H698 0.950 . S
C706 C704 1.391 . S
C706 C707 1.400 . S
C707 C706 1.400 . S
C707 C708 1.398 . S
C707 C713 1.491 1_565 S
C708 H699 0.950 . S
C708 C707 1.398 . S
C708 C709 1.391 . S
C709 H697 0.950 . S
C709 C705 1.393 . S
C709 C708 1.391 . S
C710 H700 0.950 . S
C710 C711 1.386 . S
C710 C712 1.391 . S
C711 C710 1.386 . S
C711 C715 1.393 . S
C712 H701 0.950 . S
C712 C710 1.391 . S
C712 C713 1.400 . S
C713 C707 1.491 1_545 S
C713 C712 1.400 . S
C713 C714 1.398 . S
C714 H702 0.950 . S
C714 C713 1.398 . S
C714 C715 1.391 . S
C715 H703 0.950 . S
C715 C711 1.393 . S
C715 C714 1.391 . S
H716 C724 0.950 . S
H717 C729 0.950 . S
H718 C726 0.950 . S
H719 C728 0.950 . S
H720 C730 0.950 . S
H721 C732 0.950 . S
H722 C734 0.950 . S
H723 C735 0.950 . S
C724 H716 0.950 . S
C724 C725 1.386 . S
C724 C726 1.391 . S
C725 C724 1.386 . S
C725 C729 1.393 . S
C726 H718 0.950 . S
C726 C724 1.391 . S
C726 C727 1.400 . S
C727 C726 1.400 . S
C727 C728 1.398 . S
C727 C733 1.491 . S
C728 H719 0.950 . S
C728 C727 1.398 . S
C728 C729 1.391 . S
C729 H717 0.950 . S
C729 C725 1.393 . S
C729 C728 1.391 . S
C730 H720 0.950 . S
C730 C731 1.386 . S
C730 C732 1.391 . S
C731 C730 1.386 . S
C731 C735 1.393 . S
C732 H721 0.950 . S
C732 C730 1.391 . S
C732 C733 1.400 . S
C733 C727 1.491 . S
C733 C732 1.400 . S
C733 C734 1.398 . S
C734 H722 0.950 . S
C734 C733 1.398 . S
C734 C735 1.391 . S
C735 H723 0.950 . S
C735 C731 1.393 . S
C735 C734 1.391 . S
H736 C744 0.950 . S
H737 C749 0.950 . S
H738 C746 0.950 . S
H739 C748 0.950 . S
H740 C750 0.950 . S
H741 C752 0.950 . S
H742 C754 0.950 . S
H743 C755 0.950 . S
C744 H736 0.950 . S
C744 C745 1.386 . S
C744 C746 1.391 . S
C745 C744 1.386 . S
C745 C749 1.393 . S
C746 H738 0.950 . S
C746 C744 1.391 . S
C746 C747 1.400 . S
C747 C746 1.400 . S
C747 C748 1.398 . S
C747 C753 1.491 1_455 S
C748 H739 0.950 . S
C748 C747 1.398 . S
C748 C749 1.391 . S
C749 H737 0.950 . S
C749 C745 1.393 . S
C749 C748 1.391 . S
C750 H740 0.950 . S
C750 C751 1.386 . S
C750 C752 1.391 . S
C751 C750 1.386 . S
C751 C755 1.393 . S
C752 H741 0.950 . S
C752 C750 1.391 . S
C752 C753 1.400 . S
C753 C747 1.491 1_655 S
C753 C752 1.400 . S
C753 C754 1.398 . S
C754 H742 0.950 . S
C754 C753 1.398 . S
C754 C755 1.391 . S
C755 H743 0.950 . S
C755 C751 1.393 . S
C755 C754 1.391 . S
C285 C7 1.110 . S
C291 C237 1.113 . S
C305 C30 1.115 . S
C311 C260 1.115 . S
C325 C145 1.111 . S
C331 C53 1.111 . S
C345 C76 1.116 . S
C351 C168 1.108 . S
C365 C191 1.116 . S
C371 C99 1.108 . S
C385 C214 1.111 . S
C391 C122 1.111 1_554 S
C405 N196 1.738 . S
C411 N12 1.742 . S
C425 N35 1.745 . S
C431 N219 1.748 . S
C445 N242 1.744 . S
C451 N58 1.740 . S
C465 N81 1.749 . S
C471 N265 1.748 . S
C485 N104 1.733 . S
C491 N150 1.734 . S
C505 N127 1.734 . S
C511 N173 1.736 1_556 S
C525 C246 1.922 . S
C531 C16 1.919 . S
C545 C269 1.920 . S
C551 C39 1.922 . S
C565 C154 1.919 1_554 S
C571 C62 1.927 . S
C585 C85 1.919 . S
C591 C177 1.927 . S
C605 C108 1.926 . S
C611 C200 1.923 . S
C625 C223 1.927 . S
C631 C131 1.919 . S
C645 N2 1.697 . S
C651 N163 1.717 . S
C665 N186 1.716 . S
C671 N25 1.713 . S
C685 N209 1.701 . S
C691 N48 1.719 . S
C705 N71 1.700 . S
C711 N232 1.719 . S
C725 N94 1.719 . S
C731 N255 1.703 . S
C745 N117 1.692 . S
C751 N140 1.713 . S
