# Generated by pormake.
# Topology lcy-e, (6)-cn, num edge types: 1
# Building blocks:
#     Node 0, Type 0, BuildingBlock: CUWYAW_clean_sbu_0, # of connection points: 6
#     Node 1, Type 0, BuildingBlock: CUWYAW_clean_sbu_0, # of connection points: 6
#     Node 2, Type 0, BuildingBlock: CUWYAW_clean_sbu_0, # of connection points: 6
#     Node 3, Type 0, BuildingBlock: CUWYAW_clean_sbu_0, # of connection points: 6
#     Node 4, Type 0, BuildingBlock: CUWYAW_clean_sbu_0, # of connection points: 6
#     Node 5, Type 0, BuildingBlock: CUWYAW_clean_sbu_0, # of connection points: 6
#     Node 6, Type 0, BuildingBlock: CUWYAW_clean_sbu_0, # of connection points: 6
#     Node 7, Type 0, BuildingBlock: CUWYAW_clean_sbu_0, # of connection points: 6
#     Node 8, Type 0, BuildingBlock: CUWYAW_clean_sbu_0, # of connection points: 6
#     Node 9, Type 0, BuildingBlock: CUWYAW_clean_sbu_0, # of connection points: 6
#     Node 10, Type 0, BuildingBlock: CUWYAW_clean_sbu_0, # of connection points: 6
#     Node 11, Type 0, BuildingBlock: CUWYAW_clean_sbu_0, # of connection points: 6
#     Edge 12, Type (0, 0), BuildingBlock: EZIPEK_clean_linker_0, # of connection points: 2
#     Edge 13, Type (0, 0), BuildingBlock: EZIPEK_clean_linker_0, # of connection points: 2
#     Edge 14, Type (0, 0), BuildingBlock: EZIPEK_clean_linker_0, # of connection points: 2
#     Edge 15, Type (0, 0), BuildingBlock: EZIPEK_clean_linker_0, # of connection points: 2
#     Edge 16, Type (0, 0), BuildingBlock: EZIPEK_clean_linker_0, # of connection points: 2
#     Edge 17, Type (0, 0), BuildingBlock: EZIPEK_clean_linker_0, # of connection points: 2
#     Edge 18, Type (0, 0), BuildingBlock: EZIPEK_clean_linker_0, # of connection points: 2
#     Edge 19, Type (0, 0), BuildingBlock: EZIPEK_clean_linker_0, # of connection points: 2
#     Edge 20, Type (0, 0), BuildingBlock: EZIPEK_clean_linker_0, # of connection points: 2
#     Edge 21, Type (0, 0), BuildingBlock: EZIPEK_clean_linker_0, # of connection points: 2
#     Edge 22, Type (0, 0), BuildingBlock: EZIPEK_clean_linker_0, # of connection points: 2
#     Edge 23, Type (0, 0), BuildingBlock: EZIPEK_clean_linker_0, # of connection points: 2
#     Edge 24, Type (0, 0), BuildingBlock: EZIPEK_clean_linker_0, # of connection points: 2
#     Edge 25, Type (0, 0), BuildingBlock: EZIPEK_clean_linker_0, # of connection points: 2
#     Edge 26, Type (0, 0), BuildingBlock: EZIPEK_clean_linker_0, # of connection points: 2
#     Edge 27, Type (0, 0), BuildingBlock: EZIPEK_clean_linker_0, # of connection points: 2
#     Edge 28, Type (0, 0), BuildingBlock: EZIPEK_clean_linker_0, # of connection points: 2
#     Edge 29, Type (0, 0), BuildingBlock: EZIPEK_clean_linker_0, # of connection points: 2
#     Edge 30, Type (0, 0), BuildingBlock: EZIPEK_clean_linker_0, # of connection points: 2
#     Edge 31, Type (0, 0), BuildingBlock: EZIPEK_clean_linker_0, # of connection points: 2
#     Edge 32, Type (0, 0), BuildingBlock: EZIPEK_clean_linker_0, # of connection points: 2
#     Edge 33, Type (0, 0), BuildingBlock: EZIPEK_clean_linker_0, # of connection points: 2
#     Edge 34, Type (0, 0), BuildingBlock: EZIPEK_clean_linker_0, # of connection points: 2
#     Edge 35, Type (0, 0), BuildingBlock: EZIPEK_clean_linker_0, # of connection points: 2
#     Edge 36, Type (0, 0), BuildingBlock: EZIPEK_clean_linker_0, # of connection points: 2
#     Edge 37, Type (0, 0), BuildingBlock: EZIPEK_clean_linker_0, # of connection points: 2
#     Edge 38, Type (0, 0), BuildingBlock: EZIPEK_clean_linker_0, # of connection points: 2
#     Edge 39, Type (0, 0), BuildingBlock: EZIPEK_clean_linker_0, # of connection points: 2
#     Edge 40, Type (0, 0), BuildingBlock: EZIPEK_clean_linker_0, # of connection points: 2
#     Edge 41, Type (0, 0), BuildingBlock: EZIPEK_clean_linker_0, # of connection points: 2
#     Edge 42, Type (0, 0), BuildingBlock: EZIPEK_clean_linker_0, # of connection points: 2
#     Edge 43, Type (0, 0), BuildingBlock: EZIPEK_clean_linker_0, # of connection points: 2
#     Edge 44, Type (0, 0), BuildingBlock: EZIPEK_clean_linker_0, # of connection points: 2
#     Edge 45, Type (0, 0), BuildingBlock: EZIPEK_clean_linker_0, # of connection points: 2
#     Edge 46, Type (0, 0), BuildingBlock: EZIPEK_clean_linker_0, # of connection points: 2
#     Edge 47, Type (0, 0), BuildingBlock: EZIPEK_clean_linker_0, # of connection points: 2
# Relax obj value: 0.186
# Max RMSD: 0.295
# Mean RMSD: 0.280
data_MOF--net-lcy-e--node1-CUWYAW_clean_sbu_0--edge1-EZIPEK_clean_linker_0
_symmetry_space_group_name_H-M    P1
_symmetry_Int_Tables_number       1
_symmetry_cell_setting            triclinic
loop_
_symmetry_equiv_pos_as_xyz
'x, y, z'
_cell_length_a     32.90713
_cell_length_b     35.270601
_cell_length_c     35.19718
_cell_angle_alpha  91.528344
_cell_angle_beta   89.893735
_cell_angle_gamma 88.50774
loop_
_atom_site_label
_atom_site_type_symbol
_atom_site_fract_x
_atom_site_fract_y
_atom_site_fract_z
_atom_type_partial_charge
C0 C 0.11534 0.36401 0.45521 0.0
Eu1 Eu 0.12135 0.32193 0.51508 0.0
C2 C 0.14051 0.37684 0.42307 0.0
C3 C 0.16553 0.35125 0.40155 0.0
C4 C 0.18544 0.36307 0.36875 0.0
C5 C 0.18087 0.40067 0.35694 0.0
C6 C 0.15697 0.42647 0.37903 0.0
C7 C 0.13691 0.41464 0.41169 0.0
C8 C 0.08786 0.32907 0.58749 0.0
C9 C 0.20124 0.34277 0.5639 0.0
C10 C 0.14804 0.22346 0.63701 0.0
Eu11 Eu 0.15258 0.26357 0.57624 0.0
C12 C 0.13455 0.18449 0.64454 0.0
C13 C 0.15083 0.16438 0.67512 0.0
C14 C 0.1355 0.129 0.68442 0.0
C15 C 0.10356 0.11319 0.66333 0.0
C16 C 0.08799 0.13278 0.63215 0.0
C17 C 0.10343 0.16798 0.62275 0.0
C18 C 0.19074 0.24511 0.50938 0.0
C19 C 0.07376 0.24438 0.51998 0.0
O20 O 0.10713 0.32788 0.4553 0.0
O21 O 0.12247 0.37803 0.48936 0.0
O22 O 0.0685 0.33918 0.55691 0.0
O23 O 0.12332 0.31962 0.57748 0.0
O24 O 0.18209 0.34516 0.53104 0.0
O25 O 0.19257 0.31546 0.58822 0.0
O26 O 0.1193 0.24727 0.62622 0.0
O27 O 0.1821 0.22685 0.61795 0.0
O28 O 0.19706 0.22767 0.5409 0.0
O29 O 0.1646 0.27201 0.51498 0.0
O30 O 0.09696 0.23524 0.54936 0.0
O31 O 0.07849 0.27567 0.50119 0.0
H32 H 0.16903 0.32192 0.40958 0.0
H33 H 0.20392 0.34277 0.35226 0.0
H34 H 0.1532 0.45565 0.37054 0.0
H35 H 0.11777 0.43488 0.4276 0.0
H36 H 0.17466 0.17649 0.69242 0.0
H37 H 0.14769 0.11446 0.70878 0.0
H38 H 0.06317 0.12126 0.61571 0.0
H39 H 0.09016 0.18273 0.59907 0.0
C40 C 0.11104 0.93982 0.84876 0.0
Eu41 Eu 0.04916 0.93188 0.80319 0.0
C42 C 0.14265 0.91571 0.8666 0.0
C43 C 0.15288 0.92263 0.90477 0.0
C44 C 0.18441 0.90178 0.92161 0.0
C45 C 0.20622 0.87362 0.90057 0.0
C46 C 0.1955 0.86599 0.86262 0.0
C47 C 0.16414 0.88708 0.84566 0.0
C48 C 0.97454 0.96923 0.80619 0.0
C49 C 0.99436 0.86429 0.83087 0.0
C50 C 0.93019 0.89214 0.69835 0.0
Eu51 Eu 0.98749 0.90204 0.74891 0.0
C52 C 0.9149 0.91113 0.66394 0.0
C53 C 0.87388 0.90804 0.65381 0.0
C54 C 0.85912 0.92404 0.62036 0.0
C55 C 0.8851 0.94353 0.59638 0.0
C56 C 0.9261 0.94713 0.60671 0.0
C57 C 0.94086 0.93119 0.6403 0.0
C58 C 0.05628 0.85819 0.7509 0.0
C59 C 0.04155 0.97722 0.72818 0.0
O60 O 0.11316 0.94266 0.81188 0.0
O61 O 0.07368 0.93706 0.86094 0.0
O62 O 1.00889 0.98554 0.81277 0.0
O63 O 0.98147 0.93438 0.80219 0.0
O64 O 0.03116 0.87795 0.83091 0.0
O65 O 0.96819 0.87281 0.8034 0.0
O66 O 0.92412 0.90992 0.73101 0.0
O67 O 0.96631 0.87598 0.69597 0.0
O68 O 0.01982 0.84539 0.74828 0.0
O69 O 0.05525 0.89427 0.75107 0.0
O70 O 1.00899 0.95678 0.72104 0.0
O71 O 0.0653 0.97041 0.75708 0.0
H72 H 0.13688 0.94461 0.92139 0.0
H73 H 0.19216 0.9079 0.95101 0.0
H74 H 0.21183 0.84419 0.84604 0.0
H75 H 0.15714 0.88136 0.81605 0.0
H76 H 0.85332 0.89273 0.67153 0.0
H77 H 0.82745 0.92084 0.6129 0.0
H78 H 0.94669 0.96193 0.58857 0.0
H79 H 0.97264 0.93406 0.64751 0.0
C80 C 0.41419 0.71058 0.94287 0.0
Eu81 Eu 0.39605 0.74634 1.00689 0.0
C82 C 0.39565 0.69211 0.90917 0.0
C83 C 0.41764 0.66319 0.88949 0.0
C84 C 0.40254 0.64723 0.85572 0.0
C85 C 0.3652 0.66003 0.84091 0.0
C86 C 0.34284 0.68874 0.86073 0.0
C87 C 0.35799 0.70474 0.89463 0.0
C88 C 0.42576 0.73679 0.07883 0.0
C89 C 0.32561 0.72325 0.05825 0.0
C90 C 0.35482 0.85576 0.11903 0.0
Eu91 Eu 0.36945 0.80758 0.06236 0.0
C92 C 0.36207 0.8962 0.12737 0.0
C93 C 0.37794 0.91945 0.09937 0.0
C94 C 0.39493 0.95435 0.10964 0.0
C95 C 0.3968 0.96608 0.14806 0.0
C96 C 0.37915 0.94369 0.1757 0.0
C97 C 0.36194 0.90905 0.16543 0.0
C98 C 0.33662 0.81515 0.99211 0.0
C99 C 0.44775 0.82367 1.01134 0.0
O100 O 0.40872 0.74737 0.94643 0.0
O101 O 0.41232 0.69351 0.97542 0.0
O102 O 0.41789 0.70924 0.05493 0.0
O103 O 0.4224 0.76802 0.0621 0.0
O104 O 0.33795 0.72045 0.02278 0.0
O105 O 0.33555 0.75334 0.07963 0.0
O106 O 0.38832 0.83578 0.11459 0.0
O107 O 0.32726 0.84648 0.09387 0.0
O108 O 0.35019 0.84284 1.01283 0.0
O109 O 0.34119 0.78446 1.00937 0.0
O110 O 0.42471 0.83628 0.03977 0.0
O111 O 0.44216 0.79056 0.99445 0.0
H112 H 0.44684 0.65324 0.9 0.0
H113 H 0.42 0.62484 0.84106 0.0
H114 H 0.31374 0.69865 0.84999 0.0
H115 H 0.34054 0.72717 0.90925 0.0
H116 H 0.37927 0.90964 0.06995 0.0
H117 H 0.40837 0.97128 0.08793 0.0
H118 H 0.3802 0.95233 0.20544 0.0
H119 H 0.35074 0.89122 0.18754 0.0
C120 C 0.41664 0.12649 0.35252 0.0
Eu121 Eu 0.47699 0.13207 0.30421 0.0
C122 C 0.38322 0.15002 0.3707 0.0
C123 C 0.37806 0.1497 0.41034 0.0
C124 C 0.34475 0.16872 0.42791 0.0
C125 C 0.31566 0.18839 0.40627 0.0
C126 C 0.32106 0.18948 0.36669 0.0
C127 C 0.35453 0.17056 0.34907 0.0
C128 C 0.55436 0.09621 0.30432 0.0
C129 C 0.53011 0.19924 0.33166 0.0
C130 C 0.59561 0.15917 0.1971 0.0
Eu131 Eu 0.53707 0.15994 0.24772 0.0
C132 C 0.6027 0.15083 0.15611 0.0
C133 C 0.64073 0.15837 0.14034 0.0
C134 C 0.65073 0.14557 0.10339 0.0
C135 C 0.62296 0.12479 0.08149 0.0
C136 C 0.58424 0.11839 0.09667 0.0
C137 C 0.57424 0.13119 0.13378 0.0
C138 C 0.46874 0.20344 0.24939 0.0
C139 C 0.47483 0.09039 0.2242 0.0
O140 O 0.41391 0.11911 0.31606 0.0
O141 O 0.45402 0.13273 0.36301 0.0
O142 O 0.52053 0.0799 0.31277 0.0
O143 O 0.54495 0.13041 0.30046 0.0
O144 O 0.49224 0.18902 0.329 0.0
O145 O 0.55665 0.18792 0.30488 0.0
O146 O 0.5861 0.12996 0.21706 0.0
O147 O 0.5747 0.18998 0.20718 0.0
O148 O 0.50499 0.21584 0.24366 0.0
O149 O 0.46947 0.16733 0.25169 0.0
O150 O 0.50551 0.11185 0.21476 0.0
O151 O 0.45697 0.09368 0.25741 0.0
H152 H 0.39942 0.13403 0.42773 0.0
H153 H 0.34126 0.16751 0.45846 0.0
H154 H 0.29911 0.20456 0.34942 0.0
H155 H 0.35751 0.17146 0.31846 0.0
H156 H 0.66329 0.17308 0.15711 0.0
H157 H 0.68065 0.15102 0.09219 0.0
H158 H 0.56227 0.10265 0.0802 0.0
H159 H 0.54481 0.12473 0.14544 0.0
C160 C 0.66372 0.37279 0.47438 0.0
Eu161 Eu 0.65564 0.30587 0.50248 0.0
C162 C 0.63911 0.40392 0.45775 0.0
C163 C 0.63749 0.43963 0.47648 0.0
C164 C 0.61777 0.47059 0.45985 0.0
C165 C 0.59959 0.46646 0.42402 0.0
C166 C 0.59978 0.43054 0.40581 0.0
C167 C 0.61933 0.39945 0.42255 0.0
C168 C 0.68831 0.23548 0.48506 0.0
C169 C 0.58459 0.25256 0.47895 0.0
C170 C 0.64261 0.17438 0.59343 0.0
Eu171 Eu 0.63512 0.23825 0.55814 0.0
C172 C 0.654 0.16404 0.63238 0.0
C173 C 0.65571 0.19181 0.6617 0.0
C174 C 0.66909 0.18207 0.69805 0.0
C175 C 0.68111 0.14449 0.70544 0.0
C176 C 0.67939 0.11681 0.67611 0.0
C177 C 0.66594 0.12653 0.63984 0.0
C178 C 0.5864 0.29966 0.57554 0.0
C179 C 0.70657 0.2973 0.5807 0.0
O180 O 0.65845 0.36715 0.51068 0.0
O181 O 0.66891 0.34114 0.45432 0.0
O182 O 0.68129 0.26099 0.45963 0.0
O183 O 0.68248 0.25069 0.51734 0.0
O184 O 0.59567 0.28815 0.48108 0.0
O185 O 0.60083 0.22672 0.50207 0.0
O186 O 0.67172 0.18876 0.57352 0.0
O187 O 0.6077 0.19253 0.58921 0.0
O188 O 0.58606 0.26836 0.59406 0.0
O189 O 0.6131 0.29676 0.54968 0.0
O190 O 0.68221 0.27055 0.59258 0.0
O191 O 0.70402 0.3122 0.54673 0.0
H192 H 0.65255 0.44388 0.50355 0.0
H193 H 0.61807 0.49813 0.47421 0.0
H194 H 0.58602 0.4269 0.37806 0.0
H195 H 0.61988 0.37228 0.40745 0.0
H196 H 0.64717 0.22106 0.65634 0.0
H197 H 0.67037 0.20381 0.7203 0.0
H198 H 0.68865 0.0877 0.68129 0.0
H199 H 0.66535 0.10484 0.61747 0.0
C200 C 0.07585 0.37282 0.88498 0.0
Eu201 Eu 0.04027 0.38938 0.82083 0.0
C202 C 0.09661 0.3921 0.91691 0.0
C203 C 0.11177 0.37076 0.94683 0.0
C204 C 0.13233 0.38827 0.97703 0.0
C205 C 0.14106 0.42747 0.9772 0.0
C206 C 0.11991 0.4491 0.94965 0.0
C207 C 0.09929 0.43161 0.91929 0.0
C208 C 0.04981 0.34978 0.75131 0.0
C209 C 0.07469 0.4523 0.77077 0.0
C210 C 0.94215 0.42885 0.70154 0.0
Eu211 Eu 0.9848 0.41492 0.7619 0.0
C212 C 0.90727 0.40812 0.68595 0.0
C213 C 0.87807 0.39351 0.71052 0.0
C214 C 0.84537 0.37333 0.69598 0.0
C215 C 0.84166 0.36687 0.65672 0.0
C216 C 0.87124 0.3806 0.63213 0.0
C217 C 0.90386 0.40114 0.64668 0.0
C218 C 0.97383 0.45522 0.8289 0.0
C219 C 0.95394 0.34946 0.816 0.0
O220 O 0.03694 0.3803 0.88173 0.0
O221 O 0.09453 0.37142 0.8521 0.0
O222 O 0.07862 0.3584 0.77485 0.0
O223 O 0.01697 0.36033 0.76733 0.0
O224 O 0.07391 0.4409 0.80591 0.0
O225 O 0.0457 0.44241 0.74645 0.0
O226 O 0.97718 0.41064 0.70019 0.0
O227 O 0.93603 0.44657 0.73416 0.0
O228 O 0.94497 0.4419 0.80794 0.0
O229 O 1.00777 0.44549 0.81404 0.0
O230 O 0.95035 0.36348 0.78166 0.0
O231 O 0.98355 0.35988 0.83852 0.0
H232 H 0.10748 0.3404 0.94704 0.0
H233 H 0.14104 0.37044 1.00027 0.0
H234 H 0.1178 0.4796 0.95119 0.0
H235 H 0.085 0.44901 0.89791 0.0
H236 H 0.88039 0.39782 0.74102 0.0
H237 H 0.82275 0.36301 0.71528 0.0
H238 H 0.86863 0.37595 0.6017 0.0
H239 H 0.92634 0.41161 0.62733 0.0
C240 C 0.86774 0.69929 0.95604 0.0
Eu241 Eu 0.8841 0.75983 0.99759 0.0
C242 C 0.88878 0.66603 0.937 0.0
C243 C 0.86928 0.6465 0.9072 0.0
C244 C 0.88661 0.61301 0.89104 0.0
C245 C 0.92384 0.59815 0.90436 0.0
C246 C 0.94387 0.61806 0.93371 0.0
C247 C 0.92647 0.65164 0.94993 0.0
C248 C 0.85402 0.83397 0.99563 0.0
C249 C 0.95935 0.80651 0.97844 0.0
C250 C 0.92555 0.86368 0.11326 0.0
Eu251 Eu 0.91098 0.8102 0.06214 0.0
C252 C 0.91034 0.87261 0.15221 0.0
C253 C 0.9213 0.90645 0.17091 0.0
C254 C 0.90227 0.91819 0.2051 0.0
C255 C 0.87173 0.89641 0.22103 0.0
C256 C 0.86167 0.86191 0.20299 0.0
C257 C 0.88091 0.85005 0.16893 0.0
C258 C 0.94353 0.73864 0.06472 0.0
C259 C 0.83272 0.75954 0.07671 0.0
O260 O 0.86841 0.70034 0.9932 0.0
O261 O 0.87217 0.73287 0.94175 0.0
O262 O 0.86117 0.81244 0.96567 0.0
O263 O 0.85779 0.81378 0.02458 0.0
O264 O 0.94411 0.77284 0.97316 0.0
O265 O 0.94967 0.8269 1.00972 0.0
O266 O 0.89808 0.86654 0.08685 0.0
O267 O 0.94883 0.83335 0.10814 0.0
O268 O 0.92934 0.75799 0.09378 0.0
O269 O 0.93898 0.75779 0.03505 0.0
O270 O 0.85413 0.78824 0.08946 0.0
O271 O 0.83982 0.74327 0.04317 0.0
H272 H 0.84014 0.65678 0.89687 0.0
H273 H 0.87067 0.59837 0.86834 0.0
H274 H 0.97272 0.60737 0.94431 0.0
H275 H 0.94212 0.66601 0.97299 0.0
H276 H 0.94351 0.92452 0.15836 0.0
H277 H 0.91027 0.94501 0.21842 0.0
H278 H 0.83806 0.84479 0.21466 0.0
H279 H 0.87171 0.82397 0.15492 0.0
C280 C 0.61215 0.62362 0.21298 0.0
Eu281 Eu 0.54793 0.63312 0.25622 0.0
C282 C 0.6412 0.64673 0.19226 0.0
C283 C 0.67197 0.62848 0.17042 0.0
C284 C 0.70155 0.64958 0.1525 0.0
C285 C 0.70082 0.68932 0.15609 0.0
C286 C 0.6697 0.70773 0.17755 0.0
C287 C 0.64007 0.68656 0.19556 0.0
C288 C 0.47147 0.60043 0.25505 0.0
C289 C 0.49099 0.70016 0.22802 0.0
C290 C 0.41649 0.66283 0.35695 0.0
Eu291 Eu 0.48087 0.66654 0.3142 0.0
C292 C 0.40761 0.65611 0.39724 0.0
C293 C 0.43908 0.6463 0.42241 0.0
C294 C 0.43011 0.63128 0.45786 0.0
C295 C 0.38957 0.62583 0.46853 0.0
C296 C 0.35816 0.63714 0.44403 0.0
C297 C 0.36712 0.65212 0.40864 0.0
C298 C 0.5502 0.705 0.32636 0.0
C299 C 0.54271 0.59404 0.33619 0.0
O300 O 0.61353 0.62661 0.25014 0.0
O301 O 0.57492 0.62244 0.19996 0.0
O302 O 0.50522 0.58255 0.245 0.0
O303 O 0.48069 0.63425 0.26071 0.0
O304 O 0.52863 0.68661 0.2281 0.0
O305 O 0.4659 0.69587 0.25743 0.0
O306 O 0.43371 0.63346 0.33923 0.0
O307 O 0.43231 0.69529 0.34777 0.0
O308 O 0.51628 0.71225 0.34432 0.0
O309 O 0.54531 0.67772 0.30252 0.0
O310 O 0.51167 0.61728 0.34525 0.0
O311 O 0.56292 0.59583 0.30415 0.0
H312 H 0.67349 0.5978 0.1677 0.0
H313 H 0.72531 0.63488 0.13612 0.0
H314 H 0.6687 0.73837 0.18069 0.0
H315 H 0.61669 0.70117 0.2125 0.0
H316 H 0.47056 0.64841 0.41383 0.0
H317 H 0.45474 0.62254 0.47631 0.0
H318 H 0.32672 0.63301 0.45173 0.0
H319 H 0.34246 0.65875 0.38936 0.0
C320 C 0.17258 0.59061 0.18232 0.0
Eu321 Eu 0.23598 0.54446 0.17581 0.0
C322 C 0.14154 0.60978 0.15845 0.0
C323 C 0.13032 0.64776 0.16674 0.0
C324 C 0.09862 0.66558 0.1469 0.0
C325 C 0.07747 0.64576 0.11832 0.0
C326 C 0.08931 0.60805 0.10922 0.0
C327 C 0.12087 0.59011 0.12928 0.0
C328 C 0.30944 0.54673 0.21407 0.0
C329 C 0.29408 0.57235 0.11009 0.0
C330 C 0.35702 0.43746 0.1383 0.0
Eu331 Eu 0.29991 0.48995 0.14705 0.0
C332 C 0.36667 0.40096 0.15655 0.0
C333 C 0.4068 0.38658 0.15644 0.0
C334 C 0.41629 0.3517 0.17285 0.0
C335 C 0.38582 0.33056 0.18977 0.0
C336 C 0.34561 0.34496 0.19004 0.0
C337 C 0.33612 0.37996 0.17369 0.0
C338 C 0.23351 0.49198 0.1021 0.0
C339 C 0.24304 0.46978 0.22185 0.0
O340 O 0.17098 0.55373 0.1841 0.0
O341 O 0.20992 0.60238 0.18089 0.0
O342 O 0.27424 0.55409 0.2299 0.0
O343 O 0.30382 0.54296 0.17916 0.0
O344 O 0.25613 0.57174 0.12195 0.0
O345 O 0.32024 0.5446 0.1192 0.0
O346 O 0.36142 0.46828 0.15915 0.0
O347 O 0.32387 0.43878 0.11798 0.0
O348 O 0.27074 0.49072 0.09009 0.0
O349 O 0.23242 0.49204 0.1383 0.0
O350 O 0.27627 0.46217 0.20135 0.0
O351 O 0.21919 0.49906 0.21505 0.0
H352 H 0.14554 0.66347 0.18918 0.0
H353 H 0.09014 0.69475 0.15423 0.0
H354 H 0.07359 0.59232 0.08713 0.0
H355 H 0.12852 0.56068 0.12247 0.0
H356 H 0.43081 0.40224 0.14342 0.0
H357 H 0.44747 0.34103 0.1722 0.0
H358 H 0.32163 0.32906 0.20278 0.0
H359 H 0.30489 0.39045 0.17415 0.0
C360 C 0.67252 0.95564 0.87888 0.0
Eu361 Eu 0.73163 1.00246 0.89045 0.0
C362 C 0.64242 0.93518 0.90089 0.0
C363 C 0.60967 0.91845 0.88202 0.0
C364 C 0.57927 0.90107 0.90264 0.0
C365 C 0.58117 0.90029 0.94246 0.0
C366 C 0.61413 0.91675 0.96137 0.0
C367 C 0.64458 0.93402 0.94064 0.0
C368 C 0.80946 1.00294 0.8605 0.0
C369 C 0.78329 0.98241 0.96543 0.0
C370 C 0.85324 0.10925 0.92198 0.0
Eu371 Eu 0.79114 0.06484 0.92286 0.0
C372 C 0.86094 0.14932 0.91369 0.0
C373 C 0.83071 0.17243 0.89708 0.0
C374 C 0.84054 0.20756 0.8821 0.0
C375 C 0.88073 0.22004 0.88351 0.0
C376 C 0.91046 0.19764 0.90159 0.0
C377 C 0.90065 0.16259 0.91651 0.0
C378 C 0.71655 0.07872 0.9542 0.0
C379 C 0.7355 0.07985 0.84598 0.0
O380 O 0.66773 0.99262 0.87935 0.0
O381 O 0.71071 0.9446 0.88187 0.0
O382 O 0.77777 0.99119 0.84188 0.0
O383 O 0.79809 1.0095 0.89405 0.0
O384 O 0.74974 0.97685 0.94579 0.0
O385 O 0.80543 1.0131 0.9601 0.0
O386 O 0.84117 0.08908 0.89252 0.0
O387 O 0.83365 0.10164 0.9534 0.0
O388 O 0.7483 0.09866 0.96156 0.0
O389 O 0.7261 0.0523 0.93036 0.0
O390 O 0.76508 0.0907 0.86895 0.0
O391 O 0.71572 0.04835 0.85038 0.0
H392 H 0.60734 0.91929 0.85135 0.0
H393 H 0.55403 0.88853 0.8876 0.0
H394 H 0.61607 0.91646 0.99208 0.0
H395 H 0.66951 0.94687 0.95556 0.0
H396 H 0.79998 0.16249 0.89406 0.0
H397 H 0.81724 0.22422 0.868 0.0
H398 H 0.94168 0.20661 0.90273 0.0
H399 H 0.92455 0.14501 0.9286 0.0
C400 C 0.84719 0.09682 0.39647 0.0
Eu401 Eu 0.78825 0.04812 0.39759 0.0
C402 C 0.87762 0.11526 0.42196 0.0
C403 C 0.91506 0.09675 0.42983 0.0
C404 C 0.94592 0.11577 0.44937 0.0
C405 C 0.9402 0.15376 0.46153 0.0
C406 C 0.90243 0.17196 0.45506 0.0
C407 C 0.87151 0.15296 0.43541 0.0
C408 C 0.71692 0.04633 0.35566 0.0
C409 C 0.72298 0.07501 0.45957 0.0
C410 C 0.67469 0.9379 0.42881 0.0
Eu411 Eu 0.72855 0.99084 0.42223 0.0
C412 C 0.66415 0.90156 0.40976 0.0
C413 C 0.63594 0.87829 0.42697 0.0
C414 C 0.6246 0.84417 0.40923 0.0
C415 C 0.64131 0.8326 0.37392 0.0
C416 C 0.67034 0.85544 0.35699 0.0
C417 C 0.68157 0.88976 0.37472 0.0
C418 C 0.79302 0.99755 0.46978 0.0
C419 C 0.79205 0.97087 0.35082 0.0
O420 O 0.85208 0.06046 0.38925 0.0
O421 O 0.8088 0.10696 0.39999 0.0
O422 O 0.75198 0.05581 0.34213 0.0
O423 O 0.72114 0.04277 0.39063 0.0
O424 O 0.762 0.07476 0.45137 0.0
O425 O 0.70079 0.04576 0.44859 0.0
O426 O 0.66848 0.96875 0.40967 0.0
O427 O 0.70895 0.93832 0.44743 0.0
O428 O 0.75569 0.99392 0.48063 0.0
O429 O 0.79503 0.99693 0.4337 0.0
O430 O 0.75807 0.96261 0.3688 0.0
O431 O 0.81227 1.00142 0.35942 0.0
H432 H 0.92118 0.06789 0.41974 0.0
H433 H 0.97488 0.10126 0.45379 0.0
H434 H 0.89746 0.20136 0.46392 0.0
H435 H 0.84332 0.16823 0.42959 0.0
H436 H 0.62226 0.88674 0.45402 0.0
H437 H 0.60217 0.82705 0.42277 0.0
H438 H 0.68355 0.8471 0.32973 0.0
H439 H 0.70344 0.90722 0.36092 0.0
C440 C 0.19686 0.62659 0.64282 0.0
Eu441 Eu 0.24284 0.56577 0.64993 0.0
C442 C 0.18232 0.66126 0.66427 0.0
C443 C 0.14128 0.6654 0.67515 0.0
C444 C 0.12621 0.69975 0.69122 0.0
C445 C 0.1518 0.73069 0.69646 0.0
C446 C 0.19296 0.72649 0.68647 0.0
C447 C 0.20813 0.69211 0.67063 0.0
C448 C 0.23905 0.49541 0.61328 0.0
C449 C 0.2227 0.51759 0.72334 0.0
C450 C 0.35113 0.44484 0.68467 0.0
Eu451 Eu 0.30752 0.5062 0.67353 0.0
C452 C 0.3913 0.43042 0.67157 0.0
C453 C 0.41858 0.45426 0.65359 0.0
C454 C 0.45445 0.43914 0.63699 0.0
C455 C 0.46315 0.39998 0.63787 0.0
C456 C 0.4363 0.37642 0.65658 0.0
C457 C 0.40065 0.39152 0.67329 0.0
C458 C 0.31999 0.57773 0.70313 0.0
C459 C 0.32526 0.55747 0.60213 0.0
O460 O 0.23555 0.62447 0.63405 0.0
O461 O 0.18241 0.59368 0.65182 0.0
O462 O 0.22671 0.52685 0.59806 0.0
O463 O 0.24845 0.50361 0.6467 0.0
O464 O 0.2144 0.54874 0.70454 0.0
O465 O 0.25522 0.49569 0.71469 0.0
O466 O 0.32394 0.44786 0.65777 0.0
O467 O 0.35024 0.47401 0.70856 0.0
O468 O 0.34847 0.55434 0.69071 0.0
O469 O 0.2863 0.56203 0.69845 0.0
O470 O 0.33066 0.52323 0.61586 0.0
O471 O 0.29815 0.58165 0.61694 0.0
H472 H 0.12055 0.64243 0.67024 0.0
H473 H 0.09427 0.70257 0.69857 0.0
H474 H 0.21312 0.7501 0.69017 0.0
H475 H 0.23985 0.69017 0.66238 0.0
H476 H 0.41154 0.48431 0.65148 0.0
H477 H 0.4748 0.45769 0.62257 0.0
H478 H 0.44255 0.34614 0.65749 0.0
H479 H 0.37976 0.37264 0.68659 0.0
C480 C 0.22996 0.38722 0.61424 0.0
C481 C 0.22559 0.37714 0.57556 0.0
C482 C 0.23762 0.44414 0.55965 0.0
C483 C 0.23325 0.455 0.59884 0.0
N484 N 0.21256 0.43527 0.66125 0.0
N485 N 0.24385 0.39283 0.51192 0.0
C486 C 0.22663 0.42606 0.62566 0.0
C487 C 0.23482 0.40485 0.54824 0.0
N488 N 0.23817 0.35997 0.64008 0.0
N489 N 0.24312 0.47119 0.53318 0.0
H490 H 0.24588 0.36411 0.50424 0.0
H491 H 0.25363 0.41023 0.49054 0.0
H492 H 0.24742 0.49962 0.54005 0.0
H493 H 0.2416 0.46611 0.50399 0.0
H494 H 0.2444 0.36642 0.66854 0.0
H495 H 0.24448 0.33181 0.63182 0.0
H496 H 0.20653 0.415 0.68129 0.0
H497 H 0.20037 0.46205 0.66836 0.0
C498 C 0.8872 1.00144 0.87197 0.0
C499 C 0.85335 1.00222 0.84624 0.0
C500 C 0.90221 0.99099 0.79311 0.0
C501 C 0.93402 0.98432 0.81956 0.0
N502 N 0.95612 0.97947 0.88449 0.0
N503 N 0.83085 1.00501 0.78101 0.0
C504 C 0.92635 0.98879 0.85897 0.0
C505 C 0.86165 0.99927 0.80639 0.0
N506 N 0.88326 1.0148 0.90852 0.0
N507 N 0.91111 0.99027 0.75515 0.0
H508 H 0.80346 1.0187 0.78841 0.0
H509 H 0.83239 0.99708 0.75237 0.0
H510 H 0.93975 0.9826 0.74455 0.0
H511 H 0.89111 0.99869 0.73397 0.0
H512 H 0.90758 1.0184 0.92702 0.0
H513 H 0.85747 0.02848 0.91887 0.0
H514 H 0.95079 0.97687 0.91346 0.0
H515 H 0.98543 0.97048 0.87668 0.0
C516 C 0.3288 0.67307 0.10828 0.0
C517 C 0.31011 0.68732 0.07507 0.0
C518 C 0.28328 0.62333 0.06197 0.0
C519 C 0.30671 0.60858 0.09247 0.0
N520 N 0.36052 0.61895 0.13795 0.0
N521 N 0.2667 0.67632 0.02121 0.0
C522 C 0.3325 0.63321 0.11323 0.0
C523 C 0.28645 0.66236 0.05218 0.0
N524 N 0.34046 0.69745 0.13667 0.0
N525 N 0.25786 0.59977 0.04249 0.0
H526 H 0.26446 0.70534 1.01619 0.0
H527 H 0.253 0.6595 1.00043 0.0
H528 H 0.25809 0.57055 0.0465 0.0
H529 H 0.23616 0.60893 0.02309 0.0
H530 H 0.35338 0.6886 0.16203 0.0
H531 H 0.33046 0.72565 0.13782 0.0
H532 H 0.38261 0.63561 0.15081 0.0
H533 H 0.36484 0.59011 0.14242 0.0
C534 C 0.60715 0.04222 0.31704 0.0
C535 C 0.59788 0.08151 0.3116 0.0
C536 C 0.66668 0.09664 0.33501 0.0
C537 C 0.67657 0.05781 0.33908 0.0
N538 N 0.65832 0.99272 0.32926 0.0
N539 N 0.62926 0.14148 0.29844 0.0
C540 C 0.64729 0.0303 0.32884 0.0
C541 C 0.63052 0.10746 0.31578 0.0
N542 N 0.57811 1.01601 0.30995 0.0
N543 N 0.69142 0.12375 0.35 0.0
H544 H 0.60789 0.14794 0.27808 0.0
H545 H 0.65344 0.16001 0.29863 0.0
H546 H 0.71808 0.11744 0.36478 0.0
H547 H 0.68317 0.1525 0.35114 0.0
H548 H 0.58019 0.98815 0.3189 0.0
H549 H 0.55177 0.02204 0.29468 0.0
H550 H 0.64055 0.97097 0.3185 0.0
H551 H 0.68676 0.98326 0.33851 0.0
C552 C 0.72423 0.17406 0.50175 0.0
C553 C 0.69548 0.19341 0.47848 0.0
C554 C 0.67459 0.13148 0.45123 0.0
C555 C 0.70495 0.11263 0.473 0.0
N556 N 0.74954 0.11428 0.52669 0.0
N557 N 0.64808 0.19021 0.42588 0.0
C558 C 0.72687 0.1336 0.50067 0.0
C559 C 0.67192 0.17207 0.45184 0.0
N560 N 0.75141 0.19451 0.52271 0.0
N561 N 0.64687 0.11078 0.43128 0.0
H562 H 0.64331 0.21936 0.42538 0.0
H563 H 0.63525 0.1766 0.40239 0.0
H564 H 0.64551 0.08144 0.43199 0.0
H565 H 0.6217 0.12262 0.41774 0.0
H566 H 0.77575 0.18239 0.53729 0.0
H567 H 0.75243 0.22402 0.52246 0.0
H568 H 0.76325 0.12709 0.55018 0.0
H569 H 0.75095 0.08467 0.52688 0.0
C570 C 0.1168 0.51091 0.76526 0.0
C571 C 0.11222 0.47137 0.75857 0.0
C572 C 0.18605 0.46373 0.75172 0.0
C573 C 0.18947 0.50322 0.74814 0.0
N574 N 0.16068 0.56541 0.76245 0.0
N575 N 0.14261 0.41102 0.73985 0.0
C576 C 0.15547 0.52724 0.75842 0.0
C577 C 0.147 0.44807 0.7503 0.0
N578 N 0.08452 0.53243 0.7787 0.0
N579 N 0.21972 0.44137 0.75785 0.0
H580 H 0.11413 0.40055 0.7336 0.0
H581 H 0.16696 0.39281 0.73253 0.0
H582 H 0.24797 0.45288 0.76378 0.0
H583 H 0.21829 0.41243 0.7628 0.0
H584 H 0.08617 0.56078 0.7873 0.0
H585 H 0.0559 0.52116 0.7827 0.0
H586 H 0.13696 0.58538 0.7653 0.0
H587 H 0.18958 0.57695 0.76339 0.0
C588 C 0.77473 0.91634 0.99064 0.0
C589 C 0.79977 0.94838 0.9868 0.0
C590 C 0.85837 0.90673 1.00177 0.0
C591 C 0.83479 0.87368 0.99522 0.0
N592 N 0.7687 0.84819 0.98295 0.0
N593 N 0.86566 0.97468 0.99818 0.0
C594 C 0.79236 0.87886 0.98964 0.0
C595 C 0.84163 0.94378 0.99537 0.0
N596 N 0.73425 0.922 0.99768 0.0
N597 N 0.8963 0.90306 1.01631 0.0
H598 H 0.85398 1.00182 1.00461 0.0
H599 H 0.89723 0.97303 0.99575 0.0
H600 H 0.90862 0.87682 0.02195 0.0
H601 H 0.91359 0.92552 0.02627 0.0
H602 H 0.71471 0.9001 1.0035 0.0
H603 H 0.7218 0.94919 1.00282 0.0
H604 H 0.73827 0.85069 0.97498 0.0
H605 H 0.78028 0.82038 0.98259 0.0
C606 C 0.39377 0.61179 0.24745 0.0
C607 C 0.428 0.58603 0.25126 0.0
C608 C 0.38079 0.53327 0.23889 0.0
C609 C 0.34927 0.55977 0.22944 0.0
N610 N 0.328 0.6245 0.2192 0.0
N611 N 0.45124 0.52097 0.25682 0.0
C612 C 0.35653 0.59898 0.23205 0.0
C613 C 0.42057 0.54632 0.24875 0.0
N614 N 0.39495 0.64802 0.26149 0.0
N615 N 0.3723 0.49557 0.23932 0.0
H616 H 0.47746 0.52873 0.27127 0.0
H617 H 0.45066 0.49212 0.24998 0.0
H618 H 0.34431 0.4852 0.23094 0.0
H619 H 0.39189 0.47457 0.24941 0.0
H620 H 0.37009 0.66692 0.26212 0.0
H621 H 0.4176 0.65689 0.27932 0.0
H622 H 0.33366 0.65315 0.21605 0.0
H623 H 0.29994 0.61681 0.20814 0.0
C624 C 0.54392 0.1881 0.40103 0.0
C625 C 0.54339 0.21334 0.3699 0.0
C626 C 0.55233 0.26665 0.41487 0.0
C627 C 0.55989 0.24078 0.4447 0.0
N628 N 0.54163 0.18091 0.46945 0.0
N629 N 0.54927 0.27655 0.34693 0.0
C630 C 0.54962 0.20248 0.43877 0.0
C631 C 0.54826 0.25262 0.37678 0.0
N632 N 0.54028 0.15004 0.3945 0.0
N633 N 0.54445 0.30413 0.42342 0.0
H634 H 0.54556 0.26723 0.31879 0.0
H635 H 0.5572 0.30489 0.34983 0.0
H636 H 0.53961 0.31415 0.45124 0.0
H637 H 0.53614 0.32394 0.40325 0.0
H638 H 0.54555 0.12974 0.41496 0.0
H639 H 0.53463 0.13831 0.36784 0.0
H640 H 0.53073 0.1535 0.46752 0.0
H641 H 0.54027 0.19248 0.49702 0.0
C642 C 0.10466 0.34165 0.65677 0.0
C643 C 0.07463 0.33419 0.62891 0.0
C644 C 0.02468 0.33231 0.68201 0.0
C645 C 0.05652 0.33749 0.70945 0.0
N646 N 0.12821 0.32378 0.71844 0.0
N647 N 1.00625 0.31418 0.61686 0.0
C648 C 0.09691 0.33459 0.69547 0.0
C649 C 0.03449 0.32728 0.64201 0.0
N650 N 0.14 0.3581 0.6471 0.0
N651 N 0.98529 0.33088 0.69373 0.0
H652 H 1.01233 0.30978 0.58802 0.0
H653 H 0.97795 0.30457 0.62494 0.0
H654 H 0.97709 0.32905 0.72203 0.0
H655 H 0.9606 0.33243 0.67532 0.0
H656 H 0.1616 0.36538 0.66742 0.0
H657 H 0.14434 0.36966 0.62051 0.0
H658 H 0.15785 0.31975 0.70819 0.0
H659 H 0.12352 0.31362 0.7456 0.0
C660 C 0.96041 0.86808 0.89432 0.0
C661 C 0.982 0.8457 0.86664 0.0
C662 C 0.99855 0.79953 0.91627 0.0
C663 C 0.97844 0.82354 0.94402 0.0
N664 N 0.96097 0.88863 0.96004 0.0
N665 N 0.02601 0.79175 0.85203 0.0
C666 C 0.96536 0.8602 0.93334 0.0
C667 C 1.00253 0.81185 0.87794 0.0
N668 N 0.93514 0.89711 0.88371 0.0
N669 N 0.01418 0.76517 0.92686 0.0
H670 H 0.02685 0.79859 0.82337 0.0
H671 H 0.0455 0.76928 0.85896 0.0
H672 H 0.01598 0.75768 0.95532 0.0
H673 H 0.0248 0.74416 0.90773 0.0
H674 H 0.9161 0.91181 0.90309 0.0
H675 H 0.92988 0.90343 0.85538 0.0
H676 H 0.95356 0.91654 0.95315 0.0
H677 H 0.9714 0.88544 0.98774 0.0
C678 C 0.44994 0.74408 0.18638 0.0
C679 C 0.47473 0.71132 0.19032 0.0
C680 C 0.47493 0.7019 0.1209 0.0
C681 C 0.44471 0.73082 0.11725 0.0
N682 N 0.39495 0.77067 0.15094 0.0
N683 N 0.49805 0.65167 0.16088 0.0
C684 C 0.43015 0.74999 0.15112 0.0
C685 C 0.4839 0.68812 0.15746 0.0
N686 N 0.44488 0.76953 0.21602 0.0
N687 N 0.4955 0.6876 0.08976 0.0
H688 H 0.4999 0.6385 0.18693 0.0
H689 H 0.50216 0.63308 0.13756 0.0
H690 H 0.49155 0.69843 0.06269 0.0
H691 H 0.51987 0.66826 0.09189 0.0
H692 H 0.42959 0.79557 0.21314 0.0
H693 H 0.45923 0.76618 0.24217 0.0
H694 H 0.38084 0.78174 0.17553 0.0
H695 H 0.37778 0.77263 0.12664 0.0
C696 C 0.18107 0.40748 0.2855 0.0
C697 C 0.20049 0.4133 0.32116 0.0
C698 C 0.2511 0.45268 0.29082 0.0
C699 C 0.23234 0.44623 0.25493 0.0
N700 N 0.18461 0.41173 0.21668 0.0
N701 N 0.25892 0.43387 0.35634 0.0
C702 C 0.19896 0.42166 0.25188 0.0
C703 C 0.23721 0.43339 0.32327 0.0
N704 N 0.14463 0.38975 0.28403 0.0
N705 N 0.28058 0.47905 0.29448 0.0
H706 H 0.2493 0.42047 0.38074 0.0
H707 H 0.28804 0.44455 0.35864 0.0
H708 H 0.29123 0.49395 0.27159 0.0
H709 H 0.29215 0.48837 0.32051 0.0
H710 H 0.12647 0.38847 0.25987 0.0
H711 H 0.13112 0.37828 0.30781 0.0
H712 H 0.16291 0.39119 0.21196 0.0
H713 H 0.19709 0.42176 0.1917 0.0
C714 C 0.85986 0.93285 0.52957 0.0
C715 C 0.86918 0.95863 0.55978 0.0
C716 C 0.84231 1.01132 0.52202 0.0
C717 C 0.82642 0.98486 0.49534 0.0
N718 N 0.8191 0.92 0.47355 0.0
N719 N 0.86831 0.02265 0.58571 0.0
C720 C 0.83549 0.9455 0.49871 0.0
C721 C 0.86072 0.99808 0.55604 0.0
N722 N 0.87468 0.89631 0.53028 0.0
N723 N 0.83991 0.0491 0.51454 0.0
H724 H 0.88199 1.01409 0.61089 0.0
H725 H 0.85865 0.051 0.58645 0.0
H726 H 0.82757 0.05908 0.48932 0.0
H727 H 0.85376 0.06994 0.53113 0.0
H728 H 0.8724 0.87704 0.50751 0.0
H729 H 0.89266 0.88624 0.55242 0.0
H730 H 0.8201 0.8908 0.47724 0.0
H731 H 0.80246 0.92813 0.4498 0.0
C732 C 0.32642 0.58272 0.77441 0.0
C733 C 0.32774 0.60049 0.73854 0.0
C734 C 0.35174 0.65879 0.76998 0.0
C735 C 0.34886 0.64134 0.8058 0.0
N736 N 0.32386 0.59057 0.843 0.0
N737 N 0.33349 0.65739 0.70297 0.0
C738 C 0.33311 0.60452 0.80823 0.0
C739 C 0.33785 0.63922 0.73658 0.0
N740 N 0.3206 0.54457 0.77626 0.0
N741 N 0.36908 0.69344 0.76772 0.0
H742 H 0.32323 0.64375 0.67827 0.0
H743 H 0.33661 0.6865 0.70032 0.0
H744 H 0.37886 0.70878 0.79159 0.0
H745 H 0.3762 0.70587 0.74213 0.0
H746 H 0.32434 0.52941 0.80105 0.0
H747 H 0.31541 0.5272 0.75254 0.0
H748 H 0.30805 0.56569 0.84648 0.0
H749 H 0.32841 0.60573 0.86843 0.0
C750 C 0.64786 0.07073 0.03775 0.0
C751 C 0.63549 0.10947 0.04299 0.0
C752 C 0.66264 0.1233 0.97995 0.0
C753 C 0.67809 0.08541 0.97627 0.0
N754 N 0.67217 1.02067 0.99393 0.0
N755 N 0.62021 0.16968 1.01515 0.0
C756 C 0.66601 0.05825 1.00258 0.0
C757 C 0.63914 0.13476 1.01257 0.0
N758 N 0.64457 0.0464 0.06711 0.0
N759 N 0.67218 0.14862 0.95282 0.0
H760 H 0.60281 0.17852 0.03873 0.0
H761 H 0.61883 0.18859 0.99297 0.0
H762 H 0.6871 0.14019 0.92765 0.0
H763 H 0.66647 0.17772 0.9555 0.0
H764 H 0.65734 1.01907 0.06661 0.0
H765 H 0.63111 0.05431 0.09306 0.0
H766 H 0.66148 0.99903 1.01051 0.0
H767 H 0.68368 1.01149 0.9676 0.0
C768 C 0.66748 0.12626 0.77295 0.0
C769 C 0.69581 0.13376 0.74384 0.0
C770 C 0.7519 0.11091 0.78394 0.0
C771 C 0.72349 0.10348 0.81317 0.0
N772 N 0.6564 0.11368 0.83956 0.0
N773 N 0.76519 0.14215 0.72465 0.0
C774 C 0.6819 0.11422 0.80888 0.0
C775 C 0.73814 0.12902 0.75041 0.0
N776 N 0.62672 0.12916 0.76576 0.0
N777 N 0.7915 0.09869 0.78702 0.0
H778 H 0.75608 0.15514 0.69966 0.0
H779 H 0.79633 0.14327 0.72955 0.0
H780 H 0.8032 0.08571 0.81101 0.0
H781 H 0.81228 0.09891 0.76469 0.0
H782 H 0.60458 0.11974 0.78419 0.0
H783 H 0.61496 0.13866 0.7401 0.0
H784 H 0.62669 0.12459 0.8394 0.0
H785 H 0.66626 0.10574 0.86644 0.0
C786 C 0.18487 0.5002 0.04899 0.0
C787 C 0.20221 0.47602 0.07631 0.0
C788 C 0.19172 0.42174 0.03284 0.0
C789 C 0.16865 0.44505 1.00788 0.0
N790 N 0.17629 0.50709 0.9819 0.0
N791 N 0.21754 0.41251 0.0963 0.0
C792 C 0.17328 0.48495 1.01289 0.0
C793 C 0.20355 0.43635 0.06905 0.0
N794 N 0.1809 0.53817 0.05695 0.0
N795 N 0.2093 0.38861 1.01924 0.0
H796 H 0.22693 0.42228 0.12302 0.0
H797 H 0.21597 0.38307 0.09344 0.0
H798 H 0.20859 0.38094 0.9904 0.0
H799 H 0.22957 0.37215 0.03498 0.0
H800 H 0.16548 0.55677 0.03911 0.0
H801 H 0.18975 0.55006 0.08301 0.0
H802 H 0.18272 0.53587 0.98375 0.0
H803 H 0.1803 0.49514 0.95467 0.0
C804 C 0.84128 0.92109 0.32407 0.0
C805 C 0.80771 0.94646 0.31845 0.0
C806 C 0.8143 0.93676 0.24914 0.0
C807 C 0.848 0.91151 0.25474 0.0
N808 N 0.88945 0.87433 0.2968 0.0
N809 N 0.75805 0.97418 0.27666 0.0
C810 C 0.86012 0.90195 0.29207 0.0
C811 C 0.79282 0.95276 0.28124 0.0
N812 N 0.85588 0.91632 0.36003 0.0
N813 N 0.8038 0.9465 0.21301 0.0
H814 H 0.7427 0.98758 0.29935 0.0
H815 H 0.74276 0.97674 0.25098 0.0
H816 H 0.81755 0.93418 0.1888 0.0
H817 H 0.78301 0.96813 0.20672 0.0
H818 H 0.88298 0.9019 0.3661 0.0
H819 H 0.8416 0.92841 0.38409 0.0
H820 H 0.89712 0.86313 0.32295 0.0
H821 H 0.90445 0.86055 0.27401 0.0
C822 C 0.35046 0.55047 0.53395 0.0
C823 C 0.35008 0.57047 0.5696 0.0
C824 C 0.37968 0.62564 0.53966 0.0
C825 C 0.37969 0.60585 0.50408 0.0
N826 N 0.37557 0.54652 0.46898 0.0
N827 N 0.37611 0.62163 0.60827 0.0
C828 C 0.3685 0.56725 0.50182 0.0
C829 C 0.36844 0.60641 0.57298 0.0
N830 N 0.33168 0.51651 0.53005 0.0
N831 N 0.38891 0.66319 0.54145 0.0
H832 H 0.3699 0.60732 0.6331 0.0
H833 H 0.39251 0.64618 0.61288 0.0
H834 H 0.39803 0.67801 0.51777 0.0
H835 H 0.38483 0.6803 0.5658 0.0
H836 H 0.32613 0.50323 0.50386 0.0
H837 H 0.31931 0.50241 0.55274 0.0
H838 H 0.37217 0.51728 0.46668 0.0
H839 H 0.38849 0.55798 0.44489 0.0
C840 C 0.25278 0.25715 0.46926 0.0
C841 C 0.21682 0.2365 0.47509 0.0
C842 C 0.24351 0.18589 0.43125 0.0
C843 C 0.27921 0.20687 0.42553 0.0
N844 N 0.31327 0.26623 0.43126 0.0
N845 N 0.17536 0.18359 0.45807 0.0
C846 C 0.28211 0.24387 0.44179 0.0
C847 C 0.21129 0.20176 0.45453 0.0
N848 N 0.26078 0.28766 0.49238 0.0
N849 N 0.24132 0.15001 0.41581 0.0
H850 H 0.1523 0.19345 0.47644 0.0
H851 H 0.16718 0.16029 0.4413 0.0
H852 H 0.26361 0.13817 0.39766 0.0
H853 H 0.2186 0.13121 0.42215 0.0
H854 H 0.28857 0.30112 0.49294 0.0
H855 H 0.24068 0.29746 0.51341 0.0
H856 H 0.31484 0.29485 0.43907 0.0
H857 H 0.33562 0.25705 0.4118 0.0
C858 C 0.05261 0.08071 0.70383 0.0
C859 C 0.08396 0.07787 0.67604 0.0
C860 C 0.08223 1.00812 0.67737 0.0
C861 C 0.05111 1.01097 0.70539 0.0
N862 N 1.00162 0.04922 0.74054 0.0
N863 N 0.1238 0.03985 0.63123 0.0
C864 C 0.03462 0.0471 0.71693 0.0
C865 C 0.09716 0.04179 0.66111 0.0
N866 N 0.0411 0.11559 0.71874 0.0
N867 N 0.09843 0.97318 0.66738 0.0
H868 H 0.13603 0.06389 0.61945 0.0
H869 H 0.13178 1.01485 0.6164 0.0
H870 H 0.08674 0.94807 0.67732 0.0
H871 H 0.12432 0.96894 0.65063 0.0
H872 H 0.02227 0.11966 0.74235 0.0
H873 H 0.05222 0.14093 0.70882 0.0
H874 H 0.98507 0.0741 0.74699 0.0
H875 H 0.98874 0.0253 0.75157 0.0
C876 C 0.28126 0.86091 0.91061 0.0
C877 C 0.24029 0.85241 0.91889 0.0
C878 C 0.26246 0.81513 0.97313 0.0
C879 C 0.3037 0.82271 0.96433 0.0
N880 N 0.35275 0.84498 0.91986 0.0
N881 N 0.19297 0.81299 0.95056 0.0
C882 C 0.31317 0.84298 0.93134 0.0
C883 C 0.23135 0.82654 0.94762 0.0
N884 N 0.28965 0.88757 0.88444 0.0
N885 N 0.25234 0.79987 1.00707 0.0
H886 H 0.1695 0.82091 0.93226 0.0
H887 H 0.18558 0.79114 0.96847 0.0
H888 H 0.27336 0.79236 0.02775 0.0
H889 H 0.22244 0.79795 1.01645 0.0
H890 H 0.31852 0.89818 0.88038 0.0
H891 H 0.26721 0.90118 0.86852 0.0
H892 H 0.36143 0.85629 0.89414 0.0
H893 H 0.37672 0.83205 0.93447 0.0
C894 C 0.41775 0.06682 0.18401 0.0
C895 C 0.45842 0.06199 0.19672 0.0
C896 C 0.46142 0.99783 0.16773 0.0
C897 C 0.41902 1.0007 0.16024 0.0
N898 N 0.35627 0.03734 0.16093 0.0
N899 N 0.51923 0.02301 0.20207 0.0
C900 C 0.39712 0.03524 0.16789 0.0
C901 C 0.48064 0.02777 0.18831 0.0
N902 N 0.39915 0.1019 0.18704 0.0
N903 N 0.48319 0.96632 0.15537 0.0
H904 H 0.53456 0.04451 0.21649 0.0
H905 H 0.53535 0.99723 0.2012 0.0
H906 H 0.46991 0.94337 0.14136 0.0
H907 H 0.51476 0.96402 0.15629 0.0
H908 H 0.37093 0.10851 0.17531 0.0
H909 H 0.41365 0.1255 0.19857 0.0
H910 H 0.33739 0.05992 0.17003 0.0
H911 H 0.34067 1.01538 0.1475 0.0
C912 C 0.77171 0.37083 0.62904 0.0
C913 C 0.80515 0.34809 0.64115 0.0
C914 C 0.77144 0.29047 0.61833 0.0
C915 C 0.73789 0.31328 0.60633 0.0
N916 N 0.70195 0.37378 0.60715 0.0
N917 N 0.83446 0.28649 0.6541 0.0
C918 C 0.73681 0.35307 0.61389 0.0
C919 C 0.80414 0.3079 0.63808 0.0
N920 N 0.77383 0.40953 0.631 0.0
N921 N 0.7732 0.2526 0.60888 0.0
H922 H 0.85959 0.29834 0.66746 0.0
H923 H 0.83345 0.25719 0.65659 0.0
H924 H 0.74963 0.23867 0.59514 0.0
H925 H 0.7989 0.23528 0.61255 0.0
H926 H 0.75296 0.42776 0.61816 0.0
H927 H 0.79795 0.42372 0.64363 0.0
H928 H 0.69739 0.40198 0.61594 0.0
H929 H 0.67598 0.36194 0.59543 0.0
C930 C 0.96686 0.52686 0.82989 0.0
C931 C 0.96674 0.49231 0.84991 0.0
C932 C 0.93988 0.52722 0.90659 0.0
C933 C 0.94161 0.56193 0.88697 0.0
N934 N 0.96557 0.59572 0.83314 0.0
N935 N 0.95998 0.46036 0.90897 0.0
C936 C 0.95788 0.56196 0.84959 0.0
C937 C 0.95549 0.49282 0.88887 0.0
N938 N 0.97369 0.52609 0.79155 0.0
N939 N 0.92158 0.52682 0.94146 0.0
H940 H 0.97074 0.43479 0.89661 0.0
H941 H 0.95632 0.4594 0.9383 0.0
H942 H 0.91009 0.55128 0.95539 0.0
H943 H 0.91516 0.50205 0.95548 0.0
H944 H 0.9691 0.54958 0.77462 0.0
H945 H 0.98135 0.50137 0.77599 0.0
H946 H 0.98149 0.59776 0.80771 0.0
H947 H 0.95946 0.62192 0.84671 0.0
C948 C 0.75811 0.74868 0.08506 0.0
C949 C 0.79824 0.74575 0.09967 0.0
C950 C 0.7724 0.7128 0.15511 0.0
C951 C 0.73347 0.71126 0.13789 0.0
N952 N 0.68954 0.72491 0.085 0.0
N953 N 0.84463 0.72195 0.14691 0.0
C954 C 0.72631 0.72866 0.10254 0.0
C955 C 0.80564 0.72733 0.13448 0.0
N956 N 0.75022 0.77158 0.05508 0.0
N957 N 0.77741 0.70085 0.19147 0.0
H958 H 0.8697 0.7324 0.1329 0.0
H959 H 0.85249 0.70476 0.16949 0.0
H960 H 0.75383 0.68981 0.20726 0.0
H961 H 0.80381 0.7049 0.20717 0.0
H962 H 0.72105 0.77803 0.04537 0.0
H963 H 0.77268 0.78715 0.04217 0.0
H964 H 0.6839 0.73306 0.05725 0.0
H965 H 0.66528 0.71117 0.09726 0.0
C966 C 0.61232 0.52581 0.38864 0.0
C967 C 0.58416 0.5005 0.40388 0.0
C968 C 0.52784 0.53671 0.37527 0.0
C969 C 0.55584 0.56378 0.36259 0.0
N970 N 0.62383 0.58805 0.36436 0.0
N971 N 0.51486 0.48549 0.41804 0.0
C972 C 0.5978 0.55951 0.37152 0.0
C973 C 0.54178 0.50715 0.39923 0.0
N974 N 0.65302 0.51685 0.38891 0.0
N975 N 0.48862 0.53754 0.3625 0.0
H976 H 0.52408 0.46338 0.43543 0.0
H977 H 0.48371 0.49155 0.41904 0.0
H978 H 0.47728 0.5577 0.3439 0.0
H979 H 0.46825 0.51611 0.36746 0.0
H980 H 0.67451 0.53197 0.37421 0.0
H981 H 0.66513 0.4923 0.40086 0.0
H982 H 0.65365 0.58838 0.37424 0.0
H983 H 0.61467 0.61313 0.35161 0.0
C984 C 0.40659 0.26172 0.18116 0.0
C985 C 0.39653 0.29287 0.20609 0.0
C986 C 0.41585 0.2541 0.2605 0.0
C987 C 0.43387 0.22666 0.23527 0.0
N988 N 0.44558 0.20287 0.17135 0.0
N989 N 0.39104 0.31908 0.26998 0.0
C990 C 0.42817 0.22962 0.19549 0.0
C991 C 0.40021 0.28892 0.24604 0.0
N992 N 0.3955 0.263 0.14382 0.0
N993 N 0.41412 0.24669 0.29832 0.0
H994 H 0.37929 0.34487 0.26049 0.0
H995 H 0.39738 0.31938 0.29895 0.0
H996 H 0.42443 0.22078 0.30878 0.0
H997 H 0.39877 0.26407 0.31828 0.0
H998 H 0.39862 0.23997 0.12482 0.0
H999 H 0.37965 0.28617 0.13266 0.0
H1000 H 0.44718 0.20571 0.14202 0.0
H1001 H 0.46013 0.17834 0.18098 0.0
C1002 C 0.93541 0.28047 0.81292 0.0
C1003 C 0.92853 0.31767 0.82859 0.0
C1004 C 0.8871 0.29135 0.87946 0.0
C1005 C 0.89307 0.25446 0.86289 0.0
N1006 N 0.91357 0.2154 0.80866 0.0
N1007 N 0.89197 0.35956 0.87238 0.0
C1008 C 0.91404 0.24962 0.82781 0.0
C1009 C 0.90234 0.3234 0.86047 0.0
N1010 N 0.96472 0.27393 0.78584 0.0
N1011 N 0.86837 0.29555 0.91405 0.0
H1012 H 0.90271 0.3834 0.85898 0.0
H1013 H 0.87021 0.36601 0.89323 0.0
H1014 H 0.85617 0.27285 0.92821 0.0
H1015 H 0.86705 0.32097 0.92978 0.0
H1016 H 0.97424 0.24687 0.77648 0.0
H1017 H 0.98251 0.29526 0.77545 0.0
H1018 H 0.92474 0.21127 0.7811 0.0
H1019 H 0.89844 0.19208 0.81883 0.0
C1020 C 0.05094 0.6952 0.07394 0.0
C1021 C 0.04286 0.66501 0.09838 0.0
C1022 C 0.96952 0.67682 0.0895 0.0
C1023 C 0.97777 0.71089 0.07071 0.0
N1024 N 0.02774 0.75566 0.05055 0.0
N1025 N 0.99416 0.62845 0.1321 0.0
C1026 C 0.01883 0.72076 0.06383 0.0
C1027 C 1.00201 0.65582 0.10652 0.0
N1028 N 0.08946 0.69948 0.06043 0.0
N1029 N 0.93049 0.66458 0.09104 0.0
H1030 H 0.01697 0.61245 0.14517 0.0
H1031 H 0.9652 0.62351 0.14254 0.0
H1032 H 0.90615 0.67936 0.07881 0.0
H1033 H 0.92283 0.63822 0.10116 0.0
H1034 H 0.09644 0.7186 0.03946 0.0
H1035 H 0.11365 0.68123 0.06734 0.0
H1036 H 0.05722 0.76561 0.04924 0.0
H1037 H 1.00592 0.7764 0.04438 0.0
C1038 C 0.63659 0.76138 0.36886 0.0
C1039 C 0.62627 0.7975 0.35429 0.0
C1040 C 0.57921 0.76717 0.30948 0.0
C1041 C 0.58398 0.73245 0.32871 0.0
N1042 N 0.61559 0.69688 0.37847 0.0
N1043 N 0.58615 0.83548 0.31161 0.0
C1044 C 0.61286 0.72946 0.35845 0.0
C1045 C 0.59775 0.8005 0.32425 0.0
N1046 N 0.66894 0.75779 0.39287 0.0
N1047 N 0.55591 0.76843 0.27753 0.0
H1048 H 0.59899 0.86059 0.32143 0.0
H1049 H 0.56182 0.84006 0.29329 0.0
H1050 H 0.54115 0.74474 0.26705 0.0
H1051 H 0.5542 0.79155 0.25977 0.0
H1052 H 0.68039 0.73174 0.40188 0.0
H1053 H 0.68667 0.78075 0.40093 0.0
H1054 H 0.63255 0.69414 0.40324 0.0
H1055 H 0.59855 0.67321 0.37147 0.0
C1056 C 0.52394 0.34089 0.5657 0.0
C1057 C 0.56018 0.3332 0.58627 0.0
C1058 C 0.53566 0.37544 0.63865 0.0
C1059 C 0.49939 0.38263 0.61806 0.0
N1060 N 0.46331 0.38069 0.55865 0.0
N1061 N 0.6039 0.3473 0.63927 0.0
C1062 C 0.49522 0.3684 0.58029 0.0
C1063 C 0.5672 0.35217 0.62168 0.0
N1064 N 0.51518 0.31957 0.53397 0.0
N1065 N 0.53901 0.38949 0.67505 0.0
H1066 H 0.62682 0.32916 0.62831 0.0
H1067 H 0.61284 0.36292 0.66317 0.0
H1068 H 0.5172 0.4079 0.68754 0.0
H1069 H 0.56233 0.3819 0.6935 0.0
H1070 H 0.48725 0.32072 0.52012 0.0
H1071 H 0.5346 0.29812 0.52337 0.0
H1072 H 0.46077 0.37435 0.5297 0.0
H1073 H 0.44122 0.40015 0.56885 0.0
C1074 C 0.11574 0.79289 0.68387 0.0
C1075 C 0.13463 0.76818 0.71016 0.0
C1076 C 0.11196 0.81019 0.76324 0.0
C1077 C 0.09098 0.83361 0.73716 0.0
N1078 N 0.0806 0.85315 0.6729 0.0
N1079 N 0.15864 0.75682 0.77351 0.0
C1080 C 0.09567 0.82692 0.69747 0.0
C1081 C 0.13544 0.77813 0.74948 0.0
N1082 N 0.11568 0.78295 0.64603 0.0
N1083 N 0.10803 0.81798 0.80128 0.0
H1084 H 0.17526 0.73267 0.7644 0.0
H1085 H 0.16377 0.76422 0.80187 0.0
H1086 H 0.09398 0.84292 0.8117 0.0
H1087 H 0.1179 0.79989 0.82243 0.0
H1088 H 0.09854 0.79705 0.62573 0.0
H1089 H 0.13156 0.75918 0.63489 0.0
H1090 H 0.08578 0.85202 0.64373 0.0
H1091 H 0.06553 0.87809 0.68213 0.0
C1092 C 0.4758 0.88173 0.98156 0.0
C1093 C 0.48256 0.84608 0.99857 0.0
C1094 C 0.55449 0.84642 0.98002 0.0
C1095 C 0.54805 0.88265 0.96415 0.0
N1096 N 0.50535 0.93859 0.95731 0.0
N1097 N 0.52968 0.79892 0.02225 0.0
C1098 C 0.50952 0.90152 0.96733 0.0
C1099 C 0.52239 0.82979 1.00033 0.0
N1100 N 0.43705 0.89579 0.9771 0.0
N1101 N 0.59071 0.8272 0.97435 0.0
H1102 H 0.50699 0.78646 0.03807 0.0
H1103 H 0.5587 0.78798 0.02776 0.0
H1104 H 0.61509 0.8385 0.95988 0.0
H1105 H 0.5956 0.79897 0.98141 0.0
H1106 H 0.42987 0.91926 0.96084 0.0
H1107 H 0.41156 0.88235 0.98724 0.0
H1108 H 0.47917 0.95512 0.96262 0.0
H1109 H 0.52941 0.95393 0.94678 0.0
C1110 C 1.00431 0.18994 0.45207 0.0
C1111 C 0.97517 0.17554 0.47733 0.0
C1112 C 1.01036 0.20616 0.53132 0.0
C1113 C 0.04119 0.21832 0.50627 0.0
N1114 N 0.07153 0.21466 0.44361 0.0
N1115 N 0.95394 0.16432 0.54142 0.0
C1116 C 0.03926 0.20814 0.46688 0.0
C1117 C 0.97934 0.1819 0.51713 0.0
N1118 N 0.99796 0.18734 0.4137 0.0
N1119 N 1.00917 0.2195 0.56814 0.0
H1120 H 0.93049 0.14712 0.53196 0.0
H1121 H 0.95812 0.16428 0.57074 0.0
H1122 H 0.03054 0.23782 0.57957 0.0
H1123 H 0.98504 0.2151 0.58655 0.0
H1124 H 0.01535 0.20138 0.39401 0.0
H1125 H 0.97318 0.17378 0.40155 0.0
H1126 H 0.07397 0.20383 0.41586 0.0
H1127 H 0.09779 0.22784 0.45293 0.0
loop_
_geom_bond_atom_site_label_1
_geom_bond_atom_site_label_2
_geom_bond_distance
_geom_bond_site_symmetry_2
_ccdc_geom_bond_type
C0 Eu1 2.835 . S
C0 C2 1.500 . S
C0 O20 1.257 . S
C0 O21 1.260 . S
Eu1 C0 2.835 . S
Eu1 O20 2.473 . S
Eu1 O21 2.480 . S
Eu1 O22 2.430 . S
Eu1 O23 2.670 . S
Eu1 O24 2.394 . S
Eu1 O29 2.355 . S
Eu1 O31 2.374 . S
C2 C0 1.500 . S
C2 C3 1.377 . S
C2 C7 1.377 . S
C3 C2 1.377 . S
C3 C4 1.395 . S
C3 H32 0.931 . S
C4 C3 1.395 . S
C4 C5 1.383 . S
C4 H33 0.931 . S
C5 C4 1.383 . S
C5 C6 1.394 . S
C6 C5 1.394 . S
C6 C7 1.378 . S
C6 H34 0.931 . S
C7 C2 1.377 . S
C7 C6 1.378 . S
C7 H35 0.931 . S
C8 O22 1.259 . S
C8 O23 1.270 . S
C9 O24 1.251 . S
C9 O25 1.251 . S
C10 Eu11 2.835 . S
C10 C12 1.500 . S
C10 O26 1.257 . S
C10 O27 1.260 . S
Eu11 C10 2.835 . S
Eu11 O23 2.355 . S
Eu11 O25 2.374 . S
Eu11 O26 2.473 . S
Eu11 O27 2.480 . S
Eu11 O28 2.430 . S
Eu11 O29 2.670 . S
Eu11 O30 2.394 . S
C12 C10 1.500 . S
C12 C13 1.377 . S
C12 C17 1.377 . S
C13 C12 1.377 . S
C13 C14 1.395 . S
C13 H36 0.931 . S
C14 C13 1.395 . S
C14 C15 1.383 . S
C14 H37 0.931 . S
C15 C14 1.383 . S
C15 C16 1.394 . S
C16 C15 1.394 . S
C16 C17 1.378 . S
C16 H38 0.931 . S
C17 C12 1.377 . S
C17 C16 1.378 . S
C17 H39 0.931 . S
C18 O28 1.259 . S
C18 O29 1.270 . S
C19 O30 1.251 . S
C19 O31 1.251 . S
O20 C0 1.257 . S
O20 Eu1 2.473 . S
O21 C0 1.260 . S
O21 Eu1 2.480 . S
O22 Eu1 2.430 . S
O22 C8 1.259 . S
O23 Eu1 2.670 . S
O23 C8 1.270 . S
O23 Eu11 2.355 . S
O24 Eu1 2.394 . S
O24 C9 1.251 . S
O25 C9 1.251 . S
O25 Eu11 2.374 . S
O26 C10 1.257 . S
O26 Eu11 2.473 . S
O27 C10 1.260 . S
O27 Eu11 2.480 . S
O28 Eu11 2.430 . S
O28 C18 1.259 . S
O29 Eu1 2.355 . S
O29 Eu11 2.670 . S
O29 C18 1.270 . S
O30 Eu11 2.394 . S
O30 C19 1.251 . S
O31 Eu1 2.374 . S
O31 C19 1.251 . S
H32 C3 0.931 . S
H33 C4 0.931 . S
H34 C6 0.931 . S
H35 C7 0.931 . S
H36 C13 0.931 . S
H37 C14 0.931 . S
H38 C16 0.931 . S
H39 C17 0.931 . S
C40 Eu41 2.835 . S
C40 C42 1.500 . S
C40 O60 1.257 . S
C40 O61 1.260 . S
Eu41 C40 2.835 . S
Eu41 O60 2.473 . S
Eu41 O61 2.480 . S
Eu41 O62 2.430 1_455 S
Eu41 O63 2.670 1_455 S
Eu41 O64 2.394 1_455 S
Eu41 O69 2.355 . S
Eu41 O71 2.374 . S
C42 C40 1.500 . S
C42 C43 1.377 . S
C42 C47 1.377 . S
C43 C42 1.377 . S
C43 C44 1.395 . S
C43 H72 0.931 . S
C44 C43 1.395 . S
C44 C45 1.383 . S
C44 H73 0.931 . S
C45 C44 1.383 . S
C45 C46 1.394 . S
C46 C45 1.394 . S
C46 C47 1.378 . S
C46 H74 0.931 . S
C47 C42 1.377 . S
C47 C46 1.378 . S
C47 H75 0.931 . S
C48 O62 1.259 . S
C48 O63 1.270 . S
C49 O64 1.251 . S
C49 O65 1.251 . S
C50 Eu51 2.835 . S
C50 C52 1.500 . S
C50 O66 1.257 . S
C50 O67 1.260 . S
Eu51 C50 2.835 . S
Eu51 O63 2.355 . S
Eu51 O65 2.374 . S
Eu51 O66 2.473 . S
Eu51 O67 2.480 . S
Eu51 O68 2.430 1_655 S
Eu51 O69 2.670 1_655 S
Eu51 O70 2.394 1_655 S
C52 C50 1.500 . S
C52 C53 1.377 . S
C52 C57 1.377 . S
C53 C52 1.377 . S
C53 C54 1.395 . S
C53 H76 0.931 . S
C54 C53 1.395 . S
C54 C55 1.383 . S
C54 H77 0.931 . S
C55 C54 1.383 . S
C55 C56 1.394 . S
C56 C55 1.394 . S
C56 C57 1.378 . S
C56 H78 0.931 . S
C57 C52 1.377 . S
C57 C56 1.378 . S
C57 H79 0.931 . S
C58 O68 1.259 . S
C58 O69 1.270 . S
C59 O70 1.251 . S
C59 O71 1.251 . S
O60 C40 1.257 . S
O60 Eu41 2.473 . S
O61 C40 1.260 . S
O61 Eu41 2.480 . S
O62 Eu41 2.430 1_655 S
O62 C48 1.259 . S
O63 Eu41 2.670 1_655 S
O63 C48 1.270 . S
O63 Eu51 2.355 . S
O64 Eu41 2.394 1_655 S
O64 C49 1.251 . S
O65 C49 1.251 . S
O65 Eu51 2.374 . S
O66 C50 1.257 . S
O66 Eu51 2.473 . S
O67 C50 1.260 . S
O67 Eu51 2.480 . S
O68 Eu51 2.430 1_455 S
O68 C58 1.259 . S
O69 Eu41 2.355 . S
O69 Eu51 2.670 1_455 S
O69 C58 1.270 . S
O70 Eu51 2.394 1_455 S
O70 C59 1.251 . S
O71 Eu41 2.374 . S
O71 C59 1.251 . S
H72 C43 0.931 . S
H73 C44 0.931 . S
H74 C46 0.931 . S
H75 C47 0.931 . S
H76 C53 0.931 . S
H77 C54 0.931 . S
H78 C56 0.931 . S
H79 C57 0.931 . S
C80 Eu81 2.835 . S
C80 C82 1.500 . S
C80 O100 1.257 . S
C80 O101 1.260 . S
Eu81 C80 2.835 . S
Eu81 O100 2.473 . S
Eu81 O101 2.480 . S
Eu81 O102 2.430 1_556 S
Eu81 O103 2.670 1_556 S
Eu81 O104 2.394 1_556 S
Eu81 O109 2.355 . S
Eu81 O111 2.374 . S
C82 C80 1.500 . S
C82 C83 1.377 . S
C82 C87 1.377 . S
C83 C82 1.377 . S
C83 C84 1.395 . S
C83 H112 0.931 . S
C84 C83 1.395 . S
C84 C85 1.383 . S
C84 H113 0.931 . S
C85 C84 1.383 . S
C85 C86 1.394 . S
C86 C85 1.394 . S
C86 C87 1.378 . S
C86 H114 0.931 . S
C87 C82 1.377 . S
C87 C86 1.378 . S
C87 H115 0.931 . S
C88 O102 1.259 . S
C88 O103 1.270 . S
C89 O104 1.251 . S
C89 O105 1.251 . S
C90 Eu91 2.835 . S
C90 C92 1.500 . S
C90 O106 1.257 . S
C90 O107 1.260 . S
Eu91 C90 2.835 . S
Eu91 O103 2.355 . S
Eu91 O105 2.374 . S
Eu91 O106 2.473 . S
Eu91 O107 2.480 . S
Eu91 O108 2.430 1_554 S
Eu91 O109 2.670 1_554 S
Eu91 O110 2.394 1_554 S
C92 C90 1.500 . S
C92 C93 1.377 . S
C92 C97 1.377 . S
C93 C92 1.377 . S
C93 C94 1.395 . S
C93 H116 0.931 . S
C94 C93 1.395 . S
C94 C95 1.383 . S
C94 H117 0.931 . S
C95 C94 1.383 . S
C95 C96 1.394 . S
C96 C95 1.394 . S
C96 C97 1.378 . S
C96 H118 0.931 . S
C97 C92 1.377 . S
C97 C96 1.378 . S
C97 H119 0.931 . S
C98 O108 1.259 . S
C98 O109 1.270 . S
C99 O110 1.251 . S
C99 O111 1.251 . S
O100 C80 1.257 . S
O100 Eu81 2.473 . S
O101 C80 1.260 . S
O101 Eu81 2.480 . S
O102 Eu81 2.430 1_554 S
O102 C88 1.259 . S
O103 Eu81 2.670 1_554 S
O103 C88 1.270 . S
O103 Eu91 2.355 . S
O104 Eu81 2.394 1_554 S
O104 C89 1.251 . S
O105 C89 1.251 . S
O105 Eu91 2.374 . S
O106 C90 1.257 . S
O106 Eu91 2.473 . S
O107 C90 1.260 . S
O107 Eu91 2.480 . S
O108 Eu91 2.430 1_556 S
O108 C98 1.259 . S
O109 Eu81 2.355 . S
O109 Eu91 2.670 1_556 S
O109 C98 1.270 . S
O110 Eu91 2.394 1_556 S
O110 C99 1.251 . S
O111 Eu81 2.374 . S
O111 C99 1.251 . S
H112 C83 0.931 . S
H113 C84 0.931 . S
H114 C86 0.931 . S
H115 C87 0.931 . S
H116 C93 0.931 . S
H117 C94 0.931 . S
H118 C96 0.931 . S
H119 C97 0.931 . S
C120 Eu121 2.835 . S
C120 C122 1.500 . S
C120 O140 1.257 . S
C120 O141 1.260 . S
Eu121 C120 2.835 . S
Eu121 O140 2.473 . S
Eu121 O141 2.480 . S
Eu121 O142 2.430 . S
Eu121 O143 2.670 . S
Eu121 O144 2.394 . S
Eu121 O149 2.355 . S
Eu121 O151 2.374 . S
C122 C120 1.500 . S
C122 C123 1.377 . S
C122 C127 1.377 . S
C123 C122 1.377 . S
C123 C124 1.395 . S
C123 H152 0.931 . S
C124 C123 1.395 . S
C124 C125 1.383 . S
C124 H153 0.931 . S
C125 C124 1.383 . S
C125 C126 1.394 . S
C126 C125 1.394 . S
C126 C127 1.378 . S
C126 H154 0.931 . S
C127 C122 1.377 . S
C127 C126 1.378 . S
C127 H155 0.931 . S
C128 O142 1.259 . S
C128 O143 1.270 . S
C129 O144 1.251 . S
C129 O145 1.251 . S
C130 Eu131 2.835 . S
C130 C132 1.500 . S
C130 O146 1.257 . S
C130 O147 1.260 . S
Eu131 C130 2.835 . S
Eu131 O143 2.355 . S
Eu131 O145 2.374 . S
Eu131 O146 2.473 . S
Eu131 O147 2.480 . S
Eu131 O148 2.430 . S
Eu131 O149 2.670 . S
Eu131 O150 2.394 . S
C132 C130 1.500 . S
C132 C133 1.377 . S
C132 C137 1.377 . S
C133 C132 1.377 . S
C133 C134 1.395 . S
C133 H156 0.931 . S
C134 C133 1.395 . S
C134 C135 1.383 . S
C134 H157 0.931 . S
C135 C134 1.383 . S
C135 C136 1.394 . S
C136 C135 1.394 . S
C136 C137 1.378 . S
C136 H158 0.931 . S
C137 C132 1.377 . S
C137 C136 1.378 . S
C137 H159 0.931 . S
C138 O148 1.259 . S
C138 O149 1.270 . S
C139 O150 1.251 . S
C139 O151 1.251 . S
O140 C120 1.257 . S
O140 Eu121 2.473 . S
O141 C120 1.260 . S
O141 Eu121 2.480 . S
O142 Eu121 2.430 . S
O142 C128 1.259 . S
O143 Eu121 2.670 . S
O143 C128 1.270 . S
O143 Eu131 2.355 . S
O144 Eu121 2.394 . S
O144 C129 1.251 . S
O145 C129 1.251 . S
O145 Eu131 2.374 . S
O146 C130 1.257 . S
O146 Eu131 2.473 . S
O147 C130 1.260 . S
O147 Eu131 2.480 . S
O148 Eu131 2.430 . S
O148 C138 1.259 . S
O149 Eu121 2.355 . S
O149 Eu131 2.670 . S
O149 C138 1.270 . S
O150 Eu131 2.394 . S
O150 C139 1.251 . S
O151 Eu121 2.374 . S
O151 C139 1.251 . S
H152 C123 0.931 . S
H153 C124 0.931 . S
H154 C126 0.931 . S
H155 C127 0.931 . S
H156 C133 0.931 . S
H157 C134 0.931 . S
H158 C136 0.931 . S
H159 C137 0.931 . S
C160 Eu161 2.835 . S
C160 C162 1.500 . S
C160 O180 1.257 . S
C160 O181 1.260 . S
Eu161 C160 2.835 . S
Eu161 O180 2.473 . S
Eu161 O181 2.480 . S
Eu161 O182 2.430 . S
Eu161 O183 2.670 . S
Eu161 O184 2.394 . S
Eu161 O189 2.355 . S
Eu161 O191 2.374 . S
C162 C160 1.500 . S
C162 C163 1.377 . S
C162 C167 1.377 . S
C163 C162 1.377 . S
C163 C164 1.395 . S
C163 H192 0.931 . S
C164 C163 1.395 . S
C164 C165 1.383 . S
C164 H193 0.931 . S
C165 C164 1.383 . S
C165 C166 1.394 . S
C166 C165 1.394 . S
C166 C167 1.378 . S
C166 H194 0.931 . S
C167 C162 1.377 . S
C167 C166 1.378 . S
C167 H195 0.931 . S
C168 O182 1.259 . S
C168 O183 1.270 . S
C169 O184 1.251 . S
C169 O185 1.251 . S
C170 Eu171 2.835 . S
C170 C172 1.500 . S
C170 O186 1.257 . S
C170 O187 1.260 . S
Eu171 C170 2.835 . S
Eu171 O183 2.355 . S
Eu171 O185 2.374 . S
Eu171 O186 2.473 . S
Eu171 O187 2.480 . S
Eu171 O188 2.430 . S
Eu171 O189 2.670 . S
Eu171 O190 2.394 . S
C172 C170 1.500 . S
C172 C173 1.377 . S
C172 C177 1.377 . S
C173 C172 1.377 . S
C173 C174 1.395 . S
C173 H196 0.931 . S
C174 C173 1.395 . S
C174 C175 1.383 . S
C174 H197 0.931 . S
C175 C174 1.383 . S
C175 C176 1.394 . S
C176 C175 1.394 . S
C176 C177 1.378 . S
C176 H198 0.931 . S
C177 C172 1.377 . S
C177 C176 1.378 . S
C177 H199 0.931 . S
C178 O188 1.259 . S
C178 O189 1.270 . S
C179 O190 1.251 . S
C179 O191 1.251 . S
O180 C160 1.257 . S
O180 Eu161 2.473 . S
O181 C160 1.260 . S
O181 Eu161 2.480 . S
O182 Eu161 2.430 . S
O182 C168 1.259 . S
O183 Eu161 2.670 . S
O183 C168 1.270 . S
O183 Eu171 2.355 . S
O184 Eu161 2.394 . S
O184 C169 1.251 . S
O185 C169 1.251 . S
O185 Eu171 2.374 . S
O186 C170 1.257 . S
O186 Eu171 2.473 . S
O187 C170 1.260 . S
O187 Eu171 2.480 . S
O188 Eu171 2.430 . S
O188 C178 1.259 . S
O189 Eu161 2.355 . S
O189 Eu171 2.670 . S
O189 C178 1.270 . S
O190 Eu171 2.394 . S
O190 C179 1.251 . S
O191 Eu161 2.374 . S
O191 C179 1.251 . S
H192 C163 0.931 . S
H193 C164 0.931 . S
H194 C166 0.931 . S
H195 C167 0.931 . S
H196 C173 0.931 . S
H197 C174 0.931 . S
H198 C176 0.931 . S
H199 C177 0.931 . S
C200 Eu201 2.835 . S
C200 C202 1.500 . S
C200 O220 1.257 . S
C200 O221 1.260 . S
Eu201 C200 2.835 . S
Eu201 O220 2.473 . S
Eu201 O221 2.480 . S
Eu201 O222 2.430 . S
Eu201 O223 2.670 . S
Eu201 O224 2.394 . S
Eu201 O229 2.355 1_455 S
Eu201 O231 2.374 1_455 S
C202 C200 1.500 . S
C202 C203 1.377 . S
C202 C207 1.377 . S
C203 C202 1.377 . S
C203 C204 1.395 . S
C203 H232 0.931 . S
C204 C203 1.395 . S
C204 C205 1.383 . S
C204 H233 0.931 . S
C205 C204 1.383 . S
C205 C206 1.394 . S
C206 C205 1.394 . S
C206 C207 1.378 . S
C206 H234 0.931 . S
C207 C202 1.377 . S
C207 C206 1.378 . S
C207 H235 0.931 . S
C208 O222 1.259 . S
C208 O223 1.270 . S
C209 O224 1.251 . S
C209 O225 1.251 . S
C210 Eu211 2.835 . S
C210 C212 1.500 . S
C210 O226 1.257 . S
C210 O227 1.260 . S
Eu211 C210 2.835 . S
Eu211 O223 2.355 1_655 S
Eu211 O225 2.374 1_655 S
Eu211 O226 2.473 . S
Eu211 O227 2.480 . S
Eu211 O228 2.430 . S
Eu211 O229 2.670 . S
Eu211 O230 2.394 . S
C212 C210 1.500 . S
C212 C213 1.377 . S
C212 C217 1.377 . S
C213 C212 1.377 . S
C213 C214 1.395 . S
C213 H236 0.931 . S
C214 C213 1.395 . S
C214 C215 1.383 . S
C214 H237 0.931 . S
C215 C214 1.383 . S
C215 C216 1.394 . S
C216 C215 1.394 . S
C216 C217 1.378 . S
C216 H238 0.931 . S
C217 C212 1.377 . S
C217 C216 1.378 . S
C217 H239 0.931 . S
C218 O228 1.259 . S
C218 O229 1.270 . S
C219 O230 1.251 . S
C219 O231 1.251 . S
O220 C200 1.257 . S
O220 Eu201 2.473 . S
O221 C200 1.260 . S
O221 Eu201 2.480 . S
O222 Eu201 2.430 . S
O222 C208 1.259 . S
O223 Eu201 2.670 . S
O223 C208 1.270 . S
O223 Eu211 2.355 1_455 S
O224 Eu201 2.394 . S
O224 C209 1.251 . S
O225 C209 1.251 . S
O225 Eu211 2.374 1_455 S
O226 C210 1.257 . S
O226 Eu211 2.473 . S
O227 C210 1.260 . S
O227 Eu211 2.480 . S
O228 Eu211 2.430 . S
O228 C218 1.259 . S
O229 Eu201 2.355 1_655 S
O229 Eu211 2.670 . S
O229 C218 1.270 . S
O230 Eu211 2.394 . S
O230 C219 1.251 . S
O231 Eu201 2.374 1_655 S
O231 C219 1.251 . S
H232 C203 0.931 . S
H233 C204 0.931 . S
H234 C206 0.931 . S
H235 C207 0.931 . S
H236 C213 0.931 . S
H237 C214 0.931 . S
H238 C216 0.931 . S
H239 C217 0.931 . S
C240 Eu241 2.835 . S
C240 C242 1.500 . S
C240 O260 1.257 . S
C240 O261 1.260 . S
Eu241 C240 2.835 . S
Eu241 O260 2.473 . S
Eu241 O261 2.480 . S
Eu241 O262 2.430 . S
Eu241 O263 2.670 . S
Eu241 O264 2.394 . S
Eu241 O269 2.355 1_556 S
Eu241 O271 2.374 1_556 S
C242 C240 1.500 . S
C242 C243 1.377 . S
C242 C247 1.377 . S
C243 C242 1.377 . S
C243 C244 1.395 . S
C243 H272 0.931 . S
C244 C243 1.395 . S
C244 C245 1.383 . S
C244 H273 0.931 . S
C245 C244 1.383 . S
C245 C246 1.394 . S
C246 C245 1.394 . S
C246 C247 1.378 . S
C246 H274 0.931 . S
C247 C242 1.377 . S
C247 C246 1.378 . S
C247 H275 0.931 . S
C248 O262 1.259 . S
C248 O263 1.270 . S
C249 O264 1.251 . S
C249 O265 1.251 . S
C250 Eu251 2.835 . S
C250 C252 1.500 . S
C250 O266 1.257 . S
C250 O267 1.260 . S
Eu251 C250 2.835 . S
Eu251 O263 2.355 1_554 S
Eu251 O265 2.374 1_554 S
Eu251 O266 2.473 . S
Eu251 O267 2.480 . S
Eu251 O268 2.430 . S
Eu251 O269 2.670 . S
Eu251 O270 2.394 . S
C252 C250 1.500 . S
C252 C253 1.377 . S
C252 C257 1.377 . S
C253 C252 1.377 . S
C253 C254 1.395 . S
C253 H276 0.931 . S
C254 C253 1.395 . S
C254 C255 1.383 . S
C254 H277 0.931 . S
C255 C254 1.383 . S
C255 C256 1.394 . S
C256 C255 1.394 . S
C256 C257 1.378 . S
C256 H278 0.931 . S
C257 C252 1.377 . S
C257 C256 1.378 . S
C257 H279 0.931 . S
C258 O268 1.259 . S
C258 O269 1.270 . S
C259 O270 1.251 . S
C259 O271 1.251 . S
O260 C240 1.257 . S
O260 Eu241 2.473 . S
O261 C240 1.260 . S
O261 Eu241 2.480 . S
O262 Eu241 2.430 . S
O262 C248 1.259 . S
O263 Eu241 2.670 . S
O263 C248 1.270 . S
O263 Eu251 2.355 1_556 S
O264 Eu241 2.394 . S
O264 C249 1.251 . S
O265 C249 1.251 . S
O265 Eu251 2.374 1_556 S
O266 C250 1.257 . S
O266 Eu251 2.473 . S
O267 C250 1.260 . S
O267 Eu251 2.480 . S
O268 Eu251 2.430 . S
O268 C258 1.259 . S
O269 Eu241 2.355 1_554 S
O269 Eu251 2.670 . S
O269 C258 1.270 . S
O270 Eu251 2.394 . S
O270 C259 1.251 . S
O271 Eu241 2.374 1_554 S
O271 C259 1.251 . S
H272 C243 0.931 . S
H273 C244 0.931 . S
H274 C246 0.931 . S
H275 C247 0.931 . S
H276 C253 0.931 . S
H277 C254 0.931 . S
H278 C256 0.931 . S
H279 C257 0.931 . S
C280 Eu281 2.835 . S
C280 C282 1.500 . S
C280 O300 1.257 . S
C280 O301 1.260 . S
Eu281 C280 2.835 . S
Eu281 O300 2.473 . S
Eu281 O301 2.480 . S
Eu281 O302 2.430 . S
Eu281 O303 2.670 . S
Eu281 O304 2.394 . S
Eu281 O309 2.355 . S
Eu281 O311 2.374 . S
C282 C280 1.500 . S
C282 C283 1.377 . S
C282 C287 1.377 . S
C283 C282 1.377 . S
C283 C284 1.395 . S
C283 H312 0.931 . S
C284 C283 1.395 . S
C284 C285 1.383 . S
C284 H313 0.931 . S
C285 C284 1.383 . S
C285 C286 1.394 . S
C286 C285 1.394 . S
C286 C287 1.378 . S
C286 H314 0.931 . S
C287 C282 1.377 . S
C287 C286 1.378 . S
C287 H315 0.931 . S
C288 O302 1.259 . S
C288 O303 1.270 . S
C289 O304 1.251 . S
C289 O305 1.251 . S
C290 Eu291 2.835 . S
C290 C292 1.500 . S
C290 O306 1.257 . S
C290 O307 1.260 . S
Eu291 C290 2.835 . S
Eu291 O303 2.355 . S
Eu291 O305 2.374 . S
Eu291 O306 2.473 . S
Eu291 O307 2.480 . S
Eu291 O308 2.430 . S
Eu291 O309 2.670 . S
Eu291 O310 2.394 . S
C292 C290 1.500 . S
C292 C293 1.377 . S
C292 C297 1.377 . S
C293 C292 1.377 . S
C293 C294 1.395 . S
C293 H316 0.931 . S
C294 C293 1.395 . S
C294 C295 1.383 . S
C294 H317 0.931 . S
C295 C294 1.383 . S
C295 C296 1.394 . S
C296 C295 1.394 . S
C296 C297 1.378 . S
C296 H318 0.931 . S
C297 C292 1.377 . S
C297 C296 1.378 . S
C297 H319 0.931 . S
C298 O308 1.259 . S
C298 O309 1.270 . S
C299 O310 1.251 . S
C299 O311 1.251 . S
O300 C280 1.257 . S
O300 Eu281 2.473 . S
O301 C280 1.260 . S
O301 Eu281 2.480 . S
O302 Eu281 2.430 . S
O302 C288 1.259 . S
O303 Eu281 2.670 . S
O303 C288 1.270 . S
O303 Eu291 2.355 . S
O304 Eu281 2.394 . S
O304 C289 1.251 . S
O305 C289 1.251 . S
O305 Eu291 2.374 . S
O306 C290 1.257 . S
O306 Eu291 2.473 . S
O307 C290 1.260 . S
O307 Eu291 2.480 . S
O308 Eu291 2.430 . S
O308 C298 1.259 . S
O309 Eu281 2.355 . S
O309 Eu291 2.670 . S
O309 C298 1.270 . S
O310 Eu291 2.394 . S
O310 C299 1.251 . S
O311 Eu281 2.374 . S
O311 C299 1.251 . S
H312 C283 0.931 . S
H313 C284 0.931 . S
H314 C286 0.931 . S
H315 C287 0.931 . S
H316 C293 0.931 . S
H317 C294 0.931 . S
H318 C296 0.931 . S
H319 C297 0.931 . S
C320 Eu321 2.835 . S
C320 C322 1.500 . S
C320 O340 1.257 . S
C320 O341 1.260 . S
Eu321 C320 2.835 . S
Eu321 O340 2.473 . S
Eu321 O341 2.480 . S
Eu321 O342 2.430 . S
Eu321 O343 2.670 . S
Eu321 O344 2.394 . S
Eu321 O349 2.355 . S
Eu321 O351 2.374 . S
C322 C320 1.500 . S
C322 C323 1.377 . S
C322 C327 1.377 . S
C323 C322 1.377 . S
C323 C324 1.395 . S
C323 H352 0.931 . S
C324 C323 1.395 . S
C324 C325 1.383 . S
C324 H353 0.931 . S
C325 C324 1.383 . S
C325 C326 1.394 . S
C326 C325 1.394 . S
C326 C327 1.378 . S
C326 H354 0.931 . S
C327 C322 1.377 . S
C327 C326 1.378 . S
C327 H355 0.931 . S
C328 O342 1.259 . S
C328 O343 1.270 . S
C329 O344 1.251 . S
C329 O345 1.251 . S
C330 Eu331 2.835 . S
C330 C332 1.500 . S
C330 O346 1.257 . S
C330 O347 1.260 . S
Eu331 C330 2.835 . S
Eu331 O343 2.355 . S
Eu331 O345 2.374 . S
Eu331 O346 2.473 . S
Eu331 O347 2.480 . S
Eu331 O348 2.430 . S
Eu331 O349 2.670 . S
Eu331 O350 2.394 . S
C332 C330 1.500 . S
C332 C333 1.377 . S
C332 C337 1.377 . S
C333 C332 1.377 . S
C333 C334 1.395 . S
C333 H356 0.931 . S
C334 C333 1.395 . S
C334 C335 1.383 . S
C334 H357 0.931 . S
C335 C334 1.383 . S
C335 C336 1.394 . S
C336 C335 1.394 . S
C336 C337 1.378 . S
C336 H358 0.931 . S
C337 C332 1.377 . S
C337 C336 1.378 . S
C337 H359 0.931 . S
C338 O348 1.259 . S
C338 O349 1.270 . S
C339 O350 1.251 . S
C339 O351 1.251 . S
O340 C320 1.257 . S
O340 Eu321 2.473 . S
O341 C320 1.260 . S
O341 Eu321 2.480 . S
O342 Eu321 2.430 . S
O342 C328 1.259 . S
O343 Eu321 2.670 . S
O343 C328 1.270 . S
O343 Eu331 2.355 . S
O344 Eu321 2.394 . S
O344 C329 1.251 . S
O345 C329 1.251 . S
O345 Eu331 2.374 . S
O346 C330 1.257 . S
O346 Eu331 2.473 . S
O347 C330 1.260 . S
O347 Eu331 2.480 . S
O348 Eu331 2.430 . S
O348 C338 1.259 . S
O349 Eu321 2.355 . S
O349 Eu331 2.670 . S
O349 C338 1.270 . S
O350 Eu331 2.394 . S
O350 C339 1.251 . S
O351 Eu321 2.374 . S
O351 C339 1.251 . S
H352 C323 0.931 . S
H353 C324 0.931 . S
H354 C326 0.931 . S
H355 C327 0.931 . S
H356 C333 0.931 . S
H357 C334 0.931 . S
H358 C336 0.931 . S
H359 C337 0.931 . S
C360 Eu361 2.835 . S
C360 C362 1.500 . S
C360 O380 1.257 . S
C360 O381 1.260 . S
Eu361 C360 2.835 . S
Eu361 O380 2.473 . S
Eu361 O381 2.480 . S
Eu361 O382 2.430 . S
Eu361 O383 2.670 1_565 S
Eu361 O384 2.394 . S
Eu361 O389 2.355 1_565 S
Eu361 O391 2.374 1_565 S
C362 C360 1.500 . S
C362 C363 1.377 . S
C362 C367 1.377 . S
C363 C362 1.377 . S
C363 C364 1.395 . S
C363 H392 0.931 . S
C364 C363 1.395 . S
C364 C365 1.383 . S
C364 H393 0.931 . S
C365 C364 1.383 . S
C365 C366 1.394 . S
C366 C365 1.394 . S
C366 C367 1.378 . S
C366 H394 0.931 . S
C367 C362 1.377 . S
C367 C366 1.378 . S
C367 H395 0.931 . S
C368 O382 1.259 . S
C368 O383 1.270 1_565 S
C369 O384 1.251 . S
C369 O385 1.251 . S
C370 Eu371 2.835 . S
C370 C372 1.500 . S
C370 O386 1.257 . S
C370 O387 1.260 . S
Eu371 C370 2.835 . S
Eu371 O383 2.355 . S
Eu371 O385 2.374 1_545 S
Eu371 O386 2.473 . S
Eu371 O387 2.480 . S
Eu371 O388 2.430 . S
Eu371 O389 2.670 . S
Eu371 O390 2.394 . S
C372 C370 1.500 . S
C372 C373 1.377 . S
C372 C377 1.377 . S
C373 C372 1.377 . S
C373 C374 1.395 . S
C373 H396 0.931 . S
C374 C373 1.395 . S
C374 C375 1.383 . S
C374 H397 0.931 . S
C375 C374 1.383 . S
C375 C376 1.394 . S
C376 C375 1.394 . S
C376 C377 1.378 . S
C376 H398 0.931 . S
C377 C372 1.377 . S
C377 C376 1.378 . S
C377 H399 0.931 . S
C378 O388 1.259 . S
C378 O389 1.270 . S
C379 O390 1.251 . S
C379 O391 1.251 . S
O380 C360 1.257 . S
O380 Eu361 2.473 . S
O381 C360 1.260 . S
O381 Eu361 2.480 . S
O382 Eu361 2.430 . S
O382 C368 1.259 . S
O383 Eu361 2.670 1_545 S
O383 C368 1.270 1_545 S
O383 Eu371 2.355 . S
O384 Eu361 2.394 . S
O384 C369 1.251 . S
O385 C369 1.251 . S
O385 Eu371 2.374 1_565 S
O386 C370 1.257 . S
O386 Eu371 2.473 . S
O387 C370 1.260 . S
O387 Eu371 2.480 . S
O388 Eu371 2.430 . S
O388 C378 1.259 . S
O389 Eu361 2.355 1_545 S
O389 Eu371 2.670 . S
O389 C378 1.270 . S
O390 Eu371 2.394 . S
O390 C379 1.251 . S
O391 Eu361 2.374 1_545 S
O391 C379 1.251 . S
H392 C363 0.931 . S
H393 C364 0.931 . S
H394 C366 0.931 . S
H395 C367 0.931 . S
H396 C373 0.931 . S
H397 C374 0.931 . S
H398 C376 0.931 . S
H399 C377 0.931 . S
C400 Eu401 2.835 . S
C400 C402 1.500 . S
C400 O420 1.257 . S
C400 O421 1.260 . S
Eu401 C400 2.835 . S
Eu401 O420 2.473 . S
Eu401 O421 2.480 . S
Eu401 O422 2.430 . S
Eu401 O423 2.670 . S
Eu401 O424 2.394 . S
Eu401 O429 2.355 1_545 S
Eu401 O431 2.374 1_545 S
C402 C400 1.500 . S
C402 C403 1.377 . S
C402 C407 1.377 . S
C403 C402 1.377 . S
C403 C404 1.395 . S
C403 H432 0.931 . S
C404 C403 1.395 . S
C404 C405 1.383 . S
C404 H433 0.931 . S
C405 C404 1.383 . S
C405 C406 1.394 . S
C406 C405 1.394 . S
C406 C407 1.378 . S
C406 H434 0.931 . S
C407 C402 1.377 . S
C407 C406 1.378 . S
C407 H435 0.931 . S
C408 O422 1.259 . S
C408 O423 1.270 . S
C409 O424 1.251 . S
C409 O425 1.251 . S
C410 Eu411 2.835 . S
C410 C412 1.500 . S
C410 O426 1.257 . S
C410 O427 1.260 . S
Eu411 C410 2.835 . S
Eu411 O423 2.355 1_565 S
Eu411 O425 2.374 1_565 S
Eu411 O426 2.473 . S
Eu411 O427 2.480 . S
Eu411 O428 2.430 . S
Eu411 O429 2.670 . S
Eu411 O430 2.394 . S
C412 C410 1.500 . S
C412 C413 1.377 . S
C412 C417 1.377 . S
C413 C412 1.377 . S
C413 C414 1.395 . S
C413 H436 0.931 . S
C414 C413 1.395 . S
C414 C415 1.383 . S
C414 H437 0.931 . S
C415 C414 1.383 . S
C415 C416 1.394 . S
C416 C415 1.394 . S
C416 C417 1.378 . S
C416 H438 0.931 . S
C417 C412 1.377 . S
C417 C416 1.378 . S
C417 H439 0.931 . S
C418 O428 1.259 . S
C418 O429 1.270 . S
C419 O430 1.251 . S
C419 O431 1.251 . S
O420 C400 1.257 . S
O420 Eu401 2.473 . S
O421 C400 1.260 . S
O421 Eu401 2.480 . S
O422 Eu401 2.430 . S
O422 C408 1.259 . S
O423 Eu401 2.670 . S
O423 C408 1.270 . S
O423 Eu411 2.355 1_545 S
O424 Eu401 2.394 . S
O424 C409 1.251 . S
O425 C409 1.251 . S
O425 Eu411 2.374 1_545 S
O426 C410 1.257 . S
O426 Eu411 2.473 . S
O427 C410 1.260 . S
O427 Eu411 2.480 . S
O428 Eu411 2.430 . S
O428 C418 1.259 . S
O429 Eu401 2.355 1_565 S
O429 Eu411 2.670 . S
O429 C418 1.270 . S
O430 Eu411 2.394 . S
O430 C419 1.251 . S
O431 Eu401 2.374 1_565 S
O431 C419 1.251 . S
H432 C403 0.931 . S
H433 C404 0.931 . S
H434 C406 0.931 . S
H435 C407 0.931 . S
H436 C413 0.931 . S
H437 C414 0.931 . S
H438 C416 0.931 . S
H439 C417 0.931 . S
C440 Eu441 2.835 . S
C440 C442 1.500 . S
C440 O460 1.257 . S
C440 O461 1.260 . S
Eu441 C440 2.835 . S
Eu441 O460 2.473 . S
Eu441 O461 2.480 . S
Eu441 O462 2.430 . S
Eu441 O463 2.670 . S
Eu441 O464 2.394 . S
Eu441 O469 2.355 . S
Eu441 O471 2.374 . S
C442 C440 1.500 . S
C442 C443 1.377 . S
C442 C447 1.377 . S
C443 C442 1.377 . S
C443 C444 1.395 . S
C443 H472 0.931 . S
C444 C443 1.395 . S
C444 C445 1.383 . S
C444 H473 0.931 . S
C445 C444 1.383 . S
C445 C446 1.394 . S
C446 C445 1.394 . S
C446 C447 1.378 . S
C446 H474 0.931 . S
C447 C442 1.377 . S
C447 C446 1.378 . S
C447 H475 0.931 . S
C448 O462 1.259 . S
C448 O463 1.270 . S
C449 O464 1.251 . S
C449 O465 1.251 . S
C450 Eu451 2.835 . S
C450 C452 1.500 . S
C450 O466 1.257 . S
C450 O467 1.260 . S
Eu451 C450 2.835 . S
Eu451 O463 2.355 . S
Eu451 O465 2.374 . S
Eu451 O466 2.473 . S
Eu451 O467 2.480 . S
Eu451 O468 2.430 . S
Eu451 O469 2.670 . S
Eu451 O470 2.394 . S
C452 C450 1.500 . S
C452 C453 1.377 . S
C452 C457 1.377 . S
C453 C452 1.377 . S
C453 C454 1.395 . S
C453 H476 0.931 . S
C454 C453 1.395 . S
C454 C455 1.383 . S
C454 H477 0.931 . S
C455 C454 1.383 . S
C455 C456 1.394 . S
C456 C455 1.394 . S
C456 C457 1.378 . S
C456 H478 0.931 . S
C457 C452 1.377 . S
C457 C456 1.378 . S
C457 H479 0.931 . S
C458 O468 1.259 . S
C458 O469 1.270 . S
C459 O470 1.251 . S
C459 O471 1.251 . S
O460 C440 1.257 . S
O460 Eu441 2.473 . S
O461 C440 1.260 . S
O461 Eu441 2.480 . S
O462 Eu441 2.430 . S
O462 C448 1.259 . S
O463 Eu441 2.670 . S
O463 C448 1.270 . S
O463 Eu451 2.355 . S
O464 Eu441 2.394 . S
O464 C449 1.251 . S
O465 C449 1.251 . S
O465 Eu451 2.374 . S
O466 C450 1.257 . S
O466 Eu451 2.473 . S
O467 C450 1.260 . S
O467 Eu451 2.480 . S
O468 Eu451 2.430 . S
O468 C458 1.259 . S
O469 Eu441 2.355 . S
O469 Eu451 2.670 . S
O469 C458 1.270 . S
O470 Eu451 2.394 . S
O470 C459 1.251 . S
O471 Eu441 2.374 . S
O471 C459 1.251 . S
H472 C443 0.931 . S
H473 C444 0.931 . S
H474 C446 0.931 . S
H475 C447 0.931 . S
H476 C453 0.931 . S
H477 C454 0.931 . S
H478 C456 0.931 . S
H479 C457 0.931 . S
C480 C481 1.363 . S
C480 C486 1.379 . S
C480 N488 1.356 . S
C481 C480 1.363 . S
C481 C487 1.363 . S
C482 C483 1.363 . S
C482 C487 1.379 . S
C482 N489 1.356 . S
C483 C482 1.363 . S
C483 C486 1.363 . S
N484 C486 1.356 . S
N484 H496 0.984 . S
N484 H497 0.985 . S
N485 C487 1.356 . S
N485 H490 0.984 . S
N485 H491 0.985 . S
C486 C480 1.379 . S
C486 C483 1.363 . S
C486 N484 1.356 . S
C487 C481 1.363 . S
C487 C482 1.379 . S
C487 N485 1.356 . S
N488 C480 1.356 . S
N488 H494 0.984 . S
N488 H495 0.984 . S
N489 C482 1.356 . S
N489 H492 0.984 . S
N489 H493 0.985 . S
H490 N485 0.984 . S
H491 N485 0.985 . S
H492 N489 0.984 . S
H493 N489 0.985 . S
H494 N488 0.984 . S
H495 N488 0.984 . S
H496 N484 0.984 . S
H497 N484 0.985 . S
C498 C499 1.363 . S
C498 C504 1.379 . S
C498 N506 1.356 . S
C499 C498 1.363 . S
C499 C505 1.363 . S
C500 C501 1.363 . S
C500 C505 1.379 . S
C500 N507 1.356 . S
C501 C500 1.363 . S
C501 C504 1.363 . S
N502 C504 1.356 . S
N502 H514 0.984 . S
N502 H515 0.985 . S
N503 C505 1.356 . S
N503 H508 0.984 . S
N503 H509 0.985 . S
C504 C498 1.379 . S
C504 C501 1.363 . S
C504 N502 1.356 . S
C505 C499 1.363 . S
C505 C500 1.379 . S
C505 N503 1.356 . S
N506 C498 1.356 . S
N506 H512 0.984 . S
N506 H513 0.984 . S
N507 C500 1.356 . S
N507 H510 0.984 . S
N507 H511 0.985 . S
H508 N503 0.984 . S
H509 N503 0.985 . S
H510 N507 0.984 . S
H511 N507 0.985 . S
H512 N506 0.984 . S
H513 N506 0.984 . S
H514 N502 0.984 . S
H515 N502 0.985 . S
C516 C517 1.363 . S
C516 C522 1.379 . S
C516 N524 1.356 . S
C517 C516 1.363 . S
C517 C523 1.363 . S
C518 C519 1.363 . S
C518 C523 1.379 . S
C518 N525 1.356 . S
C519 C518 1.363 . S
C519 C522 1.363 . S
N520 C522 1.356 . S
N520 H532 0.984 . S
N520 H533 0.985 . S
N521 C523 1.356 1_556 S
N521 H526 0.984 . S
N521 H527 0.985 . S
C522 C516 1.379 . S
C522 C519 1.363 . S
C522 N520 1.356 . S
C523 C517 1.363 . S
C523 C518 1.379 . S
C523 N521 1.356 1_554 S
N524 C516 1.356 . S
N524 H530 0.984 . S
N524 H531 0.984 . S
N525 C518 1.356 . S
N525 H528 0.984 . S
N525 H529 0.985 1_554 S
H526 N521 0.984 . S
H527 N521 0.985 . S
H528 N525 0.984 . S
H529 N525 0.985 1_556 S
H530 N524 0.984 . S
H531 N524 0.984 . S
H532 N520 0.984 . S
H533 N520 0.985 . S
C534 C535 1.363 . S
C534 C540 1.379 . S
C534 N542 1.356 . S
C535 C534 1.363 . S
C535 C541 1.363 . S
C536 C537 1.363 . S
C536 C541 1.379 . S
C536 N543 1.356 . S
C537 C536 1.363 . S
C537 C540 1.363 . S
N538 C540 1.356 1_565 S
N538 H550 0.984 . S
N538 H551 0.985 . S
N539 C541 1.356 . S
N539 H544 0.984 . S
N539 H545 0.985 . S
C540 C534 1.379 . S
C540 C537 1.363 . S
C540 N538 1.356 1_545 S
C541 C535 1.363 . S
C541 C536 1.379 . S
C541 N539 1.356 . S
N542 C534 1.356 . S
N542 H548 0.984 1_545 S
N542 H549 0.984 . S
N543 C536 1.356 . S
N543 H546 0.984 . S
N543 H547 0.985 . S
H544 N539 0.984 . S
H545 N539 0.985 . S
H546 N543 0.984 . S
H547 N543 0.985 . S
H548 N542 0.984 1_565 S
H549 N542 0.984 . S
H550 N538 0.984 . S
H551 N538 0.985 . S
C552 C553 1.363 . S
C552 C558 1.379 . S
C552 N560 1.356 . S
C553 C552 1.363 . S
C553 C559 1.363 . S
C554 C555 1.363 . S
C554 C559 1.379 . S
C554 N561 1.356 . S
C555 C554 1.363 . S
C555 C558 1.363 . S
N556 C558 1.356 . S
N556 H568 0.984 . S
N556 H569 0.985 . S
N557 C559 1.356 . S
N557 H562 0.984 . S
N557 H563 0.985 . S
C558 C552 1.379 . S
C558 C555 1.363 . S
C558 N556 1.356 . S
C559 C553 1.363 . S
C559 C554 1.379 . S
C559 N557 1.356 . S
N560 C552 1.356 . S
N560 H566 0.984 . S
N560 H567 0.984 . S
N561 C554 1.356 . S
N561 H564 0.984 . S
N561 H565 0.985 . S
H562 N557 0.984 . S
H563 N557 0.985 . S
H564 N561 0.984 . S
H565 N561 0.985 . S
H566 N560 0.984 . S
H567 N560 0.984 . S
H568 N556 0.984 . S
H569 N556 0.985 . S
C570 C571 1.363 . S
C570 C576 1.379 . S
C570 N578 1.356 . S
C571 C570 1.363 . S
C571 C577 1.363 . S
C572 C573 1.363 . S
C572 C577 1.379 . S
C572 N579 1.356 . S
C573 C572 1.363 . S
C573 C576 1.363 . S
N574 C576 1.356 . S
N574 H586 0.984 . S
N574 H587 0.985 . S
N575 C577 1.356 . S
N575 H580 0.984 . S
N575 H581 0.985 . S
C576 C570 1.379 . S
C576 C573 1.363 . S
C576 N574 1.356 . S
C577 C571 1.363 . S
C577 C572 1.379 . S
C577 N575 1.356 . S
N578 C570 1.356 . S
N578 H584 0.984 . S
N578 H585 0.984 . S
N579 C572 1.356 . S
N579 H582 0.984 . S
N579 H583 0.985 . S
H580 N575 0.984 . S
H581 N575 0.985 . S
H582 N579 0.984 . S
H583 N579 0.985 . S
H584 N578 0.984 . S
H585 N578 0.984 . S
H586 N574 0.984 . S
H587 N574 0.985 . S
C588 C589 1.363 . S
C588 C594 1.379 . S
C588 N596 1.356 . S
C589 C588 1.363 . S
C589 C595 1.363 . S
C590 C591 1.363 . S
C590 C595 1.379 . S
C590 N597 1.356 1_556 S
C591 C590 1.363 . S
C591 C594 1.363 . S
N592 C594 1.356 . S
N592 H604 0.984 . S
N592 H605 0.985 . S
N593 C595 1.356 . S
N593 H598 0.984 . S
N593 H599 0.985 1_556 S
C594 C588 1.379 . S
C594 C591 1.363 . S
C594 N592 1.356 . S
C595 C589 1.363 . S
C595 C590 1.379 . S
C595 N593 1.356 . S
N596 C588 1.356 . S
N596 H602 0.984 . S
N596 H603 0.984 . S
N597 C590 1.356 1_554 S
N597 H600 0.987 . S
N597 H601 0.985 . S
H598 N593 0.984 . S
H599 N593 0.985 1_554 S
H600 N597 0.987 . S
H601 N597 0.985 . S
H602 N596 0.984 . S
H603 N596 0.984 . S
H604 N592 0.984 . S
H605 N592 0.985 . S
C606 C607 1.363 . S
C606 C612 1.379 . S
C606 N614 1.356 . S
C607 C606 1.363 . S
C607 C613 1.363 . S
C608 C609 1.363 . S
C608 C613 1.379 . S
C608 N615 1.356 . S
C609 C608 1.363 . S
C609 C612 1.363 . S
N610 C612 1.356 . S
N610 H622 0.984 . S
N610 H623 0.985 . S
N611 C613 1.356 . S
N611 H616 0.984 . S
N611 H617 0.985 . S
C612 C606 1.379 . S
C612 C609 1.363 . S
C612 N610 1.356 . S
C613 C607 1.363 . S
C613 C608 1.379 . S
C613 N611 1.356 . S
N614 C606 1.356 . S
N614 H620 0.984 . S
N614 H621 0.984 . S
N615 C608 1.356 . S
N615 H618 0.984 . S
N615 H619 0.985 . S
H616 N611 0.984 . S
H617 N611 0.985 . S
H618 N615 0.984 . S
H619 N615 0.985 . S
H620 N614 0.984 . S
H621 N614 0.984 . S
H622 N610 0.984 . S
H623 N610 0.985 . S
C624 C625 1.363 . S
C624 C630 1.379 . S
C624 N632 1.356 . S
C625 C624 1.363 . S
C625 C631 1.363 . S
C626 C627 1.363 . S
C626 C631 1.379 . S
C626 N633 1.356 . S
C627 C626 1.363 . S
C627 C630 1.363 . S
N628 C630 1.356 . S
N628 H640 0.984 . S
N628 H641 0.985 . S
N629 C631 1.356 . S
N629 H634 0.984 . S
N629 H635 0.985 . S
C630 C624 1.379 . S
C630 C627 1.363 . S
C630 N628 1.356 . S
C631 C625 1.363 . S
C631 C626 1.379 . S
C631 N629 1.356 . S
N632 C624 1.356 . S
N632 H638 0.984 . S
N632 H639 0.984 . S
N633 C626 1.356 . S
N633 H636 0.984 . S
N633 H637 0.985 . S
H634 N629 0.984 . S
H635 N629 0.985 . S
H636 N633 0.984 . S
H637 N633 0.985 . S
H638 N632 0.984 . S
H639 N632 0.984 . S
H640 N628 0.984 . S
H641 N628 0.985 . S
C642 C643 1.363 . S
C642 C648 1.379 . S
C642 N650 1.356 . S
C643 C642 1.363 . S
C643 C649 1.363 . S
C644 C645 1.363 . S
C644 C649 1.379 . S
C644 N651 1.356 1_455 S
C645 C644 1.363 . S
C645 C648 1.363 . S
N646 C648 1.356 . S
N646 H658 0.984 . S
N646 H659 0.985 . S
N647 C649 1.356 1_655 S
N647 H652 0.984 1_655 S
N647 H653 0.985 . S
C648 C642 1.379 . S
C648 C645 1.363 . S
C648 N646 1.356 . S
C649 C643 1.363 . S
C649 C644 1.379 . S
C649 N647 1.356 1_455 S
N650 C642 1.356 . S
N650 H656 0.984 . S
N650 H657 0.984 . S
N651 C644 1.356 1_655 S
N651 H654 0.984 . S
N651 H655 0.985 . S
H652 N647 0.984 1_455 S
H653 N647 0.985 . S
H654 N651 0.984 . S
H655 N651 0.985 . S
H656 N650 0.984 . S
H657 N650 0.984 . S
H658 N646 0.984 . S
H659 N646 0.985 . S
C660 C661 1.363 . S
C660 C666 1.379 . S
C660 N668 1.356 . S
C661 C660 1.363 . S
C661 C667 1.363 . S
C662 C663 1.363 . S
C662 C667 1.379 . S
C662 N669 1.356 . S
C663 C662 1.363 . S
C663 C666 1.363 . S
N664 C666 1.356 . S
N664 H676 0.984 . S
N664 H677 0.985 . S
N665 C667 1.356 . S
N665 H670 0.984 . S
N665 H671 0.985 . S
C666 C660 1.379 . S
C666 C663 1.363 . S
C666 N664 1.356 . S
C667 C661 1.363 . S
C667 C662 1.379 . S
C667 N665 1.356 . S
N668 C660 1.356 . S
N668 H674 0.984 1_655 S
N668 H675 0.984 1_655 S
N669 C662 1.356 . S
N669 H672 0.984 . S
N669 H673 0.985 . S
H670 N665 0.984 . S
H671 N665 0.985 . S
H672 N669 0.984 . S
H673 N669 0.985 . S
H674 N668 0.984 1_455 S
H675 N668 0.984 1_455 S
H676 N664 0.984 . S
H677 N664 0.985 . S
C678 C679 1.363 . S
C678 C684 1.379 . S
C678 N686 1.356 . S
C679 C678 1.363 . S
C679 C685 1.363 . S
C680 C681 1.363 . S
C680 C685 1.379 . S
C680 N687 1.356 . S
C681 C680 1.363 . S
C681 C684 1.363 . S
N682 C684 1.356 . S
N682 H694 0.984 . S
N682 H695 0.985 . S
N683 C685 1.356 . S
N683 H688 0.984 . S
N683 H689 0.985 . S
C684 C678 1.379 . S
C684 C681 1.363 . S
C684 N682 1.356 . S
C685 C679 1.363 . S
C685 C680 1.379 . S
C685 N683 1.356 . S
N686 C678 1.356 . S
N686 H692 0.984 . S
N686 H693 0.984 . S
N687 C680 1.356 . S
N687 H690 0.984 . S
N687 H691 0.985 . S
H688 N683 0.984 . S
H689 N683 0.985 . S
H690 N687 0.984 . S
H691 N687 0.985 . S
H692 N686 0.984 . S
H693 N686 0.984 . S
H694 N682 0.984 . S
H695 N682 0.985 . S
C696 C697 1.363 . S
C696 C702 1.379 . S
C696 N704 1.356 . S
C697 C696 1.363 . S
C697 C703 1.363 . S
C698 C699 1.363 . S
C698 C703 1.379 . S
C698 N705 1.356 . S
C699 C698 1.363 . S
C699 C702 1.363 . S
N700 C702 1.356 . S
N700 H712 0.984 . S
N700 H713 0.985 . S
N701 C703 1.356 . S
N701 H706 0.984 . S
N701 H707 0.985 . S
C702 C696 1.379 . S
C702 C699 1.363 . S
C702 N700 1.356 . S
C703 C697 1.363 . S
C703 C698 1.379 . S
C703 N701 1.356 . S
N704 C696 1.356 . S
N704 H710 0.984 . S
N704 H711 0.984 . S
N705 C698 1.356 . S
N705 H708 0.984 . S
N705 H709 0.985 . S
H706 N701 0.984 . S
H707 N701 0.985 . S
H708 N705 0.984 . S
H709 N705 0.985 . S
H710 N704 0.984 . S
H711 N704 0.984 . S
H712 N700 0.984 . S
H713 N700 0.985 . S
C714 C715 1.363 . S
C714 C720 1.379 . S
C714 N722 1.356 . S
C715 C714 1.363 . S
C715 C721 1.363 . S
C716 C717 1.363 . S
C716 C721 1.379 . S
C716 N723 1.358 1_565 S
C717 C716 1.363 . S
C717 C720 1.363 . S
N718 C720 1.356 . S
N718 H730 0.984 . S
N718 H731 0.985 . S
N719 C721 1.356 . S
N719 H724 0.984 . S
N719 H725 0.985 . S
C720 C714 1.379 . S
C720 C717 1.363 . S
C720 N718 1.356 . S
C721 C715 1.363 . S
C721 C716 1.379 . S
C721 N719 1.356 . S
N722 C714 1.356 . S
N722 H728 0.984 . S
N722 H729 0.984 . S
N723 C716 1.358 1_545 S
N723 H726 0.984 . S
N723 H727 0.983 . S
H724 N719 0.984 . S
H725 N719 0.985 . S
H726 N723 0.984 . S
H727 N723 0.983 . S
H728 N722 0.984 . S
H729 N722 0.984 . S
H730 N718 0.984 . S
H731 N718 0.985 . S
C732 C733 1.363 . S
C732 C738 1.379 . S
C732 N740 1.356 . S
C733 C732 1.363 . S
C733 C739 1.363 . S
C734 C735 1.363 . S
C734 C739 1.379 . S
C734 N741 1.356 . S
C735 C734 1.363 . S
C735 C738 1.363 . S
N736 C738 1.356 . S
N736 H748 0.984 . S
N736 H749 0.985 . S
N737 C739 1.356 . S
N737 H742 0.984 . S
N737 H743 0.985 . S
C738 C732 1.379 . S
C738 C735 1.363 . S
C738 N736 1.356 . S
C739 C733 1.363 . S
C739 C734 1.379 . S
C739 N737 1.356 . S
N740 C732 1.356 . S
N740 H746 0.984 . S
N740 H747 0.984 . S
N741 C734 1.356 . S
N741 H744 0.984 . S
N741 H745 0.985 . S
H742 N737 0.984 . S
H743 N737 0.985 . S
H744 N741 0.984 . S
H745 N741 0.985 . S
H746 N740 0.984 . S
H747 N740 0.984 . S
H748 N736 0.984 . S
H749 N736 0.985 . S
C750 C751 1.363 . S
C750 C756 1.379 1_554 S
C750 N758 1.356 . S
C751 C750 1.363 . S
C751 C757 1.363 . S
C752 C753 1.363 . S
C752 C757 1.379 1_556 S
C752 N759 1.356 . S
C753 C752 1.363 . S
C753 C756 1.363 . S
N754 C756 1.356 . S
N754 H766 0.984 1_545 S
N754 H767 0.985 . S
N755 C757 1.356 . S
N755 H760 0.984 . S
N755 H761 0.985 . S
C756 C750 1.379 1_556 S
C756 C753 1.363 . S
C756 N754 1.356 . S
C757 C751 1.363 . S
C757 C752 1.379 1_554 S
C757 N755 1.356 . S
N758 C750 1.356 . S
N758 H764 0.984 . S
N758 H765 0.984 . S
N759 C752 1.356 . S
N759 H762 0.984 . S
N759 H763 0.985 . S
H760 N755 0.984 . S
H761 N755 0.985 . S
H762 N759 0.984 . S
H763 N759 0.985 . S
H764 N758 0.984 . S
H765 N758 0.984 . S
H766 N754 0.984 1_565 S
H767 N754 0.985 . S
C768 C769 1.363 . S
C768 C774 1.379 . S
C768 N776 1.356 . S
C769 C768 1.363 . S
C769 C775 1.363 . S
C770 C771 1.363 . S
C770 C775 1.379 . S
C770 N777 1.356 . S
C771 C770 1.363 . S
C771 C774 1.363 . S
N772 C774 1.356 . S
N772 H784 0.984 . S
N772 H785 0.985 . S
N773 C775 1.356 . S
N773 H778 0.984 . S
N773 H779 0.985 . S
C774 C768 1.379 . S
C774 C771 1.363 . S
C774 N772 1.356 . S
C775 C769 1.363 . S
C775 C770 1.379 . S
C775 N773 1.356 . S
N776 C768 1.356 . S
N776 H782 0.984 . S
N776 H783 0.984 . S
N777 C770 1.356 . S
N777 H780 0.984 . S
N777 H781 0.985 . S
H778 N773 0.984 . S
H779 N773 0.985 . S
H780 N777 0.984 . S
H781 N777 0.985 . S
H782 N776 0.984 . S
H783 N776 0.984 . S
H784 N772 0.984 . S
H785 N772 0.985 . S
C786 C787 1.363 . S
C786 C792 1.379 1_554 S
C786 N794 1.356 . S
C787 C786 1.363 . S
C787 C793 1.363 . S
C788 C789 1.363 . S
C788 C793 1.379 1_556 S
C788 N795 1.356 . S
C789 C788 1.363 . S
C789 C792 1.363 . S
N790 C792 1.356 . S
N790 H802 0.984 . S
N790 H803 0.985 . S
N791 C793 1.356 . S
N791 H796 0.984 . S
N791 H797 0.985 . S
C792 C786 1.379 1_556 S
C792 C789 1.363 . S
C792 N790 1.356 . S
C793 C787 1.363 . S
C793 C788 1.379 1_554 S
C793 N791 1.356 . S
N794 C786 1.356 . S
N794 H800 0.984 . S
N794 H801 0.984 . S
N795 C788 1.356 . S
N795 H798 0.984 . S
N795 H799 0.985 . S
H796 N791 0.984 . S
H797 N791 0.985 . S
H798 N795 0.984 . S
H799 N795 0.985 . S
H800 N794 0.984 . S
H801 N794 0.984 . S
H802 N790 0.984 . S
H803 N790 0.985 . S
C804 C805 1.363 . S
C804 C810 1.379 . S
C804 N812 1.356 . S
C805 C804 1.363 . S
C805 C811 1.363 . S
C806 C807 1.363 . S
C806 C811 1.379 . S
C806 N813 1.356 . S
C807 C806 1.363 . S
C807 C810 1.363 . S
N808 C810 1.356 . S
N808 H820 0.984 . S
N808 H821 0.985 . S
N809 C811 1.356 . S
N809 H814 0.984 . S
N809 H815 0.985 . S
C810 C804 1.379 . S
C810 C807 1.363 . S
C810 N808 1.356 . S
C811 C805 1.363 . S
C811 C806 1.379 . S
C811 N809 1.356 . S
N812 C804 1.356 . S
N812 H818 0.984 . S
N812 H819 0.984 . S
N813 C806 1.356 . S
N813 H816 0.984 . S
N813 H817 0.985 . S
H814 N809 0.984 . S
H815 N809 0.985 . S
H816 N813 0.984 . S
H817 N813 0.985 . S
H818 N812 0.984 . S
H819 N812 0.984 . S
H820 N808 0.984 . S
H821 N808 0.985 . S
C822 C823 1.363 . S
C822 C828 1.379 . S
C822 N830 1.356 . S
C823 C822 1.363 . S
C823 C829 1.363 . S
C824 C825 1.363 . S
C824 C829 1.379 . S
C824 N831 1.356 . S
C825 C824 1.363 . S
C825 C828 1.363 . S
N826 C828 1.356 . S
N826 H838 0.984 . S
N826 H839 0.985 . S
N827 C829 1.356 . S
N827 H832 0.984 . S
N827 H833 0.985 . S
C828 C822 1.379 . S
C828 C825 1.363 . S
C828 N826 1.356 . S
C829 C823 1.363 . S
C829 C824 1.379 . S
C829 N827 1.356 . S
N830 C822 1.356 . S
N830 H836 0.984 . S
N830 H837 0.984 . S
N831 C824 1.356 . S
N831 H834 0.984 . S
N831 H835 0.985 . S
H832 N827 0.984 . S
H833 N827 0.985 . S
H834 N831 0.984 . S
H835 N831 0.985 . S
H836 N830 0.984 . S
H837 N830 0.984 . S
H838 N826 0.984 . S
H839 N826 0.985 . S
C840 C841 1.363 . S
C840 C846 1.379 . S
C840 N848 1.356 . S
C841 C840 1.363 . S
C841 C847 1.363 . S
C842 C843 1.363 . S
C842 C847 1.379 . S
C842 N849 1.356 . S
C843 C842 1.363 . S
C843 C846 1.363 . S
N844 C846 1.356 . S
N844 H856 0.984 . S
N844 H857 0.985 . S
N845 C847 1.356 . S
N845 H850 0.984 . S
N845 H851 0.985 . S
C846 C840 1.379 . S
C846 C843 1.363 . S
C846 N844 1.356 . S
C847 C841 1.363 . S
C847 C842 1.379 . S
C847 N845 1.356 . S
N848 C840 1.356 . S
N848 H854 0.984 . S
N848 H855 0.984 . S
N849 C842 1.356 . S
N849 H852 0.984 . S
N849 H853 0.985 . S
H850 N845 0.984 . S
H851 N845 0.985 . S
H852 N849 0.984 . S
H853 N849 0.985 . S
H854 N848 0.984 . S
H855 N848 0.984 . S
H856 N844 0.984 . S
H857 N844 0.985 . S
C858 C859 1.363 . S
C858 C864 1.379 1_545 S
C858 N866 1.356 . S
C859 C858 1.363 . S
C859 C865 1.363 . S
C860 C861 1.363 . S
C860 C865 1.379 1_565 S
C860 N867 1.356 . S
C861 C860 1.363 . S
C861 C864 1.363 . S
N862 C864 1.356 . S
N862 H874 0.984 . S
N862 H875 0.985 . S
N863 C865 1.356 . S
N863 H868 0.984 . S
N863 H869 0.985 . S
C864 C858 1.379 1_565 S
C864 C861 1.363 . S
C864 N862 1.356 . S
C865 C859 1.363 . S
C865 C860 1.379 1_545 S
C865 N863 1.356 . S
N866 C858 1.356 . S
N866 H872 0.984 . S
N866 H873 0.984 . S
N867 C860 1.356 . S
N867 H870 0.984 . S
N867 H871 0.985 1_455 S
H868 N863 0.984 . S
H869 N863 0.985 . S
H870 N867 0.984 . S
H871 N867 0.985 1_655 S
H872 N866 0.984 . S
H873 N866 0.984 . S
H874 N862 0.984 . S
H875 N862 0.985 . S
C876 C877 1.363 . S
C876 C882 1.379 . S
C876 N884 1.356 . S
C877 C876 1.363 . S
C877 C883 1.363 . S
C878 C879 1.363 . S
C878 C883 1.379 . S
C878 N885 1.356 1_556 S
C879 C878 1.363 . S
C879 C882 1.363 . S
N880 C882 1.356 . S
N880 H892 0.984 . S
N880 H893 0.985 . S
N881 C883 1.356 1_554 S
N881 H886 0.984 . S
N881 H887 0.985 . S
C882 C876 1.379 . S
C882 C879 1.363 . S
C882 N880 1.356 . S
C883 C877 1.363 . S
C883 C878 1.379 . S
C883 N881 1.356 1_556 S
N884 C876 1.356 . S
N884 H890 0.984 . S
N884 H891 0.984 . S
N885 C878 1.356 1_554 S
N885 H888 0.984 1_554 S
N885 H889 0.985 . S
H886 N881 0.984 . S
H887 N881 0.985 . S
H888 N885 0.984 1_556 S
H889 N885 0.985 . S
H890 N884 0.984 . S
H891 N884 0.984 . S
H892 N880 0.984 . S
H893 N880 0.985 . S
C894 C895 1.363 . S
C894 C900 1.379 1_545 S
C894 N902 1.356 . S
C895 C894 1.363 . S
C895 C901 1.363 . S
C896 C897 1.363 . S
C896 C901 1.379 1_565 S
C896 N903 1.356 . S
C897 C896 1.363 . S
C897 C900 1.363 . S
N898 C900 1.356 . S
N898 H910 0.984 . S
N898 H911 0.985 . S
N899 C901 1.356 . S
N899 H904 0.984 . S
N899 H905 0.985 . S
C900 C894 1.379 1_565 S
C900 C897 1.363 . S
C900 N898 1.356 . S
C901 C895 1.363 . S
C901 C896 1.379 1_545 S
C901 N899 1.356 . S
N902 C894 1.356 . S
N902 H908 0.984 . S
N902 H909 0.984 . S
N903 C896 1.356 . S
N903 H906 0.984 . S
N903 H907 0.985 . S
H904 N899 0.984 . S
H905 N899 0.985 . S
H906 N903 0.984 . S
H907 N903 0.985 . S
H908 N902 0.984 . S
H909 N902 0.984 . S
H910 N898 0.984 . S
H911 N898 0.985 . S
C912 C913 1.363 . S
C912 C918 1.379 . S
C912 N920 1.356 . S
C913 C912 1.363 . S
C913 C919 1.363 . S
C914 C915 1.363 . S
C914 C919 1.379 . S
C914 N921 1.356 . S
C915 C914 1.363 . S
C915 C918 1.363 . S
N916 C918 1.356 . S
N916 H928 0.984 . S
N916 H929 0.985 . S
N917 C919 1.356 . S
N917 H922 0.984 . S
N917 H923 0.985 . S
C918 C912 1.379 . S
C918 C915 1.363 . S
C918 N916 1.356 . S
C919 C913 1.363 . S
C919 C914 1.379 . S
C919 N917 1.356 . S
N920 C912 1.356 . S
N920 H926 0.984 . S
N920 H927 0.984 . S
N921 C914 1.356 . S
N921 H924 0.984 . S
N921 H925 0.985 . S
H922 N917 0.984 . S
H923 N917 0.985 . S
H924 N921 0.984 . S
H925 N921 0.985 . S
H926 N920 0.984 . S
H927 N920 0.984 . S
H928 N916 0.984 . S
H929 N916 0.985 . S
C930 C931 1.363 . S
C930 C936 1.379 . S
C930 N938 1.356 . S
C931 C930 1.363 . S
C931 C937 1.363 . S
C932 C933 1.363 . S
C932 C937 1.379 . S
C932 N939 1.356 . S
C933 C932 1.363 . S
C933 C936 1.363 . S
N934 C936 1.356 . S
N934 H946 0.984 . S
N934 H947 0.985 . S
N935 C937 1.356 . S
N935 H940 0.984 . S
N935 H941 0.985 . S
C936 C930 1.379 . S
C936 C933 1.363 . S
C936 N934 1.356 . S
C937 C931 1.363 . S
C937 C932 1.379 . S
C937 N935 1.356 . S
N938 C930 1.356 . S
N938 H944 0.984 . S
N938 H945 0.984 . S
N939 C932 1.356 . S
N939 H942 0.984 . S
N939 H943 0.985 . S
H940 N935 0.984 . S
H941 N935 0.985 . S
H942 N939 0.984 . S
H943 N939 0.985 . S
H944 N938 0.984 . S
H945 N938 0.984 . S
H946 N934 0.984 . S
H947 N934 0.985 . S
C948 C949 1.363 . S
C948 C954 1.379 . S
C948 N956 1.356 . S
C949 C948 1.363 . S
C949 C955 1.363 . S
C950 C951 1.363 . S
C950 C955 1.379 . S
C950 N957 1.356 . S
C951 C950 1.363 . S
C951 C954 1.363 . S
N952 C954 1.356 . S
N952 H964 0.984 1_554 S
N952 H965 0.985 . S
N953 C955 1.356 . S
N953 H958 0.984 . S
N953 H959 0.985 . S
C954 C948 1.379 . S
C954 C951 1.363 . S
C954 N952 1.356 . S
C955 C949 1.363 . S
C955 C950 1.379 . S
C955 N953 1.356 . S
N956 C948 1.356 . S
N956 H962 0.984 1_554 S
N956 H963 0.984 . S
N957 C950 1.356 . S
N957 H960 0.984 . S
N957 H961 0.985 . S
H958 N953 0.984 . S
H959 N953 0.985 . S
H960 N957 0.984 . S
H961 N957 0.985 . S
H962 N956 0.984 1_556 S
H963 N956 0.984 . S
H964 N952 0.984 1_556 S
H965 N952 0.985 . S
C966 C967 1.363 . S
C966 C972 1.379 . S
C966 N974 1.356 . S
C967 C966 1.363 . S
C967 C973 1.363 . S
C968 C969 1.363 . S
C968 C973 1.379 . S
C968 N975 1.356 . S
C969 C968 1.363 . S
C969 C972 1.363 . S
N970 C972 1.356 . S
N970 H982 0.984 . S
N970 H983 0.985 . S
N971 C973 1.356 . S
N971 H976 0.984 . S
N971 H977 0.985 . S
C972 C966 1.379 . S
C972 C969 1.363 . S
C972 N970 1.356 . S
C973 C967 1.363 . S
C973 C968 1.379 . S
C973 N971 1.356 . S
N974 C966 1.356 . S
N974 H980 0.984 . S
N974 H981 0.984 . S
N975 C968 1.356 . S
N975 H978 0.984 . S
N975 H979 0.985 . S
H976 N971 0.984 . S
H977 N971 0.985 . S
H978 N975 0.984 . S
H979 N975 0.985 . S
H980 N974 0.984 . S
H981 N974 0.984 . S
H982 N970 0.984 . S
H983 N970 0.985 . S
C984 C985 1.363 . S
C984 C990 1.379 . S
C984 N992 1.356 . S
C985 C984 1.363 . S
C985 C991 1.363 . S
C986 C987 1.363 . S
C986 C991 1.379 . S
C986 N993 1.356 . S
C987 C986 1.363 . S
C987 C990 1.363 . S
N988 C990 1.356 . S
N988 H1000 0.984 . S
N988 H1001 0.985 . S
N989 C991 1.356 . S
N989 H994 0.984 . S
N989 H995 0.985 . S
C990 C984 1.379 . S
C990 C987 1.363 . S
C990 N988 1.356 . S
C991 C985 1.363 . S
C991 C986 1.379 . S
C991 N989 1.356 . S
N992 C984 1.356 . S
N992 H998 0.984 . S
N992 H999 0.984 . S
N993 C986 1.356 . S
N993 H996 0.984 . S
N993 H997 0.985 . S
H994 N989 0.984 . S
H995 N989 0.985 . S
H996 N993 0.984 . S
H997 N993 0.985 . S
H998 N992 0.984 . S
H999 N992 0.984 . S
H1000 N988 0.984 . S
H1001 N988 0.985 . S
C1002 C1003 1.363 . S
C1002 C1008 1.379 . S
C1002 N1010 1.356 . S
C1003 C1002 1.363 . S
C1003 C1009 1.363 . S
C1004 C1005 1.363 . S
C1004 C1009 1.379 . S
C1004 N1011 1.356 . S
C1005 C1004 1.363 . S
C1005 C1008 1.363 . S
N1006 C1008 1.356 . S
N1006 H1018 0.984 . S
N1006 H1019 0.985 . S
N1007 C1009 1.356 . S
N1007 H1012 0.984 . S
N1007 H1013 0.985 . S
C1008 C1002 1.379 . S
C1008 C1005 1.363 . S
C1008 N1006 1.356 . S
C1009 C1003 1.363 . S
C1009 C1004 1.379 . S
C1009 N1007 1.356 . S
N1010 C1002 1.356 . S
N1010 H1016 0.984 . S
N1010 H1017 0.984 . S
N1011 C1004 1.356 . S
N1011 H1014 0.984 . S
N1011 H1015 0.985 . S
H1012 N1007 0.984 . S
H1013 N1007 0.985 . S
H1014 N1011 0.984 . S
H1015 N1011 0.985 . S
H1016 N1010 0.984 . S
H1017 N1010 0.984 . S
H1018 N1006 0.984 . S
H1019 N1006 0.985 . S
C1020 C1021 1.363 . S
C1020 C1026 1.379 1_455 S
C1020 N1028 1.356 . S
C1021 C1020 1.363 . S
C1021 C1027 1.363 . S
C1022 C1023 1.363 1_455 S
C1022 C1027 1.379 . S
C1022 N1029 1.356 1_455 S
C1023 C1022 1.363 1_655 S
C1023 C1026 1.363 . S
N1024 C1026 1.356 . S
N1024 H1036 0.984 . S
N1024 H1037 0.985 . S
N1025 C1027 1.356 . S
N1025 H1030 0.984 . S
N1025 H1031 0.985 . S
C1026 C1020 1.379 1_655 S
C1026 C1023 1.363 . S
C1026 N1024 1.356 . S
C1027 C1021 1.363 . S
C1027 C1022 1.379 . S
C1027 N1025 1.356 . S
N1028 C1020 1.356 . S
N1028 H1034 0.984 . S
N1028 H1035 0.984 . S
N1029 C1022 1.356 1_655 S
N1029 H1032 0.984 . S
N1029 H1033 0.985 . S
H1030 N1025 0.984 . S
H1031 N1025 0.985 . S
H1032 N1029 0.984 . S
H1033 N1029 0.985 . S
H1034 N1028 0.984 . S
H1035 N1028 0.984 . S
H1036 N1024 0.984 . S
H1037 N1024 0.985 . S
C1038 C1039 1.363 . S
C1038 C1044 1.379 . S
C1038 N1046 1.356 . S
C1039 C1038 1.363 . S
C1039 C1045 1.363 . S
C1040 C1041 1.363 . S
C1040 C1045 1.379 . S
C1040 N1047 1.356 . S
C1041 C1040 1.363 . S
C1041 C1044 1.363 . S
N1042 C1044 1.356 . S
N1042 H1054 0.984 . S
N1042 H1055 0.985 . S
N1043 C1045 1.356 . S
N1043 H1048 0.984 . S
N1043 H1049 0.985 . S
C1044 C1038 1.379 . S
C1044 C1041 1.363 . S
C1044 N1042 1.356 . S
C1045 C1039 1.363 . S
C1045 C1040 1.379 . S
C1045 N1043 1.356 . S
N1046 C1038 1.356 . S
N1046 H1052 0.984 . S
N1046 H1053 0.984 . S
N1047 C1040 1.356 . S
N1047 H1050 0.984 . S
N1047 H1051 0.985 . S
H1048 N1043 0.984 . S
H1049 N1043 0.985 . S
H1050 N1047 0.984 . S
H1051 N1047 0.985 . S
H1052 N1046 0.984 . S
H1053 N1046 0.984 . S
H1054 N1042 0.984 . S
H1055 N1042 0.985 . S
C1056 C1057 1.363 . S
C1056 C1062 1.379 . S
C1056 N1064 1.356 . S
C1057 C1056 1.363 . S
C1057 C1063 1.363 . S
C1058 C1059 1.363 . S
C1058 C1063 1.379 . S
C1058 N1065 1.356 . S
C1059 C1058 1.363 . S
C1059 C1062 1.363 . S
N1060 C1062 1.356 . S
N1060 H1072 0.984 . S
N1060 H1073 0.985 . S
N1061 C1063 1.356 . S
N1061 H1066 0.984 . S
N1061 H1067 0.985 . S
C1062 C1056 1.379 . S
C1062 C1059 1.363 . S
C1062 N1060 1.356 . S
C1063 C1057 1.363 . S
C1063 C1058 1.379 . S
C1063 N1061 1.356 . S
N1064 C1056 1.356 . S
N1064 H1070 0.984 . S
N1064 H1071 0.984 . S
N1065 C1058 1.356 . S
N1065 H1068 0.984 . S
N1065 H1069 0.985 . S
H1066 N1061 0.984 . S
H1067 N1061 0.985 . S
H1068 N1065 0.984 . S
H1069 N1065 0.985 . S
H1070 N1064 0.984 . S
H1071 N1064 0.984 . S
H1072 N1060 0.984 . S
H1073 N1060 0.985 . S
C1074 C1075 1.363 . S
C1074 C1080 1.379 . S
C1074 N1082 1.356 . S
C1075 C1074 1.363 . S
C1075 C1081 1.363 . S
C1076 C1077 1.363 . S
C1076 C1081 1.379 . S
C1076 N1083 1.356 . S
C1077 C1076 1.363 . S
C1077 C1080 1.363 . S
N1078 C1080 1.356 . S
N1078 H1090 0.984 . S
N1078 H1091 0.985 . S
N1079 C1081 1.356 . S
N1079 H1084 0.984 . S
N1079 H1085 0.985 1_455 S
C1080 C1074 1.379 . S
C1080 C1077 1.363 . S
C1080 N1078 1.356 . S
C1081 C1075 1.363 . S
C1081 C1076 1.379 . S
C1081 N1079 1.356 . S
N1082 C1074 1.356 . S
N1082 H1088 0.984 . S
N1082 H1089 0.984 . S
N1083 C1076 1.356 . S
N1083 H1086 0.984 . S
N1083 H1087 0.985 . S
H1084 N1079 0.984 . S
H1085 N1079 0.985 1_655 S
H1086 N1083 0.984 . S
H1087 N1083 0.985 . S
H1088 N1082 0.984 . S
H1089 N1082 0.984 . S
H1090 N1078 0.984 . S
H1091 N1078 0.985 . S
C1092 C1093 1.363 . S
C1092 C1098 1.379 . S
C1092 N1100 1.356 . S
C1093 C1092 1.363 . S
C1093 C1099 1.363 . S
C1094 C1095 1.363 . S
C1094 C1099 1.379 . S
C1094 N1101 1.356 . S
C1095 C1094 1.363 . S
C1095 C1098 1.363 . S
N1096 C1098 1.356 . S
N1096 H1108 0.984 . S
N1096 H1109 0.985 . S
N1097 C1099 1.356 . S
N1097 H1102 0.984 1_556 S
N1097 H1103 0.985 1_556 S
C1098 C1092 1.379 . S
C1098 C1095 1.363 . S
C1098 N1096 1.356 . S
C1099 C1093 1.363 . S
C1099 C1094 1.379 . S
C1099 N1097 1.356 . S
N1100 C1092 1.356 . S
N1100 H1106 0.984 . S
N1100 H1107 0.984 . S
N1101 C1094 1.356 . S
N1101 H1104 0.984 . S
N1101 H1105 0.985 . S
H1102 N1097 0.984 1_554 S
H1103 N1097 0.985 1_554 S
H1104 N1101 0.984 . S
H1105 N1101 0.985 . S
H1106 N1100 0.984 . S
H1107 N1100 0.984 . S
H1108 N1096 0.984 . S
H1109 N1096 0.985 . S
C1110 C1111 1.363 . S
C1110 C1116 1.379 . S
C1110 N1118 1.356 . S
C1111 C1110 1.363 . S
C1111 C1117 1.363 . S
C1112 C1113 1.363 1_655 S
C1112 C1117 1.379 . S
C1112 N1119 1.356 1_655 S
C1113 C1112 1.363 1_455 S
C1113 C1116 1.363 1_455 S
N1114 C1116 1.356 1_455 S
N1114 H1126 0.984 . S
N1114 H1127 0.985 . S
N1115 C1117 1.356 . S
N1115 H1120 0.984 . S
N1115 H1121 0.985 . S
C1116 C1110 1.379 . S
C1116 C1113 1.363 1_655 S
C1116 N1114 1.356 1_655 S
C1117 C1111 1.363 . S
C1117 C1112 1.379 . S
C1117 N1115 1.356 . S
N1118 C1110 1.356 . S
N1118 H1124 0.984 . S
N1118 H1125 0.984 . S
N1119 C1112 1.356 1_455 S
N1119 H1122 0.984 . S
N1119 H1123 0.985 . S
H1120 N1115 0.984 . S
H1121 N1115 0.985 . S
H1122 N1119 0.984 . S
H1123 N1119 0.985 . S
H1124 N1118 0.984 . S
H1125 N1118 0.984 . S
H1126 N1114 0.984 . S
H1127 N1114 0.985 . S
C481 C9 1.645 . S
C483 C448 1.765 . S
C499 C368 1.891 . S
C501 C48 1.901 . S
C517 C89 1.471 . S
C519 C329 1.485 . S
C535 C128 1.782 . S
C537 C408 1.784 . S
C553 C168 2.092 . S
C555 C409 1.958 . S
C571 C209 1.515 . S
C573 C449 1.518 . S
C589 C369 1.816 . S
C591 C248 1.943 . S
C607 C288 1.667 . S
C609 C328 1.678 . S
C625 C129 1.800 . S
C627 C169 1.773 . S
C643 C8 2.017 . S
C645 C208 2.019 . S
C661 C49 1.569 . S
C663 C249 1.599 . S
C679 C289 1.748 . S
C681 C88 1.846 . S
C697 C5 2.610 . S
C699 C339 2.716 . S
C715 C55 1.316 . S
C717 C418 1.236 . S
C733 C458 1.820 . S
C735 C85 1.962 . S
C751 C135 1.504 . S
C753 C378 1.393 . S
C769 C175 1.520 . S
C771 C379 1.502 . S
C787 C338 1.871 . S
C789 C205 2.004 . S
C805 C419 1.856 . S
C807 C255 1.868 . S
C823 C459 1.768 . S
C825 C295 1.778 . S
C841 C18 1.637 . S
C843 C125 1.772 . S
C859 C15 2.005 . S
C861 C59 1.989 . S
C877 C45 2.027 . S
C879 C98 1.884 . S
C895 C139 1.826 . S
C897 C95 1.833 . S
C913 C215 1.144 . S
C915 C179 1.121 . S
C931 C218 1.876 . S
C933 C245 2.021 . S
C949 C259 1.672 . S
C951 C285 1.631 . S
C967 C165 1.915 . S
C969 C299 1.997 . S
C985 C335 1.410 . S
C987 C138 1.290 . S
C1003 C219 1.632 . S
C1005 C375 1.649 . S
C1021 C325 2.166 . S
C1023 C258 2.025 . S
C1039 C415 1.678 . S
C1041 C298 1.533 . S
C1057 C178 0.937 . S
C1059 C455 0.990 . S
C1075 C445 1.836 . S
C1077 C58 1.705 . S
C1093 C99 1.618 . S
C1095 C365 1.568 . S
C1111 C405 1.962 . S
C1113 C19 2.030 . S
