# Generated by pormake.
# Topology yfw, (5)-cn, num edge types: 1
# Building blocks:
#     Node 0, Type 0, BuildingBlock: XOMCOT_clean_sbu_1, # of connection points: 5
#     Node 1, Type 0, BuildingBlock: XOMCOT_clean_sbu_1, # of connection points: 5
#     Node 2, Type 0, BuildingBlock: XOMCOT_clean_sbu_1, # of connection points: 5
#     Node 3, Type 0, BuildingBlock: XOMCOT_clean_sbu_1, # of connection points: 5
#     Node 4, Type 0, BuildingBlock: XOMCOT_clean_sbu_1, # of connection points: 5
#     Node 5, Type 0, BuildingBlock: XOMCOT_clean_sbu_1, # of connection points: 5
#     Node 6, Type 0, BuildingBlock: XOMCOT_clean_sbu_1, # of connection points: 5
#     Node 7, Type 0, BuildingBlock: XOMCOT_clean_sbu_1, # of connection points: 5
#     Node 8, Type 0, BuildingBlock: XOMCOT_clean_sbu_1, # of connection points: 5
#     Node 9, Type 0, BuildingBlock: XOMCOT_clean_sbu_1, # of connection points: 5
#     Node 10, Type 0, BuildingBlock: XOMCOT_clean_sbu_1, # of connection points: 5
#     Node 11, Type 0, BuildingBlock: XOMCOT_clean_sbu_1, # of connection points: 5
#     Node 12, Type 0, BuildingBlock: XOMCOT_clean_sbu_1, # of connection points: 5
#     Node 13, Type 0, BuildingBlock: XOMCOT_clean_sbu_1, # of connection points: 5
#     Node 14, Type 0, BuildingBlock: XOMCOT_clean_sbu_1, # of connection points: 5
#     Node 15, Type 0, BuildingBlock: XOMCOT_clean_sbu_1, # of connection points: 5
#     Edge 16, Type (0, 0), BuildingBlock: EZIPEK_clean_linker_0, # of connection points: 2
#     Edge 17, Type (0, 0), BuildingBlock: EZIPEK_clean_linker_0, # of connection points: 2
#     Edge 18, Type (0, 0), BuildingBlock: EZIPEK_clean_linker_0, # of connection points: 2
#     Edge 19, Type (0, 0), BuildingBlock: EZIPEK_clean_linker_0, # of connection points: 2
#     Edge 20, Type (0, 0), BuildingBlock: EZIPEK_clean_linker_0, # of connection points: 2
#     Edge 21, Type (0, 0), BuildingBlock: EZIPEK_clean_linker_0, # of connection points: 2
#     Edge 22, Type (0, 0), BuildingBlock: EZIPEK_clean_linker_0, # of connection points: 2
#     Edge 23, Type (0, 0), BuildingBlock: EZIPEK_clean_linker_0, # of connection points: 2
#     Edge 24, Type (0, 0), BuildingBlock: EZIPEK_clean_linker_0, # of connection points: 2
#     Edge 25, Type (0, 0), BuildingBlock: EZIPEK_clean_linker_0, # of connection points: 2
#     Edge 26, Type (0, 0), BuildingBlock: EZIPEK_clean_linker_0, # of connection points: 2
#     Edge 27, Type (0, 0), BuildingBlock: EZIPEK_clean_linker_0, # of connection points: 2
#     Edge 28, Type (0, 0), BuildingBlock: EZIPEK_clean_linker_0, # of connection points: 2
#     Edge 29, Type (0, 0), BuildingBlock: EZIPEK_clean_linker_0, # of connection points: 2
#     Edge 30, Type (0, 0), BuildingBlock: EZIPEK_clean_linker_0, # of connection points: 2
#     Edge 31, Type (0, 0), BuildingBlock: EZIPEK_clean_linker_0, # of connection points: 2
#     Edge 32, Type (0, 0), BuildingBlock: EZIPEK_clean_linker_0, # of connection points: 2
#     Edge 33, Type (0, 0), BuildingBlock: EZIPEK_clean_linker_0, # of connection points: 2
#     Edge 34, Type (0, 0), BuildingBlock: EZIPEK_clean_linker_0, # of connection points: 2
#     Edge 35, Type (0, 0), BuildingBlock: EZIPEK_clean_linker_0, # of connection points: 2
#     Edge 36, Type (0, 0), BuildingBlock: EZIPEK_clean_linker_0, # of connection points: 2
#     Edge 37, Type (0, 0), BuildingBlock: EZIPEK_clean_linker_0, # of connection points: 2
#     Edge 38, Type (0, 0), BuildingBlock: EZIPEK_clean_linker_0, # of connection points: 2
#     Edge 39, Type (0, 0), BuildingBlock: EZIPEK_clean_linker_0, # of connection points: 2
#     Edge 40, Type (0, 0), BuildingBlock: EZIPEK_clean_linker_0, # of connection points: 2
#     Edge 41, Type (0, 0), BuildingBlock: EZIPEK_clean_linker_0, # of connection points: 2
#     Edge 42, Type (0, 0), BuildingBlock: EZIPEK_clean_linker_0, # of connection points: 2
#     Edge 43, Type (0, 0), BuildingBlock: EZIPEK_clean_linker_0, # of connection points: 2
#     Edge 44, Type (0, 0), BuildingBlock: EZIPEK_clean_linker_0, # of connection points: 2
#     Edge 45, Type (0, 0), BuildingBlock: EZIPEK_clean_linker_0, # of connection points: 2
#     Edge 46, Type (0, 0), BuildingBlock: EZIPEK_clean_linker_0, # of connection points: 2
#     Edge 47, Type (0, 0), BuildingBlock: EZIPEK_clean_linker_0, # of connection points: 2
#     Edge 48, Type (0, 0), BuildingBlock: EZIPEK_clean_linker_0, # of connection points: 2
#     Edge 49, Type (0, 0), BuildingBlock: EZIPEK_clean_linker_0, # of connection points: 2
#     Edge 50, Type (0, 0), BuildingBlock: EZIPEK_clean_linker_0, # of connection points: 2
#     Edge 51, Type (0, 0), BuildingBlock: EZIPEK_clean_linker_0, # of connection points: 2
#     Edge 52, Type (0, 0), BuildingBlock: EZIPEK_clean_linker_0, # of connection points: 2
#     Edge 53, Type (0, 0), BuildingBlock: EZIPEK_clean_linker_0, # of connection points: 2
#     Edge 54, Type (0, 0), BuildingBlock: EZIPEK_clean_linker_0, # of connection points: 2
#     Edge 55, Type (0, 0), BuildingBlock: EZIPEK_clean_linker_0, # of connection points: 2
# Relax obj value: 0.106
# Max RMSD: 0.154
# Mean RMSD: 0.154
data_MOF--net-yfw--node1-XOMCOT_clean_sbu_1--edge1-EZIPEK_clean_linker_0
_symmetry_space_group_name_H-M    P1
_symmetry_Int_Tables_number       1
_symmetry_cell_setting            triclinic
loop_
_symmetry_equiv_pos_as_xyz
'x, y, z'
_cell_length_a     44.383742
_cell_length_b     44.497509
_cell_length_c     18.69069
_cell_angle_alpha  90.245447
_cell_angle_beta   90.242216
_cell_angle_gamma 90.047866
loop_
_atom_site_label
_atom_site_type_symbol
_atom_site_fract_x
_atom_site_fract_y
_atom_site_fract_z
_atom_type_partial_charge
C0 C 0.08502 0.06822 0.90783 0.0
C1 C 0.0574 0.05415 0.9088 0.0
N2 N 0.05558 0.03735 0.96848 0.0
N3 N 0.10105 0.05995 0.96585 0.0
C4 C 0.08212 0.04182 1.0029 0.0
H5 H 0.09354 0.08216 0.86522 0.0
Co6 Co 0.14293 0.06609 0.97589 0.0
C7 C 0.1484 0.04765 0.13044 0.0
O8 O 0.1582 0.07429 0.15037 0.0
N9 N 0.18572 0.07131 0.98278 0.0
C10 C 0.23448 0.06963 0.01347 0.0
C11 C 0.20567 0.06334 0.03456 0.0
C12 C 0.20365 0.08189 0.92976 0.0
N13 N 0.23316 0.08121 0.94768 0.0
O14 O 0.14937 0.03035 0.92008 0.0
H15 H 0.20074 0.05257 0.08419 0.0
H16 H 0.1953 0.08995 0.87892 0.0
O17 O 0.14247 0.04222 0.06454 0.0
C18 C 0.14917 0.03528 0.85281 0.0
O19 O 0.14681 0.06309 0.83023 0.0
N20 N 0.13577 0.10283 0.02473 0.0
C21 C 0.12255 0.1595 0.08062 0.0
C22 C 0.10694 0.13413 0.10425 0.0
C23 C 0.11362 0.106 0.0749 0.0
C24 C 0.15034 0.1277 0.99968 0.0
C25 C 0.14446 0.15619 0.02781 0.0
H26 H 0.10082 0.08679 0.09234 0.0
H27 H 0.16591 0.12588 0.95586 0.0
H28 H 0.08809 0.03078 0.05239 0.0
H29 H 0.04029 0.05533 0.86745 0.0
H30 H 0.25497 0.06544 0.04344 0.0
H31 H 0.08945 0.13614 0.14423 0.0
H32 H 0.15632 0.17559 1.00721 0.0
C33 C 0.93126 0.57626 0.18368 0.0
C34 C 0.94564 0.54906 0.17861 0.0
N35 N 0.96274 0.54525 0.23756 0.0
N36 N 0.93981 0.59031 0.24448 0.0
C37 C 0.95823 0.57031 0.27748 0.0
H38 H 0.91622 0.58561 0.14408 0.0
Co39 Co 0.93054 0.631 0.26195 0.0
C40 C 0.95626 0.6341 0.4149 0.0
O41 O 0.92983 0.63188 0.44555 0.0
N42 N 0.92143 0.67225 0.27675 0.0
C43 C 0.90769 0.71615 0.32475 0.0
C44 C 0.91317 0.6863 0.33791 0.0
C45 C 0.91978 0.69409 0.22671 0.0
N46 N 0.91183 0.72093 0.25465 0.0
O47 O 0.96379 0.64207 0.20029 0.0
H48 H 0.90896 0.67534 0.38792 0.0
H49 H 0.92319 0.69037 0.17049 0.0
O50 O 0.95838 0.63297 0.34637 0.0
C51 C 0.95863 0.64178 0.13284 0.0
O52 O 0.93087 0.63778 0.11012 0.0
N53 N 0.89638 0.61919 0.31559 0.0
C54 C 0.84229 0.60263 0.38001 0.0
C55 C 0.86871 0.58641 0.39364 0.0
C56 C 0.8956 0.59509 0.36083 0.0
C57 C 0.87018 0.63332 0.2973 0.0
C58 C 0.84319 0.62617 0.33074 0.0
H59 H 0.91583 0.5827 0.37304 0.0
H60 H 0.86999 0.65035 0.25627 0.0
H61 H 0.96858 0.57414 0.32903 0.0
H62 H 0.94403 0.53335 0.13433 0.0
H63 H 0.8998 0.73275 0.36281 0.0
H64 H 0.86859 0.56752 0.43001 0.0
H65 H 0.82298 0.63859 0.31716 0.0
C66 C 0.4175 0.43219 0.44225 0.0
C67 C 0.44599 0.44445 0.44296 0.0
N68 N 0.44666 0.46662 0.49224 0.0
N69 N 0.40029 0.44668 0.49068 0.0
C70 C 0.41885 0.46738 0.52076 0.0
H71 H 0.40962 0.41418 0.40795 0.0
Co72 Co 0.35934 0.43914 0.50378 0.0
C73 C 0.36723 0.47012 0.65019 0.0
O74 O 0.38665 0.45058 0.67495 0.0
N75 N 0.3177 0.43281 0.51396 0.0
C76 C 0.27131 0.42901 0.55812 0.0
C77 C 0.30066 0.43668 0.57318 0.0
C78 C 0.29809 0.42285 0.46352 0.0
N79 N 0.26988 0.42036 0.48931 0.0
O80 O 0.35094 0.4717 0.43723 0.0
H81 H 0.30893 0.4439 0.62479 0.0
H82 H 0.30442 0.41668 0.40966 0.0
O83 O 0.3569 0.46761 0.58623 0.0
C84 C 0.3507 0.46428 0.37086 0.0
O85 O 0.3544 0.4359 0.35349 0.0
N86 N 0.36874 0.40418 0.56349 0.0
C87 C 0.38655 0.34799 0.61852 0.0
C88 C 0.40644 0.37225 0.6183 0.0
C89 C 0.39705 0.4 0.59203 0.0
C90 C 0.34924 0.38018 0.56352 0.0
C91 C 0.35731 0.35245 0.59276 0.0
H92 H 0.41368 0.41752 0.59296 0.0
H93 H 0.32766 0.3811 0.53754 0.0
H94 H 0.41233 0.48307 0.56191 0.0
H95 H 0.46477 0.43776 0.40975 0.0
H96 H 0.25254 0.42926 0.59491 0.0
H97 H 0.42937 0.36967 0.63739 0.0
H98 H 0.3413 0.33405 0.59139 0.0
C99 C 0.58207 0.92689 0.62202 0.0
C100 C 0.56878 0.95471 0.61805 0.0
N101 N 0.55103 0.95824 0.67568 0.0
N102 N 0.57216 0.91263 0.68082 0.0
C103 C 0.55411 0.93273 0.71387 0.0
H104 H 0.59677 0.91696 0.58247 0.0
Co105 Co 0.57941 0.87215 0.69618 0.0
C106 C 0.55516 0.86267 0.84605 0.0
O107 O 0.58184 0.85509 0.87035 0.0
N108 N 0.58734 0.83026 0.70987 0.0
C109 C 0.6069 0.78645 0.74593 0.0
C110 C 0.60632 0.81697 0.75728 0.0
C111 C 0.57658 0.80684 0.67084 0.0
N112 N 0.5881 0.78021 0.69156 0.0
O113 O 0.54423 0.86317 0.63588 0.0
H114 H 0.61984 0.82848 0.79695 0.0
H115 H 0.56158 0.80891 0.62583 0.0
O116 O 0.55247 0.87134 0.78101 0.0
C117 C 0.54812 0.86122 0.56819 0.0
O118 O 0.57582 0.86225 0.54372 0.0
N119 N 0.61448 0.88281 0.74813 0.0
C120 C 0.66978 0.8964 0.81224 0.0
C121 C 0.64285 0.90749 0.84117 0.0
C122 C 0.61538 0.90108 0.80706 0.0
C123 C 0.64067 0.87417 0.71602 0.0
C124 C 0.66857 0.88031 0.74776 0.0
H125 H 0.59484 0.91038 0.82866 0.0
H126 H 0.63979 0.86159 0.66639 0.0
H127 H 0.54235 0.92847 0.7631 0.0
H128 H 0.57099 0.97067 0.57483 0.0
H129 H 0.62032 0.77012 0.77462 0.0
H130 H 0.64308 0.92079 0.88984 0.0
H131 H 0.689 0.87207 0.72299 0.0
C132 C 0.9281 0.08045 0.45163 0.0
C133 C 0.95562 0.06647 0.44494 0.0
N134 N 0.95495 0.04084 0.48301 0.0
N135 N 0.91018 0.06368 0.49368 0.0
C136 C 0.9272 0.03973 0.5123 0.0
H137 H 0.92113 0.10092 0.42537 0.0
Co138 Co 0.8692 0.07037 0.50854 0.0
C139 C 0.86868 0.04963 0.66367 0.0
O140 O 0.86653 0.07689 0.68999 0.0
N141 N 0.8271 0.07637 0.52069 0.0
C142 C 0.78158 0.0876 0.56371 0.0
C143 C 0.8116 0.0845 0.57995 0.0
C144 C 0.80573 0.07523 0.46871 0.0
N145 N 0.77801 0.08166 0.49385 0.0
O146 O 0.86118 0.03527 0.45034 0.0
H147 H 0.8213 0.08973 0.6312 0.0
H148 H 0.81033 0.07085 0.41293 0.0
O149 O 0.87015 0.04505 0.59593 0.0
C150 C 0.86287 0.04089 0.38347 0.0
O151 O 0.86712 0.06887 0.36354 0.0
N152 N 0.8783 0.10664 0.55947 0.0
C153 C 0.89272 0.16276 0.6193 0.0
C154 C 0.9113 0.13777 0.631 0.0
C155 C 0.90352 0.10986 0.60136 0.0
C156 C 0.86136 0.13138 0.54349 0.0
C157 C 0.86737 0.15919 0.57517 0.0
H158 H 0.91788 0.0908 0.61219 0.0
H159 H 0.84308 0.12988 0.5053 0.0
H160 H 0.91904 0.02112 0.54387 0.0
H161 H 0.97444 0.07406 0.41308 0.0
H162 H 0.7639 0.09486 0.59956 0.0
H163 H 0.93149 0.13975 0.66345 0.0
H164 H 0.85279 0.17807 0.56343 0.0
C165 C 0.93354 0.42442 0.66186 0.0
C166 C 0.94933 0.45091 0.65814 0.0
N167 N 0.96488 0.45454 0.71956 0.0
N168 N 0.93967 0.4107 0.72444 0.0
C169 C 0.95811 0.43017 0.75946 0.0
H170 H 0.91914 0.41537 0.62034 0.0
Co171 Co 0.92788 0.37091 0.74395 0.0
C172 C 0.95009 0.36546 0.8967 0.0
O173 O 0.92273 0.36566 0.92292 0.0
N174 N 0.91629 0.33006 0.76198 0.0
C175 C 0.89317 0.28908 0.80342 0.0
C176 C 0.89858 0.31908 0.81473 0.0
C177 C 0.92242 0.30547 0.72142 0.0
N178 N 0.90821 0.2805 0.74464 0.0
O179 O 0.96127 0.35727 0.68652 0.0
H180 H 0.88865 0.33211 0.85729 0.0
H181 H 0.93627 0.30568 0.67424 0.0
O182 O 0.9541 0.36885 0.8294 0.0
C183 C 0.95626 0.35663 0.61914 0.0
O184 O 0.92861 0.3611 0.59615 0.0
N185 N 0.89374 0.38578 0.79327 0.0
C186 C 0.8399 0.40507 0.8556 0.0
C187 C 0.86724 0.41959 0.87161 0.0
C188 C 0.89404 0.4092 0.8409 0.0
C189 C 0.86684 0.37456 0.76969 0.0
C190 C 0.84 0.38244 0.80314 0.0
H191 H 0.915 0.41965 0.85659 0.0
H192 H 0.86632 0.35816 0.72682 0.0
H193 H 0.96684 0.42652 0.81263 0.0
H194 H 0.94968 0.46626 0.61335 0.0
H195 H 0.87877 0.27473 0.83511 0.0
H196 H 0.86804 0.43801 0.90964 0.0
H197 H 0.81941 0.37101 0.78761 0.0
C198 C 0.5763 0.41806 0.97019 0.0
C199 C 0.54801 0.43008 0.96229 0.0
N200 N 0.54886 0.45856 0.98655 0.0
N201 N 0.59483 0.43878 0.99986 0.0
C202 C 0.57756 0.46353 1.0074 0.0
H203 H 0.58311 0.39565 0.95449 0.0
Co204 Co 0.63596 0.43245 0.01413 0.0
C205 C 0.62154 0.4672 0.15462 0.0
O206 O 0.59203 0.4661 0.15149 0.0
N207 N 0.67745 0.42582 0.0265 0.0
C208 C 0.72091 0.40697 0.06496 0.0
C209 C 0.69103 0.41117 0.08093 0.0
C210 C 0.70001 0.43197 0.98045 0.0
N211 N 0.72663 0.42019 1.00175 0.0
O212 O 0.64464 0.46843 0.95918 0.0
H213 H 0.67967 0.40276 0.12787 0.0
H214 H 0.69689 0.44396 0.93088 0.0
O215 O 0.6376 0.45512 0.10551 0.0
C216 C 0.63868 0.466 0.89231 0.0
O217 O 0.62719 0.44057 0.86872 0.0
N218 N 0.62701 0.39594 0.06151 0.0
C219 C 0.61232 0.33958 0.11642 0.0
C220 C 0.59855 0.36556 0.14312 0.0
C221 C 0.60637 0.39354 0.11521 0.0
C222 C 0.63927 0.37062 0.03218 0.0
C223 C 0.63288 0.34229 0.06012 0.0
H224 H 0.59454 0.41293 0.13428 0.0
H225 H 0.6542 0.37244 0.98682 0.0
H226 H 0.58582 0.48493 0.02683 0.0
H227 H 0.52831 0.41891 0.94052 0.0
H228 H 0.73711 0.3946 0.09674 0.0
H229 H 0.58182 0.36417 0.18503 0.0
H230 H 0.64347 0.32258 0.03713 0.0
C231 C 0.57439 0.07509 0.15667 0.0
C232 C 0.55877 0.04856 0.15503 0.0
N233 N 0.541 0.04752 0.21311 0.0
N234 N 0.56616 0.09107 0.21461 0.0
C235 C 0.54629 0.07339 0.24937 0.0
H236 H 0.59056 0.08259 0.11763 0.0
Co237 Co 0.58027 0.12976 0.2254 0.0
C238 C 0.55205 0.15636 0.3578 0.0
O239 O 0.57673 0.17183 0.37048 0.0
N240 N 0.59599 0.16948 0.23246 0.0
C241 C 0.62868 0.20759 0.23744 0.0
C242 C 0.62488 0.17739 0.24728 0.0
C243 C 0.58264 0.19589 0.21509 0.0
N244 N 0.60224 0.21914 0.21643 0.0
O245 O 0.5492 0.14254 0.15809 0.0
H246 H 0.64284 0.16251 0.26251 0.0
H247 H 0.55939 0.19804 0.19921 0.0
O248 O 0.5521 0.13751 0.30563 0.0
C249 C 0.55602 0.1474 0.09275 0.0
O250 O 0.58465 0.14862 0.07537 0.0
N251 N 0.61112 0.11491 0.28476 0.0
C252 C 0.66407 0.09712 0.35235 0.0
C253 C 0.63803 0.10274 0.39242 0.0
C254 C 0.61144 0.11125 0.35731 0.0
C255 C 0.63542 0.10645 0.24496 0.0
C256 C 0.66237 0.09801 0.27774 0.0
H257 H 0.59158 0.11516 0.38885 0.0
H258 H 0.63444 0.10839 0.18733 0.0
H259 H 0.53539 0.07948 0.2989 0.0
H260 H 0.56006 0.03137 0.11397 0.0
H261 H 0.64953 0.22006 0.24296 0.0
H262 H 0.63855 0.10145 0.45027 0.0
H263 H 0.68202 0.0934 0.24534 0.0
C264 C 0.58317 0.56326 0.43483 0.0
C265 C 0.55574 0.54917 0.43494 0.0
N266 N 0.5525 0.5352 0.49811 0.0
N267 N 0.59743 0.55795 0.49728 0.0
C268 C 0.5779 0.5412 0.5357 0.0
H269 H 0.59226 0.57649 0.39166 0.0
Co270 Co 0.63629 0.5715 0.51323 0.0
C271 C 0.65345 0.55296 0.66349 0.0
O272 O 0.67323 0.57469 0.67004 0.0
N273 N 0.67637 0.5862 0.52595 0.0
C274 C 0.71537 0.61724 0.54312 0.0
C275 C 0.68524 0.61284 0.55485 0.0
C276 C 0.70212 0.57471 0.49825 0.0
N277 N 0.72582 0.59337 0.50705 0.0
O278 O 0.65074 0.53614 0.46406 0.0
H279 H 0.6709 0.62869 0.58225 0.0
H280 H 0.7035 0.55386 0.46865 0.0
O281 O 0.63793 0.55 0.60581 0.0
C282 C 0.65146 0.5396 0.39628 0.0
O283 O 0.64889 0.567 0.371 0.0
N284 N 0.62016 0.60638 0.55301 0.0
C285 C 0.59252 0.66176 0.58597 0.0
C286 C 0.59384 0.63793 0.63611 0.0
C287 C 0.6068 0.61022 0.6178 0.0
C288 C 0.62019 0.629 0.50451 0.0
C289 C 0.60776 0.65686 0.52071 0.0
H290 H 0.60575 0.59196 0.65543 0.0
H291 H 0.63085 0.62549 0.45317 0.0
H292 H 0.58221 0.53327 0.58942 0.0
H293 H 0.53924 0.54925 0.39211 0.0
H294 H 0.72844 0.63693 0.55758 0.0
H295 H 0.58572 0.64025 0.69011 0.0
H296 H 0.61137 0.67425 0.48181 0.0
C297 C 0.42954 0.08343 0.65469 0.0
C298 C 0.44305 0.0558 0.64736 0.0
N299 N 0.4676 0.05529 0.68988 0.0
N300 N 0.44574 0.10034 0.70087 0.0
C301 C 0.46847 0.08237 0.72259 0.0
H302 H 0.40983 0.09121 0.62607 0.0
Co303 Co 0.43758 0.14053 0.71867 0.0
C304 C 0.46249 0.14303 0.87321 0.0
O305 O 0.436 0.14169 0.90388 0.0
N306 N 0.42889 0.18156 0.73613 0.0
C307 C 0.40825 0.22222 0.78549 0.0
C308 C 0.415 0.19255 0.79501 0.0
C309 C 0.43095 0.20557 0.69206 0.0
N310 N 0.41827 0.23047 0.72084 0.0
O311 O 0.47203 0.15111 0.65973 0.0
H312 H 0.40788 0.1795 0.84025 0.0
H313 H 0.4401 0.2046 0.6386 0.0
O314 O 0.46438 0.14136 0.80481 0.0
C315 C 0.46609 0.1504 0.59267 0.0
O316 O 0.43806 0.14564 0.57267 0.0
N317 N 0.40223 0.12885 0.76736 0.0
C318 C 0.34582 0.11198 0.81866 0.0
C319 C 0.37204 0.09817 0.8447 0.0
C320 C 0.40013 0.10644 0.81688 0.0
C321 C 0.37664 0.14069 0.73801 0.0
C322 C 0.34825 0.13304 0.7638 0.0
H323 H 0.42015 0.0948 0.83479 0.0
H324 H 0.37826 0.15634 0.69406 0.0
H325 H 0.48594 0.08914 0.75947 0.0
H326 H 0.43597 0.03775 0.61206 0.0
H327 H 0.39597 0.23651 0.82224 0.0
H328 H 0.37074 0.08105 0.88559 0.0
H329 H 0.32835 0.14341 0.74106 0.0
C330 C 0.93037 0.91557 0.96119 0.0
C331 C 0.95821 0.92907 0.95683 0.0
N332 N 0.95734 0.95503 0.99407 0.0
N333 N 0.91192 0.93293 1.0008 0.0
C334 C 0.92918 0.95659 0.02111 0.0
H335 H 0.92345 0.8952 0.93394 0.0
Co336 Co 0.87032 0.92641 1.00588 0.0
C337 C 0.86194 0.95003 0.16016 0.0
O338 O 0.8608 0.92318 0.18872 0.0
N339 N 0.82802 0.91989 1.00755 0.0
C340 C 0.7812 0.90858 0.0413 0.0
C341 C 0.81043 0.91259 0.0638 0.0
C342 C 0.80878 0.91953 0.95093 0.0
N343 N 0.78022 0.91304 0.9704 0.0
O344 O 0.86462 0.96113 0.94616 0.0
H345 H 0.81831 0.90853 0.11725 0.0
H346 H 0.81559 0.92303 0.89615 0.0
O347 O 0.8666 0.95279 0.09266 0.0
C348 C 0.86907 0.95658 0.87951 0.0
O349 O 0.87486 0.92916 0.85719 0.0
N350 N 0.87728 0.89072 0.0585 0.0
C351 C 0.88981 0.83479 0.119 0.0
C352 C 0.90481 0.86065 0.14316 0.0
C353 C 0.89878 0.88833 0.11084 0.0
C354 C 0.86371 0.8654 0.03215 0.0
C355 C 0.86937 0.83728 0.06216 0.0
H356 H 0.91127 0.90794 0.12823 0.0
H357 H 0.84873 0.8668 0.98653 0.0
H358 H 0.92099 0.97545 0.05143 0.0
H359 H 0.97729 0.9211 0.92628 0.0
H360 H 0.76228 0.9018 0.07388 0.0
H361 H 0.92127 0.85936 0.18597 0.0
H362 H 0.85802 0.81759 0.04094 0.0
C363 C 0.08136 0.41786 0.20253 0.0
C364 C 0.06868 0.44609 0.20149 0.0
N365 N 0.0429 0.44523 0.23924 0.0
N366 N 0.06355 0.39934 0.24048 0.0
C367 C 0.04043 0.41672 0.26279 0.0
H368 H 0.10156 0.41088 0.17489 0.0
Co369 Co 0.06812 0.35794 0.24683 0.0
C370 C 0.04693 0.34709 0.3965 0.0
O371 O 0.07159 0.33197 0.41133 0.0
N372 N 0.07215 0.31544 0.24907 0.0
C373 C 0.06419 0.26628 0.26444 0.0
C374 C 0.05633 0.29465 0.28619 0.0
C375 C 0.08835 0.29871 0.20217 0.0
N376 N 0.08432 0.26896 0.21178 0.0
O377 O 0.03317 0.35333 0.18767 0.0
H378 H 0.0388 0.29909 0.32407 0.0
H379 H 0.10175 0.30803 0.15946 0.0
O380 O 0.04293 0.3579 0.33378 0.0
C381 C 0.03961 0.35448 0.12135 0.0
O382 O 0.06805 0.35652 0.10271 0.0
N383 N 0.10402 0.36386 0.30061 0.0
C384 C 0.15922 0.37985 0.36204 0.0
C385 C 0.13237 0.39185 0.38852 0.0
C386 C 0.10502 0.38392 0.35632 0.0
C387 C 0.13025 0.35262 0.27349 0.0
C388 C 0.15806 0.35993 0.30414 0.0
H389 H 0.08474 0.39496 0.37423 0.0
H390 H 0.13011 0.3393 0.22544 0.0
H391 H 0.02136 0.4084 0.29272 0.0
H392 H 0.0772 0.46556 0.1735 0.0
H393 H 0.0549 0.24529 0.2835 0.0
H394 H 0.13266 0.40796 0.43213 0.0
H395 H 0.17859 0.35102 0.28116 0.0
C396 C 0.4132 0.56153 0.91473 0.0
C397 C 0.43952 0.54591 0.90825 0.0
N398 N 0.44674 0.53486 0.97283 0.0
N399 N 0.40324 0.55993 0.98292 0.0
C400 C 0.42453 0.54378 0.01747 0.0
H401 H 0.4018 0.57314 0.8717 0.0
Co402 Co 0.36612 0.57625 0.01072 0.0
C403 C 0.35824 0.54634 0.12989 0.0
O404 O 0.36368 0.57427 0.14906 0.0
N405 N 0.3286 0.59282 0.03555 0.0
C406 C 0.29481 0.62671 0.07059 0.0
C407 C 0.3247 0.61857 0.07295 0.0
C408 C 0.30063 0.58511 0.01348 0.0
N409 N 0.27984 0.60571 0.03269 0.0
O410 O 0.35065 0.55951 0.9203 0.0
H411 H 0.3428 0.63171 0.09618 0.0
H412 H 0.29568 0.56579 0.98027 0.0
O413 O 0.35647 0.54011 0.06291 0.0
C414 C 0.33373 0.55867 0.86485 0.0
O415 O 0.31307 0.57923 0.85436 0.0
N416 N 0.3774 0.61298 0.97156 0.0
C417 C 0.38783 0.67441 0.97631 0.0
C418 C 0.40494 0.65493 0.01826 0.0
C419 C 0.39922 0.62435 0.01543 0.0
C420 C 0.36241 0.63113 0.92472 0.0
C421 C 0.36745 0.66234 0.92602 0.0
H422 H 0.41008 0.60996 0.0542 0.0
H423 H 0.34478 0.62218 0.89129 0.0
H424 H 0.42351 0.5379 0.07327 0.0
H425 H 0.45252 0.54289 0.85985 0.0
H426 H 0.28524 0.64755 0.09008 0.0
H427 H 0.42083 0.66352 0.05754 0.0
H428 H 0.35395 0.67698 0.8927 0.0
C429 C 0.42277 0.92439 0.15319 0.0
C430 C 0.43552 0.95246 0.15855 0.0
N431 N 0.45781 0.95129 0.20753 0.0
N432 N 0.4372 0.90555 0.19792 0.0
C433 C 0.458 0.92274 0.2316 0.0
H434 H 0.40533 0.91762 0.11586 0.0
Co435 Co 0.43218 0.86424 0.19387 0.0
C436 C 0.45487 0.85174 0.3474 0.0
O437 O 0.42772 0.84688 0.37245 0.0
N438 N 0.42706 0.82243 0.18474 0.0
C439 C 0.42178 0.77303 0.19893 0.0
C440 C 0.42879 0.79976 0.2325 0.0
C441 C 0.41913 0.80879 0.12253 0.0
N442 N 0.41579 0.77889 0.12991 0.0
O443 O 0.46803 0.86163 0.13576 0.0
H444 H 0.43418 0.80207 0.28836 0.0
H445 H 0.41484 0.82061 0.07315 0.0
O446 O 0.45778 0.85883 0.28129 0.0
C447 C 0.46424 0.86626 0.06895 0.0
O448 O 0.43701 0.87251 0.04557 0.0
N449 N 0.39555 0.86791 0.24579 0.0
C450 C 0.33854 0.87804 0.30419 0.0
C451 C 0.36395 0.89259 0.33241 0.0
C452 C 0.39221 0.88759 0.30169 0.0
C453 C 0.37066 0.8544 0.21658 0.0
C454 C 0.34204 0.8588 0.24558 0.0
H455 H 0.41141 0.89976 0.32263 0.0
H456 H 0.37253 0.84097 0.16868 0.0
H457 H 0.47432 0.91424 0.26933 0.0
H458 H 0.42993 0.97189 0.12644 0.0
H459 H 0.42065 0.75105 0.22341 0.0
H460 H 0.36183 0.90813 0.37685 0.0
H461 H 0.32268 0.8479 0.2213 0.0
C462 C 0.08098 0.9248 0.40643 0.0
C463 C 0.05371 0.93941 0.40606 0.0
N464 N 0.0521 0.95711 0.46465 0.0
N465 N 0.09704 0.93363 0.4641 0.0
C466 C 0.07847 0.95267 0.49977 0.0
H467 H 0.08928 0.91 0.36497 0.0
Co468 Co 0.13853 0.92619 0.4742 0.0
C469 C 0.14624 0.94501 0.62823 0.0
O470 O 0.15628 0.91831 0.64632 0.0
N471 N 0.18103 0.9193 0.48039 0.0
C472 C 0.23021 0.9203 0.50717 0.0
C473 C 0.2019 0.928 0.52957 0.0
C474 C 0.1979 0.90697 0.42737 0.0
N475 N 0.22764 0.90716 0.44298 0.0
O476 O 0.14629 0.96135 0.41809 0.0
H477 H 0.19801 0.94065 0.57744 0.0
H478 H 0.18867 0.89855 0.37754 0.0
O479 O 0.1392 0.95057 0.56304 0.0
C480 C 0.14597 0.95637 0.35076 0.0
O481 O 0.14241 0.92869 0.32759 0.0
N482 N 0.12994 0.89025 0.52379 0.0
C483 C 0.11603 0.8353 0.58665 0.0
C484 C 0.1018 0.86165 0.6095 0.0
C485 C 0.10858 0.88883 0.57621 0.0
C486 C 0.14273 0.86441 0.49859 0.0
C487 C 0.13634 0.83669 0.52979 0.0
H488 H 0.09683 0.90881 0.59318 0.0
H489 H 0.15749 0.86495 0.453 0.0
H490 H 0.08464 0.96428 0.54863 0.0
H491 H 0.03667 0.93793 0.36456 0.0
H492 H 0.25126 0.92517 0.53438 0.0
H493 H 0.08545 0.86115 0.65236 0.0
H494 H 0.14704 0.81651 0.50962 0.0
C495 C 0.0885 0.57855 0.71375 0.0
C496 C 0.07513 0.55073 0.70698 0.0
N497 N 0.04874 0.55137 0.74226 0.0
N498 N 0.07055 0.59655 0.75306 0.0
C499 C 0.04659 0.57929 0.77016 0.0
H500 H 0.10925 0.58569 0.68888 0.0
Co501 Co 0.07539 0.63779 0.76504 0.0
C502 C 0.05116 0.64017 0.91565 0.0
O503 O 0.07796 0.64396 0.94414 0.0
N504 N 0.0794 0.68001 0.77334 0.0
C505 C 0.08469 0.72751 0.81017 0.0
C506 C 0.0796 0.69845 0.83124 0.0
C507 C 0.0846 0.69867 0.71769 0.0
N508 N 0.08781 0.72748 0.73891 0.0
O509 O 0.04179 0.64324 0.70122 0.0
H510 H 0.07724 0.69173 0.88595 0.0
H511 H 0.08692 0.69125 0.66285 0.0
O512 O 0.04774 0.63745 0.8478 0.0
C513 C 0.04835 0.64013 0.63514 0.0
O514 O 0.07667 0.63597 0.61739 0.0
N515 N 0.1104 0.63128 0.8233 0.0
C516 C 0.16424 0.62108 0.89788 0.0
C517 C 0.14035 0.60066 0.90254 0.0
C518 C 0.11354 0.60629 0.86544 0.0
C519 C 0.13431 0.65036 0.8154 0.0
C520 C 0.16081 0.64638 0.85436 0.0
H521 H 0.0952 0.59058 0.87147 0.0
H522 H 0.13347 0.66863 0.77776 0.0
H523 H 0.02712 0.58741 0.79905 0.0
H524 H 0.08354 0.53181 0.67644 0.0
H525 H 0.08675 0.74707 0.84449 0.0
H526 H 0.1424 0.58055 0.93467 0.0
H527 H 0.17909 0.66229 0.84803 0.0
C528 C 0.01046 0.96801 0.01973 0.0
C529 C 0.98127 0.97715 0.99815 0.0
C530 C 1.00081 0.02809 0.98038 0.0
C531 C 0.03083 0.01742 0.98685 0.0
N532 N 0.06384 0.97442 1.00295 0.0
N533 N 0.94983 0.01564 0.94572 0.0
C534 C 0.03568 0.98667 1.00473 0.0
C535 C 0.9766 0.00723 0.9757 0.0
N536 N 0.01399 0.94156 0.05546 0.0
N537 N 0.9954 0.05827 0.98008 0.0
H538 H 0.932 1.00083 0.93739 0.0
H539 H 0.94655 0.03659 0.92222 0.0
H540 H 0.01255 0.07404 0.98753 0.0
H541 H 0.97373 0.06729 0.98109 0.0
H542 H 0.03441 0.93496 0.07823 0.0
H543 H 0.99573 0.92801 0.06924 0.0
H544 H 0.0677 0.95143 1.00804 0.0
H545 H 0.08307 0.98631 0.98934 0.0
C546 C 0.01331 0.52332 0.26825 0.0
C547 C 0.98222 0.51967 0.25095 0.0
C548 C 0.99128 0.4663 0.22598 0.0
C549 C 0.0217 0.46956 0.24808 0.0
N550 N 0.0588 0.49905 0.31077 0.0
N551 N 0.94054 0.4854 0.23766 0.0
C552 C 0.03175 0.49743 0.27601 0.0
C553 C 0.97087 0.49032 0.23786 0.0
N554 N 0.02599 0.55117 0.27252 0.0
N555 N 0.9822 0.44122 0.18951 0.0
H556 H 0.92515 0.50234 0.25014 0.0
H557 H 0.93111 0.46399 0.23357 0.0
H558 H 0.99693 0.42406 0.1749 0.0
H559 H 0.96079 0.43912 0.16687 0.0
H560 H 0.04914 0.55459 0.27738 0.0
H561 H 0.01406 0.57086 0.26422 0.0
H562 H 0.06609 0.51827 0.33786 0.0
H563 H 0.07229 0.48018 0.31916 0.0
C564 C 0.49797 0.53366 0.51557 0.0
C565 C 0.526 0.51874 0.51886 0.0
C566 C 0.49959 0.47078 0.53117 0.0
C567 C 0.47234 0.48499 0.51086 0.0
N568 N 0.44558 0.53068 0.48129 0.0
N569 N 0.55407 0.47268 0.53104 0.0
C570 C 0.47128 0.51676 0.50386 0.0
C571 C 0.52704 0.48718 0.52845 0.0
N572 N 0.49723 0.56418 0.52287 0.0
N573 N 0.49895 0.44169 0.55403 0.0
H574 H 0.57458 0.48398 0.53189 0.0
H575 H 0.55616 0.44938 0.52872 0.0
H576 H 0.47884 0.42969 0.55881 0.0
H577 H 0.51765 0.43069 0.57521 0.0
H578 H 0.47733 0.57645 0.52706 0.0
H579 H 0.51676 0.57673 0.53233 0.0
H580 H 0.44473 0.55329 0.46724 0.0
H581 H 0.42551 0.51938 0.47133 0.0
C582 C 0.49904 0.97724 0.69619 0.0
C583 C 0.53034 0.98275 0.68767 0.0
C584 C 0.52016 0.03664 0.67845 0.0
C585 C 0.48938 0.03132 0.6943 0.0
N586 N 0.45155 0.99731 0.7378 0.0
N587 N 0.57125 0.01825 0.69003 0.0
C588 C 0.4795 0.0018 0.70965 0.0
C589 C 0.54108 0.01271 0.68515 0.0
N590 N 0.48751 0.94906 0.68626 0.0
N591 N 0.52918 0.06381 0.65244 0.0
H592 H 0.58696 1.00115 0.69771 0.0
H593 H 0.58015 0.03989 0.69432 0.0
H594 H 0.51425 0.08123 0.64148 0.0
H595 H 0.55098 0.06779 0.63418 0.0
H596 H 0.46445 0.9446 0.68612 0.0
H597 H 0.50048 0.93086 0.66978 0.0
H598 H 0.44418 0.97638 0.75557 0.0
H599 H 0.4372 0.01507 0.75055 0.0
C600 C 0.99747 0.96738 0.47391 0.0
C601 C 0.02763 0.97765 0.48117 0.0
C602 C 0.00794 0.02786 0.50977 0.0
C603 C 0.97878 0.01878 0.48762 0.0
N604 N 0.94709 0.98032 0.43556 0.0
N605 N 0.06131 0.02036 0.49574 0.0
C606 C 0.97375 0.98856 0.46661 0.0
C607 C 0.03293 0.00859 0.49712 0.0
N608 N 0.99147 0.93732 0.47531 0.0
N609 N 0.01166 0.05478 0.54392 0.0
H610 H 0.08043 0.00797 0.48382 0.0
H611 H 0.06555 0.04336 0.49944 0.0
H612 H 0.99355 0.06882 0.55603 0.0
H613 H 0.03203 0.06142 0.56707 0.0
H614 H 0.96961 0.92871 0.4756 0.0
H615 H 0.00823 0.92137 0.48483 0.0
H616 H 0.94348 0.95904 0.41357 0.0
H617 H 0.92989 0.99556 0.42459 0.0
C618 C 0.01556 0.47402 0.75692 0.0
C619 C 0.98515 0.47922 0.73583 0.0
C620 C 0.99701 0.53245 0.71764 0.0
C621 C 0.02656 0.52765 0.74422 0.0
N622 N 0.06099 0.49567 0.80777 0.0
N623 N 0.94532 0.51518 0.71823 0.0
C624 C 0.03484 0.49897 0.76995 0.0
C625 C 0.97537 0.50909 0.72334 0.0
N626 N 0.02682 0.44556 0.75998 0.0
N627 N 0.98999 0.5585 0.68304 0.0
H628 H 0.92892 0.49871 0.72611 0.0
H629 H 0.93685 0.53696 0.7146 0.0
H630 H 0.00575 0.57537 0.67349 0.0
H631 H 0.96946 0.56183 0.65703 0.0
H632 H 0.04961 0.44099 0.76786 0.0
H633 H 0.01418 0.4266 0.74766 0.0
H634 H 0.06688 0.47576 0.83345 0.0
H635 H 0.07509 0.5138 0.81984 0.0
C636 C 0.52556 0.50732 0.95593 0.0
C637 C 0.52391 0.47912 0.99028 0.0
C638 C 0.47075 0.48792 0.01697 0.0
C639 C 0.47319 0.51721 0.9879 0.0
N640 N 0.50539 0.55768 0.95024 0.0
N641 N 0.4976 0.44655 0.0715 0.0
C642 C 0.50153 0.52787 0.96431 0.0
C643 C 0.49731 0.47068 0.02672 0.0
N644 N 0.54896 0.51369 0.91142 0.0
N645 N 0.44317 0.47571 0.03078 0.0
H646 H 0.51715 0.43432 0.08205 0.0
H647 H 0.47939 0.44091 0.10387 0.0
H648 H 0.42301 0.4868 0.0203 0.0
H649 H 0.44032 0.45334 0.04572 0.0
H650 H 0.54981 0.53309 0.8804 0.0
H651 H 0.56566 0.49805 0.89931 0.0
H652 H 0.52629 0.56697 0.93779 0.0
H653 H 0.48838 0.57343 0.95907 0.0
C654 C 0.46893 0.00398 0.2399 0.0
C655 C 0.47939 0.97483 0.22209 0.0
C656 C 0.53108 0.99363 0.22686 0.0
C657 C 0.52023 0.0235 0.22867 0.0
N658 N 0.47757 0.05727 0.22685 0.0
N659 N 0.52098 0.94343 0.18429 0.0
C660 C 0.48879 0.02887 0.2336 0.0
C661 C 0.51071 0.96981 0.21269 0.0
N662 N 0.44003 0.00777 0.26276 0.0
N663 N 0.56101 0.98823 0.23741 0.0
H664 H 0.50679 0.92644 0.16577 0.0
H665 H 0.5435 0.93996 0.17104 0.0
H666 H 0.5762 0.00547 0.24945 0.0
H667 H 0.56985 0.96661 0.24197 0.0
H668 H 0.43189 0.02823 0.28196 0.0
H669 H 0.42537 0.98968 0.26969 0.0
H670 H 0.45458 0.06178 0.22314 0.0
H671 H 0.49105 0.07601 0.21797 0.0
C672 C 0.12566 0.00424 0.29705 0.0
C673 C 0.14756 0.981 0.29745 0.0
C674 C 0.16601 0.99813 0.1809 0.0
C675 C 0.14661 0.0235 0.18489 0.0
N676 N 0.10999 0.0525 0.25118 0.0
N677 N 0.19221 0.95909 0.24615 0.0
C678 C 0.12725 0.02721 0.24464 0.0
C679 C 0.16875 0.97889 0.2411 0.0
N680 N 0.10201 0.0033 0.34343 0.0
N681 N 0.18153 0.99191 0.1196 0.0
H682 H 0.19517 0.94484 0.28972 0.0
H683 H 0.21032 0.95889 0.2109 0.0
H684 H 0.18039 0.00503 0.0738 0.0
H685 H 0.19334 0.97197 0.11156 0.0
H686 H 0.0834 0.01748 0.34 0.0
H687 H 0.09951 0.9864 0.38104 0.0
H688 H 0.09861 0.05816 0.29797 0.0
H689 H 0.10832 0.06877 0.21148 0.0
C690 C 0.00385 0.66363 0.57149 0.0
C691 C 0.02484 0.63976 0.57801 0.0
C692 C 0.00763 0.61961 0.46245 0.0
C693 C 0.98301 0.63981 0.46239 0.0
N694 N 0.95828 0.68255 0.51646 0.0
N695 N 0.042 0.59125 0.53609 0.0
C696 C 0.98129 0.66222 0.51705 0.0
C697 C 0.02545 0.6167 0.52521 0.0
N698 N 0.00636 0.68838 0.61469 0.0
N699 N 0.01491 0.60395 0.40218 0.0
H700 H 0.05408 0.58732 0.58302 0.0
H701 H 0.04081 0.57261 0.5022 0.0
H702 H 0.00483 0.60829 0.35306 0.0
H703 H 0.034 0.59041 0.39857 0.0
H704 H 0.99396 0.70798 0.60721 0.0
H705 H 0.02273 0.69047 0.65443 0.0
H706 H 0.95307 0.69635 0.55982 0.0
H707 H 0.94395 0.68514 0.47279 0.0
C708 C 0.34181 0.48377 0.7658 0.0
C709 C 0.35532 0.49332 0.70073 0.0
C710 C 0.35267 0.54595 0.74153 0.0
C711 C 0.34008 0.53626 0.80743 0.0
N712 N 0.32454 0.49636 0.88561 0.0
N713 N 0.36844 0.53361 0.62062 0.0
C714 C 0.33507 0.50526 0.82032 0.0
C715 C 0.35906 0.52447 0.68665 0.0
N716 N 0.33387 0.45423 0.77365 0.0
N717 N 0.36056 0.57549 0.73348 0.0
H718 H 0.37441 0.51879 0.57989 0.0
H719 H 0.36824 0.55586 0.60378 0.0
H720 H 0.35663 0.59186 0.77238 0.0
H721 H 0.37317 0.58363 0.69096 0.0
H722 H 0.32126 0.44599 0.81601 0.0
H723 H 0.33768 0.43794 0.73446 0.0
H724 H 0.32401 0.47415 0.90269 0.0
H725 H 0.31758 0.51145 0.92506 0.0
C726 C 0.50785 0.83942 1.00806 0.0
C727 C 0.48949 0.86539 0.01626 0.0
C728 C 0.50716 0.88419 0.90053 0.0
C729 C 0.52881 0.86081 0.89656 0.0
N730 N 0.54653 0.81309 0.94061 0.0
N731 N 0.47806 0.91596 0.97918 0.0
C732 C 0.52829 0.8376 0.94911 0.0
C733 C 0.49119 0.88881 0.9652 0.0
N734 N 0.50485 0.81598 0.05453 0.0
N735 N 0.49989 0.90064 0.84156 0.0
H736 H 0.46734 0.92071 0.02751 0.0
H737 H 0.48099 0.93467 0.94654 0.0
H738 H 0.50656 0.89446 0.79037 0.0
H739 H 0.48297 0.91688 0.84145 0.0
H740 H 0.51524 0.79522 0.04828 0.0
H741 H 0.49073 0.8165 0.09879 0.0
H742 H 0.55114 0.79756 0.98059 0.0
H743 H 0.55714 0.80813 0.89226 0.0
C744 C 0.84145 0.01545 0.74757 0.0
C745 C 0.86882 0.02421 0.71473 0.0
C746 C 0.89647 0.98837 0.78957 0.0
C747 C 0.8694 0.98157 0.82689 0.0
N748 N 0.817 0.99237 0.84915 0.0
N749 N 0.92303 0.0227 0.71136 0.0
C750 C 0.84217 0.99635 0.80841 0.0
C751 C 0.89654 0.01161 0.73745 0.0
N752 N 0.81462 0.02455 0.71889 0.0
N753 N 0.92219 0.97256 0.80375 0.0
H754 H 0.92393 0.03936 0.67235 0.0
H755 H 0.94411 0.01707 0.73194 0.0
H756 H 0.92383 0.95701 0.84498 0.0
H757 H 0.94149 0.97375 0.7724 0.0
H758 H 0.79377 0.01657 0.73567 0.0
H759 H 0.81334 0.03773 0.67311 0.0
H760 H 0.79738 0.00491 0.84285 0.0
H761 H 0.81653 0.97841 0.89364 0.0
C762 C 1.00071 0.37897 0.95098 0.0
C763 C 0.97576 0.35914 0.94676 0.0
C764 C 0.99437 0.33348 0.05529 0.0
C765 C 0.01597 0.35668 0.06508 0.0
N766 N 0.03479 0.40534 0.03001 0.0
N767 N 0.95007 0.31532 0.99188 0.0
C768 C 0.01768 0.38053 0.01518 0.0
C769 C 0.97291 0.33578 0.99839 0.0
N770 N 0.00942 0.39524 0.89299 0.0
N771 N 0.99524 0.30864 0.0981 0.0
H772 H 0.93685 0.31341 0.94582 0.0
H773 H 0.94394 0.30053 0.03231 0.0
H774 H 0.01034 0.30633 0.14056 0.0
H775 H 0.98246 0.28938 0.08889 0.0
H776 H 0.02874 0.40858 0.89273 0.0
H777 H 1.00062 0.39147 0.84223 0.0
H778 H 0.03438 0.42462 0.9985 0.0
H779 H 0.0466 0.40802 0.07789 0.0
C780 C 0.63039 0.48996 0.34881 0.0
C781 C 0.65141 0.51404 0.34392 0.0
C782 C 0.6576 0.50366 0.21547 0.0
C783 C 0.63584 0.48037 0.21997 0.0
N784 N 0.61106 0.44417 0.29504 0.0
N785 N 0.69313 0.53526 0.28001 0.0
C786 C 0.62535 0.4712 0.28809 0.0
C787 C 0.66778 0.51789 0.27951 0.0
N788 N 0.61373 0.48578 0.40915 0.0
N789 N 0.66713 0.51366 0.15036 0.0
H790 H 0.70148 0.54478 0.3272 0.0
H791 H 0.70748 0.53719 0.23629 0.0
H792 H 0.65993 0.50438 0.10198 0.0
H793 H 0.68041 0.53279 0.14423 0.0
H794 H 0.59499 0.47167 0.41051 0.0
H795 H 0.61748 0.49712 0.45697 0.0
H796 H 0.60545 0.43493 0.34436 0.0
H797 H 0.60805 0.42942 0.25212 0.0
C798 C 0.52539 0.1814 0.4633 0.0
C799 C 0.52665 0.15762 0.4118 0.0
C800 C 0.49009 0.12917 0.48236 0.0
C801 C 0.48977 0.15196 0.53582 0.0
N802 N 0.50919 0.19904 0.5805 0.0
N803 N 0.4964 0.11854 0.35704 0.0
C804 C 0.50812 0.17787 0.52738 0.0
C805 C 0.50517 0.13411 0.41669 0.0
N806 N 0.53774 0.20865 0.44677 0.0
N807 N 0.47682 0.10205 0.4952 0.0
H808 H 0.50217 0.12523 0.30558 0.0
H809 H 0.47926 0.10252 0.35737 0.0
H810 H 0.46684 0.09696 0.54393 0.0
H811 H 0.47901 0.08363 0.46096 0.0
H812 H 0.53597 0.22775 0.47875 0.0
H813 H 0.54615 0.21343 0.39605 0.0
H814 H 0.52469 0.21659 0.58195 0.0
H815 H 0.49603 0.19792 0.6264 0.0
C816 C 0.63572 0.52007 0.84794 0.0
C817 C 0.64587 0.48997 0.83892 0.0
C818 C 0.65951 0.50102 0.71401 0.0
C819 C 0.65015 0.53124 0.72347 0.0
N820 N 0.63441 0.57114 0.80291 0.0
N821 N 0.67546 0.45476 0.77021 0.0
C822 C 0.64 0.54127 0.79167 0.0
C823 C 0.66001 0.48131 0.77378 0.0
N824 N 0.62062 0.5282 0.90854 0.0
N825 N 0.66816 0.49102 0.64791 0.0
H826 H 0.67752 0.44022 0.81349 0.0
H827 H 0.68901 0.44861 0.72723 0.0
H828 H 0.6704 0.50502 0.60369 0.0
H829 H 0.67129 0.46838 0.63567 0.0
H830 H 0.60916 0.54847 0.91429 0.0
H831 H 0.61755 0.51396 0.95181 0.0
H832 H 0.63087 0.58049 0.85333 0.0
H833 H 0.63525 0.58716 0.7625 0.0
C834 C 0.50693 0.16724 0.03884 0.0
C835 C 0.53249 0.14799 0.03451 0.0
C836 C 0.5168 0.1329 0.91253 0.0
C837 C 0.48946 0.14894 0.92055 0.0
N838 N 0.46455 0.19049 0.9776 0.0
N839 N 0.5576 0.10736 0.97195 0.0
C840 C 0.48616 0.1686 0.98024 0.0
C841 C 0.53641 0.12963 0.97241 0.0
N842 N 0.50199 0.18377 0.0994 0.0
N843 N 0.52533 0.12238 0.84697 0.0
H844 H 0.57173 0.10287 0.01502 0.0
H845 H 0.55881 0.09102 0.93198 0.0
H846 H 0.51407 0.12789 0.80007 0.0
H847 H 0.54624 0.11259 0.83731 0.0
H848 H 0.48188 0.19486 0.11026 0.0
H849 H 0.51724 0.18507 0.14152 0.0
H850 H 0.46231 0.20757 0.01536 0.0
H851 H 0.45095 0.19379 0.93266 0.0
C852 C 0.83701 0.99658 0.32265 0.0
C853 C 0.86162 0.01694 0.32735 0.0
C854 C 0.87794 1.00103 0.20787 0.0
C855 C 0.8575 0.97663 0.20902 0.0
N856 N 0.8147 0.95294 0.26488 0.0
N857 N 0.90952 0.03324 0.27998 0.0
C858 C 0.83623 0.97489 0.26598 0.0
C859 C 0.88327 0.01756 0.2716 0.0
N860 N 0.81361 0.99889 0.3697 0.0
N861 N 0.89087 0.0099 0.14546 0.0
H862 H 0.9152 0.0443 0.3274 0.0
H863 H 0.92702 0.03215 0.24301 0.0
H864 H 0.88325 0.00214 0.09606 0.0
H865 H 0.90489 0.02865 0.14191 0.0
H866 H 0.79345 0.98713 0.36417 0.0
H867 H 0.81325 0.0143 0.41172 0.0
H868 H 0.80156 0.94743 0.30896 0.0
H869 H 0.81023 0.93995 0.21954 0.0
C870 C 0.03074 0.36543 0.51805 0.0
C871 C 0.02353 0.35051 0.45277 0.0
C872 C 0.97545 0.33448 0.50424 0.0
C873 C 0.98084 0.35263 0.56565 0.0
N874 N 0.01123 0.39145 0.62132 0.0
N875 N 0.98532 0.32678 0.37865 0.0
C876 C 0.00794 0.36962 0.57037 0.0
C877 C 0.99474 0.33695 0.44409 0.0
N878 N 0.05916 0.37619 0.53016 0.0
N879 N 0.95254 0.31393 0.50406 0.0
H880 H 0.99802 0.32872 0.33231 0.0
H881 H 0.96338 0.31942 0.36885 0.0
H882 H 0.9387 0.31038 0.54811 0.0
H883 H 0.94953 0.29807 0.46347 0.0
H884 H 0.06641 0.38382 0.58016 0.0
H885 H 0.07616 0.37569 0.49201 0.0
H886 H 0.02899 0.40678 0.62169 0.0
H887 H 0.99466 0.39655 0.65844 0.0
C888 C 0.38075 0.52189 0.23812 0.0
C889 C 0.35669 0.52326 0.18753 0.0
C890 C 0.32717 0.48829 0.26188 0.0
C891 C 0.35129 0.48705 0.31222 0.0
N892 N 0.4028 0.49862 0.34214 0.0
N893 N 0.30551 0.51109 0.15511 0.0
C894 C 0.37838 0.50301 0.29888 0.0
C895 C 0.32959 0.50703 0.19997 0.0
N896 N 0.40578 0.53951 0.22957 0.0
N897 N 0.30213 0.47099 0.2729 0.0
H898 H 0.30646 0.52438 0.10938 0.0
H899 H 0.284 0.5028 0.16463 0.0
H900 H 0.29883 0.45872 0.31963 0.0
H901 H 0.28513 0.46771 0.23521 0.0
H902 H 0.42153 0.5436 0.26988 0.0
H903 H 0.4103 0.55166 0.18346 0.0
H904 H 0.4247 0.505 0.32941 0.0
H905 H 0.40145 0.48692 0.38968 0.0
C906 C 0.47944 0.83177 0.46129 0.0
C907 C 0.48149 0.84991 0.39848 0.0
C908 C 0.52383 0.87715 0.45296 0.0
C909 C 0.52254 0.85898 0.51524 0.0
N910 N 0.49982 0.81726 0.57721 0.0
N911 N 0.51593 0.87884 0.32568 0.0
C912 C 0.50034 0.83592 0.51933 0.0
C913 C 0.50666 0.86936 0.39138 0.0
N914 N 0.4581 0.80964 0.46418 0.0
N915 N 0.54081 0.90276 0.45308 0.0
H916 H 0.50753 0.87008 0.27797 0.0
H917 H 0.53542 0.89153 0.31829 0.0
H918 H 0.55248 0.91025 0.49815 0.0
H919 H 0.54018 0.91832 0.41153 0.0
H920 H 0.45153 0.79888 0.51087 0.0
H921 H 0.44716 0.80156 0.41852 0.0
H922 H 0.48734 0.79753 0.57988 0.0
H923 H 0.51239 0.82107 0.62334 0.0
C924 C 0.12719 0.96527 0.74521 0.0
C925 C 0.14558 0.96899 0.68381 0.0
C926 C 0.17 0.0124 0.74104 0.0
C927 C 0.14949 0.01062 0.79885 0.0
N928 N 0.10396 0.9892 0.84711 0.0
N929 N 0.18011 1.00035 0.61731 0.0
C930 C 0.12693 0.98797 0.79891 0.0
C931 C 0.16559 0.99389 0.6797 0.0
N932 N 0.10963 0.94022 0.75227 0.0
N933 N 0.1944 0.03108 0.74576 0.0
H934 H 0.17742 0.98793 0.57048 0.0
H935 H 0.19248 0.01999 0.60981 0.0
H936 H 0.19881 0.04439 0.79065 0.0
H937 H 0.21189 0.03099 0.70875 0.0
H938 H 0.09889 0.93457 0.79983 0.0
H939 H 0.10719 0.92407 0.7122 0.0
H940 H 0.08495 0.97548 0.84432 0.0
H941 H 0.10239 0.00592 0.88578 0.0
C942 C 0.98246 0.66435 0.02305 0.0
C943 C 0.98332 0.6426 0.07881 0.0
C944 C 0.02389 0.61592 0.01572 0.0
C945 C 0.02507 0.63922 0.96467 0.0
N946 N 0.00704 0.68668 0.92038 0.0
N947 N 0.00735 0.5992 0.13162 0.0
C948 C 0.00461 0.66361 0.96808 0.0
C949 C 0.00485 0.61891 0.07624 0.0
N950 N 0.96034 0.68569 0.02221 0.0
N951 N 0.04018 0.59024 1.00452 0.0
H952 H 0.99332 0.59966 0.17574 0.0
H953 H 0.0249 0.58384 0.13666 0.0
H954 H 0.05377 0.58711 0.95969 0.0
H955 H 0.0379 0.57087 0.0351 0.0
H956 H 0.95585 0.69944 0.97855 0.0
H957 H 0.94533 0.68884 0.0641 0.0
H958 H 0.99591 0.70714 0.92582 0.0
H959 H 0.02136 0.68595 0.87646 0.0
C960 C 0.08138 0.23337 0.11075 0.0
C961 C 0.09688 0.24442 0.17168 0.0
C962 C 0.13065 0.20091 0.17032 0.0
C963 C 0.11502 0.18969 0.10936 0.0
N964 N 0.07924 0.19702 0.01357 0.0
N965 N 0.13862 0.24259 0.25308 0.0
C966 C 0.09155 0.20657 0.07692 0.0
C967 C 0.12241 0.22936 0.19921 0.0
N968 N 0.05621 0.24805 0.08739 0.0
N969 N 0.15261 0.18385 0.20175 0.0
H970 H 0.13259 0.2633 0.27517 0.0
H971 H 0.15901 0.23438 0.27245 0.0
H972 H 0.15973 0.16329 0.18079 0.0
H973 H 0.16283 0.18915 0.25038 0.0
H974 H 0.04162 0.2397 0.04837 0.0
H975 H 0.04907 0.26828 0.10996 0.0
H976 H 0.06411 0.20963 0.98347 0.0
H977 H 0.08572 0.17714 0.98819 0.0
C978 C 0.78793 0.58807 0.37122 0.0
C979 C 0.81324 0.59494 0.41492 0.0
C980 C 0.78102 0.59216 0.52075 0.0
C981 C 0.75531 0.591 0.47584 0.0
N982 N 0.73431 0.5945 0.3569 0.0
N983 N 0.83301 0.60776 0.53211 0.0
C984 C 0.75868 0.59043 0.40055 0.0
C985 C 0.80971 0.59781 0.49022 0.0
N986 N 0.79183 0.57926 0.30179 0.0
N987 N 0.77785 0.58784 0.59256 0.0
H988 H 0.85412 0.61333 0.51191 0.0
H989 H 0.83053 0.61313 0.58607 0.0
H990 H 0.757 0.58325 0.61573 0.0
H991 H 0.79609 0.58582 0.62747 0.0
H992 H 0.77413 0.57165 0.26961 0.0
H993 H 0.81311 0.57649 0.27915 0.0
H994 H 0.73614 0.59713 0.3017 0.0
H995 H 0.71267 0.59838 0.37626 0.0
C996 C 0.39412 0.29252 0.59582 0.0
C997 C 0.39679 0.31771 0.6425 0.0
C998 C 0.42181 0.28556 0.7303 0.0
C999 C 0.41383 0.25978 0.68975 0.0
N1000 N 0.38622 0.2389 0.58945 0.0
N1001 N 0.4082 0.33645 0.76134 0.0
C1002 C 0.39845 0.2632 0.62364 0.0
C1003 C 0.40941 0.31383 0.71178 0.0
N1004 N 0.38829 0.29648 0.52468 0.0
N1005 N 0.44156 0.283 0.78609 0.0
H1006 H 0.39768 0.35698 0.75162 0.0
H1007 H 0.41474 0.33358 0.81449 0.0
H1008 H 0.452 0.26268 0.79876 0.0
H1009 H 0.45002 0.30151 0.81403 0.0
H1010 H 0.38871 0.27884 0.48781 0.0
H1011 H 0.38648 0.31766 0.50137 0.0
H1012 H 0.37246 0.24086 0.54438 0.0
H1013 H 0.38691 0.21725 0.61031 0.0
C1014 C 0.71241 0.92981 0.85462 0.0
C1015 C 0.69913 0.90078 0.85023 0.0
C1016 C 0.74271 0.87958 0.91375 0.0
C1017 C 0.75413 0.9089 0.92514 0.0
N1018 N 0.74835 0.96234 0.91554 0.0
N1019 N 0.69939 0.84856 0.88506 0.0
C1020 C 0.73864 0.93417 0.8977 0.0
C1021 C 0.71375 0.87573 0.88211 0.0
N1022 N 0.70042 0.95301 0.81622 0.0
N1023 N 0.75996 0.85542 0.93227 0.0
H1024 H 0.67795 0.84488 0.86374 0.0
H1025 H 0.70755 0.83035 0.91407 0.0
H1026 H 0.78136 0.85776 0.95499 0.0
H1027 H 0.75437 0.83333 0.9192 0.0
H1028 H 0.71078 0.97391 0.81157 0.0
H1029 H 0.68135 0.95058 0.78389 0.0
H1030 H 0.73643 0.98183 0.90347 0.0
H1031 H 0.76729 0.96603 0.94762 0.0
C1032 C 0.90009 0.2476 0.63803 0.0
C1033 C 0.90728 0.25103 0.71166 0.0
C1034 C 0.90365 0.19646 0.72638 0.0
C1035 C 0.89985 0.19285 0.65125 0.0
N1036 N 0.90433 0.2154 0.53424 0.0
N1037 N 0.92472 0.22771 0.82029 0.0
C1038 C 0.90127 0.21857 0.60655 0.0
C1039 C 0.91187 0.22509 0.75411 0.0
N1040 N 0.89014 0.27149 0.59897 0.0
N1041 N 0.89783 0.17325 0.7719 0.0
H1042 H 0.93255 0.2482 0.84038 0.0
H1043 H 0.93073 0.20916 0.85109 0.0
H1044 H 0.88983 0.15241 0.75467 0.0
H1045 H 0.89778 0.17586 0.82736 0.0
H1046 H 0.88236 0.26931 0.54649 0.0
H1047 H 0.88617 0.29259 0.62128 0.0
H1048 H 0.90787 0.23364 0.50044 0.0
H1049 H 0.90683 0.19451 0.50945 0.0
C1050 C 0.80983 0.41479 0.9692 0.0
C1051 C 0.81119 0.41293 0.89324 0.0
C1052 C 0.75614 0.41389 0.88899 0.0
C1053 C 0.75501 0.41978 0.96369 0.0
N1054 N 0.78258 0.4365 0.06818 0.0
N1055 N 0.78491 0.42213 0.78169 0.0
C1056 C 0.78245 0.42371 1.00176 0.0
C1057 C 0.78411 0.41633 0.85328 0.0
N1058 N 0.83359 0.4062 0.01098 0.0
N1059 N 0.73144 0.40365 0.85267 0.0
H1060 H 0.80503 0.42595 0.7545 0.0
H1061 H 0.76549 0.42664 0.75199 0.0
H1062 H 0.71155 0.39745 0.878 0.0
H1063 H 0.73227 0.39738 0.79888 0.0
H1064 H 0.83221 0.40529 0.06663 0.0
H1065 H 0.85308 0.39647 0.99049 0.0
H1066 H 0.80247 0.44149 0.09568 0.0
H1067 H 0.76319 0.44549 0.09121 0.0
C1068 C 0.59246 0.25663 0.1212 0.0
C1069 C 0.59796 0.24977 0.1941 0.0
C1070 C 0.61135 0.30223 0.21795 0.0
C1071 C 0.60473 0.3094 0.14553 0.0
N1072 N 0.58027 0.2952 0.03483 0.0
N1073 N 0.60425 0.2669 0.31498 0.0
C1074 C 0.59238 0.28714 0.09928 0.0
C1075 C 0.60445 0.27304 0.24351 0.0
N1076 N 0.58938 0.23408 0.07196 0.0
N1077 N 0.62599 0.32244 0.26106 0.0
H1078 H 0.59891 0.24559 0.33442 0.0
H1079 H 0.60627 0.28341 0.35439 0.0
H1080 H 0.6327 0.34365 0.24388 0.0
H1081 H 0.63398 0.31712 0.31193 0.0
H1082 H 0.58865 0.23788 0.01701 0.0
H1083 H 0.59021 0.21142 0.08529 0.0
H1084 H 0.56858 0.28022 1.00188 0.0
H1085 H 0.57914 0.31749 0.01792 0.0
C1086 C 0.7114 0.11837 0.40602 0.0
C1087 C 0.69372 0.09275 0.38802 0.0
C1088 C 0.73255 0.0596 0.4382 0.0
C1089 C 0.75051 0.0851 0.45374 0.0
N1090 N 0.76013 0.13793 0.44378 0.0
N1091 N 0.6884 0.03899 0.37813 0.0
C1092 C 0.74077 0.11428 0.43506 0.0
C1093 C 0.70462 0.0633 0.40141 0.0
N1094 N 0.69982 0.14657 0.39656 0.0
N1095 N 0.74196 0.03201 0.46098 0.0
H1096 H 0.6674 0.04096 0.35328 0.0
H1097 H 0.69634 0.01701 0.37954 0.0
H1098 H 0.76259 0.02884 0.48685 0.0
H1099 H 0.72886 0.01264 0.45812 0.0
H1100 H 0.71006 0.16607 0.41569 0.0
H1101 H 0.67882 0.15055 0.37324 0.0
H1102 H 0.7559 0.15952 0.42512 0.0
H1103 H 0.78173 0.13538 0.46511 0.0
C1104 C 0.58873 0.74575 0.58711 0.0
C1105 C 0.58239 0.75109 0.66028 0.0
C1106 C 0.56574 0.69868 0.67152 0.0
C1107 C 0.57909 0.6924 0.6043 0.0
N1108 N 0.57513 0.71432 0.48711 0.0
N1109 N 0.55985 0.73398 0.76991 0.0
C1110 C 0.5824 0.71716 0.55769 0.0
C1111 C 0.56914 0.72795 0.70187 0.0
N1112 N 0.60216 0.7672 0.54622 0.0
N1113 N 0.54614 0.67845 0.70009 0.0
H1114 H 0.55957 0.7557 0.79108 0.0
H1115 H 0.55337 0.71733 0.80572 0.0
H1116 H 0.53963 0.65922 0.67172 0.0
H1117 H 0.53359 0.68249 0.74608 0.0
H1118 H 0.60903 0.76294 0.49383 0.0
H1119 H 0.609 0.78796 0.56653 0.0
H1120 H 0.57477 0.73256 0.45222 0.0
H1121 H 0.56571 0.69449 0.46687 0.0
C1122 C 0.30102 0.12548 0.89412 0.0
C1123 C 0.31566 0.10455 0.8483 0.0
C1124 C 0.27382 0.06904 0.86299 0.0
C1125 C 0.25888 0.09033 0.9066 0.0
N1126 N 0.25492 0.14007 0.95501 0.0
N1127 N 0.31392 0.0589 0.77834 0.0
C1128 C 0.27147 0.11905 0.91906 0.0
C1129 C 0.30141 0.07702 0.82944 0.0
N1130 N 0.31591 0.15081 0.91624 0.0
N1131 N 0.26204 0.0408 0.85612 0.0
H1132 H 0.33418 0.06399 0.75299 0.0
H1133 H 0.3032 0.04004 0.75707 0.0
H1134 H 0.2415 0.03474 0.8789 0.0
H1135 H 0.27328 0.02301 0.83171 0.0
H1136 H 0.30777 0.16545 0.95517 0.0
H1137 H 0.33765 0.15619 0.89955 0.0
H1138 H 0.26131 0.16246 0.96061 0.0
H1139 H 0.23339 0.13552 0.97445 0.0
C1140 C 0.92406 0.79087 0.14495 0.0
C1141 C 0.89555 0.80501 0.15259 0.0
C1142 C 0.87676 0.76087 0.21658 0.0
C1143 C 0.90616 0.74856 0.2169 0.0
N1144 N 0.9589 0.75352 0.1906 0.0
N1145 N 0.84613 0.80562 0.20624 0.0
C1146 C 0.93014 0.76397 0.18332 0.0
C1147 C 0.87221 0.79058 0.19129 0.0
N1148 N 0.94496 0.80257 0.09935 0.0
N1149 N 0.85304 0.74366 0.23825 0.0
H1150 H 0.84212 0.82765 0.18997 0.0
H1151 H 0.82967 0.79727 0.24041 0.0
H1152 H 0.85562 0.72141 0.25458 0.0
H1153 H 0.83064 0.7503 0.23295 0.0
H1154 H 0.9649 0.79158 0.08614 0.0
H1155 H 0.94118 0.82199 0.06956 0.0
H1156 H 0.97778 0.76538 0.17363 0.0
H1157 H 0.96408 0.73413 0.21925 0.0
C1158 C 0.23295 0.38002 0.46735 0.0
C1159 C 0.24353 0.40935 0.45269 0.0
C1160 C 0.20093 0.41783 0.37157 0.0
C1161 C 0.1887 0.38963 0.39196 0.0
N1162 N 0.1912 0.34478 0.46368 0.0
N1163 N 0.23707 0.4575 0.39751 0.0
C1164 C 0.20428 0.37085 0.44087 0.0
C1165 C 0.22745 0.42858 0.40619 0.0
N1166 N 0.25079 0.36087 0.50557 0.0
N1167 N 0.18752 0.43397 0.3181 0.0
H1168 H 0.25661 0.46575 0.42185 0.0
H1169 H 0.22481 0.47385 0.37042 0.0
H1170 H 0.16792 0.42691 0.292 0.0
H1171 H 0.19697 0.45315 0.29572 0.0
H1172 H 0.24598 0.33819 0.51269 0.0
H1173 H 0.27186 0.36722 0.52549 0.0
H1174 H 0.19987 0.33165 0.50485 0.0
H1175 H 0.17038 0.3372 0.44473 0.0
C1176 C 0.37596 0.7463 0.08037 0.0
C1177 C 0.4057 0.75752 0.07689 0.0
C1178 C 0.41706 0.72204 0.98022 0.0
C1179 C 0.38961 0.70696 0.99405 0.0
N1180 N 0.34208 0.70472 0.05623 0.0
N1181 N 0.45501 0.75667 0.02491 0.0
C1182 C 0.36841 0.71952 0.04254 0.0
C1183 C 0.42621 0.74599 0.02596 0.0
N1184 N 0.35518 0.7613 0.12061 0.0
N1185 N 0.43454 0.71268 0.9245 0.0
H1186 H 0.46213 0.77383 0.059 0.0
H1187 H 0.47216 0.74738 0.99415 0.0
H1188 H 0.42792 0.69508 0.89076 0.0
H1189 H 0.45388 0.72387 0.90791 0.0
H1190 H 0.33233 0.756 0.12091 0.0
H1191 H 0.36054 0.78083 0.14906 0.0
H1192 H 0.32756 0.71052 0.09763 0.0
H1193 H 0.33524 0.68567 0.02793 0.0
C1194 C 0.26495 0.8692 0.40743 0.0
C1195 C 0.25255 0.89821 0.39884 0.0
C1196 C 0.29368 0.9119 0.31819 0.0
C1197 C 0.30807 0.88419 0.33378 0.0
N1198 N 0.30879 0.8369 0.39641 0.0
N1199 N 0.25554 0.94828 0.35222 0.0
C1200 C 0.29392 0.86275 0.37871 0.0
C1201 C 0.26692 0.91981 0.35533 0.0
N1202 N 0.24885 0.84802 0.44363 0.0
N1203 N 0.30532 0.93036 0.26695 0.0
H1204 H 0.23565 0.95444 0.37793 0.0
H1205 H 0.26662 0.96618 0.3281 0.0
H1206 H 0.32492 0.92528 0.23875 0.0
H1207 H 0.29432 0.94942 0.24806 0.0
H1208 H 0.25504 0.82552 0.44694 0.0
H1209 H 0.22784 0.85266 0.46598 0.0
H1210 H 0.30116 0.82176 0.43456 0.0
H1211 H 0.32995 0.8314 0.3762 0.0
C1212 C 0.08056 0.7928 0.61314 0.0
C1213 C 0.10938 0.80624 0.62196 0.0
C1214 C 0.1252 0.76432 0.6979 0.0
C1215 C 0.09546 0.75297 0.69578 0.0
N1216 N 0.04368 0.75798 0.66058 0.0
N1217 N 0.15807 0.8071 0.68023 0.0
C1218 C 0.07281 0.76757 0.65556 0.0
C1219 C 0.13155 0.79253 0.66608 0.0
N1220 N 0.06092 0.80375 0.56313 0.0
N1221 N 0.14737 0.74776 0.72974 0.0
H1222 H 0.16346 0.828 0.65866 0.0
H1223 H 0.17371 0.79971 0.71789 0.0
H1224 H 0.14313 0.72702 0.75355 0.0
H1225 H 0.17016 0.75323 0.72719 0.0
H1226 H 0.04076 0.79314 0.5495 0.0
H1227 H 0.06598 0.82204 0.53057 0.0
H1228 H 0.02548 0.7694 0.63826 0.0
H1229 H 0.03748 0.73984 0.69246 0.0
C1230 C 0.22421 0.60613 0.04172 0.0
C1231 C 0.25059 0.60946 1.00049 0.0
C1232 C 0.22028 0.61479 0.89237 0.0
C1233 C 0.19365 0.61532 0.93408 0.0
N1234 N 0.17092 0.61718 0.05154 0.0
N1235 N 0.27315 0.62694 0.89164 0.0
C1236 C 0.19568 0.61242 0.00985 0.0
C1237 C 0.24848 0.61666 0.92716 0.0
N1238 N 0.2265 0.59682 0.11097 0.0
N1239 N 0.2188 0.61159 0.81971 0.0
H1240 H 0.29369 0.63062 0.91741 0.0
H1241 H 0.27216 0.63494 0.83932 0.0
H1242 H 0.19856 0.60834 0.79218 0.0
H1243 H 0.23792 0.60874 0.78816 0.0
H1244 H 0.20791 0.59118 0.142 0.0
H1245 H 0.24728 0.59254 0.13524 0.0
H1246 H 0.17186 0.61803 0.1072 0.0
H1247 H 0.14997 0.62313 0.03062 0.0
loop_
_geom_bond_atom_site_label_1
_geom_bond_atom_site_label_2
_geom_bond_distance
_geom_bond_site_symmetry_2
_ccdc_geom_bond_type
C0 C1 1.351 . S
C0 N3 1.368 . S
C0 H5 0.931 . S
C1 C0 1.351 . S
C1 N2 1.373 1_556 S
C1 H29 0.930 . S
N2 C1 1.373 1_554 S
N2 C4 1.340 . S
N3 C0 1.368 . S
N3 C4 1.321 1_556 S
N3 Co6 2.135 . S
C4 N2 1.340 . S
C4 N3 1.321 1_554 S
C4 H28 0.930 . S
H5 C0 0.931 . S
Co6 N3 2.135 . S
Co6 N9 2.121 . S
Co6 O14 2.055 . S
Co6 O17 2.039 1_556 S
Co6 N20 2.140 1_556 S
C7 O8 1.227 . S
C7 O17 1.265 . S
O8 C7 1.227 . S
N9 Co6 2.121 . S
N9 C11 1.375 1_556 S
N9 C12 1.313 . S
C10 C11 1.338 . S
C10 N13 1.377 1_554 S
C10 H30 0.930 . S
C11 N9 1.375 1_554 S
C11 C10 1.338 . S
C11 H15 0.931 . S
C12 N9 1.313 . S
C12 N13 1.344 . S
C12 H16 0.930 . S
N13 C10 1.377 1_556 S
N13 C12 1.344 . S
O14 Co6 2.055 . S
O14 C18 1.253 . S
H15 C11 0.931 . S
H16 C12 0.930 . S
O17 Co6 2.039 1_554 S
O17 C7 1.265 . S
C18 O14 1.253 . S
C18 O19 1.227 . S
O19 C18 1.227 . S
N20 Co6 2.140 1_554 S
N20 C23 1.346 . S
N20 C24 1.345 1_554 S
C21 C22 1.387 . S
C21 C25 1.391 1_554 S
C22 C21 1.387 . S
C22 C23 1.369 . S
C22 H31 0.929 . S
C23 N20 1.346 . S
C23 C22 1.369 . S
C23 H26 0.928 . S
C24 N20 1.345 1_556 S
C24 C25 1.371 . S
C24 H27 0.931 . S
C25 C21 1.391 1_556 S
C25 C24 1.371 . S
C25 H32 0.930 . S
H26 C23 0.928 . S
H27 C24 0.931 . S
H28 C4 0.930 . S
H29 C1 0.930 . S
H30 C10 0.930 . S
H31 C22 0.929 . S
H32 C25 0.930 . S
C33 C34 1.351 . S
C33 N36 1.368 . S
C33 H38 0.931 . S
C34 C33 1.351 . S
C34 N35 1.373 . S
C34 H62 0.930 . S
N35 C34 1.373 . S
N35 C37 1.340 . S
N36 C33 1.368 . S
N36 C37 1.321 . S
N36 Co39 2.135 . S
C37 N35 1.340 . S
C37 N36 1.321 . S
C37 H61 0.930 . S
H38 C33 0.931 . S
Co39 N36 2.135 . S
Co39 N42 2.121 . S
Co39 O47 2.055 . S
Co39 O50 2.039 . S
Co39 N53 2.140 . S
C40 O41 1.227 . S
C40 O50 1.265 . S
O41 C40 1.227 . S
N42 Co39 2.121 . S
N42 C44 1.375 . S
N42 C45 1.313 . S
C43 C44 1.338 . S
C43 N46 1.377 . S
C43 H63 0.930 . S
C44 N42 1.375 . S
C44 C43 1.338 . S
C44 H48 0.931 . S
C45 N42 1.313 . S
C45 N46 1.344 . S
C45 H49 0.930 . S
N46 C43 1.377 . S
N46 C45 1.344 . S
O47 Co39 2.055 . S
O47 C51 1.253 . S
H48 C44 0.931 . S
H49 C45 0.930 . S
O50 Co39 2.039 . S
O50 C40 1.265 . S
C51 O47 1.253 . S
C51 O52 1.227 . S
O52 C51 1.227 . S
N53 Co39 2.140 . S
N53 C56 1.346 . S
N53 C57 1.345 . S
C54 C55 1.387 . S
C54 C58 1.391 . S
C55 C54 1.387 . S
C55 C56 1.369 . S
C55 H64 0.929 . S
C56 N53 1.346 . S
C56 C55 1.369 . S
C56 H59 0.928 . S
C57 N53 1.345 . S
C57 C58 1.371 . S
C57 H60 0.931 . S
C58 C54 1.391 . S
C58 C57 1.371 . S
C58 H65 0.930 . S
H59 C56 0.928 . S
H60 C57 0.931 . S
H61 C37 0.930 . S
H62 C34 0.930 . S
H63 C43 0.930 . S
H64 C55 0.929 . S
H65 C58 0.930 . S
C66 C67 1.351 . S
C66 N69 1.368 . S
C66 H71 0.931 . S
C67 C66 1.351 . S
C67 N68 1.373 . S
C67 H95 0.930 . S
N68 C67 1.373 . S
N68 C70 1.340 . S
N69 C66 1.368 . S
N69 C70 1.321 . S
N69 Co72 2.135 . S
C70 N68 1.340 . S
C70 N69 1.321 . S
C70 H94 0.930 . S
H71 C66 0.931 . S
Co72 N69 2.135 . S
Co72 N75 2.121 . S
Co72 O80 2.055 . S
Co72 O83 2.039 . S
Co72 N86 2.140 . S
C73 O74 1.227 . S
C73 O83 1.265 . S
O74 C73 1.227 . S
N75 Co72 2.121 . S
N75 C77 1.375 . S
N75 C78 1.313 . S
C76 C77 1.338 . S
C76 N79 1.377 . S
C76 H96 0.930 . S
C77 N75 1.375 . S
C77 C76 1.338 . S
C77 H81 0.931 . S
C78 N75 1.313 . S
C78 N79 1.344 . S
C78 H82 0.930 . S
N79 C76 1.377 . S
N79 C78 1.344 . S
O80 Co72 2.055 . S
O80 C84 1.253 . S
H81 C77 0.931 . S
H82 C78 0.930 . S
O83 Co72 2.039 . S
O83 C73 1.265 . S
C84 O80 1.253 . S
C84 O85 1.227 . S
O85 C84 1.227 . S
N86 Co72 2.140 . S
N86 C89 1.346 . S
N86 C90 1.345 . S
C87 C88 1.387 . S
C87 C91 1.391 . S
C88 C87 1.387 . S
C88 C89 1.369 . S
C88 H97 0.929 . S
C89 N86 1.346 . S
C89 C88 1.369 . S
C89 H92 0.928 . S
C90 N86 1.345 . S
C90 C91 1.371 . S
C90 H93 0.931 . S
C91 C87 1.391 . S
C91 C90 1.371 . S
C91 H98 0.930 . S
H92 C89 0.928 . S
H93 C90 0.931 . S
H94 C70 0.930 . S
H95 C67 0.930 . S
H96 C76 0.930 . S
H97 C88 0.929 . S
H98 C91 0.930 . S
C99 C100 1.351 . S
C99 N102 1.368 . S
C99 H104 0.931 . S
C100 C99 1.351 . S
C100 N101 1.373 . S
C100 H128 0.930 . S
N101 C100 1.373 . S
N101 C103 1.340 . S
N102 C99 1.368 . S
N102 C103 1.321 . S
N102 Co105 2.135 . S
C103 N101 1.340 . S
C103 N102 1.321 . S
C103 H127 0.930 . S
H104 C99 0.931 . S
Co105 N102 2.135 . S
Co105 N108 2.121 . S
Co105 O113 2.055 . S
Co105 O116 2.039 . S
Co105 N119 2.140 . S
C106 O107 1.227 . S
C106 O116 1.265 . S
O107 C106 1.227 . S
N108 Co105 2.121 . S
N108 C110 1.375 . S
N108 C111 1.313 . S
C109 C110 1.338 . S
C109 N112 1.377 . S
C109 H129 0.930 . S
C110 N108 1.375 . S
C110 C109 1.338 . S
C110 H114 0.931 . S
C111 N108 1.313 . S
C111 N112 1.344 . S
C111 H115 0.930 . S
N112 C109 1.377 . S
N112 C111 1.344 . S
O113 Co105 2.055 . S
O113 C117 1.253 . S
H114 C110 0.931 . S
H115 C111 0.930 . S
O116 Co105 2.039 . S
O116 C106 1.265 . S
C117 O113 1.253 . S
C117 O118 1.227 . S
O118 C117 1.227 . S
N119 Co105 2.140 . S
N119 C122 1.346 . S
N119 C123 1.345 . S
C120 C121 1.387 . S
C120 C124 1.391 . S
C121 C120 1.387 . S
C121 C122 1.369 . S
C121 H130 0.929 . S
C122 N119 1.346 . S
C122 C121 1.369 . S
C122 H125 0.928 . S
C123 N119 1.345 . S
C123 C124 1.371 . S
C123 H126 0.931 . S
C124 C120 1.391 . S
C124 C123 1.371 . S
C124 H131 0.930 . S
H125 C122 0.928 . S
H126 C123 0.931 . S
H127 C103 0.930 . S
H128 C100 0.930 . S
H129 C109 0.930 . S
H130 C121 0.929 . S
H131 C124 0.930 . S
C132 C133 1.351 . S
C132 N135 1.368 . S
C132 H137 0.931 . S
C133 C132 1.351 . S
C133 N134 1.373 . S
C133 H161 0.930 . S
N134 C133 1.373 . S
N134 C136 1.340 . S
N135 C132 1.368 . S
N135 C136 1.321 . S
N135 Co138 2.135 . S
C136 N134 1.340 . S
C136 N135 1.321 . S
C136 H160 0.930 . S
H137 C132 0.931 . S
Co138 N135 2.135 . S
Co138 N141 2.121 . S
Co138 O146 2.055 . S
Co138 O149 2.039 . S
Co138 N152 2.140 . S
C139 O140 1.227 . S
C139 O149 1.265 . S
O140 C139 1.227 . S
N141 Co138 2.121 . S
N141 C143 1.375 . S
N141 C144 1.313 . S
C142 C143 1.338 . S
C142 N145 1.377 . S
C142 H162 0.930 . S
C143 N141 1.375 . S
C143 C142 1.338 . S
C143 H147 0.931 . S
C144 N141 1.313 . S
C144 N145 1.344 . S
C144 H148 0.930 . S
N145 C142 1.377 . S
N145 C144 1.344 . S
O146 Co138 2.055 . S
O146 C150 1.253 . S
H147 C143 0.931 . S
H148 C144 0.930 . S
O149 Co138 2.039 . S
O149 C139 1.265 . S
C150 O146 1.253 . S
C150 O151 1.227 . S
O151 C150 1.227 . S
N152 Co138 2.140 . S
N152 C155 1.346 . S
N152 C156 1.345 . S
C153 C154 1.387 . S
C153 C157 1.391 . S
C154 C153 1.387 . S
C154 C155 1.369 . S
C154 H163 0.929 . S
C155 N152 1.346 . S
C155 C154 1.369 . S
C155 H158 0.928 . S
C156 N152 1.345 . S
C156 C157 1.371 . S
C156 H159 0.931 . S
C157 C153 1.391 . S
C157 C156 1.371 . S
C157 H164 0.930 . S
H158 C155 0.928 . S
H159 C156 0.931 . S
H160 C136 0.930 . S
H161 C133 0.930 . S
H162 C142 0.930 . S
H163 C154 0.929 . S
H164 C157 0.930 . S
C165 C166 1.351 . S
C165 N168 1.368 . S
C165 H170 0.931 . S
C166 C165 1.351 . S
C166 N167 1.373 . S
C166 H194 0.930 . S
N167 C166 1.373 . S
N167 C169 1.340 . S
N168 C165 1.368 . S
N168 C169 1.321 . S
N168 Co171 2.135 . S
C169 N167 1.340 . S
C169 N168 1.321 . S
C169 H193 0.930 . S
H170 C165 0.931 . S
Co171 N168 2.135 . S
Co171 N174 2.121 . S
Co171 O179 2.055 . S
Co171 O182 2.039 . S
Co171 N185 2.140 . S
C172 O173 1.227 . S
C172 O182 1.265 . S
O173 C172 1.227 . S
N174 Co171 2.121 . S
N174 C176 1.375 . S
N174 C177 1.313 . S
C175 C176 1.338 . S
C175 N178 1.377 . S
C175 H195 0.930 . S
C176 N174 1.375 . S
C176 C175 1.338 . S
C176 H180 0.931 . S
C177 N174 1.313 . S
C177 N178 1.344 . S
C177 H181 0.930 . S
N178 C175 1.377 . S
N178 C177 1.344 . S
O179 Co171 2.055 . S
O179 C183 1.253 . S
H180 C176 0.931 . S
H181 C177 0.930 . S
O182 Co171 2.039 . S
O182 C172 1.265 . S
C183 O179 1.253 . S
C183 O184 1.227 . S
O184 C183 1.227 . S
N185 Co171 2.140 . S
N185 C188 1.346 . S
N185 C189 1.345 . S
C186 C187 1.387 . S
C186 C190 1.391 . S
C187 C186 1.387 . S
C187 C188 1.369 . S
C187 H196 0.929 . S
C188 N185 1.346 . S
C188 C187 1.369 . S
C188 H191 0.928 . S
C189 N185 1.345 . S
C189 C190 1.371 . S
C189 H192 0.931 . S
C190 C186 1.391 . S
C190 C189 1.371 . S
C190 H197 0.930 . S
H191 C188 0.928 . S
H192 C189 0.931 . S
H193 C169 0.930 . S
H194 C166 0.930 . S
H195 C175 0.930 . S
H196 C187 0.929 . S
H197 C190 0.930 . S
C198 C199 1.351 . S
C198 N201 1.368 . S
C198 H203 0.931 . S
C199 C198 1.351 . S
C199 N200 1.373 1_556 S
C199 H227 0.930 . S
N200 C199 1.373 1_554 S
N200 C202 1.340 . S
N201 C198 1.368 . S
N201 C202 1.321 1_556 S
N201 Co204 2.135 . S
C202 N200 1.340 . S
C202 N201 1.321 1_554 S
C202 H226 0.930 . S
H203 C198 0.931 . S
Co204 N201 2.135 . S
Co204 N207 2.121 . S
Co204 O212 2.055 . S
Co204 O215 2.039 1_556 S
Co204 N218 2.140 1_556 S
C205 O206 1.227 . S
C205 O215 1.265 . S
O206 C205 1.227 . S
N207 Co204 2.121 . S
N207 C209 1.375 1_556 S
N207 C210 1.313 . S
C208 C209 1.338 . S
C208 N211 1.377 1_554 S
C208 H228 0.930 . S
C209 N207 1.375 1_554 S
C209 C208 1.338 . S
C209 H213 0.931 . S
C210 N207 1.313 . S
C210 N211 1.344 . S
C210 H214 0.930 . S
N211 C208 1.377 1_556 S
N211 C210 1.344 . S
O212 Co204 2.055 . S
O212 C216 1.253 . S
H213 C209 0.931 . S
H214 C210 0.930 . S
O215 Co204 2.039 1_554 S
O215 C205 1.265 . S
C216 O212 1.253 . S
C216 O217 1.227 . S
O217 C216 1.227 . S
N218 Co204 2.140 1_554 S
N218 C221 1.346 . S
N218 C222 1.345 1_554 S
C219 C220 1.387 . S
C219 C223 1.391 1_554 S
C220 C219 1.387 . S
C220 C221 1.369 . S
C220 H229 0.929 . S
C221 N218 1.346 . S
C221 C220 1.369 . S
C221 H224 0.928 . S
C222 N218 1.345 1_556 S
C222 C223 1.371 . S
C222 H225 0.931 . S
C223 C219 1.391 1_556 S
C223 C222 1.371 . S
C223 H230 0.930 . S
H224 C221 0.928 . S
H225 C222 0.931 . S
H226 C202 0.930 . S
H227 C199 0.930 . S
H228 C208 0.930 . S
H229 C220 0.929 . S
H230 C223 0.930 . S
C231 C232 1.351 . S
C231 N234 1.368 . S
C231 H236 0.931 . S
C232 C231 1.351 . S
C232 N233 1.373 . S
C232 H260 0.930 . S
N233 C232 1.373 . S
N233 C235 1.340 . S
N234 C231 1.368 . S
N234 C235 1.321 . S
N234 Co237 2.135 . S
C235 N233 1.340 . S
C235 N234 1.321 . S
C235 H259 0.930 . S
H236 C231 0.931 . S
Co237 N234 2.135 . S
Co237 N240 2.121 . S
Co237 O245 2.055 . S
Co237 O248 2.039 . S
Co237 N251 2.140 . S
C238 O239 1.227 . S
C238 O248 1.265 . S
O239 C238 1.227 . S
N240 Co237 2.121 . S
N240 C242 1.375 . S
N240 C243 1.313 . S
C241 C242 1.338 . S
C241 N244 1.377 . S
C241 H261 0.930 . S
C242 N240 1.375 . S
C242 C241 1.338 . S
C242 H246 0.931 . S
C243 N240 1.313 . S
C243 N244 1.344 . S
C243 H247 0.930 . S
N244 C241 1.377 . S
N244 C243 1.344 . S
O245 Co237 2.055 . S
O245 C249 1.253 . S
H246 C242 0.931 . S
H247 C243 0.930 . S
O248 Co237 2.039 . S
O248 C238 1.265 . S
C249 O245 1.253 . S
C249 O250 1.227 . S
O250 C249 1.227 . S
N251 Co237 2.140 . S
N251 C254 1.346 . S
N251 C255 1.345 . S
C252 C253 1.387 . S
C252 C256 1.391 . S
C253 C252 1.387 . S
C253 C254 1.369 . S
C253 H262 0.929 . S
C254 N251 1.346 . S
C254 C253 1.369 . S
C254 H257 0.928 . S
C255 N251 1.345 . S
C255 C256 1.371 . S
C255 H258 0.931 . S
C256 C252 1.391 . S
C256 C255 1.371 . S
C256 H263 0.930 . S
H257 C254 0.928 . S
H258 C255 0.931 . S
H259 C235 0.930 . S
H260 C232 0.930 . S
H261 C241 0.930 . S
H262 C253 0.929 . S
H263 C256 0.930 . S
C264 C265 1.351 . S
C264 N267 1.368 . S
C264 H269 0.931 . S
C265 C264 1.351 . S
C265 N266 1.373 . S
C265 H293 0.930 . S
N266 C265 1.373 . S
N266 C268 1.340 . S
N267 C264 1.368 . S
N267 C268 1.321 . S
N267 Co270 2.135 . S
C268 N266 1.340 . S
C268 N267 1.321 . S
C268 H292 0.930 . S
H269 C264 0.931 . S
Co270 N267 2.135 . S
Co270 N273 2.121 . S
Co270 O278 2.055 . S
Co270 O281 2.039 . S
Co270 N284 2.140 . S
C271 O272 1.227 . S
C271 O281 1.265 . S
O272 C271 1.227 . S
N273 Co270 2.121 . S
N273 C275 1.375 . S
N273 C276 1.313 . S
C274 C275 1.338 . S
C274 N277 1.377 . S
C274 H294 0.930 . S
C275 N273 1.375 . S
C275 C274 1.338 . S
C275 H279 0.931 . S
C276 N273 1.313 . S
C276 N277 1.344 . S
C276 H280 0.930 . S
N277 C274 1.377 . S
N277 C276 1.344 . S
O278 Co270 2.055 . S
O278 C282 1.253 . S
H279 C275 0.931 . S
H280 C276 0.930 . S
O281 Co270 2.039 . S
O281 C271 1.265 . S
C282 O278 1.253 . S
C282 O283 1.227 . S
O283 C282 1.227 . S
N284 Co270 2.140 . S
N284 C287 1.346 . S
N284 C288 1.345 . S
C285 C286 1.387 . S
C285 C289 1.391 . S
C286 C285 1.387 . S
C286 C287 1.369 . S
C286 H295 0.929 . S
C287 N284 1.346 . S
C287 C286 1.369 . S
C287 H290 0.928 . S
C288 N284 1.345 . S
C288 C289 1.371 . S
C288 H291 0.931 . S
C289 C285 1.391 . S
C289 C288 1.371 . S
C289 H296 0.930 . S
H290 C287 0.928 . S
H291 C288 0.931 . S
H292 C268 0.930 . S
H293 C265 0.930 . S
H294 C274 0.930 . S
H295 C286 0.929 . S
H296 C289 0.930 . S
C297 C298 1.351 . S
C297 N300 1.368 . S
C297 H302 0.931 . S
C298 C297 1.351 . S
C298 N299 1.373 . S
C298 H326 0.930 . S
N299 C298 1.373 . S
N299 C301 1.340 . S
N300 C297 1.368 . S
N300 C301 1.321 . S
N300 Co303 2.135 . S
C301 N299 1.340 . S
C301 N300 1.321 . S
C301 H325 0.930 . S
H302 C297 0.931 . S
Co303 N300 2.135 . S
Co303 N306 2.121 . S
Co303 O311 2.055 . S
Co303 O314 2.039 . S
Co303 N317 2.140 . S
C304 O305 1.227 . S
C304 O314 1.265 . S
O305 C304 1.227 . S
N306 Co303 2.121 . S
N306 C308 1.375 . S
N306 C309 1.313 . S
C307 C308 1.338 . S
C307 N310 1.377 . S
C307 H327 0.930 . S
C308 N306 1.375 . S
C308 C307 1.338 . S
C308 H312 0.931 . S
C309 N306 1.313 . S
C309 N310 1.344 . S
C309 H313 0.930 . S
N310 C307 1.377 . S
N310 C309 1.344 . S
O311 Co303 2.055 . S
O311 C315 1.253 . S
H312 C308 0.931 . S
H313 C309 0.930 . S
O314 Co303 2.039 . S
O314 C304 1.265 . S
C315 O311 1.253 . S
C315 O316 1.227 . S
O316 C315 1.227 . S
N317 Co303 2.140 . S
N317 C320 1.346 . S
N317 C321 1.345 . S
C318 C319 1.387 . S
C318 C322 1.391 . S
C319 C318 1.387 . S
C319 C320 1.369 . S
C319 H328 0.929 . S
C320 N317 1.346 . S
C320 C319 1.369 . S
C320 H323 0.928 . S
C321 N317 1.345 . S
C321 C322 1.371 . S
C321 H324 0.931 . S
C322 C318 1.391 . S
C322 C321 1.371 . S
C322 H329 0.930 . S
H323 C320 0.928 . S
H324 C321 0.931 . S
H325 C301 0.930 . S
H326 C298 0.930 . S
H327 C307 0.930 . S
H328 C319 0.929 . S
H329 C322 0.930 . S
C330 C331 1.351 . S
C330 N333 1.368 . S
C330 H335 0.931 . S
C331 C330 1.351 . S
C331 N332 1.373 1_556 S
C331 H359 0.930 . S
N332 C331 1.373 1_554 S
N332 C334 1.340 . S
N333 C330 1.368 . S
N333 C334 1.321 1_556 S
N333 Co336 2.135 . S
C334 N332 1.340 . S
C334 N333 1.321 1_554 S
C334 H358 0.930 . S
H335 C330 0.931 . S
Co336 N333 2.135 . S
Co336 N339 2.121 . S
Co336 O344 2.055 . S
Co336 O347 2.039 1_556 S
Co336 N350 2.140 1_556 S
C337 O338 1.227 . S
C337 O347 1.265 . S
O338 C337 1.227 . S
N339 Co336 2.121 . S
N339 C341 1.375 1_556 S
N339 C342 1.313 . S
C340 C341 1.338 . S
C340 N343 1.377 1_554 S
C340 H360 0.930 . S
C341 N339 1.375 1_554 S
C341 C340 1.338 . S
C341 H345 0.931 . S
C342 N339 1.313 . S
C342 N343 1.344 . S
C342 H346 0.930 . S
N343 C340 1.377 1_556 S
N343 C342 1.344 . S
O344 Co336 2.055 . S
O344 C348 1.253 . S
H345 C341 0.931 . S
H346 C342 0.930 . S
O347 Co336 2.039 1_554 S
O347 C337 1.265 . S
C348 O344 1.253 . S
C348 O349 1.227 . S
O349 C348 1.227 . S
N350 Co336 2.140 1_554 S
N350 C353 1.346 . S
N350 C354 1.345 1_554 S
C351 C352 1.387 . S
C351 C355 1.391 1_554 S
C352 C351 1.387 . S
C352 C353 1.369 . S
C352 H361 0.929 . S
C353 N350 1.346 . S
C353 C352 1.369 . S
C353 H356 0.928 . S
C354 N350 1.345 1_556 S
C354 C355 1.371 . S
C354 H357 0.931 . S
C355 C351 1.391 1_556 S
C355 C354 1.371 . S
C355 H362 0.930 . S
H356 C353 0.928 . S
H357 C354 0.931 . S
H358 C334 0.930 . S
H359 C331 0.930 . S
H360 C340 0.930 . S
H361 C352 0.929 . S
H362 C355 0.930 . S
C363 C364 1.351 . S
C363 N366 1.368 . S
C363 H368 0.931 . S
C364 C363 1.351 . S
C364 N365 1.373 . S
C364 H392 0.930 . S
N365 C364 1.373 . S
N365 C367 1.340 . S
N366 C363 1.368 . S
N366 C367 1.321 . S
N366 Co369 2.135 . S
C367 N365 1.340 . S
C367 N366 1.321 . S
C367 H391 0.930 . S
H368 C363 0.931 . S
Co369 N366 2.135 . S
Co369 N372 2.121 . S
Co369 O377 2.055 . S
Co369 O380 2.039 . S
Co369 N383 2.140 . S
C370 O371 1.227 . S
C370 O380 1.265 . S
O371 C370 1.227 . S
N372 Co369 2.121 . S
N372 C374 1.375 . S
N372 C375 1.313 . S
C373 C374 1.338 . S
C373 N376 1.377 . S
C373 H393 0.930 . S
C374 N372 1.375 . S
C374 C373 1.338 . S
C374 H378 0.931 . S
C375 N372 1.313 . S
C375 N376 1.344 . S
C375 H379 0.930 . S
N376 C373 1.377 . S
N376 C375 1.344 . S
O377 Co369 2.055 . S
O377 C381 1.253 . S
H378 C374 0.931 . S
H379 C375 0.930 . S
O380 Co369 2.039 . S
O380 C370 1.265 . S
C381 O377 1.253 . S
C381 O382 1.227 . S
O382 C381 1.227 . S
N383 Co369 2.140 . S
N383 C386 1.346 . S
N383 C387 1.345 . S
C384 C385 1.387 . S
C384 C388 1.391 . S
C385 C384 1.387 . S
C385 C386 1.369 . S
C385 H394 0.929 . S
C386 N383 1.346 . S
C386 C385 1.369 . S
C386 H389 0.928 . S
C387 N383 1.345 . S
C387 C388 1.371 . S
C387 H390 0.931 . S
C388 C384 1.391 . S
C388 C387 1.371 . S
C388 H395 0.930 . S
H389 C386 0.928 . S
H390 C387 0.931 . S
H391 C367 0.930 . S
H392 C364 0.930 . S
H393 C373 0.930 . S
H394 C385 0.929 . S
H395 C388 0.930 . S
C396 C397 1.351 . S
C396 N399 1.368 . S
C396 H401 0.931 . S
C397 C396 1.351 . S
C397 N398 1.373 1_556 S
C397 H425 0.930 . S
N398 C397 1.373 1_554 S
N398 C400 1.340 . S
N399 C396 1.368 . S
N399 C400 1.321 1_556 S
N399 Co402 2.135 . S
C400 N398 1.340 . S
C400 N399 1.321 1_554 S
C400 H424 0.930 . S
H401 C396 0.931 . S
Co402 N399 2.135 . S
Co402 N405 2.121 . S
Co402 O410 2.055 . S
Co402 O413 2.039 1_556 S
Co402 N416 2.140 1_556 S
C403 O404 1.227 . S
C403 O413 1.265 . S
O404 C403 1.227 . S
N405 Co402 2.121 . S
N405 C407 1.375 1_556 S
N405 C408 1.313 . S
C406 C407 1.338 . S
C406 N409 1.377 1_554 S
C406 H426 0.930 . S
C407 N405 1.375 1_554 S
C407 C406 1.338 . S
C407 H411 0.931 . S
C408 N405 1.313 . S
C408 N409 1.344 . S
C408 H412 0.930 . S
N409 C406 1.377 1_556 S
N409 C408 1.344 . S
O410 Co402 2.055 . S
O410 C414 1.253 . S
H411 C407 0.931 . S
H412 C408 0.930 . S
O413 Co402 2.039 1_554 S
O413 C403 1.265 . S
C414 O410 1.253 . S
C414 O415 1.227 . S
O415 C414 1.227 . S
N416 Co402 2.140 1_554 S
N416 C419 1.346 . S
N416 C420 1.345 1_554 S
C417 C418 1.387 . S
C417 C421 1.391 1_554 S
C418 C417 1.387 . S
C418 C419 1.369 . S
C418 H427 0.929 . S
C419 N416 1.346 . S
C419 C418 1.369 . S
C419 H422 0.928 . S
C420 N416 1.345 1_556 S
C420 C421 1.371 . S
C420 H423 0.931 . S
C421 C417 1.391 1_556 S
C421 C420 1.371 . S
C421 H428 0.930 . S
H422 C419 0.928 . S
H423 C420 0.931 . S
H424 C400 0.930 . S
H425 C397 0.930 . S
H426 C406 0.930 . S
H427 C418 0.929 . S
H428 C421 0.930 . S
C429 C430 1.351 . S
C429 N432 1.368 . S
C429 H434 0.931 . S
C430 C429 1.351 . S
C430 N431 1.373 . S
C430 H458 0.930 . S
N431 C430 1.373 . S
N431 C433 1.340 . S
N432 C429 1.368 . S
N432 C433 1.321 . S
N432 Co435 2.135 . S
C433 N431 1.340 . S
C433 N432 1.321 . S
C433 H457 0.930 . S
H434 C429 0.931 . S
Co435 N432 2.135 . S
Co435 N438 2.121 . S
Co435 O443 2.055 . S
Co435 O446 2.039 . S
Co435 N449 2.140 . S
C436 O437 1.227 . S
C436 O446 1.265 . S
O437 C436 1.227 . S
N438 Co435 2.121 . S
N438 C440 1.375 . S
N438 C441 1.313 . S
C439 C440 1.338 . S
C439 N442 1.377 . S
C439 H459 0.930 . S
C440 N438 1.375 . S
C440 C439 1.338 . S
C440 H444 0.931 . S
C441 N438 1.313 . S
C441 N442 1.344 . S
C441 H445 0.930 . S
N442 C439 1.377 . S
N442 C441 1.344 . S
O443 Co435 2.055 . S
O443 C447 1.253 . S
H444 C440 0.931 . S
H445 C441 0.930 . S
O446 Co435 2.039 . S
O446 C436 1.265 . S
C447 O443 1.253 . S
C447 O448 1.227 . S
O448 C447 1.227 . S
N449 Co435 2.140 . S
N449 C452 1.346 . S
N449 C453 1.345 . S
C450 C451 1.387 . S
C450 C454 1.391 . S
C451 C450 1.387 . S
C451 C452 1.369 . S
C451 H460 0.929 . S
C452 N449 1.346 . S
C452 C451 1.369 . S
C452 H455 0.928 . S
C453 N449 1.345 . S
C453 C454 1.371 . S
C453 H456 0.931 . S
C454 C450 1.391 . S
C454 C453 1.371 . S
C454 H461 0.930 . S
H455 C452 0.928 . S
H456 C453 0.931 . S
H457 C433 0.930 . S
H458 C430 0.930 . S
H459 C439 0.930 . S
H460 C451 0.929 . S
H461 C454 0.930 . S
C462 C463 1.351 . S
C462 N465 1.368 . S
C462 H467 0.931 . S
C463 C462 1.351 . S
C463 N464 1.373 . S
C463 H491 0.930 . S
N464 C463 1.373 . S
N464 C466 1.340 . S
N465 C462 1.368 . S
N465 C466 1.321 . S
N465 Co468 2.135 . S
C466 N464 1.340 . S
C466 N465 1.321 . S
C466 H490 0.930 . S
H467 C462 0.931 . S
Co468 N465 2.135 . S
Co468 N471 2.121 . S
Co468 O476 2.055 . S
Co468 O479 2.039 . S
Co468 N482 2.140 . S
C469 O470 1.227 . S
C469 O479 1.265 . S
O470 C469 1.227 . S
N471 Co468 2.121 . S
N471 C473 1.375 . S
N471 C474 1.313 . S
C472 C473 1.338 . S
C472 N475 1.377 . S
C472 H492 0.930 . S
C473 N471 1.375 . S
C473 C472 1.338 . S
C473 H477 0.931 . S
C474 N471 1.313 . S
C474 N475 1.344 . S
C474 H478 0.930 . S
N475 C472 1.377 . S
N475 C474 1.344 . S
O476 Co468 2.055 . S
O476 C480 1.253 . S
H477 C473 0.931 . S
H478 C474 0.930 . S
O479 Co468 2.039 . S
O479 C469 1.265 . S
C480 O476 1.253 . S
C480 O481 1.227 . S
O481 C480 1.227 . S
N482 Co468 2.140 . S
N482 C485 1.346 . S
N482 C486 1.345 . S
C483 C484 1.387 . S
C483 C487 1.391 . S
C484 C483 1.387 . S
C484 C485 1.369 . S
C484 H493 0.929 . S
C485 N482 1.346 . S
C485 C484 1.369 . S
C485 H488 0.928 . S
C486 N482 1.345 . S
C486 C487 1.371 . S
C486 H489 0.931 . S
C487 C483 1.391 . S
C487 C486 1.371 . S
C487 H494 0.930 . S
H488 C485 0.928 . S
H489 C486 0.931 . S
H490 C466 0.930 . S
H491 C463 0.930 . S
H492 C472 0.930 . S
H493 C484 0.929 . S
H494 C487 0.930 . S
C495 C496 1.351 . S
C495 N498 1.368 . S
C495 H500 0.931 . S
C496 C495 1.351 . S
C496 N497 1.373 . S
C496 H524 0.930 . S
N497 C496 1.373 . S
N497 C499 1.340 . S
N498 C495 1.368 . S
N498 C499 1.321 . S
N498 Co501 2.135 . S
C499 N497 1.340 . S
C499 N498 1.321 . S
C499 H523 0.930 . S
H500 C495 0.931 . S
Co501 N498 2.135 . S
Co501 N504 2.121 . S
Co501 O509 2.055 . S
Co501 O512 2.039 . S
Co501 N515 2.140 . S
C502 O503 1.227 . S
C502 O512 1.265 . S
O503 C502 1.227 . S
N504 Co501 2.121 . S
N504 C506 1.375 . S
N504 C507 1.313 . S
C505 C506 1.338 . S
C505 N508 1.377 . S
C505 H525 0.930 . S
C506 N504 1.375 . S
C506 C505 1.338 . S
C506 H510 0.931 . S
C507 N504 1.313 . S
C507 N508 1.344 . S
C507 H511 0.930 . S
N508 C505 1.377 . S
N508 C507 1.344 . S
O509 Co501 2.055 . S
O509 C513 1.253 . S
H510 C506 0.931 . S
H511 C507 0.930 . S
O512 Co501 2.039 . S
O512 C502 1.265 . S
C513 O509 1.253 . S
C513 O514 1.227 . S
O514 C513 1.227 . S
N515 Co501 2.140 . S
N515 C518 1.346 . S
N515 C519 1.345 . S
C516 C517 1.387 . S
C516 C520 1.391 . S
C517 C516 1.387 . S
C517 C518 1.369 . S
C517 H526 0.929 . S
C518 N515 1.346 . S
C518 C517 1.369 . S
C518 H521 0.928 . S
C519 N515 1.345 . S
C519 C520 1.371 . S
C519 H522 0.931 . S
C520 C516 1.391 . S
C520 C519 1.371 . S
C520 H527 0.930 . S
H521 C518 0.928 . S
H522 C519 0.931 . S
H523 C499 0.930 . S
H524 C496 0.930 . S
H525 C505 0.930 . S
H526 C517 0.929 . S
H527 C520 0.930 . S
C528 C529 1.363 1_556 S
C528 C534 1.379 1_655 S
C528 N536 1.356 . S
C529 C528 1.363 1_554 S
C529 C535 1.363 1_565 S
C530 C531 1.363 . S
C530 C535 1.379 1_455 S
C530 N537 1.356 . S
C531 C530 1.363 . S
C531 C534 1.363 1_544 S
N532 C534 1.356 . S
N532 H544 0.984 . S
N532 H545 0.983 . S
N533 C535 1.356 . S
N533 H538 0.983 . S
N533 H539 0.985 . S
C534 C528 1.379 1_455 S
C534 C531 1.363 1_566 S
C534 N532 1.356 . S
C535 C529 1.363 1_545 S
C535 C530 1.379 1_655 S
C535 N533 1.356 . S
N536 C528 1.356 . S
N536 H542 0.984 . S
N536 H543 0.984 . S
N537 C530 1.356 . S
N537 H540 0.984 . S
N537 H541 0.985 . S
H538 N533 0.983 . S
H539 N533 0.985 . S
H540 N537 0.984 . S
H541 N537 0.985 . S
H542 N536 0.984 . S
H543 N536 0.984 . S
H544 N532 0.984 . S
H545 N532 0.983 . S
C546 C547 1.363 1_455 S
C546 C552 1.379 . S
C546 N554 1.356 . S
C547 C546 1.363 1_655 S
C547 C553 1.363 . S
C548 C549 1.363 1_655 S
C548 C553 1.379 . S
C548 N555 1.356 . S
C549 C548 1.363 1_455 S
C549 C552 1.363 . S
N550 C552 1.356 . S
N550 H562 0.984 . S
N550 H563 0.985 . S
N551 C553 1.356 . S
N551 H556 0.984 . S
N551 H557 0.985 . S
C552 C546 1.379 . S
C552 C549 1.363 . S
C552 N550 1.356 . S
C553 C547 1.363 . S
C553 C548 1.379 . S
C553 N551 1.356 . S
N554 C546 1.356 . S
N554 H560 0.984 . S
N554 H561 0.983 . S
N555 C548 1.356 . S
N555 H558 0.983 . S
N555 H559 0.985 . S
H556 N551 0.984 . S
H557 N551 0.985 . S
H558 N555 0.983 . S
H559 N555 0.985 . S
H560 N554 0.984 . S
H561 N554 0.983 . S
H562 N550 0.984 . S
H563 N550 0.985 . S
C564 C565 1.363 . S
C564 C570 1.379 . S
C564 N572 1.356 . S
C565 C564 1.363 . S
C565 C571 1.363 . S
C566 C567 1.363 . S
C566 C571 1.379 . S
C566 N573 1.356 . S
C567 C566 1.363 . S
C567 C570 1.363 . S
N568 C570 1.356 . S
N568 H580 0.984 . S
N568 H581 0.985 . S
N569 C571 1.356 . S
N569 H574 0.984 . S
N569 H575 0.985 . S
C570 C564 1.379 . S
C570 C567 1.363 . S
C570 N568 1.356 . S
C571 C565 1.363 . S
C571 C566 1.379 . S
C571 N569 1.356 . S
N572 C564 1.356 . S
N572 H578 0.984 . S
N572 H579 0.984 . S
N573 C566 1.356 . S
N573 H576 0.984 . S
N573 H577 0.985 . S
H574 N569 0.984 . S
H575 N569 0.985 . S
H576 N573 0.984 . S
H577 N573 0.985 . S
H578 N572 0.984 . S
H579 N572 0.984 . S
H580 N568 0.984 . S
H581 N568 0.985 . S
C582 C583 1.363 . S
C582 C588 1.379 1_565 S
C582 N590 1.356 . S
C583 C582 1.363 . S
C583 C589 1.363 . S
C584 C585 1.363 . S
C584 C589 1.379 1_545 S
C584 N591 1.356 . S
C585 C584 1.363 . S
C585 C588 1.363 . S
N586 C588 1.356 . S
N586 H598 0.984 . S
N586 H599 0.985 . S
N587 C589 1.356 . S
N587 H592 0.984 . S
N587 H593 0.985 . S
C588 C582 1.379 1_545 S
C588 C585 1.363 . S
C588 N586 1.356 . S
C589 C583 1.363 . S
C589 C584 1.379 1_565 S
C589 N587 1.356 . S
N590 C582 1.356 . S
N590 H596 0.984 . S
N590 H597 0.984 . S
N591 C584 1.356 . S
N591 H594 0.984 . S
N591 H595 0.985 . S
H592 N587 0.984 . S
H593 N587 0.985 . S
H594 N591 0.984 . S
H595 N591 0.985 . S
H596 N590 0.984 . S
H597 N590 0.984 . S
H598 N586 0.984 . S
H599 N586 0.985 . S
C600 C601 1.363 . S
C600 C606 1.379 1_455 S
C600 N608 1.356 . S
C601 C600 1.363 . S
C601 C607 1.363 1_565 S
C602 C603 1.363 . S
C602 C607 1.379 1_655 S
C602 N609 1.356 . S
C603 C602 1.363 . S
C603 C606 1.363 1_545 S
N604 C606 1.356 . S
N604 H616 0.984 . S
N604 H617 0.983 . S
N605 C607 1.356 . S
N605 H610 0.983 . S
N605 H611 0.985 . S
C606 C600 1.379 1_655 S
C606 C603 1.363 1_565 S
C606 N604 1.356 . S
C607 C601 1.363 1_545 S
C607 C602 1.379 1_455 S
C607 N605 1.356 . S
N608 C600 1.356 . S
N608 H614 0.984 . S
N608 H615 0.984 . S
N609 C602 1.356 . S
N609 H612 0.984 . S
N609 H613 0.985 . S
H610 N605 0.983 . S
H611 N605 0.985 . S
H612 N609 0.984 . S
H613 N609 0.985 . S
H614 N608 0.984 . S
H615 N608 0.984 . S
H616 N604 0.984 . S
H617 N604 0.983 . S
C618 C619 1.363 1_455 S
C618 C624 1.379 . S
C618 N626 1.356 . S
C619 C618 1.363 1_655 S
C619 C625 1.363 . S
C620 C621 1.363 1_655 S
C620 C625 1.379 . S
C620 N627 1.356 . S
C621 C620 1.363 1_455 S
C621 C624 1.363 . S
N622 C624 1.356 . S
N622 H634 0.984 . S
N622 H635 0.985 . S
N623 C625 1.356 . S
N623 H628 0.984 . S
N623 H629 0.985 . S
C624 C618 1.379 . S
C624 C621 1.363 . S
C624 N622 1.356 . S
C625 C619 1.363 . S
C625 C620 1.379 . S
C625 N623 1.356 . S
N626 C618 1.356 . S
N626 H632 0.984 . S
N626 H633 0.983 . S
N627 C620 1.356 . S
N627 H630 0.983 . S
N627 H631 0.985 . S
H628 N623 0.984 . S
H629 N623 0.985 . S
H630 N627 0.983 . S
H631 N627 0.985 . S
H632 N626 0.984 . S
H633 N626 0.983 . S
H634 N622 0.984 . S
H635 N622 0.985 . S
C636 C637 1.363 1_556 S
C636 C642 1.379 . S
C636 N644 1.356 . S
C637 C636 1.363 1_554 S
C637 C643 1.363 . S
C638 C639 1.363 . S
C638 C643 1.379 . S
C638 N645 1.356 . S
C639 C638 1.363 . S
C639 C642 1.363 1_554 S
N640 C642 1.356 . S
N640 H652 0.984 . S
N640 H653 0.985 . S
N641 C643 1.356 . S
N641 H646 0.984 . S
N641 H647 0.985 . S
C642 C636 1.379 . S
C642 C639 1.363 1_556 S
C642 N640 1.356 . S
C643 C637 1.363 . S
C643 C638 1.379 . S
C643 N641 1.356 . S
N644 C636 1.356 . S
N644 H650 0.984 . S
N644 H651 0.984 . S
N645 C638 1.356 . S
N645 H648 0.984 . S
N645 H649 0.985 . S
H646 N641 0.984 . S
H647 N641 0.985 . S
H648 N645 0.984 . S
H649 N645 0.985 . S
H650 N644 0.984 . S
H651 N644 0.984 . S
H652 N640 0.984 . S
H653 N640 0.985 . S
C654 C655 1.363 . S
C654 C660 1.379 1_565 S
C654 N662 1.356 . S
C655 C654 1.363 . S
C655 C661 1.363 . S
C656 C657 1.363 . S
C656 C661 1.379 1_545 S
C656 N663 1.356 . S
C657 C656 1.363 . S
C657 C660 1.363 . S
N658 C660 1.356 . S
N658 H670 0.984 . S
N658 H671 0.985 . S
N659 C661 1.356 . S
N659 H664 0.984 . S
N659 H665 0.985 . S
C660 C654 1.379 1_545 S
C660 C657 1.363 . S
C660 N658 1.356 . S
C661 C655 1.363 . S
C661 C656 1.379 1_565 S
C661 N659 1.356 . S
N662 C654 1.356 . S
N662 H668 0.984 . S
N662 H669 0.984 . S
N663 C656 1.356 . S
N663 H666 0.984 . S
N663 H667 0.985 . S
H664 N659 0.984 . S
H665 N659 0.985 . S
H666 N663 0.984 . S
H667 N663 0.985 . S
H668 N662 0.984 . S
H669 N662 0.984 . S
H670 N658 0.984 . S
H671 N658 0.985 . S
C672 C673 1.363 . S
C672 C678 1.379 1_565 S
C672 N680 1.356 . S
C673 C672 1.363 . S
C673 C679 1.363 . S
C674 C675 1.363 1_565 S
C674 C679 1.379 . S
C674 N681 1.356 . S
C675 C674 1.363 1_545 S
C675 C678 1.363 . S
N676 C678 1.356 . S
N676 H688 0.984 . S
N676 H689 0.985 . S
N677 C679 1.356 . S
N677 H682 0.984 . S
N677 H683 0.985 . S
C678 C672 1.379 1_545 S
C678 C675 1.363 . S
C678 N676 1.356 . S
C679 C673 1.363 . S
C679 C674 1.379 . S
C679 N677 1.356 . S
N680 C672 1.356 . S
N680 H686 0.984 1_565 S
N680 H687 0.984 . S
N681 C674 1.356 . S
N681 H684 0.984 1_565 S
N681 H685 0.985 . S
H682 N677 0.984 . S
H683 N677 0.985 . S
H684 N681 0.984 1_545 S
H685 N681 0.985 . S
H686 N680 0.984 1_545 S
H687 N680 0.984 . S
H688 N676 0.984 . S
H689 N676 0.985 . S
C690 C691 1.363 . S
C690 C696 1.379 1_455 S
C690 N698 1.356 . S
C691 C690 1.363 . S
C691 C697 1.363 . S
C692 C693 1.363 1_455 S
C692 C697 1.379 . S
C692 N699 1.356 . S
C693 C692 1.363 1_655 S
C693 C696 1.363 . S
N694 C696 1.356 . S
N694 H706 0.984 . S
N694 H707 0.985 . S
N695 C697 1.356 . S
N695 H700 0.984 . S
N695 H701 0.985 . S
C696 C690 1.379 1_655 S
C696 C693 1.363 . S
C696 N694 1.356 . S
C697 C691 1.363 . S
C697 C692 1.379 . S
C697 N695 1.356 . S
N698 C690 1.356 . S
N698 H704 0.984 1_455 S
N698 H705 0.984 . S
N699 C692 1.356 . S
N699 H702 0.984 1_455 S
N699 H703 0.985 . S
H700 N695 0.984 . S
H701 N695 0.985 . S
H702 N699 0.984 1_655 S
H703 N699 0.985 . S
H704 N698 0.984 1_655 S
H705 N698 0.984 . S
H706 N694 0.984 . S
H707 N694 0.985 . S
C708 C709 1.363 . S
C708 C714 1.379 . S
C708 N716 1.356 . S
C709 C708 1.363 . S
C709 C715 1.363 . S
C710 C711 1.363 . S
C710 C715 1.379 . S
C710 N717 1.356 . S
C711 C710 1.363 . S
C711 C714 1.363 . S
N712 C714 1.356 . S
N712 H724 0.984 . S
N712 H725 0.985 . S
N713 C715 1.356 . S
N713 H718 0.984 . S
N713 H719 0.985 . S
C714 C708 1.379 . S
C714 C711 1.363 . S
C714 N712 1.356 . S
C715 C709 1.363 . S
C715 C710 1.379 . S
C715 N713 1.356 . S
N716 C708 1.356 . S
N716 H722 0.984 . S
N716 H723 0.984 . S
N717 C710 1.356 . S
N717 H720 0.984 . S
N717 H721 0.985 . S
H718 N713 0.984 . S
H719 N713 0.985 . S
H720 N717 0.984 . S
H721 N717 0.985 . S
H722 N716 0.984 . S
H723 N716 0.984 . S
H724 N712 0.984 . S
H725 N712 0.985 . S
C726 C727 1.363 . S
C726 C732 1.379 1_554 S
C726 N734 1.356 . S
C727 C726 1.363 . S
C727 C733 1.363 1_554 S
C728 C729 1.363 . S
C728 C733 1.379 . S
C728 N735 1.356 . S
C729 C728 1.363 . S
C729 C732 1.363 . S
N730 C732 1.356 . S
N730 H742 0.984 . S
N730 H743 0.985 . S
N731 C733 1.356 1_554 S
N731 H736 0.984 . S
N731 H737 0.985 1_554 S
C732 C726 1.379 1_556 S
C732 C729 1.363 . S
C732 N730 1.356 . S
C733 C727 1.363 1_556 S
C733 C728 1.379 . S
C733 N731 1.356 1_556 S
N734 C726 1.356 . S
N734 H740 0.984 . S
N734 H741 0.984 . S
N735 C728 1.356 . S
N735 H738 0.984 . S
N735 H739 0.985 . S
H736 N731 0.984 . S
H737 N731 0.985 1_556 S
H738 N735 0.984 . S
H739 N735 0.985 . S
H740 N734 0.984 . S
H741 N734 0.984 . S
H742 N730 0.984 . S
H743 N730 0.985 . S
C744 C745 1.375 . S
C744 C750 1.357 1_545 S
C744 N752 1.373 . S
C745 C744 1.375 . S
C745 C751 1.374 . S
C746 C747 1.363 . S
C746 C751 1.359 1_565 S
C746 N753 1.356 . S
C747 C746 1.363 . S
C747 C750 1.363 . S
N748 C750 1.356 . S
N748 H760 0.984 . S
N748 H761 0.985 . S
N749 C751 1.371 . S
N749 H754 0.984 . S
N749 H755 0.985 . S
C750 C744 1.357 1_565 S
C750 C747 1.363 . S
C750 N748 1.356 . S
C751 C745 1.374 . S
C751 C746 1.359 1_545 S
C751 N749 1.371 . S
N752 C744 1.373 . S
N752 H758 0.984 . S
N752 H759 0.984 . S
N753 C746 1.356 . S
N753 H756 0.984 . S
N753 H757 0.985 . S
H754 N749 0.984 . S
H755 N749 0.985 . S
H756 N753 0.984 . S
H757 N753 0.985 . S
H758 N752 0.984 . S
H759 N752 0.984 . S
H760 N748 0.984 . S
H761 N748 0.985 . S
C762 C763 1.363 1_455 S
C762 C768 1.379 . S
C762 N770 1.356 . S
C763 C762 1.363 1_655 S
C763 C769 1.363 . S
C764 C765 1.363 . S
C764 C769 1.379 1_454 S
C764 N771 1.356 . S
C765 C764 1.363 . S
C765 C768 1.363 1_554 S
N766 C768 1.356 1_554 S
N766 H778 0.984 1_554 S
N766 H779 0.985 . S
N767 C769 1.356 . S
N767 H772 0.984 . S
N767 H773 0.985 . S
C768 C762 1.379 . S
C768 C765 1.363 1_556 S
C768 N766 1.356 1_556 S
C769 C763 1.363 . S
C769 C764 1.379 1_656 S
C769 N767 1.356 . S
N770 C762 1.356 . S
N770 H776 0.984 . S
N770 H777 0.984 1_455 S
N771 C764 1.356 . S
N771 H774 0.984 . S
N771 H775 0.985 1_455 S
H772 N767 0.984 . S
H773 N767 0.985 . S
H774 N771 0.984 . S
H775 N771 0.985 1_655 S
H776 N770 0.984 . S
H777 N770 0.984 1_655 S
H778 N766 0.984 1_556 S
H779 N766 0.985 . S
C780 C781 1.363 . S
C780 C786 1.379 . S
C780 N788 1.356 . S
C781 C780 1.363 . S
C781 C787 1.363 . S
C782 C783 1.363 . S
C782 C787 1.379 . S
C782 N789 1.356 . S
C783 C782 1.363 . S
C783 C786 1.363 . S
N784 C786 1.356 . S
N784 H796 0.984 . S
N784 H797 0.985 . S
N785 C787 1.356 . S
N785 H790 0.984 . S
N785 H791 0.985 . S
C786 C780 1.379 . S
C786 C783 1.363 . S
C786 N784 1.356 . S
C787 C781 1.363 . S
C787 C782 1.379 . S
C787 N785 1.356 . S
N788 C780 1.356 . S
N788 H794 0.984 . S
N788 H795 0.984 . S
N789 C782 1.356 . S
N789 H792 0.984 . S
N789 H793 0.985 . S
H790 N785 0.984 . S
H791 N785 0.985 . S
H792 N789 0.984 . S
H793 N789 0.985 . S
H794 N788 0.984 . S
H795 N788 0.984 . S
H796 N784 0.984 . S
H797 N784 0.985 . S
C798 C799 1.363 . S
C798 C804 1.379 . S
C798 N806 1.356 . S
C799 C798 1.363 . S
C799 C805 1.363 . S
C800 C801 1.363 . S
C800 C805 1.379 . S
C800 N807 1.356 . S
C801 C800 1.363 . S
C801 C804 1.363 . S
N802 C804 1.356 . S
N802 H814 0.984 . S
N802 H815 0.985 . S
N803 C805 1.356 . S
N803 H808 0.984 . S
N803 H809 0.985 . S
C804 C798 1.379 . S
C804 C801 1.363 . S
C804 N802 1.356 . S
C805 C799 1.363 . S
C805 C800 1.379 . S
C805 N803 1.356 . S
N806 C798 1.356 . S
N806 H812 0.984 . S
N806 H813 0.984 . S
N807 C800 1.356 . S
N807 H810 0.984 . S
N807 H811 0.985 . S
H808 N803 0.984 . S
H809 N803 0.985 . S
H810 N807 0.984 . S
H811 N807 0.985 . S
H812 N806 0.984 . S
H813 N806 0.984 . S
H814 N802 0.984 . S
H815 N802 0.985 . S
C816 C817 1.363 . S
C816 C822 1.379 . S
C816 N824 1.356 . S
C817 C816 1.363 . S
C817 C823 1.363 . S
C818 C819 1.363 . S
C818 C823 1.379 . S
C818 N825 1.356 . S
C819 C818 1.363 . S
C819 C822 1.363 . S
N820 C822 1.356 . S
N820 H832 0.984 . S
N820 H833 0.985 . S
N821 C823 1.356 . S
N821 H826 0.984 . S
N821 H827 0.985 . S
C822 C816 1.379 . S
C822 C819 1.363 . S
C822 N820 1.356 . S
C823 C817 1.363 . S
C823 C818 1.379 . S
C823 N821 1.356 . S
N824 C816 1.356 . S
N824 H830 0.984 . S
N824 H831 0.984 . S
N825 C818 1.356 . S
N825 H828 0.984 . S
N825 H829 0.985 . S
H826 N821 0.984 . S
H827 N821 0.985 . S
H828 N825 0.984 . S
H829 N825 0.985 . S
H830 N824 0.984 . S
H831 N824 0.984 . S
H832 N820 0.984 . S
H833 N820 0.985 . S
C834 C835 1.363 . S
C834 C840 1.379 1_554 S
C834 N842 1.356 . S
C835 C834 1.363 . S
C835 C841 1.363 1_554 S
C836 C837 1.363 . S
C836 C841 1.379 . S
C836 N843 1.356 . S
C837 C836 1.363 . S
C837 C840 1.363 . S
N838 C840 1.356 . S
N838 H850 0.984 . S
N838 H851 0.985 . S
N839 C841 1.356 1_554 S
N839 H844 0.984 . S
N839 H845 0.985 1_554 S
C840 C834 1.379 1_556 S
C840 C837 1.363 . S
C840 N838 1.356 . S
C841 C835 1.363 1_556 S
C841 C836 1.379 . S
C841 N839 1.356 1_556 S
N842 C834 1.356 . S
N842 H848 0.984 . S
N842 H849 0.984 . S
N843 C836 1.356 . S
N843 H846 0.984 . S
N843 H847 0.985 . S
H844 N839 0.984 . S
H845 N839 0.985 1_556 S
H846 N843 0.984 . S
H847 N843 0.985 . S
H848 N842 0.984 . S
H849 N842 0.984 . S
H850 N838 0.984 . S
H851 N838 0.985 . S
C852 C853 1.363 . S
C852 C858 1.379 1_545 S
C852 N860 1.356 . S
C853 C852 1.363 . S
C853 C859 1.363 . S
C854 C855 1.363 1_545 S
C854 C859 1.379 . S
C854 N861 1.356 . S
C855 C854 1.363 1_565 S
C855 C858 1.363 . S
N856 C858 1.356 . S
N856 H868 0.984 . S
N856 H869 0.985 . S
N857 C859 1.356 . S
N857 H862 0.984 . S
N857 H863 0.985 . S
C858 C852 1.379 1_565 S
C858 C855 1.363 . S
C858 N856 1.356 . S
C859 C853 1.363 . S
C859 C854 1.379 . S
C859 N857 1.356 . S
N860 C852 1.356 . S
N860 H866 0.984 1_545 S
N860 H867 0.984 . S
N861 C854 1.356 . S
N861 H864 0.984 1_545 S
N861 H865 0.985 . S
H862 N857 0.984 . S
H863 N857 0.985 . S
H864 N861 0.984 1_565 S
H865 N861 0.985 . S
H866 N860 0.984 1_565 S
H867 N860 0.984 . S
H868 N856 0.984 . S
H869 N856 0.985 . S
C870 C871 1.363 . S
C870 C876 1.379 1_455 S
C870 N878 1.356 . S
C871 C870 1.363 . S
C871 C877 1.363 1_455 S
C872 C873 1.363 . S
C872 C877 1.379 . S
C872 N879 1.356 . S
C873 C872 1.363 . S
C873 C876 1.363 . S
N874 C876 1.356 . S
N874 H886 0.984 1_655 S
N874 H887 0.985 . S
N875 C877 1.356 . S
N875 H880 0.984 1_655 S
N875 H881 0.985 . S
C876 C870 1.379 1_655 S
C876 C873 1.363 . S
C876 N874 1.356 . S
C877 C871 1.363 1_655 S
C877 C872 1.379 . S
C877 N875 1.356 . S
N878 C870 1.356 . S
N878 H884 0.984 . S
N878 H885 0.984 . S
N879 C872 1.356 . S
N879 H882 0.984 . S
N879 H883 0.985 . S
H880 N875 0.984 1_455 S
H881 N875 0.985 . S
H882 N879 0.984 . S
H883 N879 0.985 . S
H884 N878 0.984 . S
H885 N878 0.984 . S
H886 N874 0.984 1_455 S
H887 N874 0.985 . S
C888 C889 1.363 . S
C888 C894 1.379 . S
C888 N896 1.356 . S
C889 C888 1.363 . S
C889 C895 1.363 . S
C890 C891 1.363 . S
C890 C895 1.379 . S
C890 N897 1.356 . S
C891 C890 1.363 . S
C891 C894 1.363 . S
N892 C894 1.356 . S
N892 H904 0.984 . S
N892 H905 0.985 . S
N893 C895 1.356 . S
N893 H898 0.984 . S
N893 H899 0.985 . S
C894 C888 1.379 . S
C894 C891 1.363 . S
C894 N892 1.356 . S
C895 C889 1.363 . S
C895 C890 1.379 . S
C895 N893 1.356 . S
N896 C888 1.356 . S
N896 H902 0.984 . S
N896 H903 0.984 . S
N897 C890 1.356 . S
N897 H900 0.984 . S
N897 H901 0.985 . S
H898 N893 0.984 . S
H899 N893 0.985 . S
H900 N897 0.984 . S
H901 N897 0.985 . S
H902 N896 0.984 . S
H903 N896 0.984 . S
H904 N892 0.984 . S
H905 N892 0.985 . S
C906 C907 1.363 . S
C906 C912 1.379 . S
C906 N914 1.356 . S
C907 C906 1.363 . S
C907 C913 1.363 . S
C908 C909 1.363 . S
C908 C913 1.379 . S
C908 N915 1.356 . S
C909 C908 1.363 . S
C909 C912 1.363 . S
N910 C912 1.356 . S
N910 H922 0.984 . S
N910 H923 0.985 . S
N911 C913 1.356 . S
N911 H916 0.984 . S
N911 H917 0.985 . S
C912 C906 1.379 . S
C912 C909 1.363 . S
C912 N910 1.356 . S
C913 C907 1.363 . S
C913 C908 1.379 . S
C913 N911 1.356 . S
N914 C906 1.356 . S
N914 H920 0.984 . S
N914 H921 0.984 . S
N915 C908 1.356 . S
N915 H918 0.984 . S
N915 H919 0.985 . S
H916 N911 0.984 . S
H917 N911 0.985 . S
H918 N915 0.984 . S
H919 N915 0.985 . S
H920 N914 0.984 . S
H921 N914 0.984 . S
H922 N910 0.984 . S
H923 N910 0.985 . S
C924 C925 1.363 . S
C924 C930 1.379 1_565 S
C924 N932 1.356 . S
C925 C924 1.363 . S
C925 C931 1.363 1_565 S
C926 C927 1.363 . S
C926 C931 1.379 . S
C926 N933 1.356 . S
C927 C926 1.363 . S
C927 C930 1.363 . S
N928 C930 1.356 . S
N928 H940 0.984 . S
N928 H941 0.985 . S
N929 C931 1.356 1_565 S
N929 H934 0.984 . S
N929 H935 0.985 . S
C930 C924 1.379 1_545 S
C930 C927 1.363 . S
C930 N928 1.356 . S
C931 C925 1.363 1_545 S
C931 C926 1.379 . S
C931 N929 1.356 1_545 S
N932 C924 1.356 . S
N932 H938 0.984 . S
N932 H939 0.984 . S
N933 C926 1.356 . S
N933 H936 0.984 . S
N933 H937 0.985 . S
H934 N929 0.984 . S
H935 N929 0.985 . S
H936 N933 0.984 . S
H937 N933 0.985 . S
H938 N932 0.984 . S
H939 N932 0.984 . S
H940 N928 0.984 . S
H941 N928 0.985 . S
C942 C943 1.363 . S
C942 C948 1.379 1_554 S
C942 N950 1.356 . S
C943 C942 1.363 . S
C943 C949 1.363 . S
C944 C945 1.363 . S
C944 C949 1.379 1_456 S
C944 N951 1.356 . S
C945 C944 1.363 . S
C945 C948 1.363 1_455 S
N946 C948 1.356 . S
N946 H958 0.984 . S
N946 H959 0.985 1_655 S
N947 C949 1.356 . S
N947 H952 0.984 . S
N947 H953 0.985 1_655 S
C948 C942 1.379 1_556 S
C948 C945 1.363 1_655 S
C948 N946 1.356 . S
C949 C943 1.363 . S
C949 C944 1.379 1_654 S
C949 N947 1.356 . S
N950 C942 1.356 . S
N950 H956 0.984 . S
N950 H957 0.984 . S
N951 C944 1.356 . S
N951 H954 0.984 . S
N951 H955 0.985 . S
H952 N947 0.984 . S
H953 N947 0.985 1_455 S
H954 N951 0.984 . S
H955 N951 0.985 . S
H956 N950 0.984 . S
H957 N950 0.984 . S
H958 N946 0.984 . S
H959 N946 0.985 1_455 S
C960 C961 1.363 . S
C960 C966 1.379 . S
C960 N968 1.356 . S
C961 C960 1.363 . S
C961 C967 1.363 . S
C962 C963 1.363 . S
C962 C967 1.379 . S
C962 N969 1.356 . S
C963 C962 1.363 . S
C963 C966 1.363 . S
N964 C966 1.356 . S
N964 H976 0.984 1_554 S
N964 H977 0.985 1_554 S
N965 C967 1.356 . S
N965 H970 0.984 . S
N965 H971 0.985 . S
C966 C960 1.379 . S
C966 C963 1.363 . S
C966 N964 1.356 . S
C967 C961 1.363 . S
C967 C962 1.379 . S
C967 N965 1.356 . S
N968 C960 1.356 . S
N968 H974 0.984 . S
N968 H975 0.984 . S
N969 C962 1.356 . S
N969 H972 0.984 . S
N969 H973 0.985 . S
H970 N965 0.984 . S
H971 N965 0.985 . S
H972 N969 0.984 . S
H973 N969 0.985 . S
H974 N968 0.984 . S
H975 N968 0.984 . S
H976 N964 0.984 1_556 S
H977 N964 0.985 1_556 S
C978 C979 1.363 . S
C978 C984 1.379 . S
C978 N986 1.356 . S
C979 C978 1.363 . S
C979 C985 1.363 . S
C980 C981 1.363 . S
C980 C985 1.379 . S
C980 N987 1.356 . S
C981 C980 1.363 . S
C981 C984 1.363 . S
N982 C984 1.356 . S
N982 H994 0.984 . S
N982 H995 0.985 . S
N983 C985 1.356 . S
N983 H988 0.984 . S
N983 H989 0.985 . S
C984 C978 1.379 . S
C984 C981 1.363 . S
C984 N982 1.356 . S
C985 C979 1.363 . S
C985 C980 1.379 . S
C985 N983 1.356 . S
N986 C978 1.356 . S
N986 H992 0.984 . S
N986 H993 0.984 . S
N987 C980 1.356 . S
N987 H990 0.984 . S
N987 H991 0.985 . S
H988 N983 0.984 . S
H989 N983 0.985 . S
H990 N987 0.984 . S
H991 N987 0.985 . S
H992 N986 0.984 . S
H993 N986 0.984 . S
H994 N982 0.984 . S
H995 N982 0.985 . S
C996 C997 1.363 . S
C996 C1002 1.379 . S
C996 N1004 1.356 . S
C997 C996 1.363 . S
C997 C1003 1.363 . S
C998 C999 1.363 . S
C998 C1003 1.379 . S
C998 N1005 1.356 . S
C999 C998 1.363 . S
C999 C1002 1.363 . S
N1000 C1002 1.356 . S
N1000 H1012 0.984 . S
N1000 H1013 0.985 . S
N1001 C1003 1.356 . S
N1001 H1006 0.984 . S
N1001 H1007 0.985 . S
C1002 C996 1.379 . S
C1002 C999 1.363 . S
C1002 N1000 1.356 . S
C1003 C997 1.363 . S
C1003 C998 1.379 . S
C1003 N1001 1.356 . S
N1004 C996 1.356 . S
N1004 H1010 0.984 . S
N1004 H1011 0.984 . S
N1005 C998 1.356 . S
N1005 H1008 0.984 . S
N1005 H1009 0.985 . S
H1006 N1001 0.984 . S
H1007 N1001 0.985 . S
H1008 N1005 0.984 . S
H1009 N1005 0.985 . S
H1010 N1004 0.984 . S
H1011 N1004 0.984 . S
H1012 N1000 0.984 . S
H1013 N1000 0.985 . S
C1014 C1015 1.363 . S
C1014 C1020 1.379 . S
C1014 N1022 1.356 . S
C1015 C1014 1.363 . S
C1015 C1021 1.363 . S
C1016 C1017 1.363 . S
C1016 C1021 1.379 . S
C1016 N1023 1.356 . S
C1017 C1016 1.363 . S
C1017 C1020 1.363 . S
N1018 C1020 1.356 . S
N1018 H1030 0.984 . S
N1018 H1031 0.985 . S
N1019 C1021 1.356 . S
N1019 H1024 0.984 . S
N1019 H1025 0.985 . S
C1020 C1014 1.379 . S
C1020 C1017 1.363 . S
C1020 N1018 1.356 . S
C1021 C1015 1.363 . S
C1021 C1016 1.379 . S
C1021 N1019 1.356 . S
N1022 C1014 1.356 . S
N1022 H1028 0.984 . S
N1022 H1029 0.984 . S
N1023 C1016 1.356 . S
N1023 H1026 0.984 1_556 S
N1023 H1027 0.985 1_556 S
H1024 N1019 0.984 . S
H1025 N1019 0.985 . S
H1026 N1023 0.984 1_554 S
H1027 N1023 0.985 1_554 S
H1028 N1022 0.984 . S
H1029 N1022 0.984 . S
H1030 N1018 0.984 . S
H1031 N1018 0.985 . S
C1032 C1033 1.363 . S
C1032 C1038 1.379 . S
C1032 N1040 1.356 . S
C1033 C1032 1.363 . S
C1033 C1039 1.363 . S
C1034 C1035 1.363 . S
C1034 C1039 1.379 . S
C1034 N1041 1.356 . S
C1035 C1034 1.363 . S
C1035 C1038 1.363 . S
N1036 C1038 1.356 . S
N1036 H1048 0.984 . S
N1036 H1049 0.985 . S
N1037 C1039 1.356 . S
N1037 H1042 0.984 . S
N1037 H1043 0.985 . S
C1038 C1032 1.379 . S
C1038 C1035 1.363 . S
C1038 N1036 1.356 . S
C1039 C1033 1.363 . S
C1039 C1034 1.379 . S
C1039 N1037 1.356 . S
N1040 C1032 1.356 . S
N1040 H1046 0.984 . S
N1040 H1047 0.984 . S
N1041 C1034 1.356 . S
N1041 H1044 0.984 . S
N1041 H1045 0.985 . S
H1042 N1037 0.984 . S
H1043 N1037 0.985 . S
H1044 N1041 0.984 . S
H1045 N1041 0.985 . S
H1046 N1040 0.984 . S
H1047 N1040 0.984 . S
H1048 N1036 0.984 . S
H1049 N1036 0.985 . S
C1050 C1051 1.363 . S
C1050 C1056 1.379 . S
C1050 N1058 1.356 . S
C1051 C1050 1.363 . S
C1051 C1057 1.363 . S
C1052 C1053 1.363 . S
C1052 C1057 1.379 . S
C1052 N1059 1.356 . S
C1053 C1052 1.363 . S
C1053 C1056 1.363 . S
N1054 C1056 1.356 . S
N1054 H1066 0.984 1_556 S
N1054 H1067 0.985 1_556 S
N1055 C1057 1.356 . S
N1055 H1060 0.984 . S
N1055 H1061 0.985 . S
C1056 C1050 1.379 . S
C1056 C1053 1.363 . S
C1056 N1054 1.356 . S
C1057 C1051 1.363 . S
C1057 C1052 1.379 . S
C1057 N1055 1.356 . S
N1058 C1050 1.356 . S
N1058 H1064 0.984 . S
N1058 H1065 0.984 . S
N1059 C1052 1.356 . S
N1059 H1062 0.984 . S
N1059 H1063 0.985 . S
H1060 N1055 0.984 . S
H1061 N1055 0.985 . S
H1062 N1059 0.984 . S
H1063 N1059 0.985 . S
H1064 N1058 0.984 . S
H1065 N1058 0.984 . S
H1066 N1054 0.984 1_554 S
H1067 N1054 0.985 1_554 S
C1068 C1069 1.363 . S
C1068 C1074 1.379 . S
C1068 N1076 1.356 . S
C1069 C1068 1.363 . S
C1069 C1075 1.363 . S
C1070 C1071 1.363 . S
C1070 C1075 1.379 . S
C1070 N1077 1.356 . S
C1071 C1070 1.363 . S
C1071 C1074 1.363 . S
N1072 C1074 1.342 1_556 S
N1072 H1084 0.993 . S
N1072 H1085 0.991 . S
N1073 C1075 1.356 . S
N1073 H1078 0.984 . S
N1073 H1079 0.985 . S
C1074 C1068 1.379 . S
C1074 C1071 1.363 . S
C1074 N1072 1.342 1_554 S
C1075 C1069 1.363 . S
C1075 C1070 1.379 . S
C1075 N1073 1.356 . S
N1076 C1068 1.356 . S
N1076 H1082 0.984 . S
N1076 H1083 0.984 . S
N1077 C1070 1.356 . S
N1077 H1080 0.984 . S
N1077 H1081 0.985 . S
H1078 N1073 0.984 . S
H1079 N1073 0.985 . S
H1080 N1077 0.984 . S
H1081 N1077 0.985 . S
H1082 N1076 0.984 . S
H1083 N1076 0.984 . S
H1084 N1072 0.993 . S
H1085 N1072 0.991 . S
C1086 C1087 1.363 . S
C1086 C1092 1.379 . S
C1086 N1094 1.356 . S
C1087 C1086 1.363 . S
C1087 C1093 1.363 . S
C1088 C1089 1.363 . S
C1088 C1093 1.379 . S
C1088 N1095 1.356 . S
C1089 C1088 1.363 . S
C1089 C1092 1.363 . S
N1090 C1092 1.356 . S
N1090 H1102 0.984 . S
N1090 H1103 0.985 . S
N1091 C1093 1.356 . S
N1091 H1096 0.984 . S
N1091 H1097 0.985 . S
C1092 C1086 1.379 . S
C1092 C1089 1.363 . S
C1092 N1090 1.356 . S
C1093 C1087 1.363 . S
C1093 C1088 1.379 . S
C1093 N1091 1.356 . S
N1094 C1086 1.356 . S
N1094 H1100 0.984 . S
N1094 H1101 0.984 . S
N1095 C1088 1.356 . S
N1095 H1098 0.984 . S
N1095 H1099 0.985 . S
H1096 N1091 0.984 . S
H1097 N1091 0.985 . S
H1098 N1095 0.984 . S
H1099 N1095 0.985 . S
H1100 N1094 0.984 . S
H1101 N1094 0.984 . S
H1102 N1090 0.984 . S
H1103 N1090 0.985 . S
C1104 C1105 1.363 . S
C1104 C1110 1.379 . S
C1104 N1112 1.356 . S
C1105 C1104 1.363 . S
C1105 C1111 1.363 . S
C1106 C1107 1.363 . S
C1106 C1111 1.379 . S
C1106 N1113 1.356 . S
C1107 C1106 1.363 . S
C1107 C1110 1.363 . S
N1108 C1110 1.356 . S
N1108 H1120 0.984 . S
N1108 H1121 0.985 . S
N1109 C1111 1.356 . S
N1109 H1114 0.984 . S
N1109 H1115 0.985 . S
C1110 C1104 1.379 . S
C1110 C1107 1.363 . S
C1110 N1108 1.356 . S
C1111 C1105 1.363 . S
C1111 C1106 1.379 . S
C1111 N1109 1.356 . S
N1112 C1104 1.356 . S
N1112 H1118 0.984 . S
N1112 H1119 0.984 . S
N1113 C1106 1.356 . S
N1113 H1116 0.984 . S
N1113 H1117 0.985 . S
H1114 N1109 0.984 . S
H1115 N1109 0.985 . S
H1116 N1113 0.984 . S
H1117 N1113 0.985 . S
H1118 N1112 0.984 . S
H1119 N1112 0.984 . S
H1120 N1108 0.984 . S
H1121 N1108 0.985 . S
C1122 C1123 1.363 . S
C1122 C1128 1.379 . S
C1122 N1130 1.356 . S
C1123 C1122 1.363 . S
C1123 C1129 1.363 . S
C1124 C1125 1.363 . S
C1124 C1129 1.379 . S
C1124 N1131 1.356 . S
C1125 C1124 1.363 . S
C1125 C1128 1.363 . S
N1126 C1128 1.341 1_554 S
N1126 H1138 0.994 . S
N1126 H1139 0.990 . S
N1127 C1129 1.356 . S
N1127 H1132 0.984 . S
N1127 H1133 0.985 . S
C1128 C1122 1.379 . S
C1128 C1125 1.363 . S
C1128 N1126 1.341 1_556 S
C1129 C1123 1.363 . S
C1129 C1124 1.379 . S
C1129 N1127 1.356 . S
N1130 C1122 1.356 . S
N1130 H1136 0.984 . S
N1130 H1137 0.984 . S
N1131 C1124 1.356 . S
N1131 H1134 0.984 . S
N1131 H1135 0.985 . S
H1132 N1127 0.984 . S
H1133 N1127 0.985 . S
H1134 N1131 0.984 . S
H1135 N1131 0.985 . S
H1136 N1130 0.984 . S
H1137 N1130 0.984 . S
H1138 N1126 0.994 . S
H1139 N1126 0.990 . S
C1140 C1141 1.363 . S
C1140 C1146 1.379 . S
C1140 N1148 1.356 . S
C1141 C1140 1.363 . S
C1141 C1147 1.363 . S
C1142 C1143 1.363 . S
C1142 C1147 1.379 . S
C1142 N1149 1.356 . S
C1143 C1142 1.363 . S
C1143 C1146 1.363 . S
N1144 C1146 1.356 . S
N1144 H1156 0.984 . S
N1144 H1157 0.985 . S
N1145 C1147 1.356 . S
N1145 H1150 0.984 . S
N1145 H1151 0.985 . S
C1146 C1140 1.379 . S
C1146 C1143 1.363 . S
C1146 N1144 1.356 . S
C1147 C1141 1.363 . S
C1147 C1142 1.379 . S
C1147 N1145 1.356 . S
N1148 C1140 1.356 . S
N1148 H1154 0.984 . S
N1148 H1155 0.984 . S
N1149 C1142 1.356 . S
N1149 H1152 0.984 . S
N1149 H1153 0.985 . S
H1150 N1145 0.984 . S
H1151 N1145 0.985 . S
H1152 N1149 0.984 . S
H1153 N1149 0.985 . S
H1154 N1148 0.984 . S
H1155 N1148 0.984 . S
H1156 N1144 0.984 . S
H1157 N1144 0.985 . S
C1158 C1159 1.363 . S
C1158 C1164 1.379 . S
C1158 N1166 1.356 . S
C1159 C1158 1.363 . S
C1159 C1165 1.363 . S
C1160 C1161 1.363 . S
C1160 C1165 1.379 . S
C1160 N1167 1.356 . S
C1161 C1160 1.363 . S
C1161 C1164 1.363 . S
N1162 C1164 1.356 . S
N1162 H1174 0.984 . S
N1162 H1175 0.985 . S
N1163 C1165 1.356 . S
N1163 H1168 0.984 . S
N1163 H1169 0.985 . S
C1164 C1158 1.379 . S
C1164 C1161 1.363 . S
C1164 N1162 1.356 . S
C1165 C1159 1.363 . S
C1165 C1160 1.379 . S
C1165 N1163 1.356 . S
N1166 C1158 1.356 . S
N1166 H1172 0.984 . S
N1166 H1173 0.984 . S
N1167 C1160 1.356 . S
N1167 H1170 0.984 . S
N1167 H1171 0.985 . S
H1168 N1163 0.984 . S
H1169 N1163 0.985 . S
H1170 N1167 0.984 . S
H1171 N1167 0.985 . S
H1172 N1166 0.984 . S
H1173 N1166 0.984 . S
H1174 N1162 0.984 . S
H1175 N1162 0.985 . S
C1176 C1177 1.363 . S
C1176 C1182 1.379 . S
C1176 N1184 1.356 . S
C1177 C1176 1.363 . S
C1177 C1183 1.363 . S
C1178 C1179 1.363 . S
C1178 C1183 1.379 . S
C1178 N1185 1.356 . S
C1179 C1178 1.363 . S
C1179 C1182 1.363 . S
N1180 C1182 1.356 . S
N1180 H1192 0.984 1_554 S
N1180 H1193 0.985 1_554 S
N1181 C1183 1.356 . S
N1181 H1186 0.984 . S
N1181 H1187 0.985 . S
C1182 C1176 1.379 . S
C1182 C1179 1.363 . S
C1182 N1180 1.356 . S
C1183 C1177 1.363 . S
C1183 C1178 1.379 . S
C1183 N1181 1.356 . S
N1184 C1176 1.356 . S
N1184 H1190 0.984 . S
N1184 H1191 0.984 . S
N1185 C1178 1.356 . S
N1185 H1188 0.984 . S
N1185 H1189 0.985 . S
H1186 N1181 0.984 . S
H1187 N1181 0.985 . S
H1188 N1185 0.984 . S
H1189 N1185 0.985 . S
H1190 N1184 0.984 . S
H1191 N1184 0.984 . S
H1192 N1180 0.984 1_556 S
H1193 N1180 0.985 1_556 S
C1194 C1195 1.363 . S
C1194 C1200 1.379 . S
C1194 N1202 1.356 . S
C1195 C1194 1.363 . S
C1195 C1201 1.363 . S
C1196 C1197 1.363 . S
C1196 C1201 1.379 . S
C1196 N1203 1.356 . S
C1197 C1196 1.363 . S
C1197 C1200 1.363 . S
N1198 C1200 1.356 . S
N1198 H1210 0.984 . S
N1198 H1211 0.985 . S
N1199 C1201 1.356 . S
N1199 H1204 0.984 . S
N1199 H1205 0.985 . S
C1200 C1194 1.379 . S
C1200 C1197 1.363 . S
C1200 N1198 1.356 . S
C1201 C1195 1.363 . S
C1201 C1196 1.379 . S
C1201 N1199 1.356 . S
N1202 C1194 1.356 . S
N1202 H1208 0.984 . S
N1202 H1209 0.984 . S
N1203 C1196 1.356 . S
N1203 H1206 0.984 . S
N1203 H1207 0.985 . S
H1204 N1199 0.984 . S
H1205 N1199 0.985 . S
H1206 N1203 0.984 . S
H1207 N1203 0.985 . S
H1208 N1202 0.984 . S
H1209 N1202 0.984 . S
H1210 N1198 0.984 . S
H1211 N1198 0.985 . S
C1212 C1213 1.363 . S
C1212 C1218 1.379 . S
C1212 N1220 1.356 . S
C1213 C1212 1.363 . S
C1213 C1219 1.363 . S
C1214 C1215 1.363 . S
C1214 C1219 1.379 . S
C1214 N1221 1.356 . S
C1215 C1214 1.363 . S
C1215 C1218 1.363 . S
N1216 C1218 1.356 . S
N1216 H1228 0.984 . S
N1216 H1229 0.985 . S
N1217 C1219 1.356 . S
N1217 H1222 0.984 . S
N1217 H1223 0.985 . S
C1218 C1212 1.379 . S
C1218 C1215 1.363 . S
C1218 N1216 1.356 . S
C1219 C1213 1.363 . S
C1219 C1214 1.379 . S
C1219 N1217 1.356 . S
N1220 C1212 1.356 . S
N1220 H1226 0.984 . S
N1220 H1227 0.984 . S
N1221 C1214 1.356 . S
N1221 H1224 0.984 . S
N1221 H1225 0.985 . S
H1222 N1217 0.984 . S
H1223 N1217 0.985 . S
H1224 N1221 0.984 . S
H1225 N1221 0.985 . S
H1226 N1220 0.984 . S
H1227 N1220 0.984 . S
H1228 N1216 0.984 . S
H1229 N1216 0.985 . S
C1230 C1231 1.363 . S
C1230 C1236 1.379 . S
C1230 N1238 1.356 1_556 S
C1231 C1230 1.363 . S
C1231 C1237 1.363 . S
C1232 C1233 1.363 . S
C1232 C1237 1.379 . S
C1232 N1239 1.356 . S
C1233 C1232 1.363 . S
C1233 C1236 1.363 . S
N1234 C1236 1.356 . S
N1234 H1246 0.984 . S
N1234 H1247 0.985 . S
N1235 C1237 1.356 . S
N1235 H1240 0.984 . S
N1235 H1241 0.985 . S
C1236 C1230 1.379 . S
C1236 C1233 1.363 . S
C1236 N1234 1.356 . S
C1237 C1231 1.363 . S
C1237 C1232 1.379 . S
C1237 N1235 1.356 . S
N1238 C1230 1.356 1_554 S
N1238 H1244 0.984 . S
N1238 H1245 0.984 . S
N1239 C1232 1.356 . S
N1239 H1242 0.984 . S
N1239 H1243 0.985 . S
H1240 N1235 0.984 . S
H1241 N1235 0.985 . S
H1242 N1239 0.984 . S
H1243 N1239 0.985 . S
H1244 N1238 0.984 . S
H1245 N1238 0.984 . S
H1246 N1234 0.984 . S
H1247 N1234 0.985 . S
C529 N332 1.409 . S
C531 N2 1.409 . S
C547 N35 1.409 . S
C549 N365 1.409 . S
C565 N266 1.409 . S
C567 N68 1.409 . S
C583 N101 1.409 . S
C585 N299 1.409 . S
C601 N464 1.409 . S
C603 N134 1.409 . S
C619 N167 1.409 . S
C621 N497 1.409 . S
C637 N200 1.409 . S
C639 N398 1.409 . S
C655 N431 1.409 . S
C657 N233 1.409 . S
C673 C480 1.143 . S
C675 C7 1.129 . S
C691 C513 1.143 . S
C693 C40 1.130 . S
C709 C73 1.130 . S
C711 C414 1.145 . S
C727 C447 1.143 . S
C729 C106 1.130 . S
C745 C139 1.130 . S
C747 C348 1.145 . S
C763 C172 1.130 . S
C765 C381 1.143 . S
C781 C282 1.143 . S
C783 C205 1.129 . S
C799 C238 1.130 . S
C801 C315 1.143 . S
C817 C216 1.143 . S
C819 C271 1.132 . S
C835 C249 1.143 . S
C837 C304 1.130 . S
C853 C150 1.143 . S
C855 C337 1.129 . S
C871 C370 1.130 . S
C873 C183 1.143 . S
C889 C403 1.130 . S
C891 C84 1.141 . S
C907 C436 1.130 . S
C909 C117 1.143 . S
C925 C469 1.130 . S
C927 C18 1.145 . S
C943 C51 1.143 . S
C945 C502 1.130 . S
C961 N376 1.769 . S
C963 C21 1.719 . S
C979 C54 1.720 . S
C981 N277 1.769 . S
C997 C87 1.720 . S
C999 N310 1.769 . S
C1015 C120 1.720 . S
C1017 N343 1.770 . S
C1033 N178 1.769 . S
C1035 C153 1.720 . S
C1051 C186 1.720 . S
C1053 N211 1.770 . S
C1069 N244 1.769 . S
C1071 C219 1.719 . S
C1087 C252 1.720 . S
C1089 N145 1.769 . S
C1105 N112 1.769 . S
C1107 C285 1.720 . S
C1123 C318 1.720 . S
C1125 N13 1.770 . S
C1141 C351 1.720 . S
C1143 N46 1.768 . S
C1159 N79 1.769 . S
C1161 C384 1.720 . S
C1177 N442 1.769 . S
C1179 C417 1.719 . S
C1195 N475 1.769 . S
C1197 C450 1.720 . S
C1213 C483 1.720 . S
C1215 N508 1.769 . S
C1231 N409 1.769 . S
C1233 C516 1.721 . S
