# Generated by pormake.
# Topology ooa, (5)-cn, num edge types: 1
# Building blocks:
#     Node 0, Type 0, BuildingBlock: XOMCOT_clean_sbu_1, # of connection points: 5
#     Node 1, Type 0, BuildingBlock: XOMCOT_clean_sbu_1, # of connection points: 5
#     Node 2, Type 0, BuildingBlock: XOMCOT_clean_sbu_1, # of connection points: 5
#     Node 3, Type 0, BuildingBlock: XOMCOT_clean_sbu_1, # of connection points: 5
#     Node 4, Type 0, BuildingBlock: XOMCOT_clean_sbu_1, # of connection points: 5
#     Node 5, Type 0, BuildingBlock: XOMCOT_clean_sbu_1, # of connection points: 5
#     Node 6, Type 0, BuildingBlock: XOMCOT_clean_sbu_1, # of connection points: 5
#     Node 7, Type 0, BuildingBlock: XOMCOT_clean_sbu_1, # of connection points: 5
#     Edge 8, Type (0, 0), BuildingBlock: CIFDUS_clean_linker_0, # of connection points: 2
#     Edge 9, Type (0, 0), BuildingBlock: CIFDUS_clean_linker_0, # of connection points: 2
#     Edge 10, Type (0, 0), BuildingBlock: CIFDUS_clean_linker_0, # of connection points: 2
#     Edge 11, Type (0, 0), BuildingBlock: CIFDUS_clean_linker_0, # of connection points: 2
#     Edge 12, Type (0, 0), BuildingBlock: CIFDUS_clean_linker_0, # of connection points: 2
#     Edge 13, Type (0, 0), BuildingBlock: CIFDUS_clean_linker_0, # of connection points: 2
#     Edge 14, Type (0, 0), BuildingBlock: CIFDUS_clean_linker_0, # of connection points: 2
#     Edge 15, Type (0, 0), BuildingBlock: CIFDUS_clean_linker_0, # of connection points: 2
#     Edge 16, Type (0, 0), BuildingBlock: CIFDUS_clean_linker_0, # of connection points: 2
#     Edge 17, Type (0, 0), BuildingBlock: CIFDUS_clean_linker_0, # of connection points: 2
#     Edge 18, Type (0, 0), BuildingBlock: CIFDUS_clean_linker_0, # of connection points: 2
#     Edge 19, Type (0, 0), BuildingBlock: CIFDUS_clean_linker_0, # of connection points: 2
#     Edge 20, Type (0, 0), BuildingBlock: CIFDUS_clean_linker_0, # of connection points: 2
#     Edge 21, Type (0, 0), BuildingBlock: CIFDUS_clean_linker_0, # of connection points: 2
#     Edge 22, Type (0, 0), BuildingBlock: CIFDUS_clean_linker_0, # of connection points: 2
#     Edge 23, Type (0, 0), BuildingBlock: CIFDUS_clean_linker_0, # of connection points: 2
#     Edge 24, Type (0, 0), BuildingBlock: CIFDUS_clean_linker_0, # of connection points: 2
#     Edge 25, Type (0, 0), BuildingBlock: CIFDUS_clean_linker_0, # of connection points: 2
#     Edge 26, Type (0, 0), BuildingBlock: CIFDUS_clean_linker_0, # of connection points: 2
#     Edge 27, Type (0, 0), BuildingBlock: CIFDUS_clean_linker_0, # of connection points: 2
# Relax obj value: 0.417
# Max RMSD: 0.219
# Mean RMSD: 0.219
data_MOF--net-ooa--node1-XOMCOT_clean_sbu_1--edge1-CIFDUS_clean_linker_0
_symmetry_space_group_name_H-M    P1
_symmetry_Int_Tables_number       1
_symmetry_cell_setting            triclinic
loop_
_symmetry_equiv_pos_as_xyz
'x, y, z'
_cell_length_a     25.388566
_cell_length_b     27.804136
_cell_length_c     43.413569
_cell_angle_alpha  89.997771
_cell_angle_beta   90.010734
_cell_angle_gamma 89.845293
loop_
_atom_site_label
_atom_site_type_symbol
_atom_site_fract_x
_atom_site_fract_y
_atom_site_fract_z
_atom_type_partial_charge
C0 C 0.08001 0.11549 0.11041 0.0
C1 C 0.11171 0.07686 0.11759 0.0
N2 N 0.14879 0.07248 0.0955 0.0
N3 N 0.09739 0.13573 0.08414 0.0
C4 C 0.13897 0.10858 0.07546 0.0
H5 H 0.04593 0.12766 0.1232 0.0
Co6 Co 0.06515 0.18608 0.0631 0.0
C7 C 0.16186 0.24058 0.04356 0.0
O8 O 0.14525 0.28054 0.05655 0.0
N9 N 1.02965 0.23484 0.04112 0.0
C10 C 1.00083 0.28401 0.00417 0.0
C11 C 0.0447 0.26394 0.01777 0.0
C12 C 0.97645 0.23736 0.04064 0.0
N13 N 0.95779 0.26672 0.0184 0.0
O14 O 0.05183 0.1431 0.03051 0.0
H15 H 0.08406 0.26709 0.00876 0.0
H16 H 0.95161 0.21566 0.05527 0.0
O17 O 0.13311 0.20289 0.04444 0.0
C18 C 1.01095 0.11775 0.0352 0.0
O19 O 0.98064 0.128 0.05884 0.0
N20 N 0.07591 0.22603 0.09754 0.0
C21 C 0.07749 0.24218 0.16081 0.0
C22 C 0.12448 0.23373 0.14476 0.0
C23 C 0.12284 0.22545 0.11307 0.0
C24 C 1.03091 0.23965 0.11234 0.0
C25 C 1.03091 0.24826 0.14396 0.0
H26 H 0.1581 0.21191 0.10216 0.0
H27 H 0.9935 0.23804 0.10075 0.0
H28 H 0.16127 0.11495 0.05466 0.0
H29 H 0.10682 0.05312 0.13712 0.0
H30 H 1.00059 0.30608 0.98363 0.0
H31 H 0.16122 0.22812 0.15696 0.0
H32 H 0.99385 0.25526 0.15551 0.0
C33 C 0.44894 0.83939 0.126 0.0
C34 C 0.41198 0.87142 0.13674 0.0
N35 N 0.37629 0.87917 0.11426 0.0
N36 N 0.43634 0.82643 0.09702 0.0
C37 C 0.39218 0.85155 0.09036 0.0
H38 H 0.48337 0.82688 0.13832 0.0
Co39 Co 0.47693 0.7862 0.07227 0.0
C40 C 0.38899 0.72989 0.04251 0.0
O41 O 0.40798 0.68822 0.05165 0.0
N42 N 0.52097 0.74799 0.04728 0.0
C43 C 0.56033 0.70991 0.00834 0.0
C44 C 0.51267 0.72106 0.0218 0.0
C45 C 0.57392 0.75323 0.04829 0.0
N46 N 0.59881 0.73074 0.02488 0.0
O47 O 0.48798 0.83817 0.04542 0.0
H48 H 0.47499 0.71345 0.01157 0.0
H49 H 0.59378 0.77543 0.06508 0.0
O50 O 0.41364 0.76869 0.04888 0.0
C51 C 0.52364 0.86682 0.05462 0.0
O52 O 0.5505 0.85616 0.07958 0.0
N53 N 0.46797 0.73681 0.10123 0.0
C54 C 0.46021 0.71235 0.16316 0.0
C55 C 0.41508 0.71397 0.14457 0.0
C56 C 0.41964 0.72739 0.11377 0.0
C57 C 0.51258 0.72772 0.1177 0.0
C58 C 0.50964 0.71569 0.14884 0.0
H59 H 0.38392 0.73752 0.10198 0.0
H60 H 0.55052 0.73715 0.10837 0.0
H61 H 0.3724 0.84993 0.06831 0.0
H62 H 0.41239 0.88883 0.15903 0.0
H63 H 0.56583 0.69142 0.98663 0.0
H64 H 0.37612 0.71055 0.15446 0.0
H65 H 0.54572 0.71501 0.16212 0.0
C66 C 0.1123 0.34409 0.3987 0.0
C67 C 0.14621 0.38141 0.39289 0.0
N68 N 0.18217 0.38295 0.41572 0.0
N69 N 0.12712 0.3218 0.42486 0.0
C70 C 0.1695 0.34652 0.43491 0.0
H71 H 0.07845 0.33418 0.38499 0.0
Co72 Co 0.09068 0.27136 0.443 0.0
C73 C 0.18363 0.211 0.46332 0.0
O74 O 0.16818 0.1723 0.44847 0.0
N75 N 0.05087 0.2226 0.4616 0.0
C76 C 1.0159 0.16903 0.49374 0.0
C77 C 0.06209 0.18786 0.4824 0.0
C78 C 0.99767 0.22465 0.46132 0.0
N79 N 0.97533 0.19264 0.48066 0.0
O80 O 0.07812 0.31074 0.47755 0.0
H81 H 0.10055 0.17932 0.49132 0.0
H82 H 0.97577 0.25118 0.44833 0.0
O83 O 0.15574 0.24928 0.46241 0.0
C84 C 0.04227 0.342 0.47331 0.0
O85 O 1.01488 0.34051 0.44763 0.0
N86 N 0.10158 0.23487 0.40716 0.0
C87 C 0.10973 0.22158 0.3436 0.0
C88 C 0.155 0.22373 0.36207 0.0
C89 C 0.15012 0.23158 0.39365 0.0
C90 C 0.05727 0.22782 0.39006 0.0
C91 C 0.0604 0.22123 0.35824 0.0
H92 H 0.18529 0.24088 0.40622 0.0
H93 H 1.01898 0.23328 0.40024 0.0
H94 H 0.1904 0.33813 0.45596 0.0
H95 H 0.14366 0.40629 0.37377 0.0
H96 H 1.01262 0.1429 0.51212 0.0
H97 H 0.19399 0.22344 0.35197 0.0
H98 H 1.02415 0.2206 0.34513 0.0
C99 C 0.4832 0.61574 0.3945 0.0
C100 C 0.45133 0.57951 0.3839 0.0
N101 N 0.41064 0.57477 0.40356 0.0
N102 N 0.46222 0.6343 0.42043 0.0
C103 C 0.41833 0.60822 0.42566 0.0
H104 H 0.51956 0.62778 0.38409 0.0
Co105 Co 0.49334 0.68272 0.44344 0.0
C106 C 0.40155 0.74402 0.45991 0.0
O107 O 0.42695 0.78166 0.44924 0.0
N108 N 0.52819 0.72955 0.46739 0.0
C109 C 0.55556 0.77537 0.50642 0.0
C110 C 0.51248 0.75468 0.49248 0.0
C111 C 0.58122 0.73414 0.46755 0.0
N112 N 0.59887 0.76193 0.4908 0.0
O113 O 0.50096 0.63831 0.47602 0.0
H114 H 0.47336 0.7545 0.50216 0.0
H115 H 0.60698 0.71456 0.4522 0.0
O116 O 0.42382 0.70263 0.45941 0.0
C117 C 0.54286 0.61357 0.47289 0.0
O118 O 0.57663 0.62583 0.45137 0.0
N119 N 0.48807 0.7238 0.40886 0.0
C120 C 0.4908 0.7392 0.34548 0.0
C121 C 0.44261 0.73342 0.36071 0.0
C122 C 0.44207 0.72557 0.39241 0.0
C123 C 0.53451 0.73503 0.39484 0.0
C124 C 0.53668 0.74331 0.36319 0.0
H125 H 0.40548 0.71376 0.40251 0.0
H126 H 0.57117 0.7315 0.40696 0.0
H127 H 0.39254 0.61368 0.4452 0.0
H128 H 0.45811 0.55768 0.36363 0.0
H129 H 0.55545 0.79502 0.52795 0.0
H130 H 0.40622 0.7293 0.34796 0.0
H131 H 0.57468 0.74842 0.35234 0.0
C132 C 0.96301 0.8452 0.88769 0.0
C133 C 0.92852 0.87941 0.87687 0.0
N134 N 0.88902 0.88419 0.89739 0.0
N135 N 0.945 0.82789 0.91468 0.0
C136 C 0.90015 0.85272 0.92023 0.0
H137 H 0.99916 0.83372 0.8767 0.0
Co138 Co 0.98011 0.78238 0.93858 0.0
C139 C 0.8904 0.71976 0.95728 0.0
O140 O 0.91557 0.68192 0.94655 0.0
N141 N 1.0186 0.73867 0.96335 0.0
C142 C 0.04893 0.6933 1.00191 0.0
C143 C 1.00453 0.7116 0.98791 0.0
C144 C 0.07194 0.73763 0.96394 0.0
N145 N 0.09134 0.71009 0.98689 0.0
O146 O 0.98695 0.82919 0.96968 0.0
H147 H 0.96527 0.70833 0.99709 0.0
H148 H 0.09638 0.75862 0.94865 0.0
O149 O 0.9123 0.76116 0.95615 0.0
C150 C 1.0271 0.85535 0.96465 0.0
O151 O 0.05882 0.84393 0.94187 0.0
N152 N 0.97591 0.73856 0.90543 0.0
C153 C 0.97947 0.71331 0.84343 0.0
C154 C 0.93106 0.72121 0.85802 0.0
C155 C 0.93009 0.73399 0.88906 0.0
C156 C 1.02277 0.72622 0.89219 0.0
C157 C 1.02537 0.71294 0.86126 0.0
H158 H 0.89313 0.74634 0.89854 0.0
H159 H 0.05924 0.73231 0.9041 0.0
H160 H 0.87618 0.84781 0.9406 0.0
H161 H 0.93283 0.89997 0.85585 0.0
H162 H 0.04999 0.67237 0.02294 0.0
H163 H 0.89474 0.72185 0.84492 0.0
H164 H 0.06362 0.70773 0.8507 0.0
C165 C 0.58634 0.11353 0.89401 0.0
C166 C 0.61973 0.07568 0.8878 0.0
N167 N 0.65549 0.07268 0.9107 0.0
N168 N 0.60139 0.13473 0.92048 0.0
C169 C 0.64323 0.10878 0.93028 0.0
H170 H 0.55287 0.12468 0.88031 0.0
Co171 Co 0.56686 0.18552 0.94005 0.0
C172 C 0.66243 0.24243 0.959 0.0
O173 O 0.64652 0.2814 0.94455 0.0
N174 N 0.52928 0.23467 0.96054 0.0
C175 C 0.49877 0.28668 0.99536 0.0
C176 C 0.54331 0.26702 0.98229 0.0
C177 C 0.47598 0.23502 0.96139 0.0
N178 N 0.45633 0.26604 0.9824 0.0
O179 O 0.55362 0.14434 0.97349 0.0
H180 H 0.58267 0.27313 0.99062 0.0
H181 H 0.45194 0.21097 0.94785 0.0
O182 O 0.63364 0.20478 0.95893 0.0
C183 C 0.51391 0.11772 0.96836 0.0
O184 O 0.48611 0.12502 0.94325 0.0
N185 N 0.5774 0.22377 0.90489 0.0
C186 C 0.57951 0.23822 0.84148 0.0
C187 C 0.62646 0.23118 0.85784 0.0
C188 C 0.62455 0.22364 0.8896 0.0
C189 C 0.53223 0.23577 0.8897 0.0
C190 C 0.53247 0.24347 0.85799 0.0
H191 H 0.65998 0.2112 0.90087 0.0
H192 H 0.49473 0.23363 0.90118 0.0
H193 H 0.66414 0.11614 0.95145 0.0
H194 H 0.61702 0.05157 0.8683 0.0
H195 H 0.49788 0.31118 0.01473 0.0
H196 H 0.66352 0.2262 0.84587 0.0
H197 H 0.49542 0.24926 0.84615 0.0
C198 C 0.95525 0.63329 0.62638 0.0
C199 C 0.91793 0.60155 0.63677 0.0
N200 N 0.88243 0.59462 0.61412 0.0
N201 N 0.94302 0.64687 0.59744 0.0
C202 C 0.89868 0.62248 0.59047 0.0
H203 H 0.9899 0.64489 0.6388 0.0
Co204 Co 0.98501 0.68557 0.57269 0.0
C205 C 0.89669 0.74732 0.5463 0.0
O206 O 0.91401 0.78831 0.55743 0.0
N207 N 1.03012 0.72197 0.54785 0.0
C208 C 0.07173 0.76665 0.51301 0.0
C209 C 1.02408 0.7578 0.52713 0.0
C210 C 0.08145 0.70952 0.54558 0.0
N211 N 0.10775 0.7359 0.52455 0.0
O212 O 0.98949 0.63492 0.54393 0.0
H213 H 0.98753 0.77509 0.52114 0.0
H214 H 0.09898 0.68081 0.55894 0.0
O215 O 0.92228 0.7084 0.5511 0.0
C216 C 1.01801 0.59927 0.55162 0.0
O217 O 0.04491 0.60138 0.57746 0.0
N218 N 0.98183 0.73392 0.60275 0.0
C219 C 0.98189 0.7658 0.66338 0.0
C220 C 0.93457 0.7624 0.64702 0.0
C221 C 0.93528 0.7456 0.6168 0.0
C222 C 1.02852 0.74249 0.61723 0.0
C223 C 1.02946 0.75844 0.6477 0.0
H224 H 0.89813 0.7355 0.60664 0.0
H225 H 0.06504 0.73113 0.60675 0.0
H226 H 0.87941 0.6244 0.56827 0.0
H227 H 0.9182 0.58346 0.65885 0.0
H228 H 0.07861 0.79209 0.49458 0.0
H229 H 0.89703 0.76674 0.65857 0.0
H230 H 0.06676 0.76057 0.65974 0.0
C231 C 0.59627 0.35055 0.60714 0.0
C232 C 0.62585 0.3903 0.61439 0.0
N233 N 0.66367 0.39533 0.59283 0.0
N234 N 0.61567 0.3303 0.58135 0.0
C235 C 0.65644 0.35848 0.57301 0.0
H236 H 0.56204 0.33776 0.61946 0.0
Co237 Co 0.58537 0.27894 0.5609 0.0
C238 C 0.68021 0.22503 0.5387 0.0
O239 O 0.66175 0.18456 0.55001 0.0
N240 N 0.55144 0.22875 0.53965 0.0
C241 C 0.52212 0.18228 0.5015 0.0
C242 C 0.56531 0.20532 0.51355 0.0
C243 C 0.49916 0.22044 0.5422 0.0
N244 N 0.48029 0.19241 0.51935 0.0
O245 O 0.56922 0.32107 0.52821 0.0
H246 H 0.60232 0.20904 0.50163 0.0
H247 H 0.47429 0.23839 0.55882 0.0
O248 O 0.65332 0.2638 0.54142 0.0
C249 C 0.52635 0.34423 0.53174 0.0
O250 O 0.49397 0.33121 0.55379 0.0
N251 N 0.5996 0.24014 0.59547 0.0
C252 C 0.61096 0.22314 0.65856 0.0
C253 C 0.65529 0.22867 0.63965 0.0
C254 C 0.64875 0.23848 0.6084 0.0
C255 C 0.55648 0.22993 0.61294 0.0
C256 C 0.5612 0.2214 0.64448 0.0
H257 H 0.68289 0.25058 0.59589 0.0
H258 H 0.51757 0.23468 0.60358 0.0
H259 H 0.67989 0.3524 0.55258 0.0
H260 H 0.61895 0.41439 0.63356 0.0
H261 H 0.52048 0.16414 0.47945 0.0
H262 H 0.69461 0.22968 0.64928 0.0
H263 H 0.52553 0.21836 0.65798 0.0
H264 H 0.08748 0.06186 0.01086 0.0
H265 H 0.9199 0.06866 0.02674 0.0
H266 H 0.91022 -0.01386 0.00807 0.0
H267 H 0.9499 0.91166 0.98823 0.0
H268 H 0.11761 0.90504 0.97275 0.0
H269 H 0.12706 -0.01234 0.99106 0.0
C270 C 0.04875 0.04554 0.00966 0.0
C271 C 1.00435 0.07122 0.01973 0.0
C272 C 0.04374 -0.00215 0.99974 0.0
C273 C 0.95453 0.04944 0.01882 0.0
C274 C 0.94905 0.00225 0.00842 0.0
C275 C 0.98856 0.92813 0.98939 0.0
C276 C 0.03308 0.90242 0.97952 0.0
C277 C 0.9935 0.9759 0.99924 0.0
C278 C 0.08285 0.92429 0.98043 0.0
C279 C 0.08823 0.97154 0.99066 0.0
H280 H 0.5838 0.07204 0.00543 0.0
H281 H 0.42501 0.06395 0.97027 0.0
H282 H 0.41441 -0.01551 0.9933 0.0
H283 H 0.45162 0.916 0.02134 0.0
H284 H 0.61018 0.92391 0.05672 0.0
H285 H 0.61987 0.0047 0.03525 0.0
C286 C 0.54659 0.05322 1.0033 0.0
C287 C 0.50523 0.07365 0.98625 0.0
C288 C 0.54112 0.00726 0.01607 0.0
C289 C 0.45743 0.04875 0.98331 0.0
C290 C 0.45142 0.00327 0.99629 0.0
C291 C 0.48842 0.9353 0.02408 0.0
C292 C 0.53035 0.9141 0.04018 0.0
C293 C 0.49335 0.98184 0.01218 0.0
C294 C 0.57748 0.93966 0.0442 0.0
C295 C 0.58297 -0.01419 0.03208 0.0
H296 H 0.06852 0.51573 0.56458 0.0
H297 H 0.96326 0.58178 0.49872 0.0
H298 H 0.95835 0.5064 0.4701 0.0
H299 H 0.98546 0.4228 0.46317 0.0
H300 H 0.0923 0.35698 0.52822 0.0
H301 H 0.09424 0.43133 0.5582 0.0
C302 C 0.04461 0.51372 0.54392 0.0
C303 C 1.01658 0.55435 0.53367 0.0
C304 C 0.04183 0.47031 0.52765 0.0
C305 C 0.98551 0.55108 0.50698 0.0
C306 C 0.98248 0.50797 0.49067 0.0
C307 C 1.00874 0.42445 0.4841 0.0
C308 C 0.03869 0.38447 0.49347 0.0
C309 C 1.01055 0.46745 0.50079 0.0
C310 C 0.06883 0.3873 0.52055 0.0
C311 C 0.07018 0.42984 0.5376 0.0
H312 H 0.4643 0.55336 0.48985 0.0
H313 H 0.63346 0.56644 0.48607 0.0
H314 H 0.6433 0.48248 0.50174 0.0
H315 H 0.60385 0.40513 0.51513 0.0
H316 H 0.43483 0.39161 0.51967 0.0
H317 H 0.42467 0.47579 0.50407 0.0
C318 C 0.50325 0.53801 0.49309 0.0
C319 C 0.54815 0.56594 0.48721 0.0
C320 C 0.50855 0.48945 0.50131 0.0
C321 C 0.59841 0.5455 0.49073 0.0
C322 C 0.60404 0.49749 0.49939 0.0
C323 C 0.5648 0.42038 0.51217 0.0
C324 C 0.52009 0.39223 0.51802 0.0
C325 C 0.55939 0.46895 0.50422 0.0
C326 C 0.46974 0.41268 0.51491 0.0
C327 C 0.46395 0.46081 0.50631 0.0
H328 H 0.33085 0.92569 0.06637 0.0
H329 H 0.32208 0.90662 0.16488 0.0
H330 H 0.2505 0.96502 0.16772 0.0
H331 H 0.19201 0.02297 0.14256 0.0
H332 H 0.19827 0.04052 0.04386 0.0
H333 H 0.26924 0.98138 0.04081 0.0
C334 C 0.31284 0.93379 0.0884 0.0
C335 C 0.33215 0.9119 0.1154 0.0
C336 C 0.27145 0.96743 0.08988 0.0
C337 C 0.30869 0.92345 0.14381 0.0
C338 C 0.26752 0.9567 0.14544 0.0
C339 C 0.20833 0.0135 0.12031 0.0
C340 C 0.1898 0.03652 0.09355 0.0
C341 C 0.24886 0.97916 0.11868 0.0
C342 C 0.21222 0.02415 0.06496 0.0
C343 C 0.25264 -0.00999 0.06314 0.0
H344 H 0.23316 0.42807 0.36998 0.0
H345 H 0.2265 0.41472 0.46885 0.0
H346 H 0.29703 0.47398 0.47407 0.0
H347 H 0.36042 0.53018 0.45022 0.0
H348 H 0.36588 0.54278 0.35129 0.0
H349 H 0.29555 0.48365 0.34635 0.0
C350 C 0.24673 0.43844 0.39269 0.0
C351 C 0.22438 0.41714 0.41895 0.0
C352 C 0.28701 0.47253 0.39548 0.0
C353 C 0.24332 0.43021 0.44822 0.0
C354 C 0.28341 0.46434 0.45123 0.0
C355 C 0.34575 0.52022 0.42766 0.0
C356 C 0.36821 0.54079 0.40114 0.0
C357 C 0.30545 0.48587 0.42499 0.0
C358 C 0.34955 0.52705 0.37199 0.0
C359 C 0.30924 0.4934 0.36916 0.0
H360 H 0.83753 0.92767 0.94428 0.0
H361 H 0.84124 0.91426 0.84534 0.0
H362 H 0.76886 0.97165 0.84076 0.0
H363 H 0.70563 0.02673 0.86463 0.0
H364 H 0.70057 0.04031 0.96355 0.0
H365 H 0.77241 0.9821 0.96839 0.0
C366 C 0.82205 0.93695 0.92178 0.0
C367 C 0.84488 0.91676 0.89518 0.0
C368 C 0.78041 0.97026 0.91929 0.0
C369 C 0.82489 0.92972 0.86613 0.0
C370 C 0.78332 0.96239 0.86349 0.0
C371 C 0.71977 0.0166 0.88728 0.0
C372 C 0.69761 0.03796 0.91365 0.0
C373 C 0.76097 -0.01694 0.88988 0.0
C374 C 0.71726 0.02498 0.94281 0.0
C375 C 0.75816 -0.00858 0.94561 0.0
H376 H 0.7029 0.44625 0.64023 0.0
H377 H 0.7131 0.42876 0.54166 0.0
H378 H 0.78131 0.49042 0.53931 0.0
H379 H 0.83981 0.5478 0.5656 0.0
H380 H 0.82713 0.56635 0.664 0.0
H381 H 0.75768 0.50608 0.666 0.0
C382 C 0.71945 0.45629 0.61816 0.0
C383 C 0.70297 0.43261 0.59122 0.0
C384 C 0.75832 0.49196 0.61694 0.0
C385 C 0.72561 0.4457 0.56286 0.0
C386 C 0.7644 0.48124 0.56146 0.0
C387 C 0.82132 0.53921 0.5874 0.0
C388 C 0.83894 0.56142 0.61465 0.0
C389 C 0.7813 0.50441 0.5884 0.0
C390 C 0.81496 0.54928 0.64277 0.0
C391 C 0.77507 0.51494 0.64392 0.0
H392 H 0.23503 0.31208 0.04028 0.0
H393 H 0.20754 0.1647 0.0135 0.0
H394 H 0.29555 0.16023 0.99114 0.0
H395 H 0.38159 0.19696 0.98097 0.0
H396 H 0.40958 0.34407 0.00773 0.0
H397 H 0.32019 0.34974 0.0284 0.0
C398 C 0.2481 0.27903 0.02941 0.0
C399 C 0.21457 0.23875 0.02874 0.0
C400 C 0.29899 0.27659 0.01665 0.0
C401 C 0.2324 0.19625 0.01453 0.0
C402 C 0.28282 0.19363 1.00168 0.0
C403 C 0.36795 0.23056 0.99081 0.0
C404 C 0.40238 0.27012 0.99269 0.0
C405 C 0.31659 0.23345 1.0028 0.0
C406 C 0.38412 0.313 0.0062 0.0
C407 C 0.33295 0.31628 0.01796 0.0
H408 H 0.16737 0.77743 0.98333 0.0
H409 H 0.13708 0.63168 0.01191 0.0
H410 H 0.22798 0.6238 0.03009 0.0
H411 H 0.31493 0.65942 0.0396 0.0
H412 H 0.34399 0.8066 0.01308 0.0
H413 H 0.25496 0.8127 0.99203 0.0
C414 C 0.18093 0.74374 0.99311 0.0
C415 C 0.14563 0.70506 0.99616 0.0
C416 C 0.23298 0.7398 0.00394 0.0
C417 C 0.16347 0.66197 0.00951 0.0
C418 C 0.21542 0.65745 0.01981 0.0
C419 C 0.30204 0.6927 0.02893 0.0
C420 C 0.33625 0.73244 0.02787 0.0
C421 C 0.2504 0.69628 0.01741 0.0
C422 C 0.31855 0.77544 0.01424 0.0
C423 C 0.26758 0.77899 1.00221 0.0
H424 H 0.39985 0.25415 0.52877 0.0
H425 H 0.43873 0.11581 0.49003 0.0
H426 H 0.34859 0.10762 0.47066 0.0
H427 H 0.26051 0.14232 0.46205 0.0
H428 H 0.2232 0.28187 0.50004 0.0
H429 H 0.31082 0.28674 0.52273 0.0
C430 C 0.38837 0.2217 0.51673 0.0
C431 C 0.4259 0.18548 0.51096 0.0
C432 C 0.33685 0.21766 0.50531 0.0
C433 C 0.41055 0.14421 0.49461 0.0
C434 C 0.35908 0.13956 0.48356 0.0
C435 C 0.27133 0.17358 0.47556 0.0
C436 C 0.23534 0.21178 0.47912 0.0
C437 C 0.32213 0.17645 0.48831 0.0
C438 C 0.25015 0.25206 0.49668 0.0
C439 C 0.3003 0.2549 0.50972 0.0
H440 H 0.17206 0.80405 0.50171 0.0
H441 H 0.16513 0.65346 0.52503 0.0
H442 H 0.25579 0.64251 0.50759 0.0
H443 H 0.33696 0.67548 0.48475 0.0
H444 H 0.3432 0.82637 0.46149 0.0
H445 H 0.25318 0.83717 0.47958 0.0
C446 C 0.1903 0.76881 0.50283 0.0
C447 C 0.16171 0.72974 0.51472 0.0
C448 C 0.24249 0.76272 0.49269 0.0
C449 C 0.1863 0.68438 0.5164 0.0
C450 C 0.23813 0.67798 0.50623 0.0
C451 C 0.31868 0.71074 0.48369 0.0
C452 C 0.34702 0.74997 0.4717 0.0
C453 C 0.26663 0.71688 0.49425 0.0
C454 C 0.32256 0.79543 0.47058 0.0
C455 C 0.27092 0.80173 0.48091 0.0
H456 H 0.65855 0.66406 0.99666 0.0
H457 H 0.66181 0.8082 0.03308 0.0
H458 H 0.75277 0.81771 0.01574 0.0
H459 H 0.83092 0.78578 0.98872 0.0
H460 H 0.82765 0.64073 0.95327 0.0
H461 H 0.73759 0.63104 0.97153 0.0
C462 C 0.6793 0.69747 1.0008 0.0
C463 C 0.65345 0.73524 0.01617 0.0
C464 C 0.73168 0.70265 0.99081 0.0
C465 C 0.68097 0.77826 0.02169 0.0
C466 C 0.73291 0.78387 0.01156 0.0
C467 C 0.81055 0.75202 0.98507 0.0
C468 C 0.83615 0.71415 0.96953 0.0
C469 C 0.75861 0.74641 0.99591 0.0
C470 C 0.80913 0.67055 0.96517 0.0
C471 C 0.75746 0.66492 0.97557 0.0
H472 H 0.73749 0.31252 0.95916 0.0
H473 H 0.70558 0.16935 0.9928 0.0
H474 H 0.79351 0.16511 0.01523 0.0
H475 H 0.88072 0.20034 0.02329 0.0
H476 H 0.91353 0.34312 0.98969 0.0
H477 H 0.82401 0.3491 0.96912 0.0
C478 C 0.74957 0.2805 0.97158 0.0
C479 C 0.71486 0.24125 0.97412 0.0
C480 C 0.80046 0.27813 0.98433 0.0
C481 C 0.7314 0.20005 0.99029 0.0
C482 C 0.78176 0.19756 1.00318 0.0
C483 C 0.86813 0.23316 0.01201 0.0
C484 C 0.90389 0.27135 0.00816 0.0
C485 C 0.81677 0.23619 1.00011 0.0
C486 C 0.88697 0.31311 0.99277 0.0
C487 C 0.83575 0.31657 0.98107 0.0
H488 H 0.81959 0.8158 0.54599 0.0
H489 H 0.85577 0.67279 0.51334 0.0
H490 H 0.76729 0.66569 0.49193 0.0
H491 H 0.67832 0.69818 0.48489 0.0
H492 H 0.6404 0.83972 0.51889 0.0
H493 H 0.73084 0.84926 0.53758 0.0
C494 C 0.80834 0.7833 0.53388 0.0
C495 C 0.84436 0.74492 0.53127 0.0
C496 C 0.75696 0.77906 0.52209 0.0
C497 C 0.82887 0.70287 0.51575 0.0
C498 C 0.77822 0.69873 0.50352 0.0
C499 C 0.69005 0.73146 0.49589 0.0
C500 C 0.65279 0.76837 0.50034 0.0
C501 C 0.74178 0.73635 0.50686 0.0
C502 C 0.66835 0.81077 0.51536 0.0
C503 C 0.72003 0.81624 0.52595 0.0
H504 H 0.90416 0.26509 0.48098 0.0
H505 H 0.92355 0.11423 0.50124 0.0
H506 H 0.83294 0.11046 0.52013 0.0
H507 H 0.74947 0.15072 0.53263 0.0
H508 H 0.73048 0.30193 0.51269 0.0
H509 H 0.81952 0.30467 0.49157 0.0
C510 C 0.88836 0.23117 0.48899 0.0
C511 C 0.92068 0.18993 0.48964 0.0
C512 C 0.83635 0.22939 0.50002 0.0
C513 C 0.89969 0.14654 0.50075 0.0
C514 C 0.84785 0.14436 0.51148 0.0
C515 C 0.76461 0.18426 0.52351 0.0
C516 C 0.73326 0.2261 0.52442 0.0
C517 C 0.81602 0.18569 0.51155 0.0
C518 C 0.75369 0.2692 0.51245 0.0
C519 C 0.80467 0.27082 0.50034 0.0
H520 H 0.04584 0.18236 0.29954 0.0
H521 H 0.18128 0.27457 0.31064 0.0
H522 H 0.18351 0.28894 0.25547 0.0
H523 H 0.14502 0.27818 0.20391 0.0
H524 H 1.00659 0.18995 0.1935 0.0
H525 H 1.00622 0.17324 0.24857 0.0
C526 C 0.07571 0.20585 0.29002 0.0
C527 C 0.11352 0.22681 0.30949 0.0
C528 C 0.07562 0.21569 0.25832 0.0
C529 C 0.15238 0.25664 0.29639 0.0
C530 C 0.1533 0.2656 0.26476 0.0
C531 C 0.11471 0.25549 0.21379 0.0
C532 C 0.07554 0.23594 0.1947 0.0
C533 C 0.11481 0.24573 0.24554 0.0
C534 C 0.03649 0.20649 0.20778 0.0
C535 C 0.03658 0.19638 0.23923 0.0
H536 H 0.52458 0.67447 0.20764 0.0
H537 H 0.38688 0.76416 0.19532 0.0
H538 H 0.38483 0.78114 0.25012 0.0
H539 H 0.42418 0.77394 0.30146 0.0
H540 H 0.56338 0.68651 0.31369 0.0
H541 H 0.56425 0.66765 0.25893 0.0
C542 C 0.49409 0.69771 0.21689 0.0
C543 C 0.45567 0.71733 0.19719 0.0
C544 C 0.49415 0.70901 0.24841 0.0
C545 C 0.41619 0.74714 0.20983 0.0
C546 C 0.41541 0.75769 0.24121 0.0
C547 C 0.45475 0.75085 0.29211 0.0
C548 C 0.49395 0.73225 0.31164 0.0
C549 C 0.45455 0.73933 0.26065 0.0
C550 C 0.53344 0.70245 0.29911 0.0
C551 C 0.53358 0.691 0.26783 0.0
H552 H 1.03021 0.70337 0.7015 0.0
H553 H 0.92758 0.8272 0.70101 0.0
H554 H 0.91601 0.82022 0.75689 0.0
H555 H 0.93412 0.778 0.80539 0.0
H556 H 0.03586 0.6535 0.80575 0.0
H557 H 0.04877 0.66146 0.75006 0.0
C558 C 1.00627 0.72947 0.71377 0.0
C559 C 0.98048 0.76629 0.6974 0.0
C560 C 0.99898 0.72453 0.74559 0.0
C561 C 0.94821 0.79895 0.71331 0.0
C562 C 0.94135 0.79474 0.74512 0.0
C563 C 0.95834 0.75208 0.79316 0.0
C564 C 0.98336 0.71471 0.80946 0.0
C565 C 0.96602 0.7573 0.76138 0.0
C566 C 1.01593 0.68227 0.79356 0.0
C567 C 1.02348 0.68697 0.76183 0.0
H568 H 0.55066 0.17903 0.70245 0.0
H569 H 0.68086 0.27749 0.69187 0.0
H570 H 0.68333 0.29015 0.74719 0.0
H571 H 0.64569 0.27684 0.7987 0.0
H572 H 0.51177 0.18294 0.80863 0.0
H573 H 0.51222 0.16686 0.75345 0.0
C574 C 0.57946 0.20347 0.71211 0.0
C575 C 0.61565 0.22682 0.69272 0.0
C576 C 0.57931 0.21241 0.74392 0.0
C577 C 0.65324 0.25779 0.70602 0.0
C578 C 0.65425 0.26577 0.73775 0.0
C579 C 0.61658 0.25302 0.78869 0.0
C580 C 0.57835 0.23172 0.80763 0.0
C581 C 0.61703 0.24381 0.75688 0.0
C582 C 0.54086 0.20076 0.79442 0.0
C583 C 0.54143 0.19107 0.76292 0.0
loop_
_geom_bond_atom_site_label_1
_geom_bond_atom_site_label_2
_geom_bond_distance
_geom_bond_site_symmetry_2
_ccdc_geom_bond_type
C0 C1 1.351 . S
C0 N3 1.368 . S
C0 H5 0.931 . S
C1 C0 1.351 . S
C1 N2 1.373 . S
C1 H29 0.930 . S
N2 C1 1.373 . S
N2 C4 1.340 . S
N3 C0 1.368 . S
N3 C4 1.321 . S
N3 Co6 2.135 . S
C4 N2 1.340 . S
C4 N3 1.321 . S
C4 H28 0.930 . S
H5 C0 0.931 . S
Co6 N3 2.135 . S
Co6 N9 2.121 . S
Co6 O14 2.055 . S
Co6 O17 2.039 . S
Co6 N20 2.140 . S
C7 O8 1.227 . S
C7 O17 1.265 . S
O8 C7 1.227 . S
N9 Co6 2.121 . S
N9 C11 1.375 . S
N9 C12 1.313 1_455 S
C10 C11 1.338 1_655 S
C10 N13 1.377 . S
C10 H30 0.930 . S
C11 N9 1.375 . S
C11 C10 1.338 1_455 S
C11 H15 0.931 . S
C12 N9 1.313 1_655 S
C12 N13 1.344 . S
C12 H16 0.930 . S
N13 C10 1.377 . S
N13 C12 1.344 . S
O14 Co6 2.055 . S
O14 C18 1.253 . S
H15 C11 0.931 . S
H16 C12 0.930 . S
O17 Co6 2.039 . S
O17 C7 1.265 . S
C18 O14 1.253 . S
C18 O19 1.227 1_455 S
O19 C18 1.227 1_655 S
N20 Co6 2.140 . S
N20 C23 1.346 . S
N20 C24 1.345 . S
C21 C22 1.387 . S
C21 C25 1.391 . S
C22 C21 1.387 . S
C22 C23 1.369 . S
C22 H31 0.929 . S
C23 N20 1.346 . S
C23 C22 1.369 . S
C23 H26 0.928 . S
C24 N20 1.345 . S
C24 C25 1.371 . S
C24 H27 0.931 1_455 S
C25 C21 1.391 . S
C25 C24 1.371 . S
C25 H32 0.930 1_455 S
H26 C23 0.928 . S
H27 C24 0.931 1_655 S
H28 C4 0.930 . S
H29 C1 0.930 . S
H30 C10 0.930 . S
H31 C22 0.929 . S
H32 C25 0.930 1_655 S
C33 C34 1.351 . S
C33 N36 1.368 . S
C33 H38 0.931 . S
C34 C33 1.351 . S
C34 N35 1.373 . S
C34 H62 0.930 . S
N35 C34 1.373 . S
N35 C37 1.340 . S
N36 C33 1.368 . S
N36 C37 1.321 . S
N36 Co39 2.135 . S
C37 N35 1.340 . S
C37 N36 1.321 . S
C37 H61 0.930 . S
H38 C33 0.931 . S
Co39 N36 2.135 . S
Co39 N42 2.121 . S
Co39 O47 2.055 . S
Co39 O50 2.039 . S
Co39 N53 2.140 . S
C40 O41 1.227 . S
C40 O50 1.265 . S
O41 C40 1.227 . S
N42 Co39 2.121 . S
N42 C44 1.375 . S
N42 C45 1.313 . S
C43 C44 1.338 . S
C43 N46 1.377 . S
C43 H63 0.930 . S
C44 N42 1.375 . S
C44 C43 1.338 . S
C44 H48 0.931 . S
C45 N42 1.313 . S
C45 N46 1.344 . S
C45 H49 0.930 . S
N46 C43 1.377 . S
N46 C45 1.344 . S
O47 Co39 2.055 . S
O47 C51 1.253 . S
H48 C44 0.931 . S
H49 C45 0.930 . S
O50 Co39 2.039 . S
O50 C40 1.265 . S
C51 O47 1.253 . S
C51 O52 1.227 . S
O52 C51 1.227 . S
N53 Co39 2.140 . S
N53 C56 1.346 . S
N53 C57 1.345 . S
C54 C55 1.387 . S
C54 C58 1.391 . S
C55 C54 1.387 . S
C55 C56 1.369 . S
C55 H64 0.929 . S
C56 N53 1.346 . S
C56 C55 1.369 . S
C56 H59 0.928 . S
C57 N53 1.345 . S
C57 C58 1.371 . S
C57 H60 0.931 . S
C58 C54 1.391 . S
C58 C57 1.371 . S
C58 H65 0.930 . S
H59 C56 0.928 . S
H60 C57 0.931 . S
H61 C37 0.930 . S
H62 C34 0.930 . S
H63 C43 0.930 . S
H64 C55 0.929 . S
H65 C58 0.930 . S
C66 C67 1.351 . S
C66 N69 1.368 . S
C66 H71 0.931 . S
C67 C66 1.351 . S
C67 N68 1.373 . S
C67 H95 0.930 . S
N68 C67 1.373 . S
N68 C70 1.340 . S
N69 C66 1.368 . S
N69 C70 1.321 . S
N69 Co72 2.135 . S
C70 N68 1.340 . S
C70 N69 1.321 . S
C70 H94 0.930 . S
H71 C66 0.931 . S
Co72 N69 2.135 . S
Co72 N75 2.121 . S
Co72 O80 2.055 . S
Co72 O83 2.039 . S
Co72 N86 2.140 . S
C73 O74 1.227 . S
C73 O83 1.265 . S
O74 C73 1.227 . S
N75 Co72 2.121 . S
N75 C77 1.375 . S
N75 C78 1.313 1_455 S
C76 C77 1.338 1_655 S
C76 N79 1.377 . S
C76 H96 0.930 . S
C77 N75 1.375 . S
C77 C76 1.338 1_455 S
C77 H81 0.931 . S
C78 N75 1.313 1_655 S
C78 N79 1.344 . S
C78 H82 0.930 . S
N79 C76 1.377 . S
N79 C78 1.344 . S
O80 Co72 2.055 . S
O80 C84 1.253 . S
H81 C77 0.931 . S
H82 C78 0.930 . S
O83 Co72 2.039 . S
O83 C73 1.265 . S
C84 O80 1.253 . S
C84 O85 1.227 1_455 S
O85 C84 1.227 1_655 S
N86 Co72 2.140 . S
N86 C89 1.346 . S
N86 C90 1.345 . S
C87 C88 1.387 . S
C87 C91 1.391 . S
C88 C87 1.387 . S
C88 C89 1.369 . S
C88 H97 0.929 . S
C89 N86 1.346 . S
C89 C88 1.369 . S
C89 H92 0.928 . S
C90 N86 1.345 . S
C90 C91 1.371 . S
C90 H93 0.931 1_455 S
C91 C87 1.391 . S
C91 C90 1.371 . S
C91 H98 0.930 1_455 S
H92 C89 0.928 . S
H93 C90 0.931 1_655 S
H94 C70 0.930 . S
H95 C67 0.930 . S
H96 C76 0.930 . S
H97 C88 0.929 . S
H98 C91 0.930 1_655 S
C99 C100 1.351 . S
C99 N102 1.368 . S
C99 H104 0.931 . S
C100 C99 1.351 . S
C100 N101 1.373 . S
C100 H128 0.930 . S
N101 C100 1.373 . S
N101 C103 1.340 . S
N102 C99 1.368 . S
N102 C103 1.321 . S
N102 Co105 2.135 . S
C103 N101 1.340 . S
C103 N102 1.321 . S
C103 H127 0.930 . S
H104 C99 0.931 . S
Co105 N102 2.135 . S
Co105 N108 2.121 . S
Co105 O113 2.055 . S
Co105 O116 2.039 . S
Co105 N119 2.140 . S
C106 O107 1.227 . S
C106 O116 1.265 . S
O107 C106 1.227 . S
N108 Co105 2.121 . S
N108 C110 1.375 . S
N108 C111 1.313 . S
C109 C110 1.338 . S
C109 N112 1.377 . S
C109 H129 0.930 . S
C110 N108 1.375 . S
C110 C109 1.338 . S
C110 H114 0.931 . S
C111 N108 1.313 . S
C111 N112 1.344 . S
C111 H115 0.930 . S
N112 C109 1.377 . S
N112 C111 1.344 . S
O113 Co105 2.055 . S
O113 C117 1.253 . S
H114 C110 0.931 . S
H115 C111 0.930 . S
O116 Co105 2.039 . S
O116 C106 1.265 . S
C117 O113 1.253 . S
C117 O118 1.227 . S
O118 C117 1.227 . S
N119 Co105 2.140 . S
N119 C122 1.346 . S
N119 C123 1.345 . S
C120 C121 1.387 . S
C120 C124 1.391 . S
C121 C120 1.387 . S
C121 C122 1.369 . S
C121 H130 0.929 . S
C122 N119 1.346 . S
C122 C121 1.369 . S
C122 H125 0.928 . S
C123 N119 1.345 . S
C123 C124 1.371 . S
C123 H126 0.931 . S
C124 C120 1.391 . S
C124 C123 1.371 . S
C124 H131 0.930 . S
H125 C122 0.928 . S
H126 C123 0.931 . S
H127 C103 0.930 . S
H128 C100 0.930 . S
H129 C109 0.930 . S
H130 C121 0.929 . S
H131 C124 0.930 . S
C132 C133 1.351 . S
C132 N135 1.368 . S
C132 H137 0.931 . S
C133 C132 1.351 . S
C133 N134 1.373 . S
C133 H161 0.930 . S
N134 C133 1.373 . S
N134 C136 1.340 . S
N135 C132 1.368 . S
N135 C136 1.321 . S
N135 Co138 2.135 . S
C136 N134 1.340 . S
C136 N135 1.321 . S
C136 H160 0.930 . S
H137 C132 0.931 . S
Co138 N135 2.135 . S
Co138 N141 2.121 . S
Co138 O146 2.055 . S
Co138 O149 2.039 . S
Co138 N152 2.140 . S
C139 O140 1.227 . S
C139 O149 1.265 . S
O140 C139 1.227 . S
N141 Co138 2.121 . S
N141 C143 1.375 . S
N141 C144 1.313 1_655 S
C142 C143 1.338 1_455 S
C142 N145 1.377 . S
C142 H162 0.930 . S
C143 N141 1.375 . S
C143 C142 1.338 1_655 S
C143 H147 0.931 . S
C144 N141 1.313 1_455 S
C144 N145 1.344 . S
C144 H148 0.930 . S
N145 C142 1.377 . S
N145 C144 1.344 . S
O146 Co138 2.055 . S
O146 C150 1.253 . S
H147 C143 0.931 . S
H148 C144 0.930 . S
O149 Co138 2.039 . S
O149 C139 1.265 . S
C150 O146 1.253 . S
C150 O151 1.227 1_655 S
O151 C150 1.227 1_455 S
N152 Co138 2.140 . S
N152 C155 1.346 . S
N152 C156 1.345 . S
C153 C154 1.387 . S
C153 C157 1.391 . S
C154 C153 1.387 . S
C154 C155 1.369 . S
C154 H163 0.929 . S
C155 N152 1.346 . S
C155 C154 1.369 . S
C155 H158 0.928 . S
C156 N152 1.345 . S
C156 C157 1.371 . S
C156 H159 0.931 1_655 S
C157 C153 1.391 . S
C157 C156 1.371 . S
C157 H164 0.930 1_655 S
H158 C155 0.928 . S
H159 C156 0.931 1_455 S
H160 C136 0.930 . S
H161 C133 0.930 . S
H162 C142 0.930 . S
H163 C154 0.929 . S
H164 C157 0.930 1_455 S
C165 C166 1.351 . S
C165 N168 1.368 . S
C165 H170 0.931 . S
C166 C165 1.351 . S
C166 N167 1.373 . S
C166 H194 0.930 . S
N167 C166 1.373 . S
N167 C169 1.340 . S
N168 C165 1.368 . S
N168 C169 1.321 . S
N168 Co171 2.135 . S
C169 N167 1.340 . S
C169 N168 1.321 . S
C169 H193 0.930 . S
H170 C165 0.931 . S
Co171 N168 2.135 . S
Co171 N174 2.121 . S
Co171 O179 2.055 . S
Co171 O182 2.039 . S
Co171 N185 2.140 . S
C172 O173 1.227 . S
C172 O182 1.265 . S
O173 C172 1.227 . S
N174 Co171 2.121 . S
N174 C176 1.375 . S
N174 C177 1.313 . S
C175 C176 1.338 . S
C175 N178 1.377 . S
C175 H195 0.930 . S
C176 N174 1.375 . S
C176 C175 1.338 . S
C176 H180 0.931 . S
C177 N174 1.313 . S
C177 N178 1.344 . S
C177 H181 0.930 . S
N178 C175 1.377 . S
N178 C177 1.344 . S
O179 Co171 2.055 . S
O179 C183 1.253 . S
H180 C176 0.931 . S
H181 C177 0.930 . S
O182 Co171 2.039 . S
O182 C172 1.265 . S
C183 O179 1.253 . S
C183 O184 1.227 . S
O184 C183 1.227 . S
N185 Co171 2.140 . S
N185 C188 1.346 . S
N185 C189 1.345 . S
C186 C187 1.387 . S
C186 C190 1.391 . S
C187 C186 1.387 . S
C187 C188 1.369 . S
C187 H196 0.929 . S
C188 N185 1.346 . S
C188 C187 1.369 . S
C188 H191 0.928 . S
C189 N185 1.345 . S
C189 C190 1.371 . S
C189 H192 0.931 . S
C190 C186 1.391 . S
C190 C189 1.371 . S
C190 H197 0.930 . S
H191 C188 0.928 . S
H192 C189 0.931 . S
H193 C169 0.930 . S
H194 C166 0.930 . S
H195 C175 0.930 . S
H196 C187 0.929 . S
H197 C190 0.930 . S
C198 C199 1.351 . S
C198 N201 1.368 . S
C198 H203 0.931 . S
C199 C198 1.351 . S
C199 N200 1.373 . S
C199 H227 0.930 . S
N200 C199 1.373 . S
N200 C202 1.340 . S
N201 C198 1.368 . S
N201 C202 1.321 . S
N201 Co204 2.135 . S
C202 N200 1.340 . S
C202 N201 1.321 . S
C202 H226 0.930 . S
H203 C198 0.931 . S
Co204 N201 2.135 . S
Co204 N207 2.121 . S
Co204 O212 2.055 . S
Co204 O215 2.039 . S
Co204 N218 2.140 . S
C205 O206 1.227 . S
C205 O215 1.265 . S
O206 C205 1.227 . S
N207 Co204 2.121 . S
N207 C209 1.375 . S
N207 C210 1.313 1_655 S
C208 C209 1.338 1_455 S
C208 N211 1.377 . S
C208 H228 0.930 . S
C209 N207 1.375 . S
C209 C208 1.338 1_655 S
C209 H213 0.931 . S
C210 N207 1.313 1_455 S
C210 N211 1.344 . S
C210 H214 0.930 . S
N211 C208 1.377 . S
N211 C210 1.344 . S
O212 Co204 2.055 . S
O212 C216 1.253 . S
H213 C209 0.931 . S
H214 C210 0.930 . S
O215 Co204 2.039 . S
O215 C205 1.265 . S
C216 O212 1.253 . S
C216 O217 1.227 1_655 S
O217 C216 1.227 1_455 S
N218 Co204 2.140 . S
N218 C221 1.346 . S
N218 C222 1.345 . S
C219 C220 1.387 . S
C219 C223 1.391 . S
C220 C219 1.387 . S
C220 C221 1.369 . S
C220 H229 0.929 . S
C221 N218 1.346 . S
C221 C220 1.369 . S
C221 H224 0.928 . S
C222 N218 1.345 . S
C222 C223 1.371 . S
C222 H225 0.931 1_655 S
C223 C219 1.391 . S
C223 C222 1.371 . S
C223 H230 0.930 1_655 S
H224 C221 0.928 . S
H225 C222 0.931 1_455 S
H226 C202 0.930 . S
H227 C199 0.930 . S
H228 C208 0.930 . S
H229 C220 0.929 . S
H230 C223 0.930 1_455 S
C231 C232 1.351 . S
C231 N234 1.368 . S
C231 H236 0.931 . S
C232 C231 1.351 . S
C232 N233 1.373 . S
C232 H260 0.930 . S
N233 C232 1.373 . S
N233 C235 1.340 . S
N234 C231 1.368 . S
N234 C235 1.321 . S
N234 Co237 2.135 . S
C235 N233 1.340 . S
C235 N234 1.321 . S
C235 H259 0.930 . S
H236 C231 0.931 . S
Co237 N234 2.135 . S
Co237 N240 2.121 . S
Co237 O245 2.055 . S
Co237 O248 2.039 . S
Co237 N251 2.140 . S
C238 O239 1.227 . S
C238 O248 1.265 . S
O239 C238 1.227 . S
N240 Co237 2.121 . S
N240 C242 1.375 . S
N240 C243 1.313 . S
C241 C242 1.338 . S
C241 N244 1.377 . S
C241 H261 0.930 . S
C242 N240 1.375 . S
C242 C241 1.338 . S
C242 H246 0.931 . S
C243 N240 1.313 . S
C243 N244 1.344 . S
C243 H247 0.930 . S
N244 C241 1.377 . S
N244 C243 1.344 . S
O245 Co237 2.055 . S
O245 C249 1.253 . S
H246 C242 0.931 . S
H247 C243 0.930 . S
O248 Co237 2.039 . S
O248 C238 1.265 . S
C249 O245 1.253 . S
C249 O250 1.227 . S
O250 C249 1.227 . S
N251 Co237 2.140 . S
N251 C254 1.346 . S
N251 C255 1.345 . S
C252 C253 1.387 . S
C252 C256 1.391 . S
C253 C252 1.387 . S
C253 C254 1.369 . S
C253 H262 0.929 . S
C254 N251 1.346 . S
C254 C253 1.369 . S
C254 H257 0.928 . S
C255 N251 1.345 . S
C255 C256 1.371 . S
C255 H258 0.931 . S
C256 C252 1.391 . S
C256 C255 1.371 . S
C256 H263 0.930 . S
H257 C254 0.928 . S
H258 C255 0.931 . S
H259 C235 0.930 . S
H260 C232 0.930 . S
H261 C241 0.930 . S
H262 C253 0.929 . S
H263 C256 0.930 . S
H264 C270 0.930 1_556 S
H265 C273 0.930 . S
H266 C274 0.931 1_565 S
H267 C275 0.930 1_554 S
H268 C278 0.930 . S
H269 C279 0.931 1_545 S
C270 H264 0.930 1_554 S
C270 C271 1.355 1_455 S
C270 C272 1.415 1_554 S
C271 C270 1.355 1_655 S
C271 C273 1.419 . S
C272 C270 1.415 1_556 S
C272 C277 1.425 1_446 S
C272 C279 1.409 1_545 S
C273 H265 0.930 . S
C273 C271 1.419 . S
C273 C274 1.362 . S
C274 H266 0.931 1_545 S
C274 C273 1.362 . S
C274 C277 1.409 1_545 S
C275 H267 0.930 1_556 S
C275 C276 1.355 1_655 S
C275 C277 1.415 1_556 S
C276 C275 1.355 1_455 S
C276 C278 1.419 . S
C277 C272 1.425 1_664 S
C277 C274 1.409 1_565 S
C277 C275 1.415 1_554 S
C278 H268 0.930 . S
C278 C276 1.419 . S
C278 C279 1.362 . S
C279 H269 0.931 1_565 S
C279 C272 1.409 1_565 S
C279 C278 1.362 . S
H280 C286 0.930 . S
H281 C289 0.930 . S
H282 C290 0.930 . S
H283 C291 0.930 . S
H284 C294 0.930 . S
H285 C295 0.930 . S
C286 H280 0.930 . S
C286 C287 1.355 . S
C286 C288 1.415 . S
C287 C286 1.355 . S
C287 C289 1.419 . S
C288 C286 1.415 . S
C288 C293 1.425 1_546 S
C288 C295 1.409 1_546 S
C289 H281 0.930 . S
C289 C287 1.419 . S
C289 C290 1.362 . S
C290 H282 0.930 . S
C290 C289 1.362 . S
C290 C293 1.409 1_546 S
C291 H283 0.930 . S
C291 C292 1.355 . S
C291 C293 1.415 . S
C292 C291 1.355 . S
C292 C294 1.419 . S
C293 C288 1.425 1_564 S
C293 C290 1.409 1_564 S
C293 C291 1.415 . S
C294 H284 0.930 . S
C294 C292 1.419 . S
C294 C295 1.362 . S
C295 H285 0.930 . S
C295 C288 1.409 1_564 S
C295 C294 1.362 . S
H296 C302 0.930 . S
H297 C305 0.930 . S
H298 C306 0.930 . S
H299 C307 0.930 . S
H300 C310 0.930 . S
H301 C311 0.930 . S
C302 H296 0.930 . S
C302 C303 1.369 . S
C302 C304 1.415 . S
C303 C302 1.369 . S
C303 C305 1.400 1_455 S
C304 C302 1.415 . S
C304 C309 1.425 1_455 S
C304 C311 1.409 . S
C305 H297 0.930 . S
C305 C303 1.400 1_655 S
C305 C306 1.362 . S
C306 H298 0.930 . S
C306 C305 1.362 . S
C306 C309 1.409 . S
C307 H299 0.930 . S
C307 C308 1.369 . S
C307 C309 1.415 . S
C308 C307 1.369 . S
C308 C310 1.400 1_655 S
C309 C304 1.425 1_655 S
C309 C306 1.409 . S
C309 C307 1.415 . S
C310 H300 0.930 . S
C310 C308 1.400 1_455 S
C310 C311 1.362 . S
C311 H301 0.930 . S
C311 C304 1.409 . S
C311 C310 1.362 . S
H312 C318 0.930 . S
H313 C321 0.930 . S
H314 C322 0.930 . S
H315 C323 0.930 . S
H316 C326 0.930 . S
H317 C327 0.930 . S
C318 H312 0.930 . S
C318 C319 1.355 . S
C318 C320 1.415 . S
C319 C318 1.355 . S
C319 C321 1.419 . S
C320 C318 1.415 . S
C320 C325 1.425 . S
C320 C327 1.409 . S
C321 H313 0.930 . S
C321 C319 1.419 . S
C321 C322 1.362 . S
C322 H314 0.930 . S
C322 C321 1.362 . S
C322 C325 1.409 . S
C323 H315 0.930 . S
C323 C324 1.355 . S
C323 C325 1.415 . S
C324 C323 1.355 . S
C324 C326 1.419 . S
C325 C320 1.425 . S
C325 C322 1.409 . S
C325 C323 1.415 . S
C326 H316 0.930 . S
C326 C324 1.419 . S
C326 C327 1.362 . S
C327 H317 0.930 . S
C327 C320 1.409 . S
C327 C326 1.362 . S
H328 C334 0.930 . S
H329 C337 0.930 . S
H330 C338 0.930 . S
H331 C339 0.930 . S
H332 C342 0.930 . S
H333 C343 0.930 . S
C334 H328 0.930 . S
C334 C335 1.355 . S
C334 C336 1.415 . S
C335 C334 1.355 . S
C335 C337 1.419 . S
C336 C334 1.415 . S
C336 C341 1.425 1_565 S
C336 C343 1.409 1_565 S
C337 H329 0.930 . S
C337 C335 1.419 . S
C337 C338 1.362 . S
C338 H330 0.930 . S
C338 C337 1.362 . S
C338 C341 1.409 1_565 S
C339 H331 0.930 . S
C339 C340 1.355 . S
C339 C341 1.415 . S
C340 C339 1.355 . S
C340 C342 1.419 . S
C341 C336 1.425 1_545 S
C341 C338 1.409 1_545 S
C341 C339 1.415 . S
C342 H332 0.930 . S
C342 C340 1.419 . S
C342 C343 1.362 . S
C343 H333 0.930 . S
C343 C336 1.409 1_545 S
C343 C342 1.362 . S
H344 C350 0.930 . S
H345 C353 0.930 . S
H346 C354 0.930 . S
H347 C355 0.930 . S
H348 C358 0.930 . S
H349 C359 0.930 . S
C350 H344 0.930 . S
C350 C351 1.355 . S
C350 C352 1.415 . S
C351 C350 1.355 . S
C351 C353 1.419 . S
C352 C350 1.415 . S
C352 C357 1.425 . S
C352 C359 1.409 . S
C353 H345 0.930 . S
C353 C351 1.419 . S
C353 C354 1.362 . S
C354 H346 0.930 . S
C354 C353 1.362 . S
C354 C357 1.409 . S
C355 H347 0.930 . S
C355 C356 1.355 . S
C355 C357 1.415 . S
C356 C355 1.355 . S
C356 C358 1.419 . S
C357 C352 1.425 . S
C357 C354 1.409 . S
C357 C355 1.415 . S
C358 H348 0.930 . S
C358 C356 1.419 . S
C358 C359 1.362 . S
C359 H349 0.930 . S
C359 C352 1.409 . S
C359 C358 1.362 . S
H360 C366 0.930 . S
H361 C369 0.930 . S
H362 C370 0.930 . S
H363 C371 0.930 . S
H364 C374 0.930 . S
H365 C375 0.930 . S
C366 H360 0.930 . S
C366 C367 1.355 . S
C366 C368 1.415 . S
C367 C366 1.355 . S
C367 C369 1.419 . S
C368 C366 1.415 . S
C368 C373 1.425 1_565 S
C368 C375 1.409 1_565 S
C369 H361 0.930 . S
C369 C367 1.419 . S
C369 C370 1.362 . S
C370 H362 0.930 . S
C370 C369 1.362 . S
C370 C373 1.409 1_565 S
C371 H363 0.930 . S
C371 C372 1.355 . S
C371 C373 1.415 . S
C372 C371 1.355 . S
C372 C374 1.419 . S
C373 C368 1.425 1_545 S
C373 C370 1.409 1_545 S
C373 C371 1.415 . S
C374 H364 0.930 . S
C374 C372 1.419 . S
C374 C375 1.362 . S
C375 H365 0.930 . S
C375 C368 1.409 1_545 S
C375 C374 1.362 . S
H376 C382 0.930 . S
H377 C385 0.930 . S
H378 C386 0.930 . S
H379 C387 0.930 . S
H380 C390 0.930 . S
H381 C391 0.930 . S
C382 H376 0.930 . S
C382 C383 1.355 . S
C382 C384 1.415 . S
C383 C382 1.355 . S
C383 C385 1.419 . S
C384 C382 1.415 . S
C384 C389 1.425 . S
C384 C391 1.409 . S
C385 H377 0.930 . S
C385 C383 1.419 . S
C385 C386 1.362 . S
C386 H378 0.930 . S
C386 C385 1.362 . S
C386 C389 1.409 . S
C387 H379 0.930 . S
C387 C388 1.355 . S
C387 C389 1.415 . S
C388 C387 1.355 . S
C388 C390 1.419 . S
C389 C384 1.425 . S
C389 C386 1.409 . S
C389 C387 1.415 . S
C390 H380 0.930 . S
C390 C388 1.419 . S
C390 C391 1.362 . S
C391 H381 0.930 . S
C391 C384 1.409 . S
C391 C390 1.362 . S
H392 C398 0.930 . S
H393 C401 0.930 . S
H394 C402 0.930 . S
H395 C403 0.930 . S
H396 C406 0.930 . S
H397 C407 0.930 . S
C398 H392 0.930 . S
C398 C399 1.355 1_556 S
C398 C400 1.415 . S
C399 C398 1.355 1_554 S
C399 C401 1.419 . S
C400 C398 1.415 . S
C400 C405 1.425 1_556 S
C400 C407 1.409 . S
C401 H393 0.930 . S
C401 C399 1.419 . S
C401 C402 1.362 . S
C402 H394 0.930 . S
C402 C401 1.362 . S
C402 C405 1.409 . S
C403 H395 0.930 . S
C403 C404 1.355 1_554 S
C403 C405 1.415 . S
C404 C403 1.355 1_556 S
C404 C406 1.419 . S
C405 C400 1.425 1_554 S
C405 C402 1.409 . S
C405 C403 1.415 . S
C406 H396 0.930 . S
C406 C404 1.419 . S
C406 C407 1.362 . S
C407 H397 0.930 . S
C407 C400 1.409 . S
C407 C406 1.362 . S
H408 C414 0.930 . S
H409 C417 0.930 . S
H410 C418 0.930 . S
H411 C419 0.930 . S
H412 C422 0.930 . S
H413 C423 0.930 . S
C414 H408 0.930 . S
C414 C415 1.355 . S
C414 C416 1.415 . S
C415 C414 1.355 . S
C415 C417 1.419 1_556 S
C416 C414 1.415 . S
C416 C421 1.425 1_556 S
C416 C423 1.409 . S
C417 H409 0.930 . S
C417 C415 1.419 1_554 S
C417 C418 1.362 . S
C418 H410 0.930 . S
C418 C417 1.362 . S
C418 C421 1.409 . S
C419 H411 0.930 . S
C419 C420 1.355 . S
C419 C421 1.415 . S
C420 C419 1.355 . S
C420 C422 1.419 1_554 S
C421 C416 1.425 1_554 S
C421 C418 1.409 . S
C421 C419 1.415 . S
C422 H412 0.930 . S
C422 C420 1.419 1_556 S
C422 C423 1.362 . S
C423 H413 0.930 . S
C423 C416 1.409 . S
C423 C422 1.362 . S
H424 C430 0.930 . S
H425 C433 0.930 . S
H426 C434 0.930 . S
H427 C435 0.930 . S
H428 C438 0.930 . S
H429 C439 0.930 . S
C430 H424 0.930 . S
C430 C431 1.355 . S
C430 C432 1.415 . S
C431 C430 1.355 . S
C431 C433 1.419 . S
C432 C430 1.415 . S
C432 C437 1.425 . S
C432 C439 1.409 . S
C433 H425 0.930 . S
C433 C431 1.419 . S
C433 C434 1.362 . S
C434 H426 0.930 . S
C434 C433 1.362 . S
C434 C437 1.409 . S
C435 H427 0.930 . S
C435 C436 1.355 . S
C435 C437 1.415 . S
C436 C435 1.355 . S
C436 C438 1.419 . S
C437 C432 1.425 . S
C437 C434 1.409 . S
C437 C435 1.415 . S
C438 H428 0.930 . S
C438 C436 1.419 . S
C438 C439 1.362 . S
C439 H429 0.930 . S
C439 C432 1.409 . S
C439 C438 1.362 . S
H440 C446 0.930 . S
H441 C449 0.930 . S
H442 C450 0.930 . S
H443 C451 0.930 . S
H444 C454 0.930 . S
H445 C455 0.930 . S
C446 H440 0.930 . S
C446 C447 1.355 . S
C446 C448 1.415 . S
C447 C446 1.355 . S
C447 C449 1.419 . S
C448 C446 1.415 . S
C448 C453 1.425 . S
C448 C455 1.409 . S
C449 H441 0.930 . S
C449 C447 1.419 . S
C449 C450 1.362 . S
C450 H442 0.930 . S
C450 C449 1.362 . S
C450 C453 1.409 . S
C451 H443 0.930 . S
C451 C452 1.355 . S
C451 C453 1.415 . S
C452 C451 1.355 . S
C452 C454 1.419 . S
C453 C448 1.425 . S
C453 C450 1.409 . S
C453 C451 1.415 . S
C454 H444 0.930 . S
C454 C452 1.419 . S
C454 C455 1.362 . S
C455 H445 0.930 . S
C455 C448 1.409 . S
C455 C454 1.362 . S
H456 C462 0.930 . S
H457 C465 0.930 . S
H458 C466 0.929 1_556 S
H459 C467 0.930 . S
H460 C470 0.930 . S
H461 C471 0.930 . S
C462 H456 0.930 . S
C462 C463 1.355 . S
C462 C464 1.411 1_554 S
C463 C462 1.355 . S
C463 C465 1.419 . S
C464 C462 1.411 1_556 S
C464 C469 1.427 . S
C464 C471 1.411 . S
C465 H457 0.930 . S
C465 C463 1.419 . S
C465 C466 1.362 . S
C466 H458 0.929 1_554 S
C466 C465 1.362 . S
C466 C469 1.409 1_554 S
C467 H459 0.930 . S
C467 C468 1.355 . S
C467 C469 1.415 . S
C468 C467 1.355 . S
C468 C470 1.419 . S
C469 C464 1.427 . S
C469 C466 1.409 1_556 S
C469 C467 1.415 . S
C470 H460 0.930 . S
C470 C468 1.419 . S
C470 C471 1.362 . S
C471 H461 0.930 . S
C471 C464 1.411 . S
C471 C470 1.362 . S
H472 C478 0.930 . S
H473 C481 0.930 . S
H474 C482 0.930 . S
H475 C483 0.930 . S
H476 C486 0.930 . S
H477 C487 0.930 . S
C478 H472 0.930 . S
C478 C479 1.355 . S
C478 C480 1.415 . S
C479 C478 1.355 . S
C479 C481 1.419 1_556 S
C480 C478 1.415 . S
C480 C485 1.425 1_556 S
C480 C487 1.409 . S
C481 H473 0.930 . S
C481 C479 1.419 1_554 S
C481 C482 1.362 . S
C482 H474 0.930 . S
C482 C481 1.362 . S
C482 C485 1.409 . S
C483 H475 0.930 . S
C483 C484 1.355 . S
C483 C485 1.415 . S
C484 C483 1.355 . S
C484 C486 1.419 1_554 S
C485 C480 1.425 1_554 S
C485 C482 1.409 . S
C485 C483 1.415 . S
C486 H476 0.930 . S
C486 C484 1.419 1_556 S
C486 C487 1.362 . S
C487 H477 0.930 . S
C487 C480 1.409 . S
C487 C486 1.362 . S
H488 C494 0.930 . S
H489 C497 0.930 . S
H490 C498 0.930 . S
H491 C499 0.930 . S
H492 C502 0.930 . S
H493 C503 0.930 . S
C494 H488 0.930 . S
C494 C495 1.355 . S
C494 C496 1.415 . S
C495 C494 1.355 . S
C495 C497 1.419 . S
C496 C494 1.415 . S
C496 C501 1.425 . S
C496 C503 1.409 . S
C497 H489 0.930 . S
C497 C495 1.419 . S
C497 C498 1.362 . S
C498 H490 0.930 . S
C498 C497 1.362 . S
C498 C501 1.409 . S
C499 H491 0.930 . S
C499 C500 1.355 . S
C499 C501 1.415 . S
C500 C499 1.355 . S
C500 C502 1.419 . S
C501 C496 1.425 . S
C501 C498 1.409 . S
C501 C499 1.415 . S
C502 H492 0.930 . S
C502 C500 1.419 . S
C502 C503 1.362 . S
C503 H493 0.930 . S
C503 C496 1.409 . S
C503 C502 1.362 . S
H504 C510 0.930 . S
H505 C513 0.930 . S
H506 C514 0.930 . S
H507 C515 0.930 . S
H508 C518 0.930 . S
H509 C519 0.930 . S
C510 H504 0.930 . S
C510 C511 1.355 . S
C510 C512 1.415 . S
C511 C510 1.355 . S
C511 C513 1.419 . S
C512 C510 1.415 . S
C512 C517 1.425 . S
C512 C519 1.409 . S
C513 H505 0.930 . S
C513 C511 1.419 . S
C513 C514 1.362 . S
C514 H506 0.930 . S
C514 C513 1.362 . S
C514 C517 1.409 . S
C515 H507 0.930 . S
C515 C516 1.355 . S
C515 C517 1.415 . S
C516 C515 1.355 . S
C516 C518 1.419 . S
C517 C512 1.425 . S
C517 C514 1.409 . S
C517 C515 1.415 . S
C518 H508 0.930 . S
C518 C516 1.419 . S
C518 C519 1.362 . S
C519 H509 0.930 . S
C519 C512 1.409 . S
C519 C518 1.362 . S
H520 C526 0.930 1_655 S
H521 C529 0.930 . S
H522 C530 0.930 . S
H523 C531 0.930 . S
H524 C534 0.930 1_655 S
H525 C535 0.930 . S
C526 H520 0.930 1_455 S
C526 C527 1.355 . S
C526 C528 1.415 . S
C527 C526 1.355 . S
C527 C529 1.419 . S
C528 C526 1.415 . S
C528 C533 1.425 . S
C528 C535 1.409 1_455 S
C529 H521 0.930 . S
C529 C527 1.419 . S
C529 C530 1.362 . S
C530 H522 0.930 . S
C530 C529 1.362 . S
C530 C533 1.409 . S
C531 H523 0.930 . S
C531 C532 1.355 . S
C531 C533 1.415 . S
C532 C531 1.355 . S
C532 C534 1.419 . S
C533 C528 1.425 . S
C533 C530 1.409 . S
C533 C531 1.415 . S
C534 H524 0.930 1_455 S
C534 C532 1.419 . S
C534 C535 1.362 1_455 S
C535 H525 0.930 . S
C535 C528 1.409 1_655 S
C535 C534 1.362 1_655 S
H536 C542 0.930 . S
H537 C545 0.930 . S
H538 C546 0.930 . S
H539 C547 0.930 . S
H540 C550 0.930 . S
H541 C551 0.930 . S
C542 H536 0.930 . S
C542 C543 1.355 . S
C542 C544 1.415 . S
C543 C542 1.355 . S
C543 C545 1.419 . S
C544 C542 1.415 . S
C544 C549 1.425 . S
C544 C551 1.409 . S
C545 H537 0.930 . S
C545 C543 1.419 . S
C545 C546 1.362 . S
C546 H538 0.930 . S
C546 C545 1.362 . S
C546 C549 1.409 . S
C547 H539 0.930 . S
C547 C548 1.355 . S
C547 C549 1.415 . S
C548 C547 1.355 . S
C548 C550 1.419 . S
C549 C544 1.425 . S
C549 C546 1.409 . S
C549 C547 1.415 . S
C550 H540 0.930 . S
C550 C548 1.419 . S
C550 C551 1.362 . S
C551 H541 0.930 . S
C551 C544 1.409 . S
C551 C550 1.362 . S
H552 C558 0.930 . S
H553 C561 0.930 . S
H554 C562 0.930 . S
H555 C563 0.930 . S
H556 C566 0.930 . S
H557 C567 0.930 . S
C558 H552 0.930 . S
C558 C559 1.355 . S
C558 C560 1.415 . S
C559 C558 1.355 . S
C559 C561 1.419 . S
C560 C558 1.415 . S
C560 C565 1.425 . S
C560 C567 1.409 . S
C561 H553 0.930 . S
C561 C559 1.419 . S
C561 C562 1.362 . S
C562 H554 0.930 . S
C562 C561 1.362 . S
C562 C565 1.409 . S
C563 H555 0.930 . S
C563 C564 1.355 . S
C563 C565 1.415 . S
C564 C563 1.355 . S
C564 C566 1.419 . S
C565 C560 1.425 . S
C565 C562 1.409 . S
C565 C563 1.415 . S
C566 H556 0.930 . S
C566 C564 1.419 . S
C566 C567 1.362 . S
C567 H557 0.930 . S
C567 C560 1.409 . S
C567 C566 1.362 . S
H568 C574 0.930 . S
H569 C577 0.930 . S
H570 C578 0.930 . S
H571 C579 0.930 . S
H572 C582 0.930 . S
H573 C583 0.930 . S
C574 H568 0.930 . S
C574 C575 1.355 . S
C574 C576 1.415 . S
C575 C574 1.355 . S
C575 C577 1.419 . S
C576 C574 1.415 . S
C576 C581 1.425 . S
C576 C583 1.409 . S
C577 H569 0.930 . S
C577 C575 1.419 . S
C577 C578 1.362 . S
C578 H570 0.930 . S
C578 C577 1.362 . S
C578 C581 1.409 . S
C579 H571 0.930 . S
C579 C580 1.355 . S
C579 C581 1.415 . S
C580 C579 1.355 . S
C580 C582 1.419 . S
C581 C576 1.425 . S
C581 C578 1.409 . S
C581 C579 1.415 . S
C582 H572 0.930 . S
C582 C580 1.419 . S
C582 C583 1.362 . S
C583 H573 0.930 . S
C583 C576 1.409 . S
C583 C582 1.362 . S
C271 C18 1.235 1_655 S
C276 C150 1.235 1_455 S
C287 C183 1.234 . S
C292 C51 1.234 . S
C303 C216 1.135 1_455 S
C308 C84 1.135 1_655 S
C319 C117 1.201 . S
C324 C249 1.201 . S
C335 N35 0.864 . S
C340 N2 0.807 . S
C351 N68 0.653 . S
C356 N101 0.695 . S
C367 N134 0.853 . S
C372 N167 0.789 . S
C383 N233 0.661 . S
C388 N200 0.717 . S
C399 C7 1.759 . S
C404 N178 1.888 . S
C415 N145 1.888 . S
C420 C40 1.810 . S
C431 N244 1.896 . S
C436 C73 1.758 . S
C447 N211 1.875 . S
C452 C106 1.786 . S
C463 N46 1.870 . S
C468 C139 1.810 . S
C479 C172 1.796 . S
C484 N13 1.893 . S
C495 C205 1.775 . S
C500 N112 1.897 . S
C511 N79 1.884 . S
C516 C238 1.819 . S
C527 C87 1.477 . S
C532 C21 1.493 . S
C543 C54 1.480 . S
C548 C120 1.498 . S
C559 C219 1.499 . S
C564 C153 1.511 . S
C575 C252 1.466 . S
C580 C186 1.475 . S
