# Generated by pormake.
# Topology rac, (4)-cn, num edge types: 1
# Building blocks:
#     Node 0, Type 0, BuildingBlock: ICAMEG_clean_sbu_1, # of connection points: 4
#     Node 1, Type 0, BuildingBlock: ICAMEG_clean_sbu_1, # of connection points: 4
#     Node 2, Type 0, BuildingBlock: ICAMEG_clean_sbu_1, # of connection points: 4
#     Node 3, Type 0, BuildingBlock: ICAMEG_clean_sbu_1, # of connection points: 4
#     Node 4, Type 0, BuildingBlock: ICAMEG_clean_sbu_1, # of connection points: 4
#     Node 5, Type 0, BuildingBlock: ICAMEG_clean_sbu_1, # of connection points: 4
#     Node 6, Type 0, BuildingBlock: ICAMEG_clean_sbu_1, # of connection points: 4
#     Node 7, Type 0, BuildingBlock: ICAMEG_clean_sbu_1, # of connection points: 4
#     Edge 8, Type (0, 0), None
#     Edge 9, Type (0, 0), None
#     Edge 10, Type (0, 0), None
#     Edge 11, Type (0, 0), None
#     Edge 12, Type (0, 0), None
#     Edge 13, Type (0, 0), None
#     Edge 14, Type (0, 0), None
#     Edge 15, Type (0, 0), None
#     Edge 16, Type (0, 0), None
#     Edge 17, Type (0, 0), None
#     Edge 18, Type (0, 0), None
#     Edge 19, Type (0, 0), None
#     Edge 20, Type (0, 0), None
#     Edge 21, Type (0, 0), None
#     Edge 22, Type (0, 0), None
#     Edge 23, Type (0, 0), None
# Relax obj value: 0.281
# Max RMSD: 0.149
# Mean RMSD: 0.149
data_MOF--net-rac--node1-ICAMEG_clean_sbu_1--edge1-none
_symmetry_space_group_name_H-M    P1
_symmetry_Int_Tables_number       1
_symmetry_cell_setting            triclinic
loop_
_symmetry_equiv_pos_as_xyz
'x, y, z'
_cell_length_a     21.21857
_cell_length_b     10.575775
_cell_length_c     25.341675
_cell_angle_alpha  90.048354
_cell_angle_beta   90.000071
_cell_angle_gamma 90.011835
loop_
_atom_site_label
_atom_site_type_symbol
_atom_site_fract_x
_atom_site_fract_y
_atom_site_fract_z
_atom_type_partial_charge
Co0 Co 0.33328 0.2151 0.04516 0.0
Co1 Co 0.3926 0.20498 -0.08773 0.0
O2 O 0.40093 0.19894 -0.00898 0.0
C3 C 0.36686 0.1367 0.15149 0.0
O4 O 0.38129 0.05138 0.18593 0.0
C5 C 0.52136 0.38522 -0.08377 0.0
O6 O 0.55914 0.30906 -0.05827 0.0
O7 O 0.3344 0.35258 -0.08677 0.0
O8 O 0.29714 0.33253 -0.00538 0.0
H9 H 0.26817 0.15951 0.74625 0.0
H10 H 0.4684 0.11708 0.07816 0.0
O11 O 0.36346 0.10468 0.10297 0.0
H12 H 0.50436 0.55153 0.01749 0.0
H13 H 0.13575 0.37237 0.13022 0.0
H14 H 0.23337 0.00342 0.05184 0.0
H15 H 0.40001 0.45674 0.00657 0.0
H16 H 0.25202 0.37378 0.10567 0.0
O17 O 0.46402 0.34798 0.90473 0.0
H18 H 0.28323 0.20676 0.84069 0.0
H19 H 0.48163 0.19821 0.82155 0.0
H20 H 0.12232 -0.00133 0.07184 0.0
H21 H 0.56971 0.21526 0.09245 0.0
H22 H 0.07178 0.18984 0.10827 0.0
H23 H 0.58993 0.43258 0.06061 0.0
O24 O 0.32318 0.04946 0.0048 0.0
H25 H 0.52426 0.90813 0.0093 0.0
H26 H 0.3929 -0.03433 0.85129 0.0
H27 H 0.41073 0.75302 0.88495 0.0
H28 H 0.4723 0.72313 -0.0327 0.0
H29 H 0.50743 0.11932 -0.02745 0.0
H30 H 0.46858 0.15057 0.72631 0.0
H31 H 0.36162 0.12183 0.68959 0.0
O32 O 0.3187 0.07635 -0.082 0.0
C33 C 0.29804 0.38608 -0.04984 0.0
C34 C 0.31524 0.16927 0.76222 0.0
C35 C 0.42797 0.16481 0.75113 0.0
N36 N 0.3834 0.20276 0.83642 0.0
C37 C 0.32408 0.19648 0.81556 0.0
C38 C 0.43505 0.19251 0.80471 0.0
C39 C 0.36769 0.15 0.73024 0.0
C40 C 0.47385 0.21246 0.06458 0.0
N41 N 0.42563 0.27302 0.03607 0.0
C42 C 0.53293 0.26737 0.07238 0.0
C43 C 0.54428 0.3891 0.05472 0.0
C44 C 0.49637 0.45536 0.02994 0.0
C45 C 0.43694 0.40003 0.02355 0.0
C46 C 0.15814 0.2943 0.11049 0.0
C47 C 0.21324 0.08696 0.06578 0.0
C48 C 0.22238 0.2942 0.09747 0.0
N49 N 0.24846 0.19343 0.07287 0.0
C50 C 0.14935 0.0838 0.07762 0.0
C51 C 0.12113 0.1904 0.09821 0.0
C52 C 0.30467 0.01177 -0.04069 0.0
C53 C 0.49647 0.91974 -0.02616 0.0
C54 C 0.4251 -0.04559 0.88394 0.0
C55 C 0.43336 0.83271 0.90392 0.0
C56 C 0.46763 0.81605 -0.04979 0.0
N57 N 0.44751 0.05765 -0.08921 0.0
C58 C 0.48754 0.03979 -0.0477 0.0
Co59 Co 0.23575 0.68286 0.04707 0.0
Co60 Co 0.17536 0.6981 -0.08681 0.0
O61 O 0.1681 0.70339 -0.00756 0.0
C62 C 0.2054 0.7684 0.15196 0.0
O63 O 0.19789 0.85332 0.18812 0.0
C64 C 0.04627 0.51855 -0.08235 0.0
O65 O 1.00963 0.59386 -0.05522 0.0
O66 O 0.23486 0.55182 -0.08592 0.0
O67 O 0.26923 0.55882 -0.00258 0.0
H68 H 0.29723 0.74392 0.74588 0.0
H69 H 0.10203 0.78692 0.07987 0.0
O70 O 0.20711 0.80178 0.10334 0.0
H71 H 0.06484 0.34933 0.02294 0.0
H72 H 0.4438 0.53026 0.11681 0.0
H73 H 0.31793 0.90227 0.07852 0.0
H74 H 0.16933 0.44218 0.01179 0.0
H75 H 0.3307 0.50844 0.08507 0.0
O76 O 0.10376 0.55481 0.90589 0.0
H77 H 0.28369 0.69615 0.84041 0.0
H78 H 0.08504 0.70308 0.8233 0.0
H79 H 0.43309 0.92335 0.09181 0.0
H80 H 1.00035 0.69017 0.0953 0.0
H81 H 0.49553 0.73456 0.11018 0.0
H82 H 0.97964 0.47115 0.06544 0.0
O83 O 0.25925 0.83473 0.00353 0.0
H84 H 0.03832 -0.00395 0.00729 0.0
H85 H 0.17361 0.93645 0.85181 0.0
H86 H 0.15232 0.14991 0.88315 0.0
H87 H 0.08828 0.18156 -0.03597 0.0
H88 H 0.0615 0.78339 -0.02523 0.0
H89 H 0.09648 0.75263 0.72819 0.0
H90 H 0.20287 0.78199 0.69035 0.0
O91 O 0.24783 0.82999 -0.08304 0.0
C92 C 0.26849 0.51051 -0.04834 0.0
C93 C 0.25043 0.73375 0.76233 0.0
C94 C 0.13753 0.73791 0.75247 0.0
N95 N 0.18345 0.69955 0.83721 0.0
C96 C 0.24244 0.70615 0.81572 0.0
C97 C 0.13134 0.70939 0.80603 0.0
C98 C 0.19747 0.75321 0.73097 0.0
C99 C 0.09594 0.69102 0.06675 0.0
N100 N 0.14356 0.62856 0.03829 0.0
C101 C 0.03686 0.63686 0.07541 0.0
C102 C 1.0253 0.51408 0.05893 0.0
C103 C 0.07305 0.446 0.03472 0.0
C104 C 0.13229 0.50103 0.02729 0.0
C105 C 0.41652 0.60981 0.10359 0.0
C106 C 0.34627 0.81945 0.08166 0.0
C107 C 0.35322 0.59875 0.08858 0.0
N108 N 0.31964 0.70282 0.07593 0.0
C109 C 0.41073 0.83243 0.09061 0.0
C110 C 0.44626 0.72598 0.10056 0.0
C111 C 0.26843 0.88505 -0.04144 0.0
C112 C 0.06769 -0.01629 -0.02721 0.0
C113 C 0.14126 0.94768 0.88436 0.0
C114 C 0.13087 0.07007 0.90289 0.0
C115 C 0.09523 0.08769 -0.05166 0.0
N116 N 0.12 0.84467 -0.08798 0.0
C117 C 0.07997 0.86264 -0.0465 0.0
Co118 Co 0.33323 0.19006 0.27482 0.0
Co119 Co 0.3927 0.20019 0.40766 0.0
O120 O 0.40095 0.20625 0.32891 0.0
C121 C 0.36682 0.26819 0.16846 0.0
O122 O 0.38111 0.3535 0.13398 0.0
C123 C 0.52147 0.02001 0.40367 0.0
O124 O 0.55926 0.09618 0.37817 0.0
O125 O 0.33452 0.05256 0.4067 0.0
O126 O 0.29703 0.07273 0.32538 0.0
H127 H 0.26834 0.24556 0.57371 0.0
H128 H 0.46838 0.28794 0.24174 0.0
O129 O 0.36342 0.30029 0.21697 0.0
H130 H 0.50423 0.85357 0.30249 0.0
H131 H 0.1365 0.03239 0.18871 0.0
H132 H 0.23268 0.4009 0.26889 0.0
H133 H 0.3999 0.94838 0.3134 0.0
H134 H 0.25268 0.0321 0.21344 0.0
O135 O 0.46413 0.05723 0.41517 0.0
H136 H 0.28337 0.19821 0.47927 0.0
H137 H 0.48178 0.20708 0.49835 0.0
H138 H 0.12189 0.40521 0.24796 0.0
H139 H 0.56966 0.18972 0.22745 0.0
H140 H 0.07202 0.21417 0.21069 0.0
H141 H 0.58982 -0.02756 0.25934 0.0
O142 O 0.3231 0.35571 0.31516 0.0
H143 H 0.52433 0.49708 0.31057 0.0
H144 H 0.39305 0.43949 0.46863 0.0
H145 H 0.41084 0.65214 0.43495 0.0
H146 H 0.47237 0.68204 0.35257 0.0
H147 H 0.5075 0.28588 0.34735 0.0
H148 H 0.46875 0.25495 0.59358 0.0
H149 H 0.36181 0.28354 0.63032 0.0
O150 O 0.3188 0.3288 0.40198 0.0
C151 C 0.29806 0.01911 0.36982 0.0
C152 C 0.31541 0.23585 0.55772 0.0
C153 C 0.42813 0.24055 0.56878 0.0
N154 N 0.38354 0.20237 0.48351 0.0
C155 C 0.32423 0.20858 0.50438 0.0
C156 C 0.4352 0.21274 0.5152 0.0
C157 C 0.36786 0.25529 0.58968 0.0
C158 C 0.47381 0.19259 0.25535 0.0
N159 N 0.42557 0.1321 0.2839 0.0
C160 C 0.53287 0.13765 0.24754 0.0
C161 C 0.54418 0.01594 0.26524 0.0
C162 C 0.49626 0.94974 0.29003 0.0
C163 C 0.43685 0.00508 0.29642 0.0
C164 C 0.15859 0.11047 0.20869 0.0
C165 C 0.21292 0.31753 0.25437 0.0
C166 C 0.22276 0.11108 0.22192 0.0
N167 N 0.24844 0.21158 0.24701 0.0
C168 C 0.14913 0.32041 0.24208 0.0
C169 C 0.1213 0.21391 0.22101 0.0
C170 C 0.30473 0.39342 0.36069 0.0
C171 C 0.49655 0.48546 0.34604 0.0
C172 C 0.42523 0.45077 0.43598 0.0
C173 C 0.43346 0.57246 0.41598 0.0
C174 C 0.46771 0.58912 0.36968 0.0
N175 N 0.44762 0.34754 0.40912 0.0
C176 C 0.48762 0.36541 0.36759 0.0
Co177 Co 0.2357 0.72212 0.273 0.0
Co178 Co 0.17543 0.70714 0.40688 0.0
O179 O 0.16806 0.70197 0.32766 0.0
C180 C 0.20518 0.63623 0.16825 0.0
O181 O 0.19707 0.55136 0.13217 0.0
C182 C 0.04642 0.88681 0.40234 0.0
O183 O 1.00984 0.81164 0.37506 0.0
O184 O 0.23493 0.8534 0.40593 0.0
O185 O 0.26931 0.84628 0.32257 0.0
H186 H 0.29751 0.66148 0.57409 0.0
H187 H 0.10183 0.61809 0.24045 0.0
O188 O 0.20689 0.60298 0.21688 0.0
H189 H 0.06526 0.05642 0.29668 0.0
H190 H 0.44381 0.87442 0.20322 0.0
H191 H 0.31759 0.50258 0.2414 0.0
H192 H 0.16963 -0.0368 0.30791 0.0
H193 H 0.33071 0.89645 0.2349 0.0
O194 O 0.10385 0.85042 0.41422 0.0
H195 H 0.28384 0.70911 0.47956 0.0
H196 H 0.08521 0.70227 0.49687 0.0
H197 H 0.43285 0.48137 0.22824 0.0
H198 H 1.00027 0.71524 0.22486 0.0
H199 H 0.49542 0.67001 0.20996 0.0
H200 H 0.97989 0.93463 0.25437 0.0
O201 O 0.25926 0.57037 0.31652 0.0
H202 H 0.03853 0.409 0.31277 0.0
H203 H 0.17368 0.46886 0.46832 0.0
H204 H 0.15254 0.25537 0.43694 0.0
H205 H 0.08861 0.22359 0.356 0.0
H206 H 0.06154 0.62168 0.34536 0.0
H207 H 0.09678 0.65294 0.592 0.0
H208 H 0.20322 0.62357 0.62973 0.0
O209 O 0.2479 0.57522 0.40309 0.0
C210 C 0.26856 0.89465 0.36834 0.0
C211 C 0.25068 0.67163 0.55768 0.0
C212 C 0.1378 0.66755 0.56766 0.0
N213 N 0.18361 0.70571 0.48286 0.0
C214 C 0.24262 0.69913 0.50429 0.0
C215 C 0.13154 0.69595 0.5141 0.0
C216 C 0.19776 0.65226 0.5891 0.0
C217 C 0.09588 0.71419 0.25338 0.0
N218 N 0.14358 0.77669 0.28174 0.0
C219 C 0.03687 0.76856 0.24465 0.0
C220 C 1.02548 0.89154 0.26094 0.0
C221 C 0.07334 -0.04039 0.28504 0.0
C222 C 0.13249 0.90437 0.29255 0.0
C223 C 0.41647 0.79491 0.21644 0.0
C224 C 0.34604 0.58535 0.23828 0.0
C225 C 0.35316 0.80608 0.2314 0.0
N226 N 0.31951 0.70205 0.24403 0.0
C227 C 0.41051 0.57229 0.2294 0.0
C228 C 0.44613 0.67869 0.2195 0.0
C229 C 0.26847 0.52012 0.36148 0.0
C230 C 0.06789 0.42139 0.34728 0.0
C231 C 0.14136 0.45756 0.43575 0.0
C232 C 0.13105 0.33516 0.4172 0.0
C233 C 0.09548 0.31747 0.37172 0.0
N234 N 0.12006 0.56054 0.40809 0.0
C235 C 0.08007 0.54247 0.3666 0.0
Co236 Co 0.73346 0.6901 0.77479 0.0
Co237 Co 0.67404 0.70024 0.90765 0.0
O238 O 0.66576 0.70627 0.8289 0.0
C239 C 0.69991 0.76827 0.66844 0.0
O240 O 0.68558 0.85357 0.63397 0.0
C241 C 0.54527 0.52003 0.90367 0.0
O242 O 0.50749 0.59619 0.87816 0.0
O243 O 0.73222 0.55262 0.9067 0.0
O244 O 0.76963 0.57276 0.82535 0.0
H245 H 0.79845 0.74575 0.07367 0.0
H246 H 0.59833 0.78796 0.74172 0.0
O247 O 0.70329 0.80036 0.71695 0.0
H248 H 0.56241 0.35357 0.80247 0.0
H249 H 0.93051 0.53265 0.6891 0.0
H250 H 0.83378 0.90129 0.7686 0.0
H251 H 0.66676 0.44841 0.81339 0.0
H252 H 0.81429 0.53189 0.71376 0.0
O253 O 0.60261 0.55727 -0.08482 0.0
H254 H 0.78339 0.69831 -0.02075 0.0
H255 H 0.58499 0.7072 -0.00165 0.0
H256 H 0.94467 0.90582 0.74803 0.0
H257 H 0.49704 0.68973 0.72744 0.0
H258 H 0.99479 0.71475 0.71106 0.0
H259 H 0.47685 0.47243 0.75932 0.0
O260 O 0.74357 0.85575 0.81514 0.0
H261 H 0.54238 -0.00291 0.81059 0.0
H262 H 0.67374 0.93957 -0.03139 0.0
H263 H 0.6559 0.15222 -0.06505 0.0
H264 H 0.59434 0.18209 0.8526 0.0
H265 H 0.55925 0.78589 0.84734 0.0
H266 H 0.59804 0.75518 0.09357 0.0
H267 H 0.705 0.78379 0.1303 0.0
O268 O 0.74795 0.82886 0.90195 0.0
C269 C 0.76864 0.51916 0.8698 0.0
C270 C 0.75138 0.73602 0.0577 0.0
C271 C 0.63865 0.74074 0.06877 0.0
N272 N 0.68322 0.70247 -0.0165 0.0
C273 C 0.74253 0.7087 0.00436 0.0
C274 C 0.63157 0.71287 0.0152 0.0
C275 C 0.69893 0.7555 0.08966 0.0
C276 C 0.59289 0.69261 0.75533 0.0
N277 N 0.64112 0.63212 0.78387 0.0
C278 C 0.53382 0.63766 0.74753 0.0
C279 C 0.52249 0.51595 0.76522 0.0
C280 C 0.5704 0.44975 0.79001 0.0
C281 C 0.62982 0.5051 0.7964 0.0
C282 C 0.9083 0.61072 0.70899 0.0
C283 C 0.85368 0.81787 0.7543 0.0
C284 C 0.8441 0.61111 0.72213 0.0
N285 N 0.81827 0.71171 0.74704 0.0
C286 C 0.91751 0.82089 0.74218 0.0
C287 C 0.94548 0.71436 0.72129 0.0
C288 C 0.762 0.89346 0.86065 0.0
C289 C 0.57018 -0.01452 0.84605 0.0
C290 C 0.64154 0.95083 -0.06404 0.0
C291 C 0.63328 0.07252 -0.08402 0.0
C292 C 0.59902 0.08917 0.86969 0.0
N293 N 0.61915 0.84759 0.9091 0.0
C294 C 0.57912 0.86543 0.86759 0.0
Co295 Co 0.831 0.22228 0.77296 0.0
Co296 Co 0.89127 0.20721 0.90685 0.0
O297 O 0.89862 0.20201 0.82762 0.0
C298 C 0.86148 0.13651 0.66817 0.0
O299 O 0.8694 0.05161 0.63207 0.0
C300 C 1.02031 0.38681 0.90237 0.0
O301 O 0.05692 0.31157 0.87516 0.0
O302 O 0.83178 0.35347 0.9059 0.0
O303 O 0.79742 0.34637 0.82255 0.0
H304 H 0.76909 0.16163 0.07401 0.0
H305 H 0.96483 0.11832 0.74034 0.0
O306 O 0.85976 0.10323 0.71679 0.0
H307 H 1.0016 0.5564 0.79685 0.0
H308 H 0.6229 0.37456 0.7032 0.0
H309 H 0.74902 0.00274 0.74138 0.0
H310 H 0.89717 0.46324 0.80802 0.0
H311 H 0.736 0.39658 0.7349 0.0
O312 O 0.96286 0.35049 -0.08581 0.0
H313 H 0.78283 0.20925 -0.02051 0.0
H314 H 0.98145 0.2022 -0.00312 0.0
H315 H 0.6338 -0.01851 0.72819 0.0
H316 H 0.06644 0.21539 0.72484 0.0
H317 H 0.57125 0.17015 0.7099 0.0
H318 H 0.08692 0.43465 0.75449 0.0
O319 O 0.80745 0.07047 0.81647 0.0
H320 H 1.02824 0.90916 0.81278 0.0
H321 H 0.89298 -0.0311 -0.03173 0.0
H322 H 0.91419 0.75543 -0.06307 0.0
H323 H 0.97818 0.72371 0.85603 0.0
H324 H 1.00514 0.12182 0.84533 0.0
H325 H 0.9698 0.15289 0.09201 0.0
H326 H 0.86332 0.12363 0.12969 0.0
O327 O 0.81879 0.07529 0.90304 0.0
C328 C 0.79816 0.39472 0.86832 0.0
C329 C 0.81593 0.17173 0.05762 0.0
C330 C 0.9288 0.16755 0.06765 0.0
N331 N 0.88306 0.20576 -0.01717 0.0
C332 C 0.82403 0.19924 0.00424 0.0
C333 C 0.93512 0.19594 0.01409 0.0
C334 C 0.86882 0.15232 0.08907 0.0
C335 C 0.97082 0.21435 0.75335 0.0
N336 N 0.92314 0.2768 0.78173 0.0
C337 C 1.02986 0.26868 0.74466 0.0
C338 C 0.0413 0.39159 0.76102 0.0
C339 C 0.99347 0.45963 0.78515 0.0
C340 C 0.93429 0.40443 0.79261 0.0
C341 C 0.65022 0.29505 0.71641 0.0
C342 C 0.7206 0.0855 0.73826 0.0
C343 C 0.71353 0.30622 0.73139 0.0
N344 N 0.74716 0.2022 0.74402 0.0
C345 C 0.65613 0.07243 0.72937 0.0
C346 C 0.62054 0.17882 0.71946 0.0
C347 C 0.79824 0.02019 0.86143 0.0
C348 C 0.99886 0.92153 0.84729 0.0
C349 C 0.92532 -0.04236 -0.06428 0.0
C350 C 0.93567 0.83525 -0.08281 0.0
C351 C 0.97128 0.81759 0.87173 0.0
N352 N 0.94662 0.06063 0.90806 0.0
C353 C 0.98664 0.0426 0.86659 0.0
Co354 Co 0.7335 0.7151 0.54514 0.0
Co355 Co 0.67413 0.70499 0.41225 0.0
O356 O 0.66583 0.69891 0.49101 0.0
C357 C 0.69989 0.63678 0.65147 0.0
O358 O 0.6855 0.55147 0.68593 0.0
C359 C 0.54537 0.88519 0.41623 0.0
O360 O 0.50757 0.80901 0.44172 0.0
O361 O 0.73233 0.8526 0.41323 0.0
O362 O 0.76968 0.83251 0.49459 0.0
H363 H 0.79851 0.65967 0.24621 0.0
H364 H 0.59837 0.61707 0.57815 0.0
O365 O 0.70331 0.60473 0.60295 0.0
H366 H 0.56246 0.0515 0.51747 0.0
H367 H 0.93075 0.8726 0.63059 0.0
H368 H 0.83363 0.50375 0.55157 0.0
H369 H 0.66681 -0.04326 0.50655 0.0
H370 H 0.81452 0.87358 0.60594 0.0
O371 O 0.60271 0.84797 0.40473 0.0
H372 H 0.78348 0.70681 0.34066 0.0
H373 H 0.58507 0.69827 0.32156 0.0
H374 H 0.94458 0.49918 0.57192 0.0
H375 H 0.49707 0.71522 0.59244 0.0
H376 H 0.99489 0.69033 0.60864 0.0
H377 H 0.47689 0.93253 0.56059 0.0
O378 O 0.74363 0.54947 0.50478 0.0
H379 H 0.54249 0.40809 0.50932 0.0
H380 H 0.67379 0.4657 0.35127 0.0
H381 H 0.656 0.25305 0.38496 0.0
H382 H 0.59447 0.22313 0.46733 0.0
H383 H 0.5593 0.61929 0.47254 0.0
H384 H 0.5981 0.65075 0.2263 0.0
H385 H 0.70504 0.62206 0.18955 0.0
O386 O 0.74802 0.57636 0.41797 0.0
C387 C 0.76873 0.88609 0.45014 0.0
C388 C 0.75145 0.66941 0.26219 0.0
C389 C 0.63872 0.66495 0.25112 0.0
N390 N 0.68331 0.70281 0.33641 0.0
C391 C 0.74262 0.69655 0.31554 0.0
C392 C 0.63165 0.69259 0.30471 0.0
C393 C 0.69899 0.65017 0.23021 0.0
C394 C 0.59293 0.71244 0.56456 0.0
N395 N 0.64116 0.773 0.53604 0.0
C396 C 0.53386 0.76734 0.57237 0.0
C397 C 0.52253 0.88906 0.5547 0.0
C398 C 0.57044 -0.04468 0.52992 0.0
C399 C 0.62986 0.90001 0.52352 0.0
C400 C 0.90846 0.79451 0.61077 0.0
C401 C 0.85363 0.58724 0.56572 0.0
C402 C 0.84425 0.79421 0.59766 0.0
N403 N 0.81831 0.69352 0.57289 0.0
C404 C 0.91748 0.58419 0.57773 0.0
C405 C 0.94556 0.69077 0.59849 0.0
C406 C 0.76208 0.51178 0.45927 0.0
C407 C 0.57028 0.41972 0.47385 0.0
C408 C 0.6416 0.45441 0.38393 0.0
C409 C 0.63337 0.33272 0.40392 0.0
C410 C 0.59912 0.31605 0.45022 0.0
N411 N 0.61921 0.55764 0.41078 0.0
C412 C 0.57919 0.53976 0.4523 0.0
Co413 Co 0.83102 0.18297 0.54702 0.0
Co414 Co 0.89142 0.19813 0.41316 0.0
O415 O 0.89869 0.20338 0.49239 0.0
C416 C 0.86142 0.26867 0.65186 0.0
O417 O 0.86913 0.35359 0.68799 0.0
C418 C 1.02046 0.01851 0.41767 0.0
O419 O 0.05709 0.09375 0.44487 0.0
O420 O 0.8319 0.05185 0.41405 0.0
O421 O 0.79751 0.05888 0.49739 0.0
H422 H 0.76965 0.24406 0.24579 0.0
H423 H 0.96479 0.28708 0.57976 0.0
O424 O 0.85971 0.30199 0.60324 0.0
H425 H 1.00177 0.84924 0.52308 0.0
H426 H 0.62296 0.03037 0.61678 0.0
H427 H 0.74894 0.40239 0.57851 0.0
H428 H 0.89732 0.94218 0.51188 0.0
H429 H 0.73606 0.00854 0.58505 0.0
O430 O 0.96301 0.05484 0.40586 0.0
H431 H 0.78311 0.19626 0.34033 0.0
H432 H 0.98177 0.20296 0.32331 0.0
H433 H 0.63375 0.42345 0.59177 0.0
H434 H 0.06642 0.19021 0.59527 0.0
H435 H 0.57127 0.23467 0.61013 0.0
H436 H 0.08701 -0.02893 0.56555 0.0
O437 O 0.8075 0.33479 0.50348 0.0
H438 H 1.02838 0.49617 0.50732 0.0
H439 H 0.89321 0.43646 0.35176 0.0
H440 H 0.91443 0.64993 0.38314 0.0
H441 H 0.97839 0.68164 0.46405 0.0
H442 H 1.00528 0.2835 0.47474 0.0
H443 H 0.97042 0.25256 0.2282 0.0
H444 H 0.86407 0.28204 0.19031 0.0
O445 O 0.81895 0.33002 0.41691 0.0
C446 C 0.79827 0.01055 0.45163 0.0
C447 C 0.81644 0.23384 0.26227 0.0
C448 C 0.92934 0.23788 0.25245 0.0
N449 N 0.88335 0.19957 0.33717 0.0
C450 C 0.82438 0.20623 0.31566 0.0
C451 C 0.93549 0.20934 0.30602 0.0
C452 C 0.86943 0.25325 0.23093 0.0
C453 C 0.97083 0.1911 0.56671 0.0
N454 N 0.92319 0.12861 0.53828 0.0
C455 C 1.02988 0.13689 0.57541 0.0
C456 C 0.04138 0.01405 0.559 0.0
C457 C 0.9936 0.94595 0.53482 0.0
C458 C 0.9344 0.00103 0.52735 0.0
C459 C 0.65026 0.10992 0.60356 0.0
C460 C 0.72056 0.31957 0.58165 0.0
C461 C 0.71356 0.09885 0.58856 0.0
N462 N 0.74716 0.20293 0.57591 0.0
C463 C 0.6561 0.33255 0.59058 0.0
C464 C 0.62055 0.22609 0.60053 0.0
C465 C 0.79834 0.38508 0.45851 0.0
C466 C 0.99902 0.48381 0.4728 0.0
C467 C 0.92553 0.44772 0.38433 0.0
C468 C 0.93588 0.57011 0.40288 0.0
C469 C 0.97148 0.58776 0.44835 0.0
N470 N 0.94679 0.34472 0.41199 0.0
C471 C 0.9868 0.36274 0.45348 0.0
loop_
_geom_bond_atom_site_label_1
_geom_bond_atom_site_label_2
_geom_bond_distance
_geom_bond_site_symmetry_2
_ccdc_geom_bond_type
Co0 O2 2.143 . S
Co0 O8 2.074 . S
Co0 O11 2.093 . S
Co0 O24 2.097 . S
Co0 N41 2.151 . S
Co0 N49 2.214 . S
Co1 O2 2.160 1_556 S
Co1 O7 2.058 . S
Co1 O17 2.057 . S
Co1 O32 2.037 . S
Co1 N36 2.145 . S
Co1 N57 2.257 . S
O2 Co0 2.143 . S
O2 Co1 2.160 1_554 S
C3 O4 1.278 . S
C3 O11 1.224 . S
O4 C3 1.278 . S
C5 O6 1.245 1_556 S
C5 O17 1.232 . S
O6 C5 1.245 1_554 S
O7 Co1 2.058 . S
O7 C33 1.269 . S
O8 Co0 2.074 . S
O8 C33 1.257 1_554 S
H9 C34 0.930 . S
H10 C40 0.930 . S
O11 Co0 2.093 . S
O11 C3 1.224 . S
H12 C44 0.929 . S
H13 C46 0.930 . S
H14 C47 0.930 . S
H15 C45 0.929 . S
H16 C48 0.928 . S
O17 Co1 2.057 . S
O17 C5 1.232 . S
H18 C37 0.929 . S
H19 C38 0.929 . S
H20 C50 0.931 . S
H21 C42 0.929 . S
H22 C51 0.930 . S
H23 C43 0.931 . S
O24 Co0 2.097 . S
O24 C52 1.214 . S
H25 C53 0.929 . S
H26 C54 0.929 . S
H27 C55 0.930 . S
H28 C56 0.929 . S
H29 C58 0.930 . S
H30 C35 0.930 . S
H31 C39 0.930 . S
O32 Co1 2.037 . S
O32 C52 1.234 1_556 S
C33 O7 1.269 . S
C33 O8 1.257 1_556 S
C34 H9 0.930 . S
C34 C37 1.388 . S
C34 C39 1.418 . S
C35 H30 0.930 . S
C35 C38 1.404 . S
C35 C39 1.353 . S
N36 Co1 2.145 . S
N36 C37 1.397 . S
N36 C38 1.334 . S
C37 H18 0.929 . S
C37 C34 1.388 . S
C37 N36 1.397 . S
C38 H19 0.929 . S
C38 C35 1.404 . S
C38 N36 1.334 . S
C39 H31 0.930 . S
C39 C34 1.418 . S
C39 C35 1.353 . S
C40 H10 0.930 . S
C40 N41 1.330 . S
C40 C42 1.446 . S
N41 Co0 2.151 . S
N41 C40 1.330 . S
N41 C45 1.418 . S
C42 H21 0.929 . S
C42 C40 1.446 . S
C42 C43 1.332 . S
C43 H23 0.931 . S
C43 C42 1.332 . S
C43 C44 1.267 . S
C44 H12 0.929 . S
C44 C43 1.267 . S
C44 C45 1.251 . S
C45 H15 0.929 . S
C45 N41 1.418 . S
C45 C44 1.251 . S
C46 H13 0.930 . S
C46 C48 1.406 . S
C46 C51 1.261 . S
C47 H14 0.930 . S
C47 N49 1.325 . S
C47 C50 1.357 . S
C48 H16 0.928 . S
C48 C46 1.406 . S
C48 N49 1.261 . S
N49 Co0 2.214 . S
N49 C47 1.325 . S
N49 C48 1.261 . S
C50 H20 0.931 . S
C50 C47 1.357 . S
C50 C51 1.312 . S
C51 H22 0.930 . S
C51 C46 1.261 . S
C51 C50 1.312 . S
C52 O24 1.214 . S
C52 O32 1.234 1_554 S
C53 H25 0.929 . S
C53 C56 1.391 . S
C53 C58 1.391 1_565 S
C54 H26 0.929 . S
C54 C55 1.390 . S
C54 N57 1.391 1_565 S
C55 H27 0.930 . S
C55 C54 1.390 . S
C55 C56 1.392 1_556 S
C56 H28 0.929 . S
C56 C53 1.391 . S
C56 C55 1.392 1_554 S
N57 Co1 2.257 . S
N57 C54 1.391 1_545 S
N57 C58 1.388 1_556 S
C58 H29 0.930 . S
C58 C53 1.391 1_545 S
C58 N57 1.388 1_554 S
Co59 O61 2.143 . S
Co59 O67 2.074 . S
Co59 O70 2.093 . S
Co59 O83 2.097 . S
Co59 N100 2.151 . S
Co59 N108 2.214 . S
Co60 O61 2.160 1_556 S
Co60 O66 2.058 . S
Co60 O76 2.057 . S
Co60 O91 2.037 . S
Co60 N95 2.145 . S
Co60 N116 2.257 . S
O61 Co59 2.143 . S
O61 Co60 2.160 1_554 S
C62 O63 1.278 . S
C62 O70 1.224 . S
O63 C62 1.278 . S
C64 O65 1.245 1_556 S
C64 O76 1.232 . S
O65 C64 1.245 1_554 S
O66 Co60 2.058 . S
O66 C92 1.269 . S
O67 Co59 2.074 . S
O67 C92 1.257 1_554 S
H68 C93 0.930 . S
H69 C99 0.930 . S
O70 Co59 2.093 . S
O70 C62 1.224 . S
H71 C103 0.929 . S
H72 C105 0.930 . S
H73 C106 0.930 . S
H74 C104 0.929 . S
H75 C107 0.928 . S
O76 Co60 2.057 . S
O76 C64 1.232 . S
H77 C96 0.929 . S
H78 C97 0.929 . S
H79 C109 0.931 . S
H80 C101 0.929 . S
H81 C110 0.930 . S
H82 C102 0.931 . S
O83 Co59 2.097 . S
O83 C111 1.214 . S
H84 C112 0.929 . S
H85 C113 0.929 . S
H86 C114 0.930 . S
H87 C115 0.929 . S
H88 C117 0.930 1_655 S
H89 C94 0.930 . S
H90 C98 0.930 . S
O91 Co60 2.037 . S
O91 C111 1.234 1_556 S
C92 O66 1.269 . S
C92 O67 1.257 1_556 S
C93 H68 0.930 . S
C93 C96 1.388 . S
C93 C98 1.418 . S
C94 H89 0.930 . S
C94 C97 1.404 . S
C94 C98 1.353 . S
N95 Co60 2.145 . S
N95 C96 1.397 . S
N95 C97 1.334 . S
C96 H77 0.929 . S
C96 C93 1.388 . S
C96 N95 1.397 . S
C97 H78 0.929 . S
C97 C94 1.404 . S
C97 N95 1.334 . S
C98 H90 0.930 . S
C98 C93 1.418 . S
C98 C94 1.353 . S
C99 H69 0.930 . S
C99 N100 1.330 . S
C99 C101 1.446 . S
N100 Co59 2.151 . S
N100 C99 1.330 . S
N100 C104 1.418 . S
C101 H80 0.929 . S
C101 C99 1.446 . S
C101 C102 1.332 . S
C102 H82 0.931 . S
C102 C101 1.332 . S
C102 C103 1.267 . S
C103 H71 0.929 . S
C103 C102 1.267 . S
C103 C104 1.251 . S
C104 H74 0.929 . S
C104 N100 1.418 . S
C104 C103 1.251 . S
C105 H72 0.930 . S
C105 C107 1.406 . S
C105 C110 1.261 . S
C106 H73 0.930 . S
C106 N108 1.325 . S
C106 C109 1.357 . S
C107 H75 0.928 . S
C107 C105 1.406 . S
C107 N108 1.261 . S
N108 Co59 2.214 . S
N108 C106 1.325 . S
N108 C107 1.261 . S
C109 H79 0.931 . S
C109 C106 1.357 . S
C109 C110 1.312 . S
C110 H81 0.930 . S
C110 C105 1.261 . S
C110 C109 1.312 . S
C111 O83 1.214 . S
C111 O91 1.234 1_554 S
C112 H84 0.929 . S
C112 C115 1.391 . S
C112 C117 1.391 1_645 S
C113 H85 0.929 . S
C113 C114 1.390 . S
C113 N116 1.391 1_545 S
C114 H86 0.930 . S
C114 C113 1.390 . S
C114 C115 1.392 1_456 S
C115 H87 0.929 . S
C115 C112 1.391 . S
C115 C114 1.392 1_654 S
N116 Co60 2.257 . S
N116 C113 1.391 1_565 S
N116 C117 1.388 1_556 S
C117 H88 0.930 1_455 S
C117 C112 1.391 1_465 S
C117 N116 1.388 1_554 S
Co118 O120 2.143 . S
Co118 O126 2.074 . S
Co118 O129 2.093 . S
Co118 O142 2.097 . S
Co118 N159 2.151 . S
Co118 N167 2.214 . S
Co119 O120 2.160 . S
Co119 O125 2.058 . S
Co119 O135 2.057 . S
Co119 O150 2.037 . S
Co119 N154 2.145 . S
Co119 N175 2.257 . S
O120 Co118 2.143 . S
O120 Co119 2.160 . S
C121 O122 1.278 . S
C121 O129 1.224 . S
O122 C121 1.278 . S
C123 O124 1.245 . S
C123 O135 1.232 . S
O124 C123 1.245 . S
O125 Co119 2.058 . S
O125 C151 1.269 . S
O126 Co118 2.074 . S
O126 C151 1.257 . S
H127 C152 0.930 . S
H128 C158 0.930 1_545 S
O129 Co118 2.093 . S
O129 C121 1.224 . S
H130 C162 0.929 . S
H131 C164 0.930 . S
H132 C165 0.930 . S
H133 C163 0.929 . S
H134 C166 0.928 . S
O135 Co119 2.057 . S
O135 C123 1.232 . S
H136 C155 0.929 . S
H137 C156 0.929 . S
H138 C168 0.931 . S
H139 C160 0.929 . S
H140 C169 0.930 . S
H141 C161 0.931 . S
O142 Co118 2.097 . S
O142 C170 1.214 . S
H143 C171 0.929 . S
H144 C172 0.929 . S
H145 C173 0.930 . S
H146 C174 0.929 . S
H147 C176 0.930 . S
H148 C153 0.930 . S
H149 C157 0.930 . S
O150 Co119 2.037 . S
O150 C170 1.234 . S
C151 O125 1.269 . S
C151 O126 1.257 . S
C152 H127 0.930 . S
C152 C155 1.388 . S
C152 C157 1.418 . S
C153 H148 0.930 . S
C153 C156 1.404 . S
C153 C157 1.353 . S
N154 Co119 2.145 . S
N154 C155 1.397 . S
N154 C156 1.334 . S
C155 H136 0.929 . S
C155 C152 1.388 . S
C155 N154 1.397 . S
C156 H137 0.929 . S
C156 C153 1.404 . S
C156 N154 1.334 . S
C157 H149 0.930 . S
C157 C152 1.418 . S
C157 C153 1.353 . S
C158 H128 0.930 1_565 S
C158 N159 1.330 1_565 S
C158 C160 1.446 . S
N159 Co118 2.151 . S
N159 C158 1.330 1_545 S
N159 C163 1.418 1_545 S
C160 H139 0.929 . S
C160 C158 1.446 . S
C160 C161 1.332 . S
C161 H141 0.931 . S
C161 C160 1.332 . S
C161 C162 1.267 . S
C162 H130 0.929 . S
C162 C161 1.267 . S
C162 C163 1.251 . S
C163 H133 0.929 . S
C163 N159 1.418 1_565 S
C163 C162 1.251 . S
C164 H131 0.930 . S
C164 C166 1.406 . S
C164 C169 1.261 . S
C165 H132 0.930 . S
C165 N167 1.325 . S
C165 C168 1.357 . S
C166 H134 0.928 . S
C166 C164 1.406 . S
C166 N167 1.261 . S
N167 Co118 2.214 . S
N167 C165 1.325 . S
N167 C166 1.261 . S
C168 H138 0.931 . S
C168 C165 1.357 . S
C168 C169 1.312 . S
C169 H140 0.930 . S
C169 C164 1.261 . S
C169 C168 1.312 . S
C170 O142 1.214 . S
C170 O150 1.234 . S
C171 H143 0.929 . S
C171 C174 1.391 . S
C171 C176 1.391 . S
C172 H144 0.929 . S
C172 C173 1.390 . S
C172 N175 1.391 . S
C173 H145 0.930 . S
C173 C172 1.390 . S
C173 C174 1.392 . S
C174 H146 0.929 . S
C174 C171 1.391 . S
C174 C173 1.392 . S
N175 Co119 2.257 . S
N175 C172 1.391 . S
N175 C176 1.388 . S
C176 H147 0.930 . S
C176 C171 1.391 . S
C176 N175 1.388 . S
Co177 O179 2.143 . S
Co177 O185 2.074 . S
Co177 O188 2.093 . S
Co177 O201 2.097 . S
Co177 N218 2.151 . S
Co177 N226 2.214 . S
Co178 O179 2.160 . S
Co178 O184 2.058 . S
Co178 O194 2.057 . S
Co178 O209 2.037 . S
Co178 N213 2.145 . S
Co178 N234 2.257 . S
O179 Co177 2.143 . S
O179 Co178 2.160 . S
C180 O181 1.278 . S
C180 O188 1.224 . S
O181 C180 1.278 . S
C182 O183 1.245 . S
C182 O194 1.232 . S
O183 C182 1.245 . S
O184 Co178 2.058 . S
O184 C210 1.269 . S
O185 Co177 2.074 . S
O185 C210 1.257 . S
H186 C211 0.930 . S
H187 C217 0.930 1_565 S
O188 Co177 2.093 . S
O188 C180 1.224 . S
H189 C221 0.929 . S
H190 C223 0.930 . S
H191 C224 0.930 . S
H192 C222 0.929 . S
H193 C225 0.928 . S
O194 Co178 2.057 . S
O194 C182 1.232 . S
H195 C214 0.929 . S
H196 C215 0.929 . S
H197 C227 0.931 . S
H198 C219 0.929 . S
H199 C228 0.930 . S
H200 C220 0.931 . S
O201 Co177 2.097 . S
O201 C229 1.214 . S
H202 C230 0.929 . S
H203 C231 0.929 . S
H204 C232 0.930 . S
H205 C233 0.929 . S
H206 C235 0.930 1_655 S
H207 C212 0.930 . S
H208 C216 0.930 . S
O209 Co178 2.037 . S
O209 C229 1.234 . S
C210 O184 1.269 . S
C210 O185 1.257 . S
C211 H186 0.930 . S
C211 C214 1.388 . S
C211 C216 1.418 . S
C212 H207 0.930 . S
C212 C215 1.404 . S
C212 C216 1.353 . S
N213 Co178 2.145 . S
N213 C214 1.397 . S
N213 C215 1.334 . S
C214 H195 0.929 . S
C214 C211 1.388 . S
C214 N213 1.397 . S
C215 H196 0.929 . S
C215 C212 1.404 . S
C215 N213 1.334 . S
C216 H208 0.930 . S
C216 C211 1.418 . S
C216 C212 1.353 . S
C217 H187 0.930 1_545 S
C217 N218 1.330 1_545 S
C217 C219 1.446 . S
N218 Co177 2.151 . S
N218 C217 1.330 1_565 S
N218 C222 1.418 1_565 S
C219 H198 0.929 . S
C219 C217 1.446 . S
C219 C220 1.332 . S
C220 H200 0.931 . S
C220 C219 1.332 . S
C220 C221 1.267 . S
C221 H189 0.929 . S
C221 C220 1.267 . S
C221 C222 1.251 . S
C222 H192 0.929 . S
C222 N218 1.418 1_545 S
C222 C221 1.251 . S
C223 H190 0.930 . S
C223 C225 1.406 . S
C223 C228 1.261 . S
C224 H191 0.930 . S
C224 N226 1.325 . S
C224 C227 1.357 . S
C225 H193 0.928 . S
C225 C223 1.406 . S
C225 N226 1.261 . S
N226 Co177 2.214 . S
N226 C224 1.325 . S
N226 C225 1.261 . S
C227 H197 0.931 . S
C227 C224 1.357 . S
C227 C228 1.312 . S
C228 H199 0.930 . S
C228 C223 1.261 . S
C228 C227 1.312 . S
C229 O201 1.214 . S
C229 O209 1.234 . S
C230 H202 0.929 . S
C230 C233 1.391 . S
C230 C235 1.391 1_655 S
C231 H203 0.929 . S
C231 C232 1.390 . S
C231 N234 1.391 . S
C232 H204 0.930 . S
C232 C231 1.390 . S
C232 C233 1.392 1_455 S
C233 H205 0.929 . S
C233 C230 1.391 . S
C233 C232 1.392 1_655 S
N234 Co178 2.257 . S
N234 C231 1.391 . S
N234 C235 1.388 . S
C235 H206 0.930 1_455 S
C235 C230 1.391 1_455 S
C235 N234 1.388 . S
Co236 O238 2.143 . S
Co236 O244 2.074 . S
Co236 O247 2.093 . S
Co236 O260 2.097 . S
Co236 N277 2.151 . S
Co236 N285 2.214 . S
Co237 O238 2.160 1_554 S
Co237 O243 2.058 . S
Co237 O253 2.057 . S
Co237 O268 2.037 . S
Co237 N272 2.145 . S
Co237 N293 2.257 . S
O238 Co236 2.143 . S
O238 Co237 2.160 1_556 S
C239 O240 1.278 . S
C239 O247 1.224 . S
O240 C239 1.278 . S
C241 O242 1.245 1_554 S
C241 O253 1.232 . S
O242 C241 1.245 1_556 S
O243 Co237 2.058 . S
O243 C269 1.269 . S
O244 Co236 2.074 . S
O244 C269 1.257 1_556 S
H245 C270 0.930 . S
H246 C276 0.930 . S
O247 Co236 2.093 . S
O247 C239 1.224 . S
H248 C280 0.929 . S
H249 C282 0.930 . S
H250 C283 0.930 . S
H251 C281 0.929 . S
H252 C284 0.928 . S
O253 Co237 2.057 . S
O253 C241 1.232 . S
H254 C273 0.929 . S
H255 C274 0.929 . S
H256 C286 0.931 . S
H257 C278 0.929 . S
H258 C287 0.930 . S
H259 C279 0.931 . S
O260 Co236 2.097 . S
O260 C288 1.214 . S
H261 C289 0.929 . S
H262 C290 0.929 . S
H263 C291 0.930 . S
H264 C292 0.929 . S
H265 C294 0.930 . S
H266 C271 0.930 . S
H267 C275 0.930 . S
O268 Co237 2.037 . S
O268 C288 1.234 1_554 S
C269 O243 1.269 . S
C269 O244 1.257 1_554 S
C270 H245 0.930 . S
C270 C273 1.388 . S
C270 C275 1.418 . S
C271 H266 0.930 . S
C271 C274 1.404 . S
C271 C275 1.353 . S
N272 Co237 2.145 . S
N272 C273 1.397 . S
N272 C274 1.334 . S
C273 H254 0.929 . S
C273 C270 1.388 . S
C273 N272 1.397 . S
C274 H255 0.929 . S
C274 C271 1.404 . S
C274 N272 1.334 . S
C275 H267 0.930 . S
C275 C270 1.418 . S
C275 C271 1.353 . S
C276 H246 0.930 . S
C276 N277 1.330 . S
C276 C278 1.446 . S
N277 Co236 2.151 . S
N277 C276 1.330 . S
N277 C281 1.418 . S
C278 H257 0.929 . S
C278 C276 1.446 . S
C278 C279 1.332 . S
C279 H259 0.931 . S
C279 C278 1.332 . S
C279 C280 1.267 . S
C280 H248 0.929 . S
C280 C279 1.267 . S
C280 C281 1.251 . S
C281 H251 0.929 . S
C281 N277 1.418 . S
C281 C280 1.251 . S
C282 H249 0.930 . S
C282 C284 1.406 . S
C282 C287 1.261 . S
C283 H250 0.930 . S
C283 N285 1.325 . S
C283 C286 1.357 . S
C284 H252 0.928 . S
C284 C282 1.406 . S
C284 N285 1.261 . S
N285 Co236 2.214 . S
N285 C283 1.325 . S
N285 C284 1.261 . S
C286 H256 0.931 . S
C286 C283 1.357 . S
C286 C287 1.312 . S
C287 H258 0.930 . S
C287 C282 1.261 . S
C287 C286 1.312 . S
C288 O260 1.214 . S
C288 O268 1.234 1_556 S
C289 H261 0.929 . S
C289 C292 1.391 . S
C289 C294 1.391 1_545 S
C290 H262 0.929 . S
C290 C291 1.390 . S
C290 N293 1.391 1_545 S
C291 H263 0.930 . S
C291 C290 1.390 . S
C291 C292 1.392 1_554 S
C292 H264 0.929 . S
C292 C289 1.391 . S
C292 C291 1.392 1_556 S
N293 Co237 2.257 . S
N293 C290 1.391 1_565 S
N293 C294 1.388 1_554 S
C294 H265 0.930 . S
C294 C289 1.391 1_565 S
C294 N293 1.388 1_556 S
Co295 O297 2.143 . S
Co295 O303 2.074 . S
Co295 O306 2.093 . S
Co295 O319 2.097 . S
Co295 N336 2.151 . S
Co295 N344 2.214 . S
Co296 O297 2.160 1_554 S
Co296 O302 2.058 . S
Co296 O312 2.057 . S
Co296 O327 2.037 . S
Co296 N331 2.145 . S
Co296 N352 2.257 . S
O297 Co295 2.143 . S
O297 Co296 2.160 1_556 S
C298 O299 1.278 . S
C298 O306 1.224 . S
O299 C298 1.278 . S
C300 O301 1.245 1_554 S
C300 O312 1.232 . S
O301 C300 1.245 1_556 S
O302 Co296 2.058 . S
O302 C328 1.269 . S
O303 Co295 2.074 . S
O303 C328 1.257 1_556 S
H304 C329 0.930 . S
H305 C335 0.930 . S
O306 Co295 2.093 . S
O306 C298 1.224 . S
H307 C339 0.929 . S
H308 C341 0.930 . S
H309 C342 0.930 . S
H310 C340 0.929 . S
H311 C343 0.928 . S
O312 Co296 2.057 . S
O312 C300 1.232 . S
H313 C332 0.929 . S
H314 C333 0.929 . S
H315 C345 0.931 . S
H316 C337 0.929 . S
H317 C346 0.930 . S
H318 C338 0.931 . S
O319 Co295 2.097 . S
O319 C347 1.214 . S
H320 C348 0.929 . S
H321 C349 0.929 . S
H322 C350 0.930 . S
H323 C351 0.929 . S
H324 C353 0.930 1_455 S
H325 C330 0.930 . S
H326 C334 0.930 . S
O327 Co296 2.037 . S
O327 C347 1.234 1_554 S
C328 O302 1.269 . S
C328 O303 1.257 1_554 S
C329 H304 0.930 . S
C329 C332 1.388 . S
C329 C334 1.418 . S
C330 H325 0.930 . S
C330 C333 1.404 . S
C330 C334 1.353 . S
N331 Co296 2.145 . S
N331 C332 1.397 . S
N331 C333 1.334 . S
C332 H313 0.929 . S
C332 C329 1.388 . S
C332 N331 1.397 . S
C333 H314 0.929 . S
C333 C330 1.404 . S
C333 N331 1.334 . S
C334 H326 0.930 . S
C334 C329 1.418 . S
C334 C330 1.353 . S
C335 H305 0.930 . S
C335 N336 1.330 . S
C335 C337 1.446 . S
N336 Co295 2.151 . S
N336 C335 1.330 . S
N336 C340 1.418 . S
C337 H316 0.929 . S
C337 C335 1.446 . S
C337 C338 1.332 . S
C338 H318 0.931 . S
C338 C337 1.332 . S
C338 C339 1.267 . S
C339 H307 0.929 . S
C339 C338 1.267 . S
C339 C340 1.251 . S
C340 H310 0.929 . S
C340 N336 1.418 . S
C340 C339 1.251 . S
C341 H308 0.930 . S
C341 C343 1.406 . S
C341 C346 1.261 . S
C342 H309 0.930 . S
C342 N344 1.325 . S
C342 C345 1.357 . S
C343 H311 0.928 . S
C343 C341 1.406 . S
C343 N344 1.261 . S
N344 Co295 2.214 . S
N344 C342 1.325 . S
N344 C343 1.261 . S
C345 H315 0.931 . S
C345 C342 1.357 . S
C345 C346 1.312 . S
C346 H317 0.930 . S
C346 C341 1.261 . S
C346 C345 1.312 . S
C347 O319 1.214 . S
C347 O327 1.234 1_556 S
C348 H320 0.929 . S
C348 C351 1.391 . S
C348 C353 1.391 1_465 S
C349 H321 0.929 . S
C349 C350 1.390 . S
C349 N352 1.391 1_565 S
C350 H322 0.930 . S
C350 C349 1.390 . S
C350 C351 1.392 1_654 S
C351 H323 0.929 . S
C351 C348 1.391 . S
C351 C350 1.392 1_456 S
N352 Co296 2.257 . S
N352 C349 1.391 1_545 S
N352 C353 1.388 1_554 S
C353 H324 0.930 1_655 S
C353 C348 1.391 1_645 S
C353 N352 1.388 1_556 S
Co354 O356 2.143 . S
Co354 O362 2.074 . S
Co354 O365 2.093 . S
Co354 O378 2.097 . S
Co354 N395 2.151 . S
Co354 N403 2.214 . S
Co355 O356 2.160 . S
Co355 O361 2.058 . S
Co355 O371 2.057 . S
Co355 O386 2.037 . S
Co355 N390 2.145 . S
Co355 N411 2.257 . S
O356 Co354 2.143 . S
O356 Co355 2.160 . S
C357 O358 1.278 . S
C357 O365 1.224 . S
O358 C357 1.278 . S
C359 O360 1.245 . S
C359 O371 1.232 . S
O360 C359 1.245 . S
O361 Co355 2.058 . S
O361 C387 1.269 . S
O362 Co354 2.074 . S
O362 C387 1.257 . S
H363 C388 0.930 . S
H364 C394 0.930 1_565 S
O365 Co354 2.093 . S
O365 C357 1.224 . S
H366 C398 0.929 . S
H367 C400 0.930 . S
H368 C401 0.930 . S
H369 C399 0.929 . S
H370 C402 0.928 . S
O371 Co355 2.057 . S
O371 C359 1.232 . S
H372 C391 0.929 . S
H373 C392 0.929 . S
H374 C404 0.931 . S
H375 C396 0.929 . S
H376 C405 0.930 . S
H377 C397 0.931 . S
O378 Co354 2.097 . S
O378 C406 1.214 . S
H379 C407 0.929 . S
H380 C408 0.929 . S
H381 C409 0.930 . S
H382 C410 0.929 . S
H383 C412 0.930 . S
H384 C389 0.930 . S
H385 C393 0.930 . S
O386 Co355 2.037 . S
O386 C406 1.234 . S
C387 O361 1.269 . S
C387 O362 1.257 . S
C388 H363 0.930 . S
C388 C391 1.388 . S
C388 C393 1.418 . S
C389 H384 0.930 . S
C389 C392 1.404 . S
C389 C393 1.353 . S
N390 Co355 2.145 . S
N390 C391 1.397 . S
N390 C392 1.334 . S
C391 H372 0.929 . S
C391 C388 1.388 . S
C391 N390 1.397 . S
C392 H373 0.929 . S
C392 C389 1.404 . S
C392 N390 1.334 . S
C393 H385 0.930 . S
C393 C388 1.418 . S
C393 C389 1.353 . S
C394 H364 0.930 1_545 S
C394 N395 1.330 1_545 S
C394 C396 1.446 . S
N395 Co354 2.151 . S
N395 C394 1.330 1_565 S
N395 C399 1.418 1_565 S
C396 H375 0.929 . S
C396 C394 1.446 . S
C396 C397 1.332 . S
C397 H377 0.931 . S
C397 C396 1.332 . S
C397 C398 1.267 . S
C398 H366 0.929 . S
C398 C397 1.267 . S
C398 C399 1.251 . S
C399 H369 0.929 . S
C399 N395 1.418 1_545 S
C399 C398 1.251 . S
C400 H367 0.930 . S
C400 C402 1.406 . S
C400 C405 1.261 . S
C401 H368 0.930 . S
C401 N403 1.325 . S
C401 C404 1.357 . S
C402 H370 0.928 . S
C402 C400 1.406 . S
C402 N403 1.261 . S
N403 Co354 2.214 . S
N403 C401 1.325 . S
N403 C402 1.261 . S
C404 H374 0.931 . S
C404 C401 1.357 . S
C404 C405 1.312 . S
C405 H376 0.930 . S
C405 C400 1.261 . S
C405 C404 1.312 . S
C406 O378 1.214 . S
C406 O386 1.234 . S
C407 H379 0.929 . S
C407 C410 1.391 . S
C407 C412 1.391 . S
C408 H380 0.929 . S
C408 C409 1.390 . S
C408 N411 1.391 . S
C409 H381 0.930 . S
C409 C408 1.390 . S
C409 C410 1.392 . S
C410 H382 0.929 . S
C410 C407 1.391 . S
C410 C409 1.392 . S
N411 Co355 2.257 . S
N411 C408 1.391 . S
N411 C412 1.388 . S
C412 H383 0.930 . S
C412 C407 1.391 . S
C412 N411 1.388 . S
Co413 O415 2.143 . S
Co413 O421 2.074 . S
Co413 O424 2.093 . S
Co413 O437 2.097 . S
Co413 N454 2.151 . S
Co413 N462 2.214 . S
Co414 O415 2.160 . S
Co414 O420 2.058 . S
Co414 O430 2.057 . S
Co414 O445 2.037 . S
Co414 N449 2.145 . S
Co414 N470 2.257 . S
O415 Co413 2.143 . S
O415 Co414 2.160 . S
C416 O417 1.278 . S
C416 O424 1.224 . S
O417 C416 1.278 . S
C418 O419 1.245 . S
C418 O430 1.232 . S
O419 C418 1.245 . S
O420 Co414 2.058 . S
O420 C446 1.269 . S
O421 Co413 2.074 . S
O421 C446 1.257 . S
H422 C447 0.930 . S
H423 C453 0.930 1_545 S
O424 Co413 2.093 . S
O424 C416 1.224 . S
H425 C457 0.929 . S
H426 C459 0.930 . S
H427 C460 0.930 . S
H428 C458 0.929 . S
H429 C461 0.928 . S
O430 Co414 2.057 . S
O430 C418 1.232 . S
H431 C450 0.929 . S
H432 C451 0.929 . S
H433 C463 0.931 . S
H434 C455 0.929 . S
H435 C464 0.930 . S
H436 C456 0.931 . S
O437 Co413 2.097 . S
O437 C465 1.214 . S
H438 C466 0.929 . S
H439 C467 0.929 . S
H440 C468 0.930 . S
H441 C469 0.929 . S
H442 C471 0.930 1_455 S
H443 C448 0.930 . S
H444 C452 0.930 . S
O445 Co414 2.037 . S
O445 C465 1.234 . S
C446 O420 1.269 . S
C446 O421 1.257 . S
C447 H422 0.930 . S
C447 C450 1.388 . S
C447 C452 1.418 . S
C448 H443 0.930 . S
C448 C451 1.404 . S
C448 C452 1.353 . S
N449 Co414 2.145 . S
N449 C450 1.397 . S
N449 C451 1.334 . S
C450 H431 0.929 . S
C450 C447 1.388 . S
C450 N449 1.397 . S
C451 H432 0.929 . S
C451 C448 1.404 . S
C451 N449 1.334 . S
C452 H444 0.930 . S
C452 C447 1.418 . S
C452 C448 1.353 . S
C453 H423 0.930 1_565 S
C453 N454 1.330 1_565 S
C453 C455 1.446 . S
N454 Co413 2.151 . S
N454 C453 1.330 1_545 S
N454 C458 1.418 1_545 S
C455 H434 0.929 . S
C455 C453 1.446 . S
C455 C456 1.332 . S
C456 H436 0.931 . S
C456 C455 1.332 . S
C456 C457 1.267 . S
C457 H425 0.929 . S
C457 C456 1.267 . S
C457 C458 1.251 . S
C458 H428 0.929 . S
C458 N454 1.418 1_565 S
C458 C457 1.251 . S
C459 H426 0.930 . S
C459 C461 1.406 . S
C459 C464 1.261 . S
C460 H427 0.930 . S
C460 N462 1.325 . S
C460 C463 1.357 . S
C461 H429 0.928 . S
C461 C459 1.406 . S
C461 N462 1.261 . S
N462 Co413 2.214 . S
N462 C460 1.325 . S
N462 C461 1.261 . S
C463 H433 0.931 . S
C463 C460 1.357 . S
C463 C464 1.312 . S
C464 H435 0.930 . S
C464 C459 1.261 . S
C464 C463 1.312 . S
C465 O437 1.214 . S
C465 O445 1.234 . S
C466 H438 0.929 . S
C466 C469 1.391 . S
C466 C471 1.391 1_455 S
C467 H439 0.929 . S
C467 C468 1.390 . S
C467 N470 1.391 . S
C468 H440 0.930 . S
C468 C467 1.390 . S
C468 C469 1.392 1_655 S
C469 H441 0.929 . S
C469 C466 1.391 . S
C469 C468 1.392 1_455 S
N470 Co414 2.257 . S
N470 C467 1.391 . S
N470 C471 1.388 . S
C471 H442 0.930 1_655 S
C471 C466 1.391 1_655 S
C471 N470 1.388 . S
C52 C111 1.740 1_545 S
C229 C170 1.740 . S
C288 C347 1.740 1_565 S
C406 C465 1.740 . S
C3 C121 2.676 . S
C180 C62 2.675 . S
C239 C357 2.676 . S
C416 C298 2.675 . S
C5 C241 1.654 1_556 S
C64 C300 1.654 1_456 S
C359 C123 1.654 1_565 S
C418 C182 1.654 1_645 S
C92 C33 1.810 . S
C151 C210 1.810 1_545 S
C269 C328 1.810 . S
C387 C446 1.810 1_565 S
