# Generated by pormake.
# Topology ukk, (4)-cn, num edge types: 1
# Building blocks:
#     Node 0, Type 0, BuildingBlock: KOZSID_clean_sbu_0, # of connection points: 4
#     Node 1, Type 0, BuildingBlock: KOZSID_clean_sbu_0, # of connection points: 4
#     Node 2, Type 0, BuildingBlock: KOZSID_clean_sbu_0, # of connection points: 4
#     Node 3, Type 0, BuildingBlock: KOZSID_clean_sbu_0, # of connection points: 4
#     Node 4, Type 0, BuildingBlock: KOZSID_clean_sbu_0, # of connection points: 4
#     Node 5, Type 0, BuildingBlock: KOZSID_clean_sbu_0, # of connection points: 4
#     Node 6, Type 0, BuildingBlock: KOZSID_clean_sbu_0, # of connection points: 4
#     Node 7, Type 0, BuildingBlock: KOZSID_clean_sbu_0, # of connection points: 4
#     Node 8, Type 0, BuildingBlock: KOZSID_clean_sbu_0, # of connection points: 4
#     Node 9, Type 0, BuildingBlock: KOZSID_clean_sbu_0, # of connection points: 4
#     Node 10, Type 0, BuildingBlock: KOZSID_clean_sbu_0, # of connection points: 4
#     Node 11, Type 0, BuildingBlock: KOZSID_clean_sbu_0, # of connection points: 4
#     Node 12, Type 0, BuildingBlock: KOZSID_clean_sbu_0, # of connection points: 4
#     Node 13, Type 0, BuildingBlock: KOZSID_clean_sbu_0, # of connection points: 4
#     Node 14, Type 0, BuildingBlock: KOZSID_clean_sbu_0, # of connection points: 4
#     Node 15, Type 0, BuildingBlock: KOZSID_clean_sbu_0, # of connection points: 4
#     Edge 16, Type (0, 0), BuildingBlock: AJUNOK_clean_linker_0, # of connection points: 2
#     Edge 17, Type (0, 0), BuildingBlock: AJUNOK_clean_linker_0, # of connection points: 2
#     Edge 18, Type (0, 0), BuildingBlock: AJUNOK_clean_linker_0, # of connection points: 2
#     Edge 19, Type (0, 0), BuildingBlock: AJUNOK_clean_linker_0, # of connection points: 2
#     Edge 20, Type (0, 0), BuildingBlock: AJUNOK_clean_linker_0, # of connection points: 2
#     Edge 21, Type (0, 0), BuildingBlock: AJUNOK_clean_linker_0, # of connection points: 2
#     Edge 22, Type (0, 0), BuildingBlock: AJUNOK_clean_linker_0, # of connection points: 2
#     Edge 23, Type (0, 0), BuildingBlock: AJUNOK_clean_linker_0, # of connection points: 2
#     Edge 24, Type (0, 0), BuildingBlock: AJUNOK_clean_linker_0, # of connection points: 2
#     Edge 25, Type (0, 0), BuildingBlock: AJUNOK_clean_linker_0, # of connection points: 2
#     Edge 26, Type (0, 0), BuildingBlock: AJUNOK_clean_linker_0, # of connection points: 2
#     Edge 27, Type (0, 0), BuildingBlock: AJUNOK_clean_linker_0, # of connection points: 2
#     Edge 28, Type (0, 0), BuildingBlock: AJUNOK_clean_linker_0, # of connection points: 2
#     Edge 29, Type (0, 0), BuildingBlock: AJUNOK_clean_linker_0, # of connection points: 2
#     Edge 30, Type (0, 0), BuildingBlock: AJUNOK_clean_linker_0, # of connection points: 2
#     Edge 31, Type (0, 0), BuildingBlock: AJUNOK_clean_linker_0, # of connection points: 2
#     Edge 32, Type (0, 0), BuildingBlock: AJUNOK_clean_linker_0, # of connection points: 2
#     Edge 33, Type (0, 0), BuildingBlock: AJUNOK_clean_linker_0, # of connection points: 2
#     Edge 34, Type (0, 0), BuildingBlock: AJUNOK_clean_linker_0, # of connection points: 2
#     Edge 35, Type (0, 0), BuildingBlock: AJUNOK_clean_linker_0, # of connection points: 2
#     Edge 36, Type (0, 0), BuildingBlock: AJUNOK_clean_linker_0, # of connection points: 2
#     Edge 37, Type (0, 0), BuildingBlock: AJUNOK_clean_linker_0, # of connection points: 2
#     Edge 38, Type (0, 0), BuildingBlock: AJUNOK_clean_linker_0, # of connection points: 2
#     Edge 39, Type (0, 0), BuildingBlock: AJUNOK_clean_linker_0, # of connection points: 2
#     Edge 40, Type (0, 0), BuildingBlock: AJUNOK_clean_linker_0, # of connection points: 2
#     Edge 41, Type (0, 0), BuildingBlock: AJUNOK_clean_linker_0, # of connection points: 2
#     Edge 42, Type (0, 0), BuildingBlock: AJUNOK_clean_linker_0, # of connection points: 2
#     Edge 43, Type (0, 0), BuildingBlock: AJUNOK_clean_linker_0, # of connection points: 2
#     Edge 44, Type (0, 0), BuildingBlock: AJUNOK_clean_linker_0, # of connection points: 2
#     Edge 45, Type (0, 0), BuildingBlock: AJUNOK_clean_linker_0, # of connection points: 2
#     Edge 46, Type (0, 0), BuildingBlock: AJUNOK_clean_linker_0, # of connection points: 2
#     Edge 47, Type (0, 0), BuildingBlock: AJUNOK_clean_linker_0, # of connection points: 2
# Relax obj value: 0.055
# Max RMSD: 0.206
# Mean RMSD: 0.206
data_MOF--net-ukk--node1-KOZSID_clean_sbu_0--edge1-AJUNOK_clean_linker_0
_symmetry_space_group_name_H-M    P1
_symmetry_Int_Tables_number       1
_symmetry_cell_setting            triclinic
loop_
_symmetry_equiv_pos_as_xyz
'x, y, z'
_cell_length_a     50.358836
_cell_length_b     50.353304
_cell_length_c     21.431393
_cell_angle_alpha  89.961923
_cell_angle_beta   90.001112
_cell_angle_gamma 89.994851
loop_
_atom_site_label
_atom_site_type_symbol
_atom_site_fract_x
_atom_site_fract_y
_atom_site_fract_z
_atom_type_partial_charge
C0 C 0.36666 0.08498 0.18841 0.0
C1 C 0.3486 0.07497 0.23136 0.0
C2 C 0.33168 0.09536 0.24599 0.0
C3 C 0.34038 0.11664 0.21155 0.0
N4 N 0.3618 0.11103 0.1765 0.0
Co5 Co 0.38023 0.1364 0.12011 0.0
N6 N 0.36453 0.16763 0.16304 0.0
C7 C 0.34181 0.16693 0.19619 0.0
C8 C 0.33232 0.19161 0.21111 0.0
C9 C 0.35011 0.20904 0.1856 0.0
C10 C 0.37004 0.19398 0.15776 0.0
N11 N 0.39873 0.16212 0.06447 0.0
C12 C 0.40452 0.1884 0.0734 0.0
C13 C 0.42122 0.19732 0.02622 0.0
C14 C 0.42452 0.17661 0.98522 0.0
C15 C 0.41038 0.15581 0.00991 0.0
N16 N 0.3953 0.10481 0.07719 0.0
C17 C 0.40604 0.1049 0.0198 0.0
C18 C 0.41486 0.08019 1.00197 0.0
C19 C 0.40913 0.06357 0.05118 0.0
C20 C 0.39717 0.07909 0.09657 0.0
N21 N 0.34939 0.13581 0.06129 0.0
C22 C 0.30891 0.13483 0.96775 0.0
C23 C 0.31752 0.11148 0.9979 0.0
C24 C 0.33755 0.11238 0.04415 0.0
C25 C 0.32056 0.15875 0.98792 0.0
C26 C 0.34063 0.1588 0.03378 0.0
N27 N 0.41161 0.13684 0.17628 0.0
C28 C 0.45936 0.133 0.18625 0.0
C29 C 0.4582 0.1359 0.25112 0.0
C30 C 0.43283 0.13954 0.27787 0.0
C31 C 0.40981 0.13987 0.23968 0.0
C32 C 0.43624 0.13357 0.15026 0.0
H33 H 0.39059 0.14244 0.26128 0.0
H34 H 0.43856 0.13126 0.1008 0.0
H35 H 0.34385 0.09393 0.06506 0.0
H36 H 0.34935 0.17762 0.04613 0.0
C37 C 0.3313 0.14277 0.21679 0.0
C38 C 0.3865 0.06863 0.15593 0.0
C39 C 0.39271 0.20552 0.12306 0.0
C40 C 0.41214 0.12915 0.99058 0.0
H41 H 0.34748 0.05494 0.24948 0.0
H42 H 0.31543 0.09489 0.27902 0.0
H43 H 0.31462 0.1964 0.23744 0.0
H44 H 0.34818 0.23042 0.18649 0.0
H45 H 0.43062 0.21649 0.02187 0.0
H46 H 0.43711 0.17634 0.9443 0.0
H47 H 0.42532 0.07505 0.95955 0.0
H48 H 0.4133 0.04251 0.05353 0.0
H49 H 0.30932 0.09241 0.98483 0.0
H50 H 0.31423 0.17756 0.96853 0.0
H51 H 0.47826 0.1306 0.16277 0.0
H52 H 0.4307 0.14169 0.32786 0.0
C53 C 0.07749 0.63189 0.91533 0.0
C54 C 0.06347 0.62082 0.96452 0.0
C55 C 0.08137 0.61718 0.01231 0.0
C56 C 0.10531 0.6262 0.9898 0.0
N57 N 0.10357 0.63517 0.93088 0.0
Co58 Co 0.13367 0.64965 0.88107 0.0
N59 N 0.16116 0.63414 0.93727 0.0
C60 C 0.15647 0.6255 0.99573 0.0
C61 C 0.17913 0.61734 0.02581 0.0
C62 C 0.19941 0.62143 0.98402 0.0
C63 C 0.18803 0.63179 0.93028 0.0
N64 N 0.16347 0.664 0.82984 0.0
C65 C 0.18962 0.65723 0.8283 0.0
C66 C 0.20246 0.6699 0.77917 0.0
C67 C 0.18427 0.68632 0.75179 0.0
C68 C 0.16118 0.68229 0.78422 0.0
N69 N 0.10638 0.66555 0.82502 0.0
C70 C 0.1106 0.68511 0.78339 0.0
C71 C 0.08814 0.69232 0.7513 0.0
C72 C 0.06846 0.67627 0.77402 0.0
C73 C 0.0801 0.66009 0.8188 0.0
N74 N 0.13356 0.68239 0.9342 0.0
C75 C 0.13353 0.72313 0.02742 0.0
C76 C 0.15729 0.71278 1.00268 0.0
C77 C 0.15689 0.69282 0.95638 0.0
C78 C 0.10976 0.71299 1.00219 0.0
C79 C 0.11019 0.693 0.95578 0.0
N80 N 0.13373 0.61642 0.83096 0.0
C81 C 0.13369 0.59232 0.7328 0.0
C82 C 0.13309 0.56764 0.76398 0.0
C83 C 0.13283 0.5683 0.82939 0.0
C84 C 0.13315 0.59253 0.86152 0.0
C85 C 0.13399 0.61638 0.767 0.0
H86 H 0.13288 0.59175 0.91164 0.0
H87 H 0.1343 0.63491 0.7417 0.0
H88 H 0.17566 0.68517 0.94029 0.0
H89 H 0.09144 0.68558 0.93877 0.0
C90 C 0.1303 0.62285 0.01792 0.0
C91 C 0.06529 0.64067 0.85612 0.0
C92 C 0.20366 0.64161 0.87642 0.0
C93 C 0.13639 0.69219 0.76689 0.0
H94 H 0.04253 0.61603 0.96574 0.0
H95 H 0.07753 0.60815 0.05726 0.0
H96 H 0.18074 0.60913 0.07234 0.0
H97 H 0.22025 0.61774 0.99269 0.0
H98 H 0.22302 0.66799 0.76526 0.0
H99 H 0.18732 0.69898 0.71158 0.0
H100 H 0.08653 0.70655 0.71361 0.0
H101 H 0.04795 0.67636 0.75897 0.0
H102 H 0.17631 0.71931 0.02049 0.0
H103 H 0.09078 0.72033 0.01846 0.0
H104 H 0.13351 0.59313 0.68234 0.0
H105 H 0.1327 0.55004 0.85614 0.0
C106 C 0.66321 0.94374 0.2011 0.0
C107 C 0.67918 0.95397 0.24805 0.0
C108 C 0.69431 0.93333 0.26964 0.0
C109 C 0.68676 0.91174 0.23479 0.0
N110 N 0.66786 0.91741 0.19254 0.0
Co111 Co 0.65124 0.89175 0.13361 0.0
N112 N 0.66446 0.86048 0.18175 0.0
C113 C 0.68313 0.86129 0.22683 0.0
C114 C 0.68696 0.83734 0.25581 0.0
C115 C 0.67 0.82019 0.22671 0.0
C116 C 0.65711 0.8345 0.18015 0.0
N117 N 0.63435 0.866 0.07533 0.0
C118 C 0.63062 0.83919 0.0802 0.0
C119 C 0.61946 0.82921 0.02583 0.0
C120 C 0.61622 0.8503 0.98592 0.0
C121 C 0.62564 0.87202 0.01765 0.0
N122 N 0.63902 0.92333 0.0852 0.0
C123 C 0.63055 0.92287 0.02573 0.0
C124 C 0.62312 0.94757 1.0045 0.0
C125 C 0.62727 0.96459 0.05373 0.0
C126 C 0.63699 0.9493 0.1024 0.0
N127 N 0.68416 0.89117 0.08122 0.0
C128 C 0.72533 0.891 0.98941 0.0
C129 C 0.71646 0.9147 0.01729 0.0
C130 C 0.69629 0.91434 0.06318 0.0
C131 C 0.71357 0.86732 0.01073 0.0
C132 C 0.69331 0.86781 0.05626 0.0
N133 N 0.61764 0.89233 0.18363 0.0
C134 C 0.57087 0.90353 0.18984 0.0
C135 C 0.56772 0.89083 0.24783 0.0
C136 C 0.59117 0.8804 0.27459 0.0
C137 C 0.61582 0.88209 0.24288 0.0
C138 C 0.59501 0.90261 0.1576 0.0
H139 H 0.63317 0.87454 0.2663 0.0
H140 H 0.59477 0.91024 0.11089 0.0
H141 H 0.68994 0.93307 0.08257 0.0
H142 H 0.68446 0.84917 0.06955 0.0
C143 C 0.6933 0.88545 0.24781 0.0
C144 C 0.64504 0.95996 0.16352 0.0
C145 C 0.64005 0.82217 0.13219 0.0
C146 C 0.62508 0.89849 0.99677 0.0
H147 H 0.67979 0.97421 0.26495 0.0
H148 H 0.70826 0.93378 0.30805 0.0
H149 H 0.69971 0.83309 0.29524 0.0
H150 H 0.6676 0.79944 0.23851 0.0
H151 H 0.61483 0.80872 0.01529 0.0
H152 H 0.60796 0.84981 0.93931 0.0
H153 H 0.61449 0.95245 0.95969 0.0
H154 H 0.62343 0.98573 0.05401 0.0
H155 H 0.72499 0.93356 1.00352 0.0
H156 H 0.71927 0.84841 0.99079 0.0
H157 H 0.55488 0.91434 0.16799 0.0
H158 H 0.59069 0.87063 0.31952 0.0
C159 C 0.94873 0.39754 0.91899 0.0
C160 C 0.96456 0.40944 0.96387 0.0
C161 C 0.94822 0.41548 0.01328 0.0
C162 C 0.92333 0.40693 0.99608 0.0
N163 N 0.92305 0.39599 0.93889 0.0
Co164 Co 0.89103 0.38132 0.89663 0.0
N165 N 0.86578 0.40005 0.95309 0.0
C166 C 0.87259 0.41235 1.00654 0.0
C167 C 0.8523 0.4275 0.03024 0.0
C168 C 0.83137 0.42408 0.98998 0.0
C169 C 0.83954 0.40611 0.94479 0.0
N170 N 0.85936 0.36603 0.85426 0.0
C171 C 0.83303 0.37166 0.86017 0.0
C172 C 0.81778 0.35255 0.8298 0.0
C173 C 0.83501 0.33497 0.80302 0.0
C174 C 0.85977 0.34382 0.8192 0.0
N175 N 0.916 0.36275 0.83941 0.0
C176 C 0.91002 0.34157 0.80394 0.0
C177 C 0.9311 0.33264 0.7692 0.0
C178 C 0.95176 0.34919 0.78394 0.0
C179 C 0.94207 0.36731 0.82709 0.0
N180 N 0.89159 0.35034 0.95515 0.0
C181 C 0.89281 0.30881 0.04638 0.0
C182 C 0.91607 0.31786 0.01652 0.0
C183 C 0.91503 0.33826 0.97122 0.0
C184 C 0.86892 0.32122 0.02851 0.0
C185 C 0.86874 0.3417 0.98348 0.0
N186 N 0.89067 0.41281 0.84056 0.0
C187 C 0.88763 0.43408 0.73899 0.0
C188 C 0.89219 0.45934 0.76542 0.0
C189 C 0.89527 0.46051 0.83023 0.0
C190 C 0.8945 0.4374 0.86635 0.0
C191 C 0.88712 0.41107 0.77726 0.0
H192 H 0.89712 0.43973 0.91569 0.0
H193 H 0.88399 0.39192 0.7558 0.0
H194 H 0.93342 0.34462 0.95016 0.0
H195 H 0.84994 0.35079 0.97236 0.0
C196 C 0.89932 0.41373 0.02532 0.0
C197 C 0.95878 0.38691 0.85925 0.0
C198 C 0.82159 0.3934 0.89811 0.0
C199 C 0.88375 0.33311 0.79822 0.0
H200 H 0.98563 0.41347 0.96094 0.0
H201 H 0.95362 0.42609 0.05531 0.0
H202 H 0.85311 0.44081 0.06984 0.0
H203 H 0.81242 0.43404 0.99341 0.0
H204 H 0.7964 0.35082 0.82845 0.0
H205 H 0.83005 0.31777 0.77509 0.0
H206 H 0.93126 0.31652 0.73582 0.0
H207 H 0.97176 0.34782 0.76572 0.0
H208 H 0.93526 0.30979 0.02904 0.0
H209 H 0.85027 0.31515 0.04918 0.0
H210 H 0.88484 0.43207 0.68912 0.0
H211 H 0.89795 0.4794 0.85356 0.0
C212 C 0.36926 0.44417 0.08454 0.0
C213 C 0.3513 0.4544 0.04167 0.0
C214 C 0.33462 0.434 0.02576 0.0
C215 C 0.34333 0.41253 0.05959 0.0
N216 N 0.36448 0.41804 0.09558 0.0
Co217 Co 0.3829 0.39243 0.15154 0.0
N218 N 0.36747 0.36123 0.10743 0.0
C219 C 0.34533 0.36212 0.07213 0.0
C220 C 0.3363 0.33759 0.05473 0.0
C221 C 0.35367 0.31999 0.08096 0.0
C222 C 0.37285 0.3348 0.11226 0.0
N223 N 0.40147 0.36656 0.2068 0.0
C224 C 0.40728 0.34033 0.19741 0.0
C225 C 0.42521 0.33164 0.24219 0.0
C226 C 0.42886 0.35221 0.28331 0.0
C227 C 0.41387 0.37282 0.26051 0.0
N228 N 0.39771 0.42396 0.19551 0.0
C229 C 0.40869 0.42368 0.25265 0.0
C230 C 0.41748 0.44834 0.27094 0.0
C231 C 0.41154 0.46516 0.22228 0.0
C232 C 0.39949 0.4498 0.17677 0.0
N233 N 0.35183 0.39254 0.20993 0.0
C234 C 0.30964 0.39262 0.29931 0.0
C235 C 0.31891 0.41627 0.27177 0.0
C236 C 0.33968 0.4158 0.22725 0.0
C237 C 0.32219 0.36897 0.28052 0.0
C238 C 0.34302 0.36935 0.23647 0.0
N239 N 0.41443 0.39242 0.09547 0.0
C240 C 0.46224 0.3962 0.08521 0.0
C241 C 0.46107 0.39337 0.02027 0.0
C242 C 0.43562 0.38998 0.9937 0.0
C243 C 0.41262 0.38959 0.032 0.0
C244 C 0.4391 0.39569 0.12134 0.0
H245 H 0.3934 0.38712 0.01037 0.0
H246 H 0.44146 0.39799 0.17078 0.0
H247 H 0.3461 0.43442 0.20738 0.0
H248 H 0.35225 0.3507 0.22475 0.0
C249 C 0.33477 0.38637 0.05234 0.0
C250 C 0.38905 0.46036 0.11739 0.0
C251 C 0.39435 0.32284 0.15015 0.0
C252 C 0.41542 0.39936 0.28061 0.0
H253 H 0.35017 0.47456 0.02434 0.0
H254 H 0.31859 0.43457 0.99215 0.0
H255 H 0.31909 0.33301 0.02647 0.0
H256 H 0.35171 0.29864 0.07871 0.0
H257 H 0.43495 0.31254 0.24485 0.0
H258 H 0.44216 0.35256 0.32297 0.0
H259 H 0.4282 0.45329 0.31313 0.0
H260 H 0.41579 0.48621 0.22021 0.0
H261 H 0.31001 0.43512 0.28413 0.0
H262 H 0.31639 0.35015 0.30083 0.0
H263 H 0.48115 0.39848 0.10868 0.0
H264 H 0.43337 0.38803 0.94369 0.0
C265 C 0.44911 0.62853 0.84403 0.0
C266 C 0.46291 0.6127 0.80231 0.0
C267 C 0.44474 0.6036 0.75982 0.0
C268 C 0.42087 0.61426 0.77801 0.0
N269 N 0.4228 0.63007 0.82873 0.0
Co270 Co 0.39224 0.64649 0.87518 0.0
N271 N 0.36484 0.63016 0.81883 0.0
C272 C 0.37002 0.61674 0.76558 0.0
C273 C 0.34753 0.60886 0.73458 0.0
C274 C 0.32678 0.61778 0.77011 0.0
C275 C 0.33771 0.63042 0.82155 0.0
N276 N 0.36191 0.66155 0.92471 0.0
C277 C 0.33537 0.65637 0.92234 0.0
C278 C 0.32221 0.66742 0.97312 0.0
C279 C 0.34066 0.68101 1.0068 0.0
C280 C 0.36411 0.67694 0.97607 0.0
N281 N 0.41941 0.66375 0.93048 0.0
C282 C 0.41448 0.68161 0.97595 0.0
C283 C 0.43679 0.69025 1.00638 0.0
C284 C 0.45727 0.67687 0.97922 0.0
C285 C 0.4462 0.66069 0.93368 0.0
N286 N 0.39274 0.67889 0.81794 0.0
C287 C 0.39072 0.72294 0.732 0.0
C288 C 0.38525 0.72615 0.79601 0.0
C289 C 0.38611 0.70408 0.83761 0.0
C290 C 0.39789 0.69741 0.71294 0.0
C291 C 0.39905 0.67623 0.75575 0.0
N292 N 0.39184 0.61394 0.92977 0.0
C293 C 0.39648 0.59142 0.0301 0.0
C294 C 0.3948 0.56623 1.00182 0.0
C295 C 0.39067 0.56575 0.93737 0.0
C296 C 0.3893 0.58933 0.90292 0.0
C297 C 0.39508 0.61488 0.99344 0.0
H298 H 0.38637 0.587 0.85407 0.0
H299 H 0.39688 0.63362 0.01704 0.0
H300 H 0.38115 0.70782 0.88541 0.0
H301 H 0.40508 0.65782 0.73649 0.0
C302 C 0.39611 0.6094 0.74995 0.0
C303 C 0.46179 0.64162 0.89767 0.0
C304 C 0.32153 0.64226 0.87183 0.0
C305 C 0.38867 0.6863 0.9959 0.0
H306 H 0.48389 0.608 0.80309 0.0
H307 H 0.44841 0.59032 0.72109 0.0
H308 H 0.34634 0.59739 0.69197 0.0
H309 H 0.30596 0.61499 0.75958 0.0
H310 H 0.30137 0.66595 0.98477 0.0
H311 H 0.33745 0.69206 0.04945 0.0
H312 H 0.43788 0.70353 0.04599 0.0
H313 H 0.4779 0.67813 0.99304 0.0
H314 H 0.37972 0.74551 0.81377 0.0
H315 H 0.40288 0.69369 0.66454 0.0
H316 H 0.39936 0.59302 0.08002 0.0
H317 H 0.38831 0.54703 0.91309 0.0
C318 C 0.66037 0.58113 0.07071 0.0
C319 C 0.67673 0.56986 0.02581 0.0
C320 C 0.6924 0.58987 1.0032 0.0
C321 C 0.68475 0.61215 0.03532 0.0
N322 N 0.66523 0.60754 0.07678 0.0
Co323 Co 0.64869 0.63454 0.13258 0.0
N324 N 0.66284 0.66466 0.08204 0.0
C325 C 0.68155 0.66273 0.03729 0.0
C326 C 0.68573 0.68602 1.00576 0.0
C327 C 0.66895 0.70396 0.03279 0.0
C328 C 0.65583 0.69077 0.08076 0.0
N329 N 0.6325 0.66169 0.18854 0.0
C330 C 0.62969 0.68851 0.1816 0.0
C331 C 0.61922 0.69968 0.23549 0.0
C332 C 0.6154 0.67931 0.27712 0.0
C333 C 0.62386 0.65682 0.24691 0.0
N334 N 0.63448 0.60419 0.18208 0.0
C335 C 0.62534 0.60575 0.24087 0.0
C336 C 0.61685 0.58164 0.26351 0.0
C337 C 0.62107 0.56379 0.21598 0.0
C338 C 0.63191 0.57802 0.16685 0.0
N339 N 0.68123 0.63481 0.18629 0.0
C340 C 0.72191 0.63513 0.27949 0.0
C341 C 0.71235 0.61128 0.25348 0.0
C342 C 0.69228 0.61154 0.2073 0.0
C343 C 0.71148 0.65881 0.25446 0.0
C344 C 0.6914 0.65824 0.20847 0.0
N345 N 0.61575 0.63416 0.08143 0.0
C346 C 0.56767 0.63198 0.07761 0.0
C347 C 0.56758 0.6325 0.01216 0.0
C348 C 0.59242 0.63435 0.98221 0.0
C349 C 0.61618 0.63498 0.0175 0.0
C350 C 0.59165 0.63279 0.11093 0.0
H351 H 0.63486 0.63608 0.99302 0.0
H352 H 0.59053 0.63231 0.16104 0.0
H353 H 0.68512 0.59272 0.19012 0.0
H354 H 0.68362 0.67695 0.19221 0.0
C355 C 0.69168 0.63808 0.01962 0.0
C356 C 0.64141 0.56587 0.10837 0.0
C357 C 0.63916 0.70435 0.12769 0.0
C358 C 0.62156 0.63063 0.26901 0.0
H359 H 0.67724 0.54937 0.01069 0.0
H360 H 0.70673 0.58854 0.96569 0.0
H361 H 0.69867 0.68934 0.96617 0.0
H362 H 0.66691 0.7245 0.01886 0.0
H363 H 0.61533 0.72045 0.2445 0.0
H364 H 0.6072 0.68074 0.32367 0.0
H365 H 0.6079 0.57762 0.30845 0.0
H366 H 0.61692 0.54271 0.21743 0.0
H367 H 0.71968 0.59235 0.27011 0.0
H368 H 0.71866 0.67789 0.27044 0.0
H369 H 0.5492 0.63138 0.10343 0.0
H370 H 0.59354 0.63498 0.93178 0.0
C371 C 0.57768 0.398 0.84576 0.0
C372 C 0.56223 0.40996 0.80021 0.0
C373 C 0.57892 0.41574 0.7512 0.0
C374 C 0.60362 0.40696 0.7693 0.0
N375 N 0.60345 0.39616 0.82665 0.0
Co376 Co 0.63501 0.38107 0.86982 0.0
N377 N 0.6608 0.39957 0.81435 0.0
C378 C 0.65454 0.41128 0.7598 0.0
C379 C 0.6754 0.42535 0.73515 0.0
C380 C 0.69609 0.42192 0.77614 0.0
C381 C 0.6871 0.40523 0.82329 0.0
N382 N 0.66619 0.36533 0.91301 0.0
C383 C 0.69256 0.37072 0.90774 0.0
C384 C 0.70753 0.35073 0.93568 0.0
C385 C 0.69004 0.33303 0.96125 0.0
C386 C 0.66541 0.34262 0.94625 0.0
N387 N 0.60955 0.36263 0.926 0.0
C388 C 0.6151 0.34119 0.96109 0.0
C389 C 0.59377 0.33243 0.99521 0.0
C390 C 0.57339 0.34932 0.98034 0.0
C391 C 0.58346 0.36744 0.93757 0.0
N392 N 0.63451 0.35022 0.8111 0.0
C393 C 0.6339 0.30879 0.72022 0.0
C394 C 0.61038 0.31791 0.74855 0.0
C395 C 0.61112 0.33832 0.79385 0.0
C396 C 0.65768 0.32101 0.73907 0.0
C397 C 0.65756 0.34147 0.78391 0.0
N398 N 0.63541 0.41244 0.92597 0.0
C399 C 0.63809 0.43362 0.02758 0.0
C400 C 0.63459 0.45902 1.00081 0.0
C401 C 0.63177 0.46021 0.93591 0.0
C402 C 0.63225 0.43709 0.89993 0.0
C403 C 0.63839 0.41061 0.98939 0.0
H404 H 0.62999 0.43943 0.85046 0.0
H405 H 0.64088 0.39137 0.01101 0.0
H406 H 0.5926 0.34471 0.81428 0.0
H407 H 0.6763 0.35052 0.79562 0.0
C408 C 0.6279 0.41308 0.74029 0.0
C409 C 0.56714 0.38727 0.90496 0.0
C410 C 0.70422 0.39327 0.87282 0.0
C411 C 0.64121 0.33212 0.96661 0.0
H412 H 0.54115 0.41408 0.80233 0.0
H413 H 0.57384 0.42621 0.70872 0.0
H414 H 0.67518 0.43793 0.69419 0.0
H415 H 0.71533 0.43119 0.77178 0.0
H416 H 0.7289 0.34868 0.93653 0.0
H417 H 0.69475 0.3153 0.98756 0.0
H418 H 0.59324 0.31614 0.02816 0.0
H419 H 0.55331 0.34814 0.99815 0.0
H420 H 0.59145 0.30921 0.73612 0.0
H421 H 0.67639 0.31527 0.71815 0.0
H422 H 0.64017 0.43145 0.07759 0.0
H423 H 0.62948 0.47912 0.9124 0.0
C424 C 0.86484 0.58085 0.6914 0.0
C425 C 0.84853 0.56985 0.73681 0.0
C426 C 0.83297 0.59001 0.75901 0.0
C427 C 0.84065 0.61212 0.72623 0.0
N428 N 0.86011 0.60727 0.68475 0.0
Co429 Co 0.87682 0.63402 0.62846 0.0
N430 N 0.86281 0.66437 0.67838 0.0
C431 C 0.84412 0.66267 0.72323 0.0
C432 C 0.83998 0.68611 0.75412 0.0
C433 C 0.85677 0.7039 0.72656 0.0
C434 C 0.86987 0.69046 0.67898 0.0
N435 N 0.89314 0.66091 0.57193 0.0
C436 C 0.89609 0.68774 0.57831 0.0
C437 C 0.90672 0.69867 0.52431 0.0
C438 C 0.91049 0.67815 0.48315 0.0
C439 C 0.90185 0.65581 0.51374 0.0
N440 N 0.89095 0.60344 0.5797 0.0
C441 C 0.90024 0.60476 0.521 0.0
C442 C 0.90883 0.58056 0.49914 0.0
C443 C 0.90451 0.56291 0.54709 0.0
C444 C 0.89352 0.57735 0.59568 0.0
N445 N 0.84429 0.63431 0.57474 0.0
C446 C 0.8028 0.63469 0.48354 0.0
C447 C 0.81281 0.61082 0.50849 0.0
C448 C 0.83317 0.61105 0.55396 0.0
C449 C 0.81376 0.65836 0.50717 0.0
C450 C 0.83416 0.65776 0.55239 0.0
N451 N 0.90976 0.63365 0.67965 0.0
C452 C 0.95785 0.63196 0.68341 0.0
C453 C 0.95801 0.6326 0.74887 0.0
C454 C 0.93311 0.6337 0.77887 0.0
C455 C 0.90934 0.63421 0.74359 0.0
C456 C 0.93386 0.63249 0.65015 0.0
H457 H 0.89064 0.63497 0.7681 0.0
H458 H 0.93499 0.63195 0.60005 0.0
H459 H 0.84036 0.59223 0.5711 0.0
H460 H 0.84228 0.67645 0.56773 0.0
C461 C 0.83389 0.63814 0.74144 0.0
C462 C 0.8838 0.5654 0.65422 0.0
C463 C 0.8866 0.7038 0.63176 0.0
C464 C 0.90413 0.62953 0.49229 0.0
H465 H 0.84803 0.54946 0.75271 0.0
H466 H 0.81873 0.58891 0.79675 0.0
H467 H 0.82703 0.68963 0.79358 0.0
H468 H 0.85884 0.7245 0.73988 0.0
H469 H 0.91077 0.71939 0.51495 0.0
H470 H 0.91882 0.67938 0.43668 0.0
H471 H 0.91791 0.57636 0.45446 0.0
H472 H 0.90868 0.54183 0.54629 0.0
H473 H 0.805 0.59193 0.49286 0.0
H474 H 0.80729 0.67741 0.48941 0.0
H475 H 0.97631 0.63141 0.6575 0.0
H476 H 0.93187 0.63378 0.82928 0.0
C477 C 0.57724 0.13408 0.41712 0.0
C478 C 0.56285 0.12404 0.46693 0.0
C479 C 0.58055 0.12057 0.5151 0.0
C480 C 0.60472 0.12866 0.49213 0.0
N481 N 0.60338 0.13686 0.43251 0.0
Co482 Co 0.63392 0.15028 0.38232 0.0
N483 N 0.66087 0.13538 0.4409 0.0
C484 C 0.65574 0.12759 0.49982 0.0
C485 C 0.6781 0.11977 0.53151 0.0
C486 C 0.69868 0.12315 0.49032 0.0
C487 C 0.68776 0.13279 0.43532 0.0
N488 N 0.66422 0.16351 0.33094 0.0
C489 C 0.69035 0.15662 0.33136 0.0
C490 C 0.70372 0.16843 0.28185 0.0
C491 C 0.68585 0.1844 0.25194 0.0
C492 C 0.66243 0.18098 0.28347 0.0
N493 N 0.6071 0.16562 0.32403 0.0
C494 C 0.61187 0.18421 0.28029 0.0
C495 C 0.58969 0.19126 0.24702 0.0
C496 C 0.56958 0.17621 0.27126 0.0
C497 C 0.58068 0.16076 0.31818 0.0
N498 N 0.63383 0.18378 0.43232 0.0
C499 C 0.6339 0.22572 0.52203 0.0
C500 C 0.65764 0.21539 0.4972 0.0
C501 C 0.65719 0.19463 0.45304 0.0
C502 C 0.61009 0.21551 0.49726 0.0
C503 C 0.61048 0.19485 0.45264 0.0
N504 N 0.63399 0.11641 0.33483 0.0
C505 C 0.63512 0.09126 0.23824 0.0
C506 C 0.63389 0.06698 0.27081 0.0
C507 C 0.63311 0.0683 0.33617 0.0
C508 C 0.63306 0.09289 0.36687 0.0
C509 C 0.63502 0.11566 0.27094 0.0
H510 H 0.63236 0.09271 0.41702 0.0
H511 H 0.63576 0.13387 0.24448 0.0
H512 H 0.67595 0.18687 0.4372 0.0
H513 H 0.59171 0.18723 0.43628 0.0
C514 C 0.62947 0.12546 0.52129 0.0
C515 C 0.56522 0.14266 0.35769 0.0
C516 C 0.70386 0.14171 0.3815 0.0
C517 C 0.63786 0.19069 0.26405 0.0
H518 H 0.54176 0.11996 0.4684 0.0
H519 H 0.57638 0.11239 0.56078 0.0
H520 H 0.67931 0.11225 0.57875 0.0
H521 H 0.71943 0.1195 0.50021 0.0
H522 H 0.72442 0.16626 0.26937 0.0
H523 H 0.68933 0.19638 0.21077 0.0
H524 H 0.58851 0.20478 0.20783 0.0
H525 H 0.54911 0.17649 0.25588 0.0
H526 H 0.67667 0.22311 0.51204 0.0
H527 H 0.59112 0.22277 0.51375 0.0
H528 H 0.63587 0.09145 0.18775 0.0
H529 H 0.63299 0.05034 0.36399 0.0
C530 C 0.15929 0.4441 0.69883 0.0
C531 C 0.17524 0.4552 0.74477 0.0
C532 C 0.19085 0.43515 0.76741 0.0
C533 C 0.18364 0.41302 0.73412 0.0
N534 N 0.16446 0.41779 0.69188 0.0
Co535 Co 0.14883 0.3911 0.6339 0.0
N536 N 0.16261 0.36068 0.6841 0.0
C537 C 0.18086 0.36242 0.72989 0.0
C538 C 0.18526 0.33881 0.75998 0.0
C539 C 0.16909 0.32089 0.73088 0.0
C540 C 0.15607 0.33444 0.68333 0.0
N541 N 0.13359 0.36426 0.57568 0.0
C542 C 0.13088 0.33737 0.58128 0.0
C543 C 0.12098 0.32657 0.52642 0.0
C544 C 0.11745 0.34723 0.48546 0.0
C545 C 0.1255 0.36953 0.51706 0.0
N546 N 0.13494 0.42174 0.58485 0.0
C547 C 0.12638 0.42056 0.52552 0.0
C548 C 0.11781 0.44475 0.50353 0.0
C549 C 0.12133 0.46225 0.55207 0.0
C550 C 0.13192 0.44776 0.60112 0.0
N551 N 0.18205 0.39145 0.58248 0.0
C552 C 0.22442 0.39179 0.49342 0.0
C553 C 0.21397 0.41548 0.51839 0.0
C554 C 0.1931 0.4149 0.5626 0.0
C555 C 0.21389 0.36795 0.51739 0.0
C556 C 0.19293 0.3682 0.56113 0.0
N557 N 0.11527 0.39084 0.68284 0.0
C558 C 0.06712 0.39202 0.68374 0.0
C559 C 0.06627 0.39153 0.7492 0.0
C560 C 0.09087 0.39069 0.78062 0.0
C561 C 0.115 0.39029 0.74678 0.0
C562 C 0.09148 0.3917 0.65189 0.0
H563 H 0.13344 0.38974 0.77241 0.0
H564 H 0.09091 0.39223 0.60173 0.0
H565 H 0.18539 0.43359 0.57923 0.0
H566 H 0.18512 0.34936 0.5764 0.0
C567 C 0.19063 0.38701 0.74912 0.0
C568 C 0.14054 0.45951 0.66087 0.0
C569 C 0.13994 0.32115 0.63493 0.0
C570 C 0.12314 0.39587 0.49608 0.0
H571 H 0.17552 0.47563 0.76042 0.0
H572 H 0.20489 0.43633 0.80556 0.0
H573 H 0.19801 0.33523 0.79977 0.0
H574 H 0.16741 0.30012 0.7431 0.0
H575 H 0.11723 0.30584 0.51644 0.0
H576 H 0.10965 0.34612 0.43848 0.0
H577 H 0.1092 0.44902 0.45835 0.0
H578 H 0.11682 0.48326 0.55137 0.0
H579 H 0.2213 0.43454 0.50254 0.0
H580 H 0.2217 0.34898 0.5024 0.0
H581 H 0.04895 0.39238 0.65675 0.0
H582 H 0.0916 0.39078 0.83109 0.0
C583 C 0.4492 0.89456 0.41557 0.0
C584 C 0.46328 0.91302 0.45036 0.0
C585 C 0.445 0.92742 0.48329 0.0
C586 C 0.42078 0.91722 0.46659 0.0
N587 N 0.42241 0.89682 0.42609 0.0
Co588 Co 0.39115 0.8799 0.38302 0.0
N589 N 0.36431 0.89937 0.43491 0.0
C590 C 0.36989 0.91884 0.47591 0.0
C591 C 0.34794 0.92816 0.50682 0.0
C592 C 0.32701 0.91399 0.48334 0.0
C593 C 0.3373 0.89694 0.43858 0.0
N594 N 0.36038 0.86348 0.33775 0.0
C595 C 0.33367 0.8661 0.34582 0.0
C596 C 0.31979 0.85435 0.29694 0.0
C597 C 0.33812 0.84314 0.25845 0.0
C598 C 0.36213 0.84915 0.28471 0.0
N599 N 0.41774 0.85978 0.33183 0.0
C600 C 0.41223 0.84288 0.2849 0.0
C601 C 0.43378 0.82877 0.26432 0.0
C602 C 0.45454 0.83772 0.29935 0.0
C603 C 0.44451 0.85741 0.33811 0.0
N604 N 0.391 0.85026 0.44617 0.0
C605 C 0.38985 0.80875 0.53855 0.0
C606 C 0.38828 0.80334 0.47396 0.0
C607 C 0.38855 0.8241 0.42922 0.0
C608 C 0.39242 0.8357 0.55481 0.0
C609 C 0.39309 0.85578 0.50872 0.0
N610 N 0.39103 0.9102 0.32212 0.0
C611 C 0.41507 0.94458 0.26569 0.0
C612 C 0.39184 0.95948 0.25628 0.0
C613 C 0.36796 0.94809 0.27693 0.0
C614 C 0.36797 0.9237 0.30924 0.0
C615 C 0.41418 0.92017 0.29794 0.0
H616 H 0.34917 0.91646 0.32559 0.0
H617 H 0.43252 0.90995 0.30464 0.0
H618 H 0.3868 0.81873 0.38084 0.0
H619 H 0.39514 0.87589 0.52453 0.0
C620 C 0.39612 0.92649 0.48706 0.0
C621 C 0.46173 0.87706 0.36856 0.0
C622 C 0.32055 0.88051 0.39705 0.0
C623 C 0.38644 0.83991 0.26327 0.0
H624 H 0.48445 0.91648 0.4505 0.0
H625 H 0.44889 0.94389 0.51439 0.0
H626 H 0.34725 0.94325 0.54272 0.0
H627 H 0.30648 0.91629 0.49709 0.0
H628 H 0.29859 0.85409 0.28902 0.0
H629 H 0.33438 0.83187 0.21636 0.0
H630 H 0.43438 0.81397 0.22773 0.0
H631 H 0.47512 0.83196 0.29365 0.0
H632 H 0.38722 0.7831 0.45732 0.0
H633 H 0.39359 0.84153 0.60334 0.0
H634 H 0.43401 0.9518 0.2488 0.0
H635 H 0.34932 0.95846 0.2704 0.0
C636 C 0.86512 0.94443 0.56927 0.0
C637 C 0.84841 0.95562 0.52493 0.0
C638 C 0.83237 0.93562 0.50375 0.0
C639 C 0.84011 0.91344 0.53625 0.0
N640 N 0.86001 0.91814 0.57663 0.0
Co641 Co 0.87672 0.89138 0.63274 0.0
N642 N 0.86236 0.8611 0.58327 0.0
C643 C 0.84338 0.86286 0.53914 0.0
C644 C 0.83901 0.83943 0.50836 0.0
C645 C 0.85597 0.82161 0.53528 0.0
C646 C 0.86939 0.835 0.58244 0.0
N647 N 0.89305 0.86448 0.68912 0.0
C648 C 0.8959 0.83765 0.68271 0.0
C649 C 0.90655 0.8267 0.73668 0.0
C650 C 0.91044 0.84723 0.77781 0.0
C651 C 0.90184 0.8696 0.74725 0.0
N652 N 0.89118 0.92193 0.68096 0.0
C653 C 0.90051 0.92066 0.73963 0.0
C654 C 0.90937 0.94483 0.76103 0.0
C655 C 0.90522 0.96239 0.71277 0.0
C656 C 0.89401 0.94794 0.66447 0.0
N657 N 0.84443 0.89132 0.68715 0.0
C658 C 0.80451 0.89104 0.78202 0.0
C659 C 0.81406 0.9149 0.75594 0.0
C660 C 0.83373 0.91462 0.70882 0.0
C661 C 0.81446 0.86736 0.75606 0.0
C662 C 0.83422 0.86791 0.70937 0.0
N663 N 0.90942 0.8915 0.58102 0.0
C664 C 0.95746 0.89311 0.57658 0.0
C665 C 0.95739 0.89255 0.51115 0.0
C666 C 0.93243 0.89142 0.48147 0.0
C667 C 0.90878 0.89091 0.51711 0.0
C668 C 0.93359 0.89258 0.61019 0.0
H669 H 0.88999 0.89019 0.49294 0.0
H670 H 0.93486 0.8931 0.66027 0.0
H671 H 0.8409 0.93342 0.6915 0.0
H672 H 0.84175 0.84919 0.69267 0.0
C673 C 0.83305 0.88745 0.52137 0.0
C674 C 0.88463 0.95968 0.6053 0.0
C675 C 0.88633 0.82163 0.62925 0.0
C676 C 0.90428 0.8959 0.76854 0.0
H677 H 0.84794 0.97605 0.50927 0.0
H678 H 0.81775 0.93686 0.46684 0.0
H679 H 0.82581 0.83595 0.46935 0.0
H680 H 0.85792 0.801 0.52185 0.0
H681 H 0.91056 0.80597 0.74602 0.0
H682 H 0.91882 0.84598 0.82422 0.0
H683 H 0.91859 0.94906 0.80554 0.0
H684 H 0.90973 0.9834 0.71315 0.0
H685 H 0.80705 0.93385 0.77321 0.0
H686 H 0.8072 0.84828 0.7719 0.0
H687 H 0.976 0.89364 0.60218 0.0
H688 H 0.93107 0.89134 0.43107 0.0
C689 C 0.94791 0.13282 0.35219 0.0
C690 C 0.9623 0.12223 0.30303 0.0
C691 C 0.94475 0.11889 0.25451 0.0
C692 C 0.92064 0.12759 0.27664 0.0
N693 N 0.92192 0.13607 0.33601 0.0
Co694 Co 0.89147 0.15011 0.38534 0.0
N695 N 0.86449 0.13512 0.3271 0.0
C696 C 0.86963 0.12699 0.26846 0.0
C697 C 0.84724 0.1191 0.23698 0.0
C698 C 0.82665 0.1228 0.27802 0.0
C699 C 0.83759 0.13269 0.33272 0.0
N700 N 0.86125 0.16397 0.43588 0.0
C701 C 0.83508 0.15727 0.43566 0.0
C702 C 0.82175 0.16963 0.48446 0.0
C703 C 0.83971 0.18574 0.51361 0.0
C704 C 0.86314 0.18187 0.48241 0.0
N705 N 0.9183 0.16551 0.44327 0.0
C706 C 0.91373 0.18463 0.48577 0.0
C707 C 0.93594 0.19159 0.51902 0.0
C708 C 0.95584 0.17587 0.49611 0.0
C709 C 0.94457 0.16012 0.45004 0.0
N710 N 0.89201 0.18335 0.33412 0.0
C711 C 0.89299 0.2254 0.24464 0.0
C712 C 0.86896 0.21528 0.26821 0.0
C713 C 0.86888 0.19442 0.31236 0.0
C714 C 0.91651 0.21475 0.26987 0.0
C715 C 0.9156 0.19409 0.31443 0.0
N716 N 0.89107 0.11654 0.43412 0.0
C717 C 0.89095 0.09211 0.53184 0.0
C718 C 0.89164 0.06755 0.50032 0.0
C719 C 0.89204 0.06842 0.43487 0.0
C720 C 0.89177 0.09278 0.40308 0.0
C721 C 0.89064 0.11625 0.49806 0.0
H722 H 0.89222 0.09225 0.35292 0.0
H723 H 0.89023 0.13466 0.52374 0.0
H724 H 0.84995 0.18672 0.32729 0.0
H725 H 0.93418 0.18632 0.33161 0.0
C726 C 0.89592 0.1245 0.24728 0.0
C727 C 0.95973 0.14126 0.41196 0.0
C728 C 0.82153 0.14195 0.38627 0.0
C729 C 0.88778 0.19157 0.50143 0.0
H730 H 0.98328 0.11759 0.30227 0.0
H731 H 0.94893 0.11032 0.20927 0.0
H732 H 0.84602 0.1113 0.19002 0.0
H733 H 0.80589 0.11918 0.26822 0.0
H734 H 0.80103 0.1677 0.497 0.0
H735 H 0.83628 0.1981 0.55412 0.0
H736 H 0.93726 0.20547 0.55745 0.0
H737 H 0.97628 0.17592 0.51177 0.0
H738 H 0.85018 0.22278 0.25103 0.0
H739 H 0.93566 0.22225 0.2551 0.0
H740 H 0.89109 0.09279 0.58231 0.0
H741 H 0.89228 0.05025 0.40787 0.0
C742 C 0.16047 0.08054 0.5653 0.0
C743 C 0.17641 0.06951 0.51928 0.0
C744 C 0.19211 0.08958 0.497 0.0
C745 C 0.18494 0.11165 0.53054 0.0
N746 N 0.16571 0.10683 0.57261 0.0
Co747 Co 0.14986 0.13344 0.63042 0.0
N748 N 0.16358 0.16391 0.58039 0.0
C749 C 0.18198 0.16226 0.5349 0.0
C750 C 0.18632 0.1859 0.50487 0.0
C751 C 0.16996 0.20373 0.5337 0.0
C752 C 0.15687 0.19011 0.58103 0.0
N753 N 0.13435 0.16018 0.68847 0.0
C754 C 0.13142 0.18704 0.68273 0.0
C755 C 0.12132 0.19778 0.73746 0.0
C756 C 0.11792 0.17711 0.77846 0.0
C757 C 0.12622 0.15486 0.74703 0.0
N758 N 0.13604 0.10273 0.67929 0.0
C759 C 0.12745 0.10382 0.7386 0.0
C760 C 0.11886 0.07959 0.76031 0.0
C761 C 0.1224 0.06216 0.7116 0.0
C762 C 0.13299 0.07675 0.66273 0.0
N763 N 0.18294 0.1333 0.68207 0.0
C764 C 0.22559 0.1333 0.7699 0.0
C765 C 0.21492 0.1095 0.74634 0.0
C766 C 0.194 0.10992 0.70232 0.0
C767 C 0.21468 0.15707 0.74677 0.0
C768 C 0.19363 0.15666 0.70336 0.0
N769 N 0.11647 0.13354 0.58123 0.0
C770 C 0.06839 0.13211 0.5801 0.0
C771 C 0.06766 0.13302 0.5147 0.0
C772 C 0.09224 0.13413 0.48334 0.0
C773 C 0.11631 0.13439 0.51732 0.0
C774 C 0.09268 0.13239 0.61205 0.0
H775 H 0.13478 0.13516 0.49186 0.0
H776 H 0.09205 0.13164 0.66219 0.0
H777 H 0.18636 0.09117 0.68585 0.0
H778 H 0.18552 0.17543 0.68852 0.0
C779 C 0.19188 0.1377 0.51572 0.0
C780 C 0.14155 0.06516 0.60278 0.0
C781 C 0.14048 0.2033 0.62913 0.0
C782 C 0.12403 0.12849 0.76805 0.0
H783 H 0.17657 0.04913 0.50326 0.0
H784 H 0.20613 0.08846 0.45881 0.0
H785 H 0.19915 0.18955 0.46526 0.0
H786 H 0.16819 0.22449 0.52142 0.0
H787 H 0.11738 0.21848 0.74734 0.0
H788 H 0.11002 0.17818 0.82536 0.0
H789 H 0.11019 0.07525 0.80539 0.0
H790 H 0.11788 0.04115 0.71202 0.0
H791 H 0.22268 0.09056 0.76184 0.0
H792 H 0.22178 0.17606 0.76359 0.0
H793 H 0.05018 0.13154 0.60693 0.0
H794 H 0.09297 0.13442 0.43287 0.0
C795 C 0.07719 0.89261 0.34648 0.0
C796 C 0.06361 0.90344 0.29633 0.0
C797 C 0.08187 0.9066 0.24913 0.0
C798 C 0.10556 0.89755 0.27297 0.0
N799 N 0.10334 0.88903 0.33216 0.0
Co800 Co 0.13292 0.87464 0.3838 0.0
N801 N 0.16092 0.88946 0.32801 0.0
C802 C 0.15673 0.89761 0.26894 0.0
C803 C 0.1797 0.90503 0.23915 0.0
C804 C 0.19964 0.90098 0.28178 0.0
C805 C 0.18777 0.8914 0.33574 0.0
N806 N 0.16218 0.86045 0.43691 0.0
C807 C 0.1883 0.86721 0.43951 0.0
C808 C 0.20056 0.85532 0.4905 0.0
C809 C 0.1821 0.83922 0.51788 0.0
C810 C 0.15939 0.84275 0.48367 0.0
N811 N 0.10512 0.85935 0.43934 0.0
C812 C 0.10886 0.84009 0.48203 0.0
C813 C 0.0861 0.83326 0.51334 0.0
C814 C 0.06672 0.84922 0.48899 0.0
C815 C 0.07884 0.86499 0.44408 0.0
N816 N 0.13291 0.84156 0.33188 0.0
C817 C 0.13329 0.80146 0.23725 0.0
C818 C 0.15692 0.81103 0.26431 0.0
C819 C 0.15632 0.83077 0.31111 0.0
C820 C 0.1094 0.81137 0.26236 0.0
C821 C 0.10963 0.83115 0.30927 0.0
N822 N 0.13289 0.90826 0.43259 0.0
C823 C 0.13228 0.93318 0.52969 0.0
C824 C 0.13179 0.95759 0.49742 0.0
C825 C 0.13242 0.95642 0.43206 0.0
C826 C 0.13284 0.93193 0.401 0.0
C827 C 0.13269 0.90883 0.49656 0.0
H828 H 0.13312 0.93231 0.35085 0.0
H829 H 0.13274 0.89051 0.52271 0.0
H830 H 0.17502 0.83795 0.32879 0.0
H831 H 0.09081 0.83874 0.32541 0.0
C832 C 0.13076 0.90038 0.24562 0.0
C833 C 0.06451 0.88427 0.40541 0.0
C834 C 0.20289 0.88189 0.39072 0.0
C835 C 0.13444 0.83309 0.50027 0.0
H836 H 0.04271 0.90835 0.29406 0.0
H837 H 0.07842 0.9153 0.20365 0.0
H838 H 0.18172 0.91269 0.19219 0.0
H839 H 0.22059 0.90414 0.27345 0.0
H840 H 0.22094 0.85749 0.50563 0.0
H841 H 0.18468 0.82715 0.55926 0.0
H842 H 0.08409 0.81937 0.55161 0.0
H843 H 0.04609 0.84939 0.50312 0.0
H844 H 0.17599 0.80351 0.24909 0.0
H845 H 0.0905 0.80463 0.24425 0.0
H846 H 0.132 0.93286 0.5802 0.0
H847 H 0.13295 0.97445 0.40451 0.0
C848 C 0.37332 0.99426 0.18163 0.0
C849 C 0.39238 0.98684 0.22681 0.0
C850 C 0.37238 0.02024 0.15652 0.0
C851 C 0.39034 0.04009 0.17567 0.0
H852 H 0.35876 0.97992 0.16589 0.0
H853 H 0.35693 0.02509 0.12324 0.0
S854 S 0.44375 0.03183 0.29293 0.0
N855 N 0.42965 1.00223 0.28942 0.0
N856 N 0.4276 0.05068 0.2425 0.0
C857 C 0.40964 0.033 0.21994 0.0
C858 C 0.41077 1.00655 0.24529 0.0
C859 C 0.0309 0.61738 0.79021 0.0
C860 C 0.03673 0.63513 0.839 0.0
C861 C 1.00527 0.61587 0.76366 0.0
C862 C 0.98419 0.63232 0.78397 0.0
H863 H 0.04661 0.60525 0.77069 0.0
H864 H 1.00215 0.6021 0.72555 0.0
S865 S 0.98932 0.68251 0.91051 0.0
N866 N 0.01934 0.66935 0.90712 0.0
N867 N 0.97145 0.66694 0.85723 0.0
C868 C 0.98967 0.64965 0.83416 0.0
C869 C 0.0158 0.65103 0.8614 0.0
C870 C 0.65516 1.0094 0.16341 0.0
C871 C 0.6392 0.98805 0.18353 0.0
C872 C 0.65263 0.03505 0.1898 0.0
C873 C 0.6342 0.04039 0.23792 0.0
H874 H 0.67042 1.00599 0.1287 0.0
H875 H 0.66603 0.05051 0.17422 0.0
S876 S 0.58609 0.99158 0.30274 0.0
N877 N 0.60339 0.97425 0.25151 0.0
N878 N 0.59815 0.02207 0.30023 0.0
C879 C 0.61742 0.01928 0.25635 0.0
C880 C 0.62007 0.99329 0.22951 0.0
C881 C 0.01879 0.40821 0.7611 0.0
C882 C 0.03976 0.39196 0.78298 0.0
C883 C 0.99315 0.40741 0.78787 0.0
C884 C 0.98721 0.39054 0.83833 0.0
H885 H 0.02207 0.42149 0.72209 0.0
H886 H 0.97763 0.41962 0.76783 0.0
S887 S 0.03406 0.3436 0.91351 0.0
N888 N 0.05206 0.35814 0.85883 0.0
N889 N 1.00421 0.35708 0.9091 0.0
C890 C 1.00791 0.37461 0.8617 0.0
C891 C 0.03403 0.37527 0.83431 0.0
C892 C 0.37951 0.51006 0.11889 0.0
C893 C 0.39421 0.4884 0.09538 0.0
C894 C 0.38083 0.53554 0.09084 0.0
C895 C 0.3967 0.54037 0.03766 0.0
H896 H 0.36603 0.50699 0.1576 0.0
H897 H 0.36831 0.55121 0.10906 0.0
S898 S 0.44098 0.49077 0.96212 0.0
N899 N 0.42634 0.47393 0.01862 0.0
N900 N 0.42926 0.52136 0.96666 0.0
C901 C 0.4124 0.51902 0.01587 0.0
C902 C 0.41101 0.49323 0.04437 0.0
C903 C 0.51106 0.6525 0.90026 0.0
C904 C 0.48992 0.63574 0.9179 0.0
C905 C 0.53639 0.65055 0.92862 0.0
C906 C 0.54161 0.63197 0.97651 0.0
H907 H 0.50764 0.66804 0.86623 0.0
H908 H 0.55162 0.66459 0.915 0.0
S909 S 0.49342 0.58189 0.03546 0.0
N910 N 0.47633 0.59895 0.98327 0.0
N911 N 0.52354 0.59493 0.03595 0.0
C912 C 0.52081 0.61433 0.99235 0.0
C913 C 0.49515 0.61631 0.96331 0.0
C914 C 0.61537 0.50462 0.02309 0.0
C915 C 0.63401 0.48455 0.03806 0.0
C916 C 0.61678 0.53028 0.04934 0.0
C917 C 0.63668 0.53709 0.0924 0.0
H918 H 0.6 0.50075 0.98892 0.0
H919 H 0.60285 0.54527 0.03369 0.0
S920 S 0.68975 0.49231 0.15005 0.0
N921 N 0.67263 0.47362 0.10109 0.0
N922 N 0.67491 0.52158 0.15071 0.0
C923 C 0.65468 0.51706 0.11019 0.0
C924 C 0.65338 0.4909 0.08322 0.0
C925 C 0.50705 0.41199 0.99791 0.0
C926 C 0.48661 0.3938 0.98266 0.0
C927 C 0.53246 0.4107 0.9701 0.0
C928 C 0.53867 0.39136 0.92514 0.0
H929 H 0.50363 0.42704 0.03309 0.0
H930 H 0.54768 0.42441 0.98556 0.0
S931 S 0.49284 0.33946 0.86634 0.0
N932 N 0.47481 0.35605 0.91763 0.0
N933 N 0.52222 0.35406 0.86511 0.0
C934 C 0.51832 0.37373 0.90744 0.0
C935 C 0.49243 0.3749 0.93599 0.0
C936 C 0.87232 0.49121 0.68578 0.0
C937 C 0.89295 0.48473 0.72771 0.0
C938 C 0.87039 0.51677 0.65857 0.0
C939 C 0.88911 0.53687 0.67175 0.0
H940 H 0.85672 0.47693 0.67663 0.0
H941 H 0.85337 0.5213 0.62954 0.0
S942 S 0.94865 0.5295 0.77161 0.0
N943 N 0.934 0.50018 0.77547 0.0
N944 N 0.92993 0.54789 0.72534 0.0
C945 C 0.91056 0.53022 0.71044 0.0
C946 C 0.9126 0.50431 0.73809 0.0
C947 C 0.52938 0.11789 0.29975 0.0
C948 C 0.53639 0.13799 0.34214 0.0
C949 C 0.50367 0.11648 0.27377 0.0
C950 C 0.48374 0.13531 0.28832 0.0
H951 H 0.54427 0.1038 0.28441 0.0
H952 H 0.49965 0.10097 0.24008 0.0
S953 S 0.49201 0.19163 0.39843 0.0
N954 N 0.5212 0.17664 0.3993 0.0
N955 N 0.47313 0.17433 0.35022 0.0
C956 C 0.49028 0.15489 0.33282 0.0
C957 C 0.51649 0.1562 0.35951 0.0
C958 C 0.11653 0.52023 0.75209 0.0
C959 C 0.13281 0.54117 0.73026 0.0
C960 C 0.11798 0.49438 0.72679 0.0
C961 C 0.13554 0.48818 0.67788 0.0
H962 H 0.10289 0.52365 0.79033 0.0
H963 H 0.10589 0.47884 0.74721 0.0
S964 S 0.18252 0.53505 0.60292 0.0
N965 N 0.1671 0.55336 0.65564 0.0
N966 N 0.16949 0.50503 0.60817 0.0
C967 C 0.15135 0.50891 0.65415 0.0
C968 C 0.15 0.53528 0.68005 0.0
C969 C 0.51245 0.88265 0.37345 0.0
C970 C 0.4886 0.88321 0.33896 0.0
C971 C 0.5376 0.88567 0.34438 0.0
C972 C 0.54041 0.88829 0.27878 0.0
H973 H 0.51178 0.87934 0.42334 0.0
H974 H 0.55495 0.88573 0.3741 0.0
S975 S 0.48365 0.88896 0.16645 0.0
N976 N 0.46945 0.88766 0.23555 0.0
N977 N 0.51581 0.88874 0.18046 0.0
C978 C 0.51645 0.88812 0.24385 0.0
C979 C 0.49097 0.88674 0.27387 0.0
C980 C 0.90686 0.99432 0.53804 0.0
C981 C 0.88957 0.98827 0.5876 0.0
C982 C 0.90813 0.02009 0.51214 0.0
C983 C 0.89191 0.04106 0.53398 0.0
H984 H 0.91888 0.97873 0.51765 0.0
H985 H 0.92161 0.02343 0.47355 0.0
S986 S 0.84274 0.03522 0.66264 0.0
N987 N 0.85588 1.00523 0.65777 0.0
N988 N 0.85785 0.05338 0.60912 0.0
C989 C 0.87494 0.03529 0.5847 0.0
C990 C 0.8738 1.00902 0.61124 0.0
C991 C 0.99458 0.11794 0.47636 0.0
C992 C 0.98835 0.13607 0.42862 0.0
C993 C 0.02041 0.11631 0.50168 0.0
C994 C 0.04123 0.13299 0.48103 0.0
H995 H 0.97908 0.10553 0.49588 0.0
H996 H 0.0239 0.10223 0.53902 0.0
S997 S 0.03495 0.18424 0.35704 0.0
N998 N 1.00501 0.17095 0.36122 0.0
N999 N 0.05329 0.16829 0.40884 0.0
C1000 C 0.03531 0.15076 0.43196 0.0
C1001 C 1.00898 0.15228 0.40601 0.0
C1002 C 0.1489 0.98973 0.5803 0.0
C1003 C 0.13137 0.98422 0.53044 0.0
C1004 C 0.15104 0.01552 0.60629 0.0
C1005 C 0.13555 0.03687 0.58408 0.0
H1006 H 0.16199 0.97431 0.59747 0.0
H1007 H 0.16574 0.01905 0.64221 0.0
S1008 S 0.08464 0.03292 0.45969 0.0
N1009 N 0.09652 1.00239 0.46423 0.0
N1010 N 0.10105 0.05043 0.5122 0.0
C1011 C 0.11721 0.03143 0.53644 0.0
C1012 C 0.11496 1.0053 0.51 0.0
C1013 C 1.00436 0.90966 0.49569 0.0
C1014 C 0.98342 0.89297 0.47579 0.0
C1015 C 0.03 0.90814 0.46933 0.0
C1016 C 0.03593 0.89011 0.4212 0.0
H1017 H 1.00115 0.92357 0.53347 0.0
H1018 H 0.04565 0.92039 0.48868 0.0
S1019 S 0.98884 0.84217 0.35073 0.0
N1020 N 0.97085 0.85795 0.40344 0.0
N1021 N 0.0188 0.85547 0.3539 0.0
C1022 C 0.01512 0.87404 0.39902 0.0
C1023 C 0.98898 0.87544 0.42605 0.0
C1024 C 0.40084 0.28055 0.08687 0.0
C1025 C 0.39877 0.29281 0.14602 0.0
C1026 C 0.39931 0.2527 0.07929 0.0
C1027 C 0.39858 0.23519 0.13077 0.0
H1028 H 0.40149 0.29277 0.04528 0.0
H1029 H 0.39715 0.24522 0.03234 0.0
S1030 S 0.39462 0.25616 0.29664 0.0
N1031 N 0.39385 0.28434 0.25731 0.0
N1032 N 0.3984 0.23258 0.24397 0.0
C1033 C 0.39903 0.24713 0.19053 0.0
C1034 C 0.39748 0.27555 0.19802 0.0
C1035 C 0.24862 0.61797 0.87451 0.0
C1036 C 0.23384 0.64175 0.87772 0.0
C1037 C 0.27675 0.61814 0.87155 0.0
C1038 C 0.29133 0.64211 0.87008 0.0
H1039 H 0.23833 0.59909 0.87409 0.0
H1040 H 0.2872 0.59934 0.87077 0.0
S1041 S 0.26228 0.70982 0.87809 0.0
N1042 N 0.23637 0.68987 0.88338 0.0
N1043 N 0.28837 0.69025 0.87026 0.0
C1044 C 0.27666 0.66595 0.87221 0.0
C1045 C 0.24828 0.66575 0.87829 0.0
C1046 C 0.66246 0.7771 0.12618 0.0
C1047 C 0.6388 0.79208 0.12812 0.0
C1048 C 0.66229 0.74917 0.12881 0.0
C1049 C 0.63841 0.73452 0.12906 0.0
H1050 H 0.68147 0.78714 0.12424 0.0
H1051 H 0.68118 0.7389 0.12986 0.0
S1052 S 0.57078 0.7638 0.13107 0.0
N1053 N 0.59066 0.78992 0.13105 0.0
N1054 N 0.59028 0.73739 0.12954 0.0
C1055 C 0.61453 0.74916 0.12919 0.0
C1056 C 0.61473 0.7778 0.12942 0.0
C1057 C 0.75133 0.39929 0.82832 0.0
C1058 C 0.73397 0.39885 0.88007 0.0
C1059 C 0.77922 0.40045 0.83548 0.0
C1060 C 0.79163 0.39832 0.89448 0.0
H1061 H 0.74367 0.39718 0.78151 0.0
H1062 H 0.79132 0.40085 0.7937 0.0
S1063 S 0.75538 0.39488 0.04566 0.0
N1064 N 0.7317 0.39889 0.9933 0.0
N1065 N 0.78342 0.39368 1.00593 0.0
C1066 C 0.77452 0.39735 0.94674 0.0
C1067 C 0.7461 0.39926 0.93965 0.0
C1068 C 0.86366 0.7487 0.62919 0.0
C1069 C 0.88747 0.73395 0.62975 0.0
C1070 C 0.86359 0.77663 0.63194 0.0
C1071 C 0.88734 0.79149 0.63106 0.0
H1072 H 0.84473 0.7385 0.62775 0.0
H1073 H 0.84462 0.78674 0.63371 0.0
S1074 S 0.95524 0.76288 0.63009 0.0
N1075 N 0.93561 0.73657 0.6307 0.0
N1076 N 0.93548 0.78909 0.62965 0.0
C1077 C 0.91134 0.77709 0.63027 0.0
C1078 C 0.91141 0.74846 0.63028 0.0
C1079 C 0.77682 0.11802 0.38442 0.0
C1080 C 0.79143 0.14193 0.38318 0.0
C1081 C 0.74867 0.11796 0.38463 0.0
C1082 C 0.73396 0.14182 0.38476 0.0
H1083 H 0.78724 0.09921 0.38541 0.0
H1084 H 0.73833 0.09911 0.38448 0.0
S1085 S 0.76256 0.2098 0.3823 0.0
N1086 N 0.78869 0.19007 0.37892 0.0
N1087 N 0.7365 0.19 0.38667 0.0
C1088 C 0.74843 0.1658 0.38492 0.0
C1089 C 0.77687 0.16584 0.38188 0.0
C1090 C 0.16307 0.27631 0.63139 0.0
C1091 C 0.13921 0.291 0.63226 0.0
C1092 C 0.1632 0.24834 0.63291 0.0
C1093 C 0.13948 0.23344 0.63169 0.0
H1094 H 0.18196 0.28659 0.63049 0.0
H1095 H 0.18218 0.23823 0.63412 0.0
S1096 S 0.07152 0.26192 0.63147 0.0
N1097 N 0.09109 0.28827 0.63278 0.0
N1098 N 0.09133 0.23575 0.63045 0.0
C1099 C 0.11545 0.2478 0.6314 0.0
C1100 C 0.11531 0.27643 0.63218 0.0
C1101 C 0.24792 0.90517 0.38996 0.0
C1102 C 0.23303 0.88145 0.3907 0.0
C1103 C 0.27601 0.90492 0.39321 0.0
C1104 C 0.29042 0.881 0.39986 0.0
H1105 H 0.23777 0.92408 0.38656 0.0
H1106 H 0.28653 0.92362 0.38974 0.0
S1107 S 0.26117 0.81336 0.40136 0.0
N1108 N 0.23536 0.83322 0.39239 0.0
N1109 N 0.2873 0.833 0.40716 0.0
C1110 C 0.27566 0.85724 0.4015 0.0
C1111 C 0.24734 0.8574 0.39448 0.0
C1112 C 0.24601 0.1169 0.87217 0.0
C1113 C 0.24745 0.1334 0.8189 0.0
C1114 C 0.26575 0.11737 0.9194 0.0
C1115 C 0.28814 0.13428 0.91593 0.0
H1116 H 0.22913 0.10381 0.87817 0.0
H1117 H 0.26312 0.10463 0.95964 0.0
S1118 S 0.30324 0.17913 0.78245 0.0
N1119 N 0.27439 0.16577 0.76376 0.0
N1120 N 0.31134 0.16635 0.85081 0.0
C1121 C 0.29016 0.15031 0.86188 0.0
C1122 C 0.26998 0.14995 0.81408 0.0
C1123 C 0.11549 0.76028 0.18041 0.0
C1124 C 0.13355 0.78176 0.18305 0.0
C1125 C 0.11548 0.74179 0.13039 0.0
C1126 C 0.1335 0.74368 0.07988 0.0
H1127 H 0.10139 0.75741 0.21795 0.0
H1128 H 0.10142 0.72553 0.132 0.0
S1129 S 0.18297 0.79786 0.05963 0.0
N1130 N 0.16872 0.8047 0.12709 0.0
N1131 N 0.16867 0.77041 0.03426 0.0
C1132 C 0.15126 0.76542 0.08125 0.0
C1133 C 0.15129 0.78422 0.13218 0.0
C1134 C 0.74464 0.90927 0.88765 0.0
C1135 C 0.74608 0.89102 0.93772 0.0
C1136 C 0.76334 0.90917 0.83812 0.0
C1137 C 0.78465 0.89088 0.83584 0.0
H1138 H 0.72856 0.92354 0.88601 0.0
H1139 H 0.76076 0.92339 0.80068 0.0
S1140 S 0.79945 0.84085 0.95895 0.0
N1141 N 0.77196 0.85531 0.98353 0.0
N1142 N 0.80695 0.85533 0.8921 0.0
C1143 C 0.78667 0.87297 0.88654 0.0
C1144 C 0.76755 0.87299 0.93674 0.0
C1145 C 0.87675 0.26904 0.19682 0.0
C1146 C 0.89345 0.24654 0.1938 0.0
C1147 C 0.87676 0.28883 0.1497 0.0
C1148 C 0.89331 0.2872 0.09642 0.0
H1149 H 0.86371 0.27162 0.23654 0.0
H1150 H 0.8638 0.30579 0.15568 0.0
S1151 S 0.93891 0.23089 0.06222 0.0
N1152 N 0.92594 0.22318 0.13062 0.0
N1153 N 0.92565 0.25967 0.04238 0.0
C1154 C 0.90975 0.26448 0.09233 0.0
C1155 C 0.90989 0.24444 0.14061 0.0
C1156 C 0.26697 0.41048 0.444 0.0
C1157 C 0.24583 0.39195 0.44285 0.0
C1158 C 0.28712 0.4108 0.39765 0.0
C1159 C 0.2874 0.39253 0.34757 0.0
H1160 H 0.26828 0.4247 0.48173 0.0
H1161 H 0.30295 0.42524 0.40184 0.0
S1162 S 0.23527 0.34188 0.31757 0.0
N1163 N 0.22563 0.35625 0.38298 0.0
N1164 N 0.2633 0.35661 0.29765 0.0
C1165 C 0.26612 0.3743 0.34504 0.0
C1166 C 0.24552 0.37407 0.39192 0.0
C1167 C 0.40422 0.78896 0.64424 0.0
C1168 C 0.38912 0.78687 0.5885 0.0
C1169 C 0.40406 0.76891 0.691 0.0
C1170 C 0.38903 0.74542 0.68454 0.0
H1171 H 0.41684 0.80608 0.65157 0.0
H1172 H 0.41644 0.77154 0.73185 0.0
S1173 S 0.34378 0.73051 0.55224 0.0
N1174 N 0.35671 0.7596 0.53378 0.0
N1175 N 0.35735 0.72205 0.61949 0.0
C1176 C 0.37348 0.74321 0.62998 0.0
C1177 C 0.3733 0.76373 0.5828 0.0
C1178 C 0.76394 0.61736 0.33274 0.0
C1179 C 0.74226 0.63524 0.33231 0.0
C1180 C 0.78305 0.61717 0.38141 0.0
C1181 C 0.78166 0.63486 0.43256 0.0
H1182 H 0.76647 0.60356 0.29449 0.0
H1183 H 0.79939 0.60325 0.37826 0.0
S1184 S 0.72744 0.68375 0.45853 0.0
N1185 N 0.71976 0.66982 0.39119 0.0
N1186 N 0.75536 0.66955 0.4813 0.0
C1187 C 0.75981 0.65247 0.4334 0.0
C1188 C 0.74032 0.65263 0.38395 0.0
C1189 C 0.61559 0.26786 0.5735 0.0
C1190 C 0.63396 0.24659 0.57355 0.0
C1191 C 0.61544 0.28751 0.62093 0.0
C1192 C 0.63372 0.28706 0.67096 0.0
H1193 H 0.60137 0.26967 0.53584 0.0
H1194 H 0.60115 0.30351 0.61765 0.0
S1195 S 0.68397 0.23425 0.69808 0.0
N1196 N 0.66952 0.22543 0.63214 0.0
N1197 N 0.66946 0.26218 0.7196 0.0
C1198 C 0.65179 0.26563 0.67238 0.0
C1199 C 0.65185 0.24556 0.62438 0.0
loop_
_geom_bond_atom_site_label_1
_geom_bond_atom_site_label_2
_geom_bond_distance
_geom_bond_site_symmetry_2
_ccdc_geom_bond_type
C0 C1 1.443 . S
C0 N4 1.376 . S
C0 C38 1.389 . S
C1 C0 1.443 . S
C1 C2 1.340 . S
C1 H41 0.951 . S
C2 C1 1.340 . S
C2 C3 1.439 . S
C2 H42 0.950 . S
C3 C2 1.439 . S
C3 N4 1.374 . S
C3 C37 1.395 . S
N4 C0 1.376 . S
N4 C3 1.374 . S
N4 Co5 2.008 . S
Co5 N4 2.008 . S
Co5 N6 1.995 . S
Co5 N11 2.008 . S
Co5 N16 1.995 . S
Co5 N21 2.282 . S
Co5 N27 2.282 . S
N6 Co5 1.995 . S
N6 C7 1.376 . S
N6 C10 1.383 . S
C7 N6 1.376 . S
C7 C8 1.446 . S
C7 C37 1.391 . S
C8 C7 1.446 . S
C8 C9 1.339 . S
C8 H43 0.949 . S
C9 C8 1.339 . S
C9 C10 1.439 . S
C9 H44 0.950 . S
C10 N6 1.383 . S
C10 C9 1.439 . S
C10 C39 1.392 . S
N11 Co5 2.008 . S
N11 C12 1.376 . S
N11 C15 1.374 . S
C12 N11 1.376 . S
C12 C13 1.443 . S
C12 C39 1.389 . S
C13 C12 1.443 . S
C13 C14 1.340 1_554 S
C13 H45 0.951 1_554 S
C14 C13 1.340 1_556 S
C14 C15 1.439 1_556 S
C14 H46 0.950 . S
C15 N11 1.374 . S
C15 C14 1.439 1_554 S
C15 C40 1.395 . S
N16 Co5 1.995 . S
N16 C17 1.376 . S
N16 C20 1.383 . S
C17 N16 1.376 . S
C17 C18 1.446 . S
C17 C40 1.391 . S
C18 C17 1.446 . S
C18 C19 1.339 . S
C18 H47 0.949 1_554 S
C19 C18 1.339 . S
C19 C20 1.439 . S
C19 H48 0.950 . S
C20 N16 1.383 . S
C20 C19 1.439 . S
C20 C38 1.392 . S
N21 Co5 2.282 . S
N21 C24 1.332 . S
N21 C26 1.332 . S
C22 C23 1.386 1_554 S
C22 C25 1.388 . S
C23 C22 1.386 1_556 S
C23 C24 1.382 1_556 S
C23 H49 0.950 . S
C24 N21 1.332 . S
C24 C23 1.382 1_554 S
C24 H35 0.952 . S
C25 C22 1.388 . S
C25 C26 1.382 . S
C25 H50 0.950 . S
C26 N21 1.332 . S
C26 C25 1.382 . S
C26 H36 0.948 . S
N27 Co5 2.282 . S
N27 C31 1.332 . S
N27 C32 1.332 . S
C28 C29 1.388 . S
C28 C32 1.382 . S
C28 H51 0.950 . S
C29 C28 1.388 . S
C29 C30 1.386 . S
C30 C29 1.386 . S
C30 C31 1.382 . S
C30 H52 0.950 . S
C31 N27 1.332 . S
C31 C30 1.382 . S
C31 H33 0.952 . S
C32 N27 1.332 . S
C32 C28 1.382 . S
C32 H34 0.948 . S
H33 C31 0.952 . S
H34 C32 0.948 . S
H35 C24 0.952 . S
H36 C26 0.948 . S
C37 C3 1.395 . S
C37 C7 1.391 . S
C38 C0 1.389 . S
C38 C20 1.392 . S
C39 C10 1.392 . S
C39 C12 1.389 . S
C40 C15 1.395 . S
C40 C17 1.391 . S
H41 C1 0.951 . S
H42 C2 0.950 . S
H43 C8 0.949 . S
H44 C9 0.950 . S
H45 C13 0.951 1_556 S
H46 C14 0.950 . S
H47 C18 0.949 1_556 S
H48 C19 0.950 . S
H49 C23 0.950 . S
H50 C25 0.950 . S
H51 C28 0.950 . S
H52 C30 0.950 . S
C53 C54 1.443 . S
C53 N57 1.376 . S
C53 C91 1.389 . S
C54 C53 1.443 . S
C54 C55 1.340 . S
C54 H94 0.951 . S
C55 C54 1.340 . S
C55 C56 1.439 . S
C55 H95 0.950 . S
C56 C55 1.439 . S
C56 N57 1.374 . S
C56 C90 1.395 . S
N57 C53 1.376 . S
N57 C56 1.374 . S
N57 Co58 2.008 . S
Co58 N57 2.008 . S
Co58 N59 1.995 . S
Co58 N64 2.008 . S
Co58 N69 1.995 . S
Co58 N74 2.282 . S
Co58 N80 2.282 . S
N59 Co58 1.995 . S
N59 C60 1.376 . S
N59 C63 1.383 . S
C60 N59 1.376 . S
C60 C61 1.446 1_556 S
C60 C90 1.391 . S
C61 C60 1.446 1_554 S
C61 C62 1.339 1_554 S
C61 H96 0.949 . S
C62 C61 1.339 1_556 S
C62 C63 1.439 . S
C62 H97 0.953 . S
C63 N59 1.383 . S
C63 C62 1.439 . S
C63 C92 1.392 . S
N64 Co58 2.008 . S
N64 C65 1.376 . S
N64 C68 1.374 . S
C65 N64 1.376 . S
C65 C66 1.443 . S
C65 C92 1.389 . S
C66 C65 1.443 . S
C66 C67 1.340 . S
C66 H98 0.951 . S
C67 C66 1.340 . S
C67 C68 1.439 . S
C67 H99 0.950 . S
C68 N64 1.374 . S
C68 C67 1.439 . S
C68 C93 1.395 . S
N69 Co58 1.995 . S
N69 C70 1.376 . S
N69 C73 1.383 . S
C70 N69 1.376 . S
C70 C71 1.446 . S
C70 C93 1.391 . S
C71 C70 1.446 . S
C71 C72 1.339 . S
C71 H100 0.949 . S
C72 C71 1.339 . S
C72 C73 1.439 . S
C72 H101 0.950 . S
C73 N69 1.383 . S
C73 C72 1.439 . S
C73 C91 1.392 . S
N74 Co58 2.282 . S
N74 C77 1.332 . S
N74 C79 1.332 . S
C75 C76 1.386 . S
C75 C78 1.388 1_556 S
C76 C75 1.386 . S
C76 C77 1.382 . S
C76 H102 0.950 . S
C77 N74 1.332 . S
C77 C76 1.382 . S
C77 H88 0.952 . S
C78 C75 1.388 1_554 S
C78 C79 1.382 1_554 S
C78 H103 0.950 . S
C79 N74 1.332 . S
C79 C78 1.382 1_556 S
C79 H89 0.948 . S
N80 Co58 2.282 . S
N80 C84 1.332 . S
N80 C85 1.332 . S
C81 C82 1.388 . S
C81 C85 1.382 . S
C81 H104 0.950 . S
C82 C81 1.388 . S
C82 C83 1.386 . S
C83 C82 1.386 . S
C83 C84 1.382 . S
C83 H105 0.950 . S
C84 N80 1.332 . S
C84 C83 1.382 . S
C84 H86 0.952 . S
C85 N80 1.332 . S
C85 C81 1.382 . S
C85 H87 0.948 . S
H86 C84 0.952 . S
H87 C85 0.948 . S
H88 C77 0.952 . S
H89 C79 0.948 . S
C90 C56 1.395 . S
C90 C60 1.391 . S
C91 C53 1.389 . S
C91 C73 1.392 . S
C92 C63 1.392 . S
C92 C65 1.389 . S
C93 C68 1.395 . S
C93 C70 1.391 . S
H94 C54 0.951 . S
H95 C55 0.950 . S
H96 C61 0.949 . S
H97 C62 0.953 . S
H98 C66 0.951 . S
H99 C67 0.950 . S
H100 C71 0.949 . S
H101 C72 0.950 . S
H102 C76 0.950 . S
H103 C78 0.950 . S
H104 C81 0.950 . S
H105 C83 0.950 . S
C106 C107 1.443 . S
C106 N110 1.376 . S
C106 C144 1.389 . S
C107 C106 1.443 . S
C107 C108 1.340 . S
C107 H147 0.951 . S
C108 C107 1.340 . S
C108 C109 1.439 . S
C108 H148 0.950 . S
C109 C108 1.439 . S
C109 N110 1.374 . S
C109 C143 1.395 . S
N110 C106 1.376 . S
N110 C109 1.374 . S
N110 Co111 2.008 . S
Co111 N110 2.008 . S
Co111 N112 1.995 . S
Co111 N117 2.008 . S
Co111 N122 1.995 . S
Co111 N127 2.282 . S
Co111 N133 2.282 . S
N112 Co111 1.995 . S
N112 C113 1.376 . S
N112 C116 1.383 . S
C113 N112 1.376 . S
C113 C114 1.446 . S
C113 C143 1.391 . S
C114 C113 1.446 . S
C114 C115 1.339 . S
C114 H149 0.949 . S
C115 C114 1.339 . S
C115 C116 1.439 . S
C115 H150 0.950 . S
C116 N112 1.383 . S
C116 C115 1.439 . S
C116 C145 1.392 . S
N117 Co111 2.008 . S
N117 C118 1.376 . S
N117 C121 1.374 . S
C118 N117 1.376 . S
C118 C119 1.443 . S
C118 C145 1.389 . S
C119 C118 1.443 . S
C119 C120 1.340 1_554 S
C119 H151 0.951 1_554 S
C120 C119 1.340 1_556 S
C120 C121 1.439 1_556 S
C120 H152 0.950 . S
C121 N117 1.374 . S
C121 C120 1.439 1_554 S
C121 C146 1.395 . S
N122 Co111 1.995 . S
N122 C123 1.376 . S
N122 C126 1.383 . S
C123 N122 1.376 . S
C123 C124 1.446 . S
C123 C146 1.391 . S
C124 C123 1.446 . S
C124 C125 1.339 . S
C124 H153 0.949 1_554 S
C125 C124 1.339 . S
C125 C126 1.439 . S
C125 H154 0.950 . S
C126 N122 1.383 . S
C126 C125 1.439 . S
C126 C144 1.392 . S
N127 Co111 2.282 . S
N127 C130 1.332 . S
N127 C132 1.332 . S
C128 C129 1.386 1_554 S
C128 C131 1.388 . S
C129 C128 1.386 1_556 S
C129 C130 1.382 1_556 S
C129 H155 0.950 . S
C130 N127 1.332 . S
C130 C129 1.382 1_554 S
C130 H141 0.952 . S
C131 C128 1.388 . S
C131 C132 1.382 . S
C131 H156 0.950 . S
C132 N127 1.332 . S
C132 C131 1.382 . S
C132 H142 0.948 . S
N133 Co111 2.282 . S
N133 C137 1.332 . S
N133 C138 1.332 . S
C134 C135 1.388 . S
C134 C138 1.382 . S
C134 H157 0.950 . S
C135 C134 1.388 . S
C135 C136 1.386 . S
C136 C135 1.386 . S
C136 C137 1.382 . S
C136 H158 0.950 . S
C137 N133 1.332 . S
C137 C136 1.382 . S
C137 H139 0.952 . S
C138 N133 1.332 . S
C138 C134 1.382 . S
C138 H140 0.948 . S
H139 C137 0.952 . S
H140 C138 0.948 . S
H141 C130 0.952 . S
H142 C132 0.948 . S
C143 C109 1.395 . S
C143 C113 1.391 . S
C144 C106 1.389 . S
C144 C126 1.392 . S
C145 C116 1.392 . S
C145 C118 1.389 . S
C146 C121 1.395 . S
C146 C123 1.391 . S
H147 C107 0.951 . S
H148 C108 0.950 . S
H149 C114 0.949 . S
H150 C115 0.950 . S
H151 C119 0.951 1_556 S
H152 C120 0.950 . S
H153 C124 0.949 1_556 S
H154 C125 0.950 . S
H155 C129 0.950 . S
H156 C131 0.950 . S
H157 C134 0.950 . S
H158 C136 0.950 . S
C159 C160 1.443 . S
C159 N163 1.376 . S
C159 C197 1.389 . S
C160 C159 1.443 . S
C160 C161 1.340 . S
C160 H200 0.951 . S
C161 C160 1.340 . S
C161 C162 1.439 . S
C161 H201 0.950 . S
C162 C161 1.439 . S
C162 N163 1.374 . S
C162 C196 1.395 . S
N163 C159 1.376 . S
N163 C162 1.374 . S
N163 Co164 2.008 . S
Co164 N163 2.008 . S
Co164 N165 1.995 . S
Co164 N170 2.008 . S
Co164 N175 1.995 . S
Co164 N180 2.282 . S
Co164 N186 2.282 . S
N165 Co164 1.995 . S
N165 C166 1.376 . S
N165 C169 1.383 . S
C166 N165 1.376 . S
C166 C167 1.446 1_556 S
C166 C196 1.391 . S
C167 C166 1.446 1_554 S
C167 C168 1.339 1_554 S
C167 H202 0.949 . S
C168 C167 1.339 1_556 S
C168 C169 1.439 . S
C168 H203 0.953 . S
C169 N165 1.383 . S
C169 C168 1.439 . S
C169 C198 1.392 . S
N170 Co164 2.008 . S
N170 C171 1.376 . S
N170 C174 1.374 . S
C171 N170 1.376 . S
C171 C172 1.443 . S
C171 C198 1.389 . S
C172 C171 1.443 . S
C172 C173 1.340 . S
C172 H204 0.951 . S
C173 C172 1.340 . S
C173 C174 1.439 . S
C173 H205 0.950 . S
C174 N170 1.374 . S
C174 C173 1.439 . S
C174 C199 1.395 . S
N175 Co164 1.995 . S
N175 C176 1.376 . S
N175 C179 1.383 . S
C176 N175 1.376 . S
C176 C177 1.446 . S
C176 C199 1.391 . S
C177 C176 1.446 . S
C177 C178 1.339 . S
C177 H206 0.949 . S
C178 C177 1.339 . S
C178 C179 1.439 . S
C178 H207 0.950 . S
C179 N175 1.383 . S
C179 C178 1.439 . S
C179 C197 1.392 . S
N180 Co164 2.282 . S
N180 C183 1.332 . S
N180 C185 1.332 . S
C181 C182 1.386 . S
C181 C184 1.388 1_556 S
C182 C181 1.386 . S
C182 C183 1.382 . S
C182 H208 0.950 . S
C183 N180 1.332 . S
C183 C182 1.382 . S
C183 H194 0.952 . S
C184 C181 1.388 1_554 S
C184 C185 1.382 1_554 S
C184 H209 0.950 . S
C185 N180 1.332 . S
C185 C184 1.382 1_556 S
C185 H195 0.948 . S
N186 Co164 2.282 . S
N186 C190 1.332 . S
N186 C191 1.332 . S
C187 C188 1.388 . S
C187 C191 1.382 . S
C187 H210 0.950 . S
C188 C187 1.388 . S
C188 C189 1.386 . S
C189 C188 1.386 . S
C189 C190 1.382 . S
C189 H211 0.950 . S
C190 N186 1.332 . S
C190 C189 1.382 . S
C190 H192 0.952 . S
C191 N186 1.332 . S
C191 C187 1.382 . S
C191 H193 0.948 . S
H192 C190 0.952 . S
H193 C191 0.948 . S
H194 C183 0.952 . S
H195 C185 0.948 . S
C196 C162 1.395 . S
C196 C166 1.391 . S
C197 C159 1.389 . S
C197 C179 1.392 . S
C198 C169 1.392 . S
C198 C171 1.389 . S
C199 C174 1.395 . S
C199 C176 1.391 . S
H200 C160 0.951 . S
H201 C161 0.950 . S
H202 C167 0.949 . S
H203 C168 0.953 . S
H204 C172 0.951 . S
H205 C173 0.950 . S
H206 C177 0.949 . S
H207 C178 0.950 . S
H208 C182 0.950 . S
H209 C184 0.950 . S
H210 C187 0.950 . S
H211 C189 0.950 . S
C212 C213 1.443 1_554 S
C212 N216 1.376 . S
C212 C250 1.389 . S
C213 C212 1.443 1_556 S
C213 C214 1.340 . S
C213 H253 0.951 . S
C214 C213 1.340 . S
C214 C215 1.439 . S
C214 H254 0.950 . S
C215 C214 1.439 . S
C215 N216 1.374 1_556 S
C215 C249 1.395 . S
N216 C212 1.376 . S
N216 C215 1.374 1_554 S
N216 Co217 2.008 . S
Co217 N216 2.008 . S
Co217 N218 1.995 . S
Co217 N223 2.008 . S
Co217 N228 1.995 . S
Co217 N233 2.282 . S
Co217 N239 2.282 . S
N218 Co217 1.995 . S
N218 C219 1.376 . S
N218 C222 1.383 . S
C219 N218 1.376 . S
C219 C220 1.446 1_554 S
C219 C249 1.391 1_554 S
C220 C219 1.446 1_556 S
C220 C221 1.339 1_556 S
C220 H255 0.949 . S
C221 C220 1.339 1_554 S
C221 C222 1.439 . S
C221 H256 0.950 . S
C222 N218 1.383 . S
C222 C221 1.439 . S
C222 C251 1.392 . S
N223 Co217 2.008 . S
N223 C224 1.376 . S
N223 C227 1.374 . S
C224 N223 1.376 . S
C224 C225 1.443 . S
C224 C251 1.389 . S
C225 C224 1.443 . S
C225 C226 1.340 . S
C225 H257 0.951 . S
C226 C225 1.340 . S
C226 C227 1.439 . S
C226 H258 0.950 . S
C227 N223 1.374 . S
C227 C226 1.439 . S
C227 C252 1.395 . S
N228 Co217 1.995 . S
N228 C229 1.376 . S
N228 C232 1.383 . S
C229 N228 1.376 . S
C229 C230 1.446 . S
C229 C252 1.391 . S
C230 C229 1.446 . S
C230 C231 1.339 . S
C230 H259 0.949 . S
C231 C230 1.339 . S
C231 C232 1.439 . S
C231 H260 0.950 . S
C232 N228 1.383 . S
C232 C231 1.439 . S
C232 C250 1.392 . S
N233 Co217 2.282 . S
N233 C236 1.332 . S
N233 C238 1.332 . S
C234 C235 1.386 . S
C234 C237 1.388 . S
C235 C234 1.386 . S
C235 C236 1.382 . S
C235 H261 0.950 . S
C236 N233 1.332 . S
C236 C235 1.382 . S
C236 H247 0.952 . S
C237 C234 1.388 . S
C237 C238 1.382 . S
C237 H262 0.950 . S
C238 N233 1.332 . S
C238 C237 1.382 . S
C238 H248 0.948 . S
N239 Co217 2.282 . S
N239 C243 1.332 1_554 S
N239 C244 1.332 . S
C240 C241 1.388 1_554 S
C240 C244 1.382 . S
C240 H263 0.950 . S
C241 C240 1.388 1_556 S
C241 C242 1.386 . S
C242 C241 1.386 . S
C242 C243 1.382 . S
C242 H264 0.950 . S
C243 N239 1.332 1_556 S
C243 C242 1.382 . S
C243 H245 0.952 . S
C244 N239 1.332 . S
C244 C240 1.382 . S
C244 H246 0.948 . S
H245 C243 0.952 . S
H246 C244 0.948 . S
H247 C236 0.952 . S
H248 C238 0.948 . S
C249 C215 1.395 . S
C249 C219 1.391 1_556 S
C250 C212 1.389 . S
C250 C232 1.392 . S
C251 C222 1.392 . S
C251 C224 1.389 . S
C252 C227 1.395 . S
C252 C229 1.391 . S
H253 C213 0.951 . S
H254 C214 0.950 . S
H255 C220 0.949 . S
H256 C221 0.950 . S
H257 C225 0.951 . S
H258 C226 0.950 . S
H259 C230 0.949 . S
H260 C231 0.950 . S
H261 C235 0.950 . S
H262 C237 0.950 . S
H263 C240 0.950 . S
H264 C242 0.950 . S
C265 C266 1.443 . S
C265 N269 1.376 . S
C265 C303 1.389 . S
C266 C265 1.443 . S
C266 C267 1.340 . S
C266 H306 0.951 . S
C267 C266 1.340 . S
C267 C268 1.439 . S
C267 H307 0.950 . S
C268 C267 1.439 . S
C268 N269 1.374 . S
C268 C302 1.395 . S
N269 C265 1.376 . S
N269 C268 1.374 . S
N269 Co270 2.008 . S
Co270 N269 2.008 . S
Co270 N271 1.995 . S
Co270 N276 2.008 . S
Co270 N281 1.995 . S
Co270 N286 2.282 . S
Co270 N292 2.282 . S
N271 Co270 1.995 . S
N271 C272 1.376 . S
N271 C275 1.383 . S
C272 N271 1.376 . S
C272 C273 1.446 . S
C272 C302 1.391 . S
C273 C272 1.446 . S
C273 C274 1.339 . S
C273 H308 0.949 . S
C274 C273 1.339 . S
C274 C275 1.439 . S
C274 H309 0.950 . S
C275 N271 1.383 . S
C275 C274 1.439 . S
C275 C304 1.392 . S
N276 Co270 2.008 . S
N276 C277 1.376 . S
N276 C280 1.374 . S
C277 N276 1.376 . S
C277 C278 1.443 . S
C277 C304 1.389 . S
C278 C277 1.443 . S
C278 C279 1.340 . S
C278 H310 0.951 . S
C279 C278 1.340 . S
C279 C280 1.439 . S
C279 H311 0.950 1_556 S
C280 N276 1.374 . S
C280 C279 1.439 . S
C280 C305 1.395 1_556 S
N281 Co270 1.995 . S
N281 C282 1.376 1_556 S
N281 C285 1.383 . S
C282 N281 1.376 1_554 S
C282 C283 1.446 . S
C282 C305 1.391 . S
C283 C282 1.446 . S
C283 C284 1.339 . S
C283 H312 0.949 . S
C284 C283 1.339 . S
C284 C285 1.439 1_554 S
C284 H313 0.950 . S
C285 N281 1.383 . S
C285 C284 1.439 1_556 S
C285 C303 1.392 . S
N286 Co270 2.282 . S
N286 C289 1.332 . S
N286 C291 1.332 . S
C287 C288 1.386 . S
C287 C290 1.388 . S
C288 C287 1.386 . S
C288 C289 1.382 . S
C288 H314 0.950 . S
C289 N286 1.332 . S
C289 C288 1.382 . S
C289 H300 0.952 . S
C290 C287 1.388 . S
C290 C291 1.382 . S
C290 H315 0.950 . S
C291 N286 1.332 . S
C291 C290 1.382 . S
C291 H301 0.948 . S
N292 Co270 2.282 . S
N292 C296 1.332 . S
N292 C297 1.332 1_556 S
C293 C294 1.388 . S
C293 C297 1.382 . S
C293 H316 0.950 . S
C294 C293 1.388 . S
C294 C295 1.386 1_554 S
C295 C294 1.386 1_556 S
C295 C296 1.382 . S
C295 H317 0.950 . S
C296 N292 1.332 . S
C296 C295 1.382 . S
C296 H298 0.952 . S
C297 N292 1.332 1_554 S
C297 C293 1.382 . S
C297 H299 0.948 . S
H298 C296 0.952 . S
H299 C297 0.948 . S
H300 C289 0.952 . S
H301 C291 0.948 . S
C302 C268 1.395 . S
C302 C272 1.391 . S
C303 C265 1.389 . S
C303 C285 1.392 . S
C304 C275 1.392 . S
C304 C277 1.389 . S
C305 C280 1.395 1_554 S
C305 C282 1.391 . S
H306 C266 0.951 . S
H307 C267 0.950 . S
H308 C273 0.949 . S
H309 C274 0.950 . S
H310 C278 0.951 . S
H311 C279 0.950 1_554 S
H312 C283 0.949 . S
H313 C284 0.950 . S
H314 C288 0.950 . S
H315 C290 0.950 . S
H316 C293 0.950 . S
H317 C295 0.950 . S
C318 C319 1.443 1_554 S
C318 N322 1.376 . S
C318 C356 1.389 . S
C319 C318 1.443 1_556 S
C319 C320 1.340 . S
C319 H359 0.951 . S
C320 C319 1.340 . S
C320 C321 1.439 . S
C320 H360 0.950 . S
C321 C320 1.439 . S
C321 N322 1.374 1_556 S
C321 C355 1.395 . S
N322 C318 1.376 . S
N322 C321 1.374 1_554 S
N322 Co323 2.008 . S
Co323 N322 2.008 . S
Co323 N324 1.995 . S
Co323 N329 2.008 . S
Co323 N334 1.995 . S
Co323 N339 2.282 . S
Co323 N345 2.282 . S
N324 Co323 1.995 . S
N324 C325 1.376 . S
N324 C328 1.383 . S
C325 N324 1.376 . S
C325 C326 1.446 1_554 S
C325 C355 1.391 1_554 S
C326 C325 1.446 1_556 S
C326 C327 1.339 1_556 S
C326 H361 0.949 . S
C327 C326 1.339 1_554 S
C327 C328 1.439 . S
C327 H362 0.950 . S
C328 N324 1.383 . S
C328 C327 1.439 . S
C328 C357 1.392 . S
N329 Co323 2.008 . S
N329 C330 1.376 . S
N329 C333 1.374 . S
C330 N329 1.376 . S
C330 C331 1.443 . S
C330 C357 1.389 . S
C331 C330 1.443 . S
C331 C332 1.340 . S
C331 H363 0.951 . S
C332 C331 1.340 . S
C332 C333 1.439 . S
C332 H364 0.950 . S
C333 N329 1.374 . S
C333 C332 1.439 . S
C333 C358 1.395 . S
N334 Co323 1.995 . S
N334 C335 1.376 . S
N334 C338 1.383 . S
C335 N334 1.376 . S
C335 C336 1.446 . S
C335 C358 1.391 . S
C336 C335 1.446 . S
C336 C337 1.339 . S
C336 H365 0.949 . S
C337 C336 1.339 . S
C337 C338 1.439 . S
C337 H366 0.950 . S
C338 N334 1.383 . S
C338 C337 1.439 . S
C338 C356 1.392 . S
N339 Co323 2.282 . S
N339 C342 1.332 . S
N339 C344 1.332 . S
C340 C341 1.386 . S
C340 C343 1.388 . S
C341 C340 1.386 . S
C341 C342 1.382 . S
C341 H367 0.950 . S
C342 N339 1.332 . S
C342 C341 1.382 . S
C342 H353 0.952 . S
C343 C340 1.388 . S
C343 C344 1.382 . S
C343 H368 0.950 . S
C344 N339 1.332 . S
C344 C343 1.382 . S
C344 H354 0.948 . S
N345 Co323 2.282 . S
N345 C349 1.332 1_554 S
N345 C350 1.332 . S
C346 C347 1.388 1_554 S
C346 C350 1.382 . S
C346 H369 0.950 . S
C347 C346 1.388 1_556 S
C347 C348 1.386 . S
C348 C347 1.386 . S
C348 C349 1.382 . S
C348 H370 0.950 . S
C349 N345 1.332 1_556 S
C349 C348 1.382 . S
C349 H351 0.952 . S
C350 N345 1.332 . S
C350 C346 1.382 . S
C350 H352 0.948 . S
H351 C349 0.952 . S
H352 C350 0.948 . S
H353 C342 0.952 . S
H354 C344 0.948 . S
C355 C321 1.395 . S
C355 C325 1.391 1_556 S
C356 C318 1.389 . S
C356 C338 1.392 . S
C357 C328 1.392 . S
C357 C330 1.389 . S
C358 C333 1.395 . S
C358 C335 1.391 . S
H359 C319 0.951 . S
H360 C320 0.950 . S
H361 C326 0.949 . S
H362 C327 0.950 . S
H363 C331 0.951 . S
H364 C332 0.950 . S
H365 C336 0.949 . S
H366 C337 0.950 . S
H367 C341 0.950 . S
H368 C343 0.950 . S
H369 C346 0.950 . S
H370 C348 0.950 . S
C371 C372 1.443 . S
C371 N375 1.376 . S
C371 C409 1.389 . S
C372 C371 1.443 . S
C372 C373 1.340 . S
C372 H412 0.951 . S
C373 C372 1.340 . S
C373 C374 1.439 . S
C373 H413 0.950 . S
C374 C373 1.439 . S
C374 N375 1.374 . S
C374 C408 1.395 . S
N375 C371 1.376 . S
N375 C374 1.374 . S
N375 Co376 2.008 . S
Co376 N375 2.008 . S
Co376 N377 1.995 . S
Co376 N382 2.008 . S
Co376 N387 1.995 . S
Co376 N392 2.282 . S
Co376 N398 2.282 . S
N377 Co376 1.995 . S
N377 C378 1.376 . S
N377 C381 1.383 . S
C378 N377 1.376 . S
C378 C379 1.446 . S
C378 C408 1.391 . S
C379 C378 1.446 . S
C379 C380 1.339 . S
C379 H414 0.949 . S
C380 C379 1.339 . S
C380 C381 1.439 . S
C380 H415 0.950 . S
C381 N377 1.383 . S
C381 C380 1.439 . S
C381 C410 1.392 . S
N382 Co376 2.008 . S
N382 C383 1.376 . S
N382 C386 1.374 . S
C383 N382 1.376 . S
C383 C384 1.443 . S
C383 C410 1.389 . S
C384 C383 1.443 . S
C384 C385 1.340 . S
C384 H416 0.951 . S
C385 C384 1.340 . S
C385 C386 1.439 . S
C385 H417 0.950 1_556 S
C386 N382 1.374 . S
C386 C385 1.439 . S
C386 C411 1.395 1_556 S
N387 Co376 1.995 . S
N387 C388 1.376 1_556 S
N387 C391 1.383 . S
C388 N387 1.376 1_554 S
C388 C389 1.446 . S
C388 C411 1.391 . S
C389 C388 1.446 . S
C389 C390 1.339 . S
C389 H418 0.949 . S
C390 C389 1.339 . S
C390 C391 1.439 1_554 S
C390 H419 0.950 . S
C391 N387 1.383 . S
C391 C390 1.439 1_556 S
C391 C409 1.392 . S
N392 Co376 2.282 . S
N392 C395 1.332 . S
N392 C397 1.332 . S
C393 C394 1.386 . S
C393 C396 1.388 . S
C394 C393 1.386 . S
C394 C395 1.382 . S
C394 H420 0.950 . S
C395 N392 1.332 . S
C395 C394 1.382 . S
C395 H406 0.952 . S
C396 C393 1.388 . S
C396 C397 1.382 . S
C396 H421 0.950 . S
C397 N392 1.332 . S
C397 C396 1.382 . S
C397 H407 0.948 . S
N398 Co376 2.282 . S
N398 C402 1.332 . S
N398 C403 1.332 1_556 S
C399 C400 1.388 . S
C399 C403 1.382 . S
C399 H422 0.950 . S
C400 C399 1.388 . S
C400 C401 1.386 1_554 S
C401 C400 1.386 1_556 S
C401 C402 1.382 . S
C401 H423 0.950 . S
C402 N398 1.332 . S
C402 C401 1.382 . S
C402 H404 0.952 . S
C403 N398 1.332 1_554 S
C403 C399 1.382 . S
C403 H405 0.948 . S
H404 C402 0.952 . S
H405 C403 0.948 . S
H406 C395 0.952 . S
H407 C397 0.948 . S
C408 C374 1.395 . S
C408 C378 1.391 . S
C409 C371 1.389 . S
C409 C391 1.392 . S
C410 C381 1.392 . S
C410 C383 1.389 . S
C411 C386 1.395 1_554 S
C411 C388 1.391 . S
H412 C372 0.951 . S
H413 C373 0.950 . S
H414 C379 0.949 . S
H415 C380 0.950 . S
H416 C384 0.951 . S
H417 C385 0.950 1_554 S
H418 C389 0.949 . S
H419 C390 0.950 . S
H420 C394 0.950 . S
H421 C396 0.950 . S
H422 C399 0.950 . S
H423 C401 0.950 . S
C424 C425 1.443 . S
C424 N428 1.376 . S
C424 C462 1.389 . S
C425 C424 1.443 . S
C425 C426 1.340 . S
C425 H465 0.951 . S
C426 C425 1.340 . S
C426 C427 1.439 . S
C426 H466 0.950 . S
C427 C426 1.439 . S
C427 N428 1.374 . S
C427 C461 1.395 . S
N428 C424 1.376 . S
N428 C427 1.374 . S
N428 Co429 2.008 . S
Co429 N428 2.008 . S
Co429 N430 1.995 . S
Co429 N435 2.008 . S
Co429 N440 1.995 . S
Co429 N445 2.282 . S
Co429 N451 2.282 . S
N430 Co429 1.995 . S
N430 C431 1.376 . S
N430 C434 1.383 . S
C431 N430 1.376 . S
C431 C432 1.446 . S
C431 C461 1.391 . S
C432 C431 1.446 . S
C432 C433 1.339 . S
C432 H467 0.949 . S
C433 C432 1.339 . S
C433 C434 1.439 . S
C433 H468 0.950 . S
C434 N430 1.383 . S
C434 C433 1.439 . S
C434 C463 1.392 . S
N435 Co429 2.008 . S
N435 C436 1.376 . S
N435 C439 1.374 . S
C436 N435 1.376 . S
C436 C437 1.443 . S
C436 C463 1.389 . S
C437 C436 1.443 . S
C437 C438 1.340 . S
C437 H469 0.951 . S
C438 C437 1.340 . S
C438 C439 1.439 . S
C438 H470 0.950 . S
C439 N435 1.374 . S
C439 C438 1.439 . S
C439 C464 1.395 . S
N440 Co429 1.995 . S
N440 C441 1.376 . S
N440 C444 1.383 . S
C441 N440 1.376 . S
C441 C442 1.446 . S
C441 C464 1.391 . S
C442 C441 1.446 . S
C442 C443 1.339 . S
C442 H471 0.949 . S
C443 C442 1.339 . S
C443 C444 1.439 . S
C443 H472 0.950 . S
C444 N440 1.383 . S
C444 C443 1.439 . S
C444 C462 1.392 . S
N445 Co429 2.282 . S
N445 C448 1.332 . S
N445 C450 1.332 . S
C446 C447 1.386 . S
C446 C449 1.388 . S
C447 C446 1.386 . S
C447 C448 1.382 . S
C447 H473 0.950 . S
C448 N445 1.332 . S
C448 C447 1.382 . S
C448 H459 0.952 . S
C449 C446 1.388 . S
C449 C450 1.382 . S
C449 H474 0.950 . S
C450 N445 1.332 . S
C450 C449 1.382 . S
C450 H460 0.948 . S
N451 Co429 2.282 . S
N451 C455 1.332 . S
N451 C456 1.332 . S
C452 C453 1.388 . S
C452 C456 1.382 . S
C452 H475 0.950 . S
C453 C452 1.388 . S
C453 C454 1.386 . S
C454 C453 1.386 . S
C454 C455 1.382 . S
C454 H476 0.950 . S
C455 N451 1.332 . S
C455 C454 1.382 . S
C455 H457 0.952 . S
C456 N451 1.332 . S
C456 C452 1.382 . S
C456 H458 0.948 . S
H457 C455 0.952 . S
H458 C456 0.948 . S
H459 C448 0.952 . S
H460 C450 0.948 . S
C461 C427 1.395 . S
C461 C431 1.391 . S
C462 C424 1.389 . S
C462 C444 1.392 . S
C463 C434 1.392 . S
C463 C436 1.389 . S
C464 C439 1.395 . S
C464 C441 1.391 . S
H465 C425 0.951 . S
H466 C426 0.950 . S
H467 C432 0.949 . S
H468 C433 0.950 . S
H469 C437 0.951 . S
H470 C438 0.950 . S
H471 C442 0.949 . S
H472 C443 0.950 . S
H473 C447 0.950 . S
H474 C449 0.950 . S
H475 C452 0.950 . S
H476 C454 0.950 . S
C477 C478 1.443 . S
C477 N481 1.376 . S
C477 C515 1.389 . S
C478 C477 1.443 . S
C478 C479 1.340 . S
C478 H518 0.951 . S
C479 C478 1.340 . S
C479 C480 1.439 . S
C479 H519 0.950 . S
C480 C479 1.439 . S
C480 N481 1.374 . S
C480 C514 1.395 . S
N481 C477 1.376 . S
N481 C480 1.374 . S
N481 Co482 2.008 . S
Co482 N481 2.008 . S
Co482 N483 1.995 . S
Co482 N488 2.008 . S
Co482 N493 1.995 . S
Co482 N498 2.282 . S
Co482 N504 2.282 . S
N483 Co482 1.995 . S
N483 C484 1.376 . S
N483 C487 1.383 . S
C484 N483 1.376 . S
C484 C485 1.446 . S
C484 C514 1.391 . S
C485 C484 1.446 . S
C485 C486 1.339 . S
C485 H520 0.949 . S
C486 C485 1.339 . S
C486 C487 1.439 . S
C486 H521 0.950 . S
C487 N483 1.383 . S
C487 C486 1.439 . S
C487 C516 1.392 . S
N488 Co482 2.008 . S
N488 C489 1.376 . S
N488 C492 1.374 . S
C489 N488 1.376 . S
C489 C490 1.443 . S
C489 C516 1.389 . S
C490 C489 1.443 . S
C490 C491 1.340 . S
C490 H522 0.951 . S
C491 C490 1.340 . S
C491 C492 1.439 . S
C491 H523 0.950 . S
C492 N488 1.374 . S
C492 C491 1.439 . S
C492 C517 1.395 . S
N493 Co482 1.995 . S
N493 C494 1.376 . S
N493 C497 1.383 . S
C494 N493 1.376 . S
C494 C495 1.446 . S
C494 C517 1.391 . S
C495 C494 1.446 . S
C495 C496 1.339 . S
C495 H524 0.949 . S
C496 C495 1.339 . S
C496 C497 1.439 . S
C496 H525 0.950 . S
C497 N493 1.383 . S
C497 C496 1.439 . S
C497 C515 1.392 . S
N498 Co482 2.282 . S
N498 C501 1.332 . S
N498 C503 1.332 . S
C499 C500 1.386 . S
C499 C502 1.388 . S
C500 C499 1.386 . S
C500 C501 1.382 . S
C500 H526 0.950 . S
C501 N498 1.332 . S
C501 C500 1.382 . S
C501 H512 0.952 . S
C502 C499 1.388 . S
C502 C503 1.382 . S
C502 H527 0.950 . S
C503 N498 1.332 . S
C503 C502 1.382 . S
C503 H513 0.948 . S
N504 Co482 2.282 . S
N504 C508 1.332 . S
N504 C509 1.332 . S
C505 C506 1.388 . S
C505 C509 1.382 . S
C505 H528 0.950 . S
C506 C505 1.388 . S
C506 C507 1.386 . S
C507 C506 1.386 . S
C507 C508 1.382 . S
C507 H529 0.950 . S
C508 N504 1.332 . S
C508 C507 1.382 . S
C508 H510 0.952 . S
C509 N504 1.332 . S
C509 C505 1.382 . S
C509 H511 0.948 . S
H510 C508 0.952 . S
H511 C509 0.948 . S
H512 C501 0.952 . S
H513 C503 0.948 . S
C514 C480 1.395 . S
C514 C484 1.391 . S
C515 C477 1.389 . S
C515 C497 1.392 . S
C516 C487 1.392 . S
C516 C489 1.389 . S
C517 C492 1.395 . S
C517 C494 1.391 . S
H518 C478 0.951 . S
H519 C479 0.950 . S
H520 C485 0.949 . S
H521 C486 0.950 . S
H522 C490 0.951 . S
H523 C491 0.950 . S
H524 C495 0.949 . S
H525 C496 0.950 . S
H526 C500 0.950 . S
H527 C502 0.950 . S
H528 C505 0.950 . S
H529 C507 0.950 . S
C530 C531 1.443 . S
C530 N534 1.376 . S
C530 C568 1.389 . S
C531 C530 1.443 . S
C531 C532 1.340 . S
C531 H571 0.951 . S
C532 C531 1.340 . S
C532 C533 1.439 . S
C532 H572 0.950 . S
C533 C532 1.439 . S
C533 N534 1.374 . S
C533 C567 1.395 . S
N534 C530 1.376 . S
N534 C533 1.374 . S
N534 Co535 2.008 . S
Co535 N534 2.008 . S
Co535 N536 1.995 . S
Co535 N541 2.008 . S
Co535 N546 1.995 . S
Co535 N551 2.282 . S
Co535 N557 2.282 . S
N536 Co535 1.995 . S
N536 C537 1.376 . S
N536 C540 1.383 . S
C537 N536 1.376 . S
C537 C538 1.446 . S
C537 C567 1.391 . S
C538 C537 1.446 . S
C538 C539 1.339 . S
C538 H573 0.949 . S
C539 C538 1.339 . S
C539 C540 1.439 . S
C539 H574 0.950 . S
C540 N536 1.383 . S
C540 C539 1.439 . S
C540 C569 1.392 . S
N541 Co535 2.008 . S
N541 C542 1.376 . S
N541 C545 1.374 . S
C542 N541 1.376 . S
C542 C543 1.443 . S
C542 C569 1.389 . S
C543 C542 1.443 . S
C543 C544 1.340 . S
C543 H575 0.951 . S
C544 C543 1.340 . S
C544 C545 1.439 . S
C544 H576 0.950 . S
C545 N541 1.374 . S
C545 C544 1.439 . S
C545 C570 1.395 . S
N546 Co535 1.995 . S
N546 C547 1.376 . S
N546 C550 1.383 . S
C547 N546 1.376 . S
C547 C548 1.446 . S
C547 C570 1.391 . S
C548 C547 1.446 . S
C548 C549 1.339 . S
C548 H577 0.949 . S
C549 C548 1.339 . S
C549 C550 1.439 . S
C549 H578 0.950 . S
C550 N546 1.383 . S
C550 C549 1.439 . S
C550 C568 1.392 . S
N551 Co535 2.282 . S
N551 C554 1.332 . S
N551 C556 1.332 . S
C552 C553 1.386 . S
C552 C555 1.388 . S
C553 C552 1.386 . S
C553 C554 1.382 . S
C553 H579 0.950 . S
C554 N551 1.332 . S
C554 C553 1.382 . S
C554 H565 0.952 . S
C555 C552 1.388 . S
C555 C556 1.382 . S
C555 H580 0.950 . S
C556 N551 1.332 . S
C556 C555 1.382 . S
C556 H566 0.948 . S
N557 Co535 2.282 . S
N557 C561 1.332 . S
N557 C562 1.332 . S
C558 C559 1.388 . S
C558 C562 1.382 . S
C558 H581 0.950 . S
C559 C558 1.388 . S
C559 C560 1.386 . S
C560 C559 1.386 . S
C560 C561 1.382 . S
C560 H582 0.950 . S
C561 N557 1.332 . S
C561 C560 1.382 . S
C561 H563 0.952 . S
C562 N557 1.332 . S
C562 C558 1.382 . S
C562 H564 0.948 . S
H563 C561 0.952 . S
H564 C562 0.948 . S
H565 C554 0.952 . S
H566 C556 0.948 . S
C567 C533 1.395 . S
C567 C537 1.391 . S
C568 C530 1.389 . S
C568 C550 1.392 . S
C569 C540 1.392 . S
C569 C542 1.389 . S
C570 C545 1.395 . S
C570 C547 1.391 . S
H571 C531 0.951 . S
H572 C532 0.950 . S
H573 C538 0.949 . S
H574 C539 0.950 . S
H575 C543 0.951 . S
H576 C544 0.950 . S
H577 C548 0.949 . S
H578 C549 0.950 . S
H579 C553 0.950 . S
H580 C555 0.950 . S
H581 C558 0.950 . S
H582 C560 0.950 . S
C583 C584 1.443 . S
C583 N587 1.376 . S
C583 C621 1.389 . S
C584 C583 1.443 . S
C584 C585 1.340 . S
C584 H624 0.951 . S
C585 C584 1.340 . S
C585 C586 1.439 . S
C585 H625 0.950 . S
C586 C585 1.439 . S
C586 N587 1.374 . S
C586 C620 1.395 . S
N587 C583 1.376 . S
N587 C586 1.374 . S
N587 Co588 2.008 . S
Co588 N587 2.008 . S
Co588 N589 1.995 . S
Co588 N594 2.008 . S
Co588 N599 1.995 . S
Co588 N604 2.282 . S
Co588 N610 2.282 . S
N589 Co588 1.995 . S
N589 C590 1.376 . S
N589 C593 1.383 . S
C590 N589 1.376 . S
C590 C591 1.446 . S
C590 C620 1.391 . S
C591 C590 1.446 . S
C591 C592 1.339 . S
C591 H626 0.949 . S
C592 C591 1.339 . S
C592 C593 1.439 . S
C592 H627 0.950 . S
C593 N589 1.383 . S
C593 C592 1.439 . S
C593 C622 1.392 . S
N594 Co588 2.008 . S
N594 C595 1.376 . S
N594 C598 1.374 . S
C595 N594 1.376 . S
C595 C596 1.443 . S
C595 C622 1.389 . S
C596 C595 1.443 . S
C596 C597 1.340 . S
C596 H628 0.951 . S
C597 C596 1.340 . S
C597 C598 1.439 . S
C597 H629 0.950 . S
C598 N594 1.374 . S
C598 C597 1.439 . S
C598 C623 1.395 . S
N599 Co588 1.995 . S
N599 C600 1.376 . S
N599 C603 1.383 . S
C600 N599 1.376 . S
C600 C601 1.446 . S
C600 C623 1.391 . S
C601 C600 1.446 . S
C601 C602 1.339 . S
C601 H630 0.949 . S
C602 C601 1.339 . S
C602 C603 1.439 . S
C602 H631 0.950 . S
C603 N599 1.383 . S
C603 C602 1.439 . S
C603 C621 1.392 . S
N604 Co588 2.282 . S
N604 C607 1.332 . S
N604 C609 1.332 . S
C605 C606 1.386 . S
C605 C608 1.388 . S
C606 C605 1.386 . S
C606 C607 1.382 . S
C606 H632 0.950 . S
C607 N604 1.332 . S
C607 C606 1.382 . S
C607 H618 0.952 . S
C608 C605 1.388 . S
C608 C609 1.382 . S
C608 H633 0.950 . S
C609 N604 1.332 . S
C609 C608 1.382 . S
C609 H619 0.948 . S
N610 Co588 2.282 . S
N610 C614 1.332 . S
N610 C615 1.332 . S
C611 C612 1.388 . S
C611 C615 1.382 . S
C611 H634 0.950 . S
C612 C611 1.388 . S
C612 C613 1.386 . S
C613 C612 1.386 . S
C613 C614 1.382 . S
C613 H635 0.950 . S
C614 N610 1.332 . S
C614 C613 1.382 . S
C614 H616 0.952 . S
C615 N610 1.332 . S
C615 C611 1.382 . S
C615 H617 0.948 . S
H616 C614 0.952 . S
H617 C615 0.948 . S
H618 C607 0.952 . S
H619 C609 0.948 . S
C620 C586 1.395 . S
C620 C590 1.391 . S
C621 C583 1.389 . S
C621 C603 1.392 . S
C622 C593 1.392 . S
C622 C595 1.389 . S
C623 C598 1.395 . S
C623 C600 1.391 . S
H624 C584 0.951 . S
H625 C585 0.950 . S
H626 C591 0.949 . S
H627 C592 0.950 . S
H628 C596 0.951 . S
H629 C597 0.950 . S
H630 C601 0.949 . S
H631 C602 0.950 . S
H632 C606 0.950 . S
H633 C608 0.950 . S
H634 C611 0.950 . S
H635 C613 0.950 . S
C636 C637 1.443 . S
C636 N640 1.376 . S
C636 C674 1.389 . S
C637 C636 1.443 . S
C637 C638 1.340 . S
C637 H677 0.951 . S
C638 C637 1.340 . S
C638 C639 1.439 . S
C638 H678 0.950 . S
C639 C638 1.439 . S
C639 N640 1.374 . S
C639 C673 1.395 . S
N640 C636 1.376 . S
N640 C639 1.374 . S
N640 Co641 2.008 . S
Co641 N640 2.008 . S
Co641 N642 1.995 . S
Co641 N647 2.008 . S
Co641 N652 1.995 . S
Co641 N657 2.282 . S
Co641 N663 2.282 . S
N642 Co641 1.995 . S
N642 C643 1.376 . S
N642 C646 1.383 . S
C643 N642 1.376 . S
C643 C644 1.446 . S
C643 C673 1.391 . S
C644 C643 1.446 . S
C644 C645 1.339 . S
C644 H679 0.949 . S
C645 C644 1.339 . S
C645 C646 1.439 . S
C645 H680 0.950 . S
C646 N642 1.383 . S
C646 C645 1.439 . S
C646 C675 1.392 . S
N647 Co641 2.008 . S
N647 C648 1.376 . S
N647 C651 1.374 . S
C648 N647 1.376 . S
C648 C649 1.443 . S
C648 C675 1.389 . S
C649 C648 1.443 . S
C649 C650 1.340 . S
C649 H681 0.951 . S
C650 C649 1.340 . S
C650 C651 1.439 . S
C650 H682 0.950 . S
C651 N647 1.374 . S
C651 C650 1.439 . S
C651 C676 1.395 . S
N652 Co641 1.995 . S
N652 C653 1.376 . S
N652 C656 1.383 . S
C653 N652 1.376 . S
C653 C654 1.446 . S
C653 C676 1.391 . S
C654 C653 1.446 . S
C654 C655 1.339 . S
C654 H683 0.949 . S
C655 C654 1.339 . S
C655 C656 1.439 . S
C655 H684 0.950 . S
C656 N652 1.383 . S
C656 C655 1.439 . S
C656 C674 1.392 . S
N657 Co641 2.282 . S
N657 C660 1.332 . S
N657 C662 1.332 . S
C658 C659 1.386 . S
C658 C661 1.388 . S
C659 C658 1.386 . S
C659 C660 1.382 . S
C659 H685 0.950 . S
C660 N657 1.332 . S
C660 C659 1.382 . S
C660 H671 0.952 . S
C661 C658 1.388 . S
C661 C662 1.382 . S
C661 H686 0.950 . S
C662 N657 1.332 . S
C662 C661 1.382 . S
C662 H672 0.948 . S
N663 Co641 2.282 . S
N663 C667 1.332 . S
N663 C668 1.332 . S
C664 C665 1.388 . S
C664 C668 1.382 . S
C664 H687 0.950 . S
C665 C664 1.388 . S
C665 C666 1.386 . S
C666 C665 1.386 . S
C666 C667 1.382 . S
C666 H688 0.950 . S
C667 N663 1.332 . S
C667 C666 1.382 . S
C667 H669 0.952 . S
C668 N663 1.332 . S
C668 C664 1.382 . S
C668 H670 0.948 . S
H669 C667 0.952 . S
H670 C668 0.948 . S
H671 C660 0.952 . S
H672 C662 0.948 . S
C673 C639 1.395 . S
C673 C643 1.391 . S
C674 C636 1.389 . S
C674 C656 1.392 . S
C675 C646 1.392 . S
C675 C648 1.389 . S
C676 C651 1.395 . S
C676 C653 1.391 . S
H677 C637 0.951 . S
H678 C638 0.950 . S
H679 C644 0.949 . S
H680 C645 0.950 . S
H681 C649 0.951 . S
H682 C650 0.950 . S
H683 C654 0.949 . S
H684 C655 0.950 . S
H685 C659 0.950 . S
H686 C661 0.950 . S
H687 C664 0.950 . S
H688 C666 0.950 . S
C689 C690 1.443 . S
C689 N693 1.376 . S
C689 C727 1.389 . S
C690 C689 1.443 . S
C690 C691 1.340 . S
C690 H730 0.951 . S
C691 C690 1.340 . S
C691 C692 1.439 . S
C691 H731 0.950 . S
C692 C691 1.439 . S
C692 N693 1.374 . S
C692 C726 1.395 . S
N693 C689 1.376 . S
N693 C692 1.374 . S
N693 Co694 2.008 . S
Co694 N693 2.008 . S
Co694 N695 1.995 . S
Co694 N700 2.008 . S
Co694 N705 1.995 . S
Co694 N710 2.282 . S
Co694 N716 2.282 . S
N695 Co694 1.995 . S
N695 C696 1.376 . S
N695 C699 1.383 . S
C696 N695 1.376 . S
C696 C697 1.446 . S
C696 C726 1.391 . S
C697 C696 1.446 . S
C697 C698 1.339 . S
C697 H732 0.949 . S
C698 C697 1.339 . S
C698 C699 1.439 . S
C698 H733 0.950 . S
C699 N695 1.383 . S
C699 C698 1.439 . S
C699 C728 1.392 . S
N700 Co694 2.008 . S
N700 C701 1.376 . S
N700 C704 1.374 . S
C701 N700 1.376 . S
C701 C702 1.443 . S
C701 C728 1.389 . S
C702 C701 1.443 . S
C702 C703 1.340 . S
C702 H734 0.951 . S
C703 C702 1.340 . S
C703 C704 1.439 . S
C703 H735 0.950 . S
C704 N700 1.374 . S
C704 C703 1.439 . S
C704 C729 1.395 . S
N705 Co694 1.995 . S
N705 C706 1.376 . S
N705 C709 1.383 . S
C706 N705 1.376 . S
C706 C707 1.446 . S
C706 C729 1.391 . S
C707 C706 1.446 . S
C707 C708 1.339 . S
C707 H736 0.949 . S
C708 C707 1.339 . S
C708 C709 1.439 . S
C708 H737 0.950 . S
C709 N705 1.383 . S
C709 C708 1.439 . S
C709 C727 1.392 . S
N710 Co694 2.282 . S
N710 C713 1.332 . S
N710 C715 1.332 . S
C711 C712 1.386 . S
C711 C714 1.388 . S
C712 C711 1.386 . S
C712 C713 1.382 . S
C712 H738 0.950 . S
C713 N710 1.332 . S
C713 C712 1.382 . S
C713 H724 0.952 . S
C714 C711 1.388 . S
C714 C715 1.382 . S
C714 H739 0.950 . S
C715 N710 1.332 . S
C715 C714 1.382 . S
C715 H725 0.948 . S
N716 Co694 2.282 . S
N716 C720 1.332 . S
N716 C721 1.332 . S
C717 C718 1.388 . S
C717 C721 1.382 . S
C717 H740 0.950 . S
C718 C717 1.388 . S
C718 C719 1.386 . S
C719 C718 1.386 . S
C719 C720 1.382 . S
C719 H741 0.950 . S
C720 N716 1.332 . S
C720 C719 1.382 . S
C720 H722 0.952 . S
C721 N716 1.332 . S
C721 C717 1.382 . S
C721 H723 0.948 . S
H722 C720 0.952 . S
H723 C721 0.948 . S
H724 C713 0.952 . S
H725 C715 0.948 . S
C726 C692 1.395 . S
C726 C696 1.391 . S
C727 C689 1.389 . S
C727 C709 1.392 . S
C728 C699 1.392 . S
C728 C701 1.389 . S
C729 C704 1.395 . S
C729 C706 1.391 . S
H730 C690 0.951 . S
H731 C691 0.950 . S
H732 C697 0.949 . S
H733 C698 0.950 . S
H734 C702 0.951 . S
H735 C703 0.950 . S
H736 C707 0.949 . S
H737 C708 0.950 . S
H738 C712 0.950 . S
H739 C714 0.950 . S
H740 C717 0.950 . S
H741 C719 0.950 . S
C742 C743 1.443 . S
C742 N746 1.376 . S
C742 C780 1.389 . S
C743 C742 1.443 . S
C743 C744 1.340 . S
C743 H783 0.951 . S
C744 C743 1.340 . S
C744 C745 1.439 . S
C744 H784 0.950 . S
C745 C744 1.439 . S
C745 N746 1.374 . S
C745 C779 1.395 . S
N746 C742 1.376 . S
N746 C745 1.374 . S
N746 Co747 2.008 . S
Co747 N746 2.008 . S
Co747 N748 1.995 . S
Co747 N753 2.008 . S
Co747 N758 1.995 . S
Co747 N763 2.282 . S
Co747 N769 2.282 . S
N748 Co747 1.995 . S
N748 C749 1.376 . S
N748 C752 1.383 . S
C749 N748 1.376 . S
C749 C750 1.446 . S
C749 C779 1.391 . S
C750 C749 1.446 . S
C750 C751 1.339 . S
C750 H785 0.949 . S
C751 C750 1.339 . S
C751 C752 1.439 . S
C751 H786 0.950 . S
C752 N748 1.383 . S
C752 C751 1.439 . S
C752 C781 1.392 . S
N753 Co747 2.008 . S
N753 C754 1.376 . S
N753 C757 1.374 . S
C754 N753 1.376 . S
C754 C755 1.443 . S
C754 C781 1.389 . S
C755 C754 1.443 . S
C755 C756 1.340 . S
C755 H787 0.951 . S
C756 C755 1.340 . S
C756 C757 1.439 . S
C756 H788 0.950 . S
C757 N753 1.374 . S
C757 C756 1.439 . S
C757 C782 1.395 . S
N758 Co747 1.995 . S
N758 C759 1.376 . S
N758 C762 1.383 . S
C759 N758 1.376 . S
C759 C760 1.446 . S
C759 C782 1.391 . S
C760 C759 1.446 . S
C760 C761 1.339 . S
C760 H789 0.949 . S
C761 C760 1.339 . S
C761 C762 1.439 . S
C761 H790 0.950 . S
C762 N758 1.383 . S
C762 C761 1.439 . S
C762 C780 1.392 . S
N763 Co747 2.282 . S
N763 C766 1.332 . S
N763 C768 1.332 . S
C764 C765 1.386 . S
C764 C767 1.388 . S
C765 C764 1.386 . S
C765 C766 1.382 . S
C765 H791 0.950 . S
C766 N763 1.332 . S
C766 C765 1.382 . S
C766 H777 0.952 . S
C767 C764 1.388 . S
C767 C768 1.382 . S
C767 H792 0.950 . S
C768 N763 1.332 . S
C768 C767 1.382 . S
C768 H778 0.948 . S
N769 Co747 2.282 . S
N769 C773 1.332 . S
N769 C774 1.332 . S
C770 C771 1.388 . S
C770 C774 1.382 . S
C770 H793 0.950 . S
C771 C770 1.388 . S
C771 C772 1.386 . S
C772 C771 1.386 . S
C772 C773 1.382 . S
C772 H794 0.950 . S
C773 N769 1.332 . S
C773 C772 1.382 . S
C773 H775 0.952 . S
C774 N769 1.332 . S
C774 C770 1.382 . S
C774 H776 0.948 . S
H775 C773 0.952 . S
H776 C774 0.948 . S
H777 C766 0.952 . S
H778 C768 0.948 . S
C779 C745 1.395 . S
C779 C749 1.391 . S
C780 C742 1.389 . S
C780 C762 1.392 . S
C781 C752 1.392 . S
C781 C754 1.389 . S
C782 C757 1.395 . S
C782 C759 1.391 . S
H783 C743 0.951 . S
H784 C744 0.950 . S
H785 C750 0.949 . S
H786 C751 0.950 . S
H787 C755 0.951 . S
H788 C756 0.950 . S
H789 C760 0.949 . S
H790 C761 0.950 . S
H791 C765 0.950 . S
H792 C767 0.950 . S
H793 C770 0.950 . S
H794 C772 0.950 . S
C795 C796 1.443 . S
C795 N799 1.376 . S
C795 C833 1.389 . S
C796 C795 1.443 . S
C796 C797 1.340 . S
C796 H836 0.951 . S
C797 C796 1.340 . S
C797 C798 1.439 . S
C797 H837 0.950 . S
C798 C797 1.439 . S
C798 N799 1.374 . S
C798 C832 1.395 . S
N799 C795 1.376 . S
N799 C798 1.374 . S
N799 Co800 2.008 . S
Co800 N799 2.008 . S
Co800 N801 1.995 . S
Co800 N806 2.008 . S
Co800 N811 1.995 . S
Co800 N816 2.282 . S
Co800 N822 2.282 . S
N801 Co800 1.995 . S
N801 C802 1.376 . S
N801 C805 1.383 . S
C802 N801 1.376 . S
C802 C803 1.446 . S
C802 C832 1.391 . S
C803 C802 1.446 . S
C803 C804 1.339 . S
C803 H838 0.949 . S
C804 C803 1.339 . S
C804 C805 1.439 . S
C804 H839 0.950 . S
C805 N801 1.383 . S
C805 C804 1.439 . S
C805 C834 1.392 . S
N806 Co800 2.008 . S
N806 C807 1.376 . S
N806 C810 1.374 . S
C807 N806 1.376 . S
C807 C808 1.443 . S
C807 C834 1.389 . S
C808 C807 1.443 . S
C808 C809 1.340 . S
C808 H840 0.951 . S
C809 C808 1.340 . S
C809 C810 1.439 . S
C809 H841 0.950 . S
C810 N806 1.374 . S
C810 C809 1.439 . S
C810 C835 1.395 . S
N811 Co800 1.995 . S
N811 C812 1.376 . S
N811 C815 1.383 . S
C812 N811 1.376 . S
C812 C813 1.446 . S
C812 C835 1.391 . S
C813 C812 1.446 . S
C813 C814 1.339 . S
C813 H842 0.949 . S
C814 C813 1.339 . S
C814 C815 1.439 . S
C814 H843 0.950 . S
C815 N811 1.383 . S
C815 C814 1.439 . S
C815 C833 1.392 . S
N816 Co800 2.282 . S
N816 C819 1.332 . S
N816 C821 1.332 . S
C817 C818 1.386 . S
C817 C820 1.388 . S
C818 C817 1.386 . S
C818 C819 1.382 . S
C818 H844 0.950 . S
C819 N816 1.332 . S
C819 C818 1.382 . S
C819 H830 0.952 . S
C820 C817 1.388 . S
C820 C821 1.382 . S
C820 H845 0.950 . S
C821 N816 1.332 . S
C821 C820 1.382 . S
C821 H831 0.948 . S
N822 Co800 2.282 . S
N822 C826 1.332 . S
N822 C827 1.332 . S
C823 C824 1.388 . S
C823 C827 1.382 . S
C823 H846 0.950 . S
C824 C823 1.388 . S
C824 C825 1.386 . S
C825 C824 1.386 . S
C825 C826 1.382 . S
C825 H847 0.950 . S
C826 N822 1.332 . S
C826 C825 1.382 . S
C826 H828 0.952 . S
C827 N822 1.332 . S
C827 C823 1.382 . S
C827 H829 0.948 . S
H828 C826 0.952 . S
H829 C827 0.948 . S
H830 C819 0.952 . S
H831 C821 0.948 . S
C832 C798 1.395 . S
C832 C802 1.391 . S
C833 C795 1.389 . S
C833 C815 1.392 . S
C834 C805 1.392 . S
C834 C807 1.389 . S
C835 C810 1.395 . S
C835 C812 1.391 . S
H836 C796 0.951 . S
H837 C797 0.950 . S
H838 C803 0.949 . S
H839 C804 0.950 . S
H840 C808 0.951 . S
H841 C809 0.950 . S
H842 C813 0.949 . S
H843 C814 0.950 . S
H844 C818 0.950 . S
H845 C820 0.950 . S
H846 C823 0.950 . S
H847 C825 0.950 . S
C848 C849 1.369 . S
C848 C850 1.419 1_565 S
C848 H852 0.930 . S
C849 C848 1.369 . S
C849 C858 1.429 . S
C850 C848 1.419 1_545 S
C850 C851 1.363 . S
C850 H853 0.929 . S
C851 C850 1.363 . S
C851 C857 1.428 . S
H852 C848 0.930 . S
H853 C850 0.929 . S
S854 N855 1.613 1_545 S
S854 N856 1.610 . S
N855 S854 1.613 1_565 S
N855 C858 1.350 . S
N856 S854 1.610 . S
N856 C857 1.351 . S
C857 C851 1.428 . S
C857 N856 1.351 . S
C857 C858 1.434 1_545 S
C858 C849 1.429 . S
C858 N855 1.350 . S
C858 C857 1.434 1_565 S
C859 C860 1.369 . S
C859 C861 1.419 1_455 S
C859 H863 0.930 . S
C860 C859 1.369 . S
C860 C869 1.429 . S
C861 C859 1.419 1_655 S
C861 C862 1.363 . S
C861 H864 0.929 . S
C862 C861 1.363 . S
C862 C868 1.428 . S
H863 C859 0.930 . S
H864 C861 0.929 . S
S865 N866 1.613 1_655 S
S865 N867 1.610 . S
N866 S865 1.613 1_455 S
N866 C869 1.350 . S
N867 S865 1.610 . S
N867 C868 1.351 . S
C868 C862 1.428 . S
C868 N867 1.351 . S
C868 C869 1.434 1_655 S
C869 C860 1.429 . S
C869 N866 1.350 . S
C869 C868 1.434 1_455 S
C870 C871 1.369 . S
C870 C872 1.419 1_565 S
C870 H874 0.930 . S
C871 C870 1.369 . S
C871 C880 1.429 . S
C872 C870 1.419 1_545 S
C872 C873 1.363 . S
C872 H875 0.929 . S
C873 C872 1.363 . S
C873 C879 1.428 . S
H874 C870 0.930 . S
H875 C872 0.929 . S
S876 N877 1.613 . S
S876 N878 1.610 1_565 S
N877 S876 1.613 . S
N877 C880 1.350 . S
N878 S876 1.610 1_545 S
N878 C879 1.351 . S
C879 C873 1.428 . S
C879 N878 1.351 . S
C879 C880 1.434 1_545 S
C880 C871 1.429 . S
C880 N877 1.350 . S
C880 C879 1.434 1_565 S
C881 C882 1.369 . S
C881 C883 1.419 1_455 S
C881 H885 0.930 . S
C882 C881 1.369 . S
C882 C891 1.429 . S
C883 C881 1.419 1_655 S
C883 C884 1.363 . S
C883 H886 0.929 . S
C884 C883 1.363 . S
C884 C890 1.428 . S
H885 C881 0.930 . S
H886 C883 0.929 . S
S887 N888 1.613 . S
S887 N889 1.610 1_455 S
N888 S887 1.613 . S
N888 C891 1.350 . S
N889 S887 1.610 1_655 S
N889 C890 1.351 . S
C890 C884 1.428 . S
C890 N889 1.351 . S
C890 C891 1.434 1_655 S
C891 C882 1.429 . S
C891 N888 1.350 . S
C891 C890 1.434 1_455 S
C892 C893 1.369 . S
C892 C894 1.419 . S
C892 H896 0.931 1_554 S
C893 C892 1.369 . S
C893 C902 1.429 . S
C894 C892 1.419 . S
C894 C895 1.363 . S
C894 H897 0.929 1_554 S
C895 C894 1.363 . S
C895 C901 1.428 . S
H896 C892 0.931 1_556 S
H897 C894 0.929 1_556 S
S898 N899 1.613 . S
S898 N900 1.610 . S
N899 S898 1.613 . S
N899 C902 1.350 . S
N900 S898 1.610 . S
N900 C901 1.351 . S
C901 C895 1.428 . S
C901 N900 1.351 . S
C901 C902 1.434 . S
C902 C893 1.429 . S
C902 N899 1.350 . S
C902 C901 1.434 . S
C903 C904 1.369 . S
C903 C905 1.419 . S
C903 H907 0.939 . S
C904 C903 1.369 . S
C904 C913 1.429 . S
C905 C903 1.419 . S
C905 C906 1.363 . S
C905 H908 0.929 1_556 S
C906 C905 1.363 . S
C906 C912 1.428 . S
H907 C903 0.939 . S
H908 C905 0.929 1_554 S
S909 N910 1.613 . S
S909 N911 1.610 . S
N910 S909 1.613 . S
N910 C913 1.350 . S
N911 S909 1.610 . S
N911 C912 1.351 . S
C912 C906 1.428 . S
C912 N911 1.351 . S
C912 C913 1.434 . S
C913 C904 1.429 . S
C913 N910 1.350 . S
C913 C912 1.434 . S
C914 C915 1.369 . S
C914 C916 1.419 . S
C914 H918 0.930 1_554 S
C915 C914 1.369 . S
C915 C924 1.429 . S
C916 C914 1.419 . S
C916 C917 1.363 . S
C916 H919 0.929 1_554 S
C917 C916 1.363 . S
C917 C923 1.428 . S
H918 C914 0.930 1_556 S
H919 C916 0.929 1_556 S
S920 N921 1.613 . S
S920 N922 1.610 . S
N921 S920 1.613 . S
N921 C924 1.350 . S
N922 S920 1.610 . S
N922 C923 1.351 . S
C923 C917 1.428 . S
C923 N922 1.351 . S
C923 C924 1.434 . S
C924 C915 1.429 . S
C924 N921 1.350 . S
C924 C923 1.434 . S
C925 C926 1.369 1_554 S
C925 C927 1.419 1_554 S
C925 H929 0.930 . S
C926 C925 1.369 1_556 S
C926 C935 1.429 . S
C927 C925 1.419 1_556 S
C927 C928 1.363 . S
C927 H930 0.929 1_556 S
C928 C927 1.363 . S
C928 C934 1.428 . S
H929 C925 0.930 . S
H930 C927 0.929 1_554 S
S931 N932 1.613 . S
S931 N933 1.610 . S
N932 S931 1.613 . S
N932 C935 1.350 . S
N933 S931 1.610 . S
N933 C934 1.351 . S
C934 C928 1.428 . S
C934 N933 1.351 . S
C934 C935 1.434 . S
C935 C926 1.429 . S
C935 N932 1.350 . S
C935 C934 1.434 . S
C936 C937 1.369 . S
C936 C938 1.419 . S
C936 H940 0.930 . S
C937 C936 1.369 . S
C937 C946 1.429 . S
C938 C936 1.419 . S
C938 C939 1.363 . S
C938 H941 0.929 . S
C939 C938 1.363 . S
C939 C945 1.428 . S
H940 C936 0.930 . S
H941 C938 0.929 . S
S942 N943 1.613 . S
S942 N944 1.610 . S
N943 S942 1.613 . S
N943 C946 1.350 . S
N944 S942 1.610 . S
N944 C945 1.351 . S
C945 C939 1.428 . S
C945 N944 1.351 . S
C945 C946 1.434 . S
C946 C937 1.429 . S
C946 N943 1.350 . S
C946 C945 1.434 . S
C947 C948 1.369 . S
C947 C949 1.419 . S
C947 H951 0.930 . S
C948 C947 1.369 . S
C948 C957 1.429 . S
C949 C947 1.419 . S
C949 C950 1.363 . S
C949 H952 0.929 . S
C950 C949 1.363 . S
C950 C956 1.428 . S
H951 C947 0.930 . S
H952 C949 0.929 . S
S953 N954 1.613 . S
S953 N955 1.610 . S
N954 S953 1.613 . S
N954 C957 1.350 . S
N955 S953 1.610 . S
N955 C956 1.351 . S
C956 C950 1.428 . S
C956 N955 1.351 . S
C956 C957 1.434 . S
C957 C948 1.429 . S
C957 N954 1.350 . S
C957 C956 1.434 . S
C958 C959 1.369 . S
C958 C960 1.419 . S
C958 H962 0.930 . S
C959 C958 1.369 . S
C959 C968 1.429 . S
C960 C958 1.419 . S
C960 C961 1.363 . S
C960 H963 0.929 . S
C961 C960 1.363 . S
C961 C967 1.428 . S
H962 C958 0.930 . S
H963 C960 0.929 . S
S964 N965 1.613 . S
S964 N966 1.610 . S
N965 S964 1.613 . S
N965 C968 1.350 . S
N966 S964 1.610 . S
N966 C967 1.351 . S
C967 C961 1.428 . S
C967 N966 1.351 . S
C967 C968 1.434 . S
C968 C959 1.429 . S
C968 N965 1.350 . S
C968 C967 1.434 . S
C969 C970 1.369 . S
C969 C971 1.419 . S
C969 H973 0.930 . S
C970 C969 1.369 . S
C970 C979 1.429 . S
C971 C969 1.419 . S
C971 C972 1.363 . S
C971 H974 0.929 . S
C972 C971 1.363 . S
C972 C978 1.428 . S
H973 C969 0.930 . S
H974 C971 0.929 . S
S975 N976 1.613 . S
S975 N977 1.610 . S
N976 S975 1.613 . S
N976 C979 1.350 . S
N977 S975 1.610 . S
N977 C978 1.351 . S
C978 C972 1.428 . S
C978 N977 1.351 . S
C978 C979 1.434 . S
C979 C970 1.429 . S
C979 N976 1.350 . S
C979 C978 1.434 . S
C980 C981 1.369 . S
C980 C982 1.419 1_565 S
C980 H984 0.930 . S
C981 C980 1.369 . S
C981 C990 1.429 . S
C982 C980 1.419 1_545 S
C982 C983 1.363 . S
C982 H985 0.929 . S
C983 C982 1.363 . S
C983 C989 1.428 . S
H984 C980 0.930 . S
H985 C982 0.929 . S
S986 N987 1.613 . S
S986 N988 1.610 1_565 S
N987 S986 1.613 . S
N987 C990 1.350 . S
N988 S986 1.610 1_545 S
N988 C989 1.351 . S
C989 C983 1.428 . S
C989 N988 1.351 . S
C989 C990 1.434 1_545 S
C990 C981 1.429 . S
C990 N987 1.350 . S
C990 C989 1.434 1_565 S
C991 C992 1.369 . S
C991 C993 1.419 1_655 S
C991 H995 0.930 . S
C992 C991 1.369 . S
C992 C1001 1.429 . S
C993 C991 1.419 1_455 S
C993 C994 1.363 . S
C993 H996 0.929 . S
C994 C993 1.363 . S
C994 C1000 1.428 . S
H995 C991 0.930 . S
H996 C993 0.929 . S
S997 N998 1.613 1_455 S
S997 N999 1.610 . S
N998 S997 1.613 1_655 S
N998 C1001 1.350 . S
N999 S997 1.610 . S
N999 C1000 1.351 . S
C1000 C994 1.428 . S
C1000 N999 1.351 . S
C1000 C1001 1.434 1_455 S
C1001 C992 1.429 . S
C1001 N998 1.350 . S
C1001 C1000 1.434 1_655 S
C1002 C1003 1.369 . S
C1002 C1004 1.419 1_565 S
C1002 H1006 0.930 . S
C1003 C1002 1.369 . S
C1003 C1012 1.429 . S
C1004 C1002 1.419 1_545 S
C1004 C1005 1.363 . S
C1004 H1007 0.929 . S
C1005 C1004 1.363 . S
C1005 C1011 1.428 . S
H1006 C1002 0.930 . S
H1007 C1004 0.929 . S
S1008 N1009 1.613 1_545 S
S1008 N1010 1.610 . S
N1009 S1008 1.613 1_565 S
N1009 C1012 1.350 . S
N1010 S1008 1.610 . S
N1010 C1011 1.351 . S
C1011 C1005 1.428 . S
C1011 N1010 1.351 . S
C1011 C1012 1.434 1_545 S
C1012 C1003 1.429 . S
C1012 N1009 1.350 . S
C1012 C1011 1.434 1_565 S
C1013 C1014 1.369 . S
C1013 C1015 1.419 1_655 S
C1013 H1017 0.930 . S
C1014 C1013 1.369 . S
C1014 C1023 1.429 . S
C1015 C1013 1.419 1_455 S
C1015 C1016 1.363 . S
C1015 H1018 0.929 . S
C1016 C1015 1.363 . S
C1016 C1022 1.428 . S
H1017 C1013 0.930 . S
H1018 C1015 0.929 . S
S1019 N1020 1.580 1_455 S
S1019 N1021 1.648 . S
N1020 S1019 1.580 1_655 S
N1020 C1023 1.350 . S
N1021 S1019 1.648 . S
N1021 C1022 1.351 . S
C1022 C1016 1.428 . S
C1022 N1021 1.351 . S
C1022 C1023 1.434 1_455 S
C1023 C1014 1.429 . S
C1023 N1020 1.350 . S
C1023 C1022 1.434 1_655 S
C1024 C1025 1.369 . S
C1024 C1026 1.419 . S
C1024 H1028 0.930 . S
C1025 C1024 1.369 . S
C1025 C1034 1.429 . S
C1026 C1024 1.419 . S
C1026 C1027 1.363 . S
C1026 H1029 0.929 . S
C1027 C1026 1.363 . S
C1027 C1033 1.428 . S
H1028 C1024 0.930 . S
H1029 C1026 0.929 . S
S1030 N1031 1.613 . S
S1030 N1032 1.610 . S
N1031 S1030 1.613 . S
N1031 C1034 1.350 . S
N1032 S1030 1.610 . S
N1032 C1033 1.351 . S
C1033 C1027 1.428 . S
C1033 N1032 1.351 . S
C1033 C1034 1.434 . S
C1034 C1025 1.429 . S
C1034 N1031 1.350 . S
C1034 C1033 1.434 . S
C1035 C1036 1.369 . S
C1035 C1037 1.419 . S
C1035 H1039 0.930 . S
C1036 C1035 1.369 . S
C1036 C1045 1.429 . S
C1037 C1035 1.419 . S
C1037 C1038 1.363 . S
C1037 H1040 0.929 . S
C1038 C1037 1.363 . S
C1038 C1044 1.428 . S
H1039 C1035 0.930 . S
H1040 C1037 0.929 . S
S1041 N1042 1.613 . S
S1041 N1043 1.610 . S
N1042 S1041 1.613 . S
N1042 C1045 1.350 . S
N1043 S1041 1.610 . S
N1043 C1044 1.351 . S
C1044 C1038 1.428 . S
C1044 N1043 1.351 . S
C1044 C1045 1.434 . S
C1045 C1036 1.429 . S
C1045 N1042 1.350 . S
C1045 C1044 1.434 . S
C1046 C1047 1.369 . S
C1046 C1048 1.419 . S
C1046 H1050 0.930 . S
C1047 C1046 1.369 . S
C1047 C1056 1.429 . S
C1048 C1046 1.419 . S
C1048 C1049 1.363 . S
C1048 H1051 0.929 . S
C1049 C1048 1.363 . S
C1049 C1055 1.428 . S
H1050 C1046 0.930 . S
H1051 C1048 0.929 . S
S1052 N1053 1.613 . S
S1052 N1054 1.610 . S
N1053 S1052 1.613 . S
N1053 C1056 1.350 . S
N1054 S1052 1.610 . S
N1054 C1055 1.351 . S
C1055 C1049 1.428 . S
C1055 N1054 1.351 . S
C1055 C1056 1.434 . S
C1056 C1047 1.429 . S
C1056 N1053 1.350 . S
C1056 C1055 1.434 . S
C1057 C1058 1.369 . S
C1057 C1059 1.419 . S
C1057 H1061 0.930 . S
C1058 C1057 1.369 . S
C1058 C1067 1.429 . S
C1059 C1057 1.419 . S
C1059 C1060 1.363 . S
C1059 H1062 0.929 . S
C1060 C1059 1.363 . S
C1060 C1066 1.428 . S
H1061 C1057 0.930 . S
H1062 C1059 0.929 . S
S1063 N1064 1.613 1_554 S
S1063 N1065 1.610 1_554 S
N1064 S1063 1.613 1_556 S
N1064 C1067 1.350 . S
N1065 S1063 1.610 1_556 S
N1065 C1066 1.351 . S
C1066 C1060 1.428 . S
C1066 N1065 1.351 . S
C1066 C1067 1.434 . S
C1067 C1058 1.429 . S
C1067 N1064 1.350 . S
C1067 C1066 1.434 . S
C1068 C1069 1.369 . S
C1068 C1070 1.419 . S
C1068 H1072 0.930 . S
C1069 C1068 1.369 . S
C1069 C1078 1.429 . S
C1070 C1068 1.419 . S
C1070 C1071 1.363 . S
C1070 H1073 0.929 . S
C1071 C1070 1.363 . S
C1071 C1077 1.428 . S
H1072 C1068 0.930 . S
H1073 C1070 0.929 . S
S1074 N1075 1.613 . S
S1074 N1076 1.610 . S
N1075 S1074 1.613 . S
N1075 C1078 1.350 . S
N1076 S1074 1.610 . S
N1076 C1077 1.351 . S
C1077 C1071 1.428 . S
C1077 N1076 1.351 . S
C1077 C1078 1.434 . S
C1078 C1069 1.429 . S
C1078 N1075 1.350 . S
C1078 C1077 1.434 . S
C1079 C1080 1.369 . S
C1079 C1081 1.419 . S
C1079 H1083 0.930 . S
C1080 C1079 1.369 . S
C1080 C1089 1.429 . S
C1081 C1079 1.419 . S
C1081 C1082 1.363 . S
C1081 H1084 0.929 . S
C1082 C1081 1.363 . S
C1082 C1088 1.428 . S
H1083 C1079 0.930 . S
H1084 C1081 0.929 . S
S1085 N1086 1.613 . S
S1085 N1087 1.610 . S
N1086 S1085 1.613 . S
N1086 C1089 1.350 . S
N1087 S1085 1.610 . S
N1087 C1088 1.351 . S
C1088 C1082 1.428 . S
C1088 N1087 1.351 . S
C1088 C1089 1.434 . S
C1089 C1080 1.429 . S
C1089 N1086 1.350 . S
C1089 C1088 1.434 . S
C1090 C1091 1.369 . S
C1090 C1092 1.419 . S
C1090 H1094 0.930 . S
C1091 C1090 1.369 . S
C1091 C1100 1.429 . S
C1092 C1090 1.419 . S
C1092 C1093 1.363 . S
C1092 H1095 0.929 . S
C1093 C1092 1.363 . S
C1093 C1099 1.428 . S
H1094 C1090 0.930 . S
H1095 C1092 0.929 . S
S1096 N1097 1.613 . S
S1096 N1098 1.610 . S
N1097 S1096 1.613 . S
N1097 C1100 1.350 . S
N1098 S1096 1.610 . S
N1098 C1099 1.351 . S
C1099 C1093 1.428 . S
C1099 N1098 1.351 . S
C1099 C1100 1.434 . S
C1100 C1091 1.429 . S
C1100 N1097 1.350 . S
C1100 C1099 1.434 . S
C1101 C1102 1.369 . S
C1101 C1103 1.419 . S
C1101 H1105 0.930 . S
C1102 C1101 1.369 . S
C1102 C1111 1.429 . S
C1103 C1101 1.419 . S
C1103 C1104 1.363 . S
C1103 H1106 0.929 . S
C1104 C1103 1.363 . S
C1104 C1110 1.428 . S
H1105 C1101 0.930 . S
H1106 C1103 0.929 . S
S1107 N1108 1.613 . S
S1107 N1109 1.610 . S
N1108 S1107 1.613 . S
N1108 C1111 1.350 . S
N1109 S1107 1.610 . S
N1109 C1110 1.351 . S
C1110 C1104 1.428 . S
C1110 N1109 1.351 . S
C1110 C1111 1.434 . S
C1111 C1102 1.429 . S
C1111 N1108 1.350 . S
C1111 C1110 1.434 . S
C1112 C1113 1.369 . S
C1112 C1114 1.419 . S
C1112 H1116 0.930 . S
C1113 C1112 1.369 . S
C1113 C1122 1.429 . S
C1114 C1112 1.419 . S
C1114 C1115 1.363 . S
C1114 H1117 0.929 . S
C1115 C1114 1.363 . S
C1115 C1121 1.428 . S
H1116 C1112 0.930 . S
H1117 C1114 0.929 . S
S1118 N1119 1.613 . S
S1118 N1120 1.610 . S
N1119 S1118 1.613 . S
N1119 C1122 1.350 . S
N1120 S1118 1.610 . S
N1120 C1121 1.351 . S
C1121 C1115 1.428 . S
C1121 N1120 1.351 . S
C1121 C1122 1.434 . S
C1122 C1113 1.429 . S
C1122 N1119 1.350 . S
C1122 C1121 1.434 . S
C1123 C1124 1.369 . S
C1123 C1125 1.419 . S
C1123 H1127 0.930 . S
C1124 C1123 1.369 . S
C1124 C1133 1.429 . S
C1125 C1123 1.419 . S
C1125 C1126 1.363 . S
C1125 H1128 0.929 . S
C1126 C1125 1.363 . S
C1126 C1132 1.428 . S
H1127 C1123 0.930 . S
H1128 C1125 0.929 . S
S1129 N1130 1.613 . S
S1129 N1131 1.610 . S
N1130 S1129 1.613 . S
N1130 C1133 1.350 . S
N1131 S1129 1.610 . S
N1131 C1132 1.351 . S
C1132 C1126 1.428 . S
C1132 N1131 1.351 . S
C1132 C1133 1.434 . S
C1133 C1124 1.429 . S
C1133 N1130 1.350 . S
C1133 C1132 1.434 . S
C1134 C1135 1.369 . S
C1134 C1136 1.419 . S
C1134 H1138 0.930 . S
C1135 C1134 1.369 . S
C1135 C1144 1.429 . S
C1136 C1134 1.419 . S
C1136 C1137 1.363 . S
C1136 H1139 0.929 . S
C1137 C1136 1.363 . S
C1137 C1143 1.428 . S
H1138 C1134 0.930 . S
H1139 C1136 0.929 . S
S1140 N1141 1.613 . S
S1140 N1142 1.610 . S
N1141 S1140 1.613 . S
N1141 C1144 1.350 . S
N1142 S1140 1.610 . S
N1142 C1143 1.351 . S
C1143 C1137 1.428 . S
C1143 N1142 1.351 . S
C1143 C1144 1.434 . S
C1144 C1135 1.429 . S
C1144 N1141 1.350 . S
C1144 C1143 1.434 . S
C1145 C1146 1.369 . S
C1145 C1147 1.419 . S
C1145 H1149 0.930 . S
C1146 C1145 1.369 . S
C1146 C1155 1.429 . S
C1147 C1145 1.419 . S
C1147 C1148 1.363 . S
C1147 H1150 0.929 . S
C1148 C1147 1.363 . S
C1148 C1154 1.428 . S
H1149 C1145 0.930 . S
H1150 C1147 0.929 . S
S1151 N1152 1.613 . S
S1151 N1153 1.610 . S
N1152 S1151 1.613 . S
N1152 C1155 1.350 . S
N1153 S1151 1.610 . S
N1153 C1154 1.351 . S
C1154 C1148 1.428 . S
C1154 N1153 1.351 . S
C1154 C1155 1.434 . S
C1155 C1146 1.429 . S
C1155 N1152 1.350 . S
C1155 C1154 1.434 . S
C1156 C1157 1.369 . S
C1156 C1158 1.419 . S
C1156 H1160 0.930 . S
C1157 C1156 1.369 . S
C1157 C1166 1.429 . S
C1158 C1156 1.419 . S
C1158 C1159 1.363 . S
C1158 H1161 0.929 . S
C1159 C1158 1.363 . S
C1159 C1165 1.428 . S
H1160 C1156 0.930 . S
H1161 C1158 0.929 . S
S1162 N1163 1.613 . S
S1162 N1164 1.610 . S
N1163 S1162 1.613 . S
N1163 C1166 1.350 . S
N1164 S1162 1.610 . S
N1164 C1165 1.351 . S
C1165 C1159 1.428 . S
C1165 N1164 1.351 . S
C1165 C1166 1.434 . S
C1166 C1157 1.429 . S
C1166 N1163 1.350 . S
C1166 C1165 1.434 . S
C1167 C1168 1.369 . S
C1167 C1169 1.419 . S
C1167 H1171 0.930 . S
C1168 C1167 1.369 . S
C1168 C1177 1.429 . S
C1169 C1167 1.419 . S
C1169 C1170 1.363 . S
C1169 H1172 0.929 . S
C1170 C1169 1.363 . S
C1170 C1176 1.428 . S
H1171 C1167 0.930 . S
H1172 C1169 0.929 . S
S1173 N1174 1.613 . S
S1173 N1175 1.610 . S
N1174 S1173 1.613 . S
N1174 C1177 1.350 . S
N1175 S1173 1.610 . S
N1175 C1176 1.351 . S
C1176 C1170 1.428 . S
C1176 N1175 1.351 . S
C1176 C1177 1.434 . S
C1177 C1168 1.429 . S
C1177 N1174 1.350 . S
C1177 C1176 1.434 . S
C1178 C1179 1.369 . S
C1178 C1180 1.419 . S
C1178 H1182 0.930 . S
C1179 C1178 1.369 . S
C1179 C1188 1.429 . S
C1180 C1178 1.419 . S
C1180 C1181 1.363 . S
C1180 H1183 0.929 . S
C1181 C1180 1.363 . S
C1181 C1187 1.428 . S
H1182 C1178 0.930 . S
H1183 C1180 0.929 . S
S1184 N1185 1.613 . S
S1184 N1186 1.610 . S
N1185 S1184 1.613 . S
N1185 C1188 1.350 . S
N1186 S1184 1.610 . S
N1186 C1187 1.351 . S
C1187 C1181 1.428 . S
C1187 N1186 1.351 . S
C1187 C1188 1.434 . S
C1188 C1179 1.429 . S
C1188 N1185 1.350 . S
C1188 C1187 1.434 . S
C1189 C1190 1.369 . S
C1189 C1191 1.419 . S
C1189 H1193 0.930 . S
C1190 C1189 1.369 . S
C1190 C1199 1.429 . S
C1191 C1189 1.419 . S
C1191 C1192 1.363 . S
C1191 H1194 0.929 . S
C1192 C1191 1.363 . S
C1192 C1198 1.428 . S
H1193 C1189 0.930 . S
H1194 C1191 0.929 . S
S1195 N1196 1.613 . S
S1195 N1197 1.610 . S
N1196 S1195 1.613 . S
N1196 C1199 1.350 . S
N1197 S1195 1.610 . S
N1197 C1198 1.351 . S
C1198 C1192 1.428 . S
C1198 N1197 1.351 . S
C1198 C1199 1.434 . S
C1199 C1190 1.429 . S
C1199 N1196 1.350 . S
C1199 C1198 1.434 . S
C849 C612 1.707 . S
C851 C38 1.752 . S
C860 C91 1.749 . S
C862 C453 1.702 . S
C871 C144 1.753 . S
C873 C506 1.707 . S
C882 C559 1.698 . S
C884 C197 1.750 . S
C893 C250 1.751 . S
C895 C294 1.708 . S
C904 C303 1.750 . S
C906 C347 1.701 . S
C915 C400 1.709 . S
C917 C356 1.751 . S
C926 C241 1.702 . S
C928 C409 1.749 . S
C937 C188 1.703 . S
C939 C462 1.753 . S
C948 C515 1.749 . S
C950 C29 1.702 . S
C959 C82 1.707 . S
C961 C568 1.751 . S
C970 C621 1.751 . S
C972 C135 1.696 . S
C981 C674 1.752 . S
C983 C718 1.703 . S
C992 C727 1.749 . S
C994 C771 1.702 . S
C1003 C824 1.706 . S
C1005 C780 1.753 . S
C1014 C665 1.696 . S
C1016 C833 1.750 . S
C1025 C251 1.520 . S
C1027 C39 1.513 . S
C1036 C92 1.508 . S
C1038 C304 1.511 . S
C1047 C145 1.516 . S
C1049 C357 1.513 . S
C1058 C410 1.504 . S
C1060 C198 1.512 . S
C1069 C463 1.511 . S
C1071 C675 1.518 . S
C1080 C728 1.506 . S
C1082 C516 1.512 . S
C1091 C569 1.517 . S
C1093 C781 1.513 . S
C1102 C834 1.509 . S
C1104 C622 1.510 . S
C1113 C764 2.103 . S
C1115 C22 2.096 1_556 S
C1124 C817 2.084 . S
C1126 C75 2.091 1_554 S
C1135 C128 2.102 1_556 S
C1137 C658 2.098 . S
C1146 C711 2.085 . S
C1148 C181 2.091 1_554 S
C1157 C552 2.097 . S
C1159 C234 2.101 . S
C1168 C605 2.090 . S
C1170 C287 2.088 . S
C1179 C340 2.097 . S
C1181 C446 2.102 . S
C1190 C499 2.091 . S
C1192 C393 2.087 . S
