# Generated by pormake.
# Topology ukg, (4)-cn, num edge types: 1
# Building blocks:
#     Node 0, Type 0, BuildingBlock: CEKHIL_clean_sbu_0, # of connection points: 4
#     Node 1, Type 0, BuildingBlock: CEKHIL_clean_sbu_0, # of connection points: 4
#     Node 2, Type 0, BuildingBlock: CEKHIL_clean_sbu_0, # of connection points: 4
#     Node 3, Type 0, BuildingBlock: CEKHIL_clean_sbu_0, # of connection points: 4
#     Node 4, Type 0, BuildingBlock: CEKHIL_clean_sbu_0, # of connection points: 4
#     Node 5, Type 0, BuildingBlock: CEKHIL_clean_sbu_0, # of connection points: 4
#     Node 6, Type 0, BuildingBlock: CEKHIL_clean_sbu_0, # of connection points: 4
#     Node 7, Type 0, BuildingBlock: CEKHIL_clean_sbu_0, # of connection points: 4
#     Edge 8, Type (0, 0), BuildingBlock: EZIPEK_clean_linker_0, # of connection points: 2
#     Edge 9, Type (0, 0), BuildingBlock: EZIPEK_clean_linker_0, # of connection points: 2
#     Edge 10, Type (0, 0), BuildingBlock: EZIPEK_clean_linker_0, # of connection points: 2
#     Edge 11, Type (0, 0), BuildingBlock: EZIPEK_clean_linker_0, # of connection points: 2
#     Edge 12, Type (0, 0), BuildingBlock: EZIPEK_clean_linker_0, # of connection points: 2
#     Edge 13, Type (0, 0), BuildingBlock: EZIPEK_clean_linker_0, # of connection points: 2
#     Edge 14, Type (0, 0), BuildingBlock: EZIPEK_clean_linker_0, # of connection points: 2
#     Edge 15, Type (0, 0), BuildingBlock: EZIPEK_clean_linker_0, # of connection points: 2
#     Edge 16, Type (0, 0), BuildingBlock: EZIPEK_clean_linker_0, # of connection points: 2
#     Edge 17, Type (0, 0), BuildingBlock: EZIPEK_clean_linker_0, # of connection points: 2
#     Edge 18, Type (0, 0), BuildingBlock: EZIPEK_clean_linker_0, # of connection points: 2
#     Edge 19, Type (0, 0), BuildingBlock: EZIPEK_clean_linker_0, # of connection points: 2
#     Edge 20, Type (0, 0), BuildingBlock: EZIPEK_clean_linker_0, # of connection points: 2
#     Edge 21, Type (0, 0), BuildingBlock: EZIPEK_clean_linker_0, # of connection points: 2
#     Edge 22, Type (0, 0), BuildingBlock: EZIPEK_clean_linker_0, # of connection points: 2
#     Edge 23, Type (0, 0), BuildingBlock: EZIPEK_clean_linker_0, # of connection points: 2
# Relax obj value: 0.122
# Max RMSD: 0.207
# Mean RMSD: 0.201
data_MOF--net-ukg--node1-CEKHIL_clean_sbu_0--edge1-EZIPEK_clean_linker_0
_symmetry_space_group_name_H-M    P1
_symmetry_Int_Tables_number       1
_symmetry_cell_setting            triclinic
loop_
_symmetry_equiv_pos_as_xyz
'x, y, z'
_cell_length_a     22.251012
_cell_length_b     21.654158
_cell_length_c     27.503146
_cell_angle_alpha  90.026016
_cell_angle_beta   90.05543
_cell_angle_gamma 89.32147
loop_
_atom_site_label
_atom_site_type_symbol
_atom_site_fract_x
_atom_site_fract_y
_atom_site_fract_z
_atom_type_partial_charge
Co0 Co 0.01753 0.63734 0.15629 0.0
O1 O 0.04317 0.55473 0.13918 0.0
O2 O 0.01964 0.62741 0.08583 0.0
C3 C 0.94962 0.60661 0.21263 0.0
O4 O 0.98827 0.72661 0.16129 0.0
Co5 Co 0.04001 0.67933 0.26383 0.0
O6 O 0.99899 0.75552 0.23978 0.0
C7 C 0.13829 0.68181 0.19389 0.0
C8 C 0.03479 0.57007 0.09419 0.0
C9 C 0.98432 0.76672 0.19573 0.0
O10 O 0.10242 0.66981 0.15833 0.0
O11 O 0.12448 0.67278 0.23847 0.0
O12 O 0.93558 0.60823 0.16692 0.0
O13 O 0.0049 0.6186 0.2222 0.0
Co14 Co 0.33766 0.50546 0.63611 0.0
O15 O 0.41401 0.52202 0.60631 0.0
O16 O 0.33584 0.48302 0.56759 0.0
C17 C 0.37606 0.45554 0.70182 0.0
O18 O 0.25303 0.48 0.65635 0.0
Co19 Co 0.30871 0.56693 0.73399 0.0
O20 O 0.2366 0.51482 0.73229 0.0
C21 C 0.29628 0.63938 0.64515 0.0
C22 C 0.39162 0.50058 0.56642 0.0
C23 C 0.22118 0.48335 0.6954 0.0
O24 O 0.30826 0.59121 0.6197 0.0
O25 O 0.29853 0.64077 0.6915 0.0
O26 O 0.36719 0.4275 0.66083 0.0
O27 O 0.36731 0.51484 0.70092 0.0
Co28 Co 0.47956 0.85922 0.15268 0.0
O29 O 0.46269 0.94346 0.13432 0.0
O30 O 0.47656 0.86737 0.08208 0.0
C31 C 0.55071 0.88283 0.20886 0.0
O32 O 0.4995 0.7672 0.15943 0.0
Co33 Co 0.45482 0.82054 0.2611 0.0
O34 O 0.4936 0.74299 0.23924 0.0
C35 C 0.35782 0.81433 0.1871 0.0
C36 C 0.46655 0.92608 0.08937 0.0
C37 C 0.50414 0.72872 0.19506 0.0
O38 O 0.39143 0.83782 0.15399 0.0
O39 O 0.37382 0.80742 0.2315 0.0
O40 O 0.56419 0.87965 0.16301 0.0
O41 O 0.49437 0.87731 0.21852 0.0
Co42 Co 0.16057 0.00371 0.6348 0.0
O43 O 0.08351 0.98936 0.60517 0.0
O44 O 0.16248 0.02545 0.56603 0.0
C45 C 0.12378 0.05419 0.70071 0.0
O46 O 0.24634 0.02621 0.65476 0.0
Co47 Co 0.18865 0.94206 0.7333 0.0
O48 O 0.26629 0.98478 0.72798 0.0
C49 C 0.19784 0.8688 0.64435 0.0
C50 C 0.10621 0.00946 0.565 0.0
C51 C 0.28165 0.01669 0.69129 0.0
O52 O 0.18751 0.91712 0.61862 0.0
O53 O 0.19531 0.86781 0.69071 0.0
O54 O 0.13287 0.08251 0.65986 0.0
O55 O 0.13155 0.99489 0.69952 0.0
Co56 Co 0.96783 0.30025 0.87468 0.0
O57 O 0.90983 0.26219 0.9166 0.0
O58 O 0.89064 0.34105 0.86746 0.0
C59 C 0.00485 0.21316 0.84065 0.0
O60 O 0.01649 0.34696 0.82324 0.0
Co61 Co 0.10345 0.27626 0.89508 0.0
O62 O 0.11321 0.31599 0.8311 0.0
C63 C 0.04008 0.37136 0.95189 0.0
C64 C 0.87035 0.29822 0.89609 0.0
C65 C 0.07184 0.34576 0.80883 0.0
O66 O 0.99225 0.36101 0.92695 0.0
O67 O 0.08887 0.3401 0.947 0.0
O68 O 0.95333 0.23576 0.82798 0.0
O69 O 0.02736 0.23761 0.87978 0.0
Co70 Co 0.62344 0.47949 0.3421 0.0
O71 O 0.54429 0.46019 0.3657 0.0
O72 O 0.61584 0.50285 0.41003 0.0
C73 C 0.59339 0.52604 0.27245 0.0
O74 O 0.70901 0.50826 0.32899 0.0
Co75 Co 0.66766 0.41746 0.24676 0.0
O76 O 0.74039 0.46675 0.258 0.0
C77 C 0.67436 0.34821 0.3383 0.0
C78 C 0.56093 0.483 0.40705 0.0
C79 C 0.74817 0.50128 0.29488 0.0
O80 O 0.6549 0.39539 0.36206 0.0
O81 O 0.67793 0.34613 0.29197 0.0
O82 O 0.59334 0.55564 0.31341 0.0
O83 O 0.60423 0.46733 0.27537 0.0
Co84 Co 0.52909 0.20139 0.8718 0.0
O85 O 0.5849 0.24224 0.91428 0.0
O86 O 0.60791 0.1638 0.86576 0.0
C87 C 0.48975 0.28722 0.8374 0.0
O88 O 0.48408 0.1522 0.81936 0.0
Co89 Co 0.3924 0.21811 0.88752 0.0
O90 O 0.38622 0.17932 0.823 0.0
C91 C 0.45718 0.12483 0.94587 0.0
C92 C 0.62607 0.20759 0.8945 0.0
C93 C 0.42991 0.15149 0.80227 0.0
O94 O 0.50622 0.14022 0.92439 0.0
O95 O 0.40666 0.15151 0.93721 0.0
O96 O 0.54182 0.26586 0.82497 0.0
O97 O 0.46693 0.2618 0.876 0.0
Co98 Co 0.87018 0.0131 0.34254 0.0
O99 O 0.9457 0.04586 0.36538 0.0
O100 O 0.88281 0.99187 0.41034 0.0
C101 C 0.90568 0.97084 0.27276 0.0
O102 O 0.79045 0.96894 0.33141 0.0
Co103 Co 0.81402 0.06387 0.24676 0.0
O104 O 0.74937 0.00492 0.26183 0.0
C105 C 0.80215 0.13631 0.33624 0.0
C106 C 0.93402 0.01987 0.40672 0.0
C107 C 0.74868 0.96993 0.29896 0.0
O108 O 0.82574 0.09197 0.36128 0.0
O109 O 0.7987 0.13622 0.2899 0.0
O110 O 0.91193 0.94254 0.314 0.0
O111 O 0.88509 0.02678 0.27531 0.0
C112 C 0.07523 0.47566 0.98063 0.0
C113 C 0.03865 0.42294 0.98769 0.0
C114 C 0.99347 0.47198 0.05945 0.0
C115 C 0.03461 0.5216 0.05564 0.0
N116 N 0.11985 0.56715 0.01614 0.0
N117 N 0.96956 0.36655 0.03784 0.0
C118 C 0.07683 0.52265 0.01704 0.0
C119 C 0.9995 0.41997 0.02818 0.0
N120 N 0.10674 0.48193 0.9383 0.0
N121 N 0.94691 0.47556 0.09174 0.0
H122 H 0.9728 0.32735 0.0159 0.0
H123 H 0.94579 0.35907 0.06986 0.0
H124 H 0.9399 0.51323 0.11459 0.0
H125 H 0.91176 0.44425 0.09249 0.0
H126 H 0.12907 0.52211 0.9287 0.0
H127 H 0.10636 0.44889 0.91068 0.0
H128 H 0.15606 0.56645 0.99218 0.0
H129 H 0.12199 0.60243 0.04191 0.0
C130 C 0.44877 0.54956 0.49861 0.0
C131 C 0.43 0.49506 0.52251 0.0
C132 C 0.49549 0.43237 0.46957 0.0
C133 C 0.51778 0.4873 0.4482 0.0
N134 N 0.51932 0.59857 0.44389 0.0
N135 N 0.43951 0.38534 0.53539 0.0
C136 C 0.49559 0.54607 0.4633 0.0
C137 C 0.45403 0.43654 0.50896 0.0
N138 N 0.42018 0.60437 0.50868 0.0
N139 N 0.51406 0.37609 0.45221 0.0
H140 H 0.40831 0.38626 0.56366 0.0
H141 H 0.46092 0.34263 0.53156 0.0
H142 H 0.54778 0.37081 0.42617 0.0
H143 H 0.49409 0.33458 0.46169 0.0
H144 H 0.42714 0.64508 0.48954 0.0
H145 H 0.38533 0.60818 0.53391 0.0
H146 H 0.51045 0.64274 0.45715 0.0
H147 H 0.55093 0.5981 0.41595 0.0
C148 C 0.49959 0.97193 0.00823 0.0
C149 C 0.46078 0.97276 0.04934 0.0
C150 C 0.42567 0.0764 0.02561 0.0
C151 C 0.45872 0.07244 0.98152 0.0
N152 N 0.51267 0.00598 0.92525 0.0
N153 N 0.37292 0.0188 0.08705 0.0
C154 C 0.49143 0.0171 0.97106 0.0
C155 C 0.41948 0.02285 0.05491 0.0
N156 N 0.54633 0.93065 0.00535 0.0
N157 N 0.40251 0.13169 0.04111 0.0
H158 H 0.36403 0.97872 0.10666 0.0
H159 H 0.33902 0.05232 0.08945 0.0
H160 H 0.40965 0.17315 0.02289 0.0
H161 H 0.38255 0.13735 0.07513 0.0
H162 H 0.57883 0.93269 0.97813 0.0
H163 H 0.5568 0.89902 0.03263 0.0
H164 H 0.53212 0.96385 0.91517 0.0
H165 H 0.50437 0.03545 0.896 0.0
C166 C 0.99818 0.073 0.46934 0.0
C167 C 0.97977 0.01764 0.44627 0.0
C168 C 0.04827 0.95739 0.49864 0.0
C169 C 0.06827 0.01292 0.5205 0.0
N170 N 0.0693 0.12411 0.52266 0.0
N171 N 0.99536 0.90869 0.43197 0.0
C172 C 0.04564 0.07096 0.50432 0.0
C173 C 0.00696 0.96019 0.45907 0.0
N174 N 0.96814 0.12703 0.45952 0.0
N175 N 0.06834 0.90174 0.51616 0.0
H176 H 0.96561 0.90867 0.40267 0.0
H177 H 0.01873 0.86705 0.43578 0.0
H178 H 0.1021 0.89775 0.54234 0.0
H179 H 0.04962 0.85961 0.50659 0.0
H180 H 0.97469 0.16797 0.47852 0.0
H181 H 0.93279 0.12991 0.43467 0.0
H182 H 0.05948 0.16788 0.509 0.0
H183 H 0.10246 0.12431 0.54947 0.0
C184 C 0.23743 0.7007 0.15107 0.0
C185 C 0.1922 0.7203 0.18438 0.0
C186 C 0.24846 0.81543 0.20032 0.0
C187 C 0.29761 0.79074 0.17446 0.0
N188 N 0.33959 0.71293 0.1214 0.0
N189 N 0.15474 0.79807 0.2411 0.0
C190 C 0.29182 0.73492 0.14769 0.0
C191 C 0.19754 0.77838 0.2088 0.0
N192 N 0.22918 0.64863 0.12383 0.0
N193 N 0.25044 0.87534 0.21595 0.0
H194 H 0.11249 0.77859 0.24421 0.0
H195 H 0.16146 0.83389 0.26573 0.0
H196 H 0.28733 0.90344 0.20918 0.0
H197 H 0.21376 0.899 0.23074 0.0
H198 H 0.25677 0.63561 0.09499 0.0
H199 H 0.19284 0.61932 0.12845 0.0
H200 H 0.34176 0.66911 0.10595 0.0
H201 H 0.37889 0.73784 0.11656 0.0
C202 C 0.20859 0.70123 0.61707 0.0
C203 C 0.27185 0.69471 0.62099 0.0
C204 C 0.28436 0.80599 0.6152 0.0
C205 C 0.22124 0.81271 0.62063 0.0
N206 N 0.12232 0.77151 0.61241 0.0
N207 N 0.37018 0.73543 0.60845 0.0
C208 C 0.18291 0.76157 0.61601 0.0
C209 C 0.3099 0.7456 0.61422 0.0
N210 N 0.17375 0.64968 0.61728 0.0
N211 N 0.31943 0.85737 0.61434 0.0
H212 H 0.38859 0.69085 0.60743 0.0
H213 H 0.40121 0.76986 0.60155 0.0
H214 H 0.30116 0.90194 0.61344 0.0
H215 H 0.36616 0.85645 0.6147 0.0
H216 H 0.12705 0.65028 0.61807 0.0
H217 H 0.19237 0.60523 0.61631 0.0
H218 H 0.09086 0.73688 0.60785 0.0
H219 H 0.10377 0.81602 0.6113 0.0
C220 C 0.71805 0.24397 0.85061 0.0
C221 C 0.68973 0.22775 0.8951 0.0
C222 C 0.77557 0.26988 0.94026 0.0
C223 C 0.80612 0.2801 0.89573 0.0
N224 N 0.81029 0.26378 0.80839 0.0
N225 N 0.69445 0.21785 0.98221 0.0
C226 C 0.77844 0.2638 0.85093 0.0
C227 C 0.71931 0.23882 0.93999 0.0
N228 N 0.68686 0.24365 0.80771 0.0
N229 N 0.7997 0.29142 0.98263 0.0
H230 H 0.6539 0.19415 0.98303 0.0
H231 H 0.71629 0.21896 0.01568 0.0
H232 H 0.84028 0.31507 0.98379 0.0
H233 H 0.77724 0.29087 0.01581 0.0
H234 H 0.70279 0.26418 0.77604 0.0
H235 H 0.64329 0.22785 0.80385 0.0
H236 H 0.79482 0.24301 0.77662 0.0
H237 H 0.85388 0.27962 0.80489 0.0
C238 C 0.75926 0.29526 0.37983 0.0
C239 C 0.69852 0.29404 0.3646 0.0
C240 C 0.70345 0.18195 0.35831 0.0
C241 C 0.76703 0.18538 0.36088 0.0
N242 N 0.85613 0.24199 0.38 0.0
N243 N 0.6082 0.23795 0.35077 0.0
C244 C 0.79511 0.24081 0.37495 0.0
C245 C 0.66881 0.23741 0.35874 0.0
N246 N 0.78241 0.34888 0.3974 0.0
N247 N 0.67729 0.12569 0.35304 0.0
H248 H 0.58278 0.27874 0.35296 0.0
H249 H 0.58313 0.19918 0.3423 0.0
H250 H 0.70292 0.08514 0.35225 0.0
H251 H 0.63118 0.11856 0.3521 0.0
H252 H 0.82546 0.35246 0.41188 0.0
H253 H 0.75613 0.38882 0.40116 0.0
H254 H 0.8805 0.2822 0.38508 0.0
H255 H 0.8826 0.20201 0.37745 0.0
C256 C 0.80175 0.59942 0.28046 0.0
C257 C 0.80437 0.5369 0.29517 0.0
C258 C 0.9116 0.5317 0.27476 0.0
C259 C 0.90506 0.58899 0.2501 0.0
N260 N 0.84696 0.68088 0.23314 0.0
N261 N 0.86133 0.44457 0.31195 0.0
C262 C 0.85128 0.62441 0.2549 0.0
C263 C 0.85977 0.50395 0.29517 0.0
N264 N 0.7514 0.63411 0.28992 0.0
N265 N 0.96657 0.50301 0.27724 0.0
H266 H 0.82433 0.42473 0.32884 0.0
H267 H 0.89774 0.41444 0.3079 0.0
H268 H 0.00509 0.52079 0.26134 0.0
H269 H 0.97534 0.4639 0.29814 0.0
H270 H 0.74793 0.68135 0.28337 0.0
H271 H 0.71448 0.61659 0.3084 0.0
H272 H 0.80693 0.70562 0.22899 0.0
H273 H 0.88396 0.70206 0.21759 0.0
C274 C 0.45823 0.38448 0.72595 0.0
C275 C 0.40997 0.42276 0.74086 0.0
C276 C 0.4198 0.37982 0.82332 0.0
C277 C 0.45875 0.33273 0.80497 0.0
N278 N 0.50034 0.2828 0.73268 0.0
N279 N 0.34239 0.45554 0.80466 0.0
C280 C 0.47427 0.3331 0.75462 0.0
C281 C 0.39003 0.42032 0.78991 0.0
N282 N 0.48896 0.39709 0.68419 0.0
N283 N 0.41346 0.38847 0.87225 0.0
H284 H 0.32293 0.48891 0.78252 0.0
H285 H 0.32093 0.44954 0.83796 0.0
H286 H 0.43681 0.36257 0.89811 0.0
H287 H 0.39 0.42585 0.88714 0.0
H288 H 0.52767 0.37277 0.67395 0.0
H289 H 0.4801 0.4364 0.6633 0.0
H290 H 0.50795 0.28056 0.69531 0.0
H291 H 0.5053 0.24003 0.74956 0.0
C292 C 0.65119 0.8537 0.24459 0.0
C293 C 0.59766 0.89036 0.24696 0.0
C294 C 0.64216 0.94896 0.31372 0.0
C295 C 0.69893 0.92557 0.30054 0.0
N296 N 0.75812 0.84613 0.26321 0.0
N297 N 0.5417 0.97346 0.2863 0.0
C298 C 0.70328 0.87367 0.26983 0.0
C299 C 0.59211 0.93704 0.28327 0.0
N300 N 0.65183 0.80022 0.21836 0.0
N301 N 0.63699 0.98297 0.35516 0.0
H302 H 0.50435 0.9684 0.26395 0.0
H303 H 0.53884 0.01213 0.30877 0.0
H304 H 0.67398 0.98904 0.37803 0.0
H305 H 0.59594 -0.00165 0.36912 0.0
H306 H 0.68781 0.76911 0.21757 0.0
H307 H 0.61374 0.78443 0.2006 0.0
H308 H 0.76667 0.8115 0.2379 0.0
H309 H 0.79569 0.85952 0.28326 0.0
C310 C 0.07913 0.12499 0.8236 0.0
C311 C 0.03675 0.1699 0.80689 0.0
C312 C 0.03929 0.12154 0.72649 0.0
C313 C 0.09014 0.08615 0.74008 0.0
N314 N 0.16265 0.05803 0.80172 0.0
N315 N 0.99269 0.22066 0.73571 0.0
C316 C 0.11129 0.08865 0.78879 0.0
C317 C 0.02064 0.17063 0.75656 0.0
N318 N 0.08699 0.11466 0.87217 0.0
N319 N 0.00881 0.10876 0.68459 0.0
H320 H 0.9876 0.2631 0.75309 0.0
H321 H 0.98427 0.22357 0.69847 0.0
H322 H 0.0198 0.0712 0.66242 0.0
H323 H 0.96849 0.13092 0.6754 0.0
H324 H 0.11358 0.07862 0.88568 0.0
H325 H 0.06194 0.13718 0.8989 0.0
H326 H 0.18377 0.06407 0.83521 0.0
H327 H 0.18617 0.03003 0.77757 0.0
C328 C 0.08159 0.44335 0.75833 0.0
C329 C 0.09116 0.37873 0.76401 0.0
C330 C 0.17134 0.38066 0.70252 0.0
C331 C 0.1663 0.44586 0.70149 0.0
N332 N 0.10328 0.53537 0.71113 0.0
N333 N 0.13018 0.28383 0.72961 0.0
C334 C 0.11599 0.47548 0.72311 0.0
C335 C 0.1306 0.3468 0.73154 0.0
N336 N 0.04434 0.47512 0.78916 0.0
N337 N 0.21799 0.35136 0.67945 0.0
H338 H 0.10342 0.25769 0.75241 0.0
H339 H 0.15254 0.25791 0.70319 0.0
H340 H 0.24584 0.37323 0.65465 0.0
H341 H 0.23005 0.30542 0.68562 0.0
H342 H 0.04188 0.52315 0.79044 0.0
H343 H 0.01819 0.45414 0.8156 0.0
H344 H 0.06462 0.55884 0.72242 0.0
H345 H 0.12905 0.55907 0.68567 0.0
C346 C 0.50607 0.56236 0.22475 0.0
C347 C 0.56913 0.55663 0.22842 0.0
C348 C 0.58059 0.6477 0.17676 0.0
C349 C 0.52015 0.66318 0.18662 0.0
N350 N 0.42129 0.6316 0.21027 0.0
N351 N 0.6669 0.58528 0.20014 0.0
C352 C 0.48115 0.61812 0.20605 0.0
C353 C 0.60654 0.59591 0.20087 0.0
N354 N 0.47083 0.51585 0.2416 0.0
N355 N 0.61282 0.68327 0.14555 0.0
H356 H 0.68514 0.54477 0.21426 0.0
H357 H 0.69807 0.61606 0.1862 0.0
H358 H 0.59319 0.72048 0.12712 0.0
H359 H 0.65658 0.67284 0.13472 0.0
H360 H 0.42428 0.51526 0.23801 0.0
H361 H 0.48937 0.47509 0.25565 0.0
H362 H 0.39065 0.60403 0.22846 0.0
H363 H 0.40283 0.67237 0.19631 0.0
C364 C 0.37601 0.14838 0.72206 0.0
C365 C 0.41474 0.11823 0.75631 0.0
C366 C 0.38735 0.01815 0.72174 0.0
C367 C 0.34074 0.04822 0.69528 0.0
N368 N 0.31453 0.13901 0.64947 0.0
N369 N 0.47324 0.02673 0.77604 0.0
C370 C 0.34325 0.11253 0.6882 0.0
C371 C 0.42656 0.05381 0.75142 0.0
N372 N 0.3678 0.21094 0.72383 0.0
N373 N 0.39137 0.9552 0.71984 0.0
H374 H 0.5035 0.05143 0.79701 0.0
H375 H 0.48552 0.98045 0.77278 0.0
H376 H 0.36483 0.92975 0.69594 0.0
H377 H 0.41974 0.92829 0.74141 0.0
H378 H 0.33459 0.23454 0.70436 0.0
H379 H 0.39231 0.23909 0.74697 0.0
H380 H 0.31781 0.1856 0.64065 0.0
H381 H 0.29427 0.11273 0.62242 0.0
C382 C 0.9048 0.84748 0.18146 0.0
C383 C 0.96617 0.83116 0.18514 0.0
C384 C 0.98917 0.93024 0.22187 0.0
C385 C 0.92686 0.94104 0.22738 0.0
N386 N 0.83006 0.92951 0.19083 0.0
N387 N 0.06682 0.86836 0.18251 0.0
C388 C 0.88586 0.90598 0.19977 0.0
C389 C 0.00853 0.87704 0.19609 0.0
N390 N 0.86538 0.8067 0.16188 0.0
N391 N 0.02913 0.96842 0.24399 0.0
H392 H 0.08001 0.82925 0.16273 0.0
H393 H 0.09973 0.90176 0.18676 0.0
H394 H 0.01516 0.00879 0.26169 0.0
H395 H 0.07512 0.95907 0.2458 0.0
H396 H 0.81903 0.81367 0.16132 0.0
H397 H 0.88011 0.76547 0.14594 0.0
H398 H 0.79784 0.90746 0.1698 0.0
H399 H 0.81989 0.97513 0.19981 0.0
loop_
_geom_bond_atom_site_label_1
_geom_bond_atom_site_label_2
_geom_bond_distance
_geom_bond_site_symmetry_2
_ccdc_geom_bond_type
Co0 O1 2.216 . S
Co0 O2 2.091 1_455 S
Co0 O4 2.004 1_455 S
Co0 O10 2.021 . S
Co0 O12 2.137 1_455 S
Co0 O13 2.244 . S
O1 Co0 2.216 . S
O1 C8 1.247 . S
O2 Co0 2.091 1_655 S
O2 C8 1.261 1_655 S
C3 O12 1.247 . S
C3 O13 1.272 1_655 S
O4 Co0 2.004 1_655 S
O4 C9 1.259 . S
Co5 O6 2.061 . S
Co5 O11 2.052 . S
Co5 O13 2.135 . S
O6 Co5 2.061 . S
O6 C9 1.235 1_455 S
C7 O10 1.238 . S
C7 O11 1.241 . S
C8 O1 1.247 . S
C8 O2 1.261 1_455 S
C9 O4 1.259 . S
C9 O6 1.235 1_655 S
O10 Co0 2.021 . S
O10 C7 1.238 . S
O11 Co5 2.052 . S
O11 C7 1.241 . S
O12 Co0 2.137 1_655 S
O12 C3 1.247 . S
O13 Co0 2.244 . S
O13 C3 1.272 1_455 S
O13 Co5 2.135 . S
Co14 O15 2.216 . S
Co14 O16 2.091 . S
Co14 O18 2.004 . S
Co14 O24 2.021 . S
Co14 O26 2.137 . S
Co14 O27 2.244 . S
O15 Co14 2.216 . S
O15 C22 1.247 . S
O16 Co14 2.091 . S
O16 C22 1.261 . S
C17 O26 1.247 . S
C17 O27 1.272 . S
O18 Co14 2.004 . S
O18 C23 1.259 . S
Co19 O20 2.061 . S
Co19 O25 2.052 . S
Co19 O27 2.135 . S
O20 Co19 2.061 . S
O20 C23 1.235 . S
C21 O24 1.238 . S
C21 O25 1.241 . S
C22 O15 1.247 . S
C22 O16 1.261 . S
C23 O18 1.259 . S
C23 O20 1.235 . S
O24 Co14 2.021 . S
O24 C21 1.238 . S
O25 Co19 2.052 . S
O25 C21 1.241 . S
O26 Co14 2.137 . S
O26 C17 1.247 . S
O27 Co14 2.244 . S
O27 C17 1.272 . S
O27 Co19 2.135 . S
Co28 O29 2.216 . S
Co28 O30 2.091 . S
Co28 O32 2.004 . S
Co28 O38 2.021 . S
Co28 O40 2.137 . S
Co28 O41 2.244 . S
O29 Co28 2.216 . S
O29 C36 1.247 . S
O30 Co28 2.091 . S
O30 C36 1.261 . S
C31 O40 1.247 . S
C31 O41 1.272 . S
O32 Co28 2.004 . S
O32 C37 1.259 . S
Co33 O34 2.061 . S
Co33 O39 2.052 . S
Co33 O41 2.135 . S
O34 Co33 2.061 . S
O34 C37 1.235 . S
C35 O38 1.238 . S
C35 O39 1.241 . S
C36 O29 1.247 . S
C36 O30 1.261 . S
C37 O32 1.259 . S
C37 O34 1.235 . S
O38 Co28 2.021 . S
O38 C35 1.238 . S
O39 Co33 2.052 . S
O39 C35 1.241 . S
O40 Co28 2.137 . S
O40 C31 1.247 . S
O41 Co28 2.244 . S
O41 C31 1.272 . S
O41 Co33 2.135 . S
Co42 O43 2.216 . S
Co42 O44 2.091 1_565 S
Co42 O46 2.004 1_565 S
Co42 O52 2.021 . S
Co42 O54 2.137 1_565 S
Co42 O55 2.244 . S
O43 Co42 2.216 . S
O43 C50 1.247 . S
O44 Co42 2.091 1_545 S
O44 C50 1.261 1_545 S
C45 O54 1.247 . S
C45 O55 1.272 1_545 S
O46 Co42 2.004 1_545 S
O46 C51 1.259 . S
Co47 O48 2.061 . S
Co47 O53 2.052 . S
Co47 O55 2.135 . S
O48 Co47 2.061 . S
O48 C51 1.235 1_565 S
C49 O52 1.238 . S
C49 O53 1.241 . S
C50 O43 1.247 . S
C50 O44 1.261 1_565 S
C51 O46 1.259 . S
C51 O48 1.235 1_545 S
O52 Co42 2.021 . S
O52 C49 1.238 . S
O53 Co47 2.052 . S
O53 C49 1.241 . S
O54 Co42 2.137 1_545 S
O54 C45 1.247 . S
O55 Co42 2.244 . S
O55 C45 1.272 1_565 S
O55 Co47 2.135 . S
Co56 O57 2.216 . S
Co56 O58 2.091 . S
Co56 O60 2.004 1_655 S
Co56 O66 2.021 . S
Co56 O68 2.137 . S
Co56 O69 2.244 1_655 S
O57 Co56 2.216 . S
O57 C64 1.247 . S
O58 Co56 2.091 . S
O58 C64 1.261 . S
C59 O68 1.247 1_455 S
C59 O69 1.272 . S
O60 Co56 2.004 1_455 S
O60 C65 1.259 . S
Co61 O62 2.061 . S
Co61 O67 2.052 . S
Co61 O69 2.135 . S
O62 Co61 2.061 . S
O62 C65 1.235 . S
C63 O66 1.238 1_455 S
C63 O67 1.241 . S
C64 O57 1.247 . S
C64 O58 1.261 . S
C65 O60 1.259 . S
C65 O62 1.235 . S
O66 Co56 2.021 . S
O66 C63 1.238 1_655 S
O67 Co61 2.052 . S
O67 C63 1.241 . S
O68 Co56 2.137 . S
O68 C59 1.247 1_655 S
O69 Co56 2.244 1_455 S
O69 C59 1.272 . S
O69 Co61 2.135 . S
Co70 O71 2.216 . S
Co70 O72 2.091 . S
Co70 O74 2.004 . S
Co70 O80 2.021 . S
Co70 O82 2.137 . S
Co70 O83 2.244 . S
O71 Co70 2.216 . S
O71 C78 1.247 . S
O72 Co70 2.091 . S
O72 C78 1.261 . S
C73 O82 1.247 . S
C73 O83 1.272 . S
O74 Co70 2.004 . S
O74 C79 1.259 . S
Co75 O76 2.061 . S
Co75 O81 2.052 . S
Co75 O83 2.135 . S
O76 Co75 2.061 . S
O76 C79 1.235 . S
C77 O80 1.238 . S
C77 O81 1.241 . S
C78 O71 1.247 . S
C78 O72 1.261 . S
C79 O74 1.259 . S
C79 O76 1.235 . S
O80 Co70 2.021 . S
O80 C77 1.238 . S
O81 Co75 2.052 . S
O81 C77 1.241 . S
O82 Co70 2.137 . S
O82 C73 1.247 . S
O83 Co70 2.244 . S
O83 C73 1.272 . S
O83 Co75 2.135 . S
Co84 O85 2.216 . S
Co84 O86 2.091 . S
Co84 O88 2.004 . S
Co84 O94 2.021 . S
Co84 O96 2.137 . S
Co84 O97 2.244 . S
O85 Co84 2.216 . S
O85 C92 1.247 . S
O86 Co84 2.091 . S
O86 C92 1.261 . S
C87 O96 1.247 . S
C87 O97 1.272 . S
O88 Co84 2.004 . S
O88 C93 1.259 . S
Co89 O90 2.061 . S
Co89 O95 2.052 . S
Co89 O97 2.135 . S
O90 Co89 2.061 . S
O90 C93 1.235 . S
C91 O94 1.238 . S
C91 O95 1.241 . S
C92 O85 1.247 . S
C92 O86 1.261 . S
C93 O88 1.259 . S
C93 O90 1.235 . S
O94 Co84 2.021 . S
O94 C91 1.238 . S
O95 Co89 2.052 . S
O95 C91 1.241 . S
O96 Co84 2.137 . S
O96 C87 1.247 . S
O97 Co84 2.244 . S
O97 C87 1.272 . S
O97 Co89 2.135 . S
Co98 O99 2.216 . S
Co98 O100 2.091 1_545 S
Co98 O102 2.004 1_545 S
Co98 O108 2.021 . S
Co98 O110 2.137 1_545 S
Co98 O111 2.244 . S
O99 Co98 2.216 . S
O99 C106 1.247 . S
O100 Co98 2.091 1_565 S
O100 C106 1.261 1_565 S
C101 O110 1.247 . S
C101 O111 1.272 1_565 S
O102 Co98 2.004 1_565 S
O102 C107 1.259 . S
Co103 O104 2.061 . S
Co103 O109 2.052 . S
Co103 O111 2.135 . S
O104 Co103 2.061 . S
O104 C107 1.235 1_545 S
C105 O108 1.238 . S
C105 O109 1.241 . S
C106 O99 1.247 . S
C106 O100 1.261 1_545 S
C107 O102 1.259 . S
C107 O104 1.235 1_565 S
O108 Co98 2.021 . S
O108 C105 1.238 . S
O109 Co103 2.052 . S
O109 C105 1.241 . S
O110 Co98 2.137 1_565 S
O110 C101 1.247 . S
O111 Co98 2.244 . S
O111 C101 1.272 1_545 S
O111 Co103 2.135 . S
C112 C113 1.355 1_455 S
C112 C118 1.379 . S
C112 N120 1.356 . S
C113 C112 1.355 1_655 S
C113 C119 1.369 1_556 S
C114 C115 1.363 1_655 S
C114 C119 1.379 . S
C114 N121 1.356 . S
C115 C114 1.363 1_455 S
C115 C118 1.363 1_554 S
N116 C118 1.356 . S
N116 H128 0.984 . S
N116 H129 0.985 1_556 S
N117 C119 1.356 . S
N117 H122 0.984 1_554 S
N117 H123 0.985 . S
C118 C112 1.379 . S
C118 C115 1.363 1_556 S
C118 N116 1.356 . S
C119 C113 1.369 1_554 S
C119 C114 1.379 . S
C119 N117 1.356 . S
N120 C112 1.356 . S
N120 H126 0.984 . S
N120 H127 0.984 . S
N121 C114 1.356 . S
N121 H124 0.984 . S
N121 H125 0.985 . S
H122 N117 0.984 1_556 S
H123 N117 0.985 . S
H124 N121 0.984 . S
H125 N121 0.985 . S
H126 N120 0.984 . S
H127 N120 0.984 . S
H128 N116 0.984 . S
H129 N116 0.985 1_554 S
C130 C131 1.363 . S
C130 C136 1.379 . S
C130 N138 1.356 . S
C131 C130 1.363 . S
C131 C137 1.363 . S
C132 C133 1.363 . S
C132 C137 1.379 . S
C132 N139 1.356 . S
C133 C132 1.363 . S
C133 C136 1.363 . S
N134 C136 1.356 . S
N134 H146 0.984 . S
N134 H147 0.985 . S
N135 C137 1.356 . S
N135 H140 0.984 . S
N135 H141 0.985 . S
C136 C130 1.379 . S
C136 C133 1.363 . S
C136 N134 1.356 . S
C137 C131 1.363 . S
C137 C132 1.379 . S
C137 N135 1.356 . S
N138 C130 1.356 . S
N138 H144 0.984 . S
N138 H145 0.984 . S
N139 C132 1.356 . S
N139 H142 0.984 . S
N139 H143 0.985 . S
H140 N135 0.984 . S
H141 N135 0.985 . S
H142 N139 0.984 . S
H143 N139 0.985 . S
H144 N138 0.984 . S
H145 N138 0.984 . S
H146 N134 0.984 . S
H147 N134 0.985 . S
C148 C149 1.363 1_556 S
C148 C154 1.379 1_565 S
C148 N156 1.356 . S
C149 C148 1.363 1_554 S
C149 C155 1.363 1_565 S
C150 C151 1.363 1_554 S
C150 C155 1.379 . S
C150 N157 1.356 . S
C151 C150 1.363 1_556 S
C151 C154 1.363 . S
N152 C154 1.356 . S
N152 H164 0.984 1_545 S
N152 H165 0.985 . S
N153 C155 1.356 . S
N153 H158 0.984 1_545 S
N153 H159 0.985 . S
C154 C148 1.379 1_545 S
C154 C151 1.363 . S
C154 N152 1.356 . S
C155 C149 1.363 1_545 S
C155 C150 1.379 . S
C155 N153 1.356 . S
N156 C148 1.356 . S
N156 H162 0.984 . S
N156 H163 0.984 1_556 S
N157 C150 1.356 . S
N157 H160 0.984 1_554 S
N157 H161 0.985 . S
H158 N153 0.984 1_565 S
H159 N153 0.985 . S
H160 N157 0.984 1_556 S
H161 N157 0.985 . S
H162 N156 0.984 . S
H163 N156 0.984 1_554 S
H164 N152 0.984 1_565 S
H165 N152 0.985 . S
C166 C167 1.363 . S
C166 C172 1.379 1_655 S
C166 N174 1.356 . S
C167 C166 1.363 . S
C167 C173 1.363 1_545 S
C168 C169 1.363 1_655 S
C168 C173 1.379 . S
C168 N175 1.356 1_655 S
C169 C168 1.363 1_455 S
C169 C172 1.363 1_565 S
N170 C172 1.356 . S
N170 H182 0.984 . S
N170 H183 0.985 . S
N171 C173 1.356 . S
N171 H176 0.984 . S
N171 H177 0.985 . S
C172 C166 1.379 1_455 S
C172 C169 1.363 1_545 S
C172 N170 1.356 . S
C173 C167 1.363 1_565 S
C173 C168 1.379 . S
C173 N171 1.356 . S
N174 C166 1.356 . S
N174 H180 0.984 . S
N174 H181 0.984 . S
N175 C168 1.356 1_455 S
N175 H178 0.984 . S
N175 H179 0.985 1_455 S
H176 N171 0.984 . S
H177 N171 0.985 . S
H178 N175 0.984 . S
H179 N175 0.985 1_655 S
H180 N174 0.984 . S
H181 N174 0.984 . S
H182 N170 0.984 . S
H183 N170 0.985 . S
C184 C185 1.363 . S
C184 C190 1.379 . S
C184 N192 1.356 . S
C185 C184 1.363 . S
C185 C191 1.363 . S
C186 C187 1.363 . S
C186 C191 1.379 . S
C186 N193 1.356 . S
C187 C186 1.363 . S
C187 C190 1.363 . S
N188 C190 1.356 . S
N188 H200 0.984 . S
N188 H201 0.985 . S
N189 C191 1.356 . S
N189 H194 0.984 . S
N189 H195 0.985 . S
C190 C184 1.379 . S
C190 C187 1.363 . S
C190 N188 1.356 . S
C191 C185 1.363 . S
C191 C186 1.379 . S
C191 N189 1.356 . S
N192 C184 1.356 . S
N192 H198 0.984 . S
N192 H199 0.984 . S
N193 C186 1.356 . S
N193 H196 0.984 . S
N193 H197 0.985 . S
H194 N189 0.984 . S
H195 N189 0.985 . S
H196 N193 0.984 . S
H197 N193 0.985 . S
H198 N192 0.984 . S
H199 N192 0.984 . S
H200 N188 0.984 . S
H201 N188 0.985 . S
C202 C203 1.363 . S
C202 C208 1.379 . S
C202 N210 1.356 . S
C203 C202 1.363 . S
C203 C209 1.363 . S
C204 C205 1.363 . S
C204 C209 1.379 . S
C204 N211 1.356 . S
C205 C204 1.363 . S
C205 C208 1.363 . S
N206 C208 1.356 . S
N206 H218 0.984 . S
N206 H219 0.985 . S
N207 C209 1.356 . S
N207 H212 0.984 . S
N207 H213 0.985 . S
C208 C202 1.379 . S
C208 C205 1.363 . S
C208 N206 1.356 . S
C209 C203 1.363 . S
C209 C204 1.379 . S
C209 N207 1.356 . S
N210 C202 1.356 . S
N210 H216 0.984 . S
N210 H217 0.984 . S
N211 C204 1.356 . S
N211 H214 0.984 . S
N211 H215 0.985 . S
H212 N207 0.984 . S
H213 N207 0.985 . S
H214 N211 0.984 . S
H215 N211 0.985 . S
H216 N210 0.984 . S
H217 N210 0.984 . S
H218 N206 0.984 . S
H219 N206 0.985 . S
C220 C221 1.363 . S
C220 C226 1.379 . S
C220 N228 1.356 . S
C221 C220 1.363 . S
C221 C227 1.363 . S
C222 C223 1.363 . S
C222 C227 1.379 . S
C222 N229 1.356 . S
C223 C222 1.363 . S
C223 C226 1.363 . S
N224 C226 1.356 . S
N224 H236 0.984 . S
N224 H237 0.985 . S
N225 C227 1.356 . S
N225 H230 0.984 . S
N225 H231 0.985 . S
C226 C220 1.379 . S
C226 C223 1.363 . S
C226 N224 1.356 . S
C227 C221 1.363 . S
C227 C222 1.379 . S
C227 N225 1.356 . S
N228 C220 1.356 . S
N228 H234 0.984 . S
N228 H235 0.984 . S
N229 C222 1.356 . S
N229 H232 0.984 . S
N229 H233 0.985 . S
H230 N225 0.984 . S
H231 N225 0.985 . S
H232 N229 0.984 . S
H233 N229 0.985 . S
H234 N228 0.984 . S
H235 N228 0.984 . S
H236 N224 0.984 . S
H237 N224 0.985 . S
C238 C239 1.363 . S
C238 C244 1.379 . S
C238 N246 1.356 . S
C239 C238 1.363 . S
C239 C245 1.363 . S
C240 C241 1.363 . S
C240 C245 1.379 . S
C240 N247 1.356 . S
C241 C240 1.363 . S
C241 C244 1.363 . S
N242 C244 1.356 . S
N242 H254 0.984 . S
N242 H255 0.985 . S
N243 C245 1.356 . S
N243 H248 0.984 . S
N243 H249 0.985 . S
C244 C238 1.379 . S
C244 C241 1.363 . S
C244 N242 1.356 . S
C245 C239 1.363 . S
C245 C240 1.379 . S
C245 N243 1.356 . S
N246 C238 1.356 . S
N246 H252 0.984 . S
N246 H253 0.984 . S
N247 C240 1.356 . S
N247 H250 0.984 . S
N247 H251 0.985 . S
H248 N243 0.984 . S
H249 N243 0.985 . S
H250 N247 0.984 . S
H251 N247 0.985 . S
H252 N246 0.984 . S
H253 N246 0.984 . S
H254 N242 0.984 . S
H255 N242 0.985 . S
C256 C257 1.363 . S
C256 C262 1.379 . S
C256 N264 1.356 . S
C257 C256 1.363 . S
C257 C263 1.363 . S
C258 C259 1.363 . S
C258 C263 1.379 . S
C258 N265 1.356 . S
C259 C258 1.363 . S
C259 C262 1.363 . S
N260 C262 1.356 . S
N260 H272 0.984 . S
N260 H273 0.985 . S
N261 C263 1.356 . S
N261 H266 0.984 . S
N261 H267 0.985 . S
C262 C256 1.379 . S
C262 C259 1.363 . S
C262 N260 1.356 . S
C263 C257 1.363 . S
C263 C258 1.379 . S
C263 N261 1.356 . S
N264 C256 1.356 . S
N264 H270 0.984 . S
N264 H271 0.984 . S
N265 C258 1.356 . S
N265 H268 0.984 . S
N265 H269 0.985 . S
H266 N261 0.984 . S
H267 N261 0.985 . S
H268 N265 0.984 . S
H269 N265 0.985 . S
H270 N264 0.984 . S
H271 N264 0.984 . S
H272 N260 0.984 . S
H273 N260 0.985 . S
C274 C275 1.363 . S
C274 C280 1.379 . S
C274 N282 1.356 . S
C275 C274 1.363 . S
C275 C281 1.363 . S
C276 C277 1.363 . S
C276 C281 1.379 . S
C276 N283 1.356 . S
C277 C276 1.363 . S
C277 C280 1.363 . S
N278 C280 1.356 . S
N278 H290 0.984 . S
N278 H291 0.985 . S
N279 C281 1.356 . S
N279 H284 0.984 . S
N279 H285 0.985 . S
C280 C274 1.379 . S
C280 C277 1.363 . S
C280 N278 1.356 . S
C281 C275 1.363 . S
C281 C276 1.379 . S
C281 N279 1.356 . S
N282 C274 1.356 . S
N282 H288 0.984 . S
N282 H289 0.984 . S
N283 C276 1.356 . S
N283 H286 0.984 . S
N283 H287 0.985 . S
H284 N279 0.984 . S
H285 N279 0.985 . S
H286 N283 0.984 . S
H287 N283 0.985 . S
H288 N282 0.984 . S
H289 N282 0.984 . S
H290 N278 0.984 . S
H291 N278 0.985 . S
C292 C293 1.363 . S
C292 C298 1.379 . S
C292 N300 1.356 . S
C293 C292 1.363 . S
C293 C299 1.363 . S
C294 C295 1.363 . S
C294 C299 1.379 . S
C294 N301 1.356 1_565 S
C295 C294 1.363 . S
C295 C298 1.363 . S
N296 C298 1.356 . S
N296 H308 0.984 . S
N296 H309 0.985 . S
N297 C299 1.356 . S
N297 H302 0.984 . S
N297 H303 0.985 1_565 S
C298 C292 1.379 . S
C298 C295 1.363 . S
C298 N296 1.356 . S
C299 C293 1.363 . S
C299 C294 1.379 . S
C299 N297 1.356 . S
N300 C292 1.356 . S
N300 H306 0.984 . S
N300 H307 0.984 . S
N301 C294 1.356 1_545 S
N301 H304 0.984 . S
N301 H305 0.985 . S
H302 N297 0.984 . S
H303 N297 0.985 1_545 S
H304 N301 0.984 . S
H305 N301 0.985 . S
H306 N300 0.984 . S
H307 N300 0.984 . S
H308 N296 0.984 . S
H309 N296 0.985 . S
C310 C311 1.363 . S
C310 C316 1.379 . S
C310 N318 1.356 . S
C311 C310 1.363 . S
C311 C317 1.363 . S
C312 C313 1.363 . S
C312 C317 1.379 . S
C312 N319 1.356 . S
C313 C312 1.363 . S
C313 C316 1.363 . S
N314 C316 1.356 . S
N314 H326 0.984 . S
N314 H327 0.985 . S
N315 C317 1.356 1_655 S
N315 H320 0.984 . S
N315 H321 0.985 . S
C316 C310 1.379 . S
C316 C313 1.363 . S
C316 N314 1.356 . S
C317 C311 1.363 . S
C317 C312 1.379 . S
C317 N315 1.356 1_455 S
N318 C310 1.356 . S
N318 H324 0.984 . S
N318 H325 0.984 . S
N319 C312 1.356 . S
N319 H322 0.984 . S
N319 H323 0.985 1_455 S
H320 N315 0.984 . S
H321 N315 0.985 . S
H322 N319 0.984 . S
H323 N319 0.985 1_655 S
H324 N318 0.984 . S
H325 N318 0.984 . S
H326 N314 0.984 . S
H327 N314 0.985 . S
C328 C329 1.363 . S
C328 C334 1.379 . S
C328 N336 1.356 . S
C329 C328 1.363 . S
C329 C335 1.363 . S
C330 C331 1.363 . S
C330 C335 1.379 . S
C330 N337 1.356 . S
C331 C330 1.363 . S
C331 C334 1.363 . S
N332 C334 1.356 . S
N332 H344 0.984 . S
N332 H345 0.985 . S
N333 C335 1.356 . S
N333 H338 0.984 . S
N333 H339 0.985 . S
C334 C328 1.379 . S
C334 C331 1.363 . S
C334 N332 1.356 . S
C335 C329 1.363 . S
C335 C330 1.379 . S
C335 N333 1.356 . S
N336 C328 1.356 . S
N336 H342 0.984 . S
N336 H343 0.984 . S
N337 C330 1.356 . S
N337 H340 0.984 . S
N337 H341 0.985 . S
H338 N333 0.984 . S
H339 N333 0.985 . S
H340 N337 0.984 . S
H341 N337 0.985 . S
H342 N336 0.984 . S
H343 N336 0.984 . S
H344 N332 0.984 . S
H345 N332 0.985 . S
C346 C347 1.363 . S
C346 C352 1.379 . S
C346 N354 1.356 . S
C347 C346 1.363 . S
C347 C353 1.363 . S
C348 C349 1.363 . S
C348 C353 1.379 . S
C348 N355 1.356 . S
C349 C348 1.363 . S
C349 C352 1.363 . S
N350 C352 1.356 . S
N350 H362 0.984 . S
N350 H363 0.985 . S
N351 C353 1.356 . S
N351 H356 0.984 . S
N351 H357 0.985 . S
C352 C346 1.379 . S
C352 C349 1.363 . S
C352 N350 1.356 . S
C353 C347 1.363 . S
C353 C348 1.379 . S
C353 N351 1.356 . S
N354 C346 1.356 . S
N354 H360 0.984 . S
N354 H361 0.984 . S
N355 C348 1.356 . S
N355 H358 0.984 . S
N355 H359 0.985 . S
H356 N351 0.984 . S
H357 N351 0.985 . S
H358 N355 0.984 . S
H359 N355 0.985 . S
H360 N354 0.984 . S
H361 N354 0.984 . S
H362 N350 0.984 . S
H363 N350 0.985 . S
C364 C365 1.363 . S
C364 C370 1.379 . S
C364 N372 1.356 . S
C365 C364 1.363 . S
C365 C371 1.363 . S
C366 C367 1.363 . S
C366 C371 1.379 . S
C366 N373 1.356 1_545 S
C367 C366 1.363 . S
C367 C370 1.363 . S
N368 C370 1.356 . S
N368 H380 0.984 . S
N368 H381 0.985 . S
N369 C371 1.356 1_565 S
N369 H374 0.984 1_565 S
N369 H375 0.985 . S
C370 C364 1.379 . S
C370 C367 1.363 . S
C370 N368 1.356 . S
C371 C365 1.363 . S
C371 C366 1.379 . S
C371 N369 1.356 1_545 S
N372 C364 1.356 . S
N372 H378 0.984 . S
N372 H379 0.984 . S
N373 C366 1.356 1_565 S
N373 H376 0.984 . S
N373 H377 0.985 . S
H374 N369 0.984 1_545 S
H375 N369 0.985 . S
H376 N373 0.984 . S
H377 N373 0.985 . S
H378 N372 0.984 . S
H379 N372 0.984 . S
H380 N368 0.984 . S
H381 N368 0.985 . S
C382 C383 1.363 . S
C382 C388 1.379 . S
C382 N390 1.356 . S
C383 C382 1.363 . S
C383 C389 1.363 . S
C384 C385 1.363 . S
C384 C389 1.379 . S
C384 N391 1.356 . S
C385 C384 1.363 . S
C385 C388 1.363 . S
N386 C388 1.356 . S
N386 H398 0.984 . S
N386 H399 0.985 . S
N387 C389 1.356 1_455 S
N387 H392 0.984 . S
N387 H393 0.985 . S
C388 C382 1.379 . S
C388 C385 1.363 . S
C388 N386 1.356 . S
C389 C383 1.363 . S
C389 C384 1.379 . S
C389 N387 1.356 1_655 S
N390 C382 1.356 . S
N390 H396 0.984 . S
N390 H397 0.984 . S
N391 C384 1.356 . S
N391 H394 0.984 . S
N391 H395 0.985 1_655 S
H392 N387 0.984 . S
H393 N387 0.985 . S
H394 N391 0.984 . S
H395 N391 0.985 1_455 S
H396 N390 0.984 . S
H397 N390 0.984 . S
H398 N386 0.984 . S
H399 N386 0.985 . S
C113 C63 1.586 1_655 S
C115 C8 1.621 . S
C131 C22 1.613 . S
C133 C78 1.612 . S
C149 C36 1.621 . S
C151 C91 1.587 . S
C167 C106 1.612 . S
C169 C50 1.613 . S
C185 C7 1.551 . S
C187 C35 1.551 . S
C203 C21 1.492 . S
C205 C49 1.492 . S
C221 C92 1.443 . S
C223 C64 1.443 . S
C239 C77 1.435 . S
C241 C105 1.435 . S
C257 C79 1.213 . S
C259 C3 1.222 . S
C275 C17 1.168 . S
C277 C87 1.170 . S
C293 C31 1.222 . S
C295 C107 1.213 . S
C311 C59 1.170 . S
C313 C45 1.168 . S
C329 C65 1.114 . S
C331 C23 1.110 . S
C347 C73 1.179 . S
C349 C37 1.152 . S
C365 C93 1.114 . S
C367 C51 1.110 . S
C383 C9 1.152 . S
C385 C101 1.179 . S
