# Generated by pormake.
# Topology ana, (4)-cn, num edge types: 1
# Building blocks:
#     Node 0, Type 0, BuildingBlock: CEKHIL_clean_sbu_0, # of connection points: 4
#     Node 1, Type 0, BuildingBlock: CEKHIL_clean_sbu_0, # of connection points: 4
#     Node 2, Type 0, BuildingBlock: CEKHIL_clean_sbu_0, # of connection points: 4
#     Node 3, Type 0, BuildingBlock: CEKHIL_clean_sbu_0, # of connection points: 4
#     Node 4, Type 0, BuildingBlock: CEKHIL_clean_sbu_0, # of connection points: 4
#     Node 5, Type 0, BuildingBlock: CEKHIL_clean_sbu_0, # of connection points: 4
#     Node 6, Type 0, BuildingBlock: CEKHIL_clean_sbu_0, # of connection points: 4
#     Node 7, Type 0, BuildingBlock: CEKHIL_clean_sbu_0, # of connection points: 4
#     Node 8, Type 0, BuildingBlock: CEKHIL_clean_sbu_0, # of connection points: 4
#     Node 9, Type 0, BuildingBlock: CEKHIL_clean_sbu_0, # of connection points: 4
#     Node 10, Type 0, BuildingBlock: CEKHIL_clean_sbu_0, # of connection points: 4
#     Node 11, Type 0, BuildingBlock: CEKHIL_clean_sbu_0, # of connection points: 4
#     Node 12, Type 0, BuildingBlock: CEKHIL_clean_sbu_0, # of connection points: 4
#     Node 13, Type 0, BuildingBlock: CEKHIL_clean_sbu_0, # of connection points: 4
#     Node 14, Type 0, BuildingBlock: CEKHIL_clean_sbu_0, # of connection points: 4
#     Node 15, Type 0, BuildingBlock: CEKHIL_clean_sbu_0, # of connection points: 4
#     Node 16, Type 0, BuildingBlock: CEKHIL_clean_sbu_0, # of connection points: 4
#     Node 17, Type 0, BuildingBlock: CEKHIL_clean_sbu_0, # of connection points: 4
#     Node 18, Type 0, BuildingBlock: CEKHIL_clean_sbu_0, # of connection points: 4
#     Node 19, Type 0, BuildingBlock: CEKHIL_clean_sbu_0, # of connection points: 4
#     Node 20, Type 0, BuildingBlock: CEKHIL_clean_sbu_0, # of connection points: 4
#     Node 21, Type 0, BuildingBlock: CEKHIL_clean_sbu_0, # of connection points: 4
#     Node 22, Type 0, BuildingBlock: CEKHIL_clean_sbu_0, # of connection points: 4
#     Node 23, Type 0, BuildingBlock: CEKHIL_clean_sbu_0, # of connection points: 4
#     Node 24, Type 0, BuildingBlock: CEKHIL_clean_sbu_0, # of connection points: 4
#     Node 25, Type 0, BuildingBlock: CEKHIL_clean_sbu_0, # of connection points: 4
#     Node 26, Type 0, BuildingBlock: CEKHIL_clean_sbu_0, # of connection points: 4
#     Node 27, Type 0, BuildingBlock: CEKHIL_clean_sbu_0, # of connection points: 4
#     Node 28, Type 0, BuildingBlock: CEKHIL_clean_sbu_0, # of connection points: 4
#     Node 29, Type 0, BuildingBlock: CEKHIL_clean_sbu_0, # of connection points: 4
#     Node 30, Type 0, BuildingBlock: CEKHIL_clean_sbu_0, # of connection points: 4
#     Node 31, Type 0, BuildingBlock: CEKHIL_clean_sbu_0, # of connection points: 4
#     Node 32, Type 0, BuildingBlock: CEKHIL_clean_sbu_0, # of connection points: 4
#     Node 33, Type 0, BuildingBlock: CEKHIL_clean_sbu_0, # of connection points: 4
#     Node 34, Type 0, BuildingBlock: CEKHIL_clean_sbu_0, # of connection points: 4
#     Node 35, Type 0, BuildingBlock: CEKHIL_clean_sbu_0, # of connection points: 4
#     Node 36, Type 0, BuildingBlock: CEKHIL_clean_sbu_0, # of connection points: 4
#     Node 37, Type 0, BuildingBlock: CEKHIL_clean_sbu_0, # of connection points: 4
#     Node 38, Type 0, BuildingBlock: CEKHIL_clean_sbu_0, # of connection points: 4
#     Node 39, Type 0, BuildingBlock: CEKHIL_clean_sbu_0, # of connection points: 4
#     Node 40, Type 0, BuildingBlock: CEKHIL_clean_sbu_0, # of connection points: 4
#     Node 41, Type 0, BuildingBlock: CEKHIL_clean_sbu_0, # of connection points: 4
#     Node 42, Type 0, BuildingBlock: CEKHIL_clean_sbu_0, # of connection points: 4
#     Node 43, Type 0, BuildingBlock: CEKHIL_clean_sbu_0, # of connection points: 4
#     Node 44, Type 0, BuildingBlock: CEKHIL_clean_sbu_0, # of connection points: 4
#     Node 45, Type 0, BuildingBlock: CEKHIL_clean_sbu_0, # of connection points: 4
#     Node 46, Type 0, BuildingBlock: CEKHIL_clean_sbu_0, # of connection points: 4
#     Node 47, Type 0, BuildingBlock: CEKHIL_clean_sbu_0, # of connection points: 4
#     Edge 48, Type (0, 0), BuildingBlock: KIFKEQ_clean_linker_1, # of connection points: 2
#     Edge 49, Type (0, 0), BuildingBlock: KIFKEQ_clean_linker_1, # of connection points: 2
#     Edge 50, Type (0, 0), BuildingBlock: KIFKEQ_clean_linker_1, # of connection points: 2
#     Edge 51, Type (0, 0), BuildingBlock: KIFKEQ_clean_linker_1, # of connection points: 2
#     Edge 52, Type (0, 0), BuildingBlock: KIFKEQ_clean_linker_1, # of connection points: 2
#     Edge 53, Type (0, 0), BuildingBlock: KIFKEQ_clean_linker_1, # of connection points: 2
#     Edge 54, Type (0, 0), BuildingBlock: KIFKEQ_clean_linker_1, # of connection points: 2
#     Edge 55, Type (0, 0), BuildingBlock: KIFKEQ_clean_linker_1, # of connection points: 2
#     Edge 56, Type (0, 0), BuildingBlock: KIFKEQ_clean_linker_1, # of connection points: 2
#     Edge 57, Type (0, 0), BuildingBlock: KIFKEQ_clean_linker_1, # of connection points: 2
#     Edge 58, Type (0, 0), BuildingBlock: KIFKEQ_clean_linker_1, # of connection points: 2
#     Edge 59, Type (0, 0), BuildingBlock: KIFKEQ_clean_linker_1, # of connection points: 2
#     Edge 60, Type (0, 0), BuildingBlock: KIFKEQ_clean_linker_1, # of connection points: 2
#     Edge 61, Type (0, 0), BuildingBlock: KIFKEQ_clean_linker_1, # of connection points: 2
#     Edge 62, Type (0, 0), BuildingBlock: KIFKEQ_clean_linker_1, # of connection points: 2
#     Edge 63, Type (0, 0), BuildingBlock: KIFKEQ_clean_linker_1, # of connection points: 2
#     Edge 64, Type (0, 0), BuildingBlock: KIFKEQ_clean_linker_1, # of connection points: 2
#     Edge 65, Type (0, 0), BuildingBlock: KIFKEQ_clean_linker_1, # of connection points: 2
#     Edge 66, Type (0, 0), BuildingBlock: KIFKEQ_clean_linker_1, # of connection points: 2
#     Edge 67, Type (0, 0), BuildingBlock: KIFKEQ_clean_linker_1, # of connection points: 2
#     Edge 68, Type (0, 0), BuildingBlock: KIFKEQ_clean_linker_1, # of connection points: 2
#     Edge 69, Type (0, 0), BuildingBlock: KIFKEQ_clean_linker_1, # of connection points: 2
#     Edge 70, Type (0, 0), BuildingBlock: KIFKEQ_clean_linker_1, # of connection points: 2
#     Edge 71, Type (0, 0), BuildingBlock: KIFKEQ_clean_linker_1, # of connection points: 2
#     Edge 72, Type (0, 0), BuildingBlock: KIFKEQ_clean_linker_1, # of connection points: 2
#     Edge 73, Type (0, 0), BuildingBlock: KIFKEQ_clean_linker_1, # of connection points: 2
#     Edge 74, Type (0, 0), BuildingBlock: KIFKEQ_clean_linker_1, # of connection points: 2
#     Edge 75, Type (0, 0), BuildingBlock: KIFKEQ_clean_linker_1, # of connection points: 2
#     Edge 76, Type (0, 0), BuildingBlock: KIFKEQ_clean_linker_1, # of connection points: 2
#     Edge 77, Type (0, 0), BuildingBlock: KIFKEQ_clean_linker_1, # of connection points: 2
#     Edge 78, Type (0, 0), BuildingBlock: KIFKEQ_clean_linker_1, # of connection points: 2
#     Edge 79, Type (0, 0), BuildingBlock: KIFKEQ_clean_linker_1, # of connection points: 2
#     Edge 80, Type (0, 0), BuildingBlock: KIFKEQ_clean_linker_1, # of connection points: 2
#     Edge 81, Type (0, 0), BuildingBlock: KIFKEQ_clean_linker_1, # of connection points: 2
#     Edge 82, Type (0, 0), BuildingBlock: KIFKEQ_clean_linker_1, # of connection points: 2
#     Edge 83, Type (0, 0), BuildingBlock: KIFKEQ_clean_linker_1, # of connection points: 2
#     Edge 84, Type (0, 0), BuildingBlock: KIFKEQ_clean_linker_1, # of connection points: 2
#     Edge 85, Type (0, 0), BuildingBlock: KIFKEQ_clean_linker_1, # of connection points: 2
#     Edge 86, Type (0, 0), BuildingBlock: KIFKEQ_clean_linker_1, # of connection points: 2
#     Edge 87, Type (0, 0), BuildingBlock: KIFKEQ_clean_linker_1, # of connection points: 2
#     Edge 88, Type (0, 0), BuildingBlock: KIFKEQ_clean_linker_1, # of connection points: 2
#     Edge 89, Type (0, 0), BuildingBlock: KIFKEQ_clean_linker_1, # of connection points: 2
#     Edge 90, Type (0, 0), BuildingBlock: KIFKEQ_clean_linker_1, # of connection points: 2
#     Edge 91, Type (0, 0), BuildingBlock: KIFKEQ_clean_linker_1, # of connection points: 2
#     Edge 92, Type (0, 0), BuildingBlock: KIFKEQ_clean_linker_1, # of connection points: 2
#     Edge 93, Type (0, 0), BuildingBlock: KIFKEQ_clean_linker_1, # of connection points: 2
#     Edge 94, Type (0, 0), BuildingBlock: KIFKEQ_clean_linker_1, # of connection points: 2
#     Edge 95, Type (0, 0), BuildingBlock: KIFKEQ_clean_linker_1, # of connection points: 2
#     Edge 96, Type (0, 0), BuildingBlock: KIFKEQ_clean_linker_1, # of connection points: 2
#     Edge 97, Type (0, 0), BuildingBlock: KIFKEQ_clean_linker_1, # of connection points: 2
#     Edge 98, Type (0, 0), BuildingBlock: KIFKEQ_clean_linker_1, # of connection points: 2
#     Edge 99, Type (0, 0), BuildingBlock: KIFKEQ_clean_linker_1, # of connection points: 2
#     Edge 100, Type (0, 0), BuildingBlock: KIFKEQ_clean_linker_1, # of connection points: 2
#     Edge 101, Type (0, 0), BuildingBlock: KIFKEQ_clean_linker_1, # of connection points: 2
#     Edge 102, Type (0, 0), BuildingBlock: KIFKEQ_clean_linker_1, # of connection points: 2
#     Edge 103, Type (0, 0), BuildingBlock: KIFKEQ_clean_linker_1, # of connection points: 2
#     Edge 104, Type (0, 0), BuildingBlock: KIFKEQ_clean_linker_1, # of connection points: 2
#     Edge 105, Type (0, 0), BuildingBlock: KIFKEQ_clean_linker_1, # of connection points: 2
#     Edge 106, Type (0, 0), BuildingBlock: KIFKEQ_clean_linker_1, # of connection points: 2
#     Edge 107, Type (0, 0), BuildingBlock: KIFKEQ_clean_linker_1, # of connection points: 2
#     Edge 108, Type (0, 0), BuildingBlock: KIFKEQ_clean_linker_1, # of connection points: 2
#     Edge 109, Type (0, 0), BuildingBlock: KIFKEQ_clean_linker_1, # of connection points: 2
#     Edge 110, Type (0, 0), BuildingBlock: KIFKEQ_clean_linker_1, # of connection points: 2
#     Edge 111, Type (0, 0), BuildingBlock: KIFKEQ_clean_linker_1, # of connection points: 2
#     Edge 112, Type (0, 0), BuildingBlock: KIFKEQ_clean_linker_1, # of connection points: 2
#     Edge 113, Type (0, 0), BuildingBlock: KIFKEQ_clean_linker_1, # of connection points: 2
#     Edge 114, Type (0, 0), BuildingBlock: KIFKEQ_clean_linker_1, # of connection points: 2
#     Edge 115, Type (0, 0), BuildingBlock: KIFKEQ_clean_linker_1, # of connection points: 2
#     Edge 116, Type (0, 0), BuildingBlock: KIFKEQ_clean_linker_1, # of connection points: 2
#     Edge 117, Type (0, 0), BuildingBlock: KIFKEQ_clean_linker_1, # of connection points: 2
#     Edge 118, Type (0, 0), BuildingBlock: KIFKEQ_clean_linker_1, # of connection points: 2
#     Edge 119, Type (0, 0), BuildingBlock: KIFKEQ_clean_linker_1, # of connection points: 2
#     Edge 120, Type (0, 0), BuildingBlock: KIFKEQ_clean_linker_1, # of connection points: 2
#     Edge 121, Type (0, 0), BuildingBlock: KIFKEQ_clean_linker_1, # of connection points: 2
#     Edge 122, Type (0, 0), BuildingBlock: KIFKEQ_clean_linker_1, # of connection points: 2
#     Edge 123, Type (0, 0), BuildingBlock: KIFKEQ_clean_linker_1, # of connection points: 2
#     Edge 124, Type (0, 0), BuildingBlock: KIFKEQ_clean_linker_1, # of connection points: 2
#     Edge 125, Type (0, 0), BuildingBlock: KIFKEQ_clean_linker_1, # of connection points: 2
#     Edge 126, Type (0, 0), BuildingBlock: KIFKEQ_clean_linker_1, # of connection points: 2
#     Edge 127, Type (0, 0), BuildingBlock: KIFKEQ_clean_linker_1, # of connection points: 2
#     Edge 128, Type (0, 0), BuildingBlock: KIFKEQ_clean_linker_1, # of connection points: 2
#     Edge 129, Type (0, 0), BuildingBlock: KIFKEQ_clean_linker_1, # of connection points: 2
#     Edge 130, Type (0, 0), BuildingBlock: KIFKEQ_clean_linker_1, # of connection points: 2
#     Edge 131, Type (0, 0), BuildingBlock: KIFKEQ_clean_linker_1, # of connection points: 2
#     Edge 132, Type (0, 0), BuildingBlock: KIFKEQ_clean_linker_1, # of connection points: 2
#     Edge 133, Type (0, 0), BuildingBlock: KIFKEQ_clean_linker_1, # of connection points: 2
#     Edge 134, Type (0, 0), BuildingBlock: KIFKEQ_clean_linker_1, # of connection points: 2
#     Edge 135, Type (0, 0), BuildingBlock: KIFKEQ_clean_linker_1, # of connection points: 2
#     Edge 136, Type (0, 0), BuildingBlock: KIFKEQ_clean_linker_1, # of connection points: 2
#     Edge 137, Type (0, 0), BuildingBlock: KIFKEQ_clean_linker_1, # of connection points: 2
#     Edge 138, Type (0, 0), BuildingBlock: KIFKEQ_clean_linker_1, # of connection points: 2
#     Edge 139, Type (0, 0), BuildingBlock: KIFKEQ_clean_linker_1, # of connection points: 2
#     Edge 140, Type (0, 0), BuildingBlock: KIFKEQ_clean_linker_1, # of connection points: 2
#     Edge 141, Type (0, 0), BuildingBlock: KIFKEQ_clean_linker_1, # of connection points: 2
#     Edge 142, Type (0, 0), BuildingBlock: KIFKEQ_clean_linker_1, # of connection points: 2
#     Edge 143, Type (0, 0), BuildingBlock: KIFKEQ_clean_linker_1, # of connection points: 2
# Relax obj value: 0.099
# Max RMSD: 0.121
# Mean RMSD: 0.112
data_MOF--net-ana--node1-CEKHIL_clean_sbu_0--edge1-KIFKEQ_clean_linker_1
_symmetry_space_group_name_H-M    P1
_symmetry_Int_Tables_number       1
_symmetry_cell_setting            triclinic
loop_
_symmetry_equiv_pos_as_xyz
'x, y, z'
_cell_length_a     66.393944
_cell_length_b     65.138445
_cell_length_c     65.216945
_cell_angle_alpha  90.045491
_cell_angle_beta   90.070539
_cell_angle_gamma 90.331395
loop_
_atom_site_label
_atom_site_type_symbol
_atom_site_fract_x
_atom_site_fract_y
_atom_site_fract_z
_atom_type_partial_charge
Co0 Co 0.1288 0.16969 0.41697 0.0
O1 O 0.15743 0.1716 0.42049 0.0
O2 O 0.14144 0.14481 0.40713 0.0
C3 C 0.12486 0.20125 0.40356 0.0
O4 O 0.09951 0.16278 0.41021 0.0
Co5 Co 0.10049 0.19946 0.44055 0.0
O6 O 0.08059 0.18968 0.41989 0.0
C7 C 0.1217 0.16647 0.46255 0.0
C8 C 0.15841 0.15344 0.41241 0.0
C9 C 0.08285 0.17284 0.41022 0.0
O10 O 0.1262 0.15788 0.4454 0.0
O11 O 0.1132 0.18403 0.46383 0.0
O12 O 0.13042 0.18612 0.39189 0.0
O13 O 0.12367 0.19715 0.42286 0.0
Co14 Co 0.09256 0.86679 0.66456 0.0
O15 O 0.11492 0.86769 0.68343 0.0
O16 O 0.08393 0.87806 0.6904 0.0
C17 C 0.09746 0.83459 0.65333 0.0
O18 O 0.06546 0.86746 0.64993 0.0
Co19 Co 0.09864 0.86218 0.61779 0.0
O20 O 0.06891 0.85967 0.61654 0.0
C21 C 0.1073 0.90189 0.63746 0.0
C22 C 0.10234 0.87533 0.6966 0.0
C23 C 0.05802 0.86367 0.63209 0.0
O24 O 0.10001 0.89498 0.65437 0.0
O25 O 0.10924 0.89089 0.62131 0.0
O26 O 0.08812 0.83792 0.6705 0.0
O27 O 0.10512 0.85059 0.64446 0.0
Co28 Co 0.36771 0.82563 0.91337 0.0
O29 O 0.33931 0.82427 0.91817 0.0
O30 O 0.35488 0.85032 0.90304 0.0
C31 C 0.37061 0.79357 0.90091 0.0
O32 O 0.39695 0.83162 0.90521 0.0
Co33 Co 0.39615 0.79623 0.93724 0.0
O34 O 0.41502 0.80422 0.91511 0.0
C35 C 0.37831 0.83176 0.95841 0.0
C36 C 0.3381 0.8421 0.90947 0.0
C37 C 0.41315 0.82078 0.90489 0.0
O38 O 0.3715 0.83855 0.94123 0.0
O39 O 0.38746 0.8146 0.96021 0.0
O40 O 0.36484 0.80841 0.889 0.0
O41 O 0.37254 0.79823 0.92004 0.0
Co42 Co 0.4125 0.12976 0.16132 0.0
O43 O 0.3889 0.13112 0.17821 0.0
O44 O 0.41854 0.11941 0.18841 0.0
C45 C 0.41001 0.1616 0.14822 0.0
O46 O 0.4403 0.12688 0.14854 0.0
Co47 Co 0.40846 0.13162 0.11423 0.0
O48 O 0.43834 0.13181 0.11445 0.0
C49 C 0.39603 0.09427 0.13586 0.0
C50 C 0.39983 0.12338 0.19275 0.0
C51 C 0.44849 0.12863 0.13074 0.0
O52 O 0.40442 0.10138 0.15216 0.0
O53 O 0.39423 0.10478 0.11939 0.0
O54 O 0.41813 0.15864 0.1661 0.0
O55 O 0.40197 0.14556 0.13972 0.0
Co56 Co 0.12038 0.83344 0.08217 0.0
O57 O 0.09195 0.82836 0.07972 0.0
O58 O 0.10671 0.84238 0.10682 0.0
C59 C 0.12416 0.84732 0.0508 0.0
O60 O 0.14918 0.84188 0.08977 0.0
Co61 Co 0.15117 0.81262 0.05303 0.0
O62 O 0.1687 0.83549 0.06238 0.0
C63 C 0.1332 0.78897 0.08721 0.0
C64 C 0.09018 0.83634 0.09786 0.0
C65 C 0.16572 0.84407 0.07965 0.0
O66 O 0.12418 0.80508 0.09387 0.0
O67 O 0.14386 0.78864 0.07086 0.0
O68 O 0.11779 0.85851 0.06595 0.0
O69 O 0.12645 0.82807 0.05473 0.0
Co70 Co 0.41901 0.88331 0.3442 0.0
O71 O 0.4379 0.88208 0.36647 0.0
O72 O 0.44416 0.8719 0.33469 0.0
C73 C 0.40848 0.9155 0.34963 0.0
O74 O 0.40354 0.8832 0.31719 0.0
Co75 Co 0.37336 0.88775 0.35341 0.0
O76 O 0.37108 0.89103 0.32329 0.0
C77 C 0.39276 0.84789 0.35973 0.0
C78 C 0.45056 0.87447 0.35339 0.0
C79 C 0.38556 0.88729 0.31105 0.0
O80 O 0.40879 0.85505 0.35126 0.0
O81 O 0.37735 0.85895 0.36359 0.0
O82 O 0.42523 0.9121 0.33997 0.0
O83 O 0.39993 0.89957 0.35776 0.0
Co84 Co 0.37973 0.16028 0.57706 0.0
O85 O 0.40829 0.16442 0.5754 0.0
O86 O 0.39251 0.15108 0.60218 0.0
C87 C 0.37597 0.14628 0.54571 0.0
O88 O 0.35038 0.15308 0.5837 0.0
Co89 Co 0.35152 0.18337 0.54659 0.0
O90 O 0.3308 0.16481 0.55805 0.0
C91 C 0.36962 0.20565 0.58144 0.0
C92 C 0.40939 0.15675 0.5937 0.0
C93 C 0.33318 0.15471 0.5746 0.0
O94 O 0.37676 0.18883 0.58869 0.0
O95 O 0.36024 0.20685 0.56434 0.0
O96 O 0.38181 0.13499 0.561 0.0
O97 O 0.37458 0.16566 0.54945 0.0
Co98 Co 0.08445 0.12115 0.84567 0.0
O99 O 0.06495 0.12387 0.86716 0.0
O100 O 0.05965 0.13203 0.83463 0.0
C101 C 0.09479 0.08933 0.85327 0.0
O102 O 0.10073 0.11942 0.81929 0.0
Co103 Co 0.12977 0.11699 0.85683 0.0
O104 O 0.13219 0.10963 0.82745 0.0
C105 C 0.1106 0.15741 0.85952 0.0
C106 C 0.05272 0.13071 0.85325 0.0
C107 C 0.11848 0.11333 0.81428 0.0
O108 O 0.09463 0.14978 0.85127 0.0
O109 O 0.12585 0.14655 0.86449 0.0
O110 O 0.07829 0.09211 0.84294 0.0
O111 O 0.10299 0.10573 0.86084 0.0
Co112 Co 0.16912 0.40355 0.13232 0.0
O113 O 0.18907 0.38251 0.13055 0.0
O114 O 0.19341 0.41451 0.11988 0.0
C115 C 0.15994 0.39757 0.16491 0.0
O116 O 0.15194 0.42938 0.13255 0.0
Co117 Co 0.12428 0.39118 0.13903 0.0
O118 O 0.12172 0.42079 0.14575 0.0
C119 C 0.14273 0.38545 0.09846 0.0
C120 C 0.20078 0.39619 0.1223 0.0
C121 C 0.1346 0.43416 0.13995 0.0
O122 O 0.15838 0.39544 0.10458 0.0
O123 O 0.12812 0.38059 0.11034 0.0
O124 O 0.1759 0.40849 0.16096 0.0
O125 O 0.15154 0.38883 0.14926 0.0
Co126 Co 0.66407 0.09326 0.8688 0.0
O127 O 0.68438 0.11426 0.86677 0.0
O128 O 0.68919 0.08336 0.88001 0.0
C129 C 0.65239 0.09621 0.83661 0.0
O130 O 0.64721 0.06729 0.87231 0.0
Co131 Co 0.61904 0.1039 0.86532 0.0
O132 O 0.61567 0.07381 0.86182 0.0
C133 C 0.64015 0.11227 0.90408 0.0
C134 C 0.69665 0.10116 0.87495 0.0
C135 C 0.62934 0.06132 0.86733 0.0
O136 O 0.65587 0.10364 0.8966 0.0
O137 O 0.62405 0.1151 0.89365 0.0
O138 O 0.66845 0.08562 0.84051 0.0
O139 O 0.64506 0.10649 0.85188 0.0
Co140 Co 0.84338 0.91371 0.37949 0.0
O141 O 0.86569 0.93258 0.38018 0.0
O142 O 0.83554 0.93959 0.36748 0.0
C143 C 0.84648 0.90278 0.41197 0.0
O144 O 0.81649 0.89873 0.37713 0.0
Co145 Co 0.84999 0.86724 0.38422 0.0
O146 O 0.82033 0.86627 0.3879 0.0
C147 C 0.85975 0.88684 0.34497 0.0
C148 C 0.85377 0.94577 0.37162 0.0
C149 C 0.80921 0.88116 0.38237 0.0
O150 O 0.85214 0.90355 0.35188 0.0
O151 O 0.86162 0.87066 0.35593 0.0
O152 O 0.83718 0.91977 0.40783 0.0
O153 O 0.85528 0.8939 0.39664 0.0
Co154 Co 0.84364 0.0832 0.11786 0.0
O155 O 0.86651 0.06556 0.12023 0.0
O156 O 0.83561 0.0575 0.13038 0.0
C157 C 0.84914 0.09296 0.08533 0.0
O158 O 0.81636 0.0974 0.11696 0.0
Co159 Co 0.85053 0.12986 0.11146 0.0
O160 O 0.82155 0.12894 0.10384 0.0
C161 C 0.85856 0.11158 0.15175 0.0
C162 C 0.85442 0.05225 0.12852 0.0
C163 C 0.80986 0.11431 0.10924 0.0
O164 O 0.84985 0.09502 0.14563 0.0
O165 O 0.86199 0.12689 0.13991 0.0
O166 O 0.84019 0.0756 0.08921 0.0
O167 O 0.8563 0.10263 0.10108 0.0
Co168 Co 0.34476 0.5841 0.61823 0.0
O169 O 0.36789 0.56672 0.62013 0.0
O170 O 0.33704 0.55791 0.6298 0.0
C171 C 0.35015 0.59511 0.58613 0.0
O172 O 0.31724 0.59783 0.61768 0.0
Co173 Co 0.35126 0.63109 0.61389 0.0
O174 O 0.32174 0.63102 0.60916 0.0
C175 C 0.35994 0.61107 0.65306 0.0
C176 C 0.35591 0.55297 0.62787 0.0
C177 C 0.31033 0.61563 0.61283 0.0
O178 O 0.35069 0.59499 0.64647 0.0
O179 O 0.36358 0.62669 0.64173 0.0
O180 O 0.34165 0.57739 0.58933 0.0
O181 O 0.35709 0.6044 0.6022 0.0
Co182 Co 0.16464 0.59694 0.3675 0.0
O183 O 0.1831 0.61982 0.36719 0.0
O184 O 0.18995 0.58897 0.37958 0.0
C185 C 0.15409 0.60002 0.33492 0.0
O186 O 0.15021 0.56933 0.36938 0.0
Co187 Co 0.11877 0.60313 0.36205 0.0
O188 O 0.11767 0.57281 0.36044 0.0
C189 C 0.13723 0.61153 0.40221 0.0
C190 C 0.19609 0.60751 0.37548 0.0
C191 C 0.13269 0.56178 0.36538 0.0
O192 O 0.15427 0.60545 0.39521 0.0
O193 O 0.12129 0.61273 0.39122 0.0
O194 O 0.17098 0.59101 0.33917 0.0
O195 O 0.14509 0.60877 0.3502 0.0
Co196 Co 0.33179 0.40328 0.86865 0.0
O197 O 0.31187 0.38204 0.87247 0.0
O198 O 0.30772 0.41487 0.88029 0.0
C199 C 0.34049 0.39483 0.83651 0.0
O200 O 0.34816 0.42965 0.86615 0.0
Co201 Co 0.37684 0.39309 0.8622 0.0
O202 O 0.37932 0.42257 0.85491 0.0
C203 C 0.3594 0.39005 0.90359 0.0
C204 C 0.30018 0.39643 0.8793 0.0
C205 C 0.36557 0.43533 0.85951 0.0
O206 O 0.343 0.39793 0.89677 0.0
O207 O 0.37427 0.38549 0.89199 0.0
O208 O 0.32443 0.40555 0.84001 0.0
O209 O 0.34963 0.38776 0.85255 0.0
Co210 Co 0.87289 0.8363 0.59449 0.0
O211 O 0.8744 0.81672 0.61648 0.0
O212 O 0.88372 0.81078 0.5844 0.0
C213 C 0.84145 0.84728 0.6007 0.0
O214 O 0.87258 0.85198 0.5675 0.0
Co215 Co 0.86892 0.88279 0.60313 0.0
O216 O 0.86239 0.88424 0.57352 0.0
C217 C 0.90829 0.86315 0.60854 0.0
C218 C 0.88159 0.804 0.60303 0.0
C219 C 0.86665 0.86968 0.56124 0.0
O220 O 0.90086 0.84637 0.60131 0.0
O221 O 0.89784 0.87934 0.61149 0.0
O222 O 0.84448 0.83032 0.59069 0.0
O223 O 0.85733 0.85585 0.60855 0.0
Co224 Co 0.91181 0.12896 0.33152 0.0
O225 O 0.88962 0.12776 0.31261 0.0
O226 O 0.92092 0.11854 0.30543 0.0
C227 C 0.90564 0.16085 0.34302 0.0
O228 O 0.9388 0.12909 0.34655 0.0
Co229 Co 0.90451 0.13296 0.37826 0.0
O230 O 0.93411 0.13633 0.37995 0.0
C231 C 0.89692 0.09338 0.35779 0.0
C232 C 0.90246 0.12102 0.29925 0.0
C233 C 0.94556 0.13295 0.36468 0.0
O234 O 0.90504 0.10034 0.34127 0.0
O235 O 0.89398 0.10443 0.37373 0.0
O236 O 0.9154 0.15809 0.326 0.0
O237 O 0.89845 0.14446 0.35154 0.0
Co238 Co 0.63102 0.16156 0.09398 0.0
O239 O 0.62939 0.17947 0.11742 0.0
O240 O 0.61845 0.18696 0.0862 0.0
C241 C 0.66326 0.15221 0.09845 0.0
O242 O 0.63086 0.14806 0.06581 0.0
Co243 Co 0.63788 0.11501 0.09804 0.0
O244 O 0.64334 0.11623 0.06817 0.0
C245 C 0.59783 0.13172 0.10717 0.0
C246 C 0.62106 0.19264 0.10513 0.0
C247 C 0.63748 0.13148 0.05756 0.0
O248 O 0.60401 0.14942 0.10108 0.0
O249 O 0.60923 0.11596 0.1081 0.0
O250 O 0.65883 0.16952 0.0897 0.0
O251 O 0.64821 0.14192 0.10593 0.0
Co252 Co 0.58612 0.87368 0.83543 0.0
O253 O 0.60882 0.87765 0.81781 0.0
O254 O 0.57724 0.88446 0.80926 0.0
C255 C 0.59471 0.84201 0.84585 0.0
O256 O 0.55884 0.87051 0.84954 0.0
Co257 Co 0.59308 0.86882 0.88214 0.0
O258 O 0.56467 0.8593 0.8816 0.0
C259 C 0.5975 0.90954 0.86327 0.0
C260 C 0.59617 0.88395 0.80407 0.0
C261 C 0.55273 0.86308 0.86676 0.0
O262 O 0.58991 0.90231 0.84658 0.0
O263 O 0.6015 0.8983 0.87884 0.0
O264 O 0.58529 0.84459 0.82859 0.0
O265 O 0.60021 0.85864 0.8552 0.0
Co266 Co 0.87784 0.15462 0.90938 0.0
O267 O 0.87853 0.1316 0.92781 0.0
O268 O 0.86631 0.16229 0.93536 0.0
C269 C 0.90965 0.15199 0.89798 0.0
O270 O 0.87541 0.18229 0.89521 0.0
Co271 Co 0.88236 0.14932 0.86261 0.0
O272 O 0.88624 0.17955 0.86276 0.0
C273 C 0.84398 0.13806 0.88222 0.0
C274 C 0.8702 0.14365 0.94119 0.0
C275 C 0.88072 0.19033 0.87803 0.0
O276 O 0.8506 0.1455 0.89921 0.0
O277 O 0.8547 0.13702 0.86595 0.0
O278 O 0.90582 0.16097 0.91532 0.0
O279 O 0.89446 0.14316 0.88906 0.0
Co280 Co 0.57886 0.11292 0.65533 0.0
O281 O 0.55991 0.11581 0.63332 0.0
O282 O 0.5547 0.12627 0.66519 0.0
C283 C 0.58664 0.07992 0.64899 0.0
O284 O 0.59461 0.11165 0.68213 0.0
Co285 Co 0.62385 0.10371 0.64565 0.0
O286 O 0.62559 0.09938 0.67568 0.0
C287 C 0.6076 0.14502 0.63831 0.0
C288 C 0.54796 0.12429 0.64653 0.0
C289 C 0.61191 0.1051 0.68813 0.0
O290 O 0.59143 0.14025 0.64811 0.0
O291 O 0.62138 0.13205 0.63398 0.0
O292 O 0.57055 0.08442 0.65937 0.0
O293 O 0.59622 0.09534 0.64123 0.0
Co294 Co 0.62372 0.84329 0.4132 0.0
O295 O 0.62557 0.86479 0.43347 0.0
O296 O 0.63465 0.83244 0.43824 0.0
C297 C 0.5922 0.84978 0.40254 0.0
O298 O 0.62331 0.81668 0.39706 0.0
Co299 Co 0.61913 0.85207 0.36696 0.0
O300 O 0.61314 0.82222 0.36474 0.0
C301 C 0.65869 0.85804 0.38657 0.0
C302 C 0.6326 0.8508 0.44572 0.0
C303 C 0.61766 0.81013 0.37937 0.0
O304 O 0.65155 0.85016 0.40311 0.0
O305 O 0.64785 0.8615 0.37069 0.0
O306 O 0.59538 0.83938 0.41921 0.0
O307 O 0.60802 0.85772 0.39397 0.0
Co308 Co 0.91976 0.87896 0.15891 0.0
O309 O 0.93853 0.87781 0.13651 0.0
O310 O 0.94455 0.86636 0.16789 0.0
C311 C 0.91011 0.9117 0.15414 0.0
O312 O 0.90467 0.87829 0.18602 0.0
Co313 Co 0.87402 0.88652 0.15128 0.0
O314 O 0.87321 0.89008 0.18148 0.0
C315 C 0.89203 0.84658 0.14096 0.0
C316 C 0.95096 0.86927 0.14927 0.0
C317 C 0.88753 0.88417 0.19306 0.0
O318 O 0.90825 0.85142 0.15071 0.0
O319 O 0.87761 0.85914 0.13777 0.0
O320 O 0.92673 0.90777 0.16393 0.0
O321 O 0.90115 0.89606 0.14606 0.0
Co322 Co 0.82863 0.59255 0.8645 0.0
O323 O 0.80968 0.61457 0.86669 0.0
O324 O 0.80364 0.58248 0.87616 0.0
C325 C 0.83888 0.59926 0.83231 0.0
O326 O 0.84424 0.56571 0.86379 0.0
Co327 Co 0.8743 0.60229 0.85875 0.0
O328 O 0.87592 0.57244 0.85346 0.0
C329 C 0.85602 0.60625 0.89967 0.0
C330 C 0.79722 0.60124 0.87438 0.0
C331 C 0.8619 0.55986 0.85821 0.0
O332 O 0.83926 0.59906 0.89274 0.0
O333 O 0.87138 0.60984 0.88836 0.0
O334 O 0.82228 0.58907 0.83547 0.0
O335 O 0.84737 0.60685 0.84846 0.0
Co336 Co 0.33956 0.91467 0.12349 0.0
O337 O 0.36228 0.93314 0.12488 0.0
O338 O 0.33078 0.94138 0.13237 0.0
C339 C 0.34683 0.90144 0.09252 0.0
O340 O 0.31204 0.90059 0.12294 0.0
Co341 Co 0.34475 0.86748 0.12183 0.0
O342 O 0.31529 0.86673 0.11721 0.0
C343 C 0.3515 0.88936 0.16077 0.0
C344 C 0.34949 0.94707 0.13051 0.0
C345 C 0.30449 0.88265 0.11958 0.0
O346 O 0.34471 0.90598 0.15273 0.0
O347 O 0.35395 0.87272 0.15066 0.0
O348 O 0.33761 0.91892 0.09401 0.0
O349 O 0.3528 0.89342 0.1096 0.0
Co350 Co 0.17014 0.08786 0.63491 0.0
O351 O 0.18865 0.11065 0.63495 0.0
O352 O 0.19552 0.07962 0.62302 0.0
C353 C 0.15953 0.09176 0.66737 0.0
O354 O 0.15548 0.06035 0.6332 0.0
Co355 Co 0.12425 0.09432 0.6406 0.0
O356 O 0.12295 0.06402 0.64209 0.0
C357 C 0.1429 0.1035 0.60067 0.0
C358 C 0.20157 0.09832 0.62661 0.0
C359 C 0.13791 0.05291 0.63717 0.0
O360 O 0.15981 0.09644 0.60713 0.0
O361 O 0.12723 0.10504 0.61197 0.0
O362 O 0.17623 0.08222 0.66348 0.0
O363 O 0.15075 0.10019 0.65183 0.0
Co364 Co 0.16145 0.91576 0.87897 0.0
O365 O 0.13902 0.93398 0.87769 0.0
O366 O 0.17009 0.94209 0.86817 0.0
C367 C 0.15526 0.90444 0.91095 0.0
O368 O 0.18844 0.90091 0.87917 0.0
Co369 Co 0.15321 0.869 0.88305 0.0
O370 O 0.18267 0.86794 0.88779 0.0
C371 C 0.1453 0.88969 0.84391 0.0
C372 C 0.15142 0.94764 0.87057 0.0
C373 C 0.19465 0.88284 0.88401 0.0
O374 O 0.15493 0.90559 0.85047 0.0
O375 O 0.14126 0.87418 0.85525 0.0
O376 O 0.1649 0.92161 0.90809 0.0
O377 O 0.14814 0.89584 0.8946 0.0
Co378 Co 0.66175 0.41601 0.38004 0.0
O379 O 0.63917 0.43399 0.37834 0.0
O380 O 0.67035 0.44245 0.3695 0.0
C381 C 0.65501 0.40448 0.41177 0.0
O382 O 0.68885 0.40142 0.38076 0.0
Co383 Co 0.65391 0.36913 0.38372 0.0
O384 O 0.68329 0.36832 0.38906 0.0
C385 C 0.64622 0.3901 0.34469 0.0
C386 C 0.65157 0.44779 0.37148 0.0
C387 C 0.69517 0.3834 0.38564 0.0
O388 O 0.65587 0.40592 0.35141 0.0
O389 O 0.64208 0.37452 0.35591 0.0
O390 O 0.66454 0.42176 0.40924 0.0
O391 O 0.64832 0.39588 0.39523 0.0
Co392 Co 0.83002 0.40694 0.63383 0.0
O393 O 0.80986 0.38563 0.63336 0.0
O394 O 0.80598 0.41679 0.6204 0.0
C395 C 0.83874 0.40285 0.66694 0.0
O396 O 0.84673 0.43315 0.63235 0.0
Co397 Co 0.87495 0.39718 0.6424 0.0
O398 O 0.87778 0.42744 0.64477 0.0
C399 C 0.85731 0.38743 0.60201 0.0
C400 C 0.79831 0.39878 0.6242 0.0
C401 C 0.86422 0.43953 0.63814 0.0
O402 O 0.8412 0.3972 0.60681 0.0
O403 O 0.87168 0.38412 0.61468 0.0
O404 O 0.823 0.41357 0.66206 0.0
O405 O 0.84756 0.39358 0.65195 0.0
Co406 Co 0.66976 0.58919 0.13387 0.0
O407 O 0.68927 0.61117 0.13254 0.0
O408 O 0.69386 0.57971 0.12053 0.0
C409 C 0.6611 0.59384 0.16685 0.0
O410 O 0.6542 0.56221 0.13335 0.0
Co411 Co 0.6244 0.5968 0.14245 0.0
O412 O 0.62224 0.56651 0.14383 0.0
C413 C 0.64121 0.60627 0.10165 0.0
C414 C 0.70108 0.59803 0.12368 0.0
C415 C 0.63673 0.5551 0.1382 0.0
O416 O 0.65799 0.59782 0.10667 0.0
O417 O 0.62667 0.60877 0.11427 0.0
O418 O 0.67734 0.58382 0.1622 0.0
O419 O 0.6517 0.6022 0.15168 0.0
Co420 Co 0.63088 0.67093 0.91648 0.0
O421 O 0.65948 0.67255 0.9206 0.0
O422 O 0.64337 0.64559 0.90776 0.0
C423 C 0.62776 0.70213 0.90199 0.0
O424 O 0.6017 0.66397 0.90916 0.0
Co425 Co 0.60174 0.70169 0.93751 0.0
O426 O 0.58263 0.69147 0.91639 0.0
C427 C 0.62069 0.66853 0.96173 0.0
C428 C 0.66036 0.65414 0.91306 0.0
C429 C 0.58511 0.67405 0.90788 0.0
O430 O 0.62742 0.66012 0.94524 0.0
O431 O 0.61145 0.68575 0.96186 0.0
O432 O 0.63333 0.68655 0.89093 0.0
O433 O 0.62587 0.69864 0.92134 0.0
Co434 Co 0.59269 0.36903 0.1657 0.0
O435 O 0.61498 0.36975 0.18458 0.0
O436 O 0.58416 0.38079 0.19137 0.0
C437 C 0.59704 0.33658 0.15497 0.0
O438 O 0.56572 0.37005 0.15084 0.0
Co439 Co 0.59905 0.36366 0.11908 0.0
O440 O 0.56958 0.35871 0.11857 0.0
C441 C 0.60734 0.40381 0.13807 0.0
C442 C 0.60251 0.37777 0.19762 0.0
C443 C 0.55845 0.36424 0.13346 0.0
O444 O 0.60057 0.39694 0.1552 0.0
O445 O 0.60892 0.39276 0.12191 0.0
O446 O 0.58769 0.34035 0.17204 0.0
O447 O 0.60509 0.35231 0.14594 0.0
Co448 Co 0.87061 0.33203 0.41403 0.0
O449 O 0.84241 0.32849 0.41931 0.0
O450 O 0.85604 0.35619 0.40522 0.0
C451 C 0.87512 0.30081 0.40002 0.0
O452 O 0.89904 0.34072 0.4055 0.0
Co453 Co 0.90251 0.3039 0.43453 0.0
O454 O 0.91943 0.31397 0.41161 0.0
C455 C 0.88317 0.33686 0.45861 0.0
C456 C 0.83993 0.34656 0.41141 0.0
C457 C 0.91582 0.33116 0.40312 0.0
O458 O 0.8743 0.3437 0.44245 0.0
O459 O 0.89418 0.32078 0.45877 0.0
O460 O 0.86822 0.31578 0.38893 0.0
O461 O 0.87757 0.30479 0.41925 0.0
Co462 Co 0.91136 0.6271 0.66084 0.0
O463 O 0.88788 0.62721 0.67795 0.0
O464 O 0.91798 0.61629 0.68762 0.0
C465 C 0.90784 0.65912 0.6486 0.0
O466 O 0.93911 0.6255 0.64769 0.0
Co467 Co 0.90677 0.62994 0.61389 0.0
O468 O 0.93629 0.63477 0.61464 0.0
C469 C 0.89735 0.59099 0.63435 0.0
C470 C 0.89919 0.61951 0.69221 0.0
C471 C 0.94694 0.63032 0.63028 0.0
O472 O 0.90424 0.59873 0.65108 0.0
O473 O 0.89563 0.60138 0.61779 0.0
O474 O 0.91612 0.65595 0.66636 0.0
O475 O 0.9001 0.64309 0.63976 0.0
Co476 Co 0.61989 0.33263 0.58225 0.0
O477 O 0.59155 0.3269 0.58094 0.0
O478 O 0.60697 0.34154 0.60734 0.0
C479 C 0.6224 0.34627 0.55071 0.0
O480 O 0.6488 0.34178 0.58852 0.0
Co481 Co 0.64975 0.31167 0.55216 0.0
O482 O 0.66749 0.33469 0.56068 0.0
C483 C 0.63291 0.2882 0.58694 0.0
C484 C 0.59028 0.33496 0.59908 0.0
C485 C 0.66497 0.34382 0.57776 0.0
O486 O 0.62456 0.30448 0.59407 0.0
O487 O 0.64271 0.28768 0.57006 0.0
O488 O 0.61625 0.35747 0.56595 0.0
O489 O 0.62506 0.32707 0.55469 0.0
Co490 Co 0.91388 0.37956 0.84648 0.0
O491 O 0.93337 0.37784 0.8681 0.0
O492 O 0.93853 0.36759 0.83614 0.0
C493 C 0.9043 0.41199 0.85212 0.0
O494 O 0.89743 0.37998 0.82008 0.0
Co495 Co 0.8689 0.38485 0.85771 0.0
O496 O 0.86617 0.39055 0.82798 0.0
C497 C 0.88733 0.34434 0.86227 0.0
C498 C 0.94548 0.36996 0.85467 0.0
C499 C 0.87968 0.38597 0.81489 0.0
O500 O 0.90334 0.3515 0.85376 0.0
O501 O 0.87214 0.35552 0.86665 0.0
O502 O 0.92061 0.4081 0.84189 0.0
O503 O 0.89577 0.39635 0.86086 0.0
Co504 Co 0.8797 0.66119 0.07769 0.0
O505 O 0.908 0.66696 0.07563 0.0
O506 O 0.89337 0.652 0.10226 0.0
C507 C 0.87622 0.64795 0.04605 0.0
O508 O 0.85099 0.65204 0.08473 0.0
Co509 Co 0.84899 0.68271 0.04885 0.0
O510 O 0.83129 0.65987 0.05778 0.0
C511 C 0.86701 0.70558 0.08346 0.0
C512 C 0.9098 0.65873 0.09364 0.0
C513 C 0.83435 0.65049 0.07461 0.0
O514 O 0.87541 0.68913 0.09009 0.0
O515 O 0.85676 0.70643 0.06684 0.0
O516 O 0.88292 0.63657 0.06091 0.0
O517 O 0.87363 0.66709 0.05039 0.0
Co518 Co 0.58353 0.62052 0.3448 0.0
O519 O 0.5642 0.62326 0.36643 0.0
O520 O 0.55857 0.63129 0.33392 0.0
C521 C 0.59388 0.58876 0.35266 0.0
O522 O 0.59969 0.61876 0.31834 0.0
Co523 Co 0.62898 0.61612 0.35531 0.0
O524 O 0.63015 0.60614 0.32657 0.0
C525 C 0.60997 0.65677 0.35794 0.0
C526 C 0.5518 0.62996 0.35261 0.0
C527 C 0.61671 0.61076 0.3134 0.0
O528 O 0.59373 0.64916 0.35022 0.0
O529 O 0.62535 0.64589 0.36247 0.0
O530 O 0.57738 0.59143 0.34231 0.0
O531 O 0.60216 0.60524 0.35995 0.0
Co532 Co 0.66715 0.90276 0.63152 0.0
O533 O 0.68725 0.8818 0.63221 0.0
O534 O 0.69234 0.9134 0.62073 0.0
C535 C 0.65525 0.89824 0.6634 0.0
O536 O 0.64995 0.92848 0.62952 0.0
Co537 Co 0.62212 0.88975 0.63445 0.0
O538 O 0.61814 0.9197 0.63792 0.0
C539 C 0.64396 0.88314 0.59598 0.0
C540 C 0.69954 0.89521 0.6244 0.0
C541 C 0.63158 0.93314 0.63378 0.0
O542 O 0.6588 0.89367 0.6032 0.0
O543 O 0.62852 0.8782 0.60667 0.0
O544 O 0.67156 0.90891 0.66034 0.0
O545 O 0.64828 0.88858 0.64756 0.0
Co546 Co 0.37355 0.33752 0.09082 0.0
O547 O 0.37386 0.31814 0.11308 0.0
O548 O 0.38434 0.31175 0.08147 0.0
C549 C 0.34214 0.34923 0.09562 0.0
O550 O 0.37477 0.35284 0.06375 0.0
Co551 Co 0.37031 0.38415 0.09853 0.0
O552 O 0.36551 0.38558 0.06849 0.0
C553 C 0.4087 0.36352 0.10669 0.0
C554 C 0.38149 0.30522 0.10008 0.0
C555 C 0.36992 0.3706 0.05678 0.0
O556 O 0.40134 0.34713 0.09856 0.0
O557 O 0.39831 0.37978 0.10952 0.0
O558 O 0.3452 0.33209 0.08592 0.0
O559 O 0.35788 0.35758 0.10399 0.0
Co560 Co 0.41467 0.62337 0.8327 0.0
O561 O 0.39238 0.62171 0.81396 0.0
O562 O 0.424 0.61427 0.80619 0.0
C563 C 0.40719 0.65451 0.84532 0.0
O564 O 0.44172 0.62433 0.84749 0.0
Co565 Co 0.40748 0.62507 0.87948 0.0
O566 O 0.43691 0.63004 0.88116 0.0
C567 C 0.40094 0.58628 0.85739 0.0
C568 C 0.40537 0.61604 0.80026 0.0
C569 C 0.44841 0.62792 0.86569 0.0
O570 O 0.40941 0.59416 0.84149 0.0
O571 O 0.39714 0.59665 0.8736 0.0
O572 O 0.41689 0.65273 0.82813 0.0
O573 O 0.40075 0.63754 0.85334 0.0
Co574 Co 0.13186 0.65968 0.5913 0.0
O575 O 0.13178 0.67798 0.61449 0.0
O576 O 0.12074 0.68573 0.58336 0.0
C577 C 0.16345 0.64816 0.59498 0.0
O578 O 0.13037 0.64587 0.56344 0.0
Co579 Co 0.13518 0.61298 0.59639 0.0
O580 O 0.13729 0.61228 0.56602 0.0
C581 C 0.09699 0.63285 0.60642 0.0
C582 C 0.1239 0.69144 0.6022 0.0
C583 C 0.13366 0.62821 0.55536 0.0
O584 O 0.10422 0.64956 0.59893 0.0
O585 O 0.10745 0.61652 0.60832 0.0
O586 O 0.15991 0.66564 0.58614 0.0
O587 O 0.14804 0.63912 0.6033 0.0
Co588 Co 0.09055 0.37475 0.33804 0.0
O589 O 0.11424 0.37547 0.32121 0.0
O590 O 0.08389 0.38552 0.31135 0.0
C591 C 0.09506 0.34275 0.34999 0.0
O592 O 0.06243 0.37531 0.35053 0.0
Co593 Co 0.09377 0.37108 0.38514 0.0
O594 O 0.06409 0.36816 0.38422 0.0
C595 C 0.10334 0.41045 0.3655 0.0
C596 C 0.10277 0.38278 0.30686 0.0
C597 C 0.05405 0.37171 0.36796 0.0
O598 O 0.09701 0.40319 0.34832 0.0
O599 O 0.10449 0.39975 0.3819 0.0
O600 O 0.08679 0.34574 0.33218 0.0
O601 O 0.10188 0.35898 0.35918 0.0
Co602 Co 0.37821 0.65914 0.41104 0.0
O603 O 0.3768 0.63599 0.4293 0.0
O604 O 0.36763 0.66779 0.43714 0.0
C605 C 0.40964 0.65387 0.39953 0.0
O606 O 0.37814 0.68696 0.39693 0.0
Co607 Co 0.38218 0.6535 0.36421 0.0
O608 O 0.38835 0.68333 0.36434 0.0
C609 C 0.34305 0.64563 0.38396 0.0
C610 C 0.36975 0.64878 0.44275 0.0
C611 C 0.38386 0.69453 0.37967 0.0
O612 O 0.35028 0.65254 0.40091 0.0
O613 O 0.35362 0.64361 0.36768 0.0
O614 O 0.40658 0.66297 0.41697 0.0
O615 O 0.39379 0.64634 0.39061 0.0
Co616 Co 0.07927 0.61365 0.15367 0.0
O617 O 0.06098 0.61771 0.13122 0.0
O618 O 0.05528 0.62731 0.16328 0.0
C619 C 0.08654 0.58065 0.14673 0.0
O620 O 0.09408 0.6113 0.18092 0.0
Co621 Co 0.12438 0.60356 0.14579 0.0
O622 O 0.12386 0.59599 0.17526 0.0
C623 C 0.10947 0.64559 0.13904 0.0
C624 C 0.04893 0.62608 0.14444 0.0
C625 C 0.11023 0.60253 0.18733 0.0
O626 O 0.09267 0.64085 0.14769 0.0
O627 O 0.1233 0.63249 0.13524 0.0
O628 O 0.07013 0.58526 0.15651 0.0
O629 O 0.09679 0.59604 0.1398 0.0
Co630 Co 0.11846 0.34358 0.91608 0.0
O631 O 0.11826 0.36495 0.93652 0.0
O632 O 0.12921 0.33322 0.94142 0.0
C633 C 0.08697 0.34806 0.90431 0.0
O634 O 0.12026 0.31725 0.89963 0.0
Co635 Co 0.11493 0.35297 0.86981 0.0
O636 O 0.11096 0.32282 0.86702 0.0
C637 C 0.15303 0.36175 0.89125 0.0
C638 C 0.12584 0.35138 0.94888 0.0
C639 C 0.11563 0.31074 0.88161 0.0
O640 O 0.14614 0.35239 0.90712 0.0
O641 O 0.14238 0.36515 0.87523 0.0
O642 O 0.09022 0.33771 0.921 0.0
O643 O 0.10254 0.35719 0.89648 0.0
Co644 Co 0.42021 0.37915 0.65792 0.0
O645 O 0.43975 0.37708 0.63641 0.0
O646 O 0.4444 0.36622 0.66823 0.0
C647 C 0.41158 0.41198 0.65196 0.0
O648 O 0.40376 0.37955 0.68426 0.0
Co649 Co 0.37513 0.38751 0.6474 0.0
O650 O 0.3737 0.39372 0.67714 0.0
C651 C 0.3927 0.3468 0.6394 0.0
C652 C 0.45152 0.36857 0.64979 0.0
C653 C 0.38686 0.38735 0.68986 0.0
O654 O 0.40852 0.35165 0.64981 0.0
O655 O 0.37867 0.35952 0.63517 0.0
O656 O 0.42763 0.4079 0.66262 0.0
O657 O 0.40269 0.39635 0.64376 0.0
Co658 Co 0.32737 0.09369 0.36382 0.0
O659 O 0.30891 0.11599 0.36733 0.0
O660 O 0.30222 0.08351 0.37488 0.0
C661 C 0.33769 0.10213 0.33206 0.0
O662 O 0.34221 0.0665 0.36151 0.0
Co663 Co 0.37327 0.10159 0.35819 0.0
O664 O 0.37274 0.07292 0.348 0.0
C665 C 0.35536 0.10418 0.39952 0.0
C666 C 0.29615 0.10245 0.37414 0.0
C667 C 0.35873 0.06053 0.35318 0.0
O668 O 0.33823 0.0983 0.39232 0.0
O669 O 0.3709 0.10738 0.38832 0.0
O670 O 0.32088 0.09215 0.33468 0.0
O671 O 0.34652 0.10838 0.3486 0.0
H672 H 0.11343 0.3321 0.38583 0.0
H673 H 0.08324 0.30642 0.3329 0.0
H674 H 0.12001 0.29758 0.39852 0.0
H675 H 0.08946 0.27188 0.34579 0.0
H676 H 0.12612 0.21449 0.36376 0.0
H677 H 0.11796 0.24872 0.35094 0.0
H678 H 0.10256 0.26785 0.41239 0.0
H679 H 0.1111 0.23394 0.4252 0.0
C680 C 0.10803 0.31908 0.37702 0.0
C681 C 0.09787 0.32194 0.35837 0.0
C682 C 0.11172 0.29931 0.38432 0.0
C683 C 0.10529 0.28199 0.37312 0.0
C684 C 0.09485 0.2849 0.35461 0.0
C685 C 0.09116 0.30468 0.34732 0.0
C686 C 0.12095 0.22603 0.37448 0.0
C687 C 0.11935 0.22159 0.39547 0.0
C688 C 0.11617 0.24557 0.36714 0.0
C689 C 0.10969 0.26101 0.38068 0.0
C690 C 0.10781 0.2564 0.40162 0.0
C691 C 0.11261 0.23692 0.40894 0.0
H692 H 0.03713 0.87358 0.59752 0.0
H693 H 0.02911 0.85495 0.66057 0.0
H694 H 0.00053 0.8743 0.59296 0.0
H695 H 0.99245 0.85511 0.65571 0.0
H696 H 0.93208 0.83138 0.62059 0.0
H697 H 0.96837 0.8322 0.62747 0.0
H698 H 0.97001 0.89687 0.61339 0.0
H699 H 0.93359 0.89631 0.60709 0.0
C700 C 0.02755 0.86958 0.61036 0.0
C701 C 0.03594 0.8642 0.62941 0.0
C702 C 0.00667 0.87009 0.60776 0.0
C703 C 0.99384 0.86477 0.624 0.0
C704 C 0.00214 0.85925 0.643 0.0
C705 C 0.02304 0.85923 0.64577 0.0
C706 C 0.94017 0.8458 0.6191 0.0
C707 C 0.93004 0.86379 0.61331 0.0
C708 C 0.96085 0.84626 0.62311 0.0
C709 C 0.97182 0.86459 0.62092 0.0
C710 C 0.96177 0.88258 0.61515 0.0
C711 C 0.94099 0.88225 0.61163 0.0
H712 H 0.38349 0.7606 0.92285 0.0
H713 H 0.37013 0.78047 0.86115 0.0
H714 H 0.39304 0.72693 0.90987 0.0
H715 H 0.37938 0.74665 0.84818 0.0
H716 H 0.41817 0.69194 0.83047 0.0
H717 H 0.40963 0.72556 0.84423 0.0
H718 H 0.37744 0.6965 0.89401 0.0
H719 H 0.38628 0.66279 0.88039 0.0
C720 C 0.38252 0.75774 0.90652 0.0
C721 C 0.37608 0.77315 0.89299 0.0
C722 C 0.38789 0.73843 0.8991 0.0
C723 C 0.38697 0.73415 0.87801 0.0
C724 C 0.38049 0.74958 0.86449 0.0
C725 C 0.37508 0.76889 0.87192 0.0
C726 C 0.40936 0.69273 0.84441 0.0
C727 C 0.40284 0.67476 0.85434 0.0
C728 C 0.40435 0.71198 0.8522 0.0
C729 C 0.39275 0.71367 0.87011 0.0
C730 C 0.38654 0.69568 0.88027 0.0
C731 C 0.39153 0.67639 0.87244 0.0
H732 H 0.47686 0.13769 0.15985 0.0
H733 H 0.47006 0.11599 0.09758 0.0
H734 H 0.51358 0.13694 0.15596 0.0
H735 H 0.50668 0.11483 0.09396 0.0
H736 H 0.57386 0.09749 0.10465 0.0
H737 H 0.53769 0.09506 0.11193 0.0
H738 H 0.53749 0.15867 0.13042 0.0
H739 H 0.57343 0.16132 0.12272 0.0
C740 C 0.4832 0.13252 0.14546 0.0
C741 C 0.47062 0.12701 0.12898 0.0
C742 C 0.50416 0.13215 0.14324 0.0
C743 C 0.51285 0.12578 0.12469 0.0
C744 C 0.5003 0.11964 0.10846 0.0
C745 C 0.47938 0.12045 0.1105 0.0
C746 C 0.56612 0.11088 0.11045 0.0
C747 C 0.57641 0.12962 0.11301 0.0
C748 C 0.54547 0.10949 0.11454 0.0
C749 C 0.53492 0.12668 0.12174 0.0
C750 C 0.54535 0.14519 0.12501 0.0
C751 C 0.56586 0.1467 0.12048 0.0
H752 H 0.13424 0.65962 0.10897 0.0
H753 H 0.09292 0.68025 0.15562 0.0
H754 H 0.14016 0.69483 0.09856 0.0
H755 H 0.09969 0.71583 0.14602 0.0
H756 H 0.09963 0.77501 0.10698 0.0
H757 H 0.094 0.74069 0.1209 0.0
H758 H 0.1559 0.72523 0.1074 0.0
H759 H 0.16093 0.75899 0.09233 0.0
C760 C 0.12664 0.67176 0.11721 0.0
C761 C 0.11313 0.66717 0.13311 0.0
C762 C 0.13016 0.69204 0.11137 0.0
C763 C 0.1206 0.70835 0.12157 0.0
C764 C 0.10715 0.70373 0.13761 0.0
C765 C 0.10331 0.68334 0.1432 0.0
C766 C 0.11203 0.76427 0.10723 0.0
C767 C 0.13062 0.76948 0.09837 0.0
C768 C 0.10887 0.74461 0.11528 0.0
C769 C 0.12439 0.72994 0.11499 0.0
C770 C 0.14336 0.73579 0.10728 0.0
C771 C 0.14635 0.75521 0.09881 0.0
H772 H 0.48213 0.86259 0.32907 0.0
H773 H 0.46602 0.87533 0.39196 0.0
H774 H 0.51676 0.85548 0.3399 0.0
H775 H 0.50039 0.86846 0.40265 0.0
H776 H 0.55732 0.83453 0.41822 0.0
H777 H 0.52328 0.83907 0.40523 0.0
H778 H 0.54652 0.87463 0.35454 0.0
H779 H 0.58083 0.86985 0.36748 0.0
C780 C 0.48596 0.8638 0.34517 0.0
C781 C 0.47136 0.86948 0.35967 0.0
C782 C 0.50578 0.85986 0.35134 0.0
C783 C 0.51127 0.86135 0.37213 0.0
C784 C 0.49658 0.8669 0.38656 0.0
C785 C 0.47689 0.87094 0.38041 0.0
C786 C 0.55522 0.84325 0.40425 0.0
C787 C 0.57173 0.85199 0.39396 0.0
C788 C 0.5357 0.84591 0.39685 0.0
C789 C 0.53221 0.85735 0.37896 0.0
C790 C 0.54877 0.86563 0.36831 0.0
C791 C 0.56837 0.86301 0.37577 0.0
H792 H 0.34315 0.23678 0.58531 0.0
H793 H 0.40261 0.21761 0.60361 0.0
H794 H 0.34872 0.26999 0.60136 0.0
H795 H 0.40886 0.25146 0.61869 0.0
H796 H 0.40806 0.31147 0.65595 0.0
H797 H 0.40197 0.27626 0.6443 0.0
H798 H 0.36681 0.29952 0.59357 0.0
H799 H 0.372 0.33424 0.60582 0.0
C800 C 0.35746 0.23977 0.59278 0.0
C801 C 0.37253 0.2248 0.59308 0.0
C802 C 0.36076 0.25886 0.60183 0.0
C803 C 0.37945 0.26368 0.61088 0.0
C804 C 0.39426 0.24831 0.61194 0.0
C805 C 0.39074 0.22895 0.60326 0.0
C806 C 0.39904 0.30894 0.64232 0.0
C807 C 0.3903 0.32554 0.63192 0.0
C808 C 0.39559 0.28879 0.63559 0.0
C809 C 0.38361 0.28495 0.61816 0.0
C810 C 0.37552 0.30174 0.60745 0.0
C811 C 0.37864 0.32172 0.61436 0.0
H812 H 0.02178 0.14094 0.82729 0.0
H813 H 0.03636 0.13259 0.89132 0.0
H814 H 0.9868 0.14832 0.83663 0.0
H815 H 0.00168 0.13967 0.90053 0.0
H816 H 0.94315 0.17063 0.91336 0.0
H817 H 0.97763 0.16787 0.90106 0.0
H818 H 0.95733 0.12932 0.85113 0.0
H819 H 0.92262 0.13238 0.86329 0.0
C820 C 0.01755 0.1408 0.84332 0.0
C821 C 0.0318 0.13617 0.85856 0.0
C822 C 0.99753 0.1449 0.84865 0.0
C823 C 0.9915 0.14464 0.86932 0.0
C824 C 0.00589 0.14031 0.8845 0.0
C825 C 0.02577 0.13611 0.87919 0.0
C826 C 0.94599 0.1617 0.89966 0.0
C827 C 0.93022 0.15152 0.88942 0.0
C828 C 0.96576 0.16007 0.89265 0.0
C829 C 0.97023 0.14819 0.87526 0.0
C830 C 0.95434 0.13868 0.86451 0.0
C831 C 0.9345 0.14033 0.87154 0.0
H832 H 0.36083 0.12806 0.2044 0.0
H833 H 0.41909 0.10962 0.22727 0.0
H834 H 0.3462 0.12219 0.23806 0.0
H835 H 0.4043 0.10348 0.26109 0.0
H836 H 0.32264 0.08977 0.29508 0.0
H837 H 0.33821 0.09371 0.26142 0.0
H838 H 0.38945 0.12385 0.2894 0.0
H839 H 0.37401 0.11971 0.32308 0.0
C840 C 0.37051 0.12266 0.21661 0.0
C841 C 0.39113 0.11933 0.2132 0.0
C842 C 0.36208 0.11916 0.23587 0.0
C843 C 0.37408 0.11232 0.25221 0.0
C844 C 0.39472 0.10893 0.24882 0.0
C845 C 0.40316 0.11234 0.22946 0.0
C846 C 0.33723 0.09722 0.29404 0.0
C847 C 0.34706 0.10451 0.31169 0.0
C848 C 0.34612 0.09953 0.27476 0.0
C849 C 0.36504 0.10913 0.27276 0.0
C850 C 0.37497 0.11619 0.29047 0.0
C851 C 0.36605 0.11395 0.30973 0.0
H852 H 0.12258 0.12508 0.46958 0.0
H853 H 0.13202 0.18385 0.49894 0.0
H854 H 0.12922 0.10777 0.50237 0.0
H855 H 0.13926 0.16648 0.53134 0.0
H856 H 0.1725 0.1204 0.57694 0.0
H857 H 0.16897 0.13435 0.54216 0.0
H858 H 0.10659 0.11557 0.54113 0.0
H859 H 0.10981 0.1022 0.57605 0.0
C860 C 0.12631 0.13424 0.48294 0.0
C861 C 0.12665 0.15578 0.48182 0.0
C862 C 0.13009 0.12436 0.50159 0.0
C863 C 0.13482 0.1359 0.51914 0.0
C864 C 0.13576 0.15735 0.51789 0.0
C865 C 0.1315 0.16723 0.49943 0.0
C866 C 0.15811 0.11907 0.56919 0.0
C867 C 0.14138 0.11037 0.57919 0.0
C868 C 0.15613 0.12703 0.54939 0.0
C869 C 0.13756 0.12585 0.53914 0.0
C870 C 0.12107 0.11645 0.54878 0.0
C871 C 0.1229 0.10896 0.56874 0.0
H872 H 0.11633 0.86514 0.82687 0.0
H873 H 0.15922 0.91301 0.81189 0.0
H874 H 0.1057 0.8637 0.7911 0.0
H875 H 0.1486 0.91134 0.77597 0.0
H876 H 0.14057 0.87828 0.71177 0.0
H877 H 0.1507 0.88354 0.74747 0.0
H878 H 0.08822 0.88758 0.76517 0.0
H879 H 0.07804 0.88254 0.72947 0.0
C880 C 0.1235 0.87535 0.81596 0.0
C881 C 0.13868 0.88914 0.82222 0.0
C882 C 0.1173 0.87461 0.79551 0.0
C883 C 0.12632 0.88743 0.78083 0.0
C884 C 0.14148 0.90124 0.78701 0.0
C885 C 0.14748 0.90223 0.80756 0.0
C886 C 0.12901 0.88047 0.72326 0.0
C887 C 0.10852 0.8799 0.71787 0.0
C888 C 0.13482 0.88359 0.74364 0.0
C889 C 0.12023 0.88588 0.75903 0.0
C890 C 0.09975 0.8857 0.75359 0.0
C891 C 0.09395 0.8829 0.73317 0.0
H892 H 0.34931 0.86067 0.96504 0.0
H893 H 0.3991 0.82995 0.99441 0.0
H894 H 0.34133 0.87781 0.99724 0.0
H895 H 0.3917 0.84766 0.02631 0.0
H896 H 0.34307 0.91841 0.0545 0.0
H897 H 0.35156 0.90287 0.02161 0.0
H898 H 0.36748 0.84662 0.0527 0.0
H899 H 0.35982 0.8625 0.08553 0.0
C900 C 0.35877 0.85787 0.97828 0.0
C901 C 0.37473 0.84383 0.97724 0.0
C902 C 0.35423 0.86773 0.99675 0.0
C903 C 0.36572 0.86395 0.01449 0.0
C904 C 0.38218 0.85053 0.01314 0.0
C905 C 0.38654 0.84048 0.99479 0.0
C906 C 0.34835 0.90271 0.05424 0.0
C907 C 0.35087 0.89168 0.07255 0.0
C908 C 0.35314 0.89377 0.03539 0.0
C909 C 0.36035 0.87352 0.03446 0.0
C910 C 0.36243 0.8624 0.05283 0.0
C911 C 0.35788 0.87143 0.07166 0.0
H912 H 0.35008 0.87774 0.29246 0.0
H913 H 0.4111 0.89722 0.27963 0.0
H914 H 0.34239 0.8783 0.2558 0.0
H915 H 0.4031 0.8983 0.24284 0.0
H916 H 0.36444 0.92166 0.18423 0.0
H917 H 0.37378 0.92106 0.22067 0.0
H918 H 0.35932 0.85647 0.22334 0.0
H919 H 0.35049 0.85683 0.18692 0.0
C920 C 0.36182 0.88223 0.2818 0.0
C921 C 0.3812 0.88742 0.28885 0.0
C922 C 0.35741 0.88248 0.26089 0.0
C923 C 0.37216 0.8884 0.24668 0.0
C924 C 0.3915 0.89377 0.25363 0.0
C925 C 0.39608 0.89304 0.27458 0.0
C926 C 0.36326 0.90736 0.19262 0.0
C927 C 0.35672 0.8893 0.18278 0.0
C928 C 0.36873 0.907 0.21335 0.0
C929 C 0.36726 0.88871 0.22462 0.0
C930 C 0.36055 0.87073 0.21487 0.0
C931 C 0.35554 0.87096 0.19409 0.0
H932 H 0.35354 0.16407 0.51581 0.0
H933 H 0.38729 0.10931 0.52978 0.0
H934 H 0.34707 0.1512 0.48131 0.0
H935 H 0.38108 0.09659 0.4949 0.0
H936 H 0.38966 0.10374 0.42261 0.0
H937 H 0.39302 0.1113 0.45915 0.0
H938 H 0.3288 0.12019 0.4634 0.0
H939 H 0.32529 0.11237 0.42686 0.0
C940 C 0.35945 0.14921 0.51155 0.0
C941 C 0.37098 0.13771 0.52541 0.0
C942 C 0.35564 0.14181 0.49185 0.0
C943 C 0.36359 0.12294 0.48552 0.0
C944 C 0.37485 0.11122 0.49947 0.0
C945 C 0.37833 0.11846 0.51937 0.0
C946 C 0.37623 0.10716 0.43136 0.0
C947 C 0.35723 0.10763 0.42184 0.0
C948 C 0.37815 0.11129 0.45228 0.0
C949 C 0.36116 0.1163 0.46399 0.0
C950 C 0.34211 0.1164 0.45462 0.0
C951 C 0.34013 0.1119 0.43376 0.0
H952 H 0.0926 0.11227 0.78137 0.0
H953 H 0.15558 0.10751 0.79756 0.0
H954 H 0.10107 0.10577 0.74549 0.0
H955 H 0.164 0.10164 0.76192 0.0
H956 H 0.1721 0.07113 0.70121 0.0
H957 H 0.1607 0.07554 0.73637 0.0
H958 H 0.11795 0.12112 0.71625 0.0
H959 H 0.12894 0.11614 0.68087 0.0
C960 C 0.10824 0.11001 0.77728 0.0
C961 C 0.12339 0.1103 0.79236 0.0
C962 C 0.11309 0.10633 0.75672 0.0
C963 C 0.13319 0.10297 0.75087 0.0
C964 C 0.14831 0.10365 0.76594 0.0
C965 C 0.14348 0.10718 0.7864 0.0
C966 C 0.16016 0.08198 0.70428 0.0
C967 C 0.15153 0.09344 0.68837 0.0
C968 C 0.1537 0.0846 0.72444 0.0
C969 C 0.13862 0.09891 0.72917 0.0
C970 C 0.1295 0.10988 0.71312 0.0
C971 C 0.13587 0.10712 0.69288 0.0
H972 H 0.12236 0.88744 0.03853 0.0
H973 H 0.13834 0.82672 0.01764 0.0
H974 H 0.1307 0.9013 0.00472 0.0
H975 H 0.14695 0.84056 0.98412 0.0
H976 H 0.16665 0.92086 0.9477 0.0
H977 H 0.15988 0.90719 0.98189 0.0
H978 H 0.12907 0.85521 0.95482 0.0
H979 H 0.13608 0.86869 0.9207 0.0
C980 C 0.12774 0.8771 0.02676 0.0
C981 C 0.1296 0.856 0.03067 0.0
C982 C 0.13262 0.88503 0.00746 0.0
C983 C 0.1394 0.87199 0.99175 0.0
C984 C 0.14148 0.85094 0.99581 0.0
C985 C 0.13664 0.84304 0.01505 0.0
C986 C 0.15853 0.90646 0.94908 0.0
C987 C 0.15189 0.89582 0.93156 0.0
C988 C 0.15454 0.89872 0.96864 0.0
C989 C 0.14391 0.88016 0.97103 0.0
C990 C 0.13749 0.86943 0.95347 0.0
C991 C 0.14143 0.87719 0.93393 0.0
H992 H 0.30766 0.33486 0.07819 0.0
H993 H 0.33079 0.38406 0.11612 0.0
H994 H 0.27367 0.34796 0.08238 0.0
H995 H 0.29651 0.39708 0.12054 0.0
H996 H 0.21682 0.35809 0.1206 0.0
H997 H 0.25112 0.34856 0.11233 0.0
H998 H 0.26636 0.41229 0.10213 0.0
H999 H 0.23165 0.42199 0.11062 0.0
C1000 C 0.30549 0.34855 0.08736 0.0
C1001 C 0.32185 0.35828 0.09706 0.0
C1002 C 0.28601 0.35603 0.08978 0.0
C1003 C 0.2824 0.37341 0.10197 0.0
C1004 C 0.29886 0.38371 0.11097 0.0
C1005 C 0.31843 0.37618 0.10856 0.0
C1006 C 0.2274 0.37013 0.1165 0.0
C1007 C 0.22153 0.3908 0.11627 0.0
C1008 C 0.24706 0.36463 0.11163 0.0
C1009 C 0.26141 0.37966 0.10647 0.0
C1010 C 0.25561 0.4004 0.10614 0.0
C1011 C 0.23576 0.40592 0.11088 0.0
H1012 H 0.71692 0.13319 0.85791 0.0
H1013 H 0.72529 0.08013 0.89666 0.0
H1014 H 0.75286 0.14071 0.8598 0.0
H1015 H 0.76145 0.08791 0.89873 0.0
H1016 H 0.81952 0.12774 0.91437 0.0
H1017 H 0.78399 0.11775 0.91309 0.0
H1018 H 0.78491 0.12246 0.84709 0.0
H1019 H 0.82044 0.13229 0.84824 0.0
C1020 C 0.72642 0.1232 0.86695 0.0
C1021 C 0.7183 0.10605 0.87714 0.0
C1022 C 0.74701 0.12744 0.8679 0.0
C1023 C 0.7599 0.11481 0.87928 0.0
C1024 C 0.75178 0.09789 0.88987 0.0
C1025 C 0.73115 0.09344 0.88866 0.0
C1026 C 0.81218 0.12655 0.89956 0.0
C1027 C 0.82278 0.13093 0.88139 0.0
C1028 C 0.79189 0.12071 0.89886 0.0
C1029 C 0.78174 0.11945 0.88001 0.0
C1030 C 0.79238 0.12349 0.86184 0.0
C1031 C 0.81273 0.12902 0.8625 0.0
H1032 H 0.10849 0.45125 0.16695 0.0
H1033 H 0.14778 0.46627 0.11636 0.0
H1034 H 0.09768 0.48674 0.16882 0.0
H1035 H 0.1362 0.50175 0.11744 0.0
H1036 H 0.12429 0.5679 0.13645 0.0
H1037 H 0.13682 0.53287 0.13551 0.0
H1038 H 0.07752 0.51032 0.15169 0.0
H1039 H 0.06541 0.54544 0.15374 0.0
C1040 C 0.11471 0.46217 0.15611 0.0
C1041 C 0.1289 0.45599 0.14144 0.0
C1042 C 0.10839 0.48252 0.15706 0.0
C1043 C 0.11582 0.49717 0.1431 0.0
C1044 C 0.1303 0.491 0.1286 0.0
C1045 C 0.1369 0.47065 0.1279 0.0
C1046 C 0.11397 0.55543 0.13984 0.0
C1047 C 0.0939 0.55938 0.1453 0.0
C1048 C 0.12111 0.5353 0.13917 0.0
C1049 C 0.10825 0.51865 0.1436 0.0
C1050 C 0.08804 0.52271 0.14866 0.0
C1051 C 0.08101 0.54284 0.14967 0.0
H1052 H 0.68685 0.85095 0.4163 0.0
H1053 H 0.68029 0.87548 0.35504 0.0
H1054 H 0.72294 0.85705 0.4147 0.0
H1055 H 0.71662 0.88139 0.35348 0.0
H1056 H 0.78016 0.9078 0.36889 0.0
H1057 H 0.74367 0.90289 0.36961 0.0
H1058 H 0.75167 0.84259 0.39573 0.0
H1059 H 0.788 0.84746 0.39526 0.0
C1060 C 0.69305 0.85767 0.40248 0.0
C1061 C 0.6806 0.86263 0.38575 0.0
C1062 C 0.7138 0.86105 0.40154 0.0
C1063 C 0.72264 0.86955 0.38391 0.0
C1064 C 0.71021 0.87493 0.36732 0.0
C1065 C 0.68941 0.87145 0.3682 0.0
C1066 C 0.77415 0.89347 0.37476 0.0
C1067 C 0.78706 0.87807 0.3821 0.0
C1068 C 0.75324 0.89064 0.37506 0.0
C1069 C 0.74481 0.87241 0.38284 0.0
C1070 C 0.75771 0.85694 0.38993 0.0
C1071 C 0.77856 0.8597 0.38953 0.0
H1072 H 0.87466 0.92251 0.13638 0.0
H1073 H 0.9255 0.94758 0.16962 0.0
H1074 H 0.86057 0.95673 0.13301 0.0
H1075 H 0.91119 0.98196 0.16647 0.0
H1076 H 0.83276 0.01933 0.14297 0.0
H1077 H 0.84571 0.98544 0.15215 0.0
H1078 H 0.90612 0.00592 0.13801 0.0
H1079 H 0.89333 0.03964 0.12919 0.0
C1080 C 0.88274 0.93533 0.14315 0.0
C1081 C 0.90127 0.93241 0.15313 0.0
C1082 C 0.87456 0.95492 0.14136 0.0
C1083 C 0.88476 0.97205 0.14946 0.0
C1084 C 0.90308 0.96906 0.15988 0.0
C1085 C 0.91125 0.94941 0.16173 0.0
C1086 C 0.84881 0.0166 0.14202 0.0
C1087 C 0.862 0.03208 0.13522 0.0
C1088 C 0.85621 0.9972 0.14719 0.0
C1089 C 0.87694 0.99301 0.14577 0.0
C1090 C 0.89013 0.00872 0.13953 0.0
C1091 C 0.88274 0.02801 0.1343 0.0
H1092 H 0.17807 0.61796 0.62031 0.0
H1093 H 0.19557 0.66029 0.57252 0.0
H1094 H 0.21349 0.60829 0.62491 0.0
H1095 H 0.23051 0.65037 0.57669 0.0
H1096 H 0.29055 0.65181 0.60811 0.0
H1097 H 0.25482 0.65729 0.60359 0.0
H1098 H 0.24385 0.59208 0.60883 0.0
H1099 H 0.28002 0.58648 0.61379 0.0
C1100 C 0.18942 0.62492 0.61059 0.0
C1101 C 0.18415 0.64012 0.59631 0.0
C1102 C 0.20965 0.61936 0.61317 0.0
C1103 C 0.22483 0.62887 0.60144 0.0
C1104 C 0.21926 0.64316 0.58636 0.0
C1105 C 0.19921 0.64878 0.5839 0.0
C1106 C 0.28064 0.63855 0.60834 0.0
C1107 C 0.28826 0.61866 0.61113 0.0
C1108 C 0.26009 0.64171 0.60562 0.0
C1109 C 0.24652 0.62509 0.60548 0.0
C1110 C 0.25395 0.6052 0.60886 0.0
C1111 C 0.27466 0.602 0.61165 0.0
H1112 H 0.10171 0.43616 0.3985 0.0
H1113 H 0.11827 0.43404 0.33447 0.0
H1114 H 0.11003 0.47284 0.39943 0.0
H1115 H 0.12707 0.4706 0.33567 0.0
H1116 H 0.16017 0.53159 0.35804 0.0
H1117 H 0.15431 0.49434 0.35873 0.0
H1118 H 0.09268 0.50437 0.37686 0.0
H1119 H 0.09826 0.54149 0.37564 0.0
C1120 C 0.10735 0.44347 0.38472 0.0
C1121 C 0.10926 0.43231 0.36639 0.0
C1122 C 0.11204 0.4644 0.38527 0.0
C1123 C 0.1192 0.47436 0.36764 0.0
C1124 C 0.12168 0.46313 0.34946 0.0
C1125 C 0.11653 0.44232 0.34877 0.0
C1126 C 0.14542 0.5258 0.36226 0.0
C1127 C 0.12964 0.53937 0.36671 0.0
C1128 C 0.14208 0.50458 0.36258 0.0
C1129 C 0.12308 0.49667 0.36788 0.0
C1130 C 0.10747 0.5102 0.37283 0.0
C1131 C 0.11065 0.53137 0.37203 0.0
H1132 H 0.38182 0.5641 0.88732 0.0
H1133 H 0.40737 0.55835 0.82662 0.0
H1134 H 0.37288 0.52784 0.88687 0.0
H1135 H 0.39812 0.52207 0.82615 0.0
H1136 H 0.39982 0.45359 0.84461 0.0
H1137 H 0.40791 0.49008 0.84353 0.0
H1138 H 0.3497 0.50406 0.86933 0.0
H1139 H 0.34163 0.46755 0.87074 0.0
C1140 C 0.38549 0.55516 0.87384 0.0
C1141 C 0.39539 0.56419 0.85703 0.0
C1142 C 0.38022 0.53438 0.87355 0.0
C1143 C 0.38475 0.52211 0.85646 0.0
C1144 C 0.39461 0.5311 0.83962 0.0
C1145 C 0.39983 0.55192 0.83988 0.0
C1146 C 0.38869 0.46441 0.85 0.0
C1147 C 0.3701 0.45758 0.85787 0.0
C1148 C 0.3933 0.48535 0.84925 0.0
C1149 C 0.37948 0.49994 0.85641 0.0
C1150 C 0.36078 0.49316 0.86396 0.0
C1151 C 0.35612 0.47223 0.86465 0.0
H1152 H 0.92304 0.69438 0.66476 0.0
H1153 H 0.88895 0.6711 0.61319 0.0
H1154 H 0.91817 0.72929 0.65261 0.0
H1155 H 0.88384 0.70628 0.60111 0.0
H1156 H 0.8937 0.77278 0.57779 0.0
H1157 H 0.90164 0.73744 0.58753 0.0
H1158 H 0.88883 0.752 0.65079 0.0
H1159 H 0.88113 0.78716 0.64117 0.0
C1160 C 0.91458 0.69671 0.65075 0.0
C1161 C 0.90619 0.68002 0.64003 0.0
C1162 C 0.91172 0.71674 0.64385 0.0
C1163 C 0.90042 0.72055 0.62605 0.0
C1164 C 0.89269 0.70381 0.61484 0.0
C1165 C 0.89553 0.68369 0.62179 0.0
C1166 C 0.89268 0.76841 0.59378 0.0
C1167 C 0.88682 0.78274 0.60873 0.0
C1168 C 0.89711 0.74817 0.59932 0.0
C1169 C 0.89593 0.74197 0.61992 0.0
C1170 C 0.89017 0.75638 0.63483 0.0
C1171 C 0.88564 0.77651 0.6293 0.0
H1172 H 0.96627 0.12267 0.39912 0.0
H1173 H 0.97426 0.14686 0.33801 0.0
H1174 H 0.00183 0.12924 0.40653 0.0
H1175 H 0.00982 0.15397 0.34571 0.0
H1176 H 0.05444 0.1941 0.38941 0.0
H1177 H 0.02302 0.18093 0.37477 0.0
H1178 H 0.03937 0.11947 0.39265 0.0
H1179 H 0.07127 0.1326 0.40682 0.0
C1180 C 0.97572 0.12911 0.38719 0.0
C1181 C 0.96752 0.13437 0.36803 0.0
C1182 C 0.99606 0.13273 0.39139 0.0
C1183 C 0.00848 0.14209 0.37668 0.0
C1184 C 0.0005 0.14668 0.35726 0.0
C1185 C 0.98022 0.14259 0.35287 0.0
C1186 C 0.05149 0.17773 0.38987 0.0
C1187 C 0.06517 0.16436 0.39933 0.0
C1188 C 0.03361 0.1702 0.38137 0.0
C1189 C 0.02886 0.14922 0.3826 0.0
C1190 C 0.04279 0.13571 0.3915 0.0
C1191 C 0.06098 0.1432 0.39954 0.0
H1192 H 0.62286 0.20773 0.1441 0.0
H1193 H 0.60691 0.22447 0.08209 0.0
H1194 H 0.61562 0.24255 0.15549 0.0
H1195 H 0.59946 0.25932 0.09357 0.0
H1196 H 0.61467 0.32439 0.11915 0.0
H1197 H 0.61891 0.28929 0.1067 0.0
H1198 H 0.5871 0.26628 0.15974 0.0
H1199 H 0.58306 0.30128 0.17228 0.0
C1200 C 0.61765 0.2188 0.13293 0.0
C1201 C 0.61551 0.21339 0.11219 0.0
C1202 C 0.6134 0.23872 0.13948 0.0
C1203 C 0.607 0.25367 0.12541 0.0
C1204 C 0.60458 0.24817 0.10471 0.0
C1205 C 0.60873 0.2282 0.09817 0.0
C1206 C 0.6085 0.31183 0.12807 0.0
C1207 C 0.59866 0.31555 0.14675 0.0
C1208 C 0.61082 0.29176 0.12089 0.0
C1209 C 0.60341 0.27504 0.1323 0.0
C1210 C 0.5932 0.27884 0.15076 0.0
C1211 C 0.59081 0.29888 0.15788 0.0
H1212 H 0.44343 0.79734 0.89022 0.0
H1213 H 0.4237 0.86034 0.89397 0.0
H1214 H 0.4761 0.80877 0.8778 0.0
H1215 H 0.45683 0.87181 0.88135 0.0
H1216 H 0.52004 0.87657 0.84434 0.0
H1217 H 0.48438 0.8675 0.84975 0.0
H1218 H 0.50128 0.82946 0.90103 0.0
H1219 H 0.53639 0.83843 0.89593 0.0
C1220 C 0.44596 0.81365 0.88808 0.0
C1221 C 0.43114 0.82798 0.89352 0.0
C1222 C 0.46466 0.82016 0.88092 0.0
C1223 C 0.46904 0.84115 0.87897 0.0
C1224 C 0.45376 0.85552 0.88275 0.0
C1225 C 0.43487 0.84897 0.88998 0.0
C1226 C 0.51608 0.86629 0.85676 0.0
C1227 C 0.53108 0.85821 0.86968 0.0
C1228 C 0.49572 0.86121 0.85988 0.0
C1229 C 0.49019 0.84766 0.87568 0.0
C1230 C 0.50517 0.83976 0.88858 0.0
C1231 C 0.52531 0.84501 0.8857 0.0
H1232 H 0.86771 0.21879 0.906 0.0
H1233 H 0.89368 0.21328 0.84547 0.0
H1234 H 0.86907 0.25613 0.90307 0.0
H1235 H 0.89479 0.25049 0.84256 0.0
H1236 H 0.9162 0.3157 0.85435 0.0
H1237 H 0.91397 0.27874 0.8587 0.0
H1238 H 0.85387 0.28486 0.8831 0.0
H1239 H 0.85607 0.32208 0.87896 0.0
C1240 C 0.8736 0.2255 0.89204 0.0
C1241 C 0.88066 0.21299 0.876 0.0
C1242 C 0.87428 0.24689 0.89034 0.0
C1243 C 0.88215 0.25622 0.87265 0.0
C1244 C 0.88893 0.24374 0.85652 0.0
C1245 C 0.88816 0.22239 0.85815 0.0
C1246 C 0.9025 0.30927 0.86074 0.0
C1247 C 0.88626 0.32193 0.86619 0.0
C1248 C 0.9012 0.28804 0.8631 0.0
C1249 C 0.88367 0.27889 0.87103 0.0
C1250 C 0.86761 0.29151 0.87702 0.0
C1251 C 0.86886 0.31282 0.87458 0.0
H1252 H 0.44536 0.17168 0.58067 0.0
H1253 H 0.41821 0.13656 0.62967 0.0
H1254 H 0.4785 0.16575 0.59519 0.0
H1255 H 0.45177 0.13031 0.64415 0.0
H1256 H 0.51689 0.13757 0.67103 0.0
H1257 H 0.48279 0.1471 0.66005 0.0
H1258 H 0.49907 0.13467 0.59717 0.0
H1259 H 0.53278 0.12544 0.60796 0.0
C1260 C 0.44645 0.16273 0.59461 0.0
C1261 C 0.42917 0.15435 0.60387 0.0
C1262 C 0.46548 0.1593 0.60291 0.0
C1263 C 0.46778 0.14731 0.62064 0.0
C1264 C 0.45045 0.13966 0.63049 0.0
C1265 C 0.43128 0.14315 0.62216 0.0
C1266 C 0.51315 0.13703 0.65487 0.0
C1267 C 0.52753 0.13082 0.64035 0.0
C1268 C 0.49363 0.14235 0.64862 0.0
C1269 C 0.4883 0.14176 0.62774 0.0
C1270 C 0.50277 0.13562 0.61333 0.0
C1271 C 0.5221 0.13021 0.61955 0.0
H1272 H 0.60402 0.78954 0.3453 0.0
H1273 H 0.62884 0.77975 0.40584 0.0
H1274 H 0.60229 0.75247 0.34005 0.0
H1275 H 0.62683 0.74283 0.40063 0.0
H1276 H 0.64091 0.67911 0.37486 0.0
H1277 H 0.64285 0.71616 0.37958 0.0
H1278 H 0.58341 0.72249 0.35345 0.0
H1279 H 0.58146 0.68548 0.34845 0.0
C1280 C 0.6091 0.77953 0.35748 0.0
C1281 C 0.6166 0.78766 0.37597 0.0
C1282 C 0.60799 0.75829 0.35452 0.0
C1283 C 0.61444 0.74476 0.36993 0.0
C1284 C 0.62198 0.75288 0.38837 0.0
C1285 C 0.62301 0.77406 0.39138 0.0
C1286 C 0.62822 0.68836 0.37013 0.0
C1287 C 0.61103 0.67926 0.36127 0.0
C1288 C 0.62932 0.7096 0.37292 0.0
C1289 C 0.61329 0.72223 0.36686 0.0
C1290 C 0.5961 0.71317 0.35803 0.0
C1291 C 0.59496 0.69193 0.3553 0.0
H1292 H 0.05406 0.82416 0.08224 0.0
H1293 H 0.08076 0.8549 0.13444 0.0
H1294 H 0.02065 0.83089 0.09577 0.0
H1295 H 0.04705 0.86187 0.14794 0.0
H1296 H 0.9666 0.87108 0.11079 0.0
H1297 H 0.00036 0.86203 0.09975 0.0
H1298 H 0.01572 0.84506 0.16181 0.0
H1299 H 0.98174 0.85434 0.173 0.0
C1300 C 0.05281 0.83229 0.09668 0.0
C1301 C 0.07007 0.83915 0.10719 0.0
C1302 C 0.03363 0.83623 0.10438 0.0
C1303 C 0.03119 0.84713 0.12279 0.0
C1304 C 0.04845 0.85336 0.13374 0.0
C1305 C 0.06773 0.84944 0.12598 0.0
C1306 C 0.97712 0.86538 0.12211 0.0
C1307 C 0.97147 0.86338 0.14276 0.0
C1308 C 0.99646 0.86009 0.11575 0.0
C1309 C 0.01068 0.85271 0.12988 0.0
C1310 C 0.00511 0.85081 0.1506 0.0
C1311 C 0.98564 0.85601 0.15696 0.0
H1312 H 0.62154 0.87662 0.67462 0.0
H1313 H 0.66529 0.92055 0.69713 0.0
H1314 H 0.6056 0.87581 0.70843 0.0
H1315 H 0.64918 0.92009 0.73061 0.0
H1316 H 0.57375 0.89037 0.76921 0.0
H1317 H 0.58657 0.89608 0.73439 0.0
H1318 H 0.64752 0.89452 0.75761 0.0
H1319 H 0.63486 0.88918 0.79204 0.0
C1320 C 0.62762 0.88622 0.68673 0.0
C1321 C 0.64483 0.8984 0.68336 0.0
C1322 C 0.6184 0.88591 0.70601 0.0
C1323 C 0.62623 0.89778 0.72221 0.0
C1324 C 0.64299 0.91051 0.71853 0.0
C1325 C 0.65221 0.91078 0.69934 0.0
C1326 C 0.58986 0.89154 0.76683 0.0
C1327 C 0.6033 0.88928 0.78331 0.0
C1328 C 0.59719 0.89466 0.74692 0.0
C1329 C 0.61805 0.89575 0.74327 0.0
C1330 C 0.63137 0.89404 0.75991 0.0
C1331 C 0.62409 0.89084 0.77966 0.0
H1332 H 0.86013 0.90623 0.54208 0.0
H1333 H 0.86801 0.84151 0.52989 0.0
H1334 H 0.85495 0.91241 0.50582 0.0
H1335 H 0.86229 0.84772 0.49339 0.0
H1336 H 0.82483 0.91532 0.44482 0.0
H1337 H 0.82946 0.90578 0.48052 0.0
H1338 H 0.87693 0.86416 0.46308 0.0
H1339 H 0.87182 0.87334 0.42705 0.0
C1340 C 0.86069 0.89327 0.53168 0.0
C1341 C 0.86438 0.87335 0.53895 0.0
C1342 C 0.85758 0.89681 0.51086 0.0
C1343 C 0.85791 0.88051 0.49673 0.0
C1344 C 0.86202 0.86061 0.50388 0.0
C1345 C 0.86524 0.85706 0.5248 0.0
C1346 C 0.83614 0.90399 0.44857 0.0
C1347 C 0.84813 0.89524 0.43321 0.0
C1348 C 0.83889 0.89862 0.46905 0.0
C1349 C 0.85383 0.88451 0.4747 0.0
C1350 C 0.86526 0.87505 0.45922 0.0
C1351 C 0.86239 0.88034 0.43862 0.0
H1352 H 0.88592 0.13806 0.16913 0.0
H1353 H 0.84593 0.08745 0.18346 0.0
H1354 H 0.89709 0.139 0.20488 0.0
H1355 H 0.85705 0.08856 0.21908 0.0
H1356 H 0.86438 0.11718 0.28428 0.0
H1357 H 0.85401 0.11442 0.24847 0.0
H1358 H 0.91636 0.115 0.22973 0.0
H1359 H 0.92681 0.11759 0.26568 0.0
C1360 C 0.87945 0.12722 0.17989 0.0
C1361 C 0.865 0.11271 0.17345 0.0
C1362 C 0.88597 0.12765 0.20028 0.0
C1363 C 0.87795 0.11381 0.21467 0.0
C1364 C 0.8634 0.09946 0.2083 0.0
C1365 C 0.85709 0.09881 0.18789 0.0
C1366 C 0.87588 0.11653 0.27254 0.0
C1367 C 0.8964 0.1176 0.27774 0.0
C1368 C 0.86994 0.1149 0.25207 0.0
C1369 C 0.8844 0.11461 0.23638 0.0
C1370 C 0.90493 0.11539 0.24157 0.0
C1371 C 0.9109 0.1167 0.2621 0.0
H1372 H 0.60949 0.1286 0.92712 0.0
H1373 H 0.67138 0.10859 0.93118 0.0
H1374 H 0.60916 0.13444 0.9641 0.0
H1375 H 0.671 0.11465 0.96796 0.0
H1376 H 0.65356 0.10063 0.03442 0.0
H1377 H 0.65448 0.09785 0.99725 0.0
H1378 H 0.62394 0.15596 0.99191 0.0
H1379 H 0.62277 0.15873 0.02924 0.0
C1380 C 0.62309 0.12568 0.9358 0.0
C1381 C 0.6404 0.11793 0.92614 0.0
C1382 C 0.62291 0.12911 0.95699 0.0
C1383 C 0.63999 0.12479 0.96896 0.0
C1384 C 0.65749 0.11776 0.9592 0.0
C1385 C 0.65771 0.1144 0.93807 0.0
C1386 C 0.64702 0.11285 0.02538 0.0
C1387 C 0.63808 0.12991 0.03487 0.0
C1388 C 0.64769 0.11131 0.00405 0.0
C1389 C 0.63937 0.12674 0.99164 0.0
C1390 C 0.63035 0.14376 0.00107 0.0
C1391 C 0.62978 0.14538 0.02246 0.0
H1392 H 0.66059 0.07019 0.80542 0.0
H1393 H 0.62454 0.12296 0.82086 0.0
H1394 H 0.64902 0.07206 0.77017 0.0
H1395 H 0.61329 0.12525 0.7851 0.0
H1396 H 0.58613 0.11113 0.72061 0.0
H1397 H 0.59398 0.10846 0.7572 0.0
H1398 H 0.65592 0.0951 0.74228 0.0
H1399 H 0.64812 0.09725 0.7061 0.0
C1400 C 0.65015 0.08221 0.80126 0.0
C1401 C 0.64367 0.0966 0.81581 0.0
C1402 C 0.64359 0.08335 0.78101 0.0
C1403 C 0.63055 0.09905 0.77472 0.0
C1404 C 0.62332 0.11296 0.78948 0.0
C1405 C 0.6298 0.1117 0.80991 0.0
C1406 C 0.60141 0.10763 0.72518 0.0
C1407 C 0.61644 0.10422 0.71037 0.0
C1408 C 0.60591 0.10618 0.74613 0.0
C1409 C 0.62551 0.10131 0.75264 0.0
C1410 C 0.64055 0.09837 0.73781 0.0
C1411 C 0.63608 0.09973 0.71699 0.0
H1412 H 0.63944 0.82327 0.47635 0.0
H1413 H 0.63542 0.88833 0.46423 0.0
H1414 H 0.64395 0.83042 0.51285 0.0
H1415 H 0.64012 0.89544 0.50076 0.0
H1416 H 0.66766 0.89923 0.56564 0.0
H1417 H 0.66686 0.89099 0.5291 0.0
H1418 H 0.62046 0.84566 0.54013 0.0
H1419 H 0.62106 0.85392 0.57664 0.0
C1420 C 0.63975 0.8391 0.48145 0.0
C1421 C 0.63699 0.85525 0.46747 0.0
C1422 C 0.64223 0.84316 0.50233 0.0
C1423 C 0.6423 0.86346 0.50958 0.0
C1424 C 0.64024 0.87965 0.49553 0.0
C1425 C 0.63747 0.87557 0.47466 0.0
C1426 C 0.65738 0.88739 0.56032 0.0
C1427 C 0.64436 0.87728 0.57405 0.0
C1428 C 0.65688 0.88277 0.53939 0.0
C1429 C 0.64359 0.86772 0.53184 0.0
C1430 C 0.63096 0.85722 0.5456 0.0
C1431 C 0.63123 0.86204 0.56647 0.0
H1432 H 0.85762 0.91805 0.31718 0.0
H1433 H 0.87545 0.85454 0.32308 0.0
H1434 H 0.86527 0.91696 0.28083 0.0
H1435 H 0.883 0.85354 0.28639 0.0
H1436 H 0.91213 0.86851 0.22301 0.0
H1437 H 0.90658 0.86888 0.26006 0.0
H1438 H 0.84982 0.89957 0.25083 0.0
H1439 H 0.85532 0.89943 0.214 0.0
C1440 C 0.86323 0.90384 0.31078 0.0
C1441 C 0.86575 0.88631 0.32309 0.0
C1442 C 0.86752 0.90323 0.28989 0.0
C1443 C 0.87452 0.88511 0.28075 0.0
C1444 C 0.87768 0.86773 0.29308 0.0
C1445 C 0.87329 0.8683 0.31406 0.0
C1446 C 0.89847 0.87535 0.22888 0.0
C1447 C 0.88421 0.88401 0.21551 0.0
C1448 C 0.89527 0.87544 0.25008 0.0
C1449 C 0.87784 0.88435 0.25831 0.0
C1450 C 0.86354 0.89285 0.24494 0.0
C1451 C 0.86666 0.89265 0.2238 0.0
H1452 H 0.85574 0.16612 0.97333 0.0
H1453 H 0.87461 0.10503 0.95644 0.0
H1454 H 0.84933 0.15432 0.0083 0.0
H1455 H 0.86841 0.09334 0.99134 0.0
H1456 H 0.86546 0.12957 0.07317 0.0
H1457 H 0.86936 0.14222 0.03813 0.0
H1458 H 0.84011 0.08745 0.01508 0.0
H1459 H 0.83643 0.07471 0.05002 0.0
C1460 C 0.85847 0.15018 0.97707 0.0
C1461 C 0.8657 0.1365 0.96217 0.0
C1462 C 0.8549 0.14346 0.9971 0.0
C1463 C 0.85837 0.12291 0.00255 0.0
C1464 C 0.86537 0.10921 0.98755 0.0
C1465 C 0.86903 0.11594 0.96758 0.0
C1466 C 0.85981 0.12029 0.06061 0.0
C1467 C 0.85078 0.1011 0.0643 0.0
C1468 C 0.86193 0.12758 0.04058 0.0
C1469 C 0.85512 0.11578 0.02387 0.0
C1470 C 0.84575 0.09676 0.02763 0.0
C1471 C 0.84357 0.08951 0.04764 0.0
H1472 H 0.78192 0.63977 0.87447 0.0
H1473 H 0.76644 0.57693 0.88905 0.0
H1474 H 0.74869 0.65072 0.88521 0.0
H1475 H 0.7329 0.58806 0.90008 0.0
H1476 H 0.66807 0.61768 0.89342 0.0
H1477 H 0.70115 0.60336 0.88518 0.0
H1478 H 0.7299 0.6535 0.91746 0.0
H1479 H 0.69713 0.66788 0.9254 0.0
C1480 C 0.77142 0.62827 0.88003 0.0
C1481 C 0.77684 0.60748 0.88096 0.0
C1482 C 0.75239 0.63458 0.88632 0.0
C1483 C 0.73823 0.62028 0.89368 0.0
C1484 C 0.74349 0.59941 0.89441 0.0
C1485 C 0.76269 0.59307 0.88819 0.0
C1486 C 0.68147 0.62549 0.89893 0.0
C1487 C 0.68 0.64405 0.90983 0.0
C1488 C 0.70039 0.61725 0.89428 0.0
C1489 C 0.71811 0.62747 0.90044 0.0
C1490 C 0.71653 0.64549 0.91215 0.0
C1491 C 0.69772 0.65369 0.91676 0.0
H1492 H 0.27704 0.91145 0.10758 0.0
H1493 H 0.28203 0.84849 0.12765 0.0
H1494 H 0.24099 0.90612 0.10116 0.0
H1495 H 0.24607 0.84337 0.12161 0.0
H1496 H 0.17784 0.84402 0.11972 0.0
H1497 H 0.21021 0.8567 0.13308 0.0
H1498 H 0.22462 0.88154 0.07351 0.0
H1499 H 0.19266 0.86851 0.0601 0.0
C1500 C 0.27037 0.89663 0.11101 0.0
C1501 C 0.28237 0.88032 0.11792 0.0
C1502 C 0.24979 0.8936 0.10733 0.0
C1503 C 0.24079 0.87437 0.11097 0.0
C1504 C 0.25259 0.85841 0.1189 0.0
C1505 C 0.2732 0.8613 0.12217 0.0
C1506 C 0.18772 0.85267 0.10968 0.0
C1507 C 0.18289 0.8552 0.08887 0.0
C1508 C 0.20623 0.85981 0.11728 0.0
C1509 C 0.21988 0.87003 0.10428 0.0
C1510 C 0.21432 0.87386 0.08388 0.0
C1511 C 0.19609 0.86633 0.0762 0.0
H1512 H 0.89886 0.54259 0.85416 0.0
H1513 H 0.83589 0.5269 0.86152 0.0
H1514 H 0.90728 0.50656 0.853 0.0
H1515 H 0.84445 0.49038 0.85982 0.0
H1516 H 0.87436 0.4271 0.87686 0.0
H1517 H 0.86256 0.46272 0.87852 0.0
H1518 H 0.90292 0.47884 0.82907 0.0
H1519 H 0.91499 0.44383 0.82788 0.0
C1520 C 0.88674 0.53145 0.85536 0.0
C1521 C 0.86665 0.53769 0.85772 0.0
C1522 C 0.89159 0.51073 0.85461 0.0
C1523 C 0.8765 0.49561 0.856 0.0
C1524 C 0.85641 0.50171 0.85876 0.0
C1525 C 0.85151 0.5226 0.85963 0.0
C1526 C 0.88059 0.43833 0.86635 0.0
C1527 C 0.89583 0.43284 0.8525 0.0
C1528 C 0.87377 0.45864 0.86721 0.0
C1529 C 0.88206 0.47366 0.85415 0.0
C1530 C 0.89661 0.46779 0.83972 0.0
C1531 C 0.90349 0.44768 0.83899 0.0
H1532 H 0.23328 0.07573 0.61198 0.0
H1533 H 0.21616 0.13729 0.62919 0.0
H1534 H 0.26651 0.08861 0.60145 0.0
H1535 H 0.24911 0.14998 0.61866 0.0
H1536 H 0.29456 0.16619 0.56804 0.0
H1537 H 0.26403 0.15162 0.58242 0.0
H1538 H 0.29918 0.10776 0.61651 0.0
H1539 H 0.33028 0.12259 0.60208 0.0
C1540 C 0.23664 0.09194 0.61365 0.0
C1541 C 0.22204 0.10554 0.62121 0.0
C1542 C 0.25568 0.09924 0.60778 0.0
C1543 C 0.26028 0.12027 0.60917 0.0
C1544 C 0.24587 0.13371 0.61728 0.0
C1545 C 0.227 0.12643 0.6233 0.0
C1546 C 0.29592 0.15343 0.57858 0.0
C1547 C 0.31489 0.14553 0.58389 0.0
C1548 C 0.27839 0.14518 0.58691 0.0
C1549 C 0.27927 0.12866 0.60063 0.0
C1550 C 0.29815 0.12051 0.60591 0.0
C1551 C 0.31588 0.12904 0.59776 0.0
H1552 H 0.1128 0.9607 0.87074 0.0
H1553 H 0.17379 0.98189 0.86058 0.0
H1554 H 0.10042 0.9952 0.8655 0.0
H1555 H 0.16118 0.0168 0.85498 0.0
H1556 H 0.12969 0.07891 0.87306 0.0
H1557 H 0.14472 0.04475 0.87549 0.0
H1558 H 0.09675 0.02006 0.83787 0.0
H1559 H 0.08161 0.05389 0.83578 0.0
C1560 C 0.12358 0.97272 0.8672 0.0
C1561 C 0.14429 0.96858 0.86607 0.0
C1562 C 0.11644 0.99251 0.86408 0.0
C1563 C 0.12981 0.0087 0.85973 0.0
C1564 C 0.15055 0.00461 0.85844 0.0
C1565 C 0.15774 0.98465 0.8615 0.0
C1566 C 0.12242 0.06616 0.86531 0.0
C1567 C 0.10435 0.06899 0.85446 0.0
C1568 C 0.13111 0.04667 0.86655 0.0
C1569 C 0.12183 0.02973 0.85698 0.0
C1570 C 0.10407 0.03276 0.84568 0.0
C1571 C 0.09541 0.05215 0.84447 0.0
H1572 H 0.82782 0.37891 0.38734 0.0
H1573 H 0.80578 0.33314 0.42978 0.0
H1574 H 0.79305 0.38951 0.38039 0.0
H1575 H 0.77146 0.34394 0.42328 0.0
H1576 H 0.71404 0.34652 0.3877 0.0
H1577 H 0.74934 0.33983 0.39393 0.0
H1578 H 0.76169 0.405 0.39522 0.0
H1579 H 0.72599 0.41183 0.38852 0.0
C1580 C 0.8156 0.37137 0.39541 0.0
C1581 C 0.81947 0.355 0.40887 0.0
C1582 C 0.79573 0.37745 0.39147 0.0
C1583 C 0.77949 0.36728 0.40098 0.0
C1584 C 0.78358 0.35171 0.41527 0.0
C1585 C 0.80328 0.34559 0.41908 0.0
C1586 C 0.7242 0.3595 0.38924 0.0
C1587 C 0.71709 0.37974 0.38786 0.0
C1588 C 0.74448 0.35565 0.39293 0.0
C1589 C 0.75826 0.37189 0.3955 0.0
C1590 C 0.75141 0.39217 0.39333 0.0
C1591 C 0.73098 0.39606 0.38954 0.0
H1592 H 0.84113 0.47004 0.62136 0.0
H1593 H 0.89796 0.45948 0.65197 0.0
H1594 H 0.84876 0.50671 0.61988 0.0
H1595 H 0.90557 0.49601 0.65024 0.0
H1596 H 0.90082 0.56386 0.66602 0.0
H1597 H 0.8925 0.52754 0.66628 0.0
H1598 H 0.87287 0.53136 0.60326 0.0
H1599 H 0.88106 0.56801 0.60293 0.0
C1600 C 0.85525 0.47549 0.62773 0.0
C1601 C 0.86888 0.46178 0.63688 0.0
C1602 C 0.85966 0.49649 0.62674 0.0
C1603 C 0.87772 0.50423 0.63501 0.0
C1604 C 0.89141 0.49052 0.64398 0.0
C1605 C 0.88707 0.46955 0.64487 0.0
C1606 C 0.89471 0.55707 0.65217 0.0
C1607 C 0.8917 0.56892 0.6344 0.0
C1608 C 0.89005 0.53617 0.65232 0.0
C1609 C 0.88218 0.52657 0.63475 0.0
C1610 C 0.87882 0.5384 0.61706 0.0
C1611 C 0.8836 0.55936 0.61686 0.0
H1612 H 0.6014 0.53516 0.13013 0.0
H1613 H 0.66422 0.52465 0.14373 0.0
H1614 H 0.59555 0.49803 0.12872 0.0
H1615 H 0.65811 0.48749 0.1429 0.0
H1616 H 0.62251 0.42746 0.16889 0.0
H1617 H 0.63087 0.46411 0.16773 0.0
H1618 H 0.61303 0.46628 0.10415 0.0
H1619 H 0.6052 0.42942 0.10503 0.0
C1620 C 0.61392 0.52492 0.13285 0.0
C1621 C 0.63326 0.53274 0.13707 0.0
C1622 C 0.61058 0.50375 0.13193 0.0
C1623 C 0.62641 0.4901 0.13567 0.0
C1624 C 0.64573 0.49784 0.13994 0.0
C1625 C 0.64919 0.51902 0.14037 0.0
C1626 C 0.62053 0.43573 0.15462 0.0
C1627 C 0.61321 0.42565 0.13704 0.0
C1628 C 0.62538 0.4566 0.15397 0.0
C1629 C 0.62254 0.46781 0.13587 0.0
C1630 C 0.61531 0.45781 0.11825 0.0
C1631 C 0.61092 0.4368 0.11876 0.0
H1632 H 0.62957 0.71421 0.86175 0.0
H1633 H 0.61428 0.7356 0.92247 0.0
H1634 H 0.62155 0.74811 0.84784 0.0
H1635 H 0.60591 0.76908 0.90862 0.0
H1636 H 0.61486 0.83253 0.881 0.0
H1637 H 0.62308 0.79849 0.89392 0.0
H1638 H 0.59274 0.7709 0.84202 0.0
H1639 H 0.58487 0.805 0.82887 0.0
C1640 C 0.62442 0.7261 0.87208 0.0
C1641 C 0.62263 0.7223 0.89319 0.0
C1642 C 0.61973 0.74545 0.86413 0.0
C1643 C 0.6132 0.7613 0.87717 0.0
C1644 C 0.61124 0.75733 0.89822 0.0
C1645 C 0.61592 0.73808 0.90614 0.0
C1646 C 0.60992 0.8192 0.87237 0.0
C1647 C 0.5992 0.82141 0.85396 0.0
C1648 C 0.61456 0.7997 0.8798 0.0
C1649 C 0.60853 0.78199 0.869 0.0
C1650 C 0.5978 0.78424 0.85056 0.0
C1651 C 0.59317 0.80376 0.84312 0.0
H1652 H 0.53732 0.34943 0.10061 0.0
H1653 H 0.52939 0.37914 0.15936 0.0
H1654 H 0.50109 0.34952 0.09534 0.0
H1655 H 0.49294 0.37899 0.15406 0.0
H1656 H 0.43108 0.39492 0.12363 0.0
H1657 H 0.46718 0.39514 0.13102 0.0
H1658 H 0.47128 0.33237 0.11018 0.0
H1659 H 0.43546 0.33209 0.10261 0.0
C1660 C 0.52788 0.35596 0.11244 0.0
C1661 C 0.53632 0.36425 0.13044 0.0
C1662 C 0.50707 0.35589 0.10946 0.0
C1663 C 0.49417 0.36417 0.12433 0.0
C1664 C 0.50254 0.37262 0.14227 0.0
C1665 C 0.5234 0.37259 0.14534 0.0
C1666 C 0.43965 0.38114 0.12071 0.0
C1667 C 0.43034 0.36356 0.11235 0.0
C1668 C 0.46031 0.38125 0.12505 0.0
C1669 C 0.47207 0.36383 0.12101 0.0
C1670 C 0.46267 0.34614 0.11312 0.0
C1671 C 0.44209 0.34599 0.10887 0.0
H1672 H 0.88669 0.17063 0.37874 0.0
H1673 H 0.917 0.19763 0.32664 0.0
H1674 H 0.87992 0.20482 0.39222 0.0
H1675 H 0.91043 0.23186 0.34027 0.0
H1676 H 0.87292 0.28841 0.35998 0.0
H1677 H 0.88113 0.25455 0.34616 0.0
H1678 H 0.89828 0.23429 0.40675 0.0
H1679 H 0.88985 0.26787 0.42055 0.0
C1680 C 0.89202 0.18387 0.37024 0.0
C1681 C 0.90235 0.18148 0.35164 0.0
C1682 C 0.88822 0.20344 0.378 0.0
C1683 C 0.89463 0.22101 0.36728 0.0
C1684 C 0.90511 0.2186 0.34874 0.0
C1685 C 0.90898 0.19901 0.34102 0.0
C1686 C 0.87849 0.27671 0.37029 0.0
C1687 C 0.88065 0.28072 0.39133 0.0
C1688 C 0.88329 0.25739 0.36238 0.0
C1689 C 0.89026 0.24176 0.37541 0.0
C1690 C 0.89266 0.24593 0.39639 0.0
C1691 C 0.88793 0.2652 0.40427 0.0
H1692 H 0.96886 0.64568 0.5984 0.0
H1693 H 0.97537 0.61543 0.65702 0.0
H1694 H 0.00522 0.64603 0.59431 0.0
H1695 H 0.01203 0.61593 0.65284 0.0
H1696 H 0.07477 0.60078 0.62234 0.0
H1697 H 0.0386 0.60015 0.62951 0.0
H1698 H 0.03431 0.66358 0.61099 0.0
H1699 H 0.07015 0.66433 0.60374 0.0
C1700 C 0.97803 0.6391 0.61045 0.0
C1701 C 0.96916 0.63054 0.62807 0.0
C1702 C 0.9989 0.63943 0.60814 0.0
C1703 C 0.01146 0.63111 0.62331 0.0
C1704 C 0.00268 0.62236 0.64087 0.0
C1705 C 0.98172 0.62219 0.64329 0.0
C1706 C 0.06614 0.61463 0.61993 0.0
C1707 C 0.07539 0.63253 0.61224 0.0
C1708 C 0.04545 0.61428 0.62413 0.0
C1709 C 0.03363 0.63176 0.6206 0.0
C1710 C 0.04299 0.64978 0.61353 0.0
C1711 C 0.06359 0.65019 0.60945 0.0
H1712 H 0.6 0.2754 0.60848 0.0
H1713 H 0.65967 0.25704 0.59014 0.0
H1714 H 0.59364 0.24108 0.62206 0.0
H1715 H 0.65397 0.2232 0.6048 0.0
H1716 H 0.62992 0.15868 0.60623 0.0
H1717 H 0.63618 0.19385 0.59589 0.0
H1718 H 0.59978 0.21539 0.64643 0.0
H1719 H 0.59262 0.17985 0.65606 0.0
C1720 C 0.61193 0.26414 0.60787 0.0
C1721 C 0.63022 0.26871 0.59807 0.0
C1722 C 0.60834 0.24447 0.61569 0.0
C1723 C 0.62314 0.22915 0.61421 0.0
C1724 C 0.64193 0.23432 0.6056 0.0
C1725 C 0.64532 0.25377 0.59737 0.0
C1726 C 0.62323 0.17093 0.61511 0.0
C1727 C 0.61083 0.16653 0.63197 0.0
C1728 C 0.62698 0.19117 0.60932 0.0
C1729 C 0.61878 0.20761 0.6205 0.0
C1730 C 0.60622 0.20317 0.63733 0.0
C1731 C 0.60215 0.18282 0.6429 0.0
H1732 H 0.05292 0.32903 0.91761 0.0
H1733 H 0.0753 0.36904 0.86988 0.0
H1734 H 0.01899 0.33207 0.90389 0.0
H1735 H 0.04106 0.37231 0.85624 0.0
H1736 H 0.96082 0.36797 0.89312 0.0
H1737 H 0.99524 0.361 0.90336 0.0
H1738 H 0.01196 0.35275 0.83992 0.0
H1739 H 0.97714 0.35992 0.82951 0.0
C1740 C 0.05061 0.33843 0.90412 0.0
C1741 C 0.06673 0.34902 0.89497 0.0
C1742 C 0.03115 0.34019 0.89629 0.0
C1743 C 0.02733 0.35259 0.87913 0.0
C1744 C 0.04357 0.36255 0.86943 0.0
C1745 C 0.06312 0.3608 0.87732 0.0
C1746 C 0.97175 0.36456 0.8813 0.0
C1747 C 0.96627 0.3645 0.8605 0.0
C1748 C 0.99148 0.36044 0.8872 0.0
C1749 C 0.00629 0.35624 0.87245 0.0
C1750 C 0.00085 0.35604 0.8516 0.0
C1751 C 0.98095 0.36001 0.84567 0.0
H1752 H 0.84067 0.73701 0.08746 0.0
H1753 H 0.90024 0.7175 0.10509 0.0
H1754 H 0.84676 0.77031 0.10321 0.0
H1755 H 0.90696 0.75132 0.11981 0.0
H1756 H 0.90753 0.81113 0.15691 0.0
H1757 H 0.90079 0.77604 0.14535 0.0
H1758 H 0.86489 0.79978 0.09539 0.0
H1759 H 0.87071 0.83444 0.10763 0.0
C1760 C 0.85509 0.73992 0.09473 0.0
C1761 C 0.87004 0.72481 0.09495 0.0
C1762 C 0.8587 0.75906 0.10359 0.0
C1763 C 0.87755 0.76375 0.11238 0.0
C1764 C 0.89223 0.74828 0.11331 0.0
C1765 C 0.88843 0.72891 0.10483 0.0
C1766 C 0.89824 0.80873 0.14344 0.0
C1767 C 0.88948 0.82544 0.13326 0.0
C1768 C 0.89441 0.78865 0.13677 0.0
C1769 C 0.88203 0.78498 0.11959 0.0
C1770 C 0.87392 0.80188 0.10907 0.0
C1771 C 0.87742 0.82181 0.11596 0.0
H1772 H 0.444 0.67113 0.41435 0.0
H1773 H 0.42137 0.63361 0.36466 0.0
H1774 H 0.47809 0.6673 0.40144 0.0
H1775 H 0.4558 0.62943 0.35186 0.0
H1776 H 0.52054 0.64036 0.32702 0.0
H1777 H 0.48567 0.64782 0.33686 0.0
H1778 H 0.50124 0.6384 0.40048 0.0
H1779 H 0.53576 0.63127 0.3908 0.0
C1780 C 0.4463 0.66208 0.40062 0.0
C1781 C 0.43004 0.65245 0.39066 0.0
C1782 C 0.46586 0.65984 0.39325 0.0
C1783 C 0.46967 0.64786 0.37578 0.0
C1784 C 0.45332 0.63885 0.36531 0.0
C1785 C 0.43365 0.64112 0.3727 0.0
C1786 C 0.51647 0.64004 0.3431 0.0
C1787 C 0.53089 0.63527 0.35814 0.0
C1788 C 0.49652 0.64419 0.34871 0.0
C1789 C 0.49074 0.6438 0.36945 0.0
C1790 C 0.50526 0.63916 0.3844 0.0
C1791 C 0.52506 0.63495 0.37883 0.0
H1792 H 0.87465 0.61746 0.82242 0.0
H1793 H 0.82424 0.58451 0.79603 0.0
H1794 H 0.88977 0.62076 0.7885 0.0
H1795 H 0.83949 0.5876 0.76213 0.0
H1796 H 0.86005 0.62194 0.70404 0.0
H1797 H 0.84601 0.61573 0.7379 0.0
H1798 H 0.90514 0.6002 0.7606 0.0
H1799 H 0.91934 0.60668 0.72657 0.0
C1800 C 0.86685 0.61083 0.80938 0.0
C1801 C 0.8482 0.60084 0.81184 0.0
C1802 C 0.87559 0.61258 0.78999 0.0
C1803 C 0.86581 0.60446 0.77265 0.0
C1804 C 0.84727 0.59422 0.77518 0.0
C1805 C 0.83857 0.5924 0.79459 0.0
C1806 C 0.87008 0.61713 0.71621 0.0
C1807 C 0.89082 0.61487 0.71267 0.0
C1808 C 0.86199 0.61343 0.73559 0.0
C1809 C 0.87446 0.60745 0.7519 0.0
C1810 C 0.8952 0.60498 0.74834 0.0
C1811 C 0.9033 0.60858 0.72886 0.0
H1812 H 0.66923 0.60865 0.07066 0.0
H1813 H 0.60654 0.6202 0.08421 0.0
H1814 H 0.66436 0.62243 0.03614 0.0
H1815 H 0.60173 0.6335 0.04986 0.0
H1816 H 0.6071 0.68068 -0.00077 0.0
H1817 H 0.61253 0.66444 0.03213 0.0
H1818 H 0.64662 0.61638 0.00283 0.0
H1819 H 0.6415 0.63293 0.96956 0.0
C1820 C 0.65441 0.61394 0.06626 0.0
C1821 C 0.63835 0.61354 0.08032 0.0
C1822 C 0.65161 0.62172 0.04646 0.0
C1823 C 0.63271 0.62923 0.04037 0.0
C1824 C 0.61657 0.62821 0.05422 0.0
C1825 C 0.61935 0.62052 0.07393 0.0
C1826 C 0.61574 0.66663 -0.00034 0.0
C1827 C 0.6238 0.6581 0.98166 0.0
C1828 C 0.61875 0.65725 0.01857 0.0
C1829 C 0.62987 0.63904 0.02006 0.0
C1830 C 0.63807 0.63047 0.00215 0.0
C1831 C 0.63503 0.63989 0.9831 0.0
H1832 H 0.64078 0.38047 0.21259 0.0
H1833 H 0.57837 0.38519 0.23058 0.0
H1834 H 0.65111 0.38531 0.24827 0.0
H1835 H 0.58875 0.38982 0.26629 0.0
H1836 H 0.61713 0.36589 0.32742 0.0
H1837 H 0.60623 0.36517 0.29171 0.0
H1838 H 0.64933 0.41281 0.27713 0.0
H1839 H 0.6602 0.41376 0.31299 0.0
C1840 C 0.62929 0.3827 0.22414 0.0
C1841 C 0.60877 0.38235 0.21885 0.0
C1842 C 0.63521 0.38557 0.24451 0.0
C1843 C 0.6207 0.38784 0.25998 0.0
C1844 C 0.6002 0.38795 0.25463 0.0
C1845 C 0.59429 0.3854 0.23422 0.0
C1846 C 0.62429 0.37624 0.31664 0.0
C1847 C 0.63959 0.38983 0.32303 0.0
C1848 C 0.61793 0.37593 0.29624 0.0
C1849 C 0.62692 0.38898 0.28174 0.0
C1850 C 0.64222 0.40256 0.28804 0.0
C1851 C 0.64838 0.40312 0.30855 0.0
H1852 H 0.87997 0.35548 0.58864 0.0
H1853 H 0.84069 0.40353 0.5672 0.0
H1854 H 0.88586 0.34473 0.55354 0.0
H1855 H 0.84743 0.39354 0.5318 0.0
H1856 H 0.84913 0.35622 0.47163 0.0
H1857 H 0.84212 0.36885 0.50612 0.0
H1858 H 0.90314 0.3544 0.52421 0.0
H1859 H 0.90958 0.34072 0.49018 0.0
C1860 C 0.8727 0.36384 0.57636 0.0
C1861 C 0.85992 0.38037 0.58066 0.0
C1862 C 0.87623 0.35782 0.55617 0.0
C1863 C 0.86742 0.36846 0.53969 0.0
C1864 C 0.85435 0.38484 0.54404 0.0
C1865 C 0.85051 0.39062 0.56433 0.0
C1866 C 0.86106 0.356 0.48298 0.0
C1867 C 0.87982 0.34732 0.47836 0.0
C1868 C 0.85708 0.36327 0.50276 0.0
C1869 C 0.87193 0.36233 0.51817 0.0
C1870 C 0.89108 0.35474 0.51302 0.0
C1871 C 0.89488 0.34709 0.49344 0.0
H1872 H 0.90514 0.38542 0.7817 0.0
H1873 H 0.84236 0.39096 0.79825 0.0
H1874 H 0.89626 0.39036 0.74567 0.0
H1875 H 0.83352 0.39528 0.76246 0.0
H1876 H 0.8254 0.42386 0.70034 0.0
H1877 H 0.83642 0.4202 0.73577 0.0
H1878 H 0.8792 0.37402 0.71717 0.0
H1879 H 0.86858 0.37822 0.68159 0.0
C1880 C 0.88946 0.3875 0.77765 0.0
C1881 C 0.87449 0.3879 0.79288 0.0
C1882 C 0.88436 0.39028 0.75701 0.0
C1883 C 0.86419 0.39342 0.75118 0.0
C1884 C 0.84925 0.3934 0.76641 0.0
C1885 C 0.85433 0.39076 0.78697 0.0
C1886 C 0.83723 0.41302 0.70381 0.0
C1887 C 0.84604 0.40124 0.68824 0.0
C1888 C 0.84347 0.41081 0.72413 0.0
C1889 C 0.85855 0.39664 0.72936 0.0
C1890 C 0.86768 0.38519 0.71367 0.0
C1891 C 0.86152 0.38751 0.6933 0.0
H1892 H 0.8904 0.60765 0.92246 0.0
H1893 H 0.82576 0.61383 0.92702 0.0
H1894 H 0.89368 0.6153 0.95895 0.0
H1895 H 0.82918 0.62178 0.96358 0.0
H1896 H 0.85298 0.6656 0.01669 0.0
H1897 H 0.84656 0.65314 0.98202 0.0
H1898 H 0.88239 0.59943 0.99431 0.0
H1899 H 0.88855 0.61172 0.02933 0.0
C1900 C 0.8769 0.61062 0.93126 0.0
C1901 C 0.85783 0.6103 0.92187 0.0
C1902 C 0.87878 0.61479 0.95215 0.0
C1903 C 0.86168 0.61906 0.96397 0.0
C1904 C 0.84258 0.61854 0.9547 0.0
C1905 C 0.84065 0.61399 0.93385 0.0
C1906 C 0.8593 0.65102 0.0121 0.0
C1907 C 0.87134 0.63964 0.02564 0.0
C1908 C 0.85552 0.64385 0.99232 0.0
C1909 C 0.864 0.62537 0.98559 0.0
C1910 C 0.87574 0.61377 -0.00079 0.0
C1911 C 0.87922 0.62076 0.01918 0.0
H1912 H 0.64054 0.58098 0.2977 0.0
H1913 H 0.60332 0.63216 0.28006 0.0
H1914 H 0.64987 0.57562 0.2621 0.0
H1915 H 0.6135 0.62761 0.24441 0.0
H1916 H 0.62354 0.60477 0.17956 0.0
H1917 H 0.61136 0.60746 0.21468 0.0
H1918 H 0.67027 0.59019 0.23702 0.0
H1919 H 0.68196 0.58642 0.20192 0.0
C1920 C 0.63446 0.59118 0.28615 0.0
C1921 C 0.62133 0.60708 0.29161 0.0
C1922 C 0.63991 0.58821 0.26574 0.0
C1923 C 0.63271 0.60135 0.25031 0.0
C1924 C 0.61919 0.61702 0.25579 0.0
C1925 C 0.61341 0.61973 0.27622 0.0
C1926 C 0.63381 0.60143 0.19202 0.0
C1927 C 0.65367 0.59533 0.18806 0.0
C1928 C 0.62688 0.60312 0.21217 0.0
C1929 C 0.63979 0.59905 0.22879 0.0
C1930 C 0.65972 0.59301 0.22469 0.0
C1931 C 0.66651 0.59098 0.20455 0.0
H1932 H 0.63638 0.3258 0.51738 0.0
H1933 H 0.62041 0.38641 0.53864 0.0
H1934 H 0.64527 0.3399 0.48404 0.0
H1935 H 0.62898 0.40051 0.50501 0.0
H1936 H 0.66587 0.4205 0.44885 0.0
H1937 H 0.65851 0.4065 0.48277 0.0
H1938 H 0.62794 0.35492 0.45465 0.0
H1939 H 0.63557 0.36871 0.42081 0.0
C1940 C 0.63471 0.34214 0.5149 0.0
C1941 C 0.62765 0.35501 0.53058 0.0
C1942 C 0.63971 0.35019 0.49577 0.0
C1943 C 0.63775 0.37129 0.49189 0.0
C1944 C 0.63084 0.38421 0.50763 0.0
C1945 C 0.62581 0.37614 0.52681 0.0
C1946 C 0.65768 0.40612 0.44994 0.0
C1947 C 0.65129 0.39568 0.43222 0.0
C1948 C 0.65335 0.39819 0.46935 0.0
C1949 C 0.64261 0.37965 0.47136 0.0
C1950 C 0.63643 0.36912 0.45359 0.0
C1951 C 0.64073 0.37706 0.43421 0.0
H1952 H 0.7308 0.9203 0.61217 0.0
H1953 H 0.71596 0.8573 0.62675 0.0
H1954 H 0.76572 0.91013 0.60524 0.0
H1955 H 0.75046 0.84733 0.62 0.0
H1956 H 0.80657 0.83173 0.58526 0.0
H1957 H 0.77264 0.84487 0.58962 0.0
H1958 H 0.79607 0.89593 0.62475 0.0
H1959 H 0.83034 0.88281 0.62019 0.0
C1960 C 0.73497 0.90434 0.61386 0.0
C1961 C 0.72063 0.88959 0.61994 0.0
C1962 C 0.75493 0.89855 0.61 0.0
C1963 C 0.76076 0.87791 0.61194 0.0
C1964 C 0.74637 0.86328 0.61805 0.0
C1965 C 0.72659 0.86905 0.62204 0.0
C1966 C 0.80456 0.84582 0.59383 0.0
C1967 C 0.8211 0.85612 0.60259 0.0
C1968 C 0.7851 0.85332 0.59637 0.0
C1969 C 0.78169 0.87131 0.6077 0.0
C1970 C 0.79828 0.88207 0.61586 0.0
C1971 C 0.81784 0.8745 0.61337 0.0
H1972 H 0.21479 0.64143 0.3601 0.0
H1973 H 0.22523 0.58785 0.39758 0.0
H1974 H 0.2504 0.65062 0.36267 0.0
H1975 H 0.26091 0.59727 0.40033 0.0
H1976 H 0.3185 0.6362 0.41625 0.0
H1977 H 0.28271 0.62722 0.41522 0.0
H1978 H 0.28294 0.63338 0.34934 0.0
H1979 H 0.31876 0.64216 0.35023 0.0
C1980 C 0.22464 0.63174 0.36908 0.0
C1981 C 0.21725 0.61389 0.37861 0.0
C1982 C 0.24503 0.63694 0.37042 0.0
C1983 C 0.25837 0.62457 0.38158 0.0
C1984 C 0.25089 0.60708 0.39168 0.0
C1985 C 0.23052 0.60169 0.39007 0.0
C1986 C 0.31092 0.63564 0.40153 0.0
C1987 C 0.32145 0.63993 0.38331 0.0
C1988 C 0.29048 0.6304 0.40097 0.0
C1989 C 0.2801 0.6297 0.38222 0.0
C1990 C 0.29059 0.634 0.36401 0.0
C1991 C 0.3111 0.6389 0.36452 0.0
H1992 H 0.61822 0.06651 0.62597 0.0
H1993 H 0.57149 0.04545 0.66706 0.0
H1994 H 0.62955 0.03123 0.62143 0.0
H1995 H 0.58315 0.0103 0.66303 0.0
H1996 H 0.5935 0.94848 0.6341 0.0
H1997 H 0.58328 0.98402 0.63734 0.0
H1998 H 0.64574 0.003 0.63897 0.0
H1999 H 0.65606 0.96725 0.63516 0.0
C2000 C 0.61046 0.05434 0.63414 0.0
C2001 C 0.59389 0.05868 0.64677 0.0
C2002 C 0.61703 0.03415 0.63163 0.0
C2003 C 0.60719 0.01792 0.64176 0.0
C2004 C 0.59082 0.02239 0.65467 0.0
C2005 C 0.5842 0.04254 0.65709 0.0
C2006 C 0.60511 0.9602 0.63507 0.0
C2007 C 0.62562 0.95499 0.63448 0.0
C2008 C 0.59922 0.9806 0.63707 0.0
C2009 C 0.61367 0.99634 0.63869 0.0
C2010 C 0.63421 0.99124 0.63762 0.0
C2011 C 0.64013 0.97076 0.63548 0.0
H2012 H 0.18277 0.34908 0.91724 0.0
H2013 H 0.17186 0.38896 0.86548 0.0
H2014 H 0.2184 0.3584 0.9165 0.0
H2015 H 0.20755 0.39834 0.86493 0.0
H2016 H 0.26975 0.4241 0.8835 0.0
H2017 H 0.23383 0.41671 0.88797 0.0
H2018 H 0.24663 0.35185 0.89039 0.0
H2019 H 0.28245 0.35916 0.88572 0.0
C2020 C 0.18791 0.35995 0.90581 0.0
C2021 C 0.17446 0.3682 0.89134 0.0
C2022 C 0.20833 0.36521 0.90537 0.0
C2023 C 0.21568 0.37906 0.89066 0.0
C2024 C 0.20221 0.38774 0.87653 0.0
C2025 C 0.18182 0.38226 0.87677 0.0
C2026 C 0.26491 0.40829 0.88524 0.0
C2027 C 0.27887 0.39219 0.88421 0.0
C2028 C 0.24437 0.40408 0.88766 0.0
C2029 C 0.2375 0.38372 0.88944 0.0
C2030 C 0.25156 0.36769 0.88918 0.0
C2031 C 0.27203 0.37187 0.88644 0.0
H2032 H 0.37692 0.42311 0.63283 0.0
H2033 H 0.42675 0.44772 0.66793 0.0
H2034 H 0.36296 0.45738 0.62945 0.0
H2035 H 0.41259 0.48216 0.6647 0.0
H2036 H 0.39495 0.54065 0.62839 0.0
H2037 H 0.40793 0.50675 0.63641 0.0
H2038 H 0.34753 0.48544 0.64935 0.0
H2039 H 0.33443 0.51948 0.64105 0.0
C2040 C 0.38482 0.43584 0.63996 0.0
C2041 C 0.403 0.43277 0.65055 0.0
C2042 C 0.37672 0.45546 0.63816 0.0
C2043 C 0.38666 0.47246 0.64683 0.0
C2044 C 0.4047 0.46935 0.6577 0.0
C2045 C 0.41278 0.44967 0.65958 0.0
C2046 C 0.38442 0.52878 0.63306 0.0
C2047 C 0.36364 0.53267 0.63394 0.0
C2048 C 0.39189 0.5094 0.63781 0.0
C2049 C 0.37875 0.49343 0.64348 0.0
C2050 C 0.35799 0.49742 0.64482 0.0
C2051 C 0.3505 0.51689 0.64015 0.0
H2052 H 0.79136 0.13784 0.0807 0.0
H2053 H 0.77895 0.09759 0.13176 0.0
H2054 H 0.7557 0.14503 0.07729 0.0
H2055 H 0.74306 0.10558 0.12907 0.0
H2056 H 0.67717 0.11384 0.10835 0.0
H2057 H 0.71234 0.10275 0.11002 0.0
H2058 H 0.7317 0.16436 0.0947 0.0
H2059 H 0.6969 0.17498 0.09215 0.0
C2060 C 0.78096 0.13061 0.0913 0.0
C2061 C 0.78796 0.11736 0.10666 0.0
C2062 C 0.76048 0.13482 0.08944 0.0
C2063 C 0.74646 0.12625 0.10317 0.0
C2064 C 0.75339 0.11239 0.11815 0.0
C2065 C 0.77395 0.10788 0.11977 0.0
C2066 C 0.68903 0.12491 0.10528 0.0
C2067 C 0.68432 0.14522 0.09997 0.0
C2068 C 0.70916 0.11861 0.10634 0.0
C2069 C 0.72493 0.13258 0.10228 0.0
C2070 C 0.72004 0.15298 0.09735 0.0
C2071 C 0.70003 0.15915 0.09604 0.0
H2072 H 0.59419 0.0426 0.85556 0.0
H2073 H 0.65334 0.02959 0.88004 0.0
H2074 H 0.58637 0.00608 0.85529 0.0
H2075 H 0.64548 0.99295 0.87949 0.0
H2076 H 0.61566 0.93077 0.89466 0.0
H2077 H 0.62312 0.96743 0.89631 0.0
H2078 H 0.59713 0.97549 0.83614 0.0
H2079 H 0.58943 0.93895 0.83449 0.0
C2080 C 0.60554 0.03199 0.86092 0.0
C2081 C 0.62443 0.03909 0.86779 0.0
C2082 C 0.60107 0.01103 0.86064 0.0
C2083 C 0.61533 0.99664 0.86727 0.0
C2084 C 0.63411 0.0037 0.87444 0.0
C2085 C 0.63864 0.02469 0.87465 0.0
C2086 C 0.61147 0.94034 0.88179 0.0
C2087 C 0.60188 0.93186 0.86445 0.0
C2088 C 0.61587 0.96134 0.88271 0.0
C2089 C 0.6107 0.97434 0.86637 0.0
C2090 C 0.60107 0.9659 0.84909 0.0
C2091 C 0.59675 0.94492 0.84811 0.0
H2092 H 0.88832 0.06747 0.32574 0.0
H2093 H 0.89168 0.06991 0.39191 0.0
H2094 H 0.87781 0.03134 0.32771 0.0
H2095 H 0.88149 0.03397 0.39373 0.0
H2096 H 0.88758 0.9643 0.38625 0.0
H2097 H 0.8982 -0.00013 0.38169 0.0
H2098 H 0.84628 0.01095 0.34348 0.0
H2099 H 0.83537 0.9752 0.34824 0.0
C2100 C 0.88691 0.06029 0.34066 0.0
C2101 C 0.89085 0.07152 0.35867 0.0
C2102 C 0.88079 0.03971 0.34176 0.0
C2103 C 0.87893 0.02995 0.36086 0.0
C2104 C 0.88297 0.04114 0.37882 0.0
C2105 C 0.88872 0.06172 0.37775 0.0
C2106 C 0.87846 0.97424 0.37676 0.0
C2107 C 0.86058 0.96701 0.36768 0.0
C2108 C 0.88452 0.99461 0.37422 0.0
C2109 C 0.873 0.00809 0.36231 0.0
C2110 C 0.85544 0.00077 0.35266 0.0
C2111 C 0.84918 0.9804 0.35547 0.0
H2112 H 0.39496 0.27391 0.07576 0.0
H2113 H 0.37987 0.28882 0.13844 0.0
H2114 H 0.40353 0.23899 0.08628 0.0
H2115 H 0.38824 0.25402 0.14885 0.0
H2116 H 0.39191 0.17275 0.11219 0.0
H2117 H 0.38609 0.20762 0.09967 0.0
H2118 H 0.41829 0.23212 0.15192 0.0
H2119 H 0.4239 0.19743 0.1645 0.0
C2120 C 0.39348 0.26974 0.09176 0.0
C2121 C 0.38675 0.28411 0.10628 0.0
C2122 C 0.3983 0.24974 0.09775 0.0
C2123 C 0.39664 0.2438 0.11839 0.0
C2124 C 0.38996 0.25822 0.13288 0.0
C2125 C 0.38504 0.27813 0.12689 0.0
C2126 C 0.3979 0.1856 0.12086 0.0
C2127 C 0.40819 0.18238 0.13941 0.0
C2128 C 0.39464 0.20554 0.11367 0.0
C2129 C 0.40155 0.2226 0.12494 0.0
C2130 C 0.41248 0.21929 0.14309 0.0
C2131 C 0.41578 0.19941 0.15022 0.0
H2132 H 0.57437 0.6335 0.90637 0.0
H2133 H 0.55617 0.69372 0.88615 0.0
H2134 H 0.54262 0.61907 0.89325 0.0
H2135 H 0.52482 0.67923 0.87262 0.0
H2136 H 0.47617 0.64256 0.83839 0.0
H2137 H 0.51152 0.65127 0.84534 0.0
H2138 H 0.50533 0.62793 0.90693 0.0
H2139 H 0.46998 0.61968 0.90023 0.0
C2140 C 0.56382 0.64352 0.89868 0.0
C2141 C 0.5676 0.66472 0.89739 0.0
C2142 C 0.54569 0.63529 0.89126 0.0
C2143 C 0.53137 0.64807 0.88194 0.0
C2144 C 0.53571 0.66904 0.87959 0.0
C2145 C 0.55356 0.67733 0.88743 0.0
C2146 C 0.48248 0.63896 0.85328 0.0
C2147 C 0.47032 0.63059 0.86883 0.0
C2148 C 0.50264 0.64398 0.85724 0.0
C2149 C 0.51107 0.64021 0.87664 0.0
C2150 C 0.49922 0.6308 0.8918 0.0
C2151 C 0.47898 0.62623 0.888 0.0
H2152 H 0.12674 0.70655 0.64109 0.0
H2153 H 0.10983 0.72348 0.57939 0.0
H2154 H 0.11925 0.74121 0.65279 0.0
H2155 H 0.10213 0.75817 0.59119 0.0
H2156 H 0.08476 0.79865 0.67037 0.0
H2157 H 0.08999 0.76394 0.65749 0.0
H2158 H 0.12077 0.78857 0.60454 0.0
H2159 H 0.11534 0.82337 0.61733 0.0
C2160 C 0.12134 0.71765 0.63004 0.0
C2161 C 0.1189 0.71231 0.60932 0.0
C2162 C 0.11693 0.73746 0.63677 0.0
C2163 C 0.11008 0.75239 0.62291 0.0
C2164 C 0.10757 0.74703 0.60218 0.0
C2165 C 0.11188 0.72716 0.59546 0.0
C2166 C 0.09253 0.79667 0.65592 0.0
C2167 C 0.09973 0.81371 0.6449 0.0
C2168 C 0.09562 0.77679 0.64861 0.0
C2169 C 0.10589 0.77354 0.63008 0.0
C2170 C 0.11266 0.79062 0.6188 0.0
C2171 C 0.10965 0.81052 0.62617 0.0
H2172 H 0.02725 0.36095 0.33787 0.0
H2173 H 0.03079 0.38043 0.40111 0.0
H2174 H 0.99095 0.35496 0.34181 0.0
H2175 H 0.99462 0.37482 0.40486 0.0
H2176 H 0.92699 0.3716 0.40352 0.0
H2177 H 0.95902 0.38589 0.39106 0.0
H2178 H 0.97432 0.32692 0.36537 0.0
H2179 H 0.94269 0.3126 0.37815 0.0
C2180 C 0.0202 0.36442 0.35243 0.0
C2181 C 0.03184 0.37093 0.36926 0.0
C2182 C 0.99948 0.36098 0.35466 0.0
C2183 C 0.99003 0.36449 0.37361 0.0
C2184 C 0.00148 0.37223 0.39002 0.0
C2185 C 0.02221 0.37524 0.38793 0.0
C2186 C 0.93697 0.36191 0.39469 0.0
C2187 C 0.93254 0.34099 0.39191 0.0
C2188 C 0.95528 0.37004 0.38766 0.0
C2189 C 0.96911 0.35747 0.37733 0.0
C2190 C 0.96386 0.33699 0.37313 0.0
C2191 C 0.94584 0.32878 0.38054 0.0
H2192 H 0.42178 0.81914 0.3526 0.0
H2193 H 0.36176 0.82609 0.37731 0.0
H2194 H 0.41974 0.7823 0.35832 0.0
H2195 H 0.35974 0.78909 0.3828 0.0
H2196 H 0.37237 0.72396 0.40731 0.0
H2197 H 0.37488 0.76116 0.40362 0.0
H2198 H 0.40055 0.75346 0.3433 0.0
H2199 H 0.3983 0.71636 0.34698 0.0
C2200 C 0.40816 0.81286 0.3593 0.0
C2201 C 0.39188 0.82562 0.36437 0.0
C2202 C 0.40697 0.79171 0.36247 0.0
C2203 C 0.38953 0.7828 0.37085 0.0
C2204 C 0.37344 0.79555 0.37643 0.0
C2205 C 0.37458 0.81674 0.37319 0.0
C2206 C 0.37857 0.73018 0.39326 0.0
C2207 C 0.38514 0.71713 0.37745 0.0
C2208 C 0.37991 0.7515 0.39113 0.0
C2209 C 0.38797 0.76021 0.37321 0.0
C2210 C 0.39452 0.74719 0.35741 0.0
C2211 C 0.3931 0.72591 0.35949 0.0
H2212 H 0.03402 0.62859 0.10573 0.0
H2213 H 0.01807 0.63921 0.16906 0.0
H2214 H 0.0003 0.63825 0.09515 0.0
H2215 H 0.98409 0.64915 0.15834 0.0
H2216 H 0.91967 0.6384 0.12912 0.0
H2217 H 0.95352 0.63242 0.14277 0.0
H2218 H 0.97886 0.66864 0.0936 0.0
H2219 H 0.94531 0.67432 0.07986 0.0
C2220 C 0.02335 0.63316 0.1174 0.0
C2221 C 0.02871 0.63314 0.13823 0.0
C2222 C 0.00403 0.63882 0.11132 0.0
C2223 C 0.98954 0.64454 0.1259 0.0
C2224 C 0.99491 0.64468 0.14677 0.0
C2225 C 0.01437 0.63912 0.15288 0.0
C2226 C 0.93248 0.64523 0.12138 0.0
C2227 C 0.92985 0.6566 0.10328 0.0
C2228 C 0.95184 0.6419 0.12924 0.0
C2229 C 0.96887 0.64987 0.11911 0.0
C2230 C 0.96608 0.66197 0.10153 0.0
C2231 C 0.94682 0.66528 0.0937 0.0
H2232 H 0.10369 0.29011 0.84694 0.0
H2233 H 0.12749 0.28047 0.90793 0.0
H2234 H 0.10292 0.25307 0.84141 0.0
H2235 H 0.12643 0.24356 0.90243 0.0
H2236 H 0.14116 0.17985 0.87705 0.0
H2237 H 0.14293 0.21693 0.88173 0.0
H2238 H 0.08397 0.22304 0.85442 0.0
H2239 H 0.08221 0.18603 0.84946 0.0
C2240 C 0.10879 0.28014 0.85915 0.0
C2241 C 0.11563 0.2883 0.87788 0.0
C2242 C 0.10823 0.25892 0.85601 0.0
C2243 C 0.11458 0.24542 0.8715 0.0
C2244 C 0.12164 0.25358 0.89012 0.0
C2245 C 0.12213 0.27476 0.89329 0.0
C2246 C 0.12854 0.18906 0.87205 0.0
C2247 C 0.11154 0.1799 0.86288 0.0
C2248 C 0.12955 0.21031 0.87481 0.0
C2249 C 0.11361 0.22288 0.8684 0.0
C2250 C 0.09661 0.21377 0.85926 0.0
C2251 C 0.09556 0.19252 0.85656 0.0
H2252 H 0.58127 0.35542 0.63479 0.0
H2253 H 0.55443 0.31957 0.58602 0.0
H2254 H 0.54765 0.36199 0.64882 0.0
H2255 H 0.52117 0.32591 0.60007 0.0
H2256 H 0.46734 0.36753 0.61151 0.0
H2257 H 0.50109 0.35777 0.60133 0.0
H2258 H 0.51625 0.34523 0.66448 0.0
H2259 H 0.48211 0.35519 0.67485 0.0
C2260 C 0.56826 0.34871 0.62726 0.0
C2261 C 0.57047 0.33722 0.60915 0.0
C2262 C 0.54905 0.35239 0.63533 0.0
C2263 C 0.53179 0.34468 0.62537 0.0
C2264 C 0.53416 0.33238 0.60786 0.0
C2265 C 0.55325 0.32871 0.59985 0.0
C2266 C 0.47779 0.36264 0.62328 0.0
C2267 C 0.47204 0.36208 0.64399 0.0
C2268 C 0.49712 0.35693 0.61741 0.0
C2269 C 0.51127 0.35058 0.63209 0.0
C2270 C 0.50564 0.35012 0.65287 0.0
C2271 C 0.48611 0.3557 0.65876 0.0
H2272 H 0.14191 0.38115 0.29472 0.0
H2273 H 0.08193 0.39378 0.27239 0.0
H2274 H 0.15527 0.38591 0.26031 0.0
H2275 H 0.09542 0.39876 0.23785 0.0
H2276 H 0.12507 0.37853 0.17658 0.0
H2277 H 0.11079 0.37665 0.21102 0.0
H2278 H 0.16052 0.41286 0.23432 0.0
H2279 H 0.1749 0.41457 0.19996 0.0
C2280 C 0.13159 0.38512 0.28249 0.0
C2281 C 0.11086 0.38702 0.28623 0.0
C2282 C 0.13928 0.38795 0.26279 0.0
C2283 C 0.12639 0.39267 0.2464 0.0
C2284 C 0.10567 0.39492 0.25018 0.0
C2285 C 0.09798 0.39219 0.26995 0.0
C2286 C 0.13292 0.38611 0.18906 0.0
C2287 C 0.15115 0.39659 0.18563 0.0
C2288 C 0.12467 0.38517 0.20873 0.0
C2289 C 0.13455 0.3946 0.22535 0.0
C2290 C 0.15268 0.40526 0.22184 0.0
C2291 C 0.16088 0.40627 0.20217 0.0
H2292 H 0.3909 0.37286 0.92468 0.0
H2293 H 0.33209 0.39974 0.93338 0.0
H2294 H 0.39412 0.36844 0.96168 0.0
H2295 H 0.3353 0.39507 0.97022 0.0
H2296 H 0.35743 0.40461 0.03575 0.0
H2297 H 0.35551 0.40918 -0.00127 0.0
H2298 H 0.3788 0.34806 0.98977 0.0
H2299 H 0.38098 0.34348 0.02678 0.0
C2300 C 0.37863 0.37775 0.93442 0.0
C2301 C 0.36126 0.3867 0.926 0.0
C2302 C 0.38046 0.37513 0.95562 0.0
C2303 C 0.365 0.3815 0.96885 0.0
C2304 C 0.3476 0.3903 0.96044 0.0
C2305 C 0.34572 0.39284 0.93928 0.0
C2306 C 0.36223 0.39215 0.02592 0.0
C2307 C 0.36931 0.37365 0.03428 0.0
C2308 C 0.36102 0.39474 0.0047 0.0
C2309 C 0.36692 0.37894 0.99136 0.0
C2310 C 0.3743 0.36057 -0.00033 0.0
C2311 C 0.37543 0.35793 0.0209 0.0
H2312 H 0.38727 0.63707 0.67115 0.0
H2313 H 0.34813 0.58535 0.6839 0.0
H2314 H 0.3989 0.6367 0.70672 0.0
H2315 H 0.35975 0.58513 0.71937 0.0
H2316 H 0.36729 0.61133 0.78554 0.0
H2317 H 0.35666 0.60942 0.74977 0.0
H2318 H 0.41878 0.61258 0.73047 0.0
H2319 H 0.42951 0.61438 0.76638 0.0
C2320 C 0.3811 0.62569 0.68152 0.0
C2321 C 0.36672 0.61129 0.67469 0.0
C2322 C 0.3879 0.62538 0.70181 0.0
C2323 C 0.38025 0.61085 0.71573 0.0
C2324 C 0.36581 0.59655 0.70897 0.0
C2325 C 0.3592 0.59668 0.68864 0.0
C2326 C 0.3787 0.61142 0.77368 0.0
C2327 C 0.39923 0.61303 0.77872 0.0
C2328 C 0.37261 0.61026 0.75323 0.0
C2329 C 0.3869 0.61096 0.7374 0.0
C2330 C 0.40746 0.61221 0.74242 0.0
C2331 C 0.41359 0.61308 0.76293 0.0
H2332 H 0.14232 0.65818 0.52758 0.0
H2333 H 0.12448 0.59444 0.5322 0.0
H2334 H 0.14262 0.6553 0.49016 0.0
H2335 H 0.1243 0.59182 0.4947 0.0
H2336 H 0.10437 0.60727 0.42695 0.0
H2337 H 0.10293 0.6118 0.46422 0.0
H2338 H 0.16529 0.63074 0.46464 0.0
H2339 H 0.167 0.62571 0.42746 0.0
C2340 C 0.13831 0.64362 0.5206 0.0
C2341 C 0.1334 0.62651 0.53278 0.0
C2342 C 0.13855 0.642 0.49924 0.0
C2343 C 0.13342 0.62338 0.4897 0.0
C2344 C 0.12819 0.60636 0.5018 0.0
C2345 C 0.1284 0.60784 0.52319 0.0
C2346 C 0.11771 0.61261 0.43497 0.0
C2347 C 0.1358 0.61615 0.42433 0.0
C2348 C 0.11689 0.61505 0.45625 0.0
C2349 C 0.13401 0.62155 0.46715 0.0
C2350 C 0.1519 0.62577 0.45648 0.0
C2351 C 0.15286 0.62285 0.43528 0.0
H2352 H 0.09601 0.62718 0.21803 0.0
H2353 H 0.13243 0.57363 0.20684 0.0
H2354 H 0.10522 0.62615 0.2543 0.0
H2355 H 0.14084 0.57192 0.24306 0.0
H2356 H 0.17421 0.59033 0.30027 0.0
H2357 H 0.16185 0.59036 0.26534 0.0
H2358 H 0.10315 0.60918 0.28675 0.0
H2359 H 0.11601 0.61 0.32197 0.0
C2360 C 0.10567 0.61497 0.22342 0.0
C2361 C 0.11377 0.60068 0.2096 0.0
C2362 C 0.11088 0.61431 0.24421 0.0
C2363 C 0.12406 0.59915 0.25159 0.0
C2364 C 0.13117 0.5842 0.23785 0.0
C2365 C 0.12626 0.58508 0.21709 0.0
C2366 C 0.15865 0.59445 0.29756 0.0
C2367 C 0.14605 0.60012 0.31384 0.0
C2368 C 0.15148 0.5943 0.2775 0.0
C2369 C 0.13139 0.59949 0.27317 0.0
C2370 C 0.11874 0.60524 0.2895 0.0
C2371 C 0.12605 0.60564 0.30967 0.0
H2372 H 0.1641 0.40165 0.06649 0.0
H2373 H 0.11819 0.35654 0.08078 0.0
H2374 H 0.16103 0.39314 0.03014 0.0
H2375 H 0.11533 0.348 0.04441 0.0
H2376 H 0.13308 0.32442 0.97995 0.0
H2377 H 0.13804 0.33229 0.01627 0.0
H2378 H 0.13263 0.39699 0.00319 0.0
H2379 H 0.12745 0.38917 0.96688 0.0
C2380 C 0.15345 0.38984 0.06191 0.0
C2381 C 0.14134 0.3798 0.07653 0.0
C2382 C 0.15165 0.38507 0.04111 0.0
C2383 C 0.13795 0.36994 0.03454 0.0
C2384 C 0.12611 0.35963 0.04913 0.0
C2385 C 0.12768 0.36461 0.06991 0.0
C2386 C 0.13306 0.34033 0.98481 0.0
C2387 C 0.12983 0.35619 0.97062 0.0
C2388 C 0.13579 0.3448 0.00558 0.0
C2389 C 0.13567 0.36522 0.01247 0.0
C2390 C 0.13291 0.38112 0.99822 0.0
C2391 C 0.12986 0.37663 0.97749 0.0
H2392 H 0.37864 0.38444 0.82433 0.0
H2393 H 0.31944 0.39909 0.80133 0.0
H2394 H 0.39133 0.38281 0.78913 0.0
H2395 H 0.33169 0.39656 0.76642 0.0
H2396 H 0.36171 0.41436 0.70819 0.0
H2397 H 0.3519 0.41579 0.74396 0.0
H2398 H 0.39062 0.36431 0.75722 0.0
H2399 H 0.40116 0.36352 0.72129 0.0
C2400 C 0.36832 0.38703 0.81174 0.0
C2401 C 0.34813 0.39211 0.8155 0.0
C2402 C 0.37554 0.38603 0.79159 0.0
C2403 C 0.36261 0.38987 0.77491 0.0
C2404 C 0.34224 0.39414 0.77885 0.0
C2405 C 0.33515 0.39543 0.79888 0.0
C2406 C 0.3682 0.40338 0.71874 0.0
C2407 C 0.38203 0.38869 0.71191 0.0
C2408 C 0.36248 0.40411 0.73926 0.0
C2409 C 0.37014 0.38989 0.75344 0.0
C2410 C 0.38448 0.37554 0.74674 0.0
C2411 C 0.39047 0.37503 0.72616 0.0
H2412 H 0.37687 0.66928 0.4783 0.0
H2413 H 0.35192 0.61305 0.45404 0.0
H2414 H 0.37192 0.6567 0.51307 0.0
H2415 H 0.34506 0.60102 0.48862 0.0
H2416 H 0.35542 0.57389 0.55098 0.0
H2417 H 0.35964 0.58736 0.51661 0.0
H2418 H 0.35165 0.64907 0.53998 0.0
H2419 H 0.34934 0.63535 0.57466 0.0
C2420 C 0.36988 0.65438 0.48052 0.0
C2421 C 0.36492 0.64201 0.46365 0.0
C2422 C 0.36686 0.64716 0.50047 0.0
C2423 C 0.3582 0.62765 0.50394 0.0
C2424 C 0.3524 0.61578 0.4868 0.0
C2425 C 0.35609 0.62272 0.46691 0.0
C2426 C 0.35465 0.59034 0.54867 0.0
C2427 C 0.35214 0.60361 0.56536 0.0
C2428 C 0.35683 0.59814 0.52889 0.0
C2429 C 0.35583 0.61943 0.52519 0.0
C2430 C 0.35295 0.63266 0.54206 0.0
C2431 C 0.35146 0.62484 0.56198 0.0
H2432 H 0.19491 0.16696 0.42562 0.0
H2433 H 0.1666 0.11797 0.39117 0.0
H2434 H 0.22786 0.15312 0.41761 0.0
H2435 H 0.19991 0.10421 0.38282 0.0
H2436 H 0.26501 0.07769 0.38701 0.0
H2437 H 0.23124 0.08841 0.39761 0.0
H2438 H 0.24754 0.15163 0.386 0.0
H2439 H 0.28105 0.14106 0.37573 0.0
C2440 C 0.19571 0.15316 0.41638 0.0
C2441 C 0.17815 0.14368 0.40883 0.0
C2442 C 0.21463 0.14528 0.41172 0.0
C2443 C 0.2165 0.12776 0.39933 0.0
C2444 C 0.19893 0.11771 0.39245 0.0
C2445 C 0.17989 0.12562 0.39716 0.0
C2446 C 0.26133 0.09386 0.38679 0.0
C2447 C 0.27571 0.10854 0.38062 0.0
C2448 C 0.242 0.09997 0.39275 0.0
C2449 C 0.23678 0.12087 0.39279 0.0
C2450 C 0.25118 0.13545 0.3865 0.0
C2451 C 0.27038 0.12937 0.38049 0.0
H2452 H 0.77263 0.41957 0.59884 0.0
H2453 H 0.77656 0.36585 0.63741 0.0
H2454 H 0.7383 0.4096 0.58902 0.0
H2455 H 0.74237 0.35603 0.62772 0.0
H2456 H 0.67484 0.35171 0.61786 0.0
H2457 H 0.70588 0.36791 0.63056 0.0
H2458 H 0.72467 0.37952 0.56826 0.0
H2459 H 0.6939 0.36333 0.55561 0.0
C2460 C 0.76612 0.40575 0.60533 0.0
C2461 C 0.77732 0.3934 0.61875 0.0
C2462 C 0.74651 0.40006 0.59972 0.0
C2463 C 0.73767 0.38209 0.60769 0.0
C2464 C 0.7487 0.37009 0.62156 0.0
C2465 C 0.76835 0.37562 0.62693 0.0
C2466 C 0.68545 0.35807 0.60694 0.0
C2467 C 0.68208 0.35606 0.58576 0.0
C2468 C 0.70322 0.36722 0.61418 0.0
C2469 C 0.7177 0.37485 0.60037 0.0
C2470 C 0.71374 0.37389 0.57926 0.0
C2471 C 0.69618 0.36449 0.57203 0.0
H2472 H 0.3698 0.92619 0.35958 0.0
H2473 H 0.42722 0.95137 0.34089 0.0
H2474 H 0.35523 0.96062 0.35877 0.0
H2475 H 0.41311 0.98559 0.34093 0.0
H2476 H 0.38134 0.04224 0.3239 0.0
H2477 H 0.39117 0.0064 0.32199 0.0
H2478 H 0.35544 0.99319 0.37585 0.0
H2479 H 0.34482 0.02903 0.37706 0.0
C2480 C 0.37932 0.93911 0.35548 0.0
C2481 C 0.39959 0.93615 0.35019 0.0
C2482 C 0.37101 0.95882 0.35507 0.0
C2483 C 0.38292 0.97588 0.34953 0.0
C2484 C 0.40331 0.97279 0.34468 0.0
C2485 C 0.41148 0.95317 0.34484 0.0
C2486 C 0.37539 0.0316 0.33516 0.0
C2487 C 0.36253 0.0384 0.35076 0.0
C2488 C 0.38113 0.01108 0.33419 0.0
C2489 C 0.37449 0.99697 0.34906 0.0
C2490 C 0.36079 0.0036 0.3641 0.0
C2491 C 0.35474 0.02413 0.36484 0.0
H2492 H 0.80527 0.63022 0.05339 0.0
H2493 H 0.82469 0.64454 0.11502 0.0
H2494 H 0.77431 0.61512 0.06678 0.0
H2495 H 0.79341 0.6295 0.12847 0.0
H2496 H 0.72241 0.63212 0.13495 0.0
H2497 H 0.75662 0.64162 0.1248 0.0
H2498 H 0.76101 0.58597 0.08912 0.0
H2499 H 0.7268 0.57635 0.09937 0.0
C2500 C 0.80302 0.62985 0.06985 0.0
C2501 C 0.81729 0.63867 0.08318 0.0
C2502 C 0.78535 0.62111 0.0775 0.0
C2503 C 0.78143 0.62127 0.09863 0.0
C2504 C 0.79604 0.62934 0.11208 0.0
C2505 C 0.81396 0.63779 0.10442 0.0
C2506 C 0.73071 0.62187 0.12502 0.0
C2507 C 0.72189 0.60357 0.11782 0.0
C2508 C 0.75035 0.62721 0.11939 0.0
C2509 C 0.76146 0.61449 0.10625 0.0
C2510 C 0.75273 0.59607 0.09924 0.0
C2511 C 0.73318 0.59059 0.10509 0.0
H2512 H 0.58107 0.55314 0.33517 0.0
H2513 H 0.62866 0.57869 0.37275 0.0
H2514 H 0.59649 0.51945 0.3375 0.0
H2515 H 0.64394 0.5447 0.37543 0.0
H2516 H 0.67372 0.48217 0.36152 0.0
H2517 H 0.66083 0.51688 0.35538 0.0
H2518 H 0.60014 0.49471 0.36517 0.0
H2519 H 0.61281 0.4604 0.37093 0.0
C2520 C 0.59481 0.55155 0.34398 0.0
C2521 C 0.60353 0.56848 0.35399 0.0
C2522 C 0.60363 0.53224 0.34532 0.0
C2523 C 0.62134 0.5294 0.35677 0.0
C2524 C 0.63039 0.54646 0.36636 0.0
C2525 C 0.62154 0.56585 0.36498 0.0
C2526 C 0.65764 0.48477 0.36217 0.0
C2527 C 0.64429 0.4686 0.36671 0.0
C2528 C 0.65028 0.50461 0.35878 0.0
C2529 C 0.62947 0.50847 0.35973 0.0
C2530 C 0.61621 0.49218 0.36401 0.0
C2531 C 0.62352 0.47251 0.36745 0.0
H2532 H 0.22609 0.91081 0.88497 0.0
H2533 H 0.21295 0.84573 0.88689 0.0
H2534 H 0.26184 0.90349 0.89117 0.0
H2535 H 0.24822 0.83862 0.89277 0.0
H2536 H 0.30386 0.83275 0.92977 0.0
H2537 H 0.27005 0.84484 0.92291 0.0
H2538 H 0.293 0.88525 0.87585 0.0
H2539 H 0.32738 0.87323 0.88302 0.0
C2540 C 0.23081 0.89499 0.88648 0.0
C2541 C 0.21658 0.87889 0.88576 0.0
C2542 C 0.25126 0.89083 0.88998 0.0
C2543 C 0.25773 0.87052 0.89285 0.0
C2544 C 0.24362 0.85447 0.89115 0.0
C2545 C 0.22336 0.85858 0.8877 0.0
C2546 C 0.30181 0.84435 0.91806 0.0
C2547 C 0.31823 0.85181 0.9067 0.0
C2548 C 0.2824 0.85123 0.91409 0.0
C2549 C 0.27883 0.86564 0.89852 0.0
C2550 C 0.29534 0.87407 0.88789 0.0
C2551 C 0.31496 0.86719 0.89197 0.0
H2552 H 0.3877 0.9618 0.13544 0.0
H2553 H 0.32559 0.98097 0.13201 0.0
H2554 H 0.3984 0.99769 0.13786 0.0
H2555 H 0.33638 0.01689 0.13419 0.0
H2556 H 0.36907 0.07613 0.1096 0.0
H2557 H 0.35719 0.04053 0.10993 0.0
H2558 H 0.39428 0.02829 0.16286 0.0
H2559 H 0.40606 0.06386 0.16276 0.0
C2560 C 0.37634 0.97368 0.13534 0.0
C2561 C 0.35582 0.96862 0.13351 0.0
C2562 C 0.38246 0.99418 0.13679 0.0
C2563 C 0.3682 0.01 0.13612 0.0
C2564 C 0.34766 0.00495 0.13458 0.0
C2565 C 0.34151 0.98442 0.13347 0.0
C2566 C 0.37466 0.06587 0.12134 0.0
C2567 C 0.38854 0.07282 0.13612 0.0
C2568 C 0.36776 0.04556 0.12159 0.0
C2569 C 0.37484 0.03173 0.13642 0.0
C2570 C 0.38868 0.03864 0.15121 0.0
C2571 C 0.39534 0.05902 0.15117 0.0
H2572 H 0.1073 0.92709 0.60407 0.0
H2573 H 0.12102 0.92584 0.66885 0.0
H2574 H 0.11592 0.96371 0.60304 0.0
H2575 H 0.13017 0.96231 0.66757 0.0
H2576 H 0.16505 0.02256 0.64513 0.0
H2577 H 0.15888 0.98534 0.64459 0.0
H2578 H 0.09763 0.99575 0.62525 0.0
H2579 H 0.1035 0.03285 0.62635 0.0
C2580 C 0.11239 0.93457 0.618 0.0
C2581 C 0.11342 0.92368 0.63656 0.0
C2582 C 0.11726 0.95546 0.61739 0.0
C2583 C 0.12374 0.96562 0.63521 0.0
C2584 C 0.12532 0.95467 0.65364 0.0
C2585 C 0.11999 0.9339 0.65437 0.0
C2586 C 0.15032 0.01686 0.64067 0.0
C2587 C 0.13472 0.03052 0.63585 0.0
C2588 C 0.1468 0.99566 0.64043 0.0
C2589 C 0.12782 0.98788 0.63484 0.0
C2590 C 0.1124 0.00149 0.62951 0.0
C2591 C 0.11575 0.02264 0.63024 0.0
loop_
_geom_bond_atom_site_label_1
_geom_bond_atom_site_label_2
_geom_bond_distance
_geom_bond_site_symmetry_2
_ccdc_geom_bond_type
Co0 O1 2.216 . S
Co0 O2 2.091 . S
Co0 O4 2.004 . S
Co0 O10 2.021 . S
Co0 O12 2.137 . S
Co0 O13 2.244 . S
O1 Co0 2.216 . S
O1 C8 1.247 . S
O2 Co0 2.091 . S
O2 C8 1.261 . S
C3 O12 1.247 . S
C3 O13 1.272 . S
O4 Co0 2.004 . S
O4 C9 1.259 . S
Co5 O6 2.061 . S
Co5 O11 2.052 . S
Co5 O13 2.135 . S
O6 Co5 2.061 . S
O6 C9 1.235 . S
C7 O10 1.238 . S
C7 O11 1.241 . S
C8 O1 1.247 . S
C8 O2 1.261 . S
C9 O4 1.259 . S
C9 O6 1.235 . S
O10 Co0 2.021 . S
O10 C7 1.238 . S
O11 Co5 2.052 . S
O11 C7 1.241 . S
O12 Co0 2.137 . S
O12 C3 1.247 . S
O13 Co0 2.244 . S
O13 C3 1.272 . S
O13 Co5 2.135 . S
Co14 O15 2.216 . S
Co14 O16 2.091 . S
Co14 O18 2.004 . S
Co14 O24 2.021 . S
Co14 O26 2.137 . S
Co14 O27 2.244 . S
O15 Co14 2.216 . S
O15 C22 1.247 . S
O16 Co14 2.091 . S
O16 C22 1.261 . S
C17 O26 1.247 . S
C17 O27 1.272 . S
O18 Co14 2.004 . S
O18 C23 1.259 . S
Co19 O20 2.061 . S
Co19 O25 2.052 . S
Co19 O27 2.135 . S
O20 Co19 2.061 . S
O20 C23 1.235 . S
C21 O24 1.238 . S
C21 O25 1.241 . S
C22 O15 1.247 . S
C22 O16 1.261 . S
C23 O18 1.259 . S
C23 O20 1.235 . S
O24 Co14 2.021 . S
O24 C21 1.238 . S
O25 Co19 2.052 . S
O25 C21 1.241 . S
O26 Co14 2.137 . S
O26 C17 1.247 . S
O27 Co14 2.244 . S
O27 C17 1.272 . S
O27 Co19 2.135 . S
Co28 O29 2.216 . S
Co28 O30 2.091 . S
Co28 O32 2.004 . S
Co28 O38 2.021 . S
Co28 O40 2.137 . S
Co28 O41 2.244 . S
O29 Co28 2.216 . S
O29 C36 1.247 . S
O30 Co28 2.091 . S
O30 C36 1.261 . S
C31 O40 1.247 . S
C31 O41 1.272 . S
O32 Co28 2.004 . S
O32 C37 1.259 . S
Co33 O34 2.061 . S
Co33 O39 2.052 . S
Co33 O41 2.135 . S
O34 Co33 2.061 . S
O34 C37 1.235 . S
C35 O38 1.238 . S
C35 O39 1.241 . S
C36 O29 1.247 . S
C36 O30 1.261 . S
C37 O32 1.259 . S
C37 O34 1.235 . S
O38 Co28 2.021 . S
O38 C35 1.238 . S
O39 Co33 2.052 . S
O39 C35 1.241 . S
O40 Co28 2.137 . S
O40 C31 1.247 . S
O41 Co28 2.244 . S
O41 C31 1.272 . S
O41 Co33 2.135 . S
Co42 O43 2.216 . S
Co42 O44 2.091 . S
Co42 O46 2.004 . S
Co42 O52 2.021 . S
Co42 O54 2.137 . S
Co42 O55 2.244 . S
O43 Co42 2.216 . S
O43 C50 1.247 . S
O44 Co42 2.091 . S
O44 C50 1.261 . S
C45 O54 1.247 . S
C45 O55 1.272 . S
O46 Co42 2.004 . S
O46 C51 1.259 . S
Co47 O48 2.061 . S
Co47 O53 2.052 . S
Co47 O55 2.135 . S
O48 Co47 2.061 . S
O48 C51 1.235 . S
C49 O52 1.238 . S
C49 O53 1.241 . S
C50 O43 1.247 . S
C50 O44 1.261 . S
C51 O46 1.259 . S
C51 O48 1.235 . S
O52 Co42 2.021 . S
O52 C49 1.238 . S
O53 Co47 2.052 . S
O53 C49 1.241 . S
O54 Co42 2.137 . S
O54 C45 1.247 . S
O55 Co42 2.244 . S
O55 C45 1.272 . S
O55 Co47 2.135 . S
Co56 O57 2.216 . S
Co56 O58 2.091 . S
Co56 O60 2.004 . S
Co56 O66 2.021 . S
Co56 O68 2.137 . S
Co56 O69 2.244 . S
O57 Co56 2.216 . S
O57 C64 1.247 . S
O58 Co56 2.091 . S
O58 C64 1.261 . S
C59 O68 1.247 . S
C59 O69 1.272 . S
O60 Co56 2.004 . S
O60 C65 1.259 . S
Co61 O62 2.061 . S
Co61 O67 2.052 . S
Co61 O69 2.135 . S
O62 Co61 2.061 . S
O62 C65 1.235 . S
C63 O66 1.238 . S
C63 O67 1.241 . S
C64 O57 1.247 . S
C64 O58 1.261 . S
C65 O60 1.259 . S
C65 O62 1.235 . S
O66 Co56 2.021 . S
O66 C63 1.238 . S
O67 Co61 2.052 . S
O67 C63 1.241 . S
O68 Co56 2.137 . S
O68 C59 1.247 . S
O69 Co56 2.244 . S
O69 C59 1.272 . S
O69 Co61 2.135 . S
Co70 O71 2.216 . S
Co70 O72 2.091 . S
Co70 O74 2.004 . S
Co70 O80 2.021 . S
Co70 O82 2.137 . S
Co70 O83 2.244 . S
O71 Co70 2.216 . S
O71 C78 1.247 . S
O72 Co70 2.091 . S
O72 C78 1.261 . S
C73 O82 1.247 . S
C73 O83 1.272 . S
O74 Co70 2.004 . S
O74 C79 1.259 . S
Co75 O76 2.061 . S
Co75 O81 2.052 . S
Co75 O83 2.135 . S
O76 Co75 2.061 . S
O76 C79 1.235 . S
C77 O80 1.238 . S
C77 O81 1.241 . S
C78 O71 1.247 . S
C78 O72 1.261 . S
C79 O74 1.259 . S
C79 O76 1.235 . S
O80 Co70 2.021 . S
O80 C77 1.238 . S
O81 Co75 2.052 . S
O81 C77 1.241 . S
O82 Co70 2.137 . S
O82 C73 1.247 . S
O83 Co70 2.244 . S
O83 C73 1.272 . S
O83 Co75 2.135 . S
Co84 O85 2.216 . S
Co84 O86 2.091 . S
Co84 O88 2.004 . S
Co84 O94 2.021 . S
Co84 O96 2.137 . S
Co84 O97 2.244 . S
O85 Co84 2.216 . S
O85 C92 1.247 . S
O86 Co84 2.091 . S
O86 C92 1.261 . S
C87 O96 1.247 . S
C87 O97 1.272 . S
O88 Co84 2.004 . S
O88 C93 1.259 . S
Co89 O90 2.061 . S
Co89 O95 2.052 . S
Co89 O97 2.135 . S
O90 Co89 2.061 . S
O90 C93 1.235 . S
C91 O94 1.238 . S
C91 O95 1.241 . S
C92 O85 1.247 . S
C92 O86 1.261 . S
C93 O88 1.259 . S
C93 O90 1.235 . S
O94 Co84 2.021 . S
O94 C91 1.238 . S
O95 Co89 2.052 . S
O95 C91 1.241 . S
O96 Co84 2.137 . S
O96 C87 1.247 . S
O97 Co84 2.244 . S
O97 C87 1.272 . S
O97 Co89 2.135 . S
Co98 O99 2.216 . S
Co98 O100 2.091 . S
Co98 O102 2.004 . S
Co98 O108 2.021 . S
Co98 O110 2.137 . S
Co98 O111 2.244 . S
O99 Co98 2.216 . S
O99 C106 1.247 . S
O100 Co98 2.091 . S
O100 C106 1.261 . S
C101 O110 1.247 . S
C101 O111 1.272 . S
O102 Co98 2.004 . S
O102 C107 1.259 . S
Co103 O104 2.061 . S
Co103 O109 2.052 . S
Co103 O111 2.135 . S
O104 Co103 2.061 . S
O104 C107 1.235 . S
C105 O108 1.238 . S
C105 O109 1.241 . S
C106 O99 1.247 . S
C106 O100 1.261 . S
C107 O102 1.259 . S
C107 O104 1.235 . S
O108 Co98 2.021 . S
O108 C105 1.238 . S
O109 Co103 2.052 . S
O109 C105 1.241 . S
O110 Co98 2.137 . S
O110 C101 1.247 . S
O111 Co98 2.244 . S
O111 C101 1.272 . S
O111 Co103 2.135 . S
Co112 O113 2.216 . S
Co112 O114 2.091 . S
Co112 O116 2.004 . S
Co112 O122 2.021 . S
Co112 O124 2.137 . S
Co112 O125 2.244 . S
O113 Co112 2.216 . S
O113 C120 1.247 . S
O114 Co112 2.091 . S
O114 C120 1.261 . S
C115 O124 1.247 . S
C115 O125 1.272 . S
O116 Co112 2.004 . S
O116 C121 1.259 . S
Co117 O118 2.061 . S
Co117 O123 2.052 . S
Co117 O125 2.135 . S
O118 Co117 2.061 . S
O118 C121 1.235 . S
C119 O122 1.238 . S
C119 O123 1.241 . S
C120 O113 1.247 . S
C120 O114 1.261 . S
C121 O116 1.259 . S
C121 O118 1.235 . S
O122 Co112 2.021 . S
O122 C119 1.238 . S
O123 Co117 2.052 . S
O123 C119 1.241 . S
O124 Co112 2.137 . S
O124 C115 1.247 . S
O125 Co112 2.244 . S
O125 C115 1.272 . S
O125 Co117 2.135 . S
Co126 O127 2.216 . S
Co126 O128 2.091 . S
Co126 O130 2.004 . S
Co126 O136 2.021 . S
Co126 O138 2.137 . S
Co126 O139 2.244 . S
O127 Co126 2.216 . S
O127 C134 1.247 . S
O128 Co126 2.091 . S
O128 C134 1.261 . S
C129 O138 1.247 . S
C129 O139 1.272 . S
O130 Co126 2.004 . S
O130 C135 1.259 . S
Co131 O132 2.061 . S
Co131 O137 2.052 . S
Co131 O139 2.135 . S
O132 Co131 2.061 . S
O132 C135 1.235 . S
C133 O136 1.238 . S
C133 O137 1.241 . S
C134 O127 1.247 . S
C134 O128 1.261 . S
C135 O130 1.259 . S
C135 O132 1.235 . S
O136 Co126 2.021 . S
O136 C133 1.238 . S
O137 Co131 2.052 . S
O137 C133 1.241 . S
O138 Co126 2.137 . S
O138 C129 1.247 . S
O139 Co126 2.244 . S
O139 C129 1.272 . S
O139 Co131 2.135 . S
Co140 O141 2.216 . S
Co140 O142 2.091 . S
Co140 O144 2.004 . S
Co140 O150 2.021 . S
Co140 O152 2.137 . S
Co140 O153 2.244 . S
O141 Co140 2.216 . S
O141 C148 1.247 . S
O142 Co140 2.091 . S
O142 C148 1.261 . S
C143 O152 1.247 . S
C143 O153 1.272 . S
O144 Co140 2.004 . S
O144 C149 1.259 . S
Co145 O146 2.061 . S
Co145 O151 2.052 . S
Co145 O153 2.135 . S
O146 Co145 2.061 . S
O146 C149 1.235 . S
C147 O150 1.238 . S
C147 O151 1.241 . S
C148 O141 1.247 . S
C148 O142 1.261 . S
C149 O144 1.259 . S
C149 O146 1.235 . S
O150 Co140 2.021 . S
O150 C147 1.238 . S
O151 Co145 2.052 . S
O151 C147 1.241 . S
O152 Co140 2.137 . S
O152 C143 1.247 . S
O153 Co140 2.244 . S
O153 C143 1.272 . S
O153 Co145 2.135 . S
Co154 O155 2.216 . S
Co154 O156 2.091 . S
Co154 O158 2.004 . S
Co154 O164 2.021 . S
Co154 O166 2.137 . S
Co154 O167 2.244 . S
O155 Co154 2.216 . S
O155 C162 1.247 . S
O156 Co154 2.091 . S
O156 C162 1.261 . S
C157 O166 1.247 . S
C157 O167 1.272 . S
O158 Co154 2.004 . S
O158 C163 1.259 . S
Co159 O160 2.061 . S
Co159 O165 2.052 . S
Co159 O167 2.135 . S
O160 Co159 2.061 . S
O160 C163 1.235 . S
C161 O164 1.238 . S
C161 O165 1.241 . S
C162 O155 1.247 . S
C162 O156 1.261 . S
C163 O158 1.259 . S
C163 O160 1.235 . S
O164 Co154 2.021 . S
O164 C161 1.238 . S
O165 Co159 2.052 . S
O165 C161 1.241 . S
O166 Co154 2.137 . S
O166 C157 1.247 . S
O167 Co154 2.244 . S
O167 C157 1.272 . S
O167 Co159 2.135 . S
Co168 O169 2.216 . S
Co168 O170 2.091 . S
Co168 O172 2.004 . S
Co168 O178 2.021 . S
Co168 O180 2.137 . S
Co168 O181 2.244 . S
O169 Co168 2.216 . S
O169 C176 1.247 . S
O170 Co168 2.091 . S
O170 C176 1.261 . S
C171 O180 1.247 . S
C171 O181 1.272 . S
O172 Co168 2.004 . S
O172 C177 1.259 . S
Co173 O174 2.061 . S
Co173 O179 2.052 . S
Co173 O181 2.135 . S
O174 Co173 2.061 . S
O174 C177 1.235 . S
C175 O178 1.238 . S
C175 O179 1.241 . S
C176 O169 1.247 . S
C176 O170 1.261 . S
C177 O172 1.259 . S
C177 O174 1.235 . S
O178 Co168 2.021 . S
O178 C175 1.238 . S
O179 Co173 2.052 . S
O179 C175 1.241 . S
O180 Co168 2.137 . S
O180 C171 1.247 . S
O181 Co168 2.244 . S
O181 C171 1.272 . S
O181 Co173 2.135 . S
Co182 O183 2.216 . S
Co182 O184 2.091 . S
Co182 O186 2.004 . S
Co182 O192 2.021 . S
Co182 O194 2.137 . S
Co182 O195 2.244 . S
O183 Co182 2.216 . S
O183 C190 1.247 . S
O184 Co182 2.091 . S
O184 C190 1.261 . S
C185 O194 1.247 . S
C185 O195 1.272 . S
O186 Co182 2.004 . S
O186 C191 1.259 . S
Co187 O188 2.061 . S
Co187 O193 2.052 . S
Co187 O195 2.135 . S
O188 Co187 2.061 . S
O188 C191 1.235 . S
C189 O192 1.238 . S
C189 O193 1.241 . S
C190 O183 1.247 . S
C190 O184 1.261 . S
C191 O186 1.259 . S
C191 O188 1.235 . S
O192 Co182 2.021 . S
O192 C189 1.238 . S
O193 Co187 2.052 . S
O193 C189 1.241 . S
O194 Co182 2.137 . S
O194 C185 1.247 . S
O195 Co182 2.244 . S
O195 C185 1.272 . S
O195 Co187 2.135 . S
Co196 O197 2.216 . S
Co196 O198 2.091 . S
Co196 O200 2.004 . S
Co196 O206 2.021 . S
Co196 O208 2.137 . S
Co196 O209 2.244 . S
O197 Co196 2.216 . S
O197 C204 1.247 . S
O198 Co196 2.091 . S
O198 C204 1.261 . S
C199 O208 1.247 . S
C199 O209 1.272 . S
O200 Co196 2.004 . S
O200 C205 1.259 . S
Co201 O202 2.061 . S
Co201 O207 2.052 . S
Co201 O209 2.135 . S
O202 Co201 2.061 . S
O202 C205 1.235 . S
C203 O206 1.238 . S
C203 O207 1.241 . S
C204 O197 1.247 . S
C204 O198 1.261 . S
C205 O200 1.259 . S
C205 O202 1.235 . S
O206 Co196 2.021 . S
O206 C203 1.238 . S
O207 Co201 2.052 . S
O207 C203 1.241 . S
O208 Co196 2.137 . S
O208 C199 1.247 . S
O209 Co196 2.244 . S
O209 C199 1.272 . S
O209 Co201 2.135 . S
Co210 O211 2.216 . S
Co210 O212 2.091 . S
Co210 O214 2.004 . S
Co210 O220 2.021 . S
Co210 O222 2.137 . S
Co210 O223 2.244 . S
O211 Co210 2.216 . S
O211 C218 1.247 . S
O212 Co210 2.091 . S
O212 C218 1.261 . S
C213 O222 1.247 . S
C213 O223 1.272 . S
O214 Co210 2.004 . S
O214 C219 1.259 . S
Co215 O216 2.061 . S
Co215 O221 2.052 . S
Co215 O223 2.135 . S
O216 Co215 2.061 . S
O216 C219 1.235 . S
C217 O220 1.238 . S
C217 O221 1.241 . S
C218 O211 1.247 . S
C218 O212 1.261 . S
C219 O214 1.259 . S
C219 O216 1.235 . S
O220 Co210 2.021 . S
O220 C217 1.238 . S
O221 Co215 2.052 . S
O221 C217 1.241 . S
O222 Co210 2.137 . S
O222 C213 1.247 . S
O223 Co210 2.244 . S
O223 C213 1.272 . S
O223 Co215 2.135 . S
Co224 O225 2.216 . S
Co224 O226 2.091 . S
Co224 O228 2.004 . S
Co224 O234 2.021 . S
Co224 O236 2.137 . S
Co224 O237 2.244 . S
O225 Co224 2.216 . S
O225 C232 1.247 . S
O226 Co224 2.091 . S
O226 C232 1.261 . S
C227 O236 1.247 . S
C227 O237 1.272 . S
O228 Co224 2.004 . S
O228 C233 1.259 . S
Co229 O230 2.061 . S
Co229 O235 2.052 . S
Co229 O237 2.135 . S
O230 Co229 2.061 . S
O230 C233 1.235 . S
C231 O234 1.238 . S
C231 O235 1.241 . S
C232 O225 1.247 . S
C232 O226 1.261 . S
C233 O228 1.259 . S
C233 O230 1.235 . S
O234 Co224 2.021 . S
O234 C231 1.238 . S
O235 Co229 2.052 . S
O235 C231 1.241 . S
O236 Co224 2.137 . S
O236 C227 1.247 . S
O237 Co224 2.244 . S
O237 C227 1.272 . S
O237 Co229 2.135 . S
Co238 O239 2.216 . S
Co238 O240 2.091 . S
Co238 O242 2.004 . S
Co238 O248 2.021 . S
Co238 O250 2.137 . S
Co238 O251 2.244 . S
O239 Co238 2.216 . S
O239 C246 1.247 . S
O240 Co238 2.091 . S
O240 C246 1.261 . S
C241 O250 1.247 . S
C241 O251 1.272 . S
O242 Co238 2.004 . S
O242 C247 1.259 . S
Co243 O244 2.061 . S
Co243 O249 2.052 . S
Co243 O251 2.135 . S
O244 Co243 2.061 . S
O244 C247 1.235 . S
C245 O248 1.238 . S
C245 O249 1.241 . S
C246 O239 1.247 . S
C246 O240 1.261 . S
C247 O242 1.259 . S
C247 O244 1.235 . S
O248 Co238 2.021 . S
O248 C245 1.238 . S
O249 Co243 2.052 . S
O249 C245 1.241 . S
O250 Co238 2.137 . S
O250 C241 1.247 . S
O251 Co238 2.244 . S
O251 C241 1.272 . S
O251 Co243 2.135 . S
Co252 O253 2.216 . S
Co252 O254 2.091 . S
Co252 O256 2.004 . S
Co252 O262 2.021 . S
Co252 O264 2.137 . S
Co252 O265 2.244 . S
O253 Co252 2.216 . S
O253 C260 1.247 . S
O254 Co252 2.091 . S
O254 C260 1.261 . S
C255 O264 1.247 . S
C255 O265 1.272 . S
O256 Co252 2.004 . S
O256 C261 1.259 . S
Co257 O258 2.061 . S
Co257 O263 2.052 . S
Co257 O265 2.135 . S
O258 Co257 2.061 . S
O258 C261 1.235 . S
C259 O262 1.238 . S
C259 O263 1.241 . S
C260 O253 1.247 . S
C260 O254 1.261 . S
C261 O256 1.259 . S
C261 O258 1.235 . S
O262 Co252 2.021 . S
O262 C259 1.238 . S
O263 Co257 2.052 . S
O263 C259 1.241 . S
O264 Co252 2.137 . S
O264 C255 1.247 . S
O265 Co252 2.244 . S
O265 C255 1.272 . S
O265 Co257 2.135 . S
Co266 O267 2.216 . S
Co266 O268 2.091 . S
Co266 O270 2.004 . S
Co266 O276 2.021 . S
Co266 O278 2.137 . S
Co266 O279 2.244 . S
O267 Co266 2.216 . S
O267 C274 1.247 . S
O268 Co266 2.091 . S
O268 C274 1.261 . S
C269 O278 1.247 . S
C269 O279 1.272 . S
O270 Co266 2.004 . S
O270 C275 1.259 . S
Co271 O272 2.061 . S
Co271 O277 2.052 . S
Co271 O279 2.135 . S
O272 Co271 2.061 . S
O272 C275 1.235 . S
C273 O276 1.238 . S
C273 O277 1.241 . S
C274 O267 1.247 . S
C274 O268 1.261 . S
C275 O270 1.259 . S
C275 O272 1.235 . S
O276 Co266 2.021 . S
O276 C273 1.238 . S
O277 Co271 2.052 . S
O277 C273 1.241 . S
O278 Co266 2.137 . S
O278 C269 1.247 . S
O279 Co266 2.244 . S
O279 C269 1.272 . S
O279 Co271 2.135 . S
Co280 O281 2.216 . S
Co280 O282 2.091 . S
Co280 O284 2.004 . S
Co280 O290 2.021 . S
Co280 O292 2.137 . S
Co280 O293 2.244 . S
O281 Co280 2.216 . S
O281 C288 1.247 . S
O282 Co280 2.091 . S
O282 C288 1.261 . S
C283 O292 1.247 . S
C283 O293 1.272 . S
O284 Co280 2.004 . S
O284 C289 1.259 . S
Co285 O286 2.061 . S
Co285 O291 2.052 . S
Co285 O293 2.135 . S
O286 Co285 2.061 . S
O286 C289 1.235 . S
C287 O290 1.238 . S
C287 O291 1.241 . S
C288 O281 1.247 . S
C288 O282 1.261 . S
C289 O284 1.259 . S
C289 O286 1.235 . S
O290 Co280 2.021 . S
O290 C287 1.238 . S
O291 Co285 2.052 . S
O291 C287 1.241 . S
O292 Co280 2.137 . S
O292 C283 1.247 . S
O293 Co280 2.244 . S
O293 C283 1.272 . S
O293 Co285 2.135 . S
Co294 O295 2.216 . S
Co294 O296 2.091 . S
Co294 O298 2.004 . S
Co294 O304 2.021 . S
Co294 O306 2.137 . S
Co294 O307 2.244 . S
O295 Co294 2.216 . S
O295 C302 1.247 . S
O296 Co294 2.091 . S
O296 C302 1.261 . S
C297 O306 1.247 . S
C297 O307 1.272 . S
O298 Co294 2.004 . S
O298 C303 1.259 . S
Co299 O300 2.061 . S
Co299 O305 2.052 . S
Co299 O307 2.135 . S
O300 Co299 2.061 . S
O300 C303 1.235 . S
C301 O304 1.238 . S
C301 O305 1.241 . S
C302 O295 1.247 . S
C302 O296 1.261 . S
C303 O298 1.259 . S
C303 O300 1.235 . S
O304 Co294 2.021 . S
O304 C301 1.238 . S
O305 Co299 2.052 . S
O305 C301 1.241 . S
O306 Co294 2.137 . S
O306 C297 1.247 . S
O307 Co294 2.244 . S
O307 C297 1.272 . S
O307 Co299 2.135 . S
Co308 O309 2.216 . S
Co308 O310 2.091 . S
Co308 O312 2.004 . S
Co308 O318 2.021 . S
Co308 O320 2.137 . S
Co308 O321 2.244 . S
O309 Co308 2.216 . S
O309 C316 1.247 . S
O310 Co308 2.091 . S
O310 C316 1.261 . S
C311 O320 1.247 . S
C311 O321 1.272 . S
O312 Co308 2.004 . S
O312 C317 1.259 . S
Co313 O314 2.061 . S
Co313 O319 2.052 . S
Co313 O321 2.135 . S
O314 Co313 2.061 . S
O314 C317 1.235 . S
C315 O318 1.238 . S
C315 O319 1.241 . S
C316 O309 1.247 . S
C316 O310 1.261 . S
C317 O312 1.259 . S
C317 O314 1.235 . S
O318 Co308 2.021 . S
O318 C315 1.238 . S
O319 Co313 2.052 . S
O319 C315 1.241 . S
O320 Co308 2.137 . S
O320 C311 1.247 . S
O321 Co308 2.244 . S
O321 C311 1.272 . S
O321 Co313 2.135 . S
Co322 O323 2.216 . S
Co322 O324 2.091 . S
Co322 O326 2.004 . S
Co322 O332 2.021 . S
Co322 O334 2.137 . S
Co322 O335 2.244 . S
O323 Co322 2.216 . S
O323 C330 1.247 . S
O324 Co322 2.091 . S
O324 C330 1.261 . S
C325 O334 1.247 . S
C325 O335 1.272 . S
O326 Co322 2.004 . S
O326 C331 1.259 . S
Co327 O328 2.061 . S
Co327 O333 2.052 . S
Co327 O335 2.135 . S
O328 Co327 2.061 . S
O328 C331 1.235 . S
C329 O332 1.238 . S
C329 O333 1.241 . S
C330 O323 1.247 . S
C330 O324 1.261 . S
C331 O326 1.259 . S
C331 O328 1.235 . S
O332 Co322 2.021 . S
O332 C329 1.238 . S
O333 Co327 2.052 . S
O333 C329 1.241 . S
O334 Co322 2.137 . S
O334 C325 1.247 . S
O335 Co322 2.244 . S
O335 C325 1.272 . S
O335 Co327 2.135 . S
Co336 O337 2.216 . S
Co336 O338 2.091 . S
Co336 O340 2.004 . S
Co336 O346 2.021 . S
Co336 O348 2.137 . S
Co336 O349 2.244 . S
O337 Co336 2.216 . S
O337 C344 1.247 . S
O338 Co336 2.091 . S
O338 C344 1.261 . S
C339 O348 1.247 . S
C339 O349 1.272 . S
O340 Co336 2.004 . S
O340 C345 1.259 . S
Co341 O342 2.061 . S
Co341 O347 2.052 . S
Co341 O349 2.135 . S
O342 Co341 2.061 . S
O342 C345 1.235 . S
C343 O346 1.238 . S
C343 O347 1.241 . S
C344 O337 1.247 . S
C344 O338 1.261 . S
C345 O340 1.259 . S
C345 O342 1.235 . S
O346 Co336 2.021 . S
O346 C343 1.238 . S
O347 Co341 2.052 . S
O347 C343 1.241 . S
O348 Co336 2.137 . S
O348 C339 1.247 . S
O349 Co336 2.244 . S
O349 C339 1.272 . S
O349 Co341 2.135 . S
Co350 O351 2.216 . S
Co350 O352 2.091 . S
Co350 O354 2.004 . S
Co350 O360 2.021 . S
Co350 O362 2.137 . S
Co350 O363 2.244 . S
O351 Co350 2.216 . S
O351 C358 1.247 . S
O352 Co350 2.091 . S
O352 C358 1.261 . S
C353 O362 1.247 . S
C353 O363 1.272 . S
O354 Co350 2.004 . S
O354 C359 1.259 . S
Co355 O356 2.061 . S
Co355 O361 2.052 . S
Co355 O363 2.135 . S
O356 Co355 2.061 . S
O356 C359 1.235 . S
C357 O360 1.238 . S
C357 O361 1.241 . S
C358 O351 1.247 . S
C358 O352 1.261 . S
C359 O354 1.259 . S
C359 O356 1.235 . S
O360 Co350 2.021 . S
O360 C357 1.238 . S
O361 Co355 2.052 . S
O361 C357 1.241 . S
O362 Co350 2.137 . S
O362 C353 1.247 . S
O363 Co350 2.244 . S
O363 C353 1.272 . S
O363 Co355 2.135 . S
Co364 O365 2.216 . S
Co364 O366 2.091 . S
Co364 O368 2.004 . S
Co364 O374 2.021 . S
Co364 O376 2.137 . S
Co364 O377 2.244 . S
O365 Co364 2.216 . S
O365 C372 1.247 . S
O366 Co364 2.091 . S
O366 C372 1.261 . S
C367 O376 1.247 . S
C367 O377 1.272 . S
O368 Co364 2.004 . S
O368 C373 1.259 . S
Co369 O370 2.061 . S
Co369 O375 2.052 . S
Co369 O377 2.135 . S
O370 Co369 2.061 . S
O370 C373 1.235 . S
C371 O374 1.238 . S
C371 O375 1.241 . S
C372 O365 1.247 . S
C372 O366 1.261 . S
C373 O368 1.259 . S
C373 O370 1.235 . S
O374 Co364 2.021 . S
O374 C371 1.238 . S
O375 Co369 2.052 . S
O375 C371 1.241 . S
O376 Co364 2.137 . S
O376 C367 1.247 . S
O377 Co364 2.244 . S
O377 C367 1.272 . S
O377 Co369 2.135 . S
Co378 O379 2.216 . S
Co378 O380 2.091 . S
Co378 O382 2.004 . S
Co378 O388 2.021 . S
Co378 O390 2.137 . S
Co378 O391 2.244 . S
O379 Co378 2.216 . S
O379 C386 1.247 . S
O380 Co378 2.091 . S
O380 C386 1.261 . S
C381 O390 1.247 . S
C381 O391 1.272 . S
O382 Co378 2.004 . S
O382 C387 1.259 . S
Co383 O384 2.061 . S
Co383 O389 2.052 . S
Co383 O391 2.135 . S
O384 Co383 2.061 . S
O384 C387 1.235 . S
C385 O388 1.238 . S
C385 O389 1.241 . S
C386 O379 1.247 . S
C386 O380 1.261 . S
C387 O382 1.259 . S
C387 O384 1.235 . S
O388 Co378 2.021 . S
O388 C385 1.238 . S
O389 Co383 2.052 . S
O389 C385 1.241 . S
O390 Co378 2.137 . S
O390 C381 1.247 . S
O391 Co378 2.244 . S
O391 C381 1.272 . S
O391 Co383 2.135 . S
Co392 O393 2.216 . S
Co392 O394 2.091 . S
Co392 O396 2.004 . S
Co392 O402 2.021 . S
Co392 O404 2.137 . S
Co392 O405 2.244 . S
O393 Co392 2.216 . S
O393 C400 1.247 . S
O394 Co392 2.091 . S
O394 C400 1.261 . S
C395 O404 1.247 . S
C395 O405 1.272 . S
O396 Co392 2.004 . S
O396 C401 1.259 . S
Co397 O398 2.061 . S
Co397 O403 2.052 . S
Co397 O405 2.135 . S
O398 Co397 2.061 . S
O398 C401 1.235 . S
C399 O402 1.238 . S
C399 O403 1.241 . S
C400 O393 1.247 . S
C400 O394 1.261 . S
C401 O396 1.259 . S
C401 O398 1.235 . S
O402 Co392 2.021 . S
O402 C399 1.238 . S
O403 Co397 2.052 . S
O403 C399 1.241 . S
O404 Co392 2.137 . S
O404 C395 1.247 . S
O405 Co392 2.244 . S
O405 C395 1.272 . S
O405 Co397 2.135 . S
Co406 O407 2.216 . S
Co406 O408 2.091 . S
Co406 O410 2.004 . S
Co406 O416 2.021 . S
Co406 O418 2.137 . S
Co406 O419 2.244 . S
O407 Co406 2.216 . S
O407 C414 1.247 . S
O408 Co406 2.091 . S
O408 C414 1.261 . S
C409 O418 1.247 . S
C409 O419 1.272 . S
O410 Co406 2.004 . S
O410 C415 1.259 . S
Co411 O412 2.061 . S
Co411 O417 2.052 . S
Co411 O419 2.135 . S
O412 Co411 2.061 . S
O412 C415 1.235 . S
C413 O416 1.238 . S
C413 O417 1.241 . S
C414 O407 1.247 . S
C414 O408 1.261 . S
C415 O410 1.259 . S
C415 O412 1.235 . S
O416 Co406 2.021 . S
O416 C413 1.238 . S
O417 Co411 2.052 . S
O417 C413 1.241 . S
O418 Co406 2.137 . S
O418 C409 1.247 . S
O419 Co406 2.244 . S
O419 C409 1.272 . S
O419 Co411 2.135 . S
Co420 O421 2.216 . S
Co420 O422 2.091 . S
Co420 O424 2.004 . S
Co420 O430 2.021 . S
Co420 O432 2.137 . S
Co420 O433 2.244 . S
O421 Co420 2.216 . S
O421 C428 1.247 . S
O422 Co420 2.091 . S
O422 C428 1.261 . S
C423 O432 1.247 . S
C423 O433 1.272 . S
O424 Co420 2.004 . S
O424 C429 1.259 . S
Co425 O426 2.061 . S
Co425 O431 2.052 . S
Co425 O433 2.135 . S
O426 Co425 2.061 . S
O426 C429 1.235 . S
C427 O430 1.238 . S
C427 O431 1.241 . S
C428 O421 1.247 . S
C428 O422 1.261 . S
C429 O424 1.259 . S
C429 O426 1.235 . S
O430 Co420 2.021 . S
O430 C427 1.238 . S
O431 Co425 2.052 . S
O431 C427 1.241 . S
O432 Co420 2.137 . S
O432 C423 1.247 . S
O433 Co420 2.244 . S
O433 C423 1.272 . S
O433 Co425 2.135 . S
Co434 O435 2.216 . S
Co434 O436 2.091 . S
Co434 O438 2.004 . S
Co434 O444 2.021 . S
Co434 O446 2.137 . S
Co434 O447 2.244 . S
O435 Co434 2.216 . S
O435 C442 1.247 . S
O436 Co434 2.091 . S
O436 C442 1.261 . S
C437 O446 1.247 . S
C437 O447 1.272 . S
O438 Co434 2.004 . S
O438 C443 1.259 . S
Co439 O440 2.061 . S
Co439 O445 2.052 . S
Co439 O447 2.135 . S
O440 Co439 2.061 . S
O440 C443 1.235 . S
C441 O444 1.238 . S
C441 O445 1.241 . S
C442 O435 1.247 . S
C442 O436 1.261 . S
C443 O438 1.259 . S
C443 O440 1.235 . S
O444 Co434 2.021 . S
O444 C441 1.238 . S
O445 Co439 2.052 . S
O445 C441 1.241 . S
O446 Co434 2.137 . S
O446 C437 1.247 . S
O447 Co434 2.244 . S
O447 C437 1.272 . S
O447 Co439 2.135 . S
Co448 O449 2.216 . S
Co448 O450 2.091 . S
Co448 O452 2.004 . S
Co448 O458 2.021 . S
Co448 O460 2.137 . S
Co448 O461 2.244 . S
O449 Co448 2.216 . S
O449 C456 1.247 . S
O450 Co448 2.091 . S
O450 C456 1.261 . S
C451 O460 1.247 . S
C451 O461 1.272 . S
O452 Co448 2.004 . S
O452 C457 1.259 . S
Co453 O454 2.061 . S
Co453 O459 2.052 . S
Co453 O461 2.135 . S
O454 Co453 2.061 . S
O454 C457 1.235 . S
C455 O458 1.238 . S
C455 O459 1.241 . S
C456 O449 1.247 . S
C456 O450 1.261 . S
C457 O452 1.259 . S
C457 O454 1.235 . S
O458 Co448 2.021 . S
O458 C455 1.238 . S
O459 Co453 2.052 . S
O459 C455 1.241 . S
O460 Co448 2.137 . S
O460 C451 1.247 . S
O461 Co448 2.244 . S
O461 C451 1.272 . S
O461 Co453 2.135 . S
Co462 O463 2.216 . S
Co462 O464 2.091 . S
Co462 O466 2.004 . S
Co462 O472 2.021 . S
Co462 O474 2.137 . S
Co462 O475 2.244 . S
O463 Co462 2.216 . S
O463 C470 1.247 . S
O464 Co462 2.091 . S
O464 C470 1.261 . S
C465 O474 1.247 . S
C465 O475 1.272 . S
O466 Co462 2.004 . S
O466 C471 1.259 . S
Co467 O468 2.061 . S
Co467 O473 2.052 . S
Co467 O475 2.135 . S
O468 Co467 2.061 . S
O468 C471 1.235 . S
C469 O472 1.238 . S
C469 O473 1.241 . S
C470 O463 1.247 . S
C470 O464 1.261 . S
C471 O466 1.259 . S
C471 O468 1.235 . S
O472 Co462 2.021 . S
O472 C469 1.238 . S
O473 Co467 2.052 . S
O473 C469 1.241 . S
O474 Co462 2.137 . S
O474 C465 1.247 . S
O475 Co462 2.244 . S
O475 C465 1.272 . S
O475 Co467 2.135 . S
Co476 O477 2.216 . S
Co476 O478 2.091 . S
Co476 O480 2.004 . S
Co476 O486 2.021 . S
Co476 O488 2.137 . S
Co476 O489 2.244 . S
O477 Co476 2.216 . S
O477 C484 1.247 . S
O478 Co476 2.091 . S
O478 C484 1.261 . S
C479 O488 1.247 . S
C479 O489 1.272 . S
O480 Co476 2.004 . S
O480 C485 1.259 . S
Co481 O482 2.061 . S
Co481 O487 2.052 . S
Co481 O489 2.135 . S
O482 Co481 2.061 . S
O482 C485 1.235 . S
C483 O486 1.238 . S
C483 O487 1.241 . S
C484 O477 1.247 . S
C484 O478 1.261 . S
C485 O480 1.259 . S
C485 O482 1.235 . S
O486 Co476 2.021 . S
O486 C483 1.238 . S
O487 Co481 2.052 . S
O487 C483 1.241 . S
O488 Co476 2.137 . S
O488 C479 1.247 . S
O489 Co476 2.244 . S
O489 C479 1.272 . S
O489 Co481 2.135 . S
Co490 O491 2.216 . S
Co490 O492 2.091 . S
Co490 O494 2.004 . S
Co490 O500 2.021 . S
Co490 O502 2.137 . S
Co490 O503 2.244 . S
O491 Co490 2.216 . S
O491 C498 1.247 . S
O492 Co490 2.091 . S
O492 C498 1.261 . S
C493 O502 1.247 . S
C493 O503 1.272 . S
O494 Co490 2.004 . S
O494 C499 1.259 . S
Co495 O496 2.061 . S
Co495 O501 2.052 . S
Co495 O503 2.135 . S
O496 Co495 2.061 . S
O496 C499 1.235 . S
C497 O500 1.238 . S
C497 O501 1.241 . S
C498 O491 1.247 . S
C498 O492 1.261 . S
C499 O494 1.259 . S
C499 O496 1.235 . S
O500 Co490 2.021 . S
O500 C497 1.238 . S
O501 Co495 2.052 . S
O501 C497 1.241 . S
O502 Co490 2.137 . S
O502 C493 1.247 . S
O503 Co490 2.244 . S
O503 C493 1.272 . S
O503 Co495 2.135 . S
Co504 O505 2.216 . S
Co504 O506 2.091 . S
Co504 O508 2.004 . S
Co504 O514 2.021 . S
Co504 O516 2.137 . S
Co504 O517 2.244 . S
O505 Co504 2.216 . S
O505 C512 1.247 . S
O506 Co504 2.091 . S
O506 C512 1.261 . S
C507 O516 1.247 . S
C507 O517 1.272 . S
O508 Co504 2.004 . S
O508 C513 1.259 . S
Co509 O510 2.061 . S
Co509 O515 2.052 . S
Co509 O517 2.135 . S
O510 Co509 2.061 . S
O510 C513 1.235 . S
C511 O514 1.238 . S
C511 O515 1.241 . S
C512 O505 1.247 . S
C512 O506 1.261 . S
C513 O508 1.259 . S
C513 O510 1.235 . S
O514 Co504 2.021 . S
O514 C511 1.238 . S
O515 Co509 2.052 . S
O515 C511 1.241 . S
O516 Co504 2.137 . S
O516 C507 1.247 . S
O517 Co504 2.244 . S
O517 C507 1.272 . S
O517 Co509 2.135 . S
Co518 O519 2.216 . S
Co518 O520 2.091 . S
Co518 O522 2.004 . S
Co518 O528 2.021 . S
Co518 O530 2.137 . S
Co518 O531 2.244 . S
O519 Co518 2.216 . S
O519 C526 1.247 . S
O520 Co518 2.091 . S
O520 C526 1.261 . S
C521 O530 1.247 . S
C521 O531 1.272 . S
O522 Co518 2.004 . S
O522 C527 1.259 . S
Co523 O524 2.061 . S
Co523 O529 2.052 . S
Co523 O531 2.135 . S
O524 Co523 2.061 . S
O524 C527 1.235 . S
C525 O528 1.238 . S
C525 O529 1.241 . S
C526 O519 1.247 . S
C526 O520 1.261 . S
C527 O522 1.259 . S
C527 O524 1.235 . S
O528 Co518 2.021 . S
O528 C525 1.238 . S
O529 Co523 2.052 . S
O529 C525 1.241 . S
O530 Co518 2.137 . S
O530 C521 1.247 . S
O531 Co518 2.244 . S
O531 C521 1.272 . S
O531 Co523 2.135 . S
Co532 O533 2.216 . S
Co532 O534 2.091 . S
Co532 O536 2.004 . S
Co532 O542 2.021 . S
Co532 O544 2.137 . S
Co532 O545 2.244 . S
O533 Co532 2.216 . S
O533 C540 1.247 . S
O534 Co532 2.091 . S
O534 C540 1.261 . S
C535 O544 1.247 . S
C535 O545 1.272 . S
O536 Co532 2.004 . S
O536 C541 1.259 . S
Co537 O538 2.061 . S
Co537 O543 2.052 . S
Co537 O545 2.135 . S
O538 Co537 2.061 . S
O538 C541 1.235 . S
C539 O542 1.238 . S
C539 O543 1.241 . S
C540 O533 1.247 . S
C540 O534 1.261 . S
C541 O536 1.259 . S
C541 O538 1.235 . S
O542 Co532 2.021 . S
O542 C539 1.238 . S
O543 Co537 2.052 . S
O543 C539 1.241 . S
O544 Co532 2.137 . S
O544 C535 1.247 . S
O545 Co532 2.244 . S
O545 C535 1.272 . S
O545 Co537 2.135 . S
Co546 O547 2.216 . S
Co546 O548 2.091 . S
Co546 O550 2.004 . S
Co546 O556 2.021 . S
Co546 O558 2.137 . S
Co546 O559 2.244 . S
O547 Co546 2.216 . S
O547 C554 1.247 . S
O548 Co546 2.091 . S
O548 C554 1.261 . S
C549 O558 1.247 . S
C549 O559 1.272 . S
O550 Co546 2.004 . S
O550 C555 1.259 . S
Co551 O552 2.061 . S
Co551 O557 2.052 . S
Co551 O559 2.135 . S
O552 Co551 2.061 . S
O552 C555 1.235 . S
C553 O556 1.238 . S
C553 O557 1.241 . S
C554 O547 1.247 . S
C554 O548 1.261 . S
C555 O550 1.259 . S
C555 O552 1.235 . S
O556 Co546 2.021 . S
O556 C553 1.238 . S
O557 Co551 2.052 . S
O557 C553 1.241 . S
O558 Co546 2.137 . S
O558 C549 1.247 . S
O559 Co546 2.244 . S
O559 C549 1.272 . S
O559 Co551 2.135 . S
Co560 O561 2.216 . S
Co560 O562 2.091 . S
Co560 O564 2.004 . S
Co560 O570 2.021 . S
Co560 O572 2.137 . S
Co560 O573 2.244 . S
O561 Co560 2.216 . S
O561 C568 1.247 . S
O562 Co560 2.091 . S
O562 C568 1.261 . S
C563 O572 1.247 . S
C563 O573 1.272 . S
O564 Co560 2.004 . S
O564 C569 1.259 . S
Co565 O566 2.061 . S
Co565 O571 2.052 . S
Co565 O573 2.135 . S
O566 Co565 2.061 . S
O566 C569 1.235 . S
C567 O570 1.238 . S
C567 O571 1.241 . S
C568 O561 1.247 . S
C568 O562 1.261 . S
C569 O564 1.259 . S
C569 O566 1.235 . S
O570 Co560 2.021 . S
O570 C567 1.238 . S
O571 Co565 2.052 . S
O571 C567 1.241 . S
O572 Co560 2.137 . S
O572 C563 1.247 . S
O573 Co560 2.244 . S
O573 C563 1.272 . S
O573 Co565 2.135 . S
Co574 O575 2.216 . S
Co574 O576 2.091 . S
Co574 O578 2.004 . S
Co574 O584 2.021 . S
Co574 O586 2.137 . S
Co574 O587 2.244 . S
O575 Co574 2.216 . S
O575 C582 1.247 . S
O576 Co574 2.091 . S
O576 C582 1.261 . S
C577 O586 1.247 . S
C577 O587 1.272 . S
O578 Co574 2.004 . S
O578 C583 1.259 . S
Co579 O580 2.061 . S
Co579 O585 2.052 . S
Co579 O587 2.135 . S
O580 Co579 2.061 . S
O580 C583 1.235 . S
C581 O584 1.238 . S
C581 O585 1.241 . S
C582 O575 1.247 . S
C582 O576 1.261 . S
C583 O578 1.259 . S
C583 O580 1.235 . S
O584 Co574 2.021 . S
O584 C581 1.238 . S
O585 Co579 2.052 . S
O585 C581 1.241 . S
O586 Co574 2.137 . S
O586 C577 1.247 . S
O587 Co574 2.244 . S
O587 C577 1.272 . S
O587 Co579 2.135 . S
Co588 O589 2.216 . S
Co588 O590 2.091 . S
Co588 O592 2.004 . S
Co588 O598 2.021 . S
Co588 O600 2.137 . S
Co588 O601 2.244 . S
O589 Co588 2.216 . S
O589 C596 1.247 . S
O590 Co588 2.091 . S
O590 C596 1.261 . S
C591 O600 1.247 . S
C591 O601 1.272 . S
O592 Co588 2.004 . S
O592 C597 1.259 . S
Co593 O594 2.061 . S
Co593 O599 2.052 . S
Co593 O601 2.135 . S
O594 Co593 2.061 . S
O594 C597 1.235 . S
C595 O598 1.238 . S
C595 O599 1.241 . S
C596 O589 1.247 . S
C596 O590 1.261 . S
C597 O592 1.259 . S
C597 O594 1.235 . S
O598 Co588 2.021 . S
O598 C595 1.238 . S
O599 Co593 2.052 . S
O599 C595 1.241 . S
O600 Co588 2.137 . S
O600 C591 1.247 . S
O601 Co588 2.244 . S
O601 C591 1.272 . S
O601 Co593 2.135 . S
Co602 O603 2.216 . S
Co602 O604 2.091 . S
Co602 O606 2.004 . S
Co602 O612 2.021 . S
Co602 O614 2.137 . S
Co602 O615 2.244 . S
O603 Co602 2.216 . S
O603 C610 1.247 . S
O604 Co602 2.091 . S
O604 C610 1.261 . S
C605 O614 1.247 . S
C605 O615 1.272 . S
O606 Co602 2.004 . S
O606 C611 1.259 . S
Co607 O608 2.061 . S
Co607 O613 2.052 . S
Co607 O615 2.135 . S
O608 Co607 2.061 . S
O608 C611 1.235 . S
C609 O612 1.238 . S
C609 O613 1.241 . S
C610 O603 1.247 . S
C610 O604 1.261 . S
C611 O606 1.259 . S
C611 O608 1.235 . S
O612 Co602 2.021 . S
O612 C609 1.238 . S
O613 Co607 2.052 . S
O613 C609 1.241 . S
O614 Co602 2.137 . S
O614 C605 1.247 . S
O615 Co602 2.244 . S
O615 C605 1.272 . S
O615 Co607 2.135 . S
Co616 O617 2.216 . S
Co616 O618 2.091 . S
Co616 O620 2.004 . S
Co616 O626 2.021 . S
Co616 O628 2.137 . S
Co616 O629 2.244 . S
O617 Co616 2.216 . S
O617 C624 1.247 . S
O618 Co616 2.091 . S
O618 C624 1.261 . S
C619 O628 1.247 . S
C619 O629 1.272 . S
O620 Co616 2.004 . S
O620 C625 1.259 . S
Co621 O622 2.061 . S
Co621 O627 2.052 . S
Co621 O629 2.135 . S
O622 Co621 2.061 . S
O622 C625 1.235 . S
C623 O626 1.238 . S
C623 O627 1.241 . S
C624 O617 1.247 . S
C624 O618 1.261 . S
C625 O620 1.259 . S
C625 O622 1.235 . S
O626 Co616 2.021 . S
O626 C623 1.238 . S
O627 Co621 2.052 . S
O627 C623 1.241 . S
O628 Co616 2.137 . S
O628 C619 1.247 . S
O629 Co616 2.244 . S
O629 C619 1.272 . S
O629 Co621 2.135 . S
Co630 O631 2.216 . S
Co630 O632 2.091 . S
Co630 O634 2.004 . S
Co630 O640 2.021 . S
Co630 O642 2.137 . S
Co630 O643 2.244 . S
O631 Co630 2.216 . S
O631 C638 1.247 . S
O632 Co630 2.091 . S
O632 C638 1.261 . S
C633 O642 1.247 . S
C633 O643 1.272 . S
O634 Co630 2.004 . S
O634 C639 1.259 . S
Co635 O636 2.061 . S
Co635 O641 2.052 . S
Co635 O643 2.135 . S
O636 Co635 2.061 . S
O636 C639 1.235 . S
C637 O640 1.238 . S
C637 O641 1.241 . S
C638 O631 1.247 . S
C638 O632 1.261 . S
C639 O634 1.259 . S
C639 O636 1.235 . S
O640 Co630 2.021 . S
O640 C637 1.238 . S
O641 Co635 2.052 . S
O641 C637 1.241 . S
O642 Co630 2.137 . S
O642 C633 1.247 . S
O643 Co630 2.244 . S
O643 C633 1.272 . S
O643 Co635 2.135 . S
Co644 O645 2.216 . S
Co644 O646 2.091 . S
Co644 O648 2.004 . S
Co644 O654 2.021 . S
Co644 O656 2.137 . S
Co644 O657 2.244 . S
O645 Co644 2.216 . S
O645 C652 1.247 . S
O646 Co644 2.091 . S
O646 C652 1.261 . S
C647 O656 1.247 . S
C647 O657 1.272 . S
O648 Co644 2.004 . S
O648 C653 1.259 . S
Co649 O650 2.061 . S
Co649 O655 2.052 . S
Co649 O657 2.135 . S
O650 Co649 2.061 . S
O650 C653 1.235 . S
C651 O654 1.238 . S
C651 O655 1.241 . S
C652 O645 1.247 . S
C652 O646 1.261 . S
C653 O648 1.259 . S
C653 O650 1.235 . S
O654 Co644 2.021 . S
O654 C651 1.238 . S
O655 Co649 2.052 . S
O655 C651 1.241 . S
O656 Co644 2.137 . S
O656 C647 1.247 . S
O657 Co644 2.244 . S
O657 C647 1.272 . S
O657 Co649 2.135 . S
Co658 O659 2.216 . S
Co658 O660 2.091 . S
Co658 O662 2.004 . S
Co658 O668 2.021 . S
Co658 O670 2.137 . S
Co658 O671 2.244 . S
O659 Co658 2.216 . S
O659 C666 1.247 . S
O660 Co658 2.091 . S
O660 C666 1.261 . S
C661 O670 1.247 . S
C661 O671 1.272 . S
O662 Co658 2.004 . S
O662 C667 1.259 . S
Co663 O664 2.061 . S
Co663 O669 2.052 . S
Co663 O671 2.135 . S
O664 Co663 2.061 . S
O664 C667 1.235 . S
C665 O668 1.238 . S
C665 O669 1.241 . S
C666 O659 1.247 . S
C666 O660 1.261 . S
C667 O662 1.259 . S
C667 O664 1.235 . S
O668 Co658 2.021 . S
O668 C665 1.238 . S
O669 Co663 2.052 . S
O669 C665 1.241 . S
O670 Co658 2.137 . S
O670 C661 1.247 . S
O671 Co658 2.244 . S
O671 C661 1.272 . S
O671 Co663 2.135 . S
H672 C680 0.950 . S
H673 C685 0.950 . S
H674 C682 0.950 . S
H675 C684 0.950 . S
H676 C686 0.950 . S
H677 C688 0.950 . S
H678 C690 0.950 . S
H679 C691 0.950 . S
C680 H672 0.950 . S
C680 C681 1.386 . S
C680 C682 1.391 . S
C681 C680 1.386 . S
C681 C685 1.393 . S
C682 H674 0.950 . S
C682 C680 1.391 . S
C682 C683 1.400 . S
C683 C682 1.400 . S
C683 C684 1.398 . S
C683 C689 1.491 . S
C684 H675 0.950 . S
C684 C683 1.398 . S
C684 C685 1.391 . S
C685 H673 0.950 . S
C685 C681 1.393 . S
C685 C684 1.391 . S
C686 H676 0.950 . S
C686 C687 1.386 . S
C686 C688 1.391 . S
C687 C686 1.386 . S
C687 C691 1.393 . S
C688 H677 0.950 . S
C688 C686 1.391 . S
C688 C689 1.400 . S
C689 C683 1.491 . S
C689 C688 1.400 . S
C689 C690 1.398 . S
C690 H678 0.950 . S
C690 C689 1.398 . S
C690 C691 1.391 . S
C691 H679 0.950 . S
C691 C687 1.393 . S
C691 C690 1.391 . S
H692 C700 0.950 . S
H693 C705 0.950 . S
H694 C702 0.944 1_655 S
H695 C704 0.950 1_655 S
H696 C706 0.950 . S
H697 C708 0.950 . S
H698 C710 0.950 . S
H699 C711 0.950 . S
C700 H692 0.950 . S
C700 C701 1.386 . S
C700 C702 1.391 . S
C701 C700 1.386 . S
C701 C705 1.393 . S
C702 H694 0.944 1_455 S
C702 C700 1.391 . S
C702 C703 1.400 1_455 S
C703 C702 1.400 1_655 S
C703 C704 1.398 1_655 S
C703 C709 1.491 . S
C704 H695 0.950 1_455 S
C704 C703 1.398 1_455 S
C704 C705 1.391 . S
C705 H693 0.950 . S
C705 C701 1.393 . S
C705 C704 1.391 . S
C706 H696 0.950 . S
C706 C707 1.386 . S
C706 C708 1.391 . S
C707 C706 1.386 . S
C707 C711 1.393 . S
C708 H697 0.950 . S
C708 C706 1.391 . S
C708 C709 1.400 . S
C709 C703 1.491 . S
C709 C708 1.400 . S
C709 C710 1.398 . S
C710 H698 0.950 . S
C710 C709 1.398 . S
C710 C711 1.391 . S
C711 H699 0.950 . S
C711 C707 1.393 . S
C711 C710 1.391 . S
H712 C720 0.950 . S
H713 C725 0.950 . S
H714 C722 0.950 . S
H715 C724 0.950 . S
H716 C726 0.950 . S
H717 C728 0.950 . S
H718 C730 0.950 . S
H719 C731 0.950 . S
C720 H712 0.950 . S
C720 C721 1.386 . S
C720 C722 1.391 . S
C721 C720 1.386 . S
C721 C725 1.393 . S
C722 H714 0.950 . S
C722 C720 1.391 . S
C722 C723 1.400 . S
C723 C722 1.400 . S
C723 C724 1.398 . S
C723 C729 1.491 . S
C724 H715 0.950 . S
C724 C723 1.398 . S
C724 C725 1.391 . S
C725 H713 0.950 . S
C725 C721 1.393 . S
C725 C724 1.391 . S
C726 H716 0.950 . S
C726 C727 1.386 . S
C726 C728 1.391 . S
C727 C726 1.386 . S
C727 C731 1.393 . S
C728 H717 0.950 . S
C728 C726 1.391 . S
C728 C729 1.400 . S
C729 C723 1.491 . S
C729 C728 1.400 . S
C729 C730 1.398 . S
C730 H718 0.950 . S
C730 C729 1.398 . S
C730 C731 1.391 . S
C731 H719 0.950 . S
C731 C727 1.393 . S
C731 C730 1.391 . S
H732 C740 0.950 . S
H733 C745 0.950 . S
H734 C742 0.950 . S
H735 C744 0.950 . S
H736 C746 0.950 . S
H737 C748 0.950 . S
H738 C750 0.950 . S
H739 C751 0.950 . S
C740 H732 0.950 . S
C740 C741 1.386 . S
C740 C742 1.391 . S
C741 C740 1.386 . S
C741 C745 1.393 . S
C742 H734 0.950 . S
C742 C740 1.391 . S
C742 C743 1.400 . S
C743 C742 1.400 . S
C743 C744 1.398 . S
C743 C749 1.491 . S
C744 H735 0.950 . S
C744 C743 1.398 . S
C744 C745 1.391 . S
C745 H733 0.950 . S
C745 C741 1.393 . S
C745 C744 1.391 . S
C746 H736 0.950 . S
C746 C747 1.386 . S
C746 C748 1.391 . S
C747 C746 1.386 . S
C747 C751 1.393 . S
C748 H737 0.950 . S
C748 C746 1.391 . S
C748 C749 1.400 . S
C749 C743 1.491 . S
C749 C748 1.400 . S
C749 C750 1.398 . S
C750 H738 0.950 . S
C750 C749 1.398 . S
C750 C751 1.391 . S
C751 H739 0.950 . S
C751 C747 1.393 . S
C751 C750 1.391 . S
H752 C760 0.950 . S
H753 C765 0.950 . S
H754 C762 0.950 . S
H755 C764 0.950 . S
H756 C766 0.950 . S
H757 C768 0.950 . S
H758 C770 0.950 . S
H759 C771 0.950 . S
C760 H752 0.950 . S
C760 C761 1.386 . S
C760 C762 1.391 . S
C761 C760 1.386 . S
C761 C765 1.393 . S
C762 H754 0.950 . S
C762 C760 1.391 . S
C762 C763 1.400 . S
C763 C762 1.400 . S
C763 C764 1.398 . S
C763 C769 1.491 . S
C764 H755 0.950 . S
C764 C763 1.398 . S
C764 C765 1.391 . S
C765 H753 0.950 . S
C765 C761 1.393 . S
C765 C764 1.391 . S
C766 H756 0.950 . S
C766 C767 1.386 . S
C766 C768 1.391 . S
C767 C766 1.386 . S
C767 C771 1.393 . S
C768 H757 0.950 . S
C768 C766 1.391 . S
C768 C769 1.400 . S
C769 C763 1.491 . S
C769 C768 1.400 . S
C769 C770 1.398 . S
C770 H758 0.950 . S
C770 C769 1.398 . S
C770 C771 1.391 . S
C771 H759 0.950 . S
C771 C767 1.393 . S
C771 C770 1.391 . S
H772 C780 0.950 . S
H773 C785 0.950 . S
H774 C782 0.950 . S
H775 C784 0.950 . S
H776 C786 0.950 . S
H777 C788 0.950 . S
H778 C790 0.950 . S
H779 C791 0.950 . S
C780 H772 0.950 . S
C780 C781 1.386 . S
C780 C782 1.391 . S
C781 C780 1.386 . S
C781 C785 1.393 . S
C782 H774 0.950 . S
C782 C780 1.391 . S
C782 C783 1.400 . S
C783 C782 1.400 . S
C783 C784 1.398 . S
C783 C789 1.491 . S
C784 H775 0.950 . S
C784 C783 1.398 . S
C784 C785 1.391 . S
C785 H773 0.950 . S
C785 C781 1.393 . S
C785 C784 1.391 . S
C786 H776 0.950 . S
C786 C787 1.386 . S
C786 C788 1.391 . S
C787 C786 1.386 . S
C787 C791 1.393 . S
C788 H777 0.950 . S
C788 C786 1.391 . S
C788 C789 1.400 . S
C789 C783 1.491 . S
C789 C788 1.400 . S
C789 C790 1.398 . S
C790 H778 0.950 . S
C790 C789 1.398 . S
C790 C791 1.391 . S
C791 H779 0.950 . S
C791 C787 1.393 . S
C791 C790 1.391 . S
H792 C800 0.950 . S
H793 C805 0.950 . S
H794 C802 0.950 . S
H795 C804 0.950 . S
H796 C806 0.950 . S
H797 C808 0.950 . S
H798 C810 0.950 . S
H799 C811 0.950 . S
C800 H792 0.950 . S
C800 C801 1.386 . S
C800 C802 1.391 . S
C801 C800 1.386 . S
C801 C805 1.393 . S
C802 H794 0.950 . S
C802 C800 1.391 . S
C802 C803 1.400 . S
C803 C802 1.400 . S
C803 C804 1.398 . S
C803 C809 1.491 . S
C804 H795 0.950 . S
C804 C803 1.398 . S
C804 C805 1.391 . S
C805 H793 0.950 . S
C805 C801 1.393 . S
C805 C804 1.391 . S
C806 H796 0.950 . S
C806 C807 1.386 . S
C806 C808 1.391 . S
C807 C806 1.386 . S
C807 C811 1.393 . S
C808 H797 0.950 . S
C808 C806 1.391 . S
C808 C809 1.400 . S
C809 C803 1.491 . S
C809 C808 1.400 . S
C809 C810 1.398 . S
C810 H798 0.950 . S
C810 C809 1.398 . S
C810 C811 1.391 . S
C811 H799 0.950 . S
C811 C807 1.393 . S
C811 C810 1.391 . S
H812 C820 0.950 . S
H813 C825 0.950 . S
H814 C822 0.950 . S
H815 C824 0.947 1_655 S
H816 C826 0.950 . S
H817 C828 0.950 . S
H818 C830 0.950 . S
H819 C831 0.950 . S
C820 H812 0.950 . S
C820 C821 1.386 . S
C820 C822 1.391 1_455 S
C821 C820 1.386 . S
C821 C825 1.393 . S
C822 H814 0.950 . S
C822 C820 1.391 1_655 S
C822 C823 1.400 . S
C823 C822 1.400 . S
C823 C824 1.398 1_655 S
C823 C829 1.491 . S
C824 H815 0.947 1_455 S
C824 C823 1.398 1_455 S
C824 C825 1.391 . S
C825 H813 0.950 . S
C825 C821 1.393 . S
C825 C824 1.391 . S
C826 H816 0.950 . S
C826 C827 1.386 . S
C826 C828 1.391 . S
C827 C826 1.386 . S
C827 C831 1.393 . S
C828 H817 0.950 . S
C828 C826 1.391 . S
C828 C829 1.400 . S
C829 C823 1.491 . S
C829 C828 1.400 . S
C829 C830 1.398 . S
C830 H818 0.950 . S
C830 C829 1.398 . S
C830 C831 1.391 . S
C831 H819 0.950 . S
C831 C827 1.393 . S
C831 C830 1.391 . S
H832 C840 0.950 . S
H833 C845 0.950 . S
H834 C842 0.950 . S
H835 C844 0.950 . S
H836 C846 0.950 . S
H837 C848 0.950 . S
H838 C850 0.950 . S
H839 C851 0.950 . S
C840 H832 0.950 . S
C840 C841 1.386 . S
C840 C842 1.391 . S
C841 C840 1.386 . S
C841 C845 1.393 . S
C842 H834 0.950 . S
C842 C840 1.391 . S
C842 C843 1.400 . S
C843 C842 1.400 . S
C843 C844 1.398 . S
C843 C849 1.491 . S
C844 H835 0.950 . S
C844 C843 1.398 . S
C844 C845 1.391 . S
C845 H833 0.950 . S
C845 C841 1.393 . S
C845 C844 1.391 . S
C846 H836 0.950 . S
C846 C847 1.386 . S
C846 C848 1.391 . S
C847 C846 1.386 . S
C847 C851 1.393 . S
C848 H837 0.950 . S
C848 C846 1.391 . S
C848 C849 1.400 . S
C849 C843 1.491 . S
C849 C848 1.400 . S
C849 C850 1.398 . S
C850 H838 0.950 . S
C850 C849 1.398 . S
C850 C851 1.391 . S
C851 H839 0.950 . S
C851 C847 1.393 . S
C851 C850 1.391 . S
H852 C860 0.950 . S
H853 C865 0.950 . S
H854 C862 0.950 . S
H855 C864 0.950 . S
H856 C866 0.950 . S
H857 C868 0.950 . S
H858 C870 0.950 . S
H859 C871 0.950 . S
C860 H852 0.950 . S
C860 C861 1.386 . S
C860 C862 1.391 . S
C861 C860 1.386 . S
C861 C865 1.393 . S
C862 H854 0.950 . S
C862 C860 1.391 . S
C862 C863 1.400 . S
C863 C862 1.400 . S
C863 C864 1.398 . S
C863 C869 1.491 . S
C864 H855 0.950 . S
C864 C863 1.398 . S
C864 C865 1.391 . S
C865 H853 0.950 . S
C865 C861 1.393 . S
C865 C864 1.391 . S
C866 H856 0.950 . S
C866 C867 1.386 . S
C866 C868 1.391 . S
C867 C866 1.386 . S
C867 C871 1.393 . S
C868 H857 0.950 . S
C868 C866 1.391 . S
C868 C869 1.400 . S
C869 C863 1.491 . S
C869 C868 1.400 . S
C869 C870 1.398 . S
C870 H858 0.950 . S
C870 C869 1.398 . S
C870 C871 1.391 . S
C871 H859 0.950 . S
C871 C867 1.393 . S
C871 C870 1.391 . S
H872 C880 0.950 . S
H873 C885 0.950 . S
H874 C882 0.950 . S
H875 C884 0.950 . S
H876 C886 0.950 . S
H877 C888 0.950 . S
H878 C890 0.950 . S
H879 C891 0.950 . S
C880 H872 0.950 . S
C880 C881 1.386 . S
C880 C882 1.391 . S
C881 C880 1.386 . S
C881 C885 1.393 . S
C882 H874 0.950 . S
C882 C880 1.391 . S
C882 C883 1.400 . S
C883 C882 1.400 . S
C883 C884 1.398 . S
C883 C889 1.491 . S
C884 H875 0.950 . S
C884 C883 1.398 . S
C884 C885 1.391 . S
C885 H873 0.950 . S
C885 C881 1.393 . S
C885 C884 1.391 . S
C886 H876 0.950 . S
C886 C887 1.386 . S
C886 C888 1.391 . S
C887 C886 1.386 . S
C887 C891 1.393 . S
C888 H877 0.950 . S
C888 C886 1.391 . S
C888 C889 1.400 . S
C889 C883 1.491 . S
C889 C888 1.400 . S
C889 C890 1.398 . S
C890 H878 0.950 . S
C890 C889 1.398 . S
C890 C891 1.391 . S
C891 H879 0.950 . S
C891 C887 1.393 . S
C891 C890 1.391 . S
H892 C900 0.950 . S
H893 C905 0.950 . S
H894 C902 0.950 1_554 S
H895 C904 0.950 . S
H896 C906 0.950 . S
H897 C908 0.950 . S
H898 C910 0.950 . S
H899 C911 0.950 . S
C900 H892 0.950 . S
C900 C901 1.386 . S
C900 C902 1.391 . S
C901 C900 1.386 . S
C901 C905 1.393 . S
C902 H894 0.950 1_556 S
C902 C900 1.391 . S
C902 C903 1.400 1_556 S
C903 C902 1.400 1_554 S
C903 C904 1.398 1_554 S
C903 C909 1.491 . S
C904 H895 0.950 . S
C904 C903 1.398 1_556 S
C904 C905 1.391 . S
C905 H893 0.950 . S
C905 C901 1.393 . S
C905 C904 1.391 . S
C906 H896 0.950 . S
C906 C907 1.386 . S
C906 C908 1.391 . S
C907 C906 1.386 . S
C907 C911 1.393 . S
C908 H897 0.950 . S
C908 C906 1.391 . S
C908 C909 1.400 . S
C909 C903 1.491 . S
C909 C908 1.400 . S
C909 C910 1.398 . S
C910 H898 0.950 . S
C910 C909 1.398 . S
C910 C911 1.391 . S
C911 H899 0.950 . S
C911 C907 1.393 . S
C911 C910 1.391 . S
H912 C920 0.950 . S
H913 C925 0.950 . S
H914 C922 0.950 . S
H915 C924 0.950 . S
H916 C926 0.950 . S
H917 C928 0.950 . S
H918 C930 0.950 . S
H919 C931 0.950 . S
C920 H912 0.950 . S
C920 C921 1.386 . S
C920 C922 1.391 . S
C921 C920 1.386 . S
C921 C925 1.393 . S
C922 H914 0.950 . S
C922 C920 1.391 . S
C922 C923 1.400 . S
C923 C922 1.400 . S
C923 C924 1.398 . S
C923 C929 1.491 . S
C924 H915 0.950 . S
C924 C923 1.398 . S
C924 C925 1.391 . S
C925 H913 0.950 . S
C925 C921 1.393 . S
C925 C924 1.391 . S
C926 H916 0.950 . S
C926 C927 1.386 . S
C926 C928 1.391 . S
C927 C926 1.386 . S
C927 C931 1.393 . S
C928 H917 0.950 . S
C928 C926 1.391 . S
C928 C929 1.400 . S
C929 C923 1.491 . S
C929 C928 1.400 . S
C929 C930 1.398 . S
C930 H918 0.950 . S
C930 C929 1.398 . S
C930 C931 1.391 . S
C931 H919 0.950 . S
C931 C927 1.393 . S
C931 C930 1.391 . S
H932 C940 0.950 . S
H933 C945 0.950 . S
H934 C942 0.950 . S
H935 C944 0.950 . S
H936 C946 0.950 . S
H937 C948 0.950 . S
H938 C950 0.950 . S
H939 C951 0.950 . S
C940 H932 0.950 . S
C940 C941 1.386 . S
C940 C942 1.391 . S
C941 C940 1.386 . S
C941 C945 1.393 . S
C942 H934 0.950 . S
C942 C940 1.391 . S
C942 C943 1.400 . S
C943 C942 1.400 . S
C943 C944 1.398 . S
C943 C949 1.491 . S
C944 H935 0.950 . S
C944 C943 1.398 . S
C944 C945 1.391 . S
C945 H933 0.950 . S
C945 C941 1.393 . S
C945 C944 1.391 . S
C946 H936 0.950 . S
C946 C947 1.386 . S
C946 C948 1.391 . S
C947 C946 1.386 . S
C947 C951 1.393 . S
C948 H937 0.950 . S
C948 C946 1.391 . S
C948 C949 1.400 . S
C949 C943 1.491 . S
C949 C948 1.400 . S
C949 C950 1.398 . S
C950 H938 0.950 . S
C950 C949 1.398 . S
C950 C951 1.391 . S
C951 H939 0.950 . S
C951 C947 1.393 . S
C951 C950 1.391 . S
H952 C960 0.950 . S
H953 C965 0.950 . S
H954 C962 0.950 . S
H955 C964 0.950 . S
H956 C966 0.950 . S
H957 C968 0.950 . S
H958 C970 0.950 . S
H959 C971 0.950 . S
C960 H952 0.950 . S
C960 C961 1.386 . S
C960 C962 1.391 . S
C961 C960 1.386 . S
C961 C965 1.393 . S
C962 H954 0.950 . S
C962 C960 1.391 . S
C962 C963 1.400 . S
C963 C962 1.400 . S
C963 C964 1.398 . S
C963 C969 1.491 . S
C964 H955 0.950 . S
C964 C963 1.398 . S
C964 C965 1.391 . S
C965 H953 0.950 . S
C965 C961 1.393 . S
C965 C964 1.391 . S
C966 H956 0.950 . S
C966 C967 1.386 . S
C966 C968 1.391 . S
C967 C966 1.386 . S
C967 C971 1.393 . S
C968 H957 0.950 . S
C968 C966 1.391 . S
C968 C969 1.400 . S
C969 C963 1.491 . S
C969 C968 1.400 . S
C969 C970 1.398 . S
C970 H958 0.950 . S
C970 C969 1.398 . S
C970 C971 1.391 . S
C971 H959 0.950 . S
C971 C967 1.393 . S
C971 C970 1.391 . S
H972 C980 0.950 . S
H973 C985 0.950 . S
H974 C982 0.950 . S
H975 C984 0.950 1_556 S
H976 C986 0.950 . S
H977 C988 0.950 . S
H978 C990 0.950 . S
H979 C991 0.950 . S
C980 H972 0.950 . S
C980 C981 1.386 . S
C980 C982 1.391 . S
C981 C980 1.386 . S
C981 C985 1.393 . S
C982 H974 0.950 . S
C982 C980 1.391 . S
C982 C983 1.400 1_554 S
C983 C982 1.400 1_556 S
C983 C984 1.398 1_556 S
C983 C989 1.491 . S
C984 H975 0.950 1_554 S
C984 C983 1.398 1_554 S
C984 C985 1.391 . S
C985 H973 0.950 . S
C985 C981 1.393 . S
C985 C984 1.391 . S
C986 H976 0.950 . S
C986 C987 1.386 . S
C986 C988 1.391 . S
C987 C986 1.386 . S
C987 C991 1.393 . S
C988 H977 0.950 . S
C988 C986 1.391 . S
C988 C989 1.400 . S
C989 C983 1.491 . S
C989 C988 1.400 . S
C989 C990 1.398 . S
C990 H978 0.950 . S
C990 C989 1.398 . S
C990 C991 1.391 . S
C991 H979 0.950 . S
C991 C987 1.393 . S
C991 C990 1.391 . S
H992 C1000 0.950 . S
H993 C1005 0.950 . S
H994 C1002 0.950 . S
H995 C1004 0.950 . S
H996 C1006 0.950 . S
H997 C1008 0.950 . S
H998 C1010 0.950 . S
H999 C1011 0.950 . S
C1000 H992 0.950 . S
C1000 C1001 1.386 . S
C1000 C1002 1.391 . S
C1001 C1000 1.386 . S
C1001 C1005 1.393 . S
C1002 H994 0.950 . S
C1002 C1000 1.391 . S
C1002 C1003 1.400 . S
C1003 C1002 1.400 . S
C1003 C1004 1.398 . S
C1003 C1009 1.491 . S
C1004 H995 0.950 . S
C1004 C1003 1.398 . S
C1004 C1005 1.391 . S
C1005 H993 0.950 . S
C1005 C1001 1.393 . S
C1005 C1004 1.391 . S
C1006 H996 0.950 . S
C1006 C1007 1.386 . S
C1006 C1008 1.391 . S
C1007 C1006 1.386 . S
C1007 C1011 1.393 . S
C1008 H997 0.950 . S
C1008 C1006 1.391 . S
C1008 C1009 1.400 . S
C1009 C1003 1.491 . S
C1009 C1008 1.400 . S
C1009 C1010 1.398 . S
C1010 H998 0.950 . S
C1010 C1009 1.398 . S
C1010 C1011 1.391 . S
C1011 H999 0.950 . S
C1011 C1007 1.393 . S
C1011 C1010 1.391 . S
H1012 C1020 0.950 . S
H1013 C1025 0.950 . S
H1014 C1022 0.950 . S
H1015 C1024 0.950 . S
H1016 C1026 0.950 . S
H1017 C1028 0.950 . S
H1018 C1030 0.950 . S
H1019 C1031 0.950 . S
C1020 H1012 0.950 . S
C1020 C1021 1.386 . S
C1020 C1022 1.391 . S
C1021 C1020 1.386 . S
C1021 C1025 1.393 . S
C1022 H1014 0.950 . S
C1022 C1020 1.391 . S
C1022 C1023 1.400 . S
C1023 C1022 1.400 . S
C1023 C1024 1.398 . S
C1023 C1029 1.491 . S
C1024 H1015 0.950 . S
C1024 C1023 1.398 . S
C1024 C1025 1.391 . S
C1025 H1013 0.950 . S
C1025 C1021 1.393 . S
C1025 C1024 1.391 . S
C1026 H1016 0.950 . S
C1026 C1027 1.386 . S
C1026 C1028 1.391 . S
C1027 C1026 1.386 . S
C1027 C1031 1.393 . S
C1028 H1017 0.950 . S
C1028 C1026 1.391 . S
C1028 C1029 1.400 . S
C1029 C1023 1.491 . S
C1029 C1028 1.400 . S
C1029 C1030 1.398 . S
C1030 H1018 0.950 . S
C1030 C1029 1.398 . S
C1030 C1031 1.391 . S
C1031 H1019 0.950 . S
C1031 C1027 1.393 . S
C1031 C1030 1.391 . S
H1032 C1040 0.950 . S
H1033 C1045 0.950 . S
H1034 C1042 0.950 . S
H1035 C1044 0.950 . S
H1036 C1046 0.950 . S
H1037 C1048 0.950 . S
H1038 C1050 0.950 . S
H1039 C1051 0.950 . S
C1040 H1032 0.950 . S
C1040 C1041 1.386 . S
C1040 C1042 1.391 . S
C1041 C1040 1.386 . S
C1041 C1045 1.393 . S
C1042 H1034 0.950 . S
C1042 C1040 1.391 . S
C1042 C1043 1.400 . S
C1043 C1042 1.400 . S
C1043 C1044 1.398 . S
C1043 C1049 1.491 . S
C1044 H1035 0.950 . S
C1044 C1043 1.398 . S
C1044 C1045 1.391 . S
C1045 H1033 0.950 . S
C1045 C1041 1.393 . S
C1045 C1044 1.391 . S
C1046 H1036 0.950 . S
C1046 C1047 1.386 . S
C1046 C1048 1.391 . S
C1047 C1046 1.386 . S
C1047 C1051 1.393 . S
C1048 H1037 0.950 . S
C1048 C1046 1.391 . S
C1048 C1049 1.400 . S
C1049 C1043 1.491 . S
C1049 C1048 1.400 . S
C1049 C1050 1.398 . S
C1050 H1038 0.950 . S
C1050 C1049 1.398 . S
C1050 C1051 1.391 . S
C1051 H1039 0.950 . S
C1051 C1047 1.393 . S
C1051 C1050 1.391 . S
H1052 C1060 0.950 . S
H1053 C1065 0.950 . S
H1054 C1062 0.950 . S
H1055 C1064 0.950 . S
H1056 C1066 0.950 . S
H1057 C1068 0.950 . S
H1058 C1070 0.950 . S
H1059 C1071 0.950 . S
C1060 H1052 0.950 . S
C1060 C1061 1.386 . S
C1060 C1062 1.391 . S
C1061 C1060 1.386 . S
C1061 C1065 1.393 . S
C1062 H1054 0.950 . S
C1062 C1060 1.391 . S
C1062 C1063 1.400 . S
C1063 C1062 1.400 . S
C1063 C1064 1.398 . S
C1063 C1069 1.491 . S
C1064 H1055 0.950 . S
C1064 C1063 1.398 . S
C1064 C1065 1.391 . S
C1065 H1053 0.950 . S
C1065 C1061 1.393 . S
C1065 C1064 1.391 . S
C1066 H1056 0.950 . S
C1066 C1067 1.386 . S
C1066 C1068 1.391 . S
C1067 C1066 1.386 . S
C1067 C1071 1.393 . S
C1068 H1057 0.950 . S
C1068 C1066 1.391 . S
C1068 C1069 1.400 . S
C1069 C1063 1.491 . S
C1069 C1068 1.400 . S
C1069 C1070 1.398 . S
C1070 H1058 0.950 . S
C1070 C1069 1.398 . S
C1070 C1071 1.391 . S
C1071 H1059 0.950 . S
C1071 C1067 1.393 . S
C1071 C1070 1.391 . S
H1072 C1080 0.950 . S
H1073 C1085 0.950 . S
H1074 C1082 0.950 . S
H1075 C1084 0.950 . S
H1076 C1086 0.950 . S
H1077 C1088 0.950 1_565 S
H1078 C1090 0.938 1_565 S
H1079 C1091 0.950 . S
C1080 H1072 0.950 . S
C1080 C1081 1.386 . S
C1080 C1082 1.391 . S
C1081 C1080 1.386 . S
C1081 C1085 1.393 . S
C1082 H1074 0.950 . S
C1082 C1080 1.391 . S
C1082 C1083 1.400 . S
C1083 C1082 1.400 . S
C1083 C1084 1.398 . S
C1083 C1089 1.491 . S
C1084 H1075 0.950 . S
C1084 C1083 1.398 . S
C1084 C1085 1.391 . S
C1085 H1073 0.950 . S
C1085 C1081 1.393 . S
C1085 C1084 1.391 . S
C1086 H1076 0.950 . S
C1086 C1087 1.386 . S
C1086 C1088 1.391 . S
C1087 C1086 1.386 . S
C1087 C1091 1.393 . S
C1088 H1077 0.950 1_545 S
C1088 C1086 1.391 . S
C1088 C1089 1.400 1_545 S
C1089 C1083 1.491 . S
C1089 C1088 1.400 1_565 S
C1089 C1090 1.388 1_565 S
C1090 H1078 0.938 1_545 S
C1090 C1089 1.388 1_545 S
C1090 C1091 1.413 . S
C1091 H1079 0.950 . S
C1091 C1087 1.393 . S
C1091 C1090 1.413 . S
H1092 C1100 0.950 . S
H1093 C1105 0.950 . S
H1094 C1102 0.950 . S
H1095 C1104 0.950 . S
H1096 C1106 0.950 . S
H1097 C1108 0.950 . S
H1098 C1110 0.950 . S
H1099 C1111 0.950 . S
C1100 H1092 0.950 . S
C1100 C1101 1.386 . S
C1100 C1102 1.391 . S
C1101 C1100 1.386 . S
C1101 C1105 1.393 . S
C1102 H1094 0.950 . S
C1102 C1100 1.391 . S
C1102 C1103 1.400 . S
C1103 C1102 1.400 . S
C1103 C1104 1.398 . S
C1103 C1109 1.491 . S
C1104 H1095 0.950 . S
C1104 C1103 1.398 . S
C1104 C1105 1.391 . S
C1105 H1093 0.950 . S
C1105 C1101 1.393 . S
C1105 C1104 1.391 . S
C1106 H1096 0.950 . S
C1106 C1107 1.386 . S
C1106 C1108 1.391 . S
C1107 C1106 1.386 . S
C1107 C1111 1.393 . S
C1108 H1097 0.950 . S
C1108 C1106 1.391 . S
C1108 C1109 1.400 . S
C1109 C1103 1.491 . S
C1109 C1108 1.400 . S
C1109 C1110 1.398 . S
C1110 H1098 0.950 . S
C1110 C1109 1.398 . S
C1110 C1111 1.391 . S
C1111 H1099 0.950 . S
C1111 C1107 1.393 . S
C1111 C1110 1.391 . S
H1112 C1120 0.950 . S
H1113 C1125 0.950 . S
H1114 C1122 0.950 . S
H1115 C1124 0.950 . S
H1116 C1126 0.950 . S
H1117 C1128 0.950 . S
H1118 C1130 0.950 . S
H1119 C1131 0.950 . S
C1120 H1112 0.950 . S
C1120 C1121 1.386 . S
C1120 C1122 1.391 . S
C1121 C1120 1.386 . S
C1121 C1125 1.393 . S
C1122 H1114 0.950 . S
C1122 C1120 1.391 . S
C1122 C1123 1.400 . S
C1123 C1122 1.400 . S
C1123 C1124 1.398 . S
C1123 C1129 1.491 . S
C1124 H1115 0.950 . S
C1124 C1123 1.398 . S
C1124 C1125 1.391 . S
C1125 H1113 0.950 . S
C1125 C1121 1.393 . S
C1125 C1124 1.391 . S
C1126 H1116 0.950 . S
C1126 C1127 1.386 . S
C1126 C1128 1.391 . S
C1127 C1126 1.386 . S
C1127 C1131 1.393 . S
C1128 H1117 0.950 . S
C1128 C1126 1.391 . S
C1128 C1129 1.400 . S
C1129 C1123 1.491 . S
C1129 C1128 1.400 . S
C1129 C1130 1.398 . S
C1130 H1118 0.950 . S
C1130 C1129 1.398 . S
C1130 C1131 1.391 . S
C1131 H1119 0.950 . S
C1131 C1127 1.393 . S
C1131 C1130 1.391 . S
H1132 C1140 0.950 . S
H1133 C1145 0.950 . S
H1134 C1142 0.950 . S
H1135 C1144 0.950 . S
H1136 C1146 0.950 . S
H1137 C1148 0.950 . S
H1138 C1150 0.950 . S
H1139 C1151 0.950 . S
C1140 H1132 0.950 . S
C1140 C1141 1.386 . S
C1140 C1142 1.391 . S
C1141 C1140 1.386 . S
C1141 C1145 1.393 . S
C1142 H1134 0.950 . S
C1142 C1140 1.391 . S
C1142 C1143 1.400 . S
C1143 C1142 1.400 . S
C1143 C1144 1.398 . S
C1143 C1149 1.491 . S
C1144 H1135 0.950 . S
C1144 C1143 1.398 . S
C1144 C1145 1.391 . S
C1145 H1133 0.950 . S
C1145 C1141 1.393 . S
C1145 C1144 1.391 . S
C1146 H1136 0.950 . S
C1146 C1147 1.386 . S
C1146 C1148 1.391 . S
C1147 C1146 1.386 . S
C1147 C1151 1.393 . S
C1148 H1137 0.950 . S
C1148 C1146 1.391 . S
C1148 C1149 1.400 . S
C1149 C1143 1.491 . S
C1149 C1148 1.400 . S
C1149 C1150 1.398 . S
C1150 H1138 0.950 . S
C1150 C1149 1.398 . S
C1150 C1151 1.391 . S
C1151 H1139 0.950 . S
C1151 C1147 1.393 . S
C1151 C1150 1.391 . S
H1152 C1160 0.950 . S
H1153 C1165 0.950 . S
H1154 C1162 0.950 . S
H1155 C1164 0.950 . S
H1156 C1166 0.950 . S
H1157 C1168 0.950 . S
H1158 C1170 0.950 . S
H1159 C1171 0.950 . S
C1160 H1152 0.950 . S
C1160 C1161 1.386 . S
C1160 C1162 1.391 . S
C1161 C1160 1.386 . S
C1161 C1165 1.393 . S
C1162 H1154 0.950 . S
C1162 C1160 1.391 . S
C1162 C1163 1.400 . S
C1163 C1162 1.400 . S
C1163 C1164 1.398 . S
C1163 C1169 1.491 . S
C1164 H1155 0.950 . S
C1164 C1163 1.398 . S
C1164 C1165 1.391 . S
C1165 H1153 0.950 . S
C1165 C1161 1.393 . S
C1165 C1164 1.391 . S
C1166 H1156 0.950 . S
C1166 C1167 1.386 . S
C1166 C1168 1.391 . S
C1167 C1166 1.386 . S
C1167 C1171 1.393 . S
C1168 H1157 0.950 . S
C1168 C1166 1.391 . S
C1168 C1169 1.400 . S
C1169 C1163 1.491 . S
C1169 C1168 1.400 . S
C1169 C1170 1.398 . S
C1170 H1158 0.950 . S
C1170 C1169 1.398 . S
C1170 C1171 1.391 . S
C1171 H1159 0.950 . S
C1171 C1167 1.393 . S
C1171 C1170 1.391 . S
H1172 C1180 0.950 . S
H1173 C1185 0.950 . S
H1174 C1182 0.950 . S
H1175 C1184 0.950 1_455 S
H1176 C1186 0.950 . S
H1177 C1188 0.950 . S
H1178 C1190 0.950 . S
H1179 C1191 0.950 . S
C1180 H1172 0.950 . S
C1180 C1181 1.386 . S
C1180 C1182 1.391 . S
C1181 C1180 1.386 . S
C1181 C1185 1.393 . S
C1182 H1174 0.950 . S
C1182 C1180 1.391 . S
C1182 C1183 1.400 1_655 S
C1183 C1182 1.400 1_455 S
C1183 C1184 1.398 1_455 S
C1183 C1189 1.491 . S
C1184 H1175 0.950 1_655 S
C1184 C1183 1.398 1_655 S
C1184 C1185 1.391 . S
C1185 H1173 0.950 . S
C1185 C1181 1.393 . S
C1185 C1184 1.391 . S
C1186 H1176 0.950 . S
C1186 C1187 1.386 . S
C1186 C1188 1.391 . S
C1187 C1186 1.386 . S
C1187 C1191 1.393 . S
C1188 H1177 0.950 . S
C1188 C1186 1.391 . S
C1188 C1189 1.400 . S
C1189 C1183 1.491 . S
C1189 C1188 1.400 . S
C1189 C1190 1.398 . S
C1190 H1178 0.950 . S
C1190 C1189 1.398 . S
C1190 C1191 1.391 . S
C1191 H1179 0.950 . S
C1191 C1187 1.393 . S
C1191 C1190 1.391 . S
H1192 C1200 0.950 . S
H1193 C1205 0.950 . S
H1194 C1202 0.950 . S
H1195 C1204 0.950 . S
H1196 C1206 0.950 . S
H1197 C1208 0.950 . S
H1198 C1210 0.950 . S
H1199 C1211 0.950 . S
C1200 H1192 0.950 . S
C1200 C1201 1.386 . S
C1200 C1202 1.391 . S
C1201 C1200 1.386 . S
C1201 C1205 1.393 . S
C1202 H1194 0.950 . S
C1202 C1200 1.391 . S
C1202 C1203 1.400 . S
C1203 C1202 1.400 . S
C1203 C1204 1.398 . S
C1203 C1209 1.491 . S
C1204 H1195 0.950 . S
C1204 C1203 1.398 . S
C1204 C1205 1.391 . S
C1205 H1193 0.950 . S
C1205 C1201 1.393 . S
C1205 C1204 1.391 . S
C1206 H1196 0.950 . S
C1206 C1207 1.386 . S
C1206 C1208 1.391 . S
C1207 C1206 1.386 . S
C1207 C1211 1.393 . S
C1208 H1197 0.950 . S
C1208 C1206 1.391 . S
C1208 C1209 1.400 . S
C1209 C1203 1.491 . S
C1209 C1208 1.400 . S
C1209 C1210 1.398 . S
C1210 H1198 0.950 . S
C1210 C1209 1.398 . S
C1210 C1211 1.391 . S
C1211 H1199 0.950 . S
C1211 C1207 1.393 . S
C1211 C1210 1.391 . S
H1212 C1220 0.950 . S
H1213 C1225 0.950 . S
H1214 C1222 0.950 . S
H1215 C1224 0.950 . S
H1216 C1226 0.950 . S
H1217 C1228 0.950 . S
H1218 C1230 0.950 . S
H1219 C1231 0.950 . S
C1220 H1212 0.950 . S
C1220 C1221 1.386 . S
C1220 C1222 1.391 . S
C1221 C1220 1.386 . S
C1221 C1225 1.393 . S
C1222 H1214 0.950 . S
C1222 C1220 1.391 . S
C1222 C1223 1.400 . S
C1223 C1222 1.400 . S
C1223 C1224 1.398 . S
C1223 C1229 1.491 . S
C1224 H1215 0.950 . S
C1224 C1223 1.398 . S
C1224 C1225 1.391 . S
C1225 H1213 0.950 . S
C1225 C1221 1.393 . S
C1225 C1224 1.391 . S
C1226 H1216 0.950 . S
C1226 C1227 1.386 . S
C1226 C1228 1.391 . S
C1227 C1226 1.386 . S
C1227 C1231 1.393 . S
C1228 H1217 0.950 . S
C1228 C1226 1.391 . S
C1228 C1229 1.400 . S
C1229 C1223 1.491 . S
C1229 C1228 1.400 . S
C1229 C1230 1.398 . S
C1230 H1218 0.950 . S
C1230 C1229 1.398 . S
C1230 C1231 1.391 . S
C1231 H1219 0.950 . S
C1231 C1227 1.393 . S
C1231 C1230 1.391 . S
H1232 C1240 0.950 . S
H1233 C1245 0.950 . S
H1234 C1242 0.950 . S
H1235 C1244 0.950 . S
H1236 C1246 0.950 . S
H1237 C1248 0.950 . S
H1238 C1250 0.950 . S
H1239 C1251 0.950 . S
C1240 H1232 0.950 . S
C1240 C1241 1.386 . S
C1240 C1242 1.391 . S
C1241 C1240 1.386 . S
C1241 C1245 1.393 . S
C1242 H1234 0.950 . S
C1242 C1240 1.391 . S
C1242 C1243 1.400 . S
C1243 C1242 1.400 . S
C1243 C1244 1.398 . S
C1243 C1249 1.491 . S
C1244 H1235 0.950 . S
C1244 C1243 1.398 . S
C1244 C1245 1.391 . S
C1245 H1233 0.950 . S
C1245 C1241 1.393 . S
C1245 C1244 1.391 . S
C1246 H1236 0.950 . S
C1246 C1247 1.386 . S
C1246 C1248 1.391 . S
C1247 C1246 1.386 . S
C1247 C1251 1.393 . S
C1248 H1237 0.950 . S
C1248 C1246 1.391 . S
C1248 C1249 1.400 . S
C1249 C1243 1.491 . S
C1249 C1248 1.400 . S
C1249 C1250 1.398 . S
C1250 H1238 0.950 . S
C1250 C1249 1.398 . S
C1250 C1251 1.391 . S
C1251 H1239 0.950 . S
C1251 C1247 1.393 . S
C1251 C1250 1.391 . S
H1252 C1260 0.950 . S
H1253 C1265 0.950 . S
H1254 C1262 0.950 . S
H1255 C1264 0.950 . S
H1256 C1266 0.950 . S
H1257 C1268 0.950 . S
H1258 C1270 0.950 . S
H1259 C1271 0.950 . S
C1260 H1252 0.950 . S
C1260 C1261 1.386 . S
C1260 C1262 1.391 . S
C1261 C1260 1.386 . S
C1261 C1265 1.393 . S
C1262 H1254 0.950 . S
C1262 C1260 1.391 . S
C1262 C1263 1.400 . S
C1263 C1262 1.400 . S
C1263 C1264 1.398 . S
C1263 C1269 1.491 . S
C1264 H1255 0.950 . S
C1264 C1263 1.398 . S
C1264 C1265 1.391 . S
C1265 H1253 0.950 . S
C1265 C1261 1.393 . S
C1265 C1264 1.391 . S
C1266 H1256 0.950 . S
C1266 C1267 1.386 . S
C1266 C1268 1.391 . S
C1267 C1266 1.386 . S
C1267 C1271 1.393 . S
C1268 H1257 0.950 . S
C1268 C1266 1.391 . S
C1268 C1269 1.400 . S
C1269 C1263 1.491 . S
C1269 C1268 1.400 . S
C1269 C1270 1.398 . S
C1270 H1258 0.950 . S
C1270 C1269 1.398 . S
C1270 C1271 1.391 . S
C1271 H1259 0.950 . S
C1271 C1267 1.393 . S
C1271 C1270 1.391 . S
H1272 C1280 0.950 . S
H1273 C1285 0.950 . S
H1274 C1282 0.950 . S
H1275 C1284 0.950 . S
H1276 C1286 0.950 . S
H1277 C1288 0.950 . S
H1278 C1290 0.950 . S
H1279 C1291 0.950 . S
C1280 H1272 0.950 . S
C1280 C1281 1.386 . S
C1280 C1282 1.391 . S
C1281 C1280 1.386 . S
C1281 C1285 1.393 . S
C1282 H1274 0.950 . S
C1282 C1280 1.391 . S
C1282 C1283 1.400 . S
C1283 C1282 1.400 . S
C1283 C1284 1.398 . S
C1283 C1289 1.491 . S
C1284 H1275 0.950 . S
C1284 C1283 1.398 . S
C1284 C1285 1.391 . S
C1285 H1273 0.950 . S
C1285 C1281 1.393 . S
C1285 C1284 1.391 . S
C1286 H1276 0.950 . S
C1286 C1287 1.386 . S
C1286 C1288 1.391 . S
C1287 C1286 1.386 . S
C1287 C1291 1.393 . S
C1288 H1277 0.950 . S
C1288 C1286 1.391 . S
C1288 C1289 1.400 . S
C1289 C1283 1.491 . S
C1289 C1288 1.400 . S
C1289 C1290 1.398 . S
C1290 H1278 0.950 . S
C1290 C1289 1.398 . S
C1290 C1291 1.391 . S
C1291 H1279 0.950 . S
C1291 C1287 1.393 . S
C1291 C1290 1.391 . S
H1292 C1300 0.950 . S
H1293 C1305 0.950 . S
H1294 C1302 0.950 . S
H1295 C1304 0.950 . S
H1296 C1306 0.950 . S
H1297 C1308 0.950 1_455 S
H1298 C1310 0.950 . S
H1299 C1311 0.950 . S
C1300 H1292 0.950 . S
C1300 C1301 1.386 . S
C1300 C1302 1.391 . S
C1301 C1300 1.386 . S
C1301 C1305 1.393 . S
C1302 H1294 0.950 . S
C1302 C1300 1.391 . S
C1302 C1303 1.400 . S
C1303 C1302 1.400 . S
C1303 C1304 1.398 . S
C1303 C1309 1.491 . S
C1304 H1295 0.950 . S
C1304 C1303 1.398 . S
C1304 C1305 1.391 . S
C1305 H1293 0.950 . S
C1305 C1301 1.393 . S
C1305 C1304 1.391 . S
C1306 H1296 0.950 . S
C1306 C1307 1.386 . S
C1306 C1308 1.391 . S
C1307 C1306 1.386 . S
C1307 C1311 1.393 . S
C1308 H1297 0.950 1_655 S
C1308 C1306 1.391 . S
C1308 C1309 1.400 1_655 S
C1309 C1303 1.491 . S
C1309 C1308 1.400 1_455 S
C1309 C1310 1.398 1_455 S
C1310 H1298 0.950 . S
C1310 C1309 1.398 1_655 S
C1310 C1311 1.391 . S
C1311 H1299 0.950 . S
C1311 C1307 1.393 . S
C1311 C1310 1.391 . S
H1312 C1320 0.950 . S
H1313 C1325 0.950 . S
H1314 C1322 0.950 . S
H1315 C1324 0.950 . S
H1316 C1326 0.950 . S
H1317 C1328 0.950 . S
H1318 C1330 0.950 . S
H1319 C1331 0.950 . S
C1320 H1312 0.950 . S
C1320 C1321 1.386 . S
C1320 C1322 1.391 . S
C1321 C1320 1.386 . S
C1321 C1325 1.393 . S
C1322 H1314 0.950 . S
C1322 C1320 1.391 . S
C1322 C1323 1.400 . S
C1323 C1322 1.400 . S
C1323 C1324 1.398 . S
C1323 C1329 1.491 . S
C1324 H1315 0.950 . S
C1324 C1323 1.398 . S
C1324 C1325 1.391 . S
C1325 H1313 0.950 . S
C1325 C1321 1.393 . S
C1325 C1324 1.391 . S
C1326 H1316 0.950 . S
C1326 C1327 1.386 . S
C1326 C1328 1.391 . S
C1327 C1326 1.386 . S
C1327 C1331 1.393 . S
C1328 H1317 0.950 . S
C1328 C1326 1.391 . S
C1328 C1329 1.400 . S
C1329 C1323 1.491 . S
C1329 C1328 1.400 . S
C1329 C1330 1.398 . S
C1330 H1318 0.950 . S
C1330 C1329 1.398 . S
C1330 C1331 1.391 . S
C1331 H1319 0.950 . S
C1331 C1327 1.393 . S
C1331 C1330 1.391 . S
H1332 C1340 0.950 . S
H1333 C1345 0.950 . S
H1334 C1342 0.950 . S
H1335 C1344 0.950 . S
H1336 C1346 0.950 . S
H1337 C1348 0.950 . S
H1338 C1350 0.950 . S
H1339 C1351 0.950 . S
C1340 H1332 0.950 . S
C1340 C1341 1.386 . S
C1340 C1342 1.391 . S
C1341 C1340 1.386 . S
C1341 C1345 1.393 . S
C1342 H1334 0.950 . S
C1342 C1340 1.391 . S
C1342 C1343 1.400 . S
C1343 C1342 1.400 . S
C1343 C1344 1.398 . S
C1343 C1349 1.491 . S
C1344 H1335 0.950 . S
C1344 C1343 1.398 . S
C1344 C1345 1.391 . S
C1345 H1333 0.950 . S
C1345 C1341 1.393 . S
C1345 C1344 1.391 . S
C1346 H1336 0.950 . S
C1346 C1347 1.386 . S
C1346 C1348 1.391 . S
C1347 C1346 1.386 . S
C1347 C1351 1.393 . S
C1348 H1337 0.950 . S
C1348 C1346 1.391 . S
C1348 C1349 1.400 . S
C1349 C1343 1.491 . S
C1349 C1348 1.400 . S
C1349 C1350 1.398 . S
C1350 H1338 0.950 . S
C1350 C1349 1.398 . S
C1350 C1351 1.391 . S
C1351 H1339 0.950 . S
C1351 C1347 1.393 . S
C1351 C1350 1.391 . S
H1352 C1360 0.950 . S
H1353 C1365 0.950 . S
H1354 C1362 0.950 . S
H1355 C1364 0.950 . S
H1356 C1366 0.950 . S
H1357 C1368 0.950 . S
H1358 C1370 0.950 . S
H1359 C1371 0.950 . S
C1360 H1352 0.950 . S
C1360 C1361 1.386 . S
C1360 C1362 1.391 . S
C1361 C1360 1.386 . S
C1361 C1365 1.393 . S
C1362 H1354 0.950 . S
C1362 C1360 1.391 . S
C1362 C1363 1.400 . S
C1363 C1362 1.400 . S
C1363 C1364 1.398 . S
C1363 C1369 1.491 . S
C1364 H1355 0.950 . S
C1364 C1363 1.398 . S
C1364 C1365 1.391 . S
C1365 H1353 0.950 . S
C1365 C1361 1.393 . S
C1365 C1364 1.391 . S
C1366 H1356 0.950 . S
C1366 C1367 1.386 . S
C1366 C1368 1.391 . S
C1367 C1366 1.386 . S
C1367 C1371 1.393 . S
C1368 H1357 0.950 . S
C1368 C1366 1.391 . S
C1368 C1369 1.400 . S
C1369 C1363 1.491 . S
C1369 C1368 1.400 . S
C1369 C1370 1.398 . S
C1370 H1358 0.950 . S
C1370 C1369 1.398 . S
C1370 C1371 1.391 . S
C1371 H1359 0.950 . S
C1371 C1367 1.393 . S
C1371 C1370 1.391 . S
H1372 C1380 0.950 . S
H1373 C1385 0.950 . S
H1374 C1382 0.950 . S
H1375 C1384 0.950 . S
H1376 C1386 0.950 . S
H1377 C1388 0.950 . S
H1378 C1390 0.964 . S
H1379 C1391 0.950 . S
C1380 H1372 0.950 . S
C1380 C1381 1.386 . S
C1380 C1382 1.391 . S
C1381 C1380 1.386 . S
C1381 C1385 1.393 . S
C1382 H1374 0.950 . S
C1382 C1380 1.391 . S
C1382 C1383 1.400 . S
C1383 C1382 1.400 . S
C1383 C1384 1.398 . S
C1383 C1389 1.491 . S
C1384 H1375 0.950 . S
C1384 C1383 1.398 . S
C1384 C1385 1.391 . S
C1385 H1373 0.950 . S
C1385 C1381 1.393 . S
C1385 C1384 1.391 . S
C1386 H1376 0.950 . S
C1386 C1387 1.386 . S
C1386 C1388 1.391 . S
C1387 C1386 1.386 . S
C1387 C1391 1.393 . S
C1388 H1377 0.950 . S
C1388 C1386 1.391 . S
C1388 C1389 1.400 1_554 S
C1389 C1383 1.491 . S
C1389 C1388 1.400 1_556 S
C1389 C1390 1.404 . S
C1390 H1378 0.964 . S
C1390 C1389 1.404 . S
C1390 C1391 1.371 1_556 S
C1391 H1379 0.950 . S
C1391 C1387 1.393 . S
C1391 C1390 1.371 1_554 S
H1392 C1400 0.950 . S
H1393 C1405 0.950 . S
H1394 C1402 0.950 . S
H1395 C1404 0.950 . S
H1396 C1406 0.950 . S
H1397 C1408 0.950 . S
H1398 C1410 0.950 . S
H1399 C1411 0.950 . S
C1400 H1392 0.950 . S
C1400 C1401 1.386 . S
C1400 C1402 1.391 . S
C1401 C1400 1.386 . S
C1401 C1405 1.393 . S
C1402 H1394 0.950 . S
C1402 C1400 1.391 . S
C1402 C1403 1.400 . S
C1403 C1402 1.400 . S
C1403 C1404 1.398 . S
C1403 C1409 1.491 . S
C1404 H1395 0.950 . S
C1404 C1403 1.398 . S
C1404 C1405 1.391 . S
C1405 H1393 0.950 . S
C1405 C1401 1.393 . S
C1405 C1404 1.391 . S
C1406 H1396 0.950 . S
C1406 C1407 1.386 . S
C1406 C1408 1.391 . S
C1407 C1406 1.386 . S
C1407 C1411 1.393 . S
C1408 H1397 0.950 . S
C1408 C1406 1.391 . S
C1408 C1409 1.400 . S
C1409 C1403 1.491 . S
C1409 C1408 1.400 . S
C1409 C1410 1.398 . S
C1410 H1398 0.950 . S
C1410 C1409 1.398 . S
C1410 C1411 1.391 . S
C1411 H1399 0.950 . S
C1411 C1407 1.393 . S
C1411 C1410 1.391 . S
H1412 C1420 0.950 . S
H1413 C1425 0.950 . S
H1414 C1422 0.950 . S
H1415 C1424 0.950 . S
H1416 C1426 0.950 . S
H1417 C1428 0.950 . S
H1418 C1430 0.950 . S
H1419 C1431 0.950 . S
C1420 H1412 0.950 . S
C1420 C1421 1.386 . S
C1420 C1422 1.391 . S
C1421 C1420 1.386 . S
C1421 C1425 1.393 . S
C1422 H1414 0.950 . S
C1422 C1420 1.391 . S
C1422 C1423 1.400 . S
C1423 C1422 1.400 . S
C1423 C1424 1.398 . S
C1423 C1429 1.491 . S
C1424 H1415 0.950 . S
C1424 C1423 1.398 . S
C1424 C1425 1.391 . S
C1425 H1413 0.950 . S
C1425 C1421 1.393 . S
C1425 C1424 1.391 . S
C1426 H1416 0.950 . S
C1426 C1427 1.386 . S
C1426 C1428 1.391 . S
C1427 C1426 1.386 . S
C1427 C1431 1.393 . S
C1428 H1417 0.950 . S
C1428 C1426 1.391 . S
C1428 C1429 1.400 . S
C1429 C1423 1.491 . S
C1429 C1428 1.400 . S
C1429 C1430 1.398 . S
C1430 H1418 0.950 . S
C1430 C1429 1.398 . S
C1430 C1431 1.391 . S
C1431 H1419 0.950 . S
C1431 C1427 1.393 . S
C1431 C1430 1.391 . S
H1432 C1440 0.950 . S
H1433 C1445 0.950 . S
H1434 C1442 0.950 . S
H1435 C1444 0.950 . S
H1436 C1446 0.950 . S
H1437 C1448 0.950 . S
H1438 C1450 0.950 . S
H1439 C1451 0.950 . S
C1440 H1432 0.950 . S
C1440 C1441 1.386 . S
C1440 C1442 1.391 . S
C1441 C1440 1.386 . S
C1441 C1445 1.393 . S
C1442 H1434 0.950 . S
C1442 C1440 1.391 . S
C1442 C1443 1.400 . S
C1443 C1442 1.400 . S
C1443 C1444 1.398 . S
C1443 C1449 1.491 . S
C1444 H1435 0.950 . S
C1444 C1443 1.398 . S
C1444 C1445 1.391 . S
C1445 H1433 0.950 . S
C1445 C1441 1.393 . S
C1445 C1444 1.391 . S
C1446 H1436 0.950 . S
C1446 C1447 1.386 . S
C1446 C1448 1.391 . S
C1447 C1446 1.386 . S
C1447 C1451 1.393 . S
C1448 H1437 0.950 . S
C1448 C1446 1.391 . S
C1448 C1449 1.400 . S
C1449 C1443 1.491 . S
C1449 C1448 1.400 . S
C1449 C1450 1.398 . S
C1450 H1438 0.950 . S
C1450 C1449 1.398 . S
C1450 C1451 1.391 . S
C1451 H1439 0.950 . S
C1451 C1447 1.393 . S
C1451 C1450 1.391 . S
H1452 C1460 0.950 . S
H1453 C1465 0.950 . S
H1454 C1462 0.950 1_554 S
H1455 C1464 0.950 1_554 S
H1456 C1466 0.950 . S
H1457 C1468 0.950 . S
H1458 C1470 0.950 . S
H1459 C1471 0.950 . S
C1460 H1452 0.950 . S
C1460 C1461 1.386 . S
C1460 C1462 1.391 . S
C1461 C1460 1.386 . S
C1461 C1465 1.393 . S
C1462 H1454 0.950 1_556 S
C1462 C1460 1.391 . S
C1462 C1463 1.400 1_556 S
C1463 C1462 1.400 1_554 S
C1463 C1464 1.398 1_554 S
C1463 C1469 1.491 . S
C1464 H1455 0.950 1_556 S
C1464 C1463 1.398 1_556 S
C1464 C1465 1.391 . S
C1465 H1453 0.950 . S
C1465 C1461 1.393 . S
C1465 C1464 1.391 . S
C1466 H1456 0.950 . S
C1466 C1467 1.386 . S
C1466 C1468 1.391 . S
C1467 C1466 1.386 . S
C1467 C1471 1.393 . S
C1468 H1457 0.950 . S
C1468 C1466 1.391 . S
C1468 C1469 1.400 . S
C1469 C1463 1.491 . S
C1469 C1468 1.400 . S
C1469 C1470 1.398 . S
C1470 H1458 0.950 . S
C1470 C1469 1.398 . S
C1470 C1471 1.391 . S
C1471 H1459 0.950 . S
C1471 C1467 1.393 . S
C1471 C1470 1.391 . S
H1472 C1480 0.950 . S
H1473 C1485 0.950 . S
H1474 C1482 0.950 . S
H1475 C1484 0.950 . S
H1476 C1486 0.950 . S
H1477 C1488 0.950 . S
H1478 C1490 0.950 . S
H1479 C1491 0.950 . S
C1480 H1472 0.950 . S
C1480 C1481 1.386 . S
C1480 C1482 1.391 . S
C1481 C1480 1.386 . S
C1481 C1485 1.393 . S
C1482 H1474 0.950 . S
C1482 C1480 1.391 . S
C1482 C1483 1.400 . S
C1483 C1482 1.400 . S
C1483 C1484 1.398 . S
C1483 C1489 1.491 . S
C1484 H1475 0.950 . S
C1484 C1483 1.398 . S
C1484 C1485 1.391 . S
C1485 H1473 0.950 . S
C1485 C1481 1.393 . S
C1485 C1484 1.391 . S
C1486 H1476 0.950 . S
C1486 C1487 1.386 . S
C1486 C1488 1.391 . S
C1487 C1486 1.386 . S
C1487 C1491 1.393 . S
C1488 H1477 0.950 . S
C1488 C1486 1.391 . S
C1488 C1489 1.400 . S
C1489 C1483 1.491 . S
C1489 C1488 1.400 . S
C1489 C1490 1.398 . S
C1490 H1478 0.950 . S
C1490 C1489 1.398 . S
C1490 C1491 1.391 . S
C1491 H1479 0.950 . S
C1491 C1487 1.393 . S
C1491 C1490 1.391 . S
H1492 C1500 0.950 . S
H1493 C1505 0.950 . S
H1494 C1502 0.950 . S
H1495 C1504 0.950 . S
H1496 C1506 0.950 . S
H1497 C1508 0.950 . S
H1498 C1510 0.950 . S
H1499 C1511 0.950 . S
C1500 H1492 0.950 . S
C1500 C1501 1.386 . S
C1500 C1502 1.391 . S
C1501 C1500 1.386 . S
C1501 C1505 1.393 . S
C1502 H1494 0.950 . S
C1502 C1500 1.391 . S
C1502 C1503 1.400 . S
C1503 C1502 1.400 . S
C1503 C1504 1.398 . S
C1503 C1509 1.491 . S
C1504 H1495 0.950 . S
C1504 C1503 1.398 . S
C1504 C1505 1.391 . S
C1505 H1493 0.950 . S
C1505 C1501 1.393 . S
C1505 C1504 1.391 . S
C1506 H1496 0.950 . S
C1506 C1507 1.386 . S
C1506 C1508 1.391 . S
C1507 C1506 1.386 . S
C1507 C1511 1.393 . S
C1508 H1497 0.950 . S
C1508 C1506 1.391 . S
C1508 C1509 1.400 . S
C1509 C1503 1.491 . S
C1509 C1508 1.400 . S
C1509 C1510 1.398 . S
C1510 H1498 0.950 . S
C1510 C1509 1.398 . S
C1510 C1511 1.391 . S
C1511 H1499 0.950 . S
C1511 C1507 1.393 . S
C1511 C1510 1.391 . S
H1512 C1520 0.950 . S
H1513 C1525 0.950 . S
H1514 C1522 0.950 . S
H1515 C1524 0.950 . S
H1516 C1526 0.950 . S
H1517 C1528 0.950 . S
H1518 C1530 0.950 . S
H1519 C1531 0.950 . S
C1520 H1512 0.950 . S
C1520 C1521 1.386 . S
C1520 C1522 1.391 . S
C1521 C1520 1.386 . S
C1521 C1525 1.393 . S
C1522 H1514 0.950 . S
C1522 C1520 1.391 . S
C1522 C1523 1.400 . S
C1523 C1522 1.400 . S
C1523 C1524 1.398 . S
C1523 C1529 1.491 . S
C1524 H1515 0.950 . S
C1524 C1523 1.398 . S
C1524 C1525 1.391 . S
C1525 H1513 0.950 . S
C1525 C1521 1.393 . S
C1525 C1524 1.391 . S
C1526 H1516 0.950 . S
C1526 C1527 1.386 . S
C1526 C1528 1.391 . S
C1527 C1526 1.386 . S
C1527 C1531 1.393 . S
C1528 H1517 0.950 . S
C1528 C1526 1.391 . S
C1528 C1529 1.400 . S
C1529 C1523 1.491 . S
C1529 C1528 1.400 . S
C1529 C1530 1.398 . S
C1530 H1518 0.950 . S
C1530 C1529 1.398 . S
C1530 C1531 1.391 . S
C1531 H1519 0.950 . S
C1531 C1527 1.393 . S
C1531 C1530 1.391 . S
H1532 C1540 0.950 . S
H1533 C1545 0.950 . S
H1534 C1542 0.950 . S
H1535 C1544 0.950 . S
H1536 C1546 0.950 . S
H1537 C1548 0.950 . S
H1538 C1550 0.950 . S
H1539 C1551 0.950 . S
C1540 H1532 0.950 . S
C1540 C1541 1.386 . S
C1540 C1542 1.391 . S
C1541 C1540 1.386 . S
C1541 C1545 1.393 . S
C1542 H1534 0.950 . S
C1542 C1540 1.391 . S
C1542 C1543 1.400 . S
C1543 C1542 1.400 . S
C1543 C1544 1.398 . S
C1543 C1549 1.491 . S
C1544 H1535 0.950 . S
C1544 C1543 1.398 . S
C1544 C1545 1.391 . S
C1545 H1533 0.950 . S
C1545 C1541 1.393 . S
C1545 C1544 1.391 . S
C1546 H1536 0.950 . S
C1546 C1547 1.386 . S
C1546 C1548 1.391 . S
C1547 C1546 1.386 . S
C1547 C1551 1.393 . S
C1548 H1537 0.950 . S
C1548 C1546 1.391 . S
C1548 C1549 1.400 . S
C1549 C1543 1.491 . S
C1549 C1548 1.400 . S
C1549 C1550 1.398 . S
C1550 H1538 0.950 . S
C1550 C1549 1.398 . S
C1550 C1551 1.391 . S
C1551 H1539 0.950 . S
C1551 C1547 1.393 . S
C1551 C1550 1.391 . S
H1552 C1560 0.950 . S
H1553 C1565 0.950 . S
H1554 C1562 0.950 . S
H1555 C1564 0.983 . S
H1556 C1566 0.950 . S
H1557 C1568 0.950 . S
H1558 C1570 0.950 . S
H1559 C1571 0.950 . S
C1560 H1552 0.950 . S
C1560 C1561 1.386 . S
C1560 C1562 1.391 . S
C1561 C1560 1.386 . S
C1561 C1565 1.393 . S
C1562 H1554 0.950 . S
C1562 C1560 1.391 . S
C1562 C1563 1.400 1_565 S
C1563 C1562 1.400 1_545 S
C1563 C1564 1.416 . S
C1563 C1569 1.491 . S
C1564 H1555 0.983 . S
C1564 C1563 1.416 . S
C1564 C1565 1.341 1_545 S
C1565 H1553 0.950 . S
C1565 C1561 1.393 . S
C1565 C1564 1.341 1_565 S
C1566 H1556 0.950 . S
C1566 C1567 1.386 . S
C1566 C1568 1.391 . S
C1567 C1566 1.386 . S
C1567 C1571 1.393 . S
C1568 H1557 0.950 . S
C1568 C1566 1.391 . S
C1568 C1569 1.400 . S
C1569 C1563 1.491 . S
C1569 C1568 1.400 . S
C1569 C1570 1.398 . S
C1570 H1558 0.950 . S
C1570 C1569 1.398 . S
C1570 C1571 1.391 . S
C1571 H1559 0.950 . S
C1571 C1567 1.393 . S
C1571 C1570 1.391 . S
H1572 C1580 0.950 . S
H1573 C1585 0.950 . S
H1574 C1582 0.950 . S
H1575 C1584 0.950 . S
H1576 C1586 0.950 . S
H1577 C1588 0.950 . S
H1578 C1590 0.950 . S
H1579 C1591 0.950 . S
C1580 H1572 0.950 . S
C1580 C1581 1.386 . S
C1580 C1582 1.391 . S
C1581 C1580 1.386 . S
C1581 C1585 1.393 . S
C1582 H1574 0.950 . S
C1582 C1580 1.391 . S
C1582 C1583 1.400 . S
C1583 C1582 1.400 . S
C1583 C1584 1.398 . S
C1583 C1589 1.491 . S
C1584 H1575 0.950 . S
C1584 C1583 1.398 . S
C1584 C1585 1.391 . S
C1585 H1573 0.950 . S
C1585 C1581 1.393 . S
C1585 C1584 1.391 . S
C1586 H1576 0.950 . S
C1586 C1587 1.386 . S
C1586 C1588 1.391 . S
C1587 C1586 1.386 . S
C1587 C1591 1.393 . S
C1588 H1577 0.950 . S
C1588 C1586 1.391 . S
C1588 C1589 1.400 . S
C1589 C1583 1.491 . S
C1589 C1588 1.400 . S
C1589 C1590 1.398 . S
C1590 H1578 0.950 . S
C1590 C1589 1.398 . S
C1590 C1591 1.391 . S
C1591 H1579 0.950 . S
C1591 C1587 1.393 . S
C1591 C1590 1.391 . S
H1592 C1600 0.950 . S
H1593 C1605 0.950 . S
H1594 C1602 0.950 . S
H1595 C1604 0.950 . S
H1596 C1606 0.950 . S
H1597 C1608 0.950 . S
H1598 C1610 0.950 . S
H1599 C1611 0.950 . S
C1600 H1592 0.950 . S
C1600 C1601 1.386 . S
C1600 C1602 1.391 . S
C1601 C1600 1.386 . S
C1601 C1605 1.393 . S
C1602 H1594 0.950 . S
C1602 C1600 1.391 . S
C1602 C1603 1.400 . S
C1603 C1602 1.400 . S
C1603 C1604 1.398 . S
C1603 C1609 1.491 . S
C1604 H1595 0.950 . S
C1604 C1603 1.398 . S
C1604 C1605 1.391 . S
C1605 H1593 0.950 . S
C1605 C1601 1.393 . S
C1605 C1604 1.391 . S
C1606 H1596 0.950 . S
C1606 C1607 1.386 . S
C1606 C1608 1.391 . S
C1607 C1606 1.386 . S
C1607 C1611 1.393 . S
C1608 H1597 0.950 . S
C1608 C1606 1.391 . S
C1608 C1609 1.400 . S
C1609 C1603 1.491 . S
C1609 C1608 1.400 . S
C1609 C1610 1.398 . S
C1610 H1598 0.950 . S
C1610 C1609 1.398 . S
C1610 C1611 1.391 . S
C1611 H1599 0.950 . S
C1611 C1607 1.393 . S
C1611 C1610 1.391 . S
H1612 C1620 0.950 . S
H1613 C1625 0.950 . S
H1614 C1622 0.950 . S
H1615 C1624 0.950 . S
H1616 C1626 0.950 . S
H1617 C1628 0.950 . S
H1618 C1630 0.950 . S
H1619 C1631 0.950 . S
C1620 H1612 0.950 . S
C1620 C1621 1.386 . S
C1620 C1622 1.391 . S
C1621 C1620 1.386 . S
C1621 C1625 1.393 . S
C1622 H1614 0.950 . S
C1622 C1620 1.391 . S
C1622 C1623 1.400 . S
C1623 C1622 1.400 . S
C1623 C1624 1.398 . S
C1623 C1629 1.491 . S
C1624 H1615 0.950 . S
C1624 C1623 1.398 . S
C1624 C1625 1.391 . S
C1625 H1613 0.950 . S
C1625 C1621 1.393 . S
C1625 C1624 1.391 . S
C1626 H1616 0.950 . S
C1626 C1627 1.386 . S
C1626 C1628 1.391 . S
C1627 C1626 1.386 . S
C1627 C1631 1.393 . S
C1628 H1617 0.950 . S
C1628 C1626 1.391 . S
C1628 C1629 1.400 . S
C1629 C1623 1.491 . S
C1629 C1628 1.400 . S
C1629 C1630 1.398 . S
C1630 H1618 0.950 . S
C1630 C1629 1.398 . S
C1630 C1631 1.391 . S
C1631 H1619 0.950 . S
C1631 C1627 1.393 . S
C1631 C1630 1.391 . S
H1632 C1640 0.950 . S
H1633 C1645 0.950 . S
H1634 C1642 0.950 . S
H1635 C1644 0.950 . S
H1636 C1646 0.950 . S
H1637 C1648 0.950 . S
H1638 C1650 0.950 . S
H1639 C1651 0.950 . S
C1640 H1632 0.950 . S
C1640 C1641 1.386 . S
C1640 C1642 1.391 . S
C1641 C1640 1.386 . S
C1641 C1645 1.393 . S
C1642 H1634 0.950 . S
C1642 C1640 1.391 . S
C1642 C1643 1.400 . S
C1643 C1642 1.400 . S
C1643 C1644 1.398 . S
C1643 C1649 1.491 . S
C1644 H1635 0.950 . S
C1644 C1643 1.398 . S
C1644 C1645 1.391 . S
C1645 H1633 0.950 . S
C1645 C1641 1.393 . S
C1645 C1644 1.391 . S
C1646 H1636 0.950 . S
C1646 C1647 1.386 . S
C1646 C1648 1.391 . S
C1647 C1646 1.386 . S
C1647 C1651 1.393 . S
C1648 H1637 0.950 . S
C1648 C1646 1.391 . S
C1648 C1649 1.400 . S
C1649 C1643 1.491 . S
C1649 C1648 1.400 . S
C1649 C1650 1.398 . S
C1650 H1638 0.950 . S
C1650 C1649 1.398 . S
C1650 C1651 1.391 . S
C1651 H1639 0.950 . S
C1651 C1647 1.393 . S
C1651 C1650 1.391 . S
H1652 C1660 0.950 . S
H1653 C1665 0.950 . S
H1654 C1662 0.950 . S
H1655 C1664 0.950 . S
H1656 C1666 0.950 . S
H1657 C1668 0.950 . S
H1658 C1670 0.950 . S
H1659 C1671 0.950 . S
C1660 H1652 0.950 . S
C1660 C1661 1.386 . S
C1660 C1662 1.391 . S
C1661 C1660 1.386 . S
C1661 C1665 1.393 . S
C1662 H1654 0.950 . S
C1662 C1660 1.391 . S
C1662 C1663 1.400 . S
C1663 C1662 1.400 . S
C1663 C1664 1.398 . S
C1663 C1669 1.491 . S
C1664 H1655 0.950 . S
C1664 C1663 1.398 . S
C1664 C1665 1.391 . S
C1665 H1653 0.950 . S
C1665 C1661 1.393 . S
C1665 C1664 1.391 . S
C1666 H1656 0.950 . S
C1666 C1667 1.386 . S
C1666 C1668 1.391 . S
C1667 C1666 1.386 . S
C1667 C1671 1.393 . S
C1668 H1657 0.950 . S
C1668 C1666 1.391 . S
C1668 C1669 1.400 . S
C1669 C1663 1.491 . S
C1669 C1668 1.400 . S
C1669 C1670 1.398 . S
C1670 H1658 0.950 . S
C1670 C1669 1.398 . S
C1670 C1671 1.391 . S
C1671 H1659 0.950 . S
C1671 C1667 1.393 . S
C1671 C1670 1.391 . S
H1672 C1680 0.950 . S
H1673 C1685 0.950 . S
H1674 C1682 0.950 . S
H1675 C1684 0.950 . S
H1676 C1686 0.950 . S
H1677 C1688 0.950 . S
H1678 C1690 0.950 . S
H1679 C1691 0.950 . S
C1680 H1672 0.950 . S
C1680 C1681 1.386 . S
C1680 C1682 1.391 . S
C1681 C1680 1.386 . S
C1681 C1685 1.393 . S
C1682 H1674 0.950 . S
C1682 C1680 1.391 . S
C1682 C1683 1.400 . S
C1683 C1682 1.400 . S
C1683 C1684 1.398 . S
C1683 C1689 1.491 . S
C1684 H1675 0.950 . S
C1684 C1683 1.398 . S
C1684 C1685 1.391 . S
C1685 H1673 0.950 . S
C1685 C1681 1.393 . S
C1685 C1684 1.391 . S
C1686 H1676 0.950 . S
C1686 C1687 1.386 . S
C1686 C1688 1.391 . S
C1687 C1686 1.386 . S
C1687 C1691 1.393 . S
C1688 H1677 0.950 . S
C1688 C1686 1.391 . S
C1688 C1689 1.400 . S
C1689 C1683 1.491 . S
C1689 C1688 1.400 . S
C1689 C1690 1.398 . S
C1690 H1678 0.950 . S
C1690 C1689 1.398 . S
C1690 C1691 1.391 . S
C1691 H1679 0.950 . S
C1691 C1687 1.393 . S
C1691 C1690 1.391 . S
H1692 C1700 0.950 . S
H1693 C1705 0.950 . S
H1694 C1702 0.931 1_455 S
H1695 C1704 0.980 . S
H1696 C1706 0.950 . S
H1697 C1708 0.950 . S
H1698 C1710 0.950 . S
H1699 C1711 0.950 . S
C1700 H1692 0.950 . S
C1700 C1701 1.386 . S
C1700 C1702 1.391 . S
C1701 C1700 1.386 . S
C1701 C1705 1.393 . S
C1702 H1694 0.931 1_655 S
C1702 C1700 1.391 . S
C1702 C1703 1.400 1_655 S
C1703 C1702 1.400 1_455 S
C1703 C1704 1.417 . S
C1703 C1709 1.491 . S
C1704 H1695 0.980 . S
C1704 C1703 1.417 . S
C1704 C1705 1.344 1_455 S
C1705 H1693 0.950 . S
C1705 C1701 1.393 . S
C1705 C1704 1.344 1_655 S
C1706 H1696 0.950 . S
C1706 C1707 1.386 . S
C1706 C1708 1.391 . S
C1707 C1706 1.386 . S
C1707 C1711 1.393 . S
C1708 H1697 0.950 . S
C1708 C1706 1.391 . S
C1708 C1709 1.400 . S
C1709 C1703 1.491 . S
C1709 C1708 1.400 . S
C1709 C1710 1.398 . S
C1710 H1698 0.950 . S
C1710 C1709 1.398 . S
C1710 C1711 1.391 . S
C1711 H1699 0.950 . S
C1711 C1707 1.393 . S
C1711 C1710 1.391 . S
H1712 C1720 0.950 . S
H1713 C1725 0.950 . S
H1714 C1722 0.950 . S
H1715 C1724 0.950 . S
H1716 C1726 0.950 . S
H1717 C1728 0.950 . S
H1718 C1730 0.950 . S
H1719 C1731 0.950 . S
C1720 H1712 0.950 . S
C1720 C1721 1.386 . S
C1720 C1722 1.391 . S
C1721 C1720 1.386 . S
C1721 C1725 1.393 . S
C1722 H1714 0.950 . S
C1722 C1720 1.391 . S
C1722 C1723 1.400 . S
C1723 C1722 1.400 . S
C1723 C1724 1.398 . S
C1723 C1729 1.491 . S
C1724 H1715 0.950 . S
C1724 C1723 1.398 . S
C1724 C1725 1.391 . S
C1725 H1713 0.950 . S
C1725 C1721 1.393 . S
C1725 C1724 1.391 . S
C1726 H1716 0.950 . S
C1726 C1727 1.386 . S
C1726 C1728 1.391 . S
C1727 C1726 1.386 . S
C1727 C1731 1.393 . S
C1728 H1717 0.950 . S
C1728 C1726 1.391 . S
C1728 C1729 1.400 . S
C1729 C1723 1.491 . S
C1729 C1728 1.400 . S
C1729 C1730 1.398 . S
C1730 H1718 0.950 . S
C1730 C1729 1.398 . S
C1730 C1731 1.391 . S
C1731 H1719 0.950 . S
C1731 C1727 1.393 . S
C1731 C1730 1.391 . S
H1732 C1740 0.950 . S
H1733 C1745 0.950 . S
H1734 C1742 0.950 . S
H1735 C1744 0.950 . S
H1736 C1746 0.950 . S
H1737 C1748 0.948 . S
H1738 C1750 0.950 1_455 S
H1739 C1751 0.950 . S
C1740 H1732 0.950 . S
C1740 C1741 1.386 . S
C1740 C1742 1.391 . S
C1741 C1740 1.386 . S
C1741 C1745 1.393 . S
C1742 H1734 0.950 . S
C1742 C1740 1.391 . S
C1742 C1743 1.400 . S
C1743 C1742 1.400 . S
C1743 C1744 1.398 . S
C1743 C1749 1.491 . S
C1744 H1735 0.950 . S
C1744 C1743 1.398 . S
C1744 C1745 1.391 . S
C1745 H1733 0.950 . S
C1745 C1741 1.393 . S
C1745 C1744 1.391 . S
C1746 H1736 0.950 . S
C1746 C1747 1.386 . S
C1746 C1748 1.394 1_655 S
C1747 C1746 1.386 . S
C1747 C1751 1.393 . S
C1748 H1737 0.948 . S
C1748 C1746 1.394 1_455 S
C1748 C1749 1.399 . S
C1749 C1743 1.491 . S
C1749 C1748 1.399 . S
C1749 C1750 1.398 1_455 S
C1750 H1738 0.950 1_655 S
C1750 C1749 1.398 1_655 S
C1750 C1751 1.391 . S
C1751 H1739 0.950 . S
C1751 C1747 1.393 . S
C1751 C1750 1.391 . S
H1752 C1760 0.950 . S
H1753 C1765 0.950 . S
H1754 C1762 0.950 . S
H1755 C1764 0.950 . S
H1756 C1766 0.950 . S
H1757 C1768 0.950 . S
H1758 C1770 0.950 . S
H1759 C1771 0.950 . S
C1760 H1752 0.950 . S
C1760 C1761 1.386 . S
C1760 C1762 1.391 . S
C1761 C1760 1.386 . S
C1761 C1765 1.393 . S
C1762 H1754 0.950 . S
C1762 C1760 1.391 . S
C1762 C1763 1.400 . S
C1763 C1762 1.400 . S
C1763 C1764 1.398 . S
C1763 C1769 1.491 . S
C1764 H1755 0.950 . S
C1764 C1763 1.398 . S
C1764 C1765 1.391 . S
C1765 H1753 0.950 . S
C1765 C1761 1.393 . S
C1765 C1764 1.391 . S
C1766 H1756 0.950 . S
C1766 C1767 1.386 . S
C1766 C1768 1.391 . S
C1767 C1766 1.386 . S
C1767 C1771 1.393 . S
C1768 H1757 0.950 . S
C1768 C1766 1.391 . S
C1768 C1769 1.400 . S
C1769 C1763 1.491 . S
C1769 C1768 1.400 . S
C1769 C1770 1.398 . S
C1770 H1758 0.950 . S
C1770 C1769 1.398 . S
C1770 C1771 1.391 . S
C1771 H1759 0.950 . S
C1771 C1767 1.393 . S
C1771 C1770 1.391 . S
H1772 C1780 0.950 . S
H1773 C1785 0.950 . S
H1774 C1782 0.950 . S
H1775 C1784 0.950 . S
H1776 C1786 0.950 . S
H1777 C1788 0.950 . S
H1778 C1790 0.950 . S
H1779 C1791 0.950 . S
C1780 H1772 0.950 . S
C1780 C1781 1.386 . S
C1780 C1782 1.391 . S
C1781 C1780 1.386 . S
C1781 C1785 1.393 . S
C1782 H1774 0.950 . S
C1782 C1780 1.391 . S
C1782 C1783 1.400 . S
C1783 C1782 1.400 . S
C1783 C1784 1.398 . S
C1783 C1789 1.491 . S
C1784 H1775 0.950 . S
C1784 C1783 1.398 . S
C1784 C1785 1.391 . S
C1785 H1773 0.950 . S
C1785 C1781 1.393 . S
C1785 C1784 1.391 . S
C1786 H1776 0.950 . S
C1786 C1787 1.386 . S
C1786 C1788 1.391 . S
C1787 C1786 1.386 . S
C1787 C1791 1.393 . S
C1788 H1777 0.950 . S
C1788 C1786 1.391 . S
C1788 C1789 1.400 . S
C1789 C1783 1.491 . S
C1789 C1788 1.400 . S
C1789 C1790 1.398 . S
C1790 H1778 0.950 . S
C1790 C1789 1.398 . S
C1790 C1791 1.391 . S
C1791 H1779 0.950 . S
C1791 C1787 1.393 . S
C1791 C1790 1.391 . S
H1792 C1800 0.950 . S
H1793 C1805 0.950 . S
H1794 C1802 0.950 . S
H1795 C1804 0.950 . S
H1796 C1806 0.950 . S
H1797 C1808 0.950 . S
H1798 C1810 0.950 . S
H1799 C1811 0.950 . S
C1800 H1792 0.950 . S
C1800 C1801 1.386 . S
C1800 C1802 1.391 . S
C1801 C1800 1.386 . S
C1801 C1805 1.393 . S
C1802 H1794 0.950 . S
C1802 C1800 1.391 . S
C1802 C1803 1.400 . S
C1803 C1802 1.400 . S
C1803 C1804 1.398 . S
C1803 C1809 1.491 . S
C1804 H1795 0.950 . S
C1804 C1803 1.398 . S
C1804 C1805 1.391 . S
C1805 H1793 0.950 . S
C1805 C1801 1.393 . S
C1805 C1804 1.391 . S
C1806 H1796 0.950 . S
C1806 C1807 1.386 . S
C1806 C1808 1.391 . S
C1807 C1806 1.386 . S
C1807 C1811 1.393 . S
C1808 H1797 0.950 . S
C1808 C1806 1.391 . S
C1808 C1809 1.400 . S
C1809 C1803 1.491 . S
C1809 C1808 1.400 . S
C1809 C1810 1.398 . S
C1810 H1798 0.950 . S
C1810 C1809 1.398 . S
C1810 C1811 1.391 . S
C1811 H1799 0.950 . S
C1811 C1807 1.393 . S
C1811 C1810 1.391 . S
H1812 C1820 0.950 . S
H1813 C1825 0.950 . S
H1814 C1822 0.950 . S
H1815 C1824 0.950 . S
H1816 C1826 0.950 . S
H1817 C1828 0.950 1_554 S
H1818 C1830 0.950 . S
H1819 C1831 0.950 . S
C1820 H1812 0.950 . S
C1820 C1821 1.386 . S
C1820 C1822 1.391 . S
C1821 C1820 1.386 . S
C1821 C1825 1.393 . S
C1822 H1814 0.950 . S
C1822 C1820 1.391 . S
C1822 C1823 1.400 . S
C1823 C1822 1.400 . S
C1823 C1824 1.398 . S
C1823 C1829 1.491 . S
C1824 H1815 0.950 . S
C1824 C1823 1.398 . S
C1824 C1825 1.391 . S
C1825 H1813 0.950 . S
C1825 C1821 1.393 . S
C1825 C1824 1.391 . S
C1826 H1816 0.950 . S
C1826 C1827 1.386 . S
C1826 C1828 1.391 . S
C1827 C1826 1.386 . S
C1827 C1831 1.393 . S
C1828 H1817 0.950 1_556 S
C1828 C1826 1.391 . S
C1828 C1829 1.400 1_556 S
C1829 C1823 1.491 . S
C1829 C1828 1.400 1_554 S
C1829 C1830 1.398 1_554 S
C1830 H1818 0.950 . S
C1830 C1829 1.398 1_556 S
C1830 C1831 1.391 . S
C1831 H1819 0.950 . S
C1831 C1827 1.393 . S
C1831 C1830 1.391 . S
H1832 C1840 0.950 . S
H1833 C1845 0.950 . S
H1834 C1842 0.950 . S
H1835 C1844 0.950 . S
H1836 C1846 0.950 . S
H1837 C1848 0.950 . S
H1838 C1850 0.950 . S
H1839 C1851 0.950 . S
C1840 H1832 0.950 . S
C1840 C1841 1.386 . S
C1840 C1842 1.391 . S
C1841 C1840 1.386 . S
C1841 C1845 1.393 . S
C1842 H1834 0.950 . S
C1842 C1840 1.391 . S
C1842 C1843 1.400 . S
C1843 C1842 1.400 . S
C1843 C1844 1.398 . S
C1843 C1849 1.491 . S
C1844 H1835 0.950 . S
C1844 C1843 1.398 . S
C1844 C1845 1.391 . S
C1845 H1833 0.950 . S
C1845 C1841 1.393 . S
C1845 C1844 1.391 . S
C1846 H1836 0.950 . S
C1846 C1847 1.386 . S
C1846 C1848 1.391 . S
C1847 C1846 1.386 . S
C1847 C1851 1.393 . S
C1848 H1837 0.950 . S
C1848 C1846 1.391 . S
C1848 C1849 1.400 . S
C1849 C1843 1.491 . S
C1849 C1848 1.400 . S
C1849 C1850 1.398 . S
C1850 H1838 0.950 . S
C1850 C1849 1.398 . S
C1850 C1851 1.391 . S
C1851 H1839 0.950 . S
C1851 C1847 1.393 . S
C1851 C1850 1.391 . S
H1852 C1860 0.950 . S
H1853 C1865 0.950 . S
H1854 C1862 0.950 . S
H1855 C1864 0.950 . S
H1856 C1866 0.950 . S
H1857 C1868 0.950 . S
H1858 C1870 0.950 . S
H1859 C1871 0.950 . S
C1860 H1852 0.950 . S
C1860 C1861 1.386 . S
C1860 C1862 1.391 . S
C1861 C1860 1.386 . S
C1861 C1865 1.393 . S
C1862 H1854 0.950 . S
C1862 C1860 1.391 . S
C1862 C1863 1.400 . S
C1863 C1862 1.400 . S
C1863 C1864 1.398 . S
C1863 C1869 1.491 . S
C1864 H1855 0.950 . S
C1864 C1863 1.398 . S
C1864 C1865 1.391 . S
C1865 H1853 0.950 . S
C1865 C1861 1.393 . S
C1865 C1864 1.391 . S
C1866 H1856 0.950 . S
C1866 C1867 1.386 . S
C1866 C1868 1.391 . S
C1867 C1866 1.386 . S
C1867 C1871 1.393 . S
C1868 H1857 0.950 . S
C1868 C1866 1.391 . S
C1868 C1869 1.400 . S
C1869 C1863 1.491 . S
C1869 C1868 1.400 . S
C1869 C1870 1.398 . S
C1870 H1858 0.950 . S
C1870 C1869 1.398 . S
C1870 C1871 1.391 . S
C1871 H1859 0.950 . S
C1871 C1867 1.393 . S
C1871 C1870 1.391 . S
H1872 C1880 0.950 . S
H1873 C1885 0.950 . S
H1874 C1882 0.950 . S
H1875 C1884 0.950 . S
H1876 C1886 0.950 . S
H1877 C1888 0.950 . S
H1878 C1890 0.950 . S
H1879 C1891 0.950 . S
C1880 H1872 0.950 . S
C1880 C1881 1.386 . S
C1880 C1882 1.391 . S
C1881 C1880 1.386 . S
C1881 C1885 1.393 . S
C1882 H1874 0.950 . S
C1882 C1880 1.391 . S
C1882 C1883 1.400 . S
C1883 C1882 1.400 . S
C1883 C1884 1.398 . S
C1883 C1889 1.491 . S
C1884 H1875 0.950 . S
C1884 C1883 1.398 . S
C1884 C1885 1.391 . S
C1885 H1873 0.950 . S
C1885 C1881 1.393 . S
C1885 C1884 1.391 . S
C1886 H1876 0.950 . S
C1886 C1887 1.386 . S
C1886 C1888 1.391 . S
C1887 C1886 1.386 . S
C1887 C1891 1.393 . S
C1888 H1877 0.950 . S
C1888 C1886 1.391 . S
C1888 C1889 1.400 . S
C1889 C1883 1.491 . S
C1889 C1888 1.400 . S
C1889 C1890 1.398 . S
C1890 H1878 0.950 . S
C1890 C1889 1.398 . S
C1890 C1891 1.391 . S
C1891 H1879 0.950 . S
C1891 C1887 1.393 . S
C1891 C1890 1.391 . S
H1892 C1900 0.950 . S
H1893 C1905 0.950 . S
H1894 C1902 0.950 . S
H1895 C1904 0.950 . S
H1896 C1906 0.950 . S
H1897 C1908 0.950 1_556 S
H1898 C1910 0.950 . S
H1899 C1911 0.950 . S
C1900 H1892 0.950 . S
C1900 C1901 1.386 . S
C1900 C1902 1.391 . S
C1901 C1900 1.386 . S
C1901 C1905 1.393 . S
C1902 H1894 0.950 . S
C1902 C1900 1.391 . S
C1902 C1903 1.400 . S
C1903 C1902 1.400 . S
C1903 C1904 1.398 . S
C1903 C1909 1.491 . S
C1904 H1895 0.950 . S
C1904 C1903 1.398 . S
C1904 C1905 1.391 . S
C1905 H1893 0.950 . S
C1905 C1901 1.393 . S
C1905 C1904 1.391 . S
C1906 H1896 0.950 . S
C1906 C1907 1.386 . S
C1906 C1908 1.391 . S
C1907 C1906 1.386 . S
C1907 C1911 1.393 . S
C1908 H1897 0.950 1_554 S
C1908 C1906 1.391 . S
C1908 C1909 1.400 1_554 S
C1909 C1903 1.491 . S
C1909 C1908 1.400 1_556 S
C1909 C1910 1.398 1_556 S
C1910 H1898 0.950 . S
C1910 C1909 1.398 1_554 S
C1910 C1911 1.391 . S
C1911 H1899 0.950 . S
C1911 C1907 1.393 . S
C1911 C1910 1.391 . S
H1912 C1920 0.950 . S
H1913 C1925 0.950 . S
H1914 C1922 0.950 . S
H1915 C1924 0.950 . S
H1916 C1926 0.950 . S
H1917 C1928 0.950 . S
H1918 C1930 0.950 . S
H1919 C1931 0.950 . S
C1920 H1912 0.950 . S
C1920 C1921 1.386 . S
C1920 C1922 1.391 . S
C1921 C1920 1.386 . S
C1921 C1925 1.393 . S
C1922 H1914 0.950 . S
C1922 C1920 1.391 . S
C1922 C1923 1.400 . S
C1923 C1922 1.400 . S
C1923 C1924 1.398 . S
C1923 C1929 1.491 . S
C1924 H1915 0.950 . S
C1924 C1923 1.398 . S
C1924 C1925 1.391 . S
C1925 H1913 0.950 . S
C1925 C1921 1.393 . S
C1925 C1924 1.391 . S
C1926 H1916 0.950 . S
C1926 C1927 1.386 . S
C1926 C1928 1.391 . S
C1927 C1926 1.386 . S
C1927 C1931 1.393 . S
C1928 H1917 0.950 . S
C1928 C1926 1.391 . S
C1928 C1929 1.400 . S
C1929 C1923 1.491 . S
C1929 C1928 1.400 . S
C1929 C1930 1.398 . S
C1930 H1918 0.950 . S
C1930 C1929 1.398 . S
C1930 C1931 1.391 . S
C1931 H1919 0.950 . S
C1931 C1927 1.393 . S
C1931 C1930 1.391 . S
H1932 C1940 0.950 . S
H1933 C1945 0.950 . S
H1934 C1942 0.950 . S
H1935 C1944 0.950 . S
H1936 C1946 0.950 . S
H1937 C1948 0.950 . S
H1938 C1950 0.950 . S
H1939 C1951 0.950 . S
C1940 H1932 0.950 . S
C1940 C1941 1.386 . S
C1940 C1942 1.391 . S
C1941 C1940 1.386 . S
C1941 C1945 1.393 . S
C1942 H1934 0.950 . S
C1942 C1940 1.391 . S
C1942 C1943 1.400 . S
C1943 C1942 1.400 . S
C1943 C1944 1.398 . S
C1943 C1949 1.491 . S
C1944 H1935 0.950 . S
C1944 C1943 1.398 . S
C1944 C1945 1.391 . S
C1945 H1933 0.950 . S
C1945 C1941 1.393 . S
C1945 C1944 1.391 . S
C1946 H1936 0.950 . S
C1946 C1947 1.386 . S
C1946 C1948 1.391 . S
C1947 C1946 1.386 . S
C1947 C1951 1.393 . S
C1948 H1937 0.950 . S
C1948 C1946 1.391 . S
C1948 C1949 1.400 . S
C1949 C1943 1.491 . S
C1949 C1948 1.400 . S
C1949 C1950 1.398 . S
C1950 H1938 0.950 . S
C1950 C1949 1.398 . S
C1950 C1951 1.391 . S
C1951 H1939 0.950 . S
C1951 C1947 1.393 . S
C1951 C1950 1.391 . S
H1952 C1960 0.950 . S
H1953 C1965 0.950 . S
H1954 C1962 0.950 . S
H1955 C1964 0.950 . S
H1956 C1966 0.950 . S
H1957 C1968 0.950 . S
H1958 C1970 0.950 . S
H1959 C1971 0.950 . S
C1960 H1952 0.950 . S
C1960 C1961 1.386 . S
C1960 C1962 1.391 . S
C1961 C1960 1.386 . S
C1961 C1965 1.393 . S
C1962 H1954 0.950 . S
C1962 C1960 1.391 . S
C1962 C1963 1.400 . S
C1963 C1962 1.400 . S
C1963 C1964 1.398 . S
C1963 C1969 1.491 . S
C1964 H1955 0.950 . S
C1964 C1963 1.398 . S
C1964 C1965 1.391 . S
C1965 H1953 0.950 . S
C1965 C1961 1.393 . S
C1965 C1964 1.391 . S
C1966 H1956 0.950 . S
C1966 C1967 1.386 . S
C1966 C1968 1.391 . S
C1967 C1966 1.386 . S
C1967 C1971 1.393 . S
C1968 H1957 0.950 . S
C1968 C1966 1.391 . S
C1968 C1969 1.400 . S
C1969 C1963 1.491 . S
C1969 C1968 1.400 . S
C1969 C1970 1.398 . S
C1970 H1958 0.950 . S
C1970 C1969 1.398 . S
C1970 C1971 1.391 . S
C1971 H1959 0.950 . S
C1971 C1967 1.393 . S
C1971 C1970 1.391 . S
H1972 C1980 0.950 . S
H1973 C1985 0.950 . S
H1974 C1982 0.950 . S
H1975 C1984 0.950 . S
H1976 C1986 0.950 . S
H1977 C1988 0.950 . S
H1978 C1990 0.950 . S
H1979 C1991 0.950 . S
C1980 H1972 0.950 . S
C1980 C1981 1.386 . S
C1980 C1982 1.391 . S
C1981 C1980 1.386 . S
C1981 C1985 1.393 . S
C1982 H1974 0.950 . S
C1982 C1980 1.391 . S
C1982 C1983 1.400 . S
C1983 C1982 1.400 . S
C1983 C1984 1.398 . S
C1983 C1989 1.491 . S
C1984 H1975 0.950 . S
C1984 C1983 1.398 . S
C1984 C1985 1.391 . S
C1985 H1973 0.950 . S
C1985 C1981 1.393 . S
C1985 C1984 1.391 . S
C1986 H1976 0.950 . S
C1986 C1987 1.386 . S
C1986 C1988 1.391 . S
C1987 C1986 1.386 . S
C1987 C1991 1.393 . S
C1988 H1977 0.950 . S
C1988 C1986 1.391 . S
C1988 C1989 1.400 . S
C1989 C1983 1.491 . S
C1989 C1988 1.400 . S
C1989 C1990 1.398 . S
C1990 H1978 0.950 . S
C1990 C1989 1.398 . S
C1990 C1991 1.391 . S
C1991 H1979 0.950 . S
C1991 C1987 1.393 . S
C1991 C1990 1.391 . S
H1992 C2000 0.950 . S
H1993 C2005 0.950 . S
H1994 C2002 0.950 . S
H1995 C2004 0.950 . S
H1996 C2006 0.950 . S
H1997 C2008 0.950 . S
H1998 C2010 0.926 1_545 S
H1999 C2011 0.950 . S
C2000 H1992 0.950 . S
C2000 C2001 1.386 . S
C2000 C2002 1.391 . S
C2001 C2000 1.386 . S
C2001 C2005 1.393 . S
C2002 H1994 0.950 . S
C2002 C2000 1.391 . S
C2002 C2003 1.400 . S
C2003 C2002 1.400 . S
C2003 C2004 1.398 . S
C2003 C2009 1.491 . S
C2004 H1995 0.950 . S
C2004 C2003 1.398 . S
C2004 C2005 1.391 . S
C2005 H1993 0.950 . S
C2005 C2001 1.393 . S
C2005 C2004 1.391 . S
C2006 H1996 0.950 . S
C2006 C2007 1.386 . S
C2006 C2008 1.391 . S
C2007 C2006 1.386 . S
C2007 C2011 1.393 . S
C2008 H1997 0.950 . S
C2008 C2006 1.391 . S
C2008 C2009 1.400 1_565 S
C2009 C2003 1.491 . S
C2009 C2008 1.400 1_545 S
C2009 C2010 1.385 1_545 S
C2010 H1998 0.926 1_565 S
C2010 C2009 1.385 1_565 S
C2010 C2011 1.429 . S
C2011 H1999 0.950 . S
C2011 C2007 1.393 . S
C2011 C2010 1.429 . S
H2012 C2020 0.950 . S
H2013 C2025 0.950 . S
H2014 C2022 0.950 . S
H2015 C2024 0.950 . S
H2016 C2026 0.950 . S
H2017 C2028 0.950 . S
H2018 C2030 0.950 . S
H2019 C2031 0.950 . S
C2020 H2012 0.950 . S
C2020 C2021 1.386 . S
C2020 C2022 1.391 . S
C2021 C2020 1.386 . S
C2021 C2025 1.393 . S
C2022 H2014 0.950 . S
C2022 C2020 1.391 . S
C2022 C2023 1.400 . S
C2023 C2022 1.400 . S
C2023 C2024 1.398 . S
C2023 C2029 1.491 . S
C2024 H2015 0.950 . S
C2024 C2023 1.398 . S
C2024 C2025 1.391 . S
C2025 H2013 0.950 . S
C2025 C2021 1.393 . S
C2025 C2024 1.391 . S
C2026 H2016 0.950 . S
C2026 C2027 1.386 . S
C2026 C2028 1.391 . S
C2027 C2026 1.386 . S
C2027 C2031 1.393 . S
C2028 H2017 0.950 . S
C2028 C2026 1.391 . S
C2028 C2029 1.400 . S
C2029 C2023 1.491 . S
C2029 C2028 1.400 . S
C2029 C2030 1.398 . S
C2030 H2018 0.950 . S
C2030 C2029 1.398 . S
C2030 C2031 1.391 . S
C2031 H2019 0.950 . S
C2031 C2027 1.393 . S
C2031 C2030 1.391 . S
H2032 C2040 0.950 . S
H2033 C2045 0.950 . S
H2034 C2042 0.950 . S
H2035 C2044 0.950 . S
H2036 C2046 0.950 . S
H2037 C2048 0.950 . S
H2038 C2050 0.950 . S
H2039 C2051 0.950 . S
C2040 H2032 0.950 . S
C2040 C2041 1.386 . S
C2040 C2042 1.391 . S
C2041 C2040 1.386 . S
C2041 C2045 1.393 . S
C2042 H2034 0.950 . S
C2042 C2040 1.391 . S
C2042 C2043 1.400 . S
C2043 C2042 1.400 . S
C2043 C2044 1.398 . S
C2043 C2049 1.491 . S
C2044 H2035 0.950 . S
C2044 C2043 1.398 . S
C2044 C2045 1.391 . S
C2045 H2033 0.950 . S
C2045 C2041 1.393 . S
C2045 C2044 1.391 . S
C2046 H2036 0.950 . S
C2046 C2047 1.386 . S
C2046 C2048 1.391 . S
C2047 C2046 1.386 . S
C2047 C2051 1.393 . S
C2048 H2037 0.950 . S
C2048 C2046 1.391 . S
C2048 C2049 1.400 . S
C2049 C2043 1.491 . S
C2049 C2048 1.400 . S
C2049 C2050 1.398 . S
C2050 H2038 0.950 . S
C2050 C2049 1.398 . S
C2050 C2051 1.391 . S
C2051 H2039 0.950 . S
C2051 C2047 1.393 . S
C2051 C2050 1.391 . S
H2052 C2060 0.950 . S
H2053 C2065 0.950 . S
H2054 C2062 0.950 . S
H2055 C2064 0.950 . S
H2056 C2066 0.950 . S
H2057 C2068 0.950 . S
H2058 C2070 0.950 . S
H2059 C2071 0.950 . S
C2060 H2052 0.950 . S
C2060 C2061 1.386 . S
C2060 C2062 1.391 . S
C2061 C2060 1.386 . S
C2061 C2065 1.393 . S
C2062 H2054 0.950 . S
C2062 C2060 1.391 . S
C2062 C2063 1.400 . S
C2063 C2062 1.400 . S
C2063 C2064 1.398 . S
C2063 C2069 1.491 . S
C2064 H2055 0.950 . S
C2064 C2063 1.398 . S
C2064 C2065 1.391 . S
C2065 H2053 0.950 . S
C2065 C2061 1.393 . S
C2065 C2064 1.391 . S
C2066 H2056 0.950 . S
C2066 C2067 1.386 . S
C2066 C2068 1.391 . S
C2067 C2066 1.386 . S
C2067 C2071 1.393 . S
C2068 H2057 0.950 . S
C2068 C2066 1.391 . S
C2068 C2069 1.400 . S
C2069 C2063 1.491 . S
C2069 C2068 1.400 . S
C2069 C2070 1.398 . S
C2070 H2058 0.950 . S
C2070 C2069 1.398 . S
C2070 C2071 1.391 . S
C2071 H2059 0.950 . S
C2071 C2067 1.393 . S
C2071 C2070 1.391 . S
H2072 C2080 0.950 . S
H2073 C2085 0.950 . S
H2074 C2082 0.950 . S
H2075 C2084 0.931 1_565 S
H2076 C2086 0.950 . S
H2077 C2088 0.950 . S
H2078 C2090 0.950 . S
H2079 C2091 0.950 . S
C2080 H2072 0.950 . S
C2080 C2081 1.386 . S
C2080 C2082 1.391 . S
C2081 C2080 1.386 . S
C2081 C2085 1.393 . S
C2082 H2074 0.950 . S
C2082 C2080 1.391 . S
C2082 C2083 1.400 1_545 S
C2083 C2082 1.400 1_565 S
C2083 C2084 1.388 1_565 S
C2083 C2089 1.491 . S
C2084 H2075 0.931 1_545 S
C2084 C2083 1.388 1_545 S
C2084 C2085 1.420 . S
C2085 H2073 0.950 . S
C2085 C2081 1.393 . S
C2085 C2084 1.420 . S
C2086 H2076 0.950 . S
C2086 C2087 1.386 . S
C2086 C2088 1.391 . S
C2087 C2086 1.386 . S
C2087 C2091 1.393 . S
C2088 H2077 0.950 . S
C2088 C2086 1.391 . S
C2088 C2089 1.400 . S
C2089 C2083 1.491 . S
C2089 C2088 1.400 . S
C2089 C2090 1.398 . S
C2090 H2078 0.950 . S
C2090 C2089 1.398 . S
C2090 C2091 1.391 . S
C2091 H2079 0.950 . S
C2091 C2087 1.393 . S
C2091 C2090 1.391 . S
H2092 C2100 0.950 . S
H2093 C2105 0.950 . S
H2094 C2102 0.950 . S
H2095 C2104 0.950 . S
H2096 C2106 0.950 . S
H2097 C2108 0.950 1_545 S
H2098 C2110 0.936 1_545 S
H2099 C2111 0.950 . S
C2100 H2092 0.950 . S
C2100 C2101 1.386 . S
C2100 C2102 1.391 . S
C2101 C2100 1.386 . S
C2101 C2105 1.393 . S
C2102 H2094 0.950 . S
C2102 C2100 1.391 . S
C2102 C2103 1.400 . S
C2103 C2102 1.400 . S
C2103 C2104 1.398 . S
C2103 C2109 1.491 . S
C2104 H2095 0.950 . S
C2104 C2103 1.398 . S
C2104 C2105 1.391 . S
C2105 H2093 0.950 . S
C2105 C2101 1.393 . S
C2105 C2104 1.391 . S
C2106 H2096 0.950 . S
C2106 C2107 1.386 . S
C2106 C2108 1.391 . S
C2107 C2106 1.386 . S
C2107 C2111 1.393 . S
C2108 H2097 0.950 1_565 S
C2108 C2106 1.391 . S
C2108 C2109 1.400 1_565 S
C2109 C2103 1.491 . S
C2109 C2108 1.400 1_545 S
C2109 C2110 1.386 1_545 S
C2110 H2098 0.936 1_565 S
C2110 C2109 1.386 1_565 S
C2110 C2111 1.417 . S
C2111 H2099 0.950 . S
C2111 C2107 1.393 . S
C2111 C2110 1.417 . S
H2112 C2120 0.950 . S
H2113 C2125 0.950 . S
H2114 C2122 0.950 . S
H2115 C2124 0.950 . S
H2116 C2126 0.950 . S
H2117 C2128 0.950 . S
H2118 C2130 0.950 . S
H2119 C2131 0.950 . S
C2120 H2112 0.950 . S
C2120 C2121 1.386 . S
C2120 C2122 1.391 . S
C2121 C2120 1.386 . S
C2121 C2125 1.393 . S
C2122 H2114 0.950 . S
C2122 C2120 1.391 . S
C2122 C2123 1.400 . S
C2123 C2122 1.400 . S
C2123 C2124 1.398 . S
C2123 C2129 1.491 . S
C2124 H2115 0.950 . S
C2124 C2123 1.398 . S
C2124 C2125 1.391 . S
C2125 H2113 0.950 . S
C2125 C2121 1.393 . S
C2125 C2124 1.391 . S
C2126 H2116 0.950 . S
C2126 C2127 1.386 . S
C2126 C2128 1.391 . S
C2127 C2126 1.386 . S
C2127 C2131 1.393 . S
C2128 H2117 0.950 . S
C2128 C2126 1.391 . S
C2128 C2129 1.400 . S
C2129 C2123 1.491 . S
C2129 C2128 1.400 . S
C2129 C2130 1.398 . S
C2130 H2118 0.950 . S
C2130 C2129 1.398 . S
C2130 C2131 1.391 . S
C2131 H2119 0.950 . S
C2131 C2127 1.393 . S
C2131 C2130 1.391 . S
H2132 C2140 0.950 . S
H2133 C2145 0.950 . S
H2134 C2142 0.950 . S
H2135 C2144 0.950 . S
H2136 C2146 0.950 . S
H2137 C2148 0.950 . S
H2138 C2150 0.950 . S
H2139 C2151 0.950 . S
C2140 H2132 0.950 . S
C2140 C2141 1.386 . S
C2140 C2142 1.391 . S
C2141 C2140 1.386 . S
C2141 C2145 1.393 . S
C2142 H2134 0.950 . S
C2142 C2140 1.391 . S
C2142 C2143 1.400 . S
C2143 C2142 1.400 . S
C2143 C2144 1.398 . S
C2143 C2149 1.491 . S
C2144 H2135 0.950 . S
C2144 C2143 1.398 . S
C2144 C2145 1.391 . S
C2145 H2133 0.950 . S
C2145 C2141 1.393 . S
C2145 C2144 1.391 . S
C2146 H2136 0.950 . S
C2146 C2147 1.386 . S
C2146 C2148 1.391 . S
C2147 C2146 1.386 . S
C2147 C2151 1.393 . S
C2148 H2137 0.950 . S
C2148 C2146 1.391 . S
C2148 C2149 1.400 . S
C2149 C2143 1.491 . S
C2149 C2148 1.400 . S
C2149 C2150 1.398 . S
C2150 H2138 0.950 . S
C2150 C2149 1.398 . S
C2150 C2151 1.391 . S
C2151 H2139 0.950 . S
C2151 C2147 1.393 . S
C2151 C2150 1.391 . S
H2152 C2160 0.950 . S
H2153 C2165 0.950 . S
H2154 C2162 0.950 . S
H2155 C2164 0.950 . S
H2156 C2166 0.950 . S
H2157 C2168 0.950 . S
H2158 C2170 0.950 . S
H2159 C2171 0.950 . S
C2160 H2152 0.950 . S
C2160 C2161 1.386 . S
C2160 C2162 1.391 . S
C2161 C2160 1.386 . S
C2161 C2165 1.393 . S
C2162 H2154 0.950 . S
C2162 C2160 1.391 . S
C2162 C2163 1.400 . S
C2163 C2162 1.400 . S
C2163 C2164 1.398 . S
C2163 C2169 1.491 . S
C2164 H2155 0.950 . S
C2164 C2163 1.398 . S
C2164 C2165 1.391 . S
C2165 H2153 0.950 . S
C2165 C2161 1.393 . S
C2165 C2164 1.391 . S
C2166 H2156 0.950 . S
C2166 C2167 1.386 . S
C2166 C2168 1.391 . S
C2167 C2166 1.386 . S
C2167 C2171 1.393 . S
C2168 H2157 0.950 . S
C2168 C2166 1.391 . S
C2168 C2169 1.400 . S
C2169 C2163 1.491 . S
C2169 C2168 1.400 . S
C2169 C2170 1.398 . S
C2170 H2158 0.950 . S
C2170 C2169 1.398 . S
C2170 C2171 1.391 . S
C2171 H2159 0.950 . S
C2171 C2167 1.393 . S
C2171 C2170 1.391 . S
H2172 C2180 0.950 . S
H2173 C2185 0.950 . S
H2174 C2182 0.950 1_655 S
H2175 C2184 0.950 . S
H2176 C2186 0.950 . S
H2177 C2188 0.950 . S
H2178 C2190 0.950 . S
H2179 C2191 0.950 . S
C2180 H2172 0.950 . S
C2180 C2181 1.386 . S
C2180 C2182 1.391 . S
C2181 C2180 1.386 . S
C2181 C2185 1.393 . S
C2182 H2174 0.950 1_455 S
C2182 C2180 1.391 . S
C2182 C2183 1.400 1_455 S
C2183 C2182 1.400 1_655 S
C2183 C2184 1.398 1_655 S
C2183 C2189 1.491 . S
C2184 H2175 0.950 . S
C2184 C2183 1.398 1_455 S
C2184 C2185 1.391 . S
C2185 H2173 0.950 . S
C2185 C2181 1.393 . S
C2185 C2184 1.391 . S
C2186 H2176 0.950 . S
C2186 C2187 1.386 . S
C2186 C2188 1.391 . S
C2187 C2186 1.386 . S
C2187 C2191 1.393 . S
C2188 H2177 0.950 . S
C2188 C2186 1.391 . S
C2188 C2189 1.400 . S
C2189 C2183 1.491 . S
C2189 C2188 1.400 . S
C2189 C2190 1.398 . S
C2190 H2178 0.950 . S
C2190 C2189 1.398 . S
C2190 C2191 1.391 . S
C2191 H2179 0.950 . S
C2191 C2187 1.393 . S
C2191 C2190 1.391 . S
H2192 C2200 0.950 . S
H2193 C2205 0.950 . S
H2194 C2202 0.950 . S
H2195 C2204 0.950 . S
H2196 C2206 0.950 . S
H2197 C2208 0.950 . S
H2198 C2210 0.950 . S
H2199 C2211 0.950 . S
C2200 H2192 0.950 . S
C2200 C2201 1.386 . S
C2200 C2202 1.391 . S
C2201 C2200 1.386 . S
C2201 C2205 1.393 . S
C2202 H2194 0.950 . S
C2202 C2200 1.391 . S
C2202 C2203 1.400 . S
C2203 C2202 1.400 . S
C2203 C2204 1.398 . S
C2203 C2209 1.491 . S
C2204 H2195 0.950 . S
C2204 C2203 1.398 . S
C2204 C2205 1.391 . S
C2205 H2193 0.950 . S
C2205 C2201 1.393 . S
C2205 C2204 1.391 . S
C2206 H2196 0.950 . S
C2206 C2207 1.386 . S
C2206 C2208 1.391 . S
C2207 C2206 1.386 . S
C2207 C2211 1.393 . S
C2208 H2197 0.950 . S
C2208 C2206 1.391 . S
C2208 C2209 1.400 . S
C2209 C2203 1.491 . S
C2209 C2208 1.400 . S
C2209 C2210 1.398 . S
C2210 H2198 0.950 . S
C2210 C2209 1.398 . S
C2210 C2211 1.391 . S
C2211 H2199 0.950 . S
C2211 C2207 1.393 . S
C2211 C2210 1.391 . S
H2212 C2220 0.950 . S
H2213 C2225 0.950 . S
H2214 C2222 0.950 . S
H2215 C2224 0.950 1_655 S
H2216 C2226 0.950 . S
H2217 C2228 0.950 . S
H2218 C2230 0.950 . S
H2219 C2231 0.950 . S
C2220 H2212 0.950 . S
C2220 C2221 1.386 . S
C2220 C2222 1.391 . S
C2221 C2220 1.386 . S
C2221 C2225 1.393 . S
C2222 H2214 0.950 . S
C2222 C2220 1.391 . S
C2222 C2223 1.400 1_455 S
C2223 C2222 1.400 1_655 S
C2223 C2224 1.398 1_655 S
C2223 C2229 1.491 . S
C2224 H2215 0.950 1_455 S
C2224 C2223 1.398 1_455 S
C2224 C2225 1.391 . S
C2225 H2213 0.950 . S
C2225 C2221 1.393 . S
C2225 C2224 1.391 . S
C2226 H2216 0.950 . S
C2226 C2227 1.386 . S
C2226 C2228 1.391 . S
C2227 C2226 1.386 . S
C2227 C2231 1.393 . S
C2228 H2217 0.950 . S
C2228 C2226 1.391 . S
C2228 C2229 1.400 . S
C2229 C2223 1.491 . S
C2229 C2228 1.400 . S
C2229 C2230 1.398 . S
C2230 H2218 0.950 . S
C2230 C2229 1.398 . S
C2230 C2231 1.391 . S
C2231 H2219 0.950 . S
C2231 C2227 1.393 . S
C2231 C2230 1.391 . S
H2232 C2240 0.950 . S
H2233 C2245 0.950 . S
H2234 C2242 0.950 . S
H2235 C2244 0.950 . S
H2236 C2246 0.950 . S
H2237 C2248 0.950 . S
H2238 C2250 0.950 . S
H2239 C2251 0.950 . S
C2240 H2232 0.950 . S
C2240 C2241 1.386 . S
C2240 C2242 1.391 . S
C2241 C2240 1.386 . S
C2241 C2245 1.393 . S
C2242 H2234 0.950 . S
C2242 C2240 1.391 . S
C2242 C2243 1.400 . S
C2243 C2242 1.400 . S
C2243 C2244 1.398 . S
C2243 C2249 1.491 . S
C2244 H2235 0.950 . S
C2244 C2243 1.398 . S
C2244 C2245 1.391 . S
C2245 H2233 0.950 . S
C2245 C2241 1.393 . S
C2245 C2244 1.391 . S
C2246 H2236 0.950 . S
C2246 C2247 1.386 . S
C2246 C2248 1.391 . S
C2247 C2246 1.386 . S
C2247 C2251 1.393 . S
C2248 H2237 0.950 . S
C2248 C2246 1.391 . S
C2248 C2249 1.400 . S
C2249 C2243 1.491 . S
C2249 C2248 1.400 . S
C2249 C2250 1.398 . S
C2250 H2238 0.950 . S
C2250 C2249 1.398 . S
C2250 C2251 1.391 . S
C2251 H2239 0.950 . S
C2251 C2247 1.393 . S
C2251 C2250 1.391 . S
H2252 C2260 0.950 . S
H2253 C2265 0.950 . S
H2254 C2262 0.950 . S
H2255 C2264 0.950 . S
H2256 C2266 0.950 . S
H2257 C2268 0.950 . S
H2258 C2270 0.950 . S
H2259 C2271 0.950 . S
C2260 H2252 0.950 . S
C2260 C2261 1.386 . S
C2260 C2262 1.391 . S
C2261 C2260 1.386 . S
C2261 C2265 1.393 . S
C2262 H2254 0.950 . S
C2262 C2260 1.391 . S
C2262 C2263 1.400 . S
C2263 C2262 1.400 . S
C2263 C2264 1.398 . S
C2263 C2269 1.491 . S
C2264 H2255 0.950 . S
C2264 C2263 1.398 . S
C2264 C2265 1.391 . S
C2265 H2253 0.950 . S
C2265 C2261 1.393 . S
C2265 C2264 1.391 . S
C2266 H2256 0.950 . S
C2266 C2267 1.386 . S
C2266 C2268 1.391 . S
C2267 C2266 1.386 . S
C2267 C2271 1.393 . S
C2268 H2257 0.950 . S
C2268 C2266 1.391 . S
C2268 C2269 1.400 . S
C2269 C2263 1.491 . S
C2269 C2268 1.400 . S
C2269 C2270 1.398 . S
C2270 H2258 0.950 . S
C2270 C2269 1.398 . S
C2270 C2271 1.391 . S
C2271 H2259 0.950 . S
C2271 C2267 1.393 . S
C2271 C2270 1.391 . S
H2272 C2280 0.950 . S
H2273 C2285 0.950 . S
H2274 C2282 0.950 . S
H2275 C2284 0.950 . S
H2276 C2286 0.950 . S
H2277 C2288 0.950 . S
H2278 C2290 0.950 . S
H2279 C2291 0.950 . S
C2280 H2272 0.950 . S
C2280 C2281 1.386 . S
C2280 C2282 1.391 . S
C2281 C2280 1.386 . S
C2281 C2285 1.393 . S
C2282 H2274 0.950 . S
C2282 C2280 1.391 . S
C2282 C2283 1.400 . S
C2283 C2282 1.400 . S
C2283 C2284 1.398 . S
C2283 C2289 1.491 . S
C2284 H2275 0.950 . S
C2284 C2283 1.398 . S
C2284 C2285 1.391 . S
C2285 H2273 0.950 . S
C2285 C2281 1.393 . S
C2285 C2284 1.391 . S
C2286 H2276 0.950 . S
C2286 C2287 1.386 . S
C2286 C2288 1.391 . S
C2287 C2286 1.386 . S
C2287 C2291 1.393 . S
C2288 H2277 0.950 . S
C2288 C2286 1.391 . S
C2288 C2289 1.400 . S
C2289 C2283 1.491 . S
C2289 C2288 1.400 . S
C2289 C2290 1.398 . S
C2290 H2278 0.950 . S
C2290 C2289 1.398 . S
C2290 C2291 1.391 . S
C2291 H2279 0.950 . S
C2291 C2287 1.393 . S
C2291 C2290 1.391 . S
H2292 C2300 0.950 . S
H2293 C2305 0.950 . S
H2294 C2302 0.950 . S
H2295 C2304 0.950 . S
H2296 C2306 0.950 . S
H2297 C2308 0.950 . S
H2298 C2310 0.971 . S
H2299 C2311 0.950 . S
C2300 H2292 0.950 . S
C2300 C2301 1.386 . S
C2300 C2302 1.391 . S
C2301 C2300 1.386 . S
C2301 C2305 1.393 . S
C2302 H2294 0.950 . S
C2302 C2300 1.391 . S
C2302 C2303 1.400 . S
C2303 C2302 1.400 . S
C2303 C2304 1.398 . S
C2303 C2309 1.491 . S
C2304 H2295 0.950 . S
C2304 C2303 1.398 . S
C2304 C2305 1.391 . S
C2305 H2293 0.950 . S
C2305 C2301 1.393 . S
C2305 C2304 1.391 . S
C2306 H2296 0.950 . S
C2306 C2307 1.386 . S
C2306 C2308 1.391 . S
C2307 C2306 1.386 . S
C2307 C2311 1.393 . S
C2308 H2297 0.950 . S
C2308 C2306 1.391 . S
C2308 C2309 1.400 1_554 S
C2309 C2303 1.491 . S
C2309 C2308 1.400 1_556 S
C2309 C2310 1.408 . S
C2310 H2298 0.971 . S
C2310 C2309 1.408 . S
C2310 C2311 1.361 1_556 S
C2311 H2299 0.950 . S
C2311 C2307 1.393 . S
C2311 C2310 1.361 1_554 S
H2312 C2320 0.950 . S
H2313 C2325 0.950 . S
H2314 C2322 0.950 . S
H2315 C2324 0.950 . S
H2316 C2326 0.950 . S
H2317 C2328 0.950 . S
H2318 C2330 0.950 . S
H2319 C2331 0.950 . S
C2320 H2312 0.950 . S
C2320 C2321 1.386 . S
C2320 C2322 1.391 . S
C2321 C2320 1.386 . S
C2321 C2325 1.393 . S
C2322 H2314 0.950 . S
C2322 C2320 1.391 . S
C2322 C2323 1.400 . S
C2323 C2322 1.400 . S
C2323 C2324 1.398 . S
C2323 C2329 1.491 . S
C2324 H2315 0.950 . S
C2324 C2323 1.398 . S
C2324 C2325 1.391 . S
C2325 H2313 0.950 . S
C2325 C2321 1.393 . S
C2325 C2324 1.391 . S
C2326 H2316 0.950 . S
C2326 C2327 1.386 . S
C2326 C2328 1.391 . S
C2327 C2326 1.386 . S
C2327 C2331 1.393 . S
C2328 H2317 0.950 . S
C2328 C2326 1.391 . S
C2328 C2329 1.400 . S
C2329 C2323 1.491 . S
C2329 C2328 1.400 . S
C2329 C2330 1.398 . S
C2330 H2318 0.950 . S
C2330 C2329 1.398 . S
C2330 C2331 1.391 . S
C2331 H2319 0.950 . S
C2331 C2327 1.393 . S
C2331 C2330 1.391 . S
H2332 C2340 0.950 . S
H2333 C2345 0.950 . S
H2334 C2342 0.950 . S
H2335 C2344 0.950 . S
H2336 C2346 0.950 . S
H2337 C2348 0.950 . S
H2338 C2350 0.950 . S
H2339 C2351 0.950 . S
C2340 H2332 0.950 . S
C2340 C2341 1.386 . S
C2340 C2342 1.391 . S
C2341 C2340 1.386 . S
C2341 C2345 1.393 . S
C2342 H2334 0.950 . S
C2342 C2340 1.391 . S
C2342 C2343 1.400 . S
C2343 C2342 1.400 . S
C2343 C2344 1.398 . S
C2343 C2349 1.491 . S
C2344 H2335 0.950 . S
C2344 C2343 1.398 . S
C2344 C2345 1.391 . S
C2345 H2333 0.950 . S
C2345 C2341 1.393 . S
C2345 C2344 1.391 . S
C2346 H2336 0.950 . S
C2346 C2347 1.386 . S
C2346 C2348 1.391 . S
C2347 C2346 1.386 . S
C2347 C2351 1.393 . S
C2348 H2337 0.950 . S
C2348 C2346 1.391 . S
C2348 C2349 1.400 . S
C2349 C2343 1.491 . S
C2349 C2348 1.400 . S
C2349 C2350 1.398 . S
C2350 H2338 0.950 . S
C2350 C2349 1.398 . S
C2350 C2351 1.391 . S
C2351 H2339 0.950 . S
C2351 C2347 1.393 . S
C2351 C2350 1.391 . S
H2352 C2360 0.950 . S
H2353 C2365 0.950 . S
H2354 C2362 0.950 . S
H2355 C2364 0.950 . S
H2356 C2366 0.950 . S
H2357 C2368 0.950 . S
H2358 C2370 0.950 . S
H2359 C2371 0.950 . S
C2360 H2352 0.950 . S
C2360 C2361 1.386 . S
C2360 C2362 1.391 . S
C2361 C2360 1.386 . S
C2361 C2365 1.393 . S
C2362 H2354 0.950 . S
C2362 C2360 1.391 . S
C2362 C2363 1.400 . S
C2363 C2362 1.400 . S
C2363 C2364 1.398 . S
C2363 C2369 1.491 . S
C2364 H2355 0.950 . S
C2364 C2363 1.398 . S
C2364 C2365 1.391 . S
C2365 H2353 0.950 . S
C2365 C2361 1.393 . S
C2365 C2364 1.391 . S
C2366 H2356 0.950 . S
C2366 C2367 1.386 . S
C2366 C2368 1.391 . S
C2367 C2366 1.386 . S
C2367 C2371 1.393 . S
C2368 H2357 0.950 . S
C2368 C2366 1.391 . S
C2368 C2369 1.400 . S
C2369 C2363 1.491 . S
C2369 C2368 1.400 . S
C2369 C2370 1.398 . S
C2370 H2358 0.950 . S
C2370 C2369 1.398 . S
C2370 C2371 1.391 . S
C2371 H2359 0.950 . S
C2371 C2367 1.393 . S
C2371 C2370 1.391 . S
H2372 C2380 0.950 . S
H2373 C2385 0.950 . S
H2374 C2382 0.950 . S
H2375 C2384 0.950 . S
H2376 C2386 0.950 . S
H2377 C2388 0.950 . S
H2378 C2390 0.950 . S
H2379 C2391 0.950 . S
C2380 H2372 0.950 . S
C2380 C2381 1.386 . S
C2380 C2382 1.391 . S
C2381 C2380 1.386 . S
C2381 C2385 1.393 . S
C2382 H2374 0.950 . S
C2382 C2380 1.391 . S
C2382 C2383 1.400 . S
C2383 C2382 1.400 . S
C2383 C2384 1.398 . S
C2383 C2389 1.491 . S
C2384 H2375 0.950 . S
C2384 C2383 1.398 . S
C2384 C2385 1.391 . S
C2385 H2373 0.950 . S
C2385 C2381 1.393 . S
C2385 C2384 1.391 . S
C2386 H2376 0.950 . S
C2386 C2387 1.386 . S
C2386 C2388 1.391 1_556 S
C2387 C2386 1.386 . S
C2387 C2391 1.393 . S
C2388 H2377 0.950 . S
C2388 C2386 1.391 1_554 S
C2388 C2389 1.400 . S
C2389 C2383 1.491 . S
C2389 C2388 1.400 . S
C2389 C2390 1.398 1_554 S
C2390 H2378 0.950 . S
C2390 C2389 1.398 1_556 S
C2390 C2391 1.391 . S
C2391 H2379 0.950 . S
C2391 C2387 1.393 . S
C2391 C2390 1.391 . S
H2392 C2400 0.950 . S
H2393 C2405 0.950 . S
H2394 C2402 0.950 . S
H2395 C2404 0.950 . S
H2396 C2406 0.950 . S
H2397 C2408 0.950 . S
H2398 C2410 0.950 . S
H2399 C2411 0.950 . S
C2400 H2392 0.950 . S
C2400 C2401 1.386 . S
C2400 C2402 1.391 . S
C2401 C2400 1.386 . S
C2401 C2405 1.393 . S
C2402 H2394 0.950 . S
C2402 C2400 1.391 . S
C2402 C2403 1.400 . S
C2403 C2402 1.400 . S
C2403 C2404 1.398 . S
C2403 C2409 1.491 . S
C2404 H2395 0.950 . S
C2404 C2403 1.398 . S
C2404 C2405 1.391 . S
C2405 H2393 0.950 . S
C2405 C2401 1.393 . S
C2405 C2404 1.391 . S
C2406 H2396 0.950 . S
C2406 C2407 1.386 . S
C2406 C2408 1.391 . S
C2407 C2406 1.386 . S
C2407 C2411 1.393 . S
C2408 H2397 0.950 . S
C2408 C2406 1.391 . S
C2408 C2409 1.400 . S
C2409 C2403 1.491 . S
C2409 C2408 1.400 . S
C2409 C2410 1.398 . S
C2410 H2398 0.950 . S
C2410 C2409 1.398 . S
C2410 C2411 1.391 . S
C2411 H2399 0.950 . S
C2411 C2407 1.393 . S
C2411 C2410 1.391 . S
H2412 C2420 0.950 . S
H2413 C2425 0.950 . S
H2414 C2422 0.950 . S
H2415 C2424 0.950 . S
H2416 C2426 0.950 . S
H2417 C2428 0.950 . S
H2418 C2430 0.950 . S
H2419 C2431 0.950 . S
C2420 H2412 0.950 . S
C2420 C2421 1.386 . S
C2420 C2422 1.391 . S
C2421 C2420 1.386 . S
C2421 C2425 1.393 . S
C2422 H2414 0.950 . S
C2422 C2420 1.391 . S
C2422 C2423 1.400 . S
C2423 C2422 1.400 . S
C2423 C2424 1.398 . S
C2423 C2429 1.491 . S
C2424 H2415 0.950 . S
C2424 C2423 1.398 . S
C2424 C2425 1.391 . S
C2425 H2413 0.950 . S
C2425 C2421 1.393 . S
C2425 C2424 1.391 . S
C2426 H2416 0.950 . S
C2426 C2427 1.386 . S
C2426 C2428 1.391 . S
C2427 C2426 1.386 . S
C2427 C2431 1.393 . S
C2428 H2417 0.950 . S
C2428 C2426 1.391 . S
C2428 C2429 1.400 . S
C2429 C2423 1.491 . S
C2429 C2428 1.400 . S
C2429 C2430 1.398 . S
C2430 H2418 0.950 . S
C2430 C2429 1.398 . S
C2430 C2431 1.391 . S
C2431 H2419 0.950 . S
C2431 C2427 1.393 . S
C2431 C2430 1.391 . S
H2432 C2440 0.950 . S
H2433 C2445 0.950 . S
H2434 C2442 0.950 . S
H2435 C2444 0.950 . S
H2436 C2446 0.950 . S
H2437 C2448 0.950 . S
H2438 C2450 0.950 . S
H2439 C2451 0.950 . S
C2440 H2432 0.950 . S
C2440 C2441 1.386 . S
C2440 C2442 1.391 . S
C2441 C2440 1.386 . S
C2441 C2445 1.393 . S
C2442 H2434 0.950 . S
C2442 C2440 1.391 . S
C2442 C2443 1.400 . S
C2443 C2442 1.400 . S
C2443 C2444 1.398 . S
C2443 C2449 1.491 . S
C2444 H2435 0.950 . S
C2444 C2443 1.398 . S
C2444 C2445 1.391 . S
C2445 H2433 0.950 . S
C2445 C2441 1.393 . S
C2445 C2444 1.391 . S
C2446 H2436 0.950 . S
C2446 C2447 1.386 . S
C2446 C2448 1.391 . S
C2447 C2446 1.386 . S
C2447 C2451 1.393 . S
C2448 H2437 0.950 . S
C2448 C2446 1.391 . S
C2448 C2449 1.400 . S
C2449 C2443 1.491 . S
C2449 C2448 1.400 . S
C2449 C2450 1.398 . S
C2450 H2438 0.950 . S
C2450 C2449 1.398 . S
C2450 C2451 1.391 . S
C2451 H2439 0.950 . S
C2451 C2447 1.393 . S
C2451 C2450 1.391 . S
H2452 C2460 0.950 . S
H2453 C2465 0.950 . S
H2454 C2462 0.950 . S
H2455 C2464 0.950 . S
H2456 C2466 0.950 . S
H2457 C2468 0.950 . S
H2458 C2470 0.950 . S
H2459 C2471 0.950 . S
C2460 H2452 0.950 . S
C2460 C2461 1.386 . S
C2460 C2462 1.391 . S
C2461 C2460 1.386 . S
C2461 C2465 1.393 . S
C2462 H2454 0.950 . S
C2462 C2460 1.391 . S
C2462 C2463 1.400 . S
C2463 C2462 1.400 . S
C2463 C2464 1.398 . S
C2463 C2469 1.491 . S
C2464 H2455 0.950 . S
C2464 C2463 1.398 . S
C2464 C2465 1.391 . S
C2465 H2453 0.950 . S
C2465 C2461 1.393 . S
C2465 C2464 1.391 . S
C2466 H2456 0.950 . S
C2466 C2467 1.386 . S
C2466 C2468 1.391 . S
C2467 C2466 1.386 . S
C2467 C2471 1.393 . S
C2468 H2457 0.950 . S
C2468 C2466 1.391 . S
C2468 C2469 1.400 . S
C2469 C2463 1.491 . S
C2469 C2468 1.400 . S
C2469 C2470 1.398 . S
C2470 H2458 0.950 . S
C2470 C2469 1.398 . S
C2470 C2471 1.391 . S
C2471 H2459 0.950 . S
C2471 C2467 1.393 . S
C2471 C2470 1.391 . S
H2472 C2480 0.950 . S
H2473 C2485 0.950 . S
H2474 C2482 0.950 . S
H2475 C2484 0.950 . S
H2476 C2486 0.950 . S
H2477 C2488 0.950 . S
H2478 C2490 0.947 1_565 S
H2479 C2491 0.950 . S
C2480 H2472 0.950 . S
C2480 C2481 1.386 . S
C2480 C2482 1.391 . S
C2481 C2480 1.386 . S
C2481 C2485 1.393 . S
C2482 H2474 0.950 . S
C2482 C2480 1.391 . S
C2482 C2483 1.400 . S
C2483 C2482 1.400 . S
C2483 C2484 1.398 . S
C2483 C2489 1.491 . S
C2484 H2475 0.950 . S
C2484 C2483 1.398 . S
C2484 C2485 1.391 . S
C2485 H2473 0.950 . S
C2485 C2481 1.393 . S
C2485 C2484 1.391 . S
C2486 H2476 0.950 . S
C2486 C2487 1.386 . S
C2486 C2488 1.391 . S
C2487 C2486 1.386 . S
C2487 C2491 1.393 . S
C2488 H2477 0.950 . S
C2488 C2486 1.391 . S
C2488 C2489 1.400 1_545 S
C2489 C2483 1.491 . S
C2489 C2488 1.400 1_565 S
C2489 C2490 1.397 1_565 S
C2490 H2478 0.947 1_545 S
C2490 C2489 1.397 1_545 S
C2490 C2491 1.395 . S
C2491 H2479 0.950 . S
C2491 C2487 1.393 . S
C2491 C2490 1.395 . S
H2492 C2500 0.950 . S
H2493 C2505 0.950 . S
H2494 C2502 0.950 . S
H2495 C2504 0.950 . S
H2496 C2506 0.950 . S
H2497 C2508 0.950 . S
H2498 C2510 0.950 . S
H2499 C2511 0.950 . S
C2500 H2492 0.950 . S
C2500 C2501 1.386 . S
C2500 C2502 1.391 . S
C2501 C2500 1.386 . S
C2501 C2505 1.393 . S
C2502 H2494 0.950 . S
C2502 C2500 1.391 . S
C2502 C2503 1.400 . S
C2503 C2502 1.400 . S
C2503 C2504 1.398 . S
C2503 C2509 1.491 . S
C2504 H2495 0.950 . S
C2504 C2503 1.398 . S
C2504 C2505 1.391 . S
C2505 H2493 0.950 . S
C2505 C2501 1.393 . S
C2505 C2504 1.391 . S
C2506 H2496 0.950 . S
C2506 C2507 1.386 . S
C2506 C2508 1.391 . S
C2507 C2506 1.386 . S
C2507 C2511 1.393 . S
C2508 H2497 0.950 . S
C2508 C2506 1.391 . S
C2508 C2509 1.400 . S
C2509 C2503 1.491 . S
C2509 C2508 1.400 . S
C2509 C2510 1.398 . S
C2510 H2498 0.950 . S
C2510 C2509 1.398 . S
C2510 C2511 1.391 . S
C2511 H2499 0.950 . S
C2511 C2507 1.393 . S
C2511 C2510 1.391 . S
H2512 C2520 0.950 . S
H2513 C2525 0.950 . S
H2514 C2522 0.950 . S
H2515 C2524 0.950 . S
H2516 C2526 0.950 . S
H2517 C2528 0.950 . S
H2518 C2530 0.950 . S
H2519 C2531 0.950 . S
C2520 H2512 0.950 . S
C2520 C2521 1.386 . S
C2520 C2522 1.391 . S
C2521 C2520 1.386 . S
C2521 C2525 1.393 . S
C2522 H2514 0.950 . S
C2522 C2520 1.391 . S
C2522 C2523 1.400 . S
C2523 C2522 1.400 . S
C2523 C2524 1.398 . S
C2523 C2529 1.491 . S
C2524 H2515 0.950 . S
C2524 C2523 1.398 . S
C2524 C2525 1.391 . S
C2525 H2513 0.950 . S
C2525 C2521 1.393 . S
C2525 C2524 1.391 . S
C2526 H2516 0.950 . S
C2526 C2527 1.386 . S
C2526 C2528 1.391 . S
C2527 C2526 1.386 . S
C2527 C2531 1.393 . S
C2528 H2517 0.950 . S
C2528 C2526 1.391 . S
C2528 C2529 1.400 . S
C2529 C2523 1.491 . S
C2529 C2528 1.400 . S
C2529 C2530 1.398 . S
C2530 H2518 0.950 . S
C2530 C2529 1.398 . S
C2530 C2531 1.391 . S
C2531 H2519 0.950 . S
C2531 C2527 1.393 . S
C2531 C2530 1.391 . S
H2532 C2540 0.950 . S
H2533 C2545 0.950 . S
H2534 C2542 0.950 . S
H2535 C2544 0.950 . S
H2536 C2546 0.950 . S
H2537 C2548 0.950 . S
H2538 C2550 0.950 . S
H2539 C2551 0.950 . S
C2540 H2532 0.950 . S
C2540 C2541 1.386 . S
C2540 C2542 1.391 . S
C2541 C2540 1.386 . S
C2541 C2545 1.393 . S
C2542 H2534 0.950 . S
C2542 C2540 1.391 . S
C2542 C2543 1.400 . S
C2543 C2542 1.400 . S
C2543 C2544 1.398 . S
C2543 C2549 1.491 . S
C2544 H2535 0.950 . S
C2544 C2543 1.398 . S
C2544 C2545 1.391 . S
C2545 H2533 0.950 . S
C2545 C2541 1.393 . S
C2545 C2544 1.391 . S
C2546 H2536 0.950 . S
C2546 C2547 1.386 . S
C2546 C2548 1.391 . S
C2547 C2546 1.386 . S
C2547 C2551 1.393 . S
C2548 H2537 0.950 . S
C2548 C2546 1.391 . S
C2548 C2549 1.400 . S
C2549 C2543 1.491 . S
C2549 C2548 1.400 . S
C2549 C2550 1.398 . S
C2550 H2538 0.950 . S
C2550 C2549 1.398 . S
C2550 C2551 1.391 . S
C2551 H2539 0.950 . S
C2551 C2547 1.393 . S
C2551 C2550 1.391 . S
H2552 C2560 0.950 . S
H2553 C2565 0.950 . S
H2554 C2562 0.950 . S
H2555 C2564 0.950 1_545 S
H2556 C2566 0.950 . S
H2557 C2568 0.950 . S
H2558 C2570 0.950 . S
H2559 C2571 0.950 . S
C2560 H2552 0.950 . S
C2560 C2561 1.386 . S
C2560 C2562 1.391 . S
C2561 C2560 1.386 . S
C2561 C2565 1.393 . S
C2562 H2554 0.950 . S
C2562 C2560 1.391 . S
C2562 C2563 1.400 1_565 S
C2563 C2562 1.400 1_545 S
C2563 C2564 1.398 1_545 S
C2563 C2569 1.491 . S
C2564 H2555 0.950 1_565 S
C2564 C2563 1.398 1_565 S
C2564 C2565 1.391 . S
C2565 H2553 0.950 . S
C2565 C2561 1.393 . S
C2565 C2564 1.391 . S
C2566 H2556 0.950 . S
C2566 C2567 1.386 . S
C2566 C2568 1.391 . S
C2567 C2566 1.386 . S
C2567 C2571 1.393 . S
C2568 H2557 0.950 . S
C2568 C2566 1.391 . S
C2568 C2569 1.400 . S
C2569 C2563 1.491 . S
C2569 C2568 1.400 . S
C2569 C2570 1.398 . S
C2570 H2558 0.950 . S
C2570 C2569 1.398 . S
C2570 C2571 1.391 . S
C2571 H2559 0.950 . S
C2571 C2567 1.393 . S
C2571 C2570 1.391 . S
H2572 C2580 0.950 . S
H2573 C2585 0.950 . S
H2574 C2582 0.950 . S
H2575 C2584 0.950 . S
H2576 C2586 0.950 . S
H2577 C2588 0.950 . S
H2578 C2590 0.950 1_565 S
H2579 C2591 0.950 . S
C2580 H2572 0.950 . S
C2580 C2581 1.386 . S
C2580 C2582 1.391 . S
C2581 C2580 1.386 . S
C2581 C2585 1.393 . S
C2582 H2574 0.950 . S
C2582 C2580 1.391 . S
C2582 C2583 1.400 . S
C2583 C2582 1.400 . S
C2583 C2584 1.398 . S
C2583 C2589 1.491 . S
C2584 H2575 0.950 . S
C2584 C2583 1.398 . S
C2584 C2585 1.391 . S
C2585 H2573 0.950 . S
C2585 C2581 1.393 . S
C2585 C2584 1.391 . S
C2586 H2576 0.950 . S
C2586 C2587 1.386 . S
C2586 C2588 1.391 . S
C2587 C2586 1.386 . S
C2587 C2591 1.393 . S
C2588 H2577 0.950 . S
C2588 C2586 1.391 . S
C2588 C2589 1.400 1_545 S
C2589 C2583 1.491 . S
C2589 C2588 1.400 1_565 S
C2589 C2590 1.398 1_565 S
C2590 H2578 0.950 1_545 S
C2590 C2589 1.398 1_545 S
C2590 C2591 1.391 . S
C2591 H2579 0.950 . S
C2591 C2587 1.393 . S
C2591 C2590 1.391 . S
C681 C591 1.374 . S
C687 C3 1.392 . S
C701 C23 1.389 . S
C707 C217 1.391 . S
C721 C31 1.382 . S
C727 C563 1.360 . S
C741 C51 1.388 . S
C747 C245 1.383 . S
C761 C623 1.386 . S
C767 C63 1.365 . S
C781 C78 1.389 . S
C787 C297 1.373 . S
C801 C91 1.367 . S
C807 C651 1.383 . S
C821 C106 1.363 . S
C827 C269 1.350 . S
C841 C50 1.371 . S
C847 C661 1.361 . S
C861 C7 1.364 . S
C867 C357 1.375 . S
C881 C371 1.377 . S
C887 C22 1.372 . S
C901 C35 1.334 . S
C907 C339 1.346 . S
C921 C79 1.405 . S
C927 C343 1.405 . S
C941 C87 1.388 . S
C947 C665 1.380 . S
C961 C107 1.406 . S
C967 C353 1.386 . S
C981 C59 1.395 . S
C987 C367 1.385 . S
C1001 C549 1.358 . S
C1007 C120 1.372 . S
C1021 C134 1.362 . S
C1027 C273 1.361 . S
C1041 C121 1.380 . S
C1047 C619 1.361 . S
C1061 C301 1.399 . S
C1067 C149 1.404 . S
C1081 C311 1.364 . S
C1087 C162 1.377 . S
C1101 C577 1.388 . S
C1107 C177 1.407 . S
C1121 C595 1.399 . S
C1127 C191 1.394 . S
C1141 C567 1.411 . S
C1147 C205 1.413 . S
C1161 C465 1.329 . S
C1167 C218 1.342 . S
C1181 C233 1.403 . S
C1187 C9 1.350 . S
C1201 C246 1.349 . S
C1207 C437 1.333 . S
C1221 C37 1.383 . S
C1227 C261 1.408 . S
C1241 C275 1.349 . S
C1247 C497 1.346 . S
C1261 C92 1.369 . S
C1267 C288 1.366 . S
C1281 C303 1.348 . S
C1287 C525 1.352 . S
C1301 C64 1.402 . S
C1307 C316 1.401 . S
C1321 C535 1.343 . S
C1327 C260 1.353 . S
C1341 C219 1.370 . S
C1347 C143 1.350 . S
C1361 C161 1.350 . S
C1367 C232 1.350 . S
C1381 C133 1.362 . S
C1387 C247 1.370 . S
C1401 C129 1.378 . S
C1407 C289 1.391 . S
C1421 C302 1.320 . S
C1427 C539 1.320 . S
C1441 C147 1.400 . S
C1447 C317 1.400 . S
C1461 C274 1.322 . S
C1467 C157 1.316 . S
C1481 C330 1.374 . S
C1487 C428 1.374 . S
C1501 C345 1.425 . S
C1507 C65 1.401 . S
C1521 C331 1.383 . S
C1527 C493 1.362 . S
C1541 C358 1.407 . S
C1547 C93 1.380 . S
C1561 C372 1.356 . S
C1567 C101 1.341 . S
C1581 C456 1.397 . S
C1587 C387 1.390 . S
C1601 C401 1.373 . S
C1607 C469 1.367 . S
C1621 C415 1.389 . S
C1627 C441 1.380 . S
C1641 C423 1.394 . S
C1647 C255 1.373 . S
C1661 C443 1.385 . S
C1667 C553 1.379 . S
C1681 C227 1.354 . S
C1687 C451 1.380 . S
C1701 C471 1.394 . S
C1707 C581 1.388 . S
C1721 C483 1.350 . S
C1727 C287 1.382 . S
C1741 C633 1.342 . S
C1747 C498 1.353 . S
C1761 C511 1.358 . S
C1767 C315 1.377 . S
C1781 C605 1.360 . S
C1787 C526 1.367 . S
C1801 C325 1.345 . S
C1807 C470 1.363 . S
C1821 C413 1.369 . S
C1827 C427 1.358 . S
C1841 C442 1.371 . S
C1847 C385 1.369 . S
C1861 C399 1.372 . S
C1867 C455 1.356 . S
C1881 C499 1.400 . S
C1887 C395 1.389 . S
C1901 C329 1.384 . S
C1907 C507 1.391 . S
C1921 C527 1.400 . S
C1927 C409 1.389 . S
C1941 C479 1.392 . S
C1947 C381 1.367 . S
C1961 C540 1.376 . S
C1967 C213 1.364 . S
C1981 C190 1.356 . S
C1987 C609 1.356 . S
C2001 C283 1.359 . S
C2007 C541 1.387 . S
C2021 C637 1.364 . S
C2027 C204 1.366 . S
C2041 C647 1.345 . S
C2047 C176 1.361 . S
C2061 C163 1.406 . S
C2067 C241 1.391 . S
C2081 C135 1.406 . S
C2087 C259 1.405 . S
C2101 C231 1.381 . S
C2107 C148 1.375 . S
C2121 C554 1.340 . S
C2127 C45 1.334 . S
C2141 C429 1.358 . S
C2147 C569 1.409 . S
C2161 C582 1.343 . S
C2167 C17 1.332 . S
C2181 C597 1.399 . S
C2187 C457 1.376 . S
C2201 C77 1.347 . S
C2207 C611 1.342 . S
C2221 C624 1.370 . S
C2227 C512 1.374 . S
C2241 C639 1.355 . S
C2247 C105 1.353 . S
C2261 C484 1.376 . S
C2267 C652 1.367 . S
C2281 C596 1.356 . S
C2287 C115 1.342 . S
C2301 C203 1.360 . S
C2307 C555 1.366 . S
C2321 C175 1.351 . S
C2327 C568 1.351 . S
C2341 C583 1.362 . S
C2347 C189 1.364 . S
C2361 C625 1.385 . S
C2367 C185 1.379 . S
C2381 C119 1.327 . S
C2387 C638 1.327 . S
C2401 C199 1.387 . S
C2407 C653 1.386 . S
C2421 C610 1.321 . S
C2427 C171 1.319 . S
C2441 C8 1.378 . S
C2447 C666 1.378 . S
C2461 C400 1.390 . S
C2467 C485 1.367 . S
C2481 C73 1.383 . S
C2487 C667 1.394 . S
C2501 C513 1.369 . S
C2507 C414 1.394 . S
C2521 C521 1.341 . S
C2527 C386 1.356 . S
C2541 C373 1.382 . S
C2547 C36 1.391 . S
C2561 C344 1.351 . S
C2567 C49 1.353 . S
C2581 C21 1.394 . S
C2587 C359 1.402 . S
