# Generated by pormake.
# Topology ecf, (8)-cn, num edge types: 1
# Building blocks:
#     Node 0, Type 0, BuildingBlock: VETTIZ_charged_sbu_0, # of connection points: 8
#     Node 1, Type 0, BuildingBlock: VETTIZ_charged_sbu_0, # of connection points: 8
#     Node 2, Type 0, BuildingBlock: VETTIZ_charged_sbu_0, # of connection points: 8
#     Node 3, Type 0, BuildingBlock: VETTIZ_charged_sbu_0, # of connection points: 8
#     Node 4, Type 0, BuildingBlock: VETTIZ_charged_sbu_0, # of connection points: 8
#     Node 5, Type 0, BuildingBlock: VETTIZ_charged_sbu_0, # of connection points: 8
#     Edge 6, Type (0, 0), BuildingBlock: KIFKEQ_clean_linker_1, # of connection points: 2
#     Edge 7, Type (0, 0), BuildingBlock: KIFKEQ_clean_linker_1, # of connection points: 2
#     Edge 8, Type (0, 0), BuildingBlock: KIFKEQ_clean_linker_1, # of connection points: 2
#     Edge 9, Type (0, 0), BuildingBlock: KIFKEQ_clean_linker_1, # of connection points: 2
#     Edge 10, Type (0, 0), BuildingBlock: KIFKEQ_clean_linker_1, # of connection points: 2
#     Edge 11, Type (0, 0), BuildingBlock: KIFKEQ_clean_linker_1, # of connection points: 2
#     Edge 12, Type (0, 0), BuildingBlock: KIFKEQ_clean_linker_1, # of connection points: 2
#     Edge 13, Type (0, 0), BuildingBlock: KIFKEQ_clean_linker_1, # of connection points: 2
#     Edge 14, Type (0, 0), BuildingBlock: KIFKEQ_clean_linker_1, # of connection points: 2
#     Edge 15, Type (0, 0), BuildingBlock: KIFKEQ_clean_linker_1, # of connection points: 2
#     Edge 16, Type (0, 0), BuildingBlock: KIFKEQ_clean_linker_1, # of connection points: 2
#     Edge 17, Type (0, 0), BuildingBlock: KIFKEQ_clean_linker_1, # of connection points: 2
#     Edge 18, Type (0, 0), BuildingBlock: KIFKEQ_clean_linker_1, # of connection points: 2
#     Edge 19, Type (0, 0), BuildingBlock: KIFKEQ_clean_linker_1, # of connection points: 2
#     Edge 20, Type (0, 0), BuildingBlock: KIFKEQ_clean_linker_1, # of connection points: 2
#     Edge 21, Type (0, 0), BuildingBlock: KIFKEQ_clean_linker_1, # of connection points: 2
#     Edge 22, Type (0, 0), BuildingBlock: KIFKEQ_clean_linker_1, # of connection points: 2
#     Edge 23, Type (0, 0), BuildingBlock: KIFKEQ_clean_linker_1, # of connection points: 2
#     Edge 24, Type (0, 0), BuildingBlock: KIFKEQ_clean_linker_1, # of connection points: 2
#     Edge 25, Type (0, 0), BuildingBlock: KIFKEQ_clean_linker_1, # of connection points: 2
#     Edge 26, Type (0, 0), BuildingBlock: KIFKEQ_clean_linker_1, # of connection points: 2
#     Edge 27, Type (0, 0), BuildingBlock: KIFKEQ_clean_linker_1, # of connection points: 2
#     Edge 28, Type (0, 0), BuildingBlock: KIFKEQ_clean_linker_1, # of connection points: 2
#     Edge 29, Type (0, 0), BuildingBlock: KIFKEQ_clean_linker_1, # of connection points: 2
# Relax obj value: 0.148
# Max RMSD: 0.140
# Mean RMSD: 0.140
data_MOF--net-ecf--node1-VETTIZ_charged_sbu_0--edge1-KIFKEQ_clean_linker_1
_symmetry_space_group_name_H-M    P1
_symmetry_Int_Tables_number       1
_symmetry_cell_setting            triclinic
loop_
_symmetry_equiv_pos_as_xyz
'x, y, z'
_cell_length_a     33.821846
_cell_length_b     33.867854
_cell_length_c     27.552331
_cell_angle_alpha  90.52011
_cell_angle_beta   90.401336
_cell_angle_gamma 119.94537
loop_
_atom_site_label
_atom_site_type_symbol
_atom_site_fract_x
_atom_site_fract_y
_atom_site_fract_z
_atom_type_partial_charge
Fe0 Fe 0.18163 0.27118 0.22427 0.0
O1 O 0.18924 0.31491 0.27516 0.0
Fe2 Fe 0.18353 0.37122 0.2564 0.0
Fe3 Fe 0.15285 0.29831 0.3356 0.0
O4 O 0.19038 0.31768 0.27194 0.0
O5 O 0.14758 0.35549 0.31796 0.0
O6 O 0.14601 0.35226 0.3213 0.0
Fe7 Fe 0.1588 0.3993 0.37122 0.0
C8 C 0.08628 0.22557 0.26761 0.0
O9 O 0.20914 0.24935 0.27684 0.0
O10 O 0.16604 0.24387 0.34356 0.0
O11 O 0.22208 0.44722 0.34715 0.0
O12 O 0.24382 0.4122 0.29349 0.0
O13 O 0.22183 0.37972 0.19257 0.0
O14 O 0.24138 0.32377 0.19855 0.0
O15 O 0.21202 0.33837 0.37273 0.0
O16 O 0.18966 0.37596 0.42054 0.0
C17 C 0.24456 0.35978 0.1787 0.0
O18 O 0.13338 0.42543 0.31946 0.0
O19 O 0.17195 0.42647 0.24983 0.0
O20 O 0.11811 0.22186 0.2474 0.0
O21 O 0.09402 0.25746 0.29763 0.0
C22 C 0.19357 0.23436 0.31967 0.0
C23 C 0.21405 0.35759 0.41288 0.0
C24 C 0.09094 0.30877 0.4138 0.0
O25 O 0.11246 0.28803 0.39822 0.0
O26 O 0.09856 0.34827 0.39888 0.0
C27 C 0.25284 0.44431 0.32377 0.0
O28 O 0.12399 0.33057 0.21658 0.0
O29 O 0.1492 0.2908 0.17509 0.0
C30 C 0.14839 0.4396 0.27597 0.0
C31 C 0.12081 0.30467 0.18088 0.0
Fe32 Fe 0.80947 0.06898 0.72114 0.0
O33 O 0.79318 0.09899 0.77121 0.0
Fe34 Fe 0.79023 0.15773 0.75308 0.0
Fe35 Fe 0.82703 0.11998 0.83422 0.0
O36 O 0.79014 0.09999 0.76798 0.0
O37 O 0.8215 0.17751 0.81834 0.0
O38 O 0.82294 0.17578 0.82209 0.0
Fe39 Fe 0.80196 0.20302 0.87157 0.0
C40 C 0.8031 0.02033 0.81387 0.0
O41 O 0.87404 0.09048 0.75009 0.0
O42 O 0.88964 0.14849 0.80042 0.0
O43 O 0.82644 0.25637 0.82371 0.0
O44 O 0.79718 0.22325 0.74804 0.0
O45 O 0.85309 0.18412 0.71888 0.0
O46 O 0.83851 0.12277 0.67462 0.0
O47 O 0.86235 0.15037 0.89962 0.0
O48 O 0.86314 0.21871 0.90436 0.0
C49 C 0.8623 0.16522 0.68379 0.0
O50 O 0.73844 0.18265 0.84168 0.0
O51 O 0.72585 0.13238 0.78229 0.0
O52 O 0.78545 0.01782 0.77124 0.0
O53 O 0.82602 0.05775 0.8393 0.0
C54 C 0.90265 0.12652 0.77326 0.0
C55 C 0.87725 0.19116 0.91783 0.0
C56 C 0.75638 0.10349 0.90741 0.0
O57 O 0.7657 0.08942 0.86876 0.0
O58 O 0.77304 0.14598 0.91626 0.0
C59 C 0.81809 0.25824 0.77784 0.0
O60 O 0.75517 0.12618 0.68724 0.0
O61 O 0.74826 0.05459 0.6902 0.0
C62 C 0.71184 0.15193 0.81158 0.0
C63 C 0.73603 0.08307 0.67462 0.0
Fe64 Fe 0.70481 0.85785 0.24627 0.0
O65 O 0.69422 0.87883 0.31012 0.0
Fe66 Fe 0.59764 0.77355 0.21036 0.0
Fe67 Fe 0.74272 0.90834 0.35952 0.0
O68 O 0.64652 0.80112 0.25895 0.0
O69 O 0.64457 0.7984 0.26325 0.0
O70 O 0.69184 0.87669 0.31399 0.0
Fe71 Fe 0.63484 0.8189 0.32863 0.0
C72 C 0.77651 0.85385 0.30044 0.0
O73 O 0.76514 0.92058 0.24023 0.0
O74 O 0.76749 0.96006 0.30975 0.0
O75 O 0.59869 0.84599 0.29807 0.0
O76 O 0.55565 0.7937 0.24231 0.0
O77 O 0.62397 0.83048 0.16545 0.0
O78 O 0.67272 0.88772 0.21259 0.0
O79 O 0.6965 0.92183 0.3928 0.0
O80 O 0.63136 0.8505 0.39402 0.0
C81 C 0.64869 0.87311 0.17421 0.0
O82 O 0.57508 0.75444 0.33305 0.0
O83 O 0.5696 0.72011 0.2581 0.0
O84 O 0.73805 0.82969 0.27997 0.0
O85 O 0.78521 0.88862 0.32662 0.0
C86 C 0.77976 0.95791 0.26572 0.0
C87 C 0.65553 0.89341 0.40725 0.0
C88 C 0.69776 0.81096 0.40047 0.0
O89 O 0.71989 0.85413 0.40587 0.0
O90 O 0.67044 0.79156 0.36445 0.0
C91 C 0.56301 0.82584 0.27178 0.0
O92 O 0.64264 0.75853 0.17603 0.0
O93 O 0.70945 0.82764 0.18069 0.0
C94 C 0.55855 0.71914 0.30344 0.0
C95 C 0.68405 0.78667 0.16259 0.0
Fe96 Fe 0.92798 0.74607 0.70189 0.0
O97 O 0.89855 0.69388 0.74493 0.0
Fe98 Fe 0.84225 0.63304 0.7207 0.0
Fe99 Fe 0.8745 0.69856 0.80899 0.0
O100 O 0.89742 0.69126 0.74143 0.0
O101 O 0.81778 0.63778 0.7858 0.0
O102 O 0.81975 0.64002 0.79008 0.0
Fe103 Fe 0.79374 0.58963 0.83586 0.0
C104 C 0.97388 0.7765 0.80042 0.0
O105 O 0.90445 0.78412 0.73865 0.0
O106 O 0.84498 0.73237 0.77933 0.0
O107 O 0.74221 0.55901 0.78321 0.0
O108 O 0.78028 0.5719 0.7097 0.0
O109 O 0.81273 0.66736 0.6871 0.0
O110 O 0.87436 0.72472 0.65323 0.0
O111 O 0.84204 0.69781 0.87396 0.0
O112 O 0.77334 0.63071 0.87114 0.0
C113 C 0.83121 0.69949 0.65631 0.0
O114 O 0.81965 0.55264 0.80397 0.0
O115 O 0.87062 0.59657 0.74888 0.0
O116 O 0.97833 0.76912 0.75494 0.0
O117 O 0.93527 0.7589 0.82281 0.0
C118 C 0.86791 0.77199 0.76228 0.0
C119 C 0.80035 0.67162 0.88821 0.0
C120 C 0.89193 0.64477 0.87827 0.0
O121 O 0.90524 0.66582 0.83884 0.0
O122 O 0.84931 0.61888 0.88557 0.0
C123 C 0.74426 0.55145 0.73696 0.0
O124 O 0.87748 0.63621 0.65605 0.0
O125 O 0.94569 0.70472 0.66373 0.0
C126 C 0.85177 0.56106 0.77476 0.0
C127 C 0.92013 0.6642 0.64513 0.0
Fe128 Fe 0.14743 0.86207 0.22977 0.0
O129 O 0.12577 0.82221 0.28785 0.0
Fe130 Fe 0.22866 0.83737 0.18471 0.0
Fe131 Fe 0.09695 0.83439 0.3427 0.0
O132 O 0.20271 0.85597 0.23784 0.0
O133 O 0.20416 0.85409 0.24108 0.0
O134 O 0.12725 0.82015 0.29116 0.0
Fe135 Fe 0.18436 0.8182 0.30246 0.0
C136 C 0.15413 0.92995 0.3037 0.0
O137 O 0.08528 0.86118 0.22811 0.0
O138 O 0.04559 0.81463 0.29181 0.0
O139 O 0.1562 0.7574 0.26488 0.0
O140 O 0.20757 0.77196 0.20758 0.0
O141 O 0.17121 0.81152 0.13914 0.0
O142 O 0.11532 0.80477 0.18633 0.0
O143 O 0.08242 0.77117 0.36517 0.0
O144 O 0.15406 0.7785 0.36503 0.0
C145 C 0.12885 0.79534 0.14742 0.0
O146 O 0.24847 0.82216 0.30457 0.0
O147 O 0.28239 0.85778 0.23276 0.0
O148 O 0.17655 0.92029 0.27341 0.0
O149 O 0.11702 0.8995 0.32188 0.0
C150 C 0.04781 0.83409 0.25067 0.0
C151 C 0.11129 0.75849 0.37795 0.0
C152 C 0.19528 0.88416 0.38206 0.0
O153 O 0.15258 0.86042 0.39014 0.0
O154 O 0.2127 0.87825 0.34362 0.0
C155 C 0.17506 0.7442 0.2341 0.0
O156 O 0.24505 0.90063 0.15944 0.0
O157 O 0.17908 0.90408 0.16902 0.0
C158 C 0.28367 0.84443 0.27657 0.0
C159 C 0.21938 0.9182 0.15043 0.0
Fe160 Fe 0.2453 0.10368 0.70867 0.0
O161 O 0.29585 0.13673 0.75397 0.0
Fe162 Fe 0.35931 0.18751 0.72921 0.0
Fe163 Fe 0.29121 0.16759 0.81391 0.0
O164 O 0.29962 0.13626 0.75117 0.0
O165 O 0.3549 0.21828 0.79005 0.0
O166 O 0.35094 0.21897 0.79286 0.0
Fe167 Fe 0.40279 0.24779 0.83977 0.0
C168 C 0.21698 0.1687 0.75624 0.0
O169 O 0.2209 0.05925 0.76592 0.0
O170 O 0.23082 0.10799 0.83022 0.0
O171 O 0.43781 0.2161 0.81664 0.0
O172 O 0.39544 0.1603 0.7634 0.0
O173 O 0.35368 0.14711 0.66639 0.0
O174 O 0.28534 0.08066 0.67779 0.0
O175 O 0.32432 0.13983 0.84938 0.0
O176 O 0.37186 0.19893 0.89417 0.0
C177 C 0.32397 0.10438 0.65615 0.0
O178 O 0.43449 0.29284 0.78383 0.0
O179 O 0.42167 0.24728 0.71544 0.0
O180 O 0.20747 0.131 0.736 0.0
O181 O 0.25442 0.19318 0.77932 0.0
C182 C 0.21473 0.06776 0.81051 0.0
C183 C 0.34538 0.15613 0.88896 0.0
C184 C 0.3236 0.25165 0.88418 0.0
O185 O 0.2949 0.2086 0.87458 0.0
O186 O 0.36417 0.27432 0.8661 0.0
C187 C 0.42998 0.18086 0.79203 0.0
O188 O 0.32593 0.21544 0.69297 0.0
O189 O 0.26958 0.15352 0.65622 0.0
C190 C 0.44261 0.2861 0.73928 0.0
C191 C 0.29463 0.19671 0.66068 0.0
H192 H 0.20453 0.50746 0.21531 0.0
H193 H 0.0806 0.45848 0.29692 0.0
H194 H 0.2044 0.57776 0.19916 0.0
H195 H 0.07889 0.52785 0.27868 0.0
H196 H 0.19002 0.69773 0.16137 0.0
H197 H 0.17504 0.61948 0.16239 0.0
H198 H 0.1177 0.60318 0.30561 0.0
H199 H 0.13055 0.68025 0.30332 0.0
C200 C 0.17639 0.51109 0.22846 0.0
C201 C 0.14283 0.47759 0.25779 0.0
C202 C 0.17619 0.55152 0.21909 0.0
C203 C 0.14197 0.55912 0.23817 0.0
C204 C 0.10655 0.52397 0.26452 0.0
C205 C 0.10724 0.48392 0.27463 0.0
C206 C 0.1736 0.6771 0.19273 0.0
C207 C 0.16175 0.69534 0.23237 0.0
C208 C 0.16525 0.63226 0.1935 0.0
C209 C 0.14552 0.60477 0.23428 0.0
C210 C 0.13224 0.62271 0.27315 0.0
C211 C 0.1399 0.66723 0.27202 0.0
H212 H 0.44117 0.11872 0.73509 0.0
H213 H 0.499 0.21015 0.85857 0.0
H214 H 0.50372 0.10164 0.74016 0.0
H215 H 0.56116 0.19497 0.86231 0.0
H216 H 0.6582 0.14773 0.88656 0.0
H217 H 0.58456 0.14399 0.88283 0.0
H218 H 0.58403 0.13329 0.72635 0.0
H219 H 0.65697 0.13431 0.73074 0.0
C220 C 0.46678 0.13482 0.76352 0.0
C221 C 0.46471 0.16587 0.79634 0.0
C222 C 0.50298 0.12538 0.76619 0.0
C223 C 0.53783 0.14663 0.80187 0.0
C224 C 0.53485 0.17686 0.835 0.0
C225 C 0.49901 0.18604 0.83247 0.0
C226 C 0.6419 0.14364 0.85142 0.0
C227 C 0.66363 0.14169 0.80898 0.0
C228 C 0.59974 0.14197 0.84911 0.0
C229 C 0.57847 0.13969 0.80413 0.0
C230 C 0.59899 0.13498 0.7617 0.0
C231 C 0.64094 0.13564 0.76415 0.0
H232 H 0.28253 0.53125 0.35463 0.0
H233 H 0.33077 0.44046 0.3092 0.0
H234 H 0.3605 0.59371 0.361 0.0
H235 H 0.4094 0.50255 0.3181 0.0
H236 H 0.52841 0.63604 0.26086 0.0
H237 H 0.45748 0.56702 0.2748 0.0
H238 H 0.43274 0.63051 0.39888 0.0
H239 H 0.50343 0.70133 0.38295 0.0
C240 C 0.30996 0.52447 0.34688 0.0
C241 C 0.30056 0.48115 0.33066 0.0
C242 C 0.35485 0.56026 0.3511 0.0
C243 C 0.39155 0.55345 0.33996 0.0
C244 C 0.38206 0.50939 0.32602 0.0
C245 C 0.33703 0.47375 0.32092 0.0
C246 C 0.50826 0.63534 0.29158 0.0
C247 C 0.5211 0.67472 0.32002 0.0
C248 C 0.46754 0.59528 0.29997 0.0
C249 C 0.43871 0.59316 0.33751 0.0
C250 C 0.45353 0.63128 0.3688 0.0
C251 C 0.49432 0.67177 0.36005 0.0
H252 H 0.89765 0.33336 0.8013 0.0
H253 H 0.77479 0.2881 0.71553 0.0
H254 H 0.9171 0.4123 0.79099 0.0
H255 H 0.79453 0.36796 0.70511 0.0
H256 H 0.85782 0.52486 0.6884 0.0
H257 H 0.85762 0.45264 0.67654 0.0
H258 H 0.86807 0.44269 0.83172 0.0
H259 H 0.86697 0.51361 0.84342 0.0
C260 C 0.87539 0.34045 0.7791 0.0
C261 C 0.83428 0.3047 0.75992 0.0
C262 C 0.88662 0.38562 0.7732 0.0
C263 C 0.857 0.39607 0.74793 0.0
C264 C 0.81801 0.36067 0.72463 0.0
C265 C 0.80669 0.31508 0.73056 0.0
C266 C 0.8615 0.50776 0.7197 0.0
C267 C 0.86287 0.52474 0.76682 0.0
C268 C 0.86087 0.46638 0.71294 0.0
C269 C 0.86284 0.44224 0.75319 0.0
C270 C 0.86698 0.46085 0.80002 0.0
C271 C 0.86646 0.50141 0.80679 0.0
H272 H 0.30322 0.79348 0.33877 0.0
H273 H 0.36589 0.91386 0.25019 0.0
H274 H 0.37729 0.79693 0.34659 0.0
H275 H 0.43893 0.91645 0.25745 0.0
H276 H 0.49972 0.81834 0.20558 0.0
H277 H 0.43573 0.83129 0.21931 0.0
H278 H 0.4794 0.87001 0.36818 0.0
H279 H 0.54447 0.85821 0.35441 0.0
C280 C 0.33298 0.82149 0.32256 0.0
C281 C 0.32873 0.85279 0.29302 0.0
C282 C 0.37516 0.82344 0.32703 0.0
C283 C 0.41313 0.85673 0.30217 0.0
C284 C 0.40984 0.89052 0.27673 0.0
C285 C 0.36803 0.88877 0.27246 0.0
C286 C 0.49597 0.83008 0.24105 0.0
C287 C 0.52694 0.83739 0.27885 0.0
C288 C 0.45954 0.83744 0.24886 0.0
C289 C 0.45308 0.8514 0.29476 0.0
C290 C 0.48406 0.85919 0.33259 0.0
C291 C 0.5212 0.85273 0.32452 0.0
H292 H 0.46791 0.37497 0.75211 0.0
H293 H 0.50584 0.28669 0.67693 0.0
H294 H 0.54114 0.44042 0.7338 0.0
H295 H 0.57969 0.35296 0.65735 0.0
H296 H 0.72117 0.46317 0.72741 0.0
H297 H 0.6452 0.39895 0.70941 0.0
H298 H 0.59677 0.49291 0.67983 0.0
H299 H 0.67275 0.55691 0.69972 0.0
C300 C 0.49153 0.3698 0.73028 0.0
C301 C 0.48145 0.32568 0.71654 0.0
C302 C 0.53355 0.40749 0.71937 0.0
C303 C 0.56672 0.40204 0.69453 0.0
C304 C 0.55513 0.35825 0.67715 0.0
C305 C 0.51271 0.32035 0.68791 0.0
C306 C 0.69444 0.46985 0.71563 0.0
C307 C 0.7023 0.51455 0.71491 0.0
C308 C 0.65097 0.43316 0.70503 0.0
C309 C 0.6146 0.44066 0.69362 0.0
C310 C 0.62377 0.48588 0.68924 0.0
C311 C 0.6672 0.52252 0.70026 0.0
H312 H 0.2581 0.215 0.28745 0.0
H313 H 0.15087 0.17298 0.39286 0.0
H314 H 0.25649 0.14342 0.29542 0.0
H315 H 0.15153 0.10191 0.4036 0.0
H316 H 0.09899 0.96233 0.33036 0.0
H317 H 0.11904 0.03938 0.35082 0.0
H318 H 0.26167 0.08327 0.32906 0.0
H319 H 0.2407 0.00496 0.30621 0.0
C320 C 0.23512 0.19102 0.31366 0.0
C321 C 0.20304 0.19883 0.33785 0.0
C322 C 0.23461 0.14989 0.31866 0.0
C323 C 0.20258 0.1159 0.34871 0.0
C324 C 0.17532 0.1266 0.37848 0.0
C325 C 0.17525 0.1676 0.3728 0.0
C326 C 0.13476 0.98828 0.33019 0.0
C327 C 0.16827 0.97771 0.3161 0.0
C328 C 0.14642 0.03264 0.34275 0.0
C329 C 0.19212 0.06789 0.34226 0.0
C330 C 0.22603 0.05712 0.32943 0.0
C331 C 0.21414 0.01242 0.31609 0.0
H332 H 0.94139 0.08901 0.71648 0.0
H333 H 0.97654 0.197 0.82206 0.0
H334 H 0.02056 0.10923 0.71185 0.0
H335 H 0.05715 0.21819 0.8165 0.0
H336 H 0.18404 0.1943 0.83393 0.0
H337 H 0.11004 0.19119 0.8374 0.0
H338 H 0.09236 0.1648 0.68275 0.0
H339 H 0.16492 0.16602 0.68005 0.0
C340 C 0.96607 0.11748 0.73849 0.0
C341 C 0.95218 0.14127 0.76969 0.0
C342 C 0.01191 0.12946 0.73545 0.0
C343 C 0.04577 0.16581 0.76335 0.0
C344 C 0.03212 0.18992 0.79455 0.0
C345 C 0.98588 0.1779 0.79756 0.0
C346 C 0.16484 0.18925 0.80056 0.0
C347 C 0.18006 0.18019 0.75674 0.0
C348 C 0.1223 0.18729 0.8025 0.0
C349 C 0.09444 0.17656 0.76055 0.0
C350 C 0.112 0.17169 0.7161 0.0
C351 C 0.15392 0.17296 0.71435 0.0
H352 H 0.01234 0.20339 0.32351 0.0
H353 H 0.05253 0.16961 0.18784 0.0
H354 H 0.93455 0.14275 0.30939 0.0
H355 H 0.97381 0.10956 0.17258 0.0
H356 H 0.79432 0.04391 0.27639 0.0
H357 H 0.86614 0.11431 0.26403 0.0
H358 H 0.92441 0.03626 0.20463 0.0
H359 H 0.85188 0.96643 0.21473 0.0
C360 C 0.00431 0.18342 0.29021 0.0
C361 C 0.03858 0.19064 0.2572 0.0
C362 C 0.95952 0.1489 0.28176 0.0
C363 C 0.94779 0.12121 0.23972 0.0
C364 C 0.98181 0.1298 0.20563 0.0
C365 C 0.02686 0.16407 0.21441 0.0
C366 C 0.82216 0.04219 0.25924 0.0
C367 C 0.81802 -1e-05 0.24705 0.0
C368 C 0.86336 0.08235 0.25251 0.0
C369 C 0.90144 0.08083 0.23466 0.0
C370 C 0.89583 0.03881 0.21833 0.0
C371 C 0.85427 0.9987 0.22416 0.0
H372 H 0.87276 0.01763 0.86063 0.0
H373 H 0.73882 0.93185 0.79736 0.0
H374 H 0.8869 0.95362 0.85801 0.0
H375 H 0.75296 0.86803 0.79473 0.0
H376 H 0.79096 0.75737 0.80928 0.0
H377 H 0.77238 0.81435 0.83823 0.0
H378 H 0.89808 0.92089 0.77898 0.0
H379 H 0.91699 0.86418 0.7501 0.0
C380 C 0.84562 0.98463 0.84818 0.0
C381 C 0.80495 0.97969 0.82853 0.0
C382 C 0.85393 0.94821 0.84614 0.0
C383 C 0.82141 0.90635 0.82513 0.0
C384 C 0.77865 0.89999 0.81096 0.0
C385 C 0.77056 0.93648 0.81246 0.0
C386 C 0.81462 0.79294 0.80224 0.0
C387 C 0.85531 0.80625 0.77691 0.0
C388 C 0.80403 0.82547 0.81912 0.0
C389 C 0.83406 0.87192 0.81139 0.0
C390 C 0.87477 0.88529 0.78631 0.0
C391 C 0.88524 0.85277 0.76909 0.0
H392 H 0.77034 0.78288 0.24665 0.0
H393 H 0.86755 0.91083 0.31572 0.0
H394 H 0.83305 0.77561 0.21333 0.0
H395 H 0.92982 0.90308 0.28279 0.0
H396 H 0.96309 0.76091 0.25796 0.0
H397 H 0.89243 0.76327 0.25565 0.0
H398 H 0.96546 0.90092 0.20236 0.0
H399 H 0.03651 0.89868 0.20501 0.0
C400 C 0.80503 0.8093 0.25496 0.0
C401 C 0.8141 0.8472 0.28436 0.0
C402 C 0.84073 0.80528 0.23545 0.0
C403 C 0.88599 0.83917 0.24481 0.0
C404 C 0.89508 0.87705 0.27403 0.0
C405 C 0.85946 0.88099 0.29374 0.0
C406 C 0.96367 0.79102 0.24403 0.0
C407 C 0.00509 0.83009 0.23303 0.0
C408 C 0.92324 0.79226 0.24239 0.0
C409 C 0.92404 0.83272 0.23004 0.0
C410 C 0.96445 0.86966 0.2128 0.0
C411 C 0.00492 0.86828 0.21405 0.0
H412 H 0.13108 0.04092 0.84677 0.0
H413 H 0.23707 0.00574 0.83954 0.0
H414 H 0.07677 0.96353 0.87113 0.0
H415 H 0.18352 0.92865 0.8661 0.0
H416 H 0.06264 0.80899 0.77642 0.0
H417 H 0.12777 0.87821 0.80687 0.0
H418 H 0.04353 0.89191 0.91546 0.0
H419 H 0.97764 0.82237 0.88428 0.0
C420 C 0.14308 0.01707 0.85289 0.0
C421 C 0.18741 0.02823 0.84039 0.0
C422 C 0.11221 0.97283 0.86723 0.0
C423 C 0.12569 0.93965 0.86922 0.0
C424 C 0.17201 0.95325 0.86374 0.0
C425 C 0.20258 0.99718 0.84858 0.0
C426 C 0.05816 0.82608 0.80755 0.0
C427 C 0.01478 0.81126 0.82672 0.0
C428 C 0.09574 0.86553 0.82564 0.0
C429 C 0.0906 0.89105 0.86312 0.0
C430 C 0.04827 0.87327 0.88607 0.0
C431 C 0.01059 0.8335 0.86809 0.0
H432 H 0.20136 0.35508 0.09413 0.0
H433 H 0.32891 0.37659 0.1538 0.0
H434 H 0.21998 0.33465 1.01545 0.0
H435 H 0.34813 0.35735 0.07517 0.0
H436 H 0.3787 0.33737 0.92153 0.0
H437 H 0.36244 0.37626 0.98596 0.0
H438 H 0.22528 0.26252 0.99495 0.0
H439 H 0.24138 0.22285 0.92998 0.0
C440 C 0.23453 0.35802 0.08964 0.0
C441 C 0.2641 0.36812 0.12979 0.0
C442 C 0.24475 0.34543 0.0449 0.0
C443 C 0.28519 0.34378 0.03937 0.0
C444 C 0.31679 0.35847 0.07822 0.0
C445 C 0.30611 0.37004 0.12313 0.0
C446 C 0.34478 0.32051 0.93663 0.0
C447 C 0.31147 0.27647 0.92068 0.0
C448 C 0.33559 0.34304 0.97369 0.0
C449 C 0.29271 0.32251 0.99557 0.0
C450 C 0.25859 0.27941 0.97838 0.0
C451 C 0.26792 0.25651 0.94144 0.0
H452 H 0.88593 0.24606 0.63883 0.0
H453 H 0.92438 0.14304 0.65327 0.0
H454 H 0.94092 0.28085 0.57344 0.0
H455 H 0.98118 0.17885 0.59058 0.0
H456 H 0.04171 0.21882 0.44063 0.0
H457 H 0.9885 0.1869 0.50761 0.0
H458 H 0.01541 0.32196 0.54766 0.0
H459 H 0.06632 0.35308 0.47948 0.0
C460 C 0.90718 0.23174 0.62895 0.0
C461 C 0.90094 0.19193 0.65103 0.0
C462 C 0.93878 0.25156 0.59137 0.0
C463 C 0.96543 0.23243 0.57571 0.0
C464 C 0.96057 0.19394 0.60008 0.0
C465 C 0.92843 0.17372 0.6367 0.0
C466 C 0.03604 0.24156 0.46368 0.0
C467 C 0.05811 0.28843 0.45431 0.0
C468 C 0.00575 0.22338 0.50253 0.0
C469 C 0.99739 0.25171 0.53373 0.0
C470 C 0.01989 0.29867 0.52428 0.0
C471 C 0.04944 0.31664 0.48505 0.0
H472 H 0.60832 0.85767 0.08344 0.0
H473 H 0.70349 0.96579 0.17922 0.0
H474 H 0.62566 0.91303 1.01918 0.0
H475 H 0.72177 0.02043 0.115 0.0
H476 H 0.71987 0.011 0.90169 0.0
H477 H 0.6871 0.9561 0.96616 0.0
H478 H 0.69963 0.06233 0.06394 0.0
H479 H 0.73403 0.11797 0.99938 0.0
C480 C 0.63256 0.89321 0.09102 0.0
C481 C 0.65458 0.90699 0.13659 0.0
C482 C 0.64281 0.92501 0.05401 0.0
C483 C 0.67548 0.9714 0.06151 0.0
C484 C 0.69602 0.98531 0.10776 0.0
C485 C 0.68567 0.95367 0.14471 0.0
C486 C 0.71517 0.02278 0.9367 0.0
C487 C 0.73009 0.06925 0.94524 0.0
C488 C 0.69596 0.99099 0.9738 0.0
C489 C 0.69082 0.00454 1.02065 0.0
C490 C 0.70373 0.05065 1.02862 0.0
C491 C 0.72316 0.0826 0.99143 0.0
H492 H 0.85138 0.78235 0.62371 0.0
H493 H 0.74811 0.64039 0.61109 0.0
H494 H 0.81143 0.80163 0.56336 0.0
H495 H 0.70759 0.66002 0.5493 0.0
H496 H 0.69842 0.72903 0.39478 0.0
H497 H 0.72353 0.69589 0.4593 0.0
H498 H 0.7367 0.80082 0.55905 0.0
H499 H 0.71226 0.83353 0.49568 0.0
C500 C 0.81986 0.75515 0.60817 0.0
C501 C 0.80298 0.70981 0.62245 0.0
C502 C 0.79681 0.76627 0.57353 0.0
C503 C 0.75619 0.73245 0.55137 0.0
C504 C 0.73889 0.68687 0.56553 0.0
C505 C 0.76181 0.6757 0.60121 0.0
C506 C 0.70566 0.74421 0.43083 0.0
C507 C 0.70402 0.78438 0.43977 0.0
C508 C 0.72004 0.72528 0.46779 0.0
C509 C 0.73292 0.74621 0.51419 0.0
C510 C 0.72797 0.78432 0.52362 0.0
C511 C 0.71387 0.80307 0.48712 0.0
H512 H 0.87861 0.62111 0.97521 0.0
H513 H 0.98427 0.70015 0.87259 0.0
H514 H 0.93543 0.65159 0.04118 0.0
H515 H 0.04011 0.73147 0.93793 0.0
H516 H 0.14129 0.76317 0.05982 0.0
H517 H 0.08423 0.72016 0.99684 0.0
H518 H 0.9799 0.72077 0.08587 0.0
H519 H 0.03647 0.7624 0.14915 0.0
C520 C 0.91392 0.64446 0.96655 0.0
C521 C 0.92655 0.65796 0.91834 0.0
C522 C 0.94655 0.66241 1.0045 0.0
C523 C 0.99269 0.69437 0.99528 0.0
C524 C 0.00534 0.70654 0.94681 0.0
C525 C 0.97295 0.68859 0.90908 0.0
C526 C 0.10613 0.7538 0.06617 0.0
C527 C 0.09382 0.76662 0.10972 0.0
C528 C 0.07328 0.72925 1.02983 0.0
C529 C 0.02713 0.71696 0.03578 0.0
C530 C 0.01474 0.72885 0.0799 0.0
C531 C 0.04749 0.75318 0.11626 0.0
H532 H 0.33399 0.13017 0.56106 0.0
H533 H 0.32026 0.02279 0.65443 0.0
H534 H 0.31097 0.07769 0.4909 0.0
H535 H 0.29791 0.97069 0.58485 0.0
H536 H 0.1795 0.88153 0.47883 0.0
H537 H 0.22355 0.93809 0.54122 0.0
H538 H 0.32164 0.02213 0.43441 0.0
H539 H 0.27713 0.96453 0.37118 0.0
C540 C 0.32854 0.09614 0.56618 0.0
C541 C 0.32943 0.08077 0.61324 0.0
C542 C 0.31484 0.06585 0.52603 0.0
C543 C 0.3016 0.01961 0.53234 0.0
C544 C 0.307 0.00576 0.57873 0.0
C545 C 0.32052 0.03583 0.61858 0.0
C546 C 0.21066 0.91181 0.46848 0.0
C547 C 0.22478 0.91827 0.41991 0.0
C548 C 0.2362 0.94422 0.50445 0.0
C549 C 0.27653 0.98462 0.49312 0.0
C550 C 0.29086 0.99136 0.44447 0.0
C551 C 0.26553 0.95826 0.40833 0.0
H552 H 0.72846 0.6227 0.94848 0.0
H553 H 0.83426 0.76024 0.91833 0.0
H554 H 0.70244 0.651 1.01528 0.0
H555 H 0.80725 0.78883 0.98425 0.0
H556 H 0.77363 0.82028 0.13634 0.0
H557 H 0.8024 0.79286 0.0706 0.0
H558 H 0.66404 0.69138 0.0314 0.0
H559 H 0.63571 0.71758 0.09748 0.0
C560 C 0.74589 0.65906 0.95575 0.0
C561 C 0.78347 0.68911 0.92795 0.0
C562 C 0.73086 0.67541 0.99407 0.0
C563 C 0.75259 0.72235 1.00533 0.0
C564 C 0.79008 0.75244 0.9773 0.0
C565 C 0.80542 0.73603 0.93924 0.0
C566 C 0.74945 0.79213 0.11362 0.0
C567 C 0.70237 0.77103 0.12248 0.0
C568 C 0.76589 0.77649 0.07574 0.0
C569 C 0.73562 0.73963 0.04562 0.0
C570 C 0.68857 0.71908 0.05432 0.0
C571 C 0.67224 0.73435 0.09227 0.0
H572 H 0.0399 0.6727 0.36943 0.0
H573 H 0.1406 0.76748 0.47117 0.0
H574 H 0.991 0.62941 0.43636 0.0
H575 H 0.09152 0.72574 0.53818 0.0
H576 H 0.99739 0.66013 0.65516 0.0
H577 H 0.04781 0.66441 0.59001 0.0
H578 H 0.94577 0.64946 0.48451 0.0
H579 H 0.89499 0.64327 0.55007 0.0
C580 C 0.05248 0.6829 0.40633 0.0
C581 C 0.09403 0.72321 0.4153 0.0
C582 C 0.02413 0.65862 0.4447 0.0
C583 C 0.0365 0.67466 0.49279 0.0
C584 C 0.08065 0.71199 0.50181 0.0
C585 C 0.1092 0.73595 0.46336 0.0
C586 C 0.98515 0.65574 0.61795 0.0
C587 C 0.9424 0.6513 0.60743 0.0
C588 C 0.01422 0.65874 0.58058 0.0
C589 C 0.00152 0.65836 0.5318 0.0
C590 C 0.95683 0.64955 0.52149 0.0
C591 C 0.92748 0.6459 0.55903 0.0
H592 H 0.34384 0.17463 0.98645 0.0
H593 H 0.31497 0.06562 0.88451 0.0
H594 H 0.31181 0.11872 0.05211 0.0
H595 H 0.28329 0.01051 0.9493 0.0
H596 H 0.28462 0.93555 0.08386 0.0
H597 H 0.31703 0.99549 1.02473 0.0
H598 H 0.22997 0.04656 0.07412 0.0
H599 H 0.19672 0.98552 0.13466 0.0
C600 C 0.33148 0.13898 0.97826 0.0
C601 C 0.33246 0.12459 0.93042 0.0
C602 C 0.31253 0.10699 1.0156 0.0
C603 C 0.29495 0.06027 1.00577 0.0
C604 C 0.2968 0.04626 0.95811 0.0
C605 C 0.31511 0.0779 0.921 0.0
C606 C 0.27222 0.95948 0.08271 0.0
C607 C 0.23787 0.95551 0.11431 0.0
C608 C 0.29086 0.99385 0.04848 0.0
C609 C 0.27609 0.02571 0.04471 0.0
C610 C 0.24221 0.02255 0.07652 0.0
C611 C 0.22293 0.98745 0.11081 0.0
H612 H 0.257 0.17411 0.56988 0.0
H613 H 0.31594 0.28536 0.67435 0.0
H614 H 0.24495 0.22214 0.5132 0.0
H615 H 0.30303 0.3333 0.61744 0.0
H616 H 0.20212 0.36137 0.51127 0.0
H617 H 0.22709 0.32776 0.57459 0.0
H618 H 0.30214 0.29828 0.46824 0.0
H619 H 0.2783 0.33225 0.40548 0.0
C620 C 0.2673 0.20878 0.58076 0.0
C621 C 0.28763 0.22605 0.62642 0.0
C622 C 0.2606 0.2363 0.54826 0.0
C623 C 0.27337 0.28141 0.561 0.0
C624 C 0.293 0.29862 0.60689 0.0
C625 C 0.30055 0.27129 0.63918 0.0
C626 C 0.22522 0.34916 0.50179 0.0
C627 C 0.23768 0.34889 0.45325 0.0
C628 C 0.23931 0.32979 0.53795 0.0
C629 C 0.26575 0.30976 0.52586 0.0
C630 C 0.28117 0.31289 0.47822 0.0
C631 C 0.26757 0.3325 0.44239 0.0
H632 H 0.11305 0.25913 0.09649 0.0
H633 H 0.04522 0.31602 0.18029 0.0
H634 H 0.05281 0.23117 0.03602 0.0
H635 H 0.98383 0.28716 0.11878 0.0
H636 H 0.91516 0.27289 0.96715 0.0
H637 H 0.97148 0.29985 0.03267 0.0
H638 H 0.97282 0.17308 1.02668 0.0
H639 H 0.9169 0.14608 0.96039 0.0
C640 C 0.08515 0.26564 0.10225 0.0
C641 C 0.08406 0.28988 0.14358 0.0
C642 C 0.05032 0.24917 0.0675 0.0
C643 C 0.01322 0.25638 0.0728 0.0
C644 C 0.01213 0.28117 0.11366 0.0
C645 C 0.04723 0.29771 0.14885 0.0
C646 C 0.92734 0.25057 0.97964 0.0
C647 C 0.91161 0.2073 0.95798 0.0
C648 C 0.95938 0.26602 1.01764 0.0
C649 C 0.97667 0.2387 0.03488 0.0
C650 C 0.96055 0.1952 1.01379 0.0
C651 C 0.92842 0.17968 0.97579 0.0
H652 H 0.74469 0.11081 0.58137 0.0
H653 H 0.65116 0.01045 0.6804 0.0
H654 H 0.70336 0.06047 0.51313 0.0
H655 H 0.6085 0.96023 0.61224 0.0
H656 H 0.63331 0.86768 0.50078 0.0
H657 H 0.63385 0.91714 0.56588 0.0
H658 H 0.64078 0.0137 0.45986 0.0
H659 H 0.64172 0.96449 0.39511 0.0
C660 C 0.71356 0.07914 0.58827 0.0
C661 C 0.70112 0.06434 0.6359 0.0
C662 C 0.68981 0.04995 0.54915 0.0
C663 C 0.65314 0.00561 0.55722 0.0
C664 C 0.63718 0.9936 0.60478 0.0
C665 C 0.66119 0.0226 0.64379 0.0
C666 C 0.63265 0.89837 0.49149 0.0
C667 C 0.63758 0.91248 0.44325 0.0
C668 C 0.63309 0.92697 0.52876 0.0
C669 C 0.63832 0.97005 0.5182 0.0
C670 C 0.63771 0.98133 0.46935 0.0
C671 C 0.63773 0.95296 0.43226 0.0
loop_
_geom_bond_atom_site_label_1
_geom_bond_atom_site_label_2
_geom_bond_distance
_geom_bond_site_symmetry_2
_ccdc_geom_bond_type
Fe0 O1 1.886 . S
Fe0 O4 1.715 . S
Fe0 O9 2.077 . S
Fe0 O14 1.935 . S
Fe0 O20 2.077 . S
Fe0 O29 1.935 . S
O1 Fe0 1.886 . S
O1 Fe3 1.715 . S
Fe2 O4 1.886 . S
Fe2 O5 1.715 . S
Fe2 O12 1.935 . S
Fe2 O13 2.077 . S
Fe2 O19 1.935 . S
Fe2 O28 2.077 . S
Fe3 O1 1.715 . S
Fe3 O6 1.886 . S
Fe3 O10 1.935 . S
Fe3 O15 2.077 . S
Fe3 O21 1.935 . S
Fe3 O25 2.077 . S
O4 Fe0 1.715 . S
O4 Fe2 1.886 . S
O5 Fe2 1.715 . S
O5 Fe7 1.886 . S
O6 Fe3 1.886 . S
O6 Fe7 1.715 . S
Fe7 O5 1.886 . S
Fe7 O6 1.715 . S
Fe7 O11 2.077 . S
Fe7 O16 1.935 . S
Fe7 O18 2.077 . S
Fe7 O26 1.935 . S
C8 O20 1.381 . S
C8 O21 1.421 . S
O9 Fe0 2.077 . S
O9 C22 1.381 . S
O10 Fe3 1.935 . S
O10 C22 1.421 . S
O11 Fe7 2.077 . S
O11 C27 1.381 . S
O12 Fe2 1.935 . S
O12 C27 1.421 . S
O13 Fe2 2.077 . S
O13 C17 1.381 . S
O14 Fe0 1.935 . S
O14 C17 1.421 . S
O15 Fe3 2.077 . S
O15 C23 1.381 . S
O16 Fe7 1.935 . S
O16 C23 1.421 . S
C17 O13 1.381 . S
C17 O14 1.421 . S
O18 Fe7 2.077 . S
O18 C30 1.381 . S
O19 Fe2 1.935 . S
O19 C30 1.421 . S
O20 Fe0 2.077 . S
O20 C8 1.381 . S
O21 Fe3 1.935 . S
O21 C8 1.421 . S
C22 O9 1.381 . S
C22 O10 1.421 . S
C23 O15 1.381 . S
C23 O16 1.421 . S
C24 O25 1.381 . S
C24 O26 1.421 . S
O25 Fe3 2.077 . S
O25 C24 1.381 . S
O26 Fe7 1.935 . S
O26 C24 1.421 . S
C27 O11 1.381 . S
C27 O12 1.421 . S
O28 Fe2 2.077 . S
O28 C31 1.381 . S
O29 Fe0 1.935 . S
O29 C31 1.421 . S
C30 O18 1.381 . S
C30 O19 1.421 . S
C31 O28 1.381 . S
C31 O29 1.421 . S
Fe32 O33 1.886 . S
Fe32 O36 1.715 . S
Fe32 O41 2.077 . S
Fe32 O46 1.935 . S
Fe32 O52 2.077 . S
Fe32 O61 1.935 . S
O33 Fe32 1.886 . S
O33 Fe35 1.715 . S
Fe34 O36 1.886 . S
Fe34 O37 1.715 . S
Fe34 O44 1.935 . S
Fe34 O45 2.077 . S
Fe34 O51 1.935 . S
Fe34 O60 2.077 . S
Fe35 O33 1.715 . S
Fe35 O38 1.886 . S
Fe35 O42 1.935 . S
Fe35 O47 2.077 . S
Fe35 O53 1.935 . S
Fe35 O57 2.077 . S
O36 Fe32 1.715 . S
O36 Fe34 1.886 . S
O37 Fe34 1.715 . S
O37 Fe39 1.886 . S
O38 Fe35 1.886 . S
O38 Fe39 1.715 . S
Fe39 O37 1.886 . S
Fe39 O38 1.715 . S
Fe39 O43 2.077 . S
Fe39 O48 1.935 . S
Fe39 O50 2.077 . S
Fe39 O58 1.935 . S
C40 O52 1.381 . S
C40 O53 1.421 . S
O41 Fe32 2.077 . S
O41 C54 1.381 . S
O42 Fe35 1.935 . S
O42 C54 1.421 . S
O43 Fe39 2.077 . S
O43 C59 1.381 . S
O44 Fe34 1.935 . S
O44 C59 1.421 . S
O45 Fe34 2.077 . S
O45 C49 1.381 . S
O46 Fe32 1.935 . S
O46 C49 1.421 . S
O47 Fe35 2.077 . S
O47 C55 1.381 . S
O48 Fe39 1.935 . S
O48 C55 1.421 . S
C49 O45 1.381 . S
C49 O46 1.421 . S
O50 Fe39 2.077 . S
O50 C62 1.381 . S
O51 Fe34 1.935 . S
O51 C62 1.421 . S
O52 Fe32 2.077 . S
O52 C40 1.381 . S
O53 Fe35 1.935 . S
O53 C40 1.421 . S
C54 O41 1.381 . S
C54 O42 1.421 . S
C55 O47 1.381 . S
C55 O48 1.421 . S
C56 O57 1.381 . S
C56 O58 1.421 . S
O57 Fe35 2.077 . S
O57 C56 1.381 . S
O58 Fe39 1.935 . S
O58 C56 1.421 . S
C59 O43 1.381 . S
C59 O44 1.421 . S
O60 Fe34 2.077 . S
O60 C63 1.381 . S
O61 Fe32 1.935 . S
O61 C63 1.421 . S
C62 O50 1.381 . S
C62 O51 1.421 . S
C63 O60 1.381 . S
C63 O61 1.421 . S
Fe64 O65 1.886 . S
Fe64 O68 1.715 . S
Fe64 O73 2.077 . S
Fe64 O78 1.935 . S
Fe64 O84 2.077 . S
Fe64 O93 1.935 . S
O65 Fe64 1.886 . S
O65 Fe67 1.715 . S
Fe66 O68 1.886 . S
Fe66 O69 1.715 . S
Fe66 O76 1.935 . S
Fe66 O77 2.077 . S
Fe66 O83 1.935 . S
Fe66 O92 2.077 . S
Fe67 O65 1.715 . S
Fe67 O70 1.886 . S
Fe67 O74 1.935 . S
Fe67 O79 2.077 . S
Fe67 O85 1.935 . S
Fe67 O89 2.077 . S
O68 Fe64 1.715 . S
O68 Fe66 1.886 . S
O69 Fe66 1.715 . S
O69 Fe71 1.886 . S
O70 Fe67 1.886 . S
O70 Fe71 1.715 . S
Fe71 O69 1.886 . S
Fe71 O70 1.715 . S
Fe71 O75 2.077 . S
Fe71 O80 1.935 . S
Fe71 O82 2.077 . S
Fe71 O90 1.935 . S
C72 O84 1.381 . S
C72 O85 1.421 . S
O73 Fe64 2.077 . S
O73 C86 1.381 . S
O74 Fe67 1.935 . S
O74 C86 1.421 . S
O75 Fe71 2.077 . S
O75 C91 1.381 . S
O76 Fe66 1.935 . S
O76 C91 1.421 . S
O77 Fe66 2.077 . S
O77 C81 1.381 . S
O78 Fe64 1.935 . S
O78 C81 1.421 . S
O79 Fe67 2.077 . S
O79 C87 1.381 . S
O80 Fe71 1.935 . S
O80 C87 1.421 . S
C81 O77 1.381 . S
C81 O78 1.421 . S
O82 Fe71 2.077 . S
O82 C94 1.381 . S
O83 Fe66 1.935 . S
O83 C94 1.421 . S
O84 Fe64 2.077 . S
O84 C72 1.381 . S
O85 Fe67 1.935 . S
O85 C72 1.421 . S
C86 O73 1.381 . S
C86 O74 1.421 . S
C87 O79 1.381 . S
C87 O80 1.421 . S
C88 O89 1.381 . S
C88 O90 1.421 . S
O89 Fe67 2.077 . S
O89 C88 1.381 . S
O90 Fe71 1.935 . S
O90 C88 1.421 . S
C91 O75 1.381 . S
C91 O76 1.421 . S
O92 Fe66 2.077 . S
O92 C95 1.381 . S
O93 Fe64 1.935 . S
O93 C95 1.421 . S
C94 O82 1.381 . S
C94 O83 1.421 . S
C95 O92 1.381 . S
C95 O93 1.421 . S
Fe96 O97 1.886 . S
Fe96 O100 1.715 . S
Fe96 O105 2.077 . S
Fe96 O110 1.935 . S
Fe96 O116 2.077 . S
Fe96 O125 1.935 . S
O97 Fe96 1.886 . S
O97 Fe99 1.715 . S
Fe98 O100 1.886 . S
Fe98 O101 1.715 . S
Fe98 O108 1.935 . S
Fe98 O109 2.077 . S
Fe98 O115 1.935 . S
Fe98 O124 2.077 . S
Fe99 O97 1.715 . S
Fe99 O102 1.886 . S
Fe99 O106 1.935 . S
Fe99 O111 2.077 . S
Fe99 O117 1.935 . S
Fe99 O121 2.077 . S
O100 Fe96 1.715 . S
O100 Fe98 1.886 . S
O101 Fe98 1.715 . S
O101 Fe103 1.886 . S
O102 Fe99 1.886 . S
O102 Fe103 1.715 . S
Fe103 O101 1.886 . S
Fe103 O102 1.715 . S
Fe103 O107 2.077 . S
Fe103 O112 1.935 . S
Fe103 O114 2.077 . S
Fe103 O122 1.935 . S
C104 O116 1.381 . S
C104 O117 1.421 . S
O105 Fe96 2.077 . S
O105 C118 1.381 . S
O106 Fe99 1.935 . S
O106 C118 1.421 . S
O107 Fe103 2.077 . S
O107 C123 1.381 . S
O108 Fe98 1.935 . S
O108 C123 1.421 . S
O109 Fe98 2.077 . S
O109 C113 1.381 . S
O110 Fe96 1.935 . S
O110 C113 1.421 . S
O111 Fe99 2.077 . S
O111 C119 1.381 . S
O112 Fe103 1.935 . S
O112 C119 1.421 . S
C113 O109 1.381 . S
C113 O110 1.421 . S
O114 Fe103 2.077 . S
O114 C126 1.381 . S
O115 Fe98 1.935 . S
O115 C126 1.421 . S
O116 Fe96 2.077 . S
O116 C104 1.381 . S
O117 Fe99 1.935 . S
O117 C104 1.421 . S
C118 O105 1.381 . S
C118 O106 1.421 . S
C119 O111 1.381 . S
C119 O112 1.421 . S
C120 O121 1.381 . S
C120 O122 1.421 . S
O121 Fe99 2.077 . S
O121 C120 1.381 . S
O122 Fe103 1.935 . S
O122 C120 1.421 . S
C123 O107 1.381 . S
C123 O108 1.421 . S
O124 Fe98 2.077 . S
O124 C127 1.381 . S
O125 Fe96 1.935 . S
O125 C127 1.421 . S
C126 O114 1.381 . S
C126 O115 1.421 . S
C127 O124 1.381 . S
C127 O125 1.421 . S
Fe128 O129 1.886 . S
Fe128 O132 1.715 . S
Fe128 O137 2.077 . S
Fe128 O142 1.935 . S
Fe128 O148 2.077 . S
Fe128 O157 1.935 . S
O129 Fe128 1.886 . S
O129 Fe131 1.715 . S
Fe130 O132 1.886 . S
Fe130 O133 1.715 . S
Fe130 O140 1.935 . S
Fe130 O141 2.077 . S
Fe130 O147 1.935 . S
Fe130 O156 2.077 . S
Fe131 O129 1.715 . S
Fe131 O134 1.886 . S
Fe131 O138 1.935 . S
Fe131 O143 2.077 . S
Fe131 O149 1.935 . S
Fe131 O153 2.077 . S
O132 Fe128 1.715 . S
O132 Fe130 1.886 . S
O133 Fe130 1.715 . S
O133 Fe135 1.886 . S
O134 Fe131 1.886 . S
O134 Fe135 1.715 . S
Fe135 O133 1.886 . S
Fe135 O134 1.715 . S
Fe135 O139 2.077 . S
Fe135 O144 1.935 . S
Fe135 O146 2.077 . S
Fe135 O154 1.935 . S
C136 O148 1.381 . S
C136 O149 1.421 . S
O137 Fe128 2.077 . S
O137 C150 1.381 . S
O138 Fe131 1.935 . S
O138 C150 1.421 . S
O139 Fe135 2.077 . S
O139 C155 1.381 . S
O140 Fe130 1.935 . S
O140 C155 1.421 . S
O141 Fe130 2.077 . S
O141 C145 1.381 . S
O142 Fe128 1.935 . S
O142 C145 1.421 . S
O143 Fe131 2.077 . S
O143 C151 1.381 . S
O144 Fe135 1.935 . S
O144 C151 1.421 . S
C145 O141 1.381 . S
C145 O142 1.421 . S
O146 Fe135 2.077 . S
O146 C158 1.381 . S
O147 Fe130 1.935 . S
O147 C158 1.421 . S
O148 Fe128 2.077 . S
O148 C136 1.381 . S
O149 Fe131 1.935 . S
O149 C136 1.421 . S
C150 O137 1.381 . S
C150 O138 1.421 . S
C151 O143 1.381 . S
C151 O144 1.421 . S
C152 O153 1.381 . S
C152 O154 1.421 . S
O153 Fe131 2.077 . S
O153 C152 1.381 . S
O154 Fe135 1.935 . S
O154 C152 1.421 . S
C155 O139 1.381 . S
C155 O140 1.421 . S
O156 Fe130 2.077 . S
O156 C159 1.381 . S
O157 Fe128 1.935 . S
O157 C159 1.421 . S
C158 O146 1.381 . S
C158 O147 1.421 . S
C159 O156 1.381 . S
C159 O157 1.421 . S
Fe160 O161 1.886 . S
Fe160 O164 1.715 . S
Fe160 O169 2.077 . S
Fe160 O174 1.935 . S
Fe160 O180 2.077 . S
Fe160 O189 1.935 . S
O161 Fe160 1.886 . S
O161 Fe163 1.715 . S
Fe162 O164 1.886 . S
Fe162 O165 1.715 . S
Fe162 O172 1.935 . S
Fe162 O173 2.077 . S
Fe162 O179 1.935 . S
Fe162 O188 2.077 . S
Fe163 O161 1.715 . S
Fe163 O166 1.886 . S
Fe163 O170 1.935 . S
Fe163 O175 2.077 . S
Fe163 O181 1.935 . S
Fe163 O185 2.077 . S
O164 Fe160 1.715 . S
O164 Fe162 1.886 . S
O165 Fe162 1.715 . S
O165 Fe167 1.886 . S
O166 Fe163 1.886 . S
O166 Fe167 1.715 . S
Fe167 O165 1.886 . S
Fe167 O166 1.715 . S
Fe167 O171 2.077 . S
Fe167 O176 1.935 . S
Fe167 O178 2.077 . S
Fe167 O186 1.935 . S
C168 O180 1.381 . S
C168 O181 1.421 . S
O169 Fe160 2.077 . S
O169 C182 1.381 . S
O170 Fe163 1.935 . S
O170 C182 1.421 . S
O171 Fe167 2.077 . S
O171 C187 1.381 . S
O172 Fe162 1.935 . S
O172 C187 1.421 . S
O173 Fe162 2.077 . S
O173 C177 1.381 . S
O174 Fe160 1.935 . S
O174 C177 1.421 . S
O175 Fe163 2.077 . S
O175 C183 1.381 . S
O176 Fe167 1.935 . S
O176 C183 1.421 . S
C177 O173 1.381 . S
C177 O174 1.421 . S
O178 Fe167 2.077 . S
O178 C190 1.381 . S
O179 Fe162 1.935 . S
O179 C190 1.421 . S
O180 Fe160 2.077 . S
O180 C168 1.381 . S
O181 Fe163 1.935 . S
O181 C168 1.421 . S
C182 O169 1.381 . S
C182 O170 1.421 . S
C183 O175 1.381 . S
C183 O176 1.421 . S
C184 O185 1.381 . S
C184 O186 1.421 . S
O185 Fe163 2.077 . S
O185 C184 1.381 . S
O186 Fe167 1.935 . S
O186 C184 1.421 . S
C187 O171 1.381 . S
C187 O172 1.421 . S
O188 Fe162 2.077 . S
O188 C191 1.381 . S
O189 Fe160 1.935 . S
O189 C191 1.421 . S
C190 O178 1.381 . S
C190 O179 1.421 . S
C191 O188 1.381 . S
C191 O189 1.421 . S
H192 C200 0.950 . S
H193 C205 0.950 . S
H194 C202 0.950 . S
H195 C204 0.950 . S
H196 C206 0.950 . S
H197 C208 0.950 . S
H198 C210 0.950 . S
H199 C211 0.950 . S
C200 H192 0.950 . S
C200 C201 1.386 . S
C200 C202 1.391 . S
C201 C200 1.386 . S
C201 C205 1.393 . S
C202 H194 0.950 . S
C202 C200 1.391 . S
C202 C203 1.400 . S
C203 C202 1.400 . S
C203 C204 1.398 . S
C203 C209 1.491 . S
C204 H195 0.950 . S
C204 C203 1.398 . S
C204 C205 1.391 . S
C205 H193 0.950 . S
C205 C201 1.393 . S
C205 C204 1.391 . S
C206 H196 0.950 . S
C206 C207 1.386 . S
C206 C208 1.391 . S
C207 C206 1.386 . S
C207 C211 1.393 . S
C208 H197 0.950 . S
C208 C206 1.391 . S
C208 C209 1.400 . S
C209 C203 1.491 . S
C209 C208 1.400 . S
C209 C210 1.398 . S
C210 H198 0.950 . S
C210 C209 1.398 . S
C210 C211 1.391 . S
C211 H199 0.950 . S
C211 C207 1.393 . S
C211 C210 1.391 . S
H212 C220 0.950 . S
H213 C225 0.950 . S
H214 C222 0.950 . S
H215 C224 0.950 . S
H216 C226 0.950 . S
H217 C228 0.950 . S
H218 C230 0.950 . S
H219 C231 0.950 . S
C220 H212 0.950 . S
C220 C221 1.386 . S
C220 C222 1.391 . S
C221 C220 1.386 . S
C221 C225 1.393 . S
C222 H214 0.950 . S
C222 C220 1.391 . S
C222 C223 1.400 . S
C223 C222 1.400 . S
C223 C224 1.398 . S
C223 C229 1.491 . S
C224 H215 0.950 . S
C224 C223 1.398 . S
C224 C225 1.391 . S
C225 H213 0.950 . S
C225 C221 1.393 . S
C225 C224 1.391 . S
C226 H216 0.950 . S
C226 C227 1.386 . S
C226 C228 1.391 . S
C227 C226 1.386 . S
C227 C231 1.393 . S
C228 H217 0.950 . S
C228 C226 1.391 . S
C228 C229 1.400 . S
C229 C223 1.491 . S
C229 C228 1.400 . S
C229 C230 1.398 . S
C230 H218 0.950 . S
C230 C229 1.398 . S
C230 C231 1.391 . S
C231 H219 0.950 . S
C231 C227 1.393 . S
C231 C230 1.391 . S
H232 C240 0.950 . S
H233 C245 0.950 . S
H234 C242 0.950 . S
H235 C244 0.950 . S
H236 C246 0.950 . S
H237 C248 0.950 . S
H238 C250 0.950 . S
H239 C251 0.950 . S
C240 H232 0.950 . S
C240 C241 1.386 . S
C240 C242 1.391 . S
C241 C240 1.386 . S
C241 C245 1.393 . S
C242 H234 0.950 . S
C242 C240 1.391 . S
C242 C243 1.400 . S
C243 C242 1.400 . S
C243 C244 1.398 . S
C243 C249 1.491 . S
C244 H235 0.950 . S
C244 C243 1.398 . S
C244 C245 1.391 . S
C245 H233 0.950 . S
C245 C241 1.393 . S
C245 C244 1.391 . S
C246 H236 0.950 . S
C246 C247 1.386 . S
C246 C248 1.391 . S
C247 C246 1.386 . S
C247 C251 1.393 . S
C248 H237 0.950 . S
C248 C246 1.391 . S
C248 C249 1.400 . S
C249 C243 1.491 . S
C249 C248 1.400 . S
C249 C250 1.398 . S
C250 H238 0.950 . S
C250 C249 1.398 . S
C250 C251 1.391 . S
C251 H239 0.950 . S
C251 C247 1.393 . S
C251 C250 1.391 . S
H252 C260 0.950 . S
H253 C265 0.950 . S
H254 C262 0.950 . S
H255 C264 0.950 . S
H256 C266 0.950 . S
H257 C268 0.950 . S
H258 C270 0.950 . S
H259 C271 0.950 . S
C260 H252 0.950 . S
C260 C261 1.386 . S
C260 C262 1.391 . S
C261 C260 1.386 . S
C261 C265 1.393 . S
C262 H254 0.950 . S
C262 C260 1.391 . S
C262 C263 1.400 . S
C263 C262 1.400 . S
C263 C264 1.398 . S
C263 C269 1.491 . S
C264 H255 0.950 . S
C264 C263 1.398 . S
C264 C265 1.391 . S
C265 H253 0.950 . S
C265 C261 1.393 . S
C265 C264 1.391 . S
C266 H256 0.950 . S
C266 C267 1.386 . S
C266 C268 1.391 . S
C267 C266 1.386 . S
C267 C271 1.393 . S
C268 H257 0.950 . S
C268 C266 1.391 . S
C268 C269 1.400 . S
C269 C263 1.491 . S
C269 C268 1.400 . S
C269 C270 1.398 . S
C270 H258 0.950 . S
C270 C269 1.398 . S
C270 C271 1.391 . S
C271 H259 0.950 . S
C271 C267 1.393 . S
C271 C270 1.391 . S
H272 C280 0.950 . S
H273 C285 0.950 . S
H274 C282 0.950 . S
H275 C284 0.950 . S
H276 C286 0.950 . S
H277 C288 0.950 . S
H278 C290 0.950 . S
H279 C291 0.950 . S
C280 H272 0.950 . S
C280 C281 1.386 . S
C280 C282 1.391 . S
C281 C280 1.386 . S
C281 C285 1.393 . S
C282 H274 0.950 . S
C282 C280 1.391 . S
C282 C283 1.400 . S
C283 C282 1.400 . S
C283 C284 1.398 . S
C283 C289 1.491 . S
C284 H275 0.950 . S
C284 C283 1.398 . S
C284 C285 1.391 . S
C285 H273 0.950 . S
C285 C281 1.393 . S
C285 C284 1.391 . S
C286 H276 0.950 . S
C286 C287 1.386 . S
C286 C288 1.391 . S
C287 C286 1.386 . S
C287 C291 1.393 . S
C288 H277 0.950 . S
C288 C286 1.391 . S
C288 C289 1.400 . S
C289 C283 1.491 . S
C289 C288 1.400 . S
C289 C290 1.398 . S
C290 H278 0.950 . S
C290 C289 1.398 . S
C290 C291 1.391 . S
C291 H279 0.950 . S
C291 C287 1.393 . S
C291 C290 1.391 . S
H292 C300 0.950 . S
H293 C305 0.950 . S
H294 C302 0.950 . S
H295 C304 0.950 . S
H296 C306 0.950 . S
H297 C308 0.950 . S
H298 C310 0.950 . S
H299 C311 0.950 . S
C300 H292 0.950 . S
C300 C301 1.386 . S
C300 C302 1.391 . S
C301 C300 1.386 . S
C301 C305 1.393 . S
C302 H294 0.950 . S
C302 C300 1.391 . S
C302 C303 1.400 . S
C303 C302 1.400 . S
C303 C304 1.398 . S
C303 C309 1.491 . S
C304 H295 0.950 . S
C304 C303 1.398 . S
C304 C305 1.391 . S
C305 H293 0.950 . S
C305 C301 1.393 . S
C305 C304 1.391 . S
C306 H296 0.950 . S
C306 C307 1.386 . S
C306 C308 1.391 . S
C307 C306 1.386 . S
C307 C311 1.393 . S
C308 H297 0.950 . S
C308 C306 1.391 . S
C308 C309 1.400 . S
C309 C303 1.491 . S
C309 C308 1.400 . S
C309 C310 1.398 . S
C310 H298 0.950 . S
C310 C309 1.398 . S
C310 C311 1.391 . S
C311 H299 0.950 . S
C311 C307 1.393 . S
C311 C310 1.391 . S
H312 C320 0.950 . S
H313 C325 0.950 . S
H314 C322 0.950 . S
H315 C324 0.950 . S
H316 C326 0.950 . S
H317 C328 0.950 . S
H318 C330 0.950 . S
H319 C331 0.950 . S
C320 H312 0.950 . S
C320 C321 1.386 . S
C320 C322 1.391 . S
C321 C320 1.386 . S
C321 C325 1.393 . S
C322 H314 0.950 . S
C322 C320 1.391 . S
C322 C323 1.400 . S
C323 C322 1.400 . S
C323 C324 1.398 . S
C323 C329 1.491 . S
C324 H315 0.950 . S
C324 C323 1.398 . S
C324 C325 1.391 . S
C325 H313 0.950 . S
C325 C321 1.393 . S
C325 C324 1.391 . S
C326 H316 0.950 . S
C326 C327 1.386 . S
C326 C328 1.391 1_565 S
C327 C326 1.386 . S
C327 C331 1.393 1_565 S
C328 H317 0.950 . S
C328 C326 1.391 1_545 S
C328 C329 1.400 . S
C329 C323 1.491 . S
C329 C328 1.400 . S
C329 C330 1.398 . S
C330 H318 0.950 . S
C330 C329 1.398 . S
C330 C331 1.391 . S
C331 H319 0.950 . S
C331 C327 1.393 1_545 S
C331 C330 1.391 . S
H332 C340 0.950 . S
H333 C345 0.965 . S
H334 C342 0.950 . S
H335 C344 0.950 . S
H336 C346 0.950 . S
H337 C348 0.950 . S
H338 C350 0.950 . S
H339 C351 0.950 . S
C340 H332 0.950 . S
C340 C341 1.386 1_455 S
C340 C342 1.391 . S
C341 C340 1.386 1_655 S
C341 C345 1.408 . S
C342 H334 0.950 . S
C342 C340 1.391 . S
C342 C343 1.400 . S
C343 C342 1.400 . S
C343 C344 1.398 . S
C343 C349 1.491 . S
C344 H335 0.950 . S
C344 C343 1.398 . S
C344 C345 1.361 1_455 S
C345 H333 0.965 . S
C345 C341 1.408 . S
C345 C344 1.361 1_655 S
C346 H336 0.950 . S
C346 C347 1.386 . S
C346 C348 1.391 . S
C347 C346 1.386 . S
C347 C351 1.393 . S
C348 H337 0.950 . S
C348 C346 1.391 . S
C348 C349 1.400 . S
C349 C343 1.491 . S
C349 C348 1.400 . S
C349 C350 1.398 . S
C350 H338 0.950 . S
C350 C349 1.398 . S
C350 C351 1.391 . S
C351 H339 0.950 . S
C351 C347 1.393 . S
C351 C350 1.391 . S
H352 C360 0.950 . S
H353 C365 0.950 . S
H354 C362 0.950 . S
H355 C364 0.950 . S
H356 C366 0.950 . S
H357 C368 0.950 . S
H358 C370 0.950 . S
H359 C371 0.950 . S
C360 H352 0.950 . S
C360 C361 1.386 . S
C360 C362 1.391 1_455 S
C361 C360 1.386 . S
C361 C365 1.393 1_455 S
C362 H354 0.950 . S
C362 C360 1.391 1_655 S
C362 C363 1.400 . S
C363 C362 1.400 . S
C363 C364 1.398 . S
C363 C369 1.491 . S
C364 H355 0.950 . S
C364 C363 1.398 . S
C364 C365 1.391 . S
C365 H353 0.950 . S
C365 C361 1.393 1_655 S
C365 C364 1.391 . S
C366 H356 0.950 . S
C366 C367 1.386 1_545 S
C366 C368 1.391 . S
C367 C366 1.386 1_565 S
C367 C371 1.393 . S
C368 H357 0.950 . S
C368 C366 1.391 . S
C368 C369 1.400 . S
C369 C363 1.491 . S
C369 C368 1.400 . S
C369 C370 1.398 . S
C370 H358 0.950 . S
C370 C369 1.398 . S
C370 C371 1.391 1_545 S
C371 H359 0.950 . S
C371 C367 1.393 . S
C371 C370 1.391 1_565 S
H372 C380 0.950 . S
H373 C385 0.951 1_545 S
H374 C382 0.950 . S
H375 C384 0.950 . S
H376 C386 0.950 . S
H377 C388 0.950 . S
H378 C390 0.950 . S
H379 C391 0.950 . S
C380 H372 0.950 . S
C380 C381 1.386 . S
C380 C382 1.391 1_545 S
C381 C380 1.386 . S
C381 C385 1.393 1_545 S
C382 H374 0.950 . S
C382 C380 1.391 1_565 S
C382 C383 1.400 . S
C383 C382 1.400 . S
C383 C384 1.398 . S
C383 C389 1.491 . S
C384 H375 0.950 . S
C384 C383 1.398 . S
C384 C385 1.391 . S
C385 H373 0.951 1_565 S
C385 C381 1.393 1_565 S
C385 C384 1.391 . S
C386 H376 0.950 . S
C386 C387 1.386 . S
C386 C388 1.391 . S
C387 C386 1.386 . S
C387 C391 1.393 . S
C388 H377 0.950 . S
C388 C386 1.391 . S
C388 C389 1.400 . S
C389 C383 1.491 . S
C389 C388 1.400 . S
C389 C390 1.398 . S
C390 H378 0.950 . S
C390 C389 1.398 . S
C390 C391 1.391 . S
C391 H379 0.950 . S
C391 C387 1.393 . S
C391 C390 1.391 . S
H392 C400 0.950 . S
H393 C405 0.950 . S
H394 C402 0.950 . S
H395 C404 0.950 . S
H396 C406 0.950 . S
H397 C408 0.950 . S
H398 C410 0.950 . S
H399 C411 0.950 . S
C400 H392 0.950 . S
C400 C401 1.386 . S
C400 C402 1.391 . S
C401 C400 1.386 . S
C401 C405 1.393 . S
C402 H394 0.950 . S
C402 C400 1.391 . S
C402 C403 1.400 . S
C403 C402 1.400 . S
C403 C404 1.398 . S
C403 C409 1.491 . S
C404 H395 0.950 . S
C404 C403 1.398 . S
C404 C405 1.391 . S
C405 H393 0.950 . S
C405 C401 1.393 . S
C405 C404 1.391 . S
C406 H396 0.950 . S
C406 C407 1.386 1_655 S
C406 C408 1.391 . S
C407 C406 1.386 1_455 S
C407 C411 1.393 . S
C408 H397 0.950 . S
C408 C406 1.391 . S
C408 C409 1.400 . S
C409 C403 1.491 . S
C409 C408 1.400 . S
C409 C410 1.398 . S
C410 H398 0.950 . S
C410 C409 1.398 . S
C410 C411 1.391 1_655 S
C411 H399 0.950 . S
C411 C407 1.393 . S
C411 C410 1.391 1_455 S
H412 C420 0.950 . S
H413 C425 0.950 . S
H414 C422 0.950 . S
H415 C424 0.950 . S
H416 C426 0.950 . S
H417 C428 0.950 . S
H418 C430 0.950 . S
H419 C431 0.950 . S
C420 H412 0.950 . S
C420 C421 1.386 . S
C420 C422 1.391 1_545 S
C421 C420 1.386 . S
C421 C425 1.393 1_545 S
C422 H414 0.950 . S
C422 C420 1.391 1_565 S
C422 C423 1.400 . S
C423 C422 1.400 . S
C423 C424 1.398 . S
C423 C429 1.491 . S
C424 H415 0.950 . S
C424 C423 1.398 . S
C424 C425 1.391 . S
C425 H413 0.950 . S
C425 C421 1.393 1_565 S
C425 C424 1.391 . S
C426 H416 0.950 . S
C426 C427 1.386 1_455 S
C426 C428 1.391 . S
C427 C426 1.386 1_655 S
C427 C431 1.393 . S
C428 H417 0.950 . S
C428 C426 1.391 . S
C428 C429 1.400 . S
C429 C423 1.491 . S
C429 C428 1.400 . S
C429 C430 1.398 . S
C430 H418 0.950 . S
C430 C429 1.398 . S
C430 C431 1.391 1_455 S
C431 H419 0.950 . S
C431 C427 1.393 . S
C431 C430 1.391 1_655 S
H432 C440 0.950 . S
H433 C445 0.950 . S
H434 C442 0.950 1_556 S
H435 C444 0.950 . S
H436 C446 0.950 . S
H437 C448 0.950 1_554 S
H438 C450 0.950 . S
H439 C451 0.950 . S
C440 H432 0.950 . S
C440 C441 1.386 . S
C440 C442 1.391 . S
C441 C440 1.386 . S
C441 C445 1.393 . S
C442 H434 0.950 1_554 S
C442 C440 1.391 . S
C442 C443 1.400 . S
C443 C442 1.400 . S
C443 C444 1.398 . S
C443 C449 1.491 1_554 S
C444 H435 0.950 . S
C444 C443 1.398 . S
C444 C445 1.391 . S
C445 H433 0.950 . S
C445 C441 1.393 . S
C445 C444 1.391 . S
C446 H436 0.950 . S
C446 C447 1.386 . S
C446 C448 1.391 . S
C447 C446 1.386 . S
C447 C451 1.393 . S
C448 H437 0.950 1_556 S
C448 C446 1.391 . S
C448 C449 1.400 . S
C449 C443 1.491 1_556 S
C449 C448 1.400 . S
C449 C450 1.398 . S
C450 H438 0.950 . S
C450 C449 1.398 . S
C450 C451 1.391 . S
C451 H439 0.950 . S
C451 C447 1.393 . S
C451 C450 1.391 . S
H452 C460 0.950 . S
H453 C465 0.950 . S
H454 C462 0.950 . S
H455 C464 0.950 1_455 S
H456 C466 0.950 . S
H457 C468 0.950 . S
H458 C470 0.950 1_655 S
H459 C471 0.950 . S
C460 H452 0.950 . S
C460 C461 1.386 . S
C460 C462 1.391 . S
C461 C460 1.386 . S
C461 C465 1.393 . S
C462 H454 0.950 . S
C462 C460 1.391 . S
C462 C463 1.400 . S
C463 C462 1.400 . S
C463 C464 1.398 . S
C463 C469 1.491 1_655 S
C464 H455 0.950 1_655 S
C464 C463 1.398 . S
C464 C465 1.391 . S
C465 H453 0.950 . S
C465 C461 1.393 . S
C465 C464 1.391 . S
C466 H456 0.950 . S
C466 C467 1.386 . S
C466 C468 1.391 . S
C467 C466 1.386 . S
C467 C471 1.393 . S
C468 H457 0.950 . S
C468 C466 1.391 . S
C468 C469 1.400 . S
C469 C463 1.491 1_455 S
C469 C468 1.400 . S
C469 C470 1.398 . S
C470 H458 0.950 1_455 S
C470 C469 1.398 . S
C470 C471 1.391 . S
C471 H459 0.950 . S
C471 C467 1.393 . S
C471 C470 1.391 . S
H472 C480 0.950 . S
H473 C485 0.950 . S
H474 C482 0.950 . S
H475 C484 0.950 . S
H476 C486 0.950 . S
H477 C488 0.950 . S
H478 C490 0.950 . S
H479 C491 0.950 . S
C480 H472 0.950 . S
C480 C481 1.386 . S
C480 C482 1.391 . S
C481 C480 1.386 . S
C481 C485 1.393 . S
C482 H474 0.950 . S
C482 C480 1.391 . S
C482 C483 1.400 . S
C483 C482 1.400 . S
C483 C484 1.398 . S
C483 C489 1.491 1_564 S
C484 H475 0.950 . S
C484 C483 1.398 . S
C484 C485 1.391 . S
C485 H473 0.950 . S
C485 C481 1.393 . S
C485 C484 1.391 . S
C486 H476 0.950 . S
C486 C487 1.386 . S
C486 C488 1.391 . S
C487 C486 1.386 . S
C487 C491 1.393 . S
C488 H477 0.950 . S
C488 C486 1.391 . S
C488 C489 1.400 . S
C489 C483 1.491 1_546 S
C489 C488 1.400 . S
C489 C490 1.398 . S
C490 H478 0.950 . S
C490 C489 1.398 . S
C490 C491 1.391 . S
C491 H479 0.950 . S
C491 C487 1.393 . S
C491 C490 1.391 . S
H492 C500 0.950 . S
H493 C505 0.950 . S
H494 C502 0.950 . S
H495 C504 0.950 . S
H496 C506 0.950 . S
H497 C508 0.950 . S
H498 C510 0.950 . S
H499 C511 0.950 . S
C500 H492 0.950 . S
C500 C501 1.386 . S
C500 C502 1.391 . S
C501 C500 1.386 . S
C501 C505 1.393 . S
C502 H494 0.950 . S
C502 C500 1.391 . S
C502 C503 1.400 . S
C503 C502 1.400 . S
C503 C504 1.398 . S
C503 C509 1.491 . S
C504 H495 0.950 . S
C504 C503 1.398 . S
C504 C505 1.391 . S
C505 H493 0.950 . S
C505 C501 1.393 . S
C505 C504 1.391 . S
C506 H496 0.950 . S
C506 C507 1.386 . S
C506 C508 1.391 . S
C507 C506 1.386 . S
C507 C511 1.393 . S
C508 H497 0.950 . S
C508 C506 1.391 . S
C508 C509 1.400 . S
C509 C503 1.491 . S
C509 C508 1.400 . S
C509 C510 1.398 . S
C510 H498 0.950 . S
C510 C509 1.398 . S
C510 C511 1.391 . S
C511 H499 0.950 . S
C511 C507 1.393 . S
C511 C510 1.391 . S
H512 C520 0.950 . S
H513 C525 0.950 . S
H514 C522 0.950 1_554 S
H515 C524 0.950 1_455 S
H516 C526 0.950 . S
H517 C528 0.950 1_556 S
H518 C530 0.950 1_655 S
H519 C531 0.950 . S
C520 H512 0.950 . S
C520 C521 1.386 . S
C520 C522 1.391 . S
C521 C520 1.386 . S
C521 C525 1.393 . S
C522 H514 0.950 1_556 S
C522 C520 1.391 . S
C522 C523 1.400 . S
C523 C522 1.400 . S
C523 C524 1.398 . S
C523 C529 1.491 1_656 S
C524 H515 0.950 1_655 S
C524 C523 1.398 . S
C524 C525 1.391 . S
C525 H513 0.950 . S
C525 C521 1.393 . S
C525 C524 1.391 . S
C526 H516 0.950 . S
C526 C527 1.386 . S
C526 C528 1.391 . S
C527 C526 1.386 . S
C527 C531 1.393 . S
C528 H517 0.950 1_554 S
C528 C526 1.391 . S
C528 C529 1.400 . S
C529 C523 1.491 1_454 S
C529 C528 1.400 . S
C529 C530 1.398 . S
C530 H518 0.950 1_455 S
C530 C529 1.398 . S
C530 C531 1.391 . S
C531 H519 0.950 . S
C531 C527 1.393 . S
C531 C530 1.391 . S
H532 C540 0.950 . S
H533 C545 0.950 . S
H534 C542 0.950 . S
H535 C544 0.959 . S
H536 C546 0.950 . S
H537 C548 0.950 . S
H538 C550 0.959 . S
H539 C551 0.950 . S
C540 H532 0.950 . S
C540 C541 1.386 . S
C540 C542 1.391 . S
C541 C540 1.386 . S
C541 C545 1.393 . S
C542 H534 0.950 . S
C542 C540 1.391 . S
C542 C543 1.400 . S
C543 C542 1.400 . S
C543 C544 1.397 1_545 S
C543 C549 1.491 1_545 S
C544 H535 0.959 . S
C544 C543 1.397 1_565 S
C544 C545 1.383 1_565 S
C545 H533 0.950 . S
C545 C541 1.393 . S
C545 C544 1.383 1_545 S
C546 H536 0.950 . S
C546 C547 1.386 . S
C546 C548 1.391 . S
C547 C546 1.386 . S
C547 C551 1.393 . S
C548 H537 0.950 . S
C548 C546 1.391 . S
C548 C549 1.400 . S
C549 C543 1.491 1_565 S
C549 C548 1.400 . S
C549 C550 1.397 1_565 S
C550 H538 0.959 . S
C550 C549 1.397 1_545 S
C550 C551 1.383 1_545 S
C551 H539 0.950 . S
C551 C547 1.393 . S
C551 C550 1.383 1_565 S
H552 C560 0.950 . S
H553 C565 0.950 . S
H554 C562 0.950 . S
H555 C564 0.950 . S
H556 C566 0.950 . S
H557 C568 0.950 . S
H558 C570 0.950 . S
H559 C571 0.950 . S
C560 H552 0.950 . S
C560 C561 1.386 . S
C560 C562 1.391 . S
C561 C560 1.386 . S
C561 C565 1.393 . S
C562 H554 0.950 . S
C562 C560 1.391 . S
C562 C563 1.400 . S
C563 C562 1.400 . S
C563 C564 1.398 . S
C563 C569 1.491 1_556 S
C564 H555 0.950 . S
C564 C563 1.398 . S
C564 C565 1.391 . S
C565 H553 0.950 . S
C565 C561 1.393 . S
C565 C564 1.391 . S
C566 H556 0.950 . S
C566 C567 1.386 . S
C566 C568 1.391 . S
C567 C566 1.386 . S
C567 C571 1.393 . S
C568 H557 0.950 . S
C568 C566 1.391 . S
C568 C569 1.400 . S
C569 C563 1.491 1_554 S
C569 C568 1.400 . S
C569 C570 1.398 . S
C570 H558 0.950 . S
C570 C569 1.398 . S
C570 C571 1.391 . S
C571 H559 0.950 . S
C571 C567 1.393 . S
C571 C570 1.391 . S
H572 C580 0.950 . S
H573 C585 0.950 . S
H574 C582 0.950 1_655 S
H575 C584 0.950 . S
H576 C586 0.950 . S
H577 C588 0.950 1_455 S
H578 C590 0.950 . S
H579 C591 0.950 . S
C580 H572 0.950 . S
C580 C581 1.386 . S
C580 C582 1.391 . S
C581 C580 1.386 . S
C581 C585 1.393 . S
C582 H574 0.950 1_455 S
C582 C580 1.391 . S
C582 C583 1.400 . S
C583 C582 1.400 . S
C583 C584 1.398 . S
C583 C589 1.491 1_455 S
C584 H575 0.950 . S
C584 C583 1.398 . S
C584 C585 1.391 . S
C585 H573 0.950 . S
C585 C581 1.393 . S
C585 C584 1.391 . S
C586 H576 0.950 . S
C586 C587 1.386 . S
C586 C588 1.391 . S
C587 C586 1.386 . S
C587 C591 1.393 . S
C588 H577 0.950 1_655 S
C588 C586 1.391 . S
C588 C589 1.400 . S
C589 C583 1.491 1_655 S
C589 C588 1.400 . S
C589 C590 1.398 . S
C590 H578 0.950 . S
C590 C589 1.398 . S
C590 C591 1.391 . S
C591 H579 0.950 . S
C591 C587 1.393 . S
C591 C590 1.391 . S
H592 C600 0.950 . S
H593 C605 0.950 . S
H594 C602 0.950 . S
H595 C604 0.950 1_565 S
H596 C606 0.950 . S
H597 C608 0.950 . S
H598 C610 0.950 1_545 S
H599 C611 0.950 . S
C600 H592 0.950 . S
C600 C601 1.386 . S
C600 C602 1.391 . S
C601 C600 1.386 . S
C601 C605 1.393 . S
C602 H594 0.950 . S
C602 C600 1.391 . S
C602 C603 1.400 . S
C603 C602 1.400 . S
C603 C604 1.398 . S
C603 C609 1.491 1_546 S
C604 H595 0.950 1_545 S
C604 C603 1.398 . S
C604 C605 1.391 . S
C605 H593 0.950 . S
C605 C601 1.393 . S
C605 C604 1.391 . S
C606 H596 0.950 . S
C606 C607 1.386 . S
C606 C608 1.391 . S
C607 C606 1.386 . S
C607 C611 1.393 . S
C608 H597 0.950 . S
C608 C606 1.391 . S
C608 C609 1.400 . S
C609 C603 1.491 1_564 S
C609 C608 1.400 . S
C609 C610 1.398 . S
C610 H598 0.950 1_565 S
C610 C609 1.398 . S
C610 C611 1.391 . S
C611 H599 0.950 . S
C611 C607 1.393 . S
C611 C610 1.391 . S
H612 C620 0.950 . S
H613 C625 0.950 . S
H614 C622 0.950 . S
H615 C624 0.950 . S
H616 C626 0.950 . S
H617 C628 0.950 . S
H618 C630 0.950 . S
H619 C631 0.950 . S
C620 H612 0.950 . S
C620 C621 1.386 . S
C620 C622 1.391 . S
C621 C620 1.386 . S
C621 C625 1.393 . S
C622 H614 0.950 . S
C622 C620 1.391 . S
C622 C623 1.400 . S
C623 C622 1.400 . S
C623 C624 1.398 . S
C623 C629 1.491 . S
C624 H615 0.950 . S
C624 C623 1.398 . S
C624 C625 1.391 . S
C625 H613 0.950 . S
C625 C621 1.393 . S
C625 C624 1.391 . S
C626 H616 0.950 . S
C626 C627 1.386 . S
C626 C628 1.391 . S
C627 C626 1.386 . S
C627 C631 1.393 . S
C628 H617 0.950 . S
C628 C626 1.391 . S
C628 C629 1.400 . S
C629 C623 1.491 . S
C629 C628 1.400 . S
C629 C630 1.398 . S
C630 H618 0.950 . S
C630 C629 1.398 . S
C630 C631 1.391 . S
C631 H619 0.950 . S
C631 C627 1.393 . S
C631 C630 1.391 . S
H632 C640 0.950 . S
H633 C645 0.950 . S
H634 C642 0.950 . S
H635 C644 0.950 1_655 S
H636 C646 0.950 . S
H637 C648 0.950 . S
H638 C650 0.950 1_455 S
H639 C651 0.950 . S
C640 H632 0.950 . S
C640 C641 1.386 . S
C640 C642 1.391 . S
C641 C640 1.386 . S
C641 C645 1.393 . S
C642 H634 0.950 . S
C642 C640 1.391 . S
C642 C643 1.400 . S
C643 C642 1.400 . S
C643 C644 1.398 . S
C643 C649 1.491 1_454 S
C644 H635 0.950 1_455 S
C644 C643 1.398 . S
C644 C645 1.391 . S
C645 H633 0.950 . S
C645 C641 1.393 . S
C645 C644 1.391 . S
C646 H636 0.950 . S
C646 C647 1.386 . S
C646 C648 1.391 . S
C647 C646 1.386 . S
C647 C651 1.393 . S
C648 H637 0.950 . S
C648 C646 1.391 . S
C648 C649 1.400 . S
C649 C643 1.491 1_656 S
C649 C648 1.400 . S
C649 C650 1.398 . S
C650 H638 0.950 1_655 S
C650 C649 1.398 . S
C650 C651 1.391 . S
C651 H639 0.950 . S
C651 C647 1.393 . S
C651 C650 1.391 . S
H652 C660 0.950 . S
H653 C665 0.950 . S
H654 C662 0.950 . S
H655 C664 0.950 . S
H656 C666 0.950 . S
H657 C668 0.950 . S
H658 C670 0.950 . S
H659 C671 0.950 . S
C660 H652 0.950 . S
C660 C661 1.386 . S
C660 C662 1.391 . S
C661 C660 1.386 . S
C661 C665 1.393 . S
C662 H654 0.950 . S
C662 C660 1.391 . S
C662 C663 1.400 . S
C663 C662 1.400 . S
C663 C664 1.398 1_545 S
C663 C669 1.491 1_545 S
C664 H655 0.950 . S
C664 C663 1.398 1_565 S
C664 C665 1.391 1_565 S
C665 H653 0.950 . S
C665 C661 1.393 . S
C665 C664 1.391 1_545 S
C666 H656 0.950 . S
C666 C667 1.386 . S
C666 C668 1.391 . S
C667 C666 1.386 . S
C667 C671 1.393 . S
C668 H657 0.950 . S
C668 C666 1.391 . S
C668 C669 1.400 . S
C669 C663 1.491 1_565 S
C669 C668 1.400 . S
C669 C670 1.398 1_565 S
C670 H658 0.950 . S
C670 C669 1.398 1_545 S
C670 C671 1.391 1_545 S
C671 H659 0.950 . S
C671 C667 1.393 . S
C671 C670 1.391 1_565 S
C201 C30 1.132 . S
C207 C155 1.145 . S
C221 C187 1.122 . S
C227 C62 1.154 . S
C241 C27 1.150 . S
C247 C94 1.126 . S
C261 C59 1.152 . S
C267 C126 1.124 . S
C281 C158 1.120 . S
C287 C91 1.156 . S
C301 C190 1.121 . S
C307 C123 1.155 . S
C321 C22 0.980 . S
C327 C136 0.991 . S
C341 C54 1.003 . S
C347 C168 0.968 . S
C361 C8 1.000 . S
C367 C86 0.971 . S
C381 C40 0.965 . S
C387 C118 1.006 . S
C401 C72 0.990 . S
C407 C150 0.981 . S
C421 C182 0.999 . S
C427 C104 0.972 . S
C441 C17 1.523 . S
C447 C184 1.524 . S
C461 C49 1.524 . S
C467 C24 1.539 . S
C481 C81 1.517 . S
C487 C56 1.545 . S
C501 C113 1.496 . S
C507 C88 1.536 . S
C521 C120 1.547 . S
C527 C145 1.508 . S
C541 C177 1.526 . S
C547 C152 1.533 . S
C561 C119 1.524 . S
C567 C95 1.504 . S
C581 C151 1.546 . S
C587 C127 1.503 . S
C601 C183 1.538 . S
C607 C159 1.525 . S
C621 C191 1.496 . S
C627 C23 1.537 . S
C641 C31 1.511 . S
C647 C55 1.547 . S
C661 C63 1.497 . S
C667 C87 1.542 . S
