# Generated by pormake.
# Topology vbb, (4)-cn, num edge types: 1
# Building blocks:
#     Node 0, Type 0, BuildingBlock: NAWXER_clean_sbu_0, # of connection points: 4
#     Node 1, Type 0, BuildingBlock: NAWXER_clean_sbu_0, # of connection points: 4
#     Node 2, Type 0, BuildingBlock: NAWXER_clean_sbu_0, # of connection points: 4
#     Node 3, Type 0, BuildingBlock: NAWXER_clean_sbu_0, # of connection points: 4
#     Node 4, Type 0, BuildingBlock: NAWXER_clean_sbu_0, # of connection points: 4
#     Node 5, Type 0, BuildingBlock: NAWXER_clean_sbu_0, # of connection points: 4
#     Node 6, Type 0, BuildingBlock: NAWXER_clean_sbu_0, # of connection points: 4
#     Node 7, Type 0, BuildingBlock: NAWXER_clean_sbu_0, # of connection points: 4
#     Node 8, Type 0, BuildingBlock: NAWXER_clean_sbu_0, # of connection points: 4
#     Node 9, Type 0, BuildingBlock: NAWXER_clean_sbu_0, # of connection points: 4
#     Node 10, Type 0, BuildingBlock: NAWXER_clean_sbu_0, # of connection points: 4
#     Node 11, Type 0, BuildingBlock: NAWXER_clean_sbu_0, # of connection points: 4
#     Node 12, Type 0, BuildingBlock: NAWXER_clean_sbu_0, # of connection points: 4
#     Node 13, Type 0, BuildingBlock: NAWXER_clean_sbu_0, # of connection points: 4
#     Node 14, Type 0, BuildingBlock: NAWXER_clean_sbu_0, # of connection points: 4
#     Node 15, Type 0, BuildingBlock: NAWXER_clean_sbu_0, # of connection points: 4
#     Node 16, Type 0, BuildingBlock: NAWXER_clean_sbu_0, # of connection points: 4
#     Node 17, Type 0, BuildingBlock: NAWXER_clean_sbu_0, # of connection points: 4
#     Node 18, Type 0, BuildingBlock: NAWXER_clean_sbu_0, # of connection points: 4
#     Node 19, Type 0, BuildingBlock: NAWXER_clean_sbu_0, # of connection points: 4
#     Node 20, Type 0, BuildingBlock: NAWXER_clean_sbu_0, # of connection points: 4
#     Node 21, Type 0, BuildingBlock: NAWXER_clean_sbu_0, # of connection points: 4
#     Node 22, Type 0, BuildingBlock: NAWXER_clean_sbu_0, # of connection points: 4
#     Node 23, Type 0, BuildingBlock: NAWXER_clean_sbu_0, # of connection points: 4
#     Node 24, Type 0, BuildingBlock: NAWXER_clean_sbu_0, # of connection points: 4
#     Node 25, Type 0, BuildingBlock: NAWXER_clean_sbu_0, # of connection points: 4
#     Node 26, Type 0, BuildingBlock: NAWXER_clean_sbu_0, # of connection points: 4
#     Node 27, Type 0, BuildingBlock: NAWXER_clean_sbu_0, # of connection points: 4
#     Node 28, Type 0, BuildingBlock: NAWXER_clean_sbu_0, # of connection points: 4
#     Node 29, Type 0, BuildingBlock: NAWXER_clean_sbu_0, # of connection points: 4
#     Node 30, Type 0, BuildingBlock: NAWXER_clean_sbu_0, # of connection points: 4
#     Node 31, Type 0, BuildingBlock: NAWXER_clean_sbu_0, # of connection points: 4
#     Edge 32, Type (0, 0), None
#     Edge 33, Type (0, 0), None
#     Edge 34, Type (0, 0), None
#     Edge 35, Type (0, 0), None
#     Edge 36, Type (0, 0), None
#     Edge 37, Type (0, 0), None
#     Edge 38, Type (0, 0), None
#     Edge 39, Type (0, 0), None
#     Edge 40, Type (0, 0), None
#     Edge 41, Type (0, 0), None
#     Edge 42, Type (0, 0), None
#     Edge 43, Type (0, 0), None
#     Edge 44, Type (0, 0), None
#     Edge 45, Type (0, 0), None
#     Edge 46, Type (0, 0), None
#     Edge 47, Type (0, 0), None
#     Edge 48, Type (0, 0), None
#     Edge 49, Type (0, 0), None
#     Edge 50, Type (0, 0), None
#     Edge 51, Type (0, 0), None
#     Edge 52, Type (0, 0), None
#     Edge 53, Type (0, 0), None
#     Edge 54, Type (0, 0), None
#     Edge 55, Type (0, 0), None
#     Edge 56, Type (0, 0), None
#     Edge 57, Type (0, 0), None
#     Edge 58, Type (0, 0), None
#     Edge 59, Type (0, 0), None
#     Edge 60, Type (0, 0), None
#     Edge 61, Type (0, 0), None
#     Edge 62, Type (0, 0), None
#     Edge 63, Type (0, 0), None
#     Edge 64, Type (0, 0), None
#     Edge 65, Type (0, 0), None
#     Edge 66, Type (0, 0), None
#     Edge 67, Type (0, 0), None
#     Edge 68, Type (0, 0), None
#     Edge 69, Type (0, 0), None
#     Edge 70, Type (0, 0), None
#     Edge 71, Type (0, 0), None
#     Edge 72, Type (0, 0), None
#     Edge 73, Type (0, 0), None
#     Edge 74, Type (0, 0), None
#     Edge 75, Type (0, 0), None
#     Edge 76, Type (0, 0), None
#     Edge 77, Type (0, 0), None
#     Edge 78, Type (0, 0), None
#     Edge 79, Type (0, 0), None
#     Edge 80, Type (0, 0), None
#     Edge 81, Type (0, 0), None
#     Edge 82, Type (0, 0), None
#     Edge 83, Type (0, 0), None
#     Edge 84, Type (0, 0), None
#     Edge 85, Type (0, 0), None
#     Edge 86, Type (0, 0), None
#     Edge 87, Type (0, 0), None
#     Edge 88, Type (0, 0), None
#     Edge 89, Type (0, 0), None
#     Edge 90, Type (0, 0), None
#     Edge 91, Type (0, 0), None
#     Edge 92, Type (0, 0), None
#     Edge 93, Type (0, 0), None
#     Edge 94, Type (0, 0), None
#     Edge 95, Type (0, 0), None
# Relax obj value: 0.012
# Max RMSD: 0.099
# Mean RMSD: 0.097
data_MOF--net-vbb--node1-NAWXER_clean_sbu_0--edge1-none
_symmetry_space_group_name_H-M    P1
_symmetry_Int_Tables_number       1
_symmetry_cell_setting            triclinic
loop_
_symmetry_equiv_pos_as_xyz
'x, y, z'
_cell_length_a     23.147364
_cell_length_b     10.651673
_cell_length_c     49.315322
_cell_angle_alpha  87.598247
_cell_angle_beta   89.998047
_cell_angle_gamma 90.003689
loop_
_atom_site_label
_atom_site_type_symbol
_atom_site_fract_x
_atom_site_fract_y
_atom_site_fract_z
_atom_type_partial_charge
C0 C 0.57728 0.18291 0.09656 0.0
C1 C 0.38334 0.01087 0.08818 0.0
O2 O 0.53107 0.24228 0.09076 0.0
Zn3 Zn 0.47996 0.09577 0.09046 0.0
O4 O 0.57601 0.06228 0.09968 0.0
Zn5 Zn 0.51354 0.90984 0.09992 0.0
O6 O 0.53986 0.80208 0.07108 0.0
O7 O 0.50706 -0.01336 0.05579 0.0
O8 O 0.42272 0.92766 0.09271 0.0
O9 O 0.39671 0.12623 0.08522 0.0
O10 O 0.48106 0.03405 0.1323 0.0
O11 O 0.51342 0.83974 0.13764 0.0
C12 C 0.52869 0.8778 0.05121 0.0
C13 C 0.49241 0.93743 0.14778 0.0
C14 C 0.63397 0.24649 0.09597 0.0
C15 C 0.8241 0.4639 0.08651 0.0
O16 O 0.67721 0.18 0.08978 0.0
Zn17 Zn 0.76401 0.19812 0.08116 0.0
O18 O 0.64093 0.36348 0.09967 0.0
Zn19 Zn 0.72609 0.37656 0.09235 0.0
O20 O 0.72635 0.35301 0.04991 0.0
O21 O 0.76537 0.16698 0.04359 0.0
O22 O 0.779 0.5252 0.09305 0.0
O23 O 0.82049 0.34765 0.08198 0.0
O24 O 0.79967 0.08994 0.10862 0.0
O25 O 0.76589 0.26617 0.12496 0.0
C26 C 0.7426 0.26838 0.03404 0.0
C27 C 0.79379 0.16266 0.1283 0.0
C28 C 0.51898 0.0921 0.27271 0.0
C29 C 0.49707 0.96058 0.17671 0.0
O30 O 0.53558 0.1699 0.25403 0.0
Zn31 Zn 0.54069 0.18506 0.21208 0.0
O32 O 0.4974 -0.01283 0.26616 0.0
Zn33 Zn 0.50215 0.00421 0.2253 0.0
O34 O 0.59227 -0.00581 0.21836 0.0
O35 O 0.62292 0.18441 0.20571 0.0
O36 O 0.48158 0.88485 0.19625 0.0
O37 O 0.51745 0.06793 0.1816 0.0
O38 O 0.48882 0.3225 0.20271 0.0
O39 O 0.44081 0.14919 0.21474 0.0
C40 C 0.63286 0.06763 0.21031 0.0
C41 C 0.44106 0.26394 0.20588 0.0
C42 C 0.69094 0.01682 0.20678 0.0
C43 C 0.88582 0.82949 0.20156 0.0
O44 O 0.7331 0.09314 0.20746 0.0
Zn45 Zn 0.82327 0.09344 0.2058 0.0
O46 O 0.70006 0.90004 0.20353 0.0
Zn47 Zn 0.78442 0.90783 0.2008 0.0
O48 O 0.79908 0.95196 0.24048 0.0
O49 O 0.83737 0.14105 0.24335 0.0
O50 O 0.83869 0.76878 0.19917 0.0
O51 O 0.88491 0.94883 0.20304 0.0
O52 O 0.83118 0.19694 0.17252 0.0
O53 O 0.79388 0.01141 0.16407 0.0
C54 C 0.81833 0.03919 0.25472 0.0
C55 C 0.81031 0.12068 0.15581 0.0
C56 C 0.53758 0.84208 1.02271 0.0
C57 C 0.55948 0.71065 0.92671 0.0
O58 O 0.55916 0.73716 1.01616 0.0
Zn59 Zn 0.55441 0.75424 0.9753 0.0
O60 O 0.52099 0.9199 1.00403 0.0
Zn61 Zn 0.51588 0.9351 0.96208 0.0
O62 O 0.43365 0.93446 0.95572 0.0
O63 O 0.4643 0.74424 0.96836 0.0
O64 O 0.53911 0.818 0.9316 0.0
O65 O 0.57498 0.63491 0.94624 0.0
O66 O 0.61576 0.89922 0.96474 0.0
O67 O 0.56776 0.07254 0.95272 0.0
C68 C 0.42371 0.81767 0.96031 0.0
C69 C 0.61551 0.01397 0.95588 0.0
C70 C 0.17075 0.57953 0.95156 0.0
C71 C 0.36563 0.76687 0.95678 0.0
O72 O 0.21788 0.51884 0.94916 0.0
Zn73 Zn 0.27215 0.65789 0.95079 0.0
O74 O 0.17166 0.69888 0.95303 0.0
Zn75 Zn 0.23331 0.84349 0.9558 0.0
O76 O 0.22541 0.947 0.92252 0.0
O77 O 0.2627 0.76149 0.91407 0.0
O78 O 0.32347 0.84319 0.95746 0.0
O79 O 0.35651 0.65009 0.95353 0.0
O80 O 0.25748 0.70199 0.99047 0.0
O81 O 0.21919 0.89108 0.99335 0.0
C82 C 0.24629 0.87076 0.90581 0.0
C83 C 0.23823 0.78921 1.00471 0.0
C84 C 0.52791 0.62788 0.80121 0.0
C85 C 0.56415 0.68755 0.89777 0.0
O86 O 0.54955 0.73672 0.80579 0.0
Zn87 Zn 0.57665 0.84586 0.84045 0.0
O88 O 0.51672 0.55217 0.82108 0.0
Zn89 Zn 0.54305 0.65993 0.84991 0.0
O90 O 0.48059 0.81239 0.84967 0.0
O91 O 0.52554 -0.00762 0.84075 0.0
O92 O 0.54315 0.58983 0.88763 0.0
O93 O 0.57552 0.78417 0.88229 0.0
O94 O 0.65991 0.87629 0.83522 0.0
O95 O 0.63387 0.67773 0.84271 0.0
C96 C 0.47933 0.93301 0.84655 0.0
C97 C 0.67326 0.76093 0.83818 0.0
C98 C 0.26281 0.91274 0.8783 0.0
C99 C 0.31401 0.01845 0.78403 0.0
O100 O 0.25693 0.84002 0.85862 0.0
Zn101 Zn 0.29259 0.9482 0.83116 0.0
O102 O 0.29071 0.01626 0.87496 0.0
Zn103 Zn 0.33052 0.12664 0.84234 0.0
O104 O 0.27761 0.27528 0.84305 0.0
O105 O 0.23611 0.09772 0.83197 0.0
O106 O 0.33026 0.10309 0.79991 0.0
O107 O 0.29123 0.91705 0.79359 0.0
O108 O 0.37939 0.93008 0.83977 0.0
O109 O 0.41568 0.11357 0.84966 0.0
C110 C 0.2325 0.21397 0.8365 0.0
C111 C 0.42264 -0.00341 0.84596 0.0
C112 C 0.52867 0.37786 0.55121 0.0
C113 C 0.49241 0.43748 0.64778 0.0
O114 O 0.53985 0.30214 0.57108 0.0
Zn115 Zn 0.51353 0.40989 0.59992 0.0
O116 O 0.50704 0.4867 0.55579 0.0
Zn117 Zn 0.47995 0.59583 0.59046 0.0
O118 O 0.53107 0.74234 0.59077 0.0
O119 O 0.57601 0.56233 0.59968 0.0
O120 O 0.48106 0.5341 0.6323 0.0
O121 O 0.51342 0.33979 0.63763 0.0
O122 O 0.42271 0.42773 0.59271 0.0
O123 O 0.3967 0.6263 0.58523 0.0
C124 C 0.57727 0.68296 0.59656 0.0
C125 C 0.38333 0.51093 0.58819 0.0
C126 C 0.74258 0.76843 0.53404 0.0
C127 C 0.7938 0.66271 0.6283 0.0
O128 O 0.72634 0.85306 0.54992 0.0
Zn129 Zn 0.72609 0.8766 0.59235 0.0
O130 O 0.76536 0.66703 0.54359 0.0
Zn131 Zn 0.76401 0.69817 0.58116 0.0
O132 O 0.67721 0.68004 0.58978 0.0
O133 O 0.64093 0.86352 0.59968 0.0
O134 O 0.79967 0.59 0.60862 0.0
O135 O 0.7659 0.76622 0.62496 0.0
O136 O 0.77899 0.02525 0.59306 0.0
O137 O 0.82049 0.84771 0.58198 0.0
C138 C 0.63396 0.74654 0.59597 0.0
C139 C 0.8241 0.96396 0.58651 0.0
C140 C 0.51901 0.59214 0.77271 0.0
C141 C 0.49708 0.46063 0.67671 0.0
O142 O 0.53561 0.66994 0.75403 0.0
Zn143 Zn 0.54072 0.68511 0.71208 0.0
O144 O 0.49743 0.48722 0.76616 0.0
Zn145 Zn 0.50218 0.50426 0.7253 0.0
O146 O 0.59229 0.49424 0.71836 0.0
O147 O 0.62295 0.68445 0.70571 0.0
O148 O 0.48159 0.38491 0.69625 0.0
O149 O 0.51747 0.56798 0.6816 0.0
O150 O 0.48885 0.82255 0.70271 0.0
O151 O 0.44084 0.64924 0.71474 0.0
C152 C 0.63289 0.56767 0.71031 0.0
C153 C 0.44109 0.76399 0.70588 0.0
C154 C 0.69097 0.51686 0.70678 0.0
C155 C 0.88585 0.32954 0.70156 0.0
O156 O 0.73313 0.59318 0.70746 0.0
Zn157 Zn 0.8233 0.59349 0.7058 0.0
O158 O 0.70009 0.40008 0.70354 0.0
Zn159 Zn 0.78444 0.40788 0.7008 0.0
O160 O 0.79911 0.45201 0.74048 0.0
O161 O 0.8374 0.6411 0.74335 0.0
O162 O 0.83872 0.26883 0.69917 0.0
O163 O 0.88494 0.44888 0.70304 0.0
O164 O 0.8312 0.69699 0.67252 0.0
O165 O 0.7939 0.51146 0.66407 0.0
C166 C 0.81837 0.53923 0.75471 0.0
C167 C 0.81032 0.62073 0.65581 0.0
C168 C 0.53755 0.34213 0.52271 0.0
C169 C 0.55945 0.21067 0.42671 0.0
O170 O 0.55912 0.2372 0.51616 0.0
Zn171 Zn 0.55438 0.25427 0.4753 0.0
O172 O 0.52096 0.41995 0.50403 0.0
Zn173 Zn 0.51585 0.43514 0.46208 0.0
O174 O 0.43362 0.43451 0.45572 0.0
O175 O 0.46426 0.24429 0.46836 0.0
O176 O 0.53908 0.31803 0.4316 0.0
O177 O 0.57494 0.13493 0.44624 0.0
O178 O 0.61572 0.39925 0.46474 0.0
O179 O 0.56773 0.57257 0.45272 0.0
C180 C 0.42367 0.31773 0.46031 0.0
C181 C 0.61548 0.514 0.45588 0.0
C182 C 0.23821 0.28927 0.50471 0.0
C183 C 0.24623 0.3708 0.40581 0.0
O184 O 0.21916 0.39113 0.49335 0.0
Zn185 Zn 0.23327 0.34355 0.4558 0.0
O186 O 0.25745 0.20205 0.49047 0.0
Zn187 Zn 0.27212 0.15795 0.45079 0.0
O188 O 0.35647 0.15015 0.45353 0.0
O189 O 0.32344 0.34325 0.45745 0.0
O190 O 0.26265 0.26154 0.41407 0.0
O191 O 0.22537 0.44705 0.42252 0.0
O192 O 0.17162 0.19892 0.45304 0.0
O193 O 0.21784 0.01889 0.44916 0.0
C194 C 0.36559 0.26693 0.45678 0.0
C195 C 0.17072 0.07958 0.45156 0.0
C196 C 0.52787 0.12784 0.30121 0.0
C197 C 0.56411 0.18756 0.39777 0.0
O198 O 0.54951 0.23668 0.30579 0.0
Zn199 Zn 0.57661 0.34584 0.34045 0.0
O200 O 0.51668 0.05214 0.32108 0.0
Zn201 Zn 0.54301 0.15991 0.34991 0.0
O202 O 0.48054 0.31237 0.34967 0.0
O203 O 0.52549 0.49236 0.34075 0.0
O204 O 0.54311 0.08983 0.38764 0.0
O205 O 0.57548 0.28417 0.38229 0.0
O206 O 0.65986 0.37628 0.33522 0.0
O207 O 0.63383 0.17772 0.34271 0.0
C208 C 0.47928 0.43299 0.34655 0.0
C209 C 0.67322 0.26092 0.33818 0.0
C210 C 0.4226 0.49657 0.34596 0.0
C211 C 0.23246 0.71399 0.33649 0.0
O212 O 0.41564 0.61355 0.34966 0.0
Zn213 Zn 0.33047 0.62663 0.34234 0.0
O214 O 0.37934 0.43007 0.33977 0.0
Zn215 Zn 0.29254 0.4482 0.33115 0.0
O216 O 0.29119 0.41702 0.29359 0.0
O217 O 0.33022 0.60306 0.29991 0.0
O218 O 0.23607 0.59774 0.33196 0.0
O219 O 0.27758 0.77528 0.34304 0.0
O220 O 0.29066 0.51627 0.37496 0.0
O221 O 0.25687 0.34004 0.35862 0.0
C222 C 0.31397 0.51842 0.28403 0.0
C223 C 0.26275 0.41277 0.3783 0.0
C224 C 0.99245 0.93752 0.64778 0.0
C225 C 0.02868 0.87785 0.55121 0.0
O226 O 1.01343 0.8398 0.63763 0.0
Zn227 Zn 1.01354 0.90989 0.59991 0.0
O228 O 0.98108 0.03413 0.6323 0.0
Zn229 Zn 0.97995 0.09583 0.59046 0.0
O230 O 0.8967 0.12628 0.58523 0.0
O231 O 0.92272 0.92771 0.59271 0.0
O232 O 1.00705 -0.01331 0.55579 0.0
O233 O 0.03986 0.80213 0.57108 0.0
O234 O 0.07601 0.06235 0.59968 0.0
O235 O 0.03107 0.24234 0.59076 0.0
C236 C 0.88334 0.01091 0.58819 0.0
C237 C 0.07728 0.18298 0.59655 0.0
C238 C 0.29381 0.16274 0.6283 0.0
C239 C 0.24258 0.26845 0.53404 0.0
O240 O 0.2659 0.26624 0.62496 0.0
Zn241 Zn 0.22609 0.37662 0.59235 0.0
O242 O 0.29968 0.09003 0.60862 0.0
Zn243 Zn 0.26401 0.1982 0.58115 0.0
O244 O 0.32048 0.34774 0.58197 0.0
O245 O 0.27898 0.52528 0.59305 0.0
O246 O 0.26536 0.16705 0.54359 0.0
O247 O 0.22634 0.35308 0.54991 0.0
O248 O 0.14093 0.36353 0.59967 0.0
O249 O 0.17721 0.18006 0.58977 0.0
C250 C 0.32409 0.464 0.58649 0.0
C251 C 0.13396 0.24655 0.59596 0.0
C252 C 0.1329 0.0677 0.71031 0.0
C253 C 0.94109 0.26397 0.70589 0.0
O254 O 0.0923 -0.00574 0.71836 0.0
Zn255 Zn 1.00219 0.00425 0.7253 0.0
O256 O 0.12296 0.18447 0.70572 0.0
Zn257 Zn 0.04072 0.18511 0.71208 0.0
O258 O 0.03561 0.16993 0.75403 0.0
O259 O 0.99744 -0.01281 0.76616 0.0
O260 O 0.98884 0.32254 0.70272 0.0
O261 O 0.94084 0.14922 0.71474 0.0
O262 O 0.98162 0.8849 0.69625 0.0
O263 O 1.01749 0.06799 0.6816 0.0
C264 C 1.01901 0.09212 0.77271 0.0
C265 C 0.99711 0.96064 0.67671 0.0
C266 C 0.19098 0.01689 0.70678 0.0
C267 C 0.38585 0.82957 0.70156 0.0
O268 O 0.23314 0.09322 0.70745 0.0
Zn269 Zn 0.32331 0.09353 0.7058 0.0
O270 O 0.2001 0.90012 0.70353 0.0
Zn271 Zn 0.28445 0.90792 0.70079 0.0
O272 O 0.29912 0.95204 0.74047 0.0
O273 O 0.33741 0.14113 0.74335 0.0
O274 O 0.33873 0.76886 0.69916 0.0
O275 O 0.38495 0.94892 0.70303 0.0
O276 O 0.33121 0.19703 0.67251 0.0
O277 O 0.29391 0.0115 0.66406 0.0
C278 C 0.31838 0.03926 0.75471 0.0
C279 C 0.31033 0.12076 0.65581 0.0
C280 C 0.05946 0.71067 0.4267 0.0
C281 C 0.03756 0.84212 0.5227 0.0
O282 O 0.07495 0.63492 0.44624 0.0
Zn283 Zn 0.05438 0.75426 0.4753 0.0
O284 O 0.03908 0.81802 0.43159 0.0
Zn285 Zn 1.01586 0.93512 0.46208 0.0
O286 O 0.06773 0.07256 0.45272 0.0
O287 O 0.11573 0.89924 0.46473 0.0
O288 O 1.02097 0.91993 0.50403 0.0
O289 O 0.05913 0.73719 0.51616 0.0
O290 O 0.96427 0.74426 0.46836 0.0
O291 O 0.93362 0.93448 0.45572 0.0
C292 C 0.11548 0.014 0.45588 0.0
C293 C 0.92368 0.8177 0.46031 0.0
C294 C 0.73821 0.78925 0.50472 0.0
C295 C 0.74624 0.87078 0.40582 0.0
O296 O 0.71917 0.89111 0.49336 0.0
Zn297 Zn 0.73328 0.84353 0.45581 0.0
O298 O 0.75746 0.70202 0.49048 0.0
Zn299 Zn 0.77212 0.65792 0.4508 0.0
O300 O 0.85647 0.65012 0.45353 0.0
O301 O 0.82344 0.84322 0.45746 0.0
O302 O 0.76266 0.76152 0.41407 0.0
O303 O 0.72537 0.94704 0.42252 0.0
O304 O 0.67163 0.69892 0.45304 0.0
O305 O 0.71784 0.51887 0.44917 0.0
C306 C 0.8656 0.7669 0.45678 0.0
C307 C 0.67072 0.57957 0.45156 0.0
C308 C 0.97928 0.93297 0.34655 0.0
C309 C 0.17322 0.76094 0.33818 0.0
O310 O 0.98054 0.81235 0.34967 0.0
Zn311 Zn 0.04302 0.65991 0.34991 0.0
O312 O 1.02549 -0.00766 0.34075 0.0
Zn313 Zn 0.07661 0.84584 0.34045 0.0
O314 O 0.04951 0.73667 0.30579 0.0
O315 O 1.01669 0.55212 0.32108 0.0
O316 O 0.15986 0.87629 0.33521 0.0
O317 O 0.13384 0.67773 0.34271 0.0
O318 O 0.04312 0.58982 0.38763 0.0
O319 O 0.07549 0.78417 0.38229 0.0
C320 C 1.02787 0.62783 0.30121 0.0
C321 C 0.06412 0.68755 0.39777 0.0
C322 C 0.73246 0.21395 0.3365 0.0
C323 C 0.92259 -0.00345 0.34596 0.0
O324 O 0.77757 0.27527 0.34304 0.0
Zn325 Zn 0.83047 0.12662 0.34234 0.0
O326 O 0.73606 0.0977 0.33197 0.0
Zn327 Zn 0.79254 0.94817 0.33116 0.0
O328 O 0.75688 0.84001 0.35863 0.0
O329 O 0.79066 0.01626 0.37496 0.0
O330 O 0.87934 0.93005 0.33978 0.0
O331 O 0.91563 0.11354 0.34966 0.0
O332 O 0.83021 0.10303 0.29991 0.0
O333 O 0.79118 0.91699 0.29359 0.0
C334 C 0.76276 0.91275 0.3783 0.0
C335 C 0.81396 0.01839 0.28404 0.0
C336 C 0.88335 0.51085 0.08818 0.0
C337 C 0.07728 0.68293 0.09655 0.0
O338 O 0.89671 0.62622 0.08522 0.0
Zn339 Zn 0.97996 0.59578 0.09045 0.0
O340 O 0.92273 0.42766 0.09271 0.0
Zn341 Zn 1.01355 0.40984 0.09991 0.0
O342 O 1.01343 0.33976 0.13763 0.0
O343 O 0.98108 0.53408 0.13229 0.0
O344 O 0.07602 0.5623 0.09967 0.0
O345 O 0.03108 0.74229 0.09075 0.0
O346 O 1.00706 0.48664 0.05579 0.0
O347 O 0.03987 0.30208 0.07108 0.0
C348 C 0.99244 0.43747 0.14778 0.0
C349 C 0.02869 0.3778 0.05121 0.0
C350 C 0.3241 0.96393 0.08649 0.0
C351 C 0.13397 0.7465 0.09596 0.0
O352 O 0.32049 0.84768 0.08196 0.0
Zn353 Zn 0.26402 0.69814 0.08115 0.0
O354 O 0.27899 0.02522 0.09305 0.0
Zn355 Zn 0.22609 0.87656 0.09234 0.0
O356 O 0.26591 0.76619 0.12496 0.0
O357 O 0.29968 0.58996 0.10862 0.0
O358 O 0.14094 0.86348 0.09967 0.0
O359 O 0.17722 0.68001 0.08977 0.0
O360 O 0.26537 0.66699 0.04359 0.0
O361 O 0.22635 0.85302 0.04991 0.0
C362 C 0.29381 0.66268 0.1283 0.0
C363 C 0.24259 0.76839 0.03403 0.0
C364 C 0.13287 0.56767 0.21031 0.0
C365 C 0.94106 0.76392 0.20588 0.0
O366 O 0.09228 0.49422 0.21836 0.0
Zn367 Zn 1.00216 0.5042 0.2253 0.0
O368 O 0.12293 0.68444 0.20572 0.0
Zn369 Zn 0.04069 0.68507 0.21208 0.0
O370 O 0.03558 0.66989 0.25403 0.0
O371 O 0.99741 0.48715 0.26616 0.0
O372 O 0.98881 0.8225 0.20272 0.0
O373 O 0.94082 0.64916 0.21474 0.0
O374 O 0.9816 0.38485 0.19624 0.0
O375 O 1.01747 0.56795 0.1816 0.0
C376 C 1.01899 0.59209 0.27271 0.0
C377 C 0.99709 0.46059 0.17671 0.0
C378 C 0.38582 0.32951 0.20156 0.0
C379 C 0.19095 0.51686 0.20678 0.0
O380 O 0.38492 0.44886 0.20304 0.0
Zn381 Zn 0.32328 0.59348 0.2058 0.0
O382 O 0.3387 0.26881 0.19916 0.0
Zn383 Zn 0.28443 0.40787 0.20079 0.0
O384 O 0.2939 0.51145 0.16406 0.0
O385 O 0.3312 0.69698 0.17251 0.0
O386 O 0.20007 0.40008 0.20353 0.0
O387 O 0.23311 0.59318 0.20745 0.0
O388 O 0.33739 0.64108 0.24335 0.0
O389 O 0.29909 0.452 0.24047 0.0
C390 C 0.31033 0.62071 0.15581 0.0
C391 C 0.31834 0.53922 0.25471 0.0
C392 C 0.0595 0.21061 0.92671 0.0
C393 C 0.03759 0.34207 1.0227 0.0
O394 O 0.07498 0.13488 0.94624 0.0
Zn395 Zn 0.05442 0.25422 0.9753 0.0
O396 O 0.03912 0.31796 0.93159 0.0
Zn397 Zn 1.01589 0.43507 0.96208 0.0
O398 O 0.06776 0.57252 0.95271 0.0
O399 O 0.11576 0.3992 0.96473 0.0
O400 O 1.02099 0.41989 1.00403 0.0
O401 O 0.05916 0.23715 1.01616 0.0
O402 O 0.9643 0.24422 0.96835 0.0
O403 O 0.93366 0.43444 0.95572 0.0
C404 C 0.11552 0.51395 0.95588 0.0
C405 C 0.92371 0.31766 0.96031 0.0
C406 C 0.74629 0.37076 0.90581 0.0
C407 C 0.73823 0.2892 1.00472 0.0
O408 O 0.72541 0.44701 0.92252 0.0
Zn409 Zn 0.73331 0.3435 0.95581 0.0
O410 O 0.7627 0.26149 0.91407 0.0
Zn411 Zn 0.77215 0.15789 0.95079 0.0
O412 O 0.71787 0.01884 0.94916 0.0
O413 O 0.67166 0.19889 0.95304 0.0
O414 O 0.75748 0.20199 0.99047 0.0
O415 O 0.7192 0.39108 0.99336 0.0
O416 O 0.82348 0.34318 0.95746 0.0
O417 O 0.8565 0.15008 0.95353 0.0
C418 C 0.67075 0.07954 0.95156 0.0
C419 C 0.86563 0.26686 0.95678 0.0
C420 C 0.17326 0.26092 0.83818 0.0
C421 C 0.97932 0.43297 0.84655 0.0
O422 O 0.13387 0.17771 0.84271 0.0
Zn423 Zn 0.04305 0.1599 0.84991 0.0
O424 O 0.1599 0.37628 0.83522 0.0
Zn425 Zn 0.07664 0.34583 0.84046 0.0
O426 O 0.07553 0.28411 0.8823 0.0
O427 O 0.04315 0.08978 0.88763 0.0
O428 O 1.02553 0.49234 0.84076 0.0
O429 O 0.98058 0.31235 0.84968 0.0
O430 O 1.01672 0.05213 0.82108 0.0
O431 O 0.04954 0.23669 0.80579 0.0
C432 C 0.06417 0.18747 0.89778 0.0
C433 C 1.02791 0.12785 0.80121 0.0
C434 C 0.7325 0.71396 0.8365 0.0
C435 C 0.92263 0.49656 0.84596 0.0
O436 O 0.77762 0.77528 0.84305 0.0
Zn437 Zn 0.83051 0.62663 0.84234 0.0
O438 O 0.73611 0.59772 0.83198 0.0
Zn439 Zn 0.79258 0.44819 0.83116 0.0
O440 O 0.75692 0.34002 0.85863 0.0
O441 O 0.7907 0.51626 0.87496 0.0
O442 O 0.87938 0.43006 0.83978 0.0
O443 O 0.91568 0.61354 0.84966 0.0
O444 O 0.83025 0.60306 0.79991 0.0
O445 O 0.79122 0.41703 0.79359 0.0
C446 C 0.7628 0.41275 0.8783 0.0
C447 C 0.814 0.51843 0.78404 0.0
loop_
_geom_bond_atom_site_label_1
_geom_bond_atom_site_label_2
_geom_bond_distance
_geom_bond_site_symmetry_2
_ccdc_geom_bond_type
C0 O2 1.247 . S
C0 O4 1.258 1_545 S
C1 O8 1.247 . S
C1 O9 1.258 1_565 S
O2 C0 1.247 . S
O2 Zn3 2.028 . S
Zn3 O2 2.028 . S
Zn3 O7 2.035 . S
Zn3 O9 2.035 . S
Zn3 O10 2.028 . S
O4 C0 1.258 1_565 S
O4 Zn5 2.035 . S
Zn5 O4 2.035 . S
Zn5 O6 2.028 . S
Zn5 O8 2.028 . S
Zn5 O11 2.035 . S
O6 Zn5 2.028 . S
O6 C12 1.247 . S
O7 Zn3 2.035 . S
O7 C12 1.258 1_545 S
O8 C1 1.247 . S
O8 Zn5 2.028 . S
O9 C1 1.258 1_545 S
O9 Zn3 2.035 . S
O10 Zn3 2.028 . S
O10 C13 1.247 . S
O11 Zn5 2.035 . S
O11 C13 1.258 1_565 S
C12 O6 1.247 . S
C12 O7 1.258 1_565 S
C13 O10 1.247 . S
C13 O11 1.258 1_545 S
C14 O16 1.247 . S
C14 O18 1.258 . S
C15 O22 1.247 . S
C15 O23 1.258 . S
O16 C14 1.247 . S
O16 Zn17 2.028 . S
Zn17 O16 2.028 . S
Zn17 O21 2.035 . S
Zn17 O23 2.035 . S
Zn17 O24 2.028 . S
O18 C14 1.258 . S
O18 Zn19 2.035 . S
Zn19 O18 2.035 . S
Zn19 O20 2.028 . S
Zn19 O22 2.028 . S
Zn19 O25 2.035 . S
O20 Zn19 2.028 . S
O20 C26 1.247 . S
O21 Zn17 2.035 . S
O21 C26 1.258 . S
O22 C15 1.247 . S
O22 Zn19 2.028 . S
O23 C15 1.258 . S
O23 Zn17 2.035 . S
O24 Zn17 2.028 . S
O24 C27 1.247 . S
O25 Zn19 2.035 . S
O25 C27 1.258 . S
C26 O20 1.247 . S
C26 O21 1.258 . S
C27 O24 1.247 . S
C27 O25 1.258 . S
C28 O30 1.247 . S
C28 O32 1.258 . S
C29 O36 1.247 . S
C29 O37 1.258 . S
O30 C28 1.247 . S
O30 Zn31 2.028 . S
Zn31 O30 2.028 . S
Zn31 O35 2.035 . S
Zn31 O37 2.035 . S
Zn31 O38 2.028 . S
O32 C28 1.258 . S
O32 Zn33 2.035 . S
Zn33 O32 2.035 . S
Zn33 O34 2.028 . S
Zn33 O36 2.028 . S
Zn33 O39 2.035 . S
O34 Zn33 2.028 . S
O34 C40 1.247 . S
O35 Zn31 2.035 . S
O35 C40 1.258 . S
O36 C29 1.247 . S
O36 Zn33 2.028 . S
O37 C29 1.258 . S
O37 Zn31 2.035 . S
O38 Zn31 2.028 . S
O38 C41 1.247 . S
O39 Zn33 2.035 . S
O39 C41 1.258 . S
C40 O34 1.247 . S
C40 O35 1.258 . S
C41 O38 1.247 . S
C41 O39 1.258 . S
C42 O44 1.247 . S
C42 O46 1.258 1_545 S
C43 O50 1.247 . S
C43 O51 1.258 1_565 S
O44 C42 1.247 . S
O44 Zn45 2.028 . S
Zn45 O44 2.028 . S
Zn45 O49 2.035 . S
Zn45 O51 2.035 . S
Zn45 O52 2.028 . S
O46 C42 1.258 1_565 S
O46 Zn47 2.035 . S
Zn47 O46 2.035 . S
Zn47 O48 2.028 . S
Zn47 O50 2.028 . S
Zn47 O53 2.035 . S
O48 Zn47 2.028 . S
O48 C54 1.247 . S
O49 Zn45 2.035 . S
O49 C54 1.258 1_545 S
O50 C43 1.247 . S
O50 Zn47 2.028 . S
O51 C43 1.258 1_545 S
O51 Zn45 2.035 . S
O52 Zn45 2.028 . S
O52 C55 1.247 . S
O53 Zn47 2.035 . S
O53 C55 1.258 1_565 S
C54 O48 1.247 . S
C54 O49 1.258 1_565 S
C55 O52 1.247 . S
C55 O53 1.258 1_545 S
C56 O58 1.247 1_545 S
C56 O60 1.258 . S
C57 O64 1.247 1_565 S
C57 O65 1.258 . S
O58 C56 1.247 1_565 S
O58 Zn59 2.028 . S
Zn59 O58 2.028 . S
Zn59 O63 2.035 . S
Zn59 O65 2.035 . S
Zn59 O66 2.028 . S
O60 C56 1.258 . S
O60 Zn61 2.035 . S
Zn61 O60 2.035 . S
Zn61 O62 2.028 . S
Zn61 O64 2.028 . S
Zn61 O67 2.035 . S
O62 Zn61 2.028 . S
O62 C68 1.247 1_545 S
O63 Zn59 2.035 . S
O63 C68 1.258 . S
O64 C57 1.247 1_545 S
O64 Zn61 2.028 . S
O65 C57 1.258 . S
O65 Zn59 2.035 . S
O66 Zn59 2.028 . S
O66 C69 1.247 1_565 S
O67 Zn61 2.035 . S
O67 C69 1.258 . S
C68 O62 1.247 1_565 S
C68 O63 1.258 . S
C69 O66 1.247 1_545 S
C69 O67 1.258 . S
C70 O72 1.247 . S
C70 O74 1.258 . S
C71 O78 1.247 . S
C71 O79 1.258 . S
O72 C70 1.247 . S
O72 Zn73 2.028 . S
Zn73 O72 2.028 . S
Zn73 O77 2.035 . S
Zn73 O79 2.035 . S
Zn73 O80 2.028 . S
O74 C70 1.258 . S
O74 Zn75 2.035 . S
Zn75 O74 2.035 . S
Zn75 O76 2.028 . S
Zn75 O78 2.028 . S
Zn75 O81 2.035 . S
O76 Zn75 2.028 . S
O76 C82 1.247 . S
O77 Zn73 2.035 . S
O77 C82 1.258 . S
O78 C71 1.247 . S
O78 Zn75 2.028 . S
O79 C71 1.258 . S
O79 Zn73 2.035 . S
O80 Zn73 2.028 . S
O80 C83 1.247 . S
O81 Zn75 2.035 . S
O81 C83 1.258 . S
C82 O76 1.247 . S
C82 O77 1.258 . S
C83 O80 1.247 . S
C83 O81 1.258 . S
C84 O86 1.247 . S
C84 O88 1.258 . S
C85 O92 1.247 . S
C85 O93 1.258 . S
O86 C84 1.247 . S
O86 Zn87 2.028 . S
Zn87 O86 2.028 . S
Zn87 O91 2.035 . S
Zn87 O93 2.035 . S
Zn87 O94 2.028 . S
O88 C84 1.258 . S
O88 Zn89 2.035 . S
Zn89 O88 2.035 . S
Zn89 O90 2.028 . S
Zn89 O92 2.028 . S
Zn89 O95 2.035 . S
O90 Zn89 2.028 . S
O90 C96 1.247 . S
O91 Zn87 2.035 . S
O91 C96 1.258 . S
O92 C85 1.247 . S
O92 Zn89 2.028 . S
O93 C85 1.258 . S
O93 Zn87 2.035 . S
O94 Zn87 2.028 . S
O94 C97 1.247 . S
O95 Zn89 2.035 . S
O95 C97 1.258 . S
C96 O90 1.247 . S
C96 O91 1.258 . S
C97 O94 1.247 . S
C97 O95 1.258 . S
C98 O100 1.247 . S
C98 O102 1.258 1_565 S
C99 O106 1.247 . S
C99 O107 1.258 1_545 S
O100 C98 1.247 . S
O100 Zn101 2.028 . S
Zn101 O100 2.028 . S
Zn101 O105 2.035 . S
Zn101 O107 2.035 . S
Zn101 O108 2.028 . S
O102 C98 1.258 1_545 S
O102 Zn103 2.035 . S
Zn103 O102 2.035 . S
Zn103 O104 2.028 . S
Zn103 O106 2.028 . S
Zn103 O109 2.035 . S
O104 Zn103 2.028 . S
O104 C110 1.247 . S
O105 Zn101 2.035 . S
O105 C110 1.258 1_565 S
O106 C99 1.247 . S
O106 Zn103 2.028 . S
O107 C99 1.258 1_565 S
O107 Zn101 2.035 . S
O108 Zn101 2.028 . S
O108 C111 1.247 . S
O109 Zn103 2.035 . S
O109 C111 1.258 1_545 S
C110 O104 1.247 . S
C110 O105 1.258 1_545 S
C111 O108 1.247 . S
C111 O109 1.258 1_565 S
C112 O114 1.247 . S
C112 O116 1.258 . S
C113 O120 1.247 . S
C113 O121 1.258 . S
O114 C112 1.247 . S
O114 Zn115 2.028 . S
Zn115 O114 2.028 . S
Zn115 O119 2.035 . S
Zn115 O121 2.035 . S
Zn115 O122 2.028 . S
O116 C112 1.258 . S
O116 Zn117 2.035 . S
Zn117 O116 2.035 . S
Zn117 O118 2.028 . S
Zn117 O120 2.028 . S
Zn117 O123 2.035 . S
O118 Zn117 2.028 . S
O118 C124 1.247 . S
O119 Zn115 2.035 . S
O119 C124 1.258 . S
O120 C113 1.247 . S
O120 Zn117 2.028 . S
O121 C113 1.258 . S
O121 Zn115 2.035 . S
O122 Zn115 2.028 . S
O122 C125 1.247 . S
O123 Zn117 2.035 . S
O123 C125 1.258 . S
C124 O118 1.247 . S
C124 O119 1.258 . S
C125 O122 1.247 . S
C125 O123 1.258 . S
C126 O128 1.247 . S
C126 O130 1.258 . S
C127 O134 1.247 . S
C127 O135 1.258 . S
O128 C126 1.247 . S
O128 Zn129 2.028 . S
Zn129 O128 2.028 . S
Zn129 O133 2.035 . S
Zn129 O135 2.035 . S
Zn129 O136 2.028 . S
O130 C126 1.258 . S
O130 Zn131 2.035 . S
Zn131 O130 2.035 . S
Zn131 O132 2.028 . S
Zn131 O134 2.028 . S
Zn131 O137 2.035 . S
O132 Zn131 2.028 . S
O132 C138 1.247 . S
O133 Zn129 2.035 . S
O133 C138 1.258 . S
O134 C127 1.247 . S
O134 Zn131 2.028 . S
O135 C127 1.258 . S
O135 Zn129 2.035 . S
O136 Zn129 2.028 . S
O136 C139 1.247 . S
O137 Zn131 2.035 . S
O137 C139 1.258 . S
C138 O132 1.247 . S
C138 O133 1.258 . S
C139 O136 1.247 . S
C139 O137 1.258 . S
C140 O142 1.247 . S
C140 O144 1.258 . S
C141 O148 1.247 . S
C141 O149 1.258 . S
O142 C140 1.247 . S
O142 Zn143 2.028 . S
Zn143 O142 2.028 . S
Zn143 O147 2.035 . S
Zn143 O149 2.035 . S
Zn143 O150 2.028 . S
O144 C140 1.258 . S
O144 Zn145 2.035 . S
Zn145 O144 2.035 . S
Zn145 O146 2.028 . S
Zn145 O148 2.028 . S
Zn145 O151 2.035 . S
O146 Zn145 2.028 . S
O146 C152 1.247 . S
O147 Zn143 2.035 . S
O147 C152 1.258 . S
O148 C141 1.247 . S
O148 Zn145 2.028 . S
O149 C141 1.258 . S
O149 Zn143 2.035 . S
O150 Zn143 2.028 . S
O150 C153 1.247 . S
O151 Zn145 2.035 . S
O151 C153 1.258 . S
C152 O146 1.247 . S
C152 O147 1.258 . S
C153 O150 1.247 . S
C153 O151 1.258 . S
C154 O156 1.247 . S
C154 O158 1.258 . S
C155 O162 1.247 . S
C155 O163 1.258 . S
O156 C154 1.247 . S
O156 Zn157 2.028 . S
Zn157 O156 2.028 . S
Zn157 O161 2.035 . S
Zn157 O163 2.035 . S
Zn157 O164 2.028 . S
O158 C154 1.258 . S
O158 Zn159 2.035 . S
Zn159 O158 2.035 . S
Zn159 O160 2.028 . S
Zn159 O162 2.028 . S
Zn159 O165 2.035 . S
O160 Zn159 2.028 . S
O160 C166 1.247 . S
O161 Zn157 2.035 . S
O161 C166 1.258 . S
O162 C155 1.247 . S
O162 Zn159 2.028 . S
O163 C155 1.258 . S
O163 Zn157 2.035 . S
O164 Zn157 2.028 . S
O164 C167 1.247 . S
O165 Zn159 2.035 . S
O165 C167 1.258 . S
C166 O160 1.247 . S
C166 O161 1.258 . S
C167 O164 1.247 . S
C167 O165 1.258 . S
C168 O170 1.247 . S
C168 O172 1.258 . S
C169 O176 1.247 . S
C169 O177 1.258 . S
O170 C168 1.247 . S
O170 Zn171 2.028 . S
Zn171 O170 2.028 . S
Zn171 O175 2.035 . S
Zn171 O177 2.035 . S
Zn171 O178 2.028 . S
O172 C168 1.258 . S
O172 Zn173 2.035 . S
Zn173 O172 2.035 . S
Zn173 O174 2.028 . S
Zn173 O176 2.028 . S
Zn173 O179 2.035 . S
O174 Zn173 2.028 . S
O174 C180 1.247 . S
O175 Zn171 2.035 . S
O175 C180 1.258 . S
O176 C169 1.247 . S
O176 Zn173 2.028 . S
O177 C169 1.258 . S
O177 Zn171 2.035 . S
O178 Zn171 2.028 . S
O178 C181 1.247 . S
O179 Zn173 2.035 . S
O179 C181 1.258 . S
C180 O174 1.247 . S
C180 O175 1.258 . S
C181 O178 1.247 . S
C181 O179 1.258 . S
C182 O184 1.247 . S
C182 O186 1.258 . S
C183 O190 1.247 . S
C183 O191 1.258 . S
O184 C182 1.247 . S
O184 Zn185 2.028 . S
Zn185 O184 2.028 . S
Zn185 O189 2.035 . S
Zn185 O191 2.035 . S
Zn185 O192 2.028 . S
O186 C182 1.258 . S
O186 Zn187 2.035 . S
Zn187 O186 2.035 . S
Zn187 O188 2.028 . S
Zn187 O190 2.028 . S
Zn187 O193 2.035 . S
O188 Zn187 2.028 . S
O188 C194 1.247 . S
O189 Zn185 2.035 . S
O189 C194 1.258 . S
O190 C183 1.247 . S
O190 Zn187 2.028 . S
O191 C183 1.258 . S
O191 Zn185 2.035 . S
O192 Zn185 2.028 . S
O192 C195 1.247 . S
O193 Zn187 2.035 . S
O193 C195 1.258 . S
C194 O188 1.247 . S
C194 O189 1.258 . S
C195 O192 1.247 . S
C195 O193 1.258 . S
C196 O198 1.247 . S
C196 O200 1.258 . S
C197 O204 1.247 . S
C197 O205 1.258 . S
O198 C196 1.247 . S
O198 Zn199 2.028 . S
Zn199 O198 2.028 . S
Zn199 O203 2.035 . S
Zn199 O205 2.035 . S
Zn199 O206 2.028 . S
O200 C196 1.258 . S
O200 Zn201 2.035 . S
Zn201 O200 2.035 . S
Zn201 O202 2.028 . S
Zn201 O204 2.028 . S
Zn201 O207 2.035 . S
O202 Zn201 2.028 . S
O202 C208 1.247 . S
O203 Zn199 2.035 . S
O203 C208 1.258 . S
O204 C197 1.247 . S
O204 Zn201 2.028 . S
O205 C197 1.258 . S
O205 Zn199 2.035 . S
O206 Zn199 2.028 . S
O206 C209 1.247 . S
O207 Zn201 2.035 . S
O207 C209 1.258 . S
C208 O202 1.247 . S
C208 O203 1.258 . S
C209 O206 1.247 . S
C209 O207 1.258 . S
C210 O212 1.247 . S
C210 O214 1.258 . S
C211 O218 1.247 . S
C211 O219 1.258 . S
O212 C210 1.247 . S
O212 Zn213 2.028 . S
Zn213 O212 2.028 . S
Zn213 O217 2.035 . S
Zn213 O219 2.035 . S
Zn213 O220 2.028 . S
O214 C210 1.258 . S
O214 Zn215 2.035 . S
Zn215 O214 2.035 . S
Zn215 O216 2.028 . S
Zn215 O218 2.028 . S
Zn215 O221 2.035 . S
O216 Zn215 2.028 . S
O216 C222 1.247 . S
O217 Zn213 2.035 . S
O217 C222 1.258 . S
O218 C211 1.247 . S
O218 Zn215 2.028 . S
O219 C211 1.258 . S
O219 Zn213 2.035 . S
O220 Zn213 2.028 . S
O220 C223 1.247 . S
O221 Zn215 2.035 . S
O221 C223 1.258 . S
C222 O216 1.247 . S
C222 O217 1.258 . S
C223 O220 1.247 . S
C223 O221 1.258 . S
C224 O226 1.248 1_545 S
C224 O228 1.257 1_455 S
C225 O232 1.249 1_565 S
C225 O233 1.255 1_655 S
O226 C224 1.248 1_565 S
O226 Zn227 2.028 . S
Zn227 O226 2.028 . S
Zn227 O231 2.035 1_455 S
Zn227 O233 2.035 . S
Zn227 O234 2.028 . S
O228 C224 1.257 1_655 S
O228 Zn229 2.035 . S
Zn229 O228 2.035 . S
Zn229 O230 2.028 . S
Zn229 O232 2.028 . S
Zn229 O235 2.035 1_655 S
O230 Zn229 2.028 . S
O230 C236 1.247 1_545 S
O231 Zn227 2.035 1_655 S
O231 C236 1.258 . S
O232 C225 1.249 1_545 S
O232 Zn229 2.028 . S
O233 C225 1.255 1_455 S
O233 Zn227 2.035 . S
O234 Zn227 2.028 . S
O234 C237 1.247 1_565 S
O235 Zn229 2.035 1_455 S
O235 C237 1.258 . S
C236 O230 1.247 1_565 S
C236 O231 1.258 . S
C237 O234 1.247 1_545 S
C237 O235 1.258 . S
C238 O240 1.247 . S
C238 O242 1.258 . S
C239 O246 1.247 . S
C239 O247 1.258 . S
O240 C238 1.247 . S
O240 Zn241 2.028 . S
Zn241 O240 2.028 . S
Zn241 O245 2.035 . S
Zn241 O247 2.035 . S
Zn241 O248 2.028 . S
O242 C238 1.258 . S
O242 Zn243 2.035 . S
Zn243 O242 2.035 . S
Zn243 O244 2.028 . S
Zn243 O246 2.028 . S
Zn243 O249 2.035 . S
O244 Zn243 2.028 . S
O244 C250 1.247 . S
O245 Zn241 2.035 . S
O245 C250 1.258 . S
O246 C239 1.247 . S
O246 Zn243 2.028 . S
O247 C239 1.258 . S
O247 Zn241 2.035 . S
O248 Zn241 2.028 . S
O248 C251 1.247 . S
O249 Zn243 2.035 . S
O249 C251 1.258 . S
C250 O244 1.247 . S
C250 O245 1.258 . S
C251 O248 1.247 . S
C251 O249 1.258 . S
C252 O254 1.247 . S
C252 O256 1.258 . S
C253 O260 1.247 . S
C253 O261 1.258 . S
O254 C252 1.247 . S
O254 Zn255 2.028 1_455 S
Zn255 O254 2.028 1_655 S
Zn255 O259 2.035 . S
Zn255 O261 2.035 . S
Zn255 O262 2.028 . S
O256 C252 1.258 . S
O256 Zn257 2.035 . S
Zn257 O256 2.035 . S
Zn257 O258 2.028 . S
Zn257 O260 2.028 1_455 S
Zn257 O263 2.035 . S
O258 Zn257 2.028 . S
O258 C264 1.245 1_455 S
O259 Zn255 2.035 . S
O259 C264 1.259 . S
O260 C253 1.247 . S
O260 Zn257 2.028 1_655 S
O261 C253 1.258 . S
O261 Zn255 2.035 . S
O262 Zn255 2.028 . S
O262 C265 1.247 1_655 S
O263 Zn257 2.035 . S
O263 C265 1.258 . S
C264 O258 1.245 1_655 S
C264 O259 1.259 . S
C265 O262 1.247 1_455 S
C265 O263 1.258 . S
C266 O268 1.247 . S
C266 O270 1.258 1_545 S
C267 O274 1.247 . S
C267 O275 1.258 1_565 S
O268 C266 1.247 . S
O268 Zn269 2.028 . S
Zn269 O268 2.028 . S
Zn269 O273 2.035 . S
Zn269 O275 2.035 . S
Zn269 O276 2.028 . S
O270 C266 1.258 1_565 S
O270 Zn271 2.035 . S
Zn271 O270 2.035 . S
Zn271 O272 2.028 . S
Zn271 O274 2.028 . S
Zn271 O277 2.035 . S
O272 Zn271 2.028 . S
O272 C278 1.247 . S
O273 Zn269 2.035 . S
O273 C278 1.258 1_545 S
O274 C267 1.247 . S
O274 Zn271 2.028 . S
O275 C267 1.258 1_545 S
O275 Zn269 2.035 . S
O276 Zn269 2.028 . S
O276 C279 1.247 . S
O277 Zn271 2.035 . S
O277 C279 1.258 1_565 S
C278 O272 1.247 . S
C278 O273 1.258 1_565 S
C279 O276 1.247 . S
C279 O277 1.258 1_545 S
C280 O282 1.247 1_655 S
C280 O284 1.258 1_565 S
C281 O288 1.245 1_455 S
C281 O289 1.259 1_545 S
O282 C280 1.247 1_455 S
O282 Zn283 2.028 . S
Zn283 O282 2.028 . S
Zn283 O287 2.035 . S
Zn283 O289 2.035 . S
Zn283 O290 2.028 1_455 S
O284 C280 1.258 1_545 S
O284 Zn285 2.035 . S
Zn285 O284 2.035 . S
Zn285 O286 2.028 1_655 S
Zn285 O288 2.028 . S
Zn285 O291 2.035 . S
O286 Zn285 2.028 1_455 S
O286 C292 1.247 . S
O287 Zn283 2.035 . S
O287 C292 1.258 1_565 S
O288 C281 1.245 1_655 S
O288 Zn285 2.028 . S
O289 C281 1.259 1_565 S
O289 Zn283 2.035 . S
O290 Zn283 2.028 1_655 S
O290 C293 1.247 . S
O291 Zn285 2.035 . S
O291 C293 1.258 1_545 S
C292 O286 1.247 . S
C292 O287 1.258 1_545 S
C293 O290 1.247 . S
C293 O291 1.258 1_565 S
C294 O296 1.247 . S
C294 O298 1.258 . S
C295 O302 1.247 . S
C295 O303 1.258 . S
O296 C294 1.247 . S
O296 Zn297 2.028 . S
Zn297 O296 2.028 . S
Zn297 O301 2.035 . S
Zn297 O303 2.035 . S
Zn297 O304 2.028 . S
O298 C294 1.258 . S
O298 Zn299 2.035 . S
Zn299 O298 2.035 . S
Zn299 O300 2.028 . S
Zn299 O302 2.028 . S
Zn299 O305 2.035 . S
O300 Zn299 2.028 . S
O300 C306 1.247 . S
O301 Zn297 2.035 . S
O301 C306 1.258 . S
O302 C295 1.247 . S
O302 Zn299 2.028 . S
O303 C295 1.258 . S
O303 Zn297 2.035 . S
O304 Zn297 2.028 . S
O304 C307 1.247 . S
O305 Zn299 2.035 . S
O305 C307 1.258 . S
C306 O300 1.247 . S
C306 O301 1.258 . S
C307 O304 1.247 . S
C307 O305 1.258 . S
C308 O310 1.247 . S
C308 O312 1.258 . S
C309 O316 1.247 . S
C309 O317 1.258 . S
O310 C308 1.247 . S
O310 Zn311 2.028 . S
Zn311 O310 2.028 . S
Zn311 O315 2.035 . S
Zn311 O317 2.035 1_655 S
Zn311 O318 2.028 . S
O312 C308 1.258 . S
O312 Zn313 2.035 1_655 S
Zn313 O312 2.035 1_455 S
Zn313 O314 2.028 . S
Zn313 O316 2.028 . S
Zn313 O319 2.035 . S
O314 Zn313 2.028 . S
O314 C320 1.249 . S
O315 Zn311 2.035 . S
O315 C320 1.255 1_655 S
O316 C309 1.247 . S
O316 Zn313 2.028 . S
O317 C309 1.258 . S
O317 Zn311 2.035 1_455 S
O318 Zn311 2.028 . S
O318 C321 1.248 . S
O319 Zn313 2.035 . S
O319 C321 1.257 1_455 S
C320 O314 1.249 . S
C320 O315 1.255 1_455 S
C321 O318 1.248 . S
C321 O319 1.257 1_655 S
C322 O324 1.247 . S
C322 O326 1.258 1_545 S
C323 O330 1.247 . S
C323 O331 1.258 1_565 S
O324 C322 1.247 . S
O324 Zn325 2.028 . S
Zn325 O324 2.028 . S
Zn325 O329 2.035 . S
Zn325 O331 2.035 . S
Zn325 O332 2.028 . S
O326 C322 1.258 1_565 S
O326 Zn327 2.035 . S
Zn327 O326 2.035 . S
Zn327 O328 2.028 . S
Zn327 O330 2.028 . S
Zn327 O333 2.035 . S
O328 Zn327 2.028 . S
O328 C334 1.247 . S
O329 Zn325 2.035 . S
O329 C334 1.258 1_545 S
O330 C323 1.247 . S
O330 Zn327 2.028 . S
O331 C323 1.258 1_545 S
O331 Zn325 2.035 . S
O332 Zn325 2.028 . S
O332 C335 1.247 . S
O333 Zn327 2.035 . S
O333 C335 1.258 1_565 S
C334 O328 1.247 . S
C334 O329 1.258 1_565 S
C335 O332 1.247 . S
C335 O333 1.258 1_545 S
C336 O338 1.247 . S
C336 O340 1.258 . S
C337 O344 1.247 . S
C337 O345 1.258 . S
O338 C336 1.247 . S
O338 Zn339 2.028 . S
Zn339 O338 2.028 . S
Zn339 O343 2.035 . S
Zn339 O345 2.035 1_655 S
Zn339 O346 2.028 . S
O340 C336 1.258 . S
O340 Zn341 2.035 1_655 S
Zn341 O340 2.035 1_455 S
Zn341 O342 2.028 . S
Zn341 O344 2.028 . S
Zn341 O347 2.035 . S
O342 Zn341 2.028 . S
O342 C348 1.248 . S
O343 Zn339 2.035 . S
O343 C348 1.257 1_655 S
O344 C337 1.247 . S
O344 Zn341 2.028 . S
O345 C337 1.258 . S
O345 Zn339 2.035 1_455 S
O346 Zn339 2.028 . S
O346 C349 1.249 . S
O347 Zn341 2.035 . S
O347 C349 1.255 1_455 S
C348 O342 1.248 . S
C348 O343 1.257 1_455 S
C349 O346 1.249 . S
C349 O347 1.255 1_655 S
C350 O352 1.247 . S
C350 O354 1.258 . S
C351 O358 1.247 . S
C351 O359 1.258 . S
O352 C350 1.247 . S
O352 Zn353 2.028 . S
Zn353 O352 2.028 . S
Zn353 O357 2.035 . S
Zn353 O359 2.035 . S
Zn353 O360 2.028 . S
O354 C350 1.258 . S
O354 Zn355 2.035 . S
Zn355 O354 2.035 . S
Zn355 O356 2.028 . S
Zn355 O358 2.028 . S
Zn355 O361 2.035 . S
O356 Zn355 2.028 . S
O356 C362 1.247 . S
O357 Zn353 2.035 . S
O357 C362 1.258 . S
O358 C351 1.247 . S
O358 Zn355 2.028 . S
O359 C351 1.258 . S
O359 Zn353 2.035 . S
O360 Zn353 2.028 . S
O360 C363 1.247 . S
O361 Zn355 2.035 . S
O361 C363 1.258 . S
C362 O356 1.247 . S
C362 O357 1.258 . S
C363 O360 1.247 . S
C363 O361 1.258 . S
C364 O366 1.247 . S
C364 O368 1.258 . S
C365 O372 1.247 . S
C365 O373 1.258 . S
O366 C364 1.247 . S
O366 Zn367 2.028 1_455 S
Zn367 O366 2.028 1_655 S
Zn367 O371 2.035 . S
Zn367 O373 2.035 . S
Zn367 O374 2.028 . S
O368 C364 1.258 . S
O368 Zn369 2.035 . S
Zn369 O368 2.035 . S
Zn369 O370 2.028 . S
Zn369 O372 2.028 1_455 S
Zn369 O375 2.035 . S
O370 Zn369 2.028 . S
O370 C376 1.245 1_455 S
O371 Zn367 2.035 . S
O371 C376 1.259 . S
O372 C365 1.247 . S
O372 Zn369 2.028 1_655 S
O373 C365 1.258 . S
O373 Zn367 2.035 . S
O374 Zn367 2.028 . S
O374 C377 1.247 1_655 S
O375 Zn369 2.035 . S
O375 C377 1.258 . S
C376 O370 1.245 1_655 S
C376 O371 1.259 . S
C377 O374 1.247 1_455 S
C377 O375 1.258 . S
C378 O380 1.247 . S
C378 O382 1.258 . S
C379 O386 1.247 . S
C379 O387 1.258 . S
O380 C378 1.247 . S
O380 Zn381 2.028 . S
Zn381 O380 2.028 . S
Zn381 O385 2.035 . S
Zn381 O387 2.035 . S
Zn381 O388 2.028 . S
O382 C378 1.258 . S
O382 Zn383 2.035 . S
Zn383 O382 2.035 . S
Zn383 O384 2.028 . S
Zn383 O386 2.028 . S
Zn383 O389 2.035 . S
O384 Zn383 2.028 . S
O384 C390 1.247 . S
O385 Zn381 2.035 . S
O385 C390 1.258 . S
O386 C379 1.247 . S
O386 Zn383 2.028 . S
O387 C379 1.258 . S
O387 Zn381 2.035 . S
O388 Zn381 2.028 . S
O388 C391 1.247 . S
O389 Zn383 2.035 . S
O389 C391 1.258 . S
C390 O384 1.247 . S
C390 O385 1.258 . S
C391 O388 1.247 . S
C391 O389 1.258 . S
C392 O394 1.247 1_655 S
C392 O396 1.258 . S
C393 O400 1.245 1_455 S
C393 O401 1.259 . S
O394 C392 1.247 1_455 S
O394 Zn395 2.028 . S
Zn395 O394 2.028 . S
Zn395 O399 2.035 . S
Zn395 O401 2.035 . S
Zn395 O402 2.028 1_455 S
O396 C392 1.258 . S
O396 Zn397 2.035 . S
Zn397 O396 2.035 . S
Zn397 O398 2.028 1_655 S
Zn397 O400 2.028 . S
Zn397 O403 2.035 . S
O398 Zn397 2.028 1_455 S
O398 C404 1.247 . S
O399 Zn395 2.035 . S
O399 C404 1.258 . S
O400 C393 1.245 1_655 S
O400 Zn397 2.028 . S
O401 C393 1.259 . S
O401 Zn395 2.035 . S
O402 Zn395 2.028 1_655 S
O402 C405 1.247 . S
O403 Zn397 2.035 . S
O403 C405 1.258 . S
C404 O398 1.247 . S
C404 O399 1.258 . S
C405 O402 1.247 . S
C405 O403 1.258 . S
C406 O408 1.247 . S
C406 O410 1.258 . S
C407 O414 1.247 . S
C407 O415 1.258 . S
O408 C406 1.247 . S
O408 Zn409 2.028 . S
Zn409 O408 2.028 . S
Zn409 O413 2.035 . S
Zn409 O415 2.035 . S
Zn409 O416 2.028 . S
O410 C406 1.258 . S
O410 Zn411 2.035 . S
Zn411 O410 2.035 . S
Zn411 O412 2.028 . S
Zn411 O414 2.028 . S
Zn411 O417 2.035 . S
O412 Zn411 2.028 . S
O412 C418 1.247 . S
O413 Zn409 2.035 . S
O413 C418 1.258 . S
O414 C407 1.247 . S
O414 Zn411 2.028 . S
O415 C407 1.258 . S
O415 Zn409 2.035 . S
O416 Zn409 2.028 . S
O416 C419 1.247 . S
O417 Zn411 2.035 . S
O417 C419 1.258 . S
C418 O412 1.247 . S
C418 O413 1.258 . S
C419 O416 1.247 . S
C419 O417 1.258 . S
C420 O422 1.247 . S
C420 O424 1.258 . S
C421 O428 1.247 . S
C421 O429 1.258 . S
O422 C420 1.247 . S
O422 Zn423 2.028 1_455 S
Zn423 O422 2.028 1_655 S
Zn423 O427 2.035 . S
Zn423 O429 2.035 . S
Zn423 O430 2.028 . S
O424 C420 1.258 . S
O424 Zn425 2.035 . S
Zn425 O424 2.035 . S
Zn425 O426 2.028 . S
Zn425 O428 2.028 1_455 S
Zn425 O431 2.035 . S
O426 Zn425 2.028 . S
O426 C432 1.247 1_455 S
O427 Zn423 2.035 . S
O427 C432 1.258 . S
O428 C421 1.247 . S
O428 Zn425 2.028 1_655 S
O429 C421 1.258 . S
O429 Zn423 2.035 . S
O430 Zn423 2.028 . S
O430 C433 1.245 1_655 S
O431 Zn425 2.035 . S
O431 C433 1.259 . S
C432 O426 1.247 1_655 S
C432 O427 1.258 . S
C433 O430 1.245 1_455 S
C433 O431 1.259 . S
C434 O436 1.247 . S
C434 O438 1.258 . S
C435 O442 1.247 . S
C435 O443 1.258 . S
O436 C434 1.247 . S
O436 Zn437 2.028 . S
Zn437 O436 2.028 . S
Zn437 O441 2.035 . S
Zn437 O443 2.035 . S
Zn437 O444 2.028 . S
O438 C434 1.258 . S
O438 Zn439 2.035 . S
Zn439 O438 2.035 . S
Zn439 O440 2.028 . S
Zn439 O442 2.028 . S
Zn439 O445 2.035 . S
O440 Zn439 2.028 . S
O440 C446 1.247 . S
O441 Zn437 2.035 . S
O441 C446 1.258 . S
O442 C435 1.247 . S
O442 Zn439 2.028 . S
O443 C435 1.258 . S
O443 Zn437 2.035 . S
O444 Zn437 2.028 . S
O444 C447 1.247 . S
O445 Zn439 2.035 . S
O445 C447 1.258 . S
C446 O440 1.247 . S
C446 O441 1.258 . S
C447 O444 1.247 . S
C447 O445 1.258 . S
C13 C29 1.746 . S
C55 C27 1.741 . S
C85 C57 1.756 . S
C98 C82 1.741 . S
C113 C141 1.747 . S
C167 C127 1.740 . S
C169 C197 1.757 . S
C223 C183 1.749 . S
C224 C265 1.719 . S
C238 C279 1.758 . S
C321 C280 1.719 . S
C295 C334 1.758 . S
C377 C348 1.719 . S
C390 C362 1.763 . S
C432 C392 1.714 . S
C406 C446 1.753 . S
C350 C1 1.695 . S
C15 C336 1.693 . S
C41 C378 1.695 . S
C43 C365 1.691 . S
C418 C69 1.695 . S
C70 C404 1.691 . S
C97 C434 1.695 . S
C420 C110 1.691 . S
C125 C250 1.694 . S
C139 C236 1.693 . S
C153 C267 1.693 . S
C155 C253 1.691 . S
C181 C307 1.696 . S
C292 C195 1.693 . S
C322 C209 1.695 . S
C211 C309 1.695 . S
C12 C56 1.748 1_564 S
C26 C407 1.753 1_554 S
C28 C196 1.749 . S
C54 C335 1.754 1_565 S
C83 C363 1.748 1_556 S
C140 C84 1.749 . S
C278 C99 1.754 1_565 S
C168 C112 1.749 . S
C126 C294 1.748 . S
C447 C166 1.753 . S
C182 C239 1.743 . S
C222 C391 1.743 . S
C281 C225 1.718 1_445 S
C264 C433 1.722 1_655 S
C376 C320 1.718 1_655 S
C393 C349 1.719 1_456 S
C0 C14 1.346 . S
C40 C42 1.345 . S
C68 C71 1.344 . S
C96 C111 1.343 . S
C138 C124 1.346 . S
C152 C154 1.346 . S
C180 C194 1.342 . S
C208 C210 1.342 . S
C237 C251 1.350 . S
C266 C252 1.354 . S
C293 C306 1.352 . S
C308 C323 1.352 . S
C351 C337 1.350 . S
C364 C379 1.352 . S
C419 C405 1.354 . S
C421 C435 1.354 . S
