# Generated by pormake.
# Topology unm, (4)-cn, num edge types: 1
# Building blocks:
#     Node 0, Type 0, BuildingBlock: UXUYUI_clean_sbu_0, # of connection points: 4
#     Node 1, Type 0, BuildingBlock: UXUYUI_clean_sbu_0, # of connection points: 4
#     Node 2, Type 0, BuildingBlock: UXUYUI_clean_sbu_0, # of connection points: 4
#     Node 3, Type 0, BuildingBlock: UXUYUI_clean_sbu_0, # of connection points: 4
#     Node 4, Type 0, BuildingBlock: UXUYUI_clean_sbu_0, # of connection points: 4
#     Node 5, Type 0, BuildingBlock: UXUYUI_clean_sbu_0, # of connection points: 4
#     Node 6, Type 0, BuildingBlock: UXUYUI_clean_sbu_0, # of connection points: 4
#     Node 7, Type 0, BuildingBlock: UXUYUI_clean_sbu_0, # of connection points: 4
#     Edge 8, Type (0, 0), BuildingBlock: KIFKEQ_clean_linker_1, # of connection points: 2
#     Edge 9, Type (0, 0), BuildingBlock: KIFKEQ_clean_linker_1, # of connection points: 2
#     Edge 10, Type (0, 0), BuildingBlock: KIFKEQ_clean_linker_1, # of connection points: 2
#     Edge 11, Type (0, 0), BuildingBlock: KIFKEQ_clean_linker_1, # of connection points: 2
#     Edge 12, Type (0, 0), BuildingBlock: KIFKEQ_clean_linker_1, # of connection points: 2
#     Edge 13, Type (0, 0), BuildingBlock: KIFKEQ_clean_linker_1, # of connection points: 2
#     Edge 14, Type (0, 0), BuildingBlock: KIFKEQ_clean_linker_1, # of connection points: 2
#     Edge 15, Type (0, 0), BuildingBlock: KIFKEQ_clean_linker_1, # of connection points: 2
#     Edge 16, Type (0, 0), BuildingBlock: KIFKEQ_clean_linker_1, # of connection points: 2
#     Edge 17, Type (0, 0), BuildingBlock: KIFKEQ_clean_linker_1, # of connection points: 2
#     Edge 18, Type (0, 0), BuildingBlock: KIFKEQ_clean_linker_1, # of connection points: 2
#     Edge 19, Type (0, 0), BuildingBlock: KIFKEQ_clean_linker_1, # of connection points: 2
#     Edge 20, Type (0, 0), BuildingBlock: KIFKEQ_clean_linker_1, # of connection points: 2
#     Edge 21, Type (0, 0), BuildingBlock: KIFKEQ_clean_linker_1, # of connection points: 2
#     Edge 22, Type (0, 0), BuildingBlock: KIFKEQ_clean_linker_1, # of connection points: 2
#     Edge 23, Type (0, 0), BuildingBlock: KIFKEQ_clean_linker_1, # of connection points: 2
# Relax obj value: 0.260
# Max RMSD: 0.186
# Mean RMSD: 0.185
data_MOF--net-unm--node1-UXUYUI_clean_sbu_0--edge1-KIFKEQ_clean_linker_1
_symmetry_space_group_name_H-M    P1
_symmetry_Int_Tables_number       1
_symmetry_cell_setting            triclinic
loop_
_symmetry_equiv_pos_as_xyz
'x, y, z'
_cell_length_a     38.443942
_cell_length_b     38.317092
_cell_length_c     62.846044
_cell_angle_alpha  89.987957
_cell_angle_beta   89.990519
_cell_angle_gamma 90.003065
loop_
_atom_site_label
_atom_site_type_symbol
_atom_site_fract_x
_atom_site_fract_y
_atom_site_fract_z
_atom_type_partial_charge
Li0 Li 0.07438 0.26399 0.14727 0.0
Li1 Li 0.11103 0.22852 0.17313 0.0
Li2 Li 0.08111 0.20107 0.14054 0.0
Li3 Li 0.04812 0.22143 0.17083 0.0
C4 C 0.13868 0.25324 0.12705 0.0
N5 N 0.18011 0.28551 0.09698 0.0
C6 C 0.1708 0.26738 0.1329 0.0
C7 C 0.1278 0.25521 0.10587 0.0
C8 C 0.19132 0.28368 0.11748 0.0
C9 C 0.14907 0.2717 0.09091 0.0
C10 C 0.05907 0.27385 0.19707 0.0
C11 C 0.05063 0.26812 0.23492 0.0
N12 N 0.02409 0.29154 0.23389 0.0
C13 C 0.03189 0.29804 0.19639 0.0
C14 C 0.06868 0.25884 0.21646 0.0
C15 C 0.01445 0.30656 0.21519 0.0
C16 C 0.03421 0.31892 0.13285 0.0
N17 N 0.06781 0.30872 0.13528 0.0
C18 C 0.08812 0.36486 0.12448 0.0
C19 C 0.09467 0.33075 0.13115 0.0
C20 C 0.0536 0.37661 0.12261 0.0
C21 C 0.02646 0.35288 0.1265 0.0
H22 H 0.01339 0.30103 0.13673 0.0
H23 H 0.12112 0.32241 0.13376 0.0
C24 C 0.17067 0.20421 0.19675 0.0
N25 N 0.15232 0.23226 0.1897 0.0
C26 C 0.20193 0.20909 0.20782 0.0
C27 C 0.19467 0.27144 0.20402 0.0
C28 C 0.16345 0.2654 0.19331 0.0
C29 C 0.21449 0.2431 0.21132 0.0
H30 H 0.16133 0.17812 0.19351 0.0
H31 H 0.14831 0.28717 0.18745 0.0
C32 C 0.01709 0.22368 0.12378 0.0
N33 N 0.97376 0.21137 0.08951 0.0
C34 C 0.98845 0.20146 0.12594 0.0
C35 C 0.02335 0.24007 0.10429 0.0
C36 C 0.96695 0.19546 0.10841 0.0
C37 C 0.00125 0.23338 0.08712 0.0
C38 C 0.06854 0.1569 0.18124 0.0
C39 C 0.04046 0.13959 0.17188 0.0
C40 C 0.08006 0.14691 0.20143 0.0
C41 C 0.02405 0.11268 0.18302 0.0
C42 C 0.06302 0.11979 0.21203 0.0
N43 N 0.03557 0.10342 0.2027 0.0
C44 C 0.1193 0.16812 0.10826 0.0
C45 C 0.06009 0.15124 0.10869 0.0
C46 C 0.12437 0.15129 0.08881 0.0
N47 N 0.08722 0.16908 0.11733 0.0
C48 C 0.06397 0.134 0.08922 0.0
C49 C 0.09621 0.13482 0.07868 0.0
H50 H 0.1407 0.18183 0.11562 0.0
H51 H 0.03511 0.15128 0.11648 0.0
C52 C 0.97842 0.23485 0.17821 0.0
N53 N 0.00551 0.21711 0.18695 0.0
C54 C 0.94649 0.2368 0.18866 0.0
C55 C 0.97062 0.20243 0.21727 0.0
C56 C 0.00229 0.20127 0.20624 0.0
C57 C 0.94212 0.22045 0.20848 0.0
H58 H 0.98193 0.24855 0.16334 0.0
H59 H 0.02442 0.18855 0.2134 0.0
O60 O 0.11817 0.23734 0.14198 0.0
O61 O 0.07563 0.2642 0.17877 0.0
O62 O 0.03834 0.22994 0.14082 0.0
O63 O 0.08489 0.18328 0.17059 0.0
H64 H 0.17979 0.26584 0.14917 0.0
H65 H 0.10334 0.2439 0.101 0.0
H66 H 0.21618 0.29486 0.1218 0.0
H67 H 0.14094 0.27344 0.07447 0.0
H68 H 0.05761 0.25656 0.25003 0.0
H69 H 0.02409 0.30973 0.18145 0.0
H70 H 0.08953 0.23989 0.21719 0.0
H71 H 0.99318 0.32503 0.21489 0.0
H72 H 0.10988 0.38213 0.12151 0.0
H73 H 0.99947 0.36087 0.12576 0.0
H74 H 0.21657 0.18654 0.21309 0.0
H75 H 0.20318 0.29806 0.2066 0.0
H76 H 0.98314 0.18863 0.14094 0.0
H77 H 0.04484 0.25799 0.10245 0.0
H78 H 0.94486 0.17811 0.10981 0.0
H79 H 0.00587 0.2458 0.07192 0.0
H80 H 0.03129 0.14708 0.15626 0.0
H81 H 0.10176 0.16012 0.20888 0.0
H82 H 0.00215 0.09916 0.17604 0.0
H83 H 0.07153 0.11183 0.2277 0.0
H84 H 0.1497 0.15278 0.08134 0.0
H85 H 0.04176 0.12087 0.08229 0.0
H86 H 0.92577 0.2519 0.1815 0.0
H87 H 0.96857 0.18947 0.23252 0.0
Li88 Li 0.29216 0.57447 0.64145 0.0
Li89 Li 0.27605 0.60753 0.6747 0.0
Li90 Li 0.28144 0.54227 0.67459 0.0
Li91 Li 0.23456 0.57107 0.6561 0.0
C92 C 0.35034 0.56096 0.66727 0.0
N93 N 0.41319 0.52646 0.66375 0.0
C94 C 0.37915 0.5723 0.67893 0.0
C95 C 0.35349 0.53208 0.65382 0.0
C96 C 0.41071 0.55451 0.67693 0.0
C97 C 0.38547 0.51499 0.65226 0.0
C98 C 0.23246 0.62892 0.6343 0.0
C99 C 0.18102 0.66492 0.63355 0.0
N100 N 0.17766 0.65858 0.61235 0.0
C101 C 0.22866 0.62297 0.61249 0.0
C102 C 0.20861 0.65024 0.64491 0.0
C103 C 0.20073 0.63813 0.60168 0.0
C104 C 0.30124 0.55681 0.59912 0.0
N105 N 0.31566 0.57633 0.61485 0.0
C106 C 0.35512 0.6025 0.59012 0.0
C107 C 0.34253 0.59849 0.6109 0.0
C108 C 0.33958 0.58376 0.57338 0.0
C109 C 0.31289 0.56003 0.57822 0.0
H110 H 0.27947 0.53995 0.60265 0.0
H111 H 0.35318 0.61404 0.62371 0.0
C112 C 0.28016 0.64933 0.712 0.0
N113 N 0.28074 0.64994 0.69037 0.0
C114 C 0.27674 0.68041 0.72348 0.0
C115 C 0.27698 0.71224 0.69027 0.0
C116 C 0.28002 0.68054 0.67943 0.0
C117 C 0.27434 0.71237 0.71257 0.0
H118 H 0.28049 0.62458 0.72029 0.0
H119 H 0.28022 0.68023 0.66222 0.0
C120 C 0.24693 0.50083 0.64501 0.0
N121 N 0.21341 0.43702 0.64423 0.0
C122 C 0.2213 0.49311 0.66005 0.0
C123 C 0.2555 0.47607 0.62954 0.0
C124 C 0.20464 0.46074 0.65941 0.0
C125 C 0.23827 0.44396 0.62942 0.0
C126 C 0.21775 0.57613 0.70096 0.0
C127 C 0.20431 0.54726 0.71184 0.0
C128 C 0.20393 0.60928 0.70492 0.0
C129 C 0.17705 0.55198 0.72625 0.0
C130 C 0.17672 0.61293 0.71948 0.0
N131 N 0.16394 0.58444 0.72975 0.0
C132 C 0.28689 0.50283 0.71263 0.0
C133 C 0.29997 0.47113 0.68133 0.0
C134 C 0.28694 0.47208 0.72464 0.0
N135 N 0.29216 0.50166 0.69127 0.0
C136 C 0.29966 0.43973 0.69261 0.0
C137 C 0.29203 0.43966 0.71452 0.0
H138 H 0.28099 0.52748 0.72021 0.0
H139 H 0.30456 0.4708 0.66438 0.0
C140 C 0.18342 0.55155 0.62709 0.0
N141 N 0.18744 0.56604 0.64669 0.0
C142 C 0.15037 0.54324 0.6195 0.0
C143 C 0.12595 0.56672 0.6519 0.0
C144 C 0.15947 0.57455 0.65884 0.0
C145 C 0.12114 0.55011 0.63219 0.0
H146 H 0.20607 0.54559 0.61755 0.0
H147 H 0.16293 0.58661 0.67412 0.0
O148 O 0.31928 0.57809 0.66917 0.0
O149 O 0.25909 0.61352 0.64527 0.0
O150 O 0.26379 0.53232 0.6454 0.0
O151 O 0.24497 0.57207 0.68709 0.0
H152 H 0.37711 0.59461 0.68942 0.0
H153 H 0.33153 0.52289 0.64466 0.0
H154 H 0.43323 0.56299 0.68586 0.0
H155 H 0.38826 0.49259 0.64192 0.0
H156 H 0.16225 0.6813 0.64158 0.0
H157 H 0.24685 0.60655 0.60402 0.0
H158 H 0.21121 0.65522 0.66176 0.0
H159 H 0.19733 0.63355 0.58483 0.0
H160 H 0.37555 0.6213 0.58705 0.0
H161 H 0.30043 0.5448 0.56586 0.0
H162 H 0.27517 0.6794 0.74068 0.0
H163 H 0.27498 0.73623 0.68124 0.0
H164 H 0.21422 0.51197 0.67202 0.0
H165 H 0.27548 0.48144 0.61787 0.0
H166 H 0.18473 0.45449 0.67096 0.0
H167 H 0.24472 0.42452 0.61758 0.0
H168 H 0.21479 0.52143 0.70925 0.0
H169 H 0.21365 0.63192 0.69662 0.0
H170 H 0.16638 0.52984 0.73471 0.0
H171 H 0.16571 0.63841 0.72258 0.0
H172 H 0.282 0.47371 0.74156 0.0
H173 H 0.30353 0.41568 0.6839 0.0
H174 H 0.14779 0.53097 0.60406 0.0
H175 H 0.10418 0.57225 0.6623 0.0
Li176 Li 0.8948 0.76797 0.17649 0.0
Li177 Li 0.93396 0.73401 0.15265 0.0
Li178 Li 0.95612 0.77941 0.17414 0.0
Li179 Li 0.92149 0.79473 0.14402 0.0
C180 C 0.94605 0.73264 0.20414 0.0
N181 N 0.97431 0.72744 0.24445 0.0
C182 C 0.97279 0.70883 0.20818 0.0
C183 C 0.93355 0.75366 0.22064 0.0
C184 C 0.9868 0.70667 0.22865 0.0
C185 C 0.94817 0.75064 0.2409 0.0
C186 C 0.86194 0.73022 0.14426 0.0
C187 C 0.80791 0.70969 0.12926 0.0
N188 N 0.80941 0.68107 0.14203 0.0
C189 C 0.863 0.70051 0.15716 0.0
C190 C 0.83422 0.73481 0.13015 0.0
C191 C 0.83618 0.67601 0.15583 0.0
C192 C 0.82979 0.7909 0.19337 0.0
N193 N 0.85349 0.76455 0.19334 0.0
C194 C 0.81614 0.72911 0.21478 0.0
C195 C 0.84751 0.7343 0.20405 0.0
C196 C 0.79091 0.75556 0.21481 0.0
C197 C 0.79823 0.78705 0.20424 0.0
H198 H 0.83516 0.81462 0.18462 0.0
H199 H 0.86686 0.71382 0.20391 0.0
C200 C 0.97904 0.68029 0.14883 0.0
N201 N 0.94703 0.68981 0.14187 0.0
C202 C 0.99261 0.6478 0.14362 0.0
C203 C 0.94075 0.636 0.12305 0.0
C204 C 0.92818 0.66902 0.12864 0.0
C205 C 0.97303 0.6248 0.13104 0.0
H206 H 0.99389 0.69799 0.15865 0.0
H207 H 0.90329 0.67772 0.12267 0.0
C208 C 0.93126 0.84248 0.18328 0.0
N209 N 0.96017 0.89923 0.20375 0.0
C210 C 0.95827 0.86113 0.17368 0.0
C211 C 0.9187 0.8528 0.20317 0.0
C212 C 0.97263 0.8897 0.18434 0.0
C213 C 0.93371 0.88157 0.21328 0.0
C214 C 0.97693 0.76535 0.12336 0.0
C215 C 0.01117 0.77225 0.11718 0.0
C216 C 0.95303 0.75321 0.10829 0.0
C217 C 0.02093 0.76699 0.096 0.0
C218 C 0.9638 0.74831 0.08728 0.0
N219 N 0.99724 0.75524 0.08162 0.0
C220 C 0.02578 0.77007 0.18104 0.0
C221 C 0.00207 0.80509 0.20846 0.0
C222 C 0.05783 0.76891 0.19132 0.0
N223 N 0.99859 0.78777 0.18967 0.0
C224 C 0.03398 0.8049 0.21927 0.0
C225 C 0.06241 0.78631 0.21079 0.0
H226 H 0.02219 0.75556 0.16648 0.0
H227 H 0.97995 0.81803 0.21549 0.0
C228 C 0.88088 0.8267 0.11262 0.0
N229 N 0.91372 0.82516 0.12051 0.0
C230 C 0.87446 0.84302 0.09316 0.0
C231 C 0.93556 0.85736 0.09077 0.0
C232 C 0.94076 0.84093 0.11038 0.0
C233 C 0.90217 0.85782 0.08168 0.0
H234 H 0.85992 0.81395 0.12104 0.0
H235 H 0.96665 0.83936 0.11703 0.0
O236 O 0.9327 0.73604 0.18406 0.0
O237 O 0.88769 0.75485 0.14544 0.0
O238 O 0.91683 0.81452 0.17311 0.0
O239 O 0.96711 0.77076 0.14405 0.0
H240 H 0.98276 0.69228 0.19567 0.0
H241 H 0.91318 0.77254 0.21775 0.0
H242 H 0.00763 0.68849 0.23197 0.0
H243 H 0.9389 0.76691 0.25377 0.0
H244 H 0.7863 0.71296 0.11842 0.0
H245 H 0.88441 0.69619 0.16797 0.0
H246 H 0.83299 0.75751 0.11995 0.0
H247 H 0.8367 0.65292 0.16574 0.0
H248 H 0.81164 0.70465 0.22297 0.0
H249 H 0.77934 0.80801 0.20387 0.0
H250 H 0.01803 0.64057 0.14961 0.0
H251 H 0.92497 0.61907 0.11319 0.0
H252 H 0.96818 0.85342 0.15826 0.0
H253 H 0.89765 0.83867 0.21071 0.0
H254 H 0.9937 0.90428 0.17718 0.0
H255 H 0.92436 0.88982 0.22872 0.0
H256 H 0.02997 0.78174 0.12861 0.0
H257 H 0.92641 0.74777 0.11266 0.0
H258 H 0.04733 0.7723 0.091 0.0
H259 H 0.94556 0.73902 0.07546 0.0
H260 H 0.07843 0.75339 0.18436 0.0
H261 H 0.03618 0.81881 0.23419 0.0
H262 H 0.84835 0.84244 0.0867 0.0
H263 H 0.95756 0.86882 0.08258 0.0
Li264 Li 0.72105 0.45901 0.67425 0.0
Li265 Li 0.76877 0.4306 0.65638 0.0
Li266 Li 0.71152 0.42614 0.64117 0.0
Li267 Li 0.72738 0.3938 0.67478 0.0
C268 C 0.75526 0.50042 0.64418 0.0
N269 N 0.78699 0.56507 0.64228 0.0
C270 C 0.7805 0.50961 0.65916 0.0
C271 C 0.74621 0.52409 0.62819 0.0
C272 C 0.79624 0.5424 0.65795 0.0
C273 C 0.76253 0.55666 0.62751 0.0
C274 C 0.78473 0.42703 0.70131 0.0
C275 C 0.82611 0.39187 0.7207 0.0
N276 N 0.83847 0.4211 0.73037 0.0
C277 C 0.79771 0.45667 0.71159 0.0
C278 C 0.79895 0.39431 0.70602 0.0
C279 C 0.82494 0.45315 0.72615 0.0
C280 C 0.7145 0.49967 0.71182 0.0
N281 N 0.70942 0.49993 0.6904 0.0
C282 C 0.70151 0.56184 0.69071 0.0
C283 C 0.70145 0.52998 0.67993 0.0
C284 C 0.70883 0.5626 0.71256 0.0
C285 C 0.71408 0.53094 0.72333 0.0
H286 H 0.72083 0.47545 0.71977 0.0
H287 H 0.69693 0.52956 0.66298 0.0
C288 C 0.82013 0.45012 0.62755 0.0
N289 N 0.81599 0.43625 0.64732 0.0
C290 C 0.85319 0.45856 0.62003 0.0
C291 C 0.87739 0.43655 0.65287 0.0
C292 C 0.84386 0.42856 0.65975 0.0
C293 C 0.8823 0.45246 0.63296 0.0
H294 H 0.79756 0.45539 0.6178 0.0
H295 H 0.84031 0.41695 0.67515 0.0
C296 C 0.65254 0.43915 0.6665 0.0
N297 N 0.58922 0.47255 0.66233 0.0
C298 C 0.62372 0.42756 0.67806 0.0
C299 C 0.64917 0.46771 0.65281 0.0
C300 C 0.59192 0.4448 0.67573 0.0
C301 C 0.61694 0.48425 0.65093 0.0
C302 C 0.77248 0.37221 0.63524 0.0
C303 C 0.77702 0.37703 0.61337 0.0
C304 C 0.79635 0.35199 0.64662 0.0
C305 C 0.80568 0.36189 0.60329 0.0
C306 C 0.82467 0.33729 0.63596 0.0
N307 N 0.82873 0.34253 0.6147 0.0
C308 C 0.70496 0.44158 0.59848 0.0
C309 C 0.66048 0.40352 0.61051 0.0
C310 C 0.69371 0.4382 0.57752 0.0
N311 N 0.68876 0.42387 0.61437 0.0
C312 C 0.64816 0.3995 0.58967 0.0
C313 C 0.66546 0.41631 0.57281 0.0
H314 H 0.72771 0.45713 0.60199 0.0
H315 H 0.64834 0.38945 0.62346 0.0
C316 C 0.72281 0.35209 0.71218 0.0
N317 N 0.72295 0.35145 0.69054 0.0
C318 C 0.72626 0.32107 0.72372 0.0
C319 C 0.72768 0.28921 0.69054 0.0
C320 C 0.7245 0.32084 0.67965 0.0
C321 C 0.72953 0.28913 0.71287 0.0
H322 H 0.72182 0.37685 0.72043 0.0
H323 H 0.72484 0.32112 0.66244 0.0
O324 O 0.73922 0.46855 0.64517 0.0
O325 O 0.75758 0.42991 0.68729 0.0
O326 O 0.68384 0.42255 0.6687 0.0
O327 O 0.74514 0.38765 0.64552 0.0
H328 H 0.78795 0.49156 0.6715 0.0
H329 H 0.72655 0.51751 0.61654 0.0
H330 H 0.81581 0.54982 0.66945 0.0
H331 H 0.75569 0.57527 0.61526 0.0
H332 H 0.83743 0.36673 0.72437 0.0
H333 H 0.78687 0.48219 0.70846 0.0
H334 H 0.78953 0.37107 0.69824 0.0
H335 H 0.83526 0.47591 0.73415 0.0
H336 H 0.69699 0.58576 0.68194 0.0
H337 H 0.71987 0.5306 0.7402 0.0
H338 H 0.85586 0.47026 0.60443 0.0
H339 H 0.89908 0.43162 0.66345 0.0
H340 H 0.62594 0.40549 0.68873 0.0
H341 H 0.67114 0.47707 0.64372 0.0
H342 H 0.56938 0.43612 0.68459 0.0
H343 H 0.61397 0.50639 0.64041 0.0
H344 H 0.75883 0.39255 0.60431 0.0
H345 H 0.7932 0.34789 0.66352 0.0
H346 H 0.80963 0.3656 0.5864 0.0
H347 H 0.84345 0.32176 0.6446 0.0
H348 H 0.70756 0.45187 0.56504 0.0
H349 H 0.62645 0.38218 0.58667 0.0
H350 H 0.72715 0.32214 0.74093 0.0
H351 H 0.73037 0.26527 0.68153 0.0
Li352 Li 0.54688 0.28116 0.32664 0.0
Li353 Li 0.58213 0.29788 0.35693 0.0
Li354 Li 0.60888 0.27003 0.32355 0.0
Li355 Li 0.57034 0.23608 0.34914 0.0
C356 C 0.57034 0.34482 0.3178 0.0
N357 N 0.53865 0.40151 0.29886 0.0
C358 C 0.54362 0.36247 0.32834 0.0
C359 C 0.58119 0.35609 0.29772 0.0
C360 C 0.52782 0.39102 0.31845 0.0
C361 C 0.56479 0.38482 0.2884 0.0
C362 C 0.51796 0.27858 0.37457 0.0
C363 C 0.50652 0.26857 0.4118 0.0
N364 N 0.47873 0.29046 0.41069 0.0
C365 C 0.48914 0.30079 0.37374 0.0
C366 C 0.52661 0.26214 0.3937 0.0
C367 C 0.46968 0.30652 0.3922 0.0
C368 C 0.47676 0.27129 0.31976 0.0
N369 N 0.50425 0.28844 0.31104 0.0
C370 C 0.46981 0.30378 0.28067 0.0
C371 C 0.50138 0.30459 0.29183 0.0
C372 C 0.44108 0.28579 0.28924 0.0
C373 C 0.44497 0.26966 0.30917 0.0
H374 H 0.47999 0.25737 0.33458 0.0
H375 H 0.5238 0.31689 0.28472 0.0
C376 C 0.62582 0.3276 0.3873 0.0
N377 N 0.59223 0.32777 0.38057 0.0
C378 C 0.63468 0.34197 0.40696 0.0
C379 C 0.57467 0.35878 0.41182 0.0
C380 C 0.56706 0.34443 0.3919 0.0
C381 C 0.60867 0.35651 0.41997 0.0
H382 H 0.6455 0.31472 0.37784 0.0
H383 H 0.54074 0.34521 0.38602 0.0
C384 C 0.55309 0.22856 0.29972 0.0
N385 N 0.51512 0.21341 0.2636 0.0
C386 C 0.52473 0.20583 0.30087 0.0
C387 C 0.5624 0.24333 0.2802 0.0
C388 C 0.50577 0.19859 0.28242 0.0
C389 C 0.54283 0.23537 0.26211 0.0
C390 C 0.63607 0.2391 0.3678 0.0
C391 C 0.66384 0.21965 0.35972 0.0
C392 C 0.62906 0.23845 0.38962 0.0
C393 C 0.68385 0.19942 0.37359 0.0
C394 C 0.64966 0.21791 0.40297 0.0
N395 N 0.67638 0.19895 0.39474 0.0
C396 C 0.67092 0.29373 0.30317 0.0
C397 C 0.65759 0.23378 0.29887 0.0
C398 C 0.70213 0.28949 0.29199 0.0
N399 N 0.6496 0.26597 0.30649 0.0
C400 C 0.68857 0.2283 0.28775 0.0
C401 C 0.71157 0.2563 0.28428 0.0
H402 H 0.66393 0.31905 0.30948 0.0
H403 H 0.64027 0.21211 0.30197 0.0
C404 C 0.52514 0.1867 0.36477 0.0
N405 N 0.55947 0.19182 0.36073 0.0
C406 C 0.51328 0.1544 0.37181 0.0
C407 C 0.57238 0.13293 0.37036 0.0
C408 C 0.58314 0.16583 0.36337 0.0
C409 C 0.53692 0.12681 0.37435 0.0
H410 H 0.50675 0.20753 0.36199 0.0
H411 H 0.61011 0.17017 0.35939 0.0
O412 O 0.58598 0.31678 0.32717 0.0
O413 O 0.53728 0.2727 0.35663 0.0
O414 O 0.57123 0.23692 0.3177 0.0
O415 O 0.61623 0.25906 0.35444 0.0
H416 H 0.53503 0.35401 0.34391 0.0
H417 H 0.60191 0.34265 0.28941 0.0
H418 H 0.50696 0.40484 0.32636 0.0
H419 H 0.57279 0.3938 0.27283 0.0
H420 H 0.51298 0.25608 0.42673 0.0
H421 H 0.4821 0.31378 0.35907 0.0
H422 H 0.54842 0.24443 0.39454 0.0
H423 H 0.44744 0.32379 0.39182 0.0
H424 H 0.46812 0.31666 0.26538 0.0
H425 H 0.4241 0.25461 0.31621 0.0
H426 H 0.66148 0.3406 0.41219 0.0
H427 H 0.55372 0.36983 0.42115 0.0
H428 H 0.51718 0.19429 0.3159 0.0
H429 H 0.5842 0.26113 0.27912 0.0
H430 H 0.48356 0.1813 0.28309 0.0
H431 H 0.54955 0.2468 0.24692 0.0
H432 H 0.66981 0.22003 0.34291 0.0
H433 H 0.60811 0.25383 0.39622 0.0
H434 H 0.70531 0.1841 0.36754 0.0
H435 H 0.64448 0.21711 0.41988 0.0
H436 H 0.71867 0.31198 0.28944 0.0
H437 H 0.69483 0.20215 0.28248 0.0
H438 H 0.48576 0.15086 0.3748 0.0
H439 H 0.59134 0.11215 0.37172 0.0
Li440 Li 0.23565 0.10657 0.82872 0.0
Li441 Li 0.21223 0.07812 0.86127 0.0
Li442 Li 0.27263 0.07437 0.85237 0.0
Li443 Li 0.23193 0.04259 0.83129 0.0
C444 C 0.27084 0.13829 0.86687 0.0
N445 N 0.32328 0.17968 0.88319 0.0
C446 C 0.27345 0.14359 0.88881 0.0
C447 C 0.29483 0.15413 0.85322 0.0
C448 C 0.30017 0.16458 0.89676 0.0
C449 C 0.32117 0.17494 0.86179 0.0
C450 C 0.16345 0.09725 0.82918 0.0
C451 C 0.10868 0.11015 0.81222 0.0
N452 N 0.10573 0.13945 0.8243 0.0
C453 C 0.15989 0.12747 0.84142 0.0
C454 C 0.13769 0.08849 0.81444 0.0
C455 C 0.13051 0.14846 0.83873 0.0
C456 C 0.24888 0.146 0.79131 0.0
N457 N 0.23465 0.14739 0.8111 0.0
C458 C 0.22764 0.20929 0.80826 0.0
C459 C 0.2239 0.17819 0.81965 0.0
C460 C 0.24342 0.2088 0.78812 0.0
C461 C 0.25377 0.17661 0.77953 0.0
H462 H 0.25754 0.12128 0.78498 0.0
H463 H 0.21379 0.17889 0.83568 0.0
C464 C 0.20413 0.07565 0.90394 0.0
N465 N 0.18411 0.0802 0.88635 0.0
C466 C 0.18937 0.07613 0.92415 0.0
C467 C 0.13316 0.08587 0.908 0.0
C468 C 0.14906 0.08463 0.88792 0.0
C469 C 0.1535 0.08155 0.92641 0.0
H470 H 0.23183 0.07165 0.9022 0.0
H471 H 0.13339 0.08714 0.87374 0.0
C472 C 0.29661 0.04985 0.81287 0.0
N473 N 0.34672 0.00556 0.79649 0.0
C474 C 0.30919 0.02203 0.82505 0.0
C475 C 0.30962 0.05511 0.79234 0.0
C476 C 0.33449 0.99995 0.8165 0.0
C477 C 0.33492 0.03245 0.78435 0.0
C478 C 0.22343 0.00926 0.87018 0.0
C479 C 0.23822 0.9874 0.88551 0.0
C480 C 0.18924 0.0034 0.86346 0.0
C481 C 0.21859 0.95991 0.89382 0.0
C482 C 0.17048 0.97563 0.87216 0.0
N483 N 0.18542 0.95464 0.88703 0.0
C484 C 0.31947 0.05875 0.88501 0.0
C485 C 0.34595 0.08173 0.85394 0.0
C486 C 0.35195 0.05173 0.89392 0.0
N487 N 0.31718 0.07252 0.86515 0.0
C488 C 0.37892 0.0748 0.86211 0.0
C489 C 0.38224 0.05865 0.88212 0.0
H490 H 0.29602 0.05201 0.89358 0.0
H491 H 0.34325 0.09279 0.83819 0.0
C492 C 0.21175 0.99821 0.79629 0.0
N493 N 0.22711 0.99943 0.81577 0.0
C494 C 0.2121 0.96719 0.78441 0.0
C495 C 0.24364 0.9394 0.81298 0.0
C496 C 0.24263 0.97069 0.82422 0.0
C497 C 0.22851 0.93726 0.7927 0.0
H498 H 0.19994 0.0215 0.78976 0.0
H499 H 0.25552 0.97222 0.83944 0.0
O500 O 0.24537 0.11719 0.8588 0.0
O501 O 0.19219 0.07649 0.83124 0.0
O502 O 0.27162 0.07178 0.82082 0.0
O503 O 0.24234 0.0365 0.86213 0.0
H504 H 0.25507 0.13163 0.89961 0.0
H505 H 0.29351 0.14992 0.83622 0.0
H506 H 0.30254 0.16885 0.91371 0.0
H507 H 0.34003 0.18719 0.85142 0.0
H508 H 0.08853 0.10369 0.80086 0.0
H509 H 0.17939 0.1345 0.85304 0.0
H510 H 0.14015 0.06521 0.80479 0.0
H511 H 0.1274 0.17189 0.84814 0.0
H512 H 0.21977 0.23367 0.81553 0.0
H513 H 0.26596 0.17521 0.76401 0.0
H514 H 0.20604 0.07303 0.93792 0.0
H515 H 0.10532 0.0898 0.90913 0.0
H516 H 0.29955 0.01744 0.84095 0.0
H517 H 0.30029 0.07645 0.78264 0.0
H518 H 0.34437 0.97834 0.82578 0.0
H519 H 0.34516 0.03623 0.76848 0.0
H520 H 0.26462 0.99164 0.89091 0.0
H521 H 0.17725 0.02005 0.85168 0.0
H522 H 0.22973 0.94277 0.90568 0.0
H523 H 0.14402 0.97079 0.8671 0.0
H524 H 0.35325 0.03995 0.90956 0.0
H525 H 0.40139 0.08024 0.85227 0.0
H526 H 0.19989 0.96675 0.76889 0.0
H527 H 0.25735 0.91746 0.81987 0.0
Li528 Li 0.45715 0.7242 0.32906 0.0
Li529 Li 0.42131 0.70764 0.35865 0.0
Li530 Li 0.39509 0.73419 0.32641 0.0
Li531 Li 0.43221 0.76884 0.35067 0.0
C532 C 0.4334 0.6572 0.32361 0.0
N533 N 0.46338 0.59458 0.31198 0.0
C534 C 0.45975 0.64264 0.33608 0.0
C535 C 0.42229 0.64002 0.30522 0.0
C536 C 0.47458 0.61093 0.32993 0.0
C537 C 0.43778 0.60834 0.29961 0.0
C538 C 0.47647 0.73904 0.3799 0.0
C539 C 0.46322 0.7544 0.41623 0.0
N540 N 0.49749 0.7513 0.42127 0.0
C541 C 0.51155 0.73612 0.38542 0.0
C542 C 0.45208 0.74837 0.39541 0.0
C543 C 0.52166 0.74238 0.40643 0.0
C544 C 0.52455 0.74015 0.32018 0.0
N545 N 0.49973 0.7172 0.31384 0.0
C546 C 0.53726 0.69545 0.28648 0.0
C547 C 0.50536 0.69497 0.29731 0.0
C548 C 0.56333 0.71932 0.29257 0.0
C549 C 0.55645 0.7418 0.30973 0.0
H550 H 0.51908 0.75805 0.33305 0.0
H551 H 0.48498 0.67748 0.29219 0.0
C552 C 0.37885 0.67226 0.38755 0.0
N553 N 0.41266 0.67671 0.38193 0.0
C554 C 0.37035 0.65678 0.40697 0.0
C555 C 0.43165 0.64891 0.41398 0.0
C556 C 0.43894 0.66422 0.39428 0.0
C557 C 0.39696 0.64611 0.4209 0.0
H558 H 0.35849 0.68223 0.37735 0.0
H559 H 0.46567 0.66806 0.38949 0.0
C560 C 0.44437 0.7704 0.29881 0.0
N561 N 0.47007 0.77519 0.25785 0.0
C562 C 0.46728 0.79727 0.29336 0.0
C563 C 0.43446 0.74601 0.28342 0.0
C564 C 0.48001 0.79922 0.27257 0.0
C565 C 0.44773 0.74888 0.2628 0.0
C566 C 0.35986 0.76986 0.35822 0.0
C567 C 0.36097 0.80066 0.34631 0.0
C568 C 0.33105 0.76301 0.37112 0.0
C569 C 0.33314 0.82402 0.34743 0.0
C570 C 0.30373 0.78703 0.37182 0.0
N571 N 0.30533 0.81678 0.36005 0.0
C572 C 0.33069 0.71105 0.30843 0.0
C573 C 0.34874 0.76791 0.29861 0.0
C574 C 0.29946 0.71525 0.29724 0.0
N575 N 0.35438 0.73735 0.30903 0.0
C576 C 0.31779 0.77342 0.28753 0.0
C577 C 0.29239 0.74702 0.28678 0.0
H578 H 0.3358 0.68704 0.31694 0.0
H579 H 0.3679 0.78852 0.29943 0.0
C580 C 0.47157 0.82805 0.35423 0.0
N581 N 0.44248 0.81311 0.36237 0.0
C582 C 0.48229 0.86074 0.36125 0.0
C583 C 0.43357 0.86161 0.38561 0.0
C584 C 0.42376 0.82874 0.37807 0.0
C585 C 0.46305 0.87813 0.37702 0.0
H586 H 0.48636 0.81448 0.34219 0.0
H587 H 0.40128 0.81578 0.38472 0.0
O588 O 0.41899 0.6885 0.32909 0.0
O589 O 0.46638 0.73315 0.35933 0.0
O590 O 0.43265 0.76712 0.31927 0.0
O591 O 0.38661 0.74633 0.35722 0.0
H592 H 0.46894 0.65592 0.35018 0.0
H593 H 0.40204 0.65115 0.29535 0.0
H594 H 0.49509 0.59938 0.33938 0.0
H595 H 0.4295 0.59473 0.28541 0.0
H596 H 0.44462 0.76153 0.42839 0.0
H597 H 0.53075 0.72904 0.37358 0.0
H598 H 0.42482 0.75078 0.39148 0.0
H599 H 0.54872 0.74015 0.41093 0.0
H600 H 0.54133 0.67744 0.27345 0.0
H601 H 0.57508 0.76133 0.31473 0.0
H602 H 0.34322 0.65432 0.41133 0.0
H603 H 0.45307 0.64128 0.42414 0.0
H604 H 0.47527 0.81636 0.30504 0.0
H605 H 0.41716 0.72473 0.28744 0.0
H606 H 0.49784 0.81982 0.26814 0.0
H607 H 0.44043 0.73007 0.25077 0.0
H608 H 0.38309 0.80656 0.33631 0.0
H609 H 0.32976 0.73937 0.38051 0.0
H610 H 0.33367 0.84791 0.33826 0.0
H611 H 0.28126 0.78203 0.38172 0.0
H612 H 0.28108 0.69387 0.29687 0.0
H613 H 0.31353 0.79858 0.28015 0.0
H614 H 0.50491 0.87261 0.35397 0.0
H615 H 0.41829 0.87392 0.39798 0.0
Li616 Li 0.76666 0.95991 0.83255 0.0
Li617 Li 0.72537 0.92859 0.85369 0.0
Li618 Li 0.7843 0.92385 0.86341 0.0
Li619 Li 0.76135 0.89315 0.83088 0.0
C620 C 0.77547 0.99421 0.87035 0.0
N621 N 0.81496 0.04951 0.88501 0.0
C622 C 0.76044 0.01975 0.8833 0.0
C623 C 0.81064 0.99682 0.86489 0.0
C624 C 0.78082 0.0475 0.89054 0.0
C625 C 0.83015 0.02495 0.87245 0.0
C626 C 0.6959 0.93809 0.81436 0.0
C627 C 0.64431 0.9226 0.79464 0.0
N628 N 0.63062 0.95457 0.79891 0.0
C629 C 0.68129 0.97077 0.81854 0.0
C630 C 0.67725 0.91375 0.80233 0.0
C631 C 0.64826 0.97861 0.81061 0.0
C632 C 0.79076 0.00409 0.79809 0.0
N633 N 0.77248 0.00226 0.8166 0.0
C634 C 0.75469 0.06178 0.81299 0.0
C635 C 0.75484 0.03041 0.82416 0.0
C636 C 0.77283 0.06456 0.79368 0.0
C637 C 0.79127 0.03519 0.78629 0.0
H638 H 0.80434 0.98126 0.7923 0.0
H639 H 0.73987 0.02828 0.83863 0.0
C640 C 0.67942 0.9526 0.88441 0.0
N641 N 0.68048 0.93337 0.86627 0.0
C642 C 0.64762 0.96192 0.89341 0.0
C643 C 0.61854 0.92966 0.86557 0.0
C644 C 0.65096 0.9205 0.85734 0.0
C645 C 0.61654 0.9516 0.88349 0.0
H646 H 0.70335 0.96155 0.89158 0.0
H647 H 0.65242 0.90424 0.84336 0.0
C648 C 0.83759 0.91099 0.83236 0.0
N649 N 0.90452 0.88515 0.82962 0.0
C650 C 0.84442 0.87623 0.83758 0.0
C651 C 0.86476 0.93263 0.82571 0.0
C652 C 0.87843 0.86363 0.83609 0.0
C653 C 0.89844 0.91908 0.82445 0.0
C654 C 0.724 0.86675 0.87019 0.0
C655 C 0.71933 0.86722 0.89224 0.0
C656 C 0.70075 0.84813 0.8574 0.0
C657 C 0.69131 0.84915 0.90114 0.0
C658 C 0.67309 0.83035 0.86691 0.0
N659 N 0.66897 0.83125 0.8884 0.0
C660 C 0.7922 0.93119 0.90584 0.0
C661 C 0.84417 0.90784 0.89146 0.0
C662 C 0.80501 0.92795 0.92642 0.0
N663 N 0.81143 0.92069 0.88888 0.0
C664 C 0.85808 0.90389 0.91198 0.0
C665 C 0.83798 0.91327 0.92982 0.0
H666 H 0.76623 0.94124 0.90338 0.0
H667 H 0.85917 0.89975 0.87782 0.0
C668 C 0.75291 0.85357 0.79283 0.0
N669 N 0.76248 0.85199 0.81362 0.0
C670 C 0.74833 0.82291 0.78106 0.0
C671 C 0.76582 0.78972 0.81192 0.0
C672 C 0.76924 0.82092 0.8232 0.0
C673 C 0.7543 0.79018 0.79065 0.0
H674 H 0.74743 0.87861 0.78562 0.0
H675 H 0.77623 0.82025 0.83986 0.0
O676 O 0.75566 0.96688 0.86319 0.0
O677 O 0.72817 0.92986 0.82206 0.0
O678 O 0.80445 0.92379 0.83346 0.0
O679 O 0.75082 0.88487 0.86111 0.0
H680 H 0.73324 0.01826 0.88764 0.0
H681 H 0.82284 0.9774 0.85497 0.0
H682 H 0.76948 0.06746 0.90054 0.0
H683 H 0.85737 0.02726 0.86834 0.0
H684 H 0.62956 0.90399 0.78537 0.0
H685 H 0.69492 0.98957 0.82823 0.0
H686 H 0.68784 0.88814 0.79918 0.0
H687 H 0.63658 0.00374 0.81386 0.0
H688 H 0.73945 0.0833 0.81913 0.0
H689 H 0.80577 0.03619 0.77153 0.0
H690 H 0.64745 0.97792 0.9076 0.0
H691 H 0.59542 0.92106 0.85726 0.0
H692 H 0.82381 0.85937 0.84311 0.0
H693 H 0.85984 0.9596 0.82153 0.0
H694 H 0.88412 0.83681 0.84018 0.0
H695 H 0.91973 0.93553 0.81934 0.0
H696 H 0.73703 0.88147 0.90239 0.0
H697 H 0.70363 0.84792 0.84028 0.0
H698 H 0.68731 0.84938 0.91818 0.0
H699 H 0.65479 0.81601 0.85719 0.0
H700 H 0.78888 0.93629 0.9396 0.0
H701 H 0.88363 0.89242 0.91387 0.0
H702 H 0.73895 0.82497 0.76488 0.0
H703 H 0.77168 0.76548 0.82 0.0
H704 H 0.15175 0.09954 0.06172 0.0
H705 H 0.04973 0.13887 0.04568 0.0
H706 H 0.16111 0.08341 0.02478 0.0
H707 H 0.05836 0.12099 0.00885 0.0
H708 H 0.10942 0.13135 0.94194 0.0
H709 H 0.09182 0.13999 0.97888 0.0
H710 H 0.14543 0.04517 0.99661 0.0
H711 H 0.16371 0.03723 0.95978 0.0
C712 C 0.13112 0.10437 0.05036 0.0
C713 C 0.10011 0.12078 0.0567 0.0
C714 C 0.1363 0.09468 0.02917 0.0
C715 C 0.11052 0.10096 0.01373 0.0
C716 C 0.07896 0.11617 0.02022 0.0
C717 C 0.07383 0.12599 0.04144 0.0
C718 C 0.11682 0.11205 0.95369 0.0
C719 C 0.13821 0.08383 0.94805 0.0
C720 C 0.10671 0.11693 0.97489 0.0
C721 C 0.11756 0.0935 0.99085 0.0
C722 C 0.1373 0.06419 0.98488 0.0
C723 C 0.14763 0.05951 0.96376 0.0
H724 H 0.40472 0.59201 0.55598 0.0
H725 H 0.29552 0.59184 0.53982 0.0
H726 H 0.41917 0.60557 0.51887 0.0
H727 H 0.30992 0.6046 0.50294 0.0
H728 H 0.34675 0.6722 0.44727 0.0
H729 H 0.3338 0.65557 0.4837 0.0
H730 H 0.41625 0.57915 0.48195 0.0
H731 H 0.42893 0.59526 0.44508 0.0
C732 C 0.38387 0.59474 0.54451 0.0
C733 C 0.349 0.59074 0.55083 0.0
C734 C 0.39214 0.60219 0.52326 0.0
C735 C 0.36567 0.60622 0.50801 0.0
C736 C 0.33089 0.60195 0.51434 0.0
C737 C 0.32267 0.59428 0.53545 0.0
C738 C 0.36176 0.65135 0.4544 0.0
C739 C 0.38866 0.63482 0.44304 0.0
C740 C 0.35442 0.64195 0.47538 0.0
C741 C 0.37391 0.61596 0.48568 0.0
C742 C 0.40098 0.59951 0.47448 0.0
C743 C 0.40821 0.60875 0.45336 0.0
H744 H 0.84788 0.89739 0.06714 0.0
H745 H 0.94319 0.84817 0.04652 0.0
H746 H 0.83472 0.91301 0.03041 0.0
H747 H 0.93 0.86387 0.00973 0.0
H748 H 0.90348 0.92224 0.94685 0.0
H749 H 0.92159 0.91237 0.98378 0.0
H750 H 0.81752 0.87848 0.99938 0.0
H751 H 0.79965 0.88792 0.96282 0.0
C752 C 0.86612 0.89007 0.05478 0.0
C753 C 0.89641 0.87125 0.05975 0.0
C754 C 0.85857 0.89899 0.03373 0.0
C755 C 0.8811 0.88926 0.01712 0.0
C756 C 0.91224 0.87194 0.02217 0.0
C757 C 0.9198 0.86299 0.04327 0.0
C758 C 0.88461 0.91247 0.95817 0.0
C759 C 0.85 0.90636 0.95193 0.0
C760 C 0.89494 0.90691 0.97931 0.0
C761 C 0.87084 0.89519 0.99459 0.0
C762 C 0.83651 0.88844 0.98817 0.0
C763 C 0.82627 0.89385 0.96716 0.0
H764 H 0.58198 0.41159 0.4431 0.0
H765 H 0.65267 0.32415 0.44788 0.0
H766 H 0.59425 0.42668 0.48018 0.0
H767 H 0.66546 0.3399 0.48447 0.0
H768 H 0.70953 0.40198 0.54011 0.0
H769 H 0.69511 0.38928 0.50319 0.0
H770 H 0.58587 0.40079 0.51754 0.0
H771 H 0.60041 0.41401 0.55472 0.0
C772 C 0.60006 0.39556 0.45198 0.0
C773 C 0.6166 0.36685 0.44232 0.0
C774 C 0.60706 0.40424 0.47322 0.0
C775 C 0.63097 0.38459 0.48516 0.0
C776 C 0.64737 0.3559 0.47556 0.0
C777 C 0.64016 0.34704 0.45448 0.0
C778 C 0.68243 0.4022 0.53538 0.0
C779 C 0.65609 0.40915 0.5503 0.0
C780 C 0.67417 0.39461 0.51427 0.0
C781 C 0.63937 0.39396 0.5075 0.0
C782 C 0.61294 0.40135 0.52231 0.0
C783 C 0.62122 0.40862 0.54357 0.0
H784 H 0.26672 0.28736 0.19943 0.0
H785 H 0.23845 0.21274 0.24792 0.0
H786 H 0.32149 0.29891 0.21791 0.0
H787 H 0.29336 0.22417 0.26637 0.0
H788 H 0.37454 0.28584 0.30512 0.0
H789 H 0.32046 0.27494 0.28604 0.0
H790 H 0.37739 0.26731 0.22704 0.0
H791 H 0.43182 0.27713 0.24615 0.0
C792 C 0.27222 0.27346 0.21406 0.0
C793 C 0.24823 0.24922 0.22227 0.0
C794 C 0.30367 0.27989 0.22454 0.0
C795 C 0.31167 0.26255 0.24362 0.0
C796 C 0.28776 0.23819 0.25179 0.0
C797 C 0.25648 0.23142 0.24115 0.0
C798 C 0.3757 0.28158 0.2881 0.0
C799 C 0.40775 0.28217 0.27725 0.0
C800 C 0.34463 0.27536 0.27718 0.0
C801 C 0.3447 0.27001 0.25508 0.0
C802 C 0.3765 0.27158 0.24407 0.0
C803 C 0.40769 0.27742 0.25504 0.0
H804 H 0.22679 0.72291 0.74416 0.0
H805 H 0.30466 0.77647 0.70698 0.0
H806 H 0.21291 0.77712 0.76249 0.0
H807 H 0.29153 0.83071 0.7257 0.0
H808 H 0.24025 0.92962 0.74978 0.0
H809 H 0.24938 0.87563 0.73002 0.0
H810 H 0.23494 0.8164 0.78789 0.0
H811 H 0.22374 0.87002 0.80726 0.0
C812 C 0.24131 0.74622 0.74013 0.0
C813 C 0.26699 0.74535 0.72422 0.0
C814 C 0.23336 0.77738 0.75064 0.0
C815 C 0.25109 0.80847 0.74566 0.0
C816 C 0.27686 0.80752 0.72974 0.0
C817 C 0.28458 0.77637 0.71908 0.0
C818 C 0.23829 0.90504 0.75819 0.0
C819 C 0.23141 0.9043 0.78017 0.0
C820 C 0.24408 0.87404 0.74692 0.0
C821 C 0.24326 0.8415 0.75734 0.0
C822 C 0.23551 0.8408 0.77921 0.0
C823 C 0.2295 0.87171 0.79043 0.0
H824 H 0.57556 0.71076 0.24966 0.0
H825 H 0.62804 0.73381 0.30889 0.0
H826 H 0.63038 0.71856 0.23055 0.0
H827 H 0.68213 0.74311 0.28956 0.0
H828 H 0.75816 0.79873 0.24301 0.0
H829 H 0.70303 0.78854 0.26158 0.0
H830 H 0.692 0.68973 0.22931 0.0
H831 H 0.7473 0.69976 0.21091 0.0
C832 C 0.5987 0.71711 0.25867 0.0
C833 C 0.59709 0.72188 0.28088 0.0
C834 C 0.63006 0.7218 0.24767 0.0
C835 C 0.66037 0.73183 0.25856 0.0
C836 C 0.659 0.73599 0.28072 0.0
C837 C 0.62788 0.73077 0.29176 0.0
C838 C 0.74385 0.77494 0.23984 0.0
C839 C 0.75702 0.74998 0.2256 0.0
C840 C 0.71247 0.76901 0.25054 0.0
C841 C 0.69334 0.7383 0.24691 0.0
C842 C 0.70616 0.71366 0.23234 0.0
C843 C 0.73785 0.71931 0.22193 0.0
H844 H 0.70109 0.22437 0.70635 0.0
H845 H 0.77502 0.27933 0.74572 0.0
H846 H 0.71418 0.17026 0.72521 0.0
H847 H 0.78866 0.22526 0.7643 0.0
H848 H 0.77471 0.13163 0.80865 0.0
H849 H 0.76458 0.18528 0.78902 0.0
H850 H 0.75783 0.12645 0.7305 0.0
H851 H 0.76617 0.0724 0.75041 0.0
C852 C 0.7203 0.22483 0.71895 0.0
C853 C 0.7368 0.25621 0.72464 0.0
C854 C 0.72798 0.19376 0.7297 0.0
C855 C 0.75255 0.19326 0.74631 0.0
C856 C 0.76917 0.22468 0.75187 0.0
C857 C 0.76132 0.25575 0.74123 0.0
C858 C 0.77097 0.13006 0.7916 0.0
C859 C 0.77092 0.09757 0.78117 0.0
C860 C 0.76554 0.16096 0.78027 0.0
C861 C 0.76016 0.16033 0.75813 0.0
C862 C 0.76129 0.12793 0.74757 0.0
C863 C 0.7666 0.09694 0.75895 0.0
H864 H 0.77488 0.28656 0.2928 0.0
H865 H 0.72524 0.21294 0.25048 0.0
H866 H 0.83001 0.27715 0.27465 0.0
H867 H 0.78075 0.20195 0.23322 0.0
H868 H 0.87635 0.21879 0.19167 0.0
H869 H 0.82136 0.22788 0.20987 0.0
H870 H 0.87569 0.23589 0.26987 0.0
H871 H 0.93102 0.22885 0.25142 0.0
C872 C 0.77563 0.26841 0.27961 0.0
C873 C 0.74541 0.25063 0.27312 0.0
C874 C 0.80747 0.26257 0.26939 0.0
C875 C 0.81003 0.23866 0.25247 0.0
C876 C 0.77981 0.22085 0.24601 0.0
C877 C 0.74795 0.22684 0.25613 0.0
C878 C 0.87667 0.22278 0.20873 0.0
C879 C 0.90829 0.22331 0.22001 0.0
C880 C 0.84498 0.22755 0.21924 0.0
C881 C 0.8439 0.2327 0.24139 0.0
C882 C 0.87547 0.23252 0.25276 0.0
C883 C 0.90724 0.22794 0.24221 0.0
H884 H 0.32537 0.37665 0.70828 0.0
H885 H 0.24689 0.42575 0.74744 0.0
H886 H 0.31286 0.32098 0.72494 0.0
H887 H 0.23682 0.37089 0.76548 0.0
H888 H 0.19824 0.26185 0.7794 0.0
H889 H 0.21062 0.31704 0.76164 0.0
H890 H 0.31842 0.28647 0.75489 0.0
H891 H 0.30522 0.23061 0.77159 0.0
C892 C 0.30562 0.37579 0.72054 0.0
C893 C 0.28707 0.40604 0.72629 0.0
C894 C 0.29879 0.34375 0.7304 0.0
C895 C 0.27362 0.34104 0.7466 0.0
C896 C 0.25585 0.37151 0.7528 0.0
C897 C 0.26222 0.40339 0.74268 0.0
C898 C 0.22449 0.267 0.77397 0.0
C899 C 0.25072 0.24195 0.77675 0.0
C900 C 0.23177 0.29879 0.76394 0.0
C901 C 0.26568 0.30666 0.75685 0.0
C902 C 0.29187 0.28136 0.75971 0.0
C903 C 0.2844 0.24931 0.76936 0.0
H904 H 0.22729 0.72272 0.2976 0.0
H905 H 0.28048 0.78531 0.25049 0.0
H906 H 0.17246 0.73295 0.27941 0.0
H907 H 0.22542 0.79795 0.23344 0.0
H908 H 0.12815 0.78449 0.19383 0.0
H909 H 0.18267 0.77408 0.21203 0.0
H910 H 0.12885 0.77415 0.27245 0.0
H911 H 0.07371 0.78173 0.25398 0.0
C912 C 0.22742 0.73865 0.28337 0.0
C913 C 0.25861 0.75306 0.27558 0.0
C914 C 0.19572 0.74509 0.27312 0.0
C915 C 0.1942 0.76647 0.25492 0.0
C916 C 0.22539 0.78096 0.2472 0.0
C917 C 0.2571 0.77412 0.25725 0.0
C918 C 0.12776 0.78191 0.21099 0.0
C919 C 0.09625 0.78362 0.22235 0.0
C920 C 0.15929 0.77645 0.22152 0.0
C921 C 0.16045 0.77316 0.24381 0.0
C922 C 0.12906 0.77591 0.25525 0.0
C923 C 0.09738 0.7809 0.24466 0.0
H924 H 0.6759 0.58666 0.74821 0.0
H925 H 0.75385 0.61412 0.70185 0.0
H926 H 0.68524 0.64216 0.76643 0.0
H927 H 0.76521 0.66845 0.72063 0.0
H928 H 0.76052 0.77692 0.7476 0.0
H929 H 0.74679 0.72368 0.72863 0.0
H930 H 0.72168 0.67311 0.78821 0.0
H931 H 0.7317 0.72729 0.80686 0.0
C932 C 0.69522 0.6046 0.74206 0.0
C933 C 0.71397 0.59636 0.7236 0.0
C934 C 0.7009 0.63633 0.75257 0.0
C935 C 0.72615 0.66017 0.74516 0.0
C936 C 0.74499 0.65148 0.72667 0.0
C937 C 0.7387 0.62017 0.71592 0.0
C938 C 0.75142 0.75473 0.75669 0.0
C939 C 0.74736 0.75685 0.77892 0.0
C940 C 0.7441 0.72375 0.74577 0.0
C941 C 0.73318 0.69361 0.75676 0.0
C942 C 0.72941 0.69567 0.779 0.0
C943 C 0.73598 0.72684 0.78985 0.0
H944 H 0.00196 0.5814 0.16014 0.0
H945 H 0.97226 0.58677 0.09392 0.0
H946 H 0.0241 0.52283 0.15482 0.0
H947 H 0.99474 0.5275 0.0885 0.0
H948 H 1.00021 0.40555 0.09938 0.0
H949 H 0.98197 0.46658 0.09925 0.0
H950 H 0.07185 0.49369 0.13702 0.0
H951 H 0.08899 0.43286 0.13823 0.0
C952 C 0.0006 0.57018 0.14434 0.0
C953 C 0.98578 0.58884 0.12739 0.0
C954 C 0.01338 0.53661 0.14127 0.0
C955 C 0.01171 0.52076 0.12115 0.0
C956 C 0.99636 0.5391 0.10419 0.0
C957 C 0.98347 0.57291 0.10729 0.0
C958 C 0.01615 0.42458 0.10757 0.0
C959 C 0.0458 0.41414 0.11908 0.0
C960 C 0.0059 0.45959 0.10728 0.0
C961 C 0.02517 0.4848 0.11843 0.0
C962 C 0.05608 0.47472 0.12864 0.0
C963 C 0.06618 0.43982 0.12906 0.0
H964 H 0.89898 0.51423 0.61379 0.0
H965 H 0.94467 0.41913 0.63797 0.0
H966 H 0.95687 0.53809 0.60766 0.0
H967 H 0.00247 0.44356 0.63278 0.0
H968 H 0.10434 0.48769 0.61389 0.0
H969 H 0.04641 0.4637 0.60818 0.0
H970 H 0.00101 0.55935 0.63179 0.0
H971 H 0.05886 0.58389 0.63655 0.0
C972 C 0.92137 0.49815 0.61742 0.0
C973 C 0.91727 0.4649 0.62656 0.0
C974 C 0.95453 0.51199 0.61413 0.0
C975 C 0.98425 0.4929 0.61994 0.0
C976 C 0.98014 0.45888 0.62796 0.0
C977 C 0.94701 0.44502 0.6312 0.0
C978 C 0.08199 0.50398 0.61726 0.0
C979 C 0.08616 0.53759 0.62587 0.0
C980 C 0.04881 0.49007 0.61421 0.0
C981 C 0.01913 0.50944 0.61976 0.0
C982 C 0.0233 0.54379 0.6272 0.0
C983 C 0.05647 0.55773 0.63019 0.0
H984 H 0.47994 0.0944 0.35802 0.0
H985 H 0.56532 0.07874 0.40168 0.0
H986 H 0.46071 0.03497 0.36397 0.0
H987 H 0.54581 0.01877 0.40781 0.0
H988 H 0.52836 0.90437 0.38366 0.0
H989 H 0.5447 0.96544 0.38715 0.0
H990 H 0.43608 0.99436 0.389 0.0
H991 H 0.41975 0.93342 0.38439 0.0
C992 C 0.49416 0.07847 0.36929 0.0
C993 C 0.52414 0.09128 0.3794 0.0
C994 C 0.48305 0.04435 0.37276 0.0
C995 C 0.50161 0.02214 0.38645 0.0
C996 C 0.53114 0.03517 0.39702 0.0
C997 C 0.54234 0.06943 0.3935 0.0
C998 C 0.50797 0.92376 0.38496 0.0
C999 C 0.47278 0.91413 0.3833 0.0
C1000 C 0.51734 0.95874 0.38724 0.0
C1001 C 0.49168 0.98482 0.38804 0.0
C1002 C 0.45646 0.97491 0.38802 0.0
C1003 C 0.44709 0.93993 0.38562 0.0
H1004 H 0.39689 0.99784 0.90325 0.0
H1005 H 0.44585 0.09012 0.87733 0.0
H1006 H 0.45371 0.97273 0.91026 0.0
H1007 H 0.50255 0.06389 0.8828 0.0
H1008 H 0.60321 0.01725 0.89874 0.0
H1009 H 0.54703 0.04391 0.90525 0.0
H1010 H 0.49632 0.94702 0.88849 0.0
H1011 H 0.55261 0.91952 0.88369 0.0
C1012 C 0.41973 0.01312 0.89938 0.0
C1013 C 0.41672 0.04589 0.88945 0.0
C1014 C 0.45238 0.99842 0.90312 0.0
C1015 C 0.48278 0.01592 0.89676 0.0
C1016 C 0.4798 0.04963 0.88806 0.0
C1017 C 0.44718 0.06452 0.88459 0.0
C1018 C 0.5802 0.00118 0.89716 0.0
C1019 C 0.58255 0.96624 0.89041 0.0
C1020 C 0.54785 0.01672 0.90058 0.0
C1021 C 0.51704 0.9979 0.89702 0.0
C1022 C 0.51943 0.96238 0.89152 0.0
C1023 C 0.5518 0.94669 0.88841 0.0
loop_
_geom_bond_atom_site_label_1
_geom_bond_atom_site_label_2
_geom_bond_distance
_geom_bond_site_symmetry_2
_ccdc_geom_bond_type
Li0 N17 1.990 . S
Li0 O60 1.956 . S
Li0 O61 1.970 . S
Li0 O62 1.961 . S
Li1 N25 1.990 . S
Li1 O60 1.970 . S
Li1 O61 1.956 . S
Li1 O63 1.961 . S
Li2 N47 1.990 . S
Li2 O60 1.961 . S
Li2 O62 1.956 . S
Li2 O63 1.970 . S
Li3 N53 1.990 1_455 S
Li3 O61 1.961 . S
Li3 O62 1.970 . S
Li3 O63 1.956 . S
C4 C6 1.348 . S
C4 C7 1.356 . S
C4 O60 1.325 . S
N5 C8 1.314 . S
N5 C9 1.279 . S
C6 C4 1.348 . S
C6 C8 1.353 . S
C6 H64 0.929 . S
C7 C4 1.356 . S
C7 C9 1.358 . S
C7 H65 0.930 . S
C8 N5 1.314 . S
C8 C6 1.353 . S
C8 H66 0.930 . S
C9 N5 1.279 . S
C9 C7 1.358 . S
C9 H67 0.930 . S
C10 C13 1.348 . S
C10 C14 1.356 . S
C10 O61 1.325 . S
C11 N12 1.279 . S
C11 C14 1.358 . S
C11 H68 0.930 . S
N12 C11 1.279 . S
N12 C15 1.314 . S
C13 C10 1.348 . S
C13 C15 1.353 . S
C13 H69 0.929 . S
C14 C10 1.356 . S
C14 C11 1.358 . S
C14 H70 0.930 . S
C15 N12 1.314 . S
C15 C13 1.353 . S
C15 H71 0.930 . S
C16 N17 1.314 . S
C16 C21 1.353 . S
C16 H22 0.930 . S
N17 Li0 1.990 . S
N17 C16 1.314 . S
N17 C19 1.279 . S
C18 C19 1.358 . S
C18 C20 1.356 . S
C18 H72 0.930 . S
C19 N17 1.279 . S
C19 C18 1.358 . S
C19 H23 0.930 . S
C20 C18 1.356 . S
C20 C21 1.348 . S
C21 C16 1.353 . S
C21 C20 1.348 . S
C21 H73 0.929 1_455 S
H22 C16 0.930 . S
H23 C19 0.930 . S
C24 N25 1.314 . S
C24 C26 1.353 . S
C24 H30 0.930 . S
N25 Li1 1.990 . S
N25 C24 1.314 . S
N25 C28 1.279 . S
C26 C24 1.353 . S
C26 C29 1.348 . S
C26 H74 0.929 . S
C27 C28 1.358 . S
C27 C29 1.356 . S
C27 H75 0.930 . S
C28 N25 1.279 . S
C28 C27 1.358 . S
C28 H31 0.930 . S
C29 C26 1.348 . S
C29 C27 1.356 . S
H30 C24 0.930 . S
H31 C28 0.930 . S
C32 C34 1.348 . S
C32 C35 1.356 . S
C32 O62 1.325 1_655 S
N33 C36 1.314 . S
N33 C37 1.279 . S
C34 C32 1.348 . S
C34 C36 1.353 . S
C34 H76 0.929 . S
C35 C32 1.356 . S
C35 C37 1.358 . S
C35 H77 0.930 1_655 S
C36 N33 1.314 . S
C36 C34 1.353 . S
C36 H78 0.930 . S
C37 N33 1.279 . S
C37 C35 1.358 . S
C37 H79 0.930 . S
C38 C39 1.348 . S
C38 C40 1.356 . S
C38 O63 1.325 . S
C39 C38 1.348 . S
C39 C41 1.353 . S
C39 H80 0.929 . S
C40 C38 1.356 . S
C40 C42 1.358 . S
C40 H81 0.930 . S
C41 C39 1.353 . S
C41 N43 1.314 . S
C41 H82 0.930 . S
C42 C40 1.358 . S
C42 N43 1.279 . S
C42 H83 0.930 . S
N43 C41 1.314 . S
N43 C42 1.279 . S
C44 C46 1.353 . S
C44 N47 1.314 . S
C44 H50 0.930 . S
C45 N47 1.279 . S
C45 C48 1.358 . S
C45 H51 0.930 . S
C46 C44 1.353 . S
C46 C49 1.348 . S
C46 H84 0.929 . S
N47 Li2 1.990 . S
N47 C44 1.314 . S
N47 C45 1.279 . S
C48 C45 1.358 . S
C48 C49 1.356 . S
C48 H85 0.930 . S
C49 C46 1.348 . S
C49 C48 1.356 . S
H50 C44 0.930 . S
H51 C45 0.930 . S
C52 N53 1.314 . S
C52 C54 1.353 . S
C52 H58 0.930 . S
N53 Li3 1.990 1_655 S
N53 C52 1.314 . S
N53 C56 1.279 . S
C54 C52 1.353 . S
C54 C57 1.348 . S
C54 H86 0.929 . S
C55 C56 1.358 . S
C55 C57 1.356 . S
C55 H87 0.930 . S
C56 N53 1.279 . S
C56 C55 1.358 . S
C56 H59 0.930 . S
C57 C54 1.348 . S
C57 C55 1.356 . S
H58 C52 0.930 . S
H59 C56 0.930 . S
O60 Li0 1.956 . S
O60 Li1 1.970 . S
O60 Li2 1.961 . S
O60 C4 1.325 . S
O61 Li0 1.970 . S
O61 Li1 1.956 . S
O61 Li3 1.961 . S
O61 C10 1.325 . S
O62 Li0 1.961 . S
O62 Li2 1.956 . S
O62 Li3 1.970 . S
O62 C32 1.325 1_455 S
O63 Li1 1.961 . S
O63 Li2 1.970 . S
O63 Li3 1.956 . S
O63 C38 1.325 . S
H64 C6 0.929 . S
H65 C7 0.930 . S
H66 C8 0.930 . S
H67 C9 0.930 . S
H68 C11 0.930 . S
H69 C13 0.929 . S
H70 C14 0.930 . S
H71 C15 0.930 . S
H72 C18 0.930 . S
H73 C21 0.929 1_655 S
H74 C26 0.929 . S
H75 C27 0.930 . S
H76 C34 0.929 . S
H77 C35 0.930 1_455 S
H78 C36 0.930 . S
H79 C37 0.930 . S
H80 C39 0.929 . S
H81 C40 0.930 . S
H82 C41 0.930 . S
H83 C42 0.930 . S
H84 C46 0.929 . S
H85 C48 0.930 . S
H86 C54 0.929 . S
H87 C55 0.930 . S
Li88 N105 1.990 . S
Li88 O148 1.956 . S
Li88 O149 1.970 . S
Li88 O150 1.961 . S
Li89 N113 1.990 . S
Li89 O148 1.970 . S
Li89 O149 1.956 . S
Li89 O151 1.961 . S
Li90 N135 1.990 . S
Li90 O148 1.961 . S
Li90 O150 1.956 . S
Li90 O151 1.970 . S
Li91 N141 1.990 . S
Li91 O149 1.961 . S
Li91 O150 1.970 . S
Li91 O151 1.956 . S
C92 C94 1.348 . S
C92 C95 1.356 . S
C92 O148 1.325 . S
N93 C96 1.314 . S
N93 C97 1.279 . S
C94 C92 1.348 . S
C94 C96 1.353 . S
C94 H152 0.929 . S
C95 C92 1.356 . S
C95 C97 1.358 . S
C95 H153 0.930 . S
C96 N93 1.314 . S
C96 C94 1.353 . S
C96 H154 0.930 . S
C97 N93 1.279 . S
C97 C95 1.358 . S
C97 H155 0.930 . S
C98 C101 1.348 . S
C98 C102 1.356 . S
C98 O149 1.325 . S
C99 N100 1.279 . S
C99 C102 1.358 . S
C99 H156 0.930 . S
N100 C99 1.279 . S
N100 C103 1.314 . S
C101 C98 1.348 . S
C101 C103 1.353 . S
C101 H157 0.929 . S
C102 C98 1.356 . S
C102 C99 1.358 . S
C102 H158 0.930 . S
C103 N100 1.314 . S
C103 C101 1.353 . S
C103 H159 0.930 . S
C104 N105 1.314 . S
C104 C109 1.353 . S
C104 H110 0.930 . S
N105 Li88 1.990 . S
N105 C104 1.314 . S
N105 C107 1.279 . S
C106 C107 1.358 . S
C106 C108 1.356 . S
C106 H160 0.930 . S
C107 N105 1.279 . S
C107 C106 1.358 . S
C107 H111 0.930 . S
C108 C106 1.356 . S
C108 C109 1.348 . S
C109 C104 1.353 . S
C109 C108 1.348 . S
C109 H161 0.929 . S
H110 C104 0.930 . S
H111 C107 0.930 . S
C112 N113 1.314 . S
C112 C114 1.353 . S
C112 H118 0.930 . S
N113 Li89 1.990 . S
N113 C112 1.314 . S
N113 C116 1.279 . S
C114 C112 1.353 . S
C114 C117 1.348 . S
C114 H162 0.929 . S
C115 C116 1.358 . S
C115 C117 1.356 . S
C115 H163 0.930 . S
C116 N113 1.279 . S
C116 C115 1.358 . S
C116 H119 0.930 . S
C117 C114 1.348 . S
C117 C115 1.356 . S
H118 C112 0.930 . S
H119 C116 0.930 . S
C120 C122 1.348 . S
C120 C123 1.356 . S
C120 O150 1.325 . S
N121 C124 1.314 . S
N121 C125 1.279 . S
C122 C120 1.348 . S
C122 C124 1.353 . S
C122 H164 0.929 . S
C123 C120 1.356 . S
C123 C125 1.358 . S
C123 H165 0.930 . S
C124 N121 1.314 . S
C124 C122 1.353 . S
C124 H166 0.930 . S
C125 N121 1.279 . S
C125 C123 1.358 . S
C125 H167 0.930 . S
C126 C127 1.348 . S
C126 C128 1.356 . S
C126 O151 1.325 . S
C127 C126 1.348 . S
C127 C129 1.353 . S
C127 H168 0.929 . S
C128 C126 1.356 . S
C128 C130 1.358 . S
C128 H169 0.930 . S
C129 C127 1.353 . S
C129 N131 1.314 . S
C129 H170 0.930 . S
C130 C128 1.358 . S
C130 N131 1.279 . S
C130 H171 0.930 . S
N131 C129 1.314 . S
N131 C130 1.279 . S
C132 C134 1.353 . S
C132 N135 1.314 . S
C132 H138 0.930 . S
C133 N135 1.279 . S
C133 C136 1.358 . S
C133 H139 0.930 . S
C134 C132 1.353 . S
C134 C137 1.348 . S
C134 H172 0.929 . S
N135 Li90 1.990 . S
N135 C132 1.314 . S
N135 C133 1.279 . S
C136 C133 1.358 . S
C136 C137 1.356 . S
C136 H173 0.930 . S
C137 C134 1.348 . S
C137 C136 1.356 . S
H138 C132 0.930 . S
H139 C133 0.930 . S
C140 N141 1.314 . S
C140 C142 1.353 . S
C140 H146 0.930 . S
N141 Li91 1.990 . S
N141 C140 1.314 . S
N141 C144 1.279 . S
C142 C140 1.353 . S
C142 C145 1.348 . S
C142 H174 0.929 . S
C143 C144 1.358 . S
C143 C145 1.356 . S
C143 H175 0.930 . S
C144 N141 1.279 . S
C144 C143 1.358 . S
C144 H147 0.930 . S
C145 C142 1.348 . S
C145 C143 1.356 . S
H146 C140 0.930 . S
H147 C144 0.930 . S
O148 Li88 1.956 . S
O148 Li89 1.970 . S
O148 Li90 1.961 . S
O148 C92 1.325 . S
O149 Li88 1.970 . S
O149 Li89 1.956 . S
O149 Li91 1.961 . S
O149 C98 1.325 . S
O150 Li88 1.961 . S
O150 Li90 1.956 . S
O150 Li91 1.970 . S
O150 C120 1.325 . S
O151 Li89 1.961 . S
O151 Li90 1.970 . S
O151 Li91 1.956 . S
O151 C126 1.325 . S
H152 C94 0.929 . S
H153 C95 0.930 . S
H154 C96 0.930 . S
H155 C97 0.930 . S
H156 C99 0.930 . S
H157 C101 0.929 . S
H158 C102 0.930 . S
H159 C103 0.930 . S
H160 C106 0.930 . S
H161 C109 0.929 . S
H162 C114 0.929 . S
H163 C115 0.930 . S
H164 C122 0.929 . S
H165 C123 0.930 . S
H166 C124 0.930 . S
H167 C125 0.930 . S
H168 C127 0.929 . S
H169 C128 0.930 . S
H170 C129 0.930 . S
H171 C130 0.930 . S
H172 C134 0.929 . S
H173 C136 0.930 . S
H174 C142 0.929 . S
H175 C143 0.930 . S
Li176 N193 1.990 . S
Li176 O236 1.956 . S
Li176 O237 1.970 . S
Li176 O238 1.961 . S
Li177 N201 1.990 . S
Li177 O236 1.970 . S
Li177 O237 1.956 . S
Li177 O239 1.961 . S
Li178 N223 1.990 1_655 S
Li178 O236 1.961 . S
Li178 O238 1.956 . S
Li178 O239 1.970 . S
Li179 N229 1.990 . S
Li179 O237 1.961 . S
Li179 O238 1.970 . S
Li179 O239 1.956 . S
C180 C182 1.348 . S
C180 C183 1.356 . S
C180 O236 1.325 . S
N181 C184 1.314 . S
N181 C185 1.279 . S
C182 C180 1.348 . S
C182 C184 1.353 . S
C182 H240 0.929 . S
C183 C180 1.356 . S
C183 C185 1.358 . S
C183 H241 0.930 . S
C184 N181 1.314 . S
C184 C182 1.353 . S
C184 H242 0.930 . S
C185 N181 1.279 . S
C185 C183 1.358 . S
C185 H243 0.930 . S
C186 C189 1.348 . S
C186 C190 1.356 . S
C186 O237 1.325 . S
C187 N188 1.279 . S
C187 C190 1.358 . S
C187 H244 0.930 . S
N188 C187 1.279 . S
N188 C191 1.314 . S
C189 C186 1.348 . S
C189 C191 1.353 . S
C189 H245 0.929 . S
C190 C186 1.356 . S
C190 C187 1.358 . S
C190 H246 0.930 . S
C191 N188 1.314 . S
C191 C189 1.353 . S
C191 H247 0.930 . S
C192 N193 1.314 . S
C192 C197 1.353 . S
C192 H198 0.930 . S
N193 Li176 1.990 . S
N193 C192 1.314 . S
N193 C195 1.279 . S
C194 C195 1.358 . S
C194 C196 1.356 . S
C194 H248 0.930 . S
C195 N193 1.279 . S
C195 C194 1.358 . S
C195 H199 0.930 . S
C196 C194 1.356 . S
C196 C197 1.348 . S
C197 C192 1.353 . S
C197 C196 1.348 . S
C197 H249 0.929 . S
H198 C192 0.930 . S
H199 C195 0.930 . S
C200 N201 1.314 . S
C200 C202 1.353 . S
C200 H206 0.930 . S
N201 Li177 1.990 . S
N201 C200 1.314 . S
N201 C204 1.279 . S
C202 C200 1.353 . S
C202 C205 1.348 . S
C202 H250 0.929 1_655 S
C203 C204 1.358 . S
C203 C205 1.356 . S
C203 H251 0.930 . S
C204 N201 1.279 . S
C204 C203 1.358 . S
C204 H207 0.930 . S
C205 C202 1.348 . S
C205 C203 1.356 . S
H206 C200 0.930 . S
H207 C204 0.930 . S
C208 C210 1.348 . S
C208 C211 1.356 . S
C208 O238 1.325 . S
N209 C212 1.314 . S
N209 C213 1.279 . S
C210 C208 1.348 . S
C210 C212 1.353 . S
C210 H252 0.929 . S
C211 C208 1.356 . S
C211 C213 1.358 . S
C211 H253 0.930 . S
C212 N209 1.314 . S
C212 C210 1.353 . S
C212 H254 0.930 . S
C213 N209 1.279 . S
C213 C211 1.358 . S
C213 H255 0.930 . S
C214 C215 1.348 . S
C214 C216 1.356 . S
C214 O239 1.325 1_455 S
C215 C214 1.348 . S
C215 C217 1.353 . S
C215 H256 0.929 . S
C216 C214 1.356 . S
C216 C218 1.358 . S
C216 H257 0.930 1_455 S
C217 C215 1.353 . S
C217 N219 1.314 . S
C217 H258 0.930 . S
C218 C216 1.358 . S
C218 N219 1.279 . S
C218 H259 0.930 . S
N219 C217 1.314 . S
N219 C218 1.279 . S
C220 C222 1.353 . S
C220 N223 1.314 . S
C220 H226 0.930 . S
C221 N223 1.279 . S
C221 C224 1.358 . S
C221 H227 0.930 . S
C222 C220 1.353 . S
C222 C225 1.348 . S
C222 H260 0.929 . S
N223 Li178 1.990 1_455 S
N223 C220 1.314 . S
N223 C221 1.279 . S
C224 C221 1.358 . S
C224 C225 1.356 . S
C224 H261 0.930 . S
C225 C222 1.348 . S
C225 C224 1.356 . S
H226 C220 0.930 . S
H227 C221 0.930 . S
C228 N229 1.314 . S
C228 C230 1.353 . S
C228 H234 0.930 . S
N229 Li179 1.990 . S
N229 C228 1.314 . S
N229 C232 1.279 . S
C230 C228 1.353 . S
C230 C233 1.348 . S
C230 H262 0.929 . S
C231 C232 1.358 . S
C231 C233 1.356 . S
C231 H263 0.930 . S
C232 N229 1.279 . S
C232 C231 1.358 . S
C232 H235 0.930 . S
C233 C230 1.348 . S
C233 C231 1.356 . S
H234 C228 0.930 . S
H235 C232 0.930 . S
O236 Li176 1.956 . S
O236 Li177 1.970 . S
O236 Li178 1.961 . S
O236 C180 1.325 . S
O237 Li176 1.970 . S
O237 Li177 1.956 . S
O237 Li179 1.961 . S
O237 C186 1.325 . S
O238 Li176 1.961 . S
O238 Li178 1.956 . S
O238 Li179 1.970 . S
O238 C208 1.325 . S
O239 Li177 1.961 . S
O239 Li178 1.970 . S
O239 Li179 1.956 . S
O239 C214 1.325 1_655 S
H240 C182 0.929 . S
H241 C183 0.930 . S
H242 C184 0.930 . S
H243 C185 0.930 . S
H244 C187 0.930 . S
H245 C189 0.929 . S
H246 C190 0.930 . S
H247 C191 0.930 . S
H248 C194 0.930 . S
H249 C197 0.929 . S
H250 C202 0.929 1_455 S
H251 C203 0.930 . S
H252 C210 0.929 . S
H253 C211 0.930 . S
H254 C212 0.930 . S
H255 C213 0.930 . S
H256 C215 0.929 . S
H257 C216 0.930 1_655 S
H258 C217 0.930 . S
H259 C218 0.930 . S
H260 C222 0.929 . S
H261 C224 0.930 . S
H262 C230 0.929 . S
H263 C231 0.930 . S
Li264 N281 1.990 . S
Li264 O324 1.956 . S
Li264 O325 1.970 . S
Li264 O326 1.961 . S
Li265 N289 1.990 . S
Li265 O324 1.970 . S
Li265 O325 1.956 . S
Li265 O327 1.961 . S
Li266 N311 1.990 . S
Li266 O324 1.961 . S
Li266 O326 1.956 . S
Li266 O327 1.970 . S
Li267 N317 1.990 . S
Li267 O325 1.961 . S
Li267 O326 1.970 . S
Li267 O327 1.956 . S
C268 C270 1.348 . S
C268 C271 1.356 . S
C268 O324 1.325 . S
N269 C272 1.314 . S
N269 C273 1.279 . S
C270 C268 1.348 . S
C270 C272 1.353 . S
C270 H328 0.929 . S
C271 C268 1.356 . S
C271 C273 1.358 . S
C271 H329 0.930 . S
C272 N269 1.314 . S
C272 C270 1.353 . S
C272 H330 0.930 . S
C273 N269 1.279 . S
C273 C271 1.358 . S
C273 H331 0.930 . S
C274 C277 1.348 . S
C274 C278 1.356 . S
C274 O325 1.325 . S
C275 N276 1.279 . S
C275 C278 1.358 . S
C275 H332 0.930 . S
N276 C275 1.279 . S
N276 C279 1.314 . S
C277 C274 1.348 . S
C277 C279 1.353 . S
C277 H333 0.929 . S
C278 C274 1.356 . S
C278 C275 1.358 . S
C278 H334 0.930 . S
C279 N276 1.314 . S
C279 C277 1.353 . S
C279 H335 0.930 . S
C280 N281 1.314 . S
C280 C285 1.353 . S
C280 H286 0.930 . S
N281 Li264 1.990 . S
N281 C280 1.314 . S
N281 C283 1.279 . S
C282 C283 1.358 . S
C282 C284 1.356 . S
C282 H336 0.930 . S
C283 N281 1.279 . S
C283 C282 1.358 . S
C283 H287 0.930 . S
C284 C282 1.356 . S
C284 C285 1.348 . S
C285 C280 1.353 . S
C285 C284 1.348 . S
C285 H337 0.929 . S
H286 C280 0.930 . S
H287 C283 0.930 . S
C288 N289 1.314 . S
C288 C290 1.353 . S
C288 H294 0.930 . S
N289 Li265 1.990 . S
N289 C288 1.314 . S
N289 C292 1.279 . S
C290 C288 1.353 . S
C290 C293 1.348 . S
C290 H338 0.929 . S
C291 C292 1.358 . S
C291 C293 1.356 . S
C291 H339 0.930 . S
C292 N289 1.279 . S
C292 C291 1.358 . S
C292 H295 0.930 . S
C293 C290 1.348 . S
C293 C291 1.356 . S
H294 C288 0.930 . S
H295 C292 0.930 . S
C296 C298 1.348 . S
C296 C299 1.356 . S
C296 O326 1.325 . S
N297 C300 1.314 . S
N297 C301 1.279 . S
C298 C296 1.348 . S
C298 C300 1.353 . S
C298 H340 0.929 . S
C299 C296 1.356 . S
C299 C301 1.358 . S
C299 H341 0.930 . S
C300 N297 1.314 . S
C300 C298 1.353 . S
C300 H342 0.930 . S
C301 N297 1.279 . S
C301 C299 1.358 . S
C301 H343 0.930 . S
C302 C303 1.348 . S
C302 C304 1.356 . S
C302 O327 1.325 . S
C303 C302 1.348 . S
C303 C305 1.353 . S
C303 H344 0.929 . S
C304 C302 1.356 . S
C304 C306 1.358 . S
C304 H345 0.930 . S
C305 C303 1.353 . S
C305 N307 1.314 . S
C305 H346 0.930 . S
C306 C304 1.358 . S
C306 N307 1.279 . S
C306 H347 0.930 . S
N307 C305 1.314 . S
N307 C306 1.279 . S
C308 C310 1.353 . S
C308 N311 1.314 . S
C308 H314 0.930 . S
C309 N311 1.279 . S
C309 C312 1.358 . S
C309 H315 0.930 . S
C310 C308 1.353 . S
C310 C313 1.348 . S
C310 H348 0.929 . S
N311 Li266 1.990 . S
N311 C308 1.314 . S
N311 C309 1.279 . S
C312 C309 1.358 . S
C312 C313 1.356 . S
C312 H349 0.930 . S
C313 C310 1.348 . S
C313 C312 1.356 . S
H314 C308 0.930 . S
H315 C309 0.930 . S
C316 N317 1.314 . S
C316 C318 1.353 . S
C316 H322 0.930 . S
N317 Li267 1.990 . S
N317 C316 1.314 . S
N317 C320 1.279 . S
C318 C316 1.353 . S
C318 C321 1.348 . S
C318 H350 0.929 . S
C319 C320 1.358 . S
C319 C321 1.356 . S
C319 H351 0.930 . S
C320 N317 1.279 . S
C320 C319 1.358 . S
C320 H323 0.930 . S
C321 C318 1.348 . S
C321 C319 1.356 . S
H322 C316 0.930 . S
H323 C320 0.930 . S
O324 Li264 1.956 . S
O324 Li265 1.970 . S
O324 Li266 1.961 . S
O324 C268 1.325 . S
O325 Li264 1.970 . S
O325 Li265 1.956 . S
O325 Li267 1.961 . S
O325 C274 1.325 . S
O326 Li264 1.961 . S
O326 Li266 1.956 . S
O326 Li267 1.970 . S
O326 C296 1.325 . S
O327 Li265 1.961 . S
O327 Li266 1.970 . S
O327 Li267 1.956 . S
O327 C302 1.325 . S
H328 C270 0.929 . S
H329 C271 0.930 . S
H330 C272 0.930 . S
H331 C273 0.930 . S
H332 C275 0.930 . S
H333 C277 0.929 . S
H334 C278 0.930 . S
H335 C279 0.930 . S
H336 C282 0.930 . S
H337 C285 0.929 . S
H338 C290 0.929 . S
H339 C291 0.930 . S
H340 C298 0.929 . S
H341 C299 0.930 . S
H342 C300 0.930 . S
H343 C301 0.930 . S
H344 C303 0.929 . S
H345 C304 0.930 . S
H346 C305 0.930 . S
H347 C306 0.930 . S
H348 C310 0.929 . S
H349 C312 0.930 . S
H350 C318 0.929 . S
H351 C319 0.930 . S
Li352 N369 1.990 . S
Li352 O412 1.956 . S
Li352 O413 1.970 . S
Li352 O414 1.961 . S
Li353 N377 1.990 . S
Li353 O412 1.970 . S
Li353 O413 1.956 . S
Li353 O415 1.961 . S
Li354 N399 1.990 . S
Li354 O412 1.961 . S
Li354 O414 1.956 . S
Li354 O415 1.970 . S
Li355 N405 1.990 . S
Li355 O413 1.961 . S
Li355 O414 1.970 . S
Li355 O415 1.956 . S
C356 C358 1.348 . S
C356 C359 1.356 . S
C356 O412 1.325 . S
N357 C360 1.314 . S
N357 C361 1.279 . S
C358 C356 1.348 . S
C358 C360 1.353 . S
C358 H416 0.929 . S
C359 C356 1.356 . S
C359 C361 1.358 . S
C359 H417 0.930 . S
C360 N357 1.314 . S
C360 C358 1.353 . S
C360 H418 0.930 . S
C361 N357 1.279 . S
C361 C359 1.358 . S
C361 H419 0.930 . S
C362 C365 1.348 . S
C362 C366 1.356 . S
C362 O413 1.325 . S
C363 N364 1.279 . S
C363 C366 1.358 . S
C363 H420 0.930 . S
N364 C363 1.279 . S
N364 C367 1.314 . S
C365 C362 1.348 . S
C365 C367 1.353 . S
C365 H421 0.929 . S
C366 C362 1.356 . S
C366 C363 1.358 . S
C366 H422 0.930 . S
C367 N364 1.314 . S
C367 C365 1.353 . S
C367 H423 0.930 . S
C368 N369 1.314 . S
C368 C373 1.353 . S
C368 H374 0.930 . S
N369 Li352 1.990 . S
N369 C368 1.314 . S
N369 C371 1.279 . S
C370 C371 1.358 . S
C370 C372 1.356 . S
C370 H424 0.930 . S
C371 N369 1.279 . S
C371 C370 1.358 . S
C371 H375 0.930 . S
C372 C370 1.356 . S
C372 C373 1.348 . S
C373 C368 1.353 . S
C373 C372 1.348 . S
C373 H425 0.929 . S
H374 C368 0.930 . S
H375 C371 0.930 . S
C376 N377 1.314 . S
C376 C378 1.353 . S
C376 H382 0.930 . S
N377 Li353 1.990 . S
N377 C376 1.314 . S
N377 C380 1.279 . S
C378 C376 1.353 . S
C378 C381 1.348 . S
C378 H426 0.929 . S
C379 C380 1.358 . S
C379 C381 1.356 . S
C379 H427 0.930 . S
C380 N377 1.279 . S
C380 C379 1.358 . S
C380 H383 0.930 . S
C381 C378 1.348 . S
C381 C379 1.356 . S
H382 C376 0.930 . S
H383 C380 0.930 . S
C384 C386 1.348 . S
C384 C387 1.356 . S
C384 O414 1.325 . S
N385 C388 1.314 . S
N385 C389 1.279 . S
C386 C384 1.348 . S
C386 C388 1.353 . S
C386 H428 0.929 . S
C387 C384 1.356 . S
C387 C389 1.358 . S
C387 H429 0.930 . S
C388 N385 1.314 . S
C388 C386 1.353 . S
C388 H430 0.930 . S
C389 N385 1.279 . S
C389 C387 1.358 . S
C389 H431 0.930 . S
C390 C391 1.348 . S
C390 C392 1.356 . S
C390 O415 1.325 . S
C391 C390 1.348 . S
C391 C393 1.353 . S
C391 H432 0.929 . S
C392 C390 1.356 . S
C392 C394 1.358 . S
C392 H433 0.930 . S
C393 C391 1.353 . S
C393 N395 1.314 . S
C393 H434 0.930 . S
C394 C392 1.358 . S
C394 N395 1.279 . S
C394 H435 0.930 . S
N395 C393 1.314 . S
N395 C394 1.279 . S
C396 C398 1.353 . S
C396 N399 1.314 . S
C396 H402 0.930 . S
C397 N399 1.279 . S
C397 C400 1.358 . S
C397 H403 0.930 . S
C398 C396 1.353 . S
C398 C401 1.348 . S
C398 H436 0.929 . S
N399 Li354 1.990 . S
N399 C396 1.314 . S
N399 C397 1.279 . S
C400 C397 1.358 . S
C400 C401 1.356 . S
C400 H437 0.930 . S
C401 C398 1.348 . S
C401 C400 1.356 . S
H402 C396 0.930 . S
H403 C397 0.930 . S
C404 N405 1.314 . S
C404 C406 1.353 . S
C404 H410 0.930 . S
N405 Li355 1.990 . S
N405 C404 1.314 . S
N405 C408 1.279 . S
C406 C404 1.353 . S
C406 C409 1.348 . S
C406 H438 0.929 . S
C407 C408 1.358 . S
C407 C409 1.356 . S
C407 H439 0.930 . S
C408 N405 1.279 . S
C408 C407 1.358 . S
C408 H411 0.930 . S
C409 C406 1.348 . S
C409 C407 1.356 . S
H410 C404 0.930 . S
H411 C408 0.930 . S
O412 Li352 1.956 . S
O412 Li353 1.970 . S
O412 Li354 1.961 . S
O412 C356 1.325 . S
O413 Li352 1.970 . S
O413 Li353 1.956 . S
O413 Li355 1.961 . S
O413 C362 1.325 . S
O414 Li352 1.961 . S
O414 Li354 1.956 . S
O414 Li355 1.970 . S
O414 C384 1.325 . S
O415 Li353 1.961 . S
O415 Li354 1.970 . S
O415 Li355 1.956 . S
O415 C390 1.325 . S
H416 C358 0.929 . S
H417 C359 0.930 . S
H418 C360 0.930 . S
H419 C361 0.930 . S
H420 C363 0.930 . S
H421 C365 0.929 . S
H422 C366 0.930 . S
H423 C367 0.930 . S
H424 C370 0.930 . S
H425 C373 0.929 . S
H426 C378 0.929 . S
H427 C379 0.930 . S
H428 C386 0.929 . S
H429 C387 0.930 . S
H430 C388 0.930 . S
H431 C389 0.930 . S
H432 C391 0.929 . S
H433 C392 0.930 . S
H434 C393 0.930 . S
H435 C394 0.930 . S
H436 C398 0.929 . S
H437 C400 0.930 . S
H438 C406 0.929 . S
H439 C407 0.930 . S
Li440 N457 1.990 . S
Li440 O500 1.956 . S
Li440 O501 1.970 . S
Li440 O502 1.961 . S
Li441 N465 1.990 . S
Li441 O500 1.970 . S
Li441 O501 1.956 . S
Li441 O503 1.961 . S
Li442 N487 1.990 . S
Li442 O500 1.961 . S
Li442 O502 1.956 . S
Li442 O503 1.970 . S
Li443 N493 1.990 1_545 S
Li443 O501 1.961 . S
Li443 O502 1.970 . S
Li443 O503 1.956 . S
C444 C446 1.348 . S
C444 C447 1.356 . S
C444 O500 1.325 . S
N445 C448 1.314 . S
N445 C449 1.279 . S
C446 C444 1.348 . S
C446 C448 1.353 . S
C446 H504 0.929 . S
C447 C444 1.356 . S
C447 C449 1.358 . S
C447 H505 0.930 . S
C448 N445 1.314 . S
C448 C446 1.353 . S
C448 H506 0.930 . S
C449 N445 1.279 . S
C449 C447 1.358 . S
C449 H507 0.930 . S
C450 C453 1.348 . S
C450 C454 1.356 . S
C450 O501 1.325 . S
C451 N452 1.279 . S
C451 C454 1.358 . S
C451 H508 0.930 . S
N452 C451 1.279 . S
N452 C455 1.314 . S
C453 C450 1.348 . S
C453 C455 1.353 . S
C453 H509 0.929 . S
C454 C450 1.356 . S
C454 C451 1.358 . S
C454 H510 0.930 . S
C455 N452 1.314 . S
C455 C453 1.353 . S
C455 H511 0.930 . S
C456 N457 1.314 . S
C456 C461 1.353 . S
C456 H462 0.930 . S
N457 Li440 1.990 . S
N457 C456 1.314 . S
N457 C459 1.279 . S
C458 C459 1.358 . S
C458 C460 1.356 . S
C458 H512 0.930 . S
C459 N457 1.279 . S
C459 C458 1.358 . S
C459 H463 0.930 . S
C460 C458 1.356 . S
C460 C461 1.348 . S
C461 C456 1.353 . S
C461 C460 1.348 . S
C461 H513 0.929 . S
H462 C456 0.930 . S
H463 C459 0.930 . S
C464 N465 1.314 . S
C464 C466 1.353 . S
C464 H470 0.930 . S
N465 Li441 1.990 . S
N465 C464 1.314 . S
N465 C468 1.279 . S
C466 C464 1.353 . S
C466 C469 1.348 . S
C466 H514 0.929 . S
C467 C468 1.358 . S
C467 C469 1.356 . S
C467 H515 0.930 . S
C468 N465 1.279 . S
C468 C467 1.358 . S
C468 H471 0.930 . S
C469 C466 1.348 . S
C469 C467 1.356 . S
H470 C464 0.930 . S
H471 C468 0.930 . S
C472 C474 1.348 . S
C472 C475 1.356 . S
C472 O502 1.325 . S
N473 C476 1.314 . S
N473 C477 1.279 . S
C474 C472 1.348 . S
C474 C476 1.353 . S
C474 H516 0.954 . S
C475 C472 1.356 . S
C475 C477 1.358 . S
C475 H517 0.930 . S
C476 N473 1.314 . S
C476 C474 1.353 . S
C476 H518 0.930 1_545 S
C477 N473 1.279 . S
C477 C475 1.358 . S
C477 H519 0.930 . S
C478 C479 1.348 . S
C478 C480 1.356 . S
C478 O503 1.325 1_565 S
C479 C478 1.348 . S
C479 C481 1.353 . S
C479 H520 0.929 . S
C480 C478 1.356 . S
C480 C482 1.358 . S
C480 H521 0.930 . S
C481 C479 1.353 . S
C481 N483 1.314 . S
C481 H522 0.930 . S
C482 C480 1.358 . S
C482 N483 1.279 . S
C482 H523 0.930 . S
N483 C481 1.314 . S
N483 C482 1.279 . S
C484 C486 1.353 . S
C484 N487 1.314 . S
C484 H490 0.930 . S
C485 N487 1.279 . S
C485 C488 1.358 . S
C485 H491 0.930 . S
C486 C484 1.353 . S
C486 C489 1.348 . S
C486 H524 0.929 . S
N487 Li442 1.990 . S
N487 C484 1.314 . S
N487 C485 1.279 . S
C488 C485 1.358 . S
C488 C489 1.356 . S
C488 H525 0.930 . S
C489 C486 1.348 . S
C489 C488 1.356 . S
H490 C484 0.930 . S
H491 C485 0.930 . S
C492 N493 1.314 . S
C492 C494 1.353 . S
C492 H498 0.930 1_565 S
N493 Li443 1.990 1_565 S
N493 C492 1.314 . S
N493 C496 1.279 . S
C494 C492 1.353 . S
C494 C497 1.348 . S
C494 H526 0.929 . S
C495 C496 1.358 . S
C495 C497 1.356 . S
C495 H527 0.930 . S
C496 N493 1.279 . S
C496 C495 1.358 . S
C496 H499 0.930 . S
C497 C494 1.348 . S
C497 C495 1.356 . S
H498 C492 0.930 1_545 S
H499 C496 0.930 . S
O500 Li440 1.956 . S
O500 Li441 1.970 . S
O500 Li442 1.961 . S
O500 C444 1.325 . S
O501 Li440 1.970 . S
O501 Li441 1.956 . S
O501 Li443 1.961 . S
O501 C450 1.325 . S
O502 Li440 1.961 . S
O502 Li442 1.956 . S
O502 Li443 1.970 . S
O502 C472 1.325 . S
O503 Li441 1.961 . S
O503 Li442 1.970 . S
O503 Li443 1.956 . S
O503 C478 1.325 1_545 S
H504 C446 0.929 . S
H505 C447 0.930 . S
H506 C448 0.930 . S
H507 C449 0.930 . S
H508 C451 0.930 . S
H509 C453 0.929 . S
H510 C454 0.930 . S
H511 C455 0.930 . S
H512 C458 0.930 . S
H513 C461 0.929 . S
H514 C466 0.929 . S
H515 C467 0.930 . S
H516 C474 0.954 . S
H517 C475 0.930 . S
H518 C476 0.930 1_565 S
H519 C477 0.930 . S
H520 C479 0.929 . S
H521 C480 0.930 . S
H522 C481 0.930 . S
H523 C482 0.930 . S
H524 C486 0.929 . S
H525 C488 0.930 . S
H526 C494 0.929 . S
H527 C495 0.930 . S
Li528 N545 1.990 . S
Li528 O588 1.956 . S
Li528 O589 1.970 . S
Li528 O590 1.961 . S
Li529 N553 1.990 . S
Li529 O588 1.970 . S
Li529 O589 1.956 . S
Li529 O591 1.961 . S
Li530 N575 1.990 . S
Li530 O588 1.961 . S
Li530 O590 1.956 . S
Li530 O591 1.970 . S
Li531 N581 1.990 . S
Li531 O589 1.961 . S
Li531 O590 1.970 . S
Li531 O591 1.956 . S
C532 C534 1.348 . S
C532 C535 1.356 . S
C532 O588 1.325 . S
N533 C536 1.314 . S
N533 C537 1.279 . S
C534 C532 1.348 . S
C534 C536 1.353 . S
C534 H592 0.929 . S
C535 C532 1.356 . S
C535 C537 1.358 . S
C535 H593 0.930 . S
C536 N533 1.314 . S
C536 C534 1.353 . S
C536 H594 0.930 . S
C537 N533 1.279 . S
C537 C535 1.358 . S
C537 H595 0.930 . S
C538 C541 1.348 . S
C538 C542 1.356 . S
C538 O589 1.325 . S
C539 N540 1.279 . S
C539 C542 1.358 . S
C539 H596 0.930 . S
N540 C539 1.279 . S
N540 C543 1.314 . S
C541 C538 1.348 . S
C541 C543 1.353 . S
C541 H597 0.929 . S
C542 C538 1.356 . S
C542 C539 1.358 . S
C542 H598 0.930 . S
C543 N540 1.314 . S
C543 C541 1.353 . S
C543 H599 0.930 . S
C544 N545 1.314 . S
C544 C549 1.353 . S
C544 H550 0.930 . S
N545 Li528 1.990 . S
N545 C544 1.314 . S
N545 C547 1.279 . S
C546 C547 1.358 . S
C546 C548 1.356 . S
C546 H600 0.930 . S
C547 N545 1.279 . S
C547 C546 1.358 . S
C547 H551 0.930 . S
C548 C546 1.356 . S
C548 C549 1.348 . S
C549 C544 1.353 . S
C549 C548 1.348 . S
C549 H601 0.929 . S
H550 C544 0.930 . S
H551 C547 0.930 . S
C552 N553 1.314 . S
C552 C554 1.353 . S
C552 H558 0.930 . S
N553 Li529 1.990 . S
N553 C552 1.314 . S
N553 C556 1.279 . S
C554 C552 1.353 . S
C554 C557 1.348 . S
C554 H602 0.929 . S
C555 C556 1.358 . S
C555 C557 1.356 . S
C555 H603 0.930 . S
C556 N553 1.279 . S
C556 C555 1.358 . S
C556 H559 0.930 . S
C557 C554 1.348 . S
C557 C555 1.356 . S
H558 C552 0.930 . S
H559 C556 0.930 . S
C560 C562 1.348 . S
C560 C563 1.356 . S
C560 O590 1.325 . S
N561 C564 1.314 . S
N561 C565 1.279 . S
C562 C560 1.348 . S
C562 C564 1.353 . S
C562 H604 0.929 . S
C563 C560 1.356 . S
C563 C565 1.358 . S
C563 H605 0.930 . S
C564 N561 1.314 . S
C564 C562 1.353 . S
C564 H606 0.930 . S
C565 N561 1.279 . S
C565 C563 1.358 . S
C565 H607 0.930 . S
C566 C567 1.348 . S
C566 C568 1.356 . S
C566 O591 1.325 . S
C567 C566 1.348 . S
C567 C569 1.353 . S
C567 H608 0.929 . S
C568 C566 1.356 . S
C568 C570 1.358 . S
C568 H609 0.930 . S
C569 C567 1.353 . S
C569 N571 1.314 . S
C569 H610 0.930 . S
C570 C568 1.358 . S
C570 N571 1.279 . S
C570 H611 0.930 . S
N571 C569 1.314 . S
N571 C570 1.279 . S
C572 C574 1.353 . S
C572 N575 1.314 . S
C572 H578 0.930 . S
C573 N575 1.279 . S
C573 C576 1.358 . S
C573 H579 0.930 . S
C574 C572 1.353 . S
C574 C577 1.348 . S
C574 H612 0.929 . S
N575 Li530 1.990 . S
N575 C572 1.314 . S
N575 C573 1.279 . S
C576 C573 1.358 . S
C576 C577 1.356 . S
C576 H613 0.930 . S
C577 C574 1.348 . S
C577 C576 1.356 . S
H578 C572 0.930 . S
H579 C573 0.930 . S
C580 N581 1.314 . S
C580 C582 1.353 . S
C580 H586 0.930 . S
N581 Li531 1.990 . S
N581 C580 1.314 . S
N581 C584 1.279 . S
C582 C580 1.353 . S
C582 C585 1.348 . S
C582 H614 0.929 . S
C583 C584 1.358 . S
C583 C585 1.356 . S
C583 H615 0.930 . S
C584 N581 1.279 . S
C584 C583 1.358 . S
C584 H587 0.930 . S
C585 C582 1.348 . S
C585 C583 1.356 . S
H586 C580 0.930 . S
H587 C584 0.930 . S
O588 Li528 1.956 . S
O588 Li529 1.970 . S
O588 Li530 1.961 . S
O588 C532 1.325 . S
O589 Li528 1.970 . S
O589 Li529 1.956 . S
O589 Li531 1.961 . S
O589 C538 1.325 . S
O590 Li528 1.961 . S
O590 Li530 1.956 . S
O590 Li531 1.970 . S
O590 C560 1.325 . S
O591 Li529 1.961 . S
O591 Li530 1.970 . S
O591 Li531 1.956 . S
O591 C566 1.325 . S
H592 C534 0.929 . S
H593 C535 0.930 . S
H594 C536 0.930 . S
H595 C537 0.930 . S
H596 C539 0.930 . S
H597 C541 0.929 . S
H598 C542 0.930 . S
H599 C543 0.930 . S
H600 C546 0.930 . S
H601 C549 0.929 . S
H602 C554 0.929 . S
H603 C555 0.930 . S
H604 C562 0.929 . S
H605 C563 0.930 . S
H606 C564 0.930 . S
H607 C565 0.930 . S
H608 C567 0.929 . S
H609 C568 0.930 . S
H610 C569 0.930 . S
H611 C570 0.930 . S
H612 C574 0.929 . S
H613 C576 0.930 . S
H614 C582 0.929 . S
H615 C583 0.930 . S
Li616 N633 1.990 1_565 S
Li616 O676 1.956 . S
Li616 O677 1.970 . S
Li616 O678 1.961 . S
Li617 N641 1.990 . S
Li617 O676 1.970 . S
Li617 O677 1.956 . S
Li617 O679 1.961 . S
Li618 N663 1.990 . S
Li618 O676 1.961 . S
Li618 O678 1.956 . S
Li618 O679 1.970 . S
Li619 N669 1.990 . S
Li619 O677 1.961 . S
Li619 O678 1.970 . S
Li619 O679 1.956 . S
C620 C622 1.348 . S
C620 C623 1.356 . S
C620 O676 1.325 1_545 S
N621 C624 1.314 . S
N621 C625 1.279 . S
C622 C620 1.348 . S
C622 C624 1.353 . S
C622 H680 0.929 . S
C623 C620 1.356 . S
C623 C625 1.358 . S
C623 H681 0.930 . S
C624 N621 1.314 . S
C624 C622 1.353 . S
C624 H682 0.930 . S
C625 N621 1.279 . S
C625 C623 1.358 . S
C625 H683 0.930 . S
C626 C629 1.348 . S
C626 C630 1.356 . S
C626 O677 1.325 . S
C627 N628 1.279 . S
C627 C630 1.358 . S
C627 H684 0.930 . S
N628 C627 1.279 . S
N628 C631 1.314 . S
C629 C626 1.348 . S
C629 C631 1.353 . S
C629 H685 0.954 . S
C630 C626 1.356 . S
C630 C627 1.358 . S
C630 H686 0.930 . S
C631 N628 1.314 . S
C631 C629 1.353 . S
C631 H687 0.930 1_565 S
C632 N633 1.314 . S
C632 C637 1.353 . S
C632 H638 0.930 1_545 S
N633 Li616 1.990 1_545 S
N633 C632 1.314 . S
N633 C635 1.279 . S
C634 C635 1.358 . S
C634 C636 1.356 . S
C634 H688 0.930 . S
C635 N633 1.279 . S
C635 C634 1.358 . S
C635 H639 0.930 . S
C636 C634 1.356 . S
C636 C637 1.348 . S
C637 C632 1.353 . S
C637 C636 1.348 . S
C637 H689 0.929 . S
H638 C632 0.930 1_565 S
H639 C635 0.930 . S
C640 N641 1.314 . S
C640 C642 1.353 . S
C640 H646 0.930 . S
N641 Li617 1.990 . S
N641 C640 1.314 . S
N641 C644 1.279 . S
C642 C640 1.353 . S
C642 C645 1.348 . S
C642 H690 0.929 . S
C643 C644 1.358 . S
C643 C645 1.356 . S
C643 H691 0.930 . S
C644 N641 1.279 . S
C644 C643 1.358 . S
C644 H647 0.930 . S
C645 C642 1.348 . S
C645 C643 1.356 . S
H646 C640 0.930 . S
H647 C644 0.930 . S
C648 C650 1.348 . S
C648 C651 1.356 . S
C648 O678 1.325 . S
N649 C652 1.314 . S
N649 C653 1.279 . S
C650 C648 1.348 . S
C650 C652 1.353 . S
C650 H692 0.929 . S
C651 C648 1.356 . S
C651 C653 1.358 . S
C651 H693 0.930 . S
C652 N649 1.314 . S
C652 C650 1.353 . S
C652 H694 0.930 . S
C653 N649 1.279 . S
C653 C651 1.358 . S
C653 H695 0.930 . S
C654 C655 1.348 . S
C654 C656 1.356 . S
C654 O679 1.325 . S
C655 C654 1.348 . S
C655 C657 1.353 . S
C655 H696 0.929 . S
C656 C654 1.356 . S
C656 C658 1.358 . S
C656 H697 0.930 . S
C657 C655 1.353 . S
C657 N659 1.314 . S
C657 H698 0.930 . S
C658 C656 1.358 . S
C658 N659 1.279 . S
C658 H699 0.930 . S
N659 C657 1.314 . S
N659 C658 1.279 . S
C660 C662 1.353 . S
C660 N663 1.314 . S
C660 H666 0.930 . S
C661 N663 1.279 . S
C661 C664 1.358 . S
C661 H667 0.930 . S
C662 C660 1.353 . S
C662 C665 1.348 . S
C662 H700 0.929 . S
N663 Li618 1.990 . S
N663 C660 1.314 . S
N663 C661 1.279 . S
C664 C661 1.358 . S
C664 C665 1.356 . S
C664 H701 0.930 . S
C665 C662 1.348 . S
C665 C664 1.356 . S
H666 C660 0.930 . S
H667 C661 0.930 . S
C668 N669 1.314 . S
C668 C670 1.353 . S
C668 H674 0.930 . S
N669 Li619 1.990 . S
N669 C668 1.314 . S
N669 C672 1.279 . S
C670 C668 1.353 . S
C670 C673 1.348 . S
C670 H702 0.929 . S
C671 C672 1.358 . S
C671 C673 1.356 . S
C671 H703 0.930 . S
C672 N669 1.279 . S
C672 C671 1.358 . S
C672 H675 0.930 . S
C673 C670 1.348 . S
C673 C671 1.356 . S
H674 C668 0.930 . S
H675 C672 0.930 . S
O676 Li616 1.956 . S
O676 Li617 1.970 . S
O676 Li618 1.961 . S
O676 C620 1.325 1_565 S
O677 Li616 1.970 . S
O677 Li617 1.956 . S
O677 Li619 1.961 . S
O677 C626 1.325 . S
O678 Li616 1.961 . S
O678 Li618 1.956 . S
O678 Li619 1.970 . S
O678 C648 1.325 . S
O679 Li617 1.961 . S
O679 Li618 1.970 . S
O679 Li619 1.956 . S
O679 C654 1.325 . S
H680 C622 0.929 . S
H681 C623 0.930 . S
H682 C624 0.930 . S
H683 C625 0.930 . S
H684 C627 0.930 . S
H685 C629 0.954 . S
H686 C630 0.930 . S
H687 C631 0.930 1_545 S
H688 C634 0.930 . S
H689 C637 0.929 . S
H690 C642 0.929 . S
H691 C643 0.930 . S
H692 C650 0.929 . S
H693 C651 0.930 . S
H694 C652 0.930 . S
H695 C653 0.930 . S
H696 C655 0.929 . S
H697 C656 0.930 . S
H698 C657 0.930 . S
H699 C658 0.930 . S
H700 C662 0.929 . S
H701 C664 0.930 . S
H702 C670 0.929 . S
H703 C671 0.930 . S
H704 C712 0.950 . S
H705 C717 0.950 . S
H706 C714 0.950 . S
H707 C716 0.950 1_556 S
H708 C718 0.950 . S
H709 C720 0.950 . S
H710 C722 0.950 1_554 S
H711 C723 0.950 . S
C712 H704 0.950 . S
C712 C713 1.386 . S
C712 C714 1.391 . S
C713 C712 1.386 . S
C713 C717 1.393 . S
C714 H706 0.950 . S
C714 C712 1.391 . S
C714 C715 1.400 . S
C715 C714 1.400 . S
C715 C716 1.398 . S
C715 C721 1.491 1_554 S
C716 H707 0.950 1_554 S
C716 C715 1.398 . S
C716 C717 1.391 . S
C717 H705 0.950 . S
C717 C713 1.393 . S
C717 C716 1.391 . S
C718 H708 0.950 . S
C718 C719 1.386 . S
C718 C720 1.391 . S
C719 C718 1.386 . S
C719 C723 1.393 . S
C720 H709 0.950 . S
C720 C718 1.391 . S
C720 C721 1.400 . S
C721 C715 1.491 1_556 S
C721 C720 1.400 . S
C721 C722 1.398 . S
C722 H710 0.950 1_556 S
C722 C721 1.398 . S
C722 C723 1.391 . S
C723 H711 0.950 . S
C723 C719 1.393 . S
C723 C722 1.391 . S
H724 C732 0.950 . S
H725 C737 0.950 . S
H726 C734 0.950 . S
H727 C736 0.950 . S
H728 C738 0.950 . S
H729 C740 0.950 . S
H730 C742 0.950 . S
H731 C743 0.950 . S
C732 H724 0.950 . S
C732 C733 1.386 . S
C732 C734 1.391 . S
C733 C732 1.386 . S
C733 C737 1.393 . S
C734 H726 0.950 . S
C734 C732 1.391 . S
C734 C735 1.400 . S
C735 C734 1.400 . S
C735 C736 1.398 . S
C735 C741 1.491 . S
C736 H727 0.950 . S
C736 C735 1.398 . S
C736 C737 1.391 . S
C737 H725 0.950 . S
C737 C733 1.393 . S
C737 C736 1.391 . S
C738 H728 0.950 . S
C738 C739 1.386 . S
C738 C740 1.391 . S
C739 C738 1.386 . S
C739 C743 1.393 . S
C740 H729 0.950 . S
C740 C738 1.391 . S
C740 C741 1.400 . S
C741 C735 1.491 . S
C741 C740 1.400 . S
C741 C742 1.398 . S
C742 H730 0.950 . S
C742 C741 1.398 . S
C742 C743 1.391 . S
C743 H731 0.950 . S
C743 C739 1.393 . S
C743 C742 1.391 . S
H744 C752 0.950 . S
H745 C757 0.950 . S
H746 C754 0.950 . S
H747 C756 0.918 1_556 S
H748 C758 0.950 . S
H749 C760 0.950 . S
H750 C762 0.950 1_554 S
H751 C763 0.950 . S
C752 H744 0.950 . S
C752 C753 1.386 . S
C752 C754 1.391 . S
C753 C752 1.386 . S
C753 C757 1.393 . S
C754 H746 0.950 . S
C754 C752 1.391 . S
C754 C755 1.400 . S
C755 C754 1.400 . S
C755 C756 1.398 . S
C755 C761 1.491 1_554 S
C756 H747 0.918 1_554 S
C756 C755 1.398 . S
C756 C757 1.391 . S
C757 H745 0.950 . S
C757 C753 1.393 . S
C757 C756 1.391 . S
C758 H748 0.950 . S
C758 C759 1.386 . S
C758 C760 1.391 . S
C759 C758 1.386 . S
C759 C763 1.393 . S
C760 H749 0.950 . S
C760 C758 1.391 . S
C760 C761 1.400 . S
C761 C755 1.491 1_556 S
C761 C760 1.400 . S
C761 C762 1.398 . S
C762 H750 0.950 1_556 S
C762 C761 1.398 . S
C762 C763 1.391 . S
C763 H751 0.950 . S
C763 C759 1.393 . S
C763 C762 1.391 . S
H764 C772 0.950 . S
H765 C777 0.950 . S
H766 C774 0.950 . S
H767 C776 0.950 . S
H768 C778 0.950 . S
H769 C780 0.950 . S
H770 C782 0.950 . S
H771 C783 0.950 . S
C772 H764 0.950 . S
C772 C773 1.386 . S
C772 C774 1.391 . S
C773 C772 1.386 . S
C773 C777 1.393 . S
C774 H766 0.950 . S
C774 C772 1.391 . S
C774 C775 1.400 . S
C775 C774 1.400 . S
C775 C776 1.398 . S
C775 C781 1.491 . S
C776 H767 0.950 . S
C776 C775 1.398 . S
C776 C777 1.391 . S
C777 H765 0.950 . S
C777 C773 1.393 . S
C777 C776 1.391 . S
C778 H768 0.950 . S
C778 C779 1.386 . S
C778 C780 1.391 . S
C779 C778 1.386 . S
C779 C783 1.393 . S
C780 H769 0.950 . S
C780 C778 1.391 . S
C780 C781 1.400 . S
C781 C775 1.491 . S
C781 C780 1.400 . S
C781 C782 1.398 . S
C782 H770 0.950 . S
C782 C781 1.398 . S
C782 C783 1.391 . S
C783 H771 0.950 . S
C783 C779 1.393 . S
C783 C782 1.391 . S
H784 C792 0.950 . S
H785 C797 0.950 . S
H786 C794 0.950 . S
H787 C796 0.950 . S
H788 C798 0.950 . S
H789 C800 0.950 . S
H790 C802 0.950 . S
H791 C803 0.950 . S
C792 H784 0.950 . S
C792 C793 1.386 . S
C792 C794 1.391 . S
C793 C792 1.386 . S
C793 C797 1.393 . S
C794 H786 0.950 . S
C794 C792 1.391 . S
C794 C795 1.400 . S
C795 C794 1.400 . S
C795 C796 1.398 . S
C795 C801 1.491 . S
C796 H787 0.950 . S
C796 C795 1.398 . S
C796 C797 1.391 . S
C797 H785 0.950 . S
C797 C793 1.393 . S
C797 C796 1.391 . S
C798 H788 0.950 . S
C798 C799 1.386 . S
C798 C800 1.391 . S
C799 C798 1.386 . S
C799 C803 1.393 . S
C800 H789 0.950 . S
C800 C798 1.391 . S
C800 C801 1.400 . S
C801 C795 1.491 . S
C801 C800 1.400 . S
C801 C802 1.398 . S
C802 H790 0.950 . S
C802 C801 1.398 . S
C802 C803 1.391 . S
C803 H791 0.950 . S
C803 C799 1.393 . S
C803 C802 1.391 . S
H804 C812 0.950 . S
H805 C817 0.950 . S
H806 C814 0.950 . S
H807 C816 0.950 . S
H808 C818 0.950 . S
H809 C820 0.950 . S
H810 C822 0.950 . S
H811 C823 0.950 . S
C812 H804 0.950 . S
C812 C813 1.386 . S
C812 C814 1.391 . S
C813 C812 1.386 . S
C813 C817 1.393 . S
C814 H806 0.950 . S
C814 C812 1.391 . S
C814 C815 1.400 . S
C815 C814 1.400 . S
C815 C816 1.398 . S
C815 C821 1.491 . S
C816 H807 0.950 . S
C816 C815 1.398 . S
C816 C817 1.391 . S
C817 H805 0.950 . S
C817 C813 1.393 . S
C817 C816 1.391 . S
C818 H808 0.950 . S
C818 C819 1.386 . S
C818 C820 1.391 . S
C819 C818 1.386 . S
C819 C823 1.393 . S
C820 H809 0.950 . S
C820 C818 1.391 . S
C820 C821 1.400 . S
C821 C815 1.491 . S
C821 C820 1.400 . S
C821 C822 1.398 . S
C822 H810 0.950 . S
C822 C821 1.398 . S
C822 C823 1.391 . S
C823 H811 0.950 . S
C823 C819 1.393 . S
C823 C822 1.391 . S
H824 C832 0.950 . S
H825 C837 0.950 . S
H826 C834 0.950 . S
H827 C836 0.950 . S
H828 C838 0.950 . S
H829 C840 0.950 . S
H830 C842 0.950 . S
H831 C843 0.950 . S
C832 H824 0.950 . S
C832 C833 1.386 . S
C832 C834 1.391 . S
C833 C832 1.386 . S
C833 C837 1.393 . S
C834 H826 0.950 . S
C834 C832 1.391 . S
C834 C835 1.400 . S
C835 C834 1.400 . S
C835 C836 1.398 . S
C835 C841 1.491 . S
C836 H827 0.950 . S
C836 C835 1.398 . S
C836 C837 1.391 . S
C837 H825 0.950 . S
C837 C833 1.393 . S
C837 C836 1.391 . S
C838 H828 0.950 . S
C838 C839 1.386 . S
C838 C840 1.391 . S
C839 C838 1.386 . S
C839 C843 1.393 . S
C840 H829 0.950 . S
C840 C838 1.391 . S
C840 C841 1.400 . S
C841 C835 1.491 . S
C841 C840 1.400 . S
C841 C842 1.398 . S
C842 H830 0.950 . S
C842 C841 1.398 . S
C842 C843 1.391 . S
C843 H831 0.950 . S
C843 C839 1.393 . S
C843 C842 1.391 . S
H844 C852 0.950 . S
H845 C857 0.950 . S
H846 C854 0.950 . S
H847 C856 0.950 . S
H848 C858 0.950 . S
H849 C860 0.950 . S
H850 C862 0.950 . S
H851 C863 0.950 . S
C852 H844 0.950 . S
C852 C853 1.386 . S
C852 C854 1.391 . S
C853 C852 1.386 . S
C853 C857 1.393 . S
C854 H846 0.950 . S
C854 C852 1.391 . S
C854 C855 1.400 . S
C855 C854 1.400 . S
C855 C856 1.398 . S
C855 C861 1.491 . S
C856 H847 0.950 . S
C856 C855 1.398 . S
C856 C857 1.391 . S
C857 H845 0.950 . S
C857 C853 1.393 . S
C857 C856 1.391 . S
C858 H848 0.950 . S
C858 C859 1.386 . S
C858 C860 1.391 . S
C859 C858 1.386 . S
C859 C863 1.393 . S
C860 H849 0.950 . S
C860 C858 1.391 . S
C860 C861 1.400 . S
C861 C855 1.491 . S
C861 C860 1.400 . S
C861 C862 1.398 . S
C862 H850 0.950 . S
C862 C861 1.398 . S
C862 C863 1.391 . S
C863 H851 0.950 . S
C863 C859 1.393 . S
C863 C862 1.391 . S
H864 C872 0.950 . S
H865 C877 0.950 . S
H866 C874 0.950 . S
H867 C876 0.950 . S
H868 C878 0.950 . S
H869 C880 0.950 . S
H870 C882 0.950 . S
H871 C883 0.950 . S
C872 H864 0.950 . S
C872 C873 1.386 . S
C872 C874 1.391 . S
C873 C872 1.386 . S
C873 C877 1.393 . S
C874 H866 0.950 . S
C874 C872 1.391 . S
C874 C875 1.400 . S
C875 C874 1.400 . S
C875 C876 1.398 . S
C875 C881 1.491 . S
C876 H867 0.950 . S
C876 C875 1.398 . S
C876 C877 1.391 . S
C877 H865 0.950 . S
C877 C873 1.393 . S
C877 C876 1.391 . S
C878 H868 0.950 . S
C878 C879 1.386 . S
C878 C880 1.391 . S
C879 C878 1.386 . S
C879 C883 1.393 . S
C880 H869 0.950 . S
C880 C878 1.391 . S
C880 C881 1.400 . S
C881 C875 1.491 . S
C881 C880 1.400 . S
C881 C882 1.398 . S
C882 H870 0.950 . S
C882 C881 1.398 . S
C882 C883 1.391 . S
C883 H871 0.950 . S
C883 C879 1.393 . S
C883 C882 1.391 . S
H884 C892 0.950 . S
H885 C897 0.950 . S
H886 C894 0.950 . S
H887 C896 0.950 . S
H888 C898 0.950 . S
H889 C900 0.950 . S
H890 C902 0.950 . S
H891 C903 0.950 . S
C892 H884 0.950 . S
C892 C893 1.386 . S
C892 C894 1.391 . S
C893 C892 1.386 . S
C893 C897 1.393 . S
C894 H886 0.950 . S
C894 C892 1.391 . S
C894 C895 1.400 . S
C895 C894 1.400 . S
C895 C896 1.398 . S
C895 C901 1.491 . S
C896 H887 0.950 . S
C896 C895 1.398 . S
C896 C897 1.391 . S
C897 H885 0.950 . S
C897 C893 1.393 . S
C897 C896 1.391 . S
C898 H888 0.950 . S
C898 C899 1.386 . S
C898 C900 1.391 . S
C899 C898 1.386 . S
C899 C903 1.393 . S
C900 H889 0.950 . S
C900 C898 1.391 . S
C900 C901 1.400 . S
C901 C895 1.491 . S
C901 C900 1.400 . S
C901 C902 1.398 . S
C902 H890 0.950 . S
C902 C901 1.398 . S
C902 C903 1.391 . S
C903 H891 0.950 . S
C903 C899 1.393 . S
C903 C902 1.391 . S
H904 C912 0.950 . S
H905 C917 0.950 . S
H906 C914 0.950 . S
H907 C916 0.950 . S
H908 C918 0.950 . S
H909 C920 0.950 . S
H910 C922 0.950 . S
H911 C923 0.950 . S
C912 H904 0.950 . S
C912 C913 1.386 . S
C912 C914 1.391 . S
C913 C912 1.386 . S
C913 C917 1.393 . S
C914 H906 0.950 . S
C914 C912 1.391 . S
C914 C915 1.400 . S
C915 C914 1.400 . S
C915 C916 1.398 . S
C915 C921 1.491 . S
C916 H907 0.950 . S
C916 C915 1.398 . S
C916 C917 1.391 . S
C917 H905 0.950 . S
C917 C913 1.393 . S
C917 C916 1.391 . S
C918 H908 0.950 . S
C918 C919 1.386 . S
C918 C920 1.391 . S
C919 C918 1.386 . S
C919 C923 1.393 . S
C920 H909 0.950 . S
C920 C918 1.391 . S
C920 C921 1.400 . S
C921 C915 1.491 . S
C921 C920 1.400 . S
C921 C922 1.398 . S
C922 H910 0.950 . S
C922 C921 1.398 . S
C922 C923 1.391 . S
C923 H911 0.950 . S
C923 C919 1.393 . S
C923 C922 1.391 . S
H924 C932 0.950 . S
H925 C937 0.950 . S
H926 C934 0.950 . S
H927 C936 0.950 . S
H928 C938 0.950 . S
H929 C940 0.950 . S
H930 C942 0.950 . S
H931 C943 0.950 . S
C932 H924 0.950 . S
C932 C933 1.386 . S
C932 C934 1.391 . S
C933 C932 1.386 . S
C933 C937 1.393 . S
C934 H926 0.950 . S
C934 C932 1.391 . S
C934 C935 1.400 . S
C935 C934 1.400 . S
C935 C936 1.398 . S
C935 C941 1.491 . S
C936 H927 0.950 . S
C936 C935 1.398 . S
C936 C937 1.391 . S
C937 H925 0.950 . S
C937 C933 1.393 . S
C937 C936 1.391 . S
C938 H928 0.950 . S
C938 C939 1.386 . S
C938 C940 1.391 . S
C939 C938 1.386 . S
C939 C943 1.393 . S
C940 H929 0.950 . S
C940 C938 1.391 . S
C940 C941 1.400 . S
C941 C935 1.491 . S
C941 C940 1.400 . S
C941 C942 1.398 . S
C942 H930 0.950 . S
C942 C941 1.398 . S
C942 C943 1.391 . S
C943 H931 0.950 . S
C943 C939 1.393 . S
C943 C942 1.391 . S
H944 C952 0.950 . S
H945 C957 0.950 . S
H946 C954 0.950 . S
H947 C956 0.950 . S
H948 C958 0.950 . S
H949 C960 0.950 . S
H950 C962 0.950 . S
H951 C963 0.950 . S
C952 H944 0.950 . S
C952 C953 1.386 . S
C952 C954 1.391 1_655 S
C953 C952 1.386 . S
C953 C957 1.393 . S
C954 H946 0.950 . S
C954 C952 1.391 1_455 S
C954 C955 1.400 1_455 S
C955 C954 1.400 1_655 S
C955 C956 1.398 . S
C955 C961 1.491 1_655 S
C956 H947 0.950 . S
C956 C955 1.398 . S
C956 C957 1.391 . S
C957 H945 0.950 . S
C957 C953 1.393 . S
C957 C956 1.391 . S
C958 H948 0.950 . S
C958 C959 1.386 . S
C958 C960 1.391 1_455 S
C959 C958 1.386 . S
C959 C963 1.393 . S
C960 H949 0.950 . S
C960 C958 1.391 1_655 S
C960 C961 1.400 1_655 S
C961 C955 1.491 1_455 S
C961 C960 1.400 1_455 S
C961 C962 1.398 . S
C962 H950 0.950 . S
C962 C961 1.398 . S
C962 C963 1.391 . S
C963 H951 0.950 . S
C963 C959 1.393 . S
C963 C962 1.391 . S
H964 C972 0.950 . S
H965 C977 0.950 . S
H966 C974 0.950 . S
H967 C976 0.950 . S
H968 C978 0.950 . S
H969 C980 0.950 . S
H970 C982 0.950 . S
H971 C983 0.950 . S
C972 H964 0.950 . S
C972 C973 1.386 . S
C972 C974 1.391 . S
C973 C972 1.386 . S
C973 C977 1.393 . S
C974 H966 0.950 . S
C974 C972 1.391 . S
C974 C975 1.400 . S
C975 C974 1.400 . S
C975 C976 1.398 . S
C975 C981 1.491 1_655 S
C976 H967 0.950 . S
C976 C975 1.398 . S
C976 C977 1.391 . S
C977 H965 0.950 . S
C977 C973 1.393 . S
C977 C976 1.391 . S
C978 H968 0.950 . S
C978 C979 1.386 . S
C978 C980 1.391 . S
C979 C978 1.386 . S
C979 C983 1.393 . S
C980 H969 0.950 . S
C980 C978 1.391 . S
C980 C981 1.400 . S
C981 C975 1.491 1_455 S
C981 C980 1.400 . S
C981 C982 1.398 . S
C982 H970 0.950 . S
C982 C981 1.398 . S
C982 C983 1.391 . S
C983 H971 0.950 . S
C983 C979 1.393 . S
C983 C982 1.391 . S
H984 C992 0.950 . S
H985 C997 0.950 . S
H986 C994 0.950 . S
H987 C996 0.928 1_565 S
H988 C998 0.950 . S
H989 C1000 0.950 . S
H990 C1002 0.927 1_545 S
H991 C1003 0.950 . S
C992 H984 0.950 . S
C992 C993 1.386 . S
C992 C994 1.391 . S
C993 C992 1.386 . S
C993 C997 1.393 . S
C994 H986 0.950 . S
C994 C992 1.391 . S
C994 C995 1.400 . S
C995 C994 1.400 . S
C995 C996 1.398 . S
C995 C1001 1.491 1_545 S
C996 H987 0.928 1_545 S
C996 C995 1.398 . S
C996 C997 1.391 . S
C997 H985 0.950 . S
C997 C993 1.393 . S
C997 C996 1.391 . S
C998 H988 0.950 . S
C998 C999 1.386 . S
C998 C1000 1.391 . S
C999 C998 1.386 . S
C999 C1003 1.393 . S
C1000 H989 0.950 . S
C1000 C998 1.391 . S
C1000 C1001 1.400 . S
C1001 C995 1.491 1_565 S
C1001 C1000 1.400 . S
C1001 C1002 1.398 . S
C1002 H990 0.927 1_565 S
C1002 C1001 1.398 . S
C1002 C1003 1.391 . S
C1003 H991 0.950 . S
C1003 C999 1.393 . S
C1003 C1002 1.391 . S
H1004 C1012 0.950 . S
H1005 C1017 0.950 . S
H1006 C1014 0.950 . S
H1007 C1016 0.950 . S
H1008 C1018 0.950 . S
H1009 C1020 0.950 . S
H1010 C1022 0.950 . S
H1011 C1023 0.950 . S
C1012 H1004 0.950 . S
C1012 C1013 1.386 . S
C1012 C1014 1.391 1_545 S
C1013 C1012 1.386 . S
C1013 C1017 1.393 . S
C1014 H1006 0.950 . S
C1014 C1012 1.391 1_565 S
C1014 C1015 1.400 1_565 S
C1015 C1014 1.400 1_545 S
C1015 C1016 1.398 . S
C1015 C1021 1.491 1_545 S
C1016 H1007 0.950 . S
C1016 C1015 1.398 . S
C1016 C1017 1.391 . S
C1017 H1005 0.950 . S
C1017 C1013 1.393 . S
C1017 C1016 1.391 . S
C1018 H1008 0.950 . S
C1018 C1019 1.386 . S
C1018 C1020 1.391 1_565 S
C1019 C1018 1.386 . S
C1019 C1023 1.393 . S
C1020 H1009 0.950 . S
C1020 C1018 1.391 1_545 S
C1020 C1021 1.400 1_545 S
C1021 C1015 1.491 1_565 S
C1021 C1020 1.400 1_565 S
C1021 C1022 1.398 . S
C1022 H1010 0.950 . S
C1022 C1021 1.398 . S
C1022 C1023 1.391 . S
C1023 H1011 0.950 . S
C1023 C1019 1.393 . S
C1023 C1022 1.391 . S
C713 C49 1.309 . S
C719 C469 1.300 . S
C733 C108 1.306 . S
C739 C557 1.305 . S
C753 C233 1.309 . S
C759 C665 1.299 . S
C773 C381 1.304 . S
C779 C313 1.307 . S
C793 C29 1.888 . S
C799 C372 1.810 . S
C813 C117 1.905 . S
C819 C497 1.846 . S
C833 C548 1.814 . S
C839 C196 1.891 . S
C853 C321 1.885 . S
C859 C636 1.818 . S
C873 C401 1.884 . S
C879 C57 1.806 . S
C893 C137 1.834 . S
C899 C460 1.898 . S
C913 C577 1.886 . S
C919 C225 1.807 . S
C933 C284 1.828 . S
C939 C673 1.894 . S
C953 C205 0.277 . S
C959 C20 0.297 . S
C973 C293 0.274 . S
C979 C145 0.306 . S
C993 C409 0.260 . S
C999 C585 0.288 . S
C1013 C489 0.215 . S
C1019 C645 0.265 . S
