# Generated by pormake.
# Topology wjd, (6)-cn, num edge types: 1
# Building blocks:
#     Node 0, Type 0, BuildingBlock: FUNLAD_clean_sbu_0, # of connection points: 6
#     Node 1, Type 0, BuildingBlock: FUNLAD_clean_sbu_0, # of connection points: 6
#     Node 2, Type 0, BuildingBlock: FUNLAD_clean_sbu_0, # of connection points: 6
#     Node 3, Type 0, BuildingBlock: FUNLAD_clean_sbu_0, # of connection points: 6
#     Node 4, Type 0, BuildingBlock: FUNLAD_clean_sbu_0, # of connection points: 6
#     Node 5, Type 0, BuildingBlock: FUNLAD_clean_sbu_0, # of connection points: 6
#     Node 6, Type 0, BuildingBlock: FUNLAD_clean_sbu_0, # of connection points: 6
#     Node 7, Type 0, BuildingBlock: FUNLAD_clean_sbu_0, # of connection points: 6
#     Node 8, Type 0, BuildingBlock: FUNLAD_clean_sbu_0, # of connection points: 6
#     Node 9, Type 0, BuildingBlock: FUNLAD_clean_sbu_0, # of connection points: 6
#     Node 10, Type 0, BuildingBlock: FUNLAD_clean_sbu_0, # of connection points: 6
#     Node 11, Type 0, BuildingBlock: FUNLAD_clean_sbu_0, # of connection points: 6
#     Edge 12, Type (0, 0), BuildingBlock: AJUNOK_clean_linker_0, # of connection points: 2
#     Edge 13, Type (0, 0), BuildingBlock: AJUNOK_clean_linker_0, # of connection points: 2
#     Edge 14, Type (0, 0), BuildingBlock: AJUNOK_clean_linker_0, # of connection points: 2
#     Edge 15, Type (0, 0), BuildingBlock: AJUNOK_clean_linker_0, # of connection points: 2
#     Edge 16, Type (0, 0), BuildingBlock: AJUNOK_clean_linker_0, # of connection points: 2
#     Edge 17, Type (0, 0), BuildingBlock: AJUNOK_clean_linker_0, # of connection points: 2
#     Edge 18, Type (0, 0), BuildingBlock: AJUNOK_clean_linker_0, # of connection points: 2
#     Edge 19, Type (0, 0), BuildingBlock: AJUNOK_clean_linker_0, # of connection points: 2
#     Edge 20, Type (0, 0), BuildingBlock: AJUNOK_clean_linker_0, # of connection points: 2
#     Edge 21, Type (0, 0), BuildingBlock: AJUNOK_clean_linker_0, # of connection points: 2
#     Edge 22, Type (0, 0), BuildingBlock: AJUNOK_clean_linker_0, # of connection points: 2
#     Edge 23, Type (0, 0), BuildingBlock: AJUNOK_clean_linker_0, # of connection points: 2
#     Edge 24, Type (0, 0), BuildingBlock: AJUNOK_clean_linker_0, # of connection points: 2
#     Edge 25, Type (0, 0), BuildingBlock: AJUNOK_clean_linker_0, # of connection points: 2
#     Edge 26, Type (0, 0), BuildingBlock: AJUNOK_clean_linker_0, # of connection points: 2
#     Edge 27, Type (0, 0), BuildingBlock: AJUNOK_clean_linker_0, # of connection points: 2
#     Edge 28, Type (0, 0), BuildingBlock: AJUNOK_clean_linker_0, # of connection points: 2
#     Edge 29, Type (0, 0), BuildingBlock: AJUNOK_clean_linker_0, # of connection points: 2
#     Edge 30, Type (0, 0), BuildingBlock: AJUNOK_clean_linker_0, # of connection points: 2
#     Edge 31, Type (0, 0), BuildingBlock: AJUNOK_clean_linker_0, # of connection points: 2
#     Edge 32, Type (0, 0), BuildingBlock: AJUNOK_clean_linker_0, # of connection points: 2
#     Edge 33, Type (0, 0), BuildingBlock: AJUNOK_clean_linker_0, # of connection points: 2
#     Edge 34, Type (0, 0), BuildingBlock: AJUNOK_clean_linker_0, # of connection points: 2
#     Edge 35, Type (0, 0), BuildingBlock: AJUNOK_clean_linker_0, # of connection points: 2
#     Edge 36, Type (0, 0), BuildingBlock: AJUNOK_clean_linker_0, # of connection points: 2
#     Edge 37, Type (0, 0), BuildingBlock: AJUNOK_clean_linker_0, # of connection points: 2
#     Edge 38, Type (0, 0), BuildingBlock: AJUNOK_clean_linker_0, # of connection points: 2
#     Edge 39, Type (0, 0), BuildingBlock: AJUNOK_clean_linker_0, # of connection points: 2
#     Edge 40, Type (0, 0), BuildingBlock: AJUNOK_clean_linker_0, # of connection points: 2
#     Edge 41, Type (0, 0), BuildingBlock: AJUNOK_clean_linker_0, # of connection points: 2
#     Edge 42, Type (0, 0), BuildingBlock: AJUNOK_clean_linker_0, # of connection points: 2
#     Edge 43, Type (0, 0), BuildingBlock: AJUNOK_clean_linker_0, # of connection points: 2
#     Edge 44, Type (0, 0), BuildingBlock: AJUNOK_clean_linker_0, # of connection points: 2
#     Edge 45, Type (0, 0), BuildingBlock: AJUNOK_clean_linker_0, # of connection points: 2
#     Edge 46, Type (0, 0), BuildingBlock: AJUNOK_clean_linker_0, # of connection points: 2
#     Edge 47, Type (0, 0), BuildingBlock: AJUNOK_clean_linker_0, # of connection points: 2
# Relax obj value: 0.125
# Max RMSD: 0.208
# Mean RMSD: 0.208
data_MOF--net-wjd--node1-FUNLAD_clean_sbu_0--edge1-AJUNOK_clean_linker_0
_symmetry_space_group_name_H-M    P1
_symmetry_Int_Tables_number       1
_symmetry_cell_setting            triclinic
loop_
_symmetry_equiv_pos_as_xyz
'x, y, z'
_cell_length_a     21.277254
_cell_length_b     21.220881
_cell_length_c     69.818149
_cell_angle_alpha  90.103391
_cell_angle_beta   89.915437
_cell_angle_gamma 119.96282
loop_
_atom_site_label
_atom_site_type_symbol
_atom_site_fract_x
_atom_site_fract_y
_atom_site_fract_z
_atom_type_partial_charge
C0 C 0.19133 0.94676 0.14813 0.0
N1 N 0.28233 0.06829 0.09931 0.0
C2 C 0.28397 0.0077 0.0936 0.0
C3 C 0.27242 -0.01446 0.07456 0.0
C4 C 0.25893 0.02578 0.06099 0.0
C5 C 0.25653 0.08775 0.06711 0.0
C6 C 0.26874 0.10839 0.0865 0.0
Zn7 Zn 0.29395 0.08661 0.1285 0.0
C8 C 0.19562 0.12928 0.1455 0.0
N9 N 0.30901 0.09922 0.1897 0.0
C10 C 0.31464 0.04793 0.20004 0.0
C11 C 0.30608 0.15496 0.19852 0.0
C12 C 0.30791 0.16014 0.21849 0.0
C13 C 0.31245 0.10724 0.22949 0.0
C14 C 0.31667 0.05107 0.22003 0.0
Zn15 Zn 0.30071 0.08915 0.16045 0.0
O16 O 0.2148 0.97789 0.13213 0.0
C17 C 0.40727 0.05738 0.14362 0.0
O18 O 0.22147 -0.0192 0.16337 0.0
H19 H 0.30141 0.19508 0.19008 0.0
H20 H 0.29293 0.97513 0.10392 0.0
H21 H 0.31643 0.00381 0.19279 0.0
O22 O 0.3777 0.06219 0.12838 0.0
O23 O 0.38282 0.06321 0.1597 0.0
H24 H 0.26653 0.15572 0.09132 0.0
O25 O 0.37696 0.19838 0.15713 0.0
O26 O 0.37057 0.19713 0.12562 0.0
O27 O 0.22132 0.11836 0.16068 0.0
O28 O 0.21371 0.11584 0.12928 0.0
C29 C 0.39465 0.23202 0.14126 0.0
H30 H 0.27301 0.93651 0.07052 0.0
H31 H 0.24588 0.11996 0.05701 0.0
H32 H 0.30581 0.20504 0.22524 0.0
H33 H 0.31992 0.00906 0.22801 0.0
C34 C 0.79089 0.55152 0.40137 0.0
N35 N 0.74237 0.63611 0.35291 0.0
C36 C 0.79977 0.63819 0.34367 0.0
C37 C 0.79996 0.633 0.3237 0.0
C38 C 0.74042 0.62538 0.31314 0.0
C39 C 0.68218 0.62381 0.32303 0.0
C40 C 0.68423 0.62921 0.34298 0.0
Zn41 Zn 0.74233 0.64539 0.38223 0.0
C42 C 0.60331 0.53813 0.39917 0.0
N43 N 0.73924 0.66328 0.44344 0.0
C44 C 0.79402 0.67785 0.45593 0.0
C45 C 0.67736 0.6612 0.44952 0.0
C46 C 0.66855 0.67394 0.46862 0.0
C47 C 0.72403 0.6898 0.48179 0.0
C48 C 0.78753 0.69151 0.47532 0.0
Zn49 Zn 0.74465 0.65128 0.41423 0.0
O50 O 0.77538 0.56925 0.38544 0.0
C51 C 0.88638 0.75008 0.39741 0.0
O52 O 0.77912 0.57505 0.41698 0.0
H53 H 0.63483 0.65114 0.43945 0.0
H54 H 0.84575 0.64432 0.35178 0.0
H55 H 0.84301 0.67984 0.45083 0.0
O56 O 0.85129 0.72528 0.38192 0.0
O57 O 0.8534 0.73169 0.41338 0.0
H58 H 0.63951 0.62856 0.35053 0.0
O59 O 0.71439 0.72998 0.41071 0.0
O60 O 0.71308 0.72457 0.37945 0.0
O61 O 0.63711 0.56744 0.41451 0.0
O62 O 0.63419 0.56276 0.38318 0.0
C63 C 0.70748 0.75379 0.39469 0.0
H64 H 0.846 0.63458 0.31659 0.0
H65 H 0.636 0.61976 0.3154 0.0
H66 H 0.61906 0.67275 0.47297 0.0
H67 H 0.8313 0.70281 0.48514 0.0
C68 C -0.00426 0.23514 0.14726 0.0
N69 N 0.87108 0.2013 0.09898 0.0
C70 C 0.93107 0.26301 0.09287 0.0
C71 C 0.95149 0.27223 0.0737 0.0
C72 C 0.9102 0.21759 0.06043 0.0
C73 C 0.84899 0.15368 0.06695 0.0
C74 C 0.83004 0.14669 0.08646 0.0
Zn75 Zn 0.85524 0.19742 0.12829 0.0
C76 C 0.81264 0.05735 0.146 0.0
N77 N 0.8475 0.20578 0.18959 0.0
C78 C 0.90083 0.2633 0.1993 0.0
C79 C 0.79233 0.14905 0.19907 0.0
C80 C 0.78993 0.14839 0.21909 0.0
C81 C 0.8452 0.20632 0.22944 0.0
C82 C 0.90064 0.26472 0.21929 0.0
Zn83 Zn 0.85453 0.20416 0.16026 0.0
O84 O 0.96378 0.22661 0.13138 0.0
C85 C 0.88646 0.34176 0.14274 0.0
O86 O 0.96265 0.23223 0.16261 0.0
H87 H 0.75075 0.10358 0.19112 0.0
H88 H 0.96445 0.30526 0.10294 0.0
H89 H 0.94426 0.30782 0.19154 0.0
O90 O 0.88006 0.30584 0.12764 0.0
O91 O 0.88147 0.3127 0.15894 0.0
H92 H 0.78322 0.09757 0.0916 0.0
O93 O 0.74546 0.17211 0.15746 0.0
O94 O 0.74497 0.16402 0.12598 0.0
O95 O 0.82432 0.09511 0.16105 0.0
O96 O 0.82566 0.08777 0.12965 0.0
C97 C 0.71106 0.1549 0.1417 0.0
H98 H -5e-05 0.32156 0.06933 0.0
H99 H 0.81602 0.11014 0.05708 0.0
H100 H 0.74633 0.10229 0.22642 0.0
H101 H 0.94356 0.31102 0.22675 0.0
C102 C 0.39361 0.2345 0.40079 0.0
N103 N 0.30557 0.09961 0.35275 0.0
C104 C 0.30295 0.15531 0.34387 0.0
C105 C 0.30533 0.16027 0.32389 0.0
C106 C 0.31009 0.10721 0.31296 0.0
C107 C 0.31367 0.05093 0.3225 0.0
C108 C 0.31111 0.04802 0.34248 0.0
Zn109 Zn 0.29849 0.09073 0.38204 0.0
C110 C 0.40674 0.0603 0.39852 0.0
N111 N 0.28382 0.07281 0.44332 0.0
C112 C 0.26798 0.1123 0.45583 0.0
C113 C 0.28727 0.01361 0.44939 0.0
C114 C 0.27454 -0.0081 0.46847 0.0
C115 C 0.25714 0.03065 0.48164 0.0
C116 C 0.25421 0.09193 0.47519 0.0
Zn117 Zn 0.29418 0.08961 0.41405 0.0
O118 O 0.37486 0.20017 0.385 0.0
C119 C 0.19457 0.13146 0.3976 0.0
O120 O 0.37043 0.20028 0.41653 0.0
H121 H 0.29803 -0.01851 0.43931 0.0
H122 H 0.29845 0.19572 0.35226 0.0
H123 H 0.26477 0.15875 0.45076 0.0
O124 O 0.21864 0.12001 0.38212 0.0
O125 O 0.21385 0.11815 0.41359 0.0
H126 H 0.31273 0.00397 0.34979 0.0
O127 O 0.21563 -0.0192 0.41084 0.0
O128 O 0.21925 -0.01803 0.37953 0.0
O129 O 0.37797 0.06585 0.41384 0.0
O130 O 0.38112 0.06493 0.38252 0.0
C131 C 0.19113 0.9486 0.39501 0.0
H132 H 0.30371 0.20525 0.31708 0.0
H133 H 0.31705 0.0088 0.31457 0.0
H134 H 0.27668 0.94399 0.4728 0.0
H135 H 0.24166 0.1237 0.485 0.0
C136 C 0.70681 0.75159 0.14834 0.0
N137 N 0.74062 0.66313 0.09938 0.0
C138 C 0.67867 0.66151 0.09361 0.0
C139 C 0.66839 0.67288 0.07455 0.0
C140 C 0.72212 0.68612 0.06101 0.0
C141 C 0.78632 0.68879 0.06719 0.0
C142 C 0.79444 0.67677 0.0866 0.0
Zn143 Zn 0.74576 0.65019 0.12858 0.0
C144 C 0.88565 0.74867 0.14615 0.0
N145 N 0.73967 0.63218 0.18984 0.0
C146 C 0.68158 0.62518 0.19985 0.0
C147 C 0.79736 0.63472 0.19899 0.0
C148 C 0.79805 0.63025 0.21896 0.0
C149 C 0.73871 0.62283 0.22962 0.0
C150 C 0.68001 0.62047 0.21981 0.0
Zn151 Zn 0.74026 0.64238 0.16055 0.0
O152 O 0.71537 0.72864 0.13235 0.0
C153 C 0.60302 0.53578 0.1431 0.0
O154 O 0.71058 0.72137 0.16358 0.0
H155 H 0.84331 0.64094 0.19082 0.0
H156 H 0.63696 0.65239 0.10388 0.0
H157 H 0.63665 0.6242 0.19237 0.0
O158 O 0.63806 0.56583 0.12797 0.0
O159 O 0.63248 0.55976 0.15927 0.0
H160 H 0.84374 0.67892 0.09146 0.0
O161 O 0.77391 0.56649 0.15709 0.0
O162 O 0.78033 0.57421 0.12559 0.0
O163 O 0.84856 0.72227 0.16126 0.0
O164 O 0.85483 0.73106 0.12986 0.0
C165 C 0.79071 0.54968 0.14117 0.0
H166 H 0.61886 0.67204 0.07047 0.0
H167 H 0.82918 0.69926 0.0571 0.0
H168 H 0.84442 0.63241 0.226 0.0
H169 H 0.63396 0.61654 0.22751 0.0
C170 C 0.71117 0.15855 0.40103 0.0
N171 N 0.8464 0.20759 0.3528 0.0
C172 C 0.79031 0.15161 0.34334 0.0
C173 C 0.78817 0.15057 0.32331 0.0
C174 C 0.84441 0.2075 0.31294 0.0
C175 C 0.90041 0.26551 0.32308 0.0
C176 C 0.90047 0.26436 0.34306 0.0
Zn177 Zn 0.85392 0.20588 0.38209 0.0
C178 C 0.88709 0.34408 0.39976 0.0
N179 N 0.87129 0.20322 0.44325 0.0
C180 C 0.83079 0.14737 0.45548 0.0
C181 C 0.93075 0.26491 0.44962 0.0
C182 C 0.95144 0.27259 0.46874 0.0
C183 C 0.91137 0.21612 0.48165 0.0
C184 C 0.85013 0.15267 0.4749 0.0
Zn185 Zn 0.85532 0.19994 0.41404 0.0
O186 O 0.74493 0.17503 0.38514 0.0
C187 C 0.81155 0.05929 0.39632 0.0
O188 O 0.74563 0.16699 0.41658 0.0
H189 H 0.96367 0.30816 0.43976 0.0
H190 H 0.74779 0.10702 0.35133 0.0
H191 H 0.78421 0.09842 0.45014 0.0
O192 O 0.82252 0.09641 0.3812 0.0
O193 O 0.82566 0.09046 0.41258 0.0
H194 H 0.94445 0.30846 0.35082 0.0
O195 O 0.96334 0.22907 0.41084 0.0
O196 O 0.96218 0.23295 0.37956 0.0
O197 O 0.88035 0.30819 0.41484 0.0
O198 O 0.88204 0.31485 0.38355 0.0
C199 C -0.00463 0.23717 0.39498 0.0
H200 H 0.74398 0.10488 0.31601 0.0
H201 H 0.94394 0.31123 0.31562 0.0
H202 H -0.00061 0.32201 0.47334 0.0
H203 H 0.81754 0.10811 0.48452 0.0
C204 C 0.21668 0.40972 0.6408 0.0
N205 N 0.0848 0.32216 0.68932 0.0
C206 C 0.14181 0.3221 0.69814 0.0
C207 C 0.14683 0.3243 0.71812 0.0
C208 C 0.09269 0.32658 0.72912 0.0
C209 C 0.03541 0.32824 0.71964 0.0
C210 C 0.03238 0.32575 0.69966 0.0
Zn211 Zn 0.07484 0.31342 0.66006 0.0
C212 C 0.04112 0.41949 0.64337 0.0
N213 N 0.05447 0.29573 0.59893 0.0
C214 C 0.09499 0.28138 0.58643 0.0
C215 C -0.00585 0.29684 0.5929 0.0
C216 C -0.0277 0.28315 0.57386 0.0
C217 C 0.0122 0.26737 0.56069 0.0
C218 C 0.07457 0.26678 0.5671 0.0
Zn219 Zn 0.072 0.30775 0.62809 0.0
O220 O 0.18335 0.3912 0.65673 0.0
C221 C 0.1169 0.21035 0.64464 0.0
O222 O 0.18177 0.38506 0.62523 0.0
H223 H 0.96146 0.30668 0.60299 0.0
H224 H 0.18316 0.31965 0.68968 0.0
H225 H 0.14241 0.28016 0.59149 0.0
O226 O 0.10596 0.23479 0.66013 0.0
O227 O 0.10204 0.22846 0.62869 0.0
H228 H -0.01253 0.32565 0.6924 0.0
O229 O 0.96407 0.22817 0.63165 0.0
O230 O -0.03315 0.23268 0.66295 0.0
O231 O 0.04652 0.39057 0.62804 0.0
O232 O 0.04725 0.39482 0.65937 0.0
C233 C 0.93284 0.20396 0.64759 0.0
H234 H 0.1926 0.32431 0.72489 0.0
H235 H -0.00748 0.32982 0.72762 0.0
H236 H 0.92359 0.28352 0.56953 0.0
H237 H 0.1072 0.25555 0.55727 0.0
C238 C 0.22021 0.00701 0.89542 0.0
N239 N 0.18954 0.8823 0.94353 0.0
C240 C 0.25194 0.94196 0.94945 0.0
C241 C 0.26225 0.96309 0.96857 0.0
C242 C 0.20799 0.92283 0.98201 0.0
C243 C 0.14357 0.8617 0.9757 0.0
C244 C 0.1355 0.84202 0.95624 0.0
Zn245 Zn 0.18262 0.86626 0.91424 0.0
C246 C 0.04093 0.82444 0.89798 0.0
N247 N 0.18345 0.85706 0.85285 0.0
C248 C 0.2406 0.91003 0.84296 0.0
C249 C 0.12563 0.80251 0.84352 0.0
C250 C 0.12347 0.80044 0.82349 0.0
C251 C 0.18103 0.85542 0.81299 0.0
C252 C 0.24056 0.91014 0.82297 0.0
Zn253 Zn 0.18487 0.86416 0.88222 0.0
O254 O 0.21312 0.9755 0.91132 0.0
C255 C 0.32373 0.89462 0.89859 0.0
O256 O 0.21448 0.97283 0.88005 0.0
H257 H 0.08052 0.76115 0.85161 0.0
H258 H 0.29374 0.97475 0.93922 0.0
H259 H 0.28604 0.95295 0.85059 0.0
O260 O 0.28996 0.88963 0.91398 0.0
O261 O 0.29296 0.8893 0.88265 0.0
H262 H 0.08588 0.79542 0.95127 0.0
O263 O 0.15166 0.75483 0.88482 0.0
O264 O 0.14787 0.75518 0.91636 0.0
O265 O 0.07591 0.83532 0.88243 0.0
O266 O 0.07401 0.83823 0.91391 0.0
C267 C 0.13617 0.7207 0.90061 0.0
H268 H 0.31196 0.0115 0.97276 0.0
H269 H 0.10031 0.82949 0.9857 0.0
H270 H 0.07659 0.75733 0.81629 0.0
H271 H 0.28667 0.95273 0.81539 0.0
C272 C 0.53292 0.8018 0.64236 0.0
N273 N 0.62235 0.75362 0.68982 0.0
C274 C 0.6243 0.81065 0.69933 0.0
C275 C 0.62304 0.81156 0.71936 0.0
C276 C 0.62028 0.75348 0.72967 0.0
C277 C 0.61676 0.69472 0.71949 0.0
C278 C 0.61812 0.69601 0.69951 0.0
Zn279 Zn 0.62895 0.75376 0.66048 0.0
C280 C 0.52115 0.61496 0.6436 0.0
N281 N 0.64291 0.75244 0.59918 0.0
C282 C 0.65918 0.80847 0.58693 0.0
C283 C 0.63937 0.68999 0.59282 0.0
C284 C 0.65244 0.68193 0.5737 0.0
C285 C 0.67039 0.73886 0.56081 0.0
C286 C 0.6734 0.80284 0.56754 0.0
Zn287 Zn 0.63285 0.75754 0.62849 0.0
O288 O 0.55178 0.78585 0.65805 0.0
C289 C 0.73204 0.89905 0.64525 0.0
O290 O 0.55635 0.79158 0.62653 0.0
H291 H 0.62844 0.64659 0.6027 0.0
H292 H 0.62789 0.85604 0.69139 0.0
H293 H 0.6625 0.85796 0.59224 0.0
O294 O 0.70815 0.86346 0.66071 0.0
O295 O 0.71285 0.86642 0.62924 0.0
H296 H 0.61655 0.65116 0.69172 0.0
O297 O 0.71163 0.72767 0.63116 0.0
O298 O 0.70908 0.7253 0.66245 0.0
O299 O 0.54944 0.64991 0.62835 0.0
O300 O 0.54693 0.64482 0.65965 0.0
C301 C 0.73684 0.72029 0.64686 0.0
H302 H 0.62583 0.85789 0.72671 0.0
H303 H 0.61304 0.64818 0.7269 0.0
H304 H 0.65025 0.63204 0.56912 0.0
H305 H 0.68645 0.84775 0.55793 0.0
C306 C 0.93099 0.20124 0.89428 0.0
N307 N 0.05288 0.29267 0.94291 0.0
C308 C -0.00792 0.29356 0.94866 0.0
C309 C -0.0302 0.28124 0.96768 0.0
C310 C 0.01019 0.2679 0.98121 0.0
C311 C 0.07236 0.26626 0.97506 0.0
C312 C 0.09306 0.27911 0.95568 0.0
Zn313 Zn 0.07103 0.30464 0.9137 0.0
C314 C 0.1144 0.20674 0.89671 0.0
N315 N 0.08237 0.31908 0.85242 0.0
C316 C 0.03096 0.32442 0.84212 0.0
C317 C 0.1385 0.3173 0.84356 0.0
C318 C 0.14404 0.32015 0.8236 0.0
C319 C 0.09105 0.32444 0.81262 0.0
C320 C 0.03439 0.32736 0.82214 0.0
Zn321 Zn 0.07251 0.31045 0.8817 0.0
O322 O 0.96304 0.22513 0.91013 0.0
C323 C 0.03997 0.41671 0.89866 0.0
O324 O 0.96423 0.23017 0.87885 0.0
H325 H 0.17878 0.31296 0.85197 0.0
H326 H 0.95942 0.30244 0.93838 0.0
H327 H -0.01342 0.32542 0.8494 0.0
O328 O 0.04581 0.3877 0.91388 0.0
O329 O 0.04562 0.39216 0.88256 0.0
H330 H 0.14051 0.27742 0.95083 0.0
O331 O 0.18153 0.38771 0.88497 0.0
O332 O 0.18114 0.38195 0.91648 0.0
O333 O 0.10273 0.23155 0.88145 0.0
O334 O 0.10084 0.22501 0.91287 0.0
C335 C 0.21552 0.40595 0.90079 0.0
H336 H 0.92063 0.28126 0.97174 0.0
H337 H 0.10472 0.25577 0.98512 0.0
H338 H 0.18936 0.31915 0.81684 0.0
H339 H -0.00772 0.33039 0.81419 0.0
C340 C 0.13706 0.72368 0.64178 0.0
N341 N 0.1838 0.8602 0.68963 0.0
C342 C 0.12591 0.80538 0.69885 0.0
C343 C 0.12364 0.80263 0.71888 0.0
C344 C 0.18119 0.85718 0.72948 0.0
C345 C 0.24078 0.91223 0.7196 0.0
C346 C 0.24092 0.91281 0.69961 0.0
Zn347 Zn 0.18552 0.86758 0.66025 0.0
C348 C 0.32463 0.89759 0.64394 0.0
N349 N 0.19046 0.88505 0.5989 0.0
C350 C 0.13526 0.84538 0.58645 0.0
C351 C 0.25287 0.94417 0.59276 0.0
C352 C 0.26167 0.9657 0.57367 0.0
C353 C 0.20562 0.92681 0.56056 0.0
C354 C 0.14171 0.86554 0.56707 0.0
Zn355 Zn 0.1839 0.86908 0.62821 0.0
O356 O 0.15205 0.75798 0.65757 0.0
C357 C 0.042 0.82777 0.64447 0.0
O358 O 0.14918 0.75805 0.62602 0.0
H359 H 0.29566 0.97642 0.6028 0.0
H360 H 0.08087 0.76426 0.69068 0.0
H361 H 0.08579 0.79902 0.59157 0.0
O362 O 0.07673 0.83901 0.66005 0.0
O363 O 0.07534 0.84111 0.62858 0.0
H364 H 0.28648 0.95588 0.69205 0.0
O365 O 0.21435 0.97813 0.63117 0.0
O366 O 0.21553 0.97667 0.66247 0.0
O367 O 0.29132 0.89252 0.62848 0.0
O368 O 0.29345 0.89247 0.65983 0.0
C369 C 0.22169 0.01032 0.64699 0.0
H370 H 0.07672 0.75927 0.72599 0.0
H371 H 0.28689 0.95448 0.72726 0.0
H372 H 0.31148 0.01361 0.56928 0.0
H373 H 0.09746 0.83364 0.55731 0.0
C374 C 0.73588 0.71734 0.89555 0.0
N375 N 0.64292 0.74979 0.94361 0.0
C376 C 0.64141 0.68791 0.94955 0.0
C377 C 0.6538 0.67867 0.96861 0.0
C378 C 0.66788 0.73336 0.98198 0.0
C379 C 0.66993 0.79726 0.97564 0.0
C380 C 0.65695 0.80434 0.95623 0.0
Zn381 Zn 0.63218 0.75513 0.91433 0.0
C382 C 0.73139 0.89626 0.89744 0.0
N383 N 0.62067 0.75063 0.853 0.0
C384 C 0.61556 0.69284 0.84315 0.0
C385 C 0.6234 0.80824 0.84367 0.0
C386 C 0.6222 0.80964 0.82365 0.0
C387 C 0.61875 0.75148 0.81316 0.0
C388 C 0.6143 0.69207 0.82316 0.0
Zn389 Zn 0.62795 0.75071 0.88232 0.0
O390 O 0.71141 0.72573 0.9113 0.0
C391 C 0.51985 0.61233 0.89926 0.0
O392 O 0.70744 0.72142 0.88002 0.0
H393 H 0.62773 0.85378 0.85174 0.0
H394 H 0.63224 0.64574 0.93939 0.0
H395 H 0.61337 0.64754 0.8508 0.0
O396 O 0.54867 0.64706 0.91453 0.0
O397 O 0.54535 0.64223 0.88322 0.0
H398 H 0.65911 0.85361 0.95124 0.0
O399 O 0.55154 0.78357 0.88502 0.0
O400 O 0.55539 0.78894 0.91654 0.0
O401 O 0.70768 0.86006 0.88204 0.0
O402 O 0.71198 0.86427 0.91352 0.0
C403 C 0.53241 0.79945 0.9007 0.0
H404 H 0.65347 0.62937 0.9728 0.0
H405 H 0.68101 0.84084 0.98558 0.0
H406 H 0.62573 0.85645 0.81645 0.0
H407 H 0.61011 0.64551 0.8156 0.0
C408 C 0.08813 0.21786 0.13029 0.0
C409 C 0.06056 0.22722 0.14774 0.0
C410 C 0.13193 0.18634 0.12976 0.0
C411 C 0.15069 0.16393 0.14666 0.0
H412 H 0.07201 0.23051 0.11678 0.0
H413 H 0.14964 0.17795 0.11591 0.0
S414 S 0.10457 0.18986 0.19635 0.0
N415 N 0.06371 0.22147 0.18254 0.0
N416 N 0.14681 0.16252 0.18159 0.0
C417 C 0.12895 0.17895 0.16436 0.0
C418 C 0.08413 0.21107 0.16488 0.0
C419 C 0.07581 0.86813 0.37828 0.0
C420 C 0.1188 0.88343 0.39479 0.0
C421 C 0.00057 0.82436 0.37926 0.0
C422 C 0.96585 0.79423 0.39676 0.0
H423 H 0.09957 0.89429 0.36476 0.0
H424 H -0.03065 0.81643 0.36633 0.0
S425 S 0.05563 0.80478 0.44318 0.0
N426 N 0.12271 0.85554 0.42843 0.0
N427 N -0.01913 0.77313 0.43032 0.0
C428 C 0.00872 0.8037 0.41301 0.0
C429 C 0.0854 0.84794 0.41197 0.0
C430 C 0.75157 0.93532 0.13079 0.0
C431 C 0.77758 0.97774 0.14746 0.0
C432 C 0.71988 0.85993 0.13156 0.0
C433 C 0.71405 0.82421 0.14899 0.0
H434 H 0.75726 0.96045 0.11692 0.0
H435 H 0.70444 0.83011 0.11816 0.0
S436 S 0.76151 0.9093 0.19721 0.0
N437 N 0.78599 0.9779 0.1823 0.0
N438 N 0.72687 0.83569 0.18368 0.0
C439 C 0.73365 0.86523 0.166 0.0
C440 C 0.76587 0.94225 0.16523 0.0
C441 C 0.11847 0.1689 0.37939 0.0
C442 C 0.15006 0.16649 0.39684 0.0
C443 C 0.07439 0.20013 0.3783 0.0
C444 C 0.06034 0.22979 0.39466 0.0
H445 H 0.1255 0.14408 0.3666 0.0
H446 H 0.04708 0.19602 0.36488 0.0
S447 S 0.14256 0.25096 0.44278 0.0
N448 N 0.1735 0.20645 0.43011 0.0
N449 N 0.09054 0.26545 0.42803 0.0
C450 C 0.09709 0.23388 0.41175 0.0
C451 C 0.14161 0.20167 0.4129 0.0
C452 C 0.08216 0.85293 0.13135 0.0
C453 C 0.1184 0.88216 0.14877 0.0
C454 C 0.0069 0.80981 0.1307 0.0
C455 C 0.96508 0.79335 0.14746 0.0
H456 H 0.11152 0.86726 0.1179 0.0
H457 H -0.0186 0.79069 0.11685 0.0
S458 S 0.03485 0.84464 0.19715 0.0
N459 N 0.10791 0.88315 0.1835 0.0
N460 N 0.96595 0.80129 0.18232 0.0
C461 C 0.00102 0.81675 0.16519 0.0
C462 C 0.0779 0.8609 0.16584 0.0
C463 C 0.72235 0.86302 0.4115 0.0
C464 C 0.71424 0.8262 0.39409 0.0
C465 C 0.75345 0.93836 0.412 0.0
C466 C 0.77655 -0.02037 0.39511 0.0
H467 H 0.7093 0.83423 0.42502 0.0
H468 H 0.76109 0.9644 0.42584 0.0
S469 S 0.7529 0.90773 0.34547 0.0
N470 N 0.72119 0.83517 0.35929 0.0
N471 N 0.77926 0.97734 0.3602 0.0
C472 C 0.76233 0.94293 0.37743 0.0
C473 C 0.73072 0.86595 0.37693 0.0
C474 C 0.18826 0.09212 0.66374 0.0
C475 C 0.21532 0.07608 0.64718 0.0
C476 C 0.15722 0.1364 0.66279 0.0
C477 C 0.15253 0.16637 0.64528 0.0
H478 H 0.1859 0.06609 0.67727 0.0
H479 H 0.1342 0.14472 0.67575 0.0
S480 S 0.23087 0.1545 0.59876 0.0
N481 N 0.24685 0.10341 0.6135 0.0
N482 N 0.18834 0.18693 0.61168 0.0
C483 C 0.18559 0.1564 0.629 0.0
C484 C 0.21755 0.11158 0.63 0.0
C485 C 0.92671 0.78434 0.87987 0.0
C486 C 0.96144 0.78926 0.89738 0.0
C487 C 0.85147 0.75266 0.87889 0.0
C488 C 0.80842 0.72508 0.89541 0.0
H489 H 0.95793 0.80743 0.86692 0.0
H490 H 0.82773 0.75473 0.86535 0.0
S491 S 0.87152 0.71084 0.94389 0.0
N492 N 0.94633 0.75386 0.931 0.0
N493 N 0.80447 0.69408 0.92911 0.0
C494 C 0.84182 0.72352 0.91262 0.0
C495 C 0.91853 0.75616 0.91366 0.0
C496 C 0.80877 0.01297 0.6634 0.0
C497 C 0.77663 -0.02134 0.64601 0.0
C498 C 0.85346 0.0883 0.6644 0.0
C499 C 0.86758 0.1317 0.648 0.0
H500 H 0.80175 -0.01869 0.67621 0.0
H501 H 0.88115 0.11172 0.67778 0.0
S502 S 0.78393 0.06991 0.60004 0.0
N503 N 0.75265 -0.00532 0.61277 0.0
N504 N 0.83676 0.13664 0.61469 0.0
C505 C 0.83024 0.09881 0.63099 0.0
C506 C 0.78509 0.02206 0.62993 0.0
C507 C 0.16981 0.14218 0.91279 0.0
C508 C 0.1499 0.16256 0.89573 0.0
C509 C 0.20146 0.09847 0.91246 0.0
C510 C 0.21335 0.07257 0.89504 0.0
H511 H 0.15908 0.15826 0.9266 0.0
H512 H 0.21181 0.08081 0.92605 0.0
S513 S 0.1849 0.1228 0.84623 0.0
N514 N 0.15481 0.16316 0.86081 0.0
N515 N 0.21397 0.08013 0.86023 0.0
C516 C 0.20028 0.09828 0.87782 0.0
C517 C 0.16806 0.14305 0.87815 0.0
C518 C 0.92733 0.78605 0.66254 0.0
C519 C 0.96249 0.79256 0.64498 0.0
C520 C 0.85208 0.75421 0.66347 0.0
C521 C 0.80943 0.72811 0.64685 0.0
H522 H 0.95819 0.80792 0.6756 0.0
H523 H 0.82802 0.75498 0.6771 0.0
S524 S 0.87375 0.71849 0.59807 0.0
N525 N 0.94821 0.76036 0.6111 0.0
N526 N 0.80634 0.70019 0.6129 0.0
C527 C 0.84324 0.7281 0.62953 0.0
C528 C 0.91998 0.76093 0.62854 0.0
C529 C 0.85229 0.08463 0.87777 0.0
C530 C 0.86585 0.1289 0.89399 0.0
C531 C 0.80804 0.00931 0.879 0.0
C532 C 0.77581 0.97585 0.89647 0.0
H533 H 0.88015 0.10743 0.86437 0.0
H534 H 0.80144 0.977 0.86633 0.0
S535 S 0.78182 0.06944 0.942 0.0
N536 N 0.8345 0.1355 0.92719 0.0
N537 N 0.75117 -0.00649 0.92955 0.0
C538 C 0.78375 0.02006 0.91236 0.0
C539 C 0.82845 0.0968 0.91106 0.0
C540 C 0.36328 0.10168 0.28138 0.0
C541 C 0.3109 0.10985 0.29169 0.0
C542 C 0.36385 0.10167 0.2613 0.0
C543 C 0.31205 0.10983 0.25076 0.0
H544 H 0.40436 0.09548 0.28891 0.0
H545 H 0.40534 0.09548 0.25396 0.0
S546 S 0.16051 0.12827 0.27088 0.0
N547 N 0.20415 0.12339 0.28985 0.0
N548 N 0.20517 0.12333 0.25211 0.0
C549 C 0.25924 0.11784 0.26088 0.0
C550 C 0.25867 0.11787 0.28133 0.0
C551 C 0.80032 0.67261 0.28131 0.0
C552 C 0.73994 0.62138 0.29187 0.0
C553 C 0.79989 0.67201 0.26121 0.0
C554 C 0.73907 0.62013 0.25091 0.0
H555 H 0.84767 0.71461 0.28864 0.0
H556 H 0.84692 0.71357 0.25369 0.0
S557 S 0.57032 0.46946 0.27175 0.0
N558 N 0.61981 0.51415 0.29052 0.0
N559 N 0.61901 0.51299 0.25277 0.0
C560 C 0.67913 0.56739 0.26129 0.0
C561 C 0.67957 0.56802 0.28174 0.0
C562 C 0.78315 0.19151 0.26107 0.0
C563 C 0.84559 0.20549 0.25071 0.0
C564 C 0.78297 0.19182 0.28119 0.0
C565 C 0.84521 0.20607 0.29165 0.0
H566 H 0.73443 0.18139 0.25357 0.0
H567 H 0.73412 0.18198 0.28859 0.0
S568 S 0.01996 0.23798 0.2713 0.0
N569 N -0.03051 0.22876 0.2524 0.0
N570 N -0.03085 0.22917 0.29013 0.0
C571 C 0.9074 0.21839 0.28145 0.0
C572 C 0.90759 0.21814 0.26101 0.0
C573 C 0.08498 0.37731 0.76092 0.0
C574 C 0.09508 0.32645 0.75039 0.0
C575 C 0.08456 0.37677 0.78101 0.0
C576 C 0.09413 0.32528 0.79134 0.0
H577 H 0.07757 0.41805 0.75357 0.0
H578 H 0.07692 0.41717 0.78851 0.0
S579 S 0.11775 0.17734 0.77055 0.0
N580 N 0.11198 0.2214 0.75177 0.0
N581 N 0.11096 0.2202 0.78951 0.0
C582 C 0.10403 0.27395 0.78099 0.0
C583 C 0.10456 0.27457 0.76053 0.0
C584 C 0.16292 0.79333 0.78116 0.0
C585 C 0.17895 0.85619 0.79171 0.0
C586 C 0.16297 0.79376 0.76105 0.0
C587 C 0.17906 0.85708 0.75077 0.0
H588 H 0.15164 0.74383 0.78851 0.0
H589 H 0.15172 0.74459 0.75349 0.0
S590 S 0.2162 0.03336 0.77163 0.0
N591 N 0.20562 -0.01835 0.79038 0.0
N592 N 0.20575 -0.01752 0.75265 0.0
C593 C 0.19315 0.91965 0.76115 0.0
C594 C 0.19308 0.9192 0.7816 0.0
C595 C 0.57472 0.77023 0.76139 0.0
C596 C 0.62178 0.75434 0.75096 0.0
C597 C 0.5743 0.76968 0.7815 0.0
C598 C 0.62089 0.75318 0.79189 0.0
H599 H 0.53709 0.78196 0.75396 0.0
H600 H 0.5364 0.78107 0.78898 0.0
S601 S 0.7598 0.71553 0.77139 0.0
N602 N 0.71977 0.72692 0.75254 0.0
N603 N 0.71888 0.72577 0.79026 0.0
C604 C 0.66935 0.73891 0.78163 0.0
C605 C 0.66982 0.73952 0.76119 0.0
C606 C 0.17023 0.96062 1.01208 0.0
C607 C 0.21974 0.94612 1.00239 0.0
C608 C 0.18404 -0.01155 0.03087 0.0
C609 C 0.24737 0.00185 0.04065 0.0
H610 H 0.12123 0.95166 1.00496 0.0
H611 H 0.14441 -0.00158 0.0379 0.0
S612 S 0.39363 0.97234 0.02166 0.0
N613 N 0.33399 0.94649 1.00407 0.0
N614 N 0.36012 -0.00087 0.03916 0.0
C615 C 0.29702 -0.01265 0.0311 0.0
C616 C 0.28315 0.95938 1.01205 0.0
C617 C 0.64914 0.65421 0.51163 0.0
C618 C 0.71364 0.70334 0.50214 0.0
C619 C 0.63536 0.66694 0.53044 0.0
C620 C 0.68519 0.72968 0.5405 0.0
H621 H 0.60894 0.60524 0.50445 0.0
H622 H 0.58508 0.62733 0.53718 0.0
S623 S 0.86219 0.87537 0.5222 0.0
N624 N 0.82783 0.81739 0.50418 0.0
N625 N 0.80201 0.84114 0.5397 0.0
C626 C 0.74987 0.77943 0.53121 0.0
C627 C 0.76421 0.76615 0.51204 0.0
C628 C -0.02637 0.19281 1.01134 0.0
C629 C -0.0135 0.25615 1.00156 0.0
C630 C 0.94652 0.17913 0.0302 0.0
C631 C 0.93226 0.22879 0.03995 0.0
H632 H -0.01642 0.15314 1.00427 0.0
H633 H 0.93804 0.13019 0.03733 0.0
S634 S 0.95711 0.40265 1.02071 0.0
N635 N -0.01666 0.36896 1.00311 0.0
N636 N 0.93213 0.3431 0.03833 0.0
C637 C 0.94486 0.29213 0.03028 0.0
C638 C -0.02794 0.30586 1.01117 0.0
C639 C 0.29242 -0.00787 0.51167 0.0
C640 C 0.24289 0.00624 0.50193 0.0
C641 C 0.27921 0.96551 0.53046 0.0
C642 C 0.21555 0.95113 0.54025 0.0
H643 H 0.34208 0.00204 0.50471 0.0
H644 H 0.31916 0.95584 0.53738 0.0
S645 S 0.06821 -0.02179 0.52116 0.0
N646 N 0.12732 0.00325 0.50341 0.0
N647 N 0.10261 0.95346 0.53887 0.0
C648 C 0.16533 0.96465 0.53069 0.0
C649 C 0.1791 -0.00761 0.51154 0.0
C650 C 0.75876 0.76005 0.03068 0.0
C651 C 0.70959 0.69662 0.04062 0.0
C652 C 0.74415 0.77293 1.01187 0.0
C653 C 0.68033 0.72239 1.00234 0.0
H654 H 0.80812 0.8005 0.03761 0.0
H655 H 0.78354 0.82209 1.00463 0.0
S656 S 0.53472 0.54771 0.02205 0.0
N657 N 0.59516 0.58258 0.03943 0.0
N658 N 0.56753 0.60698 1.00433 0.0
C659 C 0.63102 0.65881 1.01215 0.0
C660 C 0.64571 0.64587 0.0312 0.0
C661 C -0.02706 0.30188 0.53072 0.0
C662 C -0.01186 0.25294 0.5404 0.0
C663 C 0.94692 0.28863 0.51189 0.0
C664 C 0.93425 0.2255 0.50202 0.0
H665 H -0.01835 0.35118 0.53775 0.0
H666 H 0.93655 0.32821 0.50497 0.0
S667 S 0.96454 0.07975 0.52096 0.0
N668 N -0.01203 0.13845 0.53881 0.0
N669 N 0.9391 0.1136 0.50326 0.0
C670 C 0.94871 0.17577 0.51153 0.0
C671 C -0.0241 0.18962 0.53072 0.0
C672 C 0.59385 0.11573 0.12506 0.0
C673 C 0.63153 0.12041 0.14196 0.0
C674 C 0.51894 0.08786 0.12533 0.0
C675 C 0.47933 0.06399 0.14255 0.0
H676 H 0.62267 0.13654 0.11167 0.0
H677 H 0.493 0.08976 0.11217 0.0
S678 S 0.55031 0.04985 0.18985 0.0
N679 N 0.62213 0.08785 0.17576 0.0
N680 N 0.48122 0.0358 0.17622 0.0
C681 C 0.51532 0.06203 0.15916 0.0
C682 C 0.59158 0.09052 0.15891 0.0
C683 C 0.52002 0.42671 0.41731 0.0
C684 C 0.5373 0.46634 0.40007 0.0
C685 C 0.47193 0.35184 0.41753 0.0
C686 C 0.43935 0.3142 0.40056 0.0
H687 H 0.54735 0.45254 0.43054 0.0
H688 H 0.46276 0.32297 0.43096 0.0
S689 S 0.45437 0.39583 0.35248 0.0
N690 N 0.50942 0.46478 0.36624 0.0
N691 N 0.4186 0.32392 0.3666 0.0
C692 C 0.45105 0.35432 0.38355 0.0
C693 C 0.49993 0.43056 0.38335 0.0
C694 C 0.85457 0.42192 0.12443 0.0
C695 C 0.88083 0.40787 0.14146 0.0
C696 C 0.82732 0.46966 0.12427 0.0
C697 C 0.82568 0.50497 0.14111 0.0
H698 H 0.85014 0.39212 0.11141 0.0
H699 H 0.80431 0.47617 0.1111 0.0
S700 S 0.90399 0.49985 0.18825 0.0
N701 N 0.91499 0.44231 0.17469 0.0
N702 N 0.86421 0.53258 0.17444 0.0
C703 C 0.85829 0.49683 0.15776 0.0
C704 C 0.88611 0.44834 0.1579 0.0
C705 C 0.52097 0.08626 0.3825 0.0
C706 C 0.4792 0.06762 0.39931 0.0
C707 C 0.59574 0.11484 0.38329 0.0
C708 C 0.63166 0.12533 0.40092 0.0
H709 H 0.49673 0.08321 0.36864 0.0
H710 H 0.62567 0.13075 0.36993 0.0
S711 S 0.54488 0.07161 0.44881 0.0
N712 N 0.4773 0.05162 0.4339 0.0
N713 N 0.61856 0.10538 0.43539 0.0
C714 C 0.58984 0.10123 0.41774 0.0
C715 C 0.51336 0.07199 0.41692 0.0
C716 C 0.47516 0.34864 0.1245 0.0
C717 C 0.43989 0.31172 0.14131 0.0
C718 C 0.52307 0.4236 0.12474 0.0
C719 C 0.53732 0.46391 0.14182 0.0
H720 H 0.46836 0.31912 0.11127 0.0
H721 H 0.5527 0.44893 0.11172 0.0
S722 S 0.44627 0.39527 0.18865 0.0
N723 N 0.4131 0.32277 0.17473 0.0
N724 N 0.50363 0.46371 0.17513 0.0
C725 C 0.49719 0.42877 0.15826 0.0
C726 C 0.44854 0.35252 0.15805 0.0
C727 C 0.82768 0.47187 0.41826 0.0
C728 C 0.82607 0.50701 0.40142 0.0
C729 C 0.85515 0.42433 0.4181 0.0
C730 C 0.88163 0.41028 0.40106 0.0
H731 H 0.80449 0.47836 0.43143 0.0
H732 H 0.85066 0.39463 0.43111 0.0
S733 S 0.90509 0.50195 0.3543 0.0
N734 N 0.86499 0.53457 0.36811 0.0
N735 N 0.91614 0.44462 0.36786 0.0
C736 C 0.88702 0.45064 0.38464 0.0
C737 C 0.85901 0.49896 0.38478 0.0
C738 C 0.09706 0.60606 0.62502 0.0
C739 C 0.10239 0.64388 0.642 0.0
C740 C 0.06956 0.53102 0.62524 0.0
C741 C 0.04683 0.49138 0.64247 0.0
H742 H 0.1171 0.63486 0.6116 0.0
H743 H 0.07096 0.50506 0.61199 0.0
S744 S 0.03449 0.56245 0.69004 0.0
N745 N 0.07139 0.63441 0.67595 0.0
N746 N 0.02015 0.49323 0.67628 0.0
C747 C 0.04534 0.5274 0.65919 0.0
C748 C 0.07337 0.60381 0.65899 0.0
C749 C 0.40775 0.86788 0.91679 0.0
C750 C 0.38942 0.88828 0.89941 0.0
C751 C 0.45544 0.8407 0.91718 0.0
C752 C 0.48667 0.83334 0.90022 0.0
H753 H 0.38162 0.86832 0.93008 0.0
H754 H 0.46547 0.82267 0.93075 0.0
S755 S 0.46855 0.89414 0.85163 0.0
N756 N 0.41486 0.91018 0.86534 0.0
N757 N 0.50497 0.85946 0.86599 0.0
C758 C 0.47392 0.85976 0.883 0.0
C759 C 0.4254 0.8875 0.88263 0.0
C760 C 0.40672 0.52691 0.6595 0.0
C761 C 0.44874 0.54973 0.64273 0.0
C762 C 0.33192 0.48112 0.65861 0.0
C763 C 0.2962 0.45572 0.64094 0.0
H764 H 0.43079 0.54817 0.67337 0.0
H765 H 0.30184 0.46746 0.67194 0.0
S766 S 0.38367 0.48743 0.59319 0.0
N767 N 0.45113 0.53507 0.60815 0.0
N768 N 0.30971 0.44809 0.60651 0.0
C769 C 0.33823 0.47294 0.62418 0.0
C770 C 0.41477 0.51984 0.62508 0.0
C771 C 0.09661 0.60321 0.91728 0.0
C772 C 0.10125 0.64093 0.90037 0.0
C773 C 0.06905 0.52817 0.91699 0.0
C774 C 0.04559 0.4885 0.89975 0.0
H775 H 0.11731 0.63211 0.93067 0.0
H776 H 0.07104 0.50225 0.93015 0.0
S777 S 0.03098 0.55933 0.85246 0.0
N778 N 0.06861 0.63135 0.86657 0.0
N779 N 0.01727 0.49016 0.86609 0.0
C780 C 0.04329 0.52441 0.88315 0.0
C781 C 0.07138 0.60081 0.88342 0.0
C782 C 0.4093 0.87084 0.62598 0.0
C783 C 0.39023 0.89105 0.64332 0.0
C784 C 0.45679 0.84342 0.62573 0.0
C785 C 0.48709 0.8356 0.64277 0.0
H786 H 0.38392 0.87165 0.61261 0.0
H787 H 0.46745 0.82562 0.61217 0.0
S788 S 0.46673 0.89554 0.69134 0.0
N789 N 0.41397 0.91218 0.67748 0.0
N790 N 0.50365 0.8609 0.67707 0.0
C791 C 0.47357 0.86173 0.65997 0.0
C792 C 0.42528 0.88976 0.6602 0.0
C793 C 0.40753 0.53132 0.91738 0.0
C794 C 0.44749 0.54702 0.90021 0.0
C795 C 0.33257 0.48429 0.91756 0.0
C796 C 0.29512 0.45122 0.90062 0.0
H797 H 0.43327 0.55909 0.93058 0.0
H798 H 0.30355 0.47627 0.93092 0.0
S799 S 0.37717 0.462 0.85279 0.0
N800 N 0.44608 0.517 0.86653 0.0
N801 N 0.30513 0.4282 0.8668 0.0
C802 C 0.3354 0.46136 0.8837 0.0
C803 C 0.41171 0.50913 0.88354 0.0
loop_
_geom_bond_atom_site_label_1
_geom_bond_atom_site_label_2
_geom_bond_distance
_geom_bond_site_symmetry_2
_ccdc_geom_bond_type
C0 O16 1.251 1_565 S
C0 O18 1.254 1_565 S
N1 C2 1.333 . S
N1 C6 1.307 . S
N1 Zn7 2.020 . S
C2 N1 1.333 . S
C2 C3 1.379 . S
C2 H20 0.952 . S
C3 C2 1.379 . S
C3 C4 1.390 . S
C3 H30 0.949 1_545 S
C4 C3 1.390 . S
C4 C5 1.357 . S
C5 C4 1.357 . S
C5 C6 1.370 . S
C5 H31 0.950 . S
C6 N1 1.307 . S
C6 C5 1.370 . S
C6 H24 0.948 . S
Zn7 N1 2.020 . S
Zn7 O16 2.039 . S
Zn7 O22 2.034 . S
Zn7 O26 2.025 . S
Zn7 O28 2.024 . S
C8 O27 1.246 . S
C8 O28 1.249 . S
N9 C10 1.307 . S
N9 C11 1.333 . S
N9 Zn15 2.020 . S
C10 N9 1.307 . S
C10 C14 1.370 . S
C10 H21 0.948 . S
C11 N9 1.333 . S
C11 C12 1.379 . S
C11 H19 0.952 . S
C12 C11 1.379 . S
C12 C13 1.390 . S
C12 H32 0.949 . S
C13 C12 1.390 . S
C13 C14 1.357 . S
C14 C10 1.370 . S
C14 C13 1.357 . S
C14 H33 0.950 . S
Zn15 N9 2.020 . S
Zn15 O18 2.025 . S
Zn15 O23 2.024 . S
Zn15 O25 2.039 . S
Zn15 O27 2.034 . S
O16 C0 1.251 1_545 S
O16 Zn7 2.039 . S
C17 O22 1.246 . S
C17 O23 1.249 . S
O18 C0 1.254 1_545 S
O18 Zn15 2.025 . S
H19 C11 0.952 . S
H20 C2 0.952 . S
H21 C10 0.948 . S
O22 Zn7 2.034 . S
O22 C17 1.246 . S
O23 Zn15 2.024 . S
O23 C17 1.249 . S
H24 C6 0.948 . S
O25 Zn15 2.039 . S
O25 C29 1.251 . S
O26 Zn7 2.025 . S
O26 C29 1.254 . S
O27 C8 1.246 . S
O27 Zn15 2.034 . S
O28 Zn7 2.024 . S
O28 C8 1.249 . S
C29 O25 1.251 . S
C29 O26 1.254 . S
H30 C3 0.949 1_565 S
H31 C5 0.950 . S
H32 C12 0.949 . S
H33 C14 0.950 . S
C34 O50 1.251 . S
C34 O52 1.254 . S
N35 C36 1.333 . S
N35 C40 1.307 . S
N35 Zn41 2.020 . S
C36 N35 1.333 . S
C36 C37 1.379 . S
C36 H54 0.952 . S
C37 C36 1.379 . S
C37 C38 1.390 . S
C37 H64 0.949 . S
C38 C37 1.390 . S
C38 C39 1.357 . S
C39 C38 1.357 . S
C39 C40 1.370 . S
C39 H65 0.950 . S
C40 N35 1.307 . S
C40 C39 1.370 . S
C40 H58 0.948 . S
Zn41 N35 2.020 . S
Zn41 O50 2.039 . S
Zn41 O56 2.034 . S
Zn41 O60 2.025 . S
Zn41 O62 2.024 . S
C42 O61 1.246 . S
C42 O62 1.249 . S
N43 C44 1.307 . S
N43 C45 1.333 . S
N43 Zn49 2.020 . S
C44 N43 1.307 . S
C44 C48 1.370 . S
C44 H55 0.948 . S
C45 N43 1.333 . S
C45 C46 1.379 . S
C45 H53 0.952 . S
C46 C45 1.379 . S
C46 C47 1.390 . S
C46 H66 0.949 . S
C47 C46 1.390 . S
C47 C48 1.357 . S
C48 C44 1.370 . S
C48 C47 1.357 . S
C48 H67 0.950 . S
Zn49 N43 2.020 . S
Zn49 O52 2.025 . S
Zn49 O57 2.024 . S
Zn49 O59 2.039 . S
Zn49 O61 2.034 . S
O50 C34 1.251 . S
O50 Zn41 2.039 . S
C51 O56 1.246 . S
C51 O57 1.249 . S
O52 C34 1.254 . S
O52 Zn49 2.025 . S
H53 C45 0.952 . S
H54 C36 0.952 . S
H55 C44 0.948 . S
O56 Zn41 2.034 . S
O56 C51 1.246 . S
O57 Zn49 2.024 . S
O57 C51 1.249 . S
H58 C40 0.948 . S
O59 Zn49 2.039 . S
O59 C63 1.251 . S
O60 Zn41 2.025 . S
O60 C63 1.254 . S
O61 C42 1.246 . S
O61 Zn49 2.034 . S
O62 Zn41 2.024 . S
O62 C42 1.249 . S
C63 O59 1.251 . S
C63 O60 1.254 . S
H64 C37 0.949 . S
H65 C39 0.950 . S
H66 C46 0.949 . S
H67 C48 0.950 . S
C68 O84 1.251 1_455 S
C68 O86 1.254 1_455 S
N69 C70 1.333 . S
N69 C74 1.307 . S
N69 Zn75 2.020 . S
C70 N69 1.333 . S
C70 C71 1.379 . S
C70 H88 0.952 . S
C71 C70 1.379 . S
C71 C72 1.390 . S
C71 H98 0.949 1_655 S
C72 C71 1.390 . S
C72 C73 1.357 . S
C73 C72 1.357 . S
C73 C74 1.370 . S
C73 H99 0.950 . S
C74 N69 1.307 . S
C74 C73 1.370 . S
C74 H92 0.948 . S
Zn75 N69 2.020 . S
Zn75 O84 2.039 . S
Zn75 O90 2.034 . S
Zn75 O94 2.025 . S
Zn75 O96 2.024 . S
C76 O95 1.246 . S
C76 O96 1.249 . S
N77 C78 1.307 . S
N77 C79 1.333 . S
N77 Zn83 2.020 . S
C78 N77 1.307 . S
C78 C82 1.370 . S
C78 H89 0.948 . S
C79 N77 1.333 . S
C79 C80 1.379 . S
C79 H87 0.952 . S
C80 C79 1.379 . S
C80 C81 1.390 . S
C80 H100 0.949 . S
C81 C80 1.390 . S
C81 C82 1.357 . S
C82 C78 1.370 . S
C82 C81 1.357 . S
C82 H101 0.950 . S
Zn83 N77 2.020 . S
Zn83 O86 2.025 . S
Zn83 O91 2.024 . S
Zn83 O93 2.039 . S
Zn83 O95 2.034 . S
O84 C68 1.251 1_655 S
O84 Zn75 2.039 . S
C85 O90 1.246 . S
C85 O91 1.249 . S
O86 C68 1.254 1_655 S
O86 Zn83 2.025 . S
H87 C79 0.952 . S
H88 C70 0.952 . S
H89 C78 0.948 . S
O90 Zn75 2.034 . S
O90 C85 1.246 . S
O91 Zn83 2.024 . S
O91 C85 1.249 . S
H92 C74 0.948 . S
O93 Zn83 2.039 . S
O93 C97 1.251 . S
O94 Zn75 2.025 . S
O94 C97 1.254 . S
O95 C76 1.246 . S
O95 Zn83 2.034 . S
O96 Zn75 2.024 . S
O96 C76 1.249 . S
C97 O93 1.251 . S
C97 O94 1.254 . S
H98 C71 0.949 1_455 S
H99 C73 0.950 . S
H100 C80 0.949 . S
H101 C82 0.950 . S
C102 O118 1.251 . S
C102 O120 1.254 . S
N103 C104 1.333 . S
N103 C108 1.307 . S
N103 Zn109 2.020 . S
C104 N103 1.333 . S
C104 C105 1.379 . S
C104 H122 0.952 . S
C105 C104 1.379 . S
C105 C106 1.390 . S
C105 H132 0.949 . S
C106 C105 1.390 . S
C106 C107 1.357 . S
C107 C106 1.357 . S
C107 C108 1.370 . S
C107 H133 0.950 . S
C108 N103 1.307 . S
C108 C107 1.370 . S
C108 H126 0.948 . S
Zn109 N103 2.020 . S
Zn109 O118 2.039 . S
Zn109 O124 2.034 . S
Zn109 O128 2.025 . S
Zn109 O130 2.024 . S
C110 O129 1.246 . S
C110 O130 1.249 . S
N111 C112 1.307 . S
N111 C113 1.333 . S
N111 Zn117 2.020 . S
C112 N111 1.307 . S
C112 C116 1.370 . S
C112 H123 0.948 . S
C113 N111 1.333 . S
C113 C114 1.379 . S
C113 H121 0.952 . S
C114 C113 1.379 . S
C114 C115 1.390 . S
C114 H134 0.949 1_545 S
C115 C114 1.390 . S
C115 C116 1.357 . S
C116 C112 1.370 . S
C116 C115 1.357 . S
C116 H135 0.950 . S
Zn117 N111 2.020 . S
Zn117 O120 2.025 . S
Zn117 O125 2.024 . S
Zn117 O127 2.039 . S
Zn117 O129 2.034 . S
O118 C102 1.251 . S
O118 Zn109 2.039 . S
C119 O124 1.246 . S
C119 O125 1.249 . S
O120 C102 1.254 . S
O120 Zn117 2.025 . S
H121 C113 0.952 . S
H122 C104 0.952 . S
H123 C112 0.948 . S
O124 Zn109 2.034 . S
O124 C119 1.246 . S
O125 Zn117 2.024 . S
O125 C119 1.249 . S
H126 C108 0.948 . S
O127 Zn117 2.039 . S
O127 C131 1.251 1_545 S
O128 Zn109 2.025 . S
O128 C131 1.254 1_545 S
O129 C110 1.246 . S
O129 Zn117 2.034 . S
O130 Zn109 2.024 . S
O130 C110 1.249 . S
C131 O127 1.251 1_565 S
C131 O128 1.254 1_565 S
H132 C105 0.949 . S
H133 C107 0.950 . S
H134 C114 0.949 1_565 S
H135 C116 0.950 . S
C136 O152 1.251 . S
C136 O154 1.254 . S
N137 C138 1.333 . S
N137 C142 1.307 . S
N137 Zn143 2.020 . S
C138 N137 1.333 . S
C138 C139 1.379 . S
C138 H156 0.952 . S
C139 C138 1.379 . S
C139 C140 1.390 . S
C139 H166 0.949 . S
C140 C139 1.390 . S
C140 C141 1.357 . S
C141 C140 1.357 . S
C141 C142 1.370 . S
C141 H167 0.950 . S
C142 N137 1.307 . S
C142 C141 1.370 . S
C142 H160 0.948 . S
Zn143 N137 2.020 . S
Zn143 O152 2.039 . S
Zn143 O158 2.034 . S
Zn143 O162 2.025 . S
Zn143 O164 2.024 . S
C144 O163 1.246 . S
C144 O164 1.249 . S
N145 C146 1.307 . S
N145 C147 1.333 . S
N145 Zn151 2.020 . S
C146 N145 1.307 . S
C146 C150 1.370 . S
C146 H157 0.948 . S
C147 N145 1.333 . S
C147 C148 1.379 . S
C147 H155 0.952 . S
C148 C147 1.379 . S
C148 C149 1.390 . S
C148 H168 0.949 . S
C149 C148 1.390 . S
C149 C150 1.357 . S
C150 C146 1.370 . S
C150 C149 1.357 . S
C150 H169 0.950 . S
Zn151 N145 2.020 . S
Zn151 O154 2.025 . S
Zn151 O159 2.024 . S
Zn151 O161 2.039 . S
Zn151 O163 2.034 . S
O152 C136 1.251 . S
O152 Zn143 2.039 . S
C153 O158 1.246 . S
C153 O159 1.249 . S
O154 C136 1.254 . S
O154 Zn151 2.025 . S
H155 C147 0.952 . S
H156 C138 0.952 . S
H157 C146 0.948 . S
O158 Zn143 2.034 . S
O158 C153 1.246 . S
O159 Zn151 2.024 . S
O159 C153 1.249 . S
H160 C142 0.948 . S
O161 Zn151 2.039 . S
O161 C165 1.251 . S
O162 Zn143 2.025 . S
O162 C165 1.254 . S
O163 C144 1.246 . S
O163 Zn151 2.034 . S
O164 Zn143 2.024 . S
O164 C144 1.249 . S
C165 O161 1.251 . S
C165 O162 1.254 . S
H166 C139 0.949 . S
H167 C141 0.950 . S
H168 C148 0.949 . S
H169 C150 0.950 . S
C170 O186 1.251 . S
C170 O188 1.254 . S
N171 C172 1.333 . S
N171 C176 1.307 . S
N171 Zn177 2.020 . S
C172 N171 1.333 . S
C172 C173 1.379 . S
C172 H190 0.952 . S
C173 C172 1.379 . S
C173 C174 1.390 . S
C173 H200 0.949 . S
C174 C173 1.390 . S
C174 C175 1.357 . S
C175 C174 1.357 . S
C175 C176 1.370 . S
C175 H201 0.950 . S
C176 N171 1.307 . S
C176 C175 1.370 . S
C176 H194 0.948 . S
Zn177 N171 2.020 . S
Zn177 O186 2.039 . S
Zn177 O192 2.034 . S
Zn177 O196 2.025 . S
Zn177 O198 2.024 . S
C178 O197 1.246 . S
C178 O198 1.249 . S
N179 C180 1.307 . S
N179 C181 1.333 . S
N179 Zn185 2.020 . S
C180 N179 1.307 . S
C180 C184 1.370 . S
C180 H191 0.948 . S
C181 N179 1.333 . S
C181 C182 1.379 . S
C181 H189 0.952 . S
C182 C181 1.379 . S
C182 C183 1.390 . S
C182 H202 0.949 1_655 S
C183 C182 1.390 . S
C183 C184 1.357 . S
C184 C180 1.370 . S
C184 C183 1.357 . S
C184 H203 0.950 . S
Zn185 N179 2.020 . S
Zn185 O188 2.025 . S
Zn185 O193 2.024 . S
Zn185 O195 2.039 . S
Zn185 O197 2.034 . S
O186 C170 1.251 . S
O186 Zn177 2.039 . S
C187 O192 1.246 . S
C187 O193 1.249 . S
O188 C170 1.254 . S
O188 Zn185 2.025 . S
H189 C181 0.952 . S
H190 C172 0.952 . S
H191 C180 0.948 . S
O192 Zn177 2.034 . S
O192 C187 1.246 . S
O193 Zn185 2.024 . S
O193 C187 1.249 . S
H194 C176 0.948 . S
O195 Zn185 2.039 . S
O195 C199 1.251 1_655 S
O196 Zn177 2.025 . S
O196 C199 1.254 1_655 S
O197 C178 1.246 . S
O197 Zn185 2.034 . S
O198 Zn177 2.024 . S
O198 C178 1.249 . S
C199 O195 1.251 1_455 S
C199 O196 1.254 1_455 S
H200 C173 0.949 . S
H201 C175 0.950 . S
H202 C182 0.949 1_455 S
H203 C184 0.950 . S
C204 O220 1.251 . S
C204 O222 1.254 . S
N205 C206 1.333 . S
N205 C210 1.307 . S
N205 Zn211 2.020 . S
C206 N205 1.333 . S
C206 C207 1.379 . S
C206 H224 0.952 . S
C207 C206 1.379 . S
C207 C208 1.390 . S
C207 H234 0.949 . S
C208 C207 1.390 . S
C208 C209 1.357 . S
C209 C208 1.357 . S
C209 C210 1.370 . S
C209 H235 0.950 . S
C210 N205 1.307 . S
C210 C209 1.370 . S
C210 H228 0.948 . S
Zn211 N205 2.020 . S
Zn211 O220 2.039 . S
Zn211 O226 2.034 . S
Zn211 O230 2.025 . S
Zn211 O232 2.024 . S
C212 O231 1.246 . S
C212 O232 1.249 . S
N213 C214 1.307 . S
N213 C215 1.333 . S
N213 Zn219 2.020 . S
C214 N213 1.307 . S
C214 C218 1.370 . S
C214 H225 0.948 . S
C215 N213 1.333 . S
C215 C216 1.379 . S
C215 H223 0.952 . S
C216 C215 1.379 . S
C216 C217 1.390 . S
C216 H236 0.949 1_455 S
C217 C216 1.390 . S
C217 C218 1.357 . S
C218 C214 1.370 . S
C218 C217 1.357 . S
C218 H237 0.950 . S
Zn219 N213 2.020 . S
Zn219 O222 2.025 . S
Zn219 O227 2.024 . S
Zn219 O229 2.039 . S
Zn219 O231 2.034 . S
O220 C204 1.251 . S
O220 Zn211 2.039 . S
C221 O226 1.246 . S
C221 O227 1.249 . S
O222 C204 1.254 . S
O222 Zn219 2.025 . S
H223 C215 0.952 . S
H224 C206 0.952 . S
H225 C214 0.948 . S
O226 Zn211 2.034 . S
O226 C221 1.246 . S
O227 Zn219 2.024 . S
O227 C221 1.249 . S
H228 C210 0.948 . S
O229 Zn219 2.039 . S
O229 C233 1.251 1_455 S
O230 Zn211 2.025 . S
O230 C233 1.254 1_455 S
O231 C212 1.246 . S
O231 Zn219 2.034 . S
O232 Zn211 2.024 . S
O232 C212 1.249 . S
C233 O229 1.251 1_655 S
C233 O230 1.254 1_655 S
H234 C207 0.949 . S
H235 C209 0.950 . S
H236 C216 0.949 1_655 S
H237 C218 0.950 . S
C238 O254 1.251 1_545 S
C238 O256 1.254 1_545 S
N239 C240 1.333 . S
N239 C244 1.307 . S
N239 Zn245 2.020 . S
C240 N239 1.333 . S
C240 C241 1.379 . S
C240 H258 0.952 . S
C241 C240 1.379 . S
C241 C242 1.390 . S
C241 H268 0.949 1_565 S
C242 C241 1.390 . S
C242 C243 1.357 . S
C243 C242 1.357 . S
C243 C244 1.370 . S
C243 H269 0.950 . S
C244 N239 1.307 . S
C244 C243 1.370 . S
C244 H262 0.948 . S
Zn245 N239 2.020 . S
Zn245 O254 2.039 . S
Zn245 O260 2.034 . S
Zn245 O264 2.025 . S
Zn245 O266 2.024 . S
C246 O265 1.246 . S
C246 O266 1.249 . S
N247 C248 1.307 . S
N247 C249 1.333 . S
N247 Zn253 2.020 . S
C248 N247 1.307 . S
C248 C252 1.370 . S
C248 H259 0.948 . S
C249 N247 1.333 . S
C249 C250 1.379 . S
C249 H257 0.952 . S
C250 C249 1.379 . S
C250 C251 1.390 . S
C250 H270 0.949 . S
C251 C250 1.390 . S
C251 C252 1.357 . S
C252 C248 1.370 . S
C252 C251 1.357 . S
C252 H271 0.950 . S
Zn253 N247 2.020 . S
Zn253 O256 2.025 . S
Zn253 O261 2.024 . S
Zn253 O263 2.039 . S
Zn253 O265 2.034 . S
O254 C238 1.251 1_565 S
O254 Zn245 2.039 . S
C255 O260 1.246 . S
C255 O261 1.249 . S
O256 C238 1.254 1_565 S
O256 Zn253 2.025 . S
H257 C249 0.952 . S
H258 C240 0.952 . S
H259 C248 0.948 . S
O260 Zn245 2.034 . S
O260 C255 1.246 . S
O261 Zn253 2.024 . S
O261 C255 1.249 . S
H262 C244 0.948 . S
O263 Zn253 2.039 . S
O263 C267 1.251 . S
O264 Zn245 2.025 . S
O264 C267 1.254 . S
O265 C246 1.246 . S
O265 Zn253 2.034 . S
O266 Zn245 2.024 . S
O266 C246 1.249 . S
C267 O263 1.251 . S
C267 O264 1.254 . S
H268 C241 0.949 1_545 S
H269 C243 0.950 . S
H270 C250 0.949 . S
H271 C252 0.950 . S
C272 O288 1.251 . S
C272 O290 1.254 . S
N273 C274 1.333 . S
N273 C278 1.307 . S
N273 Zn279 2.020 . S
C274 N273 1.333 . S
C274 C275 1.379 . S
C274 H292 0.952 . S
C275 C274 1.379 . S
C275 C276 1.390 . S
C275 H302 0.949 . S
C276 C275 1.390 . S
C276 C277 1.357 . S
C277 C276 1.357 . S
C277 C278 1.370 . S
C277 H303 0.950 . S
C278 N273 1.307 . S
C278 C277 1.370 . S
C278 H296 0.948 . S
Zn279 N273 2.020 . S
Zn279 O288 2.039 . S
Zn279 O294 2.034 . S
Zn279 O298 2.025 . S
Zn279 O300 2.024 . S
C280 O299 1.246 . S
C280 O300 1.249 . S
N281 C282 1.307 . S
N281 C283 1.333 . S
N281 Zn287 2.020 . S
C282 N281 1.307 . S
C282 C286 1.370 . S
C282 H293 0.948 . S
C283 N281 1.333 . S
C283 C284 1.379 . S
C283 H291 0.952 . S
C284 C283 1.379 . S
C284 C285 1.390 . S
C284 H304 0.949 . S
C285 C284 1.390 . S
C285 C286 1.357 . S
C286 C282 1.370 . S
C286 C285 1.357 . S
C286 H305 0.950 . S
Zn287 N281 2.020 . S
Zn287 O290 2.025 . S
Zn287 O295 2.024 . S
Zn287 O297 2.039 . S
Zn287 O299 2.034 . S
O288 C272 1.251 . S
O288 Zn279 2.039 . S
C289 O294 1.246 . S
C289 O295 1.249 . S
O290 C272 1.254 . S
O290 Zn287 2.025 . S
H291 C283 0.952 . S
H292 C274 0.952 . S
H293 C282 0.948 . S
O294 Zn279 2.034 . S
O294 C289 1.246 . S
O295 Zn287 2.024 . S
O295 C289 1.249 . S
H296 C278 0.948 . S
O297 Zn287 2.039 . S
O297 C301 1.251 . S
O298 Zn279 2.025 . S
O298 C301 1.254 . S
O299 C280 1.246 . S
O299 Zn287 2.034 . S
O300 Zn279 2.024 . S
O300 C280 1.249 . S
C301 O297 1.251 . S
C301 O298 1.254 . S
H302 C275 0.949 . S
H303 C277 0.950 . S
H304 C284 0.949 . S
H305 C286 0.950 . S
C306 O322 1.251 1_655 S
C306 O324 1.254 1_655 S
N307 C308 1.333 . S
N307 C312 1.307 . S
N307 Zn313 2.020 . S
C308 N307 1.333 . S
C308 C309 1.379 . S
C308 H326 0.952 . S
C309 C308 1.379 . S
C309 C310 1.390 . S
C309 H336 0.949 1_455 S
C310 C309 1.390 . S
C310 C311 1.357 . S
C311 C310 1.357 . S
C311 C312 1.370 . S
C311 H337 0.950 . S
C312 N307 1.307 . S
C312 C311 1.370 . S
C312 H330 0.948 . S
Zn313 N307 2.020 . S
Zn313 O322 2.039 . S
Zn313 O328 2.034 . S
Zn313 O332 2.025 . S
Zn313 O334 2.024 . S
C314 O333 1.246 . S
C314 O334 1.249 . S
N315 C316 1.307 . S
N315 C317 1.333 . S
N315 Zn321 2.020 . S
C316 N315 1.307 . S
C316 C320 1.370 . S
C316 H327 0.948 . S
C317 N315 1.333 . S
C317 C318 1.379 . S
C317 H325 0.952 . S
C318 C317 1.379 . S
C318 C319 1.390 . S
C318 H338 0.949 . S
C319 C318 1.390 . S
C319 C320 1.357 . S
C320 C316 1.370 . S
C320 C319 1.357 . S
C320 H339 0.950 . S
Zn321 N315 2.020 . S
Zn321 O324 2.025 . S
Zn321 O329 2.024 . S
Zn321 O331 2.039 . S
Zn321 O333 2.034 . S
O322 C306 1.251 1_455 S
O322 Zn313 2.039 . S
C323 O328 1.246 . S
C323 O329 1.249 . S
O324 C306 1.254 1_455 S
O324 Zn321 2.025 . S
H325 C317 0.952 . S
H326 C308 0.952 . S
H327 C316 0.948 . S
O328 Zn313 2.034 . S
O328 C323 1.246 . S
O329 Zn321 2.024 . S
O329 C323 1.249 . S
H330 C312 0.948 . S
O331 Zn321 2.039 . S
O331 C335 1.251 . S
O332 Zn313 2.025 . S
O332 C335 1.254 . S
O333 C314 1.246 . S
O333 Zn321 2.034 . S
O334 Zn313 2.024 . S
O334 C314 1.249 . S
C335 O331 1.251 . S
C335 O332 1.254 . S
H336 C309 0.949 1_655 S
H337 C311 0.950 . S
H338 C318 0.949 . S
H339 C320 0.950 . S
C340 O356 1.251 . S
C340 O358 1.254 . S
N341 C342 1.333 . S
N341 C346 1.307 . S
N341 Zn347 2.020 . S
C342 N341 1.333 . S
C342 C343 1.379 . S
C342 H360 0.952 . S
C343 C342 1.379 . S
C343 C344 1.390 . S
C343 H370 0.949 . S
C344 C343 1.390 . S
C344 C345 1.357 . S
C345 C344 1.357 . S
C345 C346 1.370 . S
C345 H371 0.950 . S
C346 N341 1.307 . S
C346 C345 1.370 . S
C346 H364 0.948 . S
Zn347 N341 2.020 . S
Zn347 O356 2.039 . S
Zn347 O362 2.034 . S
Zn347 O366 2.025 . S
Zn347 O368 2.024 . S
C348 O367 1.246 . S
C348 O368 1.249 . S
N349 C350 1.307 . S
N349 C351 1.333 . S
N349 Zn355 2.020 . S
C350 N349 1.307 . S
C350 C354 1.370 . S
C350 H361 0.948 . S
C351 N349 1.333 . S
C351 C352 1.379 . S
C351 H359 0.952 . S
C352 C351 1.379 . S
C352 C353 1.390 . S
C352 H372 0.949 1_565 S
C353 C352 1.390 . S
C353 C354 1.357 . S
C354 C350 1.370 . S
C354 C353 1.357 . S
C354 H373 0.950 . S
Zn355 N349 2.020 . S
Zn355 O358 2.025 . S
Zn355 O363 2.024 . S
Zn355 O365 2.039 . S
Zn355 O367 2.034 . S
O356 C340 1.251 . S
O356 Zn347 2.039 . S
C357 O362 1.246 . S
C357 O363 1.249 . S
O358 C340 1.254 . S
O358 Zn355 2.025 . S
H359 C351 0.952 . S
H360 C342 0.952 . S
H361 C350 0.948 . S
O362 Zn347 2.034 . S
O362 C357 1.246 . S
O363 Zn355 2.024 . S
O363 C357 1.249 . S
H364 C346 0.948 . S
O365 Zn355 2.039 . S
O365 C369 1.251 1_565 S
O366 Zn347 2.025 . S
O366 C369 1.254 1_565 S
O367 C348 1.246 . S
O367 Zn355 2.034 . S
O368 Zn347 2.024 . S
O368 C348 1.249 . S
C369 O365 1.251 1_545 S
C369 O366 1.254 1_545 S
H370 C343 0.949 . S
H371 C345 0.950 . S
H372 C352 0.949 1_545 S
H373 C354 0.950 . S
C374 O390 1.251 . S
C374 O392 1.254 . S
N375 C376 1.333 . S
N375 C380 1.307 . S
N375 Zn381 2.020 . S
C376 N375 1.333 . S
C376 C377 1.379 . S
C376 H394 0.952 . S
C377 C376 1.379 . S
C377 C378 1.390 . S
C377 H404 0.949 . S
C378 C377 1.390 . S
C378 C379 1.357 . S
C379 C378 1.357 . S
C379 C380 1.370 . S
C379 H405 0.950 . S
C380 N375 1.307 . S
C380 C379 1.370 . S
C380 H398 0.948 . S
Zn381 N375 2.020 . S
Zn381 O390 2.039 . S
Zn381 O396 2.034 . S
Zn381 O400 2.025 . S
Zn381 O402 2.024 . S
C382 O401 1.246 . S
C382 O402 1.249 . S
N383 C384 1.307 . S
N383 C385 1.333 . S
N383 Zn389 2.020 . S
C384 N383 1.307 . S
C384 C388 1.370 . S
C384 H395 0.948 . S
C385 N383 1.333 . S
C385 C386 1.379 . S
C385 H393 0.952 . S
C386 C385 1.379 . S
C386 C387 1.390 . S
C386 H406 0.949 . S
C387 C386 1.390 . S
C387 C388 1.357 . S
C388 C384 1.370 . S
C388 C387 1.357 . S
C388 H407 0.950 . S
Zn389 N383 2.020 . S
Zn389 O392 2.025 . S
Zn389 O397 2.024 . S
Zn389 O399 2.039 . S
Zn389 O401 2.034 . S
O390 C374 1.251 . S
O390 Zn381 2.039 . S
C391 O396 1.246 . S
C391 O397 1.249 . S
O392 C374 1.254 . S
O392 Zn389 2.025 . S
H393 C385 0.952 . S
H394 C376 0.952 . S
H395 C384 0.948 . S
O396 Zn381 2.034 . S
O396 C391 1.246 . S
O397 Zn389 2.024 . S
O397 C391 1.249 . S
H398 C380 0.948 . S
O399 Zn389 2.039 . S
O399 C403 1.251 . S
O400 Zn381 2.025 . S
O400 C403 1.254 . S
O401 C382 1.246 . S
O401 Zn389 2.034 . S
O402 Zn381 2.024 . S
O402 C382 1.249 . S
C403 O399 1.251 . S
C403 O400 1.254 . S
H404 C377 0.949 . S
H405 C379 0.950 . S
H406 C386 0.949 . S
H407 C388 0.950 . S
C408 C409 1.369 . S
C408 C410 1.419 . S
C408 H412 0.930 . S
C409 C408 1.369 . S
C409 C418 1.429 . S
C410 C408 1.419 . S
C410 C411 1.363 . S
C410 H413 0.929 . S
C411 C410 1.363 . S
C411 C417 1.428 . S
H412 C408 0.930 . S
H413 C410 0.929 . S
S414 N415 1.613 . S
S414 N416 1.610 . S
N415 S414 1.613 . S
N415 C418 1.350 . S
N416 S414 1.610 . S
N416 C417 1.351 . S
C417 C411 1.428 . S
C417 N416 1.351 . S
C417 C418 1.434 . S
C418 C409 1.429 . S
C418 N415 1.350 . S
C418 C417 1.434 . S
C419 C420 1.369 . S
C419 C421 1.419 . S
C419 H423 0.930 . S
C420 C419 1.369 . S
C420 C429 1.429 . S
C421 C419 1.419 . S
C421 C422 1.363 . S
C421 H424 0.929 . S
C422 C421 1.363 . S
C422 C428 1.428 . S
H423 C419 0.930 . S
H424 C421 0.929 . S
S425 N426 1.613 . S
S425 N427 1.610 . S
N426 S425 1.613 . S
N426 C429 1.350 . S
N427 S425 1.610 . S
N427 C428 1.351 . S
C428 C422 1.428 . S
C428 N427 1.351 . S
C428 C429 1.434 . S
C429 C420 1.429 . S
C429 N426 1.350 . S
C429 C428 1.434 . S
C430 C431 1.369 . S
C430 C432 1.419 . S
C430 H434 0.930 . S
C431 C430 1.369 . S
C431 C440 1.429 . S
C432 C430 1.419 . S
C432 C433 1.363 . S
C432 H435 0.929 . S
C433 C432 1.363 . S
C433 C439 1.428 . S
H434 C430 0.930 . S
H435 C432 0.929 . S
S436 N437 1.613 . S
S436 N438 1.610 . S
N437 S436 1.613 . S
N437 C440 1.350 . S
N438 S436 1.610 . S
N438 C439 1.351 . S
C439 C433 1.428 . S
C439 N438 1.351 . S
C439 C440 1.434 . S
C440 C431 1.429 . S
C440 N437 1.350 . S
C440 C439 1.434 . S
C441 C442 1.369 . S
C441 C443 1.419 . S
C441 H445 0.930 . S
C442 C441 1.369 . S
C442 C451 1.429 . S
C443 C441 1.419 . S
C443 C444 1.363 . S
C443 H446 0.929 . S
C444 C443 1.363 . S
C444 C450 1.428 . S
H445 C441 0.930 . S
H446 C443 0.929 . S
S447 N448 1.613 . S
S447 N449 1.610 . S
N448 S447 1.613 . S
N448 C451 1.350 . S
N449 S447 1.610 . S
N449 C450 1.351 . S
C450 C444 1.428 . S
C450 N449 1.351 . S
C450 C451 1.434 . S
C451 C442 1.429 . S
C451 N448 1.350 . S
C451 C450 1.434 . S
C452 C453 1.369 . S
C452 C454 1.419 . S
C452 H456 0.930 . S
C453 C452 1.369 . S
C453 C462 1.429 . S
C454 C452 1.419 . S
C454 C455 1.363 . S
C454 H457 0.929 . S
C455 C454 1.363 . S
C455 C461 1.428 . S
H456 C452 0.930 . S
H457 C454 0.929 . S
S458 N459 1.613 . S
S458 N460 1.610 1_445 S
N459 S458 1.613 . S
N459 C462 1.350 1_545 S
N460 S458 1.610 1_665 S
N460 C461 1.351 1_655 S
C461 C455 1.428 . S
C461 N460 1.351 1_455 S
C461 C462 1.434 . S
C462 C453 1.429 . S
C462 N459 1.350 1_565 S
C462 C461 1.434 . S
C463 C464 1.369 . S
C463 C465 1.419 . S
C463 H467 0.930 . S
C464 C463 1.369 . S
C464 C473 1.429 . S
C465 C463 1.419 . S
C465 C466 1.363 . S
C465 H468 0.929 . S
C466 C465 1.363 . S
C466 C472 1.428 . S
H467 C463 0.930 . S
H468 C465 0.929 . S
S469 N470 1.613 . S
S469 N471 1.610 . S
N470 S469 1.613 . S
N470 C473 1.350 . S
N471 S469 1.610 . S
N471 C472 1.351 . S
C472 C466 1.428 . S
C472 N471 1.351 . S
C472 C473 1.434 . S
C473 C464 1.429 . S
C473 N470 1.350 . S
C473 C472 1.434 . S
C474 C475 1.369 . S
C474 C476 1.419 . S
C474 H478 0.930 . S
C475 C474 1.369 . S
C475 C484 1.429 . S
C476 C474 1.419 . S
C476 C477 1.363 . S
C476 H479 0.929 . S
C477 C476 1.363 . S
C477 C483 1.428 . S
H478 C474 0.930 . S
H479 C476 0.929 . S
S480 N481 1.613 . S
S480 N482 1.610 . S
N481 S480 1.613 . S
N481 C484 1.350 . S
N482 S480 1.610 . S
N482 C483 1.351 . S
C483 C477 1.428 . S
C483 N482 1.351 . S
C483 C484 1.434 . S
C484 C475 1.429 . S
C484 N481 1.350 . S
C484 C483 1.434 . S
C485 C486 1.369 . S
C485 C487 1.419 . S
C485 H489 0.930 . S
C486 C485 1.369 . S
C486 C495 1.429 . S
C487 C485 1.419 . S
C487 C488 1.363 . S
C487 H490 0.929 . S
C488 C487 1.363 . S
C488 C494 1.428 . S
H489 C485 0.930 . S
H490 C487 0.929 . S
S491 N492 1.605 1_655 S
S491 N493 1.610 . S
N492 S491 1.605 1_455 S
N492 C495 1.348 1_455 S
N493 S491 1.610 . S
N493 C494 1.351 . S
C494 C488 1.428 . S
C494 N493 1.351 . S
C494 C495 1.434 . S
C495 C486 1.429 . S
C495 N492 1.348 1_655 S
C495 C494 1.434 . S
C496 C497 1.369 . S
C496 C498 1.419 . S
C496 H500 0.930 1_545 S
C497 C496 1.369 . S
C497 C506 1.429 . S
C498 C496 1.419 . S
C498 C499 1.363 . S
C498 H501 0.929 1_655 S
C499 C498 1.363 . S
C499 C505 1.428 . S
H500 C496 0.930 1_565 S
H501 C498 0.929 1_455 S
S502 N503 1.613 . S
S502 N504 1.610 . S
N503 S502 1.613 . S
N503 C506 1.350 . S
N504 S502 1.610 . S
N504 C505 1.351 . S
C505 C499 1.428 . S
C505 N504 1.351 . S
C505 C506 1.434 . S
C506 C497 1.429 . S
C506 N503 1.350 . S
C506 C505 1.434 . S
C507 C508 1.369 . S
C507 C509 1.419 . S
C507 H511 0.930 . S
C508 C507 1.369 . S
C508 C517 1.429 . S
C509 C507 1.419 . S
C509 C510 1.363 . S
C509 H512 0.929 . S
C510 C509 1.363 . S
C510 C516 1.428 . S
H511 C507 0.930 . S
H512 C509 0.929 . S
S513 N514 1.613 . S
S513 N515 1.610 . S
N514 S513 1.613 . S
N514 C517 1.350 . S
N515 S513 1.610 . S
N515 C516 1.351 . S
C516 C510 1.428 . S
C516 N515 1.351 . S
C516 C517 1.434 . S
C517 C508 1.429 . S
C517 N514 1.350 . S
C517 C516 1.434 . S
C518 C519 1.369 . S
C518 C520 1.419 . S
C518 H522 0.930 . S
C519 C518 1.369 . S
C519 C528 1.429 . S
C520 C518 1.419 . S
C520 C521 1.363 . S
C520 H523 0.929 . S
C521 C520 1.363 . S
C521 C527 1.428 . S
H522 C518 0.930 . S
H523 C520 0.929 . S
S524 N525 1.613 1_655 S
S524 N526 1.610 . S
N525 S524 1.613 1_455 S
N525 C528 1.350 1_455 S
N526 S524 1.610 . S
N526 C527 1.351 . S
C527 C521 1.428 . S
C527 N526 1.351 . S
C527 C528 1.434 . S
C528 C519 1.429 . S
C528 N525 1.350 1_655 S
C528 C527 1.434 . S
C529 C530 1.369 . S
C529 C531 1.419 . S
C529 H533 0.930 1_655 S
C530 C529 1.369 . S
C530 C539 1.429 . S
C531 C529 1.419 . S
C531 C532 1.363 . S
C531 H534 0.929 1_545 S
C532 C531 1.363 . S
C532 C538 1.428 . S
H533 C529 0.930 1_455 S
H534 C531 0.929 1_565 S
S535 N536 1.613 . S
S535 N537 1.610 . S
N536 S535 1.613 . S
N536 C539 1.350 . S
N537 S535 1.610 . S
N537 C538 1.351 . S
C538 C532 1.428 . S
C538 N537 1.351 . S
C538 C539 1.434 . S
C539 C530 1.429 . S
C539 N536 1.350 . S
C539 C538 1.434 . S
C540 C541 1.369 . S
C540 C542 1.419 . S
C540 H544 0.930 . S
C541 C540 1.369 . S
C541 C550 1.429 . S
C542 C540 1.419 . S
C542 C543 1.363 . S
C542 H545 0.929 . S
C543 C542 1.363 . S
C543 C549 1.428 . S
H544 C540 0.930 . S
H545 C542 0.929 . S
S546 N547 1.613 . S
S546 N548 1.610 . S
N547 S546 1.613 . S
N547 C550 1.350 . S
N548 S546 1.610 . S
N548 C549 1.351 . S
C549 C543 1.428 . S
C549 N548 1.351 . S
C549 C550 1.434 . S
C550 C541 1.429 . S
C550 N547 1.350 . S
C550 C549 1.434 . S
C551 C552 1.369 . S
C551 C553 1.419 . S
C551 H555 0.930 . S
C552 C551 1.369 . S
C552 C561 1.429 . S
C553 C551 1.419 . S
C553 C554 1.363 . S
C553 H556 0.929 . S
C554 C553 1.363 . S
C554 C560 1.428 . S
H555 C551 0.930 . S
H556 C553 0.929 . S
S557 N558 1.613 . S
S557 N559 1.610 . S
N558 S557 1.613 . S
N558 C561 1.350 . S
N559 S557 1.610 . S
N559 C560 1.351 . S
C560 C554 1.428 . S
C560 N559 1.351 . S
C560 C561 1.434 . S
C561 C552 1.429 . S
C561 N558 1.350 . S
C561 C560 1.434 . S
C562 C563 1.369 . S
C562 C564 1.419 . S
C562 H566 0.930 . S
C563 C562 1.369 . S
C563 C572 1.429 . S
C564 C562 1.419 . S
C564 C565 1.363 . S
C564 H567 0.929 . S
C565 C564 1.363 . S
C565 C571 1.428 . S
H566 C562 0.930 . S
H567 C564 0.929 . S
S568 N569 1.613 . S
S568 N570 1.610 . S
N569 S568 1.613 . S
N569 C572 1.350 . S
N570 S568 1.610 . S
N570 C571 1.351 . S
C571 C565 1.428 . S
C571 N570 1.351 . S
C571 C572 1.434 . S
C572 C563 1.429 . S
C572 N569 1.350 . S
C572 C571 1.434 . S
C573 C574 1.369 . S
C573 C575 1.419 . S
C573 H577 0.930 . S
C574 C573 1.369 . S
C574 C583 1.429 . S
C575 C573 1.419 . S
C575 C576 1.363 . S
C575 H578 0.929 . S
C576 C575 1.363 . S
C576 C582 1.428 . S
H577 C573 0.930 . S
H578 C575 0.929 . S
S579 N580 1.613 . S
S579 N581 1.610 . S
N580 S579 1.613 . S
N580 C583 1.350 . S
N581 S579 1.610 . S
N581 C582 1.351 . S
C582 C576 1.428 . S
C582 N581 1.351 . S
C582 C583 1.434 . S
C583 C574 1.429 . S
C583 N580 1.350 . S
C583 C582 1.434 . S
C584 C585 1.369 . S
C584 C586 1.419 . S
C584 H588 0.930 . S
C585 C584 1.369 . S
C585 C594 1.429 . S
C586 C584 1.419 . S
C586 C587 1.363 . S
C586 H589 0.929 . S
C587 C586 1.363 . S
C587 C593 1.428 . S
H588 C584 0.930 . S
H589 C586 0.929 . S
S590 N591 1.613 . S
S590 N592 1.610 . S
N591 S590 1.613 . S
N591 C594 1.350 . S
N592 S590 1.610 . S
N592 C593 1.351 . S
C593 C587 1.428 . S
C593 N592 1.351 . S
C593 C594 1.434 . S
C594 C585 1.429 . S
C594 N591 1.350 . S
C594 C593 1.434 . S
C595 C596 1.369 . S
C595 C597 1.419 . S
C595 H599 0.930 . S
C596 C595 1.369 . S
C596 C605 1.429 . S
C597 C595 1.419 . S
C597 C598 1.363 . S
C597 H600 0.929 . S
C598 C597 1.363 . S
C598 C604 1.428 . S
H599 C595 0.930 . S
H600 C597 0.929 . S
S601 N602 1.613 . S
S601 N603 1.610 . S
N602 S601 1.613 . S
N602 C605 1.350 . S
N603 S601 1.610 . S
N603 C604 1.351 . S
C604 C598 1.428 . S
C604 N603 1.351 . S
C604 C605 1.434 . S
C605 C596 1.429 . S
C605 N602 1.350 . S
C605 C604 1.434 . S
C606 C607 1.369 1_545 S
C606 C608 1.411 1_556 S
C606 H610 0.930 . S
C607 C606 1.369 1_565 S
C607 C616 1.397 1_556 S
C608 C606 1.411 1_554 S
C608 C609 1.371 . S
C608 H611 0.928 1_554 S
C609 C608 1.371 . S
C609 C615 1.428 1_545 S
H610 C606 0.930 . S
H611 C608 0.928 1_556 S
S612 N613 1.613 . S
S612 N614 1.610 . S
N613 S612 1.613 . S
N613 C616 1.357 . S
N614 S612 1.610 . S
N614 C615 1.351 . S
C615 C609 1.428 1_565 S
C615 N614 1.351 . S
C615 C616 1.465 . S
C616 C607 1.397 1_554 S
C616 N613 1.357 . S
C616 C615 1.465 . S
C617 C618 1.369 . S
C617 C619 1.419 . S
C617 H621 0.930 . S
C618 C617 1.369 . S
C618 C627 1.429 . S
C619 C617 1.419 . S
C619 C620 1.363 . S
C619 H622 0.929 . S
C620 C619 1.363 . S
C620 C626 1.428 . S
H621 C617 0.930 . S
H622 C619 0.929 . S
S623 N624 1.613 . S
S623 N625 1.610 . S
N624 S623 1.613 . S
N624 C627 1.350 . S
N625 S623 1.610 . S
N625 C626 1.351 . S
C626 C620 1.428 . S
C626 N625 1.351 . S
C626 C627 1.434 . S
C627 C618 1.429 . S
C627 N624 1.350 . S
C627 C626 1.434 . S
C628 C629 1.369 . S
C628 C630 1.419 1_456 S
C628 H632 0.930 . S
C629 C628 1.369 . S
C629 C638 1.429 . S
C630 C628 1.419 1_654 S
C630 C631 1.363 . S
C630 H633 0.929 . S
C631 C630 1.363 . S
C631 C637 1.428 . S
H632 C628 0.930 . S
H633 C630 0.929 . S
S634 N635 1.613 1_655 S
S634 N636 1.610 1_556 S
N635 S634 1.613 1_455 S
N635 C638 1.350 . S
N636 S634 1.610 1_554 S
N636 C637 1.351 . S
C637 C631 1.428 . S
C637 N636 1.351 . S
C637 C638 1.434 1_654 S
C638 C629 1.429 . S
C638 N635 1.350 . S
C638 C637 1.434 1_456 S
C639 C640 1.369 . S
C639 C641 1.419 1_545 S
C639 H643 0.930 . S
C640 C639 1.369 . S
C640 C649 1.429 . S
C641 C639 1.419 1_565 S
C641 C642 1.363 . S
C641 H644 0.929 . S
C642 C641 1.363 . S
C642 C648 1.428 . S
H643 C639 0.930 . S
H644 C641 0.929 . S
S645 N646 1.613 . S
S645 N647 1.610 1_545 S
N646 S645 1.613 . S
N646 C649 1.350 . S
N647 S645 1.610 1_565 S
N647 C648 1.351 . S
C648 C642 1.428 . S
C648 N647 1.351 . S
C648 C649 1.434 1_565 S
C649 C640 1.429 . S
C649 N646 1.350 . S
C649 C648 1.434 1_545 S
C650 C651 1.369 . S
C650 C652 1.419 1_554 S
C650 H654 0.930 . S
C651 C650 1.369 . S
C651 C660 1.429 . S
C652 C650 1.419 1_556 S
C652 C653 1.363 . S
C652 H655 0.929 . S
C653 C652 1.363 . S
C653 C659 1.428 . S
H654 C650 0.930 . S
H655 C652 0.929 . S
S656 N657 1.613 . S
S656 N658 1.610 1_554 S
N657 S656 1.613 . S
N657 C660 1.350 . S
N658 S656 1.610 1_556 S
N658 C659 1.351 . S
C659 C653 1.428 . S
C659 N658 1.351 . S
C659 C660 1.434 1_556 S
C660 C651 1.429 . S
C660 N657 1.350 . S
C660 C659 1.434 1_554 S
C661 C662 1.369 . S
C661 C663 1.419 . S
C661 H665 0.930 . S
C662 C661 1.369 . S
C662 C671 1.429 1_455 S
C663 C661 1.419 . S
C663 C664 1.363 1_455 S
C663 H666 0.929 . S
C664 C663 1.363 1_655 S
C664 C670 1.428 . S
H665 C661 0.930 . S
H666 C663 0.929 . S
S667 N668 1.613 . S
S667 N669 1.610 . S
N668 S667 1.613 . S
N668 C671 1.350 . S
N669 S667 1.610 . S
N669 C670 1.351 . S
C670 C664 1.428 . S
C670 N669 1.351 . S
C670 C671 1.434 . S
C671 C662 1.429 1_655 S
C671 N668 1.350 . S
C671 C670 1.434 . S
C672 C673 1.369 . S
C672 C674 1.419 . S
C672 H676 0.930 . S
C673 C672 1.369 . S
C673 C682 1.429 . S
C674 C672 1.419 . S
C674 C675 1.363 . S
C674 H677 0.929 . S
C675 C674 1.363 . S
C675 C681 1.428 . S
H676 C672 0.930 . S
H677 C674 0.929 . S
S678 N679 1.613 . S
S678 N680 1.610 . S
N679 S678 1.613 . S
N679 C682 1.350 . S
N680 S678 1.610 . S
N680 C681 1.351 . S
C681 C675 1.428 . S
C681 N680 1.351 . S
C681 C682 1.434 . S
C682 C673 1.429 . S
C682 N679 1.350 . S
C682 C681 1.434 . S
C683 C684 1.369 . S
C683 C685 1.419 . S
C683 H687 0.930 . S
C684 C683 1.369 . S
C684 C693 1.429 . S
C685 C683 1.419 . S
C685 C686 1.363 . S
C685 H688 0.929 . S
C686 C685 1.363 . S
C686 C692 1.428 . S
H687 C683 0.930 . S
H688 C685 0.929 . S
S689 N690 1.613 . S
S689 N691 1.610 . S
N690 S689 1.613 . S
N690 C693 1.350 . S
N691 S689 1.610 . S
N691 C692 1.351 . S
C692 C686 1.428 . S
C692 N691 1.351 . S
C692 C693 1.434 . S
C693 C684 1.429 . S
C693 N690 1.350 . S
C693 C692 1.434 . S
C694 C695 1.369 . S
C694 C696 1.419 . S
C694 H698 0.930 . S
C695 C694 1.369 . S
C695 C704 1.429 . S
C696 C694 1.419 . S
C696 C697 1.363 . S
C696 H699 0.929 . S
C697 C696 1.363 . S
C697 C703 1.428 . S
H698 C694 0.930 . S
H699 C696 0.929 . S
S700 N701 1.613 . S
S700 N702 1.610 . S
N701 S700 1.613 . S
N701 C704 1.350 . S
N702 S700 1.610 . S
N702 C703 1.351 . S
C703 C697 1.428 . S
C703 N702 1.351 . S
C703 C704 1.434 . S
C704 C695 1.429 . S
C704 N701 1.350 . S
C704 C703 1.434 . S
C705 C706 1.369 . S
C705 C707 1.419 . S
C705 H709 0.930 . S
C706 C705 1.369 . S
C706 C715 1.429 . S
C707 C705 1.419 . S
C707 C708 1.363 . S
C707 H710 0.929 . S
C708 C707 1.363 . S
C708 C714 1.428 . S
H709 C705 0.930 . S
H710 C707 0.929 . S
S711 N712 1.613 . S
S711 N713 1.610 . S
N712 S711 1.613 . S
N712 C715 1.350 . S
N713 S711 1.610 . S
N713 C714 1.351 . S
C714 C708 1.428 . S
C714 N713 1.351 . S
C714 C715 1.434 . S
C715 C706 1.429 . S
C715 N712 1.350 . S
C715 C714 1.434 . S
C716 C717 1.369 . S
C716 C718 1.419 . S
C716 H720 0.930 . S
C717 C716 1.369 . S
C717 C726 1.429 . S
C718 C716 1.419 . S
C718 C719 1.363 . S
C718 H721 0.929 . S
C719 C718 1.363 . S
C719 C725 1.428 . S
H720 C716 0.930 . S
H721 C718 0.929 . S
S722 N723 1.613 . S
S722 N724 1.610 . S
N723 S722 1.613 . S
N723 C726 1.350 . S
N724 S722 1.610 . S
N724 C725 1.351 . S
C725 C719 1.428 . S
C725 N724 1.351 . S
C725 C726 1.434 . S
C726 C717 1.429 . S
C726 N723 1.350 . S
C726 C725 1.434 . S
C727 C728 1.369 . S
C727 C729 1.419 . S
C727 H731 0.930 . S
C728 C727 1.369 . S
C728 C737 1.429 . S
C729 C727 1.419 . S
C729 C730 1.363 . S
C729 H732 0.929 . S
C730 C729 1.363 . S
C730 C736 1.428 . S
H731 C727 0.930 . S
H732 C729 0.929 . S
S733 N734 1.613 1_455 S
S733 N735 1.610 . S
N734 S733 1.613 1_655 S
N734 C737 1.350 . S
N735 S733 1.610 . S
N735 C736 1.351 1_455 S
C736 C730 1.428 . S
C736 N735 1.351 1_655 S
C736 C737 1.434 . S
C737 C728 1.429 . S
C737 N734 1.350 . S
C737 C736 1.434 . S
C738 C739 1.369 . S
C738 C740 1.419 . S
C738 H742 0.930 . S
C739 C738 1.369 . S
C739 C748 1.429 . S
C740 C738 1.419 . S
C740 C741 1.363 . S
C740 H743 0.929 . S
C741 C740 1.363 . S
C741 C747 1.428 . S
H742 C738 0.930 . S
H743 C740 0.929 . S
S744 N745 1.613 . S
S744 N746 1.610 . S
N745 S744 1.613 . S
N745 C748 1.350 . S
N746 S744 1.610 . S
N746 C747 1.351 . S
C747 C741 1.428 . S
C747 N746 1.351 . S
C747 C748 1.434 . S
C748 C739 1.429 . S
C748 N745 1.350 . S
C748 C747 1.434 . S
C749 C750 1.369 . S
C749 C751 1.419 . S
C749 H753 0.930 . S
C750 C749 1.369 . S
C750 C759 1.429 . S
C751 C749 1.419 . S
C751 C752 1.363 . S
C751 H754 0.929 . S
C752 C751 1.363 . S
C752 C758 1.428 . S
H753 C749 0.930 . S
H754 C751 0.929 . S
S755 N756 1.613 . S
S755 N757 1.610 . S
N756 S755 1.613 . S
N756 C759 1.350 . S
N757 S755 1.610 . S
N757 C758 1.351 . S
C758 C752 1.428 . S
C758 N757 1.351 . S
C758 C759 1.434 . S
C759 C750 1.429 . S
C759 N756 1.350 . S
C759 C758 1.434 . S
C760 C761 1.369 . S
C760 C762 1.419 . S
C760 H764 0.930 . S
C761 C760 1.369 . S
C761 C770 1.429 . S
C762 C760 1.419 . S
C762 C763 1.363 . S
C762 H765 0.929 . S
C763 C762 1.363 . S
C763 C769 1.428 . S
H764 C760 0.930 . S
H765 C762 0.929 . S
S766 N767 1.613 . S
S766 N768 1.610 . S
N767 S766 1.613 . S
N767 C770 1.350 . S
N768 S766 1.610 . S
N768 C769 1.351 . S
C769 C763 1.428 . S
C769 N768 1.351 . S
C769 C770 1.434 . S
C770 C761 1.429 . S
C770 N767 1.350 . S
C770 C769 1.434 . S
C771 C772 1.369 . S
C771 C773 1.419 . S
C771 H775 0.930 . S
C772 C771 1.369 . S
C772 C781 1.429 . S
C773 C771 1.419 . S
C773 C774 1.363 . S
C773 H776 0.929 . S
C774 C773 1.363 . S
C774 C780 1.428 . S
H775 C771 0.930 . S
H776 C773 0.929 . S
S777 N778 1.613 . S
S777 N779 1.610 . S
N778 S777 1.613 . S
N778 C781 1.350 . S
N779 S777 1.610 . S
N779 C780 1.351 . S
C780 C774 1.428 . S
C780 N779 1.351 . S
C780 C781 1.434 . S
C781 C772 1.429 . S
C781 N778 1.350 . S
C781 C780 1.434 . S
C782 C783 1.369 . S
C782 C784 1.419 . S
C782 H786 0.933 . S
C783 C782 1.369 . S
C783 C792 1.429 . S
C784 C782 1.419 . S
C784 C785 1.363 . S
C784 H787 0.929 . S
C785 C784 1.363 . S
C785 C791 1.428 . S
H786 C782 0.933 . S
H787 C784 0.929 . S
S788 N789 1.613 . S
S788 N790 1.610 . S
N789 S788 1.613 . S
N789 C792 1.350 . S
N790 S788 1.610 . S
N790 C791 1.351 . S
C791 C785 1.428 . S
C791 N790 1.351 . S
C791 C792 1.434 . S
C792 C783 1.429 . S
C792 N789 1.350 . S
C792 C791 1.434 . S
C793 C794 1.369 . S
C793 C795 1.419 . S
C793 H797 0.930 . S
C794 C793 1.369 . S
C794 C803 1.429 . S
C795 C793 1.419 . S
C795 C796 1.363 . S
C795 H798 0.929 . S
C796 C795 1.363 . S
C796 C802 1.428 . S
H797 C793 0.930 . S
H798 C795 0.929 . S
S799 N800 1.613 . S
S799 N801 1.610 . S
N800 S799 1.613 . S
N800 C803 1.350 . S
N801 S799 1.610 . S
N801 C802 1.351 . S
C802 C796 1.428 . S
C802 N801 1.351 . S
C802 C803 1.434 . S
C803 C794 1.429 . S
C803 N800 1.350 . S
C803 C802 1.434 . S
C409 C68 1.082 . S
C411 C8 1.103 . S
C420 C131 1.084 . S
C422 C51 1.101 1_455 S
C431 C76 1.103 1_565 S
C433 C136 1.082 . S
C442 C119 1.102 . S
C444 C199 1.082 . S
C453 C0 1.078 . S
C455 C144 1.103 1_455 S
C464 C63 1.082 . S
C466 C187 1.103 1_565 S
C475 C369 1.083 . S
C477 C221 1.102 . S
C486 C246 1.103 1_655 S
C488 C374 1.080 . S
C497 C289 1.100 1_545 S
C499 C233 1.085 . S
C508 C314 1.103 . S
C510 C238 1.080 . S
C519 C357 1.104 1_655 S
C521 C301 1.078 . S
C530 C306 1.085 . S
C532 C382 1.101 1_545 S
C541 C106 1.582 . S
C543 C13 1.582 . S
C552 C38 1.581 . S
C554 C149 1.581 . S
C563 C81 1.582 . S
C565 C174 1.582 . S
C574 C208 1.581 . S
C576 C319 1.581 . S
C585 C251 1.581 . S
C587 C344 1.581 . S
C596 C276 1.581 . S
C598 C387 1.581 . S
C607 C242 1.843 . S
C609 C4 1.837 . S
C618 C47 1.838 . S
C620 C285 1.841 . S
C629 C310 1.839 . S
C631 C72 1.839 . S
C640 C115 1.841 . S
C642 C353 1.839 . S
C651 C140 1.840 . S
C653 C378 1.839 . S
C662 C217 1.837 . S
C664 C183 1.841 . S
C673 C97 1.274 . S
C675 C17 1.255 . S
C684 C42 1.259 . S
C686 C102 1.274 . S
C695 C85 1.255 . S
C697 C165 1.274 . S
C706 C110 1.255 . S
C708 C170 1.275 . S
C717 C29 1.274 . S
C719 C153 1.255 . S
C728 C34 1.274 . S
C730 C178 1.258 . S
C739 C340 1.274 . S
C741 C212 1.256 . S
C750 C255 1.253 . S
C752 C403 1.275 . S
C761 C280 1.253 . S
C763 C204 1.275 . S
C772 C267 1.274 . S
C774 C323 1.255 . S
C783 C348 1.253 . S
C785 C272 1.275 . S
C794 C391 1.259 . S
C796 C335 1.274 . S
