# Generated by pormake.
# Topology ung, (4)-cn, num edge types: 1
# Building blocks:
#     Node 0, Type 0, BuildingBlock: MUDLON_clean_sbu_0, # of connection points: 4
#     Node 1, Type 0, BuildingBlock: MUDLON_clean_sbu_0, # of connection points: 4
#     Node 2, Type 0, BuildingBlock: MUDLON_clean_sbu_0, # of connection points: 4
#     Node 3, Type 0, BuildingBlock: MUDLON_clean_sbu_0, # of connection points: 4
#     Node 4, Type 0, BuildingBlock: MUDLON_clean_sbu_0, # of connection points: 4
#     Node 5, Type 0, BuildingBlock: MUDLON_clean_sbu_0, # of connection points: 4
#     Node 6, Type 0, BuildingBlock: MUDLON_clean_sbu_0, # of connection points: 4
#     Node 7, Type 0, BuildingBlock: MUDLON_clean_sbu_0, # of connection points: 4
#     Node 8, Type 0, BuildingBlock: MUDLON_clean_sbu_0, # of connection points: 4
#     Node 9, Type 0, BuildingBlock: MUDLON_clean_sbu_0, # of connection points: 4
#     Node 10, Type 0, BuildingBlock: MUDLON_clean_sbu_0, # of connection points: 4
#     Node 11, Type 0, BuildingBlock: MUDLON_clean_sbu_0, # of connection points: 4
#     Node 12, Type 0, BuildingBlock: MUDLON_clean_sbu_0, # of connection points: 4
#     Node 13, Type 0, BuildingBlock: MUDLON_clean_sbu_0, # of connection points: 4
#     Node 14, Type 0, BuildingBlock: MUDLON_clean_sbu_0, # of connection points: 4
#     Node 15, Type 0, BuildingBlock: MUDLON_clean_sbu_0, # of connection points: 4
#     Node 16, Type 0, BuildingBlock: MUDLON_clean_sbu_0, # of connection points: 4
#     Node 17, Type 0, BuildingBlock: MUDLON_clean_sbu_0, # of connection points: 4
#     Edge 18, Type (0, 0), BuildingBlock: OJICUG_clean_linker_0, # of connection points: 2
#     Edge 19, Type (0, 0), BuildingBlock: OJICUG_clean_linker_0, # of connection points: 2
#     Edge 20, Type (0, 0), BuildingBlock: OJICUG_clean_linker_0, # of connection points: 2
#     Edge 21, Type (0, 0), BuildingBlock: OJICUG_clean_linker_0, # of connection points: 2
#     Edge 22, Type (0, 0), BuildingBlock: OJICUG_clean_linker_0, # of connection points: 2
#     Edge 23, Type (0, 0), BuildingBlock: OJICUG_clean_linker_0, # of connection points: 2
#     Edge 24, Type (0, 0), BuildingBlock: OJICUG_clean_linker_0, # of connection points: 2
#     Edge 25, Type (0, 0), BuildingBlock: OJICUG_clean_linker_0, # of connection points: 2
#     Edge 26, Type (0, 0), BuildingBlock: OJICUG_clean_linker_0, # of connection points: 2
#     Edge 27, Type (0, 0), BuildingBlock: OJICUG_clean_linker_0, # of connection points: 2
#     Edge 28, Type (0, 0), BuildingBlock: OJICUG_clean_linker_0, # of connection points: 2
#     Edge 29, Type (0, 0), BuildingBlock: OJICUG_clean_linker_0, # of connection points: 2
#     Edge 30, Type (0, 0), BuildingBlock: OJICUG_clean_linker_0, # of connection points: 2
#     Edge 31, Type (0, 0), BuildingBlock: OJICUG_clean_linker_0, # of connection points: 2
#     Edge 32, Type (0, 0), BuildingBlock: OJICUG_clean_linker_0, # of connection points: 2
#     Edge 33, Type (0, 0), BuildingBlock: OJICUG_clean_linker_0, # of connection points: 2
#     Edge 34, Type (0, 0), BuildingBlock: OJICUG_clean_linker_0, # of connection points: 2
#     Edge 35, Type (0, 0), BuildingBlock: OJICUG_clean_linker_0, # of connection points: 2
#     Edge 36, Type (0, 0), BuildingBlock: OJICUG_clean_linker_0, # of connection points: 2
#     Edge 37, Type (0, 0), BuildingBlock: OJICUG_clean_linker_0, # of connection points: 2
#     Edge 38, Type (0, 0), BuildingBlock: OJICUG_clean_linker_0, # of connection points: 2
#     Edge 39, Type (0, 0), BuildingBlock: OJICUG_clean_linker_0, # of connection points: 2
#     Edge 40, Type (0, 0), BuildingBlock: OJICUG_clean_linker_0, # of connection points: 2
#     Edge 41, Type (0, 0), BuildingBlock: OJICUG_clean_linker_0, # of connection points: 2
#     Edge 42, Type (0, 0), BuildingBlock: OJICUG_clean_linker_0, # of connection points: 2
#     Edge 43, Type (0, 0), BuildingBlock: OJICUG_clean_linker_0, # of connection points: 2
#     Edge 44, Type (0, 0), BuildingBlock: OJICUG_clean_linker_0, # of connection points: 2
#     Edge 45, Type (0, 0), BuildingBlock: OJICUG_clean_linker_0, # of connection points: 2
#     Edge 46, Type (0, 0), BuildingBlock: OJICUG_clean_linker_0, # of connection points: 2
#     Edge 47, Type (0, 0), BuildingBlock: OJICUG_clean_linker_0, # of connection points: 2
#     Edge 48, Type (0, 0), BuildingBlock: OJICUG_clean_linker_0, # of connection points: 2
#     Edge 49, Type (0, 0), BuildingBlock: OJICUG_clean_linker_0, # of connection points: 2
#     Edge 50, Type (0, 0), BuildingBlock: OJICUG_clean_linker_0, # of connection points: 2
#     Edge 51, Type (0, 0), BuildingBlock: OJICUG_clean_linker_0, # of connection points: 2
#     Edge 52, Type (0, 0), BuildingBlock: OJICUG_clean_linker_0, # of connection points: 2
#     Edge 53, Type (0, 0), BuildingBlock: OJICUG_clean_linker_0, # of connection points: 2
# Relax obj value: 0.034
# Max RMSD: 0.247
# Mean RMSD: 0.245
data_MOF--net-ung--node1-MUDLON_clean_sbu_0--edge1-OJICUG_clean_linker_0
_symmetry_space_group_name_H-M    P1
_symmetry_Int_Tables_number       1
_symmetry_cell_setting            triclinic
loop_
_symmetry_equiv_pos_as_xyz
'x, y, z'
_cell_length_a     56.90945
_cell_length_b     57.38214
_cell_length_c     17.307851
_cell_angle_alpha  89.616567
_cell_angle_beta   90.688338
_cell_angle_gamma 121.31753
loop_
_atom_site_label
_atom_site_type_symbol
_atom_site_fract_x
_atom_site_fract_y
_atom_site_fract_z
_atom_type_partial_charge
Mg0 Mg 0.05445 0.64784 0.24764 0.0
C1 C 0.02617 0.60562 0.38618 0.0
O2 O 1.00387 0.60683 0.37724 0.0
C3 C 1.00986 0.66239 0.2036 0.0
O4 O 1.01295 0.67203 0.27402 0.0
C5 C 0.04758 0.60495 0.15036 0.0
O6 O 0.02598 0.59545 0.19507 0.0
O7 O 0.0668 0.62984 0.15828 0.0
O8 O 0.04652 0.61941 0.3421 0.0
O9 O 0.08248 0.68787 0.30041 0.0
C10 C 0.07361 0.68948 0.36631 0.0
O11 O 0.05049 0.66836 0.39056 0.0
O12 O 0.0223 0.65026 0.1844 0.0
Mg13 Mg 0.47971 0.50809 0.25854 0.0
C14 C 0.43926 0.48832 0.38235 0.0
O15 O 0.45914 0.4849 0.40757 0.0
C16 C 0.5189 0.5435 0.14225 0.0
O17 O 0.52978 0.53032 0.17379 0.0
C18 C 0.46206 0.46807 0.1331 0.0
O19 O 0.45834 0.48742 0.10641 0.0
O20 O 0.47189 0.47063 0.20125 0.0
O21 O 0.44149 0.49858 0.31532 0.0
O22 O 0.51055 0.52596 0.35079 0.0
C23 C 0.51347 0.5482 0.37556 0.0
O24 O 0.49913 0.55753 0.34201 0.0
O25 O 0.49598 0.53898 0.16783 0.0
Mg26 Mg 0.61095 0.07623 0.26571 0.0
C27 C 0.56136 0.05572 0.15643 0.0
O28 O 0.54763 0.0412 0.21675 0.0
C29 C 0.61271 0.03299 0.36496 0.0
O30 O 0.59994 0.0401 0.4134 0.0
C31 C 0.59811 0.09351 0.4208 0.0
O32 O 0.62483 0.10595 0.43204 0.0
O33 O 0.58785 0.08097 0.3576 0.0
O34 O 0.58743 0.07022 0.16007 0.0
O35 O 0.65233 0.11077 0.2424 0.0
C36 C 0.65777 0.12261 0.1768 0.0
O37 O 0.63744 0.11659 0.12844 0.0
O38 O 0.61786 0.04322 0.29724 0.0
Mg39 Mg 0.05654 0.51978 0.74921 0.0
C40 C 0.03811 0.54592 0.63992 0.0
O41 O 0.01804 0.53328 0.6897 0.0
C42 C 0.10003 0.51634 0.84325 0.0
O43 O 0.09393 0.52967 0.89248 0.0
C44 C 0.04173 0.53267 0.90909 0.0
O45 O 0.02804 0.50612 0.91939 0.0
O46 O 0.05385 0.54248 0.8455 0.0
O47 O 0.05961 0.54451 0.64925 0.0
O48 O 0.02118 0.47913 0.72382 0.0
C49 C 0.01818 0.47227 0.65278 0.0
O50 O 0.03485 0.49028 0.60213 0.0
O51 O 0.0896 0.51189 0.77539 0.0
Mg52 Mg 0.61365 0.64766 0.76068 0.0
C53 C 0.58109 0.60532 0.64305 0.0
O54 O 0.59338 0.59486 0.68218 0.0
C55 C 0.62563 0.692 0.87351 0.0
O56 O 0.62472 0.67312 0.91892 0.0
C57 C 0.57288 0.61447 0.88051 0.0
O58 O 0.56147 0.62655 0.84532 0.0
O59 O 0.59605 0.61912 0.85679 0.0
O60 O 0.58523 0.62847 0.66354 0.0
O61 O 0.65417 0.65705 0.72221 0.0
C62 C 0.65915 0.65886 0.65006 0.0
O63 O 0.63912 0.65284 0.60058 0.0
O64 O 0.62043 0.6868 0.80166 0.0
Mg65 Mg 0.48171 0.08046 0.76216 0.0
C66 C 0.5026 0.06244 0.89072 0.0
O67 O 0.48348 0.03965 0.85821 0.0
C68 C 0.4738 0.11656 0.65446 0.0
O69 O 0.47369 0.09857 0.60767 0.0
C70 C 0.52748 0.09026 0.66488 0.0
O71 O 0.5383 0.10919 0.71857 0.0
O72 O 0.50174 0.07283 0.66706 0.0
O73 O 0.50733 0.08507 0.86277 0.0
O74 O 0.4399 0.049 0.79574 0.0
C75 C 0.43389 0.05091 0.86531 0.0
O76 O 0.4528 0.07042 0.90912 0.0
O77 O 0.47828 0.11526 0.7263 0.0
Mg78 Mg 0.70688 0.97661 0.60622 0.0
C79 C 0.71705 0.94665 0.72819 0.0
O80 O 0.74099 0.96091 0.69415 0.0
C81 C 0.67423 0.98656 0.48826 0.0
O82 O 0.69504 0.98976 0.44753 0.0
C83 C 0.70281 0.9378 0.48904 0.0
O84 O 0.67873 0.92508 0.52288 0.0
O85 O 0.72088 0.96153 0.51294 0.0
O86 O 0.69702 0.94857 0.70275 0.0
O87 O 0.73568 0.01704 0.65375 0.0
C88 C 0.72318 0.02542 0.69509 0.0
O89 O 0.69641 1.00958 0.70247 0.0
O90 O 0.67262 0.9795 0.55889 0.0
Mg91 Mg 0.14669 0.84771 0.58476 0.0
C92 C 0.10297 0.83417 0.70157 0.0
O93 O 0.12221 0.83376 0.74314 0.0
C94 C 0.1604 0.8718 0.42308 0.0
O95 O 0.14038 0.84712 0.40457 0.0
C96 C 0.11928 0.78712 0.55383 0.0
O97 O 0.10405 0.78673 0.61085 0.0
O98 O 0.14001 0.80984 0.53385 0.0
O99 O 0.10738 0.84016 0.62995 0.0
O100 O 0.17564 0.86511 0.68101 0.0
C101 C 0.17988 0.88824 0.70199 0.0
O102 O 0.16746 0.89871 0.6636 0.0
O103 O 0.1659 0.87817 0.49399 0.0
Mg104 Mg 0.27881 0.40618 0.58728 0.0
C105 C 0.23842 0.401 0.70276 0.0
O106 O 0.2253 0.37745 0.66657 0.0
C107 C 0.34051 0.44038 0.56595 0.0
O108 O 0.33959 0.42627 0.62715 0.0
C109 C 0.24805 0.41538 0.46579 0.0
O110 O 0.26239 0.43911 0.50062 0.0
O111 O 0.25012 0.39557 0.49071 0.0
O112 O 0.26263 0.41874 0.68118 0.0
O113 O 0.28468 0.37358 0.63141 0.0
C114 C 0.28769 0.37203 0.70406 0.0
O115 O 0.28526 0.38878 0.74996 0.0
O116 O 0.31822 0.43765 0.54003 0.0
Mg117 Mg 0.71555 0.84694 0.10952 0.0
C118 C 0.72196 0.88687 0.22858 0.0
O119 O 0.74575 0.89969 0.1932 0.0
C120 C 0.68057 0.80161 0.99594 0.0
O121 O 0.69542 0.82168 0.9479 0.0
C122 C 0.70572 0.87905 0.99265 0.0
O123 O 0.68231 0.86617 0.02991 0.0
O124 O 0.72507 0.87538 1.01395 0.0
O125 O 0.70375 0.8631 0.20538 0.0
O126 O 0.74976 0.84282 0.15105 0.0
C127 C 0.75082 0.83826 0.22284 0.0
O128 O 0.73235 0.83772 0.26882 0.0
O129 O 0.68371 0.80634 0.0684 0.0
Mg130 Mg 0.27783 0.98571 0.09163 0.0
C131 C 0.23023 0.94431 0.18217 0.0
O132 O 0.21848 0.94973 0.12483 0.0
C133 C 0.32343 0.99601 0.9838 0.0
O134 O 0.30426 0.99293 0.93469 0.0
C135 C 0.24644 0.945 0.97083 0.0
O136 O 0.2576 0.93388 1.01222 0.0
O137 O 0.25103 0.96838 0.99055 0.0
O138 O 0.25639 0.95622 0.18434 0.0
O139 O 0.28568 0.02513 0.13349 0.0
C140 C 0.28782 0.02914 0.20633 0.0
O141 O 0.28318 1.0089 0.25232 0.0
O142 O 0.31806 0.99305 0.05586 0.0
Mg143 Mg 0.14825 0.41485 0.08209 0.0
C144 C 0.18023 0.40467 0.19957 0.0
O145 O 0.16667 0.3813 0.16257 0.0
C146 C 0.13922 0.44866 0.96675 0.0
O147 O 0.13622 0.42845 0.92393 0.0
C148 C 0.1877 0.41999 0.96412 0.0
O149 O 0.20077 0.44365 0.99977 0.0
O150 O 0.16375 0.40207 0.98697 0.0
O151 O 0.17711 0.42416 0.17776 0.0
O152 O 0.10728 0.38422 0.12386 0.0
C153 C 0.10295 0.38212 0.19643 0.0
O154 O 0.12352 0.39739 0.24357 0.0
O155 O 0.14527 0.44916 0.03816 0.0
Mg156 Mg 0.37563 0.30739 0.9405 0.0
C157 C 0.37304 0.28954 0.10709 0.0
O158 O 0.38148 0.3153 0.11964 0.0
C159 C 0.33978 0.31614 0.82946 0.0
O160 O 0.3544 0.31113 0.78174 0.0
C161 C 0.36185 0.26207 0.83675 0.0
O162 O 0.34049 0.25313 0.88214 0.0
O163 O 0.3822 0.28625 0.84686 0.0
O164 O 0.3668 0.28025 0.03862 0.0
O165 O 0.41008 0.34674 0.97975 0.0
C166 C 0.41268 0.36872 0.95362 0.0
O167 O 0.39705 0.36729 0.89515 0.0
O168 O 0.34311 0.31471 0.90199 0.0
Mg169 Mg 0.80956 0.1806 0.93453 0.0
C170 C 0.76677 0.1688 0.05202 0.0
O171 O 0.78461 0.16542 0.09168 0.0
C172 C 0.85063 0.21256 0.81495 0.0
O173 O 0.86109 0.19962 0.85042 0.0
C174 C 0.77548 0.13033 0.8489 0.0
O175 O 0.76315 0.1443 0.84282 0.0
O176 O 0.79773 0.14052 0.88814 0.0
O177 O 0.77199 0.17637 0.98171 0.0
O178 O 0.83958 0.19699 0.02866 0.0
C179 C 0.84452 0.22009 0.05249 0.0
O180 O 0.83215 0.23129 1.01762 0.0
O181 O 0.82783 0.20893 0.83839 0.0
Mg182 Mg 0.94856 0.7461 0.93786 0.0
C183 C 0.89671 0.72722 0.83676 0.0
O184 O 0.88355 0.71718 0.90185 0.0
C185 C 0.97244 0.70927 0.97314 0.0
O186 O 0.99035 0.72373 0.91941 0.0
C187 C 0.91297 0.73371 0.0734 0.0
O188 O 0.90938 0.71001 0.05365 0.0
O189 O 0.92913 0.75472 0.03346 0.0
O190 O 0.92267 0.73806 0.83547 0.0
O191 O 0.99022 0.77804 0.90375 0.0
C192 C 0.99462 0.7869 0.83439 0.0
O193 O 0.97354 0.77908 0.78744 0.0
O194 O 0.95255 0.71284 0.98533 0.0
Mg195 Mg 0.38364 0.18232 0.44262 0.0
C196 C 0.37958 0.22521 0.35565 0.0
O197 O 0.36723 0.22388 0.42053 0.0
C198 C 0.4246 0.17674 0.54189 0.0
O199 O 0.41444 0.18578 0.59324 0.0
C200 C 0.3582 0.19272 0.58892 0.0
O201 O 0.33616 0.16865 0.5762 0.0
O202 O 0.37865 0.20145 0.54436 0.0
O203 O 0.39024 0.21056 0.34791 0.0
O204 O 0.34907 0.1424 0.40642 0.0
C205 C 0.34478 0.1381 0.33394 0.0
O206 O 0.35948 0.15833 0.28618 0.0
O207 O 0.41694 0.17495 0.47146 0.0
Mg208 Mg 0.94892 0.3157 0.43615 0.0
C209 C 0.91495 0.2742 0.31779 0.0
O210 O 0.92714 0.26306 0.35397 0.0
C211 C 0.95978 0.36079 0.54709 0.0
O212 O 0.95678 0.3419 0.5962 0.0
C213 C 0.9074 0.28235 0.55327 0.0
O214 O 0.89617 0.29409 0.51524 0.0
O215 O 0.93099 0.28732 0.53257 0.0
O216 O 0.91977 0.29737 0.3405 0.0
O217 O 0.98866 0.32372 0.39424 0.0
C218 C 0.99324 0.32798 0.32203 0.0
O219 O 0.97352 0.32569 0.27652 0.0
O220 O 0.9564 0.3552 0.47514 0.0
Mg221 Mg 0.81832 0.75102 0.43467 0.0
C222 C 0.83759 0.73263 0.56961 0.0
O223 O 0.81648 0.70972 0.54372 0.0
C224 C 0.81394 0.7923 0.33664 0.0
O225 O 0.82225 0.78152 0.28508 0.0
C226 C 0.85122 0.73385 0.33633 0.0
O227 O 0.85357 0.72383 0.40242 0.0
O228 O 0.83653 0.74459 0.33261 0.0
O229 O 0.84422 0.75486 0.53475 0.0
O230 O 0.77675 0.71854 0.46552 0.0
C231 C 0.76969 0.72108 0.53314 0.0
O232 O 0.78747 0.74182 0.57575 0.0
O233 O 0.81266 0.78518 0.40718 0.0
C234 C 0.06297 0.57962 0.96674 0.0
C235 C 0.04413 0.55129 0.97184 0.0
H236 H 0.07929 0.61892 0.01978 0.0
C237 C 0.02769 0.54091 0.03768 0.0
H238 H 0.07613 0.58827 0.91695 0.0
C239 C 0.02946 0.55844 0.09606 0.0
C240 C 0.04792 0.58679 0.09056 0.0
H241 H 1.01309 0.51924 0.04368 0.0
H242 H 1.01609 0.54972 0.14543 0.0
C243 C 0.06497 0.59719 0.0258 0.0
C244 C 0.53388 0.59212 0.97431 0.0
C245 C 0.55915 0.59643 0.94776 0.0
H246 H 0.50136 0.57216 0.05657 0.0
C247 C 0.57113 0.58352 0.98645 0.0
H248 H 0.52408 0.6018 0.94595 0.0
C249 C 0.55811 0.56659 0.04988 0.0
C250 C 0.53279 0.56215 0.07625 0.0
H251 H 0.59058 0.58643 0.96771 0.0
H252 H 0.56792 0.55688 0.07805 0.0
C253 C 0.52085 0.57517 0.03787 0.0
C254 C 0.55903 0.08038 0.03918 0.0
C255 C 0.5466 0.05727 0.08749 0.0
H256 H 0.55459 0.10049 0.9399 0.0
C257 C 0.51959 0.03619 0.07101 0.0
H258 H 0.57976 0.09708 0.0509 0.0
C259 C 0.50542 0.03798 1.00692 0.0
C260 C 0.51771 0.06119 0.9591 0.0
H261 H 0.50947 0.0182 0.10727 0.0
H262 H 0.48468 0.02128 0.99528 0.0
C263 C 0.54458 0.08247 0.97609 0.0
C264 C 0.55105 0.07545 0.47658 0.0
C265 C 0.57984 0.09262 0.48279 0.0
H266 H 0.51186 0.06092 0.52944 0.0
C267 C 0.59107 0.1085 0.54968 0.0
H268 H 0.54172 0.06281 0.42595 0.0
C269 C 0.57397 0.10746 0.60862 0.0
C270 C 0.54521 0.09034 0.60258 0.0
H271 H 0.61311 0.12189 0.55651 0.0
H272 H 0.5834 0.12014 0.65914 0.0
C273 C 0.53392 0.07423 0.53602 0.0
C274 C 0.05293 0.58871 0.45848 0.0
C275 C 0.02875 0.58961 0.44989 0.0
H276 H 0.07494 0.57434 0.5249 0.0
C277 C 1.00764 0.57574 0.50377 0.0
H278 H 0.06965 0.59915 0.41799 0.0
C279 C 1.01076 0.56155 0.56519 0.0
C280 C 0.03504 0.56087 0.57416 0.0
H281 H 0.98879 0.576 0.49899 0.0
H282 H 0.9941 0.55118 0.60587 0.0
C283 C 0.05604 0.57451 0.51987 0.0
C284 C 0.56084 0.56593 0.5503 0.0
C285 C 0.56386 0.59075 0.57444 0.0
H286 H 0.54276 0.53306 0.46849 0.0
C287 C 0.55056 0.60156 0.53183 0.0
H288 H 0.57087 0.55703 0.58167 0.0
C289 C 0.5345 0.58781 0.46698 0.0
C290 C 0.53136 0.56293 0.44297 0.0
H291 H 0.5525 0.62064 0.54861 0.0
H292 H 0.52444 0.59672 0.4358 0.0
C293 C 0.5448 0.55218 0.48524 0.0
C294 C 0.73761 0.92598 0.32065 0.0
C295 C 0.71702 0.89986 0.29527 0.0
H296 H 0.7494 0.95846 0.40161 0.0
C297 C 0.69191 0.88633 0.33459 0.0
H298 H 0.75724 0.937 0.29175 0.0
C299 C 0.68746 0.89865 0.39764 0.0
C300 C 0.70802 0.9248 0.42294 0.0
H301 H 0.67564 0.8662 0.31672 0.0
H302 H 0.66781 0.88763 0.42642 0.0
C303 C 0.73316 0.93831 0.38375 0.0
C304 C 0.20564 0.91121 0.37868 0.0
C305 C 0.17819 0.89087 0.36217 0.0
H306 H 0.24396 0.94365 0.33413 0.0
C307 C 0.16833 0.88799 0.28599 0.0
H308 H 0.21391 0.91372 0.43678 0.0
C309 C 0.18539 0.90532 0.22773 0.0
C310 C 0.21289 0.92545 0.24395 0.0
H311 H 0.14734 0.87246 0.27145 0.0
H312 H 0.17708 0.90279 0.16967 0.0
C313 C 0.22294 0.92814 0.31989 0.0
C314 C 0.21602 0.38769 0.35721 0.0
C315 C 0.23051 0.4124 0.39792 0.0
H316 H 0.18893 0.36591 0.26266 0.0
C317 C 0.22842 0.43464 0.37258 0.0
H318 H 0.2172 0.37019 0.37505 0.0
C319 C 0.21224 0.43223 0.30812 0.0
C320 C 0.19777 0.40753 0.26734 0.0
H321 H 0.23932 0.45402 0.40253 0.0
H322 H 0.21106 0.44973 0.29036 0.0
C323 C 0.19985 0.38529 0.29263 0.0
C324 C 0.18666 0.39024 0.85658 0.0
C325 C 0.20061 0.41497 0.8974 0.0
H326 H 0.18758 0.3665 0.76317 0.0
C327 C 0.2271 0.43519 0.87332 0.0
H328 H 0.16624 0.37426 0.87345 0.0
C329 C 0.23936 0.43078 0.80999 0.0
C330 C 0.22542 0.40605 0.7692 0.0
H331 H 0.23845 0.45452 0.90337 0.0
H332 H 0.25979 0.44675 0.79317 0.0
C333 C 0.19892 0.38583 0.79322 0.0
C334 C 0.73365 0.91063 0.88498 0.0
C335 C 0.70877 0.89652 0.92529 0.0
H336 H 0.75574 0.93744 0.79138 0.0
C337 C 0.68652 0.89893 0.89999 0.0
H338 H 0.75117 0.90921 0.90279 0.0
C339 C 0.68907 0.91506 0.83587 0.0
C340 C 0.71397 0.92921 0.79564 0.0
H341 H 0.667 0.88829 0.92959 0.0
H342 H 0.67155 0.91648 0.81802 0.0
C343 C 0.73623 0.92681 0.82099 0.0
C344 C 0.22535 0.90508 0.88032 0.0
C345 C 0.22952 0.93061 0.90179 0.0
H346 H 0.20654 0.8717 0.80043 0.0
C347 C 0.21752 0.94214 0.85646 0.0
H348 H 0.23433 0.89561 0.91392 0.0
C349 C 0.20162 0.92842 0.79136 0.0
C350 C 0.19736 0.90285 0.77002 0.0
H351 H 0.22036 0.96176 0.87128 0.0
H352 H 0.19259 0.93788 0.7579 0.0
C353 C 0.20946 0.89136 0.81514 0.0
C354 C 0.38366 0.25334 0.7239 0.0
C355 C 0.36137 0.24429 0.77415 0.0
H356 H 0.40017 0.24418 0.6263 0.0
C357 C 0.33816 0.21797 0.76363 0.0
H358 H 0.40183 0.27347 0.73038 0.0
C359 C 0.33715 0.20115 0.70394 0.0
C360 C 0.35934 0.21023 0.65335 0.0
H361 H 0.32059 0.21031 0.80131 0.0
H362 H 0.3189 0.18109 0.69732 0.0
C363 C 0.38266 0.23649 0.66423 0.0
C364 C 0.85375 0.24358 0.70715 0.0
C365 C 0.86517 0.23058 0.74829 0.0
H366 H 0.85803 0.26997 0.61344 0.0
C367 C 0.89067 0.23473 0.72466 0.0
H368 H 0.83416 0.24082 0.72369 0.0
C369 C 0.90441 0.25147 0.66139 0.0
C370 C 0.89295 0.26442 0.62015 0.0
H371 H 0.90009 0.22503 0.75503 0.0
H372 H 0.924 0.25424 0.64482 0.0
C373 C 0.86746 0.26028 0.6438 0.0
C374 C 0.8955 0.74903 0.7117 0.0
C375 C 0.88184 0.72837 0.7674 0.0
H376 H 0.89205 0.7671 0.60627 0.0
C377 C 0.85359 0.70959 0.75795 0.0
H378 H 0.91725 0.76399 0.71789 0.0
C379 C 0.83936 0.71112 0.6936 0.0
C380 C 0.85291 0.73191 0.63834 0.0
H381 H 0.8425 0.69354 0.79998 0.0
H382 H 0.81761 0.69615 0.68751 0.0
C383 C 0.88108 0.751 0.64824 0.0
C384 C 0.87572 0.7154 0.26389 0.0
C385 C 0.86689 0.73406 0.26835 0.0
H386 H 0.89706 0.70071 0.19863 0.0
C387 C 0.87406 0.75343 0.20884 0.0
H388 H 0.87062 0.70032 0.30884 0.0
C389 C 0.88987 0.75411 0.14626 0.0
C390 C 0.89818 0.73501 0.14136 0.0
H391 H 0.86775 0.76826 0.21114 0.0
H392 H 0.89503 0.76909 0.10099 0.0
C393 C 0.8909 0.71567 0.20076 0.0
C394 C 0.37574 0.26422 0.30762 0.0
C395 C 0.37897 0.24207 0.29154 0.0
H396 H 0.37145 0.29664 0.262 0.0
C397 C 0.37978 0.23531 0.21418 0.0
H398 H 0.37497 0.26987 0.36674 0.0
C399 C 0.37702 0.25024 0.1541 0.0
C400 C 0.37402 0.27256 0.17032 0.0
H401 H 0.38195 0.21816 0.20011 0.0
H402 H 0.37772 0.24459 0.09496 0.0
C403 C 0.37361 0.2795 0.2477 0.0
C404 C 0.88426 0.27229 0.2095 0.0
C405 C 0.89683 0.26031 0.25012 0.0
H406 H 0.85807 0.26907 0.11541 0.0
C407 C 0.89224 0.23498 0.2248 0.0
H408 H 0.8874 0.29178 0.22729 0.0
C409 C 0.87542 0.22192 0.16039 0.0
C410 C 0.86283 0.23391 0.11988 0.0
H411 H 0.90164 0.22518 0.25468 0.0
H412 H 0.87224 0.20242 0.14255 0.0
C413 C 0.86747 0.25924 0.14518 0.0
C414 C 0.07729 0.71356 0.48937 0.0
C415 C 0.08762 0.71438 0.41527 0.0
H416 H 0.0793 0.73549 0.59083 0.0
C417 C 0.11017 0.73912 0.38915 0.0
H418 H 0.06013 0.69486 0.51202 0.0
C419 C 0.12138 0.76271 0.43524 0.0
C420 C 0.11018 0.76194 0.50812 0.0
H421 H 0.11866 0.74043 0.3325 0.0
H422 H 0.13817 0.7817 0.41273 0.0
C423 C 0.08836 0.73695 0.53497 0.0
C424 C 0.39065 0.47752 0.40217 0.0
C425 C 0.41456 0.47891 0.43089 0.0
H426 H 0.34839 0.46442 0.42255 0.0
C427 C 0.41445 0.46983 0.50667 0.0
H428 H 0.39009 0.48443 0.34418 0.0
C429 C 0.39076 0.4585 0.55141 0.0
C430 C 0.36644 0.45589 0.52174 0.0
H431 H 0.43257 0.47085 0.53119 0.0
H432 H 0.39135 0.45104 0.60863 0.0
C433 C 0.36679 0.46611 0.4472 0.0
C434 C 0.63667 0.99707 0.50088 0.0
C435 C 0.6553 0.99453 0.45444 0.0
H436 H 0.60839 1.01097 0.50889 0.0
C437 C 0.6574 1.00193 0.376 0.0
H438 H 0.63447 0.99149 0.56142 0.0
C439 C 0.64243 0.01306 0.34577 0.0
C440 C 0.62503 0.01713 0.39329 0.0
H441 H 0.67138 1.00004 0.33831 0.0
H442 H 0.64541 0.01951 0.2859 0.0
C443 C 0.62172 1.00827 0.47065 0.0
C444 C 0.70835 0.14133 0.19524 0.0
C445 C 0.68658 0.13861 0.14912 0.0
H446 H 0.7507 0.15314 0.20094 0.0
C447 C 0.69219 0.14868 0.07289 0.0
H448 H 0.70485 0.13391 0.2542 0.0
C449 C 0.71854 0.15968 0.0421 0.0
C450 C 0.73988 0.16085 0.08686 0.0
H451 H 0.67594 0.14704 0.03574 0.0
H452 H 0.72187 0.16621 0.98231 0.0
C453 C 0.73467 0.1523 0.16447 0.0
C454 C 0.99582 0.68375 1.00907 0.0
C455 C 0.97837 0.69321 0.02904 0.0
H456 H 0.01879 0.66587 0.04807 0.0
C457 C 0.96901 0.68976 0.10564 0.0
H458 H 1.00334 0.68609 0.95062 0.0
C459 C 0.97835 0.67873 0.16205 0.0
C460 C 0.99668 0.67028 0.14268 0.0
H461 H 0.95564 0.69695 0.12306 0.0
H462 H 0.97184 0.67756 0.22124 0.0
C463 C 1.00459 0.6721 0.06502 0.0
C464 C 0.43931 0.3956 0.07161 0.0
C465 C 0.42924 0.39484 0.99627 0.0
H466 H 0.45764 0.41935 0.17452 0.0
C467 C 0.43254 0.41896 0.96475 0.0
H468 H 0.43704 0.37734 0.09774 0.0
C469 C 0.44423 0.44283 1.00854 0.0
C470 C 0.45293 0.44332 0.08527 0.0
H471 H 0.42523 0.41922 0.90686 0.0
H472 H 0.44566 0.46076 0.98265 0.0
C473 C 0.45105 0.41963 0.11574 0.0
C474 C 0.9743 0.39502 0.65438 0.0
C475 C 0.97075 0.38909 0.57473 0.0
H476 H 0.99175 0.42599 0.74194 0.0
C477 C 0.98007 0.41076 0.52198 0.0
H478 H 0.96717 0.37879 0.69667 0.0
C479 C 0.99421 0.43775 0.548 0.0
C480 C 0.9992 0.44375 0.62737 0.0
H481 H 0.97757 0.40696 0.46034 0.0
H482 H 1.00212 0.45399 0.50552 0.0
C483 C 0.9883 0.42208 0.68047 0.0
C484 C 0.71018 0.68631 0.67199 0.0
C485 C 0.68772 0.67144 0.62165 0.0
H486 H 0.75364 0.71365 0.68325 0.0
C487 C 0.69275 0.67094 0.54236 0.0
H488 H 0.70706 0.68714 0.73329 0.0
C489 C 0.71956 0.686 0.51361 0.0
C490 C 0.74179 0.70216 0.56348 0.0
H491 H 0.67588 0.65955 0.50206 0.0
H492 H 0.72269 0.68594 0.45203 0.0
C493 C 0.73688 0.70163 0.64315 0.0
C494 C 0.44795 0.16566 0.64737 0.0
C495 C 0.44113 0.16488 0.5685 0.0
H496 H 0.46379 0.15126 0.73649 0.0
C497 C 0.44793 0.15043 0.51735 0.0
H498 H 0.44317 0.17672 0.68845 0.0
C499 C 0.45977 0.13583 0.54506 0.0
C500 C 0.46513 0.13533 0.62455 0.0
H501 H 0.44308 0.14945 0.45631 0.0
H502 H 0.4638 0.1241 0.50429 0.0
C503 C 0.45983 0.15107 0.67507 0.0
C504 C 0.35622 1.00596 0.87539 0.0
C505 C 0.35165 1.00634 0.9551 0.0
H506 H 0.38577 0.01938 0.78434 0.0
C507 C 0.37445 0.01904 1.00536 0.0
H508 H 0.33907 0.99617 0.8351 0.0
C509 C 0.40118 0.03254 0.97607 0.0
C510 C 0.40572 0.03336 0.896 0.0
H511 H 0.37168 0.0197 0.06695 0.0
H512 H 0.41831 0.04306 1.01615 0.0
C513 C 0.38297 0.01919 0.84618 0.0
C514 C 0.12284 0.50479 0.94927 0.0
C515 C 0.11423 0.50225 0.8715 0.0
H516 H 0.13756 0.49002 0.04047 0.0
C517 C 0.11655 0.48382 0.82391 0.0
H518 H 0.12144 0.51885 0.98763 0.0
C519 C 0.12576 0.46726 0.85437 0.0
C520 C 0.13289 0.46872 0.93315 0.0
H521 H 0.11019 0.48134 0.7638 0.0
H522 H 0.12639 0.45265 0.81651 0.0
C523 C 0.13207 0.48822 0.97974 0.0
C524 C 0.63938 0.7243 0.9852 0.0
C525 C 0.63606 0.71977 0.90487 0.0
H526 H 0.65566 0.75357 0.07714 0.0
C527 C 0.6451 0.7423 0.85544 0.0
H528 H 0.63248 0.70738 0.02503 0.0
C529 C 0.65856 0.76883 0.88543 0.0
C530 C 0.66308 0.77343 0.96555 0.0
H531 H 0.64286 0.73956 0.79337 0.0
H532 H 0.66617 0.7858 0.84548 0.0
C533 C 0.65262 0.7508 1.01521 0.0
C534 C 0.72222 0.06421 0.75469 0.0
C535 C 0.73755 0.05248 0.73341 0.0
H536 H 0.72216 0.0977 0.80719 0.0
C537 C 0.76584 0.06643 0.75135 0.0
H538 H 0.70041 0.05408 0.74168 0.0
C539 C 0.77838 0.09155 0.79066 0.0
C540 C 0.76289 0.10328 0.81101 0.0
H541 H 0.77813 0.05778 0.73604 0.0
H542 H 0.80017 0.10195 0.80395 0.0
C543 C 0.73473 0.08931 0.79229 0.0
C544 C 0.07175 0.81842 0.8161 0.0
C545 C 0.07586 0.82512 0.73698 0.0
H546 H 0.04311 0.80141 0.90915 0.0
C547 C 0.05347 0.82147 0.69207 0.0
H548 H 0.08856 0.82113 0.8527 0.0
C549 C 0.02734 0.81019 0.72472 0.0
C550 C 0.02298 0.80232 0.80304 0.0
H551 H 0.05591 0.82649 0.63112 0.0
H552 H 1.01037 0.80685 0.68776 0.0
C553 C 0.04565 0.80717 0.84872 0.0
C554 C 0.30625 0.34106 0.68745 0.0
C555 C 0.29745 0.35443 0.73631 0.0
H556 H 0.32631 0.31833 0.67861 0.0
C557 C 0.30022 0.3527 0.8168 0.0
H558 H 0.3044 0.34191 0.62529 0.0
C559 C 0.31273 0.3391 0.84754 0.0
C560 C 0.32289 0.32702 0.79846 0.0
H561 H 0.29351 0.36262 0.85623 0.0
H562 H 0.31543 0.33903 0.90958 0.0
C563 C 0.31888 0.32758 0.71816 0.0
C564 C 0.02508 0.34099 0.20953 0.0
C565 C 0.0211 0.33854 0.29002 0.0
H566 H 0.05393 0.35632 0.11667 0.0
C567 C 0.0442 0.34832 0.33892 0.0
H568 H 1.00772 0.33351 0.1701 0.0
C569 C 0.07073 0.36155 0.30817 0.0
C570 C 0.07477 0.36511 0.22781 0.0
H571 H 0.04189 0.34674 0.4011 0.0
H572 H 0.08813 0.36967 0.34767 0.0
C573 C 0.0516 0.35402 0.17876 0.0
C574 C 0.78633 0.8143 0.36092 0.0
C575 C 0.80156 0.8083 0.31016 0.0
H576 H 0.75853 0.82859 0.37323 0.0
C577 C 0.80227 0.81504 0.23146 0.0
H578 H 0.78534 0.80944 0.42183 0.0
C579 C 0.78685 0.826 0.20344 0.0
C580 C 0.77028 0.83043 0.25344 0.0
H581 H 0.81391 0.81085 0.19071 0.0
H582 H 0.78704 0.82994 0.14209 0.0
C583 C 0.77085 0.8252 0.33286 0.0
C584 C 0.30168 0.06087 0.31977 0.0
C585 C 0.29885 0.05684 0.23917 0.0
H586 H 0.31809 0.08958 0.41317 0.0
C587 C 0.30875 0.07975 0.19084 0.0
H588 H 0.29414 0.04367 0.35886 0.0
C589 C 0.32249 0.10608 0.22212 0.0
C590 C 0.32663 0.11016 0.3025 0.0
H591 H 0.30684 0.07743 0.12862 0.0
H592 H 0.33072 0.12329 0.1829 0.0
C593 C 0.31537 0.08722 0.35109 0.0
loop_
_geom_bond_atom_site_label_1
_geom_bond_atom_site_label_2
_geom_bond_distance
_geom_bond_site_symmetry_2
_ccdc_geom_bond_type
Mg0 O7 2.141 . S
Mg0 O8 2.048 . S
Mg0 O9 2.048 . S
Mg0 O12 2.141 . S
C1 O2 1.313 . S
C1 O8 1.195 . S
O2 C1 1.313 . S
C3 O4 1.245 1_455 S
C3 O12 1.289 . S
O4 C3 1.245 1_655 S
C5 O6 1.245 1_455 S
C5 O7 1.289 . S
O6 C5 1.245 1_655 S
O7 Mg0 2.141 . S
O7 C5 1.289 . S
O8 Mg0 2.048 . S
O8 C1 1.195 . S
O9 Mg0 2.048 . S
O9 C10 1.195 . S
C10 O9 1.195 . S
C10 O11 1.313 . S
O11 C10 1.313 . S
O12 Mg0 2.141 . S
O12 C3 1.289 . S
Mg13 O20 2.141 . S
Mg13 O21 2.048 . S
Mg13 O22 2.048 . S
Mg13 O25 2.141 . S
C14 O15 1.313 . S
C14 O21 1.195 . S
O15 C14 1.313 . S
C16 O17 1.245 . S
C16 O25 1.289 . S
O17 C16 1.245 . S
C18 O19 1.245 . S
C18 O20 1.289 . S
O19 C18 1.245 . S
O20 Mg13 2.141 . S
O20 C18 1.289 . S
O21 Mg13 2.048 . S
O21 C14 1.195 . S
O22 Mg13 2.048 . S
O22 C23 1.195 . S
C23 O22 1.195 . S
C23 O24 1.313 . S
O24 C23 1.313 . S
O25 Mg13 2.141 . S
O25 C16 1.289 . S
Mg26 O33 2.141 . S
Mg26 O34 2.048 . S
Mg26 O35 2.048 . S
Mg26 O38 2.141 . S
C27 O28 1.313 . S
C27 O34 1.195 . S
O28 C27 1.313 . S
C29 O30 1.245 . S
C29 O38 1.289 . S
O30 C29 1.245 . S
C31 O32 1.245 . S
C31 O33 1.289 . S
O32 C31 1.245 . S
O33 Mg26 2.141 . S
O33 C31 1.289 . S
O34 Mg26 2.048 . S
O34 C27 1.195 . S
O35 Mg26 2.048 . S
O35 C36 1.195 . S
C36 O35 1.195 . S
C36 O37 1.313 . S
O37 C36 1.313 . S
O38 Mg26 2.141 . S
O38 C29 1.289 . S
Mg39 O46 2.141 . S
Mg39 O47 2.048 . S
Mg39 O48 2.048 . S
Mg39 O51 2.141 . S
C40 O41 1.313 1_455 S
C40 O47 1.195 . S
O41 C40 1.313 1_655 S
C42 O43 1.245 . S
C42 O51 1.289 . S
O43 C42 1.245 . S
C44 O45 1.245 . S
C44 O46 1.289 . S
O45 C44 1.245 . S
O46 Mg39 2.141 . S
O46 C44 1.289 . S
O47 Mg39 2.048 . S
O47 C40 1.195 . S
O48 Mg39 2.048 . S
O48 C49 1.195 . S
C49 O48 1.195 . S
C49 O50 1.313 1_455 S
O50 C49 1.313 1_655 S
O51 Mg39 2.141 . S
O51 C42 1.289 . S
Mg52 O59 2.141 . S
Mg52 O60 2.048 . S
Mg52 O61 2.048 . S
Mg52 O64 2.141 . S
C53 O54 1.313 . S
C53 O60 1.195 . S
O54 C53 1.313 . S
C55 O56 1.245 . S
C55 O64 1.289 . S
O56 C55 1.245 . S
C57 O58 1.245 . S
C57 O59 1.289 . S
O58 C57 1.245 . S
O59 Mg52 2.141 . S
O59 C57 1.289 . S
O60 Mg52 2.048 . S
O60 C53 1.195 . S
O61 Mg52 2.048 . S
O61 C62 1.195 . S
C62 O61 1.195 . S
C62 O63 1.313 . S
O63 C62 1.313 . S
O64 Mg52 2.141 . S
O64 C55 1.289 . S
Mg65 O72 2.141 . S
Mg65 O73 2.048 . S
Mg65 O74 2.048 . S
Mg65 O77 2.141 . S
C66 O67 1.313 . S
C66 O73 1.195 . S
O67 C66 1.313 . S
C68 O69 1.245 . S
C68 O77 1.289 . S
O69 C68 1.245 . S
C70 O71 1.245 . S
C70 O72 1.289 . S
O71 C70 1.245 . S
O72 Mg65 2.141 . S
O72 C70 1.289 . S
O73 Mg65 2.048 . S
O73 C66 1.195 . S
O74 Mg65 2.048 . S
O74 C75 1.195 . S
C75 O74 1.195 . S
C75 O76 1.313 . S
O76 C75 1.313 . S
O77 Mg65 2.141 . S
O77 C68 1.289 . S
Mg78 O85 2.141 . S
Mg78 O86 2.048 . S
Mg78 O87 2.048 1_565 S
Mg78 O90 2.141 . S
C79 O80 1.313 . S
C79 O86 1.195 . S
O80 C79 1.313 . S
C81 O82 1.245 . S
C81 O90 1.289 . S
O82 C81 1.245 . S
C83 O84 1.245 . S
C83 O85 1.289 . S
O84 C83 1.245 . S
O85 Mg78 2.141 . S
O85 C83 1.289 . S
O86 Mg78 2.048 . S
O86 C79 1.195 . S
O87 Mg78 2.048 1_545 S
O87 C88 1.195 . S
C88 O87 1.195 . S
C88 O89 1.313 1_545 S
O89 C88 1.313 1_565 S
O90 Mg78 2.141 . S
O90 C81 1.289 . S
Mg91 O98 2.141 . S
Mg91 O99 2.048 . S
Mg91 O100 2.048 . S
Mg91 O103 2.141 . S
C92 O93 1.313 . S
C92 O99 1.195 . S
O93 C92 1.313 . S
C94 O95 1.245 . S
C94 O103 1.289 . S
O95 C94 1.245 . S
C96 O97 1.245 . S
C96 O98 1.289 . S
O97 C96 1.245 . S
O98 Mg91 2.141 . S
O98 C96 1.289 . S
O99 Mg91 2.048 . S
O99 C92 1.195 . S
O100 Mg91 2.048 . S
O100 C101 1.195 . S
C101 O100 1.195 . S
C101 O102 1.313 . S
O102 C101 1.313 . S
O103 Mg91 2.141 . S
O103 C94 1.289 . S
Mg104 O111 2.141 . S
Mg104 O112 2.048 . S
Mg104 O113 2.048 . S
Mg104 O116 2.141 . S
C105 O106 1.313 . S
C105 O112 1.195 . S
O106 C105 1.313 . S
C107 O108 1.245 . S
C107 O116 1.289 . S
O108 C107 1.245 . S
C109 O110 1.245 . S
C109 O111 1.289 . S
O110 C109 1.245 . S
O111 Mg104 2.141 . S
O111 C109 1.289 . S
O112 Mg104 2.048 . S
O112 C105 1.195 . S
O113 Mg104 2.048 . S
O113 C114 1.195 . S
C114 O113 1.195 . S
C114 O115 1.313 . S
O115 C114 1.313 . S
O116 Mg104 2.141 . S
O116 C107 1.289 . S
Mg117 O124 2.141 . S
Mg117 O125 2.048 . S
Mg117 O126 2.048 . S
Mg117 O129 2.141 . S
C118 O119 1.313 . S
C118 O125 1.195 . S
O119 C118 1.313 . S
C120 O121 1.245 . S
C120 O129 1.289 1_556 S
O121 C120 1.245 . S
C122 O123 1.245 . S
C122 O124 1.289 1_556 S
O123 C122 1.245 . S
O124 Mg117 2.141 . S
O124 C122 1.289 1_554 S
O125 Mg117 2.048 . S
O125 C118 1.195 . S
O126 Mg117 2.048 . S
O126 C127 1.195 . S
C127 O126 1.195 . S
C127 O128 1.313 . S
O128 C127 1.313 . S
O129 Mg117 2.141 . S
O129 C120 1.289 1_554 S
Mg130 O137 2.141 . S
Mg130 O138 2.048 . S
Mg130 O139 2.048 . S
Mg130 O142 2.141 . S
C131 O132 1.313 . S
C131 O138 1.195 . S
O132 C131 1.313 . S
C133 O134 1.245 . S
C133 O142 1.289 1_546 S
O134 C133 1.245 . S
C135 O136 1.245 . S
C135 O137 1.289 1_556 S
O136 C135 1.245 . S
O137 Mg130 2.141 . S
O137 C135 1.289 1_554 S
O138 Mg130 2.048 . S
O138 C131 1.195 . S
O139 Mg130 2.048 . S
O139 C140 1.195 1_565 S
C140 O139 1.195 1_545 S
C140 O141 1.313 . S
O141 C140 1.313 . S
O142 Mg130 2.141 . S
O142 C133 1.289 1_564 S
Mg143 O150 2.141 . S
Mg143 O151 2.048 . S
Mg143 O152 2.048 . S
Mg143 O155 2.141 . S
C144 O145 1.313 . S
C144 O151 1.195 . S
O145 C144 1.313 . S
C146 O147 1.245 . S
C146 O155 1.289 1_556 S
O147 C146 1.245 . S
C148 O149 1.245 . S
C148 O150 1.289 1_556 S
O149 C148 1.245 . S
O150 Mg143 2.141 . S
O150 C148 1.289 1_554 S
O151 Mg143 2.048 . S
O151 C144 1.195 . S
O152 Mg143 2.048 . S
O152 C153 1.195 . S
C153 O152 1.195 . S
C153 O154 1.313 . S
O154 C153 1.313 . S
O155 Mg143 2.141 . S
O155 C146 1.289 1_554 S
Mg156 O163 2.141 . S
Mg156 O164 2.048 . S
Mg156 O165 2.048 . S
Mg156 O168 2.141 . S
C157 O158 1.313 . S
C157 O164 1.195 1_554 S
O158 C157 1.313 . S
C159 O160 1.245 . S
C159 O168 1.289 . S
O160 C159 1.245 . S
C161 O162 1.245 . S
C161 O163 1.289 . S
O162 C161 1.245 . S
O163 Mg156 2.141 . S
O163 C161 1.289 . S
O164 Mg156 2.048 . S
O164 C157 1.195 1_556 S
O165 Mg156 2.048 . S
O165 C166 1.195 1_556 S
C166 O165 1.195 1_554 S
C166 O167 1.313 . S
O167 C166 1.313 . S
O168 Mg156 2.141 . S
O168 C159 1.289 . S
Mg169 O176 2.141 . S
Mg169 O177 2.048 1_556 S
Mg169 O178 2.047 . S
Mg169 O181 2.141 . S
C170 O171 1.313 . S
C170 O177 1.195 . S
O171 C170 1.313 . S
C172 O173 1.245 . S
C172 O181 1.289 . S
O173 C172 1.245 . S
C174 O175 1.245 . S
C174 O176 1.289 . S
O175 C174 1.245 . S
O176 Mg169 2.141 . S
O176 C174 1.289 . S
O177 Mg169 2.048 1_554 S
O177 C170 1.195 . S
O178 Mg169 2.047 . S
O178 C179 1.195 1_556 S
C179 O178 1.195 1_554 S
C179 O180 1.313 . S
O180 C179 1.313 . S
O181 Mg169 2.141 . S
O181 C172 1.289 . S
Mg182 O189 2.141 1_556 S
Mg182 O190 2.048 . S
Mg182 O191 2.048 . S
Mg182 O194 2.141 1_556 S
C183 O184 1.313 . S
C183 O190 1.195 . S
O184 C183 1.313 . S
C185 O186 1.245 1_554 S
C185 O194 1.289 . S
O186 C185 1.245 1_556 S
C187 O188 1.245 1_554 S
C187 O189 1.289 . S
O188 C187 1.245 1_556 S
O189 Mg182 2.141 1_554 S
O189 C187 1.289 . S
O190 Mg182 2.048 . S
O190 C183 1.195 . S
O191 Mg182 2.048 . S
O191 C192 1.195 . S
C192 O191 1.195 . S
C192 O193 1.313 . S
O193 C192 1.313 . S
O194 Mg182 2.141 1_554 S
O194 C185 1.289 . S
Mg195 O202 2.141 . S
Mg195 O203 2.048 . S
Mg195 O204 2.048 . S
Mg195 O207 2.141 . S
C196 O197 1.313 . S
C196 O203 1.195 . S
O197 C196 1.313 . S
C198 O199 1.245 . S
C198 O207 1.289 . S
O199 C198 1.245 . S
C200 O201 1.245 . S
C200 O202 1.289 . S
O201 C200 1.245 . S
O202 Mg195 2.141 . S
O202 C200 1.289 . S
O203 Mg195 2.048 . S
O203 C196 1.195 . S
O204 Mg195 2.048 . S
O204 C205 1.195 . S
C205 O204 1.195 . S
C205 O206 1.313 . S
O206 C205 1.313 . S
O207 Mg195 2.141 . S
O207 C198 1.289 . S
Mg208 O215 2.141 . S
Mg208 O216 2.048 . S
Mg208 O217 2.048 . S
Mg208 O220 2.141 . S
C209 O210 1.313 . S
C209 O216 1.195 . S
O210 C209 1.313 . S
C211 O212 1.245 . S
C211 O220 1.289 . S
O212 C211 1.245 . S
C213 O214 1.245 . S
C213 O215 1.289 . S
O214 C213 1.245 . S
O215 Mg208 2.141 . S
O215 C213 1.289 . S
O216 Mg208 2.048 . S
O216 C209 1.195 . S
O217 Mg208 2.048 . S
O217 C218 1.195 . S
C218 O217 1.195 . S
C218 O219 1.313 . S
O219 C218 1.313 . S
O220 Mg208 2.141 . S
O220 C211 1.289 . S
Mg221 O228 2.141 . S
Mg221 O229 2.048 . S
Mg221 O230 2.048 . S
Mg221 O233 2.141 . S
C222 O223 1.313 . S
C222 O229 1.195 . S
O223 C222 1.313 . S
C224 O225 1.245 . S
C224 O233 1.289 . S
O225 C224 1.245 . S
C226 O227 1.245 . S
C226 O228 1.289 . S
O227 C226 1.245 . S
O228 Mg221 2.141 . S
O228 C226 1.289 . S
O229 Mg221 2.048 . S
O229 C222 1.195 . S
O230 Mg221 2.048 . S
O230 C231 1.195 . S
C231 O230 1.195 . S
C231 O232 1.313 . S
O232 C231 1.313 . S
O233 Mg221 2.141 . S
O233 C224 1.289 . S
C234 C235 1.387 . S
C234 H238 0.950 . S
C234 C243 1.390 1_556 S
C235 C234 1.387 . S
C235 C237 1.387 . S
H236 C243 0.950 . S
C237 C235 1.387 . S
C237 C239 1.390 1_556 S
C237 H241 0.950 . S
H238 C234 0.950 . S
C239 C237 1.390 1_554 S
C239 C240 1.387 . S
C239 H242 0.938 1_455 S
C240 C239 1.387 . S
C240 C243 1.387 . S
H241 C237 0.950 . S
H242 C239 0.938 1_655 S
C243 C234 1.390 1_554 S
C243 H236 0.950 . S
C243 C240 1.387 . S
C244 C245 1.387 . S
C244 H248 0.950 . S
C244 C253 1.390 1_556 S
C245 C244 1.387 . S
C245 C247 1.387 . S
H246 C253 0.950 . S
C247 C245 1.387 . S
C247 C249 1.390 1_556 S
C247 H251 0.950 . S
H248 C244 0.950 . S
C249 C247 1.390 1_554 S
C249 C250 1.387 . S
C249 H252 0.950 . S
C250 C249 1.387 . S
C250 C253 1.387 . S
H251 C247 0.950 . S
H252 C249 0.950 . S
C253 C244 1.390 1_554 S
C253 H246 0.950 . S
C253 C250 1.387 . S
C254 C255 1.387 . S
C254 H258 0.950 . S
C254 C263 1.390 1_554 S
C255 C254 1.387 . S
C255 C257 1.387 . S
H256 C263 0.950 . S
C257 C255 1.387 . S
C257 C259 1.390 1_554 S
C257 H261 0.950 . S
H258 C254 0.950 . S
C259 C257 1.390 1_556 S
C259 C260 1.387 . S
C259 H262 0.950 . S
C260 C259 1.387 . S
C260 C263 1.387 . S
H261 C257 0.950 . S
H262 C259 0.950 . S
C263 C254 1.390 1_556 S
C263 H256 0.950 . S
C263 C260 1.387 . S
C264 C265 1.387 . S
C264 H268 0.950 . S
C264 C273 1.390 . S
C265 C264 1.387 . S
C265 C267 1.387 . S
H266 C273 0.950 . S
C267 C265 1.387 . S
C267 C269 1.390 . S
C267 H271 0.950 . S
H268 C264 0.950 . S
C269 C267 1.390 . S
C269 C270 1.387 . S
C269 H272 0.950 . S
C270 C269 1.387 . S
C270 C273 1.387 . S
H271 C267 0.950 . S
H272 C269 0.950 . S
C273 C264 1.390 . S
C273 H266 0.950 . S
C273 C270 1.387 . S
C274 C275 1.387 . S
C274 H278 0.950 . S
C274 C283 1.390 . S
C275 C274 1.387 . S
C275 C277 1.387 . S
H276 C283 0.950 . S
C277 C275 1.387 . S
C277 C279 1.389 . S
C277 H281 0.950 1_455 S
H278 C274 0.950 . S
C279 C277 1.389 . S
C279 C280 1.403 . S
C279 H282 0.935 1_455 S
C280 C279 1.403 . S
C280 C283 1.387 . S
H281 C277 0.950 1_655 S
H282 C279 0.935 1_655 S
C283 C274 1.390 . S
C283 H276 0.950 . S
C283 C280 1.387 . S
C284 C285 1.387 . S
C284 H288 0.950 . S
C284 C293 1.390 . S
C285 C284 1.387 . S
C285 C287 1.387 . S
H286 C293 0.950 . S
C287 C285 1.387 . S
C287 C289 1.390 . S
C287 H291 0.950 . S
H288 C284 0.950 . S
C289 C287 1.390 . S
C289 C290 1.387 . S
C289 H292 0.950 . S
C290 C289 1.387 . S
C290 C293 1.387 . S
H291 C287 0.950 . S
H292 C289 0.950 . S
C293 C284 1.390 . S
C293 H286 0.950 . S
C293 C290 1.387 . S
C294 C295 1.387 . S
C294 H298 0.950 . S
C294 C303 1.390 . S
C295 C294 1.387 . S
C295 C297 1.387 . S
H296 C303 0.950 . S
C297 C295 1.387 . S
C297 C299 1.390 . S
C297 H301 0.950 . S
H298 C294 0.950 . S
C299 C297 1.390 . S
C299 C300 1.387 . S
C299 H302 0.950 . S
C300 C299 1.387 . S
C300 C303 1.387 . S
H301 C297 0.950 . S
H302 C299 0.950 . S
C303 C294 1.390 . S
C303 H296 0.950 . S
C303 C300 1.387 . S
C304 C305 1.387 . S
C304 H308 0.950 . S
C304 C313 1.390 . S
C305 C304 1.387 . S
C305 C307 1.387 . S
H306 C313 0.950 . S
C307 C305 1.387 . S
C307 C309 1.390 . S
C307 H311 0.950 . S
H308 C304 0.950 . S
C309 C307 1.390 . S
C309 C310 1.387 . S
C309 H312 0.950 . S
C310 C309 1.387 . S
C310 C313 1.387 . S
H311 C307 0.950 . S
H312 C309 0.950 . S
C313 C304 1.390 . S
C313 H306 0.950 . S
C313 C310 1.387 . S
C314 C315 1.387 . S
C314 H318 0.950 . S
C314 C323 1.390 . S
C315 C314 1.387 . S
C315 C317 1.387 . S
H316 C323 0.950 . S
C317 C315 1.387 . S
C317 C319 1.390 . S
C317 H321 0.950 . S
H318 C314 0.950 . S
C319 C317 1.390 . S
C319 C320 1.387 . S
C319 H322 0.950 . S
C320 C319 1.387 . S
C320 C323 1.387 . S
H321 C317 0.950 . S
H322 C319 0.950 . S
C323 C314 1.390 . S
C323 H316 0.950 . S
C323 C320 1.387 . S
C324 C325 1.387 . S
C324 H328 0.950 . S
C324 C333 1.390 . S
C325 C324 1.387 . S
C325 C327 1.387 . S
H326 C333 0.950 . S
C327 C325 1.387 . S
C327 C329 1.390 . S
C327 H331 0.950 . S
H328 C324 0.950 . S
C329 C327 1.390 . S
C329 C330 1.387 . S
C329 H332 0.950 . S
C330 C329 1.387 . S
C330 C333 1.387 . S
H331 C327 0.950 . S
H332 C329 0.950 . S
C333 C324 1.390 . S
C333 H326 0.950 . S
C333 C330 1.387 . S
C334 C335 1.387 . S
C334 H338 0.950 . S
C334 C343 1.390 . S
C335 C334 1.387 . S
C335 C337 1.387 . S
H336 C343 0.950 . S
C337 C335 1.387 . S
C337 C339 1.390 . S
C337 H341 0.950 . S
H338 C334 0.950 . S
C339 C337 1.390 . S
C339 C340 1.387 . S
C339 H342 0.950 . S
C340 C339 1.387 . S
C340 C343 1.387 . S
H341 C337 0.950 . S
H342 C339 0.950 . S
C343 C334 1.390 . S
C343 H336 0.950 . S
C343 C340 1.387 . S
C344 C345 1.387 . S
C344 H348 0.950 . S
C344 C353 1.390 . S
C345 C344 1.387 . S
C345 C347 1.387 . S
H346 C353 0.950 . S
C347 C345 1.387 . S
C347 C349 1.390 . S
C347 H351 0.950 . S
H348 C344 0.950 . S
C349 C347 1.390 . S
C349 C350 1.387 . S
C349 H352 0.950 . S
C350 C349 1.387 . S
C350 C353 1.387 . S
H351 C347 0.950 . S
H352 C349 0.950 . S
C353 C344 1.390 . S
C353 H346 0.950 . S
C353 C350 1.387 . S
C354 C355 1.387 . S
C354 H358 0.950 . S
C354 C363 1.390 . S
C355 C354 1.387 . S
C355 C357 1.387 . S
H356 C363 0.950 . S
C357 C355 1.387 . S
C357 C359 1.390 . S
C357 H361 0.950 . S
H358 C354 0.950 . S
C359 C357 1.390 . S
C359 C360 1.387 . S
C359 H362 0.950 . S
C360 C359 1.387 . S
C360 C363 1.387 . S
H361 C357 0.950 . S
H362 C359 0.950 . S
C363 C354 1.390 . S
C363 H356 0.950 . S
C363 C360 1.387 . S
C364 C365 1.387 . S
C364 H368 0.950 . S
C364 C373 1.390 . S
C365 C364 1.387 . S
C365 C367 1.387 . S
H366 C373 0.950 . S
C367 C365 1.387 . S
C367 C369 1.390 . S
C367 H371 0.950 . S
H368 C364 0.950 . S
C369 C367 1.390 . S
C369 C370 1.387 . S
C369 H372 0.950 . S
C370 C369 1.387 . S
C370 C373 1.387 . S
H371 C367 0.950 . S
H372 C369 0.950 . S
C373 C364 1.390 . S
C373 H366 0.950 . S
C373 C370 1.387 . S
C374 C375 1.387 . S
C374 H378 0.950 . S
C374 C383 1.390 . S
C375 C374 1.387 . S
C375 C377 1.387 . S
H376 C383 0.950 . S
C377 C375 1.387 . S
C377 C379 1.390 . S
C377 H381 0.950 . S
H378 C374 0.950 . S
C379 C377 1.390 . S
C379 C380 1.387 . S
C379 H382 0.950 . S
C380 C379 1.387 . S
C380 C383 1.387 . S
H381 C377 0.950 . S
H382 C379 0.950 . S
C383 C374 1.390 . S
C383 H376 0.950 . S
C383 C380 1.387 . S
C384 C385 1.387 . S
C384 H388 0.950 . S
C384 C393 1.390 . S
C385 C384 1.387 . S
C385 C387 1.387 . S
H386 C393 0.950 . S
C387 C385 1.387 . S
C387 C389 1.390 . S
C387 H391 0.950 . S
H388 C384 0.950 . S
C389 C387 1.390 . S
C389 C390 1.387 . S
C389 H392 0.950 . S
C390 C389 1.387 . S
C390 C393 1.387 . S
H391 C387 0.950 . S
H392 C389 0.950 . S
C393 C384 1.390 . S
C393 H386 0.950 . S
C393 C390 1.387 . S
C394 C395 1.387 . S
C394 H398 0.950 . S
C394 C403 1.390 . S
C395 C394 1.387 . S
C395 C397 1.387 . S
H396 C403 0.950 . S
C397 C395 1.387 . S
C397 C399 1.390 . S
C397 H401 0.950 . S
H398 C394 0.950 . S
C399 C397 1.390 . S
C399 C400 1.387 . S
C399 H402 0.950 . S
C400 C399 1.387 . S
C400 C403 1.387 . S
H401 C397 0.950 . S
H402 C399 0.950 . S
C403 C394 1.390 . S
C403 H396 0.950 . S
C403 C400 1.387 . S
C404 C405 1.387 . S
C404 H408 0.950 . S
C404 C413 1.390 . S
C405 C404 1.387 . S
C405 C407 1.387 . S
H406 C413 0.950 . S
C407 C405 1.387 . S
C407 C409 1.390 . S
C407 H411 0.950 . S
H408 C404 0.950 . S
C409 C407 1.390 . S
C409 C410 1.387 . S
C409 H412 0.950 . S
C410 C409 1.387 . S
C410 C413 1.387 . S
H411 C407 0.950 . S
H412 C409 0.950 . S
C413 C404 1.390 . S
C413 H406 0.950 . S
C413 C410 1.387 . S
C414 C415 1.387 . S
C414 H418 0.950 . S
C414 C423 1.390 . S
C415 C414 1.387 . S
C415 C417 1.387 . S
H416 C423 0.950 . S
C417 C415 1.387 . S
C417 C419 1.390 . S
C417 H421 0.950 . S
H418 C414 0.950 . S
C419 C417 1.390 . S
C419 C420 1.387 . S
C419 H422 0.950 . S
C420 C419 1.387 . S
C420 C423 1.387 . S
H421 C417 0.950 . S
H422 C419 0.950 . S
C423 C414 1.390 . S
C423 H416 0.950 . S
C423 C420 1.387 . S
C424 C425 1.387 . S
C424 H428 0.950 . S
C424 C433 1.390 . S
C425 C424 1.387 . S
C425 C427 1.387 . S
H426 C433 0.950 . S
C427 C425 1.387 . S
C427 C429 1.390 . S
C427 H431 0.950 . S
H428 C424 0.950 . S
C429 C427 1.390 . S
C429 C430 1.387 . S
C429 H432 0.950 . S
C430 C429 1.387 . S
C430 C433 1.387 . S
H431 C427 0.950 . S
H432 C429 0.950 . S
C433 C424 1.390 . S
C433 H426 0.950 . S
C433 C430 1.387 . S
C434 C435 1.387 1_565 S
C434 H438 0.970 . S
C434 C443 1.370 1_565 S
C435 C434 1.387 1_545 S
C435 C437 1.387 . S
H436 C443 0.950 . S
C437 C435 1.387 . S
C437 C439 1.390 . S
C437 H441 0.950 . S
H438 C434 0.970 . S
C439 C437 1.390 . S
C439 C440 1.387 . S
C439 H442 0.950 . S
C440 C439 1.387 . S
C440 C443 1.387 . S
H441 C437 0.950 . S
H442 C439 0.950 . S
C443 C434 1.370 1_545 S
C443 H436 0.950 . S
C443 C440 1.387 . S
C444 C445 1.387 . S
C444 H448 0.950 . S
C444 C453 1.390 . S
C445 C444 1.387 . S
C445 C447 1.387 . S
H446 C453 0.950 . S
C447 C445 1.387 . S
C447 C449 1.390 . S
C447 H451 0.950 1_554 S
H448 C444 0.950 . S
C449 C447 1.390 . S
C449 C450 1.387 . S
C449 H452 0.950 1_554 S
C450 C449 1.387 . S
C450 C453 1.387 . S
H451 C447 0.950 1_556 S
H452 C449 0.950 1_556 S
C453 C444 1.390 . S
C453 H446 0.950 . S
C453 C450 1.387 . S
C454 C455 1.387 . S
C454 H458 0.950 1_554 S
C454 C463 1.390 . S
C455 C454 1.387 . S
C455 C457 1.387 . S
H456 C463 0.950 1_556 S
C457 C455 1.387 . S
C457 C459 1.390 . S
C457 H461 0.950 . S
H458 C454 0.950 1_556 S
C459 C457 1.390 . S
C459 C460 1.387 . S
C459 H462 0.950 1_655 S
C460 C459 1.387 . S
C460 C463 1.387 . S
H461 C457 0.950 . S
H462 C459 0.950 1_455 S
C463 C454 1.390 . S
C463 H456 0.950 1_554 S
C463 C460 1.387 . S
C464 C465 1.387 . S
C464 H468 0.950 . S
C464 C473 1.390 . S
C465 C464 1.387 . S
C465 C467 1.387 . S
H466 C473 0.950 . S
C467 C465 1.387 . S
C467 C469 1.390 . S
C467 H471 0.950 . S
H468 C464 0.950 . S
C469 C467 1.390 . S
C469 C470 1.387 . S
C469 H472 0.950 . S
C470 C469 1.387 . S
C470 C473 1.387 . S
H471 C467 0.950 . S
H472 C469 0.950 . S
C473 C464 1.390 . S
C473 H466 0.950 . S
C473 C470 1.387 . S
C474 C475 1.387 1_455 S
C474 H478 0.950 . S
C474 C483 1.390 . S
C475 C474 1.387 1_655 S
C475 C477 1.387 . S
H476 C483 0.950 . S
C477 C475 1.387 . S
C477 C479 1.390 . S
C477 H481 0.950 . S
H478 C474 0.950 . S
C479 C477 1.390 . S
C479 C480 1.387 1_655 S
C479 H482 0.950 . S
C480 C479 1.387 1_455 S
C480 C483 1.387 . S
H481 C477 0.950 . S
H482 C479 0.950 . S
C483 C474 1.390 . S
C483 H476 0.950 . S
C483 C480 1.387 . S
C484 C485 1.387 . S
C484 H488 0.950 . S
C484 C493 1.390 . S
C485 C484 1.387 . S
C485 C487 1.387 . S
H486 C493 0.950 . S
C487 C485 1.387 . S
C487 C489 1.390 . S
C487 H491 0.950 . S
H488 C484 0.950 . S
C489 C487 1.390 . S
C489 C490 1.387 . S
C489 H492 0.950 . S
C490 C489 1.387 . S
C490 C493 1.387 . S
H491 C487 0.950 . S
H492 C489 0.950 . S
C493 C484 1.390 . S
C493 H486 0.950 . S
C493 C490 1.387 . S
C494 C495 1.387 . S
C494 H498 0.950 . S
C494 C503 1.390 . S
C495 C494 1.387 . S
C495 C497 1.387 . S
H496 C503 0.950 . S
C497 C495 1.387 . S
C497 C499 1.390 . S
C497 H501 0.950 . S
H498 C494 0.950 . S
C499 C497 1.390 . S
C499 C500 1.387 . S
C499 H502 0.950 . S
C500 C499 1.387 . S
C500 C503 1.387 . S
H501 C497 0.950 . S
H502 C499 0.950 . S
C503 C494 1.390 . S
C503 H496 0.950 . S
C503 C500 1.387 . S
C504 C505 1.387 . S
C504 H508 0.950 . S
C504 C513 1.390 . S
C505 C504 1.387 . S
C505 C507 1.387 . S
H506 C513 0.950 . S
C507 C505 1.387 . S
C507 C509 1.390 . S
C507 H511 0.950 1_556 S
H508 C504 0.950 . S
C509 C507 1.390 . S
C509 C510 1.387 . S
C509 H512 0.950 1_556 S
C510 C509 1.387 . S
C510 C513 1.387 . S
H511 C507 0.950 1_554 S
H512 C509 0.950 1_554 S
C513 C504 1.390 . S
C513 H506 0.950 . S
C513 C510 1.387 . S
C514 C515 1.387 . S
C514 H518 0.950 1_556 S
C514 C523 1.390 . S
C515 C514 1.387 . S
C515 C517 1.387 . S
H516 C523 0.950 1_554 S
C517 C515 1.387 . S
C517 C519 1.390 . S
C517 H521 0.950 . S
H518 C514 0.950 1_554 S
C519 C517 1.390 . S
C519 C520 1.387 . S
C519 H522 0.950 . S
C520 C519 1.387 . S
C520 C523 1.387 . S
H521 C517 0.950 . S
H522 C519 0.950 . S
C523 C514 1.390 . S
C523 H516 0.950 1_556 S
C523 C520 1.387 . S
C524 C525 1.387 . S
C524 H528 0.950 1_556 S
C524 C533 1.390 . S
C525 C524 1.387 . S
C525 C527 1.387 . S
H526 C533 0.950 1_554 S
C527 C525 1.387 . S
C527 C529 1.390 . S
C527 H531 0.950 . S
H528 C524 0.950 1_554 S
C529 C527 1.390 . S
C529 C530 1.387 . S
C529 H532 0.950 . S
C530 C529 1.387 . S
C530 C533 1.387 . S
H531 C527 0.950 . S
H532 C529 0.950 . S
C533 C524 1.390 . S
C533 H526 0.950 1_556 S
C533 C530 1.387 . S
C534 C535 1.387 . S
C534 H538 0.950 . S
C534 C543 1.390 . S
C535 C534 1.387 . S
C535 C537 1.387 . S
H536 C543 0.950 . S
C537 C535 1.387 . S
C537 C539 1.390 . S
C537 H541 0.950 . S
H538 C534 0.950 . S
C539 C537 1.390 . S
C539 C540 1.387 . S
C539 H542 0.950 . S
C540 C539 1.387 . S
C540 C543 1.387 . S
H541 C537 0.950 . S
H542 C539 0.950 . S
C543 C534 1.390 . S
C543 H536 0.950 . S
C543 C540 1.387 . S
C544 C545 1.387 . S
C544 H548 0.950 . S
C544 C553 1.390 . S
C545 C544 1.387 . S
C545 C547 1.387 . S
H546 C553 0.950 . S
C547 C545 1.387 . S
C547 C549 1.390 . S
C547 H551 0.950 . S
H548 C544 0.950 . S
C549 C547 1.390 . S
C549 C550 1.366 1_455 S
C549 H552 0.950 1_455 S
C550 C549 1.366 1_655 S
C550 C553 1.374 1_655 S
H551 C547 0.950 . S
H552 C549 0.950 1_655 S
C553 C544 1.390 . S
C553 H546 0.950 . S
C553 C550 1.374 1_455 S
C554 C555 1.387 . S
C554 H558 0.950 . S
C554 C563 1.390 . S
C555 C554 1.387 . S
C555 C557 1.387 . S
H556 C563 0.950 . S
C557 C555 1.387 . S
C557 C559 1.390 . S
C557 H561 0.950 . S
H558 C554 0.950 . S
C559 C557 1.390 . S
C559 C560 1.387 . S
C559 H562 0.950 . S
C560 C559 1.387 . S
C560 C563 1.387 . S
H561 C557 0.950 . S
H562 C559 0.950 . S
C563 C554 1.390 . S
C563 H556 0.950 . S
C563 C560 1.387 . S
C564 C565 1.387 . S
C564 H568 0.950 1_455 S
C564 C573 1.390 . S
C565 C564 1.387 . S
C565 C567 1.387 . S
H566 C573 0.950 . S
C567 C565 1.387 . S
C567 C569 1.390 . S
C567 H571 0.950 . S
H568 C564 0.950 1_655 S
C569 C567 1.390 . S
C569 C570 1.387 . S
C569 H572 0.950 . S
C570 C569 1.387 . S
C570 C573 1.387 . S
H571 C567 0.950 . S
H572 C569 0.950 . S
C573 C564 1.390 . S
C573 H566 0.950 . S
C573 C570 1.387 . S
C574 C575 1.387 . S
C574 H578 0.950 . S
C574 C583 1.390 . S
C575 C574 1.387 . S
C575 C577 1.387 . S
H576 C583 0.950 . S
C577 C575 1.387 . S
C577 C579 1.390 . S
C577 H581 0.950 . S
H578 C574 0.950 . S
C579 C577 1.390 . S
C579 C580 1.387 . S
C579 H582 0.950 . S
C580 C579 1.387 . S
C580 C583 1.387 . S
H581 C577 0.950 . S
H582 C579 0.950 . S
C583 C574 1.390 . S
C583 H576 0.950 . S
C583 C580 1.387 . S
C584 C585 1.387 . S
C584 H588 0.950 . S
C584 C593 1.390 . S
C585 C584 1.387 . S
C585 C587 1.387 . S
H586 C593 0.950 . S
C587 C585 1.387 . S
C587 C589 1.390 . S
C587 H591 0.950 . S
H588 C584 0.950 . S
C589 C587 1.390 . S
C589 C590 1.387 . S
C589 H592 0.950 . S
C590 C589 1.387 . S
C590 C593 1.387 . S
H591 C587 0.950 . S
H592 C589 0.950 . S
C593 C584 1.390 . S
C593 H586 0.950 . S
C593 C590 1.387 . S
C235 C44 1.836 . S
C240 C5 1.972 . S
C245 C57 1.843 . S
C250 C16 1.831 . S
C255 C27 1.813 . S
C260 C66 1.906 . S
C265 C31 1.977 . S
C270 C70 1.836 . S
C275 C1 1.818 . S
C280 C40 1.905 . S
C285 C53 1.910 . S
C290 C23 1.915 . S
C295 C118 1.944 . S
C300 C83 1.956 . S
C305 C94 1.842 . S
C310 C131 1.960 . S
C315 C109 1.947 . S
C320 C144 1.936 . S
C325 C148 1.820 . S
C330 C105 1.840 . S
C335 C122 1.800 . S
C340 C79 1.819 . S
C345 C135 1.817 . S
C350 C101 1.932 . S
C355 C161 1.977 . S
C360 C200 1.849 . S
C365 C172 1.845 . S
C370 C213 1.846 . S
C375 C183 1.824 . S
C380 C222 1.918 . S
C385 C226 1.844 . S
C390 C187 1.986 . S
C395 C196 1.914 . S
C400 C157 1.833 . S
C405 C209 1.923 . S
C410 C179 1.924 . S
C415 C10 1.658 . S
C420 C96 1.664 . S
C425 C14 1.598 . S
C430 C107 1.597 . S
C435 C81 1.527 1_545 S
C440 C29 1.527 . S
C445 C36 1.706 . S
C450 C170 1.640 . S
C455 C185 1.514 . S
C460 C3 1.523 1_655 S
C465 C166 1.646 . S
C470 C18 1.653 . S
C475 C211 1.651 . S
C480 C49 1.583 . S
C485 C62 1.649 . S
C490 C231 1.636 . S
C495 C198 1.586 . S
C500 C68 1.584 . S
C505 C133 1.676 . S
C510 C75 1.608 . S
C515 C42 1.598 . S
C520 C146 1.598 . S
C525 C55 1.607 . S
C530 C120 1.605 . S
C535 C88 1.627 . S
C540 C174 1.633 . S
C545 C92 1.632 . S
C550 C192 1.728 . S
C555 C114 1.619 . S
C560 C159 1.562 . S
C565 C218 1.623 1_455 S
C570 C153 1.632 . S
C575 C224 1.623 . S
C580 C127 1.561 . S
C585 C140 1.619 . S
C590 C205 1.619 . S
