# Generated by pormake.
# Topology wlu, (5)-cn, num edge types: 1
# Building blocks:
#     Node 0, Type 0, BuildingBlock: XOMCOT_clean_sbu_1, # of connection points: 5
#     Node 1, Type 0, BuildingBlock: XOMCOT_clean_sbu_1, # of connection points: 5
#     Node 2, Type 0, BuildingBlock: XOMCOT_clean_sbu_1, # of connection points: 5
#     Node 3, Type 0, BuildingBlock: XOMCOT_clean_sbu_1, # of connection points: 5
#     Node 4, Type 0, BuildingBlock: XOMCOT_clean_sbu_1, # of connection points: 5
#     Node 5, Type 0, BuildingBlock: XOMCOT_clean_sbu_1, # of connection points: 5
#     Node 6, Type 0, BuildingBlock: XOMCOT_clean_sbu_1, # of connection points: 5
#     Node 7, Type 0, BuildingBlock: XOMCOT_clean_sbu_1, # of connection points: 5
#     Node 8, Type 0, BuildingBlock: XOMCOT_clean_sbu_1, # of connection points: 5
#     Node 9, Type 0, BuildingBlock: XOMCOT_clean_sbu_1, # of connection points: 5
#     Node 10, Type 0, BuildingBlock: XOMCOT_clean_sbu_1, # of connection points: 5
#     Node 11, Type 0, BuildingBlock: XOMCOT_clean_sbu_1, # of connection points: 5
#     Node 12, Type 0, BuildingBlock: XOMCOT_clean_sbu_1, # of connection points: 5
#     Node 13, Type 0, BuildingBlock: XOMCOT_clean_sbu_1, # of connection points: 5
#     Node 14, Type 0, BuildingBlock: XOMCOT_clean_sbu_1, # of connection points: 5
#     Node 15, Type 0, BuildingBlock: XOMCOT_clean_sbu_1, # of connection points: 5
#     Node 16, Type 0, BuildingBlock: XOMCOT_clean_sbu_1, # of connection points: 5
#     Node 17, Type 0, BuildingBlock: XOMCOT_clean_sbu_1, # of connection points: 5
#     Node 18, Type 0, BuildingBlock: XOMCOT_clean_sbu_1, # of connection points: 5
#     Node 19, Type 0, BuildingBlock: XOMCOT_clean_sbu_1, # of connection points: 5
#     Node 20, Type 0, BuildingBlock: XOMCOT_clean_sbu_1, # of connection points: 5
#     Node 21, Type 0, BuildingBlock: XOMCOT_clean_sbu_1, # of connection points: 5
#     Node 22, Type 0, BuildingBlock: XOMCOT_clean_sbu_1, # of connection points: 5
#     Node 23, Type 0, BuildingBlock: XOMCOT_clean_sbu_1, # of connection points: 5
#     Node 24, Type 0, BuildingBlock: XOMCOT_clean_sbu_1, # of connection points: 5
#     Node 25, Type 0, BuildingBlock: XOMCOT_clean_sbu_1, # of connection points: 5
#     Node 26, Type 0, BuildingBlock: XOMCOT_clean_sbu_1, # of connection points: 5
#     Node 27, Type 0, BuildingBlock: XOMCOT_clean_sbu_1, # of connection points: 5
#     Node 28, Type 0, BuildingBlock: XOMCOT_clean_sbu_1, # of connection points: 5
#     Node 29, Type 0, BuildingBlock: XOMCOT_clean_sbu_1, # of connection points: 5
#     Node 30, Type 0, BuildingBlock: XOMCOT_clean_sbu_1, # of connection points: 5
#     Node 31, Type 0, BuildingBlock: XOMCOT_clean_sbu_1, # of connection points: 5
#     Node 32, Type 0, BuildingBlock: XOMCOT_clean_sbu_1, # of connection points: 5
#     Node 33, Type 0, BuildingBlock: XOMCOT_clean_sbu_1, # of connection points: 5
#     Node 34, Type 0, BuildingBlock: XOMCOT_clean_sbu_1, # of connection points: 5
#     Node 35, Type 0, BuildingBlock: XOMCOT_clean_sbu_1, # of connection points: 5
#     Edge 36, Type (0, 0), BuildingBlock: ZUJKAS_clean_linker_0, # of connection points: 2
#     Edge 37, Type (0, 0), BuildingBlock: ZUJKAS_clean_linker_0, # of connection points: 2
#     Edge 38, Type (0, 0), BuildingBlock: ZUJKAS_clean_linker_0, # of connection points: 2
#     Edge 39, Type (0, 0), BuildingBlock: ZUJKAS_clean_linker_0, # of connection points: 2
#     Edge 40, Type (0, 0), BuildingBlock: ZUJKAS_clean_linker_0, # of connection points: 2
#     Edge 41, Type (0, 0), BuildingBlock: ZUJKAS_clean_linker_0, # of connection points: 2
#     Edge 42, Type (0, 0), BuildingBlock: ZUJKAS_clean_linker_0, # of connection points: 2
#     Edge 43, Type (0, 0), BuildingBlock: ZUJKAS_clean_linker_0, # of connection points: 2
#     Edge 44, Type (0, 0), BuildingBlock: ZUJKAS_clean_linker_0, # of connection points: 2
#     Edge 45, Type (0, 0), BuildingBlock: ZUJKAS_clean_linker_0, # of connection points: 2
#     Edge 46, Type (0, 0), BuildingBlock: ZUJKAS_clean_linker_0, # of connection points: 2
#     Edge 47, Type (0, 0), BuildingBlock: ZUJKAS_clean_linker_0, # of connection points: 2
#     Edge 48, Type (0, 0), BuildingBlock: ZUJKAS_clean_linker_0, # of connection points: 2
#     Edge 49, Type (0, 0), BuildingBlock: ZUJKAS_clean_linker_0, # of connection points: 2
#     Edge 50, Type (0, 0), BuildingBlock: ZUJKAS_clean_linker_0, # of connection points: 2
#     Edge 51, Type (0, 0), BuildingBlock: ZUJKAS_clean_linker_0, # of connection points: 2
#     Edge 52, Type (0, 0), BuildingBlock: ZUJKAS_clean_linker_0, # of connection points: 2
#     Edge 53, Type (0, 0), BuildingBlock: ZUJKAS_clean_linker_0, # of connection points: 2
#     Edge 54, Type (0, 0), BuildingBlock: ZUJKAS_clean_linker_0, # of connection points: 2
#     Edge 55, Type (0, 0), BuildingBlock: ZUJKAS_clean_linker_0, # of connection points: 2
#     Edge 56, Type (0, 0), BuildingBlock: ZUJKAS_clean_linker_0, # of connection points: 2
#     Edge 57, Type (0, 0), BuildingBlock: ZUJKAS_clean_linker_0, # of connection points: 2
#     Edge 58, Type (0, 0), BuildingBlock: ZUJKAS_clean_linker_0, # of connection points: 2
#     Edge 59, Type (0, 0), BuildingBlock: ZUJKAS_clean_linker_0, # of connection points: 2
#     Edge 60, Type (0, 0), BuildingBlock: ZUJKAS_clean_linker_0, # of connection points: 2
#     Edge 61, Type (0, 0), BuildingBlock: ZUJKAS_clean_linker_0, # of connection points: 2
#     Edge 62, Type (0, 0), BuildingBlock: ZUJKAS_clean_linker_0, # of connection points: 2
#     Edge 63, Type (0, 0), BuildingBlock: ZUJKAS_clean_linker_0, # of connection points: 2
#     Edge 64, Type (0, 0), BuildingBlock: ZUJKAS_clean_linker_0, # of connection points: 2
#     Edge 65, Type (0, 0), BuildingBlock: ZUJKAS_clean_linker_0, # of connection points: 2
#     Edge 66, Type (0, 0), BuildingBlock: ZUJKAS_clean_linker_0, # of connection points: 2
#     Edge 67, Type (0, 0), BuildingBlock: ZUJKAS_clean_linker_0, # of connection points: 2
#     Edge 68, Type (0, 0), BuildingBlock: ZUJKAS_clean_linker_0, # of connection points: 2
#     Edge 69, Type (0, 0), BuildingBlock: ZUJKAS_clean_linker_0, # of connection points: 2
#     Edge 70, Type (0, 0), BuildingBlock: ZUJKAS_clean_linker_0, # of connection points: 2
#     Edge 71, Type (0, 0), BuildingBlock: ZUJKAS_clean_linker_0, # of connection points: 2
#     Edge 72, Type (0, 0), BuildingBlock: ZUJKAS_clean_linker_0, # of connection points: 2
#     Edge 73, Type (0, 0), BuildingBlock: ZUJKAS_clean_linker_0, # of connection points: 2
#     Edge 74, Type (0, 0), BuildingBlock: ZUJKAS_clean_linker_0, # of connection points: 2
#     Edge 75, Type (0, 0), BuildingBlock: ZUJKAS_clean_linker_0, # of connection points: 2
#     Edge 76, Type (0, 0), BuildingBlock: ZUJKAS_clean_linker_0, # of connection points: 2
#     Edge 77, Type (0, 0), BuildingBlock: ZUJKAS_clean_linker_0, # of connection points: 2
#     Edge 78, Type (0, 0), BuildingBlock: ZUJKAS_clean_linker_0, # of connection points: 2
#     Edge 79, Type (0, 0), BuildingBlock: ZUJKAS_clean_linker_0, # of connection points: 2
#     Edge 80, Type (0, 0), BuildingBlock: ZUJKAS_clean_linker_0, # of connection points: 2
#     Edge 81, Type (0, 0), BuildingBlock: ZUJKAS_clean_linker_0, # of connection points: 2
#     Edge 82, Type (0, 0), BuildingBlock: ZUJKAS_clean_linker_0, # of connection points: 2
#     Edge 83, Type (0, 0), BuildingBlock: ZUJKAS_clean_linker_0, # of connection points: 2
#     Edge 84, Type (0, 0), BuildingBlock: ZUJKAS_clean_linker_0, # of connection points: 2
#     Edge 85, Type (0, 0), BuildingBlock: ZUJKAS_clean_linker_0, # of connection points: 2
#     Edge 86, Type (0, 0), BuildingBlock: ZUJKAS_clean_linker_0, # of connection points: 2
#     Edge 87, Type (0, 0), BuildingBlock: ZUJKAS_clean_linker_0, # of connection points: 2
#     Edge 88, Type (0, 0), BuildingBlock: ZUJKAS_clean_linker_0, # of connection points: 2
#     Edge 89, Type (0, 0), BuildingBlock: ZUJKAS_clean_linker_0, # of connection points: 2
#     Edge 90, Type (0, 0), BuildingBlock: ZUJKAS_clean_linker_0, # of connection points: 2
#     Edge 91, Type (0, 0), BuildingBlock: ZUJKAS_clean_linker_0, # of connection points: 2
#     Edge 92, Type (0, 0), BuildingBlock: ZUJKAS_clean_linker_0, # of connection points: 2
#     Edge 93, Type (0, 0), BuildingBlock: ZUJKAS_clean_linker_0, # of connection points: 2
#     Edge 94, Type (0, 0), BuildingBlock: ZUJKAS_clean_linker_0, # of connection points: 2
#     Edge 95, Type (0, 0), BuildingBlock: ZUJKAS_clean_linker_0, # of connection points: 2
#     Edge 96, Type (0, 0), BuildingBlock: ZUJKAS_clean_linker_0, # of connection points: 2
#     Edge 97, Type (0, 0), BuildingBlock: ZUJKAS_clean_linker_0, # of connection points: 2
#     Edge 98, Type (0, 0), BuildingBlock: ZUJKAS_clean_linker_0, # of connection points: 2
#     Edge 99, Type (0, 0), BuildingBlock: ZUJKAS_clean_linker_0, # of connection points: 2
#     Edge 100, Type (0, 0), BuildingBlock: ZUJKAS_clean_linker_0, # of connection points: 2
#     Edge 101, Type (0, 0), BuildingBlock: ZUJKAS_clean_linker_0, # of connection points: 2
#     Edge 102, Type (0, 0), BuildingBlock: ZUJKAS_clean_linker_0, # of connection points: 2
#     Edge 103, Type (0, 0), BuildingBlock: ZUJKAS_clean_linker_0, # of connection points: 2
#     Edge 104, Type (0, 0), BuildingBlock: ZUJKAS_clean_linker_0, # of connection points: 2
#     Edge 105, Type (0, 0), BuildingBlock: ZUJKAS_clean_linker_0, # of connection points: 2
#     Edge 106, Type (0, 0), BuildingBlock: ZUJKAS_clean_linker_0, # of connection points: 2
#     Edge 107, Type (0, 0), BuildingBlock: ZUJKAS_clean_linker_0, # of connection points: 2
#     Edge 108, Type (0, 0), BuildingBlock: ZUJKAS_clean_linker_0, # of connection points: 2
#     Edge 109, Type (0, 0), BuildingBlock: ZUJKAS_clean_linker_0, # of connection points: 2
#     Edge 110, Type (0, 0), BuildingBlock: ZUJKAS_clean_linker_0, # of connection points: 2
#     Edge 111, Type (0, 0), BuildingBlock: ZUJKAS_clean_linker_0, # of connection points: 2
#     Edge 112, Type (0, 0), BuildingBlock: ZUJKAS_clean_linker_0, # of connection points: 2
#     Edge 113, Type (0, 0), BuildingBlock: ZUJKAS_clean_linker_0, # of connection points: 2
#     Edge 114, Type (0, 0), BuildingBlock: ZUJKAS_clean_linker_0, # of connection points: 2
#     Edge 115, Type (0, 0), BuildingBlock: ZUJKAS_clean_linker_0, # of connection points: 2
#     Edge 116, Type (0, 0), BuildingBlock: ZUJKAS_clean_linker_0, # of connection points: 2
#     Edge 117, Type (0, 0), BuildingBlock: ZUJKAS_clean_linker_0, # of connection points: 2
#     Edge 118, Type (0, 0), BuildingBlock: ZUJKAS_clean_linker_0, # of connection points: 2
#     Edge 119, Type (0, 0), BuildingBlock: ZUJKAS_clean_linker_0, # of connection points: 2
#     Edge 120, Type (0, 0), BuildingBlock: ZUJKAS_clean_linker_0, # of connection points: 2
#     Edge 121, Type (0, 0), BuildingBlock: ZUJKAS_clean_linker_0, # of connection points: 2
#     Edge 122, Type (0, 0), BuildingBlock: ZUJKAS_clean_linker_0, # of connection points: 2
#     Edge 123, Type (0, 0), BuildingBlock: ZUJKAS_clean_linker_0, # of connection points: 2
#     Edge 124, Type (0, 0), BuildingBlock: ZUJKAS_clean_linker_0, # of connection points: 2
#     Edge 125, Type (0, 0), BuildingBlock: ZUJKAS_clean_linker_0, # of connection points: 2
# Relax obj value: 0.189
# Max RMSD: 0.162
# Mean RMSD: 0.162
data_MOF--net-wlu--node1-XOMCOT_clean_sbu_1--edge1-ZUJKAS_clean_linker_0
_symmetry_space_group_name_H-M    P1
_symmetry_Int_Tables_number       1
_symmetry_cell_setting            triclinic
loop_
_symmetry_equiv_pos_as_xyz
'x, y, z'
_cell_length_a     84.790779
_cell_length_b     84.764653
_cell_length_c     69.548908
_cell_angle_alpha  89.996653
_cell_angle_beta   90.02732
_cell_angle_gamma 120.01191
loop_
_atom_site_label
_atom_site_type_symbol
_atom_site_fract_x
_atom_site_fract_y
_atom_site_fract_z
_atom_type_partial_charge
C0 C 0.2614 0.14815 0.08246 0.0
C1 C 0.25504 0.12994 0.07961 0.0
N2 N 0.25697 0.12728 0.06085 0.0
N3 N 0.26748 0.15704 0.06564 0.0
C4 C 0.26458 0.14399 0.05268 0.0
H5 H 0.2614 0.15449 0.09594 0.0
Co6 Co 0.27645 0.18181 0.06311 0.0
C7 C 0.30774 0.18722 0.03785 0.0
O8 O 0.32006 0.19372 0.05154 0.0
N9 N 0.28507 0.20677 0.06135 0.0
C10 C 0.28462 0.2325 0.06568 0.0
C11 C 0.27418 0.21393 0.06429 0.0
C12 C 0.30215 0.2213 0.06102 0.0
N13 N 0.30215 0.23708 0.06361 0.0
O14 O 0.29518 0.18622 0.08148 0.0
H15 H 0.25964 0.20607 0.06658 0.0
H16 H 0.31436 0.2203 0.06058 0.0
O17 O 0.29126 0.18256 0.04151 0.0
C18 C 0.29212 0.19034 0.09817 0.0
O19 O 0.27774 0.19218 0.10053 0.0
N20 N 0.25744 0.17742 0.04622 0.0
C21 C 0.22879 0.17727 0.02641 0.0
C22 C 0.24609 0.18468 0.01798 0.0
C23 C 0.2603 0.18472 0.02818 0.0
C24 C 0.24048 0.16914 0.05416 0.0
C25 C 0.22593 0.16887 0.04447 0.0
H26 H 0.27382 0.19189 0.02211 0.0
H27 H 0.23849 0.16378 0.06862 0.0
H28 H 0.26753 0.14663 0.03751 0.0
H29 H 0.24951 0.11951 0.09059 0.0
H30 H 0.27984 0.24188 0.06905 0.0
H31 H 0.24899 0.19157 1.00423 0.0
H32 H 0.21275 0.16287 0.05142 0.0
C33 C 0.84372 0.09965 0.0736 0.0
C34 C 0.86244 0.10869 0.07421 0.0
N35 N 0.86881 0.12409 0.06376 0.0
N36 N 0.8383 0.10926 0.06281 0.0
C37 C 0.85385 0.12412 0.0571 0.0
H38 H 0.83462 0.08672 0.08033 0.0
Co39 Co 0.81426 0.10212 0.05725 0.0
C40 C 0.81761 0.13073 0.03109 0.0
O41 O 0.80752 0.13398 0.04295 0.0
N42 N 0.78991 0.09451 0.05156 0.0
C43 C 0.76413 0.08395 0.03514 0.0
C44 C 0.78262 0.09138 0.03376 0.0
C45 C 0.77553 0.08874 0.06354 0.0
N46 N 0.75958 0.08224 0.05391 0.0
O47 O 0.81565 0.12032 0.07461 0.0
H48 H 0.79017 0.09366 0.02055 0.0
H49 H 0.7767 0.08888 0.07901 0.0
O50 O 0.82187 0.11871 0.03542 0.0
C51 C 0.8126 0.1138 0.09161 0.0
O52 O 0.80872 0.09682 0.09388 0.0
N53 N 0.8126 0.08334 0.04216 0.0
C54 C 0.80688 0.05141 0.02472 0.0
C55 C 0.81636 0.06813 0.01499 0.0
C56 C 0.81929 0.08413 0.02411 0.0
C57 C 0.8035 0.06726 0.05177 0.0
C58 C 0.80047 0.05114 0.04334 0.0
H59 H 0.82681 0.09699 0.01668 0.0
H60 H 0.79845 0.06702 0.06611 0.0
H61 H 0.8542 0.13478 0.04825 0.0
H62 H 0.87067 0.10397 0.08132 0.0
H63 H 0.75476 0.07943 0.02314 0.0
H64 H 0.82159 0.06885 1.00062 0.0
H65 H 0.79287 0.03851 0.05123 0.0
C66 C 0.90057 0.74567 0.05191 0.0
C67 C 0.892 0.75533 0.04739 0.0
N68 N 0.87505 0.74347 0.04119 0.0
N69 N 0.88912 0.72785 0.04833 0.0
C70 C 0.87369 0.72693 0.0419 0.0
H71 H 0.9141 0.75121 0.05788 0.0
Co72 Co 0.89286 0.70852 0.05326 0.0
C73 C 0.88174 0.68625 0.01796 0.0
O74 O 0.89596 0.68418 0.02053 0.0
N75 N 0.89606 0.68853 0.0589 0.0
C76 C 0.88821 0.6595 0.06369 0.0
C77 C 0.882 0.67116 0.05904 0.0
C78 C 0.91061 0.68704 0.06424 0.0
N79 N 0.90619 0.66956 0.06697 0.0
O80 O 0.8717 0.69769 0.0693 0.0
H81 H 0.86803 0.66716 0.0557 0.0
H82 H 0.92427 0.69828 0.06601 0.0
O83 O 0.87855 0.69579 0.02999 0.0
C84 C 0.87648 0.70487 0.08593 0.0
O85 O 0.89332 0.71821 0.0883 0.0
N86 N 0.9147 0.72058 0.03924 0.0
C87 C 0.94893 0.74457 0.02385 0.0
C88 C 0.93336 0.73685 0.01214 0.0
C89 C 0.91628 0.72519 0.0202 0.0
C90 C 0.9296 0.72855 0.05088 0.0
C91 C 0.94686 0.74016 0.04346 0.0
H92 H 0.90437 0.72082 0.01132 0.0
H93 H 0.92795 0.72648 0.06625 0.0
H94 H 0.86159 0.71429 0.03809 0.0
H95 H 0.89757 0.76984 0.04921 0.0
H96 H 0.88015 0.64481 0.06482 0.0
H97 H 0.93421 0.74053 0.99711 0.0
H98 H 0.95841 0.74596 0.05314 0.0
C99 C 0.15037 0.24735 0.45338 0.0
C100 C 0.13208 0.23691 0.45736 0.0
N101 N 0.12629 0.24793 0.46448 0.0
N102 N 0.15605 0.26482 0.45803 0.0
C103 C 0.1411 0.26476 0.46475 0.0
H104 H 0.15886 0.24262 0.44692 0.0
Co105 Co 0.17872 0.28478 0.45304 0.0
C106 C 0.18902 0.30766 0.48788 0.0
O107 O 0.20553 0.31029 0.48534 0.0
N108 N 0.2015 0.30538 0.44724 0.0
C109 C 0.22159 0.33477 0.44244 0.0
C110 C 0.2038 0.32237 0.44658 0.0
C111 C 0.21812 0.30784 0.44266 0.0
N112 N 0.23051 0.32556 0.43996 0.0
O113 O 0.16757 0.2944 0.43626 0.0
H114 H 0.19319 0.32562 0.44939 0.0
H115 H 0.22141 0.29713 0.44156 0.0
O116 O 0.17636 0.29758 0.47598 0.0
C117 C 0.16587 0.28712 0.41976 0.0
O118 O 0.17062 0.27462 0.41792 0.0
N119 N 0.18933 0.27382 0.46773 0.0
C120 C 0.20215 0.25244 0.48464 0.0
C121 C 0.19304 0.25929 0.49567 0.0
C122 C 0.18635 0.26959 0.48685 0.0
C123 C 0.1972 0.26639 0.45668 0.0
C124 C 0.20406 0.25603 0.46484 0.0
H125 H 0.17814 0.27344 0.49531 0.0
H126 H 0.19759 0.268 0.44123 0.0
H127 H 0.14089 0.27697 0.46882 0.0
H128 H 0.12364 0.22241 0.45491 0.0
H129 H 0.22754 0.34939 0.44123 0.0
H130 H 0.19078 0.25643 0.51091 0.0
H131 H 0.21013 0.25026 0.45556 0.0
C132 C 0.74246 0.90365 0.45474 0.0
C133 C 0.7535 0.89623 0.45712 0.0
N134 N 0.74333 0.87923 0.46415 0.0
N135 N 0.72542 0.89146 0.4604 0.0
C136 C 0.72635 0.87671 0.46605 0.0
H137 H 0.74647 0.91687 0.44866 0.0
Co138 Co 0.70512 0.89407 0.45732 0.0
C139 C 0.68396 0.88109 0.49315 0.0
O140 O 0.68119 0.89497 0.49158 0.0
N141 N 0.68421 0.89632 0.4533 0.0
C142 C 0.65484 0.88756 0.44941 0.0
C143 C 0.6671 0.88183 0.45305 0.0
C144 C 0.68192 0.91067 0.44914 0.0
N145 N 0.66421 0.90571 0.44693 0.0
O146 O 0.69461 0.87327 0.44068 0.0
H147 H 0.66371 0.86788 0.4555 0.0
H148 H 0.69281 0.92455 0.44775 0.0
O149 O 0.69362 0.87879 0.48045 0.0
C150 C 0.69995 0.8788 0.42359 0.0
O151 O 0.71122 0.8963 0.42094 0.0
N152 N 0.71686 0.91563 0.47202 0.0
C153 C 0.73924 0.9498 0.48859 0.0
C154 C 0.7327 0.93383 0.49957 0.0
C155 C 0.72187 0.91684 0.4909 0.0
C156 C 0.72394 0.93094 0.46099 0.0
C157 C 0.7348 0.94814 0.469 0.0
H158 H 0.71828 0.90477 0.49923 0.0
H159 H 0.72169 0.92973 0.44562 0.0
H160 H 0.7146 0.86404 0.47053 0.0
H161 H 0.76784 0.90277 0.45365 0.0
H162 H 0.64021 0.87899 0.44826 0.0
H163 H 0.73621 0.93441 0.51462 0.0
H164 H 0.7403 0.95997 0.45971 0.0
C165 C 0.09328 0.84033 0.46261 0.0
C166 C 0.10172 0.85879 0.46581 0.0
N167 N 0.11798 0.86413 0.47414 0.0
N168 N 0.10413 0.83405 0.46897 0.0
C169 C 0.11908 0.84883 0.47592 0.0
H170 H 0.08028 0.83208 0.4556 0.0
Co171 Co 0.09997 0.81058 0.46562 0.0
C172 C 0.10975 0.80025 0.50207 0.0
O173 O 0.09476 0.78447 0.49979 0.0
N174 N 0.09636 0.7869 0.46147 0.0
C175 C 0.10431 0.76559 0.45863 0.0
C176 C 0.11043 0.78363 0.46223 0.0
C177 C 0.08185 0.77054 0.45673 0.0
N178 N 0.08634 0.75739 0.45518 0.0
O179 O 0.12118 0.81993 0.44957 0.0
H180 H 0.12438 0.79379 0.4654 0.0
H181 H 0.0682 0.76803 0.45452 0.0
O182 O 0.1141 0.81275 0.48936 0.0
C183 C 0.11607 0.82077 0.43253 0.0
O184 O 0.09896 0.81625 0.42986 0.0
N185 N 0.07806 0.80181 0.47956 0.0
C186 C 0.04401 0.79201 0.49526 0.0
C187 C 0.05988 0.80119 0.5064 0.0
C188 C 0.07683 0.80641 0.49813 0.0
C189 C 0.06287 0.79381 0.46831 0.0
C190 C 0.0457 0.7884 0.47593 0.0
H191 H 0.08893 0.81481 0.50647 0.0
H192 H 0.06418 0.79222 0.45307 0.0
H193 H 0.13089 0.84853 0.48136 0.0
H194 H 0.09638 0.86762 0.46211 0.0
H195 H 0.11248 0.75906 0.45823 0.0
H196 H 0.05931 0.80505 0.52111 0.0
H197 H 0.0339 0.78172 0.46663 0.0
C198 C 0.74517 0.84294 0.96031 0.0
C199 C 0.75601 0.8612 0.96401 0.0
N200 N 0.7454 0.86761 0.97079 0.0
N201 N 0.72781 0.83777 0.96494 0.0
C202 C 0.72834 0.85309 0.97121 0.0
H203 H 0.74957 0.83417 0.9539 0.0
Co204 Co 0.70778 0.81504 0.96008 0.0
C205 C 0.68685 0.80313 0.99596 0.0
O206 O 0.68509 0.78713 0.99213 0.0
N207 N 0.68721 0.79221 0.95429 0.0
C208 C 0.65789 0.77157 0.95012 0.0
C209 C 0.66998 0.78925 0.95514 0.0
C210 C 0.68516 0.77619 0.94793 0.0
N211 N 0.66751 0.76345 0.94558 0.0
O212 O 0.69707 0.82615 0.94508 0.0
H213 H 0.6664 0.79933 0.95943 0.0
H214 H 0.69612 0.77356 0.94517 0.0
O215 O 0.69573 0.81639 0.9842 0.0
C216 C 0.70376 0.82849 0.9282 0.0
O217 O 0.71671 0.82454 0.92517 0.0
N218 N 0.71968 0.80443 0.97311 0.0
C219 C 0.74172 0.7915 0.98785 0.0
C220 C 0.73554 0.80064 0.99975 0.0
C221 C 0.72493 0.80744 0.99198 0.0
C222 C 0.72666 0.79673 0.96116 0.0
C223 C 0.73731 0.78977 0.96825 0.0
H224 H 0.7216 0.8157 1.00104 0.0
H225 H 0.72458 0.79669 0.94582 0.0
H226 H 0.71634 0.85362 0.97547 0.0
H227 H 0.77044 0.86929 0.96102 0.0
H228 H 0.64319 0.76521 0.94964 0.0
H229 H 0.73913 0.80283 0.01485 0.0
H230 H 0.74266 0.78378 0.95831 0.0
C231 C 0.15457 0.90105 0.95664 0.0
C232 C 0.1361 0.89321 0.95953 0.0
N233 N 0.13011 0.87684 0.96788 0.0
N234 N 0.16014 0.88968 0.96321 0.0
C235 C 0.14497 0.87506 0.96998 0.0
H236 H 0.16324 0.91389 0.94955 0.0
Co237 Co 0.18298 0.8923 0.96008 0.0
C238 C 0.19239 0.88224 0.99711 0.0
O239 O 0.20879 0.89633 0.99468 0.0
N240 N 0.20601 0.89438 0.9562 0.0
C241 C 0.22661 0.8854 0.95438 0.0
C242 C 0.20863 0.87992 0.95762 0.0
C243 C 0.2226 0.90839 0.9513 0.0
N244 N 0.23528 0.90328 0.95037 0.0
O245 O 0.17243 0.8705 0.94495 0.0
H246 H 0.19812 0.86621 0.96119 0.0
H247 H 0.22567 0.92217 0.94867 0.0
O248 O 0.18005 0.8787 0.98442 0.0
C249 C 0.17203 0.87542 0.92771 0.0
O250 O 0.17786 0.89276 0.92448 0.0
N251 N 0.19301 0.91478 0.97299 0.0
C252 C 0.20464 0.94999 0.98644 0.0
C253 C 0.19553 0.93488 0.99867 0.0
C254 C 0.18944 0.91733 0.99155 0.0
C255 C 0.20097 0.92923 0.96074 0.0
C256 C 0.20732 0.94694 0.96722 0.0
H257 H 0.18111 0.90587 1.00073 0.0
H258 H 0.20186 0.9269 0.9456 0.0
H259 H 0.14466 0.86292 0.97533 0.0
H260 H 0.1277 0.89895 0.95545 0.0
H261 H 0.23281 0.87692 0.95476 0.0
H262 H 0.19238 0.93651 0.01337 0.0
H263 H 0.21397 0.95809 0.95712 0.0
C264 C 0.09474 0.2486 0.93976 0.0
C265 C 0.10198 0.23727 0.94012 0.0
N266 N 0.11581 0.24395 0.95289 0.0
N267 N 0.10398 0.26244 0.95215 0.0
C268 C 0.11673 0.25926 0.95994 0.0
H269 H 0.08326 0.24671 0.93124 0.0
Co270 Co 0.09823 0.28049 0.95713 0.0
C271 C 0.12825 0.30566 0.98253 0.0
O272 O 0.13225 0.31904 0.97042 0.0
N273 N 0.09195 0.29833 0.96215 0.0
C274 C 0.08259 0.31501 0.97782 0.0
C275 C 0.08974 0.30371 0.97974 0.0
C276 C 0.086 0.30651 0.94977 0.0
N277 N 0.0802 0.3167 0.95897 0.0
O278 O 0.11648 0.29618 0.93889 0.0
H279 H 0.0924 0.29909 0.9932 0.0
H280 H 0.08495 0.30426 0.93441 0.0
O281 O 0.11544 0.28963 0.97848 0.0
C282 C 0.10991 0.29288 0.92189 0.0
O283 O 0.09266 0.28049 0.91972 0.0
N284 N 0.07948 0.26452 0.97323 0.0
C285 C 0.04815 0.2403 0.9932 0.0
C286 C 0.0654 0.24711 1.00166 0.0
C287 C 0.08101 0.25913 0.99131 0.0
C288 C 0.0629 0.25788 0.96476 0.0
C289 C 0.04704 0.24578 0.97447 0.0
H290 H 0.09419 0.26398 0.99784 0.0
H291 H 0.06202 0.26218 0.95034 0.0
H292 H 0.12616 0.26771 0.97098 0.0
H293 H 0.09734 0.22505 0.9316 0.0
H294 H 0.07904 0.32117 0.98942 0.0
H295 H 0.0668 0.24301 0.01601 0.0
H296 H 0.03401 0.24099 0.96748 0.0
C297 C 0.83933 0.74384 0.56452 0.0
C298 C 0.85809 0.75297 0.56452 0.0
N299 N 0.86362 0.7424 0.55572 0.0
N300 N 0.8331 0.72763 0.55574 0.0
C301 C 0.84817 0.72708 0.55066 0.0
H302 H 0.83077 0.74876 0.57035 0.0
Co303 Co 0.80887 0.71022 0.55168 0.0
C304 C 0.81191 0.68476 0.52543 0.0
O305 O 0.8023 0.67148 0.53757 0.0
N306 N 0.78442 0.69281 0.54743 0.0
C307 C 0.75803 0.67567 0.53255 0.0
C308 C 0.77622 0.68783 0.53008 0.0
C309 C 0.77087 0.68368 0.56025 0.0
N310 N 0.75463 0.67305 0.55155 0.0
O311 O 0.81161 0.69418 0.56908 0.0
H312 H 0.78295 0.69309 0.51645 0.0
H313 H 0.77282 0.68498 0.57565 0.0
O314 O 0.81579 0.70099 0.52953 0.0
C315 C 0.8098 0.69842 0.58621 0.0
O316 O 0.80608 0.7116 0.58858 0.0
N317 N 0.80596 0.72667 0.53654 0.0
C318 C 0.79993 0.75288 0.51939 0.0
C319 C 0.81014 0.74632 0.50986 0.0
C320 C 0.81316 0.73323 0.51881 0.0
C321 C 0.796 0.73283 0.54589 0.0
C322 C 0.79275 0.74584 0.53757 0.0
H323 H 0.82145 0.72864 0.51166 0.0
H324 H 0.79063 0.7276 0.56004 0.0
H325 H 0.84783 0.71557 0.54354 0.0
H326 H 0.86693 0.7665 0.57015 0.0
H327 H 0.74798 0.6698 0.52121 0.0
H328 H 0.81606 0.75156 0.49587 0.0
H329 H 0.7846 0.75029 0.54533 0.0
C330 C 0.24742 0.09559 0.56012 0.0
C331 C 0.2378 0.10413 0.55526 0.0
N332 N 0.24966 0.12094 0.5487 0.0
N333 N 0.26523 0.1069 0.55642 0.0
C334 C 0.26618 0.12225 0.54958 0.0
H335 H 0.24184 0.08213 0.56627 0.0
Co336 Co 0.28455 0.10297 0.56118 0.0
C337 C 0.3063 0.11369 0.5255 0.0
O338 O 0.30813 0.0993 0.52789 0.0
N339 N 0.30462 0.09964 0.56644 0.0
C340 C 0.33388 0.10767 0.56959 0.0
C341 C 0.32191 0.11387 0.56675 0.0
C342 C 0.30652 0.08493 0.56986 0.0
N343 N 0.32414 0.08952 0.57158 0.0
O344 O 0.29569 0.12428 0.57716 0.0
H345 H 0.32567 0.12792 0.56424 0.0
H346 H 0.29553 0.07102 0.57039 0.0
O347 O 0.29704 0.11706 0.53772 0.0
C348 C 0.28841 0.11976 0.59379 0.0
O349 O 0.27479 0.10308 0.59622 0.0
N350 N 0.27215 0.08093 0.54744 0.0
C351 C 0.24833 0.04619 0.53292 0.0
C352 C 0.25562 0.06153 0.52084 0.0
C353 C 0.26723 0.07887 0.52848 0.0
C354 C 0.26453 0.06629 0.55943 0.0
C355 C 0.25303 0.0488 0.55245 0.0
H356 H 0.27146 0.09059 0.51932 0.0
H357 H 0.26713 0.06829 0.57472 0.0
H358 H 0.27881 0.1342 0.54544 0.0
H359 H 0.22329 0.09859 0.55697 0.0
H360 H 0.3486 0.11579 0.56988 0.0
H361 H 0.25176 0.06028 0.50584 0.0
H362 H 0.24768 0.03747 0.56242 0.0
C363 C 0.89937 0.15321 0.55776 0.0
C364 C 0.89074 0.13486 0.55376 0.0
N365 N 0.87377 0.12962 0.54749 0.0
N366 N 0.88796 0.15953 0.55381 0.0
C367 C 0.87246 0.14485 0.54769 0.0
H368 H 0.91296 0.16134 0.56353 0.0
Co369 Co 0.89215 0.18298 0.55776 0.0
C370 C 0.88012 0.1928 0.5223 0.0
O371 O 0.89476 0.20897 0.52381 0.0
N372 N 0.8958 0.20661 0.56236 0.0
C373 C 0.88808 0.22806 0.56557 0.0
C374 C 0.8817 0.20985 0.56274 0.0
C375 C 0.91063 0.22316 0.56577 0.0
N376 N 0.90623 0.23633 0.56751 0.0
O377 O 0.87161 0.17353 0.57459 0.0
H378 H 0.86759 0.19962 0.5605 0.0
H379 H 0.92446 0.22588 0.56652 0.0
O380 O 0.87707 0.18056 0.53492 0.0
C381 C 0.87702 0.17188 0.59119 0.0
O382 O 0.89395 0.17553 0.59304 0.0
N383 N 0.91347 0.19192 0.54296 0.0
C384 C 0.94713 0.20125 0.5266 0.0
C385 C 0.93112 0.19272 0.51556 0.0
C386 C 0.91435 0.1878 0.52412 0.0
C387 C 0.92879 0.1995 0.554 0.0
C388 C 0.94577 0.20472 0.54606 0.0
H389 H 0.90211 0.17983 0.51583 0.0
H390 H 0.9277 0.20091 0.56932 0.0
H391 H 0.8604 0.14534 0.54361 0.0
H392 H 0.89633 0.12597 0.55589 0.0
H393 H 0.88006 0.23476 0.56612 0.0
H394 H 0.93141 0.18904 0.50071 0.0
H395 H 0.95766 0.21106 0.55525 0.0
C396 C 0.91997 0.49314 0.38757 0.0
C397 C 0.91118 0.47441 0.3882 0.0
N398 N 0.92212 0.4689 0.3802 0.0
N399 N 0.93633 0.49941 0.37916 0.0
C400 C 0.9373 0.4844 0.3749 0.0
H401 H 0.91487 0.50169 0.39305 0.0
Co402 Co 0.95379 0.52364 0.37559 0.0
C403 C 0.97983 0.52117 0.34977 0.0
O404 O 0.99284 0.53072 0.36221 0.0
N405 N 0.97127 0.54813 0.37205 0.0
C406 C 0.98822 0.57524 0.35855 0.0
C407 C 0.97678 0.55702 0.35513 0.0
C408 C 0.97942 0.56122 0.38554 0.0
N409 N 0.98986 0.57792 0.37773 0.0
O410 O 0.96946 0.52062 0.39324 0.0
H411 H 0.97218 0.55077 0.34116 0.0
H412 H 0.97735 0.55857 0.40079 0.0
O413 O 0.96349 0.51708 0.35353 0.0
C414 C 0.96488 0.52187 0.41039 0.0
O415 O 0.95139 0.52513 0.41283 0.0
N416 N 0.93774 0.52682 0.36006 0.0
C417 C 0.91317 0.53406 0.34113 0.0
C418 C 0.91797 0.52179 0.33324 0.0
C419 C 0.93045 0.51837 0.34297 0.0
C420 C 0.93271 0.53825 0.36816 0.0
C421 C 0.92066 0.54226 0.35882 0.0
H422 H 0.93403 0.50882 0.33696 0.0
H423 H 0.93817 0.54432 0.38202 0.0
H424 H 0.94895 0.48489 0.36797 0.0
H425 H 0.8979 0.46562 0.39439 0.0
H426 H 0.99416 0.58575 0.34768 0.0
H427 H 0.91223 0.51503 0.31969 0.0
H428 H 0.91692 0.55144 0.36561 0.0
C429 C 0.50204 0.4302 0.39226 0.0
C430 C 0.5205 0.43824 0.38922 0.0
N431 N 0.52627 0.45461 0.38095 0.0
N432 N 0.49623 0.44142 0.38584 0.0
C433 C 0.51127 0.45619 0.37908 0.0
H434 H 0.49348 0.41721 0.39914 0.0
Co435 Co 0.47304 0.43798 0.38852 0.0
C436 C 0.46468 0.45012 0.35216 0.0
O437 O 0.44824 0.43586 0.35354 0.0
N438 N 0.44956 0.43492 0.392 0.0
C439 C 0.42808 0.44271 0.39408 0.0
C440 C 0.44634 0.44904 0.39158 0.0
C441 C 0.43302 0.42021 0.39561 0.0
N442 N 0.41983 0.42461 0.39665 0.0
O443 O 0.48253 0.45873 0.40517 0.0
H444 H 0.45663 0.46309 0.38914 0.0
H445 H 0.43035 0.40644 0.39716 0.0
O446 O 0.47654 0.45299 0.3652 0.0
C447 C 0.48161 0.45261 0.42214 0.0
O448 O 0.47513 0.43501 0.42422 0.0
N449 N 0.46412 0.41649 0.37397 0.0
C450 C 0.45411 0.38253 0.358 0.0
C451 C 0.46315 0.39843 0.34688 0.0
C452 C 0.46843 0.41535 0.35527 0.0
C453 C 0.45627 0.40127 0.38516 0.0
C454 C 0.45079 0.38415 0.37742 0.0
H455 H 0.47669 0.42746 0.34691 0.0
H456 H 0.45487 0.40254 0.40045 0.0
H457 H 0.51135 0.46821 0.3737 0.0
H458 H 0.52902 0.43254 0.39297 0.0
H459 H 0.42137 0.45073 0.39409 0.0
H460 H 0.4665 0.39787 0.33196 0.0
H461 H 0.44474 0.3724 0.38683 0.0
C462 C 0.56958 0.08075 0.39843 0.0
C463 C 0.55919 0.08906 0.39856 0.0
N464 N 0.54438 0.07924 0.38744 0.0
N465 N 0.56141 0.06577 0.38731 0.0
C466 C 0.54608 0.06515 0.38087 0.0
H467 H 0.58231 0.08533 0.40595 0.0
Co468 Co 0.57022 0.05002 0.38262 0.0
C469 C 0.54335 0.02351 0.3559 0.0
O470 O 0.5412 0.0104 0.3676 0.0
N471 N 0.57937 0.03432 0.37782 0.0
C472 C 0.5912 0.01973 0.3624 0.0
C473 C 0.58429 0.0312 0.36041 0.0
C474 C 0.58354 0.02465 0.3902 0.0
N475 N 0.59072 0.01554 0.38117 0.0
O476 O 0.55208 0.03261 0.39961 0.0
H477 H 0.58317 0.03713 0.34707 0.0
H478 H 0.58141 0.02436 0.40553 0.0
O479 O 0.55433 0.04007 0.36038 0.0
C480 C 0.55794 0.03655 0.41683 0.0
O481 O 0.5745 0.0503 0.41957 0.0
N482 N 0.58883 0.06785 0.36784 0.0
C483 C 0.62004 0.09573 0.35076 0.0
C484 C 0.60319 0.08797 0.34119 0.0
C485 C 0.58758 0.07407 0.35011 0.0
C486 C 0.60501 0.07528 0.37732 0.0
C487 C 0.62078 0.08916 0.36904 0.0
H488 H 0.5746 0.06844 0.34286 0.0
H489 H 0.60561 0.07028 0.39145 0.0
H490 H 0.53649 0.05469 0.37131 0.0
H491 H 0.5623 0.1013 0.4064 0.0
H492 H 0.5966 0.01527 0.35087 0.0
H493 H 0.60204 0.09281 0.32713 0.0
H494 H 0.63351 0.09454 0.37683 0.0
C495 C 0.82895 0.58476 0.78966 0.0
C496 C 0.81054 0.57458 0.79326 0.0
N497 N 0.80484 0.58588 0.79972 0.0
N498 N 0.8348 0.60232 0.79409 0.0
C499 C 0.81982 0.60259 0.80007 0.0
H500 H 0.83743 0.57974 0.78381 0.0
Co501 Co 0.85787 0.62225 0.79082 0.0
C502 C 0.86653 0.64295 0.8271 0.0
O503 O 0.8831 0.64551 0.82552 0.0
N504 N 0.88113 0.64296 0.78695 0.0
C505 C 0.90189 0.6724 0.78403 0.0
C506 C 0.88377 0.66008 0.78669 0.0
C507 C 0.89796 0.64532 0.7839 0.0
N508 N 0.91077 0.66307 0.78229 0.0
O509 O 0.84773 0.63322 0.77456 0.0
H510 H 0.87315 0.66346 0.78871 0.0
H511 H 0.9011 0.63449 0.7832 0.0
O512 O 0.8546 0.63367 0.81424 0.0
C513 C 0.84765 0.62776 0.75745 0.0
O514 O 0.85361 0.61629 0.75471 0.0
N515 N 0.86745 0.60999 0.80494 0.0
C516 C 0.87779 0.58585 0.81984 0.0
C517 C 0.86913 0.59276 0.83153 0.0
C518 C 0.8637 0.60451 0.82369 0.0
C519 C 0.87522 0.60286 0.79329 0.0
C520 C 0.8809 0.59119 0.80049 0.0
H521 H 0.85562 0.6083 0.83246 0.0
H522 H 0.8765 0.60584 0.77806 0.0
H523 H 0.8199 0.61489 0.80439 0.0
H524 H 0.80194 0.56012 0.79072 0.0
H525 H 0.90804 0.68707 0.78329 0.0
H526 H 0.86576 0.5884 0.84633 0.0
H527 H 0.88734 0.5861 0.79082 0.0
C528 C 0.41024 0.23687 0.79897 0.0
C529 C 0.41964 0.22769 0.80137 0.0
N530 N 0.40822 0.21125 0.80904 0.0
N531 N 0.39301 0.22631 0.80523 0.0
C532 C 0.39218 0.2108 0.81132 0.0
H533 H 0.41544 0.25009 0.79234 0.0
Co534 Co 0.37408 0.23107 0.80206 0.0
C535 C 0.35654 0.22519 0.83983 0.0
O536 O 0.35603 0.24012 0.83604 0.0
N537 N 0.35444 0.23528 0.79811 0.0
C538 C 0.32549 0.22867 0.79683 0.0
C539 C 0.33692 0.22201 0.80072 0.0
C540 C 0.35315 0.24973 0.79184 0.0
N541 N 0.33575 0.24607 0.79124 0.0
O542 O 0.36074 0.20885 0.78772 0.0
H543 H 0.33271 0.2083 0.80541 0.0
H544 H 0.3645 0.26276 0.78785 0.0
O545 O 0.36324 0.21905 0.82725 0.0
C546 C 0.36674 0.21276 0.77053 0.0
O547 O 0.3801 0.22936 0.76699 0.0
N548 N 0.38858 0.25385 0.81405 0.0
C549 C 0.41399 0.28875 0.8268 0.0
C550 C 0.40773 0.27369 0.83913 0.0
C551 C 0.39542 0.25628 0.83231 0.0
C552 C 0.39552 0.26814 0.80157 0.0
C553 C 0.40787 0.28574 0.80771 0.0
H554 H 0.39197 0.24478 0.84155 0.0
H555 H 0.39203 0.26574 0.78649 0.0
H556 H 0.37976 0.19901 0.81624 0.0
H557 H 0.43366 0.23259 0.79735 0.0
H558 H 0.31077 0.22125 0.79775 0.0
H559 H 0.41252 0.27526 0.85383 0.0
H560 H 0.41313 0.29676 0.79737 0.0
C561 C 0.76023 0.17506 0.80153 0.0
C562 C 0.76945 0.19354 0.80489 0.0
N563 N 0.78665 0.19858 0.81006 0.0
N564 N 0.77153 0.16846 0.80482 0.0
C565 C 0.78751 0.18309 0.80994 0.0
H566 H 0.74638 0.16708 0.79642 0.0
Co567 Co 0.76708 0.14492 0.80056 0.0
C568 C 0.77645 0.13384 0.83691 0.0
O569 O 0.76163 0.11796 0.83441 0.0
N570 N 0.76324 0.12129 0.79564 0.0
C571 C 0.77061 0.09958 0.79246 0.0
C572 C 0.77695 0.11751 0.7969 0.0
C573 C 0.7488 0.10542 0.78957 0.0
N574 N 0.75293 0.09204 0.78783 0.0
O575 O 0.78844 0.15443 0.78492 0.0
H576 H 0.7908 0.12725 0.80097 0.0
H577 H 0.73547 0.10342 0.78644 0.0
O578 O 0.78077 0.14642 0.82432 0.0
C579 C 0.78379 0.15669 0.76817 0.0
O580 O 0.76709 0.15354 0.76568 0.0
N581 N 0.74499 0.13586 0.81404 0.0
C582 C 0.7103 0.12466 0.82863 0.0
C583 C 0.7257 0.13337 0.84054 0.0
C584 C 0.743 0.13927 0.83284 0.0
C585 C 0.7303 0.12858 0.80208 0.0
C586 C 0.71283 0.12251 0.80911 0.0
H587 H 0.75474 0.14712 0.84187 0.0
H588 H 0.73227 0.12812 0.78678 0.0
H589 H 0.79965 0.18242 0.81311 0.0
H590 H 0.76412 0.20266 0.80286 0.0
H591 H 0.77844 0.09267 0.79226 0.0
H592 H 0.72443 0.13587 0.85557 0.0
H593 H 0.70149 0.11683 0.79914 0.0
C594 C 0.41468 0.17806 0.29923 0.0
C595 C 0.42483 0.19651 0.3026 0.0
N596 N 0.41347 0.20233 0.30855 0.0
N597 N 0.39708 0.1723 0.30328 0.0
C598 C 0.39676 0.18736 0.30886 0.0
H599 H 0.41972 0.16953 0.2936 0.0
Co600 Co 0.37718 0.14936 0.29932 0.0
C601 C 0.35615 0.13944 0.33539 0.0
O602 O 0.35393 0.12306 0.33311 0.0
N603 N 0.35656 0.12627 0.29459 0.0
C604 C 0.32713 0.1055 0.29159 0.0
C605 C 0.33938 0.12348 0.29518 0.0
C606 C 0.35431 0.10979 0.28977 0.0
N607 N 0.3366 0.097 0.28816 0.0
O608 O 0.36632 0.15996 0.28356 0.0
H609 H 0.33593 0.13386 0.29847 0.0
H610 H 0.36517 0.10684 0.28771 0.0
O611 O 0.36543 0.15189 0.32297 0.0
C612 C 0.37183 0.16087 0.26632 0.0
O613 O 0.3835 0.15529 0.26284 0.0
N614 N 0.38923 0.13933 0.31318 0.0
C615 C 0.41158 0.12716 0.32894 0.0
C616 C 0.4054 0.13667 0.34026 0.0
C617 C 0.39451 0.14295 0.33202 0.0
C618 C 0.39618 0.13122 0.30176 0.0
C619 C 0.40693 0.12457 0.30941 0.0
H620 H 0.39103 0.15136 0.34063 0.0
H621 H 0.39385 0.13045 0.28642 0.0
H622 H 0.38439 0.18736 0.31268 0.0
H623 H 0.43929 0.20509 0.30008 0.0
H624 H 0.31243 0.09915 0.2914 0.0
H625 H 0.40919 0.1395 0.35527 0.0
H626 H 0.41217 0.11814 0.29993 0.0
C627 C 0.83037 0.24487 0.29442 0.0
C628 C 0.81196 0.2384 0.29571 0.0
N629 N 0.80389 0.22116 0.30235 0.0
N630 N 0.83391 0.23181 0.30033 0.0
C631 C 0.81754 0.21753 0.30506 0.0
H632 H 0.84047 0.25803 0.28891 0.0
Co633 Co 0.85615 0.23272 0.29867 0.0
C634 C 0.86109 0.21804 0.33495 0.0
O635 O 0.87804 0.23148 0.33449 0.0
N636 N 0.87862 0.23316 0.29614 0.0
C637 C 0.89757 0.22215 0.29387 0.0
C638 C 0.8798 0.21781 0.29636 0.0
C639 C 0.89594 0.24662 0.29284 0.0
N640 N 0.90768 0.24028 0.29163 0.0
O641 O 0.84552 0.21243 0.28142 0.0
H642 H 0.86836 0.20421 0.29831 0.0
H643 H 0.90014 0.26083 0.29129 0.0
O644 O 0.85007 0.21659 0.32149 0.0
C645 C 0.84696 0.21866 0.26443 0.0
O646 O 0.85461 0.2364 0.26225 0.0
N647 N 0.8664 0.25388 0.31402 0.0
C648 C 0.87863 0.28777 0.33135 0.0
C649 C 0.86727 0.27164 0.34138 0.0
C650 C 0.86103 0.25481 0.33233 0.0
C651 C 0.87657 0.26948 0.3038 0.0
C652 C 0.88327 0.28653 0.31232 0.0
H653 H 0.85116 0.24268 0.33976 0.0
H654 H 0.87876 0.26868 0.28861 0.0
H655 H 0.81558 0.20442 0.30945 0.0
H656 H 0.80503 0.24573 0.29177 0.0
H657 H 0.90261 0.21268 0.29326 0.0
H658 H 0.86285 0.27205 0.35589 0.0
H659 H 0.89121 0.29865 0.30373 0.0
C660 C 0.75487 0.58485 0.29104 0.0
C661 C 0.76238 0.5739 0.29346 0.0
N662 N 0.77919 0.58402 0.301 0.0
N663 N 0.7668 0.6018 0.29716 0.0
C664 C 0.78149 0.60092 0.30312 0.0
H665 H 0.74184 0.58089 0.28449 0.0
Co666 Co 0.76412 0.62211 0.29435 0.0
C667 C 0.77404 0.64109 0.33141 0.0
O668 O 0.75961 0.64284 0.32899 0.0
N669 N 0.76197 0.64311 0.29074 0.0
C670 C 0.77128 0.67271 0.28833 0.0
C671 C 0.77652 0.66011 0.29201 0.0
C672 C 0.74809 0.64586 0.28571 0.0
N673 N 0.75335 0.66375 0.28433 0.0
O674 O 0.78562 0.63343 0.27883 0.0
H675 H 0.79018 0.6632 0.29562 0.0
H676 H 0.73447 0.63512 0.28263 0.0
O677 O 0.7781 0.63288 0.31849 0.0
C678 C 0.78076 0.6274 0.26177 0.0
O679 O 0.76365 0.61498 0.25879 0.0
N680 N 0.74188 0.60959 0.30775 0.0
C681 C 0.70721 0.58575 0.32225 0.0
C682 C 0.72272 0.59148 0.33377 0.0
C683 C 0.73998 0.60304 0.3261 0.0
C684 C 0.72701 0.60336 0.29614 0.0
C685 C 0.70955 0.59187 0.30318 0.0
H686 H 0.75175 0.6059 0.33463 0.0
H687 H 0.72879 0.60664 0.28099 0.0
H688 H 0.79378 0.61261 0.30839 0.0
H689 H 0.75621 0.55979 0.28909 0.0
H690 H 0.78008 0.68734 0.28877 0.0
H691 H 0.72162 0.58637 0.34827 0.0
H692 H 0.69803 0.58748 0.29359 0.0
C693 C 0.50248 0.07587 0.88515 0.0
C694 C 0.52088 0.08638 0.88176 0.0
N695 N 0.52702 0.07539 0.87544 0.0
N696 N 0.49704 0.05839 0.88076 0.0
C697 C 0.51227 0.05851 0.87495 0.0
H698 H 0.49376 0.08059 0.89101 0.0
Co699 Co 0.4742 0.03813 0.88443 0.0
C700 C 0.46487 0.01818 0.8477 0.0
O701 O 0.44836 0.01562 0.85006 0.0
N702 N 0.45128 0.01719 0.88875 0.0
C703 C 0.43091 0.98761 0.89148 0.0
C704 C 0.4487 0.00012 0.88742 0.0
C705 C 0.43487 0.0146 0.89442 0.0
N706 N 0.4223 0.99679 0.89591 0.0
O707 O 0.48487 0.02722 0.89987 0.0
H708 H 0.45915 0.99694 0.88355 0.0
H709 H 0.43189 0.02531 0.8974 0.0
O710 O 0.4771 0.02713 0.86043 0.0
C711 C 0.48654 0.03368 0.91679 0.0
O712 O 0.48203 0.04625 0.91964 0.0
N713 N 0.46395 0.05019 0.87117 0.0
C714 C 0.45273 0.07403 0.85755 0.0
C715 C 0.46154 0.0677 0.84532 0.0
C716 C 0.46742 0.0561 0.85253 0.0
C717 C 0.45604 0.0568 0.88333 0.0
C718 C 0.4499 0.06829 0.87676 0.0
H719 H 0.47566 0.05282 0.84339 0.0
H720 H 0.45531 0.05382 0.89853 0.0
H721 H 0.51255 0.04635 0.87081 0.0
H722 H 0.5292 0.10084 0.88451 0.0
H723 H 0.42482 0.97293 0.89154 0.0
H724 H 0.46474 0.07244 0.83061 0.0
H725 H 0.44346 0.07304 0.88684 0.0
C726 C 0.92808 0.42891 0.88292 0.0
C727 C 0.91776 0.43715 0.8806 0.0
N728 N 0.92841 0.4538 0.87292 0.0
N729 N 0.94513 0.44026 0.87663 0.0
C730 C 0.94493 0.45531 0.87065 0.0
H731 H 0.9236 0.41572 0.88933 0.0
Co732 Co 0.96498 0.43683 0.87905 0.0
C733 C 0.98467 0.44857 0.84223 0.0
O734 O 0.98671 0.43422 0.84347 0.0
N735 N 0.98556 0.43389 0.88226 0.0
C736 C 0.01484 0.44212 0.88521 0.0
C737 C 0.00281 0.44799 0.88111 0.0
C738 C 0.98758 0.41965 0.88772 0.0
N739 N 0.00527 0.42424 0.88945 0.0
O740 O 0.97653 0.45772 0.89551 0.0
H741 H 0.00644 0.46183 0.87755 0.0
H742 H 0.97642 0.40633 0.89115 0.0
O743 O 0.97603 0.45161 0.85553 0.0
C744 C 0.97129 0.45161 0.91248 0.0
O745 O 0.95976 0.43409 0.9145 0.0
N746 N 0.95221 0.41509 0.86486 0.0
C747 C 0.92859 0.38055 0.84979 0.0
C748 C 0.93481 0.39618 0.83831 0.0
C749 C 0.94634 0.4134 0.84624 0.0
C750 C 0.94535 0.40013 0.8764 0.0
C751 C 0.93392 0.38276 0.86913 0.0
H752 H 0.94985 0.42529 0.83762 0.0
H753 H 0.94815 0.40179 0.89166 0.0
H754 H 0.95692 0.46749 0.86562 0.0
H755 H 0.90358 0.43143 0.88452 0.0
H756 H 0.02952 0.45052 0.88511 0.0
H757 H 0.93054 0.39516 0.82347 0.0
H758 H 0.92865 0.37123 0.87882 0.0
C759 C 0.57723 0.49393 0.88678 0.0
C760 C 0.56882 0.47554 0.88308 0.0
N761 N 0.55188 0.47005 0.87653 0.0
N762 N 0.5657 0.5 0.88235 0.0
C763 C 0.55037 0.48515 0.87624 0.0
H764 H 0.5907 0.50226 0.89275 0.0
Co765 Co 0.56928 0.5232 0.88593 0.0
C766 C 0.55878 0.53297 0.84953 0.0
O767 O 0.57343 0.54905 0.85159 0.0
N768 N 0.57226 0.54656 0.89014 0.0
C769 C 0.56377 0.56752 0.89219 0.0
C770 C 0.55791 0.54941 0.88946 0.0
C771 C 0.58667 0.56323 0.89408 0.0
N772 N 0.58181 0.5761 0.89511 0.0
O773 O 0.54809 0.51335 0.90187 0.0
H774 H 0.544 0.53897 0.88658 0.0
H775 H 0.60054 0.56623 0.89575 0.0
O776 O 0.55496 0.52067 0.86234 0.0
C777 C 0.55297 0.51207 0.91886 0.0
O778 O 0.57001 0.51642 0.92169 0.0
N779 N 0.59118 0.53252 0.872 0.0
C780 C 0.6254 0.54291 0.8565 0.0
C781 C 0.60963 0.53371 0.84521 0.0
C782 C 0.5926 0.52821 0.85337 0.0
C783 C 0.60626 0.54056 0.88338 0.0
C784 C 0.62352 0.54623 0.87588 0.0
H785 H 0.58061 0.5198 0.84489 0.0
H786 H 0.60479 0.54192 0.89864 0.0
H787 H 0.53825 0.48542 0.87191 0.0
H788 H 0.57449 0.46678 0.88567 0.0
H789 H 0.55548 0.57393 0.89203 0.0
H790 H 0.61037 0.53039 0.83033 0.0
H791 H 0.63517 0.55242 0.88541 0.0
C792 C 0.5825 0.82544 0.72172 0.0
C793 C 0.57166 0.80695 0.71939 0.0
N794 N 0.58193 0.80031 0.71213 0.0
N795 N 0.59952 0.83053 0.71583 0.0
C796 C 0.5988 0.81497 0.71012 0.0
H797 H 0.57839 0.8345 0.72798 0.0
Co798 Co 0.61954 0.85373 0.7184 0.0
C799 C 0.64019 0.86155 0.68223 0.0
O800 O 0.64233 0.87799 0.68329 0.0
N801 N 0.64012 0.87716 0.72186 0.0
C802 C 0.66944 0.89841 0.72445 0.0
C803 C 0.65741 0.88027 0.7213 0.0
C804 C 0.64209 0.89363 0.72624 0.0
N805 N 0.65974 0.90671 0.72759 0.0
O806 O 0.63068 0.84434 0.73528 0.0
H807 H 0.66107 0.86995 0.71856 0.0
H808 H 0.63105 0.89628 0.7284 0.0
O809 O 0.63106 0.84982 0.69533 0.0
C810 C 0.6245 0.84371 0.75215 0.0
O811 O 0.61189 0.84825 0.75436 0.0
N812 N 0.60727 0.86277 0.70349 0.0
C813 C 0.58433 0.87367 0.6867 0.0
C814 C 0.59082 0.86407 0.67597 0.0
C815 C 0.60194 0.85835 0.68477 0.0
C816 C 0.60017 0.87108 0.71434 0.0
C817 C 0.58904 0.877 0.70619 0.0
H818 H 0.60555 0.84976 0.67668 0.0
H819 H 0.60257 0.87245 0.72967 0.0
H820 H 0.61056 0.81441 0.705 0.0
H821 H 0.55751 0.79897 0.72356 0.0
H822 H 0.68416 0.90495 0.72476 0.0
H823 H 0.58705 0.86068 0.66102 0.0
H824 H 0.58354 0.88345 0.71532 0.0
C825 C 0.18173 0.7628 0.73418 0.0
C826 C 0.20037 0.77386 0.73373 0.0
N827 N 0.2043 0.78909 0.72388 0.0
N828 N 0.174 0.77104 0.72466 0.0
C829 C 0.18805 0.78706 0.71868 0.0
H830 H 0.17428 0.74948 0.74074 0.0
Co831 Co 0.14928 0.76153 0.72061 0.0
C832 C 0.14814 0.78841 0.69495 0.0
O833 O 0.13715 0.78993 0.70714 0.0
N834 N 0.12432 0.75172 0.71637 0.0
C835 C 0.09756 0.73957 0.70157 0.0
C836 C 0.11595 0.74685 0.69911 0.0
C837 C 0.1107 0.74715 0.72913 0.0
N838 N 0.09423 0.73978 0.72049 0.0
O839 O 0.14956 0.77891 0.73847 0.0
H840 H 0.12278 0.74833 0.68554 0.0
H841 H 0.11283 0.74923 0.74444 0.0
O842 O 0.15433 0.7778 0.69882 0.0
C843 C 0.14826 0.7726 0.75541 0.0
O844 O 0.14655 0.75638 0.75727 0.0
N845 N 0.14893 0.7436 0.705 0.0
C846 C 0.14549 0.713 0.68635 0.0
C847 C 0.15414 0.73009 0.67721 0.0
C848 C 0.1559 0.74538 0.68692 0.0
C849 C 0.14079 0.72722 0.71413 0.0
C850 C 0.13885 0.71175 0.70507 0.0
H851 H 0.16279 0.75852 0.67993 0.0
H852 H 0.13557 0.72621 0.72854 0.0
H853 H 0.18643 0.7971 0.71066 0.0
H854 H 0.21025 0.77066 0.73967 0.0
H855 H 0.08745 0.73418 0.69026 0.0
H856 H 0.1596 0.73162 0.66283 0.0
H857 H 0.13185 0.69883 0.71256 0.0
C858 C 0.23653 0.41323 0.72027 0.0
C859 C 0.22787 0.42312 0.71754 0.0
N860 N 0.2117 0.41222 0.709 0.0
N861 N 0.2259 0.39625 0.71339 0.0
C862 C 0.21087 0.39601 0.70667 0.0
H863 H 0.24955 0.41798 0.72723 0.0
Co864 Co 0.23032 0.37709 0.71548 0.0
C865 C 0.2198 0.35785 0.6783 0.0
O866 O 0.23481 0.35698 0.67966 0.0
N867 N 0.2343 0.3572 0.71838 0.0
C868 C 0.22733 0.32816 0.72016 0.0
C869 C 0.22071 0.3397 0.71668 0.0
C870 C 0.24893 0.35584 0.72372 0.0
N871 N 0.24505 0.33836 0.72461 0.0
O872 O 0.2093 0.36455 0.7318 0.0
H873 H 0.20674 0.33556 0.71316 0.0
H874 H 0.26216 0.36718 0.72715 0.0
O875 O 0.21586 0.36576 0.69167 0.0
C876 C 0.2149 0.36913 0.74905 0.0
O877 O 0.2323 0.38081 0.75171 0.0
N878 N 0.25204 0.39086 0.70136 0.0
C879 C 0.28599 0.4158 0.68585 0.0
C880 C 0.27009 0.40903 0.67473 0.0
C881 C 0.25318 0.39694 0.68291 0.0
C882 C 0.26723 0.39812 0.7126 0.0
C883 C 0.28434 0.4102 0.70507 0.0
H884 H 0.24105 0.39317 0.67461 0.0
H885 H 0.26596 0.39507 0.7278 0.0
H886 H 0.1992 0.38395 0.70094 0.0
H887 H 0.23303 0.43717 0.72165 0.0
H888 H 0.21962 0.31342 0.72003 0.0
H889 H 0.2706 0.41366 0.66011 0.0
H890 H 0.29613 0.41532 0.71438 0.0
C891 C 0.49129 0.91979 0.12862 0.0
C892 C 0.47302 0.91038 0.13305 0.0
N893 N 0.46807 0.92247 0.13879 0.0
N894 N 0.49784 0.9377 0.13179 0.0
C895 C 0.48339 0.93891 0.13788 0.0
H896 H 0.49919 0.914 0.12303 0.0
Co897 Co 0.52114 0.95681 0.12678 0.0
C898 C 0.53268 0.97902 0.16188 0.0
O899 O 0.5486 0.9802 0.1593 0.0
N900 N 0.54457 0.97671 0.12114 0.0
C901 C 0.56551 0.00591 0.11674 0.0
C902 C 0.54751 0.99394 0.12039 0.0
C903 C 0.56114 0.97865 0.11729 0.0
N904 N 0.57405 0.99627 0.11483 0.0
O905 O 0.51103 0.96761 0.11035 0.0
H906 H 0.53721 0.99768 0.12285 0.0
H907 H 0.56403 0.96764 0.1167 0.0
O908 O 0.51981 0.96997 0.14979 0.0
C909 C 0.50868 0.96023 0.09383 0.0
O910 O 0.51216 0.94684 0.09182 0.0
N911 N 0.53063 0.94465 0.1412 0.0
C912 C 0.54079 0.92094 0.15755 0.0
C913 C 0.5323 0.92836 0.16869 0.0
C914 C 0.52692 0.93984 0.16013 0.0
C915 C 0.53811 0.93689 0.13004 0.0
C916 C 0.5437 0.92538 0.13797 0.0
H917 H 0.51895 0.94404 0.16854 0.0
H918 H 0.53917 0.93916 0.11468 0.0
H919 H 0.48409 0.95169 0.14136 0.0
H920 H 0.46398 0.89585 0.13151 0.0
H921 H 0.57184 0.02056 0.11551 0.0
H922 H 0.52902 0.92462 0.18366 0.0
H923 H 0.5499 0.91973 0.12871 0.0
C924 C 0.08414 0.57744 0.11427 0.0
C925 C 0.09501 0.56994 0.11745 0.0
N926 N 0.08525 0.55431 0.12733 0.0
N927 N 0.06765 0.56661 0.12216 0.0
C928 C 0.0687 0.55261 0.12999 0.0
H929 H 0.08788 0.58983 0.10641 0.0
Co930 Co 0.04794 0.57018 0.12016 0.0
C931 C 0.0293 0.56022 0.1574 0.0
O932 O 0.02863 0.57531 0.15556 0.0
N933 N 0.02749 0.57331 0.11738 0.0
C934 C 0.99806 0.56512 0.11692 0.0
C935 C 0.01026 0.55908 0.11878 0.0
C936 C 0.02527 0.5878 0.11383 0.0
N937 N 0.00757 0.58313 0.11378 0.0
O938 O 0.03595 0.54913 0.10395 0.0
H939 H 0.00678 0.54514 0.12152 0.0
H940 H 0.03614 0.60159 0.11171 0.0
O941 O 0.03689 0.55576 0.14413 0.0
C942 C 0.04069 0.55515 0.08687 0.0
O943 O 0.05202 0.57269 0.08463 0.0
N944 N 0.06128 0.59196 0.13415 0.0
C945 C 0.08601 0.62587 0.14972 0.0
C946 C 0.08003 0.60989 0.16049 0.0
C947 C 0.06804 0.59302 0.15226 0.0
C948 C 0.06784 0.60726 0.12315 0.0
C949 C 0.07978 0.62437 0.13076 0.0
H950 H 0.0649 0.58085 0.16019 0.0
H951 H 0.06429 0.60609 0.10808 0.0
H952 H 0.05734 0.54107 0.13686 0.0
H953 H 0.10898 0.57552 0.11279 0.0
H954 H 0.98337 0.55696 0.11774 0.0
H955 H 0.08523 0.61032 0.17483 0.0
H956 H 0.08434 0.63627 0.12172 0.0
C957 C 0.42138 0.49951 0.12114 0.0
C958 C 0.42803 0.51786 0.12359 0.0
N959 N 0.44503 0.52533 0.13078 0.0
N960 N 0.43407 0.49538 0.12688 0.0
C961 C 0.44834 0.51138 0.1327 0.0
H962 H 0.40838 0.48993 0.11488 0.0
Co963 Co 0.43276 0.47301 0.12359 0.0
C964 C 0.44513 0.46523 0.16013 0.0
O965 O 0.43187 0.44831 0.15814 0.0
N966 N 0.43189 0.45053 0.11934 0.0
C967 C 0.44206 0.43103 0.1153 0.0
C968 C 0.44667 0.44844 0.12056 0.0
C969 C 0.41862 0.43429 0.11257 0.0
N970 N 0.42442 0.42221 0.1102 0.0
O971 O 0.45409 0.48437 0.10791 0.0
H972 H 0.46012 0.45904 0.12482 0.0
H973 H 0.40497 0.43118 0.10912 0.0
O974 O 0.44733 0.47706 0.14732 0.0
C975 C 0.44912 0.48529 0.09084 0.0
O976 O 0.43181 0.47969 0.08774 0.0
N977 N 0.41062 0.46197 0.13735 0.0
C978 C 0.37564 0.44924 0.15212 0.0
C979 C 0.39103 0.45869 0.16389 0.0
C980 C 0.40844 0.46536 0.15611 0.0
C981 C 0.39581 0.45341 0.12563 0.0
C982 C 0.37823 0.44656 0.13276 0.0
H983 H 0.42004 0.47409 0.16494 0.0
H984 H 0.3977 0.4528 0.11034 0.0
H985 H 0.46124 0.51291 0.13725 0.0
H986 H 0.421 0.52517 0.12 0.0
H987 H 0.45109 0.42546 0.11471 0.0
H988 H 0.38969 0.4618 0.1787 0.0
H989 H 0.3668 0.43971 0.12301 0.0
C990 C 0.0812 0.50616 0.61027 0.0
C991 C 0.09296 0.52447 0.61284 0.0
N992 N 0.08389 0.53163 0.6218 0.0
N993 N 0.06482 0.50177 0.61766 0.0
C994 C 0.06684 0.51755 0.62458 0.0
H995 H 0.08425 0.49671 0.60303 0.0
Co996 Co 0.0441 0.4791 0.61555 0.0
C997 C 0.02431 0.47214 0.65214 0.0
O998 O 0.02144 0.45544 0.65089 0.0
N999 N 0.02279 0.45614 0.61249 0.0
C1000 C 0.99313 0.43586 0.61041 0.0
C1001 C 0.00581 0.45387 0.61325 0.0
C1002 C 0.01996 0.4393 0.60837 0.0
N1003 N 0.0021 0.42679 0.6073 0.0
O1004 O 0.03351 0.48936 0.59904 0.0
H1005 H 0.00283 0.46467 0.61594 0.0
H1006 H 0.03054 0.43596 0.60625 0.0
O1007 O 0.03354 0.48376 0.63898 0.0
C1008 C 0.03839 0.48848 0.58191 0.0
O1009 O 0.04909 0.48158 0.57933 0.0
N1010 N 0.05593 0.46933 0.63008 0.0
C1011 C 0.07926 0.45854 0.64616 0.0
C1012 C 0.07321 0.46843 0.65704 0.0
C1013 C 0.06192 0.4741 0.64859 0.0
C1014 C 0.06235 0.46044 0.61914 0.0
C1015 C 0.07361 0.45452 0.62697 0.0
H1016 H 0.05892 0.48315 0.65666 0.0
H1017 H 0.05937 0.45866 0.60392 0.0
H1018 H 0.05583 0.51883 0.63078 0.0
H1019 H 0.10706 0.53195 0.60833 0.0
H1020 H 0.97847 0.42991 0.61032 0.0
H1021 H 0.07795 0.4726 0.67163 0.0
H1022 H 0.07822 0.44725 0.61788 0.0
C1023 C 0.49263 0.57181 0.61956 0.0
C1024 C 0.47386 0.56276 0.61942 0.0
N1025 N 0.46771 0.54636 0.6278 0.0
N1026 N 0.49824 0.56117 0.62799 0.0
C1027 C 0.48279 0.54573 0.63272 0.0
H1028 H 0.50163 0.58538 0.61415 0.0
Co1029 Co 0.5222 0.56709 0.63234 0.0
C1030 C 0.51754 0.53698 0.65702 0.0
O1031 O 0.5269 0.53325 0.64461 0.0
N1032 N 0.54639 0.57318 0.63688 0.0
C1033 C 0.57237 0.58139 0.6522 0.0
C1034 C 0.55409 0.57505 0.65436 0.0
C1035 C 0.56033 0.57863 0.62433 0.0
N1036 N 0.57632 0.58375 0.63331 0.0
O1037 O 0.51927 0.54898 0.614 0.0
H1038 H 0.54698 0.57253 0.66791 0.0
H1039 H 0.55896 0.5797 0.609 0.0
O1040 O 0.51439 0.54993 0.6536 0.0
C1041 C 0.52195 0.55587 0.5972 0.0
O1042 O 0.52639 0.57306 0.59561 0.0
N1043 N 0.52536 0.58586 0.64861 0.0
C1044 C 0.53251 0.61713 0.66868 0.0
C1045 C 0.51958 0.59985 0.67561 0.0
C1046 C 0.51622 0.58424 0.66532 0.0
C1047 C 0.53752 0.60254 0.64146 0.0
C1048 C 0.54149 0.61833 0.65138 0.0
H1049 H 0.50613 0.57096 0.67056 0.0
H1050 H 0.54415 0.60355 0.62787 0.0
H1051 H 0.48259 0.53418 0.63957 0.0
H1052 H 0.46544 0.56806 0.61406 0.0
H1053 H 0.58204 0.58432 0.66372 0.0
H1054 H 0.51223 0.59846 0.68881 0.0
H1055 H 0.5512 0.63142 0.64531 0.0
C1056 C 0.42494 0.91886 0.62051 0.0
C1057 C 0.43294 0.90854 0.62444 0.0
N1058 N 0.45013 0.91981 0.6304 0.0
N1059 N 0.43698 0.9365 0.62422 0.0
C1060 C 0.45221 0.93667 0.63013 0.0
H1061 H 0.41139 0.91389 0.61483 0.0
Co1062 Co 0.434 0.95638 0.61979 0.0
C1063 C 0.44684 0.97884 0.65488 0.0
O1064 O 0.43299 0.98158 0.65276 0.0
N1065 N 0.43149 0.97691 0.61455 0.0
C1066 C 0.44019 0.00621 0.61012 0.0
C1067 C 0.44597 0.99403 0.61389 0.0
C1068 C 0.41707 0.97908 0.61038 0.0
N1069 N 0.42203 0.99674 0.6079 0.0
O1070 O 0.45475 0.96644 0.60318 0.0
H1071 H 0.45993 0.99751 0.61642 0.0
H1072 H 0.40314 0.96821 0.60943 0.0
O1073 O 0.44924 0.9689 0.64264 0.0
C1074 C 0.44955 0.96001 0.58633 0.0
O1075 O 0.43224 0.94801 0.5837 0.0
N1076 N 0.41256 0.94505 0.63465 0.0
C1077 C 0.37886 0.92253 0.65196 0.0
C1078 C 0.395 0.92975 0.6627 0.0
C1079 C 0.41175 0.94061 0.65368 0.0
C1080 C 0.39706 0.93746 0.62388 0.0
C1081 C 0.38006 0.92656 0.63229 0.0
H1082 H 0.42399 0.94451 0.66183 0.0
H1083 H 0.39798 0.93934 0.60846 0.0
H1084 H 0.46466 0.94899 0.63387 0.0
H1085 H 0.4268 0.89399 0.62237 0.0
H1086 H 0.44863 0.02086 0.60898 0.0
H1087 H 0.39477 0.92626 0.67772 0.0
H1088 H 0.36801 0.92101 0.62332 0.0
C1089 C 0.17375 0.40663 0.22453 0.0
C1090 C 0.19235 0.41429 0.22388 0.0
N1091 N 0.19633 0.40358 0.21299 0.0
N1092 N 0.166 0.39122 0.214 0.0
C1093 C 0.18007 0.38964 0.20723 0.0
H1094 H 0.16627 0.41195 0.23214 0.0
Co1095 Co 0.14105 0.37551 0.21126 0.0
C1096 C 0.14214 0.36785 0.16873 0.0
O1097 O 0.1365 0.37916 0.16401 0.0
N1098 N 0.11559 0.35913 0.20897 0.0
C1099 C 0.08702 0.34367 0.1983 0.0
C1100 C 0.10468 0.35583 0.19352 0.0
C1101 C 0.10397 0.34875 0.22305 0.0
N1102 N 0.08652 0.33916 0.2169 0.0
O1103 O 0.14344 0.3576 0.2261 0.0
H1104 H 0.10875 0.36249 0.17986 0.0
H1105 H 0.10811 0.34842 0.23765 0.0
O1106 O 0.1449 0.36565 0.18647 0.0
C1107 C 0.14382 0.36252 0.24357 0.0
O1108 O 0.14163 0.3766 0.24679 0.0
N1109 N 0.13887 0.39454 0.19944 0.0
C1110 C 0.13545 0.42423 0.18766 0.0
C1111 C 0.14998 0.4222 0.18114 0.0
C1112 C 0.15172 0.40752 0.1876 0.0
C1113 C 0.12539 0.39708 0.20682 0.0
C1114 C 0.12317 0.41151 0.20081 0.0
H1115 H 0.16323 0.40637 0.18277 0.0
H1116 H 0.11636 0.38806 0.21778 0.0
H1117 H 0.17839 0.37831 0.19856 0.0
H1118 H 0.20218 0.42692 0.23068 0.0
H1119 H 0.07534 0.33923 0.18896 0.0
H1120 H 0.1601 0.43205 0.17143 0.0
H1121 H 0.11188 0.41265 0.20647 0.0
C1122 C 0.5799 0.75976 0.23224 0.0
C1123 C 0.57192 0.77046 0.23219 0.0
N1124 N 0.5828 0.78584 0.22234 0.0
N1125 N 0.5957 0.76835 0.22245 0.0
C1126 C 0.59717 0.78424 0.21672 0.0
H1127 H 0.57445 0.74647 0.23878 0.0
Co1128 Co 0.61145 0.75954 0.2181 0.0
C1129 C 0.63819 0.78663 0.19161 0.0
O1130 O 0.65116 0.78896 0.20361 0.0
N1131 N 0.62711 0.75039 0.2136 0.0
C1132 C 0.64147 0.73812 0.19853 0.0
C1133 C 0.63082 0.74594 0.19621 0.0
C1134 C 0.63562 0.7451 0.2263 0.0
N1135 N 0.64444 0.73756 0.21746 0.0
O1136 O 0.6287 0.77767 0.23531 0.0
H1137 H 0.62578 0.7479 0.18266 0.0
H1138 H 0.63483 0.7461 0.24173 0.0
O1139 O 0.6216 0.77548 0.19584 0.0
C1140 C 0.62449 0.77175 0.25249 0.0
O1141 O 0.6105 0.75531 0.25505 0.0
N1142 N 0.59379 0.74087 0.20317 0.0
C1143 C 0.56674 0.70926 0.18579 0.0
C1144 C 0.57458 0.72602 0.17601 0.0
C1145 C 0.58807 0.74183 0.18508 0.0
C1146 C 0.58621 0.7248 0.21287 0.0
C1147 C 0.57275 0.70884 0.20446 0.0
H1148 H 0.59385 0.7547 0.17759 0.0
H1149 H 0.59086 0.72442 0.22726 0.0
H1150 H 0.60863 0.79451 0.20867 0.0
H1151 H 0.5589 0.76697 0.23848 0.0
H1152 H 0.64658 0.73316 0.18717 0.0
H1153 H 0.57018 0.72693 0.16164 0.0
H1154 H 0.56732 0.69621 0.21244 0.0
C1155 C 0.24077 0.82896 0.22633 0.0
C1156 C 0.23311 0.81063 0.22256 0.0
N1157 N 0.21661 0.80475 0.21457 0.0
N1158 N 0.22916 0.83455 0.22066 0.0
C1159 C 0.21456 0.81953 0.21362 0.0
H1160 H 0.25379 0.83756 0.23315 0.0
Co1161 Co 0.23193 0.85742 0.22417 0.0
C1162 C 0.21946 0.86602 0.18807 0.0
O1163 O 0.23345 0.88261 0.18967 0.0
N1164 N 0.23422 0.88045 0.22842 0.0
C1165 C 0.2254 0.90106 0.23167 0.0
C1166 C 0.21978 0.88315 0.22785 0.0
C1167 C 0.24838 0.89691 0.23346 0.0
N1168 N 0.24336 0.90962 0.23522 0.0
O1169 O 0.211 0.8471 0.24066 0.0
H1170 H 0.20595 0.87269 0.22466 0.0
H1171 H 0.26214 0.89979 0.23581 0.0
O1172 O 0.21693 0.85407 0.20087 0.0
C1173 C 0.21637 0.84629 0.25758 0.0
O1174 O 0.23364 0.85133 0.26003 0.0
N1175 N 0.25362 0.8673 0.20975 0.0
C1176 C 0.28799 0.87913 0.19372 0.0
C1177 C 0.27218 0.86983 0.18249 0.0
C1178 C 0.25508 0.86366 0.19088 0.0
C1179 C 0.26877 0.87536 0.22104 0.0
C1180 C 0.28607 0.88173 0.2133 0.0
H1181 H 0.24311 0.85529 0.18236 0.0
H1182 H 0.26735 0.87619 0.2364 0.0
H1183 H 0.20235 0.81928 0.20863 0.0
H1184 H 0.23916 0.80229 0.22559 0.0
H1185 H 0.21693 0.90728 0.23218 0.0
H1186 H 0.27296 0.86702 0.16744 0.0
H1187 H 0.29776 0.88794 0.22278 0.0
H1188 H 0.35231 0.24184 0.87093 0.0
H1189 H 0.34397 0.2305 0.90339 0.0
H1190 H 0.34081 0.17996 0.8868 0.0
H1191 H 0.34988 0.19166 0.85376 0.0
H1192 H 0.31298 0.20229 0.91524 0.0
H1193 H 0.37074 0.19232 0.93598 0.0
H1194 H 0.37129 0.2048 0.91472 0.0
H1195 H 0.35833 0.18035 0.91483 0.0
C1196 C 0.34991 0.22829 0.87401 0.0
C1197 C 0.35165 0.2176 0.8596 0.0
C1198 C 0.34514 0.22182 0.89272 0.0
C1199 C 0.34179 0.20439 0.89769 0.0
C1200 C 0.3436 0.19359 0.88343 0.0
H1201 H 0.2859 0.16593 0.00872 0.0
H1202 H 0.29364 0.16686 0.97476 0.0
C1203 C 0.34866 0.20021 0.86453 0.0
C1204 C 0.33574 0.19781 0.9177 0.0
H1205 H 0.34834 0.18591 0.95955 0.0
C1206 C 0.32063 0.19854 0.92488 0.0
C1207 C 0.34581 0.1931 0.93036 0.0
C1208 C 0.36254 0.1927 0.92371 0.0
C1209 C 0.31575 0.19547 0.94437 0.0
C1210 C 0.32579 0.19074 0.95709 0.0
C1211 C 0.34058 0.18943 0.94982 0.0
C1212 C 0.32173 0.1882 0.97811 0.0
C1213 C 0.30048 0.19836 0.95126 0.0
C1214 C 0.3352 0.19901 0.99161 0.0
C1215 C 0.33091 0.19816 0.0112 0.0
C1216 C 0.313 0.1866 0.01762 0.0
C1217 C 0.29976 0.17517 1.00421 0.0
C1218 C 0.30415 0.17577 0.98474 0.0
H1219 H 0.29775 0.20679 0.94103 0.0
H1220 H 0.2878 0.18498 0.95255 0.0
H1221 H 0.30365 0.20514 0.96553 0.0
H1222 H 0.34889 0.20864 0.98692 0.0
H1223 H 0.34141 0.20711 0.02117 0.0
H1224 H 0.84313 0.13344 1.00511 0.0
H1225 H 0.84497 0.14115 0.97092 0.0
H1226 H 0.7993 0.14988 0.97762 0.0
H1227 H 0.79813 0.14327 0.01177 0.0
H1228 H 0.82246 0.12346 0.94509 0.0
H1229 H 0.82818 0.19087 0.94302 0.0
H1230 H 0.83158 0.18163 0.96499 0.0
H1231 H 0.809 0.17631 0.95766 0.0
C1232 C 0.83383 0.13752 0.99934 0.0
C1233 C 0.82055 0.13784 0.01116 0.0
C1234 C 0.83486 0.14189 0.97978 0.0
C1235 C 0.82246 0.14642 0.97156 0.0
C1236 C 0.80949 0.14714 0.98355 0.0
H1237 H 0.76731 0.11082 0.86729 0.0
H1238 H 0.7822 0.11617 0.89823 0.0
C1239 C 0.80872 0.14317 1.00315 0.0
C1240 C 0.82146 0.14805 0.95027 0.0
H1241 H 0.81239 0.17093 0.91549 0.0
C1242 C 0.82072 0.13414 0.93863 0.0
C1243 C 0.81966 0.16216 0.94147 0.0
C1244 C 0.82238 0.17867 0.95247 0.0
C1245 C 0.81681 0.13317 0.91892 0.0
C1246 C 0.81278 0.14602 0.91066 0.0
C1247 C 0.81501 0.16078 0.92186 0.0
C1248 C 0.80429 0.14314 0.89128 0.0
C1249 C 0.81667 0.11808 0.90726 0.0
C1250 C 0.81128 0.15682 0.8771 0.0
C1251 C 0.8025 0.1539 0.85921 0.0
C1252 C 0.78656 0.13727 0.8553 0.0
C1253 C 0.77966 0.12373 0.86961 0.0
C1254 C 0.78828 0.1267 0.88737 0.0
H1255 H 0.8267 0.11448 0.91302 0.0
H1256 H 0.80301 0.10571 0.90822 0.0
H1257 H 0.81987 0.12194 0.8919 0.0
H1258 H 0.8235 0.16972 0.87986 0.0
H1259 H 0.80808 0.16466 0.84856 0.0
H1260 H 0.83239 0.63222 0.8419 0.0
H1261 H 0.82543 0.64018 0.87359 0.0
H1262 H 0.88288 0.67485 0.88437 0.0
H1263 H 0.88983 0.66735 0.85301 0.0
H1264 H 0.83483 0.63293 0.90796 0.0
H1265 H 0.86423 0.70713 0.90314 0.0
H1266 H 0.85969 0.69308 0.88203 0.0
H1267 H 0.88076 0.70135 0.89511 0.0
C1268 C 0.84347 0.64188 0.85088 0.0
C1269 C 0.86167 0.64913 0.84494 0.0
C1270 C 0.83949 0.64638 0.869 0.0
C1271 C 0.85361 0.65839 0.88129 0.0
C1272 C 0.8717 0.66598 0.87503 0.0
H1273 H 0.88111 0.6607 0.99411 0.0
H1274 H 0.86856 0.65284 0.96189 0.0
C1275 C 0.87566 0.66149 0.8571 0.0
C1276 C 0.85003 0.66163 0.90145 0.0
H1277 H 0.86542 0.6954 0.93516 0.0
C1278 C 0.84107 0.64661 0.91383 0.0
C1279 C 0.85767 0.67942 0.9092 0.0
C1280 C 0.86593 0.69612 0.89658 0.0
C1281 C 0.84124 0.64893 0.93385 0.0
C1282 C 0.851 0.6667 0.94173 0.0
C1283 C 0.85826 0.68173 0.92925 0.0
C1284 C 0.85625 0.66989 0.96241 0.0
C1285 C 0.83156 0.63224 0.94639 0.0
C1286 C 0.85372 0.68229 0.97359 0.0
C1287 C 0.8611 0.68698 0.9922 0.0
C1288 C 0.87137 0.67954 0.99976 0.0
C1289 C 0.87329 0.6667 0.98876 0.0
C1290 C 0.86592 0.66201 0.97033 0.0
H1291 H 0.81926 0.62141 0.93902 0.0
H1292 H 0.84076 0.62672 0.9492 0.0
H1293 H 0.82741 0.63539 0.96035 0.0
H1294 H 0.84648 0.68871 0.96773 0.0
H1295 H 0.85951 0.69703 1.00027 0.0
H1296 H 0.21372 0.33407 0.51114 0.0
H1297 H 0.2092 0.34197 0.5434 0.0
H1298 H 0.15139 0.30492 0.53844 0.0
H1299 H 0.15595 0.29643 0.5059 0.0
H1300 H 0.19005 0.35612 0.55976 0.0
H1301 H 0.1641 0.28501 0.58525 0.0
H1302 H 0.17393 0.29236 0.5617 0.0
H1303 H 0.1514 0.28832 0.56656 0.0
C1304 C 0.19997 0.32767 0.51675 0.0
C1305 C 0.18523 0.3144 0.50602 0.0
C1306 C 0.19739 0.3323 0.53525 0.0
C1307 C 0.18001 0.32383 0.54359 0.0
C1308 C 0.165 0.31138 0.53249 0.0
H1309 H 0.19289 0.3643 0.66432 0.0
H1310 H 0.17773 0.35503 0.63275 0.0
C1311 C 0.16759 0.30667 0.51383 0.0
C1312 C 0.1784 0.32731 0.56433 0.0
H1313 H 0.17222 0.30752 0.60858 0.0
C1314 C 0.18576 0.34546 0.57048 0.0
C1315 C 0.17281 0.31338 0.57832 0.0
C1316 C 0.16521 0.29367 0.57275 0.0
C1317 C 0.18904 0.35021 0.59005 0.0
C1318 C 0.18446 0.33638 0.60395 0.0
C1319 C 0.17571 0.31811 0.59792 0.0
C1320 C 0.19168 0.34067 0.62399 0.0
C1321 C 0.19875 0.37011 0.59552 0.0
C1322 C 0.20396 0.33511 0.62989 0.0
C1323 C 0.21242 0.34019 0.64779 0.0
C1324 C 0.20887 0.35103 0.66039 0.0
C1325 C 0.19595 0.356 0.65492 0.0
C1326 C 0.1874 0.35083 0.63683 0.0
H1327 H 0.20354 0.37919 0.58274 0.0
H1328 H 0.18933 0.37308 0.60375 0.0
H1329 H 0.21067 0.37346 0.60482 0.0
H1330 H 0.20751 0.32727 0.62033 0.0
H1331 H 0.22213 0.33594 0.65154 0.0
H1332 H 0.62972 0.82739 0.66748 0.0
H1333 H 0.63821 0.82057 0.63598 0.0
H1334 H 0.67322 0.8781 0.62582 0.0
H1335 H 0.66527 0.88487 0.65698 0.0
H1336 H 0.63141 0.82978 0.60174 0.0
H1337 H 0.70555 0.85995 0.60677 0.0
H1338 H 0.69151 0.85538 0.62788 0.0
H1339 H 0.69981 0.8765 0.61486 0.0
C1340 C 0.6396 0.8385 0.6587 0.0
C1341 C 0.64679 0.85667 0.66472 0.0
C1342 C 0.6444 0.8346 0.64068 0.0
C1343 C 0.65665 0.8488 0.62859 0.0
C1344 C 0.66421 0.86684 0.635 0.0
H1345 H 0.65779 0.87823 0.51746 0.0
H1346 H 0.65032 0.86448 0.54912 0.0
C1347 C 0.65944 0.87071 0.65282 0.0
C1348 C 0.66005 0.8454 0.6084 0.0
H1349 H 0.69393 0.86209 0.5748 0.0
C1350 C 0.64511 0.83638 0.59593 0.0
C1351 C 0.67788 0.85345 0.60068 0.0
C1352 C 0.69455 0.86165 0.61335 0.0
C1353 C 0.64751 0.83699 0.57589 0.0
C1354 C 0.66526 0.84732 0.5681 0.0
C1355 C 0.68026 0.85453 0.58063 0.0
C1356 C 0.66836 0.85333 0.54763 0.0
C1357 C 0.63089 0.82719 0.56327 0.0
C1358 C 0.68123 0.85192 0.53606 0.0
C1359 C 0.68574 0.86006 0.51775 0.0
C1360 C 0.67762 0.86994 0.51091 0.0
C1361 C 0.66433 0.87074 0.52227 0.0
C1362 C 0.65985 0.86265 0.54038 0.0
H1363 H 0.62041 0.81445 0.57028 0.0
H1364 H 0.6248 0.83599 0.56109 0.0
H1365 H 0.63427 0.82375 0.54903 0.0
H1366 H 0.68815 0.84499 0.54141 0.0
H1367 H 0.69613 0.85933 0.5094 0.0
H1368 H 0.13948 0.83205 0.51549 0.0
H1369 H 0.15474 0.83658 0.54686 0.0
H1370 H 0.11771 0.78035 0.56121 0.0
H1371 H 0.10304 0.77563 0.53026 0.0
H1372 H 0.1417 0.83356 0.58276 0.0
H1373 H 0.16489 0.78384 0.57549 0.0
H1374 H 0.15728 0.79141 0.55506 0.0
H1375 H 0.14112 0.77282 0.56984 0.0
C1376 C 0.13486 0.82063 0.52525 0.0
C1377 C 0.1201 0.80346 0.52027 0.0
C1378 C 0.14354 0.82323 0.54318 0.0
C1379 C 0.13767 0.80868 0.55627 0.0
C1380 C 0.12294 0.79165 0.55121 0.0
H1381 H 0.12623 0.79826 0.67613 0.0
H1382 H 0.12791 0.80707 0.64256 0.0
C1383 C 0.11441 0.78903 0.53345 0.0
C1384 C 0.14579 0.8111 0.57579 0.0
H1385 H 0.15769 0.7887 0.60825 0.0
C1386 C 0.14563 0.82405 0.58826 0.0
C1387 C 0.15151 0.79913 0.58295 0.0
C1388 C 0.15391 0.78619 0.57002 0.0
C1389 C 0.1495 0.82427 0.60797 0.0
C1390 C 0.15294 0.81074 0.61555 0.0
C1391 C 0.15465 0.79885 0.60273 0.0
C1392 C 0.15323 0.80751 0.63663 0.0
C1393 C 0.14961 0.83889 0.62042 0.0
C1394 C 0.16663 0.80433 0.64466 0.0
C1395 C 0.16535 0.79868 0.66382 0.0
C1396 C 0.15077 0.79635 0.67544 0.0
C1397 C 0.13778 0.80021 0.66765 0.0
C1398 C 0.13884 0.80544 0.64842 0.0
H1399 H 0.15452 0.85173 0.61216 0.0
H1400 H 0.1355 0.83446 0.62516 0.0
H1401 H 0.15839 0.84178 0.63329 0.0
H1402 H 0.17784 0.80571 0.63594 0.0
H1403 H 0.17557 0.7958 0.66942 0.0
H1404 H 0.68605 0.83328 0.01041 0.0
H1405 H 0.67582 0.8364 0.04264 0.0
H1406 H 0.66399 0.78197 0.05671 0.0
H1407 H 0.67331 0.77854 0.02492 0.0
H1408 H 0.6372 0.78688 0.06807 0.0
H1409 H 0.70298 0.84535 0.09278 0.0
H1410 H 0.69302 0.84916 0.07174 0.0
H1411 H 0.70112 0.83322 0.07082 0.0
C1412 C 0.68117 0.822 0.0204 0.0
C1413 C 0.6805 0.80567 0.01501 0.0
C1414 C 0.67546 0.82384 0.03887 0.0
C1415 C 0.66929 0.80947 0.05226 0.0
C1416 C 0.66858 0.79324 0.04671 0.0
H1417 H 0.66984 0.79724 0.17222 0.0
H1418 H 0.67613 0.8056 0.13838 0.0
C1419 C 0.674 0.79133 0.0284 0.0
C1420 C 0.66347 0.81074 0.07216 0.0
H1421 H 0.6796 0.83155 0.11558 0.0
C1422 C 0.64638 0.7968 0.07843 0.0
C1423 C 0.67547 0.82365 0.08569 0.0
C1424 C 0.69423 0.83864 0.08005 0.0
C1425 C 0.64146 0.79455 0.09794 0.0
C1426 C 0.65364 0.8072 0.11161 0.0
C1427 C 0.67026 0.82186 0.10515 0.0
C1428 C 0.65035 0.80425 0.13274 0.0
C1429 C 0.62384 0.77786 0.10374 0.0
C1430 C 0.63399 0.80125 0.14117 0.0
C1431 C 0.63017 0.79598 0.16049 0.0
C1432 C 0.6429 0.79423 0.17191 0.0
C1433 C 0.65976 0.79849 0.16383 0.0
C1434 C 0.66338 0.80331 0.14444 0.0
H1435 H 0.61847 0.76736 0.09223 0.0
H1436 H 0.62567 0.77158 0.11695 0.0
H1437 H 0.6134 0.78179 0.10664 0.0
H1438 H 0.62396 0.80249 0.1327 0.0
H1439 H 0.61715 0.79301 0.16642 0.0
H1440 H 0.2169 0.88171 0.02158 0.0
H1441 H 0.21181 0.86912 0.05376 0.0
H1442 H 0.15395 0.84717 0.04712 0.0
H1443 H 0.15908 0.86026 0.01453 0.0
H1444 H 0.16595 0.86574 0.08019 0.0
H1445 H 0.19353 0.81941 0.0758 0.0
H1446 H 0.20985 0.84099 0.06589 0.0
H1447 H 0.18787 0.82783 0.05456 0.0
C1448 C 0.20301 0.87395 0.02675 0.0
C1449 C 0.18839 0.87205 0.01548 0.0
C1450 C 0.2001 0.86655 0.04517 0.0
C1451 C 0.18246 0.85684 0.05284 0.0
C1452 C 0.16768 0.85442 0.04144 0.0
H1453 H 0.1962 0.83192 0.17294 0.0
H1454 H 0.18121 0.82516 0.14127 0.0
C1455 C 0.1706 0.86184 0.02281 0.0
C1456 C 0.18019 0.85132 0.07345 0.0
H1457 H 0.19756 0.83475 0.10703 0.0
C1458 C 0.1724 0.85849 0.08602 0.0
C1459 C 0.1881 0.84143 0.08123 0.0
C1460 C 0.1951 0.83181 0.06858 0.0
C1461 C 0.17404 0.8577 0.10607 0.0
C1462 C 0.18413 0.84996 0.11374 0.0
C1463 C 0.19018 0.84108 0.10125 0.0
C1464 C 0.19092 0.85338 0.13394 0.0
C1465 C 0.16554 0.86584 0.11878 0.0
C1466 C 0.2013 0.87142 0.14042 0.0
C1467 C 0.20978 0.87527 0.15835 0.0
C1468 C 0.20831 0.86121 0.17029 0.0
C1469 C 0.19749 0.84305 0.16414 0.0
C1470 C 0.18896 0.83918 0.14603 0.0
H1471 H 0.15281 0.86409 0.11224 0.0
H1472 H 0.16237 0.85954 0.1333 0.0
H1473 H 0.1751 0.88069 0.12031 0.0
H1474 H 0.20353 0.88267 0.13125 0.0
H1475 H 0.21799 0.88941 0.16259 0.0
H1476 H 0.1457 0.33873 1.00054 0.0
H1477 H 0.1531 0.34468 0.03456 0.0
H1478 H 0.13513 0.28782 0.04381 0.0
H1479 H 0.12706 0.28167 0.00975 0.0
H1480 H 0.11986 0.298 0.06872 0.0
H1481 H 0.19234 0.3505 0.06973 0.0
H1482 H 0.18044 0.35778 0.0541 0.0
H1483 H 0.18145 0.33754 0.04833 0.0
C1484 C 0.14372 0.32754 0.00968 0.0
C1485 C 0.1357 0.3097 1.00239 0.0
C1486 C 0.14812 0.331 0.02921 0.0
C1487 C 0.14499 0.31678 0.04187 0.0
C1488 C 0.13776 0.29907 0.03441 0.0
H1489 H 0.16553 0.35407 0.164 0.0
H1490 H 0.16768 0.33802 0.13524 0.0
C1491 C 0.13314 0.29556 0.0149 0.0
C1492 C 0.14704 0.32009 0.06307 0.0
H1493 H 0.17413 0.35127 0.09684 0.0
C1494 C 0.13196 0.30937 0.0749 0.0
C1495 C 0.1629 0.33463 0.07149 0.0
C1496 C 0.18024 0.3456 0.06023 0.0
C1497 C 0.13172 0.31376 0.09432 0.0
C1498 C 0.14675 0.32955 0.1021 0.0
C1499 C 0.16246 0.33932 0.09084 0.0
C1500 C 0.14511 0.33777 0.12036 0.0
C1501 C 0.11498 0.30184 0.10613 0.0
C1502 C 0.13181 0.34292 0.12152 0.0
C1503 C 0.13065 0.352 0.13763 0.0
C1504 C 0.14279 0.3563 0.15311 0.0
C1505 C 0.1559 0.35077 0.15234 0.0
C1506 C 0.15718 0.34172 0.13592 0.0
H1507 H 0.10821 0.28749 0.10106 0.0
H1508 H 0.11835 0.30221 0.12161 0.0
H1509 H 0.10509 0.30671 0.10451 0.0
H1510 H 0.12259 0.34042 0.10962 0.0
H1511 H 0.12033 0.35599 0.13777 0.0
H1512 H 0.79255 0.65279 0.50602 0.0
H1513 H 0.79466 0.64718 0.47207 0.0
H1514 H 0.84098 0.70134 0.46612 0.0
H1515 H 0.83813 0.70738 0.50001 0.0
H1516 H 0.81974 0.69687 0.43935 0.0
H1517 H 0.82388 0.63431 0.43908 0.0
H1518 H 0.80433 0.63 0.45291 0.0
H1519 H 0.82679 0.64699 0.46091 0.0
C1520 C 0.80345 0.66338 0.4976 0.0
C1521 C 0.81518 0.68053 0.50569 0.0
C1522 C 0.80477 0.66008 0.47813 0.0
C1523 C 0.81824 0.67366 0.46641 0.0
C1524 C 0.8305 0.69057 0.47476 0.0
H1525 H 0.80521 0.64089 0.34319 0.0
H1526 H 0.82053 0.65083 0.37466 0.0
C1527 C 0.8289 0.69402 0.49415 0.0
C1528 C 0.81787 0.67096 0.44515 0.0
H1529 H 0.80887 0.63865 0.41081 0.0
C1530 C 0.81786 0.6843 0.43315 0.0
C1531 C 0.81591 0.65485 0.43666 0.0
C1532 C 0.81797 0.64088 0.44811 0.0
C1533 C 0.81441 0.68132 0.41337 0.0
C1534 C 0.81009 0.66426 0.40539 0.0
C1535 C 0.8117 0.65156 0.41696 0.0
C1536 C 0.8016 0.6586 0.38603 0.0
C1537 C 0.81492 0.69639 0.40134 0.0
C1538 C 0.78576 0.65931 0.38211 0.0
C1539 C 0.7772 0.65387 0.36432 0.0
C1540 C 0.784 0.64718 0.34995 0.0
C1541 C 0.79972 0.6461 0.3539 0.0
C1542 C 0.80845 0.65175 0.37186 0.0
H1543 H 0.8251 0.70997 0.40707 0.0
H1544 H 0.8183 0.69548 0.3861 0.0
H1545 H 0.80141 0.69548 0.40189 0.0
H1546 H 0.7798 0.66389 0.39296 0.0
H1547 H 0.76501 0.65471 0.362 0.0
H1548 H 0.33109 0.11343 0.50112 0.0
H1549 H 0.34009 0.12737 0.46959 0.0
H1550 H 0.30669 0.15207 0.47699 0.0
H1551 H 0.29722 0.13769 0.50886 0.0
H1552 H 0.30018 0.13475 0.44295 0.0
H1553 H 0.37439 0.17788 0.45064 0.0
H1554 H 0.36752 0.15545 0.45928 0.0
H1555 H 0.35946 0.16898 0.47121 0.0
C1556 C 0.32582 0.12205 0.49626 0.0
C1557 C 0.31338 0.1244 0.50753 0.0
C1558 C 0.33118 0.13021 0.47823 0.0
C1559 C 0.32439 0.1411 0.47098 0.0
C1560 C 0.31228 0.1439 0.48237 0.0
H1561 H 0.36708 0.17266 0.35278 0.0
H1562 H 0.35818 0.17768 0.38492 0.0
C1563 C 0.30692 0.13572 0.50058 0.0
C1564 C 0.32856 0.14764 0.45073 0.0
H1565 H 0.36359 0.16505 0.41844 0.0
C1566 C 0.31407 0.14184 0.43765 0.0
C1567 C 0.34665 0.15731 0.4437 0.0
C1568 C 0.36286 0.16543 0.45703 0.0
C1569 C 0.31717 0.1438 0.41771 0.0
C1570 C 0.33519 0.1514 0.41064 0.0
C1571 C 0.34973 0.15888 0.42375 0.0
C1572 C 0.33902 0.14916 0.39023 0.0
C1573 C 0.30101 0.13705 0.40441 0.0
C1574 C 0.3312 0.13156 0.38248 0.0
C1575 C 0.33624 0.1287 0.36431 0.0
C1576 C 0.34936 0.14335 0.35339 0.0
C1577 C 0.35682 0.16111 0.36079 0.0
C1578 C 0.35179 0.16398 0.37916 0.0
H1579 H 0.29002 0.13869 0.4111 0.0
H1580 H 0.30482 0.1444 0.39046 0.0
H1581 H 0.29541 0.1223 0.40165 0.0
H1582 H 0.32172 0.11983 0.39084 0.0
H1583 H 0.3302 0.11483 0.35907 0.0
H1584 H 0.88012 0.21718 0.49716 0.0
H1585 H 0.86534 0.21132 0.46607 0.0
H1586 H 0.83952 0.15343 0.47605 0.0
H1587 H 0.85487 0.15928 0.50746 0.0
H1588 H 0.85541 0.16174 0.44191 0.0
H1589 H 0.81554 0.19634 0.44698 0.0
H1590 H 0.83815 0.21181 0.45515 0.0
H1591 H 0.82427 0.19085 0.46809 0.0
C1592 C 0.87106 0.20316 0.49298 0.0
C1593 C 0.86875 0.18869 0.50479 0.0
C1594 C 0.86239 0.19982 0.47521 0.0
C1595 C 0.85096 0.18193 0.46878 0.0
C1596 C 0.8481 0.16736 0.48078 0.0
H1597 H 0.8263 0.1975 0.34965 0.0
H1598 H 0.81801 0.18197 0.38106 0.0
C1599 C 0.85684 0.17071 0.49873 0.0
C1600 C 0.84414 0.17895 0.44861 0.0
H1601 H 0.82931 0.19796 0.41505 0.0
C1602 C 0.84916 0.16919 0.43612 0.0
C1603 C 0.83543 0.1881 0.44091 0.0
C1604 C 0.82786 0.19716 0.45359 0.0
C1605 C 0.84769 0.17018 0.41608 0.0
C1606 C 0.84155 0.18162 0.40835 0.0
C1607 C 0.83448 0.18954 0.42086 0.0
C1608 C 0.84541 0.18816 0.38809 0.0
C1609 C 0.8536 0.15964 0.40342 0.0
C1610 C 0.86345 0.19664 0.38151 0.0
C1611 C 0.86815 0.20541 0.36377 0.0
C1612 C 0.85498 0.20614 0.35214 0.0
C1613 C 0.83672 0.19704 0.35825 0.0
C1614 C 0.83199 0.18823 0.3762 0.0
H1615 H 0.85019 0.14644 0.41021 0.0
H1616 H 0.84708 0.15692 0.38902 0.0
H1617 H 0.86861 0.16753 0.40159 0.0
H1618 H 0.87419 0.19732 0.39053 0.0
H1619 H 0.88233 0.21224 0.35949 0.0
H1620 H 0.95784 0.49502 0.32388 0.0
H1621 H 0.96477 0.49214 0.29031 0.0
H1622 H 0.01868 0.53861 0.29745 0.0
H1623 H 0.01218 0.54072 0.33112 0.0
H1624 H 0.96987 0.51303 0.26311 0.0
H1625 H 0.03268 0.50949 0.26584 0.0
H1626 H 0.0194 0.50662 0.28717 0.0
H1627 H 0.03651 0.52908 0.27929 0.0
C1628 C 0.97133 0.50429 0.31836 0.0
C1629 C 0.9845 0.51802 0.33016 0.0
C1630 C 0.97529 0.50266 0.29915 0.0
C1631 C 0.99241 0.51494 0.29122 0.0
C1632 C 0.00564 0.52847 0.30319 0.0
H1633 H 0.01427 0.56844 0.18728 0.0
H1634 H 0.00404 0.55316 0.21783 0.0
C1635 C 0.00183 0.52981 0.32249 0.0
C1636 C 0.99571 0.5152 0.27008 0.0
H1637 H 0.02908 0.5244 0.23701 0.0
C1638 C 0.98266 0.51501 0.25746 0.0
C1639 C 0.0121 0.51728 0.26227 0.0
C1640 C 0.02582 0.51539 0.2744 0.0
C1641 C 0.98619 0.51841 0.23773 0.0
C1642 C 0.00353 0.52289 0.23044 0.0
C1643 C 0.01595 0.52144 0.24263 0.0
C1644 C 0.00978 0.53159 0.21124 0.0
C1645 C 0.97144 0.51773 0.22502 0.0
C1646 C 0.01719 0.52502 0.19738 0.0
C1647 C 0.02344 0.53404 0.17963 0.0
C1648 C 0.02245 0.5498 0.17561 0.0
C1649 C 0.01514 0.55627 0.18966 0.0
C1650 C 0.00908 0.54742 0.20721 0.0
H1651 H 0.95774 0.50741 0.23033 0.0
H1652 H 0.97213 0.53116 0.22537 0.0
H1653 H 0.97289 0.51445 0.2099 0.0
H1654 H 0.01811 0.51296 0.20029 0.0
H1655 H 0.02913 0.52879 0.16919 0.0
H1656 H 0.46715 0.49966 0.17518 0.0
H1657 H 0.48107 0.50712 0.20739 0.0
H1658 H 0.45973 0.44992 0.21856 0.0
H1659 H 0.4464 0.44252 0.1867 0.0
H1660 H 0.46395 0.49794 0.24092 0.0
H1661 H 0.50968 0.46962 0.23991 0.0
H1662 H 0.5006 0.4735 0.21806 0.0
H1663 H 0.48781 0.45253 0.23133 0.0
C1664 C 0.46586 0.48876 0.18437 0.0
C1665 C 0.45565 0.47049 0.17836 0.0
C1666 C 0.47377 0.49302 0.20279 0.0
C1667 C 0.47178 0.47912 0.21535 0.0
C1668 C 0.46201 0.46098 0.20904 0.0
H1669 H 0.44136 0.45171 0.32678 0.0
H1670 H 0.44786 0.46464 0.29472 0.0
C1671 C 0.45416 0.45673 0.1908 0.0
C1672 C 0.47786 0.48291 0.23578 0.0
H1673 H 0.49501 0.46782 0.27115 0.0
C1674 C 0.47122 0.49181 0.24745 0.0
C1675 C 0.48784 0.47548 0.24444 0.0
C1676 C 0.49706 0.46746 0.23268 0.0
C1677 C 0.47255 0.49171 0.2676 0.0
C1678 C 0.48026 0.48202 0.27632 0.0
C1679 C 0.48869 0.4749 0.2646 0.0
C1680 C 0.47711 0.47658 0.29696 0.0
C1681 C 0.46501 0.50141 0.27931 0.0
C1682 C 0.49137 0.47873 0.3091 0.0
C1683 C 0.48761 0.47107 0.32763 0.0
C1684 C 0.46952 0.46093 0.33416 0.0
C1685 C 0.45545 0.45942 0.32223 0.0
C1686 C 0.45918 0.46704 0.30388 0.0
H1687 H 0.46704 0.51383 0.27174 0.0
H1688 H 0.45012 0.4923 0.2812 0.0
H1689 H 0.47151 0.50538 0.29371 0.0
H1690 H 0.50531 0.48586 0.30403 0.0
H1691 H 0.49873 0.47233 0.33643 0.0
H1692 H 0.50081 0.97644 0.17555 0.0
H1693 H 0.49619 0.98674 0.20708 0.0
H1694 H 0.5527 0.00691 0.22096 0.0
H1695 H 0.55752 0.99748 0.18976 0.0
H1696 H 0.49908 0.97631 0.24211 0.0
H1697 H 0.54851 0.04944 0.23738 0.0
H1698 H 0.54146 0.03494 0.21642 0.0
H1699 H 0.55994 0.0372 0.2313 0.0
C1700 C 0.51229 0.98342 0.18522 0.0
C1701 C 0.52955 0.98622 0.18005 0.0
C1702 C 0.50963 0.98925 0.20324 0.0
C1703 C 0.52421 0.99802 0.21628 0.0
C1704 C 0.54137 0.00079 0.211 0.0
H1705 H 0.53337 0.99244 0.33566 0.0
H1706 H 0.52485 0.98669 0.30191 0.0
C1707 C 0.54405 0.99517 0.1931 0.0
C1708 C 0.52162 0.00309 0.23605 0.0
H1709 H 0.54372 0.03625 0.26972 0.0
C1710 C 0.50854 0.98957 0.24807 0.0
C1711 C 0.53349 0.02055 0.24383 0.0
C1712 C 0.54646 0.03638 0.23143 0.0
C1713 C 0.50813 0.99254 0.26792 0.0
C1714 C 0.52163 0.00923 0.27608 0.0
C1715 C 0.53361 0.02326 0.26374 0.0
C1716 C 0.52474 0.01193 0.29726 0.0
C1717 C 0.49334 0.97763 0.27985 0.0
C1718 C 0.52805 0.02827 0.30605 0.0
C1719 C 0.53357 0.03185 0.32531 0.0
C1720 C 0.53561 0.01905 0.33626 0.0
C1721 C 0.53163 0.00245 0.32771 0.0
C1722 C 0.52655 0.99906 0.30837 0.0
H1723 H 0.48055 0.97012 0.27141 0.0
H1724 H 0.49759 0.96767 0.28401 0.0
H1725 H 0.49043 0.98308 0.29307 0.0
H1726 H 0.52686 0.03849 0.29787 0.0
H1727 H 0.53657 0.04478 0.33153 0.0
H1728 H 0.46966 0.96785 0.67088 0.0
H1729 H 0.48285 0.97493 0.70342 0.0
H1730 H 0.46014 0.00991 0.71252 0.0
H1731 H 0.44762 0.00346 0.68023 0.0
H1732 H 0.4935 0.0242 0.72854 0.0
H1733 H 0.45063 0.95135 0.7497 0.0
H1734 H 0.46681 0.95639 0.7307 0.0
H1735 H 0.44773 0.95974 0.72694 0.0
C1736 C 0.46785 0.97734 0.67972 0.0
C1737 C 0.45738 0.9849 0.67306 0.0
C1738 C 0.47523 0.98124 0.69837 0.0
C1739 C 0.47216 0.99266 0.71062 0.0
C1740 C 0.46267 0.00102 0.70345 0.0
H1741 H 0.44097 0.99661 0.8204 0.0
H1742 H 0.44745 0.99006 0.78837 0.0
C1743 C 0.45541 0.99722 0.68494 0.0
C1744 C 0.47728 0.99508 0.73134 0.0
H1745 H 0.46436 0.9726 0.77431 0.0
C1746 C 0.4875 0.0129 0.73858 0.0
C1747 C 0.46942 0.9803 0.74443 0.0
C1748 C 0.45794 0.96086 0.73767 0.0
C1749 C 0.48876 0.01647 0.75844 0.0
C1750 C 0.47995 0.00175 0.77148 0.0
C1751 C 0.47109 0.98386 0.76429 0.0
C1752 C 0.47674 0.00462 0.79191 0.0
C1753 C 0.4982 0.03602 0.76516 0.0
C1754 C 0.49105 0.01468 0.80492 0.0
C1755 C 0.48735 0.01865 0.82345 0.0
C1756 C 0.46929 0.01253 0.82922 0.0
C1757 C 0.45506 0.00173 0.81644 0.0
C1758 C 0.45874 0.99786 0.79807 0.0
H1759 H 0.50201 0.04578 0.75301 0.0
H1760 H 0.48931 0.03829 0.77515 0.0
H1761 H 0.51082 0.03913 0.77301 0.0
H1762 H 0.50504 0.01975 0.80064 0.0
H1763 H 0.49861 0.02693 0.83299 0.0
H1764 H 0.99774 0.44951 0.67642 0.0
H1765 H 0.9912 0.45608 0.70839 0.0
H1766 H 0.03103 0.51293 0.70093 0.0
H1767 H 0.03803 0.50623 0.66859 0.0
H1768 H 0.03663 0.50064 0.73372 0.0
H1769 H 0.96373 0.4781 0.73134 0.0
H1770 H 0.96682 0.46034 0.72146 0.0
H1771 H 0.97699 0.48224 0.70968 0.0
C1772 C 0.0049 0.46352 0.68135 0.0
C1773 C 0.01846 0.47734 0.66998 0.0
C1774 C 0.00096 0.4673 0.69964 0.0
C1775 C 0.01033 0.48507 0.70707 0.0
C1776 C 0.02345 0.49914 0.69546 0.0
H1777 H 0.97514 0.47324 0.82829 0.0
H1778 H 0.98318 0.48844 0.79671 0.0
C1779 C 0.0274 0.49533 0.67696 0.0
C1780 C 0.00789 0.488 0.72774 0.0
H1781 H 0.9748 0.4726 0.76221 0.0
C1782 C 0.02314 0.49502 0.73991 0.0
C1783 C 0.9904 0.48121 0.736 0.0
C1784 C 0.97362 0.47527 0.72384 0.0
C1785 C 0.02117 0.49353 0.76 0.0
C1786 C 0.00347 0.48434 0.76812 0.0
C1787 C 0.98838 0.47923 0.75607 0.0
C1788 C 0.00024 0.47733 0.78823 0.0
C1789 C 0.03808 0.50115 0.77226 0.0
C1790 C 0.00712 0.46607 0.794 0.0
C1791 C 0.0026 0.45748 0.81186 0.0
C1792 C 0.99088 0.45971 0.82444 0.0
C1793 C 0.98431 0.47136 0.81897 0.0
C1794 C 0.98885 0.48 0.80093 0.0
H1795 H 0.04935 0.51363 0.76562 0.0
H1796 H 0.03562 0.5045 0.78699 0.0
H1797 H 0.04263 0.49097 0.7733 0.0
H1798 H 0.01544 0.46327 0.78434 0.0
H1799 H 0.00793 0.44862 0.81555 0.0
H1800 H 0.56664 0.55561 0.81904 0.0
H1801 H 0.55107 0.54961 0.78848 0.0
H1802 H 0.51135 0.49568 0.80757 0.0
H1803 H 0.52748 0.50145 0.83854 0.0
H1804 H 0.52213 0.49479 0.77152 0.0
H1805 H 0.50533 0.54947 0.77497 0.0
H1806 H 0.52918 0.55908 0.77951 0.0
H1807 H 0.51282 0.54238 0.79587 0.0
C1808 C 0.5545 0.54248 0.81698 0.0
C1809 C 0.54825 0.52905 0.83138 0.0
C1810 C 0.54549 0.53913 0.79943 0.0
C1811 C 0.52971 0.5224 0.79585 0.0
C1812 C 0.52337 0.50881 0.81012 0.0
H1813 H 0.49127 0.53301 0.6825 0.0
H1814 H 0.48867 0.52415 0.71638 0.0
C1815 C 0.53256 0.51212 0.82779 0.0
C1816 C 0.52083 0.51919 0.77667 0.0
H1817 H 0.51023 0.54133 0.74266 0.0
C1818 C 0.51907 0.5047 0.76531 0.0
C1819 C 0.51621 0.53169 0.76864 0.0
C1820 C 0.51578 0.54637 0.78052 0.0
C1821 C 0.51442 0.50338 0.74571 0.0
C1822 C 0.51217 0.5173 0.7371 0.0
C1823 C 0.51233 0.53082 0.74894 0.0
C1824 C 0.51145 0.51928 0.71584 0.0
C1825 C 0.51222 0.48717 0.7345 0.0
C1826 C 0.52478 0.51909 0.70396 0.0
C1827 C 0.52593 0.52365 0.6845 0.0
C1828 C 0.51416 0.5291 0.67658 0.0
C1829 C 0.50051 0.52885 0.68824 0.0
C1830 C 0.49906 0.52382 0.70762 0.0
H1831 H 0.50648 0.47485 0.74376 0.0
H1832 H 0.50319 0.48422 0.72183 0.0
H1833 H 0.52579 0.48988 0.72952 0.0
H1834 H 0.53498 0.51638 0.70991 0.0
H1835 H 0.53679 0.52402 0.67597 0.0
H1836 H 0.42658 0.39312 0.1223 0.0
H1837 H 0.40795 0.36157 0.11147 0.0
H1838 H 0.3806 0.37837 0.07098 0.0
H1839 H 0.39877 0.40981 0.08237 0.0
H1840 H 0.35687 0.35019 0.08947 0.0
H1841 H 0.41002 0.33528 0.06504 0.0
H1842 H 0.41372 0.34286 0.08953 0.0
H1843 H 0.41497 0.35807 0.07072 0.0
C1844 C 0.41673 0.39005 0.11093 0.0
C1845 C 0.41405 0.40384 0.10318 0.0
C1846 C 0.40619 0.37206 0.10462 0.0
C1847 C 0.39311 0.3676 0.0901 0.0
C1848 C 0.39065 0.38146 0.08215 0.0
H1849 H 0.32984 0.25805 0.03968 0.0
H1850 H 0.35311 0.29024 0.04501 0.0
C1851 C 0.40095 0.39939 0.0887 0.0
C1852 C 0.38094 0.34832 0.08434 0.0
H1853 H 0.38036 0.30922 0.07098 0.0
C1854 C 0.36206 0.34133 0.08521 0.0
C1855 C 0.38764 0.33675 0.07844 0.0
C1856 C 0.4077 0.34369 0.07566 0.0
C1857 C 0.34972 0.32305 0.08096 0.0
C1858 C 0.35641 0.31118 0.07644 0.0
C1859 C 0.37526 0.31825 0.07483 0.0
C1860 C 0.34391 0.29135 0.07378 0.0
C1861 C 0.3296 0.31671 0.08125 0.0
C1862 C 0.33163 0.28117 0.08843 0.0
C1863 C 0.31834 0.26309 0.08526 0.0
C1864 C 0.31741 0.25471 0.06759 0.0
C1865 C 0.33046 0.26438 0.05339 0.0
C1866 C 0.34364 0.28268 0.05644 0.0
H1867 H 0.32707 0.32819 0.07868 0.0
H1868 H 0.32211 0.30607 0.07022 0.0
H1869 H 0.32397 0.31093 0.09561 0.0
H1870 H 0.33196 0.28741 0.10213 0.0
H1871 H 0.30845 0.25569 0.09641 0.0
H1872 H 0.74849 0.06909 0.09027 0.0
H1873 H 0.71747 0.05432 0.10273 0.0
H1874 H 0.69798 0.06078 0.04767 0.0
H1875 H 0.72891 0.07655 0.03546 0.0
H1876 H 0.68272 0.06923 0.07546 0.0
H1877 H 0.67766 0.00297 0.09273 0.0
H1878 H 0.69607 0.02191 0.10487 0.0
H1879 H 0.69631 0.02042 0.07907 0.0
C1880 C 0.7377 0.06759 0.08081 0.0
C1881 C 0.74136 0.07392 0.0617 0.0
C1882 C 0.71987 0.05885 0.08792 0.0
C1883 C 0.70532 0.05602 0.076 0.0
C1884 C 0.70896 0.06263 0.05709 0.0
H1885 H 0.58951 0.9821 0.09178 0.0
H1886 H 0.62188 0.99646 0.08314 0.0
C1887 C 0.72673 0.07154 0.05006 0.0
C1888 C 0.68629 0.0466 0.08316 0.0
H1889 H 0.65302 0.00683 0.10277 0.0
C1890 C 0.67623 0.05558 0.08142 0.0
C1891 C 0.67774 0.02867 0.09066 0.0
C1892 C 0.68743 0.01784 0.09178 0.0
C1893 C 0.65789 0.04716 0.08688 0.0
C1894 C 0.64952 0.02948 0.09502 0.0
C1895 C 0.65953 0.02046 0.09674 0.0
C1896 C 0.63025 0.02005 0.1014 0.0
C1897 C 0.64755 0.0571 0.08329 0.0
C1898 C 0.62435 0.02823 0.11496 0.0
C1899 C 0.60594 0.0202 0.11962 0.0
C1900 C 0.59313 0.00362 0.11117 0.0
C1901 C 0.59915 0.99488 0.09847 0.0
C1902 C 0.61759 0.00308 0.09354 0.0
H1903 H 0.65416 0.06769 0.07199 0.0
H1904 H 0.6333 0.04756 0.07883 0.0
H1905 H 0.64726 0.06403 0.09671 0.0
H1906 H 0.63396 0.04101 0.12168 0.0
H1907 H 0.60164 0.02699 0.12977 0.0
H1908 H 0.90627 0.64032 0.05224 0.0
H1909 H 0.92583 0.62812 0.06189 0.0
H1910 H 0.95216 0.67121 0.10375 0.0
H1911 H 0.93309 0.68389 0.09338 0.0
H1912 H 0.97641 0.66526 0.08678 0.0
H1913 H 0.9186 0.59892 0.10922 0.0
H1914 H 0.91646 0.60338 0.08447 0.0
H1915 H 0.91575 0.61797 0.10291 0.0
C1916 C 0.91625 0.64713 0.0635 0.0
C1917 C 0.91812 0.66287 0.07226 0.0
C1918 C 0.92733 0.64013 0.06908 0.0
C1919 C 0.94008 0.64844 0.08395 0.0
C1920 C 0.94231 0.66449 0.09236 0.0
H1921 H 0.98323 0.585 0.13678 0.0
H1922 H 0.96873 0.60344 0.13172 0.0
C1923 C 0.93147 0.67173 0.08646 0.0
C1924 C 0.95097 0.64026 0.09069 0.0
H1925 H 0.94716 0.60006 0.10496 0.0
C1926 C 0.97004 0.65105 0.09099 0.0
C1927 C 0.94264 0.62186 0.09665 0.0
C1928 C 0.92224 0.60995 0.09851 0.0
C1929 C 0.98103 0.64375 0.09645 0.0
C1930 C 0.9727 0.62499 0.10102 0.0
C1931 C 0.95361 0.61439 0.10126 0.0
C1932 C 0.98329 0.61582 0.10533 0.0
C1933 C 0.00137 0.65631 0.09752 0.0
C1934 C 0.99654 0.61687 0.09241 0.0
C1935 C 0.00515 0.60671 0.09564 0.0
C1936 C 0.00017 0.59492 0.11145 0.0
C1937 C 0.98713 0.59399 0.12446 0.0
C1938 C 0.97889 0.6045 0.12155 0.0
H1939 H 0.0048 0.67056 0.10049 0.0
H1940 H 0.00762 0.65198 0.10886 0.0
H1941 H 0.00754 0.65626 0.08347 0.0
H1942 H -0.00023 0.625 0.07947 0.0
H1943 H 0.01506 0.60737 0.08537 0.0
H1944 H 0.25809 0.35446 0.45729 0.0
H1945 H 0.29043 0.3691 0.449 0.0
H1946 H 0.27793 0.32933 0.40414 0.0
H1947 H 0.2456 0.31408 0.41329 0.0
H1948 H 0.30841 0.3366 0.42094 0.0
H1949 H 0.31211 0.40208 0.40432 0.0
H1950 H 0.30513 0.39557 0.42871 0.0
H1951 H 0.29083 0.38166 0.40927 0.0
C1952 C 0.26235 0.34886 0.44574 0.0
C1953 C 0.24951 0.33335 0.43574 0.0
C1954 C 0.28075 0.35727 0.4409 0.0
C1955 C 0.28654 0.35069 0.42551 0.0
C1956 C 0.27376 0.33476 0.41594 0.0
H1957 H 0.39273 0.4233 0.37552 0.0
H1958 H 0.35999 0.40335 0.38062 0.0
C1959 C 0.25536 0.32606 0.42113 0.0
C1960 C 0.30587 0.36062 0.41933 0.0
H1961 H 0.34059 0.40303 0.40807 0.0
C1962 C 0.31542 0.3511 0.41791 0.0
C1963 C 0.31492 0.37944 0.41488 0.0
C1964 C 0.30514 0.39021 0.41415 0.0
C1965 C 0.33391 0.35999 0.41274 0.0
C1966 C 0.34327 0.37907 0.40968 0.0
C1967 C 0.33356 0.38846 0.41063 0.0
C1968 C 0.3631 0.38975 0.40552 0.0
C1969 C 0.34302 0.34872 0.41026 0.0
C1970 C 0.37581 0.38867 0.41765 0.0
C1971 C 0.39449 0.39972 0.41435 0.0
C1972 C 0.40073 0.41246 0.39934 0.0
C1973 C 0.38811 0.4136 0.38725 0.0
C1974 C 0.36946 0.40222 0.39018 0.0
H1975 H 0.33298 0.33444 0.40629 0.0
H1976 H 0.35375 0.35448 0.39902 0.0
H1977 H 0.34936 0.34832 0.42407 0.0
H1978 H 0.37134 0.37967 0.42997 0.0
H1979 H 0.4041 0.39885 0.42393 0.0
H1980 H 0.63226 0.90185 0.4592 0.0
H1981 H 0.6191 0.92085 0.45057 0.0
H1982 H 0.66606 0.95448 0.41541 0.0
H1983 H 0.67944 0.93576 0.42441 0.0
H1984 H 0.65595 0.97483 0.43582 0.0
H1985 H 0.59539 0.9188 0.39988 0.0
H1986 H 0.59759 0.91408 0.42456 0.0
H1987 H 0.61453 0.91654 0.40736 0.0
C1988 C 0.63972 0.91327 0.44959 0.0
C1989 C 0.65679 0.91725 0.44234 0.0
C1990 C 0.63218 0.92408 0.44462 0.0
C1991 C 0.64141 0.93885 0.432 0.0
C1992 C 0.65866 0.94311 0.42511 0.0
H1993 H 0.59617 0.99029 0.36295 0.0
H1994 H 0.60855 0.97239 0.37655 0.0
C1995 C 0.66631 0.93244 0.43028 0.0
C1996 C 0.63306 0.94979 0.4258 0.0
H1997 H 0.59581 0.94677 0.40342 0.0
C1998 C 0.64279 0.96872 0.42874 0.0
C1999 C 0.61599 0.9418 0.41636 0.0
C2000 C 0.60534 0.92173 0.41166 0.0
C2001 C 0.63599 0.9799 0.42239 0.0
C2002 C 0.61873 0.97185 0.41333 0.0
C2003 C 0.60894 0.9529 0.41054 0.0
C2004 C 0.61107 0.98287 0.40543 0.0
C2005 C 0.64765 0.00026 0.42484 0.0
C2006 C 0.60809 0.9946 0.41718 0.0
C2007 C 0.6013 0.00523 0.40933 0.0
C2008 C 0.59711 0.00415 0.3896 0.0
C2009 C 0.5996 0.99191 0.37807 0.0
C2010 C 0.60654 0.98147 0.38588 0.0
H2011 H 0.66217 0.00445 0.42737 0.0
H2012 H 0.64682 0.00758 0.41199 0.0
H2013 H 0.64278 0.0046 0.43747 0.0
H2014 H 0.61105 0.99558 0.43242 0.0
H2015 H 0.59963 0.01446 0.41871 0.0
H2016 H 0.0174 0.60965 0.36356 0.0
H2017 H 0.03268 0.63915 0.37945 0.0
H2018 H 0.00068 0.61521 0.43051 0.0
H2019 H 0.98453 0.58576 0.41437 0.0
H2020 H 0.0021 0.64671 0.42166 0.0
H2021 H 0.07175 0.65678 0.41976 0.0
H2022 H 0.06181 0.65265 0.39623 0.0
H2023 H 0.05186 0.63515 0.41432 0.0
C2024 C 0.01347 0.61058 0.37812 0.0
C2025 C -0.00035 0.59519 0.3876 0.0
C2026 C 0.02244 0.62747 0.38729 0.0
C2027 C 0.01807 0.62933 0.40629 0.0
C2028 C 0.00436 0.61405 0.41588 0.0
H2029 H 0.08798 0.72881 0.46972 0.0
H2030 H 0.06983 0.69693 0.45986 0.0
C2031 C 0.99524 0.59714 0.40665 0.0
C2032 C 0.02738 0.64738 0.41584 0.0
H2033 H 0.06943 0.68332 0.42604 0.0
C2034 C 0.01682 0.65466 0.42282 0.0
C2035 C 0.04656 0.6576 0.41765 0.0
C2036 C 0.05863 0.65006 0.41178 0.0
C2037 C 0.02494 0.67213 0.43102 0.0
C2038 C 0.04417 0.68278 0.43175 0.0
C2039 C 0.05469 0.67526 0.42529 0.0
C2040 C 0.0538 0.7018 0.43897 0.0
C2041 C 0.01283 0.67887 0.43899 0.0
C2042 C 0.0507 0.71513 0.43067 0.0
C2043 C 0.06092 0.73333 0.4365 0.0
C2044 C 0.07467 0.73853 0.45039 0.0
C2045 C 0.07757 0.72515 0.45885 0.0
C2046 C 0.06719 0.70696 0.45326 0.0
H2047 H -0.00075 0.66736 0.44306 0.0
H2048 H 0.01904 0.68766 0.4518 0.0
H2049 H 0.01069 0.68695 0.42781 0.0
H2050 H 0.04081 0.7116 0.41926 0.0
H2051 H 0.05862 0.74345 0.42959 0.0
H2052 H 0.58303 0.60271 0.87328 0.0
H2053 H 0.60091 0.63552 0.87937 0.0
H2054 H 0.62338 0.62519 0.93042 0.0
H2055 H 0.60627 0.59241 0.92349 0.0
H2056 H 0.5973 0.65266 0.90726 0.0
H2057 H 0.66835 0.66683 0.90962 0.0
H2058 H 0.64991 0.64549 0.90091 0.0
H2059 H 0.65438 0.64926 0.92634 0.0
C2060 C 0.59211 0.6076 0.88555 0.0
C2061 C 0.59343 0.59527 0.89793 0.0
C2062 C 0.60229 0.62627 0.88905 0.0
C2063 C 0.61369 0.63291 0.90525 0.0
C2064 C 0.61516 0.62051 0.91752 0.0
H2065 H 0.63834 0.73407 0.96039 0.0
H2066 H 0.62587 0.70235 0.9504 0.0
C2067 C 0.60531 0.60182 0.91369 0.0
C2068 C 0.62258 0.65256 0.91015 0.0
H2069 H 0.66279 0.68943 0.92392 0.0
C2070 C 0.61168 0.66072 0.91066 0.0
C2071 C 0.64139 0.66321 0.91435 0.0
C2072 C 0.6542 0.65578 0.91257 0.0
C2073 C 0.61895 0.67909 0.91554 0.0
C2074 C 0.63748 0.68942 0.92098 0.0
C2075 C 0.64851 0.68142 0.92007 0.0
C2076 C 0.64561 0.70851 0.9277 0.0
C2077 C 0.6067 0.68725 0.91442 0.0
C2078 C 0.6614 0.7224 0.91894 0.0
C2079 C 0.66878 0.74045 0.92501 0.0
C2080 C 0.66036 0.74488 0.93974 0.0
C2081 C 0.6448 0.73096 0.94873 0.0
C2082 C 0.63765 0.71289 0.94296 0.0
H2083 H 0.59539 0.67972 0.90404 0.0
H2084 H 0.60053 0.68632 0.92873 0.0
H2085 H 0.61437 0.70178 0.91001 0.0
H2086 H 0.66784 0.71932 0.90722 0.0
H2087 H 0.6808 0.75102 0.91789 0.0
H2088 H 0.26302 0.90367 0.96941 0.0
H2089 H 0.29551 0.9222 0.96197 0.0
H2090 H 0.28262 0.94592 0.91379 0.0
H2091 H 0.25021 0.9281 0.92204 0.0
H2092 H 0.31272 0.92105 0.93267 0.0
H2093 H 0.3233 0.99083 0.9359 0.0
H2094 H 0.30265 0.97131 0.94436 0.0
H2095 H 0.30563 0.97708 0.91916 0.0
C2096 C 0.26725 0.91304 0.9574 0.0
C2097 C 0.2543 0.91459 0.9463 0.0
C2098 C 0.28575 0.92362 0.95315 0.0
C2099 C 0.29159 0.9357 0.93748 0.0
C2100 C 0.27857 0.93718 0.92632 0.0
H2101 H 0.39363 0.96812 0.87946 0.0
H2102 H 0.36174 0.95395 0.88946 0.0
C2103 C 0.26007 0.92692 0.9309 0.0
C2104 C 0.31115 0.94566 0.93208 0.0
H2105 H 0.3465 0.98749 0.91979 0.0
C2106 C 0.32013 0.93562 0.93007 0.0
C2107 C 0.32096 0.96472 0.92896 0.0
C2108 C 0.31267 0.97662 0.93242 0.0
C2109 C 0.3385 0.944 0.92477 0.0
C2110 C 0.34797 0.96284 0.92042 0.0
C2111 C 0.33914 0.97299 0.92279 0.0
C2112 C 0.36706 0.97224 0.91348 0.0
C2113 C 0.34759 0.93257 0.92433 0.0
C2114 C 0.38049 0.98788 0.92292 0.0
C2115 C 0.39861 0.99628 0.91682 0.0
C2116 C 0.40357 0.98901 0.90138 0.0
C2117 C 0.39009 0.9737 0.89163 0.0
C2118 C 0.37194 0.96556 0.89742 0.0
H2119 H 0.34063 0.92061 0.93406 0.0
H2120 H 0.34683 0.92732 0.90955 0.0
H2121 H 0.36212 0.94061 0.92864 0.0
H2122 H 0.37703 0.99335 0.93525 0.0
H2123 H 0.40885 0.00808 0.92453 0.0
H2124 H 0.05261 0.31985 0.97405 0.0
H2125 H 0.03872 0.33665 0.96062 0.0
H2126 H 0.07503 0.35224 0.91194 0.0
H2127 H 0.08861 0.33491 0.92517 0.0
H2128 H 0.0538 0.37173 0.95432 0.0
H2129 H 0.02735 0.33555 0.88515 0.0
H2130 H 0.03548 0.32681 0.90402 0.0
H2131 H 0.05133 0.34425 0.88803 0.0
C2132 C 0.05758 0.32681 0.96045 0.0
C2133 C 0.07171 0.32615 0.95065 0.0
C2134 C 0.04959 0.33635 0.95275 0.0
C2135 C 0.05565 0.34554 0.93515 0.0
C2136 C 0.06977 0.34487 0.92528 0.0
H2137 H 0.03949 0.43501 0.90257 0.0
H2138 H 0.0515 0.41569 0.91274 0.0
C2139 C 0.0776 0.33507 0.93288 0.0
C2140 C 0.04783 0.35662 0.92783 0.0
H2141 H 0.02744 0.36359 0.88894 0.0
C2142 C 0.04795 0.36987 0.94005 0.0
C2143 C 0.03996 0.35403 0.90931 0.0
C2144 C 0.03833 0.33926 0.89594 0.0
C2145 C 0.0406 0.38069 0.93426 0.0
C2146 C 0.03348 0.37868 0.91544 0.0
C2147 C 0.03311 0.36527 0.90328 0.0
C2148 C 0.02634 0.39035 0.90818 0.0
C2149 C 0.04022 0.39391 0.94854 0.0
C2150 C 0.0084 0.38254 0.90139 0.0
C2151 C 0.00152 0.39359 0.89506 0.0
C2152 C 0.01246 0.41272 0.89545 0.0
C2153 C 0.03058 0.42042 0.90192 0.0
C2154 C 0.03746 0.40936 0.90802 0.0
H2155 H 0.04084 0.38984 0.96359 0.0
H2156 H 0.05225 0.40761 0.94618 0.0
H2157 H 0.02774 0.39493 0.94686 0.0
H2158 H -0.00038 0.36788 0.90119 0.0
H2159 H 0.98766 0.38707 0.88983 0.0
H2160 H 0.5847 0.57748 0.5975 0.0
H2161 H 0.61519 0.59067 0.58331 0.0
H2162 H 0.6387 0.62088 0.6355 0.0
H2163 H 0.60847 0.60783 0.64969 0.0
H2164 H 0.6404 0.62677 0.5768 0.0
H2165 H 0.66891 0.59652 0.62679 0.0
H2166 H 0.64482 0.58852 0.62523 0.0
H2167 H 0.6595 0.6086 0.63896 0.0
C2168 C 0.59638 0.58693 0.60592 0.0
C2169 C 0.59416 0.59145 0.6248 0.0
C2170 C 0.61378 0.59439 0.59784 0.0
C2171 C 0.62924 0.60643 0.60852 0.0
C2172 C 0.62702 0.61118 0.62722 0.0
H2173 H 0.7439 0.6777 0.58693 0.0
H2174 H 0.71329 0.66049 0.60067 0.0
C2175 C 0.6097 0.60371 0.63531 0.0
C2176 C 0.64767 0.61472 0.59991 0.0
H2177 H 0.6903 0.62097 0.60701 0.0
C2178 C 0.65126 0.62534 0.58327 0.0
C2179 C 0.66182 0.61285 0.60842 0.0
C2180 C 0.65855 0.60086 0.62573 0.0
C2181 C 0.66878 0.6346 0.57523 0.0
C2182 C 0.68298 0.63301 0.58396 0.0
C2183 C 0.67937 0.62221 0.60045 0.0
C2184 C 0.70172 0.64258 0.57618 0.0
C2185 C 0.6721 0.64642 0.55776 0.0
C2186 C 0.7054 0.63784 0.55812 0.0
C2187 C 0.72287 0.64754 0.5503 0.0
C2188 C 0.73702 0.66218 0.56039 0.0
C2189 C 0.7334 0.66646 0.57881 0.0
C2190 C 0.71589 0.6567 0.58665 0.0
H2191 H 0.66075 0.64915 0.55517 0.0
H2192 H 0.68496 0.65963 0.55933 0.0
H2193 H 0.67343 0.63942 0.5449 0.0
H2194 H 0.6947 0.62674 0.54999 0.0
H2195 H 0.72526 0.6436 0.53628 0.0
H2196 H 0.39409 0.98402 0.58274 0.0
H2197 H 0.37565 0.9981 0.57481 0.0
H2198 H 0.40471 0.03951 0.61771 0.0
H2199 H 0.42367 0.02599 0.62481 0.0
H2200 H 0.35279 0.00463 0.59348 0.0
H2201 H 0.4116 0.07087 0.57257 0.0
H2202 H 0.4138 0.05116 0.57729 0.0
H2203 H 0.41401 0.06527 0.59682 0.0
C2204 C 0.39644 0.99613 0.5904 0.0
C2205 C 0.4104 0.00416 0.60414 0.0
C2206 C 0.38596 0.00416 0.5859 0.0
C2207 C 0.38913 0.02018 0.59529 0.0
C2208 C 0.40246 0.02759 0.60975 0.0
H2209 H 0.31621 0.0644 0.59915 0.0
H2210 H 0.33099 0.04611 0.60404 0.0
C2211 C 0.41321 0.01983 0.61389 0.0
C2212 C 0.37864 0.02924 0.58994 0.0
H2213 H 0.38368 0.07058 0.57834 0.0
C2214 C 0.35953 0.01901 0.58996 0.0
C2215 C 0.38741 0.04791 0.58489 0.0
C2216 C 0.40782 0.05936 0.58267 0.0
C2217 C 0.34895 0.02706 0.58558 0.0
C2218 C 0.35774 0.04602 0.58184 0.0
C2219 C 0.37686 0.0561 0.58141 0.0
C2220 C 0.34762 0.05586 0.57832 0.0
C2221 C 0.32852 0.01504 0.58463 0.0
C2222 C 0.35229 0.06775 0.56256 0.0
C2223 C 0.34436 0.07862 0.56025 0.0
C2224 C 0.33133 0.0775 0.5734 0.0
C2225 C 0.32612 0.06522 0.58878 0.0
C2226 C 0.33444 0.05469 0.59143 0.0
H2227 H 0.32459 0.00077 0.58103 0.0
H2228 H 0.32261 0.01488 0.59891 0.0
H2229 H 0.32243 0.02002 0.57377 0.0
H2230 H 0.36239 0.06893 0.55223 0.0
H2231 H 0.34845 0.088 0.54826 0.0
H2232 H 0.01294 0.41103 0.58073 0.0
H2233 H 0.99802 0.37846 0.57288 0.0
H2234 H 0.95914 0.36692 0.61842 0.0
H2235 H 0.97348 0.39952 0.62548 0.0
H2236 H 0.99219 0.34916 0.59104 0.0
H2237 H 0.92521 0.34238 0.5751 0.0
H2238 H 0.94528 0.3642 0.57908 0.0
H2239 H 0.93226 0.35033 0.59916 0.0
C2240 C 0.0012 0.40146 0.58899 0.0
C2241 C 0.99413 0.40767 0.60349 0.0
C2242 C 0.99269 0.3829 0.58454 0.0
C2243 C 0.97714 0.37026 0.59472 0.0
C2244 C 0.97067 0.37644 0.60987 0.0
H2245 H 0.93215 0.25253 0.59461 0.0
H2246 H 0.95061 0.2854 0.60073 0.0
C2247 C 0.97891 0.39501 0.614 0.0
C2248 C 0.9676 0.35066 0.58943 0.0
H2249 H 0.92564 0.31467 0.57906 0.0
C2250 C 0.97766 0.34163 0.58824 0.0
C2251 C 0.9487 0.34091 0.58536 0.0
C2252 C 0.9373 0.35001 0.58452 0.0
C2253 C 0.9693 0.32307 0.58345 0.0
C2254 C 0.95022 0.31308 0.58053 0.0
C2255 C 0.94024 0.32221 0.58147 0.0
C2256 C 0.94015 0.29323 0.57629 0.0
C2257 C 0.98114 0.31456 0.58112 0.0
C2258 C 0.9278 0.28659 0.56084 0.0
C2259 C 0.91687 0.26789 0.55784 0.0
C2260 C 0.91834 0.25548 0.56995 0.0
C2261 C 0.93105 0.26198 0.585 0.0
C2262 C 0.94166 0.28073 0.58836 0.0
H2263 H 0.99533 0.32493 0.57727 0.0
H2264 H 0.98166 0.30832 0.59497 0.0
H2265 H 0.97573 0.30383 0.56987 0.0
H2266 H 0.92636 0.29589 0.5513 0.0
H2267 H 0.90716 0.26306 0.54611 0.0
H2268 H 0.92718 0.64884 0.76087 0.0
H2269 H 0.95983 0.66263 0.7545 0.0
H2270 H 0.97045 0.70797 0.79119 0.0
H2271 H 0.93776 0.69442 0.79711 0.0
H2272 H 0.98786 0.71976 0.75868 0.0
H2273 H 0.00082 0.66612 0.78616 0.0
H2274 H 0.98288 0.65715 0.76867 0.0
H2275 H 0.9799 0.6661 0.79102 0.0
C2276 C 0.93654 0.66161 0.76777 0.0
C2277 C 0.93 0.6706 0.77944 0.0
C2278 C 0.95519 0.66943 0.76423 0.0
C2279 C 0.96764 0.68619 0.77265 0.0
C2280 C 0.96111 0.69501 0.78459 0.0
H2281 H 0.08498 0.72957 0.75783 0.0
H2282 H 0.05503 0.7182 0.77251 0.0
C2283 C 0.94246 0.68732 0.7879 0.0
C2284 C 0.98728 0.69517 0.76783 0.0
H2285 H 0.02331 0.68791 0.76443 0.0
C2286 C 0.99567 0.71287 0.7602 0.0
C2287 C 0.99761 0.68636 0.77014 0.0
C2288 C 0.98988 0.66797 0.77965 0.0
C2289 C 0.01383 0.72169 0.75405 0.0
C2290 C 0.02371 0.71233 0.755 0.0
C2291 C 0.01563 0.69497 0.76343 0.0
C2292 C 0.04207 0.71991 0.74641 0.0
C2293 C 0.02222 0.74094 0.74659 0.0
C2294 C 0.04469 0.72453 0.72686 0.0
C2295 C 0.06181 0.73129 0.71849 0.0
C2296 C 0.07668 0.73328 0.72941 0.0
C2297 C 0.07397 0.7285 0.74901 0.0
C2298 C 0.05682 0.72186 0.75742 0.0
H2299 H 0.01547 0.74811 0.75287 0.0
H2300 H 0.037 0.74893 0.74986 0.0
H2301 H 0.02041 0.74061 0.73076 0.0
H2302 H 0.03342 0.72273 0.71796 0.0
H2303 H 0.06332 0.73498 0.70345 0.0
H2304 H 0.34717 0.26931 0.76121 0.0
H2305 H 0.33406 0.2878 0.75023 0.0
H2306 H 0.29702 0.26883 0.79844 0.0
H2307 H 0.30955 0.24973 0.80877 0.0
H2308 H 0.27923 0.26554 0.76743 0.0
H2309 H 0.3394 0.33493 0.7676 0.0
H2310 H 0.343 0.3196 0.75298 0.0
H2311 H 0.33974 0.3158 0.77852 0.0
C2312 C 0.33641 0.26937 0.76953 0.0
C2313 C 0.32926 0.25814 0.78575 0.0
C2314 C 0.32901 0.28 0.76337 0.0
C2315 C 0.31472 0.27994 0.77367 0.0
C2316 C 0.30802 0.26911 0.79024 0.0
H2317 H 0.26978 0.35114 0.75336 0.0
H2318 H 0.28755 0.33748 0.76515 0.0
C2319 C 0.31513 0.2582 0.79613 0.0
C2320 C 0.30563 0.28984 0.76639 0.0
H2321 H 0.31311 0.3312 0.75068 0.0
C2322 C 0.28666 0.27995 0.76394 0.0
C2323 C 0.31526 0.30868 0.76203 0.0
C2324 C 0.33544 0.3204 0.76562 0.0
C2325 C 0.27705 0.28826 0.75713 0.0
C2326 C 0.28678 0.30686 0.75178 0.0
C2327 C 0.30572 0.31687 0.75448 0.0
C2328 C 0.27739 0.31612 0.74366 0.0
C2329 C 0.25652 0.27707 0.7562 0.0
C2330 C 0.2663 0.30903 0.72732 0.0
C2331 C 0.25595 0.31659 0.72086 0.0
C2332 C 0.25692 0.33169 0.73028 0.0
C2333 C 0.26887 0.33951 0.74588 0.0
C2334 C 0.27898 0.33171 0.7526 0.0
H2335 H 0.2511 0.26532 0.76626 0.0
H2336 H 0.25016 0.28541 0.75974 0.0
H2337 H 0.25233 0.27155 0.74145 0.0
H2338 H 0.26533 0.29739 0.71981 0.0
H2339 H 0.24704 0.31058 0.70859 0.0
H2340 H 0.75065 0.0622 0.80395 0.0
H2341 H 0.73243 0.03075 0.79268 0.0
H2342 H 0.71111 0.04877 0.74659 0.0
H2343 H 0.72875 0.08022 0.75855 0.0
H2344 H 0.68526 0.01737 0.76025 0.0
H2345 H 0.74652 0.01162 0.74761 0.0
H2346 H 0.74512 0.01689 0.77227 0.0
H2347 H 0.74794 0.03295 0.7537 0.0
C2348 C 0.74197 0.05936 0.79148 0.0
C2349 C 0.74118 0.07352 0.78195 0.0
C2350 C 0.73168 0.04145 0.78497 0.0
C2351 C 0.72086 0.03747 0.7684 0.0
C2352 C 0.7195 0.05155 0.75929 0.0
H2353 H 0.68742 0.93499 0.70951 0.0
H2354 H 0.70082 0.96732 0.71751 0.0
C2355 C 0.72952 0.06945 0.7661 0.0
C2356 C 0.71131 0.01869 0.76048 0.0
H2357 H 0.71807 0.98374 0.74748 0.0
C2358 C 0.69244 0.01005 0.75727 0.0
C2359 C 0.72073 0.00928 0.75611 0.0
C2360 C 0.74122 0.01825 0.75739 0.0
C2361 C 0.68268 0.99207 0.75036 0.0
C2362 C 0.69194 0.98226 0.74727 0.0
C2363 C 0.71087 0.99111 0.75004 0.0
C2364 C 0.68247 0.96283 0.74124 0.0
C2365 C 0.66264 0.984 0.74612 0.0
C2366 C 0.66755 0.9495 0.75172 0.0
C2367 C 0.65964 0.93109 0.7468 0.0
C2368 C 0.66689 0.92567 0.73174 0.0
C2369 C 0.68172 0.93893 0.72124 0.0
C2370 C 0.68933 0.95735 0.72582 0.0
H2371 H 0.65928 0.99478 0.74269 0.0
H2372 H 0.65829 0.97429 0.73389 0.0
H2373 H 0.65466 0.97664 0.75903 0.0
H2374 H 0.66236 0.95324 0.76406 0.0
H2375 H 0.64835 0.921 0.75521 0.0
H2376 H 0.30948 0.06914 0.30722 0.0
H2377 H 0.29588 0.03666 0.29988 0.0
H2378 H 0.33264 0.04984 0.25182 0.0
H2379 H 0.34692 0.08227 0.26004 0.0
H2380 H 0.27764 0.0194 0.27069 0.0
H2381 H 0.33712 0.00929 0.27374 0.0
H2382 H 0.33815 0.0299 0.28218 0.0
H2383 H 0.34086 0.02688 0.25697 0.0
C2384 C 0.31474 0.06497 0.29528 0.0
C2385 C 0.32919 0.078 0.28418 0.0
C2386 C 0.30702 0.04648 0.29108 0.0
C2387 C 0.31339 0.04071 0.27545 0.0
C2388 C 0.32786 0.05383 0.26432 0.0
H2389 H 0.24346 0.93811 0.2183 0.0
H2390 H 0.26148 0.97016 0.22774 0.0
C2391 C 0.33591 0.07233 0.26887 0.0
C2392 C 0.3039 0.02115 0.27002 0.0
H2393 H 0.31056 0.98592 0.25776 0.0
C2394 C 0.28487 0.01206 0.26808 0.0
C2395 C 0.31323 0.01143 0.26687 0.0
C2396 C 0.33344 0.01984 0.27026 0.0
C2397 C 0.27494 0.99365 0.26286 0.0
C2398 C 0.28437 0.98426 0.2585 0.0
C2399 C 0.30337 0.99321 0.26077 0.0
C2400 C 0.27471 0.96511 0.2517 0.0
C2401 C 0.2544 0.98444 0.26257 0.0
C2402 C 0.27701 0.95178 0.26124 0.0
C2403 C 0.26713 0.93357 0.25543 0.0
C2404 C 0.25465 0.92843 0.24021 0.0
C2405 C 0.25279 0.94182 0.2303 0.0
C2406 C 0.26297 0.96005 0.23578 0.0
H2407 H 0.2494 0.9914 0.27229 0.0
H2408 H 0.24978 0.98506 0.24781 0.0
H2409 H 0.24801 0.96994 0.26699 0.0
H2410 H 0.28609 0.95539 0.27346 0.0
H2411 H 0.26871 0.9234 0.26324 0.0
H2412 H 0.05439 0.31217 0.20329 0.0
H2413 H 0.026 0.29522 0.22093 0.0
H2414 H 0.0534 0.32194 0.27347 0.0
H2415 H 0.08182 0.33981 0.25563 0.0
H2416 H 0.01543 0.27166 0.25018 0.0
H2417 H 0.01248 0.33329 0.27183 0.0
H2418 H 0.02878 0.33417 0.25461 0.0
H2419 H 0.03229 0.33269 0.27989 0.0
C2420 C 0.05442 0.31461 0.21856 0.0
C2421 C 0.07035 0.32768 0.22793 0.0
C2422 C 0.03818 0.30475 0.22868 0.0
C2423 C 0.03748 0.30758 0.24845 0.0
C2424 C 0.05354 0.31986 0.25812 0.0
H2425 H 0.93365 0.23411 0.30614 0.0
H2426 H 0.96622 0.25075 0.29849 0.0
C2427 C 0.06984 0.32991 0.24793 0.0
C2428 C 0.01968 0.29797 0.25847 0.0
H2429 H 0.98802 0.30493 0.28127 0.0
C2430 C 0.00947 0.2789 0.25714 0.0
C2431 C 0.01189 0.3075 0.26735 0.0
C2432 C 0.02182 0.32804 0.26841 0.0
C2433 C 0.99147 0.26912 0.26381 0.0
C2434 C 0.98366 0.27866 0.27265 0.0
C2435 C 0.99408 0.29767 0.27457 0.0
C2436 C 0.96427 0.26936 0.2786 0.0
C2437 C 0.98073 0.24882 0.26038 0.0
C2438 C 0.95251 0.27481 0.27066 0.0
C2439 C 0.93401 0.26555 0.27529 0.0
C2440 C 0.92691 0.25056 0.28782 0.0
C2441 C 0.93876 0.24542 0.29617 0.0
C2442 C 0.95732 0.25487 0.29176 0.0
H2443 H 0.98714 0.24446 0.24923 0.0
H2444 H 0.98011 0.2416 0.27391 0.0
H2445 H 0.96658 0.24446 0.2558 0.0
H2446 H 0.95758 0.28598 0.2605 0.0
H2447 H 0.92515 0.26971 0.26858 0.0
H2448 H 0.76501 0.69807 0.27118 0.0
H2449 H 0.74642 0.71149 0.26289 0.0
H2450 H 0.69782 0.66089 0.27646 0.0
H2451 H 0.71634 0.6476 0.28593 0.0
H2452 H 0.72226 0.70193 0.23506 0.0
H2453 H 0.68792 0.69654 0.30446 0.0
H2454 H 0.70712 0.69295 0.30241 0.0
H2455 H 0.68457 0.67499 0.2963 0.0
C2456 C 0.75041 0.68983 0.27283 0.0
C2457 C 0.74227 0.67169 0.27934 0.0
C2458 C 0.73977 0.69753 0.26793 0.0
C2459 C 0.72074 0.68731 0.26933 0.0
C2460 C 0.71251 0.66919 0.2757 0.0
H2461 H 0.64665 0.70864 0.20486 0.0
H2462 H 0.66515 0.6967 0.21841 0.0
C2463 C 0.72315 0.66151 0.28081 0.0
C2464 C 0.70956 0.69532 0.26298 0.0
H2465 H 0.67561 0.70343 0.27683 0.0
C2466 C 0.71216 0.70237 0.24426 0.0
C2467 C 0.69658 0.69616 0.27508 0.0
C2468 C 0.694 0.68993 0.29575 0.0
C2469 C 0.70188 0.70987 0.23715 0.0
C2470 C 0.68823 0.70982 0.24888 0.0
C2471 C 0.68592 0.70321 0.26778 0.0
C2472 C 0.67608 0.71633 0.24159 0.0
C2473 C 0.70593 0.71798 0.21719 0.0
C2474 C 0.67542 0.73079 0.25067 0.0
C2475 C 0.66466 0.73752 0.24305 0.0
C2476 C 0.65449 0.72992 0.2262 0.0
C2477 C 0.65469 0.71503 0.21759 0.0
C2478 C 0.66526 0.70821 0.2253 0.0
H2479 H 0.71999 0.72195 0.21262 0.0
H2480 H 0.69635 0.70769 0.20682 0.0
H2481 H 0.70428 0.73016 0.2164 0.0
H2482 H 0.68357 0.73715 0.26336 0.0
H2483 H 0.66475 0.74901 0.24994 0.0
H2484 H 0.31961 0.18203 0.10046 0.0
H2485 H 0.33459 0.17987 0.12983 0.0
H2486 H 0.30372 0.19755 0.16369 0.0
H2487 H 0.2888 0.19978 0.13469 0.0
H2488 H 0.35457 0.20792 0.16084 0.0
H2489 H 0.29142 0.14637 0.18575 0.0
H2490 H 0.29491 0.15379 0.16099 0.0
H2491 H 0.28908 0.16549 0.17862 0.0
C2492 C 0.3162 0.18567 0.11414 0.0
C2493 C 0.30289 0.19092 0.11524 0.0
C2494 C 0.32474 0.18441 0.13088 0.0
C2495 C 0.32002 0.18828 0.14893 0.0
C2496 C 0.30734 0.19424 0.14994 0.0
H2497 H 0.34545 0.17087 0.26668 0.0
H2498 H 0.33347 0.1795 0.23885 0.0
C2499 C 0.29886 0.19555 0.13329 0.0
C2500 C 0.3278 0.1855 0.16685 0.0
H2501 H 0.31649 0.15874 0.20696 0.0
C2502 C 0.34629 0.19716 0.17092 0.0
C2503 C 0.31687 0.17159 0.18007 0.0
C2504 C 0.29699 0.15847 0.17618 0.0
C2505 C 0.35417 0.19531 0.18795 0.0
C2506 C 0.34333 0.18113 0.20101 0.0
C2507 C 0.32477 0.16964 0.19701 0.0
C2508 C 0.35124 0.17713 0.21814 0.0
C2509 C 0.37397 0.20871 0.19188 0.0
C2510 C 0.36506 0.17283 0.21574 0.0
C2511 C 0.3719 0.16798 0.2315 0.0
C2512 C 0.36495 0.1671 0.25009 0.0
C2513 C 0.35114 0.1715 0.25257 0.0
C2514 C 0.34429 0.1764 0.23669 0.0
H2515 H 0.37852 0.2218 0.18425 0.0
H2516 H 0.37656 0.21151 0.20751 0.0
H2517 H 0.3824 0.20295 0.18663 0.0
H2518 H 0.37032 0.1728 0.20155 0.0
H2519 H 0.38247 0.1646 0.22898 0.0
H2520 H 0.82441 0.15057 0.094 0.0
H2521 H 0.82868 0.16832 0.12353 0.0
H2522 H 0.80828 0.11934 0.15735 0.0
H2523 H 0.80403 0.10166 0.12831 0.0
H2524 H 0.80191 0.16264 0.15435 0.0
H2525 H 0.85981 0.15487 0.17974 0.0
H2526 H 0.8523 0.15123 0.15501 0.0
H2527 H 0.8398 0.13407 0.17278 0.0
C2528 C 0.82073 0.14361 0.10773 0.0
C2529 C 0.81406 0.12475 0.10881 0.0
C2530 C 0.82318 0.15374 0.12455 0.0
C2531 C 0.81907 0.14514 0.14261 0.0
C2532 C 0.81183 0.12627 0.14359 0.0
H2533 H 0.83357 0.18162 0.26219 0.0
H2534 H 0.82518 0.16294 0.23283 0.0
C2535 C 0.80938 0.11619 0.12691 0.0
C2536 C 0.82257 0.15573 0.1606 0.0
H2537 H 0.84789 0.1675 0.2018 0.0
C2538 C 0.81203 0.16383 0.1647 0.0
C2539 C 0.83564 0.15704 0.17413 0.0
C2540 C 0.84767 0.14898 0.1702 0.0
C2541 C 0.81405 0.17303 0.18214 0.0
C2542 C 0.82722 0.17444 0.19563 0.0
C2543 C 0.83771 0.16628 0.19152 0.0
C2544 C 0.83115 0.1853 0.21354 0.0
C2545 C 0.80185 0.18087 0.1861 0.0
C2546 C 0.83737 0.204 0.2124 0.0
C2547 C 0.84212 0.2146 0.22901 0.0
C2548 C 0.84091 0.2068 0.2472 0.0
C2549 C 0.83457 0.18801 0.2484 0.0
C2550 C 0.82981 0.17735 0.23167 0.0
H2551 H 0.78913 0.17396 0.17746 0.0
H2552 H 0.79816 0.1797 0.20156 0.0
H2553 H 0.80911 0.19552 0.18215 0.0
H2554 H 0.83895 0.21052 0.19858 0.0
H2555 H 0.84701 0.22904 0.2275 0.0
H2556 H 0.77662 0.61127 0.22715 0.0
H2557 H 0.79365 0.62479 0.19773 0.0
H2558 H 0.82916 0.67429 0.22849 0.0
H2559 H 0.81217 0.66064 0.25831 0.0
H2560 H 0.79643 0.65539 0.1805 0.0
H2561 H 0.86487 0.66525 0.19727 0.0
H2562 H 0.84492 0.65047 0.21127 0.0
H2563 H 0.8562 0.67473 0.21457 0.0
C2564 C 0.78825 0.62495 0.22778 0.0
C2565 C 0.79305 0.63493 0.24504 0.0
C2566 C 0.79794 0.63265 0.21092 0.0
C2567 C 0.81267 0.65052 0.21089 0.0
C2568 C 0.81799 0.66037 0.22825 0.0
H2569 H 0.88105 0.72148 0.12041 0.0
H2570 H 0.86448 0.70831 0.15016 0.0
C2571 C 0.8083 0.65258 0.24526 0.0
C2572 C 0.82152 0.65904 0.19237 0.0
H2573 H 0.86183 0.67779 0.16802 0.0
C2574 C 0.81073 0.66025 0.17774 0.0
C2575 C 0.84015 0.66536 0.18882 0.0
C2576 C 0.85222 0.66378 0.20372 0.0
C2577 C 0.81811 0.66781 0.15972 0.0
C2578 C 0.83672 0.67408 0.15615 0.0
C2579 C 0.84753 0.67293 0.17079 0.0
C2580 C 0.84546 0.68232 0.13751 0.0
C2581 C 0.80603 0.66937 0.14481 0.0
C2582 C 0.84002 0.67218 0.12035 0.0
C2583 C 0.84946 0.67974 0.10316 0.0
C2584 C 0.86457 0.69748 0.10298 0.0
C2585 C 0.86952 0.70774 0.12007 0.0
C2586 C 0.8601 0.70023 0.13713 0.0
H2587 H 0.79342 0.668 0.15128 0.0
H2588 H 0.81335 0.68263 0.13717 0.0
H2589 H 0.80197 0.65835 0.13403 0.0
H2590 H 0.82891 0.65822 0.12038 0.0
H2591 H 0.84546 0.67146 0.09027 0.0
H2592 H 0.15525 0.26965 0.38548 0.0
H2593 H 0.15069 0.28125 0.35519 0.0
H2594 H 0.1599 0.3303 0.38375 0.0
H2595 H 0.16479 0.31881 0.41434 0.0
H2596 H 0.12664 0.29259 0.34325 0.0
H2597 H 0.19836 0.34919 0.34084 0.0
H2598 H 0.19068 0.33044 0.3575 0.0
H2599 H 0.18615 0.34866 0.36215 0.0
C2600 C 0.15616 0.28286 0.38543 0.0
C2601 C 0.16057 0.2934 0.40231 0.0
C2602 C 0.15351 0.28945 0.36805 0.0
C2603 C 0.1553 0.30677 0.3671 0.0
C2604 C 0.15881 0.31702 0.3841 0.0
H2605 H 0.15046 0.37472 0.28019 0.0
H2606 H 0.15323 0.3598 0.30865 0.0
C2607 C 0.16143 0.31038 0.4016 0.0
C2608 C 0.15414 0.31421 0.34812 0.0
H2609 H 0.17868 0.34872 0.3164 0.0
C2610 C 0.13803 0.30482 0.33732 0.0
C2611 C 0.16912 0.33001 0.34028 0.0
C2612 C 0.18713 0.3401 0.35067 0.0
C2613 C 0.13627 0.3112 0.31922 0.0
C2614 C 0.15111 0.32722 0.3116 0.0
C2615 C 0.16733 0.33638 0.32223 0.0
C2616 C 0.14953 0.33585 0.29366 0.0
C2617 C 0.11835 0.30114 0.30867 0.0
C2618 C 0.14672 0.32743 0.27554 0.0
C2619 C 0.14512 0.33603 0.25894 0.0
C2620 C 0.14626 0.35313 0.26034 0.0
C2621 C 0.14936 0.3615 0.2785 0.0
C2622 C 0.151 0.35301 0.29488 0.0
H2623 H 0.10736 0.29073 0.31788 0.0
H2624 H 0.11408 0.31081 0.30343 0.0
H2625 H 0.11997 0.29415 0.29598 0.0
H2626 H 0.14581 0.31427 0.27424 0.0
H2627 H 0.14278 0.32926 0.24517 0.0
H2628 H 0.71035 0.88779 0.38642 0.0
H2629 H 0.69835 0.86877 0.35795 0.0
H2630 H 0.66266 0.82293 0.39347 0.0
H2631 H 0.67443 0.84215 0.42231 0.0
H2632 H 0.69789 0.83756 0.3469 0.0
H2633 H 0.6275 0.8254 0.3552 0.0
H2634 H 0.6464 0.84233 0.36906 0.0
H2635 H 0.63585 0.81866 0.37551 0.0
C2636 C 0.69995 0.87365 0.38829 0.0
C2637 C 0.69322 0.86653 0.40668 0.0
C2638 C 0.69314 0.86278 0.37193 0.0
C2639 C 0.67942 0.84451 0.37351 0.0
C2640 C 0.673 0.83712 0.39188 0.0
H2641 H 0.61896 0.76075 0.28972 0.0
H2642 H 0.63334 0.77869 0.31836 0.0
C2643 C 0.67981 0.84806 0.40835 0.0
C2644 C 0.67178 0.8335 0.35576 0.0
H2645 H 0.63266 0.81024 0.32956 0.0
C2646 C 0.68363 0.83157 0.3431 0.0
C2647 C 0.6532 0.82587 0.35073 0.0
C2648 C 0.64 0.82827 0.36322 0.0
C2649 C 0.67733 0.82197 0.3257 0.0
C2650 C 0.65876 0.81428 0.32074 0.0
C2651 C 0.64692 0.8162 0.3334 0.0
C2652 C 0.65104 0.80349 0.30292 0.0
C2653 C 0.6905 0.8198 0.31293 0.0
C2654 C 0.6563 0.81147 0.28459 0.0
C2655 C 0.64804 0.80118 0.26799 0.0
C2656 C 0.63435 0.7828 0.26954 0.0
C2657 C 0.6294 0.77488 0.28793 0.0
C2658 C 0.6376 0.78511 0.30439 0.0
H2659 H 0.70335 0.82328 0.32056 0.0
H2660 H 0.68428 0.80562 0.30747 0.0
H2661 H 0.69395 0.82901 0.30036 0.0
H2662 H 0.66648 0.82573 0.28316 0.0
H2663 H 0.65209 0.80768 0.25405 0.0
H2664 H 0.10979 0.82897 0.39672 0.0
H2665 H 0.12732 0.83313 0.36759 0.0
H2666 H 0.16721 0.82705 0.40024 0.0
H2667 H 0.14941 0.82256 0.42975 0.0
H2668 H 0.16277 0.85857 0.35777 0.0
H2669 H 0.15216 0.78831 0.35782 0.0
H2670 H 0.13928 0.79499 0.37306 0.0
H2671 H 0.16227 0.80134 0.37926 0.0
C2672 C 0.12234 0.82859 0.39782 0.0
C2673 C 0.12814 0.82528 0.41556 0.0
C2674 C 0.13237 0.83101 0.3811 0.0
C2675 C 0.1484 0.83009 0.38165 0.0
C2676 C 0.15467 0.82746 0.39944 0.0
H2677 H 0.22312 0.83791 0.29312 0.0
H2678 H 0.20584 0.83349 0.32254 0.0
C2679 C 0.1446 0.82507 0.4163 0.0
C2680 C 0.15817 0.83161 0.36339 0.0
H2681 H 0.17038 0.80792 0.33293 0.0
C2682 C 0.16445 0.8475 0.35233 0.0
C2683 C 0.1602 0.81709 0.35625 0.0
C2684 C 0.15301 0.79939 0.36709 0.0
C2685 C 0.17296 0.84939 0.33447 0.0
C2686 C 0.17494 0.83486 0.3273 0.0
C2687 C 0.16871 0.81899 0.33838 0.0
C2688 C 0.18447 0.83631 0.30889 0.0
C2689 C 0.18014 0.8671 0.32363 0.0
C2690 C 0.17792 0.83886 0.29124 0.0
C2691 C 0.18783 0.84139 0.27423 0.0
C2692 C 0.20441 0.84142 0.27468 0.0
C2693 C 0.21047 0.83812 0.29227 0.0
C2694 C 0.20059 0.83555 0.30914 0.0
H2695 H 0.18112 0.87821 0.33295 0.0
H2696 H 0.19381 0.87143 0.31752 0.0
H2697 H 0.17079 0.86519 0.31156 0.0
H2698 H 0.16531 0.83916 0.29068 0.0
H2699 H 0.18282 0.84389 0.26091 0.0
H2700 H 0.60899 0.83422 0.7874 0.0
H2701 H 0.62275 0.83186 0.81725 0.0
H2702 H 0.67104 0.84218 0.78629 0.0
H2703 H 0.65732 0.84474 0.75611 0.0
H2704 H 0.63678 0.8091 0.82818 0.0
H2705 H 0.68972 0.88252 0.8281 0.0
H2706 H 0.66994 0.87334 0.8127 0.0
H2707 H 0.68865 0.86995 0.80684 0.0
C2708 C 0.62249 0.83583 0.78685 0.0
C2709 C 0.63215 0.83981 0.76942 0.0
C2710 C 0.63031 0.83446 0.80395 0.0
C2711 C 0.64801 0.83716 0.80403 0.0
C2712 C 0.65746 0.84035 0.78655 0.0
H2713 H 0.71947 0.84037 0.89334 0.0
H2714 H 0.70539 0.8432 0.86402 0.0
C2715 C 0.64956 0.84164 0.76932 0.0
C2716 C 0.65658 0.83716 0.82262 0.0
H2717 H 0.69075 0.86455 0.85349 0.0
C2718 C 0.64858 0.82121 0.83374 0.0
C2719 C 0.67185 0.85304 0.82989 0.0
C2720 C 0.68051 0.87076 0.81889 0.0
C2721 C 0.65571 0.82058 0.85178 0.0
C2722 C 0.671 0.83647 0.85906 0.0
C2723 C 0.67895 0.85244 0.84795 0.0
C2724 C 0.67978 0.8364 0.8775 0.0
C2725 C 0.64713 0.80278 0.86263 0.0
C2726 C 0.67029 0.8323 0.89505 0.0
C2727 C 0.67835 0.83066 0.91199 0.0
C2728 C 0.69602 0.83313 0.91154 0.0
C2729 C 0.70578 0.83822 0.89414 0.0
C2730 C 0.69776 0.83988 0.87734 0.0
H2731 H 0.63819 0.79104 0.85325 0.0
H2732 H 0.65773 0.80032 0.86899 0.0
H2733 H 0.63869 0.80332 0.87452 0.0
H2734 H 0.65651 0.82994 0.89556 0.0
H2735 H 0.67051 0.8267 0.92517 0.0
H2736 H 0.16377 0.8395 0.92698 0.0
H2737 H 0.15704 0.82005 0.8984 0.0
H2738 H 0.16147 0.86364 0.8626 0.0
H2739 H 0.16771 0.8828 0.89079 0.0
H2740 H 0.13263 0.83074 0.85222 0.0
H2741 H 0.19573 0.82653 0.85939 0.0
H2742 H 0.18085 0.81854 0.87986 0.0
H2743 H 0.19185 0.84221 0.87332 0.0
C2744 C 0.16311 0.84482 0.91303 0.0
C2745 C 0.16644 0.86274 0.91116 0.0
C2746 C 0.15941 0.83377 0.8967 0.0
C2747 C 0.15909 0.84053 0.87831 0.0
C2748 C 0.16173 0.85815 0.8766 0.0
H2749 H 0.15299 0.8072 0.7583 0.0
H2750 H 0.15478 0.82373 0.78806 0.0
C2751 C 0.16537 0.86912 0.89279 0.0
C2752 C 0.15655 0.8297 0.86062 0.0
H2753 H 0.17618 0.81051 0.83358 0.0
C2754 C 0.14212 0.82626 0.84816 0.0
C2755 C 0.16906 0.82405 0.85525 0.0
C2756 C 0.18535 0.82813 0.86753 0.0
C2757 C 0.13977 0.81719 0.83056 0.0
C2758 C 0.1523 0.8116 0.82521 0.0
C2759 C 0.16663 0.81489 0.83771 0.0
C2760 C 0.15047 0.80166 0.80703 0.0
C2761 C 0.12376 0.8134 0.81797 0.0
C2762 C 0.14762 0.78393 0.80786 0.0
C2763 C 0.14666 0.77457 0.79103 0.0
C2764 C 0.14865 0.78276 0.77291 0.0
C2765 C 0.15136 0.80052 0.77203 0.0
C2766 C 0.15229 0.80992 0.789 0.0
H2767 H 0.11336 0.81515 0.82589 0.0
H2768 H 0.12859 0.82302 0.80566 0.0
H2769 H 0.11723 0.79934 0.81211 0.0
H2770 H 0.1462 0.77732 0.8216 0.0
H2771 H 0.14452 0.7609 0.79232 0.0
H2772 H 0.22477 0.37666 0.78651 0.0
H2773 H 0.20613 0.36384 0.81502 0.0
H2774 H 0.1591 0.33154 0.77941 0.0
H2775 H 0.17797 0.34418 0.75042 0.0
H2776 H 0.1766 0.36527 0.82764 0.0
H2777 H 0.15875 0.29345 0.81533 0.0
H2778 H 0.17624 0.31215 0.80174 0.0
H2779 H 0.15263 0.30346 0.79607 0.0
C2780 C 0.21046 0.36681 0.7846 0.0
C2781 C 0.20289 0.36138 0.7661 0.0
C2782 C 0.1998 0.35951 0.80101 0.0
C2783 C 0.18126 0.34655 0.79944 0.0
C2784 C 0.17348 0.34127 0.781 0.0
H2785 H 0.09814 0.2881 0.8849 0.0
H2786 H 0.11574 0.30182 0.85591 0.0
C2787 C 0.18423 0.34857 0.76444 0.0
C2788 C 0.17036 0.33881 0.81727 0.0
H2789 H 0.14544 0.2992 0.84232 0.0
C2790 C 0.16979 0.35081 0.83085 0.0
C2791 C 0.16158 0.31997 0.82154 0.0
C2792 C 0.16241 0.30649 0.80801 0.0
C2793 C 0.16052 0.34448 0.84842 0.0
C2794 C 0.15176 0.32566 0.85266 0.0
C2795 C 0.15224 0.31365 0.83907 0.0
C2796 C 0.14131 0.31799 0.87074 0.0
C2797 C 0.15987 0.35793 0.86214 0.0
C2798 C 0.14984 0.32252 0.88886 0.0
C2799 C 0.13974 0.31464 0.90568 0.0
C2800 C 0.12098 0.30206 0.90458 0.0
C2801 C 0.11256 0.29771 0.88637 0.0
C2802 C 0.12261 0.30553 0.8697 0.0
H2803 H 0.16386 0.37115 0.85505 0.0
H2804 H 0.146 0.35238 0.86828 0.0
H2805 H 0.16945 0.36054 0.8742 0.0
H2806 H 0.16434 0.33192 0.88998 0.0
H2807 H 0.14664 0.31821 0.91945 0.0
H2808 H 0.84587 0.6172 0.7203 0.0
H2809 H 0.83821 0.62876 0.69195 0.0
H2810 H 0.82837 0.66461 0.72755 0.0
H2811 H 0.83646 0.65326 0.7563 0.0
H2812 H 0.80696 0.62849 0.68173 0.0
H2813 H 0.86466 0.69947 0.68808 0.0
H2814 H 0.86338 0.68095 0.7021 0.0
H2815 H 0.8501 0.69125 0.70879 0.0
C2816 C 0.84209 0.62755 0.72222 0.0
C2817 C 0.84192 0.63441 0.74061 0.0
C2818 C 0.83766 0.63411 0.70593 0.0
C2819 C 0.83297 0.64773 0.70755 0.0
C2820 C 0.83231 0.65434 0.72592 0.0
H2821 H 0.80576 0.70508 0.62352 0.0
H2822 H 0.81083 0.69192 0.65228 0.0
C2823 C 0.83681 0.64777 0.74234 0.0
C2824 C 0.82899 0.65493 0.68984 0.0
H2825 H 0.84368 0.69346 0.66287 0.0
C2826 C 0.81499 0.6427 0.6776 0.0
C2827 C 0.83958 0.67343 0.68438 0.0
C2828 C 0.85538 0.68704 0.6964 0.0
C2829 C 0.81113 0.64853 0.6602 0.0
C2830 C 0.82169 0.66702 0.6548 0.0
C2831 C 0.83565 0.67926 0.66704 0.0
C2832 C 0.818 0.67422 0.63694 0.0
C2833 C 0.79556 0.63495 0.64792 0.0
C2834 C 0.82032 0.66861 0.61863 0.0
C2835 C 0.81743 0.67618 0.60197 0.0
C2836 C 0.81223 0.6895 0.60341 0.0
C2837 C 0.80978 0.69488 0.6218 0.0
C2838 C 0.81268 0.68738 0.63833 0.0
H2839 H 0.78651 0.62221 0.6559 0.0
H2840 H 0.78731 0.64088 0.64256 0.0
H2841 H 0.80111 0.63136 0.63527 0.0
H2842 H 0.82467 0.65863 0.61725 0.0
H2843 H 0.8195 0.67181 0.58803 0.0
H2844 H 0.33179 0.18373 0.76682 0.0
H2845 H 0.31767 0.16647 0.73715 0.0
H2846 H 0.36902 0.19681 0.70761 0.0
H2847 H 0.38307 0.21375 0.73689 0.0
H2848 H 0.31572 0.18255 0.70228 0.0
H2849 H 0.35259 0.14469 0.69139 0.0
H2850 H 0.35219 0.1546 0.71424 0.0
H2851 H 0.36753 0.16856 0.69559 0.0
C2852 C 0.34011 0.18631 0.75411 0.0
C2853 C 0.35852 0.20005 0.75417 0.0
C2854 C 0.33204 0.17657 0.73716 0.0
C2855 C 0.34235 0.18024 0.7202 0.0
C2856 C 0.36087 0.19348 0.72055 0.0
H2857 H 0.32295 0.14892 0.5992 0.0
H2858 H 0.33599 0.16503 0.62966 0.0
C2859 C 0.36885 0.20323 0.73732 0.0
C2860 C 0.3337 0.17149 0.70164 0.0
H2861 H 0.33695 0.14731 0.66405 0.0
C2862 C 0.3202 0.17466 0.69401 0.0
C2863 C 0.33973 0.1614 0.69075 0.0
C2864 C 0.35369 0.15695 0.69847 0.0
C2865 C 0.31285 0.16836 0.67562 0.0
C2866 C 0.319 0.15841 0.66467 0.0
C2867 C 0.33241 0.15513 0.67235 0.0
C2868 C 0.31088 0.15025 0.64575 0.0
C2869 C 0.29887 0.17275 0.66788 0.0
C2870 C 0.29246 0.13683 0.64465 0.0
C2871 C 0.28506 0.1277 0.6274 0.0
C2872 C 0.29591 0.13173 0.61082 0.0
C2873 C 0.31422 0.14567 0.61168 0.0
C2874 C 0.32169 0.15477 0.62908 0.0
H2875 H 0.29946 0.1846 0.67541 0.0
H2876 H 0.30082 0.17574 0.65223 0.0
H2877 H 0.28506 0.16084 0.67007 0.0
H2878 H 0.28393 0.13289 0.65735 0.0
H2879 H 0.2709 0.11701 0.62723 0.0
H2880 H 0.84572 0.1737 0.59601 0.0
H2881 H 0.82999 0.17119 0.62655 0.0
H2882 H 0.86723 0.15884 0.6561 0.0
H2883 H 0.88298 0.16143 0.62596 0.0
H2884 H 0.81349 0.14229 0.65426 0.0
H2885 H 0.87292 0.20389 0.68476 0.0
H2886 H 0.87082 0.19849 0.65944 0.0
H2887 H 0.87804 0.18704 0.67597 0.0
C2888 C 0.85036 0.1702 0.60899 0.0
C2889 C 0.86569 0.16795 0.60863 0.0
C2890 C 0.84144 0.16886 0.62641 0.0
C2891 C 0.84777 0.16529 0.64363 0.0
C2892 C 0.86244 0.16208 0.64307 0.0
H2893 H 0.81457 0.15376 0.76422 0.0
H2894 H 0.8309 0.15623 0.73409 0.0
C2895 C 0.87135 0.16346 0.62578 0.0
C2896 C 0.83934 0.16517 0.66234 0.0
H2897 H 0.84861 0.18613 0.70622 0.0
C2898 C 0.82112 0.15192 0.66559 0.0
C2899 C 0.8494 0.17771 0.67712 0.0
C2900 C 0.86883 0.1927 0.67415 0.0
C2901 C 0.81273 0.1507 0.68335 0.0
C2902 C 0.82278 0.16326 0.69812 0.0
C2903 C 0.84101 0.17647 0.6949 0.0
C2904 C 0.81421 0.16333 0.71665 0.0
C2905 C 0.79325 0.13582 0.6863 0.0
C2906 C 0.80001 0.16723 0.71687 0.0
C2907 C 0.79079 0.16591 0.73391 0.0
C2908 C 0.79565 0.16073 0.75115 0.0
C2909 C 0.81056 0.1578 0.75117 0.0
C2910 C 0.81982 0.15912 0.73399 0.0
H2911 H 0.78904 0.12468 0.67561 0.0
H2912 H 0.79125 0.12995 0.70097 0.0
H2913 H 0.78415 0.14163 0.68464 0.0
H2914 H 0.79576 0.17091 0.70373 0.0
H2915 H 0.7795 0.16847 0.73344 0.0
H2916 H 0.04956 0.49044 0.54502 0.0
H2917 H 0.0381 0.49777 0.51634 0.0
H2918 H 0.00095 0.50642 0.55101 0.0
H2919 H 0.01253 0.49915 0.58015 0.0
H2920 H 0.00212 0.47894 0.50321 0.0
H2921 H 0.02562 0.55211 0.51632 0.0
H2922 H 0.03471 0.53995 0.52929 0.0
H2923 H 0.01276 0.53682 0.53549 0.0
C2924 C 0.03903 0.49402 0.54668 0.0
C2925 C 0.03193 0.49417 0.56492 0.0
C2926 C 0.03251 0.49821 0.5302 0.0
C2927 C 0.01877 0.50275 0.53152 0.0
C2928 C 0.01177 0.50321 0.54971 0.0
H2929 H 0.95759 0.52476 0.44781 0.0
H2930 H 0.9714 0.52028 0.47639 0.0
C2931 C 0.01834 0.49901 0.56632 0.0
C2932 C 0.01137 0.5061 0.51363 0.0
H2933 H 0.00702 0.53856 0.489 0.0
C2934 C 0.00322 0.49199 0.50006 0.0
C2935 C 0.01289 0.52315 0.50956 0.0
C2936 C 0.02209 0.53897 0.52332 0.0
C2937 C 0.99625 0.49434 0.48265 0.0
C2938 C 0.99779 0.51139 0.47855 0.0
C2939 C 0.00596 0.52553 0.49212 0.0
C2940 C 0.98999 0.51451 0.4608 0.0
C2941 C 0.98684 0.47838 0.46907 0.0
C2942 C 0.99601 0.51297 0.44242 0.0
C2943 C 0.98804 0.51547 0.42587 0.0
C2944 C 0.974 0.51964 0.4275 0.0
C2945 C 0.96831 0.52149 0.44596 0.0
C2946 C 0.97623 0.51899 0.46238 0.0
H2947 H 0.98314 0.46527 0.47625 0.0
H2948 H 0.97429 0.47748 0.46304 0.0
H2949 H 0.99612 0.48024 0.45695 0.0
H2950 H 0.00686 0.50984 0.44088 0.0
H2951 H 0.99278 0.51405 0.41187 0.0
H2952 H 0.50856 0.51892 0.59364 0.0
H2953 H 0.50333 0.50165 0.56361 0.0
H2954 H 0.52447 0.55144 0.53103 0.0
H2955 H 0.52992 0.56866 0.56064 0.0
H2956 H 0.48094 0.49986 0.53302 0.0
H2957 H 0.55215 0.52819 0.50809 0.0
H2958 H 0.54654 0.53073 0.53251 0.0
H2959 H 0.54639 0.54533 0.51384 0.0
C2960 C 0.5123 0.52617 0.58008 0.0
C2961 C 0.51966 0.54515 0.57955 0.0
C2962 C 0.50929 0.51631 0.56295 0.0
C2963 C 0.51378 0.52531 0.5451 0.0
C2964 C 0.52128 0.54425 0.54462 0.0
H2965 H 0.49547 0.48981 0.42461 0.0
H2966 H 0.50335 0.50823 0.4542 0.0
C2967 C 0.52425 0.55406 0.56163 0.0
C2968 C 0.50964 0.51496 0.52682 0.0
H2969 H 0.52883 0.51122 0.48508 0.0
C2970 C 0.49142 0.50224 0.52261 0.0
C2971 C 0.52333 0.51824 0.51315 0.0
C2972 C 0.54322 0.53124 0.51716 0.0
C2973 C 0.48648 0.49287 0.50502 0.0
C2974 C 0.50016 0.49614 0.49137 0.0
C2975 C 0.51837 0.50889 0.49551 0.0
C2976 C 0.49587 0.48543 0.47336 0.0
C2977 C 0.46663 0.47967 0.50106 0.0
C2978 C 0.48943 0.4667 0.47438 0.0
C2979 C 0.48501 0.45627 0.45768 0.0
C2980 C 0.48697 0.46432 0.43949 0.0
C2981 C 0.49375 0.48321 0.4384 0.0
C2982 C 0.49826 0.49372 0.45525 0.0
H2983 H 0.45758 0.48218 0.51057 0.0
H2984 H 0.46317 0.48059 0.48585 0.0
H2985 H 0.46379 0.46558 0.50369 0.0
H2986 H 0.4878 0.46011 0.48818 0.0
H2987 H 0.47995 0.44179 0.45913 0.0
H2988 H 0.52229 0.00836 0.41779 0.0
H2989 H 0.50382 0.9938 0.44664 0.0
H2990 H 0.54983 0.02806 0.48264 0.0
H2991 H 0.56822 0.04254 0.45429 0.0
H2992 H 0.51245 0.97615 0.47984 0.0
H2993 H 0.50737 0.03687 0.50022 0.0
H2994 H 0.51284 0.03326 0.4761 0.0
H2995 H 0.52989 0.04121 0.49461 0.0
C2996 C 0.52846 0.01269 0.43186 0.0
C2997 C 0.54667 0.0267 0.43373 0.0
C2998 C 0.51792 0.00438 0.44829 0.0
C2999 C 0.52544 0.01007 0.46673 0.0
C3000 C 0.54371 0.02367 0.46855 0.0
H3001 H 0.48521 0.98784 0.58464 0.0
H3002 H 0.50452 -0.00075 0.55585 0.0
C3003 C 0.5542 0.03189 0.45227 0.0
C3004 C 0.51435 0.00216 0.48426 0.0
H3005 H 0.49718 0.01313 0.52315 0.0
C3006 C 0.50896 0.98414 0.48927 0.0
C3007 C 0.51006 0.01275 0.49659 0.0
C3008 C 0.51519 0.03206 0.49161 0.0
C3009 C 0.49962 0.97649 0.50652 0.0
C3010 C 0.49526 0.98706 0.51885 0.0
C3011 C 0.50065 0.00509 0.51377 0.0
C3012 C 0.48425 0.97943 0.53655 0.0
C3013 C 0.49486 0.9573 0.51159 0.0
C3014 C 0.4665 0.96457 0.53524 0.0
C3015 C 0.45554 0.95807 0.55156 0.0
C3016 C 0.462 0.96636 0.56958 0.0
C3017 C 0.47988 0.98112 0.57099 0.0
C3018 C 0.49089 0.98765 0.55456 0.0
H3019 H 0.50381 0.95324 0.50401 0.0
H3020 H 0.49597 0.95579 0.52731 0.0
H3021 H 0.48061 0.94775 0.50715 0.0
H3022 H 0.46092 0.95828 0.52146 0.0
H3023 H 0.44182 0.9467 0.54991 0.0
H3024 H 0.49713 0.94331 0.0594 0.0
H3025 H 0.49367 0.95606 0.02938 0.0
H3026 H 0.50647 0.00592 0.05867 0.0
H3027 H 0.51026 0.99325 0.089 0.0
H3028 H 0.47122 0.96975 0.0186 0.0
H3029 H 0.54441 0.0229 0.01515 0.0
H3030 H 0.53587 0.00393 0.03163 0.0
H3031 H 0.53277 0.02299 0.0367 0.0
C3032 C 0.49908 0.95696 0.05956 0.0
C3033 C 0.50414 0.96735 0.07655 0.0
C3034 C 0.49707 0.9642 0.04235 0.0
C3035 C 0.50015 0.98204 0.0417 0.0
C3036 C 0.50438 0.99222 0.05881 0.0
H3037 H 0.49838 0.05003 0.95136 0.0
H3038 H 0.50241 0.0369 0.98081 0.0
C3039 C 0.50636 0.98493 0.07614 0.0
C3040 C 0.49939 0.98994 0.02292 0.0
H3041 H 0.52532 0.02327 0.99057 0.0
C3042 C 0.48304 0.98144 0.01244 0.0
C3043 C 0.51489 0.00506 0.01485 0.0
C3044 C 0.53305 0.0142 0.02504 0.0
C3045 C 0.48166 0.98792 0.99429 0.0
C3046 C 0.49715 0.0031 0.98626 0.0
C3047 C 0.51351 0.01155 0.9967 0.0
C3048 C 0.49624 0.01129 0.96774 0.0
C3049 C 0.46351 0.97879 0.98409 0.0
C3050 C 0.49203 0.00146 0.95039 0.0
C3051 C 0.48974 0.009 0.93337 0.0
C3052 C 0.49161 0.02643 0.93356 0.0
C3053 C 0.4967 0.03649 0.95077 0.0
C3054 C 0.49904 0.02903 0.96764 0.0
H3055 H 0.45218 0.96978 0.99386 0.0
H3056 H 0.46053 0.98909 0.97787 0.0
H3057 H 0.46393 0.97034 0.97213 0.0
H3058 H 0.49014 0.98785 0.9501 0.0
H3059 H 0.48581 0.00093 0.92033 0.0
H3060 H 0.99756 0.48801 0.91538 0.0
H3061 H 0.00963 0.50578 0.94521 0.0
H3062 H 0.97272 0.45878 0.97857 0.0
H3063 H 0.96073 0.44112 0.94928 0.0
H3064 H 0.98981 0.51211 0.97585 0.0
H3065 H 0.02346 0.4742 1.00155 0.0
H3066 H 0.01662 0.47356 0.97684 0.0
H3067 H 2e-05 0.46005 0.99473 0.0
C3068 C 0.99201 0.48154 0.92908 0.0
C3069 C 0.97829 0.46312 0.92993 0.0
C3070 C -0.00108 0.49166 0.94608 0.0
C3071 C 0.99229 0.48345 0.96409 0.0
C3072 C 0.9783 0.46526 0.96486 0.0
H3073 H 0.0145 0.51867 0.08444 0.0
H3074 H 0.00199 0.50067 0.05481 0.0
C3075 C 0.97141 0.45521 0.94802 0.0
C3076 C -0.00033 0.49373 0.98223 0.0
H3077 H 0.02114 0.49409 0.02399 0.0
C3078 C 0.99679 0.50828 0.98632 0.0
C3079 C 0.00857 0.48853 0.99595 0.0
C3080 C 0.01252 0.47333 0.99204 0.0
C3081 C 0.00235 0.51765 1.0039 0.0
C3082 C 0.0113 0.51249 0.0176 0.0
C3083 C 0.01415 0.4979 0.01353 0.0
C3084 C 0.01889 0.52292 0.03563 0.0
C3085 C 0.99836 0.53281 0.00781 0.0
C3086 C 0.03278 0.54114 0.03462 0.0
C3087 C 0.03991 0.55131 0.05133 0.0
C3088 C 0.03339 0.54351 0.06955 0.0
C3089 C 0.01976 0.52507 0.07064 0.0
C3090 C 0.01261 0.51481 0.05376 0.0
H3091 H 0.98723 0.53176 0.99849 0.0
H3092 H 0.9945 0.53274 0.02309 0.0
H3093 H 0.01075 0.5461 1.00484 0.0
H3094 H 0.03811 0.54754 0.02082 0.0
H3095 H 0.05051 0.56542 0.04989 0.0
H3096 H 0.44338 0.49428 0.05518 0.0
H3097 H 0.46158 0.49922 0.02635 0.0
H3098 H 0.50134 0.49347 0.05964 0.0
H3099 H 0.48293 0.48824 0.08878 0.0
H3100 H 0.49764 0.52501 0.01714 0.0
H3101 H 0.48603 0.45437 0.01725 0.0
H3102 H 0.47301 0.4612 0.03207 0.0
H3103 H 0.49576 0.46719 0.0389 0.0
C3104 C 0.45607 0.4942 0.05646 0.0
C3105 C 0.46165 0.4907 0.07423 0.0
C3106 C 0.46647 0.49706 0.03994 0.0
C3107 C 0.48262 0.49638 0.04078 0.0
C3108 C 0.48872 0.49372 0.05865 0.0
H3109 H 0.55875 0.50359 0.95477 0.0
H3110 H 0.54083 0.4994 0.98363 0.0
C3111 C 0.4783 0.4909 0.07529 0.0
C3112 C 0.49258 0.49789 0.02274 0.0
H3113 H 0.50496 0.47403 0.99277 0.0
C3114 C 0.49927 0.51388 0.01179 0.0
C3115 C 0.49448 0.48326 0.01573 0.0
C3116 C 0.48683 0.46545 0.02647 0.0
C3117 C 0.50815 0.51579 0.99417 0.0
C3118 C 0.51007 0.50117 0.98718 0.0
C3119 C 0.50336 0.48517 0.99812 0.0
C3120 C 0.52005 0.50263 0.96915 0.0
C3121 C 0.5158 0.5336 0.98344 0.0
C3122 C 0.51403 0.50535 0.95126 0.0
C3123 C 0.5243 0.50775 0.93459 0.0
C3124 C 0.54071 0.50747 0.93563 0.0
C3125 C 0.54624 0.50403 0.95347 0.0
C3126 C 0.53601 0.5016 0.97001 0.0
H3127 H 0.51665 0.54469 0.99268 0.0
H3128 H 0.5296 0.53783 0.97778 0.0
H3129 H 0.50683 0.53188 0.97105 0.0
H3130 H 0.50154 0.50584 0.95024 0.0
H3131 H 0.5197 0.51036 0.92105 0.0
H3132 H 0.23088 0.09387 0.07275 0.0
H3133 H 0.22301 0.06461 0.05853 0.0
H3134 H 0.26227 0.09197 0.0134 0.0
H3135 H 0.2708 0.12149 0.02805 0.0
H3136 H 0.20938 0.05095 0.02291 0.0
H3137 H 0.27651 0.05563 0.03398 0.0
H3138 H 0.27044 0.07093 0.0455 0.0
H3139 H 0.27725 0.07416 0.02069 0.0
C3140 C 0.23805 0.09374 0.05995 0.0
C3141 C 0.25168 0.11007 0.05171 0.0
C3142 C 0.2334 0.07697 0.05174 0.0
C3143 C 0.24225 0.0761 0.0351 0.0
C3144 C 0.25553 0.09234 0.02648 0.0
H3145 H 0.20237 0.977 0.96722 0.0
H3146 H 0.21204 0.00781 0.97832 0.0
C3147 C 0.26024 0.1092 0.03474 0.0
C3148 C 0.23736 0.05808 0.02691 0.0
H3149 H 0.25414 0.02975 0.01729 0.0
C3150 C 0.21917 0.04632 0.02161 0.0
C3151 C 0.25012 0.05202 0.02552 0.0
C3152 C 0.26965 0.06375 0.03187 0.0
C3153 C 0.21336 0.02862 0.015 0.0
C3154 C 0.22618 0.02266 0.01326 0.0
C3155 C 0.24438 0.03442 0.01854 0.0
C3156 C 0.22089 0.00415 1.00631 0.0
C3157 C 0.19343 0.01629 0.01045 0.0
C3158 C 0.22314 0.99202 0.01817 0.0
C3159 C 0.21789 0.97444 0.01176 0.0
C3160 C 0.21038 0.96871 0.99331 0.0
C3161 C 0.20832 0.981 0.98142 0.0
C3162 C 0.21363 0.99857 0.98782 0.0
H3163 H 0.18479 0.02114 0.0173 0.0
H3164 H 0.19141 0.01604 0.99467 0.0
H3165 H 0.18869 0.00213 0.01531 0.0
H3166 H 0.22882 0.99612 0.03247 0.0
H3167 H 0.21987 0.96539 0.02117 0.0
H3168 H 0.89844 0.13105 0.08511 0.0
H3169 H 0.93038 0.1518 0.07707 0.0
H3170 H 0.91399 0.16744 0.02512 0.0
H3171 H 0.88208 0.14658 0.03284 0.0
H3172 H 0.94853 0.15039 0.04389 0.0
H3173 H 0.95044 0.21656 0.04976 0.0
H3174 H 0.9324 0.19578 0.0601 0.0
H3175 H 0.9323 0.20025 0.03484 0.0
C3176 C 0.90159 0.13888 0.07197 0.0
C3177 C 0.88762 0.1371 0.05963 0.0
C3178 C 0.91986 0.15081 0.06746 0.0
C3179 C 0.92452 0.16132 0.05065 0.0
C3180 C 0.91066 0.15975 0.0384 0.0
H3181 H 0.01891 0.20924 0.97966 0.0
H3182 H 0.98994 0.1899 0.9959 0.0
C3183 C 0.89239 0.1478 0.04286 0.0
C3184 C 0.94388 0.17313 0.04527 0.0
H3185 H 0.97541 0.21686 0.03344 0.0
C3186 C 0.95449 0.16496 0.04182 0.0
C3187 C 0.95168 0.19215 0.04282 0.0
C3188 C 0.94119 0.20177 0.04725 0.0
C3189 C 0.97247 0.17521 0.03516 0.0
C3190 C 0.97992 0.19405 0.03171 0.0
C3191 C 0.9696 0.20237 0.03597 0.0
C3192 C 0.99795 0.20514 0.02254 0.0
C3193 C 0.98329 0.16576 0.03167 0.0
C3194 C 0.01202 0.22018 0.03211 0.0
C3195 C 0.02862 0.2313 0.02283 0.0
C3196 C 0.03126 0.22769 1.00374 0.0
C3197 C 0.01722 0.21244 0.99433 0.0
C3198 C 0.00072 0.20129 1.00364 0.0
H3199 H 0.97771 0.15284 0.03992 0.0
H3200 H 0.98268 0.16243 0.01616 0.0
H3201 H 0.99781 0.17469 0.03568 0.0
H3202 H 0.01007 0.22342 0.04667 0.0
H3203 H 0.03913 0.24306 0.03035 0.0
H3204 H 0.74083 0.75962 0.97919 0.0
H3205 H 0.76225 0.74991 0.98954 0.0
H3206 H 0.79124 0.7987 0.02364 0.0
H3207 H 0.77006 0.80864 0.01319 0.0
H3208 H 0.80026 0.76984 0.9831 0.0
H3209 H 0.78359 0.75739 0.06084 0.0
H3210 H 0.76841 0.7587 0.0435 0.0
H3211 H 0.78778 0.77916 0.05226 0.0
C3212 C 0.75173 0.76825 0.98896 0.0
C3213 C 0.75375 0.7849 0.99538 0.0
C3214 C 0.76388 0.76265 0.99491 0.0
C3215 C 0.77817 0.77351 0.00749 0.0
C3216 C 0.78006 0.78997 0.01422 0.0
H3217 H 0.8796 0.77484 0.02589 0.0
H3218 H 0.85567 0.78177 0.01756 0.0
C3219 C 0.76793 0.7956 0.00826 0.0
C3220 C 0.7918 0.76821 0.01258 0.0
H3221 H 0.81046 0.75767 0.05043 0.0
C3222 C 0.80245 0.76708 0.9978 0.0
C3223 C 0.79446 0.76449 0.03174 0.0
C3224 C 0.78287 0.76482 0.04801 0.0
C3225 C 0.816 0.76267 1.00174 0.0
C3226 C 0.81905 0.75952 0.02098 0.0
C3227 C 0.80815 0.76026 0.03571 0.0
C3228 C 0.8335 0.75539 0.02607 0.0
C3229 C 0.82686 0.76128 0.98531 0.0
C3230 C 0.82891 0.73839 0.0339 0.0
C3231 C 0.84253 0.73443 0.03874 0.0
C3232 C 0.861 0.74747 0.03598 0.0
C3233 C 0.86553 0.76457 0.02829 0.0
C3234 C 0.85188 0.76849 0.02337 0.0
H3235 H 0.82012 0.75996 0.97123 0.0
H3236 H 0.84047 0.77376 0.98491 0.0
H3237 H 0.82888 0.74941 0.98727 0.0
H3238 H 0.81477 0.72817 0.03619 0.0
H3239 H 0.83861 0.72126 0.04494 0.0
H3240 H 0.96074 0.21469 0.49071 0.0
H3241 H 0.99025 0.22154 0.47737 0.0
H3242 H 0.00362 0.20497 0.5307 0.0
H3243 H 0.97399 0.19728 0.54374 0.0
H3244 H 0.02437 0.24592 0.48955 0.0
H3245 H 0.01475 0.17643 0.49207 0.0
H3246 H 0.99614 0.18078 0.49516 0.0
H3247 H 0.01089 0.18347 0.51505 0.0
C3248 C 0.96986 0.21225 0.49948 0.0
C3249 C 0.96498 0.20546 0.51831 0.0
C3250 C 0.98675 0.21627 0.49188 0.0
C3251 C -0.00099 0.21349 0.50294 0.0
C3252 C 0.99423 0.20685 0.52175 0.0
H3253 H 0.11564 0.26338 0.49172 0.0
H3254 H 0.08437 0.2552 0.49983 0.0
C3255 C 0.97736 0.20274 0.5293 0.0
C3256 C 0.01709 0.2181 0.49517 0.0
H3257 H 0.0455 0.20091 0.48866 0.0
C3258 C 0.02894 0.23604 0.48915 0.0
C3259 C 0.02293 0.20513 0.49435 0.0
C3260 C 0.01043 0.18533 0.49931 0.0
C3261 C 0.04671 0.24153 0.48297 0.0
C3262 C 0.05291 0.22882 0.48331 0.0
C3263 C 0.04084 0.21072 0.48868 0.0
C3264 C 0.0719 0.23399 0.47829 0.0
C3265 C 0.05858 0.26083 0.47602 0.0
C3266 C 0.07527 0.2244 0.46395 0.0
C3267 C 0.0931 0.22888 0.45952 0.0
C3268 C 0.10791 0.24307 0.46931 0.0
C3269 C 0.1045 0.25258 0.48375 0.0
C3270 C 0.08665 0.24798 0.48831 0.0
H3271 H 0.05027 0.26683 0.47098 0.0
H3272 H 0.06722 0.26935 0.48807 0.0
H3273 H 0.06761 0.2615 0.46411 0.0
H3274 H 0.06409 0.21351 0.45609 0.0
H3275 H 0.0953 0.22144 0.44819 0.0
H3276 H 0.79018 0.75514 0.48227 0.0
H3277 H 0.78234 0.77728 0.46925 0.0
H3278 H 0.79391 0.8042 0.52433 0.0
H3279 H 0.80221 0.78258 0.5372 0.0
H3280 H 0.75469 0.78304 0.48214 0.0
H3281 H 0.82119 0.84669 0.48768 0.0
H3282 H 0.819 0.82442 0.48922 0.0
H3283 H 0.81452 0.83432 0.50992 0.0
C3284 C 0.79141 0.76602 0.49145 0.0
C3285 C 0.79675 0.76708 0.51077 0.0
C3286 C 0.78682 0.77857 0.48405 0.0
C3287 C 0.78772 0.7925 0.49577 0.0
C3288 C 0.79342 0.79378 0.51492 0.0
H3289 H 0.72954 0.85169 0.49012 0.0
H3290 H 0.74001 0.82996 0.49627 0.0
C3291 C 0.79797 0.78128 0.52231 0.0
C3292 C 0.78165 0.80506 0.48854 0.0
H3293 H 0.79489 0.85014 0.4846 0.0
C3294 C 0.76353 0.79771 0.48243 0.0
C3295 C 0.79325 0.82419 0.48874 0.0
C3296 C 0.81312 0.83288 0.49405 0.0
C3297 C 0.7565 0.809 0.47721 0.0
C3298 C 0.76782 0.82814 0.47849 0.0
C3299 C 0.78613 0.83547 0.48388 0.0
C3300 C 0.76099 0.84085 0.4744 0.0
C3301 C 0.73705 0.80032 0.47032 0.0
C3302 C 0.76953 0.85443 0.46038 0.0
C3303 C 0.76368 0.86693 0.45698 0.0
C3304 C 0.74917 0.86615 0.46756 0.0
C3305 C 0.74058 0.85249 0.48156 0.0
C3306 C 0.74651 0.84004 0.48504 0.0
H3307 H 0.73211 0.78631 0.46479 0.0
H3308 H 0.72818 0.79934 0.48252 0.0
H3309 H 0.73558 0.80855 0.45879 0.0
H3310 H 0.78074 0.85535 0.45202 0.0
H3311 H 0.77043 0.8771 0.4459 0.0
H3312 H 0.21775 0.01972 0.55081 0.0
H3313 H 0.19679 0.98897 0.5396 0.0
H3314 H 0.22705 9e-05 0.48669 0.0
H3315 H 0.24875 0.03075 0.49825 0.0
H3316 H 0.17461 0.97768 0.50906 0.0
H3317 H 0.22379 0.95277 0.50344 0.0
H3318 H 0.22925 0.97378 0.51543 0.0
H3319 H 0.22997 0.97294 0.48963 0.0
C3320 C 0.2202 0.01558 0.53692 0.0
C3321 C 0.23515 0.02767 0.52557 0.0
C3322 C 0.20807 0.99801 0.53046 0.0
C3323 C 0.21051 0.99209 0.51246 0.0
C3324 C 0.22513 0.00421 0.50083 0.0
H3325 H 0.12446 0.89518 0.45629 0.0
H3326 H 0.14725 0.92633 0.46497 0.0
C3327 C 0.23739 0.02182 0.50736 0.0
C3328 C 0.19741 0.97332 0.50588 0.0
H3329 H 0.19391 0.93306 0.49186 0.0
C3330 C 0.17883 0.96792 0.50528 0.0
C3331 C 0.20291 0.96053 0.50124 0.0
C3332 C 0.22254 0.96519 0.50262 0.0
C3333 C 0.1656 0.95012 0.50018 0.0
C3334 C 0.17114 0.93746 0.49501 0.0
C3335 C 0.18971 0.94283 0.49566 0.0
C3336 C 0.1578 0.91851 0.48925 0.0
C3337 C 0.14579 0.94492 0.5009 0.0
C3338 C 0.15659 0.9037 0.49957 0.0
C3339 C 0.14365 0.88583 0.49452 0.0
C3340 C 0.13167 0.88247 0.47908 0.0
C3341 C 0.1332 0.89733 0.46853 0.0
C3342 C 0.14622 0.91515 0.47348 0.0
H3343 H 0.14362 0.95433 0.51019 0.0
H3344 H 0.1411 0.94563 0.48619 0.0
H3345 H 0.13719 0.93082 0.50637 0.0
H3346 H 0.16545 0.90597 0.51176 0.0
H3347 H 0.14275 0.87467 0.50294 0.0
H3348 H 0.79378 0.03894 0.98853 0.0
H3349 H 0.78306 0.00811 0.97595 0.0
H3350 H 0.80047 0.99394 0.0282 0.0
H3351 H 0.81127 0.02459 0.04075 0.0
H3352 H 0.80139 0.98619 0.97178 0.0
H3353 H 0.74414 0.95781 0.02391 0.0
H3354 H 0.75691 0.98174 0.01792 0.0
H3355 H 0.76617 0.97217 0.03444 0.0
C3356 C 0.79566 0.02935 0.99712 0.0
C3357 C 0.80312 0.03404 0.0157 0.0
C3358 C 0.78947 0.01176 0.98998 0.0
C3359 C 0.79067 0.99873 1.00136 0.0
C3360 C 0.79913 0.00375 0.01939 0.0
H3361 H 0.77881 0.89384 0.98239 0.0
H3362 H 0.78898 0.92597 0.98785 0.0
C3363 C 0.80529 0.02124 0.02651 0.0
C3364 C 0.78233 0.97959 0.99501 0.0
H3365 H 0.74987 0.93647 0.00762 0.0
C3366 C 0.79001 0.9753 0.97945 0.0
C3367 C 0.7673 0.9655 1.00488 0.0
C3368 C 0.758 0.96948 0.02112 0.0
C3369 C 0.78352 0.95712 0.97404 0.0
C3370 C 0.76918 0.94297 0.98465 0.0
C3371 C 0.76098 0.94734 0.99964 0.0
C3372 C 0.76297 0.92354 0.981 0.0
C3373 C 0.79214 0.9532 0.9571 0.0
C3374 C 0.7448 0.91141 0.97595 0.0
C3375 C 0.73891 0.89298 0.97287 0.0
C3376 C 0.75109 0.88637 0.97489 0.0
C3377 C 0.76918 0.89855 0.98034 0.0
C3378 C 0.77504 0.91693 0.98341 0.0
H3379 H 0.799 0.96514 0.94735 0.0
H3380 H 0.80255 0.94997 0.96239 0.0
H3381 H 0.78183 0.94133 0.94875 0.0
H3382 H 0.73523 0.91625 0.9742 0.0
H3383 H 0.72495 0.88404 0.9685 0.0
H3384 H 0.97487 0.77597 0.04092 0.0
H3385 H 0.00491 0.79783 0.02868 0.0
H3386 H 0.99395 0.76643 0.97658 0.0
H3387 H 0.964 0.7439 0.98914 0.0
H3388 H 0.02771 0.77693 0.99116 0.0
H3389 H 0.0171 0.83618 0.98785 0.0
H3390 H 0.01221 0.82592 0.01125 0.0
H3391 H -0.00146 0.81316 0.99099 0.0
C3392 C 0.97886 0.77356 0.02693 0.0
C3393 C 0.96704 0.7581 0.01605 0.0
C3394 C 0.99596 0.78625 0.01983 0.0
C3395 C 0.00153 0.78394 1.00158 0.0
C3396 C 0.98983 0.76854 0.99064 0.0
H3397 H 0.09992 0.87125 0.94875 0.0
H3398 H 0.06843 0.84792 0.95548 0.0
C3399 C 0.9727 0.75574 0.99779 0.0
C3400 C 0.01985 0.79734 0.99435 0.0
H3401 H 0.04809 0.84281 0.98675 0.0
C3402 C 0.03213 0.79131 0.98997 0.0
C3403 C 0.02549 0.81605 0.99251 0.0
C3404 C 0.01257 0.82319 0.9957 0.0
C3405 C 0.05013 0.80361 0.98452 0.0
C3406 C 0.05608 0.82246 0.98387 0.0
C3407 C 0.0436 0.82839 0.98753 0.0
C3408 C 0.07523 0.83633 0.97963 0.0
C3409 C 0.06253 0.79626 0.97939 0.0
C3410 C 0.08948 0.83772 0.99114 0.0
C3411 C 0.10749 0.85101 0.98728 0.0
C3412 C 0.11154 0.86333 0.97204 0.0
C3413 C 0.09721 0.86209 0.96073 0.0
C3414 C 0.07923 0.8487 0.96449 0.0
H3415 H 0.05465 0.78178 0.97481 0.0
H3416 H 0.07208 0.80432 0.96768 0.0
H3417 H 0.07065 0.79698 0.99222 0.0
H3418 H 0.08667 0.82867 1.00325 0.0
H3419 H 0.11823 0.85184 0.9964 0.0
H3420 H 0.20694 0.18782 0.04422 0.0
H3421 H 0.186 0.19604 0.02942 0.0
H3422 H 0.19792 0.18252 0.97354 0.0
H3423 H 0.21909 0.17431 0.98832 0.0
H3424 H 0.20055 0.21568 0.97382 0.0
H3425 H 0.13546 0.16549 0.00754 0.0
H3426 H 0.15287 0.1778 0.02509 0.0
H3427 H 0.15547 0.16314 0.00822 0.0
C3428 C 0.20476 0.18611 0.02884 0.0
C3429 C 0.21457 0.18025 0.01746 0.0
C3430 C 0.19277 0.19084 0.02038 0.0
C3431 C 0.19015 0.18962 1.0004 0.0
C3432 C 0.19967 0.18347 0.989 0.0
H3433 H 0.10728 0.20863 0.94871 0.0
H3434 H 0.1256 0.19516 0.95828 0.0
C3435 C 0.21176 0.17881 0.99745 0.0
C3436 C 0.17853 0.19608 0.99141 0.0
H3437 H 0.13638 0.19189 0.99365 0.0
C3438 C 0.18645 0.21032 0.97797 0.0
C3439 C 0.16006 0.18894 0.99663 0.0
C3440 C 0.15041 0.17287 0.01001 0.0
C3441 C 0.17661 0.21807 0.97015 0.0
C3442 C 0.15849 0.21167 0.97628 0.0
C3443 C 0.15036 0.19697 0.98916 0.0
C3444 C 0.14779 0.22016 0.96974 0.0
C3445 C 0.18571 0.23298 0.95535 0.0
C3446 C 0.15411 0.23871 0.97309 0.0
C3447 C 0.14375 0.24656 0.96739 0.0
C3448 C 0.12672 0.23597 0.95843 0.0
C3449 C 0.12041 0.21734 0.95524 0.0
C3450 C 0.13083 0.20954 0.96084 0.0
H3451 H 0.197 0.23233 0.94798 0.0
H3452 H 0.17583 0.23215 0.94435 0.0
H3453 H 0.19159 0.24642 0.9626 0.0
H3454 H 0.16697 0.2471 0.98033 0.0
H3455 H 0.14917 0.26094 0.96999 0.0
H3456 H 0.87531 0.72955 0.52656 0.0
H3457 H 0.90665 0.73771 0.51939 0.0
H3458 H 0.92543 0.7737 0.56839 0.0
H3459 H 0.89402 0.76553 0.57574 0.0
H3460 H 0.94498 0.78978 0.53553 0.0
H3461 H 0.93951 0.72251 0.54673 0.0
H3462 H 0.92268 0.72166 0.53044 0.0
H3463 H 0.92246 0.72766 0.55521 0.0
C3464 C 0.88603 0.73896 0.53603 0.0
C3465 C 0.8821 0.74682 0.5518 0.0
C3466 C 0.90397 0.7436 0.53191 0.0
C3467 C 0.91835 0.75608 0.54353 0.0
C3468 C 0.91451 0.76397 0.55928 0.0
H3469 H 0.03033 0.77779 0.53083 0.0
H3470 H 0.00047 0.76989 0.54407 0.0
C3471 C 0.89657 0.75935 0.56341 0.0
C3472 C 0.93744 0.76159 0.53864 0.0
H3473 H 0.96595 0.74482 0.52995 0.0
C3474 C 0.94962 0.77999 0.53449 0.0
C3475 C 0.94356 0.74884 0.53755 0.0
C3476 C 0.93143 0.72909 0.54291 0.0
C3477 C 0.96754 0.78586 0.5286 0.0
C3478 C 0.97335 0.77295 0.52651 0.0
C3479 C 0.9614 0.75467 0.53135 0.0
C3480 C 0.99155 0.77803 0.51871 0.0
C3481 C 0.98011 0.80586 0.52466 0.0
C3482 C 0.99634 0.78505 0.50001 0.0
C3483 C 0.01336 0.78962 0.49246 0.0
C3484 C 0.02592 0.78715 0.5034 0.0
C3485 C 0.02104 0.78003 0.52212 0.0
C3486 C 0.00397 0.77543 0.52966 0.0
H3487 H 0.9755 0.81443 0.53214 0.0
H3488 H 0.99426 0.81024 0.52927 0.0
H3489 H 0.98025 0.80839 0.50899 0.0
H3490 H 0.98684 0.78687 0.49119 0.0
H3491 H 0.01673 0.79528 0.4781 0.0
H3492 H 0.21817 0.1158 0.53303 0.0
H3493 H 0.21123 0.13934 0.523 0.0
H3494 H 0.26496 0.18102 0.54032 0.0
H3495 H 0.2719 0.15758 0.55073 0.0
H3496 H 0.23557 0.18627 0.55328 0.0
H3497 H 0.23275 0.17247 0.47487 0.0
H3498 H 0.21901 0.15286 0.48959 0.0
H3499 H 0.24338 0.16453 0.49183 0.0
C3500 C 0.22848 0.12996 0.5348 0.0
C3501 C 0.24561 0.1348 0.54261 0.0
C3502 C 0.22454 0.14339 0.52892 0.0
C3503 C 0.23766 0.16189 0.53073 0.0
C3504 C 0.2547 0.1668 0.5387 0.0
H3505 H 0.23377 0.25237 0.47697 0.0
H3506 H 0.24315 0.23123 0.48912 0.0
C3507 C 0.25868 0.15338 0.54451 0.0
C3508 C 0.23353 0.17612 0.52447 0.0
H3509 H 0.22304 0.19297 0.48497 0.0
C3510 C 0.23289 0.18781 0.53834 0.0
C3511 C 0.23025 0.17818 0.50495 0.0
C3512 C 0.23152 0.16647 0.48938 0.0
C3513 C 0.22865 0.2013 0.53324 0.0
C3514 C 0.22484 0.20299 0.5138 0.0
C3515 C 0.22586 0.19155 0.49989 0.0
C3516 C 0.21967 0.21649 0.50752 0.0
C3517 C 0.22846 0.21374 0.54863 0.0
C3518 C 0.20337 0.21522 0.5139 0.0
C3519 C 0.1979 0.2272 0.50689 0.0
C3520 C 0.20861 0.24063 0.49329 0.0
C3521 C 0.22511 0.24206 0.48724 0.0
C3522 C 0.23053 0.23005 0.49423 0.0
H3523 H 0.23591 0.21363 0.56174 0.0
H3524 H 0.23465 0.22796 0.54328 0.0
H3525 H 0.21416 0.20912 0.55276 0.0
H3526 H 0.19462 0.20462 0.52388 0.0
H3527 H 0.18498 0.22551 0.5116 0.0
H3528 H 0.73956 0.98176 0.48182 0.0
H3529 H 0.76186 0.01227 0.4931 0.0
H3530 H 0.78921 0.98975 0.52569 0.0
H3531 H 0.76719 0.9592 0.51421 0.0
H3532 H 0.78362 0.0173 0.54543 0.0
H3533 H 0.81583 0.03884 0.47337 0.0
H3534 H 0.79151 0.02915 0.47399 0.0
H3535 H 0.80128 0.01521 0.4798 0.0
C3536 C 0.75033 0.98328 0.49138 0.0
C3537 C 0.75167 0.96804 0.49698 0.0
C3538 C 0.76301 0.00071 0.49783 0.0
C3539 C 0.77728 0.00323 0.51 0.0
C3540 C 0.77828 0.98804 0.51626 0.0
H3541 H 0.87861 0.10263 0.53317 0.0
H3542 H 0.85491 0.07165 0.52486 0.0
C3543 C 0.76562 0.97058 0.50977 0.0
C3544 C 0.79151 0.02181 0.51564 0.0
H3545 H 0.8263 0.06144 0.49758 0.0
C3546 C 0.79297 0.02698 0.53501 0.0
C3547 C 0.80378 0.03427 0.502 0.0
C3548 C 0.8032 0.02913 0.48113 0.0
C3549 C 0.80627 0.04446 0.54107 0.0
C3550 C 0.81828 0.05705 0.52734 0.0
C3551 C 0.81697 0.05177 0.50802 0.0
C3552 C 0.83252 0.07572 0.53275 0.0
C3553 C 0.80758 0.04925 0.56212 0.0
C3554 C 0.82775 0.08829 0.53973 0.0
C3555 C 0.84126 0.10599 0.54451 0.0
C3556 C 0.8598 0.11144 0.54236 0.0
C3557 C 0.86449 0.0988 0.53523 0.0
C3558 C 0.85097 0.08113 0.53039 0.0
H3559 H 0.80015 0.03694 0.57128 0.0
H3560 H 0.82202 0.05693 0.56683 0.0
H3561 H 0.80151 0.05805 0.56448 0.0
H3562 H 0.81357 0.08443 0.54138 0.0
H3563 H 0.83718 0.11531 0.55011 0.0
H3564 H 0.85752 0.29848 0.35065 0.0
H3565 H 0.86615 0.32932 0.36125 0.0
H3566 H 0.92118 0.34866 0.34197 0.0
H3567 H 0.91252 0.31792 0.33099 0.0
H3568 H 0.89129 0.35355 0.38654 0.0
H3569 H 0.90753 0.3811 0.31229 0.0
H3570 H 0.89607 0.357 0.3173 0.0
H3571 H 0.9204 0.37066 0.3199 0.0
C3572 C 0.87152 0.30927 0.34894 0.0
C3573 C 0.88433 0.30587 0.33986 0.0
C3574 C 0.87641 0.32688 0.35493 0.0
C3575 C 0.8942 0.34136 0.35199 0.0
C3576 C 0.90725 0.33779 0.34388 0.0
H3577 H 0.94667 0.45759 0.37414 0.0
H3578 H 0.94007 0.42649 0.36831 0.0
C3579 C 0.90232 0.32023 0.3377 0.0
C3580 C 0.89889 0.36025 0.35684 0.0
H3581 H 0.91459 0.40252 0.33738 0.0
C3582 C 0.89635 0.36425 0.37579 0.0
C3583 C 0.90539 0.37417 0.34274 0.0
C3584 C 0.90735 0.37052 0.32188 0.0
C3585 C 0.90035 0.38187 0.38107 0.0
C3586 C 0.90699 0.39575 0.36702 0.0
C3587 C 0.90961 0.39181 0.34812 0.0
C3588 C 0.91094 0.41442 0.37148 0.0
C3589 C 0.89763 0.38562 0.40164 0.0
C3590 C 0.89669 0.41788 0.37507 0.0
C3591 C 0.90035 0.4357 0.37811 0.0
C3592 C 0.91837 0.45042 0.37765 0.0
C3593 C 0.93262 0.44676 0.3743 0.0
C3594 C 0.92891 0.42895 0.37111 0.0
H3595 H 0.89547 0.37434 0.41141 0.0
H3596 H 0.90958 0.39845 0.40675 0.0
H3597 H 0.88551 0.38734 0.4025 0.0
H3598 H 0.8827 0.40683 0.37511 0.0
H3599 H 0.88899 0.43791 0.38036 0.0
H3600 H 0.55711 0.45982 0.39834 0.0
H3601 H 0.58839 0.48285 0.39036 0.0
H3602 H 0.56859 0.50285 0.34473 0.0
H3603 H 0.53725 0.47989 0.3527 0.0
H3604 H 0.60698 0.48779 0.35698 0.0
H3605 H 0.60242 0.5493 0.37378 0.0
H3606 H 0.58527 0.52674 0.38123 0.0
H3607 H 0.58536 0.53432 0.35704 0.0
C3608 C 0.55941 0.46907 0.38656 0.0
C3609 C 0.54471 0.46808 0.37618 0.0
C3610 C 0.57728 0.48229 0.38209 0.0
C3611 C 0.58079 0.49476 0.36718 0.0
C3612 C 0.56616 0.49367 0.35663 0.0
H3613 H 0.67995 0.55655 0.3033 0.0
H3614 H 0.64968 0.53478 0.31523 0.0
C3615 C 0.54827 0.48052 0.36116 0.0
C3616 C 0.59978 0.50845 0.3622 0.0
H3617 H 0.62868 0.55408 0.35625 0.0
C3618 C 0.61177 0.5023 0.35696 0.0
C3619 C 0.60608 0.52738 0.36249 0.0
C3620 C 0.59417 0.53487 0.36913 0.0
C3621 C 0.62975 0.51453 0.35143 0.0
C3622 C 0.63575 0.53338 0.35076 0.0
C3623 C 0.62396 0.53959 0.35658 0.0
C3624 C 0.65407 0.54681 0.34357 0.0
C3625 C 0.64216 0.50715 0.34647 0.0
C3626 C 0.66638 0.56112 0.35538 0.0
C3627 C 0.68365 0.57382 0.34849 0.0
C3628 C 0.68882 0.57246 0.32962 0.0
C3629 C 0.67634 0.55816 0.31781 0.0
C3630 C 0.65911 0.54554 0.32469 0.0
H3631 H 0.63741 0.49357 0.35308 0.0
H3632 H 0.6423 0.50557 0.33064 0.0
H3633 H 0.65633 0.51655 0.3513 0.0
H3634 H 0.66267 0.56241 0.36996 0.0
H3635 H 0.69288 0.58478 0.35786 0.0
H3636 H 0.44127 0.14615 0.35218 0.0
H3637 H 0.46275 0.13675 0.36326 0.0
H3638 H 0.43089 0.08483 0.33509 0.0
H3639 H 0.40955 0.09427 0.32371 0.0
H3640 H 0.45888 0.10859 0.38562 0.0
H3641 H 0.48071 0.10234 0.31218 0.0
H3642 H 0.46717 0.11291 0.31676 0.0
H3643 H 0.45663 0.08849 0.31596 0.0
C3644 C 0.43875 0.13266 0.34852 0.0
C3645 C 0.42381 0.12098 0.33696 0.0
C3646 C 0.45107 0.12733 0.35479 0.0
C3647 C 0.44864 0.11024 0.34966 0.0
C3648 C 0.43332 0.09828 0.33877 0.0
H3649 H 0.51037 0.05579 0.37376 0.0
H3650 H 0.48673 0.06296 0.36524 0.0
C3651 C 0.4211 0.10365 0.33234 0.0
C3652 C 0.46226 0.10504 0.35553 0.0
H3653 H 0.49167 0.09206 0.33789 0.0
C3654 C 0.46608 0.10503 0.37519 0.0
C3655 C 0.4717 0.10044 0.34188 0.0
C3656 C 0.46901 0.1012 0.32051 0.0
C3657 C 0.47893 0.10035 0.38155 0.0
C3658 C 0.48824 0.09566 0.3679 0.0
C3659 C 0.48438 0.09557 0.34829 0.0
C3660 C 0.5024 0.09126 0.37364 0.0
C3661 C 0.48237 0.10026 0.40282 0.0
C3662 C 0.51909 0.10485 0.38103 0.0
C3663 C 0.53278 0.1009 0.38568 0.0
C3664 C 0.53005 0.08322 0.38306 0.0
C3665 C 0.51317 0.0696 0.37575 0.0
C3666 C 0.49954 0.07363 0.37098 0.0
H3667 H 0.47164 0.10069 0.41158 0.0
H3668 H 0.48308 0.08794 0.40682 0.0
H3669 H 0.49566 0.11238 0.40648 0.0
H3670 H 0.52165 0.11863 0.38289 0.0
H3671 H 0.54562 0.11184 0.39094 0.0
H3672 H 0.63418 0.52302 0.83217 0.0
H3673 H 0.66452 0.5304 0.82119 0.0
H3674 H 0.68819 0.58104 0.85251 0.0
H3675 H 0.65788 0.574 0.86327 0.0
H3676 H 0.69229 0.56276 0.80076 0.0
H3677 H 0.7139 0.5531 0.87325 0.0
H3678 H 0.69029 0.54431 0.86691 0.0
H3679 H 0.70464 0.56809 0.87217 0.0
C3680 C 0.64579 0.53589 0.83645 0.0
C3681 C 0.64361 0.5479 0.84867 0.0
C3682 C 0.66311 0.54001 0.83025 0.0
C3683 C 0.67854 0.55612 0.83628 0.0
C3684 C 0.67642 0.5684 0.84798 0.0
H3685 H 0.79001 0.60763 0.79663 0.0
H3686 H 0.75896 0.59989 0.80504 0.0
C3687 C 0.65912 0.56433 0.85413 0.0
C3688 C 0.69692 0.55992 0.83067 0.0
H3689 H 0.73642 0.56461 0.8489 0.0
C3690 C 0.70195 0.56315 0.81124 0.0
C3691 C 0.70934 0.56016 0.8444 0.0
C3692 C 0.7043 0.55609 0.86534 0.0
C3693 C 0.71932 0.567 0.80521 0.0
C3694 C 0.73191 0.56772 0.81902 0.0
C3695 C 0.72673 0.56414 0.83839 0.0
C3696 C 0.75059 0.57229 0.81369 0.0
C3697 C 0.72403 0.5701 0.78412 0.0
C3698 C 0.75622 0.55942 0.81611 0.0
C3699 C 0.77399 0.56383 0.81143 0.0
C3700 C 0.78648 0.58127 0.80445 0.0
C3701 C 0.78079 0.59416 0.80216 0.0
C3702 C 0.763 0.5897 0.80676 0.0
H3703 H 0.71168 0.56502 0.77498 0.0
H3704 H 0.7328 0.58492 0.78146 0.0
H3705 H 0.7317 0.56326 0.77965 0.0
H3706 H 0.74684 0.54595 0.8216 0.0
H3707 H 0.77803 0.5537 0.81355 0.0
H3708 H 0.43155 0.20437 0.78918 0.0
H3709 H 0.43812 0.17982 0.79492 0.0
H3710 H 0.40002 0.1605 0.84212 0.0
H3711 H 0.39324 0.185 0.83627 0.0
H3712 H 0.45253 0.17367 0.82634 0.0
H3713 H 0.38439 0.1139 0.81244 0.0
H3714 H 0.39021 0.13678 0.80581 0.0
H3715 H 0.38394 0.12904 0.83018 0.0
C3716 C 0.4246 0.19493 0.80081 0.0
C3717 C 0.41191 0.19664 0.81233 0.0
C3718 C 0.42828 0.18083 0.80399 0.0
C3719 C 0.41937 0.16816 0.81875 0.0
C3720 C 0.40671 0.16984 0.83032 0.0
H3721 H 0.4568 0.10386 0.87696 0.0
H3722 H 0.44853 0.12614 0.86633 0.0
C3723 C 0.4029 0.18387 0.82704 0.0
C3724 C 0.42411 0.15385 0.82266 0.0
H3725 H 0.40607 0.10795 0.82799 0.0
C3726 C 0.44238 0.15929 0.82654 0.0
C3727 C 0.41093 0.13507 0.8226 0.0
C3728 C 0.3913 0.12831 0.81734 0.0
C3729 C 0.44775 0.14652 0.83094 0.0
C3730 C 0.43441 0.12784 0.83192 0.0
C3731 C 0.41623 0.12231 0.82743 0.0
C3732 C 0.43899 0.11395 0.83832 0.0
C3733 C 0.46768 0.15317 0.83442 0.0
C3734 C 0.43586 0.09937 0.82629 0.0
C3735 C 0.44031 0.08636 0.83246 0.0
C3736 C 0.44782 0.08766 0.85084 0.0
C3737 C 0.45079 0.10226 0.86285 0.0
C3738 C 0.4463 0.11517 0.8567 0.0
H3739 H 0.47648 0.16659 0.82748 0.0
H3740 H 0.47042 0.15486 0.8501 0.0
H3741 H 0.47157 0.1433 0.8289 0.0
H3742 H 0.4301 0.09813 0.81209 0.0
H3743 H 0.43771 0.07519 0.82295 0.0
H3744 H 0.82261 0.21183 0.8033 0.0
H3745 H 0.84744 0.24299 0.80879 0.0
H3746 H 0.8089 0.25809 0.82952 0.0
H3747 H 0.784 0.22687 0.82435 0.0
H3748 H 0.85079 0.27665 0.7928 0.0
H3749 H 0.84847 0.27374 0.87271 0.0
H3750 H 0.83845 0.25352 0.85791 0.0
H3751 H 0.82707 0.26642 0.8608 0.0
C3752 C 0.81943 0.22171 0.80925 0.0
C3753 C 0.80134 0.21685 0.81351 0.0
C3754 C 0.83361 0.23953 0.81221 0.0
C3755 C 0.82998 0.25276 0.81967 0.0
C3756 C 0.81197 0.24801 0.8239 0.0
H3757 H 0.89887 0.37041 0.82656 0.0
H3758 H 0.87558 0.33941 0.8176 0.0
C3759 C 0.79776 0.23021 0.82083 0.0
C3760 C 0.84506 0.27155 0.82303 0.0
H3761 H 0.86816 0.30236 0.85855 0.0
C3762 C 0.85464 0.28231 0.80715 0.0
C3763 C 0.85009 0.27875 0.84179 0.0
C3764 C 0.84062 0.26752 0.85934 0.0
C3765 C 0.86903 0.30026 0.80956 0.0
C3766 C 0.87383 0.30757 0.82832 0.0
C3767 C 0.86437 0.29671 0.84418 0.0
C3768 C 0.88874 0.32641 0.83195 0.0
C3769 C 0.87915 0.31118 0.7921 0.0
C3770 C 0.90388 0.32936 0.84286 0.0
C3771 C 0.91721 0.34701 0.84794 0.0
C3772 C 0.91558 0.36208 0.84234 0.0
C3773 C 0.90066 0.35913 0.83087 0.0
C3774 C 0.88733 0.34142 0.82577 0.0
H3775 H 0.87651 0.30237 0.77928 0.0
H3776 H 0.87466 0.32112 0.78875 0.0
H3777 H 0.89405 0.31892 0.79485 0.0
H3778 H 0.90522 0.31795 0.84775 0.0
H3779 H 0.92864 0.34884 0.85658 0.0
H3780 H 0.39171 0.21697 0.30375 0.0
H3781 H 0.39944 0.24835 0.31034 0.0
H3782 H 0.45331 0.26122 0.32811 0.0
H3783 H 0.44555 0.22968 0.32192 0.0
H3784 H 0.43497 0.27283 0.35389 0.0
H3785 H 0.43396 0.29433 0.27866 0.0
H3786 H 0.41402 0.27353 0.2858 0.0
H3787 H 0.43563 0.27446 0.28453 0.0
C3788 C 0.40516 0.22642 0.30919 0.0
C3789 C 0.41802 0.22083 0.31236 0.0
C3790 C 0.40962 0.2444 0.31271 0.0
C3791 C 0.42701 0.25712 0.31943 0.0
C3792 C 0.43986 0.2516 0.32275 0.0
H3793 H 0.47445 0.37417 0.33385 0.0
H3794 H 0.46782 0.34384 0.3235 0.0
C3795 C 0.43544 0.23363 0.31915 0.0
C3796 C 0.43154 0.276 0.32373 0.0
H3797 H 0.43569 0.31457 0.30338 0.0
C3798 C 0.43522 0.282 0.34286 0.0
C3799 C 0.432 0.28792 0.30924 0.0
C3800 C 0.42885 0.28235 0.28836 0.0
C3801 C 0.43894 0.29953 0.34796 0.0
C3802 C 0.43881 0.31124 0.33357 0.0
C3803 C 0.43558 0.30543 0.31437 0.0
C3804 C 0.442 0.32959 0.33834 0.0
C3805 C 0.44306 0.30544 0.3687 0.0
C3806 C 0.42937 0.33155 0.34959 0.0
C3807 C 0.43302 0.34881 0.35538 0.0
C3808 C 0.44938 0.36444 0.35002 0.0
C3809 C 0.46166 0.36244 0.33807 0.0
C3810 C 0.45796 0.34514 0.33223 0.0
H3811 H 0.44645 0.29641 0.37715 0.0
H3812 H 0.4546 0.31965 0.36974 0.0
H3813 H 0.43094 0.305 0.37532 0.0
H3814 H 0.41684 0.31967 0.35417 0.0
H3815 H 0.42315 0.34991 0.3643 0.0
H3816 H 0.78773 0.1932 0.32758 0.0
H3817 H 0.75506 0.17223 0.3315 0.0
H3818 H 0.74375 0.19999 0.28627 0.0
H3819 H 0.77638 0.22106 0.28238 0.0
H3820 H 0.7222 0.194 0.31714 0.0
H3821 H 0.721 0.13018 0.29734 0.0
H3822 H 0.73695 0.14219 0.31626 0.0
H3823 H 0.74045 0.15239 0.2928 0.0
C3824 C 0.77829 0.19471 0.31834 0.0
C3825 C 0.78465 0.20878 0.30466 0.0
C3826 C 0.75963 0.18268 0.32054 0.0
C3827 C 0.74698 0.18433 0.30892 0.0
C3828 C 0.75328 0.19842 0.29532 0.0
H3829 H 0.63216 0.098 0.31376 0.0
H3830 H 0.66189 0.12068 0.3007 0.0
C3831 C 0.77193 0.21052 0.2932 0.0
C3832 C 0.72715 0.17184 0.31154 0.0
H3833 H 0.69471 0.12685 0.31398 0.0
C3834 C 0.71614 0.17932 0.31621 0.0
C3835 C 0.71916 0.15271 0.30992 0.0
C3836 C 0.72997 0.1439 0.3036 0.0
C3837 C 0.69754 0.16815 0.32025 0.0
C3838 C 0.68985 0.149 0.31998 0.0
C3839 C 0.70065 0.14153 0.31437 0.0
C3840 C 0.67111 0.13649 0.32693 0.0
C3841 C 0.68635 0.17698 0.32489 0.0
C3842 C 0.66639 0.13798 0.34589 0.0
C3843 C 0.64947 0.12518 0.35329 0.0
C3844 C 0.63697 0.11047 0.34196 0.0
C3845 C 0.64145 0.10928 0.32276 0.0
C3846 C 0.65845 0.12215 0.31534 0.0
H3847 H 0.69223 0.19067 0.31817 0.0
H3848 H 0.67205 0.16848 0.31994 0.0
H3849 H 0.68628 0.17878 0.34069 0.0
H3850 H 0.67605 0.1487 0.35523 0.0
H3851 H 0.64634 0.12656 0.36808 0.0
H3852 H 0.77238 0.54939 0.30617 0.0
H3853 H 0.79463 0.53945 0.30997 0.0
H3854 H 0.8382 0.59531 0.30805 0.0
H3855 H 0.8161 0.60538 0.30325 0.0
H3856 H 0.84516 0.57314 0.28547 0.0
H3857 H 0.82283 0.54256 0.35793 0.0
H3858 H 0.80492 0.53341 0.34037 0.0
H3859 H 0.81521 0.55698 0.34726 0.0
C3860 C 0.78667 0.55961 0.30643 0.0
C3861 C 0.79235 0.57824 0.30439 0.0
C3862 C 0.79939 0.55388 0.30885 0.0
C3863 C 0.81806 0.56665 0.3096 0.0
C3864 C 0.82383 0.58523 0.30762 0.0
H3865 H 0.91727 0.56735 0.33357 0.0
H3866 H 0.89378 0.57417 0.32306 0.0
C3867 C 0.81112 0.59098 0.30507 0.0
C3868 C 0.83162 0.56061 0.31205 0.0
H3869 H 0.84478 0.53758 0.3423 0.0
C3870 C 0.84508 0.56537 0.2979 0.0
C3871 C 0.83147 0.55044 0.32825 0.0
C3872 C 0.81795 0.54568 0.34441 0.0
C3873 C 0.85841 0.56023 0.29955 0.0
C3874 C 0.85828 0.55016 0.31578 0.0
C3875 C 0.84468 0.54514 0.32976 0.0
C3876 C 0.87297 0.54594 0.31942 0.0
C3877 C 0.87253 0.5656 0.28394 0.0
C3878 C 0.86907 0.5278 0.32062 0.0
C3879 C 0.88252 0.52387 0.32654 0.0
C3880 C 0.89992 0.53805 0.33165 0.0
C3881 C 0.90394 0.55619 0.32972 0.0
C3882 C 0.89059 0.5601 0.32364 0.0
H3883 H 0.86818 0.56925 0.27039 0.0
H3884 H 0.88541 0.57764 0.28876 0.0
H3885 H 0.87537 0.55439 0.28096 0.0
H3886 H 0.85548 0.5167 0.31755 0.0
H3887 H 0.87905 0.50978 0.32811 0.0
H3888 H 0.54242 0.05418 0.87914 0.0
H3889 H 0.57408 0.06292 0.87262 0.0
H3890 H 0.58565 0.11682 0.85665 0.0
H3891 H 0.55386 0.10806 0.86273 0.0
H3892 H 0.59864 0.10016 0.83041 0.0
H3893 H 0.61896 0.09735 0.90573 0.0
H3894 H 0.59875 0.07727 0.89767 0.0
H3895 H 0.59876 0.0984 0.89978 0.0
C3896 C 0.55164 0.06784 0.87409 0.0
C3897 C 0.54562 0.08044 0.87145 0.0
C3898 C 0.56978 0.07288 0.87061 0.0
C3899 C 0.58222 0.09058 0.86445 0.0
C3900 C 0.57625 0.10313 0.86157 0.0
H3901 H 0.69996 0.14286 0.85362 0.0
H3902 H 0.66891 0.13442 0.86319 0.0
C3903 C 0.55813 0.09814 0.86513 0.0
C3904 C 0.60135 0.09585 0.86044 0.0
H3905 H 0.64015 0.10106 0.88129 0.0
C3906 C 0.60775 0.10043 0.84152 0.0
C3907 C 0.6132 0.09634 0.87505 0.0
C3908 C 0.60718 0.09224 0.89574 0.0
C3909 C 0.62564 0.10514 0.83673 0.0
C3910 C 0.63731 0.10509 0.85122 0.0
C3911 C 0.63106 0.1009 0.87022 0.0
C3912 C 0.65609 0.10939 0.84679 0.0
C3913 C 0.63197 0.11027 0.81623 0.0
C3914 C 0.65908 0.0978 0.8349 0.0
C3915 C 0.67675 0.10248 0.82954 0.0
C3916 C 0.69176 0.11886 0.83599 0.0
C3917 C 0.68873 0.13009 0.84855 0.0
C3918 C 0.67101 0.12535 0.85394 0.0
H3919 H 0.62279 0.11353 0.80787 0.0
H3920 H 0.64598 0.12221 0.81576 0.0
H3921 H 0.6322 0.09868 0.80909 0.0
H3922 H 0.64772 0.08525 0.82952 0.0
H3923 H 0.67867 0.09339 0.82013 0.0
H3924 H 0.87383 0.55551 0.80158 0.0
H3925 H 0.88241 0.53373 0.81319 0.0
H3926 H 0.9003 0.56296 0.86684 0.0
H3927 H 0.8924 0.58539 0.85497 0.0
H3928 H 0.92487 0.55389 0.85219 0.0
H3929 H 0.85561 0.49349 0.85222 0.0
H3930 H 0.86154 0.50479 0.82936 0.0
H3931 H 0.8596 0.51642 0.85009 0.0
C3932 C 0.87974 0.55746 0.8158 0.0
C3933 C 0.88252 0.57229 0.82731 0.0
C3934 C 0.8844 0.54481 0.82252 0.0
C3935 C 0.8917 0.54653 0.841 0.0
C3936 C 0.89454 0.56131 0.85257 0.0
H3937 H 0.90327 0.45873 0.89183 0.0
H3938 H 0.89496 0.482 0.88548 0.0
C3939 C 0.88992 0.57404 0.84582 0.0
C3940 C 0.89688 0.53317 0.84786 0.0
H3941 H 0.88041 0.4876 0.85388 0.0
C3942 C 0.91513 0.53941 0.85276 0.0
C3943 C 0.8841 0.51431 0.84889 0.0
C3944 C 0.86408 0.50686 0.84506 0.0
C3945 C 0.92107 0.52722 0.85799 0.0
C3946 C 0.90848 0.50827 0.85791 0.0
C3947 C 0.89011 0.5021 0.85368 0.0
C3948 C 0.91403 0.49454 0.86205 0.0
C3949 C 0.94073 0.53479 0.86368 0.0
C3950 C 0.92739 0.49372 0.85087 0.0
C3951 C 0.9322 0.48044 0.85451 0.0
C3952 C 0.92354 0.46755 0.86921 0.0
C3953 C 0.91005 0.46831 0.88026 0.0
C3954 C 0.90535 0.48167 0.87672 0.0
H3955 H 0.94695 0.54913 0.86866 0.0
H3956 H 0.94208 0.52655 0.87529 0.0
H3957 H 0.94857 0.53457 0.85102 0.0
H3958 H 0.93392 0.50318 0.83913 0.0
H3959 H 0.94244 0.48003 0.84557 0.0
H3960 H 0.41539 0.3209 0.81817 0.0
H3961 H 0.43898 0.35169 0.82721 0.0
H3962 H 0.46693 0.32953 0.85935 0.0
H3963 H 0.44362 0.2987 0.85009 0.0
H3964 H 0.46258 0.35779 0.87866 0.0
H3965 H 0.49208 0.37706 0.80522 0.0
H3966 H 0.46784 0.36769 0.80682 0.0
H3967 H 0.47754 0.35366 0.81248 0.0
C3968 C 0.4266 0.32257 0.82708 0.0
C3969 C 0.42767 0.30734 0.83332 0.0
C3970 C 0.44003 0.34015 0.83225 0.0
C3971 C 0.45475 0.34282 0.84373 0.0
C3972 C 0.45564 0.32769 0.85044 0.0
H3973 H 0.55687 0.44294 0.86292 0.0
H3974 H 0.5332 0.41165 0.85555 0.0
C3975 C 0.44225 0.31009 0.84523 0.0
C3976 C 0.46935 0.36143 0.84856 0.0
H3977 H 0.50352 0.40043 0.82871 0.0
C3978 C 0.47157 0.36714 0.86779 0.0
C3979 C 0.48113 0.37343 0.83431 0.0
C3980 C 0.4797 0.36768 0.81355 0.0
C3981 C 0.48512 0.38474 0.87311 0.0
C3982 C 0.4966 0.39689 0.85878 0.0
C3983 C 0.49458 0.39107 0.83961 0.0
C3984 C 0.51082 0.41573 0.86341 0.0
C3985 C 0.4872 0.39017 0.89402 0.0
C3986 C 0.506 0.42837 0.87004 0.0
C3987 C 0.51946 0.44621 0.87425 0.0
C3988 C 0.53799 0.45173 0.87189 0.0
C3989 C 0.54274 0.43904 0.86511 0.0
C3990 C 0.52926 0.42121 0.8608 0.0
H3991 H 0.48013 0.37813 0.90362 0.0
H3992 H 0.50181 0.39798 0.89812 0.0
H3993 H 0.48123 0.39904 0.89643 0.0
H3994 H 0.49181 0.42443 0.8719 0.0
H3995 H 0.51535 0.45559 0.87964 0.0
H3996 H 0.56564 0.64583 0.67798 0.0
H3997 H 0.57235 0.67591 0.68919 0.0
H3998 H 0.51484 0.65714 0.69239 0.0
H3999 H 0.50803 0.62691 0.68109 0.0
H4000 H 0.53642 0.6891 0.66896 0.0
H4001 H 0.56618 0.69568 0.74165 0.0
H4002 H 0.57518 0.68736 0.7234 0.0
H4003 H 0.55171 0.67388 0.73037 0.0
C4004 C 0.55443 0.64802 0.68147 0.0
C4005 C 0.53632 0.6341 0.67866 0.0
C4006 C 0.55827 0.66516 0.68797 0.0
C4007 C 0.54408 0.66868 0.69174 0.0
C4008 C 0.52596 0.65461 0.68969 0.0
H4009 H 0.5474 0.7725 0.70639 0.0
H4010 H 0.53757 0.74036 0.70218 0.0
C4011 C 0.52209 0.63736 0.68334 0.0
C4012 C 0.54833 0.68756 0.69571 0.0
H4013 H 0.57067 0.72301 0.72696 0.0
C4014 C 0.5437 0.69648 0.68175 0.0
C4015 C 0.55804 0.69715 0.71228 0.0
C4016 C 0.56297 0.68802 0.72789 0.0
C4017 C 0.549 0.71497 0.68361 0.0
C4018 C 0.5588 0.72463 0.70016 0.0
C4019 C 0.56319 0.7156 0.71427 0.0
C4020 C 0.56477 0.74417 0.703 0.0
C4021 C 0.54466 0.72411 0.66749 0.0
C4022 C 0.5833 0.75697 0.70538 0.0
C4023 C 0.58899 0.7754 0.70816 0.0
C4024 C 0.57622 0.78139 0.70867 0.0
C4025 C 0.55764 0.76845 0.70627 0.0
C4026 C 0.55198 0.75004 0.70362 0.0
H4027 H 0.54181 0.71638 0.65381 0.0
H4028 H 0.53233 0.72484 0.67131 0.0
H4029 H 0.55604 0.73819 0.66506 0.0
H4030 H 0.5934 0.75271 0.70506 0.0
H4031 H 0.60335 0.78483 0.71025 0.0
H4032 H 0.35134 0.89099 0.6368 0.0
H4033 H 0.32207 0.86988 0.65141 0.0
H4034 H 0.33696 0.90345 0.70226 0.0
H4035 H 0.36616 0.92505 0.68745 0.0
H4036 H 0.3161 0.85047 0.68562 0.0
H4037 H 0.28647 0.89599 0.68822 0.0
H4038 H 0.30607 0.90099 0.67369 0.0
H4039 H 0.30851 0.90486 0.69918 0.0
C4040 C 0.34829 0.89409 0.65095 0.0
C4041 C 0.36101 0.90982 0.66088 0.0
C4042 C 0.33162 0.88192 0.65935 0.0
C4043 C 0.32728 0.88522 0.67781 0.0
C4044 C 0.33995 0.90082 0.68786 0.0
H4045 H 0.23584 0.80071 0.74354 0.0
H4046 H 0.26625 0.82477 0.73391 0.0
C4047 C 0.35667 0.91304 0.67946 0.0
C4048 C 0.30963 0.87199 0.68656 0.0
H4049 H 0.26907 0.86675 0.702 0.0
C4050 C 0.30583 0.85403 0.68931 0.0
C4051 C 0.29626 0.87669 0.69116 0.0
C4052 C 0.29939 0.89563 0.6878 0.0
C4053 C 0.28891 0.84053 0.69637 0.0
C4054 C 0.27556 0.84524 0.7011 0.0
C4055 C 0.27941 0.86325 0.69851 0.0
C4056 C 0.25714 0.83141 0.70765 0.0
C4057 C 0.28524 0.82123 0.69806 0.0
C4058 C 0.24192 0.82756 0.69636 0.0
C4059 C 0.22457 0.81389 0.70184 0.0
C4060 C 0.22209 0.80381 0.71876 0.0
C4061 C 0.23734 0.80801 0.73028 0.0
C4062 C 0.25471 0.82175 0.72481 0.0
H4063 H 0.29531 0.81915 0.68988 0.0
H4064 H 0.2861 0.81813 0.7134 0.0
H4065 H 0.27137 0.81138 0.69277 0.0
H4066 H 0.24353 0.83486 0.68305 0.0
H4067 H 0.21319 0.81088 0.69251 0.0
H4068 H 0.07944 0.44547 0.68219 0.0
H4069 H 0.10176 0.43808 0.69552 0.0
H4070 H 0.13084 0.45279 0.64167 0.0
H4071 H 0.10908 0.46076 0.62849 0.0
H4072 H 0.11109 0.41262 0.68258 0.0
H4073 H 0.1707 0.48251 0.68089 0.0
H4074 H 0.1476 0.47795 0.67834 0.0
H4075 H 0.15933 0.47535 0.65811 0.0
C4076 C 0.0907 0.44729 0.67327 0.0
C4077 C 0.09247 0.45368 0.65428 0.0
C4078 C 0.10336 0.44298 0.68087 0.0
C4079 C 0.11807 0.44515 0.66966 0.0
C4080 C 0.11976 0.45133 0.65066 0.0
H4081 H 0.18673 0.39765 0.68046 0.0
H4082 H 0.16326 0.40527 0.67237 0.0
C4083 C 0.10715 0.45564 0.64308 0.0
C4084 C 0.13151 0.4406 0.67756 0.0
H4085 H 0.17703 0.45824 0.68518 0.0
C4086 C 0.12549 0.42261 0.68334 0.0
C4087 C 0.15024 0.45374 0.6788 0.0
C4088 C 0.15736 0.47351 0.67389 0.0
C4089 C 0.13783 0.41725 0.68967 0.0
C4090 C 0.15668 0.43017 0.68989 0.0
C4091 C 0.1626 0.44831 0.68477 0.0
C4092 C 0.17054 0.42517 0.69511 0.0
C4093 C 0.13056 0.39784 0.69615 0.0
C4094 C 0.18271 0.43415 0.71026 0.0
C4095 C 0.19621 0.42992 0.71482 0.0
C4096 C 0.19782 0.41664 0.70427 0.0
C4097 C 0.18564 0.40771 0.68905 0.0
C4098 C 0.17219 0.41201 0.68445 0.0
H4099 H 0.11602 0.39136 0.70048 0.0
H4100 H 0.13153 0.3898 0.68409 0.0
H4101 H 0.13855 0.39713 0.70844 0.0
H4102 H 0.18171 0.4444 0.71862 0.0
H4103 H 0.20523 0.43689 0.72675 0.0
H4104 H 0.31981 0.91074 0.20098 0.0
H4105 H 0.35045 0.91913 0.19012 0.0
H4106 H 0.32847 0.8693 0.15747 0.0
H4107 H 0.29778 0.86066 0.16847 0.0
H4108 H 0.36759 0.89836 0.19702 0.0
H4109 H 0.36253 0.90901 0.11895 0.0
H4110 H 0.34663 0.90882 0.13637 0.0
H4111 H 0.3447 0.88778 0.12834 0.0
C4112 C 0.32147 0.90159 0.19142 0.0
C4113 C 0.30633 0.88501 0.18562 0.0
C4114 C 0.33898 0.90644 0.18517 0.0
C4115 C 0.34169 0.89491 0.17288 0.0
C4116 C 0.32661 0.87855 0.16668 0.0
H4117 H 0.441 0.89141 0.15441 0.0
H4118 H 0.41024 0.88487 0.16264 0.0
C4119 C 0.30908 0.87365 0.17296 0.0
C4120 C 0.36042 0.89947 0.16755 0.0
H4121 H 0.38907 0.90869 0.12939 0.0
C4122 C 0.37232 0.90068 0.18225 0.0
C4123 C 0.36655 0.90262 0.14829 0.0
C4124 C 0.35452 0.90216 0.13205 0.0
C4125 C 0.39015 0.90468 0.17816 0.0
C4126 C 0.39613 0.90736 0.15885 0.0
C4127 C 0.38435 0.90647 0.14417 0.0
C4128 C 0.41465 0.91122 0.15366 0.0
C4129 C 0.40251 0.90619 0.19453 0.0
C4130 C 0.42719 0.92807 0.1456 0.0
C4131 C 0.44475 0.93182 0.14084 0.0
C4132 C 0.45003 0.9187 0.14389 0.0
C4133 C 0.43733 0.90174 0.15178 0.0
C4134 C 0.41981 0.89805 0.15662 0.0
H4135 H 0.39728 0.90778 0.20862 0.0
H4136 H 0.40351 0.89364 0.19512 0.0
H4137 H 0.41644 0.91795 0.19235 0.0
H4138 H 0.42341 0.93836 0.1431 0.0
H4139 H 0.45408 0.94488 0.1345 0.0
H4140 H 0.10984 0.54799 0.1093 0.0
H4141 H 0.11941 0.52627 0.1188 0.0
H4142 H 0.08356 0.51041 0.16785 0.0
H4143 H 0.07383 0.53203 0.15832 0.0
H4144 H 0.13591 0.5243 0.1519 0.0
H4145 H 0.06868 0.46171 0.14273 0.0
H4146 H 0.07345 0.48358 0.13353 0.0
H4147 H 0.06805 0.47811 0.15854 0.0
C4148 C 0.10406 0.53994 0.12216 0.0
C4149 C 0.09102 0.54165 0.13303 0.0
C4150 C 0.10949 0.52749 0.12752 0.0
C4151 C 0.10197 0.51653 0.14384 0.0
C4152 C 0.08918 0.51842 0.15492 0.0
H4153 H 0.12595 0.4452 0.20916 0.0
H4154 H 0.11898 0.46831 0.19767 0.0
C4155 C 0.08365 0.53078 0.14949 0.0
C4156 C 0.10774 0.50332 0.14941 0.0
H4157 H 0.09171 0.45823 0.15856 0.0
C4158 C 0.12627 0.50984 0.15322 0.0
C4159 C 0.09514 0.48444 0.15097 0.0
C4160 C 0.07526 0.47649 0.14605 0.0
C4161 C 0.13244 0.498 0.15903 0.0
C4162 C 0.11976 0.47928 0.16107 0.0
C4163 C 0.10132 0.47268 0.15701 0.0
C4164 C 0.12528 0.46633 0.16797 0.0
C4165 C 0.15237 0.50546 0.16327 0.0
C4166 C 0.13129 0.45781 0.155 0.0
C4167 C 0.13517 0.44449 0.16147 0.0
C4168 C 0.13298 0.43948 0.18099 0.0
C4169 C 0.12746 0.44852 0.19399 0.0
C4170 C 0.12359 0.46178 0.1875 0.0
H4171 H 0.16053 0.52043 0.16105 0.0
H4172 H 0.15406 0.50232 0.17837 0.0
H4173 H 0.1578 0.49873 0.15382 0.0
H4174 H 0.13258 0.46118 0.13985 0.0
H4175 H 0.13924 0.43768 0.15111 0.0
H4176 H 0.56605 0.69709 0.14908 0.0
H4177 H 0.54445 0.66707 0.13577 0.0
H4178 H 0.51469 0.65236 0.18923 0.0
H4179 H 0.53572 0.68238 0.2023 0.0
H4180 H 0.53852 0.63441 0.14945 0.0
H4181 H 0.4739 0.63555 0.15057 0.0
H4182 H 0.49581 0.65596 0.15307 0.0
H4183 H 0.48505 0.64146 0.17351 0.0
C4184 C 0.55462 0.68761 0.15779 0.0
C4185 C 0.55262 0.69207 0.17676 0.0
C4186 C 0.54238 0.67043 0.15022 0.0
C4187 C 0.52785 0.65753 0.16144 0.0
C4188 C 0.52557 0.66219 0.18017 0.0
H4189 H 0.47195 0.54011 0.15737 0.0
H4190 H 0.49269 0.57259 0.16336 0.0
C4191 C 0.53773 0.67929 0.1877 0.0
C4192 C 0.51586 0.63873 0.15428 0.0
H4193 H 0.47124 0.60596 0.14915 0.0
C4194 C 0.52381 0.62825 0.14912 0.0
C4195 C 0.4967 0.63075 0.15364 0.0
C4196 C 0.48738 0.64158 0.1578 0.0
C4197 C 0.51308 0.60981 0.14406 0.0
C4198 C 0.49388 0.60154 0.1446 0.0
C4199 C 0.48596 0.61221 0.14902 0.0
C4200 C 0.48169 0.58183 0.14072 0.0
C4201 C 0.52244 0.59941 0.13812 0.0
C4202 C 0.46834 0.57622 0.12636 0.0
C4203 C 0.45637 0.55771 0.12309 0.0
C4204 C 0.4575 0.5444 0.13413 0.0
C4205 C 0.47092 0.55004 0.14848 0.0
C4206 C 0.48281 0.56859 0.15185 0.0
H4207 H 0.53647 0.60871 0.13281 0.0
H4208 H 0.52349 0.592 0.15076 0.0
H4209 H 0.51467 0.58933 0.12669 0.0
H4210 H 0.46719 0.58619 0.11762 0.0
H4211 H 0.44636 0.55383 0.11175 0.0
H4212 H 0.13448 0.70217 0.64922 0.0
H4213 H 0.12609 0.67258 0.63478 0.0
H4214 H 0.14123 0.65631 0.68719 0.0
H4215 H 0.15023 0.68595 0.70139 0.0
H4216 H 0.15168 0.64518 0.65507 0.0
H4217 H 0.079 0.62682 0.65033 0.0
H4218 H 0.09466 0.64722 0.63772 0.0
H4219 H 0.0957 0.64645 0.66349 0.0
C4220 C 0.13638 0.69242 0.65749 0.0
C4221 C 0.14276 0.69627 0.67653 0.0
C4222 C 0.13138 0.67546 0.64931 0.0
C4223 C 0.13262 0.66211 0.6601 0.0
C4224 C 0.13998 0.66634 0.67869 0.0
H4225 H 0.07336 0.54506 0.65134 0.0
H4226 H 0.08564 0.57719 0.65966 0.0
C4227 C 0.14502 0.68325 0.68682 0.0
C4228 C 0.12554 0.6434 0.65257 0.0
H4229 H 0.08639 0.60511 0.63901 0.0
C4230 C 0.13743 0.63643 0.65143 0.0
C4231 C 0.10687 0.63195 0.64817 0.0
C4232 C 0.09324 0.63837 0.65012 0.0
C4233 C 0.13116 0.61826 0.64615 0.0
C4234 C 0.11254 0.60689 0.6415 0.0
C4235 C 0.10067 0.6139 0.64248 0.0
C4236 C 0.10497 0.58749 0.63618 0.0
C4237 C 0.14439 0.61126 0.64628 0.0
C4238 C 0.11155 0.58265 0.62006 0.0
C4239 C 0.10462 0.56434 0.61535 0.0
C4240 C 0.0908 0.55051 0.62653 0.0
C4241 C 0.08392 0.5554 0.64241 0.0
C4242 C 0.09096 0.57374 0.64719 0.0
H4243 H 0.15674 0.62013 0.65493 0.0
H4244 H 0.13793 0.59721 0.65216 0.0
H4245 H 0.14882 0.61098 0.63134 0.0
H4246 H 0.12201 0.59305 0.61106 0.0
H4247 H 0.10993 0.56102 0.6028 0.0
H4248 H 0.29975 0.41633 0.64996 0.0
H4249 H 0.32984 0.43837 0.63731 0.0
H4250 H 0.34328 0.46757 0.6911 0.0
H4251 H 0.31312 0.44608 0.70357 0.0
H4252 H 0.35317 0.49032 0.65953 0.0
H4253 H 0.37765 0.44079 0.65249 0.0
H4254 H 0.3568 0.43466 0.64001 0.0
H4255 H 0.35741 0.43575 0.66582 0.0
C4256 C 0.30906 0.42753 0.65903 0.0
C4257 C 0.30408 0.4293 0.67787 0.0
C4258 C 0.32632 0.44 0.65185 0.0
C4259 C 0.33891 0.45442 0.66339 0.0
C4260 C 0.33383 0.45645 0.682 0.0
H4261 H 0.45526 0.52158 0.65673 0.0
H4262 H 0.42361 0.49916 0.66385 0.0
C4263 C 0.31662 0.44405 0.68917 0.0
C4264 C 0.35745 0.46748 0.65625 0.0
H4265 H 0.39751 0.47081 0.64183 0.0
C4266 C 0.36285 0.48606 0.65556 0.0
C4267 C 0.3701 0.46189 0.65129 0.0
C4268 C 0.36532 0.44222 0.65256 0.0
C4269 C 0.38062 0.49924 0.65021 0.0
C4270 C 0.39322 0.49364 0.64509 0.0
C4271 C 0.38777 0.47504 0.64562 0.0
C4272 C 0.41241 0.50695 0.64015 0.0
C4273 C 0.38591 0.51909 0.65075 0.0
C4274 C 0.41666 0.51861 0.62427 0.0
C4275 C 0.4348 0.53147 0.62014 0.0
C4276 C 0.44903 0.53279 0.6317 0.0
C4277 C 0.4447 0.52082 0.64737 0.0
C4278 C 0.42659 0.50802 0.65152 0.0
H4279 H 0.3761 0.52133 0.65922 0.0
H4280 H 0.39971 0.52751 0.65703 0.0
H4281 H 0.38614 0.52393 0.63587 0.0
H4282 H 0.40596 0.51775 0.61506 0.0
H4283 H 0.43768 0.54027 0.6078 0.0
H4284 H 0.58408 0.90545 0.69231 0.0
H4285 H 0.56131 0.91303 0.68115 0.0
H4286 H 0.53326 0.86194 0.65073 0.0
H4287 H 0.55578 0.85405 0.66209 0.0
H4288 H 0.53804 0.89439 0.6299 0.0
H4289 H 0.50796 0.88577 0.70285 0.0
H4290 H 0.53223 0.90048 0.70146 0.0
H4291 H 0.52242 0.87663 0.69631 0.0
C4292 C 0.57307 0.89582 0.68324 0.0
C4293 C 0.57165 0.87907 0.67823 0.0
C4294 C 0.56012 0.90019 0.67686 0.0
C4295 C 0.54553 0.88792 0.66537 0.0
C4296 C 0.54444 0.87155 0.65964 0.0
H4297 H 0.44442 0.88774 0.64493 0.0
H4298 H 0.46754 0.87943 0.65246 0.0
C4299 C 0.55738 0.86712 0.66606 0.0
C4300 C 0.53105 0.89192 0.65992 0.0
H4301 H 0.49708 0.89765 0.67873 0.0
C4302 C 0.52903 0.89508 0.64053 0.0
C4303 C 0.51923 0.89254 0.67385 0.0
C4304 C 0.52039 0.88854 0.69478 0.0
C4305 C 0.51568 0.89926 0.63472 0.0
C4306 C 0.50422 0.90041 0.64874 0.0
C4307 C 0.506 0.89687 0.66807 0.0
C4308 C 0.49029 0.90533 0.64367 0.0
C4309 C 0.51382 0.90224 0.61365 0.0
C4310 C 0.49549 0.9227 0.63644 0.0
C4311 C 0.48233 0.92748 0.63214 0.0
C4312 C 0.46373 0.91496 0.63502 0.0
C4313 C 0.4586 0.89759 0.64234 0.0
C4314 C 0.47178 0.89285 0.64672 0.0
H4315 H 0.52062 0.89674 0.60441 0.0
H4316 H 0.49925 0.89575 0.60946 0.0
H4317 H 0.52023 0.91708 0.61083 0.0
H4318 H 0.50974 0.93261 0.63427 0.0
H4319 H 0.48672 0.94089 0.62633 0.0
H4320 H 0.22725 0.42248 0.23391 0.0
H4321 H 0.25787 0.4292 0.22505 0.0
H4322 H 0.23681 0.3983 0.17277 0.0
H4323 H 0.2061 0.39163 0.18142 0.0
H4324 H 0.26237 0.39161 0.19305 0.0
H4325 H 0.28775 0.46541 0.18183 0.0
H4326 H 0.27743 0.45665 0.20483 0.0
H4327 H 0.2638 0.4488 0.18341 0.0
C4328 C 0.22911 0.41719 0.22047 0.0
C4329 C 0.21422 0.40668 0.20828 0.0
C4330 C 0.24662 0.42101 0.21546 0.0
C4331 C 0.24961 0.41446 0.19814 0.0
C4332 C 0.23475 0.4035 0.1862 0.0
H4333 H 0.34875 0.45248 0.13419 0.0
H4334 H 0.31826 0.44316 0.14608 0.0
C4335 C 0.21721 0.39966 0.1912 0.0
C4336 C 0.26831 0.41944 0.19222 0.0
H4337 H 0.30936 0.45567 0.17941 0.0
C4338 C 0.27268 0.40561 0.1901 0.0
C4339 C 0.28163 0.4377 0.18822 0.0
C4340 C 0.27745 0.45301 0.18951 0.0
C4341 C 0.29011 0.40958 0.18411 0.0
C4342 C 0.30349 0.42787 0.18036 0.0
C4343 C 0.29909 0.44168 0.18247 0.0
C4344 C 0.32189 0.43294 0.17324 0.0
C4345 C 0.29395 0.39416 0.18138 0.0
C4346 C 0.3341 0.43039 0.18466 0.0
C4347 C 0.35157 0.43563 0.17784 0.0
C4348 C 0.35709 0.44349 0.15949 0.0
C4349 C 0.34482 0.44612 0.14821 0.0
C4350 C 0.32743 0.44093 0.15504 0.0
H4351 H 0.28124 0.3807 0.18102 0.0
H4352 H 0.3016 0.39594 0.16784 0.0
H4353 H 0.30245 0.39411 0.19349 0.0
H4354 H 0.33017 0.42452 0.19889 0.0
H4355 H 0.36071 0.43341 0.18684 0.0
H4356 H 0.56268 0.79658 0.24298 0.0
H4357 H 0.55586 0.82058 0.23453 0.0
H4358 H 0.58826 0.83223 0.18314 0.0
H4359 H 0.59507 0.80828 0.19141 0.0
H4360 H 0.5946 0.86351 0.20333 0.0
H4361 H 0.5207 0.81602 0.19145 0.0
H4362 H 0.52913 0.81437 0.21463 0.0
H4363 H 0.53697 0.80827 0.19343 0.0
C4364 C 0.56827 0.80419 0.22984 0.0
C4365 C 0.57934 0.80044 0.21783 0.0
C4366 C 0.56438 0.8179 0.22505 0.0
C4367 C 0.57136 0.828 0.20809 0.0
C4368 C 0.58274 0.82458 0.1963 0.0
H4369 H 0.53592 0.88942 0.1414 0.0
H4370 H 0.5439 0.86776 0.15487 0.0
C4371 C 0.58667 0.81093 0.2011 0.0
C4372 C 0.56663 0.84195 0.20235 0.0
H4373 H 0.53104 0.84743 0.18848 0.0
C4374 C 0.5807 0.86005 0.20017 0.0
C4375 C 0.5485 0.8373 0.19805 0.0
C4376 C 0.53294 0.81792 0.19933 0.0
C4377 C 0.57715 0.87365 0.19366 0.0
C4378 C 0.559 0.86901 0.1895 0.0
C4379 C 0.54492 0.85094 0.19184 0.0
C4380 C 0.55443 0.88244 0.18156 0.0
C4381 C 0.59289 0.89271 0.19067 0.0
C4382 C 0.55758 0.89783 0.19219 0.0
C4383 C 0.55318 0.91038 0.18443 0.0
C4384 C 0.54551 0.9077 0.16594 0.0
C4385 C 0.54217 0.89212 0.15549 0.0
C4386 C 0.54657 0.87962 0.16324 0.0
H4387 H 0.60618 0.8931 0.19056 0.0
H4388 H 0.59136 0.89848 0.17693 0.0
H4389 H 0.59313 0.90157 0.20255 0.0
H4390 H 0.56337 0.90009 0.20649 0.0
H4391 H 0.55595 0.92226 0.19282 0.0
H4392 H 0.11532 0.65371 0.1315 0.0
H4393 H 0.13727 0.68344 0.14457 0.0
H4394 H 0.10983 0.66838 0.19936 0.0
H4395 H 0.08728 0.63876 0.18615 0.0
H4396 H 0.11797 0.70265 0.18762 0.0
H4397 H 0.17872 0.69462 0.18156 0.0
H4398 H 0.16664 0.69059 0.15926 0.0
H4399 H 0.15579 0.67567 0.17936 0.0
C4400 C 0.11381 0.65675 0.14628 0.0
C4401 C 0.0995 0.64387 0.15778 0.0
C4402 C 0.12654 0.67366 0.1538 0.0
C4403 C 0.12536 0.67797 0.17302 0.0
C4404 C 0.11105 0.66523 0.18453 0.0
H4405 H 0.21223 0.77355 0.23024 0.0
H4406 H 0.18953 0.74239 0.22129 0.0
C4407 C 0.09826 0.6483 0.177 0.0
C4408 C 0.13876 0.69602 0.18084 0.0
H4409 H 0.18433 0.72485 0.18704 0.0
C4410 C 0.13247 0.70747 0.18766 0.0
C4411 C 0.15764 0.70214 0.18115 0.0
C4412 C 0.1651 0.69005 0.17512 0.0
C4413 C 0.14463 0.72513 0.19421 0.0
C4414 C 0.16357 0.7316 0.19353 0.0
C4415 C 0.16981 0.71994 0.18731 0.0
C4416 C 0.17717 0.75048 0.19902 0.0
C4417 C 0.13706 0.73665 0.20191 0.0
C4418 C 0.17792 0.76533 0.18926 0.0
C4419 C 0.19087 0.78313 0.19435 0.0
C4420 C 0.20345 0.7864 0.20914 0.0
C4421 C 0.20285 0.77148 0.21867 0.0
C4422 C 0.18983 0.75368 0.21364 0.0
H4423 H 0.12271 0.72811 0.2067 0.0
H4424 H 0.14529 0.74518 0.21418 0.0
H4425 H 0.13734 0.74581 0.19036 0.0
H4426 H 0.1686 0.76315 0.17757 0.0
H4427 H 0.19121 0.79433 0.18652 0.0
loop_
_geom_bond_atom_site_label_1
_geom_bond_atom_site_label_2
_geom_bond_distance
_geom_bond_site_symmetry_2
_ccdc_geom_bond_type
C0 C1 1.351 . S
C0 N3 1.368 . S
C0 H5 0.931 . S
C1 C0 1.351 . S
C1 N2 1.373 . S
C1 H29 0.930 . S
N2 C1 1.373 . S
N2 C4 1.340 . S
N3 C0 1.368 . S
N3 C4 1.321 . S
N3 Co6 2.135 . S
C4 N2 1.340 . S
C4 N3 1.321 . S
C4 H28 0.930 . S
H5 C0 0.931 . S
Co6 N3 2.135 . S
Co6 N9 2.121 . S
Co6 O14 2.055 . S
Co6 O17 2.039 . S
Co6 N20 2.140 . S
C7 O8 1.235 . S
C7 O17 1.265 . S
O8 C7 1.235 . S
N9 Co6 2.121 . S
N9 C11 1.375 . S
N9 C12 1.313 . S
C10 C11 1.338 . S
C10 N13 1.377 . S
C10 H30 0.930 . S
C11 N9 1.375 . S
C11 C10 1.338 . S
C11 H15 0.931 . S
C12 N9 1.313 . S
C12 N13 1.344 . S
C12 H16 0.930 . S
N13 C10 1.377 . S
N13 C12 1.344 . S
O14 Co6 2.055 . S
O14 C18 1.253 . S
H15 C11 0.931 . S
H16 C12 0.930 . S
O17 Co6 2.039 . S
O17 C7 1.265 . S
C18 O14 1.253 . S
C18 O19 1.227 . S
O19 C18 1.227 . S
N20 Co6 2.140 . S
N20 C23 1.346 . S
N20 C24 1.345 . S
C21 C22 1.387 . S
C21 C25 1.391 . S
C22 C21 1.387 . S
C22 C23 1.369 . S
C22 H31 0.929 . S
C23 N20 1.346 . S
C23 C22 1.369 . S
C23 H26 0.928 . S
C24 N20 1.345 . S
C24 C25 1.371 . S
C24 H27 0.931 . S
C25 C21 1.391 . S
C25 C24 1.371 . S
C25 H32 0.930 . S
H26 C23 0.928 . S
H27 C24 0.931 . S
H28 C4 0.930 . S
H29 C1 0.930 . S
H30 C10 0.930 . S
H31 C22 0.929 . S
H32 C25 0.930 . S
C33 C34 1.351 . S
C33 N36 1.368 . S
C33 H38 0.931 . S
C34 C33 1.351 . S
C34 N35 1.373 . S
C34 H62 0.930 . S
N35 C34 1.373 . S
N35 C37 1.340 . S
N36 C33 1.368 . S
N36 C37 1.321 . S
N36 Co39 2.135 . S
C37 N35 1.340 . S
C37 N36 1.321 . S
C37 H61 0.930 . S
H38 C33 0.931 . S
Co39 N36 2.135 . S
Co39 N42 2.121 . S
Co39 O47 2.055 . S
Co39 O50 2.039 . S
Co39 N53 2.140 . S
C40 O41 1.235 . S
C40 O50 1.265 . S
O41 C40 1.235 . S
N42 Co39 2.121 . S
N42 C44 1.375 . S
N42 C45 1.313 . S
C43 C44 1.338 . S
C43 N46 1.377 . S
C43 H63 0.930 . S
C44 N42 1.375 . S
C44 C43 1.338 . S
C44 H48 0.931 . S
C45 N42 1.313 . S
C45 N46 1.344 . S
C45 H49 0.930 . S
N46 C43 1.377 . S
N46 C45 1.344 . S
O47 Co39 2.055 . S
O47 C51 1.253 . S
H48 C44 0.931 . S
H49 C45 0.930 . S
O50 Co39 2.039 . S
O50 C40 1.265 . S
C51 O47 1.253 . S
C51 O52 1.227 . S
O52 C51 1.227 . S
N53 Co39 2.140 . S
N53 C56 1.346 . S
N53 C57 1.345 . S
C54 C55 1.387 . S
C54 C58 1.391 . S
C55 C54 1.387 . S
C55 C56 1.369 . S
C55 H64 0.929 . S
C56 N53 1.346 . S
C56 C55 1.369 . S
C56 H59 0.928 . S
C57 N53 1.345 . S
C57 C58 1.371 . S
C57 H60 0.931 . S
C58 C54 1.391 . S
C58 C57 1.371 . S
C58 H65 0.930 . S
H59 C56 0.928 . S
H60 C57 0.931 . S
H61 C37 0.930 . S
H62 C34 0.930 . S
H63 C43 0.930 . S
H64 C55 0.929 . S
H65 C58 0.930 . S
C66 C67 1.351 . S
C66 N69 1.368 . S
C66 H71 0.931 . S
C67 C66 1.351 . S
C67 N68 1.373 . S
C67 H95 0.930 . S
N68 C67 1.373 . S
N68 C70 1.340 . S
N69 C66 1.368 . S
N69 C70 1.321 . S
N69 Co72 2.135 . S
C70 N68 1.340 . S
C70 N69 1.321 . S
C70 H94 0.930 . S
H71 C66 0.931 . S
Co72 N69 2.135 . S
Co72 N75 2.121 . S
Co72 O80 2.055 . S
Co72 O83 2.039 . S
Co72 N86 2.140 . S
C73 O74 1.235 . S
C73 O83 1.265 . S
O74 C73 1.235 . S
N75 Co72 2.121 . S
N75 C77 1.375 . S
N75 C78 1.313 . S
C76 C77 1.338 . S
C76 N79 1.377 . S
C76 H96 0.930 . S
C77 N75 1.375 . S
C77 C76 1.338 . S
C77 H81 0.931 . S
C78 N75 1.313 . S
C78 N79 1.344 . S
C78 H82 0.930 . S
N79 C76 1.377 . S
N79 C78 1.344 . S
O80 Co72 2.055 . S
O80 C84 1.253 . S
H81 C77 0.931 . S
H82 C78 0.930 . S
O83 Co72 2.039 . S
O83 C73 1.265 . S
C84 O80 1.253 . S
C84 O85 1.227 . S
O85 C84 1.227 . S
N86 Co72 2.140 . S
N86 C89 1.346 . S
N86 C90 1.345 . S
C87 C88 1.387 . S
C87 C91 1.391 . S
C88 C87 1.387 . S
C88 C89 1.369 . S
C88 H97 0.929 . S
C89 N86 1.346 . S
C89 C88 1.369 . S
C89 H92 0.928 . S
C90 N86 1.345 . S
C90 C91 1.371 . S
C90 H93 0.931 . S
C91 C87 1.391 . S
C91 C90 1.371 . S
C91 H98 0.930 . S
H92 C89 0.928 . S
H93 C90 0.931 . S
H94 C70 0.930 . S
H95 C67 0.930 . S
H96 C76 0.930 . S
H97 C88 0.929 . S
H98 C91 0.930 . S
C99 C100 1.351 . S
C99 N102 1.368 . S
C99 H104 0.931 . S
C100 C99 1.351 . S
C100 N101 1.373 . S
C100 H128 0.930 . S
N101 C100 1.373 . S
N101 C103 1.340 . S
N102 C99 1.368 . S
N102 C103 1.321 . S
N102 Co105 2.135 . S
C103 N101 1.340 . S
C103 N102 1.321 . S
C103 H127 0.930 . S
H104 C99 0.931 . S
Co105 N102 2.135 . S
Co105 N108 2.121 . S
Co105 O113 2.055 . S
Co105 O116 2.039 . S
Co105 N119 2.140 . S
C106 O107 1.227 . S
C106 O116 1.265 . S
O107 C106 1.227 . S
N108 Co105 2.121 . S
N108 C110 1.375 . S
N108 C111 1.313 . S
C109 C110 1.338 . S
C109 N112 1.377 . S
C109 H129 0.930 . S
C110 N108 1.375 . S
C110 C109 1.338 . S
C110 H114 0.931 . S
C111 N108 1.313 . S
C111 N112 1.344 . S
C111 H115 0.930 . S
N112 C109 1.377 . S
N112 C111 1.344 . S
O113 Co105 2.055 . S
O113 C117 1.253 . S
H114 C110 0.931 . S
H115 C111 0.930 . S
O116 Co105 2.039 . S
O116 C106 1.265 . S
C117 O113 1.253 . S
C117 O118 1.227 . S
O118 C117 1.227 . S
N119 Co105 2.140 . S
N119 C122 1.346 . S
N119 C123 1.345 . S
C120 C121 1.387 . S
C120 C124 1.391 . S
C121 C120 1.387 . S
C121 C122 1.369 . S
C121 H130 0.929 . S
C122 N119 1.346 . S
C122 C121 1.369 . S
C122 H125 0.928 . S
C123 N119 1.345 . S
C123 C124 1.371 . S
C123 H126 0.931 . S
C124 C120 1.391 . S
C124 C123 1.371 . S
C124 H131 0.930 . S
H125 C122 0.928 . S
H126 C123 0.931 . S
H127 C103 0.930 . S
H128 C100 0.930 . S
H129 C109 0.930 . S
H130 C121 0.929 . S
H131 C124 0.930 . S
C132 C133 1.351 . S
C132 N135 1.368 . S
C132 H137 0.931 . S
C133 C132 1.351 . S
C133 N134 1.373 . S
C133 H161 0.930 . S
N134 C133 1.373 . S
N134 C136 1.340 . S
N135 C132 1.368 . S
N135 C136 1.321 . S
N135 Co138 2.135 . S
C136 N134 1.340 . S
C136 N135 1.321 . S
C136 H160 0.930 . S
H137 C132 0.931 . S
Co138 N135 2.135 . S
Co138 N141 2.121 . S
Co138 O146 2.055 . S
Co138 O149 2.039 . S
Co138 N152 2.140 . S
C139 O140 1.227 . S
C139 O149 1.265 . S
O140 C139 1.227 . S
N141 Co138 2.121 . S
N141 C143 1.375 . S
N141 C144 1.313 . S
C142 C143 1.338 . S
C142 N145 1.377 . S
C142 H162 0.930 . S
C143 N141 1.375 . S
C143 C142 1.338 . S
C143 H147 0.931 . S
C144 N141 1.313 . S
C144 N145 1.344 . S
C144 H148 0.930 . S
N145 C142 1.377 . S
N145 C144 1.344 . S
O146 Co138 2.055 . S
O146 C150 1.253 . S
H147 C143 0.931 . S
H148 C144 0.930 . S
O149 Co138 2.039 . S
O149 C139 1.265 . S
C150 O146 1.253 . S
C150 O151 1.227 . S
O151 C150 1.227 . S
N152 Co138 2.140 . S
N152 C155 1.346 . S
N152 C156 1.345 . S
C153 C154 1.387 . S
C153 C157 1.391 . S
C154 C153 1.387 . S
C154 C155 1.369 . S
C154 H163 0.929 . S
C155 N152 1.346 . S
C155 C154 1.369 . S
C155 H158 0.928 . S
C156 N152 1.345 . S
C156 C157 1.371 . S
C156 H159 0.931 . S
C157 C153 1.391 . S
C157 C156 1.371 . S
C157 H164 0.930 . S
H158 C155 0.928 . S
H159 C156 0.931 . S
H160 C136 0.930 . S
H161 C133 0.930 . S
H162 C142 0.930 . S
H163 C154 0.929 . S
H164 C157 0.930 . S
C165 C166 1.351 . S
C165 N168 1.368 . S
C165 H170 0.931 . S
C166 C165 1.351 . S
C166 N167 1.373 . S
C166 H194 0.930 . S
N167 C166 1.373 . S
N167 C169 1.340 . S
N168 C165 1.368 . S
N168 C169 1.321 . S
N168 Co171 2.135 . S
C169 N167 1.340 . S
C169 N168 1.321 . S
C169 H193 0.930 . S
H170 C165 0.931 . S
Co171 N168 2.135 . S
Co171 N174 2.121 . S
Co171 O179 2.055 . S
Co171 O182 2.039 . S
Co171 N185 2.140 . S
C172 O173 1.227 . S
C172 O182 1.265 . S
O173 C172 1.227 . S
N174 Co171 2.121 . S
N174 C176 1.375 . S
N174 C177 1.313 . S
C175 C176 1.338 . S
C175 N178 1.377 . S
C175 H195 0.930 . S
C176 N174 1.375 . S
C176 C175 1.338 . S
C176 H180 0.931 . S
C177 N174 1.313 . S
C177 N178 1.344 . S
C177 H181 0.930 . S
N178 C175 1.377 . S
N178 C177 1.344 . S
O179 Co171 2.055 . S
O179 C183 1.253 . S
H180 C176 0.931 . S
H181 C177 0.930 . S
O182 Co171 2.039 . S
O182 C172 1.265 . S
C183 O179 1.253 . S
C183 O184 1.227 . S
O184 C183 1.227 . S
N185 Co171 2.140 . S
N185 C188 1.346 . S
N185 C189 1.345 . S
C186 C187 1.387 . S
C186 C190 1.391 . S
C187 C186 1.387 . S
C187 C188 1.369 . S
C187 H196 0.929 . S
C188 N185 1.346 . S
C188 C187 1.369 . S
C188 H191 0.928 . S
C189 N185 1.345 . S
C189 C190 1.371 . S
C189 H192 0.931 . S
C190 C186 1.391 . S
C190 C189 1.371 . S
C190 H197 0.930 . S
H191 C188 0.928 . S
H192 C189 0.931 . S
H193 C169 0.930 . S
H194 C166 0.930 . S
H195 C175 0.930 . S
H196 C187 0.929 . S
H197 C190 0.930 . S
C198 C199 1.351 . S
C198 N201 1.368 . S
C198 H203 0.931 . S
C199 C198 1.351 . S
C199 N200 1.373 . S
C199 H227 0.930 . S
N200 C199 1.373 . S
N200 C202 1.340 . S
N201 C198 1.368 . S
N201 C202 1.321 . S
N201 Co204 2.135 . S
C202 N200 1.340 . S
C202 N201 1.321 . S
C202 H226 0.930 . S
H203 C198 0.931 . S
Co204 N201 2.135 . S
Co204 N207 2.121 . S
Co204 O212 2.055 . S
Co204 O215 2.039 . S
Co204 N218 2.140 . S
C205 O206 1.235 . S
C205 O215 1.265 . S
O206 C205 1.235 . S
N207 Co204 2.121 . S
N207 C209 1.375 . S
N207 C210 1.313 . S
C208 C209 1.338 . S
C208 N211 1.377 . S
C208 H228 0.930 . S
C209 N207 1.375 . S
C209 C208 1.338 . S
C209 H213 0.931 . S
C210 N207 1.313 . S
C210 N211 1.344 . S
C210 H214 0.930 . S
N211 C208 1.377 . S
N211 C210 1.344 . S
O212 Co204 2.055 . S
O212 C216 1.253 . S
H213 C209 0.931 . S
H214 C210 0.930 . S
O215 Co204 2.039 . S
O215 C205 1.265 . S
C216 O212 1.253 . S
C216 O217 1.227 . S
O217 C216 1.227 . S
N218 Co204 2.140 . S
N218 C221 1.346 . S
N218 C222 1.345 . S
C219 C220 1.387 . S
C219 C223 1.391 . S
C220 C219 1.387 . S
C220 C221 1.369 . S
C220 H229 0.929 . S
C221 N218 1.346 . S
C221 C220 1.369 . S
C221 H224 0.928 . S
C222 N218 1.345 . S
C222 C223 1.371 . S
C222 H225 0.931 . S
C223 C219 1.391 . S
C223 C222 1.371 . S
C223 H230 0.930 . S
H224 C221 0.928 . S
H225 C222 0.931 . S
H226 C202 0.930 . S
H227 C199 0.930 . S
H228 C208 0.930 . S
H229 C220 0.929 . S
H230 C223 0.930 . S
C231 C232 1.351 . S
C231 N234 1.368 . S
C231 H236 0.931 . S
C232 C231 1.351 . S
C232 N233 1.373 . S
C232 H260 0.930 . S
N233 C232 1.373 . S
N233 C235 1.340 . S
N234 C231 1.368 . S
N234 C235 1.321 . S
N234 Co237 2.135 . S
C235 N233 1.340 . S
C235 N234 1.321 . S
C235 H259 0.930 . S
H236 C231 0.931 . S
Co237 N234 2.135 . S
Co237 N240 2.121 . S
Co237 O245 2.055 . S
Co237 O248 2.039 . S
Co237 N251 2.140 . S
C238 O239 1.235 . S
C238 O248 1.265 . S
O239 C238 1.235 . S
N240 Co237 2.121 . S
N240 C242 1.375 . S
N240 C243 1.313 . S
C241 C242 1.338 . S
C241 N244 1.377 . S
C241 H261 0.930 . S
C242 N240 1.375 . S
C242 C241 1.338 . S
C242 H246 0.931 . S
C243 N240 1.313 . S
C243 N244 1.344 . S
C243 H247 0.930 . S
N244 C241 1.377 . S
N244 C243 1.344 . S
O245 Co237 2.055 . S
O245 C249 1.253 . S
H246 C242 0.931 . S
H247 C243 0.930 . S
O248 Co237 2.039 . S
O248 C238 1.265 . S
C249 O245 1.253 . S
C249 O250 1.227 . S
O250 C249 1.227 . S
N251 Co237 2.140 . S
N251 C254 1.346 . S
N251 C255 1.345 . S
C252 C253 1.387 . S
C252 C256 1.391 . S
C253 C252 1.387 . S
C253 C254 1.369 . S
C253 H262 0.929 . S
C254 N251 1.346 . S
C254 C253 1.369 . S
C254 H257 0.928 . S
C255 N251 1.345 . S
C255 C256 1.371 . S
C255 H258 0.931 . S
C256 C252 1.391 . S
C256 C255 1.371 . S
C256 H263 0.930 . S
H257 C254 0.928 . S
H258 C255 0.931 . S
H259 C235 0.930 . S
H260 C232 0.930 . S
H261 C241 0.930 . S
H262 C253 0.929 . S
H263 C256 0.930 . S
C264 C265 1.351 . S
C264 N267 1.368 . S
C264 H269 0.931 . S
C265 C264 1.351 . S
C265 N266 1.373 . S
C265 H293 0.930 . S
N266 C265 1.373 . S
N266 C268 1.340 . S
N267 C264 1.368 . S
N267 C268 1.321 . S
N267 Co270 2.135 . S
C268 N266 1.340 . S
C268 N267 1.321 . S
C268 H292 0.930 . S
H269 C264 0.931 . S
Co270 N267 2.135 . S
Co270 N273 2.121 . S
Co270 O278 2.055 . S
Co270 O281 2.039 . S
Co270 N284 2.140 . S
C271 O272 1.235 . S
C271 O281 1.265 . S
O272 C271 1.235 . S
N273 Co270 2.121 . S
N273 C275 1.375 . S
N273 C276 1.313 . S
C274 C275 1.338 . S
C274 N277 1.377 . S
C274 H294 0.930 . S
C275 N273 1.375 . S
C275 C274 1.338 . S
C275 H279 0.931 . S
C276 N273 1.313 . S
C276 N277 1.344 . S
C276 H280 0.930 . S
N277 C274 1.377 . S
N277 C276 1.344 . S
O278 Co270 2.055 . S
O278 C282 1.253 . S
H279 C275 0.931 . S
H280 C276 0.930 . S
O281 Co270 2.039 . S
O281 C271 1.265 . S
C282 O278 1.253 . S
C282 O283 1.227 . S
O283 C282 1.227 . S
N284 Co270 2.140 . S
N284 C287 1.346 . S
N284 C288 1.345 . S
C285 C286 1.387 . S
C285 C289 1.391 . S
C286 C285 1.387 . S
C286 C287 1.369 . S
C286 H295 0.929 . S
C287 N284 1.346 . S
C287 C286 1.369 . S
C287 H290 0.928 . S
C288 N284 1.345 . S
C288 C289 1.371 . S
C288 H291 0.931 . S
C289 C285 1.391 . S
C289 C288 1.371 . S
C289 H296 0.930 . S
H290 C287 0.928 . S
H291 C288 0.931 . S
H292 C268 0.930 . S
H293 C265 0.930 . S
H294 C274 0.930 . S
H295 C286 0.929 . S
H296 C289 0.930 . S
C297 C298 1.351 . S
C297 N300 1.368 . S
C297 H302 0.931 . S
C298 C297 1.351 . S
C298 N299 1.373 . S
C298 H326 0.930 . S
N299 C298 1.373 . S
N299 C301 1.340 . S
N300 C297 1.368 . S
N300 C301 1.321 . S
N300 Co303 2.135 . S
C301 N299 1.340 . S
C301 N300 1.321 . S
C301 H325 0.930 . S
H302 C297 0.931 . S
Co303 N300 2.135 . S
Co303 N306 2.121 . S
Co303 O311 2.055 . S
Co303 O314 2.039 . S
Co303 N317 2.140 . S
C304 O305 1.227 . S
C304 O314 1.265 . S
O305 C304 1.227 . S
N306 Co303 2.121 . S
N306 C308 1.375 . S
N306 C309 1.313 . S
C307 C308 1.338 . S
C307 N310 1.377 . S
C307 H327 0.930 . S
C308 N306 1.375 . S
C308 C307 1.338 . S
C308 H312 0.931 . S
C309 N306 1.313 . S
C309 N310 1.344 . S
C309 H313 0.930 . S
N310 C307 1.377 . S
N310 C309 1.344 . S
O311 Co303 2.055 . S
O311 C315 1.253 . S
H312 C308 0.931 . S
H313 C309 0.930 . S
O314 Co303 2.039 . S
O314 C304 1.265 . S
C315 O311 1.253 . S
C315 O316 1.227 . S
O316 C315 1.227 . S
N317 Co303 2.140 . S
N317 C320 1.346 . S
N317 C321 1.345 . S
C318 C319 1.387 . S
C318 C322 1.391 . S
C319 C318 1.387 . S
C319 C320 1.369 . S
C319 H328 0.929 . S
C320 N317 1.346 . S
C320 C319 1.369 . S
C320 H323 0.928 . S
C321 N317 1.345 . S
C321 C322 1.371 . S
C321 H324 0.931 . S
C322 C318 1.391 . S
C322 C321 1.371 . S
C322 H329 0.930 . S
H323 C320 0.928 . S
H324 C321 0.931 . S
H325 C301 0.930 . S
H326 C298 0.930 . S
H327 C307 0.930 . S
H328 C319 0.929 . S
H329 C322 0.930 . S
C330 C331 1.351 . S
C330 N333 1.368 . S
C330 H335 0.931 . S
C331 C330 1.351 . S
C331 N332 1.373 . S
C331 H359 0.930 . S
N332 C331 1.373 . S
N332 C334 1.340 . S
N333 C330 1.368 . S
N333 C334 1.321 . S
N333 Co336 2.135 . S
C334 N332 1.340 . S
C334 N333 1.321 . S
C334 H358 0.930 . S
H335 C330 0.931 . S
Co336 N333 2.135 . S
Co336 N339 2.121 . S
Co336 O344 2.055 . S
Co336 O347 2.039 . S
Co336 N350 2.140 . S
C337 O338 1.227 . S
C337 O347 1.265 . S
O338 C337 1.227 . S
N339 Co336 2.121 . S
N339 C341 1.375 . S
N339 C342 1.313 . S
C340 C341 1.338 . S
C340 N343 1.377 . S
C340 H360 0.930 . S
C341 N339 1.375 . S
C341 C340 1.338 . S
C341 H345 0.931 . S
C342 N339 1.313 . S
C342 N343 1.344 . S
C342 H346 0.930 . S
N343 C340 1.377 . S
N343 C342 1.344 . S
O344 Co336 2.055 . S
O344 C348 1.253 . S
H345 C341 0.931 . S
H346 C342 0.930 . S
O347 Co336 2.039 . S
O347 C337 1.265 . S
C348 O344 1.253 . S
C348 O349 1.227 . S
O349 C348 1.227 . S
N350 Co336 2.140 . S
N350 C353 1.346 . S
N350 C354 1.345 . S
C351 C352 1.387 . S
C351 C355 1.391 . S
C352 C351 1.387 . S
C352 C353 1.369 . S
C352 H361 0.929 . S
C353 N350 1.346 . S
C353 C352 1.369 . S
C353 H356 0.928 . S
C354 N350 1.345 . S
C354 C355 1.371 . S
C354 H357 0.931 . S
C355 C351 1.391 . S
C355 C354 1.371 . S
C355 H362 0.930 . S
H356 C353 0.928 . S
H357 C354 0.931 . S
H358 C334 0.930 . S
H359 C331 0.930 . S
H360 C340 0.930 . S
H361 C352 0.929 . S
H362 C355 0.930 . S
C363 C364 1.351 . S
C363 N366 1.368 . S
C363 H368 0.931 . S
C364 C363 1.351 . S
C364 N365 1.373 . S
C364 H392 0.930 . S
N365 C364 1.373 . S
N365 C367 1.340 . S
N366 C363 1.368 . S
N366 C367 1.321 . S
N366 Co369 2.135 . S
C367 N365 1.340 . S
C367 N366 1.321 . S
C367 H391 0.930 . S
H368 C363 0.931 . S
Co369 N366 2.135 . S
Co369 N372 2.121 . S
Co369 O377 2.055 . S
Co369 O380 2.039 . S
Co369 N383 2.140 . S
C370 O371 1.227 . S
C370 O380 1.265 . S
O371 C370 1.227 . S
N372 Co369 2.121 . S
N372 C374 1.375 . S
N372 C375 1.313 . S
C373 C374 1.338 . S
C373 N376 1.377 . S
C373 H393 0.930 . S
C374 N372 1.375 . S
C374 C373 1.338 . S
C374 H378 0.931 . S
C375 N372 1.313 . S
C375 N376 1.344 . S
C375 H379 0.930 . S
N376 C373 1.377 . S
N376 C375 1.344 . S
O377 Co369 2.055 . S
O377 C381 1.253 . S
H378 C374 0.931 . S
H379 C375 0.930 . S
O380 Co369 2.039 . S
O380 C370 1.265 . S
C381 O377 1.253 . S
C381 O382 1.227 . S
O382 C381 1.227 . S
N383 Co369 2.140 . S
N383 C386 1.346 . S
N383 C387 1.345 . S
C384 C385 1.387 . S
C384 C388 1.391 . S
C385 C384 1.387 . S
C385 C386 1.369 . S
C385 H394 0.929 . S
C386 N383 1.346 . S
C386 C385 1.369 . S
C386 H389 0.928 . S
C387 N383 1.345 . S
C387 C388 1.371 . S
C387 H390 0.931 . S
C388 C384 1.391 . S
C388 C387 1.371 . S
C388 H395 0.930 . S
H389 C386 0.928 . S
H390 C387 0.931 . S
H391 C367 0.930 . S
H392 C364 0.930 . S
H393 C373 0.930 . S
H394 C385 0.929 . S
H395 C388 0.930 . S
C396 C397 1.351 . S
C396 N399 1.368 . S
C396 H401 0.931 . S
C397 C396 1.351 . S
C397 N398 1.373 . S
C397 H425 0.930 . S
N398 C397 1.373 . S
N398 C400 1.340 . S
N399 C396 1.368 . S
N399 C400 1.321 . S
N399 Co402 2.135 . S
C400 N398 1.340 . S
C400 N399 1.321 . S
C400 H424 0.930 . S
H401 C396 0.931 . S
Co402 N399 2.135 . S
Co402 N405 2.121 . S
Co402 O410 2.055 . S
Co402 O413 2.039 . S
Co402 N416 2.140 . S
C403 O404 1.227 . S
C403 O413 1.265 . S
O404 C403 1.227 . S
N405 Co402 2.121 . S
N405 C407 1.375 . S
N405 C408 1.313 . S
C406 C407 1.338 . S
C406 N409 1.377 . S
C406 H426 0.930 . S
C407 N405 1.375 . S
C407 C406 1.338 . S
C407 H411 0.931 . S
C408 N405 1.313 . S
C408 N409 1.344 . S
C408 H412 0.930 . S
N409 C406 1.377 . S
N409 C408 1.344 . S
O410 Co402 2.055 . S
O410 C414 1.253 . S
H411 C407 0.931 . S
H412 C408 0.930 . S
O413 Co402 2.039 . S
O413 C403 1.265 . S
C414 O410 1.253 . S
C414 O415 1.227 . S
O415 C414 1.227 . S
N416 Co402 2.140 . S
N416 C419 1.346 . S
N416 C420 1.345 . S
C417 C418 1.387 . S
C417 C421 1.391 . S
C418 C417 1.387 . S
C418 C419 1.369 . S
C418 H427 0.929 . S
C419 N416 1.346 . S
C419 C418 1.369 . S
C419 H422 0.928 . S
C420 N416 1.345 . S
C420 C421 1.371 . S
C420 H423 0.931 . S
C421 C417 1.391 . S
C421 C420 1.371 . S
C421 H428 0.930 . S
H422 C419 0.928 . S
H423 C420 0.931 . S
H424 C400 0.930 . S
H425 C397 0.930 . S
H426 C406 0.930 . S
H427 C418 0.929 . S
H428 C421 0.930 . S
C429 C430 1.351 . S
C429 N432 1.368 . S
C429 H434 0.931 . S
C430 C429 1.351 . S
C430 N431 1.373 . S
C430 H458 0.930 . S
N431 C430 1.373 . S
N431 C433 1.340 . S
N432 C429 1.368 . S
N432 C433 1.321 . S
N432 Co435 2.135 . S
C433 N431 1.340 . S
C433 N432 1.321 . S
C433 H457 0.930 . S
H434 C429 0.931 . S
Co435 N432 2.135 . S
Co435 N438 2.121 . S
Co435 O443 2.055 . S
Co435 O446 2.039 . S
Co435 N449 2.140 . S
C436 O437 1.227 . S
C436 O446 1.265 . S
O437 C436 1.227 . S
N438 Co435 2.121 . S
N438 C440 1.375 . S
N438 C441 1.313 . S
C439 C440 1.338 . S
C439 N442 1.377 . S
C439 H459 0.930 . S
C440 N438 1.375 . S
C440 C439 1.338 . S
C440 H444 0.931 . S
C441 N438 1.313 . S
C441 N442 1.344 . S
C441 H445 0.930 . S
N442 C439 1.377 . S
N442 C441 1.344 . S
O443 Co435 2.055 . S
O443 C447 1.253 . S
H444 C440 0.931 . S
H445 C441 0.930 . S
O446 Co435 2.039 . S
O446 C436 1.265 . S
C447 O443 1.253 . S
C447 O448 1.227 . S
O448 C447 1.227 . S
N449 Co435 2.140 . S
N449 C452 1.346 . S
N449 C453 1.345 . S
C450 C451 1.387 . S
C450 C454 1.391 . S
C451 C450 1.387 . S
C451 C452 1.369 . S
C451 H460 0.929 . S
C452 N449 1.346 . S
C452 C451 1.369 . S
C452 H455 0.928 . S
C453 N449 1.345 . S
C453 C454 1.371 . S
C453 H456 0.931 . S
C454 C450 1.391 . S
C454 C453 1.371 . S
C454 H461 0.930 . S
H455 C452 0.928 . S
H456 C453 0.931 . S
H457 C433 0.930 . S
H458 C430 0.930 . S
H459 C439 0.930 . S
H460 C451 0.929 . S
H461 C454 0.930 . S
C462 C463 1.351 . S
C462 N465 1.368 . S
C462 H467 0.931 . S
C463 C462 1.351 . S
C463 N464 1.373 . S
C463 H491 0.930 . S
N464 C463 1.373 . S
N464 C466 1.340 . S
N465 C462 1.368 . S
N465 C466 1.321 . S
N465 Co468 2.135 . S
C466 N464 1.340 . S
C466 N465 1.321 . S
C466 H490 0.930 . S
H467 C462 0.931 . S
Co468 N465 2.135 . S
Co468 N471 2.121 . S
Co468 O476 2.055 . S
Co468 O479 2.039 . S
Co468 N482 2.140 . S
C469 O470 1.227 . S
C469 O479 1.265 . S
O470 C469 1.227 . S
N471 Co468 2.121 . S
N471 C473 1.375 . S
N471 C474 1.313 . S
C472 C473 1.338 . S
C472 N475 1.377 . S
C472 H492 0.930 . S
C473 N471 1.375 . S
C473 C472 1.338 . S
C473 H477 0.931 . S
C474 N471 1.313 . S
C474 N475 1.344 . S
C474 H478 0.930 . S
N475 C472 1.377 . S
N475 C474 1.344 . S
O476 Co468 2.055 . S
O476 C480 1.253 . S
H477 C473 0.931 . S
H478 C474 0.930 . S
O479 Co468 2.039 . S
O479 C469 1.265 . S
C480 O476 1.253 . S
C480 O481 1.227 . S
O481 C480 1.227 . S
N482 Co468 2.140 . S
N482 C485 1.346 . S
N482 C486 1.345 . S
C483 C484 1.387 . S
C483 C487 1.391 . S
C484 C483 1.387 . S
C484 C485 1.369 . S
C484 H493 0.929 . S
C485 N482 1.346 . S
C485 C484 1.369 . S
C485 H488 0.928 . S
C486 N482 1.345 . S
C486 C487 1.371 . S
C486 H489 0.931 . S
C487 C483 1.391 . S
C487 C486 1.371 . S
C487 H494 0.930 . S
H488 C485 0.928 . S
H489 C486 0.931 . S
H490 C466 0.930 . S
H491 C463 0.930 . S
H492 C472 0.930 . S
H493 C484 0.929 . S
H494 C487 0.930 . S
C495 C496 1.351 . S
C495 N498 1.368 . S
C495 H500 0.931 . S
C496 C495 1.351 . S
C496 N497 1.373 . S
C496 H524 0.930 . S
N497 C496 1.373 . S
N497 C499 1.340 . S
N498 C495 1.368 . S
N498 C499 1.321 . S
N498 Co501 2.135 . S
C499 N497 1.340 . S
C499 N498 1.321 . S
C499 H523 0.930 . S
H500 C495 0.931 . S
Co501 N498 2.135 . S
Co501 N504 2.121 . S
Co501 O509 2.055 . S
Co501 O512 2.039 . S
Co501 N515 2.140 . S
C502 O503 1.227 . S
C502 O512 1.265 . S
O503 C502 1.227 . S
N504 Co501 2.121 . S
N504 C506 1.375 . S
N504 C507 1.313 . S
C505 C506 1.338 . S
C505 N508 1.377 . S
C505 H525 0.930 . S
C506 N504 1.375 . S
C506 C505 1.338 . S
C506 H510 0.931 . S
C507 N504 1.313 . S
C507 N508 1.344 . S
C507 H511 0.930 . S
N508 C505 1.377 . S
N508 C507 1.344 . S
O509 Co501 2.055 . S
O509 C513 1.253 . S
H510 C506 0.931 . S
H511 C507 0.930 . S
O512 Co501 2.039 . S
O512 C502 1.265 . S
C513 O509 1.253 . S
C513 O514 1.227 . S
O514 C513 1.227 . S
N515 Co501 2.140 . S
N515 C518 1.346 . S
N515 C519 1.345 . S
C516 C517 1.387 . S
C516 C520 1.391 . S
C517 C516 1.387 . S
C517 C518 1.369 . S
C517 H526 0.929 . S
C518 N515 1.346 . S
C518 C517 1.369 . S
C518 H521 0.928 . S
C519 N515 1.345 . S
C519 C520 1.371 . S
C519 H522 0.931 . S
C520 C516 1.391 . S
C520 C519 1.371 . S
C520 H527 0.930 . S
H521 C518 0.928 . S
H522 C519 0.931 . S
H523 C499 0.930 . S
H524 C496 0.930 . S
H525 C505 0.930 . S
H526 C517 0.929 . S
H527 C520 0.930 . S
C528 C529 1.351 . S
C528 N531 1.368 . S
C528 H533 0.931 . S
C529 C528 1.351 . S
C529 N530 1.373 . S
C529 H557 0.930 . S
N530 C529 1.373 . S
N530 C532 1.340 . S
N531 C528 1.368 . S
N531 C532 1.321 . S
N531 Co534 2.135 . S
C532 N530 1.340 . S
C532 N531 1.321 . S
C532 H556 0.930 . S
H533 C528 0.931 . S
Co534 N531 2.135 . S
Co534 N537 2.121 . S
Co534 O542 2.055 . S
Co534 O545 2.039 . S
Co534 N548 2.140 . S
C535 O536 1.227 . S
C535 O545 1.265 . S
O536 C535 1.227 . S
N537 Co534 2.121 . S
N537 C539 1.375 . S
N537 C540 1.313 . S
C538 C539 1.338 . S
C538 N541 1.377 . S
C538 H558 0.930 . S
C539 N537 1.375 . S
C539 C538 1.338 . S
C539 H543 0.931 . S
C540 N537 1.313 . S
C540 N541 1.344 . S
C540 H544 0.930 . S
N541 C538 1.377 . S
N541 C540 1.344 . S
O542 Co534 2.055 . S
O542 C546 1.253 . S
H543 C539 0.931 . S
H544 C540 0.930 . S
O545 Co534 2.039 . S
O545 C535 1.265 . S
C546 O542 1.253 . S
C546 O547 1.227 . S
O547 C546 1.227 . S
N548 Co534 2.140 . S
N548 C551 1.346 . S
N548 C552 1.345 . S
C549 C550 1.387 . S
C549 C553 1.391 . S
C550 C549 1.387 . S
C550 C551 1.369 . S
C550 H559 0.929 . S
C551 N548 1.346 . S
C551 C550 1.369 . S
C551 H554 0.928 . S
C552 N548 1.345 . S
C552 C553 1.371 . S
C552 H555 0.931 . S
C553 C549 1.391 . S
C553 C552 1.371 . S
C553 H560 0.930 . S
H554 C551 0.928 . S
H555 C552 0.931 . S
H556 C532 0.930 . S
H557 C529 0.930 . S
H558 C538 0.930 . S
H559 C550 0.929 . S
H560 C553 0.930 . S
C561 C562 1.351 . S
C561 N564 1.368 . S
C561 H566 0.931 . S
C562 C561 1.351 . S
C562 N563 1.373 . S
C562 H590 0.930 . S
N563 C562 1.373 . S
N563 C565 1.340 . S
N564 C561 1.368 . S
N564 C565 1.321 . S
N564 Co567 2.135 . S
C565 N563 1.340 . S
C565 N564 1.321 . S
C565 H589 0.930 . S
H566 C561 0.931 . S
Co567 N564 2.135 . S
Co567 N570 2.121 . S
Co567 O575 2.055 . S
Co567 O578 2.039 . S
Co567 N581 2.140 . S
C568 O569 1.227 . S
C568 O578 1.265 . S
O569 C568 1.227 . S
N570 Co567 2.121 . S
N570 C572 1.375 . S
N570 C573 1.313 . S
C571 C572 1.338 . S
C571 N574 1.377 . S
C571 H591 0.930 . S
C572 N570 1.375 . S
C572 C571 1.338 . S
C572 H576 0.931 . S
C573 N570 1.313 . S
C573 N574 1.344 . S
C573 H577 0.930 . S
N574 C571 1.377 . S
N574 C573 1.344 . S
O575 Co567 2.055 . S
O575 C579 1.253 . S
H576 C572 0.931 . S
H577 C573 0.930 . S
O578 Co567 2.039 . S
O578 C568 1.265 . S
C579 O575 1.253 . S
C579 O580 1.227 . S
O580 C579 1.227 . S
N581 Co567 2.140 . S
N581 C584 1.346 . S
N581 C585 1.345 . S
C582 C583 1.387 . S
C582 C586 1.391 . S
C583 C582 1.387 . S
C583 C584 1.369 . S
C583 H592 0.929 . S
C584 N581 1.346 . S
C584 C583 1.369 . S
C584 H587 0.928 . S
C585 N581 1.345 . S
C585 C586 1.371 . S
C585 H588 0.931 . S
C586 C582 1.391 . S
C586 C585 1.371 . S
C586 H593 0.930 . S
H587 C584 0.928 . S
H588 C585 0.931 . S
H589 C565 0.930 . S
H590 C562 0.930 . S
H591 C571 0.930 . S
H592 C583 0.929 . S
H593 C586 0.930 . S
C594 C595 1.351 . S
C594 N597 1.368 . S
C594 H599 0.931 . S
C595 C594 1.351 . S
C595 N596 1.373 . S
C595 H623 0.930 . S
N596 C595 1.373 . S
N596 C598 1.340 . S
N597 C594 1.368 . S
N597 C598 1.321 . S
N597 Co600 2.135 . S
C598 N596 1.340 . S
C598 N597 1.321 . S
C598 H622 0.930 . S
H599 C594 0.931 . S
Co600 N597 2.135 . S
Co600 N603 2.121 . S
Co600 O608 2.055 . S
Co600 O611 2.039 . S
Co600 N614 2.140 . S
C601 O602 1.227 . S
C601 O611 1.265 . S
O602 C601 1.227 . S
N603 Co600 2.121 . S
N603 C605 1.375 . S
N603 C606 1.313 . S
C604 C605 1.338 . S
C604 N607 1.377 . S
C604 H624 0.930 . S
C605 N603 1.375 . S
C605 C604 1.338 . S
C605 H609 0.931 . S
C606 N603 1.313 . S
C606 N607 1.344 . S
C606 H610 0.930 . S
N607 C604 1.377 . S
N607 C606 1.344 . S
O608 Co600 2.055 . S
O608 C612 1.253 . S
H609 C605 0.931 . S
H610 C606 0.930 . S
O611 Co600 2.039 . S
O611 C601 1.265 . S
C612 O608 1.253 . S
C612 O613 1.227 . S
O613 C612 1.227 . S
N614 Co600 2.140 . S
N614 C617 1.346 . S
N614 C618 1.345 . S
C615 C616 1.387 . S
C615 C619 1.391 . S
C616 C615 1.387 . S
C616 C617 1.369 . S
C616 H625 0.929 . S
C617 N614 1.346 . S
C617 C616 1.369 . S
C617 H620 0.928 . S
C618 N614 1.345 . S
C618 C619 1.371 . S
C618 H621 0.931 . S
C619 C615 1.391 . S
C619 C618 1.371 . S
C619 H626 0.930 . S
H620 C617 0.928 . S
H621 C618 0.931 . S
H622 C598 0.930 . S
H623 C595 0.930 . S
H624 C604 0.930 . S
H625 C616 0.929 . S
H626 C619 0.930 . S
C627 C628 1.351 . S
C627 N630 1.368 . S
C627 H632 0.931 . S
C628 C627 1.351 . S
C628 N629 1.373 . S
C628 H656 0.930 . S
N629 C628 1.373 . S
N629 C631 1.340 . S
N630 C627 1.368 . S
N630 C631 1.321 . S
N630 Co633 2.135 . S
C631 N629 1.340 . S
C631 N630 1.321 . S
C631 H655 0.930 . S
H632 C627 0.931 . S
Co633 N630 2.135 . S
Co633 N636 2.121 . S
Co633 O641 2.055 . S
Co633 O644 2.039 . S
Co633 N647 2.140 . S
C634 O635 1.227 . S
C634 O644 1.265 . S
O635 C634 1.227 . S
N636 Co633 2.121 . S
N636 C638 1.375 . S
N636 C639 1.313 . S
C637 C638 1.338 . S
C637 N640 1.377 . S
C637 H657 0.930 . S
C638 N636 1.375 . S
C638 C637 1.338 . S
C638 H642 0.931 . S
C639 N636 1.313 . S
C639 N640 1.344 . S
C639 H643 0.930 . S
N640 C637 1.377 . S
N640 C639 1.344 . S
O641 Co633 2.055 . S
O641 C645 1.253 . S
H642 C638 0.931 . S
H643 C639 0.930 . S
O644 Co633 2.039 . S
O644 C634 1.265 . S
C645 O641 1.253 . S
C645 O646 1.227 . S
O646 C645 1.227 . S
N647 Co633 2.140 . S
N647 C650 1.346 . S
N647 C651 1.345 . S
C648 C649 1.387 . S
C648 C652 1.391 . S
C649 C648 1.387 . S
C649 C650 1.369 . S
C649 H658 0.929 . S
C650 N647 1.346 . S
C650 C649 1.369 . S
C650 H653 0.928 . S
C651 N647 1.345 . S
C651 C652 1.371 . S
C651 H654 0.931 . S
C652 C648 1.391 . S
C652 C651 1.371 . S
C652 H659 0.930 . S
H653 C650 0.928 . S
H654 C651 0.931 . S
H655 C631 0.930 . S
H656 C628 0.930 . S
H657 C637 0.930 . S
H658 C649 0.929 . S
H659 C652 0.930 . S
C660 C661 1.351 . S
C660 N663 1.368 . S
C660 H665 0.931 . S
C661 C660 1.351 . S
C661 N662 1.373 . S
C661 H689 0.930 . S
N662 C661 1.373 . S
N662 C664 1.340 . S
N663 C660 1.368 . S
N663 C664 1.321 . S
N663 Co666 2.135 . S
C664 N662 1.340 . S
C664 N663 1.321 . S
C664 H688 0.930 . S
H665 C660 0.931 . S
Co666 N663 2.135 . S
Co666 N669 2.121 . S
Co666 O674 2.055 . S
Co666 O677 2.039 . S
Co666 N680 2.140 . S
C667 O668 1.227 . S
C667 O677 1.265 . S
O668 C667 1.227 . S
N669 Co666 2.121 . S
N669 C671 1.375 . S
N669 C672 1.313 . S
C670 C671 1.338 . S
C670 N673 1.377 . S
C670 H690 0.930 . S
C671 N669 1.375 . S
C671 C670 1.338 . S
C671 H675 0.931 . S
C672 N669 1.313 . S
C672 N673 1.344 . S
C672 H676 0.930 . S
N673 C670 1.377 . S
N673 C672 1.344 . S
O674 Co666 2.055 . S
O674 C678 1.253 . S
H675 C671 0.931 . S
H676 C672 0.930 . S
O677 Co666 2.039 . S
O677 C667 1.265 . S
C678 O674 1.253 . S
C678 O679 1.227 . S
O679 C678 1.227 . S
N680 Co666 2.140 . S
N680 C683 1.346 . S
N680 C684 1.345 . S
C681 C682 1.387 . S
C681 C685 1.391 . S
C682 C681 1.387 . S
C682 C683 1.369 . S
C682 H691 0.929 . S
C683 N680 1.346 . S
C683 C682 1.369 . S
C683 H686 0.928 . S
C684 N680 1.345 . S
C684 C685 1.371 . S
C684 H687 0.931 . S
C685 C681 1.391 . S
C685 C684 1.371 . S
C685 H692 0.930 . S
H686 C683 0.928 . S
H687 C684 0.931 . S
H688 C664 0.930 . S
H689 C661 0.930 . S
H690 C670 0.930 . S
H691 C682 0.929 . S
H692 C685 0.930 . S
C693 C694 1.351 . S
C693 N696 1.368 . S
C693 H698 0.931 . S
C694 C693 1.351 . S
C694 N695 1.373 . S
C694 H722 0.930 . S
N695 C694 1.373 . S
N695 C697 1.340 . S
N696 C693 1.368 . S
N696 C697 1.321 . S
N696 Co699 2.135 . S
C697 N695 1.340 . S
C697 N696 1.321 . S
C697 H721 0.930 . S
H698 C693 0.931 . S
Co699 N696 2.135 . S
Co699 N702 2.121 . S
Co699 O707 2.055 . S
Co699 O710 2.039 . S
Co699 N713 2.140 . S
C700 O701 1.227 . S
C700 O710 1.265 . S
O701 C700 1.227 . S
N702 Co699 2.121 . S
N702 C704 1.375 . S
N702 C705 1.313 . S
C703 C704 1.338 . S
C703 N706 1.377 . S
C703 H723 0.930 . S
C704 N702 1.375 . S
C704 C703 1.338 . S
C704 H708 0.931 . S
C705 N702 1.313 . S
C705 N706 1.344 . S
C705 H709 0.930 . S
N706 C703 1.377 . S
N706 C705 1.344 . S
O707 Co699 2.055 . S
O707 C711 1.253 . S
H708 C704 0.931 . S
H709 C705 0.930 . S
O710 Co699 2.039 . S
O710 C700 1.265 . S
C711 O707 1.253 . S
C711 O712 1.227 . S
O712 C711 1.227 . S
N713 Co699 2.140 . S
N713 C716 1.346 . S
N713 C717 1.345 . S
C714 C715 1.387 . S
C714 C718 1.391 . S
C715 C714 1.387 . S
C715 C716 1.369 . S
C715 H724 0.929 . S
C716 N713 1.346 . S
C716 C715 1.369 . S
C716 H719 0.928 . S
C717 N713 1.345 . S
C717 C718 1.371 . S
C717 H720 0.931 . S
C718 C714 1.391 . S
C718 C717 1.371 . S
C718 H725 0.930 . S
H719 C716 0.928 . S
H720 C717 0.931 . S
H721 C697 0.930 . S
H722 C694 0.930 . S
H723 C703 0.930 . S
H724 C715 0.929 . S
H725 C718 0.930 . S
C726 C727 1.351 . S
C726 N729 1.368 . S
C726 H731 0.931 . S
C727 C726 1.351 . S
C727 N728 1.373 . S
C727 H755 0.930 . S
N728 C727 1.373 . S
N728 C730 1.340 . S
N729 C726 1.368 . S
N729 C730 1.321 . S
N729 Co732 2.135 . S
C730 N728 1.340 . S
C730 N729 1.321 . S
C730 H754 0.930 . S
H731 C726 0.931 . S
Co732 N729 2.135 . S
Co732 N735 2.121 . S
Co732 O740 2.055 . S
Co732 O743 2.039 . S
Co732 N746 2.140 . S
C733 O734 1.227 . S
C733 O743 1.265 . S
O734 C733 1.227 . S
N735 Co732 2.121 . S
N735 C737 1.375 . S
N735 C738 1.313 . S
C736 C737 1.338 . S
C736 N739 1.377 . S
C736 H756 0.930 . S
C737 N735 1.375 . S
C737 C736 1.338 . S
C737 H741 0.931 . S
C738 N735 1.313 . S
C738 N739 1.344 . S
C738 H742 0.930 . S
N739 C736 1.377 . S
N739 C738 1.344 . S
O740 Co732 2.055 . S
O740 C744 1.253 . S
H741 C737 0.931 . S
H742 C738 0.930 . S
O743 Co732 2.039 . S
O743 C733 1.265 . S
C744 O740 1.253 . S
C744 O745 1.227 . S
O745 C744 1.227 . S
N746 Co732 2.140 . S
N746 C749 1.346 . S
N746 C750 1.345 . S
C747 C748 1.387 . S
C747 C751 1.391 . S
C748 C747 1.387 . S
C748 C749 1.369 . S
C748 H757 0.929 . S
C749 N746 1.346 . S
C749 C748 1.369 . S
C749 H752 0.928 . S
C750 N746 1.345 . S
C750 C751 1.371 . S
C750 H753 0.931 . S
C751 C747 1.391 . S
C751 C750 1.371 . S
C751 H758 0.930 . S
H752 C749 0.928 . S
H753 C750 0.931 . S
H754 C730 0.930 . S
H755 C727 0.930 . S
H756 C736 0.930 . S
H757 C748 0.929 . S
H758 C751 0.930 . S
C759 C760 1.351 . S
C759 N762 1.368 . S
C759 H764 0.931 . S
C760 C759 1.351 . S
C760 N761 1.373 . S
C760 H788 0.930 . S
N761 C760 1.373 . S
N761 C763 1.340 . S
N762 C759 1.368 . S
N762 C763 1.321 . S
N762 Co765 2.135 . S
C763 N761 1.340 . S
C763 N762 1.321 . S
C763 H787 0.930 . S
H764 C759 0.931 . S
Co765 N762 2.135 . S
Co765 N768 2.121 . S
Co765 O773 2.055 . S
Co765 O776 2.039 . S
Co765 N779 2.140 . S
C766 O767 1.227 . S
C766 O776 1.265 . S
O767 C766 1.227 . S
N768 Co765 2.121 . S
N768 C770 1.375 . S
N768 C771 1.313 . S
C769 C770 1.338 . S
C769 N772 1.377 . S
C769 H789 0.930 . S
C770 N768 1.375 . S
C770 C769 1.338 . S
C770 H774 0.931 . S
C771 N768 1.313 . S
C771 N772 1.344 . S
C771 H775 0.930 . S
N772 C769 1.377 . S
N772 C771 1.344 . S
O773 Co765 2.055 . S
O773 C777 1.253 . S
H774 C770 0.931 . S
H775 C771 0.930 . S
O776 Co765 2.039 . S
O776 C766 1.265 . S
C777 O773 1.253 . S
C777 O778 1.227 . S
O778 C777 1.227 . S
N779 Co765 2.140 . S
N779 C782 1.346 . S
N779 C783 1.345 . S
C780 C781 1.387 . S
C780 C784 1.391 . S
C781 C780 1.387 . S
C781 C782 1.369 . S
C781 H790 0.929 . S
C782 N779 1.346 . S
C782 C781 1.369 . S
C782 H785 0.928 . S
C783 N779 1.345 . S
C783 C784 1.371 . S
C783 H786 0.931 . S
C784 C780 1.391 . S
C784 C783 1.371 . S
C784 H791 0.930 . S
H785 C782 0.928 . S
H786 C783 0.931 . S
H787 C763 0.930 . S
H788 C760 0.930 . S
H789 C769 0.930 . S
H790 C781 0.929 . S
H791 C784 0.930 . S
C792 C793 1.351 . S
C792 N795 1.368 . S
C792 H797 0.931 . S
C793 C792 1.351 . S
C793 N794 1.373 . S
C793 H821 0.930 . S
N794 C793 1.373 . S
N794 C796 1.340 . S
N795 C792 1.368 . S
N795 C796 1.321 . S
N795 Co798 2.135 . S
C796 N794 1.340 . S
C796 N795 1.321 . S
C796 H820 0.930 . S
H797 C792 0.931 . S
Co798 N795 2.135 . S
Co798 N801 2.121 . S
Co798 O806 2.055 . S
Co798 O809 2.039 . S
Co798 N812 2.140 . S
C799 O800 1.227 . S
C799 O809 1.265 . S
O800 C799 1.227 . S
N801 Co798 2.121 . S
N801 C803 1.375 . S
N801 C804 1.313 . S
C802 C803 1.338 . S
C802 N805 1.377 . S
C802 H822 0.930 . S
C803 N801 1.375 . S
C803 C802 1.338 . S
C803 H807 0.931 . S
C804 N801 1.313 . S
C804 N805 1.344 . S
C804 H808 0.930 . S
N805 C802 1.377 . S
N805 C804 1.344 . S
O806 Co798 2.055 . S
O806 C810 1.253 . S
H807 C803 0.931 . S
H808 C804 0.930 . S
O809 Co798 2.039 . S
O809 C799 1.265 . S
C810 O806 1.253 . S
C810 O811 1.227 . S
O811 C810 1.227 . S
N812 Co798 2.140 . S
N812 C815 1.346 . S
N812 C816 1.345 . S
C813 C814 1.387 . S
C813 C817 1.391 . S
C814 C813 1.387 . S
C814 C815 1.369 . S
C814 H823 0.929 . S
C815 N812 1.346 . S
C815 C814 1.369 . S
C815 H818 0.928 . S
C816 N812 1.345 . S
C816 C817 1.371 . S
C816 H819 0.931 . S
C817 C813 1.391 . S
C817 C816 1.371 . S
C817 H824 0.930 . S
H818 C815 0.928 . S
H819 C816 0.931 . S
H820 C796 0.930 . S
H821 C793 0.930 . S
H822 C802 0.930 . S
H823 C814 0.929 . S
H824 C817 0.930 . S
C825 C826 1.351 . S
C825 N828 1.368 . S
C825 H830 0.931 . S
C826 C825 1.351 . S
C826 N827 1.373 . S
C826 H854 0.930 . S
N827 C826 1.373 . S
N827 C829 1.340 . S
N828 C825 1.368 . S
N828 C829 1.321 . S
N828 Co831 2.135 . S
C829 N827 1.340 . S
C829 N828 1.321 . S
C829 H853 0.930 . S
H830 C825 0.931 . S
Co831 N828 2.135 . S
Co831 N834 2.121 . S
Co831 O839 2.055 . S
Co831 O842 2.039 . S
Co831 N845 2.140 . S
C832 O833 1.227 . S
C832 O842 1.265 . S
O833 C832 1.227 . S
N834 Co831 2.121 . S
N834 C836 1.375 . S
N834 C837 1.313 . S
C835 C836 1.338 . S
C835 N838 1.377 . S
C835 H855 0.930 . S
C836 N834 1.375 . S
C836 C835 1.338 . S
C836 H840 0.931 . S
C837 N834 1.313 . S
C837 N838 1.344 . S
C837 H841 0.930 . S
N838 C835 1.377 . S
N838 C837 1.344 . S
O839 Co831 2.055 . S
O839 C843 1.253 . S
H840 C836 0.931 . S
H841 C837 0.930 . S
O842 Co831 2.039 . S
O842 C832 1.265 . S
C843 O839 1.253 . S
C843 O844 1.227 . S
O844 C843 1.227 . S
N845 Co831 2.140 . S
N845 C848 1.346 . S
N845 C849 1.345 . S
C846 C847 1.387 . S
C846 C850 1.391 . S
C847 C846 1.387 . S
C847 C848 1.369 . S
C847 H856 0.929 . S
C848 N845 1.346 . S
C848 C847 1.369 . S
C848 H851 0.928 . S
C849 N845 1.345 . S
C849 C850 1.371 . S
C849 H852 0.931 . S
C850 C846 1.391 . S
C850 C849 1.371 . S
C850 H857 0.930 . S
H851 C848 0.928 . S
H852 C849 0.931 . S
H853 C829 0.930 . S
H854 C826 0.930 . S
H855 C835 0.930 . S
H856 C847 0.929 . S
H857 C850 0.930 . S
C858 C859 1.351 . S
C858 N861 1.368 . S
C858 H863 0.931 . S
C859 C858 1.351 . S
C859 N860 1.373 . S
C859 H887 0.930 . S
N860 C859 1.373 . S
N860 C862 1.340 . S
N861 C858 1.368 . S
N861 C862 1.321 . S
N861 Co864 2.135 . S
C862 N860 1.340 . S
C862 N861 1.321 . S
C862 H886 0.930 . S
H863 C858 0.931 . S
Co864 N861 2.135 . S
Co864 N867 2.121 . S
Co864 O872 2.055 . S
Co864 O875 2.039 . S
Co864 N878 2.140 . S
C865 O866 1.227 . S
C865 O875 1.265 . S
O866 C865 1.227 . S
N867 Co864 2.121 . S
N867 C869 1.375 . S
N867 C870 1.313 . S
C868 C869 1.338 . S
C868 N871 1.377 . S
C868 H888 0.930 . S
C869 N867 1.375 . S
C869 C868 1.338 . S
C869 H873 0.931 . S
C870 N867 1.313 . S
C870 N871 1.344 . S
C870 H874 0.930 . S
N871 C868 1.377 . S
N871 C870 1.344 . S
O872 Co864 2.055 . S
O872 C876 1.253 . S
H873 C869 0.931 . S
H874 C870 0.930 . S
O875 Co864 2.039 . S
O875 C865 1.265 . S
C876 O872 1.253 . S
C876 O877 1.227 . S
O877 C876 1.227 . S
N878 Co864 2.140 . S
N878 C881 1.346 . S
N878 C882 1.345 . S
C879 C880 1.387 . S
C879 C883 1.391 . S
C880 C879 1.387 . S
C880 C881 1.369 . S
C880 H889 0.929 . S
C881 N878 1.346 . S
C881 C880 1.369 . S
C881 H884 0.928 . S
C882 N878 1.345 . S
C882 C883 1.371 . S
C882 H885 0.931 . S
C883 C879 1.391 . S
C883 C882 1.371 . S
C883 H890 0.930 . S
H884 C881 0.928 . S
H885 C882 0.931 . S
H886 C862 0.930 . S
H887 C859 0.930 . S
H888 C868 0.930 . S
H889 C880 0.929 . S
H890 C883 0.930 . S
C891 C892 1.351 . S
C891 N894 1.368 . S
C891 H896 0.931 . S
C892 C891 1.351 . S
C892 N893 1.373 . S
C892 H920 0.930 . S
N893 C892 1.373 . S
N893 C895 1.340 . S
N894 C891 1.368 . S
N894 C895 1.321 . S
N894 Co897 2.135 . S
C895 N893 1.340 . S
C895 N894 1.321 . S
C895 H919 0.930 . S
H896 C891 0.931 . S
Co897 N894 2.135 . S
Co897 N900 2.121 . S
Co897 O905 2.055 . S
Co897 O908 2.039 . S
Co897 N911 2.140 . S
C898 O899 1.227 . S
C898 O908 1.265 . S
O899 C898 1.227 . S
N900 Co897 2.121 . S
N900 C902 1.375 . S
N900 C903 1.313 . S
C901 C902 1.338 . S
C901 N904 1.377 . S
C901 H921 0.930 . S
C902 N900 1.375 . S
C902 C901 1.338 . S
C902 H906 0.931 . S
C903 N900 1.313 . S
C903 N904 1.344 . S
C903 H907 0.930 . S
N904 C901 1.377 . S
N904 C903 1.344 . S
O905 Co897 2.055 . S
O905 C909 1.253 . S
H906 C902 0.931 . S
H907 C903 0.930 . S
O908 Co897 2.039 . S
O908 C898 1.265 . S
C909 O905 1.253 . S
C909 O910 1.227 . S
O910 C909 1.227 . S
N911 Co897 2.140 . S
N911 C914 1.346 . S
N911 C915 1.345 . S
C912 C913 1.387 . S
C912 C916 1.391 . S
C913 C912 1.387 . S
C913 C914 1.369 . S
C913 H922 0.929 . S
C914 N911 1.346 . S
C914 C913 1.369 . S
C914 H917 0.928 . S
C915 N911 1.345 . S
C915 C916 1.371 . S
C915 H918 0.931 . S
C916 C912 1.391 . S
C916 C915 1.371 . S
C916 H923 0.930 . S
H917 C914 0.928 . S
H918 C915 0.931 . S
H919 C895 0.930 . S
H920 C892 0.930 . S
H921 C901 0.930 . S
H922 C913 0.929 . S
H923 C916 0.930 . S
C924 C925 1.351 . S
C924 N927 1.368 . S
C924 H929 0.931 . S
C925 C924 1.351 . S
C925 N926 1.373 . S
C925 H953 0.930 . S
N926 C925 1.373 . S
N926 C928 1.340 . S
N927 C924 1.368 . S
N927 C928 1.321 . S
N927 Co930 2.135 . S
C928 N926 1.340 . S
C928 N927 1.321 . S
C928 H952 0.930 . S
H929 C924 0.931 . S
Co930 N927 2.135 . S
Co930 N933 2.121 . S
Co930 O938 2.055 . S
Co930 O941 2.039 . S
Co930 N944 2.140 . S
C931 O932 1.227 . S
C931 O941 1.265 . S
O932 C931 1.227 . S
N933 Co930 2.121 . S
N933 C935 1.375 . S
N933 C936 1.313 . S
C934 C935 1.338 . S
C934 N937 1.377 . S
C934 H954 0.930 . S
C935 N933 1.375 . S
C935 C934 1.338 . S
C935 H939 0.931 . S
C936 N933 1.313 . S
C936 N937 1.344 . S
C936 H940 0.930 . S
N937 C934 1.377 . S
N937 C936 1.344 . S
O938 Co930 2.055 . S
O938 C942 1.253 . S
H939 C935 0.931 . S
H940 C936 0.930 . S
O941 Co930 2.039 . S
O941 C931 1.265 . S
C942 O938 1.253 . S
C942 O943 1.227 . S
O943 C942 1.227 . S
N944 Co930 2.140 . S
N944 C947 1.346 . S
N944 C948 1.345 . S
C945 C946 1.387 . S
C945 C949 1.391 . S
C946 C945 1.387 . S
C946 C947 1.369 . S
C946 H955 0.929 . S
C947 N944 1.346 . S
C947 C946 1.369 . S
C947 H950 0.928 . S
C948 N944 1.345 . S
C948 C949 1.371 . S
C948 H951 0.931 . S
C949 C945 1.391 . S
C949 C948 1.371 . S
C949 H956 0.930 . S
H950 C947 0.928 . S
H951 C948 0.931 . S
H952 C928 0.930 . S
H953 C925 0.930 . S
H954 C934 0.930 . S
H955 C946 0.929 . S
H956 C949 0.930 . S
C957 C958 1.351 . S
C957 N960 1.368 . S
C957 H962 0.931 . S
C958 C957 1.351 . S
C958 N959 1.373 . S
C958 H986 0.930 . S
N959 C958 1.373 . S
N959 C961 1.340 . S
N960 C957 1.368 . S
N960 C961 1.321 . S
N960 Co963 2.135 . S
C961 N959 1.340 . S
C961 N960 1.321 . S
C961 H985 0.930 . S
H962 C957 0.931 . S
Co963 N960 2.135 . S
Co963 N966 2.121 . S
Co963 O971 2.055 . S
Co963 O974 2.039 . S
Co963 N977 2.140 . S
C964 O965 1.227 . S
C964 O974 1.265 . S
O965 C964 1.227 . S
N966 Co963 2.121 . S
N966 C968 1.375 . S
N966 C969 1.313 . S
C967 C968 1.338 . S
C967 N970 1.377 . S
C967 H987 0.930 . S
C968 N966 1.375 . S
C968 C967 1.338 . S
C968 H972 0.931 . S
C969 N966 1.313 . S
C969 N970 1.344 . S
C969 H973 0.930 . S
N970 C967 1.377 . S
N970 C969 1.344 . S
O971 Co963 2.055 . S
O971 C975 1.253 . S
H972 C968 0.931 . S
H973 C969 0.930 . S
O974 Co963 2.039 . S
O974 C964 1.265 . S
C975 O971 1.253 . S
C975 O976 1.227 . S
O976 C975 1.227 . S
N977 Co963 2.140 . S
N977 C980 1.346 . S
N977 C981 1.345 . S
C978 C979 1.387 . S
C978 C982 1.391 . S
C979 C978 1.387 . S
C979 C980 1.369 . S
C979 H988 0.929 . S
C980 N977 1.346 . S
C980 C979 1.369 . S
C980 H983 0.928 . S
C981 N977 1.345 . S
C981 C982 1.371 . S
C981 H984 0.931 . S
C982 C978 1.391 . S
C982 C981 1.371 . S
C982 H989 0.930 . S
H983 C980 0.928 . S
H984 C981 0.931 . S
H985 C961 0.930 . S
H986 C958 0.930 . S
H987 C967 0.930 . S
H988 C979 0.929 . S
H989 C982 0.930 . S
C990 C991 1.351 . S
C990 N993 1.368 . S
C990 H995 0.931 . S
C991 C990 1.351 . S
C991 N992 1.373 . S
C991 H1019 0.930 . S
N992 C991 1.373 . S
N992 C994 1.340 . S
N993 C990 1.368 . S
N993 C994 1.321 . S
N993 Co996 2.135 . S
C994 N992 1.340 . S
C994 N993 1.321 . S
C994 H1018 0.930 . S
H995 C990 0.931 . S
Co996 N993 2.135 . S
Co996 N999 2.121 . S
Co996 O1004 2.055 . S
Co996 O1007 2.039 . S
Co996 N1010 2.140 . S
C997 O998 1.227 . S
C997 O1007 1.265 . S
O998 C997 1.227 . S
N999 Co996 2.121 . S
N999 C1001 1.375 . S
N999 C1002 1.313 . S
C1000 C1001 1.338 . S
C1000 N1003 1.377 . S
C1000 H1020 0.930 . S
C1001 N999 1.375 . S
C1001 C1000 1.338 . S
C1001 H1005 0.931 . S
C1002 N999 1.313 . S
C1002 N1003 1.344 . S
C1002 H1006 0.930 . S
N1003 C1000 1.377 . S
N1003 C1002 1.344 . S
O1004 Co996 2.055 . S
O1004 C1008 1.253 . S
H1005 C1001 0.931 . S
H1006 C1002 0.930 . S
O1007 Co996 2.039 . S
O1007 C997 1.265 . S
C1008 O1004 1.253 . S
C1008 O1009 1.227 . S
O1009 C1008 1.227 . S
N1010 Co996 2.140 . S
N1010 C1013 1.346 . S
N1010 C1014 1.345 . S
C1011 C1012 1.387 . S
C1011 C1015 1.391 . S
C1012 C1011 1.387 . S
C1012 C1013 1.369 . S
C1012 H1021 0.929 . S
C1013 N1010 1.346 . S
C1013 C1012 1.369 . S
C1013 H1016 0.928 . S
C1014 N1010 1.345 . S
C1014 C1015 1.371 . S
C1014 H1017 0.931 . S
C1015 C1011 1.391 . S
C1015 C1014 1.371 . S
C1015 H1022 0.930 . S
H1016 C1013 0.928 . S
H1017 C1014 0.931 . S
H1018 C994 0.930 . S
H1019 C991 0.930 . S
H1020 C1000 0.930 . S
H1021 C1012 0.929 . S
H1022 C1015 0.930 . S
C1023 C1024 1.351 . S
C1023 N1026 1.368 . S
C1023 H1028 0.931 . S
C1024 C1023 1.351 . S
C1024 N1025 1.373 . S
C1024 H1052 0.930 . S
N1025 C1024 1.373 . S
N1025 C1027 1.340 . S
N1026 C1023 1.368 . S
N1026 C1027 1.321 . S
N1026 Co1029 2.135 . S
C1027 N1025 1.340 . S
C1027 N1026 1.321 . S
C1027 H1051 0.930 . S
H1028 C1023 0.931 . S
Co1029 N1026 2.135 . S
Co1029 N1032 2.121 . S
Co1029 O1037 2.055 . S
Co1029 O1040 2.039 . S
Co1029 N1043 2.140 . S
C1030 O1031 1.227 . S
C1030 O1040 1.265 . S
O1031 C1030 1.227 . S
N1032 Co1029 2.121 . S
N1032 C1034 1.375 . S
N1032 C1035 1.313 . S
C1033 C1034 1.338 . S
C1033 N1036 1.377 . S
C1033 H1053 0.930 . S
C1034 N1032 1.375 . S
C1034 C1033 1.338 . S
C1034 H1038 0.931 . S
C1035 N1032 1.313 . S
C1035 N1036 1.344 . S
C1035 H1039 0.930 . S
N1036 C1033 1.377 . S
N1036 C1035 1.344 . S
O1037 Co1029 2.055 . S
O1037 C1041 1.253 . S
H1038 C1034 0.931 . S
H1039 C1035 0.930 . S
O1040 Co1029 2.039 . S
O1040 C1030 1.265 . S
C1041 O1037 1.253 . S
C1041 O1042 1.227 . S
O1042 C1041 1.227 . S
N1043 Co1029 2.140 . S
N1043 C1046 1.346 . S
N1043 C1047 1.345 . S
C1044 C1045 1.387 . S
C1044 C1048 1.391 . S
C1045 C1044 1.387 . S
C1045 C1046 1.369 . S
C1045 H1054 0.929 . S
C1046 N1043 1.346 . S
C1046 C1045 1.369 . S
C1046 H1049 0.928 . S
C1047 N1043 1.345 . S
C1047 C1048 1.371 . S
C1047 H1050 0.931 . S
C1048 C1044 1.391 . S
C1048 C1047 1.371 . S
C1048 H1055 0.930 . S
H1049 C1046 0.928 . S
H1050 C1047 0.931 . S
H1051 C1027 0.930 . S
H1052 C1024 0.930 . S
H1053 C1033 0.930 . S
H1054 C1045 0.929 . S
H1055 C1048 0.930 . S
C1056 C1057 1.351 . S
C1056 N1059 1.368 . S
C1056 H1061 0.931 . S
C1057 C1056 1.351 . S
C1057 N1058 1.373 . S
C1057 H1085 0.930 . S
N1058 C1057 1.373 . S
N1058 C1060 1.340 . S
N1059 C1056 1.368 . S
N1059 C1060 1.321 . S
N1059 Co1062 2.135 . S
C1060 N1058 1.340 . S
C1060 N1059 1.321 . S
C1060 H1084 0.930 . S
H1061 C1056 0.931 . S
Co1062 N1059 2.135 . S
Co1062 N1065 2.121 . S
Co1062 O1070 2.055 . S
Co1062 O1073 2.039 . S
Co1062 N1076 2.140 . S
C1063 O1064 1.227 . S
C1063 O1073 1.265 . S
O1064 C1063 1.227 . S
N1065 Co1062 2.121 . S
N1065 C1067 1.375 . S
N1065 C1068 1.313 . S
C1066 C1067 1.338 . S
C1066 N1069 1.377 . S
C1066 H1086 0.930 . S
C1067 N1065 1.375 . S
C1067 C1066 1.338 . S
C1067 H1071 0.931 . S
C1068 N1065 1.313 . S
C1068 N1069 1.344 . S
C1068 H1072 0.930 . S
N1069 C1066 1.377 . S
N1069 C1068 1.344 . S
O1070 Co1062 2.055 . S
O1070 C1074 1.253 . S
H1071 C1067 0.931 . S
H1072 C1068 0.930 . S
O1073 Co1062 2.039 . S
O1073 C1063 1.265 . S
C1074 O1070 1.253 . S
C1074 O1075 1.227 . S
O1075 C1074 1.227 . S
N1076 Co1062 2.140 . S
N1076 C1079 1.346 . S
N1076 C1080 1.345 . S
C1077 C1078 1.387 . S
C1077 C1081 1.391 . S
C1078 C1077 1.387 . S
C1078 C1079 1.369 . S
C1078 H1087 0.929 . S
C1079 N1076 1.346 . S
C1079 C1078 1.369 . S
C1079 H1082 0.928 . S
C1080 N1076 1.345 . S
C1080 C1081 1.371 . S
C1080 H1083 0.931 . S
C1081 C1077 1.391 . S
C1081 C1080 1.371 . S
C1081 H1088 0.930 . S
H1082 C1079 0.928 . S
H1083 C1080 0.931 . S
H1084 C1060 0.930 . S
H1085 C1057 0.930 . S
H1086 C1066 0.930 . S
H1087 C1078 0.929 . S
H1088 C1081 0.930 . S
C1089 C1090 1.351 . S
C1089 N1092 1.368 . S
C1089 H1094 0.931 . S
C1090 C1089 1.351 . S
C1090 N1091 1.373 . S
C1090 H1118 0.930 . S
N1091 C1090 1.373 . S
N1091 C1093 1.340 . S
N1092 C1089 1.368 . S
N1092 C1093 1.321 . S
N1092 Co1095 2.135 . S
C1093 N1091 1.340 . S
C1093 N1092 1.321 . S
C1093 H1117 0.930 . S
H1094 C1089 0.931 . S
Co1095 N1092 2.135 . S
Co1095 N1098 2.121 . S
Co1095 O1103 2.055 . S
Co1095 O1106 2.039 . S
Co1095 N1109 2.140 . S
C1096 O1097 1.227 . S
C1096 O1106 1.265 . S
O1097 C1096 1.227 . S
N1098 Co1095 2.121 . S
N1098 C1100 1.375 . S
N1098 C1101 1.313 . S
C1099 C1100 1.338 . S
C1099 N1102 1.377 . S
C1099 H1119 0.930 . S
C1100 N1098 1.375 . S
C1100 C1099 1.338 . S
C1100 H1104 0.931 . S
C1101 N1098 1.313 . S
C1101 N1102 1.344 . S
C1101 H1105 0.930 . S
N1102 C1099 1.377 . S
N1102 C1101 1.344 . S
O1103 Co1095 2.055 . S
O1103 C1107 1.253 . S
H1104 C1100 0.931 . S
H1105 C1101 0.930 . S
O1106 Co1095 2.039 . S
O1106 C1096 1.265 . S
C1107 O1103 1.253 . S
C1107 O1108 1.227 . S
O1108 C1107 1.227 . S
N1109 Co1095 2.140 . S
N1109 C1112 1.346 . S
N1109 C1113 1.345 . S
C1110 C1111 1.387 . S
C1110 C1114 1.391 . S
C1111 C1110 1.387 . S
C1111 C1112 1.369 . S
C1111 H1120 0.929 . S
C1112 N1109 1.346 . S
C1112 C1111 1.369 . S
C1112 H1115 0.928 . S
C1113 N1109 1.345 . S
C1113 C1114 1.371 . S
C1113 H1116 0.931 . S
C1114 C1110 1.391 . S
C1114 C1113 1.371 . S
C1114 H1121 0.930 . S
H1115 C1112 0.928 . S
H1116 C1113 0.931 . S
H1117 C1093 0.930 . S
H1118 C1090 0.930 . S
H1119 C1099 0.930 . S
H1120 C1111 0.929 . S
H1121 C1114 0.930 . S
C1122 C1123 1.351 . S
C1122 N1125 1.368 . S
C1122 H1127 0.931 . S
C1123 C1122 1.351 . S
C1123 N1124 1.373 . S
C1123 H1151 0.930 . S
N1124 C1123 1.373 . S
N1124 C1126 1.340 . S
N1125 C1122 1.368 . S
N1125 C1126 1.321 . S
N1125 Co1128 2.135 . S
C1126 N1124 1.340 . S
C1126 N1125 1.321 . S
C1126 H1150 0.930 . S
H1127 C1122 0.931 . S
Co1128 N1125 2.135 . S
Co1128 N1131 2.121 . S
Co1128 O1136 2.055 . S
Co1128 O1139 2.039 . S
Co1128 N1142 2.140 . S
C1129 O1130 1.227 . S
C1129 O1139 1.265 . S
O1130 C1129 1.227 . S
N1131 Co1128 2.121 . S
N1131 C1133 1.375 . S
N1131 C1134 1.313 . S
C1132 C1133 1.338 . S
C1132 N1135 1.377 . S
C1132 H1152 0.930 . S
C1133 N1131 1.375 . S
C1133 C1132 1.338 . S
C1133 H1137 0.931 . S
C1134 N1131 1.313 . S
C1134 N1135 1.344 . S
C1134 H1138 0.930 . S
N1135 C1132 1.377 . S
N1135 C1134 1.344 . S
O1136 Co1128 2.055 . S
O1136 C1140 1.253 . S
H1137 C1133 0.931 . S
H1138 C1134 0.930 . S
O1139 Co1128 2.039 . S
O1139 C1129 1.265 . S
C1140 O1136 1.253 . S
C1140 O1141 1.227 . S
O1141 C1140 1.227 . S
N1142 Co1128 2.140 . S
N1142 C1145 1.346 . S
N1142 C1146 1.345 . S
C1143 C1144 1.387 . S
C1143 C1147 1.391 . S
C1144 C1143 1.387 . S
C1144 C1145 1.369 . S
C1144 H1153 0.929 . S
C1145 N1142 1.346 . S
C1145 C1144 1.369 . S
C1145 H1148 0.928 . S
C1146 N1142 1.345 . S
C1146 C1147 1.371 . S
C1146 H1149 0.931 . S
C1147 C1143 1.391 . S
C1147 C1146 1.371 . S
C1147 H1154 0.930 . S
H1148 C1145 0.928 . S
H1149 C1146 0.931 . S
H1150 C1126 0.930 . S
H1151 C1123 0.930 . S
H1152 C1132 0.930 . S
H1153 C1144 0.929 . S
H1154 C1147 0.930 . S
C1155 C1156 1.351 . S
C1155 N1158 1.368 . S
C1155 H1160 0.931 . S
C1156 C1155 1.351 . S
C1156 N1157 1.373 . S
C1156 H1184 0.930 . S
N1157 C1156 1.373 . S
N1157 C1159 1.340 . S
N1158 C1155 1.368 . S
N1158 C1159 1.321 . S
N1158 Co1161 2.135 . S
C1159 N1157 1.340 . S
C1159 N1158 1.321 . S
C1159 H1183 0.930 . S
H1160 C1155 0.931 . S
Co1161 N1158 2.135 . S
Co1161 N1164 2.121 . S
Co1161 O1169 2.055 . S
Co1161 O1172 2.039 . S
Co1161 N1175 2.140 . S
C1162 O1163 1.227 . S
C1162 O1172 1.265 . S
O1163 C1162 1.227 . S
N1164 Co1161 2.121 . S
N1164 C1166 1.375 . S
N1164 C1167 1.313 . S
C1165 C1166 1.338 . S
C1165 N1168 1.377 . S
C1165 H1185 0.930 . S
C1166 N1164 1.375 . S
C1166 C1165 1.338 . S
C1166 H1170 0.931 . S
C1167 N1164 1.313 . S
C1167 N1168 1.344 . S
C1167 H1171 0.930 . S
N1168 C1165 1.377 . S
N1168 C1167 1.344 . S
O1169 Co1161 2.055 . S
O1169 C1173 1.253 . S
H1170 C1166 0.931 . S
H1171 C1167 0.930 . S
O1172 Co1161 2.039 . S
O1172 C1162 1.265 . S
C1173 O1169 1.253 . S
C1173 O1174 1.227 . S
O1174 C1173 1.227 . S
N1175 Co1161 2.140 . S
N1175 C1178 1.346 . S
N1175 C1179 1.345 . S
C1176 C1177 1.387 . S
C1176 C1180 1.391 . S
C1177 C1176 1.387 . S
C1177 C1178 1.369 . S
C1177 H1186 0.929 . S
C1178 N1175 1.346 . S
C1178 C1177 1.369 . S
C1178 H1181 0.928 . S
C1179 N1175 1.345 . S
C1179 C1180 1.371 . S
C1179 H1182 0.931 . S
C1180 C1176 1.391 . S
C1180 C1179 1.371 . S
C1180 H1187 0.930 . S
H1181 C1178 0.928 . S
H1182 C1179 0.931 . S
H1183 C1159 0.930 . S
H1184 C1156 0.930 . S
H1185 C1165 0.930 . S
H1186 C1177 0.929 . S
H1187 C1180 0.930 . S
H1188 C1196 0.929 . S
H1189 C1198 0.930 . S
H1190 C1200 0.930 . S
H1191 C1203 0.929 . S
H1192 C1206 0.930 . S
H1193 C1208 0.960 . S
H1194 C1208 0.960 . S
H1195 C1208 0.960 . S
C1196 H1188 0.929 . S
C1196 C1197 1.377 . S
C1196 C1198 1.384 . S
C1197 C1196 1.377 . S
C1197 C1203 1.390 . S
C1198 H1189 0.930 . S
C1198 C1196 1.384 . S
C1198 C1199 1.372 . S
C1199 C1198 1.372 . S
C1199 C1200 1.400 . S
C1199 C1204 1.490 . S
C1200 H1190 0.930 . S
C1200 C1199 1.400 . S
C1200 C1203 1.386 . S
H1201 C1217 0.930 . S
H1202 C1218 0.931 . S
C1203 H1191 0.929 . S
C1203 C1197 1.390 . S
C1203 C1200 1.386 . S
C1204 C1199 1.490 . S
C1204 C1206 1.395 . S
C1204 C1207 1.403 . S
H1205 C1211 0.930 . S
C1206 H1192 0.930 . S
C1206 C1204 1.395 . S
C1206 C1209 1.403 . S
C1207 C1204 1.403 . S
C1207 C1208 1.524 . S
C1207 C1211 1.400 . S
C1208 H1193 0.960 . S
C1208 H1194 0.960 . S
C1208 H1195 0.960 . S
C1208 C1207 1.524 . S
C1209 C1206 1.403 . S
C1209 C1210 1.392 . S
C1209 C1213 1.495 . S
C1210 C1209 1.392 . S
C1210 C1211 1.385 . S
C1210 C1212 1.478 . S
C1211 H1205 0.930 . S
C1211 C1207 1.400 . S
C1211 C1210 1.385 . S
C1212 C1210 1.478 . S
C1212 C1214 1.381 . S
C1212 C1218 1.383 . S
C1213 C1209 1.495 . S
C1213 H1219 0.959 . S
C1213 H1220 0.961 . S
C1213 H1221 0.960 . S
C1214 C1212 1.381 . S
C1214 C1215 1.394 . S
C1214 H1222 0.930 . S
C1215 C1214 1.394 . S
C1215 C1216 1.383 . S
C1215 H1223 0.929 . S
C1216 C1215 1.383 . S
C1216 C1217 1.377 . S
C1217 H1201 0.930 . S
C1217 C1216 1.377 . S
C1217 C1218 1.379 . S
C1218 H1202 0.931 . S
C1218 C1212 1.383 . S
C1218 C1217 1.379 . S
H1219 C1213 0.959 . S
H1220 C1213 0.961 . S
H1221 C1213 0.960 . S
H1222 C1214 0.930 . S
H1223 C1215 0.929 . S
H1224 C1232 0.929 . S
H1225 C1234 0.930 . S
H1226 C1236 0.930 . S
H1227 C1239 0.929 . S
H1228 C1242 0.930 . S
H1229 C1244 0.960 . S
H1230 C1244 0.960 . S
H1231 C1244 0.960 . S
C1232 H1224 0.929 . S
C1232 C1233 1.377 . S
C1232 C1234 1.384 . S
C1233 C1232 1.377 . S
C1233 C1239 1.390 . S
C1234 H1225 0.930 . S
C1234 C1232 1.384 . S
C1234 C1235 1.372 . S
C1235 C1234 1.372 . S
C1235 C1236 1.400 . S
C1235 C1240 1.490 . S
C1236 H1226 0.930 . S
C1236 C1235 1.400 . S
C1236 C1239 1.386 . S
H1237 C1253 0.930 . S
H1238 C1254 0.931 . S
C1239 H1227 0.929 . S
C1239 C1233 1.390 . S
C1239 C1236 1.386 . S
C1240 C1235 1.490 . S
C1240 C1242 1.395 . S
C1240 C1243 1.403 . S
H1241 C1247 0.930 . S
C1242 H1228 0.930 . S
C1242 C1240 1.395 . S
C1242 C1245 1.403 . S
C1243 C1240 1.403 . S
C1243 C1244 1.524 . S
C1243 C1247 1.400 . S
C1244 H1229 0.960 . S
C1244 H1230 0.960 . S
C1244 H1231 0.960 . S
C1244 C1243 1.524 . S
C1245 C1242 1.403 . S
C1245 C1246 1.392 . S
C1245 C1249 1.495 . S
C1246 C1245 1.392 . S
C1246 C1247 1.385 . S
C1246 C1248 1.478 . S
C1247 H1241 0.930 . S
C1247 C1243 1.400 . S
C1247 C1246 1.385 . S
C1248 C1246 1.478 . S
C1248 C1250 1.381 . S
C1248 C1254 1.383 . S
C1249 C1245 1.495 . S
C1249 H1255 0.959 . S
C1249 H1256 0.961 . S
C1249 H1257 0.960 . S
C1250 C1248 1.381 . S
C1250 C1251 1.394 . S
C1250 H1258 0.930 . S
C1251 C1250 1.394 . S
C1251 C1252 1.383 . S
C1251 H1259 0.929 . S
C1252 C1251 1.383 . S
C1252 C1253 1.377 . S
C1253 H1237 0.930 . S
C1253 C1252 1.377 . S
C1253 C1254 1.379 . S
C1254 H1238 0.931 . S
C1254 C1248 1.383 . S
C1254 C1253 1.379 . S
H1255 C1249 0.959 . S
H1256 C1249 0.961 . S
H1257 C1249 0.960 . S
H1258 C1250 0.930 . S
H1259 C1251 0.929 . S
H1260 C1268 0.929 . S
H1261 C1270 0.930 . S
H1262 C1272 0.930 . S
H1263 C1275 0.929 . S
H1264 C1278 0.930 . S
H1265 C1280 0.960 . S
H1266 C1280 0.960 . S
H1267 C1280 0.960 . S
C1268 H1260 0.929 . S
C1268 C1269 1.377 . S
C1268 C1270 1.384 . S
C1269 C1268 1.377 . S
C1269 C1275 1.390 . S
C1270 H1261 0.930 . S
C1270 C1268 1.384 . S
C1270 C1271 1.372 . S
C1271 C1270 1.372 . S
C1271 C1272 1.400 . S
C1271 C1276 1.490 . S
C1272 H1262 0.930 . S
C1272 C1271 1.400 . S
C1272 C1275 1.386 . S
H1273 C1289 0.930 . S
H1274 C1290 0.931 . S
C1275 H1263 0.929 . S
C1275 C1269 1.390 . S
C1275 C1272 1.386 . S
C1276 C1271 1.490 . S
C1276 C1278 1.395 . S
C1276 C1279 1.403 . S
H1277 C1283 0.930 . S
C1278 H1264 0.930 . S
C1278 C1276 1.395 . S
C1278 C1281 1.403 . S
C1279 C1276 1.403 . S
C1279 C1280 1.524 . S
C1279 C1283 1.400 . S
C1280 H1265 0.960 . S
C1280 H1266 0.960 . S
C1280 H1267 0.960 . S
C1280 C1279 1.524 . S
C1281 C1278 1.403 . S
C1281 C1282 1.392 . S
C1281 C1285 1.495 . S
C1282 C1281 1.392 . S
C1282 C1283 1.385 . S
C1282 C1284 1.478 . S
C1283 H1277 0.930 . S
C1283 C1279 1.400 . S
C1283 C1282 1.385 . S
C1284 C1282 1.478 . S
C1284 C1286 1.381 . S
C1284 C1290 1.383 . S
C1285 C1281 1.495 . S
C1285 H1291 0.959 . S
C1285 H1292 0.961 . S
C1285 H1293 0.960 . S
C1286 C1284 1.381 . S
C1286 C1287 1.394 . S
C1286 H1294 0.930 . S
C1287 C1286 1.394 . S
C1287 C1288 1.383 . S
C1287 H1295 0.946 . S
C1288 C1287 1.383 . S
C1288 C1289 1.377 . S
C1289 H1273 0.930 . S
C1289 C1288 1.377 . S
C1289 C1290 1.379 . S
C1290 H1274 0.931 . S
C1290 C1284 1.383 . S
C1290 C1289 1.379 . S
H1291 C1285 0.959 . S
H1292 C1285 0.961 . S
H1293 C1285 0.960 . S
H1294 C1286 0.930 . S
H1295 C1287 0.946 . S
H1296 C1304 0.929 . S
H1297 C1306 0.930 . S
H1298 C1308 0.930 . S
H1299 C1311 0.929 . S
H1300 C1314 0.930 . S
H1301 C1316 0.960 . S
H1302 C1316 0.960 . S
H1303 C1316 0.960 . S
C1304 H1296 0.929 . S
C1304 C1305 1.377 . S
C1304 C1306 1.384 . S
C1305 C1304 1.377 . S
C1305 C1311 1.390 . S
C1306 H1297 0.930 . S
C1306 C1304 1.384 . S
C1306 C1307 1.372 . S
C1307 C1306 1.372 . S
C1307 C1308 1.400 . S
C1307 C1312 1.490 . S
C1308 H1298 0.930 . S
C1308 C1307 1.400 . S
C1308 C1311 1.386 . S
H1309 C1325 0.930 . S
H1310 C1326 0.931 . S
C1311 H1299 0.929 . S
C1311 C1305 1.390 . S
C1311 C1308 1.386 . S
C1312 C1307 1.490 . S
C1312 C1314 1.395 . S
C1312 C1315 1.403 . S
H1313 C1319 0.930 . S
C1314 H1300 0.930 . S
C1314 C1312 1.395 . S
C1314 C1317 1.403 . S
C1315 C1312 1.403 . S
C1315 C1316 1.524 . S
C1315 C1319 1.400 . S
C1316 H1301 0.960 . S
C1316 H1302 0.960 . S
C1316 H1303 0.960 . S
C1316 C1315 1.524 . S
C1317 C1314 1.403 . S
C1317 C1318 1.392 . S
C1317 C1321 1.495 . S
C1318 C1317 1.392 . S
C1318 C1319 1.385 . S
C1318 C1320 1.478 . S
C1319 H1313 0.930 . S
C1319 C1315 1.400 . S
C1319 C1318 1.385 . S
C1320 C1318 1.478 . S
C1320 C1322 1.381 . S
C1320 C1326 1.383 . S
C1321 C1317 1.495 . S
C1321 H1327 0.959 . S
C1321 H1328 0.961 . S
C1321 H1329 0.960 . S
C1322 C1320 1.381 . S
C1322 C1323 1.394 . S
C1322 H1330 0.930 . S
C1323 C1322 1.394 . S
C1323 C1324 1.383 . S
C1323 H1331 0.929 . S
C1324 C1323 1.383 . S
C1324 C1325 1.377 . S
C1325 H1309 0.930 . S
C1325 C1324 1.377 . S
C1325 C1326 1.379 . S
C1326 H1310 0.931 . S
C1326 C1320 1.383 . S
C1326 C1325 1.379 . S
H1327 C1321 0.959 . S
H1328 C1321 0.961 . S
H1329 C1321 0.960 . S
H1330 C1322 0.930 . S
H1331 C1323 0.929 . S
H1332 C1340 0.929 . S
H1333 C1342 0.930 . S
H1334 C1344 0.930 . S
H1335 C1347 0.929 . S
H1336 C1350 0.930 . S
H1337 C1352 0.960 . S
H1338 C1352 0.960 . S
H1339 C1352 0.960 . S
C1340 H1332 0.929 . S
C1340 C1341 1.377 . S
C1340 C1342 1.384 . S
C1341 C1340 1.377 . S
C1341 C1347 1.390 . S
C1342 H1333 0.930 . S
C1342 C1340 1.384 . S
C1342 C1343 1.372 . S
C1343 C1342 1.372 . S
C1343 C1344 1.400 . S
C1343 C1348 1.490 . S
C1344 H1334 0.930 . S
C1344 C1343 1.400 . S
C1344 C1347 1.386 . S
H1345 C1361 0.930 . S
H1346 C1362 0.931 . S
C1347 H1335 0.929 . S
C1347 C1341 1.390 . S
C1347 C1344 1.386 . S
C1348 C1343 1.490 . S
C1348 C1350 1.395 . S
C1348 C1351 1.403 . S
H1349 C1355 0.930 . S
C1350 H1336 0.930 . S
C1350 C1348 1.395 . S
C1350 C1353 1.403 . S
C1351 C1348 1.403 . S
C1351 C1352 1.524 . S
C1351 C1355 1.400 . S
C1352 H1337 0.960 . S
C1352 H1338 0.960 . S
C1352 H1339 0.960 . S
C1352 C1351 1.524 . S
C1353 C1350 1.403 . S
C1353 C1354 1.392 . S
C1353 C1357 1.495 . S
C1354 C1353 1.392 . S
C1354 C1355 1.385 . S
C1354 C1356 1.478 . S
C1355 H1349 0.930 . S
C1355 C1351 1.400 . S
C1355 C1354 1.385 . S
C1356 C1354 1.478 . S
C1356 C1358 1.381 . S
C1356 C1362 1.383 . S
C1357 C1353 1.495 . S
C1357 H1363 0.959 . S
C1357 H1364 0.961 . S
C1357 H1365 0.960 . S
C1358 C1356 1.381 . S
C1358 C1359 1.394 . S
C1358 H1366 0.930 . S
C1359 C1358 1.394 . S
C1359 C1360 1.383 . S
C1359 H1367 0.929 . S
C1360 C1359 1.383 . S
C1360 C1361 1.377 . S
C1361 H1345 0.930 . S
C1361 C1360 1.377 . S
C1361 C1362 1.379 . S
C1362 H1346 0.931 . S
C1362 C1356 1.383 . S
C1362 C1361 1.379 . S
H1363 C1357 0.959 . S
H1364 C1357 0.961 . S
H1365 C1357 0.960 . S
H1366 C1358 0.930 . S
H1367 C1359 0.929 . S
H1368 C1376 0.929 . S
H1369 C1378 0.930 . S
H1370 C1380 0.930 . S
H1371 C1383 0.929 . S
H1372 C1386 0.930 . S
H1373 C1388 0.960 . S
H1374 C1388 0.960 . S
H1375 C1388 0.960 . S
C1376 H1368 0.929 . S
C1376 C1377 1.377 . S
C1376 C1378 1.384 . S
C1377 C1376 1.377 . S
C1377 C1383 1.390 . S
C1378 H1369 0.930 . S
C1378 C1376 1.384 . S
C1378 C1379 1.372 . S
C1379 C1378 1.372 . S
C1379 C1380 1.400 . S
C1379 C1384 1.490 . S
C1380 H1370 0.930 . S
C1380 C1379 1.400 . S
C1380 C1383 1.386 . S
H1381 C1397 0.930 . S
H1382 C1398 0.931 . S
C1383 H1371 0.929 . S
C1383 C1377 1.390 . S
C1383 C1380 1.386 . S
C1384 C1379 1.490 . S
C1384 C1386 1.395 . S
C1384 C1387 1.403 . S
H1385 C1391 0.930 . S
C1386 H1372 0.930 . S
C1386 C1384 1.395 . S
C1386 C1389 1.403 . S
C1387 C1384 1.403 . S
C1387 C1388 1.524 . S
C1387 C1391 1.400 . S
C1388 H1373 0.960 . S
C1388 H1374 0.960 . S
C1388 H1375 0.960 . S
C1388 C1387 1.524 . S
C1389 C1386 1.403 . S
C1389 C1390 1.392 . S
C1389 C1393 1.495 . S
C1390 C1389 1.392 . S
C1390 C1391 1.385 . S
C1390 C1392 1.478 . S
C1391 H1385 0.930 . S
C1391 C1387 1.400 . S
C1391 C1390 1.385 . S
C1392 C1390 1.478 . S
C1392 C1394 1.381 . S
C1392 C1398 1.383 . S
C1393 C1389 1.495 . S
C1393 H1399 0.959 . S
C1393 H1400 0.961 . S
C1393 H1401 0.960 . S
C1394 C1392 1.381 . S
C1394 C1395 1.394 . S
C1394 H1402 0.930 . S
C1395 C1394 1.394 . S
C1395 C1396 1.383 . S
C1395 H1403 0.929 . S
C1396 C1395 1.383 . S
C1396 C1397 1.377 . S
C1397 H1381 0.930 . S
C1397 C1396 1.377 . S
C1397 C1398 1.379 . S
C1398 H1382 0.931 . S
C1398 C1392 1.383 . S
C1398 C1397 1.379 . S
H1399 C1393 0.959 . S
H1400 C1393 0.961 . S
H1401 C1393 0.960 . S
H1402 C1394 0.930 . S
H1403 C1395 0.929 . S
H1404 C1412 0.929 . S
H1405 C1414 0.930 . S
H1406 C1416 0.930 . S
H1407 C1419 0.929 . S
H1408 C1422 0.930 . S
H1409 C1424 0.960 . S
H1410 C1424 0.960 . S
H1411 C1424 0.960 . S
C1412 H1404 0.929 . S
C1412 C1413 1.377 . S
C1412 C1414 1.384 . S
C1413 C1412 1.377 . S
C1413 C1419 1.390 . S
C1414 H1405 0.930 . S
C1414 C1412 1.384 . S
C1414 C1415 1.372 . S
C1415 C1414 1.372 . S
C1415 C1416 1.400 . S
C1415 C1420 1.490 . S
C1416 H1406 0.930 . S
C1416 C1415 1.400 . S
C1416 C1419 1.386 . S
H1417 C1433 0.930 . S
H1418 C1434 0.931 . S
C1419 H1407 0.929 . S
C1419 C1413 1.390 . S
C1419 C1416 1.386 . S
C1420 C1415 1.490 . S
C1420 C1422 1.395 . S
C1420 C1423 1.403 . S
H1421 C1427 0.930 . S
C1422 H1408 0.930 . S
C1422 C1420 1.395 . S
C1422 C1425 1.403 . S
C1423 C1420 1.403 . S
C1423 C1424 1.524 . S
C1423 C1427 1.400 . S
C1424 H1409 0.960 . S
C1424 H1410 0.960 . S
C1424 H1411 0.960 . S
C1424 C1423 1.524 . S
C1425 C1422 1.403 . S
C1425 C1426 1.392 . S
C1425 C1429 1.495 . S
C1426 C1425 1.392 . S
C1426 C1427 1.385 . S
C1426 C1428 1.478 . S
C1427 H1421 0.930 . S
C1427 C1423 1.400 . S
C1427 C1426 1.385 . S
C1428 C1426 1.478 . S
C1428 C1430 1.381 . S
C1428 C1434 1.383 . S
C1429 C1425 1.495 . S
C1429 H1435 0.959 . S
C1429 H1436 0.961 . S
C1429 H1437 0.960 . S
C1430 C1428 1.381 . S
C1430 C1431 1.394 . S
C1430 H1438 0.930 . S
C1431 C1430 1.394 . S
C1431 C1432 1.383 . S
C1431 H1439 0.929 . S
C1432 C1431 1.383 . S
C1432 C1433 1.377 . S
C1433 H1417 0.930 . S
C1433 C1432 1.377 . S
C1433 C1434 1.379 . S
C1434 H1418 0.931 . S
C1434 C1428 1.383 . S
C1434 C1433 1.379 . S
H1435 C1429 0.959 . S
H1436 C1429 0.961 . S
H1437 C1429 0.960 . S
H1438 C1430 0.930 . S
H1439 C1431 0.929 . S
H1440 C1448 0.929 . S
H1441 C1450 0.930 . S
H1442 C1452 0.930 . S
H1443 C1455 0.929 . S
H1444 C1458 0.930 . S
H1445 C1460 0.960 . S
H1446 C1460 0.960 . S
H1447 C1460 0.960 . S
C1448 H1440 0.929 . S
C1448 C1449 1.377 . S
C1448 C1450 1.384 . S
C1449 C1448 1.377 . S
C1449 C1455 1.390 . S
C1450 H1441 0.930 . S
C1450 C1448 1.384 . S
C1450 C1451 1.372 . S
C1451 C1450 1.372 . S
C1451 C1452 1.400 . S
C1451 C1456 1.490 . S
C1452 H1442 0.930 . S
C1452 C1451 1.400 . S
C1452 C1455 1.386 . S
H1453 C1469 0.930 . S
H1454 C1470 0.931 . S
C1455 H1443 0.929 . S
C1455 C1449 1.390 . S
C1455 C1452 1.386 . S
C1456 C1451 1.490 . S
C1456 C1458 1.395 . S
C1456 C1459 1.403 . S
H1457 C1463 0.930 . S
C1458 H1444 0.930 . S
C1458 C1456 1.395 . S
C1458 C1461 1.403 . S
C1459 C1456 1.403 . S
C1459 C1460 1.524 . S
C1459 C1463 1.400 . S
C1460 H1445 0.960 . S
C1460 H1446 0.960 . S
C1460 H1447 0.960 . S
C1460 C1459 1.524 . S
C1461 C1458 1.403 . S
C1461 C1462 1.392 . S
C1461 C1465 1.495 . S
C1462 C1461 1.392 . S
C1462 C1463 1.385 . S
C1462 C1464 1.478 . S
C1463 H1457 0.930 . S
C1463 C1459 1.400 . S
C1463 C1462 1.385 . S
C1464 C1462 1.478 . S
C1464 C1466 1.381 . S
C1464 C1470 1.383 . S
C1465 C1461 1.495 . S
C1465 H1471 0.959 . S
C1465 H1472 0.961 . S
C1465 H1473 0.960 . S
C1466 C1464 1.381 . S
C1466 C1467 1.394 . S
C1466 H1474 0.930 . S
C1467 C1466 1.394 . S
C1467 C1468 1.383 . S
C1467 H1475 0.929 . S
C1468 C1467 1.383 . S
C1468 C1469 1.377 . S
C1469 H1453 0.930 . S
C1469 C1468 1.377 . S
C1469 C1470 1.379 . S
C1470 H1454 0.931 . S
C1470 C1464 1.383 . S
C1470 C1469 1.379 . S
H1471 C1465 0.959 . S
H1472 C1465 0.961 . S
H1473 C1465 0.960 . S
H1474 C1466 0.930 . S
H1475 C1467 0.929 . S
H1476 C1484 0.929 . S
H1477 C1486 0.930 . S
H1478 C1488 0.930 . S
H1479 C1491 0.929 . S
H1480 C1494 0.930 . S
H1481 C1496 0.960 . S
H1482 C1496 0.960 . S
H1483 C1496 0.960 . S
C1484 H1476 0.929 . S
C1484 C1485 1.377 . S
C1484 C1486 1.384 . S
C1485 C1484 1.377 . S
C1485 C1491 1.390 . S
C1486 H1477 0.930 . S
C1486 C1484 1.384 . S
C1486 C1487 1.372 . S
C1487 C1486 1.372 . S
C1487 C1488 1.400 . S
C1487 C1492 1.490 . S
C1488 H1478 0.930 . S
C1488 C1487 1.400 . S
C1488 C1491 1.386 . S
H1489 C1505 0.930 . S
H1490 C1506 0.931 . S
C1491 H1479 0.929 . S
C1491 C1485 1.390 . S
C1491 C1488 1.386 . S
C1492 C1487 1.490 . S
C1492 C1494 1.395 . S
C1492 C1495 1.403 . S
H1493 C1499 0.930 . S
C1494 H1480 0.930 . S
C1494 C1492 1.395 . S
C1494 C1497 1.403 . S
C1495 C1492 1.403 . S
C1495 C1496 1.524 . S
C1495 C1499 1.400 . S
C1496 H1481 0.960 . S
C1496 H1482 0.960 . S
C1496 H1483 0.960 . S
C1496 C1495 1.524 . S
C1497 C1494 1.403 . S
C1497 C1498 1.392 . S
C1497 C1501 1.495 . S
C1498 C1497 1.392 . S
C1498 C1499 1.385 . S
C1498 C1500 1.478 . S
C1499 H1493 0.930 . S
C1499 C1495 1.400 . S
C1499 C1498 1.385 . S
C1500 C1498 1.478 . S
C1500 C1502 1.381 . S
C1500 C1506 1.383 . S
C1501 C1497 1.495 . S
C1501 H1507 0.959 . S
C1501 H1508 0.961 . S
C1501 H1509 0.960 . S
C1502 C1500 1.381 . S
C1502 C1503 1.394 . S
C1502 H1510 0.930 . S
C1503 C1502 1.394 . S
C1503 C1504 1.383 . S
C1503 H1511 0.929 . S
C1504 C1503 1.383 . S
C1504 C1505 1.377 . S
C1505 H1489 0.930 . S
C1505 C1504 1.377 . S
C1505 C1506 1.379 . S
C1506 H1490 0.931 . S
C1506 C1500 1.383 . S
C1506 C1505 1.379 . S
H1507 C1501 0.959 . S
H1508 C1501 0.961 . S
H1509 C1501 0.960 . S
H1510 C1502 0.930 . S
H1511 C1503 0.929 . S
H1512 C1520 0.929 . S
H1513 C1522 0.930 . S
H1514 C1524 0.930 . S
H1515 C1527 0.929 . S
H1516 C1530 0.930 . S
H1517 C1532 0.960 . S
H1518 C1532 0.960 . S
H1519 C1532 0.960 . S
C1520 H1512 0.929 . S
C1520 C1521 1.377 . S
C1520 C1522 1.384 . S
C1521 C1520 1.377 . S
C1521 C1527 1.390 . S
C1522 H1513 0.930 . S
C1522 C1520 1.384 . S
C1522 C1523 1.372 . S
C1523 C1522 1.372 . S
C1523 C1524 1.400 . S
C1523 C1528 1.490 . S
C1524 H1514 0.930 . S
C1524 C1523 1.400 . S
C1524 C1527 1.386 . S
H1525 C1541 0.930 . S
H1526 C1542 0.931 . S
C1527 H1515 0.929 . S
C1527 C1521 1.390 . S
C1527 C1524 1.386 . S
C1528 C1523 1.490 . S
C1528 C1530 1.395 . S
C1528 C1531 1.403 . S
H1529 C1535 0.930 . S
C1530 H1516 0.930 . S
C1530 C1528 1.395 . S
C1530 C1533 1.403 . S
C1531 C1528 1.403 . S
C1531 C1532 1.524 . S
C1531 C1535 1.400 . S
C1532 H1517 0.960 . S
C1532 H1518 0.960 . S
C1532 H1519 0.960 . S
C1532 C1531 1.524 . S
C1533 C1530 1.403 . S
C1533 C1534 1.392 . S
C1533 C1537 1.495 . S
C1534 C1533 1.392 . S
C1534 C1535 1.385 . S
C1534 C1536 1.478 . S
C1535 H1529 0.930 . S
C1535 C1531 1.400 . S
C1535 C1534 1.385 . S
C1536 C1534 1.478 . S
C1536 C1538 1.381 . S
C1536 C1542 1.383 . S
C1537 C1533 1.495 . S
C1537 H1543 0.959 . S
C1537 H1544 0.961 . S
C1537 H1545 0.960 . S
C1538 C1536 1.381 . S
C1538 C1539 1.394 . S
C1538 H1546 0.930 . S
C1539 C1538 1.394 . S
C1539 C1540 1.383 . S
C1539 H1547 0.929 . S
C1540 C1539 1.383 . S
C1540 C1541 1.377 . S
C1541 H1525 0.930 . S
C1541 C1540 1.377 . S
C1541 C1542 1.379 . S
C1542 H1526 0.931 . S
C1542 C1536 1.383 . S
C1542 C1541 1.379 . S
H1543 C1537 0.959 . S
H1544 C1537 0.961 . S
H1545 C1537 0.960 . S
H1546 C1538 0.930 . S
H1547 C1539 0.929 . S
H1548 C1556 0.929 . S
H1549 C1558 0.930 . S
H1550 C1560 0.930 . S
H1551 C1563 0.929 . S
H1552 C1566 0.930 . S
H1553 C1568 0.960 . S
H1554 C1568 0.960 . S
H1555 C1568 0.960 . S
C1556 H1548 0.929 . S
C1556 C1557 1.377 . S
C1556 C1558 1.384 . S
C1557 C1556 1.377 . S
C1557 C1563 1.390 . S
C1558 H1549 0.930 . S
C1558 C1556 1.384 . S
C1558 C1559 1.372 . S
C1559 C1558 1.372 . S
C1559 C1560 1.400 . S
C1559 C1564 1.490 . S
C1560 H1550 0.930 . S
C1560 C1559 1.400 . S
C1560 C1563 1.386 . S
H1561 C1577 0.930 . S
H1562 C1578 0.931 . S
C1563 H1551 0.929 . S
C1563 C1557 1.390 . S
C1563 C1560 1.386 . S
C1564 C1559 1.490 . S
C1564 C1566 1.395 . S
C1564 C1567 1.403 . S
H1565 C1571 0.930 . S
C1566 H1552 0.930 . S
C1566 C1564 1.395 . S
C1566 C1569 1.403 . S
C1567 C1564 1.403 . S
C1567 C1568 1.524 . S
C1567 C1571 1.400 . S
C1568 H1553 0.960 . S
C1568 H1554 0.960 . S
C1568 H1555 0.960 . S
C1568 C1567 1.524 . S
C1569 C1566 1.403 . S
C1569 C1570 1.392 . S
C1569 C1573 1.495 . S
C1570 C1569 1.392 . S
C1570 C1571 1.385 . S
C1570 C1572 1.478 . S
C1571 H1565 0.930 . S
C1571 C1567 1.400 . S
C1571 C1570 1.385 . S
C1572 C1570 1.478 . S
C1572 C1574 1.381 . S
C1572 C1578 1.383 . S
C1573 C1569 1.495 . S
C1573 H1579 0.959 . S
C1573 H1580 0.961 . S
C1573 H1581 0.960 . S
C1574 C1572 1.381 . S
C1574 C1575 1.394 . S
C1574 H1582 0.930 . S
C1575 C1574 1.394 . S
C1575 C1576 1.383 . S
C1575 H1583 0.929 . S
C1576 C1575 1.383 . S
C1576 C1577 1.377 . S
C1577 H1561 0.930 . S
C1577 C1576 1.377 . S
C1577 C1578 1.379 . S
C1578 H1562 0.931 . S
C1578 C1572 1.383 . S
C1578 C1577 1.379 . S
H1579 C1573 0.959 . S
H1580 C1573 0.961 . S
H1581 C1573 0.960 . S
H1582 C1574 0.930 . S
H1583 C1575 0.929 . S
H1584 C1592 0.929 . S
H1585 C1594 0.930 . S
H1586 C1596 0.930 . S
H1587 C1599 0.929 . S
H1588 C1602 0.930 . S
H1589 C1604 0.960 . S
H1590 C1604 0.960 . S
H1591 C1604 0.960 . S
C1592 H1584 0.929 . S
C1592 C1593 1.377 . S
C1592 C1594 1.384 . S
C1593 C1592 1.377 . S
C1593 C1599 1.390 . S
C1594 H1585 0.930 . S
C1594 C1592 1.384 . S
C1594 C1595 1.372 . S
C1595 C1594 1.372 . S
C1595 C1596 1.400 . S
C1595 C1600 1.490 . S
C1596 H1586 0.930 . S
C1596 C1595 1.400 . S
C1596 C1599 1.386 . S
H1597 C1613 0.930 . S
H1598 C1614 0.931 . S
C1599 H1587 0.929 . S
C1599 C1593 1.390 . S
C1599 C1596 1.386 . S
C1600 C1595 1.490 . S
C1600 C1602 1.395 . S
C1600 C1603 1.403 . S
H1601 C1607 0.930 . S
C1602 H1588 0.930 . S
C1602 C1600 1.395 . S
C1602 C1605 1.403 . S
C1603 C1600 1.403 . S
C1603 C1604 1.524 . S
C1603 C1607 1.400 . S
C1604 H1589 0.960 . S
C1604 H1590 0.960 . S
C1604 H1591 0.960 . S
C1604 C1603 1.524 . S
C1605 C1602 1.403 . S
C1605 C1606 1.392 . S
C1605 C1609 1.495 . S
C1606 C1605 1.392 . S
C1606 C1607 1.385 . S
C1606 C1608 1.478 . S
C1607 H1601 0.930 . S
C1607 C1603 1.400 . S
C1607 C1606 1.385 . S
C1608 C1606 1.478 . S
C1608 C1610 1.381 . S
C1608 C1614 1.383 . S
C1609 C1605 1.495 . S
C1609 H1615 0.959 . S
C1609 H1616 0.961 . S
C1609 H1617 0.960 . S
C1610 C1608 1.381 . S
C1610 C1611 1.394 . S
C1610 H1618 0.930 . S
C1611 C1610 1.394 . S
C1611 C1612 1.383 . S
C1611 H1619 0.929 . S
C1612 C1611 1.383 . S
C1612 C1613 1.377 . S
C1613 H1597 0.930 . S
C1613 C1612 1.377 . S
C1613 C1614 1.379 . S
C1614 H1598 0.931 . S
C1614 C1608 1.383 . S
C1614 C1613 1.379 . S
H1615 C1609 0.959 . S
H1616 C1609 0.961 . S
H1617 C1609 0.960 . S
H1618 C1610 0.930 . S
H1619 C1611 0.929 . S
H1620 C1628 0.929 . S
H1621 C1630 0.930 . S
H1622 C1632 0.930 . S
H1623 C1635 0.929 . S
H1624 C1638 0.930 . S
H1625 C1640 0.960 . S
H1626 C1640 0.960 . S
H1627 C1640 0.960 . S
C1628 H1620 0.929 . S
C1628 C1629 1.377 . S
C1628 C1630 1.384 . S
C1629 C1628 1.377 . S
C1629 C1635 1.390 . S
C1630 H1621 0.930 . S
C1630 C1628 1.384 . S
C1630 C1631 1.372 . S
C1631 C1630 1.372 . S
C1631 C1632 1.400 . S
C1631 C1636 1.490 . S
C1632 H1622 0.930 . S
C1632 C1631 1.400 . S
C1632 C1635 1.386 . S
H1633 C1649 0.930 . S
H1634 C1650 0.931 . S
C1635 H1623 0.929 . S
C1635 C1629 1.390 . S
C1635 C1632 1.386 . S
C1636 C1631 1.490 . S
C1636 C1638 1.395 . S
C1636 C1639 1.403 1_655 S
H1637 C1643 0.930 . S
C1638 H1624 0.930 . S
C1638 C1636 1.395 . S
C1638 C1641 1.403 . S
C1639 C1636 1.403 1_455 S
C1639 C1640 1.524 . S
C1639 C1643 1.400 . S
C1640 H1625 0.960 . S
C1640 H1626 0.960 . S
C1640 H1627 0.960 . S
C1640 C1639 1.524 . S
C1641 C1638 1.403 . S
C1641 C1642 1.392 1_655 S
C1641 C1645 1.495 . S
C1642 C1641 1.392 1_455 S
C1642 C1643 1.385 . S
C1642 C1644 1.478 . S
C1643 H1637 0.930 . S
C1643 C1639 1.400 . S
C1643 C1642 1.385 . S
C1644 C1642 1.478 . S
C1644 C1646 1.381 . S
C1644 C1650 1.383 . S
C1645 C1641 1.495 . S
C1645 H1651 0.959 . S
C1645 H1652 0.961 . S
C1645 H1653 0.960 . S
C1646 C1644 1.381 . S
C1646 C1647 1.394 . S
C1646 H1654 0.930 . S
C1647 C1646 1.394 . S
C1647 C1648 1.383 . S
C1647 H1655 0.929 . S
C1648 C1647 1.383 . S
C1648 C1649 1.377 . S
C1649 H1633 0.930 . S
C1649 C1648 1.377 . S
C1649 C1650 1.379 . S
C1650 H1634 0.931 . S
C1650 C1644 1.383 . S
C1650 C1649 1.379 . S
H1651 C1645 0.959 . S
H1652 C1645 0.961 . S
H1653 C1645 0.960 . S
H1654 C1646 0.930 . S
H1655 C1647 0.929 . S
H1656 C1664 0.929 . S
H1657 C1666 0.930 . S
H1658 C1668 0.930 . S
H1659 C1671 0.929 . S
H1660 C1674 0.930 . S
H1661 C1676 0.960 . S
H1662 C1676 0.960 . S
H1663 C1676 0.960 . S
C1664 H1656 0.929 . S
C1664 C1665 1.377 . S
C1664 C1666 1.384 . S
C1665 C1664 1.377 . S
C1665 C1671 1.390 . S
C1666 H1657 0.930 . S
C1666 C1664 1.384 . S
C1666 C1667 1.372 . S
C1667 C1666 1.372 . S
C1667 C1668 1.400 . S
C1667 C1672 1.490 . S
C1668 H1658 0.930 . S
C1668 C1667 1.400 . S
C1668 C1671 1.386 . S
H1669 C1685 0.930 . S
H1670 C1686 0.931 . S
C1671 H1659 0.929 . S
C1671 C1665 1.390 . S
C1671 C1668 1.386 . S
C1672 C1667 1.490 . S
C1672 C1674 1.395 . S
C1672 C1675 1.403 . S
H1673 C1679 0.930 . S
C1674 H1660 0.930 . S
C1674 C1672 1.395 . S
C1674 C1677 1.403 . S
C1675 C1672 1.403 . S
C1675 C1676 1.524 . S
C1675 C1679 1.400 . S
C1676 H1661 0.960 . S
C1676 H1662 0.960 . S
C1676 H1663 0.960 . S
C1676 C1675 1.524 . S
C1677 C1674 1.403 . S
C1677 C1678 1.392 . S
C1677 C1681 1.495 . S
C1678 C1677 1.392 . S
C1678 C1679 1.385 . S
C1678 C1680 1.478 . S
C1679 H1673 0.930 . S
C1679 C1675 1.400 . S
C1679 C1678 1.385 . S
C1680 C1678 1.478 . S
C1680 C1682 1.381 . S
C1680 C1686 1.383 . S
C1681 C1677 1.495 . S
C1681 H1687 0.959 . S
C1681 H1688 0.961 . S
C1681 H1689 0.960 . S
C1682 C1680 1.381 . S
C1682 C1683 1.394 . S
C1682 H1690 0.930 . S
C1683 C1682 1.394 . S
C1683 C1684 1.383 . S
C1683 H1691 0.929 . S
C1684 C1683 1.383 . S
C1684 C1685 1.377 . S
C1685 H1669 0.930 . S
C1685 C1684 1.377 . S
C1685 C1686 1.379 . S
C1686 H1670 0.931 . S
C1686 C1680 1.383 . S
C1686 C1685 1.379 . S
H1687 C1681 0.959 . S
H1688 C1681 0.961 . S
H1689 C1681 0.960 . S
H1690 C1682 0.930 . S
H1691 C1683 0.929 . S
H1692 C1700 0.929 . S
H1693 C1702 0.930 . S
H1694 C1704 0.930 . S
H1695 C1707 0.929 . S
H1696 C1710 0.930 . S
H1697 C1712 0.960 . S
H1698 C1712 0.960 . S
H1699 C1712 0.960 . S
C1700 H1692 0.929 . S
C1700 C1701 1.377 . S
C1700 C1702 1.384 . S
C1701 C1700 1.377 . S
C1701 C1707 1.390 . S
C1702 H1693 0.930 . S
C1702 C1700 1.384 . S
C1702 C1703 1.372 . S
C1703 C1702 1.372 . S
C1703 C1704 1.400 . S
C1703 C1708 1.490 . S
C1704 H1694 0.930 . S
C1704 C1703 1.400 . S
C1704 C1707 1.386 . S
H1705 C1721 0.930 . S
H1706 C1722 0.931 . S
C1707 H1695 0.929 . S
C1707 C1701 1.390 . S
C1707 C1704 1.386 . S
C1708 C1703 1.490 . S
C1708 C1710 1.395 . S
C1708 C1711 1.403 1_565 S
H1709 C1715 0.930 . S
C1710 H1696 0.930 . S
C1710 C1708 1.395 . S
C1710 C1713 1.403 . S
C1711 C1708 1.403 1_545 S
C1711 C1712 1.524 . S
C1711 C1715 1.400 . S
C1712 H1697 0.960 . S
C1712 H1698 0.960 . S
C1712 H1699 0.960 . S
C1712 C1711 1.524 . S
C1713 C1710 1.403 . S
C1713 C1714 1.392 1_565 S
C1713 C1717 1.495 . S
C1714 C1713 1.392 1_545 S
C1714 C1715 1.385 . S
C1714 C1716 1.478 . S
C1715 H1709 0.930 . S
C1715 C1711 1.400 . S
C1715 C1714 1.385 . S
C1716 C1714 1.478 . S
C1716 C1718 1.381 . S
C1716 C1722 1.383 . S
C1717 C1713 1.495 . S
C1717 H1723 0.959 . S
C1717 H1724 0.961 . S
C1717 H1725 0.960 . S
C1718 C1716 1.381 . S
C1718 C1719 1.394 . S
C1718 H1726 0.930 . S
C1719 C1718 1.394 . S
C1719 C1720 1.383 . S
C1719 H1727 0.929 . S
C1720 C1719 1.383 . S
C1720 C1721 1.377 . S
C1721 H1705 0.930 . S
C1721 C1720 1.377 . S
C1721 C1722 1.379 . S
C1722 H1706 0.931 . S
C1722 C1716 1.383 . S
C1722 C1721 1.379 . S
H1723 C1717 0.959 . S
H1724 C1717 0.961 . S
H1725 C1717 0.960 . S
H1726 C1718 0.930 . S
H1727 C1719 0.929 . S
H1728 C1736 0.929 . S
H1729 C1738 0.930 . S
H1730 C1740 0.930 . S
H1731 C1743 0.929 . S
H1732 C1746 0.930 . S
H1733 C1748 0.960 . S
H1734 C1748 0.960 . S
H1735 C1748 0.960 . S
C1736 H1728 0.929 . S
C1736 C1737 1.377 . S
C1736 C1738 1.384 . S
C1737 C1736 1.377 . S
C1737 C1743 1.390 . S
C1738 H1729 0.930 . S
C1738 C1736 1.384 . S
C1738 C1739 1.372 . S
C1739 C1738 1.372 . S
C1739 C1740 1.400 . S
C1739 C1744 1.490 . S
C1740 H1730 0.930 . S
C1740 C1739 1.400 . S
C1740 C1743 1.386 . S
H1741 C1757 0.930 . S
H1742 C1758 0.931 . S
C1743 H1731 0.929 . S
C1743 C1737 1.390 . S
C1743 C1740 1.386 . S
C1744 C1739 1.490 . S
C1744 C1746 1.395 1_565 S
C1744 C1747 1.403 . S
H1745 C1751 0.930 . S
C1746 H1732 0.930 . S
C1746 C1744 1.395 1_545 S
C1746 C1749 1.403 . S
C1747 C1744 1.403 . S
C1747 C1748 1.524 . S
C1747 C1751 1.400 . S
C1748 H1733 0.960 . S
C1748 H1734 0.960 . S
C1748 H1735 0.960 . S
C1748 C1747 1.524 . S
C1749 C1746 1.403 . S
C1749 C1750 1.392 . S
C1749 C1753 1.495 . S
C1750 C1749 1.392 . S
C1750 C1751 1.385 1_545 S
C1750 C1752 1.478 . S
C1751 H1745 0.930 . S
C1751 C1747 1.400 . S
C1751 C1750 1.385 1_565 S
C1752 C1750 1.478 . S
C1752 C1754 1.381 . S
C1752 C1758 1.383 . S
C1753 C1749 1.495 . S
C1753 H1759 0.959 . S
C1753 H1760 0.961 . S
C1753 H1761 0.960 . S
C1754 C1752 1.381 . S
C1754 C1755 1.394 . S
C1754 H1762 0.930 . S
C1755 C1754 1.394 . S
C1755 C1756 1.383 . S
C1755 H1763 0.929 . S
C1756 C1755 1.383 . S
C1756 C1757 1.377 . S
C1757 H1741 0.930 . S
C1757 C1756 1.377 . S
C1757 C1758 1.379 . S
C1758 H1742 0.931 . S
C1758 C1752 1.383 . S
C1758 C1757 1.379 . S
H1759 C1753 0.959 . S
H1760 C1753 0.961 . S
H1761 C1753 0.960 . S
H1762 C1754 0.930 . S
H1763 C1755 0.929 . S
H1764 C1772 0.929 . S
H1765 C1774 0.930 1_655 S
H1766 C1776 0.930 . S
H1767 C1779 0.929 . S
H1768 C1782 0.930 . S
H1769 C1784 0.960 . S
H1770 C1784 0.960 . S
H1771 C1784 0.960 1_455 S
C1772 H1764 0.929 . S
C1772 C1773 1.377 . S
C1772 C1774 1.384 . S
C1773 C1772 1.377 . S
C1773 C1779 1.390 . S
C1774 H1765 0.930 1_455 S
C1774 C1772 1.384 . S
C1774 C1775 1.372 . S
C1775 C1774 1.372 . S
C1775 C1776 1.400 . S
C1775 C1780 1.490 . S
C1776 H1766 0.930 . S
C1776 C1775 1.400 . S
C1776 C1779 1.386 . S
H1777 C1793 0.930 . S
H1778 C1794 0.931 1_455 S
C1779 H1767 0.929 . S
C1779 C1773 1.390 . S
C1779 C1776 1.386 . S
C1780 C1775 1.490 . S
C1780 C1782 1.395 . S
C1780 C1783 1.347 1_455 S
H1781 C1787 0.930 . S
C1782 H1768 0.930 . S
C1782 C1780 1.395 . S
C1782 C1785 1.407 . S
C1783 C1780 1.347 1_655 S
C1783 C1784 1.562 . S
C1783 C1787 1.422 . S
C1784 H1769 0.960 . S
C1784 H1770 0.960 . S
C1784 H1771 0.960 1_655 S
C1784 C1783 1.562 . S
C1785 C1782 1.407 . S
C1785 C1786 1.383 1_455 S
C1785 C1789 1.501 . S
C1786 C1785 1.383 1_655 S
C1786 C1787 1.385 . S
C1786 C1788 1.478 . S
C1787 H1781 0.930 . S
C1787 C1783 1.422 . S
C1787 C1786 1.385 . S
C1788 C1786 1.478 . S
C1788 C1790 1.381 . S
C1788 C1794 1.383 . S
C1789 C1785 1.501 . S
C1789 H1795 0.959 . S
C1789 H1796 0.961 . S
C1789 H1797 0.960 1_455 S
C1790 C1788 1.381 . S
C1790 C1791 1.394 . S
C1790 H1798 0.930 . S
C1791 C1790 1.394 . S
C1791 C1792 1.383 . S
C1791 H1799 0.929 . S
C1792 C1791 1.383 . S
C1792 C1793 1.377 . S
C1793 H1777 0.930 . S
C1793 C1792 1.377 . S
C1793 C1794 1.379 . S
C1794 H1778 0.931 1_655 S
C1794 C1788 1.383 . S
C1794 C1793 1.379 . S
H1795 C1789 0.959 . S
H1796 C1789 0.961 . S
H1797 C1789 0.960 1_655 S
H1798 C1790 0.930 . S
H1799 C1791 0.929 . S
H1800 C1808 0.929 . S
H1801 C1810 0.930 . S
H1802 C1812 0.930 . S
H1803 C1815 0.929 . S
H1804 C1818 0.930 . S
H1805 C1820 0.960 . S
H1806 C1820 0.960 . S
H1807 C1820 0.960 . S
C1808 H1800 0.929 . S
C1808 C1809 1.377 . S
C1808 C1810 1.384 . S
C1809 C1808 1.377 . S
C1809 C1815 1.390 . S
C1810 H1801 0.930 . S
C1810 C1808 1.384 . S
C1810 C1811 1.372 . S
C1811 C1810 1.372 . S
C1811 C1812 1.400 . S
C1811 C1816 1.490 . S
C1812 H1802 0.930 . S
C1812 C1811 1.400 . S
C1812 C1815 1.386 . S
H1813 C1829 0.930 . S
H1814 C1830 0.931 . S
C1815 H1803 0.929 . S
C1815 C1809 1.390 . S
C1815 C1812 1.386 . S
C1816 C1811 1.490 . S
C1816 C1818 1.395 . S
C1816 C1819 1.403 . S
H1817 C1823 0.930 . S
C1818 H1804 0.930 . S
C1818 C1816 1.395 . S
C1818 C1821 1.403 . S
C1819 C1816 1.403 . S
C1819 C1820 1.524 . S
C1819 C1823 1.400 . S
C1820 H1805 0.960 . S
C1820 H1806 0.960 . S
C1820 H1807 0.960 . S
C1820 C1819 1.524 . S
C1821 C1818 1.403 . S
C1821 C1822 1.392 . S
C1821 C1825 1.495 . S
C1822 C1821 1.392 . S
C1822 C1823 1.385 . S
C1822 C1824 1.478 . S
C1823 H1817 0.930 . S
C1823 C1819 1.400 . S
C1823 C1822 1.385 . S
C1824 C1822 1.478 . S
C1824 C1826 1.381 . S
C1824 C1830 1.383 . S
C1825 C1821 1.495 . S
C1825 H1831 0.959 . S
C1825 H1832 0.961 . S
C1825 H1833 0.960 . S
C1826 C1824 1.381 . S
C1826 C1827 1.394 . S
C1826 H1834 0.930 . S
C1827 C1826 1.394 . S
C1827 C1828 1.383 . S
C1827 H1835 0.929 . S
C1828 C1827 1.383 . S
C1828 C1829 1.377 . S
C1829 H1813 0.930 . S
C1829 C1828 1.377 . S
C1829 C1830 1.379 . S
C1830 H1814 0.931 . S
C1830 C1824 1.383 . S
C1830 C1829 1.379 . S
H1831 C1825 0.959 . S
H1832 C1825 0.961 . S
H1833 C1825 0.960 . S
H1834 C1826 0.930 . S
H1835 C1827 0.929 . S
H1836 C1844 0.929 . S
H1837 C1846 0.930 . S
H1838 C1848 0.930 . S
H1839 C1851 0.929 . S
H1840 C1854 0.930 . S
H1841 C1856 0.960 . S
H1842 C1856 0.960 . S
H1843 C1856 0.960 . S
C1844 H1836 0.929 . S
C1844 C1845 1.377 . S
C1844 C1846 1.384 . S
C1845 C1844 1.377 . S
C1845 C1851 1.390 . S
C1846 H1837 0.930 . S
C1846 C1844 1.384 . S
C1846 C1847 1.372 . S
C1847 C1846 1.372 . S
C1847 C1848 1.400 . S
C1847 C1852 1.490 . S
C1848 H1838 0.930 . S
C1848 C1847 1.400 . S
C1848 C1851 1.386 . S
H1849 C1865 0.930 . S
H1850 C1866 0.931 . S
C1851 H1839 0.929 . S
C1851 C1845 1.390 . S
C1851 C1848 1.386 . S
C1852 C1847 1.490 . S
C1852 C1854 1.395 . S
C1852 C1855 1.403 . S
H1853 C1859 0.930 . S
C1854 H1840 0.930 . S
C1854 C1852 1.395 . S
C1854 C1857 1.403 . S
C1855 C1852 1.403 . S
C1855 C1856 1.524 . S
C1855 C1859 1.400 . S
C1856 H1841 0.960 . S
C1856 H1842 0.960 . S
C1856 H1843 0.960 . S
C1856 C1855 1.524 . S
C1857 C1854 1.403 . S
C1857 C1858 1.392 . S
C1857 C1861 1.495 . S
C1858 C1857 1.392 . S
C1858 C1859 1.385 . S
C1858 C1860 1.478 . S
C1859 H1853 0.930 . S
C1859 C1855 1.400 . S
C1859 C1858 1.385 . S
C1860 C1858 1.478 . S
C1860 C1862 1.381 . S
C1860 C1866 1.383 . S
C1861 C1857 1.495 . S
C1861 H1867 0.959 . S
C1861 H1868 0.961 . S
C1861 H1869 0.960 . S
C1862 C1860 1.381 . S
C1862 C1863 1.394 . S
C1862 H1870 0.930 . S
C1863 C1862 1.394 . S
C1863 C1864 1.383 . S
C1863 H1871 0.929 . S
C1864 C1863 1.383 . S
C1864 C1865 1.377 . S
C1865 H1849 0.930 . S
C1865 C1864 1.377 . S
C1865 C1866 1.379 . S
C1866 H1850 0.931 . S
C1866 C1860 1.383 . S
C1866 C1865 1.379 . S
H1867 C1861 0.959 . S
H1868 C1861 0.961 . S
H1869 C1861 0.960 . S
H1870 C1862 0.930 . S
H1871 C1863 0.929 . S
H1872 C1880 0.929 . S
H1873 C1882 0.930 . S
H1874 C1884 0.930 . S
H1875 C1887 0.929 . S
H1876 C1890 0.930 . S
H1877 C1892 0.956 1_565 S
H1878 C1892 0.960 . S
H1879 C1892 0.960 . S
C1880 H1872 0.929 . S
C1880 C1881 1.377 . S
C1880 C1882 1.384 . S
C1881 C1880 1.377 . S
C1881 C1887 1.390 . S
C1882 H1873 0.930 . S
C1882 C1880 1.384 . S
C1882 C1883 1.372 . S
C1883 C1882 1.372 . S
C1883 C1884 1.400 . S
C1883 C1888 1.490 . S
C1884 H1874 0.930 . S
C1884 C1883 1.400 . S
C1884 C1887 1.386 . S
H1885 C1901 0.930 . S
H1886 C1902 0.931 . S
C1887 H1875 0.929 . S
C1887 C1881 1.390 . S
C1887 C1884 1.386 . S
C1888 C1883 1.490 . S
C1888 C1890 1.395 . S
C1888 C1891 1.403 . S
H1889 C1895 0.937 . S
C1890 H1876 0.930 . S
C1890 C1888 1.395 . S
C1890 C1893 1.403 . S
C1891 C1888 1.403 . S
C1891 C1892 1.524 . S
C1891 C1895 1.400 . S
C1892 H1877 0.956 1_545 S
C1892 H1878 0.960 . S
C1892 H1879 0.960 . S
C1892 C1891 1.524 . S
C1893 C1890 1.403 . S
C1893 C1894 1.392 . S
C1893 C1897 1.495 . S
C1894 C1893 1.392 . S
C1894 C1895 1.385 . S
C1894 C1896 1.478 . S
C1895 H1889 0.937 . S
C1895 C1891 1.400 . S
C1895 C1894 1.385 . S
C1896 C1894 1.478 . S
C1896 C1898 1.381 1_545 S
C1896 C1902 1.383 . S
C1897 C1893 1.495 . S
C1897 H1903 0.959 . S
C1897 H1904 0.961 . S
C1897 H1905 0.960 . S
C1898 C1896 1.381 1_565 S
C1898 C1899 1.394 . S
C1898 H1906 0.930 . S
C1899 C1898 1.394 . S
C1899 C1900 1.383 . S
C1899 H1907 0.929 . S
C1900 C1899 1.383 . S
C1900 C1901 1.377 . S
C1901 H1885 0.930 . S
C1901 C1900 1.377 . S
C1901 C1902 1.379 1_565 S
C1902 H1886 0.931 . S
C1902 C1896 1.383 . S
C1902 C1901 1.379 1_545 S
H1903 C1897 0.959 . S
H1904 C1897 0.961 . S
H1905 C1897 0.960 . S
H1906 C1898 0.930 . S
H1907 C1899 0.929 . S
H1908 C1916 0.929 . S
H1909 C1918 0.930 . S
H1910 C1920 0.930 . S
H1911 C1923 0.929 . S
H1912 C1926 0.930 . S
H1913 C1928 0.960 . S
H1914 C1928 0.960 . S
H1915 C1928 0.960 . S
C1916 H1908 0.929 . S
C1916 C1917 1.377 . S
C1916 C1918 1.384 . S
C1917 C1916 1.377 . S
C1917 C1923 1.390 . S
C1918 H1909 0.930 . S
C1918 C1916 1.384 . S
C1918 C1919 1.372 . S
C1919 C1918 1.372 . S
C1919 C1920 1.400 . S
C1919 C1924 1.490 . S
C1920 H1910 0.930 . S
C1920 C1919 1.400 . S
C1920 C1923 1.386 . S
H1921 C1937 0.930 1_655 S
H1922 C1938 0.931 . S
C1923 H1911 0.929 . S
C1923 C1917 1.390 . S
C1923 C1920 1.386 . S
C1924 C1919 1.490 . S
C1924 C1926 1.395 . S
C1924 C1927 1.403 . S
H1925 C1931 0.930 . S
C1926 H1912 0.930 . S
C1926 C1924 1.395 . S
C1926 C1929 1.403 . S
C1927 C1924 1.403 . S
C1927 C1928 1.524 . S
C1927 C1931 1.400 . S
C1928 H1913 0.960 . S
C1928 H1914 0.960 . S
C1928 H1915 0.960 . S
C1928 C1927 1.524 . S
C1929 C1926 1.403 . S
C1929 C1930 1.392 . S
C1929 C1933 1.495 1_655 S
C1930 C1929 1.392 . S
C1930 C1931 1.385 . S
C1930 C1932 1.478 . S
C1931 H1925 0.930 . S
C1931 C1927 1.400 . S
C1931 C1930 1.385 . S
C1932 C1930 1.478 . S
C1932 C1934 1.381 1_655 S
C1932 C1938 1.383 . S
C1933 C1929 1.495 1_455 S
C1933 H1939 0.959 . S
C1933 H1940 0.961 . S
C1933 H1941 0.960 . S
C1934 C1932 1.381 1_455 S
C1934 C1935 1.394 . S
C1934 H1942 0.930 . S
C1935 C1934 1.394 . S
C1935 C1936 1.383 . S
C1935 H1943 0.929 . S
C1936 C1935 1.383 . S
C1936 C1937 1.377 . S
C1937 H1921 0.930 1_455 S
C1937 C1936 1.377 . S
C1937 C1938 1.379 1_455 S
C1938 H1922 0.931 . S
C1938 C1932 1.383 . S
C1938 C1937 1.379 1_655 S
H1939 C1933 0.959 . S
H1940 C1933 0.961 . S
H1941 C1933 0.960 . S
H1942 C1934 0.930 . S
H1943 C1935 0.929 . S
H1944 C1952 0.929 . S
H1945 C1954 0.930 . S
H1946 C1956 0.930 . S
H1947 C1959 0.929 . S
H1948 C1962 0.930 . S
H1949 C1964 0.960 . S
H1950 C1964 0.960 . S
H1951 C1964 0.960 . S
C1952 H1944 0.929 . S
C1952 C1953 1.377 . S
C1952 C1954 1.384 . S
C1953 C1952 1.377 . S
C1953 C1959 1.390 . S
C1954 H1945 0.930 . S
C1954 C1952 1.384 . S
C1954 C1955 1.372 . S
C1955 C1954 1.372 . S
C1955 C1956 1.400 . S
C1955 C1960 1.490 . S
C1956 H1946 0.930 . S
C1956 C1955 1.400 . S
C1956 C1959 1.386 . S
H1957 C1973 0.930 . S
H1958 C1974 0.931 . S
C1959 H1947 0.929 . S
C1959 C1953 1.390 . S
C1959 C1956 1.386 . S
C1960 C1955 1.490 . S
C1960 C1962 1.395 . S
C1960 C1963 1.403 . S
H1961 C1967 0.930 . S
C1962 H1948 0.930 . S
C1962 C1960 1.395 . S
C1962 C1965 1.403 . S
C1963 C1960 1.403 . S
C1963 C1964 1.524 . S
C1963 C1967 1.400 . S
C1964 H1949 0.960 . S
C1964 H1950 0.960 . S
C1964 H1951 0.960 . S
C1964 C1963 1.524 . S
C1965 C1962 1.403 . S
C1965 C1966 1.392 . S
C1965 C1969 1.495 . S
C1966 C1965 1.392 . S
C1966 C1967 1.385 . S
C1966 C1968 1.478 . S
C1967 H1961 0.930 . S
C1967 C1963 1.400 . S
C1967 C1966 1.385 . S
C1968 C1966 1.478 . S
C1968 C1970 1.381 . S
C1968 C1974 1.383 . S
C1969 C1965 1.495 . S
C1969 H1975 0.959 . S
C1969 H1976 0.961 . S
C1969 H1977 0.960 . S
C1970 C1968 1.381 . S
C1970 C1971 1.394 . S
C1970 H1978 0.930 . S
C1971 C1970 1.394 . S
C1971 C1972 1.383 . S
C1971 H1979 0.929 . S
C1972 C1971 1.383 . S
C1972 C1973 1.377 . S
C1973 H1957 0.930 . S
C1973 C1972 1.377 . S
C1973 C1974 1.379 . S
C1974 H1958 0.931 . S
C1974 C1968 1.383 . S
C1974 C1973 1.379 . S
H1975 C1969 0.959 . S
H1976 C1969 0.961 . S
H1977 C1969 0.960 . S
H1978 C1970 0.930 . S
H1979 C1971 0.929 . S
H1980 C1988 0.929 . S
H1981 C1990 0.930 . S
H1982 C1992 0.930 . S
H1983 C1995 0.929 . S
H1984 C1998 0.930 . S
H1985 C2000 0.960 . S
H1986 C2000 0.960 . S
H1987 C2000 0.960 . S
C1988 H1980 0.929 . S
C1988 C1989 1.377 . S
C1988 C1990 1.384 . S
C1989 C1988 1.377 . S
C1989 C1995 1.390 . S
C1990 H1981 0.930 . S
C1990 C1988 1.384 . S
C1990 C1991 1.372 . S
C1991 C1990 1.372 . S
C1991 C1992 1.400 . S
C1991 C1996 1.490 . S
C1992 H1982 0.930 . S
C1992 C1991 1.400 . S
C1992 C1995 1.386 . S
H1993 C2009 0.930 1_565 S
H1994 C2010 0.931 . S
C1995 H1983 0.929 . S
C1995 C1989 1.390 . S
C1995 C1992 1.386 . S
C1996 C1991 1.490 . S
C1996 C1998 1.395 . S
C1996 C1999 1.403 . S
H1997 C2003 0.930 . S
C1998 H1984 0.930 . S
C1998 C1996 1.395 . S
C1998 C2001 1.403 . S
C1999 C1996 1.403 . S
C1999 C2000 1.524 . S
C1999 C2003 1.400 . S
C2000 H1985 0.960 . S
C2000 H1986 0.960 . S
C2000 H1987 0.960 . S
C2000 C1999 1.524 . S
C2001 C1998 1.403 . S
C2001 C2002 1.392 . S
C2001 C2005 1.495 1_565 S
C2002 C2001 1.392 . S
C2002 C2003 1.385 . S
C2002 C2004 1.478 . S
C2003 H1997 0.930 . S
C2003 C1999 1.400 . S
C2003 C2002 1.385 . S
C2004 C2002 1.478 . S
C2004 C2006 1.381 1_565 S
C2004 C2010 1.383 . S
C2005 C2001 1.495 1_545 S
C2005 H2011 0.959 . S
C2005 H2012 0.961 . S
C2005 H2013 0.960 . S
C2006 C2004 1.381 1_545 S
C2006 C2007 1.394 . S
C2006 H2014 0.930 . S
C2007 C2006 1.394 . S
C2007 C2008 1.383 . S
C2007 H2015 0.929 . S
C2008 C2007 1.383 . S
C2008 C2009 1.377 . S
C2009 H1993 0.930 1_545 S
C2009 C2008 1.377 . S
C2009 C2010 1.379 1_545 S
C2010 H1994 0.931 . S
C2010 C2004 1.383 . S
C2010 C2009 1.379 1_565 S
H2011 C2005 0.959 . S
H2012 C2005 0.961 . S
H2013 C2005 0.960 . S
H2014 C2006 0.930 . S
H2015 C2007 0.929 . S
H2016 C2024 0.915 1_455 S
H2017 C2026 0.930 . S
H2018 C2028 0.930 . S
H2019 C2031 0.929 . S
H2020 C2034 0.930 . S
H2021 C2036 0.960 . S
H2022 C2036 0.960 . S
H2023 C2036 0.960 . S
C2024 H2016 0.915 1_655 S
C2024 C2025 1.393 . S
C2024 C2026 1.384 1_655 S
C2025 C2024 1.393 . S
C2025 C2031 1.390 . S
C2026 H2017 0.930 . S
C2026 C2024 1.384 1_455 S
C2026 C2027 1.372 . S
C2027 C2026 1.372 . S
C2027 C2028 1.400 1_455 S
C2027 C2032 1.490 . S
C2028 H2018 0.930 . S
C2028 C2027 1.400 1_655 S
C2028 C2031 1.386 . S
H2029 C2045 0.930 . S
H2030 C2046 0.931 . S
C2031 H2019 0.929 . S
C2031 C2025 1.390 . S
C2031 C2028 1.386 . S
C2032 C2027 1.490 . S
C2032 C2034 1.395 . S
C2032 C2035 1.403 . S
H2033 C2039 0.930 . S
C2034 H2020 0.930 . S
C2034 C2032 1.395 . S
C2034 C2037 1.403 . S
C2035 C2032 1.403 . S
C2035 C2036 1.524 . S
C2035 C2039 1.400 . S
C2036 H2021 0.960 . S
C2036 H2022 0.960 . S
C2036 H2023 0.960 . S
C2036 C2035 1.524 . S
C2037 C2034 1.403 . S
C2037 C2038 1.392 . S
C2037 C2041 1.495 . S
C2038 C2037 1.392 . S
C2038 C2039 1.385 . S
C2038 C2040 1.478 . S
C2039 H2033 0.930 . S
C2039 C2035 1.400 . S
C2039 C2038 1.385 . S
C2040 C2038 1.478 . S
C2040 C2042 1.381 . S
C2040 C2046 1.383 . S
C2041 C2037 1.495 . S
C2041 H2047 0.959 . S
C2041 H2048 0.961 . S
C2041 H2049 0.960 . S
C2042 C2040 1.381 . S
C2042 C2043 1.394 . S
C2042 H2050 0.930 . S
C2043 C2042 1.394 . S
C2043 C2044 1.383 . S
C2043 H2051 0.929 . S
C2044 C2043 1.383 . S
C2044 C2045 1.377 . S
C2045 H2029 0.930 . S
C2045 C2044 1.377 . S
C2045 C2046 1.379 . S
C2046 H2030 0.931 . S
C2046 C2040 1.383 . S
C2046 C2045 1.379 . S
H2047 C2041 0.959 . S
H2048 C2041 0.961 . S
H2049 C2041 0.960 . S
H2050 C2042 0.930 . S
H2051 C2043 0.929 . S
H2052 C2060 0.929 . S
H2053 C2062 0.930 . S
H2054 C2064 0.930 . S
H2055 C2067 0.929 . S
H2056 C2070 0.930 . S
H2057 C2072 0.960 . S
H2058 C2072 0.960 . S
H2059 C2072 0.960 . S
C2060 H2052 0.929 . S
C2060 C2061 1.377 . S
C2060 C2062 1.384 . S
C2061 C2060 1.377 . S
C2061 C2067 1.390 . S
C2062 H2053 0.930 . S
C2062 C2060 1.384 . S
C2062 C2063 1.372 . S
C2063 C2062 1.372 . S
C2063 C2064 1.400 . S
C2063 C2068 1.490 . S
C2064 H2054 0.930 . S
C2064 C2063 1.400 . S
C2064 C2067 1.386 . S
H2065 C2081 0.930 . S
H2066 C2082 0.931 . S
C2067 H2055 0.929 . S
C2067 C2061 1.390 . S
C2067 C2064 1.386 . S
C2068 C2063 1.490 . S
C2068 C2070 1.395 . S
C2068 C2071 1.403 . S
H2069 C2075 0.930 . S
C2070 H2056 0.930 . S
C2070 C2068 1.395 . S
C2070 C2073 1.403 . S
C2071 C2068 1.403 . S
C2071 C2072 1.524 . S
C2071 C2075 1.400 . S
C2072 H2057 0.960 . S
C2072 H2058 0.960 . S
C2072 H2059 0.960 . S
C2072 C2071 1.524 . S
C2073 C2070 1.403 . S
C2073 C2074 1.392 . S
C2073 C2077 1.495 . S
C2074 C2073 1.392 . S
C2074 C2075 1.385 . S
C2074 C2076 1.478 . S
C2075 H2069 0.930 . S
C2075 C2071 1.400 . S
C2075 C2074 1.385 . S
C2076 C2074 1.478 . S
C2076 C2078 1.381 . S
C2076 C2082 1.383 . S
C2077 C2073 1.495 . S
C2077 H2083 0.959 . S
C2077 H2084 0.961 . S
C2077 H2085 0.960 . S
C2078 C2076 1.381 . S
C2078 C2079 1.394 . S
C2078 H2086 0.930 . S
C2079 C2078 1.394 . S
C2079 C2080 1.383 . S
C2079 H2087 0.929 . S
C2080 C2079 1.383 . S
C2080 C2081 1.377 . S
C2081 H2065 0.930 . S
C2081 C2080 1.377 . S
C2081 C2082 1.379 . S
C2082 H2066 0.931 . S
C2082 C2076 1.383 . S
C2082 C2081 1.379 . S
H2083 C2077 0.959 . S
H2084 C2077 0.961 . S
H2085 C2077 0.960 . S
H2086 C2078 0.930 . S
H2087 C2079 0.929 . S
H2088 C2096 0.929 . S
H2089 C2098 0.930 . S
H2090 C2100 0.930 . S
H2091 C2103 0.929 . S
H2092 C2106 0.930 . S
H2093 C2108 0.960 1_545 S
H2094 C2108 0.960 . S
H2095 C2108 0.960 . S
C2096 H2088 0.929 . S
C2096 C2097 1.377 . S
C2096 C2098 1.384 . S
C2097 C2096 1.377 . S
C2097 C2103 1.390 . S
C2098 H2089 0.930 . S
C2098 C2096 1.384 . S
C2098 C2099 1.372 . S
C2099 C2098 1.372 . S
C2099 C2100 1.400 . S
C2099 C2104 1.490 . S
C2100 H2090 0.930 . S
C2100 C2099 1.400 . S
C2100 C2103 1.386 . S
H2101 C2117 0.930 . S
H2102 C2118 0.963 1_565 S
C2103 H2091 0.929 . S
C2103 C2097 1.390 . S
C2103 C2100 1.386 . S
C2104 C2099 1.490 . S
C2104 C2106 1.395 . S
C2104 C2107 1.403 . S
H2105 C2111 0.930 1_545 S
C2106 H2092 0.930 . S
C2106 C2104 1.395 . S
C2106 C2109 1.403 . S
C2107 C2104 1.403 . S
C2107 C2108 1.524 . S
C2107 C2111 1.400 . S
C2108 H2093 0.960 1_565 S
C2108 H2094 0.960 . S
C2108 H2095 0.960 . S
C2108 C2107 1.524 . S
C2109 C2106 1.403 . S
C2109 C2110 1.392 . S
C2109 C2113 1.495 . S
C2110 C2109 1.392 . S
C2110 C2111 1.385 . S
C2110 C2112 1.478 . S
C2111 H2105 0.930 1_565 S
C2111 C2107 1.400 . S
C2111 C2110 1.385 . S
C2112 C2110 1.478 . S
C2112 C2114 1.381 . S
C2112 C2118 1.369 1_565 S
C2113 C2109 1.495 . S
C2113 H2119 0.959 . S
C2113 H2120 0.961 . S
C2113 H2121 0.960 . S
C2114 C2112 1.381 . S
C2114 C2115 1.394 1_565 S
C2114 H2122 0.930 . S
C2115 C2114 1.394 1_545 S
C2115 C2116 1.383 . S
C2115 H2123 0.929 . S
C2116 C2115 1.383 . S
C2116 C2117 1.377 . S
C2117 H2101 0.930 . S
C2117 C2116 1.377 . S
C2117 C2118 1.383 . S
C2118 H2102 0.963 1_545 S
C2118 C2112 1.369 1_545 S
C2118 C2117 1.383 . S
H2119 C2113 0.959 . S
H2120 C2113 0.961 . S
H2121 C2113 0.960 . S
H2122 C2114 0.930 . S
H2123 C2115 0.929 . S
H2124 C2132 0.929 . S
H2125 C2134 0.930 . S
H2126 C2136 0.930 . S
H2127 C2139 0.929 . S
H2128 C2142 0.930 . S
H2129 C2144 0.960 . S
H2130 C2144 0.960 . S
H2131 C2144 0.960 . S
C2132 H2124 0.929 . S
C2132 C2133 1.377 . S
C2132 C2134 1.384 . S
C2133 C2132 1.377 . S
C2133 C2139 1.390 . S
C2134 H2125 0.930 . S
C2134 C2132 1.384 . S
C2134 C2135 1.372 . S
C2135 C2134 1.372 . S
C2135 C2136 1.400 . S
C2135 C2140 1.490 . S
C2136 H2126 0.930 . S
C2136 C2135 1.400 . S
C2136 C2139 1.386 . S
H2137 C2153 0.930 . S
H2138 C2154 0.931 . S
C2139 H2127 0.929 . S
C2139 C2133 1.390 . S
C2139 C2136 1.386 . S
C2140 C2135 1.490 . S
C2140 C2142 1.395 . S
C2140 C2143 1.403 . S
H2141 C2147 0.930 . S
C2142 H2128 0.930 . S
C2142 C2140 1.395 . S
C2142 C2145 1.403 . S
C2143 C2140 1.403 . S
C2143 C2144 1.524 . S
C2143 C2147 1.400 . S
C2144 H2129 0.960 . S
C2144 H2130 0.960 . S
C2144 H2131 0.960 . S
C2144 C2143 1.524 . S
C2145 C2142 1.403 . S
C2145 C2146 1.392 . S
C2145 C2149 1.495 1_455 S
C2146 C2145 1.392 . S
C2146 C2147 1.385 . S
C2146 C2148 1.478 . S
C2147 H2141 0.930 . S
C2147 C2143 1.400 . S
C2147 C2146 1.385 . S
C2148 C2146 1.478 . S
C2148 C2150 1.381 1_455 S
C2148 C2154 1.383 . S
C2149 C2145 1.495 1_655 S
C2149 H2155 0.959 . S
C2149 H2156 0.961 1_655 S
C2149 H2157 0.960 . S
C2150 C2148 1.381 1_655 S
C2150 C2151 1.394 . S
C2150 H2158 0.930 . S
C2151 C2150 1.394 . S
C2151 C2152 1.383 . S
C2151 H2159 0.929 . S
C2152 C2151 1.383 . S
C2152 C2153 1.377 1_655 S
C2153 H2137 0.930 . S
C2153 C2152 1.377 1_455 S
C2153 C2154 1.379 . S
C2154 H2138 0.931 . S
C2154 C2148 1.383 . S
C2154 C2153 1.379 . S
H2155 C2149 0.959 . S
H2156 C2149 0.961 1_455 S
H2157 C2149 0.960 . S
H2158 C2150 0.930 . S
H2159 C2151 0.929 . S
H2160 C2168 0.929 . S
H2161 C2170 0.930 . S
H2162 C2172 0.930 . S
H2163 C2175 0.929 . S
H2164 C2178 0.930 . S
H2165 C2180 0.960 . S
H2166 C2180 0.960 . S
H2167 C2180 0.960 . S
C2168 H2160 0.929 . S
C2168 C2169 1.377 . S
C2168 C2170 1.384 . S
C2169 C2168 1.377 . S
C2169 C2175 1.390 . S
C2170 H2161 0.930 . S
C2170 C2168 1.384 . S
C2170 C2171 1.372 . S
C2171 C2170 1.372 . S
C2171 C2172 1.400 . S
C2171 C2176 1.490 . S
C2172 H2162 0.930 . S
C2172 C2171 1.400 . S
C2172 C2175 1.386 . S
H2173 C2189 0.930 . S
H2174 C2190 0.931 . S
C2175 H2163 0.929 . S
C2175 C2169 1.390 . S
C2175 C2172 1.386 . S
C2176 C2171 1.490 . S
C2176 C2178 1.395 . S
C2176 C2179 1.403 . S
H2177 C2183 0.930 . S
C2178 H2164 0.930 . S
C2178 C2176 1.395 . S
C2178 C2181 1.403 . S
C2179 C2176 1.403 . S
C2179 C2180 1.524 . S
C2179 C2183 1.400 . S
C2180 H2165 0.960 . S
C2180 H2166 0.960 . S
C2180 H2167 0.960 . S
C2180 C2179 1.524 . S
C2181 C2178 1.403 . S
C2181 C2182 1.392 . S
C2181 C2185 1.495 . S
C2182 C2181 1.392 . S
C2182 C2183 1.385 . S
C2182 C2184 1.478 . S
C2183 H2177 0.930 . S
C2183 C2179 1.400 . S
C2183 C2182 1.385 . S
C2184 C2182 1.478 . S
C2184 C2186 1.381 . S
C2184 C2190 1.383 . S
C2185 C2181 1.495 . S
C2185 H2191 0.959 . S
C2185 H2192 0.961 . S
C2185 H2193 0.960 . S
C2186 C2184 1.381 . S
C2186 C2187 1.394 . S
C2186 H2194 0.930 . S
C2187 C2186 1.394 . S
C2187 C2188 1.383 . S
C2187 H2195 0.929 . S
C2188 C2187 1.383 . S
C2188 C2189 1.377 . S
C2189 H2173 0.930 . S
C2189 C2188 1.377 . S
C2189 C2190 1.379 . S
C2190 H2174 0.931 . S
C2190 C2184 1.383 . S
C2190 C2189 1.379 . S
H2191 C2185 0.959 . S
H2192 C2185 0.961 . S
H2193 C2185 0.960 . S
H2194 C2186 0.930 . S
H2195 C2187 0.929 . S
H2196 C2204 0.929 . S
H2197 C2206 0.930 . S
H2198 C2208 0.930 . S
H2199 C2211 0.929 . S
H2200 C2214 0.930 1_565 S
H2201 C2216 0.960 . S
H2202 C2216 0.960 . S
H2203 C2216 0.960 . S
C2204 H2196 0.929 . S
C2204 C2205 1.377 . S
C2204 C2206 1.384 . S
C2205 C2204 1.377 . S
C2205 C2211 1.390 1_565 S
C2206 H2197 0.930 . S
C2206 C2204 1.384 . S
C2206 C2207 1.372 1_565 S
C2207 C2206 1.372 1_545 S
C2207 C2208 1.400 . S
C2207 C2212 1.490 . S
C2208 H2198 0.930 . S
C2208 C2207 1.400 . S
C2208 C2211 1.386 . S
H2209 C2225 0.930 . S
H2210 C2226 0.931 . S
C2211 H2199 0.929 . S
C2211 C2205 1.390 1_545 S
C2211 C2208 1.386 . S
C2212 C2207 1.490 . S
C2212 C2214 1.395 . S
C2212 C2215 1.403 . S
H2213 C2219 0.930 . S
C2214 H2200 0.930 1_545 S
C2214 C2212 1.395 . S
C2214 C2217 1.403 . S
C2215 C2212 1.403 . S
C2215 C2216 1.524 . S
C2215 C2219 1.400 . S
C2216 H2201 0.960 . S
C2216 H2202 0.960 . S
C2216 H2203 0.960 . S
C2216 C2215 1.524 . S
C2217 C2214 1.403 . S
C2217 C2218 1.392 . S
C2217 C2221 1.496 . S
C2218 C2217 1.392 . S
C2218 C2219 1.385 . S
C2218 C2220 1.478 . S
C2219 H2213 0.930 . S
C2219 C2215 1.400 . S
C2219 C2218 1.385 . S
C2220 C2218 1.478 . S
C2220 C2222 1.381 . S
C2220 C2226 1.383 . S
C2221 C2217 1.496 . S
C2221 H2227 0.946 1_545 S
C2221 H2228 0.970 . S
C2221 H2229 0.964 . S
C2222 C2220 1.381 . S
C2222 C2223 1.394 . S
C2222 H2230 0.930 . S
C2223 C2222 1.394 . S
C2223 C2224 1.383 . S
C2223 H2231 0.929 . S
C2224 C2223 1.383 . S
C2224 C2225 1.377 . S
C2225 H2209 0.930 . S
C2225 C2224 1.377 . S
C2225 C2226 1.379 . S
C2226 H2210 0.931 . S
C2226 C2220 1.383 . S
C2226 C2225 1.379 . S
H2227 C2221 0.946 1_565 S
H2228 C2221 0.970 . S
H2229 C2221 0.964 . S
H2230 C2222 0.930 . S
H2231 C2223 0.929 . S
H2232 C2240 0.929 . S
H2233 C2242 0.930 . S
H2234 C2244 0.930 . S
H2235 C2247 0.929 . S
H2236 C2250 0.930 1_455 S
H2237 C2252 0.960 . S
H2238 C2252 0.960 . S
H2239 C2252 0.960 . S
C2240 H2232 0.929 . S
C2240 C2241 1.377 . S
C2240 C2242 1.384 . S
C2241 C2240 1.377 . S
C2241 C2247 1.390 1_455 S
C2242 H2233 0.930 . S
C2242 C2240 1.384 . S
C2242 C2243 1.372 1_455 S
C2243 C2242 1.372 1_655 S
C2243 C2244 1.400 . S
C2243 C2248 1.490 . S
C2244 H2234 0.930 . S
C2244 C2243 1.400 . S
C2244 C2247 1.386 . S
H2245 C2261 0.930 . S
H2246 C2262 0.931 . S
C2247 H2235 0.929 . S
C2247 C2241 1.390 1_655 S
C2247 C2244 1.386 . S
C2248 C2243 1.490 . S
C2248 C2250 1.395 . S
C2248 C2251 1.403 . S
H2249 C2255 0.930 . S
C2250 H2236 0.930 1_655 S
C2250 C2248 1.395 . S
C2250 C2253 1.403 . S
C2251 C2248 1.403 . S
C2251 C2252 1.524 . S
C2251 C2255 1.400 . S
C2252 H2237 0.960 . S
C2252 H2238 0.960 . S
C2252 H2239 0.960 . S
C2252 C2251 1.524 . S
C2253 C2250 1.403 . S
C2253 C2254 1.392 . S
C2253 C2257 1.495 . S
C2254 C2253 1.392 . S
C2254 C2255 1.385 . S
C2254 C2256 1.478 . S
C2255 H2249 0.930 . S
C2255 C2251 1.400 . S
C2255 C2254 1.385 . S
C2256 C2254 1.478 . S
C2256 C2258 1.381 . S
C2256 C2262 1.383 . S
C2257 C2253 1.495 . S
C2257 H2263 0.946 1_655 S
C2257 H2264 0.961 . S
C2257 H2265 0.960 . S
C2258 C2256 1.381 . S
C2258 C2259 1.394 . S
C2258 H2266 0.930 . S
C2259 C2258 1.394 . S
C2259 C2260 1.383 . S
C2259 H2267 0.929 . S
C2260 C2259 1.383 . S
C2260 C2261 1.377 . S
C2261 H2245 0.930 . S
C2261 C2260 1.377 . S
C2261 C2262 1.379 . S
C2262 H2246 0.931 . S
C2262 C2256 1.383 . S
C2262 C2261 1.379 . S
H2263 C2257 0.946 1_455 S
H2264 C2257 0.961 . S
H2265 C2257 0.960 . S
H2266 C2258 0.930 . S
H2267 C2259 0.929 . S
H2268 C2276 0.929 . S
H2269 C2278 0.930 . S
H2270 C2280 0.930 . S
H2271 C2283 0.929 . S
H2272 C2286 0.930 . S
H2273 C2288 0.960 . S
H2274 C2288 0.960 . S
H2275 C2288 0.960 . S
C2276 H2268 0.929 . S
C2276 C2277 1.377 . S
C2276 C2278 1.384 . S
C2277 C2276 1.377 . S
C2277 C2283 1.390 . S
C2278 H2269 0.930 . S
C2278 C2276 1.384 . S
C2278 C2279 1.372 . S
C2279 C2278 1.372 . S
C2279 C2280 1.400 . S
C2279 C2284 1.490 . S
C2280 H2270 0.930 . S
C2280 C2279 1.400 . S
C2280 C2283 1.386 . S
H2281 C2297 0.930 . S
H2282 C2298 0.931 . S
C2283 H2271 0.929 . S
C2283 C2277 1.390 . S
C2283 C2280 1.386 . S
C2284 C2279 1.490 . S
C2284 C2286 1.395 . S
C2284 C2287 1.403 . S
H2285 C2291 0.930 . S
C2286 H2272 0.930 . S
C2286 C2284 1.395 . S
C2286 C2289 1.403 1_655 S
C2287 C2284 1.403 . S
C2287 C2288 1.524 . S
C2287 C2291 1.400 1_655 S
C2288 H2273 0.960 . S
C2288 H2274 0.960 . S
C2288 H2275 0.960 . S
C2288 C2287 1.524 . S
C2289 C2286 1.403 1_455 S
C2289 C2290 1.392 . S
C2289 C2293 1.495 . S
C2290 C2289 1.392 . S
C2290 C2291 1.385 . S
C2290 C2292 1.478 . S
C2291 H2285 0.930 . S
C2291 C2287 1.400 1_455 S
C2291 C2290 1.385 . S
C2292 C2290 1.478 . S
C2292 C2294 1.381 . S
C2292 C2298 1.383 . S
C2293 C2289 1.495 . S
C2293 H2299 0.959 . S
C2293 H2300 0.961 . S
C2293 H2301 0.960 . S
C2294 C2292 1.381 . S
C2294 C2295 1.394 . S
C2294 H2302 0.930 . S
C2295 C2294 1.394 . S
C2295 C2296 1.383 . S
C2295 H2303 0.929 . S
C2296 C2295 1.383 . S
C2296 C2297 1.377 . S
C2297 H2281 0.930 . S
C2297 C2296 1.377 . S
C2297 C2298 1.379 . S
C2298 H2282 0.931 . S
C2298 C2292 1.383 . S
C2298 C2297 1.379 . S
H2299 C2293 0.959 . S
H2300 C2293 0.961 . S
H2301 C2293 0.960 . S
H2302 C2294 0.930 . S
H2303 C2295 0.929 . S
H2304 C2312 0.929 . S
H2305 C2314 0.930 . S
H2306 C2316 0.930 . S
H2307 C2319 0.929 . S
H2308 C2322 0.930 . S
H2309 C2324 0.960 . S
H2310 C2324 0.960 . S
H2311 C2324 0.960 . S
C2312 H2304 0.929 . S
C2312 C2313 1.377 . S
C2312 C2314 1.384 . S
C2313 C2312 1.377 . S
C2313 C2319 1.390 . S
C2314 H2305 0.930 . S
C2314 C2312 1.384 . S
C2314 C2315 1.372 . S
C2315 C2314 1.372 . S
C2315 C2316 1.400 . S
C2315 C2320 1.490 . S
C2316 H2306 0.930 . S
C2316 C2315 1.400 . S
C2316 C2319 1.386 . S
H2317 C2333 0.930 . S
H2318 C2334 0.931 . S
C2319 H2307 0.929 . S
C2319 C2313 1.390 . S
C2319 C2316 1.386 . S
C2320 C2315 1.490 . S
C2320 C2322 1.395 . S
C2320 C2323 1.403 . S
H2321 C2327 0.930 . S
C2322 H2308 0.930 . S
C2322 C2320 1.395 . S
C2322 C2325 1.403 . S
C2323 C2320 1.403 . S
C2323 C2324 1.524 . S
C2323 C2327 1.400 . S
C2324 H2309 0.960 . S
C2324 H2310 0.960 . S
C2324 H2311 0.960 . S
C2324 C2323 1.524 . S
C2325 C2322 1.403 . S
C2325 C2326 1.392 . S
C2325 C2329 1.495 . S
C2326 C2325 1.392 . S
C2326 C2327 1.385 . S
C2326 C2328 1.478 . S
C2327 H2321 0.930 . S
C2327 C2323 1.400 . S
C2327 C2326 1.385 . S
C2328 C2326 1.478 . S
C2328 C2330 1.381 . S
C2328 C2334 1.383 . S
C2329 C2325 1.495 . S
C2329 H2335 0.959 . S
C2329 H2336 0.961 . S
C2329 H2337 0.960 . S
C2330 C2328 1.381 . S
C2330 C2331 1.394 . S
C2330 H2338 0.930 . S
C2331 C2330 1.394 . S
C2331 C2332 1.383 . S
C2331 H2339 0.929 . S
C2332 C2331 1.383 . S
C2332 C2333 1.377 . S
C2333 H2317 0.930 . S
C2333 C2332 1.377 . S
C2333 C2334 1.379 . S
C2334 H2318 0.931 . S
C2334 C2328 1.383 . S
C2334 C2333 1.379 . S
H2335 C2329 0.959 . S
H2336 C2329 0.961 . S
H2337 C2329 0.960 . S
H2338 C2330 0.930 . S
H2339 C2331 0.929 . S
H2340 C2348 0.929 . S
H2341 C2350 0.930 . S
H2342 C2352 0.930 . S
H2343 C2355 0.929 . S
H2344 C2358 0.930 . S
H2345 C2360 0.960 . S
H2346 C2360 0.960 . S
H2347 C2360 0.960 . S
C2348 H2340 0.929 . S
C2348 C2349 1.377 . S
C2348 C2350 1.384 . S
C2349 C2348 1.377 . S
C2349 C2355 1.390 . S
C2350 H2341 0.930 . S
C2350 C2348 1.384 . S
C2350 C2351 1.372 . S
C2351 C2350 1.372 . S
C2351 C2352 1.400 . S
C2351 C2356 1.490 . S
C2352 H2342 0.930 . S
C2352 C2351 1.400 . S
C2352 C2355 1.386 . S
H2353 C2369 0.930 . S
H2354 C2370 0.931 . S
C2355 H2343 0.929 . S
C2355 C2349 1.390 . S
C2355 C2352 1.386 . S
C2356 C2351 1.490 . S
C2356 C2358 1.395 . S
C2356 C2359 1.403 . S
H2357 C2363 0.930 . S
C2358 H2344 0.930 . S
C2358 C2356 1.395 . S
C2358 C2361 1.403 1_545 S
C2359 C2356 1.403 . S
C2359 C2360 1.524 . S
C2359 C2363 1.400 1_545 S
C2360 H2345 0.960 . S
C2360 H2346 0.960 . S
C2360 H2347 0.960 . S
C2360 C2359 1.524 . S
C2361 C2358 1.403 1_565 S
C2361 C2362 1.392 . S
C2361 C2365 1.495 . S
C2362 C2361 1.392 . S
C2362 C2363 1.385 . S
C2362 C2364 1.478 . S
C2363 H2357 0.930 . S
C2363 C2359 1.400 1_565 S
C2363 C2362 1.385 . S
C2364 C2362 1.478 . S
C2364 C2366 1.381 . S
C2364 C2370 1.383 . S
C2365 C2361 1.495 . S
C2365 H2371 0.959 . S
C2365 H2372 0.961 . S
C2365 H2373 0.960 . S
C2366 C2364 1.381 . S
C2366 C2367 1.394 . S
C2366 H2374 0.930 . S
C2367 C2366 1.394 . S
C2367 C2368 1.383 . S
C2367 H2375 0.929 . S
C2368 C2367 1.383 . S
C2368 C2369 1.377 . S
C2369 H2353 0.930 . S
C2369 C2368 1.377 . S
C2369 C2370 1.379 . S
C2370 H2354 0.931 . S
C2370 C2364 1.383 . S
C2370 C2369 1.379 . S
H2371 C2365 0.959 . S
H2372 C2365 0.961 . S
H2373 C2365 0.960 . S
H2374 C2366 0.930 . S
H2375 C2367 0.929 . S
H2376 C2384 0.929 . S
H2377 C2386 0.930 . S
H2378 C2388 0.930 . S
H2379 C2391 0.929 . S
H2380 C2394 0.930 . S
H2381 C2396 0.960 . S
H2382 C2396 0.960 . S
H2383 C2396 0.960 . S
C2384 H2376 0.929 . S
C2384 C2385 1.377 . S
C2384 C2386 1.384 . S
C2385 C2384 1.377 . S
C2385 C2391 1.390 . S
C2386 H2377 0.930 . S
C2386 C2384 1.384 . S
C2386 C2387 1.372 . S
C2387 C2386 1.372 . S
C2387 C2388 1.400 . S
C2387 C2392 1.490 . S
C2388 H2378 0.930 . S
C2388 C2387 1.400 . S
C2388 C2391 1.386 . S
H2389 C2405 0.930 . S
H2390 C2406 0.931 . S
C2391 H2379 0.929 . S
C2391 C2385 1.390 . S
C2391 C2388 1.386 . S
C2392 C2387 1.490 . S
C2392 C2394 1.395 . S
C2392 C2395 1.403 . S
H2393 C2399 0.930 . S
C2394 H2380 0.930 . S
C2394 C2392 1.395 . S
C2394 C2397 1.403 1_545 S
C2395 C2392 1.403 . S
C2395 C2396 1.524 . S
C2395 C2399 1.400 1_545 S
C2396 H2381 0.960 . S
C2396 H2382 0.960 . S
C2396 H2383 0.960 . S
C2396 C2395 1.524 . S
C2397 C2394 1.403 1_565 S
C2397 C2398 1.392 . S
C2397 C2401 1.495 . S
C2398 C2397 1.392 . S
C2398 C2399 1.385 . S
C2398 C2400 1.478 . S
C2399 H2393 0.930 . S
C2399 C2395 1.400 1_565 S
C2399 C2398 1.385 . S
C2400 C2398 1.478 . S
C2400 C2402 1.381 . S
C2400 C2406 1.383 . S
C2401 C2397 1.495 . S
C2401 H2407 0.959 . S
C2401 H2408 0.961 . S
C2401 H2409 0.960 . S
C2402 C2400 1.381 . S
C2402 C2403 1.394 . S
C2402 H2410 0.930 . S
C2403 C2402 1.394 . S
C2403 C2404 1.383 . S
C2403 H2411 0.929 . S
C2404 C2403 1.383 . S
C2404 C2405 1.377 . S
C2405 H2389 0.930 . S
C2405 C2404 1.377 . S
C2405 C2406 1.379 . S
C2406 H2390 0.931 . S
C2406 C2400 1.383 . S
C2406 C2405 1.379 . S
H2407 C2401 0.959 . S
H2408 C2401 0.961 . S
H2409 C2401 0.960 . S
H2410 C2402 0.930 . S
H2411 C2403 0.929 . S
H2412 C2420 0.929 . S
H2413 C2422 0.930 . S
H2414 C2424 0.930 . S
H2415 C2427 0.929 . S
H2416 C2430 0.930 . S
H2417 C2432 0.960 . S
H2418 C2432 0.960 . S
H2419 C2432 0.960 . S
C2420 H2412 0.929 . S
C2420 C2421 1.377 . S
C2420 C2422 1.384 . S
C2421 C2420 1.377 . S
C2421 C2427 1.390 . S
C2422 H2413 0.930 . S
C2422 C2420 1.384 . S
C2422 C2423 1.372 . S
C2423 C2422 1.372 . S
C2423 C2424 1.400 . S
C2423 C2428 1.490 . S
C2424 H2414 0.930 . S
C2424 C2423 1.400 . S
C2424 C2427 1.386 . S
H2425 C2441 0.930 . S
H2426 C2442 0.931 . S
C2427 H2415 0.929 . S
C2427 C2421 1.390 . S
C2427 C2424 1.386 . S
C2428 C2423 1.490 . S
C2428 C2430 1.395 . S
C2428 C2431 1.403 . S
H2429 C2435 0.930 . S
C2430 H2416 0.930 . S
C2430 C2428 1.395 . S
C2430 C2433 1.403 1_455 S
C2431 C2428 1.403 . S
C2431 C2432 1.524 . S
C2431 C2435 1.400 1_455 S
C2432 H2417 0.960 . S
C2432 H2418 0.960 . S
C2432 H2419 0.960 . S
C2432 C2431 1.524 . S
C2433 C2430 1.403 1_655 S
C2433 C2434 1.392 . S
C2433 C2437 1.495 . S
C2434 C2433 1.392 . S
C2434 C2435 1.385 . S
C2434 C2436 1.478 . S
C2435 H2429 0.930 . S
C2435 C2431 1.400 1_655 S
C2435 C2434 1.385 . S
C2436 C2434 1.478 . S
C2436 C2438 1.381 . S
C2436 C2442 1.383 . S
C2437 C2433 1.495 . S
C2437 H2443 0.959 . S
C2437 H2444 0.961 . S
C2437 H2445 0.960 . S
C2438 C2436 1.381 . S
C2438 C2439 1.394 . S
C2438 H2446 0.930 . S
C2439 C2438 1.394 . S
C2439 C2440 1.383 . S
C2439 H2447 0.929 . S
C2440 C2439 1.383 . S
C2440 C2441 1.377 . S
C2441 H2425 0.930 . S
C2441 C2440 1.377 . S
C2441 C2442 1.379 . S
C2442 H2426 0.931 . S
C2442 C2436 1.383 . S
C2442 C2441 1.379 . S
H2443 C2437 0.959 . S
H2444 C2437 0.961 . S
H2445 C2437 0.960 . S
H2446 C2438 0.930 . S
H2447 C2439 0.929 . S
H2448 C2456 0.929 . S
H2449 C2458 0.930 . S
H2450 C2460 0.930 . S
H2451 C2463 0.929 . S
H2452 C2466 0.930 . S
H2453 C2468 0.960 . S
H2454 C2468 0.960 . S
H2455 C2468 0.960 . S
C2456 H2448 0.929 . S
C2456 C2457 1.377 . S
C2456 C2458 1.384 . S
C2457 C2456 1.377 . S
C2457 C2463 1.390 . S
C2458 H2449 0.930 . S
C2458 C2456 1.384 . S
C2458 C2459 1.372 . S
C2459 C2458 1.372 . S
C2459 C2460 1.400 . S
C2459 C2464 1.490 . S
C2460 H2450 0.930 . S
C2460 C2459 1.400 . S
C2460 C2463 1.386 . S
H2461 C2477 0.930 . S
H2462 C2478 0.931 . S
C2463 H2451 0.929 . S
C2463 C2457 1.390 . S
C2463 C2460 1.386 . S
C2464 C2459 1.490 . S
C2464 C2466 1.395 . S
C2464 C2467 1.403 . S
H2465 C2471 0.930 . S
C2466 H2452 0.930 . S
C2466 C2464 1.395 . S
C2466 C2469 1.403 . S
C2467 C2464 1.403 . S
C2467 C2468 1.524 . S
C2467 C2471 1.400 . S
C2468 H2453 0.960 . S
C2468 H2454 0.960 . S
C2468 H2455 0.960 . S
C2468 C2467 1.524 . S
C2469 C2466 1.403 . S
C2469 C2470 1.392 . S
C2469 C2473 1.495 . S
C2470 C2469 1.392 . S
C2470 C2471 1.385 . S
C2470 C2472 1.478 . S
C2471 H2465 0.930 . S
C2471 C2467 1.400 . S
C2471 C2470 1.385 . S
C2472 C2470 1.478 . S
C2472 C2474 1.381 . S
C2472 C2478 1.383 . S
C2473 C2469 1.495 . S
C2473 H2479 0.959 . S
C2473 H2480 0.961 . S
C2473 H2481 0.960 . S
C2474 C2472 1.381 . S
C2474 C2475 1.394 . S
C2474 H2482 0.930 . S
C2475 C2474 1.394 . S
C2475 C2476 1.383 . S
C2475 H2483 0.929 . S
C2476 C2475 1.383 . S
C2476 C2477 1.377 . S
C2477 H2461 0.930 . S
C2477 C2476 1.377 . S
C2477 C2478 1.379 . S
C2478 H2462 0.931 . S
C2478 C2472 1.383 . S
C2478 C2477 1.379 . S
H2479 C2473 0.959 . S
H2480 C2473 0.961 . S
H2481 C2473 0.960 . S
H2482 C2474 0.930 . S
H2483 C2475 0.929 . S
H2484 C2492 0.929 . S
H2485 C2494 0.930 . S
H2486 C2496 0.930 . S
H2487 C2499 0.929 . S
H2488 C2502 0.930 . S
H2489 C2504 0.960 . S
H2490 C2504 0.960 . S
H2491 C2504 0.960 . S
C2492 H2484 0.929 . S
C2492 C2493 1.377 . S
C2492 C2494 1.384 . S
C2493 C2492 1.377 . S
C2493 C2499 1.390 . S
C2494 H2485 0.930 . S
C2494 C2492 1.384 . S
C2494 C2495 1.372 . S
C2495 C2494 1.372 . S
C2495 C2496 1.400 . S
C2495 C2500 1.490 . S
C2496 H2486 0.930 . S
C2496 C2495 1.400 . S
C2496 C2499 1.386 . S
H2497 C2513 0.930 . S
H2498 C2514 0.931 . S
C2499 H2487 0.929 . S
C2499 C2493 1.390 . S
C2499 C2496 1.386 . S
C2500 C2495 1.490 . S
C2500 C2502 1.395 . S
C2500 C2503 1.403 . S
H2501 C2507 0.930 . S
C2502 H2488 0.930 . S
C2502 C2500 1.395 . S
C2502 C2505 1.403 . S
C2503 C2500 1.403 . S
C2503 C2504 1.524 . S
C2503 C2507 1.400 . S
C2504 H2489 0.960 . S
C2504 H2490 0.960 . S
C2504 H2491 0.960 . S
C2504 C2503 1.524 . S
C2505 C2502 1.403 . S
C2505 C2506 1.392 . S
C2505 C2509 1.495 . S
C2506 C2505 1.392 . S
C2506 C2507 1.385 . S
C2506 C2508 1.478 . S
C2507 H2501 0.930 . S
C2507 C2503 1.400 . S
C2507 C2506 1.385 . S
C2508 C2506 1.478 . S
C2508 C2510 1.381 . S
C2508 C2514 1.383 . S
C2509 C2505 1.495 . S
C2509 H2515 0.959 . S
C2509 H2516 0.961 . S
C2509 H2517 0.960 . S
C2510 C2508 1.381 . S
C2510 C2511 1.394 . S
C2510 H2518 0.930 . S
C2511 C2510 1.394 . S
C2511 C2512 1.383 . S
C2511 H2519 0.929 . S
C2512 C2511 1.383 . S
C2512 C2513 1.377 . S
C2513 H2497 0.930 . S
C2513 C2512 1.377 . S
C2513 C2514 1.379 . S
C2514 H2498 0.931 . S
C2514 C2508 1.383 . S
C2514 C2513 1.379 . S
H2515 C2509 0.959 . S
H2516 C2509 0.961 . S
H2517 C2509 0.960 . S
H2518 C2510 0.930 . S
H2519 C2511 0.929 . S
H2520 C2528 0.929 . S
H2521 C2530 0.930 . S
H2522 C2532 0.930 . S
H2523 C2535 0.929 . S
H2524 C2538 0.930 . S
H2525 C2540 0.960 . S
H2526 C2540 0.960 . S
H2527 C2540 0.960 . S
C2528 H2520 0.929 . S
C2528 C2529 1.377 . S
C2528 C2530 1.384 . S
C2529 C2528 1.377 . S
C2529 C2535 1.390 . S
C2530 H2521 0.930 . S
C2530 C2528 1.384 . S
C2530 C2531 1.372 . S
C2531 C2530 1.372 . S
C2531 C2532 1.400 . S
C2531 C2536 1.490 . S
C2532 H2522 0.930 . S
C2532 C2531 1.400 . S
C2532 C2535 1.386 . S
H2533 C2549 0.930 . S
H2534 C2550 0.931 . S
C2535 H2523 0.929 . S
C2535 C2529 1.390 . S
C2535 C2532 1.386 . S
C2536 C2531 1.490 . S
C2536 C2538 1.395 . S
C2536 C2539 1.403 . S
H2537 C2543 0.930 . S
C2538 H2524 0.930 . S
C2538 C2536 1.395 . S
C2538 C2541 1.403 . S
C2539 C2536 1.403 . S
C2539 C2540 1.524 . S
C2539 C2543 1.400 . S
C2540 H2525 0.960 . S
C2540 H2526 0.960 . S
C2540 H2527 0.960 . S
C2540 C2539 1.524 . S
C2541 C2538 1.403 . S
C2541 C2542 1.392 . S
C2541 C2545 1.495 . S
C2542 C2541 1.392 . S
C2542 C2543 1.385 . S
C2542 C2544 1.478 . S
C2543 H2537 0.930 . S
C2543 C2539 1.400 . S
C2543 C2542 1.385 . S
C2544 C2542 1.478 . S
C2544 C2546 1.381 . S
C2544 C2550 1.383 . S
C2545 C2541 1.495 . S
C2545 H2551 0.959 . S
C2545 H2552 0.961 . S
C2545 H2553 0.960 . S
C2546 C2544 1.381 . S
C2546 C2547 1.394 . S
C2546 H2554 0.930 . S
C2547 C2546 1.394 . S
C2547 C2548 1.383 . S
C2547 H2555 0.929 . S
C2548 C2547 1.383 . S
C2548 C2549 1.377 . S
C2549 H2533 0.930 . S
C2549 C2548 1.377 . S
C2549 C2550 1.379 . S
C2550 H2534 0.931 . S
C2550 C2544 1.383 . S
C2550 C2549 1.379 . S
H2551 C2545 0.959 . S
H2552 C2545 0.961 . S
H2553 C2545 0.960 . S
H2554 C2546 0.930 . S
H2555 C2547 0.929 . S
H2556 C2564 0.929 . S
H2557 C2566 0.930 . S
H2558 C2568 0.930 . S
H2559 C2571 0.929 . S
H2560 C2574 0.930 . S
H2561 C2576 0.960 . S
H2562 C2576 0.960 . S
H2563 C2576 0.960 . S
C2564 H2556 0.929 . S
C2564 C2565 1.377 . S
C2564 C2566 1.384 . S
C2565 C2564 1.377 . S
C2565 C2571 1.390 . S
C2566 H2557 0.930 . S
C2566 C2564 1.384 . S
C2566 C2567 1.372 . S
C2567 C2566 1.372 . S
C2567 C2568 1.400 . S
C2567 C2572 1.490 . S
C2568 H2558 0.930 . S
C2568 C2567 1.400 . S
C2568 C2571 1.386 . S
H2569 C2585 0.930 . S
H2570 C2586 0.931 . S
C2571 H2559 0.929 . S
C2571 C2565 1.390 . S
C2571 C2568 1.386 . S
C2572 C2567 1.490 . S
C2572 C2574 1.395 . S
C2572 C2575 1.403 . S
H2573 C2579 0.930 . S
C2574 H2560 0.930 . S
C2574 C2572 1.395 . S
C2574 C2577 1.403 . S
C2575 C2572 1.403 . S
C2575 C2576 1.524 . S
C2575 C2579 1.400 . S
C2576 H2561 0.960 . S
C2576 H2562 0.960 . S
C2576 H2563 0.960 . S
C2576 C2575 1.524 . S
C2577 C2574 1.403 . S
C2577 C2578 1.392 . S
C2577 C2581 1.495 . S
C2578 C2577 1.392 . S
C2578 C2579 1.385 . S
C2578 C2580 1.478 . S
C2579 H2573 0.930 . S
C2579 C2575 1.400 . S
C2579 C2578 1.385 . S
C2580 C2578 1.478 . S
C2580 C2582 1.381 . S
C2580 C2586 1.383 . S
C2581 C2577 1.495 . S
C2581 H2587 0.959 . S
C2581 H2588 0.961 . S
C2581 H2589 0.960 . S
C2582 C2580 1.381 . S
C2582 C2583 1.394 . S
C2582 H2590 0.930 . S
C2583 C2582 1.394 . S
C2583 C2584 1.383 . S
C2583 H2591 0.929 . S
C2584 C2583 1.383 . S
C2584 C2585 1.377 . S
C2585 H2569 0.930 . S
C2585 C2584 1.377 . S
C2585 C2586 1.379 . S
C2586 H2570 0.931 . S
C2586 C2580 1.383 . S
C2586 C2585 1.379 . S
H2587 C2581 0.959 . S
H2588 C2581 0.961 . S
H2589 C2581 0.960 . S
H2590 C2582 0.930 . S
H2591 C2583 0.929 . S
H2592 C2600 0.929 . S
H2593 C2602 0.930 . S
H2594 C2604 0.930 . S
H2595 C2607 0.929 . S
H2596 C2610 0.930 . S
H2597 C2612 0.960 . S
H2598 C2612 0.960 . S
H2599 C2612 0.960 . S
C2600 H2592 0.929 . S
C2600 C2601 1.377 . S
C2600 C2602 1.384 . S
C2601 C2600 1.377 . S
C2601 C2607 1.390 . S
C2602 H2593 0.930 . S
C2602 C2600 1.384 . S
C2602 C2603 1.372 . S
C2603 C2602 1.372 . S
C2603 C2604 1.400 . S
C2603 C2608 1.490 . S
C2604 H2594 0.930 . S
C2604 C2603 1.400 . S
C2604 C2607 1.386 . S
H2605 C2621 0.930 . S
H2606 C2622 0.931 . S
C2607 H2595 0.929 . S
C2607 C2601 1.390 . S
C2607 C2604 1.386 . S
C2608 C2603 1.490 . S
C2608 C2610 1.395 . S
C2608 C2611 1.403 . S
H2609 C2615 0.930 . S
C2610 H2596 0.930 . S
C2610 C2608 1.395 . S
C2610 C2613 1.403 . S
C2611 C2608 1.403 . S
C2611 C2612 1.524 . S
C2611 C2615 1.400 . S
C2612 H2597 0.960 . S
C2612 H2598 0.960 . S
C2612 H2599 0.960 . S
C2612 C2611 1.524 . S
C2613 C2610 1.403 . S
C2613 C2614 1.392 . S
C2613 C2617 1.495 . S
C2614 C2613 1.392 . S
C2614 C2615 1.385 . S
C2614 C2616 1.478 . S
C2615 H2609 0.930 . S
C2615 C2611 1.400 . S
C2615 C2614 1.385 . S
C2616 C2614 1.478 . S
C2616 C2618 1.381 . S
C2616 C2622 1.383 . S
C2617 C2613 1.495 . S
C2617 H2623 0.959 . S
C2617 H2624 0.961 . S
C2617 H2625 0.960 . S
C2618 C2616 1.381 . S
C2618 C2619 1.394 . S
C2618 H2626 0.930 . S
C2619 C2618 1.394 . S
C2619 C2620 1.383 . S
C2619 H2627 0.929 . S
C2620 C2619 1.383 . S
C2620 C2621 1.377 . S
C2621 H2605 0.930 . S
C2621 C2620 1.377 . S
C2621 C2622 1.379 . S
C2622 H2606 0.931 . S
C2622 C2616 1.383 . S
C2622 C2621 1.379 . S
H2623 C2617 0.959 . S
H2624 C2617 0.961 . S
H2625 C2617 0.960 . S
H2626 C2618 0.930 . S
H2627 C2619 0.929 . S
H2628 C2636 0.929 . S
H2629 C2638 0.930 . S
H2630 C2640 0.930 . S
H2631 C2643 0.929 . S
H2632 C2646 0.930 . S
H2633 C2648 0.960 . S
H2634 C2648 0.960 . S
H2635 C2648 0.960 . S
C2636 H2628 0.929 . S
C2636 C2637 1.377 . S
C2636 C2638 1.384 . S
C2637 C2636 1.377 . S
C2637 C2643 1.390 . S
C2638 H2629 0.930 . S
C2638 C2636 1.384 . S
C2638 C2639 1.372 . S
C2639 C2638 1.372 . S
C2639 C2640 1.400 . S
C2639 C2644 1.490 . S
C2640 H2630 0.930 . S
C2640 C2639 1.400 . S
C2640 C2643 1.386 . S
H2641 C2657 0.930 . S
H2642 C2658 0.931 . S
C2643 H2631 0.929 . S
C2643 C2637 1.390 . S
C2643 C2640 1.386 . S
C2644 C2639 1.490 . S
C2644 C2646 1.395 . S
C2644 C2647 1.403 . S
H2645 C2651 0.930 . S
C2646 H2632 0.930 . S
C2646 C2644 1.395 . S
C2646 C2649 1.403 . S
C2647 C2644 1.403 . S
C2647 C2648 1.524 . S
C2647 C2651 1.400 . S
C2648 H2633 0.960 . S
C2648 H2634 0.960 . S
C2648 H2635 0.960 . S
C2648 C2647 1.524 . S
C2649 C2646 1.403 . S
C2649 C2650 1.392 . S
C2649 C2653 1.495 . S
C2650 C2649 1.392 . S
C2650 C2651 1.385 . S
C2650 C2652 1.478 . S
C2651 H2645 0.930 . S
C2651 C2647 1.400 . S
C2651 C2650 1.385 . S
C2652 C2650 1.478 . S
C2652 C2654 1.381 . S
C2652 C2658 1.383 . S
C2653 C2649 1.495 . S
C2653 H2659 0.959 . S
C2653 H2660 0.961 . S
C2653 H2661 0.960 . S
C2654 C2652 1.381 . S
C2654 C2655 1.394 . S
C2654 H2662 0.930 . S
C2655 C2654 1.394 . S
C2655 C2656 1.383 . S
C2655 H2663 0.929 . S
C2656 C2655 1.383 . S
C2656 C2657 1.377 . S
C2657 H2641 0.930 . S
C2657 C2656 1.377 . S
C2657 C2658 1.379 . S
C2658 H2642 0.931 . S
C2658 C2652 1.383 . S
C2658 C2657 1.379 . S
H2659 C2653 0.959 . S
H2660 C2653 0.961 . S
H2661 C2653 0.960 . S
H2662 C2654 0.930 . S
H2663 C2655 0.929 . S
H2664 C2672 0.929 . S
H2665 C2674 0.930 . S
H2666 C2676 0.930 . S
H2667 C2679 0.929 . S
H2668 C2682 0.930 . S
H2669 C2684 0.960 . S
H2670 C2684 0.960 . S
H2671 C2684 0.960 . S
C2672 H2664 0.929 . S
C2672 C2673 1.377 . S
C2672 C2674 1.384 . S
C2673 C2672 1.377 . S
C2673 C2679 1.390 . S
C2674 H2665 0.930 . S
C2674 C2672 1.384 . S
C2674 C2675 1.372 . S
C2675 C2674 1.372 . S
C2675 C2676 1.400 . S
C2675 C2680 1.490 . S
C2676 H2666 0.930 . S
C2676 C2675 1.400 . S
C2676 C2679 1.386 . S
H2677 C2693 0.930 . S
H2678 C2694 0.931 . S
C2679 H2667 0.929 . S
C2679 C2673 1.390 . S
C2679 C2676 1.386 . S
C2680 C2675 1.490 . S
C2680 C2682 1.395 . S
C2680 C2683 1.403 . S
H2681 C2687 0.930 . S
C2682 H2668 0.930 . S
C2682 C2680 1.395 . S
C2682 C2685 1.403 . S
C2683 C2680 1.403 . S
C2683 C2684 1.524 . S
C2683 C2687 1.400 . S
C2684 H2669 0.960 . S
C2684 H2670 0.960 . S
C2684 H2671 0.960 . S
C2684 C2683 1.524 . S
C2685 C2682 1.403 . S
C2685 C2686 1.392 . S
C2685 C2689 1.495 . S
C2686 C2685 1.392 . S
C2686 C2687 1.385 . S
C2686 C2688 1.478 . S
C2687 H2681 0.930 . S
C2687 C2683 1.400 . S
C2687 C2686 1.385 . S
C2688 C2686 1.478 . S
C2688 C2690 1.381 . S
C2688 C2694 1.383 . S
C2689 C2685 1.495 . S
C2689 H2695 0.959 . S
C2689 H2696 0.961 . S
C2689 H2697 0.960 . S
C2690 C2688 1.381 . S
C2690 C2691 1.394 . S
C2690 H2698 0.930 . S
C2691 C2690 1.394 . S
C2691 C2692 1.383 . S
C2691 H2699 0.929 . S
C2692 C2691 1.383 . S
C2692 C2693 1.377 . S
C2693 H2677 0.930 . S
C2693 C2692 1.377 . S
C2693 C2694 1.379 . S
C2694 H2678 0.931 . S
C2694 C2688 1.383 . S
C2694 C2693 1.379 . S
H2695 C2689 0.959 . S
H2696 C2689 0.961 . S
H2697 C2689 0.960 . S
H2698 C2690 0.930 . S
H2699 C2691 0.929 . S
H2700 C2708 0.929 . S
H2701 C2710 0.930 . S
H2702 C2712 0.930 . S
H2703 C2715 0.929 . S
H2704 C2718 0.930 . S
H2705 C2720 0.960 . S
H2706 C2720 0.960 . S
H2707 C2720 0.960 . S
C2708 H2700 0.929 . S
C2708 C2709 1.377 . S
C2708 C2710 1.384 . S
C2709 C2708 1.377 . S
C2709 C2715 1.390 . S
C2710 H2701 0.930 . S
C2710 C2708 1.384 . S
C2710 C2711 1.372 . S
C2711 C2710 1.372 . S
C2711 C2712 1.400 . S
C2711 C2716 1.490 . S
C2712 H2702 0.930 . S
C2712 C2711 1.400 . S
C2712 C2715 1.386 . S
H2713 C2729 0.930 . S
H2714 C2730 0.931 . S
C2715 H2703 0.929 . S
C2715 C2709 1.390 . S
C2715 C2712 1.386 . S
C2716 C2711 1.490 . S
C2716 C2718 1.395 . S
C2716 C2719 1.403 . S
H2717 C2723 0.930 . S
C2718 H2704 0.930 . S
C2718 C2716 1.395 . S
C2718 C2721 1.403 . S
C2719 C2716 1.403 . S
C2719 C2720 1.524 . S
C2719 C2723 1.400 . S
C2720 H2705 0.960 . S
C2720 H2706 0.960 . S
C2720 H2707 0.960 . S
C2720 C2719 1.524 . S
C2721 C2718 1.403 . S
C2721 C2722 1.392 . S
C2721 C2725 1.495 . S
C2722 C2721 1.392 . S
C2722 C2723 1.385 . S
C2722 C2724 1.478 . S
C2723 H2717 0.930 . S
C2723 C2719 1.400 . S
C2723 C2722 1.385 . S
C2724 C2722 1.478 . S
C2724 C2726 1.381 . S
C2724 C2730 1.383 . S
C2725 C2721 1.495 . S
C2725 H2731 0.959 . S
C2725 H2732 0.961 . S
C2725 H2733 0.960 . S
C2726 C2724 1.381 . S
C2726 C2727 1.394 . S
C2726 H2734 0.930 . S
C2727 C2726 1.394 . S
C2727 C2728 1.383 . S
C2727 H2735 0.929 . S
C2728 C2727 1.383 . S
C2728 C2729 1.377 . S
C2729 H2713 0.930 . S
C2729 C2728 1.377 . S
C2729 C2730 1.379 . S
C2730 H2714 0.931 . S
C2730 C2724 1.383 . S
C2730 C2729 1.379 . S
H2731 C2725 0.959 . S
H2732 C2725 0.961 . S
H2733 C2725 0.960 . S
H2734 C2726 0.930 . S
H2735 C2727 0.929 . S
H2736 C2744 0.929 . S
H2737 C2746 0.930 . S
H2738 C2748 0.930 . S
H2739 C2751 0.929 . S
H2740 C2754 0.930 . S
H2741 C2756 0.960 . S
H2742 C2756 0.960 . S
H2743 C2756 0.960 . S
C2744 H2736 0.929 . S
C2744 C2745 1.377 . S
C2744 C2746 1.384 . S
C2745 C2744 1.377 . S
C2745 C2751 1.390 . S
C2746 H2737 0.930 . S
C2746 C2744 1.384 . S
C2746 C2747 1.372 . S
C2747 C2746 1.372 . S
C2747 C2748 1.400 . S
C2747 C2752 1.490 . S
C2748 H2738 0.930 . S
C2748 C2747 1.400 . S
C2748 C2751 1.386 . S
H2749 C2765 0.930 . S
H2750 C2766 0.931 . S
C2751 H2739 0.929 . S
C2751 C2745 1.390 . S
C2751 C2748 1.386 . S
C2752 C2747 1.490 . S
C2752 C2754 1.395 . S
C2752 C2755 1.403 . S
H2753 C2759 0.930 . S
C2754 H2740 0.930 . S
C2754 C2752 1.395 . S
C2754 C2757 1.403 . S
C2755 C2752 1.403 . S
C2755 C2756 1.524 . S
C2755 C2759 1.400 . S
C2756 H2741 0.960 . S
C2756 H2742 0.960 . S
C2756 H2743 0.960 . S
C2756 C2755 1.524 . S
C2757 C2754 1.403 . S
C2757 C2758 1.392 . S
C2757 C2761 1.495 . S
C2758 C2757 1.392 . S
C2758 C2759 1.385 . S
C2758 C2760 1.478 . S
C2759 H2753 0.930 . S
C2759 C2755 1.400 . S
C2759 C2758 1.385 . S
C2760 C2758 1.478 . S
C2760 C2762 1.381 . S
C2760 C2766 1.383 . S
C2761 C2757 1.495 . S
C2761 H2767 0.959 . S
C2761 H2768 0.961 . S
C2761 H2769 0.960 . S
C2762 C2760 1.381 . S
C2762 C2763 1.394 . S
C2762 H2770 0.930 . S
C2763 C2762 1.394 . S
C2763 C2764 1.383 . S
C2763 H2771 0.929 . S
C2764 C2763 1.383 . S
C2764 C2765 1.377 . S
C2765 H2749 0.930 . S
C2765 C2764 1.377 . S
C2765 C2766 1.379 . S
C2766 H2750 0.931 . S
C2766 C2760 1.383 . S
C2766 C2765 1.379 . S
H2767 C2761 0.959 . S
H2768 C2761 0.961 . S
H2769 C2761 0.960 . S
H2770 C2762 0.930 . S
H2771 C2763 0.929 . S
H2772 C2780 0.929 . S
H2773 C2782 0.930 . S
H2774 C2784 0.930 . S
H2775 C2787 0.929 . S
H2776 C2790 0.930 . S
H2777 C2792 0.960 . S
H2778 C2792 0.960 . S
H2779 C2792 0.960 . S
C2780 H2772 0.929 . S
C2780 C2781 1.377 . S
C2780 C2782 1.384 . S
C2781 C2780 1.377 . S
C2781 C2787 1.390 . S
C2782 H2773 0.930 . S
C2782 C2780 1.384 . S
C2782 C2783 1.372 . S
C2783 C2782 1.372 . S
C2783 C2784 1.400 . S
C2783 C2788 1.490 . S
C2784 H2774 0.930 . S
C2784 C2783 1.400 . S
C2784 C2787 1.386 . S
H2785 C2801 0.930 . S
H2786 C2802 0.931 . S
C2787 H2775 0.929 . S
C2787 C2781 1.390 . S
C2787 C2784 1.386 . S
C2788 C2783 1.490 . S
C2788 C2790 1.395 . S
C2788 C2791 1.403 . S
H2789 C2795 0.930 . S
C2790 H2776 0.930 . S
C2790 C2788 1.395 . S
C2790 C2793 1.403 . S
C2791 C2788 1.403 . S
C2791 C2792 1.524 . S
C2791 C2795 1.400 . S
C2792 H2777 0.960 . S
C2792 H2778 0.960 . S
C2792 H2779 0.960 . S
C2792 C2791 1.524 . S
C2793 C2790 1.403 . S
C2793 C2794 1.392 . S
C2793 C2797 1.495 . S
C2794 C2793 1.392 . S
C2794 C2795 1.385 . S
C2794 C2796 1.478 . S
C2795 H2789 0.930 . S
C2795 C2791 1.400 . S
C2795 C2794 1.385 . S
C2796 C2794 1.478 . S
C2796 C2798 1.381 . S
C2796 C2802 1.383 . S
C2797 C2793 1.495 . S
C2797 H2803 0.959 . S
C2797 H2804 0.961 . S
C2797 H2805 0.960 . S
C2798 C2796 1.381 . S
C2798 C2799 1.394 . S
C2798 H2806 0.930 . S
C2799 C2798 1.394 . S
C2799 C2800 1.383 . S
C2799 H2807 0.929 . S
C2800 C2799 1.383 . S
C2800 C2801 1.377 . S
C2801 H2785 0.930 . S
C2801 C2800 1.377 . S
C2801 C2802 1.379 . S
C2802 H2786 0.931 . S
C2802 C2796 1.383 . S
C2802 C2801 1.379 . S
H2803 C2797 0.959 . S
H2804 C2797 0.961 . S
H2805 C2797 0.960 . S
H2806 C2798 0.930 . S
H2807 C2799 0.929 . S
H2808 C2816 0.929 . S
H2809 C2818 0.930 . S
H2810 C2820 0.930 . S
H2811 C2823 0.929 . S
H2812 C2826 0.930 . S
H2813 C2828 0.960 . S
H2814 C2828 0.960 . S
H2815 C2828 0.960 . S
C2816 H2808 0.929 . S
C2816 C2817 1.377 . S
C2816 C2818 1.384 . S
C2817 C2816 1.377 . S
C2817 C2823 1.390 . S
C2818 H2809 0.930 . S
C2818 C2816 1.384 . S
C2818 C2819 1.372 . S
C2819 C2818 1.372 . S
C2819 C2820 1.400 . S
C2819 C2824 1.490 . S
C2820 H2810 0.930 . S
C2820 C2819 1.400 . S
C2820 C2823 1.386 . S
H2821 C2837 0.930 . S
H2822 C2838 0.931 . S
C2823 H2811 0.929 . S
C2823 C2817 1.390 . S
C2823 C2820 1.386 . S
C2824 C2819 1.490 . S
C2824 C2826 1.395 . S
C2824 C2827 1.403 . S
H2825 C2831 0.930 . S
C2826 H2812 0.930 . S
C2826 C2824 1.395 . S
C2826 C2829 1.403 . S
C2827 C2824 1.403 . S
C2827 C2828 1.524 . S
C2827 C2831 1.400 . S
C2828 H2813 0.960 . S
C2828 H2814 0.960 . S
C2828 H2815 0.960 . S
C2828 C2827 1.524 . S
C2829 C2826 1.403 . S
C2829 C2830 1.392 . S
C2829 C2833 1.495 . S
C2830 C2829 1.392 . S
C2830 C2831 1.385 . S
C2830 C2832 1.478 . S
C2831 H2825 0.930 . S
C2831 C2827 1.400 . S
C2831 C2830 1.385 . S
C2832 C2830 1.478 . S
C2832 C2834 1.381 . S
C2832 C2838 1.383 . S
C2833 C2829 1.495 . S
C2833 H2839 0.959 . S
C2833 H2840 0.961 . S
C2833 H2841 0.960 . S
C2834 C2832 1.381 . S
C2834 C2835 1.394 . S
C2834 H2842 0.930 . S
C2835 C2834 1.394 . S
C2835 C2836 1.383 . S
C2835 H2843 0.929 . S
C2836 C2835 1.383 . S
C2836 C2837 1.377 . S
C2837 H2821 0.930 . S
C2837 C2836 1.377 . S
C2837 C2838 1.379 . S
C2838 H2822 0.931 . S
C2838 C2832 1.383 . S
C2838 C2837 1.379 . S
H2839 C2833 0.959 . S
H2840 C2833 0.961 . S
H2841 C2833 0.960 . S
H2842 C2834 0.930 . S
H2843 C2835 0.929 . S
H2844 C2852 0.929 . S
H2845 C2854 0.930 . S
H2846 C2856 0.930 . S
H2847 C2859 0.929 . S
H2848 C2862 0.930 . S
H2849 C2864 0.960 . S
H2850 C2864 0.960 . S
H2851 C2864 0.960 . S
C2852 H2844 0.929 . S
C2852 C2853 1.377 . S
C2852 C2854 1.384 . S
C2853 C2852 1.377 . S
C2853 C2859 1.390 . S
C2854 H2845 0.930 . S
C2854 C2852 1.384 . S
C2854 C2855 1.372 . S
C2855 C2854 1.372 . S
C2855 C2856 1.400 . S
C2855 C2860 1.490 . S
C2856 H2846 0.930 . S
C2856 C2855 1.400 . S
C2856 C2859 1.386 . S
H2857 C2873 0.930 . S
H2858 C2874 0.931 . S
C2859 H2847 0.929 . S
C2859 C2853 1.390 . S
C2859 C2856 1.386 . S
C2860 C2855 1.490 . S
C2860 C2862 1.395 . S
C2860 C2863 1.403 . S
H2861 C2867 0.930 . S
C2862 H2848 0.930 . S
C2862 C2860 1.395 . S
C2862 C2865 1.403 . S
C2863 C2860 1.403 . S
C2863 C2864 1.524 . S
C2863 C2867 1.400 . S
C2864 H2849 0.960 . S
C2864 H2850 0.960 . S
C2864 H2851 0.960 . S
C2864 C2863 1.524 . S
C2865 C2862 1.403 . S
C2865 C2866 1.392 . S
C2865 C2869 1.495 . S
C2866 C2865 1.392 . S
C2866 C2867 1.385 . S
C2866 C2868 1.478 . S
C2867 H2861 0.930 . S
C2867 C2863 1.400 . S
C2867 C2866 1.385 . S
C2868 C2866 1.478 . S
C2868 C2870 1.381 . S
C2868 C2874 1.383 . S
C2869 C2865 1.495 . S
C2869 H2875 0.959 . S
C2869 H2876 0.961 . S
C2869 H2877 0.960 . S
C2870 C2868 1.381 . S
C2870 C2871 1.394 . S
C2870 H2878 0.930 . S
C2871 C2870 1.394 . S
C2871 C2872 1.383 . S
C2871 H2879 0.929 . S
C2872 C2871 1.383 . S
C2872 C2873 1.377 . S
C2873 H2857 0.930 . S
C2873 C2872 1.377 . S
C2873 C2874 1.379 . S
C2874 H2858 0.931 . S
C2874 C2868 1.383 . S
C2874 C2873 1.379 . S
H2875 C2869 0.959 . S
H2876 C2869 0.961 . S
H2877 C2869 0.960 . S
H2878 C2870 0.930 . S
H2879 C2871 0.929 . S
H2880 C2888 0.929 . S
H2881 C2890 0.930 . S
H2882 C2892 0.930 . S
H2883 C2895 0.929 . S
H2884 C2898 0.930 . S
H2885 C2900 0.960 . S
H2886 C2900 0.960 . S
H2887 C2900 0.960 . S
C2888 H2880 0.929 . S
C2888 C2889 1.377 . S
C2888 C2890 1.384 . S
C2889 C2888 1.377 . S
C2889 C2895 1.390 . S
C2890 H2881 0.930 . S
C2890 C2888 1.384 . S
C2890 C2891 1.372 . S
C2891 C2890 1.372 . S
C2891 C2892 1.400 . S
C2891 C2896 1.490 . S
C2892 H2882 0.930 . S
C2892 C2891 1.400 . S
C2892 C2895 1.386 . S
H2893 C2909 0.930 . S
H2894 C2910 0.931 . S
C2895 H2883 0.929 . S
C2895 C2889 1.390 . S
C2895 C2892 1.386 . S
C2896 C2891 1.490 . S
C2896 C2898 1.395 . S
C2896 C2899 1.403 . S
H2897 C2903 0.930 . S
C2898 H2884 0.930 . S
C2898 C2896 1.395 . S
C2898 C2901 1.403 . S
C2899 C2896 1.403 . S
C2899 C2900 1.524 . S
C2899 C2903 1.400 . S
C2900 H2885 0.960 . S
C2900 H2886 0.960 . S
C2900 H2887 0.960 . S
C2900 C2899 1.524 . S
C2901 C2898 1.403 . S
C2901 C2902 1.392 . S
C2901 C2905 1.495 . S
C2902 C2901 1.392 . S
C2902 C2903 1.385 . S
C2902 C2904 1.478 . S
C2903 H2897 0.930 . S
C2903 C2899 1.400 . S
C2903 C2902 1.385 . S
C2904 C2902 1.478 . S
C2904 C2906 1.381 . S
C2904 C2910 1.383 . S
C2905 C2901 1.495 . S
C2905 H2911 0.959 . S
C2905 H2912 0.961 . S
C2905 H2913 0.960 . S
C2906 C2904 1.381 . S
C2906 C2907 1.394 . S
C2906 H2914 0.930 . S
C2907 C2906 1.394 . S
C2907 C2908 1.383 . S
C2907 H2915 0.929 . S
C2908 C2907 1.383 . S
C2908 C2909 1.377 . S
C2909 H2893 0.930 . S
C2909 C2908 1.377 . S
C2909 C2910 1.379 . S
C2910 H2894 0.931 . S
C2910 C2904 1.383 . S
C2910 C2909 1.379 . S
H2911 C2905 0.959 . S
H2912 C2905 0.961 . S
H2913 C2905 0.960 . S
H2914 C2906 0.930 . S
H2915 C2907 0.929 . S
H2916 C2924 0.929 . S
H2917 C2926 0.928 1_655 S
H2918 C2928 0.930 . S
H2919 C2931 0.929 . S
H2920 C2934 0.930 . S
H2921 C2936 0.960 . S
H2922 C2936 0.960 . S
H2923 C2936 0.960 . S
C2924 H2916 0.929 . S
C2924 C2925 1.377 . S
C2924 C2926 1.384 . S
C2925 C2924 1.377 . S
C2925 C2931 1.390 . S
C2926 H2917 0.928 1_455 S
C2926 C2924 1.384 . S
C2926 C2927 1.372 . S
C2927 C2926 1.372 . S
C2927 C2928 1.400 . S
C2927 C2932 1.490 . S
C2928 H2918 0.930 . S
C2928 C2927 1.400 . S
C2928 C2931 1.386 . S
H2929 C2945 0.930 . S
H2930 C2946 0.931 . S
C2931 H2919 0.929 . S
C2931 C2925 1.390 . S
C2931 C2928 1.386 . S
C2932 C2927 1.490 . S
C2932 C2934 1.395 1_455 S
C2932 C2935 1.403 . S
H2933 C2939 0.930 . S
C2934 H2920 0.930 . S
C2934 C2932 1.395 1_655 S
C2934 C2937 1.403 . S
C2935 C2932 1.403 . S
C2935 C2936 1.524 . S
C2935 C2939 1.400 . S
C2936 H2921 0.960 . S
C2936 H2922 0.960 . S
C2936 H2923 0.960 . S
C2936 C2935 1.524 . S
C2937 C2934 1.403 . S
C2937 C2938 1.392 . S
C2937 C2941 1.495 . S
C2938 C2937 1.392 . S
C2938 C2939 1.385 1_655 S
C2938 C2940 1.478 . S
C2939 H2933 0.930 . S
C2939 C2935 1.400 . S
C2939 C2938 1.385 1_455 S
C2940 C2938 1.478 . S
C2940 C2942 1.381 . S
C2940 C2946 1.383 . S
C2941 C2937 1.495 . S
C2941 H2947 0.959 . S
C2941 H2948 0.961 . S
C2941 H2949 0.960 . S
C2942 C2940 1.381 . S
C2942 C2943 1.394 . S
C2942 H2950 0.930 . S
C2943 C2942 1.394 . S
C2943 C2944 1.383 . S
C2943 H2951 0.929 . S
C2944 C2943 1.383 . S
C2944 C2945 1.377 . S
C2945 H2929 0.930 . S
C2945 C2944 1.377 . S
C2945 C2946 1.379 . S
C2946 H2930 0.931 . S
C2946 C2940 1.383 . S
C2946 C2945 1.379 . S
H2947 C2941 0.959 . S
H2948 C2941 0.961 . S
H2949 C2941 0.960 . S
H2950 C2942 0.930 . S
H2951 C2943 0.929 . S
H2952 C2960 0.929 . S
H2953 C2962 0.930 . S
H2954 C2964 0.930 . S
H2955 C2967 0.929 . S
H2956 C2970 0.930 . S
H2957 C2972 0.960 . S
H2958 C2972 0.960 . S
H2959 C2972 0.960 . S
C2960 H2952 0.929 . S
C2960 C2961 1.377 . S
C2960 C2962 1.384 . S
C2961 C2960 1.377 . S
C2961 C2967 1.390 . S
C2962 H2953 0.930 . S
C2962 C2960 1.384 . S
C2962 C2963 1.372 . S
C2963 C2962 1.372 . S
C2963 C2964 1.400 . S
C2963 C2968 1.490 . S
C2964 H2954 0.930 . S
C2964 C2963 1.400 . S
C2964 C2967 1.386 . S
H2965 C2981 0.930 . S
H2966 C2982 0.931 . S
C2967 H2955 0.929 . S
C2967 C2961 1.390 . S
C2967 C2964 1.386 . S
C2968 C2963 1.490 . S
C2968 C2970 1.395 . S
C2968 C2971 1.403 . S
H2969 C2975 0.930 . S
C2970 H2956 0.930 . S
C2970 C2968 1.395 . S
C2970 C2973 1.403 . S
C2971 C2968 1.403 . S
C2971 C2972 1.524 . S
C2971 C2975 1.400 . S
C2972 H2957 0.960 . S
C2972 H2958 0.960 . S
C2972 H2959 0.960 . S
C2972 C2971 1.524 . S
C2973 C2970 1.403 . S
C2973 C2974 1.392 . S
C2973 C2977 1.495 . S
C2974 C2973 1.392 . S
C2974 C2975 1.385 . S
C2974 C2976 1.478 . S
C2975 H2969 0.930 . S
C2975 C2971 1.400 . S
C2975 C2974 1.385 . S
C2976 C2974 1.478 . S
C2976 C2978 1.381 . S
C2976 C2982 1.383 . S
C2977 C2973 1.495 . S
C2977 H2983 0.959 . S
C2977 H2984 0.961 . S
C2977 H2985 0.960 . S
C2978 C2976 1.381 . S
C2978 C2979 1.394 . S
C2978 H2986 0.930 . S
C2979 C2978 1.394 . S
C2979 C2980 1.383 . S
C2979 H2987 0.929 . S
C2980 C2979 1.383 . S
C2980 C2981 1.377 . S
C2981 H2965 0.930 . S
C2981 C2980 1.377 . S
C2981 C2982 1.379 . S
C2982 H2966 0.931 . S
C2982 C2976 1.383 . S
C2982 C2981 1.379 . S
H2983 C2977 0.959 . S
H2984 C2977 0.961 . S
H2985 C2977 0.960 . S
H2986 C2978 0.930 . S
H2987 C2979 0.929 . S
H2988 C2996 0.929 . S
H2989 C2998 0.930 1_565 S
H2990 C3000 0.930 . S
H2991 C3003 0.929 . S
H2992 C3006 0.930 . S
H2993 C3008 0.960 . S
H2994 C3008 0.960 . S
H2995 C3008 0.960 . S
C2996 H2988 0.929 . S
C2996 C2997 1.377 . S
C2996 C2998 1.384 . S
C2997 C2996 1.377 . S
C2997 C3003 1.390 . S
C2998 H2989 0.930 1_545 S
C2998 C2996 1.384 . S
C2998 C2999 1.372 . S
C2999 C2998 1.372 . S
C2999 C3000 1.400 . S
C2999 C3004 1.490 . S
C3000 H2990 0.930 . S
C3000 C2999 1.400 . S
C3000 C3003 1.386 . S
H3001 C3017 0.930 . S
H3002 C3018 0.964 . S
C3003 H2991 0.929 . S
C3003 C2997 1.390 . S
C3003 C3000 1.386 . S
C3004 C2999 1.490 . S
C3004 C3006 1.395 1_545 S
C3004 C3007 1.403 . S
H3005 C3011 0.930 . S
C3006 H2992 0.930 . S
C3006 C3004 1.395 1_565 S
C3006 C3009 1.403 . S
C3007 C3004 1.403 . S
C3007 C3008 1.524 . S
C3007 C3011 1.400 . S
C3008 H2993 0.960 . S
C3008 H2994 0.960 . S
C3008 H2995 0.960 . S
C3008 C3007 1.524 . S
C3009 C3006 1.403 . S
C3009 C3010 1.392 . S
C3009 C3013 1.495 . S
C3010 C3009 1.392 . S
C3010 C3011 1.385 1_565 S
C3010 C3012 1.478 . S
C3011 H3005 0.930 . S
C3011 C3007 1.400 . S
C3011 C3010 1.385 1_545 S
C3012 C3010 1.478 . S
C3012 C3014 1.381 . S
C3012 C3018 1.383 . S
C3013 C3009 1.495 . S
C3013 H3019 0.959 . S
C3013 H3020 0.961 . S
C3013 H3021 0.960 . S
C3014 C3012 1.381 . S
C3014 C3015 1.394 . S
C3014 H3022 0.930 . S
C3015 C3014 1.394 . S
C3015 C3016 1.383 . S
C3015 H3023 0.929 . S
C3016 C3015 1.383 . S
C3016 C3017 1.377 . S
C3017 H3001 0.930 . S
C3017 C3016 1.377 . S
C3017 C3018 1.379 . S
C3018 H3002 0.964 . S
C3018 C3012 1.383 . S
C3018 C3017 1.379 . S
H3019 C3013 0.959 . S
H3020 C3013 0.961 . S
H3021 C3013 0.960 . S
H3022 C3014 0.930 . S
H3023 C3015 0.929 . S
H3024 C3032 0.929 . S
H3025 C3034 0.930 . S
H3026 C3036 0.930 . S
H3027 C3039 0.929 . S
H3028 C3042 0.930 . S
H3029 C3044 0.960 . S
H3030 C3044 0.960 . S
H3031 C3044 0.960 . S
C3032 H3024 0.929 . S
C3032 C3033 1.377 . S
C3032 C3034 1.384 . S
C3033 C3032 1.377 . S
C3033 C3039 1.390 . S
C3034 H3025 0.930 . S
C3034 C3032 1.384 . S
C3034 C3035 1.372 . S
C3035 C3034 1.372 . S
C3035 C3036 1.400 . S
C3035 C3040 1.490 . S
C3036 H3026 0.930 . S
C3036 C3035 1.400 . S
C3036 C3039 1.386 . S
H3037 C3053 0.930 . S
H3038 C3054 0.931 . S
C3039 H3027 0.929 . S
C3039 C3033 1.390 . S
C3039 C3036 1.386 . S
C3040 C3035 1.490 . S
C3040 C3042 1.395 1_554 S
C3040 C3043 1.403 1_565 S
H3041 C3047 0.929 1_554 S
C3042 H3028 0.930 . S
C3042 C3040 1.395 1_556 S
C3042 C3045 1.403 . S
C3043 C3040 1.403 1_545 S
C3043 C3044 1.524 . S
C3043 C3047 1.369 1_554 S
C3044 H3029 0.960 . S
C3044 H3030 0.960 . S
C3044 H3031 0.960 . S
C3044 C3043 1.524 . S
C3045 C3042 1.403 . S
C3045 C3046 1.392 1_565 S
C3045 C3049 1.495 . S
C3046 C3045 1.392 1_545 S
C3046 C3047 1.418 . S
C3046 C3048 1.478 . S
C3047 H3041 0.929 1_556 S
C3047 C3043 1.369 1_556 S
C3047 C3046 1.418 . S
C3048 C3046 1.478 . S
C3048 C3050 1.381 . S
C3048 C3054 1.383 . S
C3049 C3045 1.495 . S
C3049 H3055 0.959 . S
C3049 H3056 0.961 . S
C3049 H3057 0.960 . S
C3050 C3048 1.381 . S
C3050 C3051 1.394 . S
C3050 H3058 0.930 . S
C3051 C3050 1.394 . S
C3051 C3052 1.383 . S
C3051 H3059 0.929 . S
C3052 C3051 1.383 . S
C3052 C3053 1.377 . S
C3053 H3037 0.930 . S
C3053 C3052 1.377 . S
C3053 C3054 1.379 . S
C3054 H3038 0.931 . S
C3054 C3048 1.383 . S
C3054 C3053 1.379 . S
H3055 C3049 0.959 . S
H3056 C3049 0.961 . S
H3057 C3049 0.960 . S
H3058 C3050 0.930 . S
H3059 C3051 0.929 . S
H3060 C3068 0.929 . S
H3061 C3070 0.930 . S
H3062 C3072 0.930 . S
H3063 C3075 0.929 . S
H3064 C3078 0.928 1_556 S
H3065 C3080 0.960 . S
H3066 C3080 0.960 . S
H3067 C3080 0.960 . S
C3068 H3060 0.929 . S
C3068 C3069 1.377 . S
C3068 C3070 1.384 . S
C3069 C3068 1.377 . S
C3069 C3075 1.390 . S
C3070 H3061 0.930 . S
C3070 C3068 1.384 . S
C3070 C3071 1.372 . S
C3071 C3070 1.372 . S
C3071 C3072 1.400 . S
C3071 C3076 1.490 . S
C3072 H3062 0.930 . S
C3072 C3071 1.400 . S
C3072 C3075 1.386 . S
H3073 C3089 0.930 . S
H3074 C3090 0.931 . S
C3075 H3063 0.929 . S
C3075 C3069 1.390 . S
C3075 C3072 1.386 . S
C3076 C3071 1.490 . S
C3076 C3078 1.397 1_556 S
C3076 C3079 1.403 1_655 S
H3077 C3083 0.930 . S
C3078 H3064 0.928 1_554 S
C3078 C3076 1.397 1_554 S
C3078 C3081 1.401 . S
C3079 C3076 1.403 1_455 S
C3079 C3080 1.524 . S
C3079 C3083 1.400 1_556 S
C3080 H3065 0.960 . S
C3080 H3066 0.960 . S
C3080 H3067 0.960 . S
C3080 C3079 1.524 . S
C3081 C3078 1.401 . S
C3081 C3082 1.392 1_655 S
C3081 C3085 1.495 . S
C3082 C3081 1.392 1_455 S
C3082 C3083 1.385 . S
C3082 C3084 1.478 . S
C3083 H3077 0.930 . S
C3083 C3079 1.400 1_554 S
C3083 C3082 1.385 . S
C3084 C3082 1.478 . S
C3084 C3086 1.381 . S
C3084 C3090 1.383 . S
C3085 C3081 1.495 . S
C3085 H3091 0.959 . S
C3085 H3092 0.961 . S
C3085 H3093 0.960 . S
C3086 C3084 1.381 . S
C3086 C3087 1.394 . S
C3086 H3094 0.930 . S
C3087 C3086 1.394 . S
C3087 C3088 1.383 . S
C3087 H3095 0.929 . S
C3088 C3087 1.383 . S
C3088 C3089 1.377 . S
C3089 H3073 0.930 . S
C3089 C3088 1.377 . S
C3089 C3090 1.379 . S
C3090 H3074 0.931 . S
C3090 C3084 1.383 . S
C3090 C3089 1.379 . S
H3091 C3085 0.959 . S
H3092 C3085 0.961 . S
H3093 C3085 0.960 . S
H3094 C3086 0.930 . S
H3095 C3087 0.929 . S
H3096 C3104 0.929 . S
H3097 C3106 0.930 . S
H3098 C3108 0.930 . S
H3099 C3111 0.929 . S
H3100 C3114 0.930 . S
H3101 C3116 0.960 . S
H3102 C3116 0.960 . S
H3103 C3116 0.960 . S
C3104 H3096 0.929 . S
C3104 C3105 1.377 . S
C3104 C3106 1.384 . S
C3105 C3104 1.377 . S
C3105 C3111 1.390 . S
C3106 H3097 0.930 . S
C3106 C3104 1.384 . S
C3106 C3107 1.372 . S
C3107 C3106 1.372 . S
C3107 C3108 1.400 . S
C3107 C3112 1.490 . S
C3108 H3098 0.930 . S
C3108 C3107 1.400 . S
C3108 C3111 1.386 . S
H3109 C3125 0.930 . S
H3110 C3126 0.931 . S
C3111 H3099 0.929 . S
C3111 C3105 1.390 . S
C3111 C3108 1.386 . S
C3112 C3107 1.490 . S
C3112 C3114 1.395 1_554 S
C3112 C3115 1.403 . S
H3113 C3119 0.929 . S
C3114 H3100 0.930 . S
C3114 C3112 1.395 1_556 S
C3114 C3117 1.403 . S
C3115 C3112 1.403 . S
C3115 C3116 1.524 . S
C3115 C3119 1.357 1_554 S
C3116 H3101 0.960 . S
C3116 H3102 0.960 . S
C3116 H3103 0.960 . S
C3116 C3115 1.524 . S
C3117 C3114 1.403 . S
C3117 C3118 1.392 . S
C3117 C3121 1.495 . S
C3118 C3117 1.392 . S
C3118 C3119 1.431 . S
C3118 C3120 1.478 . S
C3119 H3113 0.929 . S
C3119 C3115 1.357 1_556 S
C3119 C3118 1.431 . S
C3120 C3118 1.478 . S
C3120 C3122 1.381 . S
C3120 C3126 1.383 . S
C3121 C3117 1.495 . S
C3121 H3127 0.959 . S
C3121 H3128 0.961 . S
C3121 H3129 0.960 . S
C3122 C3120 1.381 . S
C3122 C3123 1.394 . S
C3122 H3130 0.930 . S
C3123 C3122 1.394 . S
C3123 C3124 1.383 . S
C3123 H3131 0.929 . S
C3124 C3123 1.383 . S
C3124 C3125 1.377 . S
C3125 H3109 0.930 . S
C3125 C3124 1.377 . S
C3125 C3126 1.379 . S
C3126 H3110 0.931 . S
C3126 C3120 1.383 . S
C3126 C3125 1.379 . S
H3127 C3121 0.959 . S
H3128 C3121 0.961 . S
H3129 C3121 0.960 . S
H3130 C3122 0.930 . S
H3131 C3123 0.929 . S
H3132 C3140 0.929 . S
H3133 C3142 0.930 . S
H3134 C3144 0.930 . S
H3135 C3147 0.929 1_556 S
H3136 C3150 0.930 1_554 S
H3137 C3152 0.960 . S
H3138 C3152 0.960 1_554 S
H3139 C3152 0.960 . S
C3140 H3132 0.929 . S
C3140 C3141 1.377 . S
C3140 C3142 1.384 . S
C3141 C3140 1.377 . S
C3141 C3147 1.390 . S
C3142 H3133 0.930 . S
C3142 C3140 1.384 . S
C3142 C3143 1.372 . S
C3143 C3142 1.372 . S
C3143 C3144 1.400 1_554 S
C3143 C3148 1.501 . S
C3144 H3134 0.930 . S
C3144 C3143 1.400 1_556 S
C3144 C3147 1.386 1_556 S
H3145 C3161 0.930 . S
H3146 C3162 0.931 . S
C3147 H3135 0.929 1_554 S
C3147 C3141 1.390 . S
C3147 C3144 1.386 1_554 S
C3148 C3143 1.501 . S
C3148 C3150 1.392 1_554 S
C3148 C3151 1.396 1_554 S
H3149 C3155 0.930 . S
C3150 H3136 0.930 1_556 S
C3150 C3148 1.392 1_556 S
C3150 C3153 1.403 . S
C3151 C3148 1.396 1_556 S
C3151 C3152 1.524 . S
C3151 C3155 1.400 . S
C3152 H3137 0.960 . S
C3152 H3138 0.960 1_556 S
C3152 H3139 0.960 . S
C3152 C3151 1.524 . S
C3153 C3150 1.403 . S
C3153 C3154 1.392 . S
C3153 C3157 1.495 . S
C3154 C3153 1.392 . S
C3154 C3155 1.385 . S
C3154 C3156 1.478 . S
C3155 H3149 0.930 . S
C3155 C3151 1.400 . S
C3155 C3154 1.385 . S
C3156 C3154 1.478 . S
C3156 C3158 1.381 1_545 S
C3156 C3162 1.383 . S
C3157 C3153 1.495 . S
C3157 H3163 0.959 . S
C3157 H3164 0.961 . S
C3157 H3165 0.960 . S
C3158 C3156 1.381 1_565 S
C3158 C3159 1.394 . S
C3158 H3166 0.930 1_556 S
C3159 C3158 1.394 . S
C3159 C3160 1.383 . S
C3159 H3167 0.929 . S
C3160 C3159 1.383 . S
C3160 C3161 1.377 . S
C3161 H3145 0.930 . S
C3161 C3160 1.377 . S
C3161 C3162 1.379 1_565 S
C3162 H3146 0.931 . S
C3162 C3156 1.383 . S
C3162 C3161 1.379 1_545 S
H3163 C3157 0.959 . S
H3164 C3157 0.961 . S
H3165 C3157 0.960 . S
H3166 C3158 0.930 1_554 S
H3167 C3159 0.929 . S
H3168 C3176 0.929 . S
H3169 C3178 0.930 . S
H3170 C3180 0.930 . S
H3171 C3183 0.909 1_556 S
H3172 C3186 0.930 . S
H3173 C3188 0.960 . S
H3174 C3188 0.960 . S
H3175 C3188 0.960 . S
C3176 H3168 0.929 . S
C3176 C3177 1.377 . S
C3176 C3178 1.384 . S
C3177 C3176 1.377 . S
C3177 C3183 1.420 . S
C3178 H3169 0.930 . S
C3178 C3176 1.384 . S
C3178 C3179 1.372 . S
C3179 C3178 1.372 . S
C3179 C3180 1.400 1_554 S
C3179 C3184 1.509 . S
C3180 H3170 0.930 . S
C3180 C3179 1.400 1_556 S
C3180 C3183 1.376 1_556 S
H3181 C3197 0.930 . S
H3182 C3198 0.951 . S
C3183 H3171 0.909 1_554 S
C3183 C3177 1.420 . S
C3183 C3180 1.376 1_554 S
C3184 C3179 1.509 . S
C3184 C3186 1.421 . S
C3184 C3187 1.362 1_554 S
H3185 C3191 0.930 . S
C3186 H3172 0.930 . S
C3186 C3184 1.421 . S
C3186 C3189 1.403 . S
C3187 C3184 1.362 1_556 S
C3187 C3188 1.524 . S
C3187 C3191 1.400 . S
C3188 H3173 0.960 . S
C3188 H3174 0.960 . S
C3188 H3175 0.960 . S
C3188 C3187 1.524 . S
C3189 C3186 1.403 . S
C3189 C3190 1.392 1_554 S
C3189 C3193 1.495 . S
C3190 C3189 1.392 1_556 S
C3190 C3191 1.385 . S
C3190 C3192 1.478 . S
C3191 H3185 0.930 . S
C3191 C3187 1.400 . S
C3191 C3190 1.385 . S
C3192 C3190 1.478 . S
C3192 C3194 1.381 1_655 S
C3192 C3198 1.397 . S
C3193 C3189 1.495 . S
C3193 H3199 0.959 . S
C3193 H3200 0.961 . S
C3193 H3201 0.960 . S
C3194 C3192 1.381 1_455 S
C3194 C3195 1.394 . S
C3194 H3202 0.930 1_556 S
C3195 C3194 1.394 . S
C3195 C3196 1.383 . S
C3195 H3203 0.929 . S
C3196 C3195 1.383 . S
C3196 C3197 1.377 . S
C3197 H3181 0.930 . S
C3197 C3196 1.377 . S
C3197 C3198 1.348 1_455 S
C3198 H3182 0.951 . S
C3198 C3192 1.397 . S
C3198 C3197 1.348 1_655 S
H3199 C3193 0.959 . S
H3200 C3193 0.961 . S
H3201 C3193 0.960 . S
H3202 C3194 0.930 1_554 S
H3203 C3195 0.929 . S
H3204 C3212 0.929 . S
H3205 C3214 0.930 . S
H3206 C3216 0.930 . S
H3207 C3219 0.929 . S
H3208 C3222 0.930 . S
H3209 C3224 0.960 . S
H3210 C3224 0.960 . S
H3211 C3224 0.960 1_556 S
C3212 H3204 0.929 . S
C3212 C3213 1.377 . S
C3212 C3214 1.384 . S
C3213 C3212 1.377 . S
C3213 C3219 1.390 . S
C3214 H3205 0.930 . S
C3214 C3212 1.384 . S
C3214 C3215 1.372 . S
C3215 C3214 1.372 . S
C3215 C3216 1.400 . S
C3215 C3220 1.490 . S
C3216 H3206 0.930 . S
C3216 C3215 1.400 . S
C3216 C3219 1.386 . S
H3217 C3233 0.930 . S
H3218 C3234 0.962 . S
C3219 H3207 0.929 . S
C3219 C3213 1.390 . S
C3219 C3216 1.386 . S
C3220 C3215 1.490 . S
C3220 C3222 1.395 . S
C3220 C3223 1.417 . S
H3221 C3227 0.930 . S
C3222 H3208 0.930 . S
C3222 C3220 1.395 . S
C3222 C3225 1.403 . S
C3223 C3220 1.417 . S
C3223 C3224 1.515 1_556 S
C3223 C3227 1.394 1_556 S
C3224 H3209 0.960 . S
C3224 H3210 0.960 . S
C3224 H3211 0.960 1_554 S
C3224 C3223 1.515 1_554 S
C3225 C3222 1.403 . S
C3225 C3226 1.392 . S
C3225 C3229 1.495 . S
C3226 C3225 1.392 . S
C3226 C3227 1.385 1_556 S
C3226 C3228 1.478 1_556 S
C3227 H3221 0.930 . S
C3227 C3223 1.394 1_554 S
C3227 C3226 1.385 1_554 S
C3228 C3226 1.478 1_554 S
C3228 C3230 1.381 . S
C3228 C3234 1.370 1_554 S
C3229 C3225 1.495 . S
C3229 H3235 0.959 . S
C3229 H3236 0.961 . S
C3229 H3237 0.960 . S
C3230 C3228 1.381 . S
C3230 C3231 1.394 . S
C3230 H3238 0.930 . S
C3231 C3230 1.394 . S
C3231 C3232 1.383 . S
C3231 H3239 0.929 . S
C3232 C3231 1.383 . S
C3232 C3233 1.377 . S
C3233 H3217 0.930 . S
C3233 C3232 1.377 . S
C3233 C3234 1.363 1_554 S
C3234 H3218 0.962 . S
C3234 C3228 1.370 1_556 S
C3234 C3233 1.363 1_556 S
H3235 C3229 0.959 . S
H3236 C3229 0.961 . S
H3237 C3229 0.960 . S
H3238 C3230 0.930 . S
H3239 C3231 0.929 . S
H3240 C3248 0.929 . S
H3241 C3250 0.930 . S
H3242 C3252 0.930 . S
H3243 C3255 0.929 . S
H3244 C3258 0.930 . S
H3245 C3260 0.960 . S
H3246 C3260 0.960 . S
H3247 C3260 0.960 . S
C3248 H3240 0.929 . S
C3248 C3249 1.377 . S
C3248 C3250 1.384 . S
C3249 C3248 1.377 . S
C3249 C3255 1.390 . S
C3250 H3241 0.930 . S
C3250 C3248 1.384 . S
C3250 C3251 1.372 1_655 S
C3251 C3250 1.372 1_455 S
C3251 C3252 1.400 . S
C3251 C3256 1.490 . S
C3252 H3242 0.930 . S
C3252 C3251 1.400 . S
C3252 C3255 1.386 1_455 S
H3253 C3269 0.930 . S
H3254 C3270 0.931 . S
C3255 H3243 0.929 . S
C3255 C3249 1.390 . S
C3255 C3252 1.386 1_655 S
C3256 C3251 1.490 . S
C3256 C3258 1.395 . S
C3256 C3259 1.403 . S
H3257 C3263 0.930 . S
C3258 H3244 0.930 . S
C3258 C3256 1.395 . S
C3258 C3261 1.403 . S
C3259 C3256 1.403 . S
C3259 C3260 1.524 . S
C3259 C3263 1.400 . S
C3260 H3245 0.960 . S
C3260 H3246 0.960 . S
C3260 H3247 0.960 . S
C3260 C3259 1.524 . S
C3261 C3258 1.403 . S
C3261 C3262 1.392 . S
C3261 C3265 1.495 . S
C3262 C3261 1.392 . S
C3262 C3263 1.385 . S
C3262 C3264 1.478 . S
C3263 H3257 0.930 . S
C3263 C3259 1.400 . S
C3263 C3262 1.385 . S
C3264 C3262 1.478 . S
C3264 C3266 1.381 . S
C3264 C3270 1.383 . S
C3265 C3261 1.495 . S
C3265 H3271 0.959 . S
C3265 H3272 0.961 . S
C3265 H3273 0.960 . S
C3266 C3264 1.381 . S
C3266 C3267 1.394 . S
C3266 H3274 0.930 . S
C3267 C3266 1.394 . S
C3267 C3268 1.383 . S
C3267 H3275 0.929 . S
C3268 C3267 1.383 . S
C3268 C3269 1.377 . S
C3269 H3253 0.930 . S
C3269 C3268 1.377 . S
C3269 C3270 1.379 . S
C3270 H3254 0.931 . S
C3270 C3264 1.383 . S
C3270 C3269 1.379 . S
H3271 C3265 0.959 . S
H3272 C3265 0.961 . S
H3273 C3265 0.960 . S
H3274 C3266 0.930 . S
H3275 C3267 0.929 . S
H3276 C3284 0.929 . S
H3277 C3286 0.930 . S
H3278 C3288 0.930 . S
H3279 C3291 0.929 . S
H3280 C3294 0.930 . S
H3281 C3296 0.960 . S
H3282 C3296 0.960 . S
H3283 C3296 0.960 . S
C3284 H3276 0.929 . S
C3284 C3285 1.377 . S
C3284 C3286 1.384 . S
C3285 C3284 1.377 . S
C3285 C3291 1.390 . S
C3286 H3277 0.930 . S
C3286 C3284 1.384 . S
C3286 C3287 1.372 . S
C3287 C3286 1.372 . S
C3287 C3288 1.400 . S
C3287 C3292 1.490 . S
C3288 H3278 0.930 . S
C3288 C3287 1.400 . S
C3288 C3291 1.386 . S
H3289 C3305 0.930 . S
H3290 C3306 0.931 . S
C3291 H3279 0.929 . S
C3291 C3285 1.390 . S
C3291 C3288 1.386 . S
C3292 C3287 1.490 . S
C3292 C3294 1.395 . S
C3292 C3295 1.403 . S
H3293 C3299 0.930 . S
C3294 H3280 0.930 . S
C3294 C3292 1.395 . S
C3294 C3297 1.403 . S
C3295 C3292 1.403 . S
C3295 C3296 1.524 . S
C3295 C3299 1.400 . S
C3296 H3281 0.960 . S
C3296 H3282 0.960 . S
C3296 H3283 0.960 . S
C3296 C3295 1.524 . S
C3297 C3294 1.403 . S
C3297 C3298 1.392 . S
C3297 C3301 1.495 . S
C3298 C3297 1.392 . S
C3298 C3299 1.385 . S
C3298 C3300 1.478 . S
C3299 H3293 0.930 . S
C3299 C3295 1.400 . S
C3299 C3298 1.385 . S
C3300 C3298 1.478 . S
C3300 C3302 1.381 . S
C3300 C3306 1.383 . S
C3301 C3297 1.495 . S
C3301 H3307 0.959 . S
C3301 H3308 0.961 . S
C3301 H3309 0.960 . S
C3302 C3300 1.381 . S
C3302 C3303 1.394 . S
C3302 H3310 0.930 . S
C3303 C3302 1.394 . S
C3303 C3304 1.383 . S
C3303 H3311 0.929 . S
C3304 C3303 1.383 . S
C3304 C3305 1.377 . S
C3305 H3289 0.930 . S
C3305 C3304 1.377 . S
C3305 C3306 1.379 . S
C3306 H3290 0.931 . S
C3306 C3300 1.383 . S
C3306 C3305 1.379 . S
H3307 C3301 0.959 . S
H3308 C3301 0.961 . S
H3309 C3301 0.960 . S
H3310 C3302 0.930 . S
H3311 C3303 0.929 . S
H3312 C3320 0.929 . S
H3313 C3322 0.930 . S
H3314 C3324 0.930 . S
H3315 C3327 0.929 . S
H3316 C3330 0.930 . S
H3317 C3332 0.960 . S
H3318 C3332 0.960 . S
H3319 C3332 0.960 . S
C3320 H3312 0.929 . S
C3320 C3321 1.377 . S
C3320 C3322 1.384 1_545 S
C3321 C3320 1.377 . S
C3321 C3327 1.390 . S
C3322 H3313 0.930 . S
C3322 C3320 1.384 1_565 S
C3322 C3323 1.372 . S
C3323 C3322 1.372 . S
C3323 C3324 1.400 1_565 S
C3323 C3328 1.490 . S
C3324 H3314 0.930 . S
C3324 C3323 1.400 1_545 S
C3324 C3327 1.386 . S
H3325 C3341 0.930 . S
H3326 C3342 0.931 . S
C3327 H3315 0.929 . S
C3327 C3321 1.390 . S
C3327 C3324 1.386 . S
C3328 C3323 1.490 . S
C3328 C3330 1.395 . S
C3328 C3331 1.403 . S
H3329 C3335 0.930 . S
C3330 H3316 0.930 . S
C3330 C3328 1.395 . S
C3330 C3333 1.403 . S
C3331 C3328 1.403 . S
C3331 C3332 1.524 . S
C3331 C3335 1.400 . S
C3332 H3317 0.960 . S
C3332 H3318 0.960 . S
C3332 H3319 0.960 . S
C3332 C3331 1.524 . S
C3333 C3330 1.403 . S
C3333 C3334 1.392 . S
C3333 C3337 1.495 . S
C3334 C3333 1.392 . S
C3334 C3335 1.385 . S
C3334 C3336 1.478 . S
C3335 H3329 0.930 . S
C3335 C3331 1.400 . S
C3335 C3334 1.385 . S
C3336 C3334 1.478 . S
C3336 C3338 1.381 . S
C3336 C3342 1.383 . S
C3337 C3333 1.495 . S
C3337 H3343 0.959 . S
C3337 H3344 0.961 . S
C3337 H3345 0.960 . S
C3338 C3336 1.381 . S
C3338 C3339 1.394 . S
C3338 H3346 0.930 . S
C3339 C3338 1.394 . S
C3339 C3340 1.383 . S
C3339 H3347 0.929 . S
C3340 C3339 1.383 . S
C3340 C3341 1.377 . S
C3341 H3325 0.930 . S
C3341 C3340 1.377 . S
C3341 C3342 1.379 . S
C3342 H3326 0.931 . S
C3342 C3336 1.383 . S
C3342 C3341 1.379 . S
H3343 C3337 0.959 . S
H3344 C3337 0.961 . S
H3345 C3337 0.960 . S
H3346 C3338 0.930 . S
H3347 C3339 0.929 . S
H3348 C3356 0.929 . S
H3349 C3358 0.930 . S
H3350 C3360 0.923 1_565 S
H3351 C3363 0.929 . S
H3352 C3366 0.930 . S
H3353 C3368 0.960 . S
H3354 C3368 0.960 . S
H3355 C3368 0.960 . S
C3356 H3348 0.929 . S
C3356 C3357 1.377 . S
C3356 C3358 1.384 . S
C3357 C3356 1.377 . S
C3357 C3363 1.390 . S
C3358 H3349 0.930 . S
C3358 C3356 1.384 . S
C3358 C3359 1.372 1_545 S
C3359 C3358 1.372 1_565 S
C3359 C3360 1.400 1_565 S
C3359 C3364 1.490 . S
C3360 H3350 0.923 1_545 S
C3360 C3359 1.400 1_545 S
C3360 C3363 1.393 . S
H3361 C3377 0.930 . S
H3362 C3378 0.931 1_554 S
C3363 H3351 0.929 . S
C3363 C3357 1.390 . S
C3363 C3360 1.393 . S
C3364 C3359 1.490 . S
C3364 C3366 1.395 1_554 S
C3364 C3367 1.403 . S
H3365 C3371 0.930 . S
C3366 H3352 0.930 . S
C3366 C3364 1.395 1_556 S
C3366 C3369 1.403 . S
C3367 C3364 1.403 . S
C3367 C3368 1.524 . S
C3367 C3371 1.400 . S
C3368 H3353 0.960 . S
C3368 H3354 0.960 . S
C3368 H3355 0.960 . S
C3368 C3367 1.524 . S
C3369 C3366 1.403 . S
C3369 C3370 1.392 . S
C3369 C3373 1.495 . S
C3370 C3369 1.392 . S
C3370 C3371 1.385 1_556 S
C3370 C3372 1.478 . S
C3371 H3365 0.930 . S
C3371 C3367 1.400 . S
C3371 C3370 1.385 1_554 S
C3372 C3370 1.478 . S
C3372 C3374 1.381 . S
C3372 C3378 1.383 . S
C3373 C3369 1.495 . S
C3373 H3379 0.959 . S
C3373 H3380 0.961 . S
C3373 H3381 0.960 . S
C3374 C3372 1.381 . S
C3374 C3375 1.394 . S
C3374 H3382 0.930 . S
C3375 C3374 1.394 . S
C3375 C3376 1.383 . S
C3375 H3383 0.929 . S
C3376 C3375 1.383 . S
C3376 C3377 1.377 . S
C3377 H3361 0.930 . S
C3377 C3376 1.377 . S
C3377 C3378 1.379 . S
C3378 H3362 0.931 1_556 S
C3378 C3372 1.383 . S
C3378 C3377 1.379 . S
H3379 C3373 0.959 . S
H3380 C3373 0.961 . S
H3381 C3373 0.960 . S
H3382 C3374 0.930 . S
H3383 C3375 0.929 . S
H3384 C3392 0.929 . S
H3385 C3394 0.930 . S
H3386 C3396 0.930 1_556 S
H3387 C3399 0.929 . S
H3388 C3402 0.930 . S
H3389 C3404 0.989 . S
H3390 C3404 0.917 1_554 S
H3391 C3404 0.988 . S
C3392 H3384 0.929 . S
C3392 C3393 1.377 . S
C3392 C3394 1.384 1_655 S
C3393 C3392 1.377 . S
C3393 C3399 1.390 . S
C3394 H3385 0.930 . S
C3394 C3392 1.384 1_455 S
C3394 C3395 1.372 . S
C3395 C3394 1.372 . S
C3395 C3396 1.400 1_455 S
C3395 C3400 1.490 . S
C3396 H3386 0.930 1_554 S
C3396 C3395 1.400 1_655 S
C3396 C3399 1.386 . S
H3397 C3413 0.930 . S
H3398 C3414 0.931 . S
C3399 H3387 0.929 . S
C3399 C3393 1.390 . S
C3399 C3396 1.386 . S
C3400 C3395 1.490 . S
C3400 C3402 1.395 . S
C3400 C3403 1.403 . S
H3401 C3407 0.930 . S
C3402 H3388 0.930 . S
C3402 C3400 1.395 . S
C3402 C3405 1.403 . S
C3403 C3400 1.403 . S
C3403 C3404 1.513 1_554 S
C3403 C3407 1.400 1_554 S
C3404 H3389 0.989 . S
C3404 H3390 0.917 1_556 S
C3404 H3391 0.988 . S
C3404 C3403 1.513 1_556 S
C3405 C3402 1.403 . S
C3405 C3406 1.392 . S
C3405 C3409 1.495 . S
C3406 C3405 1.392 . S
C3406 C3407 1.385 1_554 S
C3406 C3408 1.478 1_554 S
C3407 H3401 0.930 . S
C3407 C3403 1.400 1_556 S
C3407 C3406 1.385 1_556 S
C3408 C3406 1.478 1_556 S
C3408 C3410 1.381 1_556 S
C3408 C3414 1.383 . S
C3409 C3405 1.495 . S
C3409 H3415 0.959 . S
C3409 H3416 0.961 . S
C3409 H3417 0.960 . S
C3410 C3408 1.381 1_554 S
C3410 C3411 1.405 . S
C3410 H3418 0.930 . S
C3411 C3410 1.405 . S
C3411 C3412 1.353 1_554 S
C3411 H3419 0.949 . S
C3412 C3411 1.353 1_556 S
C3412 C3413 1.377 . S
C3413 H3397 0.930 . S
C3413 C3412 1.377 . S
C3413 C3414 1.379 . S
C3414 H3398 0.931 . S
C3414 C3408 1.383 . S
C3414 C3413 1.379 . S
H3415 C3409 0.959 . S
H3416 C3409 0.961 . S
H3417 C3409 0.960 . S
H3418 C3410 0.930 . S
H3419 C3411 0.949 . S
H3420 C3428 0.929 . S
H3421 C3430 0.930 . S
H3422 C3432 0.930 . S
H3423 C3435 0.929 . S
H3424 C3438 0.930 . S
H3425 C3440 0.960 . S
H3426 C3440 0.960 . S
H3427 C3440 0.960 . S
C3428 H3420 0.929 . S
C3428 C3429 1.377 . S
C3428 C3430 1.384 . S
C3429 C3428 1.377 . S
C3429 C3435 1.390 . S
C3430 H3421 0.930 . S
C3430 C3428 1.384 . S
C3430 C3431 1.372 . S
C3431 C3430 1.372 . S
C3431 C3432 1.400 . S
C3431 C3436 1.490 . S
C3432 H3422 0.930 . S
C3432 C3431 1.400 . S
C3432 C3435 1.386 . S
H3433 C3449 0.930 . S
H3434 C3450 0.931 . S
C3435 H3423 0.929 . S
C3435 C3429 1.390 . S
C3435 C3432 1.386 . S
C3436 C3431 1.490 . S
C3436 C3438 1.395 . S
C3436 C3439 1.403 . S
H3437 C3443 0.930 . S
C3438 H3424 0.930 . S
C3438 C3436 1.395 . S
C3438 C3441 1.384 1_554 S
C3439 C3436 1.403 . S
C3439 C3440 1.524 . S
C3439 C3443 1.400 . S
C3440 H3425 0.960 . S
C3440 H3426 0.960 . S
C3440 H3427 0.960 . S
C3440 C3439 1.524 . S
C3441 C3438 1.384 1_556 S
C3441 C3442 1.391 . S
C3441 C3445 1.519 . S
C3442 C3441 1.391 . S
C3442 C3443 1.382 1_556 S
C3442 C3444 1.480 . S
C3443 H3437 0.930 . S
C3443 C3439 1.400 . S
C3443 C3442 1.382 1_554 S
C3444 C3442 1.480 . S
C3444 C3446 1.381 1_556 S
C3444 C3450 1.383 . S
C3445 C3441 1.519 . S
C3445 H3451 0.959 . S
C3445 H3452 0.961 . S
C3445 H3453 0.960 . S
C3446 C3444 1.381 1_554 S
C3446 C3447 1.394 1_554 S
C3446 H3454 0.930 . S
C3447 C3446 1.394 1_556 S
C3447 C3448 1.383 . S
C3447 H3455 0.929 1_556 S
C3448 C3447 1.383 . S
C3448 C3449 1.377 . S
C3449 H3433 0.930 . S
C3449 C3448 1.377 . S
C3449 C3450 1.379 . S
C3450 H3434 0.931 . S
C3450 C3444 1.383 . S
C3450 C3449 1.379 . S
H3451 C3445 0.959 . S
H3452 C3445 0.961 . S
H3453 C3445 0.960 . S
H3454 C3446 0.930 . S
H3455 C3447 0.929 1_554 S
H3456 C3464 0.929 . S
H3457 C3466 0.930 . S
H3458 C3468 0.930 . S
H3459 C3471 0.929 . S
H3460 C3474 0.930 . S
H3461 C3476 0.960 . S
H3462 C3476 0.960 . S
H3463 C3476 0.960 . S
C3464 H3456 0.929 . S
C3464 C3465 1.377 . S
C3464 C3466 1.384 . S
C3465 C3464 1.377 . S
C3465 C3471 1.390 . S
C3466 H3457 0.930 . S
C3466 C3464 1.384 . S
C3466 C3467 1.372 . S
C3467 C3466 1.372 . S
C3467 C3468 1.400 . S
C3467 C3472 1.490 . S
C3468 H3458 0.930 . S
C3468 C3467 1.400 . S
C3468 C3471 1.386 . S
H3469 C3485 0.930 . S
H3470 C3486 0.931 . S
C3471 H3459 0.929 . S
C3471 C3465 1.390 . S
C3471 C3468 1.386 . S
C3472 C3467 1.490 . S
C3472 C3474 1.395 . S
C3472 C3475 1.403 . S
H3473 C3479 0.930 . S
C3474 H3460 0.930 . S
C3474 C3472 1.395 . S
C3474 C3477 1.403 . S
C3475 C3472 1.403 . S
C3475 C3476 1.524 . S
C3475 C3479 1.400 . S
C3476 H3461 0.960 . S
C3476 H3462 0.960 . S
C3476 H3463 0.960 . S
C3476 C3475 1.524 . S
C3477 C3474 1.403 . S
C3477 C3478 1.392 . S
C3477 C3481 1.495 . S
C3478 C3477 1.392 . S
C3478 C3479 1.385 . S
C3478 C3480 1.478 . S
C3479 H3473 0.930 . S
C3479 C3475 1.400 . S
C3479 C3478 1.385 . S
C3480 C3478 1.478 . S
C3480 C3482 1.381 . S
C3480 C3486 1.383 1_655 S
C3481 C3477 1.495 . S
C3481 H3487 0.959 . S
C3481 H3488 0.961 . S
C3481 H3489 0.960 . S
C3482 C3480 1.381 . S
C3482 C3483 1.394 1_655 S
C3482 H3490 0.930 . S
C3483 C3482 1.394 1_455 S
C3483 C3484 1.383 . S
C3483 H3491 0.929 . S
C3484 C3483 1.383 . S
C3484 C3485 1.377 . S
C3485 H3469 0.930 . S
C3485 C3484 1.377 . S
C3485 C3486 1.379 . S
C3486 H3470 0.931 . S
C3486 C3480 1.383 1_455 S
C3486 C3485 1.379 . S
H3487 C3481 0.959 . S
H3488 C3481 0.961 . S
H3489 C3481 0.960 . S
H3490 C3482 0.930 . S
H3491 C3483 0.929 . S
H3492 C3500 0.929 . S
H3493 C3502 0.930 . S
H3494 C3504 0.930 . S
H3495 C3507 0.929 . S
H3496 C3510 0.930 . S
H3497 C3512 0.960 . S
H3498 C3512 0.960 . S
H3499 C3512 0.960 . S
C3500 H3492 0.929 . S
C3500 C3501 1.377 . S
C3500 C3502 1.384 . S
C3501 C3500 1.377 . S
C3501 C3507 1.390 . S
C3502 H3493 0.930 . S
C3502 C3500 1.384 . S
C3502 C3503 1.372 . S
C3503 C3502 1.372 . S
C3503 C3504 1.400 . S
C3503 C3508 1.490 . S
C3504 H3494 0.930 . S
C3504 C3503 1.400 . S
C3504 C3507 1.386 . S
H3505 C3521 0.930 . S
H3506 C3522 0.931 . S
C3507 H3495 0.929 . S
C3507 C3501 1.390 . S
C3507 C3504 1.386 . S
C3508 C3503 1.490 . S
C3508 C3510 1.395 . S
C3508 C3511 1.403 . S
H3509 C3515 0.930 . S
C3510 H3496 0.930 . S
C3510 C3508 1.395 . S
C3510 C3513 1.403 . S
C3511 C3508 1.403 . S
C3511 C3512 1.524 . S
C3511 C3515 1.400 . S
C3512 H3497 0.960 . S
C3512 H3498 0.960 . S
C3512 H3499 0.960 . S
C3512 C3511 1.524 . S
C3513 C3510 1.403 . S
C3513 C3514 1.392 . S
C3513 C3517 1.495 . S
C3514 C3513 1.392 . S
C3514 C3515 1.385 . S
C3514 C3516 1.478 . S
C3515 H3509 0.930 . S
C3515 C3511 1.400 . S
C3515 C3514 1.385 . S
C3516 C3514 1.478 . S
C3516 C3518 1.381 . S
C3516 C3522 1.383 . S
C3517 C3513 1.495 . S
C3517 H3523 0.959 . S
C3517 H3524 0.961 . S
C3517 H3525 0.960 . S
C3518 C3516 1.381 . S
C3518 C3519 1.394 . S
C3518 H3526 0.930 . S
C3519 C3518 1.394 . S
C3519 C3520 1.383 . S
C3519 H3527 0.929 . S
C3520 C3519 1.383 . S
C3520 C3521 1.377 . S
C3521 H3505 0.930 . S
C3521 C3520 1.377 . S
C3521 C3522 1.379 . S
C3522 H3506 0.931 . S
C3522 C3516 1.383 . S
C3522 C3521 1.379 . S
H3523 C3517 0.959 . S
H3524 C3517 0.961 . S
H3525 C3517 0.960 . S
H3526 C3518 0.930 . S
H3527 C3519 0.929 . S
H3528 C3536 0.929 . S
H3529 C3538 0.930 1_545 S
H3530 C3540 0.929 1_545 S
H3531 C3543 0.929 . S
H3532 C3546 0.930 . S
H3533 C3548 0.960 . S
H3534 C3548 0.960 . S
H3535 C3548 0.960 . S
C3536 H3528 0.929 . S
C3536 C3537 1.377 . S
C3536 C3538 1.384 . S
C3537 C3536 1.377 . S
C3537 C3543 1.390 . S
C3538 H3529 0.930 1_565 S
C3538 C3536 1.384 . S
C3538 C3539 1.372 1_565 S
C3539 C3538 1.372 1_545 S
C3539 C3540 1.400 1_545 S
C3539 C3544 1.490 . S
C3540 H3530 0.929 1_565 S
C3540 C3539 1.400 1_565 S
C3540 C3543 1.386 . S
H3541 C3557 0.930 . S
H3542 C3558 0.931 . S
C3543 H3531 0.929 . S
C3543 C3537 1.390 . S
C3543 C3540 1.386 . S
C3544 C3539 1.490 . S
C3544 C3546 1.395 . S
C3544 C3547 1.403 . S
H3545 C3551 0.930 . S
C3546 H3532 0.930 . S
C3546 C3544 1.395 . S
C3546 C3549 1.403 . S
C3547 C3544 1.403 . S
C3547 C3548 1.524 . S
C3547 C3551 1.400 . S
C3548 H3533 0.960 . S
C3548 H3534 0.960 . S
C3548 H3535 0.960 . S
C3548 C3547 1.524 . S
C3549 C3546 1.403 . S
C3549 C3550 1.392 . S
C3549 C3553 1.495 . S
C3550 C3549 1.392 . S
C3550 C3551 1.385 . S
C3550 C3552 1.478 . S
C3551 H3545 0.930 . S
C3551 C3547 1.400 . S
C3551 C3550 1.385 . S
C3552 C3550 1.478 . S
C3552 C3554 1.381 . S
C3552 C3558 1.383 . S
C3553 C3549 1.495 . S
C3553 H3559 0.959 . S
C3553 H3560 0.961 . S
C3553 H3561 0.960 . S
C3554 C3552 1.381 . S
C3554 C3555 1.394 . S
C3554 H3562 0.930 . S
C3555 C3554 1.394 . S
C3555 C3556 1.383 . S
C3555 H3563 0.929 . S
C3556 C3555 1.383 . S
C3556 C3557 1.377 . S
C3557 H3541 0.930 . S
C3557 C3556 1.377 . S
C3557 C3558 1.379 . S
C3558 H3542 0.931 . S
C3558 C3552 1.383 . S
C3558 C3557 1.379 . S
H3559 C3553 0.959 . S
H3560 C3553 0.961 . S
H3561 C3553 0.960 . S
H3562 C3554 0.930 . S
H3563 C3555 0.929 . S
H3564 C3572 0.929 . S
H3565 C3574 0.930 . S
H3566 C3576 0.930 . S
H3567 C3579 0.929 . S
H3568 C3582 0.930 . S
H3569 C3584 0.960 . S
H3570 C3584 0.960 . S
H3571 C3584 0.960 . S
C3572 H3564 0.929 . S
C3572 C3573 1.377 . S
C3572 C3574 1.384 . S
C3573 C3572 1.377 . S
C3573 C3579 1.390 . S
C3574 H3565 0.930 . S
C3574 C3572 1.384 . S
C3574 C3575 1.372 . S
C3575 C3574 1.372 . S
C3575 C3576 1.400 . S
C3575 C3580 1.490 . S
C3576 H3566 0.930 . S
C3576 C3575 1.400 . S
C3576 C3579 1.386 . S
H3577 C3593 0.930 . S
H3578 C3594 0.931 . S
C3579 H3567 0.929 . S
C3579 C3573 1.390 . S
C3579 C3576 1.386 . S
C3580 C3575 1.490 . S
C3580 C3582 1.395 . S
C3580 C3583 1.403 . S
H3581 C3587 0.930 . S
C3582 H3568 0.930 . S
C3582 C3580 1.395 . S
C3582 C3585 1.403 . S
C3583 C3580 1.403 . S
C3583 C3584 1.524 . S
C3583 C3587 1.400 . S
C3584 H3569 0.960 . S
C3584 H3570 0.960 . S
C3584 H3571 0.960 . S
C3584 C3583 1.524 . S
C3585 C3582 1.403 . S
C3585 C3586 1.392 . S
C3585 C3589 1.495 . S
C3586 C3585 1.392 . S
C3586 C3587 1.385 . S
C3586 C3588 1.478 . S
C3587 H3581 0.930 . S
C3587 C3583 1.400 . S
C3587 C3586 1.385 . S
C3588 C3586 1.478 . S
C3588 C3590 1.381 . S
C3588 C3594 1.383 . S
C3589 C3585 1.495 . S
C3589 H3595 0.959 . S
C3589 H3596 0.961 . S
C3589 H3597 0.960 . S
C3590 C3588 1.381 . S
C3590 C3591 1.394 . S
C3590 H3598 0.930 . S
C3591 C3590 1.394 . S
C3591 C3592 1.383 . S
C3591 H3599 0.929 . S
C3592 C3591 1.383 . S
C3592 C3593 1.377 . S
C3593 H3577 0.930 . S
C3593 C3592 1.377 . S
C3593 C3594 1.379 . S
C3594 H3578 0.931 . S
C3594 C3588 1.383 . S
C3594 C3593 1.379 . S
H3595 C3589 0.959 . S
H3596 C3589 0.961 . S
H3597 C3589 0.960 . S
H3598 C3590 0.930 . S
H3599 C3591 0.929 . S
H3600 C3608 0.929 . S
H3601 C3610 0.930 . S
H3602 C3612 0.930 . S
H3603 C3615 0.929 . S
H3604 C3618 0.930 . S
H3605 C3620 0.960 . S
H3606 C3620 0.960 . S
H3607 C3620 0.960 . S
C3608 H3600 0.929 . S
C3608 C3609 1.377 . S
C3608 C3610 1.384 . S
C3609 C3608 1.377 . S
C3609 C3615 1.390 . S
C3610 H3601 0.930 . S
C3610 C3608 1.384 . S
C3610 C3611 1.372 . S
C3611 C3610 1.372 . S
C3611 C3612 1.400 . S
C3611 C3616 1.490 . S
C3612 H3602 0.930 . S
C3612 C3611 1.400 . S
C3612 C3615 1.386 . S
H3613 C3629 0.930 . S
H3614 C3630 0.931 . S
C3615 H3603 0.929 . S
C3615 C3609 1.390 . S
C3615 C3612 1.386 . S
C3616 C3611 1.490 . S
C3616 C3618 1.395 . S
C3616 C3619 1.403 . S
H3617 C3623 0.930 . S
C3618 H3604 0.930 . S
C3618 C3616 1.395 . S
C3618 C3621 1.403 . S
C3619 C3616 1.403 . S
C3619 C3620 1.524 . S
C3619 C3623 1.400 . S
C3620 H3605 0.960 . S
C3620 H3606 0.960 . S
C3620 H3607 0.960 . S
C3620 C3619 1.524 . S
C3621 C3618 1.403 . S
C3621 C3622 1.392 . S
C3621 C3625 1.495 . S
C3622 C3621 1.392 . S
C3622 C3623 1.385 . S
C3622 C3624 1.478 . S
C3623 H3617 0.930 . S
C3623 C3619 1.400 . S
C3623 C3622 1.385 . S
C3624 C3622 1.478 . S
C3624 C3626 1.381 . S
C3624 C3630 1.383 . S
C3625 C3621 1.495 . S
C3625 H3631 0.959 . S
C3625 H3632 0.961 . S
C3625 H3633 0.960 . S
C3626 C3624 1.381 . S
C3626 C3627 1.394 . S
C3626 H3634 0.930 . S
C3627 C3626 1.394 . S
C3627 C3628 1.383 . S
C3627 H3635 0.929 . S
C3628 C3627 1.383 . S
C3628 C3629 1.377 . S
C3629 H3613 0.930 . S
C3629 C3628 1.377 . S
C3629 C3630 1.379 . S
C3630 H3614 0.931 . S
C3630 C3624 1.383 . S
C3630 C3629 1.379 . S
H3631 C3625 0.959 . S
H3632 C3625 0.961 . S
H3633 C3625 0.960 . S
H3634 C3626 0.930 . S
H3635 C3627 0.929 . S
H3636 C3644 0.929 . S
H3637 C3646 0.930 . S
H3638 C3648 0.930 . S
H3639 C3651 0.929 . S
H3640 C3654 0.930 . S
H3641 C3656 0.960 . S
H3642 C3656 0.960 . S
H3643 C3656 0.960 . S
C3644 H3636 0.929 . S
C3644 C3645 1.377 . S
C3644 C3646 1.384 . S
C3645 C3644 1.377 . S
C3645 C3651 1.390 . S
C3646 H3637 0.930 . S
C3646 C3644 1.384 . S
C3646 C3647 1.372 . S
C3647 C3646 1.372 . S
C3647 C3648 1.400 . S
C3647 C3652 1.490 . S
C3648 H3638 0.930 . S
C3648 C3647 1.400 . S
C3648 C3651 1.386 . S
H3649 C3665 0.930 . S
H3650 C3666 0.931 . S
C3651 H3639 0.929 . S
C3651 C3645 1.390 . S
C3651 C3648 1.386 . S
C3652 C3647 1.490 . S
C3652 C3654 1.395 . S
C3652 C3655 1.403 . S
H3653 C3659 0.930 . S
C3654 H3640 0.930 . S
C3654 C3652 1.395 . S
C3654 C3657 1.403 . S
C3655 C3652 1.403 . S
C3655 C3656 1.524 . S
C3655 C3659 1.400 . S
C3656 H3641 0.960 . S
C3656 H3642 0.960 . S
C3656 H3643 0.960 . S
C3656 C3655 1.524 . S
C3657 C3654 1.403 . S
C3657 C3658 1.392 . S
C3657 C3661 1.495 . S
C3658 C3657 1.392 . S
C3658 C3659 1.385 . S
C3658 C3660 1.478 . S
C3659 H3653 0.930 . S
C3659 C3655 1.400 . S
C3659 C3658 1.385 . S
C3660 C3658 1.478 . S
C3660 C3662 1.381 . S
C3660 C3666 1.383 . S
C3661 C3657 1.495 . S
C3661 H3667 0.959 . S
C3661 H3668 0.961 . S
C3661 H3669 0.960 . S
C3662 C3660 1.381 . S
C3662 C3663 1.394 . S
C3662 H3670 0.930 . S
C3663 C3662 1.394 . S
C3663 C3664 1.383 . S
C3663 H3671 0.929 . S
C3664 C3663 1.383 . S
C3664 C3665 1.377 . S
C3665 H3649 0.930 . S
C3665 C3664 1.377 . S
C3665 C3666 1.379 . S
C3666 H3650 0.931 . S
C3666 C3660 1.383 . S
C3666 C3665 1.379 . S
H3667 C3661 0.959 . S
H3668 C3661 0.961 . S
H3669 C3661 0.960 . S
H3670 C3662 0.930 . S
H3671 C3663 0.929 . S
H3672 C3680 0.929 . S
H3673 C3682 0.930 . S
H3674 C3684 0.930 . S
H3675 C3687 0.929 . S
H3676 C3690 0.930 . S
H3677 C3692 0.960 . S
H3678 C3692 0.960 . S
H3679 C3692 0.960 . S
C3680 H3672 0.929 . S
C3680 C3681 1.377 . S
C3680 C3682 1.384 . S
C3681 C3680 1.377 . S
C3681 C3687 1.390 . S
C3682 H3673 0.930 . S
C3682 C3680 1.384 . S
C3682 C3683 1.372 . S
C3683 C3682 1.372 . S
C3683 C3684 1.400 . S
C3683 C3688 1.490 . S
C3684 H3674 0.930 . S
C3684 C3683 1.400 . S
C3684 C3687 1.386 . S
H3685 C3701 0.930 . S
H3686 C3702 0.931 . S
C3687 H3675 0.929 . S
C3687 C3681 1.390 . S
C3687 C3684 1.386 . S
C3688 C3683 1.490 . S
C3688 C3690 1.395 . S
C3688 C3691 1.403 . S
H3689 C3695 0.930 . S
C3690 H3676 0.930 . S
C3690 C3688 1.395 . S
C3690 C3693 1.403 . S
C3691 C3688 1.403 . S
C3691 C3692 1.524 . S
C3691 C3695 1.400 . S
C3692 H3677 0.960 . S
C3692 H3678 0.960 . S
C3692 H3679 0.960 . S
C3692 C3691 1.524 . S
C3693 C3690 1.403 . S
C3693 C3694 1.392 . S
C3693 C3697 1.495 . S
C3694 C3693 1.392 . S
C3694 C3695 1.385 . S
C3694 C3696 1.478 . S
C3695 H3689 0.930 . S
C3695 C3691 1.400 . S
C3695 C3694 1.385 . S
C3696 C3694 1.478 . S
C3696 C3698 1.381 . S
C3696 C3702 1.383 . S
C3697 C3693 1.495 . S
C3697 H3703 0.959 . S
C3697 H3704 0.961 . S
C3697 H3705 0.960 . S
C3698 C3696 1.381 . S
C3698 C3699 1.394 . S
C3698 H3706 0.930 . S
C3699 C3698 1.394 . S
C3699 C3700 1.383 . S
C3699 H3707 0.929 . S
C3700 C3699 1.383 . S
C3700 C3701 1.377 . S
C3701 H3685 0.930 . S
C3701 C3700 1.377 . S
C3701 C3702 1.379 . S
C3702 H3686 0.931 . S
C3702 C3696 1.383 . S
C3702 C3701 1.379 . S
H3703 C3697 0.959 . S
H3704 C3697 0.961 . S
H3705 C3697 0.960 . S
H3706 C3698 0.930 . S
H3707 C3699 0.929 . S
H3708 C3716 0.929 . S
H3709 C3718 0.930 . S
H3710 C3720 0.930 . S
H3711 C3723 0.929 . S
H3712 C3726 0.930 . S
H3713 C3728 0.960 . S
H3714 C3728 0.960 . S
H3715 C3728 0.960 . S
C3716 H3708 0.929 . S
C3716 C3717 1.377 . S
C3716 C3718 1.384 . S
C3717 C3716 1.377 . S
C3717 C3723 1.390 . S
C3718 H3709 0.930 . S
C3718 C3716 1.384 . S
C3718 C3719 1.372 . S
C3719 C3718 1.372 . S
C3719 C3720 1.400 . S
C3719 C3724 1.490 . S
C3720 H3710 0.930 . S
C3720 C3719 1.400 . S
C3720 C3723 1.386 . S
H3721 C3737 0.930 . S
H3722 C3738 0.931 . S
C3723 H3711 0.929 . S
C3723 C3717 1.390 . S
C3723 C3720 1.386 . S
C3724 C3719 1.490 . S
C3724 C3726 1.395 . S
C3724 C3727 1.403 . S
H3725 C3731 0.930 . S
C3726 H3712 0.930 . S
C3726 C3724 1.395 . S
C3726 C3729 1.403 . S
C3727 C3724 1.403 . S
C3727 C3728 1.524 . S
C3727 C3731 1.400 . S
C3728 H3713 0.960 . S
C3728 H3714 0.960 . S
C3728 H3715 0.960 . S
C3728 C3727 1.524 . S
C3729 C3726 1.403 . S
C3729 C3730 1.392 . S
C3729 C3733 1.495 . S
C3730 C3729 1.392 . S
C3730 C3731 1.385 . S
C3730 C3732 1.478 . S
C3731 H3725 0.930 . S
C3731 C3727 1.400 . S
C3731 C3730 1.385 . S
C3732 C3730 1.478 . S
C3732 C3734 1.381 . S
C3732 C3738 1.383 . S
C3733 C3729 1.495 . S
C3733 H3739 0.959 . S
C3733 H3740 0.961 . S
C3733 H3741 0.960 . S
C3734 C3732 1.381 . S
C3734 C3735 1.394 . S
C3734 H3742 0.930 . S
C3735 C3734 1.394 . S
C3735 C3736 1.383 . S
C3735 H3743 0.929 . S
C3736 C3735 1.383 . S
C3736 C3737 1.377 . S
C3737 H3721 0.930 . S
C3737 C3736 1.377 . S
C3737 C3738 1.379 . S
C3738 H3722 0.931 . S
C3738 C3732 1.383 . S
C3738 C3737 1.379 . S
H3739 C3733 0.959 . S
H3740 C3733 0.961 . S
H3741 C3733 0.960 . S
H3742 C3734 0.930 . S
H3743 C3735 0.929 . S
H3744 C3752 0.929 . S
H3745 C3754 0.930 . S
H3746 C3756 0.930 . S
H3747 C3759 0.929 . S
H3748 C3762 0.930 . S
H3749 C3764 0.960 . S
H3750 C3764 0.960 . S
H3751 C3764 0.960 . S
C3752 H3744 0.929 . S
C3752 C3753 1.377 . S
C3752 C3754 1.384 . S
C3753 C3752 1.377 . S
C3753 C3759 1.390 . S
C3754 H3745 0.930 . S
C3754 C3752 1.384 . S
C3754 C3755 1.372 . S
C3755 C3754 1.372 . S
C3755 C3756 1.400 . S
C3755 C3760 1.490 . S
C3756 H3746 0.930 . S
C3756 C3755 1.400 . S
C3756 C3759 1.386 . S
H3757 C3773 0.930 . S
H3758 C3774 0.931 . S
C3759 H3747 0.929 . S
C3759 C3753 1.390 . S
C3759 C3756 1.386 . S
C3760 C3755 1.490 . S
C3760 C3762 1.395 . S
C3760 C3763 1.403 . S
H3761 C3767 0.930 . S
C3762 H3748 0.930 . S
C3762 C3760 1.395 . S
C3762 C3765 1.403 . S
C3763 C3760 1.403 . S
C3763 C3764 1.524 . S
C3763 C3767 1.400 . S
C3764 H3749 0.960 . S
C3764 H3750 0.960 . S
C3764 H3751 0.960 . S
C3764 C3763 1.524 . S
C3765 C3762 1.403 . S
C3765 C3766 1.392 . S
C3765 C3769 1.495 . S
C3766 C3765 1.392 . S
C3766 C3767 1.385 . S
C3766 C3768 1.478 . S
C3767 H3761 0.930 . S
C3767 C3763 1.400 . S
C3767 C3766 1.385 . S
C3768 C3766 1.478 . S
C3768 C3770 1.381 . S
C3768 C3774 1.383 . S
C3769 C3765 1.495 . S
C3769 H3775 0.959 . S
C3769 H3776 0.961 . S
C3769 H3777 0.960 . S
C3770 C3768 1.381 . S
C3770 C3771 1.394 . S
C3770 H3778 0.930 . S
C3771 C3770 1.394 . S
C3771 C3772 1.383 . S
C3771 H3779 0.929 . S
C3772 C3771 1.383 . S
C3772 C3773 1.377 . S
C3773 H3757 0.930 . S
C3773 C3772 1.377 . S
C3773 C3774 1.379 . S
C3774 H3758 0.931 . S
C3774 C3768 1.383 . S
C3774 C3773 1.379 . S
H3775 C3769 0.959 . S
H3776 C3769 0.961 . S
H3777 C3769 0.960 . S
H3778 C3770 0.930 . S
H3779 C3771 0.929 . S
H3780 C3788 0.929 . S
H3781 C3790 0.930 . S
H3782 C3792 0.930 . S
H3783 C3795 0.929 . S
H3784 C3798 0.930 . S
H3785 C3800 0.960 . S
H3786 C3800 0.960 . S
H3787 C3800 0.960 . S
C3788 H3780 0.929 . S
C3788 C3789 1.377 . S
C3788 C3790 1.384 . S
C3789 C3788 1.377 . S
C3789 C3795 1.390 . S
C3790 H3781 0.930 . S
C3790 C3788 1.384 . S
C3790 C3791 1.372 . S
C3791 C3790 1.372 . S
C3791 C3792 1.400 . S
C3791 C3796 1.490 . S
C3792 H3782 0.930 . S
C3792 C3791 1.400 . S
C3792 C3795 1.386 . S
H3793 C3809 0.930 . S
H3794 C3810 0.931 . S
C3795 H3783 0.929 . S
C3795 C3789 1.390 . S
C3795 C3792 1.386 . S
C3796 C3791 1.490 . S
C3796 C3798 1.395 . S
C3796 C3799 1.403 . S
H3797 C3803 0.930 . S
C3798 H3784 0.930 . S
C3798 C3796 1.395 . S
C3798 C3801 1.403 . S
C3799 C3796 1.403 . S
C3799 C3800 1.524 . S
C3799 C3803 1.400 . S
C3800 H3785 0.960 . S
C3800 H3786 0.960 . S
C3800 H3787 0.960 . S
C3800 C3799 1.524 . S
C3801 C3798 1.403 . S
C3801 C3802 1.392 . S
C3801 C3805 1.495 . S
C3802 C3801 1.392 . S
C3802 C3803 1.385 . S
C3802 C3804 1.478 . S
C3803 H3797 0.930 . S
C3803 C3799 1.400 . S
C3803 C3802 1.385 . S
C3804 C3802 1.478 . S
C3804 C3806 1.381 . S
C3804 C3810 1.383 . S
C3805 C3801 1.495 . S
C3805 H3811 0.959 . S
C3805 H3812 0.961 . S
C3805 H3813 0.960 . S
C3806 C3804 1.381 . S
C3806 C3807 1.394 . S
C3806 H3814 0.930 . S
C3807 C3806 1.394 . S
C3807 C3808 1.383 . S
C3807 H3815 0.929 . S
C3808 C3807 1.383 . S
C3808 C3809 1.377 . S
C3809 H3793 0.930 . S
C3809 C3808 1.377 . S
C3809 C3810 1.379 . S
C3810 H3794 0.931 . S
C3810 C3804 1.383 . S
C3810 C3809 1.379 . S
H3811 C3805 0.959 . S
H3812 C3805 0.961 . S
H3813 C3805 0.960 . S
H3814 C3806 0.930 . S
H3815 C3807 0.929 . S
H3816 C3824 0.929 . S
H3817 C3826 0.930 . S
H3818 C3828 0.930 . S
H3819 C3831 0.929 . S
H3820 C3834 0.930 . S
H3821 C3836 0.960 . S
H3822 C3836 0.960 . S
H3823 C3836 0.960 . S
C3824 H3816 0.929 . S
C3824 C3825 1.377 . S
C3824 C3826 1.384 . S
C3825 C3824 1.377 . S
C3825 C3831 1.390 . S
C3826 H3817 0.930 . S
C3826 C3824 1.384 . S
C3826 C3827 1.372 . S
C3827 C3826 1.372 . S
C3827 C3828 1.400 . S
C3827 C3832 1.490 . S
C3828 H3818 0.930 . S
C3828 C3827 1.400 . S
C3828 C3831 1.386 . S
H3829 C3845 0.930 . S
H3830 C3846 0.931 . S
C3831 H3819 0.929 . S
C3831 C3825 1.390 . S
C3831 C3828 1.386 . S
C3832 C3827 1.490 . S
C3832 C3834 1.395 . S
C3832 C3835 1.403 . S
H3833 C3839 0.930 . S
C3834 H3820 0.930 . S
C3834 C3832 1.395 . S
C3834 C3837 1.403 . S
C3835 C3832 1.403 . S
C3835 C3836 1.524 . S
C3835 C3839 1.400 . S
C3836 H3821 0.960 . S
C3836 H3822 0.960 . S
C3836 H3823 0.960 . S
C3836 C3835 1.524 . S
C3837 C3834 1.403 . S
C3837 C3838 1.392 . S
C3837 C3841 1.495 . S
C3838 C3837 1.392 . S
C3838 C3839 1.385 . S
C3838 C3840 1.478 . S
C3839 H3833 0.930 . S
C3839 C3835 1.400 . S
C3839 C3838 1.385 . S
C3840 C3838 1.478 . S
C3840 C3842 1.381 . S
C3840 C3846 1.383 . S
C3841 C3837 1.495 . S
C3841 H3847 0.959 . S
C3841 H3848 0.961 . S
C3841 H3849 0.960 . S
C3842 C3840 1.381 . S
C3842 C3843 1.394 . S
C3842 H3850 0.930 . S
C3843 C3842 1.394 . S
C3843 C3844 1.383 . S
C3843 H3851 0.929 . S
C3844 C3843 1.383 . S
C3844 C3845 1.377 . S
C3845 H3829 0.930 . S
C3845 C3844 1.377 . S
C3845 C3846 1.379 . S
C3846 H3830 0.931 . S
C3846 C3840 1.383 . S
C3846 C3845 1.379 . S
H3847 C3841 0.959 . S
H3848 C3841 0.961 . S
H3849 C3841 0.960 . S
H3850 C3842 0.930 . S
H3851 C3843 0.929 . S
H3852 C3860 0.929 . S
H3853 C3862 0.930 . S
H3854 C3864 0.930 . S
H3855 C3867 0.929 . S
H3856 C3870 0.930 . S
H3857 C3872 0.960 . S
H3858 C3872 0.960 . S
H3859 C3872 0.960 . S
C3860 H3852 0.929 . S
C3860 C3861 1.377 . S
C3860 C3862 1.384 . S
C3861 C3860 1.377 . S
C3861 C3867 1.390 . S
C3862 H3853 0.930 . S
C3862 C3860 1.384 . S
C3862 C3863 1.372 . S
C3863 C3862 1.372 . S
C3863 C3864 1.400 . S
C3863 C3868 1.490 . S
C3864 H3854 0.930 . S
C3864 C3863 1.400 . S
C3864 C3867 1.386 . S
H3865 C3881 0.930 . S
H3866 C3882 0.931 . S
C3867 H3855 0.929 . S
C3867 C3861 1.390 . S
C3867 C3864 1.386 . S
C3868 C3863 1.490 . S
C3868 C3870 1.395 . S
C3868 C3871 1.403 . S
H3869 C3875 0.930 . S
C3870 H3856 0.930 . S
C3870 C3868 1.395 . S
C3870 C3873 1.403 . S
C3871 C3868 1.403 . S
C3871 C3872 1.524 . S
C3871 C3875 1.400 . S
C3872 H3857 0.960 . S
C3872 H3858 0.960 . S
C3872 H3859 0.960 . S
C3872 C3871 1.524 . S
C3873 C3870 1.403 . S
C3873 C3874 1.392 . S
C3873 C3877 1.495 . S
C3874 C3873 1.392 . S
C3874 C3875 1.385 . S
C3874 C3876 1.478 . S
C3875 H3869 0.930 . S
C3875 C3871 1.400 . S
C3875 C3874 1.385 . S
C3876 C3874 1.478 . S
C3876 C3878 1.381 . S
C3876 C3882 1.383 . S
C3877 C3873 1.495 . S
C3877 H3883 0.959 . S
C3877 H3884 0.961 . S
C3877 H3885 0.960 . S
C3878 C3876 1.381 . S
C3878 C3879 1.394 . S
C3878 H3886 0.930 . S
C3879 C3878 1.394 . S
C3879 C3880 1.383 . S
C3879 H3887 0.929 . S
C3880 C3879 1.383 . S
C3880 C3881 1.377 . S
C3881 H3865 0.930 . S
C3881 C3880 1.377 . S
C3881 C3882 1.379 . S
C3882 H3866 0.931 . S
C3882 C3876 1.383 . S
C3882 C3881 1.379 . S
H3883 C3877 0.959 . S
H3884 C3877 0.961 . S
H3885 C3877 0.960 . S
H3886 C3878 0.930 . S
H3887 C3879 0.929 . S
H3888 C3896 0.929 . S
H3889 C3898 0.930 . S
H3890 C3900 0.930 . S
H3891 C3903 0.929 . S
H3892 C3906 0.930 . S
H3893 C3908 0.960 . S
H3894 C3908 0.960 . S
H3895 C3908 0.960 . S
C3896 H3888 0.929 . S
C3896 C3897 1.377 . S
C3896 C3898 1.384 . S
C3897 C3896 1.377 . S
C3897 C3903 1.390 . S
C3898 H3889 0.930 . S
C3898 C3896 1.384 . S
C3898 C3899 1.372 . S
C3899 C3898 1.372 . S
C3899 C3900 1.400 . S
C3899 C3904 1.490 . S
C3900 H3890 0.930 . S
C3900 C3899 1.400 . S
C3900 C3903 1.386 . S
H3901 C3917 0.930 . S
H3902 C3918 0.931 . S
C3903 H3891 0.929 . S
C3903 C3897 1.390 . S
C3903 C3900 1.386 . S
C3904 C3899 1.490 . S
C3904 C3906 1.395 . S
C3904 C3907 1.403 . S
H3905 C3911 0.930 . S
C3906 H3892 0.930 . S
C3906 C3904 1.395 . S
C3906 C3909 1.403 . S
C3907 C3904 1.403 . S
C3907 C3908 1.524 . S
C3907 C3911 1.400 . S
C3908 H3893 0.960 . S
C3908 H3894 0.960 . S
C3908 H3895 0.960 . S
C3908 C3907 1.524 . S
C3909 C3906 1.403 . S
C3909 C3910 1.392 . S
C3909 C3913 1.495 . S
C3910 C3909 1.392 . S
C3910 C3911 1.385 . S
C3910 C3912 1.478 . S
C3911 H3905 0.930 . S
C3911 C3907 1.400 . S
C3911 C3910 1.385 . S
C3912 C3910 1.478 . S
C3912 C3914 1.381 . S
C3912 C3918 1.383 . S
C3913 C3909 1.495 . S
C3913 H3919 0.959 . S
C3913 H3920 0.961 . S
C3913 H3921 0.960 . S
C3914 C3912 1.381 . S
C3914 C3915 1.394 . S
C3914 H3922 0.930 . S
C3915 C3914 1.394 . S
C3915 C3916 1.383 . S
C3915 H3923 0.929 . S
C3916 C3915 1.383 . S
C3916 C3917 1.377 . S
C3917 H3901 0.930 . S
C3917 C3916 1.377 . S
C3917 C3918 1.379 . S
C3918 H3902 0.931 . S
C3918 C3912 1.383 . S
C3918 C3917 1.379 . S
H3919 C3913 0.959 . S
H3920 C3913 0.961 . S
H3921 C3913 0.960 . S
H3922 C3914 0.930 . S
H3923 C3915 0.929 . S
H3924 C3932 0.929 . S
H3925 C3934 0.930 . S
H3926 C3936 0.930 . S
H3927 C3939 0.929 . S
H3928 C3942 0.930 . S
H3929 C3944 0.960 . S
H3930 C3944 0.960 . S
H3931 C3944 0.960 . S
C3932 H3924 0.929 . S
C3932 C3933 1.377 . S
C3932 C3934 1.384 . S
C3933 C3932 1.377 . S
C3933 C3939 1.390 . S
C3934 H3925 0.930 . S
C3934 C3932 1.384 . S
C3934 C3935 1.372 . S
C3935 C3934 1.372 . S
C3935 C3936 1.400 . S
C3935 C3940 1.490 . S
C3936 H3926 0.930 . S
C3936 C3935 1.400 . S
C3936 C3939 1.386 . S
H3937 C3953 0.930 . S
H3938 C3954 0.931 . S
C3939 H3927 0.929 . S
C3939 C3933 1.390 . S
C3939 C3936 1.386 . S
C3940 C3935 1.490 . S
C3940 C3942 1.395 . S
C3940 C3943 1.403 . S
H3941 C3947 0.930 . S
C3942 H3928 0.930 . S
C3942 C3940 1.395 . S
C3942 C3945 1.403 . S
C3943 C3940 1.403 . S
C3943 C3944 1.524 . S
C3943 C3947 1.400 . S
C3944 H3929 0.960 . S
C3944 H3930 0.960 . S
C3944 H3931 0.960 . S
C3944 C3943 1.524 . S
C3945 C3942 1.403 . S
C3945 C3946 1.392 . S
C3945 C3949 1.495 . S
C3946 C3945 1.392 . S
C3946 C3947 1.385 . S
C3946 C3948 1.478 . S
C3947 H3941 0.930 . S
C3947 C3943 1.400 . S
C3947 C3946 1.385 . S
C3948 C3946 1.478 . S
C3948 C3950 1.381 . S
C3948 C3954 1.383 . S
C3949 C3945 1.495 . S
C3949 H3955 0.959 . S
C3949 H3956 0.961 . S
C3949 H3957 0.960 . S
C3950 C3948 1.381 . S
C3950 C3951 1.394 . S
C3950 H3958 0.930 . S
C3951 C3950 1.394 . S
C3951 C3952 1.383 . S
C3951 H3959 0.929 . S
C3952 C3951 1.383 . S
C3952 C3953 1.377 . S
C3953 H3937 0.930 . S
C3953 C3952 1.377 . S
C3953 C3954 1.379 . S
C3954 H3938 0.931 . S
C3954 C3948 1.383 . S
C3954 C3953 1.379 . S
H3955 C3949 0.959 . S
H3956 C3949 0.961 . S
H3957 C3949 0.960 . S
H3958 C3950 0.930 . S
H3959 C3951 0.929 . S
H3960 C3968 0.929 . S
H3961 C3970 0.930 . S
H3962 C3972 0.930 . S
H3963 C3975 0.929 . S
H3964 C3978 0.930 . S
H3965 C3980 0.960 . S
H3966 C3980 0.960 . S
H3967 C3980 0.960 . S
C3968 H3960 0.929 . S
C3968 C3969 1.377 . S
C3968 C3970 1.384 . S
C3969 C3968 1.377 . S
C3969 C3975 1.390 . S
C3970 H3961 0.930 . S
C3970 C3968 1.384 . S
C3970 C3971 1.372 . S
C3971 C3970 1.372 . S
C3971 C3972 1.400 . S
C3971 C3976 1.490 . S
C3972 H3962 0.930 . S
C3972 C3971 1.400 . S
C3972 C3975 1.386 . S
H3973 C3989 0.930 . S
H3974 C3990 0.931 . S
C3975 H3963 0.929 . S
C3975 C3969 1.390 . S
C3975 C3972 1.386 . S
C3976 C3971 1.490 . S
C3976 C3978 1.395 . S
C3976 C3979 1.403 . S
H3977 C3983 0.930 . S
C3978 H3964 0.930 . S
C3978 C3976 1.395 . S
C3978 C3981 1.403 . S
C3979 C3976 1.403 . S
C3979 C3980 1.524 . S
C3979 C3983 1.400 . S
C3980 H3965 0.960 . S
C3980 H3966 0.960 . S
C3980 H3967 0.960 . S
C3980 C3979 1.524 . S
C3981 C3978 1.403 . S
C3981 C3982 1.392 . S
C3981 C3985 1.495 . S
C3982 C3981 1.392 . S
C3982 C3983 1.385 . S
C3982 C3984 1.478 . S
C3983 H3977 0.930 . S
C3983 C3979 1.400 . S
C3983 C3982 1.385 . S
C3984 C3982 1.478 . S
C3984 C3986 1.381 . S
C3984 C3990 1.383 . S
C3985 C3981 1.495 . S
C3985 H3991 0.959 . S
C3985 H3992 0.961 . S
C3985 H3993 0.960 . S
C3986 C3984 1.381 . S
C3986 C3987 1.394 . S
C3986 H3994 0.930 . S
C3987 C3986 1.394 . S
C3987 C3988 1.383 . S
C3987 H3995 0.929 . S
C3988 C3987 1.383 . S
C3988 C3989 1.377 . S
C3989 H3973 0.930 . S
C3989 C3988 1.377 . S
C3989 C3990 1.379 . S
C3990 H3974 0.931 . S
C3990 C3984 1.383 . S
C3990 C3989 1.379 . S
H3991 C3985 0.959 . S
H3992 C3985 0.961 . S
H3993 C3985 0.960 . S
H3994 C3986 0.930 . S
H3995 C3987 0.929 . S
H3996 C4004 0.929 . S
H3997 C4006 0.930 . S
H3998 C4008 0.930 . S
H3999 C4011 0.929 . S
H4000 C4014 0.930 . S
H4001 C4016 0.960 . S
H4002 C4016 0.960 . S
H4003 C4016 0.960 . S
C4004 H3996 0.929 . S
C4004 C4005 1.377 . S
C4004 C4006 1.384 . S
C4005 C4004 1.377 . S
C4005 C4011 1.390 . S
C4006 H3997 0.930 . S
C4006 C4004 1.384 . S
C4006 C4007 1.372 . S
C4007 C4006 1.372 . S
C4007 C4008 1.400 . S
C4007 C4012 1.490 . S
C4008 H3998 0.930 . S
C4008 C4007 1.400 . S
C4008 C4011 1.386 . S
H4009 C4025 0.930 . S
H4010 C4026 0.931 . S
C4011 H3999 0.929 . S
C4011 C4005 1.390 . S
C4011 C4008 1.386 . S
C4012 C4007 1.490 . S
C4012 C4014 1.395 . S
C4012 C4015 1.403 . S
H4013 C4019 0.930 . S
C4014 H4000 0.930 . S
C4014 C4012 1.395 . S
C4014 C4017 1.403 . S
C4015 C4012 1.403 . S
C4015 C4016 1.524 . S
C4015 C4019 1.400 . S
C4016 H4001 0.960 . S
C4016 H4002 0.960 . S
C4016 H4003 0.960 . S
C4016 C4015 1.524 . S
C4017 C4014 1.403 . S
C4017 C4018 1.392 . S
C4017 C4021 1.495 . S
C4018 C4017 1.392 . S
C4018 C4019 1.385 . S
C4018 C4020 1.478 . S
C4019 H4013 0.930 . S
C4019 C4015 1.400 . S
C4019 C4018 1.385 . S
C4020 C4018 1.478 . S
C4020 C4022 1.381 . S
C4020 C4026 1.383 . S
C4021 C4017 1.495 . S
C4021 H4027 0.959 . S
C4021 H4028 0.961 . S
C4021 H4029 0.960 . S
C4022 C4020 1.381 . S
C4022 C4023 1.394 . S
C4022 H4030 0.930 . S
C4023 C4022 1.394 . S
C4023 C4024 1.383 . S
C4023 H4031 0.929 . S
C4024 C4023 1.383 . S
C4024 C4025 1.377 . S
C4025 H4009 0.930 . S
C4025 C4024 1.377 . S
C4025 C4026 1.379 . S
C4026 H4010 0.931 . S
C4026 C4020 1.383 . S
C4026 C4025 1.379 . S
H4027 C4021 0.959 . S
H4028 C4021 0.961 . S
H4029 C4021 0.960 . S
H4030 C4022 0.930 . S
H4031 C4023 0.929 . S
H4032 C4040 0.929 . S
H4033 C4042 0.930 . S
H4034 C4044 0.930 . S
H4035 C4047 0.929 . S
H4036 C4050 0.930 . S
H4037 C4052 0.960 . S
H4038 C4052 0.960 . S
H4039 C4052 0.960 . S
C4040 H4032 0.929 . S
C4040 C4041 1.377 . S
C4040 C4042 1.384 . S
C4041 C4040 1.377 . S
C4041 C4047 1.390 . S
C4042 H4033 0.930 . S
C4042 C4040 1.384 . S
C4042 C4043 1.372 . S
C4043 C4042 1.372 . S
C4043 C4044 1.400 . S
C4043 C4048 1.490 . S
C4044 H4034 0.930 . S
C4044 C4043 1.400 . S
C4044 C4047 1.386 . S
H4045 C4061 0.930 . S
H4046 C4062 0.931 . S
C4047 H4035 0.929 . S
C4047 C4041 1.390 . S
C4047 C4044 1.386 . S
C4048 C4043 1.490 . S
C4048 C4050 1.395 . S
C4048 C4051 1.403 . S
H4049 C4055 0.930 . S
C4050 H4036 0.930 . S
C4050 C4048 1.395 . S
C4050 C4053 1.403 . S
C4051 C4048 1.403 . S
C4051 C4052 1.524 . S
C4051 C4055 1.400 . S
C4052 H4037 0.960 . S
C4052 H4038 0.960 . S
C4052 H4039 0.960 . S
C4052 C4051 1.524 . S
C4053 C4050 1.403 . S
C4053 C4054 1.392 . S
C4053 C4057 1.495 . S
C4054 C4053 1.392 . S
C4054 C4055 1.385 . S
C4054 C4056 1.478 . S
C4055 H4049 0.930 . S
C4055 C4051 1.400 . S
C4055 C4054 1.385 . S
C4056 C4054 1.478 . S
C4056 C4058 1.381 . S
C4056 C4062 1.383 . S
C4057 C4053 1.495 . S
C4057 H4063 0.959 . S
C4057 H4064 0.961 . S
C4057 H4065 0.960 . S
C4058 C4056 1.381 . S
C4058 C4059 1.394 . S
C4058 H4066 0.930 . S
C4059 C4058 1.394 . S
C4059 C4060 1.383 . S
C4059 H4067 0.929 . S
C4060 C4059 1.383 . S
C4060 C4061 1.377 . S
C4061 H4045 0.930 . S
C4061 C4060 1.377 . S
C4061 C4062 1.379 . S
C4062 H4046 0.931 . S
C4062 C4056 1.383 . S
C4062 C4061 1.379 . S
H4063 C4057 0.959 . S
H4064 C4057 0.961 . S
H4065 C4057 0.960 . S
H4066 C4058 0.930 . S
H4067 C4059 0.929 . S
H4068 C4076 0.929 . S
H4069 C4078 0.930 . S
H4070 C4080 0.930 . S
H4071 C4083 0.929 . S
H4072 C4086 0.930 . S
H4073 C4088 0.960 . S
H4074 C4088 0.960 . S
H4075 C4088 0.960 . S
C4076 H4068 0.929 . S
C4076 C4077 1.377 . S
C4076 C4078 1.384 . S
C4077 C4076 1.377 . S
C4077 C4083 1.390 . S
C4078 H4069 0.930 . S
C4078 C4076 1.384 . S
C4078 C4079 1.372 . S
C4079 C4078 1.372 . S
C4079 C4080 1.400 . S
C4079 C4084 1.490 . S
C4080 H4070 0.930 . S
C4080 C4079 1.400 . S
C4080 C4083 1.386 . S
H4081 C4097 0.930 . S
H4082 C4098 0.931 . S
C4083 H4071 0.929 . S
C4083 C4077 1.390 . S
C4083 C4080 1.386 . S
C4084 C4079 1.490 . S
C4084 C4086 1.395 . S
C4084 C4087 1.403 . S
H4085 C4091 0.930 . S
C4086 H4072 0.930 . S
C4086 C4084 1.395 . S
C4086 C4089 1.403 . S
C4087 C4084 1.403 . S
C4087 C4088 1.524 . S
C4087 C4091 1.400 . S
C4088 H4073 0.960 . S
C4088 H4074 0.960 . S
C4088 H4075 0.960 . S
C4088 C4087 1.524 . S
C4089 C4086 1.403 . S
C4089 C4090 1.392 . S
C4089 C4093 1.495 . S
C4090 C4089 1.392 . S
C4090 C4091 1.385 . S
C4090 C4092 1.478 . S
C4091 H4085 0.930 . S
C4091 C4087 1.400 . S
C4091 C4090 1.385 . S
C4092 C4090 1.478 . S
C4092 C4094 1.381 . S
C4092 C4098 1.383 . S
C4093 C4089 1.495 . S
C4093 H4099 0.959 . S
C4093 H4100 0.961 . S
C4093 H4101 0.960 . S
C4094 C4092 1.381 . S
C4094 C4095 1.394 . S
C4094 H4102 0.930 . S
C4095 C4094 1.394 . S
C4095 C4096 1.383 . S
C4095 H4103 0.929 . S
C4096 C4095 1.383 . S
C4096 C4097 1.377 . S
C4097 H4081 0.930 . S
C4097 C4096 1.377 . S
C4097 C4098 1.379 . S
C4098 H4082 0.931 . S
C4098 C4092 1.383 . S
C4098 C4097 1.379 . S
H4099 C4093 0.959 . S
H4100 C4093 0.961 . S
H4101 C4093 0.960 . S
H4102 C4094 0.930 . S
H4103 C4095 0.929 . S
H4104 C4112 0.929 . S
H4105 C4114 0.930 . S
H4106 C4116 0.930 . S
H4107 C4119 0.929 . S
H4108 C4122 0.930 . S
H4109 C4124 0.960 . S
H4110 C4124 0.960 . S
H4111 C4124 0.960 . S
C4112 H4104 0.929 . S
C4112 C4113 1.377 . S
C4112 C4114 1.384 . S
C4113 C4112 1.377 . S
C4113 C4119 1.390 . S
C4114 H4105 0.930 . S
C4114 C4112 1.384 . S
C4114 C4115 1.372 . S
C4115 C4114 1.372 . S
C4115 C4116 1.400 . S
C4115 C4120 1.490 . S
C4116 H4106 0.930 . S
C4116 C4115 1.400 . S
C4116 C4119 1.386 . S
H4117 C4133 0.930 . S
H4118 C4134 0.931 . S
C4119 H4107 0.929 . S
C4119 C4113 1.390 . S
C4119 C4116 1.386 . S
C4120 C4115 1.490 . S
C4120 C4122 1.395 . S
C4120 C4123 1.403 . S
H4121 C4127 0.930 . S
C4122 H4108 0.930 . S
C4122 C4120 1.395 . S
C4122 C4125 1.403 . S
C4123 C4120 1.403 . S
C4123 C4124 1.524 . S
C4123 C4127 1.400 . S
C4124 H4109 0.960 . S
C4124 H4110 0.960 . S
C4124 H4111 0.960 . S
C4124 C4123 1.524 . S
C4125 C4122 1.403 . S
C4125 C4126 1.392 . S
C4125 C4129 1.495 . S
C4126 C4125 1.392 . S
C4126 C4127 1.385 . S
C4126 C4128 1.478 . S
C4127 H4121 0.930 . S
C4127 C4123 1.400 . S
C4127 C4126 1.385 . S
C4128 C4126 1.478 . S
C4128 C4130 1.381 . S
C4128 C4134 1.383 . S
C4129 C4125 1.495 . S
C4129 H4135 0.959 . S
C4129 H4136 0.961 . S
C4129 H4137 0.960 . S
C4130 C4128 1.381 . S
C4130 C4131 1.394 . S
C4130 H4138 0.930 . S
C4131 C4130 1.394 . S
C4131 C4132 1.383 . S
C4131 H4139 0.929 . S
C4132 C4131 1.383 . S
C4132 C4133 1.377 . S
C4133 H4117 0.930 . S
C4133 C4132 1.377 . S
C4133 C4134 1.379 . S
C4134 H4118 0.931 . S
C4134 C4128 1.383 . S
C4134 C4133 1.379 . S
H4135 C4129 0.959 . S
H4136 C4129 0.961 . S
H4137 C4129 0.960 . S
H4138 C4130 0.930 . S
H4139 C4131 0.929 . S
H4140 C4148 0.929 . S
H4141 C4150 0.930 . S
H4142 C4152 0.930 . S
H4143 C4155 0.929 . S
H4144 C4158 0.930 . S
H4145 C4160 0.960 . S
H4146 C4160 0.960 . S
H4147 C4160 0.960 . S
C4148 H4140 0.929 . S
C4148 C4149 1.377 . S
C4148 C4150 1.384 . S
C4149 C4148 1.377 . S
C4149 C4155 1.390 . S
C4150 H4141 0.930 . S
C4150 C4148 1.384 . S
C4150 C4151 1.372 . S
C4151 C4150 1.372 . S
C4151 C4152 1.400 . S
C4151 C4156 1.490 . S
C4152 H4142 0.930 . S
C4152 C4151 1.400 . S
C4152 C4155 1.386 . S
H4153 C4169 0.930 . S
H4154 C4170 0.931 . S
C4155 H4143 0.929 . S
C4155 C4149 1.390 . S
C4155 C4152 1.386 . S
C4156 C4151 1.490 . S
C4156 C4158 1.395 . S
C4156 C4159 1.403 . S
H4157 C4163 0.930 . S
C4158 H4144 0.930 . S
C4158 C4156 1.395 . S
C4158 C4161 1.403 . S
C4159 C4156 1.403 . S
C4159 C4160 1.524 . S
C4159 C4163 1.400 . S
C4160 H4145 0.960 . S
C4160 H4146 0.960 . S
C4160 H4147 0.960 . S
C4160 C4159 1.524 . S
C4161 C4158 1.403 . S
C4161 C4162 1.392 . S
C4161 C4165 1.495 . S
C4162 C4161 1.392 . S
C4162 C4163 1.385 . S
C4162 C4164 1.478 . S
C4163 H4157 0.930 . S
C4163 C4159 1.400 . S
C4163 C4162 1.385 . S
C4164 C4162 1.478 . S
C4164 C4166 1.381 . S
C4164 C4170 1.383 . S
C4165 C4161 1.495 . S
C4165 H4171 0.959 . S
C4165 H4172 0.961 . S
C4165 H4173 0.960 . S
C4166 C4164 1.381 . S
C4166 C4167 1.394 . S
C4166 H4174 0.930 . S
C4167 C4166 1.394 . S
C4167 C4168 1.383 . S
C4167 H4175 0.929 . S
C4168 C4167 1.383 . S
C4168 C4169 1.377 . S
C4169 H4153 0.930 . S
C4169 C4168 1.377 . S
C4169 C4170 1.379 . S
C4170 H4154 0.931 . S
C4170 C4164 1.383 . S
C4170 C4169 1.379 . S
H4171 C4165 0.959 . S
H4172 C4165 0.961 . S
H4173 C4165 0.960 . S
H4174 C4166 0.930 . S
H4175 C4167 0.929 . S
H4176 C4184 0.929 . S
H4177 C4186 0.930 . S
H4178 C4188 0.930 . S
H4179 C4191 0.929 . S
H4180 C4194 0.930 . S
H4181 C4196 0.960 . S
H4182 C4196 0.960 . S
H4183 C4196 0.960 . S
C4184 H4176 0.929 . S
C4184 C4185 1.377 . S
C4184 C4186 1.384 . S
C4185 C4184 1.377 . S
C4185 C4191 1.390 . S
C4186 H4177 0.930 . S
C4186 C4184 1.384 . S
C4186 C4187 1.372 . S
C4187 C4186 1.372 . S
C4187 C4188 1.400 . S
C4187 C4192 1.490 . S
C4188 H4178 0.930 . S
C4188 C4187 1.400 . S
C4188 C4191 1.386 . S
H4189 C4205 0.930 . S
H4190 C4206 0.931 . S
C4191 H4179 0.929 . S
C4191 C4185 1.390 . S
C4191 C4188 1.386 . S
C4192 C4187 1.490 . S
C4192 C4194 1.395 . S
C4192 C4195 1.403 . S
H4193 C4199 0.930 . S
C4194 H4180 0.930 . S
C4194 C4192 1.395 . S
C4194 C4197 1.403 . S
C4195 C4192 1.403 . S
C4195 C4196 1.524 . S
C4195 C4199 1.400 . S
C4196 H4181 0.960 . S
C4196 H4182 0.960 . S
C4196 H4183 0.960 . S
C4196 C4195 1.524 . S
C4197 C4194 1.403 . S
C4197 C4198 1.392 . S
C4197 C4201 1.495 . S
C4198 C4197 1.392 . S
C4198 C4199 1.385 . S
C4198 C4200 1.478 . S
C4199 H4193 0.930 . S
C4199 C4195 1.400 . S
C4199 C4198 1.385 . S
C4200 C4198 1.478 . S
C4200 C4202 1.381 . S
C4200 C4206 1.383 . S
C4201 C4197 1.495 . S
C4201 H4207 0.959 . S
C4201 H4208 0.961 . S
C4201 H4209 0.960 . S
C4202 C4200 1.381 . S
C4202 C4203 1.394 . S
C4202 H4210 0.930 . S
C4203 C4202 1.394 . S
C4203 C4204 1.383 . S
C4203 H4211 0.929 . S
C4204 C4203 1.383 . S
C4204 C4205 1.377 . S
C4205 H4189 0.930 . S
C4205 C4204 1.377 . S
C4205 C4206 1.379 . S
C4206 H4190 0.931 . S
C4206 C4200 1.383 . S
C4206 C4205 1.379 . S
H4207 C4201 0.959 . S
H4208 C4201 0.961 . S
H4209 C4201 0.960 . S
H4210 C4202 0.930 . S
H4211 C4203 0.929 . S
H4212 C4220 0.929 . S
H4213 C4222 0.930 . S
H4214 C4224 0.930 . S
H4215 C4227 0.929 . S
H4216 C4230 0.930 . S
H4217 C4232 0.960 . S
H4218 C4232 0.960 . S
H4219 C4232 0.960 . S
C4220 H4212 0.929 . S
C4220 C4221 1.377 . S
C4220 C4222 1.384 . S
C4221 C4220 1.377 . S
C4221 C4227 1.390 . S
C4222 H4213 0.930 . S
C4222 C4220 1.384 . S
C4222 C4223 1.372 . S
C4223 C4222 1.372 . S
C4223 C4224 1.400 . S
C4223 C4228 1.490 . S
C4224 H4214 0.930 . S
C4224 C4223 1.400 . S
C4224 C4227 1.386 . S
H4225 C4241 0.930 . S
H4226 C4242 0.931 . S
C4227 H4215 0.929 . S
C4227 C4221 1.390 . S
C4227 C4224 1.386 . S
C4228 C4223 1.490 . S
C4228 C4230 1.395 . S
C4228 C4231 1.403 . S
H4229 C4235 0.930 . S
C4230 H4216 0.930 . S
C4230 C4228 1.395 . S
C4230 C4233 1.403 . S
C4231 C4228 1.403 . S
C4231 C4232 1.524 . S
C4231 C4235 1.400 . S
C4232 H4217 0.960 . S
C4232 H4218 0.960 . S
C4232 H4219 0.960 . S
C4232 C4231 1.524 . S
C4233 C4230 1.403 . S
C4233 C4234 1.392 . S
C4233 C4237 1.495 . S
C4234 C4233 1.392 . S
C4234 C4235 1.385 . S
C4234 C4236 1.478 . S
C4235 H4229 0.930 . S
C4235 C4231 1.400 . S
C4235 C4234 1.385 . S
C4236 C4234 1.478 . S
C4236 C4238 1.381 . S
C4236 C4242 1.383 . S
C4237 C4233 1.495 . S
C4237 H4243 0.959 . S
C4237 H4244 0.961 . S
C4237 H4245 0.960 . S
C4238 C4236 1.381 . S
C4238 C4239 1.394 . S
C4238 H4246 0.930 . S
C4239 C4238 1.394 . S
C4239 C4240 1.383 . S
C4239 H4247 0.929 . S
C4240 C4239 1.383 . S
C4240 C4241 1.377 . S
C4241 H4225 0.930 . S
C4241 C4240 1.377 . S
C4241 C4242 1.379 . S
C4242 H4226 0.931 . S
C4242 C4236 1.383 . S
C4242 C4241 1.379 . S
H4243 C4237 0.959 . S
H4244 C4237 0.961 . S
H4245 C4237 0.960 . S
H4246 C4238 0.930 . S
H4247 C4239 0.929 . S
H4248 C4256 0.929 . S
H4249 C4258 0.930 . S
H4250 C4260 0.930 . S
H4251 C4263 0.929 . S
H4252 C4266 0.930 . S
H4253 C4268 0.960 . S
H4254 C4268 0.960 . S
H4255 C4268 0.960 . S
C4256 H4248 0.929 . S
C4256 C4257 1.377 . S
C4256 C4258 1.384 . S
C4257 C4256 1.377 . S
C4257 C4263 1.390 . S
C4258 H4249 0.930 . S
C4258 C4256 1.384 . S
C4258 C4259 1.372 . S
C4259 C4258 1.372 . S
C4259 C4260 1.400 . S
C4259 C4264 1.490 . S
C4260 H4250 0.930 . S
C4260 C4259 1.400 . S
C4260 C4263 1.386 . S
H4261 C4277 0.930 . S
H4262 C4278 0.931 . S
C4263 H4251 0.929 . S
C4263 C4257 1.390 . S
C4263 C4260 1.386 . S
C4264 C4259 1.490 . S
C4264 C4266 1.395 . S
C4264 C4267 1.403 . S
H4265 C4271 0.930 . S
C4266 H4252 0.930 . S
C4266 C4264 1.395 . S
C4266 C4269 1.403 . S
C4267 C4264 1.403 . S
C4267 C4268 1.524 . S
C4267 C4271 1.400 . S
C4268 H4253 0.960 . S
C4268 H4254 0.960 . S
C4268 H4255 0.960 . S
C4268 C4267 1.524 . S
C4269 C4266 1.403 . S
C4269 C4270 1.392 . S
C4269 C4273 1.495 . S
C4270 C4269 1.392 . S
C4270 C4271 1.385 . S
C4270 C4272 1.478 . S
C4271 H4265 0.930 . S
C4271 C4267 1.400 . S
C4271 C4270 1.385 . S
C4272 C4270 1.478 . S
C4272 C4274 1.381 . S
C4272 C4278 1.383 . S
C4273 C4269 1.495 . S
C4273 H4279 0.959 . S
C4273 H4280 0.961 . S
C4273 H4281 0.960 . S
C4274 C4272 1.381 . S
C4274 C4275 1.394 . S
C4274 H4282 0.930 . S
C4275 C4274 1.394 . S
C4275 C4276 1.383 . S
C4275 H4283 0.929 . S
C4276 C4275 1.383 . S
C4276 C4277 1.377 . S
C4277 H4261 0.930 . S
C4277 C4276 1.377 . S
C4277 C4278 1.379 . S
C4278 H4262 0.931 . S
C4278 C4272 1.383 . S
C4278 C4277 1.379 . S
H4279 C4273 0.959 . S
H4280 C4273 0.961 . S
H4281 C4273 0.960 . S
H4282 C4274 0.930 . S
H4283 C4275 0.929 . S
H4284 C4292 0.929 . S
H4285 C4294 0.930 . S
H4286 C4296 0.930 . S
H4287 C4299 0.929 . S
H4288 C4302 0.930 . S
H4289 C4304 0.960 . S
H4290 C4304 0.960 . S
H4291 C4304 0.960 . S
C4292 H4284 0.929 . S
C4292 C4293 1.377 . S
C4292 C4294 1.384 . S
C4293 C4292 1.377 . S
C4293 C4299 1.390 . S
C4294 H4285 0.930 . S
C4294 C4292 1.384 . S
C4294 C4295 1.372 . S
C4295 C4294 1.372 . S
C4295 C4296 1.400 . S
C4295 C4300 1.490 . S
C4296 H4286 0.930 . S
C4296 C4295 1.400 . S
C4296 C4299 1.386 . S
H4297 C4313 0.930 . S
H4298 C4314 0.931 . S
C4299 H4287 0.929 . S
C4299 C4293 1.390 . S
C4299 C4296 1.386 . S
C4300 C4295 1.490 . S
C4300 C4302 1.395 . S
C4300 C4303 1.403 . S
H4301 C4307 0.930 . S
C4302 H4288 0.930 . S
C4302 C4300 1.395 . S
C4302 C4305 1.403 . S
C4303 C4300 1.403 . S
C4303 C4304 1.524 . S
C4303 C4307 1.400 . S
C4304 H4289 0.960 . S
C4304 H4290 0.960 . S
C4304 H4291 0.960 . S
C4304 C4303 1.524 . S
C4305 C4302 1.403 . S
C4305 C4306 1.392 . S
C4305 C4309 1.495 . S
C4306 C4305 1.392 . S
C4306 C4307 1.385 . S
C4306 C4308 1.478 . S
C4307 H4301 0.930 . S
C4307 C4303 1.400 . S
C4307 C4306 1.385 . S
C4308 C4306 1.478 . S
C4308 C4310 1.381 . S
C4308 C4314 1.383 . S
C4309 C4305 1.495 . S
C4309 H4315 0.959 . S
C4309 H4316 0.961 . S
C4309 H4317 0.960 . S
C4310 C4308 1.381 . S
C4310 C4311 1.394 . S
C4310 H4318 0.930 . S
C4311 C4310 1.394 . S
C4311 C4312 1.383 . S
C4311 H4319 0.929 . S
C4312 C4311 1.383 . S
C4312 C4313 1.377 . S
C4313 H4297 0.930 . S
C4313 C4312 1.377 . S
C4313 C4314 1.379 . S
C4314 H4298 0.931 . S
C4314 C4308 1.383 . S
C4314 C4313 1.379 . S
H4315 C4309 0.959 . S
H4316 C4309 0.961 . S
H4317 C4309 0.960 . S
H4318 C4310 0.930 . S
H4319 C4311 0.929 . S
H4320 C4328 0.929 . S
H4321 C4330 0.930 . S
H4322 C4332 0.930 . S
H4323 C4335 0.929 . S
H4324 C4338 0.930 . S
H4325 C4340 0.960 . S
H4326 C4340 0.960 . S
H4327 C4340 0.960 . S
C4328 H4320 0.929 . S
C4328 C4329 1.377 . S
C4328 C4330 1.384 . S
C4329 C4328 1.377 . S
C4329 C4335 1.390 . S
C4330 H4321 0.930 . S
C4330 C4328 1.384 . S
C4330 C4331 1.372 . S
C4331 C4330 1.372 . S
C4331 C4332 1.400 . S
C4331 C4336 1.490 . S
C4332 H4322 0.930 . S
C4332 C4331 1.400 . S
C4332 C4335 1.386 . S
H4333 C4349 0.930 . S
H4334 C4350 0.931 . S
C4335 H4323 0.929 . S
C4335 C4329 1.390 . S
C4335 C4332 1.386 . S
C4336 C4331 1.490 . S
C4336 C4338 1.395 . S
C4336 C4339 1.403 . S
H4337 C4343 0.930 . S
C4338 H4324 0.930 . S
C4338 C4336 1.395 . S
C4338 C4341 1.403 . S
C4339 C4336 1.403 . S
C4339 C4340 1.524 . S
C4339 C4343 1.400 . S
C4340 H4325 0.960 . S
C4340 H4326 0.960 . S
C4340 H4327 0.960 . S
C4340 C4339 1.524 . S
C4341 C4338 1.403 . S
C4341 C4342 1.392 . S
C4341 C4345 1.495 . S
C4342 C4341 1.392 . S
C4342 C4343 1.385 . S
C4342 C4344 1.478 . S
C4343 H4337 0.930 . S
C4343 C4339 1.400 . S
C4343 C4342 1.385 . S
C4344 C4342 1.478 . S
C4344 C4346 1.381 . S
C4344 C4350 1.383 . S
C4345 C4341 1.495 . S
C4345 H4351 0.959 . S
C4345 H4352 0.961 . S
C4345 H4353 0.960 . S
C4346 C4344 1.381 . S
C4346 C4347 1.394 . S
C4346 H4354 0.930 . S
C4347 C4346 1.394 . S
C4347 C4348 1.383 . S
C4347 H4355 0.929 . S
C4348 C4347 1.383 . S
C4348 C4349 1.377 . S
C4349 H4333 0.930 . S
C4349 C4348 1.377 . S
C4349 C4350 1.379 . S
C4350 H4334 0.931 . S
C4350 C4344 1.383 . S
C4350 C4349 1.379 . S
H4351 C4345 0.959 . S
H4352 C4345 0.961 . S
H4353 C4345 0.960 . S
H4354 C4346 0.930 . S
H4355 C4347 0.929 . S
H4356 C4364 0.929 . S
H4357 C4366 0.930 . S
H4358 C4368 0.930 . S
H4359 C4371 0.929 . S
H4360 C4374 0.930 . S
H4361 C4376 0.960 . S
H4362 C4376 0.960 . S
H4363 C4376 0.960 . S
C4364 H4356 0.929 . S
C4364 C4365 1.377 . S
C4364 C4366 1.384 . S
C4365 C4364 1.377 . S
C4365 C4371 1.390 . S
C4366 H4357 0.930 . S
C4366 C4364 1.384 . S
C4366 C4367 1.372 . S
C4367 C4366 1.372 . S
C4367 C4368 1.400 . S
C4367 C4372 1.490 . S
C4368 H4358 0.930 . S
C4368 C4367 1.400 . S
C4368 C4371 1.386 . S
H4369 C4385 0.930 . S
H4370 C4386 0.931 . S
C4371 H4359 0.929 . S
C4371 C4365 1.390 . S
C4371 C4368 1.386 . S
C4372 C4367 1.490 . S
C4372 C4374 1.395 . S
C4372 C4375 1.403 . S
H4373 C4379 0.930 . S
C4374 H4360 0.930 . S
C4374 C4372 1.395 . S
C4374 C4377 1.403 . S
C4375 C4372 1.403 . S
C4375 C4376 1.524 . S
C4375 C4379 1.400 . S
C4376 H4361 0.960 . S
C4376 H4362 0.960 . S
C4376 H4363 0.960 . S
C4376 C4375 1.524 . S
C4377 C4374 1.403 . S
C4377 C4378 1.392 . S
C4377 C4381 1.495 . S
C4378 C4377 1.392 . S
C4378 C4379 1.385 . S
C4378 C4380 1.478 . S
C4379 H4373 0.930 . S
C4379 C4375 1.400 . S
C4379 C4378 1.385 . S
C4380 C4378 1.478 . S
C4380 C4382 1.381 . S
C4380 C4386 1.383 . S
C4381 C4377 1.495 . S
C4381 H4387 0.959 . S
C4381 H4388 0.961 . S
C4381 H4389 0.960 . S
C4382 C4380 1.381 . S
C4382 C4383 1.394 . S
C4382 H4390 0.930 . S
C4383 C4382 1.394 . S
C4383 C4384 1.383 . S
C4383 H4391 0.929 . S
C4384 C4383 1.383 . S
C4384 C4385 1.377 . S
C4385 H4369 0.930 . S
C4385 C4384 1.377 . S
C4385 C4386 1.379 . S
C4386 H4370 0.931 . S
C4386 C4380 1.383 . S
C4386 C4385 1.379 . S
H4387 C4381 0.959 . S
H4388 C4381 0.961 . S
H4389 C4381 0.960 . S
H4390 C4382 0.930 . S
H4391 C4383 0.929 . S
H4392 C4400 0.929 . S
H4393 C4402 0.930 . S
H4394 C4404 0.930 . S
H4395 C4407 0.929 . S
H4396 C4410 0.930 . S
H4397 C4412 0.960 . S
H4398 C4412 0.960 . S
H4399 C4412 0.960 . S
C4400 H4392 0.929 . S
C4400 C4401 1.377 . S
C4400 C4402 1.384 . S
C4401 C4400 1.377 . S
C4401 C4407 1.390 . S
C4402 H4393 0.930 . S
C4402 C4400 1.384 . S
C4402 C4403 1.372 . S
C4403 C4402 1.372 . S
C4403 C4404 1.400 . S
C4403 C4408 1.490 . S
C4404 H4394 0.930 . S
C4404 C4403 1.400 . S
C4404 C4407 1.386 . S
H4405 C4421 0.930 . S
H4406 C4422 0.931 . S
C4407 H4395 0.929 . S
C4407 C4401 1.390 . S
C4407 C4404 1.386 . S
C4408 C4403 1.490 . S
C4408 C4410 1.395 . S
C4408 C4411 1.403 . S
H4409 C4415 0.930 . S
C4410 H4396 0.930 . S
C4410 C4408 1.395 . S
C4410 C4413 1.403 . S
C4411 C4408 1.403 . S
C4411 C4412 1.524 . S
C4411 C4415 1.400 . S
C4412 H4397 0.960 . S
C4412 H4398 0.960 . S
C4412 H4399 0.960 . S
C4412 C4411 1.524 . S
C4413 C4410 1.403 . S
C4413 C4414 1.392 . S
C4413 C4417 1.495 . S
C4414 C4413 1.392 . S
C4414 C4415 1.385 . S
C4414 C4416 1.478 . S
C4415 H4409 0.930 . S
C4415 C4411 1.400 . S
C4415 C4414 1.385 . S
C4416 C4414 1.478 . S
C4416 C4418 1.381 . S
C4416 C4422 1.383 . S
C4417 C4413 1.495 . S
C4417 H4423 0.959 . S
C4417 H4424 0.961 . S
C4417 H4425 0.960 . S
C4418 C4416 1.381 . S
C4418 C4419 1.394 . S
C4418 H4426 0.930 . S
C4419 C4418 1.394 . S
C4419 C4420 1.383 . S
C4419 H4427 0.929 . S
C4420 C4419 1.383 . S
C4420 C4421 1.377 . S
C4421 H4405 0.930 . S
C4421 C4420 1.377 . S
C4421 C4422 1.379 . S
C4422 H4406 0.931 . S
C4422 C4416 1.383 . S
C4422 C4421 1.379 . S
H4423 C4417 0.959 . S
H4424 C4417 0.961 . S
H4425 C4417 0.960 . S
H4426 C4418 0.930 . S
H4427 C4419 0.929 . S
C1197 C535 1.191 . S
C1216 C7 1.176 1_556 S
C1233 C40 1.198 1_556 S
C1252 C568 1.208 . S
C1269 C502 1.193 . S
C1288 C73 1.196 1_556 S
C1305 C106 1.192 . S
C1324 C865 1.176 . S
C1341 C799 1.197 . S
C1360 C139 1.208 . S
C1377 C172 1.196 . S
C1396 C832 1.207 . S
C1413 C205 1.191 1_554 S
C1432 C1129 1.188 . S
C1449 C238 1.192 1_554 S
C1468 C1162 1.203 . S
C1485 C271 1.197 1_554 S
C1504 C1096 1.200 . S
C1521 C304 1.197 . S
C1540 C667 1.204 . S
C1557 C337 1.194 . S
C1576 C601 1.209 . S
C1593 C370 1.198 . S
C1612 C634 1.197 . S
C1629 C403 1.198 . S
C1648 C931 1.205 . S
C1665 C964 1.192 . S
C1684 C436 1.193 . S
C1701 C898 1.197 . S
C1720 C469 1.208 . S
C1737 C1063 1.191 . S
C1756 C700 1.186 . S
C1773 C997 1.198 . S
C1792 C733 1.194 . S
C1809 C766 1.196 . S
C1828 C1030 1.205 . S
C1845 N970 1.566 . S
C1864 N13 1.544 . S
C1881 N46 1.571 . S
C1900 N904 1.551 . S
C1917 N79 1.566 . S
C1936 N937 1.559 . S
C1953 N112 1.573 . S
C1972 N442 1.591 . S
C1989 N145 1.566 . S
C2008 N475 1.557 . S
C2025 N409 1.570 . S
C2044 N178 1.585 . S
C2061 N772 1.572 . S
C2080 N211 1.591 . S
C2097 N244 1.566 . S
C2116 N706 1.569 . S
C2133 N277 1.574 . S
C2152 N739 1.589 . S
C2169 N1036 1.575 . S
C2188 N310 1.560 . S
C2205 N1069 1.575 . S
C2224 N343 1.571 . S
C2241 N1003 1.575 . S
C2260 N376 1.583 . S
C2277 N508 1.575 . S
C2296 N838 1.585 . S
C2313 N541 1.575 . S
C2332 N871 1.574 . S
C2349 N574 1.573 . S
C2368 N805 1.591 . S
C2385 N607 1.569 . S
C2404 N1168 1.588 . S
C2421 N1102 1.566 . S
C2440 N640 1.568 . S
C2457 N673 1.567 . S
C2476 N1135 1.545 . S
C2493 C18 2.015 . S
C2512 C612 2.017 . S
C2529 C51 2.015 . S
C2548 C645 2.016 . S
C2565 C678 2.015 . S
C2584 C84 2.005 . S
C2601 C117 2.016 . S
C2620 C1107 2.009 . S
C2637 C150 2.013 . S
C2656 C1140 2.006 . S
C2673 C183 2.013 . S
C2692 C1173 2.004 . S
C2709 C810 2.013 . S
C2728 C216 2.004 . S
C2745 C249 2.014 . S
C2764 C843 2.003 . S
C2781 C876 2.015 . S
C2800 C282 2.006 . S
C2817 C513 2.015 . S
C2836 C315 2.008 . S
C2853 C546 2.015 . S
C2872 C348 2.017 . S
C2889 C381 2.013 . S
C2908 C579 2.004 . S
C2925 C1008 2.015 . S
C2944 C414 2.017 . S
C2961 C1041 2.013 . S
C2980 C447 2.010 . S
C2997 C480 2.013 . S
C3016 C1074 2.014 . S
C3033 C909 2.013 . S
C3052 C711 2.004 . S
C3069 C744 2.013 . S
C3088 C942 2.003 . S
C3105 C975 2.013 . S
C3124 C777 2.004 . S
C3141 N2 0.844 . S
C3160 C252 0.886 . S
C3177 N35 0.847 . S
C3196 C285 0.867 . S
C3213 C219 0.846 . S
C3232 N68 0.866 . S
C3249 C384 0.857 . S
C3268 N101 0.817 . S
C3285 C318 0.854 . S
C3304 N134 0.830 . S
C3321 C351 0.846 . S
C3340 N167 0.882 . S
C3357 C54 0.844 . S
C3376 N200 0.821 . S
C3393 C87 0.859 . S
C3412 N233 0.855 . S
C3429 C21 0.856 . S
C3448 N266 0.828 . S
C3465 N299 0.855 . S
C3484 C186 0.889 . S
C3501 N332 0.859 . S
C3520 C120 0.847 . S
C3537 C153 0.850 . S
C3556 N365 0.814 . S
C3573 C648 0.858 . S
C3592 N398 0.826 . S
C3609 N431 0.845 . S
C3628 C681 0.880 . S
C3645 C615 0.858 . S
C3664 N464 0.823 . S
C3681 C780 0.859 . S
C3700 N497 0.816 . S
C3717 N530 0.845 . S
C3736 C714 0.882 . S
C3753 N563 0.852 . S
C3772 C747 0.840 . S
C3789 N596 0.844 . S
C3808 C450 0.837 . S
C3825 N629 0.859 . S
C3844 C483 0.873 . S
C3861 N662 0.854 . S
C3880 C417 0.815 . S
C3897 N695 0.844 . S
C3916 C582 0.850 . S
C3933 C516 0.858 . S
C3952 N728 0.882 . S
C3969 C549 0.855 . S
C3988 N761 0.827 . S
C4005 C1044 0.844 . S
C4024 N794 0.876 . S
C4041 C1077 0.853 . S
C4060 N827 0.853 . S
C4077 C1011 0.855 . S
C4096 N860 0.825 . S
C4113 C1176 0.843 . S
C4132 N893 0.885 . S
C4149 N926 0.846 . S
C4168 C1110 0.875 . S
C4185 C1143 0.847 . S
C4204 N959 0.857 . S
C4221 C846 0.844 . S
C4240 N992 0.823 . S
C4257 C879 0.845 . S
C4276 N1025 0.869 . S
C4293 C813 0.847 . S
C4312 N1058 0.814 . S
C4329 N1091 0.850 . S
C4348 C978 0.810 . S
C4365 N1124 0.846 . S
C4384 C912 0.817 . S
C4401 C945 0.858 . S
C4420 N1157 0.881 . S
