# Generated by pormake.
# Topology reo-e, (6)-cn, num edge types: 1
# Building blocks:
#     Node 0, Type 0, BuildingBlock: MIDCAF_clean_sbu_0, # of connection points: 6
#     Node 1, Type 0, BuildingBlock: MIDCAF_clean_sbu_0, # of connection points: 6
#     Node 2, Type 0, BuildingBlock: MIDCAF_clean_sbu_0, # of connection points: 6
#     Node 3, Type 0, BuildingBlock: MIDCAF_clean_sbu_0, # of connection points: 6
#     Node 4, Type 0, BuildingBlock: MIDCAF_clean_sbu_0, # of connection points: 6
#     Node 5, Type 0, BuildingBlock: MIDCAF_clean_sbu_0, # of connection points: 6
#     Node 6, Type 0, BuildingBlock: MIDCAF_clean_sbu_0, # of connection points: 6
#     Node 7, Type 0, BuildingBlock: MIDCAF_clean_sbu_0, # of connection points: 6
#     Node 8, Type 0, BuildingBlock: MIDCAF_clean_sbu_0, # of connection points: 6
#     Node 9, Type 0, BuildingBlock: MIDCAF_clean_sbu_0, # of connection points: 6
#     Node 10, Type 0, BuildingBlock: MIDCAF_clean_sbu_0, # of connection points: 6
#     Node 11, Type 0, BuildingBlock: MIDCAF_clean_sbu_0, # of connection points: 6
#     Edge 12, Type (0, 0), BuildingBlock: EZIPEK_clean_linker_0, # of connection points: 2
#     Edge 13, Type (0, 0), BuildingBlock: EZIPEK_clean_linker_0, # of connection points: 2
#     Edge 14, Type (0, 0), BuildingBlock: EZIPEK_clean_linker_0, # of connection points: 2
#     Edge 15, Type (0, 0), BuildingBlock: EZIPEK_clean_linker_0, # of connection points: 2
#     Edge 16, Type (0, 0), BuildingBlock: EZIPEK_clean_linker_0, # of connection points: 2
#     Edge 17, Type (0, 0), BuildingBlock: EZIPEK_clean_linker_0, # of connection points: 2
#     Edge 18, Type (0, 0), BuildingBlock: EZIPEK_clean_linker_0, # of connection points: 2
#     Edge 19, Type (0, 0), BuildingBlock: EZIPEK_clean_linker_0, # of connection points: 2
#     Edge 20, Type (0, 0), BuildingBlock: EZIPEK_clean_linker_0, # of connection points: 2
#     Edge 21, Type (0, 0), BuildingBlock: EZIPEK_clean_linker_0, # of connection points: 2
#     Edge 22, Type (0, 0), BuildingBlock: EZIPEK_clean_linker_0, # of connection points: 2
#     Edge 23, Type (0, 0), BuildingBlock: EZIPEK_clean_linker_0, # of connection points: 2
#     Edge 24, Type (0, 0), BuildingBlock: EZIPEK_clean_linker_0, # of connection points: 2
#     Edge 25, Type (0, 0), BuildingBlock: EZIPEK_clean_linker_0, # of connection points: 2
#     Edge 26, Type (0, 0), BuildingBlock: EZIPEK_clean_linker_0, # of connection points: 2
#     Edge 27, Type (0, 0), BuildingBlock: EZIPEK_clean_linker_0, # of connection points: 2
#     Edge 28, Type (0, 0), BuildingBlock: EZIPEK_clean_linker_0, # of connection points: 2
#     Edge 29, Type (0, 0), BuildingBlock: EZIPEK_clean_linker_0, # of connection points: 2
#     Edge 30, Type (0, 0), BuildingBlock: EZIPEK_clean_linker_0, # of connection points: 2
#     Edge 31, Type (0, 0), BuildingBlock: EZIPEK_clean_linker_0, # of connection points: 2
#     Edge 32, Type (0, 0), BuildingBlock: EZIPEK_clean_linker_0, # of connection points: 2
#     Edge 33, Type (0, 0), BuildingBlock: EZIPEK_clean_linker_0, # of connection points: 2
#     Edge 34, Type (0, 0), BuildingBlock: EZIPEK_clean_linker_0, # of connection points: 2
#     Edge 35, Type (0, 0), BuildingBlock: EZIPEK_clean_linker_0, # of connection points: 2
#     Edge 36, Type (0, 0), BuildingBlock: EZIPEK_clean_linker_0, # of connection points: 2
#     Edge 37, Type (0, 0), BuildingBlock: EZIPEK_clean_linker_0, # of connection points: 2
#     Edge 38, Type (0, 0), BuildingBlock: EZIPEK_clean_linker_0, # of connection points: 2
#     Edge 39, Type (0, 0), BuildingBlock: EZIPEK_clean_linker_0, # of connection points: 2
#     Edge 40, Type (0, 0), BuildingBlock: EZIPEK_clean_linker_0, # of connection points: 2
#     Edge 41, Type (0, 0), BuildingBlock: EZIPEK_clean_linker_0, # of connection points: 2
#     Edge 42, Type (0, 0), BuildingBlock: EZIPEK_clean_linker_0, # of connection points: 2
#     Edge 43, Type (0, 0), BuildingBlock: EZIPEK_clean_linker_0, # of connection points: 2
#     Edge 44, Type (0, 0), BuildingBlock: EZIPEK_clean_linker_0, # of connection points: 2
#     Edge 45, Type (0, 0), BuildingBlock: EZIPEK_clean_linker_0, # of connection points: 2
#     Edge 46, Type (0, 0), BuildingBlock: EZIPEK_clean_linker_0, # of connection points: 2
#     Edge 47, Type (0, 0), BuildingBlock: EZIPEK_clean_linker_0, # of connection points: 2
# Relax obj value: 0.261
# Max RMSD: 0.248
# Mean RMSD: 0.246
data_MOF--net-reo-e--node1-MIDCAF_clean_sbu_0--edge1-EZIPEK_clean_linker_0
_symmetry_space_group_name_H-M    P1
_symmetry_Int_Tables_number       1
_symmetry_cell_setting            triclinic
loop_
_symmetry_equiv_pos_as_xyz
'x, y, z'
_cell_length_a     27.858572
_cell_length_b     27.790513
_cell_length_c     27.904373
_cell_angle_alpha  90.499763
_cell_angle_beta   89.933309
_cell_angle_gamma 90.013436
loop_
_atom_site_label
_atom_site_type_symbol
_atom_site_fract_x
_atom_site_fract_y
_atom_site_fract_z
_atom_type_partial_charge
Zn0 Zn 0.13596 0.26235 0.47942 0.0
Zn1 Zn 0.27422 0.11796 0.50376 0.0
Zn2 Zn 0.2039 0.18971 0.4879 0.0
C3 C 0.29413 0.17007 0.41853 0.0
C4 C 0.18154 0.07693 0.4923 0.0
O5 O 0.20862 0.241 0.54762 0.0
O6 O 0.15661 0.30025 0.53677 0.0
C7 C 0.19672 0.2575 0.39728 0.0
O8 O 0.25471 0.19175 0.42889 0.0
O9 O 0.31109 0.13794 0.44547 0.0
O10 O 0.22511 0.06604 0.49842 0.0
O11 O 0.16803 0.12087 0.48888 0.0
O12 O 0.16064 0.2789 0.41475 0.0
O13 O 0.21836 0.22425 0.42033 0.0
O14 O 0.13349 0.15595 0.48458 0.0
O15 O 0.08148 0.21634 0.48327 0.0
C16 C 0.09024 0.17176 0.48364 0.0
O17 O 0.24101 0.20423 0.55461 0.0
O18 O 0.2924 0.14481 0.56763 0.0
C19 C 0.18949 0.28098 0.56105 0.0
C20 C 0.27305 0.18392 0.58051 0.0
Zn21 Zn 0.86701 0.2554 0.47509 0.0
Zn22 Zn 0.72717 0.12145 0.4777 0.0
Zn23 Zn 0.79756 0.18859 0.47876 0.0
C24 C 0.71333 0.18471 0.55634 0.0
C25 C 0.81438 0.07306 0.48692 0.0
O26 O 0.78847 0.23184 0.41377 0.0
O27 O 0.84579 0.2871 0.41577 0.0
C28 C 0.81409 0.27282 0.55818 0.0
O29 O 0.75263 0.20358 0.54133 0.0
O30 O 0.6944 0.14952 0.53456 0.0
O31 O 0.76977 0.06527 0.48606 0.0
O32 O 0.831 0.11618 0.48367 0.0
O33 O 0.85118 0.28734 0.53674 0.0
O34 O 0.78962 0.23704 0.54162 0.0
O35 O 0.8666 0.15048 0.47968 0.0
O36 O 0.92007 0.20904 0.47207 0.0
C37 C 0.91026 0.16491 0.47573 0.0
O38 O 0.75518 0.19524 0.41251 0.0
O39 O 0.70168 0.13623 0.41304 0.0
C40 C 0.80959 0.26865 0.39571 0.0
C41 C 0.72038 0.17202 0.39271 0.0
Zn42 Zn 0.71523 0.86932 0.49549 0.0
Zn43 Zn 0.81734 0.70546 0.50512 0.0
Zn44 Zn 0.77035 0.78849 0.49908 0.0
C45 C 0.88398 0.78123 0.50549 0.0
C46 C 0.77056 0.70388 0.41807 0.0
O47 O 0.72281 0.7922 0.5613 0.0
O48 O 0.68144 0.86029 0.55738 0.0
C49 C 0.81307 0.89599 0.49553 0.0
O50 O 0.84623 0.80737 0.50089 0.0
O51 O 0.88111 0.73612 0.50923 0.0
O52 O 0.79772 0.67795 0.44306 0.0
O53 O 0.75638 0.74526 0.43356 0.0
O54 O 0.77098 0.91257 0.49303 0.0
O55 O 0.82054 0.85042 0.49848 0.0
O56 O 0.72613 0.78475 0.43456 0.0
O57 O 0.68171 0.85101 0.43552 0.0
C58 C 0.69352 0.81158 0.41612 0.0
O59 O 0.74931 0.7503 0.56543 0.0
O60 O 0.78786 0.68066 0.56381 0.0
C61 C 0.6915 0.82167 0.57855 0.0
C62 C 0.75908 0.70927 0.58414 0.0
Zn63 Zn 0.08831 0.68017 0.52346 0.0
Zn64 Zn 0.24488 0.85185 0.45652 0.0
Zn65 Zn 0.18433 0.78931 0.486 0.0
C66 C 0.15876 0.90056 0.46487 0.0
C67 C 0.23711 0.77302 0.39038 0.0
O68 O 0.20648 0.76428 0.55523 0.0
O69 O 0.14004 0.72876 0.53848 0.0
C70 C 0.08367 0.79346 0.50265 0.0
O71 O 0.14548 0.85833 0.47777 0.0
O72 O 0.20187 0.90836 0.45329 0.0
O73 O 0.25592 0.81382 0.39753 0.0
O74 O 0.20804 0.75503 0.42092 0.0
O75 O 0.09887 0.75149 0.51092 0.0
O76 O 0.11539 0.82423 0.49163 0.0
O77 O 0.17117 0.7203 0.44217 0.0
O78 O 0.12067 0.65824 0.46138 0.0
C79 C 0.15149 0.6784 0.43378 0.0
O80 O 0.2414 0.79467 0.54055 0.0
O81 O 0.2926 0.84699 0.50983 0.0
C82 C 0.17575 0.73246 0.56599 0.0
C83 C 0.28082 0.81862 0.54292 0.0
Zn84 Zn 0.48902 0.24878 0.11246 0.0
Zn85 Zn 0.50762 0.11311 0.24561 0.0
Zn86 Zn 0.49667 0.18059 0.17972 0.0
C87 C 0.58881 0.16838 0.25085 0.0
C88 C 0.49254 0.06614 0.15905 0.0
O89 O 0.43097 0.22275 0.1944 0.0
O90 O 0.42619 0.27394 0.13416 0.0
C91 C 0.57269 0.26658 0.16455 0.0
O92 O 0.56519 0.19161 0.21882 0.0
O93 O 0.57254 0.12977 0.26779 0.0
O94 O 0.49871 0.05754 0.20289 0.0
O95 O 0.49199 0.10963 0.1436 0.0
O96 O 0.54774 0.28446 0.13147 0.0
O97 O 0.55954 0.2277 0.18552 0.0
O98 O 0.49403 0.14455 0.10881 0.0
O99 O 0.49139 0.20452 0.05699 0.0
C100 C 0.49286 0.16004 0.06549 0.0
O101 O 0.43708 0.18903 0.23012 0.0
O102 O 0.45262 0.13446 0.28542 0.0
C103 C 0.40922 0.25689 0.17235 0.0
C104 C 0.42677 0.16809 0.26972 0.0
Zn105 Zn 0.71516 0.49953 0.11794 0.0
Zn106 Zn 0.85431 0.49837 0.25851 0.0
Zn107 Zn 0.78471 0.49498 0.18822 0.0
C108 C 0.79497 0.57738 0.27192 0.0
C109 C 0.89889 0.49544 0.16829 0.0
O110 O 0.74124 0.42994 0.19408 0.0
O111 O 0.68709 0.43618 0.1362 0.0
C112 C 0.70303 0.57767 0.17989 0.0
O113 O 0.77408 0.55778 0.23557 0.0
O114 O 0.83261 0.55935 0.28931 0.0
O115 O 0.90853 0.49804 0.21243 0.0
O116 O 0.85523 0.49439 0.15352 0.0
O117 O 0.68486 0.55948 0.1425 0.0
O118 O 0.73945 0.5582 0.20024 0.0
O119 O 0.82056 0.49682 0.11836 0.0
O120 O 0.76216 0.50244 0.06474 0.0
C121 C 0.80626 0.49999 0.07474 0.0
O122 O 0.77607 0.42954 0.22936 0.0
O123 O 0.8321 0.43584 0.28553 0.0
C124 C 0.70508 0.41327 0.17071 0.0
C125 C 0.79797 0.41294 0.26613 0.0
Zn126 Zn 0.45564 0.85172 0.26884 0.0
Zn127 Zn 0.47531 0.69845 0.13838 0.0
Zn128 Zn 0.47065 0.77718 0.20116 0.0
C129 C 0.46932 0.78608 0.08737 0.0
C130 C 0.39495 0.68829 0.19487 0.0
O131 O 0.5327 0.77772 0.24738 0.0
O132 O 0.51774 0.83523 0.30118 0.0
C133 C 0.46194 0.88829 0.17325 0.0
O134 O 0.46962 0.80567 0.12917 0.0
O135 O 0.4711 0.74096 0.0819 0.0
O136 O 0.41681 0.66569 0.1621 0.0
O137 O 0.41072 0.72859 0.21121 0.0
O138 O 0.45547 0.90036 0.21657 0.0
O139 O 0.46778 0.84401 0.16109 0.0
O140 O 0.4053 0.76635 0.2431 0.0
O141 O 0.39375 0.82633 0.29469 0.0
C142 C 0.38047 0.78689 0.27627 0.0
O143 O 0.53831 0.74 0.215 0.0
O144 O 0.53895 0.67907 0.16303 0.0
C145 C 0.54468 0.80251 0.28449 0.0
C146 C 0.55867 0.70283 0.19638 0.0
Zn147 Zn 0.11093 0.45578 0.25235 0.0
Zn148 Zn 0.26226 0.4863 0.13412 0.0
Zn149 Zn 0.18496 0.47505 0.19101 0.0
C150 C 0.25739 0.56202 0.20178 0.0
C151 C 0.1798 0.49209 0.07726 0.0
O152 O 0.19724 0.40625 0.22545 0.0
O153 O 0.13617 0.39331 0.27467 0.0
C154 C 0.15487 0.54112 0.28345 0.0
O155 O 0.2192 0.54055 0.21579 0.0
O156 O 0.28247 0.54546 0.16776 0.0
O157 O 0.22499 0.49341 0.07468 0.0
O158 O 0.1584 0.48514 0.11749 0.0
O159 O 0.12043 0.51366 0.29409 0.0
O160 O 0.18182 0.53189 0.24698 0.0
O161 O 0.11959 0.47563 0.14732 0.0
O162 O 0.06313 0.4574 0.20019 0.0
C163 C 0.07543 0.46746 0.15785 0.0
O164 O 0.23544 0.41315 0.1949 0.0
O165 O 0.29729 0.42601 0.14674 0.0
C166 C 0.17584 0.38043 0.25691 0.0
C167 C 0.27581 0.39979 0.17652 0.0
Zn168 Zn 0.44988 0.71433 0.84062 0.0
Zn169 Zn 0.51528 0.89544 0.69363 0.0
Zn170 Zn 0.47901 0.78473 0.78814 0.0
C171 C 0.49347 0.88405 0.80324 0.0
C172 C 0.42765 0.83009 0.68314 0.0
O173 O 0.53565 0.72916 0.78757 0.0
O174 O 0.50505 0.66954 0.82993 0.0
C175 C 0.45657 0.79514 0.90029 0.0
O176 O 0.48144 0.85036 0.83121 0.0
O177 O 0.50454 0.87123 0.76114 0.0
O178 O 0.45375 0.86486 0.66785 0.0
O179 O 0.43661 0.80525 0.72155 0.0
O180 O 0.44639 0.75092 0.90205 0.0
O181 O 0.46833 0.81467 0.86043 0.0
O182 O 0.41435 0.76375 0.75055 0.0
O183 O 0.39142 0.70707 0.80083 0.0
C184 C 0.38427 0.7315 0.76352 0.0
O185 O 0.54975 0.76724 0.76119 0.0
O186 O 0.53241 0.83632 0.73219 0.0
C187 C 0.53903 0.68683 0.80553 0.0
C188 C 0.56075 0.80086 0.73271 0.0
Zn189 Zn 0.12499 0.48539 0.71189 0.0
Zn190 Zn 0.2694 0.52661 0.83543 0.0
Zn191 Zn 0.19626 0.50247 0.77578 0.0
C192 C 0.18395 0.51605 0.88917 0.0
C193 C 0.26414 0.59865 0.7682 0.0
O194 O 0.21357 0.43477 0.73852 0.0
O195 O 0.15323 0.42525 0.68752 0.0
C196 C 0.0841 0.49143 0.80332 0.0
O197 O 0.16565 0.5061 0.84798 0.0
O198 O 0.22768 0.52739 0.89316 0.0
O199 O 0.28824 0.58792 0.80483 0.0
O200 O 0.22979 0.57123 0.75365 0.0
O201 O 0.07371 0.48293 0.76008 0.0
O202 O 0.12777 0.49962 0.81603 0.0
O203 O 0.19199 0.56019 0.72364 0.0
O204 O 0.13223 0.54457 0.67334 0.0
C205 C 0.16601 0.57138 0.68735 0.0
O206 O 0.24874 0.44315 0.77308 0.0
O207 O 0.30725 0.46734 0.82147 0.0
C208 C 0.19242 0.41097 0.70494 0.0
C209 C 0.28951 0.43609 0.79353 0.0
Zn210 Zn 0.51049 0.25844 0.85397 0.0
Zn211 Zn 0.48237 0.13917 0.69952 0.0
Zn212 Zn 0.49499 0.19576 0.77836 0.0
C213 C 0.48641 0.08063 0.78077 0.0
C214 C 0.56689 0.18823 0.68587 0.0
O215 O 0.43708 0.24997 0.78144 0.0
O216 O 0.45335 0.3 0.84159 0.0
C217 C 0.50163 0.16202 0.88724 0.0
O218 O 0.49023 0.12121 0.80297 0.0
O219 O 0.48356 0.07852 0.73568 0.0
O220 O 0.53986 0.15957 0.6633 0.0
O221 O 0.55541 0.20369 0.72795 0.0
O222 O 0.50704 0.20521 0.90069 0.0
O223 O 0.49676 0.1511 0.84268 0.0
O224 O 0.56331 0.23229 0.76774 0.0
O225 O 0.57452 0.27987 0.83093 0.0
C226 C 0.58874 0.26296 0.79125 0.0
O227 O 0.42725 0.21685 0.74574 0.0
O228 O 0.41949 0.16695 0.68378 0.0
C229 C 0.42686 0.28738 0.80701 0.0
C230 C 0.40345 0.20076 0.70965 0.0
Zn231 Zn 0.84962 0.51376 0.71141 0.0
Zn232 Zn 0.72452 0.46869 0.85549 0.0
Zn233 Zn 0.78713 0.49098 0.78488 0.0
C234 C 0.81515 0.48259 0.89641 0.0
C235 C 0.72517 0.39305 0.78954 0.0
O236 O 0.76174 0.55761 0.75178 0.0
O237 O 0.81481 0.57391 0.69492 0.0
C238 C 0.90099 0.50842 0.79847 0.0
O239 O 0.8273 0.49065 0.85274 0.0
O240 O 0.77236 0.47231 0.90711 0.0
O241 O 0.70686 0.40515 0.82921 0.0
O242 O 0.7554 0.42057 0.76831 0.0
O243 O 0.90656 0.51663 0.75437 0.0
O244 O 0.85921 0.49904 0.81574 0.0
O245 O 0.78762 0.43181 0.73236 0.0
O246 O 0.8368 0.45335 0.6738 0.0
C247 C 0.80839 0.42311 0.692 0.0
O248 O 0.72956 0.54501 0.78735 0.0
O249 O 0.6798 0.52318 0.84532 0.0
C250 C 0.77698 0.58445 0.7177 0.0
C251 C 0.69122 0.55174 0.8123 0.0
C252 C 0.18415 0.25962 0.31011 0.0
C253 C 0.21321 0.27201 0.34974 0.0
C254 C 0.23614 0.3475 0.31338 0.0
C255 C 0.20043 0.33905 0.27802 0.0
N256 N 0.15329 0.28304 0.23216 0.0
N257 N 0.28093 0.31515 0.38054 0.0
C258 C 0.17937 0.29311 0.2724 0.0
C259 C 0.24488 0.31135 0.34768 0.0
N260 N 0.15854 0.21775 0.31103 0.0
N261 N 0.25761 0.39157 0.31727 0.0
H262 H 0.28609 0.28904 0.40669 0.0
H263 H 0.30774 0.34121 0.37918 0.0
H264 H 0.25171 0.41915 0.29293 0.0
H265 H 0.27978 0.40163 0.34563 0.0
H266 H 0.13296 0.20803 0.28559 0.0
H267 H 0.16298 0.19281 0.33847 0.0
H268 H 0.13856 0.24947 0.22443 0.0
H269 H 0.14956 0.30805 0.20469 0.0
C270 C 0.62715 0.22165 0.31145 0.0
C271 C 0.63251 0.18845 0.27299 0.0
C272 C 0.70929 0.16116 0.3048 0.0
C273 C 0.69968 0.18809 0.34699 0.0
N274 N 0.65974 0.2545 0.38568 0.0
N275 N 0.68352 0.1391 0.22408 0.0
C276 C 0.66239 0.22264 0.34821 0.0
C277 C 0.67587 0.16289 0.26641 0.0
N278 N 0.58628 0.24867 0.31478 0.0
N279 N 0.74886 0.13216 0.30302 0.0
H280 H 0.65873 0.14061 0.19606 0.0
H281 H 0.71505 0.121 0.21538 0.0
H282 H 0.77441 0.13209 0.33038 0.0
H283 H 0.75638 0.1082 0.27519 0.0
H284 H 0.57718 0.26991 0.34427 0.0
H285 H 0.56046 0.24892 0.28779 0.0
H286 H 0.63567 0.28307 0.38745 0.0
H287 H 0.68432 0.25426 0.41382 0.0
C288 C 0.72794 0.6442 0.36851 0.0
C289 C 0.75716 0.68561 0.37028 0.0
C290 C 0.79188 0.6646 0.29248 0.0
C291 C 0.77225 0.61798 0.29746 0.0
N292 N 0.71761 0.56352 0.33641 0.0
N293 N 0.81064 0.74086 0.33165 0.0
C294 C 0.73774 0.60826 0.33348 0.0
C295 C 0.78607 0.69833 0.33064 0.0
N296 N 0.69251 0.63887 0.40187 0.0
N297 N 0.81703 0.67559 0.252 0.0
H298 H 0.80549 0.76639 0.35882 0.0
H299 H 0.83644 0.75052 0.30653 0.0
H300 H 0.8216 0.65074 0.22407 0.0
H301 H 0.82996 0.70981 0.24438 0.0
H302 H 0.66732 0.61122 0.40104 0.0
H303 H 0.68615 0.66508 0.42816 0.0
H304 H 0.6961 0.55242 0.36475 0.0
H305 H 0.72404 0.53652 0.31102 0.0
C306 C 0.24998 0.7675 0.30469 0.0
C307 C 0.25601 0.74543 0.3495 0.0
C308 C 0.34039 0.73053 0.33269 0.0
C309 C 0.33678 0.76331 0.29418 0.0
N310 N 0.28859 0.80476 0.23608 0.0
N311 N 0.29858 0.68858 0.39674 0.0
C312 C 0.29134 0.7781 0.2769 0.0
C313 C 0.29833 0.71968 0.35925 0.0
N314 N 0.20505 0.7819 0.29188 0.0
N315 N 0.38431 0.71323 0.34585 0.0
H316 H 0.26781 0.68318 0.41731 0.0
H317 H 0.32736 0.6665 0.40547 0.0
H318 H 0.41553 0.72056 0.32655 0.0
H319 H 0.39022 0.69223 0.37594 0.0
H320 H 0.19656 0.79796 0.25946 0.0
H321 H 0.17565 0.77537 0.31414 0.0
H322 H 0.25693 0.81879 0.22236 0.0
H323 H 0.31878 0.81258 0.21535 0.0
C324 C 0.21354 0.65697 0.5941 0.0
C325 C 0.18382 0.69717 0.60387 0.0
C326 C 0.15264 0.65895 0.676 0.0
C327 C 0.17612 0.61598 0.66161 0.0
N328 N 0.22959 0.57258 0.60879 0.0
N329 N 0.12921 0.74036 0.65522 0.0
C330 C 0.2075 0.61474 0.62162 0.0
C331 C 0.15506 0.69957 0.64566 0.0
N332 N 0.24708 0.65924 0.55838 0.0
N333 N 0.12807 0.66054 0.71847 0.0
H334 H 0.13358 0.77179 0.63551 0.0
H335 H 0.10311 0.74316 0.68178 0.0
H336 H 0.1251 0.6309 0.74101 0.0
H337 H 0.11328 0.69167 0.73319 0.0
H338 H 0.27296 0.63292 0.55223 0.0
H339 H 0.25164 0.68948 0.537 0.0
H340 H 0.24854 0.56761 0.57698 0.0
H341 H 0.22711 0.54134 0.62914 0.0
C342 C 0.28171 0.1872 0.66871 0.0
C343 C 0.29099 0.20829 0.62373 0.0
C344 C 0.35791 0.25337 0.6576 0.0
C345 C 0.35712 0.22141 0.69637 0.0
N346 N 0.31379 0.16828 0.74751 0.0
N347 N 0.33213 0.26744 0.57601 0.0
C348 C 0.31629 0.193 0.70554 0.0
C349 C 0.32614 0.24484 0.61888 0.0
N350 N 0.24139 0.15997 0.67468 0.0
N351 N 0.39178 0.28876 0.65669 0.0
H352 H 0.30943 0.26149 0.54689 0.0
H353 H 0.36014 0.29104 0.56869 0.0
H354 H 0.4164 0.29288 0.6846 0.0
H355 H 0.39314 0.31557 0.63091 0.0
H356 H 0.23127 0.14461 0.70702 0.0
H357 H 0.2163 0.15542 0.64723 0.0
H358 H 0.28707 0.14357 0.7558 0.0
H359 H 0.33967 0.17297 0.77421 0.0
C360 C 0.81954 0.33465 0.67827 0.0
C361 C 0.79741 0.37851 0.66498 0.0
C362 C 0.76702 0.34081 0.59144 0.0
C363 C 0.79742 0.30108 0.59996 0.0
N364 N 0.84841 0.25596 0.65222 0.0
N365 N 0.74663 0.42344 0.61173 0.0
C366 C 0.82157 0.29624 0.64424 0.0
C367 C 0.76926 0.38131 0.62276 0.0
N368 N 0.83955 0.33041 0.72273 0.0
N369 N 0.737 0.33992 0.55275 0.0
H370 H 0.74584 0.45301 0.63503 0.0
H371 H 0.73002 0.42993 0.57903 0.0
H372 H 0.7354 0.31057 0.52925 0.0
H373 H 0.71104 0.3659 0.54612 0.0
H374 H 0.85289 0.29834 0.73626 0.0
H375 H 0.83979 0.35853 0.74772 0.0
H376 H 0.87138 0.25179 0.68127 0.0
H377 H 0.84838 0.2267 0.62849 0.0
C378 C 0.62711 0.77425 0.6183 0.0
C379 C 0.6644 0.80883 0.62175 0.0
C380 C 0.63917 0.83098 0.70281 0.0
C381 C 0.60096 0.79751 0.69876 0.0
N382 N 0.5649 0.72912 0.65872 0.0
N383 N 0.71367 0.86162 0.66959 0.0
C384 C 0.59734 0.76605 0.65866 0.0
C385 C 0.67298 0.83446 0.66493 0.0
N386 N 0.61801 0.75179 0.57543 0.0
N387 N 0.64218 0.86025 0.74236 0.0
H388 H 0.73898 0.86468 0.64218 0.0
H389 H 0.72446 0.87784 0.70156 0.0
H390 H 0.61985 0.8563 0.77212 0.0
H391 H 0.66542 0.88944 0.74515 0.0
H392 H 0.58769 0.73091 0.56883 0.0
H393 H 0.63937 0.75633 0.5451 0.0
H394 H 0.56437 0.70187 0.63287 0.0
H395 H 0.54079 0.72323 0.6866 0.0
C396 C 0.39918 0.20857 0.34413 0.0
C397 C 0.38731 0.18549 0.30028 0.0
C398 C 0.30716 0.16626 0.32988 0.0
C399 C 0.32135 0.1838 0.37558 0.0
N400 N 0.37306 0.23401 0.42355 0.0
N401 N 0.32751 0.15599 0.24553 0.0
C402 C 0.36486 0.20942 0.38169 0.0
C403 C 0.34005 0.16939 0.29103 0.0
N404 N 0.44414 0.22743 0.35017 0.0
N405 N 0.26373 0.14389 0.32464 0.0
H406 H 0.35165 0.15744 0.21698 0.0
H407 H 0.29271 0.14718 0.23517 0.0
H408 H 0.23872 0.14177 0.35239 0.0
H409 H 0.25289 0.12599 0.29363 0.0
H410 H 0.4575 0.24011 0.38268 0.0
H411 H 0.46885 0.22945 0.32208 0.0
H412 H 0.40253 0.25627 0.42948 0.0
H413 H 0.34805 0.2351 0.45143 0.0
C414 C 0.80431 0.32414 0.27514 0.0
C415 C 0.78212 0.36804 0.28856 0.0
C416 C 0.75955 0.33572 0.36617 0.0
C417 C 0.78794 0.29469 0.35556 0.0
N418 N 0.8238 0.24182 0.29739 0.0
N419 N 0.72518 0.41057 0.33761 0.0
C420 C 0.80526 0.28596 0.30869 0.0
C421 C 0.75453 0.37172 0.33089 0.0
N422 N 0.82683 0.32054 0.23175 0.0
N423 N 0.74078 0.34167 0.41112 0.0
H424 H 0.72204 0.43757 0.31202 0.0
H425 H 0.70133 0.4142 0.36613 0.0
H426 H 0.74317 0.31511 0.43722 0.0
H427 H 0.72419 0.37307 0.42316 0.0
H428 H 0.84768 0.29131 0.22108 0.0
H429 H 0.825 0.34789 0.2064 0.0
H430 H 0.83494 0.23172 0.26316 0.0
H431 H 0.8245 0.21389 0.32218 0.0
C432 C 0.58674 0.76193 0.35099 0.0
C433 C 0.5893 0.79134 0.30996 0.0
C434 C 0.67128 0.81493 0.33023 0.0
C435 C 0.66456 0.79397 0.3757 0.0
N436 N 0.6194 0.74366 0.42928 0.0
N437 N 0.63436 0.84108 0.25595 0.0
C438 C 0.62388 0.76505 0.38555 0.0
C439 C 0.63222 0.81558 0.29758 0.0
N440 N 0.54828 0.73202 0.35703 0.0
N441 N 0.71476 0.83472 0.31918 0.0
H442 H 0.60662 0.84064 0.23084 0.0
H443 H 0.6627 0.86351 0.24666 0.0
H444 H 0.74353 0.8342 0.34312 0.0
H445 H 0.7236 0.84815 0.28562 0.0
H446 H 0.54592 0.70646 0.38396 0.0
H447 H 0.52006 0.73016 0.33253 0.0
H448 H 0.58827 0.7269 0.44123 0.0
H449 H 0.64684 0.74397 0.45467 0.0
C450 C 0.14334 0.66152 0.34588 0.0
C451 C 0.16509 0.65064 0.39042 0.0
C452 C 0.1906 0.57183 0.35967 0.0
C453 C 0.16623 0.58156 0.31624 0.0
N454 N 0.12972 0.63818 0.26282 0.0
N455 N 0.21783 0.60133 0.4373 0.0
C456 C 0.14641 0.62757 0.30752 0.0
C457 C 0.19186 0.60771 0.39627 0.0
N458 N 0.11672 0.70258 0.34158 0.0
N459 N 0.21049 0.5274 0.3665 0.0
H460 H 0.21873 0.62703 0.46477 0.0
H461 H 0.24133 0.57285 0.44281 0.0
H462 H 0.21208 0.50124 0.33947 0.0
H463 H 0.22411 0.51559 0.39902 0.0
H464 H 0.09509 0.71009 0.31222 0.0
H465 H 0.11472 0.72867 0.36862 0.0
H466 H 0.11903 0.67245 0.25254 0.0
H467 H 0.13008 0.6132 0.23469 0.0
C468 C 0.3052 0.83941 0.62676 0.0
C469 C 0.31323 0.81259 0.58406 0.0
C470 C 0.39292 0.78886 0.61159 0.0
C471 C 0.38583 0.81725 0.65347 0.0
N472 N 0.33374 0.86209 0.70616 0.0
N473 N 0.35753 0.75183 0.54088 0.0
C474 C 0.34114 0.83975 0.66294 0.0
C475 C 0.35484 0.78393 0.57821 0.0
N476 N 0.26428 0.86625 0.63147 0.0
N477 N 0.43681 0.76854 0.60282 0.0
H478 H 0.32996 0.74757 0.5159 0.0
H479 H 0.38489 0.72659 0.53697 0.0
H480 H 0.46482 0.76959 0.62762 0.0
H481 H 0.44627 0.75244 0.57034 0.0
H482 H 0.25815 0.89076 0.65919 0.0
H483 H 0.23669 0.86542 0.60623 0.0
H484 H 0.30089 0.87607 0.71726 0.0
H485 H 0.35994 0.86348 0.73282 0.0
C486 C 0.18961 0.29178 0.65001 0.0
C487 C 0.20712 0.30567 0.60443 0.0
C488 C 0.24101 0.37938 0.63854 0.0
C489 C 0.21541 0.36974 0.68109 0.0
N490 N 0.18043 0.31307 0.73455 0.0
N491 N 0.25927 0.35489 0.55654 0.0
C492 C 0.19547 0.32399 0.68937 0.0
C493 C 0.23686 0.34672 0.59934 0.0
N494 N 0.16473 0.24967 0.65454 0.0
N495 N 0.26605 0.42151 0.63521 0.0
H496 H 0.25638 0.33121 0.52745 0.0
H497 H 0.28222 0.38358 0.55002 0.0
H498 H 0.26965 0.44487 0.66449 0.0
H499 H 0.28369 0.4332 0.60462 0.0
H500 H 0.14783 0.23878 0.68586 0.0
H501 H 0.1604 0.22539 0.62615 0.0
H502 H 0.16704 0.27971 0.74461 0.0
H503 H 0.18472 0.33741 0.76296 0.0
C504 C 0.65606 0.18444 0.67564 0.0
C505 C 0.6113 0.20465 0.66246 0.0
C506 C 0.6446 0.23221 0.58664 0.0
C507 C 0.68673 0.20587 0.59683 0.0
N508 N 0.74016 0.17226 0.65478 0.0
N509 N 0.56681 0.26056 0.61458 0.0
C510 C 0.6952 0.18773 0.64313 0.0
C511 C 0.60714 0.23342 0.62108 0.0
N512 N 0.65988 0.15907 0.71718 0.0
N513 N 0.63953 0.25299 0.54271 0.0
H514 H 0.53886 0.2613 0.63954 0.0
H515 H 0.56251 0.28496 0.58685 0.0
H516 H 0.66747 0.25359 0.51774 0.0
H517 H 0.6079 0.26846 0.53048 0.0
H518 H 0.69003 0.13927 0.72668 0.0
H519 H 0.6318 0.15651 0.74178 0.0
H520 H 0.75006 0.16142 0.68898 0.0
H521 H 0.76873 0.17441 0.63064 0.0
C522 C 0.71324 0.61917 0.66703 0.0
C523 C 0.7494 0.62663 0.70181 0.0
C524 C 0.76335 0.70776 0.67227 0.0
C525 C 0.73838 0.69435 0.63025 0.0
N526 N 0.67895 0.6457 0.5914 0.0
N527 N 0.79913 0.68064 0.747 0.0
C528 C 0.70841 0.65334 0.62978 0.0
C529 C 0.77021 0.67261 0.7083 0.0
N530 N 0.68649 0.57804 0.66816 0.0
N531 N 0.78286 0.7527 0.67555 0.0
H532 H 0.80332 0.65481 0.77364 0.0
H533 H 0.81844 0.71214 0.753 0.0
H534 H 0.77794 0.77803 0.6486 0.0
H535 H 0.80106 0.76583 0.70543 0.0
H536 H 0.65855 0.57029 0.64467 0.0
H537 H 0.69082 0.55258 0.69504 0.0
H538 H 0.65788 0.6152 0.58635 0.0
H539 H 0.67588 0.67105 0.56415 0.0
C540 C 0.32194 0.27365 0.16703 0.0
C541 C 0.36565 0.27965 0.19213 0.0
C542 C 0.33991 0.358 0.22242 0.0
C543 C 0.29933 0.35497 0.1919 0.0
N544 N 0.24332 0.30623 0.14753 0.0
N545 N 0.40907 0.31731 0.25647 0.0
C546 C 0.28716 0.31107 0.16888 0.0
C547 C 0.37174 0.31822 0.22482 0.0
N548 N 0.31557 0.23352 0.13916 0.0
N549 N 0.34945 0.40003 0.24637 0.0
H550 H 0.43289 0.28842 0.25793 0.0
H551 H 0.41393 0.34262 0.28373 0.0
H552 H 0.32602 0.42933 0.24598 0.0
H553 H 0.38104 0.40665 0.26517 0.0
H554 H 0.28689 0.22847 0.11581 0.0
H555 H 0.34027 0.20525 0.13906 0.0
H556 H 0.23071 0.27421 0.13262 0.0
H557 H 0.21788 0.33379 0.14803 0.0
C558 C 0.26448 0.68753 0.76186 0.0
C559 C 0.27753 0.6425 0.74188 0.0
C560 C 0.3475 0.67859 0.70384 0.0
C561 C 0.34173 0.71842 0.73501 0.0
N562 N 0.28926 0.77008 0.77923 0.0
N563 N 0.32147 0.59731 0.68285 0.0
C564 C 0.29714 0.72658 0.75767 0.0
C565 C 0.31507 0.63927 0.70782 0.0
N566 N 0.22296 0.69116 0.78765 0.0
N567 N 0.3868 0.67701 0.6747 0.0
H568 H 0.29767 0.56851 0.68621 0.0
H569 H 0.34901 0.5912 0.65838 0.0
H570 H 0.41122 0.70548 0.67395 0.0
H571 H 0.39444 0.64918 0.65074 0.0
H572 H 0.21118 0.72244 0.80462 0.0
H573 H 0.19944 0.66209 0.79079 0.0
H574 H 0.25799 0.77944 0.79743 0.0
H575 H 0.31478 0.79752 0.7773 0.0
C576 C 0.36077 0.39557 0.7584 0.0
C577 C 0.31738 0.39175 0.78445 0.0
C578 C 0.34025 0.31116 0.81112 0.0
C579 C 0.387 0.31928 0.79289 0.0
N580 N 0.44253 0.36752 0.74755 0.0
N581 N 0.2635 0.34609 0.83395 0.0
C582 C 0.39727 0.36068 0.76531 0.0
C583 C 0.30589 0.34903 0.80943 0.0
N584 N 0.36673 0.43274 0.72721 0.0
N585 N 0.32922 0.26759 0.83058 0.0
H586 H 0.23718 0.37273 0.83227 0.0
H587 H 0.25506 0.31845 0.85741 0.0
H588 H 0.35428 0.23984 0.83322 0.0
H589 H 0.29467 0.25755 0.84061 0.0
H590 H 0.3957 0.43561 0.7038 0.0
H591 H 0.34019 0.45862 0.72171 0.0
H592 H 0.45404 0.39946 0.7321 0.0
H593 H 0.46952 0.34162 0.75003 0.0
C594 C 0.66895 0.35321 0.73417 0.0
C595 C 0.70736 0.34867 0.76679 0.0
C596 C 0.67723 0.27081 0.79263 0.0
C597 C 0.63314 0.28227 0.77047 0.0
N598 N 0.58795 0.32845 0.7135 0.0
N599 N 0.75634 0.29948 0.81679 0.0
C600 C 0.62989 0.32069 0.73759 0.0
C601 C 0.71481 0.30526 0.79157 0.0
N602 N 0.6688 0.39043 0.70259 0.0
N603 N 0.68163 0.22825 0.81632 0.0
H604 H 0.78398 0.32484 0.81511 0.0
H605 H 0.76364 0.27036 0.83876 0.0
H606 H 0.65374 0.20315 0.81721 0.0
H607 H 0.71306 0.21653 0.83253 0.0
H608 H 0.6435 0.39455 0.67554 0.0
H609 H 0.69666 0.41538 0.70133 0.0
H610 H 0.58117 0.35852 0.69265 0.0
H611 H 0.55893 0.30485 0.71536 0.0
C612 C 0.61466 0.5787 0.77528 0.0
C613 C 0.65756 0.59052 0.8 0.0
C614 C 0.62635 0.67041 0.81996 0.0
C615 C 0.58247 0.65759 0.79739 0.0
N616 N 0.53956 0.60699 0.74168 0.0
N617 N 0.71 0.65034 0.83426 0.0
C618 C 0.5782 0.61402 0.7711 0.0
C619 C 0.66544 0.63756 0.81816 0.0
N620 N 0.60828 0.53321 0.75729 0.0
N621 N 0.62959 0.71239 0.84568 0.0
H622 H 0.73887 0.62644 0.83436 0.0
H623 H 0.71947 0.68541 0.84362 0.0
H624 H 0.60189 0.73755 0.84754 0.0
H625 H 0.65861 0.7212 0.86753 0.0
H626 H 0.57569 0.52046 0.74409 0.0
H627 H 0.63536 0.50727 0.75737 0.0
H628 H 0.53626 0.57789 0.71818 0.0
H629 H 0.51272 0.63282 0.73752 0.0
C630 C 0.64701 0.69882 0.18944 0.0
C631 C 0.60493 0.68527 0.21418 0.0
C632 C 0.63969 0.60795 0.2349 0.0
C633 C 0.678 0.61812 0.20312 0.0
N634 N 0.72729 0.67603 0.163 0.0
N635 N 0.56721 0.63721 0.27418 0.0
C636 C 0.68508 0.66504 0.18528 0.0
C637 C 0.60395 0.64348 0.24245 0.0
N638 N 0.64848 0.74239 0.16725 0.0
N639 N 0.63557 0.56312 0.25424 0.0
H640 H 0.54024 0.66298 0.27849 0.0
H641 H 0.56537 0.60904 0.29843 0.0
H642 H 0.66165 0.53659 0.24934 0.0
H643 H 0.60602 0.55158 0.27386 0.0
H644 H 0.67612 0.75348 0.14484 0.0
H645 H 0.62092 0.76756 0.17142 0.0
H646 H 0.7361 0.71017 0.15081 0.0
H647 H 0.7551 0.65101 0.15979 0.0
C648 C 0.3528 0.63255 0.24976 0.0
C649 C 0.35037 0.66846 0.21413 0.0
C650 C 0.26684 0.64877 0.19785 0.0
C651 C 0.27361 0.6066 0.22454 0.0
N652 N 0.31137 0.56685 0.2898 0.0
N653 N 0.30389 0.71922 0.16228 0.0
C654 C 0.31249 0.60224 0.25626 0.0
C655 C 0.30635 0.68026 0.19172 0.0
N656 N 0.39456 0.62562 0.27439 0.0
N657 N 0.2238 0.65574 0.17567 0.0
H658 H 0.33281 0.74256 0.15748 0.0
H659 H 0.27348 0.72918 0.14322 0.0
H660 H 0.1956 0.63134 0.17984 0.0
H661 H 0.21522 0.6856 0.15523 0.0
H662 H 0.40009 0.59791 0.29855 0.0
H663 H 0.42432 0.64806 0.27024 0.0
H664 H 0.33767 0.56182 0.31572 0.0
H665 H 0.2816 0.54426 0.29306 0.0
C666 C 0.60522 0.33516 0.21185 0.0
C667 C 0.61404 0.29436 0.18232 0.0
C668 C 0.6934 0.32482 0.16123 0.0
C669 C 0.6817 0.36828 0.18535 0.0
N670 N 0.63577 0.41016 0.24544 0.0
N671 N 0.66981 0.24261 0.14134 0.0
C672 C 0.64081 0.37153 0.21522 0.0
C673 C 0.65971 0.28637 0.16159 0.0
N674 N 0.5616 0.34028 0.23384 0.0
N675 N 0.73535 0.32175 0.13598 0.0
H676 H 0.64504 0.21442 0.14136 0.0
H677 H 0.70333 0.23298 0.12788 0.0
H678 H 0.76104 0.34912 0.13689 0.0
H679 H 0.74447 0.29301 0.11366 0.0
H680 H 0.55055 0.37136 0.25172 0.0
H681 H 0.53548 0.31336 0.23294 0.0
H682 H 0.60861 0.41344 0.27087 0.0
H683 H 0.66141 0.43748 0.24754 0.0
C684 C 0.12596 0.97294 0.42956 0.0
C685 C 0.12632 0.94204 0.46913 0.0
C686 C 0.13324 0.00963 0.52417 0.0
C687 C 0.14698 0.03795 0.48458 0.0
N688 N 0.14706 0.05189 0.39941 0.0
N689 N 0.10444 0.93172 0.55129 0.0
C690 C 0.13843 0.02188 0.43696 0.0
C691 C 0.1201 0.96105 0.51565 0.0
N692 N 0.11793 0.95366 0.3852 0.0
N693 N 0.13665 0.02825 0.56948 0.0
H694 H 0.09423 0.8963 0.54416 0.0
H695 H 0.09756 0.94329 0.58618 0.0
H696 H 0.14589 0.06416 0.5758 0.0
H697 H 0.13133 0.00837 0.60045 0.0
H698 H 0.11598 0.97359 0.35389 0.0
H699 H 0.1102 0.91703 0.38102 0.0
H700 H 0.14479 0.04156 0.36358 0.0
H701 H 0.15725 0.08769 0.40438 0.0
C702 C 0.02755 0.13267 0.43485 0.0
C703 C 0.04956 0.13845 0.48015 0.0
C704 C 0.97363 0.12432 0.52064 0.0
C705 C 0.95077 0.13124 0.47613 0.0
N706 N 0.95258 0.12379 0.3908 0.0
N707 N 0.04921 0.12393 0.5646 0.0
C708 C 0.97698 0.12746 0.43302 0.0
C709 C 0.02445 0.12746 0.52262 0.0
N710 N 0.05465 0.13707 0.39431 0.0
N711 N 0.94615 0.11997 0.56084 0.0
H712 H 0.08651 0.12734 0.56563 0.0
H713 H 0.03369 0.1156 0.59741 0.0
H714 H 0.9088 0.11859 0.55872 0.0
H715 H 0.95968 0.11735 0.59542 0.0
H716 H 0.04092 0.1364 0.35969 0.0
H717 H 0.09179 0.14167 0.39585 0.0
H718 H 0.96877 0.11986 0.3574 0.0
H719 H 0.91514 0.12243 0.39015 0.0
C720 C 0.85753 0.00462 0.44901 0.0
C721 C 0.84632 0.031 0.49124 0.0
C722 C 0.85606 0.95841 0.53881 0.0
C723 C 0.85225 0.93148 0.49608 0.0
N724 N 0.8695 0.92515 0.41273 0.0
N725 N 0.8443 0.03642 0.57722 0.0
C726 C 0.86158 0.95369 0.45191 0.0
C727 C 0.85053 0.00917 0.53676 0.0
N728 N 0.85956 0.02798 0.40624 0.0
N729 N 0.86019 0.93438 0.58097 0.0
H730 H 0.83945 0.07363 0.57577 0.0
H731 H 0.84307 0.0225 0.61168 0.0
H732 H 0.86233 0.89685 0.58135 0.0
H733 H 0.86453 0.95108 0.61419 0.0
H734 H 0.86542 0.01112 0.37335 0.0
H735 H 0.85547 0.06522 0.40417 0.0
H736 H 0.87663 0.9379 0.37852 0.0
H737 H 0.87087 0.88775 0.41594 0.0
C738 C 0.00707 0.80911 0.45946 0.0
C739 C 0.03225 0.8051 0.50336 0.0
C740 C 0.95692 0.80792 0.54825 0.0
C741 C 0.93208 0.80255 0.50441 0.0
N742 N 0.9307 0.80113 0.41823 0.0
N743 N 0.03366 0.80725 0.58957 0.0
C744 C 0.95626 0.80543 0.45987 0.0
C745 C 0.00786 0.80728 0.54791 0.0
N746 N 0.03182 0.81527 0.41761 0.0
N747 N 0.93137 0.8127 0.58988 0.0
H748 H 0.071 0.81003 0.59 0.0
H749 H 0.01867 0.80382 0.6235 0.0
H750 H 0.89389 0.81308 0.59034 0.0
H751 H 0.94661 0.81954 0.62324 0.0
H752 H 0.01558 0.82269 0.38494 0.0
H753 H 0.06918 0.81642 0.41594 0.0
H754 H 0.94617 0.79705 0.3845 0.0
H755 H 0.89325 0.79996 0.41766 0.0
C756 C 0.45479 0.11827 0.94701 0.0
C757 C 0.4997 0.12539 0.92488 0.0
C758 C 0.54042 0.12086 0.00174 0.0
C759 C 0.49519 0.12708 0.02402 0.0
N760 N 0.40976 0.11765 0.02195 0.0
N761 N 0.58453 0.11393 0.92643 0.0
C762 C 0.45236 0.11938 -0.00212 0.0
C763 C 0.54238 0.11844 0.95094 0.0
N764 N 0.41484 0.11501 0.91896 0.0
N765 N 0.58102 0.12259 0.02904 0.0
H766 H 0.58513 0.1138 0.88901 0.0
H767 H 0.61764 0.10768 0.94242 0.0
H768 H 0.57943 0.12523 0.06636 0.0
H769 H 0.6157 0.12179 0.01527 0.0
H770 H 0.38012 0.1108 0.93192 0.0
H771 H 0.4175 0.11495 0.88163 0.0
H772 H 0.37643 0.11346 0.0057 0.0
H773 H 0.40847 0.11947 0.05929 0.0
C774 C 0.85595 0.44653 0.96423 0.0
C775 C 0.84927 0.48789 0.93621 0.0
C776 C 0.84939 0.53826 0.00798 0.0
C777 C 0.84032 0.49629 0.03468 0.0
N778 N 0.84377 0.41025 0.04209 0.0
N779 N 0.85448 0.57338 0.92844 0.0
C780 C 0.84856 0.45019 0.01436 0.0
C781 C 0.85293 0.53408 0.95733 0.0
N782 N 0.86457 0.40363 0.94178 0.0
N783 N 0.85094 0.58168 0.03113 0.0
H784 H 0.85666 0.56971 0.89127 0.0
H785 H 0.85371 0.6088 0.94071 0.0
H786 H 0.84715 0.58427 0.0683 0.0
H787 H 0.85843 0.61416 0.01447 0.0
H788 H 0.87203 0.37179 0.95965 0.0
H789 H 0.86738 0.4014 0.90453 0.0
H790 H 0.84496 0.37515 0.0289 0.0
H791 H 0.83707 0.41267 0.0788 0.0
C792 C 0.42132 0.82433 0.02413 0.0
C793 C 0.46698 0.8156 0.04428 0.0
C794 C 0.50522 0.82749 0.96684 0.0
C795 C 0.45946 0.82224 0.94559 0.0
N796 N 0.37392 0.82815 0.95094 0.0
N797 N 0.55301 0.81605 0.03856 0.0
C798 C 0.41733 0.82617 0.97351 0.0
C799 C 0.50933 0.8212 0.01697 0.0
N800 N 0.38218 0.82771 0.05345 0.0
N801 N 0.54445 0.83569 0.93874 0.0
H802 H 0.55639 0.8117 0.07551 0.0
H803 H 0.58547 0.81442 0.02016 0.0
H804 H 0.54185 0.83977 0.90178 0.0
H805 H 0.57861 0.84266 0.95217 0.0
H806 H 0.34765 0.83541 0.04166 0.0
H807 H 0.3852 0.82545 0.09065 0.0
H808 H 0.34094 0.82727 0.96841 0.0
H809 H 0.37149 0.83084 0.91369 0.0
C810 C 0.15167 0.55275 0.96316 0.0
C811 C 0.15585 0.51139 0.93366 0.0
C812 C 0.14339 0.46003 0.00318 0.0
C813 C 0.15294 0.5003 0.03277 0.0
N814 N 0.1596 0.58589 0.04357 0.0
N815 N 0.15012 0.42538 0.92338 0.0
C816 C 0.15328 0.54727 0.01361 0.0
C817 C 0.14805 0.4649 0.95276 0.0
N818 N 0.14884 0.59698 0.94245 0.0
N819 N 0.13293 0.41693 0.02377 0.0
H820 H 0.15346 0.42795 0.8863 0.0
H821 H 0.15025 0.39013 0.93565 0.0
H822 H 0.13112 0.41321 0.0609 0.0
H823 H 0.12229 0.3865 0.00453 0.0
H824 H 0.14276 0.62875 0.96152 0.0
H825 H 0.1488 0.60097 0.90528 0.0
H826 H 0.16545 0.62085 0.03187 0.0
H827 H 0.16055 0.58227 0.08077 0.0
C828 C 0.01836 0.52118 0.11867 0.0
C829 C 0.03657 0.474 0.12289 0.0
C830 C 0.95606 0.44099 0.12698 0.0
C831 C 0.93897 0.48842 0.13474 0.0
N832 N 0.94793 0.57318 0.12258 0.0
N833 N 0.02491 0.39016 0.10836 0.0
C834 C 0.96816 0.52851 0.12407 0.0
C835 C 0.00559 0.43434 0.1175 0.0
N836 N 0.04978 0.55853 0.11462 0.0
N837 N 0.9262 0.40273 0.13409 0.0
H838 H 0.06191 0.38584 0.10408 0.0
H839 H 0.00462 0.35936 0.10168 0.0
H840 H 0.88995 0.40713 0.14243 0.0
H841 H 0.93742 0.36703 0.13346 0.0
H842 H 0.04001 0.59463 0.11459 0.0
H843 H 0.08649 0.55243 0.11073 0.0
H844 H 0.96657 0.60446 0.11429 0.0
H845 H 0.91109 0.57815 0.12747 0.0
C846 C 0.96465 0.45907 0.83655 0.0
C847 C 0.94443 0.50513 0.82843 0.0
C848 C 0.02274 0.54299 0.84003 0.0
C849 C 0.04352 0.49676 0.83676 0.0
N850 N 0.03723 0.41274 0.85193 0.0
N851 N 0.94973 0.59109 0.83542 0.0
C852 C 0.01503 0.45549 0.84323 0.0
C853 C 0.97204 0.54734 0.8358 0.0
N854 N 0.93662 0.41889 0.8327 0.0
N855 N 0.0522 0.58215 0.84266 0.0
H856 H 0.91259 0.59417 0.83153 0.0
H857 H 0.96708 0.62385 0.84046 0.0
H858 H 0.08934 0.5783 0.84562 0.0
H859 H 0.04053 0.61767 0.84296 0.0
H860 H 0.94978 0.38389 0.83357 0.0
H861 H 0.89964 0.42066 0.82736 0.0
H862 H 0.0192 0.38092 0.85959 0.0
H863 H 0.07453 0.41065 0.85479 0.0
C864 C 0.44295 0.00933 0.8103 0.0
C865 C 0.48665 0.03497 0.80681 0.0
C866 C 0.53205 0.96187 0.82334 0.0
C867 C 0.48938 0.93516 0.8164 0.0
N868 N 0.40341 0.93142 0.80843 0.0
N869 N 0.57262 0.03855 0.81387 0.0
C870 C 0.44429 0.95834 0.81275 0.0
C871 C 0.53118 0.01231 0.8159 0.0
N872 N 0.40055 0.03403 0.80975 0.0
N873 N 0.5732 0.93855 0.83612 0.0
H874 H 0.57264 0.07581 0.80954 0.0
H875 H 0.60683 0.0236 0.81479 0.0
H876 H 0.57414 0.90147 0.84171 0.0
H877 H 0.60507 0.95598 0.84504 0.0
H878 H 0.36716 0.01829 0.81548 0.0
H879 H 0.39931 0.07146 0.80714 0.0
H880 H 0.36991 0.94556 0.80014 0.0
H881 H 0.40331 0.89406 0.81179 0.0
C882 C 0.51283 0.94322 0.12554 0.0
C883 C 0.46628 0.92699 0.13786 0.0
C884 C 0.43387 0.00766 0.12886 0.0
C885 C 0.48158 0.02488 0.12772 0.0
N886 N 0.56331 0.01181 0.10549 0.0
N887 N 0.38122 0.93783 0.13293 0.0
C888 C 0.51985 -0.00684 0.11796 0.0
C889 C 0.42614 0.95734 0.13197 0.0
N890 N 0.55051 0.91185 0.12622 0.0
N891 N 0.39701 0.03981 0.1327 0.0
H892 H 0.37609 0.9008 0.13652 0.0
H893 H 0.34992 0.95727 0.1269 0.0
H894 H 0.40299 0.07684 0.13132 0.0
H895 H 0.36134 0.03023 0.13822 0.0
H896 H 0.58621 0.92195 0.12202 0.0
H897 H 0.54573 0.87517 0.13196 0.0
H898 H 0.59291 -0.00887 0.09566 0.0
H899 H 0.56802 0.04887 0.10191 0.0
loop_
_geom_bond_atom_site_label_1
_geom_bond_atom_site_label_2
_geom_bond_distance
_geom_bond_site_symmetry_2
_ccdc_geom_bond_type
Zn0 O6 1.920 . S
Zn0 O12 1.898 . S
Zn0 O15 1.905 . S
Zn1 O9 1.905 . S
Zn1 O10 1.898 . S
Zn1 O18 1.920 . S
Zn2 O5 2.080 . S
Zn2 O8 2.114 . S
Zn2 O11 2.120 . S
Zn2 O13 2.120 . S
Zn2 O14 2.114 . S
Zn2 O17 2.080 . S
C3 O8 1.166 . S
C3 O9 1.182 . S
C4 O10 1.167 . S
C4 O11 1.299 . S
O5 Zn2 2.080 . S
O5 C19 1.305 . S
O6 Zn0 1.920 . S
O6 C19 1.234 . S
C7 O12 1.167 . S
C7 O13 1.299 . S
O8 Zn2 2.114 . S
O8 C3 1.166 . S
O9 Zn1 1.905 . S
O9 C3 1.182 . S
O10 Zn1 1.898 . S
O10 C4 1.167 . S
O11 Zn2 2.120 . S
O11 C4 1.299 . S
O12 Zn0 1.898 . S
O12 C7 1.167 . S
O13 Zn2 2.120 . S
O13 C7 1.299 . S
O14 Zn2 2.114 . S
O14 C16 1.166 . S
O15 Zn0 1.905 . S
O15 C16 1.182 . S
C16 O14 1.166 . S
C16 O15 1.182 . S
O17 Zn2 2.080 . S
O17 C20 1.305 . S
O18 Zn1 1.920 . S
O18 C20 1.234 . S
C19 O5 1.305 . S
C19 O6 1.234 . S
C20 O17 1.305 . S
C20 O18 1.234 . S
Zn21 O27 1.920 . S
Zn21 O33 1.898 . S
Zn21 O36 1.905 . S
Zn22 O30 1.905 . S
Zn22 O31 1.898 . S
Zn22 O39 1.920 . S
Zn23 O26 2.080 . S
Zn23 O29 2.114 . S
Zn23 O32 2.120 . S
Zn23 O34 2.120 . S
Zn23 O35 2.114 . S
Zn23 O38 2.080 . S
C24 O29 1.166 . S
C24 O30 1.182 . S
C25 O31 1.167 . S
C25 O32 1.299 . S
O26 Zn23 2.080 . S
O26 C40 1.305 . S
O27 Zn21 1.920 . S
O27 C40 1.234 . S
C28 O33 1.167 . S
C28 O34 1.299 . S
O29 Zn23 2.114 . S
O29 C24 1.166 . S
O30 Zn22 1.905 . S
O30 C24 1.182 . S
O31 Zn22 1.898 . S
O31 C25 1.167 . S
O32 Zn23 2.120 . S
O32 C25 1.299 . S
O33 Zn21 1.898 . S
O33 C28 1.167 . S
O34 Zn23 2.120 . S
O34 C28 1.299 . S
O35 Zn23 2.114 . S
O35 C37 1.166 . S
O36 Zn21 1.905 . S
O36 C37 1.182 . S
C37 O35 1.166 . S
C37 O36 1.182 . S
O38 Zn23 2.080 . S
O38 C41 1.305 . S
O39 Zn22 1.920 . S
O39 C41 1.234 . S
C40 O26 1.305 . S
C40 O27 1.234 . S
C41 O38 1.305 . S
C41 O39 1.234 . S
Zn42 O48 1.920 . S
Zn42 O54 1.898 . S
Zn42 O57 1.905 . S
Zn43 O51 1.905 . S
Zn43 O52 1.898 . S
Zn43 O60 1.920 . S
Zn44 O47 2.080 . S
Zn44 O50 2.114 . S
Zn44 O53 2.120 . S
Zn44 O55 2.120 . S
Zn44 O56 2.114 . S
Zn44 O59 2.080 . S
C45 O50 1.166 . S
C45 O51 1.182 . S
C46 O52 1.167 . S
C46 O53 1.299 . S
O47 Zn44 2.080 . S
O47 C61 1.305 . S
O48 Zn42 1.920 . S
O48 C61 1.234 . S
C49 O54 1.167 . S
C49 O55 1.299 . S
O50 Zn44 2.114 . S
O50 C45 1.166 . S
O51 Zn43 1.905 . S
O51 C45 1.182 . S
O52 Zn43 1.898 . S
O52 C46 1.167 . S
O53 Zn44 2.120 . S
O53 C46 1.299 . S
O54 Zn42 1.898 . S
O54 C49 1.167 . S
O55 Zn44 2.120 . S
O55 C49 1.299 . S
O56 Zn44 2.114 . S
O56 C58 1.166 . S
O57 Zn42 1.905 . S
O57 C58 1.182 . S
C58 O56 1.166 . S
C58 O57 1.182 . S
O59 Zn44 2.080 . S
O59 C62 1.305 . S
O60 Zn43 1.920 . S
O60 C62 1.234 . S
C61 O47 1.305 . S
C61 O48 1.234 . S
C62 O59 1.305 . S
C62 O60 1.234 . S
Zn63 O69 1.920 . S
Zn63 O75 1.898 . S
Zn63 O78 1.905 . S
Zn64 O72 1.905 . S
Zn64 O73 1.898 . S
Zn64 O81 1.920 . S
Zn65 O68 2.080 . S
Zn65 O71 2.114 . S
Zn65 O74 2.120 . S
Zn65 O76 2.120 . S
Zn65 O77 2.114 . S
Zn65 O80 2.080 . S
C66 O71 1.166 . S
C66 O72 1.182 . S
C67 O73 1.167 . S
C67 O74 1.299 . S
O68 Zn65 2.080 . S
O68 C82 1.305 . S
O69 Zn63 1.920 . S
O69 C82 1.234 . S
C70 O75 1.167 . S
C70 O76 1.299 . S
O71 Zn65 2.114 . S
O71 C66 1.166 . S
O72 Zn64 1.905 . S
O72 C66 1.182 . S
O73 Zn64 1.898 . S
O73 C67 1.167 . S
O74 Zn65 2.120 . S
O74 C67 1.299 . S
O75 Zn63 1.898 . S
O75 C70 1.167 . S
O76 Zn65 2.120 . S
O76 C70 1.299 . S
O77 Zn65 2.114 . S
O77 C79 1.166 . S
O78 Zn63 1.905 . S
O78 C79 1.182 . S
C79 O77 1.166 . S
C79 O78 1.182 . S
O80 Zn65 2.080 . S
O80 C83 1.305 . S
O81 Zn64 1.920 . S
O81 C83 1.234 . S
C82 O68 1.305 . S
C82 O69 1.234 . S
C83 O80 1.305 . S
C83 O81 1.234 . S
Zn84 O90 1.920 . S
Zn84 O96 1.898 . S
Zn84 O99 1.905 . S
Zn85 O93 1.905 . S
Zn85 O94 1.898 . S
Zn85 O102 1.920 . S
Zn86 O89 2.080 . S
Zn86 O92 2.114 . S
Zn86 O95 2.120 . S
Zn86 O97 2.120 . S
Zn86 O98 2.114 . S
Zn86 O101 2.080 . S
C87 O92 1.166 . S
C87 O93 1.182 . S
C88 O94 1.167 . S
C88 O95 1.299 . S
O89 Zn86 2.080 . S
O89 C103 1.305 . S
O90 Zn84 1.920 . S
O90 C103 1.234 . S
C91 O96 1.167 . S
C91 O97 1.299 . S
O92 Zn86 2.114 . S
O92 C87 1.166 . S
O93 Zn85 1.905 . S
O93 C87 1.182 . S
O94 Zn85 1.898 . S
O94 C88 1.167 . S
O95 Zn86 2.120 . S
O95 C88 1.299 . S
O96 Zn84 1.898 . S
O96 C91 1.167 . S
O97 Zn86 2.120 . S
O97 C91 1.299 . S
O98 Zn86 2.114 . S
O98 C100 1.166 . S
O99 Zn84 1.905 . S
O99 C100 1.182 . S
C100 O98 1.166 . S
C100 O99 1.182 . S
O101 Zn86 2.080 . S
O101 C104 1.305 . S
O102 Zn85 1.920 . S
O102 C104 1.234 . S
C103 O89 1.305 . S
C103 O90 1.234 . S
C104 O101 1.305 . S
C104 O102 1.234 . S
Zn105 O111 1.920 . S
Zn105 O117 1.898 . S
Zn105 O120 1.905 . S
Zn106 O114 1.905 . S
Zn106 O115 1.898 . S
Zn106 O123 1.920 . S
Zn107 O110 2.080 . S
Zn107 O113 2.114 . S
Zn107 O116 2.120 . S
Zn107 O118 2.120 . S
Zn107 O119 2.114 . S
Zn107 O122 2.080 . S
C108 O113 1.166 . S
C108 O114 1.182 . S
C109 O115 1.167 . S
C109 O116 1.299 . S
O110 Zn107 2.080 . S
O110 C124 1.305 . S
O111 Zn105 1.920 . S
O111 C124 1.234 . S
C112 O117 1.167 . S
C112 O118 1.299 . S
O113 Zn107 2.114 . S
O113 C108 1.166 . S
O114 Zn106 1.905 . S
O114 C108 1.182 . S
O115 Zn106 1.898 . S
O115 C109 1.167 . S
O116 Zn107 2.120 . S
O116 C109 1.299 . S
O117 Zn105 1.898 . S
O117 C112 1.167 . S
O118 Zn107 2.120 . S
O118 C112 1.299 . S
O119 Zn107 2.114 . S
O119 C121 1.166 . S
O120 Zn105 1.905 . S
O120 C121 1.182 . S
C121 O119 1.166 . S
C121 O120 1.182 . S
O122 Zn107 2.080 . S
O122 C125 1.305 . S
O123 Zn106 1.920 . S
O123 C125 1.234 . S
C124 O110 1.305 . S
C124 O111 1.234 . S
C125 O122 1.305 . S
C125 O123 1.234 . S
Zn126 O132 1.920 . S
Zn126 O138 1.898 . S
Zn126 O141 1.905 . S
Zn127 O135 1.905 . S
Zn127 O136 1.898 . S
Zn127 O144 1.920 . S
Zn128 O131 2.080 . S
Zn128 O134 2.114 . S
Zn128 O137 2.120 . S
Zn128 O139 2.120 . S
Zn128 O140 2.114 . S
Zn128 O143 2.080 . S
C129 O134 1.166 . S
C129 O135 1.182 . S
C130 O136 1.167 . S
C130 O137 1.299 . S
O131 Zn128 2.080 . S
O131 C145 1.305 . S
O132 Zn126 1.920 . S
O132 C145 1.234 . S
C133 O138 1.167 . S
C133 O139 1.299 . S
O134 Zn128 2.114 . S
O134 C129 1.166 . S
O135 Zn127 1.905 . S
O135 C129 1.182 . S
O136 Zn127 1.898 . S
O136 C130 1.167 . S
O137 Zn128 2.120 . S
O137 C130 1.299 . S
O138 Zn126 1.898 . S
O138 C133 1.167 . S
O139 Zn128 2.120 . S
O139 C133 1.299 . S
O140 Zn128 2.114 . S
O140 C142 1.166 . S
O141 Zn126 1.905 . S
O141 C142 1.182 . S
C142 O140 1.166 . S
C142 O141 1.182 . S
O143 Zn128 2.080 . S
O143 C146 1.305 . S
O144 Zn127 1.920 . S
O144 C146 1.234 . S
C145 O131 1.305 . S
C145 O132 1.234 . S
C146 O143 1.305 . S
C146 O144 1.234 . S
Zn147 O153 1.920 . S
Zn147 O159 1.898 . S
Zn147 O162 1.905 . S
Zn148 O156 1.905 . S
Zn148 O157 1.898 . S
Zn148 O165 1.920 . S
Zn149 O152 2.080 . S
Zn149 O155 2.114 . S
Zn149 O158 2.120 . S
Zn149 O160 2.120 . S
Zn149 O161 2.114 . S
Zn149 O164 2.080 . S
C150 O155 1.166 . S
C150 O156 1.182 . S
C151 O157 1.167 . S
C151 O158 1.299 . S
O152 Zn149 2.080 . S
O152 C166 1.305 . S
O153 Zn147 1.920 . S
O153 C166 1.234 . S
C154 O159 1.167 . S
C154 O160 1.299 . S
O155 Zn149 2.114 . S
O155 C150 1.166 . S
O156 Zn148 1.905 . S
O156 C150 1.182 . S
O157 Zn148 1.898 . S
O157 C151 1.167 . S
O158 Zn149 2.120 . S
O158 C151 1.299 . S
O159 Zn147 1.898 . S
O159 C154 1.167 . S
O160 Zn149 2.120 . S
O160 C154 1.299 . S
O161 Zn149 2.114 . S
O161 C163 1.166 . S
O162 Zn147 1.905 . S
O162 C163 1.182 . S
C163 O161 1.166 . S
C163 O162 1.182 . S
O164 Zn149 2.080 . S
O164 C167 1.305 . S
O165 Zn148 1.920 . S
O165 C167 1.234 . S
C166 O152 1.305 . S
C166 O153 1.234 . S
C167 O164 1.305 . S
C167 O165 1.234 . S
Zn168 O174 1.920 . S
Zn168 O180 1.898 . S
Zn168 O183 1.905 . S
Zn169 O177 1.905 . S
Zn169 O178 1.898 . S
Zn169 O186 1.920 . S
Zn170 O173 2.080 . S
Zn170 O176 2.114 . S
Zn170 O179 2.120 . S
Zn170 O181 2.120 . S
Zn170 O182 2.114 . S
Zn170 O185 2.080 . S
C171 O176 1.166 . S
C171 O177 1.182 . S
C172 O178 1.167 . S
C172 O179 1.299 . S
O173 Zn170 2.080 . S
O173 C187 1.305 . S
O174 Zn168 1.920 . S
O174 C187 1.234 . S
C175 O180 1.167 . S
C175 O181 1.299 . S
O176 Zn170 2.114 . S
O176 C171 1.166 . S
O177 Zn169 1.905 . S
O177 C171 1.182 . S
O178 Zn169 1.898 . S
O178 C172 1.167 . S
O179 Zn170 2.120 . S
O179 C172 1.299 . S
O180 Zn168 1.898 . S
O180 C175 1.167 . S
O181 Zn170 2.120 . S
O181 C175 1.299 . S
O182 Zn170 2.114 . S
O182 C184 1.166 . S
O183 Zn168 1.905 . S
O183 C184 1.182 . S
C184 O182 1.166 . S
C184 O183 1.182 . S
O185 Zn170 2.080 . S
O185 C188 1.305 . S
O186 Zn169 1.920 . S
O186 C188 1.234 . S
C187 O173 1.305 . S
C187 O174 1.234 . S
C188 O185 1.305 . S
C188 O186 1.234 . S
Zn189 O195 1.920 . S
Zn189 O201 1.898 . S
Zn189 O204 1.905 . S
Zn190 O198 1.905 . S
Zn190 O199 1.898 . S
Zn190 O207 1.920 . S
Zn191 O194 2.080 . S
Zn191 O197 2.114 . S
Zn191 O200 2.120 . S
Zn191 O202 2.120 . S
Zn191 O203 2.114 . S
Zn191 O206 2.080 . S
C192 O197 1.166 . S
C192 O198 1.182 . S
C193 O199 1.167 . S
C193 O200 1.299 . S
O194 Zn191 2.080 . S
O194 C208 1.305 . S
O195 Zn189 1.920 . S
O195 C208 1.234 . S
C196 O201 1.167 . S
C196 O202 1.299 . S
O197 Zn191 2.114 . S
O197 C192 1.166 . S
O198 Zn190 1.905 . S
O198 C192 1.182 . S
O199 Zn190 1.898 . S
O199 C193 1.167 . S
O200 Zn191 2.120 . S
O200 C193 1.299 . S
O201 Zn189 1.898 . S
O201 C196 1.167 . S
O202 Zn191 2.120 . S
O202 C196 1.299 . S
O203 Zn191 2.114 . S
O203 C205 1.166 . S
O204 Zn189 1.905 . S
O204 C205 1.182 . S
C205 O203 1.166 . S
C205 O204 1.182 . S
O206 Zn191 2.080 . S
O206 C209 1.305 . S
O207 Zn190 1.920 . S
O207 C209 1.234 . S
C208 O194 1.305 . S
C208 O195 1.234 . S
C209 O206 1.305 . S
C209 O207 1.234 . S
Zn210 O216 1.920 . S
Zn210 O222 1.898 . S
Zn210 O225 1.905 . S
Zn211 O219 1.905 . S
Zn211 O220 1.898 . S
Zn211 O228 1.920 . S
Zn212 O215 2.080 . S
Zn212 O218 2.114 . S
Zn212 O221 2.120 . S
Zn212 O223 2.120 . S
Zn212 O224 2.114 . S
Zn212 O227 2.080 . S
C213 O218 1.166 . S
C213 O219 1.182 . S
C214 O220 1.167 . S
C214 O221 1.299 . S
O215 Zn212 2.080 . S
O215 C229 1.305 . S
O216 Zn210 1.920 . S
O216 C229 1.234 . S
C217 O222 1.167 . S
C217 O223 1.299 . S
O218 Zn212 2.114 . S
O218 C213 1.166 . S
O219 Zn211 1.905 . S
O219 C213 1.182 . S
O220 Zn211 1.898 . S
O220 C214 1.167 . S
O221 Zn212 2.120 . S
O221 C214 1.299 . S
O222 Zn210 1.898 . S
O222 C217 1.167 . S
O223 Zn212 2.120 . S
O223 C217 1.299 . S
O224 Zn212 2.114 . S
O224 C226 1.166 . S
O225 Zn210 1.905 . S
O225 C226 1.182 . S
C226 O224 1.166 . S
C226 O225 1.182 . S
O227 Zn212 2.080 . S
O227 C230 1.305 . S
O228 Zn211 1.920 . S
O228 C230 1.234 . S
C229 O215 1.305 . S
C229 O216 1.234 . S
C230 O227 1.305 . S
C230 O228 1.234 . S
Zn231 O237 1.920 . S
Zn231 O243 1.898 . S
Zn231 O246 1.905 . S
Zn232 O240 1.905 . S
Zn232 O241 1.898 . S
Zn232 O249 1.920 . S
Zn233 O236 2.080 . S
Zn233 O239 2.114 . S
Zn233 O242 2.120 . S
Zn233 O244 2.120 . S
Zn233 O245 2.114 . S
Zn233 O248 2.080 . S
C234 O239 1.166 . S
C234 O240 1.182 . S
C235 O241 1.167 . S
C235 O242 1.299 . S
O236 Zn233 2.080 . S
O236 C250 1.305 . S
O237 Zn231 1.920 . S
O237 C250 1.234 . S
C238 O243 1.167 . S
C238 O244 1.299 . S
O239 Zn233 2.114 . S
O239 C234 1.166 . S
O240 Zn232 1.905 . S
O240 C234 1.182 . S
O241 Zn232 1.898 . S
O241 C235 1.167 . S
O242 Zn233 2.120 . S
O242 C235 1.299 . S
O243 Zn231 1.898 . S
O243 C238 1.167 . S
O244 Zn233 2.120 . S
O244 C238 1.299 . S
O245 Zn233 2.114 . S
O245 C247 1.166 . S
O246 Zn231 1.905 . S
O246 C247 1.182 . S
C247 O245 1.166 . S
C247 O246 1.182 . S
O248 Zn233 2.080 . S
O248 C251 1.305 . S
O249 Zn232 1.920 . S
O249 C251 1.234 . S
C250 O236 1.305 . S
C250 O237 1.234 . S
C251 O248 1.305 . S
C251 O249 1.234 . S
C252 C253 1.363 . S
C252 C258 1.379 . S
C252 N260 1.356 . S
C253 C252 1.363 . S
C253 C259 1.363 . S
C254 C255 1.363 . S
C254 C259 1.379 . S
C254 N261 1.356 . S
C255 C254 1.363 . S
C255 C258 1.363 . S
N256 C258 1.356 . S
N256 H268 0.984 . S
N256 H269 0.985 . S
N257 C259 1.356 . S
N257 H262 0.984 . S
N257 H263 0.985 . S
C258 C252 1.379 . S
C258 C255 1.363 . S
C258 N256 1.356 . S
C259 C253 1.363 . S
C259 C254 1.379 . S
C259 N257 1.356 . S
N260 C252 1.356 . S
N260 H266 0.984 . S
N260 H267 0.984 . S
N261 C254 1.356 . S
N261 H264 0.984 . S
N261 H265 0.985 . S
H262 N257 0.984 . S
H263 N257 0.985 . S
H264 N261 0.984 . S
H265 N261 0.985 . S
H266 N260 0.984 . S
H267 N260 0.984 . S
H268 N256 0.984 . S
H269 N256 0.985 . S
C270 C271 1.363 . S
C270 C276 1.379 . S
C270 N278 1.356 . S
C271 C270 1.363 . S
C271 C277 1.363 . S
C272 C273 1.363 . S
C272 C277 1.379 . S
C272 N279 1.356 . S
C273 C272 1.363 . S
C273 C276 1.363 . S
N274 C276 1.356 . S
N274 H286 0.984 . S
N274 H287 0.985 . S
N275 C277 1.356 . S
N275 H280 0.984 . S
N275 H281 0.985 . S
C276 C270 1.379 . S
C276 C273 1.363 . S
C276 N274 1.356 . S
C277 C271 1.363 . S
C277 C272 1.379 . S
C277 N275 1.356 . S
N278 C270 1.356 . S
N278 H284 0.984 . S
N278 H285 0.984 . S
N279 C272 1.356 . S
N279 H282 0.984 . S
N279 H283 0.985 . S
H280 N275 0.984 . S
H281 N275 0.985 . S
H282 N279 0.984 . S
H283 N279 0.985 . S
H284 N278 0.984 . S
H285 N278 0.984 . S
H286 N274 0.984 . S
H287 N274 0.985 . S
C288 C289 1.363 . S
C288 C294 1.379 . S
C288 N296 1.356 . S
C289 C288 1.363 . S
C289 C295 1.363 . S
C290 C291 1.363 . S
C290 C295 1.379 . S
C290 N297 1.356 . S
C291 C290 1.363 . S
C291 C294 1.363 . S
N292 C294 1.356 . S
N292 H304 0.984 . S
N292 H305 0.985 . S
N293 C295 1.356 . S
N293 H298 0.984 . S
N293 H299 0.985 . S
C294 C288 1.379 . S
C294 C291 1.363 . S
C294 N292 1.356 . S
C295 C289 1.363 . S
C295 C290 1.379 . S
C295 N293 1.356 . S
N296 C288 1.356 . S
N296 H302 0.984 . S
N296 H303 0.984 . S
N297 C290 1.356 . S
N297 H300 0.984 . S
N297 H301 0.985 . S
H298 N293 0.984 . S
H299 N293 0.985 . S
H300 N297 0.984 . S
H301 N297 0.985 . S
H302 N296 0.984 . S
H303 N296 0.984 . S
H304 N292 0.984 . S
H305 N292 0.985 . S
C306 C307 1.363 . S
C306 C312 1.379 . S
C306 N314 1.356 . S
C307 C306 1.363 . S
C307 C313 1.363 . S
C308 C309 1.363 . S
C308 C313 1.379 . S
C308 N315 1.356 . S
C309 C308 1.363 . S
C309 C312 1.363 . S
N310 C312 1.356 . S
N310 H322 0.984 . S
N310 H323 0.985 . S
N311 C313 1.356 . S
N311 H316 0.984 . S
N311 H317 0.985 . S
C312 C306 1.379 . S
C312 C309 1.363 . S
C312 N310 1.356 . S
C313 C307 1.363 . S
C313 C308 1.379 . S
C313 N311 1.356 . S
N314 C306 1.356 . S
N314 H320 0.984 . S
N314 H321 0.984 . S
N315 C308 1.356 . S
N315 H318 0.984 . S
N315 H319 0.985 . S
H316 N311 0.984 . S
H317 N311 0.985 . S
H318 N315 0.984 . S
H319 N315 0.985 . S
H320 N314 0.984 . S
H321 N314 0.984 . S
H322 N310 0.984 . S
H323 N310 0.985 . S
C324 C325 1.363 . S
C324 C330 1.379 . S
C324 N332 1.356 . S
C325 C324 1.363 . S
C325 C331 1.363 . S
C326 C327 1.363 . S
C326 C331 1.379 . S
C326 N333 1.356 . S
C327 C326 1.363 . S
C327 C330 1.363 . S
N328 C330 1.356 . S
N328 H340 0.984 . S
N328 H341 0.985 . S
N329 C331 1.356 . S
N329 H334 0.984 . S
N329 H335 0.985 . S
C330 C324 1.379 . S
C330 C327 1.363 . S
C330 N328 1.356 . S
C331 C325 1.363 . S
C331 C326 1.379 . S
C331 N329 1.356 . S
N332 C324 1.356 . S
N332 H338 0.984 . S
N332 H339 0.984 . S
N333 C326 1.356 . S
N333 H336 0.984 . S
N333 H337 0.985 . S
H334 N329 0.984 . S
H335 N329 0.985 . S
H336 N333 0.984 . S
H337 N333 0.985 . S
H338 N332 0.984 . S
H339 N332 0.984 . S
H340 N328 0.984 . S
H341 N328 0.985 . S
C342 C343 1.363 . S
C342 C348 1.379 . S
C342 N350 1.356 . S
C343 C342 1.363 . S
C343 C349 1.363 . S
C344 C345 1.363 . S
C344 C349 1.379 . S
C344 N351 1.356 . S
C345 C344 1.363 . S
C345 C348 1.363 . S
N346 C348 1.356 . S
N346 H358 0.984 . S
N346 H359 0.985 . S
N347 C349 1.356 . S
N347 H352 0.984 . S
N347 H353 0.985 . S
C348 C342 1.379 . S
C348 C345 1.363 . S
C348 N346 1.356 . S
C349 C343 1.363 . S
C349 C344 1.379 . S
C349 N347 1.356 . S
N350 C342 1.356 . S
N350 H356 0.984 . S
N350 H357 0.984 . S
N351 C344 1.356 . S
N351 H354 0.984 . S
N351 H355 0.985 . S
H352 N347 0.984 . S
H353 N347 0.985 . S
H354 N351 0.984 . S
H355 N351 0.985 . S
H356 N350 0.984 . S
H357 N350 0.984 . S
H358 N346 0.984 . S
H359 N346 0.985 . S
C360 C361 1.363 . S
C360 C366 1.379 . S
C360 N368 1.356 . S
C361 C360 1.363 . S
C361 C367 1.363 . S
C362 C363 1.363 . S
C362 C367 1.379 . S
C362 N369 1.356 . S
C363 C362 1.363 . S
C363 C366 1.363 . S
N364 C366 1.356 . S
N364 H376 0.984 . S
N364 H377 0.985 . S
N365 C367 1.356 . S
N365 H370 0.984 . S
N365 H371 0.985 . S
C366 C360 1.379 . S
C366 C363 1.363 . S
C366 N364 1.356 . S
C367 C361 1.363 . S
C367 C362 1.379 . S
C367 N365 1.356 . S
N368 C360 1.356 . S
N368 H374 0.984 . S
N368 H375 0.984 . S
N369 C362 1.356 . S
N369 H372 0.984 . S
N369 H373 0.985 . S
H370 N365 0.984 . S
H371 N365 0.985 . S
H372 N369 0.984 . S
H373 N369 0.985 . S
H374 N368 0.984 . S
H375 N368 0.984 . S
H376 N364 0.984 . S
H377 N364 0.985 . S
C378 C379 1.363 . S
C378 C384 1.379 . S
C378 N386 1.356 . S
C379 C378 1.363 . S
C379 C385 1.363 . S
C380 C381 1.363 . S
C380 C385 1.379 . S
C380 N387 1.356 . S
C381 C380 1.363 . S
C381 C384 1.363 . S
N382 C384 1.356 . S
N382 H394 0.984 . S
N382 H395 0.985 . S
N383 C385 1.356 . S
N383 H388 0.984 . S
N383 H389 0.985 . S
C384 C378 1.379 . S
C384 C381 1.363 . S
C384 N382 1.356 . S
C385 C379 1.363 . S
C385 C380 1.379 . S
C385 N383 1.356 . S
N386 C378 1.356 . S
N386 H392 0.984 . S
N386 H393 0.984 . S
N387 C380 1.356 . S
N387 H390 0.984 . S
N387 H391 0.985 . S
H388 N383 0.984 . S
H389 N383 0.985 . S
H390 N387 0.984 . S
H391 N387 0.985 . S
H392 N386 0.984 . S
H393 N386 0.984 . S
H394 N382 0.984 . S
H395 N382 0.985 . S
C396 C397 1.363 . S
C396 C402 1.379 . S
C396 N404 1.356 . S
C397 C396 1.363 . S
C397 C403 1.363 . S
C398 C399 1.363 . S
C398 C403 1.379 . S
C398 N405 1.356 . S
C399 C398 1.363 . S
C399 C402 1.363 . S
N400 C402 1.356 . S
N400 H412 0.984 . S
N400 H413 0.985 . S
N401 C403 1.356 . S
N401 H406 0.984 . S
N401 H407 0.985 . S
C402 C396 1.379 . S
C402 C399 1.363 . S
C402 N400 1.356 . S
C403 C397 1.363 . S
C403 C398 1.379 . S
C403 N401 1.356 . S
N404 C396 1.356 . S
N404 H410 0.984 . S
N404 H411 0.984 . S
N405 C398 1.356 . S
N405 H408 0.984 . S
N405 H409 0.985 . S
H406 N401 0.984 . S
H407 N401 0.985 . S
H408 N405 0.984 . S
H409 N405 0.985 . S
H410 N404 0.984 . S
H411 N404 0.984 . S
H412 N400 0.984 . S
H413 N400 0.985 . S
C414 C415 1.363 . S
C414 C420 1.379 . S
C414 N422 1.356 . S
C415 C414 1.363 . S
C415 C421 1.363 . S
C416 C417 1.363 . S
C416 C421 1.379 . S
C416 N423 1.356 . S
C417 C416 1.363 . S
C417 C420 1.363 . S
N418 C420 1.356 . S
N418 H430 0.984 . S
N418 H431 0.985 . S
N419 C421 1.356 . S
N419 H424 0.984 . S
N419 H425 0.985 . S
C420 C414 1.379 . S
C420 C417 1.363 . S
C420 N418 1.356 . S
C421 C415 1.363 . S
C421 C416 1.379 . S
C421 N419 1.356 . S
N422 C414 1.356 . S
N422 H428 0.984 . S
N422 H429 0.984 . S
N423 C416 1.356 . S
N423 H426 0.984 . S
N423 H427 0.985 . S
H424 N419 0.984 . S
H425 N419 0.985 . S
H426 N423 0.984 . S
H427 N423 0.985 . S
H428 N422 0.984 . S
H429 N422 0.984 . S
H430 N418 0.984 . S
H431 N418 0.985 . S
C432 C433 1.363 . S
C432 C438 1.379 . S
C432 N440 1.356 . S
C433 C432 1.363 . S
C433 C439 1.363 . S
C434 C435 1.363 . S
C434 C439 1.379 . S
C434 N441 1.356 . S
C435 C434 1.363 . S
C435 C438 1.363 . S
N436 C438 1.356 . S
N436 H448 0.984 . S
N436 H449 0.985 . S
N437 C439 1.356 . S
N437 H442 0.984 . S
N437 H443 0.985 . S
C438 C432 1.379 . S
C438 C435 1.363 . S
C438 N436 1.356 . S
C439 C433 1.363 . S
C439 C434 1.379 . S
C439 N437 1.356 . S
N440 C432 1.356 . S
N440 H446 0.984 . S
N440 H447 0.984 . S
N441 C434 1.356 . S
N441 H444 0.984 . S
N441 H445 0.985 . S
H442 N437 0.984 . S
H443 N437 0.985 . S
H444 N441 0.984 . S
H445 N441 0.985 . S
H446 N440 0.984 . S
H447 N440 0.984 . S
H448 N436 0.984 . S
H449 N436 0.985 . S
C450 C451 1.363 . S
C450 C456 1.379 . S
C450 N458 1.356 . S
C451 C450 1.363 . S
C451 C457 1.363 . S
C452 C453 1.363 . S
C452 C457 1.379 . S
C452 N459 1.356 . S
C453 C452 1.363 . S
C453 C456 1.363 . S
N454 C456 1.356 . S
N454 H466 0.984 . S
N454 H467 0.985 . S
N455 C457 1.356 . S
N455 H460 0.984 . S
N455 H461 0.985 . S
C456 C450 1.379 . S
C456 C453 1.363 . S
C456 N454 1.356 . S
C457 C451 1.363 . S
C457 C452 1.379 . S
C457 N455 1.356 . S
N458 C450 1.356 . S
N458 H464 0.984 . S
N458 H465 0.984 . S
N459 C452 1.356 . S
N459 H462 0.984 . S
N459 H463 0.985 . S
H460 N455 0.984 . S
H461 N455 0.985 . S
H462 N459 0.984 . S
H463 N459 0.985 . S
H464 N458 0.984 . S
H465 N458 0.984 . S
H466 N454 0.984 . S
H467 N454 0.985 . S
C468 C469 1.363 . S
C468 C474 1.379 . S
C468 N476 1.356 . S
C469 C468 1.363 . S
C469 C475 1.363 . S
C470 C471 1.363 . S
C470 C475 1.379 . S
C470 N477 1.356 . S
C471 C470 1.363 . S
C471 C474 1.363 . S
N472 C474 1.356 . S
N472 H484 0.984 . S
N472 H485 0.985 . S
N473 C475 1.356 . S
N473 H478 0.984 . S
N473 H479 0.985 . S
C474 C468 1.379 . S
C474 C471 1.363 . S
C474 N472 1.356 . S
C475 C469 1.363 . S
C475 C470 1.379 . S
C475 N473 1.356 . S
N476 C468 1.356 . S
N476 H482 0.984 . S
N476 H483 0.984 . S
N477 C470 1.356 . S
N477 H480 0.984 . S
N477 H481 0.985 . S
H478 N473 0.984 . S
H479 N473 0.985 . S
H480 N477 0.984 . S
H481 N477 0.985 . S
H482 N476 0.984 . S
H483 N476 0.984 . S
H484 N472 0.984 . S
H485 N472 0.985 . S
C486 C487 1.363 . S
C486 C492 1.379 . S
C486 N494 1.356 . S
C487 C486 1.363 . S
C487 C493 1.363 . S
C488 C489 1.363 . S
C488 C493 1.379 . S
C488 N495 1.356 . S
C489 C488 1.363 . S
C489 C492 1.363 . S
N490 C492 1.356 . S
N490 H502 0.984 . S
N490 H503 0.985 . S
N491 C493 1.356 . S
N491 H496 0.984 . S
N491 H497 0.985 . S
C492 C486 1.379 . S
C492 C489 1.363 . S
C492 N490 1.356 . S
C493 C487 1.363 . S
C493 C488 1.379 . S
C493 N491 1.356 . S
N494 C486 1.356 . S
N494 H500 0.984 . S
N494 H501 0.984 . S
N495 C488 1.356 . S
N495 H498 0.984 . S
N495 H499 0.985 . S
H496 N491 0.984 . S
H497 N491 0.985 . S
H498 N495 0.984 . S
H499 N495 0.985 . S
H500 N494 0.984 . S
H501 N494 0.984 . S
H502 N490 0.984 . S
H503 N490 0.985 . S
C504 C505 1.363 . S
C504 C510 1.379 . S
C504 N512 1.356 . S
C505 C504 1.363 . S
C505 C511 1.363 . S
C506 C507 1.363 . S
C506 C511 1.379 . S
C506 N513 1.356 . S
C507 C506 1.363 . S
C507 C510 1.363 . S
N508 C510 1.356 . S
N508 H520 0.984 . S
N508 H521 0.985 . S
N509 C511 1.356 . S
N509 H514 0.984 . S
N509 H515 0.985 . S
C510 C504 1.379 . S
C510 C507 1.363 . S
C510 N508 1.356 . S
C511 C505 1.363 . S
C511 C506 1.379 . S
C511 N509 1.356 . S
N512 C504 1.356 . S
N512 H518 0.984 . S
N512 H519 0.984 . S
N513 C506 1.356 . S
N513 H516 0.984 . S
N513 H517 0.985 . S
H514 N509 0.984 . S
H515 N509 0.985 . S
H516 N513 0.984 . S
H517 N513 0.985 . S
H518 N512 0.984 . S
H519 N512 0.984 . S
H520 N508 0.984 . S
H521 N508 0.985 . S
C522 C523 1.363 . S
C522 C528 1.379 . S
C522 N530 1.356 . S
C523 C522 1.363 . S
C523 C529 1.363 . S
C524 C525 1.363 . S
C524 C529 1.379 . S
C524 N531 1.356 . S
C525 C524 1.363 . S
C525 C528 1.363 . S
N526 C528 1.356 . S
N526 H538 0.984 . S
N526 H539 0.985 . S
N527 C529 1.356 . S
N527 H532 0.984 . S
N527 H533 0.985 . S
C528 C522 1.379 . S
C528 C525 1.363 . S
C528 N526 1.356 . S
C529 C523 1.363 . S
C529 C524 1.379 . S
C529 N527 1.356 . S
N530 C522 1.356 . S
N530 H536 0.984 . S
N530 H537 0.984 . S
N531 C524 1.356 . S
N531 H534 0.984 . S
N531 H535 0.985 . S
H532 N527 0.984 . S
H533 N527 0.985 . S
H534 N531 0.984 . S
H535 N531 0.985 . S
H536 N530 0.984 . S
H537 N530 0.984 . S
H538 N526 0.984 . S
H539 N526 0.985 . S
C540 C541 1.363 . S
C540 C546 1.379 . S
C540 N548 1.356 . S
C541 C540 1.363 . S
C541 C547 1.363 . S
C542 C543 1.363 . S
C542 C547 1.379 . S
C542 N549 1.356 . S
C543 C542 1.363 . S
C543 C546 1.363 . S
N544 C546 1.356 . S
N544 H556 0.984 . S
N544 H557 0.985 . S
N545 C547 1.356 . S
N545 H550 0.984 . S
N545 H551 0.985 . S
C546 C540 1.379 . S
C546 C543 1.363 . S
C546 N544 1.356 . S
C547 C541 1.363 . S
C547 C542 1.379 . S
C547 N545 1.356 . S
N548 C540 1.356 . S
N548 H554 0.984 . S
N548 H555 0.984 . S
N549 C542 1.356 . S
N549 H552 0.984 . S
N549 H553 0.985 . S
H550 N545 0.984 . S
H551 N545 0.985 . S
H552 N549 0.984 . S
H553 N549 0.985 . S
H554 N548 0.984 . S
H555 N548 0.984 . S
H556 N544 0.984 . S
H557 N544 0.985 . S
C558 C559 1.363 . S
C558 C564 1.379 . S
C558 N566 1.356 . S
C559 C558 1.363 . S
C559 C565 1.363 . S
C560 C561 1.363 . S
C560 C565 1.379 . S
C560 N567 1.356 . S
C561 C560 1.363 . S
C561 C564 1.363 . S
N562 C564 1.356 . S
N562 H574 0.984 . S
N562 H575 0.985 . S
N563 C565 1.356 . S
N563 H568 0.984 . S
N563 H569 0.985 . S
C564 C558 1.379 . S
C564 C561 1.363 . S
C564 N562 1.356 . S
C565 C559 1.363 . S
C565 C560 1.379 . S
C565 N563 1.356 . S
N566 C558 1.356 . S
N566 H572 0.984 . S
N566 H573 0.984 . S
N567 C560 1.356 . S
N567 H570 0.984 . S
N567 H571 0.985 . S
H568 N563 0.984 . S
H569 N563 0.985 . S
H570 N567 0.984 . S
H571 N567 0.985 . S
H572 N566 0.984 . S
H573 N566 0.984 . S
H574 N562 0.984 . S
H575 N562 0.985 . S
C576 C577 1.363 . S
C576 C582 1.379 . S
C576 N584 1.356 . S
C577 C576 1.363 . S
C577 C583 1.363 . S
C578 C579 1.363 . S
C578 C583 1.379 . S
C578 N585 1.356 . S
C579 C578 1.363 . S
C579 C582 1.363 . S
N580 C582 1.356 . S
N580 H592 0.984 . S
N580 H593 0.985 . S
N581 C583 1.356 . S
N581 H586 0.984 . S
N581 H587 0.985 . S
C582 C576 1.379 . S
C582 C579 1.363 . S
C582 N580 1.356 . S
C583 C577 1.363 . S
C583 C578 1.379 . S
C583 N581 1.356 . S
N584 C576 1.356 . S
N584 H590 0.984 . S
N584 H591 0.984 . S
N585 C578 1.356 . S
N585 H588 0.984 . S
N585 H589 0.985 . S
H586 N581 0.984 . S
H587 N581 0.985 . S
H588 N585 0.984 . S
H589 N585 0.985 . S
H590 N584 0.984 . S
H591 N584 0.984 . S
H592 N580 0.984 . S
H593 N580 0.985 . S
C594 C595 1.363 . S
C594 C600 1.379 . S
C594 N602 1.356 . S
C595 C594 1.363 . S
C595 C601 1.363 . S
C596 C597 1.363 . S
C596 C601 1.379 . S
C596 N603 1.356 . S
C597 C596 1.363 . S
C597 C600 1.363 . S
N598 C600 1.356 . S
N598 H610 0.984 . S
N598 H611 0.985 . S
N599 C601 1.356 . S
N599 H604 0.984 . S
N599 H605 0.985 . S
C600 C594 1.379 . S
C600 C597 1.363 . S
C600 N598 1.356 . S
C601 C595 1.363 . S
C601 C596 1.379 . S
C601 N599 1.356 . S
N602 C594 1.356 . S
N602 H608 0.984 . S
N602 H609 0.984 . S
N603 C596 1.356 . S
N603 H606 0.984 . S
N603 H607 0.985 . S
H604 N599 0.984 . S
H605 N599 0.985 . S
H606 N603 0.984 . S
H607 N603 0.985 . S
H608 N602 0.984 . S
H609 N602 0.984 . S
H610 N598 0.984 . S
H611 N598 0.985 . S
C612 C613 1.363 . S
C612 C618 1.379 . S
C612 N620 1.356 . S
C613 C612 1.363 . S
C613 C619 1.363 . S
C614 C615 1.363 . S
C614 C619 1.379 . S
C614 N621 1.356 . S
C615 C614 1.363 . S
C615 C618 1.363 . S
N616 C618 1.356 . S
N616 H628 0.984 . S
N616 H629 0.985 . S
N617 C619 1.356 . S
N617 H622 0.984 . S
N617 H623 0.985 . S
C618 C612 1.379 . S
C618 C615 1.363 . S
C618 N616 1.356 . S
C619 C613 1.363 . S
C619 C614 1.379 . S
C619 N617 1.356 . S
N620 C612 1.356 . S
N620 H626 0.984 . S
N620 H627 0.984 . S
N621 C614 1.356 . S
N621 H624 0.984 . S
N621 H625 0.985 . S
H622 N617 0.984 . S
H623 N617 0.985 . S
H624 N621 0.984 . S
H625 N621 0.985 . S
H626 N620 0.984 . S
H627 N620 0.984 . S
H628 N616 0.984 . S
H629 N616 0.985 . S
C630 C631 1.363 . S
C630 C636 1.379 . S
C630 N638 1.356 . S
C631 C630 1.363 . S
C631 C637 1.363 . S
C632 C633 1.363 . S
C632 C637 1.379 . S
C632 N639 1.356 . S
C633 C632 1.363 . S
C633 C636 1.363 . S
N634 C636 1.356 . S
N634 H646 0.984 . S
N634 H647 0.985 . S
N635 C637 1.356 . S
N635 H640 0.984 . S
N635 H641 0.985 . S
C636 C630 1.379 . S
C636 C633 1.363 . S
C636 N634 1.356 . S
C637 C631 1.363 . S
C637 C632 1.379 . S
C637 N635 1.356 . S
N638 C630 1.356 . S
N638 H644 0.984 . S
N638 H645 0.984 . S
N639 C632 1.356 . S
N639 H642 0.984 . S
N639 H643 0.985 . S
H640 N635 0.984 . S
H641 N635 0.985 . S
H642 N639 0.984 . S
H643 N639 0.985 . S
H644 N638 0.984 . S
H645 N638 0.984 . S
H646 N634 0.984 . S
H647 N634 0.985 . S
C648 C649 1.363 . S
C648 C654 1.379 . S
C648 N656 1.356 . S
C649 C648 1.363 . S
C649 C655 1.363 . S
C650 C651 1.363 . S
C650 C655 1.379 . S
C650 N657 1.356 . S
C651 C650 1.363 . S
C651 C654 1.363 . S
N652 C654 1.356 . S
N652 H664 0.984 . S
N652 H665 0.985 . S
N653 C655 1.356 . S
N653 H658 0.984 . S
N653 H659 0.985 . S
C654 C648 1.379 . S
C654 C651 1.363 . S
C654 N652 1.356 . S
C655 C649 1.363 . S
C655 C650 1.379 . S
C655 N653 1.356 . S
N656 C648 1.356 . S
N656 H662 0.984 . S
N656 H663 0.984 . S
N657 C650 1.356 . S
N657 H660 0.984 . S
N657 H661 0.985 . S
H658 N653 0.984 . S
H659 N653 0.985 . S
H660 N657 0.984 . S
H661 N657 0.985 . S
H662 N656 0.984 . S
H663 N656 0.984 . S
H664 N652 0.984 . S
H665 N652 0.985 . S
C666 C667 1.363 . S
C666 C672 1.379 . S
C666 N674 1.356 . S
C667 C666 1.363 . S
C667 C673 1.363 . S
C668 C669 1.363 . S
C668 C673 1.379 . S
C668 N675 1.356 . S
C669 C668 1.363 . S
C669 C672 1.363 . S
N670 C672 1.356 . S
N670 H682 0.984 . S
N670 H683 0.985 . S
N671 C673 1.356 . S
N671 H676 0.984 . S
N671 H677 0.985 . S
C672 C666 1.379 . S
C672 C669 1.363 . S
C672 N670 1.356 . S
C673 C667 1.363 . S
C673 C668 1.379 . S
C673 N671 1.356 . S
N674 C666 1.356 . S
N674 H680 0.984 . S
N674 H681 0.984 . S
N675 C668 1.356 . S
N675 H678 0.984 . S
N675 H679 0.985 . S
H676 N671 0.984 . S
H677 N671 0.985 . S
H678 N675 0.984 . S
H679 N675 0.985 . S
H680 N674 0.984 . S
H681 N674 0.984 . S
H682 N670 0.984 . S
H683 N670 0.985 . S
C684 C685 1.363 . S
C684 C690 1.379 1_565 S
C684 N692 1.356 . S
C685 C684 1.363 . S
C685 C691 1.363 . S
C686 C687 1.363 . S
C686 C691 1.379 1_545 S
C686 N693 1.356 . S
C687 C686 1.363 . S
C687 C690 1.363 . S
N688 C690 1.356 . S
N688 H700 0.984 . S
N688 H701 0.985 . S
N689 C691 1.356 . S
N689 H694 0.984 . S
N689 H695 0.985 . S
C690 C684 1.379 1_545 S
C690 C687 1.363 . S
C690 N688 1.356 . S
C691 C685 1.363 . S
C691 C686 1.379 1_565 S
C691 N689 1.356 . S
N692 C684 1.356 . S
N692 H698 0.984 . S
N692 H699 0.984 . S
N693 C686 1.356 . S
N693 H696 0.984 . S
N693 H697 0.985 . S
H694 N689 0.984 . S
H695 N689 0.985 . S
H696 N693 0.984 . S
H697 N693 0.985 . S
H698 N692 0.984 . S
H699 N692 0.984 . S
H700 N688 0.984 . S
H701 N688 0.985 . S
C702 C703 1.363 . S
C702 C708 1.379 1_455 S
C702 N710 1.356 . S
C703 C702 1.363 . S
C703 C709 1.363 . S
C704 C705 1.363 . S
C704 C709 1.379 1_655 S
C704 N711 1.356 . S
C705 C704 1.363 . S
C705 C708 1.363 . S
N706 C708 1.356 . S
N706 H718 0.984 . S
N706 H719 0.985 . S
N707 C709 1.356 . S
N707 H712 0.984 . S
N707 H713 0.985 . S
C708 C702 1.379 1_655 S
C708 C705 1.363 . S
C708 N706 1.356 . S
C709 C703 1.363 . S
C709 C704 1.379 1_455 S
C709 N707 1.356 . S
N710 C702 1.356 . S
N710 H716 0.984 . S
N710 H717 0.984 . S
N711 C704 1.356 . S
N711 H714 0.984 . S
N711 H715 0.985 . S
H712 N707 0.984 . S
H713 N707 0.985 . S
H714 N711 0.984 . S
H715 N711 0.985 . S
H716 N710 0.984 . S
H717 N710 0.984 . S
H718 N706 0.984 . S
H719 N706 0.985 . S
C720 C721 1.363 . S
C720 C726 1.379 1_545 S
C720 N728 1.356 . S
C721 C720 1.363 . S
C721 C727 1.363 . S
C722 C723 1.363 . S
C722 C727 1.379 1_565 S
C722 N729 1.356 . S
C723 C722 1.363 . S
C723 C726 1.363 . S
N724 C726 1.356 . S
N724 H736 0.984 . S
N724 H737 0.985 . S
N725 C727 1.356 . S
N725 H730 0.984 . S
N725 H731 0.985 . S
C726 C720 1.379 1_565 S
C726 C723 1.363 . S
C726 N724 1.356 . S
C727 C721 1.363 . S
C727 C722 1.379 1_545 S
C727 N725 1.356 . S
N728 C720 1.356 . S
N728 H734 0.984 . S
N728 H735 0.984 . S
N729 C722 1.356 . S
N729 H732 0.984 . S
N729 H733 0.985 . S
H730 N725 0.984 . S
H731 N725 0.985 . S
H732 N729 0.984 . S
H733 N729 0.985 . S
H734 N728 0.984 . S
H735 N728 0.984 . S
H736 N724 0.984 . S
H737 N724 0.985 . S
C738 C739 1.363 . S
C738 C744 1.379 1_455 S
C738 N746 1.356 . S
C739 C738 1.363 . S
C739 C745 1.363 . S
C740 C741 1.363 . S
C740 C745 1.379 1_655 S
C740 N747 1.356 . S
C741 C740 1.363 . S
C741 C744 1.363 . S
N742 C744 1.356 . S
N742 H754 0.984 . S
N742 H755 0.985 . S
N743 C745 1.356 . S
N743 H748 0.984 . S
N743 H749 0.985 . S
C744 C738 1.379 1_655 S
C744 C741 1.363 . S
C744 N742 1.356 . S
C745 C739 1.363 . S
C745 C740 1.379 1_455 S
C745 N743 1.356 . S
N746 C738 1.356 . S
N746 H752 0.984 . S
N746 H753 0.984 . S
N747 C740 1.356 . S
N747 H750 0.984 . S
N747 H751 0.985 . S
H748 N743 0.984 . S
H749 N743 0.985 . S
H750 N747 0.984 . S
H751 N747 0.985 . S
H752 N746 0.984 . S
H753 N746 0.984 . S
H754 N742 0.984 . S
H755 N742 0.985 . S
C756 C757 1.363 . S
C756 C762 1.379 1_556 S
C756 N764 1.356 . S
C757 C756 1.363 . S
C757 C763 1.363 . S
C758 C759 1.363 . S
C758 C763 1.379 1_554 S
C758 N765 1.356 . S
C759 C758 1.363 . S
C759 C762 1.363 . S
N760 C762 1.356 . S
N760 H772 0.984 . S
N760 H773 0.985 . S
N761 C763 1.356 . S
N761 H766 0.984 . S
N761 H767 0.985 . S
C762 C756 1.379 1_554 S
C762 C759 1.363 . S
C762 N760 1.356 . S
C763 C757 1.363 . S
C763 C758 1.379 1_556 S
C763 N761 1.356 . S
N764 C756 1.356 . S
N764 H770 0.984 . S
N764 H771 0.984 . S
N765 C758 1.356 . S
N765 H768 0.984 . S
N765 H769 0.985 . S
H766 N761 0.984 . S
H767 N761 0.985 . S
H768 N765 0.984 . S
H769 N765 0.985 . S
H770 N764 0.984 . S
H771 N764 0.984 . S
H772 N760 0.984 . S
H773 N760 0.985 . S
C774 C775 1.363 . S
C774 C780 1.379 1_556 S
C774 N782 1.356 . S
C775 C774 1.363 . S
C775 C781 1.363 . S
C776 C777 1.363 . S
C776 C781 1.379 1_554 S
C776 N783 1.356 . S
C777 C776 1.363 . S
C777 C780 1.363 . S
N778 C780 1.356 . S
N778 H790 0.984 . S
N778 H791 0.985 . S
N779 C781 1.356 . S
N779 H784 0.984 . S
N779 H785 0.985 . S
C780 C774 1.379 1_554 S
C780 C777 1.363 . S
C780 N778 1.356 . S
C781 C775 1.363 . S
C781 C776 1.379 1_556 S
C781 N779 1.356 . S
N782 C774 1.356 . S
N782 H788 0.984 . S
N782 H789 0.984 . S
N783 C776 1.356 . S
N783 H786 0.984 . S
N783 H787 0.985 . S
H784 N779 0.984 . S
H785 N779 0.985 . S
H786 N783 0.984 . S
H787 N783 0.985 . S
H788 N782 0.984 . S
H789 N782 0.984 . S
H790 N778 0.984 . S
H791 N778 0.985 . S
C792 C793 1.363 . S
C792 C798 1.379 1_554 S
C792 N800 1.356 . S
C793 C792 1.363 . S
C793 C799 1.363 . S
C794 C795 1.363 . S
C794 C799 1.379 1_556 S
C794 N801 1.356 . S
C795 C794 1.363 . S
C795 C798 1.363 . S
N796 C798 1.356 . S
N796 H808 0.984 . S
N796 H809 0.985 . S
N797 C799 1.356 . S
N797 H802 0.984 . S
N797 H803 0.985 . S
C798 C792 1.379 1_556 S
C798 C795 1.363 . S
C798 N796 1.356 . S
C799 C793 1.363 . S
C799 C794 1.379 1_554 S
C799 N797 1.356 . S
N800 C792 1.356 . S
N800 H806 0.984 . S
N800 H807 0.984 . S
N801 C794 1.356 . S
N801 H804 0.984 . S
N801 H805 0.985 . S
H802 N797 0.984 . S
H803 N797 0.985 . S
H804 N801 0.984 . S
H805 N801 0.985 . S
H806 N800 0.984 . S
H807 N800 0.984 . S
H808 N796 0.984 . S
H809 N796 0.985 . S
C810 C811 1.363 . S
C810 C816 1.379 1_556 S
C810 N818 1.356 . S
C811 C810 1.363 . S
C811 C817 1.363 . S
C812 C813 1.363 . S
C812 C817 1.379 1_554 S
C812 N819 1.356 . S
C813 C812 1.363 . S
C813 C816 1.363 . S
N814 C816 1.356 . S
N814 H826 0.984 . S
N814 H827 0.985 . S
N815 C817 1.356 . S
N815 H820 0.984 . S
N815 H821 0.985 . S
C816 C810 1.379 1_554 S
C816 C813 1.363 . S
C816 N814 1.356 . S
C817 C811 1.363 . S
C817 C812 1.379 1_556 S
C817 N815 1.356 . S
N818 C810 1.356 . S
N818 H824 0.984 . S
N818 H825 0.984 . S
N819 C812 1.356 . S
N819 H822 0.984 . S
N819 H823 0.985 . S
H820 N815 0.984 . S
H821 N815 0.985 . S
H822 N819 0.984 . S
H823 N819 0.985 . S
H824 N818 0.984 . S
H825 N818 0.984 . S
H826 N814 0.984 . S
H827 N814 0.985 . S
C828 C829 1.363 . S
C828 C834 1.379 1_455 S
C828 N836 1.356 . S
C829 C828 1.363 . S
C829 C835 1.363 . S
C830 C831 1.363 . S
C830 C835 1.379 1_655 S
C830 N837 1.356 . S
C831 C830 1.363 . S
C831 C834 1.363 . S
N832 C834 1.356 . S
N832 H844 0.984 . S
N832 H845 0.985 . S
N833 C835 1.356 . S
N833 H838 0.984 . S
N833 H839 0.985 . S
C834 C828 1.379 1_655 S
C834 C831 1.363 . S
C834 N832 1.356 . S
C835 C829 1.363 . S
C835 C830 1.379 1_455 S
C835 N833 1.356 . S
N836 C828 1.356 . S
N836 H842 0.984 . S
N836 H843 0.984 . S
N837 C830 1.356 . S
N837 H840 0.984 . S
N837 H841 0.985 . S
H838 N833 0.984 . S
H839 N833 0.985 . S
H840 N837 0.984 . S
H841 N837 0.985 . S
H842 N836 0.984 . S
H843 N836 0.984 . S
H844 N832 0.984 . S
H845 N832 0.985 . S
C846 C847 1.363 . S
C846 C852 1.379 1_655 S
C846 N854 1.356 . S
C847 C846 1.363 . S
C847 C853 1.363 . S
C848 C849 1.363 . S
C848 C853 1.379 1_455 S
C848 N855 1.356 . S
C849 C848 1.363 . S
C849 C852 1.363 . S
N850 C852 1.356 . S
N850 H862 0.984 . S
N850 H863 0.985 . S
N851 C853 1.356 . S
N851 H856 0.984 . S
N851 H857 0.985 . S
C852 C846 1.379 1_455 S
C852 C849 1.363 . S
C852 N850 1.356 . S
C853 C847 1.363 . S
C853 C848 1.379 1_655 S
C853 N851 1.356 . S
N854 C846 1.356 . S
N854 H860 0.984 . S
N854 H861 0.984 . S
N855 C848 1.356 . S
N855 H858 0.984 . S
N855 H859 0.985 . S
H856 N851 0.984 . S
H857 N851 0.985 . S
H858 N855 0.984 . S
H859 N855 0.985 . S
H860 N854 0.984 . S
H861 N854 0.984 . S
H862 N850 0.984 . S
H863 N850 0.985 . S
C864 C865 1.363 . S
C864 C870 1.379 1_545 S
C864 N872 1.356 . S
C865 C864 1.363 . S
C865 C871 1.363 . S
C866 C867 1.363 . S
C866 C871 1.379 1_565 S
C866 N873 1.356 . S
C867 C866 1.363 . S
C867 C870 1.363 . S
N868 C870 1.356 . S
N868 H880 0.984 . S
N868 H881 0.985 . S
N869 C871 1.356 . S
N869 H874 0.984 . S
N869 H875 0.985 . S
C870 C864 1.379 1_565 S
C870 C867 1.363 . S
C870 N868 1.356 . S
C871 C865 1.363 . S
C871 C866 1.379 1_545 S
C871 N869 1.356 . S
N872 C864 1.356 . S
N872 H878 0.984 . S
N872 H879 0.984 . S
N873 C866 1.356 . S
N873 H876 0.984 . S
N873 H877 0.985 . S
H874 N869 0.984 . S
H875 N869 0.985 . S
H876 N873 0.984 . S
H877 N873 0.985 . S
H878 N872 0.984 . S
H879 N872 0.984 . S
H880 N868 0.984 . S
H881 N868 0.985 . S
C882 C883 1.363 . S
C882 C888 1.379 1_565 S
C882 N890 1.356 . S
C883 C882 1.363 . S
C883 C889 1.363 . S
C884 C885 1.363 . S
C884 C889 1.379 1_545 S
C884 N891 1.356 . S
C885 C884 1.363 . S
C885 C888 1.363 . S
N886 C888 1.356 . S
N886 H898 0.984 . S
N886 H899 0.985 . S
N887 C889 1.356 . S
N887 H892 0.984 . S
N887 H893 0.985 . S
C888 C882 1.379 1_545 S
C888 C885 1.363 . S
C888 N886 1.356 . S
C889 C883 1.363 . S
C889 C884 1.379 1_565 S
C889 N887 1.356 . S
N890 C882 1.356 . S
N890 H896 0.984 . S
N890 H897 0.984 . S
N891 C884 1.356 . S
N891 H894 0.984 . S
N891 H895 0.985 . S
H892 N887 0.984 . S
H893 N887 0.985 . S
H894 N891 0.984 . S
H895 N891 0.985 . S
H896 N890 0.984 . S
H897 N890 0.984 . S
H898 N886 0.984 . S
H899 N886 0.985 . S
C253 C7 1.489 . S
C255 C166 1.437 . S
C271 C87 1.460 . S
C273 C41 1.504 . S
C289 C46 1.497 . S
C291 C108 1.450 . S
C307 C67 1.495 . S
C309 C142 1.449 . S
C325 C82 1.521 . S
C327 C205 1.469 . S
C343 C20 1.491 . S
C345 C230 1.442 . S
C361 C247 1.457 . S
C363 C28 1.509 . S
C379 C61 1.488 . S
C381 C188 1.435 . S
C397 C104 1.502 . S
C399 C3 1.456 . S
C415 C125 1.488 . S
C417 C40 1.434 . S
C433 C145 1.509 . S
C435 C58 1.458 . S
C451 C79 1.439 . S
C453 C154 1.485 . S
C469 C83 1.431 . S
C471 C172 1.486 . S
C487 C19 1.426 . S
C489 C208 1.482 . S
C505 C214 1.501 . S
C507 C24 1.453 . S
C523 C250 1.483 . S
C525 C62 1.429 . S
C541 C103 1.438 . S
C543 C167 1.500 . S
C559 C193 1.490 . S
C561 C184 1.442 . S
C577 C209 1.440 . S
C579 C229 1.495 . S
C595 C235 1.499 . S
C597 C226 1.447 . S
C613 C251 1.439 . S
C615 C187 1.492 . S
C631 C146 1.429 . S
C633 C112 1.486 . S
C649 C130 1.494 . S
C651 C150 1.443 . S
C667 C91 1.476 . S
C669 C124 1.421 . S
C685 C66 1.372 . S
C687 C4 1.349 . S
C703 C16 1.389 . S
C705 C37 1.397 . S
C721 C25 1.337 . S
C723 C49 1.330 . S
C739 C70 1.349 . S
C741 C45 1.360 . S
C757 C217 1.351 . S
C759 C100 1.364 . S
C775 C234 1.382 . S
C777 C121 1.377 . S
C793 C129 1.357 . S
C795 C175 1.336 . S
C811 C192 1.360 . S
C813 C151 1.343 . S
C829 C163 1.357 . S
C831 C109 1.337 . S
C847 C238 1.331 . S
C849 C196 1.330 . S
C865 C213 1.397 . S
C867 C171 1.391 . S
C883 C133 1.329 . S
C885 C88 1.326 . S
