# Generated by pormake.
# Topology fno, (5)-cn, num edge types: 1
# Building blocks:
#     Node 0, Type 0, BuildingBlock: BEQFEK_clean_sbu_0, # of connection points: 5
#     Node 1, Type 0, BuildingBlock: BEQFEK_clean_sbu_0, # of connection points: 5
#     Node 2, Type 0, BuildingBlock: BEQFEK_clean_sbu_0, # of connection points: 5
#     Node 3, Type 0, BuildingBlock: BEQFEK_clean_sbu_0, # of connection points: 5
#     Node 4, Type 0, BuildingBlock: BEQFEK_clean_sbu_0, # of connection points: 5
#     Node 5, Type 0, BuildingBlock: BEQFEK_clean_sbu_0, # of connection points: 5
#     Node 6, Type 0, BuildingBlock: BEQFEK_clean_sbu_0, # of connection points: 5
#     Node 7, Type 0, BuildingBlock: BEQFEK_clean_sbu_0, # of connection points: 5
#     Node 8, Type 0, BuildingBlock: BEQFEK_clean_sbu_0, # of connection points: 5
#     Node 9, Type 0, BuildingBlock: BEQFEK_clean_sbu_0, # of connection points: 5
#     Node 10, Type 0, BuildingBlock: BEQFEK_clean_sbu_0, # of connection points: 5
#     Node 11, Type 0, BuildingBlock: BEQFEK_clean_sbu_0, # of connection points: 5
#     Node 12, Type 0, BuildingBlock: BEQFEK_clean_sbu_0, # of connection points: 5
#     Node 13, Type 0, BuildingBlock: BEQFEK_clean_sbu_0, # of connection points: 5
#     Node 14, Type 0, BuildingBlock: BEQFEK_clean_sbu_0, # of connection points: 5
#     Node 15, Type 0, BuildingBlock: BEQFEK_clean_sbu_0, # of connection points: 5
#     Node 16, Type 0, BuildingBlock: BEQFEK_clean_sbu_0, # of connection points: 5
#     Node 17, Type 0, BuildingBlock: BEQFEK_clean_sbu_0, # of connection points: 5
#     Node 18, Type 0, BuildingBlock: BEQFEK_clean_sbu_0, # of connection points: 5
#     Node 19, Type 0, BuildingBlock: BEQFEK_clean_sbu_0, # of connection points: 5
#     Node 20, Type 0, BuildingBlock: BEQFEK_clean_sbu_0, # of connection points: 5
#     Node 21, Type 0, BuildingBlock: BEQFEK_clean_sbu_0, # of connection points: 5
#     Node 22, Type 0, BuildingBlock: BEQFEK_clean_sbu_0, # of connection points: 5
#     Node 23, Type 0, BuildingBlock: BEQFEK_clean_sbu_0, # of connection points: 5
#     Node 24, Type 0, BuildingBlock: BEQFEK_clean_sbu_0, # of connection points: 5
#     Node 25, Type 0, BuildingBlock: BEQFEK_clean_sbu_0, # of connection points: 5
#     Node 26, Type 0, BuildingBlock: BEQFEK_clean_sbu_0, # of connection points: 5
#     Node 27, Type 0, BuildingBlock: BEQFEK_clean_sbu_0, # of connection points: 5
#     Node 28, Type 0, BuildingBlock: BEQFEK_clean_sbu_0, # of connection points: 5
#     Node 29, Type 0, BuildingBlock: BEQFEK_clean_sbu_0, # of connection points: 5
#     Node 30, Type 0, BuildingBlock: BEQFEK_clean_sbu_0, # of connection points: 5
#     Node 31, Type 0, BuildingBlock: BEQFEK_clean_sbu_0, # of connection points: 5
#     Node 32, Type 0, BuildingBlock: BEQFEK_clean_sbu_0, # of connection points: 5
#     Node 33, Type 0, BuildingBlock: BEQFEK_clean_sbu_0, # of connection points: 5
#     Node 34, Type 0, BuildingBlock: BEQFEK_clean_sbu_0, # of connection points: 5
#     Node 35, Type 0, BuildingBlock: BEQFEK_clean_sbu_0, # of connection points: 5
#     Node 36, Type 0, BuildingBlock: BEQFEK_clean_sbu_0, # of connection points: 5
#     Node 37, Type 0, BuildingBlock: BEQFEK_clean_sbu_0, # of connection points: 5
#     Node 38, Type 0, BuildingBlock: BEQFEK_clean_sbu_0, # of connection points: 5
#     Node 39, Type 0, BuildingBlock: BEQFEK_clean_sbu_0, # of connection points: 5
#     Node 40, Type 0, BuildingBlock: BEQFEK_clean_sbu_0, # of connection points: 5
#     Node 41, Type 0, BuildingBlock: BEQFEK_clean_sbu_0, # of connection points: 5
#     Node 42, Type 0, BuildingBlock: BEQFEK_clean_sbu_0, # of connection points: 5
#     Node 43, Type 0, BuildingBlock: BEQFEK_clean_sbu_0, # of connection points: 5
#     Node 44, Type 0, BuildingBlock: BEQFEK_clean_sbu_0, # of connection points: 5
#     Node 45, Type 0, BuildingBlock: BEQFEK_clean_sbu_0, # of connection points: 5
#     Node 46, Type 0, BuildingBlock: BEQFEK_clean_sbu_0, # of connection points: 5
#     Node 47, Type 0, BuildingBlock: BEQFEK_clean_sbu_0, # of connection points: 5
#     Edge 48, Type (0, 0), BuildingBlock: KIFKEQ_clean_linker_1, # of connection points: 2
#     Edge 49, Type (0, 0), BuildingBlock: KIFKEQ_clean_linker_1, # of connection points: 2
#     Edge 50, Type (0, 0), BuildingBlock: KIFKEQ_clean_linker_1, # of connection points: 2
#     Edge 51, Type (0, 0), BuildingBlock: KIFKEQ_clean_linker_1, # of connection points: 2
#     Edge 52, Type (0, 0), BuildingBlock: KIFKEQ_clean_linker_1, # of connection points: 2
#     Edge 53, Type (0, 0), BuildingBlock: KIFKEQ_clean_linker_1, # of connection points: 2
#     Edge 54, Type (0, 0), BuildingBlock: KIFKEQ_clean_linker_1, # of connection points: 2
#     Edge 55, Type (0, 0), BuildingBlock: KIFKEQ_clean_linker_1, # of connection points: 2
#     Edge 56, Type (0, 0), BuildingBlock: KIFKEQ_clean_linker_1, # of connection points: 2
#     Edge 57, Type (0, 0), BuildingBlock: KIFKEQ_clean_linker_1, # of connection points: 2
#     Edge 58, Type (0, 0), BuildingBlock: KIFKEQ_clean_linker_1, # of connection points: 2
#     Edge 59, Type (0, 0), BuildingBlock: KIFKEQ_clean_linker_1, # of connection points: 2
#     Edge 60, Type (0, 0), BuildingBlock: KIFKEQ_clean_linker_1, # of connection points: 2
#     Edge 61, Type (0, 0), BuildingBlock: KIFKEQ_clean_linker_1, # of connection points: 2
#     Edge 62, Type (0, 0), BuildingBlock: KIFKEQ_clean_linker_1, # of connection points: 2
#     Edge 63, Type (0, 0), BuildingBlock: KIFKEQ_clean_linker_1, # of connection points: 2
#     Edge 64, Type (0, 0), BuildingBlock: KIFKEQ_clean_linker_1, # of connection points: 2
#     Edge 65, Type (0, 0), BuildingBlock: KIFKEQ_clean_linker_1, # of connection points: 2
#     Edge 66, Type (0, 0), BuildingBlock: KIFKEQ_clean_linker_1, # of connection points: 2
#     Edge 67, Type (0, 0), BuildingBlock: KIFKEQ_clean_linker_1, # of connection points: 2
#     Edge 68, Type (0, 0), BuildingBlock: KIFKEQ_clean_linker_1, # of connection points: 2
#     Edge 69, Type (0, 0), BuildingBlock: KIFKEQ_clean_linker_1, # of connection points: 2
#     Edge 70, Type (0, 0), BuildingBlock: KIFKEQ_clean_linker_1, # of connection points: 2
#     Edge 71, Type (0, 0), BuildingBlock: KIFKEQ_clean_linker_1, # of connection points: 2
#     Edge 72, Type (0, 0), BuildingBlock: KIFKEQ_clean_linker_1, # of connection points: 2
#     Edge 73, Type (0, 0), BuildingBlock: KIFKEQ_clean_linker_1, # of connection points: 2
#     Edge 74, Type (0, 0), BuildingBlock: KIFKEQ_clean_linker_1, # of connection points: 2
#     Edge 75, Type (0, 0), BuildingBlock: KIFKEQ_clean_linker_1, # of connection points: 2
#     Edge 76, Type (0, 0), BuildingBlock: KIFKEQ_clean_linker_1, # of connection points: 2
#     Edge 77, Type (0, 0), BuildingBlock: KIFKEQ_clean_linker_1, # of connection points: 2
#     Edge 78, Type (0, 0), BuildingBlock: KIFKEQ_clean_linker_1, # of connection points: 2
#     Edge 79, Type (0, 0), BuildingBlock: KIFKEQ_clean_linker_1, # of connection points: 2
#     Edge 80, Type (0, 0), BuildingBlock: KIFKEQ_clean_linker_1, # of connection points: 2
#     Edge 81, Type (0, 0), BuildingBlock: KIFKEQ_clean_linker_1, # of connection points: 2
#     Edge 82, Type (0, 0), BuildingBlock: KIFKEQ_clean_linker_1, # of connection points: 2
#     Edge 83, Type (0, 0), BuildingBlock: KIFKEQ_clean_linker_1, # of connection points: 2
#     Edge 84, Type (0, 0), BuildingBlock: KIFKEQ_clean_linker_1, # of connection points: 2
#     Edge 85, Type (0, 0), BuildingBlock: KIFKEQ_clean_linker_1, # of connection points: 2
#     Edge 86, Type (0, 0), BuildingBlock: KIFKEQ_clean_linker_1, # of connection points: 2
#     Edge 87, Type (0, 0), BuildingBlock: KIFKEQ_clean_linker_1, # of connection points: 2
#     Edge 88, Type (0, 0), BuildingBlock: KIFKEQ_clean_linker_1, # of connection points: 2
#     Edge 89, Type (0, 0), BuildingBlock: KIFKEQ_clean_linker_1, # of connection points: 2
#     Edge 90, Type (0, 0), BuildingBlock: KIFKEQ_clean_linker_1, # of connection points: 2
#     Edge 91, Type (0, 0), BuildingBlock: KIFKEQ_clean_linker_1, # of connection points: 2
#     Edge 92, Type (0, 0), BuildingBlock: KIFKEQ_clean_linker_1, # of connection points: 2
#     Edge 93, Type (0, 0), BuildingBlock: KIFKEQ_clean_linker_1, # of connection points: 2
#     Edge 94, Type (0, 0), BuildingBlock: KIFKEQ_clean_linker_1, # of connection points: 2
#     Edge 95, Type (0, 0), BuildingBlock: KIFKEQ_clean_linker_1, # of connection points: 2
#     Edge 96, Type (0, 0), BuildingBlock: KIFKEQ_clean_linker_1, # of connection points: 2
#     Edge 97, Type (0, 0), BuildingBlock: KIFKEQ_clean_linker_1, # of connection points: 2
#     Edge 98, Type (0, 0), BuildingBlock: KIFKEQ_clean_linker_1, # of connection points: 2
#     Edge 99, Type (0, 0), BuildingBlock: KIFKEQ_clean_linker_1, # of connection points: 2
#     Edge 100, Type (0, 0), BuildingBlock: KIFKEQ_clean_linker_1, # of connection points: 2
#     Edge 101, Type (0, 0), BuildingBlock: KIFKEQ_clean_linker_1, # of connection points: 2
#     Edge 102, Type (0, 0), BuildingBlock: KIFKEQ_clean_linker_1, # of connection points: 2
#     Edge 103, Type (0, 0), BuildingBlock: KIFKEQ_clean_linker_1, # of connection points: 2
#     Edge 104, Type (0, 0), BuildingBlock: KIFKEQ_clean_linker_1, # of connection points: 2
#     Edge 105, Type (0, 0), BuildingBlock: KIFKEQ_clean_linker_1, # of connection points: 2
#     Edge 106, Type (0, 0), BuildingBlock: KIFKEQ_clean_linker_1, # of connection points: 2
#     Edge 107, Type (0, 0), BuildingBlock: KIFKEQ_clean_linker_1, # of connection points: 2
#     Edge 108, Type (0, 0), BuildingBlock: KIFKEQ_clean_linker_1, # of connection points: 2
#     Edge 109, Type (0, 0), BuildingBlock: KIFKEQ_clean_linker_1, # of connection points: 2
#     Edge 110, Type (0, 0), BuildingBlock: KIFKEQ_clean_linker_1, # of connection points: 2
#     Edge 111, Type (0, 0), BuildingBlock: KIFKEQ_clean_linker_1, # of connection points: 2
#     Edge 112, Type (0, 0), BuildingBlock: KIFKEQ_clean_linker_1, # of connection points: 2
#     Edge 113, Type (0, 0), BuildingBlock: KIFKEQ_clean_linker_1, # of connection points: 2
#     Edge 114, Type (0, 0), BuildingBlock: KIFKEQ_clean_linker_1, # of connection points: 2
#     Edge 115, Type (0, 0), BuildingBlock: KIFKEQ_clean_linker_1, # of connection points: 2
#     Edge 116, Type (0, 0), BuildingBlock: KIFKEQ_clean_linker_1, # of connection points: 2
#     Edge 117, Type (0, 0), BuildingBlock: KIFKEQ_clean_linker_1, # of connection points: 2
#     Edge 118, Type (0, 0), BuildingBlock: KIFKEQ_clean_linker_1, # of connection points: 2
#     Edge 119, Type (0, 0), BuildingBlock: KIFKEQ_clean_linker_1, # of connection points: 2
#     Edge 120, Type (0, 0), BuildingBlock: KIFKEQ_clean_linker_1, # of connection points: 2
#     Edge 121, Type (0, 0), BuildingBlock: KIFKEQ_clean_linker_1, # of connection points: 2
#     Edge 122, Type (0, 0), BuildingBlock: KIFKEQ_clean_linker_1, # of connection points: 2
#     Edge 123, Type (0, 0), BuildingBlock: KIFKEQ_clean_linker_1, # of connection points: 2
#     Edge 124, Type (0, 0), BuildingBlock: KIFKEQ_clean_linker_1, # of connection points: 2
#     Edge 125, Type (0, 0), BuildingBlock: KIFKEQ_clean_linker_1, # of connection points: 2
#     Edge 126, Type (0, 0), BuildingBlock: KIFKEQ_clean_linker_1, # of connection points: 2
#     Edge 127, Type (0, 0), BuildingBlock: KIFKEQ_clean_linker_1, # of connection points: 2
#     Edge 128, Type (0, 0), BuildingBlock: KIFKEQ_clean_linker_1, # of connection points: 2
#     Edge 129, Type (0, 0), BuildingBlock: KIFKEQ_clean_linker_1, # of connection points: 2
#     Edge 130, Type (0, 0), BuildingBlock: KIFKEQ_clean_linker_1, # of connection points: 2
#     Edge 131, Type (0, 0), BuildingBlock: KIFKEQ_clean_linker_1, # of connection points: 2
#     Edge 132, Type (0, 0), BuildingBlock: KIFKEQ_clean_linker_1, # of connection points: 2
#     Edge 133, Type (0, 0), BuildingBlock: KIFKEQ_clean_linker_1, # of connection points: 2
#     Edge 134, Type (0, 0), BuildingBlock: KIFKEQ_clean_linker_1, # of connection points: 2
#     Edge 135, Type (0, 0), BuildingBlock: KIFKEQ_clean_linker_1, # of connection points: 2
#     Edge 136, Type (0, 0), BuildingBlock: KIFKEQ_clean_linker_1, # of connection points: 2
#     Edge 137, Type (0, 0), BuildingBlock: KIFKEQ_clean_linker_1, # of connection points: 2
#     Edge 138, Type (0, 0), BuildingBlock: KIFKEQ_clean_linker_1, # of connection points: 2
#     Edge 139, Type (0, 0), BuildingBlock: KIFKEQ_clean_linker_1, # of connection points: 2
#     Edge 140, Type (0, 0), BuildingBlock: KIFKEQ_clean_linker_1, # of connection points: 2
#     Edge 141, Type (0, 0), BuildingBlock: KIFKEQ_clean_linker_1, # of connection points: 2
#     Edge 142, Type (0, 0), BuildingBlock: KIFKEQ_clean_linker_1, # of connection points: 2
#     Edge 143, Type (0, 0), BuildingBlock: KIFKEQ_clean_linker_1, # of connection points: 2
#     Edge 144, Type (0, 0), BuildingBlock: KIFKEQ_clean_linker_1, # of connection points: 2
#     Edge 145, Type (0, 0), BuildingBlock: KIFKEQ_clean_linker_1, # of connection points: 2
#     Edge 146, Type (0, 0), BuildingBlock: KIFKEQ_clean_linker_1, # of connection points: 2
#     Edge 147, Type (0, 0), BuildingBlock: KIFKEQ_clean_linker_1, # of connection points: 2
#     Edge 148, Type (0, 0), BuildingBlock: KIFKEQ_clean_linker_1, # of connection points: 2
#     Edge 149, Type (0, 0), BuildingBlock: KIFKEQ_clean_linker_1, # of connection points: 2
#     Edge 150, Type (0, 0), BuildingBlock: KIFKEQ_clean_linker_1, # of connection points: 2
#     Edge 151, Type (0, 0), BuildingBlock: KIFKEQ_clean_linker_1, # of connection points: 2
#     Edge 152, Type (0, 0), BuildingBlock: KIFKEQ_clean_linker_1, # of connection points: 2
#     Edge 153, Type (0, 0), BuildingBlock: KIFKEQ_clean_linker_1, # of connection points: 2
#     Edge 154, Type (0, 0), BuildingBlock: KIFKEQ_clean_linker_1, # of connection points: 2
#     Edge 155, Type (0, 0), BuildingBlock: KIFKEQ_clean_linker_1, # of connection points: 2
#     Edge 156, Type (0, 0), BuildingBlock: KIFKEQ_clean_linker_1, # of connection points: 2
#     Edge 157, Type (0, 0), BuildingBlock: KIFKEQ_clean_linker_1, # of connection points: 2
#     Edge 158, Type (0, 0), BuildingBlock: KIFKEQ_clean_linker_1, # of connection points: 2
#     Edge 159, Type (0, 0), BuildingBlock: KIFKEQ_clean_linker_1, # of connection points: 2
#     Edge 160, Type (0, 0), BuildingBlock: KIFKEQ_clean_linker_1, # of connection points: 2
#     Edge 161, Type (0, 0), BuildingBlock: KIFKEQ_clean_linker_1, # of connection points: 2
#     Edge 162, Type (0, 0), BuildingBlock: KIFKEQ_clean_linker_1, # of connection points: 2
#     Edge 163, Type (0, 0), BuildingBlock: KIFKEQ_clean_linker_1, # of connection points: 2
#     Edge 164, Type (0, 0), BuildingBlock: KIFKEQ_clean_linker_1, # of connection points: 2
#     Edge 165, Type (0, 0), BuildingBlock: KIFKEQ_clean_linker_1, # of connection points: 2
#     Edge 166, Type (0, 0), BuildingBlock: KIFKEQ_clean_linker_1, # of connection points: 2
#     Edge 167, Type (0, 0), BuildingBlock: KIFKEQ_clean_linker_1, # of connection points: 2
# Relax obj value: 0.215
# Max RMSD: 0.143
# Mean RMSD: 0.129
data_MOF--net-fno--node1-BEQFEK_clean_sbu_0--edge1-KIFKEQ_clean_linker_1
_symmetry_space_group_name_H-M    P1
_symmetry_Int_Tables_number       1
_symmetry_cell_setting            triclinic
loop_
_symmetry_equiv_pos_as_xyz
'x, y, z'
_cell_length_a     61.486331
_cell_length_b     61.830101
_cell_length_c     60.734467
_cell_angle_alpha  90.156852
_cell_angle_beta   90.211046
_cell_angle_gamma 90.497467
loop_
_atom_site_label
_atom_site_type_symbol
_atom_site_fract_x
_atom_site_fract_y
_atom_site_fract_z
_atom_type_partial_charge
Co0 Co 0.10313 0.34755 0.0886 0.0
Co1 Co 0.09273 0.36126 0.13719 0.0
C2 C 0.13832 0.35183 0.12101 0.0
O3 O 0.13245 0.34577 0.10184 0.0
O4 O 0.12452 0.35824 0.13506 0.0
C5 C 0.12211 0.34084 0.04629 0.0
O6 O 0.14024 0.33837 0.05744 0.0
C7 C 0.099 0.35809 0.18434 0.0
C8 C 0.07723 0.38342 0.19695 0.0
C9 C 0.09357 0.36938 0.20336 0.0
N10 N 0.08691 0.36558 0.16759 0.0
N11 N 0.07368 0.38049 0.17526 0.0
C12 C 0.11496 0.34012 0.18181 0.0
H13 H 0.11039 0.32972 0.16756 0.0
H14 H 0.11562 0.33019 0.19699 0.0
H15 H 0.13135 0.34698 0.17862 0.0
C16 C 0.07041 0.31341 0.0996 0.0
N17 N 0.08252 0.33097 0.10472 0.0
N18 N 0.07813 0.33693 0.12506 0.0
C19 C 0.06302 0.3235 0.13348 0.0
C20 C 0.05761 0.30812 0.11765 0.0
C21 C 0.0706 0.30262 0.07753 0.0
H22 H 0.06971 0.31504 0.06441 0.0
H23 H 0.08619 0.29394 0.07552 0.0
H24 H 0.05687 0.291 0.07561 0.0
O25 O 0.09504 0.37829 0.08833 0.0
O26 O 0.08491 0.38803 0.12178 0.0
H27 H 0.04671 0.34101 0.15884 0.0
H28 H 0.04291 0.31194 0.16044 0.0
C29 C 0.05461 0.3251 0.15653 0.0
H30 H 0.06844 0.32426 0.16825 0.0
H31 H 0.06315 0.38952 0.1655 0.0
O32 O 0.10412 0.34147 0.05656 0.0
C33 C 0.0879 0.39244 0.10159 0.0
Co34 Co 0.8966 0.84942 0.34828 0.0
Co35 Co 0.89467 0.84521 0.39929 0.0
C36 C 0.90009 0.8884 0.37556 0.0
O37 O 0.90262 0.88008 0.35655 0.0
O38 O 0.89679 0.87651 0.39229 0.0
C39 C 0.88065 0.85954 0.30838 0.0
O40 O 0.87043 0.87223 0.32222 0.0
C41 C 0.90868 0.85737 0.44327 0.0
C42 C 0.89291 0.83266 0.46411 0.0
C43 C 0.90515 0.85157 0.46494 0.0
N44 N 0.89871 0.84281 0.43017 0.0
N45 N 0.88951 0.8279 0.4427 0.0
C46 C 0.92176 0.8762 0.43508 0.0
H47 H 0.92989 0.87191 0.4194 0.0
H48 H 0.93417 0.88125 0.44743 0.0
H49 H 0.9108 0.89003 0.432 0.0
C50 C 0.9314 0.81597 0.35435 0.0
N51 N 0.91612 0.82963 0.36201 0.0
N52 N 0.91509 0.82785 0.38357 0.0
C53 C 0.92961 0.81299 0.3903 0.0
C54 C 0.94048 0.80484 0.37204 0.0
C55 C 0.93651 0.81315 0.33047 0.0
H56 H 0.92119 0.8124 0.32078 0.0
H57 H 0.94596 0.82742 0.32474 0.0
H58 H 0.94608 0.7983 0.32751 0.0
O59 O 0.86582 0.84383 0.3568 0.0
O60 O 0.86401 0.83765 0.39258 0.0
H61 H 0.91893 0.79931 0.42069 0.0
H62 H 0.94784 0.79673 0.41598 0.0
C63 C 0.9336 0.80743 0.41394 0.0
H64 H 0.9365 0.82248 0.42351 0.0
H65 H 0.88023 0.81496 0.43666 0.0
O66 O 0.89559 0.84739 0.31576 0.0
C67 C 0.85476 0.83959 0.37392 0.0
Co68 Co 0.40825 0.64096 0.65708 0.0
Co69 Co 0.4026 0.64682 0.60574 0.0
C70 C 0.40683 0.60326 0.62533 0.0
O71 O 0.40836 0.61134 0.64455 0.0
O72 O 0.40523 0.6152 0.60842 0.0
C73 C 0.41136 0.62084 0.69898 0.0
O74 O 0.41213 0.60335 0.68675 0.0
C75 C 0.40622 0.64104 0.55824 0.0
C76 C 0.3854 0.6673 0.54595 0.0
C77 C 0.39647 0.64897 0.53922 0.0
N78 N 0.40056 0.65367 0.57529 0.0
N79 N 0.38843 0.66957 0.56778 0.0
C80 C 0.42099 0.62208 0.56049 0.0
H81 H 0.43207 0.62442 0.57478 0.0
H82 H 0.43072 0.61984 0.54531 0.0
H83 H 0.41108 0.60731 0.56338 0.0
C84 C 0.44387 0.67302 0.64885 0.0
N85 N 0.42777 0.6597 0.64193 0.0
N86 N 0.42541 0.66181 0.62046 0.0
C87 C 0.43996 0.67639 0.61304 0.0
C88 C 0.45208 0.68411 0.63075 0.0
C89 C 0.44998 0.67614 0.67251 0.0
H90 H 0.43513 0.67615 0.68283 0.0
H91 H 0.46018 0.66238 0.67784 0.0
H92 H 0.4592 0.69145 0.67509 0.0
O93 O 0.37816 0.651 0.65405 0.0
O94 O 0.37401 0.65442 0.61802 0.0
H95 H 0.4281 0.69277 0.58456 0.0
H96 H 0.45746 0.69178 0.58633 0.0
C97 C 0.44216 0.68266 0.58936 0.0
H98 H 0.44194 0.66793 0.57891 0.0
H99 H 0.38118 0.68122 0.57774 0.0
O100 O 0.41241 0.63928 0.6897 0.0
C101 C 0.36638 0.65526 0.63742 0.0
Co102 Co 0.6034 0.14492 0.90911 0.0
Co103 Co 0.59549 0.13956 0.85841 0.0
C104 C 0.64034 0.14756 0.87937 0.0
O105 O 0.63329 0.15146 0.89866 0.0
O106 O 0.62734 0.14267 0.86373 0.0
C107 C 0.61902 0.14042 0.95251 0.0
O108 O 0.63718 0.13686 0.94183 0.0
C109 C 0.60545 0.14615 0.81177 0.0
C110 C 0.57669 0.1319 0.79521 0.0
C111 C 0.59711 0.14068 0.79129 0.0
N112 N 0.59086 0.14052 0.82723 0.0
N113 N 0.57359 0.13222 0.81718 0.0
C114 C 0.62689 0.15685 0.81643 0.0
H115 H 0.63902 0.14432 0.82052 0.0
H116 H 0.62541 0.16809 0.83061 0.0
H117 H 0.63276 0.16595 0.80185 0.0
C118 C 0.5692 0.17864 0.90312 0.0
N119 N 0.58216 0.16289 0.89529 0.0
N120 N 0.57882 0.16073 0.87397 0.0
C121 C 0.56352 0.17501 0.8676 0.0
C122 C 0.55682 0.18689 0.88586 0.0
C123 C 0.56837 0.18509 0.92686 0.0
H124 H 0.56647 0.17043 0.93719 0.0
H125 H 0.58401 0.19298 0.93151 0.0
H126 H 0.55478 0.1963 0.93021 0.0
O127 O 0.59889 0.11368 0.90274 0.0
O128 O 0.58873 0.10968 0.86796 0.0
H129 H 0.54611 0.16379 0.83928 0.0
H130 H 0.54673 0.19289 0.84215 0.0
C131 C 0.55627 0.17789 0.84426 0.0
H132 H 0.57066 0.17852 0.83331 0.0
H133 H 0.56006 0.12592 0.82536 0.0
O134 O 0.60218 0.146 0.94177 0.0
C135 C 0.59307 0.10163 0.88672 0.0
Co136 Co 0.10391 0.64871 0.40404 0.0
Co137 Co 0.0957 0.6398 0.35386 0.0
C138 C 0.14058 0.64976 0.37349 0.0
O139 O 0.13372 0.65433 0.39271 0.0
O140 O 0.12749 0.64393 0.35828 0.0
C141 C 0.12009 0.64761 0.44777 0.0
O142 O 0.13855 0.64524 0.43725 0.0
C143 C 0.10442 0.64592 0.30716 0.0
C144 C 0.08246 0.62163 0.29206 0.0
C145 C 0.09956 0.63564 0.28726 0.0
N146 N 0.09128 0.63784 0.32282 0.0
N147 N 0.07797 0.62357 0.31362 0.0
C148 C 0.12102 0.66324 0.31158 0.0
H149 H 0.11609 0.67309 0.32601 0.0
H150 H 0.12295 0.67387 0.29701 0.0
H151 H 0.13688 0.65571 0.31544 0.0
C152 C 0.06961 0.68208 0.39528 0.0
N153 N 0.08255 0.66572 0.38884 0.0
N154 N 0.07907 0.66182 0.36779 0.0
C155 C 0.06358 0.67528 0.36027 0.0
C156 C 0.05701 0.68881 0.3774 0.0
C157 C 0.07026 0.69174 0.41788 0.0
H158 H 0.08674 0.69007 0.42514 0.0
H159 H 0.06572 0.70907 0.41748 0.0
H160 H 0.05855 0.68292 0.42852 0.0
O161 O 0.09918 0.61706 0.40017 0.0
O162 O 0.08896 0.61096 0.36574 0.0
H163 H 0.03817 0.68165 0.33641 0.0
H164 H 0.06571 0.68267 0.32602 0.0
C165 C 0.05447 0.67416 0.33741 0.0
H166 H 0.05314 0.65706 0.33203 0.0
H167 H 0.06671 0.61421 0.32231 0.0
O168 O 0.1029 0.65153 0.43677 0.0
C169 C 0.0931 0.60412 0.385 0.0
Co170 Co 0.60508 0.84712 0.59132 0.0
Co171 Co 0.5948 0.85997 0.64021 0.0
C172 C 0.64054 0.85243 0.62348 0.0
O173 O 0.63452 0.8459 0.60452 0.0
O174 O 0.62677 0.85846 0.63776 0.0
C175 C 0.62354 0.84639 0.54933 0.0
O176 O 0.6404 0.85306 0.5609 0.0
C177 C 0.60132 0.85775 0.68756 0.0
C178 C 0.57417 0.87705 0.70056 0.0
C179 C 0.59289 0.8663 0.70675 0.0
N180 N 0.58848 0.86351 0.67067 0.0
N181 N 0.57214 0.87488 0.67855 0.0
C182 C 0.6208 0.84358 0.68541 0.0
H183 H 0.61885 0.83255 0.67108 0.0
H184 H 0.62324 0.83397 0.70061 0.0
H185 H 0.63545 0.85381 0.68287 0.0
C186 C 0.57345 0.81198 0.60208 0.0
N187 N 0.5851 0.8298 0.60737 0.0
N188 N 0.581 0.83517 0.62793 0.0
C189 C 0.56663 0.82095 0.6364 0.0
C190 C 0.56131 0.80579 0.62031 0.0
C191 C 0.5734 0.80179 0.57971 0.0
H192 H 0.57214 0.81453 0.56696 0.0
H193 H 0.58904 0.79333 0.57721 0.0
H194 H 0.55976 0.79007 0.57771 0.0
O195 O 0.59635 0.87771 0.59138 0.0
O196 O 0.58601 0.88662 0.62504 0.0
H197 H 0.54914 0.83623 0.6624 0.0
H198 H 0.54909 0.80699 0.66397 0.0
C199 C 0.55894 0.82148 0.65975 0.0
H200 H 0.57319 0.82232 0.67097 0.0
H201 H 0.56002 0.88178 0.66884 0.0
O202 O 0.60635 0.8405 0.55935 0.0
C203 C 0.58893 0.89147 0.60493 0.0
Co204 Co 0.39913 0.35012 0.90795 0.0
Co205 Co 0.40673 0.35402 0.85745 0.0
C206 C 0.36163 0.34821 0.87769 0.0
O207 O 0.36891 0.34514 0.8971 0.0
O208 O 0.37456 0.35171 0.86173 0.0
C209 C 0.38411 0.35798 0.95015 0.0
O210 O 0.36741 0.36449 0.93845 0.0
C211 C 0.39971 0.3433 0.81109 0.0
C212 C 0.42483 0.3635 0.79508 0.0
C213 C 0.407 0.35027 0.79069 0.0
N214 N 0.41244 0.35228 0.82673 0.0
N215 N 0.42776 0.36389 0.81704 0.0
C216 C 0.37932 0.33082 0.81594 0.0
H217 H 0.36522 0.34184 0.81498 0.0
H218 H 0.38019 0.3236 0.8326 0.0
H219 H 0.37668 0.31763 0.80387 0.0
C220 C 0.43252 0.31541 0.90276 0.0
N221 N 0.41967 0.33114 0.89469 0.0
N222 N 0.42294 0.33288 0.87339 0.0
C223 C 0.43811 0.31842 0.86723 0.0
C224 C 0.44478 0.30678 0.88564 0.0
C225 C 0.43352 0.30947 0.9266 0.0
H226 H 0.43635 0.32428 0.9366 0.0
H227 H 0.41761 0.30249 0.93161 0.0
H228 H 0.44661 0.29769 0.92999 0.0
O229 O 0.40526 0.38108 0.90187 0.0
O230 O 0.41377 0.38407 0.86667 0.0
H231 H 0.45382 0.33019 0.83829 0.0
H232 H 0.45641 0.30131 0.84226 0.0
C233 C 0.44537 0.3153 0.84396 0.0
H234 H 0.43095 0.31267 0.83324 0.0
H235 H 0.43932 0.37322 0.82547 0.0
O236 O 0.4 0.34911 0.94042 0.0
C237 C 0.4107 0.39263 0.88547 0.0
Co238 Co 0.90168 0.14789 0.15991 0.0
Co239 Co 0.8966 0.15011 0.10834 0.0
C240 C 0.90293 0.10816 0.13187 0.0
O241 O 0.90378 0.1173 0.15064 0.0
O242 O 0.90082 0.11908 0.11429 0.0
C243 C 0.90737 0.13299 0.20397 0.0
O244 O 0.91487 0.11544 0.19457 0.0
C245 C 0.897 0.14002 0.06105 0.0
C246 C 0.88689 0.17113 0.04658 0.0
C247 C 0.89185 0.14995 0.04129 0.0
N248 N 0.89542 0.15476 0.07728 0.0
N249 N 0.88942 0.17333 0.0685 0.0
C250 C 0.90016 0.11636 0.065 0.0
H251 H 0.91604 0.11393 0.07332 0.0
H252 H 0.89954 0.10667 0.04966 0.0
H253 H 0.8871 0.11035 0.07599 0.0
C254 C 0.93667 0.17995 0.15036 0.0
N255 N 0.9207 0.16625 0.14394 0.0
N256 N 0.91871 0.16701 0.12234 0.0
C257 C 0.93362 0.18095 0.11433 0.0
C258 C 0.94532 0.18978 0.13178 0.0
C259 C 0.94249 0.18428 0.17391 0.0
H260 H 0.95205 0.1705 0.18031 0.0
H261 H 0.95221 0.19939 0.17573 0.0
H262 H 0.92747 0.18547 0.18388 0.0
O263 O 0.87144 0.15604 0.15514 0.0
O264 O 0.8672 0.15746 0.11903 0.0
H265 H 0.92537 0.19694 0.08436 0.0
H266 H 0.95395 0.19155 0.0874 0.0
C267 C 0.93735 0.185 0.09035 0.0
H268 H 0.93524 0.16978 0.08087 0.0
H269 H 0.88618 0.18727 0.07759 0.0
O270 O 0.90406 0.14971 0.19233 0.0
C271 C 0.8595 0.15895 0.13836 0.0
Co272 Co 0.09139 0.09863 0.34585 0.0
Co273 Co 0.14044 0.09229 0.35787 0.0
C274 C 0.12214 0.13537 0.34305 0.0
O275 O 0.10318 0.12777 0.33918 0.0
O276 O 0.1373 0.12331 0.35015 0.0
C277 C 0.04889 0.11411 0.34478 0.0
O278 O 0.05942 0.13232 0.34857 0.0
C279 C 0.18716 0.0982 0.35331 0.0
C280 C 0.1996 0.07857 0.38084 0.0
C281 C 0.206 0.09353 0.36509 0.0
N282 N 0.17053 0.08705 0.36217 0.0
N283 N 0.17811 0.07505 0.37837 0.0
C284 C 0.18472 0.11247 0.33362 0.0
H285 H 0.17054 0.10712 0.32355 0.0
H286 H 0.19968 0.1122 0.32344 0.0
H287 H 0.18178 0.12928 0.33909 0.0
C288 C 0.10147 0.06228 0.31534 0.0
N289 N 0.10711 0.07656 0.33119 0.0
N290 N 0.12769 0.07377 0.33643 0.0
C291 C 0.13575 0.05747 0.32427 0.0
C292 C 0.11942 0.04965 0.31044 0.0
C293 C 0.07914 0.0606 0.3056 0.0
H294 H 0.06705 0.05894 0.31902 0.0
H295 H 0.07547 0.07576 0.29663 0.0
H296 H 0.07756 0.04662 0.2942 0.0
O297 O 0.09272 0.09565 0.37815 0.0
O298 O 0.12685 0.08864 0.38695 0.0
H299 H 0.16269 0.04465 0.34215 0.0
H300 H 0.16235 0.03731 0.31324 0.0
C301 C 0.15894 0.05036 0.32526 0.0
H302 H 0.16977 0.06437 0.3218 0.0
H303 H 0.16842 0.06542 0.38853 0.0
O304 O 0.05966 0.09716 0.34045 0.0
C305 C 0.1072 0.09164 0.3925 0.0
Co306 Co 0.14565 0.90904 0.60596 0.0
Co307 Co 0.138 0.85895 0.59982 0.0
C308 C 0.14785 0.87995 0.64414 0.0
O309 O 0.15183 0.89866 0.63629 0.0
O310 O 0.1425 0.86419 0.63166 0.0
C311 C 0.13946 0.95076 0.62126 0.0
O312 O 0.13256 0.93896 0.63782 0.0
C313 C 0.14326 0.81273 0.6087 0.0
C314 C 0.12169 0.79821 0.58346 0.0
C315 C 0.13396 0.79315 0.60195 0.0
N316 N 0.13628 0.82845 0.59519 0.0
N317 N 0.12364 0.8196 0.57996 0.0
C318 C 0.15895 0.81671 0.62718 0.0
H319 H 0.16926 0.83108 0.62356 0.0
H320 H 0.16948 0.80244 0.62972 0.0
H321 H 0.1498 0.81995 0.64252 0.0
C322 C 0.17845 0.90017 0.57049 0.0
N323 N 0.16255 0.89391 0.58443 0.0
N324 N 0.15931 0.87292 0.58216 0.0
C325 C 0.17289 0.86521 0.56671 0.0
C326 C 0.18551 0.88219 0.55869 0.0
C327 C 0.18635 0.923 0.56831 0.0
H328 H 0.17239 0.93421 0.56904 0.0
H329 H 0.19733 0.92686 0.58235 0.0
H330 H 0.19534 0.92543 0.55269 0.0
O331 O 0.114 0.90417 0.60222 0.0
O332 O 0.10863 0.86971 0.59383 0.0
H333 H 0.15942 0.83669 0.55195 0.0
H334 H 0.18876 0.83849 0.55022 0.0
C335 C 0.17447 0.84177 0.56075 0.0
H336 H 0.17574 0.83199 0.57597 0.0
H337 H 0.11549 0.82834 0.56784 0.0
O338 O 0.14799 0.9413 0.60479 0.0
C339 C 0.10129 0.88853 0.59742 0.0
Co340 Co 0.40813 0.89333 0.84022 0.0
Co341 Co 0.35917 0.90385 0.8469 0.0
C342 C 0.37555 0.85905 0.83406 0.0
O343 O 0.39524 0.86511 0.83162 0.0
O344 O 0.36099 0.87238 0.83999 0.0
C345 C 0.44897 0.87631 0.84694 0.0
O346 O 0.43686 0.85949 0.85213 0.0
C347 C 0.31261 0.90213 0.83692 0.0
C348 C 0.29988 0.92497 0.86163 0.0
C349 C 0.29347 0.90976 0.84604 0.0
N350 N 0.32945 0.91205 0.84702 0.0
N351 N 0.32172 0.92613 0.86132 0.0
C352 C 0.31499 0.88391 0.82086 0.0
H353 H 0.33188 0.88306 0.81468 0.0
H354 H 0.30417 0.88625 0.80649 0.0
H355 H 0.31033 0.86847 0.82889 0.0
C356 C 0.40477 0.93059 0.80953 0.0
N357 N 0.39619 0.91667 0.82423 0.0
N358 N 0.37555 0.9212 0.82714 0.0
C359 C 0.3703 0.93823 0.81444 0.0
C360 C 0.38865 0.94482 0.80286 0.0
C361 C 0.42814 0.93057 0.80276 0.0
H362 H 0.43174 0.91508 0.79431 0.0
H363 H 0.4321 0.9443 0.79172 0.0
H364 H 0.4386 0.93152 0.81766 0.0
O365 O 0.40341 0.89616 0.8722 0.0
O366 O 0.36957 0.90661 0.87766 0.0
H367 H 0.34306 0.95409 0.82882 0.0
H368 H 0.34668 0.95987 0.79984 0.0
C369 C 0.34783 0.94721 0.81267 0.0
H370 H 0.33623 0.93395 0.8086 0.0
H371 H 0.33139 0.93543 0.87195 0.0
O372 O 0.43998 0.89283 0.83863 0.0
C373 C 0.38816 0.90147 0.88514 0.0
Co374 Co 0.35667 0.15836 0.10197 0.0
Co375 Co 0.35633 0.10721 0.09666 0.0
C376 C 0.39795 0.13222 0.09767 0.0
O377 O 0.38799 0.15004 0.10025 0.0
O378 O 0.38754 0.11452 0.095 0.0
C379 C 0.3716 0.20271 0.10263 0.0
O380 O 0.39032 0.19404 0.09744 0.0
C381 C 0.36762 0.06112 0.09355 0.0
C382 C 0.33562 0.04502 0.09633 0.0
C383 C 0.35772 0.04102 0.09558 0.0
N384 N 0.35217 0.07642 0.09324 0.0
N385 N 0.33304 0.06661 0.09484 0.0
C386 C 0.39146 0.06571 0.0924 0.0
H387 H 0.39682 0.07348 0.10801 0.0
H388 H 0.39466 0.077 0.0786 0.0
H389 H 0.40094 0.05076 0.0897 0.0
C390 C 0.32486 0.15395 0.06506 0.0
N391 N 0.33925 0.1454 0.07933 0.0
N392 N 0.33964 0.12424 0.0766 0.0
C393 C 0.32605 0.11881 0.05997 0.0
C394 C 0.31592 0.13737 0.05227 0.0
C395 C 0.31851 0.17726 0.06518 0.0
H396 H 0.31887 0.18367 0.08225 0.0
H397 H 0.33041 0.18664 0.05528 0.0
H398 H 0.30202 0.17951 0.05813 0.0
O399 O 0.34675 0.1486 0.13089 0.0
O400 O 0.34811 0.11294 0.12758 0.0
H401 H 0.3105 0.08776 0.05971 0.0
H402 H 0.31926 0.09691 0.03309 0.0
C403 C 0.32365 0.09641 0.05082 0.0
H404 H 0.33902 0.08738 0.05288 0.0
H405 H 0.31828 0.07469 0.0962 0.0
O406 O 0.35475 0.19065 0.10367 0.0
C407 C 0.34488 0.12981 0.13911 0.0
Co408 Co 0.15757 0.89033 0.15126 0.0
Co409 Co 0.10625 0.88809 0.15126 0.0
C410 C 0.13144 0.89855 0.11045 0.0
O411 O 0.14958 0.89747 0.12056 0.0
O412 O 0.11349 0.89578 0.12049 0.0
C413 C 0.20221 0.89508 0.13867 0.0
O414 O 0.19376 0.90141 0.1199 0.0
C415 C 0.0599 0.89338 0.14041 0.0
C416 C 0.04403 0.8803 0.17016 0.0
C417 C 0.03978 0.88839 0.14936 0.0
N418 N 0.0754 0.88822 0.15512 0.0
N419 N 0.06578 0.88047 0.1729 0.0
C420 C 0.06433 0.90334 0.11846 0.0
H421 H 0.07737 0.91575 0.12009 0.0
H422 H 0.04957 0.91103 0.11156 0.0
H423 H 0.0699 0.89058 0.10697 0.0
C424 C 0.14901 0.92218 0.18682 0.0
N425 N 0.1422 0.90756 0.17177 0.0
N426 N 0.12078 0.90677 0.17172 0.0
C427 C 0.11331 0.92101 0.1867 0.0
C428 C 0.13093 0.93115 0.19687 0.0
C429 C 0.17243 0.9272 0.19145 0.0
H430 H 0.1816 0.91191 0.19305 0.0
H431 H 0.17935 0.93627 0.17733 0.0
H432 H 0.17445 0.93693 0.20671 0.0
O433 O 0.15076 0.85942 0.15443 0.0
O434 O 0.11481 0.85744 0.15453 0.0
H435 H 0.08223 0.91348 0.20036 0.0
H436 H 0.08772 0.94206 0.1981 0.0
C437 C 0.08979 0.92614 0.18992 0.0
H438 H 0.08126 0.92633 0.17381 0.0
H439 H 0.07409 0.87475 0.18668 0.0
O440 O 0.18972 0.89152 0.15493 0.0
C441 C 0.13328 0.84834 0.15494 0.0
Co442 Co 0.3501 0.84641 0.40211 0.0
Co443 Co 0.34327 0.89598 0.39561 0.0
C444 C 0.38744 0.87585 0.40552 0.0
O445 O 0.37989 0.85697 0.40923 0.0
O446 O 0.37493 0.89122 0.39997 0.0
C447 C 0.36529 0.80432 0.39722 0.0
O448 O 0.38316 0.81531 0.393 0.0
C449 C 0.35055 0.94182 0.40542 0.0
C450 C 0.32723 0.9571 0.38263 0.0
C451 C 0.34415 0.9617 0.39711 0.0
N452 N 0.33822 0.9263 0.39595 0.0
N453 N 0.32396 0.93557 0.38277 0.0
C454 C 0.3697 0.93728 0.41994 0.0
H455 H 0.36879 0.92059 0.42646 0.0
H456 H 0.37021 0.94844 0.43418 0.0
H457 H 0.38491 0.93955 0.41043 0.0
C458 C 0.31471 0.85351 0.43524 0.0
N459 N 0.32854 0.86046 0.4195 0.0
N460 N 0.32583 0.88135 0.41664 0.0
C461 C 0.31014 0.88834 0.43029 0.0
C462 C 0.30247 0.87096 0.44256 0.0
C463 C 0.31299 0.83049 0.44256 0.0
H464 H 0.32828 0.82595 0.45106 0.0
H465 H 0.29903 0.82793 0.4538 0.0
H466 H 0.31117 0.81981 0.42794 0.0
O467 O 0.34655 0.8518 0.3701 0.0
O468 O 0.33733 0.88598 0.36533 0.0
H469 H 0.29613 0.91674 0.41639 0.0
H470 H 0.29164 0.914 0.4457 0.0
C471 C 0.30345 0.91149 0.4322 0.0
H472 H 0.31803 0.92172 0.43538 0.0
H473 H 0.31294 0.92709 0.37281 0.0
O474 O 0.34853 0.81442 0.40369 0.0
C475 C 0.34138 0.86735 0.35752 0.0
Co476 Co 0.40689 0.11261 0.64871 0.0
Co477 Co 0.35625 0.10404 0.64604 0.0
C478 C 0.37666 0.14882 0.65125 0.0
O479 O 0.39599 0.14214 0.65403 0.0
O480 O 0.36094 0.13567 0.64799 0.0
C481 C 0.44654 0.12685 0.63435 0.0
O482 O 0.43257 0.13872 0.62341 0.0
C483 C 0.31021 0.11254 0.65493 0.0
C484 C 0.29403 0.08355 0.64105 0.0
C485 C 0.28995 0.10364 0.65023 0.0
N486 N 0.32561 0.09858 0.64846 0.0
N487 N 0.31579 0.08118 0.64036 0.0
C488 C 0.31484 0.13382 0.66583 0.0
H489 H 0.31764 0.14626 0.65304 0.0
H490 H 0.32964 0.13268 0.67625 0.0
H491 H 0.3009 0.1389 0.67614 0.0
C492 C 0.4031 0.07863 0.68311 0.0
N493 N 0.3943 0.09198 0.66808 0.0
N494 N 0.37315 0.08847 0.66707 0.0
C495 C 0.36784 0.07278 0.68149 0.0
C496 C 0.38662 0.06592 0.6921 0.0
C497 C 0.427 0.07723 0.68754 0.0
H498 H 0.4359 0.07656 0.6717 0.0
H499 H 0.43244 0.09207 0.69636 0.0
H500 H 0.43107 0.06283 0.69754 0.0
O501 O 0.39934 0.10599 0.61789 0.0
O502 O 0.36452 0.09685 0.61555 0.0
H503 H 0.33993 0.0546 0.67116 0.0
H504 H 0.34389 0.05522 0.70066 0.0
C505 C 0.34511 0.06483 0.6853 0.0
H506 H 0.33393 0.07876 0.6864 0.0
H507 H 0.32395 0.06805 0.63353 0.0
O508 O 0.43927 0.11359 0.64863 0.0
C509 C 0.38291 0.1001 0.60655 0.0
Co510 Co 0.15126 0.15916 0.89277 0.0
Co511 Co 0.14947 0.10891 0.89943 0.0
C512 C 0.10918 0.13503 0.90122 0.0
O513 O 0.11993 0.15233 0.89741 0.0
O514 O 0.11871 0.11698 0.90355 0.0
C515 C 0.14 0.20388 0.89472 0.0
O516 O 0.12242 0.19665 0.90459 0.0
C517 C 0.13753 0.06383 0.90877 0.0
C518 C 0.16767 0.04682 0.89981 0.0
C519 C 0.14628 0.04342 0.90606 0.0
N520 N 0.15294 0.07864 0.90404 0.0
N521 N 0.17097 0.06835 0.89886 0.0
C522 C 0.11488 0.06923 0.91564 0.0
H523 H 0.11528 0.08305 0.92731 0.0
H524 H 0.10676 0.05525 0.92367 0.0
H525 H 0.10535 0.07397 0.9009 0.0
C526 C 0.1847 0.15552 0.9279 0.0
N527 N 0.16966 0.14677 0.91429 0.0
N528 N 0.16858 0.12575 0.91762 0.0
C529 C 0.18255 0.12057 0.93392 0.0
C530 C 0.19338 0.13923 0.94084 0.0
C531 C 0.19025 0.17911 0.92861 0.0
H532 H 0.17518 0.18852 0.9312 0.0
H533 H 0.2021 0.18295 0.94191 0.0
H534 H 0.19711 0.18404 0.91249 0.0
O535 O 0.15769 0.14838 0.86325 0.0
O536 O 0.15486 0.11295 0.86746 0.0
H537 H 0.19678 0.08942 0.93045 0.0
H538 H 0.194 0.09801 0.95853 0.0
C539 C 0.18607 0.09807 0.94212 0.0
H540 H 0.17031 0.08926 0.94303 0.0
H541 H 0.18522 0.076 0.89362 0.0
O542 O 0.15509 0.19078 0.89004 0.0
C543 C 0.15754 0.12942 0.85522 0.0
Co544 Co 0.84886 0.34919 0.89899 0.0
Co545 Co 0.8527 0.39968 0.90019 0.0
C546 C 0.89151 0.37297 0.90817 0.0
O547 O 0.8805 0.3557 0.90471 0.0
O548 O 0.88238 0.39134 0.90852 0.0
C549 C 0.85949 0.3044 0.9026 0.0
O550 O 0.87849 0.31204 0.90895 0.0
C551 C 0.86756 0.44413 0.89611 0.0
C552 C 0.83712 0.4628 0.89652 0.0
C553 C 0.85946 0.46489 0.89429 0.0
N554 N 0.8509 0.43048 0.90001 0.0
N555 N 0.83269 0.4417 0.89992 0.0
C556 C 0.89002 0.43688 0.89036 0.0
H557 H 0.88931 0.42109 0.88169 0.0
H558 H 0.89961 0.43508 0.90572 0.0
H559 H 0.89839 0.44872 0.87955 0.0
C560 C 0.81403 0.35846 0.932 0.0
N561 N 0.82967 0.36491 0.91787 0.0
N562 N 0.83206 0.38605 0.91929 0.0
C563 C 0.81883 0.39355 0.93524 0.0
C564 C 0.80654 0.37641 0.9436 0.0
C565 C 0.80604 0.3356 0.93365 0.0
H566 H 0.80702 0.32752 0.91736 0.0
H567 H 0.81652 0.32669 0.94537 0.0
H568 H 0.78899 0.33493 0.93954 0.0
O569 O 0.84422 0.35626 0.8679 0.0
O570 O 0.849 0.3917 0.86866 0.0
H571 H 0.80743 0.42612 0.93709 0.0
H572 H 0.81748 0.41566 0.96265 0.0
C573 C 0.82022 0.41595 0.94459 0.0
H574 H 0.83639 0.42328 0.94125 0.0
H575 H 0.81717 0.43485 0.90097 0.0
O576 O 0.84389 0.31744 0.8996 0.0
C577 C 0.84588 0.37422 0.85798 0.0
Co578 Co 0.90959 0.61108 0.14716 0.0
Co579 Co 0.85901 0.60304 0.14181 0.0
C580 C 0.87871 0.64754 0.14922 0.0
O581 O 0.89802 0.64065 0.15183 0.0
O582 O 0.86293 0.63461 0.14538 0.0
C583 C 0.95243 0.62831 0.14415 0.0
O584 O 0.9416 0.64625 0.14092 0.0
C585 C 0.81217 0.60928 0.14854 0.0
C586 C 0.79843 0.58455 0.12607 0.0
C587 C 0.79287 0.60197 0.13919 0.0
N588 N 0.82847 0.59681 0.1412 0.0
N589 N 0.82003 0.58175 0.12816 0.0
C590 C 0.81535 0.62944 0.16184 0.0
H591 H 0.83002 0.62806 0.17243 0.0
H592 H 0.80087 0.63257 0.17219 0.0
H593 H 0.81754 0.64334 0.15054 0.0
C594 C 0.90336 0.57655 0.18091 0.0
N595 N 0.89562 0.59025 0.1656 0.0
N596 N 0.87451 0.58699 0.16334 0.0
C597 C 0.8682 0.57107 0.17706 0.0
C598 C 0.88625 0.56383 0.18867 0.0
C599 C 0.92694 0.57485 0.18676 0.0
H600 H 0.93235 0.5901 0.19485 0.0
H601 H 0.9301 0.56101 0.19786 0.0
H602 H 0.9366 0.57298 0.17149 0.0
O603 O 0.90461 0.60432 0.1158 0.0
O604 O 0.86958 0.59653 0.11203 0.0
H605 H 0.84308 0.55233 0.19343 0.0
H606 H 0.83423 0.57722 0.18084 0.0
C607 C 0.84521 0.56319 0.17908 0.0
H608 H 0.84053 0.5544 0.16381 0.0
H609 H 0.82923 0.57054 0.11942 0.0
O610 O 0.94202 0.61114 0.14921 0.0
C611 C 0.88847 0.59878 0.10387 0.0
Co612 Co 0.64806 0.65535 0.39841 0.0
Co613 Co 0.65415 0.60502 0.39835 0.0
C614 C 0.61022 0.62624 0.40411 0.0
O615 O 0.61803 0.64537 0.40474 0.0
O616 O 0.62251 0.60992 0.4018 0.0
C617 C 0.63304 0.69634 0.38818 0.0
O618 O 0.61584 0.68458 0.38313 0.0
C619 C 0.64605 0.55964 0.40919 0.0
C620 C 0.67358 0.54356 0.39287 0.0
C621 C 0.65422 0.5395 0.40377 0.0
N622 N 0.65966 0.5749 0.40142 0.0
N623 N 0.67627 0.56518 0.39198 0.0
C624 C 0.62573 0.56432 0.42171 0.0
H625 H 0.62782 0.57938 0.4315 0.0
H626 H 0.62152 0.55068 0.4328 0.0
H627 H 0.61215 0.56658 0.40995 0.0
C628 C 0.6831 0.65238 0.43203 0.0
N629 N 0.66873 0.64329 0.41792 0.0
N630 N 0.67137 0.62217 0.41784 0.0
C631 C 0.68762 0.61718 0.43181 0.0
C632 C 0.69564 0.63613 0.44121 0.0
C633 C 0.68566 0.67625 0.43525 0.0
H634 H 0.66973 0.68325 0.4398 0.0
H635 H 0.69792 0.68019 0.44814 0.0
H636 H 0.6907 0.68373 0.41946 0.0
O637 O 0.65396 0.64709 0.36773 0.0
O638 O 0.6603 0.61191 0.36735 0.0
H639 H 0.70416 0.58879 0.42129 0.0
H640 H 0.7064 0.59406 0.45048 0.0
C641 C 0.69536 0.59469 0.43601 0.0
H642 H 0.68122 0.58382 0.43885 0.0
H643 H 0.68886 0.5733 0.38389 0.0
O644 O 0.64933 0.6873 0.39712 0.0
C645 C 0.65853 0.62985 0.35737 0.0
Co646 Co 0.9037 0.39516 0.34144 0.0
Co647 Co 0.85343 0.40109 0.34334 0.0
C648 C 0.87449 0.35718 0.33755 0.0
O649 O 0.89364 0.36504 0.33631 0.0
O650 O 0.85814 0.36942 0.34007 0.0
C651 C 0.94731 0.37991 0.3413 0.0
O652 O 0.93812 0.36101 0.33752 0.0
C653 C 0.80895 0.39313 0.32933 0.0
C654 C 0.79068 0.41751 0.34815 0.0
C655 C 0.78812 0.39984 0.33426 0.0
N656 N 0.82317 0.40592 0.34013 0.0
N657 N 0.81219 0.4207 0.35109 0.0
C658 C 0.81534 0.37515 0.31422 0.0
H659 H 0.83122 0.37891 0.30642 0.0
H660 H 0.80274 0.3725 0.30132 0.0
H661 H 0.817 0.36005 0.32379 0.0
C662 C 0.8994 0.42902 0.30709 0.0
N663 N 0.89088 0.41523 0.32195 0.0
N664 N 0.86972 0.41799 0.32292 0.0
C665 C 0.86408 0.43377 0.30877 0.0
C666 C 0.8827 0.44134 0.29825 0.0
C667 C 0.92325 0.43123 0.30278 0.0
H668 H 0.93178 0.43521 0.31843 0.0
H669 H 0.9296 0.4155 0.2969 0.0
H670 H 0.92684 0.444 0.29049 0.0
O671 O 0.89666 0.40171 0.37237 0.0
O672 O 0.86127 0.40767 0.37434 0.0
H673 H 0.83522 0.44876 0.32061 0.0
H674 H 0.84007 0.45294 0.29154 0.0
C675 C 0.84124 0.44119 0.30524 0.0
H676 H 0.83066 0.42703 0.30149 0.0
H677 H 0.81934 0.43234 0.36135 0.0
O678 O 0.9357 0.3968 0.34134 0.0
C679 C 0.87983 0.40619 0.38353 0.0
Co680 Co 0.59624 0.60131 0.84501 0.0
Co681 Co 0.64476 0.59045 0.85617 0.0
C682 C 0.62931 0.63596 0.84613 0.0
O683 O 0.61009 0.63011 0.84083 0.0
O684 O 0.6433 0.6222 0.85233 0.0
C685 C 0.55712 0.61898 0.85327 0.0
O686 O 0.57129 0.6315 0.8635 0.0
C687 C 0.69146 0.59563 0.8522 0.0
C688 C 0.70356 0.57233 0.87674 0.0
C689 C 0.71014 0.58925 0.8633 0.0
N690 N 0.67466 0.58354 0.85932 0.0
N691 N 0.68204 0.56936 0.87368 0.0
C692 C 0.68936 0.61259 0.83481 0.0
H693 H 0.67563 0.6085 0.82358 0.0
H694 H 0.70464 0.61407 0.82524 0.0
H695 H 0.68587 0.62839 0.84262 0.0
C696 C 0.60369 0.5664 0.81152 0.0
N697 N 0.61027 0.57946 0.82811 0.0
N698 N 0.63065 0.57506 0.83301 0.0
C699 C 0.63763 0.55903 0.81986 0.0
C700 C 0.6208 0.55294 0.80578 0.0
C701 C 0.58122 0.56636 0.80202 0.0
H702 H 0.56912 0.56791 0.81543 0.0
H703 H 0.57947 0.58058 0.79107 0.0
H704 H 0.57789 0.5514 0.79239 0.0
O705 O 0.59804 0.59491 0.87678 0.0
O706 O 0.63137 0.58439 0.88481 0.0
H707 H 0.66304 0.54233 0.83661 0.0
H708 H 0.66311 0.53848 0.80702 0.0
C709 C 0.66023 0.55025 0.82049 0.0
H710 H 0.67209 0.56377 0.819 0.0
H711 H 0.67219 0.55861 0.88244 0.0
O712 O 0.56423 0.60384 0.84102 0.0
C713 C 0.61199 0.58835 0.89063 0.0
Co714 Co 0.90206 0.6503 0.90372 0.0
Co715 Co 0.90008 0.65373 0.85238 0.0
C716 C 0.85966 0.65286 0.8795 0.0
O717 O 0.87042 0.6516 0.89736 0.0
O718 O 0.86917 0.65432 0.86102 0.0
C719 C 0.8948 0.63209 0.94291 0.0
O720 O 0.88382 0.62029 0.92861 0.0
C721 C 0.88591 0.66425 0.80783 0.0
C722 C 0.91447 0.65508 0.78808 0.0
C723 C 0.89323 0.66217 0.78647 0.0
N724 N 0.90195 0.65838 0.82157 0.0
N725 N 0.91907 0.6531 0.80967 0.0
C726 C 0.86395 0.67159 0.81504 0.0
H727 H 0.86551 0.68184 0.82999 0.0
H728 H 0.85575 0.68093 0.80187 0.0
H729 H 0.85383 0.6572 0.81898 0.0
C730 C 0.93211 0.6878 0.89791 0.0
N731 N 0.91796 0.67286 0.8901 0.0
N732 N 0.91706 0.67426 0.86848 0.0
C733 C 0.9304 0.69034 0.86188 0.0
C734 C 0.94054 0.69931 0.88022 0.0
C735 C 0.93869 0.68952 0.92158 0.0
H736 H 0.94253 0.67321 0.92801 0.0
H737 H 0.9248 0.69579 0.93123 0.0
H738 H 0.95296 0.70042 0.92386 0.0
O739 O 0.91224 0.6221 0.89333 0.0
O740 O 0.90983 0.62362 0.85704 0.0
H741 H 0.94407 0.68529 0.83003 0.0
H742 H 0.94099 0.71338 0.83733 0.0
C743 C 0.9334 0.69707 0.83843 0.0
H744 H 0.91747 0.69727 0.82984 0.0
H745 H 0.9336 0.64732 0.81626 0.0
O746 O 0.90514 0.64867 0.93604 0.0
C747 C 0.91389 0.61319 0.87457 0.0
Co748 Co 0.09292 0.14211 0.66 0.0
Co749 Co 0.09977 0.15215 0.61037 0.0
C750 C 0.0924 0.10652 0.62866 0.0
O751 O 0.08718 0.11288 0.64783 0.0
O752 O 0.09784 0.12005 0.61388 0.0
C753 C 0.1045 0.12559 0.69928 0.0
O754 O 0.11356 0.11284 0.68467 0.0
C755 C 0.08974 0.14405 0.5644 0.0
C756 C 0.10737 0.17029 0.54732 0.0
C757 C 0.09539 0.15151 0.54372 0.0
N758 N 0.0983 0.1575 0.57957 0.0
N759 N 0.1086 0.17334 0.56928 0.0
C760 C 0.07616 0.12456 0.56967 0.0
H761 H 0.06669 0.12743 0.58491 0.0
H762 H 0.06489 0.12063 0.55588 0.0
H763 H 0.08692 0.1105 0.57239 0.0
C764 C 0.05929 0.17665 0.65506 0.0
N765 N 0.07486 0.16353 0.6471 0.0
N766 N 0.0779 0.16781 0.62611 0.0
C767 C 0.0645 0.18397 0.62011 0.0
C768 C 0.05221 0.19018 0.63823 0.0
C769 C 0.05226 0.17683 0.6786 0.0
H770 H 0.06679 0.17801 0.68944 0.0
H771 H 0.0439 0.1613 0.68236 0.0
H772 H 0.04116 0.19046 0.68212 0.0
O773 O 0.12417 0.14838 0.65472 0.0
O774 O 0.12949 0.15958 0.62062 0.0
H775 H 0.07909 0.20098 0.59334 0.0
H776 H 0.05004 0.20491 0.5956 0.0
C777 C 0.06335 0.19304 0.59733 0.0
H778 H 0.06069 0.17968 0.58536 0.0
H779 H 0.11725 0.18569 0.57723 0.0
O780 O 0.09194 0.14047 0.69251 0.0
C781 C 0.13682 0.15514 0.63968 0.0
Co782 Co 0.59363 0.35837 0.34129 0.0
Co783 Co 0.6094 0.34382 0.3878 0.0
C784 C 0.59828 0.39051 0.37612 0.0
O785 O 0.59114 0.38646 0.35682 0.0
O786 O 0.60566 0.37552 0.38826 0.0
C787 C 0.59385 0.37765 0.30017 0.0
O788 O 0.60126 0.39374 0.31229 0.0
C789 C 0.60578 0.34645 0.43492 0.0
C790 C 0.63429 0.32801 0.44616 0.0
C791 C 0.61826 0.34196 0.45345 0.0
N792 N 0.61448 0.33626 0.41757 0.0
N793 N 0.63128 0.32491 0.42441 0.0
C794 C 0.58581 0.36005 0.43334 0.0
H795 H 0.57543 0.35442 0.41943 0.0
H796 H 0.57645 0.35936 0.44892 0.0
H797 H 0.5905 0.37707 0.43009 0.0
C798 C 0.56014 0.32445 0.35034 0.0
N799 N 0.57799 0.33603 0.35589 0.0
N800 N 0.58487 0.32972 0.37537 0.0
C801 C 0.57179 0.3138 0.38278 0.0
C802 C 0.55556 0.30995 0.36722 0.0
C803 C 0.54731 0.32799 0.32971 0.0
H804 H 0.54836 0.34522 0.32474 0.0
H805 H 0.53002 0.32322 0.33198 0.0
H806 H 0.5543 0.31802 0.31631 0.0
O807 O 0.62493 0.35184 0.33964 0.0
O808 O 0.63609 0.33803 0.37119 0.0
H809 H 0.56755 0.28571 0.40356 0.0
H810 H 0.569 0.31142 0.41772 0.0
C811 C 0.57559 0.30184 0.40382 0.0
H812 H 0.59328 0.29977 0.40659 0.0
H813 H 0.64158 0.3163 0.41404 0.0
O814 O 0.58651 0.36081 0.30967 0.0
C815 C 0.63983 0.34374 0.35148 0.0
Co816 Co 0.40038 0.85433 0.158 0.0
Co817 Co 0.39759 0.84745 0.10668 0.0
C818 C 0.40777 0.89124 0.12783 0.0
O819 O 0.40783 0.88386 0.14741 0.0
O820 O 0.40432 0.87883 0.11134 0.0
C821 C 0.39174 0.86927 0.20019 0.0
O822 O 0.38565 0.88592 0.18835 0.0
C823 C 0.40369 0.85431 0.05919 0.0
C824 C 0.38901 0.82477 0.04488 0.0
C825 C 0.3978 0.84473 0.0394 0.0
N826 N 0.39827 0.84093 0.07574 0.0
N827 N 0.3897 0.82317 0.06701 0.0
C828 C 0.41408 0.87601 0.06225 0.0
H829 H 0.40116 0.88785 0.06599 0.0
H830 H 0.42583 0.87555 0.07613 0.0
H831 H 0.4227 0.88124 0.04712 0.0
C832 C 0.43248 0.81879 0.15353 0.0
N833 N 0.41791 0.83258 0.14486 0.0
N834 N 0.41666 0.8294 0.12343 0.0
C835 C 0.43041 0.81337 0.11786 0.0
C836 C 0.44087 0.80604 0.13674 0.0
C837 C 0.43768 0.81761 0.17757 0.0
H838 H 0.42244 0.81483 0.18692 0.0
H839 H 0.44463 0.83335 0.18309 0.0
H840 H 0.4493 0.80447 0.18128 0.0
O841 O 0.36931 0.85018 0.15125 0.0
O842 O 0.36669 0.8439 0.11547 0.0
H843 H 0.42022 0.7959 0.08924 0.0
H844 H 0.44927 0.79619 0.09351 0.0
C845 C 0.43426 0.80594 0.09475 0.0
H846 H 0.4356 0.82012 0.08368 0.0
H847 H 0.38341 0.81034 0.07621 0.0
O848 O 0.4007 0.85335 0.19062 0.0
C849 C 0.35785 0.84643 0.1342 0.0
Co850 Co 0.89878 0.35711 0.65707 0.0
Co851 Co 0.89966 0.35422 0.60538 0.0
C852 C 0.90793 0.39614 0.62879 0.0
O853 O 0.90509 0.38729 0.64748 0.0
O854 O 0.90755 0.38497 0.61117 0.0
C855 C 0.88564 0.37094 0.69728 0.0
O856 O 0.87569 0.38371 0.6833 0.0
C857 C 0.89972 0.36429 0.55824 0.0
C858 C 0.89549 0.33218 0.54276 0.0
C859 C 0.89715 0.35404 0.53804 0.0
N860 N 0.90026 0.34916 0.57414 0.0
N861 N 0.8975 0.33001 0.56475 0.0
C862 C 0.89796 0.38804 0.5627 0.0
H863 H 0.88683 0.3908 0.57672 0.0
H864 H 0.91429 0.39453 0.56699 0.0
H865 H 0.89153 0.39698 0.54832 0.0
C866 C 0.93131 0.32183 0.65243 0.0
N867 N 0.91751 0.33637 0.64371 0.0
N868 N 0.91816 0.33505 0.62204 0.0
C869 C 0.93278 0.31978 0.61641 0.0
C870 C 0.94145 0.3107 0.63543 0.0
C871 C 0.93411 0.31831 0.67663 0.0
H872 H 0.94404 0.33176 0.6836 0.0
H873 H 0.94226 0.30274 0.68011 0.0
H874 H 0.91801 0.31854 0.6848 0.0
O875 O 0.86816 0.35145 0.64957 0.0
O876 O 0.86832 0.35111 0.61319 0.0
H877 H 0.92961 0.30185 0.58647 0.0
H878 H 0.95702 0.30969 0.59308 0.0
C879 C 0.93985 0.3151 0.59336 0.0
H880 H 0.93819 0.32968 0.58294 0.0
H881 H 0.89589 0.31554 0.57341 0.0
O882 O 0.89879 0.35695 0.68977 0.0
C883 C 0.85807 0.35037 0.63134 0.0
Co884 Co 0.39467 0.1547 0.40917 0.0
Co885 Co 0.39905 0.1456 0.35873 0.0
C886 C 0.35591 0.15516 0.3797 0.0
O887 O 0.3644 0.15807 0.39863 0.0
O888 O 0.36749 0.15058 0.36302 0.0
C889 C 0.37966 0.15717 0.45285 0.0
O890 O 0.36056 0.15637 0.44314 0.0
C891 C 0.39142 0.14856 0.31165 0.0
C892 C 0.41499 0.12502 0.29873 0.0
C893 C 0.3975 0.13772 0.2926 0.0
N894 N 0.40423 0.14201 0.32822 0.0
N895 N 0.41854 0.12822 0.32036 0.0
C896 C 0.3741 0.16517 0.31433 0.0
H897 H 0.37806 0.17606 0.32837 0.0
H898 H 0.3723 0.17484 0.29907 0.0
H899 H 0.35846 0.15691 0.31786 0.0
C900 C 0.42836 0.18781 0.39831 0.0
N901 N 0.41468 0.17158 0.39267 0.0
N902 N 0.41635 0.16785 0.37141 0.0
C903 C 0.43107 0.18161 0.36277 0.0
C904 C 0.43924 0.19474 0.37953 0.0
C905 C 0.43144 0.19578 0.4214 0.0
H906 H 0.43239 0.18182 0.43279 0.0
H907 H 0.41712 0.20552 0.42618 0.0
H908 H 0.44639 0.20581 0.42312 0.0
O909 O 0.40074 0.12362 0.40709 0.0
O910 O 0.40537 0.11712 0.37164 0.0
H911 H 0.44541 0.16813 0.33391 0.0
H912 H 0.44596 0.19741 0.33466 0.0
C913 C 0.43626 0.18277 0.33874 0.0
H914 H 0.42094 0.18296 0.32906 0.0
H915 H 0.42992 0.12009 0.32999 0.0
O916 O 0.39663 0.15957 0.44121 0.0
C917 C 0.40462 0.11061 0.39143 0.0
Co918 Co 0.60096 0.64569 0.15881 0.0
Co919 Co 0.59821 0.64819 0.10748 0.0
C920 C 0.59424 0.6058 0.13118 0.0
O921 O 0.59602 0.61513 0.1498 0.0
O922 O 0.59409 0.61672 0.11344 0.0
C923 C 0.61671 0.63291 0.19788 0.0
O924 O 0.6268 0.621 0.18324 0.0
C925 C 0.58983 0.6392 0.06076 0.0
C926 C 0.60004 0.66994 0.04532 0.0
C927 C 0.59293 0.64912 0.04057 0.0
N928 N 0.59469 0.65355 0.07673 0.0
N929 N 0.60054 0.67198 0.06738 0.0
C930 C 0.58613 0.61562 0.06489 0.0
H931 H 0.60126 0.60878 0.07188 0.0
H932 H 0.57284 0.61354 0.07702 0.0
H933 H 0.58199 0.60645 0.04976 0.0
C934 C 0.56584 0.67864 0.15517 0.0
N935 N 0.58026 0.6648 0.1463 0.0
N936 N 0.57912 0.66593 0.12468 0.0
C937 C 0.56382 0.68052 0.11915 0.0
C938 C 0.55497 0.68919 0.13824 0.0
C939 C 0.5633 0.6822 0.17938 0.0
H940 H 0.57957 0.68414 0.18714 0.0
H941 H 0.55544 0.66771 0.18672 0.0
H942 H 0.55329 0.69664 0.18292 0.0
O943 O 0.63092 0.65333 0.15005 0.0
O944 O 0.62952 0.65395 0.11367 0.0
H945 H 0.56899 0.69691 0.08872 0.0
H946 H 0.54076 0.69309 0.09558 0.0
C947 C 0.55705 0.68551 0.09604 0.0
H948 H 0.55664 0.67049 0.08604 0.0
H949 H 0.60605 0.68556 0.07606 0.0
O950 O 0.60229 0.64606 0.19128 0.0
C951 C 0.64029 0.65526 0.13156 0.0
Co952 Co 0.0976 0.85934 0.84346 0.0
Co953 Co 0.11126 0.8475 0.89165 0.0
C954 C 0.09725 0.89263 0.87807 0.0
O955 O 0.0924 0.88739 0.85834 0.0
O956 O 0.10467 0.87878 0.89158 0.0
C957 C 0.09866 0.87774 0.80198 0.0
O958 O 0.10568 0.89404 0.81406 0.0
C959 C 0.10859 0.84842 0.93955 0.0
C960 C 0.13804 0.83022 0.94849 0.0
C961 C 0.12193 0.84321 0.95713 0.0
N962 N 0.11663 0.83922 0.92128 0.0
N963 N 0.13387 0.82782 0.92685 0.0
C964 C 0.09036 0.86427 0.9397 0.0
H965 H 0.09683 0.88061 0.94373 0.0
H966 H 0.08185 0.86448 0.92357 0.0
H967 H 0.07853 0.85983 0.9527 0.0
C968 C 0.06588 0.82357 0.85202 0.0
N969 N 0.08282 0.83628 0.85795 0.0
N970 N 0.08879 0.83128 0.87814 0.0
C971 C 0.07604 0.81515 0.88564 0.0
C972 C 0.06105 0.80972 0.86936 0.0
C973 C 0.05474 0.82475 0.83013 0.0
H974 H 0.04609 0.84038 0.82888 0.0
H975 H 0.04298 0.81123 0.82776 0.0
H976 H 0.06707 0.82437 0.81685 0.0
O977 O 0.12938 0.85531 0.84322 0.0
O978 O 0.13903 0.84401 0.87628 0.0
H979 H 0.09385 0.79991 0.91152 0.0
H980 H 0.06503 0.7935 0.91152 0.0
C981 C 0.07732 0.80637 0.90855 0.0
H982 H 0.07469 0.8197 0.92047 0.0
H983 H 0.14388 0.81994 0.9156 0.0
O984 O 0.09138 0.8609 0.81154 0.0
C985 C 0.14386 0.84902 0.85663 0.0
Co986 Co 0.90829 0.89645 0.65869 0.0
Co987 Co 0.86006 0.90381 0.64492 0.0
C988 C 0.87891 0.85907 0.65269 0.0
O989 O 0.89691 0.86629 0.66026 0.0
O990 O 0.86414 0.87191 0.64622 0.0
C991 C 0.95073 0.88148 0.65878 0.0
O992 O 0.94036 0.86367 0.65306 0.0
C993 C 0.81345 0.8958 0.64605 0.0
C994 C 0.80041 0.92371 0.62775 0.0
C995 C 0.7944 0.90452 0.63787 0.0
N996 N 0.83001 0.90904 0.64074 0.0
N997 N 0.82214 0.92576 0.62989 0.0
C998 C 0.81592 0.87572 0.65948 0.0
H999 H 0.82956 0.87774 0.67136 0.0
H1000 H 0.80073 0.87191 0.66856 0.0
H1001 H 0.81969 0.86196 0.64841 0.0
C1002 C 0.89687 0.92991 0.69206 0.0
N1003 N 0.89168 0.91616 0.67555 0.0
N1004 N 0.87121 0.91895 0.66994 0.0
C1005 C 0.86267 0.93451 0.68278 0.0
C1006 C 0.87864 0.94212 0.69717 0.0
C1007 C 0.91942 0.93255 0.70108 0.0
H1008 H 0.9309 0.93539 0.68731 0.0
H1009 H 0.92429 0.91732 0.70928 0.0
H1010 H 0.92066 0.94617 0.71294 0.0
O1011 O 0.9081 0.90424 0.62724 0.0
O1012 O 0.87463 0.91321 0.61778 0.0
H1013 H 0.83774 0.95166 0.6658 0.0
H1014 H 0.83512 0.95222 0.69544 0.0
C1015 C 0.83968 0.9421 0.68109 0.0
H1016 H 0.82851 0.92796 0.68017 0.0
H1017 H 0.83166 0.93831 0.62353 0.0
O1018 O 0.93979 0.89768 0.66515 0.0
C1019 C 0.89456 0.91085 0.61297 0.0
Co1020 Co 0.85186 0.08837 0.39401 0.0
Co1021 Co 0.85458 0.13962 0.39554 0.0
C1022 C 0.84386 0.1155 0.35385 0.0
O1023 O 0.84454 0.0971 0.36325 0.0
O1024 O 0.8467 0.13295 0.36471 0.0
C1025 C 0.85863 0.04619 0.37961 0.0
O1026 O 0.86478 0.05753 0.36243 0.0
C1027 C 0.8543 0.18615 0.38479 0.0
C1028 C 0.86198 0.20123 0.4169 0.0
C1029 C 0.85818 0.20595 0.39495 0.0
N1030 N 0.85527 0.17047 0.40009 0.0
N1031 N 0.85995 0.17963 0.41925 0.0
C1032 C 0.85277 0.18188 0.3606 0.0
H1033 H 0.83593 0.1766 0.35659 0.0
H1034 H 0.85699 0.19631 0.35067 0.0
H1035 H 0.86411 0.16875 0.35612 0.0
C1036 C 0.82005 0.09687 0.43036 0.0
N1037 N 0.83474 0.1036 0.41532 0.0
N1038 N 0.83527 0.12492 0.41522 0.0
C1039 C 0.82039 0.13237 0.42958 0.0
C1040 C 0.81041 0.1149 0.44001 0.0
C1041 C 0.81569 0.07359 0.43548 0.0
H1042 H 0.83073 0.06405 0.4334 0.0
H1043 H 0.80325 0.0672 0.42383 0.0
H1044 H 0.80958 0.07165 0.45254 0.0
O1045 O 0.88303 0.09483 0.39705 0.0
O1046 O 0.8853 0.13053 0.39876 0.0
H1047 H 0.82409 0.16388 0.44375 0.0
H1048 H 0.79657 0.15705 0.4361 0.0
C1049 C 0.81386 0.1556 0.43118 0.0
H1050 H 0.81612 0.16377 0.41512 0.0
H1051 H 0.86255 0.17107 0.43379 0.0
O1052 O 0.85073 0.05606 0.39616 0.0
C1053 C 0.8943 0.11209 0.39827 0.0
Co1054 Co 0.59237 0.10287 0.15477 0.0
Co1055 Co 0.64319 0.10126 0.15208 0.0
C1056 C 0.61909 0.14281 0.16054 0.0
O1057 O 0.60057 0.13345 0.16059 0.0
O1058 O 0.63649 0.13214 0.15785 0.0
C1059 C 0.54803 0.11529 0.16141 0.0
O1060 O 0.55649 0.132 0.17185 0.0
C1061 C 0.68908 0.11261 0.15777 0.0
C1062 C 0.70548 0.08387 0.14427 0.0
C1063 C 0.70924 0.10447 0.15248 0.0
N1064 N 0.6739 0.09766 0.15271 0.0
N1065 N 0.68382 0.08044 0.14477 0.0
C1066 C 0.68438 0.13436 0.16736 0.0
H1067 H 0.6716 0.13283 0.18012 0.0
H1068 H 0.69916 0.14175 0.17489 0.0
H1069 H 0.67842 0.14512 0.1541 0.0
C1070 C 0.60058 0.06827 0.18829 0.0
N1071 N 0.60739 0.08294 0.17333 0.0
N1072 N 0.62876 0.08235 0.17214 0.0
C1073 C 0.63619 0.06735 0.18633 0.0
C1074 C 0.61864 0.05777 0.19696 0.0
C1075 C 0.57719 0.06397 0.19344 0.0
H1076 H 0.57034 0.07835 0.20181 0.0
H1077 H 0.57515 0.04957 0.20412 0.0
H1078 H 0.56796 0.06154 0.17788 0.0
O1079 O 0.59885 0.09852 0.12325 0.0
O1080 O 0.63462 0.09587 0.1211 0.0
H1081 H 0.66606 0.05276 0.17677 0.0
H1082 H 0.6622 0.05415 0.20614 0.0
C1083 C 0.65975 0.06287 0.19039 0.0
H1084 H 0.66912 0.07826 0.1909 0.0
H1085 H 0.67574 0.06667 0.13887 0.0
O1086 O 0.56032 0.09996 0.15539 0.0
C1087 C 0.61602 0.09626 0.11193 0.0
Co1088 Co 0.64343 0.90263 0.90015 0.0
Co1089 Co 0.63784 0.8523 0.90609 0.0
C1090 C 0.64699 0.87378 0.86195 0.0
O1091 O 0.65005 0.8927 0.86981 0.0
O1092 O 0.64222 0.8579 0.87437 0.0
C1093 C 0.63641 0.94469 0.88557 0.0
O1094 O 0.63024 0.93343 0.86824 0.0
C1095 C 0.64631 0.80666 0.8969 0.0
C1096 C 0.62829 0.79026 0.92351 0.0
C1097 C 0.64001 0.78645 0.90447 0.0
N1098 N 0.63835 0.82176 0.91056 0.0
N1099 N 0.62777 0.81183 0.92658 0.0
C1100 C 0.66026 0.81154 0.87738 0.0
H1101 H 0.67 0.82645 0.88038 0.0
H1102 H 0.67128 0.79785 0.87382 0.0
H1103 H 0.64974 0.81411 0.8628 0.0
C1104 C 0.67631 0.89542 0.93572 0.0
N1105 N 0.66085 0.88832 0.92158 0.0
N1106 N 0.65847 0.86726 0.92388 0.0
C1107 C 0.67228 0.86029 0.93953 0.0
C1108 C 0.68401 0.87788 0.94766 0.0
C1109 C 0.68299 0.91862 0.93805 0.0
H1110 H 0.6683 0.92885 0.93923 0.0
H1111 H 0.692 0.92364 0.92308 0.0
H1112 H 0.69342 0.92129 0.95277 0.0
O1113 O 0.61219 0.8963 0.90402 0.0
O1114 O 0.60793 0.86163 0.91204 0.0
H1115 H 0.66012 0.83137 0.95439 0.0
H1116 H 0.68933 0.83453 0.95638 0.0
C1117 C 0.67492 0.83702 0.94568 0.0
H1118 H 0.67674 0.82713 0.93055 0.0
H1119 H 0.61953 0.81982 0.93915 0.0
O1120 O 0.64465 0.93481 0.90193 0.0
C1121 C 0.60002 0.88026 0.90871 0.0
Co1122 Co 0.84138 0.10916 0.84885 0.0
Co1123 Co 0.8917 0.11632 0.84185 0.0
C1124 C 0.87276 0.10316 0.88563 0.0
O1125 O 0.8534 0.10171 0.87818 0.0
O1126 O 0.88858 0.10845 0.87322 0.0
C1127 C 0.80023 0.11363 0.86644 0.0
O1128 O 0.81274 0.12096 0.88243 0.0
C1129 C 0.93869 0.111 0.84722 0.0
C1130 C 0.95133 0.13587 0.82452 0.0
C1131 C 0.95769 0.12177 0.84103 0.0
N1132 N 0.922 0.11891 0.83544 0.0
N1133 N 0.92974 0.13348 0.82161 0.0
C1134 C 0.93628 0.09306 0.86351 0.0
H1135 H 0.92185 0.0829 0.85941 0.0
H1136 H 0.95109 0.08291 0.86377 0.0
H1137 H 0.9339 0.09999 0.88013 0.0
C1138 C 0.84891 0.07714 0.8127 0.0
N1139 N 0.85568 0.09324 0.82616 0.0
N1140 N 0.87671 0.09637 0.8233 0.0
C1141 C 0.88394 0.08249 0.8079 0.0
C1142 C 0.86658 0.06976 0.80062 0.0
C1143 C 0.82604 0.06874 0.81191 0.0
H1144 H 0.82314 0.05829 0.82645 0.0
H1145 H 0.82295 0.0592 0.79669 0.0
H1146 H 0.81451 0.08242 0.81274 0.0
O1147 O 0.84532 0.14077 0.84586 0.0
O1148 O 0.88033 0.14591 0.83935 0.0
H1149 H 0.91322 0.09521 0.79399 0.0
H1150 H 0.91029 0.06618 0.79102 0.0
C1151 C 0.90745 0.08016 0.80207 0.0
H1152 H 0.91714 0.07803 0.81732 0.0
H1153 H 0.9201 0.14274 0.81114 0.0
O1154 O 0.80912 0.10574 0.84933 0.0
C1155 C 0.86137 0.15335 0.84233 0.0
Co1156 Co 0.64673 0.15523 0.59607 0.0
Co1157 Co 0.64741 0.10482 0.59958 0.0
C1158 C 0.60564 0.12962 0.59352 0.0
O1159 O 0.61546 0.14775 0.5917 0.0
O1160 O 0.61619 0.11222 0.59635 0.0
C1161 C 0.63524 0.19967 0.59133 0.0
O1162 O 0.6166 0.1917 0.58431 0.0
C1163 C 0.63581 0.06053 0.58782 0.0
C1164 C 0.66044 0.04164 0.60579 0.0
C1165 C 0.642 0.03965 0.59274 0.0
N1166 N 0.64974 0.07431 0.59772 0.0
N1167 N 0.66456 0.06293 0.60829 0.0
C1168 C 0.61736 0.0673 0.57336 0.0
H1169 H 0.62131 0.08285 0.56516 0.0
H1170 H 0.61374 0.05471 0.56077 0.0
H1171 H 0.60266 0.06951 0.58357 0.0
C1172 C 0.67996 0.14607 0.56156 0.0
N1173 N 0.66544 0.13977 0.57691 0.0
N1174 N 0.66535 0.11852 0.5781 0.0
C1175 C 0.67956 0.11063 0.56329 0.0
C1176 C 0.68934 0.1278 0.55235 0.0
C1177 C 0.68479 0.16917 0.55607 0.0
H1178 H 0.66933 0.17779 0.55296 0.0
H1179 H 0.69552 0.17052 0.54147 0.0
H1180 H 0.69282 0.17705 0.57042 0.0
O1181 O 0.6526 0.14872 0.62722 0.0
O1182 O 0.65513 0.11319 0.63023 0.0
H1183 H 0.69111 0.08062 0.57587 0.0
H1184 H 0.69613 0.08437 0.54684 0.0
C1185 C 0.68433 0.08712 0.56032 0.0
H1186 H 0.66901 0.07823 0.55662 0.0
H1187 H 0.67711 0.06971 0.61772 0.0
O1188 O 0.65098 0.18694 0.59488 0.0
C1189 C 0.65538 0.13195 0.6389 0.0
Co1190 Co 0.65628 0.89279 0.352 0.0
Co1191 Co 0.60561 0.88713 0.34539 0.0
C1192 C 0.62739 0.89198 0.3903 0.0
O1193 O 0.64615 0.89648 0.3827 0.0
O1194 O 0.61141 0.88793 0.37754 0.0
C1195 C 0.69601 0.87964 0.36576 0.0
O1196 O 0.68186 0.86892 0.37778 0.0
C1197 C 0.55934 0.89361 0.35564 0.0
C1198 C 0.54338 0.87754 0.32727 0.0
C1199 C 0.53915 0.8872 0.34741 0.0
N1200 N 0.57471 0.88785 0.34106 0.0
N1201 N 0.565 0.87858 0.32399 0.0
C1202 C 0.56441 0.90214 0.37819 0.0
H1203 H 0.57851 0.91343 0.37745 0.0
H1204 H 0.55047 0.91056 0.38566 0.0
H1205 H 0.56868 0.8884 0.38901 0.0
C1206 C 0.64853 0.92867 0.31954 0.0
N1207 N 0.64174 0.9121 0.33232 0.0
N1208 N 0.62056 0.90958 0.32977 0.0
C1209 C 0.61329 0.92433 0.31526 0.0
C1210 C 0.63071 0.93693 0.3082 0.0
C1211 C 0.6717 0.93597 0.31783 0.0
H1212 H 0.68261 0.92177 0.31821 0.0
H1213 H 0.67573 0.94633 0.33225 0.0
H1214 H 0.67448 0.9454 0.30256 0.0
O1215 O 0.64994 0.86221 0.34447 0.0
O1216 O 0.61511 0.85817 0.33606 0.0
H1217 H 0.58474 0.91246 0.29897 0.0
H1218 H 0.58715 0.94163 0.29915 0.0
C1219 C 0.58991 0.92672 0.30886 0.0
H1220 H 0.57973 0.92727 0.32388 0.0
H1221 H 0.57324 0.87189 0.31065 0.0
O1222 O 0.68887 0.89369 0.35223 0.0
C1223 C 0.63401 0.85033 0.33847 0.0
Co1224 Co 0.84974 0.84495 0.10342 0.0
Co1225 Co 0.84178 0.89433 0.11083 0.0
C1226 C 0.8859 0.87677 0.09911 0.0
O1227 O 0.8789 0.85744 0.09685 0.0
O1228 O 0.87314 0.89202 0.10435 0.0
C1229 C 0.86774 0.80407 0.10616 0.0
O1230 O 0.88446 0.81622 0.11188 0.0
C1231 C 0.84667 0.94057 0.10456 0.0
C1232 C 0.82459 0.95339 0.12992 0.0
C1233 C 0.84074 0.95953 0.11525 0.0
N1234 N 0.83509 0.92411 0.11306 0.0
N1235 N 0.8216 0.93191 0.1279 0.0
C1236 C 0.86262 0.93784 0.08624 0.0
H1237 H 0.85801 0.92367 0.07592 0.0
H1238 H 0.86333 0.95259 0.07588 0.0
H1239 H 0.87899 0.93486 0.0932 0.0
C1240 C 0.81346 0.85163 0.07109 0.0
N1241 N 0.82744 0.85873 0.08672 0.0
N1242 N 0.82427 0.87952 0.08999 0.0
C1243 C 0.80815 0.8863 0.07673 0.0
C1244 C 0.80068 0.86887 0.06429 0.0
C1245 C 0.81215 0.82868 0.06332 0.0
H1246 H 0.81204 0.81767 0.07772 0.0
H1247 H 0.82683 0.82502 0.05347 0.0
H1248 H 0.7974 0.8257 0.05313 0.0
O1249 O 0.84539 0.84822 0.13559 0.0
O1250 O 0.83782 0.88278 0.14056 0.0
H1251 H 0.79331 0.91402 0.09117 0.0
H1252 H 0.78919 0.91186 0.06171 0.0
C1253 C 0.80091 0.90932 0.07535 0.0
H1254 H 0.81526 0.91998 0.07277 0.0
H1255 H 0.81138 0.9224 0.13765 0.0
O1256 O 0.85034 0.81311 0.09971 0.0
C1257 C 0.84074 0.86393 0.14821 0.0
Co1258 Co 0.15035 0.65348 0.09592 0.0
Co1259 Co 0.15071 0.60303 0.09495 0.0
C1260 C 0.10894 0.62838 0.09347 0.0
O1261 O 0.11865 0.64663 0.09248 0.0
O1262 O 0.11964 0.61089 0.09425 0.0
C1263 C 0.13903 0.69812 0.09258 0.0
O1264 O 0.12104 0.69051 0.08363 0.0
C1265 C 0.13713 0.55996 0.08107 0.0
C1266 C 0.16273 0.5394 0.09534 0.0
C1267 C 0.14315 0.53865 0.08398 0.0
N1268 N 0.15229 0.57274 0.09049 0.0
N1269 N 0.16767 0.56038 0.09884 0.0
C1270 C 0.11747 0.56811 0.06923 0.0
H1271 H 0.12139 0.58356 0.0608 0.0
H1272 H 0.1115 0.55607 0.05699 0.0
H1273 H 0.10437 0.57114 0.08132 0.0
C1274 C 0.18259 0.64689 0.05956 0.0
N1275 N 0.16822 0.63954 0.07459 0.0
N1276 N 0.16786 0.61827 0.07395 0.0
C1277 C 0.1817 0.61142 0.05826 0.0
C1278 C 0.1916 0.6293 0.0486 0.0
C1279 C 0.18771 0.6703 0.05603 0.0
H1280 H 0.19736 0.67645 0.07023 0.0
H1281 H 0.17239 0.67962 0.05534 0.0
H1282 H 0.19709 0.67283 0.04065 0.0
O1283 O 0.15764 0.64452 0.1263 0.0
O1284 O 0.15976 0.60879 0.12568 0.0
H1285 H 0.19371 0.58089 0.06888 0.0
H1286 H 0.1981 0.58606 0.04008 0.0
C1287 C 0.18654 0.58813 0.05387 0.0
H1288 H 0.17119 0.57932 0.05003 0.0
H1289 H 0.18114 0.56625 0.10757 0.0
O1290 O 0.15443 0.68521 0.0969 0.0
C1291 C 0.16064 0.62665 0.13612 0.0
Co1292 Co 0.16228 0.39728 0.85152 0.0
Co1293 Co 0.11048 0.39626 0.85107 0.0
C1294 C 0.13561 0.40096 0.89314 0.0
O1295 O 0.15382 0.40003 0.88323 0.0
O1296 O 0.11774 0.40081 0.88246 0.0
C1297 C 0.20682 0.40049 0.86607 0.0
O1298 O 0.19768 0.40566 0.88484 0.0
C1299 C 0.06415 0.39235 0.86307 0.0
C1300 C 0.04749 0.39296 0.83088 0.0
C1301 C 0.04373 0.39101 0.85327 0.0
N1302 N 0.07919 0.39578 0.84735 0.0
N1303 N 0.06908 0.39575 0.82808 0.0
C1304 C 0.06957 0.38693 0.88642 0.0
H1305 H 0.08513 0.37809 0.88723 0.0
H1306 H 0.071 0.40219 0.89594 0.0
H1307 H 0.05678 0.37663 0.89398 0.0
C1308 C 0.1541 0.43235 0.81879 0.0
N1309 N 0.14692 0.41704 0.83286 0.0
N1310 N 0.12545 0.41743 0.83338 0.0
C1311 C 0.11851 0.43372 0.82041 0.0
C1312 C 0.13635 0.44348 0.81042 0.0
C1313 C 0.1776 0.4365 0.81402 0.0
H1314 H 0.18466 0.42189 0.80627 0.0
H1315 H 0.18646 0.43938 0.82972 0.0
H1316 H 0.17986 0.45061 0.80298 0.0
O1317 O 0.15534 0.36723 0.84381 0.0
O1318 O 0.11937 0.36623 0.84429 0.0
H1319 H 0.08828 0.43187 0.80309 0.0
H1320 H 0.09388 0.45781 0.81496 0.0
C1321 C 0.09525 0.44017 0.81773 0.0
H1322 H 0.08578 0.43578 0.83256 0.0
H1323 H 0.07696 0.3967 0.81297 0.0
O1324 O 0.19488 0.39836 0.84899 0.0
C1325 C 0.13754 0.35678 0.84223 0.0
Co1326 Co 0.34997 0.34225 0.59496 0.0
Co1327 Co 0.34136 0.39067 0.60604 0.0
C1328 C 0.38572 0.37401 0.59252 0.0
O1329 O 0.37878 0.355 0.58827 0.0
O1330 O 0.37292 0.38856 0.5995 0.0
C1331 C 0.36775 0.30153 0.59655 0.0
O1332 O 0.3846 0.31364 0.60197 0.0
C1333 C 0.34608 0.43672 0.59938 0.0
C1334 C 0.32593 0.45002 0.62611 0.0
C1335 C 0.34094 0.45587 0.61013 0.0
N1336 N 0.33515 0.42045 0.60902 0.0
N1337 N 0.32281 0.42851 0.62472 0.0
C1338 C 0.3607 0.4336 0.58001 0.0
H1339 H 0.35538 0.41921 0.57036 0.0
H1340 H 0.36068 0.44813 0.56932 0.0
H1341 H 0.37752 0.43071 0.58584 0.0
C1342 C 0.31344 0.35019 0.56365 0.0
N1343 N 0.32739 0.35657 0.57959 0.0
N1344 N 0.32372 0.37697 0.58445 0.0
C1345 C 0.30716 0.38417 0.572 0.0
C1346 C 0.30009 0.36746 0.55836 0.0
C1347 C 0.31276 0.32784 0.55418 0.0
H1348 H 0.31152 0.31591 0.56774 0.0
H1349 H 0.32821 0.32475 0.54538 0.0
H1350 H 0.29886 0.32559 0.54268 0.0
O1351 O 0.34644 0.3442 0.62723 0.0
O1352 O 0.3372 0.37777 0.63527 0.0
H1353 H 0.29331 0.41071 0.58949 0.0
H1354 H 0.28558 0.40949 0.56069 0.0
C1355 C 0.299 0.4069 0.57262 0.0
H1356 H 0.31254 0.41819 0.56872 0.0
H1357 H 0.31328 0.41919 0.63532 0.0
O1358 O 0.35033 0.31063 0.59026 0.0
C1359 C 0.34123 0.35854 0.64123 0.0
Co1360 Co 0.09661 0.60069 0.64868 0.0
Co1361 Co 0.14757 0.6019 0.64685 0.0
C1362 C 0.12217 0.64166 0.65692 0.0
O1363 O 0.10419 0.63139 0.65526 0.0
O1364 O 0.14024 0.63199 0.65498 0.0
C1365 C 0.05253 0.61204 0.65726 0.0
O1366 O 0.06151 0.62898 0.66681 0.0
C1367 C 0.19373 0.61396 0.6503 0.0
C1368 C 0.20974 0.58392 0.63944 0.0
C1369 C 0.21387 0.60503 0.64599 0.0
N1370 N 0.17839 0.59866 0.64687 0.0
N1371 N 0.18808 0.58077 0.64035 0.0
C1372 C 0.18878 0.6373 0.65433 0.0
H1373 H 0.17725 0.64299 0.64156 0.0
H1374 H 0.18095 0.63898 0.67067 0.0
H1375 H 0.20344 0.64779 0.65369 0.0
C1376 C 0.10598 0.56616 0.68167 0.0
N1377 N 0.1124 0.58089 0.66662 0.0
N1378 N 0.1338 0.5818 0.66633 0.0
C1379 C 0.14163 0.56806 0.68163 0.0
C1380 C 0.1243 0.55752 0.69175 0.0
C1381 C 0.0827 0.56156 0.68711 0.0
H1382 H 0.07458 0.5769 0.69165 0.0
H1383 H 0.08114 0.54984 0.70083 0.0
H1384 H 0.0743 0.55506 0.67227 0.0
O1385 O 0.10272 0.59747 0.617 0.0
O1386 O 0.13865 0.59851 0.61544 0.0
H1387 H 0.17255 0.55494 0.6735 0.0
H1388 H 0.16797 0.55703 0.70255 0.0
C1389 C 0.16531 0.56514 0.68654 0.0
H1390 H 0.17375 0.58106 0.68664 0.0
H1391 H 0.17984 0.56665 0.63569 0.0
O1392 O 0.06462 0.59687 0.65044 0.0
C1393 C 0.1202 0.59762 0.60591 0.0
Co1394 Co 0.40659 0.39533 0.15268 0.0
Co1395 Co 0.35681 0.40175 0.14521 0.0
C1396 C 0.37679 0.35771 0.1542 0.0
O1397 O 0.39567 0.3655 0.15815 0.0
O1398 O 0.36102 0.36999 0.14909 0.0
C1399 C 0.44876 0.38065 0.14769 0.0
O1400 O 0.4377 0.3632 0.14213 0.0
C1401 C 0.30977 0.39555 0.15001 0.0
C1402 C 0.29743 0.42285 0.13027 0.0
C1403 C 0.2909 0.40449 0.14155 0.0
N1404 N 0.32667 0.40801 0.14381 0.0
N1405 N 0.31914 0.42452 0.1324 0.0
C1406 C 0.31221 0.37402 0.16089 0.0
H1407 H 0.32675 0.37412 0.17174 0.0
H1408 H 0.29778 0.36964 0.17078 0.0
H1409 H 0.31421 0.36149 0.14799 0.0
C1410 C 0.39896 0.43067 0.18558 0.0
N1411 N 0.39207 0.4164 0.17014 0.0
N1412 N 0.37104 0.41882 0.16705 0.0
C1413 C 0.36389 0.43472 0.18033 0.0
C1414 C 0.3813 0.44287 0.19248 0.0
C1415 C 0.4222 0.43324 0.1925 0.0
H1416 H 0.42799 0.41776 0.19951 0.0
H1417 H 0.42434 0.4464 0.2048 0.0
H1418 H 0.43228 0.4368 0.17781 0.0
O1419 O 0.40241 0.39997 0.12077 0.0
O1420 O 0.36785 0.40815 0.11559 0.0
H1421 H 0.33787 0.45237 0.19606 0.0
H1422 H 0.32988 0.42736 0.1828 0.0
C1423 C 0.34069 0.44175 0.18162 0.0
H1424 H 0.33644 0.45066 0.1664 0.0
H1425 H 0.32897 0.43624 0.125 0.0
O1426 O 0.43861 0.39685 0.15535 0.0
C1427 C 0.38682 0.4051 0.10809 0.0
Co1428 Co 0.64552 0.40839 0.1055 0.0
Co1429 Co 0.64057 0.358 0.09916 0.0
C1430 C 0.64706 0.37913 0.14378 0.0
O1431 O 0.6505 0.39794 0.13598 0.0
O1432 O 0.64307 0.36307 0.13121 0.0
C1433 C 0.63376 0.44792 0.12047 0.0
O1434 O 0.62364 0.43396 0.13318 0.0
C1435 C 0.64695 0.31206 0.10851 0.0
C1436 C 0.6273 0.29679 0.08217 0.0
C1437 C 0.63847 0.29221 0.10149 0.0
N1438 N 0.6405 0.32746 0.09436 0.0
N1439 N 0.62905 0.31816 0.07847 0.0
C1440 C 0.66124 0.31661 0.12799 0.0
H1441 H 0.67159 0.33105 0.12482 0.0
H1442 H 0.67175 0.30254 0.13161 0.0
H1443 H 0.65098 0.32002 0.14256 0.0
C1444 C 0.68 0.40141 0.07139 0.0
N1445 N 0.6641 0.39426 0.08486 0.0
N1446 N 0.66239 0.37307 0.08287 0.0
C1447 C 0.67731 0.36609 0.06835 0.0
C1448 C 0.68896 0.38379 0.0605 0.0
C1449 C 0.68663 0.42462 0.06932 0.0
H1450 H 0.68673 0.43242 0.0858 0.0
H1451 H 0.7029 0.42626 0.0616 0.0
H1452 H 0.6745 0.4331 0.05898 0.0
O1453 O 0.6145 0.4023 0.09947 0.0
O1454 O 0.61091 0.36751 0.09163 0.0
H1455 H 0.69313 0.34079 0.04965 0.0
H1456 H 0.68298 0.333 0.0765 0.0
C1457 C 0.67977 0.34293 0.06167 0.0
H1458 H 0.6643 0.33706 0.05423 0.0
H1459 H 0.62138 0.32658 0.0658 0.0
O1460 O 0.64672 0.44071 0.10588 0.0
C1461 C 0.60268 0.38612 0.09428 0.0
Co1462 Co 0.86448 0.66176 0.59406 0.0
Co1463 Co 0.8547 0.61184 0.6007 0.0
C1464 C 0.90046 0.63056 0.59897 0.0
O1465 O 0.89428 0.64972 0.59474 0.0
O1466 O 0.88677 0.61521 0.60148 0.0
C1467 C 0.88066 0.7035 0.60163 0.0
O1468 O 0.89593 0.69181 0.61081 0.0
C1469 C 0.86107 0.56494 0.59539 0.0
C1470 C 0.83586 0.55228 0.61779 0.0
C1471 C 0.8537 0.54618 0.60547 0.0
N1472 N 0.84828 0.58144 0.60162 0.0
N1473 N 0.83291 0.57358 0.61456 0.0
C1474 C 0.88161 0.56749 0.58256 0.0
H1475 H 0.89569 0.5667 0.59398 0.0
H1476 H 0.88186 0.58315 0.57368 0.0
H1477 H 0.88315 0.55399 0.57061 0.0
C1478 C 0.83418 0.65462 0.55662 0.0
N1479 N 0.84622 0.64718 0.57346 0.0
N1480 N 0.84189 0.62647 0.57635 0.0
C1481 C 0.82673 0.62014 0.56156 0.0
C1482 C 0.82128 0.63779 0.54849 0.0
C1483 C 0.83484 0.67758 0.54892 0.0
H1484 H 0.85166 0.6841 0.55025 0.0
H1485 H 0.82907 0.67888 0.53164 0.0
H1486 H 0.82425 0.68748 0.55965 0.0
O1487 O 0.85253 0.65843 0.62368 0.0
O1488 O 0.84402 0.62395 0.62872 0.0
H1489 H 0.81184 0.59398 0.57908 0.0
H1490 H 0.801 0.59773 0.55177 0.0
C1491 C 0.81603 0.5983 0.5619 0.0
H1492 H 0.82765 0.58608 0.55572 0.0
H1493 H 0.82145 0.58307 0.62264 0.0
O1494 O 0.8654 0.69394 0.5911 0.0
C1495 C 0.84491 0.64337 0.63562 0.0
Co1496 Co 0.6566 0.39281 0.64655 0.0
Co1497 Co 0.60525 0.39099 0.64686 0.0
C1498 C 0.63006 0.40068 0.60581 0.0
O1499 O 0.64823 0.39934 0.6158 0.0
O1500 O 0.61215 0.39861 0.61605 0.0
C1501 C 0.69723 0.38138 0.63411 0.0
O1502 O 0.68413 0.37096 0.62053 0.0
C1503 C 0.55863 0.39403 0.63598 0.0
C1504 C 0.54344 0.38284 0.66688 0.0
C1505 C 0.53872 0.38919 0.64555 0.0
N1506 N 0.57438 0.39095 0.65107 0.0
N1507 N 0.56515 0.38433 0.66952 0.0
C1508 C 0.56299 0.39837 0.61217 0.0
H1509 H 0.57381 0.38563 0.60564 0.0
H1510 H 0.57148 0.41419 0.61059 0.0
H1511 H 0.54796 0.39844 0.60208 0.0
C1512 C 0.64842 0.4254 0.6818 0.0
N1513 N 0.64153 0.41059 0.66695 0.0
N1514 N 0.62009 0.40989 0.66697 0.0
C1515 C 0.61271 0.42442 0.68171 0.0
C1516 C 0.63037 0.43459 0.69174 0.0
C1517 C 0.67184 0.43042 0.68638 0.0
H1518 H 0.67817 0.44114 0.67321 0.0
H1519 H 0.67394 0.43865 0.70252 0.0
H1520 H 0.68141 0.4153 0.68613 0.0
O1521 O 0.64975 0.36201 0.65079 0.0
O1522 O 0.61382 0.36033 0.65017 0.0
H1523 H 0.58171 0.41801 0.69611 0.0
H1524 H 0.58738 0.4463 0.6919 0.0
C1525 C 0.58924 0.42989 0.68475 0.0
H1526 H 0.58057 0.42916 0.66874 0.0
H1527 H 0.57376 0.37993 0.68363 0.0
O1528 O 0.68894 0.3941 0.64827 0.0
C1529 C 0.63219 0.35108 0.65109 0.0
Co1530 Co 0.36231 0.59203 0.89849 0.0
Co1531 Co 0.35851 0.64267 0.89283 0.0
C1532 C 0.35552 0.61394 0.85415 0.0
O1533 O 0.35861 0.5974 0.86623 0.0
O1534 O 0.35365 0.63272 0.86248 0.0
C1535 C 0.35962 0.5467 0.88798 0.0
O1536 O 0.35179 0.55391 0.86928 0.0
C1537 C 0.35221 0.68758 0.87796 0.0
C1538 C 0.35952 0.70601 0.90833 0.0
C1539 C 0.35457 0.70842 0.88621 0.0
N1540 N 0.35584 0.67349 0.89439 0.0
N1541 N 0.36013 0.68465 0.91251 0.0
C1542 C 0.34603 0.6811 0.85501 0.0
H1543 H 0.33355 0.66806 0.85558 0.0
H1544 H 0.33939 0.6949 0.84559 0.0
H1545 H 0.36057 0.67477 0.84645 0.0
C1546 C 0.32686 0.60084 0.93129 0.0
N1547 N 0.34145 0.60725 0.916 0.0
N1548 N 0.33952 0.62823 0.91295 0.0
C1549 C 0.32322 0.63566 0.92563 0.0
C1550 C 0.31476 0.61868 0.93804 0.0
C1551 C 0.32516 0.57818 0.93971 0.0
H1552 H 0.3413 0.57032 0.93922 0.0
H1553 H 0.31386 0.56881 0.92898 0.0
H1554 H 0.31886 0.57791 0.95681 0.0
O1555 O 0.39222 0.60184 0.90456 0.0
O1556 O 0.38984 0.63701 0.89841 0.0
H1557 H 0.32378 0.66884 0.9356 0.0
H1558 H 0.29706 0.65858 0.92884 0.0
C1559 C 0.31449 0.65816 0.92421 0.0
H1560 H 0.31623 0.66443 0.90722 0.0
H1561 H 0.36408 0.67766 0.92761 0.0
O1562 O 0.36332 0.56005 0.90358 0.0
C1563 C 0.40114 0.62033 0.90251 0.0
Co1564 Co 0.14089 0.40485 0.39824 0.0
Co1565 Co 0.13953 0.35381 0.39725 0.0
C1566 C 0.14987 0.37968 0.35696 0.0
O1567 O 0.14832 0.39752 0.36735 0.0
O1568 O 0.14761 0.36161 0.36674 0.0
C1569 C 0.13184 0.44659 0.38653 0.0
O1570 O 0.12409 0.43524 0.36991 0.0
C1571 C 0.14168 0.30773 0.38516 0.0
C1572 C 0.13142 0.29202 0.4161 0.0
C1573 C 0.1369 0.28777 0.39444 0.0
N1574 N 0.13943 0.32305 0.40075 0.0
N1575 N 0.13331 0.31351 0.4192 0.0
C1576 C 0.1451 0.31261 0.36129 0.0
H1577 H 0.13283 0.3245 0.35579 0.0
H1578 H 0.16148 0.31994 0.35914 0.0
H1579 H 0.14356 0.29803 0.35074 0.0
C1580 C 0.17272 0.39619 0.43399 0.0
N1581 N 0.15833 0.38945 0.41861 0.0
N1582 N 0.15802 0.36813 0.41806 0.0
C1583 C 0.17245 0.36068 0.43293 0.0
C1584 C 0.18209 0.37817 0.44365 0.0
C1585 C 0.17713 0.41945 0.43931 0.0
H1586 H 0.18687 0.42674 0.42585 0.0
H1587 H 0.18614 0.42127 0.45509 0.0
H1588 H 0.16156 0.42831 0.44029 0.0
O1589 O 0.10997 0.39773 0.40139 0.0
O1590 O 0.10869 0.36198 0.40055 0.0
H1591 H 0.16689 0.32952 0.44699 0.0
H1592 H 0.19511 0.33578 0.44231 0.0
C1593 C 0.17844 0.33741 0.43548 0.0
H1594 H 0.17756 0.32901 0.41935 0.0
H1595 H 0.12947 0.3218 0.43365 0.0
O1596 O 0.14174 0.4368 0.40196 0.0
C1597 C 0.0992 0.38013 0.40151 0.0
Co1598 Co 0.34144 0.60744 0.34655 0.0
Co1599 Co 0.39248 0.61238 0.34327 0.0
C1600 C 0.36986 0.59975 0.38541 0.0
O1601 O 0.35101 0.59951 0.37666 0.0
O1602 O 0.38676 0.60424 0.37423 0.0
C1603 C 0.29986 0.61391 0.36161 0.0
O1604 O 0.31203 0.62112 0.37791 0.0
C1605 C 0.43906 0.60924 0.35333 0.0
C1606 C 0.45411 0.62361 0.32379 0.0
C1607 C 0.45882 0.61565 0.34453 0.0
N1608 N 0.42326 0.61351 0.33866 0.0
N1609 N 0.4324 0.62201 0.32096 0.0
C1610 C 0.43533 0.59883 0.3752 0.0
H1611 H 0.42337 0.58541 0.37336 0.0
H1612 H 0.45062 0.59229 0.38217 0.0
H1613 H 0.42867 0.61099 0.38676 0.0
C1614 C 0.35 0.57541 0.31054 0.0
N1615 N 0.35657 0.59098 0.32476 0.0
N1616 N 0.37789 0.5931 0.32351 0.0
C1617 C 0.3855 0.57895 0.30852 0.0
C1618 C 0.36811 0.56731 0.29968 0.0
C1619 C 0.32687 0.56821 0.30785 0.0
H1620 H 0.31604 0.58247 0.30794 0.0
H1621 H 0.32231 0.55781 0.32199 0.0
H1622 H 0.32449 0.55894 0.29233 0.0
O1623 O 0.34707 0.63883 0.34426 0.0
O1624 O 0.38265 0.64261 0.34033 0.0
H1625 H 0.41569 0.58834 0.29401 0.0
H1626 H 0.41187 0.55946 0.29595 0.0
C1627 C 0.40915 0.57512 0.30442 0.0
H1628 H 0.41817 0.57517 0.32026 0.0
H1629 H 0.42374 0.62741 0.30726 0.0
O1630 O 0.30907 0.60542 0.34497 0.0
C1631 C 0.36383 0.65077 0.34211 0.0
H1632 H 0.15171 0.33122 0.01436 0.0
H1633 H 0.09585 0.37082 0.02778 0.0
H1634 H 0.15565 0.34837 0.97843 0.0
H1635 H 0.10065 0.3892 0.99298 0.0
H1636 H 0.10002 0.40233 0.91979 0.0
H1637 H 0.09654 0.38738 0.95617 0.0
H1638 H 0.16626 0.37872 0.95917 0.0
H1639 H 0.16929 0.39189 0.92155 0.0
C1640 C 0.14024 0.34355 0.00953 0.0
C1641 C 0.12323 0.34935 0.02363 0.0
C1642 C 0.14269 0.35371 0.9891 0.0
C1643 C 0.12856 0.3704 0.98259 0.0
C1644 C 0.11158 0.37615 0.99692 0.0
C1645 C 0.10878 0.36556 0.01699 0.0
C1646 C 0.11463 0.39727 0.92813 0.0
C1647 C 0.13479 0.39776 0.91737 0.0
C1648 C 0.1127 0.38885 0.94932 0.0
C1649 C 0.13106 0.3813 0.96076 0.0
C1650 C 0.15159 0.3836 0.95071 0.0
C1651 C 0.15342 0.39158 0.92921 0.0
H1652 H 0.90018 0.83905 0.27354 0.0
H1653 H 0.84437 0.87743 0.29095 0.0
H1654 H 0.88779 0.8383 0.2352 0.0
H1655 H 0.83173 0.8761 0.25311 0.0
H1656 H 0.83356 0.89425 0.18001 0.0
H1657 H 0.84221 0.8917 0.21889 0.0
H1658 H 0.85964 0.82464 0.21031 0.0
H1659 H 0.85153 0.82734 0.17105 0.0
C1660 C 0.88524 0.84719 0.26921 0.0
C1661 C 0.87343 0.85854 0.28518 0.0
C1662 C 0.87802 0.8466 0.24732 0.0
C1663 C 0.8588 0.85723 0.24109 0.0
C1664 C 0.84679 0.86809 0.25725 0.0
C1665 C 0.85406 0.86883 0.27898 0.0
C1666 C 0.83889 0.87883 0.18641 0.0
C1667 C 0.84199 0.86105 0.17235 0.0
C1668 C 0.84381 0.87735 0.20878 0.0
C1669 C 0.85182 0.85801 0.21768 0.0
C1670 C 0.85388 0.83988 0.20386 0.0
C1671 C 0.84899 0.84137 0.18142 0.0
H1672 H 0.39816 0.60558 0.52738 0.0
H1673 H 0.38816 0.66957 0.50076 0.0
H1674 H 0.39169 0.58993 0.49117 0.0
H1675 H 0.38031 0.6535 0.46481 0.0
H1676 H 0.34015 0.61387 0.41498 0.0
H1677 H 0.34727 0.62379 0.45327 0.0
H1678 H 0.41136 0.59635 0.44896 0.0
H1679 H 0.40444 0.58662 0.41039 0.0
C1680 C 0.39529 0.61645 0.51386 0.0
C1681 C 0.39441 0.63902 0.51702 0.0
C1682 C 0.39117 0.60734 0.49315 0.0
C1683 C 0.38541 0.62054 0.47541 0.0
C1684 C 0.38458 0.64301 0.4784 0.0
C1685 C 0.38915 0.65217 0.49894 0.0
C1686 C 0.35551 0.6093 0.42234 0.0
C1687 C 0.37187 0.59969 0.40962 0.0
C1688 C 0.35962 0.61519 0.44416 0.0
C1689 C 0.37995 0.61111 0.45376 0.0
C1690 C 0.39561 0.59973 0.44176 0.0
C1691 C 0.39165 0.5942 0.41976 0.0
H1692 H 0.64954 0.1691 0.66245 0.0
H1693 H 0.65753 0.1001 0.67038 0.0
H1694 H 0.63774 0.17195 0.70053 0.0
H1695 H 0.64609 0.10327 0.70881 0.0
H1696 H 0.63739 0.12487 0.78264 0.0
H1697 H 0.65595 0.12352 0.747 0.0
H1698 H 0.60103 0.15461 0.71643 0.0
H1699 H 0.58233 0.15563 0.75202 0.0
C1700 C 0.6494 0.15461 0.67242 0.0
C1701 C 0.65419 0.13428 0.66319 0.0
C1702 C 0.64249 0.15629 0.69421 0.0
C1703 C 0.64067 0.13779 0.70738 0.0
C1704 C 0.64732 0.11776 0.69889 0.0
C1705 C 0.65392 0.11598 0.67692 0.0
C1706 C 0.62945 0.13167 0.76833 0.0
C1707 C 0.6086 0.14067 0.77002 0.0
C1708 C 0.63999 0.13074 0.74799 0.0
C1709 C 0.62998 0.13915 0.72911 0.0
C1710 C 0.60919 0.14829 0.73086 0.0
C1711 C 0.59847 0.1488 0.7511 0.0
H1712 H 0.08499 0.63178 0.47021 0.0
H1713 H 0.15271 0.64905 0.47821 0.0
H1714 H 0.08451 0.61688 0.50725 0.0
H1715 H 0.15205 0.63542 0.51575 0.0
H1716 H 0.15245 0.59283 0.57516 0.0
H1717 H 0.15164 0.60428 0.5368 0.0
H1718 H 0.08466 0.62372 0.54444 0.0
H1719 H 0.08517 0.61107 0.58212 0.0
C1720 C 0.09964 0.6329 0.48013 0.0
C1721 C 0.11888 0.64164 0.47132 0.0
C1722 C 0.09941 0.62432 0.50144 0.0
C1723 C 0.1183 0.62467 0.51466 0.0
C1724 C 0.13731 0.63421 0.506 0.0
C1725 C 0.13765 0.64236 0.48454 0.0
C1726 C 0.13743 0.5991 0.56844 0.0
C1727 C 0.11889 0.60098 0.58174 0.0
C1728 C 0.13702 0.606 0.5465 0.0
C1729 C 0.11819 0.61538 0.53741 0.0
C1730 C 0.09942 0.61641 0.55056 0.0
C1731 C 0.09971 0.60913 0.57232 0.0
H1732 H 0.6572 0.90251 0.82893 0.0
H1733 H 0.63032 0.83866 0.84041 0.0
H1734 H 0.64594 0.8999 0.79025 0.0
H1735 H 0.61924 0.83627 0.80213 0.0
H1736 H 0.57296 0.85854 0.74576 0.0
H1737 H 0.58941 0.85921 0.78256 0.0
H1738 H 0.65154 0.87616 0.75424 0.0
H1739 H 0.6351 0.87538 0.71744 0.0
C1740 C 0.64944 0.88775 0.82315 0.0
C1741 C 0.6447 0.87081 0.83784 0.0
C1742 C 0.64299 0.88629 0.80105 0.0
C1743 C 0.63147 0.86801 0.79341 0.0
C1744 C 0.62787 0.85063 0.80773 0.0
C1745 C 0.6345 0.85195 0.82964 0.0
C1746 C 0.59013 0.86227 0.74745 0.0
C1747 C 0.60288 0.86645 0.72885 0.0
C1748 C 0.59956 0.86257 0.76841 0.0
C1749 C 0.62177 0.86754 0.77111 0.0
C1750 C 0.63442 0.8722 0.75253 0.0
C1751 C 0.62506 0.87152 0.73153 0.0
H1752 H 0.42104 0.36513 0.97421 0.0
H1753 H 0.35099 0.36599 0.97838 0.0
H1754 H 0.42371 0.38029 0.01118 0.0
H1755 H 0.35349 0.37989 0.0158 0.0
H1756 H 0.36066 0.42069 0.07531 0.0
H1757 H 0.36153 0.41068 0.03651 0.0
H1758 H 0.41943 0.3731 0.04831 0.0
H1759 H 0.41925 0.38418 0.08657 0.0
C1760 C 0.40622 0.36811 0.98327 0.0
C1761 C 0.3858 0.36435 0.9735 0.0
C1762 C 0.40772 0.37684 0.00448 0.0
C1763 C 0.38882 0.3816 0.01653 0.0
C1764 C 0.36841 0.3771 0.00687 0.0
C1765 C 0.36694 0.36881 0.98553 0.0
C1766 C 0.37388 0.41077 0.06943 0.0
C1767 C 0.38978 0.40313 0.08404 0.0
C1768 C 0.37423 0.40474 0.04724 0.0
C1769 C 0.39023 0.39058 0.03928 0.0
C1770 C 0.4069 0.3841 0.05368 0.0
C1771 C 0.40679 0.39047 0.07573 0.0
H1772 H 0.8742 0.15717 0.22011 0.0
H1773 H 0.91681 0.10452 0.23687 0.0
H1774 H 0.8538 0.15126 0.25369 0.0
H1775 H 0.89725 0.09936 0.27132 0.0
H1776 H 0.85169 0.08253 0.32464 0.0
H1777 H 0.86501 0.08658 0.28719 0.0
H1778 H 0.85442 0.15555 0.29122 0.0
H1779 H 0.83965 0.15115 0.32773 0.0
C1780 C 0.87957 0.14467 0.23129 0.0
C1781 C 0.89726 0.13142 0.22595 0.0
C1782 C 0.8678 0.14122 0.2506 0.0
C1783 C 0.87368 0.12471 0.26531 0.0
C1784 C 0.8918 0.11185 0.26018 0.0
C1785 C 0.9033 0.11503 0.24061 0.0
C1786 C 0.85149 0.09845 0.31724 0.0
C1787 C 0.84521 0.11665 0.32951 0.0
C1788 C 0.85955 0.10085 0.29586 0.0
C1789 C 0.86163 0.12151 0.28635 0.0
C1790 C 0.85328 0.13936 0.29787 0.0
C1791 C 0.84492 0.13688 0.31904 0.0
H1792 H 0.91687 0.07771 0.38249 0.0
H1793 H 0.92524 0.14374 0.40467 0.0
H1794 H 0.95373 0.07769 0.36875 0.0
H1795 H 0.96283 0.14334 0.39208 0.0
H1796 H 0.01896 0.14626 0.34457 0.0
H1797 H 0.98216 0.14493 0.35921 0.0
H1798 H 0.99065 0.07739 0.37533 0.0
H1799 H 0.02686 0.07855 0.35943 0.0
C1800 C 0.92682 0.09205 0.38508 0.0
C1801 C 0.91804 0.11079 0.3946 0.0
C1802 C 0.94809 0.09203 0.37716 0.0
C1803 C 0.96132 0.11062 0.37893 0.0
C1804 C 0.95296 0.12892 0.38978 0.0
C1805 C 0.93149 0.12907 0.39733 0.0
C1806 C 0.01273 0.13106 0.35088 0.0
C1807 C 0.02569 0.11249 0.35071 0.0
C1808 C 0.99176 0.13034 0.35962 0.0
C1809 C 0.98341 0.11114 0.36885 0.0
C1810 C 0.9963 0.09243 0.36817 0.0
C1811 C 0.0171 0.09305 0.359 0.0
H1812 H 0.13963 0.78302 0.64623 0.0
H1813 H 0.12632 0.75425 0.58254 0.0
H1814 H 0.13669 0.74753 0.66329 0.0
H1815 H 0.12208 0.71903 0.60005 0.0
H1816 H 0.08951 0.66755 0.64248 0.0
H1817 H 0.09286 0.70529 0.63135 0.0
H1818 H 0.15813 0.70788 0.65748 0.0
H1819 H 0.15505 0.66987 0.66841 0.0
C1820 C 0.13671 0.76923 0.63569 0.0
C1821 C 0.13387 0.77158 0.61278 0.0
C1822 C 0.13464 0.7489 0.64563 0.0
C1823 C 0.12903 0.73069 0.63298 0.0
C1824 C 0.12623 0.73293 0.61017 0.0
C1825 C 0.12874 0.7531 0.60018 0.0
C1826 C 0.10437 0.67626 0.64649 0.0
C1827 C 0.12214 0.6656 0.65609 0.0
C1828 C 0.10632 0.69781 0.63992 0.0
C1829 C 0.12586 0.70926 0.64327 0.0
C1830 C 0.14294 0.6993 0.65466 0.0
C1831 C 0.14115 0.67757 0.66088 0.0
H1832 H 0.47694 0.84338 0.85502 0.0
H1833 H 0.47082 0.91275 0.85938 0.0
H1834 H 0.51238 0.8457 0.87297 0.0
H1835 H 0.50542 0.9151 0.87865 0.0
H1836 H 0.57889 0.91351 0.88901 0.0
H1837 H 0.54234 0.91298 0.87446 0.0
H1838 H 0.53026 0.85156 0.90633 0.0
H1839 H 0.56767 0.85146 0.91975 0.0
C1840 C 0.48325 0.85912 0.85981 0.0
C1841 C 0.47132 0.87789 0.85557 0.0
C1842 C 0.50339 0.86046 0.87045 0.0
C1843 C 0.51179 0.88058 0.87757 0.0
C1844 C 0.49976 0.89935 0.87315 0.0
C1845 C 0.47989 0.89804 0.86204 0.0
C1846 C 0.56835 0.90006 0.89335 0.0
C1847 C 0.57632 0.88237 0.90533 0.0
C1848 C 0.54723 0.89977 0.88498 0.0
C1849 C 0.53333 0.88202 0.88879 0.0
C1850 C 0.54072 0.86517 0.90241 0.0
C1851 C 0.56206 0.86525 0.91042 0.0
H1852 H 0.34109 0.33561 0.13876 0.0
H1853 H 0.40657 0.3259 0.16259 0.0
H1854 H 0.33904 0.29806 0.12721 0.0
H1855 H 0.40433 0.28805 0.15141 0.0
H1856 H 0.40438 0.23274 0.10151 0.0
H1857 H 0.40453 0.26915 0.11674 0.0
H1858 H 0.33782 0.26057 0.13731 0.0
H1859 H 0.3375 0.22421 0.12153 0.0
C1860 C 0.35485 0.32535 0.14215 0.0
C1861 C 0.37403 0.33393 0.15157 0.0
C1862 C 0.35367 0.30372 0.13545 0.0
C1863 C 0.37163 0.29004 0.13803 0.0
C1864 C 0.39036 0.29825 0.14868 0.0
C1865 C 0.39156 0.31993 0.15534 0.0
C1866 C 0.38967 0.23864 0.10913 0.0
C1867 C 0.37092 0.22553 0.11025 0.0
C1868 C 0.38984 0.25947 0.11812 0.0
C1869 C 0.37129 0.26775 0.12856 0.0
C1870 C 0.35237 0.25478 0.12931 0.0
C1871 C 0.35218 0.23392 0.12024 0.0
H1872 H 0.02868 0.87496 0.10788 0.0
H1873 H 0.00214 0.9024 0.16731 0.0
H1874 H 0.99236 0.87433 0.0912 0.0
H1875 H 0.96585 0.90163 0.15077 0.0
H1876 H 0.90677 0.91429 0.11072 0.0
H1877 H 0.94504 0.91897 0.11966 0.0
H1878 H 0.95737 0.8534 0.09894 0.0
H1879 H 0.91893 0.84862 0.0897 0.0
C1880 C 0.01513 0.88126 0.11718 0.0
C1881 C 0.01819 0.88913 0.13872 0.0
C1882 C 0.99437 0.88069 0.10772 0.0
C1883 C 0.97635 0.88812 0.1196 0.0
C1884 C 0.97951 0.89617 0.14107 0.0
C1885 C 0.0002 0.89648 0.1506 0.0
C1886 C 0.91764 0.90102 0.1074 0.0
C1887 C 0.90966 0.881 0.09962 0.0
C1888 C 0.93958 0.90368 0.11276 0.0
C1889 C 0.95407 0.88645 0.11035 0.0
C1890 C 0.94653 0.86697 0.10095 0.0
C1891 C 0.9245 0.86424 0.09569 0.0
H1892 H 0.32898 0.78153 0.38491 0.0
H1893 H 0.39839 0.77571 0.39353 0.0
H1894 H 0.32747 0.74556 0.36853 0.0
H1895 H 0.39686 0.73927 0.37839 0.0
H1896 H 0.39354 0.68275 0.33289 0.0
H1897 H 0.39279 0.72017 0.34551 0.0
H1898 H 0.32969 0.70871 0.37473 0.0
H1899 H 0.32995 0.67189 0.36102 0.0
C1900 C 0.34384 0.77231 0.38379 0.0
C1901 C 0.3638 0.78139 0.39051 0.0
C1902 C 0.34301 0.75166 0.37436 0.0
C1903 C 0.36208 0.73945 0.37182 0.0
C1904 C 0.38191 0.74833 0.37941 0.0
C1905 C 0.38278 0.76912 0.38842 0.0
C1906 C 0.37931 0.68843 0.34156 0.0
C1907 C 0.36185 0.67432 0.34597 0.0
C1908 C 0.37898 0.70981 0.34911 0.0
C1909 C 0.36137 0.71747 0.36162 0.0
C1910 C 0.34346 0.70359 0.36504 0.0
C1911 C 0.34362 0.68236 0.35715 0.0
H1912 H 0.57736 0.16372 0.59261 0.0
H1913 H 0.57944 0.09437 0.60085 0.0
H1914 H 0.53905 0.16334 0.60268 0.0
H1915 H 0.54108 0.09392 0.61017 0.0
H1916 H 0.48039 0.10382 0.65205 0.0
H1917 H 0.51846 0.10461 0.64065 0.0
H1918 H 0.50324 0.15236 0.59124 0.0
H1919 H 0.46552 0.15201 0.60297 0.0
C1920 C 0.56958 0.14833 0.59606 0.0
C1921 C 0.58159 0.12907 0.59584 0.0
C1922 C 0.54757 0.14811 0.60186 0.0
C1923 C 0.537 0.12862 0.60751 0.0
C1924 C 0.54878 0.10928 0.60638 0.0
C1925 C 0.57077 0.10951 0.60067 0.0
C1926 C 0.48523 0.11458 0.63888 0.0
C1927 C 0.46991 0.12785 0.62847 0.0
C1928 C 0.50701 0.11491 0.63218 0.0
C1929 C 0.51392 0.12847 0.6149 0.0
C1930 C 0.49859 0.1419 0.60473 0.0
C1931 C 0.4769 0.14162 0.61144 0.0
H1932 H 0.16919 0.22097 0.8656 0.0
H1933 H 0.11197 0.23683 0.90327 0.0
H1934 H 0.16812 0.2563 0.84811 0.0
H1935 H 0.11134 0.27247 0.88637 0.0
H1936 H 0.17338 0.33109 0.84481 0.0
H1937 H 0.17417 0.2935 0.85599 0.0
H1938 H 0.10401 0.2903 0.85216 0.0
H1939 H 0.10313 0.32829 0.84172 0.0
C1940 C 0.15655 0.23212 0.87039 0.0
C1941 C 0.14067 0.22611 0.88587 0.0
C1942 C 0.15593 0.25238 0.86032 0.0
C1943 C 0.13951 0.26717 0.86563 0.0
C1944 C 0.1239 0.26129 0.88145 0.0
C1945 C 0.12442 0.24096 0.89139 0.0
C1946 C 0.1581 0.32229 0.84583 0.0
C1947 C 0.13815 0.33286 0.84274 0.0
C1948 C 0.15857 0.30065 0.85225 0.0
C1949 C 0.13912 0.28901 0.8555 0.0
C1950 C 0.11926 0.29902 0.85045 0.0
C1951 C 0.11877 0.32073 0.84418 0.0
H1952 H 0.39941 0.92313 0.15802 0.0
H1953 H 0.41532 0.91337 0.08957 0.0
H1954 H 0.38998 0.96063 0.15008 0.0
H1955 H 0.40509 0.95051 0.08154 0.0
H1956 H 0.34987 0.00253 0.07519 0.0
H1957 H 0.36648 0.96751 0.0833 0.0
H1958 H 0.4049 0.9972 0.13496 0.0
H1959 H 0.38843 0.03223 0.12667 0.0
C1960 C 0.40138 0.92905 0.14137 0.0
C1961 C 0.40755 0.91499 0.12427 0.0
C1962 C 0.39586 0.95052 0.13683 0.0
C1963 C 0.3963 0.95827 0.1151 0.0
C1964 C 0.40409 0.94477 0.09834 0.0
C1965 C 0.40988 0.92345 0.10294 0.0
C1966 C 0.36201 0.00154 0.08811 0.0
C1967 C 0.36817 0.02004 0.10005 0.0
C1968 C 0.37159 0.9816 0.09268 0.0
C1969 C 0.38712 0.97972 0.10963 0.0
C1970 C 0.39306 0.99822 0.12177 0.0
C1971 C 0.38376 0.01823 0.11692 0.0
H1972 H 0.92472 0.58617 0.9082 0.0
H1973 H 0.90593 0.58622 0.83953 0.0
H1974 H 0.91526 0.54812 0.91065 0.0
H1975 H 0.89694 0.54782 0.8419 0.0
H1976 H 0.8462 0.49798 0.86829 0.0
H1977 H 0.86554 0.53164 0.86041 0.0
H1978 H 0.91947 0.51064 0.90063 0.0
H1979 H 0.89966 0.47741 0.90925 0.0
C1980 C 0.91933 0.57788 0.89339 0.0
C1981 C 0.91558 0.58937 0.87381 0.0
C1982 C 0.91394 0.55598 0.8948 0.0
C1983 C 0.90481 0.5451 0.87661 0.0
C1984 C 0.90343 0.55596 0.85634 0.0
C1985 C 0.90883 0.57791 0.85493 0.0
C1986 C 0.86222 0.50055 0.87535 0.0
C1987 C 0.87154 0.48498 0.88913 0.0
C1988 C 0.87346 0.51967 0.87059 0.0
C1989 C 0.89421 0.52368 0.87964 0.0
C1990 C 0.90357 0.508 0.89334 0.0
C1991 C 0.89229 0.4889 0.89813 0.0
H1992 H 0.76354 0.60742 0.17216 0.0
H1993 H 0.77559 0.62238 0.10404 0.0
H1994 H 0.72793 0.62452 0.16966 0.0
H1995 H 0.7407 0.64071 0.10159 0.0
H1996 H 0.66609 0.64299 0.09737 0.0
H1997 H 0.70401 0.63282 0.09931 0.0
H1998 H 0.70731 0.65578 0.1666 0.0
H1999 H 0.66887 0.66485 0.16492 0.0
C2000 C 0.7586 0.61472 0.15676 0.0
C2001 C 0.77201 0.61348 0.13824 0.0
C2002 C 0.73831 0.62474 0.1553 0.0
C2003 C 0.73123 0.63405 0.13536 0.0
C2004 C 0.74524 0.63337 0.11708 0.0
C2005 C 0.76529 0.62298 0.11846 0.0
C2006 C 0.67502 0.64638 0.11241 0.0
C2007 C 0.66438 0.65458 0.13104 0.0
C2008 C 0.69691 0.64054 0.11356 0.0
C2009 C 0.70884 0.64309 0.13327 0.0
C2010 C 0.69857 0.65294 0.15135 0.0
C2011 C 0.67657 0.65844 0.1503 0.0
H2012 H 0.61518 0.40452 0.41531 0.0
H2013 H 0.58811 0.42782 0.35405 0.0
H2014 H 0.62574 0.44118 0.42532 0.0
H2015 H 0.59901 0.46461 0.36411 0.0
H2016 H 0.6719 0.50053 0.41314 0.0
H2017 H 0.65467 0.46493 0.40938 0.0
H2018 H 0.59427 0.49516 0.39083 0.0
H2019 H 0.6116 0.53063 0.39418 0.0
C2020 C 0.61104 0.41748 0.40414 0.0
C2021 C 0.60091 0.41315 0.38374 0.0
C2022 C 0.61727 0.43849 0.40986 0.0
C2023 C 0.61347 0.45568 0.39538 0.0
C2024 C 0.60207 0.45165 0.37565 0.0
C2025 C 0.59587 0.43056 0.36986 0.0
C2026 C 0.65484 0.49952 0.40869 0.0
C2027 C 0.64299 0.51832 0.40442 0.0
C2028 C 0.64494 0.4792 0.40662 0.0
C2029 C 0.62308 0.47731 0.3999 0.0
C2030 C 0.61112 0.49615 0.39605 0.0
C2031 C 0.62097 0.51648 0.39831 0.0
H2032 H 0.33408 0.85515 0.17103 0.0
H2033 H 0.32746 0.84385 0.10103 0.0
H2034 H 0.2965 0.8666 0.17269 0.0
H2035 H 0.28945 0.85463 0.10288 0.0
H2036 H 0.23376 0.90239 0.10802 0.0
H2037 H 0.27049 0.88803 0.10744 0.0
H2038 H 0.25909 0.85697 0.17007 0.0
H2039 H 0.22259 0.87194 0.17097 0.0
C2040 C 0.32447 0.85458 0.15605 0.0
C2041 C 0.33392 0.84878 0.13583 0.0
C2042 C 0.30282 0.86114 0.15704 0.0
C2043 C 0.29 0.8619 0.13786 0.0
C2044 C 0.29903 0.85477 0.11788 0.0
C2045 C 0.32076 0.84831 0.11686 0.0
C2046 C 0.23917 0.89269 0.12178 0.0
C2047 C 0.22525 0.88836 0.13955 0.0
C2048 C 0.26015 0.88421 0.12132 0.0
C2049 C 0.26769 0.87105 0.13855 0.0
C2050 C 0.25391 0.86714 0.15658 0.0
C2051 C 0.23296 0.87576 0.15711 0.0
H2052 H 0.13274 0.97692 0.65646 0.0
H2053 H 0.13389 0.97714 0.58543 0.0
H2054 H 0.12006 0.01399 0.65661 0.0
H2055 H 0.12009 0.01409 0.58539 0.0
H2056 H 0.11542 0.08792 0.59528 0.0
H2057 H 0.12732 0.05067 0.59261 0.0
H2058 H 0.08914 0.03455 0.65002 0.0
H2059 H 0.07814 0.07215 0.65329 0.0
C2060 C 0.1303 0.98496 0.64083 0.0
C2061 C 0.13435 0.97412 0.62094 0.0
C2062 C 0.12271 0.00618 0.64088 0.0
C2063 C 0.11854 0.01708 0.62101 0.0
C2064 C 0.12319 0.00638 0.60105 0.0
C2065 C 0.13115 0.98518 0.60103 0.0
C2066 C 0.10923 0.07636 0.60714 0.0
C2067 C 0.09591 0.0831 0.62461 0.0
C2068 C 0.11609 0.05489 0.60559 0.0
C2069 C 0.10959 0.0395 0.62132 0.0
C2070 C 0.0951 0.04601 0.63797 0.0
C2071 C 0.08851 0.06756 0.63971 0.0
H2072 H 0.65407 0.35941 0.31202 0.0
H2073 H 0.67687 0.33074 0.37268 0.0
H2074 H 0.69125 0.36964 0.30278 0.0
H2075 H 0.71404 0.34095 0.36324 0.0
H2076 H 0.74906 0.4171 0.32364 0.0
H2077 H 0.7138 0.39852 0.32272 0.0
H2078 H 0.74537 0.33787 0.33638 0.0
H2079 H 0.78048 0.35646 0.33755 0.0
C2080 C 0.66703 0.35475 0.32312 0.0
C2081 C 0.66245 0.34464 0.34335 0.0
C2082 C 0.6883 0.36071 0.31781 0.0
C2083 C 0.7054 0.3564 0.33245 0.0
C2084 C 0.70113 0.34444 0.35163 0.0
C2085 C 0.67982 0.33864 0.35706 0.0
C2086 C 0.74845 0.39973 0.32589 0.0
C2087 C 0.76748 0.38818 0.33028 0.0
C2088 C 0.72835 0.38907 0.32524 0.0
C2089 C 0.72693 0.36673 0.32937 0.0
C2090 C 0.74606 0.35507 0.33305 0.0
C2091 C 0.76617 0.36569 0.33345 0.0
H2092 H 0.82928 0.66512 0.84909 0.0
H2093 H 0.83679 0.63003 0.91002 0.0
H2094 H 0.79232 0.6507 0.84518 0.0
H2095 H 0.79985 0.61574 0.90613 0.0
H2096 H 0.74906 0.57074 0.87226 0.0
H2097 H 0.78418 0.58874 0.87797 0.0
H2098 H 0.75493 0.65041 0.86401 0.0
H2099 H 0.71982 0.63273 0.85919 0.0
C2100 C 0.82291 0.65463 0.8618 0.0
C2101 C 0.83602 0.64849 0.87969 0.0
C2102 C 0.80176 0.64644 0.8596 0.0
C2103 C 0.79346 0.6318 0.87515 0.0
C2104 C 0.80605 0.62672 0.89373 0.0
C2105 C 0.82709 0.63512 0.89607 0.0
C2106 C 0.75016 0.58812 0.87024 0.0
C2107 C 0.73169 0.60013 0.86456 0.0
C2108 C 0.7702 0.59842 0.87366 0.0
C2109 C 0.7722 0.62096 0.87143 0.0
C2110 C 0.75386 0.63298 0.86553 0.0
C2111 C 0.73376 0.62272 0.86239 0.0
H2112 H 0.85717 0.59121 0.07262 0.0
H2113 H 0.92564 0.60621 0.08037 0.0
H2114 H 0.86002 0.59785 0.0333 0.0
H2115 H 0.92846 0.61252 0.04091 0.0
H2116 H 0.91513 0.65244 0.97764 0.0
H2117 H 0.91503 0.64119 0.01621 0.0
H2118 H 0.87597 0.58517 0.99903 0.0
H2119 H 0.87569 0.59653 0.9608 0.0
C2120 C 0.87294 0.59543 0.06589 0.0
C2121 C 0.89112 0.59839 0.0797 0.0
C2122 C 0.87457 0.59923 0.04333 0.0
C2123 C 0.89441 0.60601 0.03409 0.0
C2124 C 0.91287 0.60773 0.04767 0.0
C2125 C 0.91126 0.6039 0.07024 0.0
C2126 C 0.90657 0.63773 0.98214 0.0
C2127 C 0.89529 0.62549 0.96623 0.0
C2128 C 0.90665 0.63118 0.00416 0.0
C2129 C 0.89548 0.61228 0.01061 0.0
C2130 C 0.8845 0.59993 0.9946 0.0
C2131 C 0.8844 0.60646 0.97268 0.0
H2132 H 0.16171 0.16094 0.82402 0.0
H2133 H 0.14802 0.09264 0.83169 0.0
H2134 H 0.14921 0.15904 0.786 0.0
H2135 H 0.13529 0.0909 0.7937 0.0
H2136 H 0.12924 0.09439 0.71813 0.0
H2137 H 0.14531 0.09451 0.7548 0.0
H2138 H 0.11256 0.15432 0.76958 0.0
H2139 H 0.09671 0.15444 0.73263 0.0
C2140 C 0.15648 0.14541 0.8175 0.0
C2141 C 0.15562 0.12699 0.83103 0.0
C2142 C 0.14905 0.14441 0.79578 0.0
C2143 C 0.14074 0.12496 0.78707 0.0
C2144 C 0.14152 0.10615 0.79999 0.0
C2145 C 0.14892 0.10715 0.82176 0.0
C2146 C 0.12529 0.1075 0.72925 0.0
C2147 C 0.11175 0.12447 0.72246 0.0
C2148 C 0.13451 0.10752 0.75027 0.0
C2149 C 0.13044 0.12455 0.76496 0.0
C2150 C 0.11635 0.1412 0.75843 0.0
C2151 C 0.10705 0.14114 0.73739 0.0
H2152 H 0.66329 0.38898 0.57884 0.0
H2153 H 0.59599 0.40866 0.57777 0.0
H2154 H 0.65994 0.37651 0.54093 0.0
H2155 H 0.59279 0.39618 0.53966 0.0
H2156 H 0.60601 0.38362 0.46418 0.0
H2157 H 0.60909 0.40145 0.49975 0.0
H2158 H 0.63635 0.3435 0.52752 0.0
H2159 H 0.63233 0.32512 0.49209 0.0
C2160 C 0.64796 0.39128 0.57036 0.0
C2161 C 0.62975 0.39946 0.58149 0.0
C2162 C 0.64602 0.3839 0.54872 0.0
C2163 C 0.62598 0.38493 0.53767 0.0
C2164 C 0.60837 0.39505 0.54796 0.0
C2165 C 0.61021 0.40219 0.56975 0.0
C2166 C 0.6118 0.37426 0.47793 0.0
C2167 C 0.61824 0.3526 0.47535 0.0
C2168 C 0.61392 0.3847 0.49826 0.0
C2169 C 0.62308 0.37389 0.51625 0.0
C2170 C 0.62947 0.35227 0.51377 0.0
C2171 C 0.62703 0.34173 0.49356 0.0
H2172 H 0.38422 0.83285 0.22445 0.0
H2173 H 0.38331 0.90256 0.2281 0.0
H2174 H 0.36866 0.83069 0.26121 0.0
H2175 H 0.36901 0.90058 0.26532 0.0
H2176 H 0.32719 0.89392 0.32445 0.0
H2177 H 0.33816 0.89308 0.28595 0.0
H2178 H 0.37522 0.8352 0.29838 0.0
H2179 H 0.36318 0.83536 0.33626 0.0
C2180 C 0.38114 0.84772 0.23335 0.0
C2181 C 0.38502 0.86787 0.22346 0.0
C2182 C 0.37218 0.84651 0.25446 0.0
C2183 C 0.36731 0.86546 0.26634 0.0
C2184 C 0.37189 0.88561 0.25656 0.0
C2185 C 0.38041 0.88679 0.23531 0.0
C2186 C 0.33723 0.88074 0.31877 0.0
C2187 C 0.34435 0.86478 0.33347 0.0
C2188 C 0.34382 0.8804 0.29675 0.0
C2189 C 0.35804 0.86434 0.28901 0.0
C2190 C 0.36416 0.84775 0.30351 0.0
C2191 C 0.35724 0.84786 0.32538 0.0
H2192 H 0.91686 0.40732 0.4084 0.0
H2193 H 0.84688 0.40262 0.41365 0.0
H2194 H 0.92049 0.39689 0.44676 0.0
H2195 H 0.85057 0.39256 0.45232 0.0
H2196 H 0.86848 0.34238 0.50582 0.0
H2197 H 0.8634 0.35927 0.46987 0.0
H2198 H 0.91445 0.40546 0.48515 0.0
H2199 H 0.91997 0.38803 0.52075 0.0
C2200 C 0.9022 0.40465 0.4179 0.0
C2201 C 0.88158 0.40555 0.40785 0.0
C2202 C 0.9043 0.3987 0.43996 0.0
C2203 C 0.88583 0.39352 0.45249 0.0
C2204 C 0.86513 0.39602 0.44294 0.0
C2205 C 0.86301 0.40205 0.42085 0.0
C2206 C 0.87861 0.35613 0.50143 0.0
C2207 C 0.89438 0.36412 0.51616 0.0
C2208 C 0.87552 0.36599 0.48099 0.0
C2209 C 0.88831 0.38393 0.47477 0.0
C2210 C 0.9043 0.39171 0.48945 0.0
C2211 C 0.90735 0.38185 0.50989 0.0
H2212 H 0.41586 0.12821 0.25329 0.0
H2213 H 0.35379 0.14284 0.28286 0.0
H2214 H 0.39783 0.12353 0.21772 0.0
H2215 H 0.33622 0.13943 0.24707 0.0
H2216 H 0.33239 0.16048 0.16891 0.0
H2217 H 0.34201 0.16113 0.208 0.0
H2218 H 0.36628 0.09607 0.20285 0.0
H2219 H 0.35639 0.0951 0.16397 0.0
C2220 C 0.39848 0.13075 0.25221 0.0
C2221 C 0.38648 0.13662 0.2709 0.0
C2222 C 0.38818 0.12793 0.23191 0.0
C2223 C 0.36569 0.1311 0.22985 0.0
C2224 C 0.35363 0.13709 0.24835 0.0
C2225 C 0.36386 0.13949 0.26878 0.0
C2226 C 0.33904 0.14603 0.1763 0.0
C2227 C 0.34396 0.12787 0.16329 0.0
C2228 C 0.34455 0.14644 0.19862 0.0
C2229 C 0.35525 0.12881 0.20811 0.0
C2230 C 0.35827 0.10993 0.19569 0.0
C2231 C 0.35244 0.10936 0.17349 0.0
H2232 H 0.57301 0.59887 0.90906 0.0
H2233 H 0.63906 0.58163 0.92581 0.0
H2234 H 0.56726 0.61135 0.94653 0.0
H2235 H 0.63303 0.59369 0.96349 0.0
H2236 H 0.6264 0.65036 0.0119 0.0
H2237 H 0.62961 0.63086 0.97713 0.0
H2238 H 0.56509 0.60402 0.98597 0.0
H2239 H 0.56171 0.62422 0.02055 0.0
C2240 C 0.58611 0.5971 0.92089 0.0
C2241 C 0.60667 0.58969 0.91431 0.0
C2242 C 0.58276 0.60424 0.94241 0.0
C2243 C 0.59988 0.60401 0.95777 0.0
C2244 C 0.61973 0.59459 0.95179 0.0
C2245 C 0.62311 0.58747 0.93025 0.0
C2246 C 0.61287 0.64042 0.00627 0.0
C2247 C 0.59392 0.63852 0.01889 0.0
C2248 C 0.61482 0.62898 0.98658 0.0
C2249 C 0.59778 0.61552 0.97906 0.0
C2250 C 0.57853 0.61414 0.99142 0.0
C2251 C 0.57661 0.62562 0.01117 0.0
H2252 H 0.16018 0.90782 0.67735 0.0
H2253 H 0.12762 0.84669 0.6653 0.0
H2254 H 0.14884 0.90639 0.71576 0.0
H2255 H 0.11523 0.84587 0.70293 0.0
H2256 H 0.10691 0.84229 0.7767 0.0
H2257 H 0.12202 0.84165 0.73979 0.0
H2258 H 0.11782 0.91142 0.73684 0.0
H2259 H 0.10402 0.91196 0.77437 0.0
C2260 C 0.15086 0.89395 0.68294 0.0
C2261 C 0.14486 0.87739 0.6682 0.0
C2262 C 0.14403 0.89327 0.7049 0.0
C2263 C 0.1307 0.87621 0.71252 0.0
C2264 C 0.12563 0.85918 0.69794 0.0
C2265 C 0.13279 0.85966 0.67619 0.0
C2266 C 0.10893 0.85745 0.76801 0.0
C2267 C 0.10417 0.87717 0.77835 0.0
C2268 C 0.11766 0.85713 0.74679 0.0
C2269 C 0.1214 0.87651 0.7352 0.0
C2270 C 0.1158 0.89619 0.74536 0.0
C2271 C 0.10752 0.89652 0.76676 0.0
H2272 H 0.06829 0.86064 0.58596 0.0
H2273 H 0.08108 0.92168 0.61859 0.0
H2274 H 0.03148 0.86048 0.60059 0.0
H2275 H 0.04481 0.92099 0.63407 0.0
H2276 H 0.98073 0.85004 0.65276 0.0
H2277 H 0.01621 0.8537 0.63549 0.0
H2278 H 0.0069 0.92276 0.63017 0.0
H2279 H 0.97187 0.91911 0.64844 0.0
C2280 C 0.06313 0.87421 0.59593 0.0
C2281 C 0.07771 0.89104 0.60126 0.0
C2282 C 0.04213 0.87396 0.60462 0.0
C2283 C 0.03535 0.89039 0.61909 0.0
C2284 C 0.04939 0.90805 0.62303 0.0
C2285 C 0.07027 0.90846 0.61407 0.0
C2286 C 0.98649 0.86604 0.64827 0.0
C2287 C 0.97359 0.88427 0.65202 0.0
C2288 C 0.00667 0.86813 0.63802 0.0
C2289 C 0.01427 0.88848 0.63093 0.0
C2290 C 0.00167 0.90684 0.63547 0.0
C2291 C 0.9816 0.90478 0.64604 0.0
H2292 H 0.90574 0.32575 0.33698 0.0
H2293 H 0.83658 0.33485 0.34501 0.0
H2294 H 0.90167 0.28826 0.34877 0.0
H2295 H 0.83263 0.29754 0.35674 0.0
H2296 H 0.83123 0.22406 0.36438 0.0
H2297 H 0.83536 0.25921 0.3464 0.0
H2298 H 0.89328 0.27186 0.38499 0.0
H2299 H 0.88936 0.23652 0.40253 0.0
C2300 C 0.88961 0.3197 0.34076 0.0
C2301 C 0.8715 0.33345 0.34006 0.0
C2302 C 0.88732 0.29825 0.34772 0.0
C2303 C 0.86687 0.29002 0.35399 0.0
C2304 C 0.84859 0.30332 0.35192 0.0
C2305 C 0.85088 0.32478 0.3451 0.0
C2306 C 0.84497 0.23429 0.36878 0.0
C2307 C 0.86019 0.22748 0.38455 0.0
C2308 C 0.84726 0.25445 0.35861 0.0
C2309 C 0.86479 0.26822 0.36407 0.0
C2310 C 0.87985 0.26145 0.38007 0.0
C2311 C 0.87749 0.24135 0.39031 0.0
H2312 H 0.53179 0.09381 0.12569 0.0
H2313 H 0.51458 0.14071 0.17533 0.0
H2314 H 0.49743 0.09967 0.10707 0.0
H2315 H 0.4794 0.1457 0.15745 0.0
H2316 H 0.42485 0.09758 0.09277 0.0
H2317 H 0.46066 0.09319 0.10837 0.0
H2318 H 0.46186 0.16079 0.12689 0.0
H2319 H 0.42503 0.16468 0.11264 0.0
C2320 C 0.52039 0.105 0.13296 0.0
C2321 C 0.52584 0.11671 0.15209 0.0
C2322 C 0.5006 0.10839 0.12224 0.0
C2323 C 0.4855 0.12325 0.13061 0.0
C2324 C 0.49076 0.13452 0.15014 0.0
C2325 C 0.5108 0.13143 0.16063 0.0
C2326 C 0.43268 0.11155 0.10008 0.0
C2327 C 0.42171 0.13131 0.10191 0.0
C2328 C 0.45348 0.1091 0.1089 0.0
C2329 C 0.46417 0.12652 0.11936 0.0
C2330 C 0.4539 0.1468 0.11961 0.0
C2331 C 0.43288 0.14915 0.11107 0.0
H2332 H 0.6338 0.77732 0.86084 0.0
H2333 H 0.64936 0.74781 0.9232 0.0
H2334 H 0.63413 0.74182 0.84305 0.0
H2335 H 0.64957 0.71225 0.90545 0.0
H2336 H 0.66556 0.65394 0.86505 0.0
H2337 H 0.67075 0.69127 0.87666 0.0
H2338 H 0.60971 0.70829 0.84627 0.0
H2339 H 0.60439 0.67079 0.83446 0.0
C2340 C 0.63784 0.76331 0.87062 0.0
C2341 C 0.64201 0.76531 0.89332 0.0
C2342 C 0.63776 0.74299 0.86049 0.0
C2343 C 0.64202 0.72433 0.87283 0.0
C2344 C 0.64657 0.72641 0.89546 0.0
C2345 C 0.64635 0.74669 0.90564 0.0
C2346 C 0.65347 0.66566 0.86025 0.0
C2347 C 0.63447 0.65928 0.84888 0.0
C2348 C 0.65639 0.68704 0.86713 0.0
C2349 C 0.64051 0.70257 0.86263 0.0
C2350 C 0.62225 0.69662 0.84992 0.0
C2351 C 0.61921 0.67514 0.84318 0.0
H2352 H 0.96855 0.11385 0.88459 0.0
H2353 H 0.99628 0.13192 0.82191 0.0
H2354 H 0.00409 0.11748 0.90187 0.0
H2355 H 0.03174 0.13644 0.83959 0.0
H2356 H 0.08455 0.16632 0.88204 0.0
H2357 H 0.04724 0.1626 0.86885 0.0
H2358 H 0.04225 0.09991 0.89955 0.0
H2359 H 0.0797 0.10351 0.91281 0.0
C2360 C 0.98221 0.11793 0.87426 0.0
C2361 C 0.97953 0.12194 0.8516 0.0
C2362 C 0.00258 0.12036 0.88434 0.0
C2363 C 0.0206 0.12737 0.87211 0.0
C2364 C 0.01803 0.13126 0.84948 0.0
C2365 C 0.99775 0.12853 0.83934 0.0
C2366 C 0.07539 0.15195 0.8865 0.0
C2367 C 0.08525 0.13506 0.89826 0.0
C2368 C 0.0541 0.14974 0.8787 0.0
C2369 C 0.04208 0.13077 0.88278 0.0
C2370 C 0.05123 0.11464 0.89605 0.0
C2371 C 0.07267 0.11672 0.90364 0.0
H2372 H 0.60624 0.23214 0.58429 0.0
H2373 H 0.66651 0.21778 0.61779 0.0
H2374 H 0.60587 0.26772 0.60159 0.0
H2375 H 0.6657 0.25293 0.63578 0.0
H2376 H 0.66846 0.32692 0.64399 0.0
H2377 H 0.66979 0.29034 0.62971 0.0
H2378 H 0.60001 0.28455 0.6364 0.0
H2379 H 0.59855 0.32166 0.64988 0.0
C2380 C 0.61946 0.23662 0.59527 0.0
C2381 C 0.63642 0.22216 0.5996 0.0
C2382 C 0.6191 0.2569 0.60545 0.0
C2383 C 0.63558 0.26311 0.62039 0.0
C2384 C 0.65282 0.24881 0.62427 0.0
C2385 C 0.6533 0.22863 0.6139 0.0
C2386 C 0.6534 0.31775 0.64287 0.0
C2387 C 0.63335 0.32737 0.64786 0.0
C2388 C 0.65418 0.29668 0.63464 0.0
C2389 C 0.63496 0.28459 0.63146 0.0
C2390 C 0.61507 0.29363 0.63803 0.0
C2391 C 0.61426 0.31481 0.64607 0.0
H2392 H 0.51839 0.9199 0.36938 0.0
H2393 H 0.51177 0.85284 0.35055 0.0
H2394 H 0.48385 0.91775 0.38898 0.0
H2395 H 0.47661 0.85094 0.36877 0.0
H2396 H 0.42011 0.84685 0.41373 0.0
H2397 H 0.45819 0.85037 0.40311 0.0
H2398 H 0.44641 0.9156 0.38092 0.0
H2399 H 0.40883 0.91239 0.39221 0.0
C2400 C 0.5097 0.90461 0.36975 0.0
C2401 C 0.51802 0.88638 0.35897 0.0
C2402 C 0.48972 0.90343 0.38068 0.0
C2403 C 0.47744 0.88409 0.3807 0.0
C2404 C 0.48579 0.86595 0.36965 0.0
C2405 C 0.50581 0.8671 0.35891 0.0
C2406 C 0.4258 0.86213 0.40712 0.0
C2407 C 0.4113 0.87926 0.40367 0.0
C2408 C 0.4476 0.86408 0.40079 0.0
C2409 C 0.45535 0.88313 0.39074 0.0
C2410 C 0.44117 0.90073 0.38872 0.0
C2411 C 0.41948 0.89885 0.39519 0.0
H2412 H 0.8334 0.77737 0.11542 0.0
H2413 H 0.90326 0.7784 0.10875 0.0
H2414 H 0.83489 0.74032 0.12884 0.0
H2415 H 0.90481 0.741 0.12093 0.0
H2416 H 0.90549 0.68113 0.16178 0.0
H2417 H 0.90175 0.71916 0.15207 0.0
H2418 H 0.84076 0.70451 0.11935 0.0
H2419 H 0.84397 0.66702 0.13002 0.0
C2420 C 0.84903 0.76945 0.11631 0.0
C2421 C 0.86821 0.78071 0.11101 0.0
C2422 C 0.84993 0.7482 0.12405 0.0
C2423 C 0.87001 0.73761 0.12626 0.0
C2424 C 0.8891 0.74874 0.12011 0.0
C2425 C 0.88822 0.7701 0.11279 0.0
C2426 C 0.89107 0.68618 0.15294 0.0
C2427 C 0.87504 0.67103 0.14672 0.0
C2428 C 0.88904 0.70794 0.14709 0.0
C2429 C 0.87112 0.71496 0.13454 0.0
C2430 C 0.85467 0.6999 0.12919 0.0
C2431 C 0.85652 0.67827 0.13535 0.0
H2432 H 0.57861 0.06965 0.85862 0.0
H2433 H 0.61362 0.07983 0.91963 0.0
H2434 H 0.58803 0.03145 0.85955 0.0
H2435 H 0.62411 0.04221 0.91992 0.0
H2436 H 0.62942 0.96912 0.92248 0.0
H2437 H 0.61581 0.00599 0.92419 0.0
H2438 H 0.61781 0.00961 0.85308 0.0
H2439 H 0.63016 0.9724 0.85153 0.0
C2440 C 0.58813 0.0637 0.87233 0.0
C2441 C 0.59537 0.07786 0.88899 0.0
C2442 C 0.59383 0.04183 0.87274 0.0
C2443 C 0.60727 0.03364 0.88959 0.0
C2444 C 0.61361 0.04767 0.90676 0.0
C2445 C 0.60759 0.0694 0.90656 0.0
C2446 C 0.62712 0.97792 0.90726 0.0
C2447 C 0.63089 0.9679 0.88687 0.0
C2448 C 0.61929 0.99911 0.9082 0.0
C2449 C 0.61543 0.01092 0.88876 0.0
C2450 C 0.61991 0.00097 0.86841 0.0
C2451 C 0.62732 0.97969 0.86749 0.0
H2452 H 0.09648 0.40802 0.06045 0.0
H2453 H 0.07745 0.4283 0.12578 0.0
H2454 H 0.1049 0.44539 0.05103 0.0
H2455 H 0.08587 0.46565 0.1162 0.0
H2456 H 0.15712 0.50024 0.06818 0.0
H2457 H 0.13707 0.46599 0.06752 0.0
H2458 H 0.07988 0.49831 0.09172 0.0
H2459 H 0.10002 0.53251 0.09253 0.0
C2460 C 0.09347 0.42048 0.07261 0.0
C2461 C 0.08683 0.41512 0.09409 0.0
C2462 C 0.09835 0.44186 0.06717 0.0
C2463 C 0.09641 0.45828 0.08301 0.0
C2464 C 0.08749 0.45328 0.10366 0.0
C2465 C 0.08275 0.43185 0.10918 0.0
C2466 C 0.14011 0.50006 0.0728 0.0
C2467 C 0.13004 0.51898 0.08013 0.0
C2468 C 0.12858 0.48055 0.07227 0.0
C2469 C 0.10688 0.47958 0.07947 0.0
C2470 C 0.09655 0.49868 0.08599 0.0
C2471 C 0.10802 0.51826 0.08626 0.0
H2472 H 0.3286 0.34378 0.90772 0.0
H2473 H 0.34092 0.3613 0.84006 0.0
H2474 H 0.2911 0.3557 0.90378 0.0
H2475 H 0.30369 0.37363 0.83629 0.0
H2476 H 0.23668 0.4047 0.89917 0.0
H2477 H 0.27312 0.38987 0.90095 0.0
H2478 H 0.26559 0.36468 0.83491 0.0
H2479 H 0.22915 0.38003 0.83295 0.0
C2480 C 0.32327 0.34983 0.8919 0.0
C2481 C 0.33791 0.35156 0.87424 0.0
C2482 C 0.3018 0.35694 0.8897 0.0
C2483 C 0.2944 0.36602 0.86982 0.0
C2484 C 0.3087 0.36665 0.85182 0.0
C2485 C 0.33014 0.35951 0.854 0.0
C2486 C 0.24283 0.39619 0.88492 0.0
C2487 C 0.22992 0.39358 0.86592 0.0
C2488 C 0.26369 0.38742 0.88604 0.0
C2489 C 0.27226 0.37571 0.86822 0.0
C2490 C 0.2596 0.37364 0.84894 0.0
C2491 C 0.23869 0.38249 0.84779 0.0
H2492 H 0.41157 0.57782 0.58862 0.0
H2493 H 0.39125 0.576 0.65666 0.0
H2494 H 0.3965 0.54137 0.5831 0.0
H2495 H 0.37616 0.5399 0.65099 0.0
H2496 H 0.32354 0.4946 0.62087 0.0
H2497 H 0.34233 0.52942 0.62429 0.0
H2498 H 0.4015 0.50067 0.60067 0.0
H2499 H 0.38332 0.46572 0.59837 0.0
C2500 C 0.40427 0.56953 0.60244 0.0
C2501 C 0.40245 0.57986 0.623 0.0
C2502 C 0.39568 0.54874 0.59928 0.0
C2503 C 0.38487 0.53819 0.61654 0.0
C2504 C 0.38417 0.54794 0.63738 0.0
C2505 C 0.39306 0.5685 0.64065 0.0
C2506 C 0.34048 0.49573 0.61614 0.0
C2507 C 0.35168 0.47736 0.60883 0.0
C2508 C 0.35121 0.5156 0.61817 0.0
C2509 C 0.3733 0.51755 0.61275 0.0
C2510 C 0.38438 0.49951 0.60469 0.0
C2511 C 0.37376 0.47952 0.60304 0.0
H2512 H 0.77119 0.11651 0.8323 0.0
H2513 H 0.77588 0.11964 0.90316 0.0
H2514 H 0.73309 0.127 0.83429 0.0
H2515 H 0.73763 0.12898 0.90536 0.0
H2516 H 0.66003 0.12422 0.84723 0.0
H2517 H 0.6982 0.1158 0.84367 0.0
H2518 H 0.71286 0.15681 0.89968 0.0
H2519 H 0.67419 0.16448 0.90377 0.0
C2520 C 0.76393 0.119 0.84832 0.0
C2521 C 0.77651 0.11724 0.86756 0.0
C2522 C 0.74206 0.12503 0.84951 0.0
C2523 C 0.73216 0.12908 0.87001 0.0
C2524 C 0.74471 0.12662 0.88925 0.0
C2525 C 0.76662 0.12096 0.88802 0.0
C2526 C 0.6714 0.13186 0.85852 0.0
C2527 C 0.66403 0.14521 0.87569 0.0
C2528 C 0.69343 0.12697 0.85649 0.0
C2529 C 0.70881 0.13548 0.87142 0.0
C2530 C 0.70151 0.14952 0.88813 0.0
C2531 C 0.67935 0.15417 0.89036 0.0
H2532 H 0.88125 0.90998 0.40959 0.0
H2533 H 0.91174 0.92048 0.34653 0.0
H2534 H 0.8709 0.94761 0.41112 0.0
H2535 H 0.90251 0.95871 0.34859 0.0
H2536 H 0.86177 0.01889 0.34475 0.0
H2537 H 0.8731 0.98135 0.34469 0.0
H2538 H 0.87977 0.98362 0.41562 0.0
H2539 H 0.86707 0.0209 0.41557 0.0
C2540 C 0.88632 0.92048 0.39629 0.0
C2541 C 0.89732 0.91213 0.37788 0.0
C2542 C 0.88037 0.94223 0.39719 0.0
C2543 C 0.88557 0.95641 0.37988 0.0
C2544 C 0.89761 0.94826 0.36199 0.0
C2545 C 0.9032 0.92636 0.36089 0.0
C2546 C 0.8654 0.01123 0.36035 0.0
C2547 C 0.86342 0.02278 0.38017 0.0
C2548 C 0.87223 0.98974 0.36032 0.0
C2549 C 0.87777 0.9793 0.38011 0.0
C2550 C 0.87544 0.99086 0.40002 0.0
C2551 C 0.86814 0.01229 0.40006 0.0
H2552 H 0.34318 0.64981 0.67535 0.0
H2553 H 0.33561 0.66351 0.60596 0.0
H2554 H 0.30464 0.64135 0.67783 0.0
H2555 H 0.29686 0.65556 0.60865 0.0
H2556 H 0.24441 0.60204 0.6142 0.0
H2557 H 0.27972 0.62014 0.61283 0.0
H2558 H 0.2666 0.65116 0.6752 0.0
H2559 H 0.2315 0.63227 0.67688 0.0
C2560 C 0.33319 0.65175 0.66077 0.0
C2561 C 0.34258 0.6568 0.64032 0.0
C2562 C 0.31103 0.64692 0.66222 0.0
C2563 C 0.29785 0.64723 0.64329 0.0
C2564 C 0.30678 0.6546 0.62338 0.0
C2565 C 0.32896 0.65933 0.62189 0.0
C2566 C 0.24911 0.61274 0.62758 0.0
C2567 C 0.23519 0.61606 0.64547 0.0
C2568 C 0.26916 0.62337 0.62667 0.0
C2569 C 0.27578 0.63742 0.64372 0.0
C2570 C 0.2619 0.64054 0.66176 0.0
C2571 C 0.2418 0.62987 0.66266 0.0
H2572 H 0.26577 0.38785 0.17466 0.0
H2573 H 0.26701 0.39896 0.10456 0.0
H2574 H 0.23039 0.36991 0.17099 0.0
H2575 H 0.23114 0.38232 0.10094 0.0
H2576 H 0.17328 0.33915 0.09634 0.0
H2577 H 0.21139 0.34866 0.10268 0.0
H2578 H 0.19394 0.38041 0.16353 0.0
H2579 H 0.15625 0.37048 0.15758 0.0
C2580 C 0.25858 0.38616 0.15845 0.0
C2581 C 0.26924 0.3943 0.13982 0.0
C2582 C 0.23822 0.37617 0.15635 0.0
C2583 C 0.22803 0.37447 0.13563 0.0
C2584 C 0.23873 0.38285 0.11706 0.0
C2585 C 0.25911 0.39268 0.11916 0.0
C2586 C 0.17767 0.34776 0.11128 0.0
C2587 C 0.16169 0.35418 0.12634 0.0
C2588 C 0.19948 0.35334 0.11484 0.0
C2589 C 0.20566 0.36556 0.13346 0.0
C2590 C 0.18983 0.37082 0.14913 0.0
C2591 C 0.16812 0.36515 0.14565 0.0
H2592 H 0.65417 0.9049 0.42418 0.0
H2593 H 0.5955 0.86838 0.41018 0.0
H2594 H 0.65242 0.8934 0.46253 0.0
H2595 H 0.5942 0.85622 0.448 0.0
H2596 H 0.65832 0.85044 0.52207 0.0
H2597 H 0.65832 0.86226 0.48387 0.0
H2598 H 0.58806 0.86503 0.48487 0.0
H2599 H 0.58814 0.85218 0.52273 0.0
C2600 C 0.64079 0.89462 0.42933 0.0
C2601 C 0.62489 0.88775 0.41414 0.0
C2602 C 0.63991 0.88777 0.45125 0.0
C2603 C 0.62331 0.87361 0.4584 0.0
C2604 C 0.60707 0.86732 0.44329 0.0
C2605 C 0.60778 0.87439 0.42151 0.0
C2606 C 0.64287 0.85322 0.51396 0.0
C2607 C 0.62324 0.85032 0.52536 0.0
C2608 C 0.64286 0.86031 0.49215 0.0
C2609 C 0.62321 0.86501 0.4813 0.0
C2610 C 0.60352 0.86142 0.49255 0.0
C2611 C 0.60353 0.854 0.51428 0.0
H2612 H 0.32992 0.38381 0.67641 0.0
H2613 H 0.35937 0.32271 0.65966 0.0
H2614 H 0.34251 0.37986 0.71425 0.0
H2615 H 0.37271 0.31926 0.69708 0.0
H2616 H 0.38958 0.3149 0.76925 0.0
H2617 H 0.36784 0.31486 0.73551 0.0
H2618 H 0.37786 0.38394 0.72979 0.0
H2619 H 0.39816 0.38406 0.76418 0.0
C2620 C 0.33873 0.36936 0.68088 0.0
C2621 C 0.34396 0.35378 0.66493 0.0
C2622 C 0.34614 0.36719 0.70252 0.0
C2623 C 0.35915 0.34954 0.70857 0.0
C2624 C 0.36274 0.33306 0.69306 0.0
C2625 C 0.35511 0.33509 0.67151 0.0
C2626 C 0.38655 0.33011 0.76108 0.0
C2627 C 0.39505 0.34955 0.76959 0.0
C2628 C 0.37437 0.33007 0.74158 0.0
C2629 C 0.37077 0.34945 0.73007 0.0
C2630 C 0.37971 0.3688 0.73849 0.0
C2631 C 0.39169 0.36884 0.75801 0.0
H2632 H 0.85814 0.15467 0.01291 0.0
H2633 H 0.92002 0.12307 0.02027 0.0
H2634 H 0.85358 0.13823 0.97659 0.0
H2635 H 0.91518 0.10587 0.98427 0.0
H2636 H 0.9109 0.11022 0.90775 0.0
H2637 H 0.91547 0.11806 0.9465 0.0
H2638 H 0.84746 0.10378 0.9574 0.0
H2639 H 0.84277 0.09604 0.91824 0.0
C2640 C 0.87065 0.14401 0.00678 0.0
C2641 C 0.88927 0.13985 0.01942 0.0
C2642 C 0.86792 0.13436 0.98615 0.0
C2643 C 0.88387 0.12049 0.97769 0.0
C2644 C 0.90257 0.11643 0.99036 0.0
C2645 C 0.90529 0.12612 0.011 0.0
C2646 C 0.89703 0.10802 0.91839 0.0
C2647 C 0.87643 0.10263 0.90974 0.0
C2648 C 0.89966 0.11257 0.94072 0.0
C2649 C 0.88176 0.11186 0.95497 0.0
C2650 C 0.86149 0.10486 0.9467 0.0
C2651 C 0.85885 0.10025 0.9243 0.0
H2652 H 0.14953 0.59289 0.16274 0.0
H2653 H 0.16835 0.66041 0.1645 0.0
H2654 H 0.137 0.59551 0.2007 0.0
H2655 H 0.15616 0.66274 0.20276 0.0
H2656 H 0.14303 0.64557 0.27887 0.0
H2657 H 0.16193 0.64327 0.24383 0.0
H2658 H 0.10278 0.62119 0.21241 0.0
H2659 H 0.08332 0.62472 0.24712 0.0
C2660 C 0.15178 0.60807 0.17143 0.0
C2661 C 0.15974 0.62652 0.16049 0.0
C2662 C 0.1444 0.60958 0.1931 0.0
C2663 C 0.14531 0.6294 0.20439 0.0
C2664 C 0.15524 0.6473 0.1943 0.0
C2665 C 0.16226 0.64592 0.17245 0.0
C2666 C 0.13368 0.6411 0.26449 0.0
C2667 C 0.11133 0.63598 0.26588 0.0
C2668 C 0.14472 0.63939 0.24444 0.0
C2669 C 0.13382 0.63189 0.22557 0.0
C2670 C 0.11159 0.62679 0.22685 0.0
C2671 C 0.10046 0.62893 0.24672 0.0
H2672 H 0.65194 0.13887 0.98252 0.0
H2673 H 0.58286 0.12795 0.97528 0.0
H2674 H 0.65024 0.12614 0.02035 0.0
H2675 H 0.58122 0.11392 0.01264 0.0
H2676 H 0.58216 0.11183 0.08785 0.0
H2677 H 0.58241 0.1225 0.04955 0.0
H2678 H 0.64675 0.09566 0.04229 0.0
H2679 H 0.64694 0.08618 0.08121 0.0
C2680 C 0.63637 0.13371 0.98907 0.0
C2681 C 0.61752 0.13455 0.97602 0.0
C2682 C 0.63542 0.12609 0.01068 0.0
C2683 C 0.61563 0.11865 0.01966 0.0
C2684 C 0.59671 0.11974 0.00655 0.0
C2685 C 0.59762 0.1278 0.98507 0.0
C2686 C 0.59623 0.10783 0.07802 0.0
C2687 C 0.6146 0.09826 0.08766 0.0
C2688 C 0.59637 0.11396 0.05591 0.0
C2689 C 0.61473 0.1103 0.0427 0.0
C2690 C 0.63256 0.09939 0.05203 0.0
C2691 C 0.63257 0.09364 0.0743 0.0
H2692 H 0.07569 0.38108 0.24234 0.0
H2693 H 0.13643 0.3601 0.21404 0.0
H2694 H 0.09365 0.38502 0.27804 0.0
H2695 H 0.15382 0.36289 0.24994 0.0
H2696 H 0.15913 0.3466 0.32837 0.0
H2697 H 0.14765 0.34412 0.28983 0.0
H2698 H 0.12637 0.41037 0.29215 0.0
H2699 H 0.13799 0.41308 0.33044 0.0
C2700 C 0.09273 0.37695 0.24373 0.0
C2701 C 0.10434 0.36965 0.22529 0.0
C2702 C 0.103 0.37932 0.26413 0.0
C2703 C 0.12509 0.37427 0.26662 0.0
C2704 C 0.13671 0.36667 0.24841 0.0
C2705 C 0.12653 0.36469 0.22787 0.0
C2706 C 0.15256 0.36081 0.3205 0.0
C2707 C 0.14916 0.37991 0.33261 0.0
C2708 C 0.146 0.35937 0.29846 0.0
C2709 C 0.13573 0.37692 0.28832 0.0
C2710 C 0.13396 0.39653 0.29981 0.0
C2711 C 0.14083 0.3981 0.32168 0.0
H2712 H 0.93416 0.90019 0.59599 0.0
H2713 H 0.87003 0.92174 0.57699 0.0
H2714 H 0.94141 0.88995 0.55801 0.0
H2715 H 0.8775 0.91159 0.539 0.0
H2716 H 0.91972 0.83742 0.50451 0.0
H2717 H 0.92206 0.85802 0.53888 0.0
H2718 H 0.90116 0.91543 0.50473 0.0
H2719 H 0.8987 0.89481 0.47047 0.0
C2720 C 0.92185 0.90342 0.58365 0.0
C2721 C 0.90127 0.91129 0.58962 0.0
C2722 C 0.92603 0.89745 0.56192 0.0
C2723 C 0.90986 0.89958 0.54575 0.0
C2724 C 0.89025 0.90975 0.55119 0.0
C2725 C 0.88596 0.91553 0.57298 0.0
C2726 C 0.91612 0.85454 0.50432 0.0
C2727 C 0.90936 0.8646 0.48486 0.0
C2728 C 0.91761 0.86637 0.52388 0.0
C2729 C 0.91194 0.88836 0.52436 0.0
C2730 C 0.90575 0.89855 0.50474 0.0
C2731 C 0.90454 0.88678 0.48512 0.0
H2732 H 0.40725 0.65316 0.72976 0.0
H2733 H 0.39907 0.58422 0.7206 0.0
H2734 H 0.39163 0.65012 0.76651 0.0
H2735 H 0.38263 0.58133 0.75669 0.0
H2736 H 0.37538 0.58131 0.83184 0.0
H2737 H 0.38943 0.58266 0.79459 0.0
H2738 H 0.35787 0.64409 0.78452 0.0
H2739 H 0.34447 0.64306 0.8222 0.0
C2740 C 0.40224 0.63736 0.73562 0.0
C2741 C 0.40447 0.61896 0.72224 0.0
C2742 C 0.39298 0.63564 0.75658 0.0
C2743 C 0.38555 0.61551 0.76453 0.0
C2744 C 0.38832 0.59706 0.75129 0.0
C2745 C 0.39777 0.59875 0.7305 0.0
C2746 C 0.37097 0.59487 0.82153 0.0
C2747 C 0.35896 0.61219 0.8301 0.0
C2748 C 0.37912 0.59569 0.80011 0.0
C2749 C 0.37519 0.61371 0.7866 0.0
C2750 C 0.36181 0.63028 0.79466 0.0
C2751 C 0.35386 0.62956 0.81618 0.0
H2752 H 0.52384 0.59035 0.84394 0.0
H2753 H 0.53792 0.65107 0.87664 0.0
H2754 H 0.48664 0.59142 0.85804 0.0
H2755 H 0.50113 0.65186 0.89103 0.0
H2756 H 0.42607 0.65587 0.89248 0.0
H2757 H 0.4636 0.65609 0.8799 0.0
H2758 H 0.46814 0.58778 0.89366 0.0
H2759 H 0.43047 0.5874 0.90592 0.0
C2760 C 0.51895 0.60401 0.85391 0.0
C2761 C 0.53385 0.6206 0.85916 0.0
C2762 C 0.49774 0.6045 0.86223 0.0
C2763 C 0.491 0.62161 0.8759 0.0
C2764 C 0.50573 0.63851 0.8805 0.0
C2765 C 0.52686 0.63801 0.87224 0.0
C2766 C 0.43517 0.64097 0.8933 0.0
C2767 C 0.42512 0.62159 0.90009 0.0
C2768 C 0.45671 0.64109 0.886 0.0
C2769 C 0.46872 0.62185 0.88535 0.0
C2770 C 0.45914 0.60276 0.89342 0.0
C2771 C 0.43761 0.60263 0.90075 0.0
H2772 H 0.64098 0.28319 0.14632 0.0
H2773 H 0.63237 0.25279 0.08261 0.0
H2774 H 0.63643 0.2482 0.16408 0.0
H2775 H 0.62647 0.21808 0.10073 0.0
H2776 H 0.58853 0.16931 0.14317 0.0
H2777 H 0.59405 0.20649 0.1308 0.0
H2778 H 0.65791 0.20745 0.16039 0.0
H2779 H 0.6526 0.16999 0.17258 0.0
C2780 C 0.63881 0.26913 0.13596 0.0
C2781 C 0.63771 0.2709 0.11284 0.0
C2782 C 0.63581 0.2491 0.14627 0.0
C2783 C 0.63099 0.2306 0.13374 0.0
C2784 C 0.63001 0.23222 0.11073 0.0
C2785 C 0.63347 0.25209 0.1004 0.0
C2786 C 0.6035 0.1776 0.14764 0.0
C2787 C 0.62025 0.16664 0.15865 0.0
C2788 C 0.60672 0.19879 0.14036 0.0
C2789 C 0.62651 0.20958 0.1444 0.0
C2790 C 0.64256 0.19936 0.15702 0.0
C2791 C 0.63952 0.17796 0.16395 0.0
H2792 H 0.97891 0.34937 0.33802 0.0
H2793 H 0.9659 0.41263 0.36505 0.0
H2794 H 0.0146 0.3498 0.3556 0.0
H2795 H 0.00095 0.41265 0.38356 0.0
H2796 H 0.07497 0.41546 0.3915 0.0
H2797 H 0.03816 0.4157 0.37739 0.0
H2798 H 0.03222 0.3471 0.3901 0.0
H2799 H 0.06972 0.34667 0.40325 0.0
C2800 C 0.98371 0.36337 0.34769 0.0
C2801 C 0.96971 0.38102 0.35001 0.0
C2802 C 0.00403 0.36351 0.35806 0.0
C2803 C 0.01061 0.38116 0.37125 0.0
C2804 C 0.99661 0.3989 0.37333 0.0
C2805 C 0.97648 0.39891 0.36267 0.0
C2806 C 0.06572 0.40047 0.39174 0.0
C2807 C 0.0754 0.38098 0.39828 0.0
C2808 C 0.0445 0.40061 0.38363 0.0
C2809 C 0.03227 0.38134 0.38221 0.0
C2810 C 0.04139 0.36213 0.39034 0.0
C2811 C 0.06278 0.36192 0.39817 0.0
H2812 H 0.90343 0.82557 0.66843 0.0
H2813 H 0.84934 0.83953 0.62533 0.0
H2814 H 0.90272 0.78806 0.65609 0.0
H2815 H 0.84936 0.80249 0.61208 0.0
H2816 H 0.84464 0.72919 0.60343 0.0
H2817 H 0.84256 0.76599 0.6178 0.0
H2818 H 0.91251 0.76738 0.62582 0.0
H2819 H 0.91426 0.73028 0.61264 0.0
C2820 C 0.89128 0.8206 0.65645 0.0
C2821 C 0.87647 0.8356 0.6479 0.0
C2822 C 0.89104 0.79911 0.6491 0.0
C2823 C 0.87625 0.79215 0.63269 0.0
C2824 C 0.86088 0.80702 0.62483 0.0
C2825 C 0.86089 0.82839 0.63246 0.0
C2826 C 0.85957 0.73752 0.60801 0.0
C2827 C 0.87961 0.72686 0.6069 0.0
C2828 C 0.85841 0.75866 0.6163 0.0
C2829 C 0.87734 0.76976 0.62334 0.0
C2830 C 0.89747 0.75927 0.62127 0.0
C2831 C 0.89855 0.73805 0.61338 0.0
H2832 H 0.50972 0.35608 0.64792 0.0
H2833 H 0.51902 0.41942 0.61966 0.0
H2834 H 0.474 0.35334 0.63041 0.0
H2835 H 0.48334 0.41659 0.60169 0.0
H2836 H 0.40677 0.4116 0.60403 0.0
H2837 H 0.44491 0.41587 0.61381 0.0
H2838 H 0.45688 0.35008 0.59347 0.0
H2839 H 0.4186 0.34566 0.58371 0.0
C2840 C 0.50411 0.36935 0.63782 0.0
C2841 C 0.51715 0.38783 0.63486 0.0
C2842 C 0.4838 0.3677 0.62759 0.0
C2843 C 0.47599 0.38462 0.6144 0.0
C2844 C 0.48897 0.40325 0.61167 0.0
C2845 C 0.50938 0.40483 0.62182 0.0
C2846 C 0.41758 0.3982 0.601 0.0
C2847 C 0.40949 0.3782 0.59328 0.0
C2848 C 0.4395 0.40068 0.60665 0.0
C2849 C 0.4538 0.38319 0.60477 0.0
C2850 C 0.44611 0.36371 0.5955 0.0
C2851 C 0.4242 0.36126 0.58974 0.0
H2852 H 0.88982 0.27263 0.90566 0.0
H2853 H 0.8251 0.28522 0.88108 0.0
H2854 H 0.88884 0.23712 0.88835 0.0
H2855 H 0.82433 0.24977 0.86333 0.0
H2856 H 0.82505 0.1745 0.85648 0.0
H2857 H 0.82338 0.21119 0.8709 0.0
H2858 H 0.89001 0.22227 0.85129 0.0
H2859 H 0.89191 0.1854 0.83732 0.0
C2860 C 0.87531 0.26777 0.89669 0.0
C2861 C 0.85758 0.2818 0.8947 0.0
C2862 C 0.87486 0.2475 0.88653 0.0
C2863 C 0.85668 0.24078 0.87408 0.0
C2864 C 0.83858 0.25446 0.87279 0.0
C2865 C 0.83902 0.27476 0.88301 0.0
C2866 C 0.83922 0.18488 0.85478 0.0
C2867 C 0.85873 0.17687 0.846 0.0
C2868 C 0.83825 0.20595 0.8631 0.0
C2869 C 0.85672 0.21948 0.86271 0.0
C2870 C 0.87569 0.21202 0.8524 0.0
C2871 C 0.87669 0.19095 0.84415 0.0
H2872 H 0.08571 0.59457 0.11015 0.0
H2873 H 0.0785 0.6602 0.08724 0.0
H2874 H 0.04854 0.59435 0.1229 0.0
H2875 H 0.04055 0.65962 0.09888 0.0
H2876 H 0.98171 0.66166 0.1435 0.0
H2877 H 0.01892 0.66125 0.12997 0.0
H2878 H 0.01208 0.59301 0.11524 0.0
H2879 H 0.97542 0.59332 0.1301 0.0
C2880 C 0.07597 0.6088 0.10721 0.0
C2881 C 0.08516 0.62742 0.0976 0.0
C2882 C 0.05448 0.60866 0.11456 0.0
C2883 C 0.04132 0.62701 0.11216 0.0
C2884 C 0.05024 0.64533 0.10158 0.0
C2885 C 0.07195 0.6456 0.09459 0.0
C2886 C 0.98834 0.64652 0.13767 0.0
C2887 C 0.97571 0.62749 0.13806 0.0
C2888 C 0.00962 0.64632 0.12958 0.0
C2889 C 0.01868 0.62715 0.1212 0.0
C2890 C 0.00599 0.60805 0.12184 0.0
C2891 C 0.98487 0.60819 0.13038 0.0
H2892 H 0.59979 0.72423 0.38174 0.0
H2893 H 0.66943 0.71864 0.37586 0.0
H2894 H 0.60154 0.76031 0.36601 0.0
H2895 H 0.67123 0.75415 0.35871 0.0
H2896 H 0.60524 0.81877 0.32484 0.0
H2897 H 0.60636 0.78054 0.33434 0.0
H2898 H 0.66908 0.79058 0.36544 0.0
H2899 H 0.66858 0.82809 0.35466 0.0
C2900 C 0.61548 0.73077 0.37699 0.0
C2901 C 0.63449 0.71881 0.38026 0.0
C2902 C 0.6165 0.75134 0.36762 0.0
C2903 C 0.63651 0.76023 0.36076 0.0
C2904 C 0.65555 0.74811 0.36404 0.0
C2905 C 0.65456 0.72773 0.37392 0.0
C2906 C 0.61953 0.81261 0.33312 0.0
C2907 C 0.63667 0.82657 0.33921 0.0
C2908 C 0.62006 0.79074 0.3389 0.0
C2909 C 0.63753 0.78245 0.35128 0.0
C2910 C 0.65536 0.79615 0.35587 0.0
C2911 C 0.65504 0.81785 0.3497 0.0
H2912 H 0.92048 0.42199 0.59426 0.0
H2913 H 0.89233 0.42442 0.65922 0.0
H2914 H 0.91107 0.45982 0.58854 0.0
H2915 H 0.88218 0.46165 0.65333 0.0
H2916 H 0.87209 0.53185 0.64305 0.0
H2917 H 0.89068 0.49776 0.64929 0.0
H2918 H 0.87995 0.48022 0.58104 0.0
H2919 H 0.86251 0.51512 0.57478 0.0
C2920 C 0.91252 0.43066 0.60741 0.0
C2921 C 0.90699 0.42006 0.6271 0.0
C2922 C 0.90692 0.45233 0.60408 0.0
C2923 C 0.89547 0.46387 0.62028 0.0
C2924 C 0.89118 0.45357 0.64048 0.0
C2925 C 0.89703 0.43205 0.6439 0.0
C2926 C 0.87394 0.5207 0.6294 0.0
C2927 C 0.86578 0.52588 0.60851 0.0
C2928 C 0.88448 0.50109 0.63295 0.0
C2929 C 0.88666 0.48592 0.61578 0.0
C2930 C 0.87891 0.4915 0.59465 0.0
C2931 C 0.86873 0.51139 0.59103 0.0
H2932 H 0.3535 0.98812 0.36304 0.0
H2933 H 0.36089 0.98284 0.43351 0.0
H2934 H 0.37311 0.02231 0.36371 0.0
H2935 H 0.38239 0.01607 0.43405 0.0
H2936 H 0.389 0.09055 0.42805 0.0
H2937 H 0.37747 0.05316 0.4308 0.0
H2938 H 0.40688 0.03964 0.36771 0.0
H2939 H 0.41733 0.07759 0.36439 0.0
C2940 C 0.35967 0.99411 0.37866 0.0
C2941 C 0.35611 0.9825 0.39815 0.0
C2942 C 0.3713 0.01355 0.37901 0.0
C2943 C 0.37982 0.02183 0.39887 0.0
C2944 C 0.37618 0.01018 0.41842 0.0
C2945 C 0.36421 0.99085 0.41809 0.0
C2946 C 0.39352 0.07952 0.41498 0.0
C2947 C 0.40368 0.08713 0.39577 0.0
C2948 C 0.38692 0.05794 0.4166 0.0
C2949 C 0.39071 0.04341 0.39921 0.0
C2950 C 0.403 0.05056 0.38107 0.0
C2951 C 0.40924 0.07225 0.37927 0.0
H2952 H 0.25181 0.08587 0.66397 0.0
H2953 H 0.27949 0.14467 0.6376 0.0
H2954 H 0.21572 0.10225 0.66333 0.0
H2955 H 0.24343 0.16108 0.63697 0.0
H2956 H 0.17007 0.16338 0.61059 0.0
H2957 H 0.20825 0.15345 0.61507 0.0
H2958 H 0.19548 0.13335 0.6818 0.0
H2959 H 0.15754 0.14337 0.67758 0.0
C2960 C 0.25018 0.10239 0.65834 0.0
C2961 C 0.26846 0.11414 0.65127 0.0
C2962 C 0.22959 0.11181 0.65805 0.0
C2963 C 0.22682 0.13302 0.65026 0.0
C2964 C 0.24512 0.14476 0.64313 0.0
C2965 C 0.26577 0.13544 0.64374 0.0
C2966 C 0.17551 0.15739 0.62641 0.0
C2967 C 0.16063 0.15396 0.64361 0.0
C2968 C 0.19737 0.15168 0.62895 0.0
C2969 C 0.20469 0.14228 0.64867 0.0
C2970 C 0.19018 0.14022 0.66631 0.0
C2971 C 0.16844 0.14611 0.66388 0.0
H2972 H 0.08997 0.92823 0.85228 0.0
H2973 H 0.10559 0.90929 0.91892 0.0
H2974 H 0.0983 0.96577 0.86171 0.0
H2975 H 0.11348 0.94674 0.92834 0.0
H2976 H 0.10653 0.0338 0.88801 0.0
H2977 H 0.08962 0.99815 0.88398 0.0
H2978 H 0.14459 0.96951 0.91707 0.0
H2979 H 0.16117 0.00526 0.92159 0.0
C2980 C 0.09456 0.93211 0.86908 0.0
C2981 C 0.09739 0.91568 0.88476 0.0
C2982 C 0.09929 0.95364 0.8745 0.0
C2983 C 0.10689 0.95911 0.89568 0.0
C2984 C 0.10807 0.94293 0.91177 0.0
C2985 C 0.10337 0.92146 0.90638 0.0
C2986 C 0.11463 0.01998 0.89508 0.0
C2987 C 0.13493 0.0223 0.90558 0.0
C2988 C 0.10509 0.99954 0.89248 0.0
C2989 C 0.1157 0.98105 0.90031 0.0
C2990 C 0.1358 0.98349 0.91122 0.0
C2991 C 0.14538 0.0039 0.9137 0.0
H2992 H 0.83054 0.35387 0.59595 0.0
H2993 H 0.83106 0.35034 0.66704 0.0
H2994 H 0.79176 0.3616 0.59662 0.0
H2995 H 0.79223 0.35767 0.66762 0.0
H2996 H 0.72954 0.39719 0.66136 0.0
H2997 H 0.76822 0.38821 0.66053 0.0
H2998 H 0.75662 0.34596 0.60486 0.0
H2999 H 0.71835 0.3552 0.60536 0.0
C3000 C 0.82233 0.35431 0.61169 0.0
C3001 C 0.83398 0.35151 0.63143 0.0
C3002 C 0.80008 0.35877 0.61208 0.0
C3003 C 0.78894 0.36051 0.6322 0.0
C3004 C 0.80041 0.35689 0.65188 0.0
C3005 C 0.82264 0.35242 0.6515 0.0
C3006 C 0.73531 0.3861 0.64888 0.0
C3007 C 0.72086 0.37696 0.63343 0.0
C3008 C 0.75742 0.3808 0.64851 0.0
C3009 C 0.7655 0.36629 0.63265 0.0
C3010 C 0.75102 0.35736 0.61712 0.0
C3011 C 0.72901 0.36263 0.6175 0.0
H3012 H 0.59123 0.57941 0.09473 0.0
H3013 H 0.60236 0.5778 0.16499 0.0
H3014 H 0.60101 0.5414 0.0921 0.0
H3015 H 0.61217 0.53989 0.16232 0.0
H3016 H 0.60916 0.4669 0.15202 0.0
H3017 H 0.59758 0.50424 0.15437 0.0
H3018 H 0.63424 0.51933 0.09577 0.0
H3019 H 0.64563 0.48152 0.09314 0.0
C3020 C 0.59557 0.57098 0.10964 0.0
C3021 C 0.59618 0.58186 0.13002 0.0
C3022 C 0.60136 0.54919 0.1081 0.0
C3023 C 0.60771 0.53767 0.12693 0.0
C3024 C 0.6073 0.54824 0.14747 0.0
C3025 C 0.60159 0.57003 0.14899 0.0
C3026 C 0.61489 0.47813 0.13963 0.0
C3027 C 0.62836 0.47118 0.12237 0.0
C3028 C 0.60827 0.49962 0.14106 0.0
C3029 C 0.61491 0.51479 0.12525 0.0
C3030 C 0.62859 0.50795 0.10806 0.0
C3031 C 0.63531 0.48636 0.10666 0.0
H3032 H 0.26965 0.89716 0.80962 0.0
H3033 H 0.26816 0.89926 0.88066 0.0
H3034 H 0.2354 0.87688 0.80931 0.0
H3035 H 0.23337 0.88047 0.88039 0.0
H3036 H 0.17947 0.8342 0.87888 0.0
H3037 H 0.217 0.84598 0.87375 0.0
H3038 H 0.19777 0.88244 0.81636 0.0
H3039 H 0.16055 0.86995 0.8209 0.0
C3040 C 0.26216 0.89305 0.82515 0.0
C3041 C 0.27184 0.89928 0.84518 0.0
C3042 C 0.24237 0.88171 0.82498 0.0
C3043 C 0.23182 0.87666 0.84485 0.0
C3044 C 0.24134 0.88346 0.86481 0.0
C3045 C 0.2611 0.8946 0.86496 0.0
C3046 C 0.18338 0.84424 0.86482 0.0
C3047 C 0.16698 0.85147 0.85056 0.0
C3048 C 0.20484 0.85116 0.86199 0.0
C3049 C 0.21026 0.86567 0.84502 0.0
C3050 C 0.1942 0.87129 0.82961 0.0
C3051 C 0.17279 0.86415 0.83227 0.0
H3052 H 0.32793 0.14327 0.41211 0.0
H3053 H 0.33015 0.15999 0.34314 0.0
H3054 H 0.29084 0.12978 0.40738 0.0
H3055 H 0.29281 0.14657 0.33852 0.0
H3056 H 0.21677 0.13526 0.35206 0.0
H3057 H 0.25201 0.15313 0.35493 0.0
H3058 H 0.27933 0.09526 0.38273 0.0
H3059 H 0.24432 0.07675 0.37878 0.0
C3060 C 0.32031 0.14469 0.39608 0.0
C3061 C 0.33207 0.15247 0.3779 0.0
C3062 C 0.29917 0.13674 0.39336 0.0
C3063 C 0.28926 0.13681 0.37252 0.0
C3064 C 0.30025 0.14624 0.35472 0.0
C3065 C 0.32158 0.15387 0.35735 0.0
C3066 C 0.23032 0.12589 0.35788 0.0
C3067 C 0.2277 0.10423 0.36459 0.0
C3068 C 0.25048 0.13637 0.35987 0.0
C3069 C 0.26821 0.12559 0.36918 0.0
C3070 C 0.26576 0.10396 0.37569 0.0
C3071 C 0.24575 0.09337 0.37332 0.0
H3072 H 0.35068 0.09318 0.57583 0.0
H3073 H 0.41821 0.11235 0.58245 0.0
H3074 H 0.35082 0.1057 0.53782 0.0
H3075 H 0.41798 0.1259 0.54522 0.0
H3076 H 0.415 0.13883 0.4722 0.0
H3077 H 0.41642 0.12052 0.50748 0.0
H3078 H 0.35024 0.13982 0.52059 0.0
H3079 H 0.34852 0.15711 0.48465 0.0
C3080 C 0.36565 0.09968 0.56909 0.0
C3081 C 0.38432 0.10203 0.58233 0.0
C3082 C 0.36565 0.1072 0.5474 0.0
C3083 C 0.38423 0.11741 0.5386 0.0
C3084 C 0.40336 0.11813 0.55131 0.0
C3085 C 0.40346 0.11035 0.57281 0.0
C3086 C 0.40086 0.13943 0.48276 0.0
C3087 C 0.38166 0.14949 0.47572 0.0
C3088 C 0.40164 0.12884 0.503 0.0
C3089 C 0.38336 0.12842 0.51687 0.0
C3090 C 0.36443 0.13923 0.51012 0.0
C3091 C 0.36353 0.14949 0.48968 0.0
H3092 H 0.65742 0.66526 0.33065 0.0
H3093 H 0.65735 0.59532 0.32913 0.0
H3094 H 0.64847 0.6659 0.29159 0.0
H3095 H 0.64798 0.59603 0.29017 0.0
H3096 H 0.6468 0.6062 0.21587 0.0
H3097 H 0.66015 0.60584 0.25356 0.0
H3098 H 0.6156 0.6569 0.27041 0.0
H3099 H 0.60249 0.65763 0.23241 0.0
C3100 C 0.65585 0.65002 0.32192 0.0
C3101 C 0.65791 0.63023 0.33306 0.0
C3102 C 0.65049 0.65041 0.29959 0.0
C3103 C 0.64708 0.63103 0.28794 0.0
C3104 C 0.65053 0.61125 0.29871 0.0
C3105 C 0.65596 0.61085 0.32104 0.0
C3106 C 0.63978 0.61735 0.2276 0.0
C3107 C 0.62359 0.63199 0.22116 0.0
C3108 C 0.64742 0.61707 0.24922 0.0
C3109 C 0.63905 0.63143 0.26491 0.0
C3110 C 0.62265 0.64591 0.25857 0.0
C3111 C 0.61498 0.64618 0.23688 0.0
H3112 H 0.09752 0.90725 0.08248 0.0
H3113 H 0.16506 0.8886 0.08333 0.0
H3114 H 0.09511 0.89751 0.04362 0.0
H3115 H 0.16253 0.87817 0.04502 0.0
H3116 H 0.1559 0.86649 0.97297 0.0
H3117 H 0.15838 0.886 0.00781 0.0
H3118 H 0.09335 0.86429 0.02424 0.0
H3119 H 0.09071 0.84568 0.98878 0.0
C3120 C 0.11193 0.9014 0.07431 0.0
C3121 C 0.13135 0.89836 0.08611 0.0
C3122 C 0.11051 0.89562 0.05207 0.0
C3123 C 0.12846 0.88653 0.04126 0.0
C3124 C 0.14836 0.88521 0.05266 0.0
C3125 C 0.14983 0.89122 0.07476 0.0
C3126 C 0.14217 0.86597 0.98411 0.0
C3127 C 0.12318 0.85452 0.97843 0.0
C3128 C 0.14356 0.87714 0.00406 0.0
C3129 C 0.12611 0.87671 0.01897 0.0
C3130 C 0.10697 0.86537 0.01304 0.0
C3131 C 0.10547 0.85452 0.99286 0.0
H3132 H 0.85963 0.40034 0.71732 0.0
H3133 H 0.89832 0.34378 0.73059 0.0
H3134 H 0.84788 0.40109 0.75546 0.0
H3135 H 0.88676 0.3448 0.76908 0.0
H3136 H 0.84415 0.33951 0.82992 0.0
H3137 H 0.85349 0.33893 0.79098 0.0
H3138 H 0.86238 0.4083 0.79215 0.0
H3139 H 0.85277 0.409 0.83099 0.0
C3140 C 0.86579 0.38813 0.72843 0.0
C3141 C 0.87993 0.37197 0.7209 0.0
C3142 C 0.85907 0.38864 0.75033 0.0
C3143 C 0.86629 0.37296 0.76528 0.0
C3144 C 0.88066 0.35692 0.75786 0.0
C3145 C 0.88745 0.35645 0.73588 0.0
C3146 C 0.84772 0.35471 0.82181 0.0
C3147 C 0.84777 0.37431 0.83365 0.0
C3148 C 0.85333 0.35432 0.79954 0.0
C3149 C 0.859 0.37351 0.78856 0.0
C3150 C 0.85803 0.39323 0.80011 0.0
C3151 C 0.85248 0.39362 0.8224 0.0
H3152 H 0.42454 0.88685 0.90606 0.0
H3153 H 0.35872 0.90767 0.91844 0.0
H3154 H 0.42756 0.8745 0.94393 0.0
H3155 H 0.36191 0.8953 0.95648 0.0
H3156 H 0.38329 0.88485 0.02854 0.0
H3157 H 0.38237 0.90147 0.99212 0.0
H3158 H 0.40934 0.84341 0.96395 0.0
H3159 H 0.41047 0.82687 0.00057 0.0
C3160 C 0.41083 0.88918 0.91693 0.0
C3161 C 0.39128 0.8981 0.9091 0.0
C3162 C 0.41254 0.88192 0.93859 0.0
C3163 C 0.39486 0.88362 0.95302 0.0
C3164 C 0.3758 0.89378 0.94568 0.0
C3165 C 0.37399 0.9009 0.9239 0.0
C3166 C 0.38938 0.8758 0.01462 0.0
C3167 C 0.39744 0.85477 0.01736 0.0
C3168 C 0.38862 0.88523 0.99376 0.0
C3169 C 0.39597 0.87383 0.97525 0.0
C3170 C 0.4039 0.85271 0.978 0.0
C3171 C 0.40443 0.8432 0.99886 0.0
H3172 H 0.85354 0.64376 0.77883 0.0
H3173 H 0.9045 0.68133 0.74811 0.0
H3174 H 0.8339 0.64184 0.74378 0.0
H3175 H 0.88493 0.67939 0.71304 0.0
H3176 H 0.83863 0.61459 0.66926 0.0
H3177 H 0.84464 0.62219 0.70821 0.0
H3178 H 0.84935 0.69047 0.69414 0.0
H3179 H 0.84329 0.68303 0.65523 0.0
C3180 C 0.86019 0.65214 0.76471 0.0
C3181 C 0.88033 0.66299 0.76609 0.0
C3182 C 0.84904 0.6509 0.74469 0.0
C3183 C 0.85779 0.66065 0.72585 0.0
C3184 C 0.87761 0.67209 0.72746 0.0
C3185 C 0.88889 0.67307 0.74739 0.0
C3186 C 0.84011 0.63129 0.67454 0.0
C3187 C 0.84112 0.64815 0.65911 0.0
C3188 C 0.84352 0.63564 0.69687 0.0
C3189 C 0.84796 0.65687 0.70397 0.0
C3190 C 0.84636 0.67393 0.68893 0.0
C3191 C 0.84285 0.66963 0.66667 0.0
H3192 H 0.13284 0.08295 0.42833 0.0
H3193 H 0.06951 0.10709 0.40996 0.0
H3194 H 0.12686 0.09497 0.46611 0.0
H3195 H 0.06375 0.11919 0.44768 0.0
H3196 H 0.08419 0.16842 0.50406 0.0
H3197 H 0.0838 0.14994 0.46832 0.0
H3198 H 0.10261 0.09047 0.49997 0.0
H3199 H 0.10313 0.10894 0.53554 0.0
C3200 C 0.11746 0.09033 0.43243 0.0
C3201 C 0.10178 0.09428 0.41606 0.0
C3202 C 0.11403 0.09719 0.45407 0.0
C3203 C 0.09497 0.10827 0.45966 0.0
C3204 C 0.0787 0.11093 0.44368 0.0
C3205 C 0.08199 0.10385 0.42212 0.0
C3206 C 0.08788 0.15133 0.50334 0.0
C3207 C 0.09326 0.14 0.52253 0.0
C3208 C 0.08754 0.14073 0.48299 0.0
C3209 C 0.09303 0.11874 0.48148 0.0
C3210 C 0.09823 0.10739 0.50072 0.0
C3211 C 0.09828 0.11791 0.52108 0.0
H3212 H 0.65822 0.4071 0.17722 0.0
H3213 H 0.62597 0.346 0.16426 0.0
H3214 H 0.64556 0.40587 0.21519 0.0
H3215 H 0.61225 0.34537 0.20146 0.0
H3216 H 0.60222 0.3421 0.27515 0.0
H3217 H 0.61799 0.34129 0.23855 0.0
H3218 H 0.61387 0.41104 0.23519 0.0
H3219 H 0.5994 0.41176 0.27246 0.0
C3220 C 0.64866 0.39329 0.18254 0.0
C3221 C 0.64316 0.37666 0.16769 0.0
C3222 C 0.64107 0.39272 0.20423 0.0
C3223 C 0.62745 0.37572 0.21143 0.0
C3224 C 0.62284 0.35863 0.19677 0.0
C3225 C 0.63077 0.35899 0.17529 0.0
C3226 C 0.60436 0.35722 0.26642 0.0
C3227 C 0.59948 0.37699 0.27659 0.0
C3228 C 0.61348 0.35679 0.24538 0.0
C3229 C 0.61749 0.37612 0.23381 0.0
C3230 C 0.61166 0.39585 0.24373 0.0
C3231 C 0.603 0.39628 0.26497 0.0
H3232 H 0.57108 0.35677 0.08214 0.0
H3233 H 0.58031 0.41959 0.11229 0.0
H3234 H 0.53318 0.35669 0.09371 0.0
H3235 H 0.54315 0.41894 0.12502 0.0
H3236 H 0.47054 0.41755 0.13637 0.0
H3237 H 0.50617 0.42033 0.11926 0.0
H3238 H 0.51424 0.35123 0.12632 0.0
H3239 H 0.47803 0.34845 0.14212 0.0
C3240 C 0.56495 0.37069 0.09094 0.0
C3241 C 0.5788 0.38807 0.09642 0.0
C3242 C 0.54329 0.37052 0.09791 0.0
C3243 C 0.53513 0.38754 0.11088 0.0
C3244 C 0.54865 0.40556 0.11502 0.0
C3245 C 0.57012 0.40592 0.10769 0.0
C3246 C 0.48009 0.40302 0.13449 0.0
C3247 C 0.4716 0.38279 0.14066 0.0
C3248 C 0.50054 0.40458 0.12461 0.0
C3249 C 0.51316 0.38598 0.12111 0.0
C3250 C 0.50484 0.36585 0.12808 0.0
C3251 C 0.48421 0.36426 0.1375 0.0
H3252 H 0.33706 0.74628 0.89963 0.0
H3253 H 0.37326 0.71763 0.84642 0.0
H3254 H 0.33999 0.78156 0.8819 0.0
H3255 H 0.37586 0.75286 0.82839 0.0
H3256 H 0.40307 0.82484 0.82804 0.0
H3257 H 0.39565 0.78709 0.83694 0.0
H3258 H 0.32838 0.80236 0.84921 0.0
H3259 H 0.33575 0.8401 0.84062 0.0
C3260 C 0.34527 0.74749 0.88392 0.0
C3261 C 0.35457 0.72919 0.87421 0.0
C3262 C 0.34683 0.76764 0.87367 0.0
C3263 C 0.358 0.76996 0.85363 0.0
C3264 C 0.36711 0.75156 0.84378 0.0
C3265 C 0.36539 0.73136 0.85398 0.0
C3266 C 0.38656 0.82008 0.83205 0.0
C3267 C 0.37009 0.83563 0.83391 0.0
C3268 C 0.38231 0.7984 0.83713 0.0
C3269 C 0.36151 0.79184 0.84417 0.0
C3270 C 0.34467 0.80703 0.84426 0.0
C3271 C 0.34889 0.82866 0.83915 0.0
H3272 H 0.93444 0.6596 0.59877 0.0
H3273 H 0.91888 0.59256 0.61192 0.0
H3274 H 0.97112 0.65405 0.61297 0.0
H3275 H 0.95533 0.58715 0.62626 0.0
H3276 H 0.02314 0.64391 0.6654 0.0
H3277 H 0.98693 0.64764 0.64955 0.0
H3278 H 0.99379 0.5861 0.61657 0.0
H3279 H 0.0299 0.58214 0.63271 0.0
C3280 C 0.93889 0.64361 0.60435 0.0
C3281 C 0.92364 0.62653 0.60418 0.0
C3282 C 0.95984 0.64049 0.61271 0.0
C3283 C 0.96602 0.62023 0.62103 0.0
C3284 C 0.95113 0.60292 0.61988 0.0
C3285 C 0.93019 0.60604 0.61159 0.0
C3286 C 0.01684 0.63102 0.65501 0.0
C3287 C 0.02946 0.61276 0.65027 0.0
C3288 C 0.99618 0.63329 0.64571 0.0
C3289 C 0.98765 0.61734 0.6315 0.0
C3290 C 0.9999 0.59866 0.62747 0.0
C3291 C 0.02059 0.59639 0.63675 0.0
H3292 H 0.16589 0.26899 0.36641 0.0
H3293 H 0.10403 0.25857 0.39814 0.0
H3294 H 0.1626 0.23361 0.34839 0.0
H3295 H 0.10087 0.22311 0.3806 0.0
H3296 H 0.09222 0.16711 0.3352 0.0
H3297 H 0.09607 0.20545 0.34408 0.0
H3298 H 0.16351 0.19569 0.36108 0.0
H3299 H 0.15979 0.15755 0.35224 0.0
C3300 C 0.15149 0.2592 0.36929 0.0
C3301 C 0.13507 0.26654 0.38339 0.0
C3302 C 0.14966 0.23895 0.35911 0.0
C3303 C 0.13135 0.22569 0.36287 0.0
C3304 C 0.11494 0.23314 0.37698 0.0
C3305 C 0.11685 0.25329 0.38724 0.0
C3306 C 0.10803 0.17321 0.34027 0.0
C3307 C 0.12564 0.15913 0.34318 0.0
C3308 C 0.11017 0.19516 0.34552 0.0
C3309 C 0.13 0.20349 0.35361 0.0
C3310 C 0.14804 0.18979 0.35481 0.0
C3311 C 0.14588 0.16785 0.3497 0.0
H3312 H 0.57792 0.65614 0.40993 0.0
H3313 H 0.58868 0.5896 0.39115 0.0
H3314 H 0.54015 0.65287 0.39749 0.0
H3315 H 0.55115 0.58642 0.37903 0.0
H3316 H 0.49756 0.60295 0.32785 0.0
H3317 H 0.5332 0.60448 0.34593 0.0
H3318 H 0.5039 0.63245 0.40379 0.0
H3319 H 0.46828 0.63093 0.38565 0.0
C3320 C 0.57214 0.64068 0.40376 0.0
C3321 C 0.58641 0.62314 0.40156 0.0
C3322 C 0.55052 0.63882 0.39662 0.0
C3323 C 0.5429 0.61949 0.38699 0.0
C3324 C 0.55673 0.6016 0.38611 0.0
C3325 C 0.5782 0.60338 0.39337 0.0
C3326 C 0.49879 0.6093 0.34446 0.0
C3327 C 0.48022 0.6164 0.35555 0.0
C3328 C 0.51908 0.61007 0.35485 0.0
C3329 C 0.52121 0.61835 0.37636 0.0
C3330 C 0.50268 0.6259 0.38726 0.0
C3331 C 0.48232 0.62485 0.37697 0.0
H3332 H 0.16982 0.82427 0.14891 0.0
H3333 H 0.09974 0.81889 0.15226 0.0
H3334 H 0.17167 0.78784 0.13429 0.0
H3335 H 0.1017 0.78195 0.13836 0.0
H3336 H 0.11018 0.73068 0.08518 0.0
H3337 H 0.10898 0.76583 0.10332 0.0
H3338 H 0.16722 0.75026 0.13987 0.0
H3339 H 0.16887 0.71553 0.12112 0.0
C3340 C 0.15481 0.81511 0.14714 0.0
C3341 C 0.13459 0.82466 0.1515 0.0
C3342 C 0.1559 0.79412 0.13873 0.0
C3343 C 0.1368 0.78208 0.13471 0.0
C3344 C 0.11669 0.79102 0.14067 0.0
C3345 C 0.11558 0.8121 0.14893 0.0
C3346 C 0.12287 0.73488 0.09689 0.0
C3347 C 0.13964 0.72033 0.10164 0.0
C3348 C 0.12202 0.75492 0.10754 0.0
C3349 C 0.13783 0.76078 0.12333 0.0
C3350 C 0.15487 0.74638 0.12771 0.0
C3351 C 0.15583 0.72644 0.11691 0.0
H3352 H 0.02938 0.40591 0.8932 0.0
H3353 H 0.00944 0.36766 0.83699 0.0
H3354 H 0.99472 0.39839 0.91094 0.0
H3355 H 0.97417 0.36114 0.85412 0.0
H3356 H 0.91738 0.33986 0.89393 0.0
H3357 H 0.95548 0.34263 0.88321 0.0
H3358 H 0.95788 0.4083 0.9077 0.0
H3359 H 0.92027 0.40515 0.91929 0.0
C3360 C 0.01769 0.39564 0.88474 0.0
C3361 C 0.02239 0.38691 0.86392 0.0
C3362 C 0.99766 0.39157 0.89479 0.0
C3363 C 0.98162 0.37897 0.88411 0.0
C3364 C 0.98627 0.37047 0.86312 0.0
C3365 C 0.00638 0.37444 0.85314 0.0
C3366 C 0.92623 0.35465 0.89767 0.0
C3367 C 0.91561 0.37244 0.90713 0.0
C3368 C 0.94801 0.35636 0.8912 0.0
C3369 C 0.95967 0.37587 0.89405 0.0
C3370 C 0.94952 0.39301 0.90518 0.0
C3371 C 0.92782 0.39126 0.91173 0.0
H3372 H 0.34232 0.16691 0.63007 0.0
H3373 H 0.40318 0.18315 0.66212 0.0
H3374 H 0.3395 0.20346 0.61647 0.0
H3375 H 0.39991 0.22032 0.64922 0.0
H3376 H 0.40281 0.27544 0.60063 0.0
H3377 H 0.40373 0.23907 0.61579 0.0
H3378 H 0.3338 0.24007 0.62336 0.0
H3379 H 0.33292 0.276 0.6071 0.0
C3380 C 0.35475 0.17849 0.63491 0.0
C3381 C 0.37298 0.17208 0.64725 0.0
C3382 C 0.35315 0.19956 0.627 0.0
C3383 C 0.36961 0.21487 0.63144 0.0
C3384 C 0.38721 0.20881 0.64495 0.0
C3385 C 0.38896 0.18758 0.65262 0.0
C3386 C 0.38762 0.26768 0.60519 0.0
C3387 C 0.3678 0.27846 0.60257 0.0
C3388 C 0.38815 0.24696 0.61422 0.0
C3389 C 0.36888 0.2367 0.62121 0.0
C3390 C 0.34896 0.24733 0.618 0.0
C3391 C 0.34842 0.26793 0.60861 0.0
H3392 H 0.12857 0.47195 0.42345 0.0
H3393 H 0.12341 0.47359 0.35259 0.0
H3394 H 0.11603 0.50931 0.42535 0.0
H3395 H 0.11208 0.51104 0.35424 0.0
H3396 H 0.07466 0.57137 0.36072 0.0
H3397 H 0.08283 0.53298 0.36296 0.0
H3398 H 0.12497 0.5455 0.41882 0.0
H3399 H 0.11577 0.58356 0.41731 0.0
C3400 C 0.12516 0.48046 0.40828 0.0
C3401 C 0.12692 0.46989 0.38788 0.0
C3402 C 0.11794 0.50188 0.40933 0.0
C3403 C 0.11268 0.51324 0.38996 0.0
C3404 C 0.11525 0.50273 0.36957 0.0
C3405 C 0.12205 0.48129 0.36857 0.0
C3406 C 0.08526 0.56581 0.37378 0.0
C3407 C 0.09464 0.58053 0.38874 0.0
C3408 C 0.09021 0.54381 0.37492 0.0
C3409 C 0.10504 0.53608 0.39074 0.0
C3410 C 0.11342 0.5507 0.40647 0.0
C3411 C 0.10814 0.57262 0.40559 0.0
H3412 H 0.59953 0.90838 0.56484 0.0
H3413 H 0.57643 0.92648 0.62947 0.0
H3414 H 0.60812 0.94609 0.55712 0.0
H3415 H 0.58491 0.96424 0.62148 0.0
H3416 H 0.65839 0.00129 0.57944 0.0
H3417 H 0.63929 0.96649 0.57746 0.0
H3418 H 0.57945 0.99751 0.59618 0.0
H3419 H 0.59857 0.03232 0.59808 0.0
C3420 C 0.59563 0.92042 0.57716 0.0
C3421 C 0.58779 0.91435 0.59802 0.0
C3422 C 0.60062 0.94201 0.57269 0.0
C3423 C 0.59753 0.95791 0.58885 0.0
C3424 C 0.58744 0.95223 0.60875 0.0
C3425 C 0.58264 0.93059 0.61333 0.0
C3426 C 0.64106 0.00069 0.5826 0.0
C3427 C 0.62987 0.01942 0.58862 0.0
C3428 C 0.6301 0.98088 0.58133 0.0
C3429 C 0.60787 0.97942 0.58652 0.0
C3430 C 0.59654 0.99828 0.59196 0.0
C3431 C 0.60745 0.01817 0.59287 0.0
H3432 H 0.82533 0.83999 0.40776 0.0
H3433 H 0.82969 0.84373 0.33685 0.0
H3434 H 0.78713 0.84985 0.40572 0.0
H3435 H 0.79137 0.85316 0.33482 0.0
H3436 H 0.73054 0.89553 0.34161 0.0
H3437 H 0.7685 0.88393 0.34343 0.0
H3438 H 0.75169 0.83808 0.39429 0.0
H3439 H 0.71425 0.84995 0.3929 0.0
C3440 C 0.81805 0.84237 0.39169 0.0
C3441 C 0.83068 0.84109 0.3725 0.0
C3442 C 0.7961 0.84811 0.39051 0.0
C3443 C 0.7862 0.85262 0.3701 0.0
C3444 C 0.79857 0.8503 0.35084 0.0
C3445 C 0.82051 0.84459 0.35201 0.0
C3446 C 0.73503 0.88311 0.35327 0.0
C3447 C 0.71934 0.87376 0.36713 0.0
C3448 C 0.75674 0.87629 0.35419 0.0
C3449 C 0.76318 0.85999 0.36898 0.0
C3450 C 0.74744 0.85084 0.38291 0.0
C3451 C 0.72588 0.85763 0.38201 0.0
H3452 H 0.8227 0.99805 0.12575 0.0
H3453 H 0.88386 0.96959 0.10675 0.0
H3454 H 0.84113 0.03288 0.13073 0.0
H3455 H 0.90175 0.00456 0.11056 0.0
H3456 H 0.91122 0.08133 0.09704 0.0
H3457 H 0.89753 0.04432 0.0922 0.0
H3458 H 0.87302 0.04497 0.15868 0.0
H3459 H 0.88682 0.08177 0.16369 0.0
C3460 C 0.83991 0.99926 0.12217 0.0
C3461 C 0.85157 0.98103 0.11525 0.0
C3462 C 0.85044 0.01914 0.12513 0.0
C3463 C 0.87281 0.02123 0.12105 0.0
C3464 C 0.88442 0.0033 0.11358 0.0
C3465 C 0.87399 0.9833 0.11101 0.0
C3466 C 0.90335 0.07339 0.11076 0.0
C3467 C 0.89987 0.08451 0.13064 0.0
C3468 C 0.89554 0.05227 0.10798 0.0
C3469 C 0.8839 0.04213 0.12494 0.0
C3470 C 0.8817 0.05267 0.14528 0.0
C3471 C 0.88982 0.07361 0.14819 0.0
H3472 H 0.27458 0.61856 0.39772 0.0
H3473 H 0.27201 0.61917 0.32672 0.0
H3474 H 0.23657 0.62873 0.39932 0.0
H3475 H 0.23412 0.6306 0.32814 0.0
H3476 H 0.16043 0.62927 0.33931 0.0
H3477 H 0.19855 0.62046 0.33575 0.0
H3478 H 0.21294 0.65742 0.39467 0.0
H3479 H 0.17439 0.66521 0.39889 0.0
C3480 C 0.26582 0.62091 0.38242 0.0
C3481 C 0.27622 0.61799 0.3621 0.0
C3482 C 0.24405 0.62706 0.38331 0.0
C3483 C 0.23217 0.63091 0.36388 0.0
C3484 C 0.24256 0.62761 0.34349 0.0
C3485 C 0.2643 0.62103 0.34262 0.0
C3486 C 0.17174 0.63582 0.35137 0.0
C3487 C 0.16428 0.64787 0.36949 0.0
C3488 C 0.19374 0.63077 0.34927 0.0
C3489 C 0.20899 0.63791 0.36506 0.0
C3490 C 0.20167 0.65105 0.38251 0.0
C3491 C 0.17956 0.65579 0.38481 0.0
H3492 H 0.38317 0.5278 0.92121 0.0
H3493 H 0.35409 0.51444 0.85769 0.0
H3494 H 0.39923 0.4918 0.9213 0.0
H3495 H 0.3697 0.47845 0.85799 0.0
H3496 H 0.41536 0.4231 0.85299 0.0
H3497 H 0.40444 0.46087 0.85467 0.0
H3498 H 0.38998 0.45385 0.92383 0.0
H3499 H 0.40139 0.41634 0.92235 0.0
C3500 C 0.37995 0.5171 0.90741 0.0
C3501 C 0.36735 0.52405 0.88943 0.0
C3502 C 0.3892 0.49646 0.90744 0.0
C3503 C 0.38606 0.4823 0.8895 0.0
C3504 C 0.37296 0.4891 0.87183 0.0
C3505 C 0.36376 0.50968 0.87178 0.0
C3506 C 0.41038 0.42973 0.86869 0.0
C3507 C 0.40907 0.41654 0.88746 0.0
C3508 C 0.40384 0.45135 0.86959 0.0
C3509 C 0.39583 0.4603 0.88927 0.0
C3510 C 0.39604 0.44755 0.9084 0.0
C3511 C 0.4026 0.42596 0.90752 0.0
H3512 H 0.71741 0.14365 0.134 0.0
H3513 H 0.74787 0.09135 0.16912 0.0
H3514 H 0.75249 0.16267 0.13182 0.0
H3515 H 0.78289 0.11046 0.1672 0.0
H3516 H 0.82762 0.1613 0.10675 0.0
H3517 H 0.7893 0.15183 0.11171 0.0
H3518 H 0.79933 0.14764 0.18191 0.0
H3519 H 0.83744 0.15739 0.17723 0.0
C3520 C 0.73158 0.13646 0.14157 0.0
C3521 C 0.73008 0.11625 0.152 0.0
C3522 C 0.75156 0.14726 0.14023 0.0
C3523 C 0.77019 0.13811 0.14958 0.0
C3524 C 0.76861 0.11798 0.1602 0.0
C3525 C 0.74872 0.10701 0.16118 0.0
C3526 C 0.82152 0.15908 0.12331 0.0
C3527 C 0.8357 0.15964 0.14153 0.0
C3528 C 0.7996 0.15366 0.12612 0.0
C3529 C 0.79165 0.1486 0.14714 0.0
C3530 C 0.80527 0.15116 0.16552 0.0
C3531 C 0.82706 0.15683 0.16278 0.0
H3532 H 0.65858 0.87363 0.65855 0.0
H3533 H 0.67544 0.83973 0.59869 0.0
H3534 H 0.69637 0.8841 0.66375 0.0
H3535 H 0.71343 0.85067 0.60382 0.0
H3536 H 0.78282 0.86238 0.63023 0.0
H3537 H 0.7461 0.84701 0.6289 0.0
H3538 H 0.71961 0.91011 0.64254 0.0
H3539 H 0.75637 0.92537 0.64426 0.0
C3540 C 0.67038 0.86797 0.64674 0.0
C3541 C 0.66394 0.8558 0.62818 0.0
C3542 C 0.69202 0.87421 0.64962 0.0
C3543 C 0.70773 0.86842 0.63406 0.0
C3544 C 0.70161 0.85529 0.61612 0.0
C3545 C 0.67987 0.84908 0.61316 0.0
C3546 C 0.76917 0.87284 0.63345 0.0
C3547 C 0.77237 0.89496 0.63786 0.0
C3548 C 0.74818 0.8641 0.6324 0.0
C3549 C 0.73007 0.87733 0.63581 0.0
C3550 C 0.73332 0.89946 0.64023 0.0
C3551 C 0.75429 0.90822 0.64108 0.0
H3552 H 0.98626 0.19014 0.14932 0.0
H3553 H 0.94138 0.22841 0.11142 0.0
H3554 H 0.0139 0.21884 0.14598 0.0
H3555 H 0.96889 0.25687 0.10777 0.0
H3556 H 0.01498 0.31225 0.12764 0.0
H3557 H 0.98788 0.28341 0.13196 0.0
H3558 H 0.03649 0.23591 0.11588 0.0
H3559 H 0.06366 0.26493 0.11183 0.0
C3560 C 0.98235 0.20475 0.14038 0.0
C3561 C 0.96183 0.20718 0.1306 0.0
C3562 C 0.99815 0.22103 0.13829 0.0
C3563 C 0.99353 0.24005 0.12658 0.0
C3564 C 0.97285 0.24248 0.11704 0.0
C3565 C 0.95718 0.22617 0.11899 0.0
C3566 C 0.01979 0.29561 0.12507 0.0
C3567 C 0.04127 0.29066 0.11947 0.0
C3568 C 0.00432 0.27915 0.12743 0.0
C3569 C 0.0101 0.25742 0.12429 0.0
C3570 C 0.03166 0.2525 0.11863 0.0
C3571 C 0.04711 0.26903 0.11612 0.0
H3572 H 0.02524 0.69772 0.40761 0.0
H3573 H 0.05107 0.71958 0.34555 0.0
H3574 H 0.99791 0.72597 0.40631 0.0
H3575 H 0.02279 0.74687 0.3433 0.0
H3576 H 0.9815 0.80715 0.35484 0.0
H3577 H 0.00999 0.77982 0.35645 0.0
H3578 H 0.96555 0.7363 0.38962 0.0
H3579 H 0.93762 0.76407 0.3887 0.0
C3580 C 0.02509 0.70858 0.39366 0.0
C3581 C 0.04035 0.70629 0.37667 0.0
C3582 C 0.00913 0.72464 0.3927 0.0
C3583 C 0.00779 0.7388 0.37457 0.0
C3584 C 0.02326 0.73656 0.35766 0.0
C3585 C 0.03936 0.72064 0.35877 0.0
C3586 C 0.97791 0.79167 0.36237 0.0
C3587 C 0.95742 0.78775 0.37174 0.0
C3588 C 0.9942 0.7759 0.36325 0.0
C3589 C 0.99032 0.75567 0.3733 0.0
C3590 C 0.96952 0.75173 0.38222 0.0
C3591 C 0.95337 0.76759 0.38154 0.0
H3592 H 0.51913 0.80829 0.63273 0.0
H3593 H 0.56798 0.76305 0.61189 0.0
H3594 H 0.49285 0.77867 0.63655 0.0
H3595 H 0.54159 0.73327 0.61535 0.0
H3596 H 0.49359 0.68411 0.64677 0.0
H3597 H 0.52052 0.71361 0.64471 0.0
H3598 H 0.47323 0.75351 0.61169 0.0
H3599 H 0.44646 0.72423 0.61409 0.0
C3600 C 0.52417 0.79194 0.62897 0.0
C3601 C 0.54547 0.78783 0.62205 0.0
C3602 C 0.50915 0.77503 0.63104 0.0
C3603 C 0.51517 0.75366 0.62626 0.0
C3604 C 0.53656 0.74955 0.61937 0.0
C3605 C 0.55157 0.76654 0.61718 0.0
C3606 C 0.48905 0.69929 0.63925 0.0
C3607 C 0.46811 0.702 0.63049 0.0
C3608 C 0.50443 0.71606 0.63789 0.0
C3609 C 0.49898 0.73584 0.62798 0.0
C3610 C 0.47786 0.73854 0.61958 0.0
C3611 C 0.4626 0.72178 0.62081 0.0
H3612 H 0.48737 0.30893 0.87328 0.0
H3613 H 0.43942 0.26526 0.90014 0.0
H3614 H 0.51445 0.28004 0.87399 0.0
H3615 H 0.4664 0.23621 0.90074 0.0
H3616 H 0.51445 0.18501 0.87231 0.0
H3617 H 0.48738 0.21391 0.87301 0.0
H3618 H 0.53509 0.25735 0.90159 0.0
H3619 H 0.56205 0.22831 0.90099 0.0
C3620 C 0.48267 0.29312 0.87937 0.0
C3621 C 0.46132 0.28931 0.88665 0.0
C3622 C 0.49818 0.27661 0.87989 0.0
C3623 C 0.49262 0.25576 0.8874 0.0
C3624 C 0.4712 0.252 0.89469 0.0
C3625 C 0.45579 0.26864 0.89449 0.0
C3626 C 0.51908 0.20074 0.87877 0.0
C3627 C 0.54033 0.20442 0.88661 0.0
C3628 C 0.50357 0.21726 0.87929 0.0
C3629 C 0.50903 0.23799 0.88736 0.0
C3630 C 0.53036 0.24165 0.89514 0.0
C3631 C 0.54577 0.22501 0.89492 0.0
H3632 H 0.11053 0.92937 0.23639 0.0
H3633 H 0.14946 0.97132 0.19551 0.0
H3634 H 0.10788 0.95806 0.26414 0.0
H3635 H 0.14679 1.00015 0.22319 0.0
H3636 H 0.11268 0.05241 0.26628 0.0
H3637 H 0.11618 0.02352 0.23877 0.0
H3638 H 0.13331 0.97867 0.29026 0.0
H3639 H 0.12991 0.00767 0.31765 0.0
C3640 C 0.11858 0.94474 0.23345 0.0
C3641 C 0.13025 0.94821 0.21395 0.0
C3642 C 0.11715 0.96109 0.24931 0.0
C3643 C 0.1271 0.98134 0.2458 0.0
C3644 C 0.13883 0.98476 0.22625 0.0
C3645 C 0.14051 0.96827 0.21053 0.0
C3646 C 0.11713 0.03634 0.27161 0.0
C3647 C 0.12103 0.03213 0.29395 0.0
C3648 C 0.11928 0.01988 0.25593 0.0
C3649 C 0.12506 0.99887 0.26239 0.0
C3650 C 0.12872 0.99468 0.28484 0.0
C3651 C 0.12686 0.01121 0.30046 0.0
H3652 H 0.26065 0.88374 0.43715 0.0
H3653 H 0.30526 0.85935 0.48583 0.0
H3654 H 0.23233 0.88669 0.46521 0.0
H3655 H 0.27695 0.86228 0.51409 0.0
H3656 H 0.22792 0.89553 0.56151 0.0
H3657 H 0.25631 0.89209 0.53342 0.0
H3658 H 0.20959 0.86263 0.48908 0.0
H3659 H 0.18136 0.86614 0.51716 0.0
C3660 C 0.26429 0.87888 0.45388 0.0
C3661 C 0.28506 0.8713 0.45939 0.0
C3662 C 0.2481 0.88051 0.46993 0.0
C3663 C 0.2524 0.87479 0.49191 0.0
C3664 C 0.27319 0.86702 0.49735 0.0
C3665 C 0.28932 0.86515 0.4812 0.0
C3666 C 0.22378 0.88846 0.54569 0.0
C3667 C 0.20251 0.88109 0.54145 0.0
C3668 C 0.24003 0.88631 0.5297 0.0
C3669 C 0.23523 0.87701 0.50903 0.0
C3670 C 0.2138 0.86997 0.50475 0.0
C3671 C 0.19767 0.8719 0.52082 0.0
H3672 H 0.37271 0.02435 0.68728 0.0
H3673 H 0.40502 0.06747 0.733 0.0
H3674 H 0.37474 0.99505 0.71418 0.0
H3675 H 0.40721 0.03813 0.76002 0.0
H3676 H 0.37961 0.98725 0.80975 0.0
H3677 H 0.38061 0.0167 0.78285 0.0
H3678 H 0.40251 0.97197 0.73305 0.0
H3679 H 0.40139 0.94257 0.76005 0.0
C3680 C 0.3803 0.02748 0.70311 0.0
C3681 C 0.38865 0.0481 0.70817 0.0
C3682 C 0.38162 0.0107 0.71843 0.0
C3683 C 0.39114 0.01428 0.73923 0.0
C3684 C 0.39964 0.03493 0.7442 0.0
C3685 C 0.39852 0.05166 0.72875 0.0
C3686 C 0.38473 0.98383 0.79306 0.0
C3687 C 0.39039 0.96274 0.78687 0.0
C3688 C 0.38544 0.00066 0.77772 0.0
C3689 C 0.39161 0.99664 0.75582 0.0
C3690 C 0.39752 0.97552 0.74975 0.0
C3691 C 0.39703 0.95875 0.76517 0.0
H3692 H 0.19064 0.13132 0.98469 0.0
H3693 H 0.23549 0.15114 0.93415 0.0
H3694 H 0.21998 0.13241 0.01192 0.0
H3695 H 0.26524 0.15149 0.96104 0.0
H3696 H 0.31107 0.16643 0.01863 0.0
H3697 H 0.281 0.16875 0.99228 0.0
H3698 H 0.25085 0.11268 0.02216 0.0
H3699 H 0.28005 0.11139 0.04915 0.0
C3700 C 0.20688 0.13586 0.97949 0.0
C3701 C 0.21095 0.14101 0.95743 0.0
C3702 C 0.22375 0.13635 0.99499 0.0
C3703 C 0.24515 0.1418 0.98871 0.0
C3704 C 0.24901 0.14744 0.9666 0.0
C3705 C 0.23204 0.14715 0.95114 0.0
C3706 C 0.29785 0.15479 0.01964 0.0
C3707 C 0.29797 0.13868 0.03589 0.0
C3708 C 0.28072 0.15594 0.0044 0.0
C3709 C 0.26337 0.14092 0.00502 0.0
C3710 C 0.26366 0.12477 0.02131 0.0
C3711 C 0.28064 0.12377 0.0366 0.0
H3712 H 0.72948 0.36697 0.06467 0.0
H3713 H 0.68775 0.40007 0.01901 0.0
H3714 H 0.75821 0.36576 0.03705 0.0
H3715 H 0.71567 0.39771 0.99067 0.0
H3716 H 0.77523 0.40709 0.94874 0.0
H3717 H 0.7482 0.41005 0.97753 0.0
H3718 H 0.77036 0.34973 0.00532 0.0
H3719 H 0.79887 0.34814 0.9777 0.0
C3720 C 0.72652 0.37391 0.04859 0.0
C3721 C 0.70656 0.38371 0.04391 0.0
C3722 C 0.74286 0.37302 0.0326 0.0
C3723 C 0.73947 0.38152 0.01133 0.0
C3724 C 0.71929 0.39135 0.00684 0.0
C3725 C 0.70314 0.39262 0.02301 0.0
C3726 C 0.77464 0.39469 0.96126 0.0
C3727 C 0.78937 0.37744 0.9609 0.0
C3728 C 0.75876 0.39614 0.97765 0.0
C3729 C 0.75676 0.3801 0.99397 0.0
C3730 C 0.77142 0.36267 0.9934 0.0
C3731 C 0.78761 0.36149 0.97724 0.0
H3732 H 0.87343 0.52212 0.18206 0.0
H3733 H 0.90093 0.56499 0.23107 0.0
H3734 H 0.87362 0.4924 0.20865 0.0
H3735 H 0.90111 0.53529 0.25781 0.0
H3736 H 0.87056 0.48311 0.30425 0.0
H3737 H 0.87258 0.51286 0.27771 0.0
H3738 H 0.90067 0.46967 0.22981 0.0
H3739 H 0.89866 0.43999 0.2565 0.0
C3740 C 0.87956 0.5251 0.19855 0.0
C3741 C 0.88713 0.54577 0.20461 0.0
C3742 C 0.8798 0.5081 0.21371 0.0
C3743 C 0.88736 0.5115 0.23533 0.0
C3744 C 0.89504 0.53222 0.24133 0.0
C3745 C 0.89506 0.54915 0.22605 0.0
C3746 C 0.8772 0.48008 0.28805 0.0
C3747 C 0.88443 0.45936 0.28232 0.0
C3748 C 0.87849 0.49708 0.27292 0.0
C3749 C 0.88678 0.49361 0.25167 0.0
C3750 C 0.89406 0.47281 0.246 0.0
C3751 C 0.89303 0.45588 0.26125 0.0
H3752 H 0.69611 0.65116 0.48329 0.0
H3753 H 0.73745 0.62585 0.43242 0.0
H3754 H 0.72697 0.6523 0.50878 0.0
H3755 H 0.76869 0.62792 0.45731 0.0
H3756 H 0.8137 0.61018 0.51421 0.0
H3757 H 0.78353 0.61064 0.48807 0.0
H3758 H 0.75995 0.66943 0.5181 0.0
H3759 H 0.78932 0.66795 0.54509 0.0
C3760 C 0.71196 0.64619 0.47755 0.0
C3761 C 0.71455 0.63839 0.45606 0.0
C3762 C 0.7297 0.64694 0.49205 0.0
C3763 C 0.75044 0.64014 0.4852 0.0
C3764 C 0.75296 0.63286 0.46337 0.0
C3765 C 0.73516 0.63183 0.44903 0.0
C3766 C 0.80196 0.62311 0.51522 0.0
C3767 C 0.8038 0.63898 0.53168 0.0
C3768 C 0.78479 0.62356 0.50008 0.0
C3769 C 0.76918 0.64009 0.50088 0.0
C3770 C 0.77139 0.65625 0.51713 0.0
C3771 C 0.78843 0.65562 0.53241 0.0
H3772 H 0.61326 0.55621 0.76167 0.0
H3773 H 0.6292 0.5105 0.81259 0.0
H3774 H 0.61597 0.52742 0.73387 0.0
H3775 H 0.63178 0.48169 0.78499 0.0
H3776 H 0.60929 0.43308 0.73086 0.0
H3777 H 0.60634 0.46181 0.75849 0.0
H3778 H 0.64653 0.50349 0.71839 0.0
H3779 H 0.64952 0.47458 0.69078 0.0
C3780 C 0.61717 0.53995 0.76686 0.0
C3781 C 0.62107 0.53546 0.78914 0.0
C3782 C 0.61889 0.52355 0.75101 0.0
C3783 C 0.62418 0.50234 0.75728 0.0
C3784 C 0.62759 0.49784 0.77969 0.0
C3785 C 0.62617 0.51428 0.79545 0.0
C3786 C 0.61756 0.44837 0.72807 0.0
C3787 C 0.62969 0.45168 0.70882 0.0
C3788 C 0.61593 0.46476 0.74386 0.0
C3789 C 0.62615 0.4849 0.74055 0.0
C3790 C 0.63833 0.48818 0.72127 0.0
C3791 C 0.64022 0.47164 0.70561 0.0
H3792 H 0.97868 0.6959 0.85855 0.0
H3793 H 0.94283 0.7382 0.90146 0.0
H3794 H 0.00793 0.72278 0.8561 0.0
H3795 H 0.97221 0.76531 0.89911 0.0
H3796 H 0.01755 0.81627 0.86516 0.0
H3797 H 0.98825 0.78934 0.869 0.0
H3798 H 0.03602 0.73986 0.88094 0.0
H3799 H 0.06515 0.76681 0.87703 0.0
C3800 C 0.97719 0.71097 0.86754 0.0
C3801 C 0.95862 0.71513 0.88016 0.0
C3802 C 0.99392 0.72628 0.86623 0.0
C3803 C 0.9923 0.74614 0.87737 0.0
C3804 C 0.97376 0.7502 0.8902 0.0
C3805 C 0.95709 0.73471 0.8917 0.0
C3806 C 0.02166 0.79959 0.86848 0.0
C3807 C 0.04345 0.79346 0.87076 0.0
C3808 C 0.00497 0.78427 0.87089 0.0
C3809 C 0.00989 0.76255 0.87534 0.0
C3810 C 0.03177 0.75646 0.87738 0.0
C3811 C 0.0484 0.77181 0.8752 0.0
H3812 H 0.93902 0.27074 0.6165 0.0
H3813 H 0.98021 0.31062 0.65773 0.0
H3814 H 0.96563 0.24149 0.61843 0.0
H3815 H 0.00709 0.28149 0.65942 0.0
H3816 H 0.05901 0.23311 0.63071 0.0
H3817 H 0.03219 0.26228 0.6312 0.0
H3818 H 0.98198 0.21614 0.64823 0.0
H3819 H 0.00901 0.18707 0.64815 0.0
C3820 C 0.9538 0.27322 0.62596 0.0
C3821 C 0.95756 0.29291 0.63699 0.0
C3822 C 0.96897 0.25645 0.62718 0.0
C3823 C 0.98847 0.25915 0.6391 0.0
C3824 C 0.99227 0.27893 0.65004 0.0
C3825 C 0.97687 0.29556 0.64917 0.0
C3826 C 0.04226 0.2293 0.63471 0.0
C3827 C 0.03603 0.20789 0.63939 0.0
C3828 C 0.02693 0.24597 0.63507 0.0
C3829 C 0.00494 0.24153 0.63971 0.0
C3830 C 0.99876 0.22006 0.64446 0.0
C3831 C 0.0142 0.20346 0.64452 0.0
H3832 H 0.47926 0.19178 0.36102 0.0
H3833 H 0.43668 0.23636 0.394 0.0
H3834 H 0.50683 0.22024 0.35758 0.0
H3835 H 0.46413 0.26503 0.39046 0.0
H3836 H 0.52816 0.3028 0.40158 0.0
H3837 H 0.49982 0.27506 0.40457 0.0
H3838 H 0.51364 0.25391 0.33822 0.0
H3839 H 0.54255 0.28115 0.33568 0.0
C3840 C 0.47581 0.20776 0.36739 0.0
C3841 C 0.45593 0.21197 0.37774 0.0
C3842 C 0.49152 0.22407 0.36536 0.0
C3843 C 0.48766 0.24494 0.37367 0.0
C3844 C 0.46772 0.24908 0.38411 0.0
C3845 C 0.45201 0.23272 0.38613 0.0
C3846 C 0.52515 0.29212 0.38771 0.0
C3847 C 0.53758 0.29397 0.36846 0.0
C3848 C 0.50879 0.2764 0.38931 0.0
C3849 C 0.5045 0.26221 0.37166 0.0
C3850 C 0.51672 0.26438 0.35223 0.0
C3851 C 0.5331 0.28012 0.35066 0.0
H3852 H 0.5577 0.72989 0.12166 0.0
H3853 H 0.51511 0.6874 0.15798 0.0
H3854 H 0.53008 0.75825 0.12262 0.0
H3855 H 0.48716 0.71563 0.15854 0.0
H3856 H 0.48271 0.80989 0.15131 0.0
H3857 H 0.51054 0.78165 0.15282 0.0
H3858 H 0.46398 0.7351 0.12761 0.0
H3859 H 0.43635 0.76351 0.12566 0.0
C3860 C 0.54242 0.7267 0.12991 0.0
C3861 C 0.5385 0.70655 0.1398 0.0
C3862 C 0.52666 0.74292 0.13052 0.0
C3863 C 0.50645 0.73916 0.14064 0.0
C3864 C 0.50255 0.71895 0.15055 0.0
C3865 C 0.51853 0.70287 0.15034 0.0
C3866 C 0.47848 0.79359 0.14618 0.0
C3867 C 0.45746 0.7888 0.13839 0.0
C3868 C 0.49437 0.77748 0.14696 0.0
C3869 C 0.48941 0.75615 0.14038 0.0
C3870 C 0.46822 0.75133 0.13296 0.0
C3871 C 0.45247 0.76756 0.13175 0.0
H3872 H 0.88215 0.06954 0.75877 0.0
H3873 H 0.8531 0.02825 0.80783 0.0
H3874 H 0.88541 0.0386 0.73382 0.0
H3875 H 0.856 0.99725 0.78282 0.0
H3876 H 0.888 0.94345 0.74114 0.0
H3877 H 0.88473 0.97443 0.76622 0.0
H3878 H 0.86224 0.01375 0.71218 0.0
H3879 H 0.86587 0.9829 0.68724 0.0
C3880 C 0.87636 0.05381 0.76411 0.0
C3881 C 0.86738 0.05122 0.78515 0.0
C3882 C 0.87811 0.03613 0.74983 0.0
C3883 C 0.87101 0.01542 0.75634 0.0
C3884 C 0.86185 0.01292 0.77739 0.0
C3885 C 0.85997 0.03066 0.79162 0.0
C3886 C 0.88248 0.95879 0.73472 0.0
C3887 C 0.87715 0.96086 0.71234 0.0
C3888 C 0.88042 0.97645 0.74905 0.0
C3889 C 0.87316 0.99656 0.74121 0.0
C3890 C 0.86804 0.99857 0.71872 0.0
C3891 C 0.86997 0.9809 0.70448 0.0
H3892 H 0.80826 0.14204 0.47539 0.0
H3893 H 0.77325 0.09 0.44329 0.0
H3894 H 0.77892 0.14597 0.5017 0.0
H3895 H 0.74459 0.09253 0.47079 0.0
H3896 H 0.6859 0.1159 0.50936 0.0
H3897 H 0.71509 0.11265 0.48235 0.0
H3898 H 0.76183 0.13208 0.53223 0.0
H3899 H 0.73227 0.13648 0.55856 0.0
C3900 C 0.79432 0.13129 0.47406 0.0
C3901 C 0.79308 0.11581 0.45711 0.0
C3902 C 0.77754 0.13331 0.48941 0.0
C3903 C 0.75915 0.1196 0.48858 0.0
C3904 C 0.7582 0.10371 0.47187 0.0
C3905 C 0.77487 0.10195 0.45627 0.0
C3906 C 0.70245 0.11968 0.5143 0.0
C3907 C 0.70694 0.12664 0.53584 0.0
C3908 C 0.71927 0.11758 0.49895 0.0
C3909 C 0.74106 0.12201 0.50493 0.0
C3910 C 0.74536 0.12892 0.5267 0.0
C3911 C 0.72847 0.13136 0.5419 0.0
H3912 H 0.60355 0.05721 0.23927 0.0
H3913 H 0.63606 0.01803 0.19091 0.0
H3914 H 0.60727 0.02803 0.26644 0.0
H3915 H 0.63955 0.98879 0.2178 0.0
H3916 H 0.61707 0.9341 0.26572 0.0
H3917 H 0.61383 0.96332 0.23876 0.0
H3918 H 0.63917 0.00876 0.28666 0.0
H3919 H 0.64269 0.9793 0.31355 0.0
C3920 C 0.61128 0.04226 0.23444 0.0
C3921 C 0.61944 0.03976 0.21304 0.0
C3922 C 0.61359 0.02566 0.24999 0.0
C3923 C 0.62376 0.00613 0.24426 0.0
C3924 C 0.63154 0.00358 0.22268 0.0
C3925 C 0.62958 0.02029 0.20731 0.0
C3926 C 0.6221 0.95033 0.27037 0.0
C3927 C 0.63016 0.95451 0.29163 0.0
C3928 C 0.62027 0.96702 0.25497 0.0
C3929 C 0.62614 0.98837 0.26062 0.0
C3930 C 0.63433 0.99252 0.28191 0.0
C3931 C 0.63652 0.97569 0.29721 0.0
H3932 H 0.726 0.89216 0.94521 0.0
H3933 H 0.6797 0.86263 0.98927 0.0
H3934 H 0.75433 0.88947 0.97363 0.0
H3935 H 0.70789 0.85981 0.01765 0.0
H3936 H 0.75886 0.8814 0.06974 0.0
H3937 H 0.73044 0.88418 0.04158 0.0
H3938 H 0.77498 0.85973 0.99282 0.0
H3939 H 0.80341 0.85707 0.02114 0.0
C3940 C 0.72191 0.88527 0.96106 0.0
C3941 C 0.70078 0.87762 0.96516 0.0
C3942 C 0.73811 0.88353 0.97722 0.0
C3943 C 0.73335 0.87433 0.99783 0.0
C3944 C 0.71202 0.86709 0.00199 0.0
C3945 C 0.69593 0.86863 0.98578 0.0
C3946 C 0.76245 0.87652 0.053 0.0
C3947 C 0.78321 0.86903 0.0475 0.0
C3948 C 0.74623 0.87805 0.03693 0.0
C3949 C 0.75051 0.87227 0.01497 0.0
C3950 C 0.77128 0.86453 0.00955 0.0
C3951 C 0.78746 0.86281 0.02572 0.0
H3952 H 0.30886 0.64959 0.96959 0.0
H3953 H 0.28052 0.59046 0.94433 0.0
H3954 H 0.27884 0.6533 0.99517 0.0
H3955 H 0.25124 0.5931 0.97117 0.0
H3956 H 0.18984 0.61357 0.00671 0.0
H3957 H 0.2194 0.61118 0.98006 0.0
H3958 H 0.26314 0.64104 0.02736 0.0
H3959 H 0.23312 0.64429 0.05336 0.0
C3960 C 0.29622 0.63729 0.96957 0.0
C3961 C 0.29704 0.61983 0.95474 0.0
C3962 C 0.27908 0.63923 0.98455 0.0
C3963 C 0.26236 0.62354 0.98543 0.0
C3964 C 0.26348 0.60578 0.97084 0.0
C3965 C 0.28052 0.60402 0.95564 0.0
C3966 C 0.20578 0.61981 0.01119 0.0
C3967 C 0.20925 0.62919 0.03198 0.0
C3968 C 0.22284 0.61824 0.99604 0.0
C3969 C 0.24392 0.62575 0.00143 0.0
C3970 C 0.24719 0.63536 0.0223 0.0
C3971 C 0.23001 0.6372 0.03731 0.0
H3972 H 0.11117 0.51534 0.69027 0.0
H3973 H 0.13986 0.56316 0.73345 0.0
H3974 H 0.11476 0.48793 0.71919 0.0
H3975 H 0.14358 0.53589 0.7624 0.0
H3976 H 0.12421 0.48549 0.8157 0.0
H3977 H 0.12088 0.51331 0.78723 0.0
H3978 H 0.14435 0.4681 0.73866 0.0
H3979 H 0.14754 0.44034 0.76726 0.0
C3980 C 0.11815 0.51995 0.70603 0.0
C3981 C 0.12533 0.54126 0.70967 0.0
C3982 C 0.12038 0.50427 0.72251 0.0
C3983 C 0.12959 0.50966 0.7431 0.0
C3984 C 0.13631 0.53119 0.74682 0.0
C3985 C 0.13427 0.54678 0.73025 0.0
C3986 C 0.12875 0.48162 0.79893 0.0
C3987 C 0.13605 0.46082 0.79359 0.0
C3988 C 0.12692 0.49753 0.78265 0.0
C3989 C 0.1322 0.49292 0.7606 0.0
C3990 C 0.13986 0.47212 0.75539 0.0
C3991 C 0.14189 0.45629 0.77175 0.0
H3992 H 0.30361 0.36126 0.51421 0.0
H3993 H 0.25739 0.37566 0.56528 0.0
H3994 H 0.27476 0.36437 0.48636 0.0
H3995 H 0.22846 0.37864 0.53759 0.0
H3996 H 0.18036 0.35636 0.48229 0.0
H3997 H 0.20894 0.35344 0.5103 0.0
H3998 H 0.25062 0.39496 0.47158 0.0
H3999 H 0.22189 0.39791 0.44361 0.0
C4000 C 0.28721 0.36494 0.5194 0.0
C4001 C 0.28257 0.36822 0.54174 0.0
C4002 C 0.2708 0.36688 0.50354 0.0
C4003 C 0.24942 0.37182 0.50984 0.0
C4004 C 0.24477 0.37471 0.53229 0.0
C4005 C 0.26125 0.37306 0.54809 0.0
C4006 C 0.19562 0.36492 0.4799 0.0
C4007 C 0.19901 0.37741 0.46095 0.0
C4008 C 0.2119 0.36332 0.4959 0.0
C4009 C 0.23199 0.37393 0.49306 0.0
C4010 C 0.23534 0.38648 0.47408 0.0
C4011 C 0.21891 0.38833 0.45822 0.0
H4012 H 0.38634 0.56823 0.25902 0.0
H4013 H 0.35294 0.52591 0.30421 0.0
H4014 H 0.3904 0.53818 0.23302 0.0
H4015 H 0.35706 0.4957 0.27828 0.0
H4016 H 0.39192 0.44325 0.23618 0.0
H4017 H 0.38839 0.4735 0.26224 0.0
H4018 H 0.36591 0.51431 0.20941 0.0
H4019 H 0.36929 0.48405 0.18358 0.0
C4020 C 0.37976 0.55248 0.26328 0.0
C4021 C 0.36923 0.54935 0.2835 0.0
C4022 C 0.38205 0.53531 0.24842 0.0
C4023 C 0.37413 0.51455 0.25363 0.0
C4024 C 0.36351 0.51146 0.27389 0.0
C4025 C 0.36095 0.52875 0.28862 0.0
C4026 C 0.38643 0.45878 0.23022 0.0
C4027 C 0.38093 0.46143 0.20795 0.0
C4028 C 0.38422 0.476 0.2451 0.0
C4029 C 0.37679 0.49627 0.23788 0.0
C4030 C 0.37179 0.49896 0.21545 0.0
C4031 C 0.37369 0.48167 0.20069 0.0
loop_
_geom_bond_atom_site_label_1
_geom_bond_atom_site_label_2
_geom_bond_distance
_geom_bond_site_symmetry_2
_ccdc_geom_bond_type
Co0 O3 1.970 . S
Co0 N17 1.989 . S
Co0 O25 1.967 . S
Co0 O32 1.920 . S
Co1 O4 1.966 . S
Co1 N10 2.022 . S
Co1 N18 1.993 . S
Co1 O26 1.941 . S
C2 O3 1.258 . S
C2 O4 1.263 . S
O3 Co0 1.970 . S
O3 C2 1.258 . S
O4 Co1 1.966 . S
O4 C2 1.263 . S
C5 O6 1.235 . S
C5 O32 1.289 . S
O6 C5 1.235 . S
C7 C9 1.400 . S
C7 N10 1.351 . S
C7 C12 1.501 . S
C8 C9 1.387 . S
C8 N11 1.341 . S
C9 C7 1.400 . S
C9 C8 1.387 . S
N10 Co1 2.022 . S
N10 C7 1.351 . S
N10 N11 1.365 . S
N11 C8 1.341 . S
N11 N10 1.365 . S
N11 H31 0.862 . S
C12 C7 1.501 . S
C12 H13 0.961 . S
C12 H14 0.961 . S
C12 H15 0.960 . S
H13 C12 0.961 . S
H14 C12 0.961 . S
H15 C12 0.960 . S
C16 N17 1.342 . S
C16 C20 1.401 . S
C16 C21 1.499 . S
N17 Co0 1.989 . S
N17 C16 1.342 . S
N17 N18 1.388 . S
N18 Co1 1.993 . S
N18 N17 1.388 . S
N18 C19 1.346 . S
C19 N18 1.346 . S
C19 C20 1.396 . S
C19 C29 1.510 . S
C20 C16 1.401 . S
C20 C19 1.396 . S
C21 C16 1.499 . S
C21 H22 0.959 . S
C21 H23 0.960 . S
C21 H24 0.961 . S
H22 C21 0.959 . S
H23 C21 0.960 . S
H24 C21 0.961 . S
O25 Co0 1.967 . S
O25 C33 1.258 . S
O26 Co1 1.941 . S
O26 C33 1.266 . S
H27 C29 0.959 . S
H28 C29 0.961 . S
C29 C19 1.510 . S
C29 H27 0.959 . S
C29 H28 0.961 . S
C29 H30 0.960 . S
H30 C29 0.960 . S
H31 N11 0.862 . S
O32 Co0 1.920 . S
O32 C5 1.289 . S
C33 O25 1.258 . S
C33 O26 1.266 . S
Co34 O37 1.970 . S
Co34 N51 1.989 . S
Co34 O59 1.967 . S
Co34 O66 1.920 . S
Co35 O38 1.966 . S
Co35 N44 2.022 . S
Co35 N52 1.993 . S
Co35 O60 1.941 . S
C36 O37 1.258 . S
C36 O38 1.263 . S
O37 Co34 1.970 . S
O37 C36 1.258 . S
O38 Co35 1.966 . S
O38 C36 1.263 . S
C39 O40 1.235 . S
C39 O66 1.289 . S
O40 C39 1.235 . S
C41 C43 1.400 . S
C41 N44 1.351 . S
C41 C46 1.501 . S
C42 C43 1.387 . S
C42 N45 1.341 . S
C43 C41 1.400 . S
C43 C42 1.387 . S
N44 Co35 2.022 . S
N44 C41 1.351 . S
N44 N45 1.365 . S
N45 C42 1.341 . S
N45 N44 1.365 . S
N45 H65 0.862 . S
C46 C41 1.501 . S
C46 H47 0.961 . S
C46 H48 0.961 . S
C46 H49 0.960 . S
H47 C46 0.961 . S
H48 C46 0.961 . S
H49 C46 0.960 . S
C50 N51 1.342 . S
C50 C54 1.401 . S
C50 C55 1.499 . S
N51 Co34 1.989 . S
N51 C50 1.342 . S
N51 N52 1.388 . S
N52 Co35 1.993 . S
N52 N51 1.388 . S
N52 C53 1.346 . S
C53 N52 1.346 . S
C53 C54 1.396 . S
C53 C63 1.510 . S
C54 C50 1.401 . S
C54 C53 1.396 . S
C55 C50 1.499 . S
C55 H56 0.959 . S
C55 H57 0.960 . S
C55 H58 0.961 . S
H56 C55 0.959 . S
H57 C55 0.960 . S
H58 C55 0.961 . S
O59 Co34 1.967 . S
O59 C67 1.258 . S
O60 Co35 1.941 . S
O60 C67 1.266 . S
H61 C63 0.959 . S
H62 C63 0.961 . S
C63 C53 1.510 . S
C63 H61 0.959 . S
C63 H62 0.961 . S
C63 H64 0.960 . S
H64 C63 0.960 . S
H65 N45 0.862 . S
O66 Co34 1.920 . S
O66 C39 1.289 . S
C67 O59 1.258 . S
C67 O60 1.266 . S
Co68 O71 1.970 . S
Co68 N85 1.989 . S
Co68 O93 1.967 . S
Co68 O100 1.920 . S
Co69 O72 1.966 . S
Co69 N78 2.022 . S
Co69 N86 1.993 . S
Co69 O94 1.941 . S
C70 O71 1.258 . S
C70 O72 1.263 . S
O71 Co68 1.970 . S
O71 C70 1.258 . S
O72 Co69 1.966 . S
O72 C70 1.263 . S
C73 O74 1.235 . S
C73 O100 1.289 . S
O74 C73 1.235 . S
C75 C77 1.400 . S
C75 N78 1.351 . S
C75 C80 1.501 . S
C76 C77 1.387 . S
C76 N79 1.341 . S
C77 C75 1.400 . S
C77 C76 1.387 . S
N78 Co69 2.022 . S
N78 C75 1.351 . S
N78 N79 1.365 . S
N79 C76 1.341 . S
N79 N78 1.365 . S
N79 H99 0.862 . S
C80 C75 1.501 . S
C80 H81 0.961 . S
C80 H82 0.961 . S
C80 H83 0.960 . S
H81 C80 0.961 . S
H82 C80 0.961 . S
H83 C80 0.960 . S
C84 N85 1.342 . S
C84 C88 1.401 . S
C84 C89 1.499 . S
N85 Co68 1.989 . S
N85 C84 1.342 . S
N85 N86 1.388 . S
N86 Co69 1.993 . S
N86 N85 1.388 . S
N86 C87 1.346 . S
C87 N86 1.346 . S
C87 C88 1.396 . S
C87 C97 1.510 . S
C88 C84 1.401 . S
C88 C87 1.396 . S
C89 C84 1.499 . S
C89 H90 0.959 . S
C89 H91 0.960 . S
C89 H92 0.961 . S
H90 C89 0.959 . S
H91 C89 0.960 . S
H92 C89 0.961 . S
O93 Co68 1.967 . S
O93 C101 1.258 . S
O94 Co69 1.941 . S
O94 C101 1.266 . S
H95 C97 0.959 . S
H96 C97 0.961 . S
C97 C87 1.510 . S
C97 H95 0.959 . S
C97 H96 0.961 . S
C97 H98 0.960 . S
H98 C97 0.960 . S
H99 N79 0.862 . S
O100 Co68 1.920 . S
O100 C73 1.289 . S
C101 O93 1.258 . S
C101 O94 1.266 . S
Co102 O105 1.970 . S
Co102 N119 1.989 . S
Co102 O127 1.967 . S
Co102 O134 1.920 . S
Co103 O106 1.966 . S
Co103 N112 2.022 . S
Co103 N120 1.993 . S
Co103 O128 1.941 . S
C104 O105 1.258 . S
C104 O106 1.263 . S
O105 Co102 1.970 . S
O105 C104 1.258 . S
O106 Co103 1.966 . S
O106 C104 1.263 . S
C107 O108 1.235 . S
C107 O134 1.289 . S
O108 C107 1.235 . S
C109 C111 1.400 . S
C109 N112 1.351 . S
C109 C114 1.501 . S
C110 C111 1.387 . S
C110 N113 1.341 . S
C111 C109 1.400 . S
C111 C110 1.387 . S
N112 Co103 2.022 . S
N112 C109 1.351 . S
N112 N113 1.365 . S
N113 C110 1.341 . S
N113 N112 1.365 . S
N113 H133 0.862 . S
C114 C109 1.501 . S
C114 H115 0.961 . S
C114 H116 0.961 . S
C114 H117 0.960 . S
H115 C114 0.961 . S
H116 C114 0.961 . S
H117 C114 0.960 . S
C118 N119 1.342 . S
C118 C122 1.401 . S
C118 C123 1.499 . S
N119 Co102 1.989 . S
N119 C118 1.342 . S
N119 N120 1.388 . S
N120 Co103 1.993 . S
N120 N119 1.388 . S
N120 C121 1.346 . S
C121 N120 1.346 . S
C121 C122 1.396 . S
C121 C131 1.510 . S
C122 C118 1.401 . S
C122 C121 1.396 . S
C123 C118 1.499 . S
C123 H124 0.959 . S
C123 H125 0.960 . S
C123 H126 0.961 . S
H124 C123 0.959 . S
H125 C123 0.960 . S
H126 C123 0.961 . S
O127 Co102 1.967 . S
O127 C135 1.258 . S
O128 Co103 1.941 . S
O128 C135 1.266 . S
H129 C131 0.959 . S
H130 C131 0.961 . S
C131 C121 1.510 . S
C131 H129 0.959 . S
C131 H130 0.961 . S
C131 H132 0.960 . S
H132 C131 0.960 . S
H133 N113 0.862 . S
O134 Co102 1.920 . S
O134 C107 1.289 . S
C135 O127 1.258 . S
C135 O128 1.266 . S
Co136 O139 1.970 . S
Co136 N153 1.989 . S
Co136 O161 1.967 . S
Co136 O168 1.920 . S
Co137 O140 1.966 . S
Co137 N146 2.022 . S
Co137 N154 1.993 . S
Co137 O162 1.941 . S
C138 O139 1.258 . S
C138 O140 1.263 . S
O139 Co136 1.970 . S
O139 C138 1.258 . S
O140 Co137 1.966 . S
O140 C138 1.263 . S
C141 O142 1.235 . S
C141 O168 1.289 . S
O142 C141 1.235 . S
C143 C145 1.400 . S
C143 N146 1.351 . S
C143 C148 1.501 . S
C144 C145 1.387 . S
C144 N147 1.341 . S
C145 C143 1.400 . S
C145 C144 1.387 . S
N146 Co137 2.022 . S
N146 C143 1.351 . S
N146 N147 1.365 . S
N147 C144 1.341 . S
N147 N146 1.365 . S
N147 H167 0.862 . S
C148 C143 1.501 . S
C148 H149 0.961 . S
C148 H150 0.961 . S
C148 H151 0.960 . S
H149 C148 0.961 . S
H150 C148 0.961 . S
H151 C148 0.960 . S
C152 N153 1.342 . S
C152 C156 1.401 . S
C152 C157 1.499 . S
N153 Co136 1.989 . S
N153 C152 1.342 . S
N153 N154 1.388 . S
N154 Co137 1.993 . S
N154 N153 1.388 . S
N154 C155 1.346 . S
C155 N154 1.346 . S
C155 C156 1.396 . S
C155 C165 1.510 . S
C156 C152 1.401 . S
C156 C155 1.396 . S
C157 C152 1.499 . S
C157 H158 0.959 . S
C157 H159 0.960 . S
C157 H160 0.961 . S
H158 C157 0.959 . S
H159 C157 0.960 . S
H160 C157 0.961 . S
O161 Co136 1.967 . S
O161 C169 1.258 . S
O162 Co137 1.941 . S
O162 C169 1.266 . S
H163 C165 0.959 . S
H164 C165 0.961 . S
C165 C155 1.510 . S
C165 H163 0.959 . S
C165 H164 0.961 . S
C165 H166 0.960 . S
H166 C165 0.960 . S
H167 N147 0.862 . S
O168 Co136 1.920 . S
O168 C141 1.289 . S
C169 O161 1.258 . S
C169 O162 1.266 . S
Co170 O173 1.970 . S
Co170 N187 1.989 . S
Co170 O195 1.967 . S
Co170 O202 1.920 . S
Co171 O174 1.966 . S
Co171 N180 2.022 . S
Co171 N188 1.993 . S
Co171 O196 1.941 . S
C172 O173 1.258 . S
C172 O174 1.263 . S
O173 Co170 1.970 . S
O173 C172 1.258 . S
O174 Co171 1.966 . S
O174 C172 1.263 . S
C175 O176 1.235 . S
C175 O202 1.289 . S
O176 C175 1.235 . S
C177 C179 1.400 . S
C177 N180 1.351 . S
C177 C182 1.501 . S
C178 C179 1.387 . S
C178 N181 1.341 . S
C179 C177 1.400 . S
C179 C178 1.387 . S
N180 Co171 2.022 . S
N180 C177 1.351 . S
N180 N181 1.365 . S
N181 C178 1.341 . S
N181 N180 1.365 . S
N181 H201 0.862 . S
C182 C177 1.501 . S
C182 H183 0.961 . S
C182 H184 0.961 . S
C182 H185 0.960 . S
H183 C182 0.961 . S
H184 C182 0.961 . S
H185 C182 0.960 . S
C186 N187 1.342 . S
C186 C190 1.401 . S
C186 C191 1.499 . S
N187 Co170 1.989 . S
N187 C186 1.342 . S
N187 N188 1.388 . S
N188 Co171 1.993 . S
N188 N187 1.388 . S
N188 C189 1.346 . S
C189 N188 1.346 . S
C189 C190 1.396 . S
C189 C199 1.510 . S
C190 C186 1.401 . S
C190 C189 1.396 . S
C191 C186 1.499 . S
C191 H192 0.959 . S
C191 H193 0.960 . S
C191 H194 0.961 . S
H192 C191 0.959 . S
H193 C191 0.960 . S
H194 C191 0.961 . S
O195 Co170 1.967 . S
O195 C203 1.258 . S
O196 Co171 1.941 . S
O196 C203 1.266 . S
H197 C199 0.959 . S
H198 C199 0.961 . S
C199 C189 1.510 . S
C199 H197 0.959 . S
C199 H198 0.961 . S
C199 H200 0.960 . S
H200 C199 0.960 . S
H201 N181 0.862 . S
O202 Co170 1.920 . S
O202 C175 1.289 . S
C203 O195 1.258 . S
C203 O196 1.266 . S
Co204 O207 1.970 . S
Co204 N221 1.989 . S
Co204 O229 1.967 . S
Co204 O236 1.920 . S
Co205 O208 1.966 . S
Co205 N214 2.022 . S
Co205 N222 1.993 . S
Co205 O230 1.941 . S
C206 O207 1.258 . S
C206 O208 1.263 . S
O207 Co204 1.970 . S
O207 C206 1.258 . S
O208 Co205 1.966 . S
O208 C206 1.263 . S
C209 O210 1.235 . S
C209 O236 1.289 . S
O210 C209 1.235 . S
C211 C213 1.400 . S
C211 N214 1.351 . S
C211 C216 1.501 . S
C212 C213 1.387 . S
C212 N215 1.341 . S
C213 C211 1.400 . S
C213 C212 1.387 . S
N214 Co205 2.022 . S
N214 C211 1.351 . S
N214 N215 1.365 . S
N215 C212 1.341 . S
N215 N214 1.365 . S
N215 H235 0.862 . S
C216 C211 1.501 . S
C216 H217 0.961 . S
C216 H218 0.961 . S
C216 H219 0.960 . S
H217 C216 0.961 . S
H218 C216 0.961 . S
H219 C216 0.960 . S
C220 N221 1.342 . S
C220 C224 1.401 . S
C220 C225 1.499 . S
N221 Co204 1.989 . S
N221 C220 1.342 . S
N221 N222 1.388 . S
N222 Co205 1.993 . S
N222 N221 1.388 . S
N222 C223 1.346 . S
C223 N222 1.346 . S
C223 C224 1.396 . S
C223 C233 1.510 . S
C224 C220 1.401 . S
C224 C223 1.396 . S
C225 C220 1.499 . S
C225 H226 0.959 . S
C225 H227 0.960 . S
C225 H228 0.961 . S
H226 C225 0.959 . S
H227 C225 0.960 . S
H228 C225 0.961 . S
O229 Co204 1.967 . S
O229 C237 1.258 . S
O230 Co205 1.941 . S
O230 C237 1.266 . S
H231 C233 0.959 . S
H232 C233 0.961 . S
C233 C223 1.510 . S
C233 H231 0.959 . S
C233 H232 0.961 . S
C233 H234 0.960 . S
H234 C233 0.960 . S
H235 N215 0.862 . S
O236 Co204 1.920 . S
O236 C209 1.289 . S
C237 O229 1.258 . S
C237 O230 1.266 . S
Co238 O241 1.970 . S
Co238 N255 1.989 . S
Co238 O263 1.967 . S
Co238 O270 1.920 . S
Co239 O242 1.966 . S
Co239 N248 2.022 . S
Co239 N256 1.993 . S
Co239 O264 1.941 . S
C240 O241 1.258 . S
C240 O242 1.263 . S
O241 Co238 1.970 . S
O241 C240 1.258 . S
O242 Co239 1.966 . S
O242 C240 1.263 . S
C243 O244 1.235 . S
C243 O270 1.289 . S
O244 C243 1.235 . S
C245 C247 1.400 . S
C245 N248 1.351 . S
C245 C250 1.501 . S
C246 C247 1.387 . S
C246 N249 1.341 . S
C247 C245 1.400 . S
C247 C246 1.387 . S
N248 Co239 2.022 . S
N248 C245 1.351 . S
N248 N249 1.365 . S
N249 C246 1.341 . S
N249 N248 1.365 . S
N249 H269 0.862 . S
C250 C245 1.501 . S
C250 H251 0.961 . S
C250 H252 0.961 . S
C250 H253 0.960 . S
H251 C250 0.961 . S
H252 C250 0.961 . S
H253 C250 0.960 . S
C254 N255 1.342 . S
C254 C258 1.401 . S
C254 C259 1.499 . S
N255 Co238 1.989 . S
N255 C254 1.342 . S
N255 N256 1.388 . S
N256 Co239 1.993 . S
N256 N255 1.388 . S
N256 C257 1.346 . S
C257 N256 1.346 . S
C257 C258 1.396 . S
C257 C267 1.510 . S
C258 C254 1.401 . S
C258 C257 1.396 . S
C259 C254 1.499 . S
C259 H260 0.959 . S
C259 H261 0.960 . S
C259 H262 0.961 . S
H260 C259 0.959 . S
H261 C259 0.960 . S
H262 C259 0.961 . S
O263 Co238 1.967 . S
O263 C271 1.258 . S
O264 Co239 1.941 . S
O264 C271 1.266 . S
H265 C267 0.959 . S
H266 C267 0.961 . S
C267 C257 1.510 . S
C267 H265 0.959 . S
C267 H266 0.961 . S
C267 H268 0.960 . S
H268 C267 0.960 . S
H269 N249 0.862 . S
O270 Co238 1.920 . S
O270 C243 1.289 . S
C271 O263 1.258 . S
C271 O264 1.266 . S
Co272 O275 1.970 . S
Co272 N289 1.989 . S
Co272 O297 1.967 . S
Co272 O304 1.920 . S
Co273 O276 1.966 . S
Co273 N282 2.022 . S
Co273 N290 1.993 . S
Co273 O298 1.941 . S
C274 O275 1.258 . S
C274 O276 1.263 . S
O275 Co272 1.970 . S
O275 C274 1.258 . S
O276 Co273 1.966 . S
O276 C274 1.263 . S
C277 O278 1.235 . S
C277 O304 1.289 . S
O278 C277 1.235 . S
C279 C281 1.400 . S
C279 N282 1.351 . S
C279 C284 1.501 . S
C280 C281 1.387 . S
C280 N283 1.341 . S
C281 C279 1.400 . S
C281 C280 1.387 . S
N282 Co273 2.022 . S
N282 C279 1.351 . S
N282 N283 1.365 . S
N283 C280 1.341 . S
N283 N282 1.365 . S
N283 H303 0.862 . S
C284 C279 1.501 . S
C284 H285 0.961 . S
C284 H286 0.961 . S
C284 H287 0.960 . S
H285 C284 0.961 . S
H286 C284 0.961 . S
H287 C284 0.960 . S
C288 N289 1.342 . S
C288 C292 1.401 . S
C288 C293 1.499 . S
N289 Co272 1.989 . S
N289 C288 1.342 . S
N289 N290 1.388 . S
N290 Co273 1.993 . S
N290 N289 1.388 . S
N290 C291 1.346 . S
C291 N290 1.346 . S
C291 C292 1.396 . S
C291 C301 1.510 . S
C292 C288 1.401 . S
C292 C291 1.396 . S
C293 C288 1.499 . S
C293 H294 0.959 . S
C293 H295 0.960 . S
C293 H296 0.961 . S
H294 C293 0.959 . S
H295 C293 0.960 . S
H296 C293 0.961 . S
O297 Co272 1.967 . S
O297 C305 1.258 . S
O298 Co273 1.941 . S
O298 C305 1.266 . S
H299 C301 0.959 . S
H300 C301 0.961 . S
C301 C291 1.510 . S
C301 H299 0.959 . S
C301 H300 0.961 . S
C301 H302 0.960 . S
H302 C301 0.960 . S
H303 N283 0.862 . S
O304 Co272 1.920 . S
O304 C277 1.289 . S
C305 O297 1.258 . S
C305 O298 1.266 . S
Co306 O309 1.970 . S
Co306 N323 1.989 . S
Co306 O331 1.967 . S
Co306 O338 1.920 . S
Co307 O310 1.966 . S
Co307 N316 2.022 . S
Co307 N324 1.993 . S
Co307 O332 1.941 . S
C308 O309 1.258 . S
C308 O310 1.263 . S
O309 Co306 1.970 . S
O309 C308 1.258 . S
O310 Co307 1.966 . S
O310 C308 1.263 . S
C311 O312 1.235 . S
C311 O338 1.289 . S
O312 C311 1.235 . S
C313 C315 1.400 . S
C313 N316 1.351 . S
C313 C318 1.501 . S
C314 C315 1.387 . S
C314 N317 1.341 . S
C315 C313 1.400 . S
C315 C314 1.387 . S
N316 Co307 2.022 . S
N316 C313 1.351 . S
N316 N317 1.365 . S
N317 C314 1.341 . S
N317 N316 1.365 . S
N317 H337 0.862 . S
C318 C313 1.501 . S
C318 H319 0.961 . S
C318 H320 0.961 . S
C318 H321 0.960 . S
H319 C318 0.961 . S
H320 C318 0.961 . S
H321 C318 0.960 . S
C322 N323 1.342 . S
C322 C326 1.401 . S
C322 C327 1.499 . S
N323 Co306 1.989 . S
N323 C322 1.342 . S
N323 N324 1.388 . S
N324 Co307 1.993 . S
N324 N323 1.388 . S
N324 C325 1.346 . S
C325 N324 1.346 . S
C325 C326 1.396 . S
C325 C335 1.510 . S
C326 C322 1.401 . S
C326 C325 1.396 . S
C327 C322 1.499 . S
C327 H328 0.959 . S
C327 H329 0.960 . S
C327 H330 0.961 . S
H328 C327 0.959 . S
H329 C327 0.960 . S
H330 C327 0.961 . S
O331 Co306 1.967 . S
O331 C339 1.258 . S
O332 Co307 1.941 . S
O332 C339 1.266 . S
H333 C335 0.959 . S
H334 C335 0.961 . S
C335 C325 1.510 . S
C335 H333 0.959 . S
C335 H334 0.961 . S
C335 H336 0.960 . S
H336 C335 0.960 . S
H337 N317 0.862 . S
O338 Co306 1.920 . S
O338 C311 1.289 . S
C339 O331 1.258 . S
C339 O332 1.266 . S
Co340 O343 1.970 . S
Co340 N357 1.989 . S
Co340 O365 1.967 . S
Co340 O372 1.920 . S
Co341 O344 1.966 . S
Co341 N350 2.022 . S
Co341 N358 1.993 . S
Co341 O366 1.941 . S
C342 O343 1.258 . S
C342 O344 1.263 . S
O343 Co340 1.970 . S
O343 C342 1.258 . S
O344 Co341 1.966 . S
O344 C342 1.263 . S
C345 O346 1.235 . S
C345 O372 1.289 . S
O346 C345 1.235 . S
C347 C349 1.400 . S
C347 N350 1.351 . S
C347 C352 1.501 . S
C348 C349 1.387 . S
C348 N351 1.341 . S
C349 C347 1.400 . S
C349 C348 1.387 . S
N350 Co341 2.022 . S
N350 C347 1.351 . S
N350 N351 1.365 . S
N351 C348 1.341 . S
N351 N350 1.365 . S
N351 H371 0.862 . S
C352 C347 1.501 . S
C352 H353 0.961 . S
C352 H354 0.961 . S
C352 H355 0.960 . S
H353 C352 0.961 . S
H354 C352 0.961 . S
H355 C352 0.960 . S
C356 N357 1.342 . S
C356 C360 1.401 . S
C356 C361 1.499 . S
N357 Co340 1.989 . S
N357 C356 1.342 . S
N357 N358 1.388 . S
N358 Co341 1.993 . S
N358 N357 1.388 . S
N358 C359 1.346 . S
C359 N358 1.346 . S
C359 C360 1.396 . S
C359 C369 1.510 . S
C360 C356 1.401 . S
C360 C359 1.396 . S
C361 C356 1.499 . S
C361 H362 0.959 . S
C361 H363 0.960 . S
C361 H364 0.961 . S
H362 C361 0.959 . S
H363 C361 0.960 . S
H364 C361 0.961 . S
O365 Co340 1.967 . S
O365 C373 1.258 . S
O366 Co341 1.941 . S
O366 C373 1.266 . S
H367 C369 0.959 . S
H368 C369 0.961 . S
C369 C359 1.510 . S
C369 H367 0.959 . S
C369 H368 0.961 . S
C369 H370 0.960 . S
H370 C369 0.960 . S
H371 N351 0.862 . S
O372 Co340 1.920 . S
O372 C345 1.289 . S
C373 O365 1.258 . S
C373 O366 1.266 . S
Co374 O377 1.970 . S
Co374 N391 1.989 . S
Co374 O399 1.967 . S
Co374 O406 1.920 . S
Co375 O378 1.966 . S
Co375 N384 2.022 . S
Co375 N392 1.993 . S
Co375 O400 1.941 . S
C376 O377 1.258 . S
C376 O378 1.263 . S
O377 Co374 1.970 . S
O377 C376 1.258 . S
O378 Co375 1.966 . S
O378 C376 1.263 . S
C379 O380 1.235 . S
C379 O406 1.289 . S
O380 C379 1.235 . S
C381 C383 1.400 . S
C381 N384 1.351 . S
C381 C386 1.501 . S
C382 C383 1.387 . S
C382 N385 1.341 . S
C383 C381 1.400 . S
C383 C382 1.387 . S
N384 Co375 2.022 . S
N384 C381 1.351 . S
N384 N385 1.365 . S
N385 C382 1.341 . S
N385 N384 1.365 . S
N385 H405 0.862 . S
C386 C381 1.501 . S
C386 H387 0.961 . S
C386 H388 0.961 . S
C386 H389 0.960 . S
H387 C386 0.961 . S
H388 C386 0.961 . S
H389 C386 0.960 . S
C390 N391 1.342 . S
C390 C394 1.401 . S
C390 C395 1.499 . S
N391 Co374 1.989 . S
N391 C390 1.342 . S
N391 N392 1.388 . S
N392 Co375 1.993 . S
N392 N391 1.388 . S
N392 C393 1.346 . S
C393 N392 1.346 . S
C393 C394 1.396 . S
C393 C403 1.510 . S
C394 C390 1.401 . S
C394 C393 1.396 . S
C395 C390 1.499 . S
C395 H396 0.959 . S
C395 H397 0.960 . S
C395 H398 0.961 . S
H396 C395 0.959 . S
H397 C395 0.960 . S
H398 C395 0.961 . S
O399 Co374 1.967 . S
O399 C407 1.258 . S
O400 Co375 1.941 . S
O400 C407 1.266 . S
H401 C403 0.959 . S
H402 C403 0.961 . S
C403 C393 1.510 . S
C403 H401 0.959 . S
C403 H402 0.961 . S
C403 H404 0.960 . S
H404 C403 0.960 . S
H405 N385 0.862 . S
O406 Co374 1.920 . S
O406 C379 1.289 . S
C407 O399 1.258 . S
C407 O400 1.266 . S
Co408 O411 1.970 . S
Co408 N425 1.989 . S
Co408 O433 1.967 . S
Co408 O440 1.920 . S
Co409 O412 1.966 . S
Co409 N418 2.022 . S
Co409 N426 1.993 . S
Co409 O434 1.941 . S
C410 O411 1.258 . S
C410 O412 1.263 . S
O411 Co408 1.970 . S
O411 C410 1.258 . S
O412 Co409 1.966 . S
O412 C410 1.263 . S
C413 O414 1.235 . S
C413 O440 1.289 . S
O414 C413 1.235 . S
C415 C417 1.400 . S
C415 N418 1.351 . S
C415 C420 1.501 . S
C416 C417 1.387 . S
C416 N419 1.341 . S
C417 C415 1.400 . S
C417 C416 1.387 . S
N418 Co409 2.022 . S
N418 C415 1.351 . S
N418 N419 1.365 . S
N419 C416 1.341 . S
N419 N418 1.365 . S
N419 H439 0.862 . S
C420 C415 1.501 . S
C420 H421 0.961 . S
C420 H422 0.961 . S
C420 H423 0.960 . S
H421 C420 0.961 . S
H422 C420 0.961 . S
H423 C420 0.960 . S
C424 N425 1.342 . S
C424 C428 1.401 . S
C424 C429 1.499 . S
N425 Co408 1.989 . S
N425 C424 1.342 . S
N425 N426 1.388 . S
N426 Co409 1.993 . S
N426 N425 1.388 . S
N426 C427 1.346 . S
C427 N426 1.346 . S
C427 C428 1.396 . S
C427 C437 1.510 . S
C428 C424 1.401 . S
C428 C427 1.396 . S
C429 C424 1.499 . S
C429 H430 0.959 . S
C429 H431 0.960 . S
C429 H432 0.961 . S
H430 C429 0.959 . S
H431 C429 0.960 . S
H432 C429 0.961 . S
O433 Co408 1.967 . S
O433 C441 1.258 . S
O434 Co409 1.941 . S
O434 C441 1.266 . S
H435 C437 0.959 . S
H436 C437 0.961 . S
C437 C427 1.510 . S
C437 H435 0.959 . S
C437 H436 0.961 . S
C437 H438 0.960 . S
H438 C437 0.960 . S
H439 N419 0.862 . S
O440 Co408 1.920 . S
O440 C413 1.289 . S
C441 O433 1.258 . S
C441 O434 1.266 . S
Co442 O445 1.970 . S
Co442 N459 1.989 . S
Co442 O467 1.967 . S
Co442 O474 1.920 . S
Co443 O446 1.966 . S
Co443 N452 2.022 . S
Co443 N460 1.993 . S
Co443 O468 1.941 . S
C444 O445 1.258 . S
C444 O446 1.263 . S
O445 Co442 1.970 . S
O445 C444 1.258 . S
O446 Co443 1.966 . S
O446 C444 1.263 . S
C447 O448 1.235 . S
C447 O474 1.289 . S
O448 C447 1.235 . S
C449 C451 1.400 . S
C449 N452 1.351 . S
C449 C454 1.501 . S
C450 C451 1.387 . S
C450 N453 1.341 . S
C451 C449 1.400 . S
C451 C450 1.387 . S
N452 Co443 2.022 . S
N452 C449 1.351 . S
N452 N453 1.365 . S
N453 C450 1.341 . S
N453 N452 1.365 . S
N453 H473 0.862 . S
C454 C449 1.501 . S
C454 H455 0.961 . S
C454 H456 0.961 . S
C454 H457 0.960 . S
H455 C454 0.961 . S
H456 C454 0.961 . S
H457 C454 0.960 . S
C458 N459 1.342 . S
C458 C462 1.401 . S
C458 C463 1.499 . S
N459 Co442 1.989 . S
N459 C458 1.342 . S
N459 N460 1.388 . S
N460 Co443 1.993 . S
N460 N459 1.388 . S
N460 C461 1.346 . S
C461 N460 1.346 . S
C461 C462 1.396 . S
C461 C471 1.510 . S
C462 C458 1.401 . S
C462 C461 1.396 . S
C463 C458 1.499 . S
C463 H464 0.959 . S
C463 H465 0.960 . S
C463 H466 0.961 . S
H464 C463 0.959 . S
H465 C463 0.960 . S
H466 C463 0.961 . S
O467 Co442 1.967 . S
O467 C475 1.258 . S
O468 Co443 1.941 . S
O468 C475 1.266 . S
H469 C471 0.959 . S
H470 C471 0.961 . S
C471 C461 1.510 . S
C471 H469 0.959 . S
C471 H470 0.961 . S
C471 H472 0.960 . S
H472 C471 0.960 . S
H473 N453 0.862 . S
O474 Co442 1.920 . S
O474 C447 1.289 . S
C475 O467 1.258 . S
C475 O468 1.266 . S
Co476 O479 1.970 . S
Co476 N493 1.989 . S
Co476 O501 1.967 . S
Co476 O508 1.920 . S
Co477 O480 1.966 . S
Co477 N486 2.022 . S
Co477 N494 1.993 . S
Co477 O502 1.941 . S
C478 O479 1.258 . S
C478 O480 1.263 . S
O479 Co476 1.970 . S
O479 C478 1.258 . S
O480 Co477 1.966 . S
O480 C478 1.263 . S
C481 O482 1.235 . S
C481 O508 1.289 . S
O482 C481 1.235 . S
C483 C485 1.400 . S
C483 N486 1.351 . S
C483 C488 1.501 . S
C484 C485 1.387 . S
C484 N487 1.341 . S
C485 C483 1.400 . S
C485 C484 1.387 . S
N486 Co477 2.022 . S
N486 C483 1.351 . S
N486 N487 1.365 . S
N487 C484 1.341 . S
N487 N486 1.365 . S
N487 H507 0.862 . S
C488 C483 1.501 . S
C488 H489 0.961 . S
C488 H490 0.961 . S
C488 H491 0.960 . S
H489 C488 0.961 . S
H490 C488 0.961 . S
H491 C488 0.960 . S
C492 N493 1.342 . S
C492 C496 1.401 . S
C492 C497 1.499 . S
N493 Co476 1.989 . S
N493 C492 1.342 . S
N493 N494 1.388 . S
N494 Co477 1.993 . S
N494 N493 1.388 . S
N494 C495 1.346 . S
C495 N494 1.346 . S
C495 C496 1.396 . S
C495 C505 1.510 . S
C496 C492 1.401 . S
C496 C495 1.396 . S
C497 C492 1.499 . S
C497 H498 0.959 . S
C497 H499 0.960 . S
C497 H500 0.961 . S
H498 C497 0.959 . S
H499 C497 0.960 . S
H500 C497 0.961 . S
O501 Co476 1.967 . S
O501 C509 1.258 . S
O502 Co477 1.941 . S
O502 C509 1.266 . S
H503 C505 0.959 . S
H504 C505 0.961 . S
C505 C495 1.510 . S
C505 H503 0.959 . S
C505 H504 0.961 . S
C505 H506 0.960 . S
H506 C505 0.960 . S
H507 N487 0.862 . S
O508 Co476 1.920 . S
O508 C481 1.289 . S
C509 O501 1.258 . S
C509 O502 1.266 . S
Co510 O513 1.970 . S
Co510 N527 1.989 . S
Co510 O535 1.967 . S
Co510 O542 1.920 . S
Co511 O514 1.966 . S
Co511 N520 2.022 . S
Co511 N528 1.993 . S
Co511 O536 1.941 . S
C512 O513 1.258 . S
C512 O514 1.263 . S
O513 Co510 1.970 . S
O513 C512 1.258 . S
O514 Co511 1.966 . S
O514 C512 1.263 . S
C515 O516 1.235 . S
C515 O542 1.289 . S
O516 C515 1.235 . S
C517 C519 1.400 . S
C517 N520 1.351 . S
C517 C522 1.501 . S
C518 C519 1.387 . S
C518 N521 1.341 . S
C519 C517 1.400 . S
C519 C518 1.387 . S
N520 Co511 2.022 . S
N520 C517 1.351 . S
N520 N521 1.365 . S
N521 C518 1.341 . S
N521 N520 1.365 . S
N521 H541 0.862 . S
C522 C517 1.501 . S
C522 H523 0.961 . S
C522 H524 0.961 . S
C522 H525 0.960 . S
H523 C522 0.961 . S
H524 C522 0.961 . S
H525 C522 0.960 . S
C526 N527 1.342 . S
C526 C530 1.401 . S
C526 C531 1.499 . S
N527 Co510 1.989 . S
N527 C526 1.342 . S
N527 N528 1.388 . S
N528 Co511 1.993 . S
N528 N527 1.388 . S
N528 C529 1.346 . S
C529 N528 1.346 . S
C529 C530 1.396 . S
C529 C539 1.510 . S
C530 C526 1.401 . S
C530 C529 1.396 . S
C531 C526 1.499 . S
C531 H532 0.959 . S
C531 H533 0.960 . S
C531 H534 0.961 . S
H532 C531 0.959 . S
H533 C531 0.960 . S
H534 C531 0.961 . S
O535 Co510 1.967 . S
O535 C543 1.258 . S
O536 Co511 1.941 . S
O536 C543 1.266 . S
H537 C539 0.959 . S
H538 C539 0.961 . S
C539 C529 1.510 . S
C539 H537 0.959 . S
C539 H538 0.961 . S
C539 H540 0.960 . S
H540 C539 0.960 . S
H541 N521 0.862 . S
O542 Co510 1.920 . S
O542 C515 1.289 . S
C543 O535 1.258 . S
C543 O536 1.266 . S
Co544 O547 1.970 . S
Co544 N561 1.989 . S
Co544 O569 1.967 . S
Co544 O576 1.920 . S
Co545 O548 1.966 . S
Co545 N554 2.022 . S
Co545 N562 1.993 . S
Co545 O570 1.941 . S
C546 O547 1.258 . S
C546 O548 1.263 . S
O547 Co544 1.970 . S
O547 C546 1.258 . S
O548 Co545 1.966 . S
O548 C546 1.263 . S
C549 O550 1.235 . S
C549 O576 1.289 . S
O550 C549 1.235 . S
C551 C553 1.400 . S
C551 N554 1.351 . S
C551 C556 1.501 . S
C552 C553 1.387 . S
C552 N555 1.341 . S
C553 C551 1.400 . S
C553 C552 1.387 . S
N554 Co545 2.022 . S
N554 C551 1.351 . S
N554 N555 1.365 . S
N555 C552 1.341 . S
N555 N554 1.365 . S
N555 H575 0.862 . S
C556 C551 1.501 . S
C556 H557 0.961 . S
C556 H558 0.961 . S
C556 H559 0.960 . S
H557 C556 0.961 . S
H558 C556 0.961 . S
H559 C556 0.960 . S
C560 N561 1.342 . S
C560 C564 1.401 . S
C560 C565 1.499 . S
N561 Co544 1.989 . S
N561 C560 1.342 . S
N561 N562 1.388 . S
N562 Co545 1.993 . S
N562 N561 1.388 . S
N562 C563 1.346 . S
C563 N562 1.346 . S
C563 C564 1.396 . S
C563 C573 1.510 . S
C564 C560 1.401 . S
C564 C563 1.396 . S
C565 C560 1.499 . S
C565 H566 0.959 . S
C565 H567 0.960 . S
C565 H568 0.961 . S
H566 C565 0.959 . S
H567 C565 0.960 . S
H568 C565 0.961 . S
O569 Co544 1.967 . S
O569 C577 1.258 . S
O570 Co545 1.941 . S
O570 C577 1.266 . S
H571 C573 0.959 . S
H572 C573 0.961 . S
C573 C563 1.510 . S
C573 H571 0.959 . S
C573 H572 0.961 . S
C573 H574 0.960 . S
H574 C573 0.960 . S
H575 N555 0.862 . S
O576 Co544 1.920 . S
O576 C549 1.289 . S
C577 O569 1.258 . S
C577 O570 1.266 . S
Co578 O581 1.970 . S
Co578 N595 1.989 . S
Co578 O603 1.967 . S
Co578 O610 1.920 . S
Co579 O582 1.966 . S
Co579 N588 2.022 . S
Co579 N596 1.993 . S
Co579 O604 1.941 . S
C580 O581 1.258 . S
C580 O582 1.263 . S
O581 Co578 1.970 . S
O581 C580 1.258 . S
O582 Co579 1.966 . S
O582 C580 1.263 . S
C583 O584 1.235 . S
C583 O610 1.289 . S
O584 C583 1.235 . S
C585 C587 1.400 . S
C585 N588 1.351 . S
C585 C590 1.501 . S
C586 C587 1.387 . S
C586 N589 1.341 . S
C587 C585 1.400 . S
C587 C586 1.387 . S
N588 Co579 2.022 . S
N588 C585 1.351 . S
N588 N589 1.365 . S
N589 C586 1.341 . S
N589 N588 1.365 . S
N589 H609 0.862 . S
C590 C585 1.501 . S
C590 H591 0.961 . S
C590 H592 0.961 . S
C590 H593 0.960 . S
H591 C590 0.961 . S
H592 C590 0.961 . S
H593 C590 0.960 . S
C594 N595 1.342 . S
C594 C598 1.401 . S
C594 C599 1.499 . S
N595 Co578 1.989 . S
N595 C594 1.342 . S
N595 N596 1.388 . S
N596 Co579 1.993 . S
N596 N595 1.388 . S
N596 C597 1.346 . S
C597 N596 1.346 . S
C597 C598 1.396 . S
C597 C607 1.510 . S
C598 C594 1.401 . S
C598 C597 1.396 . S
C599 C594 1.499 . S
C599 H600 0.959 . S
C599 H601 0.960 . S
C599 H602 0.961 . S
H600 C599 0.959 . S
H601 C599 0.960 . S
H602 C599 0.961 . S
O603 Co578 1.967 . S
O603 C611 1.258 . S
O604 Co579 1.941 . S
O604 C611 1.266 . S
H605 C607 0.959 . S
H606 C607 0.961 . S
C607 C597 1.510 . S
C607 H605 0.959 . S
C607 H606 0.961 . S
C607 H608 0.960 . S
H608 C607 0.960 . S
H609 N589 0.862 . S
O610 Co578 1.920 . S
O610 C583 1.289 . S
C611 O603 1.258 . S
C611 O604 1.266 . S
Co612 O615 1.970 . S
Co612 N629 1.989 . S
Co612 O637 1.967 . S
Co612 O644 1.920 . S
Co613 O616 1.966 . S
Co613 N622 2.022 . S
Co613 N630 1.993 . S
Co613 O638 1.941 . S
C614 O615 1.258 . S
C614 O616 1.263 . S
O615 Co612 1.970 . S
O615 C614 1.258 . S
O616 Co613 1.966 . S
O616 C614 1.263 . S
C617 O618 1.235 . S
C617 O644 1.289 . S
O618 C617 1.235 . S
C619 C621 1.400 . S
C619 N622 1.351 . S
C619 C624 1.501 . S
C620 C621 1.387 . S
C620 N623 1.341 . S
C621 C619 1.400 . S
C621 C620 1.387 . S
N622 Co613 2.022 . S
N622 C619 1.351 . S
N622 N623 1.365 . S
N623 C620 1.341 . S
N623 N622 1.365 . S
N623 H643 0.862 . S
C624 C619 1.501 . S
C624 H625 0.961 . S
C624 H626 0.961 . S
C624 H627 0.960 . S
H625 C624 0.961 . S
H626 C624 0.961 . S
H627 C624 0.960 . S
C628 N629 1.342 . S
C628 C632 1.401 . S
C628 C633 1.499 . S
N629 Co612 1.989 . S
N629 C628 1.342 . S
N629 N630 1.388 . S
N630 Co613 1.993 . S
N630 N629 1.388 . S
N630 C631 1.346 . S
C631 N630 1.346 . S
C631 C632 1.396 . S
C631 C641 1.510 . S
C632 C628 1.401 . S
C632 C631 1.396 . S
C633 C628 1.499 . S
C633 H634 0.959 . S
C633 H635 0.960 . S
C633 H636 0.961 . S
H634 C633 0.959 . S
H635 C633 0.960 . S
H636 C633 0.961 . S
O637 Co612 1.967 . S
O637 C645 1.258 . S
O638 Co613 1.941 . S
O638 C645 1.266 . S
H639 C641 0.959 . S
H640 C641 0.961 . S
C641 C631 1.510 . S
C641 H639 0.959 . S
C641 H640 0.961 . S
C641 H642 0.960 . S
H642 C641 0.960 . S
H643 N623 0.862 . S
O644 Co612 1.920 . S
O644 C617 1.289 . S
C645 O637 1.258 . S
C645 O638 1.266 . S
Co646 O649 1.970 . S
Co646 N663 1.989 . S
Co646 O671 1.967 . S
Co646 O678 1.920 . S
Co647 O650 1.966 . S
Co647 N656 2.022 . S
Co647 N664 1.993 . S
Co647 O672 1.941 . S
C648 O649 1.258 . S
C648 O650 1.263 . S
O649 Co646 1.970 . S
O649 C648 1.258 . S
O650 Co647 1.966 . S
O650 C648 1.263 . S
C651 O652 1.235 . S
C651 O678 1.289 . S
O652 C651 1.235 . S
C653 C655 1.400 . S
C653 N656 1.351 . S
C653 C658 1.501 . S
C654 C655 1.387 . S
C654 N657 1.341 . S
C655 C653 1.400 . S
C655 C654 1.387 . S
N656 Co647 2.022 . S
N656 C653 1.351 . S
N656 N657 1.365 . S
N657 C654 1.341 . S
N657 N656 1.365 . S
N657 H677 0.862 . S
C658 C653 1.501 . S
C658 H659 0.961 . S
C658 H660 0.961 . S
C658 H661 0.960 . S
H659 C658 0.961 . S
H660 C658 0.961 . S
H661 C658 0.960 . S
C662 N663 1.342 . S
C662 C666 1.401 . S
C662 C667 1.499 . S
N663 Co646 1.989 . S
N663 C662 1.342 . S
N663 N664 1.388 . S
N664 Co647 1.993 . S
N664 N663 1.388 . S
N664 C665 1.346 . S
C665 N664 1.346 . S
C665 C666 1.396 . S
C665 C675 1.510 . S
C666 C662 1.401 . S
C666 C665 1.396 . S
C667 C662 1.499 . S
C667 H668 0.959 . S
C667 H669 0.960 . S
C667 H670 0.961 . S
H668 C667 0.959 . S
H669 C667 0.960 . S
H670 C667 0.961 . S
O671 Co646 1.967 . S
O671 C679 1.258 . S
O672 Co647 1.941 . S
O672 C679 1.266 . S
H673 C675 0.959 . S
H674 C675 0.961 . S
C675 C665 1.510 . S
C675 H673 0.959 . S
C675 H674 0.961 . S
C675 H676 0.960 . S
H676 C675 0.960 . S
H677 N657 0.862 . S
O678 Co646 1.920 . S
O678 C651 1.289 . S
C679 O671 1.258 . S
C679 O672 1.266 . S
Co680 O683 1.970 . S
Co680 N697 1.989 . S
Co680 O705 1.967 . S
Co680 O712 1.920 . S
Co681 O684 1.966 . S
Co681 N690 2.022 . S
Co681 N698 1.993 . S
Co681 O706 1.941 . S
C682 O683 1.258 . S
C682 O684 1.263 . S
O683 Co680 1.970 . S
O683 C682 1.258 . S
O684 Co681 1.966 . S
O684 C682 1.263 . S
C685 O686 1.235 . S
C685 O712 1.289 . S
O686 C685 1.235 . S
C687 C689 1.400 . S
C687 N690 1.351 . S
C687 C692 1.501 . S
C688 C689 1.387 . S
C688 N691 1.341 . S
C689 C687 1.400 . S
C689 C688 1.387 . S
N690 Co681 2.022 . S
N690 C687 1.351 . S
N690 N691 1.365 . S
N691 C688 1.341 . S
N691 N690 1.365 . S
N691 H711 0.862 . S
C692 C687 1.501 . S
C692 H693 0.961 . S
C692 H694 0.961 . S
C692 H695 0.960 . S
H693 C692 0.961 . S
H694 C692 0.961 . S
H695 C692 0.960 . S
C696 N697 1.342 . S
C696 C700 1.401 . S
C696 C701 1.499 . S
N697 Co680 1.989 . S
N697 C696 1.342 . S
N697 N698 1.388 . S
N698 Co681 1.993 . S
N698 N697 1.388 . S
N698 C699 1.346 . S
C699 N698 1.346 . S
C699 C700 1.396 . S
C699 C709 1.510 . S
C700 C696 1.401 . S
C700 C699 1.396 . S
C701 C696 1.499 . S
C701 H702 0.959 . S
C701 H703 0.960 . S
C701 H704 0.961 . S
H702 C701 0.959 . S
H703 C701 0.960 . S
H704 C701 0.961 . S
O705 Co680 1.967 . S
O705 C713 1.258 . S
O706 Co681 1.941 . S
O706 C713 1.266 . S
H707 C709 0.959 . S
H708 C709 0.961 . S
C709 C699 1.510 . S
C709 H707 0.959 . S
C709 H708 0.961 . S
C709 H710 0.960 . S
H710 C709 0.960 . S
H711 N691 0.862 . S
O712 Co680 1.920 . S
O712 C685 1.289 . S
C713 O705 1.258 . S
C713 O706 1.266 . S
Co714 O717 1.970 . S
Co714 N731 1.989 . S
Co714 O739 1.967 . S
Co714 O746 1.920 . S
Co715 O718 1.966 . S
Co715 N724 2.022 . S
Co715 N732 1.993 . S
Co715 O740 1.941 . S
C716 O717 1.258 . S
C716 O718 1.263 . S
O717 Co714 1.970 . S
O717 C716 1.258 . S
O718 Co715 1.966 . S
O718 C716 1.263 . S
C719 O720 1.235 . S
C719 O746 1.289 . S
O720 C719 1.235 . S
C721 C723 1.400 . S
C721 N724 1.351 . S
C721 C726 1.501 . S
C722 C723 1.387 . S
C722 N725 1.341 . S
C723 C721 1.400 . S
C723 C722 1.387 . S
N724 Co715 2.022 . S
N724 C721 1.351 . S
N724 N725 1.365 . S
N725 C722 1.341 . S
N725 N724 1.365 . S
N725 H745 0.862 . S
C726 C721 1.501 . S
C726 H727 0.961 . S
C726 H728 0.961 . S
C726 H729 0.960 . S
H727 C726 0.961 . S
H728 C726 0.961 . S
H729 C726 0.960 . S
C730 N731 1.342 . S
C730 C734 1.401 . S
C730 C735 1.499 . S
N731 Co714 1.989 . S
N731 C730 1.342 . S
N731 N732 1.388 . S
N732 Co715 1.993 . S
N732 N731 1.388 . S
N732 C733 1.346 . S
C733 N732 1.346 . S
C733 C734 1.396 . S
C733 C743 1.510 . S
C734 C730 1.401 . S
C734 C733 1.396 . S
C735 C730 1.499 . S
C735 H736 0.959 . S
C735 H737 0.960 . S
C735 H738 0.961 . S
H736 C735 0.959 . S
H737 C735 0.960 . S
H738 C735 0.961 . S
O739 Co714 1.967 . S
O739 C747 1.258 . S
O740 Co715 1.941 . S
O740 C747 1.266 . S
H741 C743 0.959 . S
H742 C743 0.961 . S
C743 C733 1.510 . S
C743 H741 0.959 . S
C743 H742 0.961 . S
C743 H744 0.960 . S
H744 C743 0.960 . S
H745 N725 0.862 . S
O746 Co714 1.920 . S
O746 C719 1.289 . S
C747 O739 1.258 . S
C747 O740 1.266 . S
Co748 O751 1.970 . S
Co748 N765 1.989 . S
Co748 O773 1.967 . S
Co748 O780 1.920 . S
Co749 O752 1.966 . S
Co749 N758 2.022 . S
Co749 N766 1.993 . S
Co749 O774 1.941 . S
C750 O751 1.258 . S
C750 O752 1.263 . S
O751 Co748 1.970 . S
O751 C750 1.258 . S
O752 Co749 1.966 . S
O752 C750 1.263 . S
C753 O754 1.235 . S
C753 O780 1.289 . S
O754 C753 1.235 . S
C755 C757 1.400 . S
C755 N758 1.351 . S
C755 C760 1.501 . S
C756 C757 1.387 . S
C756 N759 1.341 . S
C757 C755 1.400 . S
C757 C756 1.387 . S
N758 Co749 2.022 . S
N758 C755 1.351 . S
N758 N759 1.365 . S
N759 C756 1.341 . S
N759 N758 1.365 . S
N759 H779 0.862 . S
C760 C755 1.501 . S
C760 H761 0.961 . S
C760 H762 0.961 . S
C760 H763 0.960 . S
H761 C760 0.961 . S
H762 C760 0.961 . S
H763 C760 0.960 . S
C764 N765 1.342 . S
C764 C768 1.401 . S
C764 C769 1.499 . S
N765 Co748 1.989 . S
N765 C764 1.342 . S
N765 N766 1.388 . S
N766 Co749 1.993 . S
N766 N765 1.388 . S
N766 C767 1.346 . S
C767 N766 1.346 . S
C767 C768 1.396 . S
C767 C777 1.510 . S
C768 C764 1.401 . S
C768 C767 1.396 . S
C769 C764 1.499 . S
C769 H770 0.959 . S
C769 H771 0.960 . S
C769 H772 0.961 . S
H770 C769 0.959 . S
H771 C769 0.960 . S
H772 C769 0.961 . S
O773 Co748 1.967 . S
O773 C781 1.258 . S
O774 Co749 1.941 . S
O774 C781 1.266 . S
H775 C777 0.959 . S
H776 C777 0.961 . S
C777 C767 1.510 . S
C777 H775 0.959 . S
C777 H776 0.961 . S
C777 H778 0.960 . S
H778 C777 0.960 . S
H779 N759 0.862 . S
O780 Co748 1.920 . S
O780 C753 1.289 . S
C781 O773 1.258 . S
C781 O774 1.266 . S
Co782 O785 1.970 . S
Co782 N799 1.989 . S
Co782 O807 1.967 . S
Co782 O814 1.920 . S
Co783 O786 1.966 . S
Co783 N792 2.022 . S
Co783 N800 1.993 . S
Co783 O808 1.941 . S
C784 O785 1.258 . S
C784 O786 1.263 . S
O785 Co782 1.970 . S
O785 C784 1.258 . S
O786 Co783 1.966 . S
O786 C784 1.263 . S
C787 O788 1.235 . S
C787 O814 1.289 . S
O788 C787 1.235 . S
C789 C791 1.400 . S
C789 N792 1.351 . S
C789 C794 1.501 . S
C790 C791 1.387 . S
C790 N793 1.341 . S
C791 C789 1.400 . S
C791 C790 1.387 . S
N792 Co783 2.022 . S
N792 C789 1.351 . S
N792 N793 1.365 . S
N793 C790 1.341 . S
N793 N792 1.365 . S
N793 H813 0.862 . S
C794 C789 1.501 . S
C794 H795 0.961 . S
C794 H796 0.961 . S
C794 H797 0.960 . S
H795 C794 0.961 . S
H796 C794 0.961 . S
H797 C794 0.960 . S
C798 N799 1.342 . S
C798 C802 1.401 . S
C798 C803 1.499 . S
N799 Co782 1.989 . S
N799 C798 1.342 . S
N799 N800 1.388 . S
N800 Co783 1.993 . S
N800 N799 1.388 . S
N800 C801 1.346 . S
C801 N800 1.346 . S
C801 C802 1.396 . S
C801 C811 1.510 . S
C802 C798 1.401 . S
C802 C801 1.396 . S
C803 C798 1.499 . S
C803 H804 0.959 . S
C803 H805 0.960 . S
C803 H806 0.961 . S
H804 C803 0.959 . S
H805 C803 0.960 . S
H806 C803 0.961 . S
O807 Co782 1.967 . S
O807 C815 1.258 . S
O808 Co783 1.941 . S
O808 C815 1.266 . S
H809 C811 0.959 . S
H810 C811 0.961 . S
C811 C801 1.510 . S
C811 H809 0.959 . S
C811 H810 0.961 . S
C811 H812 0.960 . S
H812 C811 0.960 . S
H813 N793 0.862 . S
O814 Co782 1.920 . S
O814 C787 1.289 . S
C815 O807 1.258 . S
C815 O808 1.266 . S
Co816 O819 1.970 . S
Co816 N833 1.989 . S
Co816 O841 1.967 . S
Co816 O848 1.920 . S
Co817 O820 1.966 . S
Co817 N826 2.022 . S
Co817 N834 1.993 . S
Co817 O842 1.941 . S
C818 O819 1.258 . S
C818 O820 1.263 . S
O819 Co816 1.970 . S
O819 C818 1.258 . S
O820 Co817 1.966 . S
O820 C818 1.263 . S
C821 O822 1.235 . S
C821 O848 1.289 . S
O822 C821 1.235 . S
C823 C825 1.400 . S
C823 N826 1.351 . S
C823 C828 1.501 . S
C824 C825 1.387 . S
C824 N827 1.341 . S
C825 C823 1.400 . S
C825 C824 1.387 . S
N826 Co817 2.022 . S
N826 C823 1.351 . S
N826 N827 1.365 . S
N827 C824 1.341 . S
N827 N826 1.365 . S
N827 H847 0.862 . S
C828 C823 1.501 . S
C828 H829 0.961 . S
C828 H830 0.961 . S
C828 H831 0.960 . S
H829 C828 0.961 . S
H830 C828 0.961 . S
H831 C828 0.960 . S
C832 N833 1.342 . S
C832 C836 1.401 . S
C832 C837 1.499 . S
N833 Co816 1.989 . S
N833 C832 1.342 . S
N833 N834 1.388 . S
N834 Co817 1.993 . S
N834 N833 1.388 . S
N834 C835 1.346 . S
C835 N834 1.346 . S
C835 C836 1.396 . S
C835 C845 1.510 . S
C836 C832 1.401 . S
C836 C835 1.396 . S
C837 C832 1.499 . S
C837 H838 0.959 . S
C837 H839 0.960 . S
C837 H840 0.961 . S
H838 C837 0.959 . S
H839 C837 0.960 . S
H840 C837 0.961 . S
O841 Co816 1.967 . S
O841 C849 1.258 . S
O842 Co817 1.941 . S
O842 C849 1.266 . S
H843 C845 0.959 . S
H844 C845 0.961 . S
C845 C835 1.510 . S
C845 H843 0.959 . S
C845 H844 0.961 . S
C845 H846 0.960 . S
H846 C845 0.960 . S
H847 N827 0.862 . S
O848 Co816 1.920 . S
O848 C821 1.289 . S
C849 O841 1.258 . S
C849 O842 1.266 . S
Co850 O853 1.970 . S
Co850 N867 1.989 . S
Co850 O875 1.967 . S
Co850 O882 1.920 . S
Co851 O854 1.966 . S
Co851 N860 2.022 . S
Co851 N868 1.993 . S
Co851 O876 1.941 . S
C852 O853 1.258 . S
C852 O854 1.263 . S
O853 Co850 1.970 . S
O853 C852 1.258 . S
O854 Co851 1.966 . S
O854 C852 1.263 . S
C855 O856 1.235 . S
C855 O882 1.289 . S
O856 C855 1.235 . S
C857 C859 1.400 . S
C857 N860 1.351 . S
C857 C862 1.501 . S
C858 C859 1.387 . S
C858 N861 1.341 . S
C859 C857 1.400 . S
C859 C858 1.387 . S
N860 Co851 2.022 . S
N860 C857 1.351 . S
N860 N861 1.365 . S
N861 C858 1.341 . S
N861 N860 1.365 . S
N861 H881 0.862 . S
C862 C857 1.501 . S
C862 H863 0.961 . S
C862 H864 0.961 . S
C862 H865 0.960 . S
H863 C862 0.961 . S
H864 C862 0.961 . S
H865 C862 0.960 . S
C866 N867 1.342 . S
C866 C870 1.401 . S
C866 C871 1.499 . S
N867 Co850 1.989 . S
N867 C866 1.342 . S
N867 N868 1.388 . S
N868 Co851 1.993 . S
N868 N867 1.388 . S
N868 C869 1.346 . S
C869 N868 1.346 . S
C869 C870 1.396 . S
C869 C879 1.510 . S
C870 C866 1.401 . S
C870 C869 1.396 . S
C871 C866 1.499 . S
C871 H872 0.959 . S
C871 H873 0.960 . S
C871 H874 0.961 . S
H872 C871 0.959 . S
H873 C871 0.960 . S
H874 C871 0.961 . S
O875 Co850 1.967 . S
O875 C883 1.258 . S
O876 Co851 1.941 . S
O876 C883 1.266 . S
H877 C879 0.959 . S
H878 C879 0.961 . S
C879 C869 1.510 . S
C879 H877 0.959 . S
C879 H878 0.961 . S
C879 H880 0.960 . S
H880 C879 0.960 . S
H881 N861 0.862 . S
O882 Co850 1.920 . S
O882 C855 1.289 . S
C883 O875 1.258 . S
C883 O876 1.266 . S
Co884 O887 1.970 . S
Co884 N901 1.989 . S
Co884 O909 1.967 . S
Co884 O916 1.920 . S
Co885 O888 1.966 . S
Co885 N894 2.022 . S
Co885 N902 1.993 . S
Co885 O910 1.941 . S
C886 O887 1.258 . S
C886 O888 1.263 . S
O887 Co884 1.970 . S
O887 C886 1.258 . S
O888 Co885 1.966 . S
O888 C886 1.263 . S
C889 O890 1.235 . S
C889 O916 1.289 . S
O890 C889 1.235 . S
C891 C893 1.400 . S
C891 N894 1.351 . S
C891 C896 1.501 . S
C892 C893 1.387 . S
C892 N895 1.341 . S
C893 C891 1.400 . S
C893 C892 1.387 . S
N894 Co885 2.022 . S
N894 C891 1.351 . S
N894 N895 1.365 . S
N895 C892 1.341 . S
N895 N894 1.365 . S
N895 H915 0.862 . S
C896 C891 1.501 . S
C896 H897 0.961 . S
C896 H898 0.961 . S
C896 H899 0.960 . S
H897 C896 0.961 . S
H898 C896 0.961 . S
H899 C896 0.960 . S
C900 N901 1.342 . S
C900 C904 1.401 . S
C900 C905 1.499 . S
N901 Co884 1.989 . S
N901 C900 1.342 . S
N901 N902 1.388 . S
N902 Co885 1.993 . S
N902 N901 1.388 . S
N902 C903 1.346 . S
C903 N902 1.346 . S
C903 C904 1.396 . S
C903 C913 1.510 . S
C904 C900 1.401 . S
C904 C903 1.396 . S
C905 C900 1.499 . S
C905 H906 0.959 . S
C905 H907 0.960 . S
C905 H908 0.961 . S
H906 C905 0.959 . S
H907 C905 0.960 . S
H908 C905 0.961 . S
O909 Co884 1.967 . S
O909 C917 1.258 . S
O910 Co885 1.941 . S
O910 C917 1.266 . S
H911 C913 0.959 . S
H912 C913 0.961 . S
C913 C903 1.510 . S
C913 H911 0.959 . S
C913 H912 0.961 . S
C913 H914 0.960 . S
H914 C913 0.960 . S
H915 N895 0.862 . S
O916 Co884 1.920 . S
O916 C889 1.289 . S
C917 O909 1.258 . S
C917 O910 1.266 . S
Co918 O921 1.970 . S
Co918 N935 1.989 . S
Co918 O943 1.967 . S
Co918 O950 1.920 . S
Co919 O922 1.966 . S
Co919 N928 2.022 . S
Co919 N936 1.993 . S
Co919 O944 1.941 . S
C920 O921 1.258 . S
C920 O922 1.263 . S
O921 Co918 1.970 . S
O921 C920 1.258 . S
O922 Co919 1.966 . S
O922 C920 1.263 . S
C923 O924 1.235 . S
C923 O950 1.289 . S
O924 C923 1.235 . S
C925 C927 1.400 . S
C925 N928 1.351 . S
C925 C930 1.501 . S
C926 C927 1.387 . S
C926 N929 1.341 . S
C927 C925 1.400 . S
C927 C926 1.387 . S
N928 Co919 2.022 . S
N928 C925 1.351 . S
N928 N929 1.365 . S
N929 C926 1.341 . S
N929 N928 1.365 . S
N929 H949 0.862 . S
C930 C925 1.501 . S
C930 H931 0.961 . S
C930 H932 0.961 . S
C930 H933 0.960 . S
H931 C930 0.961 . S
H932 C930 0.961 . S
H933 C930 0.960 . S
C934 N935 1.342 . S
C934 C938 1.401 . S
C934 C939 1.499 . S
N935 Co918 1.989 . S
N935 C934 1.342 . S
N935 N936 1.388 . S
N936 Co919 1.993 . S
N936 N935 1.388 . S
N936 C937 1.346 . S
C937 N936 1.346 . S
C937 C938 1.396 . S
C937 C947 1.510 . S
C938 C934 1.401 . S
C938 C937 1.396 . S
C939 C934 1.499 . S
C939 H940 0.959 . S
C939 H941 0.960 . S
C939 H942 0.961 . S
H940 C939 0.959 . S
H941 C939 0.960 . S
H942 C939 0.961 . S
O943 Co918 1.967 . S
O943 C951 1.258 . S
O944 Co919 1.941 . S
O944 C951 1.266 . S
H945 C947 0.959 . S
H946 C947 0.961 . S
C947 C937 1.510 . S
C947 H945 0.959 . S
C947 H946 0.961 . S
C947 H948 0.960 . S
H948 C947 0.960 . S
H949 N929 0.862 . S
O950 Co918 1.920 . S
O950 C923 1.289 . S
C951 O943 1.258 . S
C951 O944 1.266 . S
Co952 O955 1.970 . S
Co952 N969 1.989 . S
Co952 O977 1.967 . S
Co952 O984 1.920 . S
Co953 O956 1.966 . S
Co953 N962 2.022 . S
Co953 N970 1.993 . S
Co953 O978 1.941 . S
C954 O955 1.258 . S
C954 O956 1.263 . S
O955 Co952 1.970 . S
O955 C954 1.258 . S
O956 Co953 1.966 . S
O956 C954 1.263 . S
C957 O958 1.235 . S
C957 O984 1.289 . S
O958 C957 1.235 . S
C959 C961 1.400 . S
C959 N962 1.351 . S
C959 C964 1.501 . S
C960 C961 1.387 . S
C960 N963 1.341 . S
C961 C959 1.400 . S
C961 C960 1.387 . S
N962 Co953 2.022 . S
N962 C959 1.351 . S
N962 N963 1.365 . S
N963 C960 1.341 . S
N963 N962 1.365 . S
N963 H983 0.862 . S
C964 C959 1.501 . S
C964 H965 0.961 . S
C964 H966 0.961 . S
C964 H967 0.960 . S
H965 C964 0.961 . S
H966 C964 0.961 . S
H967 C964 0.960 . S
C968 N969 1.342 . S
C968 C972 1.401 . S
C968 C973 1.499 . S
N969 Co952 1.989 . S
N969 C968 1.342 . S
N969 N970 1.388 . S
N970 Co953 1.993 . S
N970 N969 1.388 . S
N970 C971 1.346 . S
C971 N970 1.346 . S
C971 C972 1.396 . S
C971 C981 1.510 . S
C972 C968 1.401 . S
C972 C971 1.396 . S
C973 C968 1.499 . S
C973 H974 0.959 . S
C973 H975 0.960 . S
C973 H976 0.961 . S
H974 C973 0.959 . S
H975 C973 0.960 . S
H976 C973 0.961 . S
O977 Co952 1.967 . S
O977 C985 1.258 . S
O978 Co953 1.941 . S
O978 C985 1.266 . S
H979 C981 0.959 . S
H980 C981 0.961 . S
C981 C971 1.510 . S
C981 H979 0.959 . S
C981 H980 0.961 . S
C981 H982 0.960 . S
H982 C981 0.960 . S
H983 N963 0.862 . S
O984 Co952 1.920 . S
O984 C957 1.289 . S
C985 O977 1.258 . S
C985 O978 1.266 . S
Co986 O989 1.970 . S
Co986 N1003 1.989 . S
Co986 O1011 1.967 . S
Co986 O1018 1.920 . S
Co987 O990 1.966 . S
Co987 N996 2.022 . S
Co987 N1004 1.993 . S
Co987 O1012 1.941 . S
C988 O989 1.258 . S
C988 O990 1.263 . S
O989 Co986 1.970 . S
O989 C988 1.258 . S
O990 Co987 1.966 . S
O990 C988 1.263 . S
C991 O992 1.235 . S
C991 O1018 1.289 . S
O992 C991 1.235 . S
C993 C995 1.400 . S
C993 N996 1.351 . S
C993 C998 1.501 . S
C994 C995 1.387 . S
C994 N997 1.341 . S
C995 C993 1.400 . S
C995 C994 1.387 . S
N996 Co987 2.022 . S
N996 C993 1.351 . S
N996 N997 1.365 . S
N997 C994 1.341 . S
N997 N996 1.365 . S
N997 H1017 0.862 . S
C998 C993 1.501 . S
C998 H999 0.961 . S
C998 H1000 0.961 . S
C998 H1001 0.960 . S
H999 C998 0.961 . S
H1000 C998 0.961 . S
H1001 C998 0.960 . S
C1002 N1003 1.342 . S
C1002 C1006 1.401 . S
C1002 C1007 1.499 . S
N1003 Co986 1.989 . S
N1003 C1002 1.342 . S
N1003 N1004 1.388 . S
N1004 Co987 1.993 . S
N1004 N1003 1.388 . S
N1004 C1005 1.346 . S
C1005 N1004 1.346 . S
C1005 C1006 1.396 . S
C1005 C1015 1.510 . S
C1006 C1002 1.401 . S
C1006 C1005 1.396 . S
C1007 C1002 1.499 . S
C1007 H1008 0.959 . S
C1007 H1009 0.960 . S
C1007 H1010 0.961 . S
H1008 C1007 0.959 . S
H1009 C1007 0.960 . S
H1010 C1007 0.961 . S
O1011 Co986 1.967 . S
O1011 C1019 1.258 . S
O1012 Co987 1.941 . S
O1012 C1019 1.266 . S
H1013 C1015 0.959 . S
H1014 C1015 0.961 . S
C1015 C1005 1.510 . S
C1015 H1013 0.959 . S
C1015 H1014 0.961 . S
C1015 H1016 0.960 . S
H1016 C1015 0.960 . S
H1017 N997 0.862 . S
O1018 Co986 1.920 . S
O1018 C991 1.289 . S
C1019 O1011 1.258 . S
C1019 O1012 1.266 . S
Co1020 O1023 1.970 . S
Co1020 N1037 1.989 . S
Co1020 O1045 1.967 . S
Co1020 O1052 1.920 . S
Co1021 O1024 1.966 . S
Co1021 N1030 2.022 . S
Co1021 N1038 1.993 . S
Co1021 O1046 1.941 . S
C1022 O1023 1.258 . S
C1022 O1024 1.263 . S
O1023 Co1020 1.970 . S
O1023 C1022 1.258 . S
O1024 Co1021 1.966 . S
O1024 C1022 1.263 . S
C1025 O1026 1.235 . S
C1025 O1052 1.289 . S
O1026 C1025 1.235 . S
C1027 C1029 1.400 . S
C1027 N1030 1.351 . S
C1027 C1032 1.501 . S
C1028 C1029 1.387 . S
C1028 N1031 1.341 . S
C1029 C1027 1.400 . S
C1029 C1028 1.387 . S
N1030 Co1021 2.022 . S
N1030 C1027 1.351 . S
N1030 N1031 1.365 . S
N1031 C1028 1.341 . S
N1031 N1030 1.365 . S
N1031 H1051 0.862 . S
C1032 C1027 1.501 . S
C1032 H1033 0.961 . S
C1032 H1034 0.961 . S
C1032 H1035 0.960 . S
H1033 C1032 0.961 . S
H1034 C1032 0.961 . S
H1035 C1032 0.960 . S
C1036 N1037 1.342 . S
C1036 C1040 1.401 . S
C1036 C1041 1.499 . S
N1037 Co1020 1.989 . S
N1037 C1036 1.342 . S
N1037 N1038 1.388 . S
N1038 Co1021 1.993 . S
N1038 N1037 1.388 . S
N1038 C1039 1.346 . S
C1039 N1038 1.346 . S
C1039 C1040 1.396 . S
C1039 C1049 1.510 . S
C1040 C1036 1.401 . S
C1040 C1039 1.396 . S
C1041 C1036 1.499 . S
C1041 H1042 0.959 . S
C1041 H1043 0.960 . S
C1041 H1044 0.961 . S
H1042 C1041 0.959 . S
H1043 C1041 0.960 . S
H1044 C1041 0.961 . S
O1045 Co1020 1.967 . S
O1045 C1053 1.258 . S
O1046 Co1021 1.941 . S
O1046 C1053 1.266 . S
H1047 C1049 0.959 . S
H1048 C1049 0.961 . S
C1049 C1039 1.510 . S
C1049 H1047 0.959 . S
C1049 H1048 0.961 . S
C1049 H1050 0.960 . S
H1050 C1049 0.960 . S
H1051 N1031 0.862 . S
O1052 Co1020 1.920 . S
O1052 C1025 1.289 . S
C1053 O1045 1.258 . S
C1053 O1046 1.266 . S
Co1054 O1057 1.970 . S
Co1054 N1071 1.989 . S
Co1054 O1079 1.967 . S
Co1054 O1086 1.920 . S
Co1055 O1058 1.966 . S
Co1055 N1064 2.022 . S
Co1055 N1072 1.993 . S
Co1055 O1080 1.941 . S
C1056 O1057 1.258 . S
C1056 O1058 1.263 . S
O1057 Co1054 1.970 . S
O1057 C1056 1.258 . S
O1058 Co1055 1.966 . S
O1058 C1056 1.263 . S
C1059 O1060 1.235 . S
C1059 O1086 1.289 . S
O1060 C1059 1.235 . S
C1061 C1063 1.400 . S
C1061 N1064 1.351 . S
C1061 C1066 1.501 . S
C1062 C1063 1.387 . S
C1062 N1065 1.341 . S
C1063 C1061 1.400 . S
C1063 C1062 1.387 . S
N1064 Co1055 2.022 . S
N1064 C1061 1.351 . S
N1064 N1065 1.365 . S
N1065 C1062 1.341 . S
N1065 N1064 1.365 . S
N1065 H1085 0.862 . S
C1066 C1061 1.501 . S
C1066 H1067 0.961 . S
C1066 H1068 0.961 . S
C1066 H1069 0.960 . S
H1067 C1066 0.961 . S
H1068 C1066 0.961 . S
H1069 C1066 0.960 . S
C1070 N1071 1.342 . S
C1070 C1074 1.401 . S
C1070 C1075 1.499 . S
N1071 Co1054 1.989 . S
N1071 C1070 1.342 . S
N1071 N1072 1.388 . S
N1072 Co1055 1.993 . S
N1072 N1071 1.388 . S
N1072 C1073 1.346 . S
C1073 N1072 1.346 . S
C1073 C1074 1.396 . S
C1073 C1083 1.510 . S
C1074 C1070 1.401 . S
C1074 C1073 1.396 . S
C1075 C1070 1.499 . S
C1075 H1076 0.959 . S
C1075 H1077 0.960 . S
C1075 H1078 0.961 . S
H1076 C1075 0.959 . S
H1077 C1075 0.960 . S
H1078 C1075 0.961 . S
O1079 Co1054 1.967 . S
O1079 C1087 1.258 . S
O1080 Co1055 1.941 . S
O1080 C1087 1.266 . S
H1081 C1083 0.959 . S
H1082 C1083 0.961 . S
C1083 C1073 1.510 . S
C1083 H1081 0.959 . S
C1083 H1082 0.961 . S
C1083 H1084 0.960 . S
H1084 C1083 0.960 . S
H1085 N1065 0.862 . S
O1086 Co1054 1.920 . S
O1086 C1059 1.289 . S
C1087 O1079 1.258 . S
C1087 O1080 1.266 . S
Co1088 O1091 1.970 . S
Co1088 N1105 1.989 . S
Co1088 O1113 1.967 . S
Co1088 O1120 1.920 . S
Co1089 O1092 1.966 . S
Co1089 N1098 2.022 . S
Co1089 N1106 1.993 . S
Co1089 O1114 1.941 . S
C1090 O1091 1.258 . S
C1090 O1092 1.263 . S
O1091 Co1088 1.970 . S
O1091 C1090 1.258 . S
O1092 Co1089 1.966 . S
O1092 C1090 1.263 . S
C1093 O1094 1.235 . S
C1093 O1120 1.289 . S
O1094 C1093 1.235 . S
C1095 C1097 1.400 . S
C1095 N1098 1.351 . S
C1095 C1100 1.501 . S
C1096 C1097 1.387 . S
C1096 N1099 1.341 . S
C1097 C1095 1.400 . S
C1097 C1096 1.387 . S
N1098 Co1089 2.022 . S
N1098 C1095 1.351 . S
N1098 N1099 1.365 . S
N1099 C1096 1.341 . S
N1099 N1098 1.365 . S
N1099 H1119 0.862 . S
C1100 C1095 1.501 . S
C1100 H1101 0.961 . S
C1100 H1102 0.961 . S
C1100 H1103 0.960 . S
H1101 C1100 0.961 . S
H1102 C1100 0.961 . S
H1103 C1100 0.960 . S
C1104 N1105 1.342 . S
C1104 C1108 1.401 . S
C1104 C1109 1.499 . S
N1105 Co1088 1.989 . S
N1105 C1104 1.342 . S
N1105 N1106 1.388 . S
N1106 Co1089 1.993 . S
N1106 N1105 1.388 . S
N1106 C1107 1.346 . S
C1107 N1106 1.346 . S
C1107 C1108 1.396 . S
C1107 C1117 1.510 . S
C1108 C1104 1.401 . S
C1108 C1107 1.396 . S
C1109 C1104 1.499 . S
C1109 H1110 0.959 . S
C1109 H1111 0.960 . S
C1109 H1112 0.961 . S
H1110 C1109 0.959 . S
H1111 C1109 0.960 . S
H1112 C1109 0.961 . S
O1113 Co1088 1.967 . S
O1113 C1121 1.258 . S
O1114 Co1089 1.941 . S
O1114 C1121 1.266 . S
H1115 C1117 0.959 . S
H1116 C1117 0.961 . S
C1117 C1107 1.510 . S
C1117 H1115 0.959 . S
C1117 H1116 0.961 . S
C1117 H1118 0.960 . S
H1118 C1117 0.960 . S
H1119 N1099 0.862 . S
O1120 Co1088 1.920 . S
O1120 C1093 1.289 . S
C1121 O1113 1.258 . S
C1121 O1114 1.266 . S
Co1122 O1125 1.970 . S
Co1122 N1139 1.989 . S
Co1122 O1147 1.967 . S
Co1122 O1154 1.920 . S
Co1123 O1126 1.966 . S
Co1123 N1132 2.022 . S
Co1123 N1140 1.993 . S
Co1123 O1148 1.941 . S
C1124 O1125 1.258 . S
C1124 O1126 1.263 . S
O1125 Co1122 1.970 . S
O1125 C1124 1.258 . S
O1126 Co1123 1.966 . S
O1126 C1124 1.263 . S
C1127 O1128 1.235 . S
C1127 O1154 1.289 . S
O1128 C1127 1.235 . S
C1129 C1131 1.400 . S
C1129 N1132 1.351 . S
C1129 C1134 1.501 . S
C1130 C1131 1.387 . S
C1130 N1133 1.341 . S
C1131 C1129 1.400 . S
C1131 C1130 1.387 . S
N1132 Co1123 2.022 . S
N1132 C1129 1.351 . S
N1132 N1133 1.365 . S
N1133 C1130 1.341 . S
N1133 N1132 1.365 . S
N1133 H1153 0.862 . S
C1134 C1129 1.501 . S
C1134 H1135 0.961 . S
C1134 H1136 0.961 . S
C1134 H1137 0.960 . S
H1135 C1134 0.961 . S
H1136 C1134 0.961 . S
H1137 C1134 0.960 . S
C1138 N1139 1.342 . S
C1138 C1142 1.401 . S
C1138 C1143 1.499 . S
N1139 Co1122 1.989 . S
N1139 C1138 1.342 . S
N1139 N1140 1.388 . S
N1140 Co1123 1.993 . S
N1140 N1139 1.388 . S
N1140 C1141 1.346 . S
C1141 N1140 1.346 . S
C1141 C1142 1.396 . S
C1141 C1151 1.510 . S
C1142 C1138 1.401 . S
C1142 C1141 1.396 . S
C1143 C1138 1.499 . S
C1143 H1144 0.959 . S
C1143 H1145 0.960 . S
C1143 H1146 0.961 . S
H1144 C1143 0.959 . S
H1145 C1143 0.960 . S
H1146 C1143 0.961 . S
O1147 Co1122 1.967 . S
O1147 C1155 1.258 . S
O1148 Co1123 1.941 . S
O1148 C1155 1.266 . S
H1149 C1151 0.959 . S
H1150 C1151 0.961 . S
C1151 C1141 1.510 . S
C1151 H1149 0.959 . S
C1151 H1150 0.961 . S
C1151 H1152 0.960 . S
H1152 C1151 0.960 . S
H1153 N1133 0.862 . S
O1154 Co1122 1.920 . S
O1154 C1127 1.289 . S
C1155 O1147 1.258 . S
C1155 O1148 1.266 . S
Co1156 O1159 1.970 . S
Co1156 N1173 1.989 . S
Co1156 O1181 1.967 . S
Co1156 O1188 1.920 . S
Co1157 O1160 1.966 . S
Co1157 N1166 2.022 . S
Co1157 N1174 1.993 . S
Co1157 O1182 1.941 . S
C1158 O1159 1.258 . S
C1158 O1160 1.263 . S
O1159 Co1156 1.970 . S
O1159 C1158 1.258 . S
O1160 Co1157 1.966 . S
O1160 C1158 1.263 . S
C1161 O1162 1.235 . S
C1161 O1188 1.289 . S
O1162 C1161 1.235 . S
C1163 C1165 1.400 . S
C1163 N1166 1.351 . S
C1163 C1168 1.501 . S
C1164 C1165 1.387 . S
C1164 N1167 1.341 . S
C1165 C1163 1.400 . S
C1165 C1164 1.387 . S
N1166 Co1157 2.022 . S
N1166 C1163 1.351 . S
N1166 N1167 1.365 . S
N1167 C1164 1.341 . S
N1167 N1166 1.365 . S
N1167 H1187 0.862 . S
C1168 C1163 1.501 . S
C1168 H1169 0.961 . S
C1168 H1170 0.961 . S
C1168 H1171 0.960 . S
H1169 C1168 0.961 . S
H1170 C1168 0.961 . S
H1171 C1168 0.960 . S
C1172 N1173 1.342 . S
C1172 C1176 1.401 . S
C1172 C1177 1.499 . S
N1173 Co1156 1.989 . S
N1173 C1172 1.342 . S
N1173 N1174 1.388 . S
N1174 Co1157 1.993 . S
N1174 N1173 1.388 . S
N1174 C1175 1.346 . S
C1175 N1174 1.346 . S
C1175 C1176 1.396 . S
C1175 C1185 1.510 . S
C1176 C1172 1.401 . S
C1176 C1175 1.396 . S
C1177 C1172 1.499 . S
C1177 H1178 0.959 . S
C1177 H1179 0.960 . S
C1177 H1180 0.961 . S
H1178 C1177 0.959 . S
H1179 C1177 0.960 . S
H1180 C1177 0.961 . S
O1181 Co1156 1.967 . S
O1181 C1189 1.258 . S
O1182 Co1157 1.941 . S
O1182 C1189 1.266 . S
H1183 C1185 0.959 . S
H1184 C1185 0.961 . S
C1185 C1175 1.510 . S
C1185 H1183 0.959 . S
C1185 H1184 0.961 . S
C1185 H1186 0.960 . S
H1186 C1185 0.960 . S
H1187 N1167 0.862 . S
O1188 Co1156 1.920 . S
O1188 C1161 1.289 . S
C1189 O1181 1.258 . S
C1189 O1182 1.266 . S
Co1190 O1193 1.970 . S
Co1190 N1207 1.989 . S
Co1190 O1215 1.967 . S
Co1190 O1222 1.920 . S
Co1191 O1194 1.966 . S
Co1191 N1200 2.022 . S
Co1191 N1208 1.993 . S
Co1191 O1216 1.941 . S
C1192 O1193 1.258 . S
C1192 O1194 1.263 . S
O1193 Co1190 1.970 . S
O1193 C1192 1.258 . S
O1194 Co1191 1.966 . S
O1194 C1192 1.263 . S
C1195 O1196 1.235 . S
C1195 O1222 1.289 . S
O1196 C1195 1.235 . S
C1197 C1199 1.400 . S
C1197 N1200 1.351 . S
C1197 C1202 1.501 . S
C1198 C1199 1.387 . S
C1198 N1201 1.341 . S
C1199 C1197 1.400 . S
C1199 C1198 1.387 . S
N1200 Co1191 2.022 . S
N1200 C1197 1.351 . S
N1200 N1201 1.365 . S
N1201 C1198 1.341 . S
N1201 N1200 1.365 . S
N1201 H1221 0.862 . S
C1202 C1197 1.501 . S
C1202 H1203 0.961 . S
C1202 H1204 0.961 . S
C1202 H1205 0.960 . S
H1203 C1202 0.961 . S
H1204 C1202 0.961 . S
H1205 C1202 0.960 . S
C1206 N1207 1.342 . S
C1206 C1210 1.401 . S
C1206 C1211 1.499 . S
N1207 Co1190 1.989 . S
N1207 C1206 1.342 . S
N1207 N1208 1.388 . S
N1208 Co1191 1.993 . S
N1208 N1207 1.388 . S
N1208 C1209 1.346 . S
C1209 N1208 1.346 . S
C1209 C1210 1.396 . S
C1209 C1219 1.510 . S
C1210 C1206 1.401 . S
C1210 C1209 1.396 . S
C1211 C1206 1.499 . S
C1211 H1212 0.959 . S
C1211 H1213 0.960 . S
C1211 H1214 0.961 . S
H1212 C1211 0.959 . S
H1213 C1211 0.960 . S
H1214 C1211 0.961 . S
O1215 Co1190 1.967 . S
O1215 C1223 1.258 . S
O1216 Co1191 1.941 . S
O1216 C1223 1.266 . S
H1217 C1219 0.959 . S
H1218 C1219 0.961 . S
C1219 C1209 1.510 . S
C1219 H1217 0.959 . S
C1219 H1218 0.961 . S
C1219 H1220 0.960 . S
H1220 C1219 0.960 . S
H1221 N1201 0.862 . S
O1222 Co1190 1.920 . S
O1222 C1195 1.289 . S
C1223 O1215 1.258 . S
C1223 O1216 1.266 . S
Co1224 O1227 1.970 . S
Co1224 N1241 1.989 . S
Co1224 O1249 1.967 . S
Co1224 O1256 1.920 . S
Co1225 O1228 1.966 . S
Co1225 N1234 2.022 . S
Co1225 N1242 1.993 . S
Co1225 O1250 1.941 . S
C1226 O1227 1.258 . S
C1226 O1228 1.263 . S
O1227 Co1224 1.970 . S
O1227 C1226 1.258 . S
O1228 Co1225 1.966 . S
O1228 C1226 1.263 . S
C1229 O1230 1.235 . S
C1229 O1256 1.289 . S
O1230 C1229 1.235 . S
C1231 C1233 1.400 . S
C1231 N1234 1.351 . S
C1231 C1236 1.501 . S
C1232 C1233 1.387 . S
C1232 N1235 1.341 . S
C1233 C1231 1.400 . S
C1233 C1232 1.387 . S
N1234 Co1225 2.022 . S
N1234 C1231 1.351 . S
N1234 N1235 1.365 . S
N1235 C1232 1.341 . S
N1235 N1234 1.365 . S
N1235 H1255 0.862 . S
C1236 C1231 1.501 . S
C1236 H1237 0.961 . S
C1236 H1238 0.961 . S
C1236 H1239 0.960 . S
H1237 C1236 0.961 . S
H1238 C1236 0.961 . S
H1239 C1236 0.960 . S
C1240 N1241 1.342 . S
C1240 C1244 1.401 . S
C1240 C1245 1.499 . S
N1241 Co1224 1.989 . S
N1241 C1240 1.342 . S
N1241 N1242 1.388 . S
N1242 Co1225 1.993 . S
N1242 N1241 1.388 . S
N1242 C1243 1.346 . S
C1243 N1242 1.346 . S
C1243 C1244 1.396 . S
C1243 C1253 1.510 . S
C1244 C1240 1.401 . S
C1244 C1243 1.396 . S
C1245 C1240 1.499 . S
C1245 H1246 0.959 . S
C1245 H1247 0.960 . S
C1245 H1248 0.961 . S
H1246 C1245 0.959 . S
H1247 C1245 0.960 . S
H1248 C1245 0.961 . S
O1249 Co1224 1.967 . S
O1249 C1257 1.258 . S
O1250 Co1225 1.941 . S
O1250 C1257 1.266 . S
H1251 C1253 0.959 . S
H1252 C1253 0.961 . S
C1253 C1243 1.510 . S
C1253 H1251 0.959 . S
C1253 H1252 0.961 . S
C1253 H1254 0.960 . S
H1254 C1253 0.960 . S
H1255 N1235 0.862 . S
O1256 Co1224 1.920 . S
O1256 C1229 1.289 . S
C1257 O1249 1.258 . S
C1257 O1250 1.266 . S
Co1258 O1261 1.970 . S
Co1258 N1275 1.989 . S
Co1258 O1283 1.967 . S
Co1258 O1290 1.920 . S
Co1259 O1262 1.966 . S
Co1259 N1268 2.022 . S
Co1259 N1276 1.993 . S
Co1259 O1284 1.941 . S
C1260 O1261 1.258 . S
C1260 O1262 1.263 . S
O1261 Co1258 1.970 . S
O1261 C1260 1.258 . S
O1262 Co1259 1.966 . S
O1262 C1260 1.263 . S
C1263 O1264 1.235 . S
C1263 O1290 1.289 . S
O1264 C1263 1.235 . S
C1265 C1267 1.400 . S
C1265 N1268 1.351 . S
C1265 C1270 1.501 . S
C1266 C1267 1.387 . S
C1266 N1269 1.341 . S
C1267 C1265 1.400 . S
C1267 C1266 1.387 . S
N1268 Co1259 2.022 . S
N1268 C1265 1.351 . S
N1268 N1269 1.365 . S
N1269 C1266 1.341 . S
N1269 N1268 1.365 . S
N1269 H1289 0.862 . S
C1270 C1265 1.501 . S
C1270 H1271 0.961 . S
C1270 H1272 0.961 . S
C1270 H1273 0.960 . S
H1271 C1270 0.961 . S
H1272 C1270 0.961 . S
H1273 C1270 0.960 . S
C1274 N1275 1.342 . S
C1274 C1278 1.401 . S
C1274 C1279 1.499 . S
N1275 Co1258 1.989 . S
N1275 C1274 1.342 . S
N1275 N1276 1.388 . S
N1276 Co1259 1.993 . S
N1276 N1275 1.388 . S
N1276 C1277 1.346 . S
C1277 N1276 1.346 . S
C1277 C1278 1.396 . S
C1277 C1287 1.510 . S
C1278 C1274 1.401 . S
C1278 C1277 1.396 . S
C1279 C1274 1.499 . S
C1279 H1280 0.959 . S
C1279 H1281 0.960 . S
C1279 H1282 0.961 . S
H1280 C1279 0.959 . S
H1281 C1279 0.960 . S
H1282 C1279 0.961 . S
O1283 Co1258 1.967 . S
O1283 C1291 1.258 . S
O1284 Co1259 1.941 . S
O1284 C1291 1.266 . S
H1285 C1287 0.959 . S
H1286 C1287 0.961 . S
C1287 C1277 1.510 . S
C1287 H1285 0.959 . S
C1287 H1286 0.961 . S
C1287 H1288 0.960 . S
H1288 C1287 0.960 . S
H1289 N1269 0.862 . S
O1290 Co1258 1.920 . S
O1290 C1263 1.289 . S
C1291 O1283 1.258 . S
C1291 O1284 1.266 . S
Co1292 O1295 1.970 . S
Co1292 N1309 1.989 . S
Co1292 O1317 1.967 . S
Co1292 O1324 1.920 . S
Co1293 O1296 1.966 . S
Co1293 N1302 2.022 . S
Co1293 N1310 1.993 . S
Co1293 O1318 1.941 . S
C1294 O1295 1.258 . S
C1294 O1296 1.263 . S
O1295 Co1292 1.970 . S
O1295 C1294 1.258 . S
O1296 Co1293 1.966 . S
O1296 C1294 1.263 . S
C1297 O1298 1.235 . S
C1297 O1324 1.289 . S
O1298 C1297 1.235 . S
C1299 C1301 1.400 . S
C1299 N1302 1.351 . S
C1299 C1304 1.501 . S
C1300 C1301 1.387 . S
C1300 N1303 1.341 . S
C1301 C1299 1.400 . S
C1301 C1300 1.387 . S
N1302 Co1293 2.022 . S
N1302 C1299 1.351 . S
N1302 N1303 1.365 . S
N1303 C1300 1.341 . S
N1303 N1302 1.365 . S
N1303 H1323 0.862 . S
C1304 C1299 1.501 . S
C1304 H1305 0.961 . S
C1304 H1306 0.961 . S
C1304 H1307 0.960 . S
H1305 C1304 0.961 . S
H1306 C1304 0.961 . S
H1307 C1304 0.960 . S
C1308 N1309 1.342 . S
C1308 C1312 1.401 . S
C1308 C1313 1.499 . S
N1309 Co1292 1.989 . S
N1309 C1308 1.342 . S
N1309 N1310 1.388 . S
N1310 Co1293 1.993 . S
N1310 N1309 1.388 . S
N1310 C1311 1.346 . S
C1311 N1310 1.346 . S
C1311 C1312 1.396 . S
C1311 C1321 1.510 . S
C1312 C1308 1.401 . S
C1312 C1311 1.396 . S
C1313 C1308 1.499 . S
C1313 H1314 0.959 . S
C1313 H1315 0.960 . S
C1313 H1316 0.961 . S
H1314 C1313 0.959 . S
H1315 C1313 0.960 . S
H1316 C1313 0.961 . S
O1317 Co1292 1.967 . S
O1317 C1325 1.258 . S
O1318 Co1293 1.941 . S
O1318 C1325 1.266 . S
H1319 C1321 0.959 . S
H1320 C1321 0.961 . S
C1321 C1311 1.510 . S
C1321 H1319 0.959 . S
C1321 H1320 0.961 . S
C1321 H1322 0.960 . S
H1322 C1321 0.960 . S
H1323 N1303 0.862 . S
O1324 Co1292 1.920 . S
O1324 C1297 1.289 . S
C1325 O1317 1.258 . S
C1325 O1318 1.266 . S
Co1326 O1329 1.970 . S
Co1326 N1343 1.989 . S
Co1326 O1351 1.967 . S
Co1326 O1358 1.920 . S
Co1327 O1330 1.966 . S
Co1327 N1336 2.022 . S
Co1327 N1344 1.993 . S
Co1327 O1352 1.941 . S
C1328 O1329 1.258 . S
C1328 O1330 1.263 . S
O1329 Co1326 1.970 . S
O1329 C1328 1.258 . S
O1330 Co1327 1.966 . S
O1330 C1328 1.263 . S
C1331 O1332 1.235 . S
C1331 O1358 1.289 . S
O1332 C1331 1.235 . S
C1333 C1335 1.400 . S
C1333 N1336 1.351 . S
C1333 C1338 1.501 . S
C1334 C1335 1.387 . S
C1334 N1337 1.341 . S
C1335 C1333 1.400 . S
C1335 C1334 1.387 . S
N1336 Co1327 2.022 . S
N1336 C1333 1.351 . S
N1336 N1337 1.365 . S
N1337 C1334 1.341 . S
N1337 N1336 1.365 . S
N1337 H1357 0.862 . S
C1338 C1333 1.501 . S
C1338 H1339 0.961 . S
C1338 H1340 0.961 . S
C1338 H1341 0.960 . S
H1339 C1338 0.961 . S
H1340 C1338 0.961 . S
H1341 C1338 0.960 . S
C1342 N1343 1.342 . S
C1342 C1346 1.401 . S
C1342 C1347 1.499 . S
N1343 Co1326 1.989 . S
N1343 C1342 1.342 . S
N1343 N1344 1.388 . S
N1344 Co1327 1.993 . S
N1344 N1343 1.388 . S
N1344 C1345 1.346 . S
C1345 N1344 1.346 . S
C1345 C1346 1.396 . S
C1345 C1355 1.510 . S
C1346 C1342 1.401 . S
C1346 C1345 1.396 . S
C1347 C1342 1.499 . S
C1347 H1348 0.959 . S
C1347 H1349 0.960 . S
C1347 H1350 0.961 . S
H1348 C1347 0.959 . S
H1349 C1347 0.960 . S
H1350 C1347 0.961 . S
O1351 Co1326 1.967 . S
O1351 C1359 1.258 . S
O1352 Co1327 1.941 . S
O1352 C1359 1.266 . S
H1353 C1355 0.959 . S
H1354 C1355 0.961 . S
C1355 C1345 1.510 . S
C1355 H1353 0.959 . S
C1355 H1354 0.961 . S
C1355 H1356 0.960 . S
H1356 C1355 0.960 . S
H1357 N1337 0.862 . S
O1358 Co1326 1.920 . S
O1358 C1331 1.289 . S
C1359 O1351 1.258 . S
C1359 O1352 1.266 . S
Co1360 O1363 1.970 . S
Co1360 N1377 1.989 . S
Co1360 O1385 1.967 . S
Co1360 O1392 1.920 . S
Co1361 O1364 1.966 . S
Co1361 N1370 2.022 . S
Co1361 N1378 1.993 . S
Co1361 O1386 1.941 . S
C1362 O1363 1.258 . S
C1362 O1364 1.263 . S
O1363 Co1360 1.970 . S
O1363 C1362 1.258 . S
O1364 Co1361 1.966 . S
O1364 C1362 1.263 . S
C1365 O1366 1.235 . S
C1365 O1392 1.289 . S
O1366 C1365 1.235 . S
C1367 C1369 1.400 . S
C1367 N1370 1.351 . S
C1367 C1372 1.501 . S
C1368 C1369 1.387 . S
C1368 N1371 1.341 . S
C1369 C1367 1.400 . S
C1369 C1368 1.387 . S
N1370 Co1361 2.022 . S
N1370 C1367 1.351 . S
N1370 N1371 1.365 . S
N1371 C1368 1.341 . S
N1371 N1370 1.365 . S
N1371 H1391 0.862 . S
C1372 C1367 1.501 . S
C1372 H1373 0.961 . S
C1372 H1374 0.961 . S
C1372 H1375 0.960 . S
H1373 C1372 0.961 . S
H1374 C1372 0.961 . S
H1375 C1372 0.960 . S
C1376 N1377 1.342 . S
C1376 C1380 1.401 . S
C1376 C1381 1.499 . S
N1377 Co1360 1.989 . S
N1377 C1376 1.342 . S
N1377 N1378 1.388 . S
N1378 Co1361 1.993 . S
N1378 N1377 1.388 . S
N1378 C1379 1.346 . S
C1379 N1378 1.346 . S
C1379 C1380 1.396 . S
C1379 C1389 1.510 . S
C1380 C1376 1.401 . S
C1380 C1379 1.396 . S
C1381 C1376 1.499 . S
C1381 H1382 0.959 . S
C1381 H1383 0.960 . S
C1381 H1384 0.961 . S
H1382 C1381 0.959 . S
H1383 C1381 0.960 . S
H1384 C1381 0.961 . S
O1385 Co1360 1.967 . S
O1385 C1393 1.258 . S
O1386 Co1361 1.941 . S
O1386 C1393 1.266 . S
H1387 C1389 0.959 . S
H1388 C1389 0.961 . S
C1389 C1379 1.510 . S
C1389 H1387 0.959 . S
C1389 H1388 0.961 . S
C1389 H1390 0.960 . S
H1390 C1389 0.960 . S
H1391 N1371 0.862 . S
O1392 Co1360 1.920 . S
O1392 C1365 1.289 . S
C1393 O1385 1.258 . S
C1393 O1386 1.266 . S
Co1394 O1397 1.970 . S
Co1394 N1411 1.989 . S
Co1394 O1419 1.967 . S
Co1394 O1426 1.920 . S
Co1395 O1398 1.966 . S
Co1395 N1404 2.022 . S
Co1395 N1412 1.993 . S
Co1395 O1420 1.941 . S
C1396 O1397 1.258 . S
C1396 O1398 1.263 . S
O1397 Co1394 1.970 . S
O1397 C1396 1.258 . S
O1398 Co1395 1.966 . S
O1398 C1396 1.263 . S
C1399 O1400 1.235 . S
C1399 O1426 1.289 . S
O1400 C1399 1.235 . S
C1401 C1403 1.400 . S
C1401 N1404 1.351 . S
C1401 C1406 1.501 . S
C1402 C1403 1.387 . S
C1402 N1405 1.341 . S
C1403 C1401 1.400 . S
C1403 C1402 1.387 . S
N1404 Co1395 2.022 . S
N1404 C1401 1.351 . S
N1404 N1405 1.365 . S
N1405 C1402 1.341 . S
N1405 N1404 1.365 . S
N1405 H1425 0.862 . S
C1406 C1401 1.501 . S
C1406 H1407 0.961 . S
C1406 H1408 0.961 . S
C1406 H1409 0.960 . S
H1407 C1406 0.961 . S
H1408 C1406 0.961 . S
H1409 C1406 0.960 . S
C1410 N1411 1.342 . S
C1410 C1414 1.401 . S
C1410 C1415 1.499 . S
N1411 Co1394 1.989 . S
N1411 C1410 1.342 . S
N1411 N1412 1.388 . S
N1412 Co1395 1.993 . S
N1412 N1411 1.388 . S
N1412 C1413 1.346 . S
C1413 N1412 1.346 . S
C1413 C1414 1.396 . S
C1413 C1423 1.510 . S
C1414 C1410 1.401 . S
C1414 C1413 1.396 . S
C1415 C1410 1.499 . S
C1415 H1416 0.959 . S
C1415 H1417 0.960 . S
C1415 H1418 0.961 . S
H1416 C1415 0.959 . S
H1417 C1415 0.960 . S
H1418 C1415 0.961 . S
O1419 Co1394 1.967 . S
O1419 C1427 1.258 . S
O1420 Co1395 1.941 . S
O1420 C1427 1.266 . S
H1421 C1423 0.959 . S
H1422 C1423 0.961 . S
C1423 C1413 1.510 . S
C1423 H1421 0.959 . S
C1423 H1422 0.961 . S
C1423 H1424 0.960 . S
H1424 C1423 0.960 . S
H1425 N1405 0.862 . S
O1426 Co1394 1.920 . S
O1426 C1399 1.289 . S
C1427 O1419 1.258 . S
C1427 O1420 1.266 . S
Co1428 O1431 1.970 . S
Co1428 N1445 1.989 . S
Co1428 O1453 1.967 . S
Co1428 O1460 1.920 . S
Co1429 O1432 1.966 . S
Co1429 N1438 2.022 . S
Co1429 N1446 1.993 . S
Co1429 O1454 1.941 . S
C1430 O1431 1.258 . S
C1430 O1432 1.263 . S
O1431 Co1428 1.970 . S
O1431 C1430 1.258 . S
O1432 Co1429 1.966 . S
O1432 C1430 1.263 . S
C1433 O1434 1.235 . S
C1433 O1460 1.289 . S
O1434 C1433 1.235 . S
C1435 C1437 1.400 . S
C1435 N1438 1.351 . S
C1435 C1440 1.501 . S
C1436 C1437 1.387 . S
C1436 N1439 1.341 . S
C1437 C1435 1.400 . S
C1437 C1436 1.387 . S
N1438 Co1429 2.022 . S
N1438 C1435 1.351 . S
N1438 N1439 1.365 . S
N1439 C1436 1.341 . S
N1439 N1438 1.365 . S
N1439 H1459 0.862 . S
C1440 C1435 1.501 . S
C1440 H1441 0.961 . S
C1440 H1442 0.961 . S
C1440 H1443 0.960 . S
H1441 C1440 0.961 . S
H1442 C1440 0.961 . S
H1443 C1440 0.960 . S
C1444 N1445 1.342 . S
C1444 C1448 1.401 . S
C1444 C1449 1.499 . S
N1445 Co1428 1.989 . S
N1445 C1444 1.342 . S
N1445 N1446 1.388 . S
N1446 Co1429 1.993 . S
N1446 N1445 1.388 . S
N1446 C1447 1.346 . S
C1447 N1446 1.346 . S
C1447 C1448 1.396 . S
C1447 C1457 1.510 . S
C1448 C1444 1.401 . S
C1448 C1447 1.396 . S
C1449 C1444 1.499 . S
C1449 H1450 0.959 . S
C1449 H1451 0.960 . S
C1449 H1452 0.961 . S
H1450 C1449 0.959 . S
H1451 C1449 0.960 . S
H1452 C1449 0.961 . S
O1453 Co1428 1.967 . S
O1453 C1461 1.258 . S
O1454 Co1429 1.941 . S
O1454 C1461 1.266 . S
H1455 C1457 0.959 . S
H1456 C1457 0.961 . S
C1457 C1447 1.510 . S
C1457 H1455 0.959 . S
C1457 H1456 0.961 . S
C1457 H1458 0.960 . S
H1458 C1457 0.960 . S
H1459 N1439 0.862 . S
O1460 Co1428 1.920 . S
O1460 C1433 1.289 . S
C1461 O1453 1.258 . S
C1461 O1454 1.266 . S
Co1462 O1465 1.970 . S
Co1462 N1479 1.989 . S
Co1462 O1487 1.967 . S
Co1462 O1494 1.920 . S
Co1463 O1466 1.966 . S
Co1463 N1472 2.022 . S
Co1463 N1480 1.993 . S
Co1463 O1488 1.941 . S
C1464 O1465 1.258 . S
C1464 O1466 1.263 . S
O1465 Co1462 1.970 . S
O1465 C1464 1.258 . S
O1466 Co1463 1.966 . S
O1466 C1464 1.263 . S
C1467 O1468 1.235 . S
C1467 O1494 1.289 . S
O1468 C1467 1.235 . S
C1469 C1471 1.400 . S
C1469 N1472 1.351 . S
C1469 C1474 1.501 . S
C1470 C1471 1.387 . S
C1470 N1473 1.341 . S
C1471 C1469 1.400 . S
C1471 C1470 1.387 . S
N1472 Co1463 2.022 . S
N1472 C1469 1.351 . S
N1472 N1473 1.365 . S
N1473 C1470 1.341 . S
N1473 N1472 1.365 . S
N1473 H1493 0.862 . S
C1474 C1469 1.501 . S
C1474 H1475 0.961 . S
C1474 H1476 0.961 . S
C1474 H1477 0.960 . S
H1475 C1474 0.961 . S
H1476 C1474 0.961 . S
H1477 C1474 0.960 . S
C1478 N1479 1.342 . S
C1478 C1482 1.401 . S
C1478 C1483 1.499 . S
N1479 Co1462 1.989 . S
N1479 C1478 1.342 . S
N1479 N1480 1.388 . S
N1480 Co1463 1.993 . S
N1480 N1479 1.388 . S
N1480 C1481 1.346 . S
C1481 N1480 1.346 . S
C1481 C1482 1.396 . S
C1481 C1491 1.510 . S
C1482 C1478 1.401 . S
C1482 C1481 1.396 . S
C1483 C1478 1.499 . S
C1483 H1484 0.959 . S
C1483 H1485 0.960 . S
C1483 H1486 0.961 . S
H1484 C1483 0.959 . S
H1485 C1483 0.960 . S
H1486 C1483 0.961 . S
O1487 Co1462 1.967 . S
O1487 C1495 1.258 . S
O1488 Co1463 1.941 . S
O1488 C1495 1.266 . S
H1489 C1491 0.959 . S
H1490 C1491 0.961 . S
C1491 C1481 1.510 . S
C1491 H1489 0.959 . S
C1491 H1490 0.961 . S
C1491 H1492 0.960 . S
H1492 C1491 0.960 . S
H1493 N1473 0.862 . S
O1494 Co1462 1.920 . S
O1494 C1467 1.289 . S
C1495 O1487 1.258 . S
C1495 O1488 1.266 . S
Co1496 O1499 1.970 . S
Co1496 N1513 1.989 . S
Co1496 O1521 1.967 . S
Co1496 O1528 1.920 . S
Co1497 O1500 1.966 . S
Co1497 N1506 2.022 . S
Co1497 N1514 1.993 . S
Co1497 O1522 1.941 . S
C1498 O1499 1.258 . S
C1498 O1500 1.263 . S
O1499 Co1496 1.970 . S
O1499 C1498 1.258 . S
O1500 Co1497 1.966 . S
O1500 C1498 1.263 . S
C1501 O1502 1.235 . S
C1501 O1528 1.289 . S
O1502 C1501 1.235 . S
C1503 C1505 1.400 . S
C1503 N1506 1.351 . S
C1503 C1508 1.501 . S
C1504 C1505 1.387 . S
C1504 N1507 1.341 . S
C1505 C1503 1.400 . S
C1505 C1504 1.387 . S
N1506 Co1497 2.022 . S
N1506 C1503 1.351 . S
N1506 N1507 1.365 . S
N1507 C1504 1.341 . S
N1507 N1506 1.365 . S
N1507 H1527 0.862 . S
C1508 C1503 1.501 . S
C1508 H1509 0.961 . S
C1508 H1510 0.961 . S
C1508 H1511 0.960 . S
H1509 C1508 0.961 . S
H1510 C1508 0.961 . S
H1511 C1508 0.960 . S
C1512 N1513 1.342 . S
C1512 C1516 1.401 . S
C1512 C1517 1.499 . S
N1513 Co1496 1.989 . S
N1513 C1512 1.342 . S
N1513 N1514 1.388 . S
N1514 Co1497 1.993 . S
N1514 N1513 1.388 . S
N1514 C1515 1.346 . S
C1515 N1514 1.346 . S
C1515 C1516 1.396 . S
C1515 C1525 1.510 . S
C1516 C1512 1.401 . S
C1516 C1515 1.396 . S
C1517 C1512 1.499 . S
C1517 H1518 0.959 . S
C1517 H1519 0.960 . S
C1517 H1520 0.961 . S
H1518 C1517 0.959 . S
H1519 C1517 0.960 . S
H1520 C1517 0.961 . S
O1521 Co1496 1.967 . S
O1521 C1529 1.258 . S
O1522 Co1497 1.941 . S
O1522 C1529 1.266 . S
H1523 C1525 0.959 . S
H1524 C1525 0.961 . S
C1525 C1515 1.510 . S
C1525 H1523 0.959 . S
C1525 H1524 0.961 . S
C1525 H1526 0.960 . S
H1526 C1525 0.960 . S
H1527 N1507 0.862 . S
O1528 Co1496 1.920 . S
O1528 C1501 1.289 . S
C1529 O1521 1.258 . S
C1529 O1522 1.266 . S
Co1530 O1533 1.970 . S
Co1530 N1547 1.989 . S
Co1530 O1555 1.967 . S
Co1530 O1562 1.920 . S
Co1531 O1534 1.966 . S
Co1531 N1540 2.022 . S
Co1531 N1548 1.993 . S
Co1531 O1556 1.941 . S
C1532 O1533 1.258 . S
C1532 O1534 1.263 . S
O1533 Co1530 1.970 . S
O1533 C1532 1.258 . S
O1534 Co1531 1.966 . S
O1534 C1532 1.263 . S
C1535 O1536 1.235 . S
C1535 O1562 1.289 . S
O1536 C1535 1.235 . S
C1537 C1539 1.400 . S
C1537 N1540 1.351 . S
C1537 C1542 1.501 . S
C1538 C1539 1.387 . S
C1538 N1541 1.341 . S
C1539 C1537 1.400 . S
C1539 C1538 1.387 . S
N1540 Co1531 2.022 . S
N1540 C1537 1.351 . S
N1540 N1541 1.365 . S
N1541 C1538 1.341 . S
N1541 N1540 1.365 . S
N1541 H1561 0.862 . S
C1542 C1537 1.501 . S
C1542 H1543 0.961 . S
C1542 H1544 0.961 . S
C1542 H1545 0.960 . S
H1543 C1542 0.961 . S
H1544 C1542 0.961 . S
H1545 C1542 0.960 . S
C1546 N1547 1.342 . S
C1546 C1550 1.401 . S
C1546 C1551 1.499 . S
N1547 Co1530 1.989 . S
N1547 C1546 1.342 . S
N1547 N1548 1.388 . S
N1548 Co1531 1.993 . S
N1548 N1547 1.388 . S
N1548 C1549 1.346 . S
C1549 N1548 1.346 . S
C1549 C1550 1.396 . S
C1549 C1559 1.510 . S
C1550 C1546 1.401 . S
C1550 C1549 1.396 . S
C1551 C1546 1.499 . S
C1551 H1552 0.959 . S
C1551 H1553 0.960 . S
C1551 H1554 0.961 . S
H1552 C1551 0.959 . S
H1553 C1551 0.960 . S
H1554 C1551 0.961 . S
O1555 Co1530 1.967 . S
O1555 C1563 1.258 . S
O1556 Co1531 1.941 . S
O1556 C1563 1.266 . S
H1557 C1559 0.959 . S
H1558 C1559 0.961 . S
C1559 C1549 1.510 . S
C1559 H1557 0.959 . S
C1559 H1558 0.961 . S
C1559 H1560 0.960 . S
H1560 C1559 0.960 . S
H1561 N1541 0.862 . S
O1562 Co1530 1.920 . S
O1562 C1535 1.289 . S
C1563 O1555 1.258 . S
C1563 O1556 1.266 . S
Co1564 O1567 1.970 . S
Co1564 N1581 1.989 . S
Co1564 O1589 1.967 . S
Co1564 O1596 1.920 . S
Co1565 O1568 1.966 . S
Co1565 N1574 2.022 . S
Co1565 N1582 1.993 . S
Co1565 O1590 1.941 . S
C1566 O1567 1.258 . S
C1566 O1568 1.263 . S
O1567 Co1564 1.970 . S
O1567 C1566 1.258 . S
O1568 Co1565 1.966 . S
O1568 C1566 1.263 . S
C1569 O1570 1.235 . S
C1569 O1596 1.289 . S
O1570 C1569 1.235 . S
C1571 C1573 1.400 . S
C1571 N1574 1.351 . S
C1571 C1576 1.501 . S
C1572 C1573 1.387 . S
C1572 N1575 1.341 . S
C1573 C1571 1.400 . S
C1573 C1572 1.387 . S
N1574 Co1565 2.022 . S
N1574 C1571 1.351 . S
N1574 N1575 1.365 . S
N1575 C1572 1.341 . S
N1575 N1574 1.365 . S
N1575 H1595 0.862 . S
C1576 C1571 1.501 . S
C1576 H1577 0.961 . S
C1576 H1578 0.961 . S
C1576 H1579 0.960 . S
H1577 C1576 0.961 . S
H1578 C1576 0.961 . S
H1579 C1576 0.960 . S
C1580 N1581 1.342 . S
C1580 C1584 1.401 . S
C1580 C1585 1.499 . S
N1581 Co1564 1.989 . S
N1581 C1580 1.342 . S
N1581 N1582 1.388 . S
N1582 Co1565 1.993 . S
N1582 N1581 1.388 . S
N1582 C1583 1.346 . S
C1583 N1582 1.346 . S
C1583 C1584 1.396 . S
C1583 C1593 1.510 . S
C1584 C1580 1.401 . S
C1584 C1583 1.396 . S
C1585 C1580 1.499 . S
C1585 H1586 0.959 . S
C1585 H1587 0.960 . S
C1585 H1588 0.961 . S
H1586 C1585 0.959 . S
H1587 C1585 0.960 . S
H1588 C1585 0.961 . S
O1589 Co1564 1.967 . S
O1589 C1597 1.258 . S
O1590 Co1565 1.941 . S
O1590 C1597 1.266 . S
H1591 C1593 0.959 . S
H1592 C1593 0.961 . S
C1593 C1583 1.510 . S
C1593 H1591 0.959 . S
C1593 H1592 0.961 . S
C1593 H1594 0.960 . S
H1594 C1593 0.960 . S
H1595 N1575 0.862 . S
O1596 Co1564 1.920 . S
O1596 C1569 1.289 . S
C1597 O1589 1.258 . S
C1597 O1590 1.266 . S
Co1598 O1601 1.970 . S
Co1598 N1615 1.989 . S
Co1598 O1623 1.967 . S
Co1598 O1630 1.920 . S
Co1599 O1602 1.966 . S
Co1599 N1608 2.022 . S
Co1599 N1616 1.993 . S
Co1599 O1624 1.941 . S
C1600 O1601 1.258 . S
C1600 O1602 1.263 . S
O1601 Co1598 1.970 . S
O1601 C1600 1.258 . S
O1602 Co1599 1.966 . S
O1602 C1600 1.263 . S
C1603 O1604 1.235 . S
C1603 O1630 1.289 . S
O1604 C1603 1.235 . S
C1605 C1607 1.400 . S
C1605 N1608 1.351 . S
C1605 C1610 1.501 . S
C1606 C1607 1.387 . S
C1606 N1609 1.341 . S
C1607 C1605 1.400 . S
C1607 C1606 1.387 . S
N1608 Co1599 2.022 . S
N1608 C1605 1.351 . S
N1608 N1609 1.365 . S
N1609 C1606 1.341 . S
N1609 N1608 1.365 . S
N1609 H1629 0.862 . S
C1610 C1605 1.501 . S
C1610 H1611 0.961 . S
C1610 H1612 0.961 . S
C1610 H1613 0.960 . S
H1611 C1610 0.961 . S
H1612 C1610 0.961 . S
H1613 C1610 0.960 . S
C1614 N1615 1.342 . S
C1614 C1618 1.401 . S
C1614 C1619 1.499 . S
N1615 Co1598 1.989 . S
N1615 C1614 1.342 . S
N1615 N1616 1.388 . S
N1616 Co1599 1.993 . S
N1616 N1615 1.388 . S
N1616 C1617 1.346 . S
C1617 N1616 1.346 . S
C1617 C1618 1.396 . S
C1617 C1627 1.510 . S
C1618 C1614 1.401 . S
C1618 C1617 1.396 . S
C1619 C1614 1.499 . S
C1619 H1620 0.959 . S
C1619 H1621 0.960 . S
C1619 H1622 0.961 . S
H1620 C1619 0.959 . S
H1621 C1619 0.960 . S
H1622 C1619 0.961 . S
O1623 Co1598 1.967 . S
O1623 C1631 1.258 . S
O1624 Co1599 1.941 . S
O1624 C1631 1.266 . S
H1625 C1627 0.959 . S
H1626 C1627 0.961 . S
C1627 C1617 1.510 . S
C1627 H1625 0.959 . S
C1627 H1626 0.961 . S
C1627 H1628 0.960 . S
H1628 C1627 0.960 . S
H1629 N1609 0.862 . S
O1630 Co1598 1.920 . S
O1630 C1603 1.289 . S
C1631 O1623 1.258 . S
C1631 O1624 1.266 . S
H1632 C1640 0.950 . S
H1633 C1645 0.950 . S
H1634 C1642 0.973 . S
H1635 C1644 0.950 1_556 S
H1636 C1646 0.950 . S
H1637 C1648 0.950 . S
H1638 C1650 0.950 . S
H1639 C1651 0.950 . S
C1640 H1632 0.950 . S
C1640 C1641 1.386 . S
C1640 C1642 1.351 1_554 S
C1641 C1640 1.386 . S
C1641 C1645 1.393 . S
C1642 H1634 0.973 . S
C1642 C1640 1.351 1_556 S
C1642 C1643 1.419 . S
C1643 C1642 1.419 . S
C1643 C1644 1.398 1_556 S
C1643 C1649 1.491 . S
C1644 H1635 0.950 1_554 S
C1644 C1643 1.398 1_554 S
C1644 C1645 1.391 . S
C1645 H1633 0.950 . S
C1645 C1641 1.393 . S
C1645 C1644 1.391 . S
C1646 H1636 0.950 . S
C1646 C1647 1.386 . S
C1646 C1648 1.391 . S
C1647 C1646 1.386 . S
C1647 C1651 1.393 . S
C1648 H1637 0.950 . S
C1648 C1646 1.391 . S
C1648 C1649 1.400 . S
C1649 C1643 1.491 . S
C1649 C1648 1.400 . S
C1649 C1650 1.398 . S
C1650 H1638 0.950 . S
C1650 C1649 1.398 . S
C1650 C1651 1.391 . S
C1651 H1639 0.950 . S
C1651 C1647 1.393 . S
C1651 C1650 1.391 . S
H1652 C1660 0.950 . S
H1653 C1665 0.950 . S
H1654 C1662 0.950 . S
H1655 C1664 0.950 . S
H1656 C1666 0.950 . S
H1657 C1668 0.950 . S
H1658 C1670 0.950 . S
H1659 C1671 0.950 . S
C1660 H1652 0.950 . S
C1660 C1661 1.386 . S
C1660 C1662 1.391 . S
C1661 C1660 1.386 . S
C1661 C1665 1.393 . S
C1662 H1654 0.950 . S
C1662 C1660 1.391 . S
C1662 C1663 1.400 . S
C1663 C1662 1.400 . S
C1663 C1664 1.398 . S
C1663 C1669 1.491 . S
C1664 H1655 0.950 . S
C1664 C1663 1.398 . S
C1664 C1665 1.391 . S
C1665 H1653 0.950 . S
C1665 C1661 1.393 . S
C1665 C1664 1.391 . S
C1666 H1656 0.950 . S
C1666 C1667 1.386 . S
C1666 C1668 1.391 . S
C1667 C1666 1.386 . S
C1667 C1671 1.393 . S
C1668 H1657 0.950 . S
C1668 C1666 1.391 . S
C1668 C1669 1.400 . S
C1669 C1663 1.491 . S
C1669 C1668 1.400 . S
C1669 C1670 1.398 . S
C1670 H1658 0.950 . S
C1670 C1669 1.398 . S
C1670 C1671 1.391 . S
C1671 H1659 0.950 . S
C1671 C1667 1.393 . S
C1671 C1670 1.391 . S
H1672 C1680 0.950 . S
H1673 C1685 0.950 . S
H1674 C1682 0.950 . S
H1675 C1684 0.950 . S
H1676 C1686 0.950 . S
H1677 C1688 0.950 . S
H1678 C1690 0.950 . S
H1679 C1691 0.950 . S
C1680 H1672 0.950 . S
C1680 C1681 1.386 . S
C1680 C1682 1.391 . S
C1681 C1680 1.386 . S
C1681 C1685 1.393 . S
C1682 H1674 0.950 . S
C1682 C1680 1.391 . S
C1682 C1683 1.400 . S
C1683 C1682 1.400 . S
C1683 C1684 1.398 . S
C1683 C1689 1.491 . S
C1684 H1675 0.950 . S
C1684 C1683 1.398 . S
C1684 C1685 1.391 . S
C1685 H1673 0.950 . S
C1685 C1681 1.393 . S
C1685 C1684 1.391 . S
C1686 H1676 0.950 . S
C1686 C1687 1.386 . S
C1686 C1688 1.391 . S
C1687 C1686 1.386 . S
C1687 C1691 1.393 . S
C1688 H1677 0.950 . S
C1688 C1686 1.391 . S
C1688 C1689 1.400 . S
C1689 C1683 1.491 . S
C1689 C1688 1.400 . S
C1689 C1690 1.398 . S
C1690 H1678 0.950 . S
C1690 C1689 1.398 . S
C1690 C1691 1.391 . S
C1691 H1679 0.950 . S
C1691 C1687 1.393 . S
C1691 C1690 1.391 . S
H1692 C1700 0.950 . S
H1693 C1705 0.950 . S
H1694 C1702 0.950 . S
H1695 C1704 0.950 . S
H1696 C1706 0.950 . S
H1697 C1708 0.950 . S
H1698 C1710 0.950 . S
H1699 C1711 0.950 . S
C1700 H1692 0.950 . S
C1700 C1701 1.386 . S
C1700 C1702 1.391 . S
C1701 C1700 1.386 . S
C1701 C1705 1.393 . S
C1702 H1694 0.950 . S
C1702 C1700 1.391 . S
C1702 C1703 1.400 . S
C1703 C1702 1.400 . S
C1703 C1704 1.398 . S
C1703 C1709 1.491 . S
C1704 H1695 0.950 . S
C1704 C1703 1.398 . S
C1704 C1705 1.391 . S
C1705 H1693 0.950 . S
C1705 C1701 1.393 . S
C1705 C1704 1.391 . S
C1706 H1696 0.950 . S
C1706 C1707 1.386 . S
C1706 C1708 1.391 . S
C1707 C1706 1.386 . S
C1707 C1711 1.393 . S
C1708 H1697 0.950 . S
C1708 C1706 1.391 . S
C1708 C1709 1.400 . S
C1709 C1703 1.491 . S
C1709 C1708 1.400 . S
C1709 C1710 1.398 . S
C1710 H1698 0.950 . S
C1710 C1709 1.398 . S
C1710 C1711 1.391 . S
C1711 H1699 0.950 . S
C1711 C1707 1.393 . S
C1711 C1710 1.391 . S
H1712 C1720 0.950 . S
H1713 C1725 0.950 . S
H1714 C1722 0.950 . S
H1715 C1724 0.950 . S
H1716 C1726 0.950 . S
H1717 C1728 0.950 . S
H1718 C1730 0.950 . S
H1719 C1731 0.950 . S
C1720 H1712 0.950 . S
C1720 C1721 1.386 . S
C1720 C1722 1.391 . S
C1721 C1720 1.386 . S
C1721 C1725 1.393 . S
C1722 H1714 0.950 . S
C1722 C1720 1.391 . S
C1722 C1723 1.400 . S
C1723 C1722 1.400 . S
C1723 C1724 1.398 . S
C1723 C1729 1.491 . S
C1724 H1715 0.950 . S
C1724 C1723 1.398 . S
C1724 C1725 1.391 . S
C1725 H1713 0.950 . S
C1725 C1721 1.393 . S
C1725 C1724 1.391 . S
C1726 H1716 0.950 . S
C1726 C1727 1.386 . S
C1726 C1728 1.391 . S
C1727 C1726 1.386 . S
C1727 C1731 1.393 . S
C1728 H1717 0.950 . S
C1728 C1726 1.391 . S
C1728 C1729 1.400 . S
C1729 C1723 1.491 . S
C1729 C1728 1.400 . S
C1729 C1730 1.398 . S
C1730 H1718 0.950 . S
C1730 C1729 1.398 . S
C1730 C1731 1.391 . S
C1731 H1719 0.950 . S
C1731 C1727 1.393 . S
C1731 C1730 1.391 . S
H1732 C1740 0.950 . S
H1733 C1745 0.950 . S
H1734 C1742 0.950 . S
H1735 C1744 0.950 . S
H1736 C1746 0.950 . S
H1737 C1748 0.950 . S
H1738 C1750 0.950 . S
H1739 C1751 0.950 . S
C1740 H1732 0.950 . S
C1740 C1741 1.386 . S
C1740 C1742 1.391 . S
C1741 C1740 1.386 . S
C1741 C1745 1.393 . S
C1742 H1734 0.950 . S
C1742 C1740 1.391 . S
C1742 C1743 1.400 . S
C1743 C1742 1.400 . S
C1743 C1744 1.398 . S
C1743 C1749 1.491 . S
C1744 H1735 0.950 . S
C1744 C1743 1.398 . S
C1744 C1745 1.391 . S
C1745 H1733 0.950 . S
C1745 C1741 1.393 . S
C1745 C1744 1.391 . S
C1746 H1736 0.950 . S
C1746 C1747 1.386 . S
C1746 C1748 1.391 . S
C1747 C1746 1.386 . S
C1747 C1751 1.393 . S
C1748 H1737 0.950 . S
C1748 C1746 1.391 . S
C1748 C1749 1.400 . S
C1749 C1743 1.491 . S
C1749 C1748 1.400 . S
C1749 C1750 1.398 . S
C1750 H1738 0.950 . S
C1750 C1749 1.398 . S
C1750 C1751 1.391 . S
C1751 H1739 0.950 . S
C1751 C1747 1.393 . S
C1751 C1750 1.391 . S
H1752 C1760 0.950 . S
H1753 C1765 0.950 . S
H1754 C1762 0.950 . S
H1755 C1764 0.950 . S
H1756 C1766 0.950 . S
H1757 C1768 0.950 . S
H1758 C1770 0.950 . S
H1759 C1771 0.950 . S
C1760 H1752 0.950 . S
C1760 C1761 1.386 . S
C1760 C1762 1.391 . S
C1761 C1760 1.386 . S
C1761 C1765 1.393 . S
C1762 H1754 0.950 . S
C1762 C1760 1.391 . S
C1762 C1763 1.400 1_556 S
C1763 C1762 1.400 1_554 S
C1763 C1764 1.398 . S
C1763 C1769 1.491 . S
C1764 H1755 0.950 . S
C1764 C1763 1.398 . S
C1764 C1765 1.391 1_554 S
C1765 H1753 0.950 . S
C1765 C1761 1.393 . S
C1765 C1764 1.391 1_556 S
C1766 H1756 0.950 . S
C1766 C1767 1.386 . S
C1766 C1768 1.391 . S
C1767 C1766 1.386 . S
C1767 C1771 1.393 . S
C1768 H1757 0.950 . S
C1768 C1766 1.391 . S
C1768 C1769 1.400 . S
C1769 C1763 1.491 . S
C1769 C1768 1.400 . S
C1769 C1770 1.398 . S
C1770 H1758 0.950 . S
C1770 C1769 1.398 . S
C1770 C1771 1.391 . S
C1771 H1759 0.950 . S
C1771 C1767 1.393 . S
C1771 C1770 1.391 . S
H1772 C1780 0.950 . S
H1773 C1785 0.950 . S
H1774 C1782 0.950 . S
H1775 C1784 0.950 . S
H1776 C1786 0.950 . S
H1777 C1788 0.950 . S
H1778 C1790 0.950 . S
H1779 C1791 0.950 . S
C1780 H1772 0.950 . S
C1780 C1781 1.386 . S
C1780 C1782 1.391 . S
C1781 C1780 1.386 . S
C1781 C1785 1.393 . S
C1782 H1774 0.950 . S
C1782 C1780 1.391 . S
C1782 C1783 1.400 . S
C1783 C1782 1.400 . S
C1783 C1784 1.398 . S
C1783 C1789 1.491 . S
C1784 H1775 0.950 . S
C1784 C1783 1.398 . S
C1784 C1785 1.391 . S
C1785 H1773 0.950 . S
C1785 C1781 1.393 . S
C1785 C1784 1.391 . S
C1786 H1776 0.950 . S
C1786 C1787 1.386 . S
C1786 C1788 1.391 . S
C1787 C1786 1.386 . S
C1787 C1791 1.393 . S
C1788 H1777 0.950 . S
C1788 C1786 1.391 . S
C1788 C1789 1.400 . S
C1789 C1783 1.491 . S
C1789 C1788 1.400 . S
C1789 C1790 1.398 . S
C1790 H1778 0.950 . S
C1790 C1789 1.398 . S
C1790 C1791 1.391 . S
C1791 H1779 0.950 . S
C1791 C1787 1.393 . S
C1791 C1790 1.391 . S
H1792 C1800 0.950 . S
H1793 C1805 0.950 . S
H1794 C1802 0.950 . S
H1795 C1804 0.950 . S
H1796 C1806 0.950 . S
H1797 C1808 0.950 . S
H1798 C1810 0.945 1_655 S
H1799 C1811 0.950 . S
C1800 H1792 0.950 . S
C1800 C1801 1.386 . S
C1800 C1802 1.391 . S
C1801 C1800 1.386 . S
C1801 C1805 1.393 . S
C1802 H1794 0.950 . S
C1802 C1800 1.391 . S
C1802 C1803 1.400 . S
C1803 C1802 1.400 . S
C1803 C1804 1.398 . S
C1803 C1809 1.491 . S
C1804 H1795 0.950 . S
C1804 C1803 1.398 . S
C1804 C1805 1.391 . S
C1805 H1793 0.950 . S
C1805 C1801 1.393 . S
C1805 C1804 1.391 . S
C1806 H1796 0.950 . S
C1806 C1807 1.386 . S
C1806 C1808 1.391 1_455 S
C1807 C1806 1.386 . S
C1807 C1811 1.393 . S
C1808 H1797 0.950 . S
C1808 C1806 1.391 1_655 S
C1808 C1809 1.400 . S
C1809 C1803 1.491 . S
C1809 C1808 1.400 . S
C1809 C1810 1.398 1_655 S
C1810 H1798 0.945 1_455 S
C1810 C1809 1.398 1_455 S
C1810 C1811 1.391 . S
C1811 H1799 0.950 . S
C1811 C1807 1.393 . S
C1811 C1810 1.391 . S
H1812 C1820 0.950 . S
H1813 C1825 0.950 . S
H1814 C1822 0.950 . S
H1815 C1824 0.950 . S
H1816 C1826 0.950 . S
H1817 C1828 0.950 . S
H1818 C1830 0.950 . S
H1819 C1831 0.950 . S
C1820 H1812 0.950 . S
C1820 C1821 1.386 . S
C1820 C1822 1.391 . S
C1821 C1820 1.386 . S
C1821 C1825 1.393 . S
C1822 H1814 0.950 . S
C1822 C1820 1.391 . S
C1822 C1823 1.400 . S
C1823 C1822 1.400 . S
C1823 C1824 1.398 . S
C1823 C1829 1.491 . S
C1824 H1815 0.950 . S
C1824 C1823 1.398 . S
C1824 C1825 1.391 . S
C1825 H1813 0.950 . S
C1825 C1821 1.393 . S
C1825 C1824 1.391 . S
C1826 H1816 0.950 . S
C1826 C1827 1.386 . S
C1826 C1828 1.391 . S
C1827 C1826 1.386 . S
C1827 C1831 1.393 . S
C1828 H1817 0.950 . S
C1828 C1826 1.391 . S
C1828 C1829 1.400 . S
C1829 C1823 1.491 . S
C1829 C1828 1.400 . S
C1829 C1830 1.398 . S
C1830 H1818 0.950 . S
C1830 C1829 1.398 . S
C1830 C1831 1.391 . S
C1831 H1819 0.950 . S
C1831 C1827 1.393 . S
C1831 C1830 1.391 . S
H1832 C1840 0.950 . S
H1833 C1845 0.950 . S
H1834 C1842 0.950 . S
H1835 C1844 0.950 . S
H1836 C1846 0.950 . S
H1837 C1848 0.950 . S
H1838 C1850 0.950 . S
H1839 C1851 0.950 . S
C1840 H1832 0.950 . S
C1840 C1841 1.386 . S
C1840 C1842 1.391 . S
C1841 C1840 1.386 . S
C1841 C1845 1.393 . S
C1842 H1834 0.950 . S
C1842 C1840 1.391 . S
C1842 C1843 1.400 . S
C1843 C1842 1.400 . S
C1843 C1844 1.398 . S
C1843 C1849 1.491 . S
C1844 H1835 0.950 . S
C1844 C1843 1.398 . S
C1844 C1845 1.391 . S
C1845 H1833 0.950 . S
C1845 C1841 1.393 . S
C1845 C1844 1.391 . S
C1846 H1836 0.950 . S
C1846 C1847 1.386 . S
C1846 C1848 1.391 . S
C1847 C1846 1.386 . S
C1847 C1851 1.393 . S
C1848 H1837 0.950 . S
C1848 C1846 1.391 . S
C1848 C1849 1.400 . S
C1849 C1843 1.491 . S
C1849 C1848 1.400 . S
C1849 C1850 1.398 . S
C1850 H1838 0.950 . S
C1850 C1849 1.398 . S
C1850 C1851 1.391 . S
C1851 H1839 0.950 . S
C1851 C1847 1.393 . S
C1851 C1850 1.391 . S
H1852 C1860 0.950 . S
H1853 C1865 0.950 . S
H1854 C1862 0.950 . S
H1855 C1864 0.950 . S
H1856 C1866 0.950 . S
H1857 C1868 0.950 . S
H1858 C1870 0.950 . S
H1859 C1871 0.950 . S
C1860 H1852 0.950 . S
C1860 C1861 1.386 . S
C1860 C1862 1.391 . S
C1861 C1860 1.386 . S
C1861 C1865 1.393 . S
C1862 H1854 0.950 . S
C1862 C1860 1.391 . S
C1862 C1863 1.400 . S
C1863 C1862 1.400 . S
C1863 C1864 1.398 . S
C1863 C1869 1.491 . S
C1864 H1855 0.950 . S
C1864 C1863 1.398 . S
C1864 C1865 1.391 . S
C1865 H1853 0.950 . S
C1865 C1861 1.393 . S
C1865 C1864 1.391 . S
C1866 H1856 0.950 . S
C1866 C1867 1.386 . S
C1866 C1868 1.391 . S
C1867 C1866 1.386 . S
C1867 C1871 1.393 . S
C1868 H1857 0.950 . S
C1868 C1866 1.391 . S
C1868 C1869 1.400 . S
C1869 C1863 1.491 . S
C1869 C1868 1.400 . S
C1869 C1870 1.398 . S
C1870 H1858 0.950 . S
C1870 C1869 1.398 . S
C1870 C1871 1.391 . S
C1871 H1859 0.950 . S
C1871 C1867 1.393 . S
C1871 C1870 1.391 . S
H1872 C1880 0.950 . S
H1873 C1885 0.950 . S
H1874 C1882 0.950 . S
H1875 C1884 0.950 . S
H1876 C1886 0.950 . S
H1877 C1888 0.950 . S
H1878 C1890 0.950 . S
H1879 C1891 0.950 . S
C1880 H1872 0.950 . S
C1880 C1881 1.386 . S
C1880 C1882 1.391 1_455 S
C1881 C1880 1.386 . S
C1881 C1885 1.393 . S
C1882 H1874 0.950 . S
C1882 C1880 1.391 1_655 S
C1882 C1883 1.400 . S
C1883 C1882 1.400 . S
C1883 C1884 1.398 . S
C1883 C1889 1.491 . S
C1884 H1875 0.950 . S
C1884 C1883 1.398 . S
C1884 C1885 1.391 1_655 S
C1885 H1873 0.950 . S
C1885 C1881 1.393 . S
C1885 C1884 1.391 1_455 S
C1886 H1876 0.950 . S
C1886 C1887 1.386 . S
C1886 C1888 1.391 . S
C1887 C1886 1.386 . S
C1887 C1891 1.393 . S
C1888 H1877 0.950 . S
C1888 C1886 1.391 . S
C1888 C1889 1.400 . S
C1889 C1883 1.491 . S
C1889 C1888 1.400 . S
C1889 C1890 1.398 . S
C1890 H1878 0.950 . S
C1890 C1889 1.398 . S
C1890 C1891 1.391 . S
C1891 H1879 0.950 . S
C1891 C1887 1.393 . S
C1891 C1890 1.391 . S
H1892 C1900 0.950 . S
H1893 C1905 0.950 . S
H1894 C1902 0.950 . S
H1895 C1904 0.950 . S
H1896 C1906 0.950 . S
H1897 C1908 0.950 . S
H1898 C1910 0.950 . S
H1899 C1911 0.950 . S
C1900 H1892 0.950 . S
C1900 C1901 1.386 . S
C1900 C1902 1.391 . S
C1901 C1900 1.386 . S
C1901 C1905 1.393 . S
C1902 H1894 0.950 . S
C1902 C1900 1.391 . S
C1902 C1903 1.400 . S
C1903 C1902 1.400 . S
C1903 C1904 1.398 . S
C1903 C1909 1.491 . S
C1904 H1895 0.950 . S
C1904 C1903 1.398 . S
C1904 C1905 1.391 . S
C1905 H1893 0.950 . S
C1905 C1901 1.393 . S
C1905 C1904 1.391 . S
C1906 H1896 0.950 . S
C1906 C1907 1.386 . S
C1906 C1908 1.391 . S
C1907 C1906 1.386 . S
C1907 C1911 1.393 . S
C1908 H1897 0.950 . S
C1908 C1906 1.391 . S
C1908 C1909 1.400 . S
C1909 C1903 1.491 . S
C1909 C1908 1.400 . S
C1909 C1910 1.398 . S
C1910 H1898 0.950 . S
C1910 C1909 1.398 . S
C1910 C1911 1.391 . S
C1911 H1899 0.950 . S
C1911 C1907 1.393 . S
C1911 C1910 1.391 . S
H1912 C1920 0.950 . S
H1913 C1925 0.950 . S
H1914 C1922 0.950 . S
H1915 C1924 0.950 . S
H1916 C1926 0.950 . S
H1917 C1928 0.950 . S
H1918 C1930 0.950 . S
H1919 C1931 0.950 . S
C1920 H1912 0.950 . S
C1920 C1921 1.386 . S
C1920 C1922 1.391 . S
C1921 C1920 1.386 . S
C1921 C1925 1.393 . S
C1922 H1914 0.950 . S
C1922 C1920 1.391 . S
C1922 C1923 1.400 . S
C1923 C1922 1.400 . S
C1923 C1924 1.398 . S
C1923 C1929 1.491 . S
C1924 H1915 0.950 . S
C1924 C1923 1.398 . S
C1924 C1925 1.391 . S
C1925 H1913 0.950 . S
C1925 C1921 1.393 . S
C1925 C1924 1.391 . S
C1926 H1916 0.950 . S
C1926 C1927 1.386 . S
C1926 C1928 1.391 . S
C1927 C1926 1.386 . S
C1927 C1931 1.393 . S
C1928 H1917 0.950 . S
C1928 C1926 1.391 . S
C1928 C1929 1.400 . S
C1929 C1923 1.491 . S
C1929 C1928 1.400 . S
C1929 C1930 1.398 . S
C1930 H1918 0.950 . S
C1930 C1929 1.398 . S
C1930 C1931 1.391 . S
C1931 H1919 0.950 . S
C1931 C1927 1.393 . S
C1931 C1930 1.391 . S
H1932 C1940 0.950 . S
H1933 C1945 0.950 . S
H1934 C1942 0.950 . S
H1935 C1944 0.950 . S
H1936 C1946 0.950 . S
H1937 C1948 0.950 . S
H1938 C1950 0.950 . S
H1939 C1951 0.950 . S
C1940 H1932 0.950 . S
C1940 C1941 1.386 . S
C1940 C1942 1.391 . S
C1941 C1940 1.386 . S
C1941 C1945 1.393 . S
C1942 H1934 0.950 . S
C1942 C1940 1.391 . S
C1942 C1943 1.400 . S
C1943 C1942 1.400 . S
C1943 C1944 1.398 . S
C1943 C1949 1.491 . S
C1944 H1935 0.950 . S
C1944 C1943 1.398 . S
C1944 C1945 1.391 . S
C1945 H1933 0.950 . S
C1945 C1941 1.393 . S
C1945 C1944 1.391 . S
C1946 H1936 0.950 . S
C1946 C1947 1.386 . S
C1946 C1948 1.391 . S
C1947 C1946 1.386 . S
C1947 C1951 1.393 . S
C1948 H1937 0.950 . S
C1948 C1946 1.391 . S
C1948 C1949 1.400 . S
C1949 C1943 1.491 . S
C1949 C1948 1.400 . S
C1949 C1950 1.398 . S
C1950 H1938 0.950 . S
C1950 C1949 1.398 . S
C1950 C1951 1.391 . S
C1951 H1939 0.950 . S
C1951 C1947 1.393 . S
C1951 C1950 1.391 . S
H1952 C1960 0.950 . S
H1953 C1965 0.950 . S
H1954 C1962 0.950 . S
H1955 C1964 0.950 . S
H1956 C1966 0.950 . S
H1957 C1968 0.950 . S
H1958 C1970 0.950 1_565 S
H1959 C1971 0.950 . S
C1960 H1952 0.950 . S
C1960 C1961 1.386 . S
C1960 C1962 1.391 . S
C1961 C1960 1.386 . S
C1961 C1965 1.393 . S
C1962 H1954 0.950 . S
C1962 C1960 1.391 . S
C1962 C1963 1.400 . S
C1963 C1962 1.400 . S
C1963 C1964 1.398 . S
C1963 C1969 1.491 . S
C1964 H1955 0.950 . S
C1964 C1963 1.398 . S
C1964 C1965 1.391 . S
C1965 H1953 0.950 . S
C1965 C1961 1.393 . S
C1965 C1964 1.391 . S
C1966 H1956 0.950 . S
C1966 C1967 1.386 . S
C1966 C1968 1.391 1_545 S
C1967 C1966 1.386 . S
C1967 C1971 1.393 . S
C1968 H1957 0.950 . S
C1968 C1966 1.391 1_565 S
C1968 C1969 1.400 . S
C1969 C1963 1.491 . S
C1969 C1968 1.400 . S
C1969 C1970 1.398 1_565 S
C1970 H1958 0.950 1_545 S
C1970 C1969 1.398 1_545 S
C1970 C1971 1.391 . S
C1971 H1959 0.950 . S
C1971 C1967 1.393 . S
C1971 C1970 1.391 . S
H1972 C1980 0.950 . S
H1973 C1985 0.950 . S
H1974 C1982 0.950 . S
H1975 C1984 0.950 . S
H1976 C1986 0.950 . S
H1977 C1988 0.950 . S
H1978 C1990 0.950 . S
H1979 C1991 0.950 . S
C1980 H1972 0.950 . S
C1980 C1981 1.386 . S
C1980 C1982 1.391 . S
C1981 C1980 1.386 . S
C1981 C1985 1.393 . S
C1982 H1974 0.950 . S
C1982 C1980 1.391 . S
C1982 C1983 1.400 . S
C1983 C1982 1.400 . S
C1983 C1984 1.398 . S
C1983 C1989 1.491 . S
C1984 H1975 0.950 . S
C1984 C1983 1.398 . S
C1984 C1985 1.391 . S
C1985 H1973 0.950 . S
C1985 C1981 1.393 . S
C1985 C1984 1.391 . S
C1986 H1976 0.950 . S
C1986 C1987 1.386 . S
C1986 C1988 1.391 . S
C1987 C1986 1.386 . S
C1987 C1991 1.393 . S
C1988 H1977 0.950 . S
C1988 C1986 1.391 . S
C1988 C1989 1.400 . S
C1989 C1983 1.491 . S
C1989 C1988 1.400 . S
C1989 C1990 1.398 . S
C1990 H1978 0.950 . S
C1990 C1989 1.398 . S
C1990 C1991 1.391 . S
C1991 H1979 0.950 . S
C1991 C1987 1.393 . S
C1991 C1990 1.391 . S
H1992 C2000 0.950 . S
H1993 C2005 0.950 . S
H1994 C2002 0.950 . S
H1995 C2004 0.950 . S
H1996 C2006 0.950 . S
H1997 C2008 0.950 . S
H1998 C2010 0.950 . S
H1999 C2011 0.950 . S
C2000 H1992 0.950 . S
C2000 C2001 1.386 . S
C2000 C2002 1.391 . S
C2001 C2000 1.386 . S
C2001 C2005 1.393 . S
C2002 H1994 0.950 . S
C2002 C2000 1.391 . S
C2002 C2003 1.400 . S
C2003 C2002 1.400 . S
C2003 C2004 1.398 . S
C2003 C2009 1.491 . S
C2004 H1995 0.950 . S
C2004 C2003 1.398 . S
C2004 C2005 1.391 . S
C2005 H1993 0.950 . S
C2005 C2001 1.393 . S
C2005 C2004 1.391 . S
C2006 H1996 0.950 . S
C2006 C2007 1.386 . S
C2006 C2008 1.391 . S
C2007 C2006 1.386 . S
C2007 C2011 1.393 . S
C2008 H1997 0.950 . S
C2008 C2006 1.391 . S
C2008 C2009 1.400 . S
C2009 C2003 1.491 . S
C2009 C2008 1.400 . S
C2009 C2010 1.398 . S
C2010 H1998 0.950 . S
C2010 C2009 1.398 . S
C2010 C2011 1.391 . S
C2011 H1999 0.950 . S
C2011 C2007 1.393 . S
C2011 C2010 1.391 . S
H2012 C2020 0.950 . S
H2013 C2025 0.950 . S
H2014 C2022 0.950 . S
H2015 C2024 0.950 . S
H2016 C2026 0.950 . S
H2017 C2028 0.950 . S
H2018 C2030 0.950 . S
H2019 C2031 0.950 . S
C2020 H2012 0.950 . S
C2020 C2021 1.386 . S
C2020 C2022 1.391 . S
C2021 C2020 1.386 . S
C2021 C2025 1.393 . S
C2022 H2014 0.950 . S
C2022 C2020 1.391 . S
C2022 C2023 1.400 . S
C2023 C2022 1.400 . S
C2023 C2024 1.398 . S
C2023 C2029 1.491 . S
C2024 H2015 0.950 . S
C2024 C2023 1.398 . S
C2024 C2025 1.391 . S
C2025 H2013 0.950 . S
C2025 C2021 1.393 . S
C2025 C2024 1.391 . S
C2026 H2016 0.950 . S
C2026 C2027 1.386 . S
C2026 C2028 1.391 . S
C2027 C2026 1.386 . S
C2027 C2031 1.393 . S
C2028 H2017 0.950 . S
C2028 C2026 1.391 . S
C2028 C2029 1.400 . S
C2029 C2023 1.491 . S
C2029 C2028 1.400 . S
C2029 C2030 1.398 . S
C2030 H2018 0.950 . S
C2030 C2029 1.398 . S
C2030 C2031 1.391 . S
C2031 H2019 0.950 . S
C2031 C2027 1.393 . S
C2031 C2030 1.391 . S
H2032 C2040 0.950 . S
H2033 C2045 0.950 . S
H2034 C2042 0.950 . S
H2035 C2044 0.950 . S
H2036 C2046 0.950 . S
H2037 C2048 0.950 . S
H2038 C2050 0.950 . S
H2039 C2051 0.950 . S
C2040 H2032 0.950 . S
C2040 C2041 1.386 . S
C2040 C2042 1.391 . S
C2041 C2040 1.386 . S
C2041 C2045 1.393 . S
C2042 H2034 0.950 . S
C2042 C2040 1.391 . S
C2042 C2043 1.400 . S
C2043 C2042 1.400 . S
C2043 C2044 1.398 . S
C2043 C2049 1.491 . S
C2044 H2035 0.950 . S
C2044 C2043 1.398 . S
C2044 C2045 1.391 . S
C2045 H2033 0.950 . S
C2045 C2041 1.393 . S
C2045 C2044 1.391 . S
C2046 H2036 0.950 . S
C2046 C2047 1.386 . S
C2046 C2048 1.391 . S
C2047 C2046 1.386 . S
C2047 C2051 1.393 . S
C2048 H2037 0.950 . S
C2048 C2046 1.391 . S
C2048 C2049 1.400 . S
C2049 C2043 1.491 . S
C2049 C2048 1.400 . S
C2049 C2050 1.398 . S
C2050 H2038 0.950 . S
C2050 C2049 1.398 . S
C2050 C2051 1.391 . S
C2051 H2039 0.950 . S
C2051 C2047 1.393 . S
C2051 C2050 1.391 . S
H2052 C2060 0.950 . S
H2053 C2065 0.950 . S
H2054 C2062 0.950 . S
H2055 C2064 0.950 . S
H2056 C2066 0.950 . S
H2057 C2068 0.950 . S
H2058 C2070 0.950 . S
H2059 C2071 0.950 . S
C2060 H2052 0.950 . S
C2060 C2061 1.386 . S
C2060 C2062 1.391 . S
C2061 C2060 1.386 . S
C2061 C2065 1.393 . S
C2062 H2054 0.950 . S
C2062 C2060 1.391 . S
C2062 C2063 1.400 1_565 S
C2063 C2062 1.400 1_545 S
C2063 C2064 1.398 . S
C2063 C2069 1.491 . S
C2064 H2055 0.950 . S
C2064 C2063 1.398 . S
C2064 C2065 1.391 1_545 S
C2065 H2053 0.950 . S
C2065 C2061 1.393 . S
C2065 C2064 1.391 1_565 S
C2066 H2056 0.950 . S
C2066 C2067 1.386 . S
C2066 C2068 1.391 . S
C2067 C2066 1.386 . S
C2067 C2071 1.393 . S
C2068 H2057 0.950 . S
C2068 C2066 1.391 . S
C2068 C2069 1.400 . S
C2069 C2063 1.491 . S
C2069 C2068 1.400 . S
C2069 C2070 1.398 . S
C2070 H2058 0.950 . S
C2070 C2069 1.398 . S
C2070 C2071 1.391 . S
C2071 H2059 0.950 . S
C2071 C2067 1.393 . S
C2071 C2070 1.391 . S
H2072 C2080 0.950 . S
H2073 C2085 0.950 . S
H2074 C2082 0.950 . S
H2075 C2084 0.950 . S
H2076 C2086 0.950 . S
H2077 C2088 0.950 . S
H2078 C2090 0.950 . S
H2079 C2091 0.950 . S
C2080 H2072 0.950 . S
C2080 C2081 1.386 . S
C2080 C2082 1.391 . S
C2081 C2080 1.386 . S
C2081 C2085 1.393 . S
C2082 H2074 0.950 . S
C2082 C2080 1.391 . S
C2082 C2083 1.400 . S
C2083 C2082 1.400 . S
C2083 C2084 1.398 . S
C2083 C2089 1.491 . S
C2084 H2075 0.950 . S
C2084 C2083 1.398 . S
C2084 C2085 1.391 . S
C2085 H2073 0.950 . S
C2085 C2081 1.393 . S
C2085 C2084 1.391 . S
C2086 H2076 0.950 . S
C2086 C2087 1.386 . S
C2086 C2088 1.391 . S
C2087 C2086 1.386 . S
C2087 C2091 1.393 . S
C2088 H2077 0.950 . S
C2088 C2086 1.391 . S
C2088 C2089 1.400 . S
C2089 C2083 1.491 . S
C2089 C2088 1.400 . S
C2089 C2090 1.398 . S
C2090 H2078 0.950 . S
C2090 C2089 1.398 . S
C2090 C2091 1.391 . S
C2091 H2079 0.950 . S
C2091 C2087 1.393 . S
C2091 C2090 1.391 . S
H2092 C2100 0.950 . S
H2093 C2105 0.950 . S
H2094 C2102 0.950 . S
H2095 C2104 0.950 . S
H2096 C2106 0.950 . S
H2097 C2108 0.950 . S
H2098 C2110 0.950 . S
H2099 C2111 0.950 . S
C2100 H2092 0.950 . S
C2100 C2101 1.386 . S
C2100 C2102 1.391 . S
C2101 C2100 1.386 . S
C2101 C2105 1.393 . S
C2102 H2094 0.950 . S
C2102 C2100 1.391 . S
C2102 C2103 1.400 . S
C2103 C2102 1.400 . S
C2103 C2104 1.398 . S
C2103 C2109 1.491 . S
C2104 H2095 0.950 . S
C2104 C2103 1.398 . S
C2104 C2105 1.391 . S
C2105 H2093 0.950 . S
C2105 C2101 1.393 . S
C2105 C2104 1.391 . S
C2106 H2096 0.950 . S
C2106 C2107 1.386 . S
C2106 C2108 1.391 . S
C2107 C2106 1.386 . S
C2107 C2111 1.393 . S
C2108 H2097 0.950 . S
C2108 C2106 1.391 . S
C2108 C2109 1.400 . S
C2109 C2103 1.491 . S
C2109 C2108 1.400 . S
C2109 C2110 1.398 . S
C2110 H2098 0.950 . S
C2110 C2109 1.398 . S
C2110 C2111 1.391 . S
C2111 H2099 0.950 . S
C2111 C2107 1.393 . S
C2111 C2110 1.391 . S
H2112 C2120 0.950 . S
H2113 C2125 0.950 . S
H2114 C2122 0.950 . S
H2115 C2124 0.950 . S
H2116 C2126 0.950 . S
H2117 C2128 0.950 . S
H2118 C2130 0.950 1_554 S
H2119 C2131 0.950 . S
C2120 H2112 0.950 . S
C2120 C2121 1.386 . S
C2120 C2122 1.391 . S
C2121 C2120 1.386 . S
C2121 C2125 1.393 . S
C2122 H2114 0.950 . S
C2122 C2120 1.391 . S
C2122 C2123 1.400 . S
C2123 C2122 1.400 . S
C2123 C2124 1.398 . S
C2123 C2129 1.491 . S
C2124 H2115 0.950 . S
C2124 C2123 1.398 . S
C2124 C2125 1.391 . S
C2125 H2113 0.950 . S
C2125 C2121 1.393 . S
C2125 C2124 1.391 . S
C2126 H2116 0.950 . S
C2126 C2127 1.386 . S
C2126 C2128 1.391 1_556 S
C2127 C2126 1.386 . S
C2127 C2131 1.393 . S
C2128 H2117 0.950 . S
C2128 C2126 1.391 1_554 S
C2128 C2129 1.400 . S
C2129 C2123 1.491 . S
C2129 C2128 1.400 . S
C2129 C2130 1.398 1_554 S
C2130 H2118 0.950 1_556 S
C2130 C2129 1.398 1_556 S
C2130 C2131 1.391 . S
C2131 H2119 0.950 . S
C2131 C2127 1.393 . S
C2131 C2130 1.391 . S
H2132 C2140 0.950 . S
H2133 C2145 0.950 . S
H2134 C2142 0.950 . S
H2135 C2144 0.950 . S
H2136 C2146 0.950 . S
H2137 C2148 0.950 . S
H2138 C2150 0.950 . S
H2139 C2151 0.950 . S
C2140 H2132 0.950 . S
C2140 C2141 1.386 . S
C2140 C2142 1.391 . S
C2141 C2140 1.386 . S
C2141 C2145 1.393 . S
C2142 H2134 0.950 . S
C2142 C2140 1.391 . S
C2142 C2143 1.400 . S
C2143 C2142 1.400 . S
C2143 C2144 1.398 . S
C2143 C2149 1.491 . S
C2144 H2135 0.950 . S
C2144 C2143 1.398 . S
C2144 C2145 1.391 . S
C2145 H2133 0.950 . S
C2145 C2141 1.393 . S
C2145 C2144 1.391 . S
C2146 H2136 0.950 . S
C2146 C2147 1.386 . S
C2146 C2148 1.391 . S
C2147 C2146 1.386 . S
C2147 C2151 1.393 . S
C2148 H2137 0.950 . S
C2148 C2146 1.391 . S
C2148 C2149 1.400 . S
C2149 C2143 1.491 . S
C2149 C2148 1.400 . S
C2149 C2150 1.398 . S
C2150 H2138 0.950 . S
C2150 C2149 1.398 . S
C2150 C2151 1.391 . S
C2151 H2139 0.950 . S
C2151 C2147 1.393 . S
C2151 C2150 1.391 . S
H2152 C2160 0.950 . S
H2153 C2165 0.950 . S
H2154 C2162 0.950 . S
H2155 C2164 0.950 . S
H2156 C2166 0.950 . S
H2157 C2168 0.950 . S
H2158 C2170 0.950 . S
H2159 C2171 0.950 . S
C2160 H2152 0.950 . S
C2160 C2161 1.386 . S
C2160 C2162 1.391 . S
C2161 C2160 1.386 . S
C2161 C2165 1.393 . S
C2162 H2154 0.950 . S
C2162 C2160 1.391 . S
C2162 C2163 1.400 . S
C2163 C2162 1.400 . S
C2163 C2164 1.398 . S
C2163 C2169 1.491 . S
C2164 H2155 0.950 . S
C2164 C2163 1.398 . S
C2164 C2165 1.391 . S
C2165 H2153 0.950 . S
C2165 C2161 1.393 . S
C2165 C2164 1.391 . S
C2166 H2156 0.950 . S
C2166 C2167 1.386 . S
C2166 C2168 1.391 . S
C2167 C2166 1.386 . S
C2167 C2171 1.393 . S
C2168 H2157 0.950 . S
C2168 C2166 1.391 . S
C2168 C2169 1.400 . S
C2169 C2163 1.491 . S
C2169 C2168 1.400 . S
C2169 C2170 1.398 . S
C2170 H2158 0.950 . S
C2170 C2169 1.398 . S
C2170 C2171 1.391 . S
C2171 H2159 0.950 . S
C2171 C2167 1.393 . S
C2171 C2170 1.391 . S
H2172 C2180 0.950 . S
H2173 C2185 0.950 . S
H2174 C2182 0.950 . S
H2175 C2184 0.950 . S
H2176 C2186 0.950 . S
H2177 C2188 0.950 . S
H2178 C2190 0.950 . S
H2179 C2191 0.950 . S
C2180 H2172 0.950 . S
C2180 C2181 1.386 . S
C2180 C2182 1.391 . S
C2181 C2180 1.386 . S
C2181 C2185 1.393 . S
C2182 H2174 0.950 . S
C2182 C2180 1.391 . S
C2182 C2183 1.400 . S
C2183 C2182 1.400 . S
C2183 C2184 1.398 . S
C2183 C2189 1.491 . S
C2184 H2175 0.950 . S
C2184 C2183 1.398 . S
C2184 C2185 1.391 . S
C2185 H2173 0.950 . S
C2185 C2181 1.393 . S
C2185 C2184 1.391 . S
C2186 H2176 0.950 . S
C2186 C2187 1.386 . S
C2186 C2188 1.391 . S
C2187 C2186 1.386 . S
C2187 C2191 1.393 . S
C2188 H2177 0.950 . S
C2188 C2186 1.391 . S
C2188 C2189 1.400 . S
C2189 C2183 1.491 . S
C2189 C2188 1.400 . S
C2189 C2190 1.398 . S
C2190 H2178 0.950 . S
C2190 C2189 1.398 . S
C2190 C2191 1.391 . S
C2191 H2179 0.950 . S
C2191 C2187 1.393 . S
C2191 C2190 1.391 . S
H2192 C2200 0.950 . S
H2193 C2205 0.950 . S
H2194 C2202 0.950 . S
H2195 C2204 0.950 . S
H2196 C2206 0.950 . S
H2197 C2208 0.950 . S
H2198 C2210 0.950 . S
H2199 C2211 0.950 . S
C2200 H2192 0.950 . S
C2200 C2201 1.386 . S
C2200 C2202 1.391 . S
C2201 C2200 1.386 . S
C2201 C2205 1.393 . S
C2202 H2194 0.950 . S
C2202 C2200 1.391 . S
C2202 C2203 1.400 . S
C2203 C2202 1.400 . S
C2203 C2204 1.398 . S
C2203 C2209 1.491 . S
C2204 H2195 0.950 . S
C2204 C2203 1.398 . S
C2204 C2205 1.391 . S
C2205 H2193 0.950 . S
C2205 C2201 1.393 . S
C2205 C2204 1.391 . S
C2206 H2196 0.950 . S
C2206 C2207 1.386 . S
C2206 C2208 1.391 . S
C2207 C2206 1.386 . S
C2207 C2211 1.393 . S
C2208 H2197 0.950 . S
C2208 C2206 1.391 . S
C2208 C2209 1.400 . S
C2209 C2203 1.491 . S
C2209 C2208 1.400 . S
C2209 C2210 1.398 . S
C2210 H2198 0.950 . S
C2210 C2209 1.398 . S
C2210 C2211 1.391 . S
C2211 H2199 0.950 . S
C2211 C2207 1.393 . S
C2211 C2210 1.391 . S
H2212 C2220 0.950 . S
H2213 C2225 0.950 . S
H2214 C2222 0.950 . S
H2215 C2224 0.950 . S
H2216 C2226 0.950 . S
H2217 C2228 0.950 . S
H2218 C2230 0.950 . S
H2219 C2231 0.950 . S
C2220 H2212 0.950 . S
C2220 C2221 1.386 . S
C2220 C2222 1.391 . S
C2221 C2220 1.386 . S
C2221 C2225 1.393 . S
C2222 H2214 0.950 . S
C2222 C2220 1.391 . S
C2222 C2223 1.400 . S
C2223 C2222 1.400 . S
C2223 C2224 1.398 . S
C2223 C2229 1.491 . S
C2224 H2215 0.950 . S
C2224 C2223 1.398 . S
C2224 C2225 1.391 . S
C2225 H2213 0.950 . S
C2225 C2221 1.393 . S
C2225 C2224 1.391 . S
C2226 H2216 0.950 . S
C2226 C2227 1.386 . S
C2226 C2228 1.391 . S
C2227 C2226 1.386 . S
C2227 C2231 1.393 . S
C2228 H2217 0.950 . S
C2228 C2226 1.391 . S
C2228 C2229 1.400 . S
C2229 C2223 1.491 . S
C2229 C2228 1.400 . S
C2229 C2230 1.398 . S
C2230 H2218 0.950 . S
C2230 C2229 1.398 . S
C2230 C2231 1.391 . S
C2231 H2219 0.950 . S
C2231 C2227 1.393 . S
C2231 C2230 1.391 . S
H2232 C2240 0.950 . S
H2233 C2245 0.950 . S
H2234 C2242 0.950 . S
H2235 C2244 0.950 . S
H2236 C2246 0.950 . S
H2237 C2248 0.950 1_556 S
H2238 C2250 0.950 1_556 S
H2239 C2251 0.950 . S
C2240 H2232 0.950 . S
C2240 C2241 1.386 . S
C2240 C2242 1.391 . S
C2241 C2240 1.386 . S
C2241 C2245 1.393 . S
C2242 H2234 0.950 . S
C2242 C2240 1.391 . S
C2242 C2243 1.400 . S
C2243 C2242 1.400 . S
C2243 C2244 1.398 . S
C2243 C2249 1.491 . S
C2244 H2235 0.950 . S
C2244 C2243 1.398 . S
C2244 C2245 1.391 . S
C2245 H2233 0.950 . S
C2245 C2241 1.393 . S
C2245 C2244 1.391 . S
C2246 H2236 0.950 . S
C2246 C2247 1.386 . S
C2246 C2248 1.391 . S
C2247 C2246 1.386 . S
C2247 C2251 1.393 . S
C2248 H2237 0.950 1_554 S
C2248 C2246 1.391 . S
C2248 C2249 1.400 1_554 S
C2249 C2243 1.491 . S
C2249 C2248 1.400 1_556 S
C2249 C2250 1.398 1_556 S
C2250 H2238 0.950 1_554 S
C2250 C2249 1.398 1_554 S
C2250 C2251 1.391 . S
C2251 H2239 0.950 . S
C2251 C2247 1.393 . S
C2251 C2250 1.391 . S
H2252 C2260 0.950 . S
H2253 C2265 0.950 . S
H2254 C2262 0.950 . S
H2255 C2264 0.950 . S
H2256 C2266 0.950 . S
H2257 C2268 0.950 . S
H2258 C2270 0.950 . S
H2259 C2271 0.950 . S
C2260 H2252 0.950 . S
C2260 C2261 1.386 . S
C2260 C2262 1.391 . S
C2261 C2260 1.386 . S
C2261 C2265 1.393 . S
C2262 H2254 0.950 . S
C2262 C2260 1.391 . S
C2262 C2263 1.400 . S
C2263 C2262 1.400 . S
C2263 C2264 1.398 . S
C2263 C2269 1.491 . S
C2264 H2255 0.950 . S
C2264 C2263 1.398 . S
C2264 C2265 1.391 . S
C2265 H2253 0.950 . S
C2265 C2261 1.393 . S
C2265 C2264 1.391 . S
C2266 H2256 0.950 . S
C2266 C2267 1.386 . S
C2266 C2268 1.391 . S
C2267 C2266 1.386 . S
C2267 C2271 1.393 . S
C2268 H2257 0.950 . S
C2268 C2266 1.391 . S
C2268 C2269 1.400 . S
C2269 C2263 1.491 . S
C2269 C2268 1.400 . S
C2269 C2270 1.398 . S
C2270 H2258 0.950 . S
C2270 C2269 1.398 . S
C2270 C2271 1.391 . S
C2271 H2259 0.950 . S
C2271 C2267 1.393 . S
C2271 C2270 1.391 . S
H2272 C2280 0.950 . S
H2273 C2285 0.950 . S
H2274 C2282 0.950 . S
H2275 C2284 0.950 . S
H2276 C2286 0.950 . S
H2277 C2288 0.950 . S
H2278 C2290 0.955 . S
H2279 C2291 0.950 . S
C2280 H2272 0.950 . S
C2280 C2281 1.386 . S
C2280 C2282 1.391 . S
C2281 C2280 1.386 . S
C2281 C2285 1.393 . S
C2282 H2274 0.950 . S
C2282 C2280 1.391 . S
C2282 C2283 1.400 . S
C2283 C2282 1.400 . S
C2283 C2284 1.398 . S
C2283 C2289 1.491 . S
C2284 H2275 0.950 . S
C2284 C2283 1.398 . S
C2284 C2285 1.391 . S
C2285 H2273 0.950 . S
C2285 C2281 1.393 . S
C2285 C2284 1.391 . S
C2286 H2276 0.950 . S
C2286 C2287 1.386 . S
C2286 C2288 1.391 1_655 S
C2287 C2286 1.386 . S
C2287 C2291 1.393 . S
C2288 H2277 0.950 . S
C2288 C2286 1.391 1_455 S
C2288 C2289 1.400 . S
C2289 C2283 1.491 . S
C2289 C2288 1.400 . S
C2289 C2290 1.398 1_455 S
C2290 H2278 0.955 . S
C2290 C2289 1.398 1_655 S
C2290 C2291 1.391 . S
C2291 H2279 0.950 . S
C2291 C2287 1.393 . S
C2291 C2290 1.391 . S
H2292 C2300 0.950 . S
H2293 C2305 0.950 . S
H2294 C2302 0.950 . S
H2295 C2304 0.950 . S
H2296 C2306 0.950 . S
H2297 C2308 0.950 . S
H2298 C2310 0.950 . S
H2299 C2311 0.950 . S
C2300 H2292 0.950 . S
C2300 C2301 1.386 . S
C2300 C2302 1.391 . S
C2301 C2300 1.386 . S
C2301 C2305 1.393 . S
C2302 H2294 0.950 . S
C2302 C2300 1.391 . S
C2302 C2303 1.400 . S
C2303 C2302 1.400 . S
C2303 C2304 1.398 . S
C2303 C2309 1.491 . S
C2304 H2295 0.950 . S
C2304 C2303 1.398 . S
C2304 C2305 1.391 . S
C2305 H2293 0.950 . S
C2305 C2301 1.393 . S
C2305 C2304 1.391 . S
C2306 H2296 0.950 . S
C2306 C2307 1.386 . S
C2306 C2308 1.391 . S
C2307 C2306 1.386 . S
C2307 C2311 1.393 . S
C2308 H2297 0.950 . S
C2308 C2306 1.391 . S
C2308 C2309 1.400 . S
C2309 C2303 1.491 . S
C2309 C2308 1.400 . S
C2309 C2310 1.398 . S
C2310 H2298 0.950 . S
C2310 C2309 1.398 . S
C2310 C2311 1.391 . S
C2311 H2299 0.950 . S
C2311 C2307 1.393 . S
C2311 C2310 1.391 . S
H2312 C2320 0.950 . S
H2313 C2325 0.950 . S
H2314 C2322 0.950 . S
H2315 C2324 0.950 . S
H2316 C2326 0.950 . S
H2317 C2328 0.950 . S
H2318 C2330 0.950 . S
H2319 C2331 0.950 . S
C2320 H2312 0.950 . S
C2320 C2321 1.386 . S
C2320 C2322 1.391 . S
C2321 C2320 1.386 . S
C2321 C2325 1.393 . S
C2322 H2314 0.950 . S
C2322 C2320 1.391 . S
C2322 C2323 1.400 . S
C2323 C2322 1.400 . S
C2323 C2324 1.398 . S
C2323 C2329 1.491 . S
C2324 H2315 0.950 . S
C2324 C2323 1.398 . S
C2324 C2325 1.391 . S
C2325 H2313 0.950 . S
C2325 C2321 1.393 . S
C2325 C2324 1.391 . S
C2326 H2316 0.950 . S
C2326 C2327 1.386 . S
C2326 C2328 1.391 . S
C2327 C2326 1.386 . S
C2327 C2331 1.393 . S
C2328 H2317 0.950 . S
C2328 C2326 1.391 . S
C2328 C2329 1.400 . S
C2329 C2323 1.491 . S
C2329 C2328 1.400 . S
C2329 C2330 1.398 . S
C2330 H2318 0.950 . S
C2330 C2329 1.398 . S
C2330 C2331 1.391 . S
C2331 H2319 0.950 . S
C2331 C2327 1.393 . S
C2331 C2330 1.391 . S
H2332 C2340 0.950 . S
H2333 C2345 0.950 . S
H2334 C2342 0.950 . S
H2335 C2344 0.950 . S
H2336 C2346 0.950 . S
H2337 C2348 0.950 . S
H2338 C2350 0.950 . S
H2339 C2351 0.950 . S
C2340 H2332 0.950 . S
C2340 C2341 1.386 . S
C2340 C2342 1.391 . S
C2341 C2340 1.386 . S
C2341 C2345 1.393 . S
C2342 H2334 0.950 . S
C2342 C2340 1.391 . S
C2342 C2343 1.400 . S
C2343 C2342 1.400 . S
C2343 C2344 1.398 . S
C2343 C2349 1.491 . S
C2344 H2335 0.950 . S
C2344 C2343 1.398 . S
C2344 C2345 1.391 . S
C2345 H2333 0.950 . S
C2345 C2341 1.393 . S
C2345 C2344 1.391 . S
C2346 H2336 0.950 . S
C2346 C2347 1.386 . S
C2346 C2348 1.391 . S
C2347 C2346 1.386 . S
C2347 C2351 1.393 . S
C2348 H2337 0.950 . S
C2348 C2346 1.391 . S
C2348 C2349 1.400 . S
C2349 C2343 1.491 . S
C2349 C2348 1.400 . S
C2349 C2350 1.398 . S
C2350 H2338 0.950 . S
C2350 C2349 1.398 . S
C2350 C2351 1.391 . S
C2351 H2339 0.950 . S
C2351 C2347 1.393 . S
C2351 C2350 1.391 . S
H2352 C2360 0.950 . S
H2353 C2365 0.938 1_655 S
H2354 C2362 0.950 . S
H2355 C2364 0.950 . S
H2356 C2366 0.950 . S
H2357 C2368 0.950 . S
H2358 C2370 0.950 . S
H2359 C2371 0.950 . S
C2360 H2352 0.950 . S
C2360 C2361 1.386 . S
C2360 C2362 1.391 1_655 S
C2361 C2360 1.386 . S
C2361 C2365 1.359 1_655 S
C2362 H2354 0.950 . S
C2362 C2360 1.391 1_455 S
C2362 C2363 1.400 . S
C2363 C2362 1.400 . S
C2363 C2364 1.398 . S
C2363 C2369 1.491 . S
C2364 H2355 0.950 . S
C2364 C2363 1.398 . S
C2364 C2365 1.438 . S
C2365 H2353 0.938 1_455 S
C2365 C2361 1.359 1_455 S
C2365 C2364 1.438 . S
C2366 H2356 0.950 . S
C2366 C2367 1.386 . S
C2366 C2368 1.391 . S
C2367 C2366 1.386 . S
C2367 C2371 1.393 . S
C2368 H2357 0.950 . S
C2368 C2366 1.391 . S
C2368 C2369 1.400 . S
C2369 C2363 1.491 . S
C2369 C2368 1.400 . S
C2369 C2370 1.398 . S
C2370 H2358 0.950 . S
C2370 C2369 1.398 . S
C2370 C2371 1.391 . S
C2371 H2359 0.950 . S
C2371 C2367 1.393 . S
C2371 C2370 1.391 . S
H2372 C2380 0.950 . S
H2373 C2385 0.950 . S
H2374 C2382 0.950 . S
H2375 C2384 0.950 . S
H2376 C2386 0.950 . S
H2377 C2388 0.950 . S
H2378 C2390 0.950 . S
H2379 C2391 0.950 . S
C2380 H2372 0.950 . S
C2380 C2381 1.386 . S
C2380 C2382 1.391 . S
C2381 C2380 1.386 . S
C2381 C2385 1.393 . S
C2382 H2374 0.950 . S
C2382 C2380 1.391 . S
C2382 C2383 1.400 . S
C2383 C2382 1.400 . S
C2383 C2384 1.398 . S
C2383 C2389 1.491 . S
C2384 H2375 0.950 . S
C2384 C2383 1.398 . S
C2384 C2385 1.391 . S
C2385 H2373 0.950 . S
C2385 C2381 1.393 . S
C2385 C2384 1.391 . S
C2386 H2376 0.950 . S
C2386 C2387 1.386 . S
C2386 C2388 1.391 . S
C2387 C2386 1.386 . S
C2387 C2391 1.393 . S
C2388 H2377 0.950 . S
C2388 C2386 1.391 . S
C2388 C2389 1.400 . S
C2389 C2383 1.491 . S
C2389 C2388 1.400 . S
C2389 C2390 1.398 . S
C2390 H2378 0.950 . S
C2390 C2389 1.398 . S
C2390 C2391 1.391 . S
C2391 H2379 0.950 . S
C2391 C2387 1.393 . S
C2391 C2390 1.391 . S
H2392 C2400 0.950 . S
H2393 C2405 0.950 . S
H2394 C2402 0.950 . S
H2395 C2404 0.950 . S
H2396 C2406 0.950 . S
H2397 C2408 0.950 . S
H2398 C2410 0.950 . S
H2399 C2411 0.950 . S
C2400 H2392 0.950 . S
C2400 C2401 1.386 . S
C2400 C2402 1.391 . S
C2401 C2400 1.386 . S
C2401 C2405 1.393 . S
C2402 H2394 0.950 . S
C2402 C2400 1.391 . S
C2402 C2403 1.400 . S
C2403 C2402 1.400 . S
C2403 C2404 1.398 . S
C2403 C2409 1.491 . S
C2404 H2395 0.950 . S
C2404 C2403 1.398 . S
C2404 C2405 1.391 . S
C2405 H2393 0.950 . S
C2405 C2401 1.393 . S
C2405 C2404 1.391 . S
C2406 H2396 0.950 . S
C2406 C2407 1.386 . S
C2406 C2408 1.391 . S
C2407 C2406 1.386 . S
C2407 C2411 1.393 . S
C2408 H2397 0.950 . S
C2408 C2406 1.391 . S
C2408 C2409 1.400 . S
C2409 C2403 1.491 . S
C2409 C2408 1.400 . S
C2409 C2410 1.398 . S
C2410 H2398 0.950 . S
C2410 C2409 1.398 . S
C2410 C2411 1.391 . S
C2411 H2399 0.950 . S
C2411 C2407 1.393 . S
C2411 C2410 1.391 . S
H2412 C2420 0.950 . S
H2413 C2425 0.950 . S
H2414 C2422 0.950 . S
H2415 C2424 0.950 . S
H2416 C2426 0.950 . S
H2417 C2428 0.950 . S
H2418 C2430 0.950 . S
H2419 C2431 0.950 . S
C2420 H2412 0.950 . S
C2420 C2421 1.386 . S
C2420 C2422 1.391 . S
C2421 C2420 1.386 . S
C2421 C2425 1.393 . S
C2422 H2414 0.950 . S
C2422 C2420 1.391 . S
C2422 C2423 1.400 . S
C2423 C2422 1.400 . S
C2423 C2424 1.398 . S
C2423 C2429 1.491 . S
C2424 H2415 0.950 . S
C2424 C2423 1.398 . S
C2424 C2425 1.391 . S
C2425 H2413 0.950 . S
C2425 C2421 1.393 . S
C2425 C2424 1.391 . S
C2426 H2416 0.950 . S
C2426 C2427 1.386 . S
C2426 C2428 1.391 . S
C2427 C2426 1.386 . S
C2427 C2431 1.393 . S
C2428 H2417 0.950 . S
C2428 C2426 1.391 . S
C2428 C2429 1.400 . S
C2429 C2423 1.491 . S
C2429 C2428 1.400 . S
C2429 C2430 1.398 . S
C2430 H2418 0.950 . S
C2430 C2429 1.398 . S
C2430 C2431 1.391 . S
C2431 H2419 0.950 . S
C2431 C2427 1.393 . S
C2431 C2430 1.391 . S
H2432 C2440 0.950 . S
H2433 C2445 0.950 . S
H2434 C2442 0.950 . S
H2435 C2444 0.950 . S
H2436 C2446 0.950 . S
H2437 C2448 0.965 . S
H2438 C2450 0.950 . S
H2439 C2451 0.950 . S
C2440 H2432 0.950 . S
C2440 C2441 1.386 . S
C2440 C2442 1.391 . S
C2441 C2440 1.386 . S
C2441 C2445 1.393 . S
C2442 H2434 0.950 . S
C2442 C2440 1.391 . S
C2442 C2443 1.400 . S
C2443 C2442 1.400 . S
C2443 C2444 1.398 . S
C2443 C2449 1.491 . S
C2444 H2435 0.950 . S
C2444 C2443 1.398 . S
C2444 C2445 1.391 . S
C2445 H2433 0.950 . S
C2445 C2441 1.393 . S
C2445 C2444 1.391 . S
C2446 H2436 0.950 . S
C2446 C2447 1.386 . S
C2446 C2448 1.369 1_565 S
C2447 C2446 1.386 . S
C2447 C2451 1.393 . S
C2448 H2437 0.965 . S
C2448 C2446 1.369 1_545 S
C2448 C2449 1.408 . S
C2449 C2443 1.491 . S
C2449 C2448 1.408 . S
C2449 C2450 1.398 1_545 S
C2450 H2438 0.950 . S
C2450 C2449 1.398 1_565 S
C2450 C2451 1.391 . S
C2451 H2439 0.950 . S
C2451 C2447 1.393 . S
C2451 C2450 1.391 . S
H2452 C2460 0.950 . S
H2453 C2465 0.950 . S
H2454 C2462 0.950 . S
H2455 C2464 0.950 . S
H2456 C2466 0.950 . S
H2457 C2468 0.950 . S
H2458 C2470 0.950 . S
H2459 C2471 0.950 . S
C2460 H2452 0.950 . S
C2460 C2461 1.386 . S
C2460 C2462 1.391 . S
C2461 C2460 1.386 . S
C2461 C2465 1.393 . S
C2462 H2454 0.950 . S
C2462 C2460 1.391 . S
C2462 C2463 1.400 . S
C2463 C2462 1.400 . S
C2463 C2464 1.398 . S
C2463 C2469 1.491 . S
C2464 H2455 0.950 . S
C2464 C2463 1.398 . S
C2464 C2465 1.391 . S
C2465 H2453 0.950 . S
C2465 C2461 1.393 . S
C2465 C2464 1.391 . S
C2466 H2456 0.950 . S
C2466 C2467 1.386 . S
C2466 C2468 1.391 . S
C2467 C2466 1.386 . S
C2467 C2471 1.393 . S
C2468 H2457 0.950 . S
C2468 C2466 1.391 . S
C2468 C2469 1.400 . S
C2469 C2463 1.491 . S
C2469 C2468 1.400 . S
C2469 C2470 1.398 . S
C2470 H2458 0.950 . S
C2470 C2469 1.398 . S
C2470 C2471 1.391 . S
C2471 H2459 0.950 . S
C2471 C2467 1.393 . S
C2471 C2470 1.391 . S
H2472 C2480 0.950 . S
H2473 C2485 0.950 . S
H2474 C2482 0.950 . S
H2475 C2484 0.950 . S
H2476 C2486 0.950 . S
H2477 C2488 0.950 . S
H2478 C2490 0.950 . S
H2479 C2491 0.950 . S
C2480 H2472 0.950 . S
C2480 C2481 1.386 . S
C2480 C2482 1.391 . S
C2481 C2480 1.386 . S
C2481 C2485 1.393 . S
C2482 H2474 0.950 . S
C2482 C2480 1.391 . S
C2482 C2483 1.400 . S
C2483 C2482 1.400 . S
C2483 C2484 1.398 . S
C2483 C2489 1.491 . S
C2484 H2475 0.950 . S
C2484 C2483 1.398 . S
C2484 C2485 1.391 . S
C2485 H2473 0.950 . S
C2485 C2481 1.393 . S
C2485 C2484 1.391 . S
C2486 H2476 0.950 . S
C2486 C2487 1.386 . S
C2486 C2488 1.391 . S
C2487 C2486 1.386 . S
C2487 C2491 1.393 . S
C2488 H2477 0.950 . S
C2488 C2486 1.391 . S
C2488 C2489 1.400 . S
C2489 C2483 1.491 . S
C2489 C2488 1.400 . S
C2489 C2490 1.398 . S
C2490 H2478 0.950 . S
C2490 C2489 1.398 . S
C2490 C2491 1.391 . S
C2491 H2479 0.950 . S
C2491 C2487 1.393 . S
C2491 C2490 1.391 . S
H2492 C2500 0.950 . S
H2493 C2505 0.950 . S
H2494 C2502 0.950 . S
H2495 C2504 0.950 . S
H2496 C2506 0.950 . S
H2497 C2508 0.950 . S
H2498 C2510 0.950 . S
H2499 C2511 0.950 . S
C2500 H2492 0.950 . S
C2500 C2501 1.386 . S
C2500 C2502 1.391 . S
C2501 C2500 1.386 . S
C2501 C2505 1.393 . S
C2502 H2494 0.950 . S
C2502 C2500 1.391 . S
C2502 C2503 1.400 . S
C2503 C2502 1.400 . S
C2503 C2504 1.398 . S
C2503 C2509 1.491 . S
C2504 H2495 0.950 . S
C2504 C2503 1.398 . S
C2504 C2505 1.391 . S
C2505 H2493 0.950 . S
C2505 C2501 1.393 . S
C2505 C2504 1.391 . S
C2506 H2496 0.950 . S
C2506 C2507 1.386 . S
C2506 C2508 1.391 . S
C2507 C2506 1.386 . S
C2507 C2511 1.393 . S
C2508 H2497 0.950 . S
C2508 C2506 1.391 . S
C2508 C2509 1.400 . S
C2509 C2503 1.491 . S
C2509 C2508 1.400 . S
C2509 C2510 1.398 . S
C2510 H2498 0.950 . S
C2510 C2509 1.398 . S
C2510 C2511 1.391 . S
C2511 H2499 0.950 . S
C2511 C2507 1.393 . S
C2511 C2510 1.391 . S
H2512 C2520 0.950 . S
H2513 C2525 0.950 . S
H2514 C2522 0.950 . S
H2515 C2524 0.950 . S
H2516 C2526 0.950 . S
H2517 C2528 0.950 . S
H2518 C2530 0.950 . S
H2519 C2531 0.950 . S
C2520 H2512 0.950 . S
C2520 C2521 1.386 . S
C2520 C2522 1.391 . S
C2521 C2520 1.386 . S
C2521 C2525 1.393 . S
C2522 H2514 0.950 . S
C2522 C2520 1.391 . S
C2522 C2523 1.400 . S
C2523 C2522 1.400 . S
C2523 C2524 1.398 . S
C2523 C2529 1.491 . S
C2524 H2515 0.950 . S
C2524 C2523 1.398 . S
C2524 C2525 1.391 . S
C2525 H2513 0.950 . S
C2525 C2521 1.393 . S
C2525 C2524 1.391 . S
C2526 H2516 0.950 . S
C2526 C2527 1.386 . S
C2526 C2528 1.391 . S
C2527 C2526 1.386 . S
C2527 C2531 1.393 . S
C2528 H2517 0.950 . S
C2528 C2526 1.391 . S
C2528 C2529 1.400 . S
C2529 C2523 1.491 . S
C2529 C2528 1.400 . S
C2529 C2530 1.398 . S
C2530 H2518 0.950 . S
C2530 C2529 1.398 . S
C2530 C2531 1.391 . S
C2531 H2519 0.950 . S
C2531 C2527 1.393 . S
C2531 C2530 1.391 . S
H2532 C2540 0.950 . S
H2533 C2545 0.950 . S
H2534 C2542 0.950 . S
H2535 C2544 0.950 . S
H2536 C2546 0.950 . S
H2537 C2548 0.954 . S
H2538 C2550 0.950 . S
H2539 C2551 0.950 . S
C2540 H2532 0.950 . S
C2540 C2541 1.386 . S
C2540 C2542 1.391 . S
C2541 C2540 1.386 . S
C2541 C2545 1.393 . S
C2542 H2534 0.950 . S
C2542 C2540 1.391 . S
C2542 C2543 1.400 . S
C2543 C2542 1.400 . S
C2543 C2544 1.398 . S
C2543 C2549 1.491 . S
C2544 H2535 0.950 . S
C2544 C2543 1.398 . S
C2544 C2545 1.391 . S
C2545 H2533 0.950 . S
C2545 C2541 1.393 . S
C2545 C2544 1.391 . S
C2546 H2536 0.950 . S
C2546 C2547 1.386 . S
C2546 C2548 1.381 1_545 S
C2547 C2546 1.386 . S
C2547 C2551 1.393 . S
C2548 H2537 0.954 . S
C2548 C2546 1.381 1_565 S
C2548 C2549 1.406 . S
C2549 C2543 1.491 . S
C2549 C2548 1.406 . S
C2549 C2550 1.398 . S
C2550 H2538 0.950 . S
C2550 C2549 1.398 . S
C2550 C2551 1.391 1_565 S
C2551 H2539 0.950 . S
C2551 C2547 1.393 . S
C2551 C2550 1.391 1_545 S
H2552 C2560 0.950 . S
H2553 C2565 0.950 . S
H2554 C2562 0.950 . S
H2555 C2564 0.950 . S
H2556 C2566 0.950 . S
H2557 C2568 0.950 . S
H2558 C2570 0.950 . S
H2559 C2571 0.950 . S
C2560 H2552 0.950 . S
C2560 C2561 1.386 . S
C2560 C2562 1.391 . S
C2561 C2560 1.386 . S
C2561 C2565 1.393 . S
C2562 H2554 0.950 . S
C2562 C2560 1.391 . S
C2562 C2563 1.400 . S
C2563 C2562 1.400 . S
C2563 C2564 1.398 . S
C2563 C2569 1.491 . S
C2564 H2555 0.950 . S
C2564 C2563 1.398 . S
C2564 C2565 1.391 . S
C2565 H2553 0.950 . S
C2565 C2561 1.393 . S
C2565 C2564 1.391 . S
C2566 H2556 0.950 . S
C2566 C2567 1.386 . S
C2566 C2568 1.391 . S
C2567 C2566 1.386 . S
C2567 C2571 1.393 . S
C2568 H2557 0.950 . S
C2568 C2566 1.391 . S
C2568 C2569 1.400 . S
C2569 C2563 1.491 . S
C2569 C2568 1.400 . S
C2569 C2570 1.398 . S
C2570 H2558 0.950 . S
C2570 C2569 1.398 . S
C2570 C2571 1.391 . S
C2571 H2559 0.950 . S
C2571 C2567 1.393 . S
C2571 C2570 1.391 . S
H2572 C2580 0.950 . S
H2573 C2585 0.950 . S
H2574 C2582 0.950 . S
H2575 C2584 0.950 . S
H2576 C2586 0.950 . S
H2577 C2588 0.950 . S
H2578 C2590 0.950 . S
H2579 C2591 0.950 . S
C2580 H2572 0.950 . S
C2580 C2581 1.386 . S
C2580 C2582 1.391 . S
C2581 C2580 1.386 . S
C2581 C2585 1.393 . S
C2582 H2574 0.950 . S
C2582 C2580 1.391 . S
C2582 C2583 1.400 . S
C2583 C2582 1.400 . S
C2583 C2584 1.398 . S
C2583 C2589 1.491 . S
C2584 H2575 0.950 . S
C2584 C2583 1.398 . S
C2584 C2585 1.391 . S
C2585 H2573 0.950 . S
C2585 C2581 1.393 . S
C2585 C2584 1.391 . S
C2586 H2576 0.950 . S
C2586 C2587 1.386 . S
C2586 C2588 1.391 . S
C2587 C2586 1.386 . S
C2587 C2591 1.393 . S
C2588 H2577 0.950 . S
C2588 C2586 1.391 . S
C2588 C2589 1.400 . S
C2589 C2583 1.491 . S
C2589 C2588 1.400 . S
C2589 C2590 1.398 . S
C2590 H2578 0.950 . S
C2590 C2589 1.398 . S
C2590 C2591 1.391 . S
C2591 H2579 0.950 . S
C2591 C2587 1.393 . S
C2591 C2590 1.391 . S
H2592 C2600 0.950 . S
H2593 C2605 0.950 . S
H2594 C2602 0.950 . S
H2595 C2604 0.950 . S
H2596 C2606 0.950 . S
H2597 C2608 0.950 . S
H2598 C2610 0.950 . S
H2599 C2611 0.950 . S
C2600 H2592 0.950 . S
C2600 C2601 1.386 . S
C2600 C2602 1.391 . S
C2601 C2600 1.386 . S
C2601 C2605 1.393 . S
C2602 H2594 0.950 . S
C2602 C2600 1.391 . S
C2602 C2603 1.400 . S
C2603 C2602 1.400 . S
C2603 C2604 1.398 . S
C2603 C2609 1.491 . S
C2604 H2595 0.950 . S
C2604 C2603 1.398 . S
C2604 C2605 1.391 . S
C2605 H2593 0.950 . S
C2605 C2601 1.393 . S
C2605 C2604 1.391 . S
C2606 H2596 0.950 . S
C2606 C2607 1.386 . S
C2606 C2608 1.391 . S
C2607 C2606 1.386 . S
C2607 C2611 1.393 . S
C2608 H2597 0.950 . S
C2608 C2606 1.391 . S
C2608 C2609 1.400 . S
C2609 C2603 1.491 . S
C2609 C2608 1.400 . S
C2609 C2610 1.398 . S
C2610 H2598 0.950 . S
C2610 C2609 1.398 . S
C2610 C2611 1.391 . S
C2611 H2599 0.950 . S
C2611 C2607 1.393 . S
C2611 C2610 1.391 . S
H2612 C2620 0.950 . S
H2613 C2625 0.950 . S
H2614 C2622 0.950 . S
H2615 C2624 0.950 . S
H2616 C2626 0.950 . S
H2617 C2628 0.950 . S
H2618 C2630 0.950 . S
H2619 C2631 0.950 . S
C2620 H2612 0.950 . S
C2620 C2621 1.386 . S
C2620 C2622 1.391 . S
C2621 C2620 1.386 . S
C2621 C2625 1.393 . S
C2622 H2614 0.950 . S
C2622 C2620 1.391 . S
C2622 C2623 1.400 . S
C2623 C2622 1.400 . S
C2623 C2624 1.398 . S
C2623 C2629 1.491 . S
C2624 H2615 0.950 . S
C2624 C2623 1.398 . S
C2624 C2625 1.391 . S
C2625 H2613 0.950 . S
C2625 C2621 1.393 . S
C2625 C2624 1.391 . S
C2626 H2616 0.950 . S
C2626 C2627 1.386 . S
C2626 C2628 1.391 . S
C2627 C2626 1.386 . S
C2627 C2631 1.393 . S
C2628 H2617 0.950 . S
C2628 C2626 1.391 . S
C2628 C2629 1.400 . S
C2629 C2623 1.491 . S
C2629 C2628 1.400 . S
C2629 C2630 1.398 . S
C2630 H2618 0.950 . S
C2630 C2629 1.398 . S
C2630 C2631 1.391 . S
C2631 H2619 0.950 . S
C2631 C2627 1.393 . S
C2631 C2630 1.391 . S
H2632 C2640 0.950 . S
H2633 C2645 0.950 . S
H2634 C2642 0.950 . S
H2635 C2644 0.950 . S
H2636 C2646 0.950 . S
H2637 C2648 0.950 . S
H2638 C2650 0.950 . S
H2639 C2651 0.950 . S
C2640 H2632 0.950 . S
C2640 C2641 1.386 . S
C2640 C2642 1.391 1_554 S
C2641 C2640 1.386 . S
C2641 C2645 1.393 . S
C2642 H2634 0.950 . S
C2642 C2640 1.391 1_556 S
C2642 C2643 1.400 . S
C2643 C2642 1.400 . S
C2643 C2644 1.398 . S
C2643 C2649 1.491 . S
C2644 H2635 0.950 . S
C2644 C2643 1.398 . S
C2644 C2645 1.391 1_556 S
C2645 H2633 0.950 . S
C2645 C2641 1.393 . S
C2645 C2644 1.391 1_554 S
C2646 H2636 0.950 . S
C2646 C2647 1.386 . S
C2646 C2648 1.391 . S
C2647 C2646 1.386 . S
C2647 C2651 1.393 . S
C2648 H2637 0.950 . S
C2648 C2646 1.391 . S
C2648 C2649 1.400 . S
C2649 C2643 1.491 . S
C2649 C2648 1.400 . S
C2649 C2650 1.398 . S
C2650 H2638 0.950 . S
C2650 C2649 1.398 . S
C2650 C2651 1.391 . S
C2651 H2639 0.950 . S
C2651 C2647 1.393 . S
C2651 C2650 1.391 . S
H2652 C2660 0.950 . S
H2653 C2665 0.950 . S
H2654 C2662 0.950 . S
H2655 C2664 0.950 . S
H2656 C2666 0.950 . S
H2657 C2668 0.950 . S
H2658 C2670 0.950 . S
H2659 C2671 0.950 . S
C2660 H2652 0.950 . S
C2660 C2661 1.386 . S
C2660 C2662 1.391 . S
C2661 C2660 1.386 . S
C2661 C2665 1.393 . S
C2662 H2654 0.950 . S
C2662 C2660 1.391 . S
C2662 C2663 1.400 . S
C2663 C2662 1.400 . S
C2663 C2664 1.398 . S
C2663 C2669 1.491 . S
C2664 H2655 0.950 . S
C2664 C2663 1.398 . S
C2664 C2665 1.391 . S
C2665 H2653 0.950 . S
C2665 C2661 1.393 . S
C2665 C2664 1.391 . S
C2666 H2656 0.950 . S
C2666 C2667 1.386 . S
C2666 C2668 1.391 . S
C2667 C2666 1.386 . S
C2667 C2671 1.393 . S
C2668 H2657 0.950 . S
C2668 C2666 1.391 . S
C2668 C2669 1.400 . S
C2669 C2663 1.491 . S
C2669 C2668 1.400 . S
C2669 C2670 1.398 . S
C2670 H2658 0.950 . S
C2670 C2669 1.398 . S
C2670 C2671 1.391 . S
C2671 H2659 0.950 . S
C2671 C2667 1.393 . S
C2671 C2670 1.391 . S
H2672 C2680 0.950 . S
H2673 C2685 0.950 . S
H2674 C2682 0.950 . S
H2675 C2684 0.950 . S
H2676 C2686 0.950 . S
H2677 C2688 0.950 . S
H2678 C2690 0.950 . S
H2679 C2691 0.950 . S
C2680 H2672 0.950 . S
C2680 C2681 1.386 . S
C2680 C2682 1.391 1_556 S
C2681 C2680 1.386 . S
C2681 C2685 1.393 . S
C2682 H2674 0.950 . S
C2682 C2680 1.391 1_554 S
C2682 C2683 1.400 . S
C2683 C2682 1.400 . S
C2683 C2684 1.398 1_554 S
C2683 C2689 1.491 . S
C2684 H2675 0.950 . S
C2684 C2683 1.398 1_556 S
C2684 C2685 1.391 . S
C2685 H2673 0.950 . S
C2685 C2681 1.393 . S
C2685 C2684 1.391 . S
C2686 H2676 0.950 . S
C2686 C2687 1.386 . S
C2686 C2688 1.391 . S
C2687 C2686 1.386 . S
C2687 C2691 1.393 . S
C2688 H2677 0.950 . S
C2688 C2686 1.391 . S
C2688 C2689 1.400 . S
C2689 C2683 1.491 . S
C2689 C2688 1.400 . S
C2689 C2690 1.398 . S
C2690 H2678 0.950 . S
C2690 C2689 1.398 . S
C2690 C2691 1.391 . S
C2691 H2679 0.950 . S
C2691 C2687 1.393 . S
C2691 C2690 1.391 . S
H2692 C2700 0.950 . S
H2693 C2705 0.950 . S
H2694 C2702 0.950 . S
H2695 C2704 0.950 . S
H2696 C2706 0.950 . S
H2697 C2708 0.950 . S
H2698 C2710 0.950 . S
H2699 C2711 0.950 . S
C2700 H2692 0.950 . S
C2700 C2701 1.386 . S
C2700 C2702 1.391 . S
C2701 C2700 1.386 . S
C2701 C2705 1.393 . S
C2702 H2694 0.950 . S
C2702 C2700 1.391 . S
C2702 C2703 1.400 . S
C2703 C2702 1.400 . S
C2703 C2704 1.398 . S
C2703 C2709 1.491 . S
C2704 H2695 0.950 . S
C2704 C2703 1.398 . S
C2704 C2705 1.391 . S
C2705 H2693 0.950 . S
C2705 C2701 1.393 . S
C2705 C2704 1.391 . S
C2706 H2696 0.950 . S
C2706 C2707 1.386 . S
C2706 C2708 1.391 . S
C2707 C2706 1.386 . S
C2707 C2711 1.393 . S
C2708 H2697 0.950 . S
C2708 C2706 1.391 . S
C2708 C2709 1.400 . S
C2709 C2703 1.491 . S
C2709 C2708 1.400 . S
C2709 C2710 1.398 . S
C2710 H2698 0.950 . S
C2710 C2709 1.398 . S
C2710 C2711 1.391 . S
C2711 H2699 0.950 . S
C2711 C2707 1.393 . S
C2711 C2710 1.391 . S
H2712 C2720 0.950 . S
H2713 C2725 0.950 . S
H2714 C2722 0.950 . S
H2715 C2724 0.950 . S
H2716 C2726 0.950 . S
H2717 C2728 0.950 . S
H2718 C2730 0.950 . S
H2719 C2731 0.950 . S
C2720 H2712 0.950 . S
C2720 C2721 1.386 . S
C2720 C2722 1.391 . S
C2721 C2720 1.386 . S
C2721 C2725 1.393 . S
C2722 H2714 0.950 . S
C2722 C2720 1.391 . S
C2722 C2723 1.400 . S
C2723 C2722 1.400 . S
C2723 C2724 1.398 . S
C2723 C2729 1.491 . S
C2724 H2715 0.950 . S
C2724 C2723 1.398 . S
C2724 C2725 1.391 . S
C2725 H2713 0.950 . S
C2725 C2721 1.393 . S
C2725 C2724 1.391 . S
C2726 H2716 0.950 . S
C2726 C2727 1.386 . S
C2726 C2728 1.391 . S
C2727 C2726 1.386 . S
C2727 C2731 1.393 . S
C2728 H2717 0.950 . S
C2728 C2726 1.391 . S
C2728 C2729 1.400 . S
C2729 C2723 1.491 . S
C2729 C2728 1.400 . S
C2729 C2730 1.398 . S
C2730 H2718 0.950 . S
C2730 C2729 1.398 . S
C2730 C2731 1.391 . S
C2731 H2719 0.950 . S
C2731 C2727 1.393 . S
C2731 C2730 1.391 . S
H2732 C2740 0.950 . S
H2733 C2745 0.950 . S
H2734 C2742 0.950 . S
H2735 C2744 0.950 . S
H2736 C2746 0.950 . S
H2737 C2748 0.950 . S
H2738 C2750 0.950 . S
H2739 C2751 0.950 . S
C2740 H2732 0.950 . S
C2740 C2741 1.386 . S
C2740 C2742 1.391 . S
C2741 C2740 1.386 . S
C2741 C2745 1.393 . S
C2742 H2734 0.950 . S
C2742 C2740 1.391 . S
C2742 C2743 1.400 . S
C2743 C2742 1.400 . S
C2743 C2744 1.398 . S
C2743 C2749 1.491 . S
C2744 H2735 0.950 . S
C2744 C2743 1.398 . S
C2744 C2745 1.391 . S
C2745 H2733 0.950 . S
C2745 C2741 1.393 . S
C2745 C2744 1.391 . S
C2746 H2736 0.950 . S
C2746 C2747 1.386 . S
C2746 C2748 1.391 . S
C2747 C2746 1.386 . S
C2747 C2751 1.393 . S
C2748 H2737 0.950 . S
C2748 C2746 1.391 . S
C2748 C2749 1.400 . S
C2749 C2743 1.491 . S
C2749 C2748 1.400 . S
C2749 C2750 1.398 . S
C2750 H2738 0.950 . S
C2750 C2749 1.398 . S
C2750 C2751 1.391 . S
C2751 H2739 0.950 . S
C2751 C2747 1.393 . S
C2751 C2750 1.391 . S
H2752 C2760 0.950 . S
H2753 C2765 0.950 . S
H2754 C2762 0.950 . S
H2755 C2764 0.950 . S
H2756 C2766 0.950 . S
H2757 C2768 0.950 . S
H2758 C2770 0.950 . S
H2759 C2771 0.950 . S
C2760 H2752 0.950 . S
C2760 C2761 1.386 . S
C2760 C2762 1.391 . S
C2761 C2760 1.386 . S
C2761 C2765 1.393 . S
C2762 H2754 0.950 . S
C2762 C2760 1.391 . S
C2762 C2763 1.400 . S
C2763 C2762 1.400 . S
C2763 C2764 1.398 . S
C2763 C2769 1.491 . S
C2764 H2755 0.950 . S
C2764 C2763 1.398 . S
C2764 C2765 1.391 . S
C2765 H2753 0.950 . S
C2765 C2761 1.393 . S
C2765 C2764 1.391 . S
C2766 H2756 0.950 . S
C2766 C2767 1.386 . S
C2766 C2768 1.391 . S
C2767 C2766 1.386 . S
C2767 C2771 1.393 . S
C2768 H2757 0.950 . S
C2768 C2766 1.391 . S
C2768 C2769 1.400 . S
C2769 C2763 1.491 . S
C2769 C2768 1.400 . S
C2769 C2770 1.398 . S
C2770 H2758 0.950 . S
C2770 C2769 1.398 . S
C2770 C2771 1.391 . S
C2771 H2759 0.950 . S
C2771 C2767 1.393 . S
C2771 C2770 1.391 . S
H2772 C2780 0.950 . S
H2773 C2785 0.950 . S
H2774 C2782 0.950 . S
H2775 C2784 0.950 . S
H2776 C2786 0.950 . S
H2777 C2788 0.950 . S
H2778 C2790 0.950 . S
H2779 C2791 0.950 . S
C2780 H2772 0.950 . S
C2780 C2781 1.386 . S
C2780 C2782 1.391 . S
C2781 C2780 1.386 . S
C2781 C2785 1.393 . S
C2782 H2774 0.950 . S
C2782 C2780 1.391 . S
C2782 C2783 1.400 . S
C2783 C2782 1.400 . S
C2783 C2784 1.398 . S
C2783 C2789 1.491 . S
C2784 H2775 0.950 . S
C2784 C2783 1.398 . S
C2784 C2785 1.391 . S
C2785 H2773 0.950 . S
C2785 C2781 1.393 . S
C2785 C2784 1.391 . S
C2786 H2776 0.950 . S
C2786 C2787 1.386 . S
C2786 C2788 1.391 . S
C2787 C2786 1.386 . S
C2787 C2791 1.393 . S
C2788 H2777 0.950 . S
C2788 C2786 1.391 . S
C2788 C2789 1.400 . S
C2789 C2783 1.491 . S
C2789 C2788 1.400 . S
C2789 C2790 1.398 . S
C2790 H2778 0.950 . S
C2790 C2789 1.398 . S
C2790 C2791 1.391 . S
C2791 H2779 0.950 . S
C2791 C2787 1.393 . S
C2791 C2790 1.391 . S
H2792 C2800 0.950 . S
H2793 C2805 0.950 . S
H2794 C2802 0.950 . S
H2795 C2804 0.950 . S
H2796 C2806 0.950 . S
H2797 C2808 0.950 . S
H2798 C2810 0.950 . S
H2799 C2811 0.950 . S
C2800 H2792 0.950 . S
C2800 C2801 1.386 . S
C2800 C2802 1.391 . S
C2801 C2800 1.386 . S
C2801 C2805 1.393 . S
C2802 H2794 0.950 . S
C2802 C2800 1.391 . S
C2802 C2803 1.411 . S
C2803 C2802 1.411 . S
C2803 C2804 1.413 . S
C2803 C2809 1.467 1_655 S
C2804 H2795 0.950 . S
C2804 C2803 1.413 . S
C2804 C2805 1.391 . S
C2805 H2793 0.950 . S
C2805 C2801 1.393 . S
C2805 C2804 1.391 . S
C2806 H2796 0.950 . S
C2806 C2807 1.386 . S
C2806 C2808 1.391 . S
C2807 C2806 1.386 . S
C2807 C2811 1.393 . S
C2808 H2797 0.950 . S
C2808 C2806 1.391 . S
C2808 C2809 1.400 . S
C2809 C2803 1.467 1_455 S
C2809 C2808 1.400 . S
C2809 C2810 1.398 . S
C2810 H2798 0.950 . S
C2810 C2809 1.398 . S
C2810 C2811 1.391 . S
C2811 H2799 0.950 . S
C2811 C2807 1.393 . S
C2811 C2810 1.391 . S
H2812 C2820 0.950 . S
H2813 C2825 0.950 . S
H2814 C2822 0.950 . S
H2815 C2824 0.950 . S
H2816 C2826 0.950 . S
H2817 C2828 0.950 . S
H2818 C2830 0.950 . S
H2819 C2831 0.950 . S
C2820 H2812 0.950 . S
C2820 C2821 1.386 . S
C2820 C2822 1.391 . S
C2821 C2820 1.386 . S
C2821 C2825 1.393 . S
C2822 H2814 0.950 . S
C2822 C2820 1.391 . S
C2822 C2823 1.400 . S
C2823 C2822 1.400 . S
C2823 C2824 1.398 . S
C2823 C2829 1.491 . S
C2824 H2815 0.950 . S
C2824 C2823 1.398 . S
C2824 C2825 1.391 . S
C2825 H2813 0.950 . S
C2825 C2821 1.393 . S
C2825 C2824 1.391 . S
C2826 H2816 0.950 . S
C2826 C2827 1.386 . S
C2826 C2828 1.391 . S
C2827 C2826 1.386 . S
C2827 C2831 1.393 . S
C2828 H2817 0.950 . S
C2828 C2826 1.391 . S
C2828 C2829 1.400 . S
C2829 C2823 1.491 . S
C2829 C2828 1.400 . S
C2829 C2830 1.398 . S
C2830 H2818 0.950 . S
C2830 C2829 1.398 . S
C2830 C2831 1.391 . S
C2831 H2819 0.950 . S
C2831 C2827 1.393 . S
C2831 C2830 1.391 . S
H2832 C2840 0.950 . S
H2833 C2845 0.950 . S
H2834 C2842 0.950 . S
H2835 C2844 0.950 . S
H2836 C2846 0.950 . S
H2837 C2848 0.950 . S
H2838 C2850 0.950 . S
H2839 C2851 0.950 . S
C2840 H2832 0.950 . S
C2840 C2841 1.386 . S
C2840 C2842 1.391 . S
C2841 C2840 1.386 . S
C2841 C2845 1.393 . S
C2842 H2834 0.950 . S
C2842 C2840 1.391 . S
C2842 C2843 1.400 . S
C2843 C2842 1.400 . S
C2843 C2844 1.398 . S
C2843 C2849 1.491 . S
C2844 H2835 0.950 . S
C2844 C2843 1.398 . S
C2844 C2845 1.391 . S
C2845 H2833 0.950 . S
C2845 C2841 1.393 . S
C2845 C2844 1.391 . S
C2846 H2836 0.950 . S
C2846 C2847 1.386 . S
C2846 C2848 1.391 . S
C2847 C2846 1.386 . S
C2847 C2851 1.393 . S
C2848 H2837 0.950 . S
C2848 C2846 1.391 . S
C2848 C2849 1.400 . S
C2849 C2843 1.491 . S
C2849 C2848 1.400 . S
C2849 C2850 1.398 . S
C2850 H2838 0.950 . S
C2850 C2849 1.398 . S
C2850 C2851 1.391 . S
C2851 H2839 0.950 . S
C2851 C2847 1.393 . S
C2851 C2850 1.391 . S
H2852 C2860 0.950 . S
H2853 C2865 0.950 . S
H2854 C2862 0.950 . S
H2855 C2864 0.950 . S
H2856 C2866 0.950 . S
H2857 C2868 0.950 . S
H2858 C2870 0.950 . S
H2859 C2871 0.950 . S
C2860 H2852 0.950 . S
C2860 C2861 1.386 . S
C2860 C2862 1.391 . S
C2861 C2860 1.386 . S
C2861 C2865 1.393 . S
C2862 H2854 0.950 . S
C2862 C2860 1.391 . S
C2862 C2863 1.400 . S
C2863 C2862 1.400 . S
C2863 C2864 1.398 . S
C2863 C2869 1.491 . S
C2864 H2855 0.950 . S
C2864 C2863 1.398 . S
C2864 C2865 1.391 . S
C2865 H2853 0.950 . S
C2865 C2861 1.393 . S
C2865 C2864 1.391 . S
C2866 H2856 0.950 . S
C2866 C2867 1.386 . S
C2866 C2868 1.391 . S
C2867 C2866 1.386 . S
C2867 C2871 1.393 . S
C2868 H2857 0.950 . S
C2868 C2866 1.391 . S
C2868 C2869 1.400 . S
C2869 C2863 1.491 . S
C2869 C2868 1.400 . S
C2869 C2870 1.398 . S
C2870 H2858 0.950 . S
C2870 C2869 1.398 . S
C2870 C2871 1.391 . S
C2871 H2859 0.950 . S
C2871 C2867 1.393 . S
C2871 C2870 1.391 . S
H2872 C2880 0.950 . S
H2873 C2885 0.950 . S
H2874 C2882 0.950 . S
H2875 C2884 0.950 . S
H2876 C2886 0.950 . S
H2877 C2888 0.927 1_455 S
H2878 C2890 0.950 . S
H2879 C2891 0.950 . S
C2880 H2872 0.950 . S
C2880 C2881 1.386 . S
C2880 C2882 1.391 . S
C2881 C2880 1.386 . S
C2881 C2885 1.393 . S
C2882 H2874 0.950 . S
C2882 C2880 1.391 . S
C2882 C2883 1.400 . S
C2883 C2882 1.400 . S
C2883 C2884 1.398 . S
C2883 C2889 1.491 . S
C2884 H2875 0.950 . S
C2884 C2883 1.398 . S
C2884 C2885 1.391 . S
C2885 H2873 0.950 . S
C2885 C2881 1.393 . S
C2885 C2884 1.391 . S
C2886 H2876 0.950 . S
C2886 C2887 1.386 . S
C2886 C2888 1.420 . S
C2887 C2886 1.386 . S
C2887 C2891 1.393 . S
C2888 H2877 0.927 1_655 S
C2888 C2886 1.420 . S
C2888 C2889 1.394 1_655 S
C2889 C2883 1.491 . S
C2889 C2888 1.394 1_455 S
C2889 C2890 1.398 1_455 S
C2890 H2878 0.950 . S
C2890 C2889 1.398 1_655 S
C2890 C2891 1.391 . S
C2891 H2879 0.950 . S
C2891 C2887 1.393 . S
C2891 C2890 1.391 . S
H2892 C2900 0.950 . S
H2893 C2905 0.950 . S
H2894 C2902 0.950 . S
H2895 C2904 0.950 . S
H2896 C2906 0.950 . S
H2897 C2908 0.950 . S
H2898 C2910 0.950 . S
H2899 C2911 0.950 . S
C2900 H2892 0.950 . S
C2900 C2901 1.386 . S
C2900 C2902 1.391 . S
C2901 C2900 1.386 . S
C2901 C2905 1.393 . S
C2902 H2894 0.950 . S
C2902 C2900 1.391 . S
C2902 C2903 1.400 . S
C2903 C2902 1.400 . S
C2903 C2904 1.398 . S
C2903 C2909 1.491 . S
C2904 H2895 0.950 . S
C2904 C2903 1.398 . S
C2904 C2905 1.391 . S
C2905 H2893 0.950 . S
C2905 C2901 1.393 . S
C2905 C2904 1.391 . S
C2906 H2896 0.950 . S
C2906 C2907 1.386 . S
C2906 C2908 1.391 . S
C2907 C2906 1.386 . S
C2907 C2911 1.393 . S
C2908 H2897 0.950 . S
C2908 C2906 1.391 . S
C2908 C2909 1.400 . S
C2909 C2903 1.491 . S
C2909 C2908 1.400 . S
C2909 C2910 1.398 . S
C2910 H2898 0.950 . S
C2910 C2909 1.398 . S
C2910 C2911 1.391 . S
C2911 H2899 0.950 . S
C2911 C2907 1.393 . S
C2911 C2910 1.391 . S
H2912 C2920 0.950 . S
H2913 C2925 0.950 . S
H2914 C2922 0.950 . S
H2915 C2924 0.950 . S
H2916 C2926 0.950 . S
H2917 C2928 0.950 . S
H2918 C2930 0.950 . S
H2919 C2931 0.950 . S
C2920 H2912 0.950 . S
C2920 C2921 1.386 . S
C2920 C2922 1.391 . S
C2921 C2920 1.386 . S
C2921 C2925 1.393 . S
C2922 H2914 0.950 . S
C2922 C2920 1.391 . S
C2922 C2923 1.400 . S
C2923 C2922 1.400 . S
C2923 C2924 1.398 . S
C2923 C2929 1.491 . S
C2924 H2915 0.950 . S
C2924 C2923 1.398 . S
C2924 C2925 1.391 . S
C2925 H2913 0.950 . S
C2925 C2921 1.393 . S
C2925 C2924 1.391 . S
C2926 H2916 0.950 . S
C2926 C2927 1.386 . S
C2926 C2928 1.391 . S
C2927 C2926 1.386 . S
C2927 C2931 1.393 . S
C2928 H2917 0.950 . S
C2928 C2926 1.391 . S
C2928 C2929 1.400 . S
C2929 C2923 1.491 . S
C2929 C2928 1.400 . S
C2929 C2930 1.398 . S
C2930 H2918 0.950 . S
C2930 C2929 1.398 . S
C2930 C2931 1.391 . S
C2931 H2919 0.950 . S
C2931 C2927 1.393 . S
C2931 C2930 1.391 . S
H2932 C2940 0.950 . S
H2933 C2945 0.950 . S
H2934 C2942 0.950 . S
H2935 C2944 0.950 . S
H2936 C2946 0.950 . S
H2937 C2948 0.950 . S
H2938 C2950 0.950 . S
H2939 C2951 0.950 . S
C2940 H2932 0.950 . S
C2940 C2941 1.386 . S
C2940 C2942 1.391 1_565 S
C2941 C2940 1.386 . S
C2941 C2945 1.393 . S
C2942 H2934 0.950 . S
C2942 C2940 1.391 1_545 S
C2942 C2943 1.400 . S
C2943 C2942 1.400 . S
C2943 C2944 1.398 . S
C2943 C2949 1.491 . S
C2944 H2935 0.950 . S
C2944 C2943 1.398 . S
C2944 C2945 1.391 1_545 S
C2945 H2933 0.950 . S
C2945 C2941 1.393 . S
C2945 C2944 1.391 1_565 S
C2946 H2936 0.950 . S
C2946 C2947 1.386 . S
C2946 C2948 1.391 . S
C2947 C2946 1.386 . S
C2947 C2951 1.393 . S
C2948 H2937 0.950 . S
C2948 C2946 1.391 . S
C2948 C2949 1.400 . S
C2949 C2943 1.491 . S
C2949 C2948 1.400 . S
C2949 C2950 1.398 . S
C2950 H2938 0.950 . S
C2950 C2949 1.398 . S
C2950 C2951 1.391 . S
C2951 H2939 0.950 . S
C2951 C2947 1.393 . S
C2951 C2950 1.391 . S
H2952 C2960 0.950 . S
H2953 C2965 0.950 . S
H2954 C2962 0.950 . S
H2955 C2964 0.950 . S
H2956 C2966 0.950 . S
H2957 C2968 0.950 . S
H2958 C2970 0.950 . S
H2959 C2971 0.950 . S
C2960 H2952 0.950 . S
C2960 C2961 1.386 . S
C2960 C2962 1.391 . S
C2961 C2960 1.386 . S
C2961 C2965 1.393 . S
C2962 H2954 0.950 . S
C2962 C2960 1.391 . S
C2962 C2963 1.400 . S
C2963 C2962 1.400 . S
C2963 C2964 1.398 . S
C2963 C2969 1.491 . S
C2964 H2955 0.950 . S
C2964 C2963 1.398 . S
C2964 C2965 1.391 . S
C2965 H2953 0.950 . S
C2965 C2961 1.393 . S
C2965 C2964 1.391 . S
C2966 H2956 0.950 . S
C2966 C2967 1.386 . S
C2966 C2968 1.391 . S
C2967 C2966 1.386 . S
C2967 C2971 1.393 . S
C2968 H2957 0.950 . S
C2968 C2966 1.391 . S
C2968 C2969 1.400 . S
C2969 C2963 1.491 . S
C2969 C2968 1.400 . S
C2969 C2970 1.398 . S
C2970 H2958 0.950 . S
C2970 C2969 1.398 . S
C2970 C2971 1.391 . S
C2971 H2959 0.950 . S
C2971 C2967 1.393 . S
C2971 C2970 1.391 . S
H2972 C2980 0.950 . S
H2973 C2985 0.950 . S
H2974 C2982 0.950 . S
H2975 C2984 0.950 . S
H2976 C2986 0.950 . S
H2977 C2988 0.950 . S
H2978 C2990 0.950 . S
H2979 C2991 0.950 . S
C2980 H2972 0.950 . S
C2980 C2981 1.386 . S
C2980 C2982 1.391 . S
C2981 C2980 1.386 . S
C2981 C2985 1.393 . S
C2982 H2974 0.950 . S
C2982 C2980 1.391 . S
C2982 C2983 1.400 . S
C2983 C2982 1.400 . S
C2983 C2984 1.398 . S
C2983 C2989 1.491 . S
C2984 H2975 0.950 . S
C2984 C2983 1.398 . S
C2984 C2985 1.391 . S
C2985 H2973 0.950 . S
C2985 C2981 1.393 . S
C2985 C2984 1.391 . S
C2986 H2976 0.950 . S
C2986 C2987 1.386 . S
C2986 C2988 1.391 1_545 S
C2987 C2986 1.386 . S
C2987 C2991 1.393 . S
C2988 H2977 0.950 . S
C2988 C2986 1.391 1_565 S
C2988 C2989 1.400 . S
C2989 C2983 1.491 . S
C2989 C2988 1.400 . S
C2989 C2990 1.398 . S
C2990 H2978 0.950 . S
C2990 C2989 1.398 . S
C2990 C2991 1.391 1_565 S
C2991 H2979 0.950 . S
C2991 C2987 1.393 . S
C2991 C2990 1.391 1_545 S
H2992 C3000 0.950 . S
H2993 C3005 0.950 . S
H2994 C3002 0.950 . S
H2995 C3004 0.950 . S
H2996 C3006 0.950 . S
H2997 C3008 0.950 . S
H2998 C3010 0.950 . S
H2999 C3011 0.950 . S
C3000 H2992 0.950 . S
C3000 C3001 1.386 . S
C3000 C3002 1.391 . S
C3001 C3000 1.386 . S
C3001 C3005 1.393 . S
C3002 H2994 0.950 . S
C3002 C3000 1.391 . S
C3002 C3003 1.400 . S
C3003 C3002 1.400 . S
C3003 C3004 1.398 . S
C3003 C3009 1.491 . S
C3004 H2995 0.950 . S
C3004 C3003 1.398 . S
C3004 C3005 1.391 . S
C3005 H2993 0.950 . S
C3005 C3001 1.393 . S
C3005 C3004 1.391 . S
C3006 H2996 0.950 . S
C3006 C3007 1.386 . S
C3006 C3008 1.391 . S
C3007 C3006 1.386 . S
C3007 C3011 1.393 . S
C3008 H2997 0.950 . S
C3008 C3006 1.391 . S
C3008 C3009 1.400 . S
C3009 C3003 1.491 . S
C3009 C3008 1.400 . S
C3009 C3010 1.398 . S
C3010 H2998 0.950 . S
C3010 C3009 1.398 . S
C3010 C3011 1.391 . S
C3011 H2999 0.950 . S
C3011 C3007 1.393 . S
C3011 C3010 1.391 . S
H3012 C3020 0.950 . S
H3013 C3025 0.950 . S
H3014 C3022 0.950 . S
H3015 C3024 0.950 . S
H3016 C3026 0.950 . S
H3017 C3028 0.950 . S
H3018 C3030 0.950 . S
H3019 C3031 0.950 . S
C3020 H3012 0.950 . S
C3020 C3021 1.386 . S
C3020 C3022 1.391 . S
C3021 C3020 1.386 . S
C3021 C3025 1.393 . S
C3022 H3014 0.950 . S
C3022 C3020 1.391 . S
C3022 C3023 1.400 . S
C3023 C3022 1.400 . S
C3023 C3024 1.398 . S
C3023 C3029 1.491 . S
C3024 H3015 0.950 . S
C3024 C3023 1.398 . S
C3024 C3025 1.391 . S
C3025 H3013 0.950 . S
C3025 C3021 1.393 . S
C3025 C3024 1.391 . S
C3026 H3016 0.950 . S
C3026 C3027 1.386 . S
C3026 C3028 1.391 . S
C3027 C3026 1.386 . S
C3027 C3031 1.393 . S
C3028 H3017 0.950 . S
C3028 C3026 1.391 . S
C3028 C3029 1.400 . S
C3029 C3023 1.491 . S
C3029 C3028 1.400 . S
C3029 C3030 1.398 . S
C3030 H3018 0.950 . S
C3030 C3029 1.398 . S
C3030 C3031 1.391 . S
C3031 H3019 0.950 . S
C3031 C3027 1.393 . S
C3031 C3030 1.391 . S
H3032 C3040 0.950 . S
H3033 C3045 0.950 . S
H3034 C3042 0.950 . S
H3035 C3044 0.950 . S
H3036 C3046 0.950 . S
H3037 C3048 0.950 . S
H3038 C3050 0.950 . S
H3039 C3051 0.950 . S
C3040 H3032 0.950 . S
C3040 C3041 1.386 . S
C3040 C3042 1.391 . S
C3041 C3040 1.386 . S
C3041 C3045 1.393 . S
C3042 H3034 0.950 . S
C3042 C3040 1.391 . S
C3042 C3043 1.400 . S
C3043 C3042 1.400 . S
C3043 C3044 1.398 . S
C3043 C3049 1.491 . S
C3044 H3035 0.950 . S
C3044 C3043 1.398 . S
C3044 C3045 1.391 . S
C3045 H3033 0.950 . S
C3045 C3041 1.393 . S
C3045 C3044 1.391 . S
C3046 H3036 0.950 . S
C3046 C3047 1.386 . S
C3046 C3048 1.391 . S
C3047 C3046 1.386 . S
C3047 C3051 1.393 . S
C3048 H3037 0.950 . S
C3048 C3046 1.391 . S
C3048 C3049 1.400 . S
C3049 C3043 1.491 . S
C3049 C3048 1.400 . S
C3049 C3050 1.398 . S
C3050 H3038 0.950 . S
C3050 C3049 1.398 . S
C3050 C3051 1.391 . S
C3051 H3039 0.950 . S
C3051 C3047 1.393 . S
C3051 C3050 1.391 . S
H3052 C3060 0.950 . S
H3053 C3065 0.950 . S
H3054 C3062 0.950 . S
H3055 C3064 0.950 . S
H3056 C3066 0.950 . S
H3057 C3068 0.950 . S
H3058 C3070 0.950 . S
H3059 C3071 0.950 . S
C3060 H3052 0.950 . S
C3060 C3061 1.386 . S
C3060 C3062 1.391 . S
C3061 C3060 1.386 . S
C3061 C3065 1.393 . S
C3062 H3054 0.950 . S
C3062 C3060 1.391 . S
C3062 C3063 1.400 . S
C3063 C3062 1.400 . S
C3063 C3064 1.398 . S
C3063 C3069 1.491 . S
C3064 H3055 0.950 . S
C3064 C3063 1.398 . S
C3064 C3065 1.391 . S
C3065 H3053 0.950 . S
C3065 C3061 1.393 . S
C3065 C3064 1.391 . S
C3066 H3056 0.950 . S
C3066 C3067 1.386 . S
C3066 C3068 1.391 . S
C3067 C3066 1.386 . S
C3067 C3071 1.393 . S
C3068 H3057 0.950 . S
C3068 C3066 1.391 . S
C3068 C3069 1.400 . S
C3069 C3063 1.491 . S
C3069 C3068 1.400 . S
C3069 C3070 1.398 . S
C3070 H3058 0.950 . S
C3070 C3069 1.398 . S
C3070 C3071 1.391 . S
C3071 H3059 0.950 . S
C3071 C3067 1.393 . S
C3071 C3070 1.391 . S
H3072 C3080 0.950 . S
H3073 C3085 0.950 . S
H3074 C3082 0.950 . S
H3075 C3084 0.950 . S
H3076 C3086 0.950 . S
H3077 C3088 0.950 . S
H3078 C3090 0.950 . S
H3079 C3091 0.950 . S
C3080 H3072 0.950 . S
C3080 C3081 1.386 . S
C3080 C3082 1.391 . S
C3081 C3080 1.386 . S
C3081 C3085 1.393 . S
C3082 H3074 0.950 . S
C3082 C3080 1.391 . S
C3082 C3083 1.400 . S
C3083 C3082 1.400 . S
C3083 C3084 1.398 . S
C3083 C3089 1.491 . S
C3084 H3075 0.950 . S
C3084 C3083 1.398 . S
C3084 C3085 1.391 . S
C3085 H3073 0.950 . S
C3085 C3081 1.393 . S
C3085 C3084 1.391 . S
C3086 H3076 0.950 . S
C3086 C3087 1.386 . S
C3086 C3088 1.391 . S
C3087 C3086 1.386 . S
C3087 C3091 1.393 . S
C3088 H3077 0.950 . S
C3088 C3086 1.391 . S
C3088 C3089 1.400 . S
C3089 C3083 1.491 . S
C3089 C3088 1.400 . S
C3089 C3090 1.398 . S
C3090 H3078 0.950 . S
C3090 C3089 1.398 . S
C3090 C3091 1.391 . S
C3091 H3079 0.950 . S
C3091 C3087 1.393 . S
C3091 C3090 1.391 . S
H3092 C3100 0.950 . S
H3093 C3105 0.950 . S
H3094 C3102 0.950 . S
H3095 C3104 0.950 . S
H3096 C3106 0.950 . S
H3097 C3108 0.950 . S
H3098 C3110 0.950 . S
H3099 C3111 0.950 . S
C3100 H3092 0.950 . S
C3100 C3101 1.386 . S
C3100 C3102 1.391 . S
C3101 C3100 1.386 . S
C3101 C3105 1.393 . S
C3102 H3094 0.950 . S
C3102 C3100 1.391 . S
C3102 C3103 1.400 . S
C3103 C3102 1.400 . S
C3103 C3104 1.398 . S
C3103 C3109 1.491 . S
C3104 H3095 0.950 . S
C3104 C3103 1.398 . S
C3104 C3105 1.391 . S
C3105 H3093 0.950 . S
C3105 C3101 1.393 . S
C3105 C3104 1.391 . S
C3106 H3096 0.950 . S
C3106 C3107 1.386 . S
C3106 C3108 1.391 . S
C3107 C3106 1.386 . S
C3107 C3111 1.393 . S
C3108 H3097 0.950 . S
C3108 C3106 1.391 . S
C3108 C3109 1.400 . S
C3109 C3103 1.491 . S
C3109 C3108 1.400 . S
C3109 C3110 1.398 . S
C3110 H3098 0.950 . S
C3110 C3109 1.398 . S
C3110 C3111 1.391 . S
C3111 H3099 0.950 . S
C3111 C3107 1.393 . S
C3111 C3110 1.391 . S
H3112 C3120 0.950 . S
H3113 C3125 0.950 . S
H3114 C3122 0.950 . S
H3115 C3124 0.950 . S
H3116 C3126 0.950 . S
H3117 C3128 0.950 . S
H3118 C3130 0.950 . S
H3119 C3131 0.950 . S
C3120 H3112 0.950 . S
C3120 C3121 1.386 . S
C3120 C3122 1.391 . S
C3121 C3120 1.386 . S
C3121 C3125 1.393 . S
C3122 H3114 0.950 . S
C3122 C3120 1.391 . S
C3122 C3123 1.400 . S
C3123 C3122 1.400 . S
C3123 C3124 1.398 . S
C3123 C3129 1.491 . S
C3124 H3115 0.950 . S
C3124 C3123 1.398 . S
C3124 C3125 1.391 . S
C3125 H3113 0.950 . S
C3125 C3121 1.393 . S
C3125 C3124 1.391 . S
C3126 H3116 0.950 . S
C3126 C3127 1.386 . S
C3126 C3128 1.391 1_556 S
C3127 C3126 1.386 . S
C3127 C3131 1.393 . S
C3128 H3117 0.950 . S
C3128 C3126 1.391 1_554 S
C3128 C3129 1.400 . S
C3129 C3123 1.491 . S
C3129 C3128 1.400 . S
C3129 C3130 1.398 . S
C3130 H3118 0.950 . S
C3130 C3129 1.398 . S
C3130 C3131 1.391 1_554 S
C3131 H3119 0.950 . S
C3131 C3127 1.393 . S
C3131 C3130 1.391 1_556 S
H3132 C3140 0.950 . S
H3133 C3145 0.950 . S
H3134 C3142 0.950 . S
H3135 C3144 0.950 . S
H3136 C3146 0.950 . S
H3137 C3148 0.950 . S
H3138 C3150 0.950 . S
H3139 C3151 0.950 . S
C3140 H3132 0.950 . S
C3140 C3141 1.386 . S
C3140 C3142 1.391 . S
C3141 C3140 1.386 . S
C3141 C3145 1.393 . S
C3142 H3134 0.950 . S
C3142 C3140 1.391 . S
C3142 C3143 1.400 . S
C3143 C3142 1.400 . S
C3143 C3144 1.398 . S
C3143 C3149 1.491 . S
C3144 H3135 0.950 . S
C3144 C3143 1.398 . S
C3144 C3145 1.391 . S
C3145 H3133 0.950 . S
C3145 C3141 1.393 . S
C3145 C3144 1.391 . S
C3146 H3136 0.950 . S
C3146 C3147 1.386 . S
C3146 C3148 1.391 . S
C3147 C3146 1.386 . S
C3147 C3151 1.393 . S
C3148 H3137 0.950 . S
C3148 C3146 1.391 . S
C3148 C3149 1.400 . S
C3149 C3143 1.491 . S
C3149 C3148 1.400 . S
C3149 C3150 1.398 . S
C3150 H3138 0.950 . S
C3150 C3149 1.398 . S
C3150 C3151 1.391 . S
C3151 H3139 0.950 . S
C3151 C3147 1.393 . S
C3151 C3150 1.391 . S
H3152 C3160 0.950 . S
H3153 C3165 0.950 . S
H3154 C3162 0.950 . S
H3155 C3164 0.950 . S
H3156 C3166 0.950 . S
H3157 C3168 0.950 . S
H3158 C3170 0.950 . S
H3159 C3171 0.950 . S
C3160 H3152 0.950 . S
C3160 C3161 1.386 . S
C3160 C3162 1.391 . S
C3161 C3160 1.386 . S
C3161 C3165 1.393 . S
C3162 H3154 0.950 . S
C3162 C3160 1.391 . S
C3162 C3163 1.400 . S
C3163 C3162 1.400 . S
C3163 C3164 1.398 . S
C3163 C3169 1.491 . S
C3164 H3155 0.950 . S
C3164 C3163 1.398 . S
C3164 C3165 1.391 . S
C3165 H3153 0.950 . S
C3165 C3161 1.393 . S
C3165 C3164 1.391 . S
C3166 H3156 0.950 . S
C3166 C3167 1.386 . S
C3166 C3168 1.391 1_554 S
C3167 C3166 1.386 . S
C3167 C3171 1.393 . S
C3168 H3157 0.950 . S
C3168 C3166 1.391 1_556 S
C3168 C3169 1.400 . S
C3169 C3163 1.491 . S
C3169 C3168 1.400 . S
C3169 C3170 1.398 . S
C3170 H3158 0.950 . S
C3170 C3169 1.398 . S
C3170 C3171 1.391 1_556 S
C3171 H3159 0.950 . S
C3171 C3167 1.393 . S
C3171 C3170 1.391 1_554 S
H3172 C3180 0.950 . S
H3173 C3185 0.950 . S
H3174 C3182 0.950 . S
H3175 C3184 0.950 . S
H3176 C3186 0.950 . S
H3177 C3188 0.950 . S
H3178 C3190 0.950 . S
H3179 C3191 0.950 . S
C3180 H3172 0.950 . S
C3180 C3181 1.386 . S
C3180 C3182 1.391 . S
C3181 C3180 1.386 . S
C3181 C3185 1.393 . S
C3182 H3174 0.950 . S
C3182 C3180 1.391 . S
C3182 C3183 1.400 . S
C3183 C3182 1.400 . S
C3183 C3184 1.398 . S
C3183 C3189 1.491 . S
C3184 H3175 0.950 . S
C3184 C3183 1.398 . S
C3184 C3185 1.391 . S
C3185 H3173 0.950 . S
C3185 C3181 1.393 . S
C3185 C3184 1.391 . S
C3186 H3176 0.950 . S
C3186 C3187 1.386 . S
C3186 C3188 1.391 . S
C3187 C3186 1.386 . S
C3187 C3191 1.393 . S
C3188 H3177 0.950 . S
C3188 C3186 1.391 . S
C3188 C3189 1.400 . S
C3189 C3183 1.491 . S
C3189 C3188 1.400 . S
C3189 C3190 1.398 . S
C3190 H3178 0.950 . S
C3190 C3189 1.398 . S
C3190 C3191 1.391 . S
C3191 H3179 0.950 . S
C3191 C3187 1.393 . S
C3191 C3190 1.391 . S
H3192 C3200 0.950 . S
H3193 C3205 0.950 . S
H3194 C3202 0.950 . S
H3195 C3204 0.950 . S
H3196 C3206 0.950 . S
H3197 C3208 0.950 . S
H3198 C3210 0.950 . S
H3199 C3211 0.950 . S
C3200 H3192 0.950 . S
C3200 C3201 1.386 . S
C3200 C3202 1.391 . S
C3201 C3200 1.386 . S
C3201 C3205 1.393 . S
C3202 H3194 0.950 . S
C3202 C3200 1.391 . S
C3202 C3203 1.400 . S
C3203 C3202 1.400 . S
C3203 C3204 1.398 . S
C3203 C3209 1.491 . S
C3204 H3195 0.950 . S
C3204 C3203 1.398 . S
C3204 C3205 1.391 . S
C3205 H3193 0.950 . S
C3205 C3201 1.393 . S
C3205 C3204 1.391 . S
C3206 H3196 0.950 . S
C3206 C3207 1.386 . S
C3206 C3208 1.391 . S
C3207 C3206 1.386 . S
C3207 C3211 1.393 . S
C3208 H3197 0.950 . S
C3208 C3206 1.391 . S
C3208 C3209 1.400 . S
C3209 C3203 1.491 . S
C3209 C3208 1.400 . S
C3209 C3210 1.398 . S
C3210 H3198 0.950 . S
C3210 C3209 1.398 . S
C3210 C3211 1.391 . S
C3211 H3199 0.950 . S
C3211 C3207 1.393 . S
C3211 C3210 1.391 . S
H3212 C3220 0.950 . S
H3213 C3225 0.950 . S
H3214 C3222 0.950 . S
H3215 C3224 0.950 . S
H3216 C3226 0.950 . S
H3217 C3228 0.950 . S
H3218 C3230 0.950 . S
H3219 C3231 0.950 . S
C3220 H3212 0.950 . S
C3220 C3221 1.386 . S
C3220 C3222 1.391 . S
C3221 C3220 1.386 . S
C3221 C3225 1.393 . S
C3222 H3214 0.950 . S
C3222 C3220 1.391 . S
C3222 C3223 1.400 . S
C3223 C3222 1.400 . S
C3223 C3224 1.398 . S
C3223 C3229 1.491 . S
C3224 H3215 0.950 . S
C3224 C3223 1.398 . S
C3224 C3225 1.391 . S
C3225 H3213 0.950 . S
C3225 C3221 1.393 . S
C3225 C3224 1.391 . S
C3226 H3216 0.950 . S
C3226 C3227 1.386 . S
C3226 C3228 1.391 . S
C3227 C3226 1.386 . S
C3227 C3231 1.393 . S
C3228 H3217 0.950 . S
C3228 C3226 1.391 . S
C3228 C3229 1.400 . S
C3229 C3223 1.491 . S
C3229 C3228 1.400 . S
C3229 C3230 1.398 . S
C3230 H3218 0.950 . S
C3230 C3229 1.398 . S
C3230 C3231 1.391 . S
C3231 H3219 0.950 . S
C3231 C3227 1.393 . S
C3231 C3230 1.391 . S
H3232 C3240 0.950 . S
H3233 C3245 0.950 . S
H3234 C3242 0.950 . S
H3235 C3244 0.950 . S
H3236 C3246 0.950 . S
H3237 C3248 0.950 . S
H3238 C3250 0.950 . S
H3239 C3251 0.950 . S
C3240 H3232 0.950 . S
C3240 C3241 1.386 . S
C3240 C3242 1.391 . S
C3241 C3240 1.386 . S
C3241 C3245 1.393 . S
C3242 H3234 0.950 . S
C3242 C3240 1.391 . S
C3242 C3243 1.400 . S
C3243 C3242 1.400 . S
C3243 C3244 1.398 . S
C3243 C3249 1.491 . S
C3244 H3235 0.950 . S
C3244 C3243 1.398 . S
C3244 C3245 1.391 . S
C3245 H3233 0.950 . S
C3245 C3241 1.393 . S
C3245 C3244 1.391 . S
C3246 H3236 0.950 . S
C3246 C3247 1.386 . S
C3246 C3248 1.391 . S
C3247 C3246 1.386 . S
C3247 C3251 1.393 . S
C3248 H3237 0.950 . S
C3248 C3246 1.391 . S
C3248 C3249 1.400 . S
C3249 C3243 1.491 . S
C3249 C3248 1.400 . S
C3249 C3250 1.398 . S
C3250 H3238 0.950 . S
C3250 C3249 1.398 . S
C3250 C3251 1.391 . S
C3251 H3239 0.950 . S
C3251 C3247 1.393 . S
C3251 C3250 1.391 . S
H3252 C3260 0.950 . S
H3253 C3265 0.950 . S
H3254 C3262 0.950 . S
H3255 C3264 0.950 . S
H3256 C3266 0.950 . S
H3257 C3268 0.950 . S
H3258 C3270 0.950 . S
H3259 C3271 0.950 . S
C3260 H3252 0.950 . S
C3260 C3261 1.386 . S
C3260 C3262 1.391 . S
C3261 C3260 1.386 . S
C3261 C3265 1.393 . S
C3262 H3254 0.950 . S
C3262 C3260 1.391 . S
C3262 C3263 1.400 . S
C3263 C3262 1.400 . S
C3263 C3264 1.398 . S
C3263 C3269 1.491 . S
C3264 H3255 0.950 . S
C3264 C3263 1.398 . S
C3264 C3265 1.391 . S
C3265 H3253 0.950 . S
C3265 C3261 1.393 . S
C3265 C3264 1.391 . S
C3266 H3256 0.950 . S
C3266 C3267 1.386 . S
C3266 C3268 1.391 . S
C3267 C3266 1.386 . S
C3267 C3271 1.393 . S
C3268 H3257 0.950 . S
C3268 C3266 1.391 . S
C3268 C3269 1.400 . S
C3269 C3263 1.491 . S
C3269 C3268 1.400 . S
C3269 C3270 1.398 . S
C3270 H3258 0.950 . S
C3270 C3269 1.398 . S
C3270 C3271 1.391 . S
C3271 H3259 0.950 . S
C3271 C3267 1.393 . S
C3271 C3270 1.391 . S
H3272 C3280 0.950 . S
H3273 C3285 0.950 . S
H3274 C3282 0.950 . S
H3275 C3284 0.950 . S
H3276 C3286 0.950 . S
H3277 C3288 0.950 1_655 S
H3278 C3290 0.950 . S
H3279 C3291 0.950 . S
C3280 H3272 0.950 . S
C3280 C3281 1.386 . S
C3280 C3282 1.391 . S
C3281 C3280 1.386 . S
C3281 C3285 1.393 . S
C3282 H3274 0.950 . S
C3282 C3280 1.391 . S
C3282 C3283 1.400 . S
C3283 C3282 1.400 . S
C3283 C3284 1.398 . S
C3283 C3289 1.491 1_655 S
C3284 H3275 0.950 . S
C3284 C3283 1.398 . S
C3284 C3285 1.391 . S
C3285 H3273 0.950 . S
C3285 C3281 1.393 . S
C3285 C3284 1.391 . S
C3286 H3276 0.950 . S
C3286 C3287 1.386 . S
C3286 C3288 1.391 . S
C3287 C3286 1.386 . S
C3287 C3291 1.393 . S
C3288 H3277 0.950 1_455 S
C3288 C3286 1.391 . S
C3288 C3289 1.400 . S
C3289 C3283 1.491 1_455 S
C3289 C3288 1.400 . S
C3289 C3290 1.398 . S
C3290 H3278 0.950 . S
C3290 C3289 1.398 . S
C3290 C3291 1.391 . S
C3291 H3279 0.950 . S
C3291 C3287 1.393 . S
C3291 C3290 1.391 . S
H3292 C3300 0.950 . S
H3293 C3305 0.950 . S
H3294 C3302 0.950 . S
H3295 C3304 0.950 . S
H3296 C3306 0.950 . S
H3297 C3308 0.950 . S
H3298 C3310 0.950 . S
H3299 C3311 0.950 . S
C3300 H3292 0.950 . S
C3300 C3301 1.386 . S
C3300 C3302 1.391 . S
C3301 C3300 1.386 . S
C3301 C3305 1.393 . S
C3302 H3294 0.950 . S
C3302 C3300 1.391 . S
C3302 C3303 1.400 . S
C3303 C3302 1.400 . S
C3303 C3304 1.398 . S
C3303 C3309 1.491 . S
C3304 H3295 0.950 . S
C3304 C3303 1.398 . S
C3304 C3305 1.391 . S
C3305 H3293 0.950 . S
C3305 C3301 1.393 . S
C3305 C3304 1.391 . S
C3306 H3296 0.950 . S
C3306 C3307 1.386 . S
C3306 C3308 1.391 . S
C3307 C3306 1.386 . S
C3307 C3311 1.393 . S
C3308 H3297 0.950 . S
C3308 C3306 1.391 . S
C3308 C3309 1.400 . S
C3309 C3303 1.491 . S
C3309 C3308 1.400 . S
C3309 C3310 1.398 . S
C3310 H3298 0.950 . S
C3310 C3309 1.398 . S
C3310 C3311 1.391 . S
C3311 H3299 0.950 . S
C3311 C3307 1.393 . S
C3311 C3310 1.391 . S
H3312 C3320 0.950 . S
H3313 C3325 0.950 . S
H3314 C3322 0.950 . S
H3315 C3324 0.950 . S
H3316 C3326 0.950 . S
H3317 C3328 0.950 . S
H3318 C3330 0.950 . S
H3319 C3331 0.950 . S
C3320 H3312 0.950 . S
C3320 C3321 1.386 . S
C3320 C3322 1.391 . S
C3321 C3320 1.386 . S
C3321 C3325 1.393 . S
C3322 H3314 0.950 . S
C3322 C3320 1.391 . S
C3322 C3323 1.400 . S
C3323 C3322 1.400 . S
C3323 C3324 1.398 . S
C3323 C3329 1.491 . S
C3324 H3315 0.950 . S
C3324 C3323 1.398 . S
C3324 C3325 1.391 . S
C3325 H3313 0.950 . S
C3325 C3321 1.393 . S
C3325 C3324 1.391 . S
C3326 H3316 0.950 . S
C3326 C3327 1.386 . S
C3326 C3328 1.391 . S
C3327 C3326 1.386 . S
C3327 C3331 1.393 . S
C3328 H3317 0.950 . S
C3328 C3326 1.391 . S
C3328 C3329 1.400 . S
C3329 C3323 1.491 . S
C3329 C3328 1.400 . S
C3329 C3330 1.398 . S
C3330 H3318 0.950 . S
C3330 C3329 1.398 . S
C3330 C3331 1.391 . S
C3331 H3319 0.950 . S
C3331 C3327 1.393 . S
C3331 C3330 1.391 . S
H3332 C3340 0.950 . S
H3333 C3345 0.950 . S
H3334 C3342 0.950 . S
H3335 C3344 0.950 . S
H3336 C3346 0.950 . S
H3337 C3348 0.950 . S
H3338 C3350 0.950 . S
H3339 C3351 0.950 . S
C3340 H3332 0.950 . S
C3340 C3341 1.386 . S
C3340 C3342 1.391 . S
C3341 C3340 1.386 . S
C3341 C3345 1.393 . S
C3342 H3334 0.950 . S
C3342 C3340 1.391 . S
C3342 C3343 1.400 . S
C3343 C3342 1.400 . S
C3343 C3344 1.398 . S
C3343 C3349 1.491 . S
C3344 H3335 0.950 . S
C3344 C3343 1.398 . S
C3344 C3345 1.391 . S
C3345 H3333 0.950 . S
C3345 C3341 1.393 . S
C3345 C3344 1.391 . S
C3346 H3336 0.950 . S
C3346 C3347 1.386 . S
C3346 C3348 1.391 . S
C3347 C3346 1.386 . S
C3347 C3351 1.393 . S
C3348 H3337 0.950 . S
C3348 C3346 1.391 . S
C3348 C3349 1.400 . S
C3349 C3343 1.491 . S
C3349 C3348 1.400 . S
C3349 C3350 1.398 . S
C3350 H3338 0.950 . S
C3350 C3349 1.398 . S
C3350 C3351 1.391 . S
C3351 H3339 0.950 . S
C3351 C3347 1.393 . S
C3351 C3350 1.391 . S
H3352 C3360 0.950 . S
H3353 C3365 0.950 . S
H3354 C3362 0.950 . S
H3355 C3364 0.950 . S
H3356 C3366 0.950 . S
H3357 C3368 0.950 . S
H3358 C3370 0.950 . S
H3359 C3371 0.950 . S
C3360 H3352 0.950 . S
C3360 C3361 1.386 . S
C3360 C3362 1.391 1_455 S
C3361 C3360 1.386 . S
C3361 C3365 1.393 . S
C3362 H3354 0.950 . S
C3362 C3360 1.391 1_655 S
C3362 C3363 1.400 . S
C3363 C3362 1.400 . S
C3363 C3364 1.398 . S
C3363 C3369 1.491 . S
C3364 H3355 0.950 . S
C3364 C3363 1.398 . S
C3364 C3365 1.391 1_655 S
C3365 H3353 0.950 . S
C3365 C3361 1.393 . S
C3365 C3364 1.391 1_455 S
C3366 H3356 0.950 . S
C3366 C3367 1.386 . S
C3366 C3368 1.391 . S
C3367 C3366 1.386 . S
C3367 C3371 1.393 . S
C3368 H3357 0.950 . S
C3368 C3366 1.391 . S
C3368 C3369 1.400 . S
C3369 C3363 1.491 . S
C3369 C3368 1.400 . S
C3369 C3370 1.398 . S
C3370 H3358 0.950 . S
C3370 C3369 1.398 . S
C3370 C3371 1.391 . S
C3371 H3359 0.950 . S
C3371 C3367 1.393 . S
C3371 C3370 1.391 . S
H3372 C3380 0.950 . S
H3373 C3385 0.950 . S
H3374 C3382 0.950 . S
H3375 C3384 0.950 . S
H3376 C3386 0.950 . S
H3377 C3388 0.950 . S
H3378 C3390 0.950 . S
H3379 C3391 0.950 . S
C3380 H3372 0.950 . S
C3380 C3381 1.386 . S
C3380 C3382 1.391 . S
C3381 C3380 1.386 . S
C3381 C3385 1.393 . S
C3382 H3374 0.950 . S
C3382 C3380 1.391 . S
C3382 C3383 1.400 . S
C3383 C3382 1.400 . S
C3383 C3384 1.398 . S
C3383 C3389 1.491 . S
C3384 H3375 0.950 . S
C3384 C3383 1.398 . S
C3384 C3385 1.391 . S
C3385 H3373 0.950 . S
C3385 C3381 1.393 . S
C3385 C3384 1.391 . S
C3386 H3376 0.950 . S
C3386 C3387 1.386 . S
C3386 C3388 1.391 . S
C3387 C3386 1.386 . S
C3387 C3391 1.393 . S
C3388 H3377 0.950 . S
C3388 C3386 1.391 . S
C3388 C3389 1.400 . S
C3389 C3383 1.491 . S
C3389 C3388 1.400 . S
C3389 C3390 1.398 . S
C3390 H3378 0.950 . S
C3390 C3389 1.398 . S
C3390 C3391 1.391 . S
C3391 H3379 0.950 . S
C3391 C3387 1.393 . S
C3391 C3390 1.391 . S
H3392 C3400 0.950 . S
H3393 C3405 0.950 . S
H3394 C3402 0.950 . S
H3395 C3404 0.950 . S
H3396 C3406 0.950 . S
H3397 C3408 0.950 . S
H3398 C3410 0.950 . S
H3399 C3411 0.950 . S
C3400 H3392 0.950 . S
C3400 C3401 1.386 . S
C3400 C3402 1.391 . S
C3401 C3400 1.386 . S
C3401 C3405 1.393 . S
C3402 H3394 0.950 . S
C3402 C3400 1.391 . S
C3402 C3403 1.400 . S
C3403 C3402 1.400 . S
C3403 C3404 1.398 . S
C3403 C3409 1.491 . S
C3404 H3395 0.950 . S
C3404 C3403 1.398 . S
C3404 C3405 1.391 . S
C3405 H3393 0.950 . S
C3405 C3401 1.393 . S
C3405 C3404 1.391 . S
C3406 H3396 0.950 . S
C3406 C3407 1.386 . S
C3406 C3408 1.391 . S
C3407 C3406 1.386 . S
C3407 C3411 1.393 . S
C3408 H3397 0.950 . S
C3408 C3406 1.391 . S
C3408 C3409 1.400 . S
C3409 C3403 1.491 . S
C3409 C3408 1.400 . S
C3409 C3410 1.398 . S
C3410 H3398 0.950 . S
C3410 C3409 1.398 . S
C3410 C3411 1.391 . S
C3411 H3399 0.950 . S
C3411 C3407 1.393 . S
C3411 C3410 1.391 . S
H3412 C3420 0.950 . S
H3413 C3425 0.950 . S
H3414 C3422 0.950 . S
H3415 C3424 0.950 . S
H3416 C3426 0.950 . S
H3417 C3428 0.950 . S
H3418 C3430 0.950 . S
H3419 C3431 0.950 . S
C3420 H3412 0.950 . S
C3420 C3421 1.386 . S
C3420 C3422 1.391 . S
C3421 C3420 1.386 . S
C3421 C3425 1.393 . S
C3422 H3414 0.950 . S
C3422 C3420 1.391 . S
C3422 C3423 1.400 . S
C3423 C3422 1.400 . S
C3423 C3424 1.398 . S
C3423 C3429 1.491 . S
C3424 H3415 0.950 . S
C3424 C3423 1.398 . S
C3424 C3425 1.391 . S
C3425 H3413 0.950 . S
C3425 C3421 1.393 . S
C3425 C3424 1.391 . S
C3426 H3416 0.950 . S
C3426 C3427 1.386 . S
C3426 C3428 1.391 1_545 S
C3427 C3426 1.386 . S
C3427 C3431 1.393 . S
C3428 H3417 0.950 . S
C3428 C3426 1.391 1_565 S
C3428 C3429 1.400 . S
C3429 C3423 1.491 . S
C3429 C3428 1.400 . S
C3429 C3430 1.398 . S
C3430 H3418 0.950 . S
C3430 C3429 1.398 . S
C3430 C3431 1.391 1_565 S
C3431 H3419 0.950 . S
C3431 C3427 1.393 . S
C3431 C3430 1.391 1_545 S
H3432 C3440 0.950 . S
H3433 C3445 0.950 . S
H3434 C3442 0.950 . S
H3435 C3444 0.950 . S
H3436 C3446 0.950 . S
H3437 C3448 0.950 . S
H3438 C3450 0.950 . S
H3439 C3451 0.950 . S
C3440 H3432 0.950 . S
C3440 C3441 1.386 . S
C3440 C3442 1.391 . S
C3441 C3440 1.386 . S
C3441 C3445 1.393 . S
C3442 H3434 0.950 . S
C3442 C3440 1.391 . S
C3442 C3443 1.400 . S
C3443 C3442 1.400 . S
C3443 C3444 1.398 . S
C3443 C3449 1.491 . S
C3444 H3435 0.950 . S
C3444 C3443 1.398 . S
C3444 C3445 1.391 . S
C3445 H3433 0.950 . S
C3445 C3441 1.393 . S
C3445 C3444 1.391 . S
C3446 H3436 0.950 . S
C3446 C3447 1.386 . S
C3446 C3448 1.391 . S
C3447 C3446 1.386 . S
C3447 C3451 1.393 . S
C3448 H3437 0.950 . S
C3448 C3446 1.391 . S
C3448 C3449 1.400 . S
C3449 C3443 1.491 . S
C3449 C3448 1.400 . S
C3449 C3450 1.398 . S
C3450 H3438 0.950 . S
C3450 C3449 1.398 . S
C3450 C3451 1.391 . S
C3451 H3439 0.950 . S
C3451 C3447 1.393 . S
C3451 C3450 1.391 . S
H3452 C3460 0.950 . S
H3453 C3465 0.950 . S
H3454 C3462 0.950 . S
H3455 C3464 0.950 . S
H3456 C3466 0.950 . S
H3457 C3468 0.950 . S
H3458 C3470 0.950 . S
H3459 C3471 0.950 . S
C3460 H3452 0.950 . S
C3460 C3461 1.386 . S
C3460 C3462 1.391 1_565 S
C3461 C3460 1.386 . S
C3461 C3465 1.393 . S
C3462 H3454 0.950 . S
C3462 C3460 1.391 1_545 S
C3462 C3463 1.400 . S
C3463 C3462 1.400 . S
C3463 C3464 1.398 . S
C3463 C3469 1.491 . S
C3464 H3455 0.950 . S
C3464 C3463 1.398 . S
C3464 C3465 1.391 1_545 S
C3465 H3453 0.950 . S
C3465 C3461 1.393 . S
C3465 C3464 1.391 1_565 S
C3466 H3456 0.950 . S
C3466 C3467 1.386 . S
C3466 C3468 1.391 . S
C3467 C3466 1.386 . S
C3467 C3471 1.393 . S
C3468 H3457 0.950 . S
C3468 C3466 1.391 . S
C3468 C3469 1.400 . S
C3469 C3463 1.491 . S
C3469 C3468 1.400 . S
C3469 C3470 1.398 . S
C3470 H3458 0.950 . S
C3470 C3469 1.398 . S
C3470 C3471 1.391 . S
C3471 H3459 0.950 . S
C3471 C3467 1.393 . S
C3471 C3470 1.391 . S
H3472 C3480 0.950 . S
H3473 C3485 0.950 . S
H3474 C3482 0.950 . S
H3475 C3484 0.950 . S
H3476 C3486 0.950 . S
H3477 C3488 0.950 . S
H3478 C3490 0.950 . S
H3479 C3491 0.950 . S
C3480 H3472 0.950 . S
C3480 C3481 1.386 . S
C3480 C3482 1.391 . S
C3481 C3480 1.386 . S
C3481 C3485 1.393 . S
C3482 H3474 0.950 . S
C3482 C3480 1.391 . S
C3482 C3483 1.400 . S
C3483 C3482 1.400 . S
C3483 C3484 1.398 . S
C3483 C3489 1.491 . S
C3484 H3475 0.950 . S
C3484 C3483 1.398 . S
C3484 C3485 1.391 . S
C3485 H3473 0.950 . S
C3485 C3481 1.393 . S
C3485 C3484 1.391 . S
C3486 H3476 0.950 . S
C3486 C3487 1.386 . S
C3486 C3488 1.391 . S
C3487 C3486 1.386 . S
C3487 C3491 1.393 . S
C3488 H3477 0.950 . S
C3488 C3486 1.391 . S
C3488 C3489 1.400 . S
C3489 C3483 1.491 . S
C3489 C3488 1.400 . S
C3489 C3490 1.398 . S
C3490 H3478 0.950 . S
C3490 C3489 1.398 . S
C3490 C3491 1.391 . S
C3491 H3479 0.950 . S
C3491 C3487 1.393 . S
C3491 C3490 1.391 . S
H3492 C3500 0.950 . S
H3493 C3505 0.950 . S
H3494 C3502 0.950 . S
H3495 C3504 0.950 . S
H3496 C3506 0.950 . S
H3497 C3508 0.950 . S
H3498 C3510 0.950 . S
H3499 C3511 0.950 . S
C3500 H3492 0.950 . S
C3500 C3501 1.386 . S
C3500 C3502 1.391 . S
C3501 C3500 1.386 . S
C3501 C3505 1.393 . S
C3502 H3494 0.950 . S
C3502 C3500 1.391 . S
C3502 C3503 1.400 . S
C3503 C3502 1.400 . S
C3503 C3504 1.398 . S
C3503 C3509 1.491 . S
C3504 H3495 0.950 . S
C3504 C3503 1.398 . S
C3504 C3505 1.391 . S
C3505 H3493 0.950 . S
C3505 C3501 1.393 . S
C3505 C3504 1.391 . S
C3506 H3496 0.950 . S
C3506 C3507 1.386 . S
C3506 C3508 1.391 . S
C3507 C3506 1.386 . S
C3507 C3511 1.393 . S
C3508 H3497 0.950 . S
C3508 C3506 1.391 . S
C3508 C3509 1.400 . S
C3509 C3503 1.491 . S
C3509 C3508 1.400 . S
C3509 C3510 1.398 . S
C3510 H3498 0.950 . S
C3510 C3509 1.398 . S
C3510 C3511 1.391 . S
C3511 H3499 0.950 . S
C3511 C3507 1.393 . S
C3511 C3510 1.391 . S
H3512 C3520 0.950 . S
H3513 C3525 0.950 . S
H3514 C3522 0.950 . S
H3515 C3524 0.950 . S
H3516 C3526 0.950 . S
H3517 C3528 0.950 . S
H3518 C3530 0.950 . S
H3519 C3531 0.950 . S
C3520 H3512 0.950 . S
C3520 C3521 1.386 . S
C3520 C3522 1.391 . S
C3521 C3520 1.386 . S
C3521 C3525 1.393 . S
C3522 H3514 0.950 . S
C3522 C3520 1.391 . S
C3522 C3523 1.400 . S
C3523 C3522 1.400 . S
C3523 C3524 1.398 . S
C3523 C3529 1.491 . S
C3524 H3515 0.950 . S
C3524 C3523 1.398 . S
C3524 C3525 1.391 . S
C3525 H3513 0.950 . S
C3525 C3521 1.393 . S
C3525 C3524 1.391 . S
C3526 H3516 0.950 . S
C3526 C3527 1.386 . S
C3526 C3528 1.391 . S
C3527 C3526 1.386 . S
C3527 C3531 1.393 . S
C3528 H3517 0.950 . S
C3528 C3526 1.391 . S
C3528 C3529 1.400 . S
C3529 C3523 1.491 . S
C3529 C3528 1.400 . S
C3529 C3530 1.398 . S
C3530 H3518 0.950 . S
C3530 C3529 1.398 . S
C3530 C3531 1.391 . S
C3531 H3519 0.950 . S
C3531 C3527 1.393 . S
C3531 C3530 1.391 . S
H3532 C3540 0.950 . S
H3533 C3545 0.950 . S
H3534 C3542 0.950 . S
H3535 C3544 0.950 . S
H3536 C3546 0.950 . S
H3537 C3548 0.950 . S
H3538 C3550 0.950 . S
H3539 C3551 0.950 . S
C3540 H3532 0.950 . S
C3540 C3541 1.386 . S
C3540 C3542 1.391 . S
C3541 C3540 1.386 . S
C3541 C3545 1.393 . S
C3542 H3534 0.950 . S
C3542 C3540 1.391 . S
C3542 C3543 1.400 . S
C3543 C3542 1.400 . S
C3543 C3544 1.398 . S
C3543 C3549 1.491 . S
C3544 H3535 0.950 . S
C3544 C3543 1.398 . S
C3544 C3545 1.391 . S
C3545 H3533 0.950 . S
C3545 C3541 1.393 . S
C3545 C3544 1.391 . S
C3546 H3536 0.950 . S
C3546 C3547 1.386 . S
C3546 C3548 1.391 . S
C3547 C3546 1.386 . S
C3547 C3551 1.393 . S
C3548 H3537 0.950 . S
C3548 C3546 1.391 . S
C3548 C3549 1.400 . S
C3549 C3543 1.491 . S
C3549 C3548 1.400 . S
C3549 C3550 1.398 . S
C3550 H3538 0.950 . S
C3550 C3549 1.398 . S
C3550 C3551 1.391 . S
C3551 H3539 0.950 . S
C3551 C3547 1.393 . S
C3551 C3550 1.391 . S
H3552 C3560 0.950 . S
H3553 C3565 0.950 . S
H3554 C3562 0.950 1_455 S
H3555 C3564 0.950 . S
H3556 C3566 0.950 . S
H3557 C3568 0.950 1_655 S
H3558 C3570 0.950 . S
H3559 C3571 0.950 . S
C3560 H3552 0.950 . S
C3560 C3561 1.386 . S
C3560 C3562 1.391 . S
C3561 C3560 1.386 . S
C3561 C3565 1.393 . S
C3562 H3554 0.950 1_655 S
C3562 C3560 1.391 . S
C3562 C3563 1.400 . S
C3563 C3562 1.400 . S
C3563 C3564 1.398 . S
C3563 C3569 1.491 1_655 S
C3564 H3555 0.950 . S
C3564 C3563 1.398 . S
C3564 C3565 1.391 . S
C3565 H3553 0.950 . S
C3565 C3561 1.393 . S
C3565 C3564 1.391 . S
C3566 H3556 0.950 . S
C3566 C3567 1.386 . S
C3566 C3568 1.391 . S
C3567 C3566 1.386 . S
C3567 C3571 1.393 . S
C3568 H3557 0.950 1_455 S
C3568 C3566 1.391 . S
C3568 C3569 1.400 . S
C3569 C3563 1.491 1_455 S
C3569 C3568 1.400 . S
C3569 C3570 1.398 . S
C3570 H3558 0.950 . S
C3570 C3569 1.398 . S
C3570 C3571 1.391 . S
C3571 H3559 0.950 . S
C3571 C3567 1.393 . S
C3571 C3570 1.391 . S
H3572 C3580 0.950 . S
H3573 C3585 0.950 . S
H3574 C3582 0.976 . S
H3575 C3584 0.950 . S
H3576 C3586 0.950 . S
H3577 C3588 0.950 . S
H3578 C3590 0.950 . S
H3579 C3591 0.950 . S
C3580 H3572 0.950 . S
C3580 C3581 1.386 . S
C3580 C3582 1.391 . S
C3581 C3580 1.386 . S
C3581 C3585 1.393 . S
C3582 H3574 0.976 . S
C3582 C3580 1.391 . S
C3582 C3583 1.400 . S
C3583 C3582 1.400 . S
C3583 C3584 1.398 . S
C3583 C3589 1.491 1_455 S
C3584 H3575 0.950 . S
C3584 C3583 1.398 . S
C3584 C3585 1.391 . S
C3585 H3573 0.950 . S
C3585 C3581 1.393 . S
C3585 C3584 1.391 . S
C3586 H3576 0.950 . S
C3586 C3587 1.386 . S
C3586 C3588 1.391 . S
C3587 C3586 1.386 . S
C3587 C3591 1.393 . S
C3588 H3577 0.950 . S
C3588 C3586 1.391 . S
C3588 C3589 1.400 . S
C3589 C3583 1.491 1_655 S
C3589 C3588 1.400 . S
C3589 C3590 1.398 . S
C3590 H3578 0.950 . S
C3590 C3589 1.398 . S
C3590 C3591 1.391 . S
C3591 H3579 0.950 . S
C3591 C3587 1.393 . S
C3591 C3590 1.391 . S
H3592 C3600 0.950 . S
H3593 C3605 0.950 . S
H3594 C3602 0.950 . S
H3595 C3604 0.950 . S
H3596 C3606 0.950 . S
H3597 C3608 0.950 . S
H3598 C3610 0.950 . S
H3599 C3611 0.950 . S
C3600 H3592 0.950 . S
C3600 C3601 1.386 . S
C3600 C3602 1.391 . S
C3601 C3600 1.386 . S
C3601 C3605 1.393 . S
C3602 H3594 0.950 . S
C3602 C3600 1.391 . S
C3602 C3603 1.400 . S
C3603 C3602 1.400 . S
C3603 C3604 1.398 . S
C3603 C3609 1.491 . S
C3604 H3595 0.950 . S
C3604 C3603 1.398 . S
C3604 C3605 1.391 . S
C3605 H3593 0.950 . S
C3605 C3601 1.393 . S
C3605 C3604 1.391 . S
C3606 H3596 0.950 . S
C3606 C3607 1.386 . S
C3606 C3608 1.391 . S
C3607 C3606 1.386 . S
C3607 C3611 1.393 . S
C3608 H3597 0.950 . S
C3608 C3606 1.391 . S
C3608 C3609 1.400 . S
C3609 C3603 1.491 . S
C3609 C3608 1.400 . S
C3609 C3610 1.398 . S
C3610 H3598 0.950 . S
C3610 C3609 1.398 . S
C3610 C3611 1.391 . S
C3611 H3599 0.950 . S
C3611 C3607 1.393 . S
C3611 C3610 1.391 . S
H3612 C3620 0.950 . S
H3613 C3625 0.950 . S
H3614 C3622 0.950 . S
H3615 C3624 0.950 . S
H3616 C3626 0.950 . S
H3617 C3628 0.950 . S
H3618 C3630 0.950 . S
H3619 C3631 0.950 . S
C3620 H3612 0.950 . S
C3620 C3621 1.386 . S
C3620 C3622 1.391 . S
C3621 C3620 1.386 . S
C3621 C3625 1.393 . S
C3622 H3614 0.950 . S
C3622 C3620 1.391 . S
C3622 C3623 1.400 . S
C3623 C3622 1.400 . S
C3623 C3624 1.398 . S
C3623 C3629 1.491 . S
C3624 H3615 0.950 . S
C3624 C3623 1.398 . S
C3624 C3625 1.391 . S
C3625 H3613 0.950 . S
C3625 C3621 1.393 . S
C3625 C3624 1.391 . S
C3626 H3616 0.950 . S
C3626 C3627 1.386 . S
C3626 C3628 1.391 . S
C3627 C3626 1.386 . S
C3627 C3631 1.393 . S
C3628 H3617 0.950 . S
C3628 C3626 1.391 . S
C3628 C3629 1.400 . S
C3629 C3623 1.491 . S
C3629 C3628 1.400 . S
C3629 C3630 1.398 . S
C3630 H3618 0.950 . S
C3630 C3629 1.398 . S
C3630 C3631 1.391 . S
C3631 H3619 0.950 . S
C3631 C3627 1.393 . S
C3631 C3630 1.391 . S
H3632 C3640 0.950 . S
H3633 C3645 0.950 . S
H3634 C3642 0.950 . S
H3635 C3644 0.950 . S
H3636 C3646 0.950 . S
H3637 C3648 0.950 . S
H3638 C3650 0.950 . S
H3639 C3651 0.955 . S
C3640 H3632 0.950 . S
C3640 C3641 1.386 . S
C3640 C3642 1.391 . S
C3641 C3640 1.386 . S
C3641 C3645 1.393 . S
C3642 H3634 0.950 . S
C3642 C3640 1.391 . S
C3642 C3643 1.400 . S
C3643 C3642 1.400 . S
C3643 C3644 1.398 . S
C3643 C3649 1.491 . S
C3644 H3635 0.950 . S
C3644 C3643 1.398 . S
C3644 C3645 1.391 . S
C3645 H3633 0.950 . S
C3645 C3641 1.393 . S
C3645 C3644 1.391 . S
C3646 H3636 0.950 . S
C3646 C3647 1.386 . S
C3646 C3648 1.391 . S
C3647 C3646 1.386 . S
C3647 C3651 1.371 1_545 S
C3648 H3637 0.950 . S
C3648 C3646 1.391 . S
C3648 C3649 1.400 1_545 S
C3649 C3643 1.491 . S
C3649 C3648 1.400 1_565 S
C3649 C3650 1.398 . S
C3650 H3638 0.950 . S
C3650 C3649 1.398 . S
C3650 C3651 1.407 . S
C3651 H3639 0.955 . S
C3651 C3647 1.371 1_565 S
C3651 C3650 1.407 . S
H3652 C3660 0.950 . S
H3653 C3665 0.950 . S
H3654 C3662 0.950 . S
H3655 C3664 0.950 . S
H3656 C3666 0.950 . S
H3657 C3668 0.950 . S
H3658 C3670 0.950 . S
H3659 C3671 0.950 . S
C3660 H3652 0.950 . S
C3660 C3661 1.386 . S
C3660 C3662 1.391 . S
C3661 C3660 1.386 . S
C3661 C3665 1.393 . S
C3662 H3654 0.950 . S
C3662 C3660 1.391 . S
C3662 C3663 1.400 . S
C3663 C3662 1.400 . S
C3663 C3664 1.398 . S
C3663 C3669 1.491 . S
C3664 H3655 0.950 . S
C3664 C3663 1.398 . S
C3664 C3665 1.391 . S
C3665 H3653 0.950 . S
C3665 C3661 1.393 . S
C3665 C3664 1.391 . S
C3666 H3656 0.950 . S
C3666 C3667 1.386 . S
C3666 C3668 1.391 . S
C3667 C3666 1.386 . S
C3667 C3671 1.393 . S
C3668 H3657 0.950 . S
C3668 C3666 1.391 . S
C3668 C3669 1.400 . S
C3669 C3663 1.491 . S
C3669 C3668 1.400 . S
C3669 C3670 1.398 . S
C3670 H3658 0.950 . S
C3670 C3669 1.398 . S
C3670 C3671 1.391 . S
C3671 H3659 0.950 . S
C3671 C3667 1.393 . S
C3671 C3670 1.391 . S
H3672 C3680 0.950 . S
H3673 C3685 0.950 . S
H3674 C3682 0.953 1_565 S
H3675 C3684 0.950 . S
H3676 C3686 0.950 . S
H3677 C3688 0.950 1_545 S
H3678 C3690 0.950 . S
H3679 C3691 0.950 . S
C3680 H3672 0.950 . S
C3680 C3681 1.386 . S
C3680 C3682 1.391 . S
C3681 C3680 1.386 . S
C3681 C3685 1.393 . S
C3682 H3674 0.953 1_545 S
C3682 C3680 1.391 . S
C3682 C3683 1.400 . S
C3683 C3682 1.400 . S
C3683 C3684 1.398 . S
C3683 C3689 1.491 1_545 S
C3684 H3675 0.950 . S
C3684 C3683 1.398 . S
C3684 C3685 1.391 . S
C3685 H3673 0.950 . S
C3685 C3681 1.393 . S
C3685 C3684 1.391 . S
C3686 H3676 0.950 . S
C3686 C3687 1.386 . S
C3686 C3688 1.391 . S
C3687 C3686 1.386 . S
C3687 C3691 1.393 . S
C3688 H3677 0.950 1_565 S
C3688 C3686 1.391 . S
C3688 C3689 1.400 . S
C3689 C3683 1.491 1_565 S
C3689 C3688 1.400 . S
C3689 C3690 1.398 . S
C3690 H3678 0.950 . S
C3690 C3689 1.398 . S
C3690 C3691 1.391 . S
C3691 H3679 0.950 . S
C3691 C3687 1.393 . S
C3691 C3690 1.391 . S
H3692 C3700 0.950 . S
H3693 C3705 0.950 . S
H3694 C3702 0.950 . S
H3695 C3704 0.950 . S
H3696 C3706 0.950 . S
H3697 C3708 0.950 . S
H3698 C3710 0.950 . S
H3699 C3711 0.950 . S
C3700 H3692 0.950 . S
C3700 C3701 1.386 . S
C3700 C3702 1.391 . S
C3701 C3700 1.386 . S
C3701 C3705 1.393 . S
C3702 H3694 0.950 . S
C3702 C3700 1.391 . S
C3702 C3703 1.400 . S
C3703 C3702 1.400 . S
C3703 C3704 1.398 . S
C3703 C3709 1.526 . S
C3704 H3695 0.950 . S
C3704 C3703 1.398 . S
C3704 C3705 1.391 . S
C3705 H3693 0.950 . S
C3705 C3701 1.393 . S
C3705 C3704 1.391 . S
C3706 H3696 0.950 . S
C3706 C3707 1.386 . S
C3706 C3708 1.391 1_554 S
C3707 C3706 1.386 . S
C3707 C3711 1.393 . S
C3708 H3697 0.950 . S
C3708 C3706 1.391 1_556 S
C3708 C3709 1.406 . S
C3709 C3703 1.526 . S
C3709 C3708 1.406 . S
C3709 C3710 1.357 1_556 S
C3710 H3698 0.950 . S
C3710 C3709 1.357 1_554 S
C3710 C3711 1.391 . S
C3711 H3699 0.950 . S
C3711 C3707 1.393 . S
C3711 C3710 1.391 . S
H3712 C3720 0.950 . S
H3713 C3725 0.950 . S
H3714 C3722 0.950 . S
H3715 C3724 0.941 1_556 S
H3716 C3726 0.950 . S
H3717 C3728 0.950 . S
H3718 C3730 0.950 . S
H3719 C3731 0.950 . S
C3720 H3712 0.950 . S
C3720 C3721 1.386 . S
C3720 C3722 1.391 . S
C3721 C3720 1.386 . S
C3721 C3725 1.393 . S
C3722 H3714 0.950 . S
C3722 C3720 1.391 . S
C3722 C3723 1.400 1_554 S
C3723 C3722 1.400 1_556 S
C3723 C3724 1.397 1_556 S
C3723 C3729 1.491 . S
C3724 H3715 0.941 1_554 S
C3724 C3723 1.397 1_554 S
C3724 C3725 1.401 . S
C3725 H3713 0.950 . S
C3725 C3721 1.393 . S
C3725 C3724 1.401 . S
C3726 H3716 0.950 . S
C3726 C3727 1.386 . S
C3726 C3728 1.391 . S
C3727 C3726 1.386 . S
C3727 C3731 1.393 . S
C3728 H3717 0.950 . S
C3728 C3726 1.391 . S
C3728 C3729 1.400 . S
C3729 C3723 1.491 . S
C3729 C3728 1.400 . S
C3729 C3730 1.398 . S
C3730 H3718 0.950 . S
C3730 C3729 1.398 . S
C3730 C3731 1.391 . S
C3731 H3719 0.950 . S
C3731 C3727 1.393 . S
C3731 C3730 1.391 . S
H3732 C3740 0.950 . S
H3733 C3745 0.950 . S
H3734 C3742 0.950 . S
H3735 C3744 0.950 . S
H3736 C3746 0.950 . S
H3737 C3748 0.950 . S
H3738 C3750 0.950 . S
H3739 C3751 0.950 . S
C3740 H3732 0.950 . S
C3740 C3741 1.386 . S
C3740 C3742 1.391 . S
C3741 C3740 1.386 . S
C3741 C3745 1.393 . S
C3742 H3734 0.950 . S
C3742 C3740 1.391 . S
C3742 C3743 1.400 . S
C3743 C3742 1.400 . S
C3743 C3744 1.398 . S
C3743 C3749 1.491 . S
C3744 H3735 0.950 . S
C3744 C3743 1.398 . S
C3744 C3745 1.391 . S
C3745 H3733 0.950 . S
C3745 C3741 1.393 . S
C3745 C3744 1.391 . S
C3746 H3736 0.950 . S
C3746 C3747 1.386 . S
C3746 C3748 1.391 . S
C3747 C3746 1.386 . S
C3747 C3751 1.393 . S
C3748 H3737 0.950 . S
C3748 C3746 1.391 . S
C3748 C3749 1.400 . S
C3749 C3743 1.491 . S
C3749 C3748 1.400 . S
C3749 C3750 1.398 . S
C3750 H3738 0.950 . S
C3750 C3749 1.398 . S
C3750 C3751 1.391 . S
C3751 H3739 0.950 . S
C3751 C3747 1.393 . S
C3751 C3750 1.391 . S
H3752 C3760 0.950 . S
H3753 C3765 0.950 . S
H3754 C3762 0.950 . S
H3755 C3764 0.950 . S
H3756 C3766 0.950 . S
H3757 C3768 0.950 . S
H3758 C3770 0.950 . S
H3759 C3771 0.950 . S
C3760 H3752 0.950 . S
C3760 C3761 1.386 . S
C3760 C3762 1.391 . S
C3761 C3760 1.386 . S
C3761 C3765 1.393 . S
C3762 H3754 0.950 . S
C3762 C3760 1.391 . S
C3762 C3763 1.400 . S
C3763 C3762 1.400 . S
C3763 C3764 1.398 . S
C3763 C3769 1.491 . S
C3764 H3755 0.950 . S
C3764 C3763 1.398 . S
C3764 C3765 1.391 . S
C3765 H3753 0.950 . S
C3765 C3761 1.393 . S
C3765 C3764 1.391 . S
C3766 H3756 0.950 . S
C3766 C3767 1.386 . S
C3766 C3768 1.391 . S
C3767 C3766 1.386 . S
C3767 C3771 1.393 . S
C3768 H3757 0.950 . S
C3768 C3766 1.391 . S
C3768 C3769 1.400 . S
C3769 C3763 1.491 . S
C3769 C3768 1.400 . S
C3769 C3770 1.398 . S
C3770 H3758 0.950 . S
C3770 C3769 1.398 . S
C3770 C3771 1.391 . S
C3771 H3759 0.950 . S
C3771 C3767 1.393 . S
C3771 C3770 1.391 . S
H3772 C3780 0.950 . S
H3773 C3785 0.950 . S
H3774 C3782 0.950 . S
H3775 C3784 0.950 . S
H3776 C3786 0.950 . S
H3777 C3788 0.950 . S
H3778 C3790 0.950 . S
H3779 C3791 0.950 . S
C3780 H3772 0.950 . S
C3780 C3781 1.386 . S
C3780 C3782 1.391 . S
C3781 C3780 1.386 . S
C3781 C3785 1.393 . S
C3782 H3774 0.950 . S
C3782 C3780 1.391 . S
C3782 C3783 1.400 . S
C3783 C3782 1.400 . S
C3783 C3784 1.398 . S
C3783 C3789 1.491 . S
C3784 H3775 0.950 . S
C3784 C3783 1.398 . S
C3784 C3785 1.391 . S
C3785 H3773 0.950 . S
C3785 C3781 1.393 . S
C3785 C3784 1.391 . S
C3786 H3776 0.950 . S
C3786 C3787 1.386 . S
C3786 C3788 1.391 . S
C3787 C3786 1.386 . S
C3787 C3791 1.393 . S
C3788 H3777 0.950 . S
C3788 C3786 1.391 . S
C3788 C3789 1.400 . S
C3789 C3783 1.491 . S
C3789 C3788 1.400 . S
C3789 C3790 1.398 . S
C3790 H3778 0.950 . S
C3790 C3789 1.398 . S
C3790 C3791 1.391 . S
C3791 H3779 0.950 . S
C3791 C3787 1.393 . S
C3791 C3790 1.391 . S
H3792 C3800 0.950 . S
H3793 C3805 0.950 . S
H3794 C3802 0.950 1_455 S
H3795 C3804 0.950 . S
H3796 C3806 0.950 . S
H3797 C3808 0.965 . S
H3798 C3810 0.950 . S
H3799 C3811 0.950 . S
C3800 H3792 0.950 . S
C3800 C3801 1.386 . S
C3800 C3802 1.391 . S
C3801 C3800 1.386 . S
C3801 C3805 1.393 . S
C3802 H3794 0.950 1_655 S
C3802 C3800 1.391 . S
C3802 C3803 1.400 . S
C3803 C3802 1.400 . S
C3803 C3804 1.398 . S
C3803 C3809 1.491 1_655 S
C3804 H3795 0.950 . S
C3804 C3803 1.398 . S
C3804 C3805 1.391 . S
C3805 H3793 0.950 . S
C3805 C3801 1.393 . S
C3805 C3804 1.391 . S
C3806 H3796 0.950 . S
C3806 C3807 1.386 . S
C3806 C3808 1.391 . S
C3807 C3806 1.386 . S
C3807 C3811 1.393 . S
C3808 H3797 0.965 . S
C3808 C3806 1.391 . S
C3808 C3809 1.400 . S
C3809 C3803 1.491 1_455 S
C3809 C3808 1.400 . S
C3809 C3810 1.398 . S
C3810 H3798 0.950 . S
C3810 C3809 1.398 . S
C3810 C3811 1.391 . S
C3811 H3799 0.950 . S
C3811 C3807 1.393 . S
C3811 C3810 1.391 . S
H3812 C3820 0.950 . S
H3813 C3825 0.950 . S
H3814 C3822 0.950 . S
H3815 C3824 0.950 . S
H3816 C3826 0.950 . S
H3817 C3828 0.950 . S
H3818 C3830 0.988 . S
H3819 C3831 0.950 . S
C3820 H3812 0.950 . S
C3820 C3821 1.386 . S
C3820 C3822 1.391 . S
C3821 C3820 1.386 . S
C3821 C3825 1.393 . S
C3822 H3814 0.950 . S
C3822 C3820 1.391 . S
C3822 C3823 1.400 . S
C3823 C3822 1.400 . S
C3823 C3824 1.398 . S
C3823 C3829 1.525 . S
C3824 H3815 0.950 . S
C3824 C3823 1.398 . S
C3824 C3825 1.391 . S
C3825 H3813 0.950 . S
C3825 C3821 1.393 . S
C3825 C3824 1.391 . S
C3826 H3816 0.950 . S
C3826 C3827 1.386 . S
C3826 C3828 1.391 . S
C3827 C3826 1.386 . S
C3827 C3831 1.393 . S
C3828 H3817 0.950 . S
C3828 C3826 1.391 . S
C3828 C3829 1.365 1_455 S
C3829 C3823 1.525 . S
C3829 C3828 1.365 1_655 S
C3829 C3830 1.398 . S
C3830 H3818 0.988 . S
C3830 C3829 1.398 . S
C3830 C3831 1.354 1_655 S
C3831 H3819 0.950 . S
C3831 C3827 1.393 . S
C3831 C3830 1.354 1_455 S
H3832 C3840 0.950 . S
H3833 C3845 0.950 . S
H3834 C3842 0.950 . S
H3835 C3844 0.950 . S
H3836 C3846 0.950 . S
H3837 C3848 0.950 . S
H3838 C3850 0.950 . S
H3839 C3851 0.950 . S
C3840 H3832 0.950 . S
C3840 C3841 1.386 . S
C3840 C3842 1.391 . S
C3841 C3840 1.386 . S
C3841 C3845 1.393 . S
C3842 H3834 0.950 . S
C3842 C3840 1.391 . S
C3842 C3843 1.400 . S
C3843 C3842 1.400 . S
C3843 C3844 1.398 . S
C3843 C3849 1.491 . S
C3844 H3835 0.950 . S
C3844 C3843 1.398 . S
C3844 C3845 1.391 . S
C3845 H3833 0.950 . S
C3845 C3841 1.393 . S
C3845 C3844 1.391 . S
C3846 H3836 0.950 . S
C3846 C3847 1.386 . S
C3846 C3848 1.391 . S
C3847 C3846 1.386 . S
C3847 C3851 1.393 . S
C3848 H3837 0.950 . S
C3848 C3846 1.391 . S
C3848 C3849 1.400 . S
C3849 C3843 1.491 . S
C3849 C3848 1.400 . S
C3849 C3850 1.398 . S
C3850 H3838 0.950 . S
C3850 C3849 1.398 . S
C3850 C3851 1.391 . S
C3851 H3839 0.950 . S
C3851 C3847 1.393 . S
C3851 C3850 1.391 . S
H3852 C3860 0.950 . S
H3853 C3865 0.950 . S
H3854 C3862 0.950 . S
H3855 C3864 0.950 . S
H3856 C3866 0.950 . S
H3857 C3868 0.950 . S
H3858 C3870 0.950 . S
H3859 C3871 0.950 . S
C3860 H3852 0.950 . S
C3860 C3861 1.386 . S
C3860 C3862 1.391 . S
C3861 C3860 1.386 . S
C3861 C3865 1.393 . S
C3862 H3854 0.950 . S
C3862 C3860 1.391 . S
C3862 C3863 1.400 . S
C3863 C3862 1.400 . S
C3863 C3864 1.398 . S
C3863 C3869 1.491 . S
C3864 H3855 0.950 . S
C3864 C3863 1.398 . S
C3864 C3865 1.391 . S
C3865 H3853 0.950 . S
C3865 C3861 1.393 . S
C3865 C3864 1.391 . S
C3866 H3856 0.950 . S
C3866 C3867 1.386 . S
C3866 C3868 1.391 . S
C3867 C3866 1.386 . S
C3867 C3871 1.393 . S
C3868 H3857 0.950 . S
C3868 C3866 1.391 . S
C3868 C3869 1.400 . S
C3869 C3863 1.491 . S
C3869 C3868 1.400 . S
C3869 C3870 1.398 . S
C3870 H3858 0.950 . S
C3870 C3869 1.398 . S
C3870 C3871 1.391 . S
C3871 H3859 0.950 . S
C3871 C3867 1.393 . S
C3871 C3870 1.391 . S
H3872 C3880 0.950 . S
H3873 C3885 0.950 . S
H3874 C3882 0.950 . S
H3875 C3884 0.950 . S
H3876 C3886 0.950 . S
H3877 C3888 0.950 . S
H3878 C3890 0.950 . S
H3879 C3891 0.950 . S
C3880 H3872 0.950 . S
C3880 C3881 1.386 . S
C3880 C3882 1.391 . S
C3881 C3880 1.386 . S
C3881 C3885 1.393 . S
C3882 H3874 0.950 . S
C3882 C3880 1.391 . S
C3882 C3883 1.400 . S
C3883 C3882 1.400 . S
C3883 C3884 1.398 . S
C3883 C3889 1.491 . S
C3884 H3875 0.950 . S
C3884 C3883 1.398 . S
C3884 C3885 1.391 . S
C3885 H3873 0.950 . S
C3885 C3881 1.393 . S
C3885 C3884 1.391 . S
C3886 H3876 0.950 . S
C3886 C3887 1.386 . S
C3886 C3888 1.391 . S
C3887 C3886 1.386 . S
C3887 C3891 1.393 . S
C3888 H3877 0.950 . S
C3888 C3886 1.391 . S
C3888 C3889 1.400 1_565 S
C3889 C3883 1.491 . S
C3889 C3888 1.400 1_545 S
C3889 C3890 1.398 . S
C3890 H3878 0.950 . S
C3890 C3889 1.398 . S
C3890 C3891 1.391 1_545 S
C3891 H3879 0.950 . S
C3891 C3887 1.393 . S
C3891 C3890 1.391 1_565 S
H3892 C3900 0.950 . S
H3893 C3905 0.950 . S
H3894 C3902 0.950 . S
H3895 C3904 0.950 . S
H3896 C3906 0.950 . S
H3897 C3908 0.950 . S
H3898 C3910 0.950 . S
H3899 C3911 0.950 . S
C3900 H3892 0.950 . S
C3900 C3901 1.386 . S
C3900 C3902 1.391 . S
C3901 C3900 1.386 . S
C3901 C3905 1.393 . S
C3902 H3894 0.950 . S
C3902 C3900 1.391 . S
C3902 C3903 1.400 . S
C3903 C3902 1.400 . S
C3903 C3904 1.398 . S
C3903 C3909 1.491 . S
C3904 H3895 0.950 . S
C3904 C3903 1.398 . S
C3904 C3905 1.391 . S
C3905 H3893 0.950 . S
C3905 C3901 1.393 . S
C3905 C3904 1.391 . S
C3906 H3896 0.950 . S
C3906 C3907 1.386 . S
C3906 C3908 1.391 . S
C3907 C3906 1.386 . S
C3907 C3911 1.393 . S
C3908 H3897 0.950 . S
C3908 C3906 1.391 . S
C3908 C3909 1.400 . S
C3909 C3903 1.491 . S
C3909 C3908 1.400 . S
C3909 C3910 1.398 . S
C3910 H3898 0.950 . S
C3910 C3909 1.398 . S
C3910 C3911 1.391 . S
C3911 H3899 0.950 . S
C3911 C3907 1.393 . S
C3911 C3910 1.391 . S
H3912 C3920 0.950 . S
H3913 C3925 0.950 . S
H3914 C3922 0.950 . S
H3915 C3924 0.950 . S
H3916 C3926 0.950 . S
H3917 C3928 0.950 . S
H3918 C3930 0.950 . S
H3919 C3931 0.950 . S
C3920 H3912 0.950 . S
C3920 C3921 1.386 . S
C3920 C3922 1.391 . S
C3921 C3920 1.386 . S
C3921 C3925 1.393 . S
C3922 H3914 0.950 . S
C3922 C3920 1.391 . S
C3922 C3923 1.400 1_545 S
C3923 C3922 1.400 1_565 S
C3923 C3924 1.398 . S
C3923 C3929 1.491 . S
C3924 H3915 0.950 . S
C3924 C3923 1.398 . S
C3924 C3925 1.391 1_565 S
C3925 H3913 0.950 . S
C3925 C3921 1.393 . S
C3925 C3924 1.391 1_545 S
C3926 H3916 0.950 . S
C3926 C3927 1.386 . S
C3926 C3928 1.391 . S
C3927 C3926 1.386 . S
C3927 C3931 1.393 . S
C3928 H3917 0.950 . S
C3928 C3926 1.391 . S
C3928 C3929 1.400 . S
C3929 C3923 1.491 . S
C3929 C3928 1.400 . S
C3929 C3930 1.398 . S
C3930 H3918 0.950 . S
C3930 C3929 1.398 . S
C3930 C3931 1.391 . S
C3931 H3919 0.950 . S
C3931 C3927 1.393 . S
C3931 C3930 1.391 . S
H3932 C3940 0.950 . S
H3933 C3945 0.950 . S
H3934 C3942 0.950 . S
H3935 C3944 0.950 . S
H3936 C3946 0.950 . S
H3937 C3948 0.950 . S
H3938 C3950 0.950 . S
H3939 C3951 0.950 . S
C3940 H3932 0.950 . S
C3940 C3941 1.386 . S
C3940 C3942 1.391 . S
C3941 C3940 1.386 . S
C3941 C3945 1.393 1_556 S
C3942 H3934 0.950 . S
C3942 C3940 1.391 . S
C3942 C3943 1.400 1_556 S
C3943 C3942 1.400 1_554 S
C3943 C3944 1.398 . S
C3943 C3949 1.491 . S
C3944 H3935 0.950 . S
C3944 C3943 1.398 . S
C3944 C3945 1.391 . S
C3945 H3933 0.950 . S
C3945 C3941 1.393 1_554 S
C3945 C3944 1.391 . S
C3946 H3936 0.950 . S
C3946 C3947 1.386 . S
C3946 C3948 1.391 . S
C3947 C3946 1.386 . S
C3947 C3951 1.393 . S
C3948 H3937 0.950 . S
C3948 C3946 1.391 . S
C3948 C3949 1.400 . S
C3949 C3943 1.491 . S
C3949 C3948 1.400 . S
C3949 C3950 1.398 . S
C3950 H3938 0.950 . S
C3950 C3949 1.398 . S
C3950 C3951 1.391 . S
C3951 H3939 0.950 . S
C3951 C3947 1.393 . S
C3951 C3950 1.391 . S
H3952 C3960 0.950 . S
H3953 C3965 0.950 . S
H3954 C3962 0.950 . S
H3955 C3964 0.950 . S
H3956 C3966 0.950 . S
H3957 C3968 0.950 1_556 S
H3958 C3970 0.950 . S
H3959 C3971 0.950 . S
C3960 H3952 0.950 . S
C3960 C3961 1.386 . S
C3960 C3962 1.391 1_556 S
C3961 C3960 1.386 . S
C3961 C3965 1.393 . S
C3962 H3954 0.950 . S
C3962 C3960 1.391 1_554 S
C3962 C3963 1.388 1_554 S
C3963 C3962 1.388 1_556 S
C3963 C3964 1.439 . S
C3963 C3969 1.464 1_556 S
C3964 H3955 0.950 . S
C3964 C3963 1.439 . S
C3964 C3965 1.391 . S
C3965 H3953 0.950 . S
C3965 C3961 1.393 . S
C3965 C3964 1.391 . S
C3966 H3956 0.950 . S
C3966 C3967 1.386 . S
C3966 C3968 1.391 . S
C3967 C3966 1.386 . S
C3967 C3971 1.393 . S
C3968 H3957 0.950 1_554 S
C3968 C3966 1.391 . S
C3968 C3969 1.400 . S
C3969 C3963 1.464 1_554 S
C3969 C3968 1.400 . S
C3969 C3970 1.398 . S
C3970 H3958 0.950 . S
C3970 C3969 1.398 . S
C3970 C3971 1.391 . S
C3971 H3959 0.950 . S
C3971 C3967 1.393 . S
C3971 C3970 1.391 . S
H3972 C3980 0.950 . S
H3973 C3985 0.950 . S
H3974 C3982 0.950 . S
H3975 C3984 0.950 . S
H3976 C3986 0.950 . S
H3977 C3988 0.950 . S
H3978 C3990 0.950 . S
H3979 C3991 0.950 . S
C3980 H3972 0.950 . S
C3980 C3981 1.386 . S
C3980 C3982 1.391 . S
C3981 C3980 1.386 . S
C3981 C3985 1.393 . S
C3982 H3974 0.950 . S
C3982 C3980 1.391 . S
C3982 C3983 1.400 . S
C3983 C3982 1.400 . S
C3983 C3984 1.398 . S
C3983 C3989 1.491 . S
C3984 H3975 0.950 . S
C3984 C3983 1.398 . S
C3984 C3985 1.391 . S
C3985 H3973 0.950 . S
C3985 C3981 1.393 . S
C3985 C3984 1.391 . S
C3986 H3976 0.950 . S
C3986 C3987 1.386 . S
C3986 C3988 1.391 . S
C3987 C3986 1.386 . S
C3987 C3991 1.393 . S
C3988 H3977 0.950 . S
C3988 C3986 1.391 . S
C3988 C3989 1.400 . S
C3989 C3983 1.491 . S
C3989 C3988 1.400 . S
C3989 C3990 1.398 . S
C3990 H3978 0.950 . S
C3990 C3989 1.398 . S
C3990 C3991 1.391 . S
C3991 H3979 0.950 . S
C3991 C3987 1.393 . S
C3991 C3990 1.391 . S
H3992 C4000 0.950 . S
H3993 C4005 0.950 . S
H3994 C4002 0.950 . S
H3995 C4004 0.950 . S
H3996 C4006 0.950 . S
H3997 C4008 0.950 . S
H3998 C4010 0.950 . S
H3999 C4011 0.950 . S
C4000 H3992 0.950 . S
C4000 C4001 1.386 . S
C4000 C4002 1.391 . S
C4001 C4000 1.386 . S
C4001 C4005 1.393 . S
C4002 H3994 0.950 . S
C4002 C4000 1.391 . S
C4002 C4003 1.400 . S
C4003 C4002 1.400 . S
C4003 C4004 1.398 . S
C4003 C4009 1.491 . S
C4004 H3995 0.950 . S
C4004 C4003 1.398 . S
C4004 C4005 1.391 . S
C4005 H3993 0.950 . S
C4005 C4001 1.393 . S
C4005 C4004 1.391 . S
C4006 H3996 0.950 . S
C4006 C4007 1.386 . S
C4006 C4008 1.391 . S
C4007 C4006 1.386 . S
C4007 C4011 1.393 . S
C4008 H3997 0.950 . S
C4008 C4006 1.391 . S
C4008 C4009 1.400 . S
C4009 C4003 1.491 . S
C4009 C4008 1.400 . S
C4009 C4010 1.398 . S
C4010 H3998 0.950 . S
C4010 C4009 1.398 . S
C4010 C4011 1.391 . S
C4011 H3999 0.950 . S
C4011 C4007 1.393 . S
C4011 C4010 1.391 . S
H4012 C4020 0.950 . S
H4013 C4025 0.950 . S
H4014 C4022 0.950 . S
H4015 C4024 0.950 . S
H4016 C4026 0.950 . S
H4017 C4028 0.950 . S
H4018 C4030 0.950 . S
H4019 C4031 0.950 . S
C4020 H4012 0.950 . S
C4020 C4021 1.386 . S
C4020 C4022 1.391 . S
C4021 C4020 1.386 . S
C4021 C4025 1.393 . S
C4022 H4014 0.950 . S
C4022 C4020 1.391 . S
C4022 C4023 1.400 . S
C4023 C4022 1.400 . S
C4023 C4024 1.398 . S
C4023 C4029 1.491 . S
C4024 H4015 0.950 . S
C4024 C4023 1.398 . S
C4024 C4025 1.391 . S
C4025 H4013 0.950 . S
C4025 C4021 1.393 . S
C4025 C4024 1.391 . S
C4026 H4016 0.950 . S
C4026 C4027 1.386 . S
C4026 C4028 1.391 . S
C4027 C4026 1.386 . S
C4027 C4031 1.393 . S
C4028 H4017 0.950 . S
C4028 C4026 1.391 . S
C4028 C4029 1.400 . S
C4029 C4023 1.491 . S
C4029 C4028 1.400 . S
C4029 C4030 1.398 . S
C4030 H4018 0.950 . S
C4030 C4029 1.398 . S
C4030 C4031 1.391 . S
C4031 H4019 0.950 . S
C4031 C4027 1.393 . S
C4031 C4030 1.391 . S
C1641 C5 1.250 . S
C1647 C1294 1.248 . S
C1661 C39 0.978 . S
C1667 C1257 0.942 . S
C1681 C77 0.912 . S
C1687 C1600 1.004 . S
C1701 C1189 0.749 . S
C1707 C111 0.758 . S
C1721 C141 1.168 . S
C1727 C1393 1.135 . S
C1741 C1090 1.094 . S
C1747 C179 1.003 . S
C1761 C209 0.944 . S
C1767 C1427 0.930 . S
C1781 C243 1.198 . S
C1787 C1022 1.199 . S
C1801 C1053 1.019 . S
C1807 C277 1.034 . S
C1821 C315 0.799 . S
C1827 C1362 0.854 . S
C1841 C345 1.182 . S
C1847 C1121 1.140 . S
C1861 C1396 1.325 . S
C1867 C379 1.335 . S
C1881 C417 0.888 . S
C1887 C1226 0.948 . S
C1901 C447 1.280 . S
C1907 C1631 1.239 . S
C1921 C1158 1.387 . S
C1927 C481 1.403 . S
C1941 C515 1.158 . S
C1947 C1325 1.143 . S
C1961 C818 1.146 . S
C1967 C383 1.036 . S
C1981 C747 0.751 . S
C1987 C553 0.746 . S
C2001 C587 0.864 . S
C2007 C951 0.896 . S
C2021 C784 0.996 . S
C2027 C621 0.919 . S
C2041 C849 1.267 . S
C2047 C413 1.289 . S
C2061 C311 1.165 . S
C2067 C750 1.163 . S
C2081 C815 0.860 . S
C2087 C655 0.799 . S
C2101 C716 1.043 . S
C2107 C689 0.987 . S
C2121 C611 1.309 . S
C2127 C719 1.338 . S
C2141 C543 1.005 . S
C2147 C753 1.043 . S
C2161 C1498 1.038 . S
C2167 C791 0.955 . S
C2181 C821 1.151 . S
C2187 C475 1.117 . S
C2201 C679 0.856 . S
C2207 C859 0.847 . S
C2221 C893 0.855 . S
C2227 C407 0.913 . S
C2241 C713 0.767 . S
C2247 C927 0.772 . S
C2261 C308 1.250 . S
C2267 C957 1.252 . S
C2281 C339 0.919 . S
C2287 C991 0.947 . S
C2301 C648 0.876 . S
C2307 C1029 0.878 . S
C2321 C1059 1.343 . S
C2327 C376 1.334 . S
C2341 C1097 1.126 . S
C2347 C682 1.172 . S
C2361 C1131 0.840 . S
C2367 C512 0.837 . S
C2381 C1161 1.015 . S
C2387 C1529 0.986 . S
C2401 C1199 0.967 . S
C2407 C444 1.038 . S
C2421 C1229 1.102 . S
C2427 C580 1.105 . S
C2441 C135 1.324 . S
C2447 C1093 1.349 . S
C2461 C33 0.904 . S
C2467 C1267 0.898 . S
C2481 C206 1.118 . S
C2487 C1297 1.130 . S
C2501 C70 1.025 . S
C2507 C1335 0.990 . S
C2521 C1127 1.360 . S
C2527 C104 1.358 . S
C2541 C36 1.318 . S
C2547 C1025 1.320 . S
C2561 C101 0.696 . S
C2567 C1369 0.739 . S
C2581 C1403 0.955 . S
C2587 C2 1.039 . S
C2601 C1192 1.429 . S
C2607 C175 1.425 . S
C2621 C1359 0.760 . S
C2627 C213 0.764 . S
C2641 C247 0.875 . S
C2647 C1124 0.959 . S
C2661 C1291 0.737 . S
C2667 C145 0.774 . S
C2681 C107 1.178 . S
C2687 C1087 1.150 . S
C2701 C9 0.997 . S
C2707 C1566 1.047 . S
C2721 C1019 0.609 . S
C2727 C43 0.615 . S
C2741 C73 1.376 . S
C2747 C1532 1.379 . S
C2761 C685 0.945 . S
C2767 C1563 0.913 . S
C2781 C1437 0.783 . S
C2787 C1056 0.835 . S
C2801 C651 1.188 . S
C2807 C1597 1.150 . S
C2821 C988 1.342 . S
C2827 C1467 1.349 . S
C2841 C1505 0.937 . S
C2847 C1328 0.971 . S
C2861 C549 1.291 . S
C2867 C1155 1.258 . S
C2881 C1260 1.376 . S
C2887 C583 1.393 . S
C2901 C617 1.088 . S
C2907 C1223 1.053 . S
C2921 C852 1.144 . S
C2927 C1471 1.042 . S
C2941 C451 0.736 . S
C2947 C917 0.779 . S
C2961 C485 0.862 . S
C2967 C781 0.904 . S
C2981 C954 1.039 . S
C2987 C519 0.988 . S
C3001 C883 1.288 . S
C3007 C1501 1.304 . S
C3021 C920 1.127 . S
C3027 C1433 1.130 . S
C3041 C349 0.855 . S
C3047 C985 0.853 . S
C3061 C886 1.088 . S
C3067 C281 1.058 . S
C3081 C509 1.301 . S
C3087 C889 1.325 . S
C3101 C645 0.999 . S
C3107 C923 1.021 . S
C3121 C410 1.066 . S
C3127 C961 0.991 . S
C3141 C855 1.170 . S
C3147 C577 1.129 . S
C3161 C373 0.822 . S
C3167 C825 0.802 . S
C3181 C723 0.899 . S
C3187 C1495 0.907 . S
C3201 C305 0.723 . S
C3207 C757 0.762 . S
C3221 C1430 1.255 . S
C3227 C787 1.262 . S
C3241 C1461 0.957 . S
C3247 C1399 0.976 . S
C3261 C1539 0.913 . S
C3267 C342 0.971 . S
C3281 C1464 1.312 . S
C3287 C1365 1.322 . S
C3301 C1573 1.062 . S
C3307 C274 1.118 . S
C3321 C614 0.888 . S
C3327 C1607 0.882 . S
C3341 C441 1.024 . S
C3347 C1263 1.050 . S
C3361 C1301 0.934 . S
C3367 C546 0.970 . S
C3381 C478 1.059 . S
C3387 C1331 1.064 . S
C3401 C1569 1.269 . S
C3407 C169 1.255 . S
C3421 C203 0.939 . S
C3427 C1165 0.906 . S
C3441 C67 1.000 . S
C3447 C1195 1.034 . S
C3461 C1233 0.847 . S
C3467 C240 0.900 . S
C3481 C1603 1.441 . S
C3487 C138 1.439 . S
C3501 C1535 1.228 . S
C3507 C237 1.214 . S
C3521 C1063 0.737 . S
C3527 C271 0.686 . S
C3541 C172 1.155 . S
C3547 C995 1.056 . S
C3561 C258 2.115 . S
C3567 C20 2.107 . S
C3581 C156 2.660 . S
C3587 C54 2.668 . S
C3601 C190 2.198 . S
C3607 C88 2.204 . S
C3621 C224 2.663 . S
C3627 C122 2.665 . S
C3641 C428 2.308 . S
C3647 C292 2.323 . S
C3661 C462 2.544 . S
C3667 C326 2.553 . S
C3681 C496 2.443 . S
C3687 C360 2.445 . S
C3701 C530 2.360 . S
C3707 C394 2.368 . S
C3721 C1448 2.544 . S
C3727 C564 2.531 . S
C3741 C598 2.427 . S
C3747 C666 2.429 . S
C3761 C632 2.423 . S
C3767 C1482 2.431 . S
C3781 C700 2.383 . S
C3787 C1516 2.375 . S
C3801 C734 2.159 . S
C3807 C972 2.161 . S
C3821 C870 2.522 . S
C3827 C768 2.529 . S
C3841 C904 2.159 . S
C3847 C802 2.163 . S
C3861 C938 2.534 . S
C3867 C836 2.525 . S
C3881 C1142 2.403 . S
C3887 C1006 2.413 . S
C3901 C1040 2.511 . S
C3907 C1176 2.523 . S
C3921 C1074 2.557 . S
C3927 C1210 2.543 . S
C3941 C1108 2.395 . S
C3947 C1244 2.411 . S
C3961 C1550 2.558 . S
C3967 C1278 2.576 . S
C3981 C1380 2.512 . S
C3987 C1312 2.505 . S
C4001 C1346 2.357 . S
C4007 C1584 2.324 . S
C4021 C1618 2.464 . S
C4027 C1414 2.474 . S
