# Generated by pormake.
# Topology sof, (5)-cn, num edge types: 1
# Building blocks:
#     Node 0, Type 0, BuildingBlock: XOMCOT_clean_sbu_1, # of connection points: 5
#     Node 1, Type 0, BuildingBlock: XOMCOT_clean_sbu_1, # of connection points: 5
#     Node 2, Type 0, BuildingBlock: XOMCOT_clean_sbu_1, # of connection points: 5
#     Node 3, Type 0, BuildingBlock: XOMCOT_clean_sbu_1, # of connection points: 5
#     Node 4, Type 0, BuildingBlock: XOMCOT_clean_sbu_1, # of connection points: 5
#     Node 5, Type 0, BuildingBlock: XOMCOT_clean_sbu_1, # of connection points: 5
#     Node 6, Type 0, BuildingBlock: XOMCOT_clean_sbu_1, # of connection points: 5
#     Node 7, Type 0, BuildingBlock: XOMCOT_clean_sbu_1, # of connection points: 5
#     Edge 8, Type (0, 0), BuildingBlock: UVAHIK_clean_linker_0, # of connection points: 2
#     Edge 9, Type (0, 0), BuildingBlock: UVAHIK_clean_linker_0, # of connection points: 2
#     Edge 10, Type (0, 0), BuildingBlock: UVAHIK_clean_linker_0, # of connection points: 2
#     Edge 11, Type (0, 0), BuildingBlock: UVAHIK_clean_linker_0, # of connection points: 2
#     Edge 12, Type (0, 0), BuildingBlock: UVAHIK_clean_linker_0, # of connection points: 2
#     Edge 13, Type (0, 0), BuildingBlock: UVAHIK_clean_linker_0, # of connection points: 2
#     Edge 14, Type (0, 0), BuildingBlock: UVAHIK_clean_linker_0, # of connection points: 2
#     Edge 15, Type (0, 0), BuildingBlock: UVAHIK_clean_linker_0, # of connection points: 2
#     Edge 16, Type (0, 0), BuildingBlock: UVAHIK_clean_linker_0, # of connection points: 2
#     Edge 17, Type (0, 0), BuildingBlock: UVAHIK_clean_linker_0, # of connection points: 2
#     Edge 18, Type (0, 0), BuildingBlock: UVAHIK_clean_linker_0, # of connection points: 2
#     Edge 19, Type (0, 0), BuildingBlock: UVAHIK_clean_linker_0, # of connection points: 2
#     Edge 20, Type (0, 0), BuildingBlock: UVAHIK_clean_linker_0, # of connection points: 2
#     Edge 21, Type (0, 0), BuildingBlock: UVAHIK_clean_linker_0, # of connection points: 2
#     Edge 22, Type (0, 0), BuildingBlock: UVAHIK_clean_linker_0, # of connection points: 2
#     Edge 23, Type (0, 0), BuildingBlock: UVAHIK_clean_linker_0, # of connection points: 2
#     Edge 24, Type (0, 0), BuildingBlock: UVAHIK_clean_linker_0, # of connection points: 2
#     Edge 25, Type (0, 0), BuildingBlock: UVAHIK_clean_linker_0, # of connection points: 2
#     Edge 26, Type (0, 0), BuildingBlock: UVAHIK_clean_linker_0, # of connection points: 2
#     Edge 27, Type (0, 0), BuildingBlock: UVAHIK_clean_linker_0, # of connection points: 2
# Relax obj value: 0.147
# Max RMSD: 0.157
# Mean RMSD: 0.157
data_MOF--net-sof--node1-XOMCOT_clean_sbu_1--edge1-UVAHIK_clean_linker_0
_symmetry_space_group_name_H-M    P1
_symmetry_Int_Tables_number       1
_symmetry_cell_setting            triclinic
loop_
_symmetry_equiv_pos_as_xyz
'x, y, z'
_cell_length_a     71.671617
_cell_length_b     21.96799
_cell_length_c     62.908061
_cell_angle_alpha  90.008314
_cell_angle_beta   90.014999
_cell_angle_gamma 90.023467
loop_
_atom_site_label
_atom_site_type_symbol
_atom_site_fract_x
_atom_site_fract_y
_atom_site_fract_z
_atom_type_partial_charge
C0 C 0.11388 0.12714 0.09815 0.0
C1 C 0.1159 0.18906 0.09593 0.0
N2 N 0.10164 0.21659 0.10609 0.0
N3 N 0.09853 0.11558 0.10982 0.0
C4 C 0.09126 0.17081 0.11422 0.0
H5 H 0.1231 0.09273 0.09178 0.0
Co6 Co 0.08974 0.03923 0.11758 0.0
C7 C 0.07653 0.05399 0.16197 0.0
O8 O 0.08327 -0.00013 0.1665 0.0
N9 N 0.08038 0.96159 0.12475 0.0
C10 C 0.05958 0.88946 0.13251 0.0
C11 C 0.06251 0.951 0.13057 0.0
C12 C 0.08784 0.90529 0.12267 0.0
N13 N 0.07553 0.86079 0.12743 0.0
O14 O 0.06775 0.05253 0.1011 0.0
H15 H 0.05207 0.98597 0.13276 0.0
H16 H 0.10183 0.89626 0.11731 0.0
O17 O 0.07804 0.07481 0.14304 0.0
C18 C 0.07098 0.03777 0.08186 0.0
O19 O 0.08791 0.01991 0.07681 0.0
N20 N 0.11245 0.02551 0.13183 0.0
C21 C 0.15007 0.01707 0.14308 0.0
C22 C 0.13778 0.05306 0.15503 0.0
C23 C 0.11908 0.05782 0.14884 0.0
C24 C 0.12432 0.99083 0.12005 0.0
C25 C 0.14301 0.9848 0.12564 0.0
H26 H 0.11052 0.09114 0.15677 0.0
H27 H 0.11957 0.97123 0.10525 0.0
H28 H 0.07841 0.17717 0.12293 0.0
H29 H 0.12719 0.21184 0.08775 0.0
H30 H 0.0465 0.86749 0.13643 0.0
H31 H 0.14285 0.0807 0.16807 0.0
H32 H 0.15207 0.95742 0.11571 0.0
C33 C 0.38404 0.86661 0.09733 0.0
C34 C 0.38174 0.80465 0.0955 0.0
N35 N 0.39592 0.77709 0.10576 0.0
N36 N 0.39948 0.87807 0.10892 0.0
C37 C 0.40653 0.82268 0.11361 0.0
H38 H 0.37503 0.90113 0.09067 0.0
Co39 Co 0.40861 0.95441 0.11638 0.0
C40 C 0.42064 0.94097 0.16124 0.0
O41 O 0.41408 0.99561 0.1653 0.0
N42 N 0.41836 0.03198 0.12333 0.0
C43 C 0.43944 0.10285 0.13154 0.0
C44 C 0.43615 0.04148 0.12966 0.0
C45 C 0.41134 0.08879 0.12093 0.0
N46 N 0.42378 0.13271 0.12601 0.0
O47 O 0.43083 0.93868 0.10058 0.0
H48 H 0.44626 0.00582 0.13246 0.0
H49 H 0.39771 0.09856 0.11463 0.0
O50 O 0.41949 0.91948 0.14237 0.0
C51 C 0.42784 0.95246 0.0812 0.0
O52 O 0.41103 0.97078 0.07583 0.0
N53 N 0.38573 0.97072 0.12986 0.0
C54 C 0.34829 0.98809 0.14078 0.0
C55 C 0.35972 0.94942 0.15287 0.0
C56 C 0.37834 0.9404 0.1469 0.0
C57 C 0.3746 0.00668 0.11765 0.0
C58 C 0.35612 0.0176 0.12315 0.0
H59 H 0.38628 0.90609 0.15517 0.0
H60 H 0.37984 0.02444 0.10278 0.0
H61 H 0.41911 0.8159 0.1228 0.0
H62 H 0.37063 0.78173 0.08703 0.0
H63 H 0.45243 0.12363 0.13646 0.0
H64 H 0.35407 0.92368 0.16606 0.0
H65 H 0.34789 0.04738 0.11314 0.0
C66 C 0.11218 0.36286 0.40656 0.0
C67 C 0.1143 0.30087 0.40837 0.0
N68 N 0.09994 0.27359 0.39828 0.0
N69 N 0.09665 0.37472 0.39523 0.0
C70 C 0.0894 0.31958 0.39058 0.0
H71 H 0.12139 0.39709 0.41307 0.0
Co72 Co 0.08739 0.45115 0.3883 0.0
C73 C 0.0749 0.44027 0.34357 0.0
O74 O 0.08113 0.49558 0.33996 0.0
N75 N 0.07749 0.52882 0.38191 0.0
C76 C 0.05625 0.59993 0.37449 0.0
C77 C 0.05952 0.5385 0.37627 0.0
C78 C 0.08466 0.58553 0.384 0.0
N79 N 0.07209 0.62941 0.37946 0.0
O80 O 0.06529 0.43437 0.40421 0.0
H81 H 0.04928 0.50294 0.37391 0.0
H82 H 0.09868 0.59541 0.38905 0.0
O83 O 0.0764 0.41726 0.36219 0.0
C84 C 0.06841 0.44672 0.42369 0.0
O85 O 0.0853 0.46406 0.42913 0.0
N86 N 0.11016 0.46842 0.37473 0.0
C87 C 0.14757 0.48621 0.36378 0.0
C88 C 0.13606 0.44844 0.35143 0.0
C89 C 0.11744 0.43922 0.3574 0.0
C90 C 0.12135 0.50362 0.38715 0.0
C91 C 0.13982 0.51474 0.38165 0.0
H92 H 0.10943 0.40556 0.34888 0.0
H93 H 0.11614 0.52078 0.40212 0.0
H94 H 0.07644 0.31346 0.38206 0.0
H95 H 0.12571 0.2779 0.41627 0.0
H96 H 0.04307 0.62123 0.37059 0.0
H97 H 0.14162 0.4235 0.33801 0.0
H98 H 0.1481 0.54391 0.39183 0.0
C99 C 0.38185 0.62766 0.40589 0.0
C100 C 0.3798 0.68958 0.40803 0.0
N101 N 0.39406 0.71712 0.39787 0.0
N102 N 0.39723 0.6161 0.39427 0.0
C103 C 0.40448 0.67134 0.38981 0.0
H104 H 0.37266 0.59325 0.41233 0.0
Co105 Co 0.40612 0.53973 0.38678 0.0
C106 C 0.41945 0.55279 0.34241 0.0
O107 O 0.41296 0.49812 0.33822 0.0
N108 N 0.41559 0.46202 0.37991 0.0
C109 C 0.43653 0.39 0.37253 0.0
C110 C 0.43355 0.45152 0.37442 0.0
C111 C 0.40812 0.40569 0.38184 0.0
N112 N 0.42051 0.36127 0.3773 0.0
O113 O 0.42811 0.55391 0.40318 0.0
H114 H 0.44401 0.48656 0.37236 0.0
H115 H 0.39404 0.39657 0.38689 0.0
O116 O 0.41774 0.57474 0.36117 0.0
C117 C 0.42495 0.53963 0.42248 0.0
O118 O 0.40803 0.52201 0.42769 0.0
N119 N 0.38344 0.52515 0.37259 0.0
C120 C 0.34581 0.5161 0.36141 0.0
C121 C 0.35808 0.55169 0.34929 0.0
C122 C 0.37679 0.55674 0.35543 0.0
C123 C 0.37159 0.49076 0.38451 0.0
C124 C 0.3529 0.48441 0.37896 0.0
H125 H 0.38534 0.58976 0.34732 0.0
H126 H 0.37638 0.47159 0.39936 0.0
H127 H 0.41734 0.67769 0.38112 0.0
H128 H 0.36849 0.71233 0.41618 0.0
H129 H 0.44965 0.36808 0.36882 0.0
H130 H 0.353 0.57886 0.33615 0.0
H131 H 0.34387 0.45726 0.389 0.0
C132 C 0.88526 0.87036 0.90881 0.0
C133 C 0.88297 0.80842 0.91065 0.0
N134 N 0.89646 0.7809 0.89924 0.0
N135 N 0.89999 0.88179 0.89612 0.0
C136 C 0.90665 0.82645 0.8907 0.0
H137 H 0.87672 0.90492 0.91623 0.0
Co138 Co 0.90868 0.95828 0.88842 0.0
C139 C 0.91872 0.94652 0.84311 0.0
O140 O 0.911 -2e-05 0.83982 0.0
N141 N 0.91803 0.03609 0.8812 0.0
C142 C 0.93871 0.10705 0.87189 0.0
C143 C 0.93552 0.0457 0.8739 0.0
C144 C 0.9111 0.09283 0.88406 0.0
N145 N 0.92331 0.1368 0.87833 0.0
O146 O 0.93137 0.94316 0.90344 0.0
H147 H 0.94551 0.0101 0.87051 0.0
H148 H 0.89777 0.10253 0.89113 0.0
O149 O 0.91901 0.92426 0.86193 0.0
C150 C 0.92875 0.95755 0.92284 0.0
O151 O 0.91207 0.9763 0.92853 0.0
N152 N 0.88532 0.97379 0.87579 0.0
C153 C 0.84763 0.99033 0.86581 0.0
C154 C 0.85877 0.95058 0.85381 0.0
C155 C 0.8775 0.9419 0.85936 0.0
C156 C 0.87444 0.01033 0.88808 0.0
C157 C 0.85582 0.02085 0.88302 0.0
H158 H 0.88524 0.9068 0.85123 0.0
H159 H 0.87996 0.02883 0.9027 0.0
H160 H 0.9186 0.81965 0.88046 0.0
H161 H 0.87237 0.78545 0.91991 0.0
H162 H 0.95146 0.12791 0.86625 0.0
H163 H 0.85284 0.92385 0.84102 0.0
H164 H 0.84779 0.05121 0.89302 0.0
C165 C 0.61203 0.12646 0.90596 0.0
C166 C 0.61398 0.18839 0.90823 0.0
N167 N 0.59983 0.21585 0.89784 0.0
N168 N 0.59683 0.11481 0.89404 0.0
C169 C 0.58958 0.17001 0.88953 0.0
H170 H 0.62119 0.0921 0.91248 0.0
Co171 Co 0.58817 0.03845 0.88607 0.0
C172 C 0.57563 0.05344 0.84142 0.0
O173 O 0.58244 0.99934 0.83698 0.0
N174 N 0.57892 0.96081 0.87867 0.0
C175 C 0.55822 0.88875 0.87045 0.0
C176 C 0.56114 0.95028 0.87246 0.0
C177 C 0.58633 0.9045 0.88088 0.0
N178 N 0.57409 0.86003 0.87586 0.0
O179 O 0.56594 0.05164 0.90215 0.0
H180 H 0.55074 0.98528 0.87007 0.0
H181 H 0.60023 0.89542 0.88654 0.0
O182 O 0.57685 0.07413 0.8604 0.0
C183 C 0.56906 0.03664 0.92139 0.0
O184 O 0.58596 0.01868 0.92655 0.0
N185 N 0.61108 0.02478 0.87228 0.0
C186 C 0.64891 0.01663 0.86196 0.0
C187 C 0.63683 0.05258 0.84973 0.0
C188 C 0.61801 0.05719 0.85545 0.0
C189 C 0.62275 0.99009 0.88432 0.0
C190 C 0.64154 0.98419 0.87919 0.0
H191 H 0.60957 0.09047 0.84733 0.0
H192 H 0.61774 0.97042 0.89899 0.0
H193 H 0.57685 0.1763 0.8806 0.0
H194 H 0.62516 0.21124 0.9166 0.0
H195 H 0.54521 0.86681 0.86625 0.0
H196 H 0.64212 0.08033 0.83685 0.0
H197 H 0.65042 0.95679 0.88932 0.0
C198 C 0.88487 0.62882 0.59754 0.0
C199 C 0.88252 0.69071 0.59567 0.0
N200 N 0.89598 0.7184 0.60709 0.0
N201 N 0.89961 0.61759 0.61026 0.0
C202 C 0.90621 0.67303 0.61567 0.0
H203 H 0.87634 0.59413 0.59015 0.0
Co204 Co 0.90816 0.54108 0.61807 0.0
C205 C 0.91896 0.55345 0.66313 0.0
O206 O 0.91119 0.50016 0.66663 0.0
N207 N 0.91734 0.46326 0.62535 0.0
C208 C 0.93801 0.39197 0.63427 0.0
C209 C 0.93493 0.45334 0.63227 0.0
C210 C 0.91022 0.40668 0.6227 0.0
N211 N 0.92243 0.3625 0.62818 0.0
O212 O 0.93066 0.55492 0.60256 0.0
H213 H 0.94507 0.48873 0.63536 0.0
H214 H 0.89673 0.39732 0.61593 0.0
O215 O 0.91902 0.57546 0.64427 0.0
C216 C 0.92773 0.54059 0.58321 0.0
O217 O 0.91087 0.52289 0.57776 0.0
N218 N 0.88494 0.52688 0.63122 0.0
C219 C 0.84702 0.51707 0.64104 0.0
C220 C 0.85876 0.55469 0.65311 0.0
C221 C 0.8776 0.56017 0.6476 0.0
C222 C 0.87356 0.49117 0.61916 0.0
C223 C 0.85475 0.48433 0.62408 0.0
H224 H 0.88575 0.59459 0.65555 0.0
H225 H 0.8788 0.47137 0.60462 0.0
H226 H 0.91812 0.68003 0.62595 0.0
H227 H 0.87188 0.71352 0.58642 0.0
H228 H 0.95082 0.37092 0.63962 0.0
H229 H 0.85318 0.58291 0.66571 0.0
H230 H 0.84614 0.45583 0.61401 0.0
C231 C 0.61183 0.36413 0.59579 0.0
C232 C 0.61393 0.30217 0.59387 0.0
N233 N 0.59983 0.27478 0.60439 0.0
N234 N 0.59658 0.37588 0.60762 0.0
C235 C 0.58947 0.3207 0.61245 0.0
H236 H 0.62087 0.39844 0.58903 0.0
Co237 Co 0.58755 0.45229 0.61493 0.0
C238 C 0.57571 0.44075 0.65988 0.0
O239 O 0.58213 0.49583 0.66353 0.0
N240 N 0.57788 0.52997 0.6217 0.0
C241 C 0.55689 0.60135 0.6297 0.0
C242 C 0.56004 0.53989 0.62779 0.0
C243 C 0.5851 0.58659 0.61948 0.0
N244 N 0.57268 0.63062 0.62437 0.0
O245 O 0.56517 0.43617 0.59944 0.0
H246 H 0.54979 0.50447 0.63033 0.0
H247 H 0.59903 0.59626 0.61407 0.0
O248 O 0.5769 0.41809 0.64118 0.0
C249 C 0.56799 0.44962 0.58 0.0
O250 O 0.58479 0.46746 0.57437 0.0
N251 N 0.61056 0.46894 0.62808 0.0
C252 C 0.64818 0.4857 0.63825 0.0
C253 C 0.63678 0.44821 0.65083 0.0
C254 C 0.61805 0.43946 0.64523 0.0
C255 C 0.62162 0.50396 0.61546 0.0
C256 C 0.64022 0.51449 0.62056 0.0
H257 H 0.61011 0.40594 0.65389 0.0
H258 H 0.6162 0.52137 0.60062 0.0
H259 H 0.57673 0.31448 0.62138 0.0
H260 H 0.62514 0.27928 0.5856 0.0
H261 H 0.54382 0.62284 0.63391 0.0
H262 H 0.64252 0.42311 0.66412 0.0
H263 H 0.64842 0.5434 0.61021 0.0
C264 C 0.18272 0.02617 0.12977 0.0
C265 C 0.17047 0.01894 0.147 0.0
C266 C 0.20191 0.02886 0.13301 0.0
C267 C 0.23921 0.98398 0.16931 0.0
H268 H 0.26779 0.09609 0.13451 0.0
C269 C 0.32106 0.99675 0.16615 0.0
C270 C 0.32798 0.99407 0.14522 0.0
C271 C 0.30189 0.00412 0.16989 0.0
C272 C 0.25999 0.06477 0.14442 0.0
H273 H 0.16874 0.0093 0.18123 0.0
H274 H 0.20264 0.01393 0.18695 0.0
H275 H 0.23387 0.10295 0.13498 0.0
H276 H 0.31994 0.99331 0.11191 0.0
H277 H 0.28692 0.00792 0.11846 0.0
H278 H 0.26556 0.94497 0.17827 0.0
C279 C 0.19723 0.01722 0.17091 0.0
C280 C 0.24059 0.06855 0.14465 0.0
C281 C 0.17788 0.01488 0.16766 0.0
C282 C 0.31527 0.99735 0.12822 0.0
C283 C 0.2963 0.00541 0.13194 0.0
C284 C 0.25874 0.98039 0.16916 0.0
C285 C 0.20941 0.02459 0.15358 0.0
C286 C 0.22995 0.02679 0.15645 0.0
C287 C 0.28943 0.00955 0.15276 0.0
C288 C 0.26921 0.01941 0.15609 0.0
H289 H 0.17747 0.03051 0.11369 0.0
H290 H 0.21092 0.03362 0.11928 0.0
H291 H 0.23137 0.95114 0.17853 0.0
H292 H 0.33046 0.99438 0.1796 0.0
H293 H 0.29688 0.00696 0.1861 0.0
C294 C 0.31797 0.51352 0.33687 0.0
C295 C 0.32539 0.51777 0.35752 0.0
C296 C 0.29862 0.51579 0.33363 0.0
C297 C 0.25525 0.56692 0.35999 0.0
H298 H 0.23029 0.44381 0.32612 0.0
C299 C 0.18063 0.49461 0.3763 0.0
C300 C 0.16788 0.49226 0.35932 0.0
C301 C 0.1996 0.50277 0.37257 0.0
C302 C 0.23711 0.47909 0.33531 0.0
H303 H 0.31842 0.52958 0.39082 0.0
H304 H 0.28497 0.53243 0.38527 0.0
H305 H 0.26448 0.45005 0.32589 0.0
H306 H 0.16534 0.49428 0.32494 0.0
H307 H 0.19892 0.50694 0.31843 0.0
H308 H 0.22805 0.59417 0.3702 0.0
C309 C 0.29396 0.52764 0.37154 0.0
C310 C 0.25663 0.48273 0.33517 0.0
C311 C 0.31315 0.52507 0.37476 0.0
C312 C 0.17476 0.49591 0.33838 0.0
C313 C 0.19393 0.50333 0.33463 0.0
C314 C 0.23585 0.56305 0.36022 0.0
C315 C 0.28644 0.52324 0.35097 0.0
C316 C 0.26589 0.52537 0.34812 0.0
C317 C 0.20643 0.50787 0.35176 0.0
C318 C 0.22663 0.51788 0.34845 0.0
H319 H 0.32709 0.50787 0.32329 0.0
H320 H 0.2932 0.5124 0.3176 0.0
H321 H 0.26196 0.60122 0.36973 0.0
H322 H 0.176 0.48979 0.3926 0.0
H323 H 0.20901 0.50461 0.38604 0.0
C324 C 0.82011 0.99776 0.84084 0.0
C325 C 0.82727 0.99643 0.86168 0.0
C326 C 0.80091 0.00474 0.83732 0.0
C327 C 0.7589 0.06464 0.86317 0.0
H328 H 0.7308 0.95163 0.82823 0.0
C329 C 0.68132 0.02558 0.87611 0.0
C330 C 0.66939 0.01863 0.85856 0.0
C331 C 0.70056 0.02828 0.87336 0.0
C332 C 0.73849 0.98427 0.8377 0.0
H333 H 0.81965 0.99805 0.8951 0.0
H334 H 0.78653 0.01172 0.88892 0.0
H335 H 0.76497 0.94614 0.82886 0.0
H336 H 0.66829 0.00952 0.82429 0.0
H337 H 0.70228 0.01426 0.81941 0.0
H338 H 0.73262 0.10203 0.87243 0.0
C339 C 0.79574 0.00851 0.87532 0.0
C340 C 0.75802 0.98106 0.83808 0.0
C341 C 0.81478 0.00094 0.87884 0.0
C342 C 0.67718 0.01489 0.83809 0.0
C343 C 0.69658 0.01727 0.83532 0.0
C344 C 0.73949 0.06801 0.86273 0.0
C345 C 0.78861 0.01106 0.85457 0.0
C346 C 0.76832 0.01996 0.85138 0.0
C347 C 0.70845 0.02432 0.85296 0.0
C348 C 0.72903 0.02654 0.85058 0.0
H349 H 0.82935 0.99453 0.82727 0.0
H350 H 0.79572 0.00646 0.82115 0.0
H351 H 0.76654 0.09597 0.87323 0.0
H352 H 0.67576 0.02968 0.89206 0.0
H353 H 0.70932 0.03281 0.88731 0.0
C354 C 0.68105 0.4924 0.62504 0.0
C355 C 0.66857 0.49116 0.64228 0.0
C356 C 0.7001 0.5 0.62836 0.0
C357 C 0.738 0.47842 0.66572 0.0
H358 H 0.76299 0.59558 0.62941 0.0
C359 C 0.81874 0.51524 0.66488 0.0
C360 C 0.82652 0.51747 0.64437 0.0
C361 C 0.79933 0.51667 0.66763 0.0
C362 C 0.75624 0.5626 0.63964 0.0
H363 H 0.66654 0.49465 0.67667 0.0
H364 H 0.70024 0.50665 0.68248 0.0
H365 H 0.72908 0.58865 0.62893 0.0
H366 H 0.82008 0.52457 0.61076 0.0
H367 H 0.78651 0.52591 0.61549 0.0
H368 H 0.76533 0.45082 0.67581 0.0
C369 C 0.69501 0.50244 0.6664 0.0
C370 C 0.73684 0.55877 0.6394 0.0
C371 C 0.67578 0.49543 0.66305 0.0
C372 C 0.81455 0.52168 0.62675 0.0
C373 C 0.79529 0.52337 0.62949 0.0
C374 C 0.75752 0.48206 0.6659 0.0
C375 C 0.70727 0.50581 0.64901 0.0
C376 C 0.72756 0.51543 0.65193 0.0
C377 C 0.78743 0.52118 0.64993 0.0
C378 C 0.76684 0.52292 0.65233 0.0
H379 H 0.67613 0.48713 0.60887 0.0
H380 H 0.7093 0.50089 0.6147 0.0
H381 H 0.73115 0.44456 0.67551 0.0
H382 H 0.82764 0.51193 0.67875 0.0
H383 H 0.79365 0.51506 0.68358 0.0
C384 C 0.03715 0.03806 0.07107 0.0
C385 C 0.05612 0.03575 0.06554 0.0
C386 C 0.02337 0.03001 0.05549 0.0
C387 C 0.0155 0.03312 0.99716 0.0
H388 H 0.97423 0.92529 0.01013 0.0
C389 C 0.96282 0.95504 0.93272 0.0
C390 C 0.94397 0.95779 0.93874 0.0
C391 C 0.97693 0.96161 0.94802 0.0
C392 C 0.9856 0.95586 0.00629 0.0
H393 H 0.0755 0.02541 0.03927 0.0
H394 H 0.05162 0.01141 0.01234 0.0
H395 H 0.99738 0.94773 0.03744 0.0
H396 H 0.92514 0.96726 0.96556 0.0
H397 H 0.94952 0.97883 0.99195 0.0
H398 H 0.00367 0.04144 0.96602 0.0
C399 C 0.0473 0.01961 0.02859 0.0
C400 C -0.00118 0.96894 0.02198 0.0
C401 C 0.061 0.02729 0.0441 0.0
C402 C 0.93953 0.9651 0.96035 0.0
C403 C 0.95354 0.97133 0.97556 0.0
C404 C 0.00226 0.02009 0.98146 0.0
C405 C 0.02832 0.02 0.0341 0.0
C406 C 0.01391 0.00781 0.01762 0.0
C407 C 0.97241 0.97053 0.9696 0.0
C408 C 0.98711 0.98148 0.98586 0.0
H409 H 0.03296 0.0444 0.08746 0.0
H410 H 0.00884 0.03126 0.0602 0.0
H411 H 0.02686 0.06374 0.99334 0.0
H412 H 0.96667 0.94957 0.91618 0.0
H413 H 0.99136 0.96013 0.94295 0.0
C414 C 0.46176 0.95113 0.07078 0.0
C415 C 0.44283 0.95312 0.06504 0.0
C416 C 0.47565 0.95842 0.05528 0.0
C417 C 0.48377 0.95373 0.99692 0.0
H418 H 0.52476 0.06296 0.00969 0.0
C419 C 0.53518 0.03659 0.93203 0.0
C420 C 0.55414 0.03465 0.93764 0.0
C421 C 0.52138 0.02849 0.94757 0.0
C422 C 0.51347 0.03198 0.00592 0.0
H423 H 0.42364 0.96188 0.03852 0.0
H424 H 0.44767 0.97469 0.01176 0.0
H425 H 0.50178 0.0398 0.03712 0.0
H426 H 0.57348 0.02494 0.96399 0.0
H427 H 0.54957 0.01085 0.99084 0.0
H428 H 0.49545 0.94602 0.9657 0.0
C429 C 0.45191 0.96726 0.02809 0.0
C430 C 0.50036 0.01846 0.02168 0.0
C431 C 0.4381 0.9603 0.0435 0.0
C432 C 0.55899 0.02653 0.95911 0.0
C433 C 0.54527 0.01881 0.97457 0.0
C434 C 0.49688 0.96728 0.98115 0.0
C435 C 0.47084 0.96735 0.03379 0.0
C436 C 0.48533 0.97924 0.01736 0.0
C437 C 0.5263 0.01883 0.96899 0.0
C438 C 0.51189 0.00656 0.98546 0.0
H439 H 0.46583 0.94578 0.08726 0.0
H440 H 0.49015 0.95757 0.06014 0.0
H441 H 0.47249 0.92276 0.99313 0.0
H442 H 0.53103 0.04264 0.91561 0.0
H443 H 0.50686 0.02942 0.94281 0.0
C444 C 0.05822 0.45243 0.46146 0.0
C445 C 0.05343 0.44768 0.43985 0.0
C446 C 0.04451 0.46056 0.47691 0.0
C447 C 0.99702 0.52013 0.48354 0.0
H448 H 0.00036 0.44371 0.539 0.0
C449 C 0.93807 0.53326 0.54554 0.0
C450 C 0.94279 0.53878 0.56715 0.0
C451 C 0.95184 0.52492 0.53017 0.0
C452 C -0.0006 0.46611 0.52371 0.0
H453 H 0.03039 0.44568 0.41756 0.0
H454 H 0.00624 0.45949 0.44473 0.0
H455 H 0.02306 0.41797 0.51154 0.0
H456 H 0.96575 0.54171 0.58954 0.0
H457 H 0.99002 0.52737 0.5625 0.0
H458 H 0.97335 0.56822 0.49569 0.0
C459 C 0.02071 0.45755 0.44962 0.0
C460 C 0.01234 0.45112 0.50792 0.0
C461 C 0.0345 0.44907 0.43409 0.0
C462 C 0.9617 0.53774 0.573 0.0
C463 C 0.97555 0.52898 0.55755 0.0
C464 C 0.98407 0.53509 0.49932 0.0
C465 C 0.02562 0.46432 0.47119 0.0
C466 C 0.01131 0.47797 0.48765 0.0
C467 C 0.97072 0.52168 0.53598 0.0
C468 C 0.98509 0.5082 0.51958 0.0
H469 H 0.07269 0.45137 0.46645 0.0
H470 H 0.04883 0.46618 0.4933 0.0
H471 H 0.99604 0.54256 0.46825 0.0
H472 H 0.92363 0.53404 0.54048 0.0
H473 H 0.94759 0.51887 0.51378 0.0
C474 C 0.43518 0.52908 0.46014 0.0
C475 C 0.43993 0.53723 0.43865 0.0
C476 C 0.44898 0.52048 0.47549 0.0
C477 C 0.49935 0.53872 0.48619 0.0
H478 H 0.49021 0.41454 0.52883 0.0
C479 C 0.55727 0.4582 0.54249 0.0
C480 C 0.55278 0.45113 0.5641 0.0
C481 C 0.54332 0.46665 0.52734 0.0
C482 C 0.49289 0.44979 0.51719 0.0
H483 H 0.46294 0.54447 0.41646 0.0
H484 H 0.4872 0.52896 0.44336 0.0
H485 H 0.46658 0.4356 0.50192 0.0
H486 H 0.53005 0.4453 0.5867 0.0
H487 H 0.50547 0.46037 0.56009 0.0
H488 H 0.52569 0.5528 0.50142 0.0
C489 C 0.47273 0.52974 0.44833 0.0
C490 C 0.47935 0.46193 0.50175 0.0
C491 C 0.45886 0.53859 0.43292 0.0
C492 C 0.53392 0.45038 0.57015 0.0
C493 C 0.51987 0.45902 0.55491 0.0
C494 C 0.51289 0.52654 0.50161 0.0
C495 C 0.4679 0.51953 0.46975 0.0
C496 C 0.48241 0.50658 0.48607 0.0
C497 C 0.52447 0.46848 0.53339 0.0
C498 C 0.50986 0.4818 0.51725 0.0
H499 H 0.42073 0.52841 0.46515 0.0
H500 H 0.44477 0.51422 0.49188 0.0
H501 H 0.50205 0.574 0.47457 0.0
H502 H 0.57166 0.45832 0.53724 0.0
H503 H 0.54733 0.47229 0.51086 0.0
C504 C 0.06623 0.42881 0.30527 0.0
C505 C 0.06916 0.40199 0.32528 0.0
C506 C 0.06314 0.39277 0.28732 0.0
C507 C 0.05168 0.236 0.26911 0.0
H508 H 0.08013 0.28375 0.21939 0.0
C509 C 0.06927 0.07125 0.20042 0.0
C510 C 0.07039 0.09417 0.17959 0.0
C511 C 0.06582 0.11009 0.21757 0.0
C512 C 0.07179 0.27023 0.23295 0.0
H513 H 0.07036 0.31615 0.34224 0.0
H514 H 0.0652 0.25311 0.31084 0.0
H515 H 0.08011 0.34871 0.25065 0.0
H516 H 0.06778 0.1757 0.16038 0.0
H517 H 0.0616 0.24348 0.1903 0.0
H518 H 0.04374 0.15666 0.25145 0.0
C519 C 0.06508 0.30214 0.30906 0.0
C520 C 0.07179 0.30754 0.25094 0.0
C521 C 0.06809 0.3383 0.32709 0.0
C522 C 0.06711 0.15652 0.1762 0.0
C523 C 0.06369 0.19546 0.19339 0.0
C524 C 0.05169 0.19859 0.25108 0.0
C525 C 0.063 0.32893 0.28887 0.0
C526 C 0.0619 0.29066 0.26934 0.0
C527 C 0.0634 0.1729 0.21434 0.0
C528 C 0.06193 0.21492 0.23286 0.0
H529 H 0.06676 0.47778 0.30335 0.0
H530 H 0.0612 0.415 0.27211 0.0
H531 H 0.04371 0.22201 0.28289 0.0
H532 H 0.07166 0.02345 0.20363 0.0
H533 H 0.06587 0.09115 0.23346 0.0
C534 C 0.42627 0.65556 0.32658 0.0
C535 C 0.42559 0.59187 0.32452 0.0
C536 C 0.42952 0.69238 0.30877 0.0
C537 C 0.42421 0.68769 0.25044 0.0
H538 H 0.45111 0.84073 0.25213 0.0
C539 C 0.43011 0.83913 0.17599 0.0
C540 C 0.42633 0.90125 0.17919 0.0
C541 C 0.43322 0.80051 0.19334 0.0
C542 C 0.44349 0.79819 0.25143 0.0
H543 H 0.42901 0.51682 0.30246 0.0
H544 H 0.43504 0.58073 0.27163 0.0
H545 H 0.45083 0.77494 0.28346 0.0
H546 H 0.42379 0.97196 0.20311 0.0
H547 H 0.42904 0.90474 0.23323 0.0
H548 H 0.41654 0.71123 0.21866 0.0
C549 C 0.43257 0.60245 0.28683 0.0
C550 C 0.44332 0.76053 0.2694 0.0
C551 C 0.42922 0.56577 0.30455 0.0
C552 C 0.4266 0.92432 0.20004 0.0
C553 C 0.42973 0.88578 0.21735 0.0
C554 C 0.4244 0.72523 0.23252 0.0
C555 C 0.43226 0.66625 0.28857 0.0
C556 C 0.43352 0.70504 0.26919 0.0
C557 C 0.43268 0.82315 0.21426 0.0
C558 C 0.43387 0.78126 0.23284 0.0
H559 H 0.42345 0.67715 0.34171 0.0
H560 H 0.42905 0.74134 0.31069 0.0
H561 H 0.41621 0.6459 0.2498 0.0
H562 H 0.43013 0.81985 0.16016 0.0
H563 H 0.43575 0.75266 0.19037 0.0
C564 C 0.93511 0.85632 0.82698 0.0
C565 C 0.9241 0.90873 0.8246 0.0
C566 C 0.93906 0.81918 0.80941 0.0
C567 C 0.93475 0.81353 0.74968 0.0
H568 H 0.93609 0.63954 0.75926 0.0
C569 C 0.93495 0.64508 0.6789 0.0
C570 C 0.92447 0.59157 0.68152 0.0
C571 C 0.93886 0.68266 0.69637 0.0
C572 C 0.93554 0.68798 0.75619 0.0
H573 H 0.90859 0.96326 0.80193 0.0
H574 H 0.91457 0.89779 0.77185 0.0
H575 H 0.93489 0.70792 0.78938 0.0
H576 H 0.90996 0.53544 0.70458 0.0
H577 H 0.91588 0.60148 0.7345 0.0
H578 H 0.93379 0.79347 0.7165 0.0
C579 C 0.92091 0.886 0.78691 0.0
C580 C 0.93523 0.72754 0.77361 0.0
C581 C 0.91731 0.92357 0.80431 0.0
C582 C 0.91824 0.57601 0.70198 0.0
C583 C 0.92181 0.61393 0.7193 0.0
C584 C 0.93462 0.77394 0.73226 0.0
C585 C 0.93176 0.83297 0.78915 0.0
C586 C 0.93438 0.79096 0.77064 0.0
C587 C 0.93207 0.66812 0.71681 0.0
C588 C 0.93456 0.71046 0.73524 0.0
H589 H 0.94061 0.84385 0.84242 0.0
H590 H 0.94775 0.77948 0.81182 0.0
H591 H 0.93468 0.862 0.7466 0.0
H592 H 0.94002 0.65816 0.66333 0.0
H593 H 0.94709 0.7233 0.69378 0.0
C594 C 0.56881 0.07085 0.80287 0.0
C595 C 0.56976 0.09374 0.82372 0.0
C596 C 0.56561 0.10977 0.78568 0.0
C597 C 0.5721 0.2697 0.77038 0.0
H598 H 0.54415 0.22256 0.72021 0.0
C599 C 0.5672 0.42906 0.6982 0.0
C600 C 0.57 0.4024 0.67815 0.0
C601 C 0.56404 0.39291 0.71611 0.0
C602 C 0.55209 0.23624 0.73405 0.0
H603 H 0.56711 0.17532 0.8429 0.0
H604 H 0.5614 0.24324 0.8129 0.0
H605 H 0.54386 0.15702 0.75158 0.0
H606 H 0.57093 0.31672 0.66106 0.0
H607 H 0.56567 0.25347 0.69238 0.0
H608 H 0.58073 0.34802 0.75281 0.0
C609 C 0.56341 0.19518 0.80984 0.0
C610 C 0.55191 0.19872 0.75205 0.0
C611 C 0.56657 0.15615 0.82706 0.0
C612 C 0.56877 0.33875 0.67625 0.0
C613 C 0.56569 0.30247 0.69423 0.0
C614 C 0.5723 0.3071 0.75242 0.0
C615 C 0.56329 0.17263 0.78889 0.0
C616 C 0.56208 0.21469 0.77036 0.0
C617 C 0.56371 0.32909 0.71447 0.0
C618 C 0.56246 0.29063 0.73394 0.0
H619 H 0.57114 0.023 0.79969 0.0
H620 H 0.56578 0.09085 0.76978 0.0
H621 H 0.58039 0.28292 0.78403 0.0
H622 H 0.56786 0.47799 0.7002 0.0
H623 H 0.56217 0.41504 0.73135 0.0
C624 C 0.09068 0.77187 0.11065 0.0
C625 C 0.07835 0.79603 0.12583 0.0
C626 C 0.09295 0.70897 0.10866 0.0
C627 C 0.08745 0.56479 0.13759 0.0
H628 H 0.08729 0.49298 0.08127 0.0
C629 C 0.0874 0.30432 0.12482 0.0
C630 C 0.09841 0.28122 0.10816 0.0
C631 C 0.08455 0.36696 0.127 0.0
C632 C 0.08761 0.51231 0.0971 0.0
H633 H 0.05903 0.77326 0.15109 0.0
H634 H 0.063 0.66321 0.14763 0.0
H635 H 0.08349 0.60264 0.08522 0.0
H636 H 0.11483 0.3065 0.08055 0.0
H637 H 0.11037 0.41539 0.08472 0.0
H638 H 0.09184 0.47474 0.1495 0.0
C639 C 0.0709 0.69301 0.13729 0.0
C640 C 0.0854 0.57515 0.09935 0.0
C641 C 0.06851 0.75593 0.13915 0.0
C642 C 0.10644 0.32244 0.0937 0.0
C643 C 0.10367 0.38504 0.09594 0.0
C644 C 0.08979 0.50195 0.13534 0.0
C645 C 0.08306 0.66887 0.12193 0.0
C646 C 0.08532 0.60207 0.11961 0.0
C647 C 0.09271 0.40814 0.11262 0.0
C648 C 0.08993 0.47492 0.11506 0.0
H649 H 0.09829 0.8015 0.09999 0.0
H650 H 0.10254 0.6917 0.09681 0.0
H651 H 0.08765 0.58437 0.15339 0.0
H652 H 0.08116 0.27422 0.13642 0.0
H653 H 0.07585 0.38306 0.13989 0.0
C654 C 0.43649 0.23733 0.12269 0.0
C655 C 0.42112 0.19782 0.12467 0.0
C656 C 0.43388 0.30022 0.12107 0.0
C657 C 0.39913 0.41476 0.1055 0.0
H658 H 0.43012 0.52621 0.13777 0.0
C659 C 0.38369 0.67216 0.10833 0.0
C660 C 0.3989 0.71254 0.10814 0.0
C661 C 0.38651 0.60958 0.11063 0.0
C662 C 0.4215 0.49581 0.12842 0.0
H663 H 0.39092 0.19438 0.12705 0.0
H664 H 0.3864 0.30383 0.12388 0.0
H665 H 0.43489 0.4167 0.14123 0.0
H666 H 0.42903 0.71871 0.10998 0.0
H667 H 0.43402 0.60942 0.11366 0.0
H668 H 0.3859 0.4935 0.09242 0.0
C669 C 0.40047 0.28588 0.12336 0.0
C670 C 0.42422 0.43304 0.13046 0.0
C671 C 0.40308 0.22303 0.12513 0.0
C672 C 0.41701 0.68888 0.11033 0.0
C673 C 0.41985 0.62619 0.11248 0.0
C674 C 0.3965 0.47748 0.10334 0.0
C675 C 0.41583 0.32515 0.12126 0.0
C676 C 0.41302 0.39184 0.11907 0.0
C677 C 0.40463 0.5857 0.11264 0.0
C678 C 0.4076 0.51886 0.11482 0.0
H679 H 0.45057 0.21978 0.12198 0.0
H680 H 0.44598 0.32928 0.11922 0.0
H681 H 0.39048 0.38417 0.09627 0.0
H682 H 0.36955 0.68902 0.10705 0.0
H683 H 0.37443 0.58 0.11111 0.0
C684 C 0.10493 0.16747 0.41027 0.0
C685 C 0.09667 0.209 0.39609 0.0
C686 C 0.10211 0.10492 0.40793 0.0
C687 C 0.07027 0.99177 0.38486 0.0
H688 H 0.11274 0.88342 0.38994 0.0
C689 C 0.06477 0.73381 0.36744 0.0
C690 C 0.07479 0.69429 0.38077 0.0
C691 C 0.06739 0.79679 0.36873 0.0
C692 C 0.10068 0.91291 0.38874 0.0
H693 H 0.07899 0.21659 0.36817 0.0
H694 H 0.07387 0.10746 0.36433 0.0
H695 H 0.11723 0.99288 0.39348 0.0
H696 H 0.09507 0.68996 0.40629 0.0
H697 H 0.09948 0.79954 0.40878 0.0
H698 H 0.05364 0.91183 0.38045 0.0
C699 C 0.08244 0.12363 0.37735 0.0
C700 C 0.10328 0.97566 0.39072 0.0
C701 C 0.08535 0.18625 0.37961 0.0
C702 C 0.08741 0.71909 0.39552 0.0
C703 C 0.08994 0.78199 0.39692 0.0
C704 C 0.06763 0.92891 0.38301 0.0
C705 C 0.09088 0.0823 0.39142 0.0
C706 C 0.0881 0.01575 0.38889 0.0
C707 C 0.08001 0.82167 0.3835 0.0
C708 C 0.0828 0.88867 0.38502 0.0
H709 H 0.11344 0.18313 0.42337 0.0
H710 H 0.10856 0.07422 0.41922 0.0
H711 H 0.05827 0.02153 0.3836 0.0
H712 H 0.05512 0.71596 0.35576 0.0
H713 H 0.05971 0.82588 0.35794 0.0
C714 C 0.40841 0.80488 0.37925 0.0
C715 C 0.3973 0.78174 0.39584 0.0
C716 C 0.4113 0.86752 0.37714 0.0
C717 C 0.40817 0.01266 0.40714 0.0
H718 H 0.40847 0.08513 0.35093 0.0
C719 C 0.40518 0.27224 0.39379 0.0
C720 C 0.41767 0.29651 0.3788 0.0
C721 C 0.40288 0.20934 0.39569 0.0
C722 C 0.40858 0.06543 0.36671 0.0
H723 H 0.38077 0.80697 0.42336 0.0
H724 H 0.3853 0.91583 0.41928 0.0
H725 H 0.40421 0.97547 0.35468 0.0
H726 H 0.43724 0.27397 0.35378 0.0
H727 H 0.43321 0.16387 0.35706 0.0
H728 H 0.41225 0.1029 0.41915 0.0
C729 C 0.39203 0.88552 0.40808 0.0
C730 C 0.4062 0.00258 0.36888 0.0
C731 C 0.38922 0.82292 0.41026 0.0
C732 C 0.42764 0.25653 0.36557 0.0
C733 C 0.42521 0.19361 0.36734 0.0
C734 C 0.41042 0.07551 0.40498 0.0
C735 C 0.4031 0.90865 0.39149 0.0
C736 C 0.40593 0.97541 0.38913 0.0
C737 C 0.4129 0.16936 0.38251 0.0
C738 C 0.41061 0.10256 0.38475 0.0
H739 H 0.41469 0.77481 0.36768 0.0
H740 H 0.42008 0.88365 0.36432 0.0
H741 H 0.40839 0.99322 0.42296 0.0
H742 H 0.39746 0.3018 0.40437 0.0
H743 H 0.39317 0.19196 0.4074 0.0
C744 C 0.88404 0.67617 0.89739 0.0
C745 C 0.89926 0.7164 0.89663 0.0
C746 C 0.8867 0.61358 0.89498 0.0
C747 C 0.92074 0.49945 0.87529 0.0
H748 H 0.89134 0.3885 0.90961 0.0
C749 C 0.9361 0.24141 0.8809 0.0
C750 C 0.92067 0.20185 0.87978 0.0
C751 C 0.93353 0.30429 0.88255 0.0
C752 C 0.89953 0.41892 0.89978 0.0
H753 H 0.92926 0.72242 0.89295 0.0
H754 H 0.93401 0.61306 0.88908 0.0
H755 H 0.88695 0.49792 0.91347 0.0
H756 H 0.89041 0.19823 0.87901 0.0
H757 H 0.88598 0.30772 0.88226 0.0
H758 H 0.93351 0.42009 0.86187 0.0
C759 C 0.91993 0.62995 0.89109 0.0
C760 C 0.897 0.48166 0.90194 0.0
C761 C 0.91723 0.69265 0.89334 0.0
C762 C 0.90262 0.22696 0.88025 0.0
C763 C 0.90006 0.28979 0.88206 0.0
C764 C 0.92337 0.43667 0.87325 0.0
C765 C 0.90469 0.58959 0.8919 0.0
C766 C 0.90753 0.52276 0.88968 0.0
C767 C 0.91548 0.32911 0.88326 0.0
C768 C 0.91275 0.39576 0.88543 0.0
H769 H 0.86999 0.69318 0.89953 0.0
H770 H 0.8746 0.58406 0.89527 0.0
H771 H 0.92889 0.52966 0.86534 0.0
H772 H 0.9502 0.22392 0.88089 0.0
H773 H 0.94568 0.33343 0.8837 0.0
C774 C 0.56721 0.75517 0.86401 0.0
C775 C 0.57686 0.79526 0.87752 0.0
C776 C 0.56955 0.69224 0.86593 0.0
C777 C 0.58342 0.57441 0.90418 0.0
H778 H 0.59059 0.47383 0.85419 0.0
C779 C 0.60442 0.32174 0.9103 0.0
C780 C 0.59661 0.28045 0.8957 0.0
C781 C 0.60166 0.38433 0.908 0.0
C782 C 0.58833 0.50109 0.8683 0.0
H783 H 0.5964 0.80069 0.90376 0.0
H784 H 0.60056 0.69088 0.90706 0.0
H785 H 0.58648 0.58346 0.85019 0.0
H786 H 0.57976 0.27333 0.86712 0.0
H787 H 0.57447 0.38215 0.86352 0.0
H788 H 0.58505 0.49228 0.92232 0.0
C789 C 0.59116 0.70817 0.895 0.0
C790 C 0.58603 0.56393 0.866 0.0
C791 C 0.58894 0.77107 0.89296 0.0
C792 C 0.58583 0.30348 0.87883 0.0
C793 C 0.58299 0.36611 0.87659 0.0
C794 C 0.58559 0.51156 0.90649 0.0
C795 C 0.58145 0.66808 0.88154 0.0
C796 C 0.58365 0.60127 0.88392 0.0
C797 C 0.59093 0.40735 0.89111 0.0
C798 C 0.58818 0.47411 0.88859 0.0
H799 H 0.55792 0.77252 0.85187 0.0
H800 H 0.56179 0.66245 0.85542 0.0
H801 H 0.58132 0.60193 0.91827 0.0
H802 H 0.61262 0.30585 0.92362 0.0
H803 H 0.60819 0.41472 0.91934 0.0
C804 C 0.88335 0.82278 0.60912 0.0
C805 C 0.89866 0.78293 0.60976 0.0
C806 C 0.8859 0.8854 0.6116 0.0
C807 C 0.91982 6e-05 0.63123 0.0
H808 H 0.89009 0.11074 0.59718 0.0
C809 C 0.9351 0.25786 0.62534 0.0
C810 C 0.91972 0.29748 0.62672 0.0
C811 C 0.93248 0.19502 0.62373 0.0
C812 C 0.89837 0.08038 0.60694 0.0
H813 H 0.92868 0.77755 0.61328 0.0
H814 H 0.93324 0.88699 0.61724 0.0
H815 H 0.88581 0.00126 0.59327 0.0
H816 H 0.88947 0.30125 0.6279 0.0
H817 H 0.88494 0.19173 0.62469 0.0
H818 H 0.93259 0.07954 0.64459 0.0
C819 C 0.91918 0.86979 0.61529 0.0
C820 C 0.8959 0.01762 0.60475 0.0
C821 C 0.91659 0.80705 0.61298 0.0
C822 C 0.90164 0.27246 0.62648 0.0
C823 C 0.89903 0.20963 0.6247 0.0
C824 C 0.92239 0.06285 0.63329 0.0
C825 C 0.90386 0.90978 0.61461 0.0
C826 C 0.90657 0.97663 0.6169 0.0
C827 C 0.91442 0.17028 0.6233 0.0
C828 C 0.91166 0.10364 0.62119 0.0
H829 H 0.86933 0.80545 0.60703 0.0
H830 H 0.87374 0.91463 0.61141 0.0
H831 H 0.92806 0.96993 0.6411 0.0
H832 H 0.94922 0.27525 0.62513 0.0
H833 H 0.94461 0.16584 0.62239 0.0
C834 C 0.56571 0.73509 0.63657 0.0
C835 C 0.57542 0.69546 0.62298 0.0
C836 C 0.56831 0.79804 0.63517 0.0
C837 C 0.60108 0.91414 0.61407 0.0
H838 H 0.55874 0.0225 0.62036 0.0
C839 C 0.60462 0.16867 0.59227 0.0
C840 C 0.59667 0.21018 0.60669 0.0
C841 C 0.60192 0.10611 0.59472 0.0
C842 C 0.57072 0.99281 0.61877 0.0
H843 H 0.59514 0.69092 0.59692 0.0
H844 H 0.59952 0.80048 0.59424 0.0
H845 H 0.55425 0.91281 0.62373 0.0
H846 H 0.57967 0.21767 0.63514 0.0
H847 H 0.57474 0.10853 0.63917 0.0
H848 H 0.61747 0.9942 0.60876 0.0
C849 C 0.59024 0.78303 0.60637 0.0
C850 C 0.56817 0.92996 0.62075 0.0
C851 C 0.58773 0.72014 0.60789 0.0
C852 C 0.58578 0.18737 0.62352 0.0
C853 C 0.58298 0.12473 0.62588 0.0
C854 C 0.60359 0.97689 0.61195 0.0
C855 C 0.5806 0.82281 0.62002 0.0
C856 C 0.58332 0.88981 0.61834 0.0
C857 C 0.59111 0.08345 0.61157 0.0
C858 C 0.58843 0.01689 0.6142 0.0
H859 H 0.55631 0.71733 0.64852 0.0
H860 H 0.56088 0.82722 0.64615 0.0
H861 H 0.61313 0.88472 0.61253 0.0
H862 H 0.6128 0.18437 0.57891 0.0
H863 H 0.60812 0.07543 0.58324 0.0
loop_
_geom_bond_atom_site_label_1
_geom_bond_atom_site_label_2
_geom_bond_distance
_geom_bond_site_symmetry_2
_ccdc_geom_bond_type
C0 C1 1.351 . S
C0 N3 1.368 . S
C0 H5 0.931 . S
C1 C0 1.351 . S
C1 N2 1.373 . S
C1 H29 0.930 . S
N2 C1 1.373 . S
N2 C4 1.340 . S
N3 C0 1.368 . S
N3 C4 1.321 . S
N3 Co6 2.135 . S
C4 N2 1.340 . S
C4 N3 1.321 . S
C4 H28 0.930 . S
H5 C0 0.931 . S
Co6 N3 2.135 . S
Co6 N9 2.122 . S
Co6 O14 2.055 . S
Co6 O17 2.039 . S
Co6 N20 2.140 . S
C7 O8 1.227 . S
C7 O17 1.265 . S
O8 C7 1.227 . S
N9 Co6 2.122 . S
N9 C11 1.375 1_545 S
N9 C12 1.312 1_545 S
C10 C11 1.338 . S
C10 N13 1.377 . S
C10 H30 0.930 . S
C11 N9 1.375 1_565 S
C11 C10 1.338 . S
C11 H15 0.931 1_565 S
C12 N9 1.312 1_565 S
C12 N13 1.344 . S
C12 H16 0.930 . S
N13 C10 1.377 . S
N13 C12 1.344 . S
O14 Co6 2.055 . S
O14 C18 1.253 . S
H15 C11 0.931 1_545 S
H16 C12 0.930 . S
O17 Co6 2.039 . S
O17 C7 1.265 . S
C18 O14 1.253 . S
C18 O19 1.227 . S
O19 C18 1.227 . S
N20 Co6 2.140 . S
N20 C23 1.346 . S
N20 C24 1.345 . S
C21 C22 1.387 . S
C21 C25 1.391 . S
C22 C21 1.387 . S
C22 C23 1.369 . S
C22 H31 0.929 . S
C23 N20 1.346 . S
C23 C22 1.369 . S
C23 H26 0.928 . S
C24 N20 1.345 . S
C24 C25 1.371 . S
C24 H27 0.931 . S
C25 C21 1.391 . S
C25 C24 1.371 . S
C25 H32 0.930 1_545 S
H26 C23 0.928 . S
H27 C24 0.931 . S
H28 C4 0.930 . S
H29 C1 0.930 . S
H30 C10 0.930 . S
H31 C22 0.929 . S
H32 C25 0.930 1_565 S
C33 C34 1.351 . S
C33 N36 1.368 . S
C33 H38 0.931 . S
C34 C33 1.351 . S
C34 N35 1.373 . S
C34 H62 0.930 . S
N35 C34 1.373 . S
N35 C37 1.340 . S
N36 C33 1.368 . S
N36 C37 1.321 . S
N36 Co39 2.135 . S
C37 N35 1.340 . S
C37 N36 1.321 . S
C37 H61 0.930 . S
H38 C33 0.931 . S
Co39 N36 2.135 . S
Co39 N42 2.122 . S
Co39 O47 2.055 . S
Co39 O50 2.039 . S
Co39 N53 2.140 . S
C40 O41 1.227 . S
C40 O50 1.265 . S
O41 C40 1.227 . S
N42 Co39 2.122 . S
N42 C44 1.375 1_565 S
N42 C45 1.313 1_565 S
C43 C44 1.338 . S
C43 N46 1.377 . S
C43 H63 0.930 . S
C44 N42 1.375 1_545 S
C44 C43 1.338 . S
C44 H48 0.931 1_545 S
C45 N42 1.313 1_545 S
C45 N46 1.344 . S
C45 H49 0.930 . S
N46 C43 1.377 . S
N46 C45 1.344 . S
O47 Co39 2.055 . S
O47 C51 1.253 . S
H48 C44 0.931 1_565 S
H49 C45 0.930 . S
O50 Co39 2.039 . S
O50 C40 1.265 . S
C51 O47 1.253 . S
C51 O52 1.227 . S
O52 C51 1.227 . S
N53 Co39 2.140 . S
N53 C56 1.346 . S
N53 C57 1.345 . S
C54 C55 1.387 . S
C54 C58 1.391 . S
C55 C54 1.387 . S
C55 C56 1.369 . S
C55 H64 0.929 . S
C56 N53 1.346 . S
C56 C55 1.369 . S
C56 H59 0.928 . S
C57 N53 1.345 . S
C57 C58 1.371 . S
C57 H60 0.931 . S
C58 C54 1.391 . S
C58 C57 1.371 . S
C58 H65 0.930 1_565 S
H59 C56 0.928 . S
H60 C57 0.931 . S
H61 C37 0.930 . S
H62 C34 0.930 . S
H63 C43 0.930 . S
H64 C55 0.929 . S
H65 C58 0.930 1_545 S
C66 C67 1.351 . S
C66 N69 1.368 . S
C66 H71 0.931 . S
C67 C66 1.351 . S
C67 N68 1.373 . S
C67 H95 0.930 . S
N68 C67 1.373 . S
N68 C70 1.340 . S
N69 C66 1.368 . S
N69 C70 1.321 . S
N69 Co72 2.135 . S
C70 N68 1.340 . S
C70 N69 1.321 . S
C70 H94 0.930 . S
H71 C66 0.931 . S
Co72 N69 2.135 . S
Co72 N75 2.121 . S
Co72 O80 2.055 . S
Co72 O83 2.039 . S
Co72 N86 2.140 . S
C73 O74 1.227 . S
C73 O83 1.265 . S
O74 C73 1.227 . S
N75 Co72 2.121 . S
N75 C77 1.375 . S
N75 C78 1.313 . S
C76 C77 1.338 . S
C76 N79 1.377 . S
C76 H96 0.930 . S
C77 N75 1.375 . S
C77 C76 1.338 . S
C77 H81 0.931 . S
C78 N75 1.313 . S
C78 N79 1.344 . S
C78 H82 0.930 . S
N79 C76 1.377 . S
N79 C78 1.344 . S
O80 Co72 2.055 . S
O80 C84 1.253 . S
H81 C77 0.931 . S
H82 C78 0.930 . S
O83 Co72 2.039 . S
O83 C73 1.265 . S
C84 O80 1.253 . S
C84 O85 1.227 . S
O85 C84 1.227 . S
N86 Co72 2.140 . S
N86 C89 1.346 . S
N86 C90 1.345 . S
C87 C88 1.387 . S
C87 C91 1.391 . S
C88 C87 1.387 . S
C88 C89 1.369 . S
C88 H97 0.929 . S
C89 N86 1.346 . S
C89 C88 1.369 . S
C89 H92 0.928 . S
C90 N86 1.345 . S
C90 C91 1.371 . S
C90 H93 0.931 . S
C91 C87 1.391 . S
C91 C90 1.371 . S
C91 H98 0.930 . S
H92 C89 0.928 . S
H93 C90 0.931 . S
H94 C70 0.930 . S
H95 C67 0.930 . S
H96 C76 0.930 . S
H97 C88 0.929 . S
H98 C91 0.930 . S
C99 C100 1.351 . S
C99 N102 1.368 . S
C99 H104 0.931 . S
C100 C99 1.351 . S
C100 N101 1.373 . S
C100 H128 0.930 . S
N101 C100 1.373 . S
N101 C103 1.340 . S
N102 C99 1.368 . S
N102 C103 1.321 . S
N102 Co105 2.135 . S
C103 N101 1.340 . S
C103 N102 1.321 . S
C103 H127 0.930 . S
H104 C99 0.931 . S
Co105 N102 2.135 . S
Co105 N108 2.121 . S
Co105 O113 2.055 . S
Co105 O116 2.039 . S
Co105 N119 2.140 . S
C106 O107 1.227 . S
C106 O116 1.265 . S
O107 C106 1.227 . S
N108 Co105 2.121 . S
N108 C110 1.375 . S
N108 C111 1.313 . S
C109 C110 1.338 . S
C109 N112 1.377 . S
C109 H129 0.930 . S
C110 N108 1.375 . S
C110 C109 1.338 . S
C110 H114 0.931 . S
C111 N108 1.313 . S
C111 N112 1.344 . S
C111 H115 0.930 . S
N112 C109 1.377 . S
N112 C111 1.344 . S
O113 Co105 2.055 . S
O113 C117 1.253 . S
H114 C110 0.931 . S
H115 C111 0.930 . S
O116 Co105 2.039 . S
O116 C106 1.265 . S
C117 O113 1.253 . S
C117 O118 1.227 . S
O118 C117 1.227 . S
N119 Co105 2.140 . S
N119 C122 1.346 . S
N119 C123 1.345 . S
C120 C121 1.387 . S
C120 C124 1.391 . S
C121 C120 1.387 . S
C121 C122 1.369 . S
C121 H130 0.929 . S
C122 N119 1.346 . S
C122 C121 1.369 . S
C122 H125 0.928 . S
C123 N119 1.345 . S
C123 C124 1.371 . S
C123 H126 0.931 . S
C124 C120 1.391 . S
C124 C123 1.371 . S
C124 H131 0.930 . S
H125 C122 0.928 . S
H126 C123 0.931 . S
H127 C103 0.930 . S
H128 C100 0.930 . S
H129 C109 0.930 . S
H130 C121 0.929 . S
H131 C124 0.930 . S
C132 C133 1.351 . S
C132 N135 1.368 . S
C132 H137 0.931 . S
C133 C132 1.351 . S
C133 N134 1.373 . S
C133 H161 0.930 . S
N134 C133 1.373 . S
N134 C136 1.340 . S
N135 C132 1.368 . S
N135 C136 1.321 . S
N135 Co138 2.135 . S
C136 N134 1.340 . S
C136 N135 1.321 . S
C136 H160 0.930 . S
H137 C132 0.931 . S
Co138 N135 2.135 . S
Co138 N141 2.122 . S
Co138 O146 2.055 . S
Co138 O149 2.039 . S
Co138 N152 2.140 . S
C139 O140 1.227 . S
C139 O149 1.265 . S
O140 C139 1.227 . S
N141 Co138 2.122 . S
N141 C143 1.375 1_565 S
N141 C144 1.312 1_565 S
C142 C143 1.338 . S
C142 N145 1.377 . S
C142 H162 0.930 . S
C143 N141 1.375 1_545 S
C143 C142 1.338 . S
C143 H147 0.931 1_545 S
C144 N141 1.312 1_545 S
C144 N145 1.344 . S
C144 H148 0.930 . S
N145 C142 1.377 . S
N145 C144 1.344 . S
O146 Co138 2.055 . S
O146 C150 1.253 . S
H147 C143 0.931 1_565 S
H148 C144 0.930 . S
O149 Co138 2.039 . S
O149 C139 1.265 . S
C150 O146 1.253 . S
C150 O151 1.227 . S
O151 C150 1.227 . S
N152 Co138 2.140 . S
N152 C155 1.346 . S
N152 C156 1.345 . S
C153 C154 1.387 . S
C153 C157 1.391 . S
C154 C153 1.387 . S
C154 C155 1.369 . S
C154 H163 0.929 . S
C155 N152 1.346 . S
C155 C154 1.369 . S
C155 H158 0.928 . S
C156 N152 1.345 . S
C156 C157 1.371 . S
C156 H159 0.931 . S
C157 C153 1.391 . S
C157 C156 1.371 . S
C157 H164 0.930 1_565 S
H158 C155 0.928 . S
H159 C156 0.931 . S
H160 C136 0.930 . S
H161 C133 0.930 . S
H162 C142 0.930 . S
H163 C154 0.929 . S
H164 C157 0.930 1_545 S
C165 C166 1.351 . S
C165 N168 1.368 . S
C165 H170 0.931 . S
C166 C165 1.351 . S
C166 N167 1.373 . S
C166 H194 0.930 . S
N167 C166 1.373 . S
N167 C169 1.340 . S
N168 C165 1.368 . S
N168 C169 1.321 . S
N168 Co171 2.135 . S
C169 N167 1.340 . S
C169 N168 1.321 . S
C169 H193 0.930 . S
H170 C165 0.931 . S
Co171 N168 2.135 . S
Co171 N174 2.122 . S
Co171 O179 2.055 . S
Co171 O182 2.039 . S
Co171 N185 2.140 . S
C172 O173 1.227 . S
C172 O182 1.265 . S
O173 C172 1.227 . S
N174 Co171 2.122 . S
N174 C176 1.375 1_545 S
N174 C177 1.313 1_545 S
C175 C176 1.338 . S
C175 N178 1.377 . S
C175 H195 0.930 . S
C176 N174 1.375 1_565 S
C176 C175 1.338 . S
C176 H180 0.931 1_565 S
C177 N174 1.313 1_565 S
C177 N178 1.344 . S
C177 H181 0.930 . S
N178 C175 1.377 . S
N178 C177 1.344 . S
O179 Co171 2.055 . S
O179 C183 1.253 . S
H180 C176 0.931 1_545 S
H181 C177 0.930 . S
O182 Co171 2.039 . S
O182 C172 1.265 . S
C183 O179 1.253 . S
C183 O184 1.227 . S
O184 C183 1.227 . S
N185 Co171 2.140 . S
N185 C188 1.346 . S
N185 C189 1.345 . S
C186 C187 1.387 . S
C186 C190 1.391 . S
C187 C186 1.387 . S
C187 C188 1.369 . S
C187 H196 0.929 . S
C188 N185 1.346 . S
C188 C187 1.369 . S
C188 H191 0.928 . S
C189 N185 1.345 . S
C189 C190 1.371 . S
C189 H192 0.931 . S
C190 C186 1.391 . S
C190 C189 1.371 . S
C190 H197 0.930 1_545 S
H191 C188 0.928 . S
H192 C189 0.931 . S
H193 C169 0.930 . S
H194 C166 0.930 . S
H195 C175 0.930 . S
H196 C187 0.929 . S
H197 C190 0.930 1_565 S
C198 C199 1.351 . S
C198 N201 1.368 . S
C198 H203 0.931 . S
C199 C198 1.351 . S
C199 N200 1.373 . S
C199 H227 0.930 . S
N200 C199 1.373 . S
N200 C202 1.340 . S
N201 C198 1.368 . S
N201 C202 1.321 . S
N201 Co204 2.135 . S
C202 N200 1.340 . S
C202 N201 1.321 . S
C202 H226 0.930 . S
H203 C198 0.931 . S
Co204 N201 2.135 . S
Co204 N207 2.121 . S
Co204 O212 2.055 . S
Co204 O215 2.039 . S
Co204 N218 2.140 . S
C205 O206 1.227 . S
C205 O215 1.265 . S
O206 C205 1.227 . S
N207 Co204 2.121 . S
N207 C209 1.375 . S
N207 C210 1.313 . S
C208 C209 1.338 . S
C208 N211 1.377 . S
C208 H228 0.930 . S
C209 N207 1.375 . S
C209 C208 1.338 . S
C209 H213 0.931 . S
C210 N207 1.313 . S
C210 N211 1.344 . S
C210 H214 0.930 . S
N211 C208 1.377 . S
N211 C210 1.344 . S
O212 Co204 2.055 . S
O212 C216 1.253 . S
H213 C209 0.931 . S
H214 C210 0.930 . S
O215 Co204 2.039 . S
O215 C205 1.265 . S
C216 O212 1.253 . S
C216 O217 1.227 . S
O217 C216 1.227 . S
N218 Co204 2.140 . S
N218 C221 1.346 . S
N218 C222 1.345 . S
C219 C220 1.387 . S
C219 C223 1.391 . S
C220 C219 1.387 . S
C220 C221 1.369 . S
C220 H229 0.929 . S
C221 N218 1.346 . S
C221 C220 1.369 . S
C221 H224 0.928 . S
C222 N218 1.345 . S
C222 C223 1.371 . S
C222 H225 0.931 . S
C223 C219 1.391 . S
C223 C222 1.371 . S
C223 H230 0.930 . S
H224 C221 0.928 . S
H225 C222 0.931 . S
H226 C202 0.930 . S
H227 C199 0.930 . S
H228 C208 0.930 . S
H229 C220 0.929 . S
H230 C223 0.930 . S
C231 C232 1.351 . S
C231 N234 1.368 . S
C231 H236 0.931 . S
C232 C231 1.351 . S
C232 N233 1.373 . S
C232 H260 0.930 . S
N233 C232 1.373 . S
N233 C235 1.340 . S
N234 C231 1.368 . S
N234 C235 1.321 . S
N234 Co237 2.135 . S
C235 N233 1.340 . S
C235 N234 1.321 . S
C235 H259 0.930 . S
H236 C231 0.931 . S
Co237 N234 2.135 . S
Co237 N240 2.121 . S
Co237 O245 2.055 . S
Co237 O248 2.039 . S
Co237 N251 2.140 . S
C238 O239 1.227 . S
C238 O248 1.265 . S
O239 C238 1.227 . S
N240 Co237 2.121 . S
N240 C242 1.375 . S
N240 C243 1.313 . S
C241 C242 1.338 . S
C241 N244 1.377 . S
C241 H261 0.930 . S
C242 N240 1.375 . S
C242 C241 1.338 . S
C242 H246 0.931 . S
C243 N240 1.313 . S
C243 N244 1.344 . S
C243 H247 0.930 . S
N244 C241 1.377 . S
N244 C243 1.344 . S
O245 Co237 2.055 . S
O245 C249 1.253 . S
H246 C242 0.931 . S
H247 C243 0.930 . S
O248 Co237 2.039 . S
O248 C238 1.265 . S
C249 O245 1.253 . S
C249 O250 1.227 . S
O250 C249 1.227 . S
N251 Co237 2.140 . S
N251 C254 1.346 . S
N251 C255 1.345 . S
C252 C253 1.387 . S
C252 C256 1.391 . S
C253 C252 1.387 . S
C253 C254 1.369 . S
C253 H262 0.929 . S
C254 N251 1.346 . S
C254 C253 1.369 . S
C254 H257 0.928 . S
C255 N251 1.345 . S
C255 C256 1.371 . S
C255 H258 0.931 . S
C256 C252 1.391 . S
C256 C255 1.371 . S
C256 H263 0.930 . S
H257 C254 0.928 . S
H258 C255 0.931 . S
H259 C235 0.930 . S
H260 C232 0.930 . S
H261 C241 0.930 . S
H262 C253 0.929 . S
H263 C256 0.930 . S
C264 C265 1.349 . S
C264 C266 1.327 . S
C264 H289 0.950 . S
C265 C264 1.349 . S
C265 C281 1.349 . S
C266 C264 1.327 . S
C266 C285 1.429 . S
C266 H290 0.950 . S
C267 C284 1.574 . S
C267 C286 1.368 1_565 S
C267 H291 0.949 . S
H268 C272 0.949 . S
C269 C270 1.349 . S
C269 C271 1.327 . S
C269 H292 0.950 . S
C270 C269 1.349 . S
C270 C282 1.349 . S
C271 C269 1.327 . S
C271 C287 1.429 . S
C271 H293 0.950 . S
C272 H268 0.949 . S
C272 C280 1.574 . S
C272 C288 1.368 1_545 S
H273 C281 0.950 . S
H274 C279 0.950 1_565 S
H275 C280 0.949 . S
H276 C282 0.950 . S
H277 C283 0.950 1_545 S
H278 C284 0.949 . S
C279 H274 0.950 1_545 S
C279 C281 1.327 . S
C279 C285 1.429 . S
C280 C272 1.574 . S
C280 H275 0.949 . S
C280 C286 1.368 . S
C281 C265 1.349 . S
C281 H273 0.950 . S
C281 C279 1.327 . S
C282 C270 1.349 . S
C282 H276 0.950 . S
C282 C283 1.327 . S
C283 H277 0.950 1_565 S
C283 C282 1.327 . S
C283 C287 1.429 . S
C284 C267 1.574 . S
C284 H278 0.949 . S
C284 C288 1.368 . S
C285 C266 1.429 . S
C285 C279 1.429 . S
C285 C286 1.523 . S
C286 C267 1.368 1_545 S
C286 C280 1.368 . S
C286 C285 1.523 . S
C287 C271 1.429 . S
C287 C283 1.429 . S
C287 C288 1.523 . S
C288 C272 1.368 1_565 S
C288 C284 1.368 . S
C288 C287 1.523 . S
H289 C264 0.950 . S
H290 C266 0.950 . S
H291 C267 0.949 . S
H292 C269 0.950 . S
H293 C271 0.950 . S
C294 C295 1.349 . S
C294 C296 1.327 . S
C294 H319 0.950 . S
C295 C294 1.349 . S
C295 C311 1.349 . S
C296 C294 1.327 . S
C296 C315 1.429 . S
C296 H320 0.950 . S
C297 C314 1.574 . S
C297 C316 1.368 . S
C297 H321 0.949 . S
H298 C302 0.949 . S
C299 C300 1.349 . S
C299 C301 1.327 . S
C299 H322 0.950 . S
C300 C299 1.349 . S
C300 C312 1.349 . S
C301 C299 1.327 . S
C301 C317 1.429 . S
C301 H323 0.950 . S
C302 H298 0.949 . S
C302 C310 1.574 . S
C302 C318 1.368 . S
H303 C311 0.950 . S
H304 C309 0.950 . S
H305 C310 0.949 . S
H306 C312 0.950 . S
H307 C313 0.950 . S
H308 C314 0.949 . S
C309 H304 0.950 . S
C309 C311 1.327 . S
C309 C315 1.429 . S
C310 C302 1.574 . S
C310 H305 0.949 . S
C310 C316 1.368 . S
C311 C295 1.349 . S
C311 H303 0.950 . S
C311 C309 1.327 . S
C312 C300 1.349 . S
C312 H306 0.950 . S
C312 C313 1.327 . S
C313 H307 0.950 . S
C313 C312 1.327 . S
C313 C317 1.429 . S
C314 C297 1.574 . S
C314 H308 0.949 . S
C314 C318 1.368 . S
C315 C296 1.429 . S
C315 C309 1.429 . S
C315 C316 1.523 . S
C316 C297 1.368 . S
C316 C310 1.368 . S
C316 C315 1.523 . S
C317 C301 1.429 . S
C317 C313 1.429 . S
C317 C318 1.523 . S
C318 C302 1.368 . S
C318 C314 1.368 . S
C318 C317 1.523 . S
H319 C294 0.950 . S
H320 C296 0.950 . S
H321 C297 0.949 . S
H322 C299 0.950 . S
H323 C301 0.950 . S
C324 C325 1.349 . S
C324 C326 1.327 . S
C324 H349 0.950 . S
C325 C324 1.349 . S
C325 C341 1.349 . S
C326 C324 1.327 . S
C326 C345 1.429 . S
C326 H350 0.950 . S
C327 C344 1.574 . S
C327 C346 1.368 1_545 S
C327 H351 0.949 . S
H328 C332 0.949 . S
C329 C330 1.349 . S
C329 C331 1.327 . S
C329 H352 0.950 . S
C330 C329 1.349 . S
C330 C342 1.349 . S
C331 C329 1.327 . S
C331 C347 1.429 . S
C331 H353 0.950 . S
C332 H328 0.949 . S
C332 C340 1.574 . S
C332 C348 1.368 1_565 S
H333 C341 0.950 . S
H334 C339 0.950 1_545 S
H335 C340 0.949 . S
H336 C342 0.950 . S
H337 C343 0.950 1_565 S
H338 C344 0.949 . S
C339 H334 0.950 1_565 S
C339 C341 1.327 . S
C339 C345 1.429 . S
C340 C332 1.574 . S
C340 H335 0.949 . S
C340 C346 1.368 . S
C341 C325 1.349 . S
C341 H333 0.950 . S
C341 C339 1.327 . S
C342 C330 1.349 . S
C342 H336 0.950 . S
C342 C343 1.327 . S
C343 H337 0.950 1_545 S
C343 C342 1.327 . S
C343 C347 1.429 . S
C344 C327 1.574 . S
C344 H338 0.949 . S
C344 C348 1.368 . S
C345 C326 1.429 . S
C345 C339 1.429 . S
C345 C346 1.523 . S
C346 C327 1.368 1_565 S
C346 C340 1.368 . S
C346 C345 1.523 . S
C347 C331 1.429 . S
C347 C343 1.429 . S
C347 C348 1.523 . S
C348 C332 1.368 1_545 S
C348 C344 1.368 . S
C348 C347 1.523 . S
H349 C324 0.950 . S
H350 C326 0.950 . S
H351 C327 0.949 . S
H352 C329 0.950 . S
H353 C331 0.950 . S
C354 C355 1.349 . S
C354 C356 1.327 . S
C354 H379 0.950 . S
C355 C354 1.349 . S
C355 C371 1.349 . S
C356 C354 1.327 . S
C356 C375 1.429 . S
C356 H380 0.950 . S
C357 C374 1.574 . S
C357 C376 1.368 . S
C357 H381 0.949 . S
H358 C362 0.949 . S
C359 C360 1.349 . S
C359 C361 1.327 . S
C359 H382 0.950 . S
C360 C359 1.349 . S
C360 C372 1.349 . S
C361 C359 1.327 . S
C361 C377 1.429 . S
C361 H383 0.950 . S
C362 H358 0.949 . S
C362 C370 1.574 . S
C362 C378 1.368 . S
H363 C371 0.950 . S
H364 C369 0.950 . S
H365 C370 0.949 . S
H366 C372 0.950 . S
H367 C373 0.950 . S
H368 C374 0.949 . S
C369 H364 0.950 . S
C369 C371 1.327 . S
C369 C375 1.429 . S
C370 C362 1.574 . S
C370 H365 0.949 . S
C370 C376 1.368 . S
C371 C355 1.349 . S
C371 H363 0.950 . S
C371 C369 1.327 . S
C372 C360 1.349 . S
C372 H366 0.950 . S
C372 C373 1.327 . S
C373 H367 0.950 . S
C373 C372 1.327 . S
C373 C377 1.429 . S
C374 C357 1.574 . S
C374 H368 0.949 . S
C374 C378 1.368 . S
C375 C356 1.429 . S
C375 C369 1.429 . S
C375 C376 1.523 . S
C376 C357 1.368 . S
C376 C370 1.368 . S
C376 C375 1.523 . S
C377 C361 1.429 . S
C377 C373 1.429 . S
C377 C378 1.523 . S
C378 C362 1.368 . S
C378 C374 1.368 . S
C378 C377 1.523 . S
H379 C354 0.950 . S
H380 C356 0.950 . S
H381 C357 0.949 . S
H382 C359 0.950 . S
H383 C361 0.950 . S
C384 C385 1.349 . S
C384 C386 1.327 1_545 S
C384 H409 0.950 1_545 S
C385 C384 1.349 . S
C385 C401 1.349 . S
C386 C384 1.327 1_565 S
C386 C405 1.429 1_565 S
C386 H410 0.950 . S
C387 C404 1.574 1_455 S
C387 C406 1.368 1_556 S
C387 H411 0.949 . S
H388 C392 0.949 . S
C389 C390 1.349 . S
C389 C391 1.327 1_565 S
C389 H412 0.950 1_565 S
C390 C389 1.349 . S
C390 C402 1.349 . S
C391 C389 1.327 1_545 S
C391 C407 1.429 1_545 S
C391 H413 0.950 . S
C392 H388 0.949 . S
C392 C400 1.574 1_655 S
C392 C408 1.368 1_554 S
H393 C401 0.950 . S
H394 C399 0.950 . S
H395 C400 0.949 . S
H396 C402 0.950 . S
H397 C403 0.950 . S
H398 C404 0.949 . S
C399 H394 0.950 . S
C399 C401 1.327 . S
C399 C405 1.429 . S
C400 C392 1.574 1_455 S
C400 H395 0.949 . S
C400 C406 1.368 1_565 S
C401 C385 1.349 . S
C401 H393 0.950 . S
C401 C399 1.327 . S
C402 C390 1.349 . S
C402 H396 0.950 . S
C402 C403 1.327 . S
C403 H397 0.950 . S
C403 C402 1.327 . S
C403 C407 1.429 . S
C404 C387 1.574 1_655 S
C404 H398 0.949 . S
C404 C408 1.368 1_545 S
C405 C386 1.429 1_545 S
C405 C399 1.429 . S
C405 C406 1.523 . S
C406 C387 1.368 1_554 S
C406 C400 1.368 1_545 S
C406 C405 1.523 . S
C407 C391 1.429 1_565 S
C407 C403 1.429 . S
C407 C408 1.523 . S
C408 C392 1.368 1_556 S
C408 C404 1.368 1_565 S
C408 C407 1.523 . S
H409 C384 0.950 1_565 S
H410 C386 0.950 . S
H411 C387 0.949 . S
H412 C389 0.950 1_545 S
H413 C391 0.950 . S
C414 C415 1.349 . S
C414 C416 1.327 1_565 S
C414 H439 0.950 1_565 S
C415 C414 1.349 . S
C415 C431 1.349 . S
C416 C414 1.327 1_545 S
C416 C435 1.429 1_545 S
C416 H440 0.950 . S
C417 C434 1.574 . S
C417 C436 1.368 1_556 S
C417 H441 0.949 . S
H418 C422 0.949 . S
C419 C420 1.349 . S
C419 C421 1.327 1_545 S
C419 H442 0.950 1_545 S
C420 C419 1.349 . S
C420 C432 1.349 . S
C421 C419 1.327 1_565 S
C421 C437 1.429 1_565 S
C421 H443 0.950 . S
C422 H418 0.949 . S
C422 C430 1.574 . S
C422 C438 1.368 1_554 S
H423 C431 0.950 . S
H424 C429 0.950 . S
H425 C430 0.949 . S
H426 C432 0.950 . S
H427 C433 0.950 . S
H428 C434 0.949 . S
C429 H424 0.950 . S
C429 C431 1.327 . S
C429 C435 1.429 . S
C430 C422 1.574 . S
C430 H425 0.949 . S
C430 C436 1.368 1_545 S
C431 C415 1.349 . S
C431 H423 0.950 . S
C431 C429 1.327 . S
C432 C420 1.349 . S
C432 H426 0.950 . S
C432 C433 1.327 . S
C433 H427 0.950 . S
C433 C432 1.327 . S
C433 C437 1.429 . S
C434 C417 1.574 . S
C434 H428 0.949 . S
C434 C438 1.368 1_565 S
C435 C416 1.429 1_565 S
C435 C429 1.429 . S
C435 C436 1.523 . S
C436 C417 1.368 1_554 S
C436 C430 1.368 1_565 S
C436 C435 1.523 . S
C437 C421 1.429 1_545 S
C437 C433 1.429 . S
C437 C438 1.523 . S
C438 C422 1.368 1_556 S
C438 C434 1.368 1_545 S
C438 C437 1.523 . S
H439 C414 0.950 1_545 S
H440 C416 0.950 . S
H441 C417 0.949 . S
H442 C419 0.950 1_565 S
H443 C421 0.950 . S
C444 C445 1.349 . S
C444 C446 1.327 . S
C444 H469 0.950 . S
C445 C444 1.349 . S
C445 C461 1.349 . S
C446 C444 1.327 . S
C446 C465 1.429 . S
C446 H470 0.950 . S
C447 C464 1.571 1_455 S
C447 C466 1.370 . S
C447 H471 0.949 . S
H448 C452 0.949 . S
C449 C450 1.349 . S
C449 C451 1.327 . S
C449 H472 0.950 . S
C450 C449 1.349 . S
C450 C462 1.349 . S
C451 C449 1.327 . S
C451 C467 1.429 . S
C451 H473 0.950 . S
C452 H448 0.949 . S
C452 C460 1.571 1_655 S
C452 C468 1.370 . S
H453 C461 0.950 . S
H454 C459 0.950 . S
H455 C460 0.949 . S
H456 C462 0.950 . S
H457 C463 0.950 . S
H458 C464 0.949 . S
C459 H454 0.950 . S
C459 C461 1.327 . S
C459 C465 1.429 . S
C460 C452 1.571 1_455 S
C460 H455 0.949 . S
C460 C466 1.368 . S
C461 C445 1.349 . S
C461 H453 0.950 . S
C461 C459 1.327 . S
C462 C450 1.349 . S
C462 H456 0.950 . S
C462 C463 1.327 . S
C463 H457 0.950 . S
C463 C462 1.327 . S
C463 C467 1.429 . S
C464 C447 1.571 1_655 S
C464 H458 0.949 . S
C464 C468 1.368 . S
C465 C446 1.429 . S
C465 C459 1.429 . S
C465 C466 1.523 . S
C466 C447 1.370 . S
C466 C460 1.368 . S
C466 C465 1.523 . S
C467 C451 1.429 . S
C467 C463 1.429 . S
C467 C468 1.523 . S
C468 C452 1.370 . S
C468 C464 1.368 . S
C468 C467 1.523 . S
H469 C444 0.950 . S
H470 C446 0.950 . S
H471 C447 0.949 . S
H472 C449 0.950 . S
H473 C451 0.950 . S
C474 C475 1.349 . S
C474 C476 1.327 . S
C474 H499 0.950 . S
C475 C474 1.349 . S
C475 C491 1.349 . S
C476 C474 1.327 . S
C476 C495 1.429 . S
C476 H500 0.950 . S
C477 C494 1.574 . S
C477 C496 1.368 . S
C477 H501 0.949 . S
H478 C482 0.949 . S
C479 C480 1.349 . S
C479 C481 1.327 . S
C479 H502 0.950 . S
C480 C479 1.349 . S
C480 C492 1.349 . S
C481 C479 1.327 . S
C481 C497 1.429 . S
C481 H503 0.950 . S
C482 H478 0.949 . S
C482 C490 1.574 . S
C482 C498 1.368 . S
H483 C491 0.950 . S
H484 C489 0.950 . S
H485 C490 0.949 . S
H486 C492 0.950 . S
H487 C493 0.950 . S
H488 C494 0.949 . S
C489 H484 0.950 . S
C489 C491 1.327 . S
C489 C495 1.429 . S
C490 C482 1.574 . S
C490 H485 0.949 . S
C490 C496 1.368 . S
C491 C475 1.349 . S
C491 H483 0.950 . S
C491 C489 1.327 . S
C492 C480 1.349 . S
C492 H486 0.950 . S
C492 C493 1.327 . S
C493 H487 0.950 . S
C493 C492 1.327 . S
C493 C497 1.429 . S
C494 C477 1.574 . S
C494 H488 0.949 . S
C494 C498 1.368 . S
C495 C476 1.429 . S
C495 C489 1.429 . S
C495 C496 1.523 . S
C496 C477 1.368 . S
C496 C490 1.368 . S
C496 C495 1.523 . S
C497 C481 1.429 . S
C497 C493 1.429 . S
C497 C498 1.523 . S
C498 C482 1.368 . S
C498 C494 1.368 . S
C498 C497 1.523 . S
H499 C474 0.950 . S
H500 C476 0.950 . S
H501 C477 0.949 . S
H502 C479 0.950 . S
H503 C481 0.950 . S
C504 C505 1.349 . S
C504 C506 1.327 . S
C504 H529 0.950 . S
C505 C504 1.349 . S
C505 C521 1.349 . S
C506 C504 1.327 . S
C506 C525 1.429 . S
C506 H530 0.950 . S
C507 C524 1.574 . S
C507 C526 1.368 . S
C507 H531 0.949 . S
H508 C512 0.949 . S
C509 C510 1.349 . S
C509 C511 1.327 . S
C509 H532 0.950 . S
C510 C509 1.349 . S
C510 C522 1.349 . S
C511 C509 1.327 . S
C511 C527 1.429 . S
C511 H533 0.950 . S
C512 H508 0.949 . S
C512 C520 1.574 . S
C512 C528 1.368 . S
H513 C521 0.950 . S
H514 C519 0.950 . S
H515 C520 0.949 . S
H516 C522 0.950 . S
H517 C523 0.950 . S
H518 C524 0.949 . S
C519 H514 0.950 . S
C519 C521 1.327 . S
C519 C525 1.429 . S
C520 C512 1.574 . S
C520 H515 0.949 . S
C520 C526 1.368 . S
C521 C505 1.349 . S
C521 H513 0.950 . S
C521 C519 1.327 . S
C522 C510 1.349 . S
C522 H516 0.950 . S
C522 C523 1.327 . S
C523 H517 0.950 . S
C523 C522 1.327 . S
C523 C527 1.429 . S
C524 C507 1.574 . S
C524 H518 0.949 . S
C524 C528 1.368 . S
C525 C506 1.429 . S
C525 C519 1.429 . S
C525 C526 1.523 . S
C526 C507 1.368 . S
C526 C520 1.368 . S
C526 C525 1.523 . S
C527 C511 1.429 . S
C527 C523 1.429 . S
C527 C528 1.523 . S
C528 C512 1.368 . S
C528 C524 1.368 . S
C528 C527 1.523 . S
H529 C504 0.950 . S
H530 C506 0.950 . S
H531 C507 0.949 . S
H532 C509 0.950 . S
H533 C511 0.950 . S
C534 C535 1.349 . S
C534 C536 1.327 . S
C534 H559 0.950 . S
C535 C534 1.349 . S
C535 C551 1.349 . S
C536 C534 1.327 . S
C536 C555 1.429 . S
C536 H560 0.950 . S
C537 C554 1.574 . S
C537 C556 1.368 . S
C537 H561 0.949 . S
H538 C542 0.949 . S
C539 C540 1.349 . S
C539 C541 1.327 . S
C539 H562 0.950 . S
C540 C539 1.349 . S
C540 C552 1.349 . S
C541 C539 1.327 . S
C541 C557 1.429 . S
C541 H563 0.950 . S
C542 H538 0.949 . S
C542 C550 1.574 . S
C542 C558 1.368 . S
H543 C551 0.950 . S
H544 C549 0.950 . S
H545 C550 0.949 . S
H546 C552 0.950 . S
H547 C553 0.950 . S
H548 C554 0.949 . S
C549 H544 0.950 . S
C549 C551 1.327 . S
C549 C555 1.429 . S
C550 C542 1.574 . S
C550 H545 0.949 . S
C550 C556 1.368 . S
C551 C535 1.349 . S
C551 H543 0.950 . S
C551 C549 1.327 . S
C552 C540 1.349 . S
C552 H546 0.950 . S
C552 C553 1.327 . S
C553 H547 0.950 . S
C553 C552 1.327 . S
C553 C557 1.429 . S
C554 C537 1.574 . S
C554 H548 0.949 . S
C554 C558 1.368 . S
C555 C536 1.429 . S
C555 C549 1.429 . S
C555 C556 1.523 . S
C556 C537 1.368 . S
C556 C550 1.368 . S
C556 C555 1.523 . S
C557 C541 1.429 . S
C557 C553 1.429 . S
C557 C558 1.523 . S
C558 C542 1.368 . S
C558 C554 1.368 . S
C558 C557 1.523 . S
H559 C534 0.950 . S
H560 C536 0.950 . S
H561 C537 0.949 . S
H562 C539 0.950 . S
H563 C541 0.950 . S
C564 C565 1.349 . S
C564 C566 1.327 . S
C564 H589 0.950 . S
C565 C564 1.349 . S
C565 C581 1.349 . S
C566 C564 1.327 . S
C566 C585 1.429 . S
C566 H590 0.950 . S
C567 C584 1.574 . S
C567 C586 1.368 . S
C567 H591 0.949 . S
H568 C572 0.949 . S
C569 C570 1.349 . S
C569 C571 1.327 . S
C569 H592 0.950 . S
C570 C569 1.349 . S
C570 C582 1.349 . S
C571 C569 1.327 . S
C571 C587 1.429 . S
C571 H593 0.950 . S
C572 H568 0.949 . S
C572 C580 1.574 . S
C572 C588 1.368 . S
H573 C581 0.950 . S
H574 C579 0.950 . S
H575 C580 0.949 . S
H576 C582 0.950 . S
H577 C583 0.950 . S
H578 C584 0.949 . S
C579 H574 0.950 . S
C579 C581 1.327 . S
C579 C585 1.429 . S
C580 C572 1.574 . S
C580 H575 0.949 . S
C580 C586 1.368 . S
C581 C565 1.349 . S
C581 H573 0.950 . S
C581 C579 1.327 . S
C582 C570 1.349 . S
C582 H576 0.950 . S
C582 C583 1.327 . S
C583 H577 0.950 . S
C583 C582 1.327 . S
C583 C587 1.429 . S
C584 C567 1.574 . S
C584 H578 0.949 . S
C584 C588 1.368 . S
C585 C566 1.429 . S
C585 C579 1.429 . S
C585 C586 1.523 . S
C586 C567 1.368 . S
C586 C580 1.368 . S
C586 C585 1.523 . S
C587 C571 1.429 . S
C587 C583 1.429 . S
C587 C588 1.523 . S
C588 C572 1.368 . S
C588 C584 1.368 . S
C588 C587 1.523 . S
H589 C564 0.950 . S
H590 C566 0.950 . S
H591 C567 0.949 . S
H592 C569 0.950 . S
H593 C571 0.950 . S
C594 C595 1.349 . S
C594 C596 1.327 . S
C594 H619 0.950 . S
C595 C594 1.349 . S
C595 C611 1.349 . S
C596 C594 1.327 . S
C596 C615 1.429 . S
C596 H620 0.950 . S
C597 C614 1.574 . S
C597 C616 1.368 . S
C597 H621 0.949 . S
H598 C602 0.949 . S
C599 C600 1.349 . S
C599 C601 1.327 . S
C599 H622 0.950 . S
C600 C599 1.349 . S
C600 C612 1.349 . S
C601 C599 1.327 . S
C601 C617 1.429 . S
C601 H623 0.950 . S
C602 H598 0.949 . S
C602 C610 1.574 . S
C602 C618 1.368 . S
H603 C611 0.950 . S
H604 C609 0.950 . S
H605 C610 0.949 . S
H606 C612 0.950 . S
H607 C613 0.950 . S
H608 C614 0.949 . S
C609 H604 0.950 . S
C609 C611 1.327 . S
C609 C615 1.429 . S
C610 C602 1.574 . S
C610 H605 0.949 . S
C610 C616 1.368 . S
C611 C595 1.349 . S
C611 H603 0.950 . S
C611 C609 1.327 . S
C612 C600 1.349 . S
C612 H606 0.950 . S
C612 C613 1.327 . S
C613 H607 0.950 . S
C613 C612 1.327 . S
C613 C617 1.429 . S
C614 C597 1.574 . S
C614 H608 0.949 . S
C614 C618 1.368 . S
C615 C596 1.429 . S
C615 C609 1.429 . S
C615 C616 1.523 . S
C616 C597 1.368 . S
C616 C610 1.368 . S
C616 C615 1.523 . S
C617 C601 1.429 . S
C617 C613 1.429 . S
C617 C618 1.523 . S
C618 C602 1.368 . S
C618 C614 1.368 . S
C618 C617 1.523 . S
H619 C594 0.950 . S
H620 C596 0.950 . S
H621 C597 0.949 . S
H622 C599 0.950 . S
H623 C601 0.950 . S
C624 C625 1.349 . S
C624 C626 1.327 . S
C624 H649 0.950 . S
C625 C624 1.349 . S
C625 C641 1.349 . S
C626 C624 1.327 . S
C626 C645 1.429 . S
C626 H650 0.950 . S
C627 C644 1.574 . S
C627 C646 1.368 . S
C627 H651 0.949 . S
H628 C632 0.949 . S
C629 C630 1.349 . S
C629 C631 1.327 . S
C629 H652 0.950 . S
C630 C629 1.349 . S
C630 C642 1.349 . S
C631 C629 1.327 . S
C631 C647 1.429 . S
C631 H653 0.950 . S
C632 H628 0.949 . S
C632 C640 1.574 . S
C632 C648 1.368 . S
H633 C641 0.950 . S
H634 C639 0.950 . S
H635 C640 0.949 . S
H636 C642 0.950 . S
H637 C643 0.950 . S
H638 C644 0.949 . S
C639 H634 0.950 . S
C639 C641 1.327 . S
C639 C645 1.429 . S
C640 C632 1.574 . S
C640 H635 0.949 . S
C640 C646 1.368 . S
C641 C625 1.349 . S
C641 H633 0.950 . S
C641 C639 1.327 . S
C642 C630 1.349 . S
C642 H636 0.950 . S
C642 C643 1.327 . S
C643 H637 0.950 . S
C643 C642 1.327 . S
C643 C647 1.429 . S
C644 C627 1.574 . S
C644 H638 0.949 . S
C644 C648 1.368 . S
C645 C626 1.429 . S
C645 C639 1.429 . S
C645 C646 1.523 . S
C646 C627 1.368 . S
C646 C640 1.368 . S
C646 C645 1.523 . S
C647 C631 1.429 . S
C647 C643 1.429 . S
C647 C648 1.523 . S
C648 C632 1.368 . S
C648 C644 1.368 . S
C648 C647 1.523 . S
H649 C624 0.950 . S
H650 C626 0.950 . S
H651 C627 0.949 . S
H652 C629 0.950 . S
H653 C631 0.950 . S
C654 C655 1.349 . S
C654 C656 1.327 . S
C654 H679 0.950 . S
C655 C654 1.349 . S
C655 C671 1.349 . S
C656 C654 1.327 . S
C656 C675 1.429 . S
C656 H680 0.950 . S
C657 C674 1.574 . S
C657 C676 1.368 . S
C657 H681 0.949 . S
H658 C662 0.949 . S
C659 C660 1.349 . S
C659 C661 1.327 . S
C659 H682 0.950 . S
C660 C659 1.349 . S
C660 C672 1.349 . S
C661 C659 1.327 . S
C661 C677 1.429 . S
C661 H683 0.950 . S
C662 H658 0.949 . S
C662 C670 1.574 . S
C662 C678 1.368 . S
H663 C671 0.950 . S
H664 C669 0.950 . S
H665 C670 0.949 . S
H666 C672 0.950 . S
H667 C673 0.950 . S
H668 C674 0.949 . S
C669 H664 0.950 . S
C669 C671 1.327 . S
C669 C675 1.429 . S
C670 C662 1.574 . S
C670 H665 0.949 . S
C670 C676 1.368 . S
C671 C655 1.349 . S
C671 H663 0.950 . S
C671 C669 1.327 . S
C672 C660 1.349 . S
C672 H666 0.950 . S
C672 C673 1.327 . S
C673 H667 0.950 . S
C673 C672 1.327 . S
C673 C677 1.429 . S
C674 C657 1.574 . S
C674 H668 0.949 . S
C674 C678 1.368 . S
C675 C656 1.429 . S
C675 C669 1.429 . S
C675 C676 1.523 . S
C676 C657 1.368 . S
C676 C670 1.368 . S
C676 C675 1.523 . S
C677 C661 1.429 . S
C677 C673 1.429 . S
C677 C678 1.523 . S
C678 C662 1.368 . S
C678 C674 1.368 . S
C678 C677 1.523 . S
H679 C654 0.950 . S
H680 C656 0.950 . S
H681 C657 0.949 . S
H682 C659 0.950 . S
H683 C661 0.950 . S
C684 C685 1.349 . S
C684 C686 1.327 . S
C684 H709 0.950 . S
C685 C684 1.349 . S
C685 C701 1.349 . S
C686 C684 1.327 . S
C686 C705 1.429 . S
C686 H710 0.950 . S
C687 C704 1.574 . S
C687 C706 1.368 . S
C687 H711 0.949 . S
H688 C692 0.949 . S
C689 C690 1.349 . S
C689 C691 1.327 . S
C689 H712 0.950 . S
C690 C689 1.349 . S
C690 C702 1.349 . S
C691 C689 1.327 . S
C691 C707 1.429 . S
C691 H713 0.950 . S
C692 H688 0.949 . S
C692 C700 1.574 . S
C692 C708 1.368 . S
H693 C701 0.950 . S
H694 C699 0.950 . S
H695 C700 0.949 . S
H696 C702 0.950 . S
H697 C703 0.950 . S
H698 C704 0.949 . S
C699 H694 0.950 . S
C699 C701 1.327 . S
C699 C705 1.429 . S
C700 C692 1.574 . S
C700 H695 0.949 . S
C700 C706 1.368 . S
C701 C685 1.349 . S
C701 H693 0.950 . S
C701 C699 1.327 . S
C702 C690 1.349 . S
C702 H696 0.950 . S
C702 C703 1.327 . S
C703 H697 0.950 . S
C703 C702 1.327 . S
C703 C707 1.429 . S
C704 C687 1.574 . S
C704 H698 0.949 . S
C704 C708 1.368 . S
C705 C686 1.429 . S
C705 C699 1.429 . S
C705 C706 1.523 1_545 S
C706 C687 1.368 . S
C706 C700 1.368 . S
C706 C705 1.523 1_565 S
C707 C691 1.429 . S
C707 C703 1.429 . S
C707 C708 1.523 . S
C708 C692 1.368 . S
C708 C704 1.368 . S
C708 C707 1.523 . S
H709 C684 0.950 . S
H710 C686 0.950 . S
H711 C687 0.949 . S
H712 C689 0.950 . S
H713 C691 0.950 . S
C714 C715 1.349 . S
C714 C716 1.327 . S
C714 H739 0.950 . S
C715 C714 1.349 . S
C715 C731 1.349 . S
C716 C714 1.327 . S
C716 C735 1.429 . S
C716 H740 0.950 . S
C717 C734 1.574 . S
C717 C736 1.368 . S
C717 H741 0.949 . S
H718 C722 0.949 . S
C719 C720 1.349 . S
C719 C721 1.327 . S
C719 H742 0.950 . S
C720 C719 1.349 . S
C720 C732 1.349 . S
C721 C719 1.327 . S
C721 C737 1.429 . S
C721 H743 0.950 . S
C722 H718 0.949 . S
C722 C730 1.574 . S
C722 C738 1.368 . S
H723 C731 0.950 . S
H724 C729 0.950 . S
H725 C730 0.949 . S
H726 C732 0.950 . S
H727 C733 0.950 . S
H728 C734 0.949 . S
C729 H724 0.950 . S
C729 C731 1.327 . S
C729 C735 1.429 . S
C730 C722 1.574 . S
C730 H725 0.949 . S
C730 C736 1.368 . S
C731 C715 1.349 . S
C731 H723 0.950 . S
C731 C729 1.327 . S
C732 C720 1.349 . S
C732 H726 0.950 . S
C732 C733 1.327 . S
C733 H727 0.950 . S
C733 C732 1.327 . S
C733 C737 1.429 . S
C734 C717 1.574 . S
C734 H728 0.949 . S
C734 C738 1.368 . S
C735 C716 1.429 . S
C735 C729 1.429 . S
C735 C736 1.523 1_565 S
C736 C717 1.368 . S
C736 C730 1.368 . S
C736 C735 1.523 1_545 S
C737 C721 1.429 . S
C737 C733 1.429 . S
C737 C738 1.523 . S
C738 C722 1.368 . S
C738 C734 1.368 . S
C738 C737 1.523 . S
H739 C714 0.950 . S
H740 C716 0.950 . S
H741 C717 0.949 . S
H742 C719 0.950 . S
H743 C721 0.950 . S
C744 C745 1.349 . S
C744 C746 1.327 . S
C744 H769 0.950 . S
C745 C744 1.349 . S
C745 C761 1.349 . S
C746 C744 1.327 . S
C746 C765 1.429 . S
C746 H770 0.950 . S
C747 C764 1.574 . S
C747 C766 1.368 . S
C747 H771 0.949 . S
H748 C752 0.949 . S
C749 C750 1.349 . S
C749 C751 1.327 . S
C749 H772 0.950 . S
C750 C749 1.349 . S
C750 C762 1.349 . S
C751 C749 1.327 . S
C751 C767 1.429 . S
C751 H773 0.950 . S
C752 H748 0.949 . S
C752 C760 1.574 . S
C752 C768 1.368 . S
H753 C761 0.950 . S
H754 C759 0.950 . S
H755 C760 0.949 . S
H756 C762 0.950 . S
H757 C763 0.950 . S
H758 C764 0.949 . S
C759 H754 0.950 . S
C759 C761 1.327 . S
C759 C765 1.429 . S
C760 C752 1.574 . S
C760 H755 0.949 . S
C760 C766 1.368 . S
C761 C745 1.349 . S
C761 H753 0.950 . S
C761 C759 1.327 . S
C762 C750 1.349 . S
C762 H756 0.950 . S
C762 C763 1.327 . S
C763 H757 0.950 . S
C763 C762 1.327 . S
C763 C767 1.429 . S
C764 C747 1.574 . S
C764 H758 0.949 . S
C764 C768 1.368 . S
C765 C746 1.429 . S
C765 C759 1.429 . S
C765 C766 1.523 . S
C766 C747 1.368 . S
C766 C760 1.368 . S
C766 C765 1.523 . S
C767 C751 1.429 . S
C767 C763 1.429 . S
C767 C768 1.523 . S
C768 C752 1.368 . S
C768 C764 1.368 . S
C768 C767 1.523 . S
H769 C744 0.950 . S
H770 C746 0.950 . S
H771 C747 0.949 . S
H772 C749 0.950 . S
H773 C751 0.950 . S
C774 C775 1.349 . S
C774 C776 1.327 . S
C774 H799 0.950 . S
C775 C774 1.349 . S
C775 C791 1.349 . S
C776 C774 1.327 . S
C776 C795 1.429 . S
C776 H800 0.950 . S
C777 C794 1.574 . S
C777 C796 1.368 . S
C777 H801 0.949 . S
H778 C782 0.949 . S
C779 C780 1.349 . S
C779 C781 1.327 . S
C779 H802 0.950 . S
C780 C779 1.349 . S
C780 C792 1.349 . S
C781 C779 1.327 . S
C781 C797 1.429 . S
C781 H803 0.950 . S
C782 H778 0.949 . S
C782 C790 1.574 . S
C782 C798 1.368 . S
H783 C791 0.950 . S
H784 C789 0.950 . S
H785 C790 0.949 . S
H786 C792 0.950 . S
H787 C793 0.950 . S
H788 C794 0.949 . S
C789 H784 0.950 . S
C789 C791 1.327 . S
C789 C795 1.429 . S
C790 C782 1.574 . S
C790 H785 0.949 . S
C790 C796 1.368 . S
C791 C775 1.349 . S
C791 H783 0.950 . S
C791 C789 1.327 . S
C792 C780 1.349 . S
C792 H786 0.950 . S
C792 C793 1.327 . S
C793 H787 0.950 . S
C793 C792 1.327 . S
C793 C797 1.429 . S
C794 C777 1.574 . S
C794 H788 0.949 . S
C794 C798 1.368 . S
C795 C776 1.429 . S
C795 C789 1.429 . S
C795 C796 1.523 . S
C796 C777 1.368 . S
C796 C790 1.368 . S
C796 C795 1.523 . S
C797 C781 1.429 . S
C797 C793 1.429 . S
C797 C798 1.523 . S
C798 C782 1.368 . S
C798 C794 1.368 . S
C798 C797 1.523 . S
H799 C774 0.950 . S
H800 C776 0.950 . S
H801 C777 0.949 . S
H802 C779 0.950 . S
H803 C781 0.950 . S
C804 C805 1.349 . S
C804 C806 1.327 . S
C804 H829 0.950 . S
C805 C804 1.349 . S
C805 C821 1.349 . S
C806 C804 1.327 . S
C806 C825 1.429 . S
C806 H830 0.950 . S
C807 C824 1.574 . S
C807 C826 1.368 . S
C807 H831 0.949 . S
H808 C812 0.949 . S
C809 C810 1.349 . S
C809 C811 1.327 . S
C809 H832 0.950 . S
C810 C809 1.349 . S
C810 C822 1.349 . S
C811 C809 1.327 . S
C811 C827 1.429 . S
C811 H833 0.950 . S
C812 H808 0.949 . S
C812 C820 1.574 . S
C812 C828 1.368 . S
H813 C821 0.950 . S
H814 C819 0.950 . S
H815 C820 0.949 . S
H816 C822 0.950 . S
H817 C823 0.950 . S
H818 C824 0.949 . S
C819 H814 0.950 . S
C819 C821 1.327 . S
C819 C825 1.429 . S
C820 C812 1.574 . S
C820 H815 0.949 . S
C820 C826 1.368 . S
C821 C805 1.349 . S
C821 H813 0.950 . S
C821 C819 1.327 . S
C822 C810 1.349 . S
C822 H816 0.950 . S
C822 C823 1.327 . S
C823 H817 0.950 . S
C823 C822 1.327 . S
C823 C827 1.429 . S
C824 C807 1.574 . S
C824 H818 0.949 . S
C824 C828 1.368 . S
C825 C806 1.429 . S
C825 C819 1.429 . S
C825 C826 1.523 1_565 S
C826 C807 1.368 . S
C826 C820 1.368 . S
C826 C825 1.523 1_545 S
C827 C811 1.429 . S
C827 C823 1.429 . S
C827 C828 1.523 . S
C828 C812 1.368 . S
C828 C824 1.368 . S
C828 C827 1.523 . S
H829 C804 0.950 . S
H830 C806 0.950 . S
H831 C807 0.949 . S
H832 C809 0.950 . S
H833 C811 0.950 . S
C834 C835 1.349 . S
C834 C836 1.327 . S
C834 H859 0.950 . S
C835 C834 1.349 . S
C835 C851 1.349 . S
C836 C834 1.327 . S
C836 C855 1.429 . S
C836 H860 0.950 . S
C837 C854 1.574 . S
C837 C856 1.368 . S
C837 H861 0.949 . S
H838 C842 0.949 . S
C839 C840 1.349 . S
C839 C841 1.327 . S
C839 H862 0.950 . S
C840 C839 1.349 . S
C840 C852 1.349 . S
C841 C839 1.327 . S
C841 C857 1.429 . S
C841 H863 0.950 . S
C842 H838 0.949 . S
C842 C850 1.574 . S
C842 C858 1.368 . S
H843 C851 0.950 . S
H844 C849 0.950 . S
H845 C850 0.949 . S
H846 C852 0.950 . S
H847 C853 0.950 . S
H848 C854 0.949 . S
C849 H844 0.950 . S
C849 C851 1.327 . S
C849 C855 1.429 . S
C850 C842 1.574 . S
C850 H845 0.949 . S
C850 C856 1.368 . S
C851 C835 1.349 . S
C851 H843 0.950 . S
C851 C849 1.327 . S
C852 C840 1.349 . S
C852 H846 0.950 . S
C852 C853 1.327 . S
C853 H847 0.950 . S
C853 C852 1.327 . S
C853 C857 1.429 . S
C854 C837 1.574 . S
C854 H848 0.949 . S
C854 C858 1.368 . S
C855 C836 1.429 . S
C855 C849 1.429 . S
C855 C856 1.523 . S
C856 C837 1.368 . S
C856 C850 1.368 . S
C856 C855 1.523 . S
C857 C841 1.429 . S
C857 C853 1.429 . S
C857 C858 1.523 1_545 S
C858 C842 1.368 . S
C858 C854 1.368 . S
C858 C857 1.523 1_565 S
H859 C834 0.950 . S
H860 C836 0.950 . S
H861 C837 0.949 . S
H862 C839 0.950 . S
H863 C841 0.950 . S
C265 C21 1.483 . S
C270 C54 1.483 . S
C295 C120 1.483 . S
C300 C87 1.483 . S
C325 C153 1.483 . S
C330 C186 1.483 . S
C355 C252 1.483 . S
C360 C219 1.483 . S
C385 C18 1.063 . S
C390 C150 1.063 . S
C415 C51 1.063 . S
C420 C183 1.063 . S
C445 C84 1.063 . S
C450 C216 1.063 . S
C475 C117 1.063 . S
C480 C249 1.063 . S
C505 C73 1.373 . S
C510 C7 1.373 . S
C535 C106 1.373 . S
C540 C40 1.373 . S
C565 C139 1.373 . S
C570 C205 1.373 . S
C595 C172 1.373 . S
C600 C238 1.373 . S
C625 N13 1.199 . S
C630 N2 1.197 . S
C655 N46 1.199 . S
C660 N35 1.197 . S
C685 N68 1.197 . S
C690 N79 1.199 . S
C715 N101 1.197 . S
C720 N112 1.199 . S
C745 N134 1.197 . S
C750 N145 1.199 . S
C775 N178 1.199 . S
C780 N167 1.197 . S
C805 N200 1.197 . S
C810 N211 1.199 . S
C835 N244 1.199 . S
C840 N233 1.197 . S
