# Generated by pormake.
# Topology wnj, (7)-cn, num edge types: 1
# Building blocks:
#     Node 0, Type 0, BuildingBlock: OLANEW_clean_sbu_0, # of connection points: 7
#     Node 1, Type 0, BuildingBlock: OLANEW_clean_sbu_0, # of connection points: 7
#     Node 2, Type 0, BuildingBlock: OLANEW_clean_sbu_0, # of connection points: 7
#     Node 3, Type 0, BuildingBlock: OLANEW_clean_sbu_0, # of connection points: 7
#     Node 4, Type 0, BuildingBlock: OLANEW_clean_sbu_0, # of connection points: 7
#     Node 5, Type 0, BuildingBlock: OLANEW_clean_sbu_0, # of connection points: 7
#     Edge 6, Type (0, 0), BuildingBlock: AJUNOK_clean_linker_0, # of connection points: 2
#     Edge 7, Type (0, 0), BuildingBlock: AJUNOK_clean_linker_0, # of connection points: 2
#     Edge 8, Type (0, 0), BuildingBlock: AJUNOK_clean_linker_0, # of connection points: 2
#     Edge 9, Type (0, 0), BuildingBlock: AJUNOK_clean_linker_0, # of connection points: 2
#     Edge 10, Type (0, 0), BuildingBlock: AJUNOK_clean_linker_0, # of connection points: 2
#     Edge 11, Type (0, 0), BuildingBlock: AJUNOK_clean_linker_0, # of connection points: 2
#     Edge 12, Type (0, 0), BuildingBlock: AJUNOK_clean_linker_0, # of connection points: 2
#     Edge 13, Type (0, 0), BuildingBlock: AJUNOK_clean_linker_0, # of connection points: 2
#     Edge 14, Type (0, 0), BuildingBlock: AJUNOK_clean_linker_0, # of connection points: 2
#     Edge 15, Type (0, 0), BuildingBlock: AJUNOK_clean_linker_0, # of connection points: 2
#     Edge 16, Type (0, 0), BuildingBlock: AJUNOK_clean_linker_0, # of connection points: 2
#     Edge 17, Type (0, 0), BuildingBlock: AJUNOK_clean_linker_0, # of connection points: 2
#     Edge 18, Type (0, 0), BuildingBlock: AJUNOK_clean_linker_0, # of connection points: 2
#     Edge 19, Type (0, 0), BuildingBlock: AJUNOK_clean_linker_0, # of connection points: 2
#     Edge 20, Type (0, 0), BuildingBlock: AJUNOK_clean_linker_0, # of connection points: 2
#     Edge 21, Type (0, 0), BuildingBlock: AJUNOK_clean_linker_0, # of connection points: 2
#     Edge 22, Type (0, 0), BuildingBlock: AJUNOK_clean_linker_0, # of connection points: 2
#     Edge 23, Type (0, 0), BuildingBlock: AJUNOK_clean_linker_0, # of connection points: 2
#     Edge 24, Type (0, 0), BuildingBlock: AJUNOK_clean_linker_0, # of connection points: 2
#     Edge 25, Type (0, 0), BuildingBlock: AJUNOK_clean_linker_0, # of connection points: 2
#     Edge 26, Type (0, 0), BuildingBlock: AJUNOK_clean_linker_0, # of connection points: 2
# Relax obj value: 0.294
# Max RMSD: 0.272
# Mean RMSD: 0.272
data_MOF--net-wnj--node1-OLANEW_clean_sbu_0--edge1-AJUNOK_clean_linker_0
_symmetry_space_group_name_H-M    P1
_symmetry_Int_Tables_number       1
_symmetry_cell_setting            triclinic
loop_
_symmetry_equiv_pos_as_xyz
'x, y, z'
_cell_length_a     30.728834
_cell_length_b     30.72049
_cell_length_c     37.582267
_cell_angle_alpha  89.902586
_cell_angle_beta   90.166827
_cell_angle_gamma 120.19985
loop_
_atom_site_label
_atom_site_type_symbol
_atom_site_fract_x
_atom_site_fract_y
_atom_site_fract_z
_atom_type_partial_charge
Cd0 Cd 0.24655 0.59878 0.11494 0.0
C1 C 0.27235 0.7241 0.08802 0.0
C2 C 0.10386 0.44199 0.96763 0.0
O3 O 0.12808 0.43227 0.94301 0.0
Cd4 Cd 0.21829 0.69528 0.17309 0.0
C5 C 0.06779 0.4029 -0.00817 0.0
C6 C 1.00407 0.34535 0.04718 0.0
C7 C 1.01874 0.39603 0.04267 0.0
N8 N 0.04898 0.42113 0.01556 0.0
C9 C 0.05443 0.35227 -0.00557 0.0
C10 C 1.02206 0.3234 0.02251 0.0
Co11 Co 0.07652 0.48962 0.01586 0.0
C12 C 1.00968 0.42854 0.06637 0.0
O13 O 0.98459 0.41187 0.09634 0.0
C14 C 0.03373 0.51499 0.08089 0.0
C15 C 0.0753 0.54281 0.10174 0.0
C16 C 0.07454 0.57192 0.12942 0.0
C17 C 0.02758 0.5695 0.13826 0.0
C18 C 0.98172 0.5384 0.11837 0.0
C19 C 0.98842 0.51456 0.08786 0.0
C20 C 0.12441 0.60469 0.1472 0.0
C21 C 0.15008 0.53332 0.95563 0.0
C22 C 0.1994 0.54378 0.95756 0.0
C23 C 0.13892 0.56562 0.93604 0.0
C24 C 0.17601 0.6056 0.91694 0.0
C25 C 0.22498 0.61516 0.91851 0.0
C26 C 0.2373 0.58523 0.94017 0.0
N27 N 0.11222 0.48965 0.97365 0.0
N28 N 0.03473 0.47852 0.05773 0.0
N29 N 0.13535 0.50154 0.04431 0.0
C30 C 0.14871 0.46516 0.05612 0.0
C31 C 0.19081 0.46489 0.04187 0.0
C32 C 0.12321 0.43336 0.08459 0.0
C33 C 0.20507 0.43061 0.05381 0.0
H34 H 0.21316 0.49195 0.02191 0.0
C35 C 0.1772 0.39689 0.08112 0.0
C36 C 0.13666 0.39854 0.09703 0.0
C37 C 0.249 0.43014 0.03781 0.0
H38 H 0.0935 0.43649 0.09745 0.0
H39 H 0.18792 0.37028 0.09062 0.0
C40 C 0.10852 0.36409 0.12674 0.0
O41 O 0.25603 0.39067 0.04344 0.0
O42 O 0.27888 0.46527 0.01929 0.0
O43 O 0.07666 0.36887 0.14286 0.0
O44 O 0.11776 0.32704 0.1361 0.0
H45 H 0.2841 0.38935 0.03298 0.0
H46 H 0.09959 0.30393 0.15527 0.0
N47 N 0.10472 0.55836 0.01692 0.0
C48 C 0.07982 0.57657 -0.00092 0.0
C49 C 0.1051 0.62842 -0.00821 0.0
C50 C 0.15564 0.65824 0.0034 0.0
C51 C 0.17999 0.63619 0.0217 0.0
C52 C 0.15238 0.58449 0.02854 0.0
N53 N 1.02408 0.48809 0.9859 0.0
C54 C 0.03272 0.53639 0.98259 0.0
O55 O 1.00712 0.54747 0.95988 0.0
C56 C 0.17017 0.55199 0.04403 0.0
O57 O 0.26942 0.54697 0.15993 0.0
O58 O 0.30796 0.565 0.10998 0.0
C59 C 0.99802 0.45061 0.95847 0.0
C60 C 0.95158 0.40689 0.96569 0.0
C61 C 0.92578 0.3713 0.9384 0.0
C62 C 0.94858 0.3801 0.90448 0.0
C63 C 0.99381 0.42303 0.89654 0.0
C64 C 1.01818 0.4581 0.92364 0.0
O65 O 0.27708 0.68486 0.08626 0.0
O66 O 0.25095 0.73245 0.11416 0.0
O67 O 0.16471 0.60395 0.13746 0.0
O68 O 0.1295 0.64042 0.16686 0.0
O69 O 0.21831 0.56968 0.05453 0.0
C70 C 0.29792 0.66755 0.16696 0.0
O71 O 0.25083 0.64027 0.16817 0.0
O72 O 0.32158 0.66673 0.13992 0.0
C73 C 0.30358 0.54613 0.14095 0.0
H74 H 0.9807 0.32383 0.06936 0.0
H75 H 0.06922 0.33586 0.97607 0.0
H76 H 1.01168 0.28434 0.02554 0.0
H77 H 0.10835 0.53996 0.09693 0.0
H78 H 0.02709 0.59084 0.1609 0.0
H79 H 0.95951 0.49437 0.06857 0.0
H80 H 0.20803 0.51838 0.9713 0.0
H81 H 0.10235 0.56147 0.93488 0.0
H82 H 0.25265 0.64527 0.90209 0.0
H83 H 0.08762 0.64488 0.97592 0.0
H84 H 0.17646 0.69801 -0.00289 0.0
H85 H 0.21929 0.65839 0.0289 0.0
H86 H 0.9359 0.40155 -0.00788 0.0
H87 H 0.92986 0.35483 0.8825 0.0
H88 H 0.05203 0.49127 0.91664 0.0
Cd89 Cd 0.43906 0.65917 0.78075 0.0
C90 C 0.32617 0.56781 0.73438 0.0
C91 C 0.60041 0.67425 0.63628 0.0
O92 O 0.60996 0.70789 0.61131 0.0
Cd93 Cd 0.37099 0.56819 0.79806 0.0
C94 C 0.63982 0.6771 0.66014 0.0
C95 C 0.69849 0.66939 0.71404 0.0
C96 C 0.64784 0.63293 0.70954 0.0
N97 N 0.62218 0.63899 0.68319 0.0
C98 C 0.69041 0.71472 0.6627 0.0
C99 C 0.71982 0.71048 0.69007 0.0
Co100 Co 0.55402 0.59626 0.68312 0.0
C101 C 0.61627 0.58945 0.73245 0.0
O102 O 0.63344 0.58125 0.7623 0.0
C103 C 0.53006 0.52705 0.74826 0.0
C104 C 0.50477 0.54417 0.76813 0.0
C105 C 0.47296 0.51738 0.796 0.0
C106 C 0.46935 0.47041 0.80592 0.0
C107 C 0.49839 0.45233 0.7874 0.0
C108 C 0.52783 0.48134 0.75791 0.0
C109 C 0.4436 0.5413 0.80967 0.0
C110 C 0.50959 0.62551 0.62211 0.0
C111 C 0.49667 0.6629 0.62105 0.0
C112 C 0.48029 0.58074 0.60278 0.0
C113 C 0.43781 0.57238 0.58421 0.0
C114 C 0.42427 0.60888 0.58425 0.0
C115 C 0.45442 0.65477 0.602 0.0
N116 N 0.55309 0.63405 0.64195 0.0
N117 N 0.56628 0.56309 0.7238 0.0
N118 N 0.54044 0.64097 0.71249 0.0
C119 C 0.57615 0.69124 0.72385 0.0
C120 C 0.57637 0.73305 0.70837 0.0
C121 C 0.60815 0.69854 0.7524 0.0
C122 C 0.60983 0.78211 0.72025 0.0
H123 H 0.55028 0.72726 0.68717 0.0
C124 C 0.64336 0.78897 0.74803 0.0
C125 C 0.6425 0.74733 0.76443 0.0
C126 C 0.60985 0.82607 0.70372 0.0
H127 H 0.60585 0.666 0.76539 0.0
H128 H 0.66946 0.8267 0.75736 0.0
C129 C 0.6775 0.75476 0.79405 0.0
O130 O 0.64895 0.87307 0.7092 0.0
O131 O 0.57462 0.82005 0.68499 0.0
O132 O 0.67337 0.71855 0.81057 0.0
O133 O 0.71443 0.80159 0.80282 0.0
H134 H 0.64995 0.90224 0.69849 0.0
H135 H 0.73795 0.80724 0.82188 0.0
N136 N 0.48554 0.55364 0.68391 0.0
C137 C 0.46897 0.51145 0.66492 0.0
C138 C 0.41874 0.48633 0.65385 0.0
C139 C 0.38941 0.50856 0.66145 0.0
C140 C 0.4092 0.55349 0.68153 0.0
C141 C 0.45866 0.57498 0.69391 0.0
N142 N 0.55709 0.54817 0.65181 0.0
C143 C 0.51008 0.50669 0.64864 0.0
O144 O 0.50055 0.47105 0.62537 0.0
C145 C 0.4899 0.62482 0.711 0.0
O146 O 0.50701 0.74163 0.8138 0.0
O147 O 0.45636 0.75046 0.77959 0.0
C148 C 0.59557 0.56022 0.62555 0.0
C149 C 0.63479 0.55154 0.63363 0.0
C150 C 0.66839 0.55585 0.60698 0.0
C151 C 0.66256 0.56854 0.57194 0.0
C152 C 0.62389 0.57785 0.56318 0.0
C153 C 0.5914 0.57499 0.59048 0.0
O154 O 0.35246 0.61321 0.74638 0.0
O155 O 0.33656 0.53454 0.7439 0.0
O156 O 0.45549 0.58518 0.79696 0.0
O157 O 0.40081 0.51515 0.82416 0.0
O158 O 0.47152 0.65486 0.72119 0.0
C159 C 0.35518 0.63579 0.83869 0.0
O160 O 0.32653 0.61135 0.81332 0.0
O161 O 0.40129 0.65058 0.83611 0.0
C162 C 0.49164 0.77088 0.8026 0.0
H163 H 0.72054 0.66682 0.73557 0.0
H164 H 0.70644 0.74665 0.6448 0.0
H165 H 0.75891 0.73937 0.69304 0.0
H166 H 0.51278 0.58154 0.76209 0.0
H167 H 0.44561 0.44903 0.828 0.0
H168 H 0.55132 0.4701 0.74386 0.0
H169 H 0.521 0.69929 0.63293 0.0
H170 H 0.489 0.55134 0.60127 0.0
H171 H 0.39278 0.60303 0.56776 0.0
H172 H 0.40439 0.45423 0.63618 0.0
H173 H 0.35318 0.49296 0.64883 0.0
H174 H 0.3883 0.57284 0.6844 0.0
H175 H 0.63754 0.53901 0.6601 0.0
H176 H 0.6874 0.5696 0.55109 0.0
H177 H 0.56273 0.58335 0.58352 0.0
Cd178 Cd 0.38344 0.79369 0.44768 0.0
C179 C 0.48043 0.77134 0.41789 0.0
C180 C 0.36846 0.93622 0.30016 0.0
O181 O 0.33621 0.91415 0.27401 0.0
Cd182 Cd 0.49806 0.82477 0.50255 0.0
C183 C 0.36576 0.97245 0.32427 0.0
C184 C 0.37273 0.03683 0.37928 0.0
C185 C 0.4087 0.02222 0.37489 0.0
N186 N 0.40314 0.99153 0.34799 0.0
C187 C 0.32858 0.98585 0.32672 0.0
C188 C 0.33245 0.01848 0.35467 0.0
Co189 Co 0.44447 0.9644 0.3485 0.0
C190 C 0.45096 0.03233 0.39842 0.0
O191 O 0.45935 0.05752 0.42835 0.0
C192 C 0.51377 1.00922 0.41345 0.0
C193 C 0.49955 0.96701 0.43366 0.0
C194 C 0.5279 0.96703 0.46225 0.0
C195 C 0.57306 1.01288 0.47163 0.0
C196 C 0.58854 0.0586 0.45212 0.0
C197 C 0.55812 0.05477 0.42223 0.0
C198 C 0.50847 0.9175 0.48045 0.0
C199 C 0.41384 0.89016 0.28913 0.0
C200 C 0.37478 0.84055 0.2893 0.0
C201 C 0.45988 0.90191 0.2733 0.0
C202 C 0.46966 0.86413 0.26369 0.0
C203 C 0.43206 0.81443 0.2671 0.0
C204 C 0.38317 0.80348 0.27575 0.0
N205 N 0.40734 0.92753 0.30675 0.0
N206 N 0.47644 1.00799 0.38983 0.0
N207 N 0.39837 0.90622 0.37755 0.0
C208 C 0.34864 0.89275 0.38908 0.0
C209 C 0.30627 0.85133 0.37391 0.0
C210 C 0.34242 0.91771 0.41785 0.0
C211 C 0.25766 0.83619 0.38625 0.0
H212 H 0.31133 0.83069 0.35267 0.0
C213 C 0.2518 0.86332 0.41404 0.0
C214 C 0.29406 0.90398 0.43016 0.0
C215 C 0.21313 0.79213 0.3702 0.0
H216 H 0.37542 0.94747 0.43086 0.0
H217 H 0.21438 0.8521 0.42362 0.0
C218 C 0.28771 0.93207 0.45981 0.0
O219 O 0.1665 0.78469 0.37592 0.0
O220 O 0.21836 0.76238 0.35168 0.0
O221 O 0.32444 0.96414 0.47602 0.0
O222 O 0.24128 0.92267 0.46892 0.0
H223 H 0.13696 0.75645 0.36551 0.0
H224 H 0.23634 0.94089 0.48797 0.0
N225 N 0.48562 0.93697 0.34992 0.0
C226 C 0.52917 0.9623 0.33248 0.0
C227 C 0.55642 0.93776 0.32592 0.0
C228 C 0.53592 0.88741 0.33775 0.0
C229 C 0.48904 0.86255 0.35546 0.0
C230 C 0.46437 0.88952 0.3618 0.0
N231 N 0.49464 1.01522 0.31769 0.0
C232 C 0.53518 1.00822 0.31494 0.0
O233 O 0.57093 0.03309 0.29146 0.0
C234 C 0.41387 0.8714 0.37714 0.0
O235 O 0.30331 0.77599 0.48654 0.0
O236 O 0.29181 0.72183 0.44657 0.0
C237 C 0.48332 0.04218 0.29138 0.0
C238 C 0.48964 0.0886 0.30066 0.0
C239 C 0.47968 0.11586 0.27578 0.0
C240 C 0.45839 0.09466 0.24264 0.0
C241 C 0.45715 0.05073 0.23022 0.0
C242 C 0.46955 0.02449 0.25582 0.0
O243 O 0.43441 0.76088 0.417 0.0
O244 O 0.51057 0.79854 0.44249 0.0
O245 O 0.46771 0.87752 0.46954 0.0
O246 O 0.53638 0.91248 0.50284 0.0
O247 O 0.38318 0.82309 0.38739 0.0
C248 C 0.39106 0.74066 0.5055 0.0
O249 O 0.40791 0.78729 0.50954 0.0
O250 O 0.384 0.72407 0.47415 0.0
C251 C 0.27279 0.73335 0.47238 0.0
H252 H 0.37497 0.06058 0.40128 0.0
H253 H 0.29715 0.97088 0.30837 0.0
H254 H 0.30384 0.02888 0.35759 0.0
H255 H 0.46355 0.93428 0.42829 0.0
H256 H 0.59427 1.0132 0.49475 0.0
H257 H 0.56732 0.08763 0.40628 0.0
H258 H 0.33704 0.83153 0.29637 0.0
H259 H 0.48942 0.93967 0.26902 0.0
H260 H 0.43896 0.7856 0.25665 0.0
H261 H 0.59045 0.95544 0.31016 0.0
H262 H 0.55519 0.86697 0.33175 0.0
H263 H 0.47184 0.82323 0.36232 0.0
H264 H 0.50553 0.10484 0.32639 0.0
H265 H 0.44648 0.11559 0.2264 0.0
H266 H 0.46969 0.99118 0.24805 0.0
Cd267 Cd 0.60696 0.24331 0.86116 0.0
C268 C 0.72495 0.25542 0.8921 0.0
C269 C 0.44778 0.09809 0.00642 0.0
O270 O 0.43764 0.12179 0.03121 0.0
Cd271 Cd 0.70779 0.21087 0.80839 0.0
C272 C 0.40891 0.06116 0.98249 0.0
C273 C 0.35142 0.99546 0.92792 0.0
C274 C 0.4023 1.01084 0.9324 0.0
N275 N 0.42744 0.04219 0.95906 0.0
C276 C 0.3581 0.04705 0.97992 0.0
C277 C 0.32929 1.01374 0.9522 0.0
Co278 Co 0.49597 0.06956 0.95885 0.0
C279 C 0.43463 1.0008 0.90912 0.0
O280 O 0.41764 0.97494 0.87944 0.0
C281 C 0.52111 0.02529 0.89383 0.0
C282 C 0.54918 0.06805 0.8737 0.0
C283 C 0.5787 0.06926 0.84554 0.0
C284 C 0.57897 0.02398 0.83649 0.0
C285 C 0.54898 0.97811 0.85575 0.0
C286 C 0.52068 0.98011 0.8849 0.0
C287 C 0.6098 0.11942 0.8278 0.0
C288 C 0.5397 0.14582 0.01693 0.0
C289 C 0.54943 0.19523 0.01627 0.0
C290 C 0.57714 0.13639 0.02971 0.0
C291 C 0.6269 0.17539 0.03137 0.0
C292 C 0.63772 0.22407 0.024 0.0
C293 C 0.59761 0.23361 0.02478 0.0
N294 N 0.49549 0.10691 0.00035 0.0
N295 N 0.48469 0.02578 0.9176 0.0
N296 N 0.50835 0.12752 0.9296 0.0
C297 C 0.47208 0.14107 0.9185 0.0
C298 C 0.47145 0.1823 0.93397 0.0
C299 C 0.44039 0.11614 0.88986 0.0
C300 C 0.43789 0.19746 0.92188 0.0
H301 H 0.49749 0.2028 0.9552 0.0
C302 C 0.40451 0.17049 0.89405 0.0
C303 C 0.40576 0.12992 0.87774 0.0
C304 C 0.43784 0.24142 0.93816 0.0
H305 H 0.44329 0.08635 0.87681 0.0
H306 H 0.37829 0.18174 0.88459 0.0
C307 C 0.37108 0.10199 0.84803 0.0
O308 O 0.39875 0.24904 0.93251 0.0
O309 O 0.47309 0.27095 0.95681 0.0
O310 O 0.37556 0.07005 0.83172 0.0
O311 O 0.33405 0.11139 0.83894 0.0
H312 H 0.39775 0.27725 0.94306 0.0
H313 H 0.31074 0.09327 0.81982 0.0
N314 N 0.56452 0.09675 0.95749 0.0
C315 C 0.58259 0.07086 0.9743 0.0
C316 C 0.63488 0.09418 0.97911 0.0
C317 C 0.66529 0.14396 0.96623 0.0
C318 C 0.64318 0.16951 0.94959 0.0
C319 C 0.59111 0.14365 0.94475 0.0
N320 N 0.49501 0.01902 -0.00998 0.0
C321 C 0.54258 0.02576 -0.00733 0.0
O322 O 0.55364 1.00141 0.0165 0.0
C323 C 0.55887 0.16227 0.92991 0.0
O324 O 0.54658 0.25939 0.81939 0.0
O325 O 0.574 0.30477 0.86642 0.0
C326 C 0.45713 0.99302 0.01678 0.0
C327 C 0.41643 0.94586 0.00857 0.0
C328 C 0.38141 0.91761 0.03482 0.0
C329 C 0.38523 0.93784 0.06898 0.0
C330 C 0.42616 0.98474 0.07839 0.0
C331 C 0.46221 1.01236 0.05183 0.0
O332 O 0.69664 0.2754 0.89055 0.0
O333 O 0.7164 0.21784 0.87271 0.0
O334 O 0.60872 0.1592 0.83865 0.0
O335 O 0.64453 0.12495 0.80684 0.0
O336 O 0.57662 0.21097 0.92067 0.0
C337 C 0.6802 0.29868 0.81132 0.0
O338 O 0.66712 0.25431 0.81936 0.0
O339 O 0.66273 0.32086 0.82893 0.0
C340 C 0.54993 0.29665 0.83712 0.0
H341 H 0.32981 0.97114 0.90611 0.0
H342 H 0.3415 0.06194 -0.00198 0.0
H343 H 0.29006 1.00274 0.94918 0.0
H344 H 0.54519 0.10028 0.87874 0.0
H345 H 0.60094 0.02394 0.81402 0.0
H346 H 0.4957 0.94586 0.8992 0.0
H347 H 0.51911 0.20326 0.01337 0.0
H348 H 0.56924 0.09924 0.03645 0.0
H349 H 0.67595 0.25428 0.02858 0.0
H350 H 0.6514 0.07613 -0.00571 0.0
H351 H 0.70547 0.16379 0.97112 0.0
H352 H 0.66528 0.20885 0.94327 0.0
H353 H 0.41452 0.92948 0.98267 0.0
H354 H 0.3584 0.91477 0.08925 0.0
H355 H 0.49465 0.04781 0.0589 0.0
Cd356 Cd 0.80096 0.37545 0.52844 0.0
C357 C 0.77866 0.47626 0.55471 0.0
C358 C 0.94255 0.36069 0.67458 0.0
O359 O 0.92092 0.32871 0.70089 0.0
Cd360 Cd 0.82898 0.49994 0.46766 0.0
C361 C 0.97897 0.35821 0.65055 0.0
C362 C 0.04387 0.36561 0.59586 0.0
C363 C 0.02859 0.40114 0.59994 0.0
N364 N 0.9976 0.39532 0.62665 0.0
C365 C 0.99306 0.32151 0.64841 0.0
C366 C 0.02591 0.32556 0.62061 0.0
Co367 Co 0.97035 0.43656 0.62609 0.0
C368 C 0.03862 0.44332 0.57634 0.0
O369 O 0.06421 0.45193 0.54662 0.0
C370 C 1.0155 0.50635 0.56125 0.0
C371 C 0.97258 0.4934 0.54191 0.0
C372 C 0.97205 0.52289 0.5142 0.0
C373 C 1.01797 0.56801 0.505 0.0
C374 C 0.064 0.58184 0.52345 0.0
C375 C 0.06135 0.55018 0.55196 0.0
C376 C 0.92219 0.50444 0.49638 0.0
C377 C 0.89498 0.40488 0.68463 0.0
C378 C 0.84538 0.36534 0.68408 0.0
C379 C 0.90549 0.45142 0.69885 0.0
C380 C 0.86695 0.46185 0.70407 0.0
C381 C 0.81761 0.42409 0.69859 0.0
C382 C 0.80755 0.37439 0.69527 0.0
N383 N 0.93332 0.39917 0.66779 0.0
N384 N 1.01397 0.4686 0.5847 0.0
N385 N 0.91229 0.39045 0.59703 0.0
C386 C 0.89899 0.34071 0.5856 0.0
C387 C 0.85786 0.2983 0.60088 0.0
C388 C 0.92407 0.3345 0.55692 0.0
C389 C 0.84291 0.24967 0.58858 0.0
H390 H 0.83729 0.30333 0.62216 0.0
C391 C 0.8701 0.24384 0.56084 0.0
C392 C 0.91063 0.28614 0.54473 0.0
C393 C 0.79897 0.20512 0.6046 0.0
H394 H 0.95371 0.36753 0.54391 0.0
H395 H 0.85904 0.2064 0.55131 0.0
C396 C 0.93888 0.27983 0.51521 0.0
O397 O 0.79159 0.1585 0.59883 0.0
O398 O 0.76923 0.21032 0.62313 0.0
O399 O 0.97102 0.3166 0.49912 0.0
O400 O 0.9296 0.23342 0.50608 0.0
H401 H 0.76332 0.12893 0.60914 0.0
H402 H 0.94792 0.22851 0.48711 0.0
N403 N 0.9431 0.47782 0.62457 0.0
C404 C 0.96879 0.52178 0.64156 0.0
C405 C 0.945 0.54998 0.64705 0.0
C406 C 0.89497 0.52998 0.6346 0.0
C407 C 0.86957 0.48245 0.61767 0.0
C408 C 0.89579 0.45675 0.61248 0.0
N409 N 1.02091 0.48673 0.65707 0.0
C410 C 1.01423 0.52749 0.65963 0.0
O411 O 0.03887 0.56314 0.68328 0.0
C412 C 0.87732 0.40576 0.59779 0.0
O413 O 0.78984 0.29493 0.49418 0.0
O414 O 0.72654 0.2859 0.52419 0.0
C415 C 0.04683 0.47477 0.68374 0.0
C416 C 0.0925 0.47929 0.6747 0.0
C417 C 0.11889 0.46885 0.69997 0.0
C418 C 0.09648 0.44642 0.73238 0.0
C419 C 0.05468 0.44871 0.74486 0.0
C420 C 0.02923 0.46229 0.71938 0.0
O421 O 0.77285 0.43194 0.55764 0.0
O422 O 0.79905 0.50417 0.52741 0.0
O423 O 0.88246 0.46287 0.50634 0.0
O424 O 0.91682 0.53358 0.47522 0.0
O425 O 0.82869 0.37452 0.58856 0.0
C426 C 0.74991 0.39348 0.47555 0.0
O427 O 0.79694 0.41311 0.47431 0.0
O428 O 0.72594 0.36595 0.50137 0.0
C429 C 0.74377 0.26581 0.50319 0.0
H430 H 0.06792 0.36805 0.57404 0.0
H431 H 0.97849 0.2903 0.6669 0.0
H432 H 0.03685 0.29731 0.61793 0.0
H433 H 0.93966 0.45753 0.54715 0.0
H434 H 1.01843 0.59066 0.48273 0.0
H435 H 0.09556 0.5579 0.56567 0.0
H436 H 0.83707 0.32715 0.67943 0.0
H437 H 0.94298 0.4809 0.70439 0.0
H438 H 0.788 0.43171 0.70591 0.0
H439 H 0.96299 0.58447 0.66237 0.0
H440 H 0.87504 0.55002 0.63971 0.0
H441 H 0.83036 0.46554 0.61074 0.0
H442 H 0.10955 0.49564 0.64927 0.0
H443 H 0.11623 0.43335 0.74899 0.0
H444 H 0.99701 0.46459 0.72732 0.0
Cd445 Cd 0.66182 0.4347 0.19378 0.0
C446 C 0.56175 0.31683 0.23296 0.0
C447 C 0.68011 0.59261 0.34122 0.0
O448 O 0.71219 0.60245 0.36743 0.0
Cd449 Cd 0.53348 0.33135 0.15381 0.0
C450 C 0.68338 0.63195 0.31714 0.0
C451 C 0.67722 0.69026 0.26231 0.0
C452 C 0.64073 0.6396 0.26663 0.0
N453 N 0.64603 0.61407 0.2934 0.0
C454 C 0.721 0.68258 0.31478 0.0
C455 C 0.71757 0.71179 0.28691 0.0
Co456 Co 0.60374 0.5457 0.29297 0.0
C457 C 0.59805 0.60784 0.24316 0.0
O458 O 0.59009 0.62503 0.21323 0.0
C459 C 0.53462 0.52184 0.2277 0.0
C460 C 0.54931 0.49434 0.20748 0.0
C461 C 0.52117 0.46509 0.17896 0.0
C462 C 0.47563 0.46471 0.16968 0.0
C463 C 0.45956 0.49431 0.18923 0.0
C464 C 0.48992 0.52227 0.21871 0.0
C465 C 0.54045 0.4336 0.16246 0.0
C466 C 0.63389 0.50084 0.35231 0.0
C467 C 0.67277 0.49012 0.35238 0.0
C468 C 0.58809 0.467 0.3688 0.0
C469 C 0.57823 0.41963 0.37938 0.0
C470 C 0.61547 0.40727 0.37615 0.0
C471 C 0.66436 0.44506 0.36706 0.0
N472 N 0.64077 0.54507 0.33465 0.0
N473 N 0.57179 0.55784 0.2517 0.0
N474 N 0.64911 0.53296 0.26395 0.0
C475 C 0.69915 0.56889 0.25248 0.0
C476 C 0.7412 0.56926 0.26764 0.0
C477 C 0.70589 0.60032 0.22369 0.0
C478 C 0.79 0.60249 0.25526 0.0
H479 H 0.73577 0.54333 0.28888 0.0
C480 C 0.79634 0.6357 0.2274 0.0
C481 C 0.75441 0.6346 0.21131 0.0
C482 C 0.83426 0.60259 0.27132 0.0
H483 H 0.67312 0.59753 0.21074 0.0
H484 H 0.83387 0.66167 0.21775 0.0
C485 C 0.76122 0.66922 0.18159 0.0
O486 O 0.88112 0.64171 0.26554 0.0
O487 O 0.82862 0.56739 0.28989 0.0
O488 O 0.72469 0.66475 0.16528 0.0
O489 O 0.80783 0.70623 0.17252 0.0
H490 H 0.91049 0.64277 0.27593 0.0
H491 H 0.81307 0.72953 0.15343 0.0
N492 N 0.56153 0.47709 0.29163 0.0
C493 C 0.51866 0.45955 0.30982 0.0
C494 C 0.4921 0.40816 0.31828 0.0
C495 C 0.51321 0.37837 0.30836 0.0
C496 C 0.55927 0.3996 0.28967 0.0
C497 C 0.58263 0.4505 0.28057 0.0
N498 N 0.55458 0.54766 0.32389 0.0
C499 C 0.51369 0.50012 0.32712 0.0
O500 O 0.47841 0.48976 0.35082 0.0
C501 C 0.63299 0.48247 0.26476 0.0
O502 O 0.74648 0.50571 0.16491 0.0
O503 O 0.75188 0.44731 0.1923 0.0
C504 C 0.56703 0.58623 0.35029 0.0
C505 C 0.56094 0.62678 0.34169 0.0
C506 C 0.56991 0.66296 0.36737 0.0
C507 C 0.58904 0.6608 0.40095 0.0
C508 C 0.59248 0.61862 0.41226 0.0
C509 C 0.58145 0.58171 0.38546 0.0
O510 O 0.60871 0.34807 0.22636 0.0
O511 O 0.52647 0.31878 0.21639 0.0
O512 O 0.58152 0.43686 0.17426 0.0
O513 O 0.51132 0.39587 0.14375 0.0
O514 O 0.66295 0.4644 0.25419 0.0
C515 C 0.64752 0.35089 0.14326 0.0
O516 O 0.60842 0.32559 0.16149 0.0
O517 O 0.6663 0.39767 0.14181 0.0
C518 C 0.77412 0.48684 0.17303 0.0
H519 H 0.67527 0.71214 0.24041 0.0
H520 H 0.75243 0.69875 0.33314 0.0
H521 H 0.74654 0.75086 0.28405 0.0
H522 H 0.58542 0.49833 0.2132 0.0
H523 H 0.45336 0.44227 0.14734 0.0
H524 H 0.48073 0.54688 0.23338 0.0
H525 H 0.71054 0.51879 0.34511 0.0
H526 H 0.55873 0.47537 0.37295 0.0
H527 H 0.60852 0.37181 0.38736 0.0
H528 H 0.45905 0.39259 0.33504 0.0
H529 H 0.49592 0.34008 0.31783 0.0
H530 H 0.57778 0.3782 0.28523 0.0
H531 H 0.54526 0.62783 0.31603 0.0
H532 H 0.59618 0.69123 0.41819 0.0
H533 H 0.58315 0.54885 0.39153 0.0
C534 C 0.27258 0.78902 0.04775 0.0
C535 C 0.29771 0.76487 0.0616 0.0
C536 C 0.2997 0.83753 0.03308 0.0
C537 C 0.35242 0.86267 0.03187 0.0
H538 H 0.23231 0.77226 0.05123 0.0
H539 H 0.27998 0.85739 0.02631 0.0
S540 S 0.43522 0.81438 0.06099 0.0
N541 N 0.3777 0.76831 0.07001 0.0
N542 N 0.4283 0.85877 0.04165 0.0
C543 C 0.37724 0.83662 0.04144 0.0
C544 C 0.34989 0.78775 0.05673 0.0
C545 C 0.2462 0.56796 0.73002 0.0
C546 C 0.27707 0.55014 0.71703 0.0
C547 C 0.19502 0.54297 0.72189 0.0
C548 C 0.17342 0.49992 0.70017 0.0
H549 H 0.26059 0.59868 0.74897 0.0
H550 H 0.17144 0.55538 0.73454 0.0
S551 S 0.23808 0.44245 0.65491 0.0
N552 N 0.28211 0.48854 0.67913 0.0
N553 N 0.18607 0.44441 0.66172 0.0
C554 C 0.20393 0.48428 0.68432 0.0
C555 C 0.25584 0.50862 0.69348 0.0
C556 C 0.54707 0.77056 0.37983 0.0
C557 C 0.49778 0.74499 0.39378 0.0
C558 C 0.56936 0.74391 0.36594 0.0
C559 C 0.5428 0.69106 0.36554 0.0
H560 H 0.56979 0.81113 0.38216 0.0
H561 H 0.60881 0.76439 0.35864 0.0
S562 S 0.4132 0.6066 0.3976 0.0
N563 N 0.42313 0.6639 0.40484 0.0
N564 N 0.46457 0.6143 0.37803 0.0
C565 C 0.49229 0.66543 0.37629 0.0
C566 C 0.46987 0.6923 0.39076 0.0
C567 C 0.81006 0.26756 0.90059 0.0
C568 C 0.77277 0.27754 0.91304 0.0
C569 C 0.85724 0.28898 0.91635 0.0
C570 C 0.87261 0.32815 0.94121 0.0
H571 H 0.80373 0.24398 0.87753 0.0
H572 H 0.88407 0.27983 0.90507 0.0
S573 S 0.78206 0.34092 -0.00094 0.0
N574 N 0.74751 0.30703 0.96493 0.0
N575 N 0.84052 0.35509 -0.00942 0.0
C576 C 0.83381 0.33112 0.95902 0.0
C577 C 0.78329 0.3052 0.94498 0.0
C578 C 0.78049 0.54837 0.58601 0.0
C579 C 0.75835 0.49582 0.58213 0.0
C580 C 0.75382 0.56929 0.60131 0.0
C581 C 0.70412 0.53814 0.61267 0.0
H582 H 0.81663 0.57361 0.574 0.0
H583 H 0.76934 0.60968 0.59962 0.0
S584 S 0.63564 0.39932 0.61965 0.0
N585 N 0.68891 0.41358 0.59942 0.0
N586 N 0.63879 0.45353 0.62815 0.0
C587 C 0.68527 0.48618 0.6151 0.0
C588 C 0.71235 0.46466 0.59947 0.0
C589 C 0.57516 0.24732 0.25302 0.0
C590 C 0.5468 0.27156 0.25503 0.0
C591 C 0.55487 0.1975 0.26444 0.0
C592 C 0.50595 0.17075 0.27848 0.0
H593 H 0.61106 0.265 0.2394 0.0
H594 H 0.57555 0.17822 0.25902 0.0
S595 S 0.42078 0.21974 0.29695 0.0
N596 N 0.46965 0.26653 0.27669 0.0
N597 N 0.4334 0.17358 0.29997 0.0
C598 C 0.47964 0.19593 0.2846 0.0
C599 C 0.49959 0.24626 0.27226 0.0
C600 C 0.4116 0.51418 0.14177 0.0
C601 C 0.41514 0.50094 0.17725 0.0
C602 C 0.37518 0.52716 0.13065 0.0
C603 C 0.33901 0.5272 0.15403 0.0
H604 H 0.43874 0.51654 0.12242 0.0
H605 H 0.37619 0.53836 0.10321 0.0
S606 S 0.32646 0.4884 0.24928 0.0
N607 N 0.37522 0.48424 0.23535 0.0
N608 N 0.30719 0.5077 0.21472 0.0
C609 C 0.34042 0.51151 0.18942 0.0
C610 C 0.37806 0.49876 0.20086 0.0
C611 C 0.49107 0.85393 0.80177 0.0
C612 C 0.51101 0.82504 0.81632 0.0
C613 C 0.50488 0.90294 0.81408 0.0
C614 C 0.53948 0.92689 0.84206 0.0
H615 H 0.46355 0.83822 0.78054 0.0
H616 H 0.4872 0.92209 0.80183 0.0
S617 S 0.60479 0.87005 0.8905 0.0
N618 N 0.56918 0.82621 0.8612 0.0
N619 N 0.59426 0.91732 0.88432 0.0
C620 C 0.56034 0.89901 0.85722 0.0
C621 C 0.5465 0.84877 0.84442 0.0
C622 C 0.13692 0.67497 0.51438 0.0
C623 C 0.11601 0.62223 0.50967 0.0
C624 C 0.18722 0.71093 0.50312 0.0
C625 C 0.21904 0.69618 0.48597 0.0
H626 H 0.1146 0.68859 0.52731 0.0
H627 H 0.20098 0.75058 0.50754 0.0
S628 S 0.1835 0.56275 0.46978 0.0
N629 N 0.13284 0.55812 0.48843 0.0
N630 N 0.22465 0.6236 0.4672 0.0
C631 C 0.19815 0.64354 0.48178 0.0
C632 C 0.1478 0.60745 0.49356 0.0
C633 C 0.52864 0.41164 0.8333 0.0
C634 C 0.50424 0.408 0.80066 0.0
C635 C 0.54164 0.37529 0.84452 0.0
C636 C 0.53092 0.33215 0.82413 0.0
H637 H 0.53966 0.44424 0.85002 0.0
H638 H 0.5616 0.38197 0.86951 0.0
S639 S 0.46353 0.3016 0.73691 0.0
N640 N 0.46762 0.35552 0.74828 0.0
N641 N 0.49105 0.28749 0.76922 0.0
C642 C 0.50506 0.32712 0.79154 0.0
C643 C 0.49215 0.36467 0.77994 0.0
C644 C 0.66409 0.20332 0.47018 0.0
C645 C 0.70886 0.21319 0.48766 0.0
C646 C 0.62726 0.15442 0.45862 0.0
C647 C 0.63185 0.11113 0.46395 0.0
H648 H 0.65684 0.23396 0.46579 0.0
H649 H 0.59363 0.1507 0.44642 0.0
S650 S 0.74348 0.11584 0.50747 0.0
N651 N 0.75659 0.17501 0.50884 0.0
N652 N 0.68818 0.08362 0.48745 0.0
C653 C 0.67732 0.12061 0.4809 0.0
C654 C 0.71535 0.17108 0.49244 0.0
C655 C 0.92083 0.55609 0.15759 0.0
C656 C 0.92785 0.52839 0.12985 0.0
C657 C 0.87212 0.54443 0.17059 0.0
C658 C 0.82655 0.50443 0.15672 0.0
H659 H 0.95326 0.58707 0.17016 0.0
H660 H 0.87029 0.56646 0.1924 0.0
S661 S 0.81837 0.42256 0.08149 0.0
N662 N 0.87927 0.45935 0.08785 0.0
N663 N 0.79138 0.44034 0.11138 0.0
C664 C 0.83218 0.47825 0.12806 0.0
C665 C 0.88131 0.48942 0.11493 0.0
C666 C 0.99153 0.42789 0.79492 0.0
C667 C 0.04083 0.44162 0.78429 0.0
C668 C 0.97797 0.42403 0.83095 0.0
C669 C 1.01193 0.43178 0.85867 0.0
H670 H 0.96242 0.41952 0.77544 0.0
H671 H 0.94004 0.41447 0.83743 0.0
S672 S 0.14491 0.4656 0.84788 0.0
N673 N 0.12472 0.46381 0.80689 0.0
N674 N 0.09626 0.45115 0.87372 0.0
C675 C 0.06085 0.44427 0.84914 0.0
C676 C 0.07578 0.45005 0.81236 0.0
C677 C 0.60665 0.56786 0.46161 0.0
C678 C 0.60305 0.61074 0.45156 0.0
C679 C 0.61298 0.55737 0.49725 0.0
C680 C 0.6168 0.58912 0.52535 0.0
H681 H 0.60482 0.5411 0.44236 0.0
H682 H 0.61443 0.52355 0.50291 0.0
S683 S 0.62038 0.71028 0.51735 0.0
N684 N 0.60996 0.68813 0.47647 0.0
N685 N 0.62289 0.66734 0.54182 0.0
C686 C 0.61558 0.63259 0.51667 0.0
C687 C 0.60874 0.64371 0.48047 0.0
C688 C 0.433 0.9846 0.18074 0.0
C689 C 0.4469 0.03445 0.19088 0.0
C690 C 0.42676 0.96913 0.1448 0.0
C691 C 0.4328 1.00204 0.11661 0.0
H692 H 0.42636 0.95637 0.20052 0.0
H693 H 0.41737 0.93082 0.13909 0.0
S694 S 0.46081 0.13349 0.12588 0.0
N695 N 0.4636 0.11591 0.16687 0.0
N696 N 0.44711 0.08429 0.10085 0.0
C697 C 0.44398 0.05073 0.12575 0.0
C698 C 0.4519 0.0674 0.16225 0.0
C699 C 0.32646 0.6405 0.93409 0.0
C700 C 0.28711 0.59047 0.93778 0.0
C701 C 0.34858 0.65648 0.9007 0.0
C702 C 0.33535 0.62087 0.87352 0.0
H703 H 0.3304 0.66876 0.95309 0.0
H704 H 0.37283 0.69632 0.89547 0.0
S705 S 0.26629 0.48215 0.88265 0.0
N706 N 0.25951 0.50366 0.92128 0.0
N707 N 0.30077 0.53246 0.85807 0.0
C708 C 0.3086 0.56943 0.88154 0.0
C709 C 0.28718 0.55412 0.91542 0.0
C710 C 0.38162 0.70359 0.56417 0.0
C711 C 0.40709 0.71767 0.53165 0.0
C712 C 0.40285 0.69258 0.59309 0.0
C713 C 0.45045 0.69721 0.58985 0.0
H714 H 0.34484 0.69997 0.56687 0.0
H715 H 0.37996 0.675 0.61641 0.0
S716 S 0.53602 0.7448 0.51294 0.0
N717 N 0.48188 0.73654 0.49829 0.0
N718 N 0.52777 0.73084 0.55571 0.0
C719 C 0.47932 0.71998 0.55955 0.0
C720 C 0.45523 0.72414 0.52895 0.0
C721 C 0.32889 0.75189 0.19044 0.0
C722 C 0.3211 0.70336 0.19472 0.0
C723 C 0.33956 0.78259 0.22001 0.0
C724 C 0.34445 0.76557 0.25384 0.0
H725 H 0.32637 0.76581 0.16445 0.0
H726 H 0.34958 0.82151 0.21588 0.0
S727 S 0.31918 0.63887 0.27831 0.0
N728 N 0.31211 0.63714 0.23466 0.0
N729 N 0.33369 0.69621 0.29066 0.0
C730 C 0.33245 0.71594 0.25857 0.0
C731 C 0.32148 0.68472 0.22861 0.0
C732 C 0.65185 0.34652 0.07946 0.0
C733 C 0.6514 0.32541 0.11272 0.0
C734 C 0.62683 0.3156 0.05081 0.0
C735 C 0.6013 0.2635 0.05518 0.0
H736 H 0.66813 0.38681 0.07623 0.0
H737 H 0.62887 0.33218 0.02496 0.0
S738 S 0.59682 0.19116 0.13594 0.0
N739 N 0.63364 0.2509 0.14666 0.0
N740 N 0.57695 0.19186 0.09522 0.0
C741 C 0.60071 0.24227 0.08869 0.0
C742 C 0.63093 0.27358 0.11621 0.0
C743 C 0.69254 0.30808 0.74796 0.0
C744 C 0.71336 0.32148 0.78216 0.0
C745 C 0.72351 0.31921 0.71851 0.0
C746 C 0.77548 0.34246 0.72324 0.0
H747 H 0.6521 0.28894 0.7441 0.0
H748 H 0.70728 0.31241 0.69205 0.0
S749 S 0.84709 0.38548 0.80785 0.0
N750 N 0.78761 0.36088 0.81957 0.0
N751 N 0.84665 0.37693 0.76451 0.0
C752 C 0.79631 0.35305 0.75783 0.0
C753 C 0.76498 0.34463 0.78734 0.0
C754 C 0.71599 0.41005 0.3849 0.0
C755 C 0.70275 0.44685 0.3899 0.0
C756 C 0.72823 0.39065 0.41404 0.0
C757 C 0.72651 0.40711 0.44845 0.0
H758 H 0.71265 0.39334 0.35894 0.0
H759 H 0.73855 0.36211 0.40978 0.0
S760 S 0.69712 0.50543 0.47469 0.0
N761 N 0.69383 0.50346 0.43082 0.0
N762 N 0.71182 0.46251 0.48631 0.0
C763 C 0.71511 0.44517 0.45378 0.0
C764 C 0.70563 0.46709 0.424 0.0
loop_
_geom_bond_atom_site_label_1
_geom_bond_atom_site_label_2
_geom_bond_distance
_geom_bond_site_symmetry_2
_ccdc_geom_bond_type
Cd0 O57 2.350 . S
Cd0 O58 2.277 . S
Cd0 O65 2.173 . S
Cd0 O67 2.263 . S
Cd0 O69 2.366 . S
Cd0 O72 2.329 . S
C1 O65 1.277 . S
C1 O66 1.230 . S
C2 O3 1.246 . S
C2 C5 1.481 1_556 S
C2 N27 1.329 . S
O3 C2 1.246 . S
Cd4 O66 2.250 . S
Cd4 O68 2.308 . S
Cd4 O71 2.352 . S
C5 C2 1.481 1_554 S
C5 N8 1.327 . S
C5 C9 1.407 . S
C6 C7 1.346 1_655 S
C6 C10 1.390 1_655 S
C6 H74 0.930 . S
C7 C6 1.346 1_455 S
C7 N8 1.342 . S
C7 C12 1.516 . S
N8 C5 1.327 . S
N8 C7 1.342 . S
N8 Co11 1.864 . S
C9 C5 1.407 . S
C9 C10 1.364 . S
C9 H75 0.930 1_554 S
C10 C6 1.390 1_455 S
C10 C9 1.364 . S
C10 H76 0.931 1_455 S
Co11 N8 1.864 . S
Co11 N27 1.955 1_554 S
Co11 N28 1.958 . S
Co11 N29 1.953 . S
Co11 N47 1.869 . S
Co11 N53 1.974 1_554 S
C12 C7 1.516 . S
C12 O13 1.238 1_455 S
C12 N28 1.324 . S
O13 C12 1.238 1_655 S
C14 C15 1.394 . S
C14 C19 1.395 1_455 S
C14 N28 1.427 . S
C15 C14 1.394 . S
C15 C16 1.380 . S
C15 H77 0.929 . S
C16 C15 1.380 . S
C16 C17 1.384 . S
C16 C20 1.495 . S
C17 C16 1.384 . S
C17 C18 1.382 1_455 S
C17 H78 0.930 . S
C18 C17 1.382 1_655 S
C18 C19 1.398 . S
C19 C14 1.395 1_655 S
C19 C18 1.398 . S
C19 H79 0.930 . S
C20 C16 1.495 . S
C20 O67 1.258 . S
C20 O68 1.274 . S
C21 C22 1.385 . S
C21 C23 1.381 . S
C21 N27 1.432 . S
C22 C21 1.385 . S
C22 C26 1.388 . S
C22 H80 0.929 . S
C23 C21 1.381 . S
C23 C24 1.371 . S
C23 H81 0.932 . S
C24 C23 1.371 . S
C24 C25 1.400 . S
C25 C24 1.400 . S
C25 C26 1.351 . S
C25 H82 0.930 . S
C26 C22 1.388 . S
C26 C25 1.351 . S
N27 C2 1.329 . S
N27 Co11 1.955 1_556 S
N27 C21 1.432 . S
N28 Co11 1.958 . S
N28 C12 1.324 . S
N28 C14 1.427 . S
N29 Co11 1.953 . S
N29 C30 1.436 . S
N29 C56 1.316 . S
C30 N29 1.436 . S
C30 C31 1.421 . S
C30 C32 1.360 . S
C31 C30 1.421 . S
C31 C33 1.379 . S
C31 H34 0.929 . S
C32 C30 1.360 . S
C32 C36 1.393 . S
C32 H38 0.931 . S
C33 C31 1.379 . S
C33 C35 1.417 . S
C33 C37 1.505 . S
H34 C31 0.929 . S
C35 C33 1.417 . S
C35 C36 1.352 . S
C35 H39 0.929 . S
C36 C32 1.393 . S
C36 C35 1.352 . S
C36 C40 1.482 . S
C37 C33 1.505 . S
C37 O41 1.259 . S
C37 O42 1.229 . S
H38 C32 0.931 . S
H39 C35 0.929 . S
C40 C36 1.482 . S
C40 O43 1.207 . S
C40 O44 1.289 . S
O41 C37 1.259 . S
O41 H45 0.822 . S
O42 C37 1.229 . S
O43 C40 1.207 . S
O44 C40 1.289 . S
O44 H46 0.819 . S
H45 O41 0.822 . S
H46 O44 0.819 . S
N47 Co11 1.869 . S
N47 C48 1.330 . S
N47 C52 1.325 . S
C48 N47 1.330 . S
C48 C49 1.359 . S
C48 C54 1.504 1_554 S
C49 C48 1.359 . S
C49 C50 1.366 . S
C49 H83 0.929 1_554 S
C50 C49 1.366 . S
C50 C51 1.415 . S
C50 H84 0.932 . S
C51 C50 1.415 . S
C51 C52 1.366 . S
C51 H85 0.931 . S
C52 N47 1.325 . S
C52 C51 1.366 . S
C52 C56 1.516 . S
N53 Co11 1.974 1_556 S
N53 C54 1.309 . S
N53 C59 1.423 1_455 S
C54 C48 1.504 1_556 S
C54 N53 1.309 . S
C54 O55 1.258 . S
O55 C54 1.258 . S
C56 N29 1.316 . S
C56 C52 1.516 . S
C56 O69 1.263 . S
O57 Cd0 2.350 . S
O57 C73 1.270 . S
O58 Cd0 2.277 . S
O58 C73 1.248 . S
C59 N53 1.423 1_655 S
C59 C60 1.366 1_556 S
C59 C64 1.403 . S
C60 C59 1.366 1_554 S
C60 C61 1.386 1_554 S
C60 H86 0.937 . S
C61 C60 1.386 1_556 S
C61 C62 1.389 . S
C62 C61 1.389 . S
C62 C63 1.379 . S
C62 H87 0.929 . S
C63 C62 1.379 . S
C63 C64 1.405 . S
C64 C59 1.403 . S
C64 C63 1.405 . S
C64 H88 0.932 1_655 S
O65 Cd0 2.173 . S
O65 C1 1.277 . S
O66 C1 1.230 . S
O66 Cd4 2.250 . S
O67 Cd0 2.263 . S
O67 C20 1.258 . S
O68 Cd4 2.308 . S
O68 C20 1.274 . S
O69 Cd0 2.366 . S
O69 C56 1.263 . S
C70 O71 1.235 . S
C70 O72 1.270 . S
O71 Cd4 2.352 . S
O71 C70 1.235 . S
O72 Cd0 2.329 . S
O72 C70 1.270 . S
C73 O57 1.270 . S
C73 O58 1.248 . S
H74 C6 0.930 . S
H75 C9 0.930 1_556 S
H76 C10 0.931 1_655 S
H77 C15 0.929 . S
H78 C17 0.930 . S
H79 C19 0.930 . S
H80 C22 0.929 . S
H81 C23 0.932 . S
H82 C25 0.930 . S
H83 C49 0.929 1_556 S
H84 C50 0.932 . S
H85 C51 0.931 . S
H86 C60 0.937 . S
H87 C62 0.929 . S
H88 C64 0.932 1_455 S
Cd89 O146 2.350 . S
Cd89 O147 2.277 . S
Cd89 O154 2.173 . S
Cd89 O156 2.263 . S
Cd89 O158 2.366 . S
Cd89 O161 2.329 . S
C90 O154 1.277 . S
C90 O155 1.230 . S
C91 O92 1.246 . S
C91 C94 1.481 . S
C91 N116 1.329 . S
O92 C91 1.246 . S
Cd93 O155 2.250 . S
Cd93 O157 2.308 . S
Cd93 O160 2.352 . S
C94 C91 1.481 . S
C94 N97 1.327 . S
C94 C98 1.407 . S
C95 C96 1.346 . S
C95 C99 1.390 . S
C95 H163 0.930 . S
C96 C95 1.346 . S
C96 N97 1.342 . S
C96 C101 1.516 . S
N97 C94 1.327 . S
N97 C96 1.342 . S
N97 Co100 1.864 . S
C98 C94 1.407 . S
C98 C99 1.364 . S
C98 H164 0.930 . S
C99 C95 1.390 . S
C99 C98 1.364 . S
C99 H165 0.931 . S
Co100 N97 1.864 . S
Co100 N116 1.955 . S
Co100 N117 1.958 . S
Co100 N118 1.953 . S
Co100 N136 1.869 . S
Co100 N142 1.974 . S
C101 C96 1.516 . S
C101 O102 1.238 . S
C101 N117 1.324 . S
O102 C101 1.238 . S
C103 C104 1.394 . S
C103 C108 1.395 . S
C103 N117 1.427 . S
C104 C103 1.394 . S
C104 C105 1.380 . S
C104 H166 0.929 . S
C105 C104 1.380 . S
C105 C106 1.384 . S
C105 C109 1.495 . S
C106 C105 1.384 . S
C106 C107 1.382 . S
C106 H167 0.930 . S
C107 C106 1.382 . S
C107 C108 1.398 . S
C108 C103 1.395 . S
C108 C107 1.398 . S
C108 H168 0.930 . S
C109 C105 1.495 . S
C109 O156 1.258 . S
C109 O157 1.274 . S
C110 C111 1.385 . S
C110 C112 1.381 . S
C110 N116 1.432 . S
C111 C110 1.385 . S
C111 C115 1.388 . S
C111 H169 0.929 . S
C112 C110 1.381 . S
C112 C113 1.371 . S
C112 H170 0.932 . S
C113 C112 1.371 . S
C113 C114 1.400 . S
C114 C113 1.400 . S
C114 C115 1.351 . S
C114 H171 0.930 . S
C115 C111 1.388 . S
C115 C114 1.351 . S
N116 C91 1.329 . S
N116 Co100 1.955 . S
N116 C110 1.432 . S
N117 Co100 1.958 . S
N117 C101 1.324 . S
N117 C103 1.427 . S
N118 Co100 1.953 . S
N118 C119 1.436 . S
N118 C145 1.316 . S
C119 N118 1.436 . S
C119 C120 1.421 . S
C119 C121 1.360 . S
C120 C119 1.421 . S
C120 C122 1.379 . S
C120 H123 0.929 . S
C121 C119 1.360 . S
C121 C125 1.393 . S
C121 H127 0.931 . S
C122 C120 1.379 . S
C122 C124 1.417 . S
C122 C126 1.505 . S
H123 C120 0.929 . S
C124 C122 1.417 . S
C124 C125 1.352 . S
C124 H128 0.929 . S
C125 C121 1.393 . S
C125 C124 1.352 . S
C125 C129 1.482 . S
C126 C122 1.505 . S
C126 O130 1.259 . S
C126 O131 1.229 . S
H127 C121 0.931 . S
H128 C124 0.929 . S
C129 C125 1.482 . S
C129 O132 1.207 . S
C129 O133 1.289 . S
O130 C126 1.259 . S
O130 H134 0.822 . S
O131 C126 1.229 . S
O132 C129 1.207 . S
O133 C129 1.289 . S
O133 H135 0.819 . S
H134 O130 0.822 . S
H135 O133 0.819 . S
N136 Co100 1.869 . S
N136 C137 1.330 . S
N136 C141 1.325 . S
C137 N136 1.330 . S
C137 C138 1.359 . S
C137 C143 1.504 . S
C138 C137 1.359 . S
C138 C139 1.366 . S
C138 H172 0.929 . S
C139 C138 1.366 . S
C139 C140 1.415 . S
C139 H173 0.932 . S
C140 C139 1.415 . S
C140 C141 1.366 . S
C140 H174 0.931 . S
C141 N136 1.325 . S
C141 C140 1.366 . S
C141 C145 1.516 . S
N142 Co100 1.974 . S
N142 C143 1.309 . S
N142 C148 1.423 . S
C143 C137 1.504 . S
C143 N142 1.309 . S
C143 O144 1.258 . S
O144 C143 1.258 . S
C145 N118 1.316 . S
C145 C141 1.516 . S
C145 O158 1.263 . S
O146 Cd89 2.350 . S
O146 C162 1.270 . S
O147 Cd89 2.277 . S
O147 C162 1.248 . S
C148 N142 1.423 . S
C148 C149 1.370 . S
C148 C153 1.403 . S
C149 C148 1.370 . S
C149 C150 1.389 . S
C149 H175 0.931 . S
C150 C149 1.389 . S
C150 C151 1.389 . S
C151 C150 1.389 . S
C151 C152 1.379 . S
C151 H176 0.929 . S
C152 C151 1.379 . S
C152 C153 1.405 . S
C153 C148 1.403 . S
C153 C152 1.405 . S
C153 H177 0.932 . S
O154 Cd89 2.173 . S
O154 C90 1.277 . S
O155 C90 1.230 . S
O155 Cd93 2.250 . S
O156 Cd89 2.263 . S
O156 C109 1.258 . S
O157 Cd93 2.308 . S
O157 C109 1.274 . S
O158 Cd89 2.366 . S
O158 C145 1.263 . S
C159 O160 1.235 . S
C159 O161 1.270 . S
O160 Cd93 2.352 . S
O160 C159 1.235 . S
O161 Cd89 2.329 . S
O161 C159 1.270 . S
C162 O146 1.270 . S
C162 O147 1.248 . S
H163 C95 0.930 . S
H164 C98 0.930 . S
H165 C99 0.931 . S
H166 C104 0.929 . S
H167 C106 0.930 . S
H168 C108 0.930 . S
H169 C111 0.929 . S
H170 C112 0.932 . S
H171 C114 0.930 . S
H172 C138 0.929 . S
H173 C139 0.932 . S
H174 C140 0.931 . S
H175 C149 0.931 . S
H176 C151 0.929 . S
H177 C153 0.932 . S
Cd178 O235 2.350 . S
Cd178 O236 2.277 . S
Cd178 O243 2.173 . S
Cd178 O245 2.263 . S
Cd178 O247 2.366 . S
Cd178 O250 2.329 . S
C179 O243 1.277 . S
C179 O244 1.230 . S
C180 O181 1.246 . S
C180 C183 1.481 . S
C180 N205 1.329 . S
O181 C180 1.246 . S
Cd182 O244 2.250 . S
Cd182 O246 2.308 . S
Cd182 O249 2.352 . S
C183 C180 1.481 . S
C183 N186 1.327 . S
C183 C187 1.407 . S
C184 C185 1.346 1_545 S
C184 C188 1.390 1_545 S
C184 H252 0.930 . S
C185 C184 1.346 1_565 S
C185 N186 1.342 . S
C185 C190 1.516 . S
N186 C183 1.327 . S
N186 C185 1.342 . S
N186 Co189 1.864 . S
C187 C183 1.407 . S
C187 C188 1.364 . S
C187 H253 0.930 . S
C188 C184 1.390 1_565 S
C188 C187 1.364 . S
C188 H254 0.931 1_565 S
Co189 N186 1.864 . S
Co189 N205 1.955 . S
Co189 N206 1.958 . S
Co189 N207 1.953 . S
Co189 N225 1.869 . S
Co189 N231 1.974 . S
C190 C185 1.516 . S
C190 O191 1.238 1_565 S
C190 N206 1.324 . S
O191 C190 1.238 1_545 S
C192 C193 1.394 . S
C192 C197 1.395 1_565 S
C192 N206 1.427 . S
C193 C192 1.394 . S
C193 C194 1.380 . S
C193 H255 0.929 . S
C194 C193 1.380 . S
C194 C195 1.384 . S
C194 C198 1.495 . S
C195 C194 1.384 . S
C195 C196 1.382 1_565 S
C195 H256 0.930 . S
C196 C195 1.382 1_545 S
C196 C197 1.398 . S
C197 C192 1.395 1_545 S
C197 C196 1.398 . S
C197 H257 0.930 . S
C198 C194 1.495 . S
C198 O245 1.258 . S
C198 O246 1.274 . S
C199 C200 1.385 . S
C199 C201 1.381 . S
C199 N205 1.432 . S
C200 C199 1.385 . S
C200 C204 1.388 . S
C200 H258 0.929 . S
C201 C199 1.381 . S
C201 C202 1.371 . S
C201 H259 0.932 . S
C202 C201 1.371 . S
C202 C203 1.400 . S
C203 C202 1.400 . S
C203 C204 1.351 . S
C203 H260 0.930 . S
C204 C200 1.388 . S
C204 C203 1.351 . S
N205 C180 1.329 . S
N205 Co189 1.955 . S
N205 C199 1.432 . S
N206 Co189 1.958 . S
N206 C190 1.324 . S
N206 C192 1.427 . S
N207 Co189 1.953 . S
N207 C208 1.436 . S
N207 C234 1.316 . S
C208 N207 1.436 . S
C208 C209 1.421 . S
C208 C210 1.360 . S
C209 C208 1.421 . S
C209 C211 1.379 . S
C209 H212 0.929 . S
C210 C208 1.360 . S
C210 C214 1.393 . S
C210 H216 0.931 . S
C211 C209 1.379 . S
C211 C213 1.417 . S
C211 C215 1.505 . S
H212 C209 0.929 . S
C213 C211 1.417 . S
C213 C214 1.352 . S
C213 H217 0.929 . S
C214 C210 1.393 . S
C214 C213 1.352 . S
C214 C218 1.482 . S
C215 C211 1.505 . S
C215 O219 1.259 . S
C215 O220 1.229 . S
H216 C210 0.931 . S
H217 C213 0.929 . S
C218 C214 1.482 . S
C218 O221 1.207 . S
C218 O222 1.289 . S
O219 C215 1.259 . S
O219 H223 0.822 . S
O220 C215 1.229 . S
O221 C218 1.207 . S
O222 C218 1.289 . S
O222 H224 0.819 . S
H223 O219 0.822 . S
H224 O222 0.819 . S
N225 Co189 1.869 . S
N225 C226 1.330 . S
N225 C230 1.325 . S
C226 N225 1.330 . S
C226 C227 1.359 . S
C226 C232 1.504 . S
C227 C226 1.359 . S
C227 C228 1.366 . S
C227 H261 0.929 . S
C228 C227 1.366 . S
C228 C229 1.415 . S
C228 H262 0.932 . S
C229 C228 1.415 . S
C229 C230 1.366 . S
C229 H263 0.931 . S
C230 N225 1.325 . S
C230 C229 1.366 . S
C230 C234 1.516 . S
N231 Co189 1.974 . S
N231 C232 1.309 . S
N231 C237 1.423 1_565 S
C232 C226 1.504 . S
C232 N231 1.309 . S
C232 O233 1.258 . S
O233 C232 1.258 . S
C234 N207 1.316 . S
C234 C230 1.516 . S
C234 O247 1.263 . S
O235 Cd178 2.350 . S
O235 C251 1.270 . S
O236 Cd178 2.277 . S
O236 C251 1.248 . S
C237 N231 1.423 1_545 S
C237 C238 1.370 . S
C237 C242 1.403 . S
C238 C237 1.370 . S
C238 C239 1.389 . S
C238 H264 0.931 . S
C239 C238 1.389 . S
C239 C240 1.389 . S
C240 C239 1.389 . S
C240 C241 1.379 . S
C240 H265 0.929 . S
C241 C240 1.379 . S
C241 C242 1.405 . S
C242 C237 1.403 . S
C242 C241 1.405 . S
C242 H266 0.932 1_545 S
O243 Cd178 2.173 . S
O243 C179 1.277 . S
O244 C179 1.230 . S
O244 Cd182 2.250 . S
O245 Cd178 2.263 . S
O245 C198 1.258 . S
O246 Cd182 2.308 . S
O246 C198 1.274 . S
O247 Cd178 2.366 . S
O247 C234 1.263 . S
C248 O249 1.235 . S
C248 O250 1.270 . S
O249 Cd182 2.352 . S
O249 C248 1.235 . S
O250 Cd178 2.329 . S
O250 C248 1.270 . S
C251 O235 1.270 . S
C251 O236 1.248 . S
H252 C184 0.930 . S
H253 C187 0.930 . S
H254 C188 0.931 1_545 S
H255 C193 0.929 . S
H256 C195 0.930 . S
H257 C197 0.930 . S
H258 C200 0.929 . S
H259 C201 0.932 . S
H260 C203 0.930 . S
H261 C227 0.929 . S
H262 C228 0.932 . S
H263 C229 0.931 . S
H264 C238 0.931 . S
H265 C240 0.929 . S
H266 C242 0.932 1_565 S
Cd267 O324 2.350 . S
Cd267 O325 2.277 . S
Cd267 O332 2.173 . S
Cd267 O334 2.263 . S
Cd267 O336 2.366 . S
Cd267 O339 2.329 . S
C268 O332 1.277 . S
C268 O333 1.230 . S
C269 O270 1.246 . S
C269 C272 1.481 1_554 S
C269 N294 1.329 . S
O270 C269 1.246 . S
Cd271 O333 2.250 . S
Cd271 O335 2.308 . S
Cd271 O338 2.352 . S
C272 C269 1.481 1_556 S
C272 N275 1.327 . S
C272 C276 1.407 . S
C273 C274 1.346 1_565 S
C273 C277 1.390 1_565 S
C273 H341 0.930 . S
C274 C273 1.346 1_545 S
C274 N275 1.342 . S
C274 C279 1.516 . S
N275 C272 1.327 . S
N275 C274 1.342 . S
N275 Co278 1.864 . S
C276 C272 1.407 . S
C276 C277 1.364 . S
C276 H342 0.930 1_556 S
C277 C273 1.390 1_545 S
C277 C276 1.364 . S
C277 H343 0.931 1_545 S
Co278 N275 1.864 . S
Co278 N294 1.955 1_556 S
Co278 N295 1.958 . S
Co278 N296 1.953 . S
Co278 N314 1.869 . S
Co278 N320 1.974 1_556 S
C279 C274 1.516 . S
C279 O280 1.238 1_545 S
C279 N295 1.324 . S
O280 C279 1.238 1_565 S
C281 C282 1.394 . S
C281 C286 1.395 1_545 S
C281 N295 1.427 . S
C282 C281 1.394 . S
C282 C283 1.380 . S
C282 H344 0.929 . S
C283 C282 1.380 . S
C283 C284 1.384 . S
C283 C287 1.495 . S
C284 C283 1.384 . S
C284 C285 1.382 1_545 S
C284 H345 0.930 . S
C285 C284 1.382 1_565 S
C285 C286 1.398 . S
C286 C281 1.395 1_565 S
C286 C285 1.398 . S
C286 H346 0.930 . S
C287 C283 1.495 . S
C287 O334 1.258 . S
C287 O335 1.274 . S
C288 C289 1.385 . S
C288 C290 1.381 . S
C288 N294 1.432 . S
C289 C288 1.385 . S
C289 C293 1.388 . S
C289 H347 0.929 . S
C290 C288 1.381 . S
C290 C291 1.371 . S
C290 H348 0.932 . S
C291 C290 1.371 . S
C291 C292 1.400 . S
C292 C291 1.400 . S
C292 C293 1.351 . S
C292 H349 0.930 . S
C293 C289 1.388 . S
C293 C292 1.351 . S
N294 C269 1.329 . S
N294 Co278 1.955 1_554 S
N294 C288 1.432 . S
N295 Co278 1.958 . S
N295 C279 1.324 . S
N295 C281 1.427 . S
N296 Co278 1.953 . S
N296 C297 1.436 . S
N296 C323 1.316 . S
C297 N296 1.436 . S
C297 C298 1.421 . S
C297 C299 1.360 . S
C298 C297 1.421 . S
C298 C300 1.379 . S
C298 H301 0.929 . S
C299 C297 1.360 . S
C299 C303 1.393 . S
C299 H305 0.931 . S
C300 C298 1.379 . S
C300 C302 1.417 . S
C300 C304 1.505 . S
H301 C298 0.929 . S
C302 C300 1.417 . S
C302 C303 1.352 . S
C302 H306 0.929 . S
C303 C299 1.393 . S
C303 C302 1.352 . S
C303 C307 1.482 . S
C304 C300 1.505 . S
C304 O308 1.259 . S
C304 O309 1.229 . S
H305 C299 0.931 . S
H306 C302 0.929 . S
C307 C303 1.482 . S
C307 O310 1.207 . S
C307 O311 1.289 . S
O308 C304 1.259 . S
O308 H312 0.822 . S
O309 C304 1.229 . S
O310 C307 1.207 . S
O311 C307 1.289 . S
O311 H313 0.819 . S
H312 O308 0.822 . S
H313 O311 0.819 . S
N314 Co278 1.869 . S
N314 C315 1.330 . S
N314 C319 1.325 . S
C315 N314 1.330 . S
C315 C316 1.359 . S
C315 C321 1.504 1_556 S
C316 C315 1.359 . S
C316 C317 1.366 . S
C316 H350 0.929 1_556 S
C317 C316 1.366 . S
C317 C318 1.415 . S
C317 H351 0.932 . S
C318 C317 1.415 . S
C318 C319 1.366 . S
C318 H352 0.931 . S
C319 N314 1.325 . S
C319 C318 1.366 . S
C319 C323 1.516 . S
N320 Co278 1.974 1_554 S
N320 C321 1.309 . S
N320 C326 1.423 1_545 S
C321 C315 1.504 1_554 S
C321 N320 1.309 . S
C321 O322 1.258 . S
O322 C321 1.258 . S
C323 N296 1.316 . S
C323 C319 1.516 . S
C323 O336 1.263 . S
O324 Cd267 2.350 . S
O324 C340 1.270 . S
O325 Cd267 2.277 . S
O325 C340 1.248 . S
C326 N320 1.423 1_565 S
C326 C327 1.366 1_554 S
C326 C331 1.403 . S
C327 C326 1.366 1_556 S
C327 C328 1.386 1_556 S
C327 H353 0.937 . S
C328 C327 1.386 1_554 S
C328 C329 1.389 . S
C329 C328 1.389 . S
C329 C330 1.379 . S
C329 H354 0.929 . S
C330 C329 1.379 . S
C330 C331 1.405 . S
C331 C326 1.403 . S
C331 C330 1.405 . S
C331 H355 0.932 1_565 S
O332 Cd267 2.173 . S
O332 C268 1.277 . S
O333 C268 1.230 . S
O333 Cd271 2.250 . S
O334 Cd267 2.263 . S
O334 C287 1.258 . S
O335 Cd271 2.308 . S
O335 C287 1.274 . S
O336 Cd267 2.366 . S
O336 C323 1.263 . S
C337 O338 1.235 . S
C337 O339 1.270 . S
O338 Cd271 2.352 . S
O338 C337 1.235 . S
O339 Cd267 2.329 . S
O339 C337 1.270 . S
C340 O324 1.270 . S
C340 O325 1.248 . S
H341 C273 0.930 . S
H342 C276 0.930 1_554 S
H343 C277 0.931 1_565 S
H344 C282 0.929 . S
H345 C284 0.930 . S
H346 C286 0.930 . S
H347 C289 0.929 . S
H348 C290 0.932 . S
H349 C292 0.930 . S
H350 C316 0.929 1_554 S
H351 C317 0.932 . S
H352 C318 0.931 . S
H353 C327 0.937 . S
H354 C329 0.929 . S
H355 C331 0.932 1_545 S
Cd356 O413 2.350 . S
Cd356 O414 2.277 . S
Cd356 O421 2.173 . S
Cd356 O423 2.263 . S
Cd356 O425 2.366 . S
Cd356 O428 2.329 . S
C357 O421 1.277 . S
C357 O422 1.230 . S
C358 O359 1.246 . S
C358 C361 1.481 . S
C358 N383 1.329 . S
O359 C358 1.246 . S
Cd360 O422 2.250 . S
Cd360 O424 2.308 . S
Cd360 O427 2.352 . S
C361 C358 1.481 . S
C361 N364 1.327 . S
C361 C365 1.407 . S
C362 C363 1.346 1_455 S
C362 C366 1.390 1_455 S
C362 H430 0.930 . S
C363 C362 1.346 1_655 S
C363 N364 1.342 . S
C363 C368 1.516 . S
N364 C361 1.327 . S
N364 C363 1.342 . S
N364 Co367 1.864 . S
C365 C361 1.407 . S
C365 C366 1.364 . S
C365 H431 0.930 . S
C366 C362 1.390 1_655 S
C366 C365 1.364 . S
C366 H432 0.931 1_655 S
Co367 N364 1.864 . S
Co367 N383 1.955 . S
Co367 N384 1.958 . S
Co367 N385 1.953 . S
Co367 N403 1.869 . S
Co367 N409 1.974 . S
C368 C363 1.516 . S
C368 O369 1.238 1_655 S
C368 N384 1.324 . S
O369 C368 1.238 1_455 S
C370 C371 1.394 . S
C370 C375 1.395 1_655 S
C370 N384 1.427 . S
C371 C370 1.394 . S
C371 C372 1.380 . S
C371 H433 0.929 . S
C372 C371 1.380 . S
C372 C373 1.384 . S
C372 C376 1.495 . S
C373 C372 1.384 . S
C373 C374 1.382 1_655 S
C373 H434 0.930 . S
C374 C373 1.382 1_455 S
C374 C375 1.398 . S
C375 C370 1.395 1_455 S
C375 C374 1.398 . S
C375 H435 0.930 . S
C376 C372 1.495 . S
C376 O423 1.258 . S
C376 O424 1.274 . S
C377 C378 1.385 . S
C377 C379 1.381 . S
C377 N383 1.432 . S
C378 C377 1.385 . S
C378 C382 1.388 . S
C378 H436 0.929 . S
C379 C377 1.381 . S
C379 C380 1.371 . S
C379 H437 0.932 . S
C380 C379 1.371 . S
C380 C381 1.400 . S
C381 C380 1.400 . S
C381 C382 1.351 . S
C381 H438 0.930 . S
C382 C378 1.388 . S
C382 C381 1.351 . S
N383 C358 1.329 . S
N383 Co367 1.955 . S
N383 C377 1.432 . S
N384 Co367 1.958 . S
N384 C368 1.324 . S
N384 C370 1.427 . S
N385 Co367 1.953 . S
N385 C386 1.436 . S
N385 C412 1.316 . S
C386 N385 1.436 . S
C386 C387 1.421 . S
C386 C388 1.360 . S
C387 C386 1.421 . S
C387 C389 1.379 . S
C387 H390 0.929 . S
C388 C386 1.360 . S
C388 C392 1.393 . S
C388 H394 0.931 . S
C389 C387 1.379 . S
C389 C391 1.417 . S
C389 C393 1.505 . S
H390 C387 0.929 . S
C391 C389 1.417 . S
C391 C392 1.352 . S
C391 H395 0.929 . S
C392 C388 1.393 . S
C392 C391 1.352 . S
C392 C396 1.482 . S
C393 C389 1.505 . S
C393 O397 1.259 . S
C393 O398 1.229 . S
H394 C388 0.931 . S
H395 C391 0.929 . S
C396 C392 1.482 . S
C396 O399 1.207 . S
C396 O400 1.289 . S
O397 C393 1.259 . S
O397 H401 0.822 . S
O398 C393 1.229 . S
O399 C396 1.207 . S
O400 C396 1.289 . S
O400 H402 0.819 . S
H401 O397 0.822 . S
H402 O400 0.819 . S
N403 Co367 1.869 . S
N403 C404 1.330 . S
N403 C408 1.325 . S
C404 N403 1.330 . S
C404 C405 1.359 . S
C404 C410 1.504 . S
C405 C404 1.359 . S
C405 C406 1.366 . S
C405 H439 0.929 . S
C406 C405 1.366 . S
C406 C407 1.415 . S
C406 H440 0.932 . S
C407 C406 1.415 . S
C407 C408 1.366 . S
C407 H441 0.931 . S
C408 N403 1.325 . S
C408 C407 1.366 . S
C408 C412 1.516 . S
N409 Co367 1.974 . S
N409 C410 1.309 . S
N409 C415 1.423 1_655 S
C410 C404 1.504 . S
C410 N409 1.309 . S
C410 O411 1.258 . S
O411 C410 1.258 . S
C412 N385 1.316 . S
C412 C408 1.516 . S
C412 O425 1.263 . S
O413 Cd356 2.350 . S
O413 C429 1.270 . S
O414 Cd356 2.277 . S
O414 C429 1.248 . S
C415 N409 1.423 1_455 S
C415 C416 1.370 . S
C415 C420 1.403 . S
C416 C415 1.370 . S
C416 C417 1.389 . S
C416 H442 0.931 . S
C417 C416 1.389 . S
C417 C418 1.389 . S
C418 C417 1.389 . S
C418 C419 1.379 . S
C418 H443 0.929 . S
C419 C418 1.379 . S
C419 C420 1.405 . S
C420 C415 1.403 . S
C420 C419 1.405 . S
C420 H444 0.932 1_455 S
O421 Cd356 2.173 . S
O421 C357 1.277 . S
O422 C357 1.230 . S
O422 Cd360 2.250 . S
O423 Cd356 2.263 . S
O423 C376 1.258 . S
O424 Cd360 2.308 . S
O424 C376 1.274 . S
O425 Cd356 2.366 . S
O425 C412 1.263 . S
C426 O427 1.235 . S
C426 O428 1.270 . S
O427 Cd360 2.352 . S
O427 C426 1.235 . S
O428 Cd356 2.329 . S
O428 C426 1.270 . S
C429 O413 1.270 . S
C429 O414 1.248 . S
H430 C362 0.930 . S
H431 C365 0.930 . S
H432 C366 0.931 1_455 S
H433 C371 0.929 . S
H434 C373 0.930 . S
H435 C375 0.930 . S
H436 C378 0.929 . S
H437 C379 0.932 . S
H438 C381 0.930 . S
H439 C405 0.929 . S
H440 C406 0.932 . S
H441 C407 0.931 . S
H442 C416 0.931 . S
H443 C418 0.929 . S
H444 C420 0.932 1_655 S
Cd445 O502 2.350 . S
Cd445 O503 2.277 . S
Cd445 O510 2.173 . S
Cd445 O512 2.263 . S
Cd445 O514 2.366 . S
Cd445 O517 2.329 . S
C446 O510 1.277 . S
C446 O511 1.230 . S
C447 O448 1.246 . S
C447 C450 1.481 . S
C447 N472 1.329 . S
O448 C447 1.246 . S
Cd449 O511 2.250 . S
Cd449 O513 2.308 . S
Cd449 O516 2.352 . S
C450 C447 1.481 . S
C450 N453 1.327 . S
C450 C454 1.407 . S
C451 C452 1.346 . S
C451 C455 1.390 . S
C451 H519 0.930 . S
C452 C451 1.346 . S
C452 N453 1.342 . S
C452 C457 1.516 . S
N453 C450 1.327 . S
N453 C452 1.342 . S
N453 Co456 1.864 . S
C454 C450 1.407 . S
C454 C455 1.364 . S
C454 H520 0.930 . S
C455 C451 1.390 . S
C455 C454 1.364 . S
C455 H521 0.931 . S
Co456 N453 1.864 . S
Co456 N472 1.955 . S
Co456 N473 1.958 . S
Co456 N474 1.953 . S
Co456 N492 1.869 . S
Co456 N498 1.974 . S
C457 C452 1.516 . S
C457 O458 1.238 . S
C457 N473 1.324 . S
O458 C457 1.238 . S
C459 C460 1.394 . S
C459 C464 1.395 . S
C459 N473 1.427 . S
C460 C459 1.394 . S
C460 C461 1.380 . S
C460 H522 0.929 . S
C461 C460 1.380 . S
C461 C462 1.384 . S
C461 C465 1.495 . S
C462 C461 1.384 . S
C462 C463 1.382 . S
C462 H523 0.930 . S
C463 C462 1.382 . S
C463 C464 1.398 . S
C464 C459 1.395 . S
C464 C463 1.398 . S
C464 H524 0.930 . S
C465 C461 1.495 . S
C465 O512 1.258 . S
C465 O513 1.274 . S
C466 C467 1.385 . S
C466 C468 1.381 . S
C466 N472 1.432 . S
C467 C466 1.385 . S
C467 C471 1.388 . S
C467 H525 0.929 . S
C468 C466 1.381 . S
C468 C469 1.371 . S
C468 H526 0.932 . S
C469 C468 1.371 . S
C469 C470 1.400 . S
C470 C469 1.400 . S
C470 C471 1.351 . S
C470 H527 0.930 . S
C471 C467 1.388 . S
C471 C470 1.351 . S
N472 C447 1.329 . S
N472 Co456 1.955 . S
N472 C466 1.432 . S
N473 Co456 1.958 . S
N473 C457 1.324 . S
N473 C459 1.427 . S
N474 Co456 1.953 . S
N474 C475 1.436 . S
N474 C501 1.316 . S
C475 N474 1.436 . S
C475 C476 1.421 . S
C475 C477 1.360 . S
C476 C475 1.421 . S
C476 C478 1.379 . S
C476 H479 0.929 . S
C477 C475 1.360 . S
C477 C481 1.393 . S
C477 H483 0.931 . S
C478 C476 1.379 . S
C478 C480 1.417 . S
C478 C482 1.505 . S
H479 C476 0.929 . S
C480 C478 1.417 . S
C480 C481 1.352 . S
C480 H484 0.929 . S
C481 C477 1.393 . S
C481 C480 1.352 . S
C481 C485 1.482 . S
C482 C478 1.505 . S
C482 O486 1.259 . S
C482 O487 1.229 . S
H483 C477 0.931 . S
H484 C480 0.929 . S
C485 C481 1.482 . S
C485 O488 1.207 . S
C485 O489 1.289 . S
O486 C482 1.259 . S
O486 H490 0.822 . S
O487 C482 1.229 . S
O488 C485 1.207 . S
O489 C485 1.289 . S
O489 H491 0.819 . S
H490 O486 0.822 . S
H491 O489 0.819 . S
N492 Co456 1.869 . S
N492 C493 1.330 . S
N492 C497 1.325 . S
C493 N492 1.330 . S
C493 C494 1.359 . S
C493 C499 1.504 . S
C494 C493 1.359 . S
C494 C495 1.366 . S
C494 H528 0.929 . S
C495 C494 1.366 . S
C495 C496 1.415 . S
C495 H529 0.932 . S
C496 C495 1.415 . S
C496 C497 1.366 . S
C496 H530 0.931 . S
C497 N492 1.325 . S
C497 C496 1.366 . S
C497 C501 1.516 . S
N498 Co456 1.974 . S
N498 C499 1.309 . S
N498 C504 1.423 . S
C499 C493 1.504 . S
C499 N498 1.309 . S
C499 O500 1.258 . S
O500 C499 1.258 . S
C501 N474 1.316 . S
C501 C497 1.516 . S
C501 O514 1.263 . S
O502 Cd445 2.350 . S
O502 C518 1.270 . S
O503 Cd445 2.277 . S
O503 C518 1.248 . S
C504 N498 1.423 . S
C504 C505 1.370 . S
C504 C509 1.403 . S
C505 C504 1.370 . S
C505 C506 1.389 . S
C505 H531 0.931 . S
C506 C505 1.389 . S
C506 C507 1.389 . S
C507 C506 1.389 . S
C507 C508 1.379 . S
C507 H532 0.929 . S
C508 C507 1.379 . S
C508 C509 1.405 . S
C509 C504 1.403 . S
C509 C508 1.405 . S
C509 H533 0.932 . S
O510 Cd445 2.173 . S
O510 C446 1.277 . S
O511 C446 1.230 . S
O511 Cd449 2.250 . S
O512 Cd445 2.263 . S
O512 C465 1.258 . S
O513 Cd449 2.308 . S
O513 C465 1.274 . S
O514 Cd445 2.366 . S
O514 C501 1.263 . S
C515 O516 1.235 . S
C515 O517 1.270 . S
O516 Cd449 2.352 . S
O516 C515 1.235 . S
O517 Cd445 2.329 . S
O517 C515 1.270 . S
C518 O502 1.270 . S
C518 O503 1.248 . S
H519 C451 0.930 . S
H520 C454 0.930 . S
H521 C455 0.931 . S
H522 C460 0.929 . S
H523 C462 0.930 . S
H524 C464 0.930 . S
H525 C467 0.929 . S
H526 C468 0.932 . S
H527 C470 0.930 . S
H528 C494 0.929 . S
H529 C495 0.932 . S
H530 C496 0.931 . S
H531 C505 0.931 . S
H532 C507 0.929 . S
H533 C509 0.932 . S
C534 C535 1.369 . S
C534 C536 1.419 . S
C534 H538 0.930 . S
C535 C534 1.369 . S
C535 C544 1.429 . S
C536 C534 1.419 . S
C536 C537 1.363 . S
C536 H539 0.929 . S
C537 C536 1.363 . S
C537 C543 1.428 . S
H538 C534 0.930 . S
H539 C536 0.929 . S
S540 N541 1.613 . S
S540 N542 1.610 . S
N541 S540 1.613 . S
N541 C544 1.350 . S
N542 S540 1.610 . S
N542 C543 1.351 . S
C543 C537 1.428 . S
C543 N542 1.351 . S
C543 C544 1.434 . S
C544 C535 1.429 . S
C544 N541 1.350 . S
C544 C543 1.434 . S
C545 C546 1.369 . S
C545 C547 1.419 . S
C545 H549 0.930 . S
C546 C545 1.369 . S
C546 C555 1.429 . S
C547 C545 1.419 . S
C547 C548 1.363 . S
C547 H550 0.929 . S
C548 C547 1.363 . S
C548 C554 1.428 . S
H549 C545 0.930 . S
H550 C547 0.929 . S
S551 N552 1.613 . S
S551 N553 1.610 . S
N552 S551 1.613 . S
N552 C555 1.350 . S
N553 S551 1.610 . S
N553 C554 1.351 . S
C554 C548 1.428 . S
C554 N553 1.351 . S
C554 C555 1.434 . S
C555 C546 1.429 . S
C555 N552 1.350 . S
C555 C554 1.434 . S
C556 C557 1.369 . S
C556 C558 1.419 . S
C556 H560 0.930 . S
C557 C556 1.369 . S
C557 C566 1.429 . S
C558 C556 1.419 . S
C558 C559 1.363 . S
C558 H561 0.929 . S
C559 C558 1.363 . S
C559 C565 1.428 . S
H560 C556 0.930 . S
H561 C558 0.929 . S
S562 N563 1.613 . S
S562 N564 1.610 . S
N563 S562 1.613 . S
N563 C566 1.350 . S
N564 S562 1.610 . S
N564 C565 1.351 . S
C565 C559 1.428 . S
C565 N564 1.351 . S
C565 C566 1.434 . S
C566 C557 1.429 . S
C566 N563 1.350 . S
C566 C565 1.434 . S
C567 C568 1.369 . S
C567 C569 1.419 . S
C567 H571 0.930 . S
C568 C567 1.369 . S
C568 C577 1.429 . S
C569 C567 1.419 . S
C569 C570 1.363 . S
C569 H572 0.929 . S
C570 C569 1.363 . S
C570 C576 1.428 . S
H571 C567 0.930 . S
H572 C569 0.929 . S
S573 N574 1.613 1_554 S
S573 N575 1.610 . S
N574 S573 1.613 1_556 S
N574 C577 1.350 . S
N575 S573 1.610 . S
N575 C576 1.351 1_554 S
C576 C570 1.428 . S
C576 N575 1.351 1_556 S
C576 C577 1.434 . S
C577 C568 1.429 . S
C577 N574 1.350 . S
C577 C576 1.434 . S
C578 C579 1.369 . S
C578 C580 1.419 . S
C578 H582 0.930 . S
C579 C578 1.369 . S
C579 C588 1.429 . S
C580 C578 1.419 . S
C580 C581 1.363 . S
C580 H583 0.929 . S
C581 C580 1.363 . S
C581 C587 1.428 . S
H582 C578 0.930 . S
H583 C580 0.929 . S
S584 N585 1.613 . S
S584 N586 1.610 . S
N585 S584 1.613 . S
N585 C588 1.350 . S
N586 S584 1.610 . S
N586 C587 1.351 . S
C587 C581 1.428 . S
C587 N586 1.351 . S
C587 C588 1.434 . S
C588 C579 1.429 . S
C588 N585 1.350 . S
C588 C587 1.434 . S
C589 C590 1.369 . S
C589 C591 1.419 . S
C589 H593 0.930 . S
C590 C589 1.369 . S
C590 C599 1.429 . S
C591 C589 1.419 . S
C591 C592 1.363 . S
C591 H594 0.929 . S
C592 C591 1.363 . S
C592 C598 1.428 . S
H593 C589 0.930 . S
H594 C591 0.929 . S
S595 N596 1.613 . S
S595 N597 1.610 . S
N596 S595 1.613 . S
N596 C599 1.350 . S
N597 S595 1.610 . S
N597 C598 1.351 . S
C598 C592 1.428 . S
C598 N597 1.351 . S
C598 C599 1.434 . S
C599 C590 1.429 . S
C599 N596 1.350 . S
C599 C598 1.434 . S
C600 C601 1.369 . S
C600 C602 1.419 . S
C600 H604 0.930 . S
C601 C600 1.369 . S
C601 C610 1.429 . S
C602 C600 1.419 . S
C602 C603 1.363 . S
C602 H605 0.929 . S
C603 C602 1.363 . S
C603 C609 1.428 . S
H604 C600 0.930 . S
H605 C602 0.929 . S
S606 N607 1.613 . S
S606 N608 1.610 . S
N607 S606 1.613 . S
N607 C610 1.350 . S
N608 S606 1.610 . S
N608 C609 1.351 . S
C609 C603 1.428 . S
C609 N608 1.351 . S
C609 C610 1.434 . S
C610 C601 1.429 . S
C610 N607 1.350 . S
C610 C609 1.434 . S
C611 C612 1.369 . S
C611 C613 1.419 . S
C611 H615 0.930 . S
C612 C611 1.369 . S
C612 C621 1.429 . S
C613 C611 1.419 . S
C613 C614 1.363 . S
C613 H616 0.929 . S
C614 C613 1.363 . S
C614 C620 1.428 . S
H615 C611 0.930 . S
H616 C613 0.929 . S
S617 N618 1.613 . S
S617 N619 1.610 . S
N618 S617 1.613 . S
N618 C621 1.350 . S
N619 S617 1.610 . S
N619 C620 1.351 . S
C620 C614 1.428 . S
C620 N619 1.351 . S
C620 C621 1.434 . S
C621 C612 1.429 . S
C621 N618 1.350 . S
C621 C620 1.434 . S
C622 C623 1.369 . S
C622 C624 1.419 . S
C622 H626 0.930 . S
C623 C622 1.369 . S
C623 C632 1.429 . S
C624 C622 1.419 . S
C624 C625 1.363 . S
C624 H627 0.929 . S
C625 C624 1.363 . S
C625 C631 1.428 . S
H626 C622 0.930 . S
H627 C624 0.929 . S
S628 N629 1.613 . S
S628 N630 1.610 . S
N629 S628 1.613 . S
N629 C632 1.350 . S
N630 S628 1.610 . S
N630 C631 1.351 . S
C631 C625 1.428 . S
C631 N630 1.351 . S
C631 C632 1.434 . S
C632 C623 1.429 . S
C632 N629 1.350 . S
C632 C631 1.434 . S
C633 C634 1.369 . S
C633 C635 1.419 . S
C633 H637 0.930 . S
C634 C633 1.369 . S
C634 C643 1.429 . S
C635 C633 1.419 . S
C635 C636 1.363 . S
C635 H638 0.929 . S
C636 C635 1.363 . S
C636 C642 1.428 . S
H637 C633 0.930 . S
H638 C635 0.929 . S
S639 N640 1.613 . S
S639 N641 1.610 . S
N640 S639 1.613 . S
N640 C643 1.350 . S
N641 S639 1.610 . S
N641 C642 1.351 . S
C642 C636 1.428 . S
C642 N641 1.351 . S
C642 C643 1.434 . S
C643 C634 1.429 . S
C643 N640 1.350 . S
C643 C642 1.434 . S
C644 C645 1.369 . S
C644 C646 1.419 . S
C644 H648 0.930 . S
C645 C644 1.369 . S
C645 C654 1.429 . S
C646 C644 1.419 . S
C646 C647 1.363 . S
C646 H649 0.929 . S
C647 C646 1.363 . S
C647 C653 1.428 . S
H648 C644 0.930 . S
H649 C646 0.929 . S
S650 N651 1.613 . S
S650 N652 1.610 . S
N651 S650 1.613 . S
N651 C654 1.350 . S
N652 S650 1.610 . S
N652 C653 1.351 . S
C653 C647 1.428 . S
C653 N652 1.351 . S
C653 C654 1.434 . S
C654 C645 1.429 . S
C654 N651 1.350 . S
C654 C653 1.434 . S
C655 C656 1.369 . S
C655 C657 1.419 . S
C655 H659 0.930 . S
C656 C655 1.369 . S
C656 C665 1.429 . S
C657 C655 1.419 . S
C657 C658 1.363 . S
C657 H660 0.929 . S
C658 C657 1.363 . S
C658 C664 1.428 . S
H659 C655 0.930 . S
H660 C657 0.929 . S
S661 N662 1.613 . S
S661 N663 1.610 . S
N662 S661 1.613 . S
N662 C665 1.350 . S
N663 S661 1.610 . S
N663 C664 1.351 . S
C664 C658 1.428 . S
C664 N663 1.351 . S
C664 C665 1.434 . S
C665 C656 1.429 . S
C665 N662 1.350 . S
C665 C664 1.434 . S
C666 C667 1.369 1_655 S
C666 C668 1.419 . S
C666 H670 0.930 . S
C667 C666 1.369 1_455 S
C667 C676 1.429 . S
C668 C666 1.419 . S
C668 C669 1.363 . S
C668 H671 0.929 . S
C669 C668 1.363 . S
C669 C675 1.428 1_655 S
H670 C666 0.930 . S
H671 C668 0.929 . S
S672 N673 1.613 . S
S672 N674 1.610 . S
N673 S672 1.613 . S
N673 C676 1.350 . S
N674 S672 1.610 . S
N674 C675 1.351 . S
C675 C669 1.428 1_455 S
C675 N674 1.351 . S
C675 C676 1.434 . S
C676 C667 1.429 . S
C676 N673 1.350 . S
C676 C675 1.434 . S
C677 C678 1.369 . S
C677 C679 1.419 . S
C677 H681 0.930 . S
C678 C677 1.369 . S
C678 C687 1.429 . S
C679 C677 1.419 . S
C679 C680 1.363 . S
C679 H682 0.929 . S
C680 C679 1.363 . S
C680 C686 1.428 . S
H681 C677 0.930 . S
H682 C679 0.929 . S
S683 N684 1.613 . S
S683 N685 1.610 . S
N684 S683 1.613 . S
N684 C687 1.350 . S
N685 S683 1.610 . S
N685 C686 1.351 . S
C686 C680 1.428 . S
C686 N685 1.351 . S
C686 C687 1.434 . S
C687 C678 1.429 . S
C687 N684 1.350 . S
C687 C686 1.434 . S
C688 C689 1.369 1_565 S
C688 C690 1.419 . S
C688 H692 0.930 . S
C689 C688 1.369 1_545 S
C689 C698 1.429 . S
C690 C688 1.419 . S
C690 C691 1.363 . S
C690 H693 0.929 . S
C691 C690 1.363 . S
C691 C697 1.428 1_565 S
H692 C688 0.930 . S
H693 C690 0.929 . S
S694 N695 1.613 . S
S694 N696 1.610 . S
N695 S694 1.613 . S
N695 C698 1.350 . S
N696 S694 1.610 . S
N696 C697 1.351 . S
C697 C691 1.428 1_545 S
C697 N696 1.351 . S
C697 C698 1.434 . S
C698 C689 1.429 . S
C698 N695 1.350 . S
C698 C697 1.434 . S
C699 C700 1.369 . S
C699 C701 1.419 . S
C699 H703 0.930 . S
C700 C699 1.369 . S
C700 C709 1.429 . S
C701 C699 1.419 . S
C701 C702 1.363 . S
C701 H704 0.929 . S
C702 C701 1.363 . S
C702 C708 1.428 . S
H703 C699 0.930 . S
H704 C701 0.929 . S
S705 N706 1.613 . S
S705 N707 1.610 . S
N706 S705 1.613 . S
N706 C709 1.350 . S
N707 S705 1.610 . S
N707 C708 1.351 . S
C708 C702 1.428 . S
C708 N707 1.351 . S
C708 C709 1.434 . S
C709 C700 1.429 . S
C709 N706 1.350 . S
C709 C708 1.434 . S
C710 C711 1.369 . S
C710 C712 1.419 . S
C710 H714 0.930 . S
C711 C710 1.369 . S
C711 C720 1.429 . S
C712 C710 1.419 . S
C712 C713 1.363 . S
C712 H715 0.929 . S
C713 C712 1.363 . S
C713 C719 1.428 . S
H714 C710 0.930 . S
H715 C712 0.929 . S
S716 N717 1.613 . S
S716 N718 1.610 . S
N717 S716 1.613 . S
N717 C720 1.350 . S
N718 S716 1.610 . S
N718 C719 1.351 . S
C719 C713 1.428 . S
C719 N718 1.351 . S
C719 C720 1.434 . S
C720 C711 1.429 . S
C720 N717 1.350 . S
C720 C719 1.434 . S
C721 C722 1.369 . S
C721 C723 1.419 . S
C721 H725 0.930 . S
C722 C721 1.369 . S
C722 C731 1.429 . S
C723 C721 1.419 . S
C723 C724 1.363 . S
C723 H726 0.929 . S
C724 C723 1.363 . S
C724 C730 1.428 . S
H725 C721 0.930 . S
H726 C723 0.929 . S
S727 N728 1.613 . S
S727 N729 1.610 . S
N728 S727 1.613 . S
N728 C731 1.350 . S
N729 S727 1.610 . S
N729 C730 1.351 . S
C730 C724 1.428 . S
C730 N729 1.351 . S
C730 C731 1.434 . S
C731 C722 1.429 . S
C731 N728 1.350 . S
C731 C730 1.434 . S
C732 C733 1.369 . S
C732 C734 1.419 . S
C732 H736 0.930 . S
C733 C732 1.369 . S
C733 C742 1.429 . S
C734 C732 1.419 . S
C734 C735 1.363 . S
C734 H737 0.929 . S
C735 C734 1.363 . S
C735 C741 1.428 . S
H736 C732 0.930 . S
H737 C734 0.929 . S
S738 N739 1.613 . S
S738 N740 1.610 . S
N739 S738 1.613 . S
N739 C742 1.350 . S
N740 S738 1.610 . S
N740 C741 1.351 . S
C741 C735 1.428 . S
C741 N740 1.351 . S
C741 C742 1.434 . S
C742 C733 1.429 . S
C742 N739 1.350 . S
C742 C741 1.434 . S
C743 C744 1.369 . S
C743 C745 1.419 . S
C743 H747 0.930 . S
C744 C743 1.369 . S
C744 C753 1.429 . S
C745 C743 1.419 . S
C745 C746 1.363 . S
C745 H748 0.929 . S
C746 C745 1.363 . S
C746 C752 1.428 . S
H747 C743 0.930 . S
H748 C745 0.929 . S
S749 N750 1.613 . S
S749 N751 1.610 . S
N750 S749 1.613 . S
N750 C753 1.350 . S
N751 S749 1.610 . S
N751 C752 1.351 . S
C752 C746 1.428 . S
C752 N751 1.351 . S
C752 C753 1.434 . S
C753 C744 1.429 . S
C753 N750 1.350 . S
C753 C752 1.434 . S
C754 C755 1.369 . S
C754 C756 1.419 . S
C754 H758 0.930 . S
C755 C754 1.369 . S
C755 C764 1.429 . S
C756 C754 1.419 . S
C756 C757 1.363 . S
C756 H759 0.929 . S
C757 C756 1.363 . S
C757 C763 1.428 . S
H758 C754 0.930 . S
H759 C756 0.929 . S
S760 N761 1.613 . S
S760 N762 1.610 . S
N761 S760 1.613 . S
N761 C764 1.350 . S
N762 S760 1.610 . S
N762 C763 1.351 . S
C763 C757 1.428 . S
C763 N762 1.351 . S
C763 C764 1.434 . S
C764 C755 1.429 . S
C764 N761 1.350 . S
C764 C763 1.434 . S
C535 C1 2.031 . S
C537 C328 1.665 . S
C546 C90 2.034 . S
C548 C417 1.676 . S
C557 C179 2.030 . S
C559 C506 1.665 . S
C568 C268 2.032 . S
C570 C61 1.674 . S
C579 C357 2.030 . S
C581 C150 1.668 . S
C590 C446 2.034 . S
C592 C239 1.675 . S
C601 C463 2.866 . S
C603 C73 2.861 . S
C612 C162 2.860 . S
C614 C285 2.865 . S
C623 C374 2.862 . S
C625 C251 2.859 . S
C634 C107 2.866 . S
C636 C340 2.862 . S
C645 C429 2.863 . S
C647 C196 2.865 . S
C656 C18 2.864 . S
C658 C518 2.859 . S
C667 C419 2.251 . S
C669 C63 2.247 . S
C678 C508 2.250 . S
C680 C152 2.247 . S
C689 C241 2.251 . S
C691 C330 2.247 . S
C700 C26 0.898 . S
C702 C159 0.727 . S
C711 C248 0.731 . S
C713 C115 0.887 . S
C722 C70 0.735 . S
C724 C204 0.898 . S
C733 C515 0.756 . S
C735 C293 0.878 . S
C744 C337 0.752 . S
C746 C382 0.878 . S
C755 C471 0.884 . S
C757 C426 0.735 . S
