# Generated by pormake.
# Topology smu, (6)-cn, num edge types: 1
# Building blocks:
#     Node 0, Type 0, BuildingBlock: MIFKUJ_clean_sbu_0, # of connection points: 6
#     Node 1, Type 0, BuildingBlock: MIFKUJ_clean_sbu_0, # of connection points: 6
#     Node 2, Type 0, BuildingBlock: MIFKUJ_clean_sbu_0, # of connection points: 6
#     Node 3, Type 0, BuildingBlock: MIFKUJ_clean_sbu_0, # of connection points: 6
#     Node 4, Type 0, BuildingBlock: MIFKUJ_clean_sbu_0, # of connection points: 6
#     Node 5, Type 0, BuildingBlock: MIFKUJ_clean_sbu_0, # of connection points: 6
#     Edge 6, Type (0, 0), BuildingBlock: TEMPAE_clean_linker_10, # of connection points: 2
#     Edge 7, Type (0, 0), BuildingBlock: TEMPAE_clean_linker_10, # of connection points: 2
#     Edge 8, Type (0, 0), BuildingBlock: TEMPAE_clean_linker_10, # of connection points: 2
#     Edge 9, Type (0, 0), BuildingBlock: TEMPAE_clean_linker_10, # of connection points: 2
#     Edge 10, Type (0, 0), BuildingBlock: TEMPAE_clean_linker_10, # of connection points: 2
#     Edge 11, Type (0, 0), BuildingBlock: TEMPAE_clean_linker_10, # of connection points: 2
#     Edge 12, Type (0, 0), BuildingBlock: TEMPAE_clean_linker_10, # of connection points: 2
#     Edge 13, Type (0, 0), BuildingBlock: TEMPAE_clean_linker_10, # of connection points: 2
#     Edge 14, Type (0, 0), BuildingBlock: TEMPAE_clean_linker_10, # of connection points: 2
#     Edge 15, Type (0, 0), BuildingBlock: TEMPAE_clean_linker_10, # of connection points: 2
#     Edge 16, Type (0, 0), BuildingBlock: TEMPAE_clean_linker_10, # of connection points: 2
#     Edge 17, Type (0, 0), BuildingBlock: TEMPAE_clean_linker_10, # of connection points: 2
#     Edge 18, Type (0, 0), BuildingBlock: TEMPAE_clean_linker_10, # of connection points: 2
#     Edge 19, Type (0, 0), BuildingBlock: TEMPAE_clean_linker_10, # of connection points: 2
#     Edge 20, Type (0, 0), BuildingBlock: TEMPAE_clean_linker_10, # of connection points: 2
#     Edge 21, Type (0, 0), BuildingBlock: TEMPAE_clean_linker_10, # of connection points: 2
#     Edge 22, Type (0, 0), BuildingBlock: TEMPAE_clean_linker_10, # of connection points: 2
#     Edge 23, Type (0, 0), BuildingBlock: TEMPAE_clean_linker_10, # of connection points: 2
# Relax obj value: 0.231
# Max RMSD: 0.293
# Mean RMSD: 0.293
data_MOF--net-smu--node1-MIFKUJ_clean_sbu_0--edge1-TEMPAE_clean_linker_10
_symmetry_space_group_name_H-M    P1
_symmetry_Int_Tables_number       1
_symmetry_cell_setting            triclinic
loop_
_symmetry_equiv_pos_as_xyz
'x, y, z'
_cell_length_a     34.241055
_cell_length_b     33.847862
_cell_length_c     27.899408
_cell_angle_alpha  90.3808
_cell_angle_beta   89.85396
_cell_angle_gamma 120.41908
loop_
_atom_site_label
_atom_site_type_symbol
_atom_site_fract_x
_atom_site_fract_y
_atom_site_fract_z
_atom_type_partial_charge
Zn0 Zn 0.2875 0.07029 0.20998 0.0
Zn1 Zn 0.40544 0.13775 0.21452 0.0
C2 C 0.27437 0.13963 0.24693 0.0
O3 O 0.26465 0.11281 0.28431 0.0
C4 C 0.48074 0.12787 0.22966 0.0
O5 O 0.44773 0.08525 0.23441 0.0
O6 O 0.22234 0.02127 0.20917 0.0
O7 O 0.3128 0.058 0.15176 0.0
O8 O 0.38752 0.1018 0.15275 0.0
C9 C 0.18848 0.02444 0.19638 0.0
O10 O 0.19465 0.06365 0.1805 0.0
O11 O 0.28985 0.13066 0.2096 0.0
C12 C 0.40455 0.21607 0.25105 0.0
O13 O 0.4001 0.1948 0.29168 0.0
O14 O 0.40276 0.1956 0.21205 0.0
O15 O 0.38203 0.10295 0.27599 0.0
O16 O 0.30788 0.05757 0.27115 0.0
O17 O 0.47113 0.15854 0.21965 0.0
C18 C 0.35117 0.07167 0.13275 0.0
C19 C 0.34477 0.07256 0.29371 0.0
Zn20 Zn 0.78529 0.74167 0.25235 0.0
Zn21 Zn 0.73681 0.61123 0.24927 0.0
C22 C 0.87441 0.77442 0.27634 0.0
O23 O 0.85846 0.78299 0.31547 0.0
C24 C 0.64128 0.54438 0.25165 0.0
O25 O 0.6374 0.58107 0.25251 0.0
O26 O 0.79754 0.80728 0.25585 0.0
O27 O 0.74726 0.71284 0.19497 0.0
O28 O 0.72587 0.63888 0.19096 0.0
C29 C 0.82551 0.83646 0.22624 0.0
O30 O 0.84324 0.82252 0.19311 0.0
O31 O 0.84663 0.7497 0.24392 0.0
C32 C 0.78486 0.56716 0.27273 0.0
O33 O 0.75537 0.55516 0.30781 0.0
O34 O 0.78715 0.59628 0.24244 0.0
O35 O 0.73436 0.63743 0.31333 0.0
O36 O 0.75754 0.71184 0.31408 0.0
O37 O 0.68054 0.5491 0.25034 0.0
C38 C 0.72786 0.67442 0.17342 0.0
C39 C 0.74059 0.67337 0.33489 0.0
Zn40 Zn 0.99459 0.27042 0.22803 0.0
Zn41 Zn 0.89711 0.26527 0.23064 0.0
C42 C 0.95681 0.17843 0.26003 0.0
O43 O 0.99082 0.2002 0.29002 0.0
C44 C 0.87765 0.3348 0.20285 0.0
O45 O 0.85032 0.3014 0.17389 0.0
O46 O 0.05537 0.27518 0.22484 0.0
O47 O 0.98875 0.2991 0.16977 0.0
O48 O 0.91529 0.25173 0.16568 0.0
C49 C 0.0605 0.25023 0.19424 0.0
O50 O 0.02711 0.22495 0.1646 0.0
O51 O 0.94892 0.20184 0.23013 0.0
C52 C 0.80909 0.22808 0.26872 0.0
O53 O 0.83222 0.25702 0.30336 0.0
O54 O 0.83028 0.22371 0.2336 0.0
O55 O 0.92027 0.25838 0.29529 0.0
O56 O 0.9941 0.30201 0.28689 0.0
O57 O 0.9043 0.32882 0.22958 0.0
C58 C 0.9531 0.27665 0.14513 0.0
C59 C 0.95934 0.28388 0.31329 0.0
Zn60 Zn 0.07877 0.40131 0.73399 0.0
Zn61 Zn 0.02321 0.26165 0.75392 0.0
C62 C 0.17025 0.45589 0.76146 0.0
O63 O 0.15055 0.47242 0.78888 0.0
C64 C 0.92639 0.19635 0.76747 0.0
O65 O 0.9208 0.21852 0.73218 0.0
O66 O 0.07634 0.45714 0.71525 0.0
O67 O 0.04223 0.34795 0.6858 0.0
O68 O 0.0097 0.27142 0.68745 0.0
C69 C 0.1037 0.4841 0.68397 0.0
O70 O 0.12856 0.47147 0.65971 0.0
O71 O 0.14553 0.42159 0.73464 0.0
C72 C 0.0656 0.21057 0.77958 0.0
O73 O 0.03642 0.19785 0.815 0.0
O74 O 0.06813 0.24024 0.7501 0.0
O75 O 0.04913 0.32409 0.77726 0.0
O76 O 0.05344 0.38643 0.8011 0.0
O77 O 0.96587 0.21152 0.78462 0.0
C78 C 0.01949 0.30845 0.66573 0.0
C79 C 0.03954 0.34469 0.8087 0.0
Zn80 Zn 0.31061 0.90785 0.7114 0.0
Zn81 Zn 0.23596 0.95666 0.71671 0.0
C82 C 0.24812 0.81891 0.74283 0.0
O83 O 0.27767 0.8332 0.77808 0.0
C84 C 0.18917 1.00528 0.69746 0.0
O85 O 0.16546 0.97035 0.66853 0.0
O86 O 0.36203 0.8953 0.71098 0.0
O87 O 0.31765 0.94288 0.6515 0.0
O88 O 0.26843 0.96727 0.65422 0.0
C89 C 0.36084 0.8606 0.69172 0.0
O90 O 0.32422 0.83048 0.66865 0.0
O91 O 0.2531 0.84697 0.71009 0.0
C92 C 0.1519 0.9002 0.75725 0.0
O93 O 0.17462 0.92918 0.79203 0.0
O94 O 0.17351 0.90043 0.71994 0.0
O95 O 0.273 0.96803 0.77556 0.0
O96 O 0.32008 0.94127 0.77343 0.0
O97 O 0.22219 0.00749 0.72046 0.0
C98 C 0.29878 0.963 0.63256 0.0
C99 C 0.30355 0.9627 0.79469 0.0
Zn100 Zn 0.60393 0.6981 0.74967 0.0
Zn101 Zn 0.72944 0.77382 0.75242 0.0
C102 C 0.5839 0.76495 0.77612 0.0
O103 O 0.5722 0.73933 0.81467 0.0
C104 C 0.82716 0.82096 0.73483 0.0
O105 O 0.81968 0.84976 0.71085 0.0
O106 O 0.5371 0.64997 0.75087 0.0
O107 O 0.63011 0.6846 0.692 0.0
O108 O 0.70428 0.7337 0.69475 0.0
C109 C 0.50925 0.6533 0.72348 0.0
O110 O 0.52472 0.68722 0.6928 0.0
O111 O 0.60496 0.75742 0.74312 0.0
C112 C 0.72952 0.85659 0.78274 0.0
O113 O 0.71604 0.83541 0.824 0.0
O114 O 0.73362 0.83542 0.747 0.0
O115 O 0.70246 0.74158 0.81353 0.0
O116 O 0.62827 0.69283 0.8129 0.0
O117 O 0.79415 0.78698 0.7554 0.0
C118 C 0.66953 0.70153 0.67419 0.0
C119 C 0.66636 0.71193 0.83407 0.0
C120 C 0.30886 0.01316 0.86267 0.0
C121 C 0.31949 0.98144 0.84325 0.0
C122 C 0.32065 0.02897 0.90981 0.0
C123 C 0.34326 0.01235 0.93837 0.0
C124 C 0.35578 0.98179 0.9185 0.0
C125 C 0.34385 0.96675 0.87096 0.0
C126 C 0.3071 0.06197 0.92964 0.0
C127 C 0.37979 0.96331 0.94808 0.0
C128 C 0.38972 0.07809 0.05451 0.0
C129 C 0.35276 0.05333 0.08518 0.0
C130 C 0.38838 0.06377 0.00692 0.0
C131 C 0.3494 0.02364 -0.00983 0.0
C132 C 0.31345 0.99691 0.022 0.0
C133 C 0.31548 0.01222 0.06907 0.0
C134 C 0.4273 0.0931 0.97386 0.0
C135 C 0.27155 0.95355 0.0056 0.0
H136 H 0.29059 0.02515 0.84124 0.0
H137 H 0.35225 0.94232 0.85608 0.0
H138 H 0.28097 0.04478 0.9578 0.0
H139 H 0.33664 0.09189 0.94657 0.0
H140 H 0.29318 0.07456 0.90156 0.0
H141 H 0.39199 0.94439 0.92583 0.0
H142 H 0.40907 0.99155 0.96727 0.0
H143 H 0.35628 0.93968 0.9756 0.0
H144 H 0.41868 0.10983 0.0669 0.0
H145 H 0.28715 0.99256 0.09293 0.0
H146 H 0.41676 0.11102 0.94841 0.0
H147 H 0.43689 0.07164 0.95235 0.0
H148 H 0.45755 0.11924 -0.00617 0.0
H149 H 0.25214 0.9623 0.98032 0.0
H150 H 0.24903 0.93421 0.03599 0.0
H151 H 0.28099 0.93088 0.98622 0.0
C152 C 0.63924 0.66274 0.59533 0.0
C153 C 0.67557 0.68493 0.62742 0.0
C154 C 0.6464 0.65317 0.54823 0.0
C155 C 0.69078 0.66583 0.53344 0.0
C156 C 0.72681 0.6848 0.56685 0.0
C157 C 0.71879 0.69434 0.61345 0.0
C158 C 0.6072 0.63284 0.51345 0.0
C159 C 0.77452 0.69822 0.5525 0.0
C160 C 0.71327 0.63047 0.41204 0.0
C161 C 0.72665 0.67037 0.38544 0.0
C162 C 0.70054 0.62792 0.46026 0.0
C163 C 0.70106 0.66605 0.48194 0.0
C164 C 0.7137 0.70602 0.45502 0.0
C165 C 0.72648 0.70774 0.40717 0.0
C166 C 0.68749 0.58494 0.48821 0.0
C167 C 0.71445 0.74737 0.47697 0.0
H168 H 0.60571 0.65514 0.60612 0.0
H169 H 0.74683 0.7107 0.63848 0.0
H170 H 0.61065 0.65986 0.48856 0.0
H171 H 0.60726 0.60544 0.4915 0.0
H172 H 0.57408 0.61845 0.53206 0.0
H173 H 0.79712 0.70642 0.58407 0.0
H174 H 0.77471 0.67033 0.53161 0.0
H175 H 0.78872 0.72888 0.52922 0.0
H176 H 0.71328 0.60143 0.39543 0.0
H177 H 0.7364 0.73857 0.3868 0.0
H178 H 0.65392 0.57204 0.5053 0.0
H179 H 0.71236 0.59276 0.5174 0.0
H180 H 0.68618 0.55733 0.46528 0.0
H181 H 0.68089 0.73735 0.49262 0.0
H182 H 0.72322 0.77497 0.45045 0.0
H183 H 0.73963 0.76145 0.50649 0.0
C184 C 0.91905 0.25024 0.06333 0.0
C185 C 0.95663 0.27809 0.09242 0.0
C186 C 0.92302 0.25186 0.01316 0.0
C187 C 0.96536 0.28232 -0.0079 0.0
C188 C 0.00341 0.31001 0.02139 0.0
C189 C 0.99856 0.30746 0.07109 0.0
C190 C 0.88198 0.22162 0.98279 0.0
C191 C 0.04928 0.34308 0.00031 0.0
C192 C 0.00902 0.28226 0.86889 0.0
C193 C 0.01045 0.32112 0.84994 0.0
C194 C 0.98882 0.26503 0.91347 0.0
C195 C 0.97057 0.28795 0.93957 0.0
C196 C 0.96772 0.32417 0.91815 0.0
C197 C 0.98793 0.34048 0.8735 0.0
C198 C 0.99169 0.22569 0.9347 0.0
C199 C 0.94811 0.34922 0.9446 0.0
H200 H 0.8866 0.22725 0.07968 0.0
H201 H 0.02782 0.329 0.09326 0.0
H202 H 0.87128 0.24304 0.96333 0.0
H203 H 0.89027 0.20305 0.95544 0.0
H204 H 0.85301 0.19623 0.00463 0.0
H205 H 0.07553 0.36141 0.02829 0.0
H206 H 0.06068 0.32448 0.97654 0.0
H207 H 0.04693 0.36893 0.97821 0.0
H208 H 0.02663 0.26744 0.85073 0.0
H209 H 0.98834 0.37011 0.85836 0.0
H210 H 0.96128 0.20337 0.95647 0.0
H211 H 0.02169 0.23947 0.95859 0.0
H212 H 0.99539 0.20458 0.90637 0.0
H213 H 0.91664 0.32488 0.96375 0.0
H214 H 0.94051 0.37017 0.92002 0.0
H215 H 0.97287 0.37243 0.97179 0.0
C216 C 0.30529 0.01499 0.35782 0.0
C217 C 0.3437 0.05529 0.34235 0.0
C218 C 0.30194 0.99981 0.40497 0.0
C219 C 0.33764 0.02589 0.43751 0.0
C220 C 0.37718 0.06578 0.42178 0.0
C221 C 0.37987 0.07991 0.37415 0.0
C222 C 0.25945 0.95674 0.42036 0.0
C223 C 0.41572 0.09455 0.45573 0.0
C224 C 0.29988 0.01282 0.56662 0.0
C225 C 0.3119 0.98155 0.58369 0.0
C226 C 0.3098 0.02896 0.51956 0.0
C227 C 0.3318 0.01301 0.48872 0.0
C228 C 0.34516 0.98243 0.50602 0.0
C229 C 0.33525 0.96721 0.55351 0.0
C230 C 0.29549 0.06201 0.50244 0.0
C231 C 0.36831 0.96446 0.47387 0.0
H232 H 0.27744 0.99553 0.33322 0.0
H233 H 0.40962 0.11111 0.36233 0.0
H234 H 0.26826 0.933 0.43804 0.0
H235 H 0.24081 0.9655 0.44692 0.0
H236 H 0.23647 0.93854 0.38973 0.0
H237 H 0.44556 0.12236 0.43695 0.0
H238 H 0.40425 0.11024 0.48328 0.0
H239 H 0.42635 0.07288 0.47479 0.0
H240 H 0.28228 0.02444 0.58993 0.0
H241 H 0.3446 0.94301 0.56652 0.0
H242 H 0.26905 0.04534 0.47439 0.0
H243 H 0.32464 0.09249 0.48605 0.0
H244 H 0.28176 0.07366 0.53192 0.0
H245 H 0.3447 0.9429 0.44504 0.0
H246 H 0.37952 0.94361 0.49378 0.0
H247 H 0.39818 0.99323 0.45629 0.0
C248 C 0.71188 0.71674 0.90546 0.0
C249 C 0.66929 0.69954 0.88395 0.0
C250 C 0.71579 0.70704 0.95315 0.0
C251 C 0.67612 0.67956 0.98008 0.0
C252 C 0.63299 0.66111 0.95848 0.0
C253 C 0.63005 0.67132 0.91046 0.0
C254 C 0.76245 0.72722 0.97504 0.0
C255 C 0.5901 0.63172 0.98642 0.0
C256 C 0.70046 0.63631 0.09382 0.0
C257 C 0.70798 0.67152 0.12591 0.0
C258 C 0.68697 0.63667 0.04655 0.0
C259 C 0.68049 0.6728 0.03158 0.0
C260 C 0.68472 0.70644 0.06485 0.0
C261 C 0.69872 0.70556 0.11163 0.0
C262 C 0.68287 0.60032 0.01186 0.0
C263 C 0.67747 0.74517 0.05025 0.0
H264 H 0.7424 0.73827 0.88516 0.0
H265 H 0.59703 0.65785 0.89401 0.0
H266 H 0.76651 0.75133 0.00436 0.0
H267 H 0.76682 0.69974 -0.00906 0.0
H268 H 0.78985 0.74598 0.94842 0.0
H269 H 0.55944 0.61713 0.96336 0.0
H270 H 0.59159 0.60321 0.00398 0.0
H271 H 0.58666 0.6525 0.01523 0.0
H272 H 0.70731 0.60976 0.10485 0.0
H273 H 0.70363 0.73235 0.13665 0.0
H274 H 0.71216 0.61554 0.98697 0.0
H275 H 0.65173 0.58709 -0.01012 0.0
H276 H 0.68229 0.57114 0.03054 0.0
H277 H 0.70566 0.76909 0.02669 0.0
H278 H 0.67611 0.76477 0.08167 0.0
H279 H 0.64559 0.73187 0.02955 0.0
C280 C 0.00816 0.30707 0.38579 0.0
C281 C 0.96507 0.28995 0.36558 0.0
C282 C 0.01435 0.31148 0.43541 0.0
C283 C 0.97659 0.299 0.46546 0.0
C284 C 0.93318 0.28292 0.44536 0.0
C285 C 0.92784 0.27823 0.39547 0.0
C286 C 0.06108 0.32817 0.4557 0.0
C287 C 0.89237 0.2699 0.47654 0.0
C288 C 0.98953 0.26425 0.58981 0.0
C289 C 0.00509 0.30533 0.61544 0.0
C290 C 0.97845 0.26127 0.54124 0.0
C291 C 0.98252 0.30016 0.51797 0.0
C292 C 0.99627 0.34113 0.54402 0.0
C293 C 0.00775 0.34337 0.59253 0.0
C294 C 0.96444 0.21716 0.51434 0.0
C295 C 1.00031 0.38301 0.52028 0.0
H296 H 0.03706 0.31605 0.36287 0.0
H297 H 0.89454 0.26533 0.37991 0.0
H298 H 0.07131 0.35837 0.47928 0.0
H299 H 0.06075 0.30097 0.47799 0.0
H300 H 0.08706 0.33777 0.42725 0.0
H301 H 0.86173 0.26136 0.45514 0.0
H302 H 0.88501 0.23978 0.49865 0.0
H303 H 0.89936 0.29836 0.50156 0.0
H304 H 0.98731 0.23468 0.60729 0.0
H305 H 0.01928 0.37506 0.61232 0.0
H306 H 0.99046 0.223 0.48707 0.0
H307 H 0.93212 0.20558 0.49504 0.0
H308 H 0.96021 0.18925 0.53843 0.0
H309 H 0.02855 0.39685 0.49408 0.0
H310 H 0.0068 0.41045 0.5466 0.0
H311 H 0.96891 0.37382 0.50013 0.0
C312 C 0.53806 0.10752 0.25537 0.0
C313 C 0.52818 0.14 0.23712 0.0
C314 C 0.58292 0.11863 0.26311 0.0
C315 C 0.61861 0.16311 0.25189 0.0
C316 C 0.60888 0.19607 0.2335 0.0
C317 C 0.56371 0.18416 0.22651 0.0
C318 C 0.59216 0.08282 0.28318 0.0
C319 C 0.64621 0.24382 0.22083 0.0
C320 C 0.73571 0.21136 0.3053 0.0
C321 C 0.75935 0.20642 0.26683 0.0
C322 C 0.68931 0.19577 0.30163 0.0
C323 C 0.6663 0.17514 0.25836 0.0
C324 C 0.68956 0.16841 0.22014 0.0
C325 C 0.73582 0.18395 0.22492 0.0
C326 C 0.66533 0.20297 0.34333 0.0
C327 C 0.66609 0.14665 0.17339 0.0
H328 H 0.51071 0.0734 0.26393 0.0
H329 H 0.55626 0.20939 0.21238 0.0
H330 H 0.61248 0.07566 0.25729 0.0
H331 H 0.61235 0.09574 0.31661 0.0
H332 H 0.56051 0.05017 0.29115 0.0
H333 H 0.63286 0.26544 0.20712 0.0
H334 H 0.6675 0.26089 0.2528 0.0
H335 H 0.66854 0.24199 0.1931 0.0
H336 H 0.75367 0.22846 0.33788 0.0
H337 H 0.75387 0.17999 0.19504 0.0
H338 H 0.63403 0.17044 0.35231 0.0
H339 H 0.65504 0.22808 0.33334 0.0
H340 H 0.68706 0.21588 0.3758 0.0
H341 H 0.63517 0.11308 0.18006 0.0
H342 H 0.68833 0.14138 0.14831 0.0
H343 H 0.65525 0.16881 0.15572 0.0
C344 C 0.5569 0.49211 0.25178 0.0
C345 C 0.60055 0.49799 0.25185 0.0
C346 C 0.51821 0.44808 0.25163 0.0
C347 C 0.52341 0.40919 0.25158 0.0
C348 C 0.56738 0.41498 0.25176 0.0
C349 C 0.60533 0.45923 0.25188 0.0
C350 C 0.47186 0.44316 0.25142 0.0
C351 C 0.57443 0.37435 0.25178 0.0
C352 C 0.4369 0.29095 0.29444 0.0
C353 C 0.42423 0.26642 0.25103 0.0
C354 C 0.4664 0.33855 0.29512 0.0
C355 C 0.48333 0.36206 0.25135 0.0
C356 C 0.46676 0.33824 0.20739 0.0
C357 C 0.43729 0.29063 0.20774 0.0
C358 C 0.48276 0.36279 0.34279 0.0
C359 C 0.48344 0.36217 0.15991 0.0
H360 H 0.55291 0.52189 0.25174 0.0
H361 H 0.63888 0.46341 0.25198 0.0
H362 H 0.45271 0.42358 0.21923 0.0
H363 H 0.45235 0.42348 0.28321 0.0
H364 H 0.4736 0.47684 0.25162 0.0
H365 H 0.61085 0.38478 0.25202 0.0
H366 H 0.55801 0.35285 0.28371 0.0
H367 H 0.55835 0.35271 0.2196 0.0
H368 H 0.42646 0.27266 0.32811 0.0
H369 H 0.42709 0.27209 0.17398 0.0
H370 H 0.48377 0.39606 0.3427 0.0
H371 H 0.51774 0.37005 0.34943 0.0
H372 H 0.46095 0.34177 0.37286 0.0
H373 H 0.48446 0.39545 0.16006 0.0
H374 H 0.46184 0.34096 0.12961 0.0
H375 H 0.51847 0.36939 0.15359 0.0
C376 C 0.83559 0.37611 0.18786 0.0
C377 C 0.87258 0.37567 0.20886 0.0
C378 C 0.8268 0.41166 0.1973 0.0
C379 C 0.85606 0.44828 0.22799 0.0
C380 C 0.89474 0.44927 0.24746 0.0
C381 C 0.90236 0.41277 0.238 0.0
C382 C 0.78482 0.40879 0.17623 0.0
C383 C 0.92716 0.48801 0.27973 0.0
C384 C 0.83816 0.55074 0.22566 0.0
C385 C 0.80875 0.5412 0.26465 0.0
C386 C 0.85593 0.52221 0.21468 0.0
C387 C 0.8435 0.4829 0.24291 0.0
C388 C 0.81544 0.47433 0.28346 0.0
C389 C 0.79876 0.50368 0.29399 0.0
C390 C 0.88644 0.53303 0.17168 0.0
C391 C 0.80093 0.43266 0.31437 0.0
H392 H 0.81229 0.34765 0.16536 0.0
H393 H 0.93114 0.41288 0.25422 0.0
H394 H 0.76109 0.40484 0.20548 0.0
H395 H 0.79373 0.44086 0.15703 0.0
H396 H 0.76695 0.3795 0.15093 0.0
H397 H 0.95831 0.48667 0.28721 0.0
H398 H 0.93694 0.52153 0.26328 0.0
H399 H 0.91032 0.48629 0.31431 0.0
H400 H 0.84629 0.57973 0.2029 0.0
H401 H 0.77621 0.49594 0.3243 0.0
H402 H 0.8682 0.50733 0.14299 0.0
H403 H 0.91683 0.53101 0.18117 0.0
H404 H 0.89755 0.56763 0.15717 0.0
H405 H 0.77957 0.40116 0.29298 0.0
H406 H 0.78131 0.43238 0.34627 0.0
H407 H 0.83092 0.43118 0.32671 0.0
C408 C 0.08871 0.54617 0.70962 0.0
C409 C 0.11498 0.53247 0.6835 0.0
C410 C 0.10371 0.59275 0.7172 0.0
C411 C 0.14614 0.62625 0.69861 0.0
C412 C 0.17138 0.61267 0.66962 0.0
C413 C 0.15532 0.56592 0.66215 0.0
C414 C 0.07553 0.60595 0.74763 0.0
C415 C 0.21691 0.64738 0.64927 0.0
C416 C 0.18669 0.7534 0.69633 0.0
C417 C 0.21614 0.76932 0.73586 0.0
C418 C 0.16174 0.70649 0.68498 0.0
C419 C 0.16671 0.67498 0.71363 0.0
C420 C 0.19446 0.6906 0.75502 0.0
C421 C 0.21863 0.73754 0.76577 0.0
C422 C 0.13194 0.691 0.64099 0.0
C423 C 0.20071 0.65804 0.78651 0.0
H424 H 0.05729 0.5205 0.72591 0.0
H425 H 0.17583 0.55567 0.64188 0.0
H426 H 0.09194 0.61832 0.78313 0.0
H427 H 0.07326 0.63433 0.73083 0.0
H428 H 0.04073 0.57662 0.75335 0.0
H429 H 0.23026 0.63158 0.62397 0.0
H430 H 0.21455 0.6748 0.63031 0.0
H431 H 0.24165 0.66385 0.67892 0.0
H432 H 0.18436 0.77773 0.67319 0.0
H433 H 0.24117 0.74948 0.79645 0.0
H434 H 0.09829 0.66095 0.64932 0.0
H435 H 0.14758 0.68019 0.61282 0.0
H436 H 0.12706 0.71862 0.62628 0.0
H437 H 0.16735 0.62924 0.79787 0.0
H438 H 0.2211 0.67522 0.81903 0.0
H439 H 0.21804 0.64317 0.76594 0.0
C440 C 0.3934 0.80908 0.69044 0.0
C441 C 0.39894 0.85245 0.6992 0.0
C442 C 0.42786 0.7998 0.70178 0.0
C443 C 0.46897 0.83494 0.72183 0.0
C444 C 0.47544 0.87927 0.72893 0.0
C445 C 0.44024 0.88744 0.71777 0.0
C446 C 0.41961 0.75193 0.69397 0.0
C447 C 0.51897 0.91766 0.74975 0.0
C448 C 0.53064 0.79188 0.79834 0.0
C449 C 0.56159 0.79162 0.7655 0.0
C450 C 0.50157 0.80779 0.78516 0.0
C451 C 0.50383 0.82425 0.73815 0.0
C452 C 0.53726 0.8273 0.70598 0.0
C453 C 0.56579 0.8109 0.72004 0.0
C454 C 0.46651 0.80422 0.82061 0.0
C455 C 0.5411 0.84529 0.65578 0.0
H456 H 0.36156 0.78187 0.67622 0.0
H457 H 0.44487 0.92116 0.7243 0.0
H458 H 0.44714 0.75302 0.67191 0.0
H459 H 0.41981 0.7366 0.72894 0.0
H460 H 0.38671 0.72912 0.67595 0.0
H461 H 0.52014 0.95106 0.74915 0.0
H462 H 0.5226 0.9097 0.78742 0.0
H463 H 0.5485 0.92109 0.7296 0.0
H464 H 0.52733 0.77733 0.83365 0.0
H465 H 0.58977 0.81106 0.69449 0.0
H466 H 0.43222 0.77829 0.80777 0.0
H467 H 0.46744 0.83737 0.82358 0.0
H468 H 0.47159 0.79413 0.85684 0.0
H469 H 0.51128 0.82047 0.63443 0.0
H470 H 0.57223 0.85071 0.63736 0.0
H471 H 0.54122 0.87813 0.65641 0.0
C472 C 0.24672 0.51837 0.78787 0.0
C473 C 0.22041 0.48038 0.75812 0.0
C474 C 0.29394 0.54462 0.78272 0.0
C475 C 0.31556 0.53272 0.74688 0.0
C476 C 0.2894 0.49374 0.71749 0.0
C477 C 0.24213 0.46798 0.72349 0.0
C478 C 0.32056 0.5858 0.81493 0.0
C479 C 0.31121 0.48002 0.67881 0.0
C480 C 0.42907 0.62891 0.7024 0.0
C481 C 0.45977 0.62108 0.72791 0.0
C482 C 0.38211 0.59999 0.70766 0.0
C483 C 0.36531 0.56218 0.73913 0.0
C484 C 0.39608 0.55369 0.76449 0.0
C485 C 0.44292 0.58327 0.75864 0.0
C486 C 0.35049 0.61049 0.68022 0.0
C487 C 0.3795 0.51385 0.79848 0.0
H488 H 0.23034 0.52823 0.8148 0.0
H489 H 0.22211 0.43878 0.70026 0.0
H490 H 0.34793 0.58336 0.83336 0.0
H491 H 0.33693 0.61746 0.79313 0.0
H492 H 0.29894 0.58924 0.84245 0.0
H493 H 0.28651 0.44761 0.66052 0.0
H494 H 0.32691 0.50753 0.65162 0.0
H495 H 0.33865 0.47575 0.69428 0.0
H496 H 0.44169 0.65816 0.67879 0.0
H497 H 0.46636 0.57694 0.7785 0.0
H498 H 0.33076 0.6189 0.70566 0.0
H499 H 0.32589 0.57999 0.65926 0.0
H500 H 0.36889 0.63972 0.65532 0.0
H501 H 0.36015 0.51792 0.82814 0.0
H502 H 0.40772 0.5109 0.8141 0.0
H503 H 0.35612 0.48136 0.77959 0.0
C504 C 0.26562 0.19932 0.20379 0.0
C505 C 0.25599 0.17073 0.2436 0.0
C506 C 0.24064 0.22103 0.19496 0.0
C507 C 0.20485 0.21323 0.22626 0.0
C508 C 0.19742 0.18733 0.26842 0.0
C509 C 0.22344 0.16681 0.27684 0.0
C510 C 0.25046 0.24959 0.15041 0.0
C511 C 0.1594 0.17791 0.30261 0.0
C512 C 0.13928 0.27595 0.22217 0.0
C513 C 0.10036 0.24438 0.19689 0.0
C514 C 0.17513 0.26777 0.22955 0.0
C515 C 0.17133 0.22658 0.21219 0.0
C516 C 0.13289 0.19553 0.18499 0.0
C517 C 0.09809 0.20508 0.17725 0.0
C518 C 0.21609 0.30217 0.25767 0.0
C519 C 0.12723 0.15089 0.16635 0.0
H520 H 0.29117 0.20297 0.17828 0.0
H521 H 0.21592 0.14499 0.30785 0.0
H522 H 0.22422 0.22972 0.12296 0.0
H523 H 0.24929 0.28115 0.15822 0.0
H524 H 0.28411 0.25938 0.135 0.0
H525 H 0.16081 0.1608 0.33586 0.0
H526 H 0.16049 0.21021 0.31263 0.0
H527 H 0.12638 0.15545 0.28474 0.0
H528 H 0.14134 0.30662 0.23707 0.0
H529 H 0.06806 0.1805 0.15777 0.0
H530 H 0.24771 0.30855 0.23972 0.0
H531 H 0.21552 0.28834 0.29377 0.0
H532 H 0.21706 0.3353 0.26213 0.0
H533 H 0.15715 0.15736 0.14483 0.0
H534 H 0.09642 0.13162 0.14382 0.0
H535 H 0.1248 0.12894 0.19694 0.0
C536 C 0.95281 0.83466 0.29868 0.0
C537 C 0.9229 0.80357 0.26452 0.0
C538 C 0.99661 0.8688 0.28579 0.0
C539 C 0.01078 0.87179 0.2376 0.0
C540 C 0.98164 0.8391 0.20345 0.0
C541 C 0.93801 0.80522 0.21737 0.0
C542 C 0.02701 0.90285 0.3233 0.0
C543 C 0.99577 0.84119 0.15178 0.0
C544 C 0.10416 0.98912 0.19815 0.0
C545 C 0.14247 0.98461 0.2028 0.0
C546 C 0.06075 0.95217 0.20815 0.0
C547 C 0.05578 0.90989 0.22294 0.0
C548 C 0.09414 0.90473 0.2261 0.0
C549 C 0.13701 0.94215 0.21602 0.0
C550 C 0.02041 0.9588 0.20435 0.0
C551 C 0.09008 0.86011 0.24159 0.0
H552 H 0.94142 0.83352 0.33521 0.0
H553 H 0.91507 0.78139 0.19069 0.0
H554 H 0.06002 0.90415 0.32442 0.0
H555 H 0.03398 0.93764 0.31387 0.0
H556 H 0.01171 0.89435 0.35966 0.0
H557 H 0.97041 0.81131 0.13052 0.0
H558 H 1.0003 0.87292 0.13513 0.0
H559 H 0.0288 0.84257 0.14959 0.0
H560 H 0.10815 0.02181 0.18795 0.0
H561 H 0.16643 0.93827 0.21936 0.0
H562 H 0.00507 0.95538 0.24028 0.0
H563 H 0.99405 0.9319 0.18099 0.0
H564 H 0.0297 0.99291 0.18971 0.0
H565 H 0.07776 0.85261 0.27911 0.0
H566 H 0.12287 0.86091 0.2394 0.0
H567 H 0.06491 0.83145 0.21896 0.0
C568 C 0.89723 0.10334 0.22419 0.0
C569 C 0.93203 0.1275 0.25768 0.0
C570 C 0.87651 0.05544 0.21925 0.0
C571 C 0.89106 0.0311 0.24829 0.0
C572 C 0.92536 0.05518 0.28294 0.0
C573 C 0.94525 0.10292 0.28731 0.0
C574 C 0.83996 0.03102 0.18199 0.0
C575 C 0.94211 0.03071 0.31448 0.0
C576 C 0.81921 0.90136 0.26246 0.0
C577 C 0.84051 0.88596 0.23059 0.0
C578 C 0.83456 0.94841 0.26779 0.0
C579 C 0.87233 0.98088 0.24092 0.0
C580 C 0.89365 0.96546 0.20838 0.0
C581 C 0.87744 0.91832 0.20353 0.0
C582 C 0.81086 0.96343 0.3028 0.0
C583 C 0.93434 0.99882 0.17943 0.0
H584 H 0.88674 0.12195 0.20115 0.0
H585 H 0.9721 0.12112 0.3133 0.0
H586 H 0.85185 0.01611 0.15402 0.0
H587 H 0.80932 1.00228 0.19857 0.0
H588 H 0.83039 0.05429 0.16445 0.0
H589 H 0.96747 0.05402 0.3412 0.0
H590 H 0.91334 1.00232 0.33381 0.0
H591 H 0.95784 0.01533 0.29202 0.0
H592 H 0.79066 0.87667 0.28349 0.0
H593 H 0.89441 0.90691 0.17905 0.0
H594 H 0.80004 0.98532 0.28449 0.0
H595 H 0.83462 0.98439 0.3318 0.0
H596 H 0.78069 0.93393 0.31926 0.0
H597 H 0.92645 0.02188 0.1589 0.0
H598 H 0.94562 0.98125 0.15395 0.0
H599 H 0.96291 0.02063 0.20385 0.0
C600 C 0.11777 0.19603 0.72941 0.0
C601 C 0.09008 0.18575 0.77002 0.0
C602 C 0.13684 0.16921 0.71687 0.0
C603 C 0.12802 0.13131 0.74565 0.0
C604 C 0.10148 0.12176 0.78761 0.0
C605 C 0.08288 0.14915 0.79933 0.0
C606 C 0.16509 0.18044 0.67191 0.0
C607 C 0.0915 0.08168 0.81928 0.0
C608 C 0.13327 0.03162 0.68989 0.0
C609 C 0.175 0.03919 0.70696 0.0
C610 C 0.11791 0.0618 0.7016 0.0
C611 C 0.145 0.10048 0.73096 0.0
C612 C 0.18757 0.10884 0.74746 0.0
C613 C 0.20205 0.07803 0.73531 0.0
C614 C 0.07215 0.05161 0.68357 0.0
C615 C 0.21737 0.14975 0.7788 0.0
H616 H 0.12357 0.22429 0.70659 0.0
H617 H 0.0616 0.141 0.83081 0.0
H618 H 0.19837 0.1839 0.68013 0.0
H619 H 0.14782 0.15202 0.64558 0.0
H620 H 0.17093 0.2126 0.65498 0.0
H621 H 0.0722 0.08031 0.85191 0.0
H622 H 0.07153 0.04917 0.79896 0.0
H623 H 0.12352 0.08366 0.83044 0.0
H624 H 0.11203 1.0015 0.66828 0.0
H625 H 0.23437 0.0841 0.74859 0.0
H626 H 0.07509 0.082 0.66527 0.0
H627 H 0.04877 0.04374 0.71431 0.0
H628 H 0.05682 0.02208 0.65826 0.0
H629 H 0.25033 0.15236 0.78701 0.0
H630 H 0.19979 0.14736 0.81305 0.0
H631 H 0.22398 0.18178 0.761 0.0
C632 C 0.0792 0.88342 0.79568 0.0
C633 C 0.10174 0.87754 0.75662 0.0
C634 C 0.03331 0.87036 0.79275 0.0
C635 C 0.00908 0.85045 0.74987 0.0
C636 C 0.0308 0.84175 0.71136 0.0
C637 C 0.07694 0.85549 0.71513 0.0
C638 C 0.01152 0.88034 0.83465 0.0
C639 C 0.00595 0.82006 0.66526 0.0
C640 C 0.88063 0.79341 0.75564 0.0
C641 C 0.87355 0.82798 0.73781 0.0
C642 C 0.92444 0.79979 0.75879 0.0
C643 C 0.96213 0.84194 0.7443 0.0
C644 C 0.95519 0.8769 0.72612 0.0
C645 C 0.911 0.8694 0.72284 0.0
C646 C 0.93044 0.76161 0.77803 0.0
C647 C 0.99454 0.92261 0.71087 0.0
H648 H 0.09793 0.90024 0.828 0.0
H649 H 0.09399 0.85077 0.68476 0.0
H650 H 0.00347 0.90706 0.82443 0.0
H651 H 0.97919 0.84925 0.84443 0.0
H652 H 0.03384 0.89254 0.86673 0.0
H653 H 0.026 0.81107 0.64086 0.0
H654 H 0.97313 0.78862 0.67284 0.0
H655 H 0.99837 0.84419 0.64644 0.0
H656 H 0.85189 0.7612 0.76703 0.0
H657 H 0.90589 0.89634 0.70915 0.0
H658 H 0.95077 0.77302 0.81148 0.0
H659 H 0.94934 0.75283 0.75183 0.0
H660 H 0.89756 0.73022 0.78583 0.0
H661 H 0.01733 0.9398 0.74185 0.0
H662 H 0.98333 0.9458 0.6965 0.0
H663 H 0.01475 0.91753 0.68296 0.0
C664 C 0.90018 0.12012 0.80521 0.0
C665 C 0.88994 0.14914 0.77928 0.0
C666 C 0.869 0.07299 0.80848 0.0
C667 C 0.8261 0.05445 0.78612 0.0
C668 C 0.8142 0.08411 0.76323 0.0
C669 C 0.8464 0.13107 0.75973 0.0
C670 C 0.88326 0.04263 0.833 0.0
C671 C 0.76841 0.06589 0.74005 0.0
C672 C 0.77674 0.93193 0.74217 0.0
C673 C 0.74835 0.90684 0.7803 0.0
C674 C 0.80097 0.98 0.74293 0.0
C675 C 0.79608 1.00375 0.78235 0.0
C676 C 0.76528 0.9787 0.81949 0.0
C677 C 0.74208 0.93051 0.81826 0.0
C678 C 0.83374 1.0053 0.70275 0.0
C679 C 0.75829 1.00273 0.86153 0.0
H680 H 0.93362 0.13369 0.82067 0.0
H681 H 0.838 0.15327 0.74002 0.0
H682 H 0.85736 0.02022 0.85945 0.0
H683 H 0.88621 0.02004 0.80601 0.0
H684 H 0.91632 0.06269 0.85171 0.0
H685 H 0.76185 0.09381 0.73043 0.0
H686 H 0.7666 0.04675 0.7069 0.0
H687 H 0.74111 0.04167 0.76429 0.0
H688 H 0.7819 0.91405 0.71269 0.0
H689 H 0.71996 0.9114 0.84771 0.0
H690 H 0.86883 0.02393 0.71703 0.0
H691 H 0.82671 0.03114 0.6872 0.0
H692 H 0.83199 0.98191 0.67362 0.0
H693 H 0.78901 0.01855 0.88444 0.0
H694 H 0.72888 0.97884 0.88384 0.0
H695 H 0.75298 0.0307 0.84896 0.0
loop_
_geom_bond_atom_site_label_1
_geom_bond_atom_site_label_2
_geom_bond_distance
_geom_bond_site_symmetry_2
_ccdc_geom_bond_type
Zn0 O6 1.969 1_545 S
Zn0 O7 1.965 . S
Zn0 O11 2.024 . S
Zn0 O16 1.969 . S
Zn1 O8 1.969 . S
Zn1 O14 1.969 . S
Zn1 O15 1.965 . S
Zn1 O17 2.024 . S
C2 O3 1.229 . S
C2 O11 1.058 . S
O3 C2 1.229 . S
C4 O5 1.229 . S
C4 O17 1.058 . S
O5 C4 1.229 . S
O6 Zn0 1.969 1_565 S
O6 C9 1.267 . S
O7 Zn0 1.965 . S
O7 C18 1.260 . S
O8 Zn1 1.969 . S
O8 C18 1.258 . S
C9 O6 1.267 . S
C9 O10 1.228 . S
O10 C9 1.228 . S
O11 Zn0 2.024 . S
O11 C2 1.058 . S
C12 O13 1.228 . S
C12 O14 1.267 . S
O13 C12 1.228 . S
O14 Zn1 1.969 . S
O14 C12 1.267 . S
O15 Zn1 1.965 . S
O15 C19 1.260 . S
O16 Zn0 1.969 . S
O16 C19 1.258 . S
O17 Zn1 2.024 . S
O17 C4 1.058 . S
C18 O7 1.260 . S
C18 O8 1.258 . S
C19 O15 1.260 . S
C19 O16 1.258 . S
Zn20 O26 1.969 . S
Zn20 O27 1.965 . S
Zn20 O31 2.024 . S
Zn20 O36 1.969 . S
Zn21 O28 1.969 . S
Zn21 O34 1.969 . S
Zn21 O35 1.965 . S
Zn21 O37 2.024 . S
C22 O23 1.229 . S
C22 O31 1.058 . S
O23 C22 1.229 . S
C24 O25 1.229 . S
C24 O37 1.058 . S
O25 C24 1.229 . S
O26 Zn20 1.969 . S
O26 C29 1.267 . S
O27 Zn20 1.965 . S
O27 C38 1.260 . S
O28 Zn21 1.969 . S
O28 C38 1.258 . S
C29 O26 1.267 . S
C29 O30 1.228 . S
O30 C29 1.228 . S
O31 Zn20 2.024 . S
O31 C22 1.058 . S
C32 O33 1.228 . S
C32 O34 1.267 . S
O33 C32 1.228 . S
O34 Zn21 1.969 . S
O34 C32 1.267 . S
O35 Zn21 1.965 . S
O35 C39 1.260 . S
O36 Zn20 1.969 . S
O36 C39 1.258 . S
O37 Zn21 2.024 . S
O37 C24 1.058 . S
C38 O27 1.260 . S
C38 O28 1.258 . S
C39 O35 1.260 . S
C39 O36 1.258 . S
Zn40 O46 1.969 1_655 S
Zn40 O47 1.965 . S
Zn40 O51 2.024 . S
Zn40 O56 1.969 . S
Zn41 O48 1.969 . S
Zn41 O54 1.969 . S
Zn41 O55 1.965 . S
Zn41 O57 2.024 . S
C42 O43 1.229 . S
C42 O51 1.058 . S
O43 C42 1.229 . S
C44 O45 1.229 . S
C44 O57 1.058 . S
O45 C44 1.229 . S
O46 Zn40 1.969 1_455 S
O46 C49 1.267 . S
O47 Zn40 1.965 . S
O47 C58 1.260 . S
O48 Zn41 1.969 . S
O48 C58 1.258 . S
C49 O46 1.267 . S
C49 O50 1.228 . S
O50 C49 1.228 . S
O51 Zn40 2.024 . S
O51 C42 1.058 . S
C52 O53 1.228 . S
C52 O54 1.267 . S
O53 C52 1.228 . S
O54 Zn41 1.969 . S
O54 C52 1.267 . S
O55 Zn41 1.965 . S
O55 C59 1.260 . S
O56 Zn40 1.969 . S
O56 C59 1.258 . S
O57 Zn41 2.024 . S
O57 C44 1.058 . S
C58 O47 1.260 . S
C58 O48 1.258 . S
C59 O55 1.260 . S
C59 O56 1.258 . S
Zn60 O66 1.969 . S
Zn60 O67 1.965 . S
Zn60 O71 2.024 . S
Zn60 O76 1.969 . S
Zn61 O68 1.969 . S
Zn61 O74 1.969 . S
Zn61 O75 1.965 . S
Zn61 O77 2.024 . S
C62 O63 1.229 . S
C62 O71 1.058 . S
O63 C62 1.229 . S
C64 O65 1.229 1_655 S
C64 O77 1.058 1_655 S
O65 C64 1.229 1_455 S
O66 Zn60 1.969 . S
O66 C69 1.267 . S
O67 Zn60 1.965 . S
O67 C78 1.260 . S
O68 Zn61 1.969 . S
O68 C78 1.258 . S
C69 O66 1.267 . S
C69 O70 1.228 . S
O70 C69 1.228 . S
O71 Zn60 2.024 . S
O71 C62 1.058 . S
C72 O73 1.228 . S
C72 O74 1.267 . S
O73 C72 1.228 . S
O74 Zn61 1.969 . S
O74 C72 1.267 . S
O75 Zn61 1.965 . S
O75 C79 1.260 . S
O76 Zn60 1.969 . S
O76 C79 1.258 . S
O77 Zn61 2.024 . S
O77 C64 1.058 1_455 S
C78 O67 1.260 . S
C78 O68 1.258 . S
C79 O75 1.260 . S
C79 O76 1.258 . S
Zn80 O86 1.969 . S
Zn80 O87 1.965 . S
Zn80 O91 2.024 . S
Zn80 O96 1.969 . S
Zn81 O88 1.969 . S
Zn81 O94 1.969 . S
Zn81 O95 1.965 . S
Zn81 O97 2.024 . S
C82 O83 1.229 . S
C82 O91 1.058 . S
O83 C82 1.229 . S
C84 O85 1.229 1_545 S
C84 O97 1.058 1_545 S
O85 C84 1.229 1_565 S
O86 Zn80 1.969 . S
O86 C89 1.267 . S
O87 Zn80 1.965 . S
O87 C98 1.260 . S
O88 Zn81 1.969 . S
O88 C98 1.258 . S
C89 O86 1.267 . S
C89 O90 1.228 . S
O90 C89 1.228 . S
O91 Zn80 2.024 . S
O91 C82 1.058 . S
C92 O93 1.228 . S
C92 O94 1.267 . S
O93 C92 1.228 . S
O94 Zn81 1.969 . S
O94 C92 1.267 . S
O95 Zn81 1.965 . S
O95 C99 1.260 . S
O96 Zn80 1.969 . S
O96 C99 1.258 . S
O97 Zn81 2.024 . S
O97 C84 1.058 1_565 S
C98 O87 1.260 . S
C98 O88 1.258 . S
C99 O95 1.260 . S
C99 O96 1.258 . S
Zn100 O106 1.969 . S
Zn100 O107 1.965 . S
Zn100 O111 2.024 . S
Zn100 O116 1.969 . S
Zn101 O108 1.969 . S
Zn101 O114 1.969 . S
Zn101 O115 1.965 . S
Zn101 O117 2.024 . S
C102 O103 1.229 . S
C102 O111 1.058 . S
O103 C102 1.229 . S
C104 O105 1.229 . S
C104 O117 1.058 . S
O105 C104 1.229 . S
O106 Zn100 1.969 . S
O106 C109 1.267 . S
O107 Zn100 1.965 . S
O107 C118 1.260 . S
O108 Zn101 1.969 . S
O108 C118 1.258 . S
C109 O106 1.267 . S
C109 O110 1.228 . S
O110 C109 1.228 . S
O111 Zn100 2.024 . S
O111 C102 1.058 . S
C112 O113 1.228 . S
C112 O114 1.267 . S
O113 C112 1.228 . S
O114 Zn101 1.969 . S
O114 C112 1.267 . S
O115 Zn101 1.965 . S
O115 C119 1.260 . S
O116 Zn100 1.969 . S
O116 C119 1.258 . S
O117 Zn101 2.024 . S
O117 C104 1.058 . S
C118 O107 1.260 . S
C118 O108 1.258 . S
C119 O115 1.260 . S
C119 O116 1.258 . S
C120 C121 1.391 . S
C120 C122 1.394 . S
C120 H136 0.931 . S
C121 C120 1.391 . S
C121 C125 1.376 . S
C122 C120 1.394 . S
C122 C123 1.369 . S
C122 C126 1.531 1_565 S
C123 C122 1.369 . S
C123 C124 1.410 . S
C123 C131 1.503 1_566 S
C124 C123 1.410 . S
C124 C125 1.392 . S
C124 C127 1.511 1_556 S
C125 C121 1.376 . S
C125 C124 1.392 . S
C125 H137 0.929 . S
C126 C122 1.531 1_545 S
C126 H138 0.960 . S
C126 H139 0.962 . S
C126 H140 0.960 . S
C127 C124 1.511 1_554 S
C127 H141 0.961 . S
C127 H142 0.961 . S
C127 H143 0.961 . S
C128 C129 1.370 . S
C128 C130 1.363 . S
C128 H144 0.931 . S
C129 C128 1.370 . S
C129 C133 1.408 . S
C130 C128 1.363 . S
C130 C131 1.370 . S
C130 C134 1.524 1_554 S
C131 C123 1.503 1_544 S
C131 C130 1.370 . S
C131 C132 1.403 . S
C132 C131 1.403 . S
C132 C133 1.404 . S
C132 C135 1.539 1_545 S
C133 C129 1.408 . S
C133 C132 1.404 . S
C133 H145 0.930 . S
C134 C130 1.524 1_556 S
C134 H146 0.956 . S
C134 H147 0.961 . S
C134 H148 0.961 . S
C135 C132 1.539 1_565 S
C135 H149 0.958 . S
C135 H150 0.961 . S
C135 H151 0.960 . S
H136 C120 0.931 . S
H137 C125 0.929 . S
H138 C126 0.960 . S
H139 C126 0.962 . S
H140 C126 0.960 . S
H141 C127 0.961 . S
H142 C127 0.961 . S
H143 C127 0.961 . S
H144 C128 0.931 . S
H145 C133 0.930 . S
H146 C134 0.956 . S
H147 C134 0.961 . S
H148 C134 0.961 . S
H149 C135 0.958 . S
H150 C135 0.961 . S
H151 C135 0.960 . S
C152 C153 1.391 . S
C152 C154 1.394 . S
C152 H168 0.931 . S
C153 C152 1.391 . S
C153 C157 1.376 . S
C154 C152 1.394 . S
C154 C155 1.369 . S
C154 C158 1.531 . S
C155 C154 1.369 . S
C155 C156 1.410 . S
C155 C163 1.503 . S
C156 C155 1.410 . S
C156 C157 1.392 . S
C156 C159 1.511 . S
C157 C153 1.376 . S
C157 C156 1.392 . S
C157 H169 0.929 . S
C158 C154 1.531 . S
C158 H170 0.960 . S
C158 H171 0.962 . S
C158 H172 0.960 . S
C159 C156 1.511 . S
C159 H173 0.961 . S
C159 H174 0.961 . S
C159 H175 0.961 . S
C160 C161 1.370 . S
C160 C162 1.363 . S
C160 H176 0.931 . S
C161 C160 1.370 . S
C161 C165 1.408 . S
C162 C160 1.363 . S
C162 C163 1.370 . S
C162 C166 1.524 . S
C163 C155 1.503 . S
C163 C162 1.370 . S
C163 C164 1.403 . S
C164 C163 1.403 . S
C164 C165 1.404 . S
C164 C167 1.539 . S
C165 C161 1.408 . S
C165 C164 1.404 . S
C165 H177 0.930 . S
C166 C162 1.524 . S
C166 H178 0.956 . S
C166 H179 0.961 . S
C166 H180 0.961 . S
C167 C164 1.539 . S
C167 H181 0.958 . S
C167 H182 0.961 . S
C167 H183 0.960 . S
H168 C152 0.931 . S
H169 C157 0.929 . S
H170 C158 0.960 . S
H171 C158 0.962 . S
H172 C158 0.960 . S
H173 C159 0.961 . S
H174 C159 0.961 . S
H175 C159 0.961 . S
H176 C160 0.931 . S
H177 C165 0.930 . S
H178 C166 0.956 . S
H179 C166 0.961 . S
H180 C166 0.961 . S
H181 C167 0.958 . S
H182 C167 0.961 . S
H183 C167 0.960 . S
C184 C185 1.391 . S
C184 C186 1.394 . S
C184 H200 0.931 . S
C185 C184 1.391 . S
C185 C189 1.376 . S
C186 C184 1.394 . S
C186 C187 1.369 . S
C186 C190 1.531 1_554 S
C187 C186 1.369 . S
C187 C188 1.410 1_655 S
C187 C195 1.503 1_654 S
C188 C187 1.410 1_455 S
C188 C189 1.392 1_455 S
C188 C191 1.511 . S
C189 C185 1.376 . S
C189 C188 1.392 1_655 S
C189 H201 0.929 . S
C190 C186 1.531 1_556 S
C190 H202 0.960 . S
C190 H203 0.962 . S
C190 H204 0.960 . S
C191 C188 1.511 . S
C191 H205 0.961 . S
C191 H206 0.961 . S
C191 H207 0.961 . S
C192 C193 1.370 . S
C192 C194 1.363 . S
C192 H208 0.931 . S
C193 C192 1.370 . S
C193 C197 1.408 . S
C194 C192 1.363 . S
C194 C195 1.370 . S
C194 C198 1.524 1_455 S
C195 C187 1.503 1_456 S
C195 C194 1.370 . S
C195 C196 1.403 . S
C196 C195 1.403 . S
C196 C197 1.404 . S
C196 C199 1.539 1_556 S
C197 C193 1.408 . S
C197 C196 1.404 . S
C197 H209 0.930 . S
C198 C194 1.524 1_655 S
C198 H210 0.956 . S
C198 H211 0.961 . S
C198 H212 0.961 . S
C199 C196 1.539 1_554 S
C199 H213 0.958 . S
C199 H214 0.961 . S
C199 H215 0.960 . S
H200 C184 0.931 . S
H201 C189 0.929 . S
H202 C190 0.960 . S
H203 C190 0.962 . S
H204 C190 0.960 . S
H205 C191 0.961 . S
H206 C191 0.961 . S
H207 C191 0.961 . S
H208 C192 0.931 . S
H209 C197 0.930 . S
H210 C198 0.956 . S
H211 C198 0.961 . S
H212 C198 0.961 . S
H213 C199 0.958 . S
H214 C199 0.961 . S
H215 C199 0.960 . S
C216 C217 1.391 . S
C216 C218 1.394 . S
C216 H232 0.931 . S
C217 C216 1.391 . S
C217 C221 1.376 . S
C218 C216 1.394 . S
C218 C219 1.369 . S
C218 C222 1.531 1_545 S
C219 C218 1.369 . S
C219 C220 1.410 . S
C219 C227 1.503 1_545 S
C220 C219 1.410 . S
C220 C221 1.392 . S
C220 C223 1.511 . S
C221 C217 1.376 . S
C221 C220 1.392 . S
C221 H233 0.929 . S
C222 C218 1.531 1_565 S
C222 H234 0.960 . S
C222 H235 0.962 . S
C222 H236 0.960 . S
C223 C220 1.511 . S
C223 H237 0.961 . S
C223 H238 0.961 . S
C223 H239 0.961 . S
C224 C225 1.370 . S
C224 C226 1.363 . S
C224 H240 0.931 . S
C225 C224 1.370 . S
C225 C229 1.408 . S
C226 C224 1.363 . S
C226 C227 1.370 . S
C226 C230 1.524 1_565 S
C227 C219 1.503 1_565 S
C227 C226 1.370 . S
C227 C228 1.403 . S
C228 C227 1.403 . S
C228 C229 1.404 . S
C228 C231 1.539 . S
C229 C225 1.408 . S
C229 C228 1.404 . S
C229 H241 0.930 . S
C230 C226 1.524 1_545 S
C230 H242 0.956 . S
C230 H243 0.961 . S
C230 H244 0.961 . S
C231 C228 1.539 . S
C231 H245 0.958 . S
C231 H246 0.961 . S
C231 H247 0.960 . S
H232 C216 0.931 . S
H233 C221 0.929 . S
H234 C222 0.960 . S
H235 C222 0.962 . S
H236 C222 0.960 . S
H237 C223 0.961 . S
H238 C223 0.961 . S
H239 C223 0.961 . S
H240 C224 0.931 . S
H241 C229 0.930 . S
H242 C230 0.956 . S
H243 C230 0.961 . S
H244 C230 0.961 . S
H245 C231 0.958 . S
H246 C231 0.961 . S
H247 C231 0.960 . S
C248 C249 1.391 . S
C248 C250 1.394 . S
C248 H264 0.931 . S
C249 C248 1.391 . S
C249 C253 1.376 . S
C250 C248 1.394 . S
C250 C251 1.369 . S
C250 C254 1.531 . S
C251 C250 1.369 . S
C251 C252 1.410 . S
C251 C259 1.503 1_556 S
C252 C251 1.410 . S
C252 C253 1.392 . S
C252 C255 1.511 . S
C253 C249 1.376 . S
C253 C252 1.392 . S
C253 H265 0.929 . S
C254 C250 1.531 . S
C254 H266 0.960 1_556 S
C254 H267 0.962 . S
C254 H268 0.960 . S
C255 C252 1.511 . S
C255 H269 0.961 . S
C255 H270 0.966 . S
C255 H271 0.961 1_556 S
C256 C257 1.370 . S
C256 C258 1.363 . S
C256 H272 0.931 . S
C257 C256 1.370 . S
C257 C261 1.408 . S
C258 C256 1.363 . S
C258 C259 1.370 . S
C258 C262 1.524 1_554 S
C259 C251 1.503 1_554 S
C259 C258 1.370 . S
C259 C260 1.403 . S
C260 C259 1.403 . S
C260 C261 1.404 . S
C260 C263 1.539 . S
C261 C257 1.408 . S
C261 C260 1.404 . S
C261 H273 0.930 . S
C262 C258 1.524 1_556 S
C262 H274 0.956 . S
C262 H275 0.961 . S
C262 H276 0.961 . S
C263 C260 1.539 . S
C263 H277 0.958 . S
C263 H278 0.961 . S
C263 H279 0.960 . S
H264 C248 0.931 . S
H265 C253 0.929 . S
H266 C254 0.960 1_554 S
H267 C254 0.962 . S
H268 C254 0.960 . S
H269 C255 0.961 . S
H270 C255 0.966 . S
H271 C255 0.961 1_554 S
H272 C256 0.931 . S
H273 C261 0.930 . S
H274 C262 0.956 . S
H275 C262 0.961 . S
H276 C262 0.961 . S
H277 C263 0.958 . S
H278 C263 0.961 . S
H279 C263 0.960 . S
C280 C281 1.391 . S
C280 C282 1.394 . S
C280 H296 0.931 . S
C281 C280 1.391 . S
C281 C285 1.376 . S
C282 C280 1.394 . S
C282 C283 1.369 . S
C282 C286 1.531 1_655 S
C283 C282 1.369 . S
C283 C284 1.410 . S
C283 C291 1.503 1_655 S
C284 C283 1.410 . S
C284 C285 1.392 . S
C284 C287 1.511 . S
C285 C281 1.376 . S
C285 C284 1.392 . S
C285 H297 0.929 . S
C286 C282 1.531 1_455 S
C286 H298 0.960 . S
C286 H299 0.962 . S
C286 H300 0.960 . S
C287 C284 1.511 . S
C287 H301 0.961 . S
C287 H302 0.961 . S
C287 H303 0.961 . S
C288 C289 1.370 . S
C288 C290 1.363 . S
C288 H304 0.931 . S
C289 C288 1.370 . S
C289 C293 1.408 . S
C290 C288 1.363 . S
C290 C291 1.370 . S
C290 C294 1.524 . S
C291 C283 1.503 1_455 S
C291 C290 1.370 . S
C291 C292 1.403 . S
C292 C291 1.403 . S
C292 C293 1.404 . S
C292 C295 1.539 1_455 S
C293 C289 1.408 . S
C293 C292 1.404 . S
C293 H305 0.930 . S
C294 C290 1.524 . S
C294 H306 0.956 . S
C294 H307 0.961 . S
C294 H308 0.961 . S
C295 C292 1.539 1_655 S
C295 H309 0.958 . S
C295 H310 0.961 . S
C295 H311 0.960 . S
H296 C280 0.931 . S
H297 C285 0.929 . S
H298 C286 0.960 . S
H299 C286 0.962 . S
H300 C286 0.960 . S
H301 C287 0.961 . S
H302 C287 0.961 . S
H303 C287 0.961 . S
H304 C288 0.931 . S
H305 C293 0.930 . S
H306 C294 0.956 . S
H307 C294 0.961 . S
H308 C294 0.961 . S
H309 C295 0.958 . S
H310 C295 0.961 . S
H311 C295 0.960 . S
C312 C313 1.391 . S
C312 C314 1.394 . S
C312 H328 0.931 . S
C313 C312 1.391 . S
C313 C317 1.376 . S
C314 C312 1.394 . S
C314 C315 1.369 . S
C314 C318 1.531 . S
C315 C314 1.369 . S
C315 C316 1.410 . S
C315 C323 1.503 . S
C316 C315 1.410 . S
C316 C317 1.392 . S
C316 C319 1.511 . S
C317 C313 1.376 . S
C317 C316 1.392 . S
C317 H329 0.929 . S
C318 C314 1.531 . S
C318 H330 0.960 . S
C318 H331 0.962 . S
C318 H332 0.960 . S
C319 C316 1.511 . S
C319 H333 0.961 . S
C319 H334 0.961 . S
C319 H335 0.961 . S
C320 C321 1.370 . S
C320 C322 1.363 . S
C320 H336 0.931 . S
C321 C320 1.370 . S
C321 C325 1.408 . S
C322 C320 1.363 . S
C322 C323 1.370 . S
C322 C326 1.524 . S
C323 C315 1.503 . S
C323 C322 1.370 . S
C323 C324 1.403 . S
C324 C323 1.403 . S
C324 C325 1.404 . S
C324 C327 1.539 . S
C325 C321 1.408 . S
C325 C324 1.404 . S
C325 H337 0.930 . S
C326 C322 1.524 . S
C326 H338 0.956 . S
C326 H339 0.961 . S
C326 H340 0.961 . S
C327 C324 1.539 . S
C327 H341 0.958 . S
C327 H342 0.961 . S
C327 H343 0.960 . S
H328 C312 0.931 . S
H329 C317 0.929 . S
H330 C318 0.960 . S
H331 C318 0.962 . S
H332 C318 0.960 . S
H333 C319 0.961 . S
H334 C319 0.961 . S
H335 C319 0.961 . S
H336 C320 0.931 . S
H337 C325 0.930 . S
H338 C326 0.956 . S
H339 C326 0.961 . S
H340 C326 0.961 . S
H341 C327 0.958 . S
H342 C327 0.961 . S
H343 C327 0.960 . S
C344 C345 1.391 . S
C344 C346 1.394 . S
C344 H360 0.931 . S
C345 C344 1.391 . S
C345 C349 1.376 . S
C346 C344 1.394 . S
C346 C347 1.369 . S
C346 C350 1.531 . S
C347 C346 1.369 . S
C347 C348 1.410 . S
C347 C355 1.503 . S
C348 C347 1.410 . S
C348 C349 1.392 . S
C348 C351 1.511 . S
C349 C345 1.376 . S
C349 C348 1.392 . S
C349 H361 0.929 . S
C350 C346 1.531 . S
C350 H362 0.960 . S
C350 H363 0.962 . S
C350 H364 0.960 . S
C351 C348 1.511 . S
C351 H365 0.961 . S
C351 H366 0.961 . S
C351 H367 0.961 . S
C352 C353 1.370 . S
C352 C354 1.363 . S
C352 H368 0.931 . S
C353 C352 1.370 . S
C353 C357 1.408 . S
C354 C352 1.363 . S
C354 C355 1.370 . S
C354 C358 1.524 . S
C355 C347 1.503 . S
C355 C354 1.370 . S
C355 C356 1.403 . S
C356 C355 1.403 . S
C356 C357 1.404 . S
C356 C359 1.539 . S
C357 C353 1.408 . S
C357 C356 1.404 . S
C357 H369 0.930 . S
C358 C354 1.524 . S
C358 H370 0.956 . S
C358 H371 0.961 . S
C358 H372 0.961 . S
C359 C356 1.539 . S
C359 H373 0.958 . S
C359 H374 0.961 . S
C359 H375 0.960 . S
H360 C344 0.931 . S
H361 C349 0.929 . S
H362 C350 0.960 . S
H363 C350 0.962 . S
H364 C350 0.960 . S
H365 C351 0.961 . S
H366 C351 0.961 . S
H367 C351 0.961 . S
H368 C352 0.931 . S
H369 C357 0.930 . S
H370 C358 0.956 . S
H371 C358 0.961 . S
H372 C358 0.961 . S
H373 C359 0.958 . S
H374 C359 0.961 . S
H375 C359 0.960 . S
C376 C377 1.391 . S
C376 C378 1.394 . S
C376 H392 0.931 . S
C377 C376 1.391 . S
C377 C381 1.376 . S
C378 C376 1.394 . S
C378 C379 1.369 . S
C378 C382 1.531 . S
C379 C378 1.369 . S
C379 C380 1.410 . S
C379 C387 1.503 . S
C380 C379 1.410 . S
C380 C381 1.392 . S
C380 C383 1.511 . S
C381 C377 1.376 . S
C381 C380 1.392 . S
C381 H393 0.929 . S
C382 C378 1.531 . S
C382 H394 0.960 . S
C382 H395 0.962 . S
C382 H396 0.960 . S
C383 C380 1.511 . S
C383 H397 0.961 . S
C383 H398 0.961 . S
C383 H399 0.961 . S
C384 C385 1.370 . S
C384 C386 1.363 . S
C384 H400 0.931 . S
C385 C384 1.370 . S
C385 C389 1.408 . S
C386 C384 1.363 . S
C386 C387 1.370 . S
C386 C390 1.524 . S
C387 C379 1.503 . S
C387 C386 1.370 . S
C387 C388 1.403 . S
C388 C387 1.403 . S
C388 C389 1.404 . S
C388 C391 1.539 . S
C389 C385 1.408 . S
C389 C388 1.404 . S
C389 H401 0.930 . S
C390 C386 1.524 . S
C390 H402 0.956 . S
C390 H403 0.961 . S
C390 H404 0.961 . S
C391 C388 1.539 . S
C391 H405 0.958 . S
C391 H406 0.961 . S
C391 H407 0.960 . S
H392 C376 0.931 . S
H393 C381 0.929 . S
H394 C382 0.960 . S
H395 C382 0.962 . S
H396 C382 0.960 . S
H397 C383 0.961 . S
H398 C383 0.961 . S
H399 C383 0.961 . S
H400 C384 0.931 . S
H401 C389 0.930 . S
H402 C390 0.956 . S
H403 C390 0.961 . S
H404 C390 0.961 . S
H405 C391 0.958 . S
H406 C391 0.961 . S
H407 C391 0.960 . S
C408 C409 1.391 . S
C408 C410 1.394 . S
C408 H424 0.931 . S
C409 C408 1.391 . S
C409 C413 1.376 . S
C410 C408 1.394 . S
C410 C411 1.369 . S
C410 C414 1.531 . S
C411 C410 1.369 . S
C411 C412 1.410 . S
C411 C419 1.503 . S
C412 C411 1.410 . S
C412 C413 1.392 . S
C412 C415 1.511 . S
C413 C409 1.376 . S
C413 C412 1.392 . S
C413 H425 0.929 . S
C414 C410 1.531 . S
C414 H426 0.960 . S
C414 H427 0.962 . S
C414 H428 0.960 . S
C415 C412 1.511 . S
C415 H429 0.961 . S
C415 H430 0.961 . S
C415 H431 0.961 . S
C416 C417 1.370 . S
C416 C418 1.363 . S
C416 H432 0.931 . S
C417 C416 1.370 . S
C417 C421 1.408 . S
C418 C416 1.363 . S
C418 C419 1.370 . S
C418 C422 1.524 . S
C419 C411 1.503 . S
C419 C418 1.370 . S
C419 C420 1.403 . S
C420 C419 1.403 . S
C420 C421 1.404 . S
C420 C423 1.539 . S
C421 C417 1.408 . S
C421 C420 1.404 . S
C421 H433 0.930 . S
C422 C418 1.524 . S
C422 H434 0.956 . S
C422 H435 0.961 . S
C422 H436 0.961 . S
C423 C420 1.539 . S
C423 H437 0.958 . S
C423 H438 0.961 . S
C423 H439 0.960 . S
H424 C408 0.931 . S
H425 C413 0.929 . S
H426 C414 0.960 . S
H427 C414 0.962 . S
H428 C414 0.960 . S
H429 C415 0.961 . S
H430 C415 0.961 . S
H431 C415 0.961 . S
H432 C416 0.931 . S
H433 C421 0.930 . S
H434 C422 0.956 . S
H435 C422 0.961 . S
H436 C422 0.961 . S
H437 C423 0.958 . S
H438 C423 0.961 . S
H439 C423 0.960 . S
C440 C441 1.391 . S
C440 C442 1.394 . S
C440 H456 0.931 . S
C441 C440 1.391 . S
C441 C445 1.376 . S
C442 C440 1.394 . S
C442 C443 1.369 . S
C442 C446 1.531 . S
C443 C442 1.369 . S
C443 C444 1.410 . S
C443 C451 1.503 . S
C444 C443 1.410 . S
C444 C445 1.392 . S
C444 C447 1.511 . S
C445 C441 1.376 . S
C445 C444 1.392 . S
C445 H457 0.929 . S
C446 C442 1.531 . S
C446 H458 0.960 . S
C446 H459 0.962 . S
C446 H460 0.960 . S
C447 C444 1.511 . S
C447 H461 0.961 . S
C447 H462 0.961 . S
C447 H463 0.961 . S
C448 C449 1.370 . S
C448 C450 1.363 . S
C448 H464 0.931 . S
C449 C448 1.370 . S
C449 C453 1.408 . S
C450 C448 1.363 . S
C450 C451 1.370 . S
C450 C454 1.524 . S
C451 C443 1.503 . S
C451 C450 1.370 . S
C451 C452 1.403 . S
C452 C451 1.403 . S
C452 C453 1.404 . S
C452 C455 1.539 . S
C453 C449 1.408 . S
C453 C452 1.404 . S
C453 H465 0.930 . S
C454 C450 1.524 . S
C454 H466 0.956 . S
C454 H467 0.961 . S
C454 H468 0.961 . S
C455 C452 1.539 . S
C455 H469 0.958 . S
C455 H470 0.961 . S
C455 H471 0.960 . S
H456 C440 0.931 . S
H457 C445 0.929 . S
H458 C446 0.960 . S
H459 C446 0.962 . S
H460 C446 0.960 . S
H461 C447 0.961 . S
H462 C447 0.961 . S
H463 C447 0.961 . S
H464 C448 0.931 . S
H465 C453 0.930 . S
H466 C454 0.956 . S
H467 C454 0.961 . S
H468 C454 0.961 . S
H469 C455 0.958 . S
H470 C455 0.961 . S
H471 C455 0.960 . S
C472 C473 1.391 . S
C472 C474 1.394 . S
C472 H488 0.931 . S
C473 C472 1.391 . S
C473 C477 1.376 . S
C474 C472 1.394 . S
C474 C475 1.369 . S
C474 C478 1.531 . S
C475 C474 1.369 . S
C475 C476 1.410 . S
C475 C483 1.503 . S
C476 C475 1.410 . S
C476 C477 1.392 . S
C476 C479 1.511 . S
C477 C473 1.376 . S
C477 C476 1.392 . S
C477 H489 0.929 . S
C478 C474 1.531 . S
C478 H490 0.960 . S
C478 H491 0.962 . S
C478 H492 0.960 . S
C479 C476 1.511 . S
C479 H493 0.961 . S
C479 H494 0.961 . S
C479 H495 0.961 . S
C480 C481 1.370 . S
C480 C482 1.363 . S
C480 H496 0.931 . S
C481 C480 1.370 . S
C481 C485 1.408 . S
C482 C480 1.363 . S
C482 C483 1.370 . S
C482 C486 1.524 . S
C483 C475 1.503 . S
C483 C482 1.370 . S
C483 C484 1.403 . S
C484 C483 1.403 . S
C484 C485 1.404 . S
C484 C487 1.539 . S
C485 C481 1.408 . S
C485 C484 1.404 . S
C485 H497 0.930 . S
C486 C482 1.524 . S
C486 H498 0.956 . S
C486 H499 0.961 . S
C486 H500 0.961 . S
C487 C484 1.539 . S
C487 H501 0.958 . S
C487 H502 0.961 . S
C487 H503 0.960 . S
H488 C472 0.931 . S
H489 C477 0.929 . S
H490 C478 0.960 . S
H491 C478 0.962 . S
H492 C478 0.960 . S
H493 C479 0.961 . S
H494 C479 0.961 . S
H495 C479 0.961 . S
H496 C480 0.931 . S
H497 C485 0.930 . S
H498 C486 0.956 . S
H499 C486 0.961 . S
H500 C486 0.961 . S
H501 C487 0.958 . S
H502 C487 0.961 . S
H503 C487 0.960 . S
C504 C505 1.391 . S
C504 C506 1.394 . S
C504 H520 0.931 . S
C505 C504 1.391 . S
C505 C509 1.376 . S
C506 C504 1.394 . S
C506 C507 1.369 . S
C506 C510 1.531 . S
C507 C506 1.369 . S
C507 C508 1.410 . S
C507 C515 1.503 . S
C508 C507 1.410 . S
C508 C509 1.392 . S
C508 C511 1.511 . S
C509 C505 1.376 . S
C509 C508 1.392 . S
C509 H521 0.929 . S
C510 C506 1.531 . S
C510 H522 0.960 . S
C510 H523 0.962 . S
C510 H524 0.960 . S
C511 C508 1.511 . S
C511 H525 0.961 . S
C511 H526 0.961 . S
C511 H527 0.961 . S
C512 C513 1.370 . S
C512 C514 1.363 . S
C512 H528 0.931 . S
C513 C512 1.370 . S
C513 C517 1.408 . S
C514 C512 1.363 . S
C514 C515 1.370 . S
C514 C518 1.524 . S
C515 C507 1.503 . S
C515 C514 1.370 . S
C515 C516 1.403 . S
C516 C515 1.403 . S
C516 C517 1.404 . S
C516 C519 1.539 . S
C517 C513 1.408 . S
C517 C516 1.404 . S
C517 H529 0.930 . S
C518 C514 1.524 . S
C518 H530 0.956 . S
C518 H531 0.961 . S
C518 H532 0.961 . S
C519 C516 1.539 . S
C519 H533 0.958 . S
C519 H534 0.961 . S
C519 H535 0.960 . S
H520 C504 0.931 . S
H521 C509 0.929 . S
H522 C510 0.960 . S
H523 C510 0.962 . S
H524 C510 0.960 . S
H525 C511 0.961 . S
H526 C511 0.961 . S
H527 C511 0.961 . S
H528 C512 0.931 . S
H529 C517 0.930 . S
H530 C518 0.956 . S
H531 C518 0.961 . S
H532 C518 0.961 . S
H533 C519 0.958 . S
H534 C519 0.961 . S
H535 C519 0.960 . S
C536 C537 1.391 . S
C536 C538 1.394 . S
C536 H552 0.931 . S
C537 C536 1.391 . S
C537 C541 1.376 . S
C538 C536 1.394 . S
C538 C539 1.369 1_655 S
C538 C542 1.531 1_655 S
C539 C538 1.369 1_455 S
C539 C540 1.408 . S
C539 C547 1.503 . S
C540 C539 1.408 . S
C540 C541 1.367 1_455 S
C540 C543 1.537 . S
C541 C537 1.376 . S
C541 C540 1.367 1_655 S
C541 H553 0.929 . S
C542 C538 1.531 1_455 S
C542 H554 0.960 . S
C542 H555 0.962 . S
C542 H556 0.972 . S
C543 C540 1.537 . S
C543 H557 0.961 . S
C543 H558 0.961 . S
C543 H559 0.961 . S
C544 C545 1.370 . S
C544 C546 1.363 . S
C544 H560 0.931 . S
C545 C544 1.370 . S
C545 C549 1.408 . S
C546 C544 1.363 . S
C546 C547 1.370 . S
C546 C550 1.524 . S
C547 C539 1.503 . S
C547 C546 1.370 . S
C547 C548 1.403 . S
C548 C547 1.403 . S
C548 C549 1.404 . S
C548 C551 1.539 . S
C549 C545 1.408 . S
C549 C548 1.404 . S
C549 H561 0.930 . S
C550 C546 1.524 . S
C550 H562 0.956 . S
C550 H563 0.961 . S
C550 H564 0.961 . S
C551 C548 1.539 . S
C551 H565 0.958 . S
C551 H566 0.961 . S
C551 H567 0.960 . S
H552 C536 0.931 . S
H553 C541 0.929 . S
H554 C542 0.960 . S
H555 C542 0.962 . S
H556 C542 0.972 . S
H557 C543 0.961 . S
H558 C543 0.961 . S
H559 C543 0.961 . S
H560 C544 0.931 . S
H561 C549 0.930 . S
H562 C550 0.956 . S
H563 C550 0.961 . S
H564 C550 0.961 . S
H565 C551 0.958 . S
H566 C551 0.961 . S
H567 C551 0.960 . S
C568 C569 1.391 . S
C568 C570 1.394 . S
C568 H584 0.931 . S
C569 C568 1.391 . S
C569 C573 1.376 . S
C570 C568 1.394 . S
C570 C571 1.369 1_545 S
C570 C574 1.531 1_545 S
C571 C570 1.369 1_565 S
C571 C572 1.410 1_565 S
C571 C579 1.503 . S
C572 C571 1.410 1_545 S
C572 C573 1.392 . S
C572 C575 1.511 1_545 S
C573 C569 1.376 . S
C573 C572 1.392 . S
C573 H585 0.929 . S
C574 C570 1.531 1_565 S
C574 H586 0.960 . S
C574 H587 0.962 . S
C574 H588 0.960 . S
C575 C572 1.511 1_565 S
C575 H589 0.961 . S
C575 H590 0.961 . S
C575 H591 0.961 . S
C576 C577 1.370 . S
C576 C578 1.363 . S
C576 H592 0.931 . S
C577 C576 1.370 . S
C577 C581 1.408 . S
C578 C576 1.363 . S
C578 C579 1.370 . S
C578 C582 1.524 . S
C579 C571 1.503 . S
C579 C578 1.370 . S
C579 C580 1.403 . S
C580 C579 1.403 . S
C580 C581 1.404 . S
C580 C583 1.539 . S
C581 C577 1.408 . S
C581 C580 1.404 . S
C581 H593 0.930 . S
C582 C578 1.524 . S
C582 H594 0.956 . S
C582 H595 0.961 . S
C582 H596 0.961 . S
C583 C580 1.539 . S
C583 H597 0.958 . S
C583 H598 0.961 . S
C583 H599 0.960 . S
H584 C568 0.931 . S
H585 C573 0.929 . S
H586 C574 0.960 . S
H587 C574 0.962 . S
H588 C574 0.960 . S
H589 C575 0.961 . S
H590 C575 0.961 . S
H591 C575 0.961 . S
H592 C576 0.931 . S
H593 C581 0.930 . S
H594 C582 0.956 . S
H595 C582 0.961 . S
H596 C582 0.961 . S
H597 C583 0.958 . S
H598 C583 0.961 . S
H599 C583 0.960 . S
C600 C601 1.391 . S
C600 C602 1.394 . S
C600 H616 0.931 . S
C601 C600 1.391 . S
C601 C605 1.376 . S
C602 C600 1.394 . S
C602 C603 1.369 . S
C602 C606 1.531 . S
C603 C602 1.369 . S
C603 C604 1.410 . S
C603 C611 1.503 . S
C604 C603 1.410 . S
C604 C605 1.392 . S
C604 C607 1.511 . S
C605 C601 1.376 . S
C605 C604 1.392 . S
C605 H617 0.929 . S
C606 C602 1.531 . S
C606 H618 0.960 . S
C606 H619 0.962 . S
C606 H620 0.960 . S
C607 C604 1.511 . S
C607 H621 0.961 . S
C607 H622 0.961 . S
C607 H623 0.961 . S
C608 C609 1.370 . S
C608 C610 1.363 . S
C608 H624 0.931 . S
C609 C608 1.370 . S
C609 C613 1.408 . S
C610 C608 1.363 . S
C610 C611 1.370 . S
C610 C614 1.524 . S
C611 C603 1.503 . S
C611 C610 1.370 . S
C611 C612 1.403 . S
C612 C611 1.403 . S
C612 C613 1.404 . S
C612 C615 1.539 . S
C613 C609 1.408 . S
C613 C612 1.404 . S
C613 H625 0.930 . S
C614 C610 1.524 . S
C614 H626 0.956 . S
C614 H627 0.961 . S
C614 H628 0.961 . S
C615 C612 1.539 . S
C615 H629 0.958 . S
C615 H630 0.961 . S
C615 H631 0.960 . S
H616 C600 0.931 . S
H617 C605 0.929 . S
H618 C606 0.960 . S
H619 C606 0.962 . S
H620 C606 0.960 . S
H621 C607 0.961 . S
H622 C607 0.961 . S
H623 C607 0.961 . S
H624 C608 0.931 . S
H625 C613 0.930 . S
H626 C614 0.956 . S
H627 C614 0.961 . S
H628 C614 0.961 . S
H629 C615 0.958 . S
H630 C615 0.961 . S
H631 C615 0.960 . S
C632 C633 1.391 . S
C632 C634 1.394 1_455 S
C632 H648 0.931 . S
C633 C632 1.391 . S
C633 C637 1.376 . S
C634 C632 1.394 1_655 S
C634 C635 1.369 . S
C634 C638 1.531 . S
C635 C634 1.369 . S
C635 C636 1.410 . S
C635 C643 1.503 . S
C636 C635 1.410 . S
C636 C637 1.392 1_655 S
C636 C639 1.511 . S
C637 C633 1.376 . S
C637 C636 1.392 1_455 S
C637 H649 0.929 . S
C638 C634 1.531 . S
C638 H650 0.960 . S
C638 H651 0.962 . S
C638 H652 0.960 . S
C639 C636 1.511 . S
C639 H653 0.961 . S
C639 H654 0.961 . S
C639 H655 0.961 . S
C640 C641 1.370 . S
C640 C642 1.363 . S
C640 H656 0.931 . S
C641 C640 1.370 . S
C641 C645 1.408 . S
C642 C640 1.363 . S
C642 C643 1.370 . S
C642 C646 1.524 . S
C643 C635 1.503 . S
C643 C642 1.370 . S
C643 C644 1.403 . S
C644 C643 1.403 . S
C644 C645 1.404 . S
C644 C647 1.539 . S
C645 C641 1.408 . S
C645 C644 1.404 . S
C645 H657 0.930 . S
C646 C642 1.524 . S
C646 H658 0.956 . S
C646 H659 0.961 . S
C646 H660 0.961 . S
C647 C644 1.539 . S
C647 H661 0.958 . S
C647 H662 0.961 . S
C647 H663 0.960 . S
H648 C632 0.931 . S
H649 C637 0.929 . S
H650 C638 0.960 . S
H651 C638 0.962 . S
H652 C638 0.960 . S
H653 C639 0.961 . S
H654 C639 0.961 . S
H655 C639 0.961 . S
H656 C640 0.931 . S
H657 C645 0.930 . S
H658 C646 0.956 . S
H659 C646 0.961 . S
H660 C646 0.961 . S
H661 C647 0.958 . S
H662 C647 0.961 . S
H663 C647 0.960 . S
C664 C665 1.391 . S
C664 C666 1.394 . S
C664 H680 0.927 1_655 S
C665 C664 1.391 . S
C665 C669 1.376 . S
C666 C664 1.394 . S
C666 C667 1.369 . S
C666 C670 1.531 . S
C667 C666 1.369 . S
C667 C668 1.410 . S
C667 C675 1.503 . S
C668 C667 1.410 . S
C668 C669 1.392 . S
C668 C671 1.511 . S
C669 C665 1.376 . S
C669 C668 1.392 . S
C669 H681 0.929 . S
C670 C666 1.531 . S
C670 H682 0.960 . S
C670 H683 0.962 . S
C670 H684 0.960 . S
C671 C668 1.511 . S
C671 H685 0.961 . S
C671 H686 0.961 . S
C671 H687 0.961 . S
C672 C673 1.370 . S
C672 C674 1.363 1_565 S
C672 H688 0.931 . S
C673 C672 1.370 . S
C673 C677 1.408 . S
C674 C672 1.363 1_545 S
C674 C675 1.370 . S
C674 C678 1.524 . S
C675 C667 1.503 . S
C675 C674 1.370 . S
C675 C676 1.403 . S
C676 C675 1.403 . S
C676 C677 1.404 1_545 S
C676 C679 1.539 . S
C677 C673 1.408 . S
C677 C676 1.404 1_565 S
C677 H689 0.930 . S
C678 C674 1.524 . S
C678 H690 0.956 . S
C678 H691 0.961 . S
C678 H692 0.961 . S
C679 C676 1.539 . S
C679 H693 0.958 . S
C679 H694 0.961 . S
C679 H695 0.960 . S
H680 C664 0.927 1_455 S
H681 C669 0.929 . S
H682 C670 0.960 . S
H683 C670 0.962 . S
H684 C670 0.960 . S
H685 C671 0.961 . S
H686 C671 0.961 . S
H687 C671 0.961 . S
H688 C672 0.931 . S
H689 C677 0.930 . S
H690 C678 0.956 . S
H691 C678 0.961 . S
H692 C678 0.961 . S
H693 C679 0.958 . S
H694 C679 0.961 . S
H695 C679 0.960 . S
C121 C99 2.198 . S
C129 C18 2.121 . S
C153 C118 2.118 . S
C161 C39 2.175 . S
C185 C58 2.094 . S
C193 C79 2.189 . S
C217 C19 2.180 . S
C225 C98 2.114 . S
C249 C119 2.194 . S
C257 C38 2.114 . S
C281 C59 2.207 . S
C289 C78 2.098 . S
C313 C4 1.400 . S
C321 C52 1.670 . S
C345 C24 1.388 . S
C353 C12 1.670 . S
C377 C44 1.351 . S
C385 C32 1.669 . S
C409 C69 1.475 . S
C417 C82 1.659 . S
C441 C89 1.520 . S
C449 C102 1.668 . S
C473 C62 1.651 . S
C481 C109 1.502 . S
C505 C2 0.973 . S
C513 C49 0.896 . S
C537 C22 0.994 . S
C545 C9 0.931 . S
C569 C42 0.987 . S
C577 C29 0.903 . S
C601 C72 0.991 . S
C609 C84 0.869 . S
C633 C92 0.990 . S
C641 C104 0.869 . S
C665 C64 0.939 . S
C673 C112 0.994 . S
