# Generated by pormake.
# Topology why, (6)-cn, num edge types: 1
# Building blocks:
#     Node 0, Type 0, BuildingBlock: CUKXOW_clean_sbu_0, # of connection points: 6
#     Node 1, Type 0, BuildingBlock: CUKXOW_clean_sbu_0, # of connection points: 6
#     Node 2, Type 0, BuildingBlock: CUKXOW_clean_sbu_0, # of connection points: 6
#     Node 3, Type 0, BuildingBlock: CUKXOW_clean_sbu_0, # of connection points: 6
#     Node 4, Type 0, BuildingBlock: CUKXOW_clean_sbu_0, # of connection points: 6
#     Node 5, Type 0, BuildingBlock: CUKXOW_clean_sbu_0, # of connection points: 6
#     Node 6, Type 0, BuildingBlock: CUKXOW_clean_sbu_0, # of connection points: 6
#     Node 7, Type 0, BuildingBlock: CUKXOW_clean_sbu_0, # of connection points: 6
#     Node 8, Type 0, BuildingBlock: CUKXOW_clean_sbu_0, # of connection points: 6
#     Node 9, Type 0, BuildingBlock: CUKXOW_clean_sbu_0, # of connection points: 6
#     Node 10, Type 0, BuildingBlock: CUKXOW_clean_sbu_0, # of connection points: 6
#     Node 11, Type 0, BuildingBlock: CUKXOW_clean_sbu_0, # of connection points: 6
#     Node 12, Type 0, BuildingBlock: CUKXOW_clean_sbu_0, # of connection points: 6
#     Node 13, Type 0, BuildingBlock: CUKXOW_clean_sbu_0, # of connection points: 6
#     Node 14, Type 0, BuildingBlock: CUKXOW_clean_sbu_0, # of connection points: 6
#     Node 15, Type 0, BuildingBlock: CUKXOW_clean_sbu_0, # of connection points: 6
#     Edge 16, Type (0, 0), BuildingBlock: KIFKEQ_clean_linker_1, # of connection points: 2
#     Edge 17, Type (0, 0), BuildingBlock: KIFKEQ_clean_linker_1, # of connection points: 2
#     Edge 18, Type (0, 0), BuildingBlock: KIFKEQ_clean_linker_1, # of connection points: 2
#     Edge 19, Type (0, 0), BuildingBlock: KIFKEQ_clean_linker_1, # of connection points: 2
#     Edge 20, Type (0, 0), BuildingBlock: KIFKEQ_clean_linker_1, # of connection points: 2
#     Edge 21, Type (0, 0), BuildingBlock: KIFKEQ_clean_linker_1, # of connection points: 2
#     Edge 22, Type (0, 0), BuildingBlock: KIFKEQ_clean_linker_1, # of connection points: 2
#     Edge 23, Type (0, 0), BuildingBlock: KIFKEQ_clean_linker_1, # of connection points: 2
#     Edge 24, Type (0, 0), BuildingBlock: KIFKEQ_clean_linker_1, # of connection points: 2
#     Edge 25, Type (0, 0), BuildingBlock: KIFKEQ_clean_linker_1, # of connection points: 2
#     Edge 26, Type (0, 0), BuildingBlock: KIFKEQ_clean_linker_1, # of connection points: 2
#     Edge 27, Type (0, 0), BuildingBlock: KIFKEQ_clean_linker_1, # of connection points: 2
#     Edge 28, Type (0, 0), BuildingBlock: KIFKEQ_clean_linker_1, # of connection points: 2
#     Edge 29, Type (0, 0), BuildingBlock: KIFKEQ_clean_linker_1, # of connection points: 2
#     Edge 30, Type (0, 0), BuildingBlock: KIFKEQ_clean_linker_1, # of connection points: 2
#     Edge 31, Type (0, 0), BuildingBlock: KIFKEQ_clean_linker_1, # of connection points: 2
#     Edge 32, Type (0, 0), BuildingBlock: KIFKEQ_clean_linker_1, # of connection points: 2
#     Edge 33, Type (0, 0), BuildingBlock: KIFKEQ_clean_linker_1, # of connection points: 2
#     Edge 34, Type (0, 0), BuildingBlock: KIFKEQ_clean_linker_1, # of connection points: 2
#     Edge 35, Type (0, 0), BuildingBlock: KIFKEQ_clean_linker_1, # of connection points: 2
#     Edge 36, Type (0, 0), BuildingBlock: KIFKEQ_clean_linker_1, # of connection points: 2
#     Edge 37, Type (0, 0), BuildingBlock: KIFKEQ_clean_linker_1, # of connection points: 2
#     Edge 38, Type (0, 0), BuildingBlock: KIFKEQ_clean_linker_1, # of connection points: 2
#     Edge 39, Type (0, 0), BuildingBlock: KIFKEQ_clean_linker_1, # of connection points: 2
#     Edge 40, Type (0, 0), BuildingBlock: KIFKEQ_clean_linker_1, # of connection points: 2
#     Edge 41, Type (0, 0), BuildingBlock: KIFKEQ_clean_linker_1, # of connection points: 2
#     Edge 42, Type (0, 0), BuildingBlock: KIFKEQ_clean_linker_1, # of connection points: 2
#     Edge 43, Type (0, 0), BuildingBlock: KIFKEQ_clean_linker_1, # of connection points: 2
#     Edge 44, Type (0, 0), BuildingBlock: KIFKEQ_clean_linker_1, # of connection points: 2
#     Edge 45, Type (0, 0), BuildingBlock: KIFKEQ_clean_linker_1, # of connection points: 2
#     Edge 46, Type (0, 0), BuildingBlock: KIFKEQ_clean_linker_1, # of connection points: 2
#     Edge 47, Type (0, 0), BuildingBlock: KIFKEQ_clean_linker_1, # of connection points: 2
#     Edge 48, Type (0, 0), BuildingBlock: KIFKEQ_clean_linker_1, # of connection points: 2
#     Edge 49, Type (0, 0), BuildingBlock: KIFKEQ_clean_linker_1, # of connection points: 2
#     Edge 50, Type (0, 0), BuildingBlock: KIFKEQ_clean_linker_1, # of connection points: 2
#     Edge 51, Type (0, 0), BuildingBlock: KIFKEQ_clean_linker_1, # of connection points: 2
#     Edge 52, Type (0, 0), BuildingBlock: KIFKEQ_clean_linker_1, # of connection points: 2
#     Edge 53, Type (0, 0), BuildingBlock: KIFKEQ_clean_linker_1, # of connection points: 2
#     Edge 54, Type (0, 0), BuildingBlock: KIFKEQ_clean_linker_1, # of connection points: 2
#     Edge 55, Type (0, 0), BuildingBlock: KIFKEQ_clean_linker_1, # of connection points: 2
#     Edge 56, Type (0, 0), BuildingBlock: KIFKEQ_clean_linker_1, # of connection points: 2
#     Edge 57, Type (0, 0), BuildingBlock: KIFKEQ_clean_linker_1, # of connection points: 2
#     Edge 58, Type (0, 0), BuildingBlock: KIFKEQ_clean_linker_1, # of connection points: 2
#     Edge 59, Type (0, 0), BuildingBlock: KIFKEQ_clean_linker_1, # of connection points: 2
#     Edge 60, Type (0, 0), BuildingBlock: KIFKEQ_clean_linker_1, # of connection points: 2
#     Edge 61, Type (0, 0), BuildingBlock: KIFKEQ_clean_linker_1, # of connection points: 2
#     Edge 62, Type (0, 0), BuildingBlock: KIFKEQ_clean_linker_1, # of connection points: 2
#     Edge 63, Type (0, 0), BuildingBlock: KIFKEQ_clean_linker_1, # of connection points: 2
# Relax obj value: 0.205
# Max RMSD: 0.190
# Mean RMSD: 0.190
data_MOF--net-why--node1-CUKXOW_clean_sbu_0--edge1-KIFKEQ_clean_linker_1
_symmetry_space_group_name_H-M    P1
_symmetry_Int_Tables_number       1
_symmetry_cell_setting            triclinic
loop_
_symmetry_equiv_pos_as_xyz
'x, y, z'
_cell_length_a     52.155206
_cell_length_b     52.334088
_cell_length_c     23.404945
_cell_angle_alpha  90.016223
_cell_angle_beta   89.907031
_cell_angle_gamma 90.195248
loop_
_atom_site_label
_atom_site_type_symbol
_atom_site_fract_x
_atom_site_fract_y
_atom_site_fract_z
_atom_type_partial_charge
Tb0 Tb 0.37593 0.19762 0.14342 0.0
C1 C 0.35014 0.14469 0.17321 0.0
Tb2 Tb 0.32693 0.18236 0.07821 0.0
O3 O 0.35894 0.22348 0.2075 0.0
O4 O 0.33648 0.206 0.14734 0.0
O5 O 0.36972 0.16044 0.18133 0.0
C6 C 0.27959 0.16711 1.05042 0.0
O7 O 0.33146 0.14932 0.13586 0.0
C8 C 0.37016 0.16952 1.02798 0.0
C9 C 0.35648 0.2321 1.04141 0.0
O10 O 0.29944 0.1665 1.01718 0.0
O11 O 0.28617 0.17708 0.09904 0.0
O12 O 0.34906 0.17491 1.00129 0.0
O13 O 0.36576 0.16955 0.08123 0.0
O14 O 0.33331 0.22123 1.04457 0.0
O15 O 0.37616 0.22416 0.07238 0.0
C16 C 0.42471 0.20283 0.17233 0.0
O17 O 0.4161 0.20267 0.12034 0.0
O18 O 0.40587 0.20028 0.20811 0.0
C19 C 0.33552 0.22069 0.19003 0.0
Tb20 Tb 0.5525 0.62354 0.39637 0.0
C21 C 0.60745 0.60492 0.42417 0.0
Tb22 Tb 0.57417 0.57602 0.32819 0.0
O23 O 0.5358 0.6024 0.4686 0.0
O24 O 0.55274 0.58317 0.40309 0.0
O25 O 0.59136 0.6244 0.42584 0.0
C26 C 0.59043 0.5293 0.30131 0.0
O27 O 0.60274 0.58319 0.39605 0.0
C28 C 0.58881 0.61935 0.27946 0.0
C29 C 0.52385 0.60366 0.28442 0.0
O30 O 0.6047 0.54939 0.30734 0.0
O31 O 0.56656 0.53538 0.31046 0.0
O32 O 0.59407 0.59675 0.25972 0.0
O33 O 0.57476 0.6161 0.32289 0.0
O34 O 0.53782 0.5823 0.28206 0.0
O35 O 0.52843 0.62256 0.32083 0.0
C36 C 0.53301 0.66676 0.43393 0.0
O37 O 0.55749 0.66252 0.42845 0.0
O38 O 0.51993 0.64722 0.41639 0.0
C39 C 0.54099 0.57982 0.44966 0.0
Tb40 Tb 0.12994 0.80199 0.64984 0.0
C41 C 0.15156 0.85567 0.68196 0.0
Tb42 Tb 0.17899 0.82313 0.58253 0.0
O43 O 0.1509 0.78306 0.71962 0.0
O44 O 0.17044 0.80094 0.65553 0.0
O45 O 0.1316 0.84002 0.68358 0.0
C46 C 0.22551 0.84069 0.55535 0.0
O47 O 0.17299 0.85086 0.65257 0.0
C48 C 0.13558 0.83874 0.53562 0.0
C49 C 0.1486 0.77493 0.53473 0.0
O50 O 0.20482 0.8541 0.55961 0.0
O51 O 0.22019 0.81679 0.56633 0.0
O52 O 0.15817 0.84385 0.51507 0.0
O53 O 0.13905 0.82462 0.57846 0.0
O54 O 0.17119 0.78728 0.53529 0.0
O55 O 0.12972 0.7797 0.57146 0.0
C56 C 0.08443 0.78818 0.68808 0.0
O57 O 0.10316 0.77269 0.6771 0.0
O58 O 0.09091 0.81155 0.67579 0.0
C59 C 0.17365 0.78823 0.70071 0.0
Tb60 Tb 0.95339 0.38012 0.89661 0.0
C61 C 0.89999 0.40354 0.93129 0.0
Tb62 Tb 0.9329 0.42666 0.82985 0.0
O63 O 0.9749 0.4 0.96384 0.0
O64 O 0.95555 0.42043 0.90295 0.0
O65 O 0.91553 0.38363 0.93337 0.0
C66 C 0.92163 0.47235 0.78581 0.0
O67 O 0.90468 0.4241 0.89938 0.0
C68 C 0.91194 0.38228 0.80362 0.0
C69 C 0.98297 0.39753 0.78484 0.0
O70 O 0.91857 0.45056 0.76027 0.0
O71 O 0.9319 0.46849 0.83559 0.0
O72 O 0.90022 0.40405 0.79988 0.0
O73 O 0.93503 0.3865 0.81695 0.0
O74 O 0.96929 0.41912 0.78316 0.0
O75 O 0.97838 0.37909 0.82248 0.0
C76 C 0.9635 0.33401 0.93612 0.0
O77 O 0.98012 0.35229 0.93018 0.0
O78 O 0.94113 0.34134 0.91831 0.0
C79 C 0.9696 0.42285 0.94658 0.0
Tb80 Tb 0.67892 0.82579 1.02392 0.0
C81 C 0.65375 0.77276 0.06279 0.0
Tb82 Tb 0.63368 0.80302 0.95453 0.0
O83 O 0.65509 0.85627 0.05791 0.0
O84 O 0.63854 0.82116 1.03583 0.0
O85 O 0.67369 0.78871 0.06845 0.0
C86 C 0.58954 0.7863 0.91425 0.0
O87 O 0.63533 0.7761 1.0246 0.0
C88 C 0.67813 0.79249 0.90396 0.0
C89 C 0.65207 0.85863 0.9263 0.0
O90 O 0.60975 0.77244 0.92198 0.0
O91 O 0.59382 0.80967 0.93064 0.0
O92 O 0.65596 0.78696 0.88263 0.0
O93 O 0.67377 0.80406 0.95002 0.0
O94 O 0.63329 0.84165 0.92326 0.0
O95 O 0.6732 0.85498 0.95724 0.0
C96 C 0.72572 0.83929 0.05807 0.0
O97 O 0.70579 0.83722 0.09123 0.0
O98 O 0.71944 0.83279 1.00641 0.0
C99 C 0.63365 0.84386 1.05151 0.0
Tb100 Tb 0.43413 0.42949 0.778 0.0
C101 C 0.48172 0.39997 0.82664 0.0
Tb102 Tb 0.45517 0.38427 0.71056 0.0
O103 O 0.40945 0.40943 0.84004 0.0
O104 O 0.43026 0.38972 0.77969 0.0
O105 O 0.47022 0.42269 0.82456 0.0
C106 C 0.47907 0.34371 0.66898 0.0
O107 O 0.47616 0.38138 0.79026 0.0
C108 C 0.46236 0.42963 0.66285 0.0
C109 C 0.39952 0.40059 0.68461 0.0
O110 O 0.49001 0.36505 0.68318 0.0
O111 O 0.4546 0.345 0.67892 0.0
O112 O 0.45768 0.40866 0.63552 0.0
O113 O 0.46386 0.42448 0.71565 0.0
O114 O 0.41609 0.38155 0.68267 0.0
O115 O 0.40398 0.42213 0.7135 0.0
C116 C 0.41984 0.47721 0.80255 0.0
O117 O 0.4271 0.46022 0.83958 0.0
O118 O 0.42157 0.46759 0.75151 0.0
C119 C 0.41476 0.38682 0.82055 0.0
Tb120 Tb 0.82864 0.18343 0.52129 0.0
C121 C 0.85774 0.23401 0.55465 0.0
Tb122 Tb 0.87671 0.19907 0.45263 0.0
O123 O 0.85226 0.17506 0.5959 0.0
O124 O 0.86722 0.17059 0.51393 0.0
O125 O 0.83488 0.22241 0.55414 0.0
C126 C 0.92547 0.20328 0.42276 0.0
O127 O 0.8772 0.22614 0.52269 0.0
C128 C 0.83594 0.22227 0.40938 0.0
C129 C 0.85004 0.1467 0.42215 0.0
O130 O 0.91711 0.202 0.47493 0.0
O131 O 0.90639 0.20255 0.38733 0.0
O132 O 0.85917 0.22514 0.39038 0.0
O133 O 0.83722 0.20739 0.45178 0.0
O134 O 0.86936 0.16263 0.41267 0.0
O135 O 0.83228 0.15078 0.46213 0.0
C136 C 0.78154 0.1677 0.55044 0.0
O137 O 0.80104 0.16918 0.58452 0.0
O138 O 0.78832 0.17591 0.50033 0.0
C139 C 0.87274 0.17003 0.56644 0.0
Tb140 Tb 0.07451 0.57492 0.27472 0.0
C141 C 0.02556 0.60075 0.33085 0.0
Tb142 Tb 0.04798 0.62221 0.21377 0.0
O143 O 0.09567 0.5964 0.34086 0.0
O144 O 0.07287 0.61464 0.28239 0.0
O145 O 0.03934 0.5793 0.32693 0.0
C146 C 0.02511 0.66466 0.18251 0.0
O147 O 0.02834 0.62035 0.29544 0.0
C148 C 0.03717 0.57835 0.16002 0.0
C149 C 0.1038 0.60817 0.17958 0.0
O150 O 0.01392 0.64531 0.20666 0.0
O151 O 0.04964 0.66063 0.17761 0.0
O152 O 0.02999 0.60072 0.14333 0.0
O153 O 0.05013 0.58204 0.20464 0.0
O154 O 0.08646 0.62654 0.18294 0.0
O155 O 0.10061 0.5851 0.20338 0.0
C156 C 0.09168 0.528 0.29726 0.0
O157 O 0.10576 0.54818 0.28993 0.0
O158 O 0.06765 0.53413 0.29162 0.0
C159 C 0.08807 0.61871 0.32323 0.0
Tb160 Tb 0.87165 0.69765 0.65495 0.0
C161 C 0.85117 0.64219 0.66666 0.0
Tb162 Tb 0.82701 0.682 0.57763 0.0
O163 O 0.84574 0.69927 0.72722 0.0
O164 O 0.83208 0.7087 0.64657 0.0
O165 O 0.87049 0.65785 0.67714 0.0
C166 C 0.77871 0.67115 0.54957 0.0
O167 O 0.83125 0.64843 0.63404 0.0
C168 C 0.87011 0.6624 0.53746 0.0
C169 C 0.85922 0.73086 0.54453 0.0
O170 O 0.7878 0.67164 0.60118 0.0
O171 O 0.79667 0.67763 0.51373 0.0
O172 O 0.84788 0.6591 0.51342 0.0
O173 O 0.8665 0.67635 0.58056 0.0
O174 O 0.83664 0.71909 0.53839 0.0
O175 O 0.87623 0.72371 0.58344 0.0
C176 C 0.91418 0.71439 0.70399 0.0
O177 O 0.89333 0.72755 0.6983 0.0
O178 O 0.9112 0.69194 0.68144 0.0
C179 C 0.82565 0.70602 0.69861 0.0
Tb180 Tb 0.05337 0.11994 0.90311 0.0
C181 C 0.108 0.10231 0.92802 0.0
Tb182 Tb 0.07407 0.07561 0.83186 0.0
O183 O 0.05231 0.09593 0.97885 0.0
O184 O 0.04635 0.07935 0.89931 0.0
O185 O 0.09284 0.12237 0.92647 0.0
C186 C 0.09054 0.02907 0.80237 0.0
O187 O 0.10192 0.0804 0.90238 0.0
C188 C 0.09058 0.11914 0.78763 0.0
C189 C 0.0257 0.10539 0.7857 0.0
O190 O 0.10478 0.04863 0.814 0.0
O191 O 0.06656 0.03559 0.807 0.0
O192 O 0.09526 0.09686 0.76553 0.0
O193 O 0.07644 0.11546 0.83061 0.0
O194 O 0.03977 0.08423 0.77993 0.0
O195 O 0.02885 0.12169 0.82857 0.0
C196 C 0.03377 0.16231 0.94638 0.0
O197 O 0.02119 0.14114 0.939 0.0
O198 O 0.05723 0.15966 0.92894 0.0
C199 C 0.04882 0.07455 0.95215 0.0
Tb200 Tb 0.63646 0.3008 0.15193 0.0
C201 C 0.65216 0.35684 0.17388 0.0
Tb202 Tb 0.68081 0.32197 0.08055 0.0
O203 O 0.66144 0.29937 0.22581 0.0
O204 O 0.67695 0.29308 0.14502 0.0
O205 O 0.63337 0.33992 0.17779 0.0
C206 C 0.72869 0.33626 0.05454 0.0
O207 O 0.67352 0.35262 0.14386 0.0
C208 C 0.63721 0.34036 1.0407 0.0
C209 C 0.65049 0.27415 1.0346 0.0
O210 O 0.7112 0.32957 1.01791 0.0
O211 O 0.71941 0.33411 0.10586 0.0
O212 O 0.65959 0.34604 1.01964 0.0
O213 O 0.64088 0.32515 0.08163 0.0
O214 O 0.67321 0.286 1.03378 0.0
O215 O 0.63278 0.27943 0.07333 0.0
C216 C 0.59627 0.27625 0.19468 0.0
O217 O 0.61768 0.26573 0.17949 0.0
O218 O 0.59736 0.30072 0.18551 0.0
C219 C 0.68238 0.29528 0.19766 0.0
Tb220 Tb 0.45038 0.88267 0.4004 0.0
C221 C 0.39714 0.90609 0.4309 0.0
Tb222 Tb 0.43226 0.92832 0.32912 0.0
O223 O 0.47425 0.90252 0.46369 0.0
O224 O 0.45572 0.92273 0.40088 0.0
O225 O 0.41283 0.88654 0.43697 0.0
C226 C 0.41424 0.97333 0.29405 0.0
O227 O 0.40174 0.92528 0.39474 0.0
C228 C 0.42259 0.8833 0.28453 0.0
C229 C 0.48368 0.90027 0.29377 0.0
O230 O 0.40296 0.95145 0.28756 0.0
O231 O 0.43609 0.96993 0.31961 0.0
O232 O 0.42716 0.90379 0.25475 0.0
O233 O 0.42185 0.88917 0.33699 0.0
O234 O 0.47016 0.92184 0.28922 0.0
O235 O 0.47809 0.88231 0.33167 0.0
C236 C 0.4582 0.83527 0.43402 0.0
O237 O 0.45581 0.84247 0.3813 0.0
O238 O 0.4564 0.85472 0.46804 0.0
C239 C 0.46999 0.92528 0.44414 0.0
Tb240 Tb 0.18114 0.32155 0.52281 0.0
C241 C 0.15161 0.27348 0.57009 0.0
Tb242 Tb 0.13691 0.29967 0.45332 0.0
O243 O 0.16004 0.34579 0.58371 0.0
O244 O 0.14112 0.32443 0.52297 0.0
O245 O 0.17424 0.28542 0.56909 0.0
C246 C 0.09701 0.27502 0.40997 0.0
O247 O 0.13335 0.27855 0.53264 0.0
C248 C 0.18289 0.29436 0.40658 0.0
C249 C 0.15238 0.35573 0.4292 0.0
O250 O 0.098 0.29948 0.41914 0.0
O251 O 0.1183 0.2645 0.42581 0.0
O252 O 0.16184 0.29828 0.37892 0.0
O253 O 0.17749 0.29224 0.45926 0.0
O254 O 0.13358 0.33875 0.42674 0.0
O255 O 0.17395 0.35167 0.45842 0.0
C256 C 0.22866 0.33556 0.55148 0.0
O257 O 0.22001 0.33382 0.49959 0.0
O258 O 0.21076 0.32873 0.587 0.0
C259 C 0.13759 0.33983 0.56366 0.0
Tb260 Tb 0.93322 0.93056 0.27826 0.0
C261 C 0.98246 0.90067 0.31581 0.0
Tb262 Tb 0.94885 0.88268 0.21131 0.0
O263 O 0.92449 0.90796 0.35402 0.0
O264 O 0.92032 0.89202 0.27279 0.0
O265 O 0.97194 0.92388 0.31288 0.0
C266 C 0.95296 0.83431 0.18143 0.0
O267 O 0.97466 0.8814 0.28348 0.0
C268 C 0.97313 0.92299 0.168 0.0
C269 C 0.89574 0.90801 0.18159 0.0
O270 O 0.95217 0.84261 0.2336 0.0
O271 O 0.95189 0.85324 0.14581 0.0
O272 O 0.97593 0.89974 0.14996 0.0
O273 O 0.95775 0.92204 0.20969 0.0
O274 O 0.91215 0.88931 0.17153 0.0
O275 O 0.89979 0.92587 0.22123 0.0
C276 C 0.91824 0.97779 0.30482 0.0
O277 O 0.92015 0.95892 0.34034 0.0
O278 O 0.92561 0.97032 0.25459 0.0
C279 C 0.91973 0.88714 0.32571 0.0
Tb280 Tb 0.326 0.68199 1.02163 0.0
C281 C 0.35889 0.72973 0.06279 0.0
Tb282 Tb 0.37431 0.70006 0.94804 0.0
O283 O 0.34717 0.66151 0.08852 0.0
O284 O 0.36606 0.67892 1.02211 0.0
O285 O 0.33596 0.71814 0.0658 0.0
C286 C 0.41944 0.71251 0.90569 0.0
O287 O 0.37667 0.72351 1.02445 0.0
C288 C 0.33043 0.71573 0.90143 0.0
C289 C 0.3502 0.64648 0.92257 0.0
O290 O 0.40107 0.72839 0.91654 0.0
O291 O 0.41284 0.68943 0.92035 0.0
O292 O 0.35302 0.72017 0.88073 0.0
O293 O 0.33389 0.7025 0.94584 0.0
O294 O 0.37001 0.66203 0.9152 0.0
O295 O 0.33018 0.65165 0.9564 0.0
C296 C 0.27853 0.66908 0.05351 0.0
O297 O 0.29908 0.65596 0.06273 0.0
O298 O 0.28461 0.69007 1.02673 0.0
C299 C 0.36964 0.66532 0.0659 0.0
Tb300 Tb 0.57393 0.07751 0.76877 0.0
C301 C 0.52217 0.10583 0.79905 0.0
Tb302 Tb 0.55794 0.12466 0.69723 0.0
O303 O 0.57928 0.10193 0.84332 0.0
O304 O 0.58566 0.1163 0.76112 0.0
O305 O 0.53504 0.08386 0.8034 0.0
C306 C 0.55278 0.17323 0.66855 0.0
O307 O 0.52939 0.12461 0.76448 0.0
C308 C 0.5368 0.08274 0.65389 0.0
C309 C 0.61103 0.09922 0.66954 0.0
O310 O 0.55458 0.16472 0.72042 0.0
O311 O 0.55356 0.15438 0.63254 0.0
O312 O 0.53299 0.1056 0.63413 0.0
O313 O 0.55129 0.08508 0.69676 0.0
O314 O 0.59523 0.1185 0.66021 0.0
O315 O 0.60636 0.08094 0.70803 0.0
C316 C 0.58955 0.03123 0.80184 0.0
O317 O 0.59648 0.05272 0.82466 0.0
O318 O 0.57329 0.03571 0.76112 0.0
C319 C 0.58487 0.12217 0.81352 0.0
H320 H 0.46644 0.1974 0.10493 0.0
H321 H 0.44262 0.21966 0.27458 0.0
H322 H 0.5102 0.21101 0.12643 0.0
H323 H 0.48646 0.23389 0.29568 0.0
H324 H 0.5512 0.29566 0.23328 0.0
H325 H 0.5105 0.27263 0.24219 0.0
H326 H 0.54853 0.20209 0.19862 0.0
H327 H 0.5893 0.22498 0.19062 0.0
C328 C 0.47075 0.20482 0.14709 0.0
C329 C 0.45137 0.20774 0.18804 0.0
C330 C 0.49572 0.2124 0.15953 0.0
C331 C 0.5015 0.2234 0.21269 0.0
C332 C 0.48232 0.22536 0.25452 0.0
C333 C 0.45739 0.21726 0.24246 0.0
C334 C 0.55093 0.27513 0.22724 0.0
C335 C 0.57313 0.26206 0.2106 0.0
C336 C 0.52777 0.26197 0.23269 0.0
C337 C 0.52658 0.2357 0.2208 0.0
C338 C 0.54912 0.22237 0.20789 0.0
C339 C 0.57233 0.23545 0.2033 0.0
H340 H 0.4829 0.67358 0.45628 0.0
H341 H 0.55634 0.71205 0.46016 0.0
H342 H 0.46139 0.71381 0.47622 0.0
H343 H 0.53458 0.75257 0.48014 0.0
H344 H 0.48367 0.82061 0.52967 0.0
H345 H 0.50062 0.77771 0.54917 0.0
H346 H 0.46377 0.74958 0.39626 0.0
H347 H 0.44756 0.79222 0.37616 0.0
C348 C 0.49445 0.69059 0.46261 0.0
C349 C 0.52115 0.69008 0.45535 0.0
C350 C 0.48215 0.71345 0.47449 0.0
C351 C 0.49642 0.73604 0.47928 0.0
C352 C 0.52331 0.7352 0.47706 0.0
C353 C 0.53569 0.71221 0.46506 0.0
C354 C 0.47881 0.80501 0.50118 0.0
C355 C 0.46459 0.80938 0.45132 0.0
C356 C 0.48849 0.78069 0.51225 0.0
C357 C 0.4833 0.76062 0.47428 0.0
C358 C 0.46769 0.7648 0.42645 0.0
C359 C 0.45858 0.78911 0.41476 0.0
H360 H 0.03876 0.81257 0.67873 0.0
H361 H 0.07491 0.74559 0.74927 0.0
H362 H 0.99676 0.79511 0.70322 0.0
H363 H 0.03316 0.72867 0.77702 0.0
H364 H 0.96008 0.69074 0.70234 0.0
H365 H 1.00164 0.71031 0.71766 0.0
H366 H 0.96478 0.78068 0.769 0.0
H367 H 0.92295 0.76108 0.75118 0.0
C368 C 0.03764 0.79445 0.701 0.0
C369 C 0.05971 0.78002 0.71096 0.0
C370 C 0.01367 0.78454 0.71563 0.0
C371 C 0.01163 0.76028 0.74132 0.0
C372 C 0.03408 0.74708 0.75597 0.0
C373 C 0.05792 0.75672 0.74015 0.0
C374 C 0.96089 0.7102 0.7181 0.0
C375 C 0.93854 0.72462 0.72463 0.0
C376 C 0.9847 0.72141 0.72745 0.0
C377 C 0.98652 0.74719 0.74406 0.0
C378 C 0.96396 0.76094 0.75521 0.0
C379 C 0.94009 0.74973 0.74528 0.0
H380 H 1.00306 0.32175 1.0046 0.0
H381 H 0.93811 0.28953 0.91573 0.0
H382 H 0.01793 0.27901 1.02846 0.0
H383 H 0.95363 0.24661 0.93658 0.0
H384 H 0.98484 0.1708 0.98229 0.0
H385 H 0.96497 0.21237 0.99983 0.0
H386 H 0.03785 0.24934 0.9667 0.0
H387 H 0.05756 0.20808 0.9515 0.0
C388 C 0.99187 0.30541 0.99075 0.0
C389 C 0.96981 0.30862 0.95751 0.0
C390 C 1.00036 0.281 1.00427 0.0
C391 C 0.98728 0.25944 0.98335 0.0
C392 C 0.96407 0.2628 0.9537 0.0
C393 C 0.95527 0.28731 0.94126 0.0
C394 C 0.99659 0.18789 0.98014 0.0
C395 C 0.02257 0.18648 0.96499 0.0
C396 C 0.98525 0.21161 0.98993 0.0
C397 C 0.99977 0.23414 0.98431 0.0
C398 C 0.02614 0.23239 0.97237 0.0
C399 C 0.03745 0.20876 0.96306 0.0
H400 H 0.58163 0.74065 0.86314 0.0
H401 H 0.5432 0.80957 0.91699 0.0
H402 H 0.54046 0.72141 0.83847 0.0
H403 H 0.50199 0.79014 0.89466 0.0
H404 H 0.43013 0.7554 0.84659 0.0
H405 H 0.47249 0.77302 0.8266 0.0
H406 H 0.50709 0.70543 0.89941 0.0
H407 H 0.46463 0.68744 0.91671 0.0
C408 C 0.56431 0.75173 0.86906 0.0
C409 C 0.56528 0.77634 0.89271 0.0
C410 C 0.54083 0.74074 0.85501 0.0
C411 C 0.51801 0.75413 0.86515 0.0
C412 C 0.51924 0.77942 0.88556 0.0
C413 C 0.54277 0.7905 0.89893 0.0
C414 C 0.44688 0.74412 0.85684 0.0
C415 C 0.44445 0.72039 0.8841 0.0
C416 C 0.47105 0.75419 0.84555 0.0
C417 C 0.49306 0.74087 0.86254 0.0
C418 C 0.4905 0.71611 0.88543 0.0
C419 C 0.46625 0.70584 0.89578 0.0
H420 H 0.53053 0.33719 0.66449 0.0
H421 H 0.45848 0.29889 0.63223 0.0
H422 H 0.55335 0.29708 0.64872 0.0
H423 H 0.48135 0.25884 0.6159 0.0
H424 H 0.53168 0.19177 0.57084 0.0
H425 H 0.51704 0.2357 0.55459 0.0
H426 H 0.5486 0.25812 0.71768 0.0
H427 H 0.56268 0.21439 0.73429 0.0
C428 C 0.51967 0.32031 0.65268 0.0
C429 C 0.4928 0.32084 0.65039 0.0
C430 C 0.53271 0.29749 0.64355 0.0
C431 C 0.51903 0.27504 0.63127 0.0
C432 C 0.49229 0.27603 0.62473 0.0
C433 C 0.47922 0.2988 0.63456 0.0
C434 C 0.53594 0.20631 0.60242 0.0
C435 C 0.54797 0.19992 0.65401 0.0
C436 C 0.52759 0.23128 0.59317 0.0
C437 C 0.53177 0.2501 0.63489 0.0
C438 C 0.54543 0.24396 0.68463 0.0
C439 C 0.55328 0.21898 0.69433 0.0
H440 H 0.94381 0.2213 0.32177 0.0
H441 H 0.96707 0.19479 0.48853 0.0
H442 H 0.98803 0.23466 0.30162 0.0
H443 H 0.01113 0.20764 0.46808 0.0
H444 H 0.09027 0.22366 0.41051 0.0
H445 H 0.04977 0.20067 0.39825 0.0
H446 H 0.01202 0.27162 0.35699 0.0
H447 H 0.05242 0.29466 0.3699 0.0
C448 C 0.95853 0.21776 0.35338 0.0
C449 C 0.95225 0.2074 0.40689 0.0
C450 C 0.98368 0.22535 0.34185 0.0
C451 C 1.00279 0.22209 0.3833 0.0
C452 C 0.99673 0.21005 0.43522 0.0
C453 C 0.97156 0.20293 0.44711 0.0
C454 C 0.07343 0.2342 0.39745 0.0
C455 C 0.07417 0.26089 0.392 0.0
C456 C 0.05038 0.22106 0.39035 0.0
C457 C 0.02795 0.23447 0.37693 0.0
C458 C 0.02919 0.26088 0.36681 0.0
C459 C 0.05217 0.27406 0.37465 0.0
H460 H 0.04556 0.70867 0.13986 0.0
H461 H 0.97392 0.67147 0.1823 0.0
H462 H 0.02247 0.74847 0.12151 0.0
H463 H 0.95094 0.71101 0.16345 0.0
H464 H 0.94284 0.79331 0.24686 0.0
H465 H 0.95631 0.74958 0.2292 0.0
H466 H 0.98646 0.77185 0.06436 0.0
H467 H 0.97251 0.81591 0.08195 0.0
C468 C 0.02487 0.70892 0.14397 0.0
C469 C 0.01148 0.68744 0.16376 0.0
C470 C 0.01166 0.73149 0.13283 0.0
C471 C 0.98502 0.73262 0.14147 0.0
C472 C 0.9715 0.7105 0.15688 0.0
C473 C 0.98466 0.68804 0.16804 0.0
C474 C 0.95177 0.78869 0.20631 0.0
C475 C 0.957 0.80771 0.16596 0.0
C476 C 0.95926 0.76371 0.19596 0.0
C477 C 0.97241 0.75755 0.14544 0.0
C478 C 0.97633 0.77632 0.10354 0.0
C479 C 0.96837 0.80134 0.11355 0.0
H480 H 0.15339 0.07721 0.90805 0.0
H481 H 0.11894 0.13596 1.01227 0.0
H482 H 0.19583 0.08975 0.94354 0.0
H483 H 0.16084 0.14887 1.0461 0.0
H484 H 0.23883 0.16044 0.12199 0.0
H485 H 0.19807 0.1394 0.10056 0.0
H486 H 0.22342 0.12641 0.92704 0.0
H487 H 0.26438 0.14669 0.94925 0.0
C488 C 0.15483 0.09237 0.93941 0.0
C489 C 0.13292 0.10575 0.95695 0.0
C490 C 0.17911 0.09978 0.95923 0.0
C491 C 0.18179 0.12057 0.99713 0.0
C492 C 0.1596 0.1327 1.01736 0.0
C493 C 0.13551 0.12538 0.99757 0.0
C494 C 0.2356 0.15308 0.07933 0.0
C495 C 0.25457 0.1554 1.0371 0.0
C496 C 0.2123 0.14099 0.06701 0.0
C497 C 0.20745 0.13114 1.01205 0.0
C498 C 0.22665 0.13332 0.97006 0.0
C499 C 0.24998 0.14526 0.98252 0.0
H500 H 0.6728 0.4033 0.1441 0.0
H501 H 0.62007 0.36735 0.262 0.0
H502 H 0.65852 0.44532 0.17699 0.0
H503 H 0.60621 0.40903 0.29539 0.0
H504 H 0.56342 0.48508 0.28405 0.0
H505 H 0.58061 0.4434 0.25652 0.0
H506 H 0.65733 0.4749 0.25719 0.0
H507 H 0.64006 0.5165 0.28341 0.0
C508 C 0.65865 0.40437 0.17794 0.0
C509 C 0.64742 0.38206 0.20012 0.0
C510 C 0.65039 0.42841 0.1967 0.0
C511 C 0.63087 0.4305 0.23812 0.0
C512 C 0.62076 0.40811 0.26239 0.0
C513 C 0.62889 0.38421 0.24355 0.0
C514 C 0.58392 0.48299 0.27832 0.0
C515 C 0.6004 0.50392 0.28578 0.0
C516 C 0.59383 0.45915 0.26291 0.0
C517 C 0.6204 0.45582 0.2548 0.0
C518 C 0.6368 0.47686 0.26244 0.0
C519 C 0.6269 0.50064 0.27778 0.0
H520 H 0.35057 0.9241 0.39486 0.0
H521 H 0.38672 0.88072 0.5292 0.0
H522 H 0.30852 0.90935 0.428 0.0
H523 H 0.34492 0.86623 0.56253 0.0
H524 H 0.27206 0.81657 0.54831 0.0
H525 H 0.31344 0.83598 0.52353 0.0
H526 H 0.2768 0.90946 0.50545 0.0
H527 H 0.23566 0.89004 0.52932 0.0
C528 C 0.34949 0.91215 0.43258 0.0
C529 C 0.37192 0.90343 0.45917 0.0
C530 C 0.32543 0.90353 0.45137 0.0
C531 C 0.32345 0.88611 0.49711 0.0
C532 C 0.34582 0.87905 0.52624 0.0
C533 C 0.36975 0.88761 0.50752 0.0
C534 C 0.27295 0.83683 0.53901 0.0
C535 C 0.25072 0.85177 0.54062 0.0
C536 C 0.29661 0.84802 0.52524 0.0
C537 C 0.29841 0.87434 0.51272 0.0
C538 C 0.27606 0.88916 0.51434 0.0
C539 C 0.25252 0.87801 0.52825 0.0
H540 H 0.84992 0.59898 0.60289 0.0
H541 H 0.86152 0.62662 0.77434 0.0
H542 H 0.8667 0.55734 0.63039 0.0
H543 H 0.87654 0.58461 0.80367 0.0
H544 H 0.93284 0.5202 0.82434 0.0
H545 H 0.91286 0.56023 0.79601 0.0
H546 H 0.8641 0.51896 0.67801 0.0
H547 H 0.88551 0.47936 0.70386 0.0
C548 C 0.85502 0.5957 0.64715 0.0
C549 C 0.85425 0.61578 0.68672 0.0
C550 C 0.86478 0.57184 0.66307 0.0
C551 C 0.87353 0.5675 0.71925 0.0
C552 C 0.87088 0.5873 0.75962 0.0
C553 C 0.86178 0.61128 0.74325 0.0
C554 C 0.91807 0.51986 0.79183 0.0
C555 C 0.91083 0.49679 0.766 0.0
C556 C 0.90627 0.54275 0.77607 0.0
C557 C 0.88645 0.54303 0.73509 0.0
C558 C 0.87944 0.51977 0.70906 0.0
C559 C 0.89167 0.49698 0.72395 0.0
H560 H 0.74258 0.85213 0.16477 0.0
H561 H 0.7638 0.85432 0.98655 0.0
H562 H 0.78276 0.87358 0.18969 0.0
H563 H 0.80326 0.87675 1.0107 0.0
H564 H 0.88457 0.88242 0.08411 0.0
H565 H 0.84284 0.86792 0.05281 0.0
H566 H 0.80698 0.91263 0.18601 0.0
H567 H 0.84934 0.92639 0.21908 0.0
C568 C 0.75585 0.85726 0.131 0.0
C569 C 0.75032 0.85126 0.0739 0.0
C570 C 0.77869 0.86989 0.14509 0.0
C571 C 0.7963 0.87701 0.10221 0.0
C572 C 0.79042 0.87124 1.04498 0.0
C573 C 0.7678 0.85835 1.03107 0.0
C574 C 0.86778 0.88961 0.10613 0.0
C575 C 0.87029 0.90533 0.15449 0.0
C576 C 0.84373 0.88135 0.08795 0.0
C577 C 0.82145 0.88878 0.11732 0.0
C578 C 0.8238 0.90609 0.16317 0.0
C579 C 0.84803 0.91433 0.18158 0.0
H580 H 0.33313 0.60031 0.96301 0.0
H581 H 0.37417 0.63524 0.82289 0.0
H582 H 0.34728 0.5581 0.93057 0.0
H583 H 0.38858 0.59349 0.79118 0.0
H584 H 0.40036 0.51242 0.72882 0.0
H585 H 0.37792 0.55197 0.75243 0.0
H586 H 0.38929 0.53696 0.93214 0.0
H587 H 0.4113 0.49721 0.90834 0.0
C588 C 0.34447 0.59891 0.92434 0.0
C589 C 0.35261 0.62105 0.8956 0.0
C590 C 0.35292 0.5748 0.90623 0.0
C591 C 0.36942 0.57244 0.85879 0.0
C592 C 0.37584 0.59451 0.82769 0.0
C593 C 0.36759 0.6185 0.84595 0.0
C594 C 0.39814 0.51767 0.77332 0.0
C595 C 0.40775 0.5019 0.81675 0.0
C596 C 0.38523 0.54028 0.78689 0.0
C597 C 0.38163 0.54758 0.84422 0.0
C598 C 0.39128 0.53169 0.8876 0.0
C599 C 0.4042 0.5091 0.87399 0.0
H600 H 0.65709 0.07971 0.70604 0.0
H601 H 0.62261 0.12451 0.57182 0.0
H602 H 0.69966 0.09279 0.67272 0.0
H603 H 0.66456 0.13838 0.54032 0.0
H604 H 0.744 0.15322 0.47655 0.0
H605 H 0.70441 0.13032 0.49856 0.0
H606 H 0.72401 0.13136 0.67805 0.0
H607 H 0.76414 0.1532 0.65527 0.0
C608 C 0.6586 0.09179 0.66861 0.0
C609 C 0.63649 0.10127 0.64194 0.0
C610 C 0.68297 0.09965 0.65003 0.0
C611 C 0.68562 0.11709 0.60446 0.0
C612 C 0.66346 0.12487 0.57526 0.0
C613 C 0.63927 0.11698 0.5936 0.0
C614 C 0.73976 0.14856 0.52067 0.0
C615 C 0.75694 0.15519 0.5643 0.0
C616 C 0.71708 0.13541 0.53338 0.0
C617 C 0.71089 0.12891 0.59017 0.0
C618 C 0.72828 0.13554 0.63373 0.0
C619 C 0.75112 0.1484 0.62086 0.0
H620 H 0.11893 0.36583 0.34349 0.0
H621 H 0.17439 0.40222 0.45393 0.0
H622 H 0.10563 0.4073 0.30796 0.0
H623 H 0.16065 0.44408 0.41895 0.0
H624 H 0.14159 0.51452 0.31035 0.0
H625 H 0.15865 0.47283 0.33717 0.0
H626 H 0.0815 0.44267 0.34612 0.0
H627 H 0.06456 0.48429 0.31809 0.0
C628 C 0.12845 0.38273 0.35991 0.0
C629 C 0.1476 0.38076 0.4019 0.0
C630 C 0.12066 0.40654 0.3398 0.0
C631 C 0.13171 0.42906 0.36134 0.0
C632 C 0.15179 0.42709 0.4013 0.0
C633 C 0.15972 0.40313 0.42131 0.0
C634 C 0.12831 0.49891 0.3178 0.0
C635 C 0.10175 0.50255 0.31209 0.0
C636 C 0.13808 0.47508 0.33351 0.0
C637 C 0.12149 0.45438 0.34375 0.0
C638 C 0.09487 0.45809 0.33769 0.0
C639 C 0.08512 0.48193 0.32195 0.0
H640 H 0.61774 0.635 0.5157 0.0
H641 H 0.65399 0.58529 0.39264 0.0
H642 H 0.65957 0.64948 0.54838 0.0
H643 H 0.69619 0.59974 0.42584 0.0
H644 H 0.76036 0.66158 0.44266 0.0
H645 H 0.71946 0.6416 0.41729 0.0
H646 H 0.69951 0.63655 0.59616 0.0
H647 H 0.74029 0.65671 0.62135 0.0
C648 C 0.63472 0.62673 0.49651 0.0
C649 C 0.63262 0.60907 0.45149 0.0
C650 C 0.6587 0.635 0.51534 0.0
C651 C 0.68117 0.62598 0.48925 0.0
C652 C 0.67915 0.60728 0.4462 0.0
C653 C 0.65505 0.59876 0.42771 0.0
C654 C 0.74713 0.65634 0.47643 0.0
C655 C 0.75334 0.66083 0.5339 0.0
C656 C 0.72388 0.64461 0.462 0.0
C657 C 0.70637 0.63729 0.50477 0.0
C658 C 0.71257 0.64205 0.56225 0.0
C659 C 0.73586 0.65363 0.57666 0.0
H660 H 0.0637 0.98502 0.78142 0.0
H661 H 0.14045 0.01591 0.78998 0.0
H662 H 0.08129 0.94303 0.75751 0.0
H663 H 0.15807 0.97403 0.76702 0.0
H664 H 0.17455 0.90142 0.65561 0.0
H665 H 0.16071 0.94377 0.68722 0.0
H666 H 0.10595 0.90879 0.80196 0.0
H667 H 0.1195 0.86672 0.77008 0.0
C668 C 0.08429 0.98278 0.77829 0.0
C669 C 0.10069 0.00364 0.78746 0.0
C670 C 0.09442 0.95875 0.76504 0.0
C671 C 0.12114 0.95516 0.76064 0.0
C672 C 0.13745 0.97617 0.76959 0.0
C673 C 0.12733 1.00012 0.78297 0.0
C674 C 0.16007 0.90281 0.68869 0.0
C675 C 0.14799 0.88075 0.70998 0.0
C676 C 0.15202 0.92706 0.70661 0.0
C677 C 0.13181 0.92963 0.74621 0.0
C678 C 0.12105 0.90749 0.77026 0.0
C679 C 0.12902 0.88337 0.75236 0.0
H680 H 0.74748 0.34732 0.94862 0.0
H681 H 0.76627 0.35159 0.12788 0.0
H682 H 0.78818 0.36804 0.92478 0.0
H683 H 0.80691 0.37255 0.10423 0.0
H684 H 0.88941 0.37511 1.02553 0.0
H685 H 0.84744 0.36092 0.05837 0.0
H686 H 0.81134 0.40936 0.93286 0.0
H687 H 0.85363 0.42343 0.89947 0.0
C688 C 0.76036 0.35266 0.9829 0.0
C689 C 0.75383 0.34769 1.04005 0.0
C690 C 0.78353 0.36482 0.96932 0.0
C691 C 0.80073 0.37216 1.01262 0.0
C692 C 0.79416 0.36706 0.06985 0.0
C693 C 0.77092 0.35502 0.08341 0.0
C694 C 0.87251 0.38325 1.00588 0.0
C695 C 0.87483 0.40037 0.95985 0.0
C696 C 0.84842 0.37512 1.02476 0.0
C697 C 0.82602 0.38373 0.99776 0.0
C698 C 0.82827 0.40208 0.95398 0.0
C699 C 0.85246 0.41044 0.9354 0.0
H700 H 0.36641 0.98183 0.25265 0.0
H701 H 0.43624 0.02055 0.30126 0.0
H702 H 0.34662 0.02277 0.23015 0.0
H703 H 0.4169 0.06151 0.2769 0.0
H704 H 0.3343 0.09878 0.12997 0.0
H705 H 0.3482 0.05664 0.16183 0.0
H706 H 0.3853 0.09115 0.30793 0.0
H707 H 0.37217 0.13319 0.27482 0.0
C708 C 0.37758 0.99914 0.25807 0.0
C709 C 0.40286 0.9981 0.27858 0.0
C710 C 0.36627 0.0226 0.24504 0.0
C711 C 0.38006 0.04551 0.25199 0.0
C712 C 0.40548 0.04432 0.27219 0.0
C713 C 0.41671 0.02087 0.28559 0.0
C714 C 0.34479 0.09723 0.16972 0.0
C715 C 0.35233 0.11923 0.19971 0.0
C716 C 0.35287 0.07308 0.18795 0.0
C717 C 0.3684 0.07053 0.23681 0.0
C718 C 0.37406 0.09246 0.26918 0.0
C719 C 0.36626 0.11653 0.25063 0.0
H720 H 0.24563 0.34622 0.65874 0.0
H721 H 0.26784 0.35004 0.48119 0.0
H722 H 0.28639 0.36582 0.68615 0.0
H723 H 0.30864 0.36977 0.5085 0.0
H724 H 0.38943 0.3695 0.59463 0.0
H725 H 0.3477 0.35583 0.55964 0.0
H726 H 0.31075 0.40713 0.67835 0.0
H727 H 0.35284 0.42082 0.71383 0.0
C728 C 0.25927 0.35123 0.62561 0.0
C729 C 0.25371 0.34647 0.56791 0.0
C730 C 0.28247 0.36272 0.64123 0.0
C731 C 0.30065 0.36951 0.59946 0.0
C732 C 0.29505 0.36466 0.54167 0.0
C733 C 0.27175 0.35334 0.52604 0.0
C734 C 0.37243 0.37822 0.61264 0.0
C735 C 0.37439 0.39615 0.65716 0.0
C736 C 0.3485 0.37044 0.59238 0.0
C737 C 0.32593 0.38023 0.61654 0.0
C738 C 0.32785 0.39904 0.65937 0.0
C739 C 0.35191 0.40708 0.67925 0.0
H740 H 0.87516 0.1357 0.32375 0.0
H741 H 0.82973 0.10088 0.45737 0.0
H742 H 0.88867 0.09392 0.29149 0.0
H743 H 0.84253 0.0586 0.42345 0.0
H744 H 0.9044 0.99595 0.40904 0.0
H745 H 0.88218 0.03573 0.43043 0.0
H746 H 0.8801 0.05367 0.25012 0.0
H747 H 0.90329 0.0143 0.2293 0.0
C748 C 0.86742 0.11902 0.34519 0.0
C749 C 0.85174 0.12158 0.39374 0.0
C750 C 0.87509 0.09497 0.32644 0.0
C751 C 0.86711 0.07286 0.35555 0.0
C752 C 0.84952 0.07532 0.40096 0.0
C753 C 0.84188 0.0995 0.41991 0.0
C754 C 0.8993 0.00852 0.37413 0.0
C755 C 0.90581 0.00231 0.31767 0.0
C756 C 0.88621 0.03112 0.38621 0.0
C757 C 0.87914 0.04786 0.34196 0.0
C758 C 0.88548 0.04138 0.2853 0.0
C759 C 0.8988 0.01889 0.27333 0.0
H760 H 0.11816 0.65508 0.14076 0.0
H761 H 0.1458 0.57763 0.15719 0.0
H762 H 0.15961 0.66885 0.10752 0.0
H763 H 0.18757 0.59137 0.12045 0.0
H764 H 0.26615 0.63068 0.12587 0.0
H765 H 0.22374 0.61455 0.15006 0.0
H766 H 0.18994 0.66971 1.0352 0.0
H767 H 0.23258 0.68668 1.01361 0.0
C768 C 0.13294 0.64074 0.13612 0.0
C769 C 0.12854 0.61515 0.15208 0.0
C770 C 0.15687 0.64873 0.11645 0.0
C771 C 0.17717 0.63134 0.1112 0.0
C772 C 0.17255 0.60546 0.12493 0.0
C773 C 0.14853 0.59747 0.1455 0.0
C774 C 0.24959 0.63944 0.1061 0.0
C775 C 0.25255 0.6601 0.06839 0.0
C776 C 0.22524 0.62995 0.11938 0.0
C777 C 0.20323 0.64066 0.09455 0.0
C778 C 0.20634 0.66121 0.05604 0.0
C779 C 0.23075 0.67097 1.04349 0.0
H780 H 0.61709 0.01866 0.89629 0.0
H781 H 0.58713 0.98754 0.73921 0.0
H782 H 0.63534 0.97717 0.92032 0.0
H783 H 0.60655 0.94642 0.76113 0.0
H784 H 0.61337 0.87036 0.85339 0.0
H785 H 0.60019 0.91196 0.82119 0.0
H786 H 0.66675 0.94581 0.90155 0.0
H787 H 0.67935 0.9037 0.93694 0.0
C788 C 0.6146 0.00291 0.86674 0.0
C789 C 0.60042 0.00611 0.81636 0.0
C790 C 0.62534 0.97919 0.88008 0.0
C791 C 0.62247 0.95827 0.84279 0.0
C792 C 0.60875 0.96184 0.79159 0.0
C793 C 0.59762 0.98542 0.77884 0.0
C794 C 0.62546 0.88655 0.86394 0.0
C795 C 0.64733 0.88362 0.89843 0.0
C796 C 0.61795 0.91057 0.84486 0.0
C797 C 0.63225 0.93247 0.85887 0.0
C798 C 0.65495 0.92945 0.89082 0.0
C799 C 0.66239 0.90526 0.91053 0.0
H800 H 0.37398 0.15859 0.91575 0.0
H801 H 0.41642 0.15292 0.07336 0.0
H802 H 0.4092 0.13941 0.86418 0.0
H803 H 0.45286 0.13445 1.02043 0.0
H804 H 0.50642 0.08408 0.90221 0.0
H805 H 0.46965 0.0974 0.96164 0.0
H806 H 0.45001 0.15404 0.83504 0.0
H807 H 0.4853 0.14049 0.77622 0.0
C808 C 0.391 0.1534 0.93949 0.0
C809 C 0.39247 0.15766 0.99863 0.0
C810 C 0.41135 0.14241 0.90971 0.0
C811 C 0.43418 0.13569 0.93773 0.0
C812 C 0.43555 0.1393 0.99741 0.0
C813 C 0.41482 0.15013 1.02765 0.0
C814 C 0.49388 0.09903 0.88689 0.0
C815 C 0.49886 0.11109 0.83421 0.0
C816 C 0.47303 0.10689 0.92121 0.0
C817 C 0.45667 0.12675 0.90313 0.0
C818 C 0.46171 0.1384 0.85022 0.0
C819 C 0.48225 0.13066 0.81641 0.0
H820 H 0.57912 0.67046 0.30662 0.0
H821 H 0.62536 0.62183 0.19918 0.0
H822 H 0.59839 0.7084 0.26001 0.0
H823 H 0.64461 0.65887 0.15459 0.0
H824 H 0.64172 0.72523 1.02936 0.0
H825 H 0.62703 0.68973 0.08759 0.0
H826 H 0.64087 0.73387 0.24043 0.0
H827 H 0.65569 0.77002 0.18083 0.0
C828 C 0.59346 0.66788 0.2736 0.0
C829 C 0.60035 0.64314 0.2559 0.0
C830 C 0.60464 0.68953 0.24724 0.0
C831 C 0.62286 0.68668 0.20296 0.0
C832 C 0.63033 0.66188 0.18757 0.0
C833 C 0.61921 0.64055 0.21332 0.0
C834 C 0.64225 0.72721 0.07545 0.0
C835 C 0.65033 0.75023 0.1005 0.0
C836 C 0.63372 0.70686 0.10897 0.0
C837 C 0.63275 0.70884 0.16887 0.0
C838 C 0.64126 0.73176 0.19441 0.0
C839 C 0.65017 0.75225 0.16046 0.0
H840 H 0.99121 0.85462 0.36414 0.0
H841 H 0.01919 0.93237 0.36443 0.0
H842 H 0.02623 0.84173 0.42542 0.0
H843 H 0.05462 0.91935 0.4272 0.0
H844 H 0.13151 0.87579 0.4565 0.0
H845 H 0.09313 0.89334 0.41328 0.0
H846 H 0.04638 0.84419 0.5193 0.0
H847 H 0.08534 0.82629 0.56256 0.0
C848 C 0.0048 0.8691 0.37773 0.0
C849 C 1.00263 0.89451 0.35846 0.0
C850 C 0.02477 0.86168 0.41363 0.0
C851 C 0.04339 0.87939 0.43124 0.0
C852 C 0.04072 0.90512 0.41394 0.0
C853 C 0.0204 0.91266 0.37823 0.0
C854 C 0.11304 0.86879 0.47098 0.0
C855 C 0.11144 0.84951 0.51271 0.0
C856 C 0.09097 0.87912 0.44656 0.0
C857 C 0.06657 0.87034 0.46279 0.0
C858 C 0.06489 0.85133 0.50554 0.0
C859 C 0.08714 0.84109 0.53047 0.0
H860 H 0.82694 0.25516 0.63934 0.0
H861 H 0.90139 0.26256 0.55936 0.0
H862 H 0.83869 0.28932 0.70677 0.0
H863 H 0.91277 0.29605 0.62557 0.0
H864 H 0.9381 0.33805 0.7817 0.0
H865 H 0.92312 0.30119 0.72665 0.0
H866 H 0.84866 0.33617 0.70921 0.0
H867 H 0.86359 0.37284 0.76491 0.0
C868 C 0.84565 0.26407 0.63578 0.0
C869 C 0.86316 0.25589 0.59384 0.0
C870 C 0.85241 0.2836 0.67447 0.0
C871 C 0.87689 0.29514 0.67228 0.0
C872 C 0.89404 0.28721 0.62965 0.0
C873 C 0.88731 0.26801 0.59113 0.0
C874 C 0.91844 0.33767 0.76683 0.0
C875 C 0.90213 0.35846 0.777 0.0
C876 C 0.90986 0.31664 0.73499 0.0
C877 C 0.88475 0.31585 0.71271 0.0
C878 C 0.86804 0.33606 0.72575 0.0
C879 C 0.87666 0.35714 0.75742 0.0
H880 H 0.58961 0.81661 0.07461 0.0
H881 H 0.62222 0.89238 0.08323 0.0
H882 H 0.55167 0.83172 0.12639 0.0
H883 H 0.58459 0.90744 0.13529 0.0
H884 H 0.50348 0.92889 0.20327 0.0
H885 H 0.53745 0.91605 0.136 0.0
H886 H 0.54565 0.84457 0.22594 0.0
H887 H 0.5125 0.857 0.29194 0.0
C888 C 0.5885 0.83654 0.08685 0.0
C889 C 0.60902 0.8532 0.07554 0.0
C890 C 0.56685 0.84522 0.11678 0.0
C891 C 0.56517 0.87079 0.13574 0.0
C892 C 0.5851 0.88772 0.12127 0.0
C893 C 0.60677 0.87901 0.09173 0.0
C894 C 0.51263 0.91051 0.20868 0.0
C895 C 0.50507 0.89414 0.25337 0.0
C896 C 0.53205 0.9031 0.17008 0.0
C897 C 0.54404 0.87904 0.17495 0.0
C898 C 0.53651 0.86292 0.21981 0.0
C899 C 0.5175 0.87033 0.2583 0.0
H900 H 0.37667 0.3823 0.89842 0.0
H901 H 0.4277 0.33713 0.79447 0.0
H902 H 0.35989 0.34368 0.94299 0.0
H903 H 0.41068 0.29807 0.839 0.0
H904 H 0.4026 0.24368 0.99482 0.0
H905 H 0.41419 0.27926 0.93388 0.0
H906 H 0.33521 0.30372 0.93123 0.0
H907 H 0.32345 0.26766 0.99361 0.0
C908 C 0.38412 0.36401 0.88461 0.0
C909 C 0.40369 0.36274 0.84331 0.0
C910 C 0.37428 0.34181 0.90986 0.0
C911 C 0.38389 0.31769 0.89481 0.0
C912 C 0.40298 0.31636 0.85204 0.0
C913 C 0.41271 0.33867 0.82637 0.0
C914 C 0.38754 0.25652 0.98122 0.0
C915 C 0.36208 0.25298 0.99995 0.0
C916 C 0.39422 0.27683 0.9455 0.0
C917 C 0.37572 0.29446 0.92747 0.0
C918 C 0.35002 0.29059 0.94469 0.0
C919 C 0.34322 0.2699 0.98021 0.0
H920 H 0.99774 0.07545 0.70855 0.0
H921 H 0.00914 0.15333 0.7648 0.0
H922 H 0.96162 0.0899 0.64831 0.0
H923 H 0.97363 0.16719 0.70642 0.0
H924 H 0.88692 0.17245 0.6772 0.0
H925 H 0.92501 0.15481 0.72234 0.0
H926 H 0.95056 0.12545 0.55977 0.0
H927 H 0.91211 0.1436 0.51382 0.0
C928 C 0.99288 0.09555 0.70755 0.0
C929 C 0.00606 0.11306 0.74263 0.0
C930 C 0.97226 0.10381 0.6731 0.0
C931 C 0.96458 0.12965 0.67344 0.0
C932 C 0.97877 0.14714 0.70595 0.0
C933 C 0.99915 0.13904 0.73968 0.0
C934 C 0.90062 0.16228 0.65089 0.0
C935 C 0.89657 0.15957 0.59193 0.0
C936 C 0.92243 0.15211 0.6768 0.0
C937 C 0.94075 0.13865 0.64468 0.0
C938 C 0.93665 0.13554 0.58565 0.0
C939 C 0.91482 0.14611 0.55936 0.0
H940 H 0.10248 0.76608 0.48581 0.0
H941 H 0.18061 0.73924 0.48441 0.0
H942 H 0.08939 0.7302 0.42678 0.0
H943 H 0.16747 0.70302 0.42407 0.0
H944 H 0.1253 0.62507 0.40187 0.0
H945 H 0.14221 0.66446 0.44201 0.0
H946 H 0.09091 0.708 0.33528 0.0
H947 H 0.07373 0.66801 0.295 0.0
C948 C 0.11701 0.75267 0.472 0.0
C949 C 0.14259 0.75538 0.49043 0.0
C950 C 0.10948 0.73213 0.43762 0.0
C951 C 0.12724 0.71347 0.42086 0.0
C952 C 0.15317 0.71686 0.43678 0.0
C953 C 0.16081 0.73772 0.47092 0.0
C954 C 0.11765 0.64304 0.38665 0.0
C955 C 0.09802 0.64341 0.34554 0.0
C956 C 0.12761 0.66571 0.4093 0.0
C957 C 0.11813 0.68955 0.39184 0.0
C958 C 0.09862 0.68998 0.35001 0.0
C959 C 0.08874 0.66713 0.32687 0.0
H960 H 0.91928 0.66986 0.57753 0.0
H961 H 0.87556 0.62756 0.45288 0.0
H962 H 0.9589 0.65083 0.54038 0.0
H963 H 0.91479 0.60891 0.41528 0.0
H964 H 0.98751 0.56829 0.36976 0.0
H965 H 0.95087 0.58031 0.43027 0.0
H966 H 0.98409 0.65527 0.45422 0.0
H967 H 0.02034 0.64315 0.39493 0.0
C968 C 0.91813 0.65637 0.54255 0.0
C969 C 0.89434 0.65036 0.51791 0.0
C970 C 0.94081 0.64548 0.52108 0.0
C971 C 0.94016 0.62822 0.4747 0.0
C972 C 0.91615 0.62173 0.45149 0.0
C973 C 0.89362 0.63268 0.4727 0.0
C974 C 0.98728 0.58698 0.38963 0.0
C975 C 0.00674 0.60477 0.3776 0.0
C976 C 0.96617 0.59404 0.4237 0.0
C977 C 0.96429 0.61893 0.44679 0.0
C978 C 0.98481 0.63594 0.43783 0.0
C979 C 0.00562 0.62899 0.40355 0.0
H980 H 0.07683 0.16868 0.81475 0.0
H981 H 0.12845 0.12464 0.70986 0.0
H982 H 0.09394 0.20825 0.77225 0.0
H983 H 0.14548 0.1637 0.66786 0.0
H984 H 0.18362 0.2391 0.62431 0.0
H985 H 0.17054 0.20334 0.68615 0.0
H986 H 0.09183 0.22821 0.67625 0.0
H987 H 0.10479 0.26354 0.61516 0.0
C988 C 0.09195 0.16748 0.78311 0.0
C989 C 0.10117 0.14357 0.76539 0.0
C990 C 0.10175 0.19008 0.75866 0.0
C991 C 0.12122 0.18921 0.71668 0.0
C992 C 0.13083 0.16523 0.70054 0.0
C993 C 0.12085 0.14277 0.72429 0.0
C994 C 0.16365 0.23715 0.63636 0.0
C995 C 0.14525 0.25402 0.61434 0.0
C996 C 0.15609 0.21659 0.67144 0.0
C997 C 0.13005 0.21278 0.68601 0.0
C998 C 0.11201 0.23058 0.66648 0.0
C999 C 0.11947 0.25077 0.63096 0.0
H1000 H 0.49212 0.35348 0.87172 0.0
H1001 H 0.51607 0.4324 0.88054 0.0
H1002 H 0.52771 0.34115 0.93234 0.0
H1003 H 0.55206 0.41996 0.94224 0.0
H1004 H 0.63139 0.37937 0.96627 0.0
H1005 H 0.59204 0.39613 0.92531 0.0
H1006 H 0.54784 0.34298 1.02696 0.0
H1007 H 0.58768 0.32607 0.06813 0.0
C1008 C 0.50484 0.36833 0.88734 0.0
C1009 C 0.50137 0.39395 0.8707 0.0
C1010 C 0.52519 0.36122 0.92267 0.0
C1011 C 0.54293 0.37947 0.94212 0.0
C1012 C 0.53889 0.40534 0.92757 0.0
C1013 C 0.51819 0.41254 0.89257 0.0
C1014 C 0.61326 0.3714 0.9804 0.0
C1015 C 0.61264 0.35126 1.02014 0.0
C1016 C 0.59063 0.38121 0.95723 0.0
C1017 C 0.56666 0.371 0.9727 0.0
C1018 C 0.56598 0.35121 1.01373 0.0
C1019 C 0.58874 0.34154 1.03748 0.0
H1020 H 0.32902 0.75798 0.13946 0.0
H1021 H 0.40702 0.74786 0.08098 0.0
H1022 H 0.34352 0.79406 0.19963 0.0
H1023 H 0.42089 0.78321 0.13945 0.0
H1024 H 0.4277 0.86868 0.17462 0.0
H1025 H 0.41045 0.83087 0.12767 0.0
H1026 H 0.3773 0.80567 0.28708 0.0
H1027 H 0.39498 0.84394 0.33485 0.0
C1028 C 0.34913 0.76316 0.13968 0.0
C1029 C 0.36663 0.75017 0.10421 0.0
C1030 C 0.35745 0.78375 0.17424 0.0
C1031 C 0.38333 0.7917 0.17361 0.0
C1032 C 0.40079 0.77791 0.14022 0.0
C1033 C 0.39266 0.75754 0.10639 0.0
C1034 C 0.41684 0.85508 0.1999 0.0
C1035 C 0.41285 0.85925 0.25849 0.0
C1036 C 0.4069 0.8334 0.17294 0.0
C1037 C 0.39244 0.81526 0.20356 0.0
C1038 C 0.38818 0.81941 0.26228 0.0
C1039 C 0.3985 0.84114 0.28967 0.0
H1040 H 0.13194 0.37942 0.63673 0.0
H1041 H 0.08802 0.32467 0.53948 0.0
H1042 H 0.09277 0.3958 0.6797 0.0
H1043 H 0.04838 0.34118 0.58273 0.0
H1044 H 0.99469 0.35105 0.74172 0.0
H1045 H 0.02991 0.33929 0.67928 0.0
H1046 H 0.05182 0.41867 0.66497 0.0
H1047 H 0.0161 0.43057 0.72846 0.0
C1048 C 0.1138 0.37106 0.62402 0.0
C1049 C 0.11307 0.3506 0.58504 0.0
C1050 C 0.09127 0.38064 0.64834 0.0
C1051 C 0.06732 0.36988 0.63485 0.0
C1052 C 0.06651 0.34983 0.59444 0.0
C1053 C 0.08916 0.34039 0.56951 0.0
C1054 C 0.00683 0.36613 0.7249 0.0
C1055 C 1.00275 0.39177 0.74075 0.0
C1056 C 0.02693 0.35935 0.68847 0.0
C1057 C 0.04385 0.37795 0.66707 0.0
C1058 C 0.03926 0.4038 0.68108 0.0
C1059 C 0.01875 0.41068 0.71715 0.0
H1060 H 0.89819 0.84426 0.27524 0.0
H1061 H 0.91926 0.87646 0.43839 0.0
H1062 H 0.88195 0.80568 0.32412 0.0
H1063 H 0.90305 0.83862 0.48658 0.0
H1064 H 0.90378 0.75794 0.54899 0.0
H1065 H 0.9173 0.7939 0.49198 0.0
H1066 H 0.84654 0.79062 0.397 0.0
H1067 H 0.83264 0.75366 0.45476 0.0
C1068 C 0.89937 0.84309 0.32137 0.0
C1069 C 0.91016 0.86332 0.35298 0.0
C1070 C 0.88988 0.82114 0.34935 0.0
C1071 C 0.89128 0.819 0.40929 0.0
C1072 C 0.90192 0.83943 0.4404 0.0
C1073 C 0.9112 0.8612 0.41271 0.0
C1074 C 0.89084 0.76462 0.51611 0.0
C1075 C 0.86684 0.75282 0.50722 0.0
C1076 C 0.89871 0.78545 0.48332 0.0
C1077 C 0.88294 0.79541 0.4403 0.0
C1078 C 0.85917 0.78336 0.42983 0.0
C1079 C 0.85114 0.7623 0.46315 0.0
H1080 H 0.37251 0.63064 0.14969 0.0
H1081 H 0.42076 0.67388 1.03477 0.0
H1082 H 0.40997 0.61261 0.19508 0.0
H1083 H 0.45907 0.65562 0.0816 0.0
H1084 H 0.51975 0.59743 0.16693 0.0
H1085 H 0.48356 0.61139 0.10631 0.0
H1086 H 0.44216 0.63437 0.25756 0.0
H1087 H 0.47769 0.62071 0.31684 0.0
C1088 C 0.39122 0.63629 0.13386 0.0
C1089 C 0.3936 0.654 0.08901 0.0
C1090 C 0.41276 0.62585 0.16001 0.0
C1091 C 0.43756 0.63282 0.1425 0.0
C1092 C 0.44019 0.64978 0.09592 0.0
C1093 C 0.41833 0.66035 0.06935 0.0
C1094 C 0.50261 0.60495 0.18689 0.0
C1095 C 0.50136 0.60762 0.24667 0.0
C1096 C 0.48211 0.6133 0.15227 0.0
C1097 C 0.45995 0.62401 0.17709 0.0
C1098 C 0.45875 0.62603 0.23691 0.0
C1099 C 0.47912 0.6181 0.271 0.0
H1100 H 0.68117 0.24372 0.96416 0.0
H1101 H 0.60221 0.26017 1.00635 0.0
H1102 H 0.66645 0.20783 0.90355 0.0
H1103 H 0.58807 0.22481 0.94779 0.0
H1104 H 0.57925 0.13788 0.92277 0.0
H1105 H 0.59728 0.17572 0.9686 0.0
H1106 H 0.63285 0.19801 0.80966 0.0
H1107 H 0.61429 0.15992 0.76298 0.0
C1108 C 0.66082 0.24002 0.95996 0.0
C1109 C 0.64299 0.25459 0.99119 0.0
C1110 C 0.6524 0.21952 0.92532 0.0
C1111 C 0.6261 0.21334 0.92172 0.0
C1112 C 0.60843 0.22883 0.95039 0.0
C1113 C 0.61669 0.24913 0.98423 0.0
C1114 C 0.59082 0.15085 0.89741 0.0
C1115 C 0.5952 0.146 0.83924 0.0
C1116 C 0.60122 0.17249 0.9237 0.0
C1117 C 0.6166 0.18976 0.89281 0.0
C1118 C 0.62128 0.18489 0.8346 0.0
C1119 C 0.61046 0.16328 0.80785 0.0
H1120 H 0.28409 0.21923 0.15955 0.0
H1121 H 0.33554 0.24637 0.29034 0.0
H1122 H 0.24765 0.23646 0.21351 0.0
H1123 H 0.29959 0.264 0.34338 0.0
H1124 H 0.22634 0.27205 0.45278 0.0
H1125 H 0.26265 0.25342 0.40053 0.0
H1126 H 0.22829 0.27629 0.24082 0.0
H1127 H 0.19225 0.2944 0.29269 0.0
C1128 C 0.28763 0.22878 0.19975 0.0
C1129 C 0.31274 0.23124 0.22061 0.0
C1130 C 0.26676 0.23889 0.23067 0.0
C1131 C 0.27051 0.25166 0.2833 0.0
C1132 C 0.29572 0.25401 0.3038 0.0
C1133 C 0.31644 0.24403 0.27292 0.0
C1134 C 0.2267 0.2732 0.40658 0.0
C1135 C 0.20632 0.28466 0.37705 0.0
C1136 C 0.24752 0.26254 0.37644 0.0
C1137 C 0.24843 0.26303 0.31604 0.0
C1138 C 0.22816 0.27495 0.28698 0.0
C1139 C 0.20753 0.2856 0.31696 0.0
H1140 H 0.52349 0.57735 0.55726 0.0
H1141 H 0.54075 0.52894 0.41316 0.0
H1142 H 0.50571 0.54141 0.60862 0.0
H1143 H 0.52337 0.49201 0.46599 0.0
H1144 H 0.46167 0.44024 0.54934 0.0
H1145 H 0.48331 0.47465 0.49819 0.0
H1146 H 0.51311 0.50331 0.65813 0.0
H1147 H 0.49067 0.46911 0.70936 0.0
C1148 C 0.5239 0.55879 0.53674 0.0
C1149 C 0.53356 0.5561 0.48087 0.0
C1150 C 0.51378 0.538 0.56667 0.0
C1151 C 0.51296 0.51356 0.54196 0.0
C1152 C 0.52333 0.51058 0.48638 0.0
C1153 C 0.53357 0.53165 0.45614 0.0
C1154 C 0.47272 0.45401 0.57368 0.0
C1155 C 0.47429 0.452 0.63356 0.0
C1156 C 0.48545 0.47362 0.54413 0.0
C1157 C 0.50025 0.49187 0.57354 0.0
C1158 C 0.5017 0.48988 0.63372 0.0
C1159 C 0.48882 0.47027 0.66334 0.0
H1160 H 0.22354 0.78538 0.6592 0.0
H1161 H 0.17734 0.77116 0.80882 0.0
H1162 H 0.26078 0.76715 0.70824 0.0
H1163 H 0.21422 0.7539 0.85839 0.0
H1164 H 0.27936 0.70103 0.91577 0.0
H1165 H 0.24195 0.71878 0.86626 0.0
H1166 H 0.29119 0.77321 0.78036 0.0
H1167 H 0.32802 0.75509 0.82813 0.0
C1168 C 0.22146 0.77881 0.70279 0.0
C1169 C 0.19751 0.77984 0.73003 0.0
C1170 C 0.24278 0.76829 0.73119 0.0
C1171 C 0.24069 0.75874 0.78767 0.0
C1172 C 0.21671 0.76037 0.8148 0.0
C1173 C 0.19552 0.77062 0.78639 0.0
C1174 C 0.28201 0.71694 0.88684 0.0
C1175 C 0.30666 0.72668 0.87627 0.0
C1176 C 0.26059 0.72719 0.85818 0.0
C1177 C 0.26334 0.74751 0.81857 0.0
C1178 C 0.28809 0.7573 0.80915 0.0
C1179 C 0.30931 0.74699 0.83723 0.0
H1180 H 0.02256 0.57502 1.05026 0.0
H1181 H 0.03604 0.52808 0.19847 0.0
H1182 H 0.00686 0.53822 0.99784 0.0
H1183 H 0.01934 0.49085 0.14644 0.0
H1184 H 0.00844 0.42469 1.02212 0.0
H1185 H 0.02608 0.4611 0.07283 0.0
H1186 H 0.97176 0.51043 0.98821 0.0
H1187 H 0.95461 0.47359 0.93578 0.0
C1188 C 0.02227 0.55667 0.07169 0.0
C1189 C 0.03071 0.55448 0.12857 0.0
C1190 C 0.0129 0.53552 1.04166 0.0
C1191 C 0.01134 0.51137 0.06765 0.0
C1192 C 0.02039 0.50901 0.12444 0.0
C1193 C 0.03006 0.53032 0.1545 0.0
C1194 C 1.00028 0.44334 1.01398 0.0
C1195 C 0.98017 0.44621 0.97442 0.0
C1196 C 0.01031 0.4643 1.04369 0.0
C1197 C 1.00043 0.48895 1.03535 0.0
C1198 C 0.98026 0.49188 0.99542 0.0
C1199 C 0.97032 0.47077 0.96517 0.0
H1200 H 0.72151 0.77269 0.95305 0.0
H1201 H 0.68927 0.79523 0.79162 0.0
H1202 H 0.75696 0.752 0.90322 0.0
H1203 H 0.72545 0.7766 0.74134 0.0
H1204 H 0.77726 0.71753 0.65831 0.0
H1205 H 0.74307 0.74006 0.70871 0.0
H1206 H 0.79368 0.75138 0.85298 0.0
H1207 H 0.82655 0.7272 0.80448 0.0
C1208 C 0.72262 0.77409 0.90692 0.0
C1209 C 0.70278 0.78574 0.87627 0.0
C1210 C 0.74298 0.76214 0.87789 0.0
C1211 C 0.74433 0.76207 0.81738 0.0
C1212 C 0.72504 0.77525 0.78744 0.0
C1213 C 0.70442 0.78648 0.81639 0.0
C1214 C 0.78086 0.7247 0.70096 0.0
C1215 C 0.80454 0.72027 0.7274 0.0
C1216 C 0.76133 0.73799 0.72999 0.0
C1217 C 0.7652 0.74787 0.78573 0.0
C1218 C 0.78927 0.74373 0.81119 0.0
C1219 C 0.8084 0.72991 0.7829 0.0
H1220 H 0.69167 0.29476 0.31151 0.0
H1221 H 0.72592 0.27358 0.15048 0.0
H1222 H 0.72788 0.27668 0.36256 0.0
H1223 H 0.76242 0.25505 0.20191 0.0
H1224 H 0.83542 0.24924 0.31107 0.0
H1225 H 0.79911 0.26662 0.2593 0.0
H1226 H 0.74776 0.23648 0.38782 0.0
H1227 H 0.78461 0.21935 0.44052 0.0
C1228 C 0.70701 0.28623 0.28686 0.0
C1229 C 0.70583 0.2856 0.22676 0.0
C1230 C 0.72773 0.2756 0.31635 0.0
C1231 C 0.7481 0.26408 0.28673 0.0
C1232 C 0.74719 0.26387 0.22635 0.0
C1233 C 0.72628 0.27447 0.19671 0.0
C1234 C 0.81639 0.24628 0.3285 0.0
C1235 C 0.81295 0.23282 0.38005 0.0
C1236 C 0.79547 0.25611 0.29835 0.0
C1237 C 0.77034 0.25292 0.31883 0.0
C1238 C 0.76684 0.23952 0.37076 0.0
C1239 C 0.78791 0.22954 0.40097 0.0
H1240 H 0.04694 0.06682 0.06675 0.0
H1241 H 0.02816 0.03017 0.907 0.0
H1242 H 0.02847 0.03106 0.11921 0.0
H1243 H 0.00932 0.99417 0.95974 0.0
H1244 H 1.00225 0.92275 0.07248 0.0
H1245 H 0.02053 0.95856 1.02023 0.0
H1246 H 0.9879 0.01077 0.14316 0.0
H1247 H 0.96982 0.97444 0.19638 0.0
C1248 C 0.03888 0.05104 1.0427 0.0
C1249 C 0.03903 0.05142 0.98252 0.0
C1250 C 0.02804 0.03058 0.07297 0.0
C1251 C 0.01711 0.00968 1.04407 0.0
C1252 C 0.01768 0.00981 0.98367 0.0
C1253 C 0.02847 0.03045 0.95327 0.0
C1254 C 0.99894 0.94186 0.08861 0.0
C1255 C 0.98446 0.94569 0.13869 0.0
C1256 C 0.0093 0.96249 0.05817 0.0
C1257 C 0.00564 0.98772 0.07687 0.0
C1258 C 0.99131 0.99161 0.12748 0.0
C1259 C 0.9808 0.97083 0.15798 0.0
H1260 H 0.55523 0.03339 0.65887 0.0
H1261 H 0.4953 0.0791 0.58508 0.0
H1262 H 0.53954 0.9961 0.60649 0.0
H1263 H 0.47894 0.04194 0.53405 0.0
H1264 H 0.46864 0.97583 0.40719 0.0
H1265 H 0.48504 0.01354 0.4579 0.0
H1266 H 0.50762 0.9654 0.59909 0.0
H1267 H 0.49234 0.92823 0.54767 0.0
C1268 C 0.5383 0.0353 0.63268 0.0
C1269 C 0.52631 0.05911 0.627 0.0
C1270 C 0.52924 0.01391 0.6022 0.0
C1271 C 0.50778 0.01571 0.56549 0.0
C1272 C 0.49571 0.03963 0.56068 0.0
C1273 C 0.50495 0.06097 0.59062 0.0
C1274 C 0.47713 0.97344 0.44896 0.0
C1275 C 0.47918 0.94899 0.47315 0.0
C1276 C 0.48648 0.99508 0.47844 0.0
C1277 C 0.4979 0.99279 0.53306 0.0
C1278 C 0.49961 0.9682 0.55692 0.0
C1279 C 0.49058 0.94675 0.52739 0.0
loop_
_geom_bond_atom_site_label_1
_geom_bond_atom_site_label_2
_geom_bond_distance
_geom_bond_site_symmetry_2
_ccdc_geom_bond_type
Tb0 O3 2.453 . S
Tb0 O4 2.596 . S
Tb0 O5 2.374 . S
Tb0 O13 2.343 . S
Tb0 O15 2.353 . S
Tb0 O17 2.427 . S
Tb0 O18 2.513 . S
C1 O5 1.251 . S
C1 O7 1.263 . S
Tb2 O4 2.343 . S
Tb2 O7 2.353 . S
Tb2 O10 2.427 . S
Tb2 O11 2.513 . S
Tb2 O12 2.453 1_554 S
Tb2 O13 2.596 . S
Tb2 O14 2.374 1_554 S
O3 Tb0 2.453 . S
O3 C19 1.245 . S
O4 Tb0 2.596 . S
O4 Tb2 2.343 . S
O4 C19 1.259 . S
O5 Tb0 2.374 . S
O5 C1 1.251 . S
C6 O10 1.275 . S
C6 O11 1.246 . S
O7 C1 1.263 . S
O7 Tb2 2.353 . S
C8 O12 1.245 1_554 S
C8 O13 1.259 . S
C9 O14 1.250 1_554 S
C9 O15 1.263 . S
O10 Tb2 2.427 . S
O10 C6 1.275 . S
O11 Tb2 2.513 . S
O11 C6 1.246 . S
O12 Tb2 2.453 1_556 S
O12 C8 1.245 1_556 S
O13 Tb0 2.343 . S
O13 Tb2 2.596 . S
O13 C8 1.259 . S
O14 Tb2 2.374 1_556 S
O14 C9 1.250 1_556 S
O15 Tb0 2.353 . S
O15 C9 1.263 . S
C16 O17 1.275 . S
C16 O18 1.246 . S
O17 Tb0 2.427 . S
O17 C16 1.275 . S
O18 Tb0 2.513 . S
O18 C16 1.246 . S
C19 O3 1.245 . S
C19 O4 1.259 . S
Tb20 O23 2.453 . S
Tb20 O24 2.596 . S
Tb20 O25 2.374 . S
Tb20 O33 2.343 . S
Tb20 O35 2.353 . S
Tb20 O37 2.427 . S
Tb20 O38 2.513 . S
C21 O25 1.251 . S
C21 O27 1.263 . S
Tb22 O24 2.343 . S
Tb22 O27 2.353 . S
Tb22 O30 2.427 . S
Tb22 O31 2.513 . S
Tb22 O32 2.453 . S
Tb22 O33 2.596 . S
Tb22 O34 2.374 . S
O23 Tb20 2.453 . S
O23 C39 1.245 . S
O24 Tb20 2.596 . S
O24 Tb22 2.343 . S
O24 C39 1.259 . S
O25 Tb20 2.374 . S
O25 C21 1.251 . S
C26 O30 1.275 . S
C26 O31 1.246 . S
O27 C21 1.263 . S
O27 Tb22 2.353 . S
C28 O32 1.245 . S
C28 O33 1.259 . S
C29 O34 1.250 . S
C29 O35 1.263 . S
O30 Tb22 2.427 . S
O30 C26 1.275 . S
O31 Tb22 2.513 . S
O31 C26 1.246 . S
O32 Tb22 2.453 . S
O32 C28 1.245 . S
O33 Tb20 2.343 . S
O33 Tb22 2.596 . S
O33 C28 1.259 . S
O34 Tb22 2.374 . S
O34 C29 1.250 . S
O35 Tb20 2.353 . S
O35 C29 1.263 . S
C36 O37 1.275 . S
C36 O38 1.246 . S
O37 Tb20 2.427 . S
O37 C36 1.275 . S
O38 Tb20 2.513 . S
O38 C36 1.246 . S
C39 O23 1.245 . S
C39 O24 1.259 . S
Tb40 O43 2.453 . S
Tb40 O44 2.596 . S
Tb40 O45 2.374 . S
Tb40 O53 2.343 . S
Tb40 O55 2.353 . S
Tb40 O57 2.427 . S
Tb40 O58 2.513 . S
C41 O45 1.251 . S
C41 O47 1.263 . S
Tb42 O44 2.343 . S
Tb42 O47 2.353 . S
Tb42 O50 2.427 . S
Tb42 O51 2.513 . S
Tb42 O52 2.453 . S
Tb42 O53 2.596 . S
Tb42 O54 2.374 . S
O43 Tb40 2.453 . S
O43 C59 1.245 . S
O44 Tb40 2.596 . S
O44 Tb42 2.343 . S
O44 C59 1.259 . S
O45 Tb40 2.374 . S
O45 C41 1.251 . S
C46 O50 1.275 . S
C46 O51 1.246 . S
O47 C41 1.263 . S
O47 Tb42 2.353 . S
C48 O52 1.245 . S
C48 O53 1.259 . S
C49 O54 1.250 . S
C49 O55 1.263 . S
O50 Tb42 2.427 . S
O50 C46 1.275 . S
O51 Tb42 2.513 . S
O51 C46 1.246 . S
O52 Tb42 2.453 . S
O52 C48 1.245 . S
O53 Tb40 2.343 . S
O53 Tb42 2.596 . S
O53 C48 1.259 . S
O54 Tb42 2.374 . S
O54 C49 1.250 . S
O55 Tb40 2.353 . S
O55 C49 1.263 . S
C56 O57 1.275 . S
C56 O58 1.246 . S
O57 Tb40 2.427 . S
O57 C56 1.275 . S
O58 Tb40 2.513 . S
O58 C56 1.246 . S
C59 O43 1.245 . S
C59 O44 1.259 . S
Tb60 O63 2.453 . S
Tb60 O64 2.596 . S
Tb60 O65 2.374 . S
Tb60 O73 2.343 . S
Tb60 O75 2.353 . S
Tb60 O77 2.427 . S
Tb60 O78 2.513 . S
C61 O65 1.251 . S
C61 O67 1.263 . S
Tb62 O64 2.343 . S
Tb62 O67 2.353 . S
Tb62 O70 2.427 . S
Tb62 O71 2.513 . S
Tb62 O72 2.453 . S
Tb62 O73 2.596 . S
Tb62 O74 2.374 . S
O63 Tb60 2.453 . S
O63 C79 1.245 . S
O64 Tb60 2.596 . S
O64 Tb62 2.343 . S
O64 C79 1.259 . S
O65 Tb60 2.374 . S
O65 C61 1.251 . S
C66 O70 1.275 . S
C66 O71 1.246 . S
O67 C61 1.263 . S
O67 Tb62 2.353 . S
C68 O72 1.245 . S
C68 O73 1.259 . S
C69 O74 1.250 . S
C69 O75 1.263 . S
O70 Tb62 2.427 . S
O70 C66 1.275 . S
O71 Tb62 2.513 . S
O71 C66 1.246 . S
O72 Tb62 2.453 . S
O72 C68 1.245 . S
O73 Tb60 2.343 . S
O73 Tb62 2.596 . S
O73 C68 1.259 . S
O74 Tb62 2.374 . S
O74 C69 1.250 . S
O75 Tb60 2.353 . S
O75 C69 1.263 . S
C76 O77 1.275 . S
C76 O78 1.246 . S
O77 Tb60 2.427 . S
O77 C76 1.275 . S
O78 Tb60 2.513 . S
O78 C76 1.246 . S
C79 O63 1.245 . S
C79 O64 1.259 . S
Tb80 O83 2.453 1_556 S
Tb80 O84 2.596 . S
Tb80 O85 2.374 1_556 S
Tb80 O93 2.343 . S
Tb80 O95 2.353 . S
Tb80 O97 2.427 . S
Tb80 O98 2.513 . S
C81 O85 1.251 1_556 S
C81 O87 1.263 . S
Tb82 O84 2.343 . S
Tb82 O87 2.353 . S
Tb82 O90 2.427 . S
Tb82 O91 2.513 . S
Tb82 O92 2.453 . S
Tb82 O93 2.596 . S
Tb82 O94 2.374 . S
O83 Tb80 2.453 1_554 S
O83 C99 1.245 1_554 S
O84 Tb80 2.596 . S
O84 Tb82 2.343 . S
O84 C99 1.259 . S
O85 Tb80 2.374 1_554 S
O85 C81 1.251 1_554 S
C86 O90 1.275 . S
C86 O91 1.246 . S
O87 C81 1.263 . S
O87 Tb82 2.353 . S
C88 O92 1.245 . S
C88 O93 1.259 . S
C89 O94 1.250 . S
C89 O95 1.263 . S
O90 Tb82 2.427 . S
O90 C86 1.275 . S
O91 Tb82 2.513 . S
O91 C86 1.246 . S
O92 Tb82 2.453 . S
O92 C88 1.245 . S
O93 Tb80 2.343 . S
O93 Tb82 2.596 . S
O93 C88 1.259 . S
O94 Tb82 2.374 . S
O94 C89 1.250 . S
O95 Tb80 2.353 . S
O95 C89 1.263 . S
C96 O97 1.275 . S
C96 O98 1.246 . S
O97 Tb80 2.427 . S
O97 C96 1.275 . S
O98 Tb80 2.513 . S
O98 C96 1.246 . S
C99 O83 1.245 1_556 S
C99 O84 1.259 . S
Tb100 O103 2.453 . S
Tb100 O104 2.596 . S
Tb100 O105 2.374 . S
Tb100 O113 2.343 . S
Tb100 O115 2.353 . S
Tb100 O117 2.427 . S
Tb100 O118 2.513 . S
C101 O105 1.251 . S
C101 O107 1.263 . S
Tb102 O104 2.343 . S
Tb102 O107 2.353 . S
Tb102 O110 2.427 . S
Tb102 O111 2.513 . S
Tb102 O112 2.453 . S
Tb102 O113 2.596 . S
Tb102 O114 2.374 . S
O103 Tb100 2.453 . S
O103 C119 1.245 . S
O104 Tb100 2.596 . S
O104 Tb102 2.343 . S
O104 C119 1.259 . S
O105 Tb100 2.374 . S
O105 C101 1.251 . S
C106 O110 1.275 . S
C106 O111 1.246 . S
O107 C101 1.263 . S
O107 Tb102 2.353 . S
C108 O112 1.245 . S
C108 O113 1.259 . S
C109 O114 1.250 . S
C109 O115 1.263 . S
O110 Tb102 2.427 . S
O110 C106 1.275 . S
O111 Tb102 2.513 . S
O111 C106 1.246 . S
O112 Tb102 2.453 . S
O112 C108 1.245 . S
O113 Tb100 2.343 . S
O113 Tb102 2.596 . S
O113 C108 1.259 . S
O114 Tb102 2.374 . S
O114 C109 1.250 . S
O115 Tb100 2.353 . S
O115 C109 1.263 . S
C116 O117 1.275 . S
C116 O118 1.246 . S
O117 Tb100 2.427 . S
O117 C116 1.275 . S
O118 Tb100 2.513 . S
O118 C116 1.246 . S
C119 O103 1.245 . S
C119 O104 1.259 . S
Tb120 O123 2.453 . S
Tb120 O124 2.596 . S
Tb120 O125 2.374 . S
Tb120 O133 2.343 . S
Tb120 O135 2.353 . S
Tb120 O137 2.427 . S
Tb120 O138 2.513 . S
C121 O125 1.251 . S
C121 O127 1.263 . S
Tb122 O124 2.343 . S
Tb122 O127 2.353 . S
Tb122 O130 2.427 . S
Tb122 O131 2.513 . S
Tb122 O132 2.453 . S
Tb122 O133 2.596 . S
Tb122 O134 2.374 . S
O123 Tb120 2.453 . S
O123 C139 1.245 . S
O124 Tb120 2.596 . S
O124 Tb122 2.343 . S
O124 C139 1.259 . S
O125 Tb120 2.374 . S
O125 C121 1.251 . S
C126 O130 1.275 . S
C126 O131 1.246 . S
O127 C121 1.263 . S
O127 Tb122 2.353 . S
C128 O132 1.245 . S
C128 O133 1.259 . S
C129 O134 1.250 . S
C129 O135 1.263 . S
O130 Tb122 2.427 . S
O130 C126 1.275 . S
O131 Tb122 2.513 . S
O131 C126 1.246 . S
O132 Tb122 2.453 . S
O132 C128 1.245 . S
O133 Tb120 2.343 . S
O133 Tb122 2.596 . S
O133 C128 1.259 . S
O134 Tb122 2.374 . S
O134 C129 1.250 . S
O135 Tb120 2.353 . S
O135 C129 1.263 . S
C136 O137 1.275 . S
C136 O138 1.246 . S
O137 Tb120 2.427 . S
O137 C136 1.275 . S
O138 Tb120 2.513 . S
O138 C136 1.246 . S
C139 O123 1.245 . S
C139 O124 1.259 . S
Tb140 O143 2.453 . S
Tb140 O144 2.596 . S
Tb140 O145 2.374 . S
Tb140 O153 2.343 . S
Tb140 O155 2.353 . S
Tb140 O157 2.427 . S
Tb140 O158 2.513 . S
C141 O145 1.251 . S
C141 O147 1.263 . S
Tb142 O144 2.343 . S
Tb142 O147 2.353 . S
Tb142 O150 2.427 . S
Tb142 O151 2.513 . S
Tb142 O152 2.453 . S
Tb142 O153 2.596 . S
Tb142 O154 2.374 . S
O143 Tb140 2.453 . S
O143 C159 1.245 . S
O144 Tb140 2.596 . S
O144 Tb142 2.343 . S
O144 C159 1.259 . S
O145 Tb140 2.374 . S
O145 C141 1.251 . S
C146 O150 1.275 . S
C146 O151 1.246 . S
O147 C141 1.263 . S
O147 Tb142 2.353 . S
C148 O152 1.245 . S
C148 O153 1.259 . S
C149 O154 1.250 . S
C149 O155 1.263 . S
O150 Tb142 2.427 . S
O150 C146 1.275 . S
O151 Tb142 2.513 . S
O151 C146 1.246 . S
O152 Tb142 2.453 . S
O152 C148 1.245 . S
O153 Tb140 2.343 . S
O153 Tb142 2.596 . S
O153 C148 1.259 . S
O154 Tb142 2.374 . S
O154 C149 1.250 . S
O155 Tb140 2.353 . S
O155 C149 1.263 . S
C156 O157 1.275 . S
C156 O158 1.246 . S
O157 Tb140 2.427 . S
O157 C156 1.275 . S
O158 Tb140 2.513 . S
O158 C156 1.246 . S
C159 O143 1.245 . S
C159 O144 1.259 . S
Tb160 O163 2.453 . S
Tb160 O164 2.596 . S
Tb160 O165 2.374 . S
Tb160 O173 2.343 . S
Tb160 O175 2.353 . S
Tb160 O177 2.427 . S
Tb160 O178 2.513 . S
C161 O165 1.251 . S
C161 O167 1.263 . S
Tb162 O164 2.343 . S
Tb162 O167 2.353 . S
Tb162 O170 2.427 . S
Tb162 O171 2.513 . S
Tb162 O172 2.453 . S
Tb162 O173 2.596 . S
Tb162 O174 2.374 . S
O163 Tb160 2.453 . S
O163 C179 1.245 . S
O164 Tb160 2.596 . S
O164 Tb162 2.343 . S
O164 C179 1.259 . S
O165 Tb160 2.374 . S
O165 C161 1.251 . S
C166 O170 1.275 . S
C166 O171 1.246 . S
O167 C161 1.263 . S
O167 Tb162 2.353 . S
C168 O172 1.245 . S
C168 O173 1.259 . S
C169 O174 1.250 . S
C169 O175 1.263 . S
O170 Tb162 2.427 . S
O170 C166 1.275 . S
O171 Tb162 2.513 . S
O171 C166 1.246 . S
O172 Tb162 2.453 . S
O172 C168 1.245 . S
O173 Tb160 2.343 . S
O173 Tb162 2.596 . S
O173 C168 1.259 . S
O174 Tb162 2.374 . S
O174 C169 1.250 . S
O175 Tb160 2.353 . S
O175 C169 1.263 . S
C176 O177 1.275 . S
C176 O178 1.246 . S
O177 Tb160 2.427 . S
O177 C176 1.275 . S
O178 Tb160 2.513 . S
O178 C176 1.246 . S
C179 O163 1.245 . S
C179 O164 1.259 . S
Tb180 O183 2.453 . S
Tb180 O184 2.596 . S
Tb180 O185 2.374 . S
Tb180 O193 2.343 . S
Tb180 O195 2.353 . S
Tb180 O197 2.427 . S
Tb180 O198 2.513 . S
C181 O185 1.251 . S
C181 O187 1.263 . S
Tb182 O184 2.343 . S
Tb182 O187 2.353 . S
Tb182 O190 2.427 . S
Tb182 O191 2.513 . S
Tb182 O192 2.453 . S
Tb182 O193 2.596 . S
Tb182 O194 2.374 . S
O183 Tb180 2.453 . S
O183 C199 1.245 . S
O184 Tb180 2.596 . S
O184 Tb182 2.343 . S
O184 C199 1.259 . S
O185 Tb180 2.374 . S
O185 C181 1.251 . S
C186 O190 1.275 . S
C186 O191 1.246 . S
O187 C181 1.263 . S
O187 Tb182 2.353 . S
C188 O192 1.245 . S
C188 O193 1.259 . S
C189 O194 1.250 . S
C189 O195 1.263 . S
O190 Tb182 2.427 . S
O190 C186 1.275 . S
O191 Tb182 2.513 . S
O191 C186 1.246 . S
O192 Tb182 2.453 . S
O192 C188 1.245 . S
O193 Tb180 2.343 . S
O193 Tb182 2.596 . S
O193 C188 1.259 . S
O194 Tb182 2.374 . S
O194 C189 1.250 . S
O195 Tb180 2.353 . S
O195 C189 1.263 . S
C196 O197 1.275 . S
C196 O198 1.246 . S
O197 Tb180 2.427 . S
O197 C196 1.275 . S
O198 Tb180 2.513 . S
O198 C196 1.246 . S
C199 O183 1.245 . S
C199 O184 1.259 . S
Tb200 O203 2.453 . S
Tb200 O204 2.596 . S
Tb200 O205 2.374 . S
Tb200 O213 2.343 . S
Tb200 O215 2.353 . S
Tb200 O217 2.427 . S
Tb200 O218 2.513 . S
C201 O205 1.251 . S
C201 O207 1.263 . S
Tb202 O204 2.343 . S
Tb202 O207 2.353 . S
Tb202 O210 2.427 . S
Tb202 O211 2.513 . S
Tb202 O212 2.453 1_554 S
Tb202 O213 2.596 . S
Tb202 O214 2.374 1_554 S
O203 Tb200 2.453 . S
O203 C219 1.245 . S
O204 Tb200 2.596 . S
O204 Tb202 2.343 . S
O204 C219 1.259 . S
O205 Tb200 2.374 . S
O205 C201 1.251 . S
C206 O210 1.275 . S
C206 O211 1.246 . S
O207 C201 1.263 . S
O207 Tb202 2.353 . S
C208 O212 1.245 1_554 S
C208 O213 1.259 . S
C209 O214 1.250 1_554 S
C209 O215 1.263 . S
O210 Tb202 2.427 . S
O210 C206 1.275 . S
O211 Tb202 2.513 . S
O211 C206 1.246 . S
O212 Tb202 2.453 1_556 S
O212 C208 1.245 1_556 S
O213 Tb200 2.343 . S
O213 Tb202 2.596 . S
O213 C208 1.259 . S
O214 Tb202 2.374 1_556 S
O214 C209 1.250 1_556 S
O215 Tb200 2.353 . S
O215 C209 1.263 . S
C216 O217 1.275 . S
C216 O218 1.246 . S
O217 Tb200 2.427 . S
O217 C216 1.275 . S
O218 Tb200 2.513 . S
O218 C216 1.246 . S
C219 O203 1.245 . S
C219 O204 1.259 . S
Tb220 O223 2.453 . S
Tb220 O224 2.596 . S
Tb220 O225 2.374 . S
Tb220 O233 2.343 . S
Tb220 O235 2.353 . S
Tb220 O237 2.427 . S
Tb220 O238 2.513 . S
C221 O225 1.251 . S
C221 O227 1.263 . S
Tb222 O224 2.343 . S
Tb222 O227 2.353 . S
Tb222 O230 2.427 . S
Tb222 O231 2.513 . S
Tb222 O232 2.453 . S
Tb222 O233 2.596 . S
Tb222 O234 2.374 . S
O223 Tb220 2.453 . S
O223 C239 1.245 . S
O224 Tb220 2.596 . S
O224 Tb222 2.343 . S
O224 C239 1.259 . S
O225 Tb220 2.374 . S
O225 C221 1.251 . S
C226 O230 1.275 . S
C226 O231 1.246 . S
O227 C221 1.263 . S
O227 Tb222 2.353 . S
C228 O232 1.245 . S
C228 O233 1.259 . S
C229 O234 1.250 . S
C229 O235 1.263 . S
O230 Tb222 2.427 . S
O230 C226 1.275 . S
O231 Tb222 2.513 . S
O231 C226 1.246 . S
O232 Tb222 2.453 . S
O232 C228 1.245 . S
O233 Tb220 2.343 . S
O233 Tb222 2.596 . S
O233 C228 1.259 . S
O234 Tb222 2.374 . S
O234 C229 1.250 . S
O235 Tb220 2.353 . S
O235 C229 1.263 . S
C236 O237 1.275 . S
C236 O238 1.246 . S
O237 Tb220 2.427 . S
O237 C236 1.275 . S
O238 Tb220 2.513 . S
O238 C236 1.246 . S
C239 O223 1.245 . S
C239 O224 1.259 . S
Tb240 O243 2.453 . S
Tb240 O244 2.596 . S
Tb240 O245 2.374 . S
Tb240 O253 2.343 . S
Tb240 O255 2.353 . S
Tb240 O257 2.427 . S
Tb240 O258 2.513 . S
C241 O245 1.251 . S
C241 O247 1.263 . S
Tb242 O244 2.343 . S
Tb242 O247 2.353 . S
Tb242 O250 2.427 . S
Tb242 O251 2.513 . S
Tb242 O252 2.453 . S
Tb242 O253 2.596 . S
Tb242 O254 2.374 . S
O243 Tb240 2.453 . S
O243 C259 1.245 . S
O244 Tb240 2.596 . S
O244 Tb242 2.343 . S
O244 C259 1.259 . S
O245 Tb240 2.374 . S
O245 C241 1.251 . S
C246 O250 1.275 . S
C246 O251 1.246 . S
O247 C241 1.263 . S
O247 Tb242 2.353 . S
C248 O252 1.245 . S
C248 O253 1.259 . S
C249 O254 1.250 . S
C249 O255 1.263 . S
O250 Tb242 2.427 . S
O250 C246 1.275 . S
O251 Tb242 2.513 . S
O251 C246 1.246 . S
O252 Tb242 2.453 . S
O252 C248 1.245 . S
O253 Tb240 2.343 . S
O253 Tb242 2.596 . S
O253 C248 1.259 . S
O254 Tb242 2.374 . S
O254 C249 1.250 . S
O255 Tb240 2.353 . S
O255 C249 1.263 . S
C256 O257 1.275 . S
C256 O258 1.246 . S
O257 Tb240 2.427 . S
O257 C256 1.275 . S
O258 Tb240 2.513 . S
O258 C256 1.246 . S
C259 O243 1.245 . S
C259 O244 1.259 . S
Tb260 O263 2.453 . S
Tb260 O264 2.596 . S
Tb260 O265 2.374 . S
Tb260 O273 2.343 . S
Tb260 O275 2.353 . S
Tb260 O277 2.427 . S
Tb260 O278 2.513 . S
C261 O265 1.251 . S
C261 O267 1.263 . S
Tb262 O264 2.343 . S
Tb262 O267 2.353 . S
Tb262 O270 2.427 . S
Tb262 O271 2.513 . S
Tb262 O272 2.453 . S
Tb262 O273 2.596 . S
Tb262 O274 2.374 . S
O263 Tb260 2.453 . S
O263 C279 1.245 . S
O264 Tb260 2.596 . S
O264 Tb262 2.343 . S
O264 C279 1.259 . S
O265 Tb260 2.374 . S
O265 C261 1.251 . S
C266 O270 1.275 . S
C266 O271 1.246 . S
O267 C261 1.263 . S
O267 Tb262 2.353 . S
C268 O272 1.245 . S
C268 O273 1.259 . S
C269 O274 1.250 . S
C269 O275 1.263 . S
O270 Tb262 2.427 . S
O270 C266 1.275 . S
O271 Tb262 2.513 . S
O271 C266 1.246 . S
O272 Tb262 2.453 . S
O272 C268 1.245 . S
O273 Tb260 2.343 . S
O273 Tb262 2.596 . S
O273 C268 1.259 . S
O274 Tb262 2.374 . S
O274 C269 1.250 . S
O275 Tb260 2.353 . S
O275 C269 1.263 . S
C276 O277 1.275 . S
C276 O278 1.246 . S
O277 Tb260 2.427 . S
O277 C276 1.275 . S
O278 Tb260 2.513 . S
O278 C276 1.246 . S
C279 O263 1.245 . S
C279 O264 1.259 . S
Tb280 O283 2.453 1_556 S
Tb280 O284 2.596 . S
Tb280 O285 2.374 1_556 S
Tb280 O293 2.343 . S
Tb280 O295 2.353 . S
Tb280 O297 2.427 . S
Tb280 O298 2.513 . S
C281 O285 1.251 1_556 S
C281 O287 1.263 . S
Tb282 O284 2.343 . S
Tb282 O287 2.353 . S
Tb282 O290 2.427 . S
Tb282 O291 2.513 . S
Tb282 O292 2.453 . S
Tb282 O293 2.596 . S
Tb282 O294 2.374 . S
O283 Tb280 2.453 1_554 S
O283 C299 1.245 1_554 S
O284 Tb280 2.596 . S
O284 Tb282 2.343 . S
O284 C299 1.259 . S
O285 Tb280 2.374 1_554 S
O285 C281 1.251 1_554 S
C286 O290 1.275 . S
C286 O291 1.246 . S
O287 C281 1.263 . S
O287 Tb282 2.353 . S
C288 O292 1.245 . S
C288 O293 1.259 . S
C289 O294 1.250 . S
C289 O295 1.263 . S
O290 Tb282 2.427 . S
O290 C286 1.275 . S
O291 Tb282 2.513 . S
O291 C286 1.246 . S
O292 Tb282 2.453 . S
O292 C288 1.245 . S
O293 Tb280 2.343 . S
O293 Tb282 2.596 . S
O293 C288 1.259 . S
O294 Tb282 2.374 . S
O294 C289 1.250 . S
O295 Tb280 2.353 . S
O295 C289 1.263 . S
C296 O297 1.275 . S
C296 O298 1.246 . S
O297 Tb280 2.427 . S
O297 C296 1.275 . S
O298 Tb280 2.513 . S
O298 C296 1.246 . S
C299 O283 1.245 1_556 S
C299 O284 1.259 . S
Tb300 O303 2.453 . S
Tb300 O304 2.596 . S
Tb300 O305 2.374 . S
Tb300 O313 2.343 . S
Tb300 O315 2.353 . S
Tb300 O317 2.427 . S
Tb300 O318 2.513 . S
C301 O305 1.251 . S
C301 O307 1.263 . S
Tb302 O304 2.343 . S
Tb302 O307 2.353 . S
Tb302 O310 2.427 . S
Tb302 O311 2.513 . S
Tb302 O312 2.453 . S
Tb302 O313 2.596 . S
Tb302 O314 2.374 . S
O303 Tb300 2.453 . S
O303 C319 1.245 . S
O304 Tb300 2.596 . S
O304 Tb302 2.343 . S
O304 C319 1.259 . S
O305 Tb300 2.374 . S
O305 C301 1.251 . S
C306 O310 1.275 . S
C306 O311 1.246 . S
O307 C301 1.263 . S
O307 Tb302 2.353 . S
C308 O312 1.245 . S
C308 O313 1.259 . S
C309 O314 1.250 . S
C309 O315 1.263 . S
O310 Tb302 2.427 . S
O310 C306 1.275 . S
O311 Tb302 2.513 . S
O311 C306 1.246 . S
O312 Tb302 2.453 . S
O312 C308 1.245 . S
O313 Tb300 2.343 . S
O313 Tb302 2.596 . S
O313 C308 1.259 . S
O314 Tb302 2.374 . S
O314 C309 1.250 . S
O315 Tb300 2.353 . S
O315 C309 1.263 . S
C316 O317 1.275 . S
C316 O318 1.246 . S
O317 Tb300 2.427 . S
O317 C316 1.275 . S
O318 Tb300 2.513 . S
O318 C316 1.246 . S
C319 O303 1.245 . S
C319 O304 1.259 . S
H320 C328 0.950 . S
H321 C333 0.950 . S
H322 C330 0.950 . S
H323 C332 0.950 . S
H324 C334 0.950 . S
H325 C336 0.950 . S
H326 C338 0.950 . S
H327 C339 0.950 . S
C328 H320 0.950 . S
C328 C329 1.386 . S
C328 C330 1.391 . S
C329 C328 1.386 . S
C329 C333 1.393 . S
C330 H322 0.950 . S
C330 C328 1.391 . S
C330 C331 1.400 . S
C331 C330 1.400 . S
C331 C332 1.398 . S
C331 C337 1.491 . S
C332 H323 0.950 . S
C332 C331 1.398 . S
C332 C333 1.391 . S
C333 H321 0.950 . S
C333 C329 1.393 . S
C333 C332 1.391 . S
C334 H324 0.950 . S
C334 C335 1.386 . S
C334 C336 1.391 . S
C335 C334 1.386 . S
C335 C339 1.393 . S
C336 H325 0.950 . S
C336 C334 1.391 . S
C336 C337 1.400 . S
C337 C331 1.491 . S
C337 C336 1.400 . S
C337 C338 1.398 . S
C338 H326 0.950 . S
C338 C337 1.398 . S
C338 C339 1.391 . S
C339 H327 0.950 . S
C339 C335 1.393 . S
C339 C338 1.391 . S
H340 C348 0.950 . S
H341 C353 0.950 . S
H342 C350 0.950 . S
H343 C352 0.950 . S
H344 C354 0.950 . S
H345 C356 0.950 . S
H346 C358 0.950 . S
H347 C359 0.950 . S
C348 H340 0.950 . S
C348 C349 1.386 . S
C348 C350 1.391 . S
C349 C348 1.386 . S
C349 C353 1.393 . S
C350 H342 0.950 . S
C350 C348 1.391 . S
C350 C351 1.400 . S
C351 C350 1.400 . S
C351 C352 1.398 . S
C351 C357 1.491 . S
C352 H343 0.950 . S
C352 C351 1.398 . S
C352 C353 1.391 . S
C353 H341 0.950 . S
C353 C349 1.393 . S
C353 C352 1.391 . S
C354 H344 0.950 . S
C354 C355 1.386 . S
C354 C356 1.391 . S
C355 C354 1.386 . S
C355 C359 1.393 . S
C356 H345 0.950 . S
C356 C354 1.391 . S
C356 C357 1.400 . S
C357 C351 1.491 . S
C357 C356 1.400 . S
C357 C358 1.398 . S
C358 H346 0.950 . S
C358 C357 1.398 . S
C358 C359 1.391 . S
C359 H347 0.950 . S
C359 C355 1.393 . S
C359 C358 1.391 . S
H360 C368 0.950 . S
H361 C373 0.950 . S
H362 C370 0.950 1_655 S
H363 C372 0.950 . S
H364 C374 0.950 . S
H365 C376 0.950 1_455 S
H366 C378 0.950 . S
H367 C379 0.950 . S
C368 H360 0.950 . S
C368 C369 1.386 . S
C368 C370 1.391 . S
C369 C368 1.386 . S
C369 C373 1.393 . S
C370 H362 0.950 1_455 S
C370 C368 1.391 . S
C370 C371 1.400 . S
C371 C370 1.400 . S
C371 C372 1.398 . S
C371 C377 1.491 1_455 S
C372 H363 0.950 . S
C372 C371 1.398 . S
C372 C373 1.391 . S
C373 H361 0.950 . S
C373 C369 1.393 . S
C373 C372 1.391 . S
C374 H364 0.950 . S
C374 C375 1.386 . S
C374 C376 1.391 . S
C375 C374 1.386 . S
C375 C379 1.393 . S
C376 H365 0.950 1_655 S
C376 C374 1.391 . S
C376 C377 1.400 . S
C377 C371 1.491 1_655 S
C377 C376 1.400 . S
C377 C378 1.398 . S
C378 H366 0.950 . S
C378 C377 1.398 . S
C378 C379 1.391 . S
C379 H367 0.950 . S
C379 C375 1.393 . S
C379 C378 1.391 . S
H380 C388 0.950 . S
H381 C393 0.950 . S
H382 C390 0.950 1_455 S
H383 C392 0.950 . S
H384 C394 0.950 . S
H385 C396 0.950 1_655 S
H386 C398 0.950 . S
H387 C399 0.950 . S
C388 H380 0.950 . S
C388 C389 1.386 . S
C388 C390 1.391 . S
C389 C388 1.386 . S
C389 C393 1.393 . S
C390 H382 0.950 1_655 S
C390 C388 1.391 . S
C390 C391 1.400 . S
C391 C390 1.400 . S
C391 C392 1.398 . S
C391 C397 1.491 1_655 S
C392 H383 0.950 . S
C392 C391 1.398 . S
C392 C393 1.391 . S
C393 H381 0.950 . S
C393 C389 1.393 . S
C393 C392 1.391 . S
C394 H384 0.950 . S
C394 C395 1.386 . S
C394 C396 1.391 . S
C395 C394 1.386 . S
C395 C399 1.393 . S
C396 H385 0.950 1_455 S
C396 C394 1.391 . S
C396 C397 1.400 . S
C397 C391 1.491 1_455 S
C397 C396 1.400 . S
C397 C398 1.398 . S
C398 H386 0.950 . S
C398 C397 1.398 . S
C398 C399 1.391 . S
C399 H387 0.950 . S
C399 C395 1.393 . S
C399 C398 1.391 . S
H400 C408 0.950 . S
H401 C413 0.950 . S
H402 C410 0.950 . S
H403 C412 0.950 . S
H404 C414 0.950 . S
H405 C416 0.950 . S
H406 C418 0.950 . S
H407 C419 0.950 . S
C408 H400 0.950 . S
C408 C409 1.386 . S
C408 C410 1.391 . S
C409 C408 1.386 . S
C409 C413 1.393 . S
C410 H402 0.950 . S
C410 C408 1.391 . S
C410 C411 1.400 . S
C411 C410 1.400 . S
C411 C412 1.398 . S
C411 C417 1.491 . S
C412 H403 0.950 . S
C412 C411 1.398 . S
C412 C413 1.391 . S
C413 H401 0.950 . S
C413 C409 1.393 . S
C413 C412 1.391 . S
C414 H404 0.950 . S
C414 C415 1.386 . S
C414 C416 1.391 . S
C415 C414 1.386 . S
C415 C419 1.393 . S
C416 H405 0.950 . S
C416 C414 1.391 . S
C416 C417 1.400 . S
C417 C411 1.491 . S
C417 C416 1.400 . S
C417 C418 1.398 . S
C418 H406 0.950 . S
C418 C417 1.398 . S
C418 C419 1.391 . S
C419 H407 0.950 . S
C419 C415 1.393 . S
C419 C418 1.391 . S
H420 C428 0.950 . S
H421 C433 0.950 . S
H422 C430 0.950 . S
H423 C432 0.950 . S
H424 C434 0.950 . S
H425 C436 0.950 . S
H426 C438 0.950 . S
H427 C439 0.950 . S
C428 H420 0.950 . S
C428 C429 1.386 . S
C428 C430 1.391 . S
C429 C428 1.386 . S
C429 C433 1.393 . S
C430 H422 0.950 . S
C430 C428 1.391 . S
C430 C431 1.400 . S
C431 C430 1.400 . S
C431 C432 1.398 . S
C431 C437 1.491 . S
C432 H423 0.950 . S
C432 C431 1.398 . S
C432 C433 1.391 . S
C433 H421 0.950 . S
C433 C429 1.393 . S
C433 C432 1.391 . S
C434 H424 0.950 . S
C434 C435 1.386 . S
C434 C436 1.391 . S
C435 C434 1.386 . S
C435 C439 1.393 . S
C436 H425 0.950 . S
C436 C434 1.391 . S
C436 C437 1.400 . S
C437 C431 1.491 . S
C437 C436 1.400 . S
C437 C438 1.398 . S
C438 H426 0.950 . S
C438 C437 1.398 . S
C438 C439 1.391 . S
C439 H427 0.950 . S
C439 C435 1.393 . S
C439 C438 1.391 . S
H440 C448 0.950 . S
H441 C453 0.950 . S
H442 C450 0.950 . S
H443 C452 0.950 1_455 S
H444 C454 0.950 . S
H445 C456 0.950 . S
H446 C458 0.950 1_655 S
H447 C459 0.950 . S
C448 H440 0.950 . S
C448 C449 1.386 . S
C448 C450 1.391 . S
C449 C448 1.386 . S
C449 C453 1.393 . S
C450 H442 0.950 . S
C450 C448 1.391 . S
C450 C451 1.400 . S
C451 C450 1.400 . S
C451 C452 1.398 . S
C451 C457 1.491 1_655 S
C452 H443 0.950 1_655 S
C452 C451 1.398 . S
C452 C453 1.391 . S
C453 H441 0.950 . S
C453 C449 1.393 . S
C453 C452 1.391 . S
C454 H444 0.950 . S
C454 C455 1.386 . S
C454 C456 1.391 . S
C455 C454 1.386 . S
C455 C459 1.393 . S
C456 H445 0.950 . S
C456 C454 1.391 . S
C456 C457 1.400 . S
C457 C451 1.491 1_455 S
C457 C456 1.400 . S
C457 C458 1.398 . S
C458 H446 0.950 1_455 S
C458 C457 1.398 . S
C458 C459 1.391 . S
C459 H447 0.950 . S
C459 C455 1.393 . S
C459 C458 1.391 . S
H460 C468 0.950 . S
H461 C473 0.950 . S
H462 C470 0.950 . S
H463 C472 0.950 1_655 S
H464 C474 0.950 . S
H465 C476 0.950 . S
H466 C478 0.950 1_455 S
H467 C479 0.950 . S
C468 H460 0.950 . S
C468 C469 1.386 . S
C468 C470 1.391 . S
C469 C468 1.386 . S
C469 C473 1.393 . S
C470 H462 0.950 . S
C470 C468 1.391 . S
C470 C471 1.400 . S
C471 C470 1.400 . S
C471 C472 1.398 . S
C471 C477 1.491 1_455 S
C472 H463 0.950 1_455 S
C472 C471 1.398 . S
C472 C473 1.391 . S
C473 H461 0.950 . S
C473 C469 1.393 . S
C473 C472 1.391 . S
C474 H464 0.950 . S
C474 C475 1.386 . S
C474 C476 1.391 . S
C475 C474 1.386 . S
C475 C479 1.393 . S
C476 H465 0.950 . S
C476 C474 1.391 . S
C476 C477 1.400 . S
C477 C471 1.491 1_655 S
C477 C476 1.400 . S
C477 C478 1.398 . S
C478 H466 0.950 1_655 S
C478 C477 1.398 . S
C478 C479 1.391 . S
C479 H467 0.950 . S
C479 C475 1.393 . S
C479 C478 1.391 . S
H480 C488 0.950 . S
H481 C493 0.950 . S
H482 C490 0.950 1_554 S
H483 C492 0.950 . S
H484 C494 0.950 . S
H485 C496 0.950 . S
H486 C498 0.950 . S
H487 C499 0.950 . S
C488 H480 0.950 . S
C488 C489 1.386 . S
C488 C490 1.391 . S
C489 C488 1.386 . S
C489 C493 1.393 . S
C490 H482 0.950 1_556 S
C490 C488 1.391 . S
C490 C491 1.400 . S
C491 C490 1.400 . S
C491 C492 1.398 . S
C491 C497 1.491 . S
C492 H483 0.950 . S
C492 C491 1.398 . S
C492 C493 1.391 . S
C493 H481 0.950 . S
C493 C489 1.393 . S
C493 C492 1.391 . S
C494 H484 0.950 . S
C494 C495 1.386 1_556 S
C494 C496 1.391 . S
C495 C494 1.386 1_554 S
C495 C499 1.393 . S
C496 H485 0.950 . S
C496 C494 1.391 . S
C496 C497 1.400 . S
C497 C491 1.491 . S
C497 C496 1.400 . S
C497 C498 1.398 1_556 S
C498 H486 0.950 . S
C498 C497 1.398 1_554 S
C498 C499 1.391 . S
C499 H487 0.950 . S
C499 C495 1.393 . S
C499 C498 1.391 . S
H500 C508 0.950 . S
H501 C513 0.950 . S
H502 C510 0.950 . S
H503 C512 0.950 . S
H504 C514 0.950 . S
H505 C516 0.950 . S
H506 C518 0.950 . S
H507 C519 0.950 . S
C508 H500 0.950 . S
C508 C509 1.386 . S
C508 C510 1.391 . S
C509 C508 1.386 . S
C509 C513 1.393 . S
C510 H502 0.950 . S
C510 C508 1.391 . S
C510 C511 1.400 . S
C511 C510 1.400 . S
C511 C512 1.398 . S
C511 C517 1.491 . S
C512 H503 0.950 . S
C512 C511 1.398 . S
C512 C513 1.391 . S
C513 H501 0.950 . S
C513 C509 1.393 . S
C513 C512 1.391 . S
C514 H504 0.950 . S
C514 C515 1.386 . S
C514 C516 1.391 . S
C515 C514 1.386 . S
C515 C519 1.393 . S
C516 H505 0.950 . S
C516 C514 1.391 . S
C516 C517 1.400 . S
C517 C511 1.491 . S
C517 C516 1.400 . S
C517 C518 1.398 . S
C518 H506 0.950 . S
C518 C517 1.398 . S
C518 C519 1.391 . S
C519 H507 0.950 . S
C519 C515 1.393 . S
C519 C518 1.391 . S
H520 C528 0.950 . S
H521 C533 0.950 . S
H522 C530 0.950 . S
H523 C532 0.950 . S
H524 C534 0.950 . S
H525 C536 0.950 . S
H526 C538 0.950 . S
H527 C539 0.950 . S
C528 H520 0.950 . S
C528 C529 1.386 . S
C528 C530 1.391 . S
C529 C528 1.386 . S
C529 C533 1.393 . S
C530 H522 0.950 . S
C530 C528 1.391 . S
C530 C531 1.400 . S
C531 C530 1.400 . S
C531 C532 1.398 . S
C531 C537 1.491 . S
C532 H523 0.950 . S
C532 C531 1.398 . S
C532 C533 1.391 . S
C533 H521 0.950 . S
C533 C529 1.393 . S
C533 C532 1.391 . S
C534 H524 0.950 . S
C534 C535 1.386 . S
C534 C536 1.391 . S
C535 C534 1.386 . S
C535 C539 1.393 . S
C536 H525 0.950 . S
C536 C534 1.391 . S
C536 C537 1.400 . S
C537 C531 1.491 . S
C537 C536 1.400 . S
C537 C538 1.398 . S
C538 H526 0.950 . S
C538 C537 1.398 . S
C538 C539 1.391 . S
C539 H527 0.950 . S
C539 C535 1.393 . S
C539 C538 1.391 . S
H540 C548 0.950 . S
H541 C553 0.950 . S
H542 C550 0.950 . S
H543 C552 0.950 . S
H544 C554 0.950 . S
H545 C556 0.950 . S
H546 C558 0.950 . S
H547 C559 0.950 . S
C548 H540 0.950 . S
C548 C549 1.386 . S
C548 C550 1.391 . S
C549 C548 1.386 . S
C549 C553 1.393 . S
C550 H542 0.950 . S
C550 C548 1.391 . S
C550 C551 1.400 . S
C551 C550 1.400 . S
C551 C552 1.398 . S
C551 C557 1.491 . S
C552 H543 0.950 . S
C552 C551 1.398 . S
C552 C553 1.391 . S
C553 H541 0.950 . S
C553 C549 1.393 . S
C553 C552 1.391 . S
C554 H544 0.950 . S
C554 C555 1.386 . S
C554 C556 1.391 . S
C555 C554 1.386 . S
C555 C559 1.393 . S
C556 H545 0.950 . S
C556 C554 1.391 . S
C556 C557 1.400 . S
C557 C551 1.491 . S
C557 C556 1.400 . S
C557 C558 1.398 . S
C558 H546 0.950 . S
C558 C557 1.398 . S
C558 C559 1.391 . S
C559 H547 0.950 . S
C559 C555 1.393 . S
C559 C558 1.391 . S
H560 C568 0.950 . S
H561 C573 0.950 . S
H562 C570 0.950 . S
H563 C572 0.950 . S
H564 C574 0.950 . S
H565 C576 0.950 1_556 S
H566 C578 0.950 . S
H567 C579 0.950 . S
C568 H560 0.950 . S
C568 C569 1.386 1_554 S
C568 C570 1.391 . S
C569 C568 1.386 1_556 S
C569 C573 1.393 . S
C570 H562 0.950 . S
C570 C568 1.391 . S
C570 C571 1.400 . S
C571 C570 1.400 . S
C571 C572 1.398 1_554 S
C571 C577 1.491 . S
C572 H563 0.950 . S
C572 C571 1.398 1_556 S
C572 C573 1.391 . S
C573 H561 0.950 . S
C573 C569 1.393 . S
C573 C572 1.391 . S
C574 H564 0.950 . S
C574 C575 1.386 . S
C574 C576 1.391 . S
C575 C574 1.386 . S
C575 C579 1.393 . S
C576 H565 0.950 1_554 S
C576 C574 1.391 . S
C576 C577 1.400 . S
C577 C571 1.491 . S
C577 C576 1.400 . S
C577 C578 1.398 . S
C578 H566 0.950 . S
C578 C577 1.398 . S
C578 C579 1.391 . S
C579 H567 0.950 . S
C579 C575 1.393 . S
C579 C578 1.391 . S
H580 C588 0.950 . S
H581 C593 0.950 . S
H582 C590 0.950 . S
H583 C592 0.950 . S
H584 C594 0.950 . S
H585 C596 0.950 . S
H586 C598 0.950 . S
H587 C599 0.950 . S
C588 H580 0.950 . S
C588 C589 1.386 . S
C588 C590 1.391 . S
C589 C588 1.386 . S
C589 C593 1.393 . S
C590 H582 0.950 . S
C590 C588 1.391 . S
C590 C591 1.400 . S
C591 C590 1.400 . S
C591 C592 1.398 . S
C591 C597 1.491 . S
C592 H583 0.950 . S
C592 C591 1.398 . S
C592 C593 1.391 . S
C593 H581 0.950 . S
C593 C589 1.393 . S
C593 C592 1.391 . S
C594 H584 0.950 . S
C594 C595 1.386 . S
C594 C596 1.391 . S
C595 C594 1.386 . S
C595 C599 1.393 . S
C596 H585 0.950 . S
C596 C594 1.391 . S
C596 C597 1.400 . S
C597 C591 1.491 . S
C597 C596 1.400 . S
C597 C598 1.398 . S
C598 H586 0.950 . S
C598 C597 1.398 . S
C598 C599 1.391 . S
C599 H587 0.950 . S
C599 C595 1.393 . S
C599 C598 1.391 . S
H600 C608 0.950 . S
H601 C613 0.950 . S
H602 C610 0.950 . S
H603 C612 0.950 . S
H604 C614 0.950 . S
H605 C616 0.950 . S
H606 C618 0.950 . S
H607 C619 0.950 . S
C608 H600 0.950 . S
C608 C609 1.386 . S
C608 C610 1.391 . S
C609 C608 1.386 . S
C609 C613 1.393 . S
C610 H602 0.950 . S
C610 C608 1.391 . S
C610 C611 1.400 . S
C611 C610 1.400 . S
C611 C612 1.398 . S
C611 C617 1.491 . S
C612 H603 0.950 . S
C612 C611 1.398 . S
C612 C613 1.391 . S
C613 H601 0.950 . S
C613 C609 1.393 . S
C613 C612 1.391 . S
C614 H604 0.950 . S
C614 C615 1.386 . S
C614 C616 1.391 . S
C615 C614 1.386 . S
C615 C619 1.393 . S
C616 H605 0.950 . S
C616 C614 1.391 . S
C616 C617 1.400 . S
C617 C611 1.491 . S
C617 C616 1.400 . S
C617 C618 1.398 . S
C618 H606 0.950 . S
C618 C617 1.398 . S
C618 C619 1.391 . S
C619 H607 0.950 . S
C619 C615 1.393 . S
C619 C618 1.391 . S
H620 C628 0.950 . S
H621 C633 0.950 . S
H622 C630 0.950 . S
H623 C632 0.950 . S
H624 C634 0.950 . S
H625 C636 0.950 . S
H626 C638 0.950 . S
H627 C639 0.950 . S
C628 H620 0.950 . S
C628 C629 1.386 . S
C628 C630 1.391 . S
C629 C628 1.386 . S
C629 C633 1.393 . S
C630 H622 0.950 . S
C630 C628 1.391 . S
C630 C631 1.400 . S
C631 C630 1.400 . S
C631 C632 1.398 . S
C631 C637 1.491 . S
C632 H623 0.950 . S
C632 C631 1.398 . S
C632 C633 1.391 . S
C633 H621 0.950 . S
C633 C629 1.393 . S
C633 C632 1.391 . S
C634 H624 0.950 . S
C634 C635 1.386 . S
C634 C636 1.391 . S
C635 C634 1.386 . S
C635 C639 1.393 . S
C636 H625 0.950 . S
C636 C634 1.391 . S
C636 C637 1.400 . S
C637 C631 1.491 . S
C637 C636 1.400 . S
C637 C638 1.398 . S
C638 H626 0.950 . S
C638 C637 1.398 . S
C638 C639 1.391 . S
C639 H627 0.950 . S
C639 C635 1.393 . S
C639 C638 1.391 . S
H640 C648 0.950 . S
H641 C653 0.950 . S
H642 C650 0.950 . S
H643 C652 0.950 . S
H644 C654 0.950 . S
H645 C656 0.950 . S
H646 C658 0.950 . S
H647 C659 0.950 . S
C648 H640 0.950 . S
C648 C649 1.386 . S
C648 C650 1.391 . S
C649 C648 1.386 . S
C649 C653 1.393 . S
C650 H642 0.950 . S
C650 C648 1.391 . S
C650 C651 1.400 . S
C651 C650 1.400 . S
C651 C652 1.398 . S
C651 C657 1.491 . S
C652 H643 0.950 . S
C652 C651 1.398 . S
C652 C653 1.391 . S
C653 H641 0.950 . S
C653 C649 1.393 . S
C653 C652 1.391 . S
C654 H644 0.950 . S
C654 C655 1.386 . S
C654 C656 1.391 . S
C655 C654 1.386 . S
C655 C659 1.393 . S
C656 H645 0.950 . S
C656 C654 1.391 . S
C656 C657 1.400 . S
C657 C651 1.491 . S
C657 C656 1.400 . S
C657 C658 1.398 . S
C658 H646 0.950 . S
C658 C657 1.398 . S
C658 C659 1.391 . S
C659 H647 0.950 . S
C659 C655 1.393 . S
C659 C658 1.391 . S
H660 C668 0.950 . S
H661 C673 0.950 1_545 S
H662 C670 0.950 . S
H663 C672 0.950 . S
H664 C674 0.950 . S
H665 C676 0.950 . S
H666 C678 0.950 . S
H667 C679 0.950 . S
C668 H660 0.950 . S
C668 C669 1.386 1_565 S
C668 C670 1.391 . S
C669 C668 1.386 1_545 S
C669 C673 1.393 1_545 S
C670 H662 0.950 . S
C670 C668 1.391 . S
C670 C671 1.400 . S
C671 C670 1.400 . S
C671 C672 1.398 . S
C671 C677 1.491 . S
C672 H663 0.950 . S
C672 C671 1.398 . S
C672 C673 1.391 . S
C673 H661 0.950 1_565 S
C673 C669 1.393 1_565 S
C673 C672 1.391 . S
C674 H664 0.950 . S
C674 C675 1.386 . S
C674 C676 1.391 . S
C675 C674 1.386 . S
C675 C679 1.393 . S
C676 H665 0.950 . S
C676 C674 1.391 . S
C676 C677 1.400 . S
C677 C671 1.491 . S
C677 C676 1.400 . S
C677 C678 1.398 . S
C678 H666 0.950 . S
C678 C677 1.398 . S
C678 C679 1.391 . S
C679 H667 0.950 . S
C679 C675 1.393 . S
C679 C678 1.391 . S
H680 C688 0.950 . S
H681 C693 0.950 . S
H682 C690 0.950 . S
H683 C692 0.950 . S
H684 C694 0.950 . S
H685 C696 0.950 . S
H686 C698 0.950 . S
H687 C699 0.950 . S
C688 H680 0.950 . S
C688 C689 1.386 . S
C688 C690 1.391 . S
C689 C688 1.386 . S
C689 C693 1.393 1_554 S
C690 H682 0.950 . S
C690 C688 1.391 . S
C690 C691 1.400 1_554 S
C691 C690 1.400 1_556 S
C691 C692 1.398 . S
C691 C697 1.491 . S
C692 H683 0.950 . S
C692 C691 1.398 . S
C692 C693 1.391 . S
C693 H681 0.950 . S
C693 C689 1.393 1_556 S
C693 C692 1.391 . S
C694 H684 0.950 . S
C694 C695 1.386 . S
C694 C696 1.391 . S
C695 C694 1.386 . S
C695 C699 1.393 . S
C696 H685 0.950 . S
C696 C694 1.391 . S
C696 C697 1.400 . S
C697 C691 1.491 . S
C697 C696 1.400 . S
C697 C698 1.398 . S
C698 H686 0.950 . S
C698 C697 1.398 . S
C698 C699 1.391 . S
C699 H687 0.950 . S
C699 C695 1.393 . S
C699 C698 1.391 . S
H700 C708 0.950 . S
H701 C713 0.950 1_565 S
H702 C710 0.950 . S
H703 C712 0.950 . S
H704 C714 0.950 . S
H705 C716 0.950 . S
H706 C718 0.950 . S
H707 C719 0.950 . S
C708 H700 0.950 . S
C708 C709 1.386 1_545 S
C708 C710 1.391 . S
C709 C708 1.386 1_565 S
C709 C713 1.393 1_565 S
C710 H702 0.950 . S
C710 C708 1.391 . S
C710 C711 1.400 . S
C711 C710 1.400 . S
C711 C712 1.398 . S
C711 C717 1.491 . S
C712 H703 0.950 . S
C712 C711 1.398 . S
C712 C713 1.391 . S
C713 H701 0.950 1_545 S
C713 C709 1.393 1_545 S
C713 C712 1.391 . S
C714 H704 0.950 . S
C714 C715 1.386 . S
C714 C716 1.391 . S
C715 C714 1.386 . S
C715 C719 1.393 . S
C716 H705 0.950 . S
C716 C714 1.391 . S
C716 C717 1.400 . S
C717 C711 1.491 . S
C717 C716 1.400 . S
C717 C718 1.398 . S
C718 H706 0.950 . S
C718 C717 1.398 . S
C718 C719 1.391 . S
C719 H707 0.950 . S
C719 C715 1.393 . S
C719 C718 1.391 . S
H720 C728 0.950 . S
H721 C733 0.950 . S
H722 C730 0.950 . S
H723 C732 0.950 . S
H724 C734 0.950 . S
H725 C736 0.950 . S
H726 C738 0.950 . S
H727 C739 0.950 . S
C728 H720 0.950 . S
C728 C729 1.386 . S
C728 C730 1.391 . S
C729 C728 1.386 . S
C729 C733 1.393 . S
C730 H722 0.950 . S
C730 C728 1.391 . S
C730 C731 1.400 . S
C731 C730 1.400 . S
C731 C732 1.398 . S
C731 C737 1.491 . S
C732 H723 0.950 . S
C732 C731 1.398 . S
C732 C733 1.391 . S
C733 H721 0.950 . S
C733 C729 1.393 . S
C733 C732 1.391 . S
C734 H724 0.950 . S
C734 C735 1.386 . S
C734 C736 1.391 . S
C735 C734 1.386 . S
C735 C739 1.393 . S
C736 H725 0.950 . S
C736 C734 1.391 . S
C736 C737 1.400 . S
C737 C731 1.491 . S
C737 C736 1.400 . S
C737 C738 1.398 . S
C738 H726 0.950 . S
C738 C737 1.398 . S
C738 C739 1.391 . S
C739 H727 0.950 . S
C739 C735 1.393 . S
C739 C738 1.391 . S
H740 C748 0.950 . S
H741 C753 0.950 . S
H742 C750 0.950 . S
H743 C752 0.950 . S
H744 C754 0.929 1_565 S
H745 C756 0.950 . S
H746 C758 0.950 . S
H747 C759 0.950 . S
C748 H740 0.950 . S
C748 C749 1.386 . S
C748 C750 1.391 . S
C749 C748 1.386 . S
C749 C753 1.393 . S
C750 H742 0.950 . S
C750 C748 1.391 . S
C750 C751 1.400 . S
C751 C750 1.400 . S
C751 C752 1.398 . S
C751 C757 1.491 . S
C752 H743 0.950 . S
C752 C751 1.398 . S
C752 C753 1.391 . S
C753 H741 0.950 . S
C753 C749 1.393 . S
C753 C752 1.391 . S
C754 H744 0.929 1_545 S
C754 C755 1.386 1_545 S
C754 C756 1.391 . S
C755 C754 1.386 1_565 S
C755 C759 1.393 1_565 S
C756 H745 0.950 . S
C756 C754 1.391 . S
C756 C757 1.400 . S
C757 C751 1.491 . S
C757 C756 1.400 . S
C757 C758 1.398 . S
C758 H746 0.950 . S
C758 C757 1.398 . S
C758 C759 1.391 . S
C759 H747 0.950 . S
C759 C755 1.393 1_545 S
C759 C758 1.391 . S
H760 C768 0.950 . S
H761 C773 0.950 . S
H762 C770 0.950 . S
H763 C772 0.950 1_556 S
H764 C774 0.950 . S
H765 C776 0.950 . S
H766 C778 0.950 . S
H767 C779 0.950 . S
C768 H760 0.950 . S
C768 C769 1.386 . S
C768 C770 1.391 . S
C769 C768 1.386 . S
C769 C773 1.393 . S
C770 H762 0.950 . S
C770 C768 1.391 . S
C770 C771 1.400 . S
C771 C770 1.400 . S
C771 C772 1.398 . S
C771 C777 1.491 . S
C772 H763 0.950 1_554 S
C772 C771 1.398 . S
C772 C773 1.391 . S
C773 H761 0.950 . S
C773 C769 1.393 . S
C773 C772 1.391 . S
C774 H764 0.950 . S
C774 C775 1.386 . S
C774 C776 1.391 . S
C775 C774 1.386 . S
C775 C779 1.393 1_556 S
C776 H765 0.950 . S
C776 C774 1.391 . S
C776 C777 1.400 1_556 S
C777 C771 1.491 . S
C777 C776 1.400 1_554 S
C777 C778 1.398 . S
C778 H766 0.950 . S
C778 C777 1.398 . S
C778 C779 1.391 . S
C779 H767 0.950 . S
C779 C775 1.393 1_554 S
C779 C778 1.391 . S
H780 C788 0.964 . S
H781 C793 0.950 . S
H782 C790 0.950 . S
H783 C792 0.950 . S
H784 C794 0.950 . S
H785 C796 0.950 . S
H786 C798 0.950 . S
H787 C799 0.950 . S
C788 H780 0.964 . S
C788 C789 1.386 1_565 S
C788 C790 1.391 . S
C789 C788 1.386 1_545 S
C789 C793 1.393 1_545 S
C790 H782 0.950 . S
C790 C788 1.391 . S
C790 C791 1.400 . S
C791 C790 1.400 . S
C791 C792 1.398 . S
C791 C797 1.491 . S
C792 H783 0.950 . S
C792 C791 1.398 . S
C792 C793 1.391 . S
C793 H781 0.950 . S
C793 C789 1.393 1_565 S
C793 C792 1.391 . S
C794 H784 0.950 . S
C794 C795 1.386 . S
C794 C796 1.391 . S
C795 C794 1.386 . S
C795 C799 1.393 . S
C796 H785 0.950 . S
C796 C794 1.391 . S
C796 C797 1.400 . S
C797 C791 1.491 . S
C797 C796 1.400 . S
C797 C798 1.398 . S
C798 H786 0.950 . S
C798 C797 1.398 . S
C798 C799 1.391 . S
C799 H787 0.950 . S
C799 C795 1.393 . S
C799 C798 1.391 . S
H800 C808 0.950 . S
H801 C813 0.950 1_554 S
H802 C810 0.950 . S
H803 C812 0.950 . S
H804 C814 0.950 . S
H805 C816 0.950 . S
H806 C818 0.950 . S
H807 C819 0.950 . S
C808 H800 0.950 . S
C808 C809 1.386 . S
C808 C810 1.391 . S
C809 C808 1.386 . S
C809 C813 1.393 . S
C810 H802 0.950 . S
C810 C808 1.391 . S
C810 C811 1.400 . S
C811 C810 1.400 . S
C811 C812 1.398 . S
C811 C817 1.491 . S
C812 H803 0.950 . S
C812 C811 1.398 . S
C812 C813 1.391 . S
C813 H801 0.950 1_556 S
C813 C809 1.393 . S
C813 C812 1.391 . S
C814 H804 0.950 . S
C814 C815 1.386 . S
C814 C816 1.391 . S
C815 C814 1.386 . S
C815 C819 1.393 . S
C816 H805 0.950 . S
C816 C814 1.391 . S
C816 C817 1.400 . S
C817 C811 1.491 . S
C817 C816 1.400 . S
C817 C818 1.398 . S
C818 H806 0.950 . S
C818 C817 1.398 . S
C818 C819 1.391 . S
C819 H807 0.950 . S
C819 C815 1.393 . S
C819 C818 1.391 . S
H820 C828 0.950 . S
H821 C833 0.950 . S
H822 C830 0.950 . S
H823 C832 0.950 . S
H824 C834 0.950 . S
H825 C836 0.950 . S
H826 C838 0.950 . S
H827 C839 0.950 . S
C828 H820 0.950 . S
C828 C829 1.386 . S
C828 C830 1.391 . S
C829 C828 1.386 . S
C829 C833 1.393 . S
C830 H822 0.950 . S
C830 C828 1.391 . S
C830 C831 1.400 . S
C831 C830 1.400 . S
C831 C832 1.398 . S
C831 C837 1.491 . S
C832 H823 0.950 . S
C832 C831 1.398 . S
C832 C833 1.391 . S
C833 H821 0.950 . S
C833 C829 1.393 . S
C833 C832 1.391 . S
C834 H824 0.950 . S
C834 C835 1.386 . S
C834 C836 1.391 . S
C835 C834 1.386 . S
C835 C839 1.393 . S
C836 H825 0.950 . S
C836 C834 1.391 . S
C836 C837 1.400 . S
C837 C831 1.491 . S
C837 C836 1.400 . S
C837 C838 1.398 . S
C838 H826 0.950 . S
C838 C837 1.398 . S
C838 C839 1.391 . S
C839 H827 0.950 . S
C839 C835 1.393 . S
C839 C838 1.391 . S
H840 C848 0.950 . S
H841 C853 0.950 . S
H842 C850 0.950 . S
H843 C852 0.950 . S
H844 C854 0.950 . S
H845 C856 0.950 . S
H846 C858 0.950 . S
H847 C859 0.950 . S
C848 H840 0.950 . S
C848 C849 1.386 . S
C848 C850 1.391 1_655 S
C849 C848 1.386 . S
C849 C853 1.393 1_655 S
C850 H842 0.950 . S
C850 C848 1.391 1_455 S
C850 C851 1.400 . S
C851 C850 1.400 . S
C851 C852 1.398 . S
C851 C857 1.491 . S
C852 H843 0.950 . S
C852 C851 1.398 . S
C852 C853 1.391 . S
C853 H841 0.950 . S
C853 C849 1.393 1_455 S
C853 C852 1.391 . S
C854 H844 0.950 . S
C854 C855 1.386 . S
C854 C856 1.391 . S
C855 C854 1.386 . S
C855 C859 1.393 . S
C856 H845 0.950 . S
C856 C854 1.391 . S
C856 C857 1.400 . S
C857 C851 1.491 . S
C857 C856 1.400 . S
C857 C858 1.398 . S
C858 H846 0.950 . S
C858 C857 1.398 . S
C858 C859 1.391 . S
C859 H847 0.950 . S
C859 C855 1.393 . S
C859 C858 1.391 . S
H860 C868 0.950 . S
H861 C873 0.950 . S
H862 C870 0.950 . S
H863 C872 0.950 . S
H864 C874 0.950 . S
H865 C876 0.950 . S
H866 C878 0.950 . S
H867 C879 0.950 . S
C868 H860 0.950 . S
C868 C869 1.386 . S
C868 C870 1.391 . S
C869 C868 1.386 . S
C869 C873 1.393 . S
C870 H862 0.950 . S
C870 C868 1.391 . S
C870 C871 1.400 . S
C871 C870 1.400 . S
C871 C872 1.398 . S
C871 C877 1.491 . S
C872 H863 0.950 . S
C872 C871 1.398 . S
C872 C873 1.391 . S
C873 H861 0.950 . S
C873 C869 1.393 . S
C873 C872 1.391 . S
C874 H864 0.950 . S
C874 C875 1.386 . S
C874 C876 1.391 . S
C875 C874 1.386 . S
C875 C879 1.393 . S
C876 H865 0.950 . S
C876 C874 1.391 . S
C876 C877 1.400 . S
C877 C871 1.491 . S
C877 C876 1.400 . S
C877 C878 1.398 . S
C878 H866 0.950 . S
C878 C877 1.398 . S
C878 C879 1.391 . S
C879 H867 0.950 . S
C879 C875 1.393 . S
C879 C878 1.391 . S
H880 C888 0.950 . S
H881 C893 0.950 . S
H882 C890 0.950 . S
H883 C892 0.950 . S
H884 C894 0.950 . S
H885 C896 0.950 . S
H886 C898 0.950 . S
H887 C899 0.950 . S
C888 H880 0.950 . S
C888 C889 1.386 . S
C888 C890 1.391 . S
C889 C888 1.386 . S
C889 C893 1.393 . S
C890 H882 0.950 . S
C890 C888 1.391 . S
C890 C891 1.400 . S
C891 C890 1.400 . S
C891 C892 1.398 . S
C891 C897 1.491 . S
C892 H883 0.950 . S
C892 C891 1.398 . S
C892 C893 1.391 . S
C893 H881 0.950 . S
C893 C889 1.393 . S
C893 C892 1.391 . S
C894 H884 0.950 . S
C894 C895 1.386 . S
C894 C896 1.391 . S
C895 C894 1.386 . S
C895 C899 1.393 . S
C896 H885 0.950 . S
C896 C894 1.391 . S
C896 C897 1.400 . S
C897 C891 1.491 . S
C897 C896 1.400 . S
C897 C898 1.398 . S
C898 H886 0.950 . S
C898 C897 1.398 . S
C898 C899 1.391 . S
C899 H887 0.950 . S
C899 C895 1.393 . S
C899 C898 1.391 . S
H900 C908 0.950 . S
H901 C913 0.950 . S
H902 C910 0.950 . S
H903 C912 0.950 . S
H904 C914 0.950 . S
H905 C916 0.950 . S
H906 C918 0.950 . S
H907 C919 0.950 . S
C908 H900 0.950 . S
C908 C909 1.386 . S
C908 C910 1.391 . S
C909 C908 1.386 . S
C909 C913 1.393 . S
C910 H902 0.950 . S
C910 C908 1.391 . S
C910 C911 1.400 . S
C911 C910 1.400 . S
C911 C912 1.398 . S
C911 C917 1.491 . S
C912 H903 0.950 . S
C912 C911 1.398 . S
C912 C913 1.391 . S
C913 H901 0.950 . S
C913 C909 1.393 . S
C913 C912 1.391 . S
C914 H904 0.950 . S
C914 C915 1.386 . S
C914 C916 1.391 . S
C915 C914 1.386 . S
C915 C919 1.393 . S
C916 H905 0.950 . S
C916 C914 1.391 . S
C916 C917 1.400 . S
C917 C911 1.491 . S
C917 C916 1.400 . S
C917 C918 1.398 . S
C918 H906 0.950 . S
C918 C917 1.398 . S
C918 C919 1.391 . S
C919 H907 0.950 . S
C919 C915 1.393 . S
C919 C918 1.391 . S
H920 C928 0.950 . S
H921 C933 0.950 . S
H922 C930 0.950 . S
H923 C932 0.950 . S
H924 C934 0.950 . S
H925 C936 0.950 . S
H926 C938 0.950 . S
H927 C939 0.950 . S
C928 H920 0.950 . S
C928 C929 1.386 1_655 S
C928 C930 1.391 . S
C929 C928 1.386 1_455 S
C929 C933 1.393 . S
C930 H922 0.950 . S
C930 C928 1.391 . S
C930 C931 1.400 . S
C931 C930 1.400 . S
C931 C932 1.398 . S
C931 C937 1.491 . S
C932 H923 0.950 . S
C932 C931 1.398 . S
C932 C933 1.391 1_655 S
C933 H921 0.950 . S
C933 C929 1.393 . S
C933 C932 1.391 1_455 S
C934 H924 0.950 . S
C934 C935 1.386 . S
C934 C936 1.391 . S
C935 C934 1.386 . S
C935 C939 1.393 . S
C936 H925 0.950 . S
C936 C934 1.391 . S
C936 C937 1.400 . S
C937 C931 1.491 . S
C937 C936 1.400 . S
C937 C938 1.398 . S
C938 H926 0.950 . S
C938 C937 1.398 . S
C938 C939 1.391 . S
C939 H927 0.950 . S
C939 C935 1.393 . S
C939 C938 1.391 . S
H940 C948 0.950 . S
H941 C953 0.950 . S
H942 C950 0.950 . S
H943 C952 0.950 . S
H944 C954 0.950 . S
H945 C956 0.950 . S
H946 C958 0.950 . S
H947 C959 0.950 . S
C948 H940 0.950 . S
C948 C949 1.386 . S
C948 C950 1.391 . S
C949 C948 1.386 . S
C949 C953 1.393 . S
C950 H942 0.950 . S
C950 C948 1.391 . S
C950 C951 1.400 . S
C951 C950 1.400 . S
C951 C952 1.398 . S
C951 C957 1.491 . S
C952 H943 0.950 . S
C952 C951 1.398 . S
C952 C953 1.391 . S
C953 H941 0.950 . S
C953 C949 1.393 . S
C953 C952 1.391 . S
C954 H944 0.950 . S
C954 C955 1.386 . S
C954 C956 1.391 . S
C955 C954 1.386 . S
C955 C959 1.393 . S
C956 H945 0.950 . S
C956 C954 1.391 . S
C956 C957 1.400 . S
C957 C951 1.491 . S
C957 C956 1.400 . S
C957 C958 1.398 . S
C958 H946 0.950 . S
C958 C957 1.398 . S
C958 C959 1.391 . S
C959 H947 0.950 . S
C959 C955 1.393 . S
C959 C958 1.391 . S
H960 C968 0.950 . S
H961 C973 0.950 . S
H962 C970 0.950 . S
H963 C972 0.950 . S
H964 C974 0.934 1_455 S
H965 C976 0.950 . S
H966 C978 0.950 . S
H967 C979 0.950 . S
C968 H960 0.950 . S
C968 C969 1.386 . S
C968 C970 1.391 . S
C969 C968 1.386 . S
C969 C973 1.393 . S
C970 H962 0.950 . S
C970 C968 1.391 . S
C970 C971 1.400 . S
C971 C970 1.400 . S
C971 C972 1.398 . S
C971 C977 1.491 . S
C972 H963 0.950 . S
C972 C971 1.398 . S
C972 C973 1.391 . S
C973 H961 0.950 . S
C973 C969 1.393 . S
C973 C972 1.391 . S
C974 H964 0.934 1_655 S
C974 C975 1.382 1_655 S
C974 C976 1.412 . S
C975 C974 1.382 1_455 S
C975 C979 1.393 1_455 S
C976 H965 0.950 . S
C976 C974 1.412 . S
C976 C977 1.400 . S
C977 C971 1.491 . S
C977 C976 1.400 . S
C977 C978 1.398 . S
C978 H966 0.950 . S
C978 C977 1.398 . S
C978 C979 1.391 . S
C979 H967 0.950 . S
C979 C975 1.393 1_655 S
C979 C978 1.391 . S
H980 C988 0.950 . S
H981 C993 0.950 . S
H982 C990 0.950 . S
H983 C992 0.950 . S
H984 C994 0.950 . S
H985 C996 0.950 . S
H986 C998 0.950 . S
H987 C999 0.950 . S
C988 H980 0.950 . S
C988 C989 1.386 . S
C988 C990 1.391 . S
C989 C988 1.386 . S
C989 C993 1.393 . S
C990 H982 0.950 . S
C990 C988 1.391 . S
C990 C991 1.400 . S
C991 C990 1.400 . S
C991 C992 1.398 . S
C991 C997 1.491 . S
C992 H983 0.950 . S
C992 C991 1.398 . S
C992 C993 1.391 . S
C993 H981 0.950 . S
C993 C989 1.393 . S
C993 C992 1.391 . S
C994 H984 0.950 . S
C994 C995 1.386 . S
C994 C996 1.391 . S
C995 C994 1.386 . S
C995 C999 1.393 . S
C996 H985 0.950 . S
C996 C994 1.391 . S
C996 C997 1.400 . S
C997 C991 1.491 . S
C997 C996 1.400 . S
C997 C998 1.398 . S
C998 H986 0.950 . S
C998 C997 1.398 . S
C998 C999 1.391 . S
C999 H987 0.950 . S
C999 C995 1.393 . S
C999 C998 1.391 . S
H1000 C1008 0.950 . S
H1001 C1013 0.950 . S
H1002 C1010 0.950 . S
H1003 C1012 0.950 . S
H1004 C1014 0.950 . S
H1005 C1016 0.950 . S
H1006 C1018 0.950 . S
H1007 C1019 0.950 1_554 S
C1008 H1000 0.950 . S
C1008 C1009 1.386 . S
C1008 C1010 1.391 . S
C1009 C1008 1.386 . S
C1009 C1013 1.393 . S
C1010 H1002 0.950 . S
C1010 C1008 1.391 . S
C1010 C1011 1.400 . S
C1011 C1010 1.400 . S
C1011 C1012 1.398 . S
C1011 C1017 1.491 . S
C1012 H1003 0.950 . S
C1012 C1011 1.398 . S
C1012 C1013 1.391 . S
C1013 H1001 0.950 . S
C1013 C1009 1.393 . S
C1013 C1012 1.391 . S
C1014 H1004 0.950 . S
C1014 C1015 1.386 . S
C1014 C1016 1.391 . S
C1015 C1014 1.386 . S
C1015 C1019 1.393 . S
C1016 H1005 0.950 . S
C1016 C1014 1.391 . S
C1016 C1017 1.400 . S
C1017 C1011 1.491 . S
C1017 C1016 1.400 . S
C1017 C1018 1.398 . S
C1018 H1006 0.950 . S
C1018 C1017 1.398 . S
C1018 C1019 1.391 . S
C1019 H1007 0.950 1_556 S
C1019 C1015 1.393 . S
C1019 C1018 1.391 . S
H1020 C1028 0.950 . S
H1021 C1033 0.936 1_556 S
H1022 C1030 0.950 . S
H1023 C1032 0.950 . S
H1024 C1034 0.950 . S
H1025 C1036 0.950 . S
H1026 C1038 0.950 . S
H1027 C1039 0.950 . S
C1028 H1020 0.950 . S
C1028 C1029 1.386 . S
C1028 C1030 1.391 . S
C1029 C1028 1.386 . S
C1029 C1033 1.393 . S
C1030 H1022 0.950 . S
C1030 C1028 1.391 . S
C1030 C1031 1.400 . S
C1031 C1030 1.400 . S
C1031 C1032 1.398 . S
C1031 C1037 1.491 . S
C1032 H1023 0.950 . S
C1032 C1031 1.398 . S
C1032 C1033 1.391 . S
C1033 H1021 0.936 1_554 S
C1033 C1029 1.393 . S
C1033 C1032 1.391 . S
C1034 H1024 0.950 . S
C1034 C1035 1.386 . S
C1034 C1036 1.391 . S
C1035 C1034 1.386 . S
C1035 C1039 1.393 . S
C1036 H1025 0.950 . S
C1036 C1034 1.391 . S
C1036 C1037 1.400 . S
C1037 C1031 1.491 . S
C1037 C1036 1.400 . S
C1037 C1038 1.398 . S
C1038 H1026 0.950 . S
C1038 C1037 1.398 . S
C1038 C1039 1.391 . S
C1039 H1027 0.950 . S
C1039 C1035 1.393 . S
C1039 C1038 1.391 . S
H1040 C1048 0.950 . S
H1041 C1053 0.950 . S
H1042 C1050 0.950 . S
H1043 C1052 0.950 . S
H1044 C1054 0.950 . S
H1045 C1056 0.938 1_655 S
H1046 C1058 0.950 . S
H1047 C1059 0.950 . S
C1048 H1040 0.950 . S
C1048 C1049 1.386 . S
C1048 C1050 1.391 . S
C1049 C1048 1.386 . S
C1049 C1053 1.393 . S
C1050 H1042 0.950 . S
C1050 C1048 1.391 . S
C1050 C1051 1.400 . S
C1051 C1050 1.400 . S
C1051 C1052 1.398 . S
C1051 C1057 1.491 . S
C1052 H1043 0.950 . S
C1052 C1051 1.398 . S
C1052 C1053 1.391 . S
C1053 H1041 0.950 . S
C1053 C1049 1.393 . S
C1053 C1052 1.391 . S
C1054 H1044 0.950 . S
C1054 C1055 1.386 . S
C1054 C1056 1.391 1_655 S
C1055 C1054 1.386 . S
C1055 C1059 1.393 1_655 S
C1056 H1045 0.938 1_455 S
C1056 C1054 1.391 1_455 S
C1056 C1057 1.400 . S
C1057 C1051 1.491 . S
C1057 C1056 1.400 . S
C1057 C1058 1.398 . S
C1058 H1046 0.950 . S
C1058 C1057 1.398 . S
C1058 C1059 1.391 . S
C1059 H1047 0.950 . S
C1059 C1055 1.393 1_455 S
C1059 C1058 1.391 . S
H1060 C1068 0.950 . S
H1061 C1073 0.950 . S
H1062 C1070 0.950 . S
H1063 C1072 0.950 . S
H1064 C1074 0.950 . S
H1065 C1076 0.950 . S
H1066 C1078 0.950 . S
H1067 C1079 0.950 . S
C1068 H1060 0.950 . S
C1068 C1069 1.386 . S
C1068 C1070 1.391 . S
C1069 C1068 1.386 . S
C1069 C1073 1.393 . S
C1070 H1062 0.950 . S
C1070 C1068 1.391 . S
C1070 C1071 1.400 . S
C1071 C1070 1.400 . S
C1071 C1072 1.398 . S
C1071 C1077 1.491 . S
C1072 H1063 0.950 . S
C1072 C1071 1.398 . S
C1072 C1073 1.391 . S
C1073 H1061 0.950 . S
C1073 C1069 1.393 . S
C1073 C1072 1.391 . S
C1074 H1064 0.950 . S
C1074 C1075 1.386 . S
C1074 C1076 1.391 . S
C1075 C1074 1.386 . S
C1075 C1079 1.393 . S
C1076 H1065 0.950 . S
C1076 C1074 1.391 . S
C1076 C1077 1.400 . S
C1077 C1071 1.491 . S
C1077 C1076 1.400 . S
C1077 C1078 1.398 . S
C1078 H1066 0.950 . S
C1078 C1077 1.398 . S
C1078 C1079 1.391 . S
C1079 H1067 0.950 . S
C1079 C1075 1.393 . S
C1079 C1078 1.391 . S
H1080 C1088 0.950 . S
H1081 C1093 0.950 . S
H1082 C1090 0.950 . S
H1083 C1092 0.950 . S
H1084 C1094 0.950 . S
H1085 C1096 0.950 . S
H1086 C1098 0.950 . S
H1087 C1099 0.950 . S
C1088 H1080 0.950 . S
C1088 C1089 1.386 . S
C1088 C1090 1.391 . S
C1089 C1088 1.386 . S
C1089 C1093 1.393 . S
C1090 H1082 0.950 . S
C1090 C1088 1.391 . S
C1090 C1091 1.400 . S
C1091 C1090 1.400 . S
C1091 C1092 1.398 . S
C1091 C1097 1.491 . S
C1092 H1083 0.950 . S
C1092 C1091 1.398 . S
C1092 C1093 1.391 . S
C1093 H1081 0.950 . S
C1093 C1089 1.393 . S
C1093 C1092 1.391 . S
C1094 H1084 0.950 . S
C1094 C1095 1.386 . S
C1094 C1096 1.391 . S
C1095 C1094 1.386 . S
C1095 C1099 1.393 . S
C1096 H1085 0.950 . S
C1096 C1094 1.391 . S
C1096 C1097 1.400 . S
C1097 C1091 1.491 . S
C1097 C1096 1.400 . S
C1097 C1098 1.398 . S
C1098 H1086 0.950 . S
C1098 C1097 1.398 . S
C1098 C1099 1.391 . S
C1099 H1087 0.950 . S
C1099 C1095 1.393 . S
C1099 C1098 1.391 . S
H1100 C1108 0.950 . S
H1101 C1113 0.950 . S
H1102 C1110 0.950 . S
H1103 C1112 0.950 . S
H1104 C1114 0.950 . S
H1105 C1116 0.950 . S
H1106 C1118 0.950 . S
H1107 C1119 0.950 . S
C1108 H1100 0.950 . S
C1108 C1109 1.386 . S
C1108 C1110 1.391 . S
C1109 C1108 1.386 . S
C1109 C1113 1.393 . S
C1110 H1102 0.950 . S
C1110 C1108 1.391 . S
C1110 C1111 1.400 . S
C1111 C1110 1.400 . S
C1111 C1112 1.398 . S
C1111 C1117 1.491 . S
C1112 H1103 0.950 . S
C1112 C1111 1.398 . S
C1112 C1113 1.391 . S
C1113 H1101 0.950 . S
C1113 C1109 1.393 . S
C1113 C1112 1.391 . S
C1114 H1104 0.950 . S
C1114 C1115 1.386 . S
C1114 C1116 1.391 . S
C1115 C1114 1.386 . S
C1115 C1119 1.393 . S
C1116 H1105 0.950 . S
C1116 C1114 1.391 . S
C1116 C1117 1.400 . S
C1117 C1111 1.491 . S
C1117 C1116 1.400 . S
C1117 C1118 1.398 . S
C1118 H1106 0.950 . S
C1118 C1117 1.398 . S
C1118 C1119 1.391 . S
C1119 H1107 0.950 . S
C1119 C1115 1.393 . S
C1119 C1118 1.391 . S
H1120 C1128 0.950 . S
H1121 C1133 0.950 . S
H1122 C1130 0.950 . S
H1123 C1132 0.950 . S
H1124 C1134 0.950 . S
H1125 C1136 0.950 . S
H1126 C1138 0.950 . S
H1127 C1139 0.950 . S
C1128 H1120 0.950 . S
C1128 C1129 1.386 . S
C1128 C1130 1.391 . S
C1129 C1128 1.386 . S
C1129 C1133 1.393 . S
C1130 H1122 0.950 . S
C1130 C1128 1.391 . S
C1130 C1131 1.400 . S
C1131 C1130 1.400 . S
C1131 C1132 1.398 . S
C1131 C1137 1.491 . S
C1132 H1123 0.950 . S
C1132 C1131 1.398 . S
C1132 C1133 1.391 . S
C1133 H1121 0.950 . S
C1133 C1129 1.393 . S
C1133 C1132 1.391 . S
C1134 H1124 0.950 . S
C1134 C1135 1.386 . S
C1134 C1136 1.391 . S
C1135 C1134 1.386 . S
C1135 C1139 1.393 . S
C1136 H1125 0.950 . S
C1136 C1134 1.391 . S
C1136 C1137 1.400 . S
C1137 C1131 1.491 . S
C1137 C1136 1.400 . S
C1137 C1138 1.398 . S
C1138 H1126 0.950 . S
C1138 C1137 1.398 . S
C1138 C1139 1.391 . S
C1139 H1127 0.950 . S
C1139 C1135 1.393 . S
C1139 C1138 1.391 . S
H1140 C1148 0.950 . S
H1141 C1153 0.950 . S
H1142 C1150 0.950 . S
H1143 C1152 0.950 . S
H1144 C1154 0.950 . S
H1145 C1156 0.950 . S
H1146 C1158 0.950 . S
H1147 C1159 0.950 . S
C1148 H1140 0.950 . S
C1148 C1149 1.386 . S
C1148 C1150 1.391 . S
C1149 C1148 1.386 . S
C1149 C1153 1.393 . S
C1150 H1142 0.950 . S
C1150 C1148 1.391 . S
C1150 C1151 1.400 . S
C1151 C1150 1.400 . S
C1151 C1152 1.398 . S
C1151 C1157 1.491 . S
C1152 H1143 0.950 . S
C1152 C1151 1.398 . S
C1152 C1153 1.391 . S
C1153 H1141 0.950 . S
C1153 C1149 1.393 . S
C1153 C1152 1.391 . S
C1154 H1144 0.950 . S
C1154 C1155 1.386 . S
C1154 C1156 1.391 . S
C1155 C1154 1.386 . S
C1155 C1159 1.393 . S
C1156 H1145 0.950 . S
C1156 C1154 1.391 . S
C1156 C1157 1.400 . S
C1157 C1151 1.491 . S
C1157 C1156 1.400 . S
C1157 C1158 1.398 . S
C1158 H1146 0.950 . S
C1158 C1157 1.398 . S
C1158 C1159 1.391 . S
C1159 H1147 0.950 . S
C1159 C1155 1.393 . S
C1159 C1158 1.391 . S
H1160 C1168 0.950 . S
H1161 C1173 0.950 . S
H1162 C1170 0.950 . S
H1163 C1172 0.950 . S
H1164 C1174 0.950 . S
H1165 C1176 0.950 . S
H1166 C1178 0.950 . S
H1167 C1179 0.950 . S
C1168 H1160 0.950 . S
C1168 C1169 1.386 . S
C1168 C1170 1.391 . S
C1169 C1168 1.386 . S
C1169 C1173 1.393 . S
C1170 H1162 0.950 . S
C1170 C1168 1.391 . S
C1170 C1171 1.400 . S
C1171 C1170 1.400 . S
C1171 C1172 1.398 . S
C1171 C1177 1.491 . S
C1172 H1163 0.950 . S
C1172 C1171 1.398 . S
C1172 C1173 1.391 . S
C1173 H1161 0.950 . S
C1173 C1169 1.393 . S
C1173 C1172 1.391 . S
C1174 H1164 0.950 . S
C1174 C1175 1.386 . S
C1174 C1176 1.391 . S
C1175 C1174 1.386 . S
C1175 C1179 1.393 . S
C1176 H1165 0.950 . S
C1176 C1174 1.391 . S
C1176 C1177 1.400 . S
C1177 C1171 1.491 . S
C1177 C1176 1.400 . S
C1177 C1178 1.398 . S
C1178 H1166 0.950 . S
C1178 C1177 1.398 . S
C1178 C1179 1.391 . S
C1179 H1167 0.950 . S
C1179 C1175 1.393 . S
C1179 C1178 1.391 . S
H1180 C1188 0.950 . S
H1181 C1193 0.950 . S
H1182 C1190 0.950 . S
H1183 C1192 0.950 . S
H1184 C1194 0.950 . S
H1185 C1196 0.950 . S
H1186 C1198 0.950 . S
H1187 C1199 0.950 . S
C1188 H1180 0.950 . S
C1188 C1189 1.386 . S
C1188 C1190 1.391 1_554 S
C1189 C1188 1.386 . S
C1189 C1193 1.393 . S
C1190 H1182 0.950 . S
C1190 C1188 1.391 1_556 S
C1190 C1191 1.400 1_556 S
C1191 C1190 1.400 1_554 S
C1191 C1192 1.398 . S
C1191 C1197 1.491 1_454 S
C1192 H1183 0.950 . S
C1192 C1191 1.398 . S
C1192 C1193 1.391 . S
C1193 H1181 0.950 . S
C1193 C1189 1.393 . S
C1193 C1192 1.391 . S
C1194 H1184 0.950 . S
C1194 C1195 1.386 . S
C1194 C1196 1.391 1_556 S
C1195 C1194 1.386 . S
C1195 C1199 1.393 . S
C1196 H1185 0.950 . S
C1196 C1194 1.391 1_554 S
C1196 C1197 1.400 1_554 S
C1197 C1191 1.491 1_656 S
C1197 C1196 1.400 1_556 S
C1197 C1198 1.398 . S
C1198 H1186 0.950 . S
C1198 C1197 1.398 . S
C1198 C1199 1.391 . S
C1199 H1187 0.950 . S
C1199 C1195 1.393 . S
C1199 C1198 1.391 . S
H1200 C1208 0.950 . S
H1201 C1213 0.950 . S
H1202 C1210 0.950 . S
H1203 C1212 0.950 . S
H1204 C1214 0.950 . S
H1205 C1216 0.950 . S
H1206 C1218 0.950 . S
H1207 C1219 0.950 . S
C1208 H1200 0.950 . S
C1208 C1209 1.386 . S
C1208 C1210 1.391 . S
C1209 C1208 1.386 . S
C1209 C1213 1.393 . S
C1210 H1202 0.950 . S
C1210 C1208 1.391 . S
C1210 C1211 1.400 . S
C1211 C1210 1.400 . S
C1211 C1212 1.398 . S
C1211 C1217 1.491 . S
C1212 H1203 0.950 . S
C1212 C1211 1.398 . S
C1212 C1213 1.391 . S
C1213 H1201 0.950 . S
C1213 C1209 1.393 . S
C1213 C1212 1.391 . S
C1214 H1204 0.950 . S
C1214 C1215 1.386 . S
C1214 C1216 1.391 . S
C1215 C1214 1.386 . S
C1215 C1219 1.393 . S
C1216 H1205 0.950 . S
C1216 C1214 1.391 . S
C1216 C1217 1.400 . S
C1217 C1211 1.491 . S
C1217 C1216 1.400 . S
C1217 C1218 1.398 . S
C1218 H1206 0.950 . S
C1218 C1217 1.398 . S
C1218 C1219 1.391 . S
C1219 H1207 0.950 . S
C1219 C1215 1.393 . S
C1219 C1218 1.391 . S
H1220 C1228 0.950 . S
H1221 C1233 0.950 . S
H1222 C1230 0.950 . S
H1223 C1232 0.950 . S
H1224 C1234 0.950 . S
H1225 C1236 0.950 . S
H1226 C1238 0.950 . S
H1227 C1239 0.950 . S
C1228 H1220 0.950 . S
C1228 C1229 1.386 . S
C1228 C1230 1.391 . S
C1229 C1228 1.386 . S
C1229 C1233 1.393 . S
C1230 H1222 0.950 . S
C1230 C1228 1.391 . S
C1230 C1231 1.400 . S
C1231 C1230 1.400 . S
C1231 C1232 1.398 . S
C1231 C1237 1.491 . S
C1232 H1223 0.950 . S
C1232 C1231 1.398 . S
C1232 C1233 1.391 . S
C1233 H1221 0.950 . S
C1233 C1229 1.393 . S
C1233 C1232 1.391 . S
C1234 H1224 0.950 . S
C1234 C1235 1.386 . S
C1234 C1236 1.391 . S
C1235 C1234 1.386 . S
C1235 C1239 1.393 . S
C1236 H1225 0.950 . S
C1236 C1234 1.391 . S
C1236 C1237 1.400 . S
C1237 C1231 1.491 . S
C1237 C1236 1.400 . S
C1237 C1238 1.398 . S
C1238 H1226 0.950 . S
C1238 C1237 1.398 . S
C1238 C1239 1.391 . S
C1239 H1227 0.950 . S
C1239 C1235 1.393 . S
C1239 C1238 1.391 . S
H1240 C1248 0.950 . S
H1241 C1253 0.950 . S
H1242 C1250 0.950 . S
H1243 C1252 0.950 1_565 S
H1244 C1254 0.950 . S
H1245 C1256 0.950 . S
H1246 C1258 0.950 1_545 S
H1247 C1259 0.950 . S
C1248 H1240 0.950 . S
C1248 C1249 1.386 . S
C1248 C1250 1.391 1_556 S
C1249 C1248 1.386 . S
C1249 C1253 1.393 . S
C1250 H1242 0.950 . S
C1250 C1248 1.391 1_554 S
C1250 C1251 1.400 1_554 S
C1251 C1250 1.400 1_556 S
C1251 C1252 1.398 . S
C1251 C1257 1.491 1_446 S
C1252 H1243 0.950 1_545 S
C1252 C1251 1.398 . S
C1252 C1253 1.391 . S
C1253 H1241 0.950 . S
C1253 C1249 1.393 . S
C1253 C1252 1.391 . S
C1254 H1244 0.950 . S
C1254 C1255 1.386 . S
C1254 C1256 1.391 1_554 S
C1255 C1254 1.386 . S
C1255 C1259 1.393 . S
C1256 H1245 0.950 . S
C1256 C1254 1.391 1_556 S
C1256 C1257 1.400 1_556 S
C1257 C1251 1.491 1_664 S
C1257 C1256 1.400 1_554 S
C1257 C1258 1.398 . S
C1258 H1246 0.950 1_565 S
C1258 C1257 1.398 . S
C1258 C1259 1.391 . S
C1259 H1247 0.950 . S
C1259 C1255 1.393 . S
C1259 C1258 1.391 . S
H1260 C1268 0.950 . S
H1261 C1273 0.950 . S
H1262 C1270 0.950 . S
H1263 C1272 0.950 . S
H1264 C1274 0.950 . S
H1265 C1276 0.950 . S
H1266 C1278 0.950 . S
H1267 C1279 0.950 . S
C1268 H1260 0.950 . S
C1268 C1269 1.386 . S
C1268 C1270 1.391 . S
C1269 C1268 1.386 . S
C1269 C1273 1.393 . S
C1270 H1262 0.950 . S
C1270 C1268 1.391 . S
C1270 C1271 1.400 . S
C1271 C1270 1.400 . S
C1271 C1272 1.398 . S
C1271 C1277 1.491 1_545 S
C1272 H1263 0.950 . S
C1272 C1271 1.398 . S
C1272 C1273 1.391 . S
C1273 H1261 0.950 . S
C1273 C1269 1.393 . S
C1273 C1272 1.391 . S
C1274 H1264 0.950 . S
C1274 C1275 1.386 . S
C1274 C1276 1.391 . S
C1275 C1274 1.386 . S
C1275 C1279 1.393 . S
C1276 H1265 0.950 . S
C1276 C1274 1.391 . S
C1276 C1277 1.400 . S
C1277 C1271 1.491 1_565 S
C1277 C1276 1.400 . S
C1277 C1278 1.398 . S
C1278 H1266 0.950 . S
C1278 C1277 1.398 . S
C1278 C1279 1.391 . S
C1279 H1267 0.950 . S
C1279 C1275 1.393 . S
C1279 C1278 1.391 . S
C329 C16 0.745 . S
C335 C216 0.732 . S
C349 C36 0.752 . S
C355 C236 0.765 . S
C369 C56 0.734 . S
C375 C176 0.725 . S
C389 C76 0.768 . S
C395 C196 0.777 . S
C409 C86 0.730 . S
C415 C286 0.723 . S
C429 C106 0.773 . S
C435 C306 0.762 . S
C449 C126 0.760 . S
C455 C246 0.746 . S
C469 C146 0.728 . S
C475 C266 0.739 . S
C489 C181 1.723 . S
C495 C6 1.770 . S
C509 C201 1.714 . S
C515 C26 1.769 . S
C529 C221 1.716 . S
C535 C46 1.770 . S
C549 C161 1.712 . S
C555 C66 1.766 . S
C569 C96 1.762 . S
C575 C269 1.737 . S
C589 C289 1.739 . S
C595 C116 1.756 . S
C609 C309 1.726 . S
C615 C136 1.748 . S
C629 C249 1.711 . S
C635 C156 1.765 . S
C649 C21 1.732 . S
C655 C166 1.767 . S
C669 C186 1.747 . S
C675 C41 1.729 . S
C689 C206 1.770 . S
C695 C61 1.724 . S
C709 C226 1.768 . S
C715 C1 1.730 . S
C729 C256 1.766 . S
C735 C109 1.733 . S
C749 C129 1.724 . S
C755 C276 1.770 . S
C769 C149 1.728 . S
C775 C296 1.769 . S
C789 C316 1.748 . S
C795 C89 1.726 . S
C809 C8 1.501 1_556 S
C815 C301 1.594 . S
C829 C28 1.485 . S
C835 C81 1.591 1_554 S
C849 C261 1.591 . S
C855 C48 1.485 . S
C869 C121 1.592 . S
C875 C68 1.470 . S
C889 C99 1.478 1_554 S
C895 C229 1.594 . S
C909 C119 1.490 . S
C915 C9 1.592 1_556 S
C929 C189 1.592 . S
C935 C139 1.490 . S
C949 C49 1.595 . S
C955 C159 1.483 . S
C969 C168 1.501 . S
C975 C141 1.594 . S
C989 C188 1.469 . S
C995 C241 1.591 . S
C1009 C101 1.591 . S
C1015 C208 1.480 1_556 S
C1029 C281 1.592 1_554 S
C1035 C228 1.469 . S
C1049 C259 1.475 . S
C1055 C69 1.590 . S
C1069 C279 1.502 . S
C1075 C169 1.595 . S
C1089 C299 1.484 1_554 S
C1095 C29 1.591 . S
C1109 C209 1.594 1_556 S
C1115 C319 1.498 . S
C1129 C19 2.117 . S
C1135 C248 2.117 . S
C1149 C39 2.092 . S
C1155 C108 2.092 . S
C1169 C59 2.106 . S
C1175 C288 2.106 . S
C1189 C148 2.118 . S
C1195 C79 2.118 . S
C1209 C88 2.095 . S
C1215 C179 2.095 . S
C1229 C219 2.097 . S
C1235 C128 2.097 . S
C1249 C199 2.095 . S
C1255 C268 2.095 . S
C1269 C308 2.112 . S
C1275 C239 2.112 . S
