# Generated by pormake.
# Topology wlc, (5)-cn, num edge types: 1
# Building blocks:
#     Node 0, Type 0, BuildingBlock: BEQFEK_clean_sbu_0, # of connection points: 5
#     Node 1, Type 0, BuildingBlock: BEQFEK_clean_sbu_0, # of connection points: 5
#     Node 2, Type 0, BuildingBlock: BEQFEK_clean_sbu_0, # of connection points: 5
#     Node 3, Type 0, BuildingBlock: BEQFEK_clean_sbu_0, # of connection points: 5
#     Node 4, Type 0, BuildingBlock: BEQFEK_clean_sbu_0, # of connection points: 5
#     Node 5, Type 0, BuildingBlock: BEQFEK_clean_sbu_0, # of connection points: 5
#     Node 6, Type 0, BuildingBlock: BEQFEK_clean_sbu_0, # of connection points: 5
#     Node 7, Type 0, BuildingBlock: BEQFEK_clean_sbu_0, # of connection points: 5
#     Node 8, Type 0, BuildingBlock: BEQFEK_clean_sbu_0, # of connection points: 5
#     Node 9, Type 0, BuildingBlock: BEQFEK_clean_sbu_0, # of connection points: 5
#     Node 10, Type 0, BuildingBlock: BEQFEK_clean_sbu_0, # of connection points: 5
#     Node 11, Type 0, BuildingBlock: BEQFEK_clean_sbu_0, # of connection points: 5
#     Edge 12, Type (0, 0), BuildingBlock: OJICUG_clean_linker_0, # of connection points: 2
#     Edge 13, Type (0, 0), BuildingBlock: OJICUG_clean_linker_0, # of connection points: 2
#     Edge 14, Type (0, 0), BuildingBlock: OJICUG_clean_linker_0, # of connection points: 2
#     Edge 15, Type (0, 0), BuildingBlock: OJICUG_clean_linker_0, # of connection points: 2
#     Edge 16, Type (0, 0), BuildingBlock: OJICUG_clean_linker_0, # of connection points: 2
#     Edge 17, Type (0, 0), BuildingBlock: OJICUG_clean_linker_0, # of connection points: 2
#     Edge 18, Type (0, 0), BuildingBlock: OJICUG_clean_linker_0, # of connection points: 2
#     Edge 19, Type (0, 0), BuildingBlock: OJICUG_clean_linker_0, # of connection points: 2
#     Edge 20, Type (0, 0), BuildingBlock: OJICUG_clean_linker_0, # of connection points: 2
#     Edge 21, Type (0, 0), BuildingBlock: OJICUG_clean_linker_0, # of connection points: 2
#     Edge 22, Type (0, 0), BuildingBlock: OJICUG_clean_linker_0, # of connection points: 2
#     Edge 23, Type (0, 0), BuildingBlock: OJICUG_clean_linker_0, # of connection points: 2
#     Edge 24, Type (0, 0), BuildingBlock: OJICUG_clean_linker_0, # of connection points: 2
#     Edge 25, Type (0, 0), BuildingBlock: OJICUG_clean_linker_0, # of connection points: 2
#     Edge 26, Type (0, 0), BuildingBlock: OJICUG_clean_linker_0, # of connection points: 2
#     Edge 27, Type (0, 0), BuildingBlock: OJICUG_clean_linker_0, # of connection points: 2
#     Edge 28, Type (0, 0), BuildingBlock: OJICUG_clean_linker_0, # of connection points: 2
#     Edge 29, Type (0, 0), BuildingBlock: OJICUG_clean_linker_0, # of connection points: 2
#     Edge 30, Type (0, 0), BuildingBlock: OJICUG_clean_linker_0, # of connection points: 2
#     Edge 31, Type (0, 0), BuildingBlock: OJICUG_clean_linker_0, # of connection points: 2
#     Edge 32, Type (0, 0), BuildingBlock: OJICUG_clean_linker_0, # of connection points: 2
#     Edge 33, Type (0, 0), BuildingBlock: OJICUG_clean_linker_0, # of connection points: 2
#     Edge 34, Type (0, 0), BuildingBlock: OJICUG_clean_linker_0, # of connection points: 2
#     Edge 35, Type (0, 0), BuildingBlock: OJICUG_clean_linker_0, # of connection points: 2
#     Edge 36, Type (0, 0), BuildingBlock: OJICUG_clean_linker_0, # of connection points: 2
#     Edge 37, Type (0, 0), BuildingBlock: OJICUG_clean_linker_0, # of connection points: 2
#     Edge 38, Type (0, 0), BuildingBlock: OJICUG_clean_linker_0, # of connection points: 2
#     Edge 39, Type (0, 0), BuildingBlock: OJICUG_clean_linker_0, # of connection points: 2
#     Edge 40, Type (0, 0), BuildingBlock: OJICUG_clean_linker_0, # of connection points: 2
#     Edge 41, Type (0, 0), BuildingBlock: OJICUG_clean_linker_0, # of connection points: 2
# Relax obj value: 0.825
# Max RMSD: 0.278
# Mean RMSD: 0.278
data_MOF--net-wlc--node1-BEQFEK_clean_sbu_0--edge1-OJICUG_clean_linker_0
_symmetry_space_group_name_H-M    P1
_symmetry_Int_Tables_number       1
_symmetry_cell_setting            triclinic
loop_
_symmetry_equiv_pos_as_xyz
'x, y, z'
_cell_length_a     34.573437
_cell_length_b     34.537991
_cell_length_c     23.387163
_cell_angle_alpha  90.066198
_cell_angle_beta   89.707999
_cell_angle_gamma 120.12488
loop_
_atom_site_label
_atom_site_type_symbol
_atom_site_fract_x
_atom_site_fract_y
_atom_site_fract_z
_atom_type_partial_charge
Co0 Co 0.0967 0.42028 0.17456 0.0
Co1 Co 0.04088 0.33751 0.10427 0.0
C2 C 0.13437 0.37287 0.14439 0.0
O3 O 0.13928 0.41054 0.13257 0.0
O4 O 0.09643 0.33889 0.13495 0.0
C5 C 0.16713 0.5074 0.19856 0.0
O6 O 0.18037 0.50374 0.14712 0.0
C7 C 0.03979 0.31638 0.98633 0.0
C8 C 0.97708 0.25217 0.97572 0.0
C9 C 0.012 0.28658 0.94524 0.0
N10 N 0.02161 0.30107 0.03805 0.0
N11 N 0.9846 0.2621 0.0318 0.0
C12 C 0.0825 0.35969 0.97731 0.0
H13 H 0.07561 0.38775 0.97695 0.0
H14 H 0.09848 0.35945 0.93612 0.0
H15 H 0.10573 0.3656 0.01316 0.0
C16 C 0.05633 0.46115 0.10384 0.0
N17 N 0.06316 0.42764 0.11966 0.0
N18 N 0.03954 0.39228 0.08764 0.0
C19 C 0.01539 0.40196 0.05102 0.0
C20 C 0.02586 0.44611 0.0594 0.0
C21 C 0.08084 0.50725 0.12869 0.0
H22 H 0.08031 0.50522 0.17604 0.0
H23 H 0.11608 0.52364 0.11408 0.0
H24 H 0.06688 0.52839 0.11501 0.0
O25 O 0.05452 0.3679 0.2249 0.0
O26 O 0.00361 0.31121 0.17167 0.0
H27 H 0.95181 0.3762 0.0093 0.0
H28 H 0.99304 0.37019 0.97004 0.0
C29 C 0.97923 0.36849 0.0133 0.0
H30 H 0.96568 0.33418 0.03054 0.0
H31 H 0.96306 0.24383 0.06527 0.0
O32 O 0.13149 0.47506 0.2194 0.0
C33 C 0.0193 0.32924 0.22011 0.0
Co34 Co 0.5749 0.67678 0.17222 0.0
Co35 Co 0.6586 0.7038 0.1019 0.0
C36 C 0.62763 0.76472 0.14864 0.0
O37 O 0.58823 0.73369 0.13971 0.0
O38 O 0.65953 0.75798 0.1364 0.0
C39 C 0.48698 0.65784 0.19324 0.0
O40 O 0.49152 0.67406 0.1413 0.0
C41 C 0.68531 0.72884 0.98592 0.0
C42 C 0.74573 0.72315 0.97643 0.0
C43 C 0.71473 0.72878 0.94535 0.0
N44 N 0.69739 0.72196 0.03762 0.0
N45 N 0.73425 0.71977 0.03211 0.0
C46 C 0.64502 0.7335 0.97653 0.0
H47 H 0.64087 0.75178 0.01292 0.0
H48 H 0.61462 0.69988 0.97503 0.0
H49 H 0.64807 0.75148 0.93594 0.0
C50 C 0.53367 0.59851 0.09565 0.0
N51 N 0.56714 0.63867 0.11249 0.0
N52 N 0.60289 0.65028 0.08103 0.0
C53 C 0.59332 0.6168 0.04348 0.0
C54 C 0.54878 0.58347 0.05078 0.0
C55 C 0.4897 0.57253 0.1259 0.0
H56 H 0.49381 0.57918 0.17245 0.0
H57 H 0.46649 0.58293 0.10881 0.0
H58 H 0.47473 0.53602 0.1187 0.0
O59 O 0.62464 0.68148 0.22205 0.0
O60 O 0.68167 0.68831 0.16825 0.0
H61 H 0.66006 0.63112 0.02461 0.0
H62 H 0.61678 0.58104 0.99059 0.0
C63 C 0.62684 0.61559 0.00388 0.0
H64 H 0.6296 0.63485 0.96485 0.0
H65 H 0.7496 0.71268 0.06558 0.0
O66 O 0.51931 0.65583 0.21583 0.0
C67 C 0.66268 0.68379 0.2167 0.0
Co68 Co 0.30094 0.87882 0.14609 0.0
Co69 Co 0.28107 0.94463 0.08755 0.0
C70 C 0.21759 0.84669 0.11997 0.0
O71 O 0.24762 0.83795 0.1057 0.0
O72 O 0.22547 0.88652 0.11245 0.0
C73 C 0.32181 0.81047 0.19467 0.0
O74 O 0.29053 0.77618 0.16655 0.0
C75 C 0.26903 0.95648 0.96949 0.0
C76 C 0.26493 0.01807 0.96593 0.0
C77 C 0.26802 0.98681 0.93174 0.0
N78 N 0.26753 0.96947 0.02318 0.0
N79 N 0.26427 0.00596 0.02098 0.0
C80 C 0.27251 0.91607 0.95516 0.0
H81 H 0.25706 0.89065 0.98962 0.0
H82 H 0.30817 0.92556 0.95152 0.0
H83 H 0.25605 0.90163 0.91369 0.0
C84 C 0.38256 0.92053 0.0759 0.0
N85 N 0.34273 0.9147 0.09263 0.0
N86 N 0.33601 0.94524 0.06931 0.0
C87 C 0.37295 0.97337 0.03884 0.0
C88 C 0.40361 0.95839 0.04178 0.0
C89 C 0.39948 0.88959 0.0909 0.0
H90 H 0.37119 0.8549 0.09561 0.0
H91 H 0.42271 0.89026 0.05747 0.0
H92 H 0.41782 0.90044 0.13185 0.0
O93 O 0.29046 0.91786 0.20126 0.0
O94 O 0.29089 0.97653 0.16045 0.0
H95 H 0.35867 0.02717 0.03332 0.0
H96 H 0.41638 0.04295 0.01864 0.0
C97 C 0.3809 0.01644 0.01325 0.0
H98 H 0.37392 0.01175 0.96685 0.0
H99 H 0.26431 0.02402 0.0568 0.0
O100 O 0.32601 0.84898 0.18958 0.0
C101 C 0.28882 0.95405 0.20501 0.0
Co102 Co 0.56566 0.8818 0.33976 0.0
Co103 Co 0.65152 0.94152 0.40571 0.0
C104 C 0.61925 0.84845 0.35646 0.0
O105 O 0.57955 0.83807 0.36844 0.0
O106 O 0.65084 0.88651 0.37232 0.0
C107 C 0.47735 0.81507 0.28935 0.0
O108 O 0.478 0.78029 0.31084 0.0
C109 C 0.68345 0.95712 0.52315 0.0
C110 C 0.74862 0.01923 0.51496 0.0
C111 C 0.71785 0.99048 0.55509 0.0
N112 N 0.69308 0.96642 0.46724 0.0
N113 N 0.73272 0.00289 0.46263 0.0
C114 C 0.63957 0.92019 0.54503 0.0
H115 H 0.61715 0.90101 0.50927 0.0
H116 H 0.62332 0.93405 0.57277 0.0
H117 H 0.64537 0.89688 0.57127 0.0
C118 C 0.52549 0.91703 0.41876 0.0
N119 N 0.55955 0.91157 0.40139 0.0
N120 N 0.59641 0.94011 0.4276 0.0
C121 C 0.58718 0.96671 0.46077 0.0
C122 C 0.54179 0.95288 0.45596 0.0
C123 C 0.47812 0.88856 0.39982 0.0
H124 H 0.47043 0.85368 0.39279 0.0
H125 H 0.45456 0.88859 0.43223 0.0
H126 H 0.47335 0.9022 0.35938 0.0
O127 O 0.61401 0.92689 0.28746 0.0
O128 O 0.67328 0.97803 0.33619 0.0
H129 H 0.61348 0.03526 0.48643 0.0
H130 H 0.62298 0.00122 0.53574 0.0
C131 C 0.62195 0.0083 0.4897 0.0
H132 H 0.65538 0.01983 0.47049 0.0
H133 H 0.74729 0.01854 0.42392 0.0
O134 O 0.50993 0.85438 0.29733 0.0
C135 C 0.65243 0.9625 0.28926 0.0
Co136 Co 0.10275 0.67592 0.31853 0.0
Co137 Co 0.04962 0.70758 0.38966 0.0
C138 C 0.13972 0.76362 0.3373 0.0
O139 O 0.14641 0.73235 0.35159 0.0
O140 O 0.10349 0.76098 0.35374 0.0
C141 C 0.16951 0.65356 0.29968 0.0
O142 O 0.18091 0.6693 0.35181 0.0
C143 C 0.04755 0.73322 0.50535 0.0
C144 C 0.98175 0.7285 0.5132 0.0
C145 C 0.01771 0.73344 0.54521 0.0
N146 N 0.02929 0.72672 0.45325 0.0
N147 N 0.99046 0.72516 0.45778 0.0
C148 C 0.09216 0.73731 0.51567 0.0
H149 H 0.11508 0.75536 0.47946 0.0
H150 H 0.0884 0.70351 0.51763 0.0
H151 H 0.10692 0.75529 0.55626 0.0
C152 C 0.06291 0.59829 0.39602 0.0
N153 N 0.07153 0.63904 0.37891 0.0
N154 N 0.04939 0.65268 0.41101 0.0
C155 C 0.02473 0.6198 0.44921 0.0
C156 C 0.03347 0.58485 0.44168 0.0
C157 C 0.07835 0.57038 0.36535 0.0
H158 H 0.08084 0.57706 0.31877 0.0
H159 H 0.11169 0.57895 0.38179 0.0
H160 H 0.05519 0.53414 0.37285 0.0
O161 O 0.05859 0.68183 0.26868 0.0
O162 O 0.01107 0.6926 0.32299 0.0
H163 H 0.97427 0.63672 0.46874 0.0
H164 H 0.96601 0.58642 0.50374 0.0
C165 C 0.99128 0.62049 0.48943 0.0
H166 H 0.00883 0.63993 0.52784 0.0
H167 H 0.9685 0.71842 0.42384 0.0
O168 O 0.13612 0.65299 0.27627 0.0
C169 C 0.02409 0.68623 0.27447 0.0
Co170 Co 0.32062 0.42403 0.31653 0.0
Co171 Co 0.29077 0.34058 0.38805 0.0
C172 C 0.2343 0.37682 0.34416 0.0
O173 O 0.26718 0.41463 0.35547 0.0
O174 O 0.23748 0.34278 0.35619 0.0
C175 C 0.34053 0.5122 0.293 0.0
O176 O 0.32309 0.50841 0.34414 0.0
C177 C 0.26937 0.3195 0.50576 0.0
C178 C 0.2663 0.25467 0.51714 0.0
C179 C 0.26634 0.28943 0.54719 0.0
N180 N 0.27228 0.304 0.45429 0.0
N181 N 0.26936 0.26466 0.46098 0.0
C182 C 0.27095 0.36326 0.51425 0.0
H183 H 0.30621 0.39085 0.5149 0.0
H184 H 0.25457 0.36336 0.55516 0.0
H185 H 0.25428 0.36963 0.47801 0.0
C186 C 0.4009 0.46301 0.3891 0.0
N187 N 0.36008 0.43032 0.37318 0.0
N188 N 0.34724 0.39472 0.40525 0.0
C189 C 0.38072 0.4034 0.44205 0.0
C190 C 0.41541 0.44716 0.43367 0.0
C191 C 0.42413 0.50903 0.36377 0.0
H192 H 0.42295 0.50686 0.31643 0.0
H193 H 0.4062 0.52643 0.37776 0.0
H194 H 0.45928 0.52933 0.37777 0.0
O195 O 0.31032 0.37148 0.26689 0.0
O196 O 0.30175 0.314 0.32104 0.0
H197 H 0.36103 0.3351 0.46181 0.0
H198 H 0.4171 0.3761 0.48393 0.0
C199 C 0.38223 0.36914 0.47953 0.0
H200 H 0.36983 0.37064 0.52267 0.0
H201 H 0.27246 0.24616 0.4278 0.0
O202 O 0.34287 0.47945 0.27193 0.0
C203 C 0.30558 0.33234 0.27234 0.0
Co204 Co 0.89584 0.57697 0.81866 0.0
Co205 Co 0.9522 0.65947 0.889 0.0
C206 C 0.85881 0.62441 0.84932 0.0
O207 O 0.85391 0.58689 0.86201 0.0
O208 O 0.89672 0.65841 0.85879 0.0
C209 C 0.82539 0.48984 0.795 0.0
O210 O 0.81269 0.49332 0.84685 0.0
C211 C 0.95328 0.68006 0.00702 0.0
C212 C 0.01591 0.74428 0.01807 0.0
C213 C 0.98093 0.70973 0.04829 0.0
N214 N 0.97156 0.6956 0.95542 0.0
N215 N 0.00854 0.73456 0.96193 0.0
C216 C 0.91059 0.63669 0.01578 0.0
H217 H 0.91755 0.60866 0.01597 0.0
H218 H 0.89453 0.63673 0.05698 0.0
H219 H 0.88741 0.63087 0.9799 0.0
C220 C 0.93671 0.53581 0.88804 0.0
N221 N 0.92982 0.56938 0.8727 0.0
N222 N 0.95352 0.6046 0.90492 0.0
C223 C 0.97773 0.59476 0.9412 0.0
C224 C 0.96726 0.55066 0.9324 0.0
C225 C 0.9121 0.48979 0.86297 0.0
H226 H 0.91187 0.49196 0.81568 0.0
H227 H 0.87709 0.4731 0.87854 0.0
H228 H 0.92653 0.46883 0.87558 0.0
O229 O 0.93767 0.62955 0.76834 0.0
O230 O 0.98924 0.68587 0.82145 0.0
H231 H 0.04125 0.62025 0.98302 0.0
H232 H 2e-05 0.62625 0.02235 0.0
C233 C 0.01388 0.62805 0.9791 0.0
H234 H 0.02751 0.66243 0.96205 0.0
H235 H 0.03012 0.753 0.92857 0.0
O236 O 0.86065 0.52238 0.77371 0.0
C237 C 0.97305 0.6681 0.77304 0.0
Co238 Co 0.42123 0.32104 0.81753 0.0
Co239 Co 0.3365 0.29006 0.88845 0.0
C240 C 0.37002 0.23358 0.83682 0.0
O241 O 0.40792 0.26472 0.85161 0.0
O242 O 0.3364 0.23653 0.85217 0.0
C243 C 0.50987 0.3419 0.79981 0.0
O244 O 0.50455 0.32597 0.85203 0.0
C245 C 0.31117 0.26541 0.00486 0.0
C246 C 0.24935 0.26849 0.01488 0.0
C247 C 0.28159 0.26477 0.04576 0.0
N248 N 0.29797 0.2709 0.95316 0.0
N249 N 0.2603 0.27152 0.95902 0.0
C250 C 0.35258 0.26269 0.01391 0.0
H251 H 0.35733 0.24471 0.97762 0.0
H252 H 0.38218 0.29688 0.01488 0.0
H253 H 0.35058 0.24532 0.05467 0.0
C254 C 0.45994 0.39872 0.89438 0.0
N255 N 0.42736 0.3582 0.87729 0.0
N256 N 0.39146 0.34505 0.90907 0.0
C257 C 0.39999 0.37813 0.94691 0.0
C258 C 0.44407 0.41254 0.93967 0.0
C259 C 0.50376 0.42601 0.86419 0.0
H260 H 0.49981 0.41963 0.81757 0.0
H261 H 0.52782 0.41661 0.88091 0.0
H262 H 0.51763 0.46234 0.87182 0.0
O263 O 0.37105 0.31545 0.76781 0.0
O264 O 0.31278 0.3051 0.82207 0.0
H265 H 0.33235 0.36061 0.96635 0.0
H266 H 0.37425 0.41267 -0.00206 0.0
C267 C 0.36584 0.37823 0.98636 0.0
H268 H 0.36477 0.36064 0.0263 0.0
H269 H 0.24399 0.27741 0.92562 0.0
O270 O 0.47778 0.34341 0.77565 0.0
C271 C 0.33223 0.31133 0.77355 0.0
Co272 Co 0.68478 0.11522 0.84252 0.0
Co273 Co 0.70516 0.05027 0.90233 0.0
C274 C 0.76838 0.14834 0.86918 0.0
O275 O 0.7381 0.15705 0.88211 0.0
O276 O 0.76046 0.10853 0.87703 0.0
C277 C 0.6635 0.18275 0.79307 0.0
O278 O 0.69508 0.21712 0.82073 0.0
C279 C 0.71648 0.03983 0.02121 0.0
C280 C 0.72246 0.97939 0.02672 0.0
C281 C 0.71813 0.0104 0.05989 0.0
N282 N 0.71886 0.02661 0.96792 0.0
N283 N 0.72322 0.9908 0.97133 0.0
C284 C 0.71166 0.07965 0.0344 0.0
H285 H 0.72606 0.1045 -0.00083 0.0
H286 H 0.67577 0.06913 0.03867 0.0
H287 H 0.72839 0.09517 0.07535 0.0
C288 C 0.60336 0.07387 0.9132 0.0
N289 N 0.6432 0.07972 0.89643 0.0
N290 N 0.64994 0.04922 0.91978 0.0
C291 C 0.613 0.02103 0.95018 0.0
C292 C 0.58233 0.03598 0.94728 0.0
C293 C 0.58646 0.10486 0.89849 0.0
H294 H 0.61478 0.13942 0.89272 0.0
H295 H 0.56396 0.10473 0.93261 0.0
H296 H 0.56722 0.09353 0.85824 0.0
O297 O 0.69565 0.07589 0.78824 0.0
O298 O 0.69585 0.01781 0.82988 0.0
H299 H 0.5698 0.95126 0.96938 0.0
H300 H 0.61124 0.98235 0.02228 0.0
C301 C 0.60508 0.97795 0.97571 0.0
H302 H 0.62788 0.96766 0.95632 0.0
H303 H 0.72406 0.97271 0.93605 0.0
O304 O 0.6592 0.14421 0.7983 0.0
C305 C 0.6977 0.0399 0.785 0.0
Co306 Co 0.41992 0.11137 0.6487 0.0
Co307 Co 0.3343 0.05161 0.58437 0.0
C308 C 0.36981 0.14765 0.62513 0.0
O309 O 0.40909 0.15577 0.61526 0.0
O310 O 0.3374 0.10872 0.61403 0.0
C311 C 0.50764 0.17829 0.69975 0.0
O312 O 0.50729 0.21292 0.67721 0.0
C313 C 0.30287 0.03587 0.46708 0.0
C314 C 0.23724 0.97425 0.47492 0.0
C315 C 0.26839 0.00281 0.435 0.0
N316 N 0.2929 0.02667 0.52289 0.0
N317 N 0.25302 0.99048 0.52733 0.0
C318 C 0.34719 0.07223 0.44549 0.0
H319 H 0.36959 0.09111 0.48141 0.0
H320 H 0.3631 0.05784 0.41805 0.0
H321 H 0.34212 0.09591 0.419 0.0
C322 C 0.45903 0.07229 0.57398 0.0
N323 N 0.42545 0.07888 0.59019 0.0
N324 N 0.3885 0.05063 0.56392 0.0
C325 C 0.39717 0.02319 0.53168 0.0
C326 C 0.44229 0.03606 0.53734 0.0
C327 C 0.50645 0.10038 0.59297 0.0
H328 H 0.51466 0.13548 0.5994 0.0
H329 H 0.52987 0.0997 0.56087 0.0
H330 H 0.51089 0.08688 0.63374 0.0
O331 O 0.37079 0.06913 0.70236 0.0
O332 O 0.31141 0.01693 0.65492 0.0
H333 H 0.36981 0.95463 0.50537 0.0
H334 H 0.36151 0.98962 0.45623 0.0
C335 C 0.36208 0.98211 0.50221 0.0
H336 H 0.32865 0.97113 0.52108 0.0
H337 H 0.23816 0.97496 0.56599 0.0
O338 O 0.47506 0.13896 0.692 0.0
C339 C 0.33211 0.03384 0.70153 0.0
Co340 Co 0.89027 0.32136 0.67494 0.0
Co341 Co 0.94277 0.28914 0.60392 0.0
C342 C 0.85211 0.23383 0.65523 0.0
O343 O 0.84623 0.26558 0.64085 0.0
O344 O 0.88836 0.23609 0.63974 0.0
C345 C 0.82403 0.34429 0.69352 0.0
O346 O 0.81293 0.32884 0.64123 0.0
C347 C 0.94423 0.2642 0.48772 0.0
C348 C 0.00899 0.26672 0.47941 0.0
C349 C 0.97352 0.26323 0.44762 0.0
N350 N 0.96233 0.26969 0.5398 0.0
N351 N 0.00051 0.26996 0.53497 0.0
C352 C 0.9003 0.2617 0.47761 0.0
H353 H 0.87712 0.24388 0.51369 0.0
H354 H 0.90518 0.29596 0.47611 0.0
H355 H 0.88525 0.24427 0.43683 0.0
C356 C 0.93111 0.39944 0.59825 0.0
N357 N 0.92206 0.35851 0.61515 0.0
N358 N 0.94411 0.34472 0.58315 0.0
C359 C 0.96924 0.3777 0.54531 0.0
C360 C 0.96082 0.41287 0.55287 0.0
C361 C 0.91565 0.42739 0.62876 0.0
H362 H 0.91296 0.42065 0.67533 0.0
H363 H 0.88239 0.41893 0.61213 0.0
H364 H 0.93892 0.46363 0.62137 0.0
O365 O 0.93391 0.31444 0.72481 0.0
O366 O 0.98119 0.30327 0.67054 0.0
H367 H 0.01864 0.35935 0.5256 0.0
H368 H 0.0289 0.41098 0.49247 0.0
C369 C 0.00275 0.37686 0.50536 0.0
H370 H 0.98549 0.35862 0.46613 0.0
H371 H 0.02228 0.27573 0.56885 0.0
O372 O 0.85714 0.34451 0.71728 0.0
C373 C 0.96816 0.30959 0.71908 0.0
Co374 Co 0.6769 0.57234 0.67381 0.0
Co375 Co 0.70506 0.6552 0.60224 0.0
C376 C 0.76256 0.61996 0.64539 0.0
O377 O 0.73 0.58205 0.63368 0.0
O378 O 0.75889 0.65375 0.63356 0.0
C379 C 0.65787 0.48463 0.69912 0.0
O380 O 0.67503 0.48769 0.64795 0.0
C381 C 0.72566 0.67597 0.48442 0.0
C382 C 0.72846 0.74068 0.47306 0.0
C383 C 0.72846 0.70593 0.44303 0.0
N384 N 0.72287 0.69152 0.5359 0.0
N385 N 0.72561 0.73078 0.52922 0.0
C386 C 0.72424 0.63229 0.4759 0.0
H387 H 0.741 0.62599 0.51209 0.0
H388 H 0.68902 0.60461 0.47529 0.0
H389 H 0.74059 0.63224 0.43494 0.0
C390 C 0.59582 0.53216 0.60253 0.0
N391 N 0.63658 0.56526 0.61799 0.0
N392 N 0.64879 0.60066 0.58574 0.0
C393 C 0.61496 0.59142 0.54931 0.0
C394 C 0.58071 0.54752 0.55808 0.0
C395 C 0.57324 0.48624 0.62813 0.0
H396 H 0.57463 0.48859 0.67545 0.0
H397 H 0.59151 0.46917 0.61411 0.0
H398 H 0.53805 0.46555 0.6144 0.0
O399 O 0.6873 0.62496 0.72319 0.0
O400 O 0.69414 0.68181 0.66922 0.0
H401 H 0.63399 0.65946 0.52889 0.0
H402 H 0.57774 0.61799 0.50793 0.0
C403 C 0.61276 0.62524 0.5117 0.0
H404 H 0.62468 0.62346 0.46835 0.0
H405 H 0.72259 0.7493 0.56245 0.0
O406 O 0.65553 0.51761 0.71928 0.0
C407 C 0.69131 0.66379 0.71787 0.0
C408 C 0.00887 0.34287 0.80871 0.0
C409 C 0.98955 0.30651 0.77124 0.0
H410 H 0.03249 0.36557 0.89258 0.0
C411 C 0.98312 0.26485 0.78876 0.0
H412 H 0.01329 0.37503 0.79608 0.0
C413 C 0.99315 0.25892 0.84481 0.0
C414 C 0.01063 0.29485 0.88346 0.0
H415 H 0.9673 0.23617 0.76052 0.0
H416 H 0.98529 0.22584 0.85873 0.0
C417 C 0.01991 0.33727 0.86411 0.0
C418 C 0.74516 0.73459 0.84673 0.0
C419 C 0.70799 0.72111 0.88295 0.0
H420 H 0.76859 0.72733 0.76443 0.0
C421 C 0.66483 0.6936 0.86066 0.0
H422 H 0.77878 0.75534 0.86281 0.0
C423 C 0.65916 0.67747 0.80484 0.0
C424 C 0.69641 0.68909 0.77011 0.0
H425 H 0.63535 0.68132 0.88715 0.0
H426 H 0.62584 0.65381 0.78995 0.0
C427 C 0.73939 0.7188 0.79056 0.0
C428 C 0.27247 0.01522 0.77446 0.0
C429 C 0.31087 0.01433 0.75668 0.0
H430 H 0.229 0.00768 0.84493 0.0
C431 C 0.33293 0.00125 0.79535 0.0
H432 H 0.25564 0.02629 0.74542 0.0
C433 C 0.31737 0.9899 0.85141 0.0
C434 C 0.28007 0.9925 0.8703 0.0
H435 H 0.36313 0.00124 0.78268 0.0
H436 H 0.33621 0.98154 0.88055 0.0
C437 C 0.2575 0.00494 0.83122 0.0
C438 C 0.69882 0.97004 0.65946 0.0
C439 C 0.71581 0.00234 0.61556 0.0
H440 H 0.67994 0.95645 0.74821 0.0
C441 C 0.72879 0.04683 0.62889 0.0
H442 H 0.68949 0.93568 0.65078 0.0
C443 C 0.72316 0.05854 0.68399 0.0
C444 C 0.70486 0.02621 0.72767 0.0
H445 H 0.74196 0.07254 0.59617 0.0
H446 H 0.73299 0.09317 0.69219 0.0
C447 C 0.69364 0.98195 0.71527 0.0
C448 C 0.99068 0.73817 0.64276 0.0
C449 C 0.01564 0.72551 0.60775 0.0
H450 H 0.95815 0.73009 0.72394 0.0
C451 C 0.03148 0.69854 0.63127 0.0
H452 H 0.97763 0.75848 0.62578 0.0
C453 C 0.02019 0.68232 0.68707 0.0
C454 C 0.99335 0.69312 0.7205 0.0
H455 H 0.04958 0.68679 0.6058 0.0
H456 H 0.03025 0.65923 0.70294 0.0
C457 C 0.97966 0.72212 0.69881 0.0
C458 C 0.30957 0.33981 0.62816 0.0
C459 C 0.27577 0.29768 0.60898 0.0
H460 H 0.35423 0.37702 0.69615 0.0
C461 C 0.25639 0.26184 0.64787 0.0
H462 H 0.32599 0.36802 0.5995 0.0
C463 C 0.27211 0.26752 0.704 0.0
C464 C 0.30803 0.30883 0.72136 0.0
H465 H 0.23063 0.22895 0.63408 0.0
H466 H 0.25854 0.23885 0.73242 0.0
C467 C 0.32596 0.34515 0.68364 0.0
C468 C 0.00877 0.73083 0.20506 0.0
C469 C 0.00265 0.68922 0.22232 0.0
H470 H 0.00665 0.76999 0.13526 0.0
C471 C 0.98385 0.65306 0.18452 0.0
H472 H 0.02423 0.75937 0.23354 0.0
C473 C 0.97306 0.65882 0.12906 0.0
C474 C 0.98207 0.70121 0.11002 0.0
H475 H 0.97972 0.62097 0.19695 0.0
H476 H 0.96089 0.6307 0.10033 0.0
C477 C -0.001 0.73692 0.14897 0.0
C478 C 0.25786 0.27578 0.20074 0.0
C479 C 0.30071 0.30698 0.22016 0.0
H480 H 0.21831 0.23739 0.12954 0.0
C481 C 0.3378 0.31943 0.18476 0.0
H482 H 0.22875 0.26648 0.22741 0.0
C483 C 0.33202 0.3025 0.12935 0.0
C484 C 0.28887 0.27351 0.10798 0.0
H485 H 0.371 0.34411 0.1989 0.0
H486 H 0.36131 0.31519 0.10245 0.0
C487 C 0.25194 0.25933 0.14486 0.0
C488 C 0.71387 0.98462 0.21805 0.0
C489 C 0.67397 0.98303 0.23453 0.0
H490 H 0.75888 0.99388 0.14874 0.0
C491 C 0.65092 0.99402 0.19471 0.0
H492 H 0.73158 0.9752 0.24794 0.0
C493 C 0.66691 0.00555 0.13881 0.0
C494 C 0.7056 0.00505 0.12118 0.0
H495 H 0.61964 0.99216 0.20633 0.0
H496 H 0.64739 0.01228 0.10877 0.0
C497 C 0.72924 0.99492 0.16143 0.0
C498 C 0.26364 0.93511 0.30608 0.0
C499 C 0.28179 0.96754 0.2625 0.0
H500 H 0.24476 0.9209 0.39387 0.0
C501 C 0.29283 0.01173 0.27504 0.0
H502 H 0.254 0.90055 0.29778 0.0
C503 C 0.28752 0.02346 0.33085 0.0
C504 C 0.27057 0.99105 0.37459 0.0
H505 H 0.30643 0.0373 0.24218 0.0
H506 H 0.2967 0.05777 0.33969 0.0
C507 C 0.25785 0.94665 0.3612 0.0
C508 C -0.0008 0.25757 0.34954 0.0
C509 C 0.97577 0.27167 0.3852 0.0
H510 H 0.0307 0.26448 0.26783 0.0
C511 C 0.96168 0.30029 0.36246 0.0
H512 H 0.01088 0.23594 0.36593 0.0
C513 C 0.97332 0.31675 0.30681 0.0
C514 C -0.0014 0.30438 0.27265 0.0
H515 H 0.9447 0.31304 0.38843 0.0
H516 H 0.96469 0.34107 0.29155 0.0
C517 C 0.0104 0.27371 0.29353 0.0
C518 C 0.66865 0.65006 0.3068 0.0
C519 C 0.6867 0.68631 0.269 0.0
H520 H 0.66858 0.62733 0.39105 0.0
C521 C 0.72269 0.7276 0.28623 0.0
H522 H 0.64032 0.61821 0.29435 0.0
C523 C 0.73841 0.73336 0.34234 0.0
C524 C 0.71895 0.6976 0.38132 0.0
H525 H 0.73639 0.75619 0.25767 0.0
H526 H 0.76426 0.76623 0.35604 0.0
C527 C 0.68505 0.65546 0.36229 0.0
C528 C 0.0018 0.50193 0.93648 0.0
C529 C 0.98313 0.5246 0.96491 0.0
H530 H 0.02944 0.45869 0.94441 0.0
C531 C 0.97813 0.52095 0.02456 0.0
H532 H 0.00652 0.50475 0.89053 0.0
C533 C 0.99108 0.49459 0.05523 0.0
C534 C 0.00978 0.47196 0.02681 0.0
H535 H 0.96346 0.53783 0.04732 0.0
H536 H 0.98641 0.49182 0.10119 0.0
C537 C 0.01475 0.47556 0.96715 0.0
C538 C 0.53637 0.50811 0.02225 0.0
C539 C 0.52277 0.54012 0.02099 0.0
H540 H 0.52138 0.44215 -0.00233 0.0
C541 C 0.48203 0.52929 0.9949 0.0
H542 H 0.56694 0.51519 0.04362 0.0
C543 C 0.45566 0.48737 0.96953 0.0
C544 C 0.46939 0.45546 0.97055 0.0
H545 H 0.47076 0.55343 0.99392 0.0
H546 H 0.42512 0.48029 0.94806 0.0
C547 C 0.51003 0.46623 -0.00315 0.0
C548 C 0.52819 0.00179 0.02873 0.0
C549 C 0.53641 0.01517 0.97128 0.0
H550 H 0.47992 0.97475 0.09656 0.0
C551 C 0.50076 0.01023 0.93726 0.0
H552 H 0.55517 0.00586 0.05607 0.0
C553 C 0.45775 0.99258 0.96036 0.0
C554 C 0.44953 0.9792 0.0178 0.0
H555 H 0.50601 0.01961 0.89253 0.0
H556 H 0.43078 0.98852 0.93302 0.0
C557 C 0.48519 0.98414 0.05183 0.0
C558 C 0.51802 0.98586 0.53475 0.0
C559 C 0.51721 0.97515 0.47684 0.0
H560 H 0.49339 0.01184 0.59963 0.0
C561 C 0.49097 0.98393 0.43895 0.0
H562 H 0.53752 0.97898 0.56488 0.0
C563 C 0.46563 0.00261 0.45869 0.0
C564 C 0.46647 0.01335 0.5166 0.0
H565 H 0.49033 0.97672 0.3938 0.0
H566 H 0.44622 0.00958 0.42853 0.0
C567 C 0.49268 0.00453 0.5545 0.0
C568 C 0.04318 0.52887 0.4976 0.0
C569 C 0.01446 0.54143 0.47192 0.0
H570 H 0.04868 0.4783 0.5441 0.0
C571 C 0.96834 0.51094 0.47132 0.0
H572 H 0.07895 0.55181 0.49808 0.0
C573 C 0.95118 0.46878 0.49676 0.0
C574 C 0.9799 0.45623 0.52249 0.0
H575 H 0.94568 0.51937 0.45033 0.0
H576 H 0.91541 0.44585 0.49628 0.0
C577 C 0.02602 0.48671 0.52305 0.0
C578 C 0.49705 0.50088 0.55537 0.0
C579 C 0.53826 0.52236 0.52627 0.0
H580 H 0.42572 0.45962 0.54856 0.0
C581 C 0.53894 0.51846 0.46662 0.0
H582 H 0.49571 0.50389 0.60135 0.0
C583 C 0.49908 0.49307 0.43659 0.0
C584 C 0.45784 0.47175 0.46565 0.0
H585 H 0.57038 0.53443 0.44336 0.0
H586 H 0.50043 0.49008 0.39061 0.0
C587 C 0.45717 0.47553 0.52533 0.0
C588 C 0.1899 0.58736 0.19023 0.0
C589 C 0.18449 0.5516 0.22442 0.0
H590 H 0.18848 0.64864 0.18828 0.0
C591 C 0.18597 0.5558 0.2841 0.0
H592 H 0.18924 0.58494 0.14403 0.0
C593 C 0.1878 0.59327 0.30933 0.0
C594 C 0.18586 0.6255 0.27494 0.0
H595 H 0.18221 0.52862 0.31108 0.0
H596 H 0.18555 0.59432 0.35546 0.0
C597 C 0.18954 0.62377 0.21541 0.0
C598 C 0.43695 0.62774 0.2776 0.0
C599 C 0.44234 0.63022 0.21804 0.0
H600 H 0.39763 0.5886 0.34854 0.0
C601 C 0.40765 0.59895 0.18338 0.0
H602 H 0.46323 0.65187 0.30496 0.0
C603 C 0.37145 0.56153 0.20818 0.0
C604 C 0.3686 0.55655 0.26777 0.0
H605 H 0.41085 0.60065 0.13724 0.0
H606 H 0.34754 0.535 0.18087 0.0
C607 C 0.39955 0.59153 0.30238 0.0
C608 C 0.39719 0.84937 0.23629 0.0
C609 C 0.35922 0.80861 0.22186 0.0
H610 H 0.46422 0.88332 0.2632 0.0
C611 C 0.35988 0.76854 0.22966 0.0
H612 H 0.39829 0.88109 0.23142 0.0
C613 C 0.39827 0.76975 0.25172 0.0
C614 C 0.43651 0.81112 0.26424 0.0
H615 H 0.33106 0.73662 0.21873 0.0
H616 H 0.39819 0.73869 0.25838 0.0
C617 C 0.43545 0.85068 0.25519 0.0
C618 C 0.80358 0.37373 0.77779 0.0
C619 C 0.80755 0.37223 0.71828 0.0
H620 H 0.8033 0.41217 0.84927 0.0
C621 C 0.80553 0.40445 0.68395 0.0
H622 H 0.80466 0.34885 0.80486 0.0
C623 C 0.80692 0.44168 0.70928 0.0
C624 C 0.80816 0.44569 0.76899 0.0
H625 H 0.80803 0.40358 0.63784 0.0
H626 H 0.81063 0.46888 0.68238 0.0
C627 C 0.80282 0.40991 0.80305 0.0
C628 C 0.56081 0.36992 0.71617 0.0
C629 C 0.55476 0.36876 0.77557 0.0
H630 H 0.60116 0.40738 0.64494 0.0
C631 C 0.58926 0.40034 0.81013 0.0
H632 H 0.53464 0.34547 0.68895 0.0
C633 C 0.62614 0.43686 0.78497 0.0
C634 C 0.62967 0.44069 0.72527 0.0
H635 H 0.58547 0.39965 0.85617 0.0
H636 H 0.64995 0.46376 0.81192 0.0
C637 C 0.59878 0.40528 0.69114 0.0
C638 C 0.62557 0.22477 0.75783 0.0
C639 C 0.62585 0.18459 0.76659 0.0
H640 H 0.58753 0.25476 0.72853 0.0
C641 C 0.58736 0.1438 0.75378 0.0
H642 H 0.6548 0.25672 0.76753 0.0
C643 C 0.54904 0.14261 0.73545 0.0
C644 C 0.54841 0.18225 0.72514 0.0
H645 H 0.58595 0.11199 0.75941 0.0
H646 H 0.51992 0.10998 0.72864 0.0
C647 C 0.58711 0.22363 0.73618 0.0
C648 C 0.17238 0.33313 0.27302 0.0
C649 C 0.20623 0.37426 0.29483 0.0
H650 H 0.12304 0.29992 0.20758 0.0
C651 C 0.21777 0.41361 0.26414 0.0
H652 H 0.16317 0.3021 0.29508 0.0
C653 C 0.19678 0.41212 0.21309 0.0
C654 C 0.162 0.37146 0.19187 0.0
H655 H 0.24392 0.44597 0.27876 0.0
H656 H 0.20707 0.44347 0.19123 0.0
C657 C 0.15008 0.33178 0.22228 0.0
C658 C 0.59453 0.822 0.25733 0.0
C659 C 0.62558 0.8311 0.3013 0.0
H660 H 0.57243 0.79641 0.17345 0.0
C661 C 0.6627 0.82598 0.28998 0.0
H662 H 0.56657 0.82737 0.26347 0.0
C663 C 0.66627 0.80825 0.23731 0.0
C664 C 0.63314 0.79623 0.19505 0.0
H665 H 0.68775 0.83384 0.32252 0.0
H666 H 0.69326 0.80128 0.23123 0.0
C667 C 0.59839 0.80515 0.20499 0.0
C668 C 0.19184 0.78421 0.18988 0.0
C669 C 0.19007 0.82179 0.17061 0.0
H670 H 0.18112 0.73931 0.25783 0.0
C671 C 0.17009 0.83979 0.20653 0.0
H672 H 0.20665 0.7691 0.16373 0.0
C673 C 0.15397 0.82151 0.26111 0.0
C674 C 0.15856 0.78567 0.28133 0.0
H675 H 0.16847 0.86902 0.19349 0.0
H676 H 0.13884 0.83596 0.28789 0.0
C677 C 0.17745 0.76726 0.24461 0.0
C678 C 0.79865 0.5847 0.77776 0.0
C679 C 0.83219 0.6255 0.80034 0.0
H680 H 0.7536 0.55074 0.71014 0.0
C681 C 0.84399 0.66527 0.77021 0.0
H682 H 0.78845 0.55328 0.79936 0.0
C683 C 0.82268 0.66389 0.71856 0.0
C684 C 0.79 0.62265 0.69553 0.0
H685 H 0.87009 0.69726 0.78596 0.0
H686 H 0.83165 0.69498 0.69683 0.0
C687 C 0.77876 0.5832 0.72578 0.0
C688 C 0.32662 0.15504 0.70812 0.0
C689 C 0.36503 0.17348 0.67278 0.0
H690 H 0.29791 0.15934 0.78827 0.0
C691 C 0.40341 0.2125 0.69108 0.0
H692 H 0.29654 0.12467 0.69576 0.0
C693 C 0.40494 0.23028 0.74485 0.0
C694 C 0.36744 0.2113 0.78136 0.0
H695 H 0.43359 0.22791 0.66524 0.0
H696 H 0.43604 0.25908 0.75764 0.0
C697 C 0.32767 0.17423 0.76167 0.0
C698 C 0.81211 0.22928 0.74626 0.0
C699 C 0.83183 0.21117 0.71044 0.0
H700 H 0.7808 0.22657 0.82576 0.0
C701 C 0.8357 0.17498 0.73093 0.0
H702 H 0.80891 0.25745 0.73281 0.0
C703 C 0.81811 0.15608 0.78484 0.0
C704 C 0.79734 0.17381 0.8198 0.0
H705 H 0.85142 0.16074 0.70488 0.0
H706 H 0.81922 0.12662 0.79803 0.0
C707 C 0.79624 0.2117 0.80036 0.0
loop_
_geom_bond_atom_site_label_1
_geom_bond_atom_site_label_2
_geom_bond_distance
_geom_bond_site_symmetry_2
_ccdc_geom_bond_type
Co0 O3 1.970 . S
Co0 N17 1.989 . S
Co0 O25 1.967 . S
Co0 O32 1.920 . S
Co1 O4 1.966 . S
Co1 N10 2.022 . S
Co1 N18 1.993 . S
Co1 O26 1.941 . S
C2 O3 1.258 . S
C2 O4 1.263 . S
O3 Co0 1.970 . S
O3 C2 1.258 . S
O4 Co1 1.966 . S
O4 C2 1.263 . S
C5 O6 1.235 . S
C5 O32 1.289 . S
O6 C5 1.235 . S
C7 C9 1.400 . S
C7 N10 1.351 1_556 S
C7 C12 1.501 . S
C8 C9 1.387 1_655 S
C8 N11 1.341 . S
C9 C7 1.400 . S
C9 C8 1.387 1_455 S
N10 Co1 2.022 . S
N10 C7 1.351 1_554 S
N10 N11 1.365 1_454 S
N11 C8 1.341 . S
N11 N10 1.365 1_656 S
N11 H31 0.862 1_556 S
C12 C7 1.501 . S
C12 H13 0.961 1_556 S
C12 H14 0.961 . S
C12 H15 0.960 . S
H13 C12 0.961 1_554 S
H14 C12 0.961 . S
H15 C12 0.960 . S
C16 N17 1.342 . S
C16 C20 1.401 . S
C16 C21 1.499 . S
N17 Co0 1.989 . S
N17 C16 1.342 . S
N17 N18 1.388 . S
N18 Co1 1.993 . S
N18 N17 1.388 . S
N18 C19 1.346 . S
C19 N18 1.346 . S
C19 C20 1.396 . S
C19 C29 1.510 1_554 S
C20 C16 1.401 . S
C20 C19 1.396 . S
C21 C16 1.499 . S
C21 H22 0.959 . S
C21 H23 0.960 . S
C21 H24 0.961 . S
H22 C21 0.959 . S
H23 C21 0.960 . S
H24 C21 0.961 . S
O25 Co0 1.967 . S
O25 C33 1.258 . S
O26 Co1 1.941 . S
O26 C33 1.266 . S
H27 C29 0.959 1_655 S
H28 C29 0.961 . S
C29 C19 1.510 1_556 S
C29 H27 0.959 1_455 S
C29 H28 0.961 . S
C29 H30 0.960 . S
H30 C29 0.960 . S
H31 N11 0.862 1_554 S
O32 Co0 1.920 . S
O32 C5 1.289 . S
C33 O25 1.258 . S
C33 O26 1.266 . S
Co34 O37 1.970 . S
Co34 N51 1.989 . S
Co34 O59 1.967 . S
Co34 O66 1.920 . S
Co35 O38 1.966 . S
Co35 N44 2.022 . S
Co35 N52 1.993 . S
Co35 O60 1.941 . S
C36 O37 1.258 . S
C36 O38 1.263 . S
O37 Co34 1.970 . S
O37 C36 1.258 . S
O38 Co35 1.966 . S
O38 C36 1.263 . S
C39 O40 1.235 . S
C39 O66 1.289 . S
O40 C39 1.235 . S
C41 C43 1.400 . S
C41 N44 1.351 1_556 S
C41 C46 1.501 . S
C42 C43 1.387 . S
C42 N45 1.341 . S
C43 C41 1.400 . S
C43 C42 1.387 . S
N44 Co35 2.022 . S
N44 C41 1.351 1_554 S
N44 N45 1.365 1_554 S
N45 C42 1.341 . S
N45 N44 1.365 1_556 S
N45 H65 0.862 1_556 S
C46 C41 1.501 . S
C46 H47 0.961 1_556 S
C46 H48 0.961 . S
C46 H49 0.960 . S
H47 C46 0.961 1_554 S
H48 C46 0.961 . S
H49 C46 0.960 . S
C50 N51 1.342 . S
C50 C54 1.401 . S
C50 C55 1.499 . S
N51 Co34 1.989 . S
N51 C50 1.342 . S
N51 N52 1.388 . S
N52 Co35 1.993 . S
N52 N51 1.388 . S
N52 C53 1.346 . S
C53 N52 1.346 . S
C53 C54 1.396 . S
C53 C63 1.510 1_554 S
C54 C50 1.401 . S
C54 C53 1.396 . S
C55 C50 1.499 . S
C55 H56 0.959 . S
C55 H57 0.960 . S
C55 H58 0.961 . S
H56 C55 0.959 . S
H57 C55 0.960 . S
H58 C55 0.961 . S
O59 Co34 1.967 . S
O59 C67 1.258 . S
O60 Co35 1.941 . S
O60 C67 1.266 . S
H61 C63 0.959 . S
H62 C63 0.961 . S
C63 C53 1.510 1_556 S
C63 H61 0.959 . S
C63 H62 0.961 . S
C63 H64 0.960 . S
H64 C63 0.960 . S
H65 N45 0.862 1_554 S
O66 Co34 1.920 . S
O66 C39 1.289 . S
C67 O59 1.258 . S
C67 O60 1.266 . S
Co68 O71 1.970 . S
Co68 N85 1.989 . S
Co68 O93 1.967 . S
Co68 O100 1.920 . S
Co69 O72 1.966 . S
Co69 N78 2.022 . S
Co69 N86 1.993 . S
Co69 O94 1.941 . S
C70 O71 1.258 . S
C70 O72 1.263 . S
O71 Co68 1.970 . S
O71 C70 1.258 . S
O72 Co69 1.966 . S
O72 C70 1.263 . S
C73 O74 1.235 . S
C73 O100 1.289 . S
O74 C73 1.235 . S
C75 C77 1.400 . S
C75 N78 1.351 1_556 S
C75 C80 1.501 . S
C76 C77 1.387 1_545 S
C76 N79 1.341 . S
C77 C75 1.400 . S
C77 C76 1.387 1_565 S
N78 Co69 2.022 . S
N78 C75 1.351 1_554 S
N78 N79 1.365 1_564 S
N79 C76 1.341 . S
N79 N78 1.365 1_546 S
N79 H99 0.862 1_556 S
C80 C75 1.501 . S
C80 H81 0.961 1_556 S
C80 H82 0.961 . S
C80 H83 0.960 . S
H81 C80 0.961 1_554 S
H82 C80 0.961 . S
H83 C80 0.960 . S
C84 N85 1.342 . S
C84 C88 1.401 . S
C84 C89 1.499 . S
N85 Co68 1.989 . S
N85 C84 1.342 . S
N85 N86 1.388 . S
N86 Co69 1.993 . S
N86 N85 1.388 . S
N86 C87 1.346 . S
C87 N86 1.346 . S
C87 C88 1.396 . S
C87 C97 1.510 1_554 S
C88 C84 1.401 . S
C88 C87 1.396 . S
C89 C84 1.499 . S
C89 H90 0.959 . S
C89 H91 0.960 . S
C89 H92 0.961 . S
H90 C89 0.959 . S
H91 C89 0.960 . S
H92 C89 0.961 . S
O93 Co68 1.967 . S
O93 C101 1.258 . S
O94 Co69 1.941 . S
O94 C101 1.266 . S
H95 C97 0.959 1_545 S
H96 C97 0.961 . S
C97 C87 1.510 1_556 S
C97 H95 0.959 1_565 S
C97 H96 0.961 . S
C97 H98 0.960 . S
H98 C97 0.960 . S
H99 N79 0.862 1_554 S
O100 Co68 1.920 . S
O100 C73 1.289 . S
C101 O93 1.258 . S
C101 O94 1.266 . S
Co102 O105 1.970 . S
Co102 N119 1.989 . S
Co102 O127 1.967 . S
Co102 O134 1.920 . S
Co103 O106 1.966 . S
Co103 N112 2.022 . S
Co103 N120 1.993 . S
Co103 O128 1.941 . S
C104 O105 1.258 . S
C104 O106 1.263 . S
O105 Co102 1.970 . S
O105 C104 1.258 . S
O106 Co103 1.966 . S
O106 C104 1.263 . S
C107 O108 1.235 . S
C107 O134 1.289 . S
O108 C107 1.235 . S
C109 C111 1.400 . S
C109 N112 1.351 . S
C109 C114 1.501 . S
C110 C111 1.387 1_545 S
C110 N113 1.341 . S
C111 C109 1.400 . S
C111 C110 1.387 1_565 S
N112 Co103 2.022 . S
N112 C109 1.351 . S
N112 N113 1.365 1_565 S
N113 C110 1.341 . S
N113 N112 1.365 1_545 S
N113 H133 0.862 . S
C114 C109 1.501 . S
C114 H115 0.961 . S
C114 H116 0.961 . S
C114 H117 0.960 . S
H115 C114 0.961 . S
H116 C114 0.961 . S
H117 C114 0.960 . S
C118 N119 1.342 . S
C118 C122 1.401 . S
C118 C123 1.499 . S
N119 Co102 1.989 . S
N119 C118 1.342 . S
N119 N120 1.388 . S
N120 Co103 1.993 . S
N120 N119 1.388 . S
N120 C121 1.346 . S
C121 N120 1.346 . S
C121 C122 1.396 . S
C121 C131 1.510 . S
C122 C118 1.401 . S
C122 C121 1.396 . S
C123 C118 1.499 . S
C123 H124 0.959 . S
C123 H125 0.960 . S
C123 H126 0.961 . S
H124 C123 0.959 . S
H125 C123 0.960 . S
H126 C123 0.961 . S
O127 Co102 1.967 . S
O127 C135 1.258 . S
O128 Co103 1.941 . S
O128 C135 1.266 . S
H129 C131 0.959 1_545 S
H130 C131 0.961 . S
C131 C121 1.510 . S
C131 H129 0.959 1_565 S
C131 H130 0.961 . S
C131 H132 0.960 . S
H132 C131 0.960 . S
H133 N113 0.862 . S
O134 Co102 1.920 . S
O134 C107 1.289 . S
C135 O127 1.258 . S
C135 O128 1.266 . S
Co136 O139 1.970 . S
Co136 N153 1.989 . S
Co136 O161 1.967 . S
Co136 O168 1.920 . S
Co137 O140 1.966 . S
Co137 N146 2.022 . S
Co137 N154 1.993 . S
Co137 O162 1.941 . S
C138 O139 1.258 . S
C138 O140 1.263 . S
O139 Co136 1.970 . S
O139 C138 1.258 . S
O140 Co137 1.966 . S
O140 C138 1.263 . S
C141 O142 1.235 . S
C141 O168 1.289 . S
O142 C141 1.235 . S
C143 C145 1.400 . S
C143 N146 1.351 . S
C143 C148 1.501 . S
C144 C145 1.387 1_655 S
C144 N147 1.341 . S
C145 C143 1.400 . S
C145 C144 1.387 1_455 S
N146 Co137 2.022 . S
N146 C143 1.351 . S
N146 N147 1.365 1_455 S
N147 C144 1.341 . S
N147 N146 1.365 1_655 S
N147 H167 0.862 . S
C148 C143 1.501 . S
C148 H149 0.961 . S
C148 H150 0.961 . S
C148 H151 0.960 . S
H149 C148 0.961 . S
H150 C148 0.961 . S
H151 C148 0.960 . S
C152 N153 1.342 . S
C152 C156 1.401 . S
C152 C157 1.499 . S
N153 Co136 1.989 . S
N153 C152 1.342 . S
N153 N154 1.388 . S
N154 Co137 1.993 . S
N154 N153 1.388 . S
N154 C155 1.346 . S
C155 N154 1.346 . S
C155 C156 1.396 . S
C155 C165 1.510 . S
C156 C152 1.401 . S
C156 C155 1.396 . S
C157 C152 1.499 . S
C157 H158 0.959 . S
C157 H159 0.960 . S
C157 H160 0.961 . S
H158 C157 0.959 . S
H159 C157 0.960 . S
H160 C157 0.961 . S
O161 Co136 1.967 . S
O161 C169 1.258 . S
O162 Co137 1.941 . S
O162 C169 1.266 . S
H163 C165 0.959 1_655 S
H164 C165 0.961 . S
C165 C155 1.510 . S
C165 H163 0.959 1_455 S
C165 H164 0.961 . S
C165 H166 0.960 . S
H166 C165 0.960 . S
H167 N147 0.862 . S
O168 Co136 1.920 . S
O168 C141 1.289 . S
C169 O161 1.258 . S
C169 O162 1.266 . S
Co170 O173 1.970 . S
Co170 N187 1.989 . S
Co170 O195 1.967 . S
Co170 O202 1.920 . S
Co171 O174 1.966 . S
Co171 N180 2.022 . S
Co171 N188 1.993 . S
Co171 O196 1.941 . S
C172 O173 1.258 . S
C172 O174 1.263 . S
O173 Co170 1.970 . S
O173 C172 1.258 . S
O174 Co171 1.966 . S
O174 C172 1.263 . S
C175 O176 1.235 . S
C175 O202 1.289 . S
O176 C175 1.235 . S
C177 C179 1.400 . S
C177 N180 1.351 . S
C177 C182 1.501 . S
C178 C179 1.387 . S
C178 N181 1.341 . S
C179 C177 1.400 . S
C179 C178 1.387 . S
N180 Co171 2.022 . S
N180 C177 1.351 . S
N180 N181 1.365 . S
N181 C178 1.341 . S
N181 N180 1.365 . S
N181 H201 0.862 . S
C182 C177 1.501 . S
C182 H183 0.961 . S
C182 H184 0.961 . S
C182 H185 0.960 . S
H183 C182 0.961 . S
H184 C182 0.961 . S
H185 C182 0.960 . S
C186 N187 1.342 . S
C186 C190 1.401 . S
C186 C191 1.499 . S
N187 Co170 1.989 . S
N187 C186 1.342 . S
N187 N188 1.388 . S
N188 Co171 1.993 . S
N188 N187 1.388 . S
N188 C189 1.346 . S
C189 N188 1.346 . S
C189 C190 1.396 . S
C189 C199 1.510 . S
C190 C186 1.401 . S
C190 C189 1.396 . S
C191 C186 1.499 . S
C191 H192 0.959 . S
C191 H193 0.960 . S
C191 H194 0.961 . S
H192 C191 0.959 . S
H193 C191 0.960 . S
H194 C191 0.961 . S
O195 Co170 1.967 . S
O195 C203 1.258 . S
O196 Co171 1.941 . S
O196 C203 1.266 . S
H197 C199 0.959 . S
H198 C199 0.961 . S
C199 C189 1.510 . S
C199 H197 0.959 . S
C199 H198 0.961 . S
C199 H200 0.960 . S
H200 C199 0.960 . S
H201 N181 0.862 . S
O202 Co170 1.920 . S
O202 C175 1.289 . S
C203 O195 1.258 . S
C203 O196 1.266 . S
Co204 O207 1.970 . S
Co204 N221 1.989 . S
Co204 O229 1.967 . S
Co204 O236 1.920 . S
Co205 O208 1.966 . S
Co205 N214 2.022 . S
Co205 N222 1.993 . S
Co205 O230 1.941 . S
C206 O207 1.258 . S
C206 O208 1.263 . S
O207 Co204 1.970 . S
O207 C206 1.258 . S
O208 Co205 1.966 . S
O208 C206 1.263 . S
C209 O210 1.235 . S
C209 O236 1.289 . S
O210 C209 1.235 . S
C211 C213 1.400 . S
C211 N214 1.351 1_554 S
C211 C216 1.501 . S
C212 C213 1.387 1_455 S
C212 N215 1.341 . S
C213 C211 1.400 . S
C213 C212 1.387 1_655 S
N214 Co205 2.022 . S
N214 C211 1.351 1_556 S
N214 N215 1.365 1_656 S
N215 C212 1.341 . S
N215 N214 1.365 1_454 S
N215 H235 0.862 1_554 S
C216 C211 1.501 . S
C216 H217 0.961 1_554 S
C216 H218 0.961 . S
C216 H219 0.960 . S
H217 C216 0.961 1_556 S
H218 C216 0.961 . S
H219 C216 0.960 . S
C220 N221 1.342 . S
C220 C224 1.401 . S
C220 C225 1.499 . S
N221 Co204 1.989 . S
N221 C220 1.342 . S
N221 N222 1.388 . S
N222 Co205 1.993 . S
N222 N221 1.388 . S
N222 C223 1.346 . S
C223 N222 1.346 . S
C223 C224 1.396 . S
C223 C233 1.510 1_556 S
C224 C220 1.401 . S
C224 C223 1.396 . S
C225 C220 1.499 . S
C225 H226 0.959 . S
C225 H227 0.960 . S
C225 H228 0.961 . S
H226 C225 0.959 . S
H227 C225 0.960 . S
H228 C225 0.961 . S
O229 Co204 1.967 . S
O229 C237 1.258 . S
O230 Co205 1.941 . S
O230 C237 1.266 . S
H231 C233 0.959 1_455 S
H232 C233 0.961 . S
C233 C223 1.510 1_554 S
C233 H231 0.959 1_655 S
C233 H232 0.961 . S
C233 H234 0.960 . S
H234 C233 0.960 . S
H235 N215 0.862 1_556 S
O236 Co204 1.920 . S
O236 C209 1.289 . S
C237 O229 1.258 . S
C237 O230 1.266 . S
Co238 O241 1.970 . S
Co238 N255 1.989 . S
Co238 O263 1.967 . S
Co238 O270 1.920 . S
Co239 O242 1.966 . S
Co239 N248 2.022 . S
Co239 N256 1.993 . S
Co239 O264 1.941 . S
C240 O241 1.258 . S
C240 O242 1.263 . S
O241 Co238 1.970 . S
O241 C240 1.258 . S
O242 Co239 1.966 . S
O242 C240 1.263 . S
C243 O244 1.235 . S
C243 O270 1.289 . S
O244 C243 1.235 . S
C245 C247 1.400 . S
C245 N248 1.351 1_554 S
C245 C250 1.501 . S
C246 C247 1.387 . S
C246 N249 1.341 . S
C247 C245 1.400 . S
C247 C246 1.387 . S
N248 Co239 2.022 . S
N248 C245 1.351 1_556 S
N248 N249 1.365 1_556 S
N249 C246 1.341 . S
N249 N248 1.365 1_554 S
N249 H269 0.862 1_554 S
C250 C245 1.501 . S
C250 H251 0.961 1_554 S
C250 H252 0.961 . S
C250 H253 0.960 . S
H251 C250 0.961 1_556 S
H252 C250 0.961 . S
H253 C250 0.960 . S
C254 N255 1.342 . S
C254 C258 1.401 . S
C254 C259 1.499 . S
N255 Co238 1.989 . S
N255 C254 1.342 . S
N255 N256 1.388 . S
N256 Co239 1.993 . S
N256 N255 1.388 . S
N256 C257 1.346 . S
C257 N256 1.346 . S
C257 C258 1.396 . S
C257 C267 1.510 1_556 S
C258 C254 1.401 . S
C258 C257 1.396 . S
C259 C254 1.499 . S
C259 H260 0.959 . S
C259 H261 0.960 . S
C259 H262 0.961 . S
H260 C259 0.959 . S
H261 C259 0.960 . S
H262 C259 0.961 . S
O263 Co238 1.967 . S
O263 C271 1.258 . S
O264 Co239 1.941 . S
O264 C271 1.266 . S
H265 C267 0.959 . S
H266 C267 0.961 . S
C267 C257 1.510 1_554 S
C267 H265 0.959 . S
C267 H266 0.961 . S
C267 H268 0.960 . S
H268 C267 0.960 . S
H269 N249 0.862 1_556 S
O270 Co238 1.920 . S
O270 C243 1.289 . S
C271 O263 1.258 . S
C271 O264 1.266 . S
Co272 O275 1.970 . S
Co272 N289 1.989 . S
Co272 O297 1.967 . S
Co272 O304 1.920 . S
Co273 O276 1.966 . S
Co273 N282 2.022 . S
Co273 N290 1.993 . S
Co273 O298 1.941 . S
C274 O275 1.258 . S
C274 O276 1.263 . S
O275 Co272 1.970 . S
O275 C274 1.258 . S
O276 Co273 1.966 . S
O276 C274 1.263 . S
C277 O278 1.235 . S
C277 O304 1.289 . S
O278 C277 1.235 . S
C279 C281 1.400 . S
C279 N282 1.351 1_554 S
C279 C284 1.501 . S
C280 C281 1.387 1_565 S
C280 N283 1.341 . S
C281 C279 1.400 . S
C281 C280 1.387 1_545 S
N282 Co273 2.022 . S
N282 C279 1.351 1_556 S
N282 N283 1.365 1_546 S
N283 C280 1.341 . S
N283 N282 1.365 1_564 S
N283 H303 0.862 1_554 S
C284 C279 1.501 . S
C284 H285 0.961 1_554 S
C284 H286 0.961 . S
C284 H287 0.960 . S
H285 C284 0.961 1_556 S
H286 C284 0.961 . S
H287 C284 0.960 . S
C288 N289 1.342 . S
C288 C292 1.401 . S
C288 C293 1.499 . S
N289 Co272 1.989 . S
N289 C288 1.342 . S
N289 N290 1.388 . S
N290 Co273 1.993 . S
N290 N289 1.388 . S
N290 C291 1.346 . S
C291 N290 1.346 . S
C291 C292 1.396 . S
C291 C301 1.510 1_556 S
C292 C288 1.401 . S
C292 C291 1.396 . S
C293 C288 1.499 . S
C293 H294 0.959 . S
C293 H295 0.960 . S
C293 H296 0.961 . S
H294 C293 0.959 . S
H295 C293 0.960 . S
H296 C293 0.961 . S
O297 Co272 1.967 . S
O297 C305 1.258 . S
O298 Co273 1.941 . S
O298 C305 1.266 . S
H299 C301 0.959 1_565 S
H300 C301 0.961 . S
C301 C291 1.510 1_554 S
C301 H299 0.959 1_545 S
C301 H300 0.961 . S
C301 H302 0.960 . S
H302 C301 0.960 . S
H303 N283 0.862 1_556 S
O304 Co272 1.920 . S
O304 C277 1.289 . S
C305 O297 1.258 . S
C305 O298 1.266 . S
Co306 O309 1.970 . S
Co306 N323 1.989 . S
Co306 O331 1.967 . S
Co306 O338 1.920 . S
Co307 O310 1.966 . S
Co307 N316 2.022 . S
Co307 N324 1.993 . S
Co307 O332 1.941 . S
C308 O309 1.258 . S
C308 O310 1.263 . S
O309 Co306 1.970 . S
O309 C308 1.258 . S
O310 Co307 1.966 . S
O310 C308 1.263 . S
C311 O312 1.235 . S
C311 O338 1.289 . S
O312 C311 1.235 . S
C313 C315 1.400 . S
C313 N316 1.351 . S
C313 C318 1.501 . S
C314 C315 1.387 1_565 S
C314 N317 1.341 . S
C315 C313 1.400 . S
C315 C314 1.387 1_545 S
N316 Co307 2.022 . S
N316 C313 1.351 . S
N316 N317 1.365 1_545 S
N317 C314 1.341 . S
N317 N316 1.365 1_565 S
N317 H337 0.862 . S
C318 C313 1.501 . S
C318 H319 0.961 . S
C318 H320 0.961 . S
C318 H321 0.960 . S
H319 C318 0.961 . S
H320 C318 0.961 . S
H321 C318 0.960 . S
C322 N323 1.342 . S
C322 C326 1.401 . S
C322 C327 1.499 . S
N323 Co306 1.989 . S
N323 C322 1.342 . S
N323 N324 1.388 . S
N324 Co307 1.993 . S
N324 N323 1.388 . S
N324 C325 1.346 . S
C325 N324 1.346 . S
C325 C326 1.396 . S
C325 C335 1.510 . S
C326 C322 1.401 . S
C326 C325 1.396 . S
C327 C322 1.499 . S
C327 H328 0.959 . S
C327 H329 0.960 . S
C327 H330 0.961 . S
H328 C327 0.959 . S
H329 C327 0.960 . S
H330 C327 0.961 . S
O331 Co306 1.967 . S
O331 C339 1.258 . S
O332 Co307 1.941 . S
O332 C339 1.266 . S
H333 C335 0.959 1_565 S
H334 C335 0.961 . S
C335 C325 1.510 . S
C335 H333 0.959 1_545 S
C335 H334 0.961 . S
C335 H336 0.960 . S
H336 C335 0.960 . S
H337 N317 0.862 . S
O338 Co306 1.920 . S
O338 C311 1.289 . S
C339 O331 1.258 . S
C339 O332 1.266 . S
Co340 O343 1.970 . S
Co340 N357 1.989 . S
Co340 O365 1.967 . S
Co340 O372 1.920 . S
Co341 O344 1.966 . S
Co341 N350 2.022 . S
Co341 N358 1.993 . S
Co341 O366 1.941 . S
C342 O343 1.258 . S
C342 O344 1.263 . S
O343 Co340 1.970 . S
O343 C342 1.258 . S
O344 Co341 1.966 . S
O344 C342 1.263 . S
C345 O346 1.235 . S
C345 O372 1.289 . S
O346 C345 1.235 . S
C347 C349 1.400 . S
C347 N350 1.351 . S
C347 C352 1.501 . S
C348 C349 1.387 1_455 S
C348 N351 1.341 . S
C349 C347 1.400 . S
C349 C348 1.387 1_655 S
N350 Co341 2.022 . S
N350 C347 1.351 . S
N350 N351 1.365 1_655 S
N351 C348 1.341 . S
N351 N350 1.365 1_455 S
N351 H371 0.862 . S
C352 C347 1.501 . S
C352 H353 0.961 . S
C352 H354 0.961 . S
C352 H355 0.960 . S
H353 C352 0.961 . S
H354 C352 0.961 . S
H355 C352 0.960 . S
C356 N357 1.342 . S
C356 C360 1.401 . S
C356 C361 1.499 . S
N357 Co340 1.989 . S
N357 C356 1.342 . S
N357 N358 1.388 . S
N358 Co341 1.993 . S
N358 N357 1.388 . S
N358 C359 1.346 . S
C359 N358 1.346 . S
C359 C360 1.396 . S
C359 C369 1.510 . S
C360 C356 1.401 . S
C360 C359 1.396 . S
C361 C356 1.499 . S
C361 H362 0.959 . S
C361 H363 0.960 . S
C361 H364 0.961 . S
H362 C361 0.959 . S
H363 C361 0.960 . S
H364 C361 0.961 . S
O365 Co340 1.967 . S
O365 C373 1.258 . S
O366 Co341 1.941 . S
O366 C373 1.266 . S
H367 C369 0.959 1_455 S
H368 C369 0.961 . S
C369 C359 1.510 . S
C369 H367 0.959 1_655 S
C369 H368 0.961 . S
C369 H370 0.960 . S
H370 C369 0.960 . S
H371 N351 0.862 . S
O372 Co340 1.920 . S
O372 C345 1.289 . S
C373 O365 1.258 . S
C373 O366 1.266 . S
Co374 O377 1.970 . S
Co374 N391 1.989 . S
Co374 O399 1.967 . S
Co374 O406 1.920 . S
Co375 O378 1.966 . S
Co375 N384 2.022 . S
Co375 N392 1.993 . S
Co375 O400 1.941 . S
C376 O377 1.258 . S
C376 O378 1.263 . S
O377 Co374 1.970 . S
O377 C376 1.258 . S
O378 Co375 1.966 . S
O378 C376 1.263 . S
C379 O380 1.235 . S
C379 O406 1.289 . S
O380 C379 1.235 . S
C381 C383 1.400 . S
C381 N384 1.351 . S
C381 C386 1.501 . S
C382 C383 1.387 . S
C382 N385 1.341 . S
C383 C381 1.400 . S
C383 C382 1.387 . S
N384 Co375 2.022 . S
N384 C381 1.351 . S
N384 N385 1.365 . S
N385 C382 1.341 . S
N385 N384 1.365 . S
N385 H405 0.862 . S
C386 C381 1.501 . S
C386 H387 0.961 . S
C386 H388 0.961 . S
C386 H389 0.960 . S
H387 C386 0.961 . S
H388 C386 0.961 . S
H389 C386 0.960 . S
C390 N391 1.342 . S
C390 C394 1.401 . S
C390 C395 1.499 . S
N391 Co374 1.989 . S
N391 C390 1.342 . S
N391 N392 1.388 . S
N392 Co375 1.993 . S
N392 N391 1.388 . S
N392 C393 1.346 . S
C393 N392 1.346 . S
C393 C394 1.396 . S
C393 C403 1.510 . S
C394 C390 1.401 . S
C394 C393 1.396 . S
C395 C390 1.499 . S
C395 H396 0.959 . S
C395 H397 0.960 . S
C395 H398 0.961 . S
H396 C395 0.959 . S
H397 C395 0.960 . S
H398 C395 0.961 . S
O399 Co374 1.967 . S
O399 C407 1.258 . S
O400 Co375 1.941 . S
O400 C407 1.266 . S
H401 C403 0.959 . S
H402 C403 0.961 . S
C403 C393 1.510 . S
C403 H401 0.959 . S
C403 H402 0.961 . S
C403 H404 0.960 . S
H404 C403 0.960 . S
H405 N385 0.862 . S
O406 Co374 1.920 . S
O406 C379 1.289 . S
C407 O399 1.258 . S
C407 O400 1.266 . S
C408 C409 1.387 . S
C408 H412 0.950 . S
C408 C417 1.390 . S
C409 C408 1.387 . S
C409 C411 1.387 1_455 S
H410 C417 0.950 . S
C411 C409 1.387 1_655 S
C411 C413 1.386 1_655 S
C411 H415 0.950 . S
H412 C408 0.950 . S
C413 C411 1.386 1_455 S
C413 C414 1.391 . S
C413 H416 0.951 1_455 S
C414 C413 1.391 . S
C414 C417 1.387 . S
H415 C411 0.950 . S
H416 C413 0.951 1_655 S
C417 C408 1.390 . S
C417 H410 0.950 . S
C417 C414 1.387 . S
C418 C419 1.387 . S
C418 H422 0.950 . S
C418 C427 1.390 . S
C419 C418 1.387 . S
C419 C421 1.387 . S
H420 C427 0.950 . S
C421 C419 1.387 . S
C421 C423 1.390 . S
C421 H425 0.950 . S
H422 C418 0.950 . S
C423 C421 1.390 . S
C423 C424 1.387 . S
C423 H426 0.950 . S
C424 C423 1.387 . S
C424 C427 1.387 . S
H425 C421 0.950 . S
H426 C423 0.950 . S
C427 C418 1.390 . S
C427 H420 0.950 . S
C427 C424 1.387 . S
C428 C429 1.387 1_545 S
C428 H432 0.950 . S
C428 C437 1.390 . S
C429 C428 1.387 1_565 S
C429 C431 1.387 . S
H430 C437 0.950 . S
C431 C429 1.387 . S
C431 C433 1.390 . S
C431 H435 0.950 . S
H432 C428 0.950 . S
C433 C431 1.390 . S
C433 C434 1.387 . S
C433 H436 0.950 . S
C434 C433 1.387 . S
C434 C437 1.387 1_565 S
H435 C431 0.950 . S
H436 C433 0.950 . S
C437 C428 1.390 . S
C437 H430 0.950 . S
C437 C434 1.387 1_545 S
C438 C439 1.387 . S
C438 H442 0.950 . S
C438 C447 1.390 . S
C439 C438 1.387 . S
C439 C441 1.387 1_565 S
H440 C447 0.950 . S
C441 C439 1.387 1_545 S
C441 C443 1.390 . S
C441 H445 0.950 . S
H442 C438 0.950 . S
C443 C441 1.390 . S
C443 C444 1.387 1_545 S
C443 H446 0.950 . S
C444 C443 1.387 1_565 S
C444 C447 1.387 . S
H445 C441 0.950 . S
H446 C443 0.950 . S
C447 C438 1.390 . S
C447 H440 0.950 . S
C447 C444 1.387 . S
C448 C449 1.387 1_655 S
C448 H452 0.950 . S
C448 C457 1.390 . S
C449 C448 1.387 1_455 S
C449 C451 1.387 . S
H450 C457 0.950 . S
C451 C449 1.387 . S
C451 C453 1.390 . S
C451 H455 0.950 . S
H452 C448 0.950 . S
C453 C451 1.390 . S
C453 C454 1.387 . S
C453 H456 0.950 . S
C454 C453 1.387 . S
C454 C457 1.387 1_455 S
H455 C451 0.950 . S
H456 C453 0.950 . S
C457 C448 1.390 . S
C457 H450 0.950 . S
C457 C454 1.387 1_655 S
C458 C459 1.387 . S
C458 H462 0.950 . S
C458 C467 1.390 . S
C459 C458 1.387 . S
C459 C461 1.387 . S
H460 C467 0.950 . S
C461 C459 1.387 . S
C461 C463 1.390 . S
C461 H465 0.950 . S
H462 C458 0.950 . S
C463 C461 1.390 . S
C463 C464 1.387 . S
C463 H466 0.950 . S
C464 C463 1.387 . S
C464 C467 1.387 . S
H465 C461 0.950 . S
H466 C463 0.950 . S
C467 C458 1.390 . S
C467 H460 0.950 . S
C467 C464 1.387 . S
C468 C469 1.387 1_455 S
C468 H472 0.950 . S
C468 C477 1.390 . S
C469 C468 1.387 1_655 S
C469 C471 1.387 . S
H470 C477 0.950 . S
C471 C469 1.387 . S
C471 C473 1.390 . S
C471 H475 0.950 . S
H472 C468 0.950 . S
C473 C471 1.390 . S
C473 C474 1.387 . S
C473 H476 0.950 . S
C474 C473 1.387 . S
C474 C477 1.387 1_655 S
H475 C471 0.950 . S
H476 C473 0.950 . S
C477 C468 1.390 . S
C477 H470 0.950 . S
C477 C474 1.387 1_455 S
C478 C479 1.387 . S
C478 H482 0.950 . S
C478 C487 1.390 . S
C479 C478 1.387 . S
C479 C481 1.387 . S
H480 C487 0.950 . S
C481 C479 1.387 . S
C481 C483 1.390 . S
C481 H485 0.950 . S
H482 C478 0.950 . S
C483 C481 1.390 . S
C483 C484 1.387 . S
C483 H486 0.950 . S
C484 C483 1.387 . S
C484 C487 1.387 . S
H485 C481 0.950 . S
H486 C483 0.950 . S
C487 C478 1.390 . S
C487 H480 0.950 . S
C487 C484 1.387 . S
C488 C489 1.387 1_565 S
C488 H492 0.950 . S
C488 C497 1.390 . S
C489 C488 1.387 1_545 S
C489 C491 1.387 . S
H490 C497 0.950 . S
C491 C489 1.387 . S
C491 C493 1.390 . S
C491 H495 0.950 . S
H492 C488 0.950 . S
C493 C491 1.390 . S
C493 C494 1.387 . S
C493 H496 0.950 . S
C494 C493 1.387 . S
C494 C497 1.387 1_545 S
H495 C491 0.950 . S
H496 C493 0.950 . S
C497 C488 1.390 . S
C497 H490 0.950 . S
C497 C494 1.387 1_565 S
C498 C499 1.387 1_565 S
C498 H502 0.950 . S
C498 C507 1.390 . S
C499 C498 1.387 1_545 S
C499 C501 1.387 . S
H500 C507 0.950 . S
C501 C499 1.387 . S
C501 C503 1.390 . S
C501 H505 0.950 . S
H502 C498 0.950 . S
C503 C501 1.390 . S
C503 C504 1.387 . S
C503 H506 0.950 . S
C504 C503 1.387 . S
C504 C507 1.387 1_545 S
H505 C501 0.950 . S
H506 C503 0.950 . S
C507 C498 1.390 . S
C507 H500 0.950 . S
C507 C504 1.387 1_565 S
C508 C509 1.387 1_455 S
C508 H512 0.950 . S
C508 C517 1.390 . S
C509 C508 1.387 1_655 S
C509 C511 1.387 . S
H510 C517 0.950 . S
C511 C509 1.387 . S
C511 C513 1.390 . S
C511 H515 0.950 . S
H512 C508 0.950 . S
C513 C511 1.390 . S
C513 C514 1.387 . S
C513 H516 0.950 . S
C514 C513 1.387 . S
C514 C517 1.387 1_655 S
H515 C511 0.950 . S
H516 C513 0.950 . S
C517 C508 1.390 . S
C517 H510 0.950 . S
C517 C514 1.387 1_455 S
C518 C519 1.387 . S
C518 H522 0.950 . S
C518 C527 1.390 . S
C519 C518 1.387 . S
C519 C521 1.387 . S
H520 C527 0.950 . S
C521 C519 1.387 . S
C521 C523 1.390 . S
C521 H525 0.950 . S
H522 C518 0.950 . S
C523 C521 1.390 . S
C523 C524 1.387 . S
C523 H526 0.950 . S
C524 C523 1.387 . S
C524 C527 1.387 . S
H525 C521 0.950 . S
H526 C523 0.950 . S
C527 C518 1.390 . S
C527 H520 0.950 . S
C527 C524 1.387 . S
C528 C529 1.387 . S
C528 H532 0.950 . S
C528 C537 1.390 . S
C529 C528 1.387 . S
C529 C531 1.387 1_656 S
H530 C537 0.950 . S
C531 C529 1.387 1_454 S
C531 C533 1.390 . S
C531 H535 0.950 . S
H532 C528 0.950 . S
C533 C531 1.390 . S
C533 C534 1.387 . S
C533 H536 0.950 . S
C534 C533 1.387 . S
C534 C537 1.387 1_454 S
H535 C531 0.950 . S
H536 C533 0.950 . S
C537 C528 1.390 . S
C537 H530 0.950 . S
C537 C534 1.387 1_656 S
C538 C539 1.387 . S
C538 H542 0.950 . S
C538 C547 1.390 . S
C539 C538 1.387 . S
C539 C541 1.387 1_554 S
H540 C547 0.950 . S
C541 C539 1.387 1_556 S
C541 C543 1.390 . S
C541 H545 0.950 . S
H542 C538 0.950 . S
C543 C541 1.390 . S
C543 C544 1.387 . S
C543 H546 0.950 . S
C544 C543 1.387 . S
C544 C547 1.387 1_556 S
H545 C541 0.950 . S
H546 C543 0.950 . S
C547 C538 1.390 . S
C547 H540 0.950 . S
C547 C544 1.387 1_554 S
C548 C549 1.387 1_554 S
C548 H552 0.950 . S
C548 C557 1.393 1_545 S
C549 C548 1.387 1_556 S
C549 C551 1.388 . S
H550 C557 0.951 . S
C551 C549 1.388 . S
C551 C553 1.393 1_545 S
C551 H555 0.951 . S
H552 C548 0.950 . S
C553 C551 1.393 1_565 S
C553 C554 1.387 1_556 S
C553 H556 0.950 . S
C554 C553 1.387 1_554 S
C554 C557 1.388 . S
H555 C551 0.951 . S
H556 C553 0.950 . S
C557 C548 1.393 1_565 S
C557 H550 0.951 . S
C557 C554 1.388 . S
C558 C559 1.387 . S
C558 H562 0.950 . S
C558 C567 1.390 . S
C559 C558 1.387 . S
C559 C561 1.387 1_565 S
H560 C567 0.950 . S
C561 C559 1.387 1_545 S
C561 C563 1.390 . S
C561 H565 0.950 . S
H562 C558 0.950 . S
C563 C561 1.390 . S
C563 C564 1.387 . S
C563 H566 0.950 . S
C564 C563 1.387 . S
C564 C567 1.387 1_545 S
H565 C561 0.950 . S
H566 C563 0.950 . S
C567 C558 1.390 . S
C567 H560 0.950 . S
C567 C564 1.387 1_565 S
C568 C569 1.387 . S
C568 H572 0.950 . S
C568 C577 1.390 . S
C569 C568 1.387 . S
C569 C571 1.387 1_455 S
H570 C577 0.950 . S
C571 C569 1.387 1_655 S
C571 C573 1.390 . S
C571 H575 0.950 . S
H572 C568 0.950 . S
C573 C571 1.390 . S
C573 C574 1.387 . S
C573 H576 0.950 . S
C574 C573 1.387 . S
C574 C577 1.387 1_655 S
H575 C571 0.950 . S
H576 C573 0.950 . S
C577 C568 1.390 . S
C577 H570 0.950 . S
C577 C574 1.387 1_455 S
C578 C579 1.387 . S
C578 H582 0.950 . S
C578 C587 1.390 . S
C579 C578 1.387 . S
C579 C581 1.387 . S
H580 C587 0.950 . S
C581 C579 1.387 . S
C581 C583 1.390 . S
C581 H585 0.950 . S
H582 C578 0.950 . S
C583 C581 1.390 . S
C583 C584 1.387 . S
C583 H586 0.950 . S
C584 C583 1.387 . S
C584 C587 1.387 . S
H585 C581 0.950 . S
H586 C583 0.950 . S
C587 C578 1.390 . S
C587 H580 0.950 . S
C587 C584 1.387 . S
C588 C589 1.387 . S
C588 H592 0.950 . S
C588 C597 1.390 . S
C589 C588 1.387 . S
C589 C591 1.387 . S
H590 C597 0.950 . S
C591 C589 1.387 . S
C591 C593 1.390 . S
C591 H595 0.950 . S
H592 C588 0.950 . S
C593 C591 1.390 . S
C593 C594 1.387 . S
C593 H596 0.950 . S
C594 C593 1.387 . S
C594 C597 1.387 . S
H595 C591 0.950 . S
H596 C593 0.950 . S
C597 C588 1.390 . S
C597 H590 0.950 . S
C597 C594 1.387 . S
C598 C599 1.387 . S
C598 H602 0.950 . S
C598 C607 1.390 . S
C599 C598 1.387 . S
C599 C601 1.387 . S
H600 C607 0.950 . S
C601 C599 1.387 . S
C601 C603 1.390 . S
C601 H605 0.950 . S
H602 C598 0.950 . S
C603 C601 1.390 . S
C603 C604 1.387 . S
C603 H606 0.950 . S
C604 C603 1.387 . S
C604 C607 1.387 . S
H605 C601 0.950 . S
H606 C603 0.950 . S
C607 C598 1.390 . S
C607 H600 0.950 . S
C607 C604 1.387 . S
C608 C609 1.387 . S
C608 H612 0.950 . S
C608 C617 1.390 . S
C609 C608 1.387 . S
C609 C611 1.387 . S
H610 C617 0.950 . S
C611 C609 1.387 . S
C611 C613 1.390 . S
C611 H615 0.950 . S
H612 C608 0.950 . S
C613 C611 1.390 . S
C613 C614 1.387 . S
C613 H616 0.950 . S
C614 C613 1.387 . S
C614 C617 1.387 . S
H615 C611 0.950 . S
H616 C613 0.950 . S
C617 C608 1.390 . S
C617 H610 0.950 . S
C617 C614 1.387 . S
C618 C619 1.387 . S
C618 H622 0.950 . S
C618 C627 1.390 . S
C619 C618 1.387 . S
C619 C621 1.387 . S
H620 C627 0.950 . S
C621 C619 1.387 . S
C621 C623 1.390 . S
C621 H625 0.950 . S
H622 C618 0.950 . S
C623 C621 1.390 . S
C623 C624 1.387 . S
C623 H626 0.950 . S
C624 C623 1.387 . S
C624 C627 1.387 . S
H625 C621 0.950 . S
H626 C623 0.950 . S
C627 C618 1.390 . S
C627 H620 0.950 . S
C627 C624 1.387 . S
C628 C629 1.387 . S
C628 H632 0.950 . S
C628 C637 1.390 . S
C629 C628 1.387 . S
C629 C631 1.387 . S
H630 C637 0.950 . S
C631 C629 1.387 . S
C631 C633 1.390 . S
C631 H635 0.950 . S
H632 C628 0.950 . S
C633 C631 1.390 . S
C633 C634 1.387 . S
C633 H636 0.950 . S
C634 C633 1.387 . S
C634 C637 1.387 . S
H635 C631 0.950 . S
H636 C633 0.950 . S
C637 C628 1.390 . S
C637 H630 0.950 . S
C637 C634 1.387 . S
C638 C639 1.387 . S
C638 H642 0.950 . S
C638 C647 1.390 . S
C639 C638 1.387 . S
C639 C641 1.387 . S
H640 C647 0.950 . S
C641 C639 1.387 . S
C641 C643 1.390 . S
C641 H645 0.950 . S
H642 C638 0.950 . S
C643 C641 1.390 . S
C643 C644 1.387 . S
C643 H646 0.950 . S
C644 C643 1.387 . S
C644 C647 1.387 . S
H645 C641 0.950 . S
H646 C643 0.950 . S
C647 C638 1.390 . S
C647 H640 0.950 . S
C647 C644 1.387 . S
C648 C649 1.387 . S
C648 H652 0.950 . S
C648 C657 1.390 . S
C649 C648 1.387 . S
C649 C651 1.387 . S
H650 C657 0.950 . S
C651 C649 1.387 . S
C651 C653 1.390 . S
C651 H655 0.950 . S
H652 C648 0.950 . S
C653 C651 1.390 . S
C653 C654 1.387 . S
C653 H656 0.950 . S
C654 C653 1.387 . S
C654 C657 1.387 . S
H655 C651 0.950 . S
H656 C653 0.950 . S
C657 C648 1.390 . S
C657 H650 0.950 . S
C657 C654 1.387 . S
C658 C659 1.387 . S
C658 H662 0.950 . S
C658 C667 1.390 . S
C659 C658 1.387 . S
C659 C661 1.387 . S
H660 C667 0.950 . S
C661 C659 1.387 . S
C661 C663 1.390 . S
C661 H665 0.950 . S
H662 C658 0.950 . S
C663 C661 1.390 . S
C663 C664 1.387 . S
C663 H666 0.950 . S
C664 C663 1.387 . S
C664 C667 1.387 . S
H665 C661 0.950 . S
H666 C663 0.950 . S
C667 C658 1.390 . S
C667 H660 0.950 . S
C667 C664 1.387 . S
C668 C669 1.387 . S
C668 H672 0.950 . S
C668 C677 1.390 . S
C669 C668 1.387 . S
C669 C671 1.387 . S
H670 C677 0.950 . S
C671 C669 1.387 . S
C671 C673 1.390 . S
C671 H675 0.950 . S
H672 C668 0.950 . S
C673 C671 1.390 . S
C673 C674 1.387 . S
C673 H676 0.950 . S
C674 C673 1.387 . S
C674 C677 1.387 . S
H675 C671 0.950 . S
H676 C673 0.950 . S
C677 C668 1.390 . S
C677 H670 0.950 . S
C677 C674 1.387 . S
C678 C679 1.387 . S
C678 H682 0.950 . S
C678 C687 1.390 . S
C679 C678 1.387 . S
C679 C681 1.387 . S
H680 C687 0.950 . S
C681 C679 1.387 . S
C681 C683 1.390 . S
C681 H685 0.950 . S
H682 C678 0.950 . S
C683 C681 1.390 . S
C683 C684 1.387 . S
C683 H686 0.950 . S
C684 C683 1.387 . S
C684 C687 1.387 . S
H685 C681 0.950 . S
H686 C683 0.950 . S
C687 C678 1.390 . S
C687 H680 0.950 . S
C687 C684 1.387 . S
C688 C689 1.387 . S
C688 H692 0.950 . S
C688 C697 1.390 . S
C689 C688 1.387 . S
C689 C691 1.387 . S
H690 C697 0.950 . S
C691 C689 1.387 . S
C691 C693 1.390 . S
C691 H695 0.950 . S
H692 C688 0.950 . S
C693 C691 1.390 . S
C693 C694 1.387 . S
C693 H696 0.950 . S
C694 C693 1.387 . S
C694 C697 1.387 . S
H695 C691 0.950 . S
H696 C693 0.950 . S
C697 C688 1.390 . S
C697 H690 0.950 . S
C697 C694 1.387 . S
C698 C699 1.387 . S
C698 H702 0.950 . S
C698 C707 1.390 . S
C699 C698 1.387 . S
C699 C701 1.387 . S
H700 C707 0.950 . S
C701 C699 1.387 . S
C701 C703 1.390 . S
C701 H705 0.950 . S
H702 C698 0.950 . S
C703 C701 1.390 . S
C703 C704 1.387 . S
C703 H706 0.950 . S
C704 C703 1.387 . S
C704 C707 1.387 . S
H705 C701 0.950 . S
H706 C703 0.950 . S
C707 C698 1.390 . S
C707 H700 0.950 . S
C707 C704 1.387 . S
C409 C373 1.813 1_455 S
C414 C9 1.553 . S
C419 C43 1.558 . S
C424 C407 1.812 . S
C429 C339 1.813 1_565 S
C434 C77 1.558 . S
C439 C111 1.554 . S
C444 C305 1.812 1_565 S
C449 C145 1.558 . S
C454 C237 1.813 1_455 S
C459 C179 1.553 . S
C464 C271 1.813 . S
C469 C169 1.813 1_655 S
C474 C213 1.553 . S
C479 C203 1.813 . S
C484 C247 1.553 . S
C489 C135 1.812 1_545 S
C494 C281 1.553 . S
C499 C101 1.812 1_545 S
C504 C315 1.554 . S
C509 C349 1.553 . S
C514 C33 1.813 1_655 S
C519 C67 1.813 . S
C524 C383 1.558 . S
C529 C224 1.483 . S
C534 C20 1.483 . S
C539 C54 1.485 . S
C544 C258 1.485 . S
C549 C292 1.484 . S
C554 C88 1.484 . S
C559 C122 1.482 . S
C564 C326 1.482 . S
C569 C156 1.483 . S
C574 C360 1.483 . S
C579 C394 1.483 . S
C584 C190 1.483 . S
C589 C5 0.945 . S
C594 C141 0.944 . S
C599 C39 0.944 . S
C604 C175 0.945 . S
C609 C73 0.941 . S
C614 C107 0.941 . S
C619 C345 0.945 . S
C624 C209 0.944 . S
C629 C243 0.945 . S
C634 C379 0.944 . S
C639 C277 0.941 . S
C644 C311 0.941 . S
C649 C172 1.639 . S
C654 C2 1.639 . S
C659 C104 1.642 . S
C664 C36 1.643 . S
C669 C70 1.643 . S
C674 C138 1.643 . S
C679 C206 1.639 . S
C684 C376 1.639 . S
C689 C308 1.644 . S
C694 C240 1.644 . S
C699 C342 1.639 . S
C704 C274 1.639 . S
