# Generated by pormake.
# Topology una, (4)-cn, num edge types: 1
# Building blocks:
#     Node 0, Type 0, BuildingBlock: AZAVOO_clean_sbu_0, # of connection points: 4
#     Node 1, Type 0, BuildingBlock: AZAVOO_clean_sbu_0, # of connection points: 4
#     Node 2, Type 0, BuildingBlock: AZAVOO_clean_sbu_0, # of connection points: 4
#     Node 3, Type 0, BuildingBlock: AZAVOO_clean_sbu_0, # of connection points: 4
#     Node 4, Type 0, BuildingBlock: AZAVOO_clean_sbu_0, # of connection points: 4
#     Node 5, Type 0, BuildingBlock: AZAVOO_clean_sbu_0, # of connection points: 4
#     Node 6, Type 0, BuildingBlock: AZAVOO_clean_sbu_0, # of connection points: 4
#     Node 7, Type 0, BuildingBlock: AZAVOO_clean_sbu_0, # of connection points: 4
#     Node 8, Type 0, BuildingBlock: AZAVOO_clean_sbu_0, # of connection points: 4
#     Node 9, Type 0, BuildingBlock: AZAVOO_clean_sbu_0, # of connection points: 4
#     Node 10, Type 0, BuildingBlock: AZAVOO_clean_sbu_0, # of connection points: 4
#     Node 11, Type 0, BuildingBlock: AZAVOO_clean_sbu_0, # of connection points: 4
#     Edge 12, Type (0, 0), BuildingBlock: AJUNOK_clean_linker_0, # of connection points: 2
#     Edge 13, Type (0, 0), BuildingBlock: AJUNOK_clean_linker_0, # of connection points: 2
#     Edge 14, Type (0, 0), BuildingBlock: AJUNOK_clean_linker_0, # of connection points: 2
#     Edge 15, Type (0, 0), BuildingBlock: AJUNOK_clean_linker_0, # of connection points: 2
#     Edge 16, Type (0, 0), BuildingBlock: AJUNOK_clean_linker_0, # of connection points: 2
#     Edge 17, Type (0, 0), BuildingBlock: AJUNOK_clean_linker_0, # of connection points: 2
#     Edge 18, Type (0, 0), BuildingBlock: AJUNOK_clean_linker_0, # of connection points: 2
#     Edge 19, Type (0, 0), BuildingBlock: AJUNOK_clean_linker_0, # of connection points: 2
#     Edge 20, Type (0, 0), BuildingBlock: AJUNOK_clean_linker_0, # of connection points: 2
#     Edge 21, Type (0, 0), BuildingBlock: AJUNOK_clean_linker_0, # of connection points: 2
#     Edge 22, Type (0, 0), BuildingBlock: AJUNOK_clean_linker_0, # of connection points: 2
#     Edge 23, Type (0, 0), BuildingBlock: AJUNOK_clean_linker_0, # of connection points: 2
#     Edge 24, Type (0, 0), BuildingBlock: AJUNOK_clean_linker_0, # of connection points: 2
#     Edge 25, Type (0, 0), BuildingBlock: AJUNOK_clean_linker_0, # of connection points: 2
#     Edge 26, Type (0, 0), BuildingBlock: AJUNOK_clean_linker_0, # of connection points: 2
#     Edge 27, Type (0, 0), BuildingBlock: AJUNOK_clean_linker_0, # of connection points: 2
#     Edge 28, Type (0, 0), BuildingBlock: AJUNOK_clean_linker_0, # of connection points: 2
#     Edge 29, Type (0, 0), BuildingBlock: AJUNOK_clean_linker_0, # of connection points: 2
#     Edge 30, Type (0, 0), BuildingBlock: AJUNOK_clean_linker_0, # of connection points: 2
#     Edge 31, Type (0, 0), BuildingBlock: AJUNOK_clean_linker_0, # of connection points: 2
#     Edge 32, Type (0, 0), BuildingBlock: AJUNOK_clean_linker_0, # of connection points: 2
#     Edge 33, Type (0, 0), BuildingBlock: AJUNOK_clean_linker_0, # of connection points: 2
#     Edge 34, Type (0, 0), BuildingBlock: AJUNOK_clean_linker_0, # of connection points: 2
#     Edge 35, Type (0, 0), BuildingBlock: AJUNOK_clean_linker_0, # of connection points: 2
# Relax obj value: 0.179
# Max RMSD: 0.209
# Mean RMSD: 0.204
data_MOF--net-una--node1-AZAVOO_clean_sbu_0--edge1-AJUNOK_clean_linker_0
_symmetry_space_group_name_H-M    P1
_symmetry_Int_Tables_number       1
_symmetry_cell_setting            triclinic
loop_
_symmetry_equiv_pos_as_xyz
'x, y, z'
_cell_length_a     41.860548
_cell_length_b     39.881108
_cell_length_c     17.482238
_cell_angle_alpha  89.87285
_cell_angle_beta   90.447852
_cell_angle_gamma 121.69697
loop_
_atom_site_label
_atom_site_type_symbol
_atom_site_fract_x
_atom_site_fract_y
_atom_site_fract_z
_atom_type_partial_charge
Mg0 Mg 0.17481 0.43858 -0.00671 0.0
O1 O 0.1815 0.4918 0.05879 0.0
O2 O 0.23973 0.52424 0.10646 0.0
Mg3 Mg 0.26891 0.49063 0.0812 0.0
C4 C 0.20803 0.52096 0.09543 0.0
C5 C 0.09025 0.41385 0.95678 0.0
O6 O 0.0848 0.40176 0.0281 0.0
O7 O 0.21354 0.48043 0.90267 0.0
O8 O 0.27089 0.50714 0.95533 0.0
O9 O 0.156 0.40034 0.09918 0.0
O10 O 0.21448 0.43694 0.06012 0.0
C11 C 0.24926 0.50273 0.89922 0.0
C12 C 0.19126 0.41287 0.10922 0.0
O13 O 0.12321 0.4304 0.92968 0.0
Mg14 Mg 0.71942 0.13093 0.21212 0.0
O15 O 0.73628 0.16694 0.10201 0.0
O16 O 0.69221 0.13205 0.01386 0.0
Mg17 Mg 0.64661 0.07462 0.06768 0.0
C18 C 0.7231 0.16274 0.03438 0.0
C19 C 0.79894 0.20187 0.27233 0.0
O20 O 0.81294 0.18747 0.22488 0.0
O21 O 0.67442 0.14596 0.2358 0.0
O22 O 0.63158 0.11029 0.14556 0.0
O23 O 0.74782 0.09972 0.16864 0.0
O24 O 0.68776 0.07878 0.15173 0.0
C25 C 0.64312 0.13436 0.20177 0.0
C26 C 0.71548 0.07439 0.13898 0.0
O27 O 0.76349 0.18547 0.27722 0.0
Mg28 Mg 0.59119 0.72038 0.31837 0.0
O29 O 0.52973 0.66997 0.33989 0.0
O30 O 0.49898 0.70018 0.36959 0.0
Mg31 Mg 0.53864 0.7664 0.37845 0.0
C32 C 0.49949 0.66907 0.35569 0.0
C33 C 0.63148 0.69774 0.20749 0.0
O34 O 0.6446 0.73544 0.19718 0.0
O35 O 0.57319 0.73559 0.2054 0.0
O36 O 0.54545 0.76661 0.24995 0.0
O37 O 0.60806 0.7243 0.44429 0.0
O38 O 0.58526 0.7573 0.39117 0.0
C39 C 0.55682 0.75476 0.19467 0.0
C40 C 0.59803 0.74982 0.45119 0.0
O41 O 0.60603 0.67949 0.25726 0.0
Mg42 Mg 0.88245 0.59185 0.49247 0.0
O43 O 0.87334 0.53712 0.55712 0.0
O44 O 0.81466 0.50594 0.60074 0.0
Mg45 Mg 0.78722 0.54111 0.57303 0.0
C46 C 0.84599 0.5082 0.59198 0.0
C47 C 0.96338 0.63726 0.43801 0.0
O48 O 0.95837 0.66353 0.47184 0.0
O49 O 0.84449 0.55188 0.39689 0.0
O50 O 0.78716 0.52668 0.44719 0.0
O51 O 0.90002 0.62884 0.60025 0.0
O52 O 0.84221 0.59384 0.55501 0.0
C53 C 0.80863 0.53098 0.39163 0.0
C54 C 0.86484 0.61719 0.60621 0.0
O55 O 0.93624 0.60156 0.43732 0.0
Mg56 Mg 0.32515 0.90348 0.68317 0.0
O57 O 0.30511 0.86354 0.57774 0.0
O58 O 0.34804 0.89508 0.48686 0.0
Mg59 Mg 0.39348 0.95565 0.53079 0.0
C60 C 0.3175 0.86522 0.51057 0.0
C61 C 0.24892 0.83001 0.74795 0.0
O62 O 0.23263 0.83882 0.6938 0.0
O63 O 0.37186 0.8906 0.70508 0.0
O64 O 0.41327 0.9256 0.61373 0.0
O65 O 0.29428 0.93246 0.64009 0.0
O66 O 0.35341 0.95285 0.61465 0.0
C67 C 0.40331 0.90304 0.67206 0.0
C68 C 0.32487 0.95621 0.60376 0.0
O69 O 0.28444 0.8508 0.75598 0.0
Mg70 Mg 0.45508 0.30787 0.84916 0.0
O71 O 0.51732 0.35851 0.85549 0.0
O72 O 0.54814 0.33069 0.90162 0.0
Mg73 Mg 0.50732 0.26701 0.93739 0.0
C74 C 0.54775 0.36022 0.87432 0.0
C75 C 0.43802 0.37097 0.77783 0.0
O76 O 0.44704 0.38662 0.84658 0.0
O77 O 0.46791 0.27905 0.75086 0.0
O78 O 0.49428 0.25015 0.81152 0.0
O79 O 0.4429 0.3202 -0.03084 0.0
O80 O 0.46364 0.2812 0.94106 0.0
C81 C 0.48135 0.25675 0.75077 0.0
C82 C 0.45396 0.29702 -0.00777 0.0
O83 O 0.43996 0.34085 0.76362 0.0
Mg84 Mg 0.61251 0.91416 0.80296 0.0
O85 O 0.59044 0.86489 0.89211 0.0
O86 O 0.56868 0.88364 -0.01097 0.0
Mg87 Mg 0.58182 0.94609 -0.03115 0.0
C88 C 0.57427 0.85853 0.95663 0.0
C89 C 0.61666 0.84439 0.72091 0.0
O90 O 0.62733 0.83907 0.78832 0.0
O91 O 0.55216 0.89756 0.7734 0.0
O92 O 0.53722 0.92077 0.87451 0.0
O93 O 0.67056 0.94418 0.85677 0.0
O94 O 0.62589 0.95513 0.889 0.0
C95 C 0.52921 0.90371 0.80942 0.0
C96 C 0.65893 0.96149 0.9011 0.0
O97 O 0.60998 0.87185 0.71204 0.0
Mg98 Mg 0.74417 0.58811 -0.01039 0.0
O99 O 0.697 0.5325 0.92932 0.0
O100 O 0.72354 0.501 0.88248 0.0
Mg101 Mg 0.78696 0.53716 0.90203 0.0
C102 C 0.69461 0.50307 0.89467 0.0
C103 C 0.70787 0.63292 0.04252 0.0
O104 O 0.73662 0.65793 0.00071 0.0
O105 O 0.74529 0.54943 0.0841 0.0
O106 O 0.7767 0.52448 0.02935 0.0
O107 O 0.76064 0.62421 0.88101 0.0
O108 O 0.78478 0.58981 0.92179 0.0
C109 C 0.76109 0.5293 0.0872 0.0
C110 C 0.78411 0.61274 0.87156 0.0
O111 O 0.70131 0.59812 0.04997 0.0
Mg112 Mg 0.16198 0.7143 0.14909 0.0
O113 O 0.17304 0.66336 0.13976 0.0
O114 O 0.23306 0.69211 0.10317 0.0
Mg115 Mg 0.25791 0.75699 0.07558 0.0
C116 C 0.20217 0.66193 0.12457 0.0
C117 C 0.10254 0.69804 0.26742 0.0
O118 O 0.12626 0.73635 0.26954 0.0
O119 O 0.20006 0.73836 0.25578 0.0
O120 O 0.25683 0.76802 0.20246 0.0
O121 O 0.14221 0.70791 0.02535 0.0
O122 O 0.20084 0.74467 0.0642 0.0
C123 C 0.23586 0.75977 0.2608 0.0
C124 C 0.17718 0.73183 0.00865 0.0
O125 O 0.10933 0.6777 0.22198 0.0
Mg126 Mg 0.43634 0.13024 0.30982 0.0
O127 O 0.45361 0.16253 0.42436 0.0
O128 O 0.45992 0.12431 0.50882 0.0
Mg129 Mg 0.44858 0.06857 0.44772 0.0
C130 C 0.46071 0.15589 0.49181 0.0
C131 C 0.43214 0.20512 0.25752 0.0
O132 O 0.40365 0.19137 0.30456 0.0
O133 O 0.49639 0.14488 0.29002 0.0
O134 O 0.5012 0.10579 0.37518 0.0
O135 O 0.37605 0.09926 0.34805 0.0
O136 O 0.41361 0.07628 0.36387 0.0
C137 C 0.51505 0.13155 0.32207 0.0
C138 C 0.38174 0.07267 0.37575 0.0
O139 O 0.44951 0.18701 0.25063 0.0
Mg140 Mg 0.30781 0.4439 0.50274 0.0
O141 O 0.35311 0.4983 0.43837 0.0
O142 O 0.32483 0.52751 0.38782 0.0
Mg143 Mg 0.26185 0.4908 0.41092 0.0
C144 C 0.35431 0.52639 0.40063 0.0
C145 C 0.35849 0.41165 0.55756 0.0
O146 O 0.33948 0.38604 0.50293 0.0
O147 O 0.30719 0.48421 0.59258 0.0
O148 O 0.27439 0.50763 0.53722 0.0
O149 O 0.29162 0.40585 0.39673 0.0
O150 O 0.26579 0.43912 0.43327 0.0
C151 C 0.29158 0.50446 0.59479 0.0
C152 C 0.26749 0.41632 0.38442 0.0
O153 O 0.35295 0.43966 0.56861 0.0
Mg154 Mg 0.88283 0.30982 0.67992 0.0
O155 O 0.8731 0.36138 0.66382 0.0
O156 O 0.81481 0.33399 0.6159 0.0
Mg157 Mg 0.78949 0.26859 0.59152 0.0
C158 C 0.84536 0.36386 0.64051 0.0
C159 C 0.96601 0.36512 0.74199 0.0
O160 O 0.97353 0.36795 0.6686 0.0
O161 O 0.84174 0.28553 0.78005 0.0
O162 O 0.78637 0.25677 0.71954 0.0
O163 O 0.90632 0.31733 0.55977 0.0
O164 O 0.84661 0.28038 0.58998 0.0
C165 C 0.80589 0.26451 0.7807 0.0
C166 C 0.87178 0.29419 0.53811 0.0
O167 O 0.93194 0.34527 0.76285 0.0
C168 C 0.19101 0.40341 0.25 0.0
C169 C 0.20611 0.40445 0.17823 0.0
C170 C 0.21024 0.40477 0.31693 0.0
C171 C 0.24475 0.40653 0.31408 0.0
H172 H 0.16571 0.40437 0.25454 0.0
H173 H 0.19884 0.40629 0.37135 0.0
S174 S 0.29295 0.40391 0.13974 0.0
N175 N 0.25528 0.40299 0.10765 0.0
N176 N 0.29106 0.40498 0.23397 0.0
C177 C 0.25844 0.40419 0.24281 0.0
C178 C 0.23918 0.40335 0.17463 0.0
C179 C 0.82666 0.27644 0.43094 0.0
C180 C 0.86052 0.2814 0.45822 0.0
C181 C 0.80834 0.25293 0.36696 0.0
C182 C 0.82325 0.2335 0.32762 0.0
H183 H 0.81309 0.28902 0.4618 0.0
H184 H 0.78125 0.24827 0.35084 0.0
S185 S 0.91471 0.24273 0.36872 0.0
N186 N 0.91088 0.26948 0.43585 0.0
N187 N 0.87671 0.22539 0.31452 0.0
C188 C 0.8591 0.24157 0.34961 0.0
C189 C 0.87774 0.2656 0.41522 0.0
C190 C 0.59767 0.80425 0.51893 0.0
C191 C 0.60198 0.77157 0.52294 0.0
C192 C 0.60242 0.82715 0.58309 0.0
C193 C 0.61195 0.81876 0.65479 0.0
H194 H 0.5912 0.81301 0.46522 0.0
H195 H 0.59884 0.85197 0.57577 0.0
S196 S 0.6265 0.7363 0.69712 0.0
N197 N 0.6163 0.73174 0.60479 0.0
N198 N 0.62538 0.77502 0.72651 0.0
C199 C 0.61639 0.7861 0.66023 0.0
C200 C 0.61144 0.76253 0.59414 0.0
C201 C 0.86241 0.625 0.74661 0.0
C202 C 0.84915 0.62549 0.67316 0.0
C203 C 0.84194 0.62317 0.811 0.0
C204 C 0.80798 0.62241 0.80387 0.0
H205 H 0.88717 0.62317 0.75423 0.0
H206 H 0.85195 0.62058 0.86674 0.0
S207 S 0.76464 0.62926 0.62398 0.0
N208 N 0.80246 0.62956 0.59658 0.0
N209 N 0.76429 0.62664 0.7183 0.0
C210 C 0.79618 0.6263 0.73111 0.0
C211 C 0.81674 0.62766 0.66545 0.0
C212 C 0.2445 0.78293 0.84731 0.0
C213 C 0.22657 0.79812 0.80369 0.0
C214 C 0.2266 0.75795 0.90935 0.0
C215 C 0.1902 0.74736 0.93083 0.0
H216 H 0.27323 0.79167 0.83547 0.0
H217 H 0.24215 0.74832 0.94278 0.0
S218 S 0.1288 0.77422 0.82898 0.0
N219 N 0.16846 0.79674 0.7806 0.0
N220 N 0.13507 0.7501 0.89856 0.0
C221 C 0.17063 0.75937 0.88387 0.0
C222 C 0.18882 0.78478 0.82003 0.0
C223 C 0.47506 0.2555 0.16363 0.0
C224 C 0.44094 0.23763 0.20362 0.0
C225 C 0.48091 0.279 0.09949 0.0
C226 C 0.45292 0.28555 0.07282 0.0
H227 H 0.49661 0.24934 0.17899 0.0
H228 H 0.50661 0.29 0.06767 0.0
S229 S 0.3616 0.25205 0.16509 0.0
N230 N 0.38105 0.23322 0.21865 0.0
N231 N 0.39219 0.27733 0.09712 0.0
C232 C 0.42047 0.27168 0.11692 0.0
C233 C 0.41441 0.24763 0.18264 0.0
C234 C 0.17194 0.55529 0.09202 0.0
C235 C 0.20373 0.55452 0.11687 0.0
C236 C 0.17039 0.58951 0.09898 0.0
C237 C 0.2007 0.6242 0.13028 0.0
H238 H 0.14878 0.52996 0.06358 0.0
H239 H 0.1463 0.58946 0.07566 0.0
S240 S 0.28727 0.63612 0.21665 0.0
N241 N 0.26388 0.59039 0.18429 0.0
N242 N 0.26106 0.65455 0.19537 0.0
C243 C 0.23133 0.62308 0.16031 0.0
C244 C 0.2328 0.58827 0.15424 0.0
C245 C 0.60999 0.14168 0.31215 0.0
C246 C 0.61664 0.14458 0.23311 0.0
C247 C 0.5782 0.14031 0.34128 0.0
C248 C 0.55241 0.14257 0.29253 0.0
H249 H 0.62771 0.13727 0.3511 0.0
H250 H 0.57275 0.13537 0.40202 0.0
S251 S 0.56111 0.15739 0.08241 0.0
N252 N 0.59773 0.15454 0.10757 0.0
N253 N 0.53847 0.15297 0.16239 0.0
C254 C 0.56084 0.14936 0.21425 0.0
C255 C 0.59283 0.15004 0.1845 0.0
C256 C 0.42497 0.56302 0.40121 0.0
C257 C 0.39148 0.56076 0.37813 0.0
C258 C 0.46023 0.59751 0.39046 0.0
C259 C 0.4632 0.63108 0.35707 0.0
H260 H 0.42399 0.53852 0.43042 0.0
H261 H 0.48509 0.59851 0.41174 0.0
S262 S 0.38533 0.63906 0.27568 0.0
N263 N 0.36455 0.59417 0.31157 0.0
N264 N 0.43056 0.65878 0.29296 0.0
C265 C 0.43035 0.62855 0.32962 0.0
C266 C 0.39458 0.59345 0.33965 0.0
C267 C 0.81569 0.43848 0.63648 0.0
C268 C 0.84864 0.47378 0.6153 0.0
C269 C 0.81546 0.40363 0.64751 0.0
C270 C 0.84824 0.40251 0.63911 0.0
H271 H 0.78924 0.4371 0.64148 0.0
H272 H 0.78903 0.37703 0.66091 0.0
S273 S 0.94293 0.4873 0.59272 0.0
N274 N 0.9158 0.50594 0.59229 0.0
N275 N 0.91528 0.44021 0.61422 0.0
C276 C 0.88195 0.43792 0.62272 0.0
C277 C 0.88215 0.47355 0.61045 0.0
C278 C 0.46175 0.90079 0.66088 0.0
C279 C 0.43112 0.89459 0.70537 0.0
C280 C 0.49227 0.90053 0.69383 0.0
C281 C 0.49353 0.89456 0.7727 0.0
H282 H 0.46301 0.90766 0.60058 0.0
H283 H 0.51608 0.90767 0.65816 0.0
S284 S 0.41813 0.87055 0.9124 0.0
N285 N 0.40206 0.87726 0.83092 0.0
N286 N 0.45963 0.87727 0.89282 0.0
C287 C 0.46191 0.88529 0.81675 0.0
C288 C 0.43062 0.8851 0.78309 0.0
C289 C 0.58831 0.43343 0.8907 0.0
C290 C 0.58415 0.39773 0.86683 0.0
C291 C 0.62402 0.46801 0.8958 0.0
C292 C 0.65678 0.46819 0.87628 0.0
H293 H 0.56411 0.4342 0.90955 0.0
H294 H 0.62598 0.49433 0.91822 0.0
S295 S 0.65944 0.38309 0.7975 0.0
N296 N 0.61465 0.36527 0.81501 0.0
N297 N 0.68151 0.42997 0.82255 0.0
C298 C 0.65235 0.43308 0.8466 0.0
C299 C 0.61613 0.39793 0.84253 0.0
C300 C 0.31072 0.52045 0.73108 0.0
C301 C 0.28768 0.51846 0.67012 0.0
C302 C 0.30027 0.52024 0.80678 0.0
C303 C 0.2662 0.51754 0.82372 0.0
H304 H 0.33533 0.51879 0.7205 0.0
H305 H 0.3171 0.51812 0.85169 0.0
S306 S 0.20185 0.52355 0.68553 0.0
N307 N 0.23386 0.52296 0.63197 0.0
N308 N 0.21403 0.52194 0.77487 0.0
C309 C 0.24578 0.52124 0.76377 0.0
C310 C 0.25664 0.52193 0.68657 0.0
C311 C 0.72632 0.195 0.91029 0.0
C312 C 0.7448 0.1934 -0.02371 0.0
C313 C 0.74627 0.22005 0.84976 0.0
C314 C 0.78574 0.24439 0.85199 0.0
H315 H 0.69614 0.17593 0.90424 0.0
H316 H 0.73048 0.21896 0.79945 0.0
S317 S 0.84728 0.25471 0.01602 0.0
N318 N 0.80456 0.221 0.04387 0.0
N319 N 0.8423 0.268 0.92937 0.0
C320 C 0.80447 0.24496 0.91975 0.0
C321 C 0.78397 0.21949 -0.01801 0.0
C322 C 0.52796 0.77933 0.10445 0.0
C323 C 0.55509 0.76926 0.11792 0.0
C324 C 0.53274 0.80583 0.04687 0.0
C325 C 0.56448 0.8227 -0.0001 0.0
H326 H 0.50448 0.76934 0.14292 0.0
H327 H 0.51277 0.81526 0.04258 0.0
S328 S 0.63962 0.79979 0.00116 0.0
N329 N 0.61175 0.77337 0.07197 0.0
N330 N 0.62046 0.82302 -0.03757 0.0
C331 C 0.58938 0.80919 0.00634 0.0
C332 C 0.58467 0.78231 0.06568 0.0
C333 C 0.7572 0.51587 0.30005 0.0
C334 C 0.79127 0.51792 0.31536 0.0
C335 C 0.74553 0.5158 0.22504 0.0
C336 C 0.76719 0.5171 0.16291 0.0
H337 H 0.74107 0.51797 0.34591 0.0
H338 H 0.72083 0.51757 0.21589 0.0
S339 S 0.85313 0.51165 0.17333 0.0
N340 N 0.84252 0.51342 0.26337 0.0
N341 N 0.82032 0.51239 0.1217 0.0
C342 C 0.79856 0.51368 0.17757 0.0
C343 C 0.81073 0.51438 0.25414 0.0
C344 C 0.29405 0.79944 0.33846 0.0
C345 C 0.25458 0.77959 0.33373 0.0
C346 C 0.31394 0.8256 0.39806 0.0
C347 C 0.29526 0.83258 0.45628 0.0
H348 H 0.31008 0.79635 0.2937 0.0
H349 H 0.34434 0.84149 0.39705 0.0
S350 S 0.19209 0.78407 0.47747 0.0
N351 N 0.19731 0.76571 0.39724 0.0
N352 N 0.23495 0.81463 0.51054 0.0
C353 C 0.25573 0.81059 0.45618 0.0
C354 C 0.23532 0.78409 0.39466 0.0
C355 C 0.4903 0.20703 0.68415 0.0
C356 C 0.47935 0.23491 0.68032 0.0
C357 C 0.48499 0.18248 0.62232 0.0
C358 C 0.46878 0.18482 0.55343 0.0
H359 H 0.50219 0.20313 0.73619 0.0
H360 H 0.4932 0.16101 0.62928 0.0
S361 S 0.43782 0.25483 0.51073 0.0
N362 N 0.45341 0.26498 0.59983 0.0
N363 N 0.4436 0.21882 0.48311 0.0
C364 C 0.45912 0.21368 0.54723 0.0
C365 C 0.46435 0.23868 0.6107 0.0
C366 C 0.0644 0.41364 0.82682 0.0
C367 C 0.05808 0.40473 0.90535 0.0
C368 C 0.03456 0.40196 0.77517 0.0
C369 C 0.99701 0.38094 0.79963 0.0
H370 H 0.09263 0.42887 0.80426 0.0
H371 H 0.0411 0.40869 0.71518 0.0
S372 S 0.96514 0.35338 0.00041 0.0
N373 N 1.01131 0.37591 0.0059 0.0
N374 N 0.95528 0.35407 0.90905 0.0
C375 C 0.99028 0.37339 0.87857 0.0
C376 C 1.02075 0.38522 0.93127 0.0
C377 C 0.71172 0.02487 0.95329 0.0
C378 C 0.68127 0.98637 -0.03384 0.0
C379 C 0.72596 0.05305 0.01253 0.0
C380 C 0.70992 0.04328 0.08573 0.0
H381 H 0.72249 0.03411 0.89597 0.0
H382 H 0.74727 0.08327 -0.00068 0.0
S383 S 0.63386 0.94501 0.1507 0.0
N384 N 0.63913 0.9388 0.05931 0.0
N385 N 0.66507 0.99174 0.16981 0.0
C386 C 0.68163 1.00415 0.1004 0.0
C387 C 0.66748 0.97561 0.04066 0.0
C388 C 0.69253 0.68451 0.06677 0.0
C389 C 0.68538 0.64654 0.08243 0.0
C390 C 0.67424 0.70003 0.1063 0.0
C391 C 0.64786 0.67841 0.16365 0.0
H392 H 0.71294 0.70291 0.0241 0.0
H393 H 0.68142 0.72964 0.09216 0.0
S394 S 0.61723 0.57658 0.22437 0.0
N395 N 0.64871 0.58683 0.15745 0.0
N396 N 0.61424 0.61612 0.23208 0.0
C397 C 0.63945 0.63987 0.17862 0.0
C398 C 0.6582 0.62393 0.13801 0.0
C399 C 0.06195 0.70457 0.36255 0.0
C400 C 0.06771 0.68016 0.31395 0.0
C401 C 0.02861 0.69001 0.40341 0.0
C402 C 0.99932 0.65027 0.39791 0.0
H403 H 0.08314 0.73558 0.36841 0.0
H404 H 0.0257 0.7105 0.43879 0.0
S405 S 1.00086 0.57307 0.28245 0.0
N406 N 0.04179 0.61352 0.2654 0.0
N407 N 0.97899 0.58609 0.34251 0.0
C408 C 1.00502 0.62505 0.35147 0.0
C409 C 0.03918 0.63999 0.3095 0.0
C410 C 0.34316 1.00243 0.41053 0.0
C411 C 0.35552 0.04178 0.42824 0.0
C412 C 0.32876 0.97338 0.46726 0.0
C413 C 0.32669 0.98288 0.54359 0.0
H414 H 0.34726 0.99465 0.35365 0.0
H415 H 0.32205 0.94401 0.45245 0.0
S416 S 0.35372 0.08121 0.61852 0.0
N417 N 0.3627 0.08839 0.52604 0.0
N418 N 0.33616 0.03371 0.6334 0.0
C419 C 0.33657 0.02152 0.56112 0.0
C420 C 0.3509 0.05109 0.50307 0.0
C421 C 0.38789 0.37354 0.59773 0.0
C422 C 0.38266 0.40513 0.61078 0.0
C423 C 0.40701 0.36379 0.65068 0.0
C424 C 0.42167 0.38507 0.7194 0.0
H425 H 0.37633 0.35541 0.54696 0.0
H426 H 0.40929 0.33852 0.63833 0.0
S427 S 0.41885 0.47295 0.77804 0.0
N428 N 0.39624 0.45964 0.6953 0.0
N429 N 0.43202 0.44118 0.79489 0.0
C430 C 0.41815 0.41787 0.73175 0.0
C431 C 0.39873 0.42793 0.67751 0.0
loop_
_geom_bond_atom_site_label_1
_geom_bond_atom_site_label_2
_geom_bond_distance
_geom_bond_site_symmetry_2
_ccdc_geom_bond_type
Mg0 O1 2.028 . S
Mg0 O7 1.986 1_554 S
Mg0 O9 2.114 . S
Mg0 O10 2.251 . S
Mg0 O13 2.010 1_554 S
O1 Mg0 2.028 . S
O1 C4 1.250 . S
O2 Mg3 2.028 . S
O2 C4 1.248 . S
Mg3 O2 2.028 . S
Mg3 O8 2.032 1_554 S
Mg3 O10 2.079 . S
C4 O1 1.250 . S
C4 O2 1.248 . S
C5 O6 1.264 . S
C5 O13 1.249 . S
O6 C5 1.264 . S
O7 Mg0 1.986 1_556 S
O7 C11 1.246 . S
O8 Mg3 2.032 1_556 S
O8 C11 1.259 . S
O9 Mg0 2.114 . S
O9 C12 1.252 . S
O10 Mg0 2.251 . S
O10 Mg3 2.079 . S
O10 C12 1.273 . S
C11 O7 1.246 . S
C11 O8 1.259 . S
C12 O9 1.252 . S
C12 O10 1.273 . S
O13 Mg0 2.010 1_556 S
O13 C5 1.249 . S
Mg14 O15 2.028 . S
Mg14 O21 1.986 . S
Mg14 O23 2.114 . S
Mg14 O24 2.251 . S
Mg14 O27 2.010 . S
O15 Mg14 2.028 . S
O15 C18 1.250 . S
O16 Mg17 2.028 . S
O16 C18 1.248 . S
Mg17 O16 2.028 . S
Mg17 O22 2.032 . S
Mg17 O24 2.079 . S
C18 O15 1.250 . S
C18 O16 1.248 . S
C19 O20 1.264 . S
C19 O27 1.249 . S
O20 C19 1.264 . S
O21 Mg14 1.986 . S
O21 C25 1.246 . S
O22 Mg17 2.032 . S
O22 C25 1.259 . S
O23 Mg14 2.114 . S
O23 C26 1.252 . S
O24 Mg14 2.251 . S
O24 Mg17 2.079 . S
O24 C26 1.273 . S
C25 O21 1.246 . S
C25 O22 1.259 . S
C26 O23 1.252 . S
C26 O24 1.273 . S
O27 Mg14 2.010 . S
O27 C19 1.249 . S
Mg28 O29 2.028 . S
Mg28 O35 1.986 . S
Mg28 O37 2.114 . S
Mg28 O38 2.251 . S
Mg28 O41 2.010 . S
O29 Mg28 2.028 . S
O29 C32 1.250 . S
O30 Mg31 2.028 . S
O30 C32 1.248 . S
Mg31 O30 2.028 . S
Mg31 O36 2.032 . S
Mg31 O38 2.079 . S
C32 O29 1.250 . S
C32 O30 1.248 . S
C33 O34 1.264 . S
C33 O41 1.249 . S
O34 C33 1.264 . S
O35 Mg28 1.986 . S
O35 C39 1.246 . S
O36 Mg31 2.032 . S
O36 C39 1.259 . S
O37 Mg28 2.114 . S
O37 C40 1.252 . S
O38 Mg28 2.251 . S
O38 Mg31 2.079 . S
O38 C40 1.273 . S
C39 O35 1.246 . S
C39 O36 1.259 . S
C40 O37 1.252 . S
C40 O38 1.273 . S
O41 Mg28 2.010 . S
O41 C33 1.249 . S
Mg42 O43 2.028 . S
Mg42 O49 1.986 . S
Mg42 O51 2.114 . S
Mg42 O52 2.251 . S
Mg42 O55 2.010 . S
O43 Mg42 2.028 . S
O43 C46 1.250 . S
O44 Mg45 2.028 . S
O44 C46 1.248 . S
Mg45 O44 2.028 . S
Mg45 O50 2.032 . S
Mg45 O52 2.079 . S
C46 O43 1.250 . S
C46 O44 1.248 . S
C47 O48 1.264 . S
C47 O55 1.249 . S
O48 C47 1.264 . S
O49 Mg42 1.986 . S
O49 C53 1.246 . S
O50 Mg45 2.032 . S
O50 C53 1.259 . S
O51 Mg42 2.114 . S
O51 C54 1.252 . S
O52 Mg42 2.251 . S
O52 Mg45 2.079 . S
O52 C54 1.273 . S
C53 O49 1.246 . S
C53 O50 1.259 . S
C54 O51 1.252 . S
C54 O52 1.273 . S
O55 Mg42 2.010 . S
O55 C47 1.249 . S
Mg56 O57 2.028 . S
Mg56 O63 1.986 . S
Mg56 O65 2.114 . S
Mg56 O66 2.251 . S
Mg56 O69 2.010 . S
O57 Mg56 2.028 . S
O57 C60 1.250 . S
O58 Mg59 2.028 . S
O58 C60 1.248 . S
Mg59 O58 2.028 . S
Mg59 O64 2.032 . S
Mg59 O66 2.079 . S
C60 O57 1.250 . S
C60 O58 1.248 . S
C61 O62 1.264 . S
C61 O69 1.249 . S
O62 C61 1.264 . S
O63 Mg56 1.986 . S
O63 C67 1.246 . S
O64 Mg59 2.032 . S
O64 C67 1.259 . S
O65 Mg56 2.114 . S
O65 C68 1.252 . S
O66 Mg56 2.251 . S
O66 Mg59 2.079 . S
O66 C68 1.273 . S
C67 O63 1.246 . S
C67 O64 1.259 . S
C68 O65 1.252 . S
C68 O66 1.273 . S
O69 Mg56 2.010 . S
O69 C61 1.249 . S
Mg70 O71 2.028 . S
Mg70 O77 1.986 . S
Mg70 O79 2.114 . S
Mg70 O80 2.251 . S
Mg70 O83 2.010 . S
O71 Mg70 2.028 . S
O71 C74 1.250 . S
O72 Mg73 2.028 . S
O72 C74 1.248 . S
Mg73 O72 2.028 . S
Mg73 O78 2.032 . S
Mg73 O80 2.079 . S
C74 O71 1.250 . S
C74 O72 1.248 . S
C75 O76 1.264 . S
C75 O83 1.249 . S
O76 C75 1.264 . S
O77 Mg70 1.986 . S
O77 C81 1.246 . S
O78 Mg73 2.032 . S
O78 C81 1.259 . S
O79 Mg70 2.114 . S
O79 C82 1.252 . S
O80 Mg70 2.251 . S
O80 Mg73 2.079 . S
O80 C82 1.273 . S
C81 O77 1.246 . S
C81 O78 1.259 . S
C82 O79 1.252 . S
C82 O80 1.273 . S
O83 Mg70 2.010 . S
O83 C75 1.249 . S
Mg84 O85 2.028 . S
Mg84 O91 1.986 . S
Mg84 O93 2.114 . S
Mg84 O94 2.251 . S
Mg84 O97 2.010 . S
O85 Mg84 2.028 . S
O85 C88 1.250 . S
O86 Mg87 2.028 . S
O86 C88 1.248 1_554 S
Mg87 O86 2.028 . S
Mg87 O92 2.032 1_554 S
Mg87 O94 2.079 1_554 S
C88 O85 1.250 . S
C88 O86 1.248 1_556 S
C89 O90 1.264 . S
C89 O97 1.249 . S
O90 C89 1.264 . S
O91 Mg84 1.986 . S
O91 C95 1.246 . S
O92 Mg87 2.032 1_556 S
O92 C95 1.259 . S
O93 Mg84 2.114 . S
O93 C96 1.252 . S
O94 Mg84 2.251 . S
O94 Mg87 2.079 1_556 S
O94 C96 1.273 . S
C95 O91 1.246 . S
C95 O92 1.259 . S
C96 O93 1.252 . S
C96 O94 1.273 . S
O97 Mg84 2.010 . S
O97 C89 1.249 . S
Mg98 O99 2.028 . S
Mg98 O105 1.986 . S
Mg98 O107 2.114 1_554 S
Mg98 O108 2.251 1_554 S
Mg98 O111 2.010 . S
O99 Mg98 2.028 . S
O99 C102 1.250 . S
O100 Mg101 2.028 . S
O100 C102 1.248 1_556 S
Mg101 O100 2.028 . S
Mg101 O106 2.032 1_556 S
Mg101 O108 2.079 . S
C102 O99 1.250 . S
C102 O100 1.248 1_554 S
C103 O104 1.264 . S
C103 O111 1.249 . S
O104 C103 1.264 . S
O105 Mg98 1.986 . S
O105 C109 1.246 . S
O106 Mg101 2.032 1_554 S
O106 C109 1.259 . S
O107 Mg98 2.114 1_556 S
O107 C110 1.252 . S
O108 Mg98 2.251 1_556 S
O108 Mg101 2.079 . S
O108 C110 1.273 . S
C109 O105 1.246 . S
C109 O106 1.259 . S
C110 O107 1.252 . S
C110 O108 1.273 . S
O111 Mg98 2.010 . S
O111 C103 1.249 . S
Mg112 O113 2.028 . S
Mg112 O119 1.986 . S
Mg112 O121 2.114 . S
Mg112 O122 2.251 . S
Mg112 O125 2.010 . S
O113 Mg112 2.028 . S
O113 C116 1.250 . S
O114 Mg115 2.028 . S
O114 C116 1.248 . S
Mg115 O114 2.028 . S
Mg115 O120 2.032 . S
Mg115 O122 2.079 . S
C116 O113 1.250 . S
C116 O114 1.248 . S
C117 O118 1.264 . S
C117 O125 1.249 . S
O118 C117 1.264 . S
O119 Mg112 1.986 . S
O119 C123 1.246 . S
O120 Mg115 2.032 . S
O120 C123 1.259 . S
O121 Mg112 2.114 . S
O121 C124 1.252 . S
O122 Mg112 2.251 . S
O122 Mg115 2.079 . S
O122 C124 1.273 . S
C123 O119 1.246 . S
C123 O120 1.259 . S
C124 O121 1.252 . S
C124 O122 1.273 . S
O125 Mg112 2.010 . S
O125 C117 1.249 . S
Mg126 O127 2.028 . S
Mg126 O133 1.986 . S
Mg126 O135 2.114 . S
Mg126 O136 2.251 . S
Mg126 O139 2.010 . S
O127 Mg126 2.028 . S
O127 C130 1.250 . S
O128 Mg129 2.028 . S
O128 C130 1.248 . S
Mg129 O128 2.028 . S
Mg129 O134 2.032 . S
Mg129 O136 2.079 . S
C130 O127 1.250 . S
C130 O128 1.248 . S
C131 O132 1.264 . S
C131 O139 1.249 . S
O132 C131 1.264 . S
O133 Mg126 1.986 . S
O133 C137 1.246 . S
O134 Mg129 2.032 . S
O134 C137 1.259 . S
O135 Mg126 2.114 . S
O135 C138 1.252 . S
O136 Mg126 2.251 . S
O136 Mg129 2.079 . S
O136 C138 1.273 . S
C137 O133 1.246 . S
C137 O134 1.259 . S
C138 O135 1.252 . S
C138 O136 1.273 . S
O139 Mg126 2.010 . S
O139 C131 1.249 . S
Mg140 O141 2.028 . S
Mg140 O147 1.986 . S
Mg140 O149 2.114 . S
Mg140 O150 2.251 . S
Mg140 O153 2.010 . S
O141 Mg140 2.028 . S
O141 C144 1.250 . S
O142 Mg143 2.028 . S
O142 C144 1.248 . S
Mg143 O142 2.028 . S
Mg143 O148 2.032 . S
Mg143 O150 2.079 . S
C144 O141 1.250 . S
C144 O142 1.248 . S
C145 O146 1.264 . S
C145 O153 1.249 . S
O146 C145 1.264 . S
O147 Mg140 1.986 . S
O147 C151 1.246 . S
O148 Mg143 2.032 . S
O148 C151 1.259 . S
O149 Mg140 2.114 . S
O149 C152 1.252 . S
O150 Mg140 2.251 . S
O150 Mg143 2.079 . S
O150 C152 1.273 . S
C151 O147 1.246 . S
C151 O148 1.259 . S
C152 O149 1.252 . S
C152 O150 1.273 . S
O153 Mg140 2.010 . S
O153 C145 1.249 . S
Mg154 O155 2.028 . S
Mg154 O161 1.986 . S
Mg154 O163 2.114 . S
Mg154 O164 2.251 . S
Mg154 O167 2.010 . S
O155 Mg154 2.028 . S
O155 C158 1.250 . S
O156 Mg157 2.028 . S
O156 C158 1.248 . S
Mg157 O156 2.028 . S
Mg157 O162 2.032 . S
Mg157 O164 2.079 . S
C158 O155 1.250 . S
C158 O156 1.248 . S
C159 O160 1.264 . S
C159 O167 1.249 . S
O160 C159 1.264 . S
O161 Mg154 1.986 . S
O161 C165 1.246 . S
O162 Mg157 2.032 . S
O162 C165 1.259 . S
O163 Mg154 2.114 . S
O163 C166 1.252 . S
O164 Mg154 2.251 . S
O164 Mg157 2.079 . S
O164 C166 1.273 . S
C165 O161 1.246 . S
C165 O162 1.259 . S
C166 O163 1.252 . S
C166 O164 1.273 . S
O167 Mg154 2.010 . S
O167 C159 1.249 . S
C168 C169 1.369 . S
C168 C170 1.419 . S
C168 H172 0.930 . S
C169 C168 1.369 . S
C169 C178 1.429 . S
C170 C168 1.419 . S
C170 C171 1.363 . S
C170 H173 0.929 . S
C171 C170 1.363 . S
C171 C177 1.428 . S
H172 C168 0.930 . S
H173 C170 0.929 . S
S174 N175 1.613 . S
S174 N176 1.610 . S
N175 S174 1.613 . S
N175 C178 1.350 . S
N176 S174 1.610 . S
N176 C177 1.351 . S
C177 C171 1.428 . S
C177 N176 1.351 . S
C177 C178 1.434 . S
C178 C169 1.429 . S
C178 N175 1.350 . S
C178 C177 1.434 . S
C179 C180 1.369 . S
C179 C181 1.419 . S
C179 H183 0.930 . S
C180 C179 1.369 . S
C180 C189 1.429 . S
C181 C179 1.419 . S
C181 C182 1.363 . S
C181 H184 0.929 . S
C182 C181 1.363 . S
C182 C188 1.428 . S
H183 C179 0.930 . S
H184 C181 0.929 . S
S185 N186 1.613 . S
S185 N187 1.610 . S
N186 S185 1.613 . S
N186 C189 1.350 . S
N187 S185 1.610 . S
N187 C188 1.351 . S
C188 C182 1.428 . S
C188 N187 1.351 . S
C188 C189 1.434 . S
C189 C180 1.429 . S
C189 N186 1.350 . S
C189 C188 1.434 . S
C190 C191 1.369 . S
C190 C192 1.419 . S
C190 H194 0.930 . S
C191 C190 1.369 . S
C191 C200 1.429 . S
C192 C190 1.419 . S
C192 C193 1.363 . S
C192 H195 0.929 . S
C193 C192 1.363 . S
C193 C199 1.428 . S
H194 C190 0.930 . S
H195 C192 0.929 . S
S196 N197 1.613 . S
S196 N198 1.610 . S
N197 S196 1.613 . S
N197 C200 1.350 . S
N198 S196 1.610 . S
N198 C199 1.351 . S
C199 C193 1.428 . S
C199 N198 1.351 . S
C199 C200 1.434 . S
C200 C191 1.429 . S
C200 N197 1.350 . S
C200 C199 1.434 . S
C201 C202 1.369 . S
C201 C203 1.419 . S
C201 H205 0.930 . S
C202 C201 1.369 . S
C202 C211 1.429 . S
C203 C201 1.419 . S
C203 C204 1.363 . S
C203 H206 0.929 . S
C204 C203 1.363 . S
C204 C210 1.428 . S
H205 C201 0.930 . S
H206 C203 0.929 . S
S207 N208 1.613 . S
S207 N209 1.610 . S
N208 S207 1.613 . S
N208 C211 1.350 . S
N209 S207 1.610 . S
N209 C210 1.351 . S
C210 C204 1.428 . S
C210 N209 1.351 . S
C210 C211 1.434 . S
C211 C202 1.429 . S
C211 N208 1.350 . S
C211 C210 1.434 . S
C212 C213 1.369 . S
C212 C214 1.419 . S
C212 H216 0.930 . S
C213 C212 1.369 . S
C213 C222 1.429 . S
C214 C212 1.419 . S
C214 C215 1.363 1_556 S
C214 H217 0.929 . S
C215 C214 1.363 1_554 S
C215 C221 1.428 . S
H216 C212 0.930 . S
H217 C214 0.929 . S
S218 N219 1.613 . S
S218 N220 1.610 . S
N219 S218 1.613 . S
N219 C222 1.350 1_554 S
N220 S218 1.610 . S
N220 C221 1.351 . S
C221 C215 1.428 . S
C221 N220 1.351 . S
C221 C222 1.434 1_554 S
C222 C213 1.429 . S
C222 N219 1.350 1_556 S
C222 C221 1.434 1_556 S
C223 C224 1.369 . S
C223 C225 1.419 . S
C223 H227 0.930 . S
C224 C223 1.369 . S
C224 C233 1.429 . S
C225 C223 1.419 . S
C225 C226 1.363 . S
C225 H228 0.929 . S
C226 C225 1.363 . S
C226 C232 1.428 . S
H227 C223 0.930 . S
H228 C225 0.929 . S
S229 N230 1.613 . S
S229 N231 1.610 . S
N230 S229 1.613 . S
N230 C233 1.350 . S
N231 S229 1.610 . S
N231 C232 1.351 . S
C232 C226 1.428 . S
C232 N231 1.351 . S
C232 C233 1.434 . S
C233 C224 1.429 . S
C233 N230 1.350 . S
C233 C232 1.434 . S
C234 C235 1.369 . S
C234 C236 1.419 . S
C234 H238 0.930 . S
C235 C234 1.369 . S
C235 C244 1.429 . S
C236 C234 1.419 . S
C236 C237 1.363 . S
C236 H239 0.929 . S
C237 C236 1.363 . S
C237 C243 1.428 . S
H238 C234 0.930 . S
H239 C236 0.929 . S
S240 N241 1.613 . S
S240 N242 1.610 . S
N241 S240 1.613 . S
N241 C244 1.350 . S
N242 S240 1.610 . S
N242 C243 1.351 . S
C243 C237 1.428 . S
C243 N242 1.351 . S
C243 C244 1.434 . S
C244 C235 1.429 . S
C244 N241 1.350 . S
C244 C243 1.434 . S
C245 C246 1.369 . S
C245 C247 1.419 . S
C245 H249 0.930 . S
C246 C245 1.369 . S
C246 C255 1.429 . S
C247 C245 1.419 . S
C247 C248 1.363 . S
C247 H250 0.929 . S
C248 C247 1.363 . S
C248 C254 1.428 . S
H249 C245 0.930 . S
H250 C247 0.929 . S
S251 N252 1.613 . S
S251 N253 1.610 . S
N252 S251 1.613 . S
N252 C255 1.350 . S
N253 S251 1.610 . S
N253 C254 1.351 . S
C254 C248 1.428 . S
C254 N253 1.351 . S
C254 C255 1.434 . S
C255 C246 1.429 . S
C255 N252 1.350 . S
C255 C254 1.434 . S
C256 C257 1.369 . S
C256 C258 1.419 . S
C256 H260 0.930 . S
C257 C256 1.369 . S
C257 C266 1.429 . S
C258 C256 1.419 . S
C258 C259 1.363 . S
C258 H261 0.929 . S
C259 C258 1.363 . S
C259 C265 1.428 . S
H260 C256 0.930 . S
H261 C258 0.929 . S
S262 N263 1.613 . S
S262 N264 1.610 . S
N263 S262 1.613 . S
N263 C266 1.350 . S
N264 S262 1.610 . S
N264 C265 1.351 . S
C265 C259 1.428 . S
C265 N264 1.351 . S
C265 C266 1.434 . S
C266 C257 1.429 . S
C266 N263 1.350 . S
C266 C265 1.434 . S
C267 C268 1.369 . S
C267 C269 1.419 . S
C267 H271 0.930 . S
C268 C267 1.369 . S
C268 C277 1.429 . S
C269 C267 1.419 . S
C269 C270 1.363 . S
C269 H272 0.929 . S
C270 C269 1.363 . S
C270 C276 1.428 . S
H271 C267 0.930 . S
H272 C269 0.929 . S
S273 N274 1.613 . S
S273 N275 1.610 . S
N274 S273 1.613 . S
N274 C277 1.350 . S
N275 S273 1.610 . S
N275 C276 1.351 . S
C276 C270 1.428 . S
C276 N275 1.351 . S
C276 C277 1.434 . S
C277 C268 1.429 . S
C277 N274 1.350 . S
C277 C276 1.434 . S
C278 C279 1.369 . S
C278 C280 1.419 . S
C278 H282 0.930 . S
C279 C278 1.369 . S
C279 C288 1.429 . S
C280 C278 1.419 . S
C280 C281 1.363 . S
C280 H283 0.929 . S
C281 C280 1.363 . S
C281 C287 1.428 . S
H282 C278 0.930 . S
H283 C280 0.929 . S
S284 N285 1.613 . S
S284 N286 1.610 . S
N285 S284 1.613 . S
N285 C288 1.350 . S
N286 S284 1.610 . S
N286 C287 1.351 . S
C287 C281 1.428 . S
C287 N286 1.351 . S
C287 C288 1.434 . S
C288 C279 1.429 . S
C288 N285 1.350 . S
C288 C287 1.434 . S
C289 C290 1.369 . S
C289 C291 1.419 . S
C289 H293 0.930 . S
C290 C289 1.369 . S
C290 C299 1.429 . S
C291 C289 1.419 . S
C291 C292 1.363 . S
C291 H294 0.929 . S
C292 C291 1.363 . S
C292 C298 1.428 . S
H293 C289 0.930 . S
H294 C291 0.929 . S
S295 N296 1.613 . S
S295 N297 1.610 . S
N296 S295 1.613 . S
N296 C299 1.350 . S
N297 S295 1.610 . S
N297 C298 1.351 . S
C298 C292 1.428 . S
C298 N297 1.351 . S
C298 C299 1.434 . S
C299 C290 1.429 . S
C299 N296 1.350 . S
C299 C298 1.434 . S
C300 C301 1.369 . S
C300 C302 1.419 . S
C300 H304 0.930 . S
C301 C300 1.369 . S
C301 C310 1.429 . S
C302 C300 1.419 . S
C302 C303 1.363 . S
C302 H305 0.929 . S
C303 C302 1.363 . S
C303 C309 1.428 . S
H304 C300 0.930 . S
H305 C302 0.929 . S
S306 N307 1.613 . S
S306 N308 1.610 . S
N307 S306 1.613 . S
N307 C310 1.350 . S
N308 S306 1.610 . S
N308 C309 1.351 . S
C309 C303 1.428 . S
C309 N308 1.351 . S
C309 C310 1.434 . S
C310 C301 1.429 . S
C310 N307 1.350 . S
C310 C309 1.434 . S
C311 C312 1.369 . S
C311 C313 1.419 . S
C311 H315 0.930 . S
C312 C311 1.369 . S
C312 C321 1.429 1_554 S
C313 C311 1.419 . S
C313 C314 1.363 1_554 S
C313 H316 0.929 . S
C314 C313 1.363 1_556 S
C314 C320 1.428 . S
H315 C311 0.930 . S
H316 C313 0.929 . S
S317 N318 1.613 . S
S317 N319 1.610 . S
N318 S317 1.613 . S
N318 C321 1.350 . S
N319 S317 1.610 . S
N319 C320 1.351 . S
C320 C314 1.428 . S
C320 N319 1.351 . S
C320 C321 1.434 . S
C321 C312 1.429 1_556 S
C321 N318 1.350 . S
C321 C320 1.434 . S
C322 C323 1.369 . S
C322 C324 1.419 . S
C322 H326 0.930 . S
C323 C322 1.369 . S
C323 C332 1.429 . S
C324 C322 1.419 . S
C324 C325 1.363 . S
C324 H327 0.929 1_554 S
C325 C324 1.363 . S
C325 C331 1.428 . S
H326 C322 0.930 . S
H327 C324 0.929 1_556 S
S328 N329 1.613 . S
S328 N330 1.610 . S
N329 S328 1.613 . S
N329 C332 1.350 . S
N330 S328 1.610 . S
N330 C331 1.351 . S
C331 C325 1.428 . S
C331 N330 1.351 . S
C331 C332 1.434 . S
C332 C323 1.429 . S
C332 N329 1.350 . S
C332 C331 1.434 . S
C333 C334 1.369 . S
C333 C335 1.419 . S
C333 H337 0.930 . S
C334 C333 1.369 . S
C334 C343 1.429 . S
C335 C333 1.419 . S
C335 C336 1.363 . S
C335 H338 0.929 . S
C336 C335 1.363 . S
C336 C342 1.428 . S
H337 C333 0.930 . S
H338 C335 0.929 . S
S339 N340 1.613 . S
S339 N341 1.610 . S
N340 S339 1.613 . S
N340 C343 1.350 . S
N341 S339 1.610 . S
N341 C342 1.351 . S
C342 C336 1.428 . S
C342 N341 1.351 . S
C342 C343 1.434 . S
C343 C334 1.429 . S
C343 N340 1.350 . S
C343 C342 1.434 . S
C344 C345 1.369 . S
C344 C346 1.419 . S
C344 H348 0.930 . S
C345 C344 1.369 . S
C345 C354 1.429 . S
C346 C344 1.419 . S
C346 C347 1.363 . S
C346 H349 0.929 . S
C347 C346 1.363 . S
C347 C353 1.428 . S
H348 C344 0.930 . S
H349 C346 0.929 . S
S350 N351 1.613 . S
S350 N352 1.610 . S
N351 S350 1.613 . S
N351 C354 1.350 . S
N352 S350 1.610 . S
N352 C353 1.351 . S
C353 C347 1.428 . S
C353 N352 1.351 . S
C353 C354 1.434 . S
C354 C345 1.429 . S
C354 N351 1.350 . S
C354 C353 1.434 . S
C355 C356 1.369 . S
C355 C357 1.419 . S
C355 H359 0.930 . S
C356 C355 1.369 . S
C356 C365 1.429 . S
C357 C355 1.419 . S
C357 C358 1.363 . S
C357 H360 0.929 . S
C358 C357 1.363 . S
C358 C364 1.428 . S
H359 C355 0.930 . S
H360 C357 0.929 . S
S361 N362 1.613 . S
S361 N363 1.610 . S
N362 S361 1.613 . S
N362 C365 1.350 . S
N363 S361 1.610 . S
N363 C364 1.351 . S
C364 C358 1.428 . S
C364 N363 1.351 . S
C364 C365 1.434 . S
C365 C356 1.429 . S
C365 N362 1.350 . S
C365 C364 1.434 . S
C366 C367 1.369 . S
C366 C368 1.419 . S
C366 H370 0.930 . S
C367 C366 1.369 . S
C367 C376 1.424 1_455 S
C368 C366 1.419 . S
C368 C369 1.363 1_455 S
C368 H371 0.929 . S
C369 C368 1.363 1_655 S
C369 C375 1.428 . S
H370 C366 0.930 . S
H371 C368 0.929 . S
S372 N373 1.613 . S
S372 N374 1.610 1_554 S
N373 S372 1.613 . S
N373 C376 1.351 1_554 S
N374 S372 1.610 1_556 S
N374 C375 1.351 . S
C375 C369 1.428 . S
C375 N374 1.351 . S
C375 C376 1.438 . S
C376 C367 1.424 1_655 S
C376 N373 1.351 1_556 S
C376 C375 1.438 . S
C377 C378 1.369 . S
C377 C379 1.419 1_566 S
C377 H381 0.930 . S
C378 C377 1.369 . S
C378 C387 1.429 1_556 S
C379 C377 1.419 1_544 S
C379 C380 1.363 . S
C379 H382 0.929 . S
C380 C379 1.363 . S
C380 C386 1.428 . S
H381 C377 0.930 . S
H382 C379 0.929 . S
S383 N384 1.613 1_554 S
S383 N385 1.610 1_565 S
N384 S383 1.613 1_556 S
N384 C387 1.350 1_556 S
N385 S383 1.610 1_545 S
N385 C386 1.351 . S
C386 C380 1.428 . S
C386 N385 1.351 . S
C386 C387 1.434 1_545 S
C387 C378 1.429 1_554 S
C387 N384 1.350 1_554 S
C387 C386 1.434 1_565 S
C388 C389 1.369 . S
C388 C390 1.419 . S
C388 H392 0.930 . S
C389 C388 1.369 . S
C389 C398 1.429 . S
C390 C388 1.419 . S
C390 C391 1.363 . S
C390 H393 0.929 . S
C391 C390 1.363 . S
C391 C397 1.428 . S
H392 C388 0.930 . S
H393 C390 0.929 . S
S394 N395 1.613 . S
S394 N396 1.610 . S
N395 S394 1.613 . S
N395 C398 1.350 . S
N396 S394 1.610 . S
N396 C397 1.351 . S
C397 C391 1.428 . S
C397 N396 1.351 . S
C397 C398 1.434 . S
C398 C389 1.429 . S
C398 N395 1.350 . S
C398 C397 1.434 . S
C399 C400 1.369 1_655 S
C399 C401 1.419 . S
C399 H403 0.930 . S
C400 C399 1.369 1_455 S
C400 C409 1.429 . S
C401 C399 1.419 . S
C401 C402 1.363 . S
C401 H404 0.929 . S
C402 C401 1.363 . S
C402 C408 1.417 1_655 S
H403 C399 0.930 . S
H404 C401 0.929 . S
S405 N406 1.613 . S
S405 N407 1.610 . S
N406 S405 1.613 . S
N406 C409 1.350 . S
N407 S405 1.610 . S
N407 C408 1.355 . S
C408 C402 1.417 1_455 S
C408 N407 1.355 . S
C408 C409 1.443 . S
C409 C400 1.429 . S
C409 N406 1.350 . S
C409 C408 1.443 . S
C410 C411 1.369 1_565 S
C410 C412 1.419 . S
C410 H414 0.930 . S
C411 C410 1.369 1_545 S
C411 C420 1.429 . S
C412 C410 1.419 . S
C412 C413 1.363 . S
C412 H415 0.929 . S
C413 C412 1.363 . S
C413 C419 1.428 1_565 S
H414 C410 0.930 . S
H415 C412 0.929 . S
S416 N417 1.613 . S
S416 N418 1.610 . S
N417 S416 1.613 . S
N417 C420 1.350 . S
N418 S416 1.610 . S
N418 C419 1.351 . S
C419 C413 1.428 1_545 S
C419 N418 1.351 . S
C419 C420 1.434 . S
C420 C411 1.429 . S
C420 N417 1.350 . S
C420 C419 1.434 . S
C421 C422 1.369 . S
C421 C423 1.419 . S
C421 H425 0.930 . S
C422 C421 1.369 . S
C422 C431 1.429 . S
C423 C421 1.419 . S
C423 C424 1.363 . S
C423 H426 0.929 . S
C424 C423 1.363 . S
C424 C430 1.428 . S
H425 C421 0.930 . S
H426 C423 0.929 . S
S427 N428 1.613 . S
S427 N429 1.610 . S
N428 S427 1.613 . S
N428 C431 1.350 . S
N429 S427 1.610 . S
N429 C430 1.351 . S
C430 C424 1.428 . S
C430 N429 1.351 . S
C430 C431 1.434 . S
C431 C422 1.429 . S
C431 N428 1.350 . S
C431 C430 1.434 . S
C169 C12 1.342 . S
C171 C152 1.344 . S
C180 C166 1.316 . S
C182 C19 1.219 . S
C191 C40 1.315 . S
C193 C89 1.222 . S
C202 C54 1.338 . S
C204 C110 1.343 . S
C213 C61 1.212 . S
C215 C124 1.313 . S
C224 C131 1.214 . S
C226 C82 1.313 1_554 S
C235 C4 1.557 . S
C237 C116 1.544 . S
C246 C25 1.523 . S
C248 C137 1.522 . S
C257 C144 1.560 . S
C259 C32 1.541 . S
C268 C46 1.563 . S
C270 C158 1.548 . S
C279 C67 1.523 . S
C281 C95 1.522 . S
C290 C74 1.541 . S
C292 C102 1.559 1_556 S
C301 C151 1.059 . S
C303 C11 1.051 . S
C312 C18 1.093 . S
C314 C165 1.103 . S
C323 C39 1.103 . S
C325 C88 1.095 1_554 S
C334 C53 1.058 . S
C336 C109 1.053 . S
C345 C123 1.109 . S
C347 C60 1.100 . S
C356 C81 1.107 . S
C358 C130 1.098 . S
C367 C5 1.353 . S
C369 C159 1.378 . S
C378 C96 1.529 . S
C380 C26 1.528 . S
C389 C103 1.355 . S
C391 C33 1.388 . S
C400 C117 1.382 . S
C402 C47 1.358 . S
C411 C138 1.526 . S
C413 C68 1.533 . S
C422 C145 1.356 . S
C424 C75 1.388 . S
