# Generated by pormake.
# Topology unv, (4)-cn, num edge types: 1
# Building blocks:
#     Node 0, Type 0, BuildingBlock: QUQFOY_clean_sbu_1, # of connection points: 4
#     Node 1, Type 0, BuildingBlock: QUQFOY_clean_sbu_1, # of connection points: 4
#     Node 2, Type 0, BuildingBlock: QUQFOY_clean_sbu_1, # of connection points: 4
#     Node 3, Type 0, BuildingBlock: QUQFOY_clean_sbu_1, # of connection points: 4
#     Node 4, Type 0, BuildingBlock: QUQFOY_clean_sbu_1, # of connection points: 4
#     Node 5, Type 0, BuildingBlock: QUQFOY_clean_sbu_1, # of connection points: 4
#     Node 6, Type 0, BuildingBlock: QUQFOY_clean_sbu_1, # of connection points: 4
#     Node 7, Type 0, BuildingBlock: QUQFOY_clean_sbu_1, # of connection points: 4
#     Node 8, Type 0, BuildingBlock: QUQFOY_clean_sbu_1, # of connection points: 4
#     Node 9, Type 0, BuildingBlock: QUQFOY_clean_sbu_1, # of connection points: 4
#     Node 10, Type 0, BuildingBlock: QUQFOY_clean_sbu_1, # of connection points: 4
#     Node 11, Type 0, BuildingBlock: QUQFOY_clean_sbu_1, # of connection points: 4
#     Node 12, Type 0, BuildingBlock: QUQFOY_clean_sbu_1, # of connection points: 4
#     Node 13, Type 0, BuildingBlock: QUQFOY_clean_sbu_1, # of connection points: 4
#     Node 14, Type 0, BuildingBlock: QUQFOY_clean_sbu_1, # of connection points: 4
#     Node 15, Type 0, BuildingBlock: QUQFOY_clean_sbu_1, # of connection points: 4
#     Node 16, Type 0, BuildingBlock: QUQFOY_clean_sbu_1, # of connection points: 4
#     Node 17, Type 0, BuildingBlock: QUQFOY_clean_sbu_1, # of connection points: 4
#     Node 18, Type 0, BuildingBlock: QUQFOY_clean_sbu_1, # of connection points: 4
#     Node 19, Type 0, BuildingBlock: QUQFOY_clean_sbu_1, # of connection points: 4
#     Node 20, Type 0, BuildingBlock: QUQFOY_clean_sbu_1, # of connection points: 4
#     Node 21, Type 0, BuildingBlock: QUQFOY_clean_sbu_1, # of connection points: 4
#     Node 22, Type 0, BuildingBlock: QUQFOY_clean_sbu_1, # of connection points: 4
#     Node 23, Type 0, BuildingBlock: QUQFOY_clean_sbu_1, # of connection points: 4
#     Edge 24, Type (0, 0), BuildingBlock: CIFDUS_clean_linker_0, # of connection points: 2
#     Edge 25, Type (0, 0), BuildingBlock: CIFDUS_clean_linker_0, # of connection points: 2
#     Edge 26, Type (0, 0), BuildingBlock: CIFDUS_clean_linker_0, # of connection points: 2
#     Edge 27, Type (0, 0), BuildingBlock: CIFDUS_clean_linker_0, # of connection points: 2
#     Edge 28, Type (0, 0), BuildingBlock: CIFDUS_clean_linker_0, # of connection points: 2
#     Edge 29, Type (0, 0), BuildingBlock: CIFDUS_clean_linker_0, # of connection points: 2
#     Edge 30, Type (0, 0), BuildingBlock: CIFDUS_clean_linker_0, # of connection points: 2
#     Edge 31, Type (0, 0), BuildingBlock: CIFDUS_clean_linker_0, # of connection points: 2
#     Edge 32, Type (0, 0), BuildingBlock: CIFDUS_clean_linker_0, # of connection points: 2
#     Edge 33, Type (0, 0), BuildingBlock: CIFDUS_clean_linker_0, # of connection points: 2
#     Edge 34, Type (0, 0), BuildingBlock: CIFDUS_clean_linker_0, # of connection points: 2
#     Edge 35, Type (0, 0), BuildingBlock: CIFDUS_clean_linker_0, # of connection points: 2
#     Edge 36, Type (0, 0), BuildingBlock: CIFDUS_clean_linker_0, # of connection points: 2
#     Edge 37, Type (0, 0), BuildingBlock: CIFDUS_clean_linker_0, # of connection points: 2
#     Edge 38, Type (0, 0), BuildingBlock: CIFDUS_clean_linker_0, # of connection points: 2
#     Edge 39, Type (0, 0), BuildingBlock: CIFDUS_clean_linker_0, # of connection points: 2
#     Edge 40, Type (0, 0), BuildingBlock: CIFDUS_clean_linker_0, # of connection points: 2
#     Edge 41, Type (0, 0), BuildingBlock: CIFDUS_clean_linker_0, # of connection points: 2
#     Edge 42, Type (0, 0), BuildingBlock: CIFDUS_clean_linker_0, # of connection points: 2
#     Edge 43, Type (0, 0), BuildingBlock: CIFDUS_clean_linker_0, # of connection points: 2
#     Edge 44, Type (0, 0), BuildingBlock: CIFDUS_clean_linker_0, # of connection points: 2
#     Edge 45, Type (0, 0), BuildingBlock: CIFDUS_clean_linker_0, # of connection points: 2
#     Edge 46, Type (0, 0), BuildingBlock: CIFDUS_clean_linker_0, # of connection points: 2
#     Edge 47, Type (0, 0), BuildingBlock: CIFDUS_clean_linker_0, # of connection points: 2
#     Edge 48, Type (0, 0), BuildingBlock: CIFDUS_clean_linker_0, # of connection points: 2
#     Edge 49, Type (0, 0), BuildingBlock: CIFDUS_clean_linker_0, # of connection points: 2
#     Edge 50, Type (0, 0), BuildingBlock: CIFDUS_clean_linker_0, # of connection points: 2
#     Edge 51, Type (0, 0), BuildingBlock: CIFDUS_clean_linker_0, # of connection points: 2
#     Edge 52, Type (0, 0), BuildingBlock: CIFDUS_clean_linker_0, # of connection points: 2
#     Edge 53, Type (0, 0), BuildingBlock: CIFDUS_clean_linker_0, # of connection points: 2
#     Edge 54, Type (0, 0), BuildingBlock: CIFDUS_clean_linker_0, # of connection points: 2
#     Edge 55, Type (0, 0), BuildingBlock: CIFDUS_clean_linker_0, # of connection points: 2
#     Edge 56, Type (0, 0), BuildingBlock: CIFDUS_clean_linker_0, # of connection points: 2
#     Edge 57, Type (0, 0), BuildingBlock: CIFDUS_clean_linker_0, # of connection points: 2
#     Edge 58, Type (0, 0), BuildingBlock: CIFDUS_clean_linker_0, # of connection points: 2
#     Edge 59, Type (0, 0), BuildingBlock: CIFDUS_clean_linker_0, # of connection points: 2
#     Edge 60, Type (0, 0), BuildingBlock: CIFDUS_clean_linker_0, # of connection points: 2
#     Edge 61, Type (0, 0), BuildingBlock: CIFDUS_clean_linker_0, # of connection points: 2
#     Edge 62, Type (0, 0), BuildingBlock: CIFDUS_clean_linker_0, # of connection points: 2
#     Edge 63, Type (0, 0), BuildingBlock: CIFDUS_clean_linker_0, # of connection points: 2
#     Edge 64, Type (0, 0), BuildingBlock: CIFDUS_clean_linker_0, # of connection points: 2
#     Edge 65, Type (0, 0), BuildingBlock: CIFDUS_clean_linker_0, # of connection points: 2
#     Edge 66, Type (0, 0), BuildingBlock: CIFDUS_clean_linker_0, # of connection points: 2
#     Edge 67, Type (0, 0), BuildingBlock: CIFDUS_clean_linker_0, # of connection points: 2
#     Edge 68, Type (0, 0), BuildingBlock: CIFDUS_clean_linker_0, # of connection points: 2
#     Edge 69, Type (0, 0), BuildingBlock: CIFDUS_clean_linker_0, # of connection points: 2
#     Edge 70, Type (0, 0), BuildingBlock: CIFDUS_clean_linker_0, # of connection points: 2
#     Edge 71, Type (0, 0), BuildingBlock: CIFDUS_clean_linker_0, # of connection points: 2
# Relax obj value: 0.127
# Max RMSD: 0.150
# Mean RMSD: 0.124
data_MOF--net-unv--node1-QUQFOY_clean_sbu_1--edge1-CIFDUS_clean_linker_0
_symmetry_space_group_name_H-M    P1
_symmetry_Int_Tables_number       1
_symmetry_cell_setting            triclinic
loop_
_symmetry_equiv_pos_as_xyz
'x, y, z'
_cell_length_a     45.731726
_cell_length_b     45.796509
_cell_length_c     45.883075
_cell_angle_alpha  89.880851
_cell_angle_beta   89.818989
_cell_angle_gamma 89.93409
loop_
_atom_site_label
_atom_site_type_symbol
_atom_site_fract_x
_atom_site_fract_y
_atom_site_fract_z
_atom_type_partial_charge
O0 O 0.07105 0.11197 0.42927 0.0
Cd1 Cd 0.03541 0.11995 0.40284 0.0
Cd2 Cd 0.07023 0.0797 0.36601 0.0
O3 O 0.09954 0.08737 0.39907 0.0
O4 O 0.01635 0.15357 0.42272 0.0
O5 O 0.03336 0.15631 0.37767 0.0
C6 C 0.0212 0.16901 0.39971 0.0
C7 C 0.08929 0.05927 0.32309 0.0
C8 C 0.09513 0.09923 0.42371 0.0
C9 C 0.00868 0.06262 0.38915 0.0
O10 O 0.03253 0.05743 0.37594 0.0
O11 O 0.00428 0.08722 0.40117 0.0
O12 O 0.0902 0.04577 0.34758 0.0
O13 O 0.07931 0.08563 0.32306 0.0
O14 O 0.94113 0.39273 0.41948 0.0
Cd15 Cd 0.97089 0.38724 0.38608 0.0
Cd16 Cd 0.92923 0.43159 0.36195 0.0
O17 O 0.90687 0.42034 0.39953 0.0
O18 O 0.99364 0.3533 0.40112 0.0
O19 O 0.96924 0.35175 0.35971 0.0
C20 C 0.98509 0.33853 0.3789 0.0
C21 C 0.90488 0.45555 0.32368 0.0
C22 C 0.91667 0.40584 0.4211 0.0
C23 C 0.99435 0.44638 0.37402 0.0
O24 O 0.96825 0.45283 0.36729 0.0
O25 O 1.00117 0.42044 0.38122 0.0
O26 O 0.90663 0.46669 0.34927 0.0
O27 O 0.91452 0.42927 0.32032 0.0
O28 O 0.06433 0.89245 0.08789 0.0
Cd29 Cd 0.02968 0.88482 0.11577 0.0
Cd30 Cd 0.06312 0.92677 0.15052 0.0
O31 O 0.09196 0.91909 0.11684 0.0
O32 O 0.01221 0.84838 0.10012 0.0
O33 O 0.03072 0.85135 0.14453 0.0
C34 C 0.01877 0.83577 0.12437 0.0
C35 C 0.08348 0.94832 0.19217 0.0
C36 C 0.08795 0.90616 0.09271 0.0
C37 C 1.00057 0.94117 0.12846 0.0
O38 O 0.02419 0.94742 0.14148 0.0
O39 O 0.99725 0.91633 0.1166 0.0
O40 O 0.08255 0.96164 0.16758 0.0
O41 O 0.07418 0.92174 0.19304 0.0
O42 O 0.94904 0.6073 0.07888 0.0
Cd43 Cd 0.9812 0.61427 0.10937 0.0
Cd44 Cd 0.94142 0.56791 0.13883 0.0
O45 O 0.91761 0.57879 0.10213 0.0
O46 O 0.00274 0.6469 0.09032 0.0
O47 O 0.98115 0.65169 0.1331 0.0
C48 C 0.99553 0.6634 0.11183 0.0
C49 C 0.91664 0.54106 0.17524 0.0
C50 C 0.92498 0.59349 0.07972 0.0
C51 C 0.00723 0.55628 0.12368 0.0
O52 O 0.98208 0.54936 0.13324 0.0
O53 O 0.01218 0.58164 0.11353 0.0
O54 O 0.92113 0.53077 0.14963 0.0
O55 O 0.92456 0.56766 0.17997 0.0
O56 O 0.44607 0.02966 0.10195 0.0
Cd57 Cd 0.41147 0.00255 0.11207 0.0
Cd58 Cd 0.38347 0.04045 0.06803 0.0
O59 O 0.42211 0.06281 0.07607 0.0
O60 O 0.41906 0.98417 0.15095 0.0
O61 O 0.38351 0.01616 0.14323 0.0
C62 C 0.39779 0.99965 0.16113 0.0
C63 C 0.34491 0.06456 0.04358 0.0
C64 C 0.44555 0.05376 0.08809 0.0
C65 C 0.39459 0.97437 0.05688 0.0
O66 O 0.38701 0.99992 0.04928 0.0
O67 O 0.40414 0.9694 0.08239 0.0
O68 O 0.37014 0.0609 0.0318 0.0
O69 O 0.34204 0.05685 0.0705 0.0
O70 O 0.55549 0.47124 0.09674 0.0
Cd71 Cd 0.58749 0.50165 0.1043 0.0
Cd72 Cd 0.61595 0.46567 0.05676 0.0
O73 O 0.57849 0.44191 0.06599 0.0
O74 O 0.57446 0.52018 0.14125 0.0
O75 O 0.61608 0.49586 0.13709 0.0
C76 C 0.59781 0.5101 0.15327 0.0
C77 C 0.65253 0.44152 0.02955 0.0
C78 C 0.55612 0.44825 0.08133 0.0
C79 C 0.60193 0.53203 0.04912 0.0
O80 O 0.61172 0.50752 0.0406 0.0
O81 O 0.59107 0.53501 0.07444 0.0
O82 O 0.62728 0.44728 0.01887 0.0
O83 O 0.65677 0.44786 0.0566 0.0
O84 O 0.44059 0.94897 0.39486 0.0
Cd85 Cd 0.4081 0.97807 0.38283 0.0
Cd86 Cd 0.37963 0.94985 0.43331 0.0
O87 O 0.41783 0.92576 0.43083 0.0
O88 O 0.4189 0.99306 0.34318 0.0
O89 O 0.38 0.96548 0.35132 0.0
C90 C 0.39647 0.97945 0.33313 0.0
C91 C 0.33789 0.93006 0.4562 0.0
C92 C 0.44024 0.92949 0.4147 0.0
C93 C 0.39409 0.01542 0.43462 0.0
O94 O 0.38432 0.99227 0.44632 0.0
O95 O 0.40406 0.01511 0.40871 0.0
O96 O 0.36176 0.93454 0.47015 0.0
O97 O 0.3382 0.9347 0.42844 0.0
O98 O 0.60377 0.55839 0.40265 0.0
Cd99 Cd 0.59586 0.52306 0.37624 0.0
Cd100 Cd 0.62972 0.54827 0.45482 0.0
O101 O 0.59722 0.57833 0.44488 0.0
O102 O 0.5685 0.52564 0.34291 0.0
O103 O 0.61698 0.5231 0.33847 0.0
C104 C 0.5915 0.52477 0.32634 0.0
C105 C 0.66713 0.55959 0.48657 0.0
C106 C 0.58765 0.57364 0.41933 0.0
C107 C 0.61555 0.49008 0.42352 0.0
O108 O 0.6297 0.51404 0.42468 0.0
O109 O 0.60136 0.48503 0.40019 0.0
O110 O 0.64456 0.54511 0.49562 0.0
O111 O 0.66825 0.56728 0.45943 0.0
O112 O 0.09569 0.42303 0.02544 0.0
Cd113 Cd 0.10063 0.3879 0.99782 0.0
Cd114 Cd 0.05923 0.36317 0.03974 0.0
O115 O 0.07088 0.40138 0.06089 0.0
O116 O 0.13631 0.39544 0.97388 0.0
O117 O 0.1333 0.35951 0.00618 0.0
C118 C 0.14851 0.37381 0.98715 0.0
C119 C 0.03794 0.32442 0.06601 0.0
C120 C 0.08386 0.42376 0.05057 0.0
C121 C 0.04177 0.37378 0.97549 0.0
O122 O 0.03599 0.36706 0.00171 0.0
O123 O 0.06732 0.38182 0.96815 0.0
O124 O 0.02566 0.34959 0.06422 0.0
O125 O 0.0639 0.32184 0.05519 0.0
O126 O 0.09581 0.56962 0.47311 0.0
Cd127 Cd 0.10598 0.59955 0.50471 0.0
Cd128 Cd 0.05817 0.62824 0.47818 0.0
O129 O 0.06244 0.59432 0.44869 0.0
O130 O 0.14512 0.58525 0.51677 0.0
O131 O 0.13815 0.62911 0.49775 0.0
C132 C 0.15597 0.6094 0.50724 0.0
C133 C 0.0422 0.67405 0.46147 0.0
C134 C 0.07822 0.57164 0.45187 0.0
C135 C 0.05298 0.60613 0.54136 0.0
O136 O 0.04171 0.61776 0.51884 0.0
O137 O 0.0796 0.59806 0.54129 0.0
O138 O 0.025 0.65186 0.46232 0.0
O139 O 0.0691 0.67003 0.469 0.0
O140 O 0.91588 0.93145 0.48768 0.0
Cd141 Cd 0.90808 0.89775 0.51627 0.0
Cd142 Cd 0.94602 0.87026 0.47842 0.0
O143 O 0.9392 0.90725 0.45319 0.0
O144 O 0.86997 0.90838 0.53433 0.0
O145 O 0.87623 0.86878 0.50733 0.0
C146 C 0.85886 0.88587 0.52166 0.0
C147 C 0.95686 0.82457 0.45823 0.0
C148 C 0.92793 0.93083 0.46271 0.0
C149 C 0.96523 0.88377 0.54111 0.0
O150 O 0.97085 0.87579 0.51521 0.0
O151 O 0.93969 0.89235 0.54804 0.0
O152 O 0.97436 0.84637 0.45545 0.0
O153 O 0.93171 0.82934 0.47021 0.0
O154 O 0.39244 0.56596 0.53274 0.0
Cd155 Cd 0.37969 0.59212 0.49869 0.0
Cd156 Cd 0.41512 0.63351 0.5309 0.0
O157 O 0.41178 0.59978 0.56093 0.0
O158 O 0.34406 0.5729 0.48349 0.0
O159 O 0.34353 0.6169 0.50343 0.0
C160 C 0.3293 0.59522 0.49236 0.0
C161 C 0.43174 0.67881 0.54855 0.0
C162 C 0.40396 0.57347 0.55672 0.0
C163 C 0.43249 0.61192 0.46865 0.0
O164 O 0.43668 0.62587 0.49215 0.0
O165 O 0.40967 0.59656 0.46523 0.0
O166 O 0.44743 0.65561 0.5498 0.0
O167 O 0.40539 0.67618 0.53897 0.0
O168 O 0.50521 0.62066 0.91663 0.0
Cd169 Cd 0.48179 0.62487 0.87862 0.0
Cd170 Cd 0.52529 0.58639 0.85767 0.0
O171 O 0.54381 0.59972 0.8965 0.0
O172 O 0.4611 0.6631 0.87914 0.0
O173 O 0.49805 0.65309 0.84926 0.0
C174 C 0.47924 0.67168 0.85928 0.0
C175 C 0.55572 0.56561 0.82193 0.0
C176 C 0.53123 0.61108 0.91853 0.0
C177 C 0.461 0.56638 0.86353 0.0
O178 O 0.48798 0.56135 0.85935 0.0
O179 O 0.45226 0.59184 0.87019 0.0
O180 O 0.55247 0.55394 0.8472 0.0
O181 O 0.5436 0.5907 0.81756 0.0
O182 O 0.48723 0.89167 0.91642 0.0
Cd183 Cd 0.51058 0.88703 0.8782 0.0
Cd184 Cd 0.47052 0.93037 0.85999 0.0
O185 O 0.45032 0.917 0.8983 0.0
O186 O 0.53025 0.84825 0.87963 0.0
O187 O 0.49449 0.85881 0.8488 0.0
C188 C 0.51264 0.83992 0.85938 0.0
C189 C 0.44388 0.95361 0.82284 0.0
C190 C 0.46217 0.90338 0.91945 0.0
C191 C 0.536 0.94464 0.8665 0.0
O192 O 0.5095 0.95232 0.86359 0.0
O193 O 0.54256 0.91802 0.87073 0.0
O194 O 0.44623 0.96473 0.84841 0.0
O195 O 0.4543 0.92768 0.81897 0.0
O196 O 0.56097 0.40698 0.57875 0.0
Cd197 Cd 0.52959 0.39074 0.60693 0.0
Cd198 Cd 0.55466 0.44625 0.63807 0.0
O199 O 0.58236 0.44299 0.60275 0.0
O200 O 0.5169 0.35586 0.58412 0.0
O201 O 0.53422 0.35207 0.62868 0.0
C202 C 0.52418 0.33946 0.60567 0.0
C203 C 0.57013 0.47808 0.67537 0.0
C204 C 0.58008 0.4271 0.5802 0.0
C205 C 0.48943 0.44119 0.61859 0.0
O206 O 0.51129 0.45435 0.6294 0.0
O207 O 0.4917 0.41517 0.60926 0.0
O208 O 0.56439 0.48715 0.64956 0.0
O209 O 0.56859 0.45033 0.68001 0.0
O210 O 0.46168 0.1072 0.5744 0.0
Cd211 Cd 0.49459 0.11651 0.60371 0.0
Cd212 Cd 0.46095 0.0688 0.63557 0.0
O213 O 0.43372 0.07773 0.60076 0.0
O214 O 0.5114 0.1539 0.58878 0.0
O215 O 0.49129 0.14986 0.63244 0.0
C216 C 0.5037 0.16606 0.61292 0.0
C217 C 0.4413 0.04025 0.6739 0.0
C218 C 0.43867 0.0919 0.57734 0.0
C219 C 0.52575 0.06086 0.61491 0.0
O220 O 0.50182 0.05253 0.62629 0.0
O221 O 0.52847 0.08661 0.60489 0.0
O222 O 0.44414 0.03036 0.64791 0.0
O223 O 0.44776 0.06733 0.67808 0.0
O224 O 0.91328 0.52307 0.61995 0.0
Cd225 Cd 0.87914 0.49387 0.62489 0.0
Cd226 Cd 0.84892 0.53466 0.59764 0.0
O227 O 0.88465 0.56 0.6083 0.0
O228 O 0.8832 0.47076 0.66142 0.0
O229 O 0.84904 0.50466 0.65474 0.0
C230 C 0.86146 0.4857 0.67157 0.0
C231 C 0.80215 0.55433 0.59193 0.0
C232 C 0.90995 0.55007 0.61425 0.0
C233 C 0.86196 0.47819 0.56574 0.0
O234 O 0.85476 0.50492 0.56469 0.0
O235 O 0.87076 0.46711 0.58956 0.0
O236 O 0.82388 0.56277 0.5762 0.0
O237 O 0.80755 0.53681 0.61333 0.0
O238 O 0.10534 0.97979 0.62199 0.0
Cd239 Cd 0.1419 0.00568 0.62635 0.0
Cd240 Cd 0.16216 0.96836 0.58172 0.0
O241 O 0.1246 0.94589 0.59357 0.0
O242 O 0.13683 0.027 0.66381 0.0
O243 O 0.17158 0.99402 0.65663 0.0
C244 C 0.15853 0.01216 0.67385 0.0
C245 C 0.20329 0.94367 0.56331 0.0
C246 C 0.10325 0.95559 0.60862 0.0
C247 C 0.15136 0.0331 0.56869 0.0
O248 O 0.15652 0.00731 0.55994 0.0
O249 O 0.14666 0.03812 0.59549 0.0
O250 O 0.17905 0.94461 0.54921 0.0
O251 O 0.20367 0.95498 0.58908 0.0
O252 O 0.90254 0.46874 0.89457 0.0
Cd253 Cd 0.86558 0.49405 0.88989 0.0
Cd254 Cd 0.84397 0.45226 0.92959 0.0
O255 O 0.88186 0.43109 0.91663 0.0
O256 O 0.87042 0.51659 0.85306 0.0
O257 O 0.83738 0.48159 0.85878 0.0
C258 C 0.85001 0.50062 0.84215 0.0
C259 C 0.80395 0.42692 0.94917 0.0
C260 C 0.90409 0.44291 0.90468 0.0
C261 C 0.85255 0.51596 0.94854 0.0
O262 O 0.84859 0.48918 0.95438 0.0
O263 O 0.85785 0.5241 0.92258 0.0
O264 O 0.82915 0.42649 0.96147 0.0
O265 O 0.80213 0.43914 0.92385 0.0
O266 O 0.09936 0.02703 0.8958 0.0
Cd267 Cd 0.13631 0.00156 0.8914 0.0
Cd268 Cd 0.15443 0.03845 0.93871 0.0
O269 O 0.11669 0.06035 0.92601 0.0
O270 O 0.13234 0.98105 0.8534 0.0
O271 O 0.16679 0.01386 0.86197 0.0
C272 C 0.15436 0.99597 0.84416 0.0
C273 C 0.19253 0.06276 0.96311 0.0
C274 C 0.09617 0.05068 0.90995 0.0
C275 C 0.14447 0.97258 0.94831 0.0
O276 O 0.14893 0.99817 0.95789 0.0
O277 O 0.14045 0.96822 0.92132 0.0
O278 O 0.1669 0.06015 0.97439 0.0
O279 O 0.19604 0.05378 0.93666 0.0
O280 O 0.61157 0.91361 0.54727 0.0
Cd281 Cd 0.63389 0.89412 0.51204 0.0
Cd282 Cd 0.57106 0.8521 0.54361 0.0
O283 O 0.57532 0.88866 0.56937 0.0
O284 O 0.66948 0.91769 0.50413 0.0
O285 O 0.67097 0.87168 0.51934 0.0
C286 C 0.68472 0.89534 0.51224 0.0
C287 C 0.5415 0.81243 0.55452 0.0
C288 C 0.59172 0.91119 0.56694 0.0
C289 C 0.58861 0.87114 0.48365 0.0
O290 O 0.59432 0.85635 0.50639 0.0
O291 O 0.60909 0.88733 0.47462 0.0
O292 O 0.53119 0.83478 0.54065 0.0
O293 O 0.5687 0.81289 0.56235 0.0
O294 O 0.61315 0.09358 0.93186 0.0
Cd295 Cd 0.62322 0.12138 0.96567 0.0
Cd296 Cd 0.57132 0.15365 0.93435 0.0
O297 O 0.58018 0.11887 0.90709 0.0
O298 O 0.66027 0.10374 0.98061 0.0
O299 O 0.65809 0.14872 0.96334 0.0
C300 C 0.67356 0.1276 0.97387 0.0
C301 C 0.53895 0.18907 0.91493 0.0
C302 C 0.5961 0.09626 0.91019 0.0
C303 C 0.56835 0.13252 0.99952 0.0
O304 O 0.55873 0.14477 0.9766 0.0
O305 O 0.59395 0.12162 0.00027 0.0
O306 O 0.53099 0.16272 0.92004 0.0
O307 O 0.56602 0.19542 0.91949 0.0
O308 O 0.37454 0.42413 0.94985 0.0
Cd309 Cd 0.36926 0.38798 0.9763 0.0
Cd310 Cd 0.41426 0.36633 0.93485 0.0
O311 O 0.40148 0.40478 0.91462 0.0
O312 O 0.33318 0.39511 0.99979 0.0
O313 O 0.3366 0.35994 0.96689 0.0
C314 C 0.32116 0.37381 0.98601 0.0
C315 C 0.44063 0.33071 0.90877 0.0
C316 C 0.38731 0.42627 0.92524 0.0
C317 C 0.42769 0.37463 0.00046 0.0
O318 O 0.43494 0.36971 0.97424 0.0
O319 O 0.4015 0.38117 0.00702 0.0
O320 O 0.45027 0.35682 0.91195 0.0
O321 O 0.41441 0.3254 0.91781 0.0
O322 O 0.90467 0.07014 0.02984 0.0
Cd323 Cd 0.89659 0.10241 0.99952 0.0
Cd324 Cd 0.93886 0.13162 0.04078 0.0
O325 O 0.92966 0.0937 0.06365 0.0
O326 O 0.86246 0.086 0.9781 0.0
O327 O 0.85989 0.12733 0.00261 0.0
C328 C 0.84689 0.10751 0.98744 0.0
C329 C 0.96205 0.17034 0.06545 0.0
C330 C 0.91734 0.07057 0.05445 0.0
C331 C 0.95464 0.11851 0.97572 0.0
O332 O 0.95992 0.12712 0.00145 0.0
O333 O 0.92965 0.10841 0.96904 0.0
O334 O 0.97413 0.14522 0.06253 0.0
O335 O 0.93547 0.17307 0.05649 0.0
H336 H 0.1735 0.03529 0.51401 0.0
H337 H 0.11741 0.08202 0.5736 0.0
H338 H 0.0984 0.11138 0.53332 0.0
H339 H 0.09096 0.11655 0.48049 0.0
H340 H 0.14627 0.06839 0.42106 0.0
H341 H 0.17272 0.04736 0.46199 0.0
C342 C 0.15765 0.05242 0.51827 0.0
C343 C 0.14639 0.05606 0.54658 0.0
C344 C 0.14638 0.06872 0.49497 0.0
C345 C 0.1263 0.07867 0.55195 0.0
C346 C 0.11523 0.0953 0.52887 0.0
C347 C 0.10928 0.10205 0.47642 0.0
C348 C 0.11601 0.09345 0.44771 0.0
C349 C 0.12405 0.08944 0.50013 0.0
C350 C 0.1402 0.07503 0.4429 0.0
C351 C 0.1553 0.06284 0.46634 0.0
H352 H 0.86982 0.43962 0.4355 0.0
H353 H 0.93177 0.37863 0.47211 0.0
H354 H 0.9169 0.3927 0.52119 0.0
H355 H 0.89246 0.42832 0.55337 0.0
H356 H 0.83237 0.49069 0.51606 0.0
H357 H 0.84013 0.46987 0.46789 0.0
C358 C 0.8796 0.42884 0.45416 0.0
C359 C 0.90232 0.40855 0.45002 0.0
C360 C 0.87159 0.43764 0.48237 0.0
C361 C 0.91448 0.39464 0.47457 0.0
C362 C 0.90611 0.40278 0.50273 0.0
C363 C 0.88055 0.43686 0.5348 0.0
C364 C 0.86233 0.46137 0.53823 0.0
C365 C 0.88565 0.42522 0.50688 0.0
C366 C 0.84695 0.47214 0.51395 0.0
C367 C 0.85137 0.46027 0.48634 0.0
H368 H 0.08281 0.88954 0.03583 0.0
H369 H 0.14 0.93519 0.09501 0.0
H370 H 0.16692 0.95565 0.05397 0.0
H371 H 0.1676 0.96837 0.00217 0.0
H372 H 0.10948 0.92455 0.94279 0.0
H373 H 0.09007 0.89506 0.98291 0.0
C374 C 0.10164 0.90334 0.03979 0.0
C375 C 0.10879 0.91149 0.06849 0.0
C376 C 0.11666 0.91566 0.01602 0.0
C377 C 0.13359 0.92899 0.07318 0.0
C378 C 0.14898 0.94082 0.04969 0.0
C379 C 0.15125 0.95178 0.9979 0.0
C380 C 0.13952 0.94904 0.96977 0.0
C381 C 0.13969 0.93554 0.02112 0.0
C382 C 0.11875 0.92716 0.96433 0.0
C383 C 0.10744 0.91049 0.98732 0.0
H384 H 0.87342 0.56486 0.0725 0.0
H385 H 0.93793 0.61536 0.02558 0.0
H386 H 0.91681 0.60003 0.97937 0.0
H387 H 0.8864 0.56466 0.9527 0.0
H388 H 0.824 0.51227 0.0002 0.0
H389 H 0.83746 0.53637 0.04551 0.0
C390 C 0.88248 0.57309 0.05221 0.0
C391 C 0.9077 0.5906 0.05258 0.0
C392 C 0.87075 0.56357 0.02567 0.0
C393 C 0.91878 0.60147 0.02602 0.0
C394 C 0.90679 0.59261 0.9995 0.0
C395 C 0.87509 0.55928 0.97282 0.0
C396 C 0.85462 0.53643 0.97324 0.0
C397 C 0.8837 0.57251 0.99906 0.0
C398 C 0.84014 0.52956 0.99945 0.0
C399 C 0.84792 0.54323 0.0254 0.0
H400 H 0.45254 0.10883 0.06685 0.0
H401 H 0.50134 0.03322 0.09502 0.0
H402 H 0.54599 0.0538 0.07425 0.0
H403 H 0.569 0.0891 0.04053 0.0
H404 H 0.51939 0.1639 0.01159 0.0
H405 H 0.47764 0.14813 0.04065 0.0
C406 C 0.47305 0.09711 0.06901 0.0
C407 C 0.47339 0.06925 0.08193 0.0
C408 C 0.49859 0.10884 0.0566 0.0
C409 C 0.50031 0.05462 0.08497 0.0
C410 C 0.5259 0.06631 0.07293 0.0
C411 C 0.5494 0.10243 0.04134 0.0
C412 C 0.54716 0.12734 0.02348 0.0
C413 C 0.52504 0.09281 0.05758 0.0
C414 C 0.52156 0.14438 0.0248 0.0
C415 C 0.49757 0.13531 0.04132 0.0
H416 H 0.54983 0.39619 0.0537 0.0
H417 H 0.50107 0.46192 0.10055 0.0
H418 H 0.45526 0.44049 0.08407 0.0
H419 H 0.42985 0.40933 0.04851 0.0
H420 H 0.47923 0.34538 1.00001 0.0
H421 H 0.52373 0.35937 0.02545 0.0
C422 C 0.52919 0.40546 0.06086 0.0
C423 C 0.52896 0.43107 0.07767 0.0
C424 C 0.50292 0.39346 0.05076 0.0
C425 C 0.50197 0.44243 0.08724 0.0
C426 C 0.47568 0.43026 0.07772 0.0
C427 C 0.45015 0.39778 0.04431 0.0
C428 C 0.4514 0.37676 0.02208 0.0
C429 C 0.47595 0.40667 0.0583 0.0
C430 C 0.47785 0.36196 0.01678 0.0
C431 C 0.50335 0.37005 0.03119 0.0
H432 H 0.56764 0.8779 0.42891 0.0
H433 H 0.54263 0.88518 0.51913 0.0
H434 H 0.49323 0.89846 0.50538 0.0
H435 H 0.45805 0.91226 0.46791 0.0
H436 H 0.48439 0.91318 0.37763 0.0
H437 H 0.53216 0.89276 0.39089 0.0
C438 C 0.55115 0.88198 0.44545 0.0
C439 C 0.55833 0.87857 0.47507 0.0
C440 C 0.52305 0.8915 0.43726 0.0
C441 C 0.53718 0.88509 0.49632 0.0
C442 C 0.50899 0.89351 0.4884 0.0
C443 C 0.47403 0.90743 0.45106 0.0
C444 C 0.46762 0.91386 0.42182 0.0
C445 C 0.50174 0.89699 0.45897 0.0
C446 C 0.48881 0.90825 0.40029 0.0
C447 C 0.51613 0.8967 0.40789 0.0
H448 H 0.45375 0.56528 0.43835 0.0
H449 H 0.46648 0.65737 0.45293 0.0
H450 H 0.51561 0.65437 0.43248 0.0
H451 H 0.558 0.62374 0.42137 0.0
H452 H 0.54708 0.53131 0.40879 0.0
H453 H 0.49425 0.53609 0.41705 0.0
C454 C 0.46688 0.58484 0.43586 0.0
C455 C 0.45674 0.61145 0.44739 0.0
C456 C 0.49568 0.58271 0.42502 0.0
C457 C 0.474 0.63663 0.44435 0.0
C458 C 0.50217 0.63489 0.43288 0.0
C459 C 0.54379 0.60489 0.41934 0.0
C460 C 0.55611 0.57729 0.41457 0.0
C461 C 0.51376 0.60778 0.42479 0.0
C462 C 0.53783 0.55283 0.41215 0.0
C463 C 0.5077 0.55555 0.41721 0.0
H464 H 0.06157 0.43358 0.10475 0.0
H465 H 0.09951 0.478 0.03069 0.0
H466 H 0.08375 0.52491 0.05032 0.0
H467 H 0.05107 0.55196 0.08351 0.0
H468 H 0.01133 0.50677 0.15609 0.0
H469 H 0.0364 0.46184 0.14241 0.0
C470 C 0.06699 0.45355 0.09319 0.0
C471 C 0.08106 0.45212 0.06592 0.0
C472 C 0.05726 0.48043 0.10423 0.0
C473 C 0.08835 0.47832 0.05154 0.0
C474 C 0.07922 0.50523 0.06269 0.0
C475 C 0.0487 0.53254 0.09687 0.0
C476 C 0.02898 0.53256 0.12045 0.0
C477 C 0.06244 0.50641 0.0883 0.0
C478 C 0.02609 0.5072 0.13757 0.0
C479 C 0.0403 0.48143 0.12968 0.0
H480 H 0.04404 0.44772 0.40681 0.0
H481 H 0.991 0.50021 0.34927 0.0
H482 H 0.016 0.54418 0.36533 0.0
H483 H 0.04613 0.56836 0.4021 0.0
H484 H 0.0986 0.51618 0.46044 0.0
H485 H 0.08107 0.4717 0.43735 0.0
C486 C 0.03861 0.46866 0.39713 0.0
C487 C 0.01524 0.47075 0.37742 0.0
C488 C 0.05261 0.49409 0.40699 0.0
C489 C 0.00857 0.49805 0.36493 0.0
C490 C 0.02277 0.52328 0.37417 0.0
C491 C 0.05422 0.5473 0.40936 0.0
C492 C 0.07304 0.54565 0.43343 0.0
C493 C 0.04373 0.52171 0.39628 0.0
C494 C 0.08376 0.51816 0.44219 0.0
C495 C 0.07366 0.49262 0.42907 0.0
H496 H 0.95501 0.93913 0.41031 0.0
H497 H 0.91184 0.98566 0.48 0.0
H498 H 0.92943 0.03191 0.46047 0.0
H499 H 0.96383 0.0582 0.42848 0.0
H500 H 0.00762 0.01127 0.35945 0.0
H501 H 0.98267 0.96651 0.37354 0.0
C502 C 0.9489 0.95941 0.42089 0.0
C503 C 0.93271 0.95875 0.44696 0.0
C504 C 0.95951 0.98601 0.40984 0.0
C505 C 0.92465 0.98536 0.46011 0.0
C506 C 0.9348 0.01192 0.44902 0.0
C507 C 0.96733 0.03837 0.41606 0.0
C508 C 0.98808 0.03801 0.39339 0.0
C509 C 0.9533 0.0124 0.42463 0.0
C510 C 0.99217 0.01211 0.37737 0.0
C511 C 0.97795 0.9864 0.38544 0.0
H512 H 0.39726 0.51457 0.55159 0.0
H513 H 0.43033 0.58086 0.60963 0.0
H514 H 0.45516 0.54353 0.63829 0.0
H515 H 0.47502 0.49403 0.64095 0.0
H516 H 0.44483 0.42823 0.58095 0.0
H517 H 0.41069 0.46324 0.5596 0.0
C518 C 0.40933 0.52084 0.5709 0.0
C519 C 0.41253 0.55061 0.57797 0.0
C520 C 0.42432 0.49934 0.58681 0.0
C521 C 0.42788 0.55821 0.60334 0.0
C522 C 0.44219 0.53686 0.61973 0.0
C523 C 0.46047 0.4871 0.62366 0.0
C524 C 0.46302 0.45876 0.61207 0.0
C525 C 0.44176 0.50761 0.61077 0.0
C526 C 0.44357 0.44997 0.59012 0.0
C527 C 0.42421 0.47009 0.5777 0.0
H528 H 0.55972 0.57372 0.04584 0.0
H529 H 0.63725 0.54187 0.00251 0.0
H530 H 0.62463 0.56943 0.95879 0.0
H531 H 0.58675 0.5936 0.93014 0.0
H532 H 0.50725 0.62249 0.97214 0.0
H533 H 0.52572 0.60573 0.01913 0.0
C534 C 0.57435 0.57368 0.02718 0.0
C535 C 0.59911 0.55545 0.02717 0.0
C536 C 0.56629 0.58861 0.00163 0.0
C537 C 0.61787 0.55549 0.00285 0.0
C538 C 0.61058 0.57111 0.97778 0.0
C539 C 0.5737 0.59687 0.94966 0.0
C540 C 0.54533 0.60854 0.94746 0.0
C541 C 0.58403 0.58634 0.97642 0.0
C542 C 0.529 0.61317 0.97308 0.0
C543 C 0.53949 0.60344 1.0 0.0
H544 H 0.43615 0.93237 0.04997 0.0
H545 H 0.35825 0.96802 0.01087 0.0
H546 H 0.37012 0.94423 0.96483 0.0
H547 H 0.40745 0.92216 0.93351 0.0
H548 H 0.48677 0.88851 0.97175 0.0
H549 H 0.46938 0.90214 0.02015 0.0
C550 C 0.42122 0.93392 0.0317 0.0
C551 C 0.39656 0.95217 0.03366 0.0
C552 C 0.42882 0.92112 0.00485 0.0
C553 C 0.3775 0.95423 0.00976 0.0
C554 C 0.3844 0.94084 0.98335 0.0
C555 C 0.42068 0.91721 0.95247 0.0
C556 C 0.44868 0.905 0.94886 0.0
C557 C 0.41082 0.92565 0.98022 0.0
C558 C 0.46527 0.89824 0.97377 0.0
C559 C 0.45539 0.90615 0.00154 0.0
H560 H 0.56726 0.41133 0.52494 0.0
H561 H 0.62753 0.46348 0.5749 0.0
H562 H 0.64614 0.4857 0.52997 0.0
H563 H 0.64148 0.49378 0.47686 0.0
H564 H 0.57742 0.44474 0.42865 0.0
H565 H 0.56458 0.41741 0.47234 0.0
C566 C 0.58492 0.42708 0.52608 0.0
C567 C 0.59586 0.4358 0.55331 0.0
C568 C 0.59455 0.44065 0.5004 0.0
C569 C 0.61864 0.45641 0.55423 0.0
C570 C 0.62916 0.46927 0.52856 0.0
C571 C 0.62445 0.47745 0.4761 0.0
C572 C 0.60976 0.47213 0.44978 0.0
C573 C 0.61652 0.46229 0.50162 0.0
C574 C 0.58875 0.44975 0.44871 0.0
C575 C 0.58137 0.43404 0.47371 0.0
H576 H 0.45143 0.10279 0.52022 0.0
H577 H 0.38448 0.06697 0.57639 0.0
H578 H 0.36061 0.04494 0.53443 0.0
H579 H 0.3646 0.02771 0.48422 0.0
H580 H 0.43348 0.06018 0.42854 0.0
H581 H 0.45019 0.09234 0.4676 0.0
C582 C 0.43114 0.0909 0.52321 0.0
C583 C 0.42013 0.08601 0.55155 0.0
C584 C 0.41806 0.07737 0.49906 0.0
C585 C 0.39371 0.07069 0.55493 0.0
C586 C 0.38008 0.05798 0.53093 0.0
C587 C 0.38281 0.0424 0.48035 0.0
C588 C 0.39818 0.04109 0.45375 0.0
C589 C 0.39296 0.05988 0.50322 0.0
C590 C 0.42135 0.06063 0.44885 0.0
C591 C 0.43112 0.0788 0.47132 0.0
H592 H 0.0021 0.63217 0.55679 0.0
H593 H 0.05914 0.5607 0.57961 0.0
H594 H 0.02029 0.53886 0.60915 0.0
H595 H 0.96765 0.53562 0.62041 0.0
H596 H 0.9107 0.60701 0.59649 0.0
H597 H 0.95207 0.63349 0.57601 0.0
C598 C 0.00627 0.61221 0.56886 0.0
C599 C 0.03323 0.59779 0.56557 0.0
C600 C 0.98368 0.59951 0.58529 0.0
C601 C 0.03853 0.5722 0.58169 0.0
C602 C 0.0162 0.55954 0.59837 0.0
C603 C 0.96437 0.55728 0.61139 0.0
C604 C 0.93591 0.56891 0.60933 0.0
C605 C 0.98826 0.57229 0.59912 0.0
C606 C 0.93223 0.59724 0.59798 0.0
C607 C 0.95589 0.61241 0.58611 0.0
H608 H 0.97254 0.924 0.58417 0.0
H609 H 0.01446 0.85087 0.54211 0.0
H610 H 0.06116 0.8643 0.56369 0.0
H611 H 0.09141 0.9018 0.58654 0.0
H612 H 0.05015 0.97624 0.62708 0.0
H613 H 0.00206 0.95711 0.61455 0.0
C614 C 0.99169 0.91045 0.58062 0.0
C615 C 0.99018 0.88675 0.56126 0.0
C616 C 0.0188 0.91889 0.59233 0.0
C617 C 0.01519 0.86943 0.5567 0.0
C618 C 0.04196 0.8772 0.56888 0.0
C619 C 0.0719 0.91356 0.59319 0.0
C620 C 0.07448 0.94074 0.60711 0.0
C621 C 0.0443 0.90273 0.58545 0.0
C622 C 0.0489 0.95541 0.61602 0.0
C623 C 0.02131 0.94454 0.60876 0.0
H624 H 0.03465 0.41289 0.9314 0.0
H625 H 0.99284 0.34049 0.97491 0.0
H626 H 0.94641 0.3528 0.95194 0.0
H627 H 0.91621 0.38935 0.92743 0.0
H628 H 0.9572 0.46379 0.88643 0.0
H629 H 0.0053 0.44523 0.89996 0.0
C630 C 0.0156 0.39925 0.935 0.0
C631 C 0.01702 0.37606 0.95505 0.0
C632 C 0.98862 0.40718 0.92262 0.0
C633 C 0.99215 0.35864 0.95973 0.0
C634 C 0.96555 0.36577 0.94675 0.0
C635 C 0.93566 0.40123 0.92086 0.0
C636 C 0.93298 0.42828 0.90656 0.0
C637 C 0.96323 0.39086 0.9294 0.0
C638 C 0.95852 0.4431 0.89785 0.0
C639 C 0.9861 0.43256 0.90567 0.0
H640 H 0.08213 0.1042 0.93178 0.0
H641 H 0.04412 0.02841 0.89103 0.0
H642 H 0.9952 0.04604 0.90294 0.0
H643 H 0.96401 0.07831 0.93285 0.0
H644 H 0.00257 0.15324 0.97454 0.0
H645 H 0.05011 0.14106 0.95374 0.0
C646 C 0.06315 0.09183 0.92494 0.0
C647 C 0.0669 0.0647 0.91114 0.0
C648 C 0.03502 0.10188 0.9322 0.0
C649 C 0.04198 0.04923 0.90198 0.0
C650 C 0.0139 0.05924 0.90889 0.0
C651 C 0.98259 0.09254 0.93646 0.0
C652 C 0.97987 0.11636 0.95557 0.0
C653 C 0.01021 0.08489 0.92513 0.0
C654 C 0.00419 0.13456 0.96016 0.0
C655 C 0.03146 0.1275 0.94844 0.0
H656 H 0.52968 0.00775 0.64042 0.0
H657 H 0.5724 0.06301 0.57702 0.0
H658 H 0.60092 0.02126 0.55961 0.0
H659 H 0.60678 0.96788 0.5567 0.0
H660 H 0.56061 0.91265 0.61779 0.0
H661 H 0.54051 0.95565 0.6419 0.0
C662 C 0.54565 0.01086 0.62315 0.0
C663 C 0.54846 0.03836 0.60963 0.0
C664 C 0.56102 0.98662 0.61253 0.0
C665 C 0.56965 0.04208 0.5877 0.0
C666 C 0.58578 0.01812 0.57756 0.0
C667 C 0.59289 0.96523 0.57572 0.0
C668 C 0.58483 0.93702 0.58512 0.0
C669 C 0.5806 0.99007 0.58892 0.0
C670 C 0.56684 0.93406 0.60984 0.0
C671 C 0.55529 0.95865 0.62362 0.0
H672 H 0.6172 0.04079 0.91654 0.0
H673 H 0.56242 0.094 0.86117 0.0
H674 H 0.54286 0.05029 0.8383 0.0
H675 H 0.53426 0.99767 0.84101 0.0
H676 H 0.58691 0.94417 0.8978 0.0
H677 H 0.61485 0.98721 0.91261 0.0
C678 C 0.60157 0.0429 0.89894 0.0
C679 C 0.59074 0.07069 0.89116 0.0
C680 C 0.58975 0.01757 0.88637 0.0
C681 C 0.57077 0.07293 0.86801 0.0
C682 C 0.55947 0.04791 0.85495 0.0
C683 C 0.55237 0.99532 0.85607 0.0
C684 C 0.55817 0.96796 0.86876 0.0
C685 C 0.56767 0.02019 0.86505 0.0
C686 C 0.58197 0.96505 0.88783 0.0
C687 C 0.59774 0.98971 0.8965 0.0
H688 H 0.41385 0.55771 0.8989 0.0
H689 H 0.46451 0.51775 0.83029 0.0
H690 H 0.44154 0.47073 0.84019 0.0
H691 H 0.41441 0.43961 0.87404 0.0
H692 H 0.36598 0.47868 0.94487 0.0
H693 H 0.38019 0.52723 0.9281 0.0
C694 C 0.41906 0.53891 0.88551 0.0
C695 C 0.44103 0.54107 0.86412 0.0
C696 C 0.40657 0.51158 0.89209 0.0
C697 C 0.4478 0.5165 0.84705 0.0
C698 C 0.43481 0.48957 0.85281 0.0
C699 C 0.40638 0.45873 0.88548 0.0
C700 C 0.38971 0.45536 0.91107 0.0
C701 C 0.4153 0.48657 0.87622 0.0
C702 C 0.37918 0.4805 0.92531 0.0
C703 C 0.38741 0.50835 0.91581 0.0
H704 H 0.94235 0.06252 0.10768 0.0
H705 H 0.90336 0.01544 0.03627 0.0
H706 H 0.92196 0.96955 0.05584 0.0
H707 H 0.95654 0.94418 0.08833 0.0
H708 H 0.99633 0.99189 0.15888 0.0
H709 H 0.96984 0.03578 0.14481 0.0
C710 C 0.93734 0.04218 0.09671 0.0
C711 C 0.92207 0.04262 0.07017 0.0
C712 C 0.94859 0.01586 0.10775 0.0
C713 C 0.91539 0.01591 0.05656 0.0
C714 C 0.92616 0.98958 0.06766 0.0
C715 C 0.95879 0.96395 0.10109 0.0
C716 C 0.9789 0.96487 0.1242 0.0
C717 C 0.94391 0.98946 0.09251 0.0
C718 C 0.9814 0.99067 0.14063 0.0
C719 C 0.9663 0.01588 0.13258 0.0
H720 H 0.0115 0.20509 0.35287 0.0
H721 H 0.01582 0.20389 0.44684 0.0
H722 H 0.00621 0.25613 0.44835 0.0
H723 H 0.99655 0.30212 0.42344 0.0
H724 H 0.9882 0.30415 0.32992 0.0
H725 H 0.99938 0.25172 0.32768 0.0
C726 C 0.0103 0.21635 0.37361 0.0
C727 C 0.01444 0.20062 0.3997 0.0
C728 C 0.00411 0.24652 0.3744 0.0
C729 C 0.01257 0.2154 0.42645 0.0
C730 C 0.00718 0.24533 0.42736 0.0
C731 C 0.99734 0.29115 0.40252 0.0
C732 C 0.99192 0.30701 0.37686 0.0
C733 C 0.00295 0.26108 0.40153 0.0
C734 C 0.99242 0.29238 0.34997 0.0
C735 C 0.99881 0.26244 0.34871 0.0
H736 H 0.99597 0.70306 0.15672 0.0
H737 H 0.00884 0.69501 0.0638 0.0
H738 H 0.01632 0.74738 0.05968 0.0
H739 H 0.01845 0.79559 0.08185 0.0
H740 H 0.00936 0.80479 0.17489 0.0
H741 H 1.00115 0.75198 0.17964 0.0
C742 C 1.00054 0.71283 0.13565 0.0
C743 C 1.00175 0.69511 0.1106 0.0
C744 C 0.00535 0.74317 0.13341 0.0
C745 C 0.00791 0.70804 0.08346 0.0
C746 C 0.01207 0.73806 0.08101 0.0
C747 C 0.01455 0.78606 0.10318 0.0
C748 C 0.0141 0.80402 0.12793 0.0
C749 C 0.01066 0.75582 0.10576 0.0
C750 C 0.00967 0.79134 0.1555 0.0
C751 C 0.00497 0.76119 0.1582 0.0
H752 H 0.39575 0.95357 0.19846 0.0
H753 H 0.38718 0.04721 0.19466 0.0
H754 H 0.38491 0.04947 0.24796 0.0
H755 H 0.38958 0.02491 0.29584 0.0
H756 H 0.39308 0.93101 0.29962 0.0
H757 H 0.39284 0.92853 0.24624 0.0
C758 C 0.39291 0.97438 0.20938 0.0
C759 C 0.39187 1.00022 0.19281 0.0
C760 C 0.39086 0.97541 0.23999 0.0
C761 C 0.38792 0.02705 0.20704 0.0
C762 C 0.3868 0.02836 0.23749 0.0
C763 C 0.38975 0.00396 0.28486 0.0
C764 C 0.39149 0.97817 0.30141 0.0
C765 C 0.38885 0.00273 0.25422 0.0
C766 C 0.39157 0.95108 0.28718 0.0
C767 C 0.39161 0.9497 0.2567 0.0
H768 H 0.55824 0.5283 0.19324 0.0
H769 H 0.64758 0.49907 0.18452 0.0
H770 H 0.6539 0.5023 0.23738 0.0
H771 H 0.63335 0.5117 0.28614 0.0
H772 H 0.54322 0.53864 0.29451 0.0
H773 H 0.53792 0.53804 0.2416 0.0
C774 C 0.5792 0.52285 0.20283 0.0
C775 C 0.60244 0.51352 0.18497 0.0
C776 C 0.58247 0.52421 0.23317 0.0
C777 C 0.62935 0.5063 0.1978 0.0
C778 C 0.63296 0.50812 0.22801 0.0
C779 C 0.6126 0.51761 0.27638 0.0
C780 C 0.5887 0.52519 0.29425 0.0
C781 C 0.60957 0.51677 0.24593 0.0
C782 C 0.56191 0.5326 0.28127 0.0
C783 C 0.55887 0.5323 0.25101 0.0
H784 H 0.27939 0.36628 0.94519 0.0
H785 H 0.29336 0.368 0.03795 0.0
H786 H 0.24066 0.36355 0.04657 0.0
H787 H 0.19031 0.36447 0.02759 0.0
H788 H 0.17631 0.37024 0.93497 0.0
H789 H 0.22903 0.36617 0.92619 0.0
C790 C 0.27082 0.36503 0.96723 0.0
C791 C 0.29003 0.3671 0.99094 0.0
C792 C 0.24042 0.36406 0.97194 0.0
C793 C 0.27882 0.36626 0.01944 0.0
C794 C 0.24874 0.36382 0.02434 0.0
C795 C 0.19888 0.36419 0.00552 0.0
C796 C 0.17964 0.36729 0.98192 0.0
C797 C 0.22927 0.36343 0.00077 0.0
C798 C 0.19085 0.3677 0.95341 0.0
C799 C 0.22094 0.36547 0.94841 0.0
H800 H 0.19492 0.56673 0.49785 0.0
H801 H 0.18856 0.65973 0.51047 0.0
H802 H 0.24203 0.66402 0.50653 0.0
H803 H 0.29076 0.64058 0.50039 0.0
H804 H 0.29507 0.54776 0.48429 0.0
H805 H 0.24222 0.54422 0.48838 0.0
C806 C 0.20525 0.58795 0.4999 0.0
C807 C 0.188 0.61281 0.50495 0.0
C808 C 0.23562 0.59027 0.49677 0.0
C809 C 0.20152 0.64026 0.5068 0.0
C810 C 0.23203 0.64268 0.50452 0.0
C811 C 0.28006 0.61966 0.49757 0.0
C812 C 0.29693 0.59446 0.49217 0.0
C813 C 0.24935 0.61776 0.49958 0.0
C814 C 0.28271 0.56754 0.48836 0.0
C815 C 0.25244 0.56542 0.49085 0.0
H816 H 0.72519 0.85121 0.51129 0.0
H817 H 0.71644 0.94474 0.51891 0.0
H818 H 0.76916 0.94956 0.52451 0.0
H819 H 0.81776 0.92765 0.52656 0.0
H820 H 0.82814 0.83487 0.51476 0.0
H821 H 0.77485 0.8292 0.51167 0.0
C822 C 0.7349 0.8726 0.51419 0.0
C823 C 0.71691 0.89758 0.51471 0.0
C824 C 0.76549 0.87532 0.51678 0.0
C825 C 0.72978 0.92519 0.51823 0.0
C826 C 0.75994 0.92798 0.52157 0.0
C827 C 0.80836 0.90612 0.52363 0.0
C828 C 0.82679 0.88165 0.5213 0.0
C829 C 0.77797 0.90324 0.52086 0.0
C830 C 0.81434 0.854 0.5168 0.0
C831 C 0.78391 0.85079 0.51497 0.0
H832 H 0.46439 0.80756 0.84913 0.0
H833 H 0.55839 0.80261 0.85276 0.0
H834 H 0.5563 0.74945 0.84773 0.0
H835 H 0.52748 0.70414 0.84905 0.0
H836 H 0.43344 0.70902 0.85263 0.0
H837 H 0.43556 0.76222 0.8477 0.0
C838 C 0.48438 0.79483 0.84805 0.0
C839 C 0.51151 0.80884 0.85108 0.0
C840 C 0.48289 0.76418 0.84676 0.0
C841 C 0.53729 0.79218 0.85036 0.0
C842 C 0.53607 0.76182 0.84761 0.0
C843 C 0.50748 0.71686 0.84797 0.0
C844 C 0.48034 0.70281 0.85097 0.0
C845 C 0.50897 0.74751 0.84674 0.0
C846 C 0.45456 0.71947 0.85027 0.0
C847 C 0.45579 0.74986 0.84757 0.0
H848 H 0.51858 0.29884 0.64946 0.0
H849 H 0.52407 0.30792 0.55596 0.0
H850 H 0.51944 0.2553 0.55022 0.0
H851 H 0.51293 0.2068 0.57128 0.0
H852 H 0.50395 0.19673 0.66433 0.0
H853 H 0.51079 0.24946 0.67075 0.0
C854 C 0.51888 0.2892 0.6279 0.0
C855 C 0.52173 0.30729 0.60318 0.0
C856 C 0.5155 0.25875 0.62465 0.0
C857 C 0.52178 0.29455 0.57534 0.0
C858 C 0.51918 0.26441 0.572 0.0
C859 C 0.51263 0.21607 0.59302 0.0
C860 C 0.50813 0.19783 0.6173 0.0
C861 C 0.5159 0.24633 0.59645 0.0
C862 C 0.50738 0.21031 0.64526 0.0
C863 C 0.51132 0.24045 0.64894 0.0
H864 H 0.84708 0.4556 0.80461 0.0
H865 H 0.84131 0.54933 0.80948 0.0
H866 H 0.83968 0.55255 0.75619 0.0
H867 H 0.84594 0.52902 0.70838 0.0
H868 H 0.85926 0.43597 0.70397 0.0
H869 H 0.8517 0.4319 0.75668 0.0
C870 C 0.84471 0.47661 0.79389 0.0
C871 C 0.84389 0.50218 0.81071 0.0
C872 C 0.84552 0.47833 0.76331 0.0
C873 C 0.8417 0.5294 0.7968 0.0
C874 C 0.84093 0.53122 0.76639 0.0
C875 C 0.84654 0.50782 0.71896 0.0
C876 C 0.85291 0.48279 0.70246 0.0
C877 C 0.84369 0.5059 0.74942 0.0
C878 C 0.85433 0.45549 0.71635 0.0
C879 C 0.85007 0.45319 0.74645 0.0
H880 H 0.16783 0.96753 0.71113 0.0
H881 H 0.16407 0.06138 0.70614 0.0
H882 H 0.16771 0.06473 0.75927 0.0
H883 H 0.16532 0.04068 0.80729 0.0
H884 H 0.16135 0.94683 0.81206 0.0
H885 H 0.16772 0.9435 0.75916 0.0
C886 C 0.1686 0.98867 0.72174 0.0
C887 C 0.16601 0.01419 0.70496 0.0
C888 C 0.16899 0.99031 0.75233 0.0
C889 C 0.16621 0.0415 0.71879 0.0
C890 C 0.16816 0.04339 0.74912 0.0
C891 C 0.16662 0.01956 0.79671 0.0
C892 C 0.16318 0.99402 0.81334 0.0
C893 C 0.16862 0.01792 0.76617 0.0
C894 C 0.1641 0.96672 0.79952 0.0
C895 C 0.16762 0.96484 0.76932 0.0
H896 H 0.80869 0.15387 0.9909 0.0
H897 H 0.81288 0.06133 0.97355 0.0
H898 H 0.75998 0.05948 0.96866 0.0
H899 H 0.71234 0.08351 0.97013 0.0
H900 H 0.70696 0.17646 0.98355 0.0
H901 H 0.76032 0.17885 0.98914 0.0
C902 C 0.79797 0.13338 0.98591 0.0
C903 C 0.81479 0.10776 0.9827 0.0
C904 C 0.76729 0.1325 0.98256 0.0
C905 C 0.80058 0.08141 0.97601 0.0
C906 C 0.77025 0.08027 0.97333 0.0
C907 C 0.72283 0.10431 0.97438 0.0
C908 C 0.70575 0.1297 0.97682 0.0
C909 C 0.75339 0.10558 0.97674 0.0
C910 C 0.71968 0.15658 0.9817 0.0
C911 C 0.75017 0.15793 0.98491 0.0
H912 H 0.09239 0.00648 0.19719 0.0
H913 H 0.09258 0.92638 0.24696 0.0
H914 H 0.09894 0.95424 0.29193 0.0
H915 H 0.09837 0.00123 0.31719 0.0
H916 H 0.09363 0.08137 0.2677 0.0
H917 H 0.09556 0.05351 0.22229 0.0
C918 C 0.09433 0.99503 0.21781 0.0
C919 C 0.09183 0.96438 0.21878 0.0
C920 C 0.09696 0.01122 0.24356 0.0
C921 C 0.0943 0.94993 0.24567 0.0
C922 C 0.09785 0.96587 0.27136 0.0
C923 C 0.09832 0.01271 0.29649 0.0
C924 C 0.09569 0.04336 0.2958 0.0
C925 C 0.09832 0.99652 0.2706 0.0
C926 C 0.09554 0.05782 0.2688 0.0
C927 C 0.09652 0.04188 0.24286 0.0
H928 H 0.90103 0.44009 0.26638 0.0
H929 H 0.89188 0.51362 0.32441 0.0
H930 H 0.89144 0.54696 0.28302 0.0
H931 H 0.90117 0.55576 0.23091 0.0
H932 H 0.90953 0.48215 0.17288 0.0
H933 H 0.90241 0.4486 0.21348 0.0
C934 C 0.89821 0.46333 0.26994 0.0
C935 C 0.89704 0.47429 0.2985 0.0
C936 C 0.89825 0.48255 0.24599 0.0
C937 C 0.8931 0.5045 0.30268 0.0
C938 C 0.89302 0.5237 0.27899 0.0
C939 C 0.90085 0.5324 0.22708 0.0
C940 C 0.90642 0.52156 0.19898 0.0
C941 C 0.89679 0.51307 0.25062 0.0
C942 C 0.90556 0.49119 0.19433 0.0
C943 C 0.90158 0.47189 0.21759 0.0
H944 H 0.24909 0.07255 0.94629 0.0
H945 H 0.19251 0.07207 0.02174 0.0
H946 H 0.23473 0.07612 0.05371 0.0
H947 H 0.28807 0.07294 0.06054 0.0
H948 H 0.34456 0.07429 0.98501 0.0
H949 H 0.30224 0.07724 0.9531 0.0
C950 C 0.24596 0.07396 0.96969 0.0
C951 C 0.21766 0.07155 0.98152 0.0
C952 C 0.27043 0.07616 0.9881 0.0
C953 C 0.21402 0.07369 0.01193 0.0
C954 C 0.23821 0.07586 0.03034 0.0
C955 C 0.29114 0.07454 0.03714 0.0
C956 C 0.31949 0.07292 0.02528 0.0
C957 C 0.26659 0.07607 0.01872 0.0
C958 C 0.32302 0.07526 0.99485 0.0
C959 C 0.29878 0.0768 0.97647 0.0
H960 H 0.70667 0.42151 0.04503 0.0
H961 H 0.65234 0.43939 0.97034 0.0
H962 H 0.69392 0.43209 0.9379 0.0
H963 H 0.74708 0.42773 0.93129 0.0
H964 H 0.80138 0.40897 0.0058 0.0
H965 H 0.75851 0.40881 0.03741 0.0
C966 C 0.70383 0.42326 0.02164 0.0
C967 C 0.67655 0.43151 0.01024 0.0
C968 C 0.72793 0.41902 0.00295 0.0
C969 C 0.67314 0.43329 0.9798 0.0
C970 C 0.69697 0.42921 0.96115 0.0
C971 C 0.74946 0.42284 0.9543 0.0
C972 C 0.77749 0.41892 0.96615 0.0
C973 C 0.72469 0.42309 0.97254 0.0
C974 C 0.78011 0.41234 0.99603 0.0
C975 C 0.75558 0.41244 0.01425 0.0
H976 H 0.33062 0.92649 0.51485 0.0
H977 H 0.28317 0.92068 0.43389 0.0
H978 H 0.23692 0.92016 0.46078 0.0
H979 H 0.21011 0.92803 0.50657 0.0
H980 H 0.25774 0.93724 0.58711 0.0
H981 H 0.30378 0.92938 0.56109 0.0
C982 C 0.31021 0.92453 0.50304 0.0
C983 C 0.31039 0.9239 0.47232 0.0
C984 C 0.2837 0.92516 0.51859 0.0
C985 C 0.2837 0.92132 0.45748 0.0
C986 C 0.25722 0.92116 0.47286 0.0
C987 C 0.2305 0.92775 0.51858 0.0
C988 C 0.23046 0.93349 0.54876 0.0
C989 C 0.25696 0.92409 0.50333 0.0
C990 C 0.25712 0.93304 0.56389 0.0
C991 C 0.28348 0.92866 0.54899 0.0
H992 H 0.78581 0.5895 0.54756 0.0
H993 H 0.7509 0.5308 0.61257 0.0
H994 H 0.70414 0.52961 0.58681 0.0
H995 H 0.67608 0.53938 0.54189 0.0
H996 H 0.71317 0.59554 0.47572 0.0
H997 H 0.75622 0.60336 0.50577 0.0
C998 C 0.7678 0.57693 0.55652 0.0
C999 C 0.77199 0.55996 0.58175 0.0
C1000 C 0.74154 0.57536 0.54098 0.0
C1001 C 0.7483 0.54404 0.59316 0.0
C1002 C 0.72164 0.54309 0.57824 0.0
C1003 C 0.69342 0.55363 0.53424 0.0
C1004 C 0.6916 0.56649 0.50639 0.0
C1005 C 0.71847 0.55767 0.55147 0.0
C1006 C 0.71417 0.58503 0.49686 0.0
C1007 C 0.7388 0.5896 0.51408 0.0
H1008 H 0.05694 0.26842 0.07423 0.0
H1009 H 0.97969 0.32249 0.07836 0.0
H1010 H 0.94898 0.27926 0.08211 0.0
H1011 H 0.94357 0.22603 0.07669 0.0
H1012 H 0.0209 0.17198 0.07379 0.0
H1013 H 0.05179 0.21504 0.07755 0.0
C1014 C 0.03346 0.27076 0.07665 0.0
C1015 C 0.02069 0.29866 0.07547 0.0
C1016 C 0.01576 0.24571 0.07867 0.0
C1017 C 0.9902 0.30129 0.07896 0.0
C1018 C 0.9725 0.27652 0.08095 0.0
C1019 C 0.96715 0.22364 0.07755 0.0
C1020 C 0.97982 0.19584 0.07442 0.0
C1021 C 0.98495 0.2486 0.07965 0.0
C1022 C 0.01046 0.19311 0.07591 0.0
C1023 C 0.02824 0.21778 0.07792 0.0
H1024 H 0.98528 0.69026 0.45654 0.0
H1025 H 0.0732 0.72408 0.45117 0.0
H1026 H 0.05394 0.77357 0.44542 0.0
H1027 H 0.01252 0.80748 0.44714 0.0
H1028 H 0.92476 0.77411 0.45643 0.0
H1029 H 0.94356 0.72409 0.4549 0.0
C1030 C 1.00026 0.70839 0.45367 0.0
C1031 C 0.03068 0.70348 0.45444 0.0
C1032 C 0.98903 0.73687 0.45118 0.0
C1033 C 0.04973 0.72725 0.45081 0.0
C1034 C 0.03872 0.75556 0.44755 0.0
C1035 C 0.99739 0.7893 0.44824 0.0
C1036 C 0.96724 0.79455 0.45196 0.0
C1037 C 0.00845 0.76068 0.44844 0.0
C1038 C 0.94803 0.77069 0.45358 0.0
C1039 C 0.9588 0.74208 0.45286 0.0
H1040 H 0.48347 0.80579 0.54265 0.0
H1041 H 0.55791 0.76065 0.57902 0.0
H1042 H 0.52897 0.71621 0.58384 0.0
H1043 H 0.48432 0.68897 0.57336 0.0
H1044 H 0.40999 0.73322 0.53591 0.0
H1045 H 0.43691 0.77939 0.53653 0.0
C1046 C 0.49329 0.78631 0.5519 0.0
C1047 C 0.52297 0.78648 0.5601 0.0
C1048 C 0.47655 0.76069 0.55444 0.0
C1049 C 0.53523 0.76112 0.57231 0.0
C1050 C 0.51869 0.73566 0.57508 0.0
C1051 C 0.47378 0.70879 0.56575 0.0
C1052 C 0.44528 0.70758 0.55432 0.0
C1053 C 0.48957 0.73502 0.56559 0.0
C1054 C 0.43189 0.73352 0.54481 0.0
C1055 C 0.44738 0.75989 0.54495 0.0
H1056 H 0.56095 0.58103 0.76471 0.0
H1057 H 0.57875 0.51078 0.82498 0.0
H1058 H 0.58822 0.47773 0.78452 0.0
H1059 H 0.58406 0.46692 0.73217 0.0
H1060 H 0.56637 0.53728 0.67199 0.0
H1061 H 0.56462 0.57193 0.7121 0.0
C1062 C 0.56761 0.55869 0.769 0.0
C1063 C 0.56858 0.54833 0.79783 0.0
C1064 C 0.57264 0.53957 0.74559 0.0
C1065 C 0.5775 0.51934 0.80299 0.0
C1066 C 0.58278 0.50029 0.77984 0.0
C1067 C 0.58039 0.48991 0.7278 0.0
C1068 C 0.57481 0.49932 0.69919 0.0
C1069 C 0.57922 0.50985 0.75105 0.0
C1070 C 0.57044 0.5293 0.69385 0.0
C1071 C 0.56934 0.54921 0.7168 0.0
H1072 H 0.4387 0.93827 0.76558 0.0
H1073 H 0.42792 0.01094 0.8244 0.0
H1074 H 0.42324 0.04428 0.78326 0.0
H1075 H 0.429 0.05378 0.73068 0.0
H1076 H 0.43893 0.98095 0.67191 0.0
H1077 H 0.43685 0.94697 0.71273 0.0
C1078 C 0.43464 0.96128 0.76941 0.0
C1079 C 0.43413 0.97205 0.79807 0.0
C1080 C 0.43221 0.98052 0.74558 0.0
C1081 C 0.42864 0.00197 0.80259 0.0
C1082 C 0.42612 0.02118 0.77903 0.0
C1083 C 0.43016 0.03046 0.72678 0.0
C1084 C 0.43455 0.02004 0.6983 0.0
C1085 C 0.42897 0.01086 0.75044 0.0
C1086 C 0.43571 0.98968 0.6936 0.0
C1087 C 0.43463 0.97014 0.71698 0.0
H1088 H 0.42983 0.27214 0.9065 0.0
H1089 H 0.49776 0.33603 0.89244 0.0
H1090 H 0.53438 0.29741 0.89035 0.0
H1091 H 0.54801 0.2461 0.89941 0.0
H1092 H 0.4799 0.18231 0.91312 0.0
H1093 H 0.44276 0.22009 0.90822 0.0
C1094 C 0.45253 0.27758 0.90224 0.0
C1095 C 0.461 0.307 0.90009 0.0
C1096 C 0.47367 0.25524 0.90147 0.0
C1097 C 0.49055 0.31359 0.89443 0.0
C1098 C 0.51163 0.2915 0.89341 0.0
C1099 C 0.52503 0.24041 0.90083 0.0
C1100 C 0.51687 0.21148 0.9071 0.0
C1101 C 0.5036 0.26234 0.89804 0.0
C1102 C 0.48693 0.20444 0.90855 0.0
C1103 C 0.46557 0.22607 0.90581 0.0
loop_
_geom_bond_atom_site_label_1
_geom_bond_atom_site_label_2
_geom_bond_distance
_geom_bond_site_symmetry_2
_ccdc_geom_bond_type
O0 Cd1 2.223 1_455 S
O0 C8 1.315 . S
Cd1 O0 2.223 1_655 S
Cd1 O4 2.297 . S
Cd1 O5 2.439 . S
Cd1 O11 2.240 . S
Cd2 O3 2.240 . S
Cd2 O10 2.223 1_455 S
Cd2 O12 2.297 . S
Cd2 O13 2.439 1_455 S
O3 Cd2 2.240 . S
O3 C8 1.279 . S
O4 Cd1 2.297 . S
O4 C6 1.247 . S
O5 Cd1 2.439 . S
O5 C6 1.208 . S
C6 O4 1.247 . S
C6 O5 1.208 . S
C7 O12 1.235 1_655 S
C7 O13 1.210 . S
C8 O0 1.315 . S
C8 O3 1.279 . S
C9 O10 1.315 . S
C9 O11 1.279 . S
O10 Cd2 2.223 1_655 S
O10 C9 1.315 . S
O11 Cd1 2.240 . S
O11 C9 1.279 . S
O12 Cd2 2.297 . S
O12 C7 1.235 1_455 S
O13 Cd2 2.439 1_655 S
O13 C7 1.210 . S
O14 Cd15 2.223 1_655 S
O14 C22 1.315 . S
Cd15 O14 2.223 1_455 S
Cd15 O18 2.297 . S
Cd15 O19 2.439 . S
Cd15 O25 2.240 . S
Cd16 O17 2.240 . S
Cd16 O24 2.236 . S
Cd16 O26 2.297 . S
Cd16 O27 2.425 1_655 S
O17 Cd16 2.240 . S
O17 C22 1.279 . S
O18 Cd15 2.297 . S
O18 C20 1.247 . S
O19 Cd15 2.439 . S
O19 C20 1.208 . S
C20 O18 1.247 . S
C20 O19 1.208 . S
C21 O26 1.247 . S
C21 O27 1.207 1_655 S
C22 O14 1.315 . S
C22 O17 1.279 . S
C23 O24 1.295 1_455 S
C23 O25 1.279 . S
O24 Cd16 2.236 . S
O24 C23 1.295 1_655 S
O25 Cd15 2.240 . S
O25 C23 1.279 . S
O26 Cd16 2.297 . S
O26 C21 1.247 . S
O27 Cd16 2.425 1_455 S
O27 C21 1.207 1_455 S
O28 Cd29 2.223 1_455 S
O28 C36 1.315 . S
Cd29 O28 2.223 1_655 S
Cd29 O32 2.297 . S
Cd29 O33 2.439 . S
Cd29 O39 2.240 . S
Cd30 O31 2.240 . S
Cd30 O38 2.208 1_455 S
Cd30 O40 2.297 . S
Cd30 O41 2.444 . S
O31 Cd30 2.240 . S
O31 C36 1.279 . S
O32 Cd29 2.297 . S
O32 C34 1.247 . S
O33 Cd29 2.439 . S
O33 C34 1.208 . S
C34 O32 1.247 . S
C34 O33 1.208 . S
C35 O40 1.247 . S
C35 O41 1.209 . S
C36 O28 1.315 . S
C36 O31 1.279 . S
C37 O38 1.339 . S
C37 O39 1.279 . S
O38 Cd30 2.208 1_655 S
O38 C37 1.339 . S
O39 Cd29 2.240 . S
O39 C37 1.279 . S
O40 Cd30 2.297 . S
O40 C35 1.247 . S
O41 Cd30 2.444 . S
O41 C35 1.209 . S
O42 Cd43 2.223 1_655 S
O42 C50 1.315 . S
Cd43 O42 2.223 1_455 S
Cd43 O46 2.297 . S
Cd43 O47 2.439 . S
Cd43 O53 2.240 . S
Cd44 O45 2.240 . S
Cd44 O52 2.240 . S
Cd44 O54 2.297 . S
Cd44 O55 2.439 . S
O45 Cd44 2.240 . S
O45 C50 1.279 . S
O46 Cd43 2.297 . S
O46 C48 1.247 . S
O47 Cd43 2.439 . S
O47 C48 1.208 . S
C48 O46 1.247 . S
C48 O47 1.208 . S
C49 O54 1.247 . S
C49 O55 1.208 . S
C50 O42 1.315 . S
C50 O45 1.279 . S
C51 O52 1.288 1_455 S
C51 O53 1.279 . S
O52 Cd44 2.240 . S
O52 C51 1.288 1_655 S
O53 Cd43 2.240 . S
O53 C51 1.279 . S
O54 Cd44 2.297 . S
O54 C49 1.247 . S
O55 Cd44 2.439 . S
O55 C49 1.208 . S
O56 Cd57 2.223 1_545 S
O56 C64 1.315 . S
Cd57 O56 2.223 1_565 S
Cd57 O60 2.297 . S
Cd57 O61 2.439 . S
Cd57 O67 2.240 . S
Cd58 O59 2.240 . S
Cd58 O66 2.223 1_545 S
Cd58 O68 2.297 . S
Cd58 O69 2.439 1_545 S
O59 Cd58 2.240 . S
O59 C64 1.279 . S
O60 Cd57 2.297 . S
O60 C62 1.247 . S
O61 Cd57 2.439 . S
O61 C62 1.208 . S
C62 O60 1.247 . S
C62 O61 1.208 . S
C63 O68 1.235 1_565 S
C63 O69 1.210 . S
C64 O56 1.315 . S
C64 O59 1.279 . S
C65 O66 1.315 . S
C65 O67 1.279 . S
O66 Cd58 2.223 1_565 S
O66 C65 1.315 . S
O67 Cd57 2.240 . S
O67 C65 1.279 . S
O68 Cd58 2.297 . S
O68 C63 1.235 1_545 S
O69 Cd58 2.439 1_565 S
O69 C63 1.210 . S
O70 Cd71 2.223 . S
O70 C78 1.315 . S
Cd71 O70 2.223 . S
Cd71 O74 2.297 . S
Cd71 O75 2.439 . S
Cd71 O81 2.240 . S
Cd72 O73 2.240 . S
Cd72 O80 2.223 . S
Cd72 O82 2.297 . S
Cd72 O83 2.439 . S
O73 Cd72 2.240 . S
O73 C78 1.279 . S
O74 Cd71 2.297 . S
O74 C76 1.247 . S
O75 Cd71 2.439 . S
O75 C76 1.208 . S
C76 O74 1.247 . S
C76 O75 1.208 . S
C77 O82 1.247 . S
C77 O83 1.208 . S
C78 O70 1.315 . S
C78 O73 1.279 . S
C79 O80 1.315 . S
C79 O81 1.279 . S
O80 Cd72 2.223 . S
O80 C79 1.315 . S
O81 Cd71 2.240 . S
O81 C79 1.279 . S
O82 Cd72 2.297 . S
O82 C77 1.247 . S
O83 Cd72 2.439 . S
O83 C77 1.208 . S
O84 Cd85 2.223 1_565 S
O84 C92 1.315 . S
Cd85 O84 2.223 1_545 S
Cd85 O88 2.297 . S
Cd85 O89 2.439 . S
Cd85 O95 2.240 . S
Cd86 O87 2.240 . S
Cd86 O94 2.236 . S
Cd86 O96 2.297 . S
Cd86 O97 2.425 1_565 S
O87 Cd86 2.240 . S
O87 C92 1.279 . S
O88 Cd85 2.297 . S
O88 C90 1.247 . S
O89 Cd85 2.439 . S
O89 C90 1.208 . S
C90 O88 1.247 . S
C90 O89 1.208 . S
C91 O96 1.247 . S
C91 O97 1.207 1_565 S
C92 O84 1.315 . S
C92 O87 1.279 . S
C93 O94 1.295 1_545 S
C93 O95 1.279 . S
O94 Cd86 2.236 . S
O94 C93 1.295 1_565 S
O95 Cd85 2.240 . S
O95 C93 1.279 . S
O96 Cd86 2.297 . S
O96 C91 1.247 . S
O97 Cd86 2.425 1_545 S
O97 C91 1.207 1_545 S
O98 Cd99 2.223 . S
O98 C106 1.315 . S
Cd99 O98 2.223 . S
Cd99 O102 2.297 . S
Cd99 O103 2.439 . S
Cd99 O109 2.240 . S
Cd100 O101 2.240 . S
Cd100 O108 2.223 . S
Cd100 O110 2.297 . S
Cd100 O111 2.439 . S
O101 Cd100 2.240 . S
O101 C106 1.279 . S
O102 Cd99 2.297 . S
O102 C104 1.247 . S
O103 Cd99 2.439 . S
O103 C104 1.208 . S
C104 O102 1.247 . S
C104 O103 1.208 . S
C105 O110 1.247 . S
C105 O111 1.208 . S
C106 O98 1.315 . S
C106 O101 1.279 . S
C107 O108 1.315 . S
C107 O109 1.279 . S
O108 Cd100 2.223 . S
O108 C107 1.315 . S
O109 Cd99 2.240 . S
O109 C107 1.279 . S
O110 Cd100 2.297 . S
O110 C105 1.247 . S
O111 Cd100 2.439 . S
O111 C105 1.208 . S
O112 Cd113 2.223 1_554 S
O112 C120 1.315 . S
Cd113 O112 2.223 1_556 S
Cd113 O116 2.297 . S
Cd113 O117 2.439 . S
Cd113 O123 2.240 . S
Cd114 O115 2.240 . S
Cd114 O122 2.223 1_554 S
Cd114 O124 2.297 . S
Cd114 O125 2.439 1_554 S
O115 Cd114 2.240 . S
O115 C120 1.279 . S
O116 Cd113 2.297 . S
O116 C118 1.247 . S
O117 Cd113 2.439 . S
O117 C118 1.208 . S
C118 O116 1.247 . S
C118 O117 1.208 . S
C119 O124 1.235 1_556 S
C119 O125 1.210 . S
C120 O112 1.315 . S
C120 O115 1.279 . S
C121 O122 1.315 . S
C121 O123 1.279 . S
O122 Cd114 2.223 1_556 S
O122 C121 1.315 . S
O123 Cd113 2.240 . S
O123 C121 1.279 . S
O124 Cd114 2.297 . S
O124 C119 1.235 1_554 S
O125 Cd114 2.439 1_556 S
O125 C119 1.210 . S
O126 Cd127 2.223 . S
O126 C134 1.315 . S
Cd127 O126 2.223 . S
Cd127 O130 2.297 . S
Cd127 O131 2.439 . S
Cd127 O137 2.240 . S
Cd128 O129 2.240 . S
Cd128 O136 2.223 . S
Cd128 O138 2.297 . S
Cd128 O139 2.439 . S
O129 Cd128 2.240 . S
O129 C134 1.279 . S
O130 Cd127 2.297 . S
O130 C132 1.247 . S
O131 Cd127 2.439 . S
O131 C132 1.208 . S
C132 O130 1.247 . S
C132 O131 1.208 . S
C133 O138 1.247 . S
C133 O139 1.208 . S
C134 O126 1.315 . S
C134 O129 1.279 . S
C135 O136 1.315 . S
C135 O137 1.279 . S
O136 Cd128 2.223 . S
O136 C135 1.315 . S
O137 Cd127 2.240 . S
O137 C135 1.279 . S
O138 Cd128 2.297 . S
O138 C133 1.247 . S
O139 Cd128 2.439 . S
O139 C133 1.208 . S
O140 Cd141 2.223 . S
O140 C148 1.315 . S
Cd141 O140 2.223 . S
Cd141 O144 2.297 . S
Cd141 O145 2.439 . S
Cd141 O151 2.240 . S
Cd142 O143 2.240 . S
Cd142 O150 2.223 . S
Cd142 O152 2.297 . S
Cd142 O153 2.439 . S
O143 Cd142 2.240 . S
O143 C148 1.279 . S
O144 Cd141 2.297 . S
O144 C146 1.247 . S
O145 Cd141 2.439 . S
O145 C146 1.208 . S
C146 O144 1.247 . S
C146 O145 1.208 . S
C147 O152 1.247 . S
C147 O153 1.208 . S
C148 O140 1.315 . S
C148 O143 1.279 . S
C149 O150 1.315 . S
C149 O151 1.279 . S
O150 Cd142 2.223 . S
O150 C149 1.315 . S
O151 Cd141 2.240 . S
O151 C149 1.279 . S
O152 Cd142 2.297 . S
O152 C147 1.247 . S
O153 Cd142 2.439 . S
O153 C147 1.208 . S
O154 Cd155 2.223 . S
O154 C162 1.315 . S
Cd155 O154 2.223 . S
Cd155 O158 2.297 . S
Cd155 O159 2.439 . S
Cd155 O165 2.240 . S
Cd156 O157 2.240 . S
Cd156 O164 2.223 . S
Cd156 O166 2.297 . S
Cd156 O167 2.439 . S
O157 Cd156 2.240 . S
O157 C162 1.279 . S
O158 Cd155 2.297 . S
O158 C160 1.247 . S
O159 Cd155 2.439 . S
O159 C160 1.208 . S
C160 O158 1.247 . S
C160 O159 1.208 . S
C161 O166 1.247 . S
C161 O167 1.208 . S
C162 O154 1.315 . S
C162 O157 1.279 . S
C163 O164 1.315 . S
C163 O165 1.279 . S
O164 Cd156 2.223 . S
O164 C163 1.315 . S
O165 Cd155 2.240 . S
O165 C163 1.279 . S
O166 Cd156 2.297 . S
O166 C161 1.247 . S
O167 Cd156 2.439 . S
O167 C161 1.208 . S
O168 Cd169 2.223 . S
O168 C176 1.315 . S
Cd169 O168 2.223 . S
Cd169 O172 2.297 . S
Cd169 O173 2.439 . S
Cd169 O179 2.240 . S
Cd170 O171 2.240 . S
Cd170 O178 2.223 . S
Cd170 O180 2.297 . S
Cd170 O181 2.439 . S
O171 Cd170 2.240 . S
O171 C176 1.279 . S
O172 Cd169 2.297 . S
O172 C174 1.247 . S
O173 Cd169 2.439 . S
O173 C174 1.208 . S
C174 O172 1.247 . S
C174 O173 1.208 . S
C175 O180 1.247 . S
C175 O181 1.208 . S
C176 O168 1.315 . S
C176 O171 1.279 . S
C177 O178 1.315 . S
C177 O179 1.279 . S
O178 Cd170 2.223 . S
O178 C177 1.315 . S
O179 Cd169 2.240 . S
O179 C177 1.279 . S
O180 Cd170 2.297 . S
O180 C175 1.247 . S
O181 Cd170 2.439 . S
O181 C175 1.208 . S
O182 Cd183 2.223 . S
O182 C190 1.315 . S
Cd183 O182 2.223 . S
Cd183 O186 2.297 . S
Cd183 O187 2.439 . S
Cd183 O193 2.240 . S
Cd184 O185 2.240 . S
Cd184 O192 2.223 . S
Cd184 O194 2.297 . S
Cd184 O195 2.439 . S
O185 Cd184 2.240 . S
O185 C190 1.279 . S
O186 Cd183 2.297 . S
O186 C188 1.247 . S
O187 Cd183 2.439 . S
O187 C188 1.208 . S
C188 O186 1.247 . S
C188 O187 1.208 . S
C189 O194 1.247 . S
C189 O195 1.208 . S
C190 O182 1.315 . S
C190 O185 1.279 . S
C191 O192 1.315 . S
C191 O193 1.279 . S
O192 Cd184 2.223 . S
O192 C191 1.315 . S
O193 Cd183 2.240 . S
O193 C191 1.279 . S
O194 Cd184 2.297 . S
O194 C189 1.247 . S
O195 Cd184 2.439 . S
O195 C189 1.208 . S
O196 Cd197 2.223 . S
O196 C204 1.315 . S
Cd197 O196 2.223 . S
Cd197 O200 2.297 . S
Cd197 O201 2.439 . S
Cd197 O207 2.240 . S
Cd198 O199 2.240 . S
Cd198 O206 2.223 . S
Cd198 O208 2.297 . S
Cd198 O209 2.439 . S
O199 Cd198 2.240 . S
O199 C204 1.279 . S
O200 Cd197 2.297 . S
O200 C202 1.247 . S
O201 Cd197 2.439 . S
O201 C202 1.208 . S
C202 O200 1.247 . S
C202 O201 1.208 . S
C203 O208 1.247 . S
C203 O209 1.208 . S
C204 O196 1.315 . S
C204 O199 1.279 . S
C205 O206 1.315 . S
C205 O207 1.279 . S
O206 Cd198 2.223 . S
O206 C205 1.315 . S
O207 Cd197 2.240 . S
O207 C205 1.279 . S
O208 Cd198 2.297 . S
O208 C203 1.247 . S
O209 Cd198 2.439 . S
O209 C203 1.208 . S
O210 Cd211 2.223 . S
O210 C218 1.315 . S
Cd211 O210 2.223 . S
Cd211 O214 2.297 . S
Cd211 O215 2.439 . S
Cd211 O221 2.240 . S
Cd212 O213 2.240 . S
Cd212 O220 2.223 . S
Cd212 O222 2.297 . S
Cd212 O223 2.439 . S
O213 Cd212 2.240 . S
O213 C218 1.279 . S
O214 Cd211 2.297 . S
O214 C216 1.247 . S
O215 Cd211 2.439 . S
O215 C216 1.208 . S
C216 O214 1.247 . S
C216 O215 1.208 . S
C217 O222 1.247 . S
C217 O223 1.208 . S
C218 O210 1.315 . S
C218 O213 1.279 . S
C219 O220 1.315 . S
C219 O221 1.279 . S
O220 Cd212 2.223 . S
O220 C219 1.315 . S
O221 Cd211 2.240 . S
O221 C219 1.279 . S
O222 Cd212 2.297 . S
O222 C217 1.247 . S
O223 Cd212 2.439 . S
O223 C217 1.208 . S
O224 Cd225 2.223 . S
O224 C232 1.315 . S
Cd225 O224 2.223 . S
Cd225 O228 2.297 . S
Cd225 O229 2.439 . S
Cd225 O235 2.240 . S
Cd226 O227 2.240 . S
Cd226 O234 2.223 . S
Cd226 O236 2.297 . S
Cd226 O237 2.439 . S
O227 Cd226 2.240 . S
O227 C232 1.279 . S
O228 Cd225 2.297 . S
O228 C230 1.247 . S
O229 Cd225 2.439 . S
O229 C230 1.208 . S
C230 O228 1.247 . S
C230 O229 1.208 . S
C231 O236 1.247 . S
C231 O237 1.208 . S
C232 O224 1.315 . S
C232 O227 1.279 . S
C233 O234 1.315 . S
C233 O235 1.279 . S
O234 Cd226 2.223 . S
O234 C233 1.315 . S
O235 Cd225 2.240 . S
O235 C233 1.279 . S
O236 Cd226 2.297 . S
O236 C231 1.247 . S
O237 Cd226 2.439 . S
O237 C231 1.208 . S
O238 Cd239 2.223 1_565 S
O238 C246 1.315 . S
Cd239 O238 2.223 1_545 S
Cd239 O242 2.297 . S
Cd239 O243 2.439 . S
Cd239 O249 2.240 . S
Cd240 O241 2.240 . S
Cd240 O248 2.240 . S
Cd240 O250 2.297 . S
Cd240 O251 2.439 . S
O241 Cd240 2.240 . S
O241 C246 1.279 . S
O242 Cd239 2.297 . S
O242 C244 1.247 . S
O243 Cd239 2.439 . S
O243 C244 1.208 . S
C244 O242 1.247 . S
C244 O243 1.208 . S
C245 O250 1.247 . S
C245 O251 1.208 . S
C246 O238 1.315 . S
C246 O241 1.279 . S
C247 O248 1.288 1_545 S
C247 O249 1.279 . S
O248 Cd240 2.240 . S
O248 C247 1.288 1_565 S
O249 Cd239 2.240 . S
O249 C247 1.279 . S
O250 Cd240 2.297 . S
O250 C245 1.247 . S
O251 Cd240 2.439 . S
O251 C245 1.208 . S
O252 Cd253 2.223 . S
O252 C260 1.315 . S
Cd253 O252 2.223 . S
Cd253 O256 2.297 . S
Cd253 O257 2.439 . S
Cd253 O263 2.240 . S
Cd254 O255 2.240 . S
Cd254 O262 2.223 . S
Cd254 O264 2.297 . S
Cd254 O265 2.439 . S
O255 Cd254 2.240 . S
O255 C260 1.279 . S
O256 Cd253 2.297 . S
O256 C258 1.247 . S
O257 Cd253 2.439 . S
O257 C258 1.208 . S
C258 O256 1.247 . S
C258 O257 1.208 . S
C259 O264 1.247 . S
C259 O265 1.208 . S
C260 O252 1.315 . S
C260 O255 1.279 . S
C261 O262 1.315 . S
C261 O263 1.279 . S
O262 Cd254 2.223 . S
O262 C261 1.315 . S
O263 Cd253 2.240 . S
O263 C261 1.279 . S
O264 Cd254 2.297 . S
O264 C259 1.247 . S
O265 Cd254 2.439 . S
O265 C259 1.208 . S
O266 Cd267 2.223 1_545 S
O266 C274 1.315 . S
Cd267 O266 2.223 1_565 S
Cd267 O270 2.297 . S
Cd267 O271 2.439 . S
Cd267 O277 2.240 . S
Cd268 O269 2.240 . S
Cd268 O276 2.208 1_545 S
Cd268 O278 2.297 . S
Cd268 O279 2.444 . S
O269 Cd268 2.240 . S
O269 C274 1.279 . S
O270 Cd267 2.297 . S
O270 C272 1.247 . S
O271 Cd267 2.439 . S
O271 C272 1.208 . S
C272 O270 1.247 . S
C272 O271 1.208 . S
C273 O278 1.247 . S
C273 O279 1.209 . S
C274 O266 1.315 . S
C274 O269 1.279 . S
C275 O276 1.339 . S
C275 O277 1.279 . S
O276 Cd268 2.208 1_565 S
O276 C275 1.339 . S
O277 Cd267 2.240 . S
O277 C275 1.279 . S
O278 Cd268 2.297 . S
O278 C273 1.247 . S
O279 Cd268 2.444 . S
O279 C273 1.209 . S
O280 Cd281 2.223 . S
O280 C288 1.315 . S
Cd281 O280 2.223 . S
Cd281 O284 2.297 . S
Cd281 O285 2.439 . S
Cd281 O291 2.240 . S
Cd282 O283 2.240 . S
Cd282 O290 2.223 . S
Cd282 O292 2.297 . S
Cd282 O293 2.439 . S
O283 Cd282 2.240 . S
O283 C288 1.279 . S
O284 Cd281 2.297 . S
O284 C286 1.247 . S
O285 Cd281 2.439 . S
O285 C286 1.208 . S
C286 O284 1.247 . S
C286 O285 1.208 . S
C287 O292 1.247 . S
C287 O293 1.208 . S
C288 O280 1.315 . S
C288 O283 1.279 . S
C289 O290 1.315 . S
C289 O291 1.279 . S
O290 Cd282 2.223 . S
O290 C289 1.315 . S
O291 Cd281 2.240 . S
O291 C289 1.279 . S
O292 Cd282 2.297 . S
O292 C287 1.247 . S
O293 Cd282 2.439 . S
O293 C287 1.208 . S
O294 Cd295 2.223 1_556 S
O294 C302 1.315 . S
Cd295 O294 2.223 1_554 S
Cd295 O298 2.297 . S
Cd295 O299 2.439 . S
Cd295 O305 2.240 . S
Cd296 O297 2.240 . S
Cd296 O304 2.240 . S
Cd296 O306 2.297 . S
Cd296 O307 2.439 . S
O297 Cd296 2.240 . S
O297 C302 1.279 . S
O298 Cd295 2.297 . S
O298 C300 1.247 . S
O299 Cd295 2.439 . S
O299 C300 1.208 . S
C300 O298 1.247 . S
C300 O299 1.208 . S
C301 O306 1.247 . S
C301 O307 1.208 . S
C302 O294 1.315 . S
C302 O297 1.279 . S
C303 O304 1.288 1_554 S
C303 O305 1.279 . S
O304 Cd296 2.240 . S
O304 C303 1.288 1_556 S
O305 Cd295 2.240 . S
O305 C303 1.279 . S
O306 Cd296 2.297 . S
O306 C301 1.247 . S
O307 Cd296 2.439 . S
O307 C301 1.208 . S
O308 Cd309 2.223 1_556 S
O308 C316 1.315 . S
Cd309 O308 2.223 1_554 S
Cd309 O312 2.297 . S
Cd309 O313 2.439 . S
Cd309 O319 2.240 . S
Cd310 O311 2.240 . S
Cd310 O318 2.236 . S
Cd310 O320 2.297 . S
Cd310 O321 2.425 1_556 S
O311 Cd310 2.240 . S
O311 C316 1.279 . S
O312 Cd309 2.297 . S
O312 C314 1.247 . S
O313 Cd309 2.439 . S
O313 C314 1.208 . S
C314 O312 1.247 . S
C314 O313 1.208 . S
C315 O320 1.247 . S
C315 O321 1.207 1_556 S
C316 O308 1.315 . S
C316 O311 1.279 . S
C317 O318 1.295 1_554 S
C317 O319 1.279 . S
O318 Cd310 2.236 . S
O318 C317 1.295 1_556 S
O319 Cd309 2.240 . S
O319 C317 1.279 . S
O320 Cd310 2.297 . S
O320 C315 1.247 . S
O321 Cd310 2.425 1_554 S
O321 C315 1.207 1_554 S
O322 Cd323 2.223 1_554 S
O322 C330 1.315 . S
Cd323 O322 2.223 1_556 S
Cd323 O326 2.297 . S
Cd323 O327 2.439 . S
Cd323 O333 2.240 . S
Cd324 O325 2.240 . S
Cd324 O332 2.208 1_554 S
Cd324 O334 2.297 . S
Cd324 O335 2.444 . S
O325 Cd324 2.240 . S
O325 C330 1.279 . S
O326 Cd323 2.297 . S
O326 C328 1.247 . S
O327 Cd323 2.439 . S
O327 C328 1.208 . S
C328 O326 1.247 . S
C328 O327 1.208 . S
C329 O334 1.247 . S
C329 O335 1.209 . S
C330 O322 1.315 . S
C330 O325 1.279 . S
C331 O332 1.339 . S
C331 O333 1.279 . S
O332 Cd324 2.208 1_556 S
O332 C331 1.339 . S
O333 Cd323 2.240 . S
O333 C331 1.279 . S
O334 Cd324 2.297 . S
O334 C329 1.247 . S
O335 Cd324 2.444 . S
O335 C329 1.209 . S
H336 C342 0.930 . S
H337 C345 0.930 . S
H338 C346 0.930 . S
H339 C347 0.930 . S
H340 C350 0.930 . S
H341 C351 0.930 . S
C342 H336 0.930 . S
C342 C343 1.355 . S
C342 C344 1.415 . S
C343 C342 1.355 . S
C343 C345 1.419 . S
C344 C342 1.415 . S
C344 C349 1.425 . S
C344 C351 1.409 . S
C345 H337 0.930 . S
C345 C343 1.419 . S
C345 C346 1.362 . S
C346 H338 0.930 . S
C346 C345 1.362 . S
C346 C349 1.409 . S
C347 H339 0.930 . S
C347 C348 1.355 . S
C347 C349 1.415 . S
C348 C347 1.355 . S
C348 C350 1.419 . S
C349 C344 1.425 . S
C349 C346 1.409 . S
C349 C347 1.415 . S
C350 H340 0.930 . S
C350 C348 1.419 . S
C350 C351 1.362 . S
C351 H341 0.930 . S
C351 C344 1.409 . S
C351 C350 1.362 . S
H352 C358 0.930 . S
H353 C361 0.930 . S
H354 C362 0.930 . S
H355 C363 0.930 . S
H356 C366 0.930 . S
H357 C367 0.930 . S
C358 H352 0.930 . S
C358 C359 1.355 . S
C358 C360 1.415 . S
C359 C358 1.355 . S
C359 C361 1.419 . S
C360 C358 1.415 . S
C360 C365 1.425 . S
C360 C367 1.409 . S
C361 H353 0.930 . S
C361 C359 1.419 . S
C361 C362 1.362 . S
C362 H354 0.930 . S
C362 C361 1.362 . S
C362 C365 1.409 . S
C363 H355 0.930 . S
C363 C364 1.355 . S
C363 C365 1.415 . S
C364 C363 1.355 . S
C364 C366 1.419 . S
C365 C360 1.425 . S
C365 C362 1.409 . S
C365 C363 1.415 . S
C366 H356 0.930 . S
C366 C364 1.419 . S
C366 C367 1.362 . S
C367 H357 0.930 . S
C367 C360 1.409 . S
C367 C366 1.362 . S
H368 C374 0.930 . S
H369 C377 0.930 . S
H370 C378 0.930 . S
H371 C379 0.930 . S
H372 C382 0.930 . S
H373 C383 0.930 . S
C374 H368 0.930 . S
C374 C375 1.355 . S
C374 C376 1.415 . S
C375 C374 1.355 . S
C375 C377 1.419 . S
C376 C374 1.415 . S
C376 C381 1.425 . S
C376 C383 1.409 . S
C377 H369 0.930 . S
C377 C375 1.419 . S
C377 C378 1.362 . S
C378 H370 0.930 . S
C378 C377 1.362 . S
C378 C381 1.409 . S
C379 H371 0.930 . S
C379 C380 1.355 . S
C379 C381 1.415 1_556 S
C380 C379 1.355 . S
C380 C382 1.419 . S
C381 C376 1.425 . S
C381 C378 1.409 . S
C381 C379 1.415 1_554 S
C382 H372 0.930 . S
C382 C380 1.419 . S
C382 C383 1.362 1_556 S
C383 H373 0.930 . S
C383 C376 1.409 . S
C383 C382 1.362 1_554 S
H384 C390 0.930 . S
H385 C393 0.930 . S
H386 C394 0.930 . S
H387 C395 0.930 . S
H388 C398 0.930 . S
H389 C399 0.930 . S
C390 H384 0.930 . S
C390 C391 1.355 . S
C390 C392 1.415 . S
C391 C390 1.355 . S
C391 C393 1.419 . S
C392 C390 1.415 . S
C392 C397 1.425 . S
C392 C399 1.409 . S
C393 H385 0.930 . S
C393 C391 1.419 . S
C393 C394 1.362 . S
C394 H386 0.930 . S
C394 C393 1.362 . S
C394 C397 1.409 . S
C395 H387 0.930 . S
C395 C396 1.355 . S
C395 C397 1.415 1_556 S
C396 C395 1.355 . S
C396 C398 1.419 . S
C397 C392 1.425 . S
C397 C394 1.409 . S
C397 C395 1.415 1_554 S
C398 H388 0.930 . S
C398 C396 1.419 . S
C398 C399 1.362 1_556 S
C399 H389 0.930 . S
C399 C392 1.409 . S
C399 C398 1.362 1_554 S
H400 C406 0.930 . S
H401 C409 0.930 . S
H402 C410 0.930 . S
H403 C411 0.930 . S
H404 C414 0.930 . S
H405 C415 0.930 . S
C406 H400 0.930 . S
C406 C407 1.355 . S
C406 C408 1.415 . S
C407 C406 1.355 . S
C407 C409 1.419 . S
C408 C406 1.415 . S
C408 C413 1.425 . S
C408 C415 1.409 . S
C409 H401 0.930 . S
C409 C407 1.419 . S
C409 C410 1.362 . S
C410 H402 0.930 . S
C410 C409 1.362 . S
C410 C413 1.409 . S
C411 H403 0.930 . S
C411 C412 1.355 . S
C411 C413 1.415 . S
C412 C411 1.355 . S
C412 C414 1.419 . S
C413 C408 1.425 . S
C413 C410 1.409 . S
C413 C411 1.415 . S
C414 H404 0.930 . S
C414 C412 1.419 . S
C414 C415 1.362 . S
C415 H405 0.930 . S
C415 C408 1.409 . S
C415 C414 1.362 . S
H416 C422 0.930 . S
H417 C425 0.930 . S
H418 C426 0.930 . S
H419 C427 0.930 . S
H420 C430 0.930 . S
H421 C431 0.930 . S
C422 H416 0.930 . S
C422 C423 1.355 . S
C422 C424 1.415 . S
C423 C422 1.355 . S
C423 C425 1.419 . S
C424 C422 1.415 . S
C424 C429 1.425 . S
C424 C431 1.409 . S
C425 H417 0.930 . S
C425 C423 1.419 . S
C425 C426 1.362 . S
C426 H418 0.930 . S
C426 C425 1.362 . S
C426 C429 1.409 . S
C427 H419 0.930 . S
C427 C428 1.355 . S
C427 C429 1.415 . S
C428 C427 1.355 . S
C428 C430 1.419 . S
C429 C424 1.425 . S
C429 C426 1.409 . S
C429 C427 1.415 . S
C430 H420 0.930 . S
C430 C428 1.419 . S
C430 C431 1.362 . S
C431 H421 0.930 . S
C431 C424 1.409 . S
C431 C430 1.362 . S
H432 C438 0.930 . S
H433 C441 0.930 . S
H434 C442 0.930 . S
H435 C443 0.930 . S
H436 C446 0.930 . S
H437 C447 0.930 . S
C438 H432 0.930 . S
C438 C439 1.355 . S
C438 C440 1.415 . S
C439 C438 1.355 . S
C439 C441 1.419 . S
C440 C438 1.415 . S
C440 C445 1.425 . S
C440 C447 1.409 . S
C441 H433 0.930 . S
C441 C439 1.419 . S
C441 C442 1.362 . S
C442 H434 0.930 . S
C442 C441 1.362 . S
C442 C445 1.409 . S
C443 H435 0.930 . S
C443 C444 1.355 . S
C443 C445 1.415 . S
C444 C443 1.355 . S
C444 C446 1.419 . S
C445 C440 1.425 . S
C445 C442 1.409 . S
C445 C443 1.415 . S
C446 H436 0.930 . S
C446 C444 1.419 . S
C446 C447 1.362 . S
C447 H437 0.930 . S
C447 C440 1.409 . S
C447 C446 1.362 . S
H448 C454 0.930 . S
H449 C457 0.930 . S
H450 C458 0.930 . S
H451 C459 0.930 . S
H452 C462 0.930 . S
H453 C463 0.930 . S
C454 H448 0.930 . S
C454 C455 1.355 . S
C454 C456 1.415 . S
C455 C454 1.355 . S
C455 C457 1.419 . S
C456 C454 1.415 . S
C456 C461 1.425 . S
C456 C463 1.409 . S
C457 H449 0.930 . S
C457 C455 1.419 . S
C457 C458 1.362 . S
C458 H450 0.930 . S
C458 C457 1.362 . S
C458 C461 1.409 . S
C459 H451 0.930 . S
C459 C460 1.355 . S
C459 C461 1.415 . S
C460 C459 1.355 . S
C460 C462 1.419 . S
C461 C456 1.425 . S
C461 C458 1.409 . S
C461 C459 1.415 . S
C462 H452 0.930 . S
C462 C460 1.419 . S
C462 C463 1.362 . S
C463 H453 0.930 . S
C463 C456 1.409 . S
C463 C462 1.362 . S
H464 C470 0.930 . S
H465 C473 0.930 . S
H466 C474 0.930 . S
H467 C475 0.930 . S
H468 C478 0.930 1_655 S
H469 C479 0.930 . S
C470 H464 0.930 . S
C470 C471 1.355 . S
C470 C472 1.415 . S
C471 C470 1.355 . S
C471 C473 1.419 . S
C472 C470 1.415 . S
C472 C477 1.425 . S
C472 C479 1.409 . S
C473 H465 0.930 . S
C473 C471 1.419 . S
C473 C474 1.362 . S
C474 H466 0.930 . S
C474 C473 1.362 . S
C474 C477 1.409 . S
C475 H467 0.930 . S
C475 C476 1.355 . S
C475 C477 1.415 . S
C476 C475 1.355 . S
C476 C478 1.419 . S
C477 C472 1.425 . S
C477 C474 1.409 . S
C477 C475 1.415 . S
C478 H468 0.930 1_455 S
C478 C476 1.419 . S
C478 C479 1.362 . S
C479 H469 0.930 . S
C479 C472 1.409 . S
C479 C478 1.362 . S
H480 C486 0.930 . S
H481 C489 0.930 . S
H482 C490 0.930 . S
H483 C491 0.930 . S
H484 C494 0.930 . S
H485 C495 0.930 . S
C486 H480 0.930 . S
C486 C487 1.355 . S
C486 C488 1.415 . S
C487 C486 1.355 . S
C487 C489 1.419 . S
C488 C486 1.415 . S
C488 C493 1.425 . S
C488 C495 1.409 . S
C489 H481 0.930 . S
C489 C487 1.419 . S
C489 C490 1.362 . S
C490 H482 0.930 . S
C490 C489 1.362 . S
C490 C493 1.409 . S
C491 H483 0.930 . S
C491 C492 1.355 . S
C491 C493 1.415 . S
C492 C491 1.355 . S
C492 C494 1.419 . S
C493 C488 1.425 . S
C493 C490 1.409 . S
C493 C491 1.415 . S
C494 H484 0.930 . S
C494 C492 1.419 . S
C494 C495 1.362 . S
C495 H485 0.930 . S
C495 C488 1.409 . S
C495 C494 1.362 . S
H496 C502 0.930 . S
H497 C505 0.930 . S
H498 C506 0.930 . S
H499 C507 0.930 . S
H500 C510 0.930 1_455 S
H501 C511 0.930 . S
C502 H496 0.930 . S
C502 C503 1.355 . S
C502 C504 1.415 . S
C503 C502 1.355 . S
C503 C505 1.419 . S
C504 C502 1.415 . S
C504 C509 1.425 . S
C504 C511 1.409 . S
C505 H497 0.930 . S
C505 C503 1.419 . S
C505 C506 1.362 . S
C506 H498 0.930 . S
C506 C505 1.362 . S
C506 C509 1.409 . S
C507 H499 0.930 . S
C507 C508 1.355 . S
C507 C509 1.415 1_545 S
C508 C507 1.355 . S
C508 C510 1.419 1_545 S
C509 C504 1.425 . S
C509 C506 1.409 . S
C509 C507 1.415 1_565 S
C510 H500 0.930 1_655 S
C510 C508 1.419 1_565 S
C510 C511 1.362 . S
C511 H501 0.930 . S
C511 C504 1.409 . S
C511 C510 1.362 . S
H512 C518 0.930 . S
H513 C521 0.930 . S
H514 C522 0.930 . S
H515 C523 0.930 . S
H516 C526 0.930 . S
H517 C527 0.930 . S
C518 H512 0.930 . S
C518 C519 1.355 . S
C518 C520 1.415 . S
C519 C518 1.355 . S
C519 C521 1.419 . S
C520 C518 1.415 . S
C520 C525 1.425 . S
C520 C527 1.409 . S
C521 H513 0.930 . S
C521 C519 1.419 . S
C521 C522 1.362 . S
C522 H514 0.930 . S
C522 C521 1.362 . S
C522 C525 1.409 . S
C523 H515 0.930 . S
C523 C524 1.355 . S
C523 C525 1.415 . S
C524 C523 1.355 . S
C524 C526 1.419 . S
C525 C520 1.425 . S
C525 C522 1.409 . S
C525 C523 1.415 . S
C526 H516 0.930 . S
C526 C524 1.419 . S
C526 C527 1.362 . S
C527 H517 0.930 . S
C527 C520 1.409 . S
C527 C526 1.362 . S
H528 C534 0.930 . S
H529 C537 0.930 . S
H530 C538 0.930 . S
H531 C539 0.930 . S
H532 C542 0.930 . S
H533 C543 0.930 . S
C534 H528 0.930 . S
C534 C535 1.355 . S
C534 C536 1.415 1_554 S
C535 C534 1.355 . S
C535 C537 1.419 . S
C536 C534 1.415 1_556 S
C536 C541 1.425 . S
C536 C543 1.409 . S
C537 H529 0.930 . S
C537 C535 1.419 . S
C537 C538 1.362 1_554 S
C538 H530 0.930 . S
C538 C537 1.362 1_556 S
C538 C541 1.409 . S
C539 H531 0.930 . S
C539 C540 1.355 . S
C539 C541 1.415 . S
C540 C539 1.355 . S
C540 C542 1.419 . S
C541 C536 1.425 . S
C541 C538 1.409 . S
C541 C539 1.415 . S
C542 H532 0.930 . S
C542 C540 1.419 . S
C542 C543 1.362 . S
C543 H533 0.930 . S
C543 C536 1.409 . S
C543 C542 1.362 . S
H544 C550 0.930 . S
H545 C553 0.930 1_554 S
H546 C554 0.930 . S
H547 C555 0.930 . S
H548 C558 0.930 . S
H549 C559 0.930 . S
C550 H544 0.930 . S
C550 C551 1.355 . S
C550 C552 1.415 1_554 S
C551 C550 1.355 . S
C551 C553 1.419 1_554 S
C552 C550 1.415 1_556 S
C552 C557 1.425 . S
C552 C559 1.409 . S
C553 H545 0.930 1_556 S
C553 C551 1.419 1_556 S
C553 C554 1.362 . S
C554 H546 0.930 . S
C554 C553 1.362 . S
C554 C557 1.409 . S
C555 H547 0.930 . S
C555 C556 1.355 . S
C555 C557 1.415 . S
C556 C555 1.355 . S
C556 C558 1.419 . S
C557 C552 1.425 . S
C557 C554 1.409 . S
C557 C555 1.415 . S
C558 H548 0.930 . S
C558 C556 1.419 . S
C558 C559 1.362 . S
C559 H549 0.930 . S
C559 C552 1.409 . S
C559 C558 1.362 . S
H560 C566 0.930 . S
H561 C569 0.930 . S
H562 C570 0.930 . S
H563 C571 0.930 . S
H564 C574 0.930 . S
H565 C575 0.930 . S
C566 H560 0.930 . S
C566 C567 1.355 . S
C566 C568 1.415 . S
C567 C566 1.355 . S
C567 C569 1.419 . S
C568 C566 1.415 . S
C568 C573 1.425 . S
C568 C575 1.409 . S
C569 H561 0.930 . S
C569 C567 1.419 . S
C569 C570 1.362 . S
C570 H562 0.930 . S
C570 C569 1.362 . S
C570 C573 1.409 . S
C571 H563 0.930 . S
C571 C572 1.355 . S
C571 C573 1.415 . S
C572 C571 1.355 . S
C572 C574 1.419 . S
C573 C568 1.425 . S
C573 C570 1.409 . S
C573 C571 1.415 . S
C574 H564 0.930 . S
C574 C572 1.419 . S
C574 C575 1.362 . S
C575 H565 0.930 . S
C575 C568 1.409 . S
C575 C574 1.362 . S
H576 C582 0.930 . S
H577 C585 0.930 . S
H578 C586 0.930 . S
H579 C587 0.930 . S
H580 C590 0.930 . S
H581 C591 0.930 . S
C582 H576 0.930 . S
C582 C583 1.355 . S
C582 C584 1.415 . S
C583 C582 1.355 . S
C583 C585 1.419 . S
C584 C582 1.415 . S
C584 C589 1.425 . S
C584 C591 1.409 . S
C585 H577 0.930 . S
C585 C583 1.419 . S
C585 C586 1.362 . S
C586 H578 0.930 . S
C586 C585 1.362 . S
C586 C589 1.409 . S
C587 H579 0.930 . S
C587 C588 1.355 . S
C587 C589 1.415 . S
C588 C587 1.355 . S
C588 C590 1.419 . S
C589 C584 1.425 . S
C589 C586 1.409 . S
C589 C587 1.415 . S
C590 H580 0.930 . S
C590 C588 1.419 . S
C590 C591 1.362 . S
C591 H581 0.930 . S
C591 C584 1.409 . S
C591 C590 1.362 . S
H592 C598 0.932 . S
H593 C601 0.930 . S
H594 C602 0.930 . S
H595 C603 0.930 . S
H596 C606 0.930 . S
H597 C607 0.930 . S
C598 H592 0.932 . S
C598 C599 1.355 . S
C598 C600 1.415 1_455 S
C599 C598 1.355 . S
C599 C601 1.419 . S
C600 C598 1.415 1_655 S
C600 C605 1.425 . S
C600 C607 1.409 . S
C601 H593 0.930 . S
C601 C599 1.419 . S
C601 C602 1.362 . S
C602 H594 0.930 . S
C602 C601 1.362 . S
C602 C605 1.409 1_455 S
C603 H595 0.930 . S
C603 C604 1.355 . S
C603 C605 1.415 . S
C604 C603 1.355 . S
C604 C606 1.419 . S
C605 C600 1.425 . S
C605 C602 1.409 1_655 S
C605 C603 1.415 . S
C606 H596 0.930 . S
C606 C604 1.419 . S
C606 C607 1.362 . S
C607 H597 0.930 . S
C607 C600 1.409 . S
C607 C606 1.362 . S
H608 C614 0.930 . S
H609 C617 0.930 . S
H610 C618 0.930 . S
H611 C619 0.930 . S
H612 C622 0.930 . S
H613 C623 0.930 . S
C614 H608 0.930 . S
C614 C615 1.355 . S
C614 C616 1.415 1_655 S
C615 C614 1.355 . S
C615 C617 1.419 . S
C616 C614 1.415 1_455 S
C616 C621 1.425 . S
C616 C623 1.409 . S
C617 H609 0.930 . S
C617 C615 1.419 . S
C617 C618 1.362 1_655 S
C618 H610 0.930 . S
C618 C617 1.362 1_455 S
C618 C621 1.409 . S
C619 H611 0.930 . S
C619 C620 1.355 . S
C619 C621 1.415 . S
C620 C619 1.355 . S
C620 C622 1.419 . S
C621 C616 1.425 . S
C621 C618 1.409 . S
C621 C619 1.415 . S
C622 H612 0.930 . S
C622 C620 1.419 . S
C622 C623 1.362 . S
C623 H613 0.930 . S
C623 C616 1.409 . S
C623 C622 1.362 . S
H624 C630 0.930 . S
H625 C633 0.930 . S
H626 C634 0.930 . S
H627 C635 0.930 . S
H628 C638 0.930 . S
H629 C639 0.930 1_455 S
C630 H624 0.930 . S
C630 C631 1.355 . S
C630 C632 1.415 1_455 S
C631 C630 1.355 . S
C631 C633 1.419 1_455 S
C632 C630 1.415 1_655 S
C632 C637 1.425 . S
C632 C639 1.409 . S
C633 H625 0.930 . S
C633 C631 1.419 1_655 S
C633 C634 1.362 . S
C634 H626 0.930 . S
C634 C633 1.362 . S
C634 C637 1.409 . S
C635 H627 0.930 . S
C635 C636 1.355 . S
C635 C637 1.415 . S
C636 C635 1.355 . S
C636 C638 1.419 . S
C637 C632 1.425 . S
C637 C634 1.409 . S
C637 C635 1.415 . S
C638 H628 0.930 . S
C638 C636 1.419 . S
C638 C639 1.362 . S
C639 H629 0.930 1_655 S
C639 C632 1.409 . S
C639 C638 1.362 . S
H640 C646 0.930 . S
H641 C649 0.930 . S
H642 C650 0.930 . S
H643 C651 0.930 . S
H644 C654 0.930 . S
H645 C655 0.930 . S
C646 H640 0.930 . S
C646 C647 1.355 . S
C646 C648 1.415 . S
C647 C646 1.355 . S
C647 C649 1.419 . S
C648 C646 1.415 . S
C648 C653 1.425 . S
C648 C655 1.409 . S
C649 H641 0.930 . S
C649 C647 1.419 . S
C649 C650 1.362 . S
C650 H642 0.930 . S
C650 C649 1.362 . S
C650 C653 1.409 . S
C651 H643 0.930 . S
C651 C652 1.355 . S
C651 C653 1.415 1_655 S
C652 C651 1.355 . S
C652 C654 1.419 . S
C653 C648 1.425 . S
C653 C650 1.409 . S
C653 C651 1.415 1_455 S
C654 H644 0.930 . S
C654 C652 1.419 . S
C654 C655 1.362 1_655 S
C655 H645 0.930 . S
C655 C648 1.409 . S
C655 C654 1.362 1_455 S
H656 C662 0.931 . S
H657 C665 0.930 . S
H658 C666 0.930 . S
H659 C667 0.930 . S
H660 C670 0.930 . S
H661 C671 0.930 . S
C662 H656 0.931 . S
C662 C663 1.355 . S
C662 C664 1.415 1_545 S
C663 C662 1.355 . S
C663 C665 1.419 . S
C664 C662 1.415 1_565 S
C664 C669 1.425 . S
C664 C671 1.409 . S
C665 H657 0.930 . S
C665 C663 1.419 . S
C665 C666 1.362 . S
C666 H658 0.930 . S
C666 C665 1.362 . S
C666 C669 1.409 1_545 S
C667 H659 0.930 . S
C667 C668 1.355 . S
C667 C669 1.415 . S
C668 C667 1.355 . S
C668 C670 1.419 . S
C669 C664 1.425 . S
C669 C666 1.409 1_565 S
C669 C667 1.415 . S
C670 H660 0.930 . S
C670 C668 1.419 . S
C670 C671 1.362 . S
C671 H661 0.930 . S
C671 C664 1.409 . S
C671 C670 1.362 . S
H672 C678 0.930 . S
H673 C681 0.930 . S
H674 C682 0.930 . S
H675 C683 0.930 . S
H676 C686 0.930 . S
H677 C687 0.930 . S
C678 H672 0.930 . S
C678 C679 1.355 . S
C678 C680 1.415 . S
C679 C678 1.355 . S
C679 C681 1.419 . S
C680 C678 1.415 . S
C680 C685 1.425 . S
C680 C687 1.409 1_545 S
C681 H673 0.930 . S
C681 C679 1.419 . S
C681 C682 1.362 . S
C682 H674 0.930 . S
C682 C681 1.362 . S
C682 C685 1.409 . S
C683 H675 0.930 . S
C683 C684 1.355 . S
C683 C685 1.415 1_565 S
C684 C683 1.355 . S
C684 C686 1.419 . S
C685 C680 1.425 . S
C685 C682 1.409 . S
C685 C683 1.415 1_545 S
C686 H676 0.930 . S
C686 C684 1.419 . S
C686 C687 1.362 . S
C687 H677 0.930 . S
C687 C680 1.409 1_565 S
C687 C686 1.362 . S
H688 C694 0.930 . S
H689 C697 0.930 . S
H690 C698 0.930 . S
H691 C699 0.930 . S
H692 C702 0.930 . S
H693 C703 0.930 . S
C694 H688 0.930 . S
C694 C695 1.355 . S
C694 C696 1.415 . S
C695 C694 1.355 . S
C695 C697 1.419 . S
C696 C694 1.415 . S
C696 C701 1.425 . S
C696 C703 1.409 . S
C697 H689 0.930 . S
C697 C695 1.419 . S
C697 C698 1.362 . S
C698 H690 0.930 . S
C698 C697 1.362 . S
C698 C701 1.409 . S
C699 H691 0.930 . S
C699 C700 1.355 . S
C699 C701 1.415 . S
C700 C699 1.355 . S
C700 C702 1.419 . S
C701 C696 1.425 . S
C701 C698 1.409 . S
C701 C699 1.415 . S
C702 H692 0.930 . S
C702 C700 1.419 . S
C702 C703 1.362 . S
C703 H693 0.930 . S
C703 C696 1.409 . S
C703 C702 1.362 . S
H704 C710 0.930 . S
H705 C713 0.930 . S
H706 C714 0.930 1_565 S
H707 C715 0.930 . S
H708 C718 0.930 . S
H709 C719 0.930 . S
C710 H704 0.930 . S
C710 C711 1.355 . S
C710 C712 1.415 . S
C711 C710 1.355 . S
C711 C713 1.419 . S
C712 C710 1.415 . S
C712 C717 1.425 . S
C712 C719 1.409 . S
C713 H705 0.930 . S
C713 C711 1.419 . S
C713 C714 1.362 . S
C714 H706 0.930 1_545 S
C714 C713 1.362 . S
C714 C717 1.409 . S
C715 H707 0.930 . S
C715 C716 1.355 . S
C715 C717 1.415 1_565 S
C716 C715 1.355 . S
C716 C718 1.419 1_565 S
C717 C712 1.425 . S
C717 C714 1.409 . S
C717 C715 1.415 1_545 S
C718 H708 0.930 . S
C718 C716 1.419 1_545 S
C718 C719 1.362 . S
C719 H709 0.930 . S
C719 C712 1.409 . S
C719 C718 1.362 . S
H720 C726 0.930 . S
H721 C729 0.930 . S
H722 C730 0.930 . S
H723 C731 0.930 . S
H724 C734 0.930 . S
H725 C735 0.930 . S
C726 H720 0.930 . S
C726 C727 1.355 1_455 S
C726 C728 1.415 . S
C727 C726 1.355 1_655 S
C727 C729 1.419 . S
C728 C726 1.415 . S
C728 C733 1.425 1_455 S
C728 C735 1.409 . S
C729 H721 0.930 . S
C729 C727 1.419 . S
C729 C730 1.362 . S
C730 H722 0.930 . S
C730 C729 1.362 . S
C730 C733 1.409 . S
C731 H723 0.930 . S
C731 C732 1.355 1_655 S
C731 C733 1.415 . S
C732 C731 1.355 1_455 S
C732 C734 1.419 . S
C733 C728 1.425 1_655 S
C733 C730 1.409 . S
C733 C731 1.415 . S
C734 H724 0.930 . S
C734 C732 1.419 . S
C734 C735 1.362 . S
C735 H725 0.930 . S
C735 C728 1.409 . S
C735 C734 1.362 . S
H736 C742 0.930 . S
H737 C745 0.931 . S
H738 C746 0.930 . S
H739 C747 0.930 . S
H740 C750 0.930 . S
H741 C751 0.930 . S
C742 H736 0.930 . S
C742 C743 1.355 . S
C742 C744 1.415 . S
C743 C742 1.355 . S
C743 C745 1.416 1_455 S
C744 C742 1.415 . S
C744 C749 1.422 1_455 S
C744 C751 1.409 . S
C745 H737 0.931 . S
C745 C743 1.416 1_655 S
C745 C746 1.364 . S
C746 H738 0.930 . S
C746 C745 1.364 . S
C746 C749 1.411 . S
C747 H739 0.930 . S
C747 C748 1.356 . S
C747 C749 1.416 . S
C748 C747 1.356 . S
C748 C750 1.416 1_655 S
C749 C744 1.422 1_655 S
C749 C746 1.411 . S
C749 C747 1.416 . S
C750 H740 0.930 . S
C750 C748 1.416 1_455 S
C750 C751 1.362 . S
C751 H741 0.930 . S
C751 C744 1.409 . S
C751 C750 1.362 . S
H752 C758 0.930 . S
H753 C761 0.930 . S
H754 C762 0.930 . S
H755 C763 0.930 . S
H756 C766 0.930 . S
H757 C767 0.930 . S
C758 H752 0.930 . S
C758 C759 1.355 1_565 S
C758 C760 1.415 . S
C759 C758 1.355 1_545 S
C759 C761 1.419 . S
C760 C758 1.415 . S
C760 C765 1.425 1_565 S
C760 C767 1.409 . S
C761 H753 0.930 . S
C761 C759 1.419 . S
C761 C762 1.362 . S
C762 H754 0.930 . S
C762 C761 1.362 . S
C762 C765 1.409 . S
C763 H755 0.930 . S
C763 C764 1.355 . S
C763 C765 1.415 . S
C764 C763 1.355 . S
C764 C766 1.419 1_545 S
C765 C760 1.425 1_545 S
C765 C762 1.409 . S
C765 C763 1.415 . S
C766 H756 0.930 . S
C766 C764 1.419 1_565 S
C766 C767 1.362 . S
C767 H757 0.930 . S
C767 C760 1.409 . S
C767 C766 1.362 . S
H768 C774 0.930 . S
H769 C777 0.930 . S
H770 C778 0.930 . S
H771 C779 0.930 . S
H772 C782 0.930 . S
H773 C783 0.930 . S
C774 H768 0.930 . S
C774 C775 1.355 . S
C774 C776 1.415 . S
C775 C774 1.355 . S
C775 C777 1.419 . S
C776 C774 1.415 . S
C776 C781 1.425 . S
C776 C783 1.409 . S
C777 H769 0.930 . S
C777 C775 1.419 . S
C777 C778 1.362 . S
C778 H770 0.930 . S
C778 C777 1.362 . S
C778 C781 1.409 . S
C779 H771 0.930 . S
C779 C780 1.355 . S
C779 C781 1.415 . S
C780 C779 1.355 . S
C780 C782 1.419 . S
C781 C776 1.425 . S
C781 C778 1.409 . S
C781 C779 1.415 . S
C782 H772 0.930 . S
C782 C780 1.419 . S
C782 C783 1.362 . S
C783 H773 0.930 . S
C783 C776 1.409 . S
C783 C782 1.362 . S
H784 C790 0.930 . S
H785 C793 0.930 . S
H786 C794 0.930 . S
H787 C795 0.930 . S
H788 C798 0.930 . S
H789 C799 0.930 . S
C790 H784 0.930 . S
C790 C791 1.355 1_556 S
C790 C792 1.415 . S
C791 C790 1.355 1_554 S
C791 C793 1.419 . S
C792 C790 1.415 . S
C792 C797 1.425 1_556 S
C792 C799 1.409 . S
C793 H785 0.930 . S
C793 C791 1.419 . S
C793 C794 1.362 . S
C794 H786 0.930 . S
C794 C793 1.362 . S
C794 C797 1.409 . S
C795 H787 0.930 . S
C795 C796 1.355 1_554 S
C795 C797 1.415 . S
C796 C795 1.355 1_556 S
C796 C798 1.419 . S
C797 C792 1.425 1_554 S
C797 C794 1.409 . S
C797 C795 1.415 . S
C798 H788 0.930 . S
C798 C796 1.419 . S
C798 C799 1.362 . S
C799 H789 0.930 . S
C799 C792 1.409 . S
C799 C798 1.362 . S
H800 C806 0.930 . S
H801 C809 0.930 . S
H802 C810 0.930 . S
H803 C811 0.930 . S
H804 C814 0.930 . S
H805 C815 0.930 . S
C806 H800 0.930 . S
C806 C807 1.355 . S
C806 C808 1.415 . S
C807 C806 1.355 . S
C807 C809 1.419 . S
C808 C806 1.415 . S
C808 C813 1.425 . S
C808 C815 1.409 . S
C809 H801 0.930 . S
C809 C807 1.419 . S
C809 C810 1.362 . S
C810 H802 0.930 . S
C810 C809 1.362 . S
C810 C813 1.409 . S
C811 H803 0.930 . S
C811 C812 1.355 . S
C811 C813 1.415 . S
C812 C811 1.355 . S
C812 C814 1.419 . S
C813 C808 1.425 . S
C813 C810 1.409 . S
C813 C811 1.415 . S
C814 H804 0.930 . S
C814 C812 1.419 . S
C814 C815 1.362 . S
C815 H805 0.930 . S
C815 C808 1.409 . S
C815 C814 1.362 . S
H816 C822 0.930 . S
H817 C825 0.930 . S
H818 C826 0.930 . S
H819 C827 0.930 . S
H820 C830 0.930 . S
H821 C831 0.930 . S
C822 H816 0.930 . S
C822 C823 1.355 . S
C822 C824 1.415 . S
C823 C822 1.355 . S
C823 C825 1.419 . S
C824 C822 1.415 . S
C824 C829 1.425 . S
C824 C831 1.409 . S
C825 H817 0.930 . S
C825 C823 1.419 . S
C825 C826 1.362 . S
C826 H818 0.930 . S
C826 C825 1.362 . S
C826 C829 1.409 . S
C827 H819 0.930 . S
C827 C828 1.355 . S
C827 C829 1.415 . S
C828 C827 1.355 . S
C828 C830 1.419 . S
C829 C824 1.425 . S
C829 C826 1.409 . S
C829 C827 1.415 . S
C830 H820 0.930 . S
C830 C828 1.419 . S
C830 C831 1.362 . S
C831 H821 0.930 . S
C831 C824 1.409 . S
C831 C830 1.362 . S
H832 C838 0.930 . S
H833 C841 0.930 . S
H834 C842 0.930 . S
H835 C843 0.930 . S
H836 C846 0.930 . S
H837 C847 0.930 . S
C838 H832 0.930 . S
C838 C839 1.355 . S
C838 C840 1.415 . S
C839 C838 1.355 . S
C839 C841 1.419 . S
C840 C838 1.415 . S
C840 C845 1.425 . S
C840 C847 1.409 . S
C841 H833 0.930 . S
C841 C839 1.419 . S
C841 C842 1.362 . S
C842 H834 0.930 . S
C842 C841 1.362 . S
C842 C845 1.409 . S
C843 H835 0.930 . S
C843 C844 1.355 . S
C843 C845 1.415 . S
C844 C843 1.355 . S
C844 C846 1.419 . S
C845 C840 1.425 . S
C845 C842 1.409 . S
C845 C843 1.415 . S
C846 H836 0.930 . S
C846 C844 1.419 . S
C846 C847 1.362 . S
C847 H837 0.930 . S
C847 C840 1.409 . S
C847 C846 1.362 . S
H848 C854 0.930 . S
H849 C857 0.930 . S
H850 C858 0.930 . S
H851 C859 0.930 . S
H852 C862 0.930 . S
H853 C863 0.930 . S
C854 H848 0.930 . S
C854 C855 1.355 . S
C854 C856 1.415 . S
C855 C854 1.355 . S
C855 C857 1.419 . S
C856 C854 1.415 . S
C856 C861 1.425 . S
C856 C863 1.409 . S
C857 H849 0.930 . S
C857 C855 1.419 . S
C857 C858 1.362 . S
C858 H850 0.930 . S
C858 C857 1.362 . S
C858 C861 1.409 . S
C859 H851 0.930 . S
C859 C860 1.355 . S
C859 C861 1.415 . S
C860 C859 1.355 . S
C860 C862 1.419 . S
C861 C856 1.425 . S
C861 C858 1.409 . S
C861 C859 1.415 . S
C862 H852 0.930 . S
C862 C860 1.419 . S
C862 C863 1.362 . S
C863 H853 0.930 . S
C863 C856 1.409 . S
C863 C862 1.362 . S
H864 C870 0.930 . S
H865 C873 0.930 . S
H866 C874 0.930 . S
H867 C875 0.930 . S
H868 C878 0.930 . S
H869 C879 0.930 . S
C870 H864 0.930 . S
C870 C871 1.355 . S
C870 C872 1.415 . S
C871 C870 1.355 . S
C871 C873 1.419 . S
C872 C870 1.415 . S
C872 C877 1.425 . S
C872 C879 1.409 . S
C873 H865 0.930 . S
C873 C871 1.419 . S
C873 C874 1.362 . S
C874 H866 0.930 . S
C874 C873 1.362 . S
C874 C877 1.409 . S
C875 H867 0.930 . S
C875 C876 1.355 . S
C875 C877 1.415 . S
C876 C875 1.355 . S
C876 C878 1.419 . S
C877 C872 1.425 . S
C877 C874 1.409 . S
C877 C875 1.415 . S
C878 H868 0.930 . S
C878 C876 1.419 . S
C878 C879 1.362 . S
C879 H869 0.930 . S
C879 C872 1.409 . S
C879 C878 1.362 . S
H880 C886 0.930 . S
H881 C889 0.930 . S
H882 C890 0.930 . S
H883 C891 0.930 . S
H884 C894 0.930 . S
H885 C895 0.930 . S
C886 H880 0.930 . S
C886 C887 1.355 1_565 S
C886 C888 1.415 . S
C887 C886 1.355 1_545 S
C887 C889 1.419 . S
C888 C886 1.415 . S
C888 C893 1.425 1_565 S
C888 C895 1.409 . S
C889 H881 0.930 . S
C889 C887 1.419 . S
C889 C890 1.362 . S
C890 H882 0.930 . S
C890 C889 1.362 . S
C890 C893 1.409 . S
C891 H883 0.930 . S
C891 C892 1.355 1_545 S
C891 C893 1.415 . S
C892 C891 1.355 1_565 S
C892 C894 1.419 . S
C893 C888 1.425 1_545 S
C893 C890 1.409 . S
C893 C891 1.415 . S
C894 H884 0.930 . S
C894 C892 1.419 . S
C894 C895 1.362 . S
C895 H885 0.930 . S
C895 C888 1.409 . S
C895 C894 1.362 . S
H896 C902 0.930 . S
H897 C905 0.930 . S
H898 C906 0.930 . S
H899 C907 0.931 . S
H900 C910 0.930 . S
H901 C911 0.930 . S
C902 H896 0.930 . S
C902 C903 1.352 1_554 S
C902 C904 1.415 . S
C903 C902 1.352 1_556 S
C903 C905 1.421 . S
C904 C902 1.415 . S
C904 C909 1.425 . S
C904 C911 1.409 . S
C905 H897 0.930 . S
C905 C903 1.421 . S
C905 C906 1.363 . S
C906 H898 0.930 . S
C906 C905 1.363 . S
C906 C909 1.409 1_556 S
C907 H899 0.931 . S
C907 C908 1.355 . S
C907 C909 1.415 . S
C908 C907 1.355 . S
C908 C910 1.419 . S
C909 C904 1.425 . S
C909 C906 1.409 1_554 S
C909 C907 1.415 . S
C910 H900 0.930 . S
C910 C908 1.419 . S
C910 C911 1.362 . S
C911 H901 0.930 . S
C911 C904 1.409 . S
C911 C910 1.362 . S
H912 C918 0.930 . S
H913 C921 0.930 . S
H914 C922 0.930 . S
H915 C923 0.930 . S
H916 C926 0.930 . S
H917 C927 0.930 . S
C918 H912 0.930 . S
C918 C919 1.354 1_655 S
C918 C920 1.393 1_565 S
C919 C918 1.354 1_455 S
C919 C921 1.420 . S
C920 C918 1.393 1_545 S
C920 C925 1.417 1_645 S
C920 C927 1.440 . S
C921 H913 0.930 . S
C921 C919 1.420 . S
C921 C922 1.362 . S
C922 H914 0.930 . S
C922 C921 1.362 . S
C922 C925 1.409 . S
C923 H915 0.930 . S
C923 C924 1.355 1_455 S
C923 C925 1.415 1_545 S
C924 C923 1.355 1_655 S
C924 C926 1.419 . S
C925 C920 1.417 1_465 S
C925 C922 1.409 . S
C925 C923 1.415 1_565 S
C926 H916 0.930 . S
C926 C924 1.419 . S
C926 C927 1.362 . S
C927 H917 0.930 . S
C927 C920 1.440 . S
C927 C926 1.362 . S
H928 C934 0.930 . S
H929 C937 0.930 . S
H930 C938 0.930 . S
H931 C939 0.930 . S
H932 C942 0.930 . S
H933 C943 0.930 . S
C934 H928 0.930 . S
C934 C935 1.355 1_655 S
C934 C936 1.415 . S
C935 C934 1.355 1_455 S
C935 C937 1.419 . S
C936 C934 1.415 . S
C936 C941 1.425 1_655 S
C936 C943 1.409 . S
C937 H929 0.930 . S
C937 C935 1.419 . S
C937 C938 1.362 . S
C938 H930 0.930 . S
C938 C937 1.362 . S
C938 C941 1.409 . S
C939 H931 0.930 . S
C939 C940 1.355 1_455 S
C939 C941 1.415 . S
C940 C939 1.355 1_655 S
C940 C942 1.419 . S
C941 C936 1.425 1_455 S
C941 C938 1.409 . S
C941 C939 1.415 . S
C942 H932 0.930 . S
C942 C940 1.419 . S
C942 C943 1.362 . S
C943 H933 0.930 . S
C943 C936 1.409 . S
C943 C942 1.362 . S
H944 C950 0.930 . S
H945 C953 0.930 . S
H946 C954 0.930 . S
H947 C955 0.930 . S
H948 C958 0.930 . S
H949 C959 0.930 . S
C950 H944 0.930 . S
C950 C951 1.355 . S
C950 C952 1.415 . S
C951 C950 1.355 . S
C951 C953 1.419 1_565 S
C952 C950 1.415 . S
C952 C957 1.413 1_566 S
C952 C959 1.409 . S
C953 H945 0.930 . S
C953 C951 1.419 1_545 S
C953 C954 1.362 1_556 S
C954 H946 0.930 . S
C954 C953 1.362 1_554 S
C954 C957 1.420 . S
C955 H947 0.930 . S
C955 C956 1.355 1_545 S
C955 C957 1.418 . S
C956 C955 1.355 1_565 S
C956 C958 1.419 . S
C957 C952 1.413 1_544 S
C957 C954 1.420 . S
C957 C955 1.418 . S
C958 H948 0.930 . S
C958 C956 1.419 . S
C958 C959 1.362 1_554 S
C959 H949 0.930 . S
C959 C952 1.409 . S
C959 C958 1.362 1_556 S
H960 C966 0.930 . S
H961 C969 0.930 . S
H962 C970 0.930 . S
H963 C971 0.930 . S
H964 C974 0.930 . S
H965 C975 0.930 . S
C966 H960 0.930 . S
C966 C967 1.355 . S
C966 C968 1.415 . S
C967 C966 1.355 . S
C967 C969 1.419 . S
C968 C966 1.415 . S
C968 C973 1.425 1_554 S
C968 C975 1.409 . S
C969 H961 0.930 . S
C969 C967 1.419 . S
C969 C970 1.362 1_554 S
C970 H962 0.930 . S
C970 C969 1.362 1_556 S
C970 C973 1.409 . S
C971 H963 0.930 . S
C971 C972 1.355 . S
C971 C973 1.415 . S
C972 C971 1.355 . S
C972 C974 1.419 . S
C973 C968 1.425 1_556 S
C973 C970 1.409 . S
C973 C971 1.415 . S
C974 H964 0.930 . S
C974 C972 1.419 . S
C974 C975 1.362 1_556 S
C975 H965 0.930 . S
C975 C968 1.409 . S
C975 C974 1.362 1_554 S
H976 C982 0.930 . S
H977 C985 0.930 . S
H978 C986 0.930 . S
H979 C987 0.930 . S
H980 C990 0.930 . S
H981 C991 0.930 . S
C982 H976 0.930 . S
C982 C983 1.355 . S
C982 C984 1.415 . S
C983 C982 1.355 . S
C983 C985 1.419 1_545 S
C984 C982 1.415 . S
C984 C989 1.425 1_545 S
C984 C991 1.409 . S
C985 H977 0.930 . S
C985 C983 1.419 1_565 S
C985 C986 1.362 . S
C986 H978 0.930 . S
C986 C985 1.362 . S
C986 C989 1.409 . S
C987 H979 0.930 . S
C987 C988 1.355 1_565 S
C987 C989 1.415 . S
C988 C987 1.355 1_545 S
C988 C990 1.419 . S
C989 C984 1.425 1_565 S
C989 C986 1.409 . S
C989 C987 1.415 . S
C990 H980 0.930 . S
C990 C988 1.419 . S
C990 C991 1.362 . S
C991 H981 0.930 . S
C991 C984 1.409 . S
C991 C990 1.362 . S
H992 C998 0.930 . S
H993 C1001 0.930 . S
H994 C1002 0.930 . S
H995 C1003 0.930 . S
H996 C1006 0.930 . S
H997 C1007 0.930 . S
C998 H992 0.930 . S
C998 C999 1.355 . S
C998 C1000 1.415 . S
C999 C998 1.355 . S
C999 C1001 1.419 . S
C1000 C998 1.415 . S
C1000 C1005 1.425 . S
C1000 C1007 1.409 . S
C1001 H993 0.930 . S
C1001 C999 1.419 . S
C1001 C1002 1.362 . S
C1002 H994 0.930 . S
C1002 C1001 1.362 . S
C1002 C1005 1.409 . S
C1003 H995 0.930 . S
C1003 C1004 1.355 . S
C1003 C1005 1.415 . S
C1004 C1003 1.355 . S
C1004 C1006 1.419 . S
C1005 C1000 1.425 . S
C1005 C1002 1.409 . S
C1005 C1003 1.415 . S
C1006 H996 0.930 . S
C1006 C1004 1.419 . S
C1006 C1007 1.362 . S
C1007 H997 0.930 . S
C1007 C1000 1.409 . S
C1007 C1006 1.362 . S
H1008 C1014 0.930 . S
H1009 C1017 0.930 . S
H1010 C1018 0.930 . S
H1011 C1019 0.930 . S
H1012 C1022 0.930 . S
H1013 C1023 0.930 . S
C1014 H1008 0.930 . S
C1014 C1015 1.355 1_554 S
C1014 C1016 1.415 . S
C1015 C1014 1.355 1_556 S
C1015 C1017 1.419 . S
C1016 C1014 1.415 . S
C1016 C1021 1.425 1_454 S
C1016 C1023 1.409 . S
C1017 H1009 0.930 . S
C1017 C1015 1.419 . S
C1017 C1018 1.362 1_455 S
C1018 H1010 0.930 . S
C1018 C1017 1.362 1_655 S
C1018 C1021 1.409 . S
C1019 H1011 0.930 . S
C1019 C1020 1.363 . S
C1019 C1021 1.415 . S
C1020 C1019 1.363 . S
C1020 C1022 1.410 1_556 S
C1021 C1016 1.425 1_656 S
C1021 C1018 1.409 . S
C1021 C1019 1.415 . S
C1022 H1012 0.930 . S
C1022 C1020 1.410 1_554 S
C1022 C1023 1.362 1_655 S
C1023 H1013 0.930 . S
C1023 C1016 1.409 . S
C1023 C1022 1.362 1_455 S
H1024 C1030 0.930 . S
H1025 C1033 0.930 . S
H1026 C1034 0.930 . S
H1027 C1035 0.930 . S
H1028 C1038 0.930 . S
H1029 C1039 0.930 . S
C1030 H1024 0.930 . S
C1030 C1031 1.355 . S
C1030 C1032 1.415 1_455 S
C1031 C1030 1.355 . S
C1031 C1033 1.419 . S
C1032 C1030 1.415 1_655 S
C1032 C1037 1.425 1_655 S
C1032 C1039 1.409 . S
C1033 H1025 0.930 . S
C1033 C1031 1.419 . S
C1033 C1034 1.362 . S
C1034 H1026 0.930 . S
C1034 C1033 1.362 . S
C1034 C1037 1.409 . S
C1035 H1027 0.930 . S
C1035 C1036 1.355 . S
C1035 C1037 1.415 1_655 S
C1036 C1035 1.355 . S
C1036 C1038 1.419 . S
C1037 C1032 1.425 1_455 S
C1037 C1034 1.409 . S
C1037 C1035 1.415 1_455 S
C1038 H1028 0.930 . S
C1038 C1036 1.419 . S
C1038 C1039 1.362 . S
C1039 H1029 0.930 . S
C1039 C1032 1.409 . S
C1039 C1038 1.362 . S
H1040 C1046 0.930 . S
H1041 C1049 0.930 . S
H1042 C1050 0.930 . S
H1043 C1051 0.930 . S
H1044 C1054 0.930 . S
H1045 C1055 0.930 . S
C1046 H1040 0.930 . S
C1046 C1047 1.355 . S
C1046 C1048 1.415 . S
C1047 C1046 1.355 . S
C1047 C1049 1.419 . S
C1048 C1046 1.415 . S
C1048 C1053 1.425 . S
C1048 C1055 1.409 . S
C1049 H1041 0.930 . S
C1049 C1047 1.419 . S
C1049 C1050 1.362 . S
C1050 H1042 0.930 . S
C1050 C1049 1.362 . S
C1050 C1053 1.409 . S
C1051 H1043 0.930 . S
C1051 C1052 1.355 . S
C1051 C1053 1.415 . S
C1052 C1051 1.355 . S
C1052 C1054 1.419 . S
C1053 C1048 1.425 . S
C1053 C1050 1.409 . S
C1053 C1051 1.415 . S
C1054 H1044 0.930 . S
C1054 C1052 1.419 . S
C1054 C1055 1.362 . S
C1055 H1045 0.930 . S
C1055 C1048 1.409 . S
C1055 C1054 1.362 . S
H1056 C1062 0.930 . S
H1057 C1065 0.930 . S
H1058 C1066 0.930 . S
H1059 C1067 0.930 . S
H1060 C1070 0.930 . S
H1061 C1071 0.930 . S
C1062 H1056 0.930 . S
C1062 C1063 1.355 . S
C1062 C1064 1.415 . S
C1063 C1062 1.355 . S
C1063 C1065 1.419 . S
C1064 C1062 1.415 . S
C1064 C1069 1.425 . S
C1064 C1071 1.409 . S
C1065 H1057 0.930 . S
C1065 C1063 1.419 . S
C1065 C1066 1.362 . S
C1066 H1058 0.930 . S
C1066 C1065 1.362 . S
C1066 C1069 1.409 . S
C1067 H1059 0.930 . S
C1067 C1068 1.355 . S
C1067 C1069 1.415 . S
C1068 C1067 1.355 . S
C1068 C1070 1.419 . S
C1069 C1064 1.425 . S
C1069 C1066 1.409 . S
C1069 C1067 1.415 . S
C1070 H1060 0.930 . S
C1070 C1068 1.419 . S
C1070 C1071 1.362 . S
C1071 H1061 0.930 . S
C1071 C1064 1.409 . S
C1071 C1070 1.362 . S
H1072 C1078 0.930 . S
H1073 C1081 0.930 . S
H1074 C1082 0.930 1_545 S
H1075 C1083 0.930 . S
H1076 C1086 0.930 . S
H1077 C1087 0.930 . S
C1078 H1072 0.930 . S
C1078 C1079 1.355 . S
C1078 C1080 1.415 . S
C1079 C1078 1.355 . S
C1079 C1081 1.419 . S
C1080 C1078 1.415 . S
C1080 C1085 1.425 1_565 S
C1080 C1087 1.409 . S
C1081 H1073 0.930 . S
C1081 C1079 1.419 . S
C1081 C1082 1.362 . S
C1082 H1074 0.930 1_565 S
C1082 C1081 1.362 . S
C1082 C1085 1.409 1_565 S
C1083 H1075 0.930 . S
C1083 C1084 1.355 . S
C1083 C1085 1.415 . S
C1084 C1083 1.355 . S
C1084 C1086 1.419 . S
C1085 C1080 1.425 1_545 S
C1085 C1082 1.409 1_545 S
C1085 C1083 1.415 . S
C1086 H1076 0.930 . S
C1086 C1084 1.419 . S
C1086 C1087 1.362 1_545 S
C1087 H1077 0.930 . S
C1087 C1080 1.409 . S
C1087 C1086 1.362 1_565 S
H1088 C1094 0.930 . S
H1089 C1097 0.930 . S
H1090 C1098 0.930 . S
H1091 C1099 0.930 . S
H1092 C1102 0.930 . S
H1093 C1103 0.930 . S
C1094 H1088 0.930 . S
C1094 C1095 1.355 . S
C1094 C1096 1.415 . S
C1095 C1094 1.355 . S
C1095 C1097 1.419 1_554 S
C1096 C1094 1.415 . S
C1096 C1101 1.425 1_554 S
C1096 C1103 1.409 . S
C1097 H1089 0.930 . S
C1097 C1095 1.419 1_556 S
C1097 C1098 1.362 . S
C1098 H1090 0.930 . S
C1098 C1097 1.362 . S
C1098 C1101 1.409 . S
C1099 H1091 0.930 . S
C1099 C1100 1.352 1_556 S
C1099 C1101 1.415 . S
C1100 C1099 1.352 1_554 S
C1100 C1102 1.423 . S
C1101 C1096 1.425 1_556 S
C1101 C1098 1.409 . S
C1101 C1099 1.415 . S
C1102 H1092 0.930 . S
C1102 C1100 1.423 . S
C1102 C1103 1.362 . S
C1103 H1093 0.930 . S
C1103 C1096 1.409 . S
C1103 C1102 1.362 . S
C343 C247 0.860 . S
C348 C8 0.828 . S
C359 C22 0.871 . S
C364 C233 0.811 . S
C375 C36 1.070 . S
C380 C275 1.098 . S
C391 C50 1.134 . S
C396 C261 1.102 . S
C407 C64 0.824 . S
C412 C303 0.830 . S
C423 C78 1.124 . S
C428 C317 1.133 . S
C439 C289 0.806 . S
C444 C92 0.902 . S
C455 C163 1.008 . S
C460 C106 1.110 . S
C471 C120 0.839 . S
C476 C51 0.805 . S
C487 C23 1.069 . S
C492 C134 1.115 . S
C503 C148 1.320 . S
C508 C9 1.277 . S
C519 C162 1.178 . S
C524 C205 1.141 . S
C535 C79 1.273 . S
C540 C176 1.347 . S
C551 C65 1.304 . S
C556 C190 1.324 . S
C567 C204 1.124 . S
C572 C107 1.018 . S
C583 C218 1.134 . S
C588 C93 1.148 . S
C599 C135 1.263 . S
C604 C232 1.360 . S
C615 C149 1.038 . S
C620 C246 1.094 . S
C631 C121 1.281 . S
C636 C260 1.319 . S
C647 C274 1.061 . S
C652 C331 1.088 . S
C663 C219 1.264 . S
C668 C288 1.360 . S
C679 C302 1.169 . S
C684 C191 1.117 . S
C695 C177 0.786 . S
C700 C316 0.876 . S
C711 C330 1.043 . S
C716 C37 1.045 . S
C727 C6 1.577 . S
C732 C20 1.598 . S
C743 C48 1.449 . S
C748 C34 1.515 . S
C759 C62 1.615 1_545 S
C764 C90 1.561 . S
C775 C76 1.971 . S
C780 C104 1.901 . S
C791 C314 1.564 . S
C796 C118 1.588 . S
C807 C132 1.977 . S
C812 C160 1.919 . S
C823 C286 1.848 . S
C828 C146 1.899 . S
C839 C188 1.914 . S
C844 C174 1.898 . S
C855 C202 1.919 . S
C860 C216 1.977 . S
C871 C258 1.906 . S
C876 C230 1.902 . S
C887 C244 1.466 . S
C892 C272 1.483 . S
C903 C328 1.485 . S
C908 C300 1.500 . S
C919 C35 1.240 . S
C924 C7 1.289 . S
C935 C21 1.507 1_455 S
C940 C49 1.475 . S
C951 C273 1.197 1_565 S
C956 C63 1.202 . S
C967 C77 1.392 . S
C972 C259 1.403 . S
C983 C91 1.515 1_545 S
C988 C245 1.541 1_545 S
C999 C231 1.737 . S
C1004 C105 1.728 . S
C1015 C119 1.234 . S
C1020 C329 1.193 1_556 S
C1031 C133 1.480 . S
C1036 C147 1.481 . S
C1047 C287 1.738 . S
C1052 C161 1.713 . S
C1063 C175 1.661 . S
C1068 C203 1.659 . S
C1079 C189 1.401 . S
C1084 C217 1.431 . S
C1095 C315 1.459 1_554 S
C1100 C301 1.457 1_554 S
