# Generated by pormake.
# Topology uot, (4)-cn, num edge types: 1
# Building blocks:
#     Node 0, Type 0, BuildingBlock: NAHDIM_clean_sbu_0, # of connection points: 4
#     Node 1, Type 0, BuildingBlock: NAHDIM_clean_sbu_0, # of connection points: 4
#     Node 2, Type 0, BuildingBlock: NAHDIM_clean_sbu_0, # of connection points: 4
#     Node 3, Type 0, BuildingBlock: NAHDIM_clean_sbu_0, # of connection points: 4
#     Node 4, Type 0, BuildingBlock: NAHDIM_clean_sbu_0, # of connection points: 4
#     Node 5, Type 0, BuildingBlock: NAHDIM_clean_sbu_0, # of connection points: 4
#     Node 6, Type 0, BuildingBlock: NAHDIM_clean_sbu_0, # of connection points: 4
#     Node 7, Type 0, BuildingBlock: NAHDIM_clean_sbu_0, # of connection points: 4
#     Node 8, Type 0, BuildingBlock: NAHDIM_clean_sbu_0, # of connection points: 4
#     Node 9, Type 0, BuildingBlock: NAHDIM_clean_sbu_0, # of connection points: 4
#     Node 10, Type 0, BuildingBlock: NAHDIM_clean_sbu_0, # of connection points: 4
#     Node 11, Type 0, BuildingBlock: NAHDIM_clean_sbu_0, # of connection points: 4
#     Node 12, Type 0, BuildingBlock: NAHDIM_clean_sbu_0, # of connection points: 4
#     Node 13, Type 0, BuildingBlock: NAHDIM_clean_sbu_0, # of connection points: 4
#     Node 14, Type 0, BuildingBlock: NAHDIM_clean_sbu_0, # of connection points: 4
#     Node 15, Type 0, BuildingBlock: NAHDIM_clean_sbu_0, # of connection points: 4
#     Edge 16, Type (0, 0), BuildingBlock: AJUNOK_clean_linker_0, # of connection points: 2
#     Edge 17, Type (0, 0), BuildingBlock: AJUNOK_clean_linker_0, # of connection points: 2
#     Edge 18, Type (0, 0), BuildingBlock: AJUNOK_clean_linker_0, # of connection points: 2
#     Edge 19, Type (0, 0), BuildingBlock: AJUNOK_clean_linker_0, # of connection points: 2
#     Edge 20, Type (0, 0), BuildingBlock: AJUNOK_clean_linker_0, # of connection points: 2
#     Edge 21, Type (0, 0), BuildingBlock: AJUNOK_clean_linker_0, # of connection points: 2
#     Edge 22, Type (0, 0), BuildingBlock: AJUNOK_clean_linker_0, # of connection points: 2
#     Edge 23, Type (0, 0), BuildingBlock: AJUNOK_clean_linker_0, # of connection points: 2
#     Edge 24, Type (0, 0), BuildingBlock: AJUNOK_clean_linker_0, # of connection points: 2
#     Edge 25, Type (0, 0), BuildingBlock: AJUNOK_clean_linker_0, # of connection points: 2
#     Edge 26, Type (0, 0), BuildingBlock: AJUNOK_clean_linker_0, # of connection points: 2
#     Edge 27, Type (0, 0), BuildingBlock: AJUNOK_clean_linker_0, # of connection points: 2
#     Edge 28, Type (0, 0), BuildingBlock: AJUNOK_clean_linker_0, # of connection points: 2
#     Edge 29, Type (0, 0), BuildingBlock: AJUNOK_clean_linker_0, # of connection points: 2
#     Edge 30, Type (0, 0), BuildingBlock: AJUNOK_clean_linker_0, # of connection points: 2
#     Edge 31, Type (0, 0), BuildingBlock: AJUNOK_clean_linker_0, # of connection points: 2
#     Edge 32, Type (0, 0), BuildingBlock: AJUNOK_clean_linker_0, # of connection points: 2
#     Edge 33, Type (0, 0), BuildingBlock: AJUNOK_clean_linker_0, # of connection points: 2
#     Edge 34, Type (0, 0), BuildingBlock: AJUNOK_clean_linker_0, # of connection points: 2
#     Edge 35, Type (0, 0), BuildingBlock: AJUNOK_clean_linker_0, # of connection points: 2
#     Edge 36, Type (0, 0), BuildingBlock: AJUNOK_clean_linker_0, # of connection points: 2
#     Edge 37, Type (0, 0), BuildingBlock: AJUNOK_clean_linker_0, # of connection points: 2
#     Edge 38, Type (0, 0), BuildingBlock: AJUNOK_clean_linker_0, # of connection points: 2
#     Edge 39, Type (0, 0), BuildingBlock: AJUNOK_clean_linker_0, # of connection points: 2
#     Edge 40, Type (0, 0), BuildingBlock: AJUNOK_clean_linker_0, # of connection points: 2
#     Edge 41, Type (0, 0), BuildingBlock: AJUNOK_clean_linker_0, # of connection points: 2
#     Edge 42, Type (0, 0), BuildingBlock: AJUNOK_clean_linker_0, # of connection points: 2
#     Edge 43, Type (0, 0), BuildingBlock: AJUNOK_clean_linker_0, # of connection points: 2
#     Edge 44, Type (0, 0), BuildingBlock: AJUNOK_clean_linker_0, # of connection points: 2
#     Edge 45, Type (0, 0), BuildingBlock: AJUNOK_clean_linker_0, # of connection points: 2
#     Edge 46, Type (0, 0), BuildingBlock: AJUNOK_clean_linker_0, # of connection points: 2
#     Edge 47, Type (0, 0), BuildingBlock: AJUNOK_clean_linker_0, # of connection points: 2
# Relax obj value: 0.174
# Max RMSD: 0.208
# Mean RMSD: 0.208
data_MOF--net-uot--node1-NAHDIM_clean_sbu_0--edge1-AJUNOK_clean_linker_0
_symmetry_space_group_name_H-M    P1
_symmetry_Int_Tables_number       1
_symmetry_cell_setting            triclinic
loop_
_symmetry_equiv_pos_as_xyz
'x, y, z'
_cell_length_a     32.960187
_cell_length_b     33.000036
_cell_length_c     28.909275
_cell_angle_alpha  90.13732
_cell_angle_beta   90.039089
_cell_angle_gamma 89.944706
loop_
_atom_site_label
_atom_site_type_symbol
_atom_site_fract_x
_atom_site_fract_y
_atom_site_fract_z
_atom_type_partial_charge
C0 C 0.25847 0.38248 0.30354 0.0
O1 O 0.23237 0.39266 0.27122 0.0
O2 O 0.15527 0.40896 0.34506 0.0
Zn3 Zn 0.20893 0.43509 0.35952 0.0
O4 O 0.21218 0.45194 0.4267 0.0
C5 C 0.18331 0.51085 0.33112 0.0
O6 O 0.16216 0.5047 0.36898 0.0
O7 O 0.25468 0.39762 0.34375 0.0
C8 C 0.1838 0.4445 0.45522 0.0
O9 O 0.15188 0.4243 0.44082 0.0
C10 C 0.14702 0.37164 0.33988 0.0
O11 O 0.17572 0.3445 0.34585 0.0
O12 O 0.2096 0.48461 0.31945 0.0
C13 C 0.41072 0.72674 0.70705 0.0
O14 O 0.41464 0.74955 0.74408 0.0
O15 O 0.39338 0.8365 0.68293 0.0
Zn16 Zn 0.43728 0.79919 0.6599 0.0
O17 O 0.44697 0.80935 0.59245 0.0
C18 C 0.48831 0.8281 0.73429 0.0
O19 O 0.45322 0.83499 0.75439 0.0
O20 O 0.41985 0.74148 0.66788 0.0
C21 C 0.47899 0.79623 0.57317 0.0
O22 O 0.50536 0.77586 0.59811 0.0
C23 C 0.37153 0.85838 0.65673 0.0
O24 O 0.37649 0.85618 0.61172 0.0
O25 O 0.48877 0.81157 0.69454 0.0
C26 C 0.72901 0.61663 0.30856 0.0
O27 O 0.75976 0.62659 0.33512 0.0
O28 O 0.82343 0.57904 0.30308 0.0
Zn29 Zn 0.773 0.54658 0.31677 0.0
O30 O 0.76877 0.5356 0.38485 0.0
C31 C 0.79254 0.49177 0.24284 0.0
O32 O 0.79901 0.52575 0.22045 0.0
O33 O 0.72536 0.57999 0.29563 0.0
C34 C 0.79295 0.50998 0.40262 0.0
O35 O 0.81965 0.49203 0.37577 0.0
C36 C 0.8474 0.59434 0.33282 0.0
O37 O 0.8412 0.58782 0.37704 0.0
O38 O 0.77849 0.49341 0.28369 0.0
C39 C 0.60915 0.2675 0.65587 0.0
O40 O 0.60975 0.24235 0.62056 0.0
O41 O 0.59655 0.16299 0.69495 0.0
Zn42 Zn 0.55556 0.20703 0.68218 0.0
O43 O 0.53417 0.20142 0.61724 0.0
C44 C 0.50211 0.16723 0.74504 0.0
O45 O 0.52978 0.13892 0.74003 0.0
O46 O 0.58515 0.26006 0.68915 0.0
C47 C 0.51845 0.16841 0.60331 0.0
O48 O 0.51606 0.13771 0.63201 0.0
C49 C 0.6156 0.14234 0.66478 0.0
O50 O 0.60932 0.14925 0.62064 0.0
O51 O 0.50748 0.20118 0.72523 0.0
C52 C 0.30876 0.58449 0.70163 0.0
O53 O 0.30524 0.56421 0.66267 0.0
O54 O 0.18331 0.59505 0.72891 0.0
Zn55 Zn 0.22759 0.55428 0.71805 0.0
O56 O 0.22456 0.53354 0.65256 0.0
C57 C 0.19611 0.51086 0.79647 0.0
O58 O 0.18563 0.54745 0.8099 0.0
O59 O 0.28034 0.58246 0.73116 0.0
C60 C 0.19469 0.51098 0.64206 0.0
O61 O 0.16733 0.50334 0.67388 0.0
C62 C 0.16502 0.61552 0.69814 0.0
O63 O 0.17442 0.61021 0.65439 0.0
O64 O 0.21719 0.50689 0.75993 0.0
C65 C 0.61027 0.7432 0.28444 0.0
O66 O 0.62 0.77811 0.3032 0.0
O67 O 0.56577 0.83639 0.26417 0.0
Zn68 Zn 0.5387 0.78579 0.28758 0.0
O69 O 0.53223 0.78828 0.35642 0.0
C70 C 0.47792 0.79816 0.21864 0.0
O71 O 0.50992 0.80562 0.19295 0.0
O72 O 0.57359 0.73729 0.27269 0.0
C73 C 0.50581 0.81123 0.37484 0.0
O74 O 0.48358 0.83449 0.3481 0.0
C75 C 0.5848 0.86229 0.28848 0.0
O76 O 0.58802 0.85692 0.33333 0.0
O77 O 0.48317 0.78486 0.25939 0.0
C78 C 0.74156 0.38322 0.66496 0.0
O79 O 0.77094 0.37718 0.635 0.0
O80 O 0.8445 0.40364 0.70959 0.0
Zn81 Zn 0.7992 0.44016 0.68804 0.0
O82 O 0.80615 0.45301 0.62051 0.0
C83 C 0.83431 0.51307 0.71231 0.0
O84 O 0.85781 0.49896 0.67928 0.0
O85 O 0.74593 0.4109 0.69521 0.0
C86 C 0.78116 0.47602 0.59991 0.0
O87 O 0.75098 0.49178 0.62359 0.0
C88 C 0.87532 0.39548 0.68485 0.0
O89 O 0.8776 0.4105 0.6429 0.0
O90 O 0.80345 0.49239 0.724 0.0
C91 C 0.3731 0.24952 0.28656 0.0
O92 O 0.36737 0.21988 0.25688 0.0
O93 O 0.39152 0.14611 0.31322 0.0
Zn94 Zn 0.42875 0.19269 0.32843 0.0
O95 O 0.44647 0.19065 0.39482 0.0
C96 C 0.47724 0.17793 0.24649 0.0
O97 O 0.44178 0.17051 0.22752 0.0
O98 O 0.39888 0.24488 0.3188 0.0
C99 C 0.46261 0.15935 0.41256 0.0
O100 O 0.46757 0.12682 0.3869 0.0
C101 C 0.37118 0.12576 0.34241 0.0
O102 O 0.37345 0.13487 0.38658 0.0
O103 O 0.47859 0.18897 0.28859 0.0
C104 C 0.79766 0.91435 0.80235 0.0
O105 O 0.80131 0.94126 0.83564 0.0
O106 O 0.66556 0.90609 0.78684 0.0
Zn107 Zn 0.71387 0.94043 0.80326 0.0
O108 O 0.71637 0.95045 0.87215 0.0
C109 C 0.6951 -0.00345 0.7297 0.0
O110 O 0.68942 0.96317 0.7057 0.0
O111 O 0.76351 0.91028 0.78252 0.0
C112 C 0.70029 0.98201 0.8896 0.0
O113 O 0.68113 0.00735 0.86223 0.0
C114 C 0.63259 0.90553 0.80954 0.0
O115 O 0.62929 0.92805 0.84686 0.0
O116 O 0.70779 0.99383 0.77103 0.0
C117 C 0.91599 0.19747 0.19171 0.0
O118 O 0.94725 0.19721 0.16358 0.0
O119 O 0.89561 0.32713 0.21579 0.0
Zn120 Zn 0.93609 0.28265 0.20303 0.0
O121 O 0.95348 0.28636 0.1365 0.0
C122 C 0.99521 0.32737 0.2509 0.0
O123 O 0.97436 0.35609 0.23032 0.0
O124 O 0.90756 0.22982 0.21362 0.0
C125 C 0.98906 0.27784 0.12266 0.0
O126 O 0.01616 0.26559 0.15289 0.0
C127 C 0.87758 0.34668 0.18395 0.0
O128 O 0.88444 0.33706 0.14056 0.0
O129 O 0.9847 0.29071 0.24465 0.0
C130 C 0.23706 0.1109 0.76892 0.0
O131 O 0.26905 0.11255 0.74194 0.0
O132 O 0.33679 0.07888 0.80653 0.0
Zn133 Zn 0.2841 0.0505 0.81921 0.0
O134 O 0.2804 0.03752 0.88681 0.0
C135 C 0.2934 -0.00311 0.74129 0.0
O136 O 0.29624 0.03124 0.71867 0.0
O137 O 0.23669 0.08573 0.80213 0.0
C138 C 0.31171 0.03267 0.91184 0.0
O139 O 0.34776 0.03706 0.89315 0.0
C140 C 0.34469 0.11613 0.81313 0.0
O141 O 0.31651 0.14024 0.8298 0.0
O142 O 0.28563 -0.00211 0.78428 0.0
C143 C 0.09513 0.75361 0.15854 0.0
O144 O 0.10095 0.7256 0.1269 0.0
O145 O 0.08609 0.65191 0.22538 0.0
Zn146 Zn 0.04829 0.68951 0.1925 0.0
O147 O 0.03891 0.67175 0.12667 0.0
C148 C 0.99188 0.67602 0.2672 0.0
O149 O 0.02522 0.67283 0.29188 0.0
O150 O 0.07234 0.74565 0.19279 0.0
C151 C 0.00912 0.6882 0.10609 0.0
O152 O 0.98616 0.71364 0.12937 0.0
C153 C 0.11685 0.63339 0.20943 0.0
O154 O 0.12694 0.63817 0.16584 0.0
O155 O 0.99463 0.686 0.22492 0.0
C156 C 0.7851 0.08158 0.17319 0.0
O157 O 0.78705 0.04902 0.1471 0.0
O158 O 0.6529 0.10905 0.18319 0.0
Zn159 Zn 0.69741 0.06935 0.16811 0.0
O160 O 0.69756 0.0553 0.10004 0.0
C161 C 0.65172 0.00222 0.1937 0.0
O162 O 0.63081 0.01696 0.15888 0.0
O163 O 0.75063 0.09425 0.18663 0.0
C164 C 0.70928 0.02054 0.08635 0.0
O165 O 0.72179 0.99413 0.11715 0.0
C166 C 0.62238 0.11623 0.1576 0.0
O167 O 0.62009 0.09885 0.11674 0.0
O168 O 0.68468 0.01951 0.20513 0.0
C169 C 0.1212 0.24252 0.78274 0.0
O170 O 0.1268 0.27706 0.76122 0.0
O171 O 0.10723 0.33866 0.8328 0.0
Zn172 Zn 0.06917 0.29154 0.84039 0.0
O173 O 0.05718 0.28371 0.90807 0.0
C174 C 0.01841 0.32105 0.76662 0.0
O175 O 0.05373 0.32913 0.74775 0.0
O176 O 0.09658 0.24134 0.81653 0.0
C177 C 0.02472 0.29688 0.92641 0.0
O178 O -0.00178 0.31598 0.9004 0.0
C179 C 0.10533 0.37028 0.85789 0.0
O180 O 0.07791 0.37219 0.89075 0.0
O181 O 0.01757 0.30353 0.80567 0.0
C182 C 0.20586 0.88921 0.15357 0.0
O183 O 0.23041 0.89137 0.11792 0.0
O184 O 0.31231 0.90238 0.1957 0.0
Zn185 Zn 0.26646 0.94121 0.18356 0.0
O186 O 0.27046 0.96337 0.11917 0.0
C187 C 0.28856 0.98567 0.2663 0.0
O188 O 0.29772 0.94957 0.28229 0.0
O189 O 0.21415 0.91005 0.18941 0.0
C190 C 0.30132 0.98229 0.10438 0.0
O191 O 0.33251 0.98759 0.13206 0.0
C192 C 0.33119 0.88251 0.16475 0.0
O193 O 0.32155 0.88758 0.12106 0.0
O194 O 0.2721 0.98861 0.22669 0.0
C195 C 0.91069 0.78129 0.77918 0.0
O196 O 0.90411 0.75416 0.7467 0.0
O197 O 0.92387 0.67402 0.79099 0.0
Zn198 Zn 0.95777 0.71689 0.82155 0.0
O199 O 0.96099 0.70657 0.88975 0.0
C200 C 0.01995 0.70226 0.75374 0.0
O201 O 0.98871 0.70048 0.72554 0.0
O202 O 0.93368 0.7722 0.81284 0.0
C203 C 0.98574 0.68114 0.90688 0.0
O204 O 0.0087 0.65966 0.87893 0.0
C205 C 0.89307 0.65664 0.80834 0.0
O206 O 0.88035 0.66774 0.84951 0.0
O207 O 0.014 0.71194 0.79573 0.0
C208 C 0.32051 0.34498 0.32819 0.0
C209 C 0.28985 0.35112 0.29507 0.0
C210 C 0.34826 0.31312 0.32396 0.0
C211 C 0.34641 0.28577 0.28659 0.0
H212 H 0.32268 0.36443 0.35833 0.0
H213 H 0.37052 0.30927 0.35119 0.0
S214 S 0.27414 0.29056 0.18811 0.0
N215 N 0.26097 0.32882 0.22179 0.0
N216 N 0.31311 0.26872 0.21392 0.0
C217 C 0.31704 0.29257 0.25205 0.0
C218 C 0.2888 0.32528 0.25626 0.0
C219 C 0.38714 0.66293 0.66894 0.0
C220 C 0.3906 0.68657 0.70937 0.0
C221 C 0.36279 0.62823 0.66769 0.0
C222 C 0.34067 0.61584 0.70676 0.0
H223 H 0.40199 0.67217 0.63725 0.0
H224 H 0.35965 0.61237 0.63505 0.0
S225 S 0.34467 0.66297 0.82345 0.0
N226 N 0.37392 0.69201 0.7912 0.0
N227 N 0.32801 0.62682 0.78877 0.0
C228 C 0.34634 0.63729 0.74843 0.0
C229 C 0.37134 0.67263 0.74977 0.0
C230 C 0.62916 0.66951 0.28367 0.0
C231 C 0.6409 0.71052 0.28251 0.0
C232 C 0.65807 0.63865 0.2898 0.0
C233 C 0.69943 0.648 0.29512 0.0
H234 H 0.59737 0.66134 0.28221 0.0
H235 H 0.64776 0.6076 0.29275 0.0
S236 S 0.74642 0.74973 0.2855 0.0
N237 N 0.69724 0.7581 0.28049 0.0
N238 N 0.75122 0.70032 0.29229 0.0
C239 C 0.71172 0.68853 0.29059 0.0
C240 C 0.68251 0.71976 0.28419 0.0
C241 C 0.66587 0.30639 0.62069 0.0
C242 C 0.63939 0.30073 0.65826 0.0
C243 C 0.69793 0.33393 0.62307 0.0
C244 C 0.70492 0.3573 0.663 0.0
H245 H 0.66261 0.28865 0.58935 0.0
H246 H 0.71783 0.33633 0.59338 0.0
S247 S 0.64256 0.35669 0.76983 0.0
N248 N 0.62082 0.32272 0.7359 0.0
N249 N 0.68125 0.3749 0.74017 0.0
C250 C 0.67766 0.35348 0.70018 0.0
C251 C 0.64489 0.32511 0.69786 0.0
C252 C 0.82515 0.85559 0.75741 0.0
C253 C 0.83059 0.88483 0.79244 0.0
C254 C 0.85252 0.8235 0.75164 0.0
C255 C 0.88641 0.81917 0.7808 0.0
H256 H 0.79866 0.85649 0.73523 0.0
H257 H 0.84589 0.80092 0.72546 0.0
S258 S 0.91797 0.89081 0.87338 0.0
N259 N 0.87509 0.90982 0.85339 0.0
N260 N 0.92649 0.84949 0.8426 0.0
C261 C 0.89379 0.84969 0.81391 0.0
C262 C 0.86593 0.88252 0.8197 0.0
C263 C 0.81905 0.13921 0.21358 0.0
C264 C 0.82169 0.10647 0.18248 0.0
C265 C 0.85076 0.16702 0.21832 0.0
C266 C 0.8865 0.16346 0.19197 0.0
H267 H 0.79163 0.14435 0.23342 0.0
H268 H 0.84634 0.19248 0.24149 0.0
S269 S 0.91101 0.08002 0.11013 0.0
N270 N 0.86474 0.06963 0.12837 0.0
N271 N 0.92442 0.12205 0.13716 0.0
C272 C 0.89076 0.12932 0.16303 0.0
C273 C 0.85836 0.10081 0.1583 0.0
C274 C 0.14334 0.17167 0.79963 0.0
C275 C 0.14739 0.20693 0.77275 0.0
C276 C 0.1713 0.1399 0.79627 0.0
C277 C 0.20455 0.14193 0.76584 0.0
H278 H 0.11927 0.16909 0.82494 0.0
H279 H 0.16754 0.1142 0.81912 0.0
S280 S 0.22583 0.22505 0.68292 0.0
N281 N 0.18489 0.24011 0.71097 0.0
N282 N 0.23751 0.18033 0.70468 0.0
C283 C 0.20745 0.17575 0.73641 0.0
C284 C 0.17889 0.20824 0.73987 0.0
C285 C 0.15493 0.84638 0.19541 0.0
C286 C 0.17264 0.85901 0.15355 0.0
C287 C 0.12803 0.81343 0.19663 0.0
C288 C 0.11812 0.79197 0.15607 0.0
H289 H 0.16326 0.86077 0.22775 0.0
H290 H 0.11656 0.80353 0.22985 0.0
S291 S 0.15064 0.81728 0.03673 0.0
N292 N 0.17406 0.85069 0.06983 0.0
N293 N 0.12397 0.78878 0.07231 0.0
C294 C 0.13343 0.80603 0.1137 0.0
C295 C 0.16056 0.83957 0.11239 0.0
C296 C 0.14594 0.57506 0.31692 0.0
C297 C 0.1722 0.54483 0.3002 0.0
C298 C 0.12967 0.60437 0.2875 0.0
C299 C 0.13887 0.60478 0.23996 0.0
H300 H 0.13677 0.57549 0.35289 0.0
H301 H 0.10875 0.62624 0.30217 0.0
S302 S 0.20914 0.5345 0.17941 0.0
N303 N 0.20915 0.51872 0.23358 0.0
N304 N 0.17842 0.57404 0.17805 0.0
C305 C 0.16685 0.57608 0.22309 0.0
C306 C 0.18355 0.54607 0.25326 0.0
C307 C 0.52443 0.86792 0.79546 0.0
C308 C 0.52631 0.8438 0.75528 0.0
C309 C 0.55913 0.88672 0.81346 0.0
C310 C 0.5972 0.88223 0.79205 0.0
H311 H 0.49571 0.87335 0.8126 0.0
H312 H 0.55572 0.9058 0.84375 0.0
S313 S 0.61945 0.81887 0.68866 0.0
N314 N 0.57012 0.81397 0.69656 0.0
N315 N 0.63526 0.84926 0.73032 0.0
C316 C 0.59989 0.85677 0.75298 0.0
C317 C 0.56452 0.83757 0.73463 0.0
C318 C 0.83765 0.38623 0.24184 0.0
C319 C 0.85157 0.38177 0.19614 0.0
C320 C 0.81653 0.42094 0.25588 0.0
C321 C 0.80891 0.45293 0.22492 0.0
H322 H 0.84389 0.36311 0.26744 0.0
H323 H 0.80774 0.42334 0.29187 0.0
S324 S 0.83559 0.45477 0.10024 0.0
N325 N 0.85352 0.41104 0.11894 0.0
N326 N 0.8142 0.47658 0.14553 0.0
C327 C 0.82099 0.44812 0.17857 0.0
C328 C 0.84219 0.41248 0.1641 0.0
C329 C 0.45589 0.11676 0.78127 0.0
C330 C 0.46294 0.15703 0.7675 0.0
C331 C 0.41787 0.10433 0.79711 0.0
C332 C 0.38528 0.13167 0.80044 0.0
H333 H 0.47953 0.09407 0.77843 0.0
H334 H 0.41388 0.07272 0.80612 0.0
S335 S 0.38827 0.2413 0.77252 0.0
N336 N 0.43453 0.22493 0.76091 0.0
N337 N 0.36294 0.20144 0.79127 0.0
C338 C 0.3922 0.17248 0.78898 0.0
C339 C 0.43103 0.18517 0.77235 0.0
C340 C 0.18251 0.43638 0.79685 0.0
C341 C 0.17719 0.47459 0.81775 0.0
C342 C 0.16019 0.40265 0.81123 0.0
C343 C 0.13162 0.40556 0.84726 0.0
H344 H 0.20295 0.43265 0.76782 0.0
H345 H 0.1646 0.37434 0.79286 0.0
S346 S 0.1097 0.49755 0.91733 0.0
N347 N 0.14381 0.51251 0.87927 0.0
N348 N 0.10187 0.44907 0.90637 0.0
C349 C 0.12764 0.44301 0.87032 0.0
C350 C 0.15042 0.47749 0.85558 0.0
C351 C 0.39638 0.84759 0.14539 0.0
C352 C 0.36578 0.85627 0.17781 0.0
C353 C 0.43169 0.82679 0.15835 0.0
C354 C 0.43752 0.81341 0.20409 0.0
H355 H 0.39393 0.85846 0.11017 0.0
H356 H 0.45517 0.82243 0.13262 0.0
S357 S 0.3639 0.82404 0.30074 0.0
N358 N 0.3418 0.84675 0.25659 0.0
N359 N 0.40774 0.80722 0.2809 0.0
C360 C 0.4059 0.81965 0.23614 0.0
C361 C 0.37019 0.84127 0.22304 0.0
C362 C 0.87716 0.57491 0.71795 0.0
C363 C 0.84553 0.55127 0.73621 0.0
C364 C 0.89123 0.60943 0.74091 0.0
C365 C 0.87447 0.62191 0.78338 0.0
H366 H 0.89182 0.56644 0.68583 0.0
H367 H 0.9162 0.6259 0.72547 0.0
S368 S 0.78897 0.57222 0.84467 0.0
N369 N 0.79621 0.54394 0.79821 0.0
N370 N 0.8228 0.609 0.84167 0.0
C371 C 0.8418 0.59942 0.8014 0.0
C372 C 0.8273 0.56411 0.77776 0.0
C373 C 0.54841 0.13333 0.15657 0.0
C374 C 0.58687 0.13802 0.17706 0.0
C375 C 0.51331 0.14806 0.17823 0.0
C376 C 0.51524 0.16815 0.22119 0.0
H377 H 0.54503 0.1165 0.12459 0.0
H378 H 0.48432 0.1421 0.16193 0.0
S379 S 0.60933 0.19408 0.28562 0.0
N380 N 0.62532 0.16842 0.24007 0.0
N381 N 0.55948 0.19616 0.28071 0.0
C382 C 0.55382 0.17551 0.24048 0.0
C383 C 0.58956 0.16043 0.21844 0.0
C384 C 0.66468 0.03851 0.66644 0.0
C385 C 0.68061 0.03608 0.71158 0.0
C386 C 0.64544 0.07379 0.65067 0.0
C387 C 0.64099 0.10778 0.67963 0.0
H388 H 0.66581 0.01253 0.64351 0.0
H389 H 0.63231 0.07367 0.61631 0.0
S390 S 0.68188 0.11929 0.79852 0.0
N391 N 0.69428 0.07268 0.78327 0.0
N392 N 0.65749 0.1385 0.75377 0.0
C393 C 0.65866 0.10665 0.72385 0.0
C394 C 0.67868 0.07096 0.73977 0.0
C395 C 0.09964 0.3199 0.30603 0.0
C396 C 0.10643 0.35962 0.3222 0.0
C397 C 0.06298 0.30918 0.2845 0.0
C398 C 0.03184 0.33784 0.27813 0.0
H399 H 0.12325 0.29717 0.30863 0.0
H400 H 0.05965 0.27862 0.27126 0.0
S401 S 0.03215 0.44444 0.31949 0.0
N402 N 0.0771 0.42664 0.33426 0.0
N403 N 0.00865 0.40653 0.29359 0.0
C404 C 0.03745 0.37707 0.29609 0.0
C405 C 0.07459 0.38795 0.3182 0.0
C406 C 0.31637 0.95824 0.67155 0.0
C407 C 0.30645 0.95849 0.71891 0.0
C408 C 0.33531 0.9247 0.65101 0.0
C409 C 0.34539 0.89023 0.67714 0.0
H410 H 0.31102 0.98478 0.65042 0.0
H411 H 0.34395 0.92676 0.61496 0.0
S412 S 0.32038 0.87279 0.80065 0.0
N413 N 0.30383 0.91908 0.79006 0.0
N414 N 0.33977 0.85633 0.75145 0.0
C415 C 0.33317 0.8889 0.72371 0.0
C416 C 0.31356 0.92291 0.74459 0.0
C417 C 0.91694 0.62235 0.34545 0.0
C418 C 0.88225 0.61902 0.31742 0.0
C419 C 0.95164 0.64264 0.32982 0.0
C420 C 0.95284 0.66064 0.28569 0.0
H421 H 0.91791 0.60788 0.37903 0.0
H422 H 0.97816 0.6429 0.35195 0.0
S423 S 0.86735 0.66574 0.20198 0.0
N424 N 0.84946 0.63904 0.24563 0.0
N425 N 0.91438 0.67748 0.2163 0.0
C426 C 0.91733 0.65966 0.25854 0.0
C427 C 0.88215 0.63872 0.27434 0.0
C428 C 0.60564 0.94271 0.19851 0.0
C429 C 0.63642 0.96631 0.21877 0.0
C430 C 0.58944 0.90916 0.22134 0.0
C431 C 0.60298 0.89802 0.26567 0.0
H432 H 0.59389 0.95006 0.16454 0.0
H433 H 0.56572 0.89209 0.20415 0.0
S434 S 0.68326 0.94956 0.33397 0.0
N435 N 0.6802 0.97604 0.28569 0.0
N436 N 0.64939 0.91297 0.32893 0.0
C437 C 0.63379 0.92127 0.28646 0.0
C438 C 0.65066 0.95534 0.26291 0.0
C439 C 0.94775 0.37305 0.68163 0.0
C440 C 0.91011 0.37273 0.70457 0.0
C441 C 0.9822 0.35516 0.70135 0.0
C442 C 0.98045 0.33596 0.74472 0.0
H443 H 0.95109 0.38831 0.64872 0.0
H444 H 0.01063 0.35728 0.68274 0.0
S445 S 0.88817 0.32317 0.81702 0.0
N446 N 0.87243 0.34903 0.77162 0.0
N447 N 0.93705 0.31523 0.80859 0.0
C448 C 0.94256 0.33379 0.76714 0.0
C449 C 0.90747 0.35223 0.74713 0.0
C450 C 0.33095 0.0915 0.28083 0.0
C451 C 0.34629 0.09129 0.32619 0.0
C452 C 0.31027 0.05801 0.26279 0.0
C453 C 0.30473 0.02258 0.28911 0.0
H454 H 0.33554 0.11756 0.2587 0.0
H455 H 0.30013 0.0594 0.22718 0.0
S456 S 0.337 0.00754 0.41091 0.0
N457 N 0.3526 0.05371 0.39811 0.0
N458 N 0.31432 0.99025 0.36389 0.0
C459 C 0.31867 0.02248 0.33514 0.0
C460 C 0.33926 0.05696 0.35378 0.0
C461 C 0.10065 0.65224 0.67936 0.0
C462 C 0.13103 0.64244 0.71162 0.0
C463 C 0.06568 0.67343 0.69282 0.0
C464 C 0.05992 0.68597 0.73896 0.0
H465 H 0.10298 0.64197 0.64385 0.0
H466 H 0.04238 0.67873 0.66708 0.0
S467 S 0.13335 0.67261 0.83543 0.0
N468 N 0.15509 0.6503 0.79071 0.0
N469 N 0.08977 0.69039 0.81598 0.0
C470 C 0.09139 0.6786 0.77091 0.0
C471 C 0.12679 0.65672 0.75727 0.0
C472 C 0.22102 0.5015 0.5615 0.0
C473 C 0.19109 0.49332 0.5949 0.0
C474 C 0.21855 0.48528 0.51675 0.0
C475 C 0.18602 0.46022 0.50337 0.0
H476 H 0.24667 0.52068 0.56983 0.0
H477 H 0.24234 0.49278 0.49239 0.0
S478 S 0.0999 0.42879 0.57798 0.0
N479 N 0.12798 0.45794 0.61158 0.0
N480 N 0.12336 0.42754 0.5276 0.0
C481 C 0.15595 0.45156 0.5365 0.0
C482 C 0.15848 0.46807 0.58216 0.0
C483 C 0.52499 0.7863 0.45344 0.0
C484 C 0.49918 0.80995 0.42558 0.0
C485 C 0.51854 0.78266 0.50109 0.0
C486 C 0.4859 0.80236 0.52297 0.0
H487 H 0.55031 0.77003 0.43836 0.0
H488 H 0.53908 0.76366 0.52071 0.0
S489 S 0.41038 0.8696 0.46619 0.0
N490 N 0.44038 0.85463 0.42376 0.0
N491 N 0.42822 0.84777 0.51332 0.0
C492 C 0.46026 0.82683 0.49575 0.0
C493 C 0.46692 0.83065 0.44712 0.0
C494 C 0.76062 0.51866 0.48029 0.0
C495 C 0.79113 0.50093 0.45283 0.0
C496 C 0.7578 0.51054 0.5277 0.0
C497 C 0.78543 0.4844 0.54974 0.0
H498 H 0.73846 0.53894 0.4651 0.0
H499 H 0.73362 0.52489 0.54711 0.0
S500 S 0.87155 0.4306 0.49372 0.0
N501 N 0.84996 0.45627 0.45141 0.0
N502 N 0.84472 0.44103 0.54042 0.0
C503 C 0.81631 0.46661 0.52279 0.0
C504 C 0.81914 0.47485 0.47442 0.0
C505 C 0.48284 0.19786 0.48329 0.0
C506 C 0.47637 0.16031 0.46134 0.0
C507 C 0.49647 0.20005 0.52907 0.0
C508 C 0.50367 0.16478 0.55507 0.0
H509 H 0.47783 0.22595 0.4648 0.0
H510 H 0.50119 0.22972 0.54422 0.0
S511 S 0.49053 0.05885 0.51412 0.0
N512 N 0.47775 0.08695 0.46923 0.0
N513 N 0.50301 0.09102 0.55557 0.0
C514 C 0.49692 0.12697 0.53377 0.0
C515 C 0.48343 0.12474 0.48685 0.0
C516 C 0.68945 0.03644 0.00483 0.0
C517 C 0.70788 0.00981 0.03646 0.0
C518 C 0.6871 0.02704 0.95764 0.0
C519 C 0.70319 0.99065 0.93993 0.0
H520 H 0.67644 0.06482 0.01653 0.0
H521 H 0.67253 0.04869 0.93492 0.0
S522 S 0.75521 0.91058 0.00797 0.0
N523 N 0.74294 0.94543 0.04655 0.0
N524 N 0.73857 0.92783 0.95789 0.0
C525 C 0.7219 0.96373 0.9711 0.0
C526 C 0.72421 0.97327 0.01929 0.0
C527 C 0.97926 0.30331 0.99517 0.0
C528 C 0.01681 0.29128 0.97654 0.0
C529 C 0.9707 0.29869 0.04226 0.0
C530 C -0.00064 0.28197 0.07292 0.0
H531 H 0.95605 0.3164 0.97325 0.0
H532 H 0.94128 0.30854 0.05465 0.0
S533 S 0.10248 0.24552 0.04181 0.0
N534 N 0.08309 0.26176 0.99257 0.0
N535 N 0.06699 0.25316 0.08113 0.0
C536 C 0.03711 0.26976 0.05484 0.0
C537 C 0.04582 0.27437 0.0067 0.0
C538 C 0.34224 0.02091 0.98995 0.0
C539 C 0.30777 0.02109 0.96118 0.0
C540 C 0.33974 0.00901 0.03636 0.0
C541 C 0.30271 0.99647 0.05579 0.0
H542 H 0.37157 0.02989 0.97657 0.0
H543 H 0.36724 0.00905 0.05687 0.0
S544 S 0.20308 0.99246 0.99572 0.0
N545 N 0.2351 0.0085 0.95595 0.0
N546 N 0.23044 0.98602 0.04294 0.0
C547 C 0.26784 -0.00302 0.0276 0.0
C548 C 0.27034 0.00933 0.98041 0.0
C549 C 0.96328 0.69955 0.98663 0.0
C550 C 0.99065 0.67867 0.95781 0.0
C551 C 0.96891 0.70121 0.03453 0.0
C552 C 0.00221 0.68214 0.05583 0.0
H553 H 0.93757 0.71554 0.97206 0.0
H554 H 0.9473 0.71844 0.05483 0.0
S555 S 0.08143 0.6211 0.99643 0.0
N556 N 0.05131 0.63658 0.95438 0.0
N557 N 0.06194 0.63976 0.04457 0.0
C558 C 0.02907 0.6598 0.02771 0.0
C559 C 0.02328 0.65804 0.97872 0.0
loop_
_geom_bond_atom_site_label_1
_geom_bond_atom_site_label_2
_geom_bond_distance
_geom_bond_site_symmetry_2
_ccdc_geom_bond_type
C0 O1 1.160 . S
C0 O7 1.185 . S
O1 C0 1.160 . S
O2 Zn3 1.899 . S
O2 C10 1.284 . S
Zn3 O2 1.899 . S
Zn3 O4 2.032 . S
Zn3 O7 2.086 . S
Zn3 O12 1.977 . S
O4 Zn3 2.032 . S
O4 C8 1.278 . S
C5 O6 1.203 . S
C5 O12 1.267 . S
O6 C5 1.203 . S
O7 C0 1.185 . S
O7 Zn3 2.086 . S
C8 O4 1.278 . S
C8 O9 1.211 . S
O9 C8 1.211 . S
C10 O2 1.284 . S
C10 O11 1.273 . S
O11 C10 1.273 . S
O12 Zn3 1.977 . S
O12 C5 1.267 . S
C13 O14 1.160 . S
C13 O20 1.185 . S
O14 C13 1.160 . S
O15 Zn16 1.899 . S
O15 C23 1.284 . S
Zn16 O15 1.899 . S
Zn16 O17 2.032 . S
Zn16 O20 2.086 . S
Zn16 O25 1.977 . S
O17 Zn16 2.032 . S
O17 C21 1.278 . S
C18 O19 1.203 . S
C18 O25 1.267 . S
O19 C18 1.203 . S
O20 C13 1.185 . S
O20 Zn16 2.086 . S
C21 O17 1.278 . S
C21 O22 1.211 . S
O22 C21 1.211 . S
C23 O15 1.284 . S
C23 O24 1.273 . S
O24 C23 1.273 . S
O25 Zn16 1.977 . S
O25 C18 1.267 . S
C26 O27 1.160 . S
C26 O33 1.185 . S
O27 C26 1.160 . S
O28 Zn29 1.899 . S
O28 C36 1.284 . S
Zn29 O28 1.899 . S
Zn29 O30 2.032 . S
Zn29 O33 2.086 . S
Zn29 O38 1.977 . S
O30 Zn29 2.032 . S
O30 C34 1.278 . S
C31 O32 1.203 . S
C31 O38 1.267 . S
O32 C31 1.203 . S
O33 C26 1.185 . S
O33 Zn29 2.086 . S
C34 O30 1.278 . S
C34 O35 1.211 . S
O35 C34 1.211 . S
C36 O28 1.284 . S
C36 O37 1.273 . S
O37 C36 1.273 . S
O38 Zn29 1.977 . S
O38 C31 1.267 . S
C39 O40 1.160 . S
C39 O46 1.185 . S
O40 C39 1.160 . S
O41 Zn42 1.899 . S
O41 C49 1.284 . S
Zn42 O41 1.899 . S
Zn42 O43 2.032 . S
Zn42 O46 2.086 . S
Zn42 O51 1.977 . S
O43 Zn42 2.032 . S
O43 C47 1.278 . S
C44 O45 1.203 . S
C44 O51 1.267 . S
O45 C44 1.203 . S
O46 C39 1.185 . S
O46 Zn42 2.086 . S
C47 O43 1.278 . S
C47 O48 1.211 . S
O48 C47 1.211 . S
C49 O41 1.284 . S
C49 O50 1.273 . S
O50 C49 1.273 . S
O51 Zn42 1.977 . S
O51 C44 1.267 . S
C52 O53 1.160 . S
C52 O59 1.185 . S
O53 C52 1.160 . S
O54 Zn55 1.899 . S
O54 C62 1.284 . S
Zn55 O54 1.899 . S
Zn55 O56 2.032 . S
Zn55 O59 2.086 . S
Zn55 O64 1.977 . S
O56 Zn55 2.032 . S
O56 C60 1.278 . S
C57 O58 1.203 . S
C57 O64 1.267 . S
O58 C57 1.203 . S
O59 C52 1.185 . S
O59 Zn55 2.086 . S
C60 O56 1.278 . S
C60 O61 1.211 . S
O61 C60 1.211 . S
C62 O54 1.284 . S
C62 O63 1.273 . S
O63 C62 1.273 . S
O64 Zn55 1.977 . S
O64 C57 1.267 . S
C65 O66 1.160 . S
C65 O72 1.185 . S
O66 C65 1.160 . S
O67 Zn68 1.899 . S
O67 C75 1.284 . S
Zn68 O67 1.899 . S
Zn68 O69 2.032 . S
Zn68 O72 2.086 . S
Zn68 O77 1.977 . S
O69 Zn68 2.032 . S
O69 C73 1.278 . S
C70 O71 1.203 . S
C70 O77 1.267 . S
O71 C70 1.203 . S
O72 C65 1.185 . S
O72 Zn68 2.086 . S
C73 O69 1.278 . S
C73 O74 1.211 . S
O74 C73 1.211 . S
C75 O67 1.284 . S
C75 O76 1.273 . S
O76 C75 1.273 . S
O77 Zn68 1.977 . S
O77 C70 1.267 . S
C78 O79 1.160 . S
C78 O85 1.185 . S
O79 C78 1.160 . S
O80 Zn81 1.899 . S
O80 C88 1.284 . S
Zn81 O80 1.899 . S
Zn81 O82 2.032 . S
Zn81 O85 2.086 . S
Zn81 O90 1.977 . S
O82 Zn81 2.032 . S
O82 C86 1.278 . S
C83 O84 1.203 . S
C83 O90 1.267 . S
O84 C83 1.203 . S
O85 C78 1.185 . S
O85 Zn81 2.086 . S
C86 O82 1.278 . S
C86 O87 1.211 . S
O87 C86 1.211 . S
C88 O80 1.284 . S
C88 O89 1.273 . S
O89 C88 1.273 . S
O90 Zn81 1.977 . S
O90 C83 1.267 . S
C91 O92 1.160 . S
C91 O98 1.185 . S
O92 C91 1.160 . S
O93 Zn94 1.899 . S
O93 C101 1.284 . S
Zn94 O93 1.899 . S
Zn94 O95 2.032 . S
Zn94 O98 2.086 . S
Zn94 O103 1.977 . S
O95 Zn94 2.032 . S
O95 C99 1.278 . S
C96 O97 1.203 . S
C96 O103 1.267 . S
O97 C96 1.203 . S
O98 C91 1.185 . S
O98 Zn94 2.086 . S
C99 O95 1.278 . S
C99 O100 1.211 . S
O100 C99 1.211 . S
C101 O93 1.284 . S
C101 O102 1.273 . S
O102 C101 1.273 . S
O103 Zn94 1.977 . S
O103 C96 1.267 . S
C104 O105 1.160 . S
C104 O111 1.185 . S
O105 C104 1.160 . S
O106 Zn107 1.899 . S
O106 C114 1.284 . S
Zn107 O106 1.899 . S
Zn107 O108 2.032 . S
Zn107 O111 2.086 . S
Zn107 O116 1.982 . S
O108 Zn107 2.032 . S
O108 C112 1.278 . S
C109 O110 1.203 . S
C109 O116 1.264 1_545 S
O110 C109 1.203 . S
O111 C104 1.185 . S
O111 Zn107 2.086 . S
C112 O108 1.278 . S
C112 O113 1.205 1_565 S
O113 C112 1.205 1_545 S
C114 O106 1.284 . S
C114 O115 1.273 . S
O115 C114 1.273 . S
O116 Zn107 1.982 . S
O116 C109 1.264 1_565 S
C117 O118 1.160 . S
C117 O124 1.185 . S
O118 C117 1.160 . S
O119 Zn120 1.899 . S
O119 C127 1.284 . S
Zn120 O119 1.899 . S
Zn120 O121 2.032 . S
Zn120 O124 2.086 . S
Zn120 O129 1.982 . S
O121 Zn120 2.032 . S
O121 C125 1.278 . S
C122 O123 1.203 . S
C122 O129 1.264 1_455 S
O123 C122 1.203 . S
O124 C117 1.185 . S
O124 Zn120 2.086 . S
C125 O121 1.278 . S
C125 O126 1.205 1_655 S
O126 C125 1.205 1_455 S
C127 O119 1.284 . S
C127 O128 1.273 . S
O128 C127 1.273 . S
O129 Zn120 1.982 . S
O129 C122 1.264 1_655 S
C130 O131 1.160 . S
C130 O137 1.185 . S
O131 C130 1.160 . S
O132 Zn133 1.899 . S
O132 C140 1.284 . S
Zn133 O132 1.899 . S
Zn133 O134 2.032 . S
Zn133 O137 2.086 . S
Zn133 O142 1.982 . S
O134 Zn133 2.032 . S
O134 C138 1.278 . S
C135 O136 1.203 . S
C135 O142 1.264 1_565 S
O136 C135 1.203 . S
O137 C130 1.185 . S
O137 Zn133 2.086 . S
C138 O134 1.278 . S
C138 O139 1.205 1_545 S
O139 C138 1.205 1_565 S
C140 O132 1.284 . S
C140 O141 1.273 . S
O141 C140 1.273 . S
O142 Zn133 1.982 . S
O142 C135 1.264 1_545 S
C143 O144 1.160 . S
C143 O150 1.185 . S
O144 C143 1.160 . S
O145 Zn146 1.899 . S
O145 C153 1.284 . S
Zn146 O145 1.899 . S
Zn146 O147 2.032 . S
Zn146 O150 2.086 . S
Zn146 O155 1.982 . S
O147 Zn146 2.032 . S
O147 C151 1.278 . S
C148 O149 1.203 . S
C148 O155 1.264 1_655 S
O149 C148 1.203 . S
O150 C143 1.185 . S
O150 Zn146 2.086 . S
C151 O147 1.278 . S
C151 O152 1.205 1_455 S
O152 C151 1.205 1_655 S
C153 O145 1.284 . S
C153 O154 1.273 . S
O154 C153 1.273 . S
O155 Zn146 1.982 . S
O155 C148 1.264 1_455 S
C156 O157 1.160 . S
C156 O163 1.185 . S
O157 C156 1.160 . S
O158 Zn159 1.899 . S
O158 C166 1.284 . S
Zn159 O158 1.899 . S
Zn159 O160 2.032 . S
Zn159 O163 2.086 . S
Zn159 O168 1.982 . S
O160 Zn159 2.032 . S
O160 C164 1.278 . S
C161 O162 1.203 . S
C161 O168 1.264 1_565 S
O162 C161 1.203 . S
O163 C156 1.185 . S
O163 Zn159 2.086 . S
C164 O160 1.278 . S
C164 O165 1.205 1_545 S
O165 C164 1.205 1_565 S
C166 O158 1.284 . S
C166 O167 1.273 . S
O167 C166 1.273 . S
O168 Zn159 1.982 . S
O168 C161 1.264 1_545 S
C169 O170 1.160 . S
C169 O176 1.185 . S
O170 C169 1.160 . S
O171 Zn172 1.899 . S
O171 C179 1.284 . S
Zn172 O171 1.899 . S
Zn172 O173 2.032 . S
Zn172 O176 2.086 . S
Zn172 O181 1.982 . S
O173 Zn172 2.032 . S
O173 C177 1.278 . S
C174 O175 1.203 . S
C174 O181 1.264 1_655 S
O175 C174 1.203 . S
O176 C169 1.185 . S
O176 Zn172 2.086 . S
C177 O173 1.278 . S
C177 O178 1.205 1_455 S
O178 C177 1.205 1_655 S
C179 O171 1.284 . S
C179 O180 1.273 . S
O180 C179 1.273 . S
O181 Zn172 1.982 . S
O181 C174 1.264 1_455 S
C182 O183 1.160 . S
C182 O189 1.185 . S
O183 C182 1.160 . S
O184 Zn185 1.899 . S
O184 C192 1.284 . S
Zn185 O184 1.899 . S
Zn185 O186 2.032 . S
Zn185 O189 2.086 . S
Zn185 O194 1.982 . S
O186 Zn185 2.032 . S
O186 C190 1.278 . S
C187 O188 1.203 . S
C187 O194 1.264 1_545 S
O188 C187 1.203 . S
O189 C182 1.185 . S
O189 Zn185 2.086 . S
C190 O186 1.278 . S
C190 O191 1.205 1_565 S
O191 C190 1.205 1_545 S
C192 O184 1.284 . S
C192 O193 1.273 . S
O193 C192 1.273 . S
O194 Zn185 1.982 . S
O194 C187 1.264 1_565 S
C195 O196 1.160 . S
C195 O202 1.185 . S
O196 C195 1.160 . S
O197 Zn198 1.899 . S
O197 C205 1.284 . S
Zn198 O197 1.899 . S
Zn198 O199 2.032 . S
Zn198 O202 2.086 . S
Zn198 O207 1.982 . S
O199 Zn198 2.032 . S
O199 C203 1.278 . S
C200 O201 1.203 . S
C200 O207 1.264 1_455 S
O201 C200 1.203 . S
O202 C195 1.185 . S
O202 Zn198 2.086 . S
C203 O199 1.278 . S
C203 O204 1.205 1_655 S
O204 C203 1.205 1_455 S
C205 O197 1.284 . S
C205 O206 1.273 . S
O206 C205 1.273 . S
O207 Zn198 1.982 . S
O207 C200 1.264 1_655 S
C208 C209 1.369 . S
C208 C210 1.419 . S
C208 H212 0.930 . S
C209 C208 1.369 . S
C209 C218 1.429 . S
C210 C208 1.419 . S
C210 C211 1.363 . S
C210 H213 0.929 . S
C211 C210 1.363 . S
C211 C217 1.428 . S
H212 C208 0.930 . S
H213 C210 0.929 . S
S214 N215 1.613 . S
S214 N216 1.610 . S
N215 S214 1.613 . S
N215 C218 1.350 . S
N216 S214 1.610 . S
N216 C217 1.351 . S
C217 C211 1.428 . S
C217 N216 1.351 . S
C217 C218 1.434 . S
C218 C209 1.429 . S
C218 N215 1.350 . S
C218 C217 1.434 . S
C219 C220 1.369 . S
C219 C221 1.419 . S
C219 H223 0.930 . S
C220 C219 1.369 . S
C220 C229 1.429 . S
C221 C219 1.419 . S
C221 C222 1.363 . S
C221 H224 0.929 . S
C222 C221 1.363 . S
C222 C228 1.428 . S
H223 C219 0.930 . S
H224 C221 0.929 . S
S225 N226 1.613 . S
S225 N227 1.610 . S
N226 S225 1.613 . S
N226 C229 1.350 . S
N227 S225 1.610 . S
N227 C228 1.351 . S
C228 C222 1.428 . S
C228 N227 1.351 . S
C228 C229 1.434 . S
C229 C220 1.429 . S
C229 N226 1.350 . S
C229 C228 1.434 . S
C230 C231 1.369 . S
C230 C232 1.419 . S
C230 H234 0.930 . S
C231 C230 1.369 . S
C231 C240 1.429 . S
C232 C230 1.419 . S
C232 C233 1.363 . S
C232 H235 0.929 . S
C233 C232 1.363 . S
C233 C239 1.428 . S
H234 C230 0.930 . S
H235 C232 0.929 . S
S236 N237 1.613 . S
S236 N238 1.610 . S
N237 S236 1.613 . S
N237 C240 1.350 . S
N238 S236 1.610 . S
N238 C239 1.351 . S
C239 C233 1.428 . S
C239 N238 1.351 . S
C239 C240 1.434 . S
C240 C231 1.429 . S
C240 N237 1.350 . S
C240 C239 1.434 . S
C241 C242 1.369 . S
C241 C243 1.419 . S
C241 H245 0.930 . S
C242 C241 1.369 . S
C242 C251 1.429 . S
C243 C241 1.419 . S
C243 C244 1.363 . S
C243 H246 0.929 . S
C244 C243 1.363 . S
C244 C250 1.428 . S
H245 C241 0.930 . S
H246 C243 0.929 . S
S247 N248 1.613 . S
S247 N249 1.610 . S
N248 S247 1.613 . S
N248 C251 1.350 . S
N249 S247 1.610 . S
N249 C250 1.351 . S
C250 C244 1.428 . S
C250 N249 1.351 . S
C250 C251 1.434 . S
C251 C242 1.429 . S
C251 N248 1.350 . S
C251 C250 1.434 . S
C252 C253 1.369 . S
C252 C254 1.419 . S
C252 H256 0.930 . S
C253 C252 1.369 . S
C253 C262 1.429 . S
C254 C252 1.419 . S
C254 C255 1.363 . S
C254 H257 0.929 . S
C255 C254 1.363 . S
C255 C261 1.428 . S
H256 C252 0.930 . S
H257 C254 0.929 . S
S258 N259 1.613 . S
S258 N260 1.610 . S
N259 S258 1.613 . S
N259 C262 1.350 . S
N260 S258 1.610 . S
N260 C261 1.351 . S
C261 C255 1.428 . S
C261 N260 1.351 . S
C261 C262 1.434 . S
C262 C253 1.429 . S
C262 N259 1.350 . S
C262 C261 1.434 . S
C263 C264 1.369 . S
C263 C265 1.419 . S
C263 H267 0.930 . S
C264 C263 1.369 . S
C264 C273 1.429 . S
C265 C263 1.419 . S
C265 C266 1.363 . S
C265 H268 0.929 . S
C266 C265 1.363 . S
C266 C272 1.428 . S
H267 C263 0.930 . S
H268 C265 0.929 . S
S269 N270 1.613 . S
S269 N271 1.610 . S
N270 S269 1.613 . S
N270 C273 1.350 . S
N271 S269 1.610 . S
N271 C272 1.351 . S
C272 C266 1.428 . S
C272 N271 1.351 . S
C272 C273 1.434 . S
C273 C264 1.429 . S
C273 N270 1.350 . S
C273 C272 1.434 . S
C274 C275 1.369 . S
C274 C276 1.419 . S
C274 H278 0.930 . S
C275 C274 1.369 . S
C275 C284 1.429 . S
C276 C274 1.419 . S
C276 C277 1.363 . S
C276 H279 0.929 . S
C277 C276 1.363 . S
C277 C283 1.428 . S
H278 C274 0.930 . S
H279 C276 0.929 . S
S280 N281 1.613 . S
S280 N282 1.610 . S
N281 S280 1.613 . S
N281 C284 1.350 . S
N282 S280 1.610 . S
N282 C283 1.351 . S
C283 C277 1.428 . S
C283 N282 1.351 . S
C283 C284 1.434 . S
C284 C275 1.429 . S
C284 N281 1.350 . S
C284 C283 1.434 . S
C285 C286 1.369 . S
C285 C287 1.419 . S
C285 H289 0.930 . S
C286 C285 1.369 . S
C286 C295 1.429 . S
C287 C285 1.419 . S
C287 C288 1.363 . S
C287 H290 0.929 . S
C288 C287 1.363 . S
C288 C294 1.428 . S
H289 C285 0.930 . S
H290 C287 0.929 . S
S291 N292 1.613 . S
S291 N293 1.610 . S
N292 S291 1.613 . S
N292 C295 1.350 . S
N293 S291 1.610 . S
N293 C294 1.351 . S
C294 C288 1.428 . S
C294 N293 1.351 . S
C294 C295 1.434 . S
C295 C286 1.429 . S
C295 N292 1.350 . S
C295 C294 1.434 . S
C296 C297 1.369 . S
C296 C298 1.419 . S
C296 H300 0.930 . S
C297 C296 1.369 . S
C297 C306 1.429 . S
C298 C296 1.419 . S
C298 C299 1.363 . S
C298 H301 0.929 . S
C299 C298 1.363 . S
C299 C305 1.428 . S
H300 C296 0.930 . S
H301 C298 0.929 . S
S302 N303 1.613 . S
S302 N304 1.610 . S
N303 S302 1.613 . S
N303 C306 1.350 . S
N304 S302 1.610 . S
N304 C305 1.351 . S
C305 C299 1.428 . S
C305 N304 1.351 . S
C305 C306 1.434 . S
C306 C297 1.429 . S
C306 N303 1.350 . S
C306 C305 1.434 . S
C307 C308 1.369 . S
C307 C309 1.419 . S
C307 H311 0.930 . S
C308 C307 1.369 . S
C308 C317 1.429 . S
C309 C307 1.419 . S
C309 C310 1.363 . S
C309 H312 0.929 . S
C310 C309 1.363 . S
C310 C316 1.428 . S
H311 C307 0.930 . S
H312 C309 0.929 . S
S313 N314 1.613 . S
S313 N315 1.610 . S
N314 S313 1.613 . S
N314 C317 1.350 . S
N315 S313 1.610 . S
N315 C316 1.351 . S
C316 C310 1.428 . S
C316 N315 1.351 . S
C316 C317 1.434 . S
C317 C308 1.429 . S
C317 N314 1.350 . S
C317 C316 1.434 . S
C318 C319 1.369 . S
C318 C320 1.419 . S
C318 H322 0.930 . S
C319 C318 1.369 . S
C319 C328 1.429 . S
C320 C318 1.419 . S
C320 C321 1.363 . S
C320 H323 0.929 . S
C321 C320 1.363 . S
C321 C327 1.428 . S
H322 C318 0.930 . S
H323 C320 0.929 . S
S324 N325 1.613 . S
S324 N326 1.610 . S
N325 S324 1.613 . S
N325 C328 1.350 . S
N326 S324 1.610 . S
N326 C327 1.351 . S
C327 C321 1.428 . S
C327 N326 1.351 . S
C327 C328 1.434 . S
C328 C319 1.429 . S
C328 N325 1.350 . S
C328 C327 1.434 . S
C329 C330 1.369 . S
C329 C331 1.419 . S
C329 H333 0.930 . S
C330 C329 1.369 . S
C330 C339 1.429 . S
C331 C329 1.419 . S
C331 C332 1.363 . S
C331 H334 0.929 . S
C332 C331 1.363 . S
C332 C338 1.428 . S
H333 C329 0.930 . S
H334 C331 0.929 . S
S335 N336 1.613 . S
S335 N337 1.610 . S
N336 S335 1.613 . S
N336 C339 1.350 . S
N337 S335 1.610 . S
N337 C338 1.351 . S
C338 C332 1.428 . S
C338 N337 1.351 . S
C338 C339 1.434 . S
C339 C330 1.429 . S
C339 N336 1.350 . S
C339 C338 1.434 . S
C340 C341 1.369 . S
C340 C342 1.419 . S
C340 H344 0.930 . S
C341 C340 1.369 . S
C341 C350 1.429 . S
C342 C340 1.419 . S
C342 C343 1.363 . S
C342 H345 0.929 . S
C343 C342 1.363 . S
C343 C349 1.428 . S
H344 C340 0.930 . S
H345 C342 0.929 . S
S346 N347 1.613 . S
S346 N348 1.610 . S
N347 S346 1.613 . S
N347 C350 1.350 . S
N348 S346 1.610 . S
N348 C349 1.351 . S
C349 C343 1.428 . S
C349 N348 1.351 . S
C349 C350 1.434 . S
C350 C341 1.429 . S
C350 N347 1.350 . S
C350 C349 1.434 . S
C351 C352 1.369 . S
C351 C353 1.419 . S
C351 H355 0.930 . S
C352 C351 1.369 . S
C352 C361 1.429 . S
C353 C351 1.419 . S
C353 C354 1.363 . S
C353 H356 0.929 . S
C354 C353 1.363 . S
C354 C360 1.428 . S
H355 C351 0.930 . S
H356 C353 0.929 . S
S357 N358 1.613 . S
S357 N359 1.610 . S
N358 S357 1.613 . S
N358 C361 1.350 . S
N359 S357 1.610 . S
N359 C360 1.351 . S
C360 C354 1.428 . S
C360 N359 1.351 . S
C360 C361 1.434 . S
C361 C352 1.429 . S
C361 N358 1.350 . S
C361 C360 1.434 . S
C362 C363 1.369 . S
C362 C364 1.419 . S
C362 H366 0.930 . S
C363 C362 1.369 . S
C363 C372 1.429 . S
C364 C362 1.419 . S
C364 C365 1.363 . S
C364 H367 0.929 . S
C365 C364 1.363 . S
C365 C371 1.428 . S
H366 C362 0.930 . S
H367 C364 0.929 . S
S368 N369 1.613 . S
S368 N370 1.610 . S
N369 S368 1.613 . S
N369 C372 1.350 . S
N370 S368 1.610 . S
N370 C371 1.351 . S
C371 C365 1.428 . S
C371 N370 1.351 . S
C371 C372 1.434 . S
C372 C363 1.429 . S
C372 N369 1.350 . S
C372 C371 1.434 . S
C373 C374 1.369 . S
C373 C375 1.419 . S
C373 H377 0.930 . S
C374 C373 1.369 . S
C374 C383 1.429 . S
C375 C373 1.419 . S
C375 C376 1.363 . S
C375 H378 0.929 . S
C376 C375 1.363 . S
C376 C382 1.428 . S
H377 C373 0.930 . S
H378 C375 0.929 . S
S379 N380 1.613 . S
S379 N381 1.610 . S
N380 S379 1.613 . S
N380 C383 1.350 . S
N381 S379 1.610 . S
N381 C382 1.351 . S
C382 C376 1.428 . S
C382 N381 1.351 . S
C382 C383 1.434 . S
C383 C374 1.429 . S
C383 N380 1.350 . S
C383 C382 1.434 . S
C384 C385 1.369 . S
C384 C386 1.419 . S
C384 H388 0.930 . S
C385 C384 1.369 . S
C385 C394 1.429 . S
C386 C384 1.419 . S
C386 C387 1.363 . S
C386 H389 0.929 . S
C387 C386 1.363 . S
C387 C393 1.428 . S
H388 C384 0.930 . S
H389 C386 0.929 . S
S390 N391 1.613 . S
S390 N392 1.610 . S
N391 S390 1.613 . S
N391 C394 1.350 . S
N392 S390 1.610 . S
N392 C393 1.351 . S
C393 C387 1.428 . S
C393 N392 1.351 . S
C393 C394 1.434 . S
C394 C385 1.429 . S
C394 N391 1.350 . S
C394 C393 1.434 . S
C395 C396 1.369 . S
C395 C397 1.419 . S
C395 H399 0.930 . S
C396 C395 1.369 . S
C396 C405 1.429 . S
C397 C395 1.419 . S
C397 C398 1.363 . S
C397 H400 0.929 . S
C398 C397 1.363 . S
C398 C404 1.428 . S
H399 C395 0.930 . S
H400 C397 0.929 . S
S401 N402 1.613 . S
S401 N403 1.610 . S
N402 S401 1.613 . S
N402 C405 1.350 . S
N403 S401 1.610 . S
N403 C404 1.351 . S
C404 C398 1.428 . S
C404 N403 1.351 . S
C404 C405 1.434 . S
C405 C396 1.429 . S
C405 N402 1.350 . S
C405 C404 1.434 . S
C406 C407 1.369 . S
C406 C408 1.419 . S
C406 H410 0.930 . S
C407 C406 1.369 . S
C407 C416 1.429 . S
C408 C406 1.419 . S
C408 C409 1.363 . S
C408 H411 0.929 . S
C409 C408 1.363 . S
C409 C415 1.428 . S
H410 C406 0.930 . S
H411 C408 0.929 . S
S412 N413 1.613 . S
S412 N414 1.610 . S
N413 S412 1.613 . S
N413 C416 1.350 . S
N414 S412 1.610 . S
N414 C415 1.351 . S
C415 C409 1.428 . S
C415 N414 1.351 . S
C415 C416 1.434 . S
C416 C407 1.429 . S
C416 N413 1.350 . S
C416 C415 1.434 . S
C417 C418 1.369 . S
C417 C419 1.419 . S
C417 H421 0.930 . S
C418 C417 1.369 . S
C418 C427 1.429 . S
C419 C417 1.419 . S
C419 C420 1.363 . S
C419 H422 0.929 . S
C420 C419 1.363 . S
C420 C426 1.428 . S
H421 C417 0.930 . S
H422 C419 0.929 . S
S423 N424 1.613 . S
S423 N425 1.610 . S
N424 S423 1.613 . S
N424 C427 1.350 . S
N425 S423 1.610 . S
N425 C426 1.351 . S
C426 C420 1.428 . S
C426 N425 1.351 . S
C426 C427 1.434 . S
C427 C418 1.429 . S
C427 N424 1.350 . S
C427 C426 1.434 . S
C428 C429 1.369 . S
C428 C430 1.419 . S
C428 H432 0.930 . S
C429 C428 1.369 . S
C429 C438 1.429 . S
C430 C428 1.419 . S
C430 C431 1.363 . S
C430 H433 0.929 . S
C431 C430 1.363 . S
C431 C437 1.428 . S
H432 C428 0.930 . S
H433 C430 0.929 . S
S434 N435 1.613 . S
S434 N436 1.610 . S
N435 S434 1.613 . S
N435 C438 1.350 . S
N436 S434 1.610 . S
N436 C437 1.351 . S
C437 C431 1.428 . S
C437 N436 1.351 . S
C437 C438 1.434 . S
C438 C429 1.429 . S
C438 N435 1.350 . S
C438 C437 1.434 . S
C439 C440 1.369 . S
C439 C441 1.419 . S
C439 H443 0.930 . S
C440 C439 1.369 . S
C440 C449 1.429 . S
C441 C439 1.419 . S
C441 C442 1.363 . S
C441 H444 0.929 . S
C442 C441 1.363 . S
C442 C448 1.428 . S
H443 C439 0.930 . S
H444 C441 0.929 . S
S445 N446 1.613 . S
S445 N447 1.610 . S
N446 S445 1.613 . S
N446 C449 1.350 . S
N447 S445 1.610 . S
N447 C448 1.351 . S
C448 C442 1.428 . S
C448 N447 1.351 . S
C448 C449 1.434 . S
C449 C440 1.429 . S
C449 N446 1.350 . S
C449 C448 1.434 . S
C450 C451 1.369 . S
C450 C452 1.419 . S
C450 H454 0.930 . S
C451 C450 1.369 . S
C451 C460 1.429 . S
C452 C450 1.419 . S
C452 C453 1.363 . S
C452 H455 0.929 . S
C453 C452 1.363 . S
C453 C459 1.428 . S
H454 C450 0.930 . S
H455 C452 0.929 . S
S456 N457 1.613 . S
S456 N458 1.610 . S
N457 S456 1.613 . S
N457 C460 1.350 . S
N458 S456 1.610 . S
N458 C459 1.351 . S
C459 C453 1.428 . S
C459 N458 1.351 . S
C459 C460 1.434 . S
C460 C451 1.429 . S
C460 N457 1.350 . S
C460 C459 1.434 . S
C461 C462 1.369 . S
C461 C463 1.419 . S
C461 H465 0.930 . S
C462 C461 1.369 . S
C462 C471 1.429 . S
C463 C461 1.419 . S
C463 C464 1.363 . S
C463 H466 0.929 . S
C464 C463 1.363 . S
C464 C470 1.428 . S
H465 C461 0.930 . S
H466 C463 0.929 . S
S467 N468 1.613 . S
S467 N469 1.610 . S
N468 S467 1.613 . S
N468 C471 1.350 . S
N469 S467 1.610 . S
N469 C470 1.351 . S
C470 C464 1.428 . S
C470 N469 1.351 . S
C470 C471 1.434 . S
C471 C462 1.429 . S
C471 N468 1.350 . S
C471 C470 1.434 . S
C472 C473 1.369 . S
C472 C474 1.419 . S
C472 H476 0.930 . S
C473 C472 1.369 . S
C473 C482 1.429 . S
C474 C472 1.419 . S
C474 C475 1.363 . S
C474 H477 0.929 . S
C475 C474 1.363 . S
C475 C481 1.428 . S
H476 C472 0.930 . S
H477 C474 0.929 . S
S478 N479 1.613 . S
S478 N480 1.610 . S
N479 S478 1.613 . S
N479 C482 1.350 . S
N480 S478 1.610 . S
N480 C481 1.351 . S
C481 C475 1.428 . S
C481 N480 1.351 . S
C481 C482 1.434 . S
C482 C473 1.429 . S
C482 N479 1.350 . S
C482 C481 1.434 . S
C483 C484 1.369 . S
C483 C485 1.419 . S
C483 H487 0.930 . S
C484 C483 1.369 . S
C484 C493 1.429 . S
C485 C483 1.419 . S
C485 C486 1.363 . S
C485 H488 0.929 . S
C486 C485 1.363 . S
C486 C492 1.428 . S
H487 C483 0.930 . S
H488 C485 0.929 . S
S489 N490 1.613 . S
S489 N491 1.610 . S
N490 S489 1.613 . S
N490 C493 1.350 . S
N491 S489 1.610 . S
N491 C492 1.351 . S
C492 C486 1.428 . S
C492 N491 1.351 . S
C492 C493 1.434 . S
C493 C484 1.429 . S
C493 N490 1.350 . S
C493 C492 1.434 . S
C494 C495 1.369 . S
C494 C496 1.419 . S
C494 H498 0.930 . S
C495 C494 1.369 . S
C495 C504 1.429 . S
C496 C494 1.419 . S
C496 C497 1.363 . S
C496 H499 0.929 . S
C497 C496 1.363 . S
C497 C503 1.428 . S
H498 C494 0.930 . S
H499 C496 0.929 . S
S500 N501 1.613 . S
S500 N502 1.610 . S
N501 S500 1.613 . S
N501 C504 1.350 . S
N502 S500 1.610 . S
N502 C503 1.351 . S
C503 C497 1.428 . S
C503 N502 1.351 . S
C503 C504 1.434 . S
C504 C495 1.429 . S
C504 N501 1.350 . S
C504 C503 1.434 . S
C505 C506 1.369 . S
C505 C507 1.419 . S
C505 H509 0.930 . S
C506 C505 1.369 . S
C506 C515 1.429 . S
C507 C505 1.419 . S
C507 C508 1.363 . S
C507 H510 0.929 . S
C508 C507 1.363 . S
C508 C514 1.428 . S
H509 C505 0.930 . S
H510 C507 0.929 . S
S511 N512 1.613 . S
S511 N513 1.610 . S
N512 S511 1.613 . S
N512 C515 1.350 . S
N513 S511 1.610 . S
N513 C514 1.351 . S
C514 C508 1.428 . S
C514 N513 1.351 . S
C514 C515 1.434 . S
C515 C506 1.429 . S
C515 N512 1.350 . S
C515 C514 1.434 . S
C516 C517 1.369 . S
C516 C518 1.419 1_554 S
C516 H520 0.930 . S
C517 C516 1.369 . S
C517 C526 1.429 1_545 S
C518 C516 1.419 1_556 S
C518 C519 1.363 1_545 S
C518 H521 0.929 . S
C519 C518 1.363 1_565 S
C519 C525 1.428 . S
H520 C516 0.930 . S
H521 C518 0.929 . S
S522 N523 1.613 . S
S522 N524 1.610 1_554 S
N523 S522 1.613 . S
N523 C526 1.350 . S
N524 S522 1.610 1_556 S
N524 C525 1.351 . S
C525 C519 1.428 . S
C525 N524 1.351 . S
C525 C526 1.434 1_556 S
C526 C517 1.429 1_565 S
C526 N523 1.350 . S
C526 C525 1.434 1_554 S
C527 C528 1.369 1_655 S
C527 C529 1.419 1_556 S
C527 H531 0.930 . S
C528 C527 1.369 1_455 S
C528 C537 1.429 . S
C529 C527 1.419 1_554 S
C529 C530 1.363 . S
C529 H532 0.929 . S
C530 C529 1.363 . S
C530 C536 1.428 1_655 S
H531 C527 0.930 . S
H532 C529 0.929 . S
S533 N534 1.613 1_554 S
S533 N535 1.610 . S
N534 S533 1.613 1_556 S
N534 C537 1.350 . S
N535 S533 1.610 . S
N535 C536 1.351 . S
C536 C530 1.428 1_455 S
C536 N535 1.351 . S
C536 C537 1.434 1_554 S
C537 C528 1.429 . S
C537 N534 1.350 . S
C537 C536 1.434 1_556 S
C538 C539 1.368 1_565 S
C538 C540 1.419 1_556 S
C538 H542 0.930 . S
C539 C538 1.368 1_545 S
C539 C548 1.429 . S
C540 C538 1.419 1_554 S
C540 C541 1.363 . S
C540 H543 0.929 . S
C541 C540 1.363 . S
C541 C547 1.428 1_565 S
H542 C538 0.930 . S
H543 C540 0.929 . S
S544 N545 1.613 1_554 S
S544 N546 1.610 . S
N545 S544 1.613 1_556 S
N545 C548 1.350 . S
N546 S544 1.610 . S
N546 C547 1.351 . S
C547 C541 1.428 1_545 S
C547 N546 1.351 . S
C547 C548 1.434 1_554 S
C548 C539 1.429 . S
C548 N545 1.350 . S
C548 C547 1.434 1_556 S
C549 C550 1.369 . S
C549 C551 1.419 1_556 S
C549 H553 0.930 . S
C550 C549 1.369 . S
C550 C559 1.429 1_655 S
C551 C549 1.419 1_554 S
C551 C552 1.363 1_655 S
C551 H554 0.929 . S
C552 C551 1.363 1_455 S
C552 C558 1.428 . S
H553 C549 0.930 . S
H554 C551 0.929 . S
S555 N556 1.613 . S
S555 N557 1.610 1_556 S
N556 S555 1.613 . S
N556 C559 1.350 . S
N557 S555 1.610 1_554 S
N557 C558 1.351 . S
C558 C552 1.428 . S
C558 N557 1.351 . S
C558 C559 1.434 1_554 S
C559 C550 1.429 1_455 S
C559 N556 1.350 . S
C559 C558 1.434 1_556 S
C209 C0 1.253 . S
C211 C91 1.255 . S
C220 C13 1.256 . S
C222 C52 1.256 . S
C231 C65 1.255 . S
C233 C26 1.255 . S
C242 C39 1.260 . S
C244 C78 1.260 . S
C253 C104 1.255 . S
C255 C195 1.256 . S
C264 C156 1.260 . S
C266 C117 1.260 . S
C275 C169 1.256 . S
C277 C130 1.257 . S
C286 C182 1.254 . S
C288 C143 1.255 . S
C297 C5 1.201 . S
C299 C153 1.338 . S
C308 C18 1.203 . S
C310 C114 1.339 . S
C319 C127 1.339 . S
C321 C31 1.192 . S
C330 C44 1.201 . S
C332 C140 1.338 . S
C341 C57 1.193 . S
C343 C179 1.339 . S
C352 C192 1.341 . S
C354 C70 1.189 . S
C363 C83 1.196 . S
C365 C205 1.338 . S
C374 C166 1.340 . S
C376 C96 1.199 . S
C385 C109 1.200 . S
C387 C49 1.339 . S
C396 C10 1.340 . S
C398 C122 1.188 . S
C407 C135 1.186 . S
C409 C23 1.341 . S
C418 C36 1.341 . S
C420 C148 1.188 . S
C429 C161 1.204 . S
C431 C75 1.338 . S
C440 C88 1.341 . S
C442 C174 1.188 . S
C451 C101 1.341 . S
C453 C187 1.188 . S
C462 C62 1.341 . S
C464 C200 1.193 . S
C473 C60 1.506 . S
C475 C8 1.512 . S
C484 C73 1.506 . S
C486 C21 1.512 . S
C495 C34 1.505 . S
C497 C86 1.514 . S
C506 C99 1.510 . S
C508 C47 1.509 . S
C517 C164 1.505 . S
C519 C112 1.514 . S
C528 C177 1.514 . S
C530 C125 1.507 . S
C539 C138 1.514 . S
C541 C190 1.508 . S
C550 C203 1.505 . S
C552 C151 1.513 . S
