# Generated by pormake.
# Topology why, (6)-cn, num edge types: 1
# Building blocks:
#     Node 0, Type 0, BuildingBlock: CIFDUS_clean_sbu_1, # of connection points: 6
#     Node 1, Type 0, BuildingBlock: CIFDUS_clean_sbu_1, # of connection points: 6
#     Node 2, Type 0, BuildingBlock: CIFDUS_clean_sbu_1, # of connection points: 6
#     Node 3, Type 0, BuildingBlock: CIFDUS_clean_sbu_1, # of connection points: 6
#     Node 4, Type 0, BuildingBlock: CIFDUS_clean_sbu_1, # of connection points: 6
#     Node 5, Type 0, BuildingBlock: CIFDUS_clean_sbu_1, # of connection points: 6
#     Node 6, Type 0, BuildingBlock: CIFDUS_clean_sbu_1, # of connection points: 6
#     Node 7, Type 0, BuildingBlock: CIFDUS_clean_sbu_1, # of connection points: 6
#     Node 8, Type 0, BuildingBlock: CIFDUS_clean_sbu_1, # of connection points: 6
#     Node 9, Type 0, BuildingBlock: CIFDUS_clean_sbu_1, # of connection points: 6
#     Node 10, Type 0, BuildingBlock: CIFDUS_clean_sbu_1, # of connection points: 6
#     Node 11, Type 0, BuildingBlock: CIFDUS_clean_sbu_1, # of connection points: 6
#     Node 12, Type 0, BuildingBlock: CIFDUS_clean_sbu_1, # of connection points: 6
#     Node 13, Type 0, BuildingBlock: CIFDUS_clean_sbu_1, # of connection points: 6
#     Node 14, Type 0, BuildingBlock: CIFDUS_clean_sbu_1, # of connection points: 6
#     Node 15, Type 0, BuildingBlock: CIFDUS_clean_sbu_1, # of connection points: 6
#     Edge 16, Type (0, 0), BuildingBlock: ZUJKAS_clean_linker_0, # of connection points: 2
#     Edge 17, Type (0, 0), BuildingBlock: ZUJKAS_clean_linker_0, # of connection points: 2
#     Edge 18, Type (0, 0), BuildingBlock: ZUJKAS_clean_linker_0, # of connection points: 2
#     Edge 19, Type (0, 0), BuildingBlock: ZUJKAS_clean_linker_0, # of connection points: 2
#     Edge 20, Type (0, 0), BuildingBlock: ZUJKAS_clean_linker_0, # of connection points: 2
#     Edge 21, Type (0, 0), BuildingBlock: ZUJKAS_clean_linker_0, # of connection points: 2
#     Edge 22, Type (0, 0), BuildingBlock: ZUJKAS_clean_linker_0, # of connection points: 2
#     Edge 23, Type (0, 0), BuildingBlock: ZUJKAS_clean_linker_0, # of connection points: 2
#     Edge 24, Type (0, 0), BuildingBlock: ZUJKAS_clean_linker_0, # of connection points: 2
#     Edge 25, Type (0, 0), BuildingBlock: ZUJKAS_clean_linker_0, # of connection points: 2
#     Edge 26, Type (0, 0), BuildingBlock: ZUJKAS_clean_linker_0, # of connection points: 2
#     Edge 27, Type (0, 0), BuildingBlock: ZUJKAS_clean_linker_0, # of connection points: 2
#     Edge 28, Type (0, 0), BuildingBlock: ZUJKAS_clean_linker_0, # of connection points: 2
#     Edge 29, Type (0, 0), BuildingBlock: ZUJKAS_clean_linker_0, # of connection points: 2
#     Edge 30, Type (0, 0), BuildingBlock: ZUJKAS_clean_linker_0, # of connection points: 2
#     Edge 31, Type (0, 0), BuildingBlock: ZUJKAS_clean_linker_0, # of connection points: 2
#     Edge 32, Type (0, 0), BuildingBlock: ZUJKAS_clean_linker_0, # of connection points: 2
#     Edge 33, Type (0, 0), BuildingBlock: ZUJKAS_clean_linker_0, # of connection points: 2
#     Edge 34, Type (0, 0), BuildingBlock: ZUJKAS_clean_linker_0, # of connection points: 2
#     Edge 35, Type (0, 0), BuildingBlock: ZUJKAS_clean_linker_0, # of connection points: 2
#     Edge 36, Type (0, 0), BuildingBlock: ZUJKAS_clean_linker_0, # of connection points: 2
#     Edge 37, Type (0, 0), BuildingBlock: ZUJKAS_clean_linker_0, # of connection points: 2
#     Edge 38, Type (0, 0), BuildingBlock: ZUJKAS_clean_linker_0, # of connection points: 2
#     Edge 39, Type (0, 0), BuildingBlock: ZUJKAS_clean_linker_0, # of connection points: 2
#     Edge 40, Type (0, 0), BuildingBlock: ZUJKAS_clean_linker_0, # of connection points: 2
#     Edge 41, Type (0, 0), BuildingBlock: ZUJKAS_clean_linker_0, # of connection points: 2
#     Edge 42, Type (0, 0), BuildingBlock: ZUJKAS_clean_linker_0, # of connection points: 2
#     Edge 43, Type (0, 0), BuildingBlock: ZUJKAS_clean_linker_0, # of connection points: 2
#     Edge 44, Type (0, 0), BuildingBlock: ZUJKAS_clean_linker_0, # of connection points: 2
#     Edge 45, Type (0, 0), BuildingBlock: ZUJKAS_clean_linker_0, # of connection points: 2
#     Edge 46, Type (0, 0), BuildingBlock: ZUJKAS_clean_linker_0, # of connection points: 2
#     Edge 47, Type (0, 0), BuildingBlock: ZUJKAS_clean_linker_0, # of connection points: 2
#     Edge 48, Type (0, 0), BuildingBlock: ZUJKAS_clean_linker_0, # of connection points: 2
#     Edge 49, Type (0, 0), BuildingBlock: ZUJKAS_clean_linker_0, # of connection points: 2
#     Edge 50, Type (0, 0), BuildingBlock: ZUJKAS_clean_linker_0, # of connection points: 2
#     Edge 51, Type (0, 0), BuildingBlock: ZUJKAS_clean_linker_0, # of connection points: 2
#     Edge 52, Type (0, 0), BuildingBlock: ZUJKAS_clean_linker_0, # of connection points: 2
#     Edge 53, Type (0, 0), BuildingBlock: ZUJKAS_clean_linker_0, # of connection points: 2
#     Edge 54, Type (0, 0), BuildingBlock: ZUJKAS_clean_linker_0, # of connection points: 2
#     Edge 55, Type (0, 0), BuildingBlock: ZUJKAS_clean_linker_0, # of connection points: 2
#     Edge 56, Type (0, 0), BuildingBlock: ZUJKAS_clean_linker_0, # of connection points: 2
#     Edge 57, Type (0, 0), BuildingBlock: ZUJKAS_clean_linker_0, # of connection points: 2
#     Edge 58, Type (0, 0), BuildingBlock: ZUJKAS_clean_linker_0, # of connection points: 2
#     Edge 59, Type (0, 0), BuildingBlock: ZUJKAS_clean_linker_0, # of connection points: 2
#     Edge 60, Type (0, 0), BuildingBlock: ZUJKAS_clean_linker_0, # of connection points: 2
#     Edge 61, Type (0, 0), BuildingBlock: ZUJKAS_clean_linker_0, # of connection points: 2
#     Edge 62, Type (0, 0), BuildingBlock: ZUJKAS_clean_linker_0, # of connection points: 2
#     Edge 63, Type (0, 0), BuildingBlock: ZUJKAS_clean_linker_0, # of connection points: 2
# Relax obj value: 0.192
# Max RMSD: 0.135
# Mean RMSD: 0.135
data_MOF--net-why--node1-CIFDUS_clean_sbu_1--edge1-ZUJKAS_clean_linker_0
_symmetry_space_group_name_H-M    P1
_symmetry_Int_Tables_number       1
_symmetry_cell_setting            triclinic
loop_
_symmetry_equiv_pos_as_xyz
'x, y, z'
_cell_length_a     60.670652
_cell_length_b     60.742581
_cell_length_c     36.626034
_cell_angle_alpha  89.865966
_cell_angle_beta   90.070278
_cell_angle_gamma 90.028038
loop_
_atom_site_label
_atom_site_type_symbol
_atom_site_fract_x
_atom_site_fract_y
_atom_site_fract_z
_atom_type_partial_charge
O0 O 0.35302 0.20204 0.04885 0.0
Mn1 Mn 0.35183 0.17327 0.08026 0.0
O2 O 0.34189 0.19126 0.9932 0.0
Mn3 Mn 0.33657 0.16239 1.00608 0.0
O4 O 0.35163 0.14356 0.11092 0.0
O5 O 0.37776 0.18561 0.1096 0.0
Mn6 Mn 0.37097 0.18107 0.15579 0.0
O7 O 0.32811 0.18842 0.11495 0.0
O8 O 0.36943 0.15125 0.16307 0.0
O9 O 0.37646 0.1593 0.0468 0.0
O10 O 0.35936 0.14309 1.00074 0.0
O11 O 0.39776 0.1943 0.15773 0.0
O12 O 0.34635 0.19711 0.16629 0.0
C13 C 0.30803 0.15373 0.03188 0.0
C14 C 0.34884 0.20591 0.01508 0.0
C15 C 0.36039 0.1376 0.1415 0.0
C16 C 0.39595 0.19406 0.12249 0.0
C17 C 0.32918 0.19782 0.1465 0.0
C18 C 0.37665 0.14661 0.01891 0.0
O19 O 0.32501 0.1613 0.05058 0.0
O20 O 0.30995 0.15165 0.99679 0.0
O21 O 0.53632 0.60617 0.30227 0.0
Mn22 Mn 0.56684 0.60271 0.33003 0.0
O23 O 0.53634 0.58033 0.26028 0.0
Mn24 Mn 0.56594 0.58458 0.25838 0.0
O25 O 0.5976 0.60086 0.3574 0.0
O26 O 0.55555 0.62789 0.36196 0.0
Mn27 Mn 0.56512 0.62171 0.40665 0.0
O28 O 0.55256 0.57948 0.36538 0.0
O29 O 0.59533 0.62323 0.4058 0.0
O30 O 0.58132 0.62614 0.29526 0.0
O31 O 0.57545 0.61101 0.24087 0.0
O32 O 0.54925 0.64695 0.4117 0.0
O33 O 0.55344 0.59492 0.42111 0.0
C34 C 0.58488 0.5602 0.27693 0.0
C35 C 0.52619 0.59485 0.27792 0.0
C36 C 0.60647 0.61153 0.38396 0.0
C37 C 0.54642 0.64514 0.37677 0.0
C38 C 0.54914 0.57883 0.40001 0.0
C39 C 0.58271 0.62652 0.26038 0.0
O40 O 0.5782 0.5757 0.29975 0.0
O41 O 0.58131 0.56224 0.24213 0.0
O42 O 0.14097 0.78883 0.55007 0.0
Mn43 Mn 0.13946 0.81775 0.57975 0.0
O44 O 0.13856 0.80324 0.49435 0.0
Mn45 Mn 0.14847 0.8312 0.50619 0.0
O46 O 0.13765 0.84735 0.60935 0.0
O47 O 0.11587 0.80299 0.61132 0.0
Mn48 Mn 0.12271 0.80969 0.65696 0.0
O49 O 0.16532 0.80601 0.61334 0.0
O50 O 0.12108 0.83973 0.66258 0.0
O51 O 0.11284 0.82895 0.54727 0.0
O52 O 0.12705 0.85217 0.50733 0.0
O53 O 0.09811 0.79275 0.66084 0.0
O54 O 0.14979 0.79788 0.6675 0.0
C55 C 0.1802 0.83132 0.5258 0.0
C56 C 0.13856 0.7868 0.51566 0.0
C57 C 0.12961 0.8533 0.64023 0.0
C58 C 0.09926 0.79232 0.62552 0.0
C59 C 0.16634 0.79866 0.64635 0.0
C60 C 0.11046 0.8446 0.52391 0.0
O61 O 0.16337 0.83347 0.54813 0.0
O62 O 0.17622 0.83352 0.49116 0.0
O63 O 0.95504 0.38943 0.80304 0.0
Mn64 Mn 0.92433 0.38954 0.82811 0.0
O65 O 0.94454 0.38796 0.74523 0.0
Mn66 Mn 0.91735 0.40059 0.7525 0.0
O67 O 0.89363 0.3889 0.85439 0.0
O68 O 0.93617 0.3658 0.86169 0.0
Mn69 Mn 0.92917 0.37233 0.90724 0.0
O70 O 0.93609 0.41458 0.8629 0.0
O71 O 0.89871 0.37224 0.90879 0.0
O72 O 0.91248 0.36398 0.79357 0.0
O73 O 0.89489 0.38104 0.74831 0.0
O74 O 0.94419 0.34602 0.9095 0.0
O75 O 0.94242 0.39897 0.91784 0.0
C76 C 0.91477 0.43195 0.77628 0.0
C77 C 0.95925 0.38649 0.76939 0.0
C78 C 0.88635 0.38075 0.88447 0.0
C79 C 0.94501 0.34791 0.87434 0.0
C80 C 0.94298 0.41538 0.89617 0.0
C81 C 0.89867 0.36376 0.7667 0.0
O82 O 0.91113 0.41386 0.79485 0.0
O83 O 0.91885 0.4293 0.7419 0.0
O84 O 0.63242 0.78652 0.96232 0.0
Mn85 Mn 0.63863 0.81585 0.93342 0.0
O86 O 0.65897 0.7831 1.00153 0.0
Mn87 Mn 0.65583 0.813 1.00455 0.0
O88 O 0.64152 0.84586 0.90277 0.0
O89 O 0.61314 0.80347 0.90243 0.0
Mn90 Mn 0.62127 0.81041 0.85758 0.0
O91 O 0.66237 0.7996 0.901 0.0
O92 O 0.62101 0.84014 0.85298 0.0
O93 O 0.61552 0.83151 0.96635 0.0
O94 O 0.62926 0.82367 0.0215 0.0
O95 O 0.59564 0.79624 0.85087 0.0
O96 O 0.64688 0.79617 0.84573 0.0
C97 C 0.6805 0.83308 0.98993 0.0
C98 C 0.64283 0.77476 0.98536 0.0
C99 C 0.63201 0.85287 0.87332 0.0
C100 C 0.59599 0.79467 0.88619 0.0
C101 C 0.66275 0.79296 0.86768 0.0
C102 C 0.61436 0.83177 1.00124 0.0
O103 O 0.66548 0.82756 0.96512 0.0
O104 O 0.67886 0.82612 0.02333 0.0
O105 O 0.45725 0.38909 0.70958 0.0
Mn106 Mn 0.42617 0.38912 0.68547 0.0
O107 O 0.44573 0.38669 0.76637 0.0
Mn108 Mn 0.41898 0.39927 0.75556 0.0
O109 O 0.39479 0.38849 0.66044 0.0
O110 O 0.43727 0.36447 0.65365 0.0
Mn111 Mn 0.42864 0.3691 0.60828 0.0
O112 O 0.43782 0.41282 0.64824 0.0
O113 O 0.39829 0.36773 0.60991 0.0
O114 O 0.41472 0.36378 0.72097 0.0
O115 O 0.39544 0.38117 0.7621 0.0
O116 O 0.44492 0.34349 0.60736 0.0
O117 O 0.44038 0.39585 0.59376 0.0
C118 C 0.41401 0.4308 0.74281 0.0
C119 C 0.46101 0.38577 0.74331 0.0
C120 C 0.38658 0.37807 0.63301 0.0
C121 C 0.44666 0.34668 0.64214 0.0
C122 C 0.44261 0.41275 0.614 0.0
C123 C 0.3999 0.36355 0.74593 0.0
O124 O 0.41508 0.41637 0.71582 0.0
O125 O 0.41829 0.42507 0.77618 0.0
O126 O 0.85426 0.20749 0.45789 0.0
Mn127 Mn 0.85209 0.17581 0.43666 0.0
O128 O 0.8597 0.1956 0.51317 0.0
Mn129 Mn 0.84211 0.17139 0.50322 0.0
O130 O 0.85099 0.14395 0.41284 0.0
O131 O 0.87864 0.18431 0.40644 0.0
Mn132 Mn 0.87427 0.17632 0.36088 0.0
O133 O 0.83032 0.18857 0.39697 0.0
O134 O 0.87225 0.14615 0.36236 0.0
O135 O 0.87598 0.16227 0.47421 0.0
O136 O 0.85468 0.14512 0.51215 0.0
O137 O 0.90159 0.1894 0.3615 0.0
O138 O 0.84953 0.191 0.34461 0.0
C139 C 0.80958 0.17104 0.49566 0.0
C140 C 0.86086 0.21086 0.49019 0.0
C141 C 0.86105 0.13515 0.38539 0.0
C142 C 0.89765 0.19172 0.39598 0.0
C143 C 0.83195 0.19385 0.36298 0.0
C144 C 0.87358 0.14771 0.49948 0.0
O145 O 0.82248 0.16837 0.46653 0.0
O146 O 0.81799 0.1758 0.52714 0.0
O147 O 0.03788 0.6001 0.21587 0.0
Mn148 Mn 0.0674 0.6007 0.18745 0.0
O149 O 0.04898 0.59747 0.27363 0.0
Mn150 Mn 0.07736 0.58799 0.26403 0.0
O151 O 0.09685 0.60244 0.15696 0.0
O152 O 0.05343 0.62438 0.15613 0.0
Mn153 Mn 0.05708 0.6177 0.10979 0.0
O154 O 0.0551 0.57534 0.1538 0.0
O155 O 0.08721 0.61702 0.10256 0.0
O156 O 0.07938 0.62621 0.2216 0.0
O157 O 0.0979 0.60983 0.26683 0.0
O158 O 0.04198 0.64399 0.11007 0.0
O159 O 0.04269 0.59138 0.10224 0.0
C160 C 0.07973 0.55796 0.23614 0.0
C161 C 0.03404 0.60044 0.25004 0.0
C162 C 0.10167 0.60956 0.1247 0.0
C163 C 0.04341 0.64205 0.14516 0.0
C164 C 0.04497 0.57469 0.12289 0.0
C165 C 0.09291 0.62697 0.24877 0.0
O166 O 0.08218 0.57692 0.21958 0.0
O167 O 0.07931 0.55885 0.27147 0.0
O168 O 0.85594 0.70334 0.55048 0.0
Mn169 Mn 0.8536 0.67414 0.57998 0.0
O170 O 0.84704 0.69364 0.49316 0.0
Mn171 Mn 0.84093 0.66449 0.50361 0.0
O172 O 0.85214 0.64446 0.60944 0.0
O173 O 0.87816 0.6854 0.61259 0.0
Mn174 Mn 0.87007 0.68182 0.65838 0.0
O175 O 0.8288 0.68863 0.61301 0.0
O176 O 0.86575 0.65201 0.6653 0.0
O177 O 0.87928 0.66079 0.54822 0.0
O178 O 0.8638 0.64507 0.5001 0.0
O179 O 0.89791 0.69357 0.66049 0.0
O180 O 0.84576 0.69939 0.66461 0.0
C181 C 0.81154 0.65556 0.52707 0.0
C182 C 0.8531 0.70783 0.5166 0.0
C183 C 0.85781 0.63864 0.64196 0.0
C184 C 0.89657 0.6932 0.62523 0.0
C185 C 0.82903 0.69905 0.64369 0.0
C186 C 0.88038 0.64835 0.52011 0.0
O187 O 0.82808 0.66278 0.54704 0.0
O188 O 0.81436 0.6541 0.49207 0.0
O189 O 0.03559 0.10785 0.80293 0.0
Mn190 Mn 0.06609 0.10243 0.82996 0.0
O191 O 0.03104 0.07778 0.77316 0.0
Mn192 Mn 0.05999 0.08317 0.76239 0.0
O193 O 0.09664 0.10059 0.85768 0.0
O194 O 0.05563 0.12724 0.86215 0.0
Mn195 Mn 0.06256 0.12142 0.90801 0.0
O196 O 0.0515 0.07929 0.86487 0.0
O197 O 0.09291 0.12128 0.90831 0.0
O198 O 0.08012 0.12506 0.79447 0.0
O199 O 0.06762 0.11031 0.74268 0.0
O200 O 0.04742 0.14775 0.9087 0.0
O201 O 0.04896 0.09505 0.92033 0.0
C202 C 0.08285 0.06057 0.77415 0.0
C203 C 0.02307 0.09559 0.78378 0.0
C204 C 0.10468 0.11061 0.88572 0.0
C205 C 0.04643 0.14512 0.87371 0.0
C206 C 0.04593 0.07893 0.8987 0.0
C207 C 0.07711 0.12577 0.75991 0.0
O208 O 0.07797 0.07573 0.79881 0.0
O209 O 0.0733 0.06067 0.74243 0.0
O210 O 0.64105 0.288 0.05193 0.0
Mn211 Mn 0.64072 0.31783 0.07913 0.0
O212 O 0.64031 0.30114 0.99523 0.0
Mn213 Mn 0.65198 0.32859 1.00557 0.0
O214 O 0.64025 0.34836 0.10569 0.0
O215 O 0.61553 0.30581 0.11023 0.0
Mn216 Mn 0.62095 0.31416 0.15555 0.0
O217 O 0.66473 0.30547 0.11582 0.0
O218 O 0.62058 0.34444 0.15713 0.0
O219 O 0.61562 0.32968 0.04392 0.0
O220 O 0.6321 0.35102 1.00363 0.0
O221 O 0.59537 0.29852 0.15856 0.0
O222 O 0.64706 0.30136 0.16941 0.0
C223 C 0.68332 0.3271 0.02686 0.0
C224 C 0.63899 0.28529 0.0176 0.0
C225 C 0.63097 0.35623 0.13426 0.0
C226 C 0.59793 0.29654 0.12361 0.0
C227 C 0.66426 0.29969 0.14977 0.0
C228 C 0.61468 0.34485 0.01945 0.0
O229 O 0.66631 0.33101 0.04807 0.0
O230 O 0.68005 0.32837 0.9919 0.0
O231 O 0.45487 0.88844 0.30253 0.0
Mn232 Mn 0.42442 0.88975 0.32874 0.0
O233 O 0.44514 0.892 0.24413 0.0
Mn234 Mn 0.41762 0.90392 0.25171 0.0
O235 O 0.39356 0.89019 0.35492 0.0
O236 O 0.4352 0.86407 0.3608 0.0
Mn237 Mn 0.42852 0.87209 0.40603 0.0
O238 O 0.43768 0.91397 0.36423 0.0
O239 O 0.39826 0.87418 0.4097 0.0
O240 O 0.41161 0.86562 0.2931 0.0
O241 O 0.39554 0.8837 0.24697 0.0
O242 O 0.44122 0.84524 0.41121 0.0
O243 O 0.44474 0.89665 0.41718 0.0
C244 C 0.41563 0.93394 0.28122 0.0
C245 C 0.4593 0.88783 0.26847 0.0
C246 C 0.38606 0.88282 0.38538 0.0
C247 C 0.44274 0.84605 0.37596 0.0
C248 C 0.44605 0.91343 0.3966 0.0
C249 C 0.39863 0.86615 0.26522 0.0
O250 O 0.41217 0.91469 0.29612 0.0
O251 O 0.41836 0.93341 0.2462 0.0
O252 O 0.14094 0.28926 0.46589 0.0
Mn253 Mn 0.14009 0.31881 0.43736 0.0
O254 O 0.14099 0.30235 0.5224 0.0
Mn255 Mn 0.15178 0.32995 0.51062 0.0
O256 O 0.13847 0.34887 0.40838 0.0
O257 O 0.11508 0.3058 0.40798 0.0
Mn258 Mn 0.11873 0.31243 0.36169 0.0
O259 O 0.16378 0.30583 0.40071 0.0
O260 O 0.11737 0.34269 0.35893 0.0
O261 O 0.11508 0.33084 0.47213 0.0
O262 O 0.13123 0.35175 0.51342 0.0
O263 O 0.09317 0.29621 0.36363 0.0
O264 O 0.14491 0.29941 0.3487 0.0
C265 C 0.18301 0.33011 0.48832 0.0
C266 C 0.13927 0.28651 0.50027 0.0
C267 C 0.12772 0.35563 0.38017 0.0
C268 C 0.09712 0.29586 0.39833 0.0
C269 C 0.16241 0.29816 0.36787 0.0
C270 C 0.11398 0.34572 0.49688 0.0
O271 O 0.16556 0.33308 0.46754 0.0
O272 O 0.18 0.33068 0.52336 0.0
O273 O 0.95292 0.8909 0.21793 0.0
Mn274 Mn 0.92419 0.88939 0.18748 0.0
O275 O 0.9385 0.88973 0.27352 0.0
Mn276 Mn 0.91076 0.89975 0.26033 0.0
O277 O 0.8954 0.88714 0.15549 0.0
O278 O 0.93887 0.86549 0.15768 0.0
Mn279 Mn 0.93584 0.87176 0.11096 0.0
O280 O 0.93675 0.91457 0.15359 0.0
O281 O 0.90581 0.87221 0.10198 0.0
O282 O 0.91206 0.86336 0.22051 0.0
O283 O 0.8895 0.87866 0.26041 0.0
O284 O 0.95101 0.84556 0.11261 0.0
O285 O 0.95025 0.89806 0.10335 0.0
C286 C 0.91069 0.93112 0.23932 0.0
C287 C 0.95494 0.889 0.25238 0.0
C288 C 0.89103 0.8798 0.12327 0.0
C289 C 0.94898 0.84771 0.14757 0.0
C290 C 0.94739 0.91496 0.12317 0.0
C291 C 0.89651 0.86172 0.24422 0.0
O292 O 0.90843 0.91399 0.21761 0.0
O293 O 0.90873 0.92764 0.27413 0.0
O294 O 0.35211 0.70615 0.96265 0.0
Mn295 Mn 0.35237 0.67583 0.93671 0.0
O296 O 0.35549 0.69496 0.01978 0.0
Mn297 Mn 0.3425 0.66787 0.01224 0.0
O298 O 0.35323 0.64532 0.90907 0.0
O299 O 0.37618 0.68947 0.90365 0.0
Mn300 Mn 0.3675 0.6823 0.85901 0.0
O301 O 0.32623 0.68722 0.90352 0.0
O302 O 0.36826 0.65234 0.85433 0.0
O303 O 0.37848 0.66418 0.97046 0.0
O304 O 0.36237 0.64559 0.01547 0.0
O305 O 0.39243 0.69791 0.85162 0.0
O306 O 0.34074 0.69481 0.84864 0.0
C307 C 0.31069 0.66525 0.98932 0.0
C308 C 0.35641 0.70992 0.996 0.0
C309 C 0.36034 0.63905 0.87766 0.0
C310 C 0.39268 0.69913 0.88697 0.0
C311 C 0.32457 0.69432 0.87052 0.0
C312 C 0.37939 0.65013 0.99693 0.0
O313 O 0.32856 0.66171 0.97012 0.0
O314 O 0.31387 0.66939 0.02356 0.0
O315 O 0.53701 0.10339 0.71496 0.0
Mn316 Mn 0.56731 0.10132 0.68854 0.0
O317 O 0.5469 0.1005 0.77319 0.0
Mn318 Mn 0.57387 0.08744 0.76535 0.0
O319 O 0.59748 0.1005 0.66036 0.0
O320 O 0.55667 0.12653 0.65694 0.0
Mn321 Mn 0.56077 0.1199 0.61072 0.0
O322 O 0.55349 0.07743 0.65308 0.0
O323 O 0.5907 0.11543 0.60497 0.0
O324 O 0.58073 0.12528 0.72401 0.0
O325 O 0.59647 0.10703 0.77018 0.0
O326 O 0.54902 0.14784 0.61081 0.0
O327 O 0.54323 0.09575 0.60233 0.0
C328 C 0.57539 0.05722 0.73644 0.0
C329 C 0.53281 0.10494 0.74894 0.0
C330 C 0.60367 0.10677 0.62834 0.0
C331 C 0.549 0.1453 0.64588 0.0
C332 C 0.54343 0.07847 0.62203 0.0
C333 C 0.59358 0.12465 0.75206 0.0
O334 O 0.57942 0.07626 0.72113 0.0
O335 O 0.57201 0.05808 0.77127 0.0
H336 H 0.39891 0.22908 0.07534 0.0
H337 H 0.43352 0.24734 0.05703 0.0
H338 H 0.47051 0.19572 0.11012 0.0
H339 H 0.43637 0.17722 0.12631 0.0
H340 H 0.46343 0.26385 0.10398 0.0
H341 H 0.50626 0.20173 0.02042 0.0
H342 H 0.4772 0.19972 0.03046 0.0
H343 H 0.49745 0.19009 0.06289 0.0
C344 C 0.4145 0.22104 0.08085 0.0
C345 C 0.41504 0.20129 0.10081 0.0
C346 C 0.43426 0.23167 0.07114 0.0
C347 C 0.45479 0.22273 0.08152 0.0
C348 C 0.45511 0.20262 0.10045 0.0
H349 H 0.58531 0.25493 0.13519 0.0
H350 H 0.54999 0.23866 0.11814 0.0
C351 C 0.43553 0.19198 0.10966 0.0
C352 C 0.47582 0.23515 0.07638 0.0
H353 H 0.52961 0.22822 0.05119 0.0
C354 C 0.47776 0.25632 0.09153 0.0
C355 C 0.49467 0.22529 0.06052 0.0
C356 C 0.49371 0.20304 0.04237 0.0
C357 C 0.49824 0.26727 0.09312 0.0
C358 C 0.51722 0.25694 0.07858 0.0
C359 C 0.51507 0.23621 0.06213 0.0
C360 C 0.53981 0.266 0.08414 0.0
C361 C 0.49967 0.28915 0.11242 0.0
C362 C 0.54641 0.28635 0.06922 0.0
C363 C 0.56696 0.29553 0.07849 0.0
C364 C 0.58107 0.28444 0.10278 0.0
C365 C 0.57496 0.26354 0.11571 0.0
C366 C 0.55465 0.25436 0.10632 0.0
H367 H 0.48415 0.29333 0.12692 0.0
H368 H 0.5134 0.28906 0.1325 0.0
H369 H 0.50307 0.30232 0.09216 0.0
H370 H 0.53533 0.29551 0.05166 0.0
H371 H 0.57102 0.31194 0.069 0.0
H372 H 0.55313 0.66525 0.31009 0.0
H373 H 0.53646 0.70056 0.29062 0.0
H374 H 0.49249 0.6979 0.38286 0.0
H375 H 0.50924 0.66334 0.40239 0.0
H376 H 0.48069 0.71537 0.29108 0.0
H377 H 0.5412 0.75482 0.38485 0.0
H378 H 0.54717 0.72935 0.3614 0.0
H379 H 0.52853 0.72944 0.39934 0.0
C380 C 0.53947 0.67195 0.32532 0.0
C381 C 0.53265 0.66174 0.35783 0.0
C382 C 0.53001 0.69211 0.31438 0.0
C383 C 0.5134 0.70196 0.33562 0.0
C384 C 0.50532 0.69068 0.36618 0.0
H385 H 0.43388 0.8044 0.39456 0.0
H386 H 0.45264 0.77109 0.375 0.0
C387 C 0.51488 0.67086 0.37721 0.0
C388 C 0.50591 0.72497 0.32917 0.0
H389 H 0.51068 0.77647 0.36592 0.0
C390 C 0.48766 0.72891 0.30649 0.0
C391 C 0.51479 0.74256 0.3498 0.0
C392 C 0.53408 0.73901 0.37518 0.0
C393 C 0.47744 0.74976 0.30535 0.0
C394 C 0.4857 0.76705 0.32725 0.0
C395 C 0.50462 0.76336 0.34852 0.0
C396 C 0.47258 0.78731 0.3342 0.0
C397 C 0.45704 0.75298 0.28247 0.0
C398 C 0.47716 0.8076 0.31705 0.0
C399 C 0.46617 0.82696 0.32812 0.0
C400 C 0.45072 0.82614 0.35668 0.0
C401 C 0.44559 0.80558 0.37231 0.0
C402 C 0.45634 0.78647 0.36124 0.0
H403 H 0.45438 0.73913 0.26319 0.0
H404 H 0.44247 0.75423 0.30066 0.0
H405 H 0.45823 0.76861 0.26679 0.0
H406 H 0.48975 0.80859 0.29618 0.0
H407 H 0.47076 0.84261 0.31621 0.0
H408 H 0.07485 0.80616 0.56588 0.0
H409 H 0.0387 0.79093 0.5478 0.0
H410 H 0.04729 0.73772 0.62453 0.0
H411 H 0.08299 0.75266 0.64237 0.0
H412 H 0.02418 0.73709 0.53221 0.0
H413 H 0.99066 0.78219 0.6521 0.0
H414 H 0.01478 0.79159 0.62764 0.0
H415 H 0.01669 0.76838 0.65784 0.0
C416 C 0.06944 0.79069 0.57755 0.0
C417 C 0.08182 0.78046 0.60526 0.0
C418 C 0.04869 0.78214 0.56755 0.0
C419 C 0.04027 0.76328 0.5851 0.0
C420 C 0.05344 0.75225 0.61065 0.0
H421 H 0.93769 0.67748 0.63042 0.0
H422 H 0.97148 0.6962 0.61149 0.0
C423 C 0.07393 0.76075 0.62063 0.0
C424 C 0.01703 0.75603 0.58032 0.0
H425 H 0.96809 0.75431 0.62643 0.0
C426 C 0.0117 0.74129 0.55218 0.0
C427 C 0.00086 0.76131 0.60672 0.0
C428 C 0.00586 0.77683 0.63776 0.0
C429 C 0.9909 0.73094 0.55082 0.0
C430 C 0.97512 0.73554 0.5781 0.0
C431 C 0.98011 0.75103 0.60524 0.0
C432 C 0.95472 0.72223 0.58227 0.0
C433 C 0.9861 0.71438 0.52131 0.0
C434 C 0.93404 0.73028 0.57108 0.0
C435 C 0.91459 0.71934 0.58155 0.0
C436 C 0.91568 0.70035 0.60341 0.0
C437 C 0.93643 0.69176 0.61272 0.0
C438 C 0.95574 0.70252 0.60215 0.0
H439 H -0.001 0.71433 0.49981 0.0
H440 H 0.98512 0.69768 0.53359 0.0
H441 H 0.96987 0.71796 0.50855 0.0
H442 H 0.9329 0.74562 0.55607 0.0
H443 H 0.89878 0.72672 0.5753 0.0
H444 H 0.92395 0.3098 0.86134 0.0
H445 H 0.94142 0.27462 0.84661 0.0
H446 H 0.00292 0.30826 0.82693 0.0
H447 H 0.98544 0.34346 0.84281 0.0
H448 H 0.96377 0.25501 0.79161 0.0
H449 H 0.01905 0.26766 0.91042 0.0
H450 H 0.99599 0.28545 0.90086 0.0
H451 H 0.02151 0.28888 0.8765 0.0
C452 C 0.94096 0.30976 0.85236 0.0
C453 C 0.95325 0.32935 0.85245 0.0
C454 C 0.95101 0.28961 0.84428 0.0
C455 C 0.97365 0.28863 0.83648 0.0
C456 C 0.98554 0.30848 0.83364 0.0
H457 H 0.06488 0.17744 0.83267 0.0
H458 H 0.04682 0.21237 0.81669 0.0
C459 C 0.97548 0.32867 0.84198 0.0
C460 C 0.98497 0.26681 0.83453 0.0
H461 H 0.02525 0.23583 0.87517 0.0
C462 C 0.97731 0.25089 0.8097 0.0
C463 C 0.00234 0.26113 0.85875 0.0
C464 C 0.01007 0.27656 0.88841 0.0
C465 C 0.98676 0.2297 0.80806 0.0
C466 C 0.00438 0.22428 0.83172 0.0
C467 C 0.01205 0.24016 0.85648 0.0
C468 C 0.01426 0.20184 0.83329 0.0
C469 C 0.97783 0.21323 0.78109 0.0
C470 C 0.00184 0.18404 0.84661 0.0
C471 C 0.01215 0.16413 0.85558 0.0
C472 C 0.03498 0.16157 0.85107 0.0
C473 C 0.04714 0.17877 0.83526 0.0
C474 C 0.03687 0.19881 0.82658 0.0
H475 H 0.96781 0.22127 0.75943 0.0
H476 H 0.99144 0.20388 0.7681 0.0
H477 H 0.96714 0.20128 0.79569 0.0
H478 H 0.9845 0.18607 0.85274 0.0
H479 H 0.00258 0.15134 0.86885 0.0
H480 H 0.58304 0.79292 0.95976 0.0
H481 H 0.54899 0.77522 0.98341 0.0
H482 H 0.53426 0.75153 0.87517 0.0
H483 H 0.56757 0.76783 0.85234 0.0
H484 H 0.50334 0.7836 0.95523 0.0
H485 H 0.52695 0.69644 0.93625 0.0
H486 H 0.54719 0.71817 0.94039 0.0
H487 H 0.53367 0.71309 0.89741 0.0
C488 C 0.57264 0.78357 0.94142 0.0
C489 C 0.5779 0.78215 0.90407 0.0
C490 C 0.55318 0.77359 0.95481 0.0
C491 C 0.5391 0.76189 0.93102 0.0
C492 C 0.54491 0.76006 0.89425 0.0
H493 H 0.42115 0.72661 0.85387 0.0
H494 H 0.45522 0.74188 0.8771 0.0
C495 C 0.56406 0.76968 0.88116 0.0
C496 C 0.51765 0.75211 0.94251 0.0
H497 H 0.48791 0.70492 0.92963 0.0
C498 C 0.50007 0.76622 0.95126 0.0
C499 C 0.51322 0.72946 0.9367 0.0
C500 C 0.53133 0.7134 0.92746 0.0
C501 C 0.4781 0.75858 0.95122 0.0
C502 C 0.47366 0.73632 0.94268 0.0
C503 C 0.49132 0.7219 0.93679 0.0
C504 C 0.45126 0.72892 0.93164 0.0
C505 C 0.45954 0.77459 0.95753 0.0
C506 C 0.43739 0.71663 0.95484 0.0
C507 C 0.41748 0.70765 0.94147 0.0
C508 C 0.41146 0.71072 0.9047 0.0
C509 C 0.42516 0.72376 0.88232 0.0
C510 C 0.44472 0.73265 0.89556 0.0
H511 H 0.46551 0.79045 0.96892 0.0
H512 H 0.45106 0.77796 0.93121 0.0
H513 H 0.44721 0.76733 0.97645 0.0
H514 H 0.44223 0.7135 0.98284 0.0
H515 H 0.40738 0.69767 0.95933 0.0
H516 H 0.49047 0.3407 0.65161 0.0
H517 H 0.50804 0.30562 0.66777 0.0
H518 H 0.44449 0.27849 0.69529 0.0
H519 H 0.42698 0.31366 0.67932 0.0
H520 H 0.50885 0.27589 0.729 0.0
H521 H 0.46622 0.24099 0.6079 0.0
H522 H 0.46771 0.27019 0.6165 0.0
H523 H 0.44829 0.25342 0.64098 0.0
C524 C 0.48044 0.32756 0.66284 0.0
C525 C 0.45747 0.32996 0.66504 0.0
C526 C 0.49044 0.30745 0.67166 0.0
C527 C 0.47754 0.28928 0.68207 0.0
C528 C 0.45475 0.2922 0.68695 0.0
H529 H 0.50971 0.14878 0.68109 0.0
H530 H 0.49176 0.18378 0.69684 0.0
C531 C 0.44479 0.31239 0.67845 0.0
C532 C 0.48762 0.26694 0.68434 0.0
H533 H 0.4878 0.21654 0.64288 0.0
C534 C 0.50414 0.26285 0.71037 0.0
C535 C 0.48172 0.25001 0.65963 0.0
C536 C 0.46517 0.25382 0.62942 0.0
C537 C 0.5147 0.24223 0.71265 0.0
C538 C 0.50873 0.22528 0.68807 0.0
C539 C 0.49212 0.22937 0.66217 0.0
C540 C 0.52063 0.20381 0.68653 0.0
C541 C 0.53217 0.23875 0.74139 0.0
C542 C 0.54301 0.20327 0.6769 0.0
C543 C 0.55324 0.18331 0.66823 0.0
C544 C 0.54136 0.16347 0.66919 0.0
C545 C 0.51942 0.16375 0.68132 0.0
C546 C 0.5091 0.18378 0.68979 0.0
H547 H 0.53041 0.25062 0.76423 0.0
H548 H 0.53148 0.22175 0.75255 0.0
H549 H 0.54865 0.24127 0.72895 0.0
H550 H 0.55216 0.21844 0.67334 0.0
H551 H 0.56993 0.18361 0.65774 0.0
H552 H 0.89879 0.23296 0.4255 0.0
H553 H 0.93295 0.25289 0.44083 0.0
H554 H 0.96985 0.19267 0.42965 0.0
H555 H 0.93596 0.17292 0.41448 0.0
H556 H 0.97251 0.24504 0.49317 0.0
H557 H 0.98996 0.23663 0.34505 0.0
H558 H 0.96267 0.23332 0.36392 0.0
H559 H 0.98243 0.21142 0.36765 0.0
C560 C 0.91404 0.22384 0.4283 0.0
C561 C 0.91475 0.20134 0.41955 0.0
C562 C 0.93357 0.23526 0.4366 0.0
C563 C 0.95397 0.22429 0.43587 0.0
C564 C 0.95432 0.20146 0.43026 0.0
H565 H 0.09115 0.25258 0.41064 0.0
H566 H 0.05571 0.23574 0.42617 0.0
C567 C 0.93491 0.19012 0.42206 0.0
C568 C 0.9751 0.23671 0.4363 0.0
H569 H 0.01936 0.249 0.38237 0.0
C570 C 0.98272 0.2461 0.46896 0.0
C571 C 0.98826 0.23828 0.40451 0.0
C572 C 0.98041 0.22958 0.36816 0.0
C573 C 0.00366 0.25617 0.47099 0.0
C574 C 0.01717 0.25689 0.43955 0.0
C575 C 0.00916 0.24812 0.40666 0.0
C576 C 0.03975 0.26651 0.43964 0.0
C577 C 0.01151 0.26535 0.5069 0.0
C578 C 0.04296 0.28927 0.444 0.0
C579 C 0.06343 0.29884 0.43579 0.0
C580 C 0.08087 0.2858 0.42295 0.0
C581 C 0.07816 0.26288 0.42154 0.0
C582 C 0.05781 0.25331 0.42989 0.0
H583 H 0.00094 0.25998 0.53001 0.0
H584 H 0.02876 0.2602 0.51239 0.0
H585 H 0.01118 0.2836 0.50562 0.0
H586 H 0.02922 0.29985 0.45079 0.0
H587 H 0.06488 0.31662 0.43581 0.0
H588 H 0.00137 0.64769 0.16788 0.0
H589 H 0.98457 0.68332 0.18264 0.0
H590 H 0.04903 0.71321 0.18469 0.0
H591 H 0.06574 0.6776 0.16973 0.0
H592 H 0.98858 0.71725 0.23595 0.0
H593 H 0.01731 0.74415 0.09926 0.0
H594 H 0.018 0.71577 0.1138 0.0
H595 H 0.03911 0.73458 0.12843 0.0
C596 C 0.01198 0.66165 0.17333 0.0
C597 C 0.03488 0.65981 0.16851 0.0
C598 C 0.00237 0.68208 0.18132 0.0
C599 C 0.01548 0.70108 0.18403 0.0
C600 C 0.03853 0.69886 0.18226 0.0
H601 H 0.9905 0.84113 0.17179 0.0
H602 H 0.00628 0.80515 0.18708 0.0
C603 C 0.04813 0.67842 0.17439 0.0
C604 C 0.00506 0.72335 0.18493 0.0
H605 H 0.00103 0.77138 0.13648 0.0
C606 C 0.99133 0.72912 0.21427 0.0
C607 C 0.00821 0.73871 0.15621 0.0
C608 C 0.02125 0.73299 0.12244 0.0
C609 C 0.98133 0.75007 0.21626 0.0
C610 C 0.98508 0.76563 0.1881 0.0
C611 C -0.00151 0.75967 0.15848 0.0
C612 C 0.97498 0.78806 0.18788 0.0
C613 C 0.96713 0.75554 0.24873 0.0
C614 C 0.95202 0.79076 0.18505 0.0
C615 C 0.94298 0.81149 0.17704 0.0
C616 C 0.95672 0.82984 0.17162 0.0
C617 C 0.97949 0.82743 0.17704 0.0
C618 C 0.98853 0.80678 0.18523 0.0
H619 H 0.97004 0.74402 0.27184 0.0
H620 H 0.97024 0.77263 0.25814 0.0
H621 H 0.94953 0.7543 0.24075 0.0
H622 H 0.94121 0.77658 0.18612 0.0
H623 H 0.92546 0.81272 0.17159 0.0
H624 H 0.12944 0.14699 0.88193 0.0
H625 H 0.16535 0.15267 0.91074 0.0
H626 H 0.16919 0.08335 0.93554 0.0
H627 H 0.13297 0.07763 0.9065 0.0
H628 H 0.16853 0.14098 0.98762 0.0
H629 H 0.23349 0.10216 0.90225 0.0
H630 H 0.20764 0.11173 0.88352 0.0
H631 H 0.20856 0.08658 0.90921 0.0
C632 C 0.13839 0.13282 0.89219 0.0
C633 C 0.12863 0.11185 0.89178 0.0
C634 C 0.15881 0.13611 0.90886 0.0
C635 C 0.16989 0.11848 0.92544 0.0
C636 C 0.16099 0.09715 0.92259 0.0
H637 H 0.2905 0.11455 0.05089 0.0
H638 H 0.25331 0.10514 0.03054 0.0
C639 C 0.14041 0.09384 0.90583 0.0
C640 C 0.1889 0.12306 0.94986 0.0
H641 H 0.24426 0.1155 0.96003 0.0
C642 C 0.18511 0.13535 0.9817 0.0
C643 C 0.21045 0.11581 0.94196 0.0
C644 C 0.21549 0.10346 0.90729 0.0
C645 C 0.20226 0.14035 1.00616 0.0
C646 C 0.22389 0.13306 0.99841 0.0
C647 C 0.22764 0.12078 0.96641 0.0
C648 C 0.24321 0.13887 0.02171 0.0
C649 C 0.19696 0.15321 0.04021 0.0
C650 C 0.24925 0.161 0.02675 0.0
C651 C 0.27033 0.16636 0.03967 0.0
C652 C 0.28591 0.14972 0.04651 0.0
C653 C 0.27875 0.12773 0.04649 0.0
C654 C 0.25763 0.12232 0.03391 0.0
H655 H 0.17933 0.15146 0.04786 0.0
H656 H 0.20732 0.14781 0.06358 0.0
H657 H 0.20018 0.17093 0.03511 0.0
H658 H 0.23865 0.17413 0.01718 0.0
H659 H 0.27552 0.18343 0.03858 0.0
H660 H 0.6605 0.37474 0.17971 0.0
H661 H 0.65696 0.41089 0.20886 0.0
H662 H 0.60119 0.42564 0.13993 0.0
H663 H 0.60478 0.38943 0.11065 0.0
H664 H 0.64969 0.45941 0.17773 0.0
H665 H 0.58059 0.41947 0.25286 0.0
H666 H 0.60179 0.40358 0.23045 0.0
H667 H 0.58114 0.41739 0.20387 0.0
C668 C 0.64812 0.38614 0.1698 0.0
C669 C 0.63304 0.37963 0.14285 0.0
C670 C 0.64605 0.40667 0.18651 0.0
C671 C 0.62873 0.42074 0.17667 0.0
C672 C 0.61466 0.41493 0.14777 0.0
H673 H 0.5588 0.52551 0.27387 0.0
H674 H 0.57176 0.49023 0.25288 0.0
C675 C 0.61679 0.39439 0.13096 0.0
C676 C 0.62351 0.43983 0.19999 0.0
H677 H 0.58864 0.45609 0.26747 0.0
C678 C 0.63631 0.45891 0.19734 0.0
C679 C 0.6061 0.43885 0.22544 0.0
C680 C 0.5916 0.41873 0.22867 0.0
C681 C 0.6315 0.47764 0.2184 0.0
C682 C 0.61412 0.47671 0.2445 0.0
C683 C 0.60195 0.45705 0.24782 0.0
C684 C 0.60625 0.49646 0.26507 0.0
C685 C 0.64441 0.49839 0.21067 0.0
C686 C 0.6208 0.51145 0.28193 0.0
C687 C 0.61335 0.53241 0.29236 0.0
C688 C 0.59105 0.53794 0.28834 0.0
C689 C 0.57606 0.52151 0.27787 0.0
C690 C 0.5836 0.50128 0.2653 0.0
H691 H 0.65276 0.49774 0.1837 0.0
H692 H 0.63358 0.5131 0.21096 0.0
H693 H 0.65743 0.50037 0.2317 0.0
H694 H 0.63815 0.50771 0.2844 0.0
H695 H 0.62527 0.54485 0.30004 0.0
H696 H 0.36037 0.91507 0.41464 0.0
H697 H 0.32412 0.90942 0.44341 0.0
H698 H 0.32298 0.8427 0.40353 0.0
H699 H 0.35904 0.84834 0.3749 0.0
H700 H 0.27963 0.89001 0.41727 0.0
H701 H 0.32569 0.84035 0.51964 0.0
H702 H 0.33913 0.85962 0.48933 0.0
H703 H 0.33026 0.8333 0.47259 0.0
C704 C 0.35188 0.89955 0.41084 0.0
C705 C 0.36222 0.8822 0.39231 0.0
C706 C 0.3313 0.89627 0.42744 0.0
C707 C 0.32107 0.87554 0.42602 0.0
C708 C 0.33068 0.85877 0.40512 0.0
H709 H 0.21474 0.8041 0.51888 0.0
H710 H 0.25101 0.81698 0.49954 0.0
C711 C 0.35115 0.86205 0.38853 0.0
C712 C 0.30184 0.8705 0.44962 0.0
H713 H 0.28675 0.83989 0.52392 0.0
C714 C 0.28114 0.87927 0.44085 0.0
C715 C 0.30395 0.85645 0.4803 0.0
C716 C 0.32596 0.84696 0.49135 0.0
C717 C 0.26226 0.87364 0.46118 0.0
C718 C 0.26432 0.85935 0.49176 0.0
C719 C 0.28518 0.851 0.50084 0.0
C720 C 0.24474 0.85118 0.51226 0.0
C721 C 0.24016 0.88219 0.44859 0.0
C722 C 0.22987 0.86575 0.529 0.0
C723 C 0.20917 0.85826 0.54074 0.0
C724 C 0.20313 0.83611 0.53593 0.0
C725 C 0.21913 0.82115 0.52371 0.0
C726 C 0.23976 0.82861 0.51195 0.0
H727 H 0.24085 0.88885 0.42033 0.0
H728 H 0.22751 0.86898 0.44955 0.0
H729 H 0.2348 0.89567 0.46693 0.0
H730 H 0.23358 0.88317 0.53044 0.0
H731 H 0.19699 0.87024 0.54922 0.0
H732 H 0.84722 0.62404 0.70917 0.0
H733 H 0.8521 0.5871 0.73365 0.0
H734 H 0.87013 0.56361 0.62671 0.0
H735 H 0.86552 0.60109 0.6019 0.0
H736 H 0.83436 0.5467 0.71916 0.0
H737 H 0.92425 0.54858 0.68924 0.0
H738 H 0.90708 0.57269 0.68512 0.0
H739 H 0.90625 0.55176 0.65058 0.0
C740 C 0.85186 0.61095 0.69067 0.0
C741 C 0.85616 0.61544 0.65372 0.0
C742 C 0.85463 0.58983 0.70471 0.0
C743 C 0.86189 0.57269 0.68222 0.0
C744 C 0.86488 0.57672 0.64468 0.0
H745 H 0.87325 0.43776 0.75515 0.0
H746 H 0.85849 0.47276 0.73469 0.0
C747 C 0.86198 0.59802 0.63044 0.0
C748 C 0.86743 0.55121 0.6993 0.0
H749 H 0.91066 0.51755 0.72024 0.0
C750 C 0.85102 0.54022 0.71929 0.0
C751 C 0.88926 0.54306 0.70001 0.0
C752 C 0.90782 0.55466 0.68037 0.0
C753 C 0.85586 0.52146 0.74034 0.0
C754 C 0.87767 0.51315 0.74081 0.0
C755 C 0.89401 0.52403 0.72037 0.0
C756 C 0.88385 0.49252 0.76035 0.0
C757 C 0.83762 0.51123 0.76264 0.0
C758 C 0.90288 0.4917 0.78242 0.0
C759 C 0.91184 0.47141 0.79315 0.0
C760 C 0.90151 0.45175 0.78282 0.0
C761 C 0.88111 0.45274 0.76459 0.0
C762 C 0.87267 0.47285 0.75265 0.0
H763 H 0.8246 0.52345 0.76919 0.0
H764 H 0.82976 0.49788 0.74662 0.0
H765 H 0.84399 0.50416 0.78856 0.0
H766 H 0.91177 0.50667 0.78887 0.0
H767 H 0.9278 0.47105 0.80643 0.0
H768 H 0.71795 0.8209 0.95487 0.0
H769 H 0.75446 0.83377 0.97453 0.0
H770 H 0.72404 0.88656 0.03451 0.0
H771 H 0.68775 0.87391 0.01461 0.0
H772 H 0.76761 0.89652 1.00002 0.0
H773 H 0.76583 0.8213 0.08722 0.0
H774 H 0.76004 0.81775 0.03939 0.0
H775 H 0.7412 0.83299 0.06733 0.0
C776 C 0.71918 0.83612 0.97013 0.0
C777 C 0.70002 0.84668 0.98258 0.0
C778 C 0.74001 0.84316 0.98211 0.0
C779 C 0.74189 0.86083 1.00665 0.0
C780 C 0.72298 0.8729 0.01562 0.0
H781 H 0.85172 0.88239 0.16153 0.0
H782 H 0.81416 0.87988 0.13599 0.0
C783 C 0.70225 0.86591 1.00361 0.0
C784 C 0.76288 0.86519 0.02633 0.0
H785 H 0.79758 0.84357 0.09081 0.0
C786 C 0.77418 0.88496 0.01983 0.0
C787 C 0.77108 0.85036 0.05301 0.0
C788 C 0.75892 0.82945 0.06254 0.0
C789 C 0.79393 0.88988 0.03824 0.0
C790 C 0.80264 0.87461 0.06371 0.0
C791 C 0.7909 0.85523 0.07124 0.0
C792 C 0.82495 0.87742 0.07983 0.0
C793 C 0.80544 0.91136 0.03019 0.0
C794 C 0.84333 0.8768 0.05682 0.0
C795 C 0.86456 0.8781 0.07118 0.0
C796 C 0.86806 0.88 0.10906 0.0
C797 C 0.8496 0.88103 0.13225 0.0
C798 C 0.82817 0.87953 0.11772 0.0
H799 H 0.79396 0.92367 0.01821 0.0
H800 H 0.81289 0.91835 0.05534 0.0
H801 H 0.81886 0.90842 0.01023 0.0
H802 H 0.84128 0.87484 0.02762 0.0
H803 H 0.87831 0.87736 0.05238 0.0
H804 H 0.35205 0.62487 0.80972 0.0
H805 H 0.35704 0.58802 0.78548 0.0
H806 H 0.37118 0.56356 0.89356 0.0
H807 H 0.36621 0.60106 0.91856 0.0
H808 H 0.40448 0.56101 0.81596 0.0
H809 H 0.32025 0.52475 0.81827 0.0
H810 H 0.3232 0.55415 0.81247 0.0
H811 H 0.33066 0.5416 0.85504 0.0
C812 C 0.35585 0.61164 0.8286 0.0
C813 C 0.35903 0.61585 0.86599 0.0
C814 C 0.35867 0.59061 0.81463 0.0
C815 C 0.36465 0.57329 0.83767 0.0
C816 C 0.36662 0.57693 0.87545 0.0
H817 H 0.37734 0.43926 0.77815 0.0
H818 H 0.36538 0.47498 0.79757 0.0
C819 C 0.36365 0.59821 0.88968 0.0
C820 C 0.37038 0.55205 0.82082 0.0
H821 H 0.34673 0.50714 0.78197 0.0
C822 C 0.3921 0.5488 0.80913 0.0
C823 C 0.35401 0.53665 0.81158 0.0
C824 C 0.33066 0.53924 0.82496 0.0
C825 C 0.39808 0.53011 0.78889 0.0
C826 C 0.38149 0.51481 0.77837 0.0
C827 C 0.3596 0.51862 0.78968 0.0
C828 C 0.38661 0.49328 0.76059 0.0
C829 C 0.42221 0.52695 0.78027 0.0
C830 C 0.4017 0.49101 0.73144 0.0
C831 C 0.40969 0.47007 0.72175 0.0
C832 C 0.40147 0.45133 0.73958 0.0
C833 C 0.38398 0.45356 0.76418 0.0
C834 C 0.37709 0.47418 0.77532 0.0
H835 H 0.43292 0.53707 0.79826 0.0
H836 H 0.42718 0.50948 0.78347 0.0
H837 H 0.4254 0.53225 0.75176 0.0
H838 H 0.40833 0.50535 0.71778 0.0
H839 H 0.42318 0.46872 0.70253 0.0
H840 H 0.61768 0.08771 0.56648 0.0
H841 H 0.65389 0.09171 0.53807 0.0
H842 H 0.6775 0.12594 0.63346 0.0
H843 H 0.64109 0.12167 0.66232 0.0
H844 H 0.67044 0.13487 0.52492 0.0
H845 H 0.72906 0.08367 0.60505 0.0
H846 H 0.69964 0.07889 0.60542 0.0
H847 H 0.71121 0.10113 0.63136 0.0
C848 C 0.63084 0.09541 0.58188 0.0
C849 C 0.62674 0.10423 0.61662 0.0
C850 C 0.65145 0.09777 0.56557 0.0
C851 C 0.66837 0.10907 0.58361 0.0
C852 C 0.66475 0.11683 0.6193 0.0
H853 H 0.78097 0.17944 0.55006 0.0
H854 H 0.74738 0.16018 0.56416 0.0
C855 C 0.64403 0.11432 0.63584 0.0
C856 C 0.68864 0.11497 0.56325 0.0
H857 H 0.74463 0.10992 0.56379 0.0
C858 C 0.68665 0.12908 0.53294 0.0
C859 C 0.70969 0.10733 0.57372 0.0
C860 C 0.71264 0.09176 0.60549 0.0
C861 C 0.7053 0.13677 0.51414 0.0
C862 C 0.72641 0.12987 0.52554 0.0
C863 C 0.72835 0.11488 0.5547 0.0
C864 C 0.7464 0.14188 0.51376 0.0
C865 C 0.70255 0.15334 0.48377 0.0
C866 C 0.75672 0.13856 0.47976 0.0
C867 C 0.77671 0.14939 0.47158 0.0
C868 C 0.78619 0.16381 0.49721 0.0
C869 C 0.77452 0.16826 0.52967 0.0
C870 C 0.75523 0.15716 0.53806 0.0
H871 H 0.68498 0.15761 0.47888 0.0
H872 H 0.71171 0.16865 0.49046 0.0
H873 H 0.70965 0.14663 0.4582 0.0
H874 H 0.74982 0.12704 0.46034 0.0
H875 H 0.7852 0.14564 0.44637 0.0
H876 H 0.16102 0.38657 0.37777 0.0
H877 H 0.15837 0.42378 0.35066 0.0
H878 H 0.0886 0.41423 0.33418 0.0
H879 H 0.09119 0.37761 0.36084 0.0
H880 H 0.14376 0.43199 0.27799 0.0
H881 H 0.09102 0.47603 0.37645 0.0
H882 H 0.10596 0.45134 0.38847 0.0
H883 H 0.0798 0.44956 0.36536 0.0
C884 C 0.14509 0.39279 0.36927 0.0
C885 C 0.1263 0.37931 0.37131 0.0
C886 C 0.1436 0.41391 0.35359 0.0
C887 C 0.12323 0.42185 0.3406 0.0
C888 C 0.1044 0.40868 0.34448 0.0
H889 H 0.05641 0.52099 0.22351 0.0
H890 H 0.07066 0.4855 0.24414 0.0
C891 C 0.10591 0.3877 0.35961 0.0
C892 C 0.12141 0.44284 0.31988 0.0
H893 H 0.08979 0.48915 0.31422 0.0
C894 C 0.1323 0.44476 0.28615 0.0
C895 C 0.1065 0.45949 0.33058 0.0
C896 C 0.09534 0.45913 0.36738 0.0
C897 C 0.12756 0.46216 0.26186 0.0
C898 C 0.11156 0.47799 0.27165 0.0
C899 C 0.10163 0.47669 0.30624 0.0
C900 C 0.10461 0.49625 0.24699 0.0
C901 C 0.13892 0.46295 0.22531 0.0
C902 C 0.1192 0.51344 0.23838 0.0
C903 C 0.11106 0.5336 0.22536 0.0
C904 C 0.0882 0.53701 0.22201 0.0
C905 C 0.07411 0.51878 0.2253 0.0
C906 C 0.08222 0.49858 0.23793 0.0
H907 H 0.14751 0.44727 0.21901 0.0
H908 H 0.12688 0.46654 0.20323 0.0
H909 H 0.15134 0.47636 0.22548 0.0
H910 H 0.13649 0.51217 0.24543 0.0
H911 H 0.12227 0.54747 0.22381 0.0
H912 H 0.62887 0.57902 0.4191 0.0
H913 H 0.66483 0.58335 0.44938 0.0
H914 H 0.6726 0.64698 0.39861 0.0
H915 H 0.63668 0.64272 0.36865 0.0
H916 H 0.71155 0.59786 0.42286 0.0
H917 H 0.66742 0.65631 0.51377 0.0
H918 H 0.65306 0.63635 0.48602 0.0
H919 H 0.66456 0.66058 0.46538 0.0
C920 C 0.63878 0.59343 0.41314 0.0
C921 C 0.63029 0.61039 0.39114 0.0
C922 C 0.65918 0.59599 0.43068 0.0
C923 C 0.67119 0.61562 0.42659 0.0
C924 C 0.66351 0.63178 0.40227 0.0
H925 H 0.7779 0.68401 0.5257 0.0
H926 H 0.74151 0.6723 0.50555 0.0
C927 C 0.64314 0.62924 0.38488 0.0
C928 C 0.69023 0.62041 0.45081 0.0
H929 H 0.70573 0.65265 0.52271 0.0
C930 C 0.71033 0.60969 0.44492 0.0
C931 C 0.68853 0.63596 0.47936 0.0
C932 C 0.66722 0.64792 0.48685 0.0
C933 C 0.72911 0.61471 0.46598 0.0
C934 C 0.72743 0.63024 0.49489 0.0
C935 C 0.70707 0.64059 0.50106 0.0
C936 C 0.74704 0.63766 0.51639 0.0
C937 C 0.75073 0.60416 0.45557 0.0
C938 C 0.76156 0.62253 0.53282 0.0
C939 C 0.78258 0.62931 0.54421 0.0
C940 C 0.7891 0.65137 0.54021 0.0
C941 C 0.7732 0.66695 0.52971 0.0
C942 C 0.75246 0.66015 0.51744 0.0
H943 H 0.75029 0.59743 0.4274 0.0
H944 H 0.76451 0.61615 0.45732 0.0
H945 H 0.75422 0.59028 0.47444 0.0
H946 H 0.75742 0.60521 0.53399 0.0
H947 H 0.79458 0.61688 0.55172 0.0
H948 H 0.11988 0.05648 0.73596 0.0
H949 H 0.13255 0.02104 0.71471 0.0
H950 H 0.0969 0.98915 0.80211 0.0
H951 H 0.08178 0.02494 0.82035 0.0
H952 H 0.15202 0.98757 0.72406 0.0
H953 H 0.06472 0.96048 0.7249 0.0
H954 H 0.07252 0.98768 0.73909 0.0
H955 H 0.07477 0.96465 0.77025 0.0
C956 C 0.11549 0.04198 0.75167 0.0
C957 C 0.09956 0.0434 0.77931 0.0
C958 C 0.12255 0.02153 0.73917 0.0
C959 C 0.11461 0.00206 0.75524 0.0
C960 C 0.1021 0.00377 0.78756 0.0
H961 H 0.13632 0.86749 0.7089 0.0
H962 H 0.1343 0.90501 0.73189 0.0
C963 C 0.0941 0.02433 0.79899 0.0
C964 C 0.11782 0.98062 0.73582 0.0
H965 H 0.09114 0.93419 0.70654 0.0
C966 C 0.13852 0.97613 0.72003 0.0
C967 C 0.10019 0.96563 0.72941 0.0
C968 C 0.07678 0.96997 0.74144 0.0
C969 C 0.14213 0.95717 0.69896 0.0
C970 C 0.12496 0.94178 0.69483 0.0
C971 C 0.10427 0.94615 0.71 0.0
C972 C 0.12879 0.91978 0.67898 0.0
C973 C 0.16427 0.95345 0.68144 0.0
C974 C 0.12686 0.91581 0.6413 0.0
C975 C 0.12817 0.89419 0.62787 0.0
C976 C 0.13101 0.87646 0.65219 0.0
C977 C 0.13378 0.88079 0.68959 0.0
C978 C 0.13272 0.90221 0.7028 0.0
H979 H 0.17558 0.96764 0.68534 0.0
H980 H 0.17201 0.93846 0.69319 0.0
H981 H 0.16209 0.9506 0.65171 0.0
H982 H 0.12371 0.92928 0.62258 0.0
H983 H 0.12596 0.89125 0.59893 0.0
H984 H 0.71738 0.29933 0.02012 0.0
H985 H 0.75356 0.312 0.99983 0.0
H986 H 0.73684 0.37825 0.03111 0.0
H987 H 0.7005 0.36556 0.05136 0.0
H988 H 0.74916 0.34693 0.94093 0.0
H989 H 0.80549 0.36933 0.05525 0.0
H990 H 0.78479 0.3481 0.05993 0.0
H991 H 0.77671 0.37646 0.05875 0.0
C992 C 0.722 0.3163 0.02514 0.0
C993 C 0.70621 0.33143 0.03762 0.0
C994 C 0.74254 0.32361 0.01285 0.0
C995 C 0.74773 0.3461 0.01353 0.0
C996 C 0.73317 0.3608 0.03054 0.0
H997 H 0.86037 0.41281 0.91302 0.0
H998 H 0.82373 0.40729 0.94029 0.0
C999 C 0.71254 0.35346 0.04278 0.0
C1000 C 0.76624 0.35443 0.991 0.0
H1001 H 0.81801 0.37615 0.99548 0.0
C1002 C 0.76422 0.35339 0.95281 0.0
C1003 C 0.78563 0.36314 1.00658 0.0
C1004 C 0.78852 0.36434 0.04738 0.0
C1005 C 0.7813 0.36049 0.92976 0.0
C1006 C 0.80105 0.36849 0.94537 0.0
C1007 C 0.8028 0.37011 0.98355 0.0
C1008 C 0.82084 0.37335 0.92298 0.0
C1009 C 0.77807 0.35939 0.88895 0.0
C1010 C 0.83099 0.35635 0.90328 0.0
C1011 C 0.85173 0.35955 0.88765 0.0
C1012 C 0.86258 0.3798 0.89136 0.0
C1013 C 0.85199 0.39723 0.90921 0.0
C1014 C 0.83121 0.39401 0.92499 0.0
H1015 H 0.7603 0.35929 0.88155 0.0
H1016 H 0.78618 0.3735 0.87508 0.0
H1017 H 0.78551 0.34397 0.87847 0.0
H1018 H 0.82357 0.34015 0.90204 0.0
H1019 H 0.85992 0.34577 0.87472 0.0
H1020 H 0.37175 0.94016 0.28104 0.0
H1021 H 0.35644 0.9742 0.25633 0.0
H1022 H 0.41745 0.00768 0.28 0.0
H1023 H 0.43336 0.97309 0.30194 0.0
H1024 H 0.34814 0.01625 0.26554 0.0
H1025 H 0.41894 0.00944 0.17133 0.0
H1026 H 0.41303 0.98868 0.20514 0.0
H1027 H 0.42803 0.01324 0.2174 0.0
C1028 C 0.38148 0.95508 0.28305 0.0
C1029 C 0.40388 0.95388 0.29293 0.0
C1030 C 0.37281 0.97452 0.26816 0.0
C1031 C 0.38621 0.99323 0.26431 0.0
C1032 C 0.40714 0.99314 0.28094 0.0
H1033 H 0.38897 0.12028 0.19006 0.0
H1034 H 0.39148 0.0831 0.21279 0.0
C1035 C 0.41605 0.9735 0.29464 0.0
C1036 C 0.37955 0.01154 0.2393 0.0
H1037 H 0.39839 0.04298 0.16832 0.0
C1038 C 0.35901 0.0219 0.244 0.0
C1039 C 0.39326 0.01844 0.21002 0.0
C1040 C 0.41439 0.00669 0.20036 0.0
C1041 C 0.35276 0.04007 0.22229 0.0
C1042 C 0.36742 0.0481 0.19542 0.0
C1043 C 0.3872 0.03684 0.18907 0.0
C1044 C 0.36499 0.07045 0.17945 0.0
C1045 C 0.33109 0.05138 0.2294 0.0
C1046 C 0.34931 0.07578 0.15242 0.0
C1047 C 0.34773 0.09752 0.13895 0.0
C1048 C 0.3617 0.11407 0.15274 0.0
C1049 C 0.37759 0.10823 0.17914 0.0
C1050 C 0.37918 0.08684 0.19219 0.0
H1051 H 0.3214 0.04304 0.25112 0.0
H1052 H 0.33406 0.06872 0.23758 0.0
H1053 H 0.32114 0.05167 0.20394 0.0
H1054 H 0.33835 0.06323 0.1419 0.0
H1055 H 0.33545 0.10143 0.11846 0.0
H1056 H 0.19667 0.37137 0.47306 0.0
H1057 H 0.23267 0.38494 0.49333 0.0
H1058 H 0.25517 0.31806 0.5062 0.0
H1059 H 0.21921 0.30459 0.48629 0.0
H1060 H 0.24536 0.37358 0.56566 0.0
H1061 H 0.3099 0.34968 0.46648 0.0
H1062 H 0.28112 0.35169 0.4541 0.0
H1063 H 0.29128 0.32768 0.47754 0.0
C1064 C 0.20982 0.35961 0.47765 0.0
C1065 C 0.20527 0.33692 0.4775 0.0
C1066 C 0.23024 0.36738 0.49007 0.0
C1067 C 0.24658 0.35253 0.50156 0.0
C1068 C 0.24295 0.32986 0.4971 0.0
H1069 H 0.36166 0.34164 0.62992 0.0
H1070 H 0.32515 0.3383 0.60223 0.0
C1071 C 0.22247 0.32213 0.48508 0.0
C1072 C 0.26588 0.36029 0.52303 0.0
H1073 H 0.32196 0.35723 0.52745 0.0
C1074 C 0.26215 0.37043 0.55702 0.0
C1075 C 0.28773 0.35599 0.51192 0.0
C1076 C 0.29281 0.34584 0.47536 0.0
C1077 C 0.27971 0.37548 0.58076 0.0
C1078 C 0.30146 0.37044 0.57004 0.0
C1079 C 0.30521 0.36102 0.53562 0.0
C1080 C 0.32068 0.37332 0.59463 0.0
C1081 C 0.27494 0.38518 0.61777 0.0
C1082 C 0.32979 0.39424 0.60116 0.0
C1083 C 0.35068 0.39619 0.61746 0.0
C1084 C 0.36259 0.37721 0.62706 0.0
C1085 C 0.35267 0.35649 0.62297 0.0
C1086 C 0.33188 0.35457 0.60703 0.0
H1087 H 0.25698 0.38655 0.62315 0.0
H1088 H 0.28257 0.37486 0.63944 0.0
H1089 H 0.2824 0.40184 0.61959 0.0
H1090 H 0.32147 0.4089 0.59143 0.0
H1091 H 0.35821 0.4123 0.61977 0.0
H1092 H 0.89679 0.10953 0.38927 0.0
H1093 H 0.90178 0.074 0.35956 0.0
H1094 H 0.83217 0.0714 0.33579 0.0
H1095 H 0.82729 0.10761 0.36495 0.0
H1096 H 0.88605 0.03253 0.36637 0.0
H1097 H 0.85888 0.06874 0.23421 0.0
H1098 H 0.86416 0.08533 0.27407 0.0
H1099 H 0.83898 0.06988 0.27043 0.0
C1100 C 0.8824 0.10097 0.37896 0.0
C1101 C 0.86161 0.11113 0.37986 0.0
C1102 C 0.8853 0.08074 0.36162 0.0
C1103 C 0.86748 0.07022 0.34455 0.0
C1104 C 0.84628 0.07946 0.34799 0.0
H1105 H 0.87071 0.9477 0.22144 0.0
H1106 H 0.85901 0.98391 0.24342 0.0
C1107 C 0.84338 0.09989 0.36533 0.0
C1108 C 0.87175 0.05046 0.32148 0.0
H1109 H 0.87044 0.03169 0.23332 0.0
C1110 C 0.8825 0.03233 0.33734 0.0
C1111 C 0.86734 0.05022 0.28342 0.0
C1112 C 0.85688 0.06962 0.26432 0.0
C1113 C 0.88899 0.01412 0.31634 0.0
C1114 C 0.88488 0.01404 0.27825 0.0
C1115 C 0.87369 0.03187 0.26243 0.0
C1116 C 0.89205 0.99531 0.25494 0.0
C1117 C 0.90019 0.99501 0.33517 0.0
C1118 C 0.91455 0.99049 0.25103 0.0
C1119 C 0.92125 0.96993 0.23788 0.0
C1120 C 0.90557 0.95387 0.22853 0.0
C1121 C 0.8832 0.95992 0.22753 0.0
C1122 C 0.87646 0.98049 0.24084 0.0
H1123 H 0.89799 -0.00445 0.36527 0.0
H1124 H 0.89368 0.97909 0.3249 0.0
H1125 H 0.91812 -0.00443 0.32932 0.0
H1126 H 0.92689 0.00183 0.26125 0.0
H1127 H 0.93854 0.96559 0.23972 0.0
H1128 H 0.11508 0.61137 0.0543 0.0
H1129 H 0.15209 0.61659 0.03085 0.0
H1130 H 0.17831 0.6136 0.14013 0.0
H1131 H 0.14067 0.60844 0.1645 0.0
H1132 H 0.18303 0.65554 0.06833 0.0
H1133 H 0.21383 0.56951 0.05802 0.0
H1134 H 0.1846 0.57484 0.05438 0.0
H1135 H 0.19838 0.57895 0.09708 0.0
C1136 C 0.12862 0.61164 0.07362 0.0
C1137 C 0.12481 0.60975 0.11143 0.0
C1138 C 0.1498 0.61458 0.06001 0.0
C1139 C 0.16783 0.6156 0.0837 0.0
C1140 C 0.16448 0.61286 0.12144 0.0
H1141 H 0.30351 0.62512 0.01596 0.0
H1142 H 0.26805 0.61267 0.03757 0.0
C1143 C 0.14304 0.60984 0.13528 0.0
C1144 C 0.1897 0.62086 0.06808 0.0
H1145 H 0.23367 0.59682 0.02658 0.0
C1146 C 0.19447 0.64284 0.05972 0.0
C1147 C 0.20436 0.60422 0.05702 0.0
C1148 C 0.20025 0.58048 0.06701 0.0
C1149 C 0.21366 0.64876 0.04058 0.0
C1150 C 0.2279 0.63196 0.02721 0.0
C1151 C 0.22294 0.60987 0.03606 0.0
C1152 C 0.24901 0.6369 1.00735 0.0
C1153 C 0.21849 0.67302 0.03629 0.0
C1154 C 0.25063 0.65356 0.98048 0.0
C1155 C 0.27136 0.66167 0.96974 0.0
C1156 C 0.29065 0.65201 0.9835 0.0
C1157 C 0.28885 0.63281 1.00476 0.0
C1158 C 0.26838 0.62575 0.01745 0.0
H1159 H 0.2099 0.68295 0.05738 0.0
H1160 H 0.23639 0.67649 0.03844 0.0
H1161 H 0.21237 0.67873 0.00932 0.0
H1162 H 0.236 0.66144 0.96983 0.0
H1163 H 0.27225 0.67645 0.95322 0.0
H1164 H 0.55829 0.01741 0.71848 0.0
H1165 H 0.57521 0.98315 0.7402 0.0
H1166 H 0.63595 0.01776 0.76076 0.0
H1167 H 0.61933 0.05177 0.7379 0.0
H1168 H 0.63979 0.97065 0.73741 0.0
H1169 H 0.58356 0.98446 0.85509 0.0
H1170 H 0.5715 0.98628 0.8103 0.0
H1171 H 0.59159 0.00627 0.82419 0.0
C1172 C 0.57568 0.01736 0.7252 0.0
C1173 C 0.5875 0.03722 0.72622 0.0
C1174 C 0.5852 -0.00209 0.73849 0.0
C1175 C 0.60658 -0.00186 0.75325 0.0
C1176 C 0.61938 0.01725 0.74974 0.0
H1177 H 0.64421 0.89152 0.9102 0.0
H1178 H 0.64222 0.92952 0.8854 0.0
C1179 C 0.60998 0.0366 0.73586 0.0
C1180 C 0.61455 0.97941 0.77588 0.0
H1181 H 0.60359 0.95101 0.85461 0.0
C1182 C 0.63206 0.9665 0.76321 0.0
C1183 C 0.60488 0.97438 0.81011 0.0
C1184 C 0.58695 0.98861 0.82608 0.0
C1185 C 0.63918 0.94785 0.78271 0.0
C1186 C 0.62842 0.94184 0.81562 0.0
C1187 C 0.61186 0.95559 0.82948 0.0
C1188 C 0.6312 0.91948 0.83165 0.0
C1189 C 0.65771 0.93424 0.76716 0.0
C1190 C 0.62558 0.90148 0.80995 0.0
C1191 C 0.62693 0.88024 0.8236 0.0
C1192 C 0.63348 0.87606 0.85997 0.0
C1193 C 0.63931 0.89409 0.88207 0.0
C1194 C 0.63804 0.91575 0.86799 0.0
H1195 H 0.66903 0.94452 0.75048 0.0
H1196 H 0.66734 0.926 0.78908 0.0
H1197 H 0.65071 0.92139 0.74903 0.0
H1198 H 0.61968 0.90386 0.78227 0.0
H1199 H 0.62229 0.86702 0.80535 0.0
H1200 H 0.41478 0.1704 0.01407 0.0
H1201 H 0.44294 0.16556 0.96656 0.0
H1202 H 0.41253 0.10444 0.93439 0.0
H1203 H 0.38447 0.10915 0.98146 0.0
H1204 H 0.4723 0.12494 0.94273 0.0
H1205 H 0.40649 0.15206 0.84672 0.0
H1206 H 0.40594 0.1584 0.89489 0.0
H1207 H 0.39887 0.13128 0.87947 0.0
C1208 C 0.41475 0.15544 0.998 0.0
C1209 C 0.39746 0.14014 1.00132 0.0
C1210 C 0.43067 0.15283 0.97065 0.0
C1211 C 0.42944 0.13486 0.94669 0.0
C1212 C 0.41354 0.11851 0.95245 0.0
H1213 H 0.49535 0.08184 0.7613 0.0
H1214 H 0.46794 0.09189 0.80767 0.0
C1215 C 0.39767 0.12113 0.97953 0.0
C1216 C 0.44302 0.13412 0.9133 0.0
H1217 H 0.43919 0.13781 0.82036 0.0
C1218 C 0.4652 0.12799 0.916 0.0
C1219 C 0.43358 0.13818 0.87856 0.0
C1220 C 0.40995 0.14551 0.8745 0.0
C1221 C 0.47806 0.12508 0.88454 0.0
C1222 C 0.46841 0.12852 0.84979 0.0
C1223 C 0.4464 0.13515 0.84712 0.0
C1224 C 0.48104 0.12461 0.81606 0.0
C1225 C 0.50171 0.11778 0.8884 0.0
C1226 C 0.49641 0.14024 0.80406 0.0
C1227 C 0.51168 0.13469 0.77716 0.0
C1228 C 0.51177 0.11343 0.76216 0.0
C1229 C 0.49513 0.09851 0.77179 0.0
C1230 C 0.47972 0.10413 0.79856 0.0
H1231 H 0.50629 0.11442 0.91726 0.0
H1232 H 0.50455 0.10266 0.87209 0.0
H1233 H 0.5128 0.13078 0.87754 0.0
H1234 H 0.49763 0.1561 0.8174 0.0
H1235 H 0.52478 0.14621 0.77076 0.0
H1236 H 0.60527 0.62223 0.19815 0.0
H1237 H 0.61489 0.65098 0.15513 0.0
H1238 H 0.5943 0.70038 0.23222 0.0
H1239 H 0.5845 0.6712 0.27639 0.0
H1240 H 0.57326 0.69061 0.14553 0.0
H1241 H 0.6627 0.70776 0.16616 0.0
H1242 H 0.65232 0.68039 0.17469 0.0
H1243 H 0.64434 0.7025 0.20409 0.0
C1244 C 0.60317 0.63921 0.20649 0.0
C1245 C 0.59349 0.64451 0.24024 0.0
C1246 C 0.60873 0.65558 0.18183 0.0
C1247 C 0.60497 0.67759 0.19049 0.0
C1248 C 0.59706 0.68329 0.22524 0.0
H1249 H 0.61582 0.78496 0.03995 0.0
H1250 H 0.60339 0.76062 0.08864 0.0
C1251 C 0.59151 0.6667 0.25036 0.0
C1252 C 0.60735 0.69387 0.16112 0.0
H1253 H 0.64643 0.72073 0.11141 0.0
C1254 C 0.58911 0.69766 0.13836 0.0
C1255 C 0.62821 0.70227 0.1516 0.0
C1256 C 0.64812 0.69817 0.17533 0.0
C1257 C 0.59135 0.70954 0.10573 0.0
C1258 C 0.61231 0.71761 0.0959 0.0
C1259 C 0.63045 0.71415 0.119 0.0
C1260 C 0.61561 0.73106 0.06298 0.0
C1261 C 0.57161 0.71297 0.08135 0.0
C1262 C 0.62601 0.72225 0.03202 0.0
C1263 C 0.63339 0.73625 1.00412 0.0
C1264 C 0.63016 0.759 1.00715 0.0
C1265 C 0.6182 0.76742 0.03682 0.0
C1266 C 0.61112 0.75358 0.06469 0.0
H1267 H 0.55668 0.70445 0.09184 0.0
H1268 H 0.56803 0.73084 0.07905 0.0
H1269 H 0.57527 0.70683 0.05347 0.0
H1270 H 0.62953 0.7048 0.03051 0.0
H1271 H 0.6427 0.72953 0.98154 0.0
H1272 H 0.97291 0.91546 0.30263 0.0
H1273 H 0.0023 0.90561 0.34529 0.0
H1274 H 0.01371 0.84546 0.28593 0.0
H1275 H 0.9842 0.85547 0.24272 0.0
H1276 H 0.99425 0.86034 0.38162 0.0
H1277 H 0.07712 0.87394 0.31963 0.0
H1278 H 0.05379 0.8908 0.30687 0.0
H1279 H 0.05496 0.86267 0.2925 0.0
C1280 C 0.98236 0.90061 0.29782 0.0
C1281 C 0.97657 0.88625 0.26947 0.0
C1282 C -0.00098 0.89497 0.3222 0.0
C1283 C 0.01001 0.87483 0.31868 0.0
C1284 C 0.00548 0.86118 0.28871 0.0
H1285 H 0.09104 0.81229 0.48595 0.0
H1286 H 0.06472 0.81738 0.43583 0.0
C1287 C 0.9888 0.86694 0.26399 0.0
C1288 C 0.02332 0.86685 0.34961 0.0
H1289 H 0.07598 0.8622 0.38113 0.0
C1290 C 0.01213 0.86048 0.38147 0.0
C1291 C 0.04654 0.86712 0.34901 0.0
C1292 C 0.05899 0.87401 0.31528 0.0
C1293 C 0.02368 0.8549 0.41328 0.0
C1294 C 0.04685 0.85589 0.41308 0.0
C1295 C 0.05811 0.86159 0.38094 0.0
C1296 C 0.05972 0.852 0.44649 0.0
C1297 C 0.01119 0.8485 0.44725 0.0
C1298 C 0.06489 0.8697 0.4695 0.0
C1299 C 0.08005 0.8669 0.49786 0.0
C1300 C 0.08971 0.84626 0.50385 0.0
C1301 C 0.08323 0.8282 0.48244 0.0
C1302 C 0.06846 0.83111 0.45362 0.0
H1303 H 0.99319 0.84699 0.44219 0.0
H1304 H 0.01748 0.83256 0.45792 0.0
H1305 H 0.01395 0.86108 0.46871 0.0
H1306 H 0.05817 0.88591 0.46418 0.0
H1307 H 0.08524 0.88106 0.51362 0.0
H1308 H 0.90158 0.22345 0.51033 0.0
H1309 H 0.90911 0.25087 0.55758 0.0
H1310 H 0.84152 0.27262 0.55205 0.0
H1311 H 0.83399 0.24512 0.50473 0.0
H1312 H 0.90365 0.29664 0.56977 0.0
H1313 H 0.84794 0.24535 0.65504 0.0
H1314 H 0.85781 0.23653 0.61098 0.0
H1315 H 0.83543 0.25583 0.61408 0.0
C1316 C 0.8887 0.23495 0.5178 0.0
C1317 C 0.86732 0.23252 0.50372 0.0
C1318 C 0.89292 0.25038 0.54509 0.0
C1319 C 0.87571 0.26331 0.55887 0.0
C1320 C 0.85491 0.26251 0.54206 0.0
H1321 H 0.86005 0.35378 0.73404 0.0
H1322 H 0.85525 0.32675 0.68528 0.0
C1323 C 0.85072 0.24714 0.51459 0.0
C1324 C 0.8789 0.27559 0.59327 0.0
H1325 H 0.8614 0.27817 0.68177 0.0
C1326 C 0.89451 0.29259 0.59432 0.0
C1327 C 0.8672 0.26989 0.62539 0.0
C1328 C 0.85131 0.25077 0.62658 0.0
C1329 C 0.89813 0.30466 0.6264 0.0
C1330 C 0.88598 0.29932 0.65816 0.0
C1331 C 0.87067 0.2821 0.6573 0.0
C1332 C 0.88772 0.3126 0.6917 0.0
C1333 C 0.91443 0.32344 0.62588 0.0
C1334 C 0.90707 0.31253 0.71275 0.0
C1335 C 0.90965 0.32765 0.74118 0.0
C1336 C 0.89299 0.34308 0.74839 0.0
C1337 C 0.87297 0.34183 0.72923 0.0
C1338 C 0.87032 0.3266 0.70117 0.0
H1339 H 0.92032 0.32723 0.59785 0.0
H1340 H 0.90688 0.33849 0.63761 0.0
H1341 H 0.92892 0.31908 0.64296 0.0
H1342 H 0.92056 0.30162 0.70592 0.0
H1343 H 0.9254 0.3286 0.75508 0.0
H1344 H 0.60801 0.87366 0.02394 0.0
H1345 H 0.58212 0.88507 0.07192 0.0
H1346 H 0.55337 0.82012 0.07188 0.0
H1347 H 0.5792 0.80875 0.02414 0.0
H1348 H 0.53268 0.88177 0.07947 0.0
H1349 H 0.58086 0.8301 0.17643 0.0
H1350 H 0.59158 0.83867 0.13266 0.0
H1351 H 0.5719 0.81664 0.13533 0.0
C1352 C 0.59546 0.86222 0.0331 0.0
C1353 C 0.59503 0.84057 0.01989 0.0
C1354 C 0.5809 0.86864 0.06068 0.0
C1355 C 0.56608 0.85332 0.07557 0.0
C1356 C 0.56478 0.83209 0.06076 0.0
H1357 H 0.47192 0.84731 0.24824 0.0
H1358 H 0.50065 0.83946 0.20332 0.0
C1359 C 0.57927 0.82572 0.0332 0.0
C1360 C 0.55327 0.85886 0.10853 0.0
H1361 H 0.54793 0.84597 0.19889 0.0
C1362 C 0.53608 0.87414 0.10568 0.0
C1363 C 0.55786 0.84879 0.14257 0.0
C1364 C 0.57665 0.83275 0.14722 0.0
C1365 C 0.52284 0.87915 0.13594 0.0
C1366 C 0.52734 0.86895 0.16995 0.0
C1367 C 0.5447 0.85386 0.17283 0.0
C1368 C 0.51328 0.87277 0.20223 0.0
C1369 C 0.50363 0.89467 0.13098 0.0
C1370 C 0.51185 0.89375 0.21803 0.0
C1371 C 0.49571 0.89812 0.24425 0.0
C1372 C 0.48104 0.8815 0.2551 0.0
C1373 C 0.48365 0.86012 0.24138 0.0
C1374 C 0.4998 0.85573 0.21528 0.0
H1375 H 0.50001 0.89788 0.1017 0.0
H1376 H 0.48859 0.88788 0.14411 0.0
H1377 H 0.5075 0.91063 0.14421 0.0
H1378 H 0.52229 0.90703 0.20848 0.0
H1379 H 0.49346 0.91488 0.25359 0.0
H1380 H 0.35991 0.34666 0.76392 0.0
H1381 H 0.35287 0.31958 0.81255 0.0
H1382 H 0.42285 0.31051 0.82666 0.0
H1383 H 0.42991 0.33696 0.7773 0.0
H1384 H 0.37521 0.27131 0.82276 0.0
H1385 H 0.39066 0.3363 0.92703 0.0
H1386 H 0.38193 0.34295 0.88112 0.0
H1387 H 0.40953 0.33368 0.88927 0.0
C1388 C 0.37368 0.33815 0.77642 0.0
C1389 C 0.39538 0.34334 0.76643 0.0
C1390 C 0.36969 0.32296 0.80435 0.0
C1391 C 0.38739 0.31333 0.82318 0.0
C1392 C 0.40905 0.31779 0.81223 0.0
H1393 H 0.38887 0.22547 0.01128 0.0
H1394 H 0.39952 0.25408 0.96721 0.0
C1395 C 0.41303 0.3326 0.78378 0.0
C1396 C 0.38317 0.29953 0.85553 0.0
H1397 H 0.38114 0.30095 0.94872 0.0
C1398 C 0.37656 0.27771 0.85031 0.0
C1399 C 0.38512 0.30807 0.89128 0.0
C1400 C 0.39212 0.33156 0.89785 0.0
C1401 C 0.37161 0.26411 0.88013 0.0
C1402 C 0.37295 0.27279 0.91588 0.0
C1403 C 0.38003 0.2945 0.92119 0.0
C1404 C 0.36629 0.25948 0.94771 0.0
C1405 C 0.365 0.24052 0.8733 0.0
C1406 C 0.34402 0.25403 0.95241 0.0
C1407 C 0.33796 0.23793 0.97764 0.0
C1408 C 0.35406 0.22733 0.99883 0.0
C1409 C 0.37613 0.23406 0.99622 0.0
C1410 C 0.38224 0.25013 0.97075 0.0
H1411 H 0.36867 0.23529 0.8449 0.0
H1412 H 0.37367 0.22931 0.89254 0.0
H1413 H 0.34702 0.23868 0.87794 0.0
H1414 H 0.33153 0.26118 0.93485 0.0
H1415 H 0.32091 0.23265 0.9788 0.0
H1416 H 0.03276 0.10146 0.71335 0.0
H1417 H 0.0101 0.1162 0.6651 0.0
H1418 H 0.95744 0.12729 0.74189 0.0
H1419 H 0.98129 0.11372 0.79208 0.0
H1420 H 0.9712 0.09332 0.6501 0.0
H1421 H 0.95695 0.1829 0.67232 0.0
H1422 H 0.98066 0.16869 0.69076 0.0
H1423 H 0.95409 0.16487 0.71117 0.0
C1424 C 0.01676 0.10787 0.7206 0.0
C1425 C 0.00888 0.10661 0.75664 0.0
C1426 C 0.00373 0.11616 0.69275 0.0
C1427 C 0.98216 0.12283 0.69988 0.0
C1428 C 0.97425 0.12247 0.73604 0.0
H1429 H 0.87021 0.12858 0.56626 0.0
H1430 H 0.89887 0.12371 0.61139 0.0
C1431 C 0.98772 0.11458 0.76454 0.0
C1432 C 0.96753 0.12685 0.66833 0.0
H1433 H 0.93773 0.16606 0.62332 0.0
C1434 C 0.96398 0.10927 0.64415 0.0
C1435 C 0.95849 0.14773 0.66046 0.0
C1436 C 0.96276 0.16726 0.6848 0.0
C1437 C 0.95118 0.11189 0.61267 0.0
C1438 C 0.94167 0.13257 0.60529 0.0
C1439 C 0.94542 0.1503 0.62904 0.0
C1440 C 0.92511 0.13499 0.57626 0.0
C1441 C 0.94734 0.09247 0.58786 0.0
C1442 C 0.93063 0.14254 0.54116 0.0
C1443 C 0.91408 0.14565 0.51483 0.0
C1444 C 0.89201 0.14095 0.52345 0.0
C1445 C 0.88699 0.13232 0.55829 0.0
C1446 C 0.90332 0.12963 0.58443 0.0
H1447 H 0.95756 0.07802 0.59561 0.0
H1448 H 0.92971 0.08763 0.58899 0.0
H1449 H 0.95111 0.0971 0.55918 0.0
H1450 H 0.94757 0.14644 0.53449 0.0
H1451 H 0.91841 0.1523 0.48834 0.0
H1452 H 0.16511 0.77062 0.46417 0.0
H1453 H 0.15646 0.7409 0.42191 0.0
H1454 H 0.09823 0.72524 0.48443 0.0
H1455 H 0.10681 0.75554 0.5268 0.0
H1456 H 0.14859 0.69644 0.42516 0.0
H1457 H 0.07336 0.74306 0.38495 0.0
H1458 H 0.09417 0.7546 0.41444 0.0
H1459 H 0.07488 0.73479 0.432 0.0
C1460 C 0.15086 0.76034 0.46954 0.0
C1461 C 0.13661 0.76517 0.49853 0.0
C1462 C 0.14589 0.74344 0.44536 0.0
C1463 C 0.12646 0.73124 0.4496 0.0
C1464 C 0.1131 0.7348 0.4804 0.0
H1465 H 0.06477 0.64177 0.29848 0.0
H1466 H 0.07287 0.66811 0.34684 0.0
C1467 C 0.11814 0.75181 0.50482 0.0
C1468 C 0.11955 0.7165 0.41965 0.0
H1469 H 0.08138 0.71105 0.35173 0.0
C1470 C 0.13382 0.69949 0.40922 0.0
C1471 C 0.10039 0.72076 0.39873 0.0
C1472 C 0.08486 0.73939 0.40779 0.0
C1473 C 0.12944 0.68652 0.37844 0.0
C1474 C 0.11048 0.69104 0.35711 0.0
C1475 C 0.09603 0.70783 0.3679 0.0
C1476 C 0.1046 0.67763 0.32486 0.0
C1477 C 0.14496 0.66787 0.36953 0.0
C1478 C 0.11928 0.67502 0.29546 0.0
C1479 C 0.11478 0.65966 0.26799 0.0
C1480 C 0.09522 0.64746 0.26912 0.0
C1481 C 0.07976 0.65146 0.29678 0.0
C1482 C 0.08445 0.66634 0.32453 0.0
H1483 H 0.15539 0.6633 0.39333 0.0
H1484 H 0.13573 0.65306 0.3605 0.0
H1485 H 0.15609 0.67304 0.34708 0.0
H1486 H 0.13465 0.68408 0.29469 0.0
H1487 H 0.12701 0.65649 0.24714 0.0
H1488 H 0.89551 0.60812 0.50086 0.0
H1489 H 0.92248 0.60132 0.45254 0.0
H1490 H 0.93692 0.67087 0.44789 0.0
H1491 H 0.911 0.67738 0.49766 0.0
H1492 H 0.91588 0.61669 0.38627 0.0
H1493 H -0.00279 0.64717 0.43357 0.0
H1494 H 0.97462 0.64244 0.46459 0.0
H1495 H 0.97582 0.66733 0.43788 0.0
C1496 C 0.90548 0.62168 0.49096 0.0
C1497 C 0.90166 0.64315 0.50342 0.0
C1498 C 0.92059 0.61789 0.46297 0.0
C1499 C 0.93176 0.63557 0.44649 0.0
C1500 C 0.929 0.65687 0.46067 0.0
H1501 H 0.01476 0.64046 0.25255 0.0
H1502 H 0.98547 0.65099 0.29532 0.0
C1503 C 0.91428 0.66058 0.48933 0.0
C1504 C 0.944 0.63203 0.41193 0.0
H1505 H 0.99366 0.63973 0.3702 0.0
C1506 C 0.93293 0.62166 0.38287 0.0
C1507 C 0.96611 0.63885 0.4072 0.0
C1508 C 0.97919 0.64938 0.43758 0.0
C1509 C 0.9435 0.61756 0.34953 0.0
C1510 C 0.96565 0.62405 0.34512 0.0
C1511 C 0.97654 0.63498 0.37366 0.0
C1512 C 0.97875 0.61761 0.31288 0.0
C1513 C 0.93095 0.60625 0.31933 0.0
C1514 C 0.98393 0.59533 0.30762 0.0
C1515 C 0.0006 0.58937 0.28339 0.0
C1516 C 0.01207 0.60558 0.26385 0.0
C1517 C 0.00564 0.62769 0.26672 0.0
C1518 C 0.98912 0.6337 0.29132 0.0
H1519 H 0.91285 0.60765 0.32318 0.0
H1520 H 0.93539 0.61326 0.29229 0.0
H1521 H 0.93527 0.5885 0.31921 0.0
H1522 H 0.97642 0.58272 0.32448 0.0
H1523 H 0.00575 0.57231 0.28214 0.0
H1524 H 0.0531 0.14601 0.70845 0.0
H1525 H 0.06574 0.17304 0.66383 0.0
H1526 H 0.12936 0.17511 0.71652 0.0
H1527 H 0.11661 0.14776 0.76171 0.0
H1528 H 0.08341 0.21583 0.6721 0.0
H1529 H 0.14227 0.15691 0.60889 0.0
H1530 H 0.12106 0.14822 0.64031 0.0
H1531 H 0.1454 0.16165 0.65709 0.0
C1532 C 0.06966 0.15254 0.7109 0.0
C1533 C 0.08395 0.14491 0.7383 0.0
C1534 C 0.07686 0.16791 0.68541 0.0
C1535 C 0.09854 0.17574 0.68659 0.0
C1536 C 0.11263 0.16897 0.71501 0.0
H1537 H 0.16728 0.26386 0.54271 0.0
H1538 H 0.15723 0.23481 0.58593 0.0
C1539 C 0.1053 0.15364 0.74095 0.0
C1540 C 0.10624 0.19036 0.657 0.0
H1541 H 0.13974 0.19219 0.58225 0.0
C1542 C 0.09578 0.21075 0.65249 0.0
C1543 C 0.12221 0.18346 0.63138 0.0
C1544 C 0.13333 0.16131 0.63431 0.0
C1545 C 0.10101 0.22462 0.62313 0.0
C1546 C 0.11681 0.21763 0.59722 0.0
C1547 C 0.12744 0.19732 0.60194 0.0
C1548 C 0.12364 0.23197 0.5666 0.0
C1549 C 0.08987 0.24679 0.62052 0.0
C1550 C 0.10841 0.23904 0.54009 0.0
C1551 C 0.11425 0.25547 0.51505 0.0
C1552 C 0.13539 0.26479 0.51627 0.0
C1553 C 0.15104 0.25651 0.54093 0.0
C1554 C 0.14525 0.24009 0.56576 0.0
H1555 H 0.08196 0.25155 0.64669 0.0
H1556 H 0.10185 0.25979 0.61272 0.0
H1557 H 0.07685 0.24614 0.59924 0.0
H1558 H 0.09172 0.23271 0.54006 0.0
H1559 H 0.10181 0.26207 0.49683 0.0
H1560 H 0.48743 0.34973 0.73774 0.0
H1561 H 0.51585 0.33989 0.78305 0.0
H1562 H 0.51013 0.40436 0.83113 0.0
H1563 H 0.48216 0.41422 0.786 0.0
H1564 H 0.55853 0.37291 0.81685 0.0
H1565 H 0.48722 0.34578 0.90172 0.0
H1566 H 0.48674 0.3444 0.85245 0.0
H1567 H 0.48436 0.3705 0.87479 0.0
C1568 C 0.49327 0.36212 0.75665 0.0
C1569 C 0.48315 0.38286 0.75807 0.0
C1570 C 0.50917 0.35642 0.78277 0.0
C1571 C 0.51481 0.37142 0.81035 0.0
C1572 C 0.50601 0.39269 0.80983 0.0
H1573 H 0.58872 0.38105 0.00934 0.0
H1574 H 0.56218 0.38606 0.95898 0.0
C1575 C 0.49029 0.39838 0.78382 0.0
C1576 C 0.52775 0.36446 0.8423 0.0
H1577 H 0.52189 0.34811 0.93104 0.0
C1578 C 0.55064 0.36722 0.8417 0.0
C1579 C 0.51718 0.35723 0.87458 0.0
C1580 C 0.49252 0.35417 0.87619 0.0
C1581 C 0.5633 0.3633 0.8731 0.0
C1582 C 0.55267 0.35658 0.90558 0.0
C1583 C 0.52983 0.35339 0.90599 0.0
C1584 C 0.56528 0.35266 0.93927 0.0
C1585 C 0.58793 0.36657 0.87167 0.0
C1586 C 0.57475 0.33199 0.94545 0.0
C1587 C 0.58923 0.32898 0.97458 0.0
C1588 C 0.59465 0.34671 0.99747 0.0
C1589 C 0.58437 0.36713 0.99235 0.0
C1590 C 0.56947 0.37001 0.96356 0.0
H1591 H 0.5935 0.37306 0.84484 0.0
H1592 H 0.59317 0.37817 0.89339 0.0
H1593 H 0.59629 0.35061 0.87691 0.0
H1594 H 0.57181 0.31854 0.92668 0.0
H1595 H 0.59749 0.31326 0.9775 0.0
H1596 H 0.39736 0.72391 0.0112 0.0
H1597 H 0.40619 0.75215 0.05641 0.0
H1598 H 0.33778 0.77131 0.05967 0.0
H1599 H 0.32896 0.74302 0.01423 0.0
H1600 H 0.3968 0.79998 0.0674 0.0
H1601 H 0.35367 0.74254 0.16181 0.0
H1602 H 0.36285 0.73446 0.11694 0.0
H1603 H 0.33826 0.7506 0.122 0.0
C1604 C 0.3845 0.73505 0.01995 0.0
C1605 C 0.3626 0.73175 0.00887 0.0
C1606 C 0.38949 0.75096 0.04608 0.0
C1607 C 0.37255 0.76346 0.06162 0.0
C1608 C 0.351 0.76165 0.04796 0.0
H1609 H 0.35956 0.85569 0.23404 0.0
H1610 H 0.35411 0.82785 0.18653 0.0
C1611 C 0.34603 0.74578 0.0217 0.0
C1612 C 0.37681 0.77601 0.09525 0.0
H1613 H 0.36519 0.77666 0.18643 0.0
C1614 C 0.39 0.79491 0.09346 0.0
C1615 C 0.36823 0.76893 0.12923 0.0
C1616 C 0.35512 0.74792 0.1329 0.0
C1617 C 0.39409 0.8075 0.12479 0.0
C1618 C 0.38485 0.8008 0.15846 0.0
C1619 C 0.37214 0.78164 0.16042 0.0
C1620 C 0.38701 0.81445 0.19134 0.0
C1621 C 0.40775 0.82818 0.1217 0.0
C1622 C 0.40689 0.81509 0.21084 0.0
C1623 C 0.40981 0.83054 0.23859 0.0
C1624 C 0.39296 0.84566 0.24654 0.0
C1625 C 0.3726 0.84395 0.22862 0.0
C1626 C 0.36957 0.82826 0.20137 0.0
H1627 H 0.41213 0.83208 0.09295 0.0
H1628 H 0.39866 0.84235 0.13344 0.0
H1629 H 0.4232 0.82614 0.13761 0.0
H1630 H 0.42047 0.80447 0.20327 0.0
H1631 H 0.42584 0.83196 0.25146 0.0
H1632 H 0.08792 0.38201 0.50489 0.0
H1633 H 0.06013 0.38708 0.55317 0.0
H1634 H 0.06878 0.31952 0.58665 0.0
H1635 H 0.09578 0.31421 0.53787 0.0
H1636 H 0.0188 0.35406 0.57924 0.0
H1637 H 0.09125 0.36917 0.66962 0.0
H1638 H 0.09249 0.37326 0.62081 0.0
H1639 H 0.09213 0.34589 0.6392 0.0
C1640 C 0.08311 0.36811 0.52166 0.0
C1641 C 0.09356 0.3477 0.51764 0.0
C1642 C 0.06743 0.37099 0.54919 0.0
C1643 C 0.06264 0.35366 0.57331 0.0
C1644 C 0.07219 0.33295 0.56797 0.0
H1645 H 0.98145 0.34784 0.76867 0.0
H1646 H 0.00935 0.33848 0.72265 0.0
C1647 C 0.08745 0.32994 0.54007 0.0
C1648 C 0.04991 0.35783 0.6067 0.0
H1649 H 0.05617 0.3697 0.69719 0.0
C1650 C 0.02687 0.35741 0.60508 0.0
C1651 C 0.06071 0.36215 0.64016 0.0
C1652 C 0.08552 0.36278 0.64284 0.0
C1653 C 0.01424 0.36135 0.63642 0.0
C1654 C 0.02507 0.36585 0.66981 0.0
C1655 C 0.04809 0.36609 0.67146 0.0
C1656 C 0.01252 0.37184 0.70259 0.0
C1657 C 0.98942 0.36107 0.63374 0.0
C1658 C 0.00636 0.39382 0.70766 0.0
C1659 C 0.99095 0.3992 0.73432 0.0
C1660 C 0.98153 0.38265 0.75606 0.0
C1661 C 0.98914 0.36093 0.7531 0.0
C1662 C 0.0047 0.35554 0.72645 0.0
H1663 H 0.98358 0.35577 0.60637 0.0
H1664 H 0.98246 0.3498 0.65467 0.0
H1665 H 0.98292 0.37781 0.6393 0.0
H1666 H 0.01221 0.40652 0.68923 0.0
H1667 H 0.98471 0.41591 0.7354 0.0
H1668 H 0.92824 0.83434 0.26926 0.0
H1669 H 0.92382 0.80785 0.3194 0.0
H1670 H 0.85341 0.81732 0.31598 0.0
H1671 H 0.85779 0.84423 0.26657 0.0
H1672 H 0.89989 0.82266 0.38878 0.0
H1673 H 0.86567 0.7482 0.32125 0.0
H1674 H 0.88237 0.76822 0.29736 0.0
H1675 H 0.85398 0.77408 0.30706 0.0
C1676 C 0.91176 0.82998 0.27812 0.0
C1677 C 0.89325 0.84093 0.26377 0.0
C1678 C 0.90932 0.81516 0.30707 0.0
C1679 C 0.88832 0.8108 0.32124 0.0
C1680 C 0.86972 0.82048 0.30514 0.0
H1681 H 0.82524 0.73806 0.48874 0.0
H1682 H 0.83557 0.76741 0.44607 0.0
C1683 C 0.87218 0.8356 0.27674 0.0
C1684 C 0.8857 0.79751 0.35461 0.0
H1685 H 0.86261 0.75 0.38574 0.0
C1686 C 0.89201 0.80663 0.38827 0.0
C1687 C 0.87538 0.77674 0.35354 0.0
C1688 C 0.86908 0.76606 0.31788 0.0
C1689 C 0.88747 0.79567 0.42122 0.0
C1690 C 0.87648 0.77523 0.42008 0.0
C1691 C 0.87078 0.76589 0.38636 0.0
C1692 C 0.87067 0.76281 0.45327 0.0
C1693 C 0.89373 0.80618 0.45702 0.0
C1694 C 0.88705 0.75135 0.47253 0.0
C1695 C 0.88114 0.73474 0.49706 0.0
C1696 C 0.85885 0.72956 0.50248 0.0
C1697 C 0.8425 0.74222 0.48545 0.0
C1698 C 0.84839 0.75885 0.46106 0.0
H1699 H 0.8999 0.82327 0.45338 0.0
H1700 H 0.87931 0.80642 0.47567 0.0
H1701 H 0.90684 0.79626 0.47037 0.0
H1702 H 0.90431 0.75386 0.46619 0.0
H1703 H 0.89395 0.72452 0.50878 0.0
H1704 H 0.40005 0.61125 0.01036 0.0
H1705 H 0.42715 0.60493 0.0593 0.0
H1706 H 0.42961 0.67473 0.08013 0.0
H1707 H 0.40324 0.68112 0.03053 0.0
H1708 H 0.4733 0.63101 0.07725 0.0
H1709 H 0.4024 0.63616 0.17356 0.0
H1710 H 0.39887 0.62888 0.12613 0.0
H1711 H 0.40466 0.65685 0.13838 0.0
C1712 C 0.4073 0.62524 0.02422 0.0
C1713 C 0.40021 0.64667 0.01616 0.0
C1714 C 0.4225 0.62164 0.05232 0.0
C1715 C 0.43021 0.6394 0.07317 0.0
C1716 C 0.42397 0.6609 0.06397 0.0
H1717 H 0.51326 0.6377 0.26986 0.0
H1718 H 0.48947 0.65122 0.22029 0.0
C1719 C 0.40918 0.66454 0.03541 0.0
C1720 C 0.44299 0.63533 0.10672 0.0
H1721 H 0.43748 0.63031 0.19913 0.0
C1722 C 0.46559 0.63102 0.10395 0.0
C1723 C 0.43268 0.63531 0.14133 0.0
C1724 C 0.40829 0.63943 0.14534 0.0
C1725 C 0.4782 0.62646 0.1352 0.0
C1726 C 0.46781 0.62619 0.16975 0.0
C1727 C 0.4453 0.63082 0.17253 0.0
C1728 C 0.47957 0.61872 0.2027 0.0
C1729 C 0.50241 0.62141 0.13118 0.0
C1730 C 0.48062 0.59617 0.21023 0.0
C1731 C 0.49366 0.58847 0.23883 0.0
C1732 C 0.50612 0.60321 0.26005 0.0
C1733 C 0.50354 0.62598 0.25444 0.0
C1734 C 0.49033 0.63371 0.22573 0.0
H1735 H 0.50842 0.6245 0.10297 0.0
H1736 H 0.51218 0.63156 0.1505 0.0
H1737 H 0.50538 0.60386 0.1381 0.0
H1738 H 0.47225 0.58445 0.19277 0.0
H1739 H 0.49555 0.57084 0.24226 0.0
H1740 H 0.6674 0.26549 0.97293 0.0
H1741 H 0.65855 0.23637 0.92961 0.0
H1742 H 0.59497 0.22787 0.98054 0.0
H1743 H 0.60376 0.25764 0.02376 0.0
H1744 H 0.64604 0.19329 0.93217 0.0
H1745 H 0.57907 0.24628 0.87662 0.0
H1746 H 0.59883 0.2562 0.90955 0.0
H1747 H 0.57638 0.23893 0.92392 0.0
C1748 C 0.65188 0.25678 0.97571 0.0
C1749 C 0.6363 0.26347 1.00164 0.0
C1750 C 0.64678 0.24031 0.95084 0.0
C1751 C 0.62594 0.23037 0.95139 0.0
C1752 C 0.61099 0.23571 0.97933 0.0
H1753 H 0.56528 0.14154 0.79963 0.0
H1754 H 0.57325 0.16876 0.84673 0.0
C1755 C 0.61612 0.25234 1.00435 0.0
C1756 C 0.61962 0.21592 0.92075 0.0
H1757 H 0.58514 0.21238 0.84729 0.0
C1758 C 0.63267 0.19738 0.91366 0.0
C1759 C 0.60235 0.22156 0.89646 0.0
C1760 C 0.58843 0.24192 0.9017 0.0
C1761 C 0.62881 0.18412 0.88307 0.0
C1762 C 0.61164 0.18984 0.85867 0.0
C1763 C 0.59844 0.20825 0.86592 0.0
C1764 C 0.60609 0.17593 0.82697 0.0
C1765 C 0.64284 0.16388 0.8776 0.0
C1766 C 0.62161 0.17167 0.79937 0.0
C1767 C 0.61715 0.15588 0.77259 0.0
C1768 C 0.59691 0.14482 0.7728 0.0
C1769 C 0.58085 0.15029 0.79875 0.0
C1770 C 0.58542 0.1657 0.82571 0.0
H1771 H 0.65206 0.15935 0.90275 0.0
H1772 H 0.63256 0.14964 0.86919 0.0
H1773 H 0.65505 0.16712 0.8557 0.0
H1774 H 0.63749 0.17983 0.79952 0.0
H1775 H 0.62976 0.1516 0.75295 0.0
H1776 H 0.33218 0.23186 0.19292 0.0
H1777 H 0.30364 0.24778 0.23028 0.0
H1778 H 0.25463 0.20907 0.17392 0.0
H1779 H 0.28395 0.19177 0.13708 0.0
H1780 H 0.26974 0.27185 0.21942 0.0
H1781 H 0.2412 0.19212 0.27715 0.0
H1782 H 0.26536 0.19416 0.24871 0.0
H1783 H 0.2383 0.19439 0.22854 0.0
C1784 C 0.31533 0.22666 0.18816 0.0
C1785 C 0.31043 0.21017 0.16245 0.0
C1786 C 0.29894 0.23592 0.20961 0.0
C1787 C 0.27698 0.2293 0.20578 0.0
C1788 C 0.27159 0.21397 0.17824 0.0
H1789 H 0.15968 0.26944 0.31196 0.0
H1790 H 0.18898 0.25291 0.277 0.0
C1791 C 0.28826 0.20435 0.15675 0.0
C1792 C 0.26039 0.23841 0.23168 0.0
H1793 H 0.22283 0.22418 0.29713 0.0
C1794 C 0.25954 0.26138 0.23648 0.0
C1795 C 0.24727 0.22479 0.2544 0.0
C1796 C 0.24816 0.2 0.25229 0.0
C1797 C 0.24585 0.27108 0.26282 0.0
C1798 C 0.23251 0.25749 0.28502 0.0
C1799 C 0.23331 0.23455 0.28036 0.0
C1800 C 0.21531 0.26683 0.3093 0.0
C1801 C 0.24528 0.29584 0.266 0.0
C1802 C 0.22032 0.27994 0.33994 0.0
C1803 C 0.2033 0.28975 0.3604 0.0
C1804 C 0.18116 0.2866 0.35018 0.0
C1805 C 0.17649 0.27267 0.32041 0.0
C1806 C 0.19327 0.26299 0.30035 0.0
H1807 H 0.2545 0.30407 0.24361 0.0
H1808 H 0.228 0.30184 0.2657 0.0
H1809 H 0.25281 0.3008 0.29236 0.0
H1810 H 0.2373 0.28282 0.34767 0.0
H1811 H 0.20744 0.30023 0.38329 0.0
H1812 H 0.51548 0.55211 0.37597 0.0
H1813 H 0.49681 0.52314 0.41174 0.0
H1814 H 0.54414 0.53163 0.49851 0.0
H1815 H 0.56233 0.56068 0.4636 0.0
H1816 H 0.51168 0.48269 0.44698 0.0
H1817 H 0.48449 0.54551 0.54712 0.0
H1818 H 0.49464 0.55262 0.5023 0.0
H1819 H 0.51359 0.54555 0.53821 0.0
C1820 C 0.52205 0.54744 0.40239 0.0
C1821 C 0.54009 0.55881 0.41736 0.0
C1822 C 0.51137 0.531 0.42282 0.0
C1823 C 0.51877 0.52569 0.45819 0.0
C1824 C 0.5378 0.53589 0.47175 0.0
H1825 H 0.47609 0.44009 0.63639 0.0
H1826 H 0.49444 0.46845 0.59889 0.0
C1827 C 0.54822 0.55241 0.45171 0.0
C1828 C 0.50614 0.51048 0.48207 0.0
H1829 H 0.47878 0.50812 0.56359 0.0
C1830 C 0.50434 0.48825 0.47232 0.0
C1831 C 0.49664 0.51778 0.51522 0.0
C1832 C 0.49722 0.5417 0.52629 0.0
C1833 C 0.49371 0.47301 0.4953 0.0
C1834 C 0.48434 0.48031 0.52858 0.0
C1835 C 0.48608 0.50255 0.53822 0.0
C1836 C 0.47211 0.46511 0.55306 0.0
C1837 C 0.49305 0.4491 0.4842 0.0
C1838 C 0.45296 0.45469 0.54042 0.0
C1839 C 0.44266 0.43857 0.56154 0.0
C1840 C 0.45103 0.43282 0.59603 0.0
C1841 C 0.46925 0.44437 0.60998 0.0
C1842 C 0.47978 0.46041 0.5885 0.0
H1843 H 0.5054 0.44534 0.46274 0.0
H1844 H 0.4961 0.43821 0.50807 0.0
H1845 H 0.47648 0.44518 0.47312 0.0
H1846 H 0.4464 0.45851 0.51362 0.0
H1847 H 0.42851 0.43002 0.55036 0.0
H1848 H 0.18402 0.81445 0.70789 0.0
H1849 H 0.21147 0.79638 0.7464 0.0
H1850 H 0.22209 0.74766 0.66279 0.0
H1851 H 0.19439 0.76593 0.62383 0.0
H1852 H 0.20446 0.75159 0.76877 0.0
H1853 H 0.28525 0.76446 0.70019 0.0
H1854 H 0.26176 0.78205 0.69192 0.0
H1855 H 0.2629 0.7552 0.67171 0.0
C1856 C 0.19283 0.80035 0.69717 0.0
C1857 C 0.18732 0.79165 0.66283 0.0
C1858 C 0.20834 0.78995 0.71931 0.0
C1859 C 0.21871 0.77066 0.70755 0.0
C1860 C 0.21438 0.76269 0.67219 0.0
H1861 H 0.30535 0.67784 0.81067 0.0
H1862 H 0.2768 0.69543 0.77373 0.0
C1863 C 0.19874 0.77319 0.64984 0.0
C1864 C 0.23231 0.75796 0.73381 0.0
H1865 H 0.28474 0.74072 0.75139 0.0
C1866 C 0.22204 0.74923 0.76507 0.0
C1867 C 0.25517 0.75501 0.72889 0.0
C1868 C 0.26707 0.76477 0.69655 0.0
C1869 C 0.23405 0.73734 0.79134 0.0
C1870 C 0.2569 0.73432 0.7863 0.0
C1871 C 0.26716 0.74309 0.7551 0.0
C1872 C 0.27057 0.72156 0.81233 0.0
C1873 C 0.22226 0.72768 0.82386 0.0
C1874 C 0.27579 0.72989 0.84711 0.0
C1875 C 0.29205 0.71967 0.86855 0.0
C1876 C 0.30325 0.70118 0.85515 0.0
C1877 C 0.2968 0.69203 0.82161 0.0
C1878 C 0.28062 0.70212 0.80041 0.0
H1879 H 0.20405 0.72875 0.82104 0.0
H1880 H 0.22697 0.71015 0.82762 0.0
H1881 H 0.22722 0.73671 0.84886 0.0
H1882 H 0.26834 0.74503 0.85659 0.0
H1883 H 0.29706 0.7272 0.89403 0.0
H1884 H 0.0038 0.55818 0.1313 0.0
H1885 H 0.98644 0.53011 0.09257 0.0
H1886 H 0.04882 0.51865 0.03945 0.0
H1887 H 0.06613 0.54633 0.07865 0.0
H1888 H 0.98373 0.53428 0.01852 0.0
H1889 H 0.02668 0.45635 0.05267 0.0
H1890 H 0.02765 0.48019 0.08197 0.0
H1891 H 0.04514 0.47861 0.04244 0.0
C1892 C 0.01393 0.54887 0.11251 0.0
C1893 C 0.03637 0.55384 0.10854 0.0
C1894 C 0.00399 0.53307 0.09009 0.0
C1895 C 0.01634 0.5221 0.06325 0.0
C1896 C 0.03903 0.52644 0.06048 0.0
H1897 H 0.98247 0.43498 0.88209 0.0
H1898 H 0.00038 0.4634 0.9197 0.0
C1899 C 0.04896 0.54217 0.08297 0.0
C1900 C 0.00516 0.50794 0.0358 0.0
H1901 H 0.00529 0.45654 0.99812 0.0
C1902 C 0.98835 0.51723 0.01425 0.0
C1903 C 0.01132 0.48576 0.02995 0.0
C1904 C 0.02854 0.47455 0.0532 0.0
C1905 C 0.97768 0.505 0.9869 0.0
C1906 C 0.98387 0.48287 0.98106 0.0
C1907 C 0.00074 0.4736 1.0024 0.0
C1908 C 0.97212 0.46851 0.95467 0.0
C1909 C 0.96003 0.51589 0.96413 0.0
C1910 C 0.95019 0.46237 0.96136 0.0
C1911 C 0.94007 0.44618 0.94008 0.0
C1912 C 0.95159 0.43606 0.91145 0.0
C1913 C 0.97312 0.44298 0.90346 0.0
C1914 C 0.98338 0.45903 0.9251 0.0
H1915 H 0.96077 0.53413 0.96609 0.0
H1916 H 0.96157 0.51107 0.93501 0.0
H1917 H 0.9436 0.51045 0.97392 0.0
H1918 H 0.94132 0.46918 0.98437 0.0
H1919 H 0.92362 0.44071 0.9472 0.0
H1920 H 0.65954 0.7572 0.82564 0.0
H1921 H 0.68808 0.74068 0.78811 0.0
H1922 H 0.73658 0.78358 0.83659 0.0
H1923 H 0.70761 0.80045 0.87475 0.0
H1924 H 0.71213 0.76662 0.73726 0.0
H1925 H 0.76602 0.72109 0.83451 0.0
H1926 H 0.73817 0.72909 0.84576 0.0
H1927 H 0.7598 0.74923 0.84586 0.0
C1928 C 0.67638 0.76279 0.82902 0.0
C1929 C 0.68137 0.78015 0.85294 0.0
C1930 C 0.69265 0.75338 0.80743 0.0
C1931 C 0.71438 0.76098 0.80932 0.0
C1932 C 0.71987 0.7774 0.8349 0.0
H1933 H 0.82876 0.73765 0.67939 0.0
H1934 H 0.79916 0.75279 0.71654 0.0
C1935 C 0.7034 0.78693 0.8568 0.0
C1936 C 0.73049 0.75276 0.78217 0.0
H1937 H 0.77726 0.72214 0.77265 0.0
C1938 C 0.72637 0.75685 0.74496 0.0
C1939 C 0.74888 0.7399 0.79231 0.0
C1940 C 0.75352 0.73435 0.83173 0.0
C1941 C 0.74037 0.74866 0.71766 0.0
C1942 C 0.75884 0.73595 0.72783 0.0
C1943 C 0.76294 0.73179 0.76499 0.0
C1944 C 0.7752 0.7283 0.70069 0.0
C1945 C 0.7357 0.75398 0.67818 0.0
C1946 C 0.77121 0.70995 0.67823 0.0
C1947 C 0.78823 0.7012 0.6566 0.0
C1948 C 0.80936 0.71072 0.65756 0.0
C1949 C 0.81266 0.72993 0.67822 0.0
C1950 C 0.79582 0.73857 0.6996 0.0
H1951 H 0.72152 0.76539 0.67496 0.0
H1952 H 0.75048 0.76153 0.6654 0.0
H1953 H 0.73203 0.73854 0.66318 0.0
H1954 H 0.75533 0.70179 0.67883 0.0
H1955 H 0.78531 0.68625 0.64127 0.0
H1956 H 0.7005 0.27795 0.12067 0.0
H1957 H 0.72977 0.25904 0.15579 0.0
H1958 H 0.70112 0.28228 0.25617 0.0
H1959 H 0.67251 0.30113 0.2221 0.0
H1960 H 0.7597 0.2788 0.21796 0.0
H1961 H 0.7027 0.21187 0.26103 0.0
H1962 H 0.69829 0.22808 0.22021 0.0
H1963 H 0.6922 0.2395 0.26421 0.0
C1964 C 0.70073 0.27926 0.15015 0.0
C1965 C 0.68397 0.29073 0.16857 0.0
C1966 C 0.71732 0.26839 0.17015 0.0
C1967 C 0.7172 0.26893 0.20857 0.0
C1968 C 0.70122 0.28133 0.22663 0.0
H1969 H 0.79562 0.21613 0.39008 0.0
H1970 H 0.76649 0.23435 0.35384 0.0
C1971 C 0.68487 0.2921 0.20695 0.0
C1972 C 0.73332 0.25643 0.23072 0.0
H1973 H 0.73709 0.21395 0.29185 0.0
C1974 C 0.75488 0.26448 0.23379 0.0
C1975 C 0.72676 0.23803 0.25188 0.0
C1976 C 0.70377 0.22869 0.24914 0.0
C1977 C 0.77004 0.25469 0.25785 0.0
C1978 C 0.7635 0.23627 0.27895 0.0
C1979 C 0.74194 0.22821 0.27588 0.0
C1980 C 0.7796 0.22409 0.30164 0.0
C1981 C 0.79292 0.26423 0.26098 0.0
C1982 C 0.79601 0.21187 0.28427 0.0
C1983 C 0.81246 0.20162 0.30459 0.0
C1984 C 0.81289 0.20326 0.34293 0.0
C1985 C 0.79578 0.21465 0.36061 0.0
C1986 C 0.7792 0.22506 0.34 0.0
H1987 H 0.79405 0.28087 0.24845 0.0
H1988 H 0.79798 0.26531 0.29008 0.0
H1989 H 0.80477 0.25327 0.24684 0.0
H1990 H 0.79635 0.21063 0.25476 0.0
H1991 H 0.82509 0.19263 0.29003 0.0
H1992 H 0.00465 0.06222 0.88823 0.0
H1993 H 0.98674 0.03352 0.92548 0.0
H1994 H 0.04806 0.0222 0.98225 0.0
H1995 H 0.06563 0.05126 0.94605 0.0
H1996 H 0.99449 0.98854 0.94222 0.0
H1997 H 0.00665 0.04174 0.06352 0.0
H1998 H 0.01082 0.05157 0.01753 0.0
H1999 H 0.03175 0.03543 0.0399 0.0
C2000 C 0.01432 0.05317 0.90812 0.0
C2001 C 0.03642 0.05882 0.91453 0.0
C2002 C 0.00412 0.03688 0.92941 0.0
C2003 C 0.01595 0.02612 0.95724 0.0
C2004 C 0.03849 0.03066 0.96155 0.0
H2005 H 0.98911 0.9306 0.12595 0.0
H2006 H 0.00486 0.95888 0.08563 0.0
C2007 C 0.04856 0.04709 0.94072 0.0
C2008 C 0.00452 0.01151 0.98371 0.0
H2009 H 0.99366 0.00549 0.07476 0.0
C2010 C 0.99415 0.9923 0.97115 0.0
C2011 C 0.00397 0.01653 0.02146 0.0
C2012 C 0.0137 0.03754 0.03644 0.0
C2013 C 0.98384 0.97764 0.99556 0.0
C2014 C 0.9837 0.98253 0.03334 0.0
C2015 C 0.99383 0.00182 0.04579 0.0
C2016 C 0.97371 0.96744 0.06055 0.0
C2017 C 0.97371 0.95674 0.98097 0.0
C2018 C 0.95087 0.96372 0.06098 0.0
C2019 C 0.94185 0.94793 0.08451 0.0
C2020 C 0.95554 0.93577 0.10796 0.0
C2021 C 0.97821 0.94026 0.10879 0.0
C2022 C 0.98721 0.95617 0.0855 0.0
H2023 H 0.97871 0.95346 0.95232 0.0
H2024 H 0.97849 0.94243 0.99817 0.0
H2025 H 0.95548 0.95816 0.98178 0.0
H2026 H 0.94016 0.97244 0.0422 0.0
H2027 H 0.92441 0.94424 0.08275 0.0
H2028 H 0.55615 0.03478 0.62233 0.0
H2029 H 0.54041 0.00541 0.58368 0.0
H2030 H 0.48953 0.04992 0.54738 0.0
H2031 H 0.50505 0.07898 0.58525 0.0
H2032 H 0.49429 0.98724 0.57634 0.0
H2033 H 0.52381 0.03152 0.45294 0.0
H2034 H 0.53483 0.03659 0.49798 0.0
H2035 H 0.5088 0.04826 0.48476 0.0
C2036 C 0.54127 0.03801 0.60684 0.0
C2037 C 0.53189 0.05917 0.60655 0.0
C2038 C 0.53241 0.02134 0.5846 0.0
C2039 C 0.51411 0.02572 0.56205 0.0
C2040 C 0.5039 0.04634 0.56397 0.0
H2041 H 0.4336 0.95707 0.40025 0.0
H2042 H 0.45072 0.98533 0.43958 0.0
C2043 C 0.51272 0.06288 0.58581 0.0
C2044 C 0.50604 0.00947 0.53495 0.0
H2045 H 0.4985 0.00223 0.44314 0.0
C2046 C 0.49538 0.99037 0.54724 0.0
C2047 C 0.5074 0.01369 0.49695 0.0
C2048 C 0.51949 0.03352 0.48221 0.0
C2049 C 0.48557 0.97564 0.52249 0.0
C2050 C 0.48663 0.98007 0.48453 0.0
C2051 C 0.49748 -0.00096 0.47224 0.0
C2052 C 0.47759 0.96442 0.4573 0.0
C2053 C 0.47374 0.95562 0.53707 0.0
C2054 C 0.48762 0.94384 0.45303 0.0
C2055 C 0.47803 0.92795 0.43072 0.0
C2056 C 0.45829 0.9323 0.41189 0.0
C2057 C 0.44897 0.95343 0.41408 0.0
C2058 C 0.45861 0.96944 0.43676 0.0
H2059 H 0.47069 0.95678 0.56692 0.0
H2060 H 0.45772 0.95335 0.52285 0.0
H2061 H 0.48392 0.94077 0.53198 0.0
H2062 H 0.50245 0.93978 0.46813 0.0
H2063 H 0.48554 0.91178 0.42947 0.0
loop_
_geom_bond_atom_site_label_1
_geom_bond_atom_site_label_2
_geom_bond_distance
_geom_bond_site_symmetry_2
_ccdc_geom_bond_type
O0 Mn1 2.163 . S
O0 C14 1.244 . S
Mn1 O0 2.163 . S
Mn1 O4 2.160 . S
Mn1 O5 2.221 . S
Mn1 O7 2.163 . S
Mn1 O9 2.160 . S
Mn1 O19 2.221 . S
O2 Mn3 2.087 . S
O2 C14 1.256 1_556 S
Mn3 O2 2.087 . S
Mn3 O10 2.089 . S
Mn3 O19 2.290 1_556 S
Mn3 O20 2.251 . S
O4 Mn1 2.160 . S
O4 C15 1.239 . S
O5 Mn1 2.221 . S
O5 Mn6 2.290 . S
O5 C16 1.278 . S
Mn6 O5 2.290 . S
Mn6 O8 2.089 . S
Mn6 O11 2.251 . S
Mn6 O12 2.087 . S
O7 Mn1 2.163 . S
O7 C17 1.244 . S
O8 Mn6 2.089 . S
O8 C15 1.256 . S
O9 Mn1 2.160 . S
O9 C18 1.239 1_554 S
O10 Mn3 2.089 . S
O10 C18 1.256 . S
O11 Mn6 2.251 . S
O11 C16 1.241 . S
O12 Mn6 2.087 . S
O12 C17 1.256 . S
C13 O19 1.278 . S
C13 O20 1.241 1_554 S
C14 O0 1.244 . S
C14 O2 1.256 1_554 S
C15 O4 1.239 . S
C15 O8 1.256 . S
C16 O5 1.278 . S
C16 O11 1.241 . S
C17 O7 1.244 . S
C17 O12 1.256 . S
C18 O9 1.239 1_556 S
C18 O10 1.256 . S
O19 Mn1 2.221 . S
O19 Mn3 2.290 1_554 S
O19 C13 1.278 . S
O20 Mn3 2.251 . S
O20 C13 1.241 1_556 S
O21 Mn22 2.163 . S
O21 C35 1.244 . S
Mn22 O21 2.163 . S
Mn22 O25 2.160 . S
Mn22 O26 2.221 . S
Mn22 O28 2.163 . S
Mn22 O30 2.160 . S
Mn22 O40 2.221 . S
O23 Mn24 2.087 . S
O23 C35 1.256 . S
Mn24 O23 2.087 . S
Mn24 O31 2.089 . S
Mn24 O40 2.290 . S
Mn24 O41 2.251 . S
O25 Mn22 2.160 . S
O25 C36 1.239 . S
O26 Mn22 2.221 . S
O26 Mn27 2.290 . S
O26 C37 1.278 . S
Mn27 O26 2.290 . S
Mn27 O29 2.089 . S
Mn27 O32 2.251 . S
Mn27 O33 2.087 . S
O28 Mn22 2.163 . S
O28 C38 1.244 . S
O29 Mn27 2.089 . S
O29 C36 1.256 . S
O30 Mn22 2.160 . S
O30 C39 1.239 . S
O31 Mn24 2.089 . S
O31 C39 1.256 . S
O32 Mn27 2.251 . S
O32 C37 1.241 . S
O33 Mn27 2.087 . S
O33 C38 1.256 . S
C34 O40 1.278 . S
C34 O41 1.241 . S
C35 O21 1.244 . S
C35 O23 1.256 . S
C36 O25 1.239 . S
C36 O29 1.256 . S
C37 O26 1.278 . S
C37 O32 1.241 . S
C38 O28 1.244 . S
C38 O33 1.256 . S
C39 O30 1.239 . S
C39 O31 1.256 . S
O40 Mn22 2.221 . S
O40 Mn24 2.290 . S
O40 C34 1.278 . S
O41 Mn24 2.251 . S
O41 C34 1.241 . S
O42 Mn43 2.163 . S
O42 C56 1.244 . S
Mn43 O42 2.163 . S
Mn43 O46 2.160 . S
Mn43 O47 2.221 . S
Mn43 O49 2.163 . S
Mn43 O51 2.160 . S
Mn43 O61 2.221 . S
O44 Mn45 2.087 . S
O44 C56 1.256 . S
Mn45 O44 2.087 . S
Mn45 O52 2.089 . S
Mn45 O61 2.290 . S
Mn45 O62 2.251 . S
O46 Mn43 2.160 . S
O46 C57 1.239 . S
O47 Mn43 2.221 . S
O47 Mn48 2.290 . S
O47 C58 1.278 . S
Mn48 O47 2.290 . S
Mn48 O50 2.089 . S
Mn48 O53 2.251 . S
Mn48 O54 2.087 . S
O49 Mn43 2.163 . S
O49 C59 1.244 . S
O50 Mn48 2.089 . S
O50 C57 1.256 . S
O51 Mn43 2.160 . S
O51 C60 1.239 . S
O52 Mn45 2.089 . S
O52 C60 1.256 . S
O53 Mn48 2.251 . S
O53 C58 1.241 . S
O54 Mn48 2.087 . S
O54 C59 1.256 . S
C55 O61 1.278 . S
C55 O62 1.241 . S
C56 O42 1.244 . S
C56 O44 1.256 . S
C57 O46 1.239 . S
C57 O50 1.256 . S
C58 O47 1.278 . S
C58 O53 1.241 . S
C59 O49 1.244 . S
C59 O54 1.256 . S
C60 O51 1.239 . S
C60 O52 1.256 . S
O61 Mn43 2.221 . S
O61 Mn45 2.290 . S
O61 C55 1.278 . S
O62 Mn45 2.251 . S
O62 C55 1.241 . S
O63 Mn64 2.163 . S
O63 C77 1.244 . S
Mn64 O63 2.163 . S
Mn64 O67 2.160 . S
Mn64 O68 2.221 . S
Mn64 O70 2.163 . S
Mn64 O72 2.160 . S
Mn64 O82 2.221 . S
O65 Mn66 2.087 . S
O65 C77 1.256 . S
Mn66 O65 2.087 . S
Mn66 O73 2.089 . S
Mn66 O82 2.290 . S
Mn66 O83 2.251 . S
O67 Mn64 2.160 . S
O67 C78 1.239 . S
O68 Mn64 2.221 . S
O68 Mn69 2.290 . S
O68 C79 1.278 . S
Mn69 O68 2.290 . S
Mn69 O71 2.089 . S
Mn69 O74 2.251 . S
Mn69 O75 2.087 . S
O70 Mn64 2.163 . S
O70 C80 1.244 . S
O71 Mn69 2.089 . S
O71 C78 1.256 . S
O72 Mn64 2.160 . S
O72 C81 1.239 . S
O73 Mn66 2.089 . S
O73 C81 1.256 . S
O74 Mn69 2.251 . S
O74 C79 1.241 . S
O75 Mn69 2.087 . S
O75 C80 1.256 . S
C76 O82 1.278 . S
C76 O83 1.241 . S
C77 O63 1.244 . S
C77 O65 1.256 . S
C78 O67 1.239 . S
C78 O71 1.256 . S
C79 O68 1.278 . S
C79 O74 1.241 . S
C80 O70 1.244 . S
C80 O75 1.256 . S
C81 O72 1.239 . S
C81 O73 1.256 . S
O82 Mn64 2.221 . S
O82 Mn66 2.290 . S
O82 C76 1.278 . S
O83 Mn66 2.251 . S
O83 C76 1.241 . S
O84 Mn85 2.163 . S
O84 C98 1.244 . S
Mn85 O84 2.163 . S
Mn85 O88 2.160 . S
Mn85 O89 2.221 . S
Mn85 O91 2.163 . S
Mn85 O93 2.160 . S
Mn85 O103 2.221 . S
O86 Mn87 2.087 . S
O86 C98 1.256 1_554 S
Mn87 O86 2.087 . S
Mn87 O94 2.089 . S
Mn87 O103 2.290 1_554 S
Mn87 O104 2.251 . S
O88 Mn85 2.160 . S
O88 C99 1.239 . S
O89 Mn85 2.221 . S
O89 Mn90 2.290 . S
O89 C100 1.278 . S
Mn90 O89 2.290 . S
Mn90 O92 2.089 . S
Mn90 O95 2.251 . S
Mn90 O96 2.087 . S
O91 Mn85 2.163 . S
O91 C101 1.244 . S
O92 Mn90 2.089 . S
O92 C99 1.256 . S
O93 Mn85 2.160 . S
O93 C102 1.239 1_556 S
O94 Mn87 2.089 . S
O94 C102 1.256 . S
O95 Mn90 2.251 . S
O95 C100 1.241 . S
O96 Mn90 2.087 . S
O96 C101 1.256 . S
C97 O103 1.278 . S
C97 O104 1.241 1_556 S
C98 O84 1.244 . S
C98 O86 1.256 1_556 S
C99 O88 1.239 . S
C99 O92 1.256 . S
C100 O89 1.278 . S
C100 O95 1.241 . S
C101 O91 1.244 . S
C101 O96 1.256 . S
C102 O93 1.239 1_554 S
C102 O94 1.256 . S
O103 Mn85 2.221 . S
O103 Mn87 2.290 1_556 S
O103 C97 1.278 . S
O104 Mn87 2.251 . S
O104 C97 1.241 1_554 S
O105 Mn106 2.163 . S
O105 C119 1.244 . S
Mn106 O105 2.163 . S
Mn106 O109 2.160 . S
Mn106 O110 2.221 . S
Mn106 O112 2.163 . S
Mn106 O114 2.160 . S
Mn106 O124 2.221 . S
O107 Mn108 2.087 . S
O107 C119 1.256 . S
Mn108 O107 2.087 . S
Mn108 O115 2.089 . S
Mn108 O124 2.290 . S
Mn108 O125 2.251 . S
O109 Mn106 2.160 . S
O109 C120 1.239 . S
O110 Mn106 2.221 . S
O110 Mn111 2.290 . S
O110 C121 1.278 . S
Mn111 O110 2.290 . S
Mn111 O113 2.089 . S
Mn111 O116 2.251 . S
Mn111 O117 2.087 . S
O112 Mn106 2.163 . S
O112 C122 1.244 . S
O113 Mn111 2.089 . S
O113 C120 1.256 . S
O114 Mn106 2.160 . S
O114 C123 1.239 . S
O115 Mn108 2.089 . S
O115 C123 1.256 . S
O116 Mn111 2.251 . S
O116 C121 1.241 . S
O117 Mn111 2.087 . S
O117 C122 1.256 . S
C118 O124 1.278 . S
C118 O125 1.241 . S
C119 O105 1.244 . S
C119 O107 1.256 . S
C120 O109 1.239 . S
C120 O113 1.256 . S
C121 O110 1.278 . S
C121 O116 1.241 . S
C122 O112 1.244 . S
C122 O117 1.256 . S
C123 O114 1.239 . S
C123 O115 1.256 . S
O124 Mn106 2.221 . S
O124 Mn108 2.290 . S
O124 C118 1.278 . S
O125 Mn108 2.251 . S
O125 C118 1.241 . S
O126 Mn127 2.163 . S
O126 C140 1.244 . S
Mn127 O126 2.163 . S
Mn127 O130 2.160 . S
Mn127 O131 2.221 . S
Mn127 O133 2.163 . S
Mn127 O135 2.160 . S
Mn127 O145 2.221 . S
O128 Mn129 2.087 . S
O128 C140 1.256 . S
Mn129 O128 2.087 . S
Mn129 O136 2.089 . S
Mn129 O145 2.290 . S
Mn129 O146 2.251 . S
O130 Mn127 2.160 . S
O130 C141 1.239 . S
O131 Mn127 2.221 . S
O131 Mn132 2.290 . S
O131 C142 1.278 . S
Mn132 O131 2.290 . S
Mn132 O134 2.089 . S
Mn132 O137 2.251 . S
Mn132 O138 2.087 . S
O133 Mn127 2.163 . S
O133 C143 1.244 . S
O134 Mn132 2.089 . S
O134 C141 1.256 . S
O135 Mn127 2.160 . S
O135 C144 1.239 . S
O136 Mn129 2.089 . S
O136 C144 1.256 . S
O137 Mn132 2.251 . S
O137 C142 1.241 . S
O138 Mn132 2.087 . S
O138 C143 1.256 . S
C139 O145 1.278 . S
C139 O146 1.241 . S
C140 O126 1.244 . S
C140 O128 1.256 . S
C141 O130 1.239 . S
C141 O134 1.256 . S
C142 O131 1.278 . S
C142 O137 1.241 . S
C143 O133 1.244 . S
C143 O138 1.256 . S
C144 O135 1.239 . S
C144 O136 1.256 . S
O145 Mn127 2.221 . S
O145 Mn129 2.290 . S
O145 C139 1.278 . S
O146 Mn129 2.251 . S
O146 C139 1.241 . S
O147 Mn148 2.163 . S
O147 C161 1.244 . S
Mn148 O147 2.163 . S
Mn148 O151 2.160 . S
Mn148 O152 2.221 . S
Mn148 O154 2.163 . S
Mn148 O156 2.160 . S
Mn148 O166 2.221 . S
O149 Mn150 2.087 . S
O149 C161 1.256 . S
Mn150 O149 2.087 . S
Mn150 O157 2.089 . S
Mn150 O166 2.290 . S
Mn150 O167 2.251 . S
O151 Mn148 2.160 . S
O151 C162 1.239 . S
O152 Mn148 2.221 . S
O152 Mn153 2.290 . S
O152 C163 1.278 . S
Mn153 O152 2.290 . S
Mn153 O155 2.089 . S
Mn153 O158 2.251 . S
Mn153 O159 2.087 . S
O154 Mn148 2.163 . S
O154 C164 1.244 . S
O155 Mn153 2.089 . S
O155 C162 1.256 . S
O156 Mn148 2.160 . S
O156 C165 1.239 . S
O157 Mn150 2.089 . S
O157 C165 1.256 . S
O158 Mn153 2.251 . S
O158 C163 1.241 . S
O159 Mn153 2.087 . S
O159 C164 1.256 . S
C160 O166 1.278 . S
C160 O167 1.241 . S
C161 O147 1.244 . S
C161 O149 1.256 . S
C162 O151 1.239 . S
C162 O155 1.256 . S
C163 O152 1.278 . S
C163 O158 1.241 . S
C164 O154 1.244 . S
C164 O159 1.256 . S
C165 O156 1.239 . S
C165 O157 1.256 . S
O166 Mn148 2.221 . S
O166 Mn150 2.290 . S
O166 C160 1.278 . S
O167 Mn150 2.251 . S
O167 C160 1.241 . S
O168 Mn169 2.163 . S
O168 C182 1.244 . S
Mn169 O168 2.163 . S
Mn169 O172 2.160 . S
Mn169 O173 2.221 . S
Mn169 O175 2.163 . S
Mn169 O177 2.160 . S
Mn169 O187 2.221 . S
O170 Mn171 2.087 . S
O170 C182 1.256 . S
Mn171 O170 2.087 . S
Mn171 O178 2.089 . S
Mn171 O187 2.290 . S
Mn171 O188 2.251 . S
O172 Mn169 2.160 . S
O172 C183 1.239 . S
O173 Mn169 2.221 . S
O173 Mn174 2.290 . S
O173 C184 1.278 . S
Mn174 O173 2.290 . S
Mn174 O176 2.089 . S
Mn174 O179 2.251 . S
Mn174 O180 2.087 . S
O175 Mn169 2.163 . S
O175 C185 1.244 . S
O176 Mn174 2.089 . S
O176 C183 1.256 . S
O177 Mn169 2.160 . S
O177 C186 1.239 . S
O178 Mn171 2.089 . S
O178 C186 1.256 . S
O179 Mn174 2.251 . S
O179 C184 1.241 . S
O180 Mn174 2.087 . S
O180 C185 1.256 . S
C181 O187 1.278 . S
C181 O188 1.241 . S
C182 O168 1.244 . S
C182 O170 1.256 . S
C183 O172 1.239 . S
C183 O176 1.256 . S
C184 O173 1.278 . S
C184 O179 1.241 . S
C185 O175 1.244 . S
C185 O180 1.256 . S
C186 O177 1.239 . S
C186 O178 1.256 . S
O187 Mn169 2.221 . S
O187 Mn171 2.290 . S
O187 C181 1.278 . S
O188 Mn171 2.251 . S
O188 C181 1.241 . S
O189 Mn190 2.163 . S
O189 C203 1.244 . S
Mn190 O189 2.163 . S
Mn190 O193 2.160 . S
Mn190 O194 2.221 . S
Mn190 O196 2.163 . S
Mn190 O198 2.160 . S
Mn190 O208 2.221 . S
O191 Mn192 2.087 . S
O191 C203 1.256 . S
Mn192 O191 2.087 . S
Mn192 O199 2.089 . S
Mn192 O208 2.290 . S
Mn192 O209 2.251 . S
O193 Mn190 2.160 . S
O193 C204 1.239 . S
O194 Mn190 2.221 . S
O194 Mn195 2.290 . S
O194 C205 1.278 . S
Mn195 O194 2.290 . S
Mn195 O197 2.089 . S
Mn195 O200 2.251 . S
Mn195 O201 2.087 . S
O196 Mn190 2.163 . S
O196 C206 1.244 . S
O197 Mn195 2.089 . S
O197 C204 1.256 . S
O198 Mn190 2.160 . S
O198 C207 1.239 . S
O199 Mn192 2.089 . S
O199 C207 1.256 . S
O200 Mn195 2.251 . S
O200 C205 1.241 . S
O201 Mn195 2.087 . S
O201 C206 1.256 . S
C202 O208 1.278 . S
C202 O209 1.241 . S
C203 O189 1.244 . S
C203 O191 1.256 . S
C204 O193 1.239 . S
C204 O197 1.256 . S
C205 O194 1.278 . S
C205 O200 1.241 . S
C206 O196 1.244 . S
C206 O201 1.256 . S
C207 O198 1.239 . S
C207 O199 1.256 . S
O208 Mn190 2.221 . S
O208 Mn192 2.290 . S
O208 C202 1.278 . S
O209 Mn192 2.251 . S
O209 C202 1.241 . S
O210 Mn211 2.163 . S
O210 C224 1.244 . S
Mn211 O210 2.163 . S
Mn211 O214 2.160 . S
Mn211 O215 2.221 . S
Mn211 O217 2.163 . S
Mn211 O219 2.160 . S
Mn211 O229 2.221 . S
O212 Mn213 2.087 . S
O212 C224 1.256 1_556 S
Mn213 O212 2.087 . S
Mn213 O220 2.089 . S
Mn213 O229 2.290 1_556 S
Mn213 O230 2.251 . S
O214 Mn211 2.160 . S
O214 C225 1.239 . S
O215 Mn211 2.221 . S
O215 Mn216 2.290 . S
O215 C226 1.278 . S
Mn216 O215 2.290 . S
Mn216 O218 2.089 . S
Mn216 O221 2.251 . S
Mn216 O222 2.087 . S
O217 Mn211 2.163 . S
O217 C227 1.244 . S
O218 Mn216 2.089 . S
O218 C225 1.256 . S
O219 Mn211 2.160 . S
O219 C228 1.239 1_554 S
O220 Mn213 2.089 . S
O220 C228 1.256 . S
O221 Mn216 2.251 . S
O221 C226 1.241 . S
O222 Mn216 2.087 . S
O222 C227 1.256 . S
C223 O229 1.278 . S
C223 O230 1.241 1_554 S
C224 O210 1.244 . S
C224 O212 1.256 1_554 S
C225 O214 1.239 . S
C225 O218 1.256 . S
C226 O215 1.278 . S
C226 O221 1.241 . S
C227 O217 1.244 . S
C227 O222 1.256 . S
C228 O219 1.239 1_556 S
C228 O220 1.256 . S
O229 Mn211 2.221 . S
O229 Mn213 2.290 1_554 S
O229 C223 1.278 . S
O230 Mn213 2.251 . S
O230 C223 1.241 1_556 S
O231 Mn232 2.163 . S
O231 C245 1.244 . S
Mn232 O231 2.163 . S
Mn232 O235 2.160 . S
Mn232 O236 2.221 . S
Mn232 O238 2.163 . S
Mn232 O240 2.160 . S
Mn232 O250 2.221 . S
O233 Mn234 2.087 . S
O233 C245 1.256 . S
Mn234 O233 2.087 . S
Mn234 O241 2.089 . S
Mn234 O250 2.290 . S
Mn234 O251 2.251 . S
O235 Mn232 2.160 . S
O235 C246 1.239 . S
O236 Mn232 2.221 . S
O236 Mn237 2.290 . S
O236 C247 1.278 . S
Mn237 O236 2.290 . S
Mn237 O239 2.089 . S
Mn237 O242 2.251 . S
Mn237 O243 2.087 . S
O238 Mn232 2.163 . S
O238 C248 1.244 . S
O239 Mn237 2.089 . S
O239 C246 1.256 . S
O240 Mn232 2.160 . S
O240 C249 1.239 . S
O241 Mn234 2.089 . S
O241 C249 1.256 . S
O242 Mn237 2.251 . S
O242 C247 1.241 . S
O243 Mn237 2.087 . S
O243 C248 1.256 . S
C244 O250 1.278 . S
C244 O251 1.241 . S
C245 O231 1.244 . S
C245 O233 1.256 . S
C246 O235 1.239 . S
C246 O239 1.256 . S
C247 O236 1.278 . S
C247 O242 1.241 . S
C248 O238 1.244 . S
C248 O243 1.256 . S
C249 O240 1.239 . S
C249 O241 1.256 . S
O250 Mn232 2.221 . S
O250 Mn234 2.290 . S
O250 C244 1.278 . S
O251 Mn234 2.251 . S
O251 C244 1.241 . S
O252 Mn253 2.163 . S
O252 C266 1.244 . S
Mn253 O252 2.163 . S
Mn253 O256 2.160 . S
Mn253 O257 2.221 . S
Mn253 O259 2.163 . S
Mn253 O261 2.160 . S
Mn253 O271 2.221 . S
O254 Mn255 2.087 . S
O254 C266 1.256 . S
Mn255 O254 2.087 . S
Mn255 O262 2.089 . S
Mn255 O271 2.290 . S
Mn255 O272 2.251 . S
O256 Mn253 2.160 . S
O256 C267 1.239 . S
O257 Mn253 2.221 . S
O257 Mn258 2.290 . S
O257 C268 1.278 . S
Mn258 O257 2.290 . S
Mn258 O260 2.089 . S
Mn258 O263 2.251 . S
Mn258 O264 2.087 . S
O259 Mn253 2.163 . S
O259 C269 1.244 . S
O260 Mn258 2.089 . S
O260 C267 1.256 . S
O261 Mn253 2.160 . S
O261 C270 1.239 . S
O262 Mn255 2.089 . S
O262 C270 1.256 . S
O263 Mn258 2.251 . S
O263 C268 1.241 . S
O264 Mn258 2.087 . S
O264 C269 1.256 . S
C265 O271 1.278 . S
C265 O272 1.241 . S
C266 O252 1.244 . S
C266 O254 1.256 . S
C267 O256 1.239 . S
C267 O260 1.256 . S
C268 O257 1.278 . S
C268 O263 1.241 . S
C269 O259 1.244 . S
C269 O264 1.256 . S
C270 O261 1.239 . S
C270 O262 1.256 . S
O271 Mn253 2.221 . S
O271 Mn255 2.290 . S
O271 C265 1.278 . S
O272 Mn255 2.251 . S
O272 C265 1.241 . S
O273 Mn274 2.163 . S
O273 C287 1.244 . S
Mn274 O273 2.163 . S
Mn274 O277 2.160 . S
Mn274 O278 2.221 . S
Mn274 O280 2.163 . S
Mn274 O282 2.160 . S
Mn274 O292 2.221 . S
O275 Mn276 2.087 . S
O275 C287 1.256 . S
Mn276 O275 2.087 . S
Mn276 O283 2.089 . S
Mn276 O292 2.290 . S
Mn276 O293 2.251 . S
O277 Mn274 2.160 . S
O277 C288 1.239 . S
O278 Mn274 2.221 . S
O278 Mn279 2.290 . S
O278 C289 1.278 . S
Mn279 O278 2.290 . S
Mn279 O281 2.089 . S
Mn279 O284 2.251 . S
Mn279 O285 2.087 . S
O280 Mn274 2.163 . S
O280 C290 1.244 . S
O281 Mn279 2.089 . S
O281 C288 1.256 . S
O282 Mn274 2.160 . S
O282 C291 1.239 . S
O283 Mn276 2.089 . S
O283 C291 1.256 . S
O284 Mn279 2.251 . S
O284 C289 1.241 . S
O285 Mn279 2.087 . S
O285 C290 1.256 . S
C286 O292 1.278 . S
C286 O293 1.241 . S
C287 O273 1.244 . S
C287 O275 1.256 . S
C288 O277 1.239 . S
C288 O281 1.256 . S
C289 O278 1.278 . S
C289 O284 1.241 . S
C290 O280 1.244 . S
C290 O285 1.256 . S
C291 O282 1.239 . S
C291 O283 1.256 . S
O292 Mn274 2.221 . S
O292 Mn276 2.290 . S
O292 C286 1.278 . S
O293 Mn276 2.251 . S
O293 C286 1.241 . S
O294 Mn295 2.163 . S
O294 C308 1.244 . S
Mn295 O294 2.163 . S
Mn295 O298 2.160 . S
Mn295 O299 2.221 . S
Mn295 O301 2.163 . S
Mn295 O303 2.160 . S
Mn295 O313 2.221 . S
O296 Mn297 2.087 . S
O296 C308 1.256 1_554 S
Mn297 O296 2.087 . S
Mn297 O304 2.089 . S
Mn297 O313 2.290 1_554 S
Mn297 O314 2.251 . S
O298 Mn295 2.160 . S
O298 C309 1.239 . S
O299 Mn295 2.221 . S
O299 Mn300 2.290 . S
O299 C310 1.278 . S
Mn300 O299 2.290 . S
Mn300 O302 2.089 . S
Mn300 O305 2.251 . S
Mn300 O306 2.087 . S
O301 Mn295 2.163 . S
O301 C311 1.244 . S
O302 Mn300 2.089 . S
O302 C309 1.256 . S
O303 Mn295 2.160 . S
O303 C312 1.239 1_556 S
O304 Mn297 2.089 . S
O304 C312 1.256 . S
O305 Mn300 2.251 . S
O305 C310 1.241 . S
O306 Mn300 2.087 . S
O306 C311 1.256 . S
C307 O313 1.278 . S
C307 O314 1.241 1_556 S
C308 O294 1.244 . S
C308 O296 1.256 1_556 S
C309 O298 1.239 . S
C309 O302 1.256 . S
C310 O299 1.278 . S
C310 O305 1.241 . S
C311 O301 1.244 . S
C311 O306 1.256 . S
C312 O303 1.239 1_554 S
C312 O304 1.256 . S
O313 Mn295 2.221 . S
O313 Mn297 2.290 1_556 S
O313 C307 1.278 . S
O314 Mn297 2.251 . S
O314 C307 1.241 1_554 S
O315 Mn316 2.163 . S
O315 C329 1.244 . S
Mn316 O315 2.163 . S
Mn316 O319 2.160 . S
Mn316 O320 2.221 . S
Mn316 O322 2.163 . S
Mn316 O324 2.160 . S
Mn316 O334 2.221 . S
O317 Mn318 2.087 . S
O317 C329 1.256 . S
Mn318 O317 2.087 . S
Mn318 O325 2.089 . S
Mn318 O334 2.290 . S
Mn318 O335 2.251 . S
O319 Mn316 2.160 . S
O319 C330 1.239 . S
O320 Mn316 2.221 . S
O320 Mn321 2.290 . S
O320 C331 1.278 . S
Mn321 O320 2.290 . S
Mn321 O323 2.089 . S
Mn321 O326 2.251 . S
Mn321 O327 2.087 . S
O322 Mn316 2.163 . S
O322 C332 1.244 . S
O323 Mn321 2.089 . S
O323 C330 1.256 . S
O324 Mn316 2.160 . S
O324 C333 1.239 . S
O325 Mn318 2.089 . S
O325 C333 1.256 . S
O326 Mn321 2.251 . S
O326 C331 1.241 . S
O327 Mn321 2.087 . S
O327 C332 1.256 . S
C328 O334 1.278 . S
C328 O335 1.241 . S
C329 O315 1.244 . S
C329 O317 1.256 . S
C330 O319 1.239 . S
C330 O323 1.256 . S
C331 O320 1.278 . S
C331 O326 1.241 . S
C332 O322 1.244 . S
C332 O327 1.256 . S
C333 O324 1.239 . S
C333 O325 1.256 . S
O334 Mn316 2.221 . S
O334 Mn318 2.290 . S
O334 C328 1.278 . S
O335 Mn318 2.251 . S
O335 C328 1.241 . S
H336 C344 0.929 . S
H337 C346 0.930 . S
H338 C348 0.930 . S
H339 C351 0.929 . S
H340 C354 0.930 . S
H341 C356 0.960 . S
H342 C356 0.960 . S
H343 C356 0.960 . S
C344 H336 0.929 . S
C344 C345 1.377 . S
C344 C346 1.384 . S
C345 C344 1.377 . S
C345 C351 1.390 . S
C346 H337 0.930 . S
C346 C344 1.384 . S
C346 C347 1.372 . S
C347 C346 1.372 . S
C347 C348 1.400 . S
C347 C352 1.490 . S
C348 H338 0.930 . S
C348 C347 1.400 . S
C348 C351 1.386 . S
H349 C365 0.930 . S
H350 C366 0.931 . S
C351 H339 0.929 . S
C351 C345 1.390 . S
C351 C348 1.386 . S
C352 C347 1.490 . S
C352 C354 1.395 . S
C352 C355 1.403 . S
H353 C359 0.930 . S
C354 H340 0.930 . S
C354 C352 1.395 . S
C354 C357 1.403 . S
C355 C352 1.403 . S
C355 C356 1.524 . S
C355 C359 1.400 . S
C356 H341 0.960 . S
C356 H342 0.960 . S
C356 H343 0.960 . S
C356 C355 1.524 . S
C357 C354 1.403 . S
C357 C358 1.392 . S
C357 C361 1.495 . S
C358 C357 1.392 . S
C358 C359 1.385 . S
C358 C360 1.478 . S
C359 H353 0.930 . S
C359 C355 1.400 . S
C359 C358 1.385 . S
C360 C358 1.478 . S
C360 C362 1.381 . S
C360 C366 1.383 . S
C361 C357 1.495 . S
C361 H367 0.959 . S
C361 H368 0.961 . S
C361 H369 0.960 . S
C362 C360 1.381 . S
C362 C363 1.394 . S
C362 H370 0.930 . S
C363 C362 1.394 . S
C363 C364 1.383 . S
C363 H371 0.929 . S
C364 C363 1.383 . S
C364 C365 1.377 . S
C365 H349 0.930 . S
C365 C364 1.377 . S
C365 C366 1.379 . S
C366 H350 0.931 . S
C366 C360 1.383 . S
C366 C365 1.379 . S
H367 C361 0.959 . S
H368 C361 0.961 . S
H369 C361 0.960 . S
H370 C362 0.930 . S
H371 C363 0.929 . S
H372 C380 0.929 . S
H373 C382 0.930 . S
H374 C384 0.930 . S
H375 C387 0.929 . S
H376 C390 0.930 . S
H377 C392 0.960 . S
H378 C392 0.960 . S
H379 C392 0.960 . S
C380 H372 0.929 . S
C380 C381 1.377 . S
C380 C382 1.384 . S
C381 C380 1.377 . S
C381 C387 1.390 . S
C382 H373 0.930 . S
C382 C380 1.384 . S
C382 C383 1.372 . S
C383 C382 1.372 . S
C383 C384 1.400 . S
C383 C388 1.490 . S
C384 H374 0.930 . S
C384 C383 1.400 . S
C384 C387 1.386 . S
H385 C401 0.930 . S
H386 C402 0.931 . S
C387 H375 0.929 . S
C387 C381 1.390 . S
C387 C384 1.386 . S
C388 C383 1.490 . S
C388 C390 1.395 . S
C388 C391 1.403 . S
H389 C395 0.930 . S
C390 H376 0.930 . S
C390 C388 1.395 . S
C390 C393 1.403 . S
C391 C388 1.403 . S
C391 C392 1.524 . S
C391 C395 1.400 . S
C392 H377 0.960 . S
C392 H378 0.960 . S
C392 H379 0.960 . S
C392 C391 1.524 . S
C393 C390 1.403 . S
C393 C394 1.392 . S
C393 C397 1.495 . S
C394 C393 1.392 . S
C394 C395 1.385 . S
C394 C396 1.478 . S
C395 H389 0.930 . S
C395 C391 1.400 . S
C395 C394 1.385 . S
C396 C394 1.478 . S
C396 C398 1.381 . S
C396 C402 1.383 . S
C397 C393 1.495 . S
C397 H403 0.959 . S
C397 H404 0.961 . S
C397 H405 0.960 . S
C398 C396 1.381 . S
C398 C399 1.394 . S
C398 H406 0.930 . S
C399 C398 1.394 . S
C399 C400 1.383 . S
C399 H407 0.929 . S
C400 C399 1.383 . S
C400 C401 1.377 . S
C401 H385 0.930 . S
C401 C400 1.377 . S
C401 C402 1.379 . S
C402 H386 0.931 . S
C402 C396 1.383 . S
C402 C401 1.379 . S
H403 C397 0.959 . S
H404 C397 0.961 . S
H405 C397 0.960 . S
H406 C398 0.930 . S
H407 C399 0.929 . S
H408 C416 0.929 . S
H409 C418 0.930 . S
H410 C420 0.930 . S
H411 C423 0.929 . S
H412 C426 0.930 . S
H413 C428 0.960 1_655 S
H414 C428 0.960 . S
H415 C428 0.960 . S
C416 H408 0.929 . S
C416 C417 1.377 . S
C416 C418 1.384 . S
C417 C416 1.377 . S
C417 C423 1.390 . S
C418 H409 0.930 . S
C418 C416 1.384 . S
C418 C419 1.372 . S
C419 C418 1.372 . S
C419 C420 1.400 . S
C419 C424 1.490 . S
C420 H410 0.930 . S
C420 C419 1.400 . S
C420 C423 1.386 . S
H421 C437 0.930 . S
H422 C438 0.931 . S
C423 H411 0.929 . S
C423 C417 1.390 . S
C423 C420 1.386 . S
C424 C419 1.490 . S
C424 C426 1.395 . S
C424 C427 1.403 . S
H425 C431 0.930 . S
C426 H412 0.930 . S
C426 C424 1.395 . S
C426 C429 1.403 1_455 S
C427 C424 1.403 . S
C427 C428 1.524 . S
C427 C431 1.400 1_455 S
C428 H413 0.960 1_455 S
C428 H414 0.960 . S
C428 H415 0.960 . S
C428 C427 1.524 . S
C429 C426 1.403 1_655 S
C429 C430 1.392 . S
C429 C433 1.495 . S
C430 C429 1.392 . S
C430 C431 1.385 . S
C430 C432 1.478 . S
C431 H425 0.930 . S
C431 C427 1.400 1_655 S
C431 C430 1.385 . S
C432 C430 1.478 . S
C432 C434 1.381 . S
C432 C438 1.383 . S
C433 C429 1.495 . S
C433 H439 0.959 1_655 S
C433 H440 0.961 . S
C433 H441 0.960 . S
C434 C432 1.381 . S
C434 C435 1.394 . S
C434 H442 0.930 . S
C435 C434 1.394 . S
C435 C436 1.383 . S
C435 H443 0.929 . S
C436 C435 1.383 . S
C436 C437 1.377 . S
C437 H421 0.930 . S
C437 C436 1.377 . S
C437 C438 1.379 . S
C438 H422 0.931 . S
C438 C432 1.383 . S
C438 C437 1.379 . S
H439 C433 0.959 1_455 S
H440 C433 0.961 . S
H441 C433 0.960 . S
H442 C434 0.930 . S
H443 C435 0.929 . S
H444 C452 0.929 . S
H445 C454 0.930 . S
H446 C456 0.930 1_455 S
H447 C459 0.929 . S
H448 C462 0.930 . S
H449 C464 0.960 . S
H450 C464 0.960 . S
H451 C464 0.960 . S
C452 H444 0.929 . S
C452 C453 1.377 . S
C452 C454 1.384 . S
C453 C452 1.377 . S
C453 C459 1.390 . S
C454 H445 0.930 . S
C454 C452 1.384 . S
C454 C455 1.372 . S
C455 C454 1.372 . S
C455 C456 1.400 . S
C455 C460 1.490 . S
C456 H446 0.930 1_655 S
C456 C455 1.400 . S
C456 C459 1.386 . S
H457 C473 0.930 . S
H458 C474 0.931 . S
C459 H447 0.929 . S
C459 C453 1.390 . S
C459 C456 1.386 . S
C460 C455 1.490 . S
C460 C462 1.395 . S
C460 C463 1.403 1_655 S
H461 C467 0.930 . S
C462 H448 0.930 . S
C462 C460 1.395 . S
C462 C465 1.403 . S
C463 C460 1.403 1_455 S
C463 C464 1.524 . S
C463 C467 1.400 . S
C464 H449 0.960 . S
C464 H450 0.960 . S
C464 H451 0.960 . S
C464 C463 1.524 . S
C465 C462 1.403 . S
C465 C466 1.392 1_655 S
C465 C469 1.495 . S
C466 C465 1.392 1_455 S
C466 C467 1.385 . S
C466 C468 1.478 . S
C467 H461 0.930 . S
C467 C463 1.400 . S
C467 C466 1.385 . S
C468 C466 1.478 . S
C468 C470 1.381 . S
C468 C474 1.383 . S
C469 C465 1.495 . S
C469 H475 0.959 . S
C469 H476 0.961 . S
C469 H477 0.960 . S
C470 C468 1.381 . S
C470 C471 1.394 . S
C470 H478 0.930 1_455 S
C471 C470 1.394 . S
C471 C472 1.383 . S
C471 H479 0.929 . S
C472 C471 1.383 . S
C472 C473 1.377 . S
C473 H457 0.930 . S
C473 C472 1.377 . S
C473 C474 1.379 . S
C474 H458 0.931 . S
C474 C468 1.383 . S
C474 C473 1.379 . S
H475 C469 0.959 . S
H476 C469 0.961 . S
H477 C469 0.960 . S
H478 C470 0.930 1_655 S
H479 C471 0.929 . S
H480 C488 0.929 . S
H481 C490 0.930 . S
H482 C492 0.930 . S
H483 C495 0.929 . S
H484 C498 0.930 . S
H485 C500 0.960 . S
H486 C500 0.960 . S
H487 C500 0.960 . S
C488 H480 0.929 . S
C488 C489 1.377 . S
C488 C490 1.384 . S
C489 C488 1.377 . S
C489 C495 1.390 . S
C490 H481 0.930 . S
C490 C488 1.384 . S
C490 C491 1.372 . S
C491 C490 1.372 . S
C491 C492 1.400 . S
C491 C496 1.490 . S
C492 H482 0.930 . S
C492 C491 1.400 . S
C492 C495 1.386 . S
H493 C509 0.930 . S
H494 C510 0.931 . S
C495 H483 0.929 . S
C495 C489 1.390 . S
C495 C492 1.386 . S
C496 C491 1.490 . S
C496 C498 1.395 . S
C496 C499 1.403 . S
H497 C503 0.930 . S
C498 H484 0.930 . S
C498 C496 1.395 . S
C498 C501 1.403 . S
C499 C496 1.403 . S
C499 C500 1.524 . S
C499 C503 1.400 . S
C500 H485 0.960 . S
C500 H486 0.960 . S
C500 H487 0.960 . S
C500 C499 1.524 . S
C501 C498 1.403 . S
C501 C502 1.392 . S
C501 C505 1.495 . S
C502 C501 1.392 . S
C502 C503 1.385 . S
C502 C504 1.478 . S
C503 H497 0.930 . S
C503 C499 1.400 . S
C503 C502 1.385 . S
C504 C502 1.478 . S
C504 C506 1.381 . S
C504 C510 1.383 . S
C505 C501 1.495 . S
C505 H511 0.959 . S
C505 H512 0.961 . S
C505 H513 0.960 . S
C506 C504 1.381 . S
C506 C507 1.394 . S
C506 H514 0.930 . S
C507 C506 1.394 . S
C507 C508 1.383 . S
C507 H515 0.929 . S
C508 C507 1.383 . S
C508 C509 1.377 . S
C509 H493 0.930 . S
C509 C508 1.377 . S
C509 C510 1.379 . S
C510 H494 0.931 . S
C510 C504 1.383 . S
C510 C509 1.379 . S
H511 C505 0.959 . S
H512 C505 0.961 . S
H513 C505 0.960 . S
H514 C506 0.930 . S
H515 C507 0.929 . S
H516 C524 0.929 . S
H517 C526 0.930 . S
H518 C528 0.930 . S
H519 C531 0.929 . S
H520 C534 0.930 . S
H521 C536 0.960 . S
H522 C536 0.960 . S
H523 C536 0.960 . S
C524 H516 0.929 . S
C524 C525 1.377 . S
C524 C526 1.384 . S
C525 C524 1.377 . S
C525 C531 1.390 . S
C526 H517 0.930 . S
C526 C524 1.384 . S
C526 C527 1.372 . S
C527 C526 1.372 . S
C527 C528 1.400 . S
C527 C532 1.490 . S
C528 H518 0.930 . S
C528 C527 1.400 . S
C528 C531 1.386 . S
H529 C545 0.930 . S
H530 C546 0.931 . S
C531 H519 0.929 . S
C531 C525 1.390 . S
C531 C528 1.386 . S
C532 C527 1.490 . S
C532 C534 1.395 . S
C532 C535 1.403 . S
H533 C539 0.930 . S
C534 H520 0.930 . S
C534 C532 1.395 . S
C534 C537 1.403 . S
C535 C532 1.403 . S
C535 C536 1.524 . S
C535 C539 1.400 . S
C536 H521 0.960 . S
C536 H522 0.960 . S
C536 H523 0.960 . S
C536 C535 1.524 . S
C537 C534 1.403 . S
C537 C538 1.392 . S
C537 C541 1.495 . S
C538 C537 1.392 . S
C538 C539 1.385 . S
C538 C540 1.478 . S
C539 H533 0.930 . S
C539 C535 1.400 . S
C539 C538 1.385 . S
C540 C538 1.478 . S
C540 C542 1.381 . S
C540 C546 1.383 . S
C541 C537 1.495 . S
C541 H547 0.959 . S
C541 H548 0.961 . S
C541 H549 0.960 . S
C542 C540 1.381 . S
C542 C543 1.394 . S
C542 H550 0.930 . S
C543 C542 1.394 . S
C543 C544 1.383 . S
C543 H551 0.929 . S
C544 C543 1.383 . S
C544 C545 1.377 . S
C545 H529 0.930 . S
C545 C544 1.377 . S
C545 C546 1.379 . S
C546 H530 0.931 . S
C546 C540 1.383 . S
C546 C545 1.379 . S
H547 C541 0.959 . S
H548 C541 0.961 . S
H549 C541 0.960 . S
H550 C542 0.930 . S
H551 C543 0.929 . S
H552 C560 0.929 . S
H553 C562 0.930 . S
H554 C564 0.930 . S
H555 C567 0.929 . S
H556 C570 0.930 . S
H557 C572 0.960 . S
H558 C572 0.960 . S
H559 C572 0.960 . S
C560 H552 0.929 . S
C560 C561 1.377 . S
C560 C562 1.384 . S
C561 C560 1.377 . S
C561 C567 1.390 . S
C562 H553 0.930 . S
C562 C560 1.384 . S
C562 C563 1.372 . S
C563 C562 1.372 . S
C563 C564 1.400 . S
C563 C568 1.490 . S
C564 H554 0.930 . S
C564 C563 1.400 . S
C564 C567 1.386 . S
H565 C581 0.930 . S
H566 C582 0.931 . S
C567 H555 0.929 . S
C567 C561 1.390 . S
C567 C564 1.386 . S
C568 C563 1.490 . S
C568 C570 1.395 . S
C568 C571 1.403 . S
H569 C575 0.930 . S
C570 H556 0.930 . S
C570 C568 1.395 . S
C570 C573 1.403 1_655 S
C571 C568 1.403 . S
C571 C572 1.524 . S
C571 C575 1.400 1_655 S
C572 H557 0.960 . S
C572 H558 0.960 . S
C572 H559 0.960 . S
C572 C571 1.524 . S
C573 C570 1.403 1_455 S
C573 C574 1.392 . S
C573 C577 1.495 . S
C574 C573 1.392 . S
C574 C575 1.385 . S
C574 C576 1.478 . S
C575 H569 0.930 . S
C575 C571 1.400 1_455 S
C575 C574 1.385 . S
C576 C574 1.478 . S
C576 C578 1.381 . S
C576 C582 1.383 . S
C577 C573 1.495 . S
C577 H583 0.959 . S
C577 H584 0.961 . S
C577 H585 0.960 . S
C578 C576 1.381 . S
C578 C579 1.394 . S
C578 H586 0.930 . S
C579 C578 1.394 . S
C579 C580 1.383 . S
C579 H587 0.929 . S
C580 C579 1.383 . S
C580 C581 1.377 . S
C581 H565 0.930 . S
C581 C580 1.377 . S
C581 C582 1.379 . S
C582 H566 0.931 . S
C582 C576 1.383 . S
C582 C581 1.379 . S
H583 C577 0.959 . S
H584 C577 0.961 . S
H585 C577 0.960 . S
H586 C578 0.930 . S
H587 C579 0.929 . S
H588 C596 0.929 . S
H589 C598 0.930 1_655 S
H590 C600 0.930 . S
H591 C603 0.929 . S
H592 C606 0.930 . S
H593 C608 0.960 . S
H594 C608 0.960 . S
H595 C608 0.960 . S
C596 H588 0.929 . S
C596 C597 1.377 . S
C596 C598 1.384 . S
C597 C596 1.377 . S
C597 C603 1.390 . S
C598 H589 0.930 1_455 S
C598 C596 1.384 . S
C598 C599 1.372 . S
C599 C598 1.372 . S
C599 C600 1.400 . S
C599 C604 1.490 . S
C600 H590 0.930 . S
C600 C599 1.400 . S
C600 C603 1.386 . S
H601 C617 0.930 . S
H602 C618 0.931 1_455 S
C603 H591 0.929 . S
C603 C597 1.390 . S
C603 C600 1.386 . S
C604 C599 1.490 . S
C604 C606 1.395 1_455 S
C604 C607 1.403 . S
H605 C611 0.934 . S
C606 H592 0.930 . S
C606 C604 1.395 1_655 S
C606 C609 1.403 . S
C607 C604 1.403 . S
C607 C608 1.524 . S
C607 C611 1.414 . S
C608 H593 0.960 . S
C608 H594 0.960 . S
C608 H595 0.960 . S
C608 C607 1.524 . S
C609 C606 1.403 . S
C609 C610 1.392 . S
C609 C613 1.495 . S
C610 C609 1.392 . S
C610 C611 1.368 1_655 S
C610 C612 1.478 . S
C611 H605 0.934 . S
C611 C607 1.414 . S
C611 C610 1.368 1_455 S
C612 C610 1.478 . S
C612 C614 1.381 . S
C612 C618 1.383 . S
C613 C609 1.495 . S
C613 H619 0.959 . S
C613 H620 0.961 . S
C613 H621 0.960 . S
C614 C612 1.381 . S
C614 C615 1.394 . S
C614 H622 0.930 . S
C615 C614 1.394 . S
C615 C616 1.383 . S
C615 H623 0.929 . S
C616 C615 1.383 . S
C616 C617 1.377 . S
C617 H601 0.930 . S
C617 C616 1.377 . S
C617 C618 1.379 . S
C618 H602 0.931 1_655 S
C618 C612 1.383 . S
C618 C617 1.379 . S
H619 C613 0.959 . S
H620 C613 0.961 . S
H621 C613 0.960 . S
H622 C614 0.930 . S
H623 C615 0.929 . S
H624 C632 0.929 . S
H625 C634 0.930 . S
H626 C636 0.930 . S
H627 C639 0.929 . S
H628 C642 0.930 . S
H629 C644 0.960 . S
H630 C644 0.960 . S
H631 C644 0.960 . S
C632 H624 0.929 . S
C632 C633 1.377 . S
C632 C634 1.384 . S
C633 C632 1.377 . S
C633 C639 1.390 . S
C634 H625 0.930 . S
C634 C632 1.384 . S
C634 C635 1.372 . S
C635 C634 1.372 . S
C635 C636 1.400 . S
C635 C640 1.490 . S
C636 H626 0.930 . S
C636 C635 1.400 . S
C636 C639 1.386 . S
H637 C653 0.930 . S
H638 C654 0.931 . S
C639 H627 0.929 . S
C639 C633 1.390 . S
C639 C636 1.386 . S
C640 C635 1.490 . S
C640 C642 1.395 . S
C640 C643 1.403 . S
H641 C647 0.930 . S
C642 H628 0.930 . S
C642 C640 1.395 . S
C642 C645 1.403 . S
C643 C640 1.403 . S
C643 C644 1.524 . S
C643 C647 1.400 . S
C644 H629 0.960 . S
C644 H630 0.960 . S
C644 H631 0.960 . S
C644 C643 1.524 . S
C645 C642 1.403 . S
C645 C646 1.392 . S
C645 C649 1.495 1_556 S
C646 C645 1.392 . S
C646 C647 1.385 . S
C646 C648 1.478 . S
C647 H641 0.930 . S
C647 C643 1.400 . S
C647 C646 1.385 . S
C648 C646 1.478 . S
C648 C650 1.381 . S
C648 C654 1.383 1_556 S
C649 C645 1.495 1_554 S
C649 H655 0.959 . S
C649 H656 0.961 . S
C649 H657 0.960 . S
C650 C648 1.381 . S
C650 C651 1.394 1_556 S
C650 H658 0.930 . S
C651 C650 1.394 1_554 S
C651 C652 1.383 . S
C651 H659 0.929 . S
C652 C651 1.383 . S
C652 C653 1.377 . S
C653 H637 0.930 . S
C653 C652 1.377 . S
C653 C654 1.379 . S
C654 H638 0.931 . S
C654 C648 1.383 1_554 S
C654 C653 1.379 . S
H655 C649 0.959 . S
H656 C649 0.961 . S
H657 C649 0.960 . S
H658 C650 0.930 . S
H659 C651 0.929 . S
H660 C668 0.929 . S
H661 C670 0.930 . S
H662 C672 0.930 . S
H663 C675 0.929 . S
H664 C678 0.930 . S
H665 C680 0.960 . S
H666 C680 0.960 . S
H667 C680 0.960 . S
C668 H660 0.929 . S
C668 C669 1.377 . S
C668 C670 1.384 . S
C669 C668 1.377 . S
C669 C675 1.390 . S
C670 H661 0.930 . S
C670 C668 1.384 . S
C670 C671 1.372 . S
C671 C670 1.372 . S
C671 C672 1.400 . S
C671 C676 1.490 . S
C672 H662 0.930 . S
C672 C671 1.400 . S
C672 C675 1.386 . S
H673 C689 0.930 . S
H674 C690 0.931 . S
C675 H663 0.929 . S
C675 C669 1.390 . S
C675 C672 1.386 . S
C676 C671 1.490 . S
C676 C678 1.395 . S
C676 C679 1.403 . S
H677 C683 0.930 . S
C678 H664 0.930 . S
C678 C676 1.395 . S
C678 C681 1.403 . S
C679 C676 1.403 . S
C679 C680 1.524 . S
C679 C683 1.400 . S
C680 H665 0.960 . S
C680 H666 0.960 . S
C680 H667 0.960 . S
C680 C679 1.524 . S
C681 C678 1.403 . S
C681 C682 1.392 . S
C681 C685 1.495 . S
C682 C681 1.392 . S
C682 C683 1.385 . S
C682 C684 1.478 . S
C683 H677 0.930 . S
C683 C679 1.400 . S
C683 C682 1.385 . S
C684 C682 1.478 . S
C684 C686 1.381 . S
C684 C690 1.383 . S
C685 C681 1.495 . S
C685 H691 0.959 . S
C685 H692 0.961 . S
C685 H693 0.960 . S
C686 C684 1.381 . S
C686 C687 1.394 . S
C686 H694 0.930 . S
C687 C686 1.394 . S
C687 C688 1.383 . S
C687 H695 0.929 . S
C688 C687 1.383 . S
C688 C689 1.377 . S
C689 H673 0.930 . S
C689 C688 1.377 . S
C689 C690 1.379 . S
C690 H674 0.931 . S
C690 C684 1.383 . S
C690 C689 1.379 . S
H691 C685 0.959 . S
H692 C685 0.961 . S
H693 C685 0.960 . S
H694 C686 0.930 . S
H695 C687 0.929 . S
H696 C704 0.929 . S
H697 C706 0.930 . S
H698 C708 0.930 . S
H699 C711 0.929 . S
H700 C714 0.930 . S
H701 C716 0.960 . S
H702 C716 0.960 . S
H703 C716 0.960 . S
C704 H696 0.929 . S
C704 C705 1.377 . S
C704 C706 1.384 . S
C705 C704 1.377 . S
C705 C711 1.390 . S
C706 H697 0.930 . S
C706 C704 1.384 . S
C706 C707 1.372 . S
C707 C706 1.372 . S
C707 C708 1.400 . S
C707 C712 1.490 . S
C708 H698 0.930 . S
C708 C707 1.400 . S
C708 C711 1.386 . S
H709 C725 0.930 . S
H710 C726 0.931 . S
C711 H699 0.929 . S
C711 C705 1.390 . S
C711 C708 1.386 . S
C712 C707 1.490 . S
C712 C714 1.395 . S
C712 C715 1.403 . S
H713 C719 0.930 . S
C714 H700 0.930 . S
C714 C712 1.395 . S
C714 C717 1.403 . S
C715 C712 1.403 . S
C715 C716 1.524 . S
C715 C719 1.400 . S
C716 H701 0.960 . S
C716 H702 0.960 . S
C716 H703 0.960 . S
C716 C715 1.524 . S
C717 C714 1.403 . S
C717 C718 1.392 . S
C717 C721 1.495 . S
C718 C717 1.392 . S
C718 C719 1.385 . S
C718 C720 1.478 . S
C719 H713 0.930 . S
C719 C715 1.400 . S
C719 C718 1.385 . S
C720 C718 1.478 . S
C720 C722 1.381 . S
C720 C726 1.383 . S
C721 C717 1.495 . S
C721 H727 0.959 . S
C721 H728 0.961 . S
C721 H729 0.960 . S
C722 C720 1.381 . S
C722 C723 1.394 . S
C722 H730 0.930 . S
C723 C722 1.394 . S
C723 C724 1.383 . S
C723 H731 0.929 . S
C724 C723 1.383 . S
C724 C725 1.377 . S
C725 H709 0.930 . S
C725 C724 1.377 . S
C725 C726 1.379 . S
C726 H710 0.931 . S
C726 C720 1.383 . S
C726 C725 1.379 . S
H727 C721 0.959 . S
H728 C721 0.961 . S
H729 C721 0.960 . S
H730 C722 0.930 . S
H731 C723 0.929 . S
H732 C740 0.929 . S
H733 C742 0.930 . S
H734 C744 0.930 . S
H735 C747 0.929 . S
H736 C750 0.930 . S
H737 C752 0.960 . S
H738 C752 0.960 . S
H739 C752 0.960 . S
C740 H732 0.929 . S
C740 C741 1.377 . S
C740 C742 1.384 . S
C741 C740 1.377 . S
C741 C747 1.390 . S
C742 H733 0.930 . S
C742 C740 1.384 . S
C742 C743 1.372 . S
C743 C742 1.372 . S
C743 C744 1.400 . S
C743 C748 1.490 . S
C744 H734 0.930 . S
C744 C743 1.400 . S
C744 C747 1.386 . S
H745 C761 0.930 . S
H746 C762 0.931 . S
C747 H735 0.929 . S
C747 C741 1.390 . S
C747 C744 1.386 . S
C748 C743 1.490 . S
C748 C750 1.395 . S
C748 C751 1.403 . S
H749 C755 0.930 . S
C750 H736 0.930 . S
C750 C748 1.395 . S
C750 C753 1.403 . S
C751 C748 1.403 . S
C751 C752 1.524 . S
C751 C755 1.400 . S
C752 H737 0.960 . S
C752 H738 0.960 . S
C752 H739 0.960 . S
C752 C751 1.524 . S
C753 C750 1.403 . S
C753 C754 1.392 . S
C753 C757 1.495 . S
C754 C753 1.392 . S
C754 C755 1.385 . S
C754 C756 1.478 . S
C755 H749 0.930 . S
C755 C751 1.400 . S
C755 C754 1.385 . S
C756 C754 1.478 . S
C756 C758 1.381 . S
C756 C762 1.383 . S
C757 C753 1.495 . S
C757 H763 0.959 . S
C757 H764 0.961 . S
C757 H765 0.960 . S
C758 C756 1.381 . S
C758 C759 1.394 . S
C758 H766 0.930 . S
C759 C758 1.394 . S
C759 C760 1.383 . S
C759 H767 0.929 . S
C760 C759 1.383 . S
C760 C761 1.377 . S
C761 H745 0.930 . S
C761 C760 1.377 . S
C761 C762 1.379 . S
C762 H746 0.931 . S
C762 C756 1.383 . S
C762 C761 1.379 . S
H763 C757 0.959 . S
H764 C757 0.961 . S
H765 C757 0.960 . S
H766 C758 0.930 . S
H767 C759 0.929 . S
H768 C776 0.929 . S
H769 C778 0.930 . S
H770 C780 0.930 . S
H771 C783 0.929 . S
H772 C786 0.930 1_556 S
H773 C788 0.960 . S
H774 C788 0.960 . S
H775 C788 0.960 . S
C776 H768 0.929 . S
C776 C777 1.377 . S
C776 C778 1.384 . S
C777 C776 1.377 . S
C777 C783 1.390 1_556 S
C778 H769 0.930 . S
C778 C776 1.384 . S
C778 C779 1.372 1_556 S
C779 C778 1.372 1_554 S
C779 C780 1.400 . S
C779 C784 1.490 . S
C780 H770 0.930 . S
C780 C779 1.400 . S
C780 C783 1.386 . S
H781 C797 0.930 . S
H782 C798 0.931 . S
C783 H771 0.929 . S
C783 C777 1.390 1_554 S
C783 C780 1.386 . S
C784 C779 1.490 . S
C784 C786 1.395 . S
C784 C787 1.403 . S
H785 C791 0.930 . S
C786 H772 0.930 1_554 S
C786 C784 1.395 . S
C786 C789 1.403 . S
C787 C784 1.403 . S
C787 C788 1.524 . S
C787 C791 1.400 . S
C788 H773 0.960 . S
C788 H774 0.960 . S
C788 H775 0.960 . S
C788 C787 1.524 . S
C789 C786 1.403 . S
C789 C790 1.392 . S
C789 C793 1.495 . S
C790 C789 1.392 . S
C790 C791 1.385 . S
C790 C792 1.478 . S
C791 H785 0.930 . S
C791 C787 1.400 . S
C791 C790 1.385 . S
C792 C790 1.478 . S
C792 C794 1.381 . S
C792 C798 1.383 . S
C793 C789 1.495 . S
C793 H799 0.959 1_554 S
C793 H800 0.961 . S
C793 H801 0.960 . S
C794 C792 1.381 . S
C794 C795 1.394 . S
C794 H802 0.930 . S
C795 C794 1.394 . S
C795 C796 1.383 . S
C795 H803 0.929 . S
C796 C795 1.383 . S
C796 C797 1.377 . S
C797 H781 0.930 . S
C797 C796 1.377 . S
C797 C798 1.379 . S
C798 H782 0.931 . S
C798 C792 1.383 . S
C798 C797 1.379 . S
H799 C793 0.959 1_556 S
H800 C793 0.961 . S
H801 C793 0.960 . S
H802 C794 0.930 . S
H803 C795 0.929 . S
H804 C812 0.929 . S
H805 C814 0.930 . S
H806 C816 0.930 . S
H807 C819 0.929 . S
H808 C822 0.930 . S
H809 C824 0.960 . S
H810 C824 0.960 . S
H811 C824 0.960 . S
C812 H804 0.929 . S
C812 C813 1.377 . S
C812 C814 1.384 . S
C813 C812 1.377 . S
C813 C819 1.390 . S
C814 H805 0.930 . S
C814 C812 1.384 . S
C814 C815 1.372 . S
C815 C814 1.372 . S
C815 C816 1.400 . S
C815 C820 1.490 . S
C816 H806 0.930 . S
C816 C815 1.400 . S
C816 C819 1.386 . S
H817 C833 0.930 . S
H818 C834 0.931 . S
C819 H807 0.929 . S
C819 C813 1.390 . S
C819 C816 1.386 . S
C820 C815 1.490 . S
C820 C822 1.395 . S
C820 C823 1.403 . S
H821 C827 0.930 . S
C822 H808 0.930 . S
C822 C820 1.395 . S
C822 C825 1.403 . S
C823 C820 1.403 . S
C823 C824 1.524 . S
C823 C827 1.400 . S
C824 H809 0.960 . S
C824 H810 0.960 . S
C824 H811 0.960 . S
C824 C823 1.524 . S
C825 C822 1.403 . S
C825 C826 1.392 . S
C825 C829 1.495 . S
C826 C825 1.392 . S
C826 C827 1.385 . S
C826 C828 1.478 . S
C827 H821 0.930 . S
C827 C823 1.400 . S
C827 C826 1.385 . S
C828 C826 1.478 . S
C828 C830 1.381 . S
C828 C834 1.383 . S
C829 C825 1.495 . S
C829 H835 0.959 . S
C829 H836 0.961 . S
C829 H837 0.960 . S
C830 C828 1.381 . S
C830 C831 1.394 . S
C830 H838 0.930 . S
C831 C830 1.394 . S
C831 C832 1.383 . S
C831 H839 0.929 . S
C832 C831 1.383 . S
C832 C833 1.377 . S
C833 H817 0.930 . S
C833 C832 1.377 . S
C833 C834 1.379 . S
C834 H818 0.931 . S
C834 C828 1.383 . S
C834 C833 1.379 . S
H835 C829 0.959 . S
H836 C829 0.961 . S
H837 C829 0.960 . S
H838 C830 0.930 . S
H839 C831 0.929 . S
H840 C848 0.929 . S
H841 C850 0.930 . S
H842 C852 0.930 . S
H843 C855 0.929 . S
H844 C858 0.930 . S
H845 C860 0.960 . S
H846 C860 0.960 . S
H847 C860 0.960 . S
C848 H840 0.929 . S
C848 C849 1.377 . S
C848 C850 1.384 . S
C849 C848 1.377 . S
C849 C855 1.390 . S
C850 H841 0.930 . S
C850 C848 1.384 . S
C850 C851 1.372 . S
C851 C850 1.372 . S
C851 C852 1.400 . S
C851 C856 1.490 . S
C852 H842 0.930 . S
C852 C851 1.400 . S
C852 C855 1.386 . S
H853 C869 0.930 . S
H854 C870 0.931 . S
C855 H843 0.929 . S
C855 C849 1.390 . S
C855 C852 1.386 . S
C856 C851 1.490 . S
C856 C858 1.395 . S
C856 C859 1.403 . S
H857 C863 0.930 . S
C858 H844 0.930 . S
C858 C856 1.395 . S
C858 C861 1.403 . S
C859 C856 1.403 . S
C859 C860 1.524 . S
C859 C863 1.400 . S
C860 H845 0.960 . S
C860 H846 0.960 . S
C860 H847 0.960 . S
C860 C859 1.524 . S
C861 C858 1.403 . S
C861 C862 1.392 . S
C861 C865 1.495 . S
C862 C861 1.392 . S
C862 C863 1.385 . S
C862 C864 1.478 . S
C863 H857 0.930 . S
C863 C859 1.400 . S
C863 C862 1.385 . S
C864 C862 1.478 . S
C864 C866 1.381 . S
C864 C870 1.383 . S
C865 C861 1.495 . S
C865 H871 0.959 . S
C865 H872 0.961 . S
C865 H873 0.960 . S
C866 C864 1.381 . S
C866 C867 1.394 . S
C866 H874 0.930 . S
C867 C866 1.394 . S
C867 C868 1.383 . S
C867 H875 0.929 . S
C868 C867 1.383 . S
C868 C869 1.377 . S
C869 H853 0.930 . S
C869 C868 1.377 . S
C869 C870 1.379 . S
C870 H854 0.931 . S
C870 C864 1.383 . S
C870 C869 1.379 . S
H871 C865 0.959 . S
H872 C865 0.961 . S
H873 C865 0.960 . S
H874 C866 0.930 . S
H875 C867 0.929 . S
H876 C884 0.929 . S
H877 C886 0.930 . S
H878 C888 0.930 . S
H879 C891 0.929 . S
H880 C894 0.930 . S
H881 C896 0.960 . S
H882 C896 0.960 . S
H883 C896 0.960 . S
C884 H876 0.929 . S
C884 C885 1.377 . S
C884 C886 1.384 . S
C885 C884 1.377 . S
C885 C891 1.390 . S
C886 H877 0.930 . S
C886 C884 1.384 . S
C886 C887 1.372 . S
C887 C886 1.372 . S
C887 C888 1.400 . S
C887 C892 1.490 . S
C888 H878 0.930 . S
C888 C887 1.400 . S
C888 C891 1.386 . S
H889 C905 0.930 . S
H890 C906 0.931 . S
C891 H879 0.929 . S
C891 C885 1.390 . S
C891 C888 1.386 . S
C892 C887 1.490 . S
C892 C894 1.395 . S
C892 C895 1.403 . S
H893 C899 0.930 . S
C894 H880 0.930 . S
C894 C892 1.395 . S
C894 C897 1.403 . S
C895 C892 1.403 . S
C895 C896 1.524 . S
C895 C899 1.400 . S
C896 H881 0.960 . S
C896 H882 0.960 . S
C896 H883 0.960 . S
C896 C895 1.524 . S
C897 C894 1.403 . S
C897 C898 1.392 . S
C897 C901 1.495 . S
C898 C897 1.392 . S
C898 C899 1.385 . S
C898 C900 1.478 . S
C899 H893 0.930 . S
C899 C895 1.400 . S
C899 C898 1.385 . S
C900 C898 1.478 . S
C900 C902 1.381 . S
C900 C906 1.383 . S
C901 C897 1.495 . S
C901 H907 0.959 . S
C901 H908 0.961 . S
C901 H909 0.960 . S
C902 C900 1.381 . S
C902 C903 1.394 . S
C902 H910 0.930 . S
C903 C902 1.394 . S
C903 C904 1.383 . S
C903 H911 0.929 . S
C904 C903 1.383 . S
C904 C905 1.377 . S
C905 H889 0.930 . S
C905 C904 1.377 . S
C905 C906 1.379 . S
C906 H890 0.931 . S
C906 C900 1.383 . S
C906 C905 1.379 . S
H907 C901 0.959 . S
H908 C901 0.961 . S
H909 C901 0.960 . S
H910 C902 0.930 . S
H911 C903 0.929 . S
H912 C920 0.929 . S
H913 C922 0.930 . S
H914 C924 0.930 . S
H915 C927 0.929 . S
H916 C930 0.930 . S
H917 C932 0.960 . S
H918 C932 0.960 . S
H919 C932 0.960 . S
C920 H912 0.929 . S
C920 C921 1.377 . S
C920 C922 1.384 . S
C921 C920 1.377 . S
C921 C927 1.390 . S
C922 H913 0.930 . S
C922 C920 1.384 . S
C922 C923 1.372 . S
C923 C922 1.372 . S
C923 C924 1.400 . S
C923 C928 1.490 . S
C924 H914 0.930 . S
C924 C923 1.400 . S
C924 C927 1.386 . S
H925 C941 0.930 . S
H926 C942 0.931 . S
C927 H915 0.929 . S
C927 C921 1.390 . S
C927 C924 1.386 . S
C928 C923 1.490 . S
C928 C930 1.395 . S
C928 C931 1.403 . S
H929 C935 0.930 . S
C930 H916 0.930 . S
C930 C928 1.395 . S
C930 C933 1.403 . S
C931 C928 1.403 . S
C931 C932 1.524 . S
C931 C935 1.400 . S
C932 H917 0.960 . S
C932 H918 0.960 . S
C932 H919 0.960 . S
C932 C931 1.524 . S
C933 C930 1.403 . S
C933 C934 1.392 . S
C933 C937 1.495 . S
C934 C933 1.392 . S
C934 C935 1.385 . S
C934 C936 1.478 . S
C935 H929 0.930 . S
C935 C931 1.400 . S
C935 C934 1.385 . S
C936 C934 1.478 . S
C936 C938 1.381 . S
C936 C942 1.383 . S
C937 C933 1.495 . S
C937 H943 0.959 . S
C937 H944 0.961 . S
C937 H945 0.960 . S
C938 C936 1.381 . S
C938 C939 1.394 . S
C938 H946 0.930 . S
C939 C938 1.394 . S
C939 C940 1.383 . S
C939 H947 0.929 . S
C940 C939 1.383 . S
C940 C941 1.377 . S
C941 H925 0.930 . S
C941 C940 1.377 . S
C941 C942 1.379 . S
C942 H926 0.931 . S
C942 C936 1.383 . S
C942 C941 1.379 . S
H943 C937 0.959 . S
H944 C937 0.961 . S
H945 C937 0.960 . S
H946 C938 0.930 . S
H947 C939 0.929 . S
H948 C956 0.929 . S
H949 C958 0.930 . S
H950 C960 0.930 1_565 S
H951 C963 0.929 . S
H952 C966 0.930 . S
H953 C968 0.960 . S
H954 C968 0.960 . S
H955 C968 0.960 . S
C956 H948 0.929 . S
C956 C957 1.377 . S
C956 C958 1.384 . S
C957 C956 1.377 . S
C957 C963 1.390 . S
C958 H949 0.930 . S
C958 C956 1.384 . S
C958 C959 1.372 . S
C959 C958 1.372 . S
C959 C960 1.400 . S
C959 C964 1.490 1_545 S
C960 H950 0.930 1_545 S
C960 C959 1.400 . S
C960 C963 1.386 . S
H961 C977 0.930 . S
H962 C978 0.931 . S
C963 H951 0.929 . S
C963 C957 1.390 . S
C963 C960 1.386 . S
C964 C959 1.490 1_565 S
C964 C966 1.395 . S
C964 C967 1.403 . S
H965 C971 0.930 . S
C966 H952 0.930 . S
C966 C964 1.395 . S
C966 C969 1.403 . S
C967 C964 1.403 . S
C967 C968 1.524 . S
C967 C971 1.400 . S
C968 H953 0.960 . S
C968 H954 0.960 . S
C968 H955 0.960 . S
C968 C967 1.524 . S
C969 C966 1.403 . S
C969 C970 1.392 . S
C969 C973 1.495 . S
C970 C969 1.392 . S
C970 C971 1.385 . S
C970 C972 1.478 . S
C971 H965 0.930 . S
C971 C967 1.400 . S
C971 C970 1.385 . S
C972 C970 1.478 . S
C972 C974 1.381 . S
C972 C978 1.383 . S
C973 C969 1.495 . S
C973 H979 0.959 . S
C973 H980 0.961 . S
C973 H981 0.960 . S
C974 C972 1.381 . S
C974 C975 1.394 . S
C974 H982 0.930 . S
C975 C974 1.394 . S
C975 C976 1.383 . S
C975 H983 0.929 . S
C976 C975 1.383 . S
C976 C977 1.377 . S
C977 H961 0.930 . S
C977 C976 1.377 . S
C977 C978 1.379 . S
C978 H962 0.931 . S
C978 C972 1.383 . S
C978 C977 1.379 . S
H979 C973 0.959 . S
H980 C973 0.961 . S
H981 C973 0.960 . S
H982 C974 0.930 . S
H983 C975 0.929 . S
H984 C992 0.929 . S
H985 C994 0.930 . S
H986 C996 0.930 . S
H987 C999 0.929 . S
H988 C1002 0.930 . S
H989 C1004 0.960 . S
H990 C1004 0.960 . S
H991 C1004 0.960 . S
C992 H984 0.929 . S
C992 C993 1.377 . S
C992 C994 1.384 1_554 S
C993 C992 1.377 . S
C993 C999 1.390 . S
C994 H985 0.930 . S
C994 C992 1.384 1_556 S
C994 C995 1.372 . S
C995 C994 1.372 . S
C995 C996 1.400 1_556 S
C995 C1000 1.490 . S
C996 H986 0.930 . S
C996 C995 1.400 1_554 S
C996 C999 1.386 . S
H997 C1013 0.930 . S
H998 C1014 0.931 . S
C999 H987 0.929 . S
C999 C993 1.390 . S
C999 C996 1.386 . S
C1000 C995 1.490 . S
C1000 C1002 1.395 . S
C1000 C1003 1.403 . S
H1001 C1007 0.930 . S
C1002 H988 0.930 . S
C1002 C1000 1.395 . S
C1002 C1005 1.403 . S
C1003 C1000 1.403 . S
C1003 C1004 1.524 1_556 S
C1003 C1007 1.400 . S
C1004 H989 0.960 . S
C1004 H990 0.960 . S
C1004 H991 0.960 . S
C1004 C1003 1.524 1_554 S
C1005 C1002 1.403 . S
C1005 C1006 1.392 . S
C1005 C1009 1.495 . S
C1006 C1005 1.392 . S
C1006 C1007 1.385 . S
C1006 C1008 1.478 . S
C1007 H1001 0.930 . S
C1007 C1003 1.400 . S
C1007 C1006 1.385 . S
C1008 C1006 1.478 . S
C1008 C1010 1.381 . S
C1008 C1014 1.383 . S
C1009 C1005 1.495 . S
C1009 H1015 0.959 . S
C1009 H1016 0.961 . S
C1009 H1017 0.960 . S
C1010 C1008 1.381 . S
C1010 C1011 1.394 . S
C1010 H1018 0.930 . S
C1011 C1010 1.394 . S
C1011 C1012 1.383 . S
C1011 H1019 0.929 . S
C1012 C1011 1.383 . S
C1012 C1013 1.377 . S
C1013 H997 0.930 . S
C1013 C1012 1.377 . S
C1013 C1014 1.379 . S
C1014 H998 0.931 . S
C1014 C1008 1.383 . S
C1014 C1013 1.379 . S
H1015 C1009 0.959 . S
H1016 C1009 0.961 . S
H1017 C1009 0.960 . S
H1018 C1010 0.930 . S
H1019 C1011 0.929 . S
H1020 C1028 0.929 . S
H1021 C1030 0.930 . S
H1022 C1032 0.930 1_545 S
H1023 C1035 0.929 . S
H1024 C1038 0.930 . S
H1025 C1040 0.960 . S
H1026 C1040 0.960 . S
H1027 C1040 0.960 . S
C1028 H1020 0.929 . S
C1028 C1029 1.377 . S
C1028 C1030 1.384 . S
C1029 C1028 1.377 . S
C1029 C1035 1.390 . S
C1030 H1021 0.930 . S
C1030 C1028 1.384 . S
C1030 C1031 1.372 . S
C1031 C1030 1.372 . S
C1031 C1032 1.400 . S
C1031 C1036 1.490 1_565 S
C1032 H1022 0.930 1_565 S
C1032 C1031 1.400 . S
C1032 C1035 1.386 . S
H1033 C1049 0.930 . S
H1034 C1050 0.931 . S
C1035 H1023 0.929 . S
C1035 C1029 1.390 . S
C1035 C1032 1.386 . S
C1036 C1031 1.490 1_545 S
C1036 C1038 1.395 . S
C1036 C1039 1.403 . S
H1037 C1043 0.930 . S
C1038 H1024 0.930 . S
C1038 C1036 1.395 . S
C1038 C1041 1.403 . S
C1039 C1036 1.403 . S
C1039 C1040 1.524 . S
C1039 C1043 1.400 . S
C1040 H1025 0.960 . S
C1040 H1026 0.960 . S
C1040 H1027 0.960 . S
C1040 C1039 1.524 . S
C1041 C1038 1.403 . S
C1041 C1042 1.392 . S
C1041 C1045 1.495 . S
C1042 C1041 1.392 . S
C1042 C1043 1.385 . S
C1042 C1044 1.478 . S
C1043 H1037 0.930 . S
C1043 C1039 1.400 . S
C1043 C1042 1.385 . S
C1044 C1042 1.478 . S
C1044 C1046 1.381 . S
C1044 C1050 1.383 . S
C1045 C1041 1.495 . S
C1045 H1051 0.959 . S
C1045 H1052 0.961 . S
C1045 H1053 0.960 . S
C1046 C1044 1.381 . S
C1046 C1047 1.394 . S
C1046 H1054 0.930 . S
C1047 C1046 1.394 . S
C1047 C1048 1.383 . S
C1047 H1055 0.929 . S
C1048 C1047 1.383 . S
C1048 C1049 1.377 . S
C1049 H1033 0.930 . S
C1049 C1048 1.377 . S
C1049 C1050 1.379 . S
C1050 H1034 0.931 . S
C1050 C1044 1.383 . S
C1050 C1049 1.379 . S
H1051 C1045 0.959 . S
H1052 C1045 0.961 . S
H1053 C1045 0.960 . S
H1054 C1046 0.930 . S
H1055 C1047 0.929 . S
H1056 C1064 0.929 . S
H1057 C1066 0.930 . S
H1058 C1068 0.930 . S
H1059 C1071 0.929 . S
H1060 C1074 0.930 . S
H1061 C1076 0.960 . S
H1062 C1076 0.960 . S
H1063 C1076 0.960 . S
C1064 H1056 0.929 . S
C1064 C1065 1.377 . S
C1064 C1066 1.384 . S
C1065 C1064 1.377 . S
C1065 C1071 1.390 . S
C1066 H1057 0.930 . S
C1066 C1064 1.384 . S
C1066 C1067 1.372 . S
C1067 C1066 1.372 . S
C1067 C1068 1.400 . S
C1067 C1072 1.490 . S
C1068 H1058 0.930 . S
C1068 C1067 1.400 . S
C1068 C1071 1.386 . S
H1069 C1085 0.930 . S
H1070 C1086 0.931 . S
C1071 H1059 0.929 . S
C1071 C1065 1.390 . S
C1071 C1068 1.386 . S
C1072 C1067 1.490 . S
C1072 C1074 1.395 . S
C1072 C1075 1.403 . S
H1073 C1079 0.930 . S
C1074 H1060 0.930 . S
C1074 C1072 1.395 . S
C1074 C1077 1.403 . S
C1075 C1072 1.403 . S
C1075 C1076 1.524 . S
C1075 C1079 1.400 . S
C1076 H1061 0.960 . S
C1076 H1062 0.960 . S
C1076 H1063 0.960 . S
C1076 C1075 1.524 . S
C1077 C1074 1.403 . S
C1077 C1078 1.392 . S
C1077 C1081 1.495 . S
C1078 C1077 1.392 . S
C1078 C1079 1.385 . S
C1078 C1080 1.478 . S
C1079 H1073 0.930 . S
C1079 C1075 1.400 . S
C1079 C1078 1.385 . S
C1080 C1078 1.478 . S
C1080 C1082 1.381 . S
C1080 C1086 1.383 . S
C1081 C1077 1.495 . S
C1081 H1087 0.959 . S
C1081 H1088 0.961 . S
C1081 H1089 0.960 . S
C1082 C1080 1.381 . S
C1082 C1083 1.394 . S
C1082 H1090 0.930 . S
C1083 C1082 1.394 . S
C1083 C1084 1.383 . S
C1083 H1091 0.929 . S
C1084 C1083 1.383 . S
C1084 C1085 1.377 . S
C1085 H1069 0.930 . S
C1085 C1084 1.377 . S
C1085 C1086 1.379 . S
C1086 H1070 0.931 . S
C1086 C1080 1.383 . S
C1086 C1085 1.379 . S
H1087 C1081 0.959 . S
H1088 C1081 0.961 . S
H1089 C1081 0.960 . S
H1090 C1082 0.930 . S
H1091 C1083 0.929 . S
H1092 C1100 0.929 . S
H1093 C1102 0.930 . S
H1094 C1104 0.930 . S
H1095 C1107 0.929 . S
H1096 C1110 0.930 . S
H1097 C1112 0.960 . S
H1098 C1112 0.960 . S
H1099 C1112 0.960 . S
C1100 H1092 0.929 . S
C1100 C1101 1.377 . S
C1100 C1102 1.384 . S
C1101 C1100 1.377 . S
C1101 C1107 1.390 . S
C1102 H1093 0.930 . S
C1102 C1100 1.384 . S
C1102 C1103 1.372 . S
C1103 C1102 1.372 . S
C1103 C1104 1.400 . S
C1103 C1108 1.490 . S
C1104 H1094 0.930 . S
C1104 C1103 1.400 . S
C1104 C1107 1.386 . S
H1105 C1121 0.930 . S
H1106 C1122 0.931 . S
C1107 H1095 0.929 . S
C1107 C1101 1.390 . S
C1107 C1104 1.386 . S
C1108 C1103 1.490 . S
C1108 C1110 1.395 . S
C1108 C1111 1.403 . S
H1109 C1115 0.930 . S
C1110 H1096 0.930 . S
C1110 C1108 1.395 . S
C1110 C1113 1.403 . S
C1111 C1108 1.403 . S
C1111 C1112 1.524 . S
C1111 C1115 1.400 . S
C1112 H1097 0.960 . S
C1112 H1098 0.960 . S
C1112 H1099 0.960 . S
C1112 C1111 1.524 . S
C1113 C1110 1.403 . S
C1113 C1114 1.392 . S
C1113 C1117 1.495 . S
C1114 C1113 1.392 . S
C1114 C1115 1.385 . S
C1114 C1116 1.478 1_545 S
C1115 H1109 0.930 . S
C1115 C1111 1.400 . S
C1115 C1114 1.385 . S
C1116 C1114 1.478 1_565 S
C1116 C1118 1.381 . S
C1116 C1122 1.383 . S
C1117 C1113 1.495 . S
C1117 H1123 0.959 . S
C1117 H1124 0.961 1_545 S
C1117 H1125 0.960 1_545 S
C1118 C1116 1.381 . S
C1118 C1119 1.394 . S
C1118 H1126 0.930 . S
C1119 C1118 1.394 . S
C1119 C1120 1.383 . S
C1119 H1127 0.929 . S
C1120 C1119 1.383 . S
C1120 C1121 1.377 . S
C1121 H1105 0.930 . S
C1121 C1120 1.377 . S
C1121 C1122 1.379 . S
C1122 H1106 0.931 . S
C1122 C1116 1.383 . S
C1122 C1121 1.379 . S
H1123 C1117 0.959 . S
H1124 C1117 0.961 1_565 S
H1125 C1117 0.960 1_565 S
H1126 C1118 0.930 . S
H1127 C1119 0.929 . S
H1128 C1136 0.929 . S
H1129 C1138 0.930 . S
H1130 C1140 0.930 . S
H1131 C1143 0.929 . S
H1132 C1146 0.930 . S
H1133 C1148 0.960 . S
H1134 C1148 0.960 . S
H1135 C1148 0.960 . S
C1136 H1128 0.929 . S
C1136 C1137 1.377 . S
C1136 C1138 1.384 . S
C1137 C1136 1.377 . S
C1137 C1143 1.390 . S
C1138 H1129 0.930 . S
C1138 C1136 1.384 . S
C1138 C1139 1.372 . S
C1139 C1138 1.372 . S
C1139 C1140 1.400 . S
C1139 C1144 1.490 . S
C1140 H1130 0.930 . S
C1140 C1139 1.400 . S
C1140 C1143 1.386 . S
H1141 C1157 0.930 . S
H1142 C1158 0.931 . S
C1143 H1131 0.929 . S
C1143 C1137 1.390 . S
C1143 C1140 1.386 . S
C1144 C1139 1.490 . S
C1144 C1146 1.395 . S
C1144 C1147 1.403 . S
H1145 C1151 0.930 . S
C1146 H1132 0.930 . S
C1146 C1144 1.395 . S
C1146 C1149 1.403 . S
C1147 C1144 1.403 . S
C1147 C1148 1.524 . S
C1147 C1151 1.400 . S
C1148 H1133 0.960 . S
C1148 H1134 0.960 . S
C1148 H1135 0.960 . S
C1148 C1147 1.524 . S
C1149 C1146 1.403 . S
C1149 C1150 1.392 . S
C1149 C1153 1.495 . S
C1150 C1149 1.392 . S
C1150 C1151 1.385 . S
C1150 C1152 1.478 . S
C1151 H1145 0.930 . S
C1151 C1147 1.400 . S
C1151 C1150 1.385 . S
C1152 C1150 1.478 . S
C1152 C1154 1.381 1_554 S
C1152 C1158 1.383 . S
C1153 C1149 1.495 . S
C1153 H1159 0.959 . S
C1153 H1160 0.961 . S
C1153 H1161 0.960 1_554 S
C1154 C1152 1.381 1_556 S
C1154 C1155 1.394 . S
C1154 H1162 0.930 . S
C1155 C1154 1.394 . S
C1155 C1156 1.383 . S
C1155 H1163 0.929 . S
C1156 C1155 1.383 . S
C1156 C1157 1.377 1_556 S
C1157 H1141 0.930 . S
C1157 C1156 1.377 1_554 S
C1157 C1158 1.379 . S
C1158 H1142 0.931 . S
C1158 C1152 1.383 . S
C1158 C1157 1.379 . S
H1159 C1153 0.959 . S
H1160 C1153 0.961 . S
H1161 C1153 0.960 1_556 S
H1162 C1154 0.930 . S
H1163 C1155 0.929 . S
H1164 C1172 0.929 . S
H1165 C1174 0.930 1_565 S
H1166 C1176 0.930 . S
H1167 C1179 0.929 . S
H1168 C1182 0.930 . S
H1169 C1184 0.960 . S
H1170 C1184 0.960 . S
H1171 C1184 0.960 1_545 S
C1172 H1164 0.929 . S
C1172 C1173 1.377 . S
C1172 C1174 1.384 . S
C1173 C1172 1.377 . S
C1173 C1179 1.390 . S
C1174 H1165 0.930 1_545 S
C1174 C1172 1.384 . S
C1174 C1175 1.372 . S
C1175 C1174 1.372 . S
C1175 C1176 1.400 . S
C1175 C1180 1.490 1_545 S
C1176 H1166 0.930 . S
C1176 C1175 1.400 . S
C1176 C1179 1.386 . S
H1177 C1193 0.930 . S
H1178 C1194 0.931 . S
C1179 H1167 0.929 . S
C1179 C1173 1.390 . S
C1179 C1176 1.386 . S
C1180 C1175 1.490 1_565 S
C1180 C1182 1.395 . S
C1180 C1183 1.403 . S
H1181 C1187 0.930 . S
C1182 H1168 0.930 . S
C1182 C1180 1.395 . S
C1182 C1185 1.403 . S
C1183 C1180 1.403 . S
C1183 C1184 1.524 . S
C1183 C1187 1.400 . S
C1184 H1169 0.960 . S
C1184 H1170 0.960 . S
C1184 H1171 0.960 1_565 S
C1184 C1183 1.524 . S
C1185 C1182 1.403 . S
C1185 C1186 1.392 . S
C1185 C1189 1.495 . S
C1186 C1185 1.392 . S
C1186 C1187 1.385 . S
C1186 C1188 1.478 . S
C1187 H1181 0.930 . S
C1187 C1183 1.400 . S
C1187 C1186 1.385 . S
C1188 C1186 1.478 . S
C1188 C1190 1.381 . S
C1188 C1194 1.383 . S
C1189 C1185 1.495 . S
C1189 H1195 0.959 . S
C1189 H1196 0.961 . S
C1189 H1197 0.960 . S
C1190 C1188 1.381 . S
C1190 C1191 1.394 . S
C1190 H1198 0.930 . S
C1191 C1190 1.394 . S
C1191 C1192 1.383 . S
C1191 H1199 0.929 . S
C1192 C1191 1.383 . S
C1192 C1193 1.377 . S
C1193 H1177 0.930 . S
C1193 C1192 1.377 . S
C1193 C1194 1.379 . S
C1194 H1178 0.931 . S
C1194 C1188 1.383 . S
C1194 C1193 1.379 . S
H1195 C1189 0.959 . S
H1196 C1189 0.961 . S
H1197 C1189 0.960 . S
H1198 C1190 0.930 . S
H1199 C1191 0.929 . S
H1200 C1208 0.929 . S
H1201 C1210 0.930 . S
H1202 C1212 0.930 . S
H1203 C1215 0.929 . S
H1204 C1218 0.930 . S
H1205 C1220 0.960 . S
H1206 C1220 0.960 . S
H1207 C1220 0.960 . S
C1208 H1200 0.929 . S
C1208 C1209 1.377 . S
C1208 C1210 1.384 . S
C1209 C1208 1.377 . S
C1209 C1215 1.390 . S
C1210 H1201 0.930 . S
C1210 C1208 1.384 . S
C1210 C1211 1.372 . S
C1211 C1210 1.372 . S
C1211 C1212 1.400 . S
C1211 C1216 1.490 . S
C1212 H1202 0.930 . S
C1212 C1211 1.400 . S
C1212 C1215 1.386 . S
H1213 C1229 0.930 . S
H1214 C1230 0.931 . S
C1215 H1203 0.929 . S
C1215 C1209 1.390 . S
C1215 C1212 1.386 . S
C1216 C1211 1.490 . S
C1216 C1218 1.395 . S
C1216 C1219 1.403 . S
H1217 C1223 0.930 . S
C1218 H1204 0.930 . S
C1218 C1216 1.395 . S
C1218 C1221 1.403 . S
C1219 C1216 1.403 . S
C1219 C1220 1.524 . S
C1219 C1223 1.400 . S
C1220 H1205 0.960 . S
C1220 H1206 0.960 . S
C1220 H1207 0.960 . S
C1220 C1219 1.524 . S
C1221 C1218 1.403 . S
C1221 C1222 1.392 . S
C1221 C1225 1.495 . S
C1222 C1221 1.392 . S
C1222 C1223 1.385 . S
C1222 C1224 1.478 . S
C1223 H1217 0.930 . S
C1223 C1219 1.400 . S
C1223 C1222 1.385 . S
C1224 C1222 1.478 . S
C1224 C1226 1.381 . S
C1224 C1230 1.383 . S
C1225 C1221 1.495 . S
C1225 H1231 0.959 . S
C1225 H1232 0.961 . S
C1225 H1233 0.960 . S
C1226 C1224 1.381 . S
C1226 C1227 1.394 . S
C1226 H1234 0.930 . S
C1227 C1226 1.394 . S
C1227 C1228 1.383 . S
C1227 H1235 0.929 . S
C1228 C1227 1.383 . S
C1228 C1229 1.377 . S
C1229 H1213 0.930 . S
C1229 C1228 1.377 . S
C1229 C1230 1.379 . S
C1230 H1214 0.931 . S
C1230 C1224 1.383 . S
C1230 C1229 1.379 . S
H1231 C1225 0.959 . S
H1232 C1225 0.961 . S
H1233 C1225 0.960 . S
H1234 C1226 0.930 . S
H1235 C1227 0.929 . S
H1236 C1244 0.929 . S
H1237 C1246 0.930 . S
H1238 C1248 0.930 . S
H1239 C1251 0.929 . S
H1240 C1254 0.930 . S
H1241 C1256 0.960 . S
H1242 C1256 0.960 . S
H1243 C1256 0.960 . S
C1244 H1236 0.929 . S
C1244 C1245 1.377 . S
C1244 C1246 1.384 . S
C1245 C1244 1.377 . S
C1245 C1251 1.390 . S
C1246 H1237 0.930 . S
C1246 C1244 1.384 . S
C1246 C1247 1.372 . S
C1247 C1246 1.372 . S
C1247 C1248 1.400 . S
C1247 C1252 1.490 . S
C1248 H1238 0.930 . S
C1248 C1247 1.400 . S
C1248 C1251 1.386 . S
H1249 C1265 0.930 . S
H1250 C1266 0.931 . S
C1251 H1239 0.929 . S
C1251 C1245 1.390 . S
C1251 C1248 1.386 . S
C1252 C1247 1.490 . S
C1252 C1254 1.395 . S
C1252 C1255 1.403 . S
H1253 C1259 0.930 . S
C1254 H1240 0.930 . S
C1254 C1252 1.395 . S
C1254 C1257 1.403 . S
C1255 C1252 1.403 . S
C1255 C1256 1.524 . S
C1255 C1259 1.400 . S
C1256 H1241 0.960 . S
C1256 H1242 0.960 . S
C1256 H1243 0.960 . S
C1256 C1255 1.524 . S
C1257 C1254 1.403 . S
C1257 C1258 1.392 . S
C1257 C1261 1.495 . S
C1258 C1257 1.392 . S
C1258 C1259 1.385 . S
C1258 C1260 1.478 . S
C1259 H1253 0.930 . S
C1259 C1255 1.400 . S
C1259 C1258 1.385 . S
C1260 C1258 1.478 . S
C1260 C1262 1.381 . S
C1260 C1266 1.383 . S
C1261 C1257 1.495 . S
C1261 H1267 0.959 . S
C1261 H1268 0.961 . S
C1261 H1269 0.960 . S
C1262 C1260 1.381 . S
C1262 C1263 1.394 1_554 S
C1262 H1270 0.930 . S
C1263 C1262 1.394 1_556 S
C1263 C1264 1.383 1_556 S
C1263 H1271 0.929 . S
C1264 C1263 1.383 1_554 S
C1264 C1265 1.377 . S
C1265 H1249 0.930 . S
C1265 C1264 1.377 . S
C1265 C1266 1.379 . S
C1266 H1250 0.931 . S
C1266 C1260 1.383 . S
C1266 C1265 1.379 . S
H1267 C1261 0.959 . S
H1268 C1261 0.961 . S
H1269 C1261 0.960 . S
H1270 C1262 0.930 . S
H1271 C1263 0.929 . S
H1272 C1280 0.929 . S
H1273 C1282 0.930 . S
H1274 C1284 0.930 . S
H1275 C1287 0.929 . S
H1276 C1290 0.878 1_655 S
H1277 C1292 0.960 . S
H1278 C1292 0.960 . S
H1279 C1292 0.960 . S
C1280 H1272 0.929 . S
C1280 C1281 1.377 . S
C1280 C1282 1.384 . S
C1281 C1280 1.377 . S
C1281 C1287 1.390 . S
C1282 H1273 0.930 . S
C1282 C1280 1.384 . S
C1282 C1283 1.372 1_655 S
C1283 C1282 1.372 1_455 S
C1283 C1284 1.400 . S
C1283 C1288 1.490 . S
C1284 H1274 0.930 . S
C1284 C1283 1.400 . S
C1284 C1287 1.386 1_455 S
H1285 C1301 0.930 . S
H1286 C1302 0.931 . S
C1287 H1275 0.929 . S
C1287 C1281 1.390 . S
C1287 C1284 1.386 1_655 S
C1288 C1283 1.490 . S
C1288 C1290 1.395 . S
C1288 C1291 1.403 . S
H1289 C1295 0.930 . S
C1290 H1276 0.878 1_455 S
C1290 C1288 1.395 . S
C1290 C1293 1.403 . S
C1291 C1288 1.403 . S
C1291 C1292 1.524 . S
C1291 C1295 1.400 . S
C1292 H1277 0.960 . S
C1292 H1278 0.960 . S
C1292 H1279 0.960 . S
C1292 C1291 1.524 . S
C1293 C1290 1.403 . S
C1293 C1294 1.392 . S
C1293 C1297 1.495 . S
C1294 C1293 1.392 . S
C1294 C1295 1.385 . S
C1294 C1296 1.478 . S
C1295 H1289 0.930 . S
C1295 C1291 1.400 . S
C1295 C1294 1.385 . S
C1296 C1294 1.478 . S
C1296 C1298 1.381 . S
C1296 C1302 1.383 . S
C1297 C1293 1.495 . S
C1297 H1303 0.959 . S
C1297 H1304 0.961 . S
C1297 H1305 0.960 . S
C1298 C1296 1.381 . S
C1298 C1299 1.394 . S
C1298 H1306 0.930 . S
C1299 C1298 1.394 . S
C1299 C1300 1.383 . S
C1299 H1307 0.929 . S
C1300 C1299 1.383 . S
C1300 C1301 1.377 . S
C1301 H1285 0.930 . S
C1301 C1300 1.377 . S
C1301 C1302 1.379 . S
C1302 H1286 0.931 . S
C1302 C1296 1.383 . S
C1302 C1301 1.379 . S
H1303 C1297 0.959 . S
H1304 C1297 0.961 . S
H1305 C1297 0.960 . S
H1306 C1298 0.930 . S
H1307 C1299 0.929 . S
H1308 C1316 0.929 . S
H1309 C1318 0.930 . S
H1310 C1320 0.930 . S
H1311 C1323 0.929 . S
H1312 C1326 0.930 . S
H1313 C1328 0.960 . S
H1314 C1328 0.960 . S
H1315 C1328 0.960 . S
C1316 H1308 0.929 . S
C1316 C1317 1.377 . S
C1316 C1318 1.384 . S
C1317 C1316 1.377 . S
C1317 C1323 1.390 . S
C1318 H1309 0.930 . S
C1318 C1316 1.384 . S
C1318 C1319 1.372 . S
C1319 C1318 1.372 . S
C1319 C1320 1.400 . S
C1319 C1324 1.490 . S
C1320 H1310 0.930 . S
C1320 C1319 1.400 . S
C1320 C1323 1.386 . S
H1321 C1337 0.930 . S
H1322 C1338 0.931 . S
C1323 H1311 0.929 . S
C1323 C1317 1.390 . S
C1323 C1320 1.386 . S
C1324 C1319 1.490 . S
C1324 C1326 1.395 . S
C1324 C1327 1.403 . S
H1325 C1331 0.930 . S
C1326 H1312 0.930 . S
C1326 C1324 1.395 . S
C1326 C1329 1.403 . S
C1327 C1324 1.403 . S
C1327 C1328 1.524 . S
C1327 C1331 1.400 . S
C1328 H1313 0.960 . S
C1328 H1314 0.960 . S
C1328 H1315 0.960 . S
C1328 C1327 1.524 . S
C1329 C1326 1.403 . S
C1329 C1330 1.392 . S
C1329 C1333 1.495 . S
C1330 C1329 1.392 . S
C1330 C1331 1.385 . S
C1330 C1332 1.478 . S
C1331 H1325 0.930 . S
C1331 C1327 1.400 . S
C1331 C1330 1.385 . S
C1332 C1330 1.478 . S
C1332 C1334 1.381 . S
C1332 C1338 1.383 . S
C1333 C1329 1.495 . S
C1333 H1339 0.959 . S
C1333 H1340 0.961 . S
C1333 H1341 0.960 . S
C1334 C1332 1.381 . S
C1334 C1335 1.394 . S
C1334 H1342 0.930 . S
C1335 C1334 1.394 . S
C1335 C1336 1.383 . S
C1335 H1343 0.929 . S
C1336 C1335 1.383 . S
C1336 C1337 1.377 . S
C1337 H1321 0.930 . S
C1337 C1336 1.377 . S
C1337 C1338 1.379 . S
C1338 H1322 0.931 . S
C1338 C1332 1.383 . S
C1338 C1337 1.379 . S
H1339 C1333 0.959 . S
H1340 C1333 0.961 . S
H1341 C1333 0.960 . S
H1342 C1334 0.930 . S
H1343 C1335 0.929 . S
H1344 C1352 0.929 . S
H1345 C1354 0.930 . S
H1346 C1356 0.930 . S
H1347 C1359 0.929 . S
H1348 C1362 0.930 . S
H1349 C1364 0.960 . S
H1350 C1364 0.960 . S
H1351 C1364 0.960 . S
C1352 H1344 0.929 . S
C1352 C1353 1.377 . S
C1352 C1354 1.384 . S
C1353 C1352 1.377 . S
C1353 C1359 1.390 . S
C1354 H1345 0.930 . S
C1354 C1352 1.384 . S
C1354 C1355 1.372 . S
C1355 C1354 1.372 . S
C1355 C1356 1.400 . S
C1355 C1360 1.490 . S
C1356 H1346 0.930 . S
C1356 C1355 1.400 . S
C1356 C1359 1.386 . S
H1357 C1373 0.930 . S
H1358 C1374 0.931 . S
C1359 H1347 0.929 . S
C1359 C1353 1.390 . S
C1359 C1356 1.386 . S
C1360 C1355 1.490 . S
C1360 C1362 1.395 . S
C1360 C1363 1.403 . S
H1361 C1367 0.930 . S
C1362 H1348 0.930 . S
C1362 C1360 1.395 . S
C1362 C1365 1.403 . S
C1363 C1360 1.403 . S
C1363 C1364 1.524 . S
C1363 C1367 1.400 . S
C1364 H1349 0.960 . S
C1364 H1350 0.960 . S
C1364 H1351 0.960 . S
C1364 C1363 1.524 . S
C1365 C1362 1.403 . S
C1365 C1366 1.392 . S
C1365 C1369 1.495 . S
C1366 C1365 1.392 . S
C1366 C1367 1.385 . S
C1366 C1368 1.478 . S
C1367 H1361 0.930 . S
C1367 C1363 1.400 . S
C1367 C1366 1.385 . S
C1368 C1366 1.478 . S
C1368 C1370 1.381 . S
C1368 C1374 1.383 . S
C1369 C1365 1.495 . S
C1369 H1375 0.959 . S
C1369 H1376 0.961 . S
C1369 H1377 0.960 . S
C1370 C1368 1.381 . S
C1370 C1371 1.394 . S
C1370 H1378 0.930 . S
C1371 C1370 1.394 . S
C1371 C1372 1.383 . S
C1371 H1379 0.929 . S
C1372 C1371 1.383 . S
C1372 C1373 1.377 . S
C1373 H1357 0.930 . S
C1373 C1372 1.377 . S
C1373 C1374 1.379 . S
C1374 H1358 0.931 . S
C1374 C1368 1.383 . S
C1374 C1373 1.379 . S
H1375 C1369 0.959 . S
H1376 C1369 0.961 . S
H1377 C1369 0.960 . S
H1378 C1370 0.930 . S
H1379 C1371 0.929 . S
H1380 C1388 0.929 . S
H1381 C1390 0.930 . S
H1382 C1392 0.930 . S
H1383 C1395 0.929 . S
H1384 C1398 0.930 . S
H1385 C1400 0.960 . S
H1386 C1400 0.960 . S
H1387 C1400 0.960 . S
C1388 H1380 0.929 . S
C1388 C1389 1.377 . S
C1388 C1390 1.384 . S
C1389 C1388 1.377 . S
C1389 C1395 1.390 . S
C1390 H1381 0.930 . S
C1390 C1388 1.384 . S
C1390 C1391 1.372 . S
C1391 C1390 1.372 . S
C1391 C1392 1.400 . S
C1391 C1396 1.490 . S
C1392 H1382 0.930 . S
C1392 C1391 1.400 . S
C1392 C1395 1.386 . S
H1393 C1409 0.930 1_554 S
H1394 C1410 0.931 . S
C1395 H1383 0.929 . S
C1395 C1389 1.390 . S
C1395 C1392 1.386 . S
C1396 C1391 1.490 . S
C1396 C1398 1.395 . S
C1396 C1399 1.403 . S
H1397 C1403 0.930 . S
C1398 H1384 0.930 . S
C1398 C1396 1.395 . S
C1398 C1401 1.403 . S
C1399 C1396 1.403 . S
C1399 C1400 1.524 . S
C1399 C1403 1.400 . S
C1400 H1385 0.960 . S
C1400 H1386 0.960 . S
C1400 H1387 0.960 . S
C1400 C1399 1.524 . S
C1401 C1398 1.403 . S
C1401 C1402 1.392 . S
C1401 C1405 1.495 . S
C1402 C1401 1.392 . S
C1402 C1403 1.385 . S
C1402 C1404 1.478 . S
C1403 H1397 0.930 . S
C1403 C1399 1.400 . S
C1403 C1402 1.385 . S
C1404 C1402 1.478 . S
C1404 C1406 1.381 . S
C1404 C1410 1.383 . S
C1405 C1401 1.495 . S
C1405 H1411 0.959 . S
C1405 H1412 0.961 . S
C1405 H1413 0.960 . S
C1406 C1404 1.381 . S
C1406 C1407 1.394 . S
C1406 H1414 0.930 . S
C1407 C1406 1.394 . S
C1407 C1408 1.383 . S
C1407 H1415 0.929 . S
C1408 C1407 1.383 . S
C1408 C1409 1.377 . S
C1409 H1393 0.930 1_556 S
C1409 C1408 1.377 . S
C1409 C1410 1.379 . S
C1410 H1394 0.931 . S
C1410 C1404 1.383 . S
C1410 C1409 1.379 . S
H1411 C1405 0.959 . S
H1412 C1405 0.961 . S
H1413 C1405 0.960 . S
H1414 C1406 0.930 . S
H1415 C1407 0.929 . S
H1416 C1424 0.929 . S
H1417 C1426 0.930 . S
H1418 C1428 0.930 . S
H1419 C1431 0.931 1_655 S
H1420 C1434 0.930 . S
H1421 C1436 0.960 . S
H1422 C1436 0.960 . S
H1423 C1436 0.960 . S
C1424 H1416 0.929 . S
C1424 C1425 1.377 . S
C1424 C1426 1.384 . S
C1425 C1424 1.377 . S
C1425 C1431 1.386 . S
C1426 H1417 0.930 . S
C1426 C1424 1.384 . S
C1426 C1427 1.372 1_455 S
C1427 C1426 1.372 1_655 S
C1427 C1428 1.400 . S
C1427 C1432 1.490 . S
C1428 H1418 0.930 . S
C1428 C1427 1.400 . S
C1428 C1431 1.388 1_655 S
H1429 C1445 0.930 . S
H1430 C1446 0.931 . S
C1431 H1419 0.931 1_455 S
C1431 C1425 1.386 . S
C1431 C1428 1.388 1_455 S
C1432 C1427 1.490 . S
C1432 C1434 1.395 . S
C1432 C1435 1.403 . S
H1433 C1439 0.930 . S
C1434 H1420 0.930 . S
C1434 C1432 1.395 . S
C1434 C1437 1.403 . S
C1435 C1432 1.403 . S
C1435 C1436 1.524 . S
C1435 C1439 1.400 . S
C1436 H1421 0.960 . S
C1436 H1422 0.960 . S
C1436 H1423 0.960 . S
C1436 C1435 1.524 . S
C1437 C1434 1.403 . S
C1437 C1438 1.392 . S
C1437 C1441 1.495 . S
C1438 C1437 1.392 . S
C1438 C1439 1.385 . S
C1438 C1440 1.478 . S
C1439 H1433 0.930 . S
C1439 C1435 1.400 . S
C1439 C1438 1.385 . S
C1440 C1438 1.478 . S
C1440 C1442 1.381 . S
C1440 C1446 1.383 . S
C1441 C1437 1.495 . S
C1441 H1447 0.959 . S
C1441 H1448 0.961 . S
C1441 H1449 0.960 . S
C1442 C1440 1.381 . S
C1442 C1443 1.394 . S
C1442 H1450 0.930 . S
C1443 C1442 1.394 . S
C1443 C1444 1.383 . S
C1443 H1451 0.929 . S
C1444 C1443 1.383 . S
C1444 C1445 1.377 . S
C1445 H1429 0.930 . S
C1445 C1444 1.377 . S
C1445 C1446 1.379 . S
C1446 H1430 0.931 . S
C1446 C1440 1.383 . S
C1446 C1445 1.379 . S
H1447 C1441 0.959 . S
H1448 C1441 0.961 . S
H1449 C1441 0.960 . S
H1450 C1442 0.930 . S
H1451 C1443 0.929 . S
H1452 C1460 0.929 . S
H1453 C1462 0.930 . S
H1454 C1464 0.930 . S
H1455 C1467 0.929 . S
H1456 C1470 0.930 . S
H1457 C1472 0.960 . S
H1458 C1472 0.960 . S
H1459 C1472 0.960 . S
C1460 H1452 0.929 . S
C1460 C1461 1.377 . S
C1460 C1462 1.384 . S
C1461 C1460 1.377 . S
C1461 C1467 1.390 . S
C1462 H1453 0.930 . S
C1462 C1460 1.384 . S
C1462 C1463 1.372 . S
C1463 C1462 1.372 . S
C1463 C1464 1.400 . S
C1463 C1468 1.490 . S
C1464 H1454 0.930 . S
C1464 C1463 1.400 . S
C1464 C1467 1.386 . S
H1465 C1481 0.930 . S
H1466 C1482 0.931 . S
C1467 H1455 0.929 . S
C1467 C1461 1.390 . S
C1467 C1464 1.386 . S
C1468 C1463 1.490 . S
C1468 C1470 1.395 . S
C1468 C1471 1.403 . S
H1469 C1475 0.930 . S
C1470 H1456 0.930 . S
C1470 C1468 1.395 . S
C1470 C1473 1.403 . S
C1471 C1468 1.403 . S
C1471 C1472 1.524 . S
C1471 C1475 1.400 . S
C1472 H1457 0.960 . S
C1472 H1458 0.960 . S
C1472 H1459 0.960 . S
C1472 C1471 1.524 . S
C1473 C1470 1.403 . S
C1473 C1474 1.392 . S
C1473 C1477 1.495 . S
C1474 C1473 1.392 . S
C1474 C1475 1.385 . S
C1474 C1476 1.478 . S
C1475 H1469 0.930 . S
C1475 C1471 1.400 . S
C1475 C1474 1.385 . S
C1476 C1474 1.478 . S
C1476 C1478 1.381 . S
C1476 C1482 1.383 . S
C1477 C1473 1.495 . S
C1477 H1483 0.959 . S
C1477 H1484 0.961 . S
C1477 H1485 0.960 . S
C1478 C1476 1.381 . S
C1478 C1479 1.394 . S
C1478 H1486 0.930 . S
C1479 C1478 1.394 . S
C1479 C1480 1.383 . S
C1479 H1487 0.929 . S
C1480 C1479 1.383 . S
C1480 C1481 1.377 . S
C1481 H1465 0.930 . S
C1481 C1480 1.377 . S
C1481 C1482 1.379 . S
C1482 H1466 0.931 . S
C1482 C1476 1.383 . S
C1482 C1481 1.379 . S
H1483 C1477 0.959 . S
H1484 C1477 0.961 . S
H1485 C1477 0.960 . S
H1486 C1478 0.930 . S
H1487 C1479 0.929 . S
H1488 C1496 0.929 . S
H1489 C1498 0.930 . S
H1490 C1500 0.930 . S
H1491 C1503 0.929 . S
H1492 C1506 0.930 . S
H1493 C1508 0.960 . S
H1494 C1508 0.960 . S
H1495 C1508 0.960 . S
C1496 H1488 0.929 . S
C1496 C1497 1.377 . S
C1496 C1498 1.384 . S
C1497 C1496 1.377 . S
C1497 C1503 1.390 . S
C1498 H1489 0.930 . S
C1498 C1496 1.384 . S
C1498 C1499 1.372 . S
C1499 C1498 1.372 . S
C1499 C1500 1.400 . S
C1499 C1504 1.490 . S
C1500 H1490 0.930 . S
C1500 C1499 1.400 . S
C1500 C1503 1.386 . S
H1501 C1517 0.930 . S
H1502 C1518 0.931 . S
C1503 H1491 0.929 . S
C1503 C1497 1.390 . S
C1503 C1500 1.386 . S
C1504 C1499 1.490 . S
C1504 C1506 1.395 . S
C1504 C1507 1.403 . S
H1505 C1511 0.930 . S
C1506 H1492 0.930 . S
C1506 C1504 1.395 . S
C1506 C1509 1.403 . S
C1507 C1504 1.403 . S
C1507 C1508 1.524 . S
C1507 C1511 1.400 . S
C1508 H1493 0.960 . S
C1508 H1494 0.960 . S
C1508 H1495 0.960 . S
C1508 C1507 1.524 . S
C1509 C1506 1.403 . S
C1509 C1510 1.392 . S
C1509 C1513 1.495 . S
C1510 C1509 1.392 . S
C1510 C1511 1.385 . S
C1510 C1512 1.478 . S
C1511 H1505 0.930 . S
C1511 C1507 1.400 . S
C1511 C1510 1.385 . S
C1512 C1510 1.478 . S
C1512 C1514 1.381 . S
C1512 C1518 1.383 . S
C1513 C1509 1.495 . S
C1513 H1519 0.959 . S
C1513 H1520 0.961 . S
C1513 H1521 0.960 . S
C1514 C1512 1.381 . S
C1514 C1515 1.394 1_655 S
C1514 H1522 0.930 . S
C1515 C1514 1.394 1_455 S
C1515 C1516 1.383 . S
C1515 H1523 0.929 . S
C1516 C1515 1.383 . S
C1516 C1517 1.377 . S
C1517 H1501 0.930 . S
C1517 C1516 1.377 . S
C1517 C1518 1.379 1_455 S
C1518 H1502 0.931 . S
C1518 C1512 1.383 . S
C1518 C1517 1.379 1_655 S
H1519 C1513 0.959 . S
H1520 C1513 0.961 . S
H1521 C1513 0.960 . S
H1522 C1514 0.930 . S
H1523 C1515 0.929 . S
H1524 C1532 0.929 . S
H1525 C1534 0.930 . S
H1526 C1536 0.930 . S
H1527 C1539 0.929 . S
H1528 C1542 0.930 . S
H1529 C1544 0.960 . S
H1530 C1544 0.960 . S
H1531 C1544 0.960 . S
C1532 H1524 0.929 . S
C1532 C1533 1.377 . S
C1532 C1534 1.384 . S
C1533 C1532 1.377 . S
C1533 C1539 1.390 . S
C1534 H1525 0.930 . S
C1534 C1532 1.384 . S
C1534 C1535 1.372 . S
C1535 C1534 1.372 . S
C1535 C1536 1.400 . S
C1535 C1540 1.490 . S
C1536 H1526 0.930 . S
C1536 C1535 1.400 . S
C1536 C1539 1.386 . S
H1537 C1553 0.930 . S
H1538 C1554 0.931 . S
C1539 H1527 0.929 . S
C1539 C1533 1.390 . S
C1539 C1536 1.386 . S
C1540 C1535 1.490 . S
C1540 C1542 1.395 . S
C1540 C1543 1.403 . S
H1541 C1547 0.930 . S
C1542 H1528 0.930 . S
C1542 C1540 1.395 . S
C1542 C1545 1.403 . S
C1543 C1540 1.403 . S
C1543 C1544 1.524 . S
C1543 C1547 1.400 . S
C1544 H1529 0.960 . S
C1544 H1530 0.960 . S
C1544 H1531 0.960 . S
C1544 C1543 1.524 . S
C1545 C1542 1.403 . S
C1545 C1546 1.392 . S
C1545 C1549 1.495 . S
C1546 C1545 1.392 . S
C1546 C1547 1.385 . S
C1546 C1548 1.478 . S
C1547 H1541 0.930 . S
C1547 C1543 1.400 . S
C1547 C1546 1.385 . S
C1548 C1546 1.478 . S
C1548 C1550 1.381 . S
C1548 C1554 1.383 . S
C1549 C1545 1.495 . S
C1549 H1555 0.959 . S
C1549 H1556 0.961 . S
C1549 H1557 0.960 . S
C1550 C1548 1.381 . S
C1550 C1551 1.394 . S
C1550 H1558 0.930 . S
C1551 C1550 1.394 . S
C1551 C1552 1.383 . S
C1551 H1559 0.929 . S
C1552 C1551 1.383 . S
C1552 C1553 1.377 . S
C1553 H1537 0.930 . S
C1553 C1552 1.377 . S
C1553 C1554 1.379 . S
C1554 H1538 0.931 . S
C1554 C1548 1.383 . S
C1554 C1553 1.379 . S
H1555 C1549 0.959 . S
H1556 C1549 0.961 . S
H1557 C1549 0.960 . S
H1558 C1550 0.930 . S
H1559 C1551 0.929 . S
H1560 C1568 0.929 . S
H1561 C1570 0.930 . S
H1562 C1572 0.930 . S
H1563 C1575 0.929 . S
H1564 C1578 0.930 . S
H1565 C1580 0.960 . S
H1566 C1580 0.960 . S
H1567 C1580 0.960 . S
C1568 H1560 0.929 . S
C1568 C1569 1.377 . S
C1568 C1570 1.384 . S
C1569 C1568 1.377 . S
C1569 C1575 1.390 . S
C1570 H1561 0.930 . S
C1570 C1568 1.384 . S
C1570 C1571 1.372 . S
C1571 C1570 1.372 . S
C1571 C1572 1.400 . S
C1571 C1576 1.490 . S
C1572 H1562 0.930 . S
C1572 C1571 1.400 . S
C1572 C1575 1.386 . S
H1573 C1589 0.930 1_554 S
H1574 C1590 0.931 . S
C1575 H1563 0.929 . S
C1575 C1569 1.390 . S
C1575 C1572 1.386 . S
C1576 C1571 1.490 . S
C1576 C1578 1.395 . S
C1576 C1579 1.403 . S
H1577 C1583 0.930 . S
C1578 H1564 0.930 . S
C1578 C1576 1.395 . S
C1578 C1581 1.403 . S
C1579 C1576 1.403 . S
C1579 C1580 1.524 . S
C1579 C1583 1.400 . S
C1580 H1565 0.960 . S
C1580 H1566 0.960 . S
C1580 H1567 0.960 . S
C1580 C1579 1.524 . S
C1581 C1578 1.403 . S
C1581 C1582 1.392 . S
C1581 C1585 1.495 . S
C1582 C1581 1.392 . S
C1582 C1583 1.385 . S
C1582 C1584 1.478 . S
C1583 H1577 0.930 . S
C1583 C1579 1.400 . S
C1583 C1582 1.385 . S
C1584 C1582 1.478 . S
C1584 C1586 1.381 . S
C1584 C1590 1.383 . S
C1585 C1581 1.495 . S
C1585 H1591 0.959 . S
C1585 H1592 0.961 . S
C1585 H1593 0.960 . S
C1586 C1584 1.381 . S
C1586 C1587 1.394 . S
C1586 H1594 0.930 . S
C1587 C1586 1.394 . S
C1587 C1588 1.383 . S
C1587 H1595 0.929 . S
C1588 C1587 1.383 . S
C1588 C1589 1.377 . S
C1589 H1573 0.930 1_556 S
C1589 C1588 1.377 . S
C1589 C1590 1.379 . S
C1590 H1574 0.931 . S
C1590 C1584 1.383 . S
C1590 C1589 1.379 . S
H1591 C1585 0.959 . S
H1592 C1585 0.961 . S
H1593 C1585 0.960 . S
H1594 C1586 0.930 . S
H1595 C1587 0.929 . S
H1596 C1604 0.929 . S
H1597 C1606 0.930 . S
H1598 C1608 0.930 . S
H1599 C1611 0.929 . S
H1600 C1614 0.930 . S
H1601 C1616 0.960 . S
H1602 C1616 0.960 . S
H1603 C1616 0.960 . S
C1604 H1596 0.929 . S
C1604 C1605 1.377 . S
C1604 C1606 1.384 . S
C1605 C1604 1.377 . S
C1605 C1611 1.390 . S
C1606 H1597 0.930 . S
C1606 C1604 1.384 . S
C1606 C1607 1.372 . S
C1607 C1606 1.372 . S
C1607 C1608 1.400 . S
C1607 C1612 1.490 . S
C1608 H1598 0.930 . S
C1608 C1607 1.400 . S
C1608 C1611 1.386 . S
H1609 C1625 0.930 . S
H1610 C1626 0.931 . S
C1611 H1599 0.929 . S
C1611 C1605 1.390 . S
C1611 C1608 1.386 . S
C1612 C1607 1.490 . S
C1612 C1614 1.395 . S
C1612 C1615 1.403 . S
H1613 C1619 0.930 . S
C1614 H1600 0.930 . S
C1614 C1612 1.395 . S
C1614 C1617 1.403 . S
C1615 C1612 1.403 . S
C1615 C1616 1.524 . S
C1615 C1619 1.400 . S
C1616 H1601 0.960 . S
C1616 H1602 0.960 . S
C1616 H1603 0.960 . S
C1616 C1615 1.524 . S
C1617 C1614 1.403 . S
C1617 C1618 1.392 . S
C1617 C1621 1.495 . S
C1618 C1617 1.392 . S
C1618 C1619 1.385 . S
C1618 C1620 1.478 . S
C1619 H1613 0.930 . S
C1619 C1615 1.400 . S
C1619 C1618 1.385 . S
C1620 C1618 1.478 . S
C1620 C1622 1.381 . S
C1620 C1626 1.383 . S
C1621 C1617 1.495 . S
C1621 H1627 0.959 . S
C1621 H1628 0.961 . S
C1621 H1629 0.960 . S
C1622 C1620 1.381 . S
C1622 C1623 1.394 . S
C1622 H1630 0.930 . S
C1623 C1622 1.394 . S
C1623 C1624 1.383 . S
C1623 H1631 0.929 . S
C1624 C1623 1.383 . S
C1624 C1625 1.377 . S
C1625 H1609 0.930 . S
C1625 C1624 1.377 . S
C1625 C1626 1.379 . S
C1626 H1610 0.931 . S
C1626 C1620 1.383 . S
C1626 C1625 1.379 . S
H1627 C1621 0.959 . S
H1628 C1621 0.961 . S
H1629 C1621 0.960 . S
H1630 C1622 0.930 . S
H1631 C1623 0.929 . S
H1632 C1640 0.929 . S
H1633 C1642 0.930 . S
H1634 C1644 0.930 . S
H1635 C1647 0.929 . S
H1636 C1650 0.930 . S
H1637 C1652 0.960 . S
H1638 C1652 0.960 . S
H1639 C1652 0.960 . S
C1640 H1632 0.929 . S
C1640 C1641 1.377 . S
C1640 C1642 1.384 . S
C1641 C1640 1.377 . S
C1641 C1647 1.390 . S
C1642 H1633 0.930 . S
C1642 C1640 1.384 . S
C1642 C1643 1.372 . S
C1643 C1642 1.372 . S
C1643 C1644 1.400 . S
C1643 C1648 1.490 . S
C1644 H1634 0.930 . S
C1644 C1643 1.400 . S
C1644 C1647 1.386 . S
H1645 C1661 0.930 . S
H1646 C1662 0.931 . S
C1647 H1635 0.929 . S
C1647 C1641 1.390 . S
C1647 C1644 1.386 . S
C1648 C1643 1.490 . S
C1648 C1650 1.395 . S
C1648 C1651 1.403 . S
H1649 C1655 0.930 . S
C1650 H1636 0.930 . S
C1650 C1648 1.395 . S
C1650 C1653 1.403 . S
C1651 C1648 1.403 . S
C1651 C1652 1.524 . S
C1651 C1655 1.400 . S
C1652 H1637 0.960 . S
C1652 H1638 0.960 . S
C1652 H1639 0.960 . S
C1652 C1651 1.524 . S
C1653 C1650 1.403 . S
C1653 C1654 1.392 . S
C1653 C1657 1.495 1_455 S
C1654 C1653 1.392 . S
C1654 C1655 1.385 . S
C1654 C1656 1.478 . S
C1655 H1649 0.930 . S
C1655 C1651 1.400 . S
C1655 C1654 1.385 . S
C1656 C1654 1.478 . S
C1656 C1658 1.381 1_455 S
C1656 C1662 1.383 . S
C1657 C1653 1.495 1_655 S
C1657 H1663 0.959 . S
C1657 H1664 0.961 . S
C1657 H1665 0.960 . S
C1658 C1656 1.381 1_655 S
C1658 C1659 1.394 . S
C1658 H1666 0.930 . S
C1659 C1658 1.394 . S
C1659 C1660 1.383 . S
C1659 H1667 0.929 . S
C1660 C1659 1.383 . S
C1660 C1661 1.377 . S
C1661 H1645 0.930 . S
C1661 C1660 1.377 . S
C1661 C1662 1.379 1_655 S
C1662 H1646 0.931 . S
C1662 C1656 1.383 . S
C1662 C1661 1.379 1_455 S
H1663 C1657 0.959 . S
H1664 C1657 0.961 . S
H1665 C1657 0.960 . S
H1666 C1658 0.930 . S
H1667 C1659 0.929 . S
H1668 C1676 0.929 . S
H1669 C1678 0.930 . S
H1670 C1680 0.930 . S
H1671 C1683 0.929 . S
H1672 C1686 0.930 . S
H1673 C1688 0.960 . S
H1674 C1688 0.960 . S
H1675 C1688 0.960 . S
C1676 H1668 0.929 . S
C1676 C1677 1.377 . S
C1676 C1678 1.384 . S
C1677 C1676 1.377 . S
C1677 C1683 1.390 . S
C1678 H1669 0.930 . S
C1678 C1676 1.384 . S
C1678 C1679 1.372 . S
C1679 C1678 1.372 . S
C1679 C1680 1.400 . S
C1679 C1684 1.490 . S
C1680 H1670 0.930 . S
C1680 C1679 1.400 . S
C1680 C1683 1.386 . S
H1681 C1697 0.930 . S
H1682 C1698 0.931 . S
C1683 H1671 0.929 . S
C1683 C1677 1.390 . S
C1683 C1680 1.386 . S
C1684 C1679 1.490 . S
C1684 C1686 1.395 . S
C1684 C1687 1.403 . S
H1685 C1691 0.930 . S
C1686 H1672 0.930 . S
C1686 C1684 1.395 . S
C1686 C1689 1.403 . S
C1687 C1684 1.403 . S
C1687 C1688 1.524 . S
C1687 C1691 1.400 . S
C1688 H1673 0.960 . S
C1688 H1674 0.960 . S
C1688 H1675 0.960 . S
C1688 C1687 1.524 . S
C1689 C1686 1.403 . S
C1689 C1690 1.392 . S
C1689 C1693 1.495 . S
C1690 C1689 1.392 . S
C1690 C1691 1.385 . S
C1690 C1692 1.478 . S
C1691 H1685 0.930 . S
C1691 C1687 1.400 . S
C1691 C1690 1.385 . S
C1692 C1690 1.478 . S
C1692 C1694 1.381 . S
C1692 C1698 1.383 . S
C1693 C1689 1.495 . S
C1693 H1699 0.959 . S
C1693 H1700 0.961 . S
C1693 H1701 0.960 . S
C1694 C1692 1.381 . S
C1694 C1695 1.394 . S
C1694 H1702 0.930 . S
C1695 C1694 1.394 . S
C1695 C1696 1.383 . S
C1695 H1703 0.929 . S
C1696 C1695 1.383 . S
C1696 C1697 1.377 . S
C1697 H1681 0.930 . S
C1697 C1696 1.377 . S
C1697 C1698 1.379 . S
C1698 H1682 0.931 . S
C1698 C1692 1.383 . S
C1698 C1697 1.379 . S
H1699 C1693 0.959 . S
H1700 C1693 0.961 . S
H1701 C1693 0.960 . S
H1702 C1694 0.930 . S
H1703 C1695 0.929 . S
H1704 C1712 0.929 . S
H1705 C1714 0.930 . S
H1706 C1716 0.930 . S
H1707 C1719 0.929 . S
H1708 C1722 0.930 . S
H1709 C1724 0.960 . S
H1710 C1724 0.960 . S
H1711 C1724 0.960 . S
C1712 H1704 0.929 . S
C1712 C1713 1.377 . S
C1712 C1714 1.384 . S
C1713 C1712 1.377 . S
C1713 C1719 1.390 . S
C1714 H1705 0.930 . S
C1714 C1712 1.384 . S
C1714 C1715 1.372 . S
C1715 C1714 1.372 . S
C1715 C1716 1.400 . S
C1715 C1720 1.490 . S
C1716 H1706 0.930 . S
C1716 C1715 1.400 . S
C1716 C1719 1.386 . S
H1717 C1733 0.930 . S
H1718 C1734 0.931 . S
C1719 H1707 0.929 . S
C1719 C1713 1.390 . S
C1719 C1716 1.386 . S
C1720 C1715 1.490 . S
C1720 C1722 1.395 . S
C1720 C1723 1.403 . S
H1721 C1727 0.930 . S
C1722 H1708 0.930 . S
C1722 C1720 1.395 . S
C1722 C1725 1.403 . S
C1723 C1720 1.403 . S
C1723 C1724 1.524 . S
C1723 C1727 1.400 . S
C1724 H1709 0.960 . S
C1724 H1710 0.960 . S
C1724 H1711 0.960 . S
C1724 C1723 1.524 . S
C1725 C1722 1.403 . S
C1725 C1726 1.392 . S
C1725 C1729 1.495 . S
C1726 C1725 1.392 . S
C1726 C1727 1.385 . S
C1726 C1728 1.478 . S
C1727 H1721 0.930 . S
C1727 C1723 1.400 . S
C1727 C1726 1.385 . S
C1728 C1726 1.478 . S
C1728 C1730 1.381 . S
C1728 C1734 1.383 . S
C1729 C1725 1.495 . S
C1729 H1735 0.959 . S
C1729 H1736 0.961 . S
C1729 H1737 0.960 . S
C1730 C1728 1.381 . S
C1730 C1731 1.394 . S
C1730 H1738 0.930 . S
C1731 C1730 1.394 . S
C1731 C1732 1.383 . S
C1731 H1739 0.929 . S
C1732 C1731 1.383 . S
C1732 C1733 1.377 . S
C1733 H1717 0.930 . S
C1733 C1732 1.377 . S
C1733 C1734 1.379 . S
C1734 H1718 0.931 . S
C1734 C1728 1.383 . S
C1734 C1733 1.379 . S
H1735 C1729 0.959 . S
H1736 C1729 0.961 . S
H1737 C1729 0.960 . S
H1738 C1730 0.930 . S
H1739 C1731 0.929 . S
H1740 C1748 0.929 . S
H1741 C1750 0.930 . S
H1742 C1752 0.930 . S
H1743 C1755 0.929 1_554 S
H1744 C1758 0.930 . S
H1745 C1760 0.960 . S
H1746 C1760 0.960 . S
H1747 C1760 0.960 . S
C1748 H1740 0.929 . S
C1748 C1749 1.377 . S
C1748 C1750 1.384 . S
C1749 C1748 1.377 . S
C1749 C1755 1.390 . S
C1750 H1741 0.930 . S
C1750 C1748 1.384 . S
C1750 C1751 1.372 . S
C1751 C1750 1.372 . S
C1751 C1752 1.400 . S
C1751 C1756 1.490 . S
C1752 H1742 0.930 . S
C1752 C1751 1.400 . S
C1752 C1755 1.386 . S
H1753 C1769 0.930 . S
H1754 C1770 0.931 . S
C1755 H1743 0.929 1_556 S
C1755 C1749 1.390 . S
C1755 C1752 1.386 . S
C1756 C1751 1.490 . S
C1756 C1758 1.395 . S
C1756 C1759 1.403 . S
H1757 C1763 0.930 . S
C1758 H1744 0.930 . S
C1758 C1756 1.395 . S
C1758 C1761 1.403 . S
C1759 C1756 1.403 . S
C1759 C1760 1.524 . S
C1759 C1763 1.400 . S
C1760 H1745 0.960 . S
C1760 H1746 0.960 . S
C1760 H1747 0.960 . S
C1760 C1759 1.524 . S
C1761 C1758 1.403 . S
C1761 C1762 1.392 . S
C1761 C1765 1.495 . S
C1762 C1761 1.392 . S
C1762 C1763 1.385 . S
C1762 C1764 1.478 . S
C1763 H1757 0.930 . S
C1763 C1759 1.400 . S
C1763 C1762 1.385 . S
C1764 C1762 1.478 . S
C1764 C1766 1.381 . S
C1764 C1770 1.383 . S
C1765 C1761 1.495 . S
C1765 H1771 0.959 . S
C1765 H1772 0.961 . S
C1765 H1773 0.960 . S
C1766 C1764 1.381 . S
C1766 C1767 1.394 . S
C1766 H1774 0.930 . S
C1767 C1766 1.394 . S
C1767 C1768 1.383 . S
C1767 H1775 0.929 . S
C1768 C1767 1.383 . S
C1768 C1769 1.377 . S
C1769 H1753 0.930 . S
C1769 C1768 1.377 . S
C1769 C1770 1.379 . S
C1770 H1754 0.931 . S
C1770 C1764 1.383 . S
C1770 C1769 1.379 . S
H1771 C1765 0.959 . S
H1772 C1765 0.961 . S
H1773 C1765 0.960 . S
H1774 C1766 0.930 . S
H1775 C1767 0.929 . S
H1776 C1784 0.929 . S
H1777 C1786 0.930 . S
H1778 C1788 0.930 . S
H1779 C1791 0.929 . S
H1780 C1794 0.930 . S
H1781 C1796 0.960 . S
H1782 C1796 0.960 . S
H1783 C1796 0.960 . S
C1784 H1776 0.929 . S
C1784 C1785 1.377 . S
C1784 C1786 1.384 . S
C1785 C1784 1.377 . S
C1785 C1791 1.390 . S
C1786 H1777 0.930 . S
C1786 C1784 1.384 . S
C1786 C1787 1.372 . S
C1787 C1786 1.372 . S
C1787 C1788 1.400 . S
C1787 C1792 1.490 . S
C1788 H1778 0.930 . S
C1788 C1787 1.400 . S
C1788 C1791 1.386 . S
H1789 C1805 0.930 . S
H1790 C1806 0.931 . S
C1791 H1779 0.929 . S
C1791 C1785 1.390 . S
C1791 C1788 1.386 . S
C1792 C1787 1.490 . S
C1792 C1794 1.395 . S
C1792 C1795 1.403 . S
H1793 C1799 0.930 . S
C1794 H1780 0.930 . S
C1794 C1792 1.395 . S
C1794 C1797 1.403 . S
C1795 C1792 1.403 . S
C1795 C1796 1.524 . S
C1795 C1799 1.400 . S
C1796 H1781 0.960 . S
C1796 H1782 0.960 . S
C1796 H1783 0.960 . S
C1796 C1795 1.524 . S
C1797 C1794 1.403 . S
C1797 C1798 1.392 . S
C1797 C1801 1.495 . S
C1798 C1797 1.392 . S
C1798 C1799 1.385 . S
C1798 C1800 1.478 . S
C1799 H1793 0.930 . S
C1799 C1795 1.400 . S
C1799 C1798 1.385 . S
C1800 C1798 1.478 . S
C1800 C1802 1.381 . S
C1800 C1806 1.383 . S
C1801 C1797 1.495 . S
C1801 H1807 0.959 . S
C1801 H1808 0.961 . S
C1801 H1809 0.960 . S
C1802 C1800 1.381 . S
C1802 C1803 1.394 . S
C1802 H1810 0.930 . S
C1803 C1802 1.394 . S
C1803 C1804 1.383 . S
C1803 H1811 0.929 . S
C1804 C1803 1.383 . S
C1804 C1805 1.377 . S
C1805 H1789 0.930 . S
C1805 C1804 1.377 . S
C1805 C1806 1.379 . S
C1806 H1790 0.931 . S
C1806 C1800 1.383 . S
C1806 C1805 1.379 . S
H1807 C1801 0.959 . S
H1808 C1801 0.961 . S
H1809 C1801 0.960 . S
H1810 C1802 0.930 . S
H1811 C1803 0.929 . S
H1812 C1820 0.929 . S
H1813 C1822 0.930 . S
H1814 C1824 0.930 . S
H1815 C1827 0.929 . S
H1816 C1830 0.930 . S
H1817 C1832 0.960 . S
H1818 C1832 0.960 . S
H1819 C1832 0.960 . S
C1820 H1812 0.929 . S
C1820 C1821 1.377 . S
C1820 C1822 1.384 . S
C1821 C1820 1.377 . S
C1821 C1827 1.390 . S
C1822 H1813 0.930 . S
C1822 C1820 1.384 . S
C1822 C1823 1.372 . S
C1823 C1822 1.372 . S
C1823 C1824 1.400 . S
C1823 C1828 1.490 . S
C1824 H1814 0.930 . S
C1824 C1823 1.400 . S
C1824 C1827 1.386 . S
H1825 C1841 0.930 . S
H1826 C1842 0.931 . S
C1827 H1815 0.929 . S
C1827 C1821 1.390 . S
C1827 C1824 1.386 . S
C1828 C1823 1.490 . S
C1828 C1830 1.395 . S
C1828 C1831 1.403 . S
H1829 C1835 0.930 . S
C1830 H1816 0.930 . S
C1830 C1828 1.395 . S
C1830 C1833 1.403 . S
C1831 C1828 1.403 . S
C1831 C1832 1.524 . S
C1831 C1835 1.400 . S
C1832 H1817 0.960 . S
C1832 H1818 0.960 . S
C1832 H1819 0.960 . S
C1832 C1831 1.524 . S
C1833 C1830 1.403 . S
C1833 C1834 1.392 . S
C1833 C1837 1.495 . S
C1834 C1833 1.392 . S
C1834 C1835 1.385 . S
C1834 C1836 1.478 . S
C1835 H1829 0.930 . S
C1835 C1831 1.400 . S
C1835 C1834 1.385 . S
C1836 C1834 1.478 . S
C1836 C1838 1.381 . S
C1836 C1842 1.383 . S
C1837 C1833 1.495 . S
C1837 H1843 0.959 . S
C1837 H1844 0.961 . S
C1837 H1845 0.960 . S
C1838 C1836 1.381 . S
C1838 C1839 1.394 . S
C1838 H1846 0.930 . S
C1839 C1838 1.394 . S
C1839 C1840 1.383 . S
C1839 H1847 0.929 . S
C1840 C1839 1.383 . S
C1840 C1841 1.377 . S
C1841 H1825 0.930 . S
C1841 C1840 1.377 . S
C1841 C1842 1.379 . S
C1842 H1826 0.931 . S
C1842 C1836 1.383 . S
C1842 C1841 1.379 . S
H1843 C1837 0.959 . S
H1844 C1837 0.961 . S
H1845 C1837 0.960 . S
H1846 C1838 0.930 . S
H1847 C1839 0.929 . S
H1848 C1856 0.929 . S
H1849 C1858 0.930 . S
H1850 C1860 0.930 . S
H1851 C1863 0.929 . S
H1852 C1866 0.930 . S
H1853 C1868 0.960 . S
H1854 C1868 0.960 . S
H1855 C1868 0.960 . S
C1856 H1848 0.929 . S
C1856 C1857 1.377 . S
C1856 C1858 1.384 . S
C1857 C1856 1.377 . S
C1857 C1863 1.390 . S
C1858 H1849 0.930 . S
C1858 C1856 1.384 . S
C1858 C1859 1.372 . S
C1859 C1858 1.372 . S
C1859 C1860 1.400 . S
C1859 C1864 1.490 . S
C1860 H1850 0.930 . S
C1860 C1859 1.400 . S
C1860 C1863 1.386 . S
H1861 C1877 0.930 . S
H1862 C1878 0.931 . S
C1863 H1851 0.929 . S
C1863 C1857 1.390 . S
C1863 C1860 1.386 . S
C1864 C1859 1.490 . S
C1864 C1866 1.395 . S
C1864 C1867 1.403 . S
H1865 C1871 0.930 . S
C1866 H1852 0.930 . S
C1866 C1864 1.395 . S
C1866 C1869 1.403 . S
C1867 C1864 1.403 . S
C1867 C1868 1.524 . S
C1867 C1871 1.400 . S
C1868 H1853 0.960 . S
C1868 H1854 0.960 . S
C1868 H1855 0.960 . S
C1868 C1867 1.524 . S
C1869 C1866 1.403 . S
C1869 C1870 1.392 . S
C1869 C1873 1.495 . S
C1870 C1869 1.392 . S
C1870 C1871 1.385 . S
C1870 C1872 1.478 . S
C1871 H1865 0.930 . S
C1871 C1867 1.400 . S
C1871 C1870 1.385 . S
C1872 C1870 1.478 . S
C1872 C1874 1.381 . S
C1872 C1878 1.383 . S
C1873 C1869 1.495 . S
C1873 H1879 0.959 . S
C1873 H1880 0.961 . S
C1873 H1881 0.960 . S
C1874 C1872 1.381 . S
C1874 C1875 1.394 . S
C1874 H1882 0.930 . S
C1875 C1874 1.394 . S
C1875 C1876 1.383 . S
C1875 H1883 0.929 . S
C1876 C1875 1.383 . S
C1876 C1877 1.377 . S
C1877 H1861 0.930 . S
C1877 C1876 1.377 . S
C1877 C1878 1.379 . S
C1878 H1862 0.931 . S
C1878 C1872 1.383 . S
C1878 C1877 1.379 . S
H1879 C1873 0.959 . S
H1880 C1873 0.961 . S
H1881 C1873 0.960 . S
H1882 C1874 0.930 . S
H1883 C1875 0.929 . S
H1884 C1892 0.929 . S
H1885 C1894 0.930 1_655 S
H1886 C1896 0.930 . S
H1887 C1899 0.929 . S
H1888 C1902 0.930 . S
H1889 C1904 0.960 . S
H1890 C1904 0.960 . S
H1891 C1904 0.960 . S
C1892 H1884 0.929 . S
C1892 C1893 1.377 . S
C1892 C1894 1.384 . S
C1893 C1892 1.377 . S
C1893 C1899 1.390 . S
C1894 H1885 0.930 1_455 S
C1894 C1892 1.384 . S
C1894 C1895 1.372 . S
C1895 C1894 1.372 . S
C1895 C1896 1.400 . S
C1895 C1900 1.490 . S
C1896 H1886 0.930 . S
C1896 C1895 1.400 . S
C1896 C1899 1.386 . S
H1897 C1913 0.930 . S
H1898 C1914 0.931 1_455 S
C1899 H1887 0.929 . S
C1899 C1893 1.390 . S
C1899 C1896 1.386 . S
C1900 C1895 1.490 . S
C1900 C1902 1.395 1_455 S
C1900 C1903 1.403 . S
H1901 C1907 0.930 . S
C1902 H1888 0.930 . S
C1902 C1900 1.395 1_655 S
C1902 C1905 1.403 1_554 S
C1903 C1900 1.403 . S
C1903 C1904 1.524 . S
C1903 C1907 1.400 1_554 S
C1904 H1889 0.960 . S
C1904 H1890 0.960 . S
C1904 H1891 0.960 . S
C1904 C1903 1.524 . S
C1905 C1902 1.403 1_556 S
C1905 C1906 1.392 . S
C1905 C1909 1.495 . S
C1906 C1905 1.392 . S
C1906 C1907 1.385 1_655 S
C1906 C1908 1.478 . S
C1907 H1901 0.930 . S
C1907 C1903 1.400 1_556 S
C1907 C1906 1.385 1_455 S
C1908 C1906 1.478 . S
C1908 C1910 1.381 . S
C1908 C1914 1.383 . S
C1909 C1905 1.495 . S
C1909 H1915 0.959 . S
C1909 H1916 0.961 . S
C1909 H1917 0.960 . S
C1910 C1908 1.381 . S
C1910 C1911 1.394 . S
C1910 H1918 0.930 . S
C1911 C1910 1.394 . S
C1911 C1912 1.383 . S
C1911 H1919 0.929 . S
C1912 C1911 1.383 . S
C1912 C1913 1.377 . S
C1913 H1897 0.930 . S
C1913 C1912 1.377 . S
C1913 C1914 1.379 . S
C1914 H1898 0.931 1_655 S
C1914 C1908 1.383 . S
C1914 C1913 1.379 . S
H1915 C1909 0.959 . S
H1916 C1909 0.961 . S
H1917 C1909 0.960 . S
H1918 C1910 0.930 . S
H1919 C1911 0.929 . S
H1920 C1928 0.929 . S
H1921 C1930 0.930 . S
H1922 C1932 0.930 . S
H1923 C1935 0.929 . S
H1924 C1938 0.930 . S
H1925 C1940 0.960 . S
H1926 C1940 0.960 . S
H1927 C1940 0.960 . S
C1928 H1920 0.929 . S
C1928 C1929 1.377 . S
C1928 C1930 1.384 . S
C1929 C1928 1.377 . S
C1929 C1935 1.390 . S
C1930 H1921 0.930 . S
C1930 C1928 1.384 . S
C1930 C1931 1.372 . S
C1931 C1930 1.372 . S
C1931 C1932 1.400 . S
C1931 C1936 1.490 . S
C1932 H1922 0.930 . S
C1932 C1931 1.400 . S
C1932 C1935 1.386 . S
H1933 C1949 0.930 . S
H1934 C1950 0.931 . S
C1935 H1923 0.929 . S
C1935 C1929 1.390 . S
C1935 C1932 1.386 . S
C1936 C1931 1.490 . S
C1936 C1938 1.395 . S
C1936 C1939 1.403 . S
H1937 C1943 0.930 . S
C1938 H1924 0.930 . S
C1938 C1936 1.395 . S
C1938 C1941 1.403 . S
C1939 C1936 1.403 . S
C1939 C1940 1.524 . S
C1939 C1943 1.400 . S
C1940 H1925 0.960 . S
C1940 H1926 0.960 . S
C1940 H1927 0.960 . S
C1940 C1939 1.524 . S
C1941 C1938 1.403 . S
C1941 C1942 1.392 . S
C1941 C1945 1.495 . S
C1942 C1941 1.392 . S
C1942 C1943 1.385 . S
C1942 C1944 1.478 . S
C1943 H1937 0.930 . S
C1943 C1939 1.400 . S
C1943 C1942 1.385 . S
C1944 C1942 1.478 . S
C1944 C1946 1.381 . S
C1944 C1950 1.383 . S
C1945 C1941 1.495 . S
C1945 H1951 0.959 . S
C1945 H1952 0.961 . S
C1945 H1953 0.960 . S
C1946 C1944 1.381 . S
C1946 C1947 1.394 . S
C1946 H1954 0.930 . S
C1947 C1946 1.394 . S
C1947 C1948 1.383 . S
C1947 H1955 0.929 . S
C1948 C1947 1.383 . S
C1948 C1949 1.377 . S
C1949 H1933 0.930 . S
C1949 C1948 1.377 . S
C1949 C1950 1.379 . S
C1950 H1934 0.931 . S
C1950 C1944 1.383 . S
C1950 C1949 1.379 . S
H1951 C1945 0.959 . S
H1952 C1945 0.961 . S
H1953 C1945 0.960 . S
H1954 C1946 0.930 . S
H1955 C1947 0.929 . S
H1956 C1964 0.929 . S
H1957 C1966 0.930 . S
H1958 C1968 0.930 . S
H1959 C1971 0.929 . S
H1960 C1974 0.930 . S
H1961 C1976 0.960 . S
H1962 C1976 0.960 . S
H1963 C1976 0.960 . S
C1964 H1956 0.929 . S
C1964 C1965 1.377 . S
C1964 C1966 1.384 . S
C1965 C1964 1.377 . S
C1965 C1971 1.390 . S
C1966 H1957 0.930 . S
C1966 C1964 1.384 . S
C1966 C1967 1.372 . S
C1967 C1966 1.372 . S
C1967 C1968 1.400 . S
C1967 C1972 1.490 . S
C1968 H1958 0.930 . S
C1968 C1967 1.400 . S
C1968 C1971 1.386 . S
H1969 C1985 0.930 . S
H1970 C1986 0.931 . S
C1971 H1959 0.929 . S
C1971 C1965 1.390 . S
C1971 C1968 1.386 . S
C1972 C1967 1.490 . S
C1972 C1974 1.395 . S
C1972 C1975 1.403 . S
H1973 C1979 0.930 . S
C1974 H1960 0.930 . S
C1974 C1972 1.395 . S
C1974 C1977 1.403 . S
C1975 C1972 1.403 . S
C1975 C1976 1.524 . S
C1975 C1979 1.400 . S
C1976 H1961 0.960 . S
C1976 H1962 0.960 . S
C1976 H1963 0.960 . S
C1976 C1975 1.524 . S
C1977 C1974 1.403 . S
C1977 C1978 1.392 . S
C1977 C1981 1.495 . S
C1978 C1977 1.392 . S
C1978 C1979 1.385 . S
C1978 C1980 1.478 . S
C1979 H1973 0.930 . S
C1979 C1975 1.400 . S
C1979 C1978 1.385 . S
C1980 C1978 1.478 . S
C1980 C1982 1.381 . S
C1980 C1986 1.383 . S
C1981 C1977 1.495 . S
C1981 H1987 0.959 . S
C1981 H1988 0.961 . S
C1981 H1989 0.960 . S
C1982 C1980 1.381 . S
C1982 C1983 1.394 . S
C1982 H1990 0.930 . S
C1983 C1982 1.394 . S
C1983 C1984 1.383 . S
C1983 H1991 0.929 . S
C1984 C1983 1.383 . S
C1984 C1985 1.377 . S
C1985 H1969 0.930 . S
C1985 C1984 1.377 . S
C1985 C1986 1.379 . S
C1986 H1970 0.931 . S
C1986 C1980 1.383 . S
C1986 C1985 1.379 . S
H1987 C1981 0.959 . S
H1988 C1981 0.961 . S
H1989 C1981 0.960 . S
H1990 C1982 0.930 . S
H1991 C1983 0.929 . S
H1992 C2000 0.929 . S
H1993 C2002 0.930 1_655 S
H1994 C2004 0.930 . S
H1995 C2007 0.929 . S
H1996 C2010 0.929 . S
H1997 C2012 0.960 . S
H1998 C2012 0.960 . S
H1999 C2012 0.960 . S
C2000 H1992 0.929 . S
C2000 C2001 1.377 . S
C2000 C2002 1.384 . S
C2001 C2000 1.377 . S
C2001 C2007 1.390 . S
C2002 H1993 0.930 1_455 S
C2002 C2000 1.384 . S
C2002 C2003 1.372 . S
C2003 C2002 1.372 . S
C2003 C2004 1.400 . S
C2003 C2008 1.490 . S
C2004 H1994 0.930 . S
C2004 C2003 1.400 . S
C2004 C2007 1.386 . S
H2005 C2021 0.930 . S
H2006 C2022 0.931 1_455 S
C2007 H1995 0.929 . S
C2007 C2001 1.390 . S
C2007 C2004 1.386 . S
C2008 C2003 1.490 . S
C2008 C2010 1.379 1_445 S
C2008 C2011 1.403 1_556 S
H2009 C2015 0.930 . S
C2010 H1996 0.929 . S
C2010 C2008 1.379 1_665 S
C2010 C2013 1.422 . S
C2011 C2008 1.403 1_554 S
C2011 C2012 1.524 . S
C2011 C2015 1.400 1_455 S
C2012 H1997 0.960 . S
C2012 H1998 0.960 . S
C2012 H1999 0.960 . S
C2012 C2011 1.524 . S
C2013 C2010 1.422 . S
C2013 C2014 1.392 1_556 S
C2013 C2017 1.495 . S
C2014 C2013 1.392 1_554 S
C2014 C2015 1.385 1_565 S
C2014 C2016 1.478 . S
C2015 H2009 0.930 . S
C2015 C2011 1.400 1_655 S
C2015 C2014 1.385 1_545 S
C2016 C2014 1.478 . S
C2016 C2018 1.381 . S
C2016 C2022 1.383 . S
C2017 C2013 1.495 . S
C2017 H2023 0.959 . S
C2017 H2024 0.961 . S
C2017 H2025 0.960 . S
C2018 C2016 1.381 . S
C2018 C2019 1.394 . S
C2018 H2026 0.930 . S
C2019 C2018 1.394 . S
C2019 C2020 1.383 . S
C2019 H2027 0.929 . S
C2020 C2019 1.383 . S
C2020 C2021 1.377 . S
C2021 H2005 0.930 . S
C2021 C2020 1.377 . S
C2021 C2022 1.379 . S
C2022 H2006 0.931 1_655 S
C2022 C2016 1.383 . S
C2022 C2021 1.379 . S
H2023 C2017 0.959 . S
H2024 C2017 0.961 . S
H2025 C2017 0.960 . S
H2026 C2018 0.930 . S
H2027 C2019 0.929 . S
H2028 C2036 0.929 . S
H2029 C2038 0.930 . S
H2030 C2040 0.930 . S
H2031 C2043 0.929 . S
H2032 C2046 0.930 . S
H2033 C2048 0.960 . S
H2034 C2048 0.960 . S
H2035 C2048 0.960 . S
C2036 H2028 0.929 . S
C2036 C2037 1.377 . S
C2036 C2038 1.384 . S
C2037 C2036 1.377 . S
C2037 C2043 1.390 . S
C2038 H2029 0.930 . S
C2038 C2036 1.384 . S
C2038 C2039 1.372 . S
C2039 C2038 1.372 . S
C2039 C2040 1.400 . S
C2039 C2044 1.490 . S
C2040 H2030 0.930 . S
C2040 C2039 1.400 . S
C2040 C2043 1.386 . S
H2041 C2057 0.930 . S
H2042 C2058 0.931 . S
C2043 H2031 0.929 . S
C2043 C2037 1.390 . S
C2043 C2040 1.386 . S
C2044 C2039 1.490 . S
C2044 C2046 1.395 1_545 S
C2044 C2047 1.403 . S
H2045 C2051 0.933 . S
C2046 H2032 0.930 . S
C2046 C2044 1.395 1_565 S
C2046 C2049 1.403 . S
C2047 C2044 1.403 . S
C2047 C2048 1.524 . S
C2047 C2051 1.416 . S
C2048 H2033 0.960 . S
C2048 H2034 0.960 . S
C2048 H2035 0.960 . S
C2048 C2047 1.524 . S
C2049 C2046 1.403 . S
C2049 C2050 1.392 . S
C2049 C2053 1.495 . S
C2050 C2049 1.392 . S
C2050 C2051 1.367 1_565 S
C2050 C2052 1.478 . S
C2051 H2045 0.933 . S
C2051 C2047 1.416 . S
C2051 C2050 1.367 1_545 S
C2052 C2050 1.478 . S
C2052 C2054 1.381 . S
C2052 C2058 1.383 . S
C2053 C2049 1.495 . S
C2053 H2059 0.959 . S
C2053 H2060 0.961 . S
C2053 H2061 0.960 . S
C2054 C2052 1.381 . S
C2054 C2055 1.394 . S
C2054 H2062 0.930 . S
C2055 C2054 1.394 . S
C2055 C2056 1.383 . S
C2055 H2063 0.929 . S
C2056 C2055 1.383 . S
C2056 C2057 1.377 . S
C2057 H2041 0.930 . S
C2057 C2056 1.377 . S
C2057 C2058 1.379 . S
C2058 H2042 0.931 . S
C2058 C2052 1.383 . S
C2058 C2057 1.379 . S
H2059 C2053 0.959 . S
H2060 C2053 0.961 . S
H2061 C2053 0.960 . S
H2062 C2054 0.930 . S
H2063 C2055 0.929 . S
C345 C16 1.086 . S
C364 C226 1.049 . S
C381 C37 1.079 . S
C400 C247 1.100 . S
C417 C58 1.077 . S
C436 C184 1.109 . S
C453 C79 1.067 . S
C472 C205 1.115 . S
C489 C100 1.084 . S
C508 C310 1.092 . S
C525 C121 1.068 . S
C544 C331 1.110 . S
C561 C142 1.072 . S
C580 C268 1.120 . S
C597 C163 1.070 . S
C616 C289 1.116 . S
C633 C204 1.399 . S
C652 C13 1.230 . S
C669 C225 1.396 . S
C688 C34 1.172 . S
C705 C246 1.399 . S
C724 C55 1.150 . S
C741 C183 1.394 . S
C760 C76 1.217 . S
C777 C97 1.192 . S
C796 C288 1.410 . S
C813 C309 1.400 . S
C832 C118 1.185 . S
C849 C330 1.403 . S
C868 C139 1.219 . S
C885 C267 1.405 . S
C904 C160 1.243 . S
C921 C36 1.398 . S
C940 C181 1.159 . S
C957 C202 1.178 . S
C976 C57 1.424 . S
C993 C223 1.191 . S
C1012 C78 1.411 . S
C1029 C244 1.176 . S
C1048 C15 1.410 . S
C1065 C265 1.199 . S
C1084 C120 1.419 . S
C1101 C141 1.394 . S
C1120 C286 1.126 . S
C1137 C162 1.400 . S
C1156 C307 1.178 . S
C1173 C328 1.188 . S
C1192 C99 1.402 . S
C1209 C18 0.976 . S
C1228 C329 0.930 . S
C1245 C39 0.978 . S
C1264 C98 0.996 1_554 S
C1281 C287 0.973 . S
C1300 C60 1.007 . S
C1317 C140 0.968 . S
C1336 C81 0.941 . S
C1353 C102 0.976 . S
C1372 C245 0.932 . S
C1389 C123 0.979 . S
C1408 C14 0.932 1_556 S
C1425 C203 0.970 . S
C1444 C144 1.003 . S
C1461 C56 0.966 . S
C1480 C165 0.977 . S
C1497 C186 0.988 . S
C1516 C161 1.004 . S
C1533 C207 0.973 . S
C1552 C266 0.953 . S
C1569 C119 0.977 . S
C1588 C228 0.954 . S
C1605 C308 0.969 1_554 S
C1624 C249 0.941 . S
C1641 C270 0.982 . S
C1660 C77 0.938 . S
C1677 C291 0.983 . S
C1696 C182 1.015 . S
C1713 C312 0.980 . S
C1732 C35 0.933 . S
C1749 C224 0.966 1_556 S
C1768 C333 0.971 . S
C1785 C17 1.922 . S
C1804 C269 1.928 . S
C1821 C38 1.922 . S
C1840 C122 1.903 . S
C1857 C59 1.926 . S
C1876 C311 1.937 . S
C1893 C164 1.926 . S
C1912 C80 1.937 . S
C1929 C101 1.922 . S
C1948 C185 1.929 . S
C1965 C227 1.924 . S
C1984 C143 1.905 . S
C2001 C206 1.921 . S
C2020 C290 1.907 . S
C2037 C332 1.925 . S
C2056 C248 1.909 . S
