# Generated by pormake.
# Topology vmc, (5)-cn, num edge types: 1
# Building blocks:
#     Node 0, Type 0, BuildingBlock: XOMCOT_clean_sbu_1, # of connection points: 5
#     Node 1, Type 0, BuildingBlock: XOMCOT_clean_sbu_1, # of connection points: 5
#     Node 2, Type 0, BuildingBlock: XOMCOT_clean_sbu_1, # of connection points: 5
#     Node 3, Type 0, BuildingBlock: XOMCOT_clean_sbu_1, # of connection points: 5
#     Node 4, Type 0, BuildingBlock: XOMCOT_clean_sbu_1, # of connection points: 5
#     Node 5, Type 0, BuildingBlock: XOMCOT_clean_sbu_1, # of connection points: 5
#     Node 6, Type 0, BuildingBlock: XOMCOT_clean_sbu_1, # of connection points: 5
#     Node 7, Type 0, BuildingBlock: XOMCOT_clean_sbu_1, # of connection points: 5
#     Edge 8, Type (0, 0), BuildingBlock: OJICUG_clean_linker_0, # of connection points: 2
#     Edge 9, Type (0, 0), BuildingBlock: OJICUG_clean_linker_0, # of connection points: 2
#     Edge 10, Type (0, 0), BuildingBlock: OJICUG_clean_linker_0, # of connection points: 2
#     Edge 11, Type (0, 0), BuildingBlock: OJICUG_clean_linker_0, # of connection points: 2
#     Edge 12, Type (0, 0), BuildingBlock: OJICUG_clean_linker_0, # of connection points: 2
#     Edge 13, Type (0, 0), BuildingBlock: OJICUG_clean_linker_0, # of connection points: 2
#     Edge 14, Type (0, 0), BuildingBlock: OJICUG_clean_linker_0, # of connection points: 2
#     Edge 15, Type (0, 0), BuildingBlock: OJICUG_clean_linker_0, # of connection points: 2
#     Edge 16, Type (0, 0), BuildingBlock: OJICUG_clean_linker_0, # of connection points: 2
#     Edge 17, Type (0, 0), BuildingBlock: OJICUG_clean_linker_0, # of connection points: 2
#     Edge 18, Type (0, 0), BuildingBlock: OJICUG_clean_linker_0, # of connection points: 2
#     Edge 19, Type (0, 0), BuildingBlock: OJICUG_clean_linker_0, # of connection points: 2
#     Edge 20, Type (0, 0), BuildingBlock: OJICUG_clean_linker_0, # of connection points: 2
#     Edge 21, Type (0, 0), BuildingBlock: OJICUG_clean_linker_0, # of connection points: 2
#     Edge 22, Type (0, 0), BuildingBlock: OJICUG_clean_linker_0, # of connection points: 2
#     Edge 23, Type (0, 0), BuildingBlock: OJICUG_clean_linker_0, # of connection points: 2
#     Edge 24, Type (0, 0), BuildingBlock: OJICUG_clean_linker_0, # of connection points: 2
#     Edge 25, Type (0, 0), BuildingBlock: OJICUG_clean_linker_0, # of connection points: 2
#     Edge 26, Type (0, 0), BuildingBlock: OJICUG_clean_linker_0, # of connection points: 2
#     Edge 27, Type (0, 0), BuildingBlock: OJICUG_clean_linker_0, # of connection points: 2
# Relax obj value: 0.407
# Max RMSD: 0.213
# Mean RMSD: 0.213
data_MOF--net-vmc--node1-XOMCOT_clean_sbu_1--edge1-OJICUG_clean_linker_0
_symmetry_space_group_name_H-M    P1
_symmetry_Int_Tables_number       1
_symmetry_cell_setting            triclinic
loop_
_symmetry_equiv_pos_as_xyz
'x, y, z'
_cell_length_a     22.449519
_cell_length_b     37.98295
_cell_length_c     21.193747
_cell_angle_alpha  90.186965
_cell_angle_beta   95.670091
_cell_angle_gamma 89.90576
loop_
_atom_site_label
_atom_site_type_symbol
_atom_site_fract_x
_atom_site_fract_y
_atom_site_fract_z
_atom_type_partial_charge
C0 C 0.35339 0.37775 0.08699 0.0
C1 C 0.39706 0.36733 0.1332 0.0
N2 N 0.40142 0.39192 0.17942 0.0
N3 N 0.32965 0.40847 0.10446 0.0
C4 C 0.36017 0.41664 0.16067 0.0
H5 H 0.34047 0.36418 0.04281 0.0
Co6 Co 0.27312 0.43484 0.05466 0.0
C7 C 0.19464 0.45576 0.15635 0.0
O8 O 0.14645 0.44139 0.12668 0.0
N9 N 0.21923 0.46188 1.00134 0.0
C10 C 0.15813 0.50234 0.95445 0.0
C11 C 0.17678 0.48605 1.01101 0.0
C12 C 0.22624 0.46469 0.93896 0.0
N13 N 0.18975 0.48899 0.90918 0.0
O14 O 0.3294 0.47145 0.05528 0.0
H15 H 0.1629 0.49372 0.05627 0.0
H16 H 0.25926 0.44981 0.91623 0.0
O17 O 0.24419 0.45475 0.1314 0.0
C18 C 0.3703 0.46541 1.01922 0.0
O19 O 0.36481 0.43803 0.981 0.0
N20 N 0.22053 0.39636 0.05202 0.0
C21 C 0.20558 0.32391 0.04312 0.0
C22 C 0.20665 0.34082 0.10205 0.0
C23 C 0.21441 0.3772 0.10558 0.0
C24 C 0.21113 0.38082 0.99381 0.0
C25 C 0.2033 0.34452 0.98826 0.0
H26 H 0.22535 0.3886 0.15198 0.0
H27 H 0.21811 0.39539 0.95166 0.0
H28 H 0.35284 0.44051 0.18681 0.0
H29 H 0.42481 0.34407 0.1318 0.0
H30 H 0.12672 0.52399 0.94817 0.0
H31 H 0.2091 0.32587 0.14566 0.0
H32 H 0.20151 0.33241 0.94177 0.0
C33 C 0.61622 0.37763 0.4931 0.0
C34 C 0.57272 0.36722 0.44665 0.0
N35 N 0.56818 0.39189 0.40086 0.0
N36 N 0.6397 0.40843 0.47621 0.0
C37 C 0.60917 0.41666 0.4201 0.0
H38 H 0.62922 0.36399 0.53703 0.0
Co39 Co 0.69616 0.43469 0.52645 0.0
C40 C 0.77474 0.45595 0.42541 0.0
O41 O 0.8231 0.44189 0.45526 0.0
N42 N 0.75002 0.46161 0.58027 0.0
C43 C 0.81024 0.50245 0.62746 0.0
C44 C 0.79155 0.48625 0.5707 0.0
C45 C 0.74351 0.4641 0.64286 0.0
N46 N 0.77951 0.48863 0.67282 0.0
O47 O 0.63983 0.47136 0.52645 0.0
H48 H 0.80452 0.49438 0.52542 0.0
H49 H 0.71097 0.44895 0.66557 0.0
O50 O 0.72505 0.4547 0.45004 0.0
C51 C 0.59896 0.46539 0.56247 0.0
O52 O 0.60449 0.43803 0.60041 0.0
N53 N 0.74878 0.39616 0.52832 0.0
C54 C 0.76332 0.32363 0.53467 0.0
C55 C 0.7631 0.34102 0.47651 0.0
C56 C 0.7554 0.37741 0.4742 0.0
C57 C 0.75744 0.38016 0.586 0.0
C58 C 0.76498 0.34377 0.5903 0.0
H59 H 0.74505 0.38912 0.42811 0.0
H60 H 0.74971 0.39442 0.62845 0.0
H61 H 0.61632 0.44059 0.39436 0.0
H62 H 0.54522 0.34388 0.44759 0.0
H63 H 0.84086 0.52445 0.63384 0.0
H64 H 0.7624 0.32634 0.43253 0.0
H65 H 0.76481 0.33135 0.63621 0.0
C66 C 0.61575 0.62177 0.99507 0.0
C67 C 0.57208 0.63221 0.94889 0.0
N68 N 0.56771 0.60765 0.90262 0.0
N69 N 0.63949 0.59106 0.97755 0.0
C70 C 0.60898 0.58292 0.92131 0.0
H71 H 0.62867 0.63531 1.03928 0.0
Co72 Co 0.69601 0.56467 1.02731 0.0
C73 C 0.77453 0.54377 0.92566 0.0
O74 O 0.82272 0.55809 0.9554 0.0
N75 N 0.74988 0.5376 0.08061 0.0
C76 C 0.81085 0.49705 0.12744 0.0
C77 C 0.79221 0.51335 0.07089 0.0
C78 C 0.74293 0.5348 0.14301 0.0
N79 N 0.77935 0.51045 0.17275 0.0
O80 O 0.63972 0.52805 1.02664 0.0
H81 H 0.80598 0.50565 1.0256 0.0
H82 H 0.70997 0.54973 0.16577 0.0
O83 O 0.72495 0.54479 0.95056 0.0
C84 C 0.59884 0.53408 0.06272 0.0
O85 O 0.60434 0.56143 0.10099 0.0
N86 N 0.74861 0.60314 1.03002 0.0
C87 C 0.76356 0.67559 1.03895 0.0
C88 C 0.76251 0.65868 0.98002 0.0
C89 C 0.75476 0.62231 0.97647 0.0
C90 C 0.75798 0.61867 0.08824 0.0
C91 C 0.76581 0.65497 0.0938 0.0
H92 H 0.74384 0.61092 0.93006 0.0
H93 H 0.75099 0.6041 0.13037 0.0
H94 H 0.6163 0.55906 0.89513 0.0
H95 H 0.54432 0.65546 0.95034 0.0
H96 H 0.84216 0.47535 0.13367 0.0
H97 H 0.76008 0.67365 0.93642 0.0
H98 H 0.76759 0.66707 0.1403 0.0
C99 C 0.35271 0.62208 0.58909 0.0
C100 C 0.39619 0.63249 0.63556 0.0
N101 N 0.40083 0.60778 0.68126 0.0
N102 N 0.32934 0.59122 0.60589 0.0
C103 C 0.35991 0.58297 0.66196 0.0
H104 H 0.33966 0.63575 0.5452 0.0
Co105 Co 0.27297 0.56492 0.55559 0.0
C106 C 0.19439 0.54356 0.65657 0.0
O107 O 0.14601 0.55759 0.62669 0.0
N108 N 0.21921 0.53796 0.50173 0.0
C109 C 0.15908 0.49707 0.45454 0.0
C110 C 0.17775 0.51328 0.51131 0.0
C111 C 0.2257 0.53549 0.43913 0.0
N112 N 0.18976 0.51093 0.40918 0.0
O113 O 0.3294 0.52831 0.55561 0.0
H114 H 0.16481 0.50512 0.55659 0.0
H115 H 0.25821 0.55067 0.41642 0.0
O116 O 0.24409 0.54487 0.63197 0.0
C117 C 0.37029 0.53433 0.51963 0.0
O118 O 0.36474 0.56169 0.48171 0.0
N119 N 0.22023 0.6034 0.55371 0.0
C120 C 0.20548 0.67592 0.54739 0.0
C121 C 0.20572 0.65851 0.60554 0.0
C122 C 0.21352 0.62213 0.60784 0.0
C123 C 0.21155 0.61941 0.49604 0.0
C124 C 0.20391 0.65579 0.49176 0.0
H125 H 0.22389 0.61042 0.65393 0.0
H126 H 0.21935 0.60517 0.45359 0.0
H127 H 0.35285 0.55901 0.68762 0.0
H128 H 0.42362 0.65586 0.63468 0.0
H129 H 0.12852 0.47505 0.44817 0.0
H130 H 0.20635 0.67318 0.64953 0.0
H131 H 0.20407 0.66822 0.44586 0.0
C132 C 0.85367 0.87791 0.08682 0.0
C133 C 0.89738 0.86752 0.133 0.0
N134 N 0.90166 0.89208 0.17926 0.0
N135 N 0.82981 0.90858 0.10434 0.0
C136 C 0.8603 0.91676 0.16057 0.0
H137 H 0.84079 0.86435 0.04262 0.0
Co138 Co 0.77316 0.93488 0.05459 0.0
C139 C 0.69463 0.95575 0.15624 0.0
O140 O 0.64647 0.94139 0.12651 0.0
N141 N 0.71915 0.96187 1.0013 0.0
C142 C 0.65815 0.0024 0.95447 0.0
C143 C 0.67687 0.98614 1.01104 0.0
C144 C 0.72601 0.96461 0.93887 0.0
N145 N 0.68958 0.98896 0.90913 0.0
O146 O 0.8293 0.97156 0.05518 0.0
H147 H 0.66319 0.9939 0.05633 0.0
H148 H 0.75894 0.94967 0.91609 0.0
O149 O 0.74421 0.95476 0.13134 0.0
C150 C 0.87015 0.96558 1.01902 0.0
O151 O 0.86462 0.93826 0.98067 0.0
N152 N 0.72071 0.89634 0.05199 0.0
C153 C 0.70608 0.82386 0.04325 0.0
C154 C 0.70707 0.84081 0.10214 0.0
C155 C 0.71466 0.87721 0.10559 0.0
C156 C 0.7114 0.88076 0.99381 0.0
C157 C 0.70374 0.84445 0.98835 0.0
H158 H 0.72554 0.88864 0.15198 0.0
H159 H 0.71833 0.89531 0.95164 0.0
H160 H 0.85289 0.9406 0.18676 0.0
H161 H 0.92522 0.8443 0.13157 0.0
H162 H 0.62688 0.02412 0.94823 0.0
H163 H 0.70956 0.82588 0.14578 0.0
H164 H 0.702 0.83231 0.94188 0.0
C165 C 0.11618 0.87777 0.49312 0.0
C166 C 0.07272 0.86737 0.44663 0.0
N167 N 0.06822 0.89205 0.40086 0.0
N168 N 0.1397 0.90857 0.47626 0.0
C169 C 0.10921 0.91681 0.42013 0.0
H170 H 0.12915 0.86412 0.53705 0.0
Co171 Co 0.19617 0.9348 0.52654 0.0
C172 C 0.27483 0.95606 0.42558 0.0
O173 O 0.32316 0.94199 0.45547 0.0
N174 N 0.25003 0.9617 0.58039 0.0
C175 C 0.3102 0.00257 0.6276 0.0
C176 C 0.2915 0.98638 0.57082 0.0
C177 C 0.24357 0.96416 0.64299 0.0
N178 N 0.27953 0.98871 0.67296 0.0
O179 O 0.13986 0.97149 0.52654 0.0
H180 H 0.30441 0.99455 0.52553 0.0
H181 H 0.21106 0.94898 0.6657 0.0
O182 O 0.22511 0.95481 0.45017 0.0
C183 C 0.09901 0.96551 0.56259 0.0
O184 O 0.1046 0.93816 0.60056 0.0
N185 N 0.24876 0.89626 0.52841 0.0
C186 C 0.26324 0.82372 0.53472 0.0
C187 C 0.26304 0.84113 0.47657 0.0
C188 C 0.25538 0.87751 0.47428 0.0
C189 C 0.25739 0.88025 0.58608 0.0
C190 C 0.2649 0.84386 0.59036 0.0
H191 H 0.24505 0.88924 0.42819 0.0
H192 H 0.24965 0.89449 0.62854 0.0
H193 H 0.1164 0.94074 0.39441 0.0
H194 H 0.0452 0.84404 0.44753 0.0
H195 H 0.34076 0.0246 0.63398 0.0
H196 H 0.26235 0.82645 0.43258 0.0
H197 H 0.26471 0.83143 0.63626 0.0
C198 C 0.11537 0.12156 0.99533 0.0
C199 C 0.07165 0.13196 0.94917 0.0
N200 N 0.06739 0.10743 0.90286 0.0
N201 N 0.13926 0.0909 0.97775 0.0
C202 C 0.10876 0.08275 0.92151 0.0
H203 H 0.12824 0.13509 1.03955 0.0
Co204 Co 0.19592 0.0646 1.02747 0.0
C205 C 0.27447 0.04376 0.92584 0.0
O206 O 0.32263 0.05809 0.95562 0.0
N207 N 0.24994 0.03761 0.08074 0.0
C208 C 0.31086 0.99703 0.12755 0.0
C209 C 0.29215 0.0133 0.07098 0.0
C210 C 0.24311 0.03488 0.14318 0.0
N211 N 0.2795 0.01051 0.1729 0.0
O212 O 0.13979 0.02791 1.02686 0.0
H213 H 0.30576 0.00552 1.02567 0.0
H214 H 0.21022 0.04984 0.16597 0.0
O215 O 0.22488 0.04475 0.95072 0.0
C216 C 0.09896 0.03387 0.06304 0.0
O217 O 0.1045 0.06117 0.10143 0.0
N218 N 0.24835 0.10315 1.03009 0.0
C219 C 0.26299 0.17563 1.03884 0.0
C220 C 0.262 0.15868 0.97995 0.0
C221 C 0.2544 0.12229 0.9765 0.0
C222 C 0.25766 0.11873 0.08827 0.0
C223 C 0.26533 0.15504 0.09374 0.0
H224 H 0.24352 0.11085 0.93011 0.0
H225 H 0.25073 0.10418 0.13044 0.0
H226 H 0.11619 0.05893 0.89527 0.0
H227 H 0.0438 0.15517 0.95065 0.0
H228 H 0.34208 0.97528 0.13376 0.0
H229 H 0.25951 0.17361 0.93631 0.0
H230 H 0.26707 0.16718 0.14021 0.0
C231 C 0.85272 0.12189 0.58911 0.0
C232 C 0.89618 0.13228 0.63562 0.0
N233 N 0.90074 0.10756 0.68132 0.0
N234 N 0.82928 0.09105 0.60589 0.0
C235 C 0.8598 0.08278 0.66198 0.0
H236 H 0.83971 0.13557 0.54522 0.0
Co237 Co 0.77288 0.06479 0.55556 0.0
C238 C 0.69423 0.04347 0.65649 0.0
O239 O 0.64588 0.05752 0.62661 0.0
N240 N 0.71908 0.03787 0.50167 0.0
C241 C 0.65893 0.99699 0.45444 0.0
C242 C 0.6776 0.01319 0.51122 0.0
C243 C 0.72557 0.03541 0.43907 0.0
N244 N 0.68962 0.01086 0.4091 0.0
O245 O 0.82925 0.02815 0.55556 0.0
H246 H 0.66466 0.00502 0.5565 0.0
H247 H 0.75808 0.05059 0.41637 0.0
O248 O 0.74394 0.04474 0.63191 0.0
C249 C 0.87013 0.03417 0.51956 0.0
O250 O 0.86453 0.06153 0.48161 0.0
N251 N 0.7202 0.1033 0.55369 0.0
C252 C 0.70555 0.17583 0.54739 0.0
C253 C 0.70578 0.15841 0.60554 0.0
C254 C 0.71353 0.12203 0.60782 0.0
C255 C 0.71155 0.11931 0.49603 0.0
C256 C 0.70395 0.1557 0.49175 0.0
H257 H 0.72388 0.11031 0.65391 0.0
H258 H 0.71932 0.10508 0.45357 0.0
H259 H 0.85268 0.05882 0.68763 0.0
H260 H 0.92364 0.15563 0.63478 0.0
H261 H 0.62836 0.97497 0.44806 0.0
H262 H 0.70644 0.17308 0.64953 0.0
H263 H 0.70412 0.16813 0.44585 0.0
C264 C 0.13958 0.52967 0.75124 0.0
C265 C 0.19218 0.52796 0.72039 0.0
H266 H 0.09746 0.51835 0.83534 0.0
C267 C 0.24336 0.5122 0.75203 0.0
H268 H 0.09929 0.54158 0.72825 0.0
C269 C 0.24225 0.49896 0.81337 0.0
C270 C 0.18999 0.50121 0.84474 0.0
H271 H 0.28467 0.51043 0.72977 0.0
H272 H 0.28296 0.48782 0.83674 0.0
C273 C 0.13856 0.51653 0.81277 0.0
C274 C 0.8304 0.51658 0.7692 0.0
C275 C 0.77925 0.50084 0.73741 0.0
H276 H 0.86934 0.54215 0.85356 0.0
C277 C 0.72719 0.49832 0.76902 0.0
H278 H 0.87134 0.51862 0.74643 0.0
C279 C 0.72598 0.51176 0.83038 0.0
C280 C 0.77685 0.52797 0.86181 0.0
H281 H 0.6867 0.48684 0.74578 0.0
H282 H 0.68481 0.5098 0.85282 0.0
C283 C 0.82928 0.52991 0.83074 0.0
C284 C 0.8295 0.46972 0.33064 0.0
C285 C 0.77695 0.47153 0.36158 0.0
H286 H 0.87156 0.48094 0.24647 0.0
C287 C 0.72582 0.48737 0.33 0.0
H288 H 0.86975 0.45774 0.35358 0.0
C289 C 0.72692 0.5006 0.26865 0.0
C290 C 0.77913 0.49825 0.2372 0.0
H291 H 0.68456 0.48922 0.35232 0.0
H292 H 0.68624 0.51181 0.24533 0.0
C293 C 0.83051 0.48284 0.2691 0.0
C294 C 0.13994 0.46962 0.2513 0.0
C295 C 0.19234 0.47158 0.22018 0.0
H296 H 0.09794 0.48088 0.33564 0.0
C297 C 0.2432 0.48785 0.25155 0.0
H298 H 0.09989 0.45734 0.22853 0.0
C299 C 0.242 0.5013 0.31291 0.0
C300 C 0.18998 0.49874 0.34458 0.0
H301 H 0.28434 0.48983 0.22907 0.0
H302 H 0.28248 0.51281 0.3361 0.0
C303 C 0.13885 0.48295 0.31284 0.0
C304 C 0.742 0.99879 0.81323 0.0
C305 C 0.6898 0.00115 0.84468 0.0
H306 H 0.78438 0.01016 0.72957 0.0
C307 C 0.63842 0.01657 0.81278 0.0
H308 H 0.78267 0.98757 0.83655 0.0
C309 C 0.63944 0.02969 0.75123 0.0
C310 C 0.692 0.02788 0.72031 0.0
H311 H 0.59737 0.01848 0.83541 0.0
H312 H 0.5992 0.04168 0.7283 0.0
C313 C 0.74311 0.01202 0.75188 0.0
C314 C 0.22599 0.01172 0.83057 0.0
C315 C 0.27682 0.02799 0.86199 0.0
H316 H 0.18676 0.98678 0.74597 0.0
C317 C 0.32924 0.02999 0.83089 0.0
H318 H 0.18484 0.00971 0.85302 0.0
C319 C 0.33037 0.01669 0.76934 0.0
C320 C 0.27927 0.00089 0.73756 0.0
H321 H 0.36926 0.04227 0.8537 0.0
H322 H 0.37129 0.01878 0.74656 0.0
C323 C 0.22723 0.9983 0.76919 0.0
C324 C 0.33063 0.98286 0.26924 0.0
C325 C 0.27928 0.99832 0.23736 0.0
H326 H 0.36981 0.95773 0.35371 0.0
C327 C 0.2271 0.00074 0.26884 0.0
H328 H 0.37166 0.98091 0.24658 0.0
C329 C 0.22598 0.98752 0.33019 0.0
C330 C 0.27707 0.97163 0.36175 0.0
H331 H 0.18645 0.01199 0.24554 0.0
H332 H 0.18473 0.98942 0.35253 0.0
C333 C 0.3296 0.96975 0.33079 0.0
C334 C 0.7419 0.00126 0.31285 0.0
C335 C 0.68987 0.99867 0.34449 0.0
H336 H 0.78428 0.98982 0.22902 0.0
C337 C 0.63876 0.98288 0.31273 0.0
H338 H 0.78237 0.01278 0.33606 0.0
C339 C 0.63988 0.96956 0.25118 0.0
C340 C 0.6923 0.97155 0.22008 0.0
H341 H 0.59783 0.9808 0.33551 0.0
H342 H 0.59985 0.95727 0.22838 0.0
C343 C 0.74313 0.98782 0.25148 0.0
C344 C 0.43903 0.50809 0.07906 0.0
C345 C 0.42782 0.48412 1.02877 0.0
H346 H 0.50252 0.5421 0.13009 0.0
C347 C 0.47384 0.47594 0.99076 0.0
H348 H 0.40465 0.5146 0.10963 0.0
C349 C 0.5301 0.4914 1.00286 0.0
C350 C 0.54131 0.51537 0.05316 0.0
H351 H 0.46661 0.45739 0.95184 0.0
H352 H 0.56448 0.48489 0.9723 0.0
C353 C 0.49529 0.52355 0.09117 0.0
C354 C 0.49542 0.47611 0.59107 0.0
C355 C 0.54142 0.48419 0.55312 0.0
H356 H 0.40477 0.48519 0.60964 0.0
C357 C 0.53015 0.50813 0.50303 0.0
H358 H 0.50268 0.45759 0.62984 0.0
C359 C 0.47387 0.52365 0.49108 0.0
C360 C 0.42787 0.51556 0.52902 0.0
H361 H 0.56451 0.51456 0.47251 0.0
H362 H 0.46661 0.54217 0.45231 0.0
C363 C 0.43914 0.49163 0.57912 0.0
C364 C -0.00444 0.02317 0.09175 0.0
C365 C 0.04139 0.01522 0.05336 0.0
H366 H 0.90499 0.01415 0.11039 0.0
C367 C 0.0299 0.99161 1.00256 0.0
H368 H 0.00301 0.04144 0.13107 0.0
C369 C 0.97356 0.97627 0.99033 0.0
C370 C 0.92773 0.98422 1.02871 0.0
H371 H 0.06413 0.9853 0.97168 0.0
H372 H 0.96611 0.958 0.951 0.0
C373 C 0.93922 0.00784 0.07951 0.0
C374 C 0.97368 0.0235 0.49093 0.0
C375 C 0.92774 0.01545 0.52899 0.0
H376 H 0.06432 0.01446 0.47231 0.0
C377 C 0.93914 0.99164 0.57925 0.0
H378 H 0.96631 0.04193 0.45203 0.0
C379 C -0.00452 0.9762 0.59125 0.0
C380 C 0.04141 0.98424 0.55318 0.0
H381 H 0.90484 0.98524 0.60987 0.0
H382 H 0.00285 0.95777 0.63015 0.0
C383 C 0.03002 0.00806 0.50293 0.0
C384 C 0.26104 0.27306 1.00158 0.0
C385 C 0.21795 0.28565 1.04009 0.0
H386 H 0.31035 0.2286 0.9722 0.0
C387 C 0.19144 0.26199 0.07957 0.0
H388 H 0.28356 0.29083 0.97192 0.0
C389 C 0.20744 0.22646 0.08029 0.0
C390 C 0.25054 0.21387 0.0418 0.0
H391 H 0.15813 0.27093 0.10968 0.0
H392 H 0.18493 0.20869 0.10996 0.0
C393 C 0.27704 0.23753 1.0023 0.0
C394 C 0.77943 0.26402 0.58402 0.0
C395 C 0.75065 0.28542 0.53652 0.0
H396 H 0.78774 0.21258 0.62446 0.0
C397 C 0.70533 0.27079 0.49372 0.0
H398 H 0.81446 0.27457 0.61757 0.0
C399 C 0.6894 0.23544 0.49808 0.0
C400 C 0.71819 0.21404 0.54558 0.0
H401 H 0.68109 0.28688 0.45765 0.0
H402 H 0.65438 0.22489 0.46453 0.0
C403 C 0.7635 0.22867 0.58839 0.0
C404 C 0.76167 0.77304 1.00182 0.0
C405 C 0.71855 0.78562 1.0403 0.0
H406 H 0.811 0.72859 0.97243 0.0
C407 C 0.69206 0.76195 0.07978 0.0
H408 H 0.78418 0.79082 0.97216 0.0
C409 C 0.70807 0.72643 0.0805 0.0
C410 C 0.75118 0.71385 0.042 0.0
H411 H 0.65873 0.77088 0.10987 0.0
H412 H 0.68555 0.70865 0.11015 0.0
C413 C 0.77769 0.73752 1.00253 0.0
C414 C 0.27934 0.76411 0.58405 0.0
C415 C 0.25057 0.78551 0.53654 0.0
H416 H 0.28766 0.71267 0.62447 0.0
C417 C 0.20526 0.77088 0.49373 0.0
H418 H 0.31437 0.77466 0.6176 0.0
C419 C 0.18933 0.73554 0.49809 0.0
C420 C 0.21811 0.71414 0.54559 0.0
H421 H 0.18103 0.78698 0.45766 0.0
H422 H 0.15431 0.72499 0.46452 0.0
C423 C 0.26342 0.72876 0.5884 0.0
C424 C 0.50553 0.36031 0.31681 0.0
C425 C 0.52648 0.39213 0.34465 0.0
H426 H 0.44898 0.33532 0.24287 0.0
C427 C 0.50537 0.42404 0.31732 0.0
H428 H 0.52131 0.33531 0.33638 0.0
C429 C 0.46398 0.42404 0.26344 0.0
C430 C 0.4432 0.39215 0.23557 0.0
H431 H 0.52016 0.449 0.33804 0.0
H432 H 0.44892 0.44901 0.24315 0.0
C433 C 0.4645 0.36031 0.26286 0.0
C434 C 0.46348 0.63932 0.76537 0.0
C435 C 0.44257 0.6075 0.73744 0.0
H436 H 0.52002 0.66427 0.83935 0.0
C437 C 0.46376 0.57559 0.76467 0.0
H438 H 0.44764 0.66432 0.74589 0.0
C439 C 0.50518 0.57556 0.81852 0.0
C440 C 0.52592 0.60745 0.84648 0.0
H441 H 0.44901 0.55064 0.74388 0.0
H442 H 0.52029 0.55059 0.83872 0.0
C443 C 0.50454 0.63929 0.81929 0.0
C444 C 0.00571 0.86047 0.31669 0.0
C445 C 0.02658 0.8923 0.3446 0.0
H446 H 0.94927 0.83549 0.24266 0.0
C447 C 0.00545 0.92421 0.31729 0.0
H448 H 0.02151 0.83548 0.33625 0.0
C449 C 0.9641 0.92421 0.26338 0.0
C450 C 0.9434 0.89231 0.23544 0.0
H451 H 0.02018 0.94916 0.33806 0.0
H452 H 0.94902 0.94918 0.2431 0.0
C453 C 0.96474 0.86048 0.2627 0.0
C454 C 0.00498 0.07533 0.81866 0.0
C455 C 0.02564 0.10722 0.84668 0.0
H456 H 0.94892 0.05042 0.74393 0.0
C457 C 0.00424 0.13906 0.81952 0.0
H458 H 0.02012 0.05036 0.83886 0.0
C459 C 0.96325 0.13909 0.76555 0.0
C460 C 0.94242 0.10728 0.73755 0.0
H461 H 0.01967 0.16404 0.83962 0.0
H462 H 0.94739 0.16409 0.74607 0.0
C463 C 0.96361 0.07536 0.76477 0.0
loop_
_geom_bond_atom_site_label_1
_geom_bond_atom_site_label_2
_geom_bond_distance
_geom_bond_site_symmetry_2
_ccdc_geom_bond_type
C0 C1 1.351 . S
C0 N3 1.368 . S
C0 H5 0.931 . S
C1 C0 1.351 . S
C1 N2 1.373 . S
C1 H29 0.930 . S
N2 C1 1.373 . S
N2 C4 1.340 . S
N3 C0 1.368 . S
N3 C4 1.321 . S
N3 Co6 2.135 . S
C4 N2 1.340 . S
C4 N3 1.321 . S
C4 H28 0.930 . S
H5 C0 0.931 . S
Co6 N3 2.135 . S
Co6 N9 2.121 1_554 S
Co6 O14 2.055 . S
Co6 O17 2.039 . S
Co6 N20 2.140 . S
C7 O8 1.227 . S
C7 O17 1.265 . S
O8 C7 1.227 . S
N9 Co6 2.121 1_556 S
N9 C11 1.375 . S
N9 C12 1.313 . S
C10 C11 1.338 . S
C10 N13 1.377 . S
C10 H30 0.930 . S
C11 N9 1.375 . S
C11 C10 1.338 . S
C11 H15 0.931 1_556 S
C12 N9 1.313 . S
C12 N13 1.344 . S
C12 H16 0.930 . S
N13 C10 1.377 . S
N13 C12 1.344 . S
O14 Co6 2.055 . S
O14 C18 1.253 1_554 S
H15 C11 0.931 1_554 S
H16 C12 0.930 . S
O17 Co6 2.039 . S
O17 C7 1.265 . S
C18 O14 1.253 1_556 S
C18 O19 1.227 . S
O19 C18 1.227 . S
N20 Co6 2.140 . S
N20 C23 1.346 . S
N20 C24 1.345 1_554 S
C21 C22 1.387 . S
C21 C25 1.391 1_554 S
C22 C21 1.387 . S
C22 C23 1.369 . S
C22 H31 0.929 . S
C23 N20 1.346 . S
C23 C22 1.369 . S
C23 H26 0.928 . S
C24 N20 1.345 1_556 S
C24 C25 1.371 . S
C24 H27 0.931 . S
C25 C21 1.391 1_556 S
C25 C24 1.371 . S
C25 H32 0.930 . S
H26 C23 0.928 . S
H27 C24 0.931 . S
H28 C4 0.930 . S
H29 C1 0.930 . S
H30 C10 0.930 . S
H31 C22 0.929 . S
H32 C25 0.930 . S
C33 C34 1.351 . S
C33 N36 1.368 . S
C33 H38 0.931 . S
C34 C33 1.351 . S
C34 N35 1.373 . S
C34 H62 0.930 . S
N35 C34 1.373 . S
N35 C37 1.340 . S
N36 C33 1.368 . S
N36 C37 1.321 . S
N36 Co39 2.135 . S
C37 N35 1.340 . S
C37 N36 1.321 . S
C37 H61 0.930 . S
H38 C33 0.931 . S
Co39 N36 2.135 . S
Co39 N42 2.121 . S
Co39 O47 2.055 . S
Co39 O50 2.039 . S
Co39 N53 2.140 . S
C40 O41 1.227 . S
C40 O50 1.265 . S
O41 C40 1.227 . S
N42 Co39 2.121 . S
N42 C44 1.375 . S
N42 C45 1.313 . S
C43 C44 1.338 . S
C43 N46 1.377 . S
C43 H63 0.930 . S
C44 N42 1.375 . S
C44 C43 1.338 . S
C44 H48 0.931 . S
C45 N42 1.313 . S
C45 N46 1.344 . S
C45 H49 0.930 . S
N46 C43 1.377 . S
N46 C45 1.344 . S
O47 Co39 2.055 . S
O47 C51 1.253 . S
H48 C44 0.931 . S
H49 C45 0.930 . S
O50 Co39 2.039 . S
O50 C40 1.265 . S
C51 O47 1.253 . S
C51 O52 1.227 . S
O52 C51 1.227 . S
N53 Co39 2.140 . S
N53 C56 1.346 . S
N53 C57 1.345 . S
C54 C55 1.387 . S
C54 C58 1.391 . S
C55 C54 1.387 . S
C55 C56 1.369 . S
C55 H64 0.929 . S
C56 N53 1.346 . S
C56 C55 1.369 . S
C56 H59 0.928 . S
C57 N53 1.345 . S
C57 C58 1.371 . S
C57 H60 0.931 . S
C58 C54 1.391 . S
C58 C57 1.371 . S
C58 H65 0.930 . S
H59 C56 0.928 . S
H60 C57 0.931 . S
H61 C37 0.930 . S
H62 C34 0.930 . S
H63 C43 0.930 . S
H64 C55 0.929 . S
H65 C58 0.930 . S
C66 C67 1.351 . S
C66 N69 1.368 . S
C66 H71 0.931 . S
C67 C66 1.351 . S
C67 N68 1.373 . S
C67 H95 0.930 . S
N68 C67 1.373 . S
N68 C70 1.340 . S
N69 C66 1.368 . S
N69 C70 1.321 . S
N69 Co72 2.135 . S
C70 N68 1.340 . S
C70 N69 1.321 . S
C70 H94 0.930 . S
H71 C66 0.931 . S
Co72 N69 2.135 . S
Co72 N75 2.121 1_556 S
Co72 O80 2.055 . S
Co72 O83 2.039 . S
Co72 N86 2.140 . S
C73 O74 1.227 . S
C73 O83 1.265 . S
O74 C73 1.227 . S
N75 Co72 2.121 1_554 S
N75 C77 1.375 . S
N75 C78 1.313 . S
C76 C77 1.338 . S
C76 N79 1.377 . S
C76 H96 0.930 . S
C77 N75 1.375 . S
C77 C76 1.338 . S
C77 H81 0.931 1_554 S
C78 N75 1.313 . S
C78 N79 1.344 . S
C78 H82 0.930 . S
N79 C76 1.377 . S
N79 C78 1.344 . S
O80 Co72 2.055 . S
O80 C84 1.253 1_556 S
H81 C77 0.931 1_556 S
H82 C78 0.930 . S
O83 Co72 2.039 . S
O83 C73 1.265 . S
C84 O80 1.253 1_554 S
C84 O85 1.227 . S
O85 C84 1.227 . S
N86 Co72 2.140 . S
N86 C89 1.346 . S
N86 C90 1.345 1_556 S
C87 C88 1.387 . S
C87 C91 1.391 1_556 S
C88 C87 1.387 . S
C88 C89 1.369 . S
C88 H97 0.929 . S
C89 N86 1.346 . S
C89 C88 1.369 . S
C89 H92 0.928 . S
C90 N86 1.345 1_554 S
C90 C91 1.371 . S
C90 H93 0.931 . S
C91 C87 1.391 1_554 S
C91 C90 1.371 . S
C91 H98 0.930 . S
H92 C89 0.928 . S
H93 C90 0.931 . S
H94 C70 0.930 . S
H95 C67 0.930 . S
H96 C76 0.930 . S
H97 C88 0.929 . S
H98 C91 0.930 . S
C99 C100 1.351 . S
C99 N102 1.368 . S
C99 H104 0.931 . S
C100 C99 1.351 . S
C100 N101 1.373 . S
C100 H128 0.930 . S
N101 C100 1.373 . S
N101 C103 1.340 . S
N102 C99 1.368 . S
N102 C103 1.321 . S
N102 Co105 2.135 . S
C103 N101 1.340 . S
C103 N102 1.321 . S
C103 H127 0.930 . S
H104 C99 0.931 . S
Co105 N102 2.135 . S
Co105 N108 2.121 . S
Co105 O113 2.055 . S
Co105 O116 2.039 . S
Co105 N119 2.140 . S
C106 O107 1.227 . S
C106 O116 1.265 . S
O107 C106 1.227 . S
N108 Co105 2.121 . S
N108 C110 1.375 . S
N108 C111 1.313 . S
C109 C110 1.338 . S
C109 N112 1.377 . S
C109 H129 0.930 . S
C110 N108 1.375 . S
C110 C109 1.338 . S
C110 H114 0.931 . S
C111 N108 1.313 . S
C111 N112 1.344 . S
C111 H115 0.930 . S
N112 C109 1.377 . S
N112 C111 1.344 . S
O113 Co105 2.055 . S
O113 C117 1.253 . S
H114 C110 0.931 . S
H115 C111 0.930 . S
O116 Co105 2.039 . S
O116 C106 1.265 . S
C117 O113 1.253 . S
C117 O118 1.227 . S
O118 C117 1.227 . S
N119 Co105 2.140 . S
N119 C122 1.346 . S
N119 C123 1.345 . S
C120 C121 1.387 . S
C120 C124 1.391 . S
C121 C120 1.387 . S
C121 C122 1.369 . S
C121 H130 0.929 . S
C122 N119 1.346 . S
C122 C121 1.369 . S
C122 H125 0.928 . S
C123 N119 1.345 . S
C123 C124 1.371 . S
C123 H126 0.931 . S
C124 C120 1.391 . S
C124 C123 1.371 . S
C124 H131 0.930 . S
H125 C122 0.928 . S
H126 C123 0.931 . S
H127 C103 0.930 . S
H128 C100 0.930 . S
H129 C109 0.930 . S
H130 C121 0.929 . S
H131 C124 0.930 . S
C132 C133 1.351 . S
C132 N135 1.368 . S
C132 H137 0.931 . S
C133 C132 1.351 . S
C133 N134 1.373 . S
C133 H161 0.930 . S
N134 C133 1.373 . S
N134 C136 1.340 . S
N135 C132 1.368 . S
N135 C136 1.321 . S
N135 Co138 2.135 . S
C136 N134 1.340 . S
C136 N135 1.321 . S
C136 H160 0.930 . S
H137 C132 0.931 . S
Co138 N135 2.135 . S
Co138 N141 2.121 1_554 S
Co138 O146 2.055 . S
Co138 O149 2.039 . S
Co138 N152 2.140 . S
C139 O140 1.227 . S
C139 O149 1.265 . S
O140 C139 1.227 . S
N141 Co138 2.121 1_556 S
N141 C143 1.375 . S
N141 C144 1.313 . S
C142 C143 1.338 . S
C142 N145 1.377 . S
C142 H162 0.930 . S
C143 N141 1.375 . S
C143 C142 1.338 . S
C143 H147 0.931 1_556 S
C144 N141 1.313 . S
C144 N145 1.344 . S
C144 H148 0.930 . S
N145 C142 1.377 . S
N145 C144 1.344 . S
O146 Co138 2.055 . S
O146 C150 1.253 1_554 S
H147 C143 0.931 1_554 S
H148 C144 0.930 . S
O149 Co138 2.039 . S
O149 C139 1.265 . S
C150 O146 1.253 1_556 S
C150 O151 1.227 . S
O151 C150 1.227 . S
N152 Co138 2.140 . S
N152 C155 1.346 . S
N152 C156 1.345 1_554 S
C153 C154 1.387 . S
C153 C157 1.391 1_554 S
C154 C153 1.387 . S
C154 C155 1.369 . S
C154 H163 0.929 . S
C155 N152 1.346 . S
C155 C154 1.369 . S
C155 H158 0.928 . S
C156 N152 1.345 1_556 S
C156 C157 1.371 . S
C156 H159 0.931 . S
C157 C153 1.391 1_556 S
C157 C156 1.371 . S
C157 H164 0.930 . S
H158 C155 0.928 . S
H159 C156 0.931 . S
H160 C136 0.930 . S
H161 C133 0.930 . S
H162 C142 0.930 . S
H163 C154 0.929 . S
H164 C157 0.930 . S
C165 C166 1.351 . S
C165 N168 1.368 . S
C165 H170 0.931 . S
C166 C165 1.351 . S
C166 N167 1.373 . S
C166 H194 0.930 . S
N167 C166 1.373 . S
N167 C169 1.340 . S
N168 C165 1.368 . S
N168 C169 1.321 . S
N168 Co171 2.135 . S
C169 N167 1.340 . S
C169 N168 1.321 . S
C169 H193 0.930 . S
H170 C165 0.931 . S
Co171 N168 2.135 . S
Co171 N174 2.121 . S
Co171 O179 2.055 . S
Co171 O182 2.039 . S
Co171 N185 2.140 . S
C172 O173 1.227 . S
C172 O182 1.265 . S
O173 C172 1.227 . S
N174 Co171 2.121 . S
N174 C176 1.375 . S
N174 C177 1.313 . S
C175 C176 1.338 . S
C175 N178 1.377 . S
C175 H195 0.930 . S
C176 N174 1.375 . S
C176 C175 1.338 . S
C176 H180 0.931 . S
C177 N174 1.313 . S
C177 N178 1.344 . S
C177 H181 0.930 . S
N178 C175 1.377 . S
N178 C177 1.344 . S
O179 Co171 2.055 . S
O179 C183 1.253 . S
H180 C176 0.931 . S
H181 C177 0.930 . S
O182 Co171 2.039 . S
O182 C172 1.265 . S
C183 O179 1.253 . S
C183 O184 1.227 . S
O184 C183 1.227 . S
N185 Co171 2.140 . S
N185 C188 1.346 . S
N185 C189 1.345 . S
C186 C187 1.387 . S
C186 C190 1.391 . S
C187 C186 1.387 . S
C187 C188 1.369 . S
C187 H196 0.929 . S
C188 N185 1.346 . S
C188 C187 1.369 . S
C188 H191 0.928 . S
C189 N185 1.345 . S
C189 C190 1.371 . S
C189 H192 0.931 . S
C190 C186 1.391 . S
C190 C189 1.371 . S
C190 H197 0.930 . S
H191 C188 0.928 . S
H192 C189 0.931 . S
H193 C169 0.930 . S
H194 C166 0.930 . S
H195 C175 0.930 . S
H196 C187 0.929 . S
H197 C190 0.930 . S
C198 C199 1.351 . S
C198 N201 1.368 . S
C198 H203 0.931 . S
C199 C198 1.351 . S
C199 N200 1.373 . S
C199 H227 0.930 . S
N200 C199 1.373 . S
N200 C202 1.340 . S
N201 C198 1.368 . S
N201 C202 1.321 . S
N201 Co204 2.135 . S
C202 N200 1.340 . S
C202 N201 1.321 . S
C202 H226 0.930 . S
H203 C198 0.931 . S
Co204 N201 2.135 . S
Co204 N207 2.121 1_556 S
Co204 O212 2.055 . S
Co204 O215 2.039 . S
Co204 N218 2.140 . S
C205 O206 1.227 . S
C205 O215 1.265 . S
O206 C205 1.227 . S
N207 Co204 2.121 1_554 S
N207 C209 1.375 . S
N207 C210 1.313 . S
C208 C209 1.338 . S
C208 N211 1.377 . S
C208 H228 0.930 . S
C209 N207 1.375 . S
C209 C208 1.338 . S
C209 H213 0.931 1_554 S
C210 N207 1.313 . S
C210 N211 1.344 . S
C210 H214 0.930 . S
N211 C208 1.377 . S
N211 C210 1.344 . S
O212 Co204 2.055 . S
O212 C216 1.253 1_556 S
H213 C209 0.931 1_556 S
H214 C210 0.930 . S
O215 Co204 2.039 . S
O215 C205 1.265 . S
C216 O212 1.253 1_554 S
C216 O217 1.227 . S
O217 C216 1.227 . S
N218 Co204 2.140 . S
N218 C221 1.346 . S
N218 C222 1.345 1_556 S
C219 C220 1.387 . S
C219 C223 1.391 1_556 S
C220 C219 1.387 . S
C220 C221 1.369 . S
C220 H229 0.929 . S
C221 N218 1.346 . S
C221 C220 1.369 . S
C221 H224 0.928 . S
C222 N218 1.345 1_554 S
C222 C223 1.371 . S
C222 H225 0.931 . S
C223 C219 1.391 1_554 S
C223 C222 1.371 . S
C223 H230 0.930 . S
H224 C221 0.928 . S
H225 C222 0.931 . S
H226 C202 0.930 . S
H227 C199 0.930 . S
H228 C208 0.930 . S
H229 C220 0.929 . S
H230 C223 0.930 . S
C231 C232 1.351 . S
C231 N234 1.368 . S
C231 H236 0.931 . S
C232 C231 1.351 . S
C232 N233 1.373 . S
C232 H260 0.930 . S
N233 C232 1.373 . S
N233 C235 1.340 . S
N234 C231 1.368 . S
N234 C235 1.321 . S
N234 Co237 2.135 . S
C235 N233 1.340 . S
C235 N234 1.321 . S
C235 H259 0.930 . S
H236 C231 0.931 . S
Co237 N234 2.135 . S
Co237 N240 2.121 . S
Co237 O245 2.055 . S
Co237 O248 2.039 . S
Co237 N251 2.140 . S
C238 O239 1.227 . S
C238 O248 1.265 . S
O239 C238 1.227 . S
N240 Co237 2.121 . S
N240 C242 1.375 . S
N240 C243 1.313 . S
C241 C242 1.338 . S
C241 N244 1.377 . S
C241 H261 0.930 . S
C242 N240 1.375 . S
C242 C241 1.338 . S
C242 H246 0.931 . S
C243 N240 1.313 . S
C243 N244 1.344 . S
C243 H247 0.930 . S
N244 C241 1.377 . S
N244 C243 1.344 . S
O245 Co237 2.055 . S
O245 C249 1.253 . S
H246 C242 0.931 . S
H247 C243 0.930 . S
O248 Co237 2.039 . S
O248 C238 1.265 . S
C249 O245 1.253 . S
C249 O250 1.227 . S
O250 C249 1.227 . S
N251 Co237 2.140 . S
N251 C254 1.346 . S
N251 C255 1.345 . S
C252 C253 1.387 . S
C252 C256 1.391 . S
C253 C252 1.387 . S
C253 C254 1.369 . S
C253 H262 0.929 . S
C254 N251 1.346 . S
C254 C253 1.369 . S
C254 H257 0.928 . S
C255 N251 1.345 . S
C255 C256 1.371 . S
C255 H258 0.931 . S
C256 C252 1.391 . S
C256 C255 1.371 . S
C256 H263 0.930 . S
H257 C254 0.928 . S
H258 C255 0.931 . S
H259 C235 0.930 . S
H260 C232 0.930 . S
H261 C241 0.930 . S
H262 C253 0.929 . S
H263 C256 0.930 . S
C264 C265 1.387 . S
C264 H268 0.950 . S
C264 C273 1.390 . S
C265 C264 1.387 . S
C265 C267 1.387 . S
H266 C273 0.950 . S
C267 C265 1.387 . S
C267 C269 1.390 . S
C267 H271 0.950 . S
H268 C264 0.950 . S
C269 C267 1.390 . S
C269 C270 1.387 . S
C269 H272 0.950 . S
C270 C269 1.387 . S
C270 C273 1.387 . S
H271 C267 0.950 . S
H272 C269 0.950 . S
C273 C264 1.390 . S
C273 H266 0.950 . S
C273 C270 1.387 . S
C274 C275 1.387 . S
C274 H278 0.950 . S
C274 C283 1.390 . S
C275 C274 1.387 . S
C275 C277 1.387 . S
H276 C283 0.950 . S
C277 C275 1.387 . S
C277 C279 1.390 . S
C277 H281 0.950 . S
H278 C274 0.950 . S
C279 C277 1.390 . S
C279 C280 1.387 . S
C279 H282 0.950 . S
C280 C279 1.387 . S
C280 C283 1.387 . S
H281 C277 0.950 . S
H282 C279 0.950 . S
C283 C274 1.390 . S
C283 H276 0.950 . S
C283 C280 1.387 . S
C284 C285 1.387 . S
C284 H288 0.950 . S
C284 C293 1.390 . S
C285 C284 1.387 . S
C285 C287 1.387 . S
H286 C293 0.950 . S
C287 C285 1.387 . S
C287 C289 1.390 . S
C287 H291 0.950 . S
H288 C284 0.950 . S
C289 C287 1.390 . S
C289 C290 1.387 . S
C289 H292 0.950 . S
C290 C289 1.387 . S
C290 C293 1.387 . S
H291 C287 0.950 . S
H292 C289 0.950 . S
C293 C284 1.390 . S
C293 H286 0.950 . S
C293 C290 1.387 . S
C294 C295 1.387 . S
C294 H298 0.950 . S
C294 C303 1.390 . S
C295 C294 1.387 . S
C295 C297 1.387 . S
H296 C303 0.950 . S
C297 C295 1.387 . S
C297 C299 1.390 . S
C297 H301 0.950 . S
H298 C294 0.950 . S
C299 C297 1.390 . S
C299 C300 1.387 . S
C299 H302 0.950 . S
C300 C299 1.387 . S
C300 C303 1.387 . S
H301 C297 0.950 . S
H302 C299 0.950 . S
C303 C294 1.390 . S
C303 H296 0.950 . S
C303 C300 1.387 . S
C304 C305 1.387 . S
C304 H308 0.950 . S
C304 C313 1.390 . S
C305 C304 1.387 . S
C305 C307 1.387 1_565 S
H306 C313 0.950 . S
C307 C305 1.387 1_545 S
C307 C309 1.390 . S
C307 H311 0.950 . S
H308 C304 0.950 . S
C309 C307 1.390 . S
C309 C310 1.387 . S
C309 H312 0.950 . S
C310 C309 1.387 . S
C310 C313 1.387 1_545 S
H311 C307 0.950 . S
H312 C309 0.950 . S
C313 C304 1.390 . S
C313 H306 0.950 . S
C313 C310 1.387 1_565 S
C314 C315 1.387 1_565 S
C314 H318 0.950 . S
C314 C323 1.390 . S
C315 C314 1.387 1_545 S
C315 C317 1.387 . S
H316 C323 0.950 . S
C317 C315 1.387 . S
C317 C319 1.390 . S
C317 H321 0.950 . S
H318 C314 0.950 . S
C319 C317 1.390 . S
C319 C320 1.387 1_545 S
C319 H322 0.950 . S
C320 C319 1.387 1_565 S
C320 C323 1.387 . S
H321 C317 0.950 . S
H322 C319 0.950 . S
C323 C314 1.390 . S
C323 H316 0.950 . S
C323 C320 1.387 . S
C324 C325 1.387 1_565 S
C324 H328 0.950 . S
C324 C333 1.390 . S
C325 C324 1.387 1_545 S
C325 C327 1.387 . S
H326 C333 0.950 . S
C327 C325 1.387 . S
C327 C329 1.390 . S
C327 H331 0.950 . S
H328 C324 0.950 . S
C329 C327 1.390 . S
C329 C330 1.387 1_545 S
C329 H332 0.950 . S
C330 C329 1.387 1_565 S
C330 C333 1.387 . S
H331 C327 0.950 . S
H332 C329 0.950 . S
C333 C324 1.390 . S
C333 H326 0.950 . S
C333 C330 1.387 . S
C334 C335 1.387 . S
C334 H338 0.950 . S
C334 C343 1.390 . S
C335 C334 1.387 . S
C335 C337 1.387 1_545 S
H336 C343 0.950 . S
C337 C335 1.387 1_565 S
C337 C339 1.390 . S
C337 H341 0.950 . S
H338 C334 0.950 . S
C339 C337 1.390 . S
C339 C340 1.387 . S
C339 H342 0.950 . S
C340 C339 1.387 . S
C340 C343 1.387 1_565 S
H341 C337 0.950 . S
H342 C339 0.950 . S
C343 C334 1.390 . S
C343 H336 0.950 . S
C343 C340 1.387 1_545 S
C344 C345 1.387 1_554 S
C344 H348 0.950 . S
C344 C353 1.390 . S
C345 C344 1.387 1_556 S
C345 C347 1.387 . S
H346 C353 0.950 . S
C347 C345 1.387 . S
C347 C349 1.390 . S
C347 H351 0.950 . S
H348 C344 0.950 . S
C349 C347 1.390 . S
C349 C350 1.387 1_556 S
C349 H352 0.950 . S
C350 C349 1.387 1_554 S
C350 C353 1.387 . S
H351 C347 0.950 . S
H352 C349 0.950 . S
C353 C344 1.390 . S
C353 H346 0.950 . S
C353 C350 1.387 . S
C354 C355 1.387 . S
C354 H358 0.950 . S
C354 C363 1.390 . S
C355 C354 1.387 . S
C355 C357 1.387 . S
H356 C363 0.950 . S
C357 C355 1.387 . S
C357 C359 1.390 . S
C357 H361 0.950 . S
H358 C354 0.950 . S
C359 C357 1.390 . S
C359 C360 1.387 . S
C359 H362 0.950 . S
C360 C359 1.387 . S
C360 C363 1.387 . S
H361 C357 0.950 . S
H362 C359 0.950 . S
C363 C354 1.390 . S
C363 H356 0.950 . S
C363 C360 1.387 . S
C364 C365 1.387 1_565 S
C364 H368 0.950 . S
C364 C373 1.390 1_455 S
C365 C364 1.387 1_545 S
C365 C367 1.387 1_554 S
H366 C373 0.950 . S
C367 C365 1.387 1_556 S
C367 C369 1.390 1_455 S
C367 H371 0.950 . S
H368 C364 0.950 . S
C369 C367 1.390 1_655 S
C369 C370 1.387 1_545 S
C369 H372 0.950 . S
C370 C369 1.387 1_565 S
C370 C373 1.387 1_556 S
H371 C367 0.950 . S
H372 C369 0.950 . S
C373 C364 1.390 1_655 S
C373 H366 0.950 . S
C373 C370 1.387 1_554 S
C374 C375 1.387 . S
C374 H378 0.950 . S
C374 C383 1.390 1_645 S
C375 C374 1.387 . S
C375 C377 1.387 . S
H376 C383 0.950 . S
C377 C375 1.387 . S
C377 C379 1.390 1_645 S
C377 H381 0.950 . S
H378 C374 0.950 . S
C379 C377 1.390 1_465 S
C379 C380 1.387 . S
C379 H382 0.950 . S
C380 C379 1.387 . S
C380 C383 1.387 . S
H381 C377 0.950 . S
H382 C379 0.950 . S
C383 C374 1.390 1_465 S
C383 H376 0.950 . S
C383 C380 1.387 . S
C384 C385 1.371 1_556 S
C384 H388 0.950 . S
C384 C393 1.390 . S
C385 C384 1.371 1_554 S
C385 C387 1.403 . S
H386 C393 0.950 . S
C387 C385 1.403 . S
C387 C389 1.390 . S
C387 H391 0.950 . S
H388 C384 0.950 . S
C389 C387 1.390 . S
C389 C390 1.371 1_554 S
C389 H392 0.950 . S
C390 C389 1.371 1_556 S
C390 C393 1.403 . S
H391 C387 0.950 . S
H392 C389 0.950 . S
C393 C384 1.390 . S
C393 H386 0.950 . S
C393 C390 1.403 . S
C394 C395 1.387 . S
C394 H398 0.950 . S
C394 C403 1.390 . S
C395 C394 1.387 . S
C395 C397 1.387 . S
H396 C403 0.950 . S
C397 C395 1.387 . S
C397 C399 1.390 . S
C397 H401 0.950 . S
H398 C394 0.950 . S
C399 C397 1.390 . S
C399 C400 1.387 . S
C399 H402 0.950 . S
C400 C399 1.387 . S
C400 C403 1.387 . S
H401 C397 0.950 . S
H402 C399 0.950 . S
C403 C394 1.390 . S
C403 H396 0.950 . S
C403 C400 1.387 . S
C404 C405 1.373 1_556 S
C404 H408 0.950 . S
C404 C413 1.390 . S
C405 C404 1.373 1_554 S
C405 C407 1.401 . S
H406 C413 0.950 . S
C407 C405 1.401 . S
C407 C409 1.390 . S
C407 H411 0.950 . S
H408 C404 0.950 . S
C409 C407 1.390 . S
C409 C410 1.373 1_554 S
C409 H412 0.950 . S
C410 C409 1.373 1_556 S
C410 C413 1.401 . S
H411 C407 0.950 . S
H412 C409 0.950 . S
C413 C404 1.390 . S
C413 H406 0.950 . S
C413 C410 1.401 . S
C414 C415 1.387 . S
C414 H418 0.950 . S
C414 C423 1.390 . S
C415 C414 1.387 . S
C415 C417 1.387 . S
H416 C423 0.950 . S
C417 C415 1.387 . S
C417 C419 1.390 . S
C417 H421 0.950 . S
H418 C414 0.950 . S
C419 C417 1.390 . S
C419 C420 1.387 . S
C419 H422 0.950 . S
C420 C419 1.387 . S
C420 C423 1.387 . S
H421 C417 0.950 . S
H422 C419 0.950 . S
C423 C414 1.390 . S
C423 H416 0.950 . S
C423 C420 1.387 . S
C424 C425 1.387 . S
C424 H428 0.950 . S
C424 C433 1.390 . S
C425 C424 1.387 . S
C425 C427 1.387 . S
H426 C433 0.950 . S
C427 C425 1.387 . S
C427 C429 1.390 . S
C427 H431 0.950 . S
H428 C424 0.950 . S
C429 C427 1.390 . S
C429 C430 1.387 . S
C429 H432 0.950 . S
C430 C429 1.387 . S
C430 C433 1.387 . S
H431 C427 0.950 . S
H432 C429 0.950 . S
C433 C424 1.390 . S
C433 H426 0.950 . S
C433 C430 1.387 . S
C434 C435 1.387 . S
C434 H438 0.950 . S
C434 C443 1.390 . S
C435 C434 1.387 . S
C435 C437 1.387 . S
H436 C443 0.950 . S
C437 C435 1.387 . S
C437 C439 1.390 . S
C437 H441 0.950 . S
H438 C434 0.950 . S
C439 C437 1.390 . S
C439 C440 1.387 . S
C439 H442 0.950 . S
C440 C439 1.387 . S
C440 C443 1.387 . S
H441 C437 0.950 . S
H442 C439 0.950 . S
C443 C434 1.390 . S
C443 H436 0.950 . S
C443 C440 1.387 . S
C444 C445 1.387 . S
C444 H448 0.950 . S
C444 C453 1.390 1_455 S
C445 C444 1.387 . S
C445 C447 1.387 . S
H446 C453 0.950 . S
C447 C445 1.387 . S
C447 C449 1.390 1_455 S
C447 H451 0.950 . S
H448 C444 0.950 . S
C449 C447 1.390 1_655 S
C449 C450 1.387 . S
C449 H452 0.950 . S
C450 C449 1.387 . S
C450 C453 1.387 . S
H451 C447 0.950 . S
H452 C449 0.950 . S
C453 C444 1.390 1_655 S
C453 H446 0.950 . S
C453 C450 1.387 . S
C454 C455 1.387 . S
C454 H458 0.950 . S
C454 C463 1.390 1_455 S
C455 C454 1.387 . S
C455 C457 1.387 . S
H456 C463 0.950 . S
C457 C455 1.387 . S
C457 C459 1.390 1_455 S
C457 H461 0.950 . S
H458 C454 0.950 . S
C459 C457 1.390 1_655 S
C459 C460 1.387 . S
C459 H462 0.950 . S
C460 C459 1.387 . S
C460 C463 1.387 . S
H461 C457 0.950 . S
H462 C459 0.950 . S
C463 C454 1.390 1_655 S
C463 H456 0.950 . S
C463 C460 1.387 . S
C265 C106 1.855 . S
C270 N13 1.954 . S
C275 N46 1.954 . S
C280 C73 1.855 . S
C285 C40 1.857 . S
C290 N79 1.953 . S
C295 C7 1.857 . S
C300 N112 1.954 . S
C305 N145 1.953 . S
C310 C238 1.857 . S
C315 C205 1.857 . S
C320 N178 1.953 . S
C325 N211 1.953 . S
C330 C172 1.857 . S
C335 N244 1.954 . S
C340 C139 1.854 . S
C345 C18 1.339 . S
C350 C84 1.339 . S
C355 C51 1.338 . S
C360 C117 1.338 . S
C365 C216 1.336 . S
C370 C150 1.336 . S
C375 C249 1.337 . S
C380 C183 1.337 . S
C385 C21 1.564 . S
C390 C219 1.564 . S
C395 C54 1.562 . S
C400 C252 1.562 . S
C405 C153 1.564 . S
C410 C87 1.564 . S
C415 C186 1.562 . S
C420 C120 1.562 . S
C425 N35 0.879 . S
C430 N2 0.879 . S
C435 N101 0.870 . S
C440 N68 0.870 . S
C445 N167 0.879 . S
C450 N134 0.879 . S
C455 N200 0.879 . S
C460 N233 0.879 . S
