# Generated by pormake.
# Topology umz, (4)-cn, num edge types: 1
# Building blocks:
#     Node 0, Type 0, BuildingBlock: QUQFOY_clean_sbu_1, # of connection points: 4
#     Node 1, Type 0, BuildingBlock: QUQFOY_clean_sbu_1, # of connection points: 4
#     Node 2, Type 0, BuildingBlock: QUQFOY_clean_sbu_1, # of connection points: 4
#     Node 3, Type 0, BuildingBlock: QUQFOY_clean_sbu_1, # of connection points: 4
#     Node 4, Type 0, BuildingBlock: QUQFOY_clean_sbu_1, # of connection points: 4
#     Node 5, Type 0, BuildingBlock: QUQFOY_clean_sbu_1, # of connection points: 4
#     Node 6, Type 0, BuildingBlock: QUQFOY_clean_sbu_1, # of connection points: 4
#     Node 7, Type 0, BuildingBlock: QUQFOY_clean_sbu_1, # of connection points: 4
#     Node 8, Type 0, BuildingBlock: QUQFOY_clean_sbu_1, # of connection points: 4
#     Node 9, Type 0, BuildingBlock: QUQFOY_clean_sbu_1, # of connection points: 4
#     Node 10, Type 0, BuildingBlock: QUQFOY_clean_sbu_1, # of connection points: 4
#     Node 11, Type 0, BuildingBlock: QUQFOY_clean_sbu_1, # of connection points: 4
#     Node 12, Type 0, BuildingBlock: QUQFOY_clean_sbu_1, # of connection points: 4
#     Node 13, Type 0, BuildingBlock: QUQFOY_clean_sbu_1, # of connection points: 4
#     Node 14, Type 0, BuildingBlock: QUQFOY_clean_sbu_1, # of connection points: 4
#     Node 15, Type 0, BuildingBlock: QUQFOY_clean_sbu_1, # of connection points: 4
#     Edge 16, Type (0, 0), BuildingBlock: MIFKUJ_clean_linker_0, # of connection points: 2
#     Edge 17, Type (0, 0), BuildingBlock: MIFKUJ_clean_linker_0, # of connection points: 2
#     Edge 18, Type (0, 0), BuildingBlock: MIFKUJ_clean_linker_0, # of connection points: 2
#     Edge 19, Type (0, 0), BuildingBlock: MIFKUJ_clean_linker_0, # of connection points: 2
#     Edge 20, Type (0, 0), BuildingBlock: MIFKUJ_clean_linker_0, # of connection points: 2
#     Edge 21, Type (0, 0), BuildingBlock: MIFKUJ_clean_linker_0, # of connection points: 2
#     Edge 22, Type (0, 0), BuildingBlock: MIFKUJ_clean_linker_0, # of connection points: 2
#     Edge 23, Type (0, 0), BuildingBlock: MIFKUJ_clean_linker_0, # of connection points: 2
#     Edge 24, Type (0, 0), BuildingBlock: MIFKUJ_clean_linker_0, # of connection points: 2
#     Edge 25, Type (0, 0), BuildingBlock: MIFKUJ_clean_linker_0, # of connection points: 2
#     Edge 26, Type (0, 0), BuildingBlock: MIFKUJ_clean_linker_0, # of connection points: 2
#     Edge 27, Type (0, 0), BuildingBlock: MIFKUJ_clean_linker_0, # of connection points: 2
#     Edge 28, Type (0, 0), BuildingBlock: MIFKUJ_clean_linker_0, # of connection points: 2
#     Edge 29, Type (0, 0), BuildingBlock: MIFKUJ_clean_linker_0, # of connection points: 2
#     Edge 30, Type (0, 0), BuildingBlock: MIFKUJ_clean_linker_0, # of connection points: 2
#     Edge 31, Type (0, 0), BuildingBlock: MIFKUJ_clean_linker_0, # of connection points: 2
#     Edge 32, Type (0, 0), BuildingBlock: MIFKUJ_clean_linker_0, # of connection points: 2
#     Edge 33, Type (0, 0), BuildingBlock: MIFKUJ_clean_linker_0, # of connection points: 2
#     Edge 34, Type (0, 0), BuildingBlock: MIFKUJ_clean_linker_0, # of connection points: 2
#     Edge 35, Type (0, 0), BuildingBlock: MIFKUJ_clean_linker_0, # of connection points: 2
#     Edge 36, Type (0, 0), BuildingBlock: MIFKUJ_clean_linker_0, # of connection points: 2
#     Edge 37, Type (0, 0), BuildingBlock: MIFKUJ_clean_linker_0, # of connection points: 2
#     Edge 38, Type (0, 0), BuildingBlock: MIFKUJ_clean_linker_0, # of connection points: 2
#     Edge 39, Type (0, 0), BuildingBlock: MIFKUJ_clean_linker_0, # of connection points: 2
#     Edge 40, Type (0, 0), BuildingBlock: MIFKUJ_clean_linker_0, # of connection points: 2
#     Edge 41, Type (0, 0), BuildingBlock: MIFKUJ_clean_linker_0, # of connection points: 2
#     Edge 42, Type (0, 0), BuildingBlock: MIFKUJ_clean_linker_0, # of connection points: 2
#     Edge 43, Type (0, 0), BuildingBlock: MIFKUJ_clean_linker_0, # of connection points: 2
#     Edge 44, Type (0, 0), BuildingBlock: MIFKUJ_clean_linker_0, # of connection points: 2
#     Edge 45, Type (0, 0), BuildingBlock: MIFKUJ_clean_linker_0, # of connection points: 2
#     Edge 46, Type (0, 0), BuildingBlock: MIFKUJ_clean_linker_0, # of connection points: 2
#     Edge 47, Type (0, 0), BuildingBlock: MIFKUJ_clean_linker_0, # of connection points: 2
# Relax obj value: 0.234
# Max RMSD: 0.188
# Mean RMSD: 0.188
data_MOF--net-umz--node1-QUQFOY_clean_sbu_1--edge1-MIFKUJ_clean_linker_0
_symmetry_space_group_name_H-M    P1
_symmetry_Int_Tables_number       1
_symmetry_cell_setting            triclinic
loop_
_symmetry_equiv_pos_as_xyz
'x, y, z'
_cell_length_a     83.167277
_cell_length_b     83.181945
_cell_length_c     28.228761
_cell_angle_alpha  89.990398
_cell_angle_beta   89.991669
_cell_angle_gamma 89.998265
loop_
_atom_site_label
_atom_site_type_symbol
_atom_site_fract_x
_atom_site_fract_y
_atom_site_fract_z
_atom_type_partial_charge
O0 O 0.03478 0.63419 0.04265 0.0
Cd1 Cd 0.02428 0.64317 0.10341 0.0
Cd2 Cd 0.00619 0.61812 0.09027 0.0
O3 O 0.01474 0.61843 0.02196 0.0
O4 O 0.03235 0.66561 0.10718 0.0
O5 O 0.0067 0.65965 0.09624 0.0
C6 C 0.01786 0.67041 0.09923 0.0
C7 C 0.97924 0.6154 0.1107 0.0
C8 C 0.02829 0.62478 0.0128 0.0
C9 C 0.02995 0.61652 0.16887 0.0
O10 O 0.0219 0.60851 0.13881 0.0
O11 O 0.03067 0.63175 0.16579 0.0
O12 O 0.987 0.60383 0.09066 0.0
O13 O 0.98654 0.62896 0.11681 0.0
O14 O 0.86745 0.03642 0.55962 0.0
Cd15 Cd 0.85683 0.02455 0.6155 0.0
Cd16 Cd 0.88144 0.00574 0.60583 0.0
O17 O 0.88348 0.01642 0.54019 0.0
O18 O 0.83372 0.03066 0.61636 0.0
O19 O 0.8423 0.00609 0.59921 0.0
C20 C 0.83053 0.01613 0.60341 0.0
C21 C 0.8839 0.97831 0.61971 0.0
C22 C 0.8777 0.03027 0.53157 0.0
C23 C 0.88119 0.02733 0.69012 0.0
O24 O 0.88977 0.01918 0.66171 0.0
O25 O 0.86636 0.0295 0.68139 0.0
O26 O 0.89588 0.98672 0.60472 0.0
O27 O 0.87007 0.98526 0.62356 0.0
O28 O 0.46071 0.87071 0.04789 0.0
Cd29 Cd 0.46922 0.85837 0.10595 0.0
Cd30 Cd 0.48892 0.88452 0.11281 0.0
O31 O 0.47852 0.89034 0.0488 0.0
O32 O 0.46077 0.83625 0.09706 0.0
O33 O 0.48676 0.84186 0.09723 0.0
C34 C 0.4754 0.83139 0.09242 0.0
C35 C 0.51614 0.8901 0.12535 0.0
C36 C 0.46645 0.88348 0.03001 0.0
C37 C 0.46417 0.87944 0.18983 0.0
O38 O 0.47474 0.88849 0.17127 0.0
O39 O 0.46067 0.86602 0.17088 0.0
O40 O 0.50581 0.90136 0.11838 0.0
O41 O 0.5112 0.8754 0.12378 0.0
O42 O 0.63751 0.4569 0.56606 0.0
Cd43 Cd 0.64886 0.46751 0.62281 0.0
Cd44 Cd 0.62442 0.48753 0.61865 0.0
O45 O 0.62128 0.47732 0.55267 0.0
O46 O 0.67205 0.462 0.61896 0.0
O47 O 0.66263 0.48671 0.60857 0.0
C48 C 0.67468 0.47688 0.60858 0.0
C49 C 0.61904 0.51485 0.63063 0.0
C50 C 0.62688 0.46369 0.54067 0.0
C51 C 0.62579 0.46408 0.70034 0.0
O52 O 0.61739 0.47359 0.67535 0.0
O53 O 0.64021 0.461 0.68853 0.0
O54 O 0.6079 0.50477 0.6197 0.0
O55 O 0.63363 0.50959 0.6325 0.0
O56 O 0.04217 0.86627 0.94006 0.0
Cd57 Cd 0.03264 0.85318 0.88508 0.0
Cd58 Cd 0.01246 0.87804 0.88135 0.0
O59 O 0.02225 0.88354 0.9466 0.0
O60 O 0.04019 0.83088 0.89667 0.0
O61 O 0.01449 0.83782 0.89835 0.0
C62 C 0.02541 0.82693 0.90422 0.0
C63 C 0.98508 0.88157 0.86684 0.0
C64 C 0.03553 0.87792 0.96149 0.0
C65 C 0.03652 0.87401 0.8018 0.0
O66 O 0.0266 0.88308 0.82325 0.0
O67 O 0.03988 0.8602 0.81837 0.0
O68 O 0.99435 0.89359 0.87562 0.0
O69 O 0.99114 0.86729 0.86818 0.0
O70 O 0.63883 0.04084 0.45099 0.0
Cd71 Cd 0.64857 0.02991 0.39207 0.0
Cd72 Cd 0.62444 0.01066 0.40359 0.0
O73 O 0.62399 0.02002 0.47114 0.0
O74 O 0.67187 0.03506 0.39026 0.0
O75 O 0.66234 0.01058 0.40423 0.0
C76 C 0.67451 0.0202 0.40102 0.0
C77 C 0.61916 0.98377 0.38637 0.0
C78 C 0.62955 0.03391 0.48039 0.0
C79 C 0.62307 0.03377 0.32232 0.0
O80 O 0.61521 0.02526 0.35158 0.0
O81 O 0.63808 0.03585 0.32815 0.0
O82 O 0.6084 0.99302 0.40463 0.0
O83 O 0.63352 0.98943 0.38144 0.0
O84 O 0.46175 0.63428 0.93595 0.0
Cd85 Cd 0.4707 0.64718 0.8797 0.0
Cd86 Cd 0.49221 0.62227 0.87751 0.0
O87 O 0.48154 0.61678 0.94159 0.0
O88 O 0.46186 0.66912 0.88905 0.0
O89 O 0.48791 0.66373 0.89183 0.0
C90 C 0.47636 0.67402 0.89643 0.0
C91 C 0.51932 0.61546 0.86629 0.0
C92 C 0.46839 0.62254 0.95697 0.0
C93 C 0.46814 0.62592 0.79666 0.0
O94 O 0.47873 0.61761 0.81789 0.0
O95 O 0.46363 0.63934 0.81361 0.0
O96 O 0.50839 0.60477 0.87271 0.0
O97 O 0.51506 0.63036 0.86828 0.0
O98 O 0.86645 0.46295 0.44525 0.0
Cd99 Cd 0.85593 0.47377 0.38745 0.0
Cd100 Cd 0.88008 0.49352 0.39595 0.0
O101 O 0.88213 0.48345 0.46256 0.0
O102 O 0.83291 0.46728 0.38635 0.0
O103 O 0.84105 0.49219 0.40109 0.0
C104 C 0.82945 0.48191 0.39765 0.0
C105 C 0.88195 0.52094 0.3804 0.0
C106 C 0.87649 0.46967 0.47281 0.0
C107 C 0.88067 0.47096 0.31357 0.0
O108 O 0.88886 0.47989 0.34095 0.0
O109 O 0.86596 0.46817 0.32265 0.0
O110 O 0.89409 0.5129 0.39604 0.0
O111 O 0.86829 0.51364 0.37683 0.0
O112 O 0.96178 0.36838 0.9488 0.0
Cd113 Cd 0.97063 0.35648 0.89042 0.0
Cd114 Cd 0.99152 0.38043 0.89144 0.0
O115 O 0.98253 0.38444 0.95847 0.0
O116 O 0.96232 0.33424 0.89689 0.0
O117 O 0.98825 0.34021 0.89954 0.0
C118 C 0.97697 0.32958 0.90309 0.0
C119 C 0.01884 0.38435 0.87592 0.0
C120 C 0.96907 0.37906 0.97266 0.0
C121 C 0.96681 0.37964 0.81293 0.0
O122 O 0.97705 0.38778 0.83621 0.0
O123 O 0.96332 0.36543 0.82582 0.0
O124 O 0.00956 0.39601 0.88811 0.0
O125 O 0.0128 0.37006 0.87452 0.0
O126 O 0.13526 0.96036 0.43645 0.0
Cd127 Cd 0.14627 0.9724 0.3816 0.0
Cd128 Cd 0.12045 0.99137 0.38747 0.0
O129 O 0.11697 0.97898 0.44997 0.0
O130 O 0.16956 0.96736 0.385 0.0
O131 O 0.15964 0.9917 0.3982 0.0
C132 C 0.1719 0.98215 0.3969 0.0
C133 C 0.11258 0.01835 0.38165 0.0
C134 C 0.12362 0.96572 0.46096 0.0
C135 C 0.12406 0.96996 0.30117 0.0
O136 O 0.11518 0.97894 0.32641 0.0
O137 O 0.13824 0.9666 0.31466 0.0
O138 O 0.10237 0.00696 0.38818 0.0
O139 O 0.12764 0.01458 0.38109 0.0
O140 O 0.54028 0.13282 0.95062 0.0
Cd141 Cd 0.53072 0.14454 0.89286 0.0
Cd142 Cd 0.51113 0.11978 0.8934 0.0
O143 O 0.51983 0.1164 0.96115 0.0
O144 O 0.53738 0.16739 0.89845 0.0
O145 O 0.51202 0.15939 0.90361 0.0
C146 C 0.52246 0.17089 0.90567 0.0
C147 C 0.48413 0.11519 0.87494 0.0
C148 C 0.53325 0.12205 0.97488 0.0
C149 C 0.53596 0.12168 0.81574 0.0
O150 O 0.52636 0.11292 0.83944 0.0
O151 O 0.53833 0.13619 0.82794 0.0
O152 O 0.49351 0.10375 0.88835 0.0
O153 O 0.48984 0.12963 0.87444 0.0
O154 O 0.36924 0.53778 0.43805 0.0
Cd155 Cd 0.35734 0.52831 0.38068 0.0
Cd156 Cd 0.38224 0.50796 0.38217 0.0
O157 O 0.38666 0.51812 0.44768 0.0
O158 O 0.33523 0.53706 0.38681 0.0
O159 O 0.34073 0.51109 0.39194 0.0
C160 C 0.33032 0.5226 0.39467 0.0
C161 C 0.38552 0.48048 0.3684 0.0
C162 C 0.38058 0.53134 0.46142 0.0
C163 C 0.38014 0.53165 0.3013 0.0
O164 O 0.38865 0.52173 0.32457 0.0
O165 O 0.36605 0.53521 0.31531 0.0
O166 O 0.3975 0.48957 0.37922 0.0
O167 O 0.37134 0.4868 0.3679 0.0
O168 O 0.95844 0.1335 0.05383 0.0
Cd169 Cd 0.96733 0.14608 0.11094 0.0
Cd170 Cd 0.98842 0.12238 0.11135 0.0
O171 O 0.97967 0.11804 0.04424 0.0
O172 O 0.95974 0.16855 0.10351 0.0
O173 O 0.98546 0.16164 0.10042 0.0
C174 C 0.97455 0.17267 0.09715 0.0
C175 C 0.01546 0.11792 0.12948 0.0
C176 C 0.96598 0.12289 0.03028 0.0
C177 C 0.96368 0.12366 0.18971 0.0
O178 O 0.97376 0.11539 0.16631 0.0
O179 O 0.96021 0.13783 0.17649 0.0
O180 O 0.00606 0.10642 0.1168 0.0
O181 O 0.00978 0.13236 0.12918 0.0
O182 O 0.36212 0.96351 0.54896 0.0
Cd183 Cd 0.35298 0.97528 0.60734 0.0
Cd184 Cd 0.37818 0.9935 0.59567 0.0
O185 O 0.37853 0.98318 0.52933 0.0
O186 O 0.32964 0.9704 0.61113 0.0
O187 O 0.33927 0.99464 0.59438 0.0
C188 C 0.32705 0.98519 0.5996 0.0
C189 C 0.38368 0.02071 0.60768 0.0
C190 C 0.37211 0.96967 0.5201 0.0
C191 C 0.3783 0.97101 0.67845 0.0
O192 O 0.38669 0.97923 0.64971 0.0
O193 O 0.3633 0.96935 0.67149 0.0
O194 O 0.39443 0.01099 0.59167 0.0
O195 O 0.36934 0.01521 0.61447 0.0
O196 O 0.5422 0.36235 0.06408 0.0
Cd197 Cd 0.53164 0.35171 0.12207 0.0
Cd198 Cd 0.51223 0.3763 0.11601 0.0
O199 O 0.522 0.37866 0.04908 0.0
O200 O 0.53772 0.32861 0.12035 0.0
O201 O 0.51274 0.33726 0.11035 0.0
C202 C 0.52285 0.32545 0.11111 0.0
C203 C 0.48483 0.37898 0.13101 0.0
C204 C 0.53556 0.37277 0.03762 0.0
C205 C 0.53558 0.37583 0.19701 0.0
O206 O 0.52644 0.3843 0.17094 0.0
O207 O 0.53811 0.36116 0.18684 0.0
O208 O 0.49329 0.39094 0.11636 0.0
O209 O 0.4917 0.36512 0.13497 0.0
O210 O 0.13333 0.53987 0.54123 0.0
Cd211 Cd 0.14582 0.53319 0.60104 0.0
Cd212 Cd 0.12126 0.51168 0.61125 0.0
O213 O 0.11459 0.5212 0.54683 0.0
O214 O 0.16794 0.54157 0.59143 0.0
O215 O 0.16234 0.51559 0.59571 0.0
C216 C 0.17281 0.52686 0.58923 0.0
C217 C 0.11619 0.48439 0.62477 0.0
C218 C 0.12076 0.53311 0.52533 0.0
C219 C 0.12469 0.53778 0.68523 0.0
O220 O 0.1167 0.52599 0.669 0.0
O221 O 0.13747 0.5424 0.66457 0.0
O222 O 0.10477 0.49453 0.61795 0.0
O223 O 0.1308 0.48956 0.6229 0.0
H224 H 0.03915 0.6952 0.10324 0.0
H225 H 0.03522 0.72266 0.07638 0.0
H226 H 0.98544 0.71234 0.04575 0.0
H227 H 0.98944 0.68447 0.07167 0.0
H228 H 0.99859 0.72718 0.97334 0.0
H229 H 0.99604 0.7382 0.13714 0.0
H230 H 0.00362 0.73707 0.22148 0.0
H231 H 0.04893 0.75932 0.18954 0.0
H232 H 0.04173 0.76038 0.10488 0.0
H233 H 0.99557 0.81316 0.91556 0.0
H234 H 0.98942 0.78718 0.95304 0.0
H235 H 0.04007 0.77867 0.97385 0.0
H236 H 0.04631 0.80425 0.93602 0.0
H237 H 0.02003 0.77497 0.0573 0.0
H238 H 0.02295 0.75921 0.8909 0.0
H239 H 0.01441 0.76049 0.80733 0.0
H240 H 0.96626 0.74781 0.84762 0.0
H241 H 0.97449 0.74667 0.93157 0.0
C242 C 0.02727 0.69878 0.09158 0.0
C243 C 0.01461 0.68761 0.08956 0.0
C244 C 0.02501 0.71457 0.07643 0.0
C245 C 0.00998 0.71968 0.05949 0.0
C246 C 0.99714 0.7087 0.0588 0.0
C247 C 0.99942 0.6928 0.07385 0.0
C248 C 0.00828 0.7361 0.03918 0.0
C249 C 0.00289 0.73769 0.99221 0.0
C250 C 0.01393 0.74986 0.06356 0.0
C251 C 0.01836 0.7493 0.11453 0.0
C252 C 0.00767 0.74276 0.14802 0.0
C253 C 0.01189 0.74215 0.19592 0.0
C254 C 0.02675 0.74811 0.21085 0.0
C255 C 0.03742 0.75472 0.17792 0.0
C256 C 0.03325 0.75535 0.12997 0.0
C257 C 0.00538 0.80565 0.92766 0.0
C258 C 0.02143 0.81076 0.92279 0.0
C259 C 0.00185 0.79086 0.94909 0.0
C260 C 0.01431 0.7811 0.96643 0.0
C261 C 0.03029 0.78608 0.96092 0.0
C262 C 0.03383 0.80068 0.93901 0.0
C263 C 0.01094 0.76579 0.9913 0.0
C264 C 0.01536 0.76448 0.03908 0.0
C265 C 0.0042 0.75237 0.96792 0.0
C266 C 0.99928 0.75307 0.91753 0.0
C267 C 0.01051 0.75686 0.88198 0.0
C268 C 0.00573 0.75752 0.83454 0.0
C269 C 0.98978 0.75429 0.82219 0.0
C270 C 0.97859 0.75034 0.85725 0.0
C271 C 0.98331 0.74968 0.90475 0.0
H272 H 0.98611 0.7548 0.78544 0.0
H273 H 0.03 0.74762 0.24795 0.0
H274 H 0.68285 0.99622 0.46219 0.0
H275 H 0.70939 0.99174 0.49737 0.0
H276 H 0.72961 0.02761 0.40431 0.0
H277 H 0.70298 0.0327 0.37097 0.0
H278 H 0.73863 0.98328 0.47671 0.0
H279 H 0.75565 0.0508 0.46048 0.0
H280 H 0.74212 0.07716 0.45561 0.0
H281 H 0.7009 0.05784 0.52741 0.0
H282 H 0.71427 0.03145 0.5333 0.0
H283 H 0.82125 0.99546 0.53381 0.0
H284 H 0.7942 0.99231 0.50119 0.0
H285 H 0.77546 0.02345 0.6105 0.0
H286 H 0.80266 0.02745 0.64092 0.0
H287 H 0.76442 0.03324 0.53515 0.0
H288 H 0.76714 0.98065 0.60063 0.0
H289 H 0.77851 0.95385 0.61703 0.0
H290 H 0.77679 0.94237 0.46883 0.0
H291 H 0.76561 0.9692 0.45143 0.0
C292 C 0.69304 0.0029 0.44862 0.0
C293 C 0.69085 0.01497 0.41437 0.0
C294 C 0.7082 0.00034 0.46875 0.0
C295 C 0.72143 0.00965 0.45445 0.0
C296 C 0.7195 0.02061 0.41696 0.0
C297 C 0.7043 0.02345 0.3977 0.0
C298 C 0.7368 0.00905 0.4814 0.0
C299 C 0.74431 0.99418 0.48951 0.0
C300 C 0.74395 0.02321 0.49965 0.0
C301 C 0.73591 0.03912 0.49688 0.0
C302 C 0.74373 0.0522 0.4754 0.0
C303 C 0.73608 0.06714 0.47243 0.0
C304 C 0.72065 0.06916 0.49105 0.0
C305 C 0.71284 0.05625 0.51286 0.0
C306 C 0.72044 0.0413 0.516 0.0
C307 C 0.81127 0.00134 0.55138 0.0
C308 C 0.81399 0.01173 0.58974 0.0
C309 C 0.79577 0.99948 0.53285 0.0
C310 C 0.78265 0.00759 0.55336 0.0
C311 C 0.78533 0.01718 0.59361 0.0
C312 C 0.80086 0.0194 0.61121 0.0
C313 C 0.76651 0.00744 0.53034 0.0
C314 C 0.75882 0.02225 0.52272 0.0
C315 C 0.75894 0.99315 0.51442 0.0
C316 C 0.76567 0.977 0.5247 0.0
C317 C 0.7693 0.97246 0.57149 0.0
C318 C 0.77569 0.95725 0.58097 0.0
C319 C 0.77841 0.94643 0.54398 0.0
C320 C 0.7747 0.95078 0.49744 0.0
C321 C 0.76831 0.96597 0.48775 0.0
H322 H 0.78336 0.93466 0.5514 0.0
H323 H 0.71474 0.08072 0.48866 0.0
H324 H 0.45366 0.80731 0.08067 0.0
H325 H 0.45847 0.78015 0.05237 0.0
H326 H 0.50941 0.78969 0.04558 0.0
H327 H 0.50461 0.81728 0.07321 0.0
H328 H 0.49951 0.77499 0.9667 0.0
H329 H 0.49433 0.76441 0.13055 0.0
H330 H 0.48276 0.76594 0.21082 0.0
H331 H 0.4392 0.74404 0.16085 0.0
H332 H 0.45041 0.74258 0.0801 0.0
H333 H 0.50535 0.68884 0.91403 0.0
H334 H 0.50957 0.71535 0.95045 0.0
H335 H 0.45829 0.72277 0.95512 0.0
H336 H 0.45396 0.69661 0.91856 0.0
H337 H 0.47426 0.72755 0.04294 0.0
H338 H 0.47916 0.74226 0.87643 0.0
H339 H 0.49149 0.74065 0.79712 0.0
H340 H 0.5372 0.75418 0.85552 0.0
H341 H 0.52517 0.75567 0.93534 0.0
C342 C 0.46593 0.80365 0.07371 0.0
C343 C 0.47876 0.81447 0.07932 0.0
C344 C 0.46868 0.78804 0.05771 0.0
C345 C 0.48433 0.78277 0.04745 0.0
C346 C 0.49724 0.79347 0.05349 0.0
C347 C 0.49449 0.8092 0.06947 0.0
C348 C 0.48682 0.76632 0.02824 0.0
C349 C 0.49433 0.76455 0.98394 0.0
C350 C 0.48003 0.75267 0.05056 0.0
C351 C 0.47321 0.75346 0.09915 0.0
C352 C 0.48225 0.76001 0.13659 0.0
C353 C 0.47575 0.76086 0.1822 0.0
C354 C 0.46025 0.75511 0.19092 0.0
C355 C 0.45121 0.74848 0.15405 0.0
C356 C 0.45764 0.74762 0.10835 0.0
C357 C 0.495 0.69623 0.92224 0.0
C358 C 0.47932 0.6906 0.9135 0.0
C359 C 0.49744 0.71134 0.94307 0.0
C360 C 0.48422 0.72094 0.95571 0.0
C361 C 0.46863 0.71549 0.94589 0.0
C362 C 0.4662 0.70055 0.92475 0.0
C363 C 0.48634 0.73643 0.98081 0.0
C364 C 0.47974 0.73796 0.0263 0.0
C365 C 0.49412 0.74976 0.95985 0.0
C366 C 0.50132 0.74886 0.91191 0.0
C367 C 0.49188 0.74473 0.87243 0.0
C368 C 0.4988 0.74388 0.82737 0.0
C369 C 0.51513 0.74725 0.82131 0.0
C370 C 0.52456 0.75154 0.86028 0.0
C371 C 0.5177 0.75239 0.90543 0.0
H372 H 0.52047 0.74659 0.78639 0.0
H373 H 0.45524 0.75577 0.22625 0.0
H374 H 0.68211 0.50095 0.54659 0.0
H375 H 0.70807 0.50544 0.50775 0.0
H376 H 0.72959 0.46908 0.59653 0.0
H377 H 0.70351 0.46397 0.63344 0.0
H378 H 0.73742 0.51387 0.52494 0.0
H379 H 0.75494 0.44623 0.53722 0.0
H380 H 0.74152 0.41982 0.54168 0.0
H381 H 0.69962 0.4395 0.47433 0.0
H382 H 0.71287 0.46596 0.46887 0.0
H383 H 0.81978 0.50264 0.46649 0.0
H384 H 0.79267 0.50552 0.49867 0.0
H385 H 0.77446 0.47402 0.38946 0.0
H386 H 0.80179 0.47023 0.35965 0.0
H387 H 0.76319 0.46425 0.46387 0.0
H388 H 0.76543 0.51686 0.39955 0.0
H389 H 0.77647 0.54378 0.38296 0.0
H390 H 0.77501 0.5552 0.53123 0.0
H391 H 0.76416 0.52825 0.54882 0.0
C392 C 0.69246 0.49414 0.55835 0.0
C393 C 0.69079 0.48196 0.59253 0.0
C394 C 0.7073 0.49671 0.53613 0.0
C395 C 0.72071 0.48728 0.54824 0.0
C396 C 0.71932 0.47615 0.58549 0.0
C397 C 0.70444 0.47331 0.60682 0.0
C398 C 0.73574 0.4881 0.51971 0.0
C399 C 0.74309 0.50304 0.5115 0.0
C400 C 0.74283 0.47405 0.50051 0.0
C401 C 0.73485 0.45811 0.50307 0.0
C402 C 0.74289 0.4449 0.52318 0.0
C403 C 0.73531 0.42993 0.52591 0.0
C404 C 0.71971 0.428 0.50843 0.0
C405 C 0.71168 0.44102 0.488 0.0
C406 C 0.71922 0.45601 0.48511 0.0
C407 C 0.80991 0.49663 0.44882 0.0
C408 C 0.81283 0.48619 0.41071 0.0
C409 C 0.79436 0.49833 0.46709 0.0
C410 C 0.78136 0.49006 0.4465 0.0
C411 C 0.78423 0.48042 0.40642 0.0
C412 C 0.79983 0.47833 0.38915 0.0
C413 C 0.76519 0.49005 0.46943 0.0
C414 C 0.75758 0.47518 0.47681 0.0
C415 C 0.75757 0.50425 0.48589 0.0
C416 C 0.7641 0.52047 0.47553 0.0
C417 C 0.76757 0.52506 0.42867 0.0
C418 C 0.77378 0.54034 0.41908 0.0
C419 C 0.77647 0.55118 0.45603 0.0
C420 C 0.77293 0.54678 0.50265 0.0
C421 C 0.76673 0.53152 0.51244 0.0
H422 H 0.78128 0.563 0.44853 0.0
H423 H 0.71385 0.4164 0.51064 0.0
H424 H 0.95519 0.30636 0.92487 0.0
H425 H 0.96034 0.28008 0.95974 0.0
H426 H 0.01141 0.28838 0.95083 0.0
H427 H 0.00637 0.31508 0.91635 0.0
H428 H 0.99763 0.25488 0.92211 0.0
H429 H 0.00076 0.29308 0.04933 0.0
H430 H 0.99176 0.31667 0.09509 0.0
H431 H 0.94682 0.2933 0.12451 0.0
H432 H 0.95545 0.26966 0.07822 0.0
H433 H 0.00384 0.18478 0.06964 0.0
H434 H 0.00949 0.21189 0.03966 0.0
H435 H 0.95994 0.22512 0.06286 0.0
H436 H 0.9543 0.19832 0.09327 0.0
H437 H 0.97937 0.24896 0.08864 0.0
H438 H 0.9738 0.21336 0.95345 0.0
H439 H 0.98092 0.18994 0.90413 0.0
H440 H 0.02886 0.20826 0.88735 0.0
H441 H 0.02206 0.2317 0.93712 0.0
C442 C 0.96755 0.30259 0.92962 0.0
C443 C 0.98038 0.31287 0.91808 0.0
C444 C 0.97045 0.28755 0.94964 0.0
C445 C 0.98623 0.2824 0.95814 0.0
C446 C 0.99915 0.29221 0.9445 0.0
C447 C 0.99624 0.30743 0.9249 0.0
C448 C 0.98884 0.26716 0.98398 0.0
C449 C 0.99407 0.2536 0.9589 0.0
C450 C 0.98389 0.26554 0.03164 0.0
C451 C 0.97871 0.27965 0.06001 0.0
C452 C 0.9889 0.29302 0.06523 0.0
C453 C 0.98388 0.30639 0.09132 0.0
C454 C 0.96872 0.30649 0.11262 0.0
C455 C 0.95856 0.2932 0.10797 0.0
C456 C 0.96352 0.27981 0.08186 0.0
C457 C 0.99422 0.19355 0.06893 0.0
C458 C 0.9786 0.18938 0.08359 0.0
C459 C 0.99745 0.209 0.05157 0.0
C460 C 0.98509 0.22048 0.04851 0.0
C461 C 0.96967 0.21648 0.06489 0.0
C462 C 0.96645 0.20111 0.08215 0.0
C463 C 0.98777 0.23647 0.02652 0.0
C464 C 0.98343 0.25023 0.05231 0.0
C465 C 0.99341 0.23821 0.9794 0.0
C466 C 0.99749 0.22415 0.94949 0.0
C467 C 0.98589 0.21232 0.93956 0.0
C468 C 0.98986 0.19906 0.91147 0.0
C469 C 0.00535 0.19758 0.89276 0.0
C470 C 0.01688 0.2094 0.90197 0.0
C471 C 0.01298 0.22267 0.93011 0.0
H472 H 0.0084 0.18731 0.87101 0.0
H473 H 0.96485 0.31686 0.1328 0.0
H474 H 0.31781 0.00539 0.52895 0.0
H475 H 0.2905 0.00936 0.49927 0.0
H476 H 0.2719 0.98126 0.61576 0.0
H477 H 0.29932 0.9763 0.64316 0.0
H478 H 0.25961 0.97039 0.54409 0.0
H479 H 0.26472 0.02417 0.5978 0.0
H480 H 0.27711 0.05087 0.6082 0.0
H481 H 0.27479 0.059 0.45815 0.0
H482 H 0.26257 0.03226 0.44675 0.0
H483 H 0.17934 0.00687 0.45694 0.0
H484 H 0.20537 0.01177 0.49515 0.0
H485 H 0.22676 0.97437 0.40999 0.0
H486 H 0.20073 0.96902 0.37332 0.0
H487 H 0.23553 0.01961 0.47475 0.0
H488 H 0.2505 0.95127 0.4745 0.0
H489 H 0.23607 0.92535 0.47458 0.0
H490 H 0.19502 0.94792 0.53852 0.0
H491 H 0.20928 0.9739 0.53946 0.0
C492 C 0.30782 0.00041 0.54876 0.0
C493 C 0.31061 0.99051 0.58819 0.0
C494 C 0.29217 0.00274 0.53192 0.0
C495 C 0.27899 0.99567 0.55523 0.0
C496 C 0.2818 0.98672 0.59672 0.0
C497 C 0.29746 0.98397 0.6126 0.0
C498 C 0.26263 0.99591 0.53354 0.0
C499 C 0.25438 0.98124 0.5294 0.0
C500 C 0.25551 0.01004 0.51475 0.0
C501 C 0.26284 0.02615 0.5214 0.0
C502 C 0.26695 0.0316 0.56698 0.0
C503 C 0.27393 0.04675 0.57306 0.0
C504 C 0.27677 0.05661 0.53385 0.0
C505 C 0.27259 0.05135 0.48849 0.0
C506 C 0.26562 0.03621 0.4822 0.0
C507 C 0.18969 0.99993 0.44577 0.0
C508 C 0.18799 0.9874 0.41272 0.0
C509 C 0.20455 0.00274 0.46761 0.0
C510 C 0.21792 0.99316 0.45631 0.0
C511 C 0.21651 0.98163 0.4202 0.0
C512 C 0.20165 0.97862 0.39911 0.0
C513 C 0.23291 0.99409 0.48485 0.0
C514 C 0.24084 0.00889 0.49005 0.0
C515 C 0.2395 0.98022 0.50641 0.0
C516 C 0.23092 0.96456 0.50663 0.0
C517 C 0.23843 0.95068 0.48878 0.0
C518 C 0.23027 0.93598 0.48861 0.0
C519 C 0.21462 0.935 0.50641 0.0
C520 C 0.20712 0.9487 0.5246 0.0
C521 C 0.21523 0.96342 0.52493 0.0
H522 H 0.20832 0.92362 0.5062 0.0
H523 H 0.28217 0.06833 0.53864 0.0
H524 H 0.54009 0.19822 0.89517 0.0
H525 H 0.53452 0.22465 0.92892 0.0
H526 H 0.4892 0.20736 0.98293 0.0
H527 H 0.49466 0.18077 0.94887 0.0
H528 H 0.51015 0.24736 0.9208 0.0
H529 H 0.48664 0.22322 0.09763 0.0
H530 H 0.48747 0.19844 0.14572 0.0
H531 H 0.53344 0.18639 0.0862 0.0
H532 H 0.53296 0.21119 0.0383 0.0
H533 H 0.49535 0.31599 0.06562 0.0
H534 H 0.48972 0.28941 0.03183 0.0
H535 H 0.5339 0.2713 0.0914 0.0
H536 H 0.53963 0.29773 0.12497 0.0
H537 H 0.50899 0.24903 0.09657 0.0
H538 H 0.53413 0.28468 0.98185 0.0
H539 H 0.53579 0.30946 0.9341 0.0
H540 H 0.49043 0.29839 0.86918 0.0
H541 H 0.48841 0.27364 0.9171 0.0
C542 C 0.52879 0.2001 0.91348 0.0
C543 C 0.51786 0.18739 0.91967 0.0
C544 C 0.5256 0.21524 0.93257 0.0
C545 C 0.51152 0.21792 0.95875 0.0
C546 C 0.50018 0.20549 0.96303 0.0
C547 C 0.50329 0.19034 0.94344 0.0
C548 C 0.50959 0.23327 0.9848 0.0
C549 C 0.50962 0.24773 0.95919 0.0
C550 C 0.5091 0.23376 0.03491 0.0
C551 C 0.50964 0.21893 0.06398 0.0
C552 C 0.49693 0.21528 0.09492 0.0
C553 C 0.49734 0.20124 0.12214 0.0
C554 C 0.51047 0.19081 0.11887 0.0
C555 C 0.52325 0.19444 0.08855 0.0
C556 C 0.5229 0.20848 0.06133 0.0
C557 C 0.50368 0.30625 0.07238 0.0
C558 C 0.518 0.30897 0.09761 0.0
C559 C 0.50046 0.2911 0.05293 0.0
C560 C 0.51147 0.27845 0.05878 0.0
C561 C 0.52524 0.28089 0.08652 0.0
C562 C 0.52853 0.29603 0.10551 0.0
C563 C 0.50959 0.26312 0.03256 0.0
C564 C 0.50897 0.24867 0.05814 0.0
C565 C 0.50976 0.26264 0.98243 0.0
C566 C 0.51102 0.27744 0.95344 0.0
C567 C 0.52445 0.28761 0.95766 0.0
C568 C 0.52547 0.30163 0.93054 0.0
C569 C 0.5132 0.30553 0.89874 0.0
C570 C 0.49991 0.29538 0.8939 0.0
C571 C 0.49882 0.28135 0.92102 0.0
H572 H 0.51401 0.31639 0.87775 0.0
H573 H 0.51076 0.17994 0.13993 0.0
H574 H 0.3072 0.54501 0.4114 0.0
H575 H 0.28096 0.54096 0.44777 0.0
H576 H 0.28907 0.48979 0.45119 0.0
H577 H 0.31569 0.49373 0.41501 0.0
H578 H 0.2562 0.50098 0.42171 0.0
H579 H 0.29445 0.50574 0.54774 0.0
H580 H 0.31749 0.51783 0.58958 0.0
H581 H 0.29172 0.56233 0.60279 0.0
H582 H 0.26861 0.55059 0.56032 0.0
H583 H 0.18659 0.49741 0.57179 0.0
H584 H 0.21395 0.49216 0.54309 0.0
H585 H 0.22425 0.54297 0.54798 0.0
H586 H 0.19724 0.54824 0.57722 0.0
H587 H 0.2492 0.52639 0.57949 0.0
H588 H 0.21328 0.52368 0.44435 0.0
H589 H 0.19031 0.51303 0.39886 0.0
H590 H 0.2115 0.46595 0.40032 0.0
H591 H 0.23451 0.47631 0.44637 0.0
C592 C 0.30339 0.53284 0.41921 0.0
C593 C 0.3136 0.51969 0.41057 0.0
C594 C 0.28838 0.53057 0.44012 0.0
C595 C 0.28319 0.51511 0.45261 0.0
C596 C 0.29293 0.50182 0.44186 0.0
C597 C 0.3081 0.5041 0.42125 0.0
C598 C 0.26796 0.51323 0.4792 0.0
C599 C 0.2547 0.50617 0.45669 0.0
C600 C 0.26604 0.52024 0.52448 0.0
C601 C 0.27984 0.5273 0.55055 0.0
C602 C 0.29374 0.51814 0.55925 0.0
C603 C 0.30681 0.52493 0.58313 0.0
C604 C 0.30608 0.54084 0.59877 0.0
C605 C 0.29227 0.55 0.59065 0.0
C606 C 0.27917 0.54328 0.56672 0.0
C607 C 0.19478 0.50742 0.56733 0.0
C608 C 0.18971 0.52325 0.57655 0.0
C609 C 0.21037 0.50441 0.55068 0.0
C610 C 0.22109 0.5172 0.5428 0.0
C611 C 0.21621 0.53291 0.55375 0.0
C612 C 0.20071 0.53591 0.57037 0.0
C613 C 0.23722 0.51456 0.52151 0.0
C614 C 0.2507 0.52081 0.54502 0.0
C615 C 0.23929 0.50693 0.47701 0.0
C616 C 0.22549 0.50072 0.4493 0.0
C617 C 0.21297 0.51103 0.43529 0.0
C618 C 0.19996 0.50506 0.40936 0.0
C619 C 0.19942 0.48881 0.39685 0.0
C620 C 0.21192 0.47852 0.41014 0.0
C621 C 0.22494 0.48444 0.43614 0.0
H622 H 0.18934 0.4842 0.37676 0.0
H623 H 0.31621 0.54608 0.61724 0.0
H624 H 0.0224 0.59869 0.95673 0.0
H625 H 0.04106 0.58615 0.90108 0.0
H626 H 0.07445 0.62522 0.92062 0.0
H627 H 0.05593 0.63784 0.97691 0.0
H628 H 0.0715 0.61282 0.82318 0.0
H629 H 0.08189 0.59556 0.9825 0.0
H630 H 0.07429 0.58526 0.06129 0.0
H631 H 0.05673 0.54173 0.99804 0.0
H632 H 0.06397 0.5519 0.91872 0.0
H633 H 0.13477 0.56693 0.7202 0.0
H634 H 0.12088 0.58374 0.77859 0.0
H635 H 0.08529 0.54658 0.79806 0.0
H636 H 0.09917 0.52969 0.74084 0.0
H637 H 0.09225 0.56032 0.8804 0.0
H638 H 0.07917 0.57827 0.72172 0.0
H639 H 0.08547 0.58853 0.64187 0.0
H640 H 0.10727 0.63051 0.70281 0.0
H641 H 0.10128 0.62037 0.78309 0.0
C642 C 0.03352 0.60485 0.94836 0.0
C643 C 0.03776 0.61918 0.97163 0.0
C644 C 0.04419 0.59762 0.91672 0.0
C645 C 0.05919 0.60467 0.90745 0.0
C646 C 0.06294 0.6196 0.92758 0.0
C647 C 0.05235 0.62676 0.95972 0.0
C648 C 0.07142 0.59567 0.88022 0.0
C649 C 0.07628 0.60148 0.83591 0.0
C650 C 0.07749 0.58083 0.89691 0.0
C651 C 0.07334 0.57456 0.94462 0.0
C652 C 0.07629 0.58385 0.98534 0.0
C653 C 0.07206 0.57803 0.03011 0.0
C654 C 0.065 0.56286 0.03466 0.0
C655 C 0.06219 0.55348 0.99445 0.0
C656 C 0.06636 0.55926 0.94958 0.0
C657 C 0.12417 0.56223 0.73761 0.0
C658 C 0.11799 0.54703 0.72546 0.0
C659 C 0.11618 0.57189 0.77073 0.0
C660 C 0.10188 0.56653 0.792 0.0
C661 C 0.09626 0.551 0.78196 0.0
C662 C 0.10421 0.54137 0.74905 0.0
C663 C 0.09211 0.57725 0.8226 0.0
C664 C 0.0877 0.57177 0.86779 0.0
C665 C 0.0864 0.59235 0.80656 0.0
C666 C 0.08995 0.59848 0.75836 0.0
C667 C 0.08542 0.58963 0.71808 0.0
C668 C 0.08891 0.59543 0.67276 0.0
C669 C 0.09682 0.61014 0.66727 0.0
C670 C 0.10119 0.6191 0.70712 0.0
C671 C 0.09774 0.61334 0.75253 0.0
H672 H 0.09951 0.61461 0.63215 0.0
H673 H 0.06173 0.55838 0.06935 0.0
H674 H 0.93968 0.13641 0.24521 0.0
H675 H 0.92449 0.12264 0.30771 0.0
H676 H 0.95306 0.07996 0.28622 0.0
H677 H 0.96844 0.09361 0.22518 0.0
H678 H 0.90587 0.09644 0.30108 0.0
H679 H 0.95772 0.0593 0.38568 0.0
H680 H 0.98673 0.06237 0.40136 0.0
H681 H 0.98137 0.11369 0.40483 0.0
H682 H 0.95229 0.11093 0.38995 0.0
H683 H 0.90135 0.02193 0.4688 0.0
H684 H 0.91497 0.03946 0.41215 0.0
H685 H 0.88342 0.0785 0.45057 0.0
H686 H 0.86957 0.06102 0.50682 0.0
H687 H 0.93159 0.06653 0.43291 0.0
H688 H 0.87955 0.10376 0.35469 0.0
H689 H 0.85067 0.10093 0.33646 0.0
H690 H 0.85661 0.04997 0.31973 0.0
H691 H 0.88554 0.05252 0.33724 0.0
C692 C 0.94287 0.12418 0.25438 0.0
C693 C 0.95528 0.11613 0.23024 0.0
C694 C 0.93414 0.11631 0.28989 0.0
C695 C 0.93775 0.10033 0.30193 0.0
C696 C 0.95026 0.09239 0.27823 0.0
C697 C 0.959 0.10022 0.24308 0.0
C698 C 0.92808 0.09154 0.33761 0.0
C699 C 0.91143 0.09017 0.33053 0.0
C700 C 0.93541 0.08313 0.37549 0.0
C701 C 0.95281 0.08489 0.38635 0.0
C702 C 0.9627 0.07124 0.39019 0.0
C703 C 0.97917 0.07293 0.39884 0.0
C704 C 0.9859 0.08822 0.40394 0.0
C705 C 0.97615 0.10185 0.40072 0.0
C706 C 0.95968 0.10023 0.39216 0.0
C707 C 0.8971 0.03415 0.46463 0.0
C708 C 0.88438 0.04007 0.49245 0.0
C709 C 0.90498 0.04419 0.43245 0.0
C710 C 0.90024 0.06028 0.42724 0.0
C711 C 0.88719 0.06608 0.45371 0.0
C712 C 0.87929 0.05605 0.48588 0.0
C713 C 0.90945 0.07116 0.39571 0.0
C714 C 0.92601 0.07295 0.40377 0.0
C715 C 0.90202 0.08 0.35891 0.0
C716 C 0.88467 0.07832 0.34783 0.0
C717 C 0.87469 0.09196 0.34699 0.0
C718 C 0.85832 0.0904 0.3368 0.0
C719 C 0.8518 0.07528 0.32712 0.0
C720 C 0.86166 0.06167 0.32744 0.0
C721 C 0.87804 0.06316 0.33757 0.0
H722 H 0.83911 0.0741 0.31926 0.0
H723 H 0.99866 0.0895 0.41043 0.0
H724 H 0.46768 0.91507 0.00455 0.0
H725 H 0.45109 0.92876 0.94546 0.0
H726 H 0.42925 0.88359 0.90713 0.0
H727 H 0.44557 0.86979 0.967 0.0
H728 H 0.43931 0.90385 0.82856 0.0
H729 H 0.4078 0.905 0.97014 0.0
H730 H 0.40123 0.91013 0.05396 0.0
H731 H 0.41078 0.96043 0.03458 0.0
H732 H 0.41766 0.95557 0.95077 0.0
H733 H 0.36449 0.95256 0.74812 0.0
H734 H 0.37837 0.93642 0.80821 0.0
H735 H 0.4241 0.95361 0.75703 0.0
H736 H 0.41045 0.96973 0.69717 0.0
H737 H 0.39947 0.94465 0.88065 0.0
H738 H 0.45019 0.92139 0.7573 0.0
H739 H 0.45439 0.91516 0.67277 0.0
H740 H 0.40377 0.90688 0.65547 0.0
H741 H 0.39931 0.91275 0.73998 0.0
C742 C 0.45951 0.908 0.98314 0.0
C743 C 0.45793 0.89134 0.99036 0.0
C744 C 0.44996 0.91586 0.9497 0.0
C745 C 0.43888 0.90717 0.92243 0.0
C746 C 0.43772 0.89046 0.92809 0.0
C747 C 0.44705 0.88262 0.96219 0.0
C748 C 0.4284 0.91564 0.88834 0.0
C749 C 0.43059 0.91277 0.83986 0.0
C750 C 0.41685 0.92702 0.90338 0.0
C751 C 0.41339 0.92989 0.95425 0.0
C752 C 0.40873 0.91712 0.98389 0.0
C753 C 0.40489 0.91999 0.03136 0.0
C754 C 0.40555 0.9356 0.04951 0.0
C755 C 0.41024 0.94835 0.02041 0.0
C756 C 0.41411 0.94554 0.97293 0.0
C757 C 0.3775 0.95301 0.74994 0.0
C758 C 0.38636 0.96237 0.71767 0.0
C759 C 0.38538 0.9438 0.78428 0.0
C760 C 0.40224 0.94367 0.7865 0.0
C761 C 0.41108 0.95338 0.75538 0.0
C762 C 0.40324 0.96264 0.72133 0.0
C763 C 0.41071 0.93322 0.82079 0.0
C764 C 0.40817 0.93572 0.86932 0.0
C765 C 0.42183 0.92137 0.8058 0.0
C766 C 0.42441 0.91766 0.75493 0.0
C767 C 0.43996 0.91817 0.7355 0.0
C768 C 0.44239 0.9147 0.68756 0.0
C769 C 0.42936 0.91065 0.65872 0.0
C770 C 0.41386 0.91004 0.67777 0.0
C771 C 0.41137 0.91346 0.72569 0.0
H772 H 0.43128 0.90793 0.62167 0.0
H773 H 0.40235 0.93784 0.08606 0.0
H774 H 0.55861 0.36263 0.25478 0.0
H775 H 0.57451 0.37641 0.31548 0.0
H776 H 0.5484 0.42028 0.28858 0.0
H777 H 0.53235 0.40664 0.22871 0.0
H778 H 0.59461 0.40161 0.30462 0.0
H779 H 0.54542 0.44225 0.38816 0.0
H780 H 0.51644 0.4412 0.40655 0.0
H781 H 0.51855 0.38967 0.41353 0.0
H782 H 0.54757 0.39042 0.39584 0.0
H783 H 0.60399 0.47448 0.47879 0.0
H784 H 0.58948 0.45879 0.41951 0.0
H785 H 0.61833 0.41723 0.45321 0.0
H786 H 0.63311 0.43289 0.51193 0.0
H787 H 0.57105 0.43318 0.43657 0.0
H788 H 0.62032 0.3925 0.35642 0.0
H789 H 0.64933 0.39338 0.3382 0.0
H790 H 0.64707 0.44476 0.32487 0.0
H791 H 0.61803 0.44416 0.34238 0.0
C792 C 0.55609 0.37515 0.26231 0.0
C793 C 0.54419 0.38353 0.23689 0.0
C794 C 0.56525 0.38301 0.29681 0.0
C795 C 0.56258 0.39933 0.30672 0.0
C796 C 0.55051 0.40762 0.28203 0.0
C797 C 0.54137 0.39979 0.24765 0.0
C798 C 0.5728 0.40799 0.34133 0.0
C799 C 0.5895 0.40829 0.334 0.0
C800 C 0.56608 0.41698 0.37898 0.0
C801 C 0.54865 0.4164 0.39023 0.0
C802 C 0.53972 0.4307 0.39382 0.0
C803 C 0.52328 0.43015 0.40409 0.0
C804 C 0.51565 0.41538 0.41106 0.0
C805 C 0.52446 0.40111 0.40794 0.0
C806 C 0.5409 0.40159 0.39772 0.0
C807 C 0.60746 0.46209 0.47303 0.0
C808 C 0.61968 0.45493 0.50025 0.0
C809 C 0.59909 0.45311 0.43928 0.0
C810 C 0.6028 0.43684 0.43196 0.0
C811 C 0.61538 0.42982 0.45785 0.0
C812 C 0.62381 0.4388 0.49149 0.0
C813 C 0.59284 0.42701 0.39944 0.0
C814 C 0.57618 0.42645 0.4073 0.0
C815 C 0.59961 0.41778 0.36238 0.0
C816 C 0.61703 0.41828 0.35124 0.0
C817 C 0.62601 0.40398 0.34945 0.0
C818 C 0.64246 0.40443 0.33926 0.0
C819 C 0.65005 0.41912 0.33055 0.0
C820 C 0.64119 0.43339 0.33183 0.0
C821 C 0.62474 0.433 0.34195 0.0
H822 H 0.66278 0.41945 0.32271 0.0
H823 H 0.50292 0.41498 0.41898 0.0
H824 H 0.09548 0.97683 0.25863 0.0
H825 H 0.08155 0.96096 0.19885 0.0
H826 H 0.12229 0.92906 0.18908 0.0
H827 H 0.13647 0.945 0.249 0.0
H828 H 0.10786 0.93509 0.10143 0.0
H829 H 0.09221 0.91834 0.25715 0.0
H830 H 0.08254 0.92217 0.33894 0.0
H831 H 0.03817 0.9416 0.28632 0.0
H832 H 0.04768 0.93812 0.20416 0.0
H833 H 0.06521 0.87056 0.99693 0.0
H834 H 0.08097 0.886 0.05391 0.0
H835 H 0.04158 0.91923 0.07091 0.0
H836 H 0.02564 0.90382 0.01398 0.0
H837 H 0.0561 0.91167 0.15556 0.0
H838 H 0.07204 0.9288 -0.00027 0.0
H839 H 0.0818 0.92502 0.91802 0.0
H840 H 0.12571 0.90464 0.97093 0.0
H841 H 0.11609 0.90809 0.05301 0.0
C842 C 0.10163 0.9666 0.2433 0.0
C843 C 0.11701 0.96205 0.25908 0.0
C844 C 0.09361 0.95752 0.20921 0.0
C845 C 0.10076 0.94365 0.19039 0.0
C846 C 0.11655 0.93968 0.2035 0.0
C847 C 0.12463 0.9488 0.23769 0.0
C848 C 0.09128 0.93282 0.15958 0.0
C849 C 0.09667 0.92977 0.11341 0.0
C850 C 0.07654 0.9261 0.17514 0.0
C851 C 0.07073 0.92811 0.22451 0.0
C852 C 0.08044 0.92355 0.26302 0.0
C853 C 0.07498 0.92564 0.30944 0.0
C854 C 0.05976 0.93216 0.31782 0.0
C855 C 0.04996 0.93657 0.27977 0.0
C856 C 0.05538 0.93453 0.23327 0.0
C857 C 0.05979 0.88103 0.01318 0.0
C858 C 0.04419 0.88602 0.0006 0.0
C859 C 0.06886 0.88989 0.04555 0.0
C860 C 0.06254 0.9039 0.06593 0.0
C861 C 0.0467 0.90849 0.05531 0.0
C862 C 0.03762 0.89966 0.02279 0.0
C863 C 0.0726 0.91404 0.09722 0.0
C864 C 0.06732 0.91694 0.14358 0.0
C865 C 0.08744 0.92057 0.08181 0.0
C866 C 0.09327 0.91854 0.0325 0.0
C867 C 0.08372 0.92339 0.99394 0.0
C868 C 0.08923 0.92133 0.94756 0.0
C869 C 0.10435 0.91455 0.93928 0.0
C870 C 0.11399 0.90986 0.97739 0.0
C871 C 0.10852 0.91188 0.02385 0.0
H872 H 0.1086 0.91296 0.90335 0.0
H873 H 0.05555 0.93377 0.35379 0.0
H874 H 0.53382 0.09104 0.78199 0.0
H875 H 0.55188 0.07773 0.72647 0.0
H876 H 0.57793 0.12205 0.70666 0.0
H877 H 0.55986 0.13558 0.76251 0.0
H878 H 0.57294 0.10469 0.62216 0.0
H879 H 0.59349 0.09573 0.77813 0.0
H880 H 0.59202 0.08799 0.86233 0.0
H881 H 0.57822 0.04009 0.82285 0.0
H882 H 0.57936 0.04762 0.73837 0.0
H883 H 0.63693 0.06468 0.50694 0.0
H884 H 0.62335 0.08091 0.56696 0.0
H885 H 0.59455 0.03999 0.60696 0.0
H886 H 0.60815 0.0236 0.54746 0.0
H887 H 0.60329 0.0577 0.68362 0.0
H888 H 0.5803 0.06716 0.52901 0.0
H889 H 0.58107 0.07469 0.44454 0.0
H890 H 0.59899 0.12146 0.48135 0.0
H891 H 0.59854 0.11411 0.56607 0.0
C892 C 0.54326 0.09806 0.76553 0.0
C893 C 0.54551 0.11435 0.77713 0.0
C894 C 0.55361 0.0904 0.73391 0.0
C895 C 0.5664 0.09884 0.71326 0.0
C896 C 0.56818 0.11532 0.72258 0.0
C897 C 0.55784 0.12301 0.75444 0.0
C898 C 0.5782 0.0902 0.68341 0.0
C899 C 0.57981 0.0946 0.63573 0.0
C900 C 0.58696 0.07691 0.70113 0.0
C901 C 0.58638 0.07228 0.75191 0.0
C902 C 0.59002 0.08358 0.7874 0.0
C903 C 0.58926 0.07923 0.83518 0.0
C904 C 0.585 0.06357 0.84793 0.0
C905 C 0.58151 0.05222 0.81291 0.0
C906 C 0.58223 0.05652 0.76507 0.0
C907 C 0.62793 0.05903 0.52909 0.0
C908 C 0.62349 0.04288 0.52199 0.0
C909 C 0.62013 0.06836 0.56322 0.0
C910 C 0.60773 0.06173 0.59069 0.0
C911 C 0.60403 0.04535 0.58591 0.0
C912 C 0.61181 0.03601 0.55182 0.0
C913 C 0.59785 0.07201 0.62213 0.0
C914 C 0.59659 0.06791 0.67016 0.0
C915 C 0.58938 0.08556 0.60467 0.0
C916 C 0.58957 0.09002 0.5538 0.0
C917 C 0.58453 0.079 0.51906 0.0
C918 C 0.58488 0.08325 0.47115 0.0
C919 C 0.59012 0.09853 0.45758 0.0
C920 C 0.59497 0.10962 0.49191 0.0
C921 C 0.59466 0.10542 0.53987 0.0
H922 H 0.59038 0.10179 0.42046 0.0
H923 H 0.58441 0.06022 0.88495 0.0
H924 H 0.36928 0.5588 0.25638 0.0
H925 H 0.38355 0.57465 0.19664 0.0
H926 H 0.42165 0.53945 0.19427 0.0
H927 H 0.40767 0.52375 0.25445 0.0
H928 H 0.43355 0.56868 0.20519 0.0
H929 H 0.39499 0.54388 0.10125 0.0
H930 H 0.3679 0.53639 0.07345 0.0
H931 H 0.35528 0.58626 0.06088 0.0
H932 H 0.38224 0.59406 0.08922 0.0
H933 H 0.47688 0.59486 0.00308 0.0
H934 H 0.46121 0.58017 0.06201 0.0
H935 H 0.42503 0.61733 0.05966 0.0
H936 H 0.44048 0.632 7e-05 0.0
H937 H 0.4116 0.58827 0.05238 0.0
H938 H 0.45035 0.61307 0.15436 0.0
H939 H 0.47747 0.6206 0.18178 0.0
H940 H 0.4897 0.57075 0.19813 0.0
H941 H 0.46271 0.56292 0.17019 0.0
C942 C 0.38056 0.5543 0.24251 0.0
C943 C 0.38739 0.54007 0.26036 0.0
C944 C 0.3887 0.56337 0.20833 0.0
C945 C 0.40368 0.55823 0.19101 0.0
C946 C 0.41016 0.54369 0.20737 0.0
C947 C 0.40212 0.5347 0.24168 0.0
C948 C 0.41315 0.56843 0.15813 0.0
C949 C 0.42882 0.57278 0.17146 0.0
C950 C 0.40679 0.57421 0.11487 0.0
C951 C 0.39058 0.56955 0.09784 0.0
C952 C 0.38639 0.55325 0.09295 0.0
C953 C 0.37107 0.54895 0.07701 0.0
C954 C 0.35986 0.56084 0.06554 0.0
C955 C 0.36397 0.57706 0.06985 0.0
C956 C 0.37927 0.58143 0.08581 0.0
C957 C 0.46571 0.60004 0.01555 0.0
C958 C 0.45994 0.61461 0.9968 0.0
C959 C 0.45676 0.59163 0.04931 0.0
C960 C 0.44198 0.5977 0.06539 0.0
C961 C 0.43639 0.61242 0.04764 0.0
C962 C 0.44529 0.62081 0.01375 0.0
C963 C 0.43206 0.58834 0.09923 0.0
C964 C 0.4163 0.58419 0.08616 0.0
C965 C 0.43832 0.58273 0.14278 0.0
C966 C 0.45455 0.58741 0.15979 0.0
C967 C 0.45886 0.60371 0.16347 0.0
C968 C 0.47421 0.60803 0.17916 0.0
C969 C 0.48532 0.59616 0.19158 0.0
C970 C 0.48109 0.57994 0.18845 0.0
C971 C 0.46576 0.57555 0.17274 0.0
H972 H 0.49719 0.59953 0.20372 0.0
H973 H 0.348 0.55749 0.0532 0.0
H974 H 0.94208 0.36727 0.75979 0.0
H975 H 0.92544 0.38164 0.70207 0.0
H976 H 0.95462 0.42405 0.72034 0.0
H977 H 0.97127 0.40988 0.77784 0.0
H978 H 0.92241 0.43036 0.7295 0.0
H979 H 0.95744 0.4025 0.62097 0.0
H980 H 0.97062 0.37875 0.58593 0.0
H981 H 0.92452 0.35888 0.55046 0.0
H982 H 0.91105 0.38242 0.5859 0.0
H983 H 0.89937 0.47946 0.53622 0.0
H984 H 0.9128 0.46313 0.59614 0.0
H985 H 0.88207 0.42302 0.56175 0.0
H986 H 0.86866 0.43921 0.50128 0.0
H987 H 0.91304 0.41416 0.56269 0.0
H988 H 0.87788 0.44243 0.66652 0.0
H989 H 0.86438 0.46598 0.70156 0.0
H990 H 0.90997 0.48472 0.74669 0.0
H991 H 0.92379 0.46139 0.71132 0.0
C992 C 0.9451 0.37958 0.751 0.0
C993 C 0.95795 0.38745 0.77368 0.0
C994 C 0.93557 0.38777 0.71803 0.0
C995 C 0.93877 0.40393 0.70714 0.0
C996 C 0.95189 0.41162 0.72853 0.0
C997 C 0.96143 0.40346 0.76127 0.0
C998 C 0.92808 0.41312 0.67508 0.0
C999 C 0.92048 0.42693 0.69286 0.0
C1000 C 0.92516 0.4083 0.62784 0.0
C1001 C 0.93324 0.39413 0.60659 0.0
C1002 C 0.95011 0.39299 0.60611 0.0
C1003 C 0.95763 0.37959 0.58608 0.0
C1004 C 0.94841 0.36729 0.56612 0.0
C1005 C 0.93164 0.3684 0.56602 0.0
C1006 C 0.92406 0.38177 0.58604 0.0
C1007 C 0.89527 0.46726 0.54189 0.0
C1008 C 0.88298 0.46064 0.51379 0.0
C1009 C 0.90294 0.45794 0.57626 0.0
C1010 C 0.89842 0.44186 0.58347 0.0
C1011 C 0.88578 0.43538 0.55666 0.0
C1012 C 0.87808 0.4447 0.52228 0.0
C1013 C 0.90755 0.43157 0.61688 0.0
C1014 C 0.91485 0.41754 0.59943 0.0
C1015 C 0.91014 0.43615 0.66453 0.0
C1016 C 0.90189 0.45021 0.68589 0.0
C1017 C 0.88505 0.45163 0.68357 0.0
C1018 C 0.87733 0.46493 0.70356 0.0
C1019 C 0.88632 0.47686 0.72624 0.0
C1020 C 0.90303 0.47548 0.72907 0.0
C1021 C 0.91081 0.46221 0.70911 0.0
H1022 H 0.88032 0.48714 0.74171 0.0
H1023 H 0.95426 0.35692 0.55061 0.0
H1024 H 0.97982 0.40399 0.02751 0.0
H1025 H 0.96462 0.4189 0.08706 0.0
H1026 H 0.92466 0.38635 0.06988 0.0
H1027 H 0.9397 0.37145 0.00994 0.0
H1028 H 0.91524 0.41732 0.06347 0.0
H1029 H 0.94704 0.38569 0.17001 0.0
H1030 H 0.97202 0.37428 0.20291 0.0
H1031 H 0.98943 0.42177 0.23328 0.0
H1032 H 0.96464 0.43348 0.19994 0.0
H1033 H 0.86925 0.44612 0.25953 0.0
H1034 H 0.88417 0.43035 0.20118 0.0
H1035 H 0.92532 0.46134 0.2193 0.0
H1036 H 0.91061 0.47697 0.27825 0.0
H1037 H 0.93389 0.43063 0.22566 0.0
H1038 H 0.90244 0.46235 0.11822 0.0
H1039 H 0.87764 0.47393 0.08467 0.0
H1040 H 0.85974 0.42655 0.05539 0.0
H1041 H 0.88436 0.41466 0.08937 0.0
C1042 C 0.96792 0.39982 0.03696 0.0
C1043 C 0.96096 0.38656 0.01377 0.0
C1044 C 0.95924 0.40835 0.07106 0.0
C1045 C 0.9435 0.40372 0.08286 0.0
C1046 C 0.93676 0.39015 0.06112 0.0
C1047 C 0.94542 0.38161 0.02704 0.0
C1048 C 0.93375 0.41361 0.11575 0.0
C1049 C 0.91918 0.42003 0.09923 0.0
C1050 C 0.93913 0.41748 0.16186 0.0
C1051 C 0.95404 0.41047 0.18207 0.0
C1052 C 0.95625 0.39371 0.18335 0.0
C1053 C 0.97036 0.38718 0.20215 0.0
C1054 C 0.98232 0.39729 0.22007 0.0
C1055 C 0.98017 0.41395 0.21934 0.0
C1056 C 0.96608 0.42054 0.20054 0.0
C1057 C 0.88138 0.44974 0.25055 0.0
C1058 C 0.88877 0.46274 0.27372 0.0
C1059 C 0.8899 0.44072 0.21714 0.0
C1060 C 0.90587 0.44467 0.20588 0.0
C1061 C 0.91305 0.45801 0.22769 0.0
C1062 C 0.9046 0.46697 0.26126 0.0
C1063 C 0.91539 0.43442 0.17335 0.0
C1064 C 0.92992 0.42791 0.18994 0.0
C1065 C 0.90999 0.4305 0.12727 0.0
C1066 C 0.89518 0.43762 0.10678 0.0
C1067 C 0.89316 0.4544 0.10499 0.0
C1068 C 0.87915 0.46102 0.08583 0.0
C1069 C 0.8671 0.45098 0.06803 0.0
C1070 C 0.86907 0.4343 0.06925 0.0
C1071 C 0.88306 0.42762 0.08842 0.0
H1072 H 0.85626 0.45613 0.05319 0.0
H1073 H 0.99324 0.39222 0.2346 0.0
H1074 H 0.02957 0.90114 0.75187 0.0
H1075 H 0.04545 0.91354 0.68938 0.0
H1076 H 0.07887 0.8739 0.69389 0.0
H1077 H 0.06305 0.8614 0.7573 0.0
H1078 H 0.09424 0.90247 0.69731 0.0
H1079 H 0.05478 0.87863 0.59858 0.0
H1080 H 0.02763 0.87114 0.5714 0.0
H1081 H 0.01577 0.92096 0.5524 0.0
H1082 H 0.04277 0.92878 0.58014 0.0
H1083 H 0.13443 0.93666 0.4939 0.0
H1084 H 0.12079 0.91864 0.54938 0.0
H1085 H 0.0833 0.95384 0.56903 0.0
H1086 H 0.09676 0.97189 0.51363 0.0
H1087 H 0.0715 0.92382 0.54751 0.0
H1088 H 0.11044 0.94722 0.65464 0.0
H1089 H 0.13778 0.95428 0.6813 0.0
H1090 H 0.15085 0.90434 0.68256 0.0
H1091 H 0.12363 0.89699 0.65527 0.0
C1092 C 0.04017 0.8949 0.73922 0.0
C1093 C 0.04507 0.8803 0.7597 0.0
C1094 C 0.0492 0.90199 0.70326 0.0
C1095 C 0.06329 0.8946 0.68674 0.0
C1096 C 0.06801 0.87978 0.70611 0.0
C1097 C 0.05892 0.87263 0.74213 0.0
C1098 C 0.0735 0.90302 0.65157 0.0
C1099 C 0.08939 0.90685 0.66404 0.0
C1100 C 0.06708 0.90891 0.60852 0.0
C1101 C 0.05079 0.90429 0.59177 0.0
C1102 C 0.04635 0.888 0.58897 0.0
C1103 C 0.03099 0.88369 0.57339 0.0
C1104 C 0.01997 0.89557 0.56026 0.0
C1105 C 0.02431 0.91177 0.5626 0.0
C1106 C 0.03965 0.91615 0.57818 0.0
C1107 C 0.1234 0.94068 0.51055 0.0
C1108 C 0.11666 0.95571 0.49917 0.0
C1109 C 0.11563 0.93035 0.54224 0.0
C1110 C 0.10102 0.9349 0.56313 0.0
C1111 C 0.09453 0.95008 0.55303 0.0
C1112 C 0.1023 0.96043 0.52156 0.0
C1113 C 0.09204 0.92363 0.59396 0.0
C1114 C 0.0764 0.91925 0.5805 0.0
C1115 C 0.09873 0.91716 0.63588 0.0
C1116 C 0.11507 0.92157 0.65238 0.0
C1117 C 0.11919 0.93775 0.66019 0.0
C1118 C 0.13465 0.94181 0.6755 0.0
C1119 C 0.14606 0.92977 0.68347 0.0
C1120 C 0.14201 0.91365 0.67628 0.0
C1121 C 0.12657 0.90954 0.66093 0.0
H1122 H 0.15802 0.93294 0.69533 0.0
H1123 H 0.00808 0.89221 0.5482 0.0
H1124 H 0.59128 0.03107 0.30028 0.0
H1125 H 0.57618 0.04635 0.24182 0.0
H1126 H 0.61969 0.07035 0.19784 0.0
H1127 H 0.63495 0.05532 0.25745 0.0
H1128 H 0.59543 0.09138 0.21119 0.0
H1129 H 0.60208 0.04103 0.1291 0.0
H1130 H 0.60068 0.01151 0.12206 0.0
H1131 H 0.54957 0.01308 0.14297 0.0
H1132 H 0.55069 0.04261 0.15075 0.0
H1133 H 0.5643 0.12685 0.00259 0.0
H1134 H 0.57924 0.11212 0.06272 0.0
H1135 H 0.53628 0.08597 0.10036 0.0
H1136 H 0.52132 0.10033 0.03891 0.0
H1137 H 0.56025 0.06594 0.09071 0.0
H1138 H 0.55296 0.11557 0.1734 0.0
H1139 H 0.55371 0.14495 0.18477 0.0
H1140 H 0.60498 0.14472 0.16695 0.0
H1141 H 0.60452 0.11535 0.15481 0.0
C1142 C 0.59772 0.03951 0.27802 0.0
C1143 C 0.61435 0.04201 0.28364 0.0
C1144 C 0.58905 0.04819 0.24441 0.0
C1145 C 0.59682 0.0594 0.2152 0.0
C1146 C 0.61346 0.06175 0.22007 0.0
C1147 C 0.62218 0.05309 0.25394 0.0
C1148 C 0.58743 0.06903 0.18077 0.0
C1149 C 0.58793 0.08585 0.18429 0.0
C1150 C 0.57724 0.06175 0.14685 0.0
C1151 C 0.57648 0.04403 0.14076 0.0
C1152 C 0.59055 0.03508 0.13234 0.0
C1153 C 0.5898 0.01835 0.12819 0.0
C1154 C 0.57504 0.01043 0.13202 0.0
C1155 C 0.56099 0.01924 0.1399 0.0
C1156 C 0.56167 0.03597 0.14411 0.0
C1157 C 0.55793 0.11816 0.02412 0.0
C1158 C 0.5416 0.11477 0.01591 0.0
C1159 C 0.56651 0.10975 0.05864 0.0
C1160 C 0.55887 0.09801 0.08638 0.0
C1161 C 0.54244 0.09495 0.07931 0.0
C1162 C 0.53388 0.10324 0.04436 0.0
C1163 C 0.56825 0.08836 0.12095 0.0
C1164 C 0.56775 0.07152 0.1175 0.0
C1165 C 0.57835 0.09561 0.15524 0.0
C1166 C 0.57868 0.11327 0.16277 0.0
C1167 C 0.56438 0.1218 0.17156 0.0
C1168 C 0.56476 0.13845 0.1782 0.0
C1169 C 0.57938 0.1467 0.17647 0.0
C1170 C 0.59366 0.13831 0.16823 0.0
C1171 C 0.59335 0.12166 0.16152 0.0
H1172 H 0.57964 0.15959 0.18161 0.0
H1173 H 0.5745 0.99747 0.12898 0.0
H1174 H 0.36942 0.55875 0.5035 0.0
H1175 H 0.3834 0.57561 0.56107 0.0
H1176 H 0.42241 0.54148 0.5661 0.0
H1177 H 0.40839 0.52437 0.50913 0.0
H1178 H 0.41601 0.55306 0.65242 0.0
H1179 H 0.42459 0.57527 0.49694 0.0
H1180 H 0.41633 0.58609 0.41934 0.0
H1181 H 0.39086 0.6244 0.48838 0.0
H1182 H 0.3988 0.61367 0.56646 0.0
H1183 H 0.47775 0.60013 0.74448 0.0
H1184 H 0.46201 0.5853 0.68626 0.0
H1185 H 0.42396 0.62032 0.69724 0.0
H1186 H 0.43975 0.63541 0.75558 0.0
H1187 H 0.42856 0.60914 0.6047 0.0
H1188 H 0.42101 0.58721 0.76045 0.0
H1189 H 0.4299 0.57644 0.8375 0.0
H1190 H 0.4539 0.53748 0.76707 0.0
H1191 H 0.44536 0.54817 0.68951 0.0
C1192 C 0.38087 0.5547 0.51733 0.0
C1193 C 0.38786 0.54027 0.50137 0.0
C1194 C 0.38889 0.56441 0.55003 0.0
C1195 C 0.40411 0.55998 0.56703 0.0
C1196 C 0.41072 0.54518 0.55317 0.0
C1197 C 0.40267 0.5354 0.52064 0.0
C1198 C 0.41341 0.57099 0.59792 0.0
C1199 C 0.41888 0.56526 0.64175 0.0
C1200 C 0.41686 0.58705 0.58445 0.0
C1201 C 0.41215 0.59357 0.53754 0.0
C1202 C 0.41713 0.58593 0.49558 0.0
C1203 C 0.41252 0.59206 0.45151 0.0
C1204 C 0.40304 0.6059 0.44893 0.0
C1205 C 0.39819 0.61366 0.49043 0.0
C1206 C 0.40274 0.60757 0.5346 0.0
C1207 C 0.46615 0.60486 0.73401 0.0
C1208 C 0.4599 0.61884 0.75518 0.0
C1209 C 0.45716 0.59634 0.7008 0.0
C1210 C 0.44168 0.60152 0.68835 0.0
C1211 C 0.43584 0.61607 0.70673 0.0
C1212 C 0.44489 0.62469 0.73998 0.0
C1213 C 0.43129 0.59111 0.65881 0.0
C1214 C 0.4256 0.59696 0.61537 0.0
C1215 C 0.42767 0.57514 0.67253 0.0
C1216 C 0.43265 0.56857 0.71916 0.0
C1217 C 0.42827 0.57641 0.76138 0.0
C1218 C 0.43324 0.57031 0.80514 0.0
C1219 C 0.44248 0.5563 0.80718 0.0
C1220 C 0.44675 0.54834 0.76544 0.0
C1221 C 0.44183 0.5544 0.72157 0.0
H1222 H 0.44632 0.5516 0.8411 0.0
H1223 H 0.39948 0.61062 0.41478 0.0
H1224 H 0.91224 0.02426 0.71995 0.0
H1225 H 0.92607 0.04036 0.77937 0.0
H1226 H 0.88176 0.06499 0.81172 0.0
H1227 H 0.86782 0.04913 0.75135 0.0
H1228 H 0.9059 0.08582 0.79706 0.0
H1229 H 0.89835 0.03789 0.88893 0.0
H1230 H 0.89969 0.00873 0.90425 0.0
H1231 H 0.95113 0.01008 0.89201 0.0
H1232 H 0.95009 0.0392 0.87583 0.0
H1233 H 0.93502 0.12685 0.00017 0.0
H1234 H 0.92053 0.11056 0.94255 0.0
H1235 H 0.96393 0.0841 0.91204 0.0
H1236 H 0.97847 0.10008 0.97073 0.0
H1237 H 0.93979 0.06409 0.92671 0.0
H1238 H 0.94762 0.11139 0.83242 0.0
H1239 H 0.9467 0.14036 0.81409 0.0
H1240 H 0.89531 0.14007 0.82858 0.0
H1241 H 0.89593 0.11113 0.84763 0.0
C1242 C 0.90535 0.03296 0.74005 0.0
C1243 C 0.88893 0.03549 0.73068 0.0
C1244 C 0.91329 0.04211 0.7742 0.0
C1245 C 0.90494 0.05384 0.80009 0.0
C1246 C 0.88842 0.05602 0.79202 0.0
C1247 C 0.88046 0.04688 0.75772 0.0
C1248 C 0.91368 0.06443 0.83349 0.0
C1249 C 0.91309 0.0811 0.82595 0.0
C1250 C 0.92345 0.05821 0.87018 0.0
C1251 C 0.92413 0.04073 0.88084 0.0
C1252 C 0.90994 0.03196 0.88924 0.0
C1253 C 0.91065 0.01544 0.89811 0.0
C1254 C 0.92548 0.00756 0.89908 0.0
C1255 C 0.93965 0.0162 0.89127 0.0
C1256 C 0.93901 0.03272 0.8823 0.0
C1257 C 0.94159 0.11775 0.98067 0.0
C1258 C 0.95792 0.11475 0.99015 0.0
C1259 C 0.93326 0.10845 0.94763 0.0
C1260 C 0.94115 0.09614 0.9228 0.0
C1261 C 0.95759 0.09349 0.93093 0.0
C1262 C 0.96591 0.10271 0.96428 0.0
C1263 C 0.93205 0.08551 0.89023 0.0
C1264 C 0.93256 0.06883 0.89792 0.0
C1265 C 0.92226 0.09172 0.85351 0.0
C1266 C 0.92184 0.10912 0.84189 0.0
C1267 C 0.93613 0.11753 0.83205 0.0
C1268 C 0.93566 0.13394 0.82147 0.0
C1269 C 0.92096 0.14206 0.82029 0.0
C1270 C 0.90669 0.13377 0.82956 0.0
C1271 C 0.90709 0.11736 0.8402 0.0
H1272 H 0.92062 0.15477 0.81209 0.0
H1273 H 0.92601 0.99477 0.90589 0.0
H1274 H 0.36164 0.94011 0.49012 0.0
H1275 H 0.37437 0.92273 0.43114 0.0
H1276 H 0.40885 0.96004 0.40021 0.0
H1277 H 0.396 0.97758 0.45798 0.0
H1278 H 0.40088 0.94497 0.32173 0.0
H1279 H 0.4163 0.92941 0.48032 0.0
H1280 H 0.41136 0.92025 0.56208 0.0
H1281 H 0.38981 0.87687 0.50947 0.0
H1282 H 0.39428 0.88596 0.42729 0.0
H1283 H 0.46952 0.90681 0.24043 0.0
H1284 H 0.45137 0.91962 0.29662 0.0
H1285 H 0.41905 0.87923 0.28721 0.0
H1286 H 0.43721 0.86619 0.23051 0.0
H1287 H 0.4227 0.89326 0.38175 0.0
H1288 H 0.41062 0.90845 0.22163 0.0
H1289 H 0.41807 0.91766 0.14163 0.0
H1290 H 0.43509 0.96231 0.19912 0.0
H1291 H 0.42817 0.95317 0.27972 0.0
C1292 C 0.37174 0.94473 0.47009 0.0
C1293 C 0.37791 0.96018 0.47916 0.0
C1294 C 0.37906 0.93474 0.4366 0.0
C1295 C 0.39278 0.93996 0.41205 0.0
C1296 C 0.39833 0.95572 0.41891 0.0
C1297 C 0.39096 0.96574 0.45205 0.0
C1298 C 0.40206 0.92884 0.38136 0.0
C1299 C 0.40565 0.93369 0.33495 0.0
C1300 C 0.40807 0.91394 0.39827 0.0
C1301 C 0.40544 0.90846 0.44767 0.0
C1302 C 0.41038 0.91798 0.48618 0.0
C1303 C 0.40768 0.91279 0.53261 0.0
C1304 C 0.40027 0.89799 0.54097 0.0
C1305 C 0.39553 0.88835 0.50292 0.0
C1306 C 0.39812 0.89352 0.45642 0.0
C1307 C 0.45871 0.90046 0.25083 0.0
C1308 C 0.4547 0.88558 0.23038 0.0
C1309 C 0.44835 0.90782 0.28297 0.0
C1310 C 0.43377 0.90048 0.29528 0.0
C1311 C 0.43024 0.88509 0.27785 0.0
C1312 C 0.44062 0.87769 0.24547 0.0
C1313 C 0.42174 0.90963 0.32283 0.0
C1314 C 0.41765 0.90441 0.36843 0.0
C1315 C 0.41538 0.92427 0.30543 0.0
C1316 C 0.41899 0.93006 0.25679 0.0
C1317 C 0.41604 0.92019 0.21727 0.0
C1318 C 0.42018 0.9254 0.1718 0.0
C1319 C 0.42707 0.94056 0.16529 0.0
C1320 C 0.42977 0.95057 0.20423 0.0
C1321 C 0.42575 0.94537 0.24983 0.0
H1322 H 0.43029 0.94456 0.13006 0.0
H1323 H 0.39821 0.89396 0.57691 0.0
H1324 H 0.52577 0.39609 0.97553 0.0
H1325 H 0.54211 0.40982 0.91616 0.0
H1326 H 0.58208 0.37863 0.94832 0.0
H1327 H 0.56588 0.36489 0.00808 0.0
H1328 H 0.59092 0.40985 0.9497 0.0
H1329 H 0.56277 0.37513 0.844 0.0
H1330 H 0.53918 0.36188 0.80831 0.0
H1331 H 0.52063 0.40775 0.76487 0.0
H1332 H 0.544 0.42131 0.80092 0.0
H1333 H 0.63833 0.43973 0.75479 0.0
H1334 H 0.62389 0.42302 0.81224 0.0
H1335 H 0.58127 0.45177 0.79219 0.0
H1336 H 0.59549 0.46843 0.73488 0.0
H1337 H 0.57509 0.41985 0.78289 0.0
H1338 H 0.60256 0.45452 0.89294 0.0
H1339 H 0.62612 0.46769 0.92904 0.0
H1340 H 0.64606 0.42157 0.96402 0.0
H1341 H 0.6227 0.40812 0.92751 0.0
C1342 C 0.53793 0.39194 0.96944 0.0
C1343 C 0.54452 0.37942 0.99673 0.0
C1344 C 0.54727 0.3998 0.93542 0.0
C1345 C 0.56332 0.39524 0.92783 0.0
C1346 C 0.56974 0.38237 0.95375 0.0
C1347 C 0.56041 0.37448 0.98772 0.0
C1348 C 0.57363 0.40456 0.89497 0.0
C1349 C 0.58762 0.4118 0.91296 0.0
C1350 C 0.56915 0.40735 0.84736 0.0
C1351 C 0.55508 0.39925 0.82554 0.0
C1352 C 0.5536 0.38241 0.82718 0.0
C1353 C 0.54028 0.37484 0.80682 0.0
C1354 C 0.5284 0.38397 0.78442 0.0
C1355 C 0.52984 0.40069 0.78226 0.0
C1356 C 0.54313 0.40832 0.80261 0.0
C1357 C 0.62597 0.44266 0.76322 0.0
C1358 C 0.61805 0.45536 0.74001 0.0
C1359 C 0.61774 0.43309 0.79602 0.0
C1360 C 0.60149 0.43612 0.80626 0.0
C1361 C 0.59377 0.44915 0.7845 0.0
C1362 C 0.60196 0.45871 0.75188 0.0
C1363 C 0.59222 0.42532 0.83783 0.0
C1364 C 0.57844 0.41779 0.81954 0.0
C1365 C 0.59691 0.42224 0.8851 0.0
C1366 C 0.61097 0.43031 0.90699 0.0
C1367 C 0.61204 0.44718 0.90792 0.0
C1368 C 0.62534 0.4547 0.92855 0.0
C1369 C 0.63761 0.44547 0.94867 0.0
C1370 C 0.63657 0.42871 0.94833 0.0
C1371 C 0.6233 0.42113 0.92771 0.0
H1372 H 0.64789 0.45131 0.96464 0.0
H1373 H 0.5181 0.37809 0.76867 0.0
H1374 H 0.08862 0.5333 0.50959 0.0
H1375 H 0.0741 0.54729 0.44707 0.0
H1376 H 0.11914 0.56253 0.38551 0.0
H1377 H 0.1337 0.54942 0.45036 0.0
H1378 H 0.10048 0.58598 0.38148 0.0
H1379 H 0.09389 0.53129 0.33654 0.0
H1380 H 0.08726 0.50259 0.34648 0.0
H1381 H 0.03836 0.51491 0.37913 0.0
H1382 H 0.04475 0.5437 0.36998 0.0
H1383 H 0.04262 0.58665 0.16114 0.0
H1384 H 0.05938 0.57243 0.21812 0.0
H1385 H 0.05489 0.61217 0.31574 0.0
H1386 H 0.03889 0.6269 0.25714 0.0
H1387 H 0.05477 0.56057 0.29714 0.0
H1388 H 0.08643 0.61447 0.38958 0.0
H1389 H 0.096 0.64174 0.36992 0.0
H1390 H 0.10018 0.62842 0.22348 0.0
H1391 H 0.09083 0.60102 0.24235 0.0
C1392 C 0.09543 0.53947 0.48238 0.0
C1393 C 0.11228 0.54016 0.48447 0.0
C1394 C 0.08711 0.54743 0.44647 0.0
C1395 C 0.09548 0.55573 0.41081 0.0
C1396 C 0.11238 0.55622 0.41252 0.0
C1397 C 0.1207 0.54865 0.44934 0.0
C1398 C 0.08655 0.56432 0.37279 0.0
C1399 C 0.09055 0.58038 0.36284 0.0
C1400 C 0.07377 0.55698 0.34763 0.0
C1401 C 0.06984 0.53966 0.35292 0.0
C1402 C 0.08175 0.52788 0.34611 0.0
C1403 C 0.07803 0.5116 0.35158 0.0
C1404 C 0.0624 0.50693 0.36353 0.0
C1405 C 0.05046 0.51854 0.36991 0.0
C1406 C 0.05411 0.53485 0.36453 0.0
C1407 C 0.04522 0.59236 0.19478 0.0
C1408 C 0.03947 0.60787 0.20481 0.0
C1409 C 0.0548 0.58421 0.22739 0.0
C1410 C 0.05859 0.59124 0.27121 0.0
C1411 C 0.05252 0.60662 0.28177 0.0
C1412 C 0.04326 0.61499 0.24848 0.0
C1413 C 0.06867 0.58226 0.30581 0.0
C1414 C 0.0648 0.56615 0.31541 0.0
C1415 C 0.08202 0.58933 0.32898 0.0
C1416 C 0.08777 0.60575 0.31734 0.0
C1417 C 0.08944 0.61735 0.35321 0.0
C1418 C 0.09482 0.63283 0.3422 0.0
C1419 C 0.09865 0.63683 0.29546 0.0
C1420 C 0.09715 0.62533 0.25964 0.0
C1421 C 0.0918 0.60983 0.27047 0.0
H1422 H 0.1028 0.64882 0.287 0.0
H1423 H 0.05955 0.49432 0.36776 0.0
H1424 H 0.86627 0.53443 0.30573 0.0
H1425 H 0.87618 0.55673 0.25714 0.0
H1426 H 0.91358 0.56586 0.35928 0.0
H1427 H 0.90409 0.54325 0.40721 0.0
H1428 H 0.8975 0.59515 0.30135 0.0
H1429 H 0.92599 0.54231 0.29156 0.0
H1430 H 0.92463 0.51286 0.28131 0.0
H1431 H 0.89954 0.51909 0.14963 0.0
H1432 H 0.90051 0.54858 0.15965 0.0
H1433 H 0.96847 0.62483 0.19691 0.0
H1434 H 0.94545 0.61395 0.23961 0.0
H1435 H 0.93076 0.58824 0.11382 0.0
H1436 H 0.95469 0.59806 0.07259 0.0
H1437 H 0.93026 0.56861 0.177 0.0
H1438 H 0.90773 0.62073 0.17276 0.0
H1439 H 0.90622 0.65022 0.1799 0.0
H1440 H 0.91586 0.64684 0.32898 0.0
H1441 H 0.91766 0.61733 0.32268 0.0
C1442 C 0.87618 0.54161 0.31882 0.0
C1443 C 0.88451 0.53706 0.36001 0.0
C1444 C 0.88182 0.55434 0.29101 0.0
C1445 C 0.89561 0.56287 0.30468 0.0
C1446 C 0.90285 0.55948 0.34841 0.0
C1447 C 0.89746 0.54653 0.37563 0.0
C1448 C 0.90445 0.57272 0.26971 0.0
C1449 C 0.9047 0.5895 0.274 0.0
C1450 C 0.91332 0.56526 0.23319 0.0
C1451 C 0.91317 0.54759 0.22658 0.0
C1452 C 0.92009 0.53737 0.26061 0.0
C1453 C 0.9194 0.52069 0.25483 0.0
C1454 C 0.91197 0.51411 0.2149 0.0
C1455 C 0.90527 0.5242 0.18058 0.0
C1456 C 0.90588 0.54089 0.18629 0.0
C1457 C 0.96005 0.61722 0.17807 0.0
C1458 C 0.9633 0.61227 0.13155 0.0
C1459 C 0.94677 0.61105 0.20244 0.0
C1460 C 0.93613 0.60028 0.18012 0.0
C1461 C 0.93878 0.59638 0.13222 0.0
C1462 C 0.95239 0.60209 0.10846 0.0
C1463 C 0.92372 0.59145 0.20825 0.0
C1464 C 0.92285 0.57464 0.20313 0.0
C1465 C 0.91398 0.59903 0.24307 0.0
C1466 C 0.91292 0.61679 0.24715 0.0
C1467 C 0.90964 0.62627 0.20702 0.0
C1468 C 0.90872 0.643 0.21093 0.0
C1469 C 0.91097 0.6504 0.25485 0.0
C1470 C 0.91412 0.64109 0.29498 0.0
C1471 C 0.91507 0.62436 0.29127 0.0
H1472 H 0.91025 0.66336 0.2578 0.0
H1473 H 0.91144 0.50119 0.21048 0.0
H1474 H 0.86904 0.96428 0.69494 0.0
H1475 H 0.87953 0.94171 0.74147 0.0
H1476 H 0.91608 0.93354 0.63594 0.0
H1477 H 0.90603 0.95643 0.59013 0.0
H1478 H 0.90051 0.90381 0.69114 0.0
H1479 H 0.92845 0.95673 0.70592 0.0
H1480 H 0.9272 0.98593 0.72099 0.0
H1481 H 0.90404 0.97724 0.85451 0.0
H1482 H 0.90492 0.94798 0.83976 0.0
H1483 H 0.9729 0.87324 0.78184 0.0
H1484 H 0.94905 0.88454 0.74434 0.0
H1485 H 0.93634 0.90791 0.87589 0.0
H1486 H 0.96116 0.89778 0.91173 0.0
H1487 H 0.93432 0.92852 0.81628 0.0
H1488 H 0.91246 0.87616 0.81496 0.0
H1489 H 0.91116 0.84681 0.80362 0.0
H1490 H 0.9188 0.85283 0.65425 0.0
H1491 H 0.92038 0.88221 0.66472 0.0
C1492 C 0.87889 0.95726 0.68072 0.0
C1493 C 0.88681 0.96211 0.63912 0.0
C1494 C 0.88487 0.9444 0.70737 0.0
C1495 C 0.89858 0.93604 0.69208 0.0
C1496 C 0.90542 0.9398 0.64806 0.0
C1497 C 0.89971 0.95289 0.62202 0.0
C1498 C 0.90763 0.92574 0.72536 0.0
C1499 C 0.90793 0.90906 0.71869 0.0
C1500 C 0.91675 0.93266 0.76225 0.0
C1501 C 0.91657 0.95021 0.77149 0.0
C1502 C 0.92298 0.96106 0.7383 0.0
C1503 C 0.92236 0.97761 0.7468 0.0
C1504 C 0.91551 0.98344 0.78863 0.0
C1505 C 0.90932 0.97271 0.8221 0.0
C1506 C 0.90987 0.95615 0.81368 0.0
C1507 C 0.9647 0.88038 0.80302 0.0
C1508 C 0.96869 0.88457 0.84963 0.0
C1509 C 0.95096 0.8868 0.78167 0.0
C1510 C 0.94061 0.89703 0.80717 0.0
C1511 C 0.94408 0.90017 0.85512 0.0
C1512 C 0.95816 0.89426 0.87585 0.0
C1513 C 0.92767 0.90618 0.7822 0.0
C1514 C 0.92667 0.92287 0.79001 0.0
C1515 C 0.91758 0.89911 0.74733 0.0
C1516 C 0.91662 0.88142 0.74071 0.0
C1517 C 0.91397 0.87123 0.77973 0.0
C1518 C 0.91316 0.85458 0.77344 0.0
C1519 C 0.91492 0.84796 0.72826 0.0
C1520 C 0.91744 0.85798 0.68923 0.0
C1521 C 0.91826 0.87464 0.69531 0.0
H1522 H 0.91429 0.83506 0.72348 0.0
H1523 H 0.91503 0.99626 0.79513 0.0
H1524 H 0.53527 0.9129 0.08638 0.0
H1525 H 0.55979 0.9242 0.12053 0.0
H1526 H 0.55732 0.88951 0.23425 0.0
H1527 H 0.53354 0.87749 0.19781 0.0
H1528 H 0.56052 0.93963 0.19373 0.0
H1529 H 0.59093 0.88685 0.29817 0.0
H1530 H 0.5979 0.85836 0.28545 0.0
H1531 H 0.59743 0.86569 0.1349 0.0
H1532 H 0.59068 0.89427 0.14667 0.0
H1533 H 0.59115 0.96767 0.40056 0.0
H1534 H 0.57968 0.94715 0.34913 0.0
H1535 H 0.62406 0.9446 0.27065 0.0
H1536 H 0.63573 0.96534 0.3221 0.0
H1537 H 0.60523 0.91357 0.2812 0.0
H1538 H 0.60168 0.96721 0.22323 0.0
H1539 H 0.59704 0.99645 0.22851 0.0
H1540 H 0.54797 0.98808 0.26873 0.0
H1541 H 0.5524 0.95877 0.26459 0.0
C1542 C 0.54039 0.90733 0.11762 0.0
C1543 C 0.53263 0.89433 0.13947 0.0
C1544 C 0.55434 0.91384 0.13737 0.0
C1545 C 0.56049 0.90783 0.18029 0.0
C1546 C 0.55316 0.89422 0.20066 0.0
C1547 C 0.5395 0.88736 0.17995 0.0
C1548 C 0.57283 0.91719 0.207 0.0
C1549 C 0.5704 0.93383 0.21206 0.0
C1550 C 0.58599 0.90987 0.23071 0.0
C1551 C 0.59018 0.89271 0.22334 0.0
C1552 C 0.5924 0.88242 0.26235 0.0
C1553 C 0.59629 0.86624 0.2553 0.0
C1554 C 0.59807 0.86021 0.2094 0.0
C1555 C 0.59599 0.87036 0.17044 0.0
C1556 C 0.59211 0.88655 0.17728 0.0
C1557 C 0.59869 0.96241 0.37337 0.0
C1558 C 0.61426 0.96831 0.36491 0.0
C1559 C 0.59211 0.95067 0.34403 0.0
C1560 C 0.60096 0.94458 0.30576 0.0
C1561 C 0.61707 0.94919 0.30007 0.0
C1562 C 0.6237 0.96103 0.32952 0.0
C1563 C 0.59242 0.93557 0.26825 0.0
C1564 C 0.5955 0.91916 0.26164 0.0
C1565 C 0.58021 0.94314 0.24154 0.0
C1566 C 0.57742 0.96078 0.24409 0.0
C1567 C 0.58994 0.9716 0.23372 0.0
C1568 C 0.58735 0.98818 0.23645 0.0
C1569 C 0.57224 0.99412 0.24912 0.0
C1570 C 0.55968 0.98347 0.25901 0.0
C1571 C 0.56222 0.96686 0.25647 0.0
H1572 H 0.57025 0.00696 0.25107 0.0
H1573 H 0.60107 0.84769 0.20403 0.0
H1574 H 0.63768 0.53702 0.67763 0.0
H1575 H 0.62817 0.56165 0.71649 0.0
H1576 H 0.58088 0.55395 0.65777 0.0
H1577 H 0.59032 0.52977 0.6184 0.0
H1578 H 0.58638 0.58499 0.66326 0.0
H1579 H 0.59227 0.53833 0.76762 0.0
H1580 H 0.60794 0.51709 0.80757 0.0
H1581 H 0.63817 0.5529 0.87143 0.0
H1582 H 0.62276 0.57434 0.83136 0.0
H1583 H 0.53215 0.58561 0.87371 0.0
H1584 H 0.55644 0.57563 0.83623 0.0
H1585 H 0.56817 0.62364 0.78962 0.0
H1586 H 0.5434 0.63374 0.82656 0.0
H1587 H 0.5877 0.57927 0.83815 0.0
H1588 H 0.58358 0.62009 0.6767 0.0
H1589 H 0.56425 0.63788 0.63587 0.0
H1590 H 0.52504 0.60879 0.68552 0.0
H1591 H 0.54416 0.59077 0.72614 0.0
C1592 C 0.62539 0.54087 0.67192 0.0
C1593 C 0.61468 0.53133 0.64555 0.0
C1594 C 0.61996 0.55491 0.69431 0.0
C1595 C 0.60373 0.55951 0.69076 0.0
C1596 C 0.59344 0.55068 0.66116 0.0
C1597 C 0.59885 0.53676 0.63884 0.0
C1598 C 0.59666 0.57204 0.722 0.0
C1599 C 0.58697 0.584 0.70155 0.0
C1600 C 0.5973 0.57073 0.772 0.0
C1601 C 0.60653 0.55788 0.79606 0.0
C1602 C 0.60233 0.54164 0.78995 0.0
C1603 C 0.61115 0.52958 0.81263 0.0
C1604 C 0.62408 0.53364 0.84189 0.0
C1605 C 0.62818 0.54977 0.84864 0.0
C1606 C 0.61942 0.56188 0.82595 0.0
C1607 C 0.54002 0.59415 0.85632 0.0
C1608 C 0.53572 0.61043 0.85245 0.0
C1609 C 0.55401 0.58842 0.8351 0.0
C1610 C 0.56405 0.59882 0.80945 0.0
C1611 C 0.56049 0.61535 0.80872 0.0
C1612 C 0.54639 0.62112 0.83002 0.0
C1613 C 0.57688 0.59173 0.77931 0.0
C1614 C 0.58769 0.58082 0.79997 0.0
C1615 C 0.57685 0.59361 0.72943 0.0
C1616 C 0.56527 0.60427 0.70493 0.0
C1617 C 0.57083 0.61752 0.67882 0.0
C1618 C 0.55992 0.62762 0.65572 0.0
C1619 C 0.54342 0.62451 0.65827 0.0
C1620 C 0.53781 0.61123 0.68373 0.0
C1621 C 0.54868 0.60108 0.7068 0.0
H1622 H 0.53499 0.63235 0.64041 0.0
H1623 H 0.63089 0.52428 0.85944 0.0
H1624 H 0.12987 0.46632 0.69452 0.0
H1625 H 0.11796 0.44251 0.73157 0.0
H1626 H 0.0815 0.44134 0.6227 0.0
H1627 H 0.09286 0.46563 0.58754 0.0
H1628 H 0.0677 0.44277 0.70129 0.0
H1629 H 0.10973 0.40969 0.6424 0.0
H1630 H 0.13757 0.40126 0.62569 0.0
H1631 H 0.14733 0.39846 0.77481 0.0
H1632 H 0.11961 0.40711 0.79247 0.0
H1633 H 0.03647 0.3676 0.81054 0.0
H1634 H 0.059 0.37845 0.76429 0.0
H1635 H 0.06016 0.42024 0.85453 0.0
H1636 H 0.03763 0.40966 0.90014 0.0
H1637 H 0.09153 0.39447 0.77696 0.0
H1638 H 0.0516 0.45079 0.78165 0.0
H1639 H 0.02313 0.45783 0.7951 0.0
H1640 H 0.00855 0.41171 0.74192 0.0
H1641 H 0.0369 0.40454 0.72733 0.0
C1642 C 0.11966 0.46061 0.67772 0.0
C1643 C 0.11217 0.4678 0.6385 0.0
C1644 C 0.11285 0.44695 0.69881 0.0
C1645 C 0.09873 0.44011 0.68016 0.0
C1646 C 0.09228 0.44646 0.63811 0.0
C1647 C 0.0988 0.46029 0.61788 0.0
C1648 C 0.08918 0.42835 0.70827 0.0
C1649 C 0.07299 0.43212 0.71708 0.0
C1650 C 0.0959 0.41437 0.72915 0.0
C1651 C 0.1126 0.40917 0.71875 0.0
C1652 C 0.11784 0.40741 0.67165 0.0
C1653 C 0.1336 0.40256 0.662 0.0
C1654 C 0.14422 0.39935 0.69916 0.0
C1655 C 0.13909 0.40095 0.74606 0.0
C1656 C 0.12335 0.40581 0.75591 0.0
C1657 C 0.042 0.37876 0.82168 0.0
C1658 C 0.03515 0.38795 0.85832 0.0
C1659 C 0.05489 0.38492 0.79531 0.0
C1660 C 0.06105 0.40024 0.80566 0.0
C1661 C 0.05549 0.40844 0.84587 0.0
C1662 C 0.04257 0.40241 0.87177 0.0
C1663 C 0.07043 0.40922 0.76982 0.0
C1664 C 0.08642 0.40501 0.76008 0.0
C1665 C 0.06351 0.42263 0.74685 0.0
C1666 C 0.04638 0.42708 0.75384 0.0
C1667 C 0.04231 0.4422 0.77254 0.0
C1668 C 0.02619 0.44621 0.78039 0.0
C1669 C 0.01404 0.4352 0.76951 0.0
C1670 C 0.01797 0.42021 0.75047 0.0
C1671 C 0.03406 0.41617 0.74241 0.0
H1672 H 0.00158 0.43831 0.77574 0.0
H1673 H 0.15642 0.3956 0.69162 0.0
H1674 H 0.03267 0.09063 0.11584 0.0
H1675 H 0.05533 0.08122 0.16273 0.0
H1676 H 0.05699 0.12671 0.23604 0.0
H1677 H 0.03401 0.1362 0.18914 0.0
H1678 H 0.08551 0.08853 0.18297 0.0
H1679 H 0.06288 0.1178 0.35432 0.0
H1680 H 0.03803 0.12912 0.38877 0.0
H1681 H 0.00953 0.09842 0.29987 0.0
H1682 H 0.03421 0.08686 0.26522 0.0
H1683 H 0.13025 0.04451 0.35212 0.0
H1684 H 0.11961 0.06934 0.31711 0.0
H1685 H 0.07128 0.05325 0.3465 0.0
H1686 H 0.08175 0.02902 0.38284 0.0
H1687 H 0.07154 0.08384 0.35327 0.0
H1688 H 0.09192 0.04501 0.23828 0.0
H1689 H 0.11308 0.02853 0.20084 0.0
H1690 H 0.14053 0.07109 0.17124 0.0
H1691 H 0.11958 0.08779 0.209 0.0
C1692 C 0.03811 0.09881 0.14106 0.0
C1693 C 0.03145 0.11408 0.14923 0.0
C1694 C 0.05113 0.09343 0.16776 0.0
C1695 C 0.05772 0.10316 0.20341 0.0
C1696 C 0.05197 0.11894 0.20903 0.0
C1697 C 0.03892 0.12438 0.18202 0.0
C1698 C 0.06906 0.09583 0.23782 0.0
C1699 C 0.08268 0.0878 0.22044 0.0
C1700 C 0.06525 0.09466 0.2866 0.0
C1701 C 0.05037 0.10168 0.30672 0.0
C1702 C 0.0513 0.11351 0.34209 0.0
C1703 C 0.03726 0.11995 0.36166 0.0
C1704 C 0.02221 0.11455 0.34635 0.0
C1705 C 0.02119 0.10266 0.3115 0.0
C1706 C 0.03519 0.09619 0.29184 0.0
C1707 C 0.11739 0.04653 0.3523 0.0
C1708 C 0.10684 0.03468 0.36957 0.0
C1709 C 0.11131 0.06068 0.33203 0.0
C1710 C 0.09461 0.06303 0.32815 0.0
C1711 C 0.0842 0.05177 0.34888 0.0
C1712 C 0.09023 0.0378 0.36947 0.0
C1713 C 0.08763 0.07597 0.29808 0.0
C1714 C 0.07485 0.08513 0.31628 0.0
C1715 C 0.09176 0.07759 0.24959 0.0
C1716 C 0.10433 0.0676 0.22698 0.0
C1717 C 0.10253 0.05082 0.22404 0.0
C1718 C 0.11446 0.04145 0.20274 0.0
C1719 C 0.12817 0.04876 0.18383 0.0
C1720 C 0.12994 0.06545 0.18604 0.0
C1721 C 0.11804 0.07487 0.20739 0.0
H1722 H 0.1374 0.04149 0.16733 0.0
H1723 H 0.01136 0.11952 0.3616 0.0
H1724 H 0.37133 0.038 0.68125 0.0
H1725 H 0.38439 0.06059 0.7211 0.0
H1726 H 0.42006 0.0625 0.6101 0.0
H1727 H 0.40747 0.03943 0.57161 0.0
H1728 H 0.43436 0.05922 0.68793 0.0
H1729 H 0.39329 0.0947 0.63615 0.0
H1730 H 0.36568 0.10435 0.62187 0.0
H1731 H 0.35657 0.10472 0.77158 0.0
H1732 H 0.38405 0.09484 0.78678 0.0
H1733 H 0.46625 0.13275 0.81186 0.0
H1734 H 0.44415 0.12241 0.76289 0.0
H1735 H 0.44425 0.07835 0.84333 0.0
H1736 H 0.46636 0.08843 0.89167 0.0
H1737 H 0.41246 0.10677 0.77225 0.0
H1738 H 0.45056 0.04892 0.76436 0.0
H1739 H 0.47884 0.04067 0.77501 0.0
H1740 H 0.49467 0.08767 0.73272 0.0
H1741 H 0.46651 0.09609 0.72099 0.0
C1742 C 0.38163 0.04362 0.66456 0.0
C1743 C 0.3885 0.0369 0.62365 0.0
C1744 C 0.38909 0.05658 0.68733 0.0
C1745 C 0.40331 0.06325 0.66885 0.0
C1746 C 0.40921 0.05749 0.62538 0.0
C1747 C 0.40198 0.04434 0.60327 0.0
C1748 C 0.41342 0.07418 0.69816 0.0
C1749 C 0.42951 0.06972 0.70572 0.0
C1750 C 0.40727 0.08797 0.7215 0.0
C1751 C 0.39072 0.09391 0.71258 0.0
C1752 C 0.38536 0.09671 0.66603 0.0
C1753 C 0.36974 0.10225 0.65777 0.0
C1754 C 0.35937 0.10511 0.69578 0.0
C1755 C 0.36462 0.10248 0.74216 0.0
C1756 C 0.38023 0.09694 0.75062 0.0
C1757 C 0.46115 0.1211 0.82017 0.0
C1758 C 0.46819 0.11127 0.85501 0.0
C1759 C 0.44851 0.11524 0.79222 0.0
C1760 C 0.44279 0.09953 0.79906 0.0
C1761 C 0.44863 0.09045 0.83723 0.0
C1762 C 0.46129 0.09621 0.86476 0.0
C1763 C 0.43303 0.09147 0.76213 0.0
C1764 C 0.41716 0.0964 0.75354 0.0
C1765 C 0.43941 0.07829 0.73674 0.0
C1766 C 0.45642 0.07316 0.74222 0.0
C1767 C 0.46008 0.05745 0.75704 0.0
C1768 C 0.47609 0.05275 0.7633 0.0
C1769 C 0.48854 0.06365 0.75468 0.0
C1770 C 0.48501 0.07925 0.73952 0.0
C1771 C 0.46903 0.08399 0.73308 0.0
H1772 H 0.50091 0.06 0.75966 0.0
H1773 H 0.34728 0.1094 0.68931 0.0
H1774 H 0.45951 0.39243 0.08458 0.0
H1775 H 0.43506 0.40327 0.12101 0.0
H1776 H 0.4505 0.38504 0.2569 0.0
H1777 H 0.47407 0.37296 0.21943 0.0
H1778 H 0.42043 0.38641 0.26056 0.0
H1779 H 0.4605 0.42465 0.21097 0.0
H1780 H 0.47841 0.43855 0.15458 0.0
H1781 H 0.43752 0.45367 0.07304 0.0
H1782 H 0.41938 0.43969 0.12872 0.0
H1783 H 0.40894 0.45991 0.39715 0.0
H1784 H 0.41836 0.43601 0.35479 0.0
H1785 H 0.37945 0.44094 0.25502 0.0
H1786 H 0.36958 0.46455 0.2984 0.0
H1787 H 0.41627 0.44475 0.22636 0.0
H1788 H 0.37669 0.40981 0.29609 0.0
H1789 H 0.36182 0.39771 0.36271 0.0
H1790 H 0.40584 0.37865 0.41897 0.0
H1791 H 0.42101 0.39085 0.35306 0.0
C1792 C 0.45727 0.39022 0.12182 0.0
C1793 C 0.46856 0.3819 0.14934 0.0
C1794 C 0.44342 0.39657 0.14282 0.0
C1795 C 0.44119 0.39556 0.19217 0.0
C1796 C 0.4519 0.38612 0.21888 0.0
C1797 C 0.4654 0.3792 0.19749 0.0
C1798 C 0.42908 0.40584 0.21676 0.0
C1799 C 0.41953 0.39916 0.25295 0.0
C1800 C 0.42776 0.42253 0.20705 0.0
C1801 C 0.43862 0.43096 0.1736 0.0
C1802 C 0.45535 0.43087 0.18084 0.0
C1803 C 0.46553 0.43875 0.14904 0.0
C1804 C 0.45911 0.44694 0.11016 0.0
C1805 C 0.44248 0.44729 0.1031 0.0
C1806 C 0.43224 0.43938 0.13475 0.0
C1807 C 0.40202 0.4555 0.36733 0.0
C1808 C 0.38855 0.46404 0.35099 0.0
C1809 C 0.40739 0.44185 0.34325 0.0
C1810 C 0.39956 0.43673 0.30195 0.0
C1811 C 0.38552 0.44463 0.28719 0.0
C1812 C 0.37988 0.45806 0.31205 0.0
C1813 C 0.40786 0.42533 0.27005 0.0
C1814 C 0.41685 0.4319 0.23287 0.0
C1815 C 0.4091 0.40876 0.28019 0.0
C1816 C 0.4 0.40136 0.31979 0.0
C1817 C 0.38323 0.40317 0.3229 0.0
C1818 C 0.37474 0.39626 0.36049 0.0
C1819 C 0.38288 0.38745 0.39511 0.0
C1820 C 0.39954 0.38549 0.39214 0.0
C1821 C 0.40809 0.39238 0.35463 0.0
H1822 H 0.37629 0.38211 0.42418 0.0
H1823 H 0.46702 0.45304 0.08558 0.0
loop_
_geom_bond_atom_site_label_1
_geom_bond_atom_site_label_2
_geom_bond_distance
_geom_bond_site_symmetry_2
_ccdc_geom_bond_type
O0 Cd1 2.223 . S
O0 C8 1.315 . S
Cd1 O0 2.223 . S
Cd1 O4 2.297 . S
Cd1 O5 2.439 . S
Cd1 O11 2.240 . S
Cd2 O3 2.240 . S
Cd2 O10 2.223 . S
Cd2 O12 2.297 1_455 S
Cd2 O13 2.439 1_455 S
O3 Cd2 2.240 . S
O3 C8 1.279 . S
O4 Cd1 2.297 . S
O4 C6 1.247 . S
O5 Cd1 2.439 . S
O5 C6 1.208 . S
C6 O4 1.247 . S
C6 O5 1.208 . S
C7 O12 1.247 . S
C7 O13 1.208 . S
C8 O0 1.315 . S
C8 O3 1.279 . S
C9 O10 1.315 . S
C9 O11 1.279 . S
O10 Cd2 2.223 . S
O10 C9 1.315 . S
O11 Cd1 2.240 . S
O11 C9 1.279 . S
O12 Cd2 2.297 1_655 S
O12 C7 1.247 . S
O13 Cd2 2.439 1_655 S
O13 C7 1.208 . S
O14 Cd15 2.223 . S
O14 C22 1.315 . S
Cd15 O14 2.223 . S
Cd15 O18 2.297 . S
Cd15 O19 2.439 . S
Cd15 O25 2.240 . S
Cd16 O17 2.240 . S
Cd16 O24 2.223 . S
Cd16 O26 2.297 1_545 S
Cd16 O27 2.439 1_545 S
O17 Cd16 2.240 . S
O17 C22 1.279 . S
O18 Cd15 2.297 . S
O18 C20 1.247 . S
O19 Cd15 2.439 . S
O19 C20 1.208 . S
C20 O18 1.247 . S
C20 O19 1.208 . S
C21 O26 1.247 . S
C21 O27 1.208 . S
C22 O14 1.315 . S
C22 O17 1.279 . S
C23 O24 1.315 . S
C23 O25 1.279 . S
O24 Cd16 2.223 . S
O24 C23 1.315 . S
O25 Cd15 2.240 . S
O25 C23 1.279 . S
O26 Cd16 2.297 1_565 S
O26 C21 1.247 . S
O27 Cd16 2.439 1_565 S
O27 C21 1.208 . S
O28 Cd29 2.223 . S
O28 C36 1.315 . S
Cd29 O28 2.223 . S
Cd29 O32 2.297 . S
Cd29 O33 2.439 . S
Cd29 O39 2.240 . S
Cd30 O31 2.240 . S
Cd30 O38 2.223 . S
Cd30 O40 2.297 . S
Cd30 O41 2.439 . S
O31 Cd30 2.240 . S
O31 C36 1.279 . S
O32 Cd29 2.297 . S
O32 C34 1.247 . S
O33 Cd29 2.439 . S
O33 C34 1.208 . S
C34 O32 1.247 . S
C34 O33 1.208 . S
C35 O40 1.247 . S
C35 O41 1.208 . S
C36 O28 1.315 . S
C36 O31 1.279 . S
C37 O38 1.315 . S
C37 O39 1.279 . S
O38 Cd30 2.223 . S
O38 C37 1.315 . S
O39 Cd29 2.240 . S
O39 C37 1.279 . S
O40 Cd30 2.297 . S
O40 C35 1.247 . S
O41 Cd30 2.439 . S
O41 C35 1.208 . S
O42 Cd43 2.223 . S
O42 C50 1.315 . S
Cd43 O42 2.223 . S
Cd43 O46 2.297 . S
Cd43 O47 2.439 . S
Cd43 O53 2.240 . S
Cd44 O45 2.240 . S
Cd44 O52 2.223 . S
Cd44 O54 2.297 . S
Cd44 O55 2.439 . S
O45 Cd44 2.240 . S
O45 C50 1.279 . S
O46 Cd43 2.297 . S
O46 C48 1.247 . S
O47 Cd43 2.439 . S
O47 C48 1.208 . S
C48 O46 1.247 . S
C48 O47 1.208 . S
C49 O54 1.247 . S
C49 O55 1.208 . S
C50 O42 1.315 . S
C50 O45 1.279 . S
C51 O52 1.315 . S
C51 O53 1.279 . S
O52 Cd44 2.223 . S
O52 C51 1.315 . S
O53 Cd43 2.240 . S
O53 C51 1.279 . S
O54 Cd44 2.297 . S
O54 C49 1.247 . S
O55 Cd44 2.439 . S
O55 C49 1.208 . S
O56 Cd57 2.223 . S
O56 C64 1.315 . S
Cd57 O56 2.223 . S
Cd57 O60 2.297 . S
Cd57 O61 2.439 . S
Cd57 O67 2.240 . S
Cd58 O59 2.240 . S
Cd58 O66 2.223 . S
Cd58 O68 2.297 1_455 S
Cd58 O69 2.439 1_455 S
O59 Cd58 2.240 . S
O59 C64 1.279 . S
O60 Cd57 2.297 . S
O60 C62 1.247 . S
O61 Cd57 2.439 . S
O61 C62 1.208 . S
C62 O60 1.247 . S
C62 O61 1.208 . S
C63 O68 1.247 . S
C63 O69 1.208 . S
C64 O56 1.315 . S
C64 O59 1.279 . S
C65 O66 1.315 . S
C65 O67 1.279 . S
O66 Cd58 2.223 . S
O66 C65 1.315 . S
O67 Cd57 2.240 . S
O67 C65 1.279 . S
O68 Cd58 2.297 1_655 S
O68 C63 1.247 . S
O69 Cd58 2.439 1_655 S
O69 C63 1.208 . S
O70 Cd71 2.223 . S
O70 C78 1.315 . S
Cd71 O70 2.223 . S
Cd71 O74 2.297 . S
Cd71 O75 2.439 . S
Cd71 O81 2.240 . S
Cd72 O73 2.240 . S
Cd72 O80 2.223 . S
Cd72 O82 2.297 1_545 S
Cd72 O83 2.439 1_545 S
O73 Cd72 2.240 . S
O73 C78 1.279 . S
O74 Cd71 2.297 . S
O74 C76 1.247 . S
O75 Cd71 2.439 . S
O75 C76 1.208 . S
C76 O74 1.247 . S
C76 O75 1.208 . S
C77 O82 1.247 . S
C77 O83 1.208 . S
C78 O70 1.315 . S
C78 O73 1.279 . S
C79 O80 1.315 . S
C79 O81 1.279 . S
O80 Cd72 2.223 . S
O80 C79 1.315 . S
O81 Cd71 2.240 . S
O81 C79 1.279 . S
O82 Cd72 2.297 1_565 S
O82 C77 1.247 . S
O83 Cd72 2.439 1_565 S
O83 C77 1.208 . S
O84 Cd85 2.223 . S
O84 C92 1.315 . S
Cd85 O84 2.223 . S
Cd85 O88 2.297 . S
Cd85 O89 2.439 . S
Cd85 O95 2.240 . S
Cd86 O87 2.240 . S
Cd86 O94 2.223 . S
Cd86 O96 2.297 . S
Cd86 O97 2.439 . S
O87 Cd86 2.240 . S
O87 C92 1.279 . S
O88 Cd85 2.297 . S
O88 C90 1.247 . S
O89 Cd85 2.439 . S
O89 C90 1.208 . S
C90 O88 1.247 . S
C90 O89 1.208 . S
C91 O96 1.247 . S
C91 O97 1.208 . S
C92 O84 1.315 . S
C92 O87 1.279 . S
C93 O94 1.315 . S
C93 O95 1.279 . S
O94 Cd86 2.223 . S
O94 C93 1.315 . S
O95 Cd85 2.240 . S
O95 C93 1.279 . S
O96 Cd86 2.297 . S
O96 C91 1.247 . S
O97 Cd86 2.439 . S
O97 C91 1.208 . S
O98 Cd99 2.223 . S
O98 C106 1.315 . S
Cd99 O98 2.223 . S
Cd99 O102 2.297 . S
Cd99 O103 2.439 . S
Cd99 O109 2.240 . S
Cd100 O101 2.240 . S
Cd100 O108 2.223 . S
Cd100 O110 2.297 . S
Cd100 O111 2.439 . S
O101 Cd100 2.240 . S
O101 C106 1.279 . S
O102 Cd99 2.297 . S
O102 C104 1.247 . S
O103 Cd99 2.439 . S
O103 C104 1.208 . S
C104 O102 1.247 . S
C104 O103 1.208 . S
C105 O110 1.247 . S
C105 O111 1.208 . S
C106 O98 1.315 . S
C106 O101 1.279 . S
C107 O108 1.315 . S
C107 O109 1.279 . S
O108 Cd100 2.223 . S
O108 C107 1.315 . S
O109 Cd99 2.240 . S
O109 C107 1.279 . S
O110 Cd100 2.297 . S
O110 C105 1.247 . S
O111 Cd100 2.439 . S
O111 C105 1.208 . S
O112 Cd113 2.223 . S
O112 C120 1.315 . S
Cd113 O112 2.223 . S
Cd113 O116 2.297 . S
Cd113 O117 2.439 . S
Cd113 O123 2.240 . S
Cd114 O115 2.240 . S
Cd114 O122 2.223 . S
Cd114 O124 2.297 1_655 S
Cd114 O125 2.439 1_655 S
O115 Cd114 2.240 . S
O115 C120 1.279 . S
O116 Cd113 2.297 . S
O116 C118 1.247 . S
O117 Cd113 2.439 . S
O117 C118 1.208 . S
C118 O116 1.247 . S
C118 O117 1.208 . S
C119 O124 1.247 . S
C119 O125 1.208 . S
C120 O112 1.315 . S
C120 O115 1.279 . S
C121 O122 1.315 . S
C121 O123 1.279 . S
O122 Cd114 2.223 . S
O122 C121 1.315 . S
O123 Cd113 2.240 . S
O123 C121 1.279 . S
O124 Cd114 2.297 1_455 S
O124 C119 1.247 . S
O125 Cd114 2.439 1_455 S
O125 C119 1.208 . S
O126 Cd127 2.223 . S
O126 C134 1.315 . S
Cd127 O126 2.223 . S
Cd127 O130 2.297 . S
Cd127 O131 2.439 . S
Cd127 O137 2.240 . S
Cd128 O129 2.240 . S
Cd128 O136 2.223 . S
Cd128 O138 2.297 1_565 S
Cd128 O139 2.439 1_565 S
O129 Cd128 2.240 . S
O129 C134 1.279 . S
O130 Cd127 2.297 . S
O130 C132 1.247 . S
O131 Cd127 2.439 . S
O131 C132 1.208 . S
C132 O130 1.247 . S
C132 O131 1.208 . S
C133 O138 1.247 . S
C133 O139 1.208 . S
C134 O126 1.315 . S
C134 O129 1.279 . S
C135 O136 1.315 . S
C135 O137 1.279 . S
O136 Cd128 2.223 . S
O136 C135 1.315 . S
O137 Cd127 2.240 . S
O137 C135 1.279 . S
O138 Cd128 2.297 1_545 S
O138 C133 1.247 . S
O139 Cd128 2.439 1_545 S
O139 C133 1.208 . S
O140 Cd141 2.223 . S
O140 C148 1.315 . S
Cd141 O140 2.223 . S
Cd141 O144 2.297 . S
Cd141 O145 2.439 . S
Cd141 O151 2.240 . S
Cd142 O143 2.240 . S
Cd142 O150 2.223 . S
Cd142 O152 2.297 . S
Cd142 O153 2.439 . S
O143 Cd142 2.240 . S
O143 C148 1.279 . S
O144 Cd141 2.297 . S
O144 C146 1.247 . S
O145 Cd141 2.439 . S
O145 C146 1.208 . S
C146 O144 1.247 . S
C146 O145 1.208 . S
C147 O152 1.247 . S
C147 O153 1.208 . S
C148 O140 1.315 . S
C148 O143 1.279 . S
C149 O150 1.315 . S
C149 O151 1.279 . S
O150 Cd142 2.223 . S
O150 C149 1.315 . S
O151 Cd141 2.240 . S
O151 C149 1.279 . S
O152 Cd142 2.297 . S
O152 C147 1.247 . S
O153 Cd142 2.439 . S
O153 C147 1.208 . S
O154 Cd155 2.223 . S
O154 C162 1.315 . S
Cd155 O154 2.223 . S
Cd155 O158 2.297 . S
Cd155 O159 2.439 . S
Cd155 O165 2.240 . S
Cd156 O157 2.240 . S
Cd156 O164 2.223 . S
Cd156 O166 2.297 . S
Cd156 O167 2.439 . S
O157 Cd156 2.240 . S
O157 C162 1.279 . S
O158 Cd155 2.297 . S
O158 C160 1.247 . S
O159 Cd155 2.439 . S
O159 C160 1.208 . S
C160 O158 1.247 . S
C160 O159 1.208 . S
C161 O166 1.247 . S
C161 O167 1.208 . S
C162 O154 1.315 . S
C162 O157 1.279 . S
C163 O164 1.315 . S
C163 O165 1.279 . S
O164 Cd156 2.223 . S
O164 C163 1.315 . S
O165 Cd155 2.240 . S
O165 C163 1.279 . S
O166 Cd156 2.297 . S
O166 C161 1.247 . S
O167 Cd156 2.439 . S
O167 C161 1.208 . S
O168 Cd169 2.223 . S
O168 C176 1.315 . S
Cd169 O168 2.223 . S
Cd169 O172 2.297 . S
Cd169 O173 2.439 . S
Cd169 O179 2.240 . S
Cd170 O171 2.240 . S
Cd170 O178 2.223 . S
Cd170 O180 2.297 1_655 S
Cd170 O181 2.439 1_655 S
O171 Cd170 2.240 . S
O171 C176 1.279 . S
O172 Cd169 2.297 . S
O172 C174 1.247 . S
O173 Cd169 2.439 . S
O173 C174 1.208 . S
C174 O172 1.247 . S
C174 O173 1.208 . S
C175 O180 1.247 . S
C175 O181 1.208 . S
C176 O168 1.315 . S
C176 O171 1.279 . S
C177 O178 1.315 . S
C177 O179 1.279 . S
O178 Cd170 2.223 . S
O178 C177 1.315 . S
O179 Cd169 2.240 . S
O179 C177 1.279 . S
O180 Cd170 2.297 1_455 S
O180 C175 1.247 . S
O181 Cd170 2.439 1_455 S
O181 C175 1.208 . S
O182 Cd183 2.223 . S
O182 C190 1.315 . S
Cd183 O182 2.223 . S
Cd183 O186 2.297 . S
Cd183 O187 2.439 . S
Cd183 O193 2.240 . S
Cd184 O185 2.240 . S
Cd184 O192 2.223 . S
Cd184 O194 2.297 1_565 S
Cd184 O195 2.439 1_565 S
O185 Cd184 2.240 . S
O185 C190 1.279 . S
O186 Cd183 2.297 . S
O186 C188 1.247 . S
O187 Cd183 2.439 . S
O187 C188 1.208 . S
C188 O186 1.247 . S
C188 O187 1.208 . S
C189 O194 1.247 . S
C189 O195 1.208 . S
C190 O182 1.315 . S
C190 O185 1.279 . S
C191 O192 1.315 . S
C191 O193 1.279 . S
O192 Cd184 2.223 . S
O192 C191 1.315 . S
O193 Cd183 2.240 . S
O193 C191 1.279 . S
O194 Cd184 2.297 1_545 S
O194 C189 1.247 . S
O195 Cd184 2.439 1_545 S
O195 C189 1.208 . S
O196 Cd197 2.223 . S
O196 C204 1.315 . S
Cd197 O196 2.223 . S
Cd197 O200 2.297 . S
Cd197 O201 2.439 . S
Cd197 O207 2.240 . S
Cd198 O199 2.240 . S
Cd198 O206 2.223 . S
Cd198 O208 2.297 . S
Cd198 O209 2.439 . S
O199 Cd198 2.240 . S
O199 C204 1.279 . S
O200 Cd197 2.297 . S
O200 C202 1.247 . S
O201 Cd197 2.439 . S
O201 C202 1.208 . S
C202 O200 1.247 . S
C202 O201 1.208 . S
C203 O208 1.247 . S
C203 O209 1.208 . S
C204 O196 1.315 . S
C204 O199 1.279 . S
C205 O206 1.315 . S
C205 O207 1.279 . S
O206 Cd198 2.223 . S
O206 C205 1.315 . S
O207 Cd197 2.240 . S
O207 C205 1.279 . S
O208 Cd198 2.297 . S
O208 C203 1.247 . S
O209 Cd198 2.439 . S
O209 C203 1.208 . S
O210 Cd211 2.223 . S
O210 C218 1.315 . S
Cd211 O210 2.223 . S
Cd211 O214 2.297 . S
Cd211 O215 2.439 . S
Cd211 O221 2.240 . S
Cd212 O213 2.240 . S
Cd212 O220 2.223 . S
Cd212 O222 2.297 . S
Cd212 O223 2.439 . S
O213 Cd212 2.240 . S
O213 C218 1.279 . S
O214 Cd211 2.297 . S
O214 C216 1.247 . S
O215 Cd211 2.439 . S
O215 C216 1.208 . S
C216 O214 1.247 . S
C216 O215 1.208 . S
C217 O222 1.247 . S
C217 O223 1.208 . S
C218 O210 1.315 . S
C218 O213 1.279 . S
C219 O220 1.315 . S
C219 O221 1.279 . S
O220 Cd212 2.223 . S
O220 C219 1.315 . S
O221 Cd211 2.240 . S
O221 C219 1.279 . S
O222 Cd212 2.297 . S
O222 C217 1.247 . S
O223 Cd212 2.439 . S
O223 C217 1.208 . S
H224 C242 0.951 . S
H225 C244 0.951 . S
H226 C246 0.950 1_655 S
H227 C247 0.950 1_655 S
H228 C249 0.950 . S
H229 C252 0.950 . S
H230 C253 0.950 . S
H231 C255 0.950 . S
H232 C256 0.950 . S
H233 C257 0.951 1_655 S
H234 C259 0.951 1_655 S
H235 C261 0.950 . S
H236 C262 0.950 . S
H237 C264 0.950 . S
H238 C267 0.950 . S
H239 C268 0.950 . S
H240 C270 0.950 . S
H241 C271 0.950 . S
C242 H224 0.951 . S
C242 C243 1.366 . S
C242 C244 1.388 . S
C243 C242 1.366 . S
C243 C247 1.385 . S
C244 H225 0.951 . S
C244 C242 1.388 . S
C244 C245 1.366 . S
C245 C244 1.366 . S
C245 C246 1.414 . S
C245 C248 1.499 . S
C246 H226 0.950 1_455 S
C246 C245 1.414 . S
C246 C247 1.374 . S
C247 H227 0.950 1_455 S
C247 C243 1.385 . S
C247 C246 1.374 . S
C248 C245 1.499 . S
C248 C249 1.373 1_554 S
C248 C250 1.389 . S
C249 H228 0.950 . S
C249 C248 1.373 1_556 S
C249 C265 1.377 . S
C250 C248 1.389 . S
C250 C251 1.524 . S
C250 C264 1.377 . S
C251 C250 1.524 . S
C251 C252 1.397 . S
C251 C256 1.363 . S
C252 H229 0.950 . S
C252 C251 1.397 . S
C252 C253 1.334 . S
C253 H230 0.950 . S
C253 C252 1.334 . S
C253 C254 1.287 . S
C254 C253 1.287 . S
C254 C255 1.524 . S
C254 H273 0.913 . S
C255 H231 0.950 . S
C255 C254 1.524 . S
C255 C256 1.415 . S
C256 H232 0.950 . S
C256 C251 1.363 . S
C256 C255 1.415 . S
C257 H233 0.951 1_455 S
C257 C258 1.366 . S
C257 C259 1.388 . S
C258 C257 1.366 . S
C258 C262 1.385 . S
C259 H234 0.951 1_455 S
C259 C257 1.388 . S
C259 C260 1.366 . S
C260 C259 1.366 . S
C260 C261 1.414 . S
C260 C263 1.499 . S
C261 H235 0.950 . S
C261 C260 1.414 . S
C261 C262 1.374 . S
C262 H236 0.950 . S
C262 C258 1.385 . S
C262 C261 1.374 . S
C263 C260 1.499 . S
C263 C264 1.373 1_556 S
C263 C265 1.389 . S
C264 H237 0.950 . S
C264 C250 1.377 . S
C264 C263 1.373 1_554 S
C265 C249 1.377 . S
C265 C263 1.389 . S
C265 C266 1.524 . S
C266 C265 1.524 . S
C266 C267 1.397 . S
C266 C271 1.363 1_455 S
C267 H238 0.950 . S
C267 C266 1.397 . S
C267 C268 1.334 . S
C268 H239 0.950 . S
C268 C267 1.334 . S
C268 C269 1.287 . S
C269 C268 1.287 . S
C269 C270 1.524 1_455 S
C269 H272 0.999 . S
C270 H240 0.950 . S
C270 C269 1.524 1_655 S
C270 C271 1.415 . S
C271 H241 0.950 . S
C271 C266 1.363 1_655 S
C271 C270 1.415 . S
H272 C269 0.999 . S
H273 C254 0.913 . S
H274 C292 0.951 . S
H275 C294 0.951 . S
H276 C296 0.950 . S
H277 C297 0.950 . S
H278 C299 0.950 1_565 S
H279 C302 0.950 . S
H280 C303 0.950 . S
H281 C305 0.950 . S
H282 C306 0.950 . S
H283 C307 0.951 . S
H284 C309 0.951 . S
H285 C311 0.950 . S
H286 C312 0.950 . S
H287 C314 0.950 . S
H288 C317 0.950 . S
H289 C318 0.950 . S
H290 C320 0.950 . S
H291 C321 0.950 . S
C292 H274 0.951 . S
C292 C293 1.366 . S
C292 C294 1.388 . S
C293 C292 1.366 . S
C293 C297 1.385 . S
C294 H275 0.951 . S
C294 C292 1.388 . S
C294 C295 1.366 . S
C295 C294 1.366 . S
C295 C296 1.414 . S
C295 C298 1.499 . S
C296 H276 0.950 . S
C296 C295 1.414 . S
C296 C297 1.374 . S
C297 H277 0.950 . S
C297 C293 1.385 . S
C297 C296 1.374 . S
C298 C295 1.499 . S
C298 C299 1.373 . S
C298 C300 1.389 . S
C299 H278 0.950 1_545 S
C299 C298 1.373 . S
C299 C315 1.377 . S
C300 C298 1.389 . S
C300 C301 1.524 . S
C300 C314 1.377 . S
C301 C300 1.524 . S
C301 C302 1.397 . S
C301 C306 1.363 . S
C302 H279 0.950 . S
C302 C301 1.397 . S
C302 C303 1.334 . S
C303 H280 0.950 . S
C303 C302 1.334 . S
C303 C304 1.287 . S
C304 C303 1.287 . S
C304 C305 1.524 . S
C304 H323 0.913 . S
C305 H281 0.950 . S
C305 C304 1.524 . S
C305 C306 1.415 . S
C306 H282 0.950 . S
C306 C301 1.363 . S
C306 C305 1.415 . S
C307 H283 0.951 . S
C307 C308 1.366 . S
C307 C309 1.388 . S
C308 C307 1.366 . S
C308 C312 1.385 . S
C309 H284 0.951 . S
C309 C307 1.388 . S
C309 C310 1.366 . S
C310 C309 1.366 . S
C310 C311 1.414 . S
C310 C313 1.499 . S
C311 H285 0.950 . S
C311 C310 1.414 . S
C311 C312 1.374 . S
C312 H286 0.950 . S
C312 C308 1.385 . S
C312 C311 1.374 . S
C313 C310 1.499 . S
C313 C314 1.373 . S
C313 C315 1.389 . S
C314 H287 0.950 . S
C314 C300 1.377 . S
C314 C313 1.373 . S
C315 C299 1.377 . S
C315 C313 1.389 . S
C315 C316 1.524 1_545 S
C316 C315 1.524 1_565 S
C316 C317 1.397 . S
C316 C321 1.363 . S
C317 H288 0.950 . S
C317 C316 1.397 . S
C317 C318 1.334 . S
C318 H289 0.950 . S
C318 C317 1.334 . S
C318 C319 1.287 . S
C319 C318 1.287 . S
C319 C320 1.524 . S
C319 H322 0.999 . S
C320 H290 0.950 . S
C320 C319 1.524 . S
C320 C321 1.415 . S
C321 H291 0.950 . S
C321 C316 1.363 . S
C321 C320 1.415 . S
H322 C319 0.999 . S
H323 C304 0.913 . S
H324 C342 0.951 . S
H325 C344 0.951 . S
H326 C346 0.950 . S
H327 C347 0.950 . S
H328 C349 0.950 . S
H329 C352 0.950 . S
H330 C353 0.950 . S
H331 C355 0.950 . S
H332 C356 0.950 . S
H333 C357 0.951 . S
H334 C359 0.951 . S
H335 C361 0.950 . S
H336 C362 0.950 . S
H337 C364 0.950 . S
H338 C367 0.950 . S
H339 C368 0.950 . S
H340 C370 0.950 . S
H341 C371 0.950 . S
C342 H324 0.951 . S
C342 C343 1.366 . S
C342 C344 1.388 . S
C343 C342 1.366 . S
C343 C347 1.385 . S
C344 H325 0.951 . S
C344 C342 1.388 . S
C344 C345 1.366 . S
C345 C344 1.366 . S
C345 C346 1.414 . S
C345 C348 1.499 . S
C346 H326 0.950 . S
C346 C345 1.414 . S
C346 C347 1.374 . S
C347 H327 0.950 . S
C347 C343 1.385 . S
C347 C346 1.374 . S
C348 C345 1.499 . S
C348 C349 1.373 1_554 S
C348 C350 1.389 . S
C349 H328 0.950 . S
C349 C348 1.373 1_556 S
C349 C365 1.377 . S
C350 C348 1.389 . S
C350 C351 1.524 . S
C350 C364 1.377 . S
C351 C350 1.524 . S
C351 C352 1.397 . S
C351 C356 1.363 . S
C352 H329 0.950 . S
C352 C351 1.397 . S
C352 C353 1.334 . S
C353 H330 0.950 . S
C353 C352 1.334 . S
C353 C354 1.287 . S
C354 C353 1.287 . S
C354 C355 1.524 . S
C354 H373 0.913 . S
C355 H331 0.950 . S
C355 C354 1.524 . S
C355 C356 1.415 . S
C356 H332 0.950 . S
C356 C351 1.363 . S
C356 C355 1.415 . S
C357 H333 0.951 . S
C357 C358 1.366 . S
C357 C359 1.388 . S
C358 C357 1.366 . S
C358 C362 1.385 . S
C359 H334 0.951 . S
C359 C357 1.388 . S
C359 C360 1.366 . S
C360 C359 1.366 . S
C360 C361 1.414 . S
C360 C363 1.499 . S
C361 H335 0.950 . S
C361 C360 1.414 . S
C361 C362 1.374 . S
C362 H336 0.950 . S
C362 C358 1.385 . S
C362 C361 1.374 . S
C363 C360 1.499 . S
C363 C364 1.373 1_556 S
C363 C365 1.389 . S
C364 H337 0.950 . S
C364 C350 1.377 . S
C364 C363 1.373 1_554 S
C365 C349 1.377 . S
C365 C363 1.389 . S
C365 C366 1.524 . S
C366 C365 1.524 . S
C366 C367 1.397 . S
C366 C371 1.363 . S
C367 H338 0.950 . S
C367 C366 1.397 . S
C367 C368 1.334 . S
C368 H339 0.950 . S
C368 C367 1.334 . S
C368 C369 1.287 . S
C369 C368 1.287 . S
C369 C370 1.524 . S
C369 H372 0.999 . S
C370 H340 0.950 . S
C370 C369 1.524 . S
C370 C371 1.415 . S
C371 H341 0.950 . S
C371 C366 1.363 . S
C371 C370 1.415 . S
H372 C369 0.999 . S
H373 C354 0.913 . S
H374 C392 0.951 . S
H375 C394 0.951 . S
H376 C396 0.950 . S
H377 C397 0.950 . S
H378 C399 0.950 . S
H379 C402 0.950 . S
H380 C403 0.950 . S
H381 C405 0.950 . S
H382 C406 0.950 . S
H383 C407 0.951 . S
H384 C409 0.951 . S
H385 C411 0.950 . S
H386 C412 0.950 . S
H387 C414 0.950 . S
H388 C417 0.950 . S
H389 C418 0.950 . S
H390 C420 0.950 . S
H391 C421 0.950 . S
C392 H374 0.951 . S
C392 C393 1.366 . S
C392 C394 1.388 . S
C393 C392 1.366 . S
C393 C397 1.385 . S
C394 H375 0.951 . S
C394 C392 1.388 . S
C394 C395 1.366 . S
C395 C394 1.366 . S
C395 C396 1.414 . S
C395 C398 1.499 . S
C396 H376 0.950 . S
C396 C395 1.414 . S
C396 C397 1.374 . S
C397 H377 0.950 . S
C397 C393 1.385 . S
C397 C396 1.374 . S
C398 C395 1.499 . S
C398 C399 1.373 . S
C398 C400 1.389 . S
C399 H378 0.950 . S
C399 C398 1.373 . S
C399 C415 1.377 . S
C400 C398 1.389 . S
C400 C401 1.524 . S
C400 C414 1.377 . S
C401 C400 1.524 . S
C401 C402 1.397 . S
C401 C406 1.363 . S
C402 H379 0.950 . S
C402 C401 1.397 . S
C402 C403 1.334 . S
C403 H380 0.950 . S
C403 C402 1.334 . S
C403 C404 1.287 . S
C404 C403 1.287 . S
C404 C405 1.524 . S
C404 H423 0.913 . S
C405 H381 0.950 . S
C405 C404 1.524 . S
C405 C406 1.415 . S
C406 H382 0.950 . S
C406 C401 1.363 . S
C406 C405 1.415 . S
C407 H383 0.951 . S
C407 C408 1.366 . S
C407 C409 1.388 . S
C408 C407 1.366 . S
C408 C412 1.385 . S
C409 H384 0.951 . S
C409 C407 1.388 . S
C409 C410 1.366 . S
C410 C409 1.366 . S
C410 C411 1.414 . S
C410 C413 1.499 . S
C411 H385 0.950 . S
C411 C410 1.414 . S
C411 C412 1.374 . S
C412 H386 0.950 . S
C412 C408 1.385 . S
C412 C411 1.374 . S
C413 C410 1.499 . S
C413 C414 1.373 . S
C413 C415 1.389 . S
C414 H387 0.950 . S
C414 C400 1.377 . S
C414 C413 1.373 . S
C415 C399 1.377 . S
C415 C413 1.389 . S
C415 C416 1.524 . S
C416 C415 1.524 . S
C416 C417 1.397 . S
C416 C421 1.363 . S
C417 H388 0.950 . S
C417 C416 1.397 . S
C417 C418 1.334 . S
C418 H389 0.950 . S
C418 C417 1.334 . S
C418 C419 1.287 . S
C419 C418 1.287 . S
C419 C420 1.524 . S
C419 H422 0.999 . S
C420 H390 0.950 . S
C420 C419 1.524 . S
C420 C421 1.415 . S
C421 H391 0.950 . S
C421 C416 1.363 . S
C421 C420 1.415 . S
H422 C419 0.999 . S
H423 C404 0.913 . S
H424 C442 0.951 . S
H425 C444 0.951 1_554 S
H426 C446 0.913 1_455 S
H427 C447 0.926 1_455 S
H428 C449 0.950 . S
H429 C452 0.953 . S
H430 C453 0.950 . S
H431 C455 0.950 . S
H432 C456 0.950 . S
H433 C457 0.940 1_455 S
H434 C459 0.953 1_556 S
H435 C461 0.950 . S
H436 C462 0.950 . S
H437 C464 0.950 . S
H438 C467 0.950 . S
H439 C468 0.950 . S
H440 C470 0.950 . S
H441 C471 0.950 . S
C442 H424 0.951 . S
C442 C443 1.366 . S
C442 C444 1.388 . S
C443 C442 1.366 . S
C443 C447 1.385 . S
C444 H425 0.951 1_556 S
C444 C442 1.388 . S
C444 C445 1.366 . S
C445 C444 1.366 . S
C445 C446 1.414 . S
C445 C448 1.499 . S
C446 H426 0.913 1_655 S
C446 C445 1.414 . S
C446 C447 1.374 . S
C447 H427 0.926 1_655 S
C447 C443 1.385 . S
C447 C446 1.374 . S
C448 C445 1.499 . S
C448 C449 1.373 . S
C448 C450 1.389 1_556 S
C449 H428 0.950 . S
C449 C448 1.373 . S
C449 C465 1.377 . S
C450 C448 1.389 1_554 S
C450 C451 1.524 . S
C450 C464 1.377 . S
C451 C450 1.524 . S
C451 C452 1.392 1_655 S
C451 C456 1.363 . S
C452 H429 0.953 . S
C452 C451 1.392 1_455 S
C452 C453 1.336 . S
C453 H430 0.950 . S
C453 C452 1.336 . S
C453 C454 1.287 1_455 S
C454 C453 1.287 1_655 S
C454 C455 1.524 . S
C454 H473 0.913 . S
C455 H431 0.950 . S
C455 C454 1.524 . S
C455 C456 1.415 . S
C456 H432 0.950 . S
C456 C451 1.363 . S
C456 C455 1.415 . S
C457 H433 0.940 1_655 S
C457 C458 1.366 . S
C457 C459 1.388 . S
C458 C457 1.366 . S
C458 C462 1.385 . S
C459 H434 0.953 1_554 S
C459 C457 1.388 . S
C459 C460 1.366 . S
C460 C459 1.366 . S
C460 C461 1.414 . S
C460 C463 1.499 . S
C461 H435 0.950 . S
C461 C460 1.414 . S
C461 C462 1.374 . S
C462 H436 0.950 . S
C462 C458 1.385 . S
C462 C461 1.374 . S
C463 C460 1.499 . S
C463 C464 1.373 . S
C463 C465 1.389 1_554 S
C464 H437 0.950 . S
C464 C450 1.377 . S
C464 C463 1.373 . S
C465 C449 1.377 . S
C465 C463 1.389 1_556 S
C465 C466 1.524 . S
C466 C465 1.524 . S
C466 C467 1.397 . S
C466 C471 1.363 . S
C467 H438 0.950 . S
C467 C466 1.397 . S
C467 C468 1.334 . S
C468 H439 0.950 . S
C468 C467 1.334 . S
C468 C469 1.287 . S
C469 C468 1.287 . S
C469 C470 1.524 . S
C469 H472 0.999 . S
C470 H440 0.950 . S
C470 C469 1.524 . S
C470 C471 1.415 . S
C471 H441 0.950 . S
C471 C466 1.363 . S
C471 C470 1.415 . S
H472 C469 0.999 . S
H473 C454 0.913 . S
H474 C492 0.951 . S
H475 C494 0.951 . S
H476 C496 0.950 . S
H477 C497 0.950 . S
H478 C499 0.950 . S
H479 C502 0.950 . S
H480 C503 0.950 . S
H481 C505 0.950 . S
H482 C506 0.904 1_565 S
H483 C507 0.951 . S
H484 C509 0.951 . S
H485 C511 0.950 . S
H486 C512 0.950 . S
H487 C514 0.950 . S
H488 C517 0.950 . S
H489 C518 0.950 . S
H490 C520 0.950 . S
H491 C521 0.950 . S
C492 H474 0.951 . S
C492 C493 1.366 . S
C492 C494 1.388 . S
C493 C492 1.366 . S
C493 C497 1.385 . S
C494 H475 0.951 . S
C494 C492 1.388 . S
C494 C495 1.366 . S
C495 C494 1.366 . S
C495 C496 1.414 . S
C495 C498 1.499 . S
C496 H476 0.950 . S
C496 C495 1.414 . S
C496 C497 1.374 . S
C497 H477 0.950 . S
C497 C493 1.385 . S
C497 C496 1.374 . S
C498 C495 1.499 . S
C498 C499 1.373 . S
C498 C500 1.389 . S
C499 H478 0.950 . S
C499 C498 1.373 . S
C499 C515 1.377 . S
C500 C498 1.389 . S
C500 C501 1.524 1_565 S
C500 C514 1.377 . S
C501 C500 1.524 1_545 S
C501 C502 1.397 . S
C501 C506 1.370 . S
C502 H479 0.950 . S
C502 C501 1.397 . S
C502 C503 1.334 . S
C503 H480 0.950 . S
C503 C502 1.334 . S
C503 C504 1.287 . S
C504 C503 1.287 . S
C504 C505 1.524 . S
C504 H523 0.913 . S
C505 H481 0.950 . S
C505 C504 1.524 . S
C505 C506 1.456 . S
C506 H482 0.904 1_545 S
C506 C501 1.370 . S
C506 C505 1.456 . S
C507 H483 0.951 . S
C507 C508 1.366 . S
C507 C509 1.388 . S
C508 C507 1.366 . S
C508 C512 1.385 . S
C509 H484 0.951 . S
C509 C507 1.388 . S
C509 C510 1.366 . S
C510 C509 1.366 . S
C510 C511 1.414 . S
C510 C513 1.499 . S
C511 H485 0.950 . S
C511 C510 1.414 . S
C511 C512 1.374 . S
C512 H486 0.950 . S
C512 C508 1.385 . S
C512 C511 1.374 . S
C513 C510 1.499 . S
C513 C514 1.373 . S
C513 C515 1.389 . S
C514 H487 0.950 . S
C514 C500 1.377 . S
C514 C513 1.373 . S
C515 C499 1.377 . S
C515 C513 1.389 . S
C515 C516 1.524 . S
C516 C515 1.524 . S
C516 C517 1.397 . S
C516 C521 1.363 . S
C517 H488 0.950 . S
C517 C516 1.397 . S
C517 C518 1.334 . S
C518 H489 0.950 . S
C518 C517 1.334 . S
C518 C519 1.287 . S
C519 C518 1.287 . S
C519 C520 1.524 . S
C519 H522 0.999 . S
C520 H490 0.950 . S
C520 C519 1.524 . S
C520 C521 1.415 . S
C521 H491 0.950 . S
C521 C516 1.363 . S
C521 C520 1.415 . S
H522 C519 0.999 . S
H523 C504 0.913 . S
H524 C542 0.951 . S
H525 C544 0.951 1_554 S
H526 C546 0.950 . S
H527 C547 0.950 . S
H528 C549 0.950 . S
H529 C552 0.950 . S
H530 C553 0.950 . S
H531 C555 0.950 . S
H532 C556 0.950 . S
H533 C557 0.951 . S
H534 C559 0.951 1_556 S
H535 C561 0.950 . S
H536 C562 0.950 . S
H537 C564 0.950 . S
H538 C567 0.950 . S
H539 C568 0.950 . S
H540 C570 0.950 . S
H541 C571 0.950 . S
C542 H524 0.951 . S
C542 C543 1.366 . S
C542 C544 1.388 . S
C543 C542 1.366 . S
C543 C547 1.385 . S
C544 H525 0.951 1_556 S
C544 C542 1.388 . S
C544 C545 1.366 . S
C545 C544 1.366 . S
C545 C546 1.414 . S
C545 C548 1.499 . S
C546 H526 0.950 . S
C546 C545 1.414 . S
C546 C547 1.374 . S
C547 H527 0.950 . S
C547 C543 1.385 . S
C547 C546 1.374 . S
C548 C545 1.499 . S
C548 C549 1.373 . S
C548 C550 1.389 1_556 S
C549 H528 0.950 . S
C549 C548 1.373 . S
C549 C565 1.377 . S
C550 C548 1.389 1_554 S
C550 C551 1.524 . S
C550 C564 1.377 . S
C551 C550 1.524 . S
C551 C552 1.397 . S
C551 C556 1.363 . S
C552 H529 0.950 . S
C552 C551 1.397 . S
C552 C553 1.334 . S
C553 H530 0.950 . S
C553 C552 1.334 . S
C553 C554 1.287 . S
C554 C553 1.287 . S
C554 C555 1.524 . S
C554 H573 0.913 . S
C555 H531 0.950 . S
C555 C554 1.524 . S
C555 C556 1.415 . S
C556 H532 0.950 . S
C556 C551 1.363 . S
C556 C555 1.415 . S
C557 H533 0.951 . S
C557 C558 1.366 . S
C557 C559 1.388 . S
C558 C557 1.366 . S
C558 C562 1.385 . S
C559 H534 0.951 1_554 S
C559 C557 1.388 . S
C559 C560 1.366 . S
C560 C559 1.366 . S
C560 C561 1.414 . S
C560 C563 1.499 . S
C561 H535 0.950 . S
C561 C560 1.414 . S
C561 C562 1.374 . S
C562 H536 0.950 . S
C562 C558 1.385 . S
C562 C561 1.374 . S
C563 C560 1.499 . S
C563 C564 1.373 . S
C563 C565 1.389 1_554 S
C564 H537 0.950 . S
C564 C550 1.377 . S
C564 C563 1.373 . S
C565 C549 1.377 . S
C565 C563 1.389 1_556 S
C565 C566 1.524 . S
C566 C565 1.524 . S
C566 C567 1.397 . S
C566 C571 1.363 . S
C567 H538 0.950 . S
C567 C566 1.397 . S
C567 C568 1.334 . S
C568 H539 0.950 . S
C568 C567 1.334 . S
C568 C569 1.287 . S
C569 C568 1.287 . S
C569 C570 1.524 . S
C569 H572 0.999 . S
C570 H540 0.950 . S
C570 C569 1.524 . S
C570 C571 1.415 . S
C571 H541 0.950 . S
C571 C566 1.363 . S
C571 C570 1.415 . S
H572 C569 0.999 . S
H573 C554 0.913 . S
H574 C592 0.951 . S
H575 C594 0.951 . S
H576 C596 0.950 . S
H577 C597 0.950 . S
H578 C599 0.950 . S
H579 C602 0.950 . S
H580 C603 0.950 . S
H581 C605 0.950 . S
H582 C606 0.950 . S
H583 C607 0.951 . S
H584 C609 0.951 . S
H585 C611 0.950 . S
H586 C612 0.950 . S
H587 C614 0.950 . S
H588 C617 0.950 . S
H589 C618 0.950 . S
H590 C620 0.950 . S
H591 C621 0.950 . S
C592 H574 0.951 . S
C592 C593 1.366 . S
C592 C594 1.388 . S
C593 C592 1.366 . S
C593 C597 1.385 . S
C594 H575 0.951 . S
C594 C592 1.388 . S
C594 C595 1.366 . S
C595 C594 1.366 . S
C595 C596 1.414 . S
C595 C598 1.499 . S
C596 H576 0.950 . S
C596 C595 1.414 . S
C596 C597 1.374 . S
C597 H577 0.950 . S
C597 C593 1.385 . S
C597 C596 1.374 . S
C598 C595 1.499 . S
C598 C599 1.373 . S
C598 C600 1.389 . S
C599 H578 0.950 . S
C599 C598 1.373 . S
C599 C615 1.377 . S
C600 C598 1.389 . S
C600 C601 1.524 . S
C600 C614 1.377 . S
C601 C600 1.524 . S
C601 C602 1.397 . S
C601 C606 1.363 . S
C602 H579 0.950 . S
C602 C601 1.397 . S
C602 C603 1.334 . S
C603 H580 0.950 . S
C603 C602 1.334 . S
C603 C604 1.287 . S
C604 C603 1.287 . S
C604 C605 1.524 . S
C604 H623 0.913 . S
C605 H581 0.950 . S
C605 C604 1.524 . S
C605 C606 1.415 . S
C606 H582 0.950 . S
C606 C601 1.363 . S
C606 C605 1.415 . S
C607 H583 0.951 . S
C607 C608 1.366 . S
C607 C609 1.388 . S
C608 C607 1.366 . S
C608 C612 1.385 . S
C609 H584 0.951 . S
C609 C607 1.388 . S
C609 C610 1.366 . S
C610 C609 1.366 . S
C610 C611 1.414 . S
C610 C613 1.499 . S
C611 H585 0.950 . S
C611 C610 1.414 . S
C611 C612 1.374 . S
C612 H586 0.950 . S
C612 C608 1.385 . S
C612 C611 1.374 . S
C613 C610 1.499 . S
C613 C614 1.373 . S
C613 C615 1.389 . S
C614 H587 0.950 . S
C614 C600 1.377 . S
C614 C613 1.373 . S
C615 C599 1.377 . S
C615 C613 1.389 . S
C615 C616 1.524 . S
C616 C615 1.524 . S
C616 C617 1.397 . S
C616 C621 1.363 . S
C617 H588 0.950 . S
C617 C616 1.397 . S
C617 C618 1.334 . S
C618 H589 0.950 . S
C618 C617 1.334 . S
C618 C619 1.287 . S
C619 C618 1.287 . S
C619 C620 1.524 . S
C619 H622 0.999 . S
C620 H590 0.950 . S
C620 C619 1.524 . S
C620 C621 1.415 . S
C621 H591 0.950 . S
C621 C616 1.363 . S
C621 C620 1.415 . S
H622 C619 0.999 . S
H623 C604 0.913 . S
H624 C642 0.951 . S
H625 C644 0.951 . S
H626 C646 0.950 . S
H627 C647 0.950 . S
H628 C649 0.950 . S
H629 C652 0.950 1_556 S
H630 C653 0.950 . S
H631 C655 0.950 . S
H632 C656 0.950 . S
H633 C657 0.951 . S
H634 C659 0.951 . S
H635 C661 0.950 . S
H636 C662 0.950 . S
H637 C664 0.950 . S
H638 C667 0.950 . S
H639 C668 0.950 . S
H640 C670 0.950 . S
H641 C671 0.950 . S
C642 H624 0.951 . S
C642 C643 1.366 . S
C642 C644 1.388 1_554 S
C643 C642 1.366 . S
C643 C647 1.385 1_554 S
C644 H625 0.951 . S
C644 C642 1.388 1_556 S
C644 C645 1.366 . S
C645 C644 1.366 . S
C645 C646 1.414 . S
C645 C648 1.499 . S
C646 H626 0.950 . S
C646 C645 1.414 . S
C646 C647 1.374 . S
C647 H627 0.950 . S
C647 C643 1.385 1_556 S
C647 C646 1.374 . S
C648 C645 1.499 . S
C648 C649 1.373 . S
C648 C650 1.389 . S
C649 H628 0.950 . S
C649 C648 1.373 . S
C649 C665 1.377 . S
C650 C648 1.389 . S
C650 C651 1.524 . S
C650 C664 1.377 . S
C651 C650 1.524 . S
C651 C652 1.397 1_556 S
C651 C656 1.363 . S
C652 H629 0.950 1_554 S
C652 C651 1.397 1_554 S
C652 C653 1.334 . S
C653 H630 0.950 . S
C653 C652 1.334 . S
C653 C654 1.287 . S
C654 C653 1.287 . S
C654 C655 1.524 . S
C654 H673 0.913 . S
C655 H631 0.950 . S
C655 C654 1.524 . S
C655 C656 1.415 1_554 S
C656 H632 0.950 . S
C656 C651 1.363 . S
C656 C655 1.415 1_556 S
C657 H633 0.951 . S
C657 C658 1.366 . S
C657 C659 1.388 . S
C658 C657 1.366 . S
C658 C662 1.385 . S
C659 H634 0.951 . S
C659 C657 1.388 . S
C659 C660 1.366 . S
C660 C659 1.366 . S
C660 C661 1.414 . S
C660 C663 1.499 . S
C661 H635 0.950 . S
C661 C660 1.414 . S
C661 C662 1.374 . S
C662 H636 0.950 . S
C662 C658 1.385 . S
C662 C661 1.374 . S
C663 C660 1.499 . S
C663 C664 1.373 . S
C663 C665 1.389 . S
C664 H637 0.950 . S
C664 C650 1.377 . S
C664 C663 1.373 . S
C665 C649 1.377 . S
C665 C663 1.389 . S
C665 C666 1.524 . S
C666 C665 1.524 . S
C666 C667 1.397 . S
C666 C671 1.363 . S
C667 H638 0.950 . S
C667 C666 1.397 . S
C667 C668 1.334 . S
C668 H639 0.950 . S
C668 C667 1.334 . S
C668 C669 1.287 . S
C669 C668 1.287 . S
C669 C670 1.524 . S
C669 H672 0.999 . S
C670 H640 0.950 . S
C670 C669 1.524 . S
C670 C671 1.415 . S
C671 H641 0.950 . S
C671 C666 1.363 . S
C671 C670 1.415 . S
H672 C669 0.999 . S
H673 C654 0.913 . S
H674 C692 0.951 . S
H675 C694 0.951 . S
H676 C696 0.950 . S
H677 C697 0.950 . S
H678 C699 0.950 . S
H679 C702 0.950 . S
H680 C703 0.950 . S
H681 C705 0.950 . S
H682 C706 0.950 . S
H683 C707 0.951 . S
H684 C709 0.951 . S
H685 C711 0.950 . S
H686 C712 0.950 . S
H687 C714 0.950 . S
H688 C717 0.950 . S
H689 C718 0.950 . S
H690 C720 0.950 . S
H691 C721 0.950 . S
C692 H674 0.951 . S
C692 C693 1.366 . S
C692 C694 1.388 . S
C693 C692 1.366 . S
C693 C697 1.385 . S
C694 H675 0.951 . S
C694 C692 1.388 . S
C694 C695 1.366 . S
C695 C694 1.366 . S
C695 C696 1.414 . S
C695 C698 1.499 . S
C696 H676 0.950 . S
C696 C695 1.414 . S
C696 C697 1.374 . S
C697 H677 0.950 . S
C697 C693 1.385 . S
C697 C696 1.374 . S
C698 C695 1.499 . S
C698 C699 1.373 . S
C698 C700 1.389 . S
C699 H678 0.950 . S
C699 C698 1.373 . S
C699 C715 1.377 . S
C700 C698 1.389 . S
C700 C701 1.524 . S
C700 C714 1.377 . S
C701 C700 1.524 . S
C701 C702 1.397 . S
C701 C706 1.363 . S
C702 H679 0.950 . S
C702 C701 1.397 . S
C702 C703 1.334 . S
C703 H680 0.950 . S
C703 C702 1.334 . S
C703 C704 1.287 . S
C704 C703 1.287 . S
C704 C705 1.524 . S
C704 H723 0.913 . S
C705 H681 0.950 . S
C705 C704 1.524 . S
C705 C706 1.415 . S
C706 H682 0.950 . S
C706 C701 1.363 . S
C706 C705 1.415 . S
C707 H683 0.951 . S
C707 C708 1.366 . S
C707 C709 1.388 . S
C708 C707 1.366 . S
C708 C712 1.385 . S
C709 H684 0.951 . S
C709 C707 1.388 . S
C709 C710 1.366 . S
C710 C709 1.366 . S
C710 C711 1.414 . S
C710 C713 1.499 . S
C711 H685 0.950 . S
C711 C710 1.414 . S
C711 C712 1.374 . S
C712 H686 0.950 . S
C712 C708 1.385 . S
C712 C711 1.374 . S
C713 C710 1.499 . S
C713 C714 1.373 . S
C713 C715 1.389 . S
C714 H687 0.950 . S
C714 C700 1.377 . S
C714 C713 1.373 . S
C715 C699 1.377 . S
C715 C713 1.389 . S
C715 C716 1.524 . S
C716 C715 1.524 . S
C716 C717 1.397 . S
C716 C721 1.363 . S
C717 H688 0.950 . S
C717 C716 1.397 . S
C717 C718 1.334 . S
C718 H689 0.950 . S
C718 C717 1.334 . S
C718 C719 1.287 . S
C719 C718 1.287 . S
C719 C720 1.524 . S
C719 H722 0.999 . S
C720 H690 0.950 . S
C720 C719 1.524 . S
C720 C721 1.415 . S
C721 H691 0.950 . S
C721 C716 1.363 . S
C721 C720 1.415 . S
H722 C719 0.999 . S
H723 C704 0.913 . S
H724 C742 0.951 . S
H725 C744 0.955 . S
H726 C746 0.950 . S
H727 C747 0.950 . S
H728 C749 0.950 . S
H729 C752 0.950 . S
H730 C753 0.953 . S
H731 C755 0.950 . S
H732 C756 0.950 . S
H733 C757 0.951 . S
H734 C759 0.951 . S
H735 C761 0.950 . S
H736 C762 0.950 . S
H737 C764 0.950 . S
H738 C767 0.950 . S
H739 C768 0.950 . S
H740 C770 0.950 . S
H741 C771 0.950 . S
C742 H724 0.951 . S
C742 C743 1.366 . S
C742 C744 1.402 . S
C743 C742 1.366 . S
C743 C747 1.385 1_554 S
C744 H725 0.955 . S
C744 C742 1.402 . S
C744 C745 1.348 1_554 S
C745 C744 1.348 1_556 S
C745 C746 1.414 . S
C745 C748 1.499 . S
C746 H726 0.950 . S
C746 C745 1.414 . S
C746 C747 1.374 . S
C747 H727 0.950 . S
C747 C743 1.385 1_556 S
C747 C746 1.374 . S
C748 C745 1.499 . S
C748 C749 1.373 . S
C748 C750 1.389 . S
C749 H728 0.950 . S
C749 C748 1.373 . S
C749 C765 1.377 . S
C750 C748 1.389 . S
C750 C751 1.524 . S
C750 C764 1.377 . S
C751 C750 1.524 . S
C751 C752 1.397 . S
C751 C756 1.363 . S
C752 H729 0.950 . S
C752 C751 1.397 . S
C752 C753 1.324 1_556 S
C753 H730 0.953 . S
C753 C752 1.324 1_554 S
C753 C754 1.294 . S
C754 C753 1.294 . S
C754 C755 1.524 . S
C754 H773 0.913 . S
C755 H731 0.950 . S
C755 C754 1.524 . S
C755 C756 1.415 1_554 S
C756 H732 0.950 . S
C756 C751 1.363 . S
C756 C755 1.415 1_556 S
C757 H733 0.951 . S
C757 C758 1.366 . S
C757 C759 1.388 . S
C758 C757 1.366 . S
C758 C762 1.385 . S
C759 H734 0.951 . S
C759 C757 1.388 . S
C759 C760 1.366 . S
C760 C759 1.366 . S
C760 C761 1.414 . S
C760 C763 1.499 . S
C761 H735 0.950 . S
C761 C760 1.414 . S
C761 C762 1.374 . S
C762 H736 0.950 . S
C762 C758 1.385 . S
C762 C761 1.374 . S
C763 C760 1.499 . S
C763 C764 1.373 . S
C763 C765 1.389 . S
C764 H737 0.950 . S
C764 C750 1.377 . S
C764 C763 1.373 . S
C765 C749 1.377 . S
C765 C763 1.389 . S
C765 C766 1.524 . S
C766 C765 1.524 . S
C766 C767 1.397 . S
C766 C771 1.363 . S
C767 H738 0.950 . S
C767 C766 1.397 . S
C767 C768 1.334 . S
C768 H739 0.950 . S
C768 C767 1.334 . S
C768 C769 1.287 . S
C769 C768 1.287 . S
C769 C770 1.524 . S
C769 H772 0.999 . S
C770 H740 0.950 . S
C770 C769 1.524 . S
C770 C771 1.415 . S
C771 H741 0.950 . S
C771 C766 1.363 . S
C771 C770 1.415 . S
H772 C769 0.999 . S
H773 C754 0.913 . S
H774 C792 0.951 . S
H775 C794 0.951 . S
H776 C796 0.950 . S
H777 C797 0.950 . S
H778 C799 0.950 . S
H779 C802 0.950 . S
H780 C803 0.950 . S
H781 C805 0.950 . S
H782 C806 0.950 . S
H783 C807 0.951 . S
H784 C809 0.951 . S
H785 C811 0.950 . S
H786 C812 0.950 . S
H787 C814 0.950 . S
H788 C817 0.950 . S
H789 C818 0.950 . S
H790 C820 0.950 . S
H791 C821 0.950 . S
C792 H774 0.951 . S
C792 C793 1.366 . S
C792 C794 1.388 . S
C793 C792 1.366 . S
C793 C797 1.385 . S
C794 H775 0.951 . S
C794 C792 1.388 . S
C794 C795 1.366 . S
C795 C794 1.366 . S
C795 C796 1.414 . S
C795 C798 1.499 . S
C796 H776 0.950 . S
C796 C795 1.414 . S
C796 C797 1.374 . S
C797 H777 0.950 . S
C797 C793 1.385 . S
C797 C796 1.374 . S
C798 C795 1.499 . S
C798 C799 1.373 . S
C798 C800 1.389 . S
C799 H778 0.950 . S
C799 C798 1.373 . S
C799 C815 1.377 . S
C800 C798 1.389 . S
C800 C801 1.524 . S
C800 C814 1.377 . S
C801 C800 1.524 . S
C801 C802 1.397 . S
C801 C806 1.363 . S
C802 H779 0.950 . S
C802 C801 1.397 . S
C802 C803 1.334 . S
C803 H780 0.950 . S
C803 C802 1.334 . S
C803 C804 1.287 . S
C804 C803 1.287 . S
C804 C805 1.524 . S
C804 H823 0.913 . S
C805 H781 0.950 . S
C805 C804 1.524 . S
C805 C806 1.415 . S
C806 H782 0.950 . S
C806 C801 1.363 . S
C806 C805 1.415 . S
C807 H783 0.951 . S
C807 C808 1.366 . S
C807 C809 1.388 . S
C808 C807 1.366 . S
C808 C812 1.385 . S
C809 H784 0.951 . S
C809 C807 1.388 . S
C809 C810 1.366 . S
C810 C809 1.366 . S
C810 C811 1.414 . S
C810 C813 1.499 . S
C811 H785 0.950 . S
C811 C810 1.414 . S
C811 C812 1.374 . S
C812 H786 0.950 . S
C812 C808 1.385 . S
C812 C811 1.374 . S
C813 C810 1.499 . S
C813 C814 1.373 . S
C813 C815 1.389 . S
C814 H787 0.950 . S
C814 C800 1.377 . S
C814 C813 1.373 . S
C815 C799 1.377 . S
C815 C813 1.389 . S
C815 C816 1.524 . S
C816 C815 1.524 . S
C816 C817 1.397 . S
C816 C821 1.363 . S
C817 H788 0.950 . S
C817 C816 1.397 . S
C817 C818 1.334 . S
C818 H789 0.950 . S
C818 C817 1.334 . S
C818 C819 1.287 . S
C819 C818 1.287 . S
C819 C820 1.524 . S
C819 H822 0.999 . S
C820 H790 0.950 . S
C820 C819 1.524 . S
C820 C821 1.415 . S
C821 H791 0.950 . S
C821 C816 1.363 . S
C821 C820 1.415 . S
H822 C819 0.999 . S
H823 C804 0.913 . S
H824 C842 0.951 . S
H825 C844 0.951 . S
H826 C846 0.950 . S
H827 C847 0.950 . S
H828 C849 0.950 . S
H829 C852 0.950 . S
H830 C853 0.950 . S
H831 C855 0.950 . S
H832 C856 0.950 . S
H833 C857 0.951 . S
H834 C859 0.950 . S
H835 C861 0.950 . S
H836 C862 0.950 . S
H837 C864 0.950 . S
H838 C867 0.950 . S
H839 C868 0.950 . S
H840 C870 0.950 . S
H841 C871 0.950 . S
C842 H824 0.951 . S
C842 C843 1.366 . S
C842 C844 1.388 . S
C843 C842 1.366 . S
C843 C847 1.385 . S
C844 H825 0.951 . S
C844 C842 1.388 . S
C844 C845 1.366 . S
C845 C844 1.366 . S
C845 C846 1.414 . S
C845 C848 1.499 . S
C846 H826 0.950 . S
C846 C845 1.414 . S
C846 C847 1.374 . S
C847 H827 0.950 . S
C847 C843 1.385 . S
C847 C846 1.374 . S
C848 C845 1.499 . S
C848 C849 1.373 . S
C848 C850 1.389 . S
C849 H828 0.950 . S
C849 C848 1.373 . S
C849 C865 1.377 . S
C850 C848 1.389 . S
C850 C851 1.524 . S
C850 C864 1.377 . S
C851 C850 1.524 . S
C851 C852 1.397 . S
C851 C856 1.363 . S
C852 H829 0.950 . S
C852 C851 1.397 . S
C852 C853 1.334 . S
C853 H830 0.950 . S
C853 C852 1.334 . S
C853 C854 1.287 . S
C854 C853 1.287 . S
C854 C855 1.524 . S
C854 H873 0.913 . S
C855 H831 0.950 . S
C855 C854 1.524 . S
C855 C856 1.415 . S
C856 H832 0.950 . S
C856 C851 1.363 . S
C856 C855 1.415 . S
C857 H833 0.951 . S
C857 C858 1.366 . S
C857 C859 1.386 . S
C858 C857 1.366 . S
C858 C862 1.385 1_556 S
C859 H834 0.950 . S
C859 C857 1.386 . S
C859 C860 1.368 1_556 S
C860 C859 1.368 1_554 S
C860 C861 1.414 . S
C860 C863 1.499 . S
C861 H835 0.950 . S
C861 C860 1.414 . S
C861 C862 1.374 . S
C862 H836 0.950 . S
C862 C858 1.385 1_554 S
C862 C861 1.374 . S
C863 C860 1.499 . S
C863 C864 1.373 . S
C863 C865 1.389 . S
C864 H837 0.950 . S
C864 C850 1.377 . S
C864 C863 1.373 . S
C865 C849 1.377 . S
C865 C863 1.389 . S
C865 C866 1.524 . S
C866 C865 1.524 . S
C866 C867 1.397 . S
C866 C871 1.363 . S
C867 H838 0.950 . S
C867 C866 1.397 . S
C867 C868 1.334 1_554 S
C868 H839 0.950 . S
C868 C867 1.334 1_556 S
C868 C869 1.287 . S
C869 C868 1.287 . S
C869 C870 1.524 . S
C869 H872 0.999 . S
C870 H840 0.950 . S
C870 C869 1.524 . S
C870 C871 1.415 1_556 S
C871 H841 0.950 . S
C871 C866 1.363 . S
C871 C870 1.415 1_554 S
H872 C869 0.999 . S
H873 C854 0.913 . S
H874 C892 0.951 . S
H875 C894 0.951 . S
H876 C896 0.950 . S
H877 C897 0.950 . S
H878 C899 0.950 . S
H879 C902 0.950 . S
H880 C903 0.950 . S
H881 C905 0.950 . S
H882 C906 0.950 . S
H883 C907 0.951 . S
H884 C909 0.951 . S
H885 C911 0.950 . S
H886 C912 0.950 . S
H887 C914 0.950 . S
H888 C917 0.950 . S
H889 C918 0.950 . S
H890 C920 0.950 . S
H891 C921 0.950 . S
C892 H874 0.951 . S
C892 C893 1.366 . S
C892 C894 1.388 . S
C893 C892 1.366 . S
C893 C897 1.385 . S
C894 H875 0.951 . S
C894 C892 1.388 . S
C894 C895 1.366 . S
C895 C894 1.366 . S
C895 C896 1.414 . S
C895 C898 1.499 . S
C896 H876 0.950 . S
C896 C895 1.414 . S
C896 C897 1.374 . S
C897 H877 0.950 . S
C897 C893 1.385 . S
C897 C896 1.374 . S
C898 C895 1.499 . S
C898 C899 1.373 . S
C898 C900 1.389 . S
C899 H878 0.950 . S
C899 C898 1.373 . S
C899 C915 1.377 . S
C900 C898 1.389 . S
C900 C901 1.524 . S
C900 C914 1.377 . S
C901 C900 1.524 . S
C901 C902 1.397 . S
C901 C906 1.363 . S
C902 H879 0.950 . S
C902 C901 1.397 . S
C902 C903 1.334 . S
C903 H880 0.950 . S
C903 C902 1.334 . S
C903 C904 1.287 . S
C904 C903 1.287 . S
C904 C905 1.524 . S
C904 H923 0.913 . S
C905 H881 0.950 . S
C905 C904 1.524 . S
C905 C906 1.415 . S
C906 H882 0.950 . S
C906 C901 1.363 . S
C906 C905 1.415 . S
C907 H883 0.951 . S
C907 C908 1.366 . S
C907 C909 1.388 . S
C908 C907 1.366 . S
C908 C912 1.385 . S
C909 H884 0.951 . S
C909 C907 1.388 . S
C909 C910 1.366 . S
C910 C909 1.366 . S
C910 C911 1.414 . S
C910 C913 1.499 . S
C911 H885 0.950 . S
C911 C910 1.414 . S
C911 C912 1.374 . S
C912 H886 0.950 . S
C912 C908 1.385 . S
C912 C911 1.374 . S
C913 C910 1.499 . S
C913 C914 1.373 . S
C913 C915 1.389 . S
C914 H887 0.950 . S
C914 C900 1.377 . S
C914 C913 1.373 . S
C915 C899 1.377 . S
C915 C913 1.389 . S
C915 C916 1.524 . S
C916 C915 1.524 . S
C916 C917 1.397 . S
C916 C921 1.363 . S
C917 H888 0.950 . S
C917 C916 1.397 . S
C917 C918 1.334 . S
C918 H889 0.950 . S
C918 C917 1.334 . S
C918 C919 1.287 . S
C919 C918 1.287 . S
C919 C920 1.524 . S
C919 H922 0.999 . S
C920 H890 0.950 . S
C920 C919 1.524 . S
C920 C921 1.415 . S
C921 H891 0.950 . S
C921 C916 1.363 . S
C921 C920 1.415 . S
H922 C919 0.999 . S
H923 C904 0.913 . S
H924 C942 0.951 . S
H925 C944 0.951 . S
H926 C946 0.950 . S
H927 C947 0.950 . S
H928 C949 0.950 . S
H929 C952 0.950 . S
H930 C953 0.950 . S
H931 C955 0.950 . S
H932 C956 0.950 . S
H933 C957 0.951 . S
H934 C959 0.953 . S
H935 C961 0.950 . S
H936 C962 0.950 . S
H937 C964 0.950 . S
H938 C967 0.950 . S
H939 C968 0.950 . S
H940 C970 0.950 . S
H941 C971 0.950 . S
C942 H924 0.951 . S
C942 C943 1.366 . S
C942 C944 1.388 . S
C943 C942 1.366 . S
C943 C947 1.385 . S
C944 H925 0.951 . S
C944 C942 1.388 . S
C944 C945 1.366 . S
C945 C944 1.366 . S
C945 C946 1.414 . S
C945 C948 1.499 . S
C946 H926 0.950 . S
C946 C945 1.414 . S
C946 C947 1.374 . S
C947 H927 0.950 . S
C947 C943 1.385 . S
C947 C946 1.374 . S
C948 C945 1.499 . S
C948 C949 1.373 . S
C948 C950 1.389 . S
C949 H928 0.950 . S
C949 C948 1.373 . S
C949 C965 1.377 . S
C950 C948 1.389 . S
C950 C951 1.524 . S
C950 C964 1.377 . S
C951 C950 1.524 . S
C951 C952 1.397 . S
C951 C956 1.363 . S
C952 H929 0.950 . S
C952 C951 1.397 . S
C952 C953 1.334 . S
C953 H930 0.950 . S
C953 C952 1.334 . S
C953 C954 1.287 . S
C954 C953 1.287 . S
C954 C955 1.524 . S
C954 H973 0.913 . S
C955 H931 0.950 . S
C955 C954 1.524 . S
C955 C956 1.415 . S
C956 H932 0.950 . S
C956 C951 1.363 . S
C956 C955 1.415 . S
C957 H933 0.951 . S
C957 C958 1.366 . S
C957 C959 1.388 1_556 S
C958 C957 1.366 . S
C958 C962 1.385 1_556 S
C959 H934 0.953 . S
C959 C957 1.388 1_554 S
C959 C960 1.366 . S
C960 C959 1.366 . S
C960 C961 1.414 . S
C960 C963 1.499 . S
C961 H935 0.950 . S
C961 C960 1.414 . S
C961 C962 1.374 . S
C962 H936 0.950 . S
C962 C958 1.385 1_554 S
C962 C961 1.374 . S
C963 C960 1.499 . S
C963 C964 1.373 . S
C963 C965 1.389 . S
C964 H937 0.950 . S
C964 C950 1.377 . S
C964 C963 1.373 . S
C965 C949 1.377 . S
C965 C963 1.389 . S
C965 C966 1.524 . S
C966 C965 1.524 . S
C966 C967 1.397 . S
C966 C971 1.363 . S
C967 H938 0.950 . S
C967 C966 1.397 . S
C967 C968 1.334 . S
C968 H939 0.950 . S
C968 C967 1.334 . S
C968 C969 1.287 . S
C969 C968 1.287 . S
C969 C970 1.524 . S
C969 H972 0.999 . S
C970 H940 0.950 . S
C970 C969 1.524 . S
C970 C971 1.415 . S
C971 H941 0.950 . S
C971 C966 1.363 . S
C971 C970 1.415 . S
H972 C969 0.999 . S
H973 C954 0.913 . S
H974 C992 0.951 . S
H975 C994 0.951 . S
H976 C996 0.950 . S
H977 C997 0.950 . S
H978 C999 0.950 . S
H979 C1002 0.950 . S
H980 C1003 0.950 . S
H981 C1005 0.950 . S
H982 C1006 0.950 . S
H983 C1007 0.951 . S
H984 C1009 0.951 . S
H985 C1011 0.950 . S
H986 C1012 0.950 . S
H987 C1014 0.950 . S
H988 C1017 0.950 . S
H989 C1018 0.950 . S
H990 C1020 0.950 . S
H991 C1021 0.950 . S
C992 H974 0.951 . S
C992 C993 1.366 . S
C992 C994 1.388 . S
C993 C992 1.366 . S
C993 C997 1.385 . S
C994 H975 0.951 . S
C994 C992 1.388 . S
C994 C995 1.366 . S
C995 C994 1.366 . S
C995 C996 1.414 . S
C995 C998 1.499 . S
C996 H976 0.950 . S
C996 C995 1.414 . S
C996 C997 1.374 . S
C997 H977 0.950 . S
C997 C993 1.385 . S
C997 C996 1.374 . S
C998 C995 1.499 . S
C998 C999 1.373 . S
C998 C1000 1.389 . S
C999 H978 0.950 . S
C999 C998 1.373 . S
C999 C1015 1.377 . S
C1000 C998 1.389 . S
C1000 C1001 1.524 . S
C1000 C1014 1.377 . S
C1001 C1000 1.524 . S
C1001 C1002 1.397 . S
C1001 C1006 1.363 . S
C1002 H979 0.950 . S
C1002 C1001 1.397 . S
C1002 C1003 1.334 . S
C1003 H980 0.950 . S
C1003 C1002 1.334 . S
C1003 C1004 1.287 . S
C1004 C1003 1.287 . S
C1004 C1005 1.524 . S
C1004 H1023 0.913 . S
C1005 H981 0.950 . S
C1005 C1004 1.524 . S
C1005 C1006 1.415 . S
C1006 H982 0.950 . S
C1006 C1001 1.363 . S
C1006 C1005 1.415 . S
C1007 H983 0.951 . S
C1007 C1008 1.366 . S
C1007 C1009 1.388 . S
C1008 C1007 1.366 . S
C1008 C1012 1.385 . S
C1009 H984 0.951 . S
C1009 C1007 1.388 . S
C1009 C1010 1.366 . S
C1010 C1009 1.366 . S
C1010 C1011 1.414 . S
C1010 C1013 1.499 . S
C1011 H985 0.950 . S
C1011 C1010 1.414 . S
C1011 C1012 1.374 . S
C1012 H986 0.950 . S
C1012 C1008 1.385 . S
C1012 C1011 1.374 . S
C1013 C1010 1.499 . S
C1013 C1014 1.373 . S
C1013 C1015 1.389 . S
C1014 H987 0.950 . S
C1014 C1000 1.377 . S
C1014 C1013 1.373 . S
C1015 C999 1.377 . S
C1015 C1013 1.389 . S
C1015 C1016 1.524 . S
C1016 C1015 1.524 . S
C1016 C1017 1.397 . S
C1016 C1021 1.363 . S
C1017 H988 0.950 . S
C1017 C1016 1.397 . S
C1017 C1018 1.334 . S
C1018 H989 0.950 . S
C1018 C1017 1.334 . S
C1018 C1019 1.287 . S
C1019 C1018 1.287 . S
C1019 C1020 1.524 . S
C1019 H1022 0.999 . S
C1020 H990 0.950 . S
C1020 C1019 1.524 . S
C1020 C1021 1.415 . S
C1021 H991 0.950 . S
C1021 C1016 1.363 . S
C1021 C1020 1.415 . S
H1022 C1019 0.999 . S
H1023 C1004 0.913 . S
H1024 C1042 0.951 . S
H1025 C1044 0.951 . S
H1026 C1046 0.950 . S
H1027 C1047 0.950 . S
H1028 C1049 0.950 . S
H1029 C1052 0.950 . S
H1030 C1053 0.950 . S
H1031 C1055 0.950 . S
H1032 C1056 0.950 . S
H1033 C1057 0.951 . S
H1034 C1059 0.951 . S
H1035 C1061 0.950 . S
H1036 C1062 0.950 . S
H1037 C1064 0.950 . S
H1038 C1067 0.950 . S
H1039 C1068 0.950 . S
H1040 C1070 0.950 . S
H1041 C1071 0.950 . S
C1042 H1024 0.951 . S
C1042 C1043 1.366 . S
C1042 C1044 1.388 1_556 S
C1043 C1042 1.366 . S
C1043 C1047 1.385 1_556 S
C1044 H1025 0.951 . S
C1044 C1042 1.388 1_554 S
C1044 C1045 1.366 . S
C1045 C1044 1.366 . S
C1045 C1046 1.414 . S
C1045 C1048 1.499 . S
C1046 H1026 0.950 . S
C1046 C1045 1.414 . S
C1046 C1047 1.374 . S
C1047 H1027 0.950 . S
C1047 C1043 1.385 1_554 S
C1047 C1046 1.374 . S
C1048 C1045 1.499 . S
C1048 C1049 1.373 . S
C1048 C1050 1.389 . S
C1049 H1028 0.950 . S
C1049 C1048 1.373 . S
C1049 C1065 1.377 . S
C1050 C1048 1.389 . S
C1050 C1051 1.524 . S
C1050 C1064 1.377 . S
C1051 C1050 1.524 . S
C1051 C1052 1.397 . S
C1051 C1056 1.363 . S
C1052 H1029 0.950 . S
C1052 C1051 1.397 . S
C1052 C1053 1.334 . S
C1053 H1030 0.950 . S
C1053 C1052 1.334 . S
C1053 C1054 1.287 . S
C1054 C1053 1.287 . S
C1054 C1055 1.524 . S
C1054 H1073 0.913 . S
C1055 H1031 0.950 . S
C1055 C1054 1.524 . S
C1055 C1056 1.415 . S
C1056 H1032 0.950 . S
C1056 C1051 1.363 . S
C1056 C1055 1.415 . S
C1057 H1033 0.951 . S
C1057 C1058 1.366 . S
C1057 C1059 1.388 . S
C1058 C1057 1.366 . S
C1058 C1062 1.385 . S
C1059 H1034 0.951 . S
C1059 C1057 1.388 . S
C1059 C1060 1.366 . S
C1060 C1059 1.366 . S
C1060 C1061 1.414 . S
C1060 C1063 1.499 . S
C1061 H1035 0.950 . S
C1061 C1060 1.414 . S
C1061 C1062 1.374 . S
C1062 H1036 0.950 . S
C1062 C1058 1.385 . S
C1062 C1061 1.374 . S
C1063 C1060 1.499 . S
C1063 C1064 1.373 . S
C1063 C1065 1.389 . S
C1064 H1037 0.950 . S
C1064 C1050 1.377 . S
C1064 C1063 1.373 . S
C1065 C1049 1.377 . S
C1065 C1063 1.389 . S
C1065 C1066 1.524 . S
C1066 C1065 1.524 . S
C1066 C1067 1.397 . S
C1066 C1071 1.363 . S
C1067 H1038 0.950 . S
C1067 C1066 1.397 . S
C1067 C1068 1.334 . S
C1068 H1039 0.950 . S
C1068 C1067 1.334 . S
C1068 C1069 1.287 . S
C1069 C1068 1.287 . S
C1069 C1070 1.524 . S
C1069 H1072 0.999 . S
C1070 H1040 0.950 . S
C1070 C1069 1.524 . S
C1070 C1071 1.415 . S
C1071 H1041 0.950 . S
C1071 C1066 1.363 . S
C1071 C1070 1.415 . S
H1072 C1069 0.999 . S
H1073 C1054 0.913 . S
H1074 C1092 0.951 . S
H1075 C1094 0.951 . S
H1076 C1096 0.950 . S
H1077 C1097 0.950 . S
H1078 C1099 0.950 . S
H1079 C1102 0.950 . S
H1080 C1103 0.950 . S
H1081 C1105 0.950 . S
H1082 C1106 0.950 . S
H1083 C1107 0.951 . S
H1084 C1109 0.951 . S
H1085 C1111 0.950 . S
H1086 C1112 0.950 . S
H1087 C1114 0.950 . S
H1088 C1117 0.950 . S
H1089 C1118 0.950 . S
H1090 C1120 0.950 . S
H1091 C1121 0.950 . S
C1092 H1074 0.951 . S
C1092 C1093 1.366 . S
C1092 C1094 1.388 . S
C1093 C1092 1.366 . S
C1093 C1097 1.385 . S
C1094 H1075 0.951 . S
C1094 C1092 1.388 . S
C1094 C1095 1.366 . S
C1095 C1094 1.366 . S
C1095 C1096 1.414 . S
C1095 C1098 1.499 . S
C1096 H1076 0.950 . S
C1096 C1095 1.414 . S
C1096 C1097 1.374 . S
C1097 H1077 0.950 . S
C1097 C1093 1.385 . S
C1097 C1096 1.374 . S
C1098 C1095 1.499 . S
C1098 C1099 1.373 . S
C1098 C1100 1.389 . S
C1099 H1078 0.950 . S
C1099 C1098 1.373 . S
C1099 C1115 1.377 . S
C1100 C1098 1.389 . S
C1100 C1101 1.524 . S
C1100 C1114 1.377 . S
C1101 C1100 1.524 . S
C1101 C1102 1.397 . S
C1101 C1106 1.363 . S
C1102 H1079 0.950 . S
C1102 C1101 1.397 . S
C1102 C1103 1.334 . S
C1103 H1080 0.950 . S
C1103 C1102 1.334 . S
C1103 C1104 1.287 . S
C1104 C1103 1.287 . S
C1104 C1105 1.524 . S
C1104 H1123 0.913 . S
C1105 H1081 0.950 . S
C1105 C1104 1.524 . S
C1105 C1106 1.415 . S
C1106 H1082 0.950 . S
C1106 C1101 1.363 . S
C1106 C1105 1.415 . S
C1107 H1083 0.951 . S
C1107 C1108 1.366 . S
C1107 C1109 1.388 . S
C1108 C1107 1.366 . S
C1108 C1112 1.385 . S
C1109 H1084 0.951 . S
C1109 C1107 1.388 . S
C1109 C1110 1.366 . S
C1110 C1109 1.366 . S
C1110 C1111 1.414 . S
C1110 C1113 1.499 . S
C1111 H1085 0.950 . S
C1111 C1110 1.414 . S
C1111 C1112 1.374 . S
C1112 H1086 0.950 . S
C1112 C1108 1.385 . S
C1112 C1111 1.374 . S
C1113 C1110 1.499 . S
C1113 C1114 1.373 . S
C1113 C1115 1.389 . S
C1114 H1087 0.950 . S
C1114 C1100 1.377 . S
C1114 C1113 1.373 . S
C1115 C1099 1.377 . S
C1115 C1113 1.389 . S
C1115 C1116 1.524 . S
C1116 C1115 1.524 . S
C1116 C1117 1.397 . S
C1116 C1121 1.363 . S
C1117 H1088 0.950 . S
C1117 C1116 1.397 . S
C1117 C1118 1.334 . S
C1118 H1089 0.950 . S
C1118 C1117 1.334 . S
C1118 C1119 1.287 . S
C1119 C1118 1.287 . S
C1119 C1120 1.524 . S
C1119 H1122 0.999 . S
C1120 H1090 0.950 . S
C1120 C1119 1.524 . S
C1120 C1121 1.415 . S
C1121 H1091 0.950 . S
C1121 C1116 1.363 . S
C1121 C1120 1.415 . S
H1122 C1119 0.999 . S
H1123 C1104 0.913 . S
H1124 C1142 0.951 . S
H1125 C1144 0.951 . S
H1126 C1146 0.950 . S
H1127 C1147 0.950 . S
H1128 C1149 0.950 . S
H1129 C1152 0.950 . S
H1130 C1153 0.950 . S
H1131 C1155 0.950 . S
H1132 C1156 0.950 . S
H1133 C1157 0.951 . S
H1134 C1159 0.951 1_556 S
H1135 C1161 0.950 . S
H1136 C1162 0.950 . S
H1137 C1164 0.950 . S
H1138 C1167 0.950 . S
H1139 C1168 0.950 . S
H1140 C1170 0.950 . S
H1141 C1171 0.950 . S
C1142 H1124 0.951 . S
C1142 C1143 1.366 . S
C1142 C1144 1.388 . S
C1143 C1142 1.366 . S
C1143 C1147 1.385 . S
C1144 H1125 0.951 . S
C1144 C1142 1.388 . S
C1144 C1145 1.366 . S
C1145 C1144 1.366 . S
C1145 C1146 1.414 . S
C1145 C1148 1.499 . S
C1146 H1126 0.950 . S
C1146 C1145 1.414 . S
C1146 C1147 1.374 . S
C1147 H1127 0.950 . S
C1147 C1143 1.385 . S
C1147 C1146 1.374 . S
C1148 C1145 1.499 . S
C1148 C1149 1.373 . S
C1148 C1150 1.389 . S
C1149 H1128 0.950 . S
C1149 C1148 1.373 . S
C1149 C1165 1.377 . S
C1150 C1148 1.389 . S
C1150 C1151 1.524 . S
C1150 C1164 1.377 . S
C1151 C1150 1.524 . S
C1151 C1152 1.397 . S
C1151 C1156 1.363 . S
C1152 H1129 0.950 . S
C1152 C1151 1.397 . S
C1152 C1153 1.334 . S
C1153 H1130 0.950 . S
C1153 C1152 1.334 . S
C1153 C1154 1.287 . S
C1154 C1153 1.287 . S
C1154 C1155 1.524 . S
C1154 H1173 0.913 . S
C1155 H1131 0.950 . S
C1155 C1154 1.524 . S
C1155 C1156 1.415 . S
C1156 H1132 0.950 . S
C1156 C1151 1.363 . S
C1156 C1155 1.415 . S
C1157 H1133 0.951 . S
C1157 C1158 1.366 . S
C1157 C1159 1.389 1_556 S
C1158 C1157 1.366 . S
C1158 C1162 1.385 1_556 S
C1159 H1134 0.951 1_554 S
C1159 C1157 1.389 1_554 S
C1159 C1160 1.364 . S
C1160 C1159 1.364 . S
C1160 C1161 1.414 . S
C1160 C1163 1.499 . S
C1161 H1135 0.950 . S
C1161 C1160 1.414 . S
C1161 C1162 1.374 . S
C1162 H1136 0.950 . S
C1162 C1158 1.385 1_554 S
C1162 C1161 1.374 . S
C1163 C1160 1.499 . S
C1163 C1164 1.373 . S
C1163 C1165 1.389 . S
C1164 H1137 0.950 . S
C1164 C1150 1.377 . S
C1164 C1163 1.373 . S
C1165 C1149 1.377 . S
C1165 C1163 1.389 . S
C1165 C1166 1.524 . S
C1166 C1165 1.524 . S
C1166 C1167 1.397 . S
C1166 C1171 1.363 . S
C1167 H1138 0.950 . S
C1167 C1166 1.397 . S
C1167 C1168 1.334 . S
C1168 H1139 0.950 . S
C1168 C1167 1.334 . S
C1168 C1169 1.287 . S
C1169 C1168 1.287 . S
C1169 C1170 1.524 . S
C1169 H1172 0.999 . S
C1170 H1140 0.950 . S
C1170 C1169 1.524 . S
C1170 C1171 1.415 . S
C1171 H1141 0.950 . S
C1171 C1166 1.363 . S
C1171 C1170 1.415 . S
H1172 C1169 0.999 . S
H1173 C1154 0.913 . S
H1174 C1192 0.951 . S
H1175 C1194 0.951 . S
H1176 C1196 0.950 . S
H1177 C1197 0.950 . S
H1178 C1199 0.950 . S
H1179 C1202 0.950 . S
H1180 C1203 0.950 . S
H1181 C1205 0.950 . S
H1182 C1206 0.950 . S
H1183 C1207 0.951 . S
H1184 C1209 0.951 . S
H1185 C1211 0.950 . S
H1186 C1212 0.950 . S
H1187 C1214 0.950 . S
H1188 C1217 0.950 . S
H1189 C1218 0.950 . S
H1190 C1220 0.950 . S
H1191 C1221 0.950 . S
C1192 H1174 0.951 . S
C1192 C1193 1.366 . S
C1192 C1194 1.388 . S
C1193 C1192 1.366 . S
C1193 C1197 1.385 . S
C1194 H1175 0.951 . S
C1194 C1192 1.388 . S
C1194 C1195 1.366 . S
C1195 C1194 1.366 . S
C1195 C1196 1.414 . S
C1195 C1198 1.499 . S
C1196 H1176 0.950 . S
C1196 C1195 1.414 . S
C1196 C1197 1.374 . S
C1197 H1177 0.950 . S
C1197 C1193 1.385 . S
C1197 C1196 1.374 . S
C1198 C1195 1.499 . S
C1198 C1199 1.373 . S
C1198 C1200 1.389 . S
C1199 H1178 0.950 . S
C1199 C1198 1.373 . S
C1199 C1215 1.377 . S
C1200 C1198 1.389 . S
C1200 C1201 1.524 . S
C1200 C1214 1.377 . S
C1201 C1200 1.524 . S
C1201 C1202 1.397 . S
C1201 C1206 1.363 . S
C1202 H1179 0.950 . S
C1202 C1201 1.397 . S
C1202 C1203 1.334 . S
C1203 H1180 0.950 . S
C1203 C1202 1.334 . S
C1203 C1204 1.287 . S
C1204 C1203 1.287 . S
C1204 C1205 1.524 . S
C1204 H1223 0.913 . S
C1205 H1181 0.950 . S
C1205 C1204 1.524 . S
C1205 C1206 1.415 . S
C1206 H1182 0.950 . S
C1206 C1201 1.363 . S
C1206 C1205 1.415 . S
C1207 H1183 0.951 . S
C1207 C1208 1.366 . S
C1207 C1209 1.388 . S
C1208 C1207 1.366 . S
C1208 C1212 1.385 . S
C1209 H1184 0.951 . S
C1209 C1207 1.388 . S
C1209 C1210 1.366 . S
C1210 C1209 1.366 . S
C1210 C1211 1.414 . S
C1210 C1213 1.499 . S
C1211 H1185 0.950 . S
C1211 C1210 1.414 . S
C1211 C1212 1.374 . S
C1212 H1186 0.950 . S
C1212 C1208 1.385 . S
C1212 C1211 1.374 . S
C1213 C1210 1.499 . S
C1213 C1214 1.373 . S
C1213 C1215 1.389 . S
C1214 H1187 0.950 . S
C1214 C1200 1.377 . S
C1214 C1213 1.373 . S
C1215 C1199 1.377 . S
C1215 C1213 1.389 . S
C1215 C1216 1.524 . S
C1216 C1215 1.524 . S
C1216 C1217 1.397 . S
C1216 C1221 1.363 . S
C1217 H1188 0.950 . S
C1217 C1216 1.397 . S
C1217 C1218 1.334 . S
C1218 H1189 0.950 . S
C1218 C1217 1.334 . S
C1218 C1219 1.287 . S
C1219 C1218 1.287 . S
C1219 C1220 1.524 . S
C1219 H1222 0.999 . S
C1220 H1190 0.950 . S
C1220 C1219 1.524 . S
C1220 C1221 1.415 . S
C1221 H1191 0.950 . S
C1221 C1216 1.363 . S
C1221 C1220 1.415 . S
H1222 C1219 0.999 . S
H1223 C1204 0.913 . S
H1224 C1242 0.951 . S
H1225 C1244 0.951 . S
H1226 C1246 0.950 . S
H1227 C1247 0.950 . S
H1228 C1249 0.950 . S
H1229 C1252 0.950 . S
H1230 C1253 0.950 . S
H1231 C1255 0.950 . S
H1232 C1256 0.950 . S
H1233 C1257 0.951 . S
H1234 C1259 0.951 . S
H1235 C1261 0.950 . S
H1236 C1262 0.950 . S
H1237 C1264 0.950 . S
H1238 C1267 0.950 . S
H1239 C1268 0.950 . S
H1240 C1270 0.950 . S
H1241 C1271 0.950 . S
C1242 H1224 0.951 . S
C1242 C1243 1.366 . S
C1242 C1244 1.388 . S
C1243 C1242 1.366 . S
C1243 C1247 1.385 . S
C1244 H1225 0.951 . S
C1244 C1242 1.388 . S
C1244 C1245 1.366 . S
C1245 C1244 1.366 . S
C1245 C1246 1.414 . S
C1245 C1248 1.499 . S
C1246 H1226 0.950 . S
C1246 C1245 1.414 . S
C1246 C1247 1.374 . S
C1247 H1227 0.950 . S
C1247 C1243 1.385 . S
C1247 C1246 1.374 . S
C1248 C1245 1.499 . S
C1248 C1249 1.373 . S
C1248 C1250 1.389 . S
C1249 H1228 0.950 . S
C1249 C1248 1.373 . S
C1249 C1265 1.377 . S
C1250 C1248 1.389 . S
C1250 C1251 1.524 . S
C1250 C1264 1.377 . S
C1251 C1250 1.524 . S
C1251 C1252 1.397 . S
C1251 C1256 1.363 . S
C1252 H1229 0.950 . S
C1252 C1251 1.397 . S
C1252 C1253 1.334 . S
C1253 H1230 0.950 . S
C1253 C1252 1.334 . S
C1253 C1254 1.287 . S
C1254 C1253 1.287 . S
C1254 C1255 1.524 . S
C1254 H1273 0.913 . S
C1255 H1231 0.950 . S
C1255 C1254 1.524 . S
C1255 C1256 1.415 . S
C1256 H1232 0.950 . S
C1256 C1251 1.363 . S
C1256 C1255 1.415 . S
C1257 H1233 0.951 . S
C1257 C1258 1.366 . S
C1257 C1259 1.388 1_554 S
C1258 C1257 1.366 . S
C1258 C1262 1.385 1_554 S
C1259 H1234 0.951 . S
C1259 C1257 1.388 1_556 S
C1259 C1260 1.366 . S
C1260 C1259 1.366 . S
C1260 C1261 1.414 . S
C1260 C1263 1.499 . S
C1261 H1235 0.950 . S
C1261 C1260 1.414 . S
C1261 C1262 1.374 . S
C1262 H1236 0.950 . S
C1262 C1258 1.385 1_556 S
C1262 C1261 1.374 . S
C1263 C1260 1.499 . S
C1263 C1264 1.373 . S
C1263 C1265 1.389 . S
C1264 H1237 0.950 . S
C1264 C1250 1.377 . S
C1264 C1263 1.373 . S
C1265 C1249 1.377 . S
C1265 C1263 1.389 . S
C1265 C1266 1.524 . S
C1266 C1265 1.524 . S
C1266 C1267 1.397 . S
C1266 C1271 1.363 . S
C1267 H1238 0.950 . S
C1267 C1266 1.397 . S
C1267 C1268 1.334 . S
C1268 H1239 0.950 . S
C1268 C1267 1.334 . S
C1268 C1269 1.287 . S
C1269 C1268 1.287 . S
C1269 C1270 1.524 . S
C1269 H1272 0.999 . S
C1270 H1240 0.950 . S
C1270 C1269 1.524 . S
C1270 C1271 1.415 . S
C1271 H1241 0.950 . S
C1271 C1266 1.363 . S
C1271 C1270 1.415 . S
H1272 C1269 0.999 . S
H1273 C1254 0.913 . S
H1274 C1292 0.951 . S
H1275 C1294 0.951 . S
H1276 C1296 0.950 . S
H1277 C1297 0.950 . S
H1278 C1299 0.950 . S
H1279 C1302 0.950 . S
H1280 C1303 0.950 . S
H1281 C1305 0.950 . S
H1282 C1306 0.950 . S
H1283 C1307 0.951 . S
H1284 C1309 0.951 . S
H1285 C1311 0.950 . S
H1286 C1312 0.950 . S
H1287 C1314 0.950 . S
H1288 C1317 0.950 . S
H1289 C1318 0.950 . S
H1290 C1320 0.950 . S
H1291 C1321 0.950 . S
C1292 H1274 0.951 . S
C1292 C1293 1.366 . S
C1292 C1294 1.388 . S
C1293 C1292 1.366 . S
C1293 C1297 1.385 . S
C1294 H1275 0.951 . S
C1294 C1292 1.388 . S
C1294 C1295 1.366 . S
C1295 C1294 1.366 . S
C1295 C1296 1.414 . S
C1295 C1298 1.499 . S
C1296 H1276 0.950 . S
C1296 C1295 1.414 . S
C1296 C1297 1.374 . S
C1297 H1277 0.950 . S
C1297 C1293 1.385 . S
C1297 C1296 1.374 . S
C1298 C1295 1.499 . S
C1298 C1299 1.373 . S
C1298 C1300 1.389 . S
C1299 H1278 0.950 . S
C1299 C1298 1.373 . S
C1299 C1315 1.377 . S
C1300 C1298 1.389 . S
C1300 C1301 1.524 . S
C1300 C1314 1.377 . S
C1301 C1300 1.524 . S
C1301 C1302 1.397 . S
C1301 C1306 1.363 . S
C1302 H1279 0.950 . S
C1302 C1301 1.397 . S
C1302 C1303 1.334 . S
C1303 H1280 0.950 . S
C1303 C1302 1.334 . S
C1303 C1304 1.287 . S
C1304 C1303 1.287 . S
C1304 C1305 1.524 . S
C1304 H1323 0.913 . S
C1305 H1281 0.950 . S
C1305 C1304 1.524 . S
C1305 C1306 1.415 . S
C1306 H1282 0.950 . S
C1306 C1301 1.363 . S
C1306 C1305 1.415 . S
C1307 H1283 0.951 . S
C1307 C1308 1.366 . S
C1307 C1309 1.388 . S
C1308 C1307 1.366 . S
C1308 C1312 1.385 . S
C1309 H1284 0.951 . S
C1309 C1307 1.388 . S
C1309 C1310 1.366 . S
C1310 C1309 1.366 . S
C1310 C1311 1.414 . S
C1310 C1313 1.499 . S
C1311 H1285 0.950 . S
C1311 C1310 1.414 . S
C1311 C1312 1.374 . S
C1312 H1286 0.950 . S
C1312 C1308 1.385 . S
C1312 C1311 1.374 . S
C1313 C1310 1.499 . S
C1313 C1314 1.373 . S
C1313 C1315 1.389 . S
C1314 H1287 0.950 . S
C1314 C1300 1.377 . S
C1314 C1313 1.373 . S
C1315 C1299 1.377 . S
C1315 C1313 1.389 . S
C1315 C1316 1.524 . S
C1316 C1315 1.524 . S
C1316 C1317 1.397 . S
C1316 C1321 1.363 . S
C1317 H1288 0.950 . S
C1317 C1316 1.397 . S
C1317 C1318 1.334 . S
C1318 H1289 0.950 . S
C1318 C1317 1.334 . S
C1318 C1319 1.287 . S
C1319 C1318 1.287 . S
C1319 C1320 1.524 . S
C1319 H1322 0.999 . S
C1320 H1290 0.950 . S
C1320 C1319 1.524 . S
C1320 C1321 1.415 . S
C1321 H1291 0.950 . S
C1321 C1316 1.363 . S
C1321 C1320 1.415 . S
H1322 C1319 0.999 . S
H1323 C1304 0.913 . S
H1324 C1342 0.951 . S
H1325 C1344 0.951 . S
H1326 C1346 0.950 1_554 S
H1327 C1347 0.950 . S
H1328 C1349 0.950 . S
H1329 C1352 0.950 . S
H1330 C1353 0.950 . S
H1331 C1355 0.950 . S
H1332 C1356 0.950 . S
H1333 C1357 0.951 . S
H1334 C1359 0.951 . S
H1335 C1361 0.950 . S
H1336 C1362 0.950 . S
H1337 C1364 0.950 . S
H1338 C1367 0.950 . S
H1339 C1368 0.950 . S
H1340 C1370 0.950 . S
H1341 C1371 0.950 . S
C1342 H1324 0.951 . S
C1342 C1343 1.366 1_556 S
C1342 C1344 1.388 . S
C1343 C1342 1.366 1_554 S
C1343 C1347 1.385 . S
C1344 H1325 0.951 . S
C1344 C1342 1.388 . S
C1344 C1345 1.366 . S
C1345 C1344 1.366 . S
C1345 C1346 1.414 . S
C1345 C1348 1.499 . S
C1346 H1326 0.950 1_556 S
C1346 C1345 1.414 . S
C1346 C1347 1.374 1_556 S
C1347 H1327 0.950 . S
C1347 C1343 1.385 . S
C1347 C1346 1.374 1_554 S
C1348 C1345 1.499 . S
C1348 C1349 1.373 . S
C1348 C1350 1.389 . S
C1349 H1328 0.950 . S
C1349 C1348 1.373 . S
C1349 C1365 1.377 . S
C1350 C1348 1.389 . S
C1350 C1351 1.524 . S
C1350 C1364 1.377 . S
C1351 C1350 1.524 . S
C1351 C1352 1.397 . S
C1351 C1356 1.363 . S
C1352 H1329 0.950 . S
C1352 C1351 1.397 . S
C1352 C1353 1.334 . S
C1353 H1330 0.950 . S
C1353 C1352 1.334 . S
C1353 C1354 1.287 . S
C1354 C1353 1.287 . S
C1354 C1355 1.524 . S
C1354 H1373 0.913 . S
C1355 H1331 0.950 . S
C1355 C1354 1.524 . S
C1355 C1356 1.415 . S
C1356 H1332 0.950 . S
C1356 C1351 1.363 . S
C1356 C1355 1.415 . S
C1357 H1333 0.951 . S
C1357 C1358 1.366 . S
C1357 C1359 1.388 . S
C1358 C1357 1.366 . S
C1358 C1362 1.385 . S
C1359 H1334 0.951 . S
C1359 C1357 1.388 . S
C1359 C1360 1.366 . S
C1360 C1359 1.366 . S
C1360 C1361 1.414 . S
C1360 C1363 1.499 . S
C1361 H1335 0.950 . S
C1361 C1360 1.414 . S
C1361 C1362 1.374 . S
C1362 H1336 0.950 . S
C1362 C1358 1.385 . S
C1362 C1361 1.374 . S
C1363 C1360 1.499 . S
C1363 C1364 1.373 . S
C1363 C1365 1.389 . S
C1364 H1337 0.950 . S
C1364 C1350 1.377 . S
C1364 C1363 1.373 . S
C1365 C1349 1.377 . S
C1365 C1363 1.389 . S
C1365 C1366 1.524 . S
C1366 C1365 1.524 . S
C1366 C1367 1.397 . S
C1366 C1371 1.363 . S
C1367 H1338 0.950 . S
C1367 C1366 1.397 . S
C1367 C1368 1.334 . S
C1368 H1339 0.950 . S
C1368 C1367 1.334 . S
C1368 C1369 1.287 . S
C1369 C1368 1.287 . S
C1369 C1370 1.524 . S
C1369 H1372 0.999 . S
C1370 H1340 0.950 . S
C1370 C1369 1.524 . S
C1370 C1371 1.415 . S
C1371 H1341 0.950 . S
C1371 C1366 1.363 . S
C1371 C1370 1.415 . S
H1372 C1369 0.999 . S
H1373 C1354 0.913 . S
H1374 C1392 0.951 . S
H1375 C1394 0.951 . S
H1376 C1396 0.950 . S
H1377 C1397 0.950 . S
H1378 C1399 0.950 . S
H1379 C1402 0.950 . S
H1380 C1403 0.950 . S
H1381 C1405 0.950 . S
H1382 C1406 0.950 . S
H1383 C1407 0.951 . S
H1384 C1409 0.951 . S
H1385 C1411 0.950 . S
H1386 C1412 0.950 . S
H1387 C1414 0.950 . S
H1388 C1417 0.950 . S
H1389 C1418 0.950 . S
H1390 C1420 0.950 . S
H1391 C1421 0.950 . S
C1392 H1374 0.951 . S
C1392 C1393 1.366 . S
C1392 C1394 1.388 . S
C1393 C1392 1.366 . S
C1393 C1397 1.385 . S
C1394 H1375 0.951 . S
C1394 C1392 1.388 . S
C1394 C1395 1.366 . S
C1395 C1394 1.366 . S
C1395 C1396 1.414 . S
C1395 C1398 1.499 . S
C1396 H1376 0.950 . S
C1396 C1395 1.414 . S
C1396 C1397 1.374 . S
C1397 H1377 0.950 . S
C1397 C1393 1.385 . S
C1397 C1396 1.374 . S
C1398 C1395 1.499 . S
C1398 C1399 1.373 . S
C1398 C1400 1.389 . S
C1399 H1378 0.950 . S
C1399 C1398 1.373 . S
C1399 C1415 1.377 . S
C1400 C1398 1.389 . S
C1400 C1401 1.524 . S
C1400 C1414 1.377 . S
C1401 C1400 1.524 . S
C1401 C1402 1.397 . S
C1401 C1406 1.363 . S
C1402 H1379 0.950 . S
C1402 C1401 1.397 . S
C1402 C1403 1.334 . S
C1403 H1380 0.950 . S
C1403 C1402 1.334 . S
C1403 C1404 1.287 . S
C1404 C1403 1.287 . S
C1404 C1405 1.524 . S
C1404 H1423 0.913 . S
C1405 H1381 0.950 . S
C1405 C1404 1.524 . S
C1405 C1406 1.415 . S
C1406 H1382 0.950 . S
C1406 C1401 1.363 . S
C1406 C1405 1.415 . S
C1407 H1383 0.951 . S
C1407 C1408 1.366 . S
C1407 C1409 1.388 . S
C1408 C1407 1.366 . S
C1408 C1412 1.385 . S
C1409 H1384 0.951 . S
C1409 C1407 1.388 . S
C1409 C1410 1.366 . S
C1410 C1409 1.366 . S
C1410 C1411 1.414 . S
C1410 C1413 1.499 . S
C1411 H1385 0.950 . S
C1411 C1410 1.414 . S
C1411 C1412 1.374 . S
C1412 H1386 0.950 . S
C1412 C1408 1.385 . S
C1412 C1411 1.374 . S
C1413 C1410 1.499 . S
C1413 C1414 1.373 . S
C1413 C1415 1.389 . S
C1414 H1387 0.950 . S
C1414 C1400 1.377 . S
C1414 C1413 1.373 . S
C1415 C1399 1.377 . S
C1415 C1413 1.389 . S
C1415 C1416 1.524 . S
C1416 C1415 1.524 . S
C1416 C1417 1.397 . S
C1416 C1421 1.363 . S
C1417 H1388 0.950 . S
C1417 C1416 1.397 . S
C1417 C1418 1.334 . S
C1418 H1389 0.950 . S
C1418 C1417 1.334 . S
C1418 C1419 1.287 . S
C1419 C1418 1.287 . S
C1419 C1420 1.524 . S
C1419 H1422 0.999 . S
C1420 H1390 0.950 . S
C1420 C1419 1.524 . S
C1420 C1421 1.415 . S
C1421 H1391 0.950 . S
C1421 C1416 1.363 . S
C1421 C1420 1.415 . S
H1422 C1419 0.999 . S
H1423 C1404 0.913 . S
H1424 C1442 0.951 . S
H1425 C1444 0.951 . S
H1426 C1446 0.950 . S
H1427 C1447 0.950 . S
H1428 C1449 0.950 . S
H1429 C1452 0.950 . S
H1430 C1453 0.950 . S
H1431 C1455 0.950 . S
H1432 C1456 0.950 . S
H1433 C1457 0.951 . S
H1434 C1459 0.951 . S
H1435 C1461 0.950 . S
H1436 C1462 0.950 . S
H1437 C1464 0.950 . S
H1438 C1467 0.950 . S
H1439 C1468 0.950 . S
H1440 C1470 0.950 . S
H1441 C1471 0.950 . S
C1442 H1424 0.951 . S
C1442 C1443 1.366 . S
C1442 C1444 1.388 . S
C1443 C1442 1.366 . S
C1443 C1447 1.385 . S
C1444 H1425 0.951 . S
C1444 C1442 1.388 . S
C1444 C1445 1.366 . S
C1445 C1444 1.366 . S
C1445 C1446 1.414 . S
C1445 C1448 1.499 . S
C1446 H1426 0.950 . S
C1446 C1445 1.414 . S
C1446 C1447 1.374 . S
C1447 H1427 0.950 . S
C1447 C1443 1.385 . S
C1447 C1446 1.374 . S
C1448 C1445 1.499 . S
C1448 C1449 1.373 . S
C1448 C1450 1.389 . S
C1449 H1428 0.950 . S
C1449 C1448 1.373 . S
C1449 C1465 1.377 . S
C1450 C1448 1.389 . S
C1450 C1451 1.524 . S
C1450 C1464 1.377 . S
C1451 C1450 1.524 . S
C1451 C1452 1.397 . S
C1451 C1456 1.363 . S
C1452 H1429 0.950 . S
C1452 C1451 1.397 . S
C1452 C1453 1.334 . S
C1453 H1430 0.950 . S
C1453 C1452 1.334 . S
C1453 C1454 1.287 . S
C1454 C1453 1.287 . S
C1454 C1455 1.524 . S
C1454 H1473 0.913 . S
C1455 H1431 0.950 . S
C1455 C1454 1.524 . S
C1455 C1456 1.415 . S
C1456 H1432 0.950 . S
C1456 C1451 1.363 . S
C1456 C1455 1.415 . S
C1457 H1433 0.951 . S
C1457 C1458 1.366 . S
C1457 C1459 1.388 . S
C1458 C1457 1.366 . S
C1458 C1462 1.385 . S
C1459 H1434 0.951 . S
C1459 C1457 1.388 . S
C1459 C1460 1.366 . S
C1460 C1459 1.366 . S
C1460 C1461 1.414 . S
C1460 C1463 1.499 . S
C1461 H1435 0.950 . S
C1461 C1460 1.414 . S
C1461 C1462 1.374 . S
C1462 H1436 0.950 . S
C1462 C1458 1.385 . S
C1462 C1461 1.374 . S
C1463 C1460 1.499 . S
C1463 C1464 1.373 . S
C1463 C1465 1.389 . S
C1464 H1437 0.950 . S
C1464 C1450 1.377 . S
C1464 C1463 1.373 . S
C1465 C1449 1.377 . S
C1465 C1463 1.389 . S
C1465 C1466 1.524 . S
C1466 C1465 1.524 . S
C1466 C1467 1.397 . S
C1466 C1471 1.363 . S
C1467 H1438 0.950 . S
C1467 C1466 1.397 . S
C1467 C1468 1.334 . S
C1468 H1439 0.950 . S
C1468 C1467 1.334 . S
C1468 C1469 1.287 . S
C1469 C1468 1.287 . S
C1469 C1470 1.524 . S
C1469 H1472 0.999 . S
C1470 H1440 0.950 . S
C1470 C1469 1.524 . S
C1470 C1471 1.415 . S
C1471 H1441 0.950 . S
C1471 C1466 1.363 . S
C1471 C1470 1.415 . S
H1472 C1469 0.999 . S
H1473 C1454 0.913 . S
H1474 C1492 0.951 . S
H1475 C1494 0.951 . S
H1476 C1496 0.950 . S
H1477 C1497 0.950 . S
H1478 C1499 0.950 . S
H1479 C1502 0.950 . S
H1480 C1503 0.950 . S
H1481 C1505 0.950 . S
H1482 C1506 0.950 . S
H1483 C1507 0.951 . S
H1484 C1509 0.951 . S
H1485 C1511 0.950 . S
H1486 C1512 0.950 . S
H1487 C1514 0.950 . S
H1488 C1517 0.950 . S
H1489 C1518 0.950 . S
H1490 C1520 0.950 . S
H1491 C1521 0.950 . S
C1492 H1474 0.951 . S
C1492 C1493 1.366 . S
C1492 C1494 1.388 . S
C1493 C1492 1.366 . S
C1493 C1497 1.385 . S
C1494 H1475 0.951 . S
C1494 C1492 1.388 . S
C1494 C1495 1.366 . S
C1495 C1494 1.366 . S
C1495 C1496 1.414 . S
C1495 C1498 1.499 . S
C1496 H1476 0.950 . S
C1496 C1495 1.414 . S
C1496 C1497 1.374 . S
C1497 H1477 0.950 . S
C1497 C1493 1.385 . S
C1497 C1496 1.374 . S
C1498 C1495 1.499 . S
C1498 C1499 1.373 . S
C1498 C1500 1.389 . S
C1499 H1478 0.950 . S
C1499 C1498 1.373 . S
C1499 C1515 1.377 . S
C1500 C1498 1.389 . S
C1500 C1501 1.524 . S
C1500 C1514 1.377 . S
C1501 C1500 1.524 . S
C1501 C1502 1.397 . S
C1501 C1506 1.363 . S
C1502 H1479 0.950 . S
C1502 C1501 1.397 . S
C1502 C1503 1.334 . S
C1503 H1480 0.950 . S
C1503 C1502 1.334 . S
C1503 C1504 1.287 . S
C1504 C1503 1.287 . S
C1504 C1505 1.524 . S
C1504 H1523 0.942 . S
C1505 H1481 0.950 . S
C1505 C1504 1.524 . S
C1505 C1506 1.415 . S
C1506 H1482 0.950 . S
C1506 C1501 1.363 . S
C1506 C1505 1.415 . S
C1507 H1483 0.951 . S
C1507 C1508 1.366 . S
C1507 C1509 1.388 . S
C1508 C1507 1.366 . S
C1508 C1512 1.385 . S
C1509 H1484 0.951 . S
C1509 C1507 1.388 . S
C1509 C1510 1.366 . S
C1510 C1509 1.366 . S
C1510 C1511 1.414 . S
C1510 C1513 1.499 . S
C1511 H1485 0.950 . S
C1511 C1510 1.414 . S
C1511 C1512 1.374 . S
C1512 H1486 0.950 . S
C1512 C1508 1.385 . S
C1512 C1511 1.374 . S
C1513 C1510 1.499 . S
C1513 C1514 1.373 . S
C1513 C1515 1.389 . S
C1514 H1487 0.950 . S
C1514 C1500 1.377 . S
C1514 C1513 1.373 . S
C1515 C1499 1.377 . S
C1515 C1513 1.389 . S
C1515 C1516 1.524 . S
C1516 C1515 1.524 . S
C1516 C1517 1.397 . S
C1516 C1521 1.363 . S
C1517 H1488 0.950 . S
C1517 C1516 1.397 . S
C1517 C1518 1.334 . S
C1518 H1489 0.950 . S
C1518 C1517 1.334 . S
C1518 C1519 1.287 . S
C1519 C1518 1.287 . S
C1519 C1520 1.524 . S
C1519 H1522 0.999 . S
C1520 H1490 0.950 . S
C1520 C1519 1.524 . S
C1520 C1521 1.415 . S
C1521 H1491 0.950 . S
C1521 C1516 1.363 . S
C1521 C1520 1.415 . S
H1522 C1519 0.999 . S
H1523 C1504 0.942 . S
H1524 C1542 0.951 . S
H1525 C1544 0.951 . S
H1526 C1546 0.950 . S
H1527 C1547 0.950 . S
H1528 C1549 0.950 . S
H1529 C1552 0.950 . S
H1530 C1553 0.950 . S
H1531 C1555 0.950 . S
H1532 C1556 0.950 . S
H1533 C1557 0.951 . S
H1534 C1559 0.951 . S
H1535 C1561 0.950 . S
H1536 C1562 0.950 . S
H1537 C1564 0.950 . S
H1538 C1567 0.950 . S
H1539 C1568 0.950 . S
H1540 C1570 0.950 . S
H1541 C1571 0.950 . S
C1542 H1524 0.951 . S
C1542 C1543 1.366 . S
C1542 C1544 1.388 . S
C1543 C1542 1.366 . S
C1543 C1547 1.385 . S
C1544 H1525 0.951 . S
C1544 C1542 1.388 . S
C1544 C1545 1.366 . S
C1545 C1544 1.366 . S
C1545 C1546 1.414 . S
C1545 C1548 1.499 . S
C1546 H1526 0.950 . S
C1546 C1545 1.414 . S
C1546 C1547 1.374 . S
C1547 H1527 0.950 . S
C1547 C1543 1.385 . S
C1547 C1546 1.374 . S
C1548 C1545 1.499 . S
C1548 C1549 1.373 . S
C1548 C1550 1.389 . S
C1549 H1528 0.950 . S
C1549 C1548 1.373 . S
C1549 C1565 1.377 . S
C1550 C1548 1.389 . S
C1550 C1551 1.524 . S
C1550 C1564 1.377 . S
C1551 C1550 1.524 . S
C1551 C1552 1.397 . S
C1551 C1556 1.363 . S
C1552 H1529 0.950 . S
C1552 C1551 1.397 . S
C1552 C1553 1.334 . S
C1553 H1530 0.950 . S
C1553 C1552 1.334 . S
C1553 C1554 1.287 . S
C1554 C1553 1.287 . S
C1554 C1555 1.524 . S
C1554 H1573 0.913 . S
C1555 H1531 0.950 . S
C1555 C1554 1.524 . S
C1555 C1556 1.415 . S
C1556 H1532 0.950 . S
C1556 C1551 1.363 . S
C1556 C1555 1.415 . S
C1557 H1533 0.951 . S
C1557 C1558 1.366 . S
C1557 C1559 1.388 . S
C1558 C1557 1.366 . S
C1558 C1562 1.385 . S
C1559 H1534 0.951 . S
C1559 C1557 1.388 . S
C1559 C1560 1.366 . S
C1560 C1559 1.366 . S
C1560 C1561 1.414 . S
C1560 C1563 1.499 . S
C1561 H1535 0.950 . S
C1561 C1560 1.414 . S
C1561 C1562 1.374 . S
C1562 H1536 0.950 . S
C1562 C1558 1.385 . S
C1562 C1561 1.374 . S
C1563 C1560 1.499 . S
C1563 C1564 1.373 . S
C1563 C1565 1.389 . S
C1564 H1537 0.950 . S
C1564 C1550 1.377 . S
C1564 C1563 1.373 . S
C1565 C1549 1.377 . S
C1565 C1563 1.389 . S
C1565 C1566 1.524 . S
C1566 C1565 1.524 . S
C1566 C1567 1.397 . S
C1566 C1571 1.363 . S
C1567 H1538 0.950 . S
C1567 C1566 1.397 . S
C1567 C1568 1.334 . S
C1568 H1539 0.950 . S
C1568 C1567 1.334 . S
C1568 C1569 1.287 . S
C1569 C1568 1.287 . S
C1569 C1570 1.524 . S
C1569 H1572 0.999 1_565 S
C1570 H1540 0.950 . S
C1570 C1569 1.524 . S
C1570 C1571 1.415 . S
C1571 H1541 0.950 . S
C1571 C1566 1.363 . S
C1571 C1570 1.415 . S
H1572 C1569 0.999 1_545 S
H1573 C1554 0.913 . S
H1574 C1592 0.951 . S
H1575 C1594 0.951 . S
H1576 C1596 0.950 . S
H1577 C1597 0.950 . S
H1578 C1599 0.950 . S
H1579 C1602 0.950 . S
H1580 C1603 0.950 . S
H1581 C1605 0.950 . S
H1582 C1606 0.950 . S
H1583 C1607 0.951 . S
H1584 C1609 0.951 . S
H1585 C1611 0.950 . S
H1586 C1612 0.950 . S
H1587 C1614 0.950 . S
H1588 C1617 0.950 . S
H1589 C1618 0.950 . S
H1590 C1620 0.950 . S
H1591 C1621 0.950 . S
C1592 H1574 0.951 . S
C1592 C1593 1.366 . S
C1592 C1594 1.388 . S
C1593 C1592 1.366 . S
C1593 C1597 1.385 . S
C1594 H1575 0.951 . S
C1594 C1592 1.388 . S
C1594 C1595 1.366 . S
C1595 C1594 1.366 . S
C1595 C1596 1.414 . S
C1595 C1598 1.499 . S
C1596 H1576 0.950 . S
C1596 C1595 1.414 . S
C1596 C1597 1.374 . S
C1597 H1577 0.950 . S
C1597 C1593 1.385 . S
C1597 C1596 1.374 . S
C1598 C1595 1.499 . S
C1598 C1599 1.373 . S
C1598 C1600 1.389 . S
C1599 H1578 0.950 . S
C1599 C1598 1.373 . S
C1599 C1615 1.377 . S
C1600 C1598 1.389 . S
C1600 C1601 1.524 . S
C1600 C1614 1.377 . S
C1601 C1600 1.524 . S
C1601 C1602 1.397 . S
C1601 C1606 1.363 . S
C1602 H1579 0.950 . S
C1602 C1601 1.397 . S
C1602 C1603 1.334 . S
C1603 H1580 0.950 . S
C1603 C1602 1.334 . S
C1603 C1604 1.287 . S
C1604 C1603 1.287 . S
C1604 C1605 1.524 . S
C1604 H1623 0.913 . S
C1605 H1581 0.950 . S
C1605 C1604 1.524 . S
C1605 C1606 1.415 . S
C1606 H1582 0.950 . S
C1606 C1601 1.363 . S
C1606 C1605 1.415 . S
C1607 H1583 0.951 . S
C1607 C1608 1.366 . S
C1607 C1609 1.388 . S
C1608 C1607 1.366 . S
C1608 C1612 1.385 . S
C1609 H1584 0.951 . S
C1609 C1607 1.388 . S
C1609 C1610 1.366 . S
C1610 C1609 1.366 . S
C1610 C1611 1.414 . S
C1610 C1613 1.499 . S
C1611 H1585 0.950 . S
C1611 C1610 1.414 . S
C1611 C1612 1.374 . S
C1612 H1586 0.950 . S
C1612 C1608 1.385 . S
C1612 C1611 1.374 . S
C1613 C1610 1.499 . S
C1613 C1614 1.373 . S
C1613 C1615 1.389 . S
C1614 H1587 0.950 . S
C1614 C1600 1.377 . S
C1614 C1613 1.373 . S
C1615 C1599 1.377 . S
C1615 C1613 1.389 . S
C1615 C1616 1.524 . S
C1616 C1615 1.524 . S
C1616 C1617 1.397 . S
C1616 C1621 1.363 . S
C1617 H1588 0.950 . S
C1617 C1616 1.397 . S
C1617 C1618 1.334 . S
C1618 H1589 0.950 . S
C1618 C1617 1.334 . S
C1618 C1619 1.287 . S
C1619 C1618 1.287 . S
C1619 C1620 1.524 . S
C1619 H1622 0.999 . S
C1620 H1590 0.950 . S
C1620 C1619 1.524 . S
C1620 C1621 1.415 . S
C1621 H1591 0.950 . S
C1621 C1616 1.363 . S
C1621 C1620 1.415 . S
H1622 C1619 0.999 . S
H1623 C1604 0.913 . S
H1624 C1642 0.951 . S
H1625 C1644 0.951 . S
H1626 C1646 0.950 . S
H1627 C1647 0.950 . S
H1628 C1649 0.950 . S
H1629 C1652 0.950 . S
H1630 C1653 0.950 . S
H1631 C1655 0.950 . S
H1632 C1656 0.950 . S
H1633 C1657 0.951 . S
H1634 C1659 0.951 . S
H1635 C1661 0.950 . S
H1636 C1662 0.950 . S
H1637 C1664 0.950 . S
H1638 C1667 0.950 . S
H1639 C1668 0.950 . S
H1640 C1670 0.950 . S
H1641 C1671 0.950 . S
C1642 H1624 0.951 . S
C1642 C1643 1.366 . S
C1642 C1644 1.388 . S
C1643 C1642 1.366 . S
C1643 C1647 1.385 . S
C1644 H1625 0.951 . S
C1644 C1642 1.388 . S
C1644 C1645 1.366 . S
C1645 C1644 1.366 . S
C1645 C1646 1.414 . S
C1645 C1648 1.499 . S
C1646 H1626 0.950 . S
C1646 C1645 1.414 . S
C1646 C1647 1.374 . S
C1647 H1627 0.950 . S
C1647 C1643 1.385 . S
C1647 C1646 1.374 . S
C1648 C1645 1.499 . S
C1648 C1649 1.373 . S
C1648 C1650 1.389 . S
C1649 H1628 0.950 . S
C1649 C1648 1.373 . S
C1649 C1665 1.377 . S
C1650 C1648 1.389 . S
C1650 C1651 1.524 . S
C1650 C1664 1.377 . S
C1651 C1650 1.524 . S
C1651 C1652 1.397 . S
C1651 C1656 1.363 . S
C1652 H1629 0.950 . S
C1652 C1651 1.397 . S
C1652 C1653 1.334 . S
C1653 H1630 0.950 . S
C1653 C1652 1.334 . S
C1653 C1654 1.287 . S
C1654 C1653 1.287 . S
C1654 C1655 1.524 . S
C1654 H1673 0.913 . S
C1655 H1631 0.950 . S
C1655 C1654 1.524 . S
C1655 C1656 1.415 . S
C1656 H1632 0.950 . S
C1656 C1651 1.363 . S
C1656 C1655 1.415 . S
C1657 H1633 0.951 . S
C1657 C1658 1.366 . S
C1657 C1659 1.388 . S
C1658 C1657 1.366 . S
C1658 C1662 1.385 . S
C1659 H1634 0.951 . S
C1659 C1657 1.388 . S
C1659 C1660 1.366 . S
C1660 C1659 1.366 . S
C1660 C1661 1.414 . S
C1660 C1663 1.499 . S
C1661 H1635 0.950 . S
C1661 C1660 1.414 . S
C1661 C1662 1.374 . S
C1662 H1636 0.950 . S
C1662 C1658 1.385 . S
C1662 C1661 1.374 . S
C1663 C1660 1.499 . S
C1663 C1664 1.373 . S
C1663 C1665 1.389 . S
C1664 H1637 0.950 . S
C1664 C1650 1.377 . S
C1664 C1663 1.373 . S
C1665 C1649 1.377 . S
C1665 C1663 1.389 . S
C1665 C1666 1.524 . S
C1666 C1665 1.524 . S
C1666 C1667 1.397 . S
C1666 C1671 1.363 . S
C1667 H1638 0.950 . S
C1667 C1666 1.397 . S
C1667 C1668 1.334 . S
C1668 H1639 0.950 . S
C1668 C1667 1.334 . S
C1668 C1669 1.287 . S
C1669 C1668 1.287 . S
C1669 C1670 1.524 . S
C1669 H1672 0.999 . S
C1670 H1640 0.950 . S
C1670 C1669 1.524 . S
C1670 C1671 1.415 . S
C1671 H1641 0.950 . S
C1671 C1666 1.363 . S
C1671 C1670 1.415 . S
H1672 C1669 0.999 . S
H1673 C1654 0.913 . S
H1674 C1692 0.951 . S
H1675 C1694 0.951 . S
H1676 C1696 0.950 . S
H1677 C1697 0.950 . S
H1678 C1699 0.950 . S
H1679 C1702 0.950 . S
H1680 C1703 0.950 . S
H1681 C1705 0.950 . S
H1682 C1706 0.950 . S
H1683 C1707 0.951 . S
H1684 C1709 0.951 . S
H1685 C1711 0.950 . S
H1686 C1712 0.950 . S
H1687 C1714 0.950 . S
H1688 C1717 0.950 . S
H1689 C1718 0.950 . S
H1690 C1720 0.950 . S
H1691 C1721 0.950 . S
C1692 H1674 0.951 . S
C1692 C1693 1.366 . S
C1692 C1694 1.388 . S
C1693 C1692 1.366 . S
C1693 C1697 1.385 . S
C1694 H1675 0.951 . S
C1694 C1692 1.388 . S
C1694 C1695 1.366 . S
C1695 C1694 1.366 . S
C1695 C1696 1.414 . S
C1695 C1698 1.499 . S
C1696 H1676 0.950 . S
C1696 C1695 1.414 . S
C1696 C1697 1.374 . S
C1697 H1677 0.950 . S
C1697 C1693 1.385 . S
C1697 C1696 1.374 . S
C1698 C1695 1.499 . S
C1698 C1699 1.373 . S
C1698 C1700 1.389 . S
C1699 H1678 0.950 . S
C1699 C1698 1.373 . S
C1699 C1715 1.377 . S
C1700 C1698 1.389 . S
C1700 C1701 1.524 . S
C1700 C1714 1.377 . S
C1701 C1700 1.524 . S
C1701 C1702 1.397 . S
C1701 C1706 1.363 . S
C1702 H1679 0.950 . S
C1702 C1701 1.397 . S
C1702 C1703 1.334 . S
C1703 H1680 0.950 . S
C1703 C1702 1.334 . S
C1703 C1704 1.287 . S
C1704 C1703 1.287 . S
C1704 C1705 1.524 . S
C1704 H1723 0.913 . S
C1705 H1681 0.950 . S
C1705 C1704 1.524 . S
C1705 C1706 1.415 . S
C1706 H1682 0.950 . S
C1706 C1701 1.363 . S
C1706 C1705 1.415 . S
C1707 H1683 0.951 . S
C1707 C1708 1.366 . S
C1707 C1709 1.388 . S
C1708 C1707 1.366 . S
C1708 C1712 1.385 . S
C1709 H1684 0.951 . S
C1709 C1707 1.388 . S
C1709 C1710 1.366 . S
C1710 C1709 1.366 . S
C1710 C1711 1.414 . S
C1710 C1713 1.499 . S
C1711 H1685 0.950 . S
C1711 C1710 1.414 . S
C1711 C1712 1.374 . S
C1712 H1686 0.950 . S
C1712 C1708 1.385 . S
C1712 C1711 1.374 . S
C1713 C1710 1.499 . S
C1713 C1714 1.373 . S
C1713 C1715 1.389 . S
C1714 H1687 0.950 . S
C1714 C1700 1.377 . S
C1714 C1713 1.373 . S
C1715 C1699 1.377 . S
C1715 C1713 1.389 . S
C1715 C1716 1.524 . S
C1716 C1715 1.524 . S
C1716 C1717 1.397 . S
C1716 C1721 1.363 . S
C1717 H1688 0.950 . S
C1717 C1716 1.397 . S
C1717 C1718 1.334 . S
C1718 H1689 0.950 . S
C1718 C1717 1.334 . S
C1718 C1719 1.287 . S
C1719 C1718 1.287 . S
C1719 C1720 1.524 . S
C1719 H1722 0.999 . S
C1720 H1690 0.950 . S
C1720 C1719 1.524 . S
C1720 C1721 1.415 . S
C1721 H1691 0.950 . S
C1721 C1716 1.363 . S
C1721 C1720 1.415 . S
H1722 C1719 0.999 . S
H1723 C1704 0.913 . S
H1724 C1742 0.951 . S
H1725 C1744 0.951 . S
H1726 C1746 0.950 . S
H1727 C1747 0.950 . S
H1728 C1749 0.950 . S
H1729 C1752 0.950 . S
H1730 C1753 0.950 . S
H1731 C1755 0.950 . S
H1732 C1756 0.950 . S
H1733 C1757 0.951 . S
H1734 C1759 0.951 . S
H1735 C1761 0.950 . S
H1736 C1762 0.950 . S
H1737 C1764 0.950 . S
H1738 C1767 0.950 . S
H1739 C1768 0.950 . S
H1740 C1770 0.950 . S
H1741 C1771 0.950 . S
C1742 H1724 0.951 . S
C1742 C1743 1.366 . S
C1742 C1744 1.388 . S
C1743 C1742 1.366 . S
C1743 C1747 1.385 . S
C1744 H1725 0.951 . S
C1744 C1742 1.388 . S
C1744 C1745 1.366 . S
C1745 C1744 1.366 . S
C1745 C1746 1.414 . S
C1745 C1748 1.499 . S
C1746 H1726 0.950 . S
C1746 C1745 1.414 . S
C1746 C1747 1.374 . S
C1747 H1727 0.950 . S
C1747 C1743 1.385 . S
C1747 C1746 1.374 . S
C1748 C1745 1.499 . S
C1748 C1749 1.373 . S
C1748 C1750 1.389 . S
C1749 H1728 0.950 . S
C1749 C1748 1.373 . S
C1749 C1765 1.377 . S
C1750 C1748 1.389 . S
C1750 C1751 1.524 . S
C1750 C1764 1.377 . S
C1751 C1750 1.524 . S
C1751 C1752 1.397 . S
C1751 C1756 1.363 . S
C1752 H1729 0.950 . S
C1752 C1751 1.397 . S
C1752 C1753 1.334 . S
C1753 H1730 0.950 . S
C1753 C1752 1.334 . S
C1753 C1754 1.287 . S
C1754 C1753 1.287 . S
C1754 C1755 1.524 . S
C1754 H1773 0.913 . S
C1755 H1731 0.950 . S
C1755 C1754 1.524 . S
C1755 C1756 1.415 . S
C1756 H1732 0.950 . S
C1756 C1751 1.363 . S
C1756 C1755 1.415 . S
C1757 H1733 0.951 . S
C1757 C1758 1.366 . S
C1757 C1759 1.388 . S
C1758 C1757 1.366 . S
C1758 C1762 1.385 . S
C1759 H1734 0.951 . S
C1759 C1757 1.388 . S
C1759 C1760 1.366 . S
C1760 C1759 1.366 . S
C1760 C1761 1.414 . S
C1760 C1763 1.499 . S
C1761 H1735 0.950 . S
C1761 C1760 1.414 . S
C1761 C1762 1.374 . S
C1762 H1736 0.950 . S
C1762 C1758 1.385 . S
C1762 C1761 1.374 . S
C1763 C1760 1.499 . S
C1763 C1764 1.373 . S
C1763 C1765 1.389 . S
C1764 H1737 0.950 . S
C1764 C1750 1.377 . S
C1764 C1763 1.373 . S
C1765 C1749 1.377 . S
C1765 C1763 1.389 . S
C1765 C1766 1.524 . S
C1766 C1765 1.524 . S
C1766 C1767 1.397 . S
C1766 C1771 1.363 . S
C1767 H1738 0.950 . S
C1767 C1766 1.397 . S
C1767 C1768 1.334 . S
C1768 H1739 0.950 . S
C1768 C1767 1.334 . S
C1768 C1769 1.287 . S
C1769 C1768 1.287 . S
C1769 C1770 1.524 . S
C1769 H1772 0.999 . S
C1770 H1740 0.950 . S
C1770 C1769 1.524 . S
C1770 C1771 1.415 . S
C1771 H1741 0.950 . S
C1771 C1766 1.363 . S
C1771 C1770 1.415 . S
H1772 C1769 0.999 . S
H1773 C1754 0.913 . S
H1774 C1792 0.951 . S
H1775 C1794 0.951 . S
H1776 C1796 0.950 . S
H1777 C1797 0.950 . S
H1778 C1799 0.950 . S
H1779 C1802 0.950 . S
H1780 C1803 0.950 . S
H1781 C1805 0.950 . S
H1782 C1806 0.950 . S
H1783 C1807 0.951 . S
H1784 C1809 0.951 . S
H1785 C1811 0.950 . S
H1786 C1812 0.950 . S
H1787 C1814 0.950 . S
H1788 C1817 0.950 . S
H1789 C1818 0.950 . S
H1790 C1820 0.950 . S
H1791 C1821 0.950 . S
C1792 H1774 0.951 . S
C1792 C1793 1.366 . S
C1792 C1794 1.388 . S
C1793 C1792 1.366 . S
C1793 C1797 1.385 . S
C1794 H1775 0.951 . S
C1794 C1792 1.388 . S
C1794 C1795 1.366 . S
C1795 C1794 1.366 . S
C1795 C1796 1.414 . S
C1795 C1798 1.499 . S
C1796 H1776 0.950 . S
C1796 C1795 1.414 . S
C1796 C1797 1.374 . S
C1797 H1777 0.950 . S
C1797 C1793 1.385 . S
C1797 C1796 1.374 . S
C1798 C1795 1.499 . S
C1798 C1799 1.373 . S
C1798 C1800 1.389 . S
C1799 H1778 0.950 . S
C1799 C1798 1.373 . S
C1799 C1815 1.377 . S
C1800 C1798 1.389 . S
C1800 C1801 1.524 . S
C1800 C1814 1.377 . S
C1801 C1800 1.524 . S
C1801 C1802 1.397 . S
C1801 C1806 1.363 . S
C1802 H1779 0.950 . S
C1802 C1801 1.397 . S
C1802 C1803 1.334 . S
C1803 H1780 0.950 . S
C1803 C1802 1.334 . S
C1803 C1804 1.287 . S
C1804 C1803 1.287 . S
C1804 C1805 1.524 . S
C1804 H1823 0.913 . S
C1805 H1781 0.950 . S
C1805 C1804 1.524 . S
C1805 C1806 1.415 . S
C1806 H1782 0.950 . S
C1806 C1801 1.363 . S
C1806 C1805 1.415 . S
C1807 H1783 0.951 . S
C1807 C1808 1.366 . S
C1807 C1809 1.388 . S
C1808 C1807 1.366 . S
C1808 C1812 1.385 . S
C1809 H1784 0.951 . S
C1809 C1807 1.388 . S
C1809 C1810 1.366 . S
C1810 C1809 1.366 . S
C1810 C1811 1.414 . S
C1810 C1813 1.499 . S
C1811 H1785 0.950 . S
C1811 C1810 1.414 . S
C1811 C1812 1.374 . S
C1812 H1786 0.950 . S
C1812 C1808 1.385 . S
C1812 C1811 1.374 . S
C1813 C1810 1.499 . S
C1813 C1814 1.373 . S
C1813 C1815 1.389 . S
C1814 H1787 0.950 . S
C1814 C1800 1.377 . S
C1814 C1813 1.373 . S
C1815 C1799 1.377 . S
C1815 C1813 1.389 . S
C1815 C1816 1.524 . S
C1816 C1815 1.524 . S
C1816 C1817 1.397 . S
C1816 C1821 1.363 . S
C1817 H1788 0.950 . S
C1817 C1816 1.397 . S
C1817 C1818 1.334 . S
C1818 H1789 0.950 . S
C1818 C1817 1.334 . S
C1818 C1819 1.287 . S
C1819 C1818 1.287 . S
C1819 C1820 1.524 . S
C1819 H1822 0.999 . S
C1820 H1790 0.950 . S
C1820 C1819 1.524 . S
C1820 C1821 1.415 . S
C1821 H1791 0.950 . S
C1821 C1816 1.363 . S
C1821 C1820 1.415 . S
H1822 C1819 0.999 . S
H1823 C1804 0.913 . S
C243 C6 0.878 . S
C258 C62 0.878 . S
C293 C76 0.878 . S
C308 C20 0.877 . S
C343 C34 0.879 . S
C358 C90 0.877 . S
C393 C48 0.879 . S
C408 C104 0.877 . S
C443 C118 0.877 . S
C458 C174 0.878 . S
C493 C188 0.877 . S
C508 C132 0.878 . S
C543 C146 0.877 . S
C558 C202 0.878 . S
C593 C160 0.878 . S
C608 C216 0.877 . S
C643 C8 1.732 . S
C658 C219 1.694 . S
C693 C177 1.695 . S
C708 C22 1.732 . S
C743 C36 1.732 . S
C758 C191 1.695 . S
C793 C205 1.695 . S
C808 C50 1.732 . S
C843 C135 1.694 . S
C858 C64 1.731 . S
C893 C149 1.694 . S
C908 C78 1.731 . S
C943 C163 1.694 . S
C958 C92 1.732 . S
C993 C121 1.695 . S
C1008 C106 1.732 . S
C1043 C120 1.732 . S
C1058 C107 1.694 . S
C1093 C65 1.694 . S
C1108 C134 1.732 . S
C1143 C79 1.695 . S
C1158 C148 1.732 . S
C1193 C162 1.732 . S
C1208 C93 1.695 . S
C1243 C23 1.695 . S
C1258 C176 1.732 . S
C1293 C190 1.732 . S
C1308 C37 1.694 . S
C1343 C204 1.732 . S
C1358 C51 1.694 . S
C1393 C218 1.731 . S
C1408 C9 1.694 . S
C1443 C105 1.169 . S
C1458 C7 1.167 . S
C1493 C21 1.169 . S
C1508 C63 1.167 . S
C1543 C35 1.167 . S
C1558 C77 1.169 . S
C1593 C49 1.168 . S
C1608 C91 1.167 . S
C1643 C217 1.167 . S
C1658 C119 1.169 . S
C1693 C175 1.167 . S
C1708 C133 1.168 . S
C1743 C189 1.167 . S
C1758 C147 1.169 . S
C1793 C203 1.169 . S
C1808 C161 1.168 . S
