# Generated by pormake.
# Topology zfg, (5)-cn, num edge types: 1
# Building blocks:
#     Node 0, Type 0, BuildingBlock: XOMCOT_clean_sbu_1, # of connection points: 5
#     Node 1, Type 0, BuildingBlock: XOMCOT_clean_sbu_1, # of connection points: 5
#     Node 2, Type 0, BuildingBlock: XOMCOT_clean_sbu_1, # of connection points: 5
#     Node 3, Type 0, BuildingBlock: XOMCOT_clean_sbu_1, # of connection points: 5
#     Node 4, Type 0, BuildingBlock: XOMCOT_clean_sbu_1, # of connection points: 5
#     Node 5, Type 0, BuildingBlock: XOMCOT_clean_sbu_1, # of connection points: 5
#     Node 6, Type 0, BuildingBlock: XOMCOT_clean_sbu_1, # of connection points: 5
#     Node 7, Type 0, BuildingBlock: XOMCOT_clean_sbu_1, # of connection points: 5
#     Node 8, Type 0, BuildingBlock: XOMCOT_clean_sbu_1, # of connection points: 5
#     Node 9, Type 0, BuildingBlock: XOMCOT_clean_sbu_1, # of connection points: 5
#     Node 10, Type 0, BuildingBlock: XOMCOT_clean_sbu_1, # of connection points: 5
#     Node 11, Type 0, BuildingBlock: XOMCOT_clean_sbu_1, # of connection points: 5
#     Node 12, Type 0, BuildingBlock: XOMCOT_clean_sbu_1, # of connection points: 5
#     Node 13, Type 0, BuildingBlock: XOMCOT_clean_sbu_1, # of connection points: 5
#     Node 14, Type 0, BuildingBlock: XOMCOT_clean_sbu_1, # of connection points: 5
#     Node 15, Type 0, BuildingBlock: XOMCOT_clean_sbu_1, # of connection points: 5
#     Edge 16, Type (0, 0), BuildingBlock: UVAHIK_clean_linker_0, # of connection points: 2
#     Edge 17, Type (0, 0), BuildingBlock: UVAHIK_clean_linker_0, # of connection points: 2
#     Edge 18, Type (0, 0), BuildingBlock: UVAHIK_clean_linker_0, # of connection points: 2
#     Edge 19, Type (0, 0), BuildingBlock: UVAHIK_clean_linker_0, # of connection points: 2
#     Edge 20, Type (0, 0), BuildingBlock: UVAHIK_clean_linker_0, # of connection points: 2
#     Edge 21, Type (0, 0), BuildingBlock: UVAHIK_clean_linker_0, # of connection points: 2
#     Edge 22, Type (0, 0), BuildingBlock: UVAHIK_clean_linker_0, # of connection points: 2
#     Edge 23, Type (0, 0), BuildingBlock: UVAHIK_clean_linker_0, # of connection points: 2
#     Edge 24, Type (0, 0), BuildingBlock: UVAHIK_clean_linker_0, # of connection points: 2
#     Edge 25, Type (0, 0), BuildingBlock: UVAHIK_clean_linker_0, # of connection points: 2
#     Edge 26, Type (0, 0), BuildingBlock: UVAHIK_clean_linker_0, # of connection points: 2
#     Edge 27, Type (0, 0), BuildingBlock: UVAHIK_clean_linker_0, # of connection points: 2
#     Edge 28, Type (0, 0), BuildingBlock: UVAHIK_clean_linker_0, # of connection points: 2
#     Edge 29, Type (0, 0), BuildingBlock: UVAHIK_clean_linker_0, # of connection points: 2
#     Edge 30, Type (0, 0), BuildingBlock: UVAHIK_clean_linker_0, # of connection points: 2
#     Edge 31, Type (0, 0), BuildingBlock: UVAHIK_clean_linker_0, # of connection points: 2
#     Edge 32, Type (0, 0), BuildingBlock: UVAHIK_clean_linker_0, # of connection points: 2
#     Edge 33, Type (0, 0), BuildingBlock: UVAHIK_clean_linker_0, # of connection points: 2
#     Edge 34, Type (0, 0), BuildingBlock: UVAHIK_clean_linker_0, # of connection points: 2
#     Edge 35, Type (0, 0), BuildingBlock: UVAHIK_clean_linker_0, # of connection points: 2
#     Edge 36, Type (0, 0), BuildingBlock: UVAHIK_clean_linker_0, # of connection points: 2
#     Edge 37, Type (0, 0), BuildingBlock: UVAHIK_clean_linker_0, # of connection points: 2
#     Edge 38, Type (0, 0), BuildingBlock: UVAHIK_clean_linker_0, # of connection points: 2
#     Edge 39, Type (0, 0), BuildingBlock: UVAHIK_clean_linker_0, # of connection points: 2
#     Edge 40, Type (0, 0), BuildingBlock: UVAHIK_clean_linker_0, # of connection points: 2
#     Edge 41, Type (0, 0), BuildingBlock: UVAHIK_clean_linker_0, # of connection points: 2
#     Edge 42, Type (0, 0), BuildingBlock: UVAHIK_clean_linker_0, # of connection points: 2
#     Edge 43, Type (0, 0), BuildingBlock: UVAHIK_clean_linker_0, # of connection points: 2
#     Edge 44, Type (0, 0), BuildingBlock: UVAHIK_clean_linker_0, # of connection points: 2
#     Edge 45, Type (0, 0), BuildingBlock: UVAHIK_clean_linker_0, # of connection points: 2
#     Edge 46, Type (0, 0), BuildingBlock: UVAHIK_clean_linker_0, # of connection points: 2
#     Edge 47, Type (0, 0), BuildingBlock: UVAHIK_clean_linker_0, # of connection points: 2
#     Edge 48, Type (0, 0), BuildingBlock: UVAHIK_clean_linker_0, # of connection points: 2
#     Edge 49, Type (0, 0), BuildingBlock: UVAHIK_clean_linker_0, # of connection points: 2
#     Edge 50, Type (0, 0), BuildingBlock: UVAHIK_clean_linker_0, # of connection points: 2
#     Edge 51, Type (0, 0), BuildingBlock: UVAHIK_clean_linker_0, # of connection points: 2
#     Edge 52, Type (0, 0), BuildingBlock: UVAHIK_clean_linker_0, # of connection points: 2
#     Edge 53, Type (0, 0), BuildingBlock: UVAHIK_clean_linker_0, # of connection points: 2
#     Edge 54, Type (0, 0), BuildingBlock: UVAHIK_clean_linker_0, # of connection points: 2
#     Edge 55, Type (0, 0), BuildingBlock: UVAHIK_clean_linker_0, # of connection points: 2
# Relax obj value: 0.105
# Max RMSD: 0.143
# Mean RMSD: 0.143
data_MOF--net-zfg--node1-XOMCOT_clean_sbu_1--edge1-UVAHIK_clean_linker_0
_symmetry_space_group_name_H-M    P1
_symmetry_Int_Tables_number       1
_symmetry_cell_setting            triclinic
loop_
_symmetry_equiv_pos_as_xyz
'x, y, z'
_cell_length_a     53.063195
_cell_length_b     53.033503
_cell_length_c     68.33204
_cell_angle_alpha  90.130208
_cell_angle_beta   89.935567
_cell_angle_gamma 89.792196
loop_
_atom_site_label
_atom_site_type_symbol
_atom_site_fract_x
_atom_site_fract_y
_atom_site_fract_z
_atom_type_partial_charge
C0 C 0.03666 0.25659 0.15749 0.0
C1 C 0.05117 0.23509 0.15786 0.0
N2 N 0.0708 0.23825 0.14558 0.0
N3 N 0.04702 0.27322 0.14499 0.0
C4 C 0.06793 0.26163 0.13807 0.0
H5 H 0.01938 0.25981 0.16554 0.0
Co6 Co 0.03307 0.30432 0.13853 0.0
C7 C 0.06411 0.31752 0.10373 0.0
O8 O 0.07337 0.3374 0.11264 0.0
N9 N 0.01894 0.33542 0.13204 0.0
C10 C 0.00042 0.36635 0.11555 0.0
C11 C 0.00861 0.34178 0.11471 0.0
C12 C 0.01663 0.3563 0.14325 0.0
N13 N 0.00548 0.37553 0.13354 0.0
O14 O 0.0614 0.32093 0.15059 0.0
H15 H 0.00729 0.32937 0.10217 0.0
H16 H 0.0229 0.35729 0.15828 0.0
O17 O 0.04897 0.30303 0.11284 0.0
C18 C 0.05886 0.31978 0.16916 0.0
O19 O 0.03863 0.30899 0.17637 0.0
N20 N 0.00472 0.28775 0.12878 0.0
C21 C 0.96319 0.2566 0.12317 0.0
C22 C 0.98528 0.25306 0.11215 0.0
C23 C 0.00594 0.26882 0.11524 0.0
C24 C 0.98305 0.29224 0.13892 0.0
C25 C 0.96196 0.27702 0.13623 0.0
H26 H 0.02345 0.26452 0.10788 0.0
H27 H 0.98267 0.30674 0.15008 0.0
H28 H 0.08038 0.26988 0.12733 0.0
H29 H 0.04753 0.21844 0.16653 0.0
H30 H 0.99196 0.37676 0.10364 0.0
H31 H 0.987 0.2375 0.10194 0.0
H32 H 0.94549 0.28016 0.1453 0.0
C33 C 0.75347 0.03629 0.16829 0.0
C34 C 0.7755 0.04983 0.16941 0.0
N35 N 0.77275 0.07096 0.15869 0.0
N36 N 0.73704 0.04876 0.15678 0.0
C37 C 0.74919 0.06991 0.15133 0.0
H38 H 0.74982 0.01822 0.17502 0.0
Co39 Co 0.70535 0.03772 0.14915 0.0
C40 C 0.69409 0.07182 0.11606 0.0
O41 O 0.67415 0.08028 0.12545 0.0
N42 N 0.67357 0.02667 0.1412 0.0
C43 C 0.64291 0.01256 0.12206 0.0
C44 C 0.66815 0.01769 0.12319 0.0
C45 C 0.65134 0.02651 0.15088 0.0
N46 N 0.63234 0.0182 0.13945 0.0
O47 O 0.69032 0.06605 0.16287 0.0
H48 H 0.68168 0.01537 0.11147 0.0
H49 H 0.64893 0.03303 0.16577 0.0
O50 O 0.70851 0.05577 0.12434 0.0
C51 C 0.69 0.06005 0.18099 0.0
O52 O 0.69839 0.03756 0.18585 0.0
N53 N 0.72013 0.00897 0.13807 0.0
C54 C 0.74537 0.96408 0.12931 0.0
C55 C 0.75214 0.98675 0.12008 0.0
C56 C 0.73926 0.0091 0.1247 0.0
C57 C 0.71282 0.98707 0.1467 0.0
C58 C 0.72485 0.9644 0.14229 0.0
H59 H 0.74564 0.02666 0.11846 0.0
H60 H 0.69806 0.98738 0.15764 0.0
H61 H 0.74123 0.08387 0.14158 0.0
H62 H 0.79229 0.04444 0.17739 0.0
H63 H 0.63307 0.00528 0.10939 0.0
H64 H 0.7681 0.98753 0.11022 0.0
H65 H 0.7186 0.94739 0.14954 0.0
C66 C 0.9527 0.7613 0.17909 0.0
C67 C 0.93792 0.78115 0.17328 0.0
N68 N 0.92297 0.77325 0.15861 0.0
N69 N 0.94725 0.74089 0.16812 0.0
C70 C 0.92881 0.74865 0.15585 0.0
H71 H 0.96689 0.76179 0.19042 0.0
Co72 Co 0.96509 0.71084 0.17048 0.0
C73 C 0.96443 0.687 0.13124 0.0
O74 O 0.98782 0.67977 0.13426 0.0
N75 N 0.9832 0.68031 0.17384 0.0
C76 C 0.01125 0.65102 0.18239 0.0
C77 C 0.00655 0.67639 0.18118 0.0
C78 C 0.97397 0.65674 0.17117 0.0
N79 N 0.99075 0.63861 0.1761 0.0
O80 O 0.93699 0.69566 0.18359 0.0
H81 H 0.01961 0.69062 0.18585 0.0
H82 H 0.95512 0.65299 0.16589 0.0
O83 O 0.95277 0.69954 0.14455 0.0
C84 C 0.93757 0.70135 0.20173 0.0
O85 O 0.9555 0.71635 0.20798 0.0
N86 N 0.99308 0.72728 0.1594 0.0
C87 C 0.03345 0.75805 0.14913 0.0
C88 C 0.01511 0.75171 0.13525 0.0
C89 C 0.99481 0.7365 0.14075 0.0
C90 C 0.00982 0.73494 0.17326 0.0
C91 C 0.03058 0.74957 0.16835 0.0
H92 H 0.97996 0.73345 0.13026 0.0
H93 H 0.00651 0.73038 0.18846 0.0
H94 H 0.92028 0.73678 0.14483 0.0
H95 H 0.93809 0.79997 0.17945 0.0
H96 H 0.0286 0.64241 0.18739 0.0
H97 H 0.01615 0.75895 0.12046 0.0
H98 H 0.04362 0.75525 0.17972 0.0
C99 C 0.24858 0.97247 0.17929 0.0
C100 C 0.22605 0.95976 0.18021 0.0
N101 N 0.22837 0.93838 0.16968 0.0
N102 N 0.26481 0.95927 0.16802 0.0
C103 C 0.2521 0.9384 0.16262 0.0
H104 H 0.25255 0.99071 0.18568 0.0
Co105 Co 0.29619 0.97028 0.15974 0.0
C106 C 0.30786 0.93467 0.12764 0.0
O107 O 0.32813 0.9273 0.13708 0.0
N108 N 0.32763 0.98154 0.1512 0.0
C109 C 0.35727 0.99693 0.13173 0.0
C110 C 0.33258 0.98971 0.1329 0.0
C111 C 0.34964 0.98405 0.16093 0.0
N112 N 0.36803 0.99344 0.14936 0.0
O113 O 0.31176 0.94291 0.17401 0.0
H114 H 0.31905 0.99029 0.12109 0.0
H115 H 0.35211 0.97933 0.17619 0.0
O116 O 0.29311 0.9508 0.13556 0.0
C117 C 0.31283 0.94978 0.19194 0.0
O118 O 0.30487 0.9726 0.19636 0.0
N119 N 0.28074 0.99809 0.14795 0.0
C120 C 0.25372 0.04153 0.13834 0.0
C121 C 0.24774 0.01821 0.12971 0.0
C122 C 0.26151 0.99662 0.13475 0.0
C123 C 0.28737 0.02064 0.15593 0.0
C124 C 0.2744 0.04263 0.15111 0.0
H125 H 0.25566 0.97856 0.12904 0.0
H126 H 0.30223 0.0214 0.16674 0.0
H127 H 0.2596 0.92413 0.15286 0.0
H128 H 0.20911 0.966 0.18765 0.0
H129 H 0.3667 0.00368 0.11871 0.0
H130 H 0.2317 0.01634 0.12005 0.0
H131 H 0.28003 0.0602 0.15788 0.0
C132 C 0.54758 0.24898 0.35042 0.0
C133 C 0.56258 0.27001 0.34969 0.0
N134 N 0.58035 0.26793 0.36367 0.0
N135 N 0.5559 0.23365 0.36473 0.0
C136 C 0.57591 0.24567 0.37257 0.0
H137 H 0.53128 0.24529 0.34139 0.0
Co138 Co 0.54053 0.20361 0.37159 0.0
C139 C 0.56949 0.18668 0.40601 0.0
O140 O 0.57442 0.16532 0.39697 0.0
N141 N 0.52468 0.17339 0.37854 0.0
C142 C 0.50144 0.14554 0.39477 0.0
C143 C 0.51101 0.16955 0.39498 0.0
C144 C 0.52348 0.15127 0.36873 0.0
N145 N 0.50939 0.13415 0.3783 0.0
O146 O 0.56767 0.18529 0.35885 0.0
H147 H 0.50818 0.18337 0.40645 0.0
H148 H 0.5325 0.14768 0.35481 0.0
O149 O 0.55716 0.20386 0.39709 0.0
C150 C 0.56249 0.18504 0.34056 0.0
O151 O 0.54085 0.19482 0.33503 0.0
N152 N 0.51336 0.22204 0.38166 0.0
C153 C 0.47197 0.25293 0.38951 0.0
C154 C 0.49452 0.2558 0.40002 0.0
C155 C 0.51511 0.24011 0.39585 0.0
C156 C 0.49154 0.21879 0.37151 0.0
C157 C 0.47052 0.23381 0.37536 0.0
H158 H 0.53274 0.24334 0.40329 0.0
H159 H 0.49077 0.20499 0.35984 0.0
H160 H 0.58694 0.23833 0.3846 0.0
H161 H 0.56008 0.28597 0.34003 0.0
H162 H 0.49 0.13688 0.40602 0.0
H163 H 0.49644 0.27047 0.41096 0.0
H164 H 0.45372 0.23132 0.36659 0.0
C165 C 0.74888 0.54446 0.3695 0.0
C166 C 0.72703 0.55843 0.37009 0.0
N167 N 0.7305 0.57798 0.38241 0.0
N168 N 0.76601 0.55506 0.38149 0.0
C169 C 0.75437 0.57558 0.38903 0.0
H170 H 0.75206 0.52751 0.36101 0.0
Co171 Co 0.79812 0.54228 0.38621 0.0
C172 C 0.80985 0.57141 0.42238 0.0
O173 O 0.82731 0.5845 0.41335 0.0
N174 N 0.83017 0.52937 0.39094 0.0
C175 C 0.86274 0.51055 0.40512 0.0
C176 C 0.83825 0.51836 0.40757 0.0
C177 C 0.84997 0.52795 0.37855 0.0
N178 N 0.87012 0.51655 0.38683 0.0
O179 O 0.81271 0.57259 0.37577 0.0
H180 H 0.82696 0.51597 0.42062 0.0
H181 H 0.84943 0.53473 0.36364 0.0
O182 O 0.79704 0.55516 0.4129 0.0
C183 C 0.81068 0.57215 0.35715 0.0
O184 O 0.79963 0.55273 0.34887 0.0
N185 N 0.7838 0.51195 0.39427 0.0
C186 C 0.75628 0.46755 0.39708 0.0
C187 C 0.75183 0.48753 0.41017 0.0
C188 C 0.76577 0.50977 0.40844 0.0
C189 C 0.78929 0.49224 0.38219 0.0
C190 C 0.77593 0.46977 0.38346 0.0
H191 H 0.76074 0.5258 0.41743 0.0
H192 H 0.80312 0.49451 0.3707 0.0
H193 H 0.76307 0.58823 0.39946 0.0
H194 H 0.70999 0.55459 0.36193 0.0
H195 H 0.87429 0.50145 0.41608 0.0
H196 H 0.73657 0.48668 0.42068 0.0
H197 H 0.7801 0.45473 0.3732 0.0
C198 C 0.45596 0.75229 0.35931 0.0
C199 C 0.44255 0.7303 0.35765 0.0
N200 N 0.42295 0.7314 0.37018 0.0
N201 N 0.44485 0.76722 0.37278 0.0
C202 C 0.42476 0.75402 0.37919 0.0
H203 H 0.4729 0.75708 0.35134 0.0
Co204 Co 0.45663 0.79882 0.37988 0.0
C205 C 0.42588 0.81065 0.41497 0.0
O206 O 0.41695 0.83095 0.4064 0.0
N207 N 0.46871 0.83056 0.38694 0.0
C208 C 0.4878 0.86151 0.40306 0.0
C209 C 0.48085 0.83659 0.40367 0.0
C210 C 0.46827 0.85213 0.37649 0.0
N211 N 0.47978 0.87118 0.38598 0.0
O212 O 0.42729 0.8141 0.36784 0.0
H213 H 0.48456 0.82361 0.41552 0.0
H214 H 0.46007 0.85386 0.36207 0.0
O215 O 0.44077 0.79604 0.40556 0.0
C216 C 0.43093 0.81417 0.34933 0.0
O217 O 0.45242 0.80522 0.34265 0.0
N218 N 0.48604 0.78372 0.38942 0.0
C219 C 0.53081 0.75742 0.39623 0.0
C220 C 0.50867 0.75127 0.40645 0.0
C221 C 0.4864 0.76464 0.40278 0.0
C222 C 0.50744 0.79037 0.37972 0.0
C223 C 0.53008 0.77776 0.38312 0.0
H224 H 0.46918 0.75862 0.40976 0.0
H225 H 0.5067 0.80504 0.36876 0.0
H226 H 0.41162 0.76092 0.3901 0.0
H227 H 0.44717 0.71451 0.34822 0.0
H228 H 0.49761 0.87185 0.41439 0.0
H229 H 0.50816 0.73542 0.4164 0.0
H230 H 0.5467 0.78346 0.37508 0.0
C231 C 0.24834 0.45735 0.34352 0.0
C232 C 0.27095 0.44466 0.34365 0.0
N233 N 0.26915 0.42535 0.35635 0.0
N234 N 0.23235 0.44617 0.35612 0.0
C235 C 0.24548 0.42654 0.36359 0.0
H236 H 0.24408 0.47428 0.33535 0.0
Co237 Co 0.20093 0.45915 0.36298 0.0
C238 C 0.18623 0.42627 0.39574 0.0
O239 O 0.16588 0.41969 0.38609 0.0
N240 N 0.1696 0.47252 0.37001 0.0
C241 C 0.13953 0.491 0.38757 0.0
C242 C 0.164 0.48264 0.38763 0.0
C243 C 0.14821 0.47494 0.35944 0.0
N244 N 0.12959 0.48619 0.36983 0.0
O245 O 0.1848 0.43159 0.34951 0.0
H246 H 0.17691 0.48379 0.39984 0.0
H247 H 0.14639 0.46882 0.3444 0.0
O248 O 0.202 0.44122 0.38781 0.0
C249 C 0.18567 0.43573 0.33111 0.0
O250 O 0.19612 0.45667 0.32494 0.0
N251 N 0.21692 0.487 0.374 0.0
C252 C 0.24602 0.52936 0.38172 0.0
C253 C 0.24904 0.50738 0.39289 0.0
C254 C 0.23437 0.48617 0.38866 0.0
C255 C 0.21292 0.50857 0.3637 0.0
C256 C 0.22716 0.53003 0.36739 0.0
H257 H 0.23821 0.46875 0.39625 0.0
H258 H 0.19946 0.50865 0.35182 0.0
H259 H 0.23833 0.41414 0.37483 0.0
H260 H 0.28759 0.44955 0.33533 0.0
H261 H 0.12966 0.49947 0.39981 0.0
H262 H 0.2637 0.50605 0.40386 0.0
H263 H 0.2242 0.54668 0.35852 0.0
C264 C 0.95619 0.7448 0.87076 0.0
C265 C 0.94188 0.76644 0.87098 0.0
N266 N 0.92293 0.76339 0.8839 0.0
N267 N 0.94637 0.72816 0.88352 0.0
C268 C 0.926 0.73991 0.8912 0.0
H269 H 0.97293 0.74147 0.86208 0.0
Co270 Co 0.96026 0.69675 0.88922 0.0
C271 C 0.93148 0.68214 0.92421 0.0
O272 O 0.92325 0.66218 0.9148 0.0
N273 N 0.97437 0.66532 0.89505 0.0
C274 C 0.99409 0.63454 0.91088 0.0
C275 C 0.98664 0.65932 0.9117 0.0
C276 C 0.97467 0.64392 0.8843 0.0
N277 N 0.98654 0.62482 0.89364 0.0
O278 O 0.93119 0.68069 0.87794 0.0
H279 H 0.9897 0.67212 0.92381 0.0
H280 H 0.96643 0.64239 0.86988 0.0
O281 O 0.94568 0.69783 0.91539 0.0
C282 C 0.93307 0.68202 0.85934 0.0
O283 O 0.95307 0.69278 0.85175 0.0
N284 N 0.98935 0.71271 0.89795 0.0
C285 C 0.03184 0.743 0.90092 0.0
C286 C 0.01142 0.74646 0.91375 0.0
C287 C 0.99013 0.73111 0.91195 0.0
C288 C 0.00958 0.70817 0.8862 0.0
C289 C 0.03112 0.72293 0.88755 0.0
H290 H 0.97366 0.73528 0.9207 0.0
H291 H 0.00836 0.69397 0.87484 0.0
H292 H 0.91406 0.73167 0.9023 0.0
H293 H 0.94517 0.78309 0.86223 0.0
H294 H 0.00372 0.62432 0.92236 0.0
H295 H 0.01114 0.76196 0.92409 0.0
H296 H 0.04658 0.71947 0.87752 0.0
C297 C 0.2514 0.95413 0.85931 0.0
C298 C 0.23012 0.93963 0.85721 0.0
N299 N 0.23001 0.92219 0.87153 0.0
N300 N 0.26463 0.9458 0.87482 0.0
C301 C 0.25124 0.92624 0.8819 0.0
H302 H 0.25663 0.97014 0.85043 0.0
Co303 Co 0.29379 0.96045 0.88426 0.0
C304 C 0.30677 0.9276 0.91759 0.0
O305 O 0.3279 0.92142 0.90875 0.0
N306 N 0.32319 0.97543 0.89386 0.0
C307 C 0.35008 0.99396 0.91413 0.0
C308 C 0.32622 0.98447 0.91219 0.0
C309 C 0.34541 0.97992 0.88487 0.0
N310 N 0.36218 0.99111 0.89692 0.0
O311 O 0.31317 0.93407 0.87163 0.0
H312 H 0.31199 0.98398 0.92353 0.0
H313 H 0.34923 0.97526 0.86977 0.0
O314 O 0.29101 0.94197 0.9089 0.0
C315 C 0.31787 0.9403 0.85396 0.0
O316 O 0.31031 0.96252 0.84779 0.0
N317 N 0.27461 0.987 0.89457 0.0
C318 C 0.24426 0.0283 0.90387 0.0
C319 C 0.23921 0.00448 0.91184 0.0
C320 C 0.25475 0.98399 0.90707 0.0
C321 C 0.27979 0.01002 0.88676 0.0
C322 C 0.2651 0.03102 0.89146 0.0
H323 H 0.25015 0.96556 0.9127 0.0
H324 H 0.29506 0.01194 0.87637 0.0
H325 H 0.25678 0.91531 0.89453 0.0
H326 H 0.21544 0.94231 0.84642 0.0
H327 H 0.35803 0.00174 0.9274 0.0
H328 H 0.2231 0.00164 0.92133 0.0
H329 H 0.26928 0.04897 0.88468 0.0
C330 C 0.06238 0.25191 0.83671 0.0
C331 C 0.07763 0.23146 0.84027 0.0
N332 N 0.08457 0.23212 0.8592 0.0
N333 N 0.05962 0.26533 0.85334 0.0
C334 C 0.07353 0.25291 0.86683 0.0
H335 H 0.05294 0.25614 0.82309 0.0
Co336 Co 0.03684 0.2917 0.85543 0.0
C337 C 0.03418 0.30525 0.89724 0.0
O338 O 0.00976 0.30797 0.89482 0.0
N339 N 0.01347 0.31894 0.85684 0.0
C340 C 0.97991 0.34413 0.85458 0.0
C341 C 0.98841 0.31972 0.85322 0.0
C342 C 0.01958 0.34331 0.86038 0.0
N343 N -0.00043 0.35903 0.85898 0.0
O344 O 0.0615 0.31413 0.84438 0.0
H345 H 0.97664 0.30392 0.84955 0.0
H346 H 0.03859 0.34948 0.86341 0.0
O347 O 0.04803 0.2989 0.88262 0.0
C348 C 0.05561 0.31681 0.82637 0.0
O349 O 0.03548 0.30514 0.81984 0.0
N350 N 0.0126 0.26822 0.86353 0.0
C351 C 0.97719 0.22967 0.86727 0.0
C352 C 0.9933 0.23577 0.88288 0.0
C353 C 0.01134 0.25477 0.88056 0.0
C354 C 0.99825 0.26133 0.84793 0.0
C355 C 0.98 0.24275 0.84961 0.0
H356 H 0.02473 0.2578 0.89217 0.0
H357 H 0.00087 0.27067 0.83403 0.0
H358 H 0.07438 0.25805 0.88215 0.0
H359 H 0.08276 0.21687 0.82987 0.0
H360 H 0.96068 0.35037 0.85243 0.0
H361 H 0.99255 0.22542 0.89651 0.0
H362 H 0.96816 0.23881 0.83708 0.0
C363 C 0.74587 0.02665 0.85268 0.0
C364 C 0.76893 0.03786 0.84985 0.0
N365 N 0.76892 0.06003 0.8595 0.0
N366 N 0.73161 0.04159 0.86425 0.0
C367 C 0.74601 0.06196 0.86795 0.0
H368 H 0.7402 0.0083 0.84736 0.0
Co369 Co 0.70059 0.03308 0.87478 0.0
C370 C 0.69327 0.07124 0.90582 0.0
O371 O 0.67289 0.07922 0.89683 0.0
N372 N 0.66944 0.0244 0.88568 0.0
C373 C 0.6407 0.01496 0.90814 0.0
C374 C 0.66593 0.0179 0.9046 0.0
C375 C 0.64603 0.02477 0.87789 0.0
N376 N 0.62826 0.01933 0.89136 0.0
O377 O 0.68509 0.0601 0.85985 0.0
H378 H 0.68079 0.01617 0.91534 0.0
H379 H 0.64189 0.02989 0.86293 0.0
O380 O 0.70682 0.05415 0.89781 0.0
C381 C 0.6813 0.05114 0.84271 0.0
O382 O 0.68754 0.02745 0.83957 0.0
N383 N 0.7157 0.00544 0.88712 0.0
C384 C 0.74203 0.96162 0.89684 0.0
C385 C 0.74973 0.98519 0.90409 0.0
C386 C 0.7363 0.00697 0.89901 0.0
C387 C 0.70734 0.98268 0.88062 0.0
C388 C 0.71999 0.96052 0.88553 0.0
H389 H 0.74347 0.02511 0.9035 0.0
H390 H 0.69137 0.98184 0.87082 0.0
H391 H 0.74034 0.07733 0.87744 0.0
H392 H 0.78464 0.03012 0.84166 0.0
H393 H 0.6321 0.01028 0.92204 0.0
H394 H 0.76684 0.98704 0.91258 0.0
H395 H 0.71306 0.94277 0.87986 0.0
C396 C 0.43743 0.75323 0.68552 0.0
C397 C 0.42219 0.73248 0.68396 0.0
N398 N 0.41517 0.72992 0.66508 0.0
N399 N 0.44004 0.76378 0.66776 0.0
C400 C 0.42628 0.74926 0.65556 0.0
H401 H 0.44664 0.75988 0.69865 0.0
Co402 Co 0.46093 0.7908 0.66348 0.0
C403 C 0.45882 0.8023 0.62118 0.0
O404 O 0.48317 0.80643 0.62208 0.0
N405 N 0.48247 0.81887 0.65987 0.0
C406 C 0.51473 0.84556 0.65812 0.0
C407 C 0.50787 0.82092 0.66092 0.0
C408 C 0.47448 0.84274 0.6565 0.0
N409 N 0.49368 0.85925 0.65545 0.0
O410 O 0.43571 0.81264 0.67514 0.0
H411 H 0.52104 0.80591 0.66376 0.0
H412 H 0.45487 0.84797 0.65484 0.0
O413 O 0.44681 0.79584 0.6367 0.0
C414 C 0.44192 0.81941 0.69243 0.0
O415 O 0.46402 0.81247 0.69924 0.0
N416 N 0.48575 0.76803 0.65453 0.0
C417 C 0.52476 0.73392 0.64722 0.0
C418 C 0.50545 0.73738 0.63348 0.0
C419 C 0.48577 0.75422 0.63759 0.0
C420 C 0.50288 0.76274 0.66879 0.0
C421 C 0.52298 0.74638 0.66525 0.0
H422 H 0.47048 0.75562 0.62728 0.0
H423 H 0.50132 0.77204 0.68285 0.0
H424 H 0.42478 0.75258 0.64 0.0
H425 H 0.41749 0.71977 0.69576 0.0
H426 H 0.5337 0.85298 0.65869 0.0
H427 H 0.5056 0.72727 0.61969 0.0
H428 H 0.53688 0.74332 0.67661 0.0
C429 C 0.24468 0.45919 0.66007 0.0
C430 C 0.26624 0.44517 0.66267 0.0
N431 N 0.26604 0.42598 0.64972 0.0
N432 N 0.23087 0.44883 0.64563 0.0
C433 C 0.24435 0.42859 0.63959 0.0
H434 H 0.23961 0.47623 0.6679 0.0
Co435 Co 0.20075 0.46222 0.6364 0.0
C436 C 0.18757 0.42674 0.60497 0.0
O437 O 0.16685 0.421 0.61449 0.0
N438 N 0.17049 0.47602 0.62709 0.0
C439 C 0.14182 0.49326 0.60751 0.0
C440 C 0.16574 0.48336 0.60855 0.0
C441 C 0.14929 0.48192 0.63708 0.0
N442 N 0.13146 0.49235 0.6255 0.0
O443 O 0.18264 0.43662 0.6506 0.0
H444 H 0.17892 0.48172 0.59652 0.0
H445 H 0.14711 0.47912 0.65264 0.0
O446 O 0.20319 0.44211 0.61262 0.0
C447 C 0.18013 0.44493 0.66806 0.0
O448 O 0.189 0.46749 0.67204 0.0
N449 N 0.21865 0.48834 0.62485 0.0
C450 C 0.25132 0.52844 0.61897 0.0
C451 C 0.25523 0.50546 0.60916 0.0
C452 C 0.23859 0.48543 0.61238 0.0
C453 C 0.21368 0.51103 0.63336 0.0
C454 C 0.22958 0.53143 0.63042 0.0
H455 H 0.24293 0.46714 0.60622 0.0
H456 H 0.19824 0.51281 0.64363 0.0
H457 H 0.23849 0.41607 0.62795 0.0
H458 H 0.28129 0.44927 0.67287 0.0
H459 H 0.13271 0.50025 0.59444 0.0
H460 H 0.27197 0.50238 0.60039 0.0
H461 H 0.2258 0.54893 0.6381 0.0
C462 C 0.53963 0.24175 0.67211 0.0
C463 C 0.5543 0.26301 0.67338 0.0
N464 N 0.57422 0.25998 0.66137 0.0
N465 N 0.55019 0.22561 0.6592 0.0
C466 C 0.57142 0.23707 0.65309 0.0
H467 H 0.52193 0.23858 0.67956 0.0
Co468 Co 0.53576 0.19597 0.65052 0.0
C469 C 0.56756 0.18223 0.6166 0.0
O470 O 0.57297 0.16069 0.62512 0.0
N471 N 0.52086 0.16623 0.64159 0.0
C472 C 0.50216 0.13844 0.62214 0.0
C473 C 0.51103 0.16262 0.6236 0.0
C474 C 0.51741 0.1441 0.6509 0.0
N475 N 0.5062 0.12674 0.63934 0.0
O476 O 0.56247 0.17712 0.66328 0.0
H477 H 0.51072 0.17661 0.6121 0.0
H478 H 0.52298 0.14075 0.66587 0.0
O479 O 0.55389 0.19836 0.62563 0.0
C480 C 0.55587 0.17455 0.68117 0.0
O481 O 0.53394 0.1839 0.68655 0.0
N482 N 0.50884 0.21454 0.64047 0.0
C483 C 0.46793 0.24662 0.63469 0.0
C484 C 0.49004 0.2495 0.62363 0.0
C485 C 0.51052 0.2333 0.62689 0.0
C486 C 0.4871 0.21077 0.65062 0.0
C487 C 0.46637 0.22651 0.6479 0.0
H488 H 0.52811 0.23687 0.61945 0.0
H489 H 0.48634 0.19622 0.66168 0.0
H490 H 0.58401 0.22933 0.64214 0.0
H491 H 0.55044 0.27955 0.68222 0.0
H492 H 0.49411 0.12998 0.60917 0.0
H493 H 0.49205 0.26504 0.6135 0.0
H494 H 0.44958 0.22358 0.65663 0.0
C495 C 0.74819 0.53794 0.68307 0.0
C496 C 0.72624 0.55058 0.67907 0.0
N497 N 0.73068 0.56657 0.66424 0.0
N498 N 0.76636 0.54567 0.67066 0.0
C499 C 0.75519 0.56347 0.65943 0.0
H500 H 0.75059 0.52343 0.694 0.0
Co501 Co 0.79791 0.53035 0.66994 0.0
C502 C 0.81412 0.53169 0.62873 0.0
O503 O 0.8225 0.50857 0.63124 0.0
N504 N 0.83012 0.51478 0.67007 0.0
C505 C 0.86287 0.48925 0.67516 0.0
C506 C 0.83717 0.49147 0.67601 0.0
C507 C 0.85221 0.52636 0.66586 0.0
N508 N 0.87235 0.51122 0.66884 0.0
O509 O 0.81263 0.5596 0.68186 0.0
H510 H 0.82501 0.47672 0.6811 0.0
H511 H 0.8535 0.54577 0.66111 0.0
O512 O 0.80398 0.54345 0.64317 0.0
C513 C 0.80935 0.55773 0.7003 0.0
O514 O 0.79728 0.53798 0.70706 0.0
N515 N 0.78202 0.50109 0.66045 0.0
C516 C 0.75146 0.45901 0.65409 0.0
C517 C 0.75414 0.47756 0.6396 0.0
C518 C 0.76912 0.49874 0.64322 0.0
C519 C 0.77842 0.48394 0.67495 0.0
C520 C 0.76415 0.46238 0.67188 0.0
H521 H 0.76891 0.5138 0.63264 0.0
H522 H 0.78598 0.48752 0.68938 0.0
H523 H 0.76445 0.57322 0.64754 0.0
H524 H 0.7083 0.54813 0.68637 0.0
H525 H 0.87374 0.47264 0.67892 0.0
H526 H 0.74373 0.47644 0.626 0.0
H527 H 0.7626 0.44886 0.68366 0.0
C528 C 0.02823 0.29597 0.93257 0.0
C529 C 0.04402 0.30469 0.91752 0.0
C530 C 0.03638 0.29574 0.95195 0.0
C531 C 0.07374 0.32817 0.98715 0.0
H532 H 0.06731 0.26703 0.01775 0.0
C533 C 0.0854 0.32871 0.07186 0.0
C534 C 0.06823 0.31376 0.08237 0.0
C535 C 0.08759 0.32634 0.05144 0.0
C536 C 0.06904 0.28437 1.00952 0.0
H537 H 0.08086 0.31996 0.911 0.0
H538 H 0.09493 0.32051 0.94546 0.0
H539 H 0.06174 0.26543 0.98237 0.0
H540 H 0.04007 0.28446 0.07946 0.0
H541 H 0.04336 0.28076 0.0443 0.0
H542 H 0.07936 0.34751 1.01435 0.0
C543 C 0.07633 0.3135 0.94196 0.0
C544 C 0.0661 0.28334 0.98921 0.0
C545 C 0.06834 0.31311 0.92232 0.0
C546 C 0.0537 0.29611 0.072 0.0
C547 C 0.05573 0.29388 0.05168 0.0
C548 C 0.0763 0.3293 1.00758 0.0
C549 C 0.06036 0.30472 0.95692 0.0
C550 C 0.06784 0.3053 0.97786 0.0
C551 C 0.07256 0.30906 0.04102 0.0
C552 C 0.07328 0.3075 0.01912 0.0
H553 H 0.00946 0.28914 0.92934 0.0
H554 H 0.02365 0.28903 0.96319 0.0
H555 H 0.07494 0.34541 0.97874 0.0
H556 H 0.09693 0.34248 0.07935 0.0
H557 H 0.101 0.33815 0.04385 0.0
C558 C 0.68018 0.09341 0.93683 0.0
C559 C 0.69731 0.07768 0.92683 0.0
C560 C 0.68171 0.09653 0.95717 0.0
C561 C 0.72326 0.08621 1.00059 0.0
H562 H 0.65977 0.08318 0.02859 0.0
C563 C 0.71675 0.06584 0.08394 0.0
C564 C 0.6974 0.07746 0.09485 0.0
C565 C 0.71814 0.06884 0.06359 0.0
C566 C 0.67769 0.08449 0.02106 0.0
H567 H 0.73027 0.05384 0.93049 0.0
H568 H 0.73284 0.05914 0.96583 0.0
H569 H 0.65987 0.08342 0.993 0.0
H570 H 0.66493 0.10227 0.09282 0.0
H571 H 0.66757 0.1078 0.05746 0.0
H572 H 0.74107 0.08688 0.02874 0.0
C573 C 0.71827 0.06923 0.95797 0.0
C574 C 0.67775 0.08462 1.00057 0.0
C575 C 0.71673 0.06611 0.93762 0.0
C576 C 0.68004 0.09292 0.08493 0.0
C577 C 0.68143 0.09594 0.06459 0.0
C578 C 0.7232 0.08608 0.02112 0.0
C579 C 0.70043 0.08403 0.9681 0.0
C580 C 0.70052 0.0853 0.99 0.0
C581 C 0.70021 0.08357 0.05356 0.0
C582 C 0.70041 0.08503 0.03167 0.0
H583 H 0.66501 0.10271 0.92905 0.0
H584 H 0.66793 0.10847 0.96438 0.0
H585 H 0.74116 0.08709 0.993 0.0
H586 H 0.73046 0.05377 0.09102 0.0
H587 H 0.73274 0.05882 0.05565 0.0
C588 C 0.91386 0.66598 0.95595 0.0
C589 C 0.9275 0.68442 0.94569 0.0
C590 C 0.91251 0.66652 0.97642 0.0
C591 C 0.92456 0.7069 0.02028 0.0
H592 H 0.93515 0.64269 0.04604 0.0
C593 C 0.96556 0.66775 0.09785 0.0
C594 C 0.95375 0.68409 0.11128 0.0
C595 C 0.95794 0.66695 0.07831 0.0
C596 C 0.93216 0.66079 0.03911 0.0
H597 H 0.94953 0.71853 0.94903 0.0
H598 H 0.94747 0.7193 0.9846 0.0
H599 H 0.93024 0.64402 1.01066 0.0
H600 H 0.92394 0.7118 0.11473 0.0
H601 H 0.91049 0.71034 0.08047 0.0
H602 H 0.92761 0.72373 0.04872 0.0
C603 C 0.93757 0.70452 0.97686 0.0
C604 C 0.92904 0.66154 0.01879 0.0
C605 C 0.93888 0.70399 0.95639 0.0
C606 C 0.93343 0.69897 0.1048 0.0
C607 C 0.92587 0.69829 0.08512 0.0
C608 C 0.92766 0.70614 0.04064 0.0
C609 C 0.92479 0.68551 0.98718 0.0
C610 C 0.92566 0.68465 1.00903 0.0
C611 C 0.93831 0.68253 0.07156 0.0
C612 C 0.93202 0.68311 0.05027 0.0
H613 H 0.90472 0.6507 0.94821 0.0
H614 H 0.90213 0.65181 0.98383 0.0
H615 H 0.92165 0.725 1.01332 0.0
H616 H 0.98124 0.65597 0.10232 0.0
H617 H 0.96818 0.65479 0.0683 0.0
C618 C 0.32181 0.90801 0.94898 0.0
C619 C 0.30352 0.92204 0.9388 0.0
C620 C 0.32059 0.90552 0.96936 0.0
C621 C 0.27856 0.91435 1.01278 0.0
H622 H 0.34182 0.92239 0.04038 0.0
C623 C 0.28445 0.938 0.0957 0.0
C624 C 0.30453 0.92789 0.10663 0.0
C625 C 0.28302 0.93415 0.07543 0.0
C626 C 0.324 0.91969 0.03297 0.0
H627 H 0.26897 0.94362 0.94219 0.0
H628 H 0.26697 0.93948 0.97765 0.0
H629 H 0.34158 0.92116 1.00481 0.0
H630 H 0.33825 0.90477 0.10479 0.0
H631 H 0.33558 0.89779 0.06958 0.0
H632 H 0.26098 0.91334 0.04104 0.0
C633 C 0.28219 0.93017 0.96988 0.0
C634 C 0.32386 0.91897 1.01249 0.0
C635 C 0.28338 0.93263 0.94948 0.0
C636 C 0.32257 0.91297 0.09688 0.0
C637 C 0.32116 0.90912 0.07661 0.0
C638 C 0.2787 0.91508 0.03331 0.0
C639 C 0.30107 0.91703 0.98017 0.0
C640 C 0.30114 0.91646 1.00207 0.0
C641 C 0.30164 0.92008 0.06553 0.0
C642 C 0.30142 0.91794 0.04369 0.0
H643 H 0.33752 0.89947 0.94127 0.0
H644 H 0.3352 0.89482 0.97669 0.0
H645 H 0.26073 0.91204 1.00531 0.0
H646 H 0.27018 0.94958 0.10266 0.0
H647 H 0.26783 0.94307 0.06742 0.0
C648 C 0.56789 0.21132 0.43757 0.0
C649 C 0.57469 0.18925 0.42735 0.0
C650 C 0.57022 0.21268 0.45798 0.0
C651 C 0.60005 0.18153 0.50114 0.0
H652 H 0.5441 0.21155 0.52943 0.0
C653 C 0.58397 0.16614 0.58431 0.0
C654 C 0.57336 0.18586 0.59545 0.0
C655 C 0.58668 0.16837 0.56398 0.0
C656 C 0.56012 0.20345 0.52182 0.0
H657 H 0.59017 0.1516 0.43072 0.0
H658 H 0.59412 0.15392 0.46619 0.0
H659 H 0.54435 0.21225 0.49383 0.0
H660 H 0.55843 0.22391 0.59386 0.0
H661 H 0.56345 0.22792 0.55854 0.0
H662 H 0.61565 0.17246 0.5292 0.0
C663 C 0.58713 0.1703 0.45844 0.0
C664 C 0.56026 0.20385 0.50133 0.0
C665 C 0.58477 0.16893 0.43804 0.0
C666 C 0.56646 0.20824 0.58579 0.0
C667 C 0.56919 0.21048 0.56546 0.0
C668 C 0.59993 0.18116 0.52167 0.0
C669 C 0.57948 0.19203 0.46876 0.0
C670 C 0.58012 0.19272 0.49066 0.0
C671 C 0.5789 0.1904 0.5542 0.0
C672 C 0.57985 0.19194 0.53232 0.0
H673 H 0.56024 0.22743 0.42987 0.0
H674 H 0.56457 0.2299 0.46534 0.0
H675 H 0.61586 0.1731 0.49348 0.0
H676 H 0.58945 0.14858 0.59119 0.0
H677 H 0.59402 0.15239 0.55586 0.0
C678 C 0.79361 0.55455 0.45422 0.0
C679 C 0.80703 0.57316 0.444 0.0
C680 C 0.79237 0.55486 0.47465 0.0
C681 C 0.82507 0.58061 0.51855 0.0
H682 H 0.76763 0.55106 0.54497 0.0
C683 C 0.8125 0.56724 0.60412 0.0
C684 C 0.81185 0.54134 0.60846 0.0
C685 C 0.81066 0.57552 0.58461 0.0
C686 C 0.78367 0.55963 0.53779 0.0
H687 H 0.82917 0.60715 0.44739 0.0
H688 H 0.8264 0.60816 0.48309 0.0
H689 H 0.76595 0.5582 0.50975 0.0
H690 H 0.80792 0.50395 0.59589 0.0
H691 H 0.80385 0.51842 0.56225 0.0
H692 H 0.84257 0.58194 0.54692 0.0
C693 C 0.81727 0.59294 0.4753 0.0
C694 C 0.78289 0.56347 0.51756 0.0
C695 C 0.81872 0.59247 0.45478 0.0
C696 C 0.80878 0.52401 0.59304 0.0
C697 C 0.8063 0.53226 0.57377 0.0
C698 C 0.82564 0.57715 0.53891 0.0
C699 C 0.80427 0.57397 0.48556 0.0
C700 C 0.80389 0.57322 0.5075 0.0
C701 C 0.80736 0.55802 0.56932 0.0
C702 C 0.8052 0.56598 0.54859 0.0
H703 H 0.78465 0.53918 0.44649 0.0
H704 H 0.78269 0.53954 0.48186 0.0
H705 H 0.84172 0.58795 0.51143 0.0
H706 H 0.81482 0.58099 0.61572 0.0
H707 H 0.81152 0.5955 0.58148 0.0
C708 C 0.42503 0.81169 0.59618 0.0
C709 C 0.44753 0.7995 0.6015 0.0
C710 C 0.41686 0.81132 0.57658 0.0
C711 C 0.42406 0.7768 0.52975 0.0
H712 H 0.41477 0.84143 0.50437 0.0
C713 C 0.4355 0.78803 0.44641 0.0
C714 C 0.42188 0.80673 0.43635 0.0
C715 C 0.43388 0.78593 0.46678 0.0
C716 C 0.41674 0.82313 0.51119 0.0
H717 H 0.47848 0.77649 0.59087 0.0
H718 H 0.46393 0.77514 0.55711 0.0
H719 H 0.41925 0.83952 0.5399 0.0
H720 H 0.39505 0.83732 0.43997 0.0
H721 H 0.39167 0.83323 0.47546 0.0
H722 H 0.42173 0.76027 0.50124 0.0
C723 C 0.45266 0.78519 0.56783 0.0
C724 C 0.41934 0.82208 0.53161 0.0
C725 C 0.46105 0.78606 0.58717 0.0
C726 C 0.4059 0.82274 0.4472 0.0
C727 C 0.40412 0.82052 0.46763 0.0
C728 C 0.42117 0.77778 0.5094 0.0
C729 C 0.43076 0.79819 0.56217 0.0
C730 C 0.42374 0.79897 0.54106 0.0
C731 C 0.41839 0.80231 0.47778 0.0
C732 C 0.41823 0.80103 0.49971 0.0
H733 H 0.4144 0.82234 0.60695 0.0
H734 H 0.39989 0.82149 0.57263 0.0
H735 H 0.42713 0.75867 0.53663 0.0
H736 H 0.44813 0.77544 0.43865 0.0
H737 H 0.44555 0.77194 0.47394 0.0
C738 C 0.21103 0.42804 0.573 0.0
C739 C 0.19042 0.41943 0.58407 0.0
C740 C 0.21197 0.42415 0.55273 0.0
C741 C 0.1694 0.41382 0.51084 0.0
H742 H 0.23148 0.40212 0.4822 0.0
C743 C 0.16981 0.40636 0.42656 0.0
C744 C 0.18894 0.41961 0.41677 0.0
C745 C 0.171 0.40257 0.44682 0.0
C746 C 0.21399 0.40555 0.48997 0.0
H747 H 0.15529 0.39873 0.58253 0.0
H748 H 0.1571 0.39167 0.54729 0.0
H749 H 0.23189 0.40198 0.51794 0.0
H750 H 0.22495 0.4382 0.4206 0.0
H751 H 0.22686 0.43194 0.45583 0.0
H752 H 0.15156 0.41793 0.48298 0.0
C753 C 0.17232 0.40188 0.55423 0.0
C754 C 0.21423 0.40545 0.51048 0.0
C755 C 0.17139 0.40576 0.57449 0.0
C756 C 0.2098 0.42804 0.42763 0.0
C757 C 0.21098 0.42428 0.44788 0.0
C758 C 0.16916 0.41393 0.49037 0.0
C759 C 0.19233 0.41153 0.54301 0.0
C760 C 0.19197 0.40984 0.52119 0.0
C761 C 0.19136 0.41192 0.45782 0.0
C762 C 0.19149 0.41006 0.47963 0.0
H763 H 0.22606 0.4386 0.57985 0.0
H764 H 0.22759 0.43201 0.54459 0.0
H765 H 0.15197 0.41772 0.51855 0.0
H766 H 0.15353 0.39946 0.41868 0.0
H767 H 0.15577 0.39257 0.4539 0.0
C768 C 0.23215 0.08017 0.15144 0.0
C769 C 0.23731 0.06406 0.13553 0.0
C770 C 0.21601 0.10078 0.14933 0.0
C771 C 0.16272 0.12336 0.12047 0.0
H772 H 0.17685 0.18655 0.14691 0.0
C773 C 0.08524 0.1941 0.14244 0.0
C774 C 0.09019 0.22005 0.14102 0.0
C775 C 0.10413 0.17638 0.13864 0.0
C776 C 0.17274 0.16919 0.1392 0.0
H777 H 0.22959 0.05733 0.10479 0.0
H778 H 0.20094 0.09331 0.1012 0.0
H779 H 0.20905 0.15366 0.14572 0.0
H780 H 0.11885 0.24771 0.13422 0.0
H781 H 0.15194 0.21667 0.12749 0.0
H782 H 0.12624 0.13877 0.11423 0.0
C783 C 0.20953 0.08982 0.11531 0.0
C784 C 0.19109 0.15025 0.13868 0.0
C785 C 0.22588 0.0692 0.11739 0.0
C786 C 0.1144 0.22786 0.13534 0.0
C787 C 0.13339 0.2101 0.13163 0.0
C788 C 0.1443 0.14228 0.12106 0.0
C789 C 0.2044 0.10579 0.1313 0.0
C790 C 0.18609 0.12693 0.12969 0.0
C791 C 0.1285 0.18416 0.13338 0.0
C792 C 0.14892 0.1652 0.13079 0.0
H793 H 0.23999 0.07649 0.16578 0.0
H794 H 0.21202 0.11237 0.16205 0.0
H795 H 0.15825 0.10556 0.11352 0.0
H796 H 0.0667 0.18744 0.14649 0.0
H797 H 0.0998 0.15656 0.14034 0.0
C798 C 0.81723 0.08334 0.15433 0.0
C799 C 0.79154 0.08981 0.15471 0.0
C800 C 0.83542 0.10142 0.14988 0.0
C801 C 0.84347 0.16416 0.1268 0.0
H802 H 0.90706 0.16308 0.15469 0.0
C803 C 0.91734 0.2447 0.12391 0.0
C804 C 0.94284 0.23745 0.12299 0.0
C805 C 0.89848 0.22658 0.12623 0.0
C806 C 0.88951 0.16345 0.14661 0.0
H807 H 0.76484 0.12044 0.15108 0.0
H808 H 0.7966 0.15216 0.14363 0.0
H809 H 0.87493 0.13206 0.1625 0.0
H810 H 0.96843 0.20545 0.12335 0.0
H811 H 0.93554 0.17393 0.12714 0.0
H812 H 0.85808 0.19596 0.11118 0.0
C813 C 0.80267 0.13297 0.14634 0.0
C814 C 0.87107 0.14565 0.15107 0.0
C815 C 0.78446 0.11482 0.15067 0.0
C816 C 0.94897 0.21166 0.12376 0.0
C817 C 0.93016 0.19361 0.12619 0.0
C818 C 0.86189 0.18211 0.12243 0.0
C819 C 0.82839 0.12647 0.14584 0.0
C820 C 0.84785 0.14569 0.14118 0.0
C821 C 0.90476 0.2009 0.12784 0.0
C822 C 0.88514 0.18186 0.13224 0.0
H823 H 0.82326 0.06415 0.15703 0.0
H824 H 0.85499 0.09561 0.14928 0.0
H825 H 0.82595 0.16455 0.1187 0.0
H826 H 0.91204 0.26442 0.12326 0.0
H827 H 0.87907 0.23277 0.12752 0.0
C828 C 0.76539 0.92517 0.14319 0.0
C829 C 0.76079 0.94073 0.12692 0.0
C830 C 0.78052 0.90374 0.14149 0.0
C831 C 0.83282 0.87782 0.11319 0.0
H832 H 0.81791 0.81801 0.1436 0.0
C833 C 0.90916 0.81436 0.14574 0.0
C834 C 0.90485 0.78845 0.14824 0.0
C835 C 0.89061 0.82993 0.13778 0.0
C836 C 0.82223 0.83429 0.13468 0.0
H837 H 0.76848 0.94563 0.09598 0.0
H838 H 0.79543 0.90818 0.0931 0.0
H839 H 0.78583 0.85057 0.13972 0.0
H840 H 0.87822 0.75827 0.14338 0.0
H841 H 0.84552 0.78559 0.12938 0.0
H842 H 0.86947 0.86181 0.10858 0.0
C843 C 0.78712 0.91271 0.10716 0.0
C844 C 0.80392 0.8531 0.13265 0.0
C845 C 0.77176 0.93419 0.10883 0.0
C846 C 0.88202 0.77817 0.14164 0.0
C847 C 0.86329 0.79384 0.13375 0.0
C848 C 0.85116 0.85899 0.11524 0.0
C849 C 0.79169 0.89729 0.12352 0.0
C850 C 0.80933 0.87548 0.1225 0.0
C851 C 0.8672 0.82 0.13214 0.0
C852 C 0.84638 0.83744 0.12661 0.0
H853 H 0.75792 0.9299 0.15749 0.0
H854 H 0.78416 0.89268 0.1545 0.0
H855 H 0.8376 0.89483 0.10529 0.0
H856 H 0.92674 0.82274 0.15039 0.0
H857 H 0.89423 0.84999 0.13697 0.0
C858 C 0.21445 0.89485 0.16331 0.0
C859 C 0.20887 0.92062 0.16506 0.0
C860 C 0.19551 0.87762 0.15862 0.0
C861 C 0.1257 0.87131 0.15785 0.0
H862 H 0.14107 0.81078 0.12811 0.0
C863 C 0.04902 0.79968 0.13727 0.0
C864 C 0.05424 0.77545 0.14446 0.0
C865 C 0.06812 0.81772 0.13624 0.0
C866 C 0.13655 0.82769 0.13634 0.0
H867 H 0.17946 0.94882 0.16264 0.0
H868 H 0.14653 0.91903 0.15381 0.0
H869 H 0.17389 0.84223 0.13344 0.0
H870 H 0.08351 0.75046 0.15507 0.0
H871 H 0.1171 0.78182 0.15282 0.0
H872 H 0.08829 0.85675 0.16053 0.0
C873 C 0.16526 0.91183 0.15672 0.0
C874 C 0.15536 0.84561 0.13958 0.0
C875 C 0.18411 0.92895 0.16175 0.0
C876 C 0.07911 0.76905 0.14945 0.0
C877 C 0.09827 0.78692 0.1481 0.0
C878 C 0.10684 0.8536 0.15433 0.0
C879 C 0.17064 0.88588 0.15523 0.0
C880 C 0.1503 0.86748 0.15066 0.0
C881 C 0.09279 0.81163 0.14207 0.0
C882 C 0.11218 0.83147 0.1438 0.0
H883 H 0.23339 0.888 0.16592 0.0
H884 H 0.20034 0.85778 0.15802 0.0
H885 H 0.12111 0.88759 0.16676 0.0
H886 H 0.02992 0.80508 0.1335 0.0
H887 H 0.06348 0.83664 0.13148 0.0
C888 C 0.72987 0.43807 0.37744 0.0
C889 C 0.73871 0.4459 0.39585 0.0
C890 C 0.71249 0.41856 0.37588 0.0
C891 C 0.68736 0.36289 0.40023 0.0
H892 H 0.63131 0.37334 0.36474 0.0
C893 C 0.6076 0.28928 0.38796 0.0
C894 C 0.59911 0.28644 0.36859 0.0
C895 C 0.62455 0.30847 0.39283 0.0
C896 C 0.64697 0.37 0.37456 0.0
H897 H 0.73639 0.43927 0.42708 0.0
H898 H 0.70582 0.40472 0.42431 0.0
H899 H 0.66083 0.40747 0.37076 0.0
H900 H 0.60271 0.30062 0.33902 0.0
H901 H 0.63237 0.33377 0.34738 0.0
H902 H 0.67371 0.32514 0.40367 0.0
C903 C 0.71254 0.41381 0.41113 0.0
C904 C 0.66382 0.38959 0.37806 0.0
C905 C 0.72987 0.43361 0.41271 0.0
C906 C 0.60849 0.30266 0.35413 0.0
C907 C 0.62545 0.3217 0.35895 0.0
C908 C 0.6705 0.34315 0.39664 0.0
C909 C 0.70349 0.40634 0.39268 0.0
C910 C 0.68445 0.38612 0.39062 0.0
C911 C 0.63337 0.32513 0.3784 0.0
C912 C 0.6504 0.34636 0.38345 0.0
H913 H 0.73597 0.44741 0.36419 0.0
H914 H 0.70607 0.41303 0.36146 0.0
H915 H 0.70318 0.35969 0.40993 0.0
H916 H 0.60052 0.27721 0.39946 0.0
H917 H 0.63017 0.31069 0.40796 0.0
C918 C 0.56854 0.73622 0.38123 0.0
C919 C 0.55393 0.74156 0.39794 0.0
C920 C 0.58961 0.7205 0.3824 0.0
C921 C 0.61581 0.66846 0.41086 0.0
H922 H 0.67632 0.68279 0.38103 0.0
C923 C 0.68638 0.5916 0.38718 0.0
C924 C 0.71226 0.59711 0.38751 0.0
C925 C 0.66855 0.61028 0.39133 0.0
C926 C 0.65971 0.67864 0.38965 0.0
H927 H 0.55045 0.73473 0.42912 0.0
H928 H 0.58718 0.70683 0.43108 0.0
H929 H 0.64289 0.7144 0.38314 0.0
H930 H 0.73973 0.6265 0.39272 0.0
H931 H 0.70849 0.65926 0.4 0.0
H932 H 0.63247 0.63251 0.41709 0.0
C933 C 0.58215 0.7149 0.41706 0.0
C934 C 0.64047 0.69665 0.39071 0.0
C935 C 0.56109 0.73083 0.41592 0.0
C936 C 0.71994 0.62165 0.39245 0.0
C937 C 0.70205 0.64043 0.39647 0.0
C938 C 0.63501 0.65038 0.40971 0.0
C939 C 0.59657 0.70951 0.40028 0.0
C940 C 0.6181 0.69156 0.401 0.0
C941 C 0.67615 0.63497 0.39582 0.0
C942 C 0.65697 0.65509 0.39879 0.0
H943 H 0.56331 0.74357 0.36702 0.0
H944 H 0.60001 0.71631 0.36913 0.0
H945 H 0.59875 0.66392 0.41881 0.0
H946 H 0.67987 0.57281 0.38369 0.0
H947 H 0.64875 0.60551 0.39049 0.0
C948 C 0.27528 0.55995 0.36612 0.0
C949 C 0.26422 0.55039 0.38324 0.0
C950 C 0.293 0.5792 0.36711 0.0
C951 C 0.31454 0.6324 0.39593 0.0
H952 H 0.3755 0.62428 0.36515 0.0
C953 C 0.39343 0.7085 0.39184 0.0
C954 C 0.40442 0.71205 0.37332 0.0
C955 C 0.37662 0.68861 0.39501 0.0
C956 C 0.35849 0.62698 0.37369 0.0
H957 H 0.26292 0.55355 0.41484 0.0
H958 H 0.29396 0.58787 0.41656 0.0
H959 H 0.34572 0.58963 0.36742 0.0
H960 H 0.40545 0.69842 0.34343 0.0
H961 H 0.37601 0.66415 0.34879 0.0
H962 H 0.32697 0.67014 0.40167 0.0
C963 C 0.28879 0.58024 0.40241 0.0
C964 C 0.34152 0.60707 0.37506 0.0
C965 C 0.27119 0.56061 0.40144 0.0
C966 C 0.39772 0.69583 0.35795 0.0
C967 C 0.38089 0.67613 0.36106 0.0
C968 C 0.3315 0.6525 0.39443 0.0
C969 C 0.30001 0.5895 0.38523 0.0
C970 C 0.31914 0.60974 0.38584 0.0
C971 C 0.37044 0.67198 0.37969 0.0
C972 C 0.35339 0.65018 0.3829 0.0
H973 H 0.27053 0.55221 0.35191 0.0
H974 H 0.30118 0.58614 0.35363 0.0
H975 H 0.29735 0.63495 0.40428 0.0
H976 H 0.3984 0.72061 0.404 0.0
H977 H 0.369 0.68587 0.40956 0.0
C978 C 0.28391 0.38358 0.36771 0.0
C979 C 0.28911 0.40853 0.36223 0.0
C980 C 0.30349 0.36717 0.37296 0.0
C981 C 0.37273 0.35946 0.36758 0.0
H982 H 0.36443 0.30857 0.40771 0.0
C983 C 0.45564 0.29722 0.39179 0.0
C984 C 0.45086 0.27117 0.39169 0.0
C985 C 0.43577 0.31452 0.39078 0.0
C986 C 0.36696 0.32267 0.39645 0.0
H987 H 0.3187 0.43622 0.35886 0.0
H988 H 0.3527 0.40797 0.36836 0.0
H989 H 0.32987 0.33781 0.4007 0.0
H990 H 0.42148 0.24288 0.3917 0.0
H991 H 0.38671 0.27317 0.38999 0.0
H992 H 0.40979 0.34442 0.36337 0.0
C993 C 0.33367 0.40068 0.36801 0.0
C994 C 0.34714 0.33935 0.39235 0.0
C995 C 0.31417 0.41693 0.36257 0.0
C996 C 0.42573 0.26285 0.39164 0.0
C997 C 0.40583 0.28018 0.3908 0.0
C998 C 0.39255 0.34298 0.37179 0.0
C999 C 0.32867 0.37548 0.37304 0.0
C1000 C 0.34976 0.35791 0.3778 0.0
C1001 C 0.41069 0.30617 0.3898 0.0
C1002 C 0.38988 0.32436 0.38621 0.0
H1003 H 0.26477 0.37659 0.36748 0.0
H1004 H 0.29893 0.34783 0.3765 0.0
H1005 H 0.3753 0.37308 0.35597 0.0
H1006 H 0.47479 0.30422 0.39164 0.0
H1007 H 0.44006 0.33447 0.39026 0.0
C1008 C 0.88008 0.77411 0.89583 0.0
C1009 C 0.90391 0.78173 0.88911 0.0
C1010 C 0.86141 0.79201 0.90015 0.0
C1011 C 0.85157 0.8602 0.91034 0.0
H1012 H 0.7848 0.84835 0.88935 0.0
C1013 C 0.77132 0.93425 0.91682 0.0
C1014 C 0.75807 0.93874 0.89934 0.0
C1015 C 0.78754 0.91345 0.91845 0.0
C1016 C 0.80334 0.85191 0.89535 0.0
H1017 H 0.92708 0.8142 0.88241 0.0
H1018 H 0.89454 0.84527 0.88956 0.0
H1019 H 0.81677 0.81535 0.887 0.0
H1020 H 0.75183 0.92487 0.86981 0.0
H1021 H 0.77968 0.88876 0.87275 0.0
H1022 H 0.83842 0.89717 0.91793 0.0
C1023 C 0.89025 0.8255 0.89164 0.0
C1024 C 0.82159 0.8329 0.89418 0.0
C1025 C 0.90883 0.80765 0.88726 0.0
C1026 C 0.76117 0.92173 0.88368 0.0
C1027 C 0.77722 0.90098 0.88534 0.0
C1028 C 0.83329 0.8792 0.91155 0.0
C1029 C 0.86625 0.81792 0.89796 0.0
C1030 C 0.84609 0.83703 0.90126 0.0
C1031 C 0.79077 0.89667 0.90266 0.0
C1032 C 0.80914 0.87548 0.90365 0.0
H1033 H 0.87564 0.75431 0.89732 0.0
H1034 H 0.84316 0.78556 0.90513 0.0
H1035 H 0.87017 0.86384 0.91618 0.0
H1036 H 0.76922 0.94683 0.92923 0.0
H1037 H 0.79759 0.91053 0.93205 0.0
C1038 C 0.20601 0.89601 0.89492 0.0
C1039 C 0.21047 0.90416 0.87565 0.0
C1040 C 0.1865 0.87916 0.89898 0.0
C1041 C 0.12689 0.85504 0.87827 0.0
H1042 H 0.13639 0.80017 0.91501 0.0
C1043 C 0.06011 0.77069 0.88131 0.0
C1044 C 0.05242 0.76179 0.89973 0.0
C1045 C 0.07895 0.78878 0.87977 0.0
C1046 C 0.13337 0.81561 0.90492 0.0
H1047 H 0.1984 0.90046 0.84552 0.0
H1048 H 0.16456 0.8709 0.85252 0.0
H1049 H 0.17054 0.83013 0.9094 0.0
H1050 H 0.05843 0.76493 0.93099 0.0
H1051 H 0.09175 0.79677 0.92827 0.0
H1052 H 0.08995 0.84027 0.87351 0.0
C1053 C 0.17577 0.87795 0.86457 0.0
C1054 C 0.15291 0.83276 0.90169 0.0
C1055 C 0.19519 0.89485 0.86053 0.0
C1056 C 0.06401 0.77146 0.91662 0.0
C1057 C 0.08312 0.78953 0.91505 0.0
C1058 C 0.10746 0.83787 0.88144 0.0
C1059 C 0.17106 0.87004 0.88386 0.0
C1060 C 0.15 0.85247 0.88811 0.0
C1061 C 0.09063 0.79846 0.89658 0.0
C1062 C 0.11061 0.81776 0.89457 0.0
H1063 H 0.21718 0.90312 0.90695 0.0
H1064 H 0.1832 0.8737 0.91403 0.0
H1065 H 0.12379 0.87034 0.86807 0.0
H1066 H 0.05125 0.76393 0.86803 0.0
H1067 H 0.08451 0.79508 0.86533 0.0
C1068 C 0.23595 0.07378 0.91169 0.0
C1069 C 0.22674 0.04979 0.90683 0.0
C1070 C 0.21985 0.09471 0.9119 0.0
C1071 C 0.15171 0.11366 0.90816 0.0
H1072 H 0.17983 0.1743 0.88539 0.0
C1073 C 0.09465 0.18751 0.86524 0.0
C1074 C 0.09878 0.21311 0.86935 0.0
C1075 C 0.10928 0.16891 0.87418 0.0
C1076 C 0.1718 0.15765 0.89207 0.0
H1077 H 0.19346 0.02869 0.89885 0.0
H1078 H 0.16551 0.06512 0.89848 0.0
H1079 H 0.20748 0.13902 0.89315 0.0
H1080 H 0.12099 0.23945 0.88622 0.0
H1081 H 0.14742 0.20673 0.90151 0.0
H1082 H 0.11574 0.13197 0.90572 0.0
C1083 C 0.18494 0.0679 0.90276 0.0
C1084 C 0.18765 0.13738 0.89663 0.0
C1085 C 0.20097 0.04694 0.90289 0.0
C1086 C 0.1175 0.2198 0.8829 0.0
C1087 C 0.13257 0.20116 0.89155 0.0
C1088 C 0.13583 0.13377 0.90328 0.0
C1089 C 0.19424 0.0922 0.90687 0.0
C1090 C 0.17777 0.11486 0.90435 0.0
C1091 C 0.12866 0.17556 0.88715 0.0
C1092 C 0.14569 0.15575 0.89485 0.0
H1093 H 0.25575 0.07641 0.91495 0.0
H1094 H 0.22763 0.11295 0.91561 0.0
H1095 H 0.14342 0.09695 0.91453 0.0
H1096 H 0.08015 0.18191 0.855 0.0
H1097 H 0.10602 0.14934 0.87042 0.0
C1098 C 0.78567 0.10314 0.86269 0.0
C1099 C 0.78975 0.07699 0.8619 0.0
C1100 C 0.80595 0.11962 0.86495 0.0
C1101 C 0.87025 0.12452 0.88336 0.0
H1102 H 0.87838 0.17725 0.84463 0.0
C1103 C 0.9435 0.20694 0.88631 0.0
C1104 C 0.95767 0.20973 0.86902 0.0
C1105 C 0.92342 0.18989 0.88704 0.0
C1106 C 0.87625 0.16265 0.85557 0.0
H1107 H 0.81798 0.04746 0.86347 0.0
H1108 H 0.85349 0.07631 0.86771 0.0
H1109 H 0.84162 0.14961 0.84313 0.0
H1110 H 0.96298 0.19529 0.83951 0.0
H1111 H 0.92748 0.16643 0.84065 0.0
H1112 H 0.90493 0.13778 0.89583 0.0
C1113 C 0.83463 0.08401 0.86642 0.0
C1114 C 0.85522 0.14698 0.85478 0.0
C1115 C 0.8144 0.06757 0.86379 0.0
C1116 C 0.95202 0.19427 0.85285 0.0
C1117 C 0.93179 0.17761 0.85351 0.0
C1118 C 0.8911 0.14055 0.88437 0.0
C1119 C 0.83059 0.11018 0.86686 0.0
C1120 C 0.85218 0.12759 0.86851 0.0
C1121 C 0.91705 0.17562 0.87045 0.0
C1122 C 0.89441 0.15949 0.8703 0.0
H1123 H 0.76683 0.11081 0.86123 0.0
H1124 H 0.8024 0.13975 0.86529 0.0
H1125 H 0.86821 0.10973 0.89415 0.0
H1126 H 0.94725 0.2186 0.89899 0.0
H1127 H 0.91225 0.18861 0.90028 0.0
C1128 C 0.40179 0.70341 0.63691 0.0
C1129 C 0.40025 0.70976 0.65692 0.0
C1130 C 0.38836 0.68282 0.62945 0.0
C1131 C 0.36183 0.62286 0.64528 0.0
H1132 H 0.31504 0.62815 0.60189 0.0
C1133 C 0.27826 0.55756 0.63823 0.0
C1134 C 0.2713 0.54783 0.61989 0.0
C1135 C 0.29702 0.57567 0.63976 0.0
C1136 C 0.32845 0.62623 0.61374 0.0
H1137 H 0.38221 0.70008 0.68442 0.0
H1138 H 0.35952 0.66408 0.67155 0.0
H1139 H 0.34235 0.66394 0.61005 0.0
H1140 H 0.2788 0.54917 0.58875 0.0
H1141 H 0.31191 0.58146 0.59144 0.0
H1142 H 0.34767 0.5856 0.64942 0.0
C1143 C 0.37137 0.67482 0.66172 0.0
C1144 C 0.34398 0.6467 0.61842 0.0
C1145 C 0.38447 0.69545 0.6691 0.0
C1146 C 0.28379 0.55645 0.60304 0.0
C1147 C 0.30259 0.57491 0.60458 0.0
C1148 C 0.3465 0.60248 0.64056 0.0
C1149 C 0.37344 0.66808 0.64192 0.0
C1150 C 0.36009 0.64545 0.63471 0.0
C1151 C 0.30943 0.58456 0.62301 0.0
C1152 C 0.32894 0.60429 0.62525 0.0
H1153 H 0.41385 0.71385 0.62709 0.0
H1154 H 0.39021 0.67798 0.61411 0.0
H1155 H 0.37447 0.62126 0.65766 0.0
H1156 H 0.2693 0.55098 0.65152 0.0
H1157 H 0.30157 0.58298 0.65414 0.0
C1158 C 0.29054 0.39751 0.62806 0.0
C1159 C 0.28567 0.40752 0.64676 0.0
C1160 C 0.31057 0.38066 0.6251 0.0
C1161 C 0.37043 0.35986 0.64816 0.0
H1162 H 0.3643 0.30198 0.61372 0.0
C1163 C 0.43801 0.27563 0.65174 0.0
C1164 C 0.44754 0.26579 0.63411 0.0
C1165 C 0.41896 0.29379 0.65164 0.0
C1166 C 0.36636 0.31826 0.62318 0.0
H1167 H 0.29727 0.40691 0.67713 0.0
H1168 H 0.33179 0.37726 0.67214 0.0
H1169 H 0.32908 0.33162 0.61692 0.0
H1170 H 0.44469 0.26727 0.60252 0.0
H1171 H 0.41083 0.29907 0.60233 0.0
H1172 H 0.40738 0.34612 0.65484 0.0
C1173 C 0.3207 0.38294 0.65959 0.0
C1174 C 0.34622 0.33525 0.62502 0.0
C1175 C 0.30084 0.39987 0.6625 0.0
C1176 C 0.43765 0.27457 0.6163 0.0
C1177 C 0.41826 0.2926 0.6162 0.0
C1178 C 0.3904 0.34283 0.64644 0.0
C1179 C 0.32606 0.37337 0.64082 0.0
C1180 C 0.34787 0.35604 0.6378 0.0
C1181 C 0.40885 0.30246 0.6339 0.0
C1182 C 0.38844 0.32164 0.63418 0.0
H1183 H 0.27934 0.40327 0.61561 0.0
H1184 H 0.31428 0.37385 0.61043 0.0
H1185 H 0.37265 0.37601 0.65773 0.0
H1186 H 0.4455 0.26947 0.66568 0.0
H1187 H 0.41193 0.30086 0.6655 0.0
C1188 C 0.58742 0.304 0.65649 0.0
C1189 C 0.59339 0.2782 0.65705 0.0
C1190 C 0.60602 0.32177 0.65242 0.0
C1191 C 0.67248 0.33236 0.65853 0.0
H1192 H 0.66219 0.3887 0.62321 0.0
C1193 C 0.72039 0.42795 0.66744 0.0
C1194 C 0.73424 0.43718 0.65142 0.0
C1195 C 0.70501 0.40691 0.66542 0.0
C1196 C 0.6654 0.37288 0.63291 0.0
H1197 H 0.6233 0.25066 0.65365 0.0
H1198 H 0.65614 0.28191 0.64699 0.0
H1199 H 0.63135 0.3543 0.62416 0.0
H1200 H 0.74194 0.4318 0.62047 0.0
H1201 H 0.7139 0.3954 0.61682 0.0
H1202 H 0.70577 0.35156 0.66803 0.0
C1203 C 0.63698 0.28827 0.64949 0.0
C1204 C 0.64777 0.35336 0.63355 0.0
C1205 C 0.61826 0.27045 0.65325 0.0
C1206 C 0.73151 0.42529 0.63309 0.0
C1207 C 0.71563 0.40442 0.631 0.0
C1208 C 0.68983 0.35205 0.65813 0.0
C1209 C 0.63101 0.31408 0.6491 0.0
C1210 C 0.65097 0.33318 0.64662 0.0
C1211 C 0.70261 0.3949 0.64725 0.0
C1212 C 0.68617 0.37265 0.64559 0.0
H1213 H 0.56832 0.31042 0.65911 0.0
H1214 H 0.601 0.34159 0.6524 0.0
H1215 H 0.67527 0.31711 0.66884 0.0
H1216 H 0.7212 0.43706 0.68162 0.0
H1217 H 0.69469 0.40017 0.67805 0.0
C1218 C 0.57106 0.72497 0.64736 0.0
C1219 C 0.54642 0.71698 0.64318 0.0
C1220 C 0.59145 0.70852 0.645 0.0
C1221 C 0.60609 0.64185 0.64741 0.0
H1222 H 0.67066 0.66089 0.62538 0.0
C1223 C 0.68868 0.57267 0.65016 0.0
C1224 C 0.71221 0.58259 0.65529 0.0
C1225 C 0.66908 0.58858 0.64441 0.0
C1226 C 0.65283 0.65533 0.63172 0.0
H1227 H 0.52381 0.68579 0.63277 0.0
H1228 H 0.55953 0.6568 0.62887 0.0
H1229 H 0.6349 0.68998 0.6233 0.0
H1230 H 0.73432 0.61654 0.65775 0.0
H1231 H 0.69975 0.64481 0.64843 0.0
H1232 H 0.62392 0.60792 0.65679 0.0
C1233 C 0.56301 0.67586 0.63391 0.0
C1234 C 0.63234 0.67195 0.63044 0.0
C1235 C 0.54262 0.69244 0.63603 0.0
C1236 C 0.71629 0.60859 0.65368 0.0
C1237 C 0.69648 0.62467 0.64831 0.0
C1238 C 0.62657 0.62541 0.64892 0.0
C1239 C 0.58757 0.68365 0.63862 0.0
C1240 C 0.60883 0.66542 0.63841 0.0
C1241 C 0.67238 0.61489 0.64416 0.0
C1242 C 0.6503 0.63195 0.64123 0.0
H1243 H 0.57451 0.74388 0.65273 0.0
H1244 H 0.61013 0.71497 0.6489 0.0
H1245 H 0.58833 0.6365 0.654 0.0
H1246 H 0.68532 0.55258 0.65114 0.0
H1247 H 0.65109 0.58024 0.64074 0.0
C1248 C 0.15105 0.4082 0.31806 0.0
C1249 C 0.17538 0.41819 0.31637 0.0
C1250 C 0.1399 0.39584 0.30206 0.0
C1251 C 0.14656 0.3909 0.24759 0.0
H1252 H 0.09758 0.33756 0.25347 0.0
C1253 C 0.08563 0.35467 0.18258 0.0
C1254 C 0.07779 0.32946 0.18302 0.0
C1255 C 0.09915 0.36485 0.19839 0.0
C1256 C 0.11151 0.35218 0.25144 0.0
H1257 H 0.20776 0.42186 0.29732 0.0
H1258 H 0.18916 0.39919 0.27002 0.0
H1259 H 0.11809 0.35472 0.28228 0.0
H1260 H 0.07894 0.29473 0.19953 0.0
H1261 H 0.10368 0.3118 0.22638 0.0
H1262 H 0.14069 0.38772 0.2167 0.0
C1263 C 0.17803 0.40169 0.28317 0.0
C1264 C 0.123 0.36236 0.26811 0.0
C1265 C 0.18888 0.4144 0.29894 0.0
C1266 C 0.08483 0.31426 0.19889 0.0
C1267 C 0.09868 0.32421 0.21443 0.0
C1268 C 0.1353 0.38051 0.23091 0.0
C1269 C 0.15306 0.39296 0.2842 0.0
C1270 C 0.14075 0.38186 0.26645 0.0
C1271 C 0.10532 0.34987 0.21479 0.0
C1272 C 0.11761 0.36095 0.23255 0.0
H1273 H 0.14013 0.41126 0.33127 0.0
H1274 H 0.12059 0.38957 0.30345 0.0
H1275 H 0.15967 0.40627 0.24561 0.0
H1276 H 0.07997 0.36686 0.17065 0.0
H1277 H 0.10369 0.38472 0.19811 0.0
C1278 C 0.66314 0.09645 0.19333 0.0
C1279 C 0.68045 0.07686 0.1968 0.0
C1280 C 0.65256 0.10998 0.20911 0.0
C1281 C 0.6409 0.10338 0.26274 0.0
H1282 H 0.62553 0.17474 0.2605 0.0
C1283 C 0.59968 0.15815 0.32967 0.0
C1284 C 0.57952 0.17443 0.32529 0.0
C1285 C 0.61422 0.14743 0.31451 0.0
C1286 C 0.6296 0.15475 0.26135 0.0
H1287 H 0.70131 0.05717 0.21944 0.0
H1288 H 0.68355 0.08083 0.24651 0.0
H1289 H 0.64589 0.15423 0.2326 0.0
H1290 H 0.55942 0.19277 0.30154 0.0
H1291 H 0.58437 0.17428 0.27555 0.0
H1292 H 0.62442 0.10383 0.29139 0.0
C1293 C 0.67737 0.08537 0.23183 0.0
C1294 C 0.64121 0.14297 0.24529 0.0
C1295 C 0.68771 0.07187 0.21621 0.0
C1296 C 0.57471 0.18021 0.30554 0.0
C1297 C 0.58922 0.16976 0.29054 0.0
C1298 C 0.62936 0.11516 0.2788 0.0
C1299 C 0.65921 0.10422 0.22862 0.0
C1300 C 0.64693 0.11707 0.24571 0.0
C1301 C 0.60905 0.15305 0.29472 0.0
C1302 C 0.62333 0.14096 0.27828 0.0
H1303 H 0.65711 0.10069 0.17856 0.0
H1304 H 0.63856 0.12434 0.20606 0.0
H1305 H 0.64458 0.08331 0.26355 0.0
H1306 H 0.60387 0.15331 0.34471 0.0
H1307 H 0.62949 0.13474 0.31826 0.0
C1308 C 0.80727 0.59952 0.32801 0.0
C1309 C 0.82127 0.59174 0.34433 0.0
C1310 C 0.81843 0.61376 0.31322 0.0
C1311 C 0.87605 0.65008 0.29976 0.0
H1312 H 0.85454 0.63308 0.24713 0.0
C1313 C 0.91471 0.70402 0.23342 0.0
C1314 C 0.91999 0.69048 0.2162 0.0
C1315 C 0.90116 0.693 0.24866 0.0
C1316 C 0.861 0.63793 0.26168 0.0
H1317 H 0.85774 0.59317 0.35836 0.0
H1318 H 0.87769 0.61764 0.33225 0.0
H1319 H 0.83493 0.61257 0.27495 0.0
H1320 H 0.91471 0.65494 0.20118 0.0
H1321 H 0.8915 0.6352 0.22806 0.0
H1322 H 0.90302 0.67447 0.28644 0.0
C1323 C 0.85784 0.61332 0.33103 0.0
C1324 C 0.84941 0.62645 0.27774 0.0
C1325 C 0.84644 0.59939 0.34607 0.0
C1326 C 0.91065 0.66589 0.21422 0.0
C1327 C 0.89737 0.65463 0.22967 0.0
C1328 C 0.88783 0.66137 0.28368 0.0
C1329 C 0.84413 0.62007 0.31412 0.0
C1330 C 0.85663 0.63247 0.29705 0.0
C1331 C 0.89289 0.6679 0.24728 0.0
C1332 C 0.88037 0.65559 0.26439 0.0
H1333 H 0.78779 0.59381 0.32636 0.0
H1334 H 0.80699 0.61922 0.30082 0.0
H1335 H 0.88209 0.65537 0.31433 0.0
H1336 H 0.92149 0.72313 0.23527 0.0
H1337 H 0.89747 0.70415 0.26164 0.0
C1338 C 0.41357 0.81601 0.31561 0.0
C1339 C 0.41277 0.82478 0.33504 0.0
C1340 C 0.39958 0.82779 0.30095 0.0
C1341 C 0.37248 0.88944 0.28852 0.0
H1342 H 0.34276 0.85284 0.24512 0.0
C1343 C 0.31897 0.94122 0.22747 0.0
C1344 C 0.32229 0.93332 0.20795 0.0
C1345 C 0.32822 0.92693 0.243 0.0
C1346 C 0.35121 0.86336 0.257 0.0
H1347 H 0.39589 0.85234 0.35449 0.0
H1348 H 0.37116 0.87319 0.32869 0.0
H1349 H 0.36014 0.8297 0.27291 0.0
H1350 H 0.33765 0.90373 0.18955 0.0
H1351 H 0.35431 0.87865 0.21689 0.0
H1352 H 0.36405 0.92304 0.27257 0.0
C1353 C 0.38284 0.85713 0.32485 0.0
C1354 C 0.36108 0.85009 0.27301 0.0
C1355 C 0.39676 0.84508 0.33967 0.0
C1356 C 0.33479 0.91035 0.2044 0.0
C1357 C 0.34423 0.89596 0.22009 0.0
C1358 C 0.3627 0.90268 0.27253 0.0
C1359 C 0.38445 0.84887 0.30523 0.0
C1360 C 0.37197 0.86296 0.28895 0.0
C1361 C 0.34128 0.90427 0.23961 0.0
C1362 C 0.35195 0.88985 0.2565 0.0
H1363 H 0.42568 0.80034 0.31157 0.0
H1364 H 0.40157 0.82102 0.28606 0.0
H1365 H 0.38119 0.89998 0.30029 0.0
H1366 H 0.30916 0.95863 0.23087 0.0
H1367 H 0.32498 0.93369 0.25777 0.0
C1368 C 0.90682 0.68631 0.82968 0.0
C1369 C 0.91404 0.67177 0.84586 0.0
C1370 C 0.89309 0.67564 0.81438 0.0
C1371 C 0.85718 0.61847 0.79909 0.0
H1372 H 0.87537 0.6418 0.74721 0.0
C1373 C 0.80517 0.58123 0.73149 0.0
C1374 C 0.81922 0.57619 0.71451 0.0
C1375 C 0.8156 0.59487 0.74694 0.0
C1376 C 0.87019 0.63486 0.76154 0.0
H1377 H 0.91222 0.63484 0.8591 0.0
H1378 H 0.88867 0.61572 0.83207 0.0
H1379 H 0.89519 0.66049 0.77576 0.0
H1380 H 0.85498 0.58201 0.70003 0.0
H1381 H 0.87374 0.6054 0.72732 0.0
H1382 H 0.83319 0.59193 0.78485 0.0
C1383 C 0.893 0.63563 0.83135 0.0
C1384 C 0.88128 0.6459 0.77803 0.0
C1385 C 0.90641 0.64653 0.84691 0.0
C1386 C 0.84365 0.58597 0.71288 0.0
C1387 C 0.85436 0.59931 0.72858 0.0
C1388 C 0.8463 0.60724 0.7826 0.0
C1389 C 0.88676 0.64991 0.81461 0.0
C1390 C 0.87482 0.638 0.79707 0.0
C1391 C 0.84065 0.60336 0.74604 0.0
C1392 C 0.8525 0.61538 0.76357 0.0
H1393 H 0.91255 0.70586 0.82857 0.0
H1394 H 0.88801 0.68751 0.80212 0.0
H1395 H 0.85155 0.61192 0.81344 0.0
H1396 H 0.78619 0.57401 0.73305 0.0
H1397 H 0.80411 0.59826 0.75979 0.0
C1398 C 0.40065 0.82579 0.70978 0.0
C1399 C 0.42509 0.83417 0.70537 0.0
C1400 C 0.387 0.83679 0.72527 0.0
C1401 C 0.38229 0.89357 0.75622 0.0
H1402 H 0.35895 0.84907 0.79734 0.0
C1403 C 0.35297 0.93474 0.83041 0.0
C1404 C 0.33239 0.92423 0.84031 0.0
C1405 C 0.36381 0.9224 0.81438 0.0
C1406 C 0.36497 0.86182 0.78592 0.0
H1407 H 0.45405 0.86104 0.71303 0.0
H1408 H 0.42992 0.88095 0.73935 0.0
H1409 H 0.37641 0.83127 0.76714 0.0
H1410 H 0.30719 0.89235 0.84154 0.0
H1411 H 0.32565 0.87083 0.81309 0.0
H1412 H 0.37061 0.92412 0.7745 0.0
C1413 C 0.42133 0.86579 0.7311 0.0
C1414 C 0.37498 0.85157 0.76858 0.0
C1415 C 0.43512 0.85445 0.71601 0.0
C1416 C 0.32339 0.90058 0.83435 0.0
C1417 C 0.33396 0.88835 0.81798 0.0
C1418 C 0.372 0.9038 0.77335 0.0
C1419 C 0.39738 0.8567 0.73627 0.0
C1420 C 0.38416 0.86736 0.7537 0.0
C1421 C 0.35388 0.89949 0.80739 0.0
C1422 C 0.36367 0.88814 0.7887 0.0
H1423 H 0.39272 0.80985 0.70202 0.0
H1424 H 0.36855 0.82947 0.72888 0.0
H1425 H 0.38893 0.90622 0.74493 0.0
H1426 H 0.36019 0.95303 0.8347 0.0
H1427 H 0.37963 0.93126 0.80716 0.0
C1428 C 0.0963 0.33485 0.81338 0.0
C1429 C 0.06994 0.33271 0.81257 0.0
C1430 C 0.10941 0.34712 0.79826 0.0
C1431 C 0.10045 0.39313 0.75833 0.0
H1432 H 0.15749 0.36042 0.73323 0.0
C1433 C 0.16043 0.44381 0.70106 0.0
C1434 C 0.16722 0.43081 0.68387 0.0
C1435 C 0.14925 0.43129 0.71669 0.0
C1436 C 0.14147 0.36965 0.74003 0.0
H1437 H 0.0366 0.34253 0.79588 0.0
H1438 H 0.05919 0.36413 0.77002 0.0
H1439 H 0.13762 0.34081 0.76188 0.0
H1440 H 0.16757 0.39426 0.66967 0.0
H1441 H 0.14778 0.37206 0.69733 0.0
H1442 H 0.10393 0.42177 0.73656 0.0
C1443 C 0.06988 0.35632 0.78208 0.0
C1444 C 0.13035 0.35863 0.75657 0.0
C1445 C 0.05693 0.34386 0.79691 0.0
C1446 C 0.16244 0.40479 0.68268 0.0
C1447 C 0.15133 0.3921 0.69855 0.0
C1448 C 0.11161 0.40417 0.74197 0.0
C1449 C 0.09627 0.35781 0.78237 0.0
C1450 C 0.10959 0.3702 0.76582 0.0
C1451 C 0.14453 0.40531 0.7157 0.0
C1452 C 0.13224 0.3926 0.73259 0.0
H1453 H 0.10677 0.3262 0.8252 0.0
H1454 H 0.12978 0.34815 0.79892 0.0
H1455 H 0.08456 0.40257 0.76515 0.0
H1456 H 0.16379 0.46385 0.70256 0.0
H1457 H 0.14457 0.44199 0.72973 0.0
C1458 C 0.59746 0.15955 0.69546 0.0
C1459 C 0.57098 0.16064 0.69597 0.0
C1460 C 0.61094 0.14846 0.71102 0.0
C1461 C 0.6032 0.10289 0.75147 0.0
H1462 H 0.65943 0.13662 0.77641 0.0
C1463 C 0.66355 0.05285 0.80898 0.0
C1464 C 0.66965 0.06569 0.82639 0.0
C1465 C 0.65274 0.06544 0.79318 0.0
C1466 C 0.64365 0.12709 0.76966 0.0
H1467 H 0.53797 0.15031 0.71286 0.0
H1468 H 0.56116 0.13085 0.73941 0.0
H1469 H 0.6391 0.15577 0.74767 0.0
H1470 H 0.66938 0.10226 0.84058 0.0
H1471 H 0.65025 0.12457 0.8126 0.0
H1472 H 0.6074 0.07437 0.7733 0.0
C1473 C 0.57167 0.13857 0.72723 0.0
C1474 C 0.63223 0.13787 0.75306 0.0
C1475 C 0.55835 0.14985 0.71198 0.0
C1476 C 0.66482 0.09177 0.82744 0.0
C1477 C 0.65404 0.10455 0.81139 0.0
C1478 C 0.61466 0.09208 0.76784 0.0
C1479 C 0.59812 0.13787 0.72711 0.0
C1480 C 0.61174 0.12593 0.74385 0.0
C1481 C 0.64764 0.09139 0.79413 0.0
C1482 C 0.63504 0.10397 0.77719 0.0
H1483 H 0.6077 0.16789 0.6834 0.0
H1484 H 0.63133 0.14806 0.71044 0.0
H1485 H 0.58756 0.09311 0.74472 0.0
H1486 H 0.66703 0.0328 0.80746 0.0
H1487 H 0.64846 0.05475 0.78008 0.0
C1488 C 0.00213 0.59565 0.18679 0.0
C1489 C 0.9881 0.61164 0.17452 0.0
C1490 C 0.00166 0.56957 0.18414 0.0
C1491 C 0.96683 0.51718 0.16123 0.0
H1492 H 0.03236 0.48454 0.16091 0.0
C1493 C 0.9828 0.41631 0.13132 0.0
C1494 C 0.00098 0.40093 0.14041 0.0
C1495 C 0.97957 0.44142 0.13703 0.0
C1496 C 0.01385 0.4932 0.16129 0.0
H1497 H 0.96179 0.61265 0.15029 0.0
H1498 H 0.96086 0.56689 0.14569 0.0
H1499 H 0.02925 0.52936 0.16808 0.0
H1500 H 0.02956 0.39997 0.1631 0.0
H1501 H 0.02341 0.44349 0.17342 0.0
H1502 H 0.95144 0.48095 0.15439 0.0
C1503 C 0.97216 0.57464 0.15742 0.0
C1504 C 0.01208 0.51895 0.16535 0.0
C1505 C 0.97267 0.60084 0.16006 0.0
C1506 C 0.01529 0.41112 0.15581 0.0
C1507 C 0.01197 0.43623 0.16158 0.0
C1508 C 0.96858 0.49133 0.15727 0.0
C1509 C 0.98709 0.55879 0.16918 0.0
C1510 C 0.98858 0.53126 0.16531 0.0
C1511 C 0.99434 0.45181 0.15205 0.0
C1512 C 0.99215 0.47904 0.15715 0.0
H1513 H 0.01373 0.6033 0.19836 0.0
H1514 H 0.01294 0.55783 0.1937 0.0
H1515 H 0.94844 0.5261 0.16129 0.0
H1516 H 0.97112 0.40905 0.11965 0.0
H1517 H 0.96595 0.45288 0.12925 0.0
C1518 C 0.40655 0.98316 0.16833 0.0
C1519 C 0.39412 0.99776 0.15409 0.0
C1520 C 0.43267 0.98521 0.17087 0.0
C1521 C 0.4866 0.99193 0.14232 0.0
H1522 H 0.52513 0.02323 0.18396 0.0
C1523 C 0.58798 0.02117 0.12949 0.0
C1524 C 0.60596 0.01672 0.14412 0.0
C1525 C 0.56242 0.0182 0.13336 0.0
C1526 C 0.51465 0.01404 0.1724 0.0
H1527 H 0.39901 0.02744 0.13262 0.0
H1528 H 0.4445 0.03038 0.13668 0.0
H1529 H 0.47913 0.01912 0.18719 0.0
H1530 H 0.61132 0.00651 0.17449 0.0
H1531 H 0.56623 0.00093 0.18132 0.0
H1532 H 0.52154 0.98681 0.12736 0.0
C1533 C 0.43403 0.01736 0.14577 0.0
C1534 C 0.48844 0.01176 0.17426 0.0
C1535 C 0.40806 0.01547 0.14334 0.0
C1536 C 0.59779 0.01007 0.16298 0.0
C1537 C 0.57204 0.00689 0.16686 0.0
C1538 C 0.51263 0.99398 0.14053 0.0
C1539 C 0.44657 0.00184 0.15918 0.0
C1540 C 0.47429 0.00124 0.15898 0.0
C1541 C 0.55414 0.01046 0.15193 0.0
C1542 C 0.5269 0.00576 0.15524 0.0
H1543 H 0.39635 0.9693 0.17679 0.0
H1544 H 0.44216 0.97298 0.1812 0.0
H1545 H 0.47594 0.98361 0.13044 0.0
H1546 H 0.5937 0.02696 0.11497 0.0
H1547 H 0.5491 0.0219 0.1217 0.0
C1548 C 0.48033 0.09876 0.37377 0.0
C1549 C 0.50479 0.10848 0.37287 0.0
C1550 C 0.47605 0.07315 0.37045 0.0
C1551 C 0.50791 0.01294 0.35468 0.0
H1552 H 0.45646 0.98328 0.38768 0.0
C1553 C 0.50479 0.90994 0.38299 0.0
C1554 C 0.48228 0.89681 0.37963 0.0
C1555 C 0.50671 0.9354 0.3781 0.0
C1556 C 0.47066 0.99138 0.3782 0.0
H1557 H 0.54395 0.09969 0.36748 0.0
H1558 H 0.53699 0.05463 0.36282 0.0
H1559 H 0.46125 0.02878 0.38697 0.0
H1560 H 0.44429 0.89961 0.36835 0.0
H1561 H 0.4473 0.94469 0.36045 0.0
H1562 H 0.51834 0.97493 0.34725 0.0
C1563 C 0.52079 0.06667 0.36528 0.0
C1564 C 0.47337 0.01752 0.37764 0.0
C1565 C 0.5249 0.09245 0.36806 0.0
C1566 C 0.46186 0.90939 0.37093 0.0
C1567 C 0.46356 0.93504 0.36648 0.0
C1568 C 0.50556 0.98671 0.35565 0.0
C1569 C 0.49632 0.05655 0.3668 0.0
C1570 C 0.49221 0.02873 0.36603 0.0
C1571 C 0.48594 0.94824 0.37019 0.0
C1572 C 0.48704 0.9758 0.36753 0.0
H1573 H 0.46457 0.11101 0.37726 0.0
H1574 H 0.45686 0.06637 0.37114 0.0
H1575 H 0.52227 0.02075 0.34523 0.0
H1576 H 0.52079 0.9005 0.38958 0.0
H1577 H 0.52406 0.94533 0.38122 0.0
C1578 C 0.90403 0.52774 0.36346 0.0
C1579 C 0.8946 0.51204 0.3783 0.0
C1580 C 0.9286 0.52444 0.35639 0.0
C1581 C 0.98595 0.52529 0.35634 0.0
H1582 H 0.01806 0.45951 0.35509 0.0
C1583 C 0.09057 0.51127 0.37251 0.0
C1584 C 0.10401 0.49124 0.36392 0.0
C1585 C 0.06499 0.51465 0.36868 0.0
C1586 C 0.0094 0.47802 0.35495 0.0
H1587 H 0.90313 0.47967 0.39649 0.0
H1588 H 0.94593 0.47441 0.3847 0.0
H1589 H 0.97243 0.46252 0.35796 0.0
H1590 H 0.10142 0.45978 0.34374 0.0
H1591 H 0.05657 0.46587 0.33679 0.0
H1592 H 0.02293 0.54079 0.35349 0.0
C1593 C 0.9344 0.48912 0.3783 0.0
C1594 C 0.98322 0.47976 0.35687 0.0
C1595 C 0.90992 0.49239 0.38532 0.0
C1596 C 0.09157 0.4754 0.35057 0.0
C1597 C 0.06584 0.47877 0.34673 0.0
C1598 C 0.0121 0.52355 0.3543 0.0
C1599 C 0.94424 0.50534 0.36398 0.0
C1600 C 0.97128 0.50342 0.35833 0.0
C1601 C 0.05214 0.49813 0.35609 0.0
C1602 C 0.02423 0.49992 0.35434 0.0
H1603 H 0.89276 0.5431 0.35776 0.0
H1604 H 0.93549 0.53712 0.34521 0.0
H1605 H 0.97745 0.54383 0.35746 0.0
H1606 H 0.09971 0.52406 0.38259 0.0
H1607 H 0.05507 0.52958 0.37635 0.0
C1608 C 0.97204 0.58799 0.8744 0.0
C1609 C 0.98951 0.59904 0.88724 0.0
C1610 C 0.97397 0.56244 0.86944 0.0
C1611 C 0.0179 0.50771 0.86991 0.0
H1612 H 0.95634 0.46858 0.87084 0.0
C1613 C 0.01747 0.39861 0.87226 0.0
C1614 C -0.00069 0.38613 0.86087 0.0
C1615 C 0.01689 0.42488 0.87424 0.0
C1616 C 0.97368 0.47927 0.87028 0.0
H1617 H 0.02337 0.59215 0.90417 0.0
H1618 H 0.02645 0.54765 0.89587 0.0
H1619 H 0.95435 0.51403 0.8758 0.0
H1620 H 0.9668 0.39169 0.8421 0.0
H1621 H 0.96574 0.43731 0.84563 0.0
H1622 H 0.03724 0.47282 0.86465 0.0
C1623 C 0.01133 0.55868 0.88953 0.0
C1624 C 0.97253 0.50535 0.87308 0.0
C1625 C 0.00938 0.58416 0.89449 0.0
C1626 C 0.98076 0.40057 0.85133 0.0
C1627 C 0.98017 0.42677 0.85332 0.0
C1628 C 0.01905 0.4816 0.86714 0.0
C1629 C 0.99346 0.54741 0.87716 0.0
C1630 C 0.99463 0.51988 0.87306 0.0
C1631 C 0.99812 0.43924 0.86487 0.0
C1632 C 0.99696 0.46706 0.8674 0.0
H1633 H 0.95643 0.59885 0.86863 0.0
H1634 H 0.96008 0.55441 0.85967 0.0
H1635 H 0.03525 0.51839 0.86953 0.0
H1636 H 0.03184 0.38808 0.87998 0.0
H1637 H 0.03082 0.43389 0.88345 0.0
C1638 C 0.58996 0.00923 0.87248 0.0
C1639 C 0.60141 0.01989 0.88903 0.0
C1640 C 0.56366 0.00777 0.87129 0.0
C1641 C 0.5079 0.00874 0.90397 0.0
H1642 H 0.4699 0.01501 0.85577 0.0
C1643 C 0.40065 0.01527 0.90446 0.0
C1644 C 0.38809 0.99736 0.89287 0.0
C1645 C 0.42636 0.0195 0.90203 0.0
C1646 C 0.48038 0.01314 0.86928 0.0
H1647 H 0.59475 0.03906 0.91653 0.0
H1648 H 0.54906 0.0375 0.91423 0.0
H1649 H 0.5158 0.02014 0.85522 0.0
H1650 H 0.39267 0.97079 0.86887 0.0
H1651 H 0.43766 0.97864 0.86444 0.0
H1652 H 0.47257 0.00222 0.91807 0.0
C1653 C 0.56013 0.02921 0.90253 0.0
C1654 C 0.50661 0.01597 0.86899 0.0
C1655 C 0.58628 0.03024 0.90384 0.0
C1656 C 0.40164 0.9848 0.87801 0.0
C1657 C 0.42741 0.98924 0.87546 0.0
C1658 C 0.48181 0.00626 0.90429 0.0
C1659 C 0.54846 0.01732 0.88653 0.0
C1660 C 0.52065 0.014 0.8864 0.0
C1661 C 0.44007 0.00615 0.88781 0.0
C1662 C 0.46778 0.00859 0.887 0.0
H1663 H 0.60137 0.00112 0.86091 0.0
H1664 H 0.55532 0.99838 0.85881 0.0
H1665 H 0.5181 0.00631 0.91756 0.0
H1666 H 0.39074 0.0258 0.91567 0.0
H1667 H 0.43566 0.03295 0.91153 0.0
C1668 C 0.51143 0.89935 0.64395 0.0
C1669 C 0.49217 0.88617 0.65353 0.0
C1670 C 0.51105 0.92561 0.64327 0.0
C1671 C 0.46986 0.98143 0.64991 0.0
H1672 H 0.53394 0.01543 0.65614 0.0
C1673 C 0.51494 0.08814 0.65852 0.0
C1674 C 0.50136 0.10062 0.64374 0.0
C1675 C 0.51178 0.06233 0.66159 0.0
C1676 C 0.51582 0.0063 0.65467 0.0
H1677 H 0.45726 0.88998 0.66974 0.0
H1678 H 0.45669 0.93603 0.66882 0.0
H1679 H 0.53234 0.96975 0.6576 0.0
H1680 H 0.47271 0.09583 0.6214 0.0
H1681 H 0.46796 0.05079 0.62623 0.0
H1682 H 0.4533 0.01813 0.64741 0.0
C1683 C 0.47188 0.92605 0.66152 0.0
C1684 C 0.51496 0.98005 0.65518 0.0
C1685 C 0.47217 0.89971 0.66205 0.0
C1686 C 0.48386 0.08681 0.63265 0.0
C1687 C 0.48084 0.06098 0.63562 0.0
C1688 C 0.4707 0.00776 0.64952 0.0
C1689 C 0.49152 0.9393 0.65234 0.0
C1690 C 0.49205 0.96728 0.65254 0.0
C1691 C 0.49511 0.04834 0.64988 0.0
C1692 C 0.49374 0.02048 0.65169 0.0
H1693 H 0.52684 0.8893 0.63702 0.0
H1694 H 0.52614 0.9352 0.63565 0.0
H1695 H 0.45192 0.97217 0.64773 0.0
H1696 H 0.52865 0.09803 0.66733 0.0
H1697 H 0.52274 0.05325 0.67295 0.0
C1698 C 0.9168 0.50503 0.67798 0.0
C1699 C 0.89864 0.5169 0.6662 0.0
C1700 C 0.94242 0.50848 0.67445 0.0
C1701 C 0.98599 0.52311 0.63465 0.0
H1702 H 0.0351 0.52325 0.67666 0.0
C1703 C 0.09318 0.51816 0.61981 0.0
C1704 C 0.1064 0.50029 0.63105 0.0
C1705 C 0.06846 0.52494 0.62464 0.0
C1706 C 0.02161 0.52319 0.66477 0.0
H1707 H 0.89307 0.54248 0.64192 0.0
H1708 H 0.93815 0.54871 0.63573 0.0
H1709 H 0.99039 0.5278 0.68431 0.0
H1710 H 0.10388 0.47575 0.65634 0.0
H1711 H 0.06094 0.48766 0.66479 0.0
H1712 H 0.01718 0.51785 0.61515 0.0
C1713 C 0.93244 0.53654 0.64763 0.0
C1714 C 0.99601 0.52582 0.66914 0.0
C1715 C 0.90667 0.53316 0.65125 0.0
C1716 C 0.09448 0.48982 0.6475 0.0
C1717 C 0.06981 0.49667 0.65236 0.0
C1718 C 0.01161 0.52055 0.63027 0.0
C1719 C 0.95058 0.5239 0.65903 0.0
C1720 C 0.97785 0.52511 0.65418 0.0
C1721 C 0.05643 0.51411 0.64087 0.0
C1722 C 0.02963 0.5199 0.64533 0.0
H1723 H 0.91119 0.49272 0.68981 0.0
H1724 H 0.95582 0.49822 0.68338 0.0
H1725 H 0.97249 0.52221 0.62279 0.0
H1726 H 0.10189 0.52697 0.60726 0.0
H1727 H 0.05874 0.53867 0.61564 0.0
loop_
_geom_bond_atom_site_label_1
_geom_bond_atom_site_label_2
_geom_bond_distance
_geom_bond_site_symmetry_2
_ccdc_geom_bond_type
C0 C1 1.351 . S
C0 N3 1.368 . S
C0 H5 0.931 . S
C1 C0 1.351 . S
C1 N2 1.373 . S
C1 H29 0.930 . S
N2 C1 1.373 . S
N2 C4 1.340 . S
N3 C0 1.368 . S
N3 C4 1.321 . S
N3 Co6 2.135 . S
C4 N2 1.340 . S
C4 N3 1.321 . S
C4 H28 0.930 . S
H5 C0 0.931 . S
Co6 N3 2.135 . S
Co6 N9 2.121 . S
Co6 O14 2.055 . S
Co6 O17 2.039 . S
Co6 N20 2.140 . S
C7 O8 1.227 . S
C7 O17 1.265 . S
O8 C7 1.227 . S
N9 Co6 2.121 . S
N9 C11 1.375 . S
N9 C12 1.313 . S
C10 C11 1.338 . S
C10 N13 1.377 . S
C10 H30 0.930 . S
C11 N9 1.375 . S
C11 C10 1.338 . S
C11 H15 0.931 . S
C12 N9 1.313 . S
C12 N13 1.344 . S
C12 H16 0.930 . S
N13 C10 1.377 . S
N13 C12 1.344 . S
O14 Co6 2.055 . S
O14 C18 1.253 . S
H15 C11 0.931 . S
H16 C12 0.930 . S
O17 Co6 2.039 . S
O17 C7 1.265 . S
C18 O14 1.253 . S
C18 O19 1.227 . S
O19 C18 1.227 . S
N20 Co6 2.140 . S
N20 C23 1.346 . S
N20 C24 1.345 . S
C21 C22 1.369 1_655 S
C21 C25 1.387 1_655 S
C22 C21 1.369 1_455 S
C22 C23 1.369 . S
C22 H31 0.929 . S
C23 N20 1.346 . S
C23 C22 1.369 . S
C23 H26 0.928 . S
C24 N20 1.345 . S
C24 C25 1.371 . S
C24 H27 0.931 . S
C25 C21 1.387 1_455 S
C25 C24 1.371 . S
C25 H32 0.930 1_455 S
H26 C23 0.928 . S
H27 C24 0.931 . S
H28 C4 0.930 . S
H29 C1 0.930 . S
H30 C10 0.930 . S
H31 C22 0.929 . S
H32 C25 0.930 1_655 S
C33 C34 1.351 . S
C33 N36 1.368 . S
C33 H38 0.931 . S
C34 C33 1.351 . S
C34 N35 1.373 . S
C34 H62 0.930 . S
N35 C34 1.373 . S
N35 C37 1.340 . S
N36 C33 1.368 . S
N36 C37 1.321 . S
N36 Co39 2.135 . S
C37 N35 1.340 . S
C37 N36 1.321 . S
C37 H61 0.930 . S
H38 C33 0.931 . S
Co39 N36 2.135 . S
Co39 N42 2.121 . S
Co39 O47 2.055 . S
Co39 O50 2.039 . S
Co39 N53 2.140 . S
C40 O41 1.227 . S
C40 O50 1.265 . S
O41 C40 1.227 . S
N42 Co39 2.121 . S
N42 C44 1.375 . S
N42 C45 1.313 . S
C43 C44 1.338 . S
C43 N46 1.377 . S
C43 H63 0.930 . S
C44 N42 1.375 . S
C44 C43 1.338 . S
C44 H48 0.931 . S
C45 N42 1.313 . S
C45 N46 1.344 . S
C45 H49 0.930 . S
N46 C43 1.377 . S
N46 C45 1.344 . S
O47 Co39 2.055 . S
O47 C51 1.253 . S
H48 C44 0.931 . S
H49 C45 0.930 . S
O50 Co39 2.039 . S
O50 C40 1.265 . S
C51 O47 1.253 . S
C51 O52 1.227 . S
O52 C51 1.227 . S
N53 Co39 2.140 . S
N53 C56 1.346 . S
N53 C57 1.345 . S
C54 C55 1.369 1_565 S
C54 C58 1.387 1_565 S
C55 C54 1.369 1_545 S
C55 C56 1.369 . S
C55 H64 0.929 . S
C56 N53 1.346 . S
C56 C55 1.369 . S
C56 H59 0.928 . S
C57 N53 1.345 . S
C57 C58 1.371 . S
C57 H60 0.931 . S
C58 C54 1.387 1_545 S
C58 C57 1.371 . S
C58 H65 0.930 1_545 S
H59 C56 0.928 . S
H60 C57 0.931 . S
H61 C37 0.930 . S
H62 C34 0.930 . S
H63 C43 0.930 . S
H64 C55 0.929 . S
H65 C58 0.930 1_565 S
C66 C67 1.351 . S
C66 N69 1.368 . S
C66 H71 0.931 . S
C67 C66 1.351 . S
C67 N68 1.373 . S
C67 H95 0.930 . S
N68 C67 1.373 . S
N68 C70 1.340 . S
N69 C66 1.368 . S
N69 C70 1.321 . S
N69 Co72 2.135 . S
C70 N68 1.340 . S
C70 N69 1.321 . S
C70 H94 0.930 . S
H71 C66 0.931 . S
Co72 N69 2.135 . S
Co72 N75 2.121 . S
Co72 O80 2.055 . S
Co72 O83 2.039 . S
Co72 N86 2.140 . S
C73 O74 1.227 . S
C73 O83 1.265 . S
O74 C73 1.227 . S
N75 Co72 2.121 . S
N75 C77 1.375 . S
N75 C78 1.313 . S
C76 C77 1.338 . S
C76 N79 1.377 . S
C76 H96 0.930 . S
C77 N75 1.375 . S
C77 C76 1.338 . S
C77 H81 0.931 . S
C78 N75 1.313 . S
C78 N79 1.344 . S
C78 H82 0.930 . S
N79 C76 1.377 . S
N79 C78 1.344 . S
O80 Co72 2.055 . S
O80 C84 1.253 . S
H81 C77 0.931 . S
H82 C78 0.930 . S
O83 Co72 2.039 . S
O83 C73 1.265 . S
C84 O80 1.253 . S
C84 O85 1.227 . S
O85 C84 1.227 . S
N86 Co72 2.140 . S
N86 C89 1.346 . S
N86 C90 1.345 . S
C87 C88 1.369 1_455 S
C87 C91 1.387 1_455 S
C88 C87 1.369 1_655 S
C88 C89 1.369 . S
C88 H97 0.929 . S
C89 N86 1.346 . S
C89 C88 1.369 . S
C89 H92 0.928 . S
C90 N86 1.345 . S
C90 C91 1.371 . S
C90 H93 0.931 . S
C91 C87 1.387 1_655 S
C91 C90 1.371 . S
C91 H98 0.930 1_655 S
H92 C89 0.928 . S
H93 C90 0.931 . S
H94 C70 0.930 . S
H95 C67 0.930 . S
H96 C76 0.930 . S
H97 C88 0.929 . S
H98 C91 0.930 1_455 S
C99 C100 1.351 . S
C99 N102 1.368 . S
C99 H104 0.931 . S
C100 C99 1.351 . S
C100 N101 1.373 . S
C100 H128 0.930 . S
N101 C100 1.373 . S
N101 C103 1.340 . S
N102 C99 1.368 . S
N102 C103 1.321 . S
N102 Co105 2.135 . S
C103 N101 1.340 . S
C103 N102 1.321 . S
C103 H127 0.930 . S
H104 C99 0.931 . S
Co105 N102 2.135 . S
Co105 N108 2.121 . S
Co105 O113 2.055 . S
Co105 O116 2.039 . S
Co105 N119 2.140 . S
C106 O107 1.227 . S
C106 O116 1.265 . S
O107 C106 1.227 . S
N108 Co105 2.121 . S
N108 C110 1.375 . S
N108 C111 1.313 . S
C109 C110 1.338 . S
C109 N112 1.377 . S
C109 H129 0.930 . S
C110 N108 1.375 . S
C110 C109 1.338 . S
C110 H114 0.931 . S
C111 N108 1.313 . S
C111 N112 1.344 . S
C111 H115 0.930 . S
N112 C109 1.377 . S
N112 C111 1.344 . S
O113 Co105 2.055 . S
O113 C117 1.253 . S
H114 C110 0.931 . S
H115 C111 0.930 . S
O116 Co105 2.039 . S
O116 C106 1.265 . S
C117 O113 1.253 . S
C117 O118 1.227 . S
O118 C117 1.227 . S
N119 Co105 2.140 . S
N119 C122 1.346 . S
N119 C123 1.345 . S
C120 C121 1.369 1_545 S
C120 C124 1.387 1_545 S
C121 C120 1.369 1_565 S
C121 C122 1.369 . S
C121 H130 0.929 . S
C122 N119 1.346 . S
C122 C121 1.369 . S
C122 H125 0.928 . S
C123 N119 1.345 . S
C123 C124 1.371 . S
C123 H126 0.931 . S
C124 C120 1.387 1_565 S
C124 C123 1.371 . S
C124 H131 0.930 1_565 S
H125 C122 0.928 . S
H126 C123 0.931 . S
H127 C103 0.930 . S
H128 C100 0.930 . S
H129 C109 0.930 . S
H130 C121 0.929 . S
H131 C124 0.930 1_545 S
C132 C133 1.351 . S
C132 N135 1.368 . S
C132 H137 0.931 . S
C133 C132 1.351 . S
C133 N134 1.373 . S
C133 H161 0.930 . S
N134 C133 1.373 . S
N134 C136 1.340 . S
N135 C132 1.368 . S
N135 C136 1.321 . S
N135 Co138 2.135 . S
C136 N134 1.340 . S
C136 N135 1.321 . S
C136 H160 0.930 . S
H137 C132 0.931 . S
Co138 N135 2.135 . S
Co138 N141 2.121 . S
Co138 O146 2.055 . S
Co138 O149 2.039 . S
Co138 N152 2.140 . S
C139 O140 1.227 . S
C139 O149 1.265 . S
O140 C139 1.227 . S
N141 Co138 2.121 . S
N141 C143 1.375 . S
N141 C144 1.313 . S
C142 C143 1.338 . S
C142 N145 1.377 . S
C142 H162 0.930 . S
C143 N141 1.375 . S
C143 C142 1.338 . S
C143 H147 0.931 . S
C144 N141 1.313 . S
C144 N145 1.344 . S
C144 H148 0.930 . S
N145 C142 1.377 . S
N145 C144 1.344 . S
O146 Co138 2.055 . S
O146 C150 1.253 . S
H147 C143 0.931 . S
H148 C144 0.930 . S
O149 Co138 2.039 . S
O149 C139 1.265 . S
C150 O146 1.253 . S
C150 O151 1.227 . S
O151 C150 1.227 . S
N152 Co138 2.140 . S
N152 C155 1.346 . S
N152 C156 1.345 . S
C153 C154 1.387 . S
C153 C157 1.391 . S
C154 C153 1.387 . S
C154 C155 1.369 . S
C154 H163 0.929 . S
C155 N152 1.346 . S
C155 C154 1.369 . S
C155 H158 0.928 . S
C156 N152 1.345 . S
C156 C157 1.371 . S
C156 H159 0.931 . S
C157 C153 1.391 . S
C157 C156 1.371 . S
C157 H164 0.930 . S
H158 C155 0.928 . S
H159 C156 0.931 . S
H160 C136 0.930 . S
H161 C133 0.930 . S
H162 C142 0.930 . S
H163 C154 0.929 . S
H164 C157 0.930 . S
C165 C166 1.351 . S
C165 N168 1.368 . S
C165 H170 0.931 . S
C166 C165 1.351 . S
C166 N167 1.373 . S
C166 H194 0.930 . S
N167 C166 1.373 . S
N167 C169 1.340 . S
N168 C165 1.368 . S
N168 C169 1.321 . S
N168 Co171 2.135 . S
C169 N167 1.340 . S
C169 N168 1.321 . S
C169 H193 0.930 . S
H170 C165 0.931 . S
Co171 N168 2.135 . S
Co171 N174 2.121 . S
Co171 O179 2.055 . S
Co171 O182 2.039 . S
Co171 N185 2.140 . S
C172 O173 1.227 . S
C172 O182 1.265 . S
O173 C172 1.227 . S
N174 Co171 2.121 . S
N174 C176 1.375 . S
N174 C177 1.313 . S
C175 C176 1.338 . S
C175 N178 1.377 . S
C175 H195 0.930 . S
C176 N174 1.375 . S
C176 C175 1.338 . S
C176 H180 0.931 . S
C177 N174 1.313 . S
C177 N178 1.344 . S
C177 H181 0.930 . S
N178 C175 1.377 . S
N178 C177 1.344 . S
O179 Co171 2.055 . S
O179 C183 1.253 . S
H180 C176 0.931 . S
H181 C177 0.930 . S
O182 Co171 2.039 . S
O182 C172 1.265 . S
C183 O179 1.253 . S
C183 O184 1.227 . S
O184 C183 1.227 . S
N185 Co171 2.140 . S
N185 C188 1.346 . S
N185 C189 1.345 . S
C186 C187 1.387 . S
C186 C190 1.391 . S
C187 C186 1.387 . S
C187 C188 1.369 . S
C187 H196 0.929 . S
C188 N185 1.346 . S
C188 C187 1.369 . S
C188 H191 0.928 . S
C189 N185 1.345 . S
C189 C190 1.371 . S
C189 H192 0.931 . S
C190 C186 1.391 . S
C190 C189 1.371 . S
C190 H197 0.930 . S
H191 C188 0.928 . S
H192 C189 0.931 . S
H193 C169 0.930 . S
H194 C166 0.930 . S
H195 C175 0.930 . S
H196 C187 0.929 . S
H197 C190 0.930 . S
C198 C199 1.351 . S
C198 N201 1.368 . S
C198 H203 0.931 . S
C199 C198 1.351 . S
C199 N200 1.373 . S
C199 H227 0.930 . S
N200 C199 1.373 . S
N200 C202 1.340 . S
N201 C198 1.368 . S
N201 C202 1.321 . S
N201 Co204 2.135 . S
C202 N200 1.340 . S
C202 N201 1.321 . S
C202 H226 0.930 . S
H203 C198 0.931 . S
Co204 N201 2.135 . S
Co204 N207 2.121 . S
Co204 O212 2.055 . S
Co204 O215 2.039 . S
Co204 N218 2.140 . S
C205 O206 1.227 . S
C205 O215 1.265 . S
O206 C205 1.227 . S
N207 Co204 2.121 . S
N207 C209 1.375 . S
N207 C210 1.313 . S
C208 C209 1.338 . S
C208 N211 1.377 . S
C208 H228 0.930 . S
C209 N207 1.375 . S
C209 C208 1.338 . S
C209 H213 0.931 . S
C210 N207 1.313 . S
C210 N211 1.344 . S
C210 H214 0.930 . S
N211 C208 1.377 . S
N211 C210 1.344 . S
O212 Co204 2.055 . S
O212 C216 1.253 . S
H213 C209 0.931 . S
H214 C210 0.930 . S
O215 Co204 2.039 . S
O215 C205 1.265 . S
C216 O212 1.253 . S
C216 O217 1.227 . S
O217 C216 1.227 . S
N218 Co204 2.140 . S
N218 C221 1.346 . S
N218 C222 1.345 . S
C219 C220 1.387 . S
C219 C223 1.391 . S
C220 C219 1.387 . S
C220 C221 1.369 . S
C220 H229 0.929 . S
C221 N218 1.346 . S
C221 C220 1.369 . S
C221 H224 0.928 . S
C222 N218 1.345 . S
C222 C223 1.371 . S
C222 H225 0.931 . S
C223 C219 1.391 . S
C223 C222 1.371 . S
C223 H230 0.930 . S
H224 C221 0.928 . S
H225 C222 0.931 . S
H226 C202 0.930 . S
H227 C199 0.930 . S
H228 C208 0.930 . S
H229 C220 0.929 . S
H230 C223 0.930 . S
C231 C232 1.351 . S
C231 N234 1.368 . S
C231 H236 0.931 . S
C232 C231 1.351 . S
C232 N233 1.373 . S
C232 H260 0.930 . S
N233 C232 1.373 . S
N233 C235 1.340 . S
N234 C231 1.368 . S
N234 C235 1.321 . S
N234 Co237 2.135 . S
C235 N233 1.340 . S
C235 N234 1.321 . S
C235 H259 0.930 . S
H236 C231 0.931 . S
Co237 N234 2.135 . S
Co237 N240 2.121 . S
Co237 O245 2.055 . S
Co237 O248 2.039 . S
Co237 N251 2.140 . S
C238 O239 1.227 . S
C238 O248 1.265 . S
O239 C238 1.227 . S
N240 Co237 2.121 . S
N240 C242 1.375 . S
N240 C243 1.313 . S
C241 C242 1.338 . S
C241 N244 1.377 . S
C241 H261 0.930 . S
C242 N240 1.375 . S
C242 C241 1.338 . S
C242 H246 0.931 . S
C243 N240 1.313 . S
C243 N244 1.344 . S
C243 H247 0.930 . S
N244 C241 1.377 . S
N244 C243 1.344 . S
O245 Co237 2.055 . S
O245 C249 1.253 . S
H246 C242 0.931 . S
H247 C243 0.930 . S
O248 Co237 2.039 . S
O248 C238 1.265 . S
C249 O245 1.253 . S
C249 O250 1.227 . S
O250 C249 1.227 . S
N251 Co237 2.140 . S
N251 C254 1.346 . S
N251 C255 1.345 . S
C252 C253 1.387 . S
C252 C256 1.391 . S
C253 C252 1.387 . S
C253 C254 1.369 . S
C253 H262 0.929 . S
C254 N251 1.346 . S
C254 C253 1.369 . S
C254 H257 0.928 . S
C255 N251 1.345 . S
C255 C256 1.371 . S
C255 H258 0.931 . S
C256 C252 1.391 . S
C256 C255 1.371 . S
C256 H263 0.930 . S
H257 C254 0.928 . S
H258 C255 0.931 . S
H259 C235 0.930 . S
H260 C232 0.930 . S
H261 C241 0.930 . S
H262 C253 0.929 . S
H263 C256 0.930 . S
C264 C265 1.351 . S
C264 N267 1.368 . S
C264 H269 0.931 . S
C265 C264 1.351 . S
C265 N266 1.373 . S
C265 H293 0.930 . S
N266 C265 1.373 . S
N266 C268 1.340 . S
N267 C264 1.368 . S
N267 C268 1.321 . S
N267 Co270 2.135 . S
C268 N266 1.340 . S
C268 N267 1.321 . S
C268 H292 0.930 . S
H269 C264 0.931 . S
Co270 N267 2.135 . S
Co270 N273 2.121 . S
Co270 O278 2.055 . S
Co270 O281 2.039 . S
Co270 N284 2.140 . S
C271 O272 1.227 . S
C271 O281 1.265 . S
O272 C271 1.227 . S
N273 Co270 2.121 . S
N273 C275 1.375 . S
N273 C276 1.313 . S
C274 C275 1.338 . S
C274 N277 1.377 . S
C274 H294 0.930 . S
C275 N273 1.375 . S
C275 C274 1.338 . S
C275 H279 0.931 . S
C276 N273 1.313 . S
C276 N277 1.344 . S
C276 H280 0.930 . S
N277 C274 1.377 . S
N277 C276 1.344 . S
O278 Co270 2.055 . S
O278 C282 1.253 . S
H279 C275 0.931 . S
H280 C276 0.930 . S
O281 Co270 2.039 . S
O281 C271 1.265 . S
C282 O278 1.253 . S
C282 O283 1.227 . S
O283 C282 1.227 . S
N284 Co270 2.140 . S
N284 C287 1.346 . S
N284 C288 1.345 . S
C285 C286 1.369 1_455 S
C285 C289 1.387 1_455 S
C286 C285 1.369 1_655 S
C286 C287 1.369 . S
C286 H295 0.929 . S
C287 N284 1.346 . S
C287 C286 1.369 . S
C287 H290 0.928 . S
C288 N284 1.345 . S
C288 C289 1.371 . S
C288 H291 0.931 . S
C289 C285 1.387 1_655 S
C289 C288 1.371 . S
C289 H296 0.930 1_655 S
H290 C287 0.928 . S
H291 C288 0.931 . S
H292 C268 0.930 . S
H293 C265 0.930 . S
H294 C274 0.930 . S
H295 C286 0.929 . S
H296 C289 0.930 1_455 S
C297 C298 1.351 . S
C297 N300 1.368 . S
C297 H302 0.931 . S
C298 C297 1.351 . S
C298 N299 1.373 . S
C298 H326 0.930 . S
N299 C298 1.373 . S
N299 C301 1.340 . S
N300 C297 1.368 . S
N300 C301 1.321 . S
N300 Co303 2.135 . S
C301 N299 1.340 . S
C301 N300 1.321 . S
C301 H325 0.930 . S
H302 C297 0.931 . S
Co303 N300 2.135 . S
Co303 N306 2.121 . S
Co303 O311 2.055 . S
Co303 O314 2.039 . S
Co303 N317 2.140 . S
C304 O305 1.227 . S
C304 O314 1.265 . S
O305 C304 1.227 . S
N306 Co303 2.121 . S
N306 C308 1.375 . S
N306 C309 1.313 . S
C307 C308 1.338 . S
C307 N310 1.377 . S
C307 H327 0.930 . S
C308 N306 1.375 . S
C308 C307 1.338 . S
C308 H312 0.931 . S
C309 N306 1.313 . S
C309 N310 1.344 . S
C309 H313 0.930 . S
N310 C307 1.377 . S
N310 C309 1.344 . S
O311 Co303 2.055 . S
O311 C315 1.253 . S
H312 C308 0.931 . S
H313 C309 0.930 . S
O314 Co303 2.039 . S
O314 C304 1.265 . S
C315 O311 1.253 . S
C315 O316 1.227 . S
O316 C315 1.227 . S
N317 Co303 2.140 . S
N317 C320 1.346 . S
N317 C321 1.345 . S
C318 C319 1.369 1_545 S
C318 C322 1.387 1_545 S
C319 C318 1.369 1_565 S
C319 C320 1.369 . S
C319 H328 0.929 . S
C320 N317 1.346 . S
C320 C319 1.369 . S
C320 H323 0.928 . S
C321 N317 1.345 . S
C321 C322 1.371 . S
C321 H324 0.931 . S
C322 C318 1.387 1_565 S
C322 C321 1.371 . S
C322 H329 0.930 1_565 S
H323 C320 0.928 . S
H324 C321 0.931 . S
H325 C301 0.930 . S
H326 C298 0.930 . S
H327 C307 0.930 . S
H328 C319 0.929 . S
H329 C322 0.930 1_545 S
C330 C331 1.351 . S
C330 N333 1.368 . S
C330 H335 0.931 . S
C331 C330 1.351 . S
C331 N332 1.373 . S
C331 H359 0.930 . S
N332 C331 1.373 . S
N332 C334 1.340 . S
N333 C330 1.368 . S
N333 C334 1.321 . S
N333 Co336 2.135 . S
C334 N332 1.340 . S
C334 N333 1.321 . S
C334 H358 0.930 . S
H335 C330 0.931 . S
Co336 N333 2.135 . S
Co336 N339 2.121 . S
Co336 O344 2.055 . S
Co336 O347 2.039 . S
Co336 N350 2.140 . S
C337 O338 1.227 . S
C337 O347 1.265 . S
O338 C337 1.227 . S
N339 Co336 2.121 . S
N339 C341 1.375 . S
N339 C342 1.313 . S
C340 C341 1.338 . S
C340 N343 1.377 . S
C340 H360 0.930 . S
C341 N339 1.375 . S
C341 C340 1.338 . S
C341 H345 0.931 . S
C342 N339 1.313 . S
C342 N343 1.344 . S
C342 H346 0.930 . S
N343 C340 1.377 . S
N343 C342 1.344 . S
O344 Co336 2.055 . S
O344 C348 1.253 . S
H345 C341 0.931 . S
H346 C342 0.930 . S
O347 Co336 2.039 . S
O347 C337 1.265 . S
C348 O344 1.253 . S
C348 O349 1.227 . S
O349 C348 1.227 . S
N350 Co336 2.140 . S
N350 C353 1.346 . S
N350 C354 1.345 . S
C351 C352 1.369 1_655 S
C351 C355 1.387 1_655 S
C352 C351 1.369 1_455 S
C352 C353 1.369 . S
C352 H361 0.929 . S
C353 N350 1.346 . S
C353 C352 1.369 . S
C353 H356 0.928 . S
C354 N350 1.345 . S
C354 C355 1.371 . S
C354 H357 0.931 . S
C355 C351 1.387 1_455 S
C355 C354 1.371 . S
C355 H362 0.930 1_455 S
H356 C353 0.928 . S
H357 C354 0.931 . S
H358 C334 0.930 . S
H359 C331 0.930 . S
H360 C340 0.930 . S
H361 C352 0.929 . S
H362 C355 0.930 1_655 S
C363 C364 1.351 . S
C363 N366 1.368 . S
C363 H368 0.931 . S
C364 C363 1.351 . S
C364 N365 1.373 . S
C364 H392 0.930 . S
N365 C364 1.373 . S
N365 C367 1.340 . S
N366 C363 1.368 . S
N366 C367 1.321 . S
N366 Co369 2.135 . S
C367 N365 1.340 . S
C367 N366 1.321 . S
C367 H391 0.930 . S
H368 C363 0.931 . S
Co369 N366 2.135 . S
Co369 N372 2.121 . S
Co369 O377 2.055 . S
Co369 O380 2.039 . S
Co369 N383 2.140 . S
C370 O371 1.227 . S
C370 O380 1.265 . S
O371 C370 1.227 . S
N372 Co369 2.121 . S
N372 C374 1.375 . S
N372 C375 1.313 . S
C373 C374 1.338 . S
C373 N376 1.377 . S
C373 H393 0.930 . S
C374 N372 1.375 . S
C374 C373 1.338 . S
C374 H378 0.931 . S
C375 N372 1.313 . S
C375 N376 1.344 . S
C375 H379 0.930 . S
N376 C373 1.377 . S
N376 C375 1.344 . S
O377 Co369 2.055 . S
O377 C381 1.253 . S
H378 C374 0.931 . S
H379 C375 0.930 . S
O380 Co369 2.039 . S
O380 C370 1.265 . S
C381 O377 1.253 . S
C381 O382 1.227 . S
O382 C381 1.227 . S
N383 Co369 2.140 . S
N383 C386 1.346 . S
N383 C387 1.345 . S
C384 C385 1.369 1_565 S
C384 C388 1.387 1_565 S
C385 C384 1.369 1_545 S
C385 C386 1.369 . S
C385 H394 0.929 . S
C386 N383 1.346 . S
C386 C385 1.369 . S
C386 H389 0.928 . S
C387 N383 1.345 . S
C387 C388 1.371 . S
C387 H390 0.931 . S
C388 C384 1.387 1_545 S
C388 C387 1.371 . S
C388 H395 0.930 1_545 S
H389 C386 0.928 . S
H390 C387 0.931 . S
H391 C367 0.930 . S
H392 C364 0.930 . S
H393 C373 0.930 . S
H394 C385 0.929 . S
H395 C388 0.930 1_565 S
C396 C397 1.351 . S
C396 N399 1.368 . S
C396 H401 0.931 . S
C397 C396 1.351 . S
C397 N398 1.373 . S
C397 H425 0.930 . S
N398 C397 1.373 . S
N398 C400 1.340 . S
N399 C396 1.368 . S
N399 C400 1.321 . S
N399 Co402 2.135 . S
C400 N398 1.340 . S
C400 N399 1.321 . S
C400 H424 0.930 . S
H401 C396 0.931 . S
Co402 N399 2.135 . S
Co402 N405 2.121 . S
Co402 O410 2.055 . S
Co402 O413 2.039 . S
Co402 N416 2.140 . S
C403 O404 1.227 . S
C403 O413 1.265 . S
O404 C403 1.227 . S
N405 Co402 2.121 . S
N405 C407 1.375 . S
N405 C408 1.313 . S
C406 C407 1.338 . S
C406 N409 1.377 . S
C406 H426 0.930 . S
C407 N405 1.375 . S
C407 C406 1.338 . S
C407 H411 0.931 . S
C408 N405 1.313 . S
C408 N409 1.344 . S
C408 H412 0.930 . S
N409 C406 1.377 . S
N409 C408 1.344 . S
O410 Co402 2.055 . S
O410 C414 1.253 . S
H411 C407 0.931 . S
H412 C408 0.930 . S
O413 Co402 2.039 . S
O413 C403 1.265 . S
C414 O410 1.253 . S
C414 O415 1.227 . S
O415 C414 1.227 . S
N416 Co402 2.140 . S
N416 C419 1.346 . S
N416 C420 1.345 . S
C417 C418 1.387 . S
C417 C421 1.391 . S
C418 C417 1.387 . S
C418 C419 1.369 . S
C418 H427 0.929 . S
C419 N416 1.346 . S
C419 C418 1.369 . S
C419 H422 0.928 . S
C420 N416 1.345 . S
C420 C421 1.371 . S
C420 H423 0.931 . S
C421 C417 1.391 . S
C421 C420 1.371 . S
C421 H428 0.930 . S
H422 C419 0.928 . S
H423 C420 0.931 . S
H424 C400 0.930 . S
H425 C397 0.930 . S
H426 C406 0.930 . S
H427 C418 0.929 . S
H428 C421 0.930 . S
C429 C430 1.351 . S
C429 N432 1.368 . S
C429 H434 0.931 . S
C430 C429 1.351 . S
C430 N431 1.373 . S
C430 H458 0.930 . S
N431 C430 1.373 . S
N431 C433 1.340 . S
N432 C429 1.368 . S
N432 C433 1.321 . S
N432 Co435 2.135 . S
C433 N431 1.340 . S
C433 N432 1.321 . S
C433 H457 0.930 . S
H434 C429 0.931 . S
Co435 N432 2.135 . S
Co435 N438 2.121 . S
Co435 O443 2.055 . S
Co435 O446 2.039 . S
Co435 N449 2.140 . S
C436 O437 1.227 . S
C436 O446 1.265 . S
O437 C436 1.227 . S
N438 Co435 2.121 . S
N438 C440 1.375 . S
N438 C441 1.313 . S
C439 C440 1.338 . S
C439 N442 1.377 . S
C439 H459 0.930 . S
C440 N438 1.375 . S
C440 C439 1.338 . S
C440 H444 0.931 . S
C441 N438 1.313 . S
C441 N442 1.344 . S
C441 H445 0.930 . S
N442 C439 1.377 . S
N442 C441 1.344 . S
O443 Co435 2.055 . S
O443 C447 1.253 . S
H444 C440 0.931 . S
H445 C441 0.930 . S
O446 Co435 2.039 . S
O446 C436 1.265 . S
C447 O443 1.253 . S
C447 O448 1.227 . S
O448 C447 1.227 . S
N449 Co435 2.140 . S
N449 C452 1.346 . S
N449 C453 1.345 . S
C450 C451 1.387 . S
C450 C454 1.391 . S
C451 C450 1.387 . S
C451 C452 1.369 . S
C451 H460 0.929 . S
C452 N449 1.346 . S
C452 C451 1.369 . S
C452 H455 0.928 . S
C453 N449 1.345 . S
C453 C454 1.371 . S
C453 H456 0.931 . S
C454 C450 1.391 . S
C454 C453 1.371 . S
C454 H461 0.930 . S
H455 C452 0.928 . S
H456 C453 0.931 . S
H457 C433 0.930 . S
H458 C430 0.930 . S
H459 C439 0.930 . S
H460 C451 0.929 . S
H461 C454 0.930 . S
C462 C463 1.351 . S
C462 N465 1.368 . S
C462 H467 0.931 . S
C463 C462 1.351 . S
C463 N464 1.373 . S
C463 H491 0.930 . S
N464 C463 1.373 . S
N464 C466 1.340 . S
N465 C462 1.368 . S
N465 C466 1.321 . S
N465 Co468 2.135 . S
C466 N464 1.340 . S
C466 N465 1.321 . S
C466 H490 0.930 . S
H467 C462 0.931 . S
Co468 N465 2.135 . S
Co468 N471 2.121 . S
Co468 O476 2.055 . S
Co468 O479 2.039 . S
Co468 N482 2.140 . S
C469 O470 1.227 . S
C469 O479 1.265 . S
O470 C469 1.227 . S
N471 Co468 2.121 . S
N471 C473 1.375 . S
N471 C474 1.313 . S
C472 C473 1.338 . S
C472 N475 1.377 . S
C472 H492 0.930 . S
C473 N471 1.375 . S
C473 C472 1.338 . S
C473 H477 0.931 . S
C474 N471 1.313 . S
C474 N475 1.344 . S
C474 H478 0.930 . S
N475 C472 1.377 . S
N475 C474 1.344 . S
O476 Co468 2.055 . S
O476 C480 1.253 . S
H477 C473 0.931 . S
H478 C474 0.930 . S
O479 Co468 2.039 . S
O479 C469 1.265 . S
C480 O476 1.253 . S
C480 O481 1.227 . S
O481 C480 1.227 . S
N482 Co468 2.140 . S
N482 C485 1.346 . S
N482 C486 1.345 . S
C483 C484 1.387 . S
C483 C487 1.391 . S
C484 C483 1.387 . S
C484 C485 1.369 . S
C484 H493 0.929 . S
C485 N482 1.346 . S
C485 C484 1.369 . S
C485 H488 0.928 . S
C486 N482 1.345 . S
C486 C487 1.371 . S
C486 H489 0.931 . S
C487 C483 1.391 . S
C487 C486 1.371 . S
C487 H494 0.930 . S
H488 C485 0.928 . S
H489 C486 0.931 . S
H490 C466 0.930 . S
H491 C463 0.930 . S
H492 C472 0.930 . S
H493 C484 0.929 . S
H494 C487 0.930 . S
C495 C496 1.351 . S
C495 N498 1.368 . S
C495 H500 0.931 . S
C496 C495 1.351 . S
C496 N497 1.373 . S
C496 H524 0.930 . S
N497 C496 1.373 . S
N497 C499 1.340 . S
N498 C495 1.368 . S
N498 C499 1.321 . S
N498 Co501 2.135 . S
C499 N497 1.340 . S
C499 N498 1.321 . S
C499 H523 0.930 . S
H500 C495 0.931 . S
Co501 N498 2.135 . S
Co501 N504 2.121 . S
Co501 O509 2.055 . S
Co501 O512 2.039 . S
Co501 N515 2.140 . S
C502 O503 1.227 . S
C502 O512 1.265 . S
O503 C502 1.227 . S
N504 Co501 2.121 . S
N504 C506 1.375 . S
N504 C507 1.313 . S
C505 C506 1.338 . S
C505 N508 1.377 . S
C505 H525 0.930 . S
C506 N504 1.375 . S
C506 C505 1.338 . S
C506 H510 0.931 . S
C507 N504 1.313 . S
C507 N508 1.344 . S
C507 H511 0.930 . S
N508 C505 1.377 . S
N508 C507 1.344 . S
O509 Co501 2.055 . S
O509 C513 1.253 . S
H510 C506 0.931 . S
H511 C507 0.930 . S
O512 Co501 2.039 . S
O512 C502 1.265 . S
C513 O509 1.253 . S
C513 O514 1.227 . S
O514 C513 1.227 . S
N515 Co501 2.140 . S
N515 C518 1.346 . S
N515 C519 1.345 . S
C516 C517 1.387 . S
C516 C520 1.391 . S
C517 C516 1.387 . S
C517 C518 1.369 . S
C517 H526 0.929 . S
C518 N515 1.346 . S
C518 C517 1.369 . S
C518 H521 0.928 . S
C519 N515 1.345 . S
C519 C520 1.371 . S
C519 H522 0.931 . S
C520 C516 1.391 . S
C520 C519 1.371 . S
C520 H527 0.930 . S
H521 C518 0.928 . S
H522 C519 0.931 . S
H523 C499 0.930 . S
H524 C496 0.930 . S
H525 C505 0.930 . S
H526 C517 0.929 . S
H527 C520 0.930 . S
C528 C529 1.349 . S
C528 C530 1.327 . S
C528 H553 0.950 . S
C529 C528 1.349 . S
C529 C545 1.349 . S
C530 C528 1.327 . S
C530 C549 1.429 . S
C530 H554 0.950 . S
C531 C548 1.574 1_556 S
C531 C550 1.368 . S
C531 H555 0.949 . S
H532 C536 0.949 . S
C533 C534 1.349 . S
C533 C535 1.327 . S
C533 H556 0.950 . S
C534 C533 1.349 . S
C534 C546 1.349 . S
C535 C533 1.327 . S
C535 C551 1.429 . S
C535 H557 0.950 . S
C536 H532 0.949 . S
C536 C544 1.574 1_554 S
C536 C552 1.368 . S
H537 C545 0.950 . S
H538 C543 0.950 . S
H539 C544 0.949 . S
H540 C546 0.950 . S
H541 C547 0.950 . S
H542 C548 0.949 . S
C543 H538 0.950 . S
C543 C545 1.327 . S
C543 C549 1.429 . S
C544 C536 1.574 1_556 S
C544 H539 0.949 . S
C544 C550 1.368 . S
C545 C529 1.349 . S
C545 H537 0.950 . S
C545 C543 1.327 . S
C546 C534 1.349 . S
C546 H540 0.950 . S
C546 C547 1.327 . S
C547 H541 0.950 . S
C547 C546 1.327 . S
C547 C551 1.429 . S
C548 C531 1.574 1_554 S
C548 H542 0.949 . S
C548 C552 1.368 . S
C549 C530 1.429 . S
C549 C543 1.429 . S
C549 C550 1.523 . S
C550 C531 1.368 . S
C550 C544 1.368 . S
C550 C549 1.523 . S
C551 C535 1.429 . S
C551 C547 1.429 . S
C551 C552 1.523 . S
C552 C536 1.368 . S
C552 C548 1.368 . S
C552 C551 1.523 . S
H553 C528 0.950 . S
H554 C530 0.950 . S
H555 C531 0.949 . S
H556 C533 0.950 . S
H557 C535 0.950 . S
C558 C559 1.349 . S
C558 C560 1.327 . S
C558 H583 0.950 . S
C559 C558 1.349 . S
C559 C575 1.349 . S
C560 C558 1.327 . S
C560 C579 1.429 . S
C560 H584 0.950 . S
C561 C578 1.574 1_556 S
C561 C580 1.368 . S
C561 H585 0.949 . S
H562 C566 0.949 . S
C563 C564 1.349 . S
C563 C565 1.327 . S
C563 H586 0.950 . S
C564 C563 1.349 . S
C564 C576 1.349 . S
C565 C563 1.327 . S
C565 C581 1.429 . S
C565 H587 0.950 . S
C566 H562 0.949 . S
C566 C574 1.574 1_554 S
C566 C582 1.368 . S
H567 C575 0.950 . S
H568 C573 0.950 . S
H569 C574 0.949 . S
H570 C576 0.950 . S
H571 C577 0.950 . S
H572 C578 0.949 . S
C573 H568 0.950 . S
C573 C575 1.327 . S
C573 C579 1.429 . S
C574 C566 1.574 1_556 S
C574 H569 0.949 . S
C574 C580 1.368 . S
C575 C559 1.349 . S
C575 H567 0.950 . S
C575 C573 1.327 . S
C576 C564 1.349 . S
C576 H570 0.950 . S
C576 C577 1.327 . S
C577 H571 0.950 . S
C577 C576 1.327 . S
C577 C581 1.429 . S
C578 C561 1.574 1_554 S
C578 H572 0.949 . S
C578 C582 1.368 . S
C579 C560 1.429 . S
C579 C573 1.429 . S
C579 C580 1.523 . S
C580 C561 1.368 . S
C580 C574 1.368 . S
C580 C579 1.523 . S
C581 C565 1.429 . S
C581 C577 1.429 . S
C581 C582 1.523 . S
C582 C566 1.368 . S
C582 C578 1.368 . S
C582 C581 1.523 . S
H583 C558 0.950 . S
H584 C560 0.950 . S
H585 C561 0.949 . S
H586 C563 0.950 . S
H587 C565 0.950 . S
C588 C589 1.349 . S
C588 C590 1.327 . S
C588 H613 0.950 . S
C589 C588 1.349 . S
C589 C605 1.349 . S
C590 C588 1.327 . S
C590 C609 1.429 . S
C590 H614 0.950 . S
C591 C608 1.574 1_556 S
C591 C610 1.368 . S
C591 H615 0.949 . S
H592 C596 0.949 . S
C593 C594 1.349 . S
C593 C595 1.327 . S
C593 H616 0.950 . S
C594 C593 1.349 . S
C594 C606 1.349 . S
C595 C593 1.327 . S
C595 C611 1.429 . S
C595 H617 0.950 . S
C596 H592 0.949 . S
C596 C604 1.574 1_554 S
C596 C612 1.368 . S
H597 C605 0.950 . S
H598 C603 0.950 . S
H599 C604 0.949 . S
H600 C606 0.950 . S
H601 C607 0.950 . S
H602 C608 0.949 . S
C603 H598 0.950 . S
C603 C605 1.327 . S
C603 C609 1.429 . S
C604 C596 1.574 1_556 S
C604 H599 0.949 . S
C604 C610 1.368 . S
C605 C589 1.349 . S
C605 H597 0.950 . S
C605 C603 1.327 . S
C606 C594 1.349 . S
C606 H600 0.950 . S
C606 C607 1.327 . S
C607 H601 0.950 . S
C607 C606 1.327 . S
C607 C611 1.429 . S
C608 C591 1.574 1_554 S
C608 H602 0.949 . S
C608 C612 1.368 . S
C609 C590 1.429 . S
C609 C603 1.429 . S
C609 C610 1.523 . S
C610 C591 1.368 . S
C610 C604 1.368 . S
C610 C609 1.523 . S
C611 C595 1.429 . S
C611 C607 1.429 . S
C611 C612 1.523 . S
C612 C596 1.368 . S
C612 C608 1.368 . S
C612 C611 1.523 . S
H613 C588 0.950 . S
H614 C590 0.950 . S
H615 C591 0.949 . S
H616 C593 0.950 . S
H617 C595 0.950 . S
C618 C619 1.349 . S
C618 C620 1.327 . S
C618 H643 0.950 . S
C619 C618 1.349 . S
C619 C635 1.349 . S
C620 C618 1.327 . S
C620 C639 1.429 . S
C620 H644 0.950 . S
C621 C638 1.574 1_556 S
C621 C640 1.368 . S
C621 H645 0.949 . S
H622 C626 0.949 . S
C623 C624 1.349 . S
C623 C625 1.327 . S
C623 H646 0.950 . S
C624 C623 1.349 . S
C624 C636 1.349 . S
C625 C623 1.327 . S
C625 C641 1.429 . S
C625 H647 0.950 . S
C626 H622 0.949 . S
C626 C634 1.574 1_554 S
C626 C642 1.368 . S
H627 C635 0.950 . S
H628 C633 0.950 . S
H629 C634 0.949 . S
H630 C636 0.950 . S
H631 C637 0.950 . S
H632 C638 0.949 . S
C633 H628 0.950 . S
C633 C635 1.327 . S
C633 C639 1.429 . S
C634 C626 1.574 1_556 S
C634 H629 0.949 . S
C634 C640 1.368 . S
C635 C619 1.349 . S
C635 H627 0.950 . S
C635 C633 1.327 . S
C636 C624 1.349 . S
C636 H630 0.950 . S
C636 C637 1.327 . S
C637 H631 0.950 . S
C637 C636 1.327 . S
C637 C641 1.429 . S
C638 C621 1.574 1_554 S
C638 H632 0.949 . S
C638 C642 1.368 . S
C639 C620 1.429 . S
C639 C633 1.429 . S
C639 C640 1.523 . S
C640 C621 1.368 . S
C640 C634 1.368 . S
C640 C639 1.523 . S
C641 C625 1.429 . S
C641 C637 1.429 . S
C641 C642 1.523 . S
C642 C626 1.368 . S
C642 C638 1.368 . S
C642 C641 1.523 . S
H643 C618 0.950 . S
H644 C620 0.950 . S
H645 C621 0.949 . S
H646 C623 0.950 . S
H647 C625 0.950 . S
C648 C649 1.349 . S
C648 C650 1.327 . S
C648 H673 0.950 . S
C649 C648 1.349 . S
C649 C665 1.349 . S
C650 C648 1.327 . S
C650 C669 1.429 . S
C650 H674 0.950 . S
C651 C668 1.574 . S
C651 C670 1.368 . S
C651 H675 0.949 . S
H652 C656 0.949 . S
C653 C654 1.349 . S
C653 C655 1.327 . S
C653 H676 0.950 . S
C654 C653 1.349 . S
C654 C666 1.349 . S
C655 C653 1.327 . S
C655 C671 1.429 . S
C655 H677 0.950 . S
C656 H652 0.949 . S
C656 C664 1.574 . S
C656 C672 1.368 . S
H657 C665 0.950 . S
H658 C663 0.950 . S
H659 C664 0.949 . S
H660 C666 0.950 . S
H661 C667 0.950 . S
H662 C668 0.949 . S
C663 H658 0.950 . S
C663 C665 1.327 . S
C663 C669 1.429 . S
C664 C656 1.574 . S
C664 H659 0.949 . S
C664 C670 1.368 . S
C665 C649 1.349 . S
C665 H657 0.950 . S
C665 C663 1.327 . S
C666 C654 1.349 . S
C666 H660 0.950 . S
C666 C667 1.327 . S
C667 H661 0.950 . S
C667 C666 1.327 . S
C667 C671 1.429 . S
C668 C651 1.574 . S
C668 H662 0.949 . S
C668 C672 1.368 . S
C669 C650 1.429 . S
C669 C663 1.429 . S
C669 C670 1.523 . S
C670 C651 1.368 . S
C670 C664 1.368 . S
C670 C669 1.523 . S
C671 C655 1.429 . S
C671 C667 1.429 . S
C671 C672 1.523 . S
C672 C656 1.368 . S
C672 C668 1.368 . S
C672 C671 1.523 . S
H673 C648 0.950 . S
H674 C650 0.950 . S
H675 C651 0.949 . S
H676 C653 0.950 . S
H677 C655 0.950 . S
C678 C679 1.349 . S
C678 C680 1.327 . S
C678 H703 0.950 . S
C679 C678 1.349 . S
C679 C695 1.349 . S
C680 C678 1.327 . S
C680 C699 1.429 . S
C680 H704 0.950 . S
C681 C698 1.574 . S
C681 C700 1.368 . S
C681 H705 0.949 . S
H682 C686 0.949 . S
C683 C684 1.349 . S
C683 C685 1.327 . S
C683 H706 0.950 . S
C684 C683 1.349 . S
C684 C696 1.349 . S
C685 C683 1.327 . S
C685 C701 1.429 . S
C685 H707 0.950 . S
C686 H682 0.949 . S
C686 C694 1.574 . S
C686 C702 1.368 . S
H687 C695 0.950 . S
H688 C693 0.950 . S
H689 C694 0.949 . S
H690 C696 0.950 . S
H691 C697 0.950 . S
H692 C698 0.949 . S
C693 H688 0.950 . S
C693 C695 1.327 . S
C693 C699 1.429 . S
C694 C686 1.574 . S
C694 H689 0.949 . S
C694 C700 1.368 . S
C695 C679 1.349 . S
C695 H687 0.950 . S
C695 C693 1.327 . S
C696 C684 1.349 . S
C696 H690 0.950 . S
C696 C697 1.327 . S
C697 H691 0.950 . S
C697 C696 1.327 . S
C697 C701 1.429 . S
C698 C681 1.574 . S
C698 H692 0.949 . S
C698 C702 1.368 . S
C699 C680 1.429 . S
C699 C693 1.429 . S
C699 C700 1.523 . S
C700 C681 1.368 . S
C700 C694 1.368 . S
C700 C699 1.523 . S
C701 C685 1.429 . S
C701 C697 1.429 . S
C701 C702 1.523 . S
C702 C686 1.368 . S
C702 C698 1.368 . S
C702 C701 1.523 . S
H703 C678 0.950 . S
H704 C680 0.950 . S
H705 C681 0.949 . S
H706 C683 0.950 . S
H707 C685 0.950 . S
C708 C709 1.349 . S
C708 C710 1.327 . S
C708 H733 0.950 . S
C709 C708 1.349 . S
C709 C725 1.349 . S
C710 C708 1.327 . S
C710 C729 1.429 . S
C710 H734 0.950 . S
C711 C728 1.574 . S
C711 C730 1.368 . S
C711 H735 0.949 . S
H712 C716 0.949 . S
C713 C714 1.349 . S
C713 C715 1.327 . S
C713 H736 0.950 . S
C714 C713 1.349 . S
C714 C726 1.349 . S
C715 C713 1.327 . S
C715 C731 1.429 . S
C715 H737 0.950 . S
C716 H712 0.949 . S
C716 C724 1.574 . S
C716 C732 1.368 . S
H717 C725 0.950 . S
H718 C723 0.950 . S
H719 C724 0.949 . S
H720 C726 0.950 . S
H721 C727 0.950 . S
H722 C728 0.949 . S
C723 H718 0.950 . S
C723 C725 1.327 . S
C723 C729 1.429 . S
C724 C716 1.574 . S
C724 H719 0.949 . S
C724 C730 1.368 . S
C725 C709 1.349 . S
C725 H717 0.950 . S
C725 C723 1.327 . S
C726 C714 1.349 . S
C726 H720 0.950 . S
C726 C727 1.327 . S
C727 H721 0.950 . S
C727 C726 1.327 . S
C727 C731 1.429 . S
C728 C711 1.574 . S
C728 H722 0.949 . S
C728 C732 1.368 . S
C729 C710 1.429 . S
C729 C723 1.429 . S
C729 C730 1.523 . S
C730 C711 1.368 . S
C730 C724 1.368 . S
C730 C729 1.523 . S
C731 C715 1.429 . S
C731 C727 1.429 . S
C731 C732 1.523 . S
C732 C716 1.368 . S
C732 C728 1.368 . S
C732 C731 1.523 . S
H733 C708 0.950 . S
H734 C710 0.950 . S
H735 C711 0.949 . S
H736 C713 0.950 . S
H737 C715 0.950 . S
C738 C739 1.349 . S
C738 C740 1.327 . S
C738 H763 0.950 . S
C739 C738 1.349 . S
C739 C755 1.349 . S
C740 C738 1.327 . S
C740 C759 1.429 . S
C740 H764 0.950 . S
C741 C758 1.574 . S
C741 C760 1.368 . S
C741 H765 0.949 . S
H742 C746 0.949 . S
C743 C744 1.349 . S
C743 C745 1.327 . S
C743 H766 0.950 . S
C744 C743 1.349 . S
C744 C756 1.349 . S
C745 C743 1.327 . S
C745 C761 1.429 . S
C745 H767 0.950 . S
C746 H742 0.949 . S
C746 C754 1.574 . S
C746 C762 1.368 . S
H747 C755 0.950 . S
H748 C753 0.950 . S
H749 C754 0.949 . S
H750 C756 0.950 . S
H751 C757 0.950 . S
H752 C758 0.949 . S
C753 H748 0.950 . S
C753 C755 1.327 . S
C753 C759 1.429 . S
C754 C746 1.574 . S
C754 H749 0.949 . S
C754 C760 1.368 . S
C755 C739 1.349 . S
C755 H747 0.950 . S
C755 C753 1.327 . S
C756 C744 1.349 . S
C756 H750 0.950 . S
C756 C757 1.327 . S
C757 H751 0.950 . S
C757 C756 1.327 . S
C757 C761 1.429 . S
C758 C741 1.574 . S
C758 H752 0.949 . S
C758 C762 1.368 . S
C759 C740 1.429 . S
C759 C753 1.429 . S
C759 C760 1.523 . S
C760 C741 1.368 . S
C760 C754 1.368 . S
C760 C759 1.523 . S
C761 C745 1.429 . S
C761 C757 1.429 . S
C761 C762 1.523 . S
C762 C746 1.368 . S
C762 C758 1.368 . S
C762 C761 1.523 . S
H763 C738 0.950 . S
H764 C740 0.950 . S
H765 C741 0.949 . S
H766 C743 0.950 . S
H767 C745 0.950 . S
C768 C769 1.349 . S
C768 C770 1.327 . S
C768 H793 0.950 . S
C769 C768 1.349 . S
C769 C785 1.349 . S
C770 C768 1.327 . S
C770 C789 1.429 . S
C770 H794 0.950 . S
C771 C788 1.574 . S
C771 C790 1.368 . S
C771 H795 0.949 . S
H772 C776 0.949 . S
C773 C774 1.349 . S
C773 C775 1.327 . S
C773 H796 0.950 . S
C774 C773 1.349 . S
C774 C786 1.349 . S
C775 C773 1.327 . S
C775 C791 1.429 . S
C775 H797 0.950 . S
C776 H772 0.949 . S
C776 C784 1.574 . S
C776 C792 1.368 . S
H777 C785 0.950 . S
H778 C783 0.950 . S
H779 C784 0.949 . S
H780 C786 0.950 . S
H781 C787 0.950 . S
H782 C788 0.949 . S
C783 H778 0.950 . S
C783 C785 1.327 . S
C783 C789 1.429 . S
C784 C776 1.574 . S
C784 H779 0.949 . S
C784 C790 1.368 . S
C785 C769 1.349 . S
C785 H777 0.950 . S
C785 C783 1.327 . S
C786 C774 1.349 . S
C786 H780 0.950 . S
C786 C787 1.327 . S
C787 H781 0.950 . S
C787 C786 1.327 . S
C787 C791 1.429 . S
C788 C771 1.574 . S
C788 H782 0.949 . S
C788 C792 1.368 . S
C789 C770 1.429 . S
C789 C783 1.429 . S
C789 C790 1.523 . S
C790 C771 1.368 . S
C790 C784 1.368 . S
C790 C789 1.523 . S
C791 C775 1.429 . S
C791 C787 1.429 . S
C791 C792 1.523 . S
C792 C776 1.368 . S
C792 C788 1.368 . S
C792 C791 1.523 . S
H793 C768 0.950 . S
H794 C770 0.950 . S
H795 C771 0.949 . S
H796 C773 0.950 . S
H797 C775 0.950 . S
C798 C799 1.349 . S
C798 C800 1.327 . S
C798 H823 0.950 . S
C799 C798 1.349 . S
C799 C815 1.349 . S
C800 C798 1.327 . S
C800 C819 1.429 . S
C800 H824 0.950 . S
C801 C818 1.574 . S
C801 C820 1.368 . S
C801 H825 0.949 . S
H802 C806 0.949 . S
C803 C804 1.349 . S
C803 C805 1.327 . S
C803 H826 0.950 . S
C804 C803 1.349 . S
C804 C816 1.349 . S
C805 C803 1.327 . S
C805 C821 1.429 . S
C805 H827 0.950 . S
C806 H802 0.949 . S
C806 C814 1.574 . S
C806 C822 1.368 . S
H807 C815 0.950 . S
H808 C813 0.950 . S
H809 C814 0.949 . S
H810 C816 0.950 . S
H811 C817 0.950 . S
H812 C818 0.949 . S
C813 H808 0.950 . S
C813 C815 1.327 . S
C813 C819 1.429 . S
C814 C806 1.574 . S
C814 H809 0.949 . S
C814 C820 1.368 . S
C815 C799 1.349 . S
C815 H807 0.950 . S
C815 C813 1.327 . S
C816 C804 1.349 . S
C816 H810 0.950 . S
C816 C817 1.327 . S
C817 H811 0.950 . S
C817 C816 1.327 . S
C817 C821 1.429 . S
C818 C801 1.574 . S
C818 H812 0.949 . S
C818 C822 1.368 . S
C819 C800 1.429 . S
C819 C813 1.429 . S
C819 C820 1.523 . S
C820 C801 1.368 . S
C820 C814 1.368 . S
C820 C819 1.523 . S
C821 C805 1.429 . S
C821 C817 1.429 . S
C821 C822 1.523 . S
C822 C806 1.368 . S
C822 C818 1.368 . S
C822 C821 1.523 . S
H823 C798 0.950 . S
H824 C800 0.950 . S
H825 C801 0.949 . S
H826 C803 0.950 . S
H827 C805 0.950 . S
C828 C829 1.349 . S
C828 C830 1.327 . S
C828 H853 0.950 . S
C829 C828 1.349 . S
C829 C845 1.349 . S
C830 C828 1.327 . S
C830 C849 1.429 . S
C830 H854 0.950 . S
C831 C848 1.574 . S
C831 C850 1.368 . S
C831 H855 0.949 . S
H832 C836 0.949 . S
C833 C834 1.349 . S
C833 C835 1.327 . S
C833 H856 0.950 . S
C834 C833 1.349 . S
C834 C846 1.349 . S
C835 C833 1.327 . S
C835 C851 1.429 . S
C835 H857 0.950 . S
C836 H832 0.949 . S
C836 C844 1.574 . S
C836 C852 1.368 . S
H837 C845 0.950 . S
H838 C843 0.950 . S
H839 C844 0.949 . S
H840 C846 0.950 . S
H841 C847 0.950 . S
H842 C848 0.949 . S
C843 H838 0.950 . S
C843 C845 1.327 . S
C843 C849 1.429 . S
C844 C836 1.574 . S
C844 H839 0.949 . S
C844 C850 1.368 . S
C845 C829 1.349 . S
C845 H837 0.950 . S
C845 C843 1.327 . S
C846 C834 1.349 . S
C846 H840 0.950 . S
C846 C847 1.327 . S
C847 H841 0.950 . S
C847 C846 1.327 . S
C847 C851 1.429 . S
C848 C831 1.574 . S
C848 H842 0.949 . S
C848 C852 1.368 . S
C849 C830 1.429 . S
C849 C843 1.429 . S
C849 C850 1.523 . S
C850 C831 1.368 . S
C850 C844 1.368 . S
C850 C849 1.523 . S
C851 C835 1.429 . S
C851 C847 1.429 . S
C851 C852 1.523 . S
C852 C836 1.368 . S
C852 C848 1.368 . S
C852 C851 1.523 . S
H853 C828 0.950 . S
H854 C830 0.950 . S
H855 C831 0.949 . S
H856 C833 0.950 . S
H857 C835 0.950 . S
C858 C859 1.349 . S
C858 C860 1.327 . S
C858 H883 0.950 . S
C859 C858 1.349 . S
C859 C875 1.349 . S
C860 C858 1.327 . S
C860 C879 1.429 . S
C860 H884 0.950 . S
C861 C878 1.574 . S
C861 C880 1.368 . S
C861 H885 0.949 . S
H862 C866 0.949 . S
C863 C864 1.349 . S
C863 C865 1.327 . S
C863 H886 0.950 . S
C864 C863 1.349 . S
C864 C876 1.349 . S
C865 C863 1.327 . S
C865 C881 1.429 . S
C865 H887 0.950 . S
C866 H862 0.949 . S
C866 C874 1.574 . S
C866 C882 1.368 . S
H867 C875 0.950 . S
H868 C873 0.950 . S
H869 C874 0.949 . S
H870 C876 0.950 . S
H871 C877 0.950 . S
H872 C878 0.949 . S
C873 H868 0.950 . S
C873 C875 1.327 . S
C873 C879 1.429 . S
C874 C866 1.574 . S
C874 H869 0.949 . S
C874 C880 1.368 . S
C875 C859 1.349 . S
C875 H867 0.950 . S
C875 C873 1.327 . S
C876 C864 1.349 . S
C876 H870 0.950 . S
C876 C877 1.327 . S
C877 H871 0.950 . S
C877 C876 1.327 . S
C877 C881 1.429 . S
C878 C861 1.574 . S
C878 H872 0.949 . S
C878 C882 1.368 . S
C879 C860 1.429 . S
C879 C873 1.429 . S
C879 C880 1.523 . S
C880 C861 1.368 . S
C880 C874 1.368 . S
C880 C879 1.523 . S
C881 C865 1.429 . S
C881 C877 1.429 . S
C881 C882 1.523 . S
C882 C866 1.368 . S
C882 C878 1.368 . S
C882 C881 1.523 . S
H883 C858 0.950 . S
H884 C860 0.950 . S
H885 C861 0.949 . S
H886 C863 0.950 . S
H887 C865 0.950 . S
C888 C889 1.349 . S
C888 C890 1.327 . S
C888 H913 0.950 . S
C889 C888 1.349 . S
C889 C905 1.349 . S
C890 C888 1.327 . S
C890 C909 1.429 . S
C890 H914 0.950 . S
C891 C908 1.574 . S
C891 C910 1.368 . S
C891 H915 0.949 . S
H892 C896 0.949 . S
C893 C894 1.349 . S
C893 C895 1.327 . S
C893 H916 0.950 . S
C894 C893 1.349 . S
C894 C906 1.349 . S
C895 C893 1.327 . S
C895 C911 1.429 . S
C895 H917 0.950 . S
C896 H892 0.949 . S
C896 C904 1.574 . S
C896 C912 1.368 . S
H897 C905 0.950 . S
H898 C903 0.950 . S
H899 C904 0.949 . S
H900 C906 0.950 . S
H901 C907 0.950 . S
H902 C908 0.949 . S
C903 H898 0.950 . S
C903 C905 1.327 . S
C903 C909 1.429 . S
C904 C896 1.574 . S
C904 H899 0.949 . S
C904 C910 1.368 . S
C905 C889 1.349 . S
C905 H897 0.950 . S
C905 C903 1.327 . S
C906 C894 1.349 . S
C906 H900 0.950 . S
C906 C907 1.327 . S
C907 H901 0.950 . S
C907 C906 1.327 . S
C907 C911 1.429 . S
C908 C891 1.574 . S
C908 H902 0.949 . S
C908 C912 1.368 . S
C909 C890 1.429 . S
C909 C903 1.429 . S
C909 C910 1.523 . S
C910 C891 1.368 . S
C910 C904 1.368 . S
C910 C909 1.523 . S
C911 C895 1.429 . S
C911 C907 1.429 . S
C911 C912 1.523 . S
C912 C896 1.368 . S
C912 C908 1.368 . S
C912 C911 1.523 . S
H913 C888 0.950 . S
H914 C890 0.950 . S
H915 C891 0.949 . S
H916 C893 0.950 . S
H917 C895 0.950 . S
C918 C919 1.349 . S
C918 C920 1.327 . S
C918 H943 0.950 . S
C919 C918 1.349 . S
C919 C935 1.349 . S
C920 C918 1.327 . S
C920 C939 1.429 . S
C920 H944 0.950 . S
C921 C938 1.574 . S
C921 C940 1.368 . S
C921 H945 0.949 . S
H922 C926 0.949 . S
C923 C924 1.349 . S
C923 C925 1.327 . S
C923 H946 0.950 . S
C924 C923 1.349 . S
C924 C936 1.349 . S
C925 C923 1.327 . S
C925 C941 1.429 . S
C925 H947 0.950 . S
C926 H922 0.949 . S
C926 C934 1.574 . S
C926 C942 1.368 . S
H927 C935 0.950 . S
H928 C933 0.950 . S
H929 C934 0.949 . S
H930 C936 0.950 . S
H931 C937 0.950 . S
H932 C938 0.949 . S
C933 H928 0.950 . S
C933 C935 1.327 . S
C933 C939 1.429 . S
C934 C926 1.574 . S
C934 H929 0.949 . S
C934 C940 1.368 . S
C935 C919 1.349 . S
C935 H927 0.950 . S
C935 C933 1.327 . S
C936 C924 1.349 . S
C936 H930 0.950 . S
C936 C937 1.327 . S
C937 H931 0.950 . S
C937 C936 1.327 . S
C937 C941 1.429 . S
C938 C921 1.574 . S
C938 H932 0.949 . S
C938 C942 1.368 . S
C939 C920 1.429 . S
C939 C933 1.429 . S
C939 C940 1.523 . S
C940 C921 1.368 . S
C940 C934 1.368 . S
C940 C939 1.523 . S
C941 C925 1.429 . S
C941 C937 1.429 . S
C941 C942 1.523 . S
C942 C926 1.368 . S
C942 C938 1.368 . S
C942 C941 1.523 . S
H943 C918 0.950 . S
H944 C920 0.950 . S
H945 C921 0.949 . S
H946 C923 0.950 . S
H947 C925 0.950 . S
C948 C949 1.349 . S
C948 C950 1.327 . S
C948 H973 0.950 . S
C949 C948 1.349 . S
C949 C965 1.349 . S
C950 C948 1.327 . S
C950 C969 1.429 . S
C950 H974 0.950 . S
C951 C968 1.574 . S
C951 C970 1.368 . S
C951 H975 0.949 . S
H952 C956 0.949 . S
C953 C954 1.349 . S
C953 C955 1.327 . S
C953 H976 0.950 . S
C954 C953 1.349 . S
C954 C966 1.349 . S
C955 C953 1.327 . S
C955 C971 1.429 . S
C955 H977 0.950 . S
C956 H952 0.949 . S
C956 C964 1.574 . S
C956 C972 1.368 . S
H957 C965 0.950 . S
H958 C963 0.950 . S
H959 C964 0.949 . S
H960 C966 0.950 . S
H961 C967 0.950 . S
H962 C968 0.949 . S
C963 H958 0.950 . S
C963 C965 1.327 . S
C963 C969 1.429 . S
C964 C956 1.574 . S
C964 H959 0.949 . S
C964 C970 1.368 . S
C965 C949 1.349 . S
C965 H957 0.950 . S
C965 C963 1.327 . S
C966 C954 1.349 . S
C966 H960 0.950 . S
C966 C967 1.327 . S
C967 H961 0.950 . S
C967 C966 1.327 . S
C967 C971 1.429 . S
C968 C951 1.574 . S
C968 H962 0.949 . S
C968 C972 1.368 . S
C969 C950 1.429 . S
C969 C963 1.429 . S
C969 C970 1.523 . S
C970 C951 1.368 . S
C970 C964 1.368 . S
C970 C969 1.523 . S
C971 C955 1.429 . S
C971 C967 1.429 . S
C971 C972 1.523 . S
C972 C956 1.368 . S
C972 C968 1.368 . S
C972 C971 1.523 . S
H973 C948 0.950 . S
H974 C950 0.950 . S
H975 C951 0.949 . S
H976 C953 0.950 . S
H977 C955 0.950 . S
C978 C979 1.349 . S
C978 C980 1.327 . S
C978 H1003 0.950 . S
C979 C978 1.349 . S
C979 C995 1.349 . S
C980 C978 1.327 . S
C980 C999 1.429 . S
C980 H1004 0.950 . S
C981 C998 1.574 . S
C981 C1000 1.368 . S
C981 H1005 0.949 . S
H982 C986 0.949 . S
C983 C984 1.349 . S
C983 C985 1.327 . S
C983 H1006 0.950 . S
C984 C983 1.349 . S
C984 C996 1.349 . S
C985 C983 1.327 . S
C985 C1001 1.429 . S
C985 H1007 0.950 . S
C986 H982 0.949 . S
C986 C994 1.574 . S
C986 C1002 1.368 . S
H987 C995 0.950 . S
H988 C993 0.950 . S
H989 C994 0.949 . S
H990 C996 0.950 . S
H991 C997 0.950 . S
H992 C998 0.949 . S
C993 H988 0.950 . S
C993 C995 1.327 . S
C993 C999 1.429 . S
C994 C986 1.574 . S
C994 H989 0.949 . S
C994 C1000 1.368 . S
C995 C979 1.349 . S
C995 H987 0.950 . S
C995 C993 1.327 . S
C996 C984 1.349 . S
C996 H990 0.950 . S
C996 C997 1.327 . S
C997 H991 0.950 . S
C997 C996 1.327 . S
C997 C1001 1.429 . S
C998 C981 1.574 . S
C998 H992 0.949 . S
C998 C1002 1.368 . S
C999 C980 1.429 . S
C999 C993 1.429 . S
C999 C1000 1.523 . S
C1000 C981 1.368 . S
C1000 C994 1.368 . S
C1000 C999 1.523 . S
C1001 C985 1.429 . S
C1001 C997 1.429 . S
C1001 C1002 1.523 . S
C1002 C986 1.368 . S
C1002 C998 1.368 . S
C1002 C1001 1.523 . S
H1003 C978 0.950 . S
H1004 C980 0.950 . S
H1005 C981 0.949 . S
H1006 C983 0.950 . S
H1007 C985 0.950 . S
C1008 C1009 1.349 . S
C1008 C1010 1.327 . S
C1008 H1033 0.950 . S
C1009 C1008 1.349 . S
C1009 C1025 1.349 . S
C1010 C1008 1.327 . S
C1010 C1029 1.429 . S
C1010 H1034 0.950 . S
C1011 C1028 1.574 . S
C1011 C1030 1.368 . S
C1011 H1035 0.949 . S
H1012 C1016 0.949 . S
C1013 C1014 1.349 . S
C1013 C1015 1.327 . S
C1013 H1036 0.950 . S
C1014 C1013 1.349 . S
C1014 C1026 1.349 . S
C1015 C1013 1.327 . S
C1015 C1031 1.429 . S
C1015 H1037 0.950 . S
C1016 H1012 0.949 . S
C1016 C1024 1.574 . S
C1016 C1032 1.368 . S
H1017 C1025 0.950 . S
H1018 C1023 0.950 . S
H1019 C1024 0.949 . S
H1020 C1026 0.950 . S
H1021 C1027 0.950 . S
H1022 C1028 0.949 . S
C1023 H1018 0.950 . S
C1023 C1025 1.327 . S
C1023 C1029 1.429 . S
C1024 C1016 1.574 . S
C1024 H1019 0.949 . S
C1024 C1030 1.368 . S
C1025 C1009 1.349 . S
C1025 H1017 0.950 . S
C1025 C1023 1.327 . S
C1026 C1014 1.349 . S
C1026 H1020 0.950 . S
C1026 C1027 1.327 . S
C1027 H1021 0.950 . S
C1027 C1026 1.327 . S
C1027 C1031 1.429 . S
C1028 C1011 1.574 . S
C1028 H1022 0.949 . S
C1028 C1032 1.368 . S
C1029 C1010 1.429 . S
C1029 C1023 1.429 . S
C1029 C1030 1.523 . S
C1030 C1011 1.368 . S
C1030 C1024 1.368 . S
C1030 C1029 1.523 . S
C1031 C1015 1.429 . S
C1031 C1027 1.429 . S
C1031 C1032 1.523 . S
C1032 C1016 1.368 . S
C1032 C1028 1.368 . S
C1032 C1031 1.523 . S
H1033 C1008 0.950 . S
H1034 C1010 0.950 . S
H1035 C1011 0.949 . S
H1036 C1013 0.950 . S
H1037 C1015 0.950 . S
C1038 C1039 1.349 . S
C1038 C1040 1.327 . S
C1038 H1063 0.950 . S
C1039 C1038 1.349 . S
C1039 C1055 1.349 . S
C1040 C1038 1.327 . S
C1040 C1059 1.429 . S
C1040 H1064 0.950 . S
C1041 C1058 1.574 . S
C1041 C1060 1.368 . S
C1041 H1065 0.949 . S
H1042 C1046 0.949 . S
C1043 C1044 1.349 . S
C1043 C1045 1.327 . S
C1043 H1066 0.950 . S
C1044 C1043 1.349 . S
C1044 C1056 1.349 . S
C1045 C1043 1.327 . S
C1045 C1061 1.429 . S
C1045 H1067 0.950 . S
C1046 H1042 0.949 . S
C1046 C1054 1.574 . S
C1046 C1062 1.368 . S
H1047 C1055 0.950 . S
H1048 C1053 0.950 . S
H1049 C1054 0.949 . S
H1050 C1056 0.950 . S
H1051 C1057 0.950 . S
H1052 C1058 0.949 . S
C1053 H1048 0.950 . S
C1053 C1055 1.327 . S
C1053 C1059 1.429 . S
C1054 C1046 1.574 . S
C1054 H1049 0.949 . S
C1054 C1060 1.368 . S
C1055 C1039 1.349 . S
C1055 H1047 0.950 . S
C1055 C1053 1.327 . S
C1056 C1044 1.349 . S
C1056 H1050 0.950 . S
C1056 C1057 1.327 . S
C1057 H1051 0.950 . S
C1057 C1056 1.327 . S
C1057 C1061 1.429 . S
C1058 C1041 1.574 . S
C1058 H1052 0.949 . S
C1058 C1062 1.368 . S
C1059 C1040 1.429 . S
C1059 C1053 1.429 . S
C1059 C1060 1.523 . S
C1060 C1041 1.368 . S
C1060 C1054 1.368 . S
C1060 C1059 1.523 . S
C1061 C1045 1.429 . S
C1061 C1057 1.429 . S
C1061 C1062 1.523 . S
C1062 C1046 1.368 . S
C1062 C1058 1.368 . S
C1062 C1061 1.523 . S
H1063 C1038 0.950 . S
H1064 C1040 0.950 . S
H1065 C1041 0.949 . S
H1066 C1043 0.950 . S
H1067 C1045 0.950 . S
C1068 C1069 1.349 . S
C1068 C1070 1.327 . S
C1068 H1093 0.950 . S
C1069 C1068 1.349 . S
C1069 C1085 1.349 . S
C1070 C1068 1.327 . S
C1070 C1089 1.429 . S
C1070 H1094 0.950 . S
C1071 C1088 1.574 . S
C1071 C1090 1.368 . S
C1071 H1095 0.949 . S
H1072 C1076 0.949 . S
C1073 C1074 1.349 . S
C1073 C1075 1.327 . S
C1073 H1096 0.950 . S
C1074 C1073 1.349 . S
C1074 C1086 1.349 . S
C1075 C1073 1.327 . S
C1075 C1091 1.429 . S
C1075 H1097 0.950 . S
C1076 H1072 0.949 . S
C1076 C1084 1.574 . S
C1076 C1092 1.368 . S
H1077 C1085 0.950 . S
H1078 C1083 0.950 . S
H1079 C1084 0.949 . S
H1080 C1086 0.950 . S
H1081 C1087 0.950 . S
H1082 C1088 0.949 . S
C1083 H1078 0.950 . S
C1083 C1085 1.327 . S
C1083 C1089 1.429 . S
C1084 C1076 1.574 . S
C1084 H1079 0.949 . S
C1084 C1090 1.368 . S
C1085 C1069 1.349 . S
C1085 H1077 0.950 . S
C1085 C1083 1.327 . S
C1086 C1074 1.349 . S
C1086 H1080 0.950 . S
C1086 C1087 1.327 . S
C1087 H1081 0.950 . S
C1087 C1086 1.327 . S
C1087 C1091 1.429 . S
C1088 C1071 1.574 . S
C1088 H1082 0.949 . S
C1088 C1092 1.368 . S
C1089 C1070 1.429 . S
C1089 C1083 1.429 . S
C1089 C1090 1.523 . S
C1090 C1071 1.368 . S
C1090 C1084 1.368 . S
C1090 C1089 1.523 . S
C1091 C1075 1.429 . S
C1091 C1087 1.429 . S
C1091 C1092 1.523 . S
C1092 C1076 1.368 . S
C1092 C1088 1.368 . S
C1092 C1091 1.523 . S
H1093 C1068 0.950 . S
H1094 C1070 0.950 . S
H1095 C1071 0.949 . S
H1096 C1073 0.950 . S
H1097 C1075 0.950 . S
C1098 C1099 1.349 . S
C1098 C1100 1.327 . S
C1098 H1123 0.950 . S
C1099 C1098 1.349 . S
C1099 C1115 1.349 . S
C1100 C1098 1.327 . S
C1100 C1119 1.429 . S
C1100 H1124 0.950 . S
C1101 C1118 1.574 . S
C1101 C1120 1.368 . S
C1101 H1125 0.949 . S
H1102 C1106 0.949 . S
C1103 C1104 1.349 . S
C1103 C1105 1.327 . S
C1103 H1126 0.950 . S
C1104 C1103 1.349 . S
C1104 C1116 1.349 . S
C1105 C1103 1.327 . S
C1105 C1121 1.429 . S
C1105 H1127 0.950 . S
C1106 H1102 0.949 . S
C1106 C1114 1.574 . S
C1106 C1122 1.368 . S
H1107 C1115 0.950 . S
H1108 C1113 0.950 . S
H1109 C1114 0.949 . S
H1110 C1116 0.950 . S
H1111 C1117 0.950 . S
H1112 C1118 0.949 . S
C1113 H1108 0.950 . S
C1113 C1115 1.327 . S
C1113 C1119 1.429 . S
C1114 C1106 1.574 . S
C1114 H1109 0.949 . S
C1114 C1120 1.368 . S
C1115 C1099 1.349 . S
C1115 H1107 0.950 . S
C1115 C1113 1.327 . S
C1116 C1104 1.349 . S
C1116 H1110 0.950 . S
C1116 C1117 1.327 . S
C1117 H1111 0.950 . S
C1117 C1116 1.327 . S
C1117 C1121 1.429 . S
C1118 C1101 1.574 . S
C1118 H1112 0.949 . S
C1118 C1122 1.368 . S
C1119 C1100 1.429 . S
C1119 C1113 1.429 . S
C1119 C1120 1.523 . S
C1120 C1101 1.368 . S
C1120 C1114 1.368 . S
C1120 C1119 1.523 . S
C1121 C1105 1.429 . S
C1121 C1117 1.429 . S
C1121 C1122 1.523 . S
C1122 C1106 1.368 . S
C1122 C1118 1.368 . S
C1122 C1121 1.523 . S
H1123 C1098 0.950 . S
H1124 C1100 0.950 . S
H1125 C1101 0.949 . S
H1126 C1103 0.950 . S
H1127 C1105 0.950 . S
C1128 C1129 1.349 . S
C1128 C1130 1.327 . S
C1128 H1153 0.950 . S
C1129 C1128 1.349 . S
C1129 C1145 1.349 . S
C1130 C1128 1.327 . S
C1130 C1149 1.429 . S
C1130 H1154 0.950 . S
C1131 C1148 1.574 . S
C1131 C1150 1.368 . S
C1131 H1155 0.949 . S
H1132 C1136 0.949 . S
C1133 C1134 1.349 . S
C1133 C1135 1.327 . S
C1133 H1156 0.950 . S
C1134 C1133 1.349 . S
C1134 C1146 1.349 . S
C1135 C1133 1.327 . S
C1135 C1151 1.429 . S
C1135 H1157 0.950 . S
C1136 H1132 0.949 . S
C1136 C1144 1.574 . S
C1136 C1152 1.368 . S
H1137 C1145 0.950 . S
H1138 C1143 0.950 . S
H1139 C1144 0.949 . S
H1140 C1146 0.950 . S
H1141 C1147 0.950 . S
H1142 C1148 0.949 . S
C1143 H1138 0.950 . S
C1143 C1145 1.327 . S
C1143 C1149 1.429 . S
C1144 C1136 1.574 . S
C1144 H1139 0.949 . S
C1144 C1150 1.368 . S
C1145 C1129 1.349 . S
C1145 H1137 0.950 . S
C1145 C1143 1.327 . S
C1146 C1134 1.349 . S
C1146 H1140 0.950 . S
C1146 C1147 1.327 . S
C1147 H1141 0.950 . S
C1147 C1146 1.327 . S
C1147 C1151 1.429 . S
C1148 C1131 1.574 . S
C1148 H1142 0.949 . S
C1148 C1152 1.368 . S
C1149 C1130 1.429 . S
C1149 C1143 1.429 . S
C1149 C1150 1.523 . S
C1150 C1131 1.368 . S
C1150 C1144 1.368 . S
C1150 C1149 1.523 . S
C1151 C1135 1.429 . S
C1151 C1147 1.429 . S
C1151 C1152 1.523 . S
C1152 C1136 1.368 . S
C1152 C1148 1.368 . S
C1152 C1151 1.523 . S
H1153 C1128 0.950 . S
H1154 C1130 0.950 . S
H1155 C1131 0.949 . S
H1156 C1133 0.950 . S
H1157 C1135 0.950 . S
C1158 C1159 1.349 . S
C1158 C1160 1.327 . S
C1158 H1183 0.950 . S
C1159 C1158 1.349 . S
C1159 C1175 1.349 . S
C1160 C1158 1.327 . S
C1160 C1179 1.429 . S
C1160 H1184 0.950 . S
C1161 C1178 1.574 . S
C1161 C1180 1.368 . S
C1161 H1185 0.949 . S
H1162 C1166 0.949 . S
C1163 C1164 1.349 . S
C1163 C1165 1.327 . S
C1163 H1186 0.950 . S
C1164 C1163 1.349 . S
C1164 C1176 1.349 . S
C1165 C1163 1.327 . S
C1165 C1181 1.429 . S
C1165 H1187 0.950 . S
C1166 H1162 0.949 . S
C1166 C1174 1.574 . S
C1166 C1182 1.368 . S
H1167 C1175 0.950 . S
H1168 C1173 0.950 . S
H1169 C1174 0.949 . S
H1170 C1176 0.950 . S
H1171 C1177 0.950 . S
H1172 C1178 0.949 . S
C1173 H1168 0.950 . S
C1173 C1175 1.327 . S
C1173 C1179 1.429 . S
C1174 C1166 1.574 . S
C1174 H1169 0.949 . S
C1174 C1180 1.368 . S
C1175 C1159 1.349 . S
C1175 H1167 0.950 . S
C1175 C1173 1.327 . S
C1176 C1164 1.349 . S
C1176 H1170 0.950 . S
C1176 C1177 1.327 . S
C1177 H1171 0.950 . S
C1177 C1176 1.327 . S
C1177 C1181 1.429 . S
C1178 C1161 1.574 . S
C1178 H1172 0.949 . S
C1178 C1182 1.368 . S
C1179 C1160 1.429 . S
C1179 C1173 1.429 . S
C1179 C1180 1.523 . S
C1180 C1161 1.368 . S
C1180 C1174 1.368 . S
C1180 C1179 1.523 . S
C1181 C1165 1.429 . S
C1181 C1177 1.429 . S
C1181 C1182 1.523 . S
C1182 C1166 1.368 . S
C1182 C1178 1.368 . S
C1182 C1181 1.523 . S
H1183 C1158 0.950 . S
H1184 C1160 0.950 . S
H1185 C1161 0.949 . S
H1186 C1163 0.950 . S
H1187 C1165 0.950 . S
C1188 C1189 1.349 . S
C1188 C1190 1.327 . S
C1188 H1213 0.950 . S
C1189 C1188 1.349 . S
C1189 C1205 1.349 . S
C1190 C1188 1.327 . S
C1190 C1209 1.429 . S
C1190 H1214 0.950 . S
C1191 C1208 1.574 . S
C1191 C1210 1.368 . S
C1191 H1215 0.949 . S
H1192 C1196 0.949 . S
C1193 C1194 1.349 . S
C1193 C1195 1.327 . S
C1193 H1216 0.950 . S
C1194 C1193 1.349 . S
C1194 C1206 1.349 . S
C1195 C1193 1.327 . S
C1195 C1211 1.429 . S
C1195 H1217 0.950 . S
C1196 H1192 0.949 . S
C1196 C1204 1.574 . S
C1196 C1212 1.368 . S
H1197 C1205 0.950 . S
H1198 C1203 0.950 . S
H1199 C1204 0.949 . S
H1200 C1206 0.950 . S
H1201 C1207 0.950 . S
H1202 C1208 0.949 . S
C1203 H1198 0.950 . S
C1203 C1205 1.327 . S
C1203 C1209 1.429 . S
C1204 C1196 1.574 . S
C1204 H1199 0.949 . S
C1204 C1210 1.368 . S
C1205 C1189 1.349 . S
C1205 H1197 0.950 . S
C1205 C1203 1.327 . S
C1206 C1194 1.349 . S
C1206 H1200 0.950 . S
C1206 C1207 1.327 . S
C1207 H1201 0.950 . S
C1207 C1206 1.327 . S
C1207 C1211 1.429 . S
C1208 C1191 1.574 . S
C1208 H1202 0.949 . S
C1208 C1212 1.368 . S
C1209 C1190 1.429 . S
C1209 C1203 1.429 . S
C1209 C1210 1.523 . S
C1210 C1191 1.368 . S
C1210 C1204 1.368 . S
C1210 C1209 1.523 . S
C1211 C1195 1.429 . S
C1211 C1207 1.429 . S
C1211 C1212 1.523 . S
C1212 C1196 1.368 . S
C1212 C1208 1.368 . S
C1212 C1211 1.523 . S
H1213 C1188 0.950 . S
H1214 C1190 0.950 . S
H1215 C1191 0.949 . S
H1216 C1193 0.950 . S
H1217 C1195 0.950 . S
C1218 C1219 1.349 . S
C1218 C1220 1.327 . S
C1218 H1243 0.950 . S
C1219 C1218 1.349 . S
C1219 C1235 1.349 . S
C1220 C1218 1.327 . S
C1220 C1239 1.429 . S
C1220 H1244 0.950 . S
C1221 C1238 1.574 . S
C1221 C1240 1.368 . S
C1221 H1245 0.949 . S
H1222 C1226 0.949 . S
C1223 C1224 1.349 . S
C1223 C1225 1.327 . S
C1223 H1246 0.950 . S
C1224 C1223 1.349 . S
C1224 C1236 1.349 . S
C1225 C1223 1.327 . S
C1225 C1241 1.429 . S
C1225 H1247 0.950 . S
C1226 H1222 0.949 . S
C1226 C1234 1.574 . S
C1226 C1242 1.368 . S
H1227 C1235 0.950 . S
H1228 C1233 0.950 . S
H1229 C1234 0.949 . S
H1230 C1236 0.950 . S
H1231 C1237 0.950 . S
H1232 C1238 0.949 . S
C1233 H1228 0.950 . S
C1233 C1235 1.327 . S
C1233 C1239 1.429 . S
C1234 C1226 1.574 . S
C1234 H1229 0.949 . S
C1234 C1240 1.368 . S
C1235 C1219 1.349 . S
C1235 H1227 0.950 . S
C1235 C1233 1.327 . S
C1236 C1224 1.349 . S
C1236 H1230 0.950 . S
C1236 C1237 1.327 . S
C1237 H1231 0.950 . S
C1237 C1236 1.327 . S
C1237 C1241 1.429 . S
C1238 C1221 1.574 . S
C1238 H1232 0.949 . S
C1238 C1242 1.368 . S
C1239 C1220 1.429 . S
C1239 C1233 1.429 . S
C1239 C1240 1.523 . S
C1240 C1221 1.368 . S
C1240 C1234 1.368 . S
C1240 C1239 1.523 . S
C1241 C1225 1.429 . S
C1241 C1237 1.429 . S
C1241 C1242 1.523 . S
C1242 C1226 1.368 . S
C1242 C1238 1.368 . S
C1242 C1241 1.523 . S
H1243 C1218 0.950 . S
H1244 C1220 0.950 . S
H1245 C1221 0.949 . S
H1246 C1223 0.950 . S
H1247 C1225 0.950 . S
C1248 C1249 1.349 . S
C1248 C1250 1.327 . S
C1248 H1273 0.950 . S
C1249 C1248 1.349 . S
C1249 C1265 1.349 . S
C1250 C1248 1.327 . S
C1250 C1269 1.429 . S
C1250 H1274 0.950 . S
C1251 C1268 1.574 . S
C1251 C1270 1.368 . S
C1251 H1275 0.949 . S
H1252 C1256 0.949 . S
C1253 C1254 1.349 . S
C1253 C1255 1.327 . S
C1253 H1276 0.950 . S
C1254 C1253 1.349 . S
C1254 C1266 1.349 . S
C1255 C1253 1.327 . S
C1255 C1271 1.429 . S
C1255 H1277 0.950 . S
C1256 H1252 0.949 . S
C1256 C1264 1.574 . S
C1256 C1272 1.368 . S
H1257 C1265 0.950 . S
H1258 C1263 0.950 . S
H1259 C1264 0.949 . S
H1260 C1266 0.950 . S
H1261 C1267 0.950 . S
H1262 C1268 0.949 . S
C1263 H1258 0.950 . S
C1263 C1265 1.327 . S
C1263 C1269 1.429 . S
C1264 C1256 1.574 . S
C1264 H1259 0.949 . S
C1264 C1270 1.368 . S
C1265 C1249 1.349 . S
C1265 H1257 0.950 . S
C1265 C1263 1.327 . S
C1266 C1254 1.349 . S
C1266 H1260 0.950 . S
C1266 C1267 1.327 . S
C1267 H1261 0.950 . S
C1267 C1266 1.327 . S
C1267 C1271 1.429 . S
C1268 C1251 1.574 . S
C1268 H1262 0.949 . S
C1268 C1272 1.368 . S
C1269 C1250 1.429 . S
C1269 C1263 1.429 . S
C1269 C1270 1.523 . S
C1270 C1251 1.368 . S
C1270 C1264 1.368 . S
C1270 C1269 1.523 . S
C1271 C1255 1.429 . S
C1271 C1267 1.429 . S
C1271 C1272 1.523 . S
C1272 C1256 1.368 . S
C1272 C1268 1.368 . S
C1272 C1271 1.523 . S
H1273 C1248 0.950 . S
H1274 C1250 0.950 . S
H1275 C1251 0.949 . S
H1276 C1253 0.950 . S
H1277 C1255 0.950 . S
C1278 C1279 1.349 . S
C1278 C1280 1.327 . S
C1278 H1303 0.950 . S
C1279 C1278 1.349 . S
C1279 C1295 1.349 . S
C1280 C1278 1.327 . S
C1280 C1299 1.429 . S
C1280 H1304 0.950 . S
C1281 C1298 1.574 . S
C1281 C1300 1.368 . S
C1281 H1305 0.949 . S
H1282 C1286 0.949 . S
C1283 C1284 1.349 . S
C1283 C1285 1.327 . S
C1283 H1306 0.950 . S
C1284 C1283 1.349 . S
C1284 C1296 1.349 . S
C1285 C1283 1.327 . S
C1285 C1301 1.429 . S
C1285 H1307 0.950 . S
C1286 H1282 0.949 . S
C1286 C1294 1.574 . S
C1286 C1302 1.368 . S
H1287 C1295 0.950 . S
H1288 C1293 0.950 . S
H1289 C1294 0.949 . S
H1290 C1296 0.950 . S
H1291 C1297 0.950 . S
H1292 C1298 0.949 . S
C1293 H1288 0.950 . S
C1293 C1295 1.327 . S
C1293 C1299 1.429 . S
C1294 C1286 1.574 . S
C1294 H1289 0.949 . S
C1294 C1300 1.368 . S
C1295 C1279 1.349 . S
C1295 H1287 0.950 . S
C1295 C1293 1.327 . S
C1296 C1284 1.349 . S
C1296 H1290 0.950 . S
C1296 C1297 1.327 . S
C1297 H1291 0.950 . S
C1297 C1296 1.327 . S
C1297 C1301 1.429 . S
C1298 C1281 1.574 . S
C1298 H1292 0.949 . S
C1298 C1302 1.368 . S
C1299 C1280 1.429 . S
C1299 C1293 1.429 . S
C1299 C1300 1.523 . S
C1300 C1281 1.368 . S
C1300 C1294 1.368 . S
C1300 C1299 1.523 . S
C1301 C1285 1.429 . S
C1301 C1297 1.429 . S
C1301 C1302 1.523 . S
C1302 C1286 1.368 . S
C1302 C1298 1.368 . S
C1302 C1301 1.523 . S
H1303 C1278 0.950 . S
H1304 C1280 0.950 . S
H1305 C1281 0.949 . S
H1306 C1283 0.950 . S
H1307 C1285 0.950 . S
C1308 C1309 1.349 . S
C1308 C1310 1.327 . S
C1308 H1333 0.950 . S
C1309 C1308 1.349 . S
C1309 C1325 1.349 . S
C1310 C1308 1.327 . S
C1310 C1329 1.429 . S
C1310 H1334 0.950 . S
C1311 C1328 1.574 . S
C1311 C1330 1.368 . S
C1311 H1335 0.949 . S
H1312 C1316 0.949 . S
C1313 C1314 1.349 . S
C1313 C1315 1.327 . S
C1313 H1336 0.950 . S
C1314 C1313 1.349 . S
C1314 C1326 1.349 . S
C1315 C1313 1.327 . S
C1315 C1331 1.429 . S
C1315 H1337 0.950 . S
C1316 H1312 0.949 . S
C1316 C1324 1.574 . S
C1316 C1332 1.368 . S
H1317 C1325 0.950 . S
H1318 C1323 0.950 . S
H1319 C1324 0.949 . S
H1320 C1326 0.950 . S
H1321 C1327 0.950 . S
H1322 C1328 0.949 . S
C1323 H1318 0.950 . S
C1323 C1325 1.327 . S
C1323 C1329 1.429 . S
C1324 C1316 1.574 . S
C1324 H1319 0.949 . S
C1324 C1330 1.368 . S
C1325 C1309 1.349 . S
C1325 H1317 0.950 . S
C1325 C1323 1.327 . S
C1326 C1314 1.349 . S
C1326 H1320 0.950 . S
C1326 C1327 1.327 . S
C1327 H1321 0.950 . S
C1327 C1326 1.327 . S
C1327 C1331 1.429 . S
C1328 C1311 1.574 . S
C1328 H1322 0.949 . S
C1328 C1332 1.368 . S
C1329 C1310 1.429 . S
C1329 C1323 1.429 . S
C1329 C1330 1.523 . S
C1330 C1311 1.368 . S
C1330 C1324 1.368 . S
C1330 C1329 1.523 . S
C1331 C1315 1.429 . S
C1331 C1327 1.429 . S
C1331 C1332 1.523 . S
C1332 C1316 1.368 . S
C1332 C1328 1.368 . S
C1332 C1331 1.523 . S
H1333 C1308 0.950 . S
H1334 C1310 0.950 . S
H1335 C1311 0.949 . S
H1336 C1313 0.950 . S
H1337 C1315 0.950 . S
C1338 C1339 1.349 . S
C1338 C1340 1.327 . S
C1338 H1363 0.950 . S
C1339 C1338 1.349 . S
C1339 C1355 1.349 . S
C1340 C1338 1.327 . S
C1340 C1359 1.429 . S
C1340 H1364 0.950 . S
C1341 C1358 1.574 . S
C1341 C1360 1.368 . S
C1341 H1365 0.949 . S
H1342 C1346 0.949 . S
C1343 C1344 1.349 . S
C1343 C1345 1.327 . S
C1343 H1366 0.950 . S
C1344 C1343 1.349 . S
C1344 C1356 1.349 . S
C1345 C1343 1.327 . S
C1345 C1361 1.429 . S
C1345 H1367 0.950 . S
C1346 H1342 0.949 . S
C1346 C1354 1.574 . S
C1346 C1362 1.368 . S
H1347 C1355 0.950 . S
H1348 C1353 0.950 . S
H1349 C1354 0.949 . S
H1350 C1356 0.950 . S
H1351 C1357 0.950 . S
H1352 C1358 0.949 . S
C1353 H1348 0.950 . S
C1353 C1355 1.327 . S
C1353 C1359 1.429 . S
C1354 C1346 1.574 . S
C1354 H1349 0.949 . S
C1354 C1360 1.368 . S
C1355 C1339 1.349 . S
C1355 H1347 0.950 . S
C1355 C1353 1.327 . S
C1356 C1344 1.349 . S
C1356 H1350 0.950 . S
C1356 C1357 1.327 . S
C1357 H1351 0.950 . S
C1357 C1356 1.327 . S
C1357 C1361 1.429 . S
C1358 C1341 1.574 . S
C1358 H1352 0.949 . S
C1358 C1362 1.368 . S
C1359 C1340 1.429 . S
C1359 C1353 1.429 . S
C1359 C1360 1.523 . S
C1360 C1341 1.368 . S
C1360 C1354 1.368 . S
C1360 C1359 1.523 . S
C1361 C1345 1.429 . S
C1361 C1357 1.429 . S
C1361 C1362 1.523 . S
C1362 C1346 1.368 . S
C1362 C1358 1.368 . S
C1362 C1361 1.523 . S
H1363 C1338 0.950 . S
H1364 C1340 0.950 . S
H1365 C1341 0.949 . S
H1366 C1343 0.950 . S
H1367 C1345 0.950 . S
C1368 C1369 1.349 . S
C1368 C1370 1.327 . S
C1368 H1393 0.950 . S
C1369 C1368 1.349 . S
C1369 C1385 1.349 . S
C1370 C1368 1.327 . S
C1370 C1389 1.429 . S
C1370 H1394 0.950 . S
C1371 C1388 1.574 . S
C1371 C1390 1.368 . S
C1371 H1395 0.949 . S
H1372 C1376 0.949 . S
C1373 C1374 1.349 . S
C1373 C1375 1.327 . S
C1373 H1396 0.950 . S
C1374 C1373 1.349 . S
C1374 C1386 1.349 . S
C1375 C1373 1.327 . S
C1375 C1391 1.429 . S
C1375 H1397 0.950 . S
C1376 H1372 0.949 . S
C1376 C1384 1.574 . S
C1376 C1392 1.368 . S
H1377 C1385 0.950 . S
H1378 C1383 0.950 . S
H1379 C1384 0.949 . S
H1380 C1386 0.950 . S
H1381 C1387 0.950 . S
H1382 C1388 0.949 . S
C1383 H1378 0.950 . S
C1383 C1385 1.327 . S
C1383 C1389 1.429 . S
C1384 C1376 1.574 . S
C1384 H1379 0.949 . S
C1384 C1390 1.368 . S
C1385 C1369 1.349 . S
C1385 H1377 0.950 . S
C1385 C1383 1.327 . S
C1386 C1374 1.349 . S
C1386 H1380 0.950 . S
C1386 C1387 1.327 . S
C1387 H1381 0.950 . S
C1387 C1386 1.327 . S
C1387 C1391 1.429 . S
C1388 C1371 1.574 . S
C1388 H1382 0.949 . S
C1388 C1392 1.368 . S
C1389 C1370 1.429 . S
C1389 C1383 1.429 . S
C1389 C1390 1.523 . S
C1390 C1371 1.368 . S
C1390 C1384 1.368 . S
C1390 C1389 1.523 . S
C1391 C1375 1.429 . S
C1391 C1387 1.429 . S
C1391 C1392 1.523 . S
C1392 C1376 1.368 . S
C1392 C1388 1.368 . S
C1392 C1391 1.523 . S
H1393 C1368 0.950 . S
H1394 C1370 0.950 . S
H1395 C1371 0.949 . S
H1396 C1373 0.950 . S
H1397 C1375 0.950 . S
C1398 C1399 1.349 . S
C1398 C1400 1.327 . S
C1398 H1423 0.950 . S
C1399 C1398 1.349 . S
C1399 C1415 1.349 . S
C1400 C1398 1.327 . S
C1400 C1419 1.429 . S
C1400 H1424 0.950 . S
C1401 C1418 1.574 . S
C1401 C1420 1.368 . S
C1401 H1425 0.949 . S
H1402 C1406 0.949 . S
C1403 C1404 1.349 . S
C1403 C1405 1.327 . S
C1403 H1426 0.950 . S
C1404 C1403 1.349 . S
C1404 C1416 1.349 . S
C1405 C1403 1.327 . S
C1405 C1421 1.429 . S
C1405 H1427 0.950 . S
C1406 H1402 0.949 . S
C1406 C1414 1.574 . S
C1406 C1422 1.368 . S
H1407 C1415 0.950 . S
H1408 C1413 0.950 . S
H1409 C1414 0.949 . S
H1410 C1416 0.950 . S
H1411 C1417 0.950 . S
H1412 C1418 0.949 . S
C1413 H1408 0.950 . S
C1413 C1415 1.327 . S
C1413 C1419 1.429 . S
C1414 C1406 1.574 . S
C1414 H1409 0.949 . S
C1414 C1420 1.368 . S
C1415 C1399 1.349 . S
C1415 H1407 0.950 . S
C1415 C1413 1.327 . S
C1416 C1404 1.349 . S
C1416 H1410 0.950 . S
C1416 C1417 1.327 . S
C1417 H1411 0.950 . S
C1417 C1416 1.327 . S
C1417 C1421 1.429 . S
C1418 C1401 1.574 . S
C1418 H1412 0.949 . S
C1418 C1422 1.368 . S
C1419 C1400 1.429 . S
C1419 C1413 1.429 . S
C1419 C1420 1.523 . S
C1420 C1401 1.368 . S
C1420 C1414 1.368 . S
C1420 C1419 1.523 . S
C1421 C1405 1.429 . S
C1421 C1417 1.429 . S
C1421 C1422 1.523 . S
C1422 C1406 1.368 . S
C1422 C1418 1.368 . S
C1422 C1421 1.523 . S
H1423 C1398 0.950 . S
H1424 C1400 0.950 . S
H1425 C1401 0.949 . S
H1426 C1403 0.950 . S
H1427 C1405 0.950 . S
C1428 C1429 1.349 . S
C1428 C1430 1.327 . S
C1428 H1453 0.950 . S
C1429 C1428 1.349 . S
C1429 C1445 1.349 . S
C1430 C1428 1.327 . S
C1430 C1449 1.429 . S
C1430 H1454 0.950 . S
C1431 C1448 1.574 . S
C1431 C1450 1.368 . S
C1431 H1455 0.949 . S
H1432 C1436 0.949 . S
C1433 C1434 1.349 . S
C1433 C1435 1.327 . S
C1433 H1456 0.950 . S
C1434 C1433 1.349 . S
C1434 C1446 1.349 . S
C1435 C1433 1.327 . S
C1435 C1451 1.429 . S
C1435 H1457 0.950 . S
C1436 H1432 0.949 . S
C1436 C1444 1.574 . S
C1436 C1452 1.368 . S
H1437 C1445 0.950 . S
H1438 C1443 0.950 . S
H1439 C1444 0.949 . S
H1440 C1446 0.950 . S
H1441 C1447 0.950 . S
H1442 C1448 0.949 . S
C1443 H1438 0.950 . S
C1443 C1445 1.327 . S
C1443 C1449 1.429 . S
C1444 C1436 1.574 . S
C1444 H1439 0.949 . S
C1444 C1450 1.368 . S
C1445 C1429 1.349 . S
C1445 H1437 0.950 . S
C1445 C1443 1.327 . S
C1446 C1434 1.349 . S
C1446 H1440 0.950 . S
C1446 C1447 1.327 . S
C1447 H1441 0.950 . S
C1447 C1446 1.327 . S
C1447 C1451 1.429 . S
C1448 C1431 1.574 . S
C1448 H1442 0.949 . S
C1448 C1452 1.368 . S
C1449 C1430 1.429 . S
C1449 C1443 1.429 . S
C1449 C1450 1.523 . S
C1450 C1431 1.368 . S
C1450 C1444 1.368 . S
C1450 C1449 1.523 . S
C1451 C1435 1.429 . S
C1451 C1447 1.429 . S
C1451 C1452 1.523 . S
C1452 C1436 1.368 . S
C1452 C1448 1.368 . S
C1452 C1451 1.523 . S
H1453 C1428 0.950 . S
H1454 C1430 0.950 . S
H1455 C1431 0.949 . S
H1456 C1433 0.950 . S
H1457 C1435 0.950 . S
C1458 C1459 1.349 . S
C1458 C1460 1.327 . S
C1458 H1483 0.950 . S
C1459 C1458 1.349 . S
C1459 C1475 1.349 . S
C1460 C1458 1.327 . S
C1460 C1479 1.429 . S
C1460 H1484 0.950 . S
C1461 C1478 1.574 . S
C1461 C1480 1.368 . S
C1461 H1485 0.949 . S
H1462 C1466 0.949 . S
C1463 C1464 1.349 . S
C1463 C1465 1.327 . S
C1463 H1486 0.950 . S
C1464 C1463 1.349 . S
C1464 C1476 1.349 . S
C1465 C1463 1.327 . S
C1465 C1481 1.429 . S
C1465 H1487 0.950 . S
C1466 H1462 0.949 . S
C1466 C1474 1.574 . S
C1466 C1482 1.368 . S
H1467 C1475 0.950 . S
H1468 C1473 0.950 . S
H1469 C1474 0.949 . S
H1470 C1476 0.950 . S
H1471 C1477 0.950 . S
H1472 C1478 0.949 . S
C1473 H1468 0.950 . S
C1473 C1475 1.327 . S
C1473 C1479 1.429 . S
C1474 C1466 1.574 . S
C1474 H1469 0.949 . S
C1474 C1480 1.368 . S
C1475 C1459 1.349 . S
C1475 H1467 0.950 . S
C1475 C1473 1.327 . S
C1476 C1464 1.349 . S
C1476 H1470 0.950 . S
C1476 C1477 1.327 . S
C1477 H1471 0.950 . S
C1477 C1476 1.327 . S
C1477 C1481 1.429 . S
C1478 C1461 1.574 . S
C1478 H1472 0.949 . S
C1478 C1482 1.368 . S
C1479 C1460 1.429 . S
C1479 C1473 1.429 . S
C1479 C1480 1.523 . S
C1480 C1461 1.368 . S
C1480 C1474 1.368 . S
C1480 C1479 1.523 . S
C1481 C1465 1.429 . S
C1481 C1477 1.429 . S
C1481 C1482 1.523 . S
C1482 C1466 1.368 . S
C1482 C1478 1.368 . S
C1482 C1481 1.523 . S
H1483 C1458 0.950 . S
H1484 C1460 0.950 . S
H1485 C1461 0.949 . S
H1486 C1463 0.950 . S
H1487 C1465 0.950 . S
C1488 C1489 1.349 . S
C1488 C1490 1.327 . S
C1488 H1513 0.950 . S
C1489 C1488 1.349 . S
C1489 C1505 1.349 . S
C1490 C1488 1.327 . S
C1490 C1509 1.429 . S
C1490 H1514 0.950 1_655 S
C1491 C1508 1.574 . S
C1491 C1510 1.368 . S
C1491 H1515 0.949 . S
H1492 C1496 0.949 . S
C1493 C1494 1.349 . S
C1493 C1495 1.327 . S
C1493 H1516 0.950 . S
C1494 C1493 1.349 . S
C1494 C1506 1.349 . S
C1495 C1493 1.327 . S
C1495 C1511 1.429 . S
C1495 H1517 0.950 1_455 S
C1496 H1492 0.949 . S
C1496 C1504 1.574 . S
C1496 C1512 1.368 . S
H1497 C1505 0.950 . S
H1498 C1503 0.950 . S
H1499 C1504 0.949 . S
H1500 C1506 0.950 . S
H1501 C1507 0.950 . S
H1502 C1508 0.949 . S
C1503 H1498 0.950 . S
C1503 C1505 1.327 . S
C1503 C1509 1.429 . S
C1504 C1496 1.574 . S
C1504 H1499 0.949 . S
C1504 C1510 1.368 1_455 S
C1505 C1489 1.349 . S
C1505 H1497 0.950 . S
C1505 C1503 1.327 . S
C1506 C1494 1.349 . S
C1506 H1500 0.950 . S
C1506 C1507 1.327 . S
C1507 H1501 0.950 . S
C1507 C1506 1.327 . S
C1507 C1511 1.429 . S
C1508 C1491 1.574 . S
C1508 H1502 0.949 . S
C1508 C1512 1.368 1_655 S
C1509 C1490 1.429 . S
C1509 C1503 1.429 . S
C1509 C1510 1.523 . S
C1510 C1491 1.368 . S
C1510 C1504 1.368 1_655 S
C1510 C1509 1.523 . S
C1511 C1495 1.429 . S
C1511 C1507 1.429 . S
C1511 C1512 1.523 . S
C1512 C1496 1.368 . S
C1512 C1508 1.368 1_455 S
C1512 C1511 1.523 . S
H1513 C1488 0.950 . S
H1514 C1490 0.950 1_455 S
H1515 C1491 0.949 . S
H1516 C1493 0.950 . S
H1517 C1495 0.950 1_655 S
C1518 C1519 1.349 . S
C1518 C1520 1.327 . S
C1518 H1543 0.950 . S
C1519 C1518 1.349 . S
C1519 C1535 1.349 . S
C1520 C1518 1.327 . S
C1520 C1539 1.429 . S
C1520 H1544 0.950 . S
C1521 C1538 1.574 . S
C1521 C1540 1.368 1_545 S
C1521 H1545 0.949 . S
H1522 C1526 0.949 . S
C1523 C1524 1.349 . S
C1523 C1525 1.327 . S
C1523 H1546 0.950 . S
C1524 C1523 1.349 . S
C1524 C1536 1.349 . S
C1525 C1523 1.327 . S
C1525 C1541 1.429 . S
C1525 H1547 0.950 . S
C1526 H1522 0.949 . S
C1526 C1534 1.574 . S
C1526 C1542 1.368 1_565 S
H1527 C1535 0.950 . S
H1528 C1533 0.950 1_545 S
H1529 C1534 0.949 . S
H1530 C1536 0.950 . S
H1531 C1537 0.950 1_565 S
H1532 C1538 0.949 . S
C1533 H1528 0.950 1_565 S
C1533 C1535 1.327 . S
C1533 C1539 1.429 . S
C1534 C1526 1.574 . S
C1534 H1529 0.949 . S
C1534 C1540 1.368 . S
C1535 C1519 1.349 . S
C1535 H1527 0.950 . S
C1535 C1533 1.327 . S
C1536 C1524 1.349 . S
C1536 H1530 0.950 . S
C1536 C1537 1.327 . S
C1537 H1531 0.950 1_545 S
C1537 C1536 1.327 . S
C1537 C1541 1.429 . S
C1538 C1521 1.574 . S
C1538 H1532 0.949 . S
C1538 C1542 1.368 . S
C1539 C1520 1.429 . S
C1539 C1533 1.429 . S
C1539 C1540 1.523 . S
C1540 C1521 1.368 1_565 S
C1540 C1534 1.368 . S
C1540 C1539 1.523 . S
C1541 C1525 1.429 . S
C1541 C1537 1.429 . S
C1541 C1542 1.523 . S
C1542 C1526 1.368 1_545 S
C1542 C1538 1.368 . S
C1542 C1541 1.523 . S
H1543 C1518 0.950 . S
H1544 C1520 0.950 . S
H1545 C1521 0.949 . S
H1546 C1523 0.950 . S
H1547 C1525 0.950 . S
C1548 C1549 1.349 . S
C1548 C1550 1.327 . S
C1548 H1573 0.950 . S
C1549 C1548 1.349 . S
C1549 C1565 1.349 . S
C1550 C1548 1.327 . S
C1550 C1569 1.429 . S
C1550 H1574 0.950 . S
C1551 C1568 1.574 1_545 S
C1551 C1570 1.368 . S
C1551 H1575 0.949 . S
H1552 C1556 0.949 . S
C1553 C1554 1.349 . S
C1553 C1555 1.327 . S
C1553 H1576 0.950 . S
C1554 C1553 1.349 . S
C1554 C1566 1.349 . S
C1555 C1553 1.327 . S
C1555 C1571 1.429 . S
C1555 H1577 0.950 . S
C1556 H1552 0.949 . S
C1556 C1564 1.574 1_565 S
C1556 C1572 1.368 . S
H1557 C1565 0.950 . S
H1558 C1563 0.950 . S
H1559 C1564 0.949 . S
H1560 C1566 0.950 . S
H1561 C1567 0.950 . S
H1562 C1568 0.949 . S
C1563 H1558 0.950 . S
C1563 C1565 1.327 . S
C1563 C1569 1.429 . S
C1564 C1556 1.574 1_545 S
C1564 H1559 0.949 . S
C1564 C1570 1.368 . S
C1565 C1549 1.349 . S
C1565 H1557 0.950 . S
C1565 C1563 1.327 . S
C1566 C1554 1.349 . S
C1566 H1560 0.950 . S
C1566 C1567 1.327 . S
C1567 H1561 0.950 . S
C1567 C1566 1.327 . S
C1567 C1571 1.429 . S
C1568 C1551 1.574 1_565 S
C1568 H1562 0.949 . S
C1568 C1572 1.368 . S
C1569 C1550 1.429 . S
C1569 C1563 1.429 . S
C1569 C1570 1.523 . S
C1570 C1551 1.368 . S
C1570 C1564 1.368 . S
C1570 C1569 1.523 . S
C1571 C1555 1.429 . S
C1571 C1567 1.429 . S
C1571 C1572 1.523 . S
C1572 C1556 1.368 . S
C1572 C1568 1.368 . S
C1572 C1571 1.523 . S
H1573 C1548 0.950 . S
H1574 C1550 0.950 . S
H1575 C1551 0.949 . S
H1576 C1553 0.950 . S
H1577 C1555 0.950 . S
C1578 C1579 1.349 . S
C1578 C1580 1.327 . S
C1578 H1603 0.950 . S
C1579 C1578 1.349 . S
C1579 C1595 1.349 . S
C1580 C1578 1.327 . S
C1580 C1599 1.429 . S
C1580 H1604 0.950 . S
C1581 C1598 1.574 1_655 S
C1581 C1600 1.368 . S
C1581 H1605 0.949 . S
H1582 C1586 0.949 . S
C1583 C1584 1.349 . S
C1583 C1585 1.327 . S
C1583 H1606 0.950 . S
C1584 C1583 1.349 . S
C1584 C1596 1.349 . S
C1585 C1583 1.327 . S
C1585 C1601 1.429 . S
C1585 H1607 0.950 . S
C1586 H1582 0.949 . S
C1586 C1594 1.574 1_455 S
C1586 C1602 1.368 . S
H1587 C1595 0.950 . S
H1588 C1593 0.950 . S
H1589 C1594 0.949 . S
H1590 C1596 0.950 . S
H1591 C1597 0.950 . S
H1592 C1598 0.949 . S
C1593 H1588 0.950 . S
C1593 C1595 1.327 . S
C1593 C1599 1.429 . S
C1594 C1586 1.574 1_655 S
C1594 H1589 0.949 . S
C1594 C1600 1.368 . S
C1595 C1579 1.349 . S
C1595 H1587 0.950 . S
C1595 C1593 1.327 . S
C1596 C1584 1.349 . S
C1596 H1590 0.950 . S
C1596 C1597 1.327 . S
C1597 H1591 0.950 . S
C1597 C1596 1.327 . S
C1597 C1601 1.429 . S
C1598 C1581 1.574 1_455 S
C1598 H1592 0.949 . S
C1598 C1602 1.368 . S
C1599 C1580 1.429 . S
C1599 C1593 1.429 . S
C1599 C1600 1.523 . S
C1600 C1581 1.368 . S
C1600 C1594 1.368 . S
C1600 C1599 1.523 . S
C1601 C1585 1.429 . S
C1601 C1597 1.429 . S
C1601 C1602 1.523 . S
C1602 C1586 1.368 . S
C1602 C1598 1.368 . S
C1602 C1601 1.523 . S
H1603 C1578 0.950 . S
H1604 C1580 0.950 . S
H1605 C1581 0.949 . S
H1606 C1583 0.950 . S
H1607 C1585 0.950 . S
C1608 C1609 1.349 . S
C1608 C1610 1.327 . S
C1608 H1633 0.950 . S
C1609 C1608 1.349 . S
C1609 C1625 1.349 . S
C1610 C1608 1.327 . S
C1610 C1629 1.429 . S
C1610 H1634 0.950 . S
C1611 C1628 1.574 . S
C1611 C1630 1.368 1_455 S
C1611 H1635 0.949 . S
H1612 C1616 0.949 . S
C1613 C1614 1.349 . S
C1613 C1615 1.327 . S
C1613 H1636 0.950 . S
C1614 C1613 1.349 . S
C1614 C1626 1.349 . S
C1615 C1613 1.327 . S
C1615 C1631 1.429 . S
C1615 H1637 0.950 . S
C1616 H1612 0.949 . S
C1616 C1624 1.574 . S
C1616 C1632 1.368 1_655 S
H1617 C1625 0.950 . S
H1618 C1623 0.950 1_455 S
H1619 C1624 0.949 . S
H1620 C1626 0.950 . S
H1621 C1627 0.950 1_655 S
H1622 C1628 0.949 . S
C1623 H1618 0.950 1_655 S
C1623 C1625 1.327 . S
C1623 C1629 1.429 . S
C1624 C1616 1.574 . S
C1624 H1619 0.949 . S
C1624 C1630 1.368 . S
C1625 C1609 1.349 . S
C1625 H1617 0.950 . S
C1625 C1623 1.327 . S
C1626 C1614 1.349 . S
C1626 H1620 0.950 . S
C1626 C1627 1.327 . S
C1627 H1621 0.950 1_455 S
C1627 C1626 1.327 . S
C1627 C1631 1.429 . S
C1628 C1611 1.574 . S
C1628 H1622 0.949 . S
C1628 C1632 1.368 . S
C1629 C1610 1.429 . S
C1629 C1623 1.429 . S
C1629 C1630 1.523 . S
C1630 C1611 1.368 1_655 S
C1630 C1624 1.368 . S
C1630 C1629 1.523 . S
C1631 C1615 1.429 . S
C1631 C1627 1.429 . S
C1631 C1632 1.523 . S
C1632 C1616 1.368 1_455 S
C1632 C1628 1.368 . S
C1632 C1631 1.523 . S
H1633 C1608 0.950 . S
H1634 C1610 0.950 . S
H1635 C1611 0.949 . S
H1636 C1613 0.950 . S
H1637 C1615 0.950 . S
C1638 C1639 1.349 . S
C1638 C1640 1.327 . S
C1638 H1663 0.950 . S
C1639 C1638 1.349 . S
C1639 C1655 1.349 . S
C1640 C1638 1.327 . S
C1640 C1659 1.429 . S
C1640 H1664 0.950 1_545 S
C1641 C1658 1.574 . S
C1641 C1660 1.368 . S
C1641 H1665 0.949 . S
H1642 C1646 0.949 . S
C1643 C1644 1.349 . S
C1643 C1645 1.327 . S
C1643 H1666 0.950 . S
C1644 C1643 1.349 . S
C1644 C1656 1.349 . S
C1645 C1643 1.327 . S
C1645 C1661 1.429 . S
C1645 H1667 0.950 1_565 S
C1646 H1642 0.949 . S
C1646 C1654 1.574 . S
C1646 C1662 1.368 . S
H1647 C1655 0.950 . S
H1648 C1653 0.950 . S
H1649 C1654 0.949 . S
H1650 C1656 0.950 . S
H1651 C1657 0.950 . S
H1652 C1658 0.949 . S
C1653 H1648 0.950 . S
C1653 C1655 1.327 . S
C1653 C1659 1.429 . S
C1654 C1646 1.574 . S
C1654 H1649 0.949 . S
C1654 C1660 1.368 1_565 S
C1655 C1639 1.349 . S
C1655 H1647 0.950 . S
C1655 C1653 1.327 . S
C1656 C1644 1.349 . S
C1656 H1650 0.950 . S
C1656 C1657 1.327 . S
C1657 H1651 0.950 . S
C1657 C1656 1.327 . S
C1657 C1661 1.429 . S
C1658 C1641 1.574 . S
C1658 H1652 0.949 . S
C1658 C1662 1.368 1_545 S
C1659 C1640 1.429 . S
C1659 C1653 1.429 . S
C1659 C1660 1.523 . S
C1660 C1641 1.368 . S
C1660 C1654 1.368 1_545 S
C1660 C1659 1.523 . S
C1661 C1645 1.429 . S
C1661 C1657 1.429 . S
C1661 C1662 1.523 . S
C1662 C1646 1.368 . S
C1662 C1658 1.368 1_565 S
C1662 C1661 1.523 . S
H1663 C1638 0.950 . S
H1664 C1640 0.950 1_565 S
H1665 C1641 0.949 . S
H1666 C1643 0.950 . S
H1667 C1645 0.950 1_545 S
C1668 C1669 1.349 . S
C1668 C1670 1.327 . S
C1668 H1693 0.950 . S
C1669 C1668 1.349 . S
C1669 C1685 1.349 . S
C1670 C1668 1.327 . S
C1670 C1689 1.429 . S
C1670 H1694 0.950 . S
C1671 C1688 1.574 1_565 S
C1671 C1690 1.368 . S
C1671 H1695 0.949 . S
H1672 C1676 0.949 . S
C1673 C1674 1.349 . S
C1673 C1675 1.327 . S
C1673 H1696 0.950 . S
C1674 C1673 1.349 . S
C1674 C1686 1.349 . S
C1675 C1673 1.327 . S
C1675 C1691 1.429 . S
C1675 H1697 0.950 . S
C1676 H1672 0.949 . S
C1676 C1684 1.574 1_545 S
C1676 C1692 1.368 . S
H1677 C1685 0.950 . S
H1678 C1683 0.950 . S
H1679 C1684 0.949 . S
H1680 C1686 0.950 . S
H1681 C1687 0.950 . S
H1682 C1688 0.949 . S
C1683 H1678 0.950 . S
C1683 C1685 1.327 . S
C1683 C1689 1.429 . S
C1684 C1676 1.574 1_565 S
C1684 H1679 0.949 . S
C1684 C1690 1.368 . S
C1685 C1669 1.349 . S
C1685 H1677 0.950 . S
C1685 C1683 1.327 . S
C1686 C1674 1.349 . S
C1686 H1680 0.950 . S
C1686 C1687 1.327 . S
C1687 H1681 0.950 . S
C1687 C1686 1.327 . S
C1687 C1691 1.429 . S
C1688 C1671 1.574 1_545 S
C1688 H1682 0.949 . S
C1688 C1692 1.368 . S
C1689 C1670 1.429 . S
C1689 C1683 1.429 . S
C1689 C1690 1.523 . S
C1690 C1671 1.368 . S
C1690 C1684 1.368 . S
C1690 C1689 1.523 . S
C1691 C1675 1.429 . S
C1691 C1687 1.429 . S
C1691 C1692 1.523 . S
C1692 C1676 1.368 . S
C1692 C1688 1.368 . S
C1692 C1691 1.523 . S
H1693 C1668 0.950 . S
H1694 C1670 0.950 . S
H1695 C1671 0.949 . S
H1696 C1673 0.950 . S
H1697 C1675 0.950 . S
C1698 C1699 1.349 . S
C1698 C1700 1.327 . S
C1698 H1723 0.950 . S
C1699 C1698 1.349 . S
C1699 C1715 1.349 . S
C1700 C1698 1.327 . S
C1700 C1719 1.429 . S
C1700 H1724 0.950 . S
C1701 C1718 1.574 1_655 S
C1701 C1720 1.368 . S
C1701 H1725 0.949 . S
H1702 C1706 0.949 . S
C1703 C1704 1.349 . S
C1703 C1705 1.327 . S
C1703 H1726 0.950 . S
C1704 C1703 1.349 . S
C1704 C1716 1.349 . S
C1705 C1703 1.327 . S
C1705 C1721 1.429 . S
C1705 H1727 0.950 . S
C1706 H1702 0.949 . S
C1706 C1714 1.574 1_455 S
C1706 C1722 1.368 . S
H1707 C1715 0.950 . S
H1708 C1713 0.950 . S
H1709 C1714 0.949 . S
H1710 C1716 0.950 . S
H1711 C1717 0.950 . S
H1712 C1718 0.949 . S
C1713 H1708 0.950 . S
C1713 C1715 1.327 . S
C1713 C1719 1.429 . S
C1714 C1706 1.574 1_655 S
C1714 H1709 0.949 . S
C1714 C1720 1.368 . S
C1715 C1699 1.349 . S
C1715 H1707 0.950 . S
C1715 C1713 1.327 . S
C1716 C1704 1.349 . S
C1716 H1710 0.950 . S
C1716 C1717 1.327 . S
C1717 H1711 0.950 . S
C1717 C1716 1.327 . S
C1717 C1721 1.429 . S
C1718 C1701 1.574 1_455 S
C1718 H1712 0.949 . S
C1718 C1722 1.368 . S
C1719 C1700 1.429 . S
C1719 C1713 1.429 . S
C1719 C1720 1.523 . S
C1720 C1701 1.368 . S
C1720 C1714 1.368 . S
C1720 C1719 1.523 . S
C1721 C1705 1.429 . S
C1721 C1717 1.429 . S
C1721 C1722 1.523 . S
C1722 C1706 1.368 . S
C1722 C1718 1.368 . S
C1722 C1721 1.523 . S
H1723 C1698 0.950 . S
H1724 C1700 0.950 . S
H1725 C1701 0.949 . S
H1726 C1703 0.950 . S
H1727 C1705 0.950 . S
C529 C337 1.213 . S
C534 C7 1.213 . S
C559 C370 1.213 . S
C564 C40 1.213 . S
C589 C271 1.213 . S
C594 C73 1.213 . S
C619 C304 1.213 . S
C624 C106 1.213 . S
C649 C139 1.213 . S
C654 C469 1.213 . S
C679 C172 1.213 . S
C684 C502 1.213 . S
C709 C403 1.213 . S
C714 C205 1.213 . S
C739 C436 1.213 . S
C744 C238 1.213 . S
C769 C120 1.519 . S
C774 N2 1.445 . S
C799 N35 1.445 . S
C804 C21 1.519 . S
C829 C54 1.519 . S
C834 N68 1.445 . S
C859 N101 1.445 . S
C864 C87 1.519 . S
C889 C186 1.498 . S
C894 N134 1.445 . S
C919 C219 1.498 . S
C924 N167 1.445 . S
C949 C252 1.498 . S
C954 N200 1.445 . S
C979 N233 1.445 . S
C984 C153 1.498 . S
C1009 N266 1.445 . S
C1014 C384 1.519 . S
C1039 N299 1.445 . S
C1044 C285 1.519 . S
C1069 C318 1.519 . S
C1074 N332 1.445 . S
C1099 N365 1.445 . S
C1104 C351 1.519 . S
C1129 N398 1.445 . S
C1134 C450 1.498 . S
C1159 N431 1.445 . S
C1164 C483 1.498 . S
C1189 N464 1.445 . S
C1194 C516 1.498 . S
C1219 C417 1.498 . S
C1224 N497 1.445 . S
C1249 C249 0.900 . S
C1254 C18 0.900 . S
C1279 C51 0.900 . S
C1284 C150 0.900 . S
C1309 C183 0.900 . S
C1314 C84 0.900 . S
C1339 C216 0.900 . S
C1344 C117 0.900 . S
C1369 C282 0.900 . S
C1374 C513 0.900 . S
C1399 C414 0.900 . S
C1404 C315 0.900 . S
C1429 C348 0.900 . S
C1434 C447 0.900 . S
C1459 C480 0.900 . S
C1464 C381 0.900 . S
C1489 N79 1.583 . S
C1494 N13 1.583 . S
C1519 N112 1.583 . S
C1524 N46 1.583 . S
C1549 N145 1.583 . S
C1554 N211 1.583 . S
C1579 N178 1.583 . S
C1584 N244 1.583 . S
C1609 N277 1.583 . S
C1614 N343 1.583 . S
C1639 N376 1.583 . S
C1644 N310 1.583 . S
C1669 N409 1.583 . S
C1674 N475 1.583 . S
C1699 N508 1.583 . S
C1704 N442 1.583 . S
