# Generated by pormake.
# Topology wiz, (3)-cn, num edge types: 1
# Building blocks:
#     Node 0, Type 0, BuildingBlock: OLANEW_clean_sbu_2, # of connection points: 3
#     Node 1, Type 0, BuildingBlock: OLANEW_clean_sbu_2, # of connection points: 3
#     Node 2, Type 0, BuildingBlock: OLANEW_clean_sbu_2, # of connection points: 3
#     Node 3, Type 0, BuildingBlock: OLANEW_clean_sbu_2, # of connection points: 3
#     Node 4, Type 0, BuildingBlock: OLANEW_clean_sbu_2, # of connection points: 3
#     Node 5, Type 0, BuildingBlock: OLANEW_clean_sbu_2, # of connection points: 3
#     Node 6, Type 0, BuildingBlock: OLANEW_clean_sbu_2, # of connection points: 3
#     Node 7, Type 0, BuildingBlock: OLANEW_clean_sbu_2, # of connection points: 3
#     Node 8, Type 0, BuildingBlock: OLANEW_clean_sbu_2, # of connection points: 3
#     Node 9, Type 0, BuildingBlock: OLANEW_clean_sbu_2, # of connection points: 3
#     Node 10, Type 0, BuildingBlock: OLANEW_clean_sbu_2, # of connection points: 3
#     Node 11, Type 0, BuildingBlock: OLANEW_clean_sbu_2, # of connection points: 3
#     Edge 12, Type (0, 0), BuildingBlock: XUDNAN_clean_linker_2, # of connection points: 2
#     Edge 13, Type (0, 0), BuildingBlock: XUDNAN_clean_linker_2, # of connection points: 2
#     Edge 14, Type (0, 0), BuildingBlock: XUDNAN_clean_linker_2, # of connection points: 2
#     Edge 15, Type (0, 0), BuildingBlock: XUDNAN_clean_linker_2, # of connection points: 2
#     Edge 16, Type (0, 0), BuildingBlock: XUDNAN_clean_linker_2, # of connection points: 2
#     Edge 17, Type (0, 0), BuildingBlock: XUDNAN_clean_linker_2, # of connection points: 2
#     Edge 18, Type (0, 0), BuildingBlock: XUDNAN_clean_linker_2, # of connection points: 2
#     Edge 19, Type (0, 0), BuildingBlock: XUDNAN_clean_linker_2, # of connection points: 2
#     Edge 20, Type (0, 0), BuildingBlock: XUDNAN_clean_linker_2, # of connection points: 2
#     Edge 21, Type (0, 0), BuildingBlock: XUDNAN_clean_linker_2, # of connection points: 2
#     Edge 22, Type (0, 0), BuildingBlock: XUDNAN_clean_linker_2, # of connection points: 2
#     Edge 23, Type (0, 0), BuildingBlock: XUDNAN_clean_linker_2, # of connection points: 2
#     Edge 24, Type (0, 0), BuildingBlock: XUDNAN_clean_linker_2, # of connection points: 2
#     Edge 25, Type (0, 0), BuildingBlock: XUDNAN_clean_linker_2, # of connection points: 2
#     Edge 26, Type (0, 0), BuildingBlock: XUDNAN_clean_linker_2, # of connection points: 2
#     Edge 27, Type (0, 0), BuildingBlock: XUDNAN_clean_linker_2, # of connection points: 2
#     Edge 28, Type (0, 0), BuildingBlock: XUDNAN_clean_linker_2, # of connection points: 2
#     Edge 29, Type (0, 0), BuildingBlock: XUDNAN_clean_linker_2, # of connection points: 2
# Relax obj value: 0.000
# Max RMSD: 0.046
# Mean RMSD: 0.046
data_MOF--net-wiz--node1-OLANEW_clean_sbu_2--edge1-XUDNAN_clean_linker_2
_symmetry_space_group_name_H-M    P1
_symmetry_Int_Tables_number       1
_symmetry_cell_setting            triclinic
loop_
_symmetry_equiv_pos_as_xyz
'x, y, z'
_cell_length_a     34.676906
_cell_length_b     34.636777
_cell_length_c     74.362095
_cell_angle_alpha  90.015409
_cell_angle_beta   89.905331
_cell_angle_gamma 120.12498
loop_
_atom_site_label
_atom_site_type_symbol
_atom_site_fract_x
_atom_site_fract_y
_atom_site_fract_z
_atom_type_partial_charge
O0 O 0.159 0.48178 0.07015 0.0
Cd1 Cd 0.14277 0.49789 0.10044 0.0
O2 O 0.22188 0.49005 0.0803 0.0
Cd3 Cd 0.28585 0.4919 0.07944 0.0
O4 O 0.35331 0.5028 0.07737 0.0
C5 C 0.38507 0.54136 0.0732 0.0
O6 O 0.37627 0.57353 0.0702 0.0
C7 C 0.19577 0.48316 0.06713 0.0
C8 C 0.0832 0.42415 0.12089 0.0
O9 O 0.06924 0.44337 0.11013 0.0
O10 O 0.12531 0.43916 0.12168 0.0
O11 O 0.80039 0.20393 0.40779 0.0
Cd12 Cd 0.80944 0.22557 0.43956 0.0
O13 O 0.86982 0.21929 0.40484 0.0
Cd14 Cd 0.89046 0.2564 0.4301 0.0
O15 O 0.92266 0.32157 0.44331 0.0
C16 C 0.9596 0.33696 0.45153 0.0
O17 O 0.97762 0.31166 0.45332 0.0
C18 C 0.83093 0.20382 0.39832 0.0
C19 C 0.79351 0.15456 0.4622 0.0
O20 O 0.76183 0.16143 0.45761 0.0
O21 O 0.83266 0.18127 0.45609 0.0
O22 O 0.55621 0.70579 0.73373 0.0
Cd23 Cd 0.52654 0.68495 0.7644 0.0
O24 O 0.57451 0.77256 0.74313 0.0
Cd25 Cd 0.59954 0.84428 0.74143 0.0
O26 O 0.59959 0.907 0.73921 0.0
C27 C 0.56228 0.90347 0.73535 0.0
O28 O 0.52771 0.86346 0.73277 0.0
C29 C 0.57186 0.74697 0.73031 0.0
C30 C 0.56964 0.65686 0.78818 0.0
O31 O 0.5349 0.6284 0.77956 0.0
O32 O 0.58476 0.69844 0.78511 0.0
O33 O 0.81163 0.46677 0.06697 0.0
Cd34 Cd 0.82698 0.44597 0.09646 0.0
O35 O 0.79085 0.51108 0.07929 0.0
Cd36 Cd 0.75803 0.55067 0.07714 0.0
O37 O 0.70751 0.57021 0.0744 0.0
C38 C 0.66708 0.53901 0.07506 0.0
O39 O 0.65842 0.49778 0.0773 0.0
C40 C 0.79706 0.4937 0.06534 0.0
C41 C 0.85763 0.51366 0.12221 0.0
O42 O 0.88496 0.50894 0.1121 0.0
O43 O 0.81581 0.48679 0.11995 0.0
O44 O 0.19698 0.80812 0.40219 0.0
Cd45 Cd 0.1904 0.78742 0.43404 0.0
O46 O 0.12464 0.76846 0.39754 0.0
Cd47 Cd 0.10972 0.73392 0.4234 0.0
O48 O 0.08327 0.67122 0.43826 0.0
C49 C 0.10836 0.66056 0.44674 0.0
O50 O 0.15128 0.68943 0.44772 0.0
C51 C 0.16366 0.79554 0.3918 0.0
C52 C 0.23725 0.86135 0.45655 0.0
O53 O 0.25597 0.84071 0.44988 0.0
O54 O 0.19636 0.84716 0.45253 0.0
O55 O 0.30595 0.20215 0.74072 0.0
Cd56 Cd 0.29025 0.19678 0.77311 0.0
O57 O 0.34034 0.16542 0.74697 0.0
Cd58 Cd 0.37939 0.13337 0.74085 0.0
O59 O 0.41699 0.09905 0.73694 0.0
C60 C 0.4593 0.1202 0.73783 0.0
O61 O 0.48037 0.16339 0.74087 0.0
C62 C 0.32636 0.18239 0.73532 0.0
C63 C 0.3114 0.27449 0.79211 0.0
O64 O 0.33908 0.26026 0.79119 0.0
O65 O 0.27458 0.25296 0.78349 0.0
O66 O 0.62728 0.81521 0.58963 0.0
Cd67 Cd 0.62917 0.80617 0.55698 0.0
O68 O 0.63537 0.7573 0.59524 0.0
Cd69 Cd 0.62952 0.73465 0.56746 0.0
O70 O 0.59775 0.67452 0.55092 0.0
C71 C 0.56166 0.66307 0.54254 0.0
O72 O 0.54561 0.6903 0.54244 0.0
C73 C 0.63152 0.78988 0.60086 0.0
C74 C 0.67821 0.88669 0.53832 0.0
O75 O 0.63632 0.86996 0.54112 0.0
O76 O 0.69693 0.86562 0.54452 0.0
O77 O 0.67789 0.47151 0.93494 0.0
Cd78 Cd 0.66326 0.45109 0.90309 0.0
O79 O 0.74754 0.51724 0.92744 0.0
Cd80 Cd 0.81791 0.55646 0.93476 0.0
O81 O 0.88633 0.57243 0.93995 0.0
C82 C 0.90381 0.55864 0.92845 0.0
O83 O 0.88064 0.53748 0.91414 0.0
C84 C 0.71769 0.49931 0.93949 0.0
C85 C 0.65378 0.51054 0.88076 0.0
O86 O 0.6195 0.47634 0.88739 0.0
O87 O 0.69243 0.51719 0.88506 0.0
O88 O 0.10154 0.81997 0.25765 0.0
Cd89 Cd 0.0828 0.83344 0.22741 0.0
O90 O 0.16821 0.87682 0.25272 0.0
Cd91 Cd 0.23653 0.9283 0.2593 0.0
O92 O 0.30752 0.97107 0.2648 0.0
C93 C 0.33285 0.95464 0.26298 0.0
O94 O 0.31532 0.91276 0.25799 0.0
C95 C 0.14096 0.84607 0.26318 0.0
C96 C 0.02173 0.75747 0.20848 0.0
O97 O 0.06377 0.77254 0.20712 0.0
O98 O 0.00859 0.77777 0.21908 0.0
O99 O 0.35617 0.17505 0.59191 0.0
Cd100 Cd 0.36612 0.19236 0.55967 0.0
O101 O 0.36529 0.24089 0.59888 0.0
Cd102 Cd 0.38048 0.26955 0.57186 0.0
O103 O 0.41181 0.32929 0.55502 0.0
C104 C 0.3892 0.34222 0.54604 0.0
O105 O 0.34556 0.31708 0.54572 0.0
C106 C 0.35753 0.2024 0.60367 0.0
C107 C 0.34926 0.11942 0.53804 0.0
O108 O 0.38821 0.1454 0.54445 0.0
O109 O 0.31809 0.12765 0.54199 0.0
O110 O 0.36624 0.5117 0.94763 0.0
Cd111 Cd 0.41536 0.54221 0.9213 0.0
O112 O 0.32058 0.53028 0.93511 0.0
Cd113 Cd 0.26364 0.54101 0.93676 0.0
O114 O 0.209 0.55414 0.94126 0.0
C115 C 0.17883 0.54309 0.92945 0.0
O116 O 0.18111 0.52376 0.9146 0.0
C117 C 0.33062 0.51364 0.94829 0.0
C118 C 0.38588 0.48933 0.89037 0.0
O119 O 0.41274 0.48631 0.90134 0.0
O120 O 0.37248 0.51678 0.89418 0.0
O121 O 0.88253 0.14414 0.26712 0.0
Cd122 Cd 0.89765 0.12253 0.23772 0.0
O123 O 0.81193 0.11076 0.25981 0.0
Cd124 Cd 0.74012 0.0832 0.26369 0.0
O125 O 0.66954 0.0627 0.26595 0.0
C126 C 0.6583 0.09091 0.27076 0.0
O127 O 0.68959 0.13191 0.27451 0.0
C128 C 0.84257 0.13249 0.27127 0.0
C129 C 0.92614 0.18862 0.2113 0.0
O130 O 0.88455 0.16133 0.21397 0.0
O131 O 0.95427 0.18512 0.22134 0.0
H132 H 0.35813 0.53185 0.98318 0.0
H133 H 0.23997 0.46383 0.94997 0.0
H134 H 0.19244 0.4438 0.97716 0.0
H135 H 0.31571 0.45652 0.02209 0.0
H136 H 0.342 0.50123 0.03816 0.0
H137 H 0.36699 0.50656 0.01638 0.0
H138 H 0.36644 0.58004 0.01068 0.0
H139 H 0.34204 0.57532 0.03251 0.0
H140 H 0.31484 0.58045 0.01277 0.0
H141 H 0.15794 0.43438 0.00783 0.0
H142 H 0.13883 0.43896 0.0395 0.0
H143 H 0.2796 0.51852 0.0521 0.0
C144 C 0.32226 0.51204 0.98173 0.0
C145 C 0.30251 0.49918 0.96458 0.0
C146 C 0.25554 0.47412 0.96305 0.0
C147 C 0.22837 0.4624 0.9784 0.0
C148 C 0.2488 0.47625 0.99515 0.0
C149 C 0.29467 0.50074 0.9969 0.0
C150 C 0.30813 0.51444 0.01626 0.0
C151 C 0.33478 0.49343 0.02365 0.0
C152 C 0.33439 0.56559 0.01816 0.0
C153 C 0.26267 0.49437 0.02508 0.0
C154 C 0.22891 0.47186 0.01273 0.0
C155 C 0.18413 0.45157 0.01765 0.0
C156 C 0.17361 0.45448 0.03565 0.0
C157 C 0.20769 0.47779 0.04851 0.0
C158 C 0.25274 0.49822 0.043 0.0
H159 H 0.8898 0.1444 0.30217 0.0
H160 H 0.77431 0.1467 0.28132 0.0
H161 H 0.75537 0.15919 0.31194 0.0
H162 H 0.84339 0.09162 0.34469 0.0
H163 H 0.89397 0.12604 0.35706 0.0
H164 H 0.89673 0.11426 0.33364 0.0
H165 H 0.94238 0.19902 0.32678 0.0
H166 H 0.94003 0.21105 0.35018 0.0
H167 H 0.9204 0.23439 0.33329 0.0
H168 H 0.7491 0.17125 0.34504 0.0
H169 H 0.75997 0.18955 0.37742 0.0
H170 H 0.88279 0.18495 0.37622 0.0
C171 C 0.86041 0.14736 0.30405 0.0
C172 C 0.83228 0.14246 0.28944 0.0
C173 C 0.79474 0.14754 0.29242 0.0
C174 C 0.78413 0.15535 0.30976 0.0
C175 C 0.81193 0.15885 0.32393 0.0
C176 C 0.84969 0.1557 0.32122 0.0
C177 C 0.87537 0.16311 0.33855 0.0
C178 C 0.87747 0.12126 0.34379 0.0
C179 C 0.92232 0.20435 0.33711 0.0
C180 C 0.84624 0.17109 0.35143 0.0
C181 C 0.80953 0.16796 0.34279 0.0
C182 C 0.77779 0.1739 0.35194 0.0
C183 C 0.78416 0.1841 0.37035 0.0
C184 C 0.82227 0.18878 0.37936 0.0
C185 C 0.85338 0.18171 0.36973 0.0
H186 H 0.60294 0.71489 0.70367 0.0
H187 H 0.56505 0.81448 0.71427 0.0
H188 H 0.58442 0.84188 0.6832 0.0
H189 H 0.69435 0.78055 0.67204 0.0
H190 H 0.67998 0.73339 0.65763 0.0
H191 H 0.66829 0.72504 0.68138 0.0
H192 H 0.58511 0.66936 0.67454 0.0
H193 H 0.59656 0.67748 0.65081 0.0
H194 H 0.55431 0.68687 0.66052 0.0
H195 H 0.60336 0.85552 0.65035 0.0
H196 H 0.61631 0.85137 0.61791 0.0
H197 H 0.63861 0.74068 0.62822 0.0
C198 C 0.5995 0.74298 0.69952 0.0
C199 C 0.58458 0.764 0.71171 0.0
C200 C 0.57914 0.79972 0.7056 0.0
C201 C 0.58942 0.81509 0.68783 0.0
C202 C 0.60459 0.79404 0.67621 0.0
C203 C 0.60932 0.75854 0.68176 0.0
C204 C 0.62291 0.73956 0.66624 0.0
C205 C 0.66913 0.74498 0.66952 0.0
C206 C 0.58761 0.69042 0.66283 0.0
C207 C 0.62426 0.7694 0.65107 0.0
C208 C 0.61409 0.80094 0.65713 0.0
C209 C 0.61168 0.83116 0.64546 0.0
C210 C 0.61914 0.82859 0.62705 0.0
C211 C 0.62855 0.79579 0.62047 0.0
C212 C 0.63177 0.76636 0.63278 0.0
H213 H 0.75111 0.43438 0.0386 0.0
H214 H 0.81918 0.57526 0.05172 0.0
H215 H 0.80426 0.5924 0.02103 0.0
H216 H 0.78714 0.44408 0.99336 0.0
H217 H 0.73464 0.39991 0.98501 0.0
H218 H 0.75028 0.39898 0.008 0.0
H219 H 0.67691 0.39404 0.01893 0.0
H220 H 0.66099 0.39492 0.99595 0.0
H221 H 0.66356 0.43566 0.01173 0.0
H222 H 0.78807 0.59421 0.98799 0.0
H223 H 0.76444 0.57994 0.95606 0.0
H224 H 0.70032 0.43752 0.96555 0.0
C225 C 0.76263 0.46877 0.03498 0.0
C226 C 0.7863 0.50361 0.04739 0.0
C227 C 0.80068 0.54819 0.04235 0.0
C228 C 0.7925 0.55819 0.02497 0.0
C229 C 0.76916 0.52306 0.01297 0.0
C230 C 0.75374 0.47918 0.01786 0.0
C231 C 0.7288 0.44755 0.00257 0.0
C232 C 0.75159 0.42109 0.9969 0.0
C233 C 0.67965 0.4162 0.00759 0.0
C234 C 0.73342 0.48051 0.98817 0.0
C235 C 0.75723 0.52396 0.99437 0.0
C236 C 0.76861 0.56032 0.9831 0.0
C237 C 0.7552 0.55199 0.96504 0.0
C238 C 0.73 0.50773 0.9586 0.0
C239 C 0.71868 0.47162 0.97034 0.0
H240 H 0.08655 0.81353 0.29258 0.0
H241 H 0.22362 0.86587 0.2756 0.0
H242 H 0.2453 0.86329 0.30696 0.0
H243 H 0.10816 0.86847 0.33528 0.0
H244 H 0.06366 0.82115 0.34672 0.0
H245 H 0.05928 0.82901 0.32303 0.0
H246 H 0.04664 0.74995 0.31653 0.0
H247 H 0.05062 0.74172 0.34021 0.0
H248 H 0.08664 0.73522 0.32452 0.0
H249 H 0.25202 0.85586 0.34044 0.0
H250 H 0.24218 0.83751 0.37285 0.0
H251 H 0.0998 0.78547 0.36752 0.0
C252 C 0.12115 0.82448 0.29546 0.0
C253 C 0.15379 0.84179 0.28174 0.0
C254 C 0.19852 0.85498 0.28601 0.0
C255 C 0.21103 0.85299 0.30377 0.0
C256 C 0.17823 0.83694 0.31706 0.0
C257 C 0.13408 0.82227 0.31307 0.0
C258 C 0.105 0.80476 0.32967 0.0
C259 C 0.08272 0.83252 0.33392 0.0
C260 C 0.07018 0.75496 0.32761 0.0
C261 C 0.13969 0.81194 0.34365 0.0
C262 C 0.18178 0.83088 0.33614 0.0
C263 C 0.21919 0.84086 0.34645 0.0
C264 C 0.21328 0.83049 0.36487 0.0
C265 C 0.17023 0.80997 0.37274 0.0
C266 C 0.13314 0.80103 0.36193 0.0
H267 H 0.35549 0.25246 0.63184 0.0
H268 H 0.34591 0.12542 0.61939 0.0
H269 H 0.33802 0.10696 0.65179 0.0
H270 H 0.41953 0.27472 0.6722 0.0
H271 H 0.39138 0.29934 0.68375 0.0
H272 H 0.39602 0.3024 0.6596 0.0
H273 H 0.31017 0.26531 0.65688 0.0
H274 H 0.30527 0.2623 0.68101 0.0
H275 H 0.27498 0.21239 0.66772 0.0
H276 H 0.33119 0.10255 0.68559 0.0
H277 H 0.32386 0.11146 0.71812 0.0
H278 H 0.33877 0.24175 0.70848 0.0
C279 C 0.35164 0.22066 0.63587 0.0
C280 C 0.35135 0.19037 0.62302 0.0
C281 C 0.34618 0.14913 0.62894 0.0
C282 C 0.34176 0.13841 0.64732 0.0
C283 C 0.3425 0.16921 0.6596 0.0
C284 C 0.34712 0.20941 0.65412 0.0
C285 C 0.34662 0.2366 0.66999 0.0
C286 C 0.39103 0.28088 0.67147 0.0
C287 C 0.30689 0.2446 0.66882 0.0
C288 C 0.34094 0.2054 0.68531 0.0
C289 C 0.33883 0.1668 0.67904 0.0
C290 C 0.33333 0.13286 0.69066 0.0
C291 C 0.32985 0.13851 0.70915 0.0
C292 C 0.33214 0.17788 0.71587 0.0
C293 C 0.3374 0.21153 0.70373 0.0
H294 H 0.57759 0.47986 0.07799 0.0
H295 H 0.6731 0.61999 0.06877 0.0
H296 H 0.61118 0.63573 0.06658 0.0
H297 H 0.49271 0.47221 0.04774 0.0
H298 H 0.44737 0.43493 0.06218 0.0
H299 H 0.49919 0.43469 0.06257 0.0
H300 H 0.50535 0.44919 0.09693 0.0
H301 H 0.45357 0.44947 0.09665 0.0
H302 H 0.50311 0.49666 0.10558 0.0
H303 H 0.53855 0.63608 0.06572 0.0
H304 H 0.4611 0.62133 0.06687 0.0
H305 H 0.41378 0.48106 0.07696 0.0
C306 C 0.58558 0.51387 0.07544 0.0
C307 C 0.63022 0.5487 0.07353 0.0
C308 C 0.63916 0.59275 0.07028 0.0
C309 C 0.60422 0.60202 0.06899 0.0
C310 C 0.5606 0.56687 0.07098 0.0
C311 C 0.55122 0.5237 0.07416 0.0
C312 C 0.50159 0.49203 0.07614 0.0
C313 C 0.4842 0.45637 0.06127 0.0
C314 C 0.49026 0.47059 0.09494 0.0
C315 C 0.48448 0.52417 0.0737 0.0
C316 C 0.51897 0.56714 0.07065 0.0
C317 C 0.51128 0.60255 0.06809 0.0
C318 C 0.46716 0.59383 0.06876 0.0
C319 C 0.43136 0.55007 0.07204 0.0
C320 C 0.44036 0.51489 0.07446 0.0
H321 H 0.93671 0.40081 0.44525 0.0
H322 H 0.04018 0.38146 0.46887 0.0
H323 H 0.08635 0.46276 0.47378 0.0
H324 H 0.00655 0.49424 0.42076 0.0
H325 H 0.97503 0.52225 0.42374 0.0
H326 H 0.9473 0.46238 0.42478 0.0
H327 H 0.91664 0.46366 0.45646 0.0
H328 H 0.94417 0.52371 0.45548 0.0
H329 H 0.95476 0.49678 0.47401 0.0
H330 H 0.12499 0.54669 0.47251 0.0
H331 H 0.15265 0.62591 0.46517 0.0
H332 H 0.02369 0.5899 0.44241 0.0
C333 C 0.96857 0.41345 0.4519 0.0
C334 C 0.98473 0.38468 0.45674 0.0
C335 C 0.02697 0.40278 0.46511 0.0
C336 C 0.05341 0.44893 0.46801 0.0
C337 C 0.03699 0.47649 0.46258 0.0
C338 C 0.99536 0.45934 0.45483 0.0
C339 C 0.98702 0.49618 0.4487 0.0
C340 C 0.9785 0.49359 0.42829 0.0
C341 C 0.94835 0.49501 0.4593 0.0
C342 C 0.0311 0.53677 0.45358 0.0
C343 C 0.05928 0.52481 0.46181 0.0
C344 C 0.10294 0.55649 0.46635 0.0
C345 C 0.11839 0.60142 0.4621 0.0
C346 C 0.09032 0.61421 0.45328 0.0
C347 C 0.04585 0.58139 0.44936 0.0
H348 H 0.42531 0.03098 0.73156 0.0
H349 H 0.54959 0.15452 0.74082 0.0
H350 H 0.59044 0.11313 0.73973 0.0
H351 H 0.44924 0.96244 0.7588 0.0
H352 H 0.42264 0.91457 0.74418 0.0
H353 H 0.40376 0.95439 0.74456 0.0
H354 H 0.41629 0.96571 0.71013 0.0
H355 H 0.43514 0.92581 0.70964 0.0
H356 H 0.47022 0.98125 0.70083 0.0
H357 H 0.61704 0.05721 0.73929 0.0
H358 H 0.62716 0.99143 0.73922 0.0
H359 H 0.48527 0.90533 0.73003 0.0
C360 C 0.46117 0.0495 0.73319 0.0
C361 C 0.48424 0.09602 0.73627 0.0
C362 C 0.53118 0.11888 0.73842 0.0
C363 C 0.55469 0.09567 0.7378 0.0
C364 C 0.5308 0.04972 0.73494 0.0
C365 C 0.4851 0.02694 0.73259 0.0
C366 C 0.46701 0.97739 0.73029 0.0
C367 C 0.43371 0.95064 0.74536 0.0
C368 C 0.44593 0.96163 0.71161 0.0
C369 C 0.50957 0.97569 0.73202 0.0
C370 C 0.54607 0.01772 0.73461 0.0
C371 C 0.58874 0.02418 0.73713 0.0
C372 C 0.59415 0.98663 0.7371 0.0
C373 C 0.55704 0.94325 0.73459 0.0
C374 C 0.51437 0.93802 0.73188 0.0
H375 H 0.47739 0.40605 0.54837 0.0
H376 H 0.3506 0.3827 0.52755 0.0
H377 H 0.38533 0.4625 0.51961 0.0
H378 H 0.50533 0.50265 0.56994 0.0
H379 H 0.56433 0.5303 0.56537 0.0
H380 H 0.53227 0.47043 0.56595 0.0
H381 H 0.55892 0.46677 0.53374 0.0
H382 H 0.59138 0.52687 0.53308 0.0
H383 H 0.55088 0.49694 0.51577 0.0
H384 H 0.43037 0.54623 0.51865 0.0
H385 H 0.48157 0.62619 0.52481 0.0
H386 H 0.57886 0.59453 0.54614 0.0
C387 C 0.45719 0.41735 0.54161 0.0
C388 C 0.41128 0.38804 0.53853 0.0
C389 C 0.38589 0.40443 0.52997 0.0
C390 C 0.40538 0.44973 0.52535 0.0
C391 C 0.45039 0.47808 0.5292 0.0
C392 C 0.47608 0.46238 0.53698 0.0
C393 C 0.52217 0.50023 0.54163 0.0
C394 C 0.53152 0.50093 0.56192 0.0
C395 C 0.55795 0.49753 0.53038 0.0
C396 C 0.5177 0.53984 0.53612 0.0
C397 C 0.47639 0.52644 0.52865 0.0
C398 C 0.46315 0.55713 0.52412 0.0
C399 C 0.49245 0.60251 0.52771 0.0
C400 C 0.53433 0.61671 0.53589 0.0
C401 C 0.54741 0.58492 0.53963 0.0
H402 H 0.1085 0.52238 0.90698 0.0
H403 H 0.16455 0.58287 0.95864 0.0
H404 H 0.10166 0.59612 0.96363 0.0
H405 H 0.06731 0.59641 0.89494 0.0
H406 H 0.01762 0.55281 0.88446 0.0
H407 H 0.06776 0.54938 0.88477 0.0
H408 H 0.02475 0.47176 0.90009 0.0
H409 H 0.9745 0.47491 0.8998 0.0
H410 H 0.99486 0.46576 0.92073 0.0
H411 H 0.03136 0.60113 0.96321 0.0
H412 H 0.95874 0.5962 0.95762 0.0
H413 H 0.94942 0.53234 0.90629 0.0
C414 C 0.10775 0.53861 0.91932 0.0
C415 C 0.14152 0.55164 0.93241 0.0
C416 C 0.13909 0.57262 0.9484 0.0
C417 C 0.10354 0.58036 0.95135 0.0
C418 C 0.07076 0.56699 0.93817 0.0
C419 C 0.07258 0.54656 0.92248 0.0
C420 C 0.03269 0.53448 0.91061 0.0
C421 C 0.04723 0.55979 0.89263 0.0
C422 C 0.00507 0.48372 0.90764 0.0
C423 C 0.00787 0.55088 0.92216 0.0
C424 C 0.03042 0.56975 0.93795 0.0
C425 C 0.01349 0.58656 0.95085 0.0
C426 C 0.97224 0.58364 0.94755 0.0
C427 C 0.94838 0.56392 0.93152 0.0
C428 C 0.9668 0.5477 0.91866 0.0
H429 H 0.39627 0.93035 0.25848 0.0
H430 H 0.37946 0.04174 0.27428 0.0
H431 H 0.4608 0.08824 0.27877 0.0
H432 H 0.48451 0.95184 0.28981 0.0
H433 H 0.51361 0.93572 0.27414 0.0
H434 H 0.45396 0.91093 0.27268 0.0
H435 H 0.46144 0.936 0.2394 0.0
H436 H 0.52107 0.96087 0.24076 0.0
H437 H 0.49706 0.99408 0.23379 0.0
H438 H 0.54423 0.12302 0.28089 0.0
H439 H 0.6235 0.14365 0.2803 0.0
H440 H 0.58535 0.00938 0.26299 0.0
C441 C 0.40958 0.96444 0.26297 0.0
C442 C 0.38145 0.98238 0.26605 0.0
C443 C 0.40033 0.02724 0.27184 0.0
C444 C 0.44649 0.05391 0.27445 0.0
C445 C 0.47325 0.03521 0.27121 0.0
C446 C 0.4555 0.99151 0.26561 0.0
C447 C 0.49158 0.97969 0.26272 0.0
C448 C 0.48554 0.94234 0.27561 0.0
C449 C 0.49285 0.96692 0.24299 0.0
C450 C 0.53248 0.02368 0.26746 0.0
C451 C 0.52122 0.05524 0.27238 0.0
C452 C 0.55344 0.09854 0.27711 0.0
C453 C 0.59839 0.10993 0.27672 0.0
C454 C 0.6107 0.07816 0.27161 0.0
C455 C 0.57711 0.03444 0.267 0.0
H456 H 0.01213 0.24706 0.20076 0.0
H457 H 0.87435 0.20653 0.18893 0.0
H458 H 0.89942 0.26168 0.16427 0.0
H459 H 0.05787 0.36438 0.19214 0.0
H460 H 0.10834 0.37131 0.18213 0.0
H461 H 0.07943 0.32887 0.19892 0.0
H462 H 0.07499 0.26887 0.17684 0.0
H463 H 0.1037 0.31109 0.15995 0.0
H464 H 0.05013 0.26315 0.15501 0.0
H465 H 0.9396 0.32141 0.14089 0.0
H466 H 0.99195 0.38174 0.1207 0.0
H467 H 0.10334 0.38239 0.14758 0.0
C468 C 0.98719 0.24985 0.19304 0.0
C469 C 0.94124 0.22249 0.19681 0.0
C470 C 0.90972 0.22712 0.18631 0.0
C471 C 0.92363 0.25833 0.17226 0.0
C472 C 0.96916 0.28458 0.16884 0.0
C473 C 0.00047 0.2807 0.17894 0.0
C474 C 0.04736 0.31279 0.17246 0.0
C475 C 0.07485 0.34632 0.18729 0.0
C476 C 0.07038 0.28745 0.16566 0.0
C477 C 0.03754 0.33538 0.15715 0.0
C478 C 0.99225 0.31866 0.15529 0.0
C479 C 0.97514 0.33471 0.1422 0.0
C480 C 0.00515 0.36896 0.13079 0.0
C481 C 0.05175 0.38673 0.13251 0.0
C482 C 0.06793 0.36939 0.14584 0.0
H483 H 0.64699 0.93661 0.5218 0.0
H484 H 0.76783 0.93138 0.5312 0.0
H485 H 0.81066 -0.0 0.51322 0.0
H486 H 0.67089 0.97381 0.47624 0.0
H487 H 0.64741 0.00979 0.47789 0.0
H488 H 0.62647 0.96107 0.49199 0.0
H489 H 0.64254 0.0104 0.52033 0.0
H490 H 0.66345 0.05928 0.50631 0.0
H491 H 0.69789 0.05696 0.52392 0.0
H492 H 0.84011 0.06836 0.49368 0.0
H493 H 0.85406 0.13159 0.47405 0.0
H494 H 0.71395 0.09206 0.4773 0.0
C495 C 0.68251 0.95001 0.52018 0.0
C496 C 0.70406 0.9286 0.52795 0.0
C497 C 0.75056 0.94716 0.52541 0.0
C498 C 0.7752 0.98615 0.51521 0.0
C499 C 0.75288 0.00623 0.50765 0.0
C500 C 0.70759 0.98886 0.51002 0.0
C501 C 0.69153 0.0165 0.50021 0.0
C502 C 0.65704 0.98863 0.48572 0.0
C503 C 0.67275 0.037 0.51349 0.0
C504 C 0.73481 0.05198 0.49186 0.0
C505 C 0.76982 0.04553 0.49636 0.0
C506 C 0.81297 0.07381 0.4901 0.0
C507 C 0.82055 0.10963 0.47895 0.0
C508 C 0.78514 0.11685 0.47413 0.0
C509 C 0.74176 0.08754 0.48074 0.0
H510 H 0.53223 0.5766 0.80587 0.0
H511 H 0.65422 0.70467 0.80153 0.0
H512 H 0.68873 0.68154 0.82508 0.0
H513 H 0.53558 0.56808 0.85381 0.0
H514 H 0.51385 0.5087 0.85408 0.0
H515 H 0.49843 0.53349 0.83626 0.0
H516 H 0.52647 0.49936 0.81238 0.0
H517 H 0.5416 0.47345 0.82984 0.0
H518 H 0.58269 0.50939 0.81363 0.0
H519 H 0.7105 0.64386 0.84852 0.0
H520 H 0.71729 0.59506 0.87099 0.0
H521 H 0.57969 0.49326 0.8613 0.0
C522 C 0.56634 0.59961 0.80976 0.0
C523 C 0.59075 0.64231 0.80178 0.0
C524 C 0.635 0.67178 0.80745 0.0
C525 C 0.65486 0.65895 0.82081 0.0
C526 C 0.62978 0.61678 0.82851 0.0
C527 C 0.5864 0.58763 0.82329 0.0
C528 C 0.56637 0.54469 0.83406 0.0
C529 C 0.52618 0.53839 0.84521 0.0
C530 C 0.55354 0.50435 0.82174 0.0
C531 C 0.60547 0.55408 0.84601 0.0
C532 C 0.64177 0.59576 0.84254 0.0
C533 C 0.68221 0.61128 0.85145 0.0
C534 C 0.68576 0.58333 0.86417 0.0
C535 C 0.64896 0.54055 0.86798 0.0
C536 C 0.60823 0.52604 0.85885 0.0
H537 H 0.94437 0.57192 0.13177 0.0
H538 H 0.80768 0.53408 0.14465 0.0
H539 H 0.83467 0.59125 0.16855 0.0
H540 H 0.985 0.5919 0.17728 0.0
H541 H 0.03851 0.63891 0.17144 0.0
H542 H 0.00846 0.59508 0.15531 0.0
H543 H 0.01231 0.65309 0.13229 0.0
H544 H 0.04252 0.69712 0.14832 0.0
H545 H 0.99169 0.68974 0.13857 0.0
H546 H 0.87665 0.65304 0.19089 0.0
H547 H 0.93055 0.71545 0.20981 0.0
H548 H 0.03973 0.71225 0.18253 0.0
C549 C 0.92007 0.57567 0.13958 0.0
C550 C 0.87388 0.54852 0.13631 0.0
C551 C 0.84322 0.55447 0.14689 0.0
C552 C 0.85823 0.58683 0.16051 0.0
C553 C 0.90397 0.61288 0.16342 0.0
C554 C 0.93445 0.60768 0.15326 0.0
C555 C 0.9818 0.64004 0.15908 0.0
C556 C 0.00478 0.61497 0.1662 0.0
C557 C 0.00865 0.67188 0.14365 0.0
C558 C 0.97321 0.66443 0.17405 0.0
C559 C 0.92811 0.64823 0.17636 0.0
C560 C 0.91205 0.66593 0.18923 0.0
C561 C 0.94295 0.70137 0.19992 0.0
C562 C 0.98938 0.71871 0.1977 0.0
C563 C 0.00449 0.69964 0.18464 0.0
H564 H 0.20603 0.91079 0.47355 0.0
H565 H 0.32463 0.89987 0.4669 0.0
H566 H 0.366 0.96433 0.48713 0.0
H567 H 0.26201 0.03075 0.4744 0.0
H568 H 0.22542 0.03274 0.49115 0.0
H569 H 0.20514 0.98571 0.47616 0.0
H570 H 0.18145 0.93213 0.50349 0.0
H571 H 0.20172 0.97901 0.51857 0.0
H572 H 0.22214 0.94049 0.5204 0.0
H573 H 0.39457 0.03014 0.50804 0.0
H574 H 0.4083 0.09263 0.52807 0.0
H575 H 0.27096 0.06038 0.5212 0.0
C576 C 0.24072 0.92194 0.47632 0.0
C577 C 0.26208 0.90023 0.46862 0.0
C578 C 0.30751 0.91591 0.47263 0.0
C579 C 0.33132 0.95251 0.48411 0.0
C580 C 0.30923 0.97307 0.4915 0.0
C581 C 0.26496 0.95838 0.48777 0.0
C582 C 0.24907 0.98636 0.49746 0.0
C583 C 0.23457 0.01031 0.48399 0.0
C584 C 0.21137 0.95778 0.51077 0.0
C585 C 0.29133 0.01911 0.50721 0.0
C586 C 0.32564 0.01088 0.50359 0.0
C587 C 0.36794 0.03688 0.51099 0.0
C588 C 0.3754 0.07231 0.52236 0.0
C589 C 0.34073 0.08143 0.52624 0.0
C590 C 0.29815 0.05427 0.51855 0.0
H591 H 0.3771 0.31574 0.81748 0.0
H592 H 0.26459 0.31872 0.79349 0.0
H593 H 0.27442 0.3774 0.81493 0.0
H594 H 0.35132 0.32559 0.86204 0.0
H595 H 0.40812 0.36056 0.86933 0.0
H596 H 0.39594 0.32267 0.85083 0.0
H597 H 0.45039 0.38828 0.83024 0.0
H598 H 0.46335 0.42571 0.84898 0.0
H599 H 0.44404 0.43666 0.82816 0.0
H600 H 0.29322 0.43204 0.84017 0.0
H601 H 0.31944 0.47855 0.86753 0.0
H602 H 0.41841 0.43851 0.87566 0.0
C603 C 0.35513 0.32941 0.81648 0.0
C604 C 0.32024 0.31283 0.80372 0.0
C605 C 0.29165 0.331 0.80309 0.0
C606 C 0.29701 0.3644 0.8152 0.0
C607 C 0.33112 0.3793 0.82786 0.0
C608 C 0.35983 0.36256 0.82855 0.0
C609 C 0.39191 0.38223 0.84419 0.0
C610 C 0.38647 0.34557 0.85737 0.0
C611 C 0.44028 0.40987 0.83748 0.0
C612 C 0.37604 0.41184 0.85244 0.0
C613 C 0.34133 0.4101 0.84268 0.0
C614 C 0.32058 0.43391 0.84786 0.0
C615 C 0.33566 0.46018 0.86344 0.0
C616 C 0.37086 0.46207 0.87377 0.0
C617 C 0.39133 0.43765 0.86809 0.0
loop_
_geom_bond_atom_site_label_1
_geom_bond_atom_site_label_2
_geom_bond_distance
_geom_bond_site_symmetry_2
_ccdc_geom_bond_type
O0 Cd1 2.300 . S
O0 C7 1.275 . S
Cd1 O0 2.300 . S
Cd1 O9 2.381 . S
Cd1 O10 2.378 . S
O2 Cd3 2.385 . S
O2 C7 1.255 . S
Cd3 O2 2.385 . S
Cd3 O4 2.317 . S
O4 Cd3 2.317 . S
O4 C5 1.232 . S
C5 O4 1.232 . S
C5 O6 1.218 . S
O6 C5 1.218 . S
C7 O0 1.275 . S
C7 O2 1.255 . S
C8 O9 1.258 . S
C8 O10 1.256 . S
O9 Cd1 2.381 . S
O9 C8 1.258 . S
O10 Cd1 2.378 . S
O10 C8 1.256 . S
O11 Cd12 2.300 . S
O11 C18 1.275 . S
Cd12 O11 2.300 . S
Cd12 O20 2.381 . S
Cd12 O21 2.378 . S
O13 Cd14 2.385 . S
O13 C18 1.255 . S
Cd14 O13 2.385 . S
Cd14 O15 2.317 . S
O15 Cd14 2.317 . S
O15 C16 1.232 . S
C16 O15 1.232 . S
C16 O17 1.218 . S
O17 C16 1.218 . S
C18 O11 1.275 . S
C18 O13 1.255 . S
C19 O20 1.258 . S
C19 O21 1.256 . S
O20 Cd12 2.381 . S
O20 C19 1.258 . S
O21 Cd12 2.378 . S
O21 C19 1.256 . S
O22 Cd23 2.300 . S
O22 C29 1.275 . S
Cd23 O22 2.300 . S
Cd23 O31 2.381 . S
Cd23 O32 2.378 . S
O24 Cd25 2.385 . S
O24 C29 1.255 . S
Cd25 O24 2.385 . S
Cd25 O26 2.317 . S
O26 Cd25 2.317 . S
O26 C27 1.232 . S
C27 O26 1.232 . S
C27 O28 1.218 . S
O28 C27 1.218 . S
C29 O22 1.275 . S
C29 O24 1.255 . S
C30 O31 1.258 . S
C30 O32 1.256 . S
O31 Cd23 2.381 . S
O31 C30 1.258 . S
O32 Cd23 2.378 . S
O32 C30 1.256 . S
O33 Cd34 2.300 . S
O33 C40 1.275 . S
Cd34 O33 2.300 . S
Cd34 O42 2.381 . S
Cd34 O43 2.378 . S
O35 Cd36 2.385 . S
O35 C40 1.255 . S
Cd36 O35 2.385 . S
Cd36 O37 2.317 . S
O37 Cd36 2.317 . S
O37 C38 1.232 . S
C38 O37 1.232 . S
C38 O39 1.218 . S
O39 C38 1.218 . S
C40 O33 1.275 . S
C40 O35 1.255 . S
C41 O42 1.258 . S
C41 O43 1.256 . S
O42 Cd34 2.381 . S
O42 C41 1.258 . S
O43 Cd34 2.378 . S
O43 C41 1.256 . S
O44 Cd45 2.300 . S
O44 C51 1.275 . S
Cd45 O44 2.300 . S
Cd45 O53 2.381 . S
Cd45 O54 2.378 . S
O46 Cd47 2.385 . S
O46 C51 1.255 . S
Cd47 O46 2.385 . S
Cd47 O48 2.317 . S
O48 Cd47 2.317 . S
O48 C49 1.232 . S
C49 O48 1.232 . S
C49 O50 1.218 . S
O50 C49 1.218 . S
C51 O44 1.275 . S
C51 O46 1.255 . S
C52 O53 1.258 . S
C52 O54 1.256 . S
O53 Cd45 2.381 . S
O53 C52 1.258 . S
O54 Cd45 2.378 . S
O54 C52 1.256 . S
O55 Cd56 2.300 . S
O55 C62 1.275 . S
Cd56 O55 2.300 . S
Cd56 O64 2.381 . S
Cd56 O65 2.378 . S
O57 Cd58 2.385 . S
O57 C62 1.255 . S
Cd58 O57 2.385 . S
Cd58 O59 2.317 . S
O59 Cd58 2.317 . S
O59 C60 1.232 . S
C60 O59 1.232 . S
C60 O61 1.218 . S
O61 C60 1.218 . S
C62 O55 1.275 . S
C62 O57 1.255 . S
C63 O64 1.258 . S
C63 O65 1.256 . S
O64 Cd56 2.381 . S
O64 C63 1.258 . S
O65 Cd56 2.378 . S
O65 C63 1.256 . S
O66 Cd67 2.300 . S
O66 C73 1.275 . S
Cd67 O66 2.300 . S
Cd67 O75 2.381 . S
Cd67 O76 2.378 . S
O68 Cd69 2.385 . S
O68 C73 1.255 . S
Cd69 O68 2.385 . S
Cd69 O70 2.317 . S
O70 Cd69 2.317 . S
O70 C71 1.232 . S
C71 O70 1.232 . S
C71 O72 1.218 . S
O72 C71 1.218 . S
C73 O66 1.275 . S
C73 O68 1.255 . S
C74 O75 1.258 . S
C74 O76 1.256 . S
O75 Cd67 2.381 . S
O75 C74 1.258 . S
O76 Cd67 2.378 . S
O76 C74 1.256 . S
O77 Cd78 2.300 . S
O77 C84 1.275 . S
Cd78 O77 2.300 . S
Cd78 O86 2.381 . S
Cd78 O87 2.378 . S
O79 Cd80 2.385 . S
O79 C84 1.255 . S
Cd80 O79 2.385 . S
Cd80 O81 2.317 . S
O81 Cd80 2.317 . S
O81 C82 1.232 . S
C82 O81 1.232 . S
C82 O83 1.218 . S
O83 C82 1.218 . S
C84 O77 1.275 . S
C84 O79 1.255 . S
C85 O86 1.258 . S
C85 O87 1.256 . S
O86 Cd78 2.381 . S
O86 C85 1.258 . S
O87 Cd78 2.378 . S
O87 C85 1.256 . S
O88 Cd89 2.300 . S
O88 C95 1.275 . S
Cd89 O88 2.300 . S
Cd89 O97 2.381 . S
Cd89 O98 2.378 . S
O90 Cd91 2.385 . S
O90 C95 1.255 . S
Cd91 O90 2.385 . S
Cd91 O92 2.317 . S
O92 Cd91 2.317 . S
O92 C93 1.232 . S
C93 O92 1.232 . S
C93 O94 1.218 . S
O94 C93 1.218 . S
C95 O88 1.275 . S
C95 O90 1.255 . S
C96 O97 1.258 . S
C96 O98 1.256 . S
O97 Cd89 2.381 . S
O97 C96 1.258 . S
O98 Cd89 2.378 . S
O98 C96 1.256 . S
O99 Cd100 2.300 . S
O99 C106 1.275 . S
Cd100 O99 2.300 . S
Cd100 O108 2.381 . S
Cd100 O109 2.378 . S
O101 Cd102 2.385 . S
O101 C106 1.255 . S
Cd102 O101 2.385 . S
Cd102 O103 2.317 . S
O103 Cd102 2.317 . S
O103 C104 1.232 . S
C104 O103 1.232 . S
C104 O105 1.218 . S
O105 C104 1.218 . S
C106 O99 1.275 . S
C106 O101 1.255 . S
C107 O108 1.258 . S
C107 O109 1.256 . S
O108 Cd100 2.381 . S
O108 C107 1.258 . S
O109 Cd100 2.378 . S
O109 C107 1.256 . S
O110 Cd111 2.300 . S
O110 C117 1.275 . S
Cd111 O110 2.300 . S
Cd111 O119 2.381 . S
Cd111 O120 2.378 . S
O112 Cd113 2.385 . S
O112 C117 1.255 . S
Cd113 O112 2.385 . S
Cd113 O114 2.317 . S
O114 Cd113 2.317 . S
O114 C115 1.232 . S
C115 O114 1.232 . S
C115 O116 1.218 . S
O116 C115 1.218 . S
C117 O110 1.275 . S
C117 O112 1.255 . S
C118 O119 1.258 . S
C118 O120 1.256 . S
O119 Cd111 2.381 . S
O119 C118 1.258 . S
O120 Cd111 2.378 . S
O120 C118 1.256 . S
O121 Cd122 2.300 . S
O121 C128 1.275 . S
Cd122 O121 2.300 . S
Cd122 O130 2.381 . S
Cd122 O131 2.378 . S
O123 Cd124 2.385 . S
O123 C128 1.255 . S
Cd124 O123 2.385 . S
Cd124 O125 2.317 . S
O125 Cd124 2.317 . S
O125 C126 1.232 . S
C126 O125 1.232 . S
C126 O127 1.218 . S
O127 C126 1.218 . S
C128 O121 1.275 . S
C128 O123 1.255 . S
C129 O130 1.258 . S
C129 O131 1.256 . S
O130 Cd122 2.381 . S
O130 C129 1.258 . S
O131 Cd122 2.378 . S
O131 C129 1.256 . S
H132 C144 0.930 . S
H133 C146 0.930 . S
H134 C147 0.930 . S
H135 C151 0.959 . S
H136 C151 0.959 1_554 S
H137 C151 0.961 . S
H138 C152 0.989 . S
H139 C152 0.938 1_554 S
H140 C152 0.953 1_554 S
H141 C155 0.929 . S
H142 C156 0.931 . S
H143 C158 0.930 . S
C144 H132 0.930 . S
C144 C145 1.399 . S
C144 C149 1.399 . S
C145 C144 1.399 . S
C145 C146 1.376 . S
C146 H133 0.930 . S
C146 C145 1.376 . S
C146 C147 1.388 . S
C147 H134 0.930 . S
C147 C146 1.388 . S
C147 C148 1.390 . S
C148 C147 1.390 . S
C148 C149 1.394 . S
C148 C154 1.465 1_556 S
C149 C144 1.399 . S
C149 C148 1.394 . S
C149 C150 1.516 . S
C150 C149 1.516 . S
C150 C151 1.502 . S
C150 C152 1.563 . S
C150 C153 1.526 1_556 S
C151 H135 0.959 . S
C151 H136 0.959 1_556 S
C151 H137 0.961 . S
C151 C150 1.502 . S
C152 H138 0.989 . S
C152 H139 0.938 1_556 S
C152 H140 0.953 1_556 S
C152 C150 1.563 . S
C153 C150 1.526 1_554 S
C153 C154 1.396 . S
C153 C158 1.390 . S
C154 C148 1.465 1_554 S
C154 C153 1.396 . S
C154 C155 1.399 . S
C155 H141 0.929 . S
C155 C154 1.399 . S
C155 C156 1.385 . S
C156 H142 0.931 . S
C156 C155 1.385 . S
C156 C157 1.389 . S
C157 C156 1.389 . S
C157 C158 1.387 . S
C158 H143 0.930 . S
C158 C153 1.390 . S
C158 C157 1.387 . S
H159 C171 0.930 . S
H160 C173 0.930 . S
H161 C174 0.930 . S
H162 C178 0.959 . S
H163 C178 0.959 . S
H164 C178 0.961 . S
H165 C179 0.960 . S
H166 C179 0.961 . S
H167 C179 0.959 . S
H168 C182 0.929 . S
H169 C183 0.931 . S
H170 C185 0.930 . S
C171 H159 0.930 . S
C171 C172 1.399 . S
C171 C176 1.399 . S
C172 C171 1.399 . S
C172 C173 1.376 . S
C173 H160 0.930 . S
C173 C172 1.376 . S
C173 C174 1.388 . S
C174 H161 0.930 . S
C174 C173 1.388 . S
C174 C175 1.390 . S
C175 C174 1.390 . S
C175 C176 1.394 . S
C175 C181 1.465 . S
C176 C171 1.399 . S
C176 C175 1.394 . S
C176 C177 1.516 . S
C177 C176 1.516 . S
C177 C178 1.502 . S
C177 C179 1.561 . S
C177 C180 1.526 . S
C178 H162 0.959 . S
C178 H163 0.959 . S
C178 H164 0.961 . S
C178 C177 1.502 . S
C179 H165 0.960 . S
C179 H166 0.961 . S
C179 H167 0.959 . S
C179 C177 1.561 . S
C180 C177 1.526 . S
C180 C181 1.396 . S
C180 C185 1.390 . S
C181 C175 1.465 . S
C181 C180 1.396 . S
C181 C182 1.399 . S
C182 H168 0.929 . S
C182 C181 1.399 . S
C182 C183 1.385 . S
C183 H169 0.931 . S
C183 C182 1.385 . S
C183 C184 1.389 . S
C184 C183 1.389 . S
C184 C185 1.387 . S
C185 H170 0.930 . S
C185 C180 1.390 . S
C185 C184 1.387 . S
H186 C198 0.930 . S
H187 C200 0.930 . S
H188 C201 0.930 . S
H189 C205 0.959 . S
H190 C205 0.959 . S
H191 C205 0.961 . S
H192 C206 0.960 . S
H193 C206 0.961 . S
H194 C206 0.959 . S
H195 C209 0.929 . S
H196 C210 0.931 . S
H197 C212 0.930 . S
C198 H186 0.930 . S
C198 C199 1.399 . S
C198 C203 1.399 . S
C199 C198 1.399 . S
C199 C200 1.376 . S
C200 H187 0.930 . S
C200 C199 1.376 . S
C200 C201 1.388 . S
C201 H188 0.930 . S
C201 C200 1.388 . S
C201 C202 1.390 . S
C202 C201 1.390 . S
C202 C203 1.394 . S
C202 C208 1.465 . S
C203 C198 1.399 . S
C203 C202 1.394 . S
C203 C204 1.516 . S
C204 C203 1.516 . S
C204 C205 1.502 . S
C204 C206 1.561 . S
C204 C207 1.526 . S
C205 H189 0.959 . S
C205 H190 0.959 . S
C205 H191 0.961 . S
C205 C204 1.502 . S
C206 H192 0.960 . S
C206 H193 0.961 . S
C206 H194 0.959 . S
C206 C204 1.561 . S
C207 C204 1.526 . S
C207 C208 1.396 . S
C207 C212 1.390 . S
C208 C202 1.465 . S
C208 C207 1.396 . S
C208 C209 1.399 . S
C209 H195 0.929 . S
C209 C208 1.399 . S
C209 C210 1.385 . S
C210 H196 0.931 . S
C210 C209 1.385 . S
C210 C211 1.389 . S
C211 C210 1.389 . S
C211 C212 1.387 . S
C212 H197 0.930 . S
C212 C207 1.390 . S
C212 C211 1.387 . S
H213 C225 0.930 . S
H214 C227 0.930 . S
H215 C228 0.930 . S
H216 C232 0.959 . S
H217 C232 0.959 1_556 S
H218 C232 0.961 . S
H219 C233 0.960 1_554 S
H220 C233 0.961 . S
H221 C233 0.959 . S
H222 C236 0.929 . S
H223 C237 0.931 . S
H224 C239 0.930 . S
C225 H213 0.930 . S
C225 C226 1.399 . S
C225 C230 1.399 . S
C226 C225 1.399 . S
C226 C227 1.376 . S
C227 H214 0.930 . S
C227 C226 1.376 . S
C227 C228 1.388 . S
C228 H215 0.930 . S
C228 C227 1.388 . S
C228 C229 1.390 . S
C229 C228 1.390 . S
C229 C230 1.394 . S
C229 C235 1.465 1_554 S
C230 C225 1.399 . S
C230 C229 1.394 . S
C230 C231 1.530 . S
C231 C230 1.530 . S
C231 C232 1.503 . S
C231 C233 1.560 1_554 S
C231 C234 1.511 1_554 S
C232 H216 0.959 . S
C232 H217 0.959 1_554 S
C232 H218 0.961 . S
C232 C231 1.503 . S
C233 H219 0.960 1_556 S
C233 H220 0.961 . S
C233 H221 0.959 . S
C233 C231 1.560 1_556 S
C234 C231 1.511 1_556 S
C234 C235 1.396 . S
C234 C239 1.390 . S
C235 C229 1.465 1_556 S
C235 C234 1.396 . S
C235 C236 1.399 . S
C236 H222 0.929 . S
C236 C235 1.399 . S
C236 C237 1.385 . S
C237 H223 0.931 . S
C237 C236 1.385 . S
C237 C238 1.389 . S
C238 C237 1.389 . S
C238 C239 1.387 . S
C239 H224 0.930 . S
C239 C234 1.390 . S
C239 C238 1.387 . S
H240 C252 0.930 . S
H241 C254 0.930 . S
H242 C255 0.930 . S
H243 C259 0.959 . S
H244 C259 0.959 . S
H245 C259 0.961 . S
H246 C260 0.960 . S
H247 C260 0.961 . S
H248 C260 0.959 . S
H249 C263 0.929 . S
H250 C264 0.931 . S
H251 C266 0.930 . S
C252 H240 0.930 . S
C252 C253 1.399 . S
C252 C257 1.399 . S
C253 C252 1.399 . S
C253 C254 1.376 . S
C254 H241 0.930 . S
C254 C253 1.376 . S
C254 C255 1.388 . S
C255 H242 0.930 . S
C255 C254 1.388 . S
C255 C256 1.390 . S
C256 C255 1.390 . S
C256 C257 1.394 . S
C256 C262 1.465 . S
C257 C252 1.399 . S
C257 C256 1.394 . S
C257 C258 1.516 . S
C258 C257 1.516 . S
C258 C259 1.502 . S
C258 C260 1.561 . S
C258 C261 1.526 . S
C259 H243 0.959 . S
C259 H244 0.959 . S
C259 H245 0.961 . S
C259 C258 1.502 . S
C260 H246 0.960 . S
C260 H247 0.961 . S
C260 H248 0.959 . S
C260 C258 1.561 . S
C261 C258 1.526 . S
C261 C262 1.396 . S
C261 C266 1.390 . S
C262 C256 1.465 . S
C262 C261 1.396 . S
C262 C263 1.399 . S
C263 H249 0.929 . S
C263 C262 1.399 . S
C263 C264 1.385 . S
C264 H250 0.931 . S
C264 C263 1.385 . S
C264 C265 1.389 . S
C265 C264 1.389 . S
C265 C266 1.387 . S
C266 H251 0.930 . S
C266 C261 1.390 . S
C266 C265 1.387 . S
H267 C279 0.930 . S
H268 C281 0.930 . S
H269 C282 0.930 . S
H270 C286 0.959 . S
H271 C286 0.959 . S
H272 C286 0.961 . S
H273 C287 0.960 . S
H274 C287 0.961 . S
H275 C287 0.959 . S
H276 C290 0.929 . S
H277 C291 0.931 . S
H278 C293 0.930 . S
C279 H267 0.930 . S
C279 C280 1.399 . S
C279 C284 1.399 . S
C280 C279 1.399 . S
C280 C281 1.376 . S
C281 H268 0.930 . S
C281 C280 1.376 . S
C281 C282 1.388 . S
C282 H269 0.930 . S
C282 C281 1.388 . S
C282 C283 1.390 . S
C283 C282 1.390 . S
C283 C284 1.394 . S
C283 C289 1.465 . S
C284 C279 1.399 . S
C284 C283 1.394 . S
C284 C285 1.516 . S
C285 C284 1.516 . S
C285 C286 1.502 . S
C285 C287 1.561 . S
C285 C288 1.526 . S
C286 H270 0.959 . S
C286 H271 0.959 . S
C286 H272 0.961 . S
C286 C285 1.502 . S
C287 H273 0.960 . S
C287 H274 0.961 . S
C287 H275 0.959 . S
C287 C285 1.561 . S
C288 C285 1.526 . S
C288 C289 1.396 . S
C288 C293 1.390 . S
C289 C283 1.465 . S
C289 C288 1.396 . S
C289 C290 1.399 . S
C290 H276 0.929 . S
C290 C289 1.399 . S
C290 C291 1.385 . S
C291 H277 0.931 . S
C291 C290 1.385 . S
C291 C292 1.389 . S
C292 C291 1.389 . S
C292 C293 1.387 . S
C293 H278 0.930 . S
C293 C288 1.390 . S
C293 C292 1.387 . S
H294 C306 0.930 . S
H295 C308 0.930 . S
H296 C309 0.930 . S
H297 C313 0.959 . S
H298 C313 0.959 . S
H299 C313 0.961 . S
H300 C314 0.960 . S
H301 C314 0.961 . S
H302 C314 0.959 . S
H303 C317 0.929 . S
H304 C318 0.931 . S
H305 C320 0.930 . S
C306 H294 0.930 . S
C306 C307 1.399 . S
C306 C311 1.399 . S
C307 C306 1.399 . S
C307 C308 1.376 . S
C308 H295 0.930 . S
C308 C307 1.376 . S
C308 C309 1.388 . S
C309 H296 0.930 . S
C309 C308 1.388 . S
C309 C310 1.390 . S
C310 C309 1.390 . S
C310 C311 1.394 . S
C310 C316 1.465 . S
C311 C306 1.399 . S
C311 C310 1.394 . S
C311 C312 1.516 . S
C312 C311 1.516 . S
C312 C313 1.502 . S
C312 C314 1.561 . S
C312 C315 1.526 . S
C313 H297 0.959 . S
C313 H298 0.959 . S
C313 H299 0.961 . S
C313 C312 1.502 . S
C314 H300 0.960 . S
C314 H301 0.961 . S
C314 H302 0.959 . S
C314 C312 1.561 . S
C315 C312 1.526 . S
C315 C316 1.396 . S
C315 C320 1.390 . S
C316 C310 1.465 . S
C316 C315 1.396 . S
C316 C317 1.399 . S
C317 H303 0.929 . S
C317 C316 1.399 . S
C317 C318 1.385 . S
C318 H304 0.931 . S
C318 C317 1.385 . S
C318 C319 1.389 . S
C319 C318 1.389 . S
C319 C320 1.387 . S
C320 H305 0.930 . S
C320 C315 1.390 . S
C320 C319 1.387 . S
H321 C333 0.930 . S
H322 C335 0.930 . S
H323 C336 0.930 . S
H324 C340 0.959 . S
H325 C340 0.959 . S
H326 C340 0.961 . S
H327 C341 0.960 1_655 S
H328 C341 0.961 . S
H329 C341 0.959 . S
H330 C344 0.929 . S
H331 C345 0.931 . S
H332 C347 0.930 . S
C333 H321 0.930 . S
C333 C334 1.399 . S
C333 C338 1.399 . S
C334 C333 1.399 . S
C334 C335 1.376 . S
C335 H322 0.930 . S
C335 C334 1.376 . S
C335 C336 1.388 . S
C336 H323 0.930 . S
C336 C335 1.388 . S
C336 C337 1.390 . S
C337 C336 1.390 . S
C337 C338 1.394 . S
C337 C343 1.465 1_655 S
C338 C333 1.399 . S
C338 C337 1.394 . S
C338 C339 1.516 . S
C339 C338 1.516 . S
C339 C340 1.502 . S
C339 C341 1.561 1_655 S
C339 C342 1.526 1_655 S
C340 H324 0.959 . S
C340 H325 0.959 . S
C340 H326 0.961 . S
C340 C339 1.502 . S
C341 H327 0.960 1_455 S
C341 H328 0.961 . S
C341 H329 0.959 . S
C341 C339 1.561 1_455 S
C342 C339 1.526 1_455 S
C342 C343 1.396 . S
C342 C347 1.390 . S
C343 C337 1.465 1_455 S
C343 C342 1.396 . S
C343 C344 1.399 . S
C344 H330 0.929 . S
C344 C343 1.399 . S
C344 C345 1.385 . S
C345 H331 0.931 . S
C345 C344 1.385 . S
C345 C346 1.389 . S
C346 C345 1.389 . S
C346 C347 1.387 . S
C347 H332 0.930 . S
C347 C342 1.390 . S
C347 C346 1.387 . S
H348 C360 0.930 . S
H349 C362 0.930 . S
H350 C363 0.930 . S
H351 C367 0.959 . S
H352 C367 0.959 . S
H353 C367 0.961 . S
H354 C368 0.960 . S
H355 C368 0.961 1_565 S
H356 C368 0.959 . S
H357 C371 0.929 . S
H358 C372 0.931 . S
H359 C374 0.930 . S
C360 H348 0.930 . S
C360 C361 1.399 . S
C360 C365 1.399 . S
C361 C360 1.399 . S
C361 C362 1.376 . S
C362 H349 0.930 . S
C362 C361 1.376 . S
C362 C363 1.388 . S
C363 H350 0.930 . S
C363 C362 1.388 . S
C363 C364 1.390 . S
C364 C363 1.390 . S
C364 C365 1.394 . S
C364 C370 1.465 1_545 S
C365 C360 1.399 . S
C365 C364 1.394 . S
C365 C366 1.516 1_545 S
C366 C365 1.516 1_565 S
C366 C367 1.502 . S
C366 C368 1.561 1_565 S
C366 C369 1.526 . S
C367 H351 0.959 . S
C367 H352 0.959 . S
C367 H353 0.961 . S
C367 C366 1.502 . S
C368 H354 0.960 . S
C368 H355 0.961 1_545 S
C368 H356 0.959 . S
C368 C366 1.561 1_545 S
C369 C366 1.526 . S
C369 C370 1.396 . S
C369 C374 1.390 . S
C370 C364 1.465 1_565 S
C370 C369 1.396 . S
C370 C371 1.399 . S
C371 H357 0.929 . S
C371 C370 1.399 . S
C371 C372 1.385 . S
C372 H358 0.931 . S
C372 C371 1.385 . S
C372 C373 1.389 . S
C373 C372 1.389 . S
C373 C374 1.387 . S
C374 H359 0.930 . S
C374 C369 1.390 . S
C374 C373 1.387 . S
H375 C387 0.930 . S
H376 C389 0.930 . S
H377 C390 0.930 . S
H378 C394 0.959 . S
H379 C394 0.959 . S
H380 C394 0.961 . S
H381 C395 0.960 . S
H382 C395 0.961 . S
H383 C395 0.959 . S
H384 C398 0.929 . S
H385 C399 0.931 . S
H386 C401 0.930 . S
C387 H375 0.930 . S
C387 C388 1.399 . S
C387 C392 1.399 . S
C388 C387 1.399 . S
C388 C389 1.376 . S
C389 H376 0.930 . S
C389 C388 1.376 . S
C389 C390 1.388 . S
C390 H377 0.930 . S
C390 C389 1.388 . S
C390 C391 1.390 . S
C391 C390 1.390 . S
C391 C392 1.394 . S
C391 C397 1.465 . S
C392 C387 1.399 . S
C392 C391 1.394 . S
C392 C393 1.516 . S
C393 C392 1.516 . S
C393 C394 1.502 . S
C393 C395 1.561 . S
C393 C396 1.526 . S
C394 H378 0.959 . S
C394 H379 0.959 . S
C394 H380 0.961 . S
C394 C393 1.502 . S
C395 H381 0.960 . S
C395 H382 0.961 . S
C395 H383 0.959 . S
C395 C393 1.561 . S
C396 C393 1.526 . S
C396 C397 1.396 . S
C396 C401 1.390 . S
C397 C391 1.465 . S
C397 C396 1.396 . S
C397 C398 1.399 . S
C398 H384 0.929 . S
C398 C397 1.399 . S
C398 C399 1.385 . S
C399 H385 0.931 . S
C399 C398 1.385 . S
C399 C400 1.389 . S
C400 C399 1.389 . S
C400 C401 1.387 . S
C401 H386 0.930 . S
C401 C396 1.390 . S
C401 C400 1.387 . S
H402 C414 0.930 . S
H403 C416 0.930 . S
H404 C417 0.930 . S
H405 C421 0.959 . S
H406 C421 0.959 . S
H407 C421 0.961 . S
H408 C422 0.960 1_455 S
H409 C422 0.961 . S
H410 C422 0.959 . S
H411 C425 0.929 . S
H412 C426 0.931 . S
H413 C428 0.930 . S
C414 H402 0.930 . S
C414 C415 1.399 . S
C414 C419 1.399 . S
C415 C414 1.399 . S
C415 C416 1.376 . S
C416 H403 0.930 . S
C416 C415 1.376 . S
C416 C417 1.388 . S
C417 H404 0.930 . S
C417 C416 1.388 . S
C417 C418 1.390 . S
C418 C417 1.390 . S
C418 C419 1.394 . S
C418 C424 1.465 1_455 S
C419 C414 1.399 . S
C419 C418 1.394 . S
C419 C420 1.516 . S
C420 C419 1.516 . S
C420 C421 1.502 . S
C420 C422 1.561 1_455 S
C420 C423 1.526 1_455 S
C421 H405 0.959 . S
C421 H406 0.959 . S
C421 H407 0.961 . S
C421 C420 1.502 . S
C422 H408 0.960 1_655 S
C422 H409 0.961 . S
C422 H410 0.959 . S
C422 C420 1.561 1_655 S
C423 C420 1.526 1_655 S
C423 C424 1.396 . S
C423 C428 1.390 . S
C424 C418 1.465 1_655 S
C424 C423 1.396 . S
C424 C425 1.399 . S
C425 H411 0.929 . S
C425 C424 1.399 . S
C425 C426 1.385 . S
C426 H412 0.931 . S
C426 C425 1.385 . S
C426 C427 1.389 . S
C427 C426 1.389 . S
C427 C428 1.387 . S
C428 H413 0.930 . S
C428 C423 1.390 . S
C428 C427 1.387 . S
H429 C441 0.930 . S
H430 C443 0.930 . S
H431 C444 0.930 . S
H432 C448 0.959 . S
H433 C448 0.959 . S
H434 C448 0.961 . S
H435 C449 0.960 . S
H436 C449 0.961 . S
H437 C449 0.959 . S
H438 C452 0.929 . S
H439 C453 0.931 . S
H440 C455 0.930 . S
C441 H429 0.930 . S
C441 C442 1.399 . S
C441 C446 1.399 . S
C442 C441 1.399 . S
C442 C443 1.376 . S
C443 H430 0.930 . S
C443 C442 1.376 . S
C443 C444 1.388 1_565 S
C444 H431 0.930 . S
C444 C443 1.388 1_545 S
C444 C445 1.378 1_545 S
C445 C444 1.378 1_565 S
C445 C446 1.414 . S
C445 C451 1.461 1_565 S
C446 C441 1.399 . S
C446 C445 1.414 . S
C446 C447 1.516 . S
C447 C446 1.516 . S
C447 C448 1.502 . S
C447 C449 1.561 . S
C447 C450 1.526 1_565 S
C448 H432 0.959 . S
C448 H433 0.959 . S
C448 H434 0.961 . S
C448 C447 1.502 . S
C449 H435 0.960 . S
C449 H436 0.961 . S
C449 H437 0.959 . S
C449 C447 1.561 . S
C450 C447 1.526 1_545 S
C450 C451 1.396 . S
C450 C455 1.390 . S
C451 C445 1.461 1_545 S
C451 C450 1.396 . S
C451 C452 1.399 . S
C452 H438 0.929 . S
C452 C451 1.399 . S
C452 C453 1.385 . S
C453 H439 0.931 . S
C453 C452 1.385 . S
C453 C454 1.389 . S
C454 C453 1.389 . S
C454 C455 1.387 . S
C455 H440 0.930 . S
C455 C450 1.390 . S
C455 C454 1.387 . S
H456 C468 0.930 . S
H457 C470 0.930 . S
H458 C471 0.930 . S
H459 C475 0.959 . S
H460 C475 0.959 . S
H461 C475 0.961 . S
H462 C476 0.960 1_655 S
H463 C476 0.961 . S
H464 C476 0.959 1_655 S
H465 C479 0.912 1_655 S
H466 C480 0.931 . S
H467 C482 0.930 . S
C468 H456 0.930 . S
C468 C469 1.399 . S
C468 C473 1.399 . S
C469 C468 1.399 . S
C469 C470 1.376 . S
C470 H457 0.930 . S
C470 C469 1.376 . S
C470 C471 1.388 . S
C471 H458 0.930 . S
C471 C470 1.388 . S
C471 C472 1.390 . S
C472 C471 1.390 . S
C472 C473 1.394 . S
C472 C478 1.465 1_655 S
C473 C468 1.399 . S
C473 C472 1.394 . S
C473 C474 1.516 1_655 S
C474 C473 1.516 1_455 S
C474 C475 1.502 . S
C474 C476 1.561 . S
C474 C477 1.526 . S
C475 H459 0.959 . S
C475 H460 0.959 . S
C475 H461 0.961 . S
C475 C474 1.502 . S
C476 H462 0.960 1_455 S
C476 H463 0.961 . S
C476 H464 0.959 1_455 S
C476 C474 1.561 . S
C477 C474 1.526 . S
C477 C478 1.396 . S
C477 C482 1.390 . S
C478 C472 1.465 1_455 S
C478 C477 1.396 . S
C478 C479 1.399 . S
C479 H465 0.912 1_455 S
C479 C478 1.399 . S
C479 C480 1.385 . S
C480 H466 0.931 . S
C480 C479 1.385 . S
C480 C481 1.389 . S
C481 C480 1.389 . S
C481 C482 1.387 . S
C482 H467 0.930 . S
C482 C477 1.390 . S
C482 C481 1.387 . S
H483 C495 0.930 . S
H484 C497 0.930 . S
H485 C498 0.930 . S
H486 C502 0.959 . S
H487 C502 0.959 . S
H488 C502 0.961 . S
H489 C503 0.960 . S
H490 C503 0.961 . S
H491 C503 0.959 . S
H492 C506 0.929 1_565 S
H493 C507 0.931 . S
H494 C509 0.930 . S
C495 H483 0.930 . S
C495 C496 1.399 . S
C495 C500 1.399 . S
C496 C495 1.399 . S
C496 C497 1.376 . S
C497 H484 0.930 . S
C497 C496 1.376 . S
C497 C498 1.388 . S
C498 H485 0.930 . S
C498 C497 1.388 . S
C498 C499 1.390 . S
C499 C498 1.390 . S
C499 C500 1.394 . S
C499 C505 1.465 1_565 S
C500 C495 1.399 . S
C500 C499 1.394 . S
C500 C501 1.516 1_565 S
C501 C500 1.516 1_545 S
C501 C502 1.502 . S
C501 C503 1.561 . S
C501 C504 1.526 . S
C502 H486 0.959 . S
C502 H487 0.959 . S
C502 H488 0.961 . S
C502 C501 1.502 . S
C503 H489 0.960 . S
C503 H490 0.961 . S
C503 H491 0.959 . S
C503 C501 1.561 . S
C504 C501 1.526 . S
C504 C505 1.396 . S
C504 C509 1.390 . S
C505 C499 1.465 1_545 S
C505 C504 1.396 . S
C505 C506 1.399 . S
C506 H492 0.929 1_545 S
C506 C505 1.399 . S
C506 C507 1.385 . S
C507 H493 0.931 . S
C507 C506 1.385 . S
C507 C508 1.389 . S
C508 C507 1.389 . S
C508 C509 1.387 . S
C509 H494 0.930 . S
C509 C504 1.390 . S
C509 C508 1.387 . S
H510 C522 0.930 . S
H511 C524 0.930 . S
H512 C525 0.930 . S
H513 C529 0.959 . S
H514 C529 0.959 . S
H515 C529 0.961 . S
H516 C530 0.960 . S
H517 C530 0.961 . S
H518 C530 0.959 . S
H519 C533 0.929 . S
H520 C534 0.931 . S
H521 C536 0.930 . S
C522 H510 0.930 . S
C522 C523 1.399 . S
C522 C527 1.399 . S
C523 C522 1.399 . S
C523 C524 1.376 . S
C524 H511 0.930 . S
C524 C523 1.376 . S
C524 C525 1.388 . S
C525 H512 0.930 . S
C525 C524 1.388 . S
C525 C526 1.390 . S
C526 C525 1.390 . S
C526 C527 1.394 . S
C526 C532 1.465 . S
C527 C522 1.399 . S
C527 C526 1.394 . S
C527 C528 1.516 . S
C528 C527 1.516 . S
C528 C529 1.502 . S
C528 C530 1.561 . S
C528 C531 1.526 . S
C529 H513 0.959 . S
C529 H514 0.959 . S
C529 H515 0.961 . S
C529 C528 1.502 . S
C530 H516 0.960 . S
C530 H517 0.961 . S
C530 H518 0.959 . S
C530 C528 1.561 . S
C531 C528 1.526 . S
C531 C532 1.396 . S
C531 C536 1.390 . S
C532 C526 1.465 . S
C532 C531 1.396 . S
C532 C533 1.399 . S
C533 H519 0.929 . S
C533 C532 1.399 . S
C533 C534 1.385 . S
C534 H520 0.931 . S
C534 C533 1.385 . S
C534 C535 1.389 . S
C535 C534 1.389 . S
C535 C536 1.387 . S
C536 H521 0.930 . S
C536 C531 1.390 . S
C536 C535 1.387 . S
H537 C549 0.930 . S
H538 C551 0.930 . S
H539 C552 0.930 . S
H540 C556 0.969 . S
H541 C556 0.959 . S
H542 C556 0.961 . S
H543 C557 0.960 . S
H544 C557 0.961 . S
H545 C557 0.959 . S
H546 C560 0.929 . S
H547 C561 0.931 . S
H548 C563 0.930 . S
C549 H537 0.930 . S
C549 C550 1.399 . S
C549 C554 1.399 . S
C550 C549 1.399 . S
C550 C551 1.376 . S
C551 H538 0.930 . S
C551 C550 1.376 . S
C551 C552 1.388 . S
C552 H539 0.930 . S
C552 C551 1.388 . S
C552 C553 1.390 . S
C553 C552 1.390 . S
C553 C554 1.394 . S
C553 C559 1.465 1_655 S
C554 C549 1.399 . S
C554 C553 1.394 . S
C554 C555 1.516 1_655 S
C555 C554 1.516 1_455 S
C555 C556 1.502 . S
C555 C557 1.561 . S
C555 C558 1.526 . S
C556 H540 0.969 . S
C556 H541 0.959 . S
C556 H542 0.961 . S
C556 C555 1.502 . S
C557 H543 0.960 . S
C557 H544 0.961 . S
C557 H545 0.959 . S
C557 C555 1.561 . S
C558 C555 1.526 . S
C558 C559 1.396 . S
C558 C563 1.390 . S
C559 C553 1.465 1_455 S
C559 C558 1.396 . S
C559 C560 1.399 . S
C560 H546 0.929 . S
C560 C559 1.399 . S
C560 C561 1.385 . S
C561 H547 0.931 . S
C561 C560 1.385 . S
C561 C562 1.389 . S
C562 C561 1.389 . S
C562 C563 1.387 . S
C563 H548 0.930 . S
C563 C558 1.390 . S
C563 C562 1.387 . S
H564 C576 0.930 . S
H565 C578 0.930 . S
H566 C579 0.930 1_545 S
H567 C583 0.959 . S
H568 C583 0.959 . S
H569 C583 0.961 . S
H570 C584 0.960 . S
H571 C584 0.961 . S
H572 C584 0.959 . S
H573 C587 0.929 . S
H574 C588 0.931 . S
H575 C590 0.930 . S
C576 H564 0.930 . S
C576 C577 1.399 . S
C576 C581 1.399 . S
C577 C576 1.399 . S
C577 C578 1.376 . S
C578 H565 0.930 . S
C578 C577 1.376 . S
C578 C579 1.388 . S
C579 H566 0.930 1_565 S
C579 C578 1.388 . S
C579 C580 1.390 . S
C580 C579 1.390 . S
C580 C581 1.394 . S
C580 C586 1.465 1_565 S
C581 C576 1.399 . S
C581 C580 1.394 . S
C581 C582 1.516 . S
C582 C581 1.516 . S
C582 C583 1.502 . S
C582 C584 1.561 . S
C582 C585 1.526 1_565 S
C583 H567 0.959 . S
C583 H568 0.959 . S
C583 H569 0.961 . S
C583 C582 1.502 . S
C584 H570 0.960 . S
C584 H571 0.961 . S
C584 H572 0.959 . S
C584 C582 1.561 . S
C585 C582 1.526 1_545 S
C585 C586 1.396 . S
C585 C590 1.390 . S
C586 C580 1.465 1_545 S
C586 C585 1.396 . S
C586 C587 1.399 . S
C587 H573 0.929 . S
C587 C586 1.399 . S
C587 C588 1.385 . S
C588 H574 0.931 . S
C588 C587 1.385 . S
C588 C589 1.389 . S
C589 C588 1.389 . S
C589 C590 1.387 . S
C590 H575 0.930 . S
C590 C585 1.390 . S
C590 C589 1.387 . S
H591 C603 0.930 . S
H592 C605 0.930 . S
H593 C606 0.930 . S
H594 C610 0.959 . S
H595 C610 0.959 . S
H596 C610 0.961 . S
H597 C611 0.960 . S
H598 C611 0.961 . S
H599 C611 0.959 . S
H600 C614 0.929 . S
H601 C615 0.931 . S
H602 C617 0.930 . S
C603 H591 0.930 . S
C603 C604 1.399 . S
C603 C608 1.399 . S
C604 C603 1.399 . S
C604 C605 1.376 . S
C605 H592 0.930 . S
C605 C604 1.376 . S
C605 C606 1.388 . S
C606 H593 0.930 . S
C606 C605 1.388 . S
C606 C607 1.390 . S
C607 C606 1.390 . S
C607 C608 1.394 . S
C607 C613 1.465 . S
C608 C603 1.399 . S
C608 C607 1.394 . S
C608 C609 1.516 . S
C609 C608 1.516 . S
C609 C610 1.502 . S
C609 C611 1.561 . S
C609 C612 1.526 . S
C610 H594 0.959 . S
C610 H595 0.959 . S
C610 H596 0.961 . S
C610 C609 1.502 . S
C611 H597 0.960 . S
C611 H598 0.961 . S
C611 H599 0.959 . S
C611 C609 1.561 . S
C612 C609 1.526 . S
C612 C613 1.396 . S
C612 C617 1.390 . S
C613 C607 1.465 . S
C613 C612 1.396 . S
C613 C614 1.399 . S
C614 H600 0.929 . S
C614 C613 1.399 . S
C614 C615 1.385 . S
C615 H601 0.931 . S
C615 C614 1.385 . S
C615 C616 1.389 . S
C616 C615 1.389 . S
C616 C617 1.387 . S
C617 H602 0.930 . S
C617 C612 1.390 . S
C617 C616 1.387 . S
C145 C117 1.450 . S
C157 C7 1.424 . S
C172 C128 1.473 . S
C184 C18 1.443 . S
C199 C29 1.474 . S
C211 C73 1.444 . S
C226 C40 1.434 . S
C238 C84 1.419 . S
C253 C95 1.470 . S
C265 C51 1.439 . S
C280 C106 1.418 . S
C292 C62 1.435 . S
C307 C38 1.219 . S
C319 C5 1.344 . S
C334 C16 1.200 . S
C346 C49 1.276 . S
C361 C60 1.348 . S
C373 C27 1.269 . S
C388 C104 1.201 . S
C400 C71 1.275 . S
C415 C115 1.198 . S
C427 C82 1.282 . S
C442 C93 1.234 . S
C454 C126 1.349 . S
C469 C129 1.505 . S
C481 C8 1.494 . S
C496 C74 1.484 . S
C508 C19 1.473 . S
C523 C30 1.469 . S
C535 C85 1.476 . S
C550 C41 1.474 . S
C562 C96 1.470 . S
C577 C52 1.499 . S
C589 C107 1.508 . S
C604 C63 1.471 . S
C616 C118 1.480 . S
