# Generated by pormake.
# Topology wjd, (6)-cn, num edge types: 1
# Building blocks:
#     Node 0, Type 0, BuildingBlock: KUMJIN_clean_sbu_1, # of connection points: 6
#     Node 1, Type 0, BuildingBlock: KUMJIN_clean_sbu_1, # of connection points: 6
#     Node 2, Type 0, BuildingBlock: KUMJIN_clean_sbu_1, # of connection points: 6
#     Node 3, Type 0, BuildingBlock: KUMJIN_clean_sbu_1, # of connection points: 6
#     Node 4, Type 0, BuildingBlock: KUMJIN_clean_sbu_1, # of connection points: 6
#     Node 5, Type 0, BuildingBlock: KUMJIN_clean_sbu_1, # of connection points: 6
#     Node 6, Type 0, BuildingBlock: KUMJIN_clean_sbu_1, # of connection points: 6
#     Node 7, Type 0, BuildingBlock: KUMJIN_clean_sbu_1, # of connection points: 6
#     Node 8, Type 0, BuildingBlock: KUMJIN_clean_sbu_1, # of connection points: 6
#     Node 9, Type 0, BuildingBlock: KUMJIN_clean_sbu_1, # of connection points: 6
#     Node 10, Type 0, BuildingBlock: KUMJIN_clean_sbu_1, # of connection points: 6
#     Node 11, Type 0, BuildingBlock: KUMJIN_clean_sbu_1, # of connection points: 6
#     Edge 12, Type (0, 0), BuildingBlock: ZUJKAS_clean_linker_0, # of connection points: 2
#     Edge 13, Type (0, 0), BuildingBlock: ZUJKAS_clean_linker_0, # of connection points: 2
#     Edge 14, Type (0, 0), BuildingBlock: ZUJKAS_clean_linker_0, # of connection points: 2
#     Edge 15, Type (0, 0), BuildingBlock: ZUJKAS_clean_linker_0, # of connection points: 2
#     Edge 16, Type (0, 0), BuildingBlock: ZUJKAS_clean_linker_0, # of connection points: 2
#     Edge 17, Type (0, 0), BuildingBlock: ZUJKAS_clean_linker_0, # of connection points: 2
#     Edge 18, Type (0, 0), BuildingBlock: ZUJKAS_clean_linker_0, # of connection points: 2
#     Edge 19, Type (0, 0), BuildingBlock: ZUJKAS_clean_linker_0, # of connection points: 2
#     Edge 20, Type (0, 0), BuildingBlock: ZUJKAS_clean_linker_0, # of connection points: 2
#     Edge 21, Type (0, 0), BuildingBlock: ZUJKAS_clean_linker_0, # of connection points: 2
#     Edge 22, Type (0, 0), BuildingBlock: ZUJKAS_clean_linker_0, # of connection points: 2
#     Edge 23, Type (0, 0), BuildingBlock: ZUJKAS_clean_linker_0, # of connection points: 2
#     Edge 24, Type (0, 0), BuildingBlock: ZUJKAS_clean_linker_0, # of connection points: 2
#     Edge 25, Type (0, 0), BuildingBlock: ZUJKAS_clean_linker_0, # of connection points: 2
#     Edge 26, Type (0, 0), BuildingBlock: ZUJKAS_clean_linker_0, # of connection points: 2
#     Edge 27, Type (0, 0), BuildingBlock: ZUJKAS_clean_linker_0, # of connection points: 2
#     Edge 28, Type (0, 0), BuildingBlock: ZUJKAS_clean_linker_0, # of connection points: 2
#     Edge 29, Type (0, 0), BuildingBlock: ZUJKAS_clean_linker_0, # of connection points: 2
#     Edge 30, Type (0, 0), BuildingBlock: ZUJKAS_clean_linker_0, # of connection points: 2
#     Edge 31, Type (0, 0), BuildingBlock: ZUJKAS_clean_linker_0, # of connection points: 2
#     Edge 32, Type (0, 0), BuildingBlock: ZUJKAS_clean_linker_0, # of connection points: 2
#     Edge 33, Type (0, 0), BuildingBlock: ZUJKAS_clean_linker_0, # of connection points: 2
#     Edge 34, Type (0, 0), BuildingBlock: ZUJKAS_clean_linker_0, # of connection points: 2
#     Edge 35, Type (0, 0), BuildingBlock: ZUJKAS_clean_linker_0, # of connection points: 2
#     Edge 36, Type (0, 0), BuildingBlock: ZUJKAS_clean_linker_0, # of connection points: 2
#     Edge 37, Type (0, 0), BuildingBlock: ZUJKAS_clean_linker_0, # of connection points: 2
#     Edge 38, Type (0, 0), BuildingBlock: ZUJKAS_clean_linker_0, # of connection points: 2
#     Edge 39, Type (0, 0), BuildingBlock: ZUJKAS_clean_linker_0, # of connection points: 2
#     Edge 40, Type (0, 0), BuildingBlock: ZUJKAS_clean_linker_0, # of connection points: 2
#     Edge 41, Type (0, 0), BuildingBlock: ZUJKAS_clean_linker_0, # of connection points: 2
#     Edge 42, Type (0, 0), BuildingBlock: ZUJKAS_clean_linker_0, # of connection points: 2
#     Edge 43, Type (0, 0), BuildingBlock: ZUJKAS_clean_linker_0, # of connection points: 2
#     Edge 44, Type (0, 0), BuildingBlock: ZUJKAS_clean_linker_0, # of connection points: 2
#     Edge 45, Type (0, 0), BuildingBlock: ZUJKAS_clean_linker_0, # of connection points: 2
#     Edge 46, Type (0, 0), BuildingBlock: ZUJKAS_clean_linker_0, # of connection points: 2
#     Edge 47, Type (0, 0), BuildingBlock: ZUJKAS_clean_linker_0, # of connection points: 2
# Relax obj value: 0.073
# Max RMSD: 0.179
# Mean RMSD: 0.179
data_MOF--net-wjd--node1-KUMJIN_clean_sbu_1--edge1-ZUJKAS_clean_linker_0
_symmetry_space_group_name_H-M    P1
_symmetry_Int_Tables_number       1
_symmetry_cell_setting            triclinic
loop_
_symmetry_equiv_pos_as_xyz
'x, y, z'
_cell_length_a     47.991501
_cell_length_b     48.116594
_cell_length_c     71.013609
_cell_angle_alpha  89.973874
_cell_angle_beta   90.020288
_cell_angle_gamma 120.06322
loop_
_atom_site_label
_atom_site_type_symbol
_atom_site_fract_x
_atom_site_fract_y
_atom_site_fract_z
_atom_type_partial_charge
Eu0 Eu 0.31974 0.0869 0.13159 0.0
C1 C 0.324 0.20483 0.09715 0.0
N2 N 0.33699 0.18781 0.08969 0.0
C3 C 0.31454 0.18741 0.05951 0.0
C4 C 0.30507 0.21326 0.08598 0.0
C5 C 0.33298 0.17938 0.07113 0.0
C6 C 0.30045 0.20433 0.06696 0.0
C7 C 0.31493 0.22985 0.12433 0.0
C8 C 0.3288 0.21284 0.11619 0.0
C9 C 0.29582 0.23801 0.11326 0.0
C10 C 0.29098 0.22983 0.09415 0.0
Eu11 Eu 0.36858 0.17638 0.1101 0.0
N12 N 0.34698 0.20413 0.12671 0.0
C13 C 0.32101 0.23854 0.14331 0.0
C14 C 0.35515 0.21503 0.14474 0.0
C15 C 0.34165 0.23157 0.15346 0.0
H16 H 0.34413 0.16659 0.06531 0.0
H17 H 0.34772 0.23953 0.1679 0.0
H18 H 0.31966 0.09235 0.17876 0.0
H19 H 0.36007 0.02163 0.08673 0.0
H20 H 0.37293 0.21221 0.15236 0.0
H21 H 0.31075 0.25155 0.15008 0.0
H22 H 0.33358 0.05286 0.09396 0.0
H23 H 0.31124 0.18057 0.04481 0.0
H24 H 0.2848 0.25084 0.11934 0.0
H25 H 0.27618 0.23632 0.08581 0.0
H26 H 0.34017 0.07629 0.20624 0.0
H27 H 0.28604 0.21035 0.05793 0.0
H28 H 0.38356 1.00521 0.11246 0.0
N29 N 0.33707 0.07179 0.15882 0.0
C30 C 0.35182 0.05427 0.15596 0.0
C31 C 0.34375 0.07021 0.19216 0.0
C32 C 0.36356 0.04441 0.17124 0.0
C33 C 0.33244 0.07945 0.17658 0.0
C34 C 0.35953 0.05279 0.18948 0.0
N35 N 0.34396 0.05633 0.12317 0.0
C36 C 0.34469 0.04693 0.10517 0.0
C37 C 0.37005 0.0277 0.13424 0.0
C38 C 0.35513 0.04608 0.13765 0.0
C39 C 0.37231 0.01934 0.11566 0.0
C40 C 0.35923 0.0287 0.10109 0.0
H41 H 0.36821 0.04566 0.2016 0.0
H42 H 0.38806 0.01876 0.17945 0.0
H43 H 0.39368 1.00409 0.14707 0.0
O44 O 0.27568 0.04948 0.11828 0.0
O45 O 0.37477 0.10939 0.1305 0.0
O46 O 0.39368 0.14764 0.10681 0.0
O47 O 0.28028 0.05091 0.14862 0.0
O48 O 0.31511 0.09344 0.10021 0.0
O49 O 0.36184 0.13758 0.08905 0.0
O50 O 0.41169 0.22214 0.11724 0.0
O51 O 0.31379 0.14606 0.1076 0.0
O52 O 0.29999 0.12054 0.13587 0.0
O53 O 0.40027 0.20865 0.08818 0.0
O54 O 0.37957 0.16845 0.14059 0.0
O55 O 0.32975 0.12873 0.15019 0.0
C56 C 0.39737 0.12868 0.11861 0.0
C57 C 0.24654 1.00025 0.1347 0.0
C58 C 0.19686 0.94809 0.13275 0.0
C59 C 0.21483 0.93313 0.1373 0.0
C60 C 0.26386 0.98476 0.13903 0.0
C61 C 0.24804 0.95135 0.14027 0.0
C62 C 0.21323 0.98191 0.13137 0.0
C63 C 0.33625 0.10879 0.08675 0.0
C64 C 0.26248 0.03551 0.13418 0.0
C65 C 0.37882 0.02646 0.16787 0.0
C66 C 0.38203 0.01811 0.14943 0.0
C67 C 0.29389 0.13446 0.12188 0.0
C68 C 0.42466 0.26419 0.09546 0.0
C69 C 0.45812 0.3227 0.09845 0.0
C70 C 0.43519 0.32604 0.08785 0.0
C71 C 0.40248 0.26844 0.08471 0.0
C72 C 0.45267 0.29151 0.1022 0.0
C73 C 0.40768 0.29912 0.08104 0.0
C74 C 0.35901 0.1517 0.15406 0.0
C75 C 0.41855 0.23148 0.09982 0.0
H76 H 0.20323 0.90734 0.13895 0.0
H77 H 0.28948 0.99846 0.14168 0.0
H78 H 0.26149 0.93952 0.1438 0.0
H79 H 0.20019 0.99415 0.12771 0.0
H80 H 0.43884 0.34959 0.08446 0.0
H81 H 0.38117 0.24813 0.07899 0.0
H82 H 0.46994 0.28847 0.11046 0.0
H83 H 0.39039 0.30205 0.07275 0.0
Eu84 Eu 0.82484 0.65674 0.40053 0.0
C85 C 0.70746 0.65725 0.36519 0.0
N86 N 0.7374 0.66908 0.35771 0.0
C87 C 0.71467 0.64274 0.32842 0.0
C88 C 0.67981 0.6368 0.35458 0.0
C89 C 0.74141 0.66275 0.3395 0.0
C90 C 0.68375 0.62954 0.33602 0.0
C91 C 0.6738 0.65339 0.3917 0.0
C92 C 0.7046 0.66514 0.38367 0.0
C93 C 0.64624 0.63243 0.38132 0.0
C94 C 0.64924 0.62416 0.36282 0.0
Eu95 Eu 0.78103 0.70198 0.37759 0.0
N96 N 0.73172 0.68533 0.39349 0.0
C97 C 0.67156 0.66388 0.40972 0.0
C98 C 0.72933 0.69818 0.41011 0.0
C99 C 0.69943 0.68694 0.41878 0.0
H100 H 0.76525 0.6733 0.33353 0.0
H101 H 0.69785 0.69662 0.43224 0.0
H102 H 0.83549 0.67975 0.4456 0.0
H103 H 0.91446 0.68013 0.34557 0.0
H104 H 0.75025 0.71786 0.41649 0.0
H105 H 0.64837 0.65545 0.41637 0.0
H106 H 0.86051 0.654 0.35948 0.0
H107 H 0.71788 0.63751 0.31404 0.0
H108 H 0.62244 0.62296 0.38735 0.0
H109 H 0.62773 0.6082 0.35494 0.0
H110 H 0.88032 0.71374 0.46714 0.0
H111 H 0.6631 0.61391 0.32742 0.0
H112 H 0.96166 0.71758 0.36456 0.0
N113 N 0.86604 0.68833 0.42206 0.0
C114 C 0.89674 0.70251 0.41542 0.0
C115 C 0.88523 0.71087 0.45261 0.0
C116 C 0.92301 0.72203 0.42722 0.0
C117 C 0.85991 0.69181 0.44039 0.0
C118 C 0.91691 0.72614 0.44599 0.0
N119 N 0.87582 0.67942 0.38546 0.0
C120 C 0.88032 0.67176 0.36764 0.0
C121 C 0.93336 0.7126 0.38939 0.0
C122 C 0.90174 0.69801 0.39662 0.0
C123 C 0.93777 0.70678 0.37064 0.0
C124 C 0.91117 0.68586 0.35983 0.0
H125 H 0.93646 0.74098 0.45549 0.0
H126 H 0.97489 0.75218 0.42875 0.0
H127 H 0.98396 0.74385 0.39568 0.0
O128 O 0.82506 0.61253 0.39322 0.0
O129 O 0.84876 0.71126 0.40194 0.0
O130 O 0.83529 0.72541 0.37414 0.0
O131 O 0.82706 0.62571 0.42232 0.0
O132 O 0.80922 0.64654 0.36946 0.0
O133 O 0.81436 0.69423 0.35884 0.0
O134 O 0.7858 0.74971 0.38244 0.0
O135 O 0.75488 0.64682 0.37692 0.0
O136 O 0.7709 0.63276 0.40403 0.0
O137 O 0.77757 0.7292 0.35416 0.0
O138 O 0.79567 0.711 0.40856 0.0
O139 O 0.79173 0.66419 0.42049 0.0
C140 C 0.8562 0.73066 0.38753 0.0
C141 C 0.85648 0.60005 0.41344 0.0
C142 C 0.88063 0.56601 0.40904 0.0
C143 C 0.90904 0.58998 0.41751 0.0
C144 C 0.88502 0.62318 0.42221 0.0
C145 C 0.91109 0.61821 0.42411 0.0
C146 C 0.85424 0.57117 0.40707 0.0
C147 C 0.81277 0.6666 0.35571 0.0
C148 C 0.82961 0.60647 0.41045 0.0
C149 C 0.95441 0.73695 0.41992 0.0
C150 C 0.95956 0.73225 0.40107 0.0
C151 C 0.74959 0.6265 0.39074 0.0
C152 C 0.78153 0.78135 0.35643 0.0
C153 C 0.7945 0.83739 0.3576 0.0
C154 C 0.78198 0.8343 0.33938 0.0
C155 C 0.76908 0.77894 0.33819 0.0
C156 C 0.79409 0.81077 0.36623 0.0
C157 C 0.76926 0.80522 0.32979 0.0
C158 C 0.78981 0.69054 0.42247 0.0
C159 C 0.78181 0.75317 0.36461 0.0
H160 H 0.92956 0.58659 0.41936 0.0
H161 H 0.88727 0.64513 0.42766 0.0
H162 H 0.93299 0.63632 0.43081 0.0
H163 H 0.8323 0.55304 0.40038 0.0
H164 H 0.78208 0.85452 0.33258 0.0
H165 H 0.75917 0.75668 0.33035 0.0
H166 H 0.80392 0.81315 0.38026 0.0
H167 H 0.75963 0.80307 0.31574 0.0
Eu168 Eu 0.93957 0.24106 0.133 0.0
C169 C 0.8239 0.12115 0.09428 0.0
N170 N 0.83766 0.15239 0.08881 0.0
C171 C 0.83719 0.13735 0.05661 0.0
C172 C 0.81665 0.09672 0.08095 0.0
C173 C 0.84418 0.1608 0.07031 0.0
C174 C 0.82342 0.10518 0.06194 0.0
C175 C 0.8049 0.08161 0.11943 0.0
C176 C 0.81821 0.11373 0.11338 0.0
C177 C 0.79751 0.05725 0.10617 0.0
C178 C 0.80337 0.06477 0.087 0.0
Eu179 Eu 0.84877 0.19015 0.1129 0.0
N180 N 0.82665 0.13797 0.12605 0.0
C181 C 0.7996 0.0749 0.13869 0.0
C182 C 0.81988 0.13123 0.14472 0.0
C183 C 0.80679 0.09977 0.15134 0.0
H184 H 0.85438 0.18557 0.06606 0.0
H185 H 0.80196 0.09468 0.16621 0.0
H186 H 0.92951 0.26238 0.17625 0.0
H187 H 1.00762 0.31783 0.07355 0.0
H188 H 0.82381 0.1497 0.15462 0.0
H189 H 0.78955 0.05056 0.14389 0.0
H190 H 0.98252 0.26837 0.09253 0.0
H191 H 0.84239 0.14409 0.04194 0.0
H192 H 0.78739 0.03249 0.1106 0.0
H193 H 0.79772 0.04571 0.07696 0.0
H194 H 0.93795 0.31117 0.19294 0.0
H195 H 0.81819 0.0871 0.05129 0.0
H196 H 1.01115 0.36739 0.08621 0.0
N197 N 0.94794 0.2865 0.15029 0.0
C198 C 0.96242 0.31502 0.14092 0.0
C199 C 0.94475 0.31253 0.17829 0.0
C200 C 0.9676 0.3434 0.14983 0.0
C201 C 0.93985 0.28496 0.16884 0.0
C202 C 0.95841 0.34183 0.1687 0.0
N203 N 0.96692 0.28789 0.11418 0.0
C204 C 0.98164 0.28903 0.09754 0.0
C205 C 0.98721 0.34495 0.11236 0.0
C206 C 0.97161 0.31559 0.12228 0.0
C207 C 0.999 0.34534 0.09428 0.0
C208 C 0.99689 0.31739 0.08703 0.0
H209 H 0.96202 0.36313 0.17604 0.0
H210 H 0.98573 0.39435 0.14624 0.0
H211 H 1.00322 0.39579 0.11352 0.0
O212 O 0.98567 0.24171 0.12818 0.0
O213 O 0.90559 0.26177 0.13442 0.0
O214 O 0.87602 0.2435 0.10739 0.0
O215 O 0.97241 0.24973 0.15622 0.0
O216 O 0.93189 0.22224 0.10284 0.0
O217 O 0.88708 0.22353 0.09186 0.0
O218 O 0.80528 0.18841 0.12406 0.0
O219 O 0.8806 0.16765 0.11181 0.0
O220 O 0.91362 0.18698 0.13769 0.0
O221 O 0.80894 0.18162 0.09437 0.0
O222 O 0.85504 0.20552 0.14404 0.0
O223 O 0.90207 0.20759 0.15356 0.0
C224 C 0.88923 0.26518 0.12063 0.0
C225 C 0.0241 0.25251 0.15412 0.0
C226 C 0.07154 0.24575 0.15381 0.0
C227 C 0.0812 0.26228 0.17108 0.0
C228 C 0.03463 0.26902 0.17131 0.0
C229 C 0.06294 0.27383 0.17968 0.0
C230 C 0.04268 0.24083 0.14536 0.0
C231 C 0.91522 0.22539 0.08904 0.0
C232 C 0.99361 0.24766 0.14588 0.0
C233 C 0.98179 0.37234 0.13968 0.0
C234 C 0.9916 0.37312 0.12101 0.0
C235 C 0.89695 0.16408 0.12545 0.0
C236 C 0.77538 0.2023 0.10333 0.0
C237 C 0.72656 0.20668 0.10354 0.0
C238 C 0.74357 0.23576 0.09352 0.0
C239 C 0.79169 0.23135 0.09346 0.0
C240 C 0.74287 0.19006 0.10839 0.0
C241 C 0.77577 0.24784 0.08851 0.0
C242 C 0.87474 0.20643 0.15738 0.0
C243 C 0.79148 0.18378 0.10766 0.0
H244 H 0.10275 0.26588 0.17818 0.0
H245 H 0.02097 0.27833 0.17832 0.0
H246 H 0.0707 0.28646 0.19296 0.0
H247 H 0.03479 0.22811 0.13209 0.0
H248 H 0.73182 0.2489 0.08913 0.0
H249 H 0.81654 0.24095 0.08927 0.0
H250 H 0.73038 0.16761 0.11608 0.0
H251 H 0.78834 0.26986 0.08051 0.0
Eu252 Eu 0.37073 0.17391 0.39916 0.0
C253 C 0.3502 0.05839 0.34423 0.0
N254 N 0.33508 0.07587 0.34431 0.0
C255 C 0.33734 0.07891 0.31063 0.0
C256 C 0.35997 0.05085 0.32719 0.0
C257 C 0.32788 0.08556 0.32788 0.0
C258 C 0.35363 0.06165 0.31028 0.0
C259 C 0.37078 0.02907 0.36169 0.0
C260 C 0.35556 0.04763 0.36126 0.0
C261 C 0.38084 0.02177 0.34476 0.0
C262 C 0.37548 0.03266 0.32756 0.0
Eu263 Eu 0.32113 0.08686 0.3741 0.0
N264 N 0.34623 0.05571 0.37745 0.0
C265 C 0.37541 0.01843 0.37915 0.0
C266 C 0.34961 0.04451 0.39443 0.0
C267 C 0.36457 0.02599 0.39557 0.0
H268 H 0.31457 0.09819 0.32808 0.0
H269 H 0.36766 0.01751 0.40909 0.0
H270 H 0.3474 0.16163 0.44413 0.0
H271 H 0.34851 0.24032 0.34387 0.0
H272 H 0.34098 0.05001 0.4071 0.0
H273 H 0.38705 1.00414 0.38008 0.0
H274 H 0.37455 0.21271 0.35808 0.0
H275 H 0.33189 0.08692 0.29762 0.0
H276 H 0.3927 0.00764 0.3448 0.0
H277 H 0.38324 0.0267 0.31461 0.0
H278 H 0.31457 0.17396 0.46575 0.0
H279 H 0.36082 0.05643 0.29689 0.0
H280 H 0.3111 0.2503 0.3627 0.0
N281 N 0.33957 0.18411 0.4206 0.0
C282 C 0.32606 0.20116 0.41391 0.0
C283 C 0.31753 0.18164 0.4512 0.0
C284 C 0.30702 0.20853 0.42571 0.0
C285 C 0.33596 0.17459 0.43896 0.0
C286 C 0.30292 0.19859 0.44454 0.0
N287 N 0.34863 0.20243 0.38388 0.0
C288 C 0.35658 0.21462 0.36608 0.0
C289 C 0.31594 0.22723 0.38767 0.0
C290 C 0.33035 0.21017 0.39502 0.0
C291 C 0.32173 0.23717 0.36887 0.0
C292 C 0.34261 0.23134 0.35814 0.0
H293 H 0.28845 0.20379 0.45404 0.0
H294 H 0.27731 0.23065 0.4271 0.0
H295 H 0.28519 0.2471 0.39386 0.0
O296 O 0.41394 0.22003 0.39286 0.0
O297 O 0.31597 0.14321 0.40188 0.0
O298 O 0.30271 0.1218 0.37258 0.0
O299 O 0.40258 0.20449 0.42163 0.0
O300 O 0.38277 0.16891 0.36842 0.0
O301 O 0.33251 0.13187 0.35844 0.0
O302 O 0.27826 0.04755 0.38748 0.0
O303 O 0.37574 0.10724 0.37645 0.0
O304 O 0.39563 0.1448 0.40069 0.0
O305 O 0.27969 0.05372 0.35729 0.0
O306 O 0.31745 0.08865 0.40595 0.0
O307 O 0.36278 0.13279 0.41877 0.0
C308 C 0.29585 0.13277 0.38768 0.0
C309 C 0.42746 0.26063 0.41568 0.0
C310 C 0.46114 0.31929 0.41356 0.0
C311 C 0.43844 0.32221 0.42464 0.0
C312 C 0.4055 0.26447 0.42688 0.0
C313 C 0.41095 0.29502 0.43125 0.0
C314 C 0.45548 0.28823 0.40916 0.0
C315 C 0.36229 0.15354 0.35471 0.0
C316 C 0.42095 0.22809 0.41043 0.0
C317 C 0.29226 0.22502 0.4183 0.0
C318 C 0.29664 0.23427 0.39934 0.0
C319 C 0.39818 0.12521 0.38882 0.0
C320 C 0.24742 1.00104 0.36878 0.0
C321 C 0.19778 0.94856 0.36871 0.0
C322 C 0.21525 0.93524 0.36053 0.0
C323 C 0.2642 0.98699 0.36095 0.0
C324 C 0.21445 0.98176 0.37292 0.0
C325 C 0.24817 0.95425 0.35691 0.0
C326 C 0.33778 0.10324 0.41992 0.0
C327 C 0.26337 0.03604 0.37154 0.0
H328 H 0.44224 0.34562 0.42853 0.0
H329 H 0.38411 0.24393 0.43237 0.0
H330 H 0.39383 0.29765 0.43989 0.0
H331 H 0.47256 0.28551 0.4005 0.0
H332 H 0.20352 0.91021 0.3565 0.0
H333 H 0.28951 1.00141 0.3576 0.0
H334 H 0.20194 0.99286 0.3793 0.0
H335 H 0.26119 0.94364 0.3506 0.0
Eu336 Eu 0.78401 0.70414 0.1275 0.0
C337 C 0.89147 0.69446 0.09247 0.0
N338 N 0.85966 0.6766 0.08809 0.0
C339 C 0.87203 0.69147 0.05557 0.0
C340 C 0.91458 0.71295 0.07869 0.0
C341 C 0.85014 0.67317 0.06968 0.0
C342 C 0.90428 0.71201 0.06016 0.0
C343 C 0.9342 0.70864 0.11529 0.0
C344 C 0.90125 0.69248 0.11051 0.0
C345 C 0.9571 0.72848 0.10191 0.0
C346 C 0.9473 0.73072 0.08366 0.0
Eu347 Eu 0.82424 0.64933 0.11374 0.0
N348 N 0.8785 0.67401 0.12333 0.0
C349 C 0.94308 0.70405 0.13332 0.0
C350 C 0.88695 0.66821 0.14062 0.0
C351 C 0.91937 0.68336 0.14595 0.0
H352 H 0.82575 0.65611 0.06562 0.0
H353 H 0.92601 0.6793 0.15981 0.0
H354 H 0.7405 0.66984 0.16614 0.0
H355 H 0.74518 0.74131 0.06482 0.0
H356 H 0.86848 0.65244 0.1504 0.0
H357 H 0.96815 0.71601 0.13752 0.0
H358 H 0.78395 0.7438 0.08868 0.0
H359 H 0.86408 0.68931 0.0411 0.0
H360 H 0.98249 0.74164 0.10541 0.0
H361 H 0.96531 0.74543 0.07332 0.0
H362 H 0.68306 0.63678 0.17532 0.0
H363 H 0.92125 0.72588 0.04916 0.0
H364 H 0.68705 0.70202 0.06839 0.0
N365 N 0.72986 0.67457 0.1377 0.0
C366 C 0.70684 0.6696 0.12492 0.0
C367 C 0.68942 0.64568 0.16106 0.0
C368 C 0.6739 0.65097 0.12943 0.0
C369 C 0.7218 0.66443 0.15589 0.0
C370 C 0.66535 0.63834 0.14765 0.0
N371 N 0.74835 0.70522 0.10486 0.0
C372 C 0.75868 0.72624 0.09013 0.0
C373 C 0.69335 0.6832 0.09477 0.0
C374 C 0.71644 0.68534 0.10785 0.0
C375 C 0.70401 0.70281 0.07876 0.0
C376 C 0.73677 0.72503 0.0767 0.0
H377 H 0.6403 0.62388 0.15169 0.0
H378 H 0.62527 0.63217 0.11897 0.0
H379 H 0.64233 0.66056 0.08859 0.0
O380 O 0.7838 0.74969 0.12904 0.0
O381 O 0.75413 0.64928 0.13088 0.0
O382 O 0.77154 0.62929 0.10705 0.0
O383 O 0.79939 0.73352 0.15288 0.0
O384 O 0.80683 0.70819 0.09882 0.0
O385 O 0.79452 0.65711 0.09111 0.0
O386 O 0.81541 0.605 0.12739 0.0
O387 O 0.85125 0.69622 0.13008 0.0
O388 O 0.83444 0.72714 0.1154 0.0
O389 O 0.83232 0.61408 0.09878 0.0
O390 O 0.80541 0.64258 0.14396 0.0
O391 O 0.80307 0.68844 0.15208 0.0
C392 C 0.74923 0.62638 0.11888 0.0
C393 C 0.82789 0.78924 0.14651 0.0
C394 C 0.85583 0.8478 0.1435 0.0
C395 C 0.88514 0.84888 0.14729 0.0
C396 C 0.85755 0.79118 0.15044 0.0
C397 C 0.88588 0.82077 0.15076 0.0
C398 C 0.82712 0.81774 0.14321 0.0
C399 C 0.79611 0.68451 0.08668 0.0
C400 C 0.79817 0.75749 0.14529 0.0
C401 C 0.65073 0.64677 0.1159 0.0
C402 C 0.66045 0.66291 0.09859 0.0
C403 C 0.85723 0.7242 0.12365 0.0
C404 C 0.80234 0.55978 0.10868 0.0
C405 C 0.79388 0.50523 0.10887 0.0
C406 C 0.76177 0.49362 0.10329 0.0
C407 C 0.77035 0.54775 0.10304 0.0
C408 C 0.81411 0.53854 0.11144 0.0
C409 C 0.7502 0.51479 0.10032 0.0
C410 C 0.80382 0.66214 0.15648 0.0
C411 C 0.82327 0.59409 0.11283 0.0
H412 H 0.90752 0.87159 0.14785 0.0
H413 H 0.85894 0.7698 0.15323 0.0
H414 H 0.9085 0.82188 0.15374 0.0
H415 H 0.80439 0.81646 0.1401 0.0
H416 H 0.74568 0.46818 0.10105 0.0
H417 H 0.76096 0.56381 0.10094 0.0
H418 H 0.83875 0.54787 0.11607 0.0
H419 H 0.72547 0.5056 0.09602 0.0
Eu420 Eu 0.8461 0.19803 0.40018 0.0
C421 C 0.95579 0.27937 0.33612 0.0
N422 N 0.9404 0.24797 0.34117 0.0
C423 C 0.93258 0.23221 0.30873 0.0
C424 C 0.95944 0.28851 0.31702 0.0
C425 C 0.92997 0.22441 0.32788 0.0
C426 C 0.94699 0.2644 0.30327 0.0
C427 C 0.98798 0.33521 0.34538 0.0
C428 C 0.96973 0.3024 0.35009 0.0
C429 C 0.99053 0.34457 0.32642 0.0
C430 C 0.97622 0.32127 0.31227 0.0
Eu431 Eu 0.93413 0.23694 0.37374 0.0
N432 N 0.96683 0.29254 0.36824 0.0
C433 C 1.00377 0.35749 0.35983 0.0
C434 C 0.98359 0.31385 0.38228 0.0
C435 C 1.00191 0.3467 0.37833 0.0
H436 H 0.91915 0.19952 0.33209 0.0
H437 H 0.01452 0.36366 0.38954 0.0
H438 H 0.86071 0.18516 0.44446 0.0
H439 H 0.77713 0.11194 0.34428 0.0
H440 H 0.98196 0.30545 0.39657 0.0
H441 H 0.01801 0.38293 0.35681 0.0
H442 H 0.8076 0.16516 0.35864 0.0
H443 H 0.92356 0.21343 0.2982 0.0
H444 H 1.00414 0.36971 0.32253 0.0
H445 H 0.97903 0.32879 0.29768 0.0
H446 H 0.84728 0.13914 0.46541 0.0
H447 H 0.94922 0.2704 0.28844 0.0
H448 H 0.76413 0.06355 0.3629 0.0
N449 N 0.8366 0.15597 0.42077 0.0
C450 C 0.81815 0.12575 0.4139 0.0
C451 C 0.83906 0.13506 0.45095 0.0
C452 C 0.80954 0.0988 0.42547 0.0
C453 C 0.84685 0.16106 0.43902 0.0
C454 C 0.82032 0.10379 0.44416 0.0
N455 N 0.81694 0.14821 0.38423 0.0
C456 C 0.80468 0.1448 0.36649 0.0
C457 C 0.78919 0.09053 0.38777 0.0
C458 C 0.80834 0.12176 0.39514 0.0
C459 C 0.77879 0.08711 0.36908 0.0
C460 C 0.78629 0.11437 0.35847 0.0
H461 H 0.81426 0.08369 0.45345 0.0
H462 H 0.7838 0.04683 0.42677 0.0
H463 H 0.76547 0.03958 0.39394 0.0
O464 O 0.79799 0.19113 0.39551 0.0
O465 O 0.87913 0.17645 0.40205 0.0
O466 O 0.89794 0.18389 0.37218 0.0
O467 O 0.81762 0.20067 0.42356 0.0
O468 O 0.85021 0.21657 0.36994 0.0
O469 O 0.88705 0.20386 0.35968 0.0
O470 O 0.96173 0.22126 0.39081 0.0
O471 O 0.91864 0.27402 0.37984 0.0
O472 O 0.87051 0.25173 0.39701 0.0
O473 O 0.97722 0.2384 0.36252 0.0
O474 O 0.93502 0.24527 0.40514 0.0
O475 O 0.88624 0.22941 0.42078 0.0
C476 C 0.88774 0.16604 0.38734 0.0
C477 C 0.76068 0.16686 0.42018 0.0
C478 C 0.70165 0.13952 0.41917 0.0
C479 C 0.70049 0.11652 0.43189 0.0
C480 C 0.75869 0.14365 0.43295 0.0
C481 C 0.72878 0.11865 0.4387 0.0
C482 C 0.73203 0.16478 0.41342 0.0
C483 C 0.86665 0.21356 0.3561 0.0
C484 C 0.79223 0.19263 0.41324 0.0
C485 C 0.79067 0.06781 0.41808 0.0
C486 C 0.7804 0.06369 0.39933 0.0
C487 C 0.8955 0.27598 0.38881 0.0
C488 C 0.98569 0.19703 0.37337 0.0
C489 C 0.01751 0.17024 0.37529 0.0
C490 C 0.99219 0.14317 0.36646 0.0
C491 C 0.9612 0.17006 0.36415 0.0
C492 C 0.01404 0.19723 0.37876 0.0
C493 C 0.96433 0.14319 0.36089 0.0
C494 C 0.91806 0.24287 0.42032 0.0
C495 C 0.98155 0.22482 0.37723 0.0
H496 H 0.67764 0.09709 0.43685 0.0
H497 H 0.78017 0.1447 0.43849 0.0
H498 H 0.72751 0.10086 0.44854 0.0
H499 H 0.73344 0.1825 0.40345 0.0
H500 H 0.99426 0.12221 0.36344 0.0
H501 H 0.93976 0.1699 0.35936 0.0
H502 H 0.03316 0.21818 0.38571 0.0
H503 H 0.9452 0.12242 0.35386 0.0
Eu504 Eu 0.18214 0.36772 0.61045 0.0
C505 C 0.06695 0.35109 0.66372 0.0
N506 N 0.08317 0.33469 0.66437 0.0
C507 C 0.08493 0.33767 0.69806 0.0
C508 C 0.05935 0.36178 0.68038 0.0
C509 C 0.09165 0.32729 0.68116 0.0
C510 C 0.06882 0.35511 0.69767 0.0
C511 C 0.0406 0.37373 0.64516 0.0
C512 C 0.05778 0.35711 0.64631 0.0
C513 C 0.03315 0.38458 0.66173 0.0
C514 C 0.04254 0.37868 0.67928 0.0
Eu515 Eu 0.09511 0.32 0.63512 0.0
N516 N 0.06609 0.34708 0.63046 0.0
C517 C 0.03139 0.37888 0.62737 0.0
C518 C 0.05618 0.35095 0.61316 0.0
C519 C 0.03898 0.36719 0.61133 0.0
H520 H 0.10331 0.31307 0.68151 0.0
H521 H 0.0315 0.3706 0.59755 0.0
H522 H 0.16984 0.3537 0.56402 0.0
H523 H 0.2433 0.32994 0.66087 0.0
H524 H 0.0615 0.34156 0.60079 0.0
H525 H 0.01813 0.39153 0.62589 0.0
H526 H 0.21456 0.35751 0.65074 0.0
H527 H 0.09201 0.33206 0.71136 0.0
H528 H 0.02006 0.3975 0.66112 0.0
H529 H 0.03655 0.38714 0.69194 0.0
H530 H 0.1828 0.32622 0.5391 0.0
H531 H 0.06354 0.36302 0.71079 0.0
H532 H 0.25788 0.30122 0.63758 0.0
N533 N 0.1923 0.34147 0.58574 0.0
C534 C 0.20969 0.32719 0.59033 0.0
C535 C 0.19037 0.32621 0.55346 0.0
C536 C 0.21796 0.31159 0.57647 0.0
C537 C 0.18279 0.34147 0.56763 0.0
C538 C 0.20803 0.31121 0.55788 0.0
N539 N 0.20924 0.34165 0.62234 0.0
C540 C 0.21894 0.34363 0.64059 0.0
C541 C 0.23603 0.31219 0.61419 0.0
C542 C 0.21838 0.32727 0.6091 0.0
C543 C 0.24444 0.31264 0.6331 0.0
C544 C 0.23605 0.32863 0.64632 0.0
H545 H 0.21391 0.29944 0.54685 0.0
H546 H 0.24247 0.28489 0.57108 0.0
H547 H 0.25898 0.28615 0.60394 0.0
O548 O 0.22791 0.40877 0.61966 0.0
O549 O 0.15271 0.3129 0.60897 0.0
O550 O 0.12874 0.30007 0.6378 0.0
O551 O 0.21681 0.40121 0.59005 0.0
O552 O 0.17788 0.37868 0.64156 0.0
O553 O 0.13861 0.32946 0.652 0.0
O554 O 0.05707 0.27715 0.6213 0.0
O555 O 0.1184 0.37489 0.63367 0.0
O556 O 0.15284 0.39233 0.60804 0.0
O557 O 0.05841 0.28011 0.65168 0.0
O558 O 0.0982 0.31502 0.60346 0.0
O559 O 0.14122 0.36111 0.59098 0.0
C560 C 0.14097 0.2931 0.62329 0.0
C561 C 0.25254 0.45465 0.59996 0.0
C562 C 0.30082 0.50813 0.60037 0.0
C563 C 0.28215 0.52094 0.59335 0.0
C564 C 0.2346 0.46806 0.59292 0.0
C565 C 0.24938 0.50101 0.58964 0.0
C566 C 0.28561 0.47478 0.6038 0.0
C567 C 0.16206 0.35864 0.65541 0.0
C568 C 0.23745 0.41965 0.60269 0.0
C569 C 0.23571 0.2968 0.58156 0.0
C570 C 0.24493 0.29733 0.60031 0.0
C571 C 0.13596 0.39679 0.621 0.0
C572 C 1.00755 0.24818 0.63741 0.0
C573 C 0.95454 0.19949 0.6364 0.0
C574 C 0.94024 0.21877 0.6381 0.0
C575 C 0.99277 0.26685 0.63906 0.0
C576 C 0.98843 0.21458 0.63608 0.0
C577 C 0.95926 0.25215 0.6394 0.0
C578 C 0.11209 0.33555 0.58956 0.0
C579 C 0.04283 0.26325 0.63701 0.0
H580 H 0.29288 0.54646 0.59077 0.0
H581 H 0.2093 0.45297 0.58974 0.0
H582 H 0.23541 0.51113 0.58404 0.0
H583 H 0.29959 0.46433 0.60897 0.0
H584 H 0.91432 0.20803 0.6387 0.0
H585 H 1.00708 0.2927 0.64011 0.0
H586 H 1.00001 0.2003 0.63456 0.0
H587 H 0.94797 0.26668 0.64075 0.0
Eu588 Eu 0.23832 0.9258 0.87395 0.0
C589 C 0.12818 0.81235 0.91336 0.0
N590 N 0.15844 0.82953 0.92054 0.0
C591 C 0.1373 0.83244 0.95054 0.0
C592 C 0.10112 0.80508 0.92458 0.0
C593 C 0.16343 0.83927 0.93887 0.0
C594 C 0.10602 0.81538 0.94335 0.0
C595 C 0.09318 0.78526 0.88679 0.0
C596 C 0.12437 0.80284 0.89457 0.0
C597 C 0.06622 0.77832 0.89787 0.0
C598 C 0.07017 0.78818 0.9167 0.0
Eu599 Eu 0.20095 0.83949 0.90005 0.0
N600 N 0.15097 0.81033 0.88401 0.0
C601 C 0.08992 0.77463 0.86817 0.0
C602 C 0.14753 0.79727 0.86651 0.0
C603 C 0.11718 0.78013 0.85812 0.0
H604 H 0.1876 0.85231 0.94447 0.0
H605 H 0.11477 0.77053 0.84405 0.0
H606 H 0.2142 0.9133 0.8289 0.0
H607 H 0.35896 0.99738 0.90348 0.0
H608 H 0.16779 0.79877 0.85912 0.0
H609 H 0.06639 0.76112 0.86167 0.0
H610 H 0.29947 0.96565 0.90426 0.0
H611 H 0.14129 0.84034 0.96506 0.0
H612 H 0.04215 0.76499 0.89206 0.0
H613 H 0.04912 0.78258 0.92507 0.0
H614 H 0.23863 0.92139 0.79722 0.0
H615 H 0.08585 0.81028 0.95241 0.0
H616 H 0.38775 0.00729 0.87311 0.0
N617 N 0.25915 0.93521 0.84312 0.0
C618 C 0.29175 0.9518 0.84158 0.0
C619 C 0.25384 0.92996 0.80958 0.0
C620 C 0.30675 0.9576 0.82381 0.0
C621 C 0.24008 0.92512 0.8275 0.0
C622 C 0.28733 0.94603 0.80773 0.0
N623 N 0.29496 0.95731 0.87474 0.0
C624 C 0.31188 0.96993 0.89097 0.0
C625 C 0.34403 0.9815 0.8567 0.0
C626 C 0.31018 0.9636 0.85781 0.0
C627 C 0.36169 0.99347 0.87337 0.0
C628 C 0.34552 0.98789 0.89055 0.0
H629 H 0.29792 0.94983 0.79382 0.0
H630 H 0.3525 0.97952 0.80914 0.0
H631 H 0.38511 1.00045 0.83791 0.0
O632 O 0.22787 0.95969 0.88846 0.0
O633 O 0.27325 0.90661 0.87737 0.0
O634 O 0.2552 0.86772 0.90099 0.0
O635 O 0.2369 0.96442 0.85855 0.0
O636 O 0.23894 0.92672 0.90591 0.0
O637 O 0.23341 0.88017 0.92003 0.0
O638 O 0.19829 0.79342 0.89446 0.0
O639 O 0.17812 0.87128 0.9025 0.0
O640 O 0.18515 0.88991 0.87266 0.0
O641 O 0.2011 0.80922 0.92306 0.0
O642 O 0.21863 0.84424 0.86949 0.0
O643 O 0.2045 0.88013 0.8589 0.0
C644 C 0.27748 0.88804 0.88937 0.0
C645 C 0.19883 0.97745 0.87012 0.0
C646 C 0.1715 0.00873 0.87238 0.0
C647 C 0.14314 0.98198 0.86566 0.0
C648 C 0.17045 0.95144 0.86302 0.0
C649 C 0.14273 0.95363 0.86097 0.0
C650 C 0.19941 1.00624 0.87462 0.0
C651 C 0.24058 0.9106 0.92052 0.0
C652 C 0.22752 0.97423 0.87303 0.0
C653 C 0.34052 0.97495 0.82266 0.0
C654 C 0.3591 0.9869 0.83905 0.0
C655 C 0.16783 0.88047 0.88802 0.0
C656 C 0.16998 0.75299 0.91712 0.0
C657 C 0.14468 0.69439 0.91458 0.0
C658 C 0.11863 0.69129 0.92531 0.0
C659 C 0.14371 0.74901 0.92793 0.0
C660 C 0.17046 0.72551 0.91059 0.0
C661 C 0.11825 0.71838 0.93193 0.0
C662 C 0.21309 0.8588 0.85551 0.0
C663 C 0.19636 0.78554 0.91211 0.0
H664 H 0.12141 0.9832 0.86362 0.0
H665 H 0.16975 0.92947 0.85897 0.0
H666 H 0.12091 0.93336 0.85557 0.0
H667 H 0.22134 0.02646 0.88001 0.0
H668 H 0.09868 0.66781 0.92888 0.0
H669 H 0.14276 0.7695 0.93332 0.0
H670 H 0.19058 0.72839 0.90217 0.0
H671 H 0.09813 0.71561 0.94026 0.0
Eu672 Eu 0.66318 0.82743 0.61297 0.0
C673 C 0.67676 0.72269 0.66159 0.0
N674 N 0.69362 0.75516 0.66346 0.0
C675 C 0.68986 0.7502 0.69706 0.0
C676 C 0.66527 0.7026 0.67754 0.0
C677 C 0.70086 0.76912 0.68082 0.0
C678 C 0.67179 0.7168 0.69542 0.0
C679 C 0.65391 0.67589 0.6412 0.0
C680 C 0.67111 0.70947 0.64363 0.0
C681 C 0.64217 0.6558 0.65705 0.0
C682 C 0.64781 0.66912 0.67517 0.0
Eu683 Eu 0.70969 0.78507 0.6353 0.0
N684 N 0.68206 0.72955 0.62852 0.0
C685 C 0.6491 0.66352 0.62289 0.0
C686 C 0.67857 0.71767 0.61071 0.0
C687 C 0.66174 0.68451 0.6076 0.0
H688 H 0.71557 0.79486 0.68212 0.0
H689 H 0.65863 0.67517 0.59342 0.0
H690 H 0.68041 0.83618 0.56693 0.0
H691 H 0.69772 0.91858 0.66829 0.0
H692 H 0.68872 0.73364 0.5989 0.0
H693 H 0.63601 0.63785 0.62042 0.0
H694 H 0.66881 0.86432 0.65502 0.0
H695 H 0.69549 0.76139 0.71081 0.0
H696 H 0.6288 0.62993 0.65546 0.0
H697 H 0.63871 0.6533 0.68726 0.0
H698 H 0.71106 0.88011 0.54425 0.0
H699 H 0.66333 0.7022 0.70803 0.0
H700 H 0.73133 0.96497 0.64773 0.0
N701 N 0.69186 0.86752 0.59036 0.0
C702 C 0.70676 0.89837 0.59664 0.0
C703 C 0.71013 0.88554 0.55895 0.0
C704 C 0.72451 0.92415 0.58417 0.0
C705 C 0.69298 0.86073 0.57183 0.0
C706 C 0.72601 0.91738 0.56514 0.0
N707 N 0.68887 0.87866 0.62761 0.0
C708 C 0.68488 0.88376 0.64607 0.0
C709 C 0.72143 0.93587 0.62267 0.0
C710 C 0.70538 0.90408 0.61576 0.0
C711 C 0.71927 0.94094 0.64187 0.0
C712 C 0.70056 0.9148 0.65356 0.0
H713 H 0.73942 0.93654 0.55513 0.0
H714 H 0.75441 0.97582 0.58172 0.0
H715 H 0.75165 0.98609 0.61538 0.0
O716 O 0.62295 0.83344 0.62199 0.0
O717 O 0.71787 0.85104 0.61076 0.0
O718 O 0.73075 0.83867 0.63915 0.0
O719 O 0.62994 0.82901 0.59244 0.0
O720 O 0.6517 0.80915 0.64355 0.0
O721 O 0.70085 0.81803 0.65354 0.0
O722 O 0.75239 0.78948 0.62137 0.0
O723 O 0.65449 0.75407 0.63371 0.0
O724 O 0.63752 0.7737 0.60915 0.0
O725 O 0.74931 0.78744 0.65174 0.0
O726 O 0.71487 0.79536 0.60386 0.0
O727 O 0.66944 0.79483 0.59203 0.0
C728 C 0.73772 0.85862 0.62502 0.0
C729 C 0.57665 0.81102 0.60288 0.0
C730 C 0.5227 0.80465 0.60379 0.0
C731 C 0.50968 0.77178 0.59971 0.0
C732 C 0.56306 0.77826 0.59889 0.0
C733 C 0.52975 0.75877 0.59731 0.0
C734 C 0.55645 0.82416 0.60532 0.0
C735 C 0.67175 0.81247 0.65722 0.0
C736 C 0.61174 0.83159 0.60508 0.0
C737 C 0.74056 0.95574 0.59108 0.0
C738 C 0.73904 0.96157 0.61026 0.0
C739 C 0.63292 0.75093 0.62108 0.0
C740 C 0.78092 0.76835 0.63742 0.0
C741 C 0.82942 0.76363 0.63654 0.0
C742 C 0.80983 0.73019 0.63893 0.0
C743 C 0.76196 0.73503 0.63968 0.0
C744 C 0.81453 0.78254 0.63579 0.0
C745 C 0.77641 0.71609 0.64042 0.0
C746 C 0.69468 0.7909 0.59005 0.0
C747 C 0.76616 0.78876 0.63706 0.0
H748 H 0.48396 0.75612 0.59812 0.0
H749 H 0.57827 0.76786 0.597 0.0
H750 H 0.51942 0.73347 0.59417 0.0
H751 H 0.56703 0.84942 0.60871 0.0
H752 H 0.82031 0.71489 0.63995 0.0
H753 H 0.73609 0.72371 0.64099 0.0
H754 H 0.82898 0.80829 0.63379 0.0
H755 H 0.76167 0.69038 0.64229 0.0
Eu756 Eu 0.08809 0.31524 0.87447 0.0
C757 C 0.20356 0.31942 0.9169 0.0
N758 N 0.18677 0.33396 0.92229 0.0
C759 C 0.18432 0.31592 0.95399 0.0
C760 C 0.21087 0.30192 0.92996 0.0
C761 C 0.17737 0.33279 0.94053 0.0
C762 C 0.20105 0.30034 0.94869 0.0
C763 C 0.22924 0.30566 0.89205 0.0
C764 C 0.21252 0.32122 0.89809 0.0
C765 C 0.23638 0.28805 0.90501 0.0
C766 C 0.22728 0.28623 0.92391 0.0
Eu767 Eu 0.1762 0.36193 0.89875 0.0
N768 N 0.20449 0.33774 0.8857 0.0
C769 C 0.23843 0.30836 0.87315 0.0
C770 C 0.21533 0.34215 0.86757 0.0
C771 C 0.23184 0.32706 0.86094 0.0
H772 H 0.16477 0.34511 0.94473 0.0
H773 H 0.23991 0.33027 0.84646 0.0
H774 H 0.10209 0.344 0.83043 0.0
H775 H 1.0077 0.31891 0.92801 0.0
H776 H 0.2123 0.35798 0.85822 0.0
H777 H 0.25128 0.29674 0.86796 0.0
H778 H 0.04014 0.29867 0.91294 0.0
H779 H 0.17678 0.31495 0.96846 0.0
H780 H 0.24902 0.27579 0.90057 0.0
H781 H 0.23295 0.27252 0.93372 0.0
H782 H 0.09053 0.37924 0.81051 0.0
H783 H 0.20622 0.28714 0.95915 0.0
H784 H 0.99882 0.35918 0.91161 0.0
N785 N 0.0773 0.34756 0.8542 0.0
C786 C 0.05841 0.35872 0.8613 0.0
C787 C 0.08153 0.37381 0.82479 0.0
C788 C 0.05112 0.37879 0.85043 0.0
C789 C 0.0883 0.35414 0.83612 0.0
C790 C 0.06304 0.38636 0.83201 0.0
N791 N 0.05415 0.33085 0.88975 0.0
C792 C 0.03864 0.31798 0.90633 0.0
C793 C 0.0273 0.36178 0.88732 0.0
C794 C 0.04703 0.3506 0.87967 0.0
C795 C 0.01411 0.35119 0.90525 0.0
C796 C 0.01925 0.32864 0.91461 0.0
H797 H 0.05798 0.40172 0.82322 0.0
H798 H 0.02678 0.40646 0.85021 0.0
H799 H 1.00568 0.39134 0.88241 0.0
O800 O 0.04489 0.26715 0.8785 0.0
O801 O 0.11613 0.37044 0.8741 0.0
O802 O 0.14449 0.38392 0.90179 0.0
O803 O 0.05964 0.28788 0.85039 0.0
O804 O 0.09236 0.30535 0.90547 0.0
O805 O 0.13408 0.35253 0.91791 0.0
O806 O 0.22158 0.4051 0.89092 0.0
O807 O 0.14749 0.30726 0.89998 0.0
O808 O 0.12002 0.29299 0.87204 0.0
O809 O 0.20758 0.39604 0.92005 0.0
O810 O 0.17213 0.37252 0.86756 0.0
O811 O 0.13067 0.3244 0.85665 0.0
C812 C 0.13023 0.39044 0.88817 0.0
C813 C 1.01162 0.23534 0.8516 0.0
C814 C 0.96989 0.17855 0.85162 0.0
C815 C 0.96269 0.18158 0.83283 0.0
C816 C 1.00365 0.23765 0.83282 0.0
C817 C 0.9793 0.21099 0.82358 0.0
C818 C 0.99419 0.20567 0.86113 0.0
C819 C 0.10643 0.3253 0.91968 0.0
C820 C 0.03914 0.26367 0.86045 0.0
C821 C 0.03243 0.39081 0.85829 0.0
C822 C 0.02055 0.38232 0.87667 0.0
C823 C 0.13461 0.28726 0.88587 0.0
C824 C 0.26361 0.42216 0.91347 0.0
C825 C 0.32187 0.45987 0.91332 0.0
C826 C 0.32616 0.43823 0.92455 0.0
C827 C 0.26881 0.40126 0.92483 0.0
C828 C 0.29039 0.45146 0.90756 0.0
C829 C 0.29985 0.40916 0.93017 0.0
C830 C 0.156 0.3527 0.85364 0.0
C831 C 0.23039 0.41388 0.90826 0.0
H832 H 0.944 0.1611 0.82532 0.0
H833 H 0.01645 0.2601 0.82517 0.0
H834 H 0.97346 0.21307 0.80911 0.0
H835 H 1.00013 0.2034 0.87556 0.0
H836 H 0.35002 0.44382 0.92899 0.0
H837 H 0.2489 0.37895 0.92983 0.0
H838 H 0.28667 0.46796 0.89899 0.0
H839 H 0.30349 0.39279 0.93889 0.0
Eu840 Eu 0.20405 0.84082 0.61242 0.0
C841 C 0.31023 0.95894 0.65386 0.0
N842 N 0.2781 0.94387 0.65748 0.0
C843 C 0.28851 0.94457 0.69054 0.0
C844 C 0.3327 0.96587 0.66846 0.0
C845 C 0.26721 0.93837 0.6756 0.0
C846 C 0.32133 0.9577 0.68694 0.0
C847 C 0.35397 0.98672 0.63154 0.0
C848 C 0.32081 0.96944 0.63569 0.0
C849 C 0.37638 0.99219 0.64584 0.0
C850 C 0.36577 0.98179 0.66427 0.0
Eu851 Eu 0.24396 0.93225 0.63101 0.0
N852 N 0.29854 0.96337 0.62211 0.0
C853 C 0.36356 0.99852 0.61323 0.0
C854 C 0.30767 0.97639 0.60456 0.0
C855 C 0.34031 0.99375 0.59977 0.0
H856 H 0.24221 0.92987 0.67861 0.0
H857 H 0.34751 1.00344 0.58571 0.0
H858 H 0.18942 0.85012 0.56757 0.0
H859 H 0.11988 0.76883 0.66858 0.0
H860 H 0.2897 0.97293 0.59425 0.0
H861 H 0.38883 0.01193 0.60948 0.0
H862 H 0.17287 0.80098 0.65395 0.0
H863 H 0.27966 0.93978 0.70484 0.0
H864 H 0.40197 1.00511 0.6429 0.0
H865 H 0.38336 0.98699 0.67527 0.0
H866 H 0.14256 0.83413 0.54671 0.0
H867 H 0.3378 0.96272 0.69857 0.0
H868 H 0.07053 0.75404 0.65034 0.0
N869 N 0.16087 0.82744 0.59173 0.0
C870 C 0.13083 0.80819 0.59877 0.0
C871 C 0.13894 0.82688 0.56135 0.0
C872 C 0.10342 0.79833 0.58733 0.0
C873 C 0.1654 0.83611 0.57321 0.0
C874 C 0.1078 0.8081 0.56846 0.0
N875 N 0.15445 0.80819 0.6282 0.0
C876 C 0.15189 0.79658 0.64606 0.0
C877 C 0.09653 0.77916 0.62523 0.0
C878 C 0.12752 0.79881 0.61757 0.0
C879 C 0.09389 0.76908 0.64394 0.0
C880 C 0.12169 0.77752 0.65432 0.0
H881 H 0.08734 0.80105 0.55924 0.0
H882 H 0.05128 0.77159 0.58651 0.0
H883 H 0.04524 0.7546 0.6196 0.0
O884 O 0.18917 0.78984 0.61182 0.0
O885 O 0.17838 0.86947 0.609 0.0
O886 O 0.19108 0.89724 0.63651 0.0
O887 O 0.22505 0.82218 0.59218 0.0
O888 O 0.21855 0.84891 0.64369 0.0
O889 O 0.21455 0.89317 0.65256 0.0
O890 O 0.23159 0.96578 0.61785 0.0
O891 O 0.27578 0.91394 0.61838 0.0
O892 O 0.25038 0.86233 0.62894 0.0
O893 O 0.2488 0.9738 0.6464 0.0
O894 O 0.2288 0.92243 0.60042 0.0
O895 O 0.23511 0.87988 0.59083 0.0
C896 C 0.17015 0.88109 0.62326 0.0
C897 C 0.2291 0.77749 0.60332 0.0
C898 C 0.23082 0.72901 0.61186 0.0
C899 C 0.26452 0.7477 0.61332 0.0
C900 C 0.2628 0.79551 0.60471 0.0
C901 C 0.2803 0.78063 0.60972 0.0
C902 C 0.21325 0.74414 0.60673 0.0
C903 C 0.21539 0.86687 0.6567 0.0
C904 C 0.21001 0.79313 0.59907 0.0
C905 C 0.07262 0.77923 0.59505 0.0
C906 C 0.06919 0.76966 0.61392 0.0
C907 C 0.2767 0.88832 0.62382 0.0
C908 C 0.20826 0.98588 0.63889 0.0
C909 C 0.18017 0.01642 0.63902 0.0
C910 C 0.15386 0.99051 0.64799 0.0
C911 C 0.182 0.96064 0.64825 0.0
C912 C 0.20745 0.01396 0.63448 0.0
C913 C 0.1549 0.96289 0.65265 0.0
C914 C 0.23664 0.90776 0.58762 0.0
C915 C 0.23574 0.98221 0.63318 0.0
H916 H 0.27877 0.73677 0.61701 0.0
H917 H 0.27562 0.82111 0.60206 0.0
H918 H 0.30621 0.79464 0.61087 0.0
H919 H 0.18723 0.73014 0.60578 0.0
H920 H 0.1327 0.9919 0.65173 0.0
H921 H 0.18241 0.93915 0.65217 0.0
H922 H 0.22771 0.03358 0.62731 0.0
H923 H 0.13468 0.94321 0.65975 0.0
Eu924 Eu 0.70642 0.7771 0.87772 0.0
C925 C 0.69946 0.8877 0.91906 0.0
N926 N 0.68656 0.85647 0.9244 0.0
C927 C 0.70492 0.8726 0.95601 0.0
C928 C 0.71603 0.91274 0.93215 0.0
C929 C 0.68867 0.84856 0.94257 0.0
C930 C 0.71871 0.90482 0.95078 0.0
C931 C 0.70994 0.92678 0.89446 0.0
C932 C 0.69667 0.89457 0.90033 0.0
C933 C 0.72636 0.95175 0.90749 0.0
C934 C 0.72949 0.94476 0.92625 0.0
Eu935 Eu 0.65852 0.81765 0.90103 0.0
N936 N 0.681 0.86988 0.88791 0.0
C937 C 0.70597 0.93296 0.8757 0.0
C938 C 0.67552 0.87588 0.8699 0.0
C939 C 0.68845 0.9074 0.86343 0.0
H940 H 0.67746 0.82369 0.94678 0.0
H941 H 0.6843 0.91194 0.84906 0.0
H942 H 0.67556 0.75911 0.83415 0.0
H943 H 0.70763 0.69734 0.93242 0.0
H944 H 0.66026 0.85668 0.86055 0.0
H945 H 0.71563 0.95734 0.87067 0.0
H946 H 0.72648 0.74888 0.91614 0.0
H947 H 0.70664 0.86627 0.97042 0.0
H948 H 0.73666 0.9766 0.90322 0.0
H949 H 0.74231 0.96432 0.9361 0.0
H950 H 0.63962 0.71079 0.81543 0.0
H951 H 0.73128 0.92339 0.96124 0.0
H952 H 0.66592 0.64695 0.91767 0.0
N953 N 0.67315 0.73253 0.85857 0.0
C954 C 0.66239 0.70306 0.86641 0.0
C955 C 0.6457 0.70831 0.82977 0.0
C956 C 0.6418 0.67491 0.85629 0.0
C957 C 0.66586 0.73559 0.84039 0.0
C958 C 0.63339 0.67785 0.83781 0.0
N959 N 0.69211 0.7288 0.89404 0.0
C960 C 0.70662 0.72747 0.91027 0.0
C961 C 0.66122 0.67092 0.89308 0.0
C962 C 0.67165 0.70121 0.88475 0.0
C963 C 0.67332 0.66972 0.9108 0.0
C964 C 0.69671 0.6981 0.91923 0.0
H965 H 0.61764 0.65678 0.82957 0.0
H966 H 0.61426 0.62294 0.85739 0.0
H967 H 0.63151 0.61942 0.88949 0.0
O968 O 0.75463 0.78193 0.88146 0.0
O969 O 0.65104 0.75018 0.87638 0.0
O970 O 0.6365 0.764 0.90396 0.0
O971 O 0.73309 0.77521 0.85354 0.0
O972 O 0.71554 0.79197 0.90865 0.0
O973 O 0.66721 0.78464 0.92029 0.0
O974 O 0.61481 0.81883 0.89316 0.0
O975 O 0.71336 0.84467 0.90254 0.0
O976 O 0.72937 0.83139 0.87522 0.0
O977 O 0.62432 0.81479 0.92232 0.0
O978 O 0.64943 0.80369 0.86965 0.0
O979 O 0.69796 0.81027 0.85934 0.0
C980 C 0.63036 0.74374 0.89015 0.0
C981 C 0.78527 0.77892 0.85436 0.0
C982 C 0.8419 0.79295 0.85378 0.0
C983 C 0.83742 0.7806 0.83539 0.0
C984 C 0.78165 0.76676 0.83597 0.0
C985 C 0.80751 0.7675 0.82663 0.0
C986 C 0.81547 0.79164 0.86339 0.0
C987 C 0.69454 0.78456 0.92244 0.0
C988 C 0.75745 0.77884 0.86344 0.0
C989 C 0.63031 0.64483 0.86489 0.0
C990 C 0.64001 0.64285 0.88322 0.0
C991 C 0.7336 0.85218 0.88849 0.0
C992 C 0.59918 0.84541 0.91534 0.0
C993 C 0.56574 0.87055 0.91198 0.0
C994 C 0.58687 0.8952 0.92417 0.0
C995 C 0.61943 0.87023 0.92767 0.0
C996 C 0.57205 0.84551 0.90763 0.0
C997 C 0.61339 0.89496 0.93193 0.0
C998 C 0.66996 0.80789 0.85601 0.0
C999 C 0.60648 0.81969 0.9105 0.0
H1000 H 0.85713 0.78087 0.82779 0.0
H1001 H 0.75874 0.75665 0.82874 0.0
H1002 H 0.80439 0.75801 0.81249 0.0
H1003 H 0.81867 0.80128 0.87752 0.0
H1004 H 0.5825 0.91446 0.92807 0.0
H1005 H 0.63989 0.87053 0.93421 0.0
H1006 H 0.55616 0.82641 0.89818 0.0
H1007 H 0.62923 0.91392 0.94145 0.0
H1008 H 0.13711 0.27659 0.15114 0.0
H1009 H 0.17065 0.25412 0.14201 0.0
H1010 H 0.08579 0.1646 0.12769 0.0
H1011 H 0.05178 0.18669 0.13766 0.0
H1012 H 0.12528 0.15429 0.14921 0.0
H1013 H 0.19782 0.23707 0.09226 0.0
H1014 H 0.20024 0.25887 0.11322 0.0
H1015 H 0.16212 0.23586 0.10138 0.0
C1016 C 0.12549 0.25217 0.14591 0.0
C1017 C 0.09167 0.23338 0.14528 0.0
C1018 C 0.1448 0.23945 0.14045 0.0
C1019 C 0.13091 0.20775 0.13389 0.0
C1020 C 0.09714 0.18919 0.1326 0.0
H1021 H 0.25862 0.13896 0.09316 0.0
H1022 H 0.21672 0.15378 0.09518 0.0
C1023 C 0.07771 0.20193 0.13816 0.0
C1024 C 0.15167 0.19347 0.12992 0.0
H1025 H 0.22028 0.20761 0.10711 0.0
C1026 C 0.14579 0.16572 0.13979 0.0
C1027 C 0.17827 0.20799 0.11745 0.0
C1028 C 0.18477 0.23638 0.10533 0.0
C1029 C 0.16641 0.15295 0.13814 0.0
C1030 C 0.19423 0.16878 0.12667 0.0
C1031 C 0.19934 0.19571 0.11618 0.0
C1032 C 0.21858 0.1582 0.12556 0.0
C1033 C 0.158 0.12248 0.14866 0.0
C1034 C 0.23378 0.15581 0.14192 0.0
C1035 C 0.25747 0.14698 0.14079 0.0
C1036 C 0.26695 0.14106 0.12323 0.0
C1037 C 0.25174 0.14338 0.10688 0.0
C1038 C 0.22784 0.15189 0.10803 0.0
H1039 H 0.13174 0.10806 0.15151 0.0
H1040 H 0.16542 0.10741 0.14068 0.0
H1041 H 0.17063 0.12873 0.16243 0.0
H1042 H 0.22787 0.16147 0.15557 0.0
H1043 H 0.26918 0.14593 0.1536 0.0
H1044 H 0.15083 0.9659 0.36774 0.0
H1045 H 0.0933 0.93216 0.37319 0.0
H1046 H 0.10552 0.84997 0.38082 0.0
H1047 H 0.16332 0.884 0.37757 0.0
H1048 H 0.04947 0.88655 0.35488 0.0
H1049 H 0.04999 0.83544 0.42429 0.0
H1050 H 0.08611 0.8677 0.41407 0.0
H1051 H 0.0726 0.8265 0.40781 0.0
C1052 C 0.14163 0.94089 0.3712 0.0
C1053 C 0.1623 0.92803 0.37228 0.0
C1054 C 0.10842 0.92142 0.37405 0.0
C1055 C 0.09481 0.88844 0.37778 0.0
C1056 C 0.11525 0.87544 0.37859 0.0
H1057 H 0.8933 0.74817 0.356 0.0
H1058 H 0.95088 0.78713 0.35368 0.0
C1059 C 0.14852 0.89501 0.37626 0.0
C1060 C 0.05919 0.86745 0.3799 0.0
H1061 H 1.00106 0.80715 0.40654 0.0
C1062 C 0.03892 0.86948 0.36634 0.0
C1063 C 0.04504 0.84546 0.39501 0.0
C1064 C 0.06461 0.84393 0.41121 0.0
C1065 C 1.00525 0.84987 0.36722 0.0
C1066 C 0.99131 0.82629 0.38155 0.0
C1067 C 1.01152 0.82473 0.39533 0.0
C1068 C 0.95595 0.80313 0.38267 0.0
C1069 C 0.98514 0.85541 0.353 0.0
C1070 C 0.93955 0.79797 0.39988 0.0
C1071 C 0.9069 0.77489 0.40135 0.0
C1072 C 0.88979 0.75694 0.38555 0.0
C1073 C 0.90583 0.76238 0.36826 0.0
C1074 C 0.93874 0.78479 0.36692 0.0
H1075 H 0.99786 0.88062 0.34785 0.0
H1076 H 0.98067 0.83963 0.34064 0.0
H1077 H 0.96165 0.85015 0.35901 0.0
H1078 H 0.95211 0.81152 0.41231 0.0
H1079 H 0.89506 0.77082 0.41488 0.0
H1080 H 0.90161 0.13576 0.15781 0.0
H1081 H 0.89238 0.08105 0.16142 0.0
H1082 H 0.87637 0.06582 0.10161 0.0
H1083 H 0.88554 0.12028 0.09794 0.0
H1084 H 0.82974 0.01541 0.12288 0.0
H1085 H 0.95294 0.04812 0.14625 0.0
H1086 H 0.93403 0.06537 0.16004 0.0
H1087 H 0.94385 0.07685 0.1358 0.0
C1088 C 0.89665 0.12089 0.14542 0.0
C1089 C 0.89436 0.13228 0.1276 0.0
C1090 C 0.89129 0.08963 0.14749 0.0
C1091 C 0.88394 0.06942 0.13176 0.0
C1092 C 0.882 0.08095 0.11394 0.0
H1093 H 0.89659 0.89773 0.12102 0.0
H1094 H 0.90081 0.95029 0.11801 0.0
C1095 C 0.8873 0.1121 0.11187 0.0
C1096 C 0.87799 0.03615 0.13374 0.0
H1097 H 0.91371 0.99295 0.14658 0.0
C1098 C 0.84806 0.01043 0.12809 0.0
C1099 C 0.90203 0.02977 0.14035 0.0
C1100 C 0.93513 0.05644 0.14581 0.0
C1101 C 0.84154 0.97851 0.12885 0.0
C1102 C 0.86545 0.97211 0.13571 0.0
C1103 C 0.89533 0.99785 0.14141 0.0
C1104 C 0.86068 0.93911 0.13648 0.0
C1105 C 0.80948 0.95205 0.1218 0.0
C1106 C 0.83637 0.91507 0.14765 0.0
C1107 C 0.83382 0.88483 0.14934 0.0
C1108 C 0.85581 0.8783 0.14007 0.0
C1109 C 0.87953 0.90215 0.12851 0.0
C1110 C 0.88195 0.9322 0.12676 0.0
H1111 H 0.7972 0.96153 0.11277 0.0
H1112 H 0.81242 0.93401 0.11364 0.0
H1113 H 0.79363 0.9397 0.13402 0.0
H1114 H 0.82004 0.92 0.15555 0.0
H1115 H 0.81554 0.86707 0.15851 0.0
H1116 H 0.26241 0.13597 0.41795 0.0
H1117 H 0.21648 0.1451 0.41769 0.0
H1118 H 0.22062 0.15053 0.35705 0.0
H1119 H 0.26636 0.14132 0.35724 0.0
H1120 H 0.20983 0.19582 0.40334 0.0
H1121 H 0.12752 0.08121 0.36722 0.0
H1122 H 0.16537 0.08932 0.37733 0.0
H1123 H 0.16444 0.10577 0.35475 0.0
C1124 C 0.25347 0.13911 0.40458 0.0
C1125 C 0.26778 0.1377 0.38762 0.0
C1126 C 0.2273 0.14437 0.40444 0.0
C1127 C 0.21479 0.14801 0.38733 0.0
C1128 C 0.22942 0.14711 0.37039 0.0
H1129 H 0.07986 0.21683 0.3682 0.0
H1130 H 0.12859 0.21317 0.37264 0.0
C1131 C 0.25551 0.14179 0.37052 0.0
C1132 C 0.18612 0.15218 0.38713 0.0
H1133 H 0.10915 0.11841 0.37056 0.0
C1134 C 0.18773 0.17885 0.39625 0.0
C1135 C 0.15718 0.1298 0.37809 0.0
C1136 C 0.15329 0.09974 0.36894 0.0
C1137 C 0.16131 0.184 0.3963 0.0
C1138 C 0.13272 0.16216 0.38671 0.0
C1139 C 0.13108 0.13529 0.37782 0.0
C1140 C 0.10393 0.16621 0.38574 0.0
C1141 C 0.16411 0.21244 0.4069 0.0
C1142 C 0.07378 0.14109 0.39155 0.0
C1143 C 0.04595 0.143 0.38884 0.0
C1144 C 0.04758 0.17013 0.38026 0.0
C1145 C 0.07789 0.19582 0.37507 0.0
C1146 C 0.10578 0.19376 0.37765 0.0
H1147 H 0.18334 0.22112 0.41777 0.0
H1148 H 0.17037 0.23242 0.39688 0.0
H1149 H 0.14103 0.2064 0.41386 0.0
H1150 H 0.07169 0.1196 0.39784 0.0
H1151 H 0.02298 0.12294 0.39313 0.0
H1152 H 0.16167 0.88769 0.11724 0.0
H1153 H 0.10343 0.85433 0.115 0.0
H1154 H 0.09241 0.93098 0.13838 0.0
H1155 H 0.15057 0.9636 0.14217 0.0
H1156 H 0.05221 0.87825 0.15447 0.0
H1157 H 0.04134 0.85357 0.07814 0.0
H1158 H 0.067 0.84099 0.08885 0.0
H1159 H 0.07875 0.88295 0.08879 0.0
C1160 C 0.14699 0.8975 0.12208 0.0
C1161 C 0.16118 0.92852 0.12996 0.0
C1162 C 0.11352 0.87851 0.12042 0.0
C1163 C 0.09333 0.89027 0.12611 0.0
C1164 C 0.10738 0.92136 0.13372 0.0
H1165 H 0.88652 0.77696 0.10067 0.0
H1166 H 0.94282 0.82053 0.10184 0.0
C1167 C 0.14083 0.94019 0.13569 0.0
C1168 C 0.0576 0.86944 0.12532 0.0
H1169 H 0.99536 0.81809 0.09698 0.0
C1170 C 0.03978 0.86548 0.1418 0.0
C1171 C 0.04106 0.85307 0.10875 0.0
C1172 C 0.05803 0.85815 0.0901 0.0
C1173 C 1.00626 0.84496 0.14235 0.0
C1174 C 0.99005 0.82687 0.12615 0.0
C1175 C 1.00768 0.83161 0.10949 0.0
C1176 C 0.95519 0.80206 0.12633 0.0
C1177 C 0.9887 0.84328 0.16031 0.0
C1178 C 0.94316 0.77735 0.13979 0.0
C1179 C 0.91098 0.75292 0.13933 0.0
C1180 C 0.89029 0.752 0.12506 0.0
C1181 C 0.90198 0.77702 0.11181 0.0
C1182 C 0.93418 0.80179 0.11241 0.0
H1183 H 1.00175 0.866 0.16845 0.0
H1184 H 0.96399 0.83853 0.15743 0.0
H1185 H 0.98714 0.8237 0.16931 0.0
H1186 H 0.95887 0.77636 0.15038 0.0
H1187 H 0.90245 0.73428 0.14994 0.0
H1188 H 0.85434 0.88894 0.35333 0.0
H1189 H 0.87247 0.94446 0.36286 0.0
H1190 H 0.78196 0.91279 0.39118 0.0
H1191 H 0.76387 0.85722 0.38157 0.0
H1192 H 0.79716 0.96073 0.36431 0.0
H1193 H 0.90035 0.99559 0.41257 0.0
H1194 H 0.90245 0.9772 0.39101 0.0
H1195 H 0.87095 0.95419 0.40764 0.0
C1196 C 0.83888 0.89379 0.36218 0.0
C1197 C 0.808 0.86891 0.36705 0.0
C1198 C 0.84921 0.92547 0.36762 0.0
C1199 C 0.82873 0.9328 0.37792 0.0
C1200 C 0.79829 0.90767 0.3834 0.0
H1201 H 0.88143 0.12616 0.41669 0.0
H1202 H 0.86617 0.06933 0.415 0.0
C1203 C 0.78804 0.87596 0.37803 0.0
C1204 C 0.83739 0.96683 0.38089 0.0
H1205 H 0.89396 0.03815 0.40014 0.0
C1206 C 0.81814 0.97758 0.37232 0.0
C1207 C 0.86475 0.98882 0.39132 0.0
C1208 C 0.88572 0.9784 0.40132 0.0
C1209 C 0.82579 0.00977 0.37353 0.0
C1210 C 0.85377 0.03215 0.38348 0.0
C1211 C 0.87262 0.02119 0.39245 0.0
C1212 C 0.86399 0.06695 0.38454 0.0
C1213 C 0.80362 0.01918 0.36401 0.0
C1214 C 0.86856 0.08485 0.36804 0.0
C1215 C 0.87645 0.117 0.36901 0.0
C1216 C 0.88072 0.13229 0.38651 0.0
C1217 C 0.87769 0.11486 0.40302 0.0
C1218 C 0.86921 0.08245 0.40205 0.0
H1219 H 0.77841 0.99885 0.36383 0.0
H1220 H 0.80399 0.03991 0.37099 0.0
H1221 H 0.81137 0.0258 0.34917 0.0
H1222 H 0.86563 0.07384 0.35435 0.0
H1223 H 0.87878 0.12975 0.356 0.0
H1224 H 0.22459 0.07822 0.64818 0.0
H1225 H 0.21921 0.12606 0.64473 0.0
H1226 H 0.12802 0.06908 0.61665 0.0
H1227 H 0.13282 0.02113 0.62071 0.0
H1228 H 0.21388 0.15837 0.61599 0.0
H1229 H 0.10195 0.10753 0.65816 0.0
H1230 H 0.12594 0.08839 0.65658 0.0
H1231 H 0.09788 0.08308 0.63815 0.0
C1232 C 0.20357 0.07606 0.64113 0.0
C1233 C 0.17895 0.04599 0.63489 0.0
C1234 C 0.20045 0.10334 0.6392 0.0
C1235 C 0.17278 0.10103 0.63089 0.0
C1236 C 0.14906 0.07129 0.62369 0.0
H1237 H 0.15094 0.26207 0.59409 0.0
H1238 H 0.15996 0.21638 0.59584 0.0
C1239 C 0.15192 0.04397 0.62588 0.0
C1240 C 0.16847 0.12955 0.63002 0.0
H1241 H 0.11661 0.15601 0.64167 0.0
C1242 C 0.19263 0.15786 0.62163 0.0
C1243 C 0.14109 0.12919 0.63778 0.0
C1244 C 0.11542 0.10054 0.64835 0.0
C1245 C 0.18989 0.18556 0.6205 0.0
C1246 C 0.16181 0.18467 0.62744 0.0
C1247 C 0.13791 0.15655 0.63609 0.0
C1248 C 0.15697 0.21282 0.62626 0.0
C1249 C 0.21759 0.2159 0.61257 0.0
C1250 C 0.15143 0.22554 0.6427 0.0
C1251 C 0.14594 0.25141 0.6417 0.0
C1252 C 0.14591 0.26514 0.62423 0.0
C1253 C 0.15122 0.25226 0.60777 0.0
C1254 C 0.15658 0.22626 0.60876 0.0
H1255 H 0.24016 0.2148 0.61206 0.0
H1256 H 0.21176 0.21966 0.59801 0.0
H1257 H 0.22189 0.23688 0.62123 0.0
H1258 H 0.15151 0.2155 0.65634 0.0
H1259 H 0.14211 0.26091 0.65466 0.0
H1260 H 0.12809 0.86432 0.85768 0.0
H1261 H 0.07197 0.85177 0.85701 0.0
H1262 H 0.07536 0.86908 0.91674 0.0
H1263 H 0.1318 0.88171 0.91752 0.0
H1264 H 0.01878 0.80113 0.88252 0.0
H1265 H 0.04084 0.92607 0.88847 0.0
H1266 H 0.0707 0.91772 0.87882 0.0
H1267 H 0.06268 0.91348 0.9036 0.0
C1268 C 0.11701 0.8658 0.87065 0.0
C1269 C 0.13431 0.87413 0.88765 0.0
C1270 C 0.08492 0.85844 0.87026 0.0
C1271 C 0.06962 0.85967 0.8868 0.0
C1272 C 0.08686 0.86825 0.9038 0.0
H1273 H 0.85861 0.77966 0.88824 0.0
H1274 H 0.91337 0.79706 0.89969 0.0
C1275 C 0.11899 0.87539 0.90423 0.0
C1276 C 0.03543 0.85141 0.88609 0.0
H1277 H 0.9872 0.88475 0.88409 0.0
C1278 C 1.01171 0.81927 0.88317 0.0
C1279 C 0.02649 0.87525 0.88677 0.0
C1280 C 0.05136 0.91016 0.88952 0.0
C1281 C 0.97928 0.81039 0.88043 0.0
C1282 C 0.97033 0.83431 0.88074 0.0
C1283 C 0.99403 0.86641 0.88408 0.0
C1284 C 0.9373 0.82688 0.87546 0.0
C1285 C 0.95509 0.77571 0.87631 0.0
C1286 C 0.93266 0.8389 0.85849 0.0
C1287 C 0.90161 0.82907 0.85199 0.0
C1288 C 0.87446 0.80716 0.86239 0.0
C1289 C 0.87908 0.79661 0.87997 0.0
C1290 C 0.91031 0.80633 0.88643 0.0
H1291 H 0.96679 0.76115 0.87373 0.0
H1292 H 0.93858 0.7652 0.8885 0.0
H1293 H 0.94036 0.77387 0.8638 0.0
H1294 H 0.95308 0.85486 0.84983 0.0
H1295 H 0.89877 0.83783 0.83848 0.0
H1296 H 0.77173 0.8997 0.59656 0.0
H1297 H 0.81137 0.95701 0.59905 0.0
H1298 H 0.80329 0.95069 0.65957 0.0
H1299 H 0.76334 0.89339 0.65715 0.0
H1300 H 0.79658 1.0007 0.64408 0.0
H1301 H 0.90578 1.00275 0.61649 0.0
H1302 H 0.87102 0.9826 0.60154 0.0
H1303 H 0.87072 0.96631 0.62437 0.0
C1304 C 0.77881 0.91046 0.6104 0.0
C1305 C 0.76451 0.89212 0.62666 0.0
C1306 C 0.80158 0.94315 0.61181 0.0
C1307 C 0.81056 0.95807 0.6295 0.0
C1308 C 0.79684 0.93961 0.64578 0.0
H1309 H 0.9644 0.15354 0.65306 0.0
H1310 H 0.9298 0.0951 0.65155 0.0
C1311 C 0.77421 0.90685 0.64439 0.0
C1312 C 0.83276 0.99327 0.63096 0.0
H1313 H 0.90881 0.05335 0.62027 0.0
C1314 C 0.82118 0.01221 0.63897 0.0
C1315 C 0.8649 0.00821 0.62441 0.0
C1316 C 0.87903 0.98895 0.61637 0.0
C1317 C 0.84067 0.04573 0.64029 0.0
C1318 C 0.87252 0.06081 0.63321 0.0
C1319 C 0.88432 0.04181 0.62555 0.0
C1320 C 0.89391 0.09626 0.63366 0.0
C1321 C 0.8271 0.06469 0.64947 0.0
C1322 C 0.88558 0.11634 0.6238 0.0
C1323 C 0.90538 0.14973 0.62453 0.0
C1324 C 0.93407 0.16383 0.63511 0.0
C1325 C 0.94268 0.14357 0.64465 0.0
C1326 C 0.92284 0.11014 0.64389 0.0
H1327 H 0.80583 0.04921 0.65837 0.0
H1328 H 0.84553 0.08433 0.65832 0.0
H1329 H 0.81935 0.07562 0.63837 0.0
H1330 H 0.86376 0.10615 0.61546 0.0
H1331 H 0.8983 0.1645 0.61669 0.0
H1332 H 0.13555 0.25479 0.85452 0.0
H1333 H 0.14458 0.20902 0.85305 0.0
H1334 H 0.1528 0.21017 0.91356 0.0
H1335 H 0.14384 0.25592 0.9151 0.0
H1336 H 0.1998 0.20272 0.89601 0.0
H1337 H 0.07945 0.11693 0.86694 0.0
H1338 H 0.10146 0.15261 0.85302 0.0
H1339 H 0.08893 0.15544 0.87647 0.0
C1340 C 0.13895 0.24506 0.86752 0.0
C1341 C 0.13889 0.25887 0.88494 0.0
C1342 C 0.14414 0.21892 0.86666 0.0
C1343 C 0.14891 0.20583 0.88321 0.0
C1344 C 0.14911 0.21979 0.9006 0.0
H1345 H 0.12668 0.01607 0.892 0.0
H1346 H 0.12346 0.06489 0.89577 0.0
C1347 C 0.144 0.24594 0.90146 0.0
C1348 C 0.15349 0.17746 0.88245 0.0
H1349 H 0.11745 0.09924 0.8682 0.0
C1350 C 0.18179 0.18004 0.88996 0.0
C1351 C 0.12978 0.14775 0.87482 0.0
C1352 C 0.09806 0.1428 0.86752 0.0
C1353 C 0.18715 0.15383 0.88986 0.0
C1354 C 0.16384 0.12439 0.8817 0.0
C1355 C 0.13545 0.12182 0.87435 0.0
C1356 C 0.16784 0.09563 0.88088 0.0
C1357 C 0.21738 0.15775 0.89887 0.0
C1358 C 0.19411 0.09661 0.87149 0.0
C1359 C 0.19612 0.06868 0.86945 0.0
C1360 C 0.17163 0.03914 0.87649 0.0
C1361 C 0.14579 0.0384 0.88627 0.0
C1362 C 0.14393 0.06631 0.88844 0.0
H1363 H 0.22787 0.17806 0.90901 0.0
H1364 H 0.21261 0.13552 0.90636 0.0
H1365 H 0.2356 0.16287 0.88777 0.0
H1366 H 0.2125 0.11872 0.86516 0.0
H1367 H 0.21609 0.06992 0.86163 0.0
H1368 H 0.13765 0.87736 0.65565 0.0
H1369 H 0.08066 0.8612 0.65889 0.0
H1370 H 0.06913 0.85049 0.59861 0.0
H1371 H 0.12636 0.86801 0.59528 0.0
H1372 H 0.03768 0.87959 0.61337 0.0
H1373 H 1.00783 0.76934 0.6536 0.0
H1374 H 0.03609 0.8055 0.66555 0.0
H1375 H 0.04721 0.79489 0.64373 0.0
C1376 C 0.12302 0.8719 0.64308 0.0
C1377 C 0.1363 0.87339 0.62522 0.0
C1378 C 0.09038 0.86237 0.64496 0.0
C1379 C 0.07038 0.85393 0.62903 0.0
C1380 C 0.08396 0.85662 0.61114 0.0
H1381 H 0.86373 0.73991 0.61847 0.0
H1382 H 0.9221 0.76312 0.61716 0.0
C1383 C 0.11661 0.86637 0.60925 0.0
C1384 C 0.03525 0.84189 0.6309 0.0
H1385 H 0.96565 0.78139 0.64983 0.0
C1386 C 0.02195 0.85816 0.62139 0.0
C1387 C 0.01464 0.8138 0.64128 0.0
C1388 C 0.02708 0.79468 0.65148 0.0
C1389 C 0.98872 0.84713 0.62197 0.0
C1390 C 0.96824 0.81915 0.63237 0.0
C1391 C 0.98146 0.80291 0.64191 0.0
C1392 C 0.93283 0.80567 0.63303 0.0
C1393 C 0.97557 0.86501 0.61112 0.0
C1394 C 0.91945 0.82185 0.64247 0.0
C1395 C 0.88597 0.80844 0.64348 0.0
C1396 C 0.86516 0.77855 0.63503 0.0
C1397 C 0.87884 0.76265 0.62543 0.0
C1398 C 0.91226 0.77597 0.62455 0.0
H1399 H 0.99364 0.8829 0.60127 0.0
H1400 H 0.9539 0.84798 0.60298 0.0
H1401 H 0.96827 0.87788 0.62115 0.0
H1402 H 0.9349 0.84461 0.64933 0.0
H1403 H 0.87642 0.82117 0.65125 0.0
H1404 H 0.92893 0.1611 0.88168 0.0
H1405 H 0.89127 0.106 0.89238 0.0
H1406 H 0.93164 0.06905 0.85203 0.0
H1407 H 0.96879 0.12382 0.84117 0.0
H1408 H 0.84654 0.05691 0.86469 0.0
H1409 H 0.92363 0.01996 0.90318 0.0
H1410 H 0.93429 0.06152 0.90055 0.0
H1411 H 0.93923 0.04047 0.88116 0.0
C1412 C 0.93028 0.14122 0.87552 0.0
C1413 C 0.95182 0.14659 0.86072 0.0
C1414 C 0.90871 0.10982 0.88154 0.0
C1415 C 0.90883 0.08347 0.87308 0.0
C1416 C 0.93142 0.08902 0.85892 0.0
H1417 H 0.76346 0.88514 0.85648 0.0
H1418 H 0.80587 0.94157 0.85378 0.0
C1419 C 0.95259 0.12027 0.85273 0.0
C1420 C 0.88333 0.05007 0.87748 0.0
H1421 H 0.87085 0.97853 0.89504 0.0
C1422 C 0.85178 0.03985 0.8715 0.0
C1423 C 0.89023 0.02787 0.88633 0.0
C1424 C 0.92361 0.0379 0.89334 0.0
C1425 C 0.82713 0.00778 0.87365 0.0
C1426 C 0.83419 0.98531 0.88199 0.0
C1427 C 0.86553 0.99574 0.88853 0.0
C1428 C 0.80933 0.95081 0.88375 0.0
C1429 C 0.79368 0.99806 0.86691 0.0
C1430 C 0.79765 0.93713 0.90151 0.0
C1431 C 0.77346 0.90489 0.90309 0.0
C1432 C 0.76062 0.8857 0.88693 0.0
C1433 C 0.77295 0.89926 0.86919 0.0
C1434 C 0.797 0.93154 0.86762 0.0
H1435 H 0.79054 0.01916 0.86456 0.0
H1436 H 0.78897 0.98481 0.85342 0.0
H1437 H 0.77553 0.98185 0.87727 0.0
H1438 H 0.80688 0.95154 0.91414 0.0
H1439 H 0.7647 0.895 0.91696 0.0
H1440 H 0.41493 0.16211 0.33475 0.0
H1441 H 0.42201 0.16803 0.30035 0.0
H1442 H 0.33481 0.17275 0.29585 0.0
H1443 H 0.32731 0.16587 0.32988 0.0
H1444 H 0.33342 0.12729 0.27348 0.0
H1445 H 0.44901 0.24077 0.26258 0.0
H1446 H 0.45112 0.21234 0.27807 0.0
H1447 H 0.42788 0.2306 0.28481 0.0
C1448 C 0.39792 0.16541 0.32639 0.0
C1449 C 0.37067 0.16368 0.33489 0.0
C1450 C 0.40194 0.1688 0.30675 0.0
C1451 C 0.37905 0.17108 0.29544 0.0
C1452 C 0.3528 0.17104 0.3042 0.0
H1453 H 0.32281 0.16189 0.17914 0.0
H1454 H 0.33051 0.169 0.21319 0.0
C1455 C 0.34858 0.16724 0.32365 0.0
C1456 C 0.38005 0.17004 0.27447 0.0
H1457 H 0.42375 0.2096 0.23541 0.0
C1458 C 0.35325 0.14532 0.2652 0.0
C1459 C 0.40598 0.19336 0.26359 0.0
C1460 C 0.43506 0.22095 0.27271 0.0
C1461 C 0.35133 0.14338 0.24549 0.0
C1462 C 0.37682 0.16717 0.23451 0.0
C1463 C 0.40414 0.19145 0.24375 0.0
C1464 C 0.37487 0.16752 0.21353 0.0
C1465 C 0.32171 0.11567 0.23681 0.0
C1466 C 0.39839 0.16662 0.20212 0.0
C1467 C 0.39448 0.16356 0.18247 0.0
C1468 C 0.36683 0.16102 0.17403 0.0
C1469 C 0.34424 0.16358 0.18535 0.0
C1470 C 0.3485 0.16737 0.20483 0.0
H1471 H 0.31168 0.09409 0.24601 0.0
H1472 H 0.30291 0.1225 0.23521 0.0
H1473 H 0.32671 0.10914 0.22279 0.0
H1474 H 0.41909 0.16695 0.20846 0.0
H1475 H 0.41205 0.16133 0.17402 0.0
H1476 H 0.84449 0.70825 0.3273 0.0
H1477 H 0.8428 0.69652 0.29375 0.0
H1478 H 0.78431 0.59526 0.30531 0.0
H1479 H 0.78594 0.60693 0.33921 0.0
H1480 H 0.85956 0.65406 0.27266 0.0
H1481 H 0.75568 0.64295 0.28805 0.0
H1482 H 0.74225 0.60089 0.28656 0.0
H1483 H 0.7301 0.61946 0.26882 0.0
C1484 C 0.83157 0.68341 0.32276 0.0
C1485 C 0.81514 0.65849 0.33586 0.0
C1486 C 0.83074 0.67676 0.30358 0.0
C1487 C 0.81321 0.64508 0.29701 0.0
C1488 C 0.79782 0.61992 0.31009 0.0
H1489 H 0.81365 0.61599 0.17336 0.0
H1490 H 0.81475 0.60619 0.20725 0.0
C1491 C 0.79893 0.62657 0.32943 0.0
C1492 C 0.80954 0.63926 0.27637 0.0
H1493 H 0.75679 0.62455 0.2403 0.0
C1494 C 0.83696 0.64692 0.26555 0.0
C1495 C 0.78011 0.63038 0.26716 0.0
C1496 C 0.75026 0.62304 0.27813 0.0
C1497 C 0.83598 0.64705 0.24574 0.0
C1498 C 0.80676 0.63915 0.23654 0.0
C1499 C 0.77908 0.63032 0.24738 0.0
C1500 C 0.80532 0.64381 0.21593 0.0
C1501 C 0.86657 0.65742 0.23479 0.0
C1502 C 0.79916 0.66778 0.20957 0.0
C1503 C 0.79853 0.67345 0.19034 0.0
C1504 C 0.80384 0.65509 0.17689 0.0
C1505 C 0.80951 0.63063 0.18328 0.0
C1506 C 0.81029 0.62508 0.20265 0.0
H1507 H 0.88802 0.6668 0.2441 0.0
H1508 H 0.86451 0.63661 0.22686 0.0
H1509 H 0.87043 0.67631 0.22442 0.0
H1510 H 0.79524 0.68252 0.21955 0.0
H1511 H 0.79395 0.69241 0.18608 0.0
H1512 H 0.82747 0.21598 0.17291 0.0
H1513 H 0.81791 0.22012 0.20659 0.0
H1514 H 0.89374 0.20067 0.22098 0.0
H1515 H 0.90326 0.19626 0.18774 0.0
H1516 H 0.80407 0.17349 0.23753 0.0
H1517 H 0.91881 0.28789 0.24733 0.0
H1518 H 0.90079 0.27353 0.22444 0.0
H1519 H 0.92326 0.25733 0.23552 0.0
C1520 C 0.84186 0.21227 0.18327 0.0
C1521 C 0.86634 0.2061 0.17758 0.0
C1522 C 0.83645 0.21476 0.20249 0.0
C1523 C 0.85557 0.21134 0.21626 0.0
C1524 C 0.87914 0.20404 0.21059 0.0
H1525 H 0.85157 0.1661 0.33089 0.0
H1526 H 0.8435 0.16734 0.29702 0.0
C1527 C 0.88444 0.2014 0.19153 0.0
C1528 C 0.85139 0.21532 0.23663 0.0
H1529 H 0.89312 0.25827 0.27529 0.0
C1530 C 0.82328 0.19234 0.24576 0.0
C1531 C 0.87627 0.24016 0.24734 0.0
C1532 C 0.90639 0.26635 0.23816 0.0
C1533 C 0.82027 0.19242 0.26548 0.0
C1534 C 0.84615 0.21593 0.27631 0.0
C1535 C 0.87338 0.24009 0.26704 0.0
C1536 C 0.84701 0.21397 0.2972 0.0
C1537 C 0.78967 0.1669 0.27456 0.0
C1538 C 0.85175 0.23982 0.30869 0.0
C1539 C 0.85617 0.23902 0.3282 0.0
C1540 C 0.85656 0.21265 0.33636 0.0
C1541 C 0.85104 0.18657 0.32493 0.0
C1542 C 0.84627 0.18719 0.30558 0.0
H1543 H 0.76897 0.1579 0.26469 0.0
H1544 H 0.79269 0.14627 0.27859 0.0
H1545 H 0.78391 0.17611 0.28745 0.0
H1546 H 0.85281 0.26091 0.3025 0.0
H1547 H 0.86091 0.25961 0.33672 0.0
H1548 H 0.18355 0.4165 0.67325 0.0
H1549 H 0.19394 0.4273 0.70724 0.0
H1550 H 0.1734 0.3301 0.71588 0.0
H1551 H 0.16341 0.31946 0.68227 0.0
H1552 H 0.14914 0.39458 0.73623 0.0
H1553 H 0.25648 0.38174 0.74561 0.0
H1554 H 0.24392 0.38817 0.72281 0.0
H1555 H 0.22511 0.34854 0.73295 0.0
C1556 C 0.18209 0.3978 0.68241 0.0
C1557 C 0.17277 0.36719 0.67517 0.0
C1558 C 0.18779 0.40389 0.7018 0.0
C1559 C 0.18488 0.37963 0.71411 0.0
C1560 C 0.17649 0.34941 0.70669 0.0
H1561 H 0.14725 0.31211 0.82482 0.0
H1562 H 0.15913 0.32505 0.79149 0.0
C1563 C 0.17059 0.34329 0.68746 0.0
C1564 C 0.18806 0.38455 0.73487 0.0
H1565 H 0.22389 0.37303 0.77338 0.0
C1566 C 0.16608 0.39077 0.74437 0.0
C1567 C 0.21009 0.37947 0.74551 0.0
C1568 C 0.23545 0.37443 0.73618 0.0
C1569 C 0.16417 0.38994 0.76416 0.0
C1570 C 0.18491 0.38294 0.77471 0.0
C1571 C 0.20799 0.37838 0.76527 0.0
C1572 C 0.18025 0.37628 0.79524 0.0
C1573 C 0.13864 0.39445 0.7737 0.0
C1574 C 0.18888 0.40094 0.80851 0.0
C1575 C 0.18238 0.39361 0.82774 0.0
C1576 C 0.16682 0.3615 0.83387 0.0
C1577 C 0.1591 0.33707 0.82054 0.0
C1578 C 0.1659 0.34441 0.80148 0.0
H1579 H 0.12342 0.39834 0.76346 0.0
H1580 H 0.12292 0.37301 0.78239 0.0
H1581 H 0.15018 0.41545 0.7833 0.0
H1582 H 0.20011 0.42572 0.80396 0.0
H1583 H 0.18838 0.41288 0.83767 0.0
H1584 H 0.16714 0.84735 0.82978 0.0
H1585 H 0.16856 0.83881 0.79598 0.0
H1586 H 0.25833 0.83971 0.80271 0.0
H1587 H 0.25688 0.84828 0.83685 0.0
H1588 H 0.25938 0.88308 0.77528 0.0
H1589 H 0.1544 0.76165 0.76411 0.0
H1590 H 0.14502 0.78707 0.77798 0.0
H1591 H 0.17289 0.7756 0.78693 0.0
C1592 C 0.18679 0.84494 0.8241 0.0
C1593 C 0.21184 0.84829 0.83585 0.0
C1594 C 0.1875 0.83991 0.8048 0.0
C1595 C 0.21331 0.83816 0.79682 0.0
C1596 C 0.238 0.84061 0.80862 0.0
H1597 H 0.23939 0.832 0.67366 0.0
H1598 H 0.24036 0.82183 0.70756 0.0
C1599 C 0.23709 0.84529 0.82808 0.0
C1600 C 0.21574 0.83714 0.77599 0.0
H1601 H 0.17341 0.79628 0.73689 0.0
C1602 C 0.24104 0.8637 0.76689 0.0
C1603 C 0.19164 0.812 0.76503 0.0
C1604 C 0.1646 0.78231 0.77401 0.0
C1605 C 0.24195 0.86652 0.74717 0.0
C1606 C 0.21699 0.8422 0.73629 0.0
C1607 C 0.19247 0.81494 0.74529 0.0
C1608 C 0.21467 0.84615 0.71574 0.0
C1609 C 0.26855 0.89642 0.73814 0.0
C1610 C 0.19932 0.86255 0.70917 0.0
C1611 C 0.19853 0.86817 0.68992 0.0
C1612 C 0.21336 0.85776 0.67684 0.0
C1613 C 0.22776 0.8403 0.68339 0.0
C1614 C 0.22845 0.83459 0.70272 0.0
H1615 H 0.28915 0.90993 0.74789 0.0
H1616 H 0.27739 0.89044 0.72518 0.0
H1617 H 0.25888 0.91224 0.73411 0.0
H1618 H 0.18841 0.8715 0.71901 0.0
H1619 H 0.18686 0.88129 0.6853 0.0
H1620 H 0.71241 0.84744 0.68538 0.0
H1621 H 0.70071 0.8457 0.71889 0.0
H1622 H 0.60029 0.77935 0.70797 0.0
H1623 H 0.61217 0.78048 0.67413 0.0
H1624 H 0.66059 0.86072 0.73875 0.0
H1625 H 0.62296 0.73155 0.74736 0.0
H1626 H 0.64267 0.75378 0.72634 0.0
H1627 H 0.60098 0.74074 0.73036 0.0
C1628 C 0.68779 0.83247 0.69007 0.0
C1629 C 0.66327 0.81369 0.67717 0.0
C1630 C 0.68111 0.8316 0.70925 0.0
C1631 C 0.64973 0.812 0.71606 0.0
C1632 C 0.62481 0.79419 0.70311 0.0
H1633 H 0.6105 0.78132 0.83895 0.0
H1634 H 0.59953 0.78212 0.80507 0.0
C1635 C 0.63153 0.79509 0.68378 0.0
C1636 C 0.64397 0.81012 0.73676 0.0
H1637 H 0.62685 0.7605 0.77482 0.0
C1638 C 0.65271 0.83867 0.7466 0.0
C1639 C 0.63363 0.78135 0.74706 0.0
C1640 C 0.62471 0.75009 0.73734 0.0
C1641 C 0.65267 0.83951 0.76638 0.0
C1642 C 0.64395 0.81114 0.77667 0.0
C1643 C 0.63347 0.78221 0.76689 0.0
C1644 C 0.6496 0.81193 0.79731 0.0
C1645 C 0.66295 0.87102 0.77616 0.0
C1646 C 0.68127 0.82837 0.80414 0.0
C1647 C 0.68753 0.82776 0.82328 0.0
C1648 C 0.66226 0.81078 0.83613 0.0
C1649 C 0.6304 0.79489 0.8294 0.0
C1650 C 0.62414 0.79518 0.81008 0.0
H1651 H 0.65986 0.88791 0.76691 0.0
H1652 H 0.649 0.86732 0.78932 0.0
H1653 H 0.68882 0.88238 0.77993 0.0
H1654 H 0.70131 0.84107 0.79455 0.0
H1655 H 0.71234 0.84027 0.82799 0.0
H1656 H 0.23561 0.96233 0.93077 0.0
H1657 H 0.25672 0.99556 0.95874 0.0
H1658 H 0.29293 0.93512 0.97894 0.0
H1659 H 0.2708 0.90081 0.95088 0.0
H1660 H 0.26719 0.95121 0.00715 0.0
H1661 H 0.34824 0.06221 0.96841 0.0
H1662 H 0.3077 0.04578 0.96021 0.0
H1663 H 0.32829 0.02339 0.95715 0.0
C1664 C 0.24811 0.956 0.9411 0.0
C1665 C 0.25182 0.92903 0.93844 0.0
C1666 C 0.26045 0.9753 0.95708 0.0
C1667 C 0.27746 0.96866 0.97073 0.0
C1668 C 0.28031 0.94108 0.96849 0.0
H1669 H 0.37991 0.11361 0.05991 0.0
H1670 H 0.36874 0.07945 0.03191 0.0
C1671 C 0.26755 0.92139 0.9525 0.0
C1672 C 0.29126 0.9902 0.98747 0.0
H1673 H 0.33491 0.06939 1.00016 0.0
C1674 C 0.28234 0.977 0.0056 0.0
C1675 C 0.31178 0.02389 0.98563 0.0
C1676 C 0.32485 0.03957 0.9668 0.0
C1677 C 0.29184 0.99658 0.02176 0.0
C1678 C 0.30999 0.03047 0.01978 0.0
C1679 C 0.32043 0.04354 1.00175 0.0
C1680 C 0.3171 0.0526 0.03613 0.0
C1681 C 0.28234 0.98063 0.04082 0.0
C1682 C 0.29185 0.04994 0.0474 0.0
C1683 C 0.29819 0.06922 0.06334 0.0
C1684 C 0.32994 0.09221 0.06826 0.0
C1685 C 0.35519 0.09628 0.05642 0.0
C1686 C 0.34882 0.07659 0.0405 0.0
H1687 H 0.27899 0.95605 0.0404 0.0
H1688 H 0.30069 0.99477 0.05169 0.0
H1689 H 0.25908 0.97839 0.04512 0.0
H1690 H 0.2671 0.03255 0.04402 0.0
H1691 H 0.27812 0.06569 0.07203 0.0
H1692 H 0.80979 0.74968 0.43726 0.0
H1693 H 0.79008 0.76309 0.46558 0.0
H1694 H 0.72859 0.66229 0.47746 0.0
H1695 H 0.74879 0.64874 0.44914 0.0
H1696 H 0.72877 0.74885 0.4733 0.0
H1697 H 0.77114 0.69627 0.52814 0.0
H1698 H 0.78536 0.70205 0.50415 0.0
H1699 H 0.74655 0.66867 0.51011 0.0
C1700 C 0.79245 0.73035 0.44607 0.0
C1701 C 0.78091 0.69814 0.44101 0.0
C1702 C 0.78105 0.73805 0.46221 0.0
C1703 C 0.75788 0.71378 0.47376 0.0
C1704 C 0.74685 0.68151 0.46899 0.0
H1705 H 0.65334 0.75972 0.56038 0.0
H1706 H 0.66531 0.73913 0.53161 0.0
C1707 C 0.75845 0.67376 0.45283 0.0
C1708 C 0.7449 0.72266 0.49039 0.0
H1709 H 0.73939 0.71812 0.5384 0.0
C1710 C 0.73096 0.74201 0.48754 0.0
C1711 C 0.74787 0.7139 0.509 0.0
C1712 C 0.76378 0.69432 0.51314 0.0
C1713 C 0.72055 0.75335 0.50274 0.0
C1714 C 0.72356 0.74462 0.52135 0.0
C1715 C 0.73688 0.7247 0.52415 0.0
C1716 C 0.7157 0.75793 0.53824 0.0
C1717 C 0.70765 0.77562 0.49876 0.0
C1718 C 0.73982 0.77524 0.55159 0.0
C1719 C 0.73299 0.78673 0.56797 0.0
C1720 C 0.70179 0.7813 0.57153 0.0
C1721 C 0.67768 0.76464 0.55797 0.0
C1722 C 0.68453 0.75287 0.54152 0.0
H1723 H 0.71366 0.78569 0.48428 0.0
H1724 H 0.68104 0.76212 0.50014 0.0
H1725 H 0.71738 0.7958 0.50897 0.0
H1726 H 0.76406 0.77967 0.54941 0.0
H1727 H 0.75227 0.79959 0.57801 0.0
H1728 H 0.10961 0.36529 0.94829 0.0
H1729 H 0.07662 0.35024 0.977 0.0
H1730 H 0.03209 0.25042 0.96134 0.0
H1731 H 0.06467 0.26527 0.93272 0.0
H1732 H 0.98746 0.26828 0.9713 0.0
H1733 H 0.08364 0.308 0.0254 0.0
H1734 H 0.08884 0.3382 0.00863 0.0
H1735 H 0.09061 0.30358 1.00089 0.0
C1736 C 0.09321 0.34012 0.95117 0.0
C1737 C 0.08971 0.31649 0.9382 0.0
C1738 C 0.07431 0.33153 0.96757 0.0
C1739 C 0.05186 0.29914 0.9714 0.0
C1740 C 0.04908 0.27555 0.95869 0.0
H1741 H 0.95557 0.20675 0.07438 0.0
H1742 H 0.98681 0.22519 0.0453 0.0
C1743 C 0.06785 0.28408 0.94236 0.0
C1744 C 0.03044 0.28955 0.98826 0.0
H1745 H 0.03059 0.28841 0.0364 0.0
C1746 C 0.99689 0.27279 0.98555 0.0
C1747 C 0.0427 0.29522 0.00685 0.0
C1748 C 0.07839 0.31199 0.01072 0.0
C1749 C 0.97534 0.2613 1.00086 0.0
C1750 C 0.98761 0.26704 0.01945 0.0
C1751 C 0.02115 0.28411 0.02216 0.0
C1752 C 0.9663 0.25407 0.0363 0.0
C1753 C 0.93966 0.2422 0.99699 0.0
C1754 C 0.9437 0.26354 0.0408 0.0
C1755 C 0.9255 0.25275 0.05745 0.0
C1756 C 0.92993 0.23264 0.06997 0.0
C1757 C 0.95168 0.22231 0.06506 0.0
C1758 C 0.9697 0.23298 0.04847 0.0
H1759 H 0.93447 0.23386 0.98215 0.0
H1760 H 0.92773 0.22097 0.00642 0.0
H1761 H 0.92887 0.25752 0.9997 0.0
H1762 H 0.94091 0.28014 0.03179 0.0
H1763 H 0.90921 0.2614 0.06097 0.0
H1764 H 0.28118 0.05099 0.43054 0.0
H1765 H 0.26946 0.01868 0.45887 0.0
H1766 H 0.36659 0.08019 0.47844 0.0
H1767 H 0.37842 0.11346 0.45001 0.0
H1768 H 0.29443 0.98355 0.47144 0.0
H1769 H 0.31591 0.07715 0.52439 0.0
H1770 H 0.31357 0.08319 0.49951 0.0
H1771 H 0.34968 0.08669 0.50942 0.0
C1772 C 0.30015 0.05795 0.44087 0.0
C1773 C 0.3308 0.08504 0.43795 0.0
C1774 C 0.29336 0.03927 0.45711 0.0
C1775 C 0.31696 0.04694 0.47097 0.0
C1776 C 0.34769 0.07402 0.46818 0.0
H1777 H 0.27853 0.90504 0.5621 0.0
H1778 H 0.30093 0.93814 0.53365 0.0
C1779 C 0.35447 0.09304 0.45189 0.0
C1780 C 0.30892 0.02608 0.48805 0.0
H1781 H 0.30182 0.02588 0.53597 0.0
C1782 C 0.29623 0.99286 0.48557 0.0
C1783 C 0.31102 0.03806 0.50652 0.0
C1784 C 0.323 0.07316 0.5102 0.0
C1785 C 0.28484 0.97131 0.50088 0.0
C1786 C 0.28683 0.9833 0.51933 0.0
C1787 C 0.30036 0.01661 0.52186 0.0
C1788 C 0.27272 0.96176 0.53606 0.0
C1789 C 0.26943 0.9358 0.497 0.0
C1790 C 0.24953 0.96394 0.547 0.0
C1791 C 0.23705 0.94537 0.56324 0.0
C1792 C 0.24723 0.92391 0.56902 0.0
C1793 C 0.2698 0.92094 0.55784 0.0
C1794 C 0.28263 0.93991 0.54158 0.0
H1795 H 0.26282 0.93011 0.48192 0.0
H1796 H 0.28669 0.92765 0.50062 0.0
H1797 H 0.24745 0.92194 0.50568 0.0
H1798 H 0.24129 0.98039 0.54307 0.0
H1799 H 0.21968 0.94827 0.57149 0.0
H1800 H 0.74162 0.64392 0.06709 0.0
H1801 H 0.72145 0.65639 0.03823 0.0
H1802 H 0.80801 0.74888 0.03524 0.0
H1803 H 0.82789 0.7367 0.0641 0.0
H1804 H 0.71407 0.71481 0.03502 0.0
H1805 H 0.79417 0.70928 0.9806 0.0
H1806 H 0.78613 0.68823 1.0028 0.0
H1807 H 0.81374 0.73069 1.00178 0.0
C1808 C 0.75662 0.66652 0.05995 0.0
C1809 C 0.78634 0.68932 0.06772 0.0
C1810 C 0.745 0.67373 0.04358 0.0
C1811 C 0.76329 0.70352 0.03452 0.0
C1812 C 0.79362 0.72565 0.04186 0.0
H1813 H 0.75295 0.80932 0.93943 0.0
H1814 H 0.76701 0.78874 0.96717 0.0
C1815 C 0.80497 0.71868 0.05833 0.0
C1816 C 0.75013 0.71267 0.01815 0.0
H1817 H 0.76358 0.73341 0.97166 0.0
C1818 C 0.7247 0.71869 0.02113 0.0
C1819 C 0.76403 0.71776 1.00004 0.0
C1820 C 0.79088 0.71096 0.99596 0.0
C1821 C 0.71378 0.73106 0.00672 0.0
C1822 C 0.72793 0.73653 0.98857 0.0
C1823 C 0.75275 0.7295 0.98552 0.0
C1824 C 0.71834 0.75045 0.97266 0.0
C1825 C 0.68825 0.7395 0.01141 0.0
C1826 C 0.68614 0.73635 0.96656 0.0
C1827 C 0.67796 0.74869 0.95091 0.0
C1828 C 0.70194 0.77482 0.94076 0.0
C1829 C 0.73396 0.78923 0.94704 0.0
C1830 C 0.74203 0.7773 0.96283 0.0
H1831 H 0.6871 0.74305 0.0268 0.0
H1832 H 0.69271 0.76169 1.00402 0.0
H1833 H 0.6644 0.71953 0.00697 0.0
H1834 H 0.66744 0.71513 0.97348 0.0
H1835 H 0.65319 0.73672 0.94615 0.0
H1836 H 0.12471 0.37409 0.55804 0.0
H1837 H 0.09186 0.36149 0.52929 0.0
H1838 H 0.0246 0.26839 0.55191 0.0
H1839 H 0.05701 0.28038 0.58023 0.0
H1840 H 0.04123 0.26532 0.51516 0.0
H1841 H 1.0042 0.35717 0.52304 0.0
H1842 H 0.04687 0.37221 0.52371 0.0
H1843 H 0.02168 0.34616 0.54212 0.0
C1844 C 0.103 0.3509 0.55684 0.0
C1845 C 0.09363 0.32835 0.57155 0.0
C1846 C 0.08405 0.34383 0.54046 0.0
C1847 C 0.05541 0.31411 0.53851 0.0
C1848 C 0.04642 0.29152 0.55306 0.0
H1849 H 0.89653 0.24357 0.45656 0.0
H1850 H 0.92898 0.26173 0.48555 0.0
C1851 C 0.06513 0.29853 0.56933 0.0
C1852 C 0.03497 0.30567 0.52124 0.0
H1853 H 0.98756 0.32578 0.49516 0.0
C1854 C 0.02957 0.27861 0.51081 0.0
C1855 C 0.01924 0.32263 0.51567 0.0
C1856 C 0.02296 0.35101 0.52676 0.0
C1857 C 1.00935 0.26833 0.49492 0.0
C1858 C 0.99422 0.28569 0.48908 0.0
C1859 C 0.9992 0.31251 0.49961 0.0
C1860 C 0.97442 0.27691 0.47157 0.0
C1861 C 1.0041 0.23872 0.48454 0.0
C1862 C 0.9892 0.28008 0.45408 0.0
C1863 C 0.97089 0.2698 0.4376 0.0
C1864 C 0.93709 0.25604 0.43806 0.0
C1865 C 0.92236 0.25386 0.45558 0.0
C1866 C 0.9409 0.2643 0.47218 0.0
H1867 H 1.01113 0.22397 0.49319 0.0
H1868 H 0.97848 0.22362 0.48034 0.0
H1869 H 0.01894 0.24606 0.47155 0.0
H1870 H 0.01502 0.29005 0.4532 0.0
H1871 H 0.98344 0.27215 0.42451 0.0
H1872 H 0.69677 0.2399 0.11498 0.0
H1873 H 0.63946 0.2194 0.11995 0.0
H1874 H 0.61975 0.12323 0.10847 0.0
H1875 H 0.67708 0.1438 0.10261 0.0
H1876 H 0.57919 0.13547 0.08955 0.0
H1877 H 0.58142 0.17234 0.1634 0.0
H1878 H 0.60826 0.20583 0.14906 0.0
H1879 H 0.61566 0.17296 0.15244 0.0
C1880 C 0.68033 0.21435 0.11349 0.0
C1881 C 0.69176 0.19358 0.1083 0.0
C1882 C 0.64748 0.20257 0.11664 0.0
C1883 C 0.62513 0.16962 0.11494 0.0
C1884 C 0.63646 0.14871 0.11004 0.0
H1885 H 0.42137 0.10188 0.14371 0.0
H1886 H 0.47473 0.10655 0.14328 0.0
C1887 C 0.66936 0.16051 0.10683 0.0
C1888 C 0.58987 0.15752 0.11699 0.0
H1889 H 0.53414 0.16095 0.14545 0.0
C1890 C 0.56933 0.14067 0.10191 0.0
C1891 C 0.57659 0.16363 0.13322 0.0
C1892 C 0.59659 0.17937 0.15052 0.0
C1893 C 0.53646 0.13134 0.1022 0.0
C1894 C 0.52375 0.13963 0.11783 0.0
C1895 C 0.54385 0.15493 0.13334 0.0
C1896 C 0.4905 0.13484 0.11772 0.0
C1897 C 0.51571 0.11282 0.08566 0.0
C1898 C 0.48151 0.14919 0.10358 0.0
C1899 C 0.4511 0.1464 0.10372 0.0
C1900 C 0.42879 0.12939 0.11812 0.0
C1901 C 0.43769 0.11481 0.13227 0.0
C1902 C 0.4683 0.11762 0.1321 0.0
H1903 H 0.52549 0.09908 0.0784 0.0
H1904 H 0.49059 0.09584 0.0901 0.0
H1905 H 0.5153 0.12991 0.07532 0.0
H1906 H 0.49835 0.16327 0.09259 0.0
H1907 H 0.44534 0.15809 0.09259 0.0
H1908 H 0.72362 0.58646 0.42085 0.0
H1909 H 0.67484 0.53387 0.4219 0.0
H1910 H 0.65734 0.54249 0.36321 0.0
H1911 H 0.70703 0.59479 0.36187 0.0
H1912 H 0.61249 0.51732 0.41543 0.0
H1913 H 0.65025 0.4544 0.36493 0.0
H1914 H 0.6782 0.49308 0.37484 0.0
H1915 H 0.6521 0.49014 0.35585 0.0
C1916 C 0.70954 0.57716 0.4081 0.0
C1917 C 0.71921 0.59499 0.39128 0.0
C1918 C 0.68154 0.54707 0.40875 0.0
C1919 C 0.66254 0.53391 0.39259 0.0
C1920 C 0.67185 0.5518 0.37579 0.0
H1921 H 0.46527 0.3734 0.39831 0.0
H1922 H 0.51384 0.42472 0.3918 0.0
C1923 C 0.70002 0.58197 0.37512 0.0
C1924 C 0.63277 0.50176 0.39366 0.0
H1925 H 0.59663 0.42513 0.37628 0.0
C1926 C 0.60902 0.4972 0.40683 0.0
C1927 C 0.62838 0.47532 0.38263 0.0
C1928 C 0.65367 0.47825 0.36887 0.0
C1929 C 0.58108 0.46715 0.40924 0.0
C1930 C 0.57631 0.44087 0.39792 0.0
C1931 C 0.60012 0.44531 0.38482 0.0
C1932 C 0.54693 0.40861 0.39982 0.0
C1933 C 0.5573 0.46363 0.42428 0.0
C1934 C 0.54926 0.38187 0.40558 0.0
C1935 C 0.5214 0.3523 0.40921 0.0
C1936 C 0.4907 0.34896 0.40716 0.0
C1937 C 0.48854 0.37533 0.40039 0.0
C1938 C 0.5163 0.40473 0.3967 0.0
H1939 H 0.56831 0.4833 0.43483 0.0
H1940 H 0.53682 0.4645 0.41764 0.0
H1941 H 0.54767 0.44031 0.43174 0.0
H1942 H 0.57264 0.38422 0.40797 0.0
H1943 H 0.52392 0.33253 0.41444 0.0
H1944 H 0.89113 0.30232 0.15052 0.0
H1945 H 0.87694 0.34473 0.1505 0.0
H1946 H 0.85897 0.33187 0.09074 0.0
H1947 H 0.87317 0.28971 0.09069 0.0
H1948 H 0.90043 0.40235 0.13225 0.0
H1949 H 0.7747 0.32009 0.11062 0.0
H1950 H 0.80179 0.30576 0.1167 0.0
H1951 H 0.80261 0.32131 0.09345 0.0
C1952 C 0.88454 0.30883 0.13735 0.0
C1953 C 0.88301 0.29245 0.12064 0.0
C1954 C 0.87629 0.33299 0.13737 0.0
C1955 C 0.86618 0.34107 0.12069 0.0
C1956 C 0.86587 0.32555 0.10388 0.0
H1957 H 0.8505 0.51033 0.09676 0.0
H1958 H 0.86894 0.4716 0.10099 0.0
C1959 C 0.87406 0.30146 0.10387 0.0
C1960 C 0.85551 0.36533 0.1208 0.0
H1961 H 0.793 0.37635 0.1082 0.0
C1962 C 0.87685 0.39663 0.12713 0.0
C1963 C 0.82449 0.35781 0.11449 0.0
C1964 C 0.79949 0.32429 0.10865 0.0
C1965 C 0.86839 0.42077 0.12676 0.0
C1966 C 0.83801 0.41362 0.11945 0.0
C1967 C 0.81641 0.38208 0.11363 0.0
C1968 C 0.82787 0.43822 0.11765 0.0
C1969 C 0.89193 0.45348 0.13451 0.0
C1970 C 0.79825 0.4322 0.12516 0.0
C1971 C 0.78741 0.45403 0.12245 0.0
C1972 C 0.806 0.48253 0.11222 0.0
C1973 C 0.83583 0.48879 0.10491 0.0
C1974 C 0.8465 0.46672 0.10744 0.0
H1975 H 0.90863 0.45215 0.14483 0.0
H1976 H 0.90666 0.46928 0.12279 0.0
H1977 H 0.8793 0.46471 0.14147 0.0
H1978 H 0.78334 0.41041 0.13306 0.0
H1979 H 0.76447 0.44864 0.12842 0.0
H1980 H 0.44153 0.14547 0.41763 0.0
H1981 H 0.49194 0.14502 0.41945 0.0
H1982 H 0.47347 0.0996 0.36498 0.0
H1983 H 0.42289 0.10061 0.3628 0.0
H1984 H 0.50271 0.09343 0.4185 0.0
H1985 H 0.56489 0.17815 0.35942 0.0
H1986 H 0.52857 0.17343 0.37002 0.0
H1987 H 0.52652 0.14364 0.35397 0.0
C1988 C 0.44807 0.13542 0.40595 0.0
C1989 C 0.42805 0.12314 0.39002 0.0
C1990 C 0.47696 0.13511 0.40706 0.0
C1991 C 0.48679 0.12269 0.39227 0.0
C1992 C 0.46666 0.1098 0.37645 0.0
H1993 H 0.64654 0.08556 0.40778 0.0
H1994 H 0.59468 0.08049 0.39963 0.0
C1995 C 0.43756 0.11006 0.37532 0.0
C1996 C 0.51806 0.1233 0.39378 0.0
H1997 H 0.59396 0.15751 0.3752 0.0
C1998 C 0.52258 0.10722 0.40893 0.0
C1999 C 0.54414 0.1417 0.38146 0.0
C2000 C 0.54108 0.16047 0.36536 0.0
C2001 C 0.55242 0.10923 0.41223 0.0
C2002 C 0.57848 0.12744 0.39985 0.0
C2003 C 0.57395 0.14339 0.3846 0.0
C2004 C 0.61082 0.131 0.40299 0.0
C2005 C 0.55607 0.09271 0.42935 0.0
C2006 C 0.63763 0.1613 0.40682 0.0
C2007 C 0.66745 0.16432 0.41144 0.0
C2008 C 0.67104 0.13706 0.41233 0.0
C2009 C 0.64447 0.10697 0.40764 0.0
C2010 C 0.61477 0.104 0.40297 0.0
H2011 H 0.53648 0.0864 0.43974 0.0
H2012 H 0.55518 0.07016 0.42493 0.0
H2013 H 0.57954 0.10815 0.4364 0.0
H2014 H 0.63521 0.18251 0.40685 0.0
H2015 H 0.68732 0.18782 0.41504 0.0
H2016 H 0.52074 0.3358 0.09674 0.0
H2017 H 0.56962 0.38702 0.10351 0.0
H2018 H 0.51146 0.42741 0.12126 0.0
H2019 H 0.46268 0.37645 0.11449 0.0
H2020 H 0.55629 0.46487 0.09527 0.0
H2021 H 0.61435 0.43266 0.15207 0.0
H2022 H 0.60438 0.40752 0.13161 0.0
H2023 H 0.57275 0.40705 0.14542 0.0
C2024 C 0.5184 0.35536 0.10251 0.0
C2025 C 0.48781 0.35208 0.10497 0.0
C2026 C 0.54638 0.38466 0.10639 0.0
C2027 C 0.54428 0.4111 0.11301 0.0
C2028 C 0.51374 0.40743 0.11614 0.0
H2029 H 0.70581 0.59818 0.1477 0.0
H2030 H 0.65496 0.54669 0.147 0.0
C2031 C 0.48586 0.37828 0.11222 0.0
C2032 C 0.57363 0.44328 0.11522 0.0
H2033 H 0.64655 0.48381 0.13746 0.0
C2034 C 0.5759 0.469 0.10461 0.0
C2035 C 0.59914 0.44886 0.12753 0.0
C2036 C 0.59751 0.42266 0.13995 0.0
C2037 C 0.60319 0.49983 0.10561 0.0
C2038 C 0.62918 0.50509 0.11736 0.0
C2039 C 0.62667 0.47966 0.12836 0.0
C2040 C 0.65956 0.53658 0.11785 0.0
C2041 C 0.604 0.5266 0.09411 0.0
C2042 C 0.67898 0.54795 0.10172 0.0
C2043 C 0.70776 0.57736 0.10206 0.0
C2044 C 0.71784 0.59604 0.11854 0.0
C2045 C 0.69836 0.58468 0.13469 0.0
C2046 C 0.66951 0.55512 0.13437 0.0
H2047 H 0.57951 0.52081 0.08957 0.0
H2048 H 0.61512 0.54941 0.10221 0.0
H2049 H 0.61874 0.53047 0.08129 0.0
H2050 H 0.672 0.53388 0.0889 0.0
H2051 H 0.72222 0.58541 0.08937 0.0
H2052 H 0.92348 0.55972 0.38683 0.0
H2053 H 0.9254 0.51084 0.38009 0.0
H2054 H 0.83769 0.45529 0.41164 0.0
H2055 H 0.8352 0.50413 0.41785 0.0
H2056 H 0.93299 0.47393 0.40408 0.0
H2057 H 0.81781 0.39838 0.36697 0.0
H2058 H 0.83334 0.4406 0.37118 0.0
H2059 H 0.81174 0.41159 0.3894 0.0
C2060 C 0.90425 0.53695 0.39199 0.0
C2061 C 0.87909 0.53572 0.40279 0.0
C2062 C 0.90542 0.50901 0.38819 0.0
C2063 C 0.88156 0.47913 0.39517 0.0
C2064 C 0.85597 0.47777 0.40563 0.0
H2065 H 0.85955 0.2923 0.41117 0.0
H2066 H 0.85803 0.3421 0.41139 0.0
C2067 C 0.85457 0.50573 0.40923 0.0
C2068 C 0.88488 0.45004 0.39269 0.0
H2069 H 0.84461 0.37129 0.37895 0.0
C2070 C 0.91377 0.45164 0.39834 0.0
C2071 C 0.85993 0.42083 0.38516 0.0
C2072 C 0.82912 0.4178 0.37765 0.0
C2073 C 0.91796 0.42474 0.39725 0.0
C2074 C 0.89266 0.39538 0.39029 0.0
C2075 C 0.86399 0.39383 0.38434 0.0
C2076 C 0.8947 0.3655 0.3901 0.0
C2077 C 0.94901 0.42756 0.40415 0.0
C2078 C 0.91599 0.36201 0.37804 0.0
C2079 C 0.91687 0.33325 0.37777 0.0
C2080 C 0.89655 0.30748 0.3896 0.0
C2081 C 0.87557 0.31142 0.40178 0.0
C2082 C 0.87459 0.33995 0.40195 0.0
H2083 H 0.96428 0.45048 0.41174 0.0
H2084 H 0.94398 0.40726 0.41367 0.0
H2085 H 0.96285 0.42645 0.39194 0.0
H2086 H 0.93149 0.38129 0.36859 0.0
H2087 H 0.93283 0.33097 0.36797 0.0
H2088 H 0.18321 0.68009 0.5912 0.0
H2089 H 0.16043 0.62222 0.59578 0.0
H2090 H 0.21859 0.64062 0.64558 0.0
H2091 H 0.24171 0.69838 0.64092 0.0
H2092 H 0.22518 0.60104 0.6224 0.0
H2093 H 0.09504 0.55689 0.63155 0.0
H2094 H 0.11098 0.58005 0.61044 0.0
H2095 H 0.12506 0.59896 0.63302 0.0
C2096 C 0.19064 0.67175 0.60333 0.0
C2097 C 0.2144 0.69383 0.61563 0.0
C2098 C 0.17748 0.63863 0.60599 0.0
C2099 C 0.18746 0.62692 0.62117 0.0
C2100 C 0.21044 0.64898 0.63379 0.0
H2101 H 0.12052 0.42472 0.64997 0.0
H2102 H 0.13023 0.47996 0.65115 0.0
C2103 C 0.22375 0.68202 0.63106 0.0
C2104 C 0.17645 0.59205 0.62291 0.0
H2105 H 0.10976 0.51699 0.62471 0.0
C2106 C 0.19992 0.58277 0.62313 0.0
C2107 C 0.14351 0.56806 0.62403 0.0
C2108 C 0.1172 0.57647 0.62495 0.0
C2109 C 0.19142 0.55032 0.62382 0.0
C2110 C 0.15853 0.52633 0.62396 0.0
C2111 C 0.13497 0.53545 0.6244 0.0
C2112 C 0.14863 0.4918 0.62271 0.0
C2113 C 0.21778 0.54192 0.6241 0.0
C2114 C 0.15465 0.4799 0.60614 0.0
C2115 C 0.14893 0.44848 0.60537 0.0
C2116 C 0.13736 0.42832 0.62124 0.0
C2117 C 0.1296 0.43968 0.63753 0.0
C2118 C 0.13517 0.47122 0.63825 0.0
H2119 H 0.24115 0.56252 0.62873 0.0
H2120 H 0.21145 0.52117 0.63353 0.0
H2121 H 0.22094 0.53519 0.60967 0.0
H2122 H 0.16461 0.49525 0.59391 0.0
H2123 H 0.15429 0.44024 0.59242 0.0
H2124 H 0.30191 0.86847 0.91784 0.0
H2125 H 0.35221 0.86745 0.91835 0.0
H2126 H 0.37545 0.90934 0.86287 0.0
H2127 H 0.32471 0.91024 0.86213 0.0
H2128 H 0.38243 0.85206 0.86893 0.0
H2129 H 0.44496 0.94666 0.92304 0.0
H2130 H 0.40473 0.91617 0.92916 0.0
H2131 H 0.41103 0.94259 0.90972 0.0
C2132 C 0.3177 0.87765 0.90573 0.0
C2133 C 0.30923 0.88959 0.88996 0.0
C2134 C 0.34656 0.87713 0.9061 0.0
C2135 C 0.36771 0.88847 0.89071 0.0
C2136 C 0.35952 0.90054 0.87493 0.0
H2137 H 0.56334 0.92185 0.89737 0.0
H2138 H 0.51562 0.92563 0.88998 0.0
C2139 C 0.33063 0.90129 0.87459 0.0
C2140 C 0.39798 0.88704 0.89119 0.0
H2141 H 0.46835 0.91467 0.91558 0.0
C2142 C 0.40139 0.86593 0.879 0.0
C2143 C 0.42277 0.90528 0.90426 0.0
C2144 C 0.42097 0.92918 0.91721 0.0
C2145 C 0.42854 0.86196 0.87991 0.0
C2146 C 0.45279 0.87937 0.89346 0.0
C2147 C 0.4497 0.90111 0.90527 0.0
C2148 C 0.48167 0.87566 0.89575 0.0
C2149 C 0.43113 0.83934 0.86628 0.0
C2150 C 0.47867 0.84611 0.90109 0.0
C2151 C 0.50607 0.84387 0.90535 0.0
C2152 C 0.53697 0.87123 0.90453 0.0
C2153 C 0.53989 0.9004 0.89838 0.0
C2154 C 0.51261 0.9026 0.89412 0.0
H2155 H 0.41534 0.83448 0.85382 0.0
H2156 H 0.45633 0.84921 0.86139 0.0
H2157 H 0.42358 0.81614 0.87346 0.0
H2158 H 0.45507 0.82508 0.90277 0.0
H2159 H 0.50295 0.82115 0.91023 0.0
H2160 H 0.60169 0.70584 0.64892 0.0
H2161 H 0.54623 0.66012 0.64791 0.0
H2162 H 0.53786 0.68214 0.59007 0.0
H2163 H 0.593 0.72706 0.59083 0.0
H2164 H 0.48883 0.67874 0.61658 0.0
H2165 H 0.50385 0.57124 0.6187 0.0
H2166 H 0.52657 0.6034 0.63509 0.0
H2167 H 0.53543 0.60981 0.61043 0.0
C2168 C 0.58821 0.7005 0.6359 0.0
C2169 C 0.6015 0.72052 0.62008 0.0
C2170 C 0.55653 0.67438 0.63534 0.0
C2171 C 0.53784 0.66782 0.61893 0.0
C2172 C 0.55173 0.68684 0.60291 0.0
H2173 H 0.34419 0.55625 0.57761 0.0
H2174 H 0.40113 0.59369 0.58352 0.0
C2175 C 0.58324 0.71266 0.60341 0.0
C2176 C 0.50308 0.64297 0.61861 0.0
H2177 H 0.4508 0.562 0.61677 0.0
C2178 C 0.48049 0.6532 0.61674 0.0
C2179 C 0.49222 0.6097 0.61901 0.0
C2180 C 0.51564 0.59762 0.62083 0.0
C2181 C 0.44742 0.63114 0.61494 0.0
C2182 C 0.43656 0.59779 0.61447 0.0
C2183 C 0.45907 0.5875 0.61698 0.0
C2184 C 0.40218 0.57357 0.61059 0.0
C2185 C 0.42443 0.64387 0.61366 0.0
C2186 C 0.38393 0.54875 0.62343 0.0
C2187 C 0.35119 0.52702 0.62001 0.0
C2188 C 0.33607 0.52971 0.60367 0.0
C2189 C 0.35478 0.55392 0.59056 0.0
C2190 C 0.38741 0.57542 0.59393 0.0
H2191 H 0.43481 0.66808 0.62014 0.0
H2192 H 0.41954 0.64607 0.59862 0.0
H2193 H 0.40121 0.62753 0.62071 0.0
H2194 H 0.39481 0.54664 0.63632 0.0
H2195 H 0.33751 0.50871 0.63041 0.0
H2196 H 0.09488 0.64062 0.89872 0.0
H2197 H 0.09241 0.58976 0.89147 0.0
H2198 H 0.1915 0.63002 0.90841 0.0
H2199 H 0.1942 0.68123 0.91562 0.0
H2200 H 0.17584 0.59105 0.87612 0.0
H2201 H 0.08703 0.52891 0.93325 0.0
H2202 H 0.07478 0.54837 0.9163 0.0
H2203 H 0.10925 0.57205 0.93098 0.0
C2204 C 0.11621 0.63872 0.90085 0.0
C2205 C 0.14462 0.66489 0.90801 0.0
C2206 C 0.11474 0.60959 0.89672 0.0
C2207 C 0.14152 0.60577 0.89981 0.0
C2208 C 0.17045 0.63231 0.90603 0.0
H2209 H 0.14248 0.42923 0.91867 0.0
H2210 H 0.14506 0.48109 0.92017 0.0
C2211 C 0.172 0.66161 0.91009 0.0
C2212 C 0.13886 0.57375 0.89732 0.0
H2213 H 0.09847 0.49639 0.91345 0.0
C2214 C 0.15892 0.57032 0.88426 0.0
C2215 C 0.11701 0.54676 0.9081 0.0
C2216 C 0.09599 0.54914 0.92308 0.0
C2217 C 0.15758 0.54065 0.88162 0.0
C2218 C 0.13527 0.51353 0.89215 0.0
C2219 C 0.11532 0.51704 0.90523 0.0
C2220 C 0.13356 0.48178 0.89077 0.0
C2221 C 0.1807 0.53881 0.86798 0.0
C2222 C 0.12587 0.46451 0.87376 0.0
C2223 C 0.12457 0.43474 0.87283 0.0
C2224 C 0.13058 0.4215 0.88893 0.0
C2225 C 0.13783 0.43869 0.90595 0.0
C2226 C 0.13922 0.46838 0.90686 0.0
H2227 H 0.20103 0.563 0.86437 0.0
H2228 H 0.19063 0.52419 0.87389 0.0
H2229 H 0.16773 0.52719 0.85478 0.0
H2230 H 0.12083 0.47402 0.86121 0.0
H2231 H 0.11942 0.42239 0.85944 0.0
H2232 H 0.29039 0.84713 0.6423 0.0
H2233 H 0.33724 0.84047 0.63832 0.0
H2234 H 0.37845 0.91961 0.59922 0.0
H2235 H 0.33114 0.92625 0.60294 0.0
H2236 H 0.35733 0.83217 0.59727 0.0
H2237 H 0.45129 0.93084 0.64098 0.0
H2238 H 0.40905 0.91296 0.64671 0.0
H2239 H 0.42477 0.93804 0.62634 0.0
C2240 C 0.30954 0.86342 0.633 0.0
C2241 C 0.30696 0.88715 0.62285 0.0
C2242 C 0.33633 0.85959 0.63078 0.0
C2243 C 0.36127 0.87952 0.61849 0.0
C2244 C 0.3595 0.9041 0.60886 0.0
H2245 H 0.53145 0.86285 0.59156 0.0
H2246 H 0.49402 0.88336 0.5945 0.0
C2247 C 0.33254 0.90793 0.61105 0.0
C2248 C 0.38763 0.87262 0.61483 0.0
H2249 H 0.46465 0.89425 0.62738 0.0
C2250 C 0.3808 0.84574 0.60383 0.0
C2251 C 0.4184 0.89076 0.62309 0.0
C2252 C 0.42662 0.91981 0.635 0.0
C2253 C 0.40357 0.83587 0.60135 0.0
C2254 C 0.43394 0.85316 0.61028 0.0
C2255 C 0.44129 0.88088 0.62067 0.0
C2256 C 0.45767 0.84188 0.60951 0.0
C2257 C 0.39484 0.80687 0.58924 0.0
C2258 C 0.45003 0.81214 0.6174 0.0
C2259 C 0.47137 0.80044 0.61585 0.0
C2260 C 0.50096 0.81823 0.60639 0.0
C2261 C 0.50901 0.84856 0.59903 0.0
C2262 C 0.48759 0.86029 0.60062 0.0
H2263 H 0.37463 0.80164 0.57953 0.0
H2264 H 0.41582 0.81032 0.58079 0.0
H2265 H 0.38719 0.78559 0.59842 0.0
H2266 H 0.42736 0.79781 0.62466 0.0
H2267 H 0.46463 0.77737 0.62208 0.0
H2268 H 0.59769 0.70482 0.86004 0.0
H2269 H 0.54341 0.65734 0.86013 0.0
H2270 H 0.53706 0.66757 0.92005 0.0
H2271 H 0.59083 0.71476 0.92003 0.0
H2272 H 0.51632 0.59903 0.87875 0.0
H2273 H 0.45654 0.66607 0.90164 0.0
H2274 H 0.49766 0.68595 0.89343 0.0
H2275 H 0.48826 0.67201 0.91739 0.0
C2276 C 0.58483 0.6967 0.87325 0.0
C2277 C 0.59855 0.7137 0.89 0.0
C2278 C 0.55372 0.66967 0.87327 0.0
C2279 C 0.53572 0.65932 0.89002 0.0
C2280 C 0.54997 0.6756 0.90684 0.0
H2281 H 0.36834 0.50243 0.93691 0.0
H2282 H 0.41855 0.55119 0.9287 0.0
C2283 C 0.58085 0.70255 0.90682 0.0
C2284 C 0.50214 0.6315 0.8902 0.0
H2285 H 0.42599 0.6087 0.90545 0.0
C2286 C 0.49645 0.60124 0.88427 0.0
C2287 C 0.47603 0.63435 0.89725 0.0
C2288 C 0.47982 0.66642 0.9026 0.0
C2289 C 0.46587 0.57359 0.88619 0.0
C2290 C 0.44032 0.57627 0.89418 0.0
C2291 C 0.44565 0.60666 0.89941 0.0
C2292 C 0.40882 0.54751 0.89881 0.0
C2293 C 0.4613 0.54138 0.88048 0.0
C2294 C 0.38624 0.52962 0.88474 0.0
C2295 C 0.35722 0.50177 0.88944 0.0
C2296 C 0.35056 0.49124 0.90825 0.0
C2297 C 0.3729 0.50978 0.92228 0.0
C2298 C 0.40159 0.53766 0.91762 0.0
H2299 H 0.4841 0.543 0.87569 0.0
H2300 H 0.45157 0.52438 0.89251 0.0
H2301 H 0.44347 0.53129 0.86887 0.0
H2302 H 0.39128 0.53698 0.87014 0.0
H2303 H 0.34055 0.48789 0.87834 0.0
loop_
_geom_bond_atom_site_label_1
_geom_bond_atom_site_label_2
_geom_bond_distance
_geom_bond_site_symmetry_2
_ccdc_geom_bond_type
Eu0 N29 2.600 . S
Eu0 N35 2.562 . S
Eu0 O44 2.462 . S
Eu0 O45 2.373 . S
Eu0 O47 2.432 . S
Eu0 O48 2.291 . S
Eu0 O52 2.335 . S
Eu0 O55 2.372 . S
Eu0 C64 2.787 . S
C1 N2 1.365 . S
C1 C4 1.405 . S
C1 C8 1.448 . S
N2 C1 1.365 . S
N2 C5 1.319 . S
N2 Eu11 2.600 . S
C3 C5 1.397 . S
C3 C6 1.367 . S
C3 H23 0.931 . S
C4 C1 1.405 . S
C4 C6 1.403 . S
C4 C10 1.439 . S
C5 N2 1.319 . S
C5 C3 1.397 . S
C5 H16 0.930 . S
C6 C3 1.367 . S
C6 C4 1.403 . S
C6 H27 0.929 . S
C7 C8 1.430 . S
C7 C9 1.387 . S
C7 C13 1.404 . S
C8 C1 1.448 . S
C8 C7 1.430 . S
C8 N12 1.351 . S
C9 C7 1.387 . S
C9 C10 1.374 . S
C9 H24 0.931 . S
C10 C4 1.439 . S
C10 C9 1.374 . S
C10 H25 0.931 . S
Eu11 N2 2.600 . S
Eu11 N12 2.562 . S
Eu11 O46 2.335 . S
Eu11 O49 2.372 . S
Eu11 O50 2.462 . S
Eu11 O51 2.373 . S
Eu11 O53 2.432 . S
Eu11 O54 2.291 . S
Eu11 C75 2.787 . S
N12 C8 1.351 . S
N12 Eu11 2.562 . S
N12 C14 1.325 . S
C13 C7 1.404 . S
C13 C15 1.366 . S
C13 H21 0.930 . S
C14 N12 1.325 . S
C14 C15 1.416 . S
C14 H20 0.929 . S
C15 C13 1.366 . S
C15 C14 1.416 . S
C15 H17 0.930 . S
H16 C5 0.930 . S
H17 C15 0.930 . S
H18 C33 0.930 . S
H19 C40 0.930 . S
H20 C14 0.929 . S
H21 C13 0.930 . S
H22 C36 0.929 . S
H23 C3 0.931 . S
H24 C9 0.931 . S
H25 C10 0.931 . S
H26 C31 0.931 . S
H27 C6 0.929 . S
H28 C39 0.930 . S
N29 Eu0 2.600 . S
N29 C30 1.365 . S
N29 C33 1.319 . S
C30 N29 1.365 . S
C30 C32 1.405 . S
C30 C38 1.448 . S
C31 H26 0.931 . S
C31 C33 1.397 . S
C31 C34 1.367 . S
C32 C30 1.405 . S
C32 C34 1.403 . S
C32 C65 1.439 . S
C33 H18 0.930 . S
C33 N29 1.319 . S
C33 C31 1.397 . S
C34 C31 1.367 . S
C34 C32 1.403 . S
C34 H41 0.929 . S
N35 Eu0 2.562 . S
N35 C36 1.325 . S
N35 C38 1.351 . S
C36 H22 0.929 . S
C36 N35 1.325 . S
C36 C40 1.416 . S
C37 C38 1.430 . S
C37 C39 1.404 . S
C37 C66 1.387 . S
C38 C30 1.448 . S
C38 N35 1.351 . S
C38 C37 1.430 . S
C39 H28 0.930 . S
C39 C37 1.404 . S
C39 C40 1.366 . S
C40 H19 0.930 . S
C40 C36 1.416 . S
C40 C39 1.366 . S
H41 C34 0.929 . S
H42 C65 0.931 . S
H43 C66 0.931 . S
O44 Eu0 2.462 . S
O44 C64 1.252 . S
O45 Eu0 2.373 . S
O45 C56 1.249 . S
O46 Eu11 2.335 . S
O46 C56 1.264 . S
O47 Eu0 2.432 . S
O47 C64 1.268 . S
O48 Eu0 2.291 . S
O48 C63 1.255 . S
O49 Eu11 2.372 . S
O49 C63 1.257 . S
O50 Eu11 2.462 . S
O50 C75 1.252 . S
O51 Eu11 2.373 . S
O51 C67 1.249 . S
O52 Eu0 2.335 . S
O52 C67 1.264 . S
O53 Eu11 2.432 . S
O53 C75 1.268 . S
O54 Eu11 2.291 . S
O54 C74 1.255 . S
O55 Eu0 2.372 . S
O55 C74 1.257 . S
C56 O45 1.249 . S
C56 O46 1.264 . S
C57 C60 1.382 . S
C57 C62 1.390 . S
C57 C64 1.506 . S
C58 C59 1.398 . S
C58 C62 1.392 1_565 S
C59 C58 1.398 . S
C59 C61 1.372 . S
C59 H76 0.931 . S
C60 C57 1.382 . S
C60 C61 1.390 1_545 S
C60 H77 0.931 . S
C61 C59 1.372 . S
C61 C60 1.390 1_565 S
C61 H78 0.929 . S
C62 C57 1.390 . S
C62 C58 1.392 1_545 S
C62 H79 0.930 . S
C63 O48 1.255 . S
C63 O49 1.257 . S
C64 Eu0 2.787 . S
C64 O44 1.252 . S
C64 O47 1.268 . S
C64 C57 1.506 . S
C65 C32 1.439 . S
C65 H42 0.931 . S
C65 C66 1.374 . S
C66 C37 1.387 . S
C66 H43 0.931 . S
C66 C65 1.374 . S
C67 O51 1.249 . S
C67 O52 1.264 . S
C68 C71 1.382 . S
C68 C72 1.390 . S
C68 C75 1.506 . S
C69 C70 1.398 . S
C69 C72 1.392 . S
C70 C69 1.398 . S
C70 C73 1.372 . S
C70 H80 0.931 . S
C71 C68 1.382 . S
C71 C73 1.390 . S
C71 H81 0.931 . S
C72 C68 1.390 . S
C72 C69 1.392 . S
C72 H82 0.930 . S
C73 C70 1.372 . S
C73 C71 1.390 . S
C73 H83 0.929 . S
C74 O54 1.255 . S
C74 O55 1.257 . S
C75 Eu11 2.787 . S
C75 O50 1.252 . S
C75 O53 1.268 . S
C75 C68 1.506 . S
H76 C59 0.931 . S
H77 C60 0.931 . S
H78 C61 0.929 . S
H79 C62 0.930 . S
H80 C70 0.931 . S
H81 C71 0.931 . S
H82 C72 0.930 . S
H83 C73 0.929 . S
Eu84 N113 2.600 . S
Eu84 N119 2.562 . S
Eu84 O128 2.462 . S
Eu84 O129 2.373 . S
Eu84 O131 2.432 . S
Eu84 O132 2.291 . S
Eu84 O136 2.335 . S
Eu84 O139 2.372 . S
Eu84 C148 2.787 . S
C85 N86 1.365 . S
C85 C88 1.405 . S
C85 C92 1.448 . S
N86 C85 1.365 . S
N86 C89 1.319 . S
N86 Eu95 2.600 . S
C87 C89 1.397 . S
C87 C90 1.367 . S
C87 H107 0.931 . S
C88 C85 1.405 . S
C88 C90 1.403 . S
C88 C94 1.439 . S
C89 N86 1.319 . S
C89 C87 1.397 . S
C89 H100 0.930 . S
C90 C87 1.367 . S
C90 C88 1.403 . S
C90 H111 0.929 . S
C91 C92 1.430 . S
C91 C93 1.387 . S
C91 C97 1.404 . S
C92 C85 1.448 . S
C92 C91 1.430 . S
C92 N96 1.351 . S
C93 C91 1.387 . S
C93 C94 1.374 . S
C93 H108 0.931 . S
C94 C88 1.439 . S
C94 C93 1.374 . S
C94 H109 0.931 . S
Eu95 N86 2.600 . S
Eu95 N96 2.562 . S
Eu95 O130 2.335 . S
Eu95 O133 2.372 . S
Eu95 O134 2.462 . S
Eu95 O135 2.373 . S
Eu95 O137 2.432 . S
Eu95 O138 2.291 . S
Eu95 C159 2.787 . S
N96 C92 1.351 . S
N96 Eu95 2.562 . S
N96 C98 1.325 . S
C97 C91 1.404 . S
C97 C99 1.366 . S
C97 H105 0.930 . S
C98 N96 1.325 . S
C98 C99 1.416 . S
C98 H104 0.929 . S
C99 C97 1.366 . S
C99 C98 1.416 . S
C99 H101 0.930 . S
H100 C89 0.930 . S
H101 C99 0.930 . S
H102 C117 0.930 . S
H103 C124 0.930 . S
H104 C98 0.929 . S
H105 C97 0.930 . S
H106 C120 0.929 . S
H107 C87 0.931 . S
H108 C93 0.931 . S
H109 C94 0.931 . S
H110 C115 0.931 . S
H111 C90 0.929 . S
H112 C123 0.930 . S
N113 Eu84 2.600 . S
N113 C114 1.365 . S
N113 C117 1.319 . S
C114 N113 1.365 . S
C114 C116 1.405 . S
C114 C122 1.448 . S
C115 H110 0.931 . S
C115 C117 1.397 . S
C115 C118 1.367 . S
C116 C114 1.405 . S
C116 C118 1.403 . S
C116 C149 1.439 . S
C117 H102 0.930 . S
C117 N113 1.319 . S
C117 C115 1.397 . S
C118 C115 1.367 . S
C118 C116 1.403 . S
C118 H125 0.929 . S
N119 Eu84 2.562 . S
N119 C120 1.325 . S
N119 C122 1.351 . S
C120 H106 0.929 . S
C120 N119 1.325 . S
C120 C124 1.416 . S
C121 C122 1.430 . S
C121 C123 1.404 . S
C121 C150 1.387 . S
C122 C114 1.448 . S
C122 N119 1.351 . S
C122 C121 1.430 . S
C123 H112 0.930 . S
C123 C121 1.404 . S
C123 C124 1.366 . S
C124 H103 0.930 . S
C124 C120 1.416 . S
C124 C123 1.366 . S
H125 C118 0.929 . S
H126 C149 0.931 . S
H127 C150 0.924 1_455 S
O128 Eu84 2.462 . S
O128 C148 1.252 . S
O129 Eu84 2.373 . S
O129 C140 1.249 . S
O130 Eu95 2.335 . S
O130 C140 1.264 . S
O131 Eu84 2.432 . S
O131 C148 1.268 . S
O132 Eu84 2.291 . S
O132 C147 1.255 . S
O133 Eu95 2.372 . S
O133 C147 1.257 . S
O134 Eu95 2.462 . S
O134 C159 1.252 . S
O135 Eu95 2.373 . S
O135 C151 1.249 . S
O136 Eu84 2.335 . S
O136 C151 1.264 . S
O137 Eu95 2.432 . S
O137 C159 1.268 . S
O138 Eu95 2.291 . S
O138 C158 1.255 . S
O139 Eu84 2.372 . S
O139 C158 1.257 . S
C140 O129 1.249 . S
C140 O130 1.264 . S
C141 C144 1.382 . S
C141 C146 1.390 . S
C141 C148 1.506 . S
C142 C143 1.398 . S
C142 C146 1.392 . S
C143 C142 1.398 . S
C143 C145 1.372 . S
C143 H160 0.931 . S
C144 C141 1.382 . S
C144 C145 1.390 . S
C144 H161 0.931 . S
C145 C143 1.372 . S
C145 C144 1.390 . S
C145 H162 0.929 . S
C146 C141 1.390 . S
C146 C142 1.392 . S
C146 H163 0.930 . S
C147 O132 1.255 . S
C147 O133 1.257 . S
C148 Eu84 2.787 . S
C148 O128 1.252 . S
C148 O131 1.268 . S
C148 C141 1.506 . S
C149 C116 1.439 . S
C149 H126 0.931 . S
C149 C150 1.374 . S
C150 C121 1.387 . S
C150 H127 0.924 1_655 S
C150 C149 1.374 . S
C151 O135 1.249 . S
C151 O136 1.264 . S
C152 C155 1.382 . S
C152 C156 1.390 . S
C152 C159 1.506 . S
C153 C154 1.398 . S
C153 C156 1.392 . S
C154 C153 1.398 . S
C154 C157 1.372 . S
C154 H164 0.931 . S
C155 C152 1.382 . S
C155 C157 1.390 . S
C155 H165 0.931 . S
C156 C152 1.390 . S
C156 C153 1.392 . S
C156 H166 0.930 . S
C157 C154 1.372 . S
C157 C155 1.390 . S
C157 H167 0.929 . S
C158 O138 1.255 . S
C158 O139 1.257 . S
C159 Eu95 2.787 . S
C159 O134 1.252 . S
C159 O137 1.268 . S
C159 C152 1.506 . S
H160 C143 0.931 . S
H161 C144 0.931 . S
H162 C145 0.929 . S
H163 C146 0.930 . S
H164 C154 0.931 . S
H165 C155 0.931 . S
H166 C156 0.930 . S
H167 C157 0.929 . S
Eu168 N197 2.600 . S
Eu168 N203 2.562 . S
Eu168 O212 2.462 . S
Eu168 O213 2.373 . S
Eu168 O215 2.432 . S
Eu168 O216 2.291 . S
Eu168 O220 2.335 . S
Eu168 O223 2.372 . S
Eu168 C232 2.787 . S
C169 N170 1.365 . S
C169 C172 1.405 . S
C169 C176 1.448 . S
N170 C169 1.365 . S
N170 C173 1.319 . S
N170 Eu179 2.600 . S
C171 C173 1.397 . S
C171 C174 1.367 . S
C171 H191 0.931 . S
C172 C169 1.405 . S
C172 C174 1.403 . S
C172 C178 1.439 . S
C173 N170 1.319 . S
C173 C171 1.397 . S
C173 H184 0.930 . S
C174 C171 1.367 . S
C174 C172 1.403 . S
C174 H195 0.929 . S
C175 C176 1.430 . S
C175 C177 1.387 . S
C175 C181 1.404 . S
C176 C169 1.448 . S
C176 C175 1.430 . S
C176 N180 1.351 . S
C177 C175 1.387 . S
C177 C178 1.374 . S
C177 H192 0.925 1_545 S
C178 C172 1.439 . S
C178 C177 1.374 . S
C178 H193 0.931 . S
Eu179 N170 2.600 . S
Eu179 N180 2.562 . S
Eu179 O214 2.335 . S
Eu179 O217 2.372 . S
Eu179 O218 2.462 . S
Eu179 O219 2.373 . S
Eu179 O221 2.432 . S
Eu179 O222 2.291 . S
Eu179 C243 2.787 . S
N180 C176 1.351 . S
N180 Eu179 2.562 . S
N180 C182 1.325 . S
C181 C175 1.404 . S
C181 C183 1.366 . S
C181 H189 0.930 . S
C182 N180 1.325 . S
C182 C183 1.416 . S
C182 H188 0.929 . S
C183 C181 1.366 . S
C183 C182 1.416 . S
C183 H185 0.930 . S
H184 C173 0.930 . S
H185 C183 0.930 . S
H186 C201 0.930 . S
H187 C208 0.930 . S
H188 C182 0.929 . S
H189 C181 0.930 . S
H190 C204 0.929 . S
H191 C171 0.931 . S
H192 C177 0.925 1_565 S
H193 C178 0.931 . S
H194 C199 0.931 . S
H195 C174 0.929 . S
H196 C207 0.930 . S
N197 Eu168 2.600 . S
N197 C198 1.365 . S
N197 C201 1.319 . S
C198 N197 1.365 . S
C198 C200 1.405 . S
C198 C206 1.448 . S
C199 H194 0.931 . S
C199 C201 1.397 . S
C199 C202 1.367 . S
C200 C198 1.405 . S
C200 C202 1.403 . S
C200 C233 1.439 . S
C201 H186 0.930 . S
C201 N197 1.319 . S
C201 C199 1.397 . S
C202 C199 1.367 . S
C202 C200 1.403 . S
C202 H209 0.929 . S
N203 Eu168 2.562 . S
N203 C204 1.325 . S
N203 C206 1.351 . S
C204 H190 0.929 . S
C204 N203 1.325 . S
C204 C208 1.416 . S
C205 C206 1.430 . S
C205 C207 1.404 . S
C205 C234 1.387 . S
C206 C198 1.448 . S
C206 N203 1.351 . S
C206 C205 1.430 . S
C207 H196 0.930 . S
C207 C205 1.404 . S
C207 C208 1.366 . S
C208 H187 0.930 . S
C208 C204 1.416 . S
C208 C207 1.366 . S
H209 C202 0.929 . S
H210 C233 0.931 . S
H211 C234 0.931 . S
O212 Eu168 2.462 . S
O212 C232 1.252 . S
O213 Eu168 2.373 . S
O213 C224 1.249 . S
O214 Eu179 2.335 . S
O214 C224 1.264 . S
O215 Eu168 2.432 . S
O215 C232 1.268 . S
O216 Eu168 2.291 . S
O216 C231 1.255 . S
O217 Eu179 2.372 . S
O217 C231 1.257 . S
O218 Eu179 2.462 . S
O218 C243 1.252 . S
O219 Eu179 2.373 . S
O219 C235 1.249 . S
O220 Eu168 2.335 . S
O220 C235 1.264 . S
O221 Eu179 2.432 . S
O221 C243 1.268 . S
O222 Eu179 2.291 . S
O222 C242 1.255 . S
O223 Eu168 2.372 . S
O223 C242 1.257 . S
C224 O213 1.249 . S
C224 O214 1.264 . S
C225 C228 1.382 . S
C225 C230 1.390 . S
C225 C232 1.506 . S
C226 C227 1.398 . S
C226 C230 1.392 1_455 S
C227 C226 1.398 . S
C227 C229 1.372 . S
C227 H244 0.931 . S
C228 C225 1.382 . S
C228 C229 1.390 1_655 S
C228 H245 0.931 . S
C229 C227 1.372 . S
C229 C228 1.390 1_455 S
C229 H246 0.929 . S
C230 C225 1.390 . S
C230 C226 1.392 1_655 S
C230 H247 0.930 . S
C231 O216 1.255 . S
C231 O217 1.257 . S
C232 Eu168 2.787 . S
C232 O212 1.252 . S
C232 O215 1.268 . S
C232 C225 1.506 . S
C233 C200 1.439 . S
C233 H210 0.931 . S
C233 C234 1.374 . S
C234 C205 1.387 . S
C234 H211 0.931 . S
C234 C233 1.374 . S
C235 O219 1.249 . S
C235 O220 1.264 . S
C236 C239 1.382 . S
C236 C240 1.390 . S
C236 C243 1.506 . S
C237 C238 1.398 . S
C237 C240 1.392 . S
C238 C237 1.398 . S
C238 C241 1.372 . S
C238 H248 0.931 . S
C239 C236 1.382 . S
C239 C241 1.390 . S
C239 H249 0.931 . S
C240 C236 1.390 . S
C240 C237 1.392 . S
C240 H250 0.930 . S
C241 C238 1.372 . S
C241 C239 1.390 . S
C241 H251 0.929 . S
C242 O222 1.255 . S
C242 O223 1.257 . S
C243 Eu179 2.787 . S
C243 O218 1.252 . S
C243 O221 1.268 . S
C243 C236 1.506 . S
H244 C227 0.931 . S
H245 C228 0.931 . S
H246 C229 0.929 . S
H247 C230 0.930 . S
H248 C238 0.931 . S
H249 C239 0.931 . S
H250 C240 0.930 . S
H251 C241 0.929 . S
Eu252 N281 2.600 . S
Eu252 N287 2.562 . S
Eu252 O296 2.462 . S
Eu252 O297 2.373 . S
Eu252 O299 2.432 . S
Eu252 O300 2.291 . S
Eu252 O304 2.335 . S
Eu252 O307 2.372 . S
Eu252 C316 2.787 . S
C253 N254 1.365 . S
C253 C256 1.405 . S
C253 C260 1.448 . S
N254 C253 1.365 . S
N254 C257 1.319 . S
N254 Eu263 2.600 . S
C255 C257 1.397 . S
C255 C258 1.367 . S
C255 H275 0.931 . S
C256 C253 1.405 . S
C256 C258 1.403 . S
C256 C262 1.439 . S
C257 N254 1.319 . S
C257 C255 1.397 . S
C257 H268 0.930 . S
C258 C255 1.367 . S
C258 C256 1.403 . S
C258 H279 0.929 . S
C259 C260 1.430 . S
C259 C261 1.387 . S
C259 C265 1.404 . S
C260 C253 1.448 . S
C260 C259 1.430 . S
C260 N264 1.351 . S
C261 C259 1.387 . S
C261 C262 1.374 . S
C261 H276 0.931 . S
C262 C256 1.439 . S
C262 C261 1.374 . S
C262 H277 0.931 . S
Eu263 N254 2.600 . S
Eu263 N264 2.562 . S
Eu263 O298 2.335 . S
Eu263 O301 2.372 . S
Eu263 O302 2.462 . S
Eu263 O303 2.373 . S
Eu263 O305 2.432 . S
Eu263 O306 2.291 . S
Eu263 C327 2.787 . S
N264 C260 1.351 . S
N264 Eu263 2.562 . S
N264 C266 1.325 . S
C265 C259 1.404 . S
C265 C267 1.366 . S
C265 H273 0.930 . S
C266 N264 1.325 . S
C266 C267 1.416 . S
C266 H272 0.929 . S
C267 C265 1.366 . S
C267 C266 1.416 . S
C267 H269 0.930 . S
H268 C257 0.930 . S
H269 C267 0.930 . S
H270 C285 0.930 . S
H271 C292 0.930 . S
H272 C266 0.929 . S
H273 C265 0.930 . S
H274 C288 0.929 . S
H275 C255 0.931 . S
H276 C261 0.931 . S
H277 C262 0.931 . S
H278 C283 0.931 . S
H279 C258 0.929 . S
H280 C291 0.930 . S
N281 Eu252 2.600 . S
N281 C282 1.365 . S
N281 C285 1.319 . S
C282 N281 1.365 . S
C282 C284 1.405 . S
C282 C290 1.448 . S
C283 H278 0.931 . S
C283 C285 1.397 . S
C283 C286 1.367 . S
C284 C282 1.405 . S
C284 C286 1.403 . S
C284 C317 1.439 . S
C285 H270 0.930 . S
C285 N281 1.319 . S
C285 C283 1.397 . S
C286 C283 1.367 . S
C286 C284 1.403 . S
C286 H293 0.929 . S
N287 Eu252 2.562 . S
N287 C288 1.325 . S
N287 C290 1.351 . S
C288 H274 0.929 . S
C288 N287 1.325 . S
C288 C292 1.416 . S
C289 C290 1.430 . S
C289 C291 1.404 . S
C289 C318 1.387 . S
C290 C282 1.448 . S
C290 N287 1.351 . S
C290 C289 1.430 . S
C291 H280 0.930 . S
C291 C289 1.404 . S
C291 C292 1.366 . S
C292 H271 0.930 . S
C292 C288 1.416 . S
C292 C291 1.366 . S
H293 C286 0.929 . S
H294 C317 0.931 . S
H295 C318 0.931 . S
O296 Eu252 2.462 . S
O296 C316 1.252 . S
O297 Eu252 2.373 . S
O297 C308 1.249 . S
O298 Eu263 2.335 . S
O298 C308 1.264 . S
O299 Eu252 2.432 . S
O299 C316 1.268 . S
O300 Eu252 2.291 . S
O300 C315 1.255 . S
O301 Eu263 2.372 . S
O301 C315 1.257 . S
O302 Eu263 2.462 . S
O302 C327 1.252 . S
O303 Eu263 2.373 . S
O303 C319 1.249 . S
O304 Eu252 2.335 . S
O304 C319 1.264 . S
O305 Eu263 2.432 . S
O305 C327 1.268 . S
O306 Eu263 2.291 . S
O306 C326 1.255 . S
O307 Eu252 2.372 . S
O307 C326 1.257 . S
C308 O297 1.249 . S
C308 O298 1.264 . S
C309 C312 1.382 . S
C309 C314 1.390 . S
C309 C316 1.506 . S
C310 C311 1.398 . S
C310 C314 1.392 . S
C311 C310 1.398 . S
C311 C313 1.372 . S
C311 H328 0.931 . S
C312 C309 1.382 . S
C312 C313 1.390 . S
C312 H329 0.931 . S
C313 C311 1.372 . S
C313 C312 1.390 . S
C313 H330 0.929 . S
C314 C309 1.390 . S
C314 C310 1.392 . S
C314 H331 0.930 . S
C315 O300 1.255 . S
C315 O301 1.257 . S
C316 Eu252 2.787 . S
C316 O296 1.252 . S
C316 O299 1.268 . S
C316 C309 1.506 . S
C317 C284 1.439 . S
C317 H294 0.931 . S
C317 C318 1.374 . S
C318 C289 1.387 . S
C318 H295 0.931 . S
C318 C317 1.374 . S
C319 O303 1.249 . S
C319 O304 1.264 . S
C320 C323 1.382 . S
C320 C324 1.390 . S
C320 C327 1.506 . S
C321 C322 1.398 . S
C321 C324 1.392 1_565 S
C322 C321 1.398 . S
C322 C325 1.372 . S
C322 H332 0.931 . S
C323 C320 1.382 . S
C323 C325 1.390 1_545 S
C323 H333 0.931 . S
C324 C320 1.390 . S
C324 C321 1.392 1_545 S
C324 H334 0.930 . S
C325 C322 1.372 . S
C325 C323 1.390 1_565 S
C325 H335 0.929 . S
C326 O306 1.255 . S
C326 O307 1.257 . S
C327 Eu263 2.787 . S
C327 O302 1.252 . S
C327 O305 1.268 . S
C327 C320 1.506 . S
H328 C311 0.931 . S
H329 C312 0.931 . S
H330 C313 0.929 . S
H331 C314 0.930 . S
H332 C322 0.931 . S
H333 C323 0.931 . S
H334 C324 0.930 . S
H335 C325 0.929 . S
Eu336 N365 2.600 . S
Eu336 N371 2.562 . S
Eu336 O380 2.462 . S
Eu336 O381 2.373 . S
Eu336 O383 2.432 . S
Eu336 O384 2.291 . S
Eu336 O388 2.335 . S
Eu336 O391 2.372 . S
Eu336 C400 2.787 . S
C337 N338 1.365 . S
C337 C340 1.405 . S
C337 C344 1.448 . S
N338 C337 1.365 . S
N338 C341 1.319 . S
N338 Eu347 2.600 . S
C339 C341 1.397 . S
C339 C342 1.367 . S
C339 H359 0.931 . S
C340 C337 1.405 . S
C340 C342 1.403 . S
C340 C346 1.439 . S
C341 N338 1.319 . S
C341 C339 1.397 . S
C341 H352 0.930 . S
C342 C339 1.367 . S
C342 C340 1.403 . S
C342 H363 0.929 . S
C343 C344 1.430 . S
C343 C345 1.387 . S
C343 C349 1.404 . S
C344 C337 1.448 . S
C344 C343 1.430 . S
C344 N348 1.351 . S
C345 C343 1.387 . S
C345 C346 1.374 . S
C345 H360 0.924 1_655 S
C346 C340 1.439 . S
C346 C345 1.374 . S
C346 H361 0.931 . S
Eu347 N338 2.600 . S
Eu347 N348 2.562 . S
Eu347 O382 2.335 . S
Eu347 O385 2.372 . S
Eu347 O386 2.462 . S
Eu347 O387 2.373 . S
Eu347 O389 2.432 . S
Eu347 O390 2.291 . S
Eu347 C411 2.787 . S
N348 C344 1.351 . S
N348 Eu347 2.562 . S
N348 C350 1.325 . S
C349 C343 1.404 . S
C349 C351 1.366 . S
C349 H357 0.930 . S
C350 N348 1.325 . S
C350 C351 1.416 . S
C350 H356 0.929 . S
C351 C349 1.366 . S
C351 C350 1.416 . S
C351 H353 0.930 . S
H352 C341 0.930 . S
H353 C351 0.930 . S
H354 C369 0.930 . S
H355 C376 0.930 . S
H356 C350 0.929 . S
H357 C349 0.930 . S
H358 C372 0.929 . S
H359 C339 0.931 . S
H360 C345 0.924 1_455 S
H361 C346 0.931 . S
H362 C367 0.931 . S
H363 C342 0.929 . S
H364 C375 0.930 . S
N365 Eu336 2.600 . S
N365 C366 1.365 . S
N365 C369 1.319 . S
C366 N365 1.365 . S
C366 C368 1.405 . S
C366 C374 1.448 . S
C367 H362 0.931 . S
C367 C369 1.397 . S
C367 C370 1.367 . S
C368 C366 1.405 . S
C368 C370 1.403 . S
C368 C401 1.439 . S
C369 H354 0.930 . S
C369 N365 1.319 . S
C369 C367 1.397 . S
C370 C367 1.367 . S
C370 C368 1.403 . S
C370 H377 0.929 . S
N371 Eu336 2.562 . S
N371 C372 1.325 . S
N371 C374 1.351 . S
C372 H358 0.929 . S
C372 N371 1.325 . S
C372 C376 1.416 . S
C373 C374 1.430 . S
C373 C375 1.404 . S
C373 C402 1.387 . S
C374 C366 1.448 . S
C374 N371 1.351 . S
C374 C373 1.430 . S
C375 H364 0.930 . S
C375 C373 1.404 . S
C375 C376 1.366 . S
C376 H355 0.930 . S
C376 C372 1.416 . S
C376 C375 1.366 . S
H377 C370 0.929 . S
H378 C401 0.931 . S
H379 C402 0.931 . S
O380 Eu336 2.462 . S
O380 C400 1.252 . S
O381 Eu336 2.373 . S
O381 C392 1.249 . S
O382 Eu347 2.335 . S
O382 C392 1.264 . S
O383 Eu336 2.432 . S
O383 C400 1.268 . S
O384 Eu336 2.291 . S
O384 C399 1.255 . S
O385 Eu347 2.372 . S
O385 C399 1.257 . S
O386 Eu347 2.462 . S
O386 C411 1.252 . S
O387 Eu347 2.373 . S
O387 C403 1.249 . S
O388 Eu336 2.335 . S
O388 C403 1.264 . S
O389 Eu347 2.432 . S
O389 C411 1.268 . S
O390 Eu347 2.291 . S
O390 C410 1.255 . S
O391 Eu336 2.372 . S
O391 C410 1.257 . S
C392 O381 1.249 . S
C392 O382 1.264 . S
C393 C396 1.382 . S
C393 C398 1.390 . S
C393 C400 1.506 . S
C394 C395 1.398 . S
C394 C398 1.392 . S
C395 C394 1.398 . S
C395 C397 1.372 . S
C395 H412 0.931 . S
C396 C393 1.382 . S
C396 C397 1.390 . S
C396 H413 0.931 . S
C397 C395 1.372 . S
C397 C396 1.390 . S
C397 H414 0.929 . S
C398 C393 1.390 . S
C398 C394 1.392 . S
C398 H415 0.930 . S
C399 O384 1.255 . S
C399 O385 1.257 . S
C400 Eu336 2.787 . S
C400 O380 1.252 . S
C400 O383 1.268 . S
C400 C393 1.506 . S
C401 C368 1.439 . S
C401 H378 0.931 . S
C401 C402 1.374 . S
C402 C373 1.387 . S
C402 H379 0.931 . S
C402 C401 1.374 . S
C403 O387 1.249 . S
C403 O388 1.264 . S
C404 C407 1.382 . S
C404 C408 1.390 . S
C404 C411 1.506 . S
C405 C406 1.398 . S
C405 C408 1.392 . S
C406 C405 1.398 . S
C406 C409 1.372 . S
C406 H416 0.931 . S
C407 C404 1.382 . S
C407 C409 1.390 . S
C407 H417 0.931 . S
C408 C404 1.390 . S
C408 C405 1.392 . S
C408 H418 0.930 . S
C409 C406 1.372 . S
C409 C407 1.390 . S
C409 H419 0.929 . S
C410 O390 1.255 . S
C410 O391 1.257 . S
C411 Eu347 2.787 . S
C411 O386 1.252 . S
C411 O389 1.268 . S
C411 C404 1.506 . S
H412 C395 0.931 . S
H413 C396 0.931 . S
H414 C397 0.929 . S
H415 C398 0.930 . S
H416 C406 0.931 . S
H417 C407 0.931 . S
H418 C408 0.930 . S
H419 C409 0.929 . S
Eu420 N449 2.600 . S
Eu420 N455 2.562 . S
Eu420 O464 2.462 . S
Eu420 O465 2.373 . S
Eu420 O467 2.432 . S
Eu420 O468 2.291 . S
Eu420 O472 2.335 . S
Eu420 O475 2.372 . S
Eu420 C484 2.787 . S
C421 N422 1.365 . S
C421 C424 1.405 . S
C421 C428 1.448 . S
N422 C421 1.365 . S
N422 C425 1.319 . S
N422 Eu431 2.600 . S
C423 C425 1.397 . S
C423 C426 1.367 . S
C423 H443 0.931 . S
C424 C421 1.405 . S
C424 C426 1.403 . S
C424 C430 1.439 . S
C425 N422 1.319 . S
C425 C423 1.397 . S
C425 H436 0.930 . S
C426 C423 1.367 . S
C426 C424 1.403 . S
C426 H447 0.929 . S
C427 C428 1.430 . S
C427 C429 1.387 . S
C427 C433 1.404 . S
C428 C421 1.448 . S
C428 C427 1.430 . S
C428 N432 1.351 . S
C429 C427 1.387 . S
C429 C430 1.374 . S
C429 H444 0.931 . S
C430 C424 1.439 . S
C430 C429 1.374 . S
C430 H445 0.931 . S
Eu431 N422 2.600 . S
Eu431 N432 2.562 . S
Eu431 O466 2.335 . S
Eu431 O469 2.372 . S
Eu431 O470 2.462 . S
Eu431 O471 2.373 . S
Eu431 O473 2.432 . S
Eu431 O474 2.291 . S
Eu431 C495 2.787 . S
N432 C428 1.351 . S
N432 Eu431 2.562 . S
N432 C434 1.325 . S
C433 C427 1.404 . S
C433 C435 1.366 . S
C433 H441 0.930 . S
C434 N432 1.325 . S
C434 C435 1.416 . S
C434 H440 0.929 . S
C435 C433 1.366 . S
C435 C434 1.416 . S
C435 H437 0.930 . S
H436 C425 0.930 . S
H437 C435 0.930 . S
H438 C453 0.930 . S
H439 C460 0.930 . S
H440 C434 0.929 . S
H441 C433 0.930 . S
H442 C456 0.929 . S
H443 C423 0.931 . S
H444 C429 0.931 . S
H445 C430 0.931 . S
H446 C451 0.931 . S
H447 C426 0.929 . S
H448 C459 0.930 . S
N449 Eu420 2.600 . S
N449 C450 1.365 . S
N449 C453 1.319 . S
C450 N449 1.365 . S
C450 C452 1.405 . S
C450 C458 1.448 . S
C451 H446 0.931 . S
C451 C453 1.397 . S
C451 C454 1.367 . S
C452 C450 1.405 . S
C452 C454 1.403 . S
C452 C485 1.439 . S
C453 H438 0.930 . S
C453 N449 1.319 . S
C453 C451 1.397 . S
C454 C451 1.367 . S
C454 C452 1.403 . S
C454 H461 0.929 . S
N455 Eu420 2.562 . S
N455 C456 1.325 . S
N455 C458 1.351 . S
C456 H442 0.929 . S
C456 N455 1.325 . S
C456 C460 1.416 . S
C457 C458 1.430 . S
C457 C459 1.404 . S
C457 C486 1.387 . S
C458 C450 1.448 . S
C458 N455 1.351 . S
C458 C457 1.430 . S
C459 H448 0.930 . S
C459 C457 1.404 . S
C459 C460 1.366 . S
C460 H439 0.930 . S
C460 C456 1.416 . S
C460 C459 1.366 . S
H461 C454 0.929 . S
H462 C485 0.931 . S
H463 C486 0.925 1_565 S
O464 Eu420 2.462 . S
O464 C484 1.252 . S
O465 Eu420 2.373 . S
O465 C476 1.249 . S
O466 Eu431 2.335 . S
O466 C476 1.264 . S
O467 Eu420 2.432 . S
O467 C484 1.268 . S
O468 Eu420 2.291 . S
O468 C483 1.255 . S
O469 Eu431 2.372 . S
O469 C483 1.257 . S
O470 Eu431 2.462 . S
O470 C495 1.252 . S
O471 Eu431 2.373 . S
O471 C487 1.249 . S
O472 Eu420 2.335 . S
O472 C487 1.264 . S
O473 Eu431 2.432 . S
O473 C495 1.268 . S
O474 Eu431 2.291 . S
O474 C494 1.255 . S
O475 Eu420 2.372 . S
O475 C494 1.257 . S
C476 O465 1.249 . S
C476 O466 1.264 . S
C477 C480 1.382 . S
C477 C482 1.390 . S
C477 C484 1.506 . S
C478 C479 1.398 . S
C478 C482 1.392 . S
C479 C478 1.398 . S
C479 C481 1.372 . S
C479 H496 0.931 . S
C480 C477 1.382 . S
C480 C481 1.390 . S
C480 H497 0.931 . S
C481 C479 1.372 . S
C481 C480 1.390 . S
C481 H498 0.929 . S
C482 C477 1.390 . S
C482 C478 1.392 . S
C482 H499 0.930 . S
C483 O468 1.255 . S
C483 O469 1.257 . S
C484 Eu420 2.787 . S
C484 O464 1.252 . S
C484 O467 1.268 . S
C484 C477 1.506 . S
C485 C452 1.439 . S
C485 H462 0.931 . S
C485 C486 1.374 . S
C486 C457 1.387 . S
C486 H463 0.925 1_545 S
C486 C485 1.374 . S
C487 O471 1.249 . S
C487 O472 1.264 . S
C488 C491 1.382 . S
C488 C492 1.390 . S
C488 C495 1.506 . S
C489 C490 1.398 . S
C489 C492 1.392 1_455 S
C490 C489 1.398 . S
C490 C493 1.372 . S
C490 H500 0.931 . S
C491 C488 1.382 . S
C491 C493 1.390 1_655 S
C491 H501 0.931 . S
C492 C488 1.390 . S
C492 C489 1.392 1_655 S
C492 H502 0.930 . S
C493 C490 1.372 . S
C493 C491 1.390 1_455 S
C493 H503 0.929 . S
C494 O474 1.255 . S
C494 O475 1.257 . S
C495 Eu431 2.787 . S
C495 O470 1.252 . S
C495 O473 1.268 . S
C495 C488 1.506 . S
H496 C479 0.931 . S
H497 C480 0.931 . S
H498 C481 0.929 . S
H499 C482 0.930 . S
H500 C490 0.931 . S
H501 C491 0.931 . S
H502 C492 0.930 . S
H503 C493 0.929 . S
Eu504 N533 2.600 . S
Eu504 N539 2.562 . S
Eu504 O548 2.462 . S
Eu504 O549 2.373 . S
Eu504 O551 2.432 . S
Eu504 O552 2.291 . S
Eu504 O556 2.335 . S
Eu504 O559 2.372 . S
Eu504 C568 2.787 . S
C505 N506 1.365 . S
C505 C508 1.405 . S
C505 C512 1.448 . S
N506 C505 1.365 . S
N506 C509 1.319 . S
N506 Eu515 2.600 . S
C507 C509 1.397 . S
C507 C510 1.367 . S
C507 H527 0.931 . S
C508 C505 1.405 . S
C508 C510 1.403 . S
C508 C514 1.439 . S
C509 N506 1.319 . S
C509 C507 1.397 . S
C509 H520 0.930 . S
C510 C507 1.367 . S
C510 C508 1.403 . S
C510 H531 0.929 . S
C511 C512 1.430 . S
C511 C513 1.387 . S
C511 C517 1.404 . S
C512 C505 1.448 . S
C512 C511 1.430 . S
C512 N516 1.351 . S
C513 C511 1.387 . S
C513 C514 1.374 . S
C513 H528 0.931 . S
C514 C508 1.439 . S
C514 C513 1.374 . S
C514 H529 0.931 . S
Eu515 N506 2.600 . S
Eu515 N516 2.562 . S
Eu515 O550 2.335 . S
Eu515 O553 2.372 . S
Eu515 O554 2.462 . S
Eu515 O555 2.373 . S
Eu515 O557 2.432 . S
Eu515 O558 2.291 . S
Eu515 C579 2.787 . S
N516 C512 1.351 . S
N516 Eu515 2.562 . S
N516 C518 1.325 . S
C517 C511 1.404 . S
C517 C519 1.366 . S
C517 H525 0.930 . S
C518 N516 1.325 . S
C518 C519 1.416 . S
C518 H524 0.929 . S
C519 C517 1.366 . S
C519 C518 1.416 . S
C519 H521 0.930 . S
H520 C509 0.930 . S
H521 C519 0.930 . S
H522 C537 0.930 . S
H523 C544 0.930 . S
H524 C518 0.929 . S
H525 C517 0.930 . S
H526 C540 0.929 . S
H527 C507 0.931 . S
H528 C513 0.931 . S
H529 C514 0.931 . S
H530 C535 0.931 . S
H531 C510 0.929 . S
H532 C543 0.930 . S
N533 Eu504 2.600 . S
N533 C534 1.365 . S
N533 C537 1.319 . S
C534 N533 1.365 . S
C534 C536 1.405 . S
C534 C542 1.448 . S
C535 H530 0.931 . S
C535 C537 1.397 . S
C535 C538 1.367 . S
C536 C534 1.405 . S
C536 C538 1.403 . S
C536 C569 1.439 . S
C537 H522 0.930 . S
C537 N533 1.319 . S
C537 C535 1.397 . S
C538 C535 1.367 . S
C538 C536 1.403 . S
C538 H545 0.929 . S
N539 Eu504 2.562 . S
N539 C540 1.325 . S
N539 C542 1.351 . S
C540 H526 0.929 . S
C540 N539 1.325 . S
C540 C544 1.416 . S
C541 C542 1.430 . S
C541 C543 1.404 . S
C541 C570 1.387 . S
C542 C534 1.448 . S
C542 N539 1.351 . S
C542 C541 1.430 . S
C543 H532 0.930 . S
C543 C541 1.404 . S
C543 C544 1.366 . S
C544 H523 0.930 . S
C544 C540 1.416 . S
C544 C543 1.366 . S
H545 C538 0.929 . S
H546 C569 0.931 . S
H547 C570 0.931 . S
O548 Eu504 2.462 . S
O548 C568 1.252 . S
O549 Eu504 2.373 . S
O549 C560 1.249 . S
O550 Eu515 2.335 . S
O550 C560 1.264 . S
O551 Eu504 2.432 . S
O551 C568 1.268 . S
O552 Eu504 2.291 . S
O552 C567 1.255 . S
O553 Eu515 2.372 . S
O553 C567 1.257 . S
O554 Eu515 2.462 . S
O554 C579 1.252 . S
O555 Eu515 2.373 . S
O555 C571 1.249 . S
O556 Eu504 2.335 . S
O556 C571 1.264 . S
O557 Eu515 2.432 . S
O557 C579 1.268 . S
O558 Eu515 2.291 . S
O558 C578 1.255 . S
O559 Eu504 2.372 . S
O559 C578 1.257 . S
C560 O549 1.249 . S
C560 O550 1.264 . S
C561 C564 1.382 . S
C561 C566 1.390 . S
C561 C568 1.506 . S
C562 C563 1.398 . S
C562 C566 1.392 . S
C563 C562 1.398 . S
C563 C565 1.372 . S
C563 H580 0.931 . S
C564 C561 1.382 . S
C564 C565 1.390 . S
C564 H581 0.931 . S
C565 C563 1.372 . S
C565 C564 1.390 . S
C565 H582 0.929 . S
C566 C561 1.390 . S
C566 C562 1.392 . S
C566 H583 0.930 . S
C567 O552 1.255 . S
C567 O553 1.257 . S
C568 Eu504 2.787 . S
C568 O548 1.252 . S
C568 O551 1.268 . S
C568 C561 1.506 . S
C569 C536 1.439 . S
C569 H546 0.931 . S
C569 C570 1.374 . S
C570 C541 1.387 . S
C570 H547 0.931 . S
C570 C569 1.374 . S
C571 O555 1.249 . S
C571 O556 1.264 . S
C572 C575 1.382 . S
C572 C576 1.390 . S
C572 C579 1.506 . S
C573 C574 1.398 . S
C573 C576 1.392 1_655 S
C574 C573 1.398 . S
C574 C577 1.372 . S
C574 H584 0.931 . S
C575 C572 1.382 . S
C575 C577 1.390 1_455 S
C575 H585 0.931 . S
C576 C572 1.390 . S
C576 C573 1.392 1_455 S
C576 H586 0.930 . S
C577 C574 1.372 . S
C577 C575 1.390 1_655 S
C577 H587 0.929 . S
C578 O558 1.255 . S
C578 O559 1.257 . S
C579 Eu515 2.787 . S
C579 O554 1.252 . S
C579 O557 1.268 . S
C579 C572 1.506 . S
H580 C563 0.931 . S
H581 C564 0.931 . S
H582 C565 0.929 . S
H583 C566 0.930 . S
H584 C574 0.931 . S
H585 C575 0.931 . S
H586 C576 0.930 . S
H587 C577 0.929 . S
Eu588 N617 2.600 . S
Eu588 N623 2.562 . S
Eu588 O632 2.462 . S
Eu588 O633 2.373 . S
Eu588 O635 2.432 . S
Eu588 O636 2.291 . S
Eu588 O640 2.335 . S
Eu588 O643 2.372 . S
Eu588 C652 2.787 . S
C589 N590 1.365 . S
C589 C592 1.405 . S
C589 C596 1.448 . S
N590 C589 1.365 . S
N590 C593 1.319 . S
N590 Eu599 2.600 . S
C591 C593 1.397 . S
C591 C594 1.367 . S
C591 H611 0.931 . S
C592 C589 1.405 . S
C592 C594 1.403 . S
C592 C598 1.439 . S
C593 N590 1.319 . S
C593 C591 1.397 . S
C593 H604 0.930 . S
C594 C591 1.367 . S
C594 C592 1.403 . S
C594 H615 0.929 . S
C595 C596 1.430 . S
C595 C597 1.387 . S
C595 C601 1.404 . S
C596 C589 1.448 . S
C596 C595 1.430 . S
C596 N600 1.351 . S
C597 C595 1.387 . S
C597 C598 1.374 . S
C597 H612 0.925 1_455 S
C598 C592 1.439 . S
C598 C597 1.374 . S
C598 H613 0.931 . S
Eu599 N590 2.600 . S
Eu599 N600 2.562 . S
Eu599 O634 2.335 . S
Eu599 O637 2.372 . S
Eu599 O638 2.462 . S
Eu599 O639 2.373 . S
Eu599 O641 2.432 . S
Eu599 O642 2.291 . S
Eu599 C663 2.787 . S
N600 C596 1.351 . S
N600 Eu599 2.562 . S
N600 C602 1.325 . S
C601 C595 1.404 . S
C601 C603 1.366 . S
C601 H609 0.930 . S
C602 N600 1.325 . S
C602 C603 1.416 . S
C602 H608 0.929 . S
C603 C601 1.366 . S
C603 C602 1.416 . S
C603 H605 0.930 . S
H604 C593 0.930 . S
H605 C603 0.930 . S
H606 C621 0.930 . S
H607 C628 0.930 . S
H608 C602 0.929 . S
H609 C601 0.930 . S
H610 C624 0.929 . S
H611 C591 0.931 . S
H612 C597 0.925 1_655 S
H613 C598 0.931 . S
H614 C619 0.931 . S
H615 C594 0.929 . S
H616 C627 0.930 . S
N617 Eu588 2.600 . S
N617 C618 1.365 . S
N617 C621 1.319 . S
C618 N617 1.365 . S
C618 C620 1.405 . S
C618 C626 1.448 . S
C619 H614 0.931 . S
C619 C621 1.397 . S
C619 C622 1.367 . S
C620 C618 1.405 . S
C620 C622 1.403 . S
C620 C653 1.439 . S
C621 H606 0.930 . S
C621 N617 1.319 . S
C621 C619 1.397 . S
C622 C619 1.367 . S
C622 C620 1.403 . S
C622 H629 0.929 . S
N623 Eu588 2.562 . S
N623 C624 1.325 . S
N623 C626 1.351 . S
C624 H610 0.929 . S
C624 N623 1.325 . S
C624 C628 1.416 . S
C625 C626 1.430 . S
C625 C627 1.404 . S
C625 C654 1.387 . S
C626 C618 1.448 . S
C626 N623 1.351 . S
C626 C625 1.430 . S
C627 H616 0.930 . S
C627 C625 1.404 . S
C627 C628 1.366 . S
C628 H607 0.930 . S
C628 C624 1.416 . S
C628 C627 1.366 . S
H629 C622 0.929 . S
H630 C653 0.931 . S
H631 C654 0.931 . S
O632 Eu588 2.462 . S
O632 C652 1.252 . S
O633 Eu588 2.373 . S
O633 C644 1.249 . S
O634 Eu599 2.335 . S
O634 C644 1.264 . S
O635 Eu588 2.432 . S
O635 C652 1.268 . S
O636 Eu588 2.291 . S
O636 C651 1.255 . S
O637 Eu599 2.372 . S
O637 C651 1.257 . S
O638 Eu599 2.462 . S
O638 C663 1.252 . S
O639 Eu599 2.373 . S
O639 C655 1.249 . S
O640 Eu588 2.335 . S
O640 C655 1.264 . S
O641 Eu599 2.432 . S
O641 C663 1.268 . S
O642 Eu599 2.291 . S
O642 C662 1.255 . S
O643 Eu588 2.372 . S
O643 C662 1.257 . S
C644 O633 1.249 . S
C644 O634 1.264 . S
C645 C648 1.382 . S
C645 C650 1.390 . S
C645 C652 1.506 . S
C646 C647 1.398 . S
C646 C650 1.392 1_545 S
C647 C646 1.398 . S
C647 C649 1.372 . S
C647 H664 0.931 . S
C648 C645 1.382 . S
C648 C649 1.390 1_565 S
C648 H665 0.931 . S
C649 C647 1.372 . S
C649 C648 1.390 1_545 S
C649 H666 0.929 . S
C650 C645 1.390 . S
C650 C646 1.392 1_565 S
C650 H667 0.930 . S
C651 O636 1.255 . S
C651 O637 1.257 . S
C652 Eu588 2.787 . S
C652 O632 1.252 . S
C652 O635 1.268 . S
C652 C645 1.506 . S
C653 C620 1.439 . S
C653 H630 0.931 . S
C653 C654 1.374 . S
C654 C625 1.387 . S
C654 H631 0.931 . S
C654 C653 1.374 . S
C655 O639 1.249 . S
C655 O640 1.264 . S
C656 C659 1.382 . S
C656 C660 1.390 . S
C656 C663 1.506 . S
C657 C658 1.398 . S
C657 C660 1.392 . S
C658 C657 1.398 . S
C658 C661 1.372 . S
C658 H668 0.931 . S
C659 C656 1.382 . S
C659 C661 1.390 . S
C659 H669 0.931 . S
C660 C656 1.390 . S
C660 C657 1.392 . S
C660 H670 0.930 . S
C661 C658 1.372 . S
C661 C659 1.390 . S
C661 H671 0.929 . S
C662 O642 1.255 . S
C662 O643 1.257 . S
C663 Eu599 2.787 . S
C663 O638 1.252 . S
C663 O641 1.268 . S
C663 C656 1.506 . S
H664 C647 0.931 . S
H665 C648 0.931 . S
H666 C649 0.929 . S
H667 C650 0.930 . S
H668 C658 0.931 . S
H669 C659 0.931 . S
H670 C660 0.930 . S
H671 C661 0.929 . S
Eu672 N701 2.600 . S
Eu672 N707 2.562 . S
Eu672 O716 2.462 . S
Eu672 O717 2.373 . S
Eu672 O719 2.432 . S
Eu672 O720 2.291 . S
Eu672 O724 2.335 . S
Eu672 O727 2.372 . S
Eu672 C736 2.787 . S
C673 N674 1.365 . S
C673 C676 1.405 . S
C673 C680 1.448 . S
N674 C673 1.365 . S
N674 C677 1.319 . S
N674 Eu683 2.600 . S
C675 C677 1.397 . S
C675 C678 1.367 . S
C675 H695 0.931 . S
C676 C673 1.405 . S
C676 C678 1.403 . S
C676 C682 1.439 . S
C677 N674 1.319 . S
C677 C675 1.397 . S
C677 H688 0.930 . S
C678 C675 1.367 . S
C678 C676 1.403 . S
C678 H699 0.929 . S
C679 C680 1.430 . S
C679 C681 1.387 . S
C679 C685 1.404 . S
C680 C673 1.448 . S
C680 C679 1.430 . S
C680 N684 1.351 . S
C681 C679 1.387 . S
C681 C682 1.374 . S
C681 H696 0.931 . S
C682 C676 1.439 . S
C682 C681 1.374 . S
C682 H697 0.931 . S
Eu683 N674 2.600 . S
Eu683 N684 2.562 . S
Eu683 O718 2.335 . S
Eu683 O721 2.372 . S
Eu683 O722 2.462 . S
Eu683 O723 2.373 . S
Eu683 O725 2.432 . S
Eu683 O726 2.291 . S
Eu683 C747 2.787 . S
N684 C680 1.351 . S
N684 Eu683 2.562 . S
N684 C686 1.325 . S
C685 C679 1.404 . S
C685 C687 1.366 . S
C685 H693 0.930 . S
C686 N684 1.325 . S
C686 C687 1.416 . S
C686 H692 0.929 . S
C687 C685 1.366 . S
C687 C686 1.416 . S
C687 H689 0.930 . S
H688 C677 0.930 . S
H689 C687 0.930 . S
H690 C705 0.930 . S
H691 C712 0.930 . S
H692 C686 0.929 . S
H693 C685 0.930 . S
H694 C708 0.929 . S
H695 C675 0.931 . S
H696 C681 0.931 . S
H697 C682 0.931 . S
H698 C703 0.931 . S
H699 C678 0.929 . S
H700 C711 0.930 . S
N701 Eu672 2.600 . S
N701 C702 1.365 . S
N701 C705 1.319 . S
C702 N701 1.365 . S
C702 C704 1.405 . S
C702 C710 1.448 . S
C703 H698 0.931 . S
C703 C705 1.397 . S
C703 C706 1.367 . S
C704 C702 1.405 . S
C704 C706 1.403 . S
C704 C737 1.439 . S
C705 H690 0.930 . S
C705 N701 1.319 . S
C705 C703 1.397 . S
C706 C703 1.367 . S
C706 C704 1.403 . S
C706 H713 0.929 . S
N707 Eu672 2.562 . S
N707 C708 1.325 . S
N707 C710 1.351 . S
C708 H694 0.929 . S
C708 N707 1.325 . S
C708 C712 1.416 . S
C709 C710 1.430 . S
C709 C711 1.404 . S
C709 C738 1.387 . S
C710 C702 1.448 . S
C710 N707 1.351 . S
C710 C709 1.430 . S
C711 H700 0.930 . S
C711 C709 1.404 . S
C711 C712 1.366 . S
C712 H691 0.930 . S
C712 C708 1.416 . S
C712 C711 1.366 . S
H713 C706 0.929 . S
H714 C737 0.931 . S
H715 C738 0.924 1_545 S
O716 Eu672 2.462 . S
O716 C736 1.252 . S
O717 Eu672 2.373 . S
O717 C728 1.249 . S
O718 Eu683 2.335 . S
O718 C728 1.264 . S
O719 Eu672 2.432 . S
O719 C736 1.268 . S
O720 Eu672 2.291 . S
O720 C735 1.255 . S
O721 Eu683 2.372 . S
O721 C735 1.257 . S
O722 Eu683 2.462 . S
O722 C747 1.252 . S
O723 Eu683 2.373 . S
O723 C739 1.249 . S
O724 Eu672 2.335 . S
O724 C739 1.264 . S
O725 Eu683 2.432 . S
O725 C747 1.268 . S
O726 Eu683 2.291 . S
O726 C746 1.255 . S
O727 Eu672 2.372 . S
O727 C746 1.257 . S
C728 O717 1.249 . S
C728 O718 1.264 . S
C729 C732 1.382 . S
C729 C734 1.390 . S
C729 C736 1.506 . S
C730 C731 1.398 . S
C730 C734 1.392 . S
C731 C730 1.398 . S
C731 C733 1.372 . S
C731 H748 0.931 . S
C732 C729 1.382 . S
C732 C733 1.390 . S
C732 H749 0.931 . S
C733 C731 1.372 . S
C733 C732 1.390 . S
C733 H750 0.929 . S
C734 C729 1.390 . S
C734 C730 1.392 . S
C734 H751 0.930 . S
C735 O720 1.255 . S
C735 O721 1.257 . S
C736 Eu672 2.787 . S
C736 O716 1.252 . S
C736 O719 1.268 . S
C736 C729 1.506 . S
C737 C704 1.439 . S
C737 H714 0.931 . S
C737 C738 1.374 . S
C738 C709 1.387 . S
C738 H715 0.924 1_565 S
C738 C737 1.374 . S
C739 O723 1.249 . S
C739 O724 1.264 . S
C740 C743 1.382 . S
C740 C744 1.390 . S
C740 C747 1.506 . S
C741 C742 1.398 . S
C741 C744 1.392 . S
C742 C741 1.398 . S
C742 C745 1.372 . S
C742 H752 0.931 . S
C743 C740 1.382 . S
C743 C745 1.390 . S
C743 H753 0.931 . S
C744 C740 1.390 . S
C744 C741 1.392 . S
C744 H754 0.930 . S
C745 C742 1.372 . S
C745 C743 1.390 . S
C745 H755 0.929 . S
C746 O726 1.255 . S
C746 O727 1.257 . S
C747 Eu683 2.787 . S
C747 O722 1.252 . S
C747 O725 1.268 . S
C747 C740 1.506 . S
H748 C731 0.931 . S
H749 C732 0.931 . S
H750 C733 0.929 . S
H751 C734 0.930 . S
H752 C742 0.931 . S
H753 C743 0.931 . S
H754 C744 0.930 . S
H755 C745 0.929 . S
Eu756 N785 2.600 . S
Eu756 N791 2.562 . S
Eu756 O800 2.462 . S
Eu756 O801 2.373 . S
Eu756 O803 2.432 . S
Eu756 O804 2.291 . S
Eu756 O808 2.335 . S
Eu756 O811 2.372 . S
Eu756 C820 2.787 . S
C757 N758 1.365 . S
C757 C760 1.405 . S
C757 C764 1.448 . S
N758 C757 1.365 . S
N758 C761 1.319 . S
N758 Eu767 2.600 . S
C759 C761 1.397 . S
C759 C762 1.367 . S
C759 H779 0.931 . S
C760 C757 1.405 . S
C760 C762 1.403 . S
C760 C766 1.439 . S
C761 N758 1.319 . S
C761 C759 1.397 . S
C761 H772 0.930 . S
C762 C759 1.367 . S
C762 C760 1.403 . S
C762 H783 0.929 . S
C763 C764 1.430 . S
C763 C765 1.387 . S
C763 C769 1.404 . S
C764 C757 1.448 . S
C764 C763 1.430 . S
C764 N768 1.351 . S
C765 C763 1.387 . S
C765 C766 1.374 . S
C765 H780 0.931 . S
C766 C760 1.439 . S
C766 C765 1.374 . S
C766 H781 0.931 . S
Eu767 N758 2.600 . S
Eu767 N768 2.562 . S
Eu767 O802 2.335 . S
Eu767 O805 2.372 . S
Eu767 O806 2.462 . S
Eu767 O807 2.373 . S
Eu767 O809 2.432 . S
Eu767 O810 2.291 . S
Eu767 C831 2.787 . S
N768 C764 1.351 . S
N768 Eu767 2.562 . S
N768 C770 1.325 . S
C769 C763 1.404 . S
C769 C771 1.366 . S
C769 H777 0.930 . S
C770 N768 1.325 . S
C770 C771 1.416 . S
C770 H776 0.929 . S
C771 C769 1.366 . S
C771 C770 1.416 . S
C771 H773 0.930 . S
H772 C761 0.930 . S
H773 C771 0.930 . S
H774 C789 0.930 . S
H775 C796 0.930 . S
H776 C770 0.929 . S
H777 C769 0.930 . S
H778 C792 0.929 . S
H779 C759 0.931 . S
H780 C765 0.931 . S
H781 C766 0.931 . S
H782 C787 0.931 . S
H783 C762 0.929 . S
H784 C795 0.930 . S
N785 Eu756 2.600 . S
N785 C786 1.365 . S
N785 C789 1.319 . S
C786 N785 1.365 . S
C786 C788 1.405 . S
C786 C794 1.448 . S
C787 H782 0.931 . S
C787 C789 1.397 . S
C787 C790 1.367 . S
C788 C786 1.405 . S
C788 C790 1.403 . S
C788 C821 1.439 . S
C789 H774 0.930 . S
C789 N785 1.319 . S
C789 C787 1.397 . S
C790 C787 1.367 . S
C790 C788 1.403 . S
C790 H797 0.929 . S
N791 Eu756 2.562 . S
N791 C792 1.325 . S
N791 C794 1.351 . S
C792 H778 0.929 . S
C792 N791 1.325 . S
C792 C796 1.416 . S
C793 C794 1.430 . S
C793 C795 1.404 . S
C793 C822 1.387 . S
C794 C786 1.448 . S
C794 N791 1.351 . S
C794 C793 1.430 . S
C795 H784 0.930 . S
C795 C793 1.404 . S
C795 C796 1.366 . S
C796 H775 0.930 . S
C796 C792 1.416 . S
C796 C795 1.366 . S
H797 C790 0.929 . S
H798 C821 0.931 . S
H799 C822 0.931 . S
O800 Eu756 2.462 . S
O800 C820 1.252 . S
O801 Eu756 2.373 . S
O801 C812 1.249 . S
O802 Eu767 2.335 . S
O802 C812 1.264 . S
O803 Eu756 2.432 . S
O803 C820 1.268 . S
O804 Eu756 2.291 . S
O804 C819 1.255 . S
O805 Eu767 2.372 . S
O805 C819 1.257 . S
O806 Eu767 2.462 . S
O806 C831 1.252 . S
O807 Eu767 2.373 . S
O807 C823 1.249 . S
O808 Eu756 2.335 . S
O808 C823 1.264 . S
O809 Eu767 2.432 . S
O809 C831 1.268 . S
O810 Eu767 2.291 . S
O810 C830 1.255 . S
O811 Eu756 2.372 . S
O811 C830 1.257 . S
C812 O801 1.249 . S
C812 O802 1.264 . S
C813 C816 1.382 . S
C813 C818 1.390 . S
C813 C820 1.506 . S
C814 C815 1.398 . S
C814 C818 1.392 1_655 S
C815 C814 1.398 . S
C815 C817 1.372 . S
C815 H832 0.931 . S
C816 C813 1.382 . S
C816 C817 1.390 1_455 S
C816 H833 0.931 . S
C817 C815 1.372 . S
C817 C816 1.390 1_655 S
C817 H834 0.929 . S
C818 C813 1.390 . S
C818 C814 1.392 1_455 S
C818 H835 0.930 . S
C819 O804 1.255 . S
C819 O805 1.257 . S
C820 Eu756 2.787 . S
C820 O800 1.252 . S
C820 O803 1.268 . S
C820 C813 1.506 . S
C821 C788 1.439 . S
C821 H798 0.931 . S
C821 C822 1.374 . S
C822 C793 1.387 . S
C822 H799 0.931 . S
C822 C821 1.374 . S
C823 O807 1.249 . S
C823 O808 1.264 . S
C824 C827 1.382 . S
C824 C828 1.390 . S
C824 C831 1.506 . S
C825 C826 1.398 . S
C825 C828 1.392 . S
C826 C825 1.398 . S
C826 C829 1.372 . S
C826 H836 0.931 . S
C827 C824 1.382 . S
C827 C829 1.390 . S
C827 H837 0.931 . S
C828 C824 1.390 . S
C828 C825 1.392 . S
C828 H838 0.930 . S
C829 C826 1.372 . S
C829 C827 1.390 . S
C829 H839 0.929 . S
C830 O810 1.255 . S
C830 O811 1.257 . S
C831 Eu767 2.787 . S
C831 O806 1.252 . S
C831 O809 1.268 . S
C831 C824 1.506 . S
H832 C815 0.931 . S
H833 C816 0.931 . S
H834 C817 0.929 . S
H835 C818 0.930 . S
H836 C826 0.931 . S
H837 C827 0.931 . S
H838 C828 0.930 . S
H839 C829 0.929 . S
Eu840 N869 2.600 . S
Eu840 N875 2.562 . S
Eu840 O884 2.462 . S
Eu840 O885 2.373 . S
Eu840 O887 2.432 . S
Eu840 O888 2.291 . S
Eu840 O892 2.335 . S
Eu840 O895 2.372 . S
Eu840 C904 2.787 . S
C841 N842 1.365 . S
C841 C844 1.405 . S
C841 C848 1.448 . S
N842 C841 1.365 . S
N842 C845 1.319 . S
N842 Eu851 2.600 . S
C843 C845 1.397 . S
C843 C846 1.367 . S
C843 H863 0.931 . S
C844 C841 1.405 . S
C844 C846 1.403 . S
C844 C850 1.439 . S
C845 N842 1.319 . S
C845 C843 1.397 . S
C845 H856 0.930 . S
C846 C843 1.367 . S
C846 C844 1.403 . S
C846 H867 0.929 . S
C847 C848 1.430 . S
C847 C849 1.387 . S
C847 C853 1.404 . S
C848 C841 1.448 . S
C848 C847 1.430 . S
C848 N852 1.351 . S
C849 C847 1.387 . S
C849 C850 1.374 . S
C849 H864 0.931 . S
C850 C844 1.439 . S
C850 C849 1.374 . S
C850 H865 0.931 . S
Eu851 N842 2.600 . S
Eu851 N852 2.562 . S
Eu851 O886 2.335 . S
Eu851 O889 2.372 . S
Eu851 O890 2.462 . S
Eu851 O891 2.373 . S
Eu851 O893 2.432 . S
Eu851 O894 2.291 . S
Eu851 C915 2.787 . S
N852 C848 1.351 . S
N852 Eu851 2.562 . S
N852 C854 1.325 . S
C853 C847 1.404 . S
C853 C855 1.366 . S
C853 H861 0.930 . S
C854 N852 1.325 . S
C854 C855 1.416 . S
C854 H860 0.929 . S
C855 C853 1.366 . S
C855 C854 1.416 . S
C855 H857 0.930 . S
H856 C845 0.930 . S
H857 C855 0.930 . S
H858 C873 0.930 . S
H859 C880 0.930 . S
H860 C854 0.929 . S
H861 C853 0.930 . S
H862 C876 0.929 . S
H863 C843 0.931 . S
H864 C849 0.931 . S
H865 C850 0.931 . S
H866 C871 0.931 . S
H867 C846 0.929 . S
H868 C879 0.930 . S
N869 Eu840 2.600 . S
N869 C870 1.365 . S
N869 C873 1.319 . S
C870 N869 1.365 . S
C870 C872 1.405 . S
C870 C878 1.448 . S
C871 H866 0.931 . S
C871 C873 1.397 . S
C871 C874 1.367 . S
C872 C870 1.405 . S
C872 C874 1.403 . S
C872 C905 1.439 . S
C873 H858 0.930 . S
C873 N869 1.319 . S
C873 C871 1.397 . S
C874 C871 1.367 . S
C874 C872 1.403 . S
C874 H881 0.929 . S
N875 Eu840 2.562 . S
N875 C876 1.325 . S
N875 C878 1.351 . S
C876 H862 0.929 . S
C876 N875 1.325 . S
C876 C880 1.416 . S
C877 C878 1.430 . S
C877 C879 1.404 . S
C877 C906 1.387 . S
C878 C870 1.448 . S
C878 N875 1.351 . S
C878 C877 1.430 . S
C879 H868 0.930 . S
C879 C877 1.404 . S
C879 C880 1.366 . S
C880 H859 0.930 . S
C880 C876 1.416 . S
C880 C879 1.366 . S
H881 C874 0.929 . S
H882 C905 0.931 . S
H883 C906 0.925 1_655 S
O884 Eu840 2.462 . S
O884 C904 1.252 . S
O885 Eu840 2.373 . S
O885 C896 1.249 . S
O886 Eu851 2.335 . S
O886 C896 1.264 . S
O887 Eu840 2.432 . S
O887 C904 1.268 . S
O888 Eu840 2.291 . S
O888 C903 1.255 . S
O889 Eu851 2.372 . S
O889 C903 1.257 . S
O890 Eu851 2.462 . S
O890 C915 1.252 . S
O891 Eu851 2.373 . S
O891 C907 1.249 . S
O892 Eu840 2.335 . S
O892 C907 1.264 . S
O893 Eu851 2.432 . S
O893 C915 1.268 . S
O894 Eu851 2.291 . S
O894 C914 1.255 . S
O895 Eu840 2.372 . S
O895 C914 1.257 . S
C896 O885 1.249 . S
C896 O886 1.264 . S
C897 C900 1.382 . S
C897 C902 1.390 . S
C897 C904 1.506 . S
C898 C899 1.398 . S
C898 C902 1.392 . S
C899 C898 1.398 . S
C899 C901 1.372 . S
C899 H916 0.931 . S
C900 C897 1.382 . S
C900 C901 1.390 . S
C900 H917 0.931 . S
C901 C899 1.372 . S
C901 C900 1.390 . S
C901 H918 0.929 . S
C902 C897 1.390 . S
C902 C898 1.392 . S
C902 H919 0.930 . S
C903 O888 1.255 . S
C903 O889 1.257 . S
C904 Eu840 2.787 . S
C904 O884 1.252 . S
C904 O887 1.268 . S
C904 C897 1.506 . S
C905 C872 1.439 . S
C905 H882 0.931 . S
C905 C906 1.374 . S
C906 C877 1.387 . S
C906 H883 0.925 1_455 S
C906 C905 1.374 . S
C907 O891 1.249 . S
C907 O892 1.264 . S
C908 C911 1.382 . S
C908 C912 1.390 . S
C908 C915 1.506 . S
C909 C910 1.398 . S
C909 C912 1.392 1_545 S
C910 C909 1.398 . S
C910 C913 1.372 . S
C910 H920 0.931 . S
C911 C908 1.382 . S
C911 C913 1.390 1_565 S
C911 H921 0.931 . S
C912 C908 1.390 . S
C912 C909 1.392 1_565 S
C912 H922 0.930 . S
C913 C910 1.372 . S
C913 C911 1.390 1_545 S
C913 H923 0.929 . S
C914 O894 1.255 . S
C914 O895 1.257 . S
C915 Eu851 2.787 . S
C915 O890 1.252 . S
C915 O893 1.268 . S
C915 C908 1.506 . S
H916 C899 0.931 . S
H917 C900 0.931 . S
H918 C901 0.929 . S
H919 C902 0.930 . S
H920 C910 0.931 . S
H921 C911 0.931 . S
H922 C912 0.930 . S
H923 C913 0.929 . S
Eu924 N953 2.600 . S
Eu924 N959 2.562 . S
Eu924 O968 2.462 . S
Eu924 O969 2.373 . S
Eu924 O971 2.432 . S
Eu924 O972 2.291 . S
Eu924 O976 2.335 . S
Eu924 O979 2.372 . S
Eu924 C988 2.787 . S
C925 N926 1.365 . S
C925 C928 1.405 . S
C925 C932 1.448 . S
N926 C925 1.365 . S
N926 C929 1.319 . S
N926 Eu935 2.600 . S
C927 C929 1.397 . S
C927 C930 1.367 . S
C927 H947 0.931 . S
C928 C925 1.405 . S
C928 C930 1.403 . S
C928 C934 1.439 . S
C929 N926 1.319 . S
C929 C927 1.397 . S
C929 H940 0.930 . S
C930 C927 1.367 . S
C930 C928 1.403 . S
C930 H951 0.929 . S
C931 C932 1.430 . S
C931 C933 1.387 . S
C931 C937 1.404 . S
C932 C925 1.448 . S
C932 C931 1.430 . S
C932 N936 1.351 . S
C933 C931 1.387 . S
C933 C934 1.374 . S
C933 H948 0.924 1_565 S
C934 C928 1.439 . S
C934 C933 1.374 . S
C934 H949 0.931 . S
Eu935 N926 2.600 . S
Eu935 N936 2.562 . S
Eu935 O970 2.335 . S
Eu935 O973 2.372 . S
Eu935 O974 2.462 . S
Eu935 O975 2.373 . S
Eu935 O977 2.432 . S
Eu935 O978 2.291 . S
Eu935 C999 2.787 . S
N936 C932 1.351 . S
N936 Eu935 2.562 . S
N936 C938 1.325 . S
C937 C931 1.404 . S
C937 C939 1.366 . S
C937 H945 0.930 . S
C938 N936 1.325 . S
C938 C939 1.416 . S
C938 H944 0.929 . S
C939 C937 1.366 . S
C939 C938 1.416 . S
C939 H941 0.930 . S
H940 C929 0.930 . S
H941 C939 0.930 . S
H942 C957 0.930 . S
H943 C964 0.930 . S
H944 C938 0.929 . S
H945 C937 0.930 . S
H946 C960 0.929 . S
H947 C927 0.931 . S
H948 C933 0.924 1_545 S
H949 C934 0.931 . S
H950 C955 0.931 . S
H951 C930 0.929 . S
H952 C963 0.930 . S
N953 Eu924 2.600 . S
N953 C954 1.365 . S
N953 C957 1.319 . S
C954 N953 1.365 . S
C954 C956 1.405 . S
C954 C962 1.448 . S
C955 H950 0.931 . S
C955 C957 1.397 . S
C955 C958 1.367 . S
C956 C954 1.405 . S
C956 C958 1.403 . S
C956 C989 1.439 . S
C957 H942 0.930 . S
C957 N953 1.319 . S
C957 C955 1.397 . S
C958 C955 1.367 . S
C958 C956 1.403 . S
C958 H965 0.929 . S
N959 Eu924 2.562 . S
N959 C960 1.325 . S
N959 C962 1.351 . S
C960 H946 0.929 . S
C960 N959 1.325 . S
C960 C964 1.416 . S
C961 C962 1.430 . S
C961 C963 1.404 . S
C961 C990 1.387 . S
C962 C954 1.448 . S
C962 N959 1.351 . S
C962 C961 1.430 . S
C963 H952 0.930 . S
C963 C961 1.404 . S
C963 C964 1.366 . S
C964 H943 0.930 . S
C964 C960 1.416 . S
C964 C963 1.366 . S
H965 C958 0.929 . S
H966 C989 0.931 . S
H967 C990 0.931 . S
O968 Eu924 2.462 . S
O968 C988 1.252 . S
O969 Eu924 2.373 . S
O969 C980 1.249 . S
O970 Eu935 2.335 . S
O970 C980 1.264 . S
O971 Eu924 2.432 . S
O971 C988 1.268 . S
O972 Eu924 2.291 . S
O972 C987 1.255 . S
O973 Eu935 2.372 . S
O973 C987 1.257 . S
O974 Eu935 2.462 . S
O974 C999 1.252 . S
O975 Eu935 2.373 . S
O975 C991 1.249 . S
O976 Eu924 2.335 . S
O976 C991 1.264 . S
O977 Eu935 2.432 . S
O977 C999 1.268 . S
O978 Eu935 2.291 . S
O978 C998 1.255 . S
O979 Eu924 2.372 . S
O979 C998 1.257 . S
C980 O969 1.249 . S
C980 O970 1.264 . S
C981 C984 1.382 . S
C981 C986 1.390 . S
C981 C988 1.506 . S
C982 C983 1.398 . S
C982 C986 1.392 . S
C983 C982 1.398 . S
C983 C985 1.372 . S
C983 H1000 0.931 . S
C984 C981 1.382 . S
C984 C985 1.390 . S
C984 H1001 0.931 . S
C985 C983 1.372 . S
C985 C984 1.390 . S
C985 H1002 0.929 . S
C986 C981 1.390 . S
C986 C982 1.392 . S
C986 H1003 0.930 . S
C987 O972 1.255 . S
C987 O973 1.257 . S
C988 Eu924 2.787 . S
C988 O968 1.252 . S
C988 O971 1.268 . S
C988 C981 1.506 . S
C989 C956 1.439 . S
C989 H966 0.931 . S
C989 C990 1.374 . S
C990 C961 1.387 . S
C990 H967 0.931 . S
C990 C989 1.374 . S
C991 O975 1.249 . S
C991 O976 1.264 . S
C992 C995 1.382 . S
C992 C996 1.390 . S
C992 C999 1.506 . S
C993 C994 1.398 . S
C993 C996 1.392 . S
C994 C993 1.398 . S
C994 C997 1.372 . S
C994 H1004 0.931 . S
C995 C992 1.382 . S
C995 C997 1.390 . S
C995 H1005 0.931 . S
C996 C992 1.390 . S
C996 C993 1.392 . S
C996 H1006 0.930 . S
C997 C994 1.372 . S
C997 C995 1.390 . S
C997 H1007 0.929 . S
C998 O978 1.255 . S
C998 O979 1.257 . S
C999 Eu935 2.787 . S
C999 O974 1.252 . S
C999 O977 1.268 . S
C999 C992 1.506 . S
H1000 C983 0.931 . S
H1001 C984 0.931 . S
H1002 C985 0.929 . S
H1003 C986 0.930 . S
H1004 C994 0.931 . S
H1005 C995 0.931 . S
H1006 C996 0.930 . S
H1007 C997 0.929 . S
H1008 C1016 0.929 . S
H1009 C1018 0.930 . S
H1010 C1020 0.930 . S
H1011 C1023 0.929 . S
H1012 C1026 0.930 . S
H1013 C1028 0.960 . S
H1014 C1028 0.960 . S
H1015 C1028 0.960 . S
C1016 H1008 0.929 . S
C1016 C1017 1.377 . S
C1016 C1018 1.384 . S
C1017 C1016 1.377 . S
C1017 C1023 1.390 . S
C1018 H1009 0.930 . S
C1018 C1016 1.384 . S
C1018 C1019 1.372 . S
C1019 C1018 1.372 . S
C1019 C1020 1.400 . S
C1019 C1024 1.490 . S
C1020 H1010 0.930 . S
C1020 C1019 1.400 . S
C1020 C1023 1.386 . S
H1021 C1037 0.930 . S
H1022 C1038 0.931 . S
C1023 H1011 0.929 . S
C1023 C1017 1.390 . S
C1023 C1020 1.386 . S
C1024 C1019 1.490 . S
C1024 C1026 1.395 . S
C1024 C1027 1.403 . S
H1025 C1031 0.930 . S
C1026 H1012 0.930 . S
C1026 C1024 1.395 . S
C1026 C1029 1.403 . S
C1027 C1024 1.403 . S
C1027 C1028 1.524 . S
C1027 C1031 1.400 . S
C1028 H1013 0.960 . S
C1028 H1014 0.960 . S
C1028 H1015 0.960 . S
C1028 C1027 1.524 . S
C1029 C1026 1.403 . S
C1029 C1030 1.392 . S
C1029 C1033 1.495 . S
C1030 C1029 1.392 . S
C1030 C1031 1.385 . S
C1030 C1032 1.478 . S
C1031 H1025 0.930 . S
C1031 C1027 1.400 . S
C1031 C1030 1.385 . S
C1032 C1030 1.478 . S
C1032 C1034 1.381 . S
C1032 C1038 1.383 . S
C1033 C1029 1.495 . S
C1033 H1039 0.959 . S
C1033 H1040 0.961 . S
C1033 H1041 0.960 . S
C1034 C1032 1.381 . S
C1034 C1035 1.394 . S
C1034 H1042 0.930 . S
C1035 C1034 1.394 . S
C1035 C1036 1.383 . S
C1035 H1043 0.929 . S
C1036 C1035 1.383 . S
C1036 C1037 1.377 . S
C1037 H1021 0.930 . S
C1037 C1036 1.377 . S
C1037 C1038 1.379 . S
C1038 H1022 0.931 . S
C1038 C1032 1.383 . S
C1038 C1037 1.379 . S
H1039 C1033 0.959 . S
H1040 C1033 0.961 . S
H1041 C1033 0.960 . S
H1042 C1034 0.930 . S
H1043 C1035 0.929 . S
H1044 C1052 0.929 . S
H1045 C1054 0.930 . S
H1046 C1056 0.930 . S
H1047 C1059 0.929 . S
H1048 C1062 0.930 . S
H1049 C1064 0.960 . S
H1050 C1064 0.960 . S
H1051 C1064 0.960 . S
C1052 H1044 0.929 . S
C1052 C1053 1.377 . S
C1052 C1054 1.384 . S
C1053 C1052 1.377 . S
C1053 C1059 1.390 . S
C1054 H1045 0.930 . S
C1054 C1052 1.384 . S
C1054 C1055 1.372 . S
C1055 C1054 1.372 . S
C1055 C1056 1.400 . S
C1055 C1060 1.490 . S
C1056 H1046 0.930 . S
C1056 C1055 1.400 . S
C1056 C1059 1.386 . S
H1057 C1073 0.930 . S
H1058 C1074 0.931 . S
C1059 H1047 0.929 . S
C1059 C1053 1.390 . S
C1059 C1056 1.386 . S
C1060 C1055 1.490 . S
C1060 C1062 1.395 . S
C1060 C1063 1.403 . S
H1061 C1067 0.930 . S
C1062 H1048 0.930 . S
C1062 C1060 1.395 . S
C1062 C1065 1.403 . S
C1063 C1060 1.403 . S
C1063 C1064 1.524 . S
C1063 C1067 1.400 . S
C1064 H1049 0.960 . S
C1064 H1050 0.960 . S
C1064 H1051 0.960 . S
C1064 C1063 1.524 . S
C1065 C1062 1.403 . S
C1065 C1066 1.392 1_455 S
C1065 C1069 1.495 1_455 S
C1066 C1065 1.392 1_655 S
C1066 C1067 1.385 1_655 S
C1066 C1068 1.478 . S
C1067 H1061 0.930 . S
C1067 C1063 1.400 . S
C1067 C1066 1.385 1_455 S
C1068 C1066 1.478 . S
C1068 C1070 1.381 . S
C1068 C1074 1.383 . S
C1069 C1065 1.495 1_655 S
C1069 H1075 0.959 . S
C1069 H1076 0.961 . S
C1069 H1077 0.960 . S
C1070 C1068 1.381 . S
C1070 C1071 1.394 . S
C1070 H1078 0.930 . S
C1071 C1070 1.394 . S
C1071 C1072 1.383 . S
C1071 H1079 0.929 . S
C1072 C1071 1.383 . S
C1072 C1073 1.377 . S
C1073 H1057 0.930 . S
C1073 C1072 1.377 . S
C1073 C1074 1.379 . S
C1074 H1058 0.931 . S
C1074 C1068 1.383 . S
C1074 C1073 1.379 . S
H1075 C1069 0.959 . S
H1076 C1069 0.961 . S
H1077 C1069 0.960 . S
H1078 C1070 0.930 . S
H1079 C1071 0.929 . S
H1080 C1088 0.929 . S
H1081 C1090 0.930 . S
H1082 C1092 0.930 . S
H1083 C1095 0.929 . S
H1084 C1098 0.930 . S
H1085 C1100 0.960 . S
H1086 C1100 0.960 . S
H1087 C1100 0.960 . S
C1088 H1080 0.929 . S
C1088 C1089 1.377 . S
C1088 C1090 1.384 . S
C1089 C1088 1.377 . S
C1089 C1095 1.390 . S
C1090 H1081 0.930 . S
C1090 C1088 1.384 . S
C1090 C1091 1.372 . S
C1091 C1090 1.372 . S
C1091 C1092 1.400 . S
C1091 C1096 1.490 . S
C1092 H1082 0.930 . S
C1092 C1091 1.400 . S
C1092 C1095 1.386 . S
H1093 C1109 0.930 . S
H1094 C1110 0.931 . S
C1095 H1083 0.929 . S
C1095 C1089 1.390 . S
C1095 C1092 1.386 . S
C1096 C1091 1.490 . S
C1096 C1098 1.395 1_545 S
C1096 C1099 1.403 1_545 S
H1097 C1103 0.930 . S
C1098 H1084 0.930 . S
C1098 C1096 1.395 1_565 S
C1098 C1101 1.403 . S
C1099 C1096 1.403 1_565 S
C1099 C1100 1.524 1_565 S
C1099 C1103 1.400 . S
C1100 H1085 0.960 . S
C1100 H1086 0.960 . S
C1100 H1087 0.960 . S
C1100 C1099 1.524 1_545 S
C1101 C1098 1.403 . S
C1101 C1102 1.392 . S
C1101 C1105 1.495 . S
C1102 C1101 1.392 . S
C1102 C1103 1.385 . S
C1102 C1104 1.478 . S
C1103 H1097 0.930 . S
C1103 C1099 1.400 . S
C1103 C1102 1.385 . S
C1104 C1102 1.478 . S
C1104 C1106 1.381 . S
C1104 C1110 1.383 . S
C1105 C1101 1.495 . S
C1105 H1111 0.959 . S
C1105 H1112 0.961 . S
C1105 H1113 0.960 . S
C1106 C1104 1.381 . S
C1106 C1107 1.394 . S
C1106 H1114 0.930 . S
C1107 C1106 1.394 . S
C1107 C1108 1.383 . S
C1107 H1115 0.929 . S
C1108 C1107 1.383 . S
C1108 C1109 1.377 . S
C1109 H1093 0.930 . S
C1109 C1108 1.377 . S
C1109 C1110 1.379 . S
C1110 H1094 0.931 . S
C1110 C1104 1.383 . S
C1110 C1109 1.379 . S
H1111 C1105 0.959 . S
H1112 C1105 0.961 . S
H1113 C1105 0.960 . S
H1114 C1106 0.930 . S
H1115 C1107 0.929 . S
H1116 C1124 0.929 . S
H1117 C1126 0.930 . S
H1118 C1128 0.930 . S
H1119 C1131 0.929 . S
H1120 C1134 0.930 . S
H1121 C1136 0.960 . S
H1122 C1136 0.960 . S
H1123 C1136 0.960 . S
C1124 H1116 0.929 . S
C1124 C1125 1.377 . S
C1124 C1126 1.384 . S
C1125 C1124 1.377 . S
C1125 C1131 1.390 . S
C1126 H1117 0.930 . S
C1126 C1124 1.384 . S
C1126 C1127 1.372 . S
C1127 C1126 1.372 . S
C1127 C1128 1.400 . S
C1127 C1132 1.490 . S
C1128 H1118 0.930 . S
C1128 C1127 1.400 . S
C1128 C1131 1.386 . S
H1129 C1145 0.930 . S
H1130 C1146 0.931 . S
C1131 H1119 0.929 . S
C1131 C1125 1.390 . S
C1131 C1128 1.386 . S
C1132 C1127 1.490 . S
C1132 C1134 1.395 . S
C1132 C1135 1.403 . S
H1133 C1139 0.930 . S
C1134 H1120 0.930 . S
C1134 C1132 1.395 . S
C1134 C1137 1.403 . S
C1135 C1132 1.403 . S
C1135 C1136 1.524 . S
C1135 C1139 1.400 . S
C1136 H1121 0.960 . S
C1136 H1122 0.960 . S
C1136 H1123 0.960 . S
C1136 C1135 1.524 . S
C1137 C1134 1.403 . S
C1137 C1138 1.392 . S
C1137 C1141 1.495 . S
C1138 C1137 1.392 . S
C1138 C1139 1.385 . S
C1138 C1140 1.478 . S
C1139 H1133 0.930 . S
C1139 C1135 1.400 . S
C1139 C1138 1.385 . S
C1140 C1138 1.478 . S
C1140 C1142 1.381 . S
C1140 C1146 1.383 . S
C1141 C1137 1.495 . S
C1141 H1147 0.959 . S
C1141 H1148 0.961 . S
C1141 H1149 0.960 . S
C1142 C1140 1.381 . S
C1142 C1143 1.394 . S
C1142 H1150 0.930 . S
C1143 C1142 1.394 . S
C1143 C1144 1.383 . S
C1143 H1151 0.929 . S
C1144 C1143 1.383 . S
C1144 C1145 1.377 . S
C1145 H1129 0.930 . S
C1145 C1144 1.377 . S
C1145 C1146 1.379 . S
C1146 H1130 0.931 . S
C1146 C1140 1.383 . S
C1146 C1145 1.379 . S
H1147 C1141 0.959 . S
H1148 C1141 0.961 . S
H1149 C1141 0.960 . S
H1150 C1142 0.930 . S
H1151 C1143 0.929 . S
H1152 C1160 0.929 . S
H1153 C1162 0.930 . S
H1154 C1164 0.930 . S
H1155 C1167 0.929 . S
H1156 C1170 0.930 . S
H1157 C1172 0.960 . S
H1158 C1172 0.960 . S
H1159 C1172 0.960 . S
C1160 H1152 0.929 . S
C1160 C1161 1.377 . S
C1160 C1162 1.384 . S
C1161 C1160 1.377 . S
C1161 C1167 1.390 . S
C1162 H1153 0.930 . S
C1162 C1160 1.384 . S
C1162 C1163 1.372 . S
C1163 C1162 1.372 . S
C1163 C1164 1.400 . S
C1163 C1168 1.490 . S
C1164 H1154 0.930 . S
C1164 C1163 1.400 . S
C1164 C1167 1.386 . S
H1165 C1181 0.930 . S
H1166 C1182 0.931 . S
C1167 H1155 0.929 . S
C1167 C1161 1.390 . S
C1167 C1164 1.386 . S
C1168 C1163 1.490 . S
C1168 C1170 1.395 . S
C1168 C1171 1.403 . S
H1169 C1175 0.930 1_655 S
C1170 H1156 0.930 . S
C1170 C1168 1.395 . S
C1170 C1173 1.403 . S
C1171 C1168 1.403 . S
C1171 C1172 1.524 . S
C1171 C1175 1.400 . S
C1172 H1157 0.960 . S
C1172 H1158 0.960 . S
C1172 H1159 0.960 . S
C1172 C1171 1.524 . S
C1173 C1170 1.403 . S
C1173 C1174 1.392 1_455 S
C1173 C1177 1.495 . S
C1174 C1173 1.392 1_655 S
C1174 C1175 1.385 1_655 S
C1174 C1176 1.478 . S
C1175 H1169 0.930 1_455 S
C1175 C1171 1.400 . S
C1175 C1174 1.385 1_455 S
C1176 C1174 1.478 . S
C1176 C1178 1.381 . S
C1176 C1182 1.383 . S
C1177 C1173 1.495 . S
C1177 H1183 0.959 . S
C1177 H1184 0.961 1_455 S
C1177 H1185 0.955 . S
C1178 C1176 1.381 . S
C1178 C1179 1.394 . S
C1178 H1186 0.930 . S
C1179 C1178 1.394 . S
C1179 C1180 1.383 . S
C1179 H1187 0.929 . S
C1180 C1179 1.383 . S
C1180 C1181 1.377 . S
C1181 H1165 0.930 . S
C1181 C1180 1.377 . S
C1181 C1182 1.379 . S
C1182 H1166 0.931 . S
C1182 C1176 1.383 . S
C1182 C1181 1.379 . S
H1183 C1177 0.959 . S
H1184 C1177 0.961 1_655 S
H1185 C1177 0.955 . S
H1186 C1178 0.930 . S
H1187 C1179 0.929 . S
H1188 C1196 0.929 . S
H1189 C1198 0.930 . S
H1190 C1200 0.930 . S
H1191 C1203 0.929 . S
H1192 C1206 0.930 . S
H1193 C1208 0.960 . S
H1194 C1208 0.960 . S
H1195 C1208 0.960 . S
C1196 H1188 0.929 . S
C1196 C1197 1.377 . S
C1196 C1198 1.384 . S
C1197 C1196 1.377 . S
C1197 C1203 1.390 . S
C1198 H1189 0.930 . S
C1198 C1196 1.384 . S
C1198 C1199 1.372 . S
C1199 C1198 1.372 . S
C1199 C1200 1.400 . S
C1199 C1204 1.490 . S
C1200 H1190 0.930 . S
C1200 C1199 1.400 . S
C1200 C1203 1.386 . S
H1201 C1217 0.930 . S
H1202 C1218 0.931 . S
C1203 H1191 0.929 . S
C1203 C1197 1.390 . S
C1203 C1200 1.386 . S
C1204 C1199 1.490 . S
C1204 C1206 1.395 . S
C1204 C1207 1.403 . S
H1205 C1211 0.930 1_545 S
C1206 H1192 0.930 . S
C1206 C1204 1.395 . S
C1206 C1209 1.403 . S
C1207 C1204 1.403 . S
C1207 C1208 1.524 . S
C1207 C1211 1.400 . S
C1208 H1193 0.960 . S
C1208 H1194 0.960 . S
C1208 H1195 0.960 . S
C1208 C1207 1.524 . S
C1209 C1206 1.403 . S
C1209 C1210 1.392 1_565 S
C1209 C1213 1.495 . S
C1210 C1209 1.392 1_545 S
C1210 C1211 1.385 1_545 S
C1210 C1212 1.478 . S
C1211 H1205 0.930 1_565 S
C1211 C1207 1.400 . S
C1211 C1210 1.385 1_565 S
C1212 C1210 1.478 . S
C1212 C1214 1.381 . S
C1212 C1218 1.383 . S
C1213 C1209 1.495 . S
C1213 H1219 0.959 . S
C1213 H1220 0.961 . S
C1213 H1221 0.960 1_565 S
C1214 C1212 1.381 . S
C1214 C1215 1.394 . S
C1214 H1222 0.930 . S
C1215 C1214 1.394 . S
C1215 C1216 1.383 . S
C1215 H1223 0.929 . S
C1216 C1215 1.383 . S
C1216 C1217 1.377 . S
C1217 H1201 0.930 . S
C1217 C1216 1.377 . S
C1217 C1218 1.379 . S
C1218 H1202 0.931 . S
C1218 C1212 1.383 . S
C1218 C1217 1.379 . S
H1219 C1213 0.959 . S
H1220 C1213 0.961 . S
H1221 C1213 0.960 1_545 S
H1222 C1214 0.930 . S
H1223 C1215 0.929 . S
H1224 C1232 0.929 . S
H1225 C1234 0.930 . S
H1226 C1236 0.930 . S
H1227 C1239 0.929 . S
H1228 C1242 0.930 . S
H1229 C1244 0.960 . S
H1230 C1244 0.960 . S
H1231 C1244 0.960 . S
C1232 H1224 0.929 . S
C1232 C1233 1.377 . S
C1232 C1234 1.384 . S
C1233 C1232 1.377 . S
C1233 C1239 1.390 . S
C1234 H1225 0.930 . S
C1234 C1232 1.384 . S
C1234 C1235 1.372 . S
C1235 C1234 1.372 . S
C1235 C1236 1.400 . S
C1235 C1240 1.490 . S
C1236 H1226 0.930 . S
C1236 C1235 1.400 . S
C1236 C1239 1.386 . S
H1237 C1253 0.930 . S
H1238 C1254 0.931 . S
C1239 H1227 0.929 . S
C1239 C1233 1.390 . S
C1239 C1236 1.386 . S
C1240 C1235 1.490 . S
C1240 C1242 1.395 . S
C1240 C1243 1.403 . S
H1241 C1247 0.930 . S
C1242 H1228 0.930 . S
C1242 C1240 1.395 . S
C1242 C1245 1.403 . S
C1243 C1240 1.403 . S
C1243 C1244 1.524 . S
C1243 C1247 1.400 . S
C1244 H1229 0.960 . S
C1244 H1230 0.960 . S
C1244 H1231 0.960 . S
C1244 C1243 1.524 . S
C1245 C1242 1.403 . S
C1245 C1246 1.392 . S
C1245 C1249 1.495 . S
C1246 C1245 1.392 . S
C1246 C1247 1.385 . S
C1246 C1248 1.478 . S
C1247 H1241 0.930 . S
C1247 C1243 1.400 . S
C1247 C1246 1.385 . S
C1248 C1246 1.478 . S
C1248 C1250 1.381 . S
C1248 C1254 1.383 . S
C1249 C1245 1.495 . S
C1249 H1255 0.959 . S
C1249 H1256 0.961 . S
C1249 H1257 0.960 . S
C1250 C1248 1.381 . S
C1250 C1251 1.394 . S
C1250 H1258 0.930 . S
C1251 C1250 1.394 . S
C1251 C1252 1.383 . S
C1251 H1259 0.929 . S
C1252 C1251 1.383 . S
C1252 C1253 1.377 . S
C1253 H1237 0.930 . S
C1253 C1252 1.377 . S
C1253 C1254 1.379 . S
C1254 H1238 0.931 . S
C1254 C1248 1.383 . S
C1254 C1253 1.379 . S
H1255 C1249 0.959 . S
H1256 C1249 0.961 . S
H1257 C1249 0.960 . S
H1258 C1250 0.930 . S
H1259 C1251 0.929 . S
H1260 C1268 0.929 . S
H1261 C1270 0.930 . S
H1262 C1272 0.930 . S
H1263 C1275 0.929 . S
H1264 C1278 0.930 . S
H1265 C1280 0.960 . S
H1266 C1280 0.960 . S
H1267 C1280 0.960 . S
C1268 H1260 0.929 . S
C1268 C1269 1.377 . S
C1268 C1270 1.384 . S
C1269 C1268 1.377 . S
C1269 C1275 1.390 . S
C1270 H1261 0.930 . S
C1270 C1268 1.384 . S
C1270 C1271 1.372 . S
C1271 C1270 1.372 . S
C1271 C1272 1.400 . S
C1271 C1276 1.490 . S
C1272 H1262 0.930 . S
C1272 C1271 1.400 . S
C1272 C1275 1.386 . S
H1273 C1289 0.930 . S
H1274 C1290 0.931 . S
C1275 H1263 0.929 . S
C1275 C1269 1.390 . S
C1275 C1272 1.386 . S
C1276 C1271 1.490 . S
C1276 C1278 1.395 1_455 S
C1276 C1279 1.403 1_455 S
H1277 C1283 0.930 . S
C1278 H1264 0.930 . S
C1278 C1276 1.395 1_655 S
C1278 C1281 1.403 . S
C1279 C1276 1.403 1_655 S
C1279 C1280 1.524 1_655 S
C1279 C1283 1.400 . S
C1280 H1265 0.960 . S
C1280 H1266 0.960 . S
C1280 H1267 0.960 . S
C1280 C1279 1.524 1_455 S
C1281 C1278 1.403 . S
C1281 C1282 1.392 . S
C1281 C1285 1.495 . S
C1282 C1281 1.392 . S
C1282 C1283 1.385 . S
C1282 C1284 1.478 . S
C1283 H1277 0.930 . S
C1283 C1279 1.400 . S
C1283 C1282 1.385 . S
C1284 C1282 1.478 . S
C1284 C1286 1.381 . S
C1284 C1290 1.383 . S
C1285 C1281 1.495 . S
C1285 H1291 0.959 . S
C1285 H1292 0.961 . S
C1285 H1293 0.960 . S
C1286 C1284 1.381 . S
C1286 C1287 1.394 . S
C1286 H1294 0.930 . S
C1287 C1286 1.394 . S
C1287 C1288 1.383 . S
C1287 H1295 0.929 . S
C1288 C1287 1.383 . S
C1288 C1289 1.377 . S
C1289 H1273 0.930 . S
C1289 C1288 1.377 . S
C1289 C1290 1.379 . S
C1290 H1274 0.931 . S
C1290 C1284 1.383 . S
C1290 C1289 1.379 . S
H1291 C1285 0.959 . S
H1292 C1285 0.961 . S
H1293 C1285 0.960 . S
H1294 C1286 0.930 . S
H1295 C1287 0.929 . S
H1296 C1304 0.929 . S
H1297 C1306 0.930 . S
H1298 C1308 0.930 . S
H1299 C1311 0.929 . S
H1300 C1314 0.930 . S
H1301 C1316 0.960 . S
H1302 C1316 0.960 . S
H1303 C1316 0.960 . S
C1304 H1296 0.929 . S
C1304 C1305 1.377 . S
C1304 C1306 1.384 . S
C1305 C1304 1.377 . S
C1305 C1311 1.390 . S
C1306 H1297 0.930 . S
C1306 C1304 1.384 . S
C1306 C1307 1.372 . S
C1307 C1306 1.372 . S
C1307 C1308 1.400 . S
C1307 C1312 1.490 . S
C1308 H1298 0.930 . S
C1308 C1307 1.400 . S
C1308 C1311 1.386 . S
H1309 C1325 0.930 . S
H1310 C1326 0.931 . S
C1311 H1299 0.929 . S
C1311 C1305 1.390 . S
C1311 C1308 1.386 . S
C1312 C1307 1.490 . S
C1312 C1314 1.395 1_565 S
C1312 C1315 1.403 1_565 S
H1313 C1319 0.930 . S
C1314 H1300 0.930 . S
C1314 C1312 1.395 1_545 S
C1314 C1317 1.403 . S
C1315 C1312 1.403 1_545 S
C1315 C1316 1.524 1_545 S
C1315 C1319 1.400 . S
C1316 H1301 0.960 . S
C1316 H1302 0.960 . S
C1316 H1303 0.960 . S
C1316 C1315 1.524 1_565 S
C1317 C1314 1.403 . S
C1317 C1318 1.392 . S
C1317 C1321 1.495 . S
C1318 C1317 1.392 . S
C1318 C1319 1.385 . S
C1318 C1320 1.478 . S
C1319 H1313 0.930 . S
C1319 C1315 1.400 . S
C1319 C1318 1.385 . S
C1320 C1318 1.478 . S
C1320 C1322 1.381 . S
C1320 C1326 1.383 . S
C1321 C1317 1.495 . S
C1321 H1327 0.959 . S
C1321 H1328 0.961 . S
C1321 H1329 0.960 . S
C1322 C1320 1.381 . S
C1322 C1323 1.394 . S
C1322 H1330 0.930 . S
C1323 C1322 1.394 . S
C1323 C1324 1.383 . S
C1323 H1331 0.929 . S
C1324 C1323 1.383 . S
C1324 C1325 1.377 . S
C1325 H1309 0.930 . S
C1325 C1324 1.377 . S
C1325 C1326 1.379 . S
C1326 H1310 0.931 . S
C1326 C1320 1.383 . S
C1326 C1325 1.379 . S
H1327 C1321 0.959 . S
H1328 C1321 0.961 . S
H1329 C1321 0.960 . S
H1330 C1322 0.930 . S
H1331 C1323 0.929 . S
H1332 C1340 0.929 . S
H1333 C1342 0.930 . S
H1334 C1344 0.930 . S
H1335 C1347 0.929 . S
H1336 C1350 0.930 . S
H1337 C1352 0.960 . S
H1338 C1352 0.960 . S
H1339 C1352 0.960 . S
C1340 H1332 0.929 . S
C1340 C1341 1.377 . S
C1340 C1342 1.384 . S
C1341 C1340 1.377 . S
C1341 C1347 1.390 . S
C1342 H1333 0.930 . S
C1342 C1340 1.384 . S
C1342 C1343 1.372 . S
C1343 C1342 1.372 . S
C1343 C1344 1.400 . S
C1343 C1348 1.490 . S
C1344 H1334 0.930 . S
C1344 C1343 1.400 . S
C1344 C1347 1.386 . S
H1345 C1361 0.930 . S
H1346 C1362 0.931 . S
C1347 H1335 0.929 . S
C1347 C1341 1.390 . S
C1347 C1344 1.386 . S
C1348 C1343 1.490 . S
C1348 C1350 1.395 . S
C1348 C1351 1.403 . S
H1349 C1355 0.930 . S
C1350 H1336 0.930 . S
C1350 C1348 1.395 . S
C1350 C1353 1.403 . S
C1351 C1348 1.403 . S
C1351 C1352 1.524 . S
C1351 C1355 1.400 . S
C1352 H1337 0.960 . S
C1352 H1338 0.960 . S
C1352 H1339 0.960 . S
C1352 C1351 1.524 . S
C1353 C1350 1.403 . S
C1353 C1354 1.392 . S
C1353 C1357 1.495 . S
C1354 C1353 1.392 . S
C1354 C1355 1.385 . S
C1354 C1356 1.478 . S
C1355 H1349 0.930 . S
C1355 C1351 1.400 . S
C1355 C1354 1.385 . S
C1356 C1354 1.478 . S
C1356 C1358 1.381 . S
C1356 C1362 1.383 . S
C1357 C1353 1.495 . S
C1357 H1363 0.959 . S
C1357 H1364 0.961 . S
C1357 H1365 0.960 . S
C1358 C1356 1.381 . S
C1358 C1359 1.394 . S
C1358 H1366 0.930 . S
C1359 C1358 1.394 . S
C1359 C1360 1.383 . S
C1359 H1367 0.929 . S
C1360 C1359 1.383 . S
C1360 C1361 1.377 . S
C1361 H1345 0.930 . S
C1361 C1360 1.377 . S
C1361 C1362 1.379 . S
C1362 H1346 0.931 . S
C1362 C1356 1.383 . S
C1362 C1361 1.379 . S
H1363 C1357 0.959 . S
H1364 C1357 0.961 . S
H1365 C1357 0.960 . S
H1366 C1358 0.930 . S
H1367 C1359 0.929 . S
H1368 C1376 0.929 . S
H1369 C1378 0.930 . S
H1370 C1380 0.930 . S
H1371 C1383 0.929 . S
H1372 C1386 0.930 . S
H1373 C1388 0.960 . S
H1374 C1388 0.960 . S
H1375 C1388 0.960 . S
C1376 H1368 0.929 . S
C1376 C1377 1.377 . S
C1376 C1378 1.384 . S
C1377 C1376 1.377 . S
C1377 C1383 1.390 . S
C1378 H1369 0.930 . S
C1378 C1376 1.384 . S
C1378 C1379 1.372 . S
C1379 C1378 1.372 . S
C1379 C1380 1.400 . S
C1379 C1384 1.490 . S
C1380 H1370 0.930 . S
C1380 C1379 1.400 . S
C1380 C1383 1.386 . S
H1381 C1397 0.930 . S
H1382 C1398 0.931 . S
C1383 H1371 0.929 . S
C1383 C1377 1.390 . S
C1383 C1380 1.386 . S
C1384 C1379 1.490 . S
C1384 C1386 1.395 . S
C1384 C1387 1.403 1_455 S
H1385 C1391 0.930 . S
C1386 H1372 0.930 . S
C1386 C1384 1.395 . S
C1386 C1389 1.403 1_455 S
C1387 C1384 1.403 1_655 S
C1387 C1388 1.524 . S
C1387 C1391 1.400 . S
C1388 H1373 0.960 . S
C1388 H1374 0.960 . S
C1388 H1375 0.960 . S
C1388 C1387 1.524 . S
C1389 C1386 1.403 1_655 S
C1389 C1390 1.392 . S
C1389 C1393 1.495 . S
C1390 C1389 1.392 . S
C1390 C1391 1.385 . S
C1390 C1392 1.478 . S
C1391 H1385 0.930 . S
C1391 C1387 1.400 . S
C1391 C1390 1.385 . S
C1392 C1390 1.478 . S
C1392 C1394 1.381 . S
C1392 C1398 1.383 . S
C1393 C1389 1.495 . S
C1393 H1399 0.959 . S
C1393 H1400 0.961 . S
C1393 H1401 0.960 . S
C1394 C1392 1.381 . S
C1394 C1395 1.394 . S
C1394 H1402 0.930 . S
C1395 C1394 1.394 . S
C1395 C1396 1.383 . S
C1395 H1403 0.929 . S
C1396 C1395 1.383 . S
C1396 C1397 1.377 . S
C1397 H1381 0.930 . S
C1397 C1396 1.377 . S
C1397 C1398 1.379 . S
C1398 H1382 0.931 . S
C1398 C1392 1.383 . S
C1398 C1397 1.379 . S
H1399 C1393 0.959 . S
H1400 C1393 0.961 . S
H1401 C1393 0.960 . S
H1402 C1394 0.930 . S
H1403 C1395 0.929 . S
H1404 C1412 0.929 . S
H1405 C1414 0.930 . S
H1406 C1416 0.930 . S
H1407 C1419 0.929 . S
H1408 C1422 0.930 . S
H1409 C1424 0.960 . S
H1410 C1424 0.960 . S
H1411 C1424 0.960 . S
C1412 H1404 0.929 . S
C1412 C1413 1.377 . S
C1412 C1414 1.384 . S
C1413 C1412 1.377 . S
C1413 C1419 1.390 . S
C1414 H1405 0.930 . S
C1414 C1412 1.384 . S
C1414 C1415 1.372 . S
C1415 C1414 1.372 . S
C1415 C1416 1.400 . S
C1415 C1420 1.490 . S
C1416 H1406 0.930 . S
C1416 C1415 1.400 . S
C1416 C1419 1.386 . S
H1417 C1433 0.930 . S
H1418 C1434 0.931 . S
C1419 H1407 0.929 . S
C1419 C1413 1.390 . S
C1419 C1416 1.386 . S
C1420 C1415 1.490 . S
C1420 C1422 1.395 . S
C1420 C1423 1.403 . S
H1421 C1427 0.930 1_565 S
C1422 H1408 0.930 . S
C1422 C1420 1.395 . S
C1422 C1425 1.403 . S
C1423 C1420 1.403 . S
C1423 C1424 1.524 . S
C1423 C1427 1.400 . S
C1424 H1409 0.960 . S
C1424 H1410 0.960 . S
C1424 H1411 0.960 . S
C1424 C1423 1.524 . S
C1425 C1422 1.403 . S
C1425 C1426 1.392 1_545 S
C1425 C1429 1.495 . S
C1426 C1425 1.392 1_565 S
C1426 C1427 1.385 1_565 S
C1426 C1428 1.478 . S
C1427 H1421 0.930 1_545 S
C1427 C1423 1.400 . S
C1427 C1426 1.385 1_545 S
C1428 C1426 1.478 . S
C1428 C1430 1.381 . S
C1428 C1434 1.383 . S
C1429 C1425 1.495 . S
C1429 H1435 0.959 . S
C1429 H1436 0.961 . S
C1429 H1437 0.960 . S
C1430 C1428 1.381 . S
C1430 C1431 1.394 . S
C1430 H1438 0.930 . S
C1431 C1430 1.394 . S
C1431 C1432 1.383 . S
C1431 H1439 0.929 . S
C1432 C1431 1.383 . S
C1432 C1433 1.377 . S
C1433 H1417 0.930 . S
C1433 C1432 1.377 . S
C1433 C1434 1.379 . S
C1434 H1418 0.931 . S
C1434 C1428 1.383 . S
C1434 C1433 1.379 . S
H1435 C1429 0.959 . S
H1436 C1429 0.961 . S
H1437 C1429 0.960 . S
H1438 C1430 0.930 . S
H1439 C1431 0.929 . S
H1440 C1448 0.929 . S
H1441 C1450 0.930 . S
H1442 C1452 0.930 . S
H1443 C1455 0.929 . S
H1444 C1458 0.930 . S
H1445 C1460 0.960 . S
H1446 C1460 0.960 . S
H1447 C1460 0.960 . S
C1448 H1440 0.929 . S
C1448 C1449 1.377 . S
C1448 C1450 1.384 . S
C1449 C1448 1.377 . S
C1449 C1455 1.390 . S
C1450 H1441 0.930 . S
C1450 C1448 1.384 . S
C1450 C1451 1.372 . S
C1451 C1450 1.372 . S
C1451 C1452 1.400 . S
C1451 C1456 1.490 . S
C1452 H1442 0.930 . S
C1452 C1451 1.400 . S
C1452 C1455 1.386 . S
H1453 C1469 0.930 . S
H1454 C1470 0.931 . S
C1455 H1443 0.929 . S
C1455 C1449 1.390 . S
C1455 C1452 1.386 . S
C1456 C1451 1.490 . S
C1456 C1458 1.395 . S
C1456 C1459 1.403 . S
H1457 C1463 0.930 . S
C1458 H1444 0.930 . S
C1458 C1456 1.395 . S
C1458 C1461 1.403 . S
C1459 C1456 1.403 . S
C1459 C1460 1.524 . S
C1459 C1463 1.400 . S
C1460 H1445 0.960 . S
C1460 H1446 0.960 . S
C1460 H1447 0.960 . S
C1460 C1459 1.524 . S
C1461 C1458 1.403 . S
C1461 C1462 1.392 . S
C1461 C1465 1.495 . S
C1462 C1461 1.392 . S
C1462 C1463 1.385 . S
C1462 C1464 1.478 . S
C1463 H1457 0.930 . S
C1463 C1459 1.400 . S
C1463 C1462 1.385 . S
C1464 C1462 1.478 . S
C1464 C1466 1.381 . S
C1464 C1470 1.383 . S
C1465 C1461 1.495 . S
C1465 H1471 0.959 . S
C1465 H1472 0.961 . S
C1465 H1473 0.960 . S
C1466 C1464 1.381 . S
C1466 C1467 1.394 . S
C1466 H1474 0.930 . S
C1467 C1466 1.394 . S
C1467 C1468 1.383 . S
C1467 H1475 0.929 . S
C1468 C1467 1.383 . S
C1468 C1469 1.377 . S
C1469 H1453 0.930 . S
C1469 C1468 1.377 . S
C1469 C1470 1.379 . S
C1470 H1454 0.931 . S
C1470 C1464 1.383 . S
C1470 C1469 1.379 . S
H1471 C1465 0.959 . S
H1472 C1465 0.961 . S
H1473 C1465 0.960 . S
H1474 C1466 0.930 . S
H1475 C1467 0.929 . S
H1476 C1484 0.929 . S
H1477 C1486 0.930 . S
H1478 C1488 0.930 . S
H1479 C1491 0.929 . S
H1480 C1494 0.930 . S
H1481 C1496 0.960 . S
H1482 C1496 0.960 . S
H1483 C1496 0.960 . S
C1484 H1476 0.929 . S
C1484 C1485 1.377 . S
C1484 C1486 1.384 . S
C1485 C1484 1.377 . S
C1485 C1491 1.390 . S
C1486 H1477 0.930 . S
C1486 C1484 1.384 . S
C1486 C1487 1.372 . S
C1487 C1486 1.372 . S
C1487 C1488 1.400 . S
C1487 C1492 1.490 . S
C1488 H1478 0.930 . S
C1488 C1487 1.400 . S
C1488 C1491 1.386 . S
H1489 C1505 0.930 . S
H1490 C1506 0.931 . S
C1491 H1479 0.929 . S
C1491 C1485 1.390 . S
C1491 C1488 1.386 . S
C1492 C1487 1.490 . S
C1492 C1494 1.395 . S
C1492 C1495 1.403 . S
H1493 C1499 0.930 . S
C1494 H1480 0.930 . S
C1494 C1492 1.395 . S
C1494 C1497 1.403 . S
C1495 C1492 1.403 . S
C1495 C1496 1.524 . S
C1495 C1499 1.400 . S
C1496 H1481 0.960 . S
C1496 H1482 0.960 . S
C1496 H1483 0.960 . S
C1496 C1495 1.524 . S
C1497 C1494 1.403 . S
C1497 C1498 1.392 . S
C1497 C1501 1.495 . S
C1498 C1497 1.392 . S
C1498 C1499 1.385 . S
C1498 C1500 1.478 . S
C1499 H1493 0.930 . S
C1499 C1495 1.400 . S
C1499 C1498 1.385 . S
C1500 C1498 1.478 . S
C1500 C1502 1.381 . S
C1500 C1506 1.383 . S
C1501 C1497 1.495 . S
C1501 H1507 0.959 . S
C1501 H1508 0.961 . S
C1501 H1509 0.960 . S
C1502 C1500 1.381 . S
C1502 C1503 1.394 . S
C1502 H1510 0.930 . S
C1503 C1502 1.394 . S
C1503 C1504 1.383 . S
C1503 H1511 0.929 . S
C1504 C1503 1.383 . S
C1504 C1505 1.377 . S
C1505 H1489 0.930 . S
C1505 C1504 1.377 . S
C1505 C1506 1.379 . S
C1506 H1490 0.931 . S
C1506 C1500 1.383 . S
C1506 C1505 1.379 . S
H1507 C1501 0.959 . S
H1508 C1501 0.961 . S
H1509 C1501 0.960 . S
H1510 C1502 0.930 . S
H1511 C1503 0.929 . S
H1512 C1520 0.929 . S
H1513 C1522 0.930 . S
H1514 C1524 0.930 . S
H1515 C1527 0.929 . S
H1516 C1530 0.930 . S
H1517 C1532 0.960 . S
H1518 C1532 0.960 . S
H1519 C1532 0.960 . S
C1520 H1512 0.929 . S
C1520 C1521 1.377 . S
C1520 C1522 1.384 . S
C1521 C1520 1.377 . S
C1521 C1527 1.390 . S
C1522 H1513 0.930 . S
C1522 C1520 1.384 . S
C1522 C1523 1.372 . S
C1523 C1522 1.372 . S
C1523 C1524 1.400 . S
C1523 C1528 1.490 . S
C1524 H1514 0.930 . S
C1524 C1523 1.400 . S
C1524 C1527 1.386 . S
H1525 C1541 0.930 . S
H1526 C1542 0.931 . S
C1527 H1515 0.929 . S
C1527 C1521 1.390 . S
C1527 C1524 1.386 . S
C1528 C1523 1.490 . S
C1528 C1530 1.395 . S
C1528 C1531 1.403 . S
H1529 C1535 0.930 . S
C1530 H1516 0.930 . S
C1530 C1528 1.395 . S
C1530 C1533 1.403 . S
C1531 C1528 1.403 . S
C1531 C1532 1.524 . S
C1531 C1535 1.400 . S
C1532 H1517 0.960 . S
C1532 H1518 0.960 . S
C1532 H1519 0.960 . S
C1532 C1531 1.524 . S
C1533 C1530 1.403 . S
C1533 C1534 1.392 . S
C1533 C1537 1.495 . S
C1534 C1533 1.392 . S
C1534 C1535 1.385 . S
C1534 C1536 1.478 . S
C1535 H1529 0.930 . S
C1535 C1531 1.400 . S
C1535 C1534 1.385 . S
C1536 C1534 1.478 . S
C1536 C1538 1.381 . S
C1536 C1542 1.383 . S
C1537 C1533 1.495 . S
C1537 H1543 0.959 . S
C1537 H1544 0.961 . S
C1537 H1545 0.960 . S
C1538 C1536 1.381 . S
C1538 C1539 1.394 . S
C1538 H1546 0.930 . S
C1539 C1538 1.394 . S
C1539 C1540 1.383 . S
C1539 H1547 0.929 . S
C1540 C1539 1.383 . S
C1540 C1541 1.377 . S
C1541 H1525 0.930 . S
C1541 C1540 1.377 . S
C1541 C1542 1.379 . S
C1542 H1526 0.931 . S
C1542 C1536 1.383 . S
C1542 C1541 1.379 . S
H1543 C1537 0.959 . S
H1544 C1537 0.961 . S
H1545 C1537 0.960 . S
H1546 C1538 0.930 . S
H1547 C1539 0.929 . S
H1548 C1556 0.929 . S
H1549 C1558 0.930 . S
H1550 C1560 0.930 . S
H1551 C1563 0.929 . S
H1552 C1566 0.930 . S
H1553 C1568 0.960 . S
H1554 C1568 0.960 . S
H1555 C1568 0.960 . S
C1556 H1548 0.929 . S
C1556 C1557 1.377 . S
C1556 C1558 1.384 . S
C1557 C1556 1.377 . S
C1557 C1563 1.390 . S
C1558 H1549 0.930 . S
C1558 C1556 1.384 . S
C1558 C1559 1.372 . S
C1559 C1558 1.372 . S
C1559 C1560 1.400 . S
C1559 C1564 1.490 . S
C1560 H1550 0.930 . S
C1560 C1559 1.400 . S
C1560 C1563 1.386 . S
H1561 C1577 0.930 . S
H1562 C1578 0.931 . S
C1563 H1551 0.929 . S
C1563 C1557 1.390 . S
C1563 C1560 1.386 . S
C1564 C1559 1.490 . S
C1564 C1566 1.395 . S
C1564 C1567 1.403 . S
H1565 C1571 0.930 . S
C1566 H1552 0.930 . S
C1566 C1564 1.395 . S
C1566 C1569 1.403 . S
C1567 C1564 1.403 . S
C1567 C1568 1.524 . S
C1567 C1571 1.400 . S
C1568 H1553 0.960 . S
C1568 H1554 0.960 . S
C1568 H1555 0.960 . S
C1568 C1567 1.524 . S
C1569 C1566 1.403 . S
C1569 C1570 1.392 . S
C1569 C1573 1.495 . S
C1570 C1569 1.392 . S
C1570 C1571 1.385 . S
C1570 C1572 1.478 . S
C1571 H1565 0.930 . S
C1571 C1567 1.400 . S
C1571 C1570 1.385 . S
C1572 C1570 1.478 . S
C1572 C1574 1.381 . S
C1572 C1578 1.383 . S
C1573 C1569 1.495 . S
C1573 H1579 0.959 . S
C1573 H1580 0.961 . S
C1573 H1581 0.960 . S
C1574 C1572 1.381 . S
C1574 C1575 1.394 . S
C1574 H1582 0.930 . S
C1575 C1574 1.394 . S
C1575 C1576 1.383 . S
C1575 H1583 0.929 . S
C1576 C1575 1.383 . S
C1576 C1577 1.377 . S
C1577 H1561 0.930 . S
C1577 C1576 1.377 . S
C1577 C1578 1.379 . S
C1578 H1562 0.931 . S
C1578 C1572 1.383 . S
C1578 C1577 1.379 . S
H1579 C1573 0.959 . S
H1580 C1573 0.961 . S
H1581 C1573 0.960 . S
H1582 C1574 0.930 . S
H1583 C1575 0.929 . S
H1584 C1592 0.929 . S
H1585 C1594 0.930 . S
H1586 C1596 0.930 . S
H1587 C1599 0.929 . S
H1588 C1602 0.930 . S
H1589 C1604 0.960 . S
H1590 C1604 0.960 . S
H1591 C1604 0.960 . S
C1592 H1584 0.929 . S
C1592 C1593 1.377 . S
C1592 C1594 1.384 . S
C1593 C1592 1.377 . S
C1593 C1599 1.390 . S
C1594 H1585 0.930 . S
C1594 C1592 1.384 . S
C1594 C1595 1.372 . S
C1595 C1594 1.372 . S
C1595 C1596 1.400 . S
C1595 C1600 1.490 . S
C1596 H1586 0.930 . S
C1596 C1595 1.400 . S
C1596 C1599 1.386 . S
H1597 C1613 0.930 . S
H1598 C1614 0.931 . S
C1599 H1587 0.929 . S
C1599 C1593 1.390 . S
C1599 C1596 1.386 . S
C1600 C1595 1.490 . S
C1600 C1602 1.395 . S
C1600 C1603 1.403 . S
H1601 C1607 0.930 . S
C1602 H1588 0.930 . S
C1602 C1600 1.395 . S
C1602 C1605 1.403 . S
C1603 C1600 1.403 . S
C1603 C1604 1.524 . S
C1603 C1607 1.400 . S
C1604 H1589 0.960 . S
C1604 H1590 0.960 . S
C1604 H1591 0.960 . S
C1604 C1603 1.524 . S
C1605 C1602 1.403 . S
C1605 C1606 1.392 . S
C1605 C1609 1.495 . S
C1606 C1605 1.392 . S
C1606 C1607 1.385 . S
C1606 C1608 1.478 . S
C1607 H1601 0.930 . S
C1607 C1603 1.400 . S
C1607 C1606 1.385 . S
C1608 C1606 1.478 . S
C1608 C1610 1.381 . S
C1608 C1614 1.383 . S
C1609 C1605 1.495 . S
C1609 H1615 0.959 . S
C1609 H1616 0.961 . S
C1609 H1617 0.960 . S
C1610 C1608 1.381 . S
C1610 C1611 1.394 . S
C1610 H1618 0.930 . S
C1611 C1610 1.394 . S
C1611 C1612 1.383 . S
C1611 H1619 0.929 . S
C1612 C1611 1.383 . S
C1612 C1613 1.377 . S
C1613 H1597 0.930 . S
C1613 C1612 1.377 . S
C1613 C1614 1.379 . S
C1614 H1598 0.931 . S
C1614 C1608 1.383 . S
C1614 C1613 1.379 . S
H1615 C1609 0.959 . S
H1616 C1609 0.961 . S
H1617 C1609 0.960 . S
H1618 C1610 0.930 . S
H1619 C1611 0.929 . S
H1620 C1628 0.929 . S
H1621 C1630 0.930 . S
H1622 C1632 0.930 . S
H1623 C1635 0.929 . S
H1624 C1638 0.930 . S
H1625 C1640 0.960 . S
H1626 C1640 0.960 . S
H1627 C1640 0.960 . S
C1628 H1620 0.929 . S
C1628 C1629 1.377 . S
C1628 C1630 1.384 . S
C1629 C1628 1.377 . S
C1629 C1635 1.390 . S
C1630 H1621 0.930 . S
C1630 C1628 1.384 . S
C1630 C1631 1.372 . S
C1631 C1630 1.372 . S
C1631 C1632 1.400 . S
C1631 C1636 1.490 . S
C1632 H1622 0.930 . S
C1632 C1631 1.400 . S
C1632 C1635 1.386 . S
H1633 C1649 0.930 . S
H1634 C1650 0.931 . S
C1635 H1623 0.929 . S
C1635 C1629 1.390 . S
C1635 C1632 1.386 . S
C1636 C1631 1.490 . S
C1636 C1638 1.395 . S
C1636 C1639 1.403 . S
H1637 C1643 0.930 . S
C1638 H1624 0.930 . S
C1638 C1636 1.395 . S
C1638 C1641 1.403 . S
C1639 C1636 1.403 . S
C1639 C1640 1.524 . S
C1639 C1643 1.400 . S
C1640 H1625 0.960 . S
C1640 H1626 0.960 . S
C1640 H1627 0.960 . S
C1640 C1639 1.524 . S
C1641 C1638 1.403 . S
C1641 C1642 1.392 . S
C1641 C1645 1.495 . S
C1642 C1641 1.392 . S
C1642 C1643 1.385 . S
C1642 C1644 1.478 . S
C1643 H1637 0.930 . S
C1643 C1639 1.400 . S
C1643 C1642 1.385 . S
C1644 C1642 1.478 . S
C1644 C1646 1.381 . S
C1644 C1650 1.383 . S
C1645 C1641 1.495 . S
C1645 H1651 0.959 . S
C1645 H1652 0.961 . S
C1645 H1653 0.960 . S
C1646 C1644 1.381 . S
C1646 C1647 1.394 . S
C1646 H1654 0.930 . S
C1647 C1646 1.394 . S
C1647 C1648 1.383 . S
C1647 H1655 0.929 . S
C1648 C1647 1.383 . S
C1648 C1649 1.377 . S
C1649 H1633 0.930 . S
C1649 C1648 1.377 . S
C1649 C1650 1.379 . S
C1650 H1634 0.931 . S
C1650 C1644 1.383 . S
C1650 C1649 1.379 . S
H1651 C1645 0.959 . S
H1652 C1645 0.961 . S
H1653 C1645 0.960 . S
H1654 C1646 0.930 . S
H1655 C1647 0.929 . S
H1656 C1664 0.929 . S
H1657 C1666 0.930 . S
H1658 C1668 0.930 . S
H1659 C1671 0.929 . S
H1660 C1674 0.930 . S
H1661 C1676 0.960 . S
H1662 C1676 0.960 1_565 S
H1663 C1676 0.960 . S
C1664 H1656 0.929 . S
C1664 C1665 1.377 . S
C1664 C1666 1.384 . S
C1665 C1664 1.377 . S
C1665 C1671 1.390 . S
C1666 H1657 0.930 . S
C1666 C1664 1.384 . S
C1666 C1667 1.372 . S
C1667 C1666 1.372 . S
C1667 C1668 1.400 . S
C1667 C1672 1.490 . S
C1668 H1658 0.930 . S
C1668 C1667 1.400 . S
C1668 C1671 1.386 . S
H1669 C1685 0.930 . S
H1670 C1686 0.931 . S
C1671 H1659 0.929 . S
C1671 C1665 1.390 . S
C1671 C1668 1.386 . S
C1672 C1667 1.490 . S
C1672 C1674 1.395 1_556 S
C1672 C1675 1.403 1_565 S
H1673 C1679 0.930 . S
C1674 H1660 0.930 . S
C1674 C1672 1.395 1_554 S
C1674 C1677 1.403 . S
C1675 C1672 1.403 1_545 S
C1675 C1676 1.524 . S
C1675 C1679 1.400 . S
C1676 H1661 0.960 . S
C1676 H1662 0.960 1_545 S
C1676 H1663 0.960 . S
C1676 C1675 1.524 . S
C1677 C1674 1.403 . S
C1677 C1678 1.392 1_565 S
C1677 C1681 1.495 . S
C1678 C1677 1.392 1_545 S
C1678 C1679 1.385 1_554 S
C1678 C1680 1.478 . S
C1679 H1673 0.930 . S
C1679 C1675 1.400 . S
C1679 C1678 1.385 1_556 S
C1680 C1678 1.478 . S
C1680 C1682 1.381 . S
C1680 C1686 1.383 . S
C1681 C1677 1.495 . S
C1681 H1687 0.959 . S
C1681 H1688 0.961 . S
C1681 H1689 0.960 . S
C1682 C1680 1.381 . S
C1682 C1683 1.394 . S
C1682 H1690 0.930 . S
C1683 C1682 1.394 . S
C1683 C1684 1.383 . S
C1683 H1691 0.929 . S
C1684 C1683 1.383 . S
C1684 C1685 1.377 . S
C1685 H1669 0.930 . S
C1685 C1684 1.377 . S
C1685 C1686 1.379 . S
C1686 H1670 0.931 . S
C1686 C1680 1.383 . S
C1686 C1685 1.379 . S
H1687 C1681 0.959 . S
H1688 C1681 0.961 . S
H1689 C1681 0.960 . S
H1690 C1682 0.930 . S
H1691 C1683 0.929 . S
H1692 C1700 0.929 . S
H1693 C1702 0.930 . S
H1694 C1704 0.930 . S
H1695 C1707 0.929 . S
H1696 C1710 0.930 . S
H1697 C1712 0.960 . S
H1698 C1712 0.960 . S
H1699 C1712 0.960 . S
C1700 H1692 0.929 . S
C1700 C1701 1.377 . S
C1700 C1702 1.384 . S
C1701 C1700 1.377 . S
C1701 C1707 1.390 . S
C1702 H1693 0.930 . S
C1702 C1700 1.384 . S
C1702 C1703 1.372 . S
C1703 C1702 1.372 . S
C1703 C1704 1.400 . S
C1703 C1708 1.490 . S
C1704 H1694 0.930 . S
C1704 C1703 1.400 . S
C1704 C1707 1.386 . S
H1705 C1721 0.930 . S
H1706 C1722 0.931 . S
C1707 H1695 0.929 . S
C1707 C1701 1.390 . S
C1707 C1704 1.386 . S
C1708 C1703 1.490 . S
C1708 C1710 1.395 . S
C1708 C1711 1.403 . S
H1709 C1715 0.930 . S
C1710 H1696 0.930 . S
C1710 C1708 1.395 . S
C1710 C1713 1.403 . S
C1711 C1708 1.403 . S
C1711 C1712 1.524 . S
C1711 C1715 1.400 . S
C1712 H1697 0.960 . S
C1712 H1698 0.960 . S
C1712 H1699 0.960 . S
C1712 C1711 1.524 . S
C1713 C1710 1.403 . S
C1713 C1714 1.392 . S
C1713 C1717 1.495 . S
C1714 C1713 1.392 . S
C1714 C1715 1.385 . S
C1714 C1716 1.478 . S
C1715 H1709 0.930 . S
C1715 C1711 1.400 . S
C1715 C1714 1.385 . S
C1716 C1714 1.478 . S
C1716 C1718 1.381 . S
C1716 C1722 1.383 . S
C1717 C1713 1.495 . S
C1717 H1723 0.959 . S
C1717 H1724 0.961 . S
C1717 H1725 0.960 . S
C1718 C1716 1.381 . S
C1718 C1719 1.394 . S
C1718 H1726 0.930 . S
C1719 C1718 1.394 . S
C1719 C1720 1.383 . S
C1719 H1727 0.929 . S
C1720 C1719 1.383 . S
C1720 C1721 1.377 . S
C1721 H1705 0.930 . S
C1721 C1720 1.377 . S
C1721 C1722 1.379 . S
C1722 H1706 0.931 . S
C1722 C1716 1.383 . S
C1722 C1721 1.379 . S
H1723 C1717 0.959 . S
H1724 C1717 0.961 . S
H1725 C1717 0.960 . S
H1726 C1718 0.930 . S
H1727 C1719 0.929 . S
H1728 C1736 0.929 . S
H1729 C1738 0.930 . S
H1730 C1740 0.930 . S
H1731 C1743 0.929 . S
H1732 C1746 0.930 . S
H1733 C1748 0.960 . S
H1734 C1748 0.960 . S
H1735 C1748 0.960 . S
C1736 H1728 0.929 . S
C1736 C1737 1.377 . S
C1736 C1738 1.384 . S
C1737 C1736 1.377 . S
C1737 C1743 1.390 . S
C1738 H1729 0.930 . S
C1738 C1736 1.384 . S
C1738 C1739 1.372 . S
C1739 C1738 1.372 . S
C1739 C1740 1.400 . S
C1739 C1744 1.490 . S
C1740 H1730 0.930 . S
C1740 C1739 1.400 . S
C1740 C1743 1.386 . S
H1741 C1757 0.930 . S
H1742 C1758 0.931 . S
C1743 H1731 0.929 . S
C1743 C1737 1.390 . S
C1743 C1740 1.386 . S
C1744 C1739 1.490 . S
C1744 C1746 1.395 1_455 S
C1744 C1747 1.403 1_556 S
H1745 C1751 0.930 . S
C1746 H1732 0.930 . S
C1746 C1744 1.395 1_655 S
C1746 C1749 1.403 . S
C1747 C1744 1.403 1_554 S
C1747 C1748 1.524 . S
C1747 C1751 1.400 . S
C1748 H1733 0.960 . S
C1748 H1734 0.960 . S
C1748 H1735 0.960 . S
C1748 C1747 1.524 . S
C1749 C1746 1.403 . S
C1749 C1750 1.392 1_556 S
C1749 C1753 1.495 . S
C1750 C1749 1.392 1_554 S
C1750 C1751 1.385 1_655 S
C1750 C1752 1.478 . S
C1751 H1745 0.930 . S
C1751 C1747 1.400 . S
C1751 C1750 1.385 1_455 S
C1752 C1750 1.478 . S
C1752 C1754 1.381 . S
C1752 C1758 1.383 . S
C1753 C1749 1.495 . S
C1753 H1759 0.959 . S
C1753 H1760 0.961 . S
C1753 H1761 0.960 . S
C1754 C1752 1.381 . S
C1754 C1755 1.394 . S
C1754 H1762 0.930 . S
C1755 C1754 1.394 . S
C1755 C1756 1.383 . S
C1755 H1763 0.929 . S
C1756 C1755 1.383 . S
C1756 C1757 1.377 . S
C1757 H1741 0.930 . S
C1757 C1756 1.377 . S
C1757 C1758 1.379 . S
C1758 H1742 0.931 . S
C1758 C1752 1.383 . S
C1758 C1757 1.379 . S
H1759 C1753 0.959 . S
H1760 C1753 0.961 . S
H1761 C1753 0.960 . S
H1762 C1754 0.930 . S
H1763 C1755 0.929 . S
H1764 C1772 0.929 . S
H1765 C1774 0.930 . S
H1766 C1776 0.930 . S
H1767 C1779 0.929 . S
H1768 C1782 0.930 . S
H1769 C1784 0.960 . S
H1770 C1784 0.960 . S
H1771 C1784 0.960 . S
C1772 H1764 0.929 . S
C1772 C1773 1.377 . S
C1772 C1774 1.384 . S
C1773 C1772 1.377 . S
C1773 C1779 1.390 . S
C1774 H1765 0.930 . S
C1774 C1772 1.384 . S
C1774 C1775 1.372 . S
C1775 C1774 1.372 . S
C1775 C1776 1.400 . S
C1775 C1780 1.490 . S
C1776 H1766 0.930 . S
C1776 C1775 1.400 . S
C1776 C1779 1.386 . S
H1777 C1793 0.930 . S
H1778 C1794 0.931 . S
C1779 H1767 0.929 . S
C1779 C1773 1.390 . S
C1779 C1776 1.386 . S
C1780 C1775 1.490 . S
C1780 C1782 1.395 1_545 S
C1780 C1783 1.403 . S
H1781 C1787 0.923 1_545 S
C1782 H1768 0.930 . S
C1782 C1780 1.395 1_565 S
C1782 C1785 1.403 . S
C1783 C1780 1.403 . S
C1783 C1784 1.524 . S
C1783 C1787 1.382 1_545 S
C1784 H1769 0.960 . S
C1784 H1770 0.960 . S
C1784 H1771 0.960 . S
C1784 C1783 1.524 . S
C1785 C1782 1.403 . S
C1785 C1786 1.392 . S
C1785 C1789 1.495 . S
C1786 C1785 1.392 . S
C1786 C1787 1.410 . S
C1786 C1788 1.478 . S
C1787 H1781 0.923 1_565 S
C1787 C1783 1.382 1_565 S
C1787 C1786 1.410 . S
C1788 C1786 1.478 . S
C1788 C1790 1.381 . S
C1788 C1794 1.383 . S
C1789 C1785 1.495 . S
C1789 H1795 0.959 . S
C1789 H1796 0.961 . S
C1789 H1797 0.960 . S
C1790 C1788 1.381 . S
C1790 C1791 1.394 . S
C1790 H1798 0.930 . S
C1791 C1790 1.394 . S
C1791 C1792 1.383 . S
C1791 H1799 0.929 . S
C1792 C1791 1.383 . S
C1792 C1793 1.377 . S
C1793 H1777 0.930 . S
C1793 C1792 1.377 . S
C1793 C1794 1.379 . S
C1794 H1778 0.931 . S
C1794 C1788 1.383 . S
C1794 C1793 1.379 . S
H1795 C1789 0.959 . S
H1796 C1789 0.961 . S
H1797 C1789 0.960 . S
H1798 C1790 0.930 . S
H1799 C1791 0.929 . S
H1800 C1808 0.929 . S
H1801 C1810 0.930 . S
H1802 C1812 0.930 . S
H1803 C1815 0.929 . S
H1804 C1818 0.930 . S
H1805 C1820 0.960 1_556 S
H1806 C1820 0.960 . S
H1807 C1820 0.960 . S
C1808 H1800 0.929 . S
C1808 C1809 1.377 . S
C1808 C1810 1.384 . S
C1809 C1808 1.377 . S
C1809 C1815 1.390 . S
C1810 H1801 0.930 . S
C1810 C1808 1.384 . S
C1810 C1811 1.372 . S
C1811 C1810 1.372 . S
C1811 C1812 1.400 . S
C1811 C1816 1.490 . S
C1812 H1802 0.930 . S
C1812 C1811 1.400 . S
C1812 C1815 1.386 . S
H1813 C1829 0.930 . S
H1814 C1830 0.931 . S
C1815 H1803 0.929 . S
C1815 C1809 1.390 . S
C1815 C1812 1.386 . S
C1816 C1811 1.490 . S
C1816 C1818 1.395 . S
C1816 C1819 1.403 . S
H1817 C1823 0.930 . S
C1818 H1804 0.930 . S
C1818 C1816 1.395 . S
C1818 C1821 1.403 1_554 S
C1819 C1816 1.403 . S
C1819 C1820 1.524 . S
C1819 C1823 1.400 1_554 S
C1820 H1805 0.960 1_554 S
C1820 H1806 0.960 . S
C1820 H1807 0.960 . S
C1820 C1819 1.524 . S
C1821 C1818 1.403 1_556 S
C1821 C1822 1.392 . S
C1821 C1825 1.495 . S
C1822 C1821 1.392 . S
C1822 C1823 1.385 . S
C1822 C1824 1.478 . S
C1823 H1817 0.930 . S
C1823 C1819 1.400 1_556 S
C1823 C1822 1.385 . S
C1824 C1822 1.478 . S
C1824 C1826 1.381 . S
C1824 C1830 1.383 . S
C1825 C1821 1.495 . S
C1825 H1831 0.930 1_556 S
C1825 H1832 0.961 . S
C1825 H1833 0.960 . S
C1826 C1824 1.381 . S
C1826 C1827 1.394 . S
C1826 H1834 0.930 . S
C1827 C1826 1.394 . S
C1827 C1828 1.383 . S
C1827 H1835 0.929 . S
C1828 C1827 1.383 . S
C1828 C1829 1.377 . S
C1829 H1813 0.930 . S
C1829 C1828 1.377 . S
C1829 C1830 1.379 . S
C1830 H1814 0.931 . S
C1830 C1824 1.383 . S
C1830 C1829 1.379 . S
H1831 C1825 0.930 1_554 S
H1832 C1825 0.961 . S
H1833 C1825 0.960 . S
H1834 C1826 0.930 . S
H1835 C1827 0.929 . S
H1836 C1844 0.929 . S
H1837 C1846 0.930 . S
H1838 C1848 0.930 . S
H1839 C1851 0.929 . S
H1840 C1854 0.930 . S
H1841 C1856 0.960 1_655 S
H1842 C1856 0.960 . S
H1843 C1856 0.960 . S
C1844 H1836 0.929 . S
C1844 C1845 1.377 . S
C1844 C1846 1.384 . S
C1845 C1844 1.377 . S
C1845 C1851 1.390 . S
C1846 H1837 0.930 . S
C1846 C1844 1.384 . S
C1846 C1847 1.372 . S
C1847 C1846 1.372 . S
C1847 C1848 1.400 . S
C1847 C1852 1.490 . S
C1848 H1838 0.930 . S
C1848 C1847 1.400 . S
C1848 C1851 1.386 . S
H1849 C1865 0.930 . S
H1850 C1866 0.931 . S
C1851 H1839 0.929 . S
C1851 C1845 1.390 . S
C1851 C1848 1.386 . S
C1852 C1847 1.490 . S
C1852 C1854 1.395 . S
C1852 C1855 1.403 . S
H1853 C1859 0.930 . S
C1854 H1840 0.930 . S
C1854 C1852 1.395 . S
C1854 C1857 1.403 1_455 S
C1855 C1852 1.403 . S
C1855 C1856 1.524 . S
C1855 C1859 1.400 1_455 S
C1856 H1841 0.960 1_455 S
C1856 H1842 0.960 . S
C1856 H1843 0.960 . S
C1856 C1855 1.524 . S
C1857 C1854 1.403 1_655 S
C1857 C1858 1.392 . S
C1857 C1861 1.495 . S
C1858 C1857 1.392 . S
C1858 C1859 1.385 . S
C1858 C1860 1.478 . S
C1859 H1853 0.930 . S
C1859 C1855 1.400 1_655 S
C1859 C1858 1.385 . S
C1860 C1858 1.478 . S
C1860 C1862 1.381 . S
C1860 C1866 1.383 . S
C1861 C1857 1.495 . S
C1861 H1867 0.959 1_655 S
C1861 H1868 0.961 . S
C1861 H1869 0.960 . S
C1862 C1860 1.381 . S
C1862 C1863 1.394 . S
C1862 H1870 0.930 . S
C1863 C1862 1.394 . S
C1863 C1864 1.383 . S
C1863 H1871 0.929 . S
C1864 C1863 1.383 . S
C1864 C1865 1.377 . S
C1865 H1849 0.930 . S
C1865 C1864 1.377 . S
C1865 C1866 1.379 . S
C1866 H1850 0.931 . S
C1866 C1860 1.383 . S
C1866 C1865 1.379 . S
H1867 C1861 0.959 1_455 S
H1868 C1861 0.961 . S
H1869 C1861 0.960 . S
H1870 C1862 0.930 . S
H1871 C1863 0.929 . S
H1872 C1880 0.929 . S
H1873 C1882 0.930 . S
H1874 C1884 0.930 . S
H1875 C1887 0.929 . S
H1876 C1890 0.930 . S
H1877 C1892 0.960 . S
H1878 C1892 0.960 . S
H1879 C1892 0.960 . S
C1880 H1872 0.929 . S
C1880 C1881 1.377 . S
C1880 C1882 1.384 . S
C1881 C1880 1.377 . S
C1881 C1887 1.390 . S
C1882 H1873 0.930 . S
C1882 C1880 1.384 . S
C1882 C1883 1.372 . S
C1883 C1882 1.372 . S
C1883 C1884 1.400 . S
C1883 C1888 1.490 . S
C1884 H1874 0.930 . S
C1884 C1883 1.400 . S
C1884 C1887 1.386 . S
H1885 C1901 0.930 . S
H1886 C1902 0.931 . S
C1887 H1875 0.929 . S
C1887 C1881 1.390 . S
C1887 C1884 1.386 . S
C1888 C1883 1.490 . S
C1888 C1890 1.395 . S
C1888 C1891 1.403 . S
H1889 C1895 0.930 . S
C1890 H1876 0.930 . S
C1890 C1888 1.395 . S
C1890 C1893 1.403 . S
C1891 C1888 1.403 . S
C1891 C1892 1.524 . S
C1891 C1895 1.400 . S
C1892 H1877 0.960 . S
C1892 H1878 0.960 . S
C1892 H1879 0.960 . S
C1892 C1891 1.524 . S
C1893 C1890 1.403 . S
C1893 C1894 1.392 . S
C1893 C1897 1.495 . S
C1894 C1893 1.392 . S
C1894 C1895 1.385 . S
C1894 C1896 1.478 . S
C1895 H1889 0.930 . S
C1895 C1891 1.400 . S
C1895 C1894 1.385 . S
C1896 C1894 1.478 . S
C1896 C1898 1.381 . S
C1896 C1902 1.383 . S
C1897 C1893 1.495 . S
C1897 H1903 0.959 . S
C1897 H1904 0.961 . S
C1897 H1905 0.960 . S
C1898 C1896 1.381 . S
C1898 C1899 1.394 . S
C1898 H1906 0.930 . S
C1899 C1898 1.394 . S
C1899 C1900 1.383 . S
C1899 H1907 0.929 . S
C1900 C1899 1.383 . S
C1900 C1901 1.377 . S
C1901 H1885 0.930 . S
C1901 C1900 1.377 . S
C1901 C1902 1.379 . S
C1902 H1886 0.931 . S
C1902 C1896 1.383 . S
C1902 C1901 1.379 . S
H1903 C1897 0.959 . S
H1904 C1897 0.961 . S
H1905 C1897 0.960 . S
H1906 C1898 0.930 . S
H1907 C1899 0.929 . S
H1908 C1916 0.929 . S
H1909 C1918 0.930 . S
H1910 C1920 0.930 . S
H1911 C1923 0.929 . S
H1912 C1926 0.930 . S
H1913 C1928 0.960 . S
H1914 C1928 0.960 . S
H1915 C1928 0.960 . S
C1916 H1908 0.929 . S
C1916 C1917 1.377 . S
C1916 C1918 1.384 . S
C1917 C1916 1.377 . S
C1917 C1923 1.390 . S
C1918 H1909 0.930 . S
C1918 C1916 1.384 . S
C1918 C1919 1.372 . S
C1919 C1918 1.372 . S
C1919 C1920 1.400 . S
C1919 C1924 1.490 . S
C1920 H1910 0.930 . S
C1920 C1919 1.400 . S
C1920 C1923 1.386 . S
H1921 C1937 0.930 . S
H1922 C1938 0.931 . S
C1923 H1911 0.929 . S
C1923 C1917 1.390 . S
C1923 C1920 1.386 . S
C1924 C1919 1.490 . S
C1924 C1926 1.395 . S
C1924 C1927 1.403 . S
H1925 C1931 0.930 . S
C1926 H1912 0.930 . S
C1926 C1924 1.395 . S
C1926 C1929 1.403 . S
C1927 C1924 1.403 . S
C1927 C1928 1.524 . S
C1927 C1931 1.400 . S
C1928 H1913 0.960 . S
C1928 H1914 0.960 . S
C1928 H1915 0.960 . S
C1928 C1927 1.524 . S
C1929 C1926 1.403 . S
C1929 C1930 1.392 . S
C1929 C1933 1.495 . S
C1930 C1929 1.392 . S
C1930 C1931 1.385 . S
C1930 C1932 1.478 . S
C1931 H1925 0.930 . S
C1931 C1927 1.400 . S
C1931 C1930 1.385 . S
C1932 C1930 1.478 . S
C1932 C1934 1.381 . S
C1932 C1938 1.383 . S
C1933 C1929 1.495 . S
C1933 H1939 0.959 . S
C1933 H1940 0.961 . S
C1933 H1941 0.960 . S
C1934 C1932 1.381 . S
C1934 C1935 1.394 . S
C1934 H1942 0.930 . S
C1935 C1934 1.394 . S
C1935 C1936 1.383 . S
C1935 H1943 0.929 . S
C1936 C1935 1.383 . S
C1936 C1937 1.377 . S
C1937 H1921 0.930 . S
C1937 C1936 1.377 . S
C1937 C1938 1.379 . S
C1938 H1922 0.931 . S
C1938 C1932 1.383 . S
C1938 C1937 1.379 . S
H1939 C1933 0.959 . S
H1940 C1933 0.961 . S
H1941 C1933 0.960 . S
H1942 C1934 0.930 . S
H1943 C1935 0.929 . S
H1944 C1952 0.929 . S
H1945 C1954 0.930 . S
H1946 C1956 0.930 . S
H1947 C1959 0.929 . S
H1948 C1962 0.930 . S
H1949 C1964 0.960 . S
H1950 C1964 0.960 . S
H1951 C1964 0.960 . S
C1952 H1944 0.929 . S
C1952 C1953 1.377 . S
C1952 C1954 1.384 . S
C1953 C1952 1.377 . S
C1953 C1959 1.390 . S
C1954 H1945 0.930 . S
C1954 C1952 1.384 . S
C1954 C1955 1.372 . S
C1955 C1954 1.372 . S
C1955 C1956 1.400 . S
C1955 C1960 1.490 . S
C1956 H1946 0.930 . S
C1956 C1955 1.400 . S
C1956 C1959 1.386 . S
H1957 C1973 0.930 . S
H1958 C1974 0.931 . S
C1959 H1947 0.929 . S
C1959 C1953 1.390 . S
C1959 C1956 1.386 . S
C1960 C1955 1.490 . S
C1960 C1962 1.395 . S
C1960 C1963 1.403 . S
H1961 C1967 0.930 . S
C1962 H1948 0.930 . S
C1962 C1960 1.395 . S
C1962 C1965 1.403 . S
C1963 C1960 1.403 . S
C1963 C1964 1.524 . S
C1963 C1967 1.400 . S
C1964 H1949 0.960 . S
C1964 H1950 0.960 . S
C1964 H1951 0.960 . S
C1964 C1963 1.524 . S
C1965 C1962 1.403 . S
C1965 C1966 1.392 . S
C1965 C1969 1.495 . S
C1966 C1965 1.392 . S
C1966 C1967 1.385 . S
C1966 C1968 1.478 . S
C1967 H1961 0.930 . S
C1967 C1963 1.400 . S
C1967 C1966 1.385 . S
C1968 C1966 1.478 . S
C1968 C1970 1.381 . S
C1968 C1974 1.383 . S
C1969 C1965 1.495 . S
C1969 H1975 0.959 . S
C1969 H1976 0.961 . S
C1969 H1977 0.960 . S
C1970 C1968 1.381 . S
C1970 C1971 1.394 . S
C1970 H1978 0.930 . S
C1971 C1970 1.394 . S
C1971 C1972 1.383 . S
C1971 H1979 0.929 . S
C1972 C1971 1.383 . S
C1972 C1973 1.377 . S
C1973 H1957 0.930 . S
C1973 C1972 1.377 . S
C1973 C1974 1.379 . S
C1974 H1958 0.931 . S
C1974 C1968 1.383 . S
C1974 C1973 1.379 . S
H1975 C1969 0.959 . S
H1976 C1969 0.961 . S
H1977 C1969 0.960 . S
H1978 C1970 0.930 . S
H1979 C1971 0.929 . S
H1980 C1988 0.929 . S
H1981 C1990 0.930 . S
H1982 C1992 0.930 . S
H1983 C1995 0.929 . S
H1984 C1998 0.930 . S
H1985 C2000 0.960 . S
H1986 C2000 0.960 . S
H1987 C2000 0.960 . S
C1988 H1980 0.929 . S
C1988 C1989 1.377 . S
C1988 C1990 1.384 . S
C1989 C1988 1.377 . S
C1989 C1995 1.390 . S
C1990 H1981 0.930 . S
C1990 C1988 1.384 . S
C1990 C1991 1.372 . S
C1991 C1990 1.372 . S
C1991 C1992 1.400 . S
C1991 C1996 1.490 . S
C1992 H1982 0.930 . S
C1992 C1991 1.400 . S
C1992 C1995 1.386 . S
H1993 C2009 0.930 . S
H1994 C2010 0.931 . S
C1995 H1983 0.929 . S
C1995 C1989 1.390 . S
C1995 C1992 1.386 . S
C1996 C1991 1.490 . S
C1996 C1998 1.395 . S
C1996 C1999 1.403 . S
H1997 C2003 0.930 . S
C1998 H1984 0.930 . S
C1998 C1996 1.395 . S
C1998 C2001 1.403 . S
C1999 C1996 1.403 . S
C1999 C2000 1.524 . S
C1999 C2003 1.400 . S
C2000 H1985 0.960 . S
C2000 H1986 0.960 . S
C2000 H1987 0.960 . S
C2000 C1999 1.524 . S
C2001 C1998 1.403 . S
C2001 C2002 1.392 . S
C2001 C2005 1.495 . S
C2002 C2001 1.392 . S
C2002 C2003 1.385 . S
C2002 C2004 1.478 . S
C2003 H1997 0.930 . S
C2003 C1999 1.400 . S
C2003 C2002 1.385 . S
C2004 C2002 1.478 . S
C2004 C2006 1.381 . S
C2004 C2010 1.383 . S
C2005 C2001 1.495 . S
C2005 H2011 0.959 . S
C2005 H2012 0.961 . S
C2005 H2013 0.960 . S
C2006 C2004 1.381 . S
C2006 C2007 1.394 . S
C2006 H2014 0.930 . S
C2007 C2006 1.394 . S
C2007 C2008 1.383 . S
C2007 H2015 0.929 . S
C2008 C2007 1.383 . S
C2008 C2009 1.377 . S
C2009 H1993 0.930 . S
C2009 C2008 1.377 . S
C2009 C2010 1.379 . S
C2010 H1994 0.931 . S
C2010 C2004 1.383 . S
C2010 C2009 1.379 . S
H2011 C2005 0.959 . S
H2012 C2005 0.961 . S
H2013 C2005 0.960 . S
H2014 C2006 0.930 . S
H2015 C2007 0.929 . S
H2016 C2024 0.929 . S
H2017 C2026 0.930 . S
H2018 C2028 0.930 . S
H2019 C2031 0.929 . S
H2020 C2034 0.930 . S
H2021 C2036 0.960 . S
H2022 C2036 0.960 . S
H2023 C2036 0.960 . S
C2024 H2016 0.929 . S
C2024 C2025 1.377 . S
C2024 C2026 1.384 . S
C2025 C2024 1.377 . S
C2025 C2031 1.390 . S
C2026 H2017 0.930 . S
C2026 C2024 1.384 . S
C2026 C2027 1.372 . S
C2027 C2026 1.372 . S
C2027 C2028 1.400 . S
C2027 C2032 1.490 . S
C2028 H2018 0.930 . S
C2028 C2027 1.400 . S
C2028 C2031 1.386 . S
H2029 C2045 0.930 . S
H2030 C2046 0.931 . S
C2031 H2019 0.929 . S
C2031 C2025 1.390 . S
C2031 C2028 1.386 . S
C2032 C2027 1.490 . S
C2032 C2034 1.395 . S
C2032 C2035 1.403 . S
H2033 C2039 0.930 . S
C2034 H2020 0.930 . S
C2034 C2032 1.395 . S
C2034 C2037 1.403 . S
C2035 C2032 1.403 . S
C2035 C2036 1.524 . S
C2035 C2039 1.400 . S
C2036 H2021 0.960 . S
C2036 H2022 0.960 . S
C2036 H2023 0.960 . S
C2036 C2035 1.524 . S
C2037 C2034 1.403 . S
C2037 C2038 1.392 . S
C2037 C2041 1.495 . S
C2038 C2037 1.392 . S
C2038 C2039 1.385 . S
C2038 C2040 1.478 . S
C2039 H2033 0.930 . S
C2039 C2035 1.400 . S
C2039 C2038 1.385 . S
C2040 C2038 1.478 . S
C2040 C2042 1.381 . S
C2040 C2046 1.383 . S
C2041 C2037 1.495 . S
C2041 H2047 0.959 . S
C2041 H2048 0.961 . S
C2041 H2049 0.960 . S
C2042 C2040 1.381 . S
C2042 C2043 1.394 . S
C2042 H2050 0.930 . S
C2043 C2042 1.394 . S
C2043 C2044 1.383 . S
C2043 H2051 0.929 . S
C2044 C2043 1.383 . S
C2044 C2045 1.377 . S
C2045 H2029 0.930 . S
C2045 C2044 1.377 . S
C2045 C2046 1.379 . S
C2046 H2030 0.931 . S
C2046 C2040 1.383 . S
C2046 C2045 1.379 . S
H2047 C2041 0.959 . S
H2048 C2041 0.961 . S
H2049 C2041 0.960 . S
H2050 C2042 0.930 . S
H2051 C2043 0.929 . S
H2052 C2060 0.929 . S
H2053 C2062 0.930 . S
H2054 C2064 0.930 . S
H2055 C2067 0.929 . S
H2056 C2070 0.930 . S
H2057 C2072 0.960 . S
H2058 C2072 0.960 . S
H2059 C2072 0.960 . S
C2060 H2052 0.929 . S
C2060 C2061 1.377 . S
C2060 C2062 1.384 . S
C2061 C2060 1.377 . S
C2061 C2067 1.390 . S
C2062 H2053 0.930 . S
C2062 C2060 1.384 . S
C2062 C2063 1.372 . S
C2063 C2062 1.372 . S
C2063 C2064 1.400 . S
C2063 C2068 1.490 . S
C2064 H2054 0.930 . S
C2064 C2063 1.400 . S
C2064 C2067 1.386 . S
H2065 C2081 0.930 . S
H2066 C2082 0.931 . S
C2067 H2055 0.929 . S
C2067 C2061 1.390 . S
C2067 C2064 1.386 . S
C2068 C2063 1.490 . S
C2068 C2070 1.395 . S
C2068 C2071 1.403 . S
H2069 C2075 0.930 . S
C2070 H2056 0.930 . S
C2070 C2068 1.395 . S
C2070 C2073 1.403 . S
C2071 C2068 1.403 . S
C2071 C2072 1.524 . S
C2071 C2075 1.400 . S
C2072 H2057 0.960 . S
C2072 H2058 0.960 . S
C2072 H2059 0.960 . S
C2072 C2071 1.524 . S
C2073 C2070 1.403 . S
C2073 C2074 1.392 . S
C2073 C2077 1.495 . S
C2074 C2073 1.392 . S
C2074 C2075 1.385 . S
C2074 C2076 1.478 . S
C2075 H2069 0.930 . S
C2075 C2071 1.400 . S
C2075 C2074 1.385 . S
C2076 C2074 1.478 . S
C2076 C2078 1.381 . S
C2076 C2082 1.383 . S
C2077 C2073 1.495 . S
C2077 H2083 0.959 . S
C2077 H2084 0.961 . S
C2077 H2085 0.960 . S
C2078 C2076 1.381 . S
C2078 C2079 1.394 . S
C2078 H2086 0.930 . S
C2079 C2078 1.394 . S
C2079 C2080 1.383 . S
C2079 H2087 0.929 . S
C2080 C2079 1.383 . S
C2080 C2081 1.377 . S
C2081 H2065 0.930 . S
C2081 C2080 1.377 . S
C2081 C2082 1.379 . S
C2082 H2066 0.931 . S
C2082 C2076 1.383 . S
C2082 C2081 1.379 . S
H2083 C2077 0.959 . S
H2084 C2077 0.961 . S
H2085 C2077 0.960 . S
H2086 C2078 0.930 . S
H2087 C2079 0.929 . S
H2088 C2096 0.929 . S
H2089 C2098 0.930 . S
H2090 C2100 0.930 . S
H2091 C2103 0.929 . S
H2092 C2106 0.930 . S
H2093 C2108 0.960 . S
H2094 C2108 0.960 . S
H2095 C2108 0.960 . S
C2096 H2088 0.929 . S
C2096 C2097 1.377 . S
C2096 C2098 1.384 . S
C2097 C2096 1.377 . S
C2097 C2103 1.390 . S
C2098 H2089 0.930 . S
C2098 C2096 1.384 . S
C2098 C2099 1.372 . S
C2099 C2098 1.372 . S
C2099 C2100 1.400 . S
C2099 C2104 1.490 . S
C2100 H2090 0.930 . S
C2100 C2099 1.400 . S
C2100 C2103 1.386 . S
H2101 C2117 0.930 . S
H2102 C2118 0.931 . S
C2103 H2091 0.929 . S
C2103 C2097 1.390 . S
C2103 C2100 1.386 . S
C2104 C2099 1.490 . S
C2104 C2106 1.395 . S
C2104 C2107 1.403 . S
H2105 C2111 0.930 . S
C2106 H2092 0.930 . S
C2106 C2104 1.395 . S
C2106 C2109 1.403 . S
C2107 C2104 1.403 . S
C2107 C2108 1.524 . S
C2107 C2111 1.400 . S
C2108 H2093 0.960 . S
C2108 H2094 0.960 . S
C2108 H2095 0.960 . S
C2108 C2107 1.524 . S
C2109 C2106 1.403 . S
C2109 C2110 1.392 . S
C2109 C2113 1.495 . S
C2110 C2109 1.392 . S
C2110 C2111 1.385 . S
C2110 C2112 1.478 . S
C2111 H2105 0.930 . S
C2111 C2107 1.400 . S
C2111 C2110 1.385 . S
C2112 C2110 1.478 . S
C2112 C2114 1.381 . S
C2112 C2118 1.383 . S
C2113 C2109 1.495 . S
C2113 H2119 0.959 . S
C2113 H2120 0.961 . S
C2113 H2121 0.960 . S
C2114 C2112 1.381 . S
C2114 C2115 1.394 . S
C2114 H2122 0.930 . S
C2115 C2114 1.394 . S
C2115 C2116 1.383 . S
C2115 H2123 0.929 . S
C2116 C2115 1.383 . S
C2116 C2117 1.377 . S
C2117 H2101 0.930 . S
C2117 C2116 1.377 . S
C2117 C2118 1.379 . S
C2118 H2102 0.931 . S
C2118 C2112 1.383 . S
C2118 C2117 1.379 . S
H2119 C2113 0.959 . S
H2120 C2113 0.961 . S
H2121 C2113 0.960 . S
H2122 C2114 0.930 . S
H2123 C2115 0.929 . S
H2124 C2132 0.929 . S
H2125 C2134 0.930 . S
H2126 C2136 0.930 . S
H2127 C2139 0.929 . S
H2128 C2142 0.930 . S
H2129 C2144 0.960 . S
H2130 C2144 0.960 . S
H2131 C2144 0.960 . S
C2132 H2124 0.929 . S
C2132 C2133 1.377 . S
C2132 C2134 1.384 . S
C2133 C2132 1.377 . S
C2133 C2139 1.390 . S
C2134 H2125 0.930 . S
C2134 C2132 1.384 . S
C2134 C2135 1.372 . S
C2135 C2134 1.372 . S
C2135 C2136 1.400 . S
C2135 C2140 1.490 . S
C2136 H2126 0.930 . S
C2136 C2135 1.400 . S
C2136 C2139 1.386 . S
H2137 C2153 0.930 . S
H2138 C2154 0.931 . S
C2139 H2127 0.929 . S
C2139 C2133 1.390 . S
C2139 C2136 1.386 . S
C2140 C2135 1.490 . S
C2140 C2142 1.395 . S
C2140 C2143 1.403 . S
H2141 C2147 0.930 . S
C2142 H2128 0.930 . S
C2142 C2140 1.395 . S
C2142 C2145 1.403 . S
C2143 C2140 1.403 . S
C2143 C2144 1.524 . S
C2143 C2147 1.400 . S
C2144 H2129 0.960 . S
C2144 H2130 0.960 . S
C2144 H2131 0.960 . S
C2144 C2143 1.524 . S
C2145 C2142 1.403 . S
C2145 C2146 1.392 . S
C2145 C2149 1.495 . S
C2146 C2145 1.392 . S
C2146 C2147 1.385 . S
C2146 C2148 1.478 . S
C2147 H2141 0.930 . S
C2147 C2143 1.400 . S
C2147 C2146 1.385 . S
C2148 C2146 1.478 . S
C2148 C2150 1.381 . S
C2148 C2154 1.383 . S
C2149 C2145 1.495 . S
C2149 H2155 0.959 . S
C2149 H2156 0.961 . S
C2149 H2157 0.960 . S
C2150 C2148 1.381 . S
C2150 C2151 1.394 . S
C2150 H2158 0.930 . S
C2151 C2150 1.394 . S
C2151 C2152 1.383 . S
C2151 H2159 0.929 . S
C2152 C2151 1.383 . S
C2152 C2153 1.377 . S
C2153 H2137 0.930 . S
C2153 C2152 1.377 . S
C2153 C2154 1.379 . S
C2154 H2138 0.931 . S
C2154 C2148 1.383 . S
C2154 C2153 1.379 . S
H2155 C2149 0.959 . S
H2156 C2149 0.961 . S
H2157 C2149 0.960 . S
H2158 C2150 0.930 . S
H2159 C2151 0.929 . S
H2160 C2168 0.929 . S
H2161 C2170 0.930 . S
H2162 C2172 0.930 . S
H2163 C2175 0.929 . S
H2164 C2178 0.930 . S
H2165 C2180 0.960 . S
H2166 C2180 0.960 . S
H2167 C2180 0.960 . S
C2168 H2160 0.929 . S
C2168 C2169 1.377 . S
C2168 C2170 1.384 . S
C2169 C2168 1.377 . S
C2169 C2175 1.390 . S
C2170 H2161 0.930 . S
C2170 C2168 1.384 . S
C2170 C2171 1.372 . S
C2171 C2170 1.372 . S
C2171 C2172 1.400 . S
C2171 C2176 1.490 . S
C2172 H2162 0.930 . S
C2172 C2171 1.400 . S
C2172 C2175 1.386 . S
H2173 C2189 0.930 . S
H2174 C2190 0.931 . S
C2175 H2163 0.929 . S
C2175 C2169 1.390 . S
C2175 C2172 1.386 . S
C2176 C2171 1.490 . S
C2176 C2178 1.395 . S
C2176 C2179 1.403 . S
H2177 C2183 0.930 . S
C2178 H2164 0.930 . S
C2178 C2176 1.395 . S
C2178 C2181 1.403 . S
C2179 C2176 1.403 . S
C2179 C2180 1.524 . S
C2179 C2183 1.400 . S
C2180 H2165 0.960 . S
C2180 H2166 0.960 . S
C2180 H2167 0.960 . S
C2180 C2179 1.524 . S
C2181 C2178 1.403 . S
C2181 C2182 1.392 . S
C2181 C2185 1.495 . S
C2182 C2181 1.392 . S
C2182 C2183 1.385 . S
C2182 C2184 1.478 . S
C2183 H2177 0.930 . S
C2183 C2179 1.400 . S
C2183 C2182 1.385 . S
C2184 C2182 1.478 . S
C2184 C2186 1.381 . S
C2184 C2190 1.383 . S
C2185 C2181 1.495 . S
C2185 H2191 0.959 . S
C2185 H2192 0.961 . S
C2185 H2193 0.960 . S
C2186 C2184 1.381 . S
C2186 C2187 1.394 . S
C2186 H2194 0.930 . S
C2187 C2186 1.394 . S
C2187 C2188 1.383 . S
C2187 H2195 0.929 . S
C2188 C2187 1.383 . S
C2188 C2189 1.377 . S
C2189 H2173 0.930 . S
C2189 C2188 1.377 . S
C2189 C2190 1.379 . S
C2190 H2174 0.931 . S
C2190 C2184 1.383 . S
C2190 C2189 1.379 . S
H2191 C2185 0.959 . S
H2192 C2185 0.961 . S
H2193 C2185 0.960 . S
H2194 C2186 0.930 . S
H2195 C2187 0.929 . S
H2196 C2204 0.929 . S
H2197 C2206 0.930 . S
H2198 C2208 0.930 . S
H2199 C2211 0.929 . S
H2200 C2214 0.930 . S
H2201 C2216 0.960 . S
H2202 C2216 0.960 . S
H2203 C2216 0.960 . S
C2204 H2196 0.929 . S
C2204 C2205 1.377 . S
C2204 C2206 1.384 . S
C2205 C2204 1.377 . S
C2205 C2211 1.390 . S
C2206 H2197 0.930 . S
C2206 C2204 1.384 . S
C2206 C2207 1.372 . S
C2207 C2206 1.372 . S
C2207 C2208 1.400 . S
C2207 C2212 1.490 . S
C2208 H2198 0.930 . S
C2208 C2207 1.400 . S
C2208 C2211 1.386 . S
H2209 C2225 0.930 . S
H2210 C2226 0.931 . S
C2211 H2199 0.929 . S
C2211 C2205 1.390 . S
C2211 C2208 1.386 . S
C2212 C2207 1.490 . S
C2212 C2214 1.395 . S
C2212 C2215 1.403 . S
H2213 C2219 0.930 . S
C2214 H2200 0.930 . S
C2214 C2212 1.395 . S
C2214 C2217 1.403 . S
C2215 C2212 1.403 . S
C2215 C2216 1.524 . S
C2215 C2219 1.400 . S
C2216 H2201 0.960 . S
C2216 H2202 0.960 . S
C2216 H2203 0.960 . S
C2216 C2215 1.524 . S
C2217 C2214 1.403 . S
C2217 C2218 1.392 . S
C2217 C2221 1.495 . S
C2218 C2217 1.392 . S
C2218 C2219 1.385 . S
C2218 C2220 1.478 . S
C2219 H2213 0.930 . S
C2219 C2215 1.400 . S
C2219 C2218 1.385 . S
C2220 C2218 1.478 . S
C2220 C2222 1.381 . S
C2220 C2226 1.383 . S
C2221 C2217 1.495 . S
C2221 H2227 0.959 . S
C2221 H2228 0.961 . S
C2221 H2229 0.960 . S
C2222 C2220 1.381 . S
C2222 C2223 1.394 . S
C2222 H2230 0.930 . S
C2223 C2222 1.394 . S
C2223 C2224 1.383 . S
C2223 H2231 0.929 . S
C2224 C2223 1.383 . S
C2224 C2225 1.377 . S
C2225 H2209 0.930 . S
C2225 C2224 1.377 . S
C2225 C2226 1.379 . S
C2226 H2210 0.931 . S
C2226 C2220 1.383 . S
C2226 C2225 1.379 . S
H2227 C2221 0.959 . S
H2228 C2221 0.961 . S
H2229 C2221 0.960 . S
H2230 C2222 0.930 . S
H2231 C2223 0.929 . S
H2232 C2240 0.929 . S
H2233 C2242 0.930 . S
H2234 C2244 0.930 . S
H2235 C2247 0.929 . S
H2236 C2250 0.930 . S
H2237 C2252 0.960 . S
H2238 C2252 0.960 . S
H2239 C2252 0.960 . S
C2240 H2232 0.929 . S
C2240 C2241 1.377 . S
C2240 C2242 1.384 . S
C2241 C2240 1.377 . S
C2241 C2247 1.390 . S
C2242 H2233 0.930 . S
C2242 C2240 1.384 . S
C2242 C2243 1.372 . S
C2243 C2242 1.372 . S
C2243 C2244 1.400 . S
C2243 C2248 1.490 . S
C2244 H2234 0.930 . S
C2244 C2243 1.400 . S
C2244 C2247 1.386 . S
H2245 C2261 0.930 . S
H2246 C2262 0.931 . S
C2247 H2235 0.929 . S
C2247 C2241 1.390 . S
C2247 C2244 1.386 . S
C2248 C2243 1.490 . S
C2248 C2250 1.395 . S
C2248 C2251 1.403 . S
H2249 C2255 0.930 . S
C2250 H2236 0.930 . S
C2250 C2248 1.395 . S
C2250 C2253 1.403 . S
C2251 C2248 1.403 . S
C2251 C2252 1.524 . S
C2251 C2255 1.400 . S
C2252 H2237 0.960 . S
C2252 H2238 0.960 . S
C2252 H2239 0.960 . S
C2252 C2251 1.524 . S
C2253 C2250 1.403 . S
C2253 C2254 1.392 . S
C2253 C2257 1.495 . S
C2254 C2253 1.392 . S
C2254 C2255 1.385 . S
C2254 C2256 1.478 . S
C2255 H2249 0.930 . S
C2255 C2251 1.400 . S
C2255 C2254 1.385 . S
C2256 C2254 1.478 . S
C2256 C2258 1.381 . S
C2256 C2262 1.383 . S
C2257 C2253 1.495 . S
C2257 H2263 0.959 . S
C2257 H2264 0.961 . S
C2257 H2265 0.960 . S
C2258 C2256 1.381 . S
C2258 C2259 1.394 . S
C2258 H2266 0.930 . S
C2259 C2258 1.394 . S
C2259 C2260 1.383 . S
C2259 H2267 0.929 . S
C2260 C2259 1.383 . S
C2260 C2261 1.377 . S
C2261 H2245 0.930 . S
C2261 C2260 1.377 . S
C2261 C2262 1.379 . S
C2262 H2246 0.931 . S
C2262 C2256 1.383 . S
C2262 C2261 1.379 . S
H2263 C2257 0.959 . S
H2264 C2257 0.961 . S
H2265 C2257 0.960 . S
H2266 C2258 0.930 . S
H2267 C2259 0.929 . S
H2268 C2276 0.929 . S
H2269 C2278 0.930 . S
H2270 C2280 0.930 . S
H2271 C2283 0.929 . S
H2272 C2286 0.930 . S
H2273 C2288 0.960 . S
H2274 C2288 0.960 . S
H2275 C2288 0.960 . S
C2276 H2268 0.929 . S
C2276 C2277 1.377 . S
C2276 C2278 1.384 . S
C2277 C2276 1.377 . S
C2277 C2283 1.390 . S
C2278 H2269 0.930 . S
C2278 C2276 1.384 . S
C2278 C2279 1.372 . S
C2279 C2278 1.372 . S
C2279 C2280 1.400 . S
C2279 C2284 1.490 . S
C2280 H2270 0.930 . S
C2280 C2279 1.400 . S
C2280 C2283 1.386 . S
H2281 C2297 0.930 . S
H2282 C2298 0.931 . S
C2283 H2271 0.929 . S
C2283 C2277 1.390 . S
C2283 C2280 1.386 . S
C2284 C2279 1.490 . S
C2284 C2286 1.395 . S
C2284 C2287 1.403 . S
H2285 C2291 0.930 . S
C2286 H2272 0.930 . S
C2286 C2284 1.395 . S
C2286 C2289 1.403 . S
C2287 C2284 1.403 . S
C2287 C2288 1.524 . S
C2287 C2291 1.400 . S
C2288 H2273 0.960 . S
C2288 H2274 0.960 . S
C2288 H2275 0.960 . S
C2288 C2287 1.524 . S
C2289 C2286 1.403 . S
C2289 C2290 1.392 . S
C2289 C2293 1.495 . S
C2290 C2289 1.392 . S
C2290 C2291 1.385 . S
C2290 C2292 1.478 . S
C2291 H2285 0.930 . S
C2291 C2287 1.400 . S
C2291 C2290 1.385 . S
C2292 C2290 1.478 . S
C2292 C2294 1.381 . S
C2292 C2298 1.383 . S
C2293 C2289 1.495 . S
C2293 H2299 0.959 . S
C2293 H2300 0.961 . S
C2293 H2301 0.960 . S
C2294 C2292 1.381 . S
C2294 C2295 1.394 . S
C2294 H2302 0.930 . S
C2295 C2294 1.394 . S
C2295 C2296 1.383 . S
C2295 H2303 0.929 . S
C2296 C2295 1.383 . S
C2296 C2297 1.377 . S
C2297 H2281 0.930 . S
C2297 C2296 1.377 . S
C2297 C2298 1.379 . S
C2298 H2282 0.931 . S
C2298 C2292 1.383 . S
C2298 C2297 1.379 . S
H2299 C2293 0.959 . S
H2300 C2293 0.961 . S
H2301 C2293 0.960 . S
H2302 C2294 0.930 . S
H2303 C2295 0.929 . S
C1017 C226 1.090 . S
C1036 C67 1.232 . S
C1053 C321 1.098 . S
C1072 C140 1.228 . S
C1089 C235 1.224 . S
C1108 C394 1.087 . S
C1125 C308 1.220 . S
C1144 C489 1.113 . S
C1161 C58 1.094 . S
C1180 C403 1.232 . S
C1197 C153 1.085 . S
C1216 C476 1.230 . S
C1233 C909 1.076 . S
C1252 C560 1.220 . S
C1269 C655 1.223 . S
C1288 C982 1.056 . S
C1305 C728 1.220 . S
C1324 C573 1.042 . S
C1341 C823 1.224 . S
C1360 C646 1.084 . S
C1377 C896 1.225 . S
C1396 C741 1.101 . S
C1413 C814 1.099 . S
C1432 C991 1.228 . S
C1449 C315 1.967 . S
C1468 C74 1.938 . S
C1485 C147 1.963 . S
C1504 C410 1.985 . S
C1521 C242 1.964 . S
C1540 C483 1.985 . S
C1557 C567 1.970 . S
C1576 C830 1.941 . S
C1593 C662 1.964 . S
C1612 C903 1.944 . S
C1629 C735 1.961 . S
C1648 C998 1.963 . S
C1665 C651 2.160 . S
C1684 C63 2.143 . S
C1701 C158 2.160 . S
C1720 C746 2.163 . S
C1737 C819 2.157 . S
C1756 C231 2.159 . S
C1773 C326 2.159 . S
C1792 C914 2.153 . S
C1809 C399 2.159 . S
C1828 C987 2.146 . S
C1845 C578 2.157 . S
C1864 C494 2.161 . S
C1881 C237 1.248 . S
C1900 C56 1.404 . S
C1917 C151 1.397 . S
C1936 C310 1.197 . S
C1953 C224 1.395 . S
C1972 C405 1.249 . S
C1989 C319 1.397 . S
C2008 C478 1.202 . S
C2025 C69 1.239 . S
C2044 C392 1.409 . S
C2061 C142 1.250 . S
C2080 C487 1.401 . S
C2097 C898 1.235 . S
C2116 C571 1.392 . S
C2133 C644 1.400 . S
C2152 C993 1.277 . S
C2169 C739 1.398 . S
C2188 C562 1.253 . S
C2205 C657 1.246 . S
C2224 C812 1.382 . S
C2241 C907 1.395 . S
C2260 C730 1.200 . S
C2277 C980 1.395 . S
C2296 C825 1.229 . S
