# Generated by pormake.
# Topology sod, (4)-cn, num edge types: 1
# Building blocks:
#     Node 0, Type 0, BuildingBlock: QUQFOY_clean_sbu_1, # of connection points: 4
#     Node 1, Type 0, BuildingBlock: QUQFOY_clean_sbu_1, # of connection points: 4
#     Node 2, Type 0, BuildingBlock: QUQFOY_clean_sbu_1, # of connection points: 4
#     Node 3, Type 0, BuildingBlock: QUQFOY_clean_sbu_1, # of connection points: 4
#     Node 4, Type 0, BuildingBlock: QUQFOY_clean_sbu_1, # of connection points: 4
#     Node 5, Type 0, BuildingBlock: QUQFOY_clean_sbu_1, # of connection points: 4
#     Node 6, Type 0, BuildingBlock: QUQFOY_clean_sbu_1, # of connection points: 4
#     Node 7, Type 0, BuildingBlock: QUQFOY_clean_sbu_1, # of connection points: 4
#     Node 8, Type 0, BuildingBlock: QUQFOY_clean_sbu_1, # of connection points: 4
#     Node 9, Type 0, BuildingBlock: QUQFOY_clean_sbu_1, # of connection points: 4
#     Node 10, Type 0, BuildingBlock: QUQFOY_clean_sbu_1, # of connection points: 4
#     Node 11, Type 0, BuildingBlock: QUQFOY_clean_sbu_1, # of connection points: 4
#     Edge 12, Type (0, 0), BuildingBlock: EYOCIG_clean_linker_4, # of connection points: 2
#     Edge 13, Type (0, 0), BuildingBlock: EYOCIG_clean_linker_4, # of connection points: 2
#     Edge 14, Type (0, 0), BuildingBlock: EYOCIG_clean_linker_4, # of connection points: 2
#     Edge 15, Type (0, 0), BuildingBlock: EYOCIG_clean_linker_4, # of connection points: 2
#     Edge 16, Type (0, 0), BuildingBlock: EYOCIG_clean_linker_4, # of connection points: 2
#     Edge 17, Type (0, 0), BuildingBlock: EYOCIG_clean_linker_4, # of connection points: 2
#     Edge 18, Type (0, 0), BuildingBlock: EYOCIG_clean_linker_4, # of connection points: 2
#     Edge 19, Type (0, 0), BuildingBlock: EYOCIG_clean_linker_4, # of connection points: 2
#     Edge 20, Type (0, 0), BuildingBlock: EYOCIG_clean_linker_4, # of connection points: 2
#     Edge 21, Type (0, 0), BuildingBlock: EYOCIG_clean_linker_4, # of connection points: 2
#     Edge 22, Type (0, 0), BuildingBlock: EYOCIG_clean_linker_4, # of connection points: 2
#     Edge 23, Type (0, 0), BuildingBlock: EYOCIG_clean_linker_4, # of connection points: 2
#     Edge 24, Type (0, 0), BuildingBlock: EYOCIG_clean_linker_4, # of connection points: 2
#     Edge 25, Type (0, 0), BuildingBlock: EYOCIG_clean_linker_4, # of connection points: 2
#     Edge 26, Type (0, 0), BuildingBlock: EYOCIG_clean_linker_4, # of connection points: 2
#     Edge 27, Type (0, 0), BuildingBlock: EYOCIG_clean_linker_4, # of connection points: 2
#     Edge 28, Type (0, 0), BuildingBlock: EYOCIG_clean_linker_4, # of connection points: 2
#     Edge 29, Type (0, 0), BuildingBlock: EYOCIG_clean_linker_4, # of connection points: 2
#     Edge 30, Type (0, 0), BuildingBlock: EYOCIG_clean_linker_4, # of connection points: 2
#     Edge 31, Type (0, 0), BuildingBlock: EYOCIG_clean_linker_4, # of connection points: 2
#     Edge 32, Type (0, 0), BuildingBlock: EYOCIG_clean_linker_4, # of connection points: 2
#     Edge 33, Type (0, 0), BuildingBlock: EYOCIG_clean_linker_4, # of connection points: 2
#     Edge 34, Type (0, 0), BuildingBlock: EYOCIG_clean_linker_4, # of connection points: 2
#     Edge 35, Type (0, 0), BuildingBlock: EYOCIG_clean_linker_4, # of connection points: 2
# Relax obj value: 0.196
# Max RMSD: 0.255
# Mean RMSD: 0.228
data_MOF--net-sod--node1-QUQFOY_clean_sbu_1--edge1-EYOCIG_clean_linker_4
_symmetry_space_group_name_H-M    P1
_symmetry_Int_Tables_number       1
_symmetry_cell_setting            triclinic
loop_
_symmetry_equiv_pos_as_xyz
'x, y, z'
_cell_length_a     35.520645
_cell_length_b     35.382705
_cell_length_c     35.620719
_cell_angle_alpha  92.155358
_cell_angle_beta   89.82128
_cell_angle_gamma 94.050995
loop_
_atom_site_label
_atom_site_type_symbol
_atom_site_fract_x
_atom_site_fract_y
_atom_site_fract_z
_atom_type_partial_charge
O0 O 0.00779 0.24302 0.51563 0.0
Cd1 Cd 0.05933 0.27261 0.5218 0.0
Cd2 Cd 0.01604 0.31585 0.5637 0.0
O3 O 0.98838 0.26455 0.57064 0.0
O4 O 0.09614 0.23656 0.50129 0.0
O5 O 0.09332 0.25328 0.5617 0.0
C6 C 0.10723 0.23255 0.5352 0.0
C7 C 0.03209 0.35642 0.6134 0.0
C8 C 0.98462 0.24155 0.5427 0.0
C9 C 0.0361 0.34361 0.49006 0.0
O10 O 0.0092 0.34107 0.51351 0.0
O11 O 0.06397 0.32298 0.49259 0.0
O12 O 0.99739 0.35019 0.60321 0.0
O13 O 0.05791 0.33836 0.59637 0.0
O14 O 0.75435 0.07725 0.56985 0.0
Cd15 Cd 0.78261 0.07049 0.52004 0.0
Cd16 Cd 0.81933 0.02804 0.55737 0.0
O17 O 0.76607 0.01866 0.58126 0.0
O18 O 0.75095 0.09223 0.4827 0.0
O19 O 0.75873 0.03035 0.48499 0.0
C20 C 0.7423 0.05795 0.47078 0.0
C21 C 0.86052 0.9832 0.53802 0.0
C22 C 0.747 0.04734 0.58771 0.0
C23 C 0.85294 0.10207 0.54633 0.0
O24 O 0.84685 0.0792 0.57246 0.0
O25 O 0.83496 0.09731 0.51577 0.0
O26 O 0.8535 0.98959 0.57309 0.0
O27 O 0.84219 0.0003 0.51321 0.0
O28 O 0.08435 0.84183 0.484 0.0
Cd29 Cd 0.03185 0.81306 0.49024 0.0
Cd30 Cd 0.07027 0.77313 0.53221 0.0
O31 O 0.10101 0.82459 0.53976 0.0
O32 O 0.99569 0.84791 0.47077 0.0
O33 O -0.00021 0.83537 0.53121 0.0
C34 C 0.98574 0.85441 0.50505 0.0
C35 C 0.05539 0.73463 0.58199 0.0
C36 C 0.10638 0.84579 0.51207 0.0
C37 C 0.04882 0.73831 0.45964 0.0
O38 O 0.07644 0.74277 0.4822 0.0
O39 O 0.02218 0.76044 0.46223 0.0
O40 O 0.08962 0.74053 0.57064 0.0
O41 O 0.02914 0.75196 0.56631 0.0
O42 O 0.24714 0.00439 0.56369 0.0
Cd43 Cd 0.27738 0.05695 0.56553 0.0
Cd44 Cd 0.32244 0.01666 0.51894 0.0
O45 O 0.27193 0.9854 0.51001 0.0
O46 O 0.24134 0.09207 0.58938 0.0
O47 O 0.25784 0.09431 0.5295 0.0
C48 C 0.23709 0.10587 0.55686 0.0
C49 C 0.36128 0.03371 0.46938 0.0
C50 C 0.24686 0.98157 0.53526 0.0
C51 C 0.35184 0.03617 0.59504 0.0
O52 O 0.35087 0.01113 0.56855 0.0
O53 O 0.32821 0.06172 0.59612 0.0
O54 O 0.35658 -0.00104 0.47885 0.0
O55 O 0.3428 0.05903 0.48701 0.0
O56 O 0.50665 0.02089 0.23938 0.0
Cd57 Cd 0.52011 0.07238 0.26541 0.0
Cd58 Cd 0.56002 0.03464 0.30251 0.0
O59 O 0.56596 0.01139 0.24974 0.0
O60 O 0.50282 0.10965 0.23094 0.0
O61 O 0.56359 0.1024 0.24191 0.0
C62 C 0.53787 0.11787 0.22335 0.0
C63 C 0.60842 0.05123 0.34317 0.0
C64 C 0.53549 0.00296 0.23208 0.0
C65 C 0.49193 0.04989 0.33676 0.0
O66 O 0.51039 0.02133 0.3292 0.0
O67 O 0.49796 0.0798 0.31844 0.0
O68 O 0.59863 0.0162 0.33487 0.0
O69 O 0.59219 0.07759 0.32659 0.0
O70 O 0.01351 0.56502 0.33599 0.0
Cd71 Cd 0.01074 0.51211 0.30823 0.0
Cd72 Cd 0.05931 0.55722 0.25856 0.0
O73 O 0.06457 0.59021 0.30795 0.0
O74 O 0.98703 0.47607 0.34558 0.0
O75 O 0.04698 0.47597 0.32861 0.0
C76 C 0.01976 0.46333 0.34986 0.0
C77 C 0.11077 0.54904 0.21843 0.0
C78 C 0.0399 0.59111 0.33386 0.0
C79 C 0.98158 0.53014 0.23171 0.0
O80 O 0.00855 0.55559 0.23023 0.0
O81 O 0.97989 0.50621 0.25772 0.0
O82 O 0.09691 0.58149 0.22315 0.0
O83 O 0.09683 0.52125 0.23777 0.0
O84 O 0.51293 0.06414 0.83597 0.0
Cd85 Cd 0.5111 0.0116 0.80765 0.0
Cd86 Cd 0.55976 0.05742 0.75897 0.0
O87 O 0.56431 0.08986 0.80892 0.0
O88 O 0.48785 0.97487 0.84462 0.0
O89 O 0.54802 0.97619 0.82815 0.0
C90 C 0.5209 0.96296 0.84921 0.0
C91 C 0.61121 0.04902 0.7188 0.0
C92 C 0.53929 0.09032 0.83455 0.0
C93 C 0.48257 0.03028 0.73098 0.0
O94 O 0.50931 0.05603 0.73018 0.0
O95 O 0.48082 0.00597 0.75666 0.0
O96 O 0.59775 0.08164 0.72385 0.0
O97 O 0.59704 0.02124 0.73803 0.0
O98 O 0.00675 0.52021 0.73997 0.0
Cd99 Cd 0.01962 0.57187 0.76587 0.0
Cd100 Cd 0.0607 0.5348 0.80231 0.0
O101 O 0.06636 0.51153 0.7496 0.0
O102 O 0.00103 0.60862 0.73151 0.0
O103 O 0.06217 0.60268 0.7416 0.0
C104 C 0.03581 0.61744 0.72329 0.0
C105 C 0.10987 0.55207 0.84182 0.0
C106 C 0.03574 0.50264 0.73237 0.0
C107 C 0.99269 0.54865 0.8376 0.0
O108 O 0.01171 0.52055 0.82977 0.0
O109 O 0.99778 0.57863 0.8192 0.0
O110 O 0.10014 0.51694 0.83397 0.0
O111 O 0.09288 0.57817 0.82564 0.0
O112 O 0.347 0.57847 0.07237 0.0
Cd113 Cd 0.3189 0.52767 0.05727 0.0
Cd114 Cd 0.28254 0.57024 0.01983 0.0
O115 O 0.33506 0.59678 0.01577 0.0
O116 O 0.35295 0.48912 0.07292 0.0
O117 O 0.34159 0.4999 0.01306 0.0
C118 C 0.35997 0.48281 0.03784 0.0
C119 C 0.24321 0.55803 0.96971 0.0
C120 C 0.35347 0.60111 0.04611 0.0
C121 C 0.24676 0.54733 0.08769 0.0
O122 O 0.254 0.57704 0.06949 0.0
O123 O 0.26579 0.51859 0.08145 0.0
O124 O 0.25142 0.5922 0.98221 0.0
O125 O 0.25921 0.5303 0.98419 0.0
O126 O 0.58428 0.34161 0.98367 0.0
Cd127 Cd 0.53165 0.31297 0.99017 0.0
Cd128 Cd 0.57027 0.27345 0.03233 0.0
O129 O 0.60092 0.32483 0.03958 0.0
O130 O 0.49546 0.34778 0.97068 0.0
O131 O 0.49983 0.33559 0.03118 0.0
C132 C 0.48565 0.35447 0.00497 0.0
C133 C 0.55694 0.23531 0.08254 0.0
C134 C 0.60632 0.34577 0.01173 0.0
C135 C 0.54813 0.23769 0.96038 0.0
O136 O 0.57602 0.24259 0.98258 0.0
O137 O 0.52158 0.25994 0.9628 0.0
O138 O 0.59085 0.24133 0.07037 0.0
O139 O 0.53013 0.25228 0.06737 0.0
O140 O 0.74689 0.50394 0.06423 0.0
Cd141 Cd 0.77678 0.55662 0.06584 0.0
Cd142 Cd 0.82221 0.51635 0.0198 0.0
O143 O 0.77166 0.48534 0.01043 0.0
O144 O 0.74051 0.59145 0.08956 0.0
O145 O 0.75709 0.59369 0.02968 0.0
C146 C 0.73623 0.60513 0.057 0.0
C147 C 0.86207 0.53229 0.97063 0.0
C148 C 0.74666 0.48127 0.0357 0.0
C149 C 0.85071 0.53615 0.09616 0.0
O150 O 0.84983 0.5109 0.06987 0.0
O151 O 0.82728 0.56186 0.09677 0.0
O152 O 0.85669 0.49771 0.98044 0.0
O153 O 0.84366 0.55807 0.98763 0.0
O154 O 0.50873 0.74336 0.01468 0.0
Cd155 Cd 0.55997 0.77302 0.02196 0.0
Cd156 Cd 0.516 0.81588 0.06326 0.0
O157 O 0.48847 0.76426 0.06959 0.0
O158 O 0.59664 0.7369 0.0015 0.0
O159 O 0.5931 0.75283 0.06206 0.0
C160 C 0.60709 0.73225 0.03549 0.0
C161 C 0.53175 0.85655 0.113 0.0
C162 C 0.48542 0.74124 0.04159 0.0
C163 C 0.53743 0.84403 0.99004 0.0
O164 O 0.5101 0.84124 0.01299 0.0
O165 O 0.56532 0.8235 0.993 0.0
O166 O 0.4971 0.85029 0.10261 0.0
O167 O 0.55765 0.83832 0.09629 0.0
C168 C 0.0321 0.39125 0.43479 0.0
C169 C 0.03429 0.36939 0.45987 0.0
C170 C 0.02922 0.41617 0.40479 0.0
C171 C 0.026 0.43763 0.37947 0.0
C172 C 0.68822 0.05329 0.4213 0.0
C173 C 0.7131 0.05147 0.44363 0.0
C174 C 0.66008 0.05875 0.39503 0.0
C175 C 0.63647 0.05964 0.37121 0.0
C176 C 0.0433 0.64989 0.38266 0.0
C177 C 0.04138 0.62291 0.36061 0.0
C178 C 0.04574 0.6813 0.40884 0.0
C179 C 0.04719 0.7073 0.43203 0.0
C180 C 0.41146 0.04709 0.41655 0.0
C181 C 0.38807 0.04362 0.44081 0.0
C182 C 0.43971 0.04785 0.38892 0.0
C183 C 0.46371 0.04823 0.36517 0.0
C184 C 0.04603 0.66212 0.6664 0.0
C185 C 0.04418 0.64166 0.69265 0.0
C186 C 0.04566 0.68672 0.63628 0.0
C187 C 0.04745 0.70891 0.61147 0.0
C188 C 0.43039 0.0305 0.67765 0.0
C189 C 0.45362 0.02947 0.70241 0.0
C190 C 0.40311 0.03278 0.64879 0.0
C191 C 0.37955 0.03476 0.62452 0.0
C192 C 0.04151 0.41114 0.66399 0.0
C193 C 0.04133 0.38555 0.64105 0.0
C194 C 0.03679 0.44292 0.68751 0.0
C195 C 0.03377 0.47047 0.70745 0.0
C196 C 0.66439 0.04326 0.66702 0.0
C197 C 0.64023 0.04395 0.691 0.0
C198 C 0.69271 0.04468 0.63885 0.0
C199 C 0.71745 0.04612 0.61546 0.0
C200 C 0.43917 0.40832 0.01776 0.0
C201 C 0.46044 0.3835 0.0134 0.0
C202 C 0.41256 0.43586 0.02193 0.0
C203 C 0.3883 0.45756 0.0272 0.0
C204 C 0.40246 0.65947 0.04922 0.0
C205 C 0.38071 0.63219 0.0504 0.0
C206 C 0.43001 0.68893 0.04408 0.0
C207 C 0.45585 0.71218 0.04127 0.0
C208 C 0.66381 0.39745 0.01721 0.0
C209 C 0.63716 0.3745 0.01283 0.0
C210 C 0.69331 0.42575 0.02509 0.0
C211 C 0.71716 0.45139 0.03095 0.0
C212 C 0.68302 0.65309 0.0488 0.0
C213 C 0.70756 0.6313 0.05138 0.0
C214 C 0.6554 0.67997 0.04648 0.0
C215 C 0.63334 0.70416 0.0431 0.0
C216 C 0.53398 0.89158 0.93462 0.0
C217 C 0.53595 0.86976 0.95976 0.0
C218 C 0.53102 0.91634 0.90447 0.0
C219 C 0.52754 0.93757 0.879 0.0
C220 C 0.19095 0.55407 0.9184 0.0
C221 C 0.21503 0.55185 0.94151 0.0
C222 C 0.16295 0.55991 0.89212 0.0
C223 C 0.13869 0.56085 0.86897 0.0
C224 C 0.54182 0.14844 0.8842 0.0
C225 C 0.54026 0.12174 0.86178 0.0
C226 C 0.54427 0.17983 0.91046 0.0
C227 C 0.54619 0.20617 0.93329 0.0
C228 C 0.94137 0.54564 0.89068 0.0
C229 C 0.96499 0.54639 0.86653 0.0
C230 C 0.91318 0.54476 0.91838 0.0
C231 C 0.88943 0.54152 0.94234 0.0
C232 C 0.54938 0.16305 0.16715 0.0
C233 C 0.5472 0.14231 0.19315 0.0
C234 C 0.54876 0.18774 0.13719 0.0
C235 C 0.54992 0.20976 0.11227 0.0
C236 C 0.92886 0.5303 0.17899 0.0
C237 C 0.95229 0.52924 0.20353 0.0
C238 C 0.90154 0.53278 0.15025 0.0
C239 C 0.87814 0.53484 0.12587 0.0
C240 C 0.54106 0.91176 0.16315 0.0
C241 C 0.54087 0.88595 0.14044 0.0
C242 C 0.53645 0.94361 0.18666 0.0
C243 C 0.53349 0.97102 0.20682 0.0
C244 C 0.19278 0.54507 0.13908 0.0
C245 C 0.21737 0.54638 0.11556 0.0
C246 C 0.16443 0.54362 0.16717 0.0
C247 C 0.14007 0.54416 0.19094 0.0
C248 C 0.91292 0.93603 0.52214 0.0
C249 C 0.88875 0.95782 0.52742 0.0
C250 C 0.93941 0.90837 0.51793 0.0
C251 C 0.96061 0.88349 0.51353 0.0
C252 C 0.92717 0.1916 0.54532 0.0
C253 C 0.95392 0.21374 0.5424 0.0
C254 C 0.89953 0.16227 0.55042 0.0
C255 C 0.87886 0.13417 0.55118 0.0
C256 C 0.16373 0.89775 0.51741 0.0
C257 C 0.13717 0.87462 0.51328 0.0
C258 C 0.19326 0.92617 0.52492 0.0
C259 C 0.21724 0.95175 0.53061 0.0
C260 C 0.15639 0.18102 0.54629 0.0
C261 C 0.13396 0.20488 0.54282 0.0
C262 C 0.18412 0.1542 0.5487 0.0
C263 C 0.20855 0.13224 0.5513 0.0
loop_
_geom_bond_atom_site_label_1
_geom_bond_atom_site_label_2
_geom_bond_distance
_geom_bond_site_symmetry_2
_ccdc_geom_bond_type
O0 Cd1 2.223 . S
O0 C8 1.315 1_455 S
Cd1 O0 2.223 . S
Cd1 O4 2.297 . S
Cd1 O5 2.439 . S
Cd1 O11 2.240 . S
Cd2 O3 2.240 1_655 S
Cd2 O10 2.223 . S
Cd2 O12 2.297 1_655 S
Cd2 O13 2.439 1_655 S
O3 Cd2 2.240 1_455 S
O3 C8 1.280 1_455 S
O4 Cd1 2.297 . S
O4 C6 1.247 . S
O5 Cd1 2.439 . S
O5 C6 1.208 . S
C6 O4 1.247 . S
C6 O5 1.208 . S
C7 O12 1.247 . S
C7 O13 1.208 . S
C8 O0 1.315 1_655 S
C8 O3 1.280 1_655 S
C9 O10 1.315 1_455 S
C9 O11 1.279 . S
O10 Cd2 2.223 . S
O10 C9 1.315 1_655 S
O11 Cd1 2.240 . S
O11 C9 1.279 . S
O12 Cd2 2.297 1_455 S
O12 C7 1.247 . S
O13 Cd2 2.439 1_455 S
O13 C7 1.208 . S
O14 Cd15 2.223 . S
O14 C22 1.315 . S
Cd15 O14 2.223 . S
Cd15 O18 2.297 . S
Cd15 O19 2.439 . S
Cd15 O25 2.240 . S
Cd16 O17 2.240 . S
Cd16 O24 2.223 . S
Cd16 O26 2.308 . S
Cd16 O27 2.439 1_545 S
O17 Cd16 2.240 . S
O17 C22 1.279 . S
O18 Cd15 2.297 . S
O18 C20 1.247 . S
O19 Cd15 2.439 . S
O19 C20 1.208 . S
C20 O18 1.247 . S
C20 O19 1.208 . S
C21 O26 1.244 1_565 S
C21 O27 1.208 . S
C22 O14 1.315 . S
C22 O17 1.279 . S
C23 O24 1.315 . S
C23 O25 1.279 . S
O24 Cd16 2.223 . S
O24 C23 1.315 . S
O25 Cd15 2.240 . S
O25 C23 1.279 . S
O26 Cd16 2.308 . S
O26 C21 1.244 1_545 S
O27 Cd16 2.439 1_565 S
O27 C21 1.208 . S
O28 Cd29 2.223 . S
O28 C36 1.315 . S
Cd29 O28 2.223 . S
Cd29 O32 2.297 1_455 S
Cd29 O33 2.439 1_455 S
Cd29 O39 2.240 . S
Cd30 O31 2.240 . S
Cd30 O38 2.223 . S
Cd30 O40 2.297 . S
Cd30 O41 2.439 . S
O31 Cd30 2.240 . S
O31 C36 1.279 . S
O32 Cd29 2.297 1_655 S
O32 C34 1.247 . S
O33 Cd29 2.439 1_655 S
O33 C34 1.208 . S
C34 O32 1.247 . S
C34 O33 1.208 . S
C35 O40 1.247 . S
C35 O41 1.208 . S
C36 O28 1.315 . S
C36 O31 1.279 . S
C37 O38 1.315 . S
C37 O39 1.279 . S
O38 Cd30 2.223 . S
O38 C37 1.315 . S
O39 Cd29 2.240 . S
O39 C37 1.279 . S
O40 Cd30 2.297 . S
O40 C35 1.247 . S
O41 Cd30 2.439 . S
O41 C35 1.208 . S
O42 Cd43 2.223 . S
O42 C50 1.315 1_545 S
Cd43 O42 2.223 . S
Cd43 O46 2.297 . S
Cd43 O47 2.439 . S
Cd43 O53 2.240 . S
Cd44 O45 2.240 . S
Cd44 O52 2.223 1_545 S
Cd44 O54 2.297 . S
Cd44 O55 2.439 . S
O45 Cd44 2.240 . S
O45 C50 1.279 1_545 S
O46 Cd43 2.297 . S
O46 C48 1.247 . S
O47 Cd43 2.439 . S
O47 C48 1.208 . S
C48 O46 1.247 . S
C48 O47 1.208 . S
C49 O54 1.247 . S
C49 O55 1.208 . S
C50 O42 1.315 1_565 S
C50 O45 1.279 1_565 S
C51 O52 1.315 1_545 S
C51 O53 1.279 . S
O52 Cd44 2.223 1_565 S
O52 C51 1.315 1_565 S
O53 Cd43 2.240 . S
O53 C51 1.279 . S
O54 Cd44 2.297 . S
O54 C49 1.247 . S
O55 Cd44 2.439 . S
O55 C49 1.208 . S
O56 Cd57 2.223 . S
O56 C64 1.315 . S
Cd57 O56 2.223 . S
Cd57 O60 2.297 . S
Cd57 O61 2.439 . S
Cd57 O67 2.240 . S
Cd58 O59 2.240 . S
Cd58 O66 2.223 . S
Cd58 O68 2.297 . S
Cd58 O69 2.439 . S
O59 Cd58 2.240 . S
O59 C64 1.279 . S
O60 Cd57 2.297 . S
O60 C62 1.247 . S
O61 Cd57 2.439 . S
O61 C62 1.208 . S
C62 O60 1.247 . S
C62 O61 1.208 . S
C63 O68 1.247 . S
C63 O69 1.208 . S
C64 O56 1.315 . S
C64 O59 1.279 . S
C65 O66 1.315 . S
C65 O67 1.279 . S
O66 Cd58 2.223 . S
O66 C65 1.315 . S
O67 Cd57 2.240 . S
O67 C65 1.279 . S
O68 Cd58 2.297 . S
O68 C63 1.247 . S
O69 Cd58 2.439 . S
O69 C63 1.208 . S
O70 Cd71 2.223 . S
O70 C78 1.315 1_655 S
Cd71 O70 2.223 . S
Cd71 O74 2.297 1_655 S
Cd71 O75 2.439 1_655 S
Cd71 O81 2.240 1_655 S
Cd72 O73 2.240 . S
Cd72 O80 2.223 . S
Cd72 O82 2.297 . S
Cd72 O83 2.439 . S
O73 Cd72 2.240 . S
O73 C78 1.279 . S
O74 Cd71 2.297 1_455 S
O74 C76 1.247 . S
O75 Cd71 2.439 1_455 S
O75 C76 1.208 . S
C76 O74 1.247 . S
C76 O75 1.208 . S
C77 O82 1.247 . S
C77 O83 1.208 . S
C78 O70 1.315 1_455 S
C78 O73 1.279 . S
C79 O80 1.315 1_655 S
C79 O81 1.279 1_655 S
O80 Cd72 2.223 . S
O80 C79 1.315 1_455 S
O81 Cd71 2.240 1_455 S
O81 C79 1.279 1_455 S
O82 Cd72 2.297 . S
O82 C77 1.247 . S
O83 Cd72 2.439 . S
O83 C77 1.208 . S
O84 Cd85 2.223 . S
O84 C92 1.315 . S
Cd85 O84 2.223 . S
Cd85 O88 2.297 1_545 S
Cd85 O89 2.439 1_545 S
Cd85 O95 2.240 . S
Cd86 O87 2.240 . S
Cd86 O94 2.223 . S
Cd86 O96 2.297 . S
Cd86 O97 2.439 . S
O87 Cd86 2.240 . S
O87 C92 1.279 . S
O88 Cd85 2.297 1_565 S
O88 C90 1.247 . S
O89 Cd85 2.439 1_565 S
O89 C90 1.208 . S
C90 O88 1.247 . S
C90 O89 1.208 . S
C91 O96 1.247 . S
C91 O97 1.208 . S
C92 O84 1.315 . S
C92 O87 1.279 . S
C93 O94 1.315 . S
C93 O95 1.279 . S
O94 Cd86 2.223 . S
O94 C93 1.315 . S
O95 Cd85 2.240 . S
O95 C93 1.279 . S
O96 Cd86 2.297 . S
O96 C91 1.247 . S
O97 Cd86 2.439 . S
O97 C91 1.208 . S
O98 Cd99 2.223 1_655 S
O98 C106 1.315 1_655 S
Cd99 O98 2.223 1_455 S
Cd99 O102 2.297 . S
Cd99 O103 2.439 . S
Cd99 O109 2.240 . S
Cd100 O101 2.240 . S
Cd100 O108 2.223 . S
Cd100 O110 2.297 . S
Cd100 O111 2.439 . S
O101 Cd100 2.240 . S
O101 C106 1.279 . S
O102 Cd99 2.297 . S
O102 C104 1.247 . S
O103 Cd99 2.439 . S
O103 C104 1.208 . S
C104 O102 1.247 . S
C104 O103 1.208 . S
C105 O110 1.247 . S
C105 O111 1.208 . S
C106 O98 1.315 1_455 S
C106 O101 1.279 . S
C107 O108 1.310 1_655 S
C107 O109 1.277 1_655 S
O108 Cd100 2.223 . S
O108 C107 1.310 1_455 S
O109 Cd99 2.240 . S
O109 C107 1.277 1_455 S
O110 Cd100 2.297 . S
O110 C105 1.247 . S
O111 Cd100 2.439 . S
O111 C105 1.208 . S
O112 Cd113 2.223 . S
O112 C120 1.315 . S
Cd113 O112 2.223 . S
Cd113 O116 2.297 . S
Cd113 O117 2.439 . S
Cd113 O123 2.240 . S
Cd114 O115 2.240 . S
Cd114 O122 2.223 . S
Cd114 O124 2.297 1_554 S
Cd114 O125 2.439 1_554 S
O115 Cd114 2.240 . S
O115 C120 1.279 . S
O116 Cd113 2.297 . S
O116 C118 1.247 . S
O117 Cd113 2.439 . S
O117 C118 1.208 . S
C118 O116 1.247 . S
C118 O117 1.208 . S
C119 O124 1.247 . S
C119 O125 1.208 . S
C120 O112 1.315 . S
C120 O115 1.279 . S
C121 O122 1.315 . S
C121 O123 1.279 . S
O122 Cd114 2.223 . S
O122 C121 1.315 . S
O123 Cd113 2.240 . S
O123 C121 1.279 . S
O124 Cd114 2.297 1_556 S
O124 C119 1.247 . S
O125 Cd114 2.439 1_556 S
O125 C119 1.208 . S
O126 Cd127 2.223 . S
O126 C134 1.315 . S
Cd127 O126 2.223 . S
Cd127 O130 2.297 . S
Cd127 O131 2.439 1_556 S
Cd127 O137 2.240 . S
Cd128 O129 2.240 . S
Cd128 O136 2.223 1_554 S
Cd128 O138 2.297 . S
Cd128 O139 2.439 . S
O129 Cd128 2.240 . S
O129 C134 1.279 1_554 S
O130 Cd127 2.297 . S
O130 C132 1.247 1_556 S
O131 Cd127 2.439 1_554 S
O131 C132 1.208 . S
C132 O130 1.247 1_554 S
C132 O131 1.208 . S
C133 O138 1.247 . S
C133 O139 1.208 . S
C134 O126 1.315 . S
C134 O129 1.279 1_556 S
C135 O136 1.315 . S
C135 O137 1.279 . S
O136 Cd128 2.223 1_556 S
O136 C135 1.315 . S
O137 Cd127 2.240 . S
O137 C135 1.279 . S
O138 Cd128 2.297 . S
O138 C133 1.247 . S
O139 Cd128 2.439 . S
O139 C133 1.208 . S
O140 Cd141 2.223 . S
O140 C148 1.315 . S
Cd141 O140 2.223 . S
Cd141 O144 2.297 . S
Cd141 O145 2.439 . S
Cd141 O151 2.240 . S
Cd142 O143 2.240 . S
Cd142 O150 2.223 . S
Cd142 O152 2.297 1_554 S
Cd142 O153 2.439 1_554 S
O143 Cd142 2.240 . S
O143 C148 1.279 . S
O144 Cd141 2.297 . S
O144 C146 1.247 . S
O145 Cd141 2.439 . S
O145 C146 1.208 . S
C146 O144 1.247 . S
C146 O145 1.208 . S
C147 O152 1.247 . S
C147 O153 1.208 . S
C148 O140 1.315 . S
C148 O143 1.279 . S
C149 O150 1.315 . S
C149 O151 1.279 . S
O150 Cd142 2.223 . S
O150 C149 1.315 . S
O151 Cd141 2.240 . S
O151 C149 1.279 . S
O152 Cd142 2.297 1_556 S
O152 C147 1.247 . S
O153 Cd142 2.439 1_556 S
O153 C147 1.208 . S
O154 Cd155 2.227 . S
O154 C162 1.330 . S
Cd155 O154 2.227 . S
Cd155 O158 2.297 . S
Cd155 O159 2.439 . S
Cd155 O165 2.240 . S
Cd156 O157 2.240 . S
Cd156 O164 2.223 . S
Cd156 O166 2.297 . S
Cd156 O167 2.439 . S
O157 Cd156 2.240 . S
O157 C162 1.279 . S
O158 Cd155 2.297 . S
O158 C160 1.247 . S
O159 Cd155 2.439 . S
O159 C160 1.208 . S
C160 O158 1.247 . S
C160 O159 1.208 . S
C161 O166 1.247 . S
C161 O167 1.208 . S
C162 O154 1.330 . S
C162 O157 1.279 . S
C163 O164 1.315 . S
C163 O165 1.279 . S
O164 Cd156 2.223 . S
O164 C163 1.315 . S
O165 Cd155 2.240 . S
O165 C163 1.279 . S
O166 Cd156 2.297 . S
O166 C161 1.247 . S
O167 Cd156 2.439 . S
O167 C161 1.208 . S
C168 C169 1.170 . S
C168 C170 1.380 . S
C169 C168 1.170 . S
C170 C168 1.380 . S
C170 C171 1.170 . S
C171 C170 1.170 . S
C172 C173 1.170 . S
C172 C174 1.380 . S
C173 C172 1.170 . S
C174 C172 1.380 . S
C174 C175 1.170 . S
C175 C174 1.170 . S
C176 C177 1.170 . S
C176 C178 1.380 . S
C177 C176 1.170 . S
C178 C176 1.380 . S
C178 C179 1.170 . S
C179 C178 1.170 . S
C180 C181 1.170 . S
C180 C182 1.380 . S
C181 C180 1.170 . S
C182 C180 1.380 . S
C182 C183 1.170 . S
C183 C182 1.170 . S
C184 C185 1.170 . S
C184 C186 1.380 . S
C185 C184 1.170 . S
C186 C184 1.380 . S
C186 C187 1.170 . S
C187 C186 1.170 . S
C188 C189 1.170 . S
C188 C190 1.380 . S
C189 C188 1.170 . S
C190 C188 1.380 . S
C190 C191 1.170 . S
C191 C190 1.170 . S
C192 C193 1.170 . S
C192 C194 1.380 . S
C193 C192 1.170 . S
C194 C192 1.380 . S
C194 C195 1.170 . S
C195 C194 1.170 . S
C196 C197 1.170 . S
C196 C198 1.380 . S
C197 C196 1.170 . S
C198 C196 1.380 . S
C198 C199 1.170 . S
C199 C198 1.170 . S
C200 C201 1.170 . S
C200 C202 1.380 . S
C201 C200 1.170 . S
C202 C200 1.380 . S
C202 C203 1.170 . S
C203 C202 1.170 . S
C204 C205 1.170 . S
C204 C206 1.380 . S
C205 C204 1.170 . S
C206 C204 1.380 . S
C206 C207 1.170 . S
C207 C206 1.170 . S
C208 C209 1.170 . S
C208 C210 1.380 . S
C209 C208 1.170 . S
C210 C208 1.380 . S
C210 C211 1.170 . S
C211 C210 1.170 . S
C212 C213 1.170 . S
C212 C214 1.380 . S
C213 C212 1.170 . S
C214 C212 1.380 . S
C214 C215 1.170 . S
C215 C214 1.170 . S
C216 C217 1.170 . S
C216 C218 1.380 . S
C217 C216 1.170 . S
C218 C216 1.380 . S
C218 C219 1.170 . S
C219 C218 1.170 . S
C220 C221 1.170 . S
C220 C222 1.380 . S
C221 C220 1.170 . S
C222 C220 1.380 . S
C222 C223 1.170 . S
C223 C222 1.170 . S
C224 C225 1.170 . S
C224 C226 1.380 . S
C225 C224 1.170 . S
C226 C224 1.380 . S
C226 C227 1.170 . S
C227 C226 1.170 . S
C228 C229 1.170 . S
C228 C230 1.380 . S
C229 C228 1.170 . S
C230 C228 1.380 . S
C230 C231 1.170 . S
C231 C230 1.170 . S
C232 C233 1.170 . S
C232 C234 1.380 . S
C233 C232 1.170 . S
C234 C232 1.380 . S
C234 C235 1.170 . S
C235 C234 1.170 . S
C236 C237 1.170 . S
C236 C238 1.380 . S
C237 C236 1.170 . S
C238 C236 1.380 . S
C238 C239 1.170 . S
C239 C238 1.170 . S
C240 C241 1.170 . S
C240 C242 1.380 . S
C241 C240 1.170 . S
C242 C240 1.380 . S
C242 C243 1.170 . S
C243 C242 1.170 . S
C244 C245 1.170 . S
C244 C246 1.380 . S
C245 C244 1.170 . S
C246 C244 1.380 . S
C246 C247 1.170 . S
C247 C246 1.170 . S
C248 C249 1.170 . S
C248 C250 1.380 . S
C249 C248 1.170 . S
C250 C248 1.380 . S
C250 C251 1.170 . S
C251 C250 1.170 . S
C252 C253 1.170 . S
C252 C254 1.380 . S
C253 C252 1.170 . S
C254 C252 1.380 . S
C254 C255 1.170 . S
C255 C254 1.170 . S
C256 C257 1.170 . S
C256 C258 1.380 . S
C257 C256 1.170 . S
C258 C256 1.380 . S
C258 C259 1.170 . S
C259 C258 1.170 . S
C260 C261 1.170 . S
C260 C262 1.380 . S
C261 C260 1.170 . S
C262 C260 1.380 . S
C262 C263 1.170 . S
C263 C262 1.170 . S
C169 C9 1.880 . S
C171 C76 1.805 . S
C173 C20 1.148 . S
C175 C63 1.082 . S
C177 C78 1.876 . S
C179 C37 1.859 . S
C181 C49 1.445 . S
C183 C65 1.492 . S
C185 C104 1.231 . S
C187 C35 1.287 . S
C189 C93 2.019 . S
C191 C51 2.022 . S
C193 C7 1.291 . S
C195 C106 1.313 . S
C197 C91 1.631 . S
C199 C22 1.696 . S
C201 C132 1.406 . S
C203 C118 1.434 . S
C205 C120 1.415 . S
C207 C162 1.408 . S
C209 C134 1.716 1_554 S
C211 C148 1.712 . S
C213 C146 1.610 . S
C215 C160 1.635 . S
C217 C163 1.877 1_556 S
C219 C90 1.831 . S
C221 C119 1.154 . S
C223 C105 1.114 . S
C225 C92 1.865 . S
C227 C135 1.831 . S
C229 C107 1.480 . S
C231 C147 1.400 . S
C233 C62 1.291 . S
C235 C133 1.231 . S
C237 C79 2.040 . S
C239 C149 2.043 . S
C241 C161 1.282 . S
C243 C64 1.307 1_565 S
C245 C121 1.700 . S
C247 C77 1.623 . S
C249 C21 1.429 . S
C251 C34 1.409 . S
C253 C8 1.432 . S
C255 C23 1.447 . S
C257 C36 1.716 . S
C259 C50 1.707 . S
C261 C6 1.638 . S
C263 C48 1.619 . S
