# Generated by pormake.
# Topology wjq, (5)-cn, num edge types: 1
# Building blocks:
#     Node 0, Type 0, BuildingBlock: BEQFEK_clean_sbu_0, # of connection points: 5
#     Node 1, Type 0, BuildingBlock: BEQFEK_clean_sbu_0, # of connection points: 5
#     Node 2, Type 0, BuildingBlock: BEQFEK_clean_sbu_0, # of connection points: 5
#     Node 3, Type 0, BuildingBlock: BEQFEK_clean_sbu_0, # of connection points: 5
#     Node 4, Type 0, BuildingBlock: BEQFEK_clean_sbu_0, # of connection points: 5
#     Node 5, Type 0, BuildingBlock: BEQFEK_clean_sbu_0, # of connection points: 5
#     Node 6, Type 0, BuildingBlock: BEQFEK_clean_sbu_0, # of connection points: 5
#     Node 7, Type 0, BuildingBlock: BEQFEK_clean_sbu_0, # of connection points: 5
#     Node 8, Type 0, BuildingBlock: BEQFEK_clean_sbu_0, # of connection points: 5
#     Node 9, Type 0, BuildingBlock: BEQFEK_clean_sbu_0, # of connection points: 5
#     Node 10, Type 0, BuildingBlock: BEQFEK_clean_sbu_0, # of connection points: 5
#     Node 11, Type 0, BuildingBlock: BEQFEK_clean_sbu_0, # of connection points: 5
#     Edge 12, Type (0, 0), BuildingBlock: XUDNAN_clean_linker_2, # of connection points: 2
#     Edge 13, Type (0, 0), BuildingBlock: XUDNAN_clean_linker_2, # of connection points: 2
#     Edge 14, Type (0, 0), BuildingBlock: XUDNAN_clean_linker_2, # of connection points: 2
#     Edge 15, Type (0, 0), BuildingBlock: XUDNAN_clean_linker_2, # of connection points: 2
#     Edge 16, Type (0, 0), BuildingBlock: XUDNAN_clean_linker_2, # of connection points: 2
#     Edge 17, Type (0, 0), BuildingBlock: XUDNAN_clean_linker_2, # of connection points: 2
#     Edge 18, Type (0, 0), BuildingBlock: XUDNAN_clean_linker_2, # of connection points: 2
#     Edge 19, Type (0, 0), BuildingBlock: XUDNAN_clean_linker_2, # of connection points: 2
#     Edge 20, Type (0, 0), BuildingBlock: XUDNAN_clean_linker_2, # of connection points: 2
#     Edge 21, Type (0, 0), BuildingBlock: XUDNAN_clean_linker_2, # of connection points: 2
#     Edge 22, Type (0, 0), BuildingBlock: XUDNAN_clean_linker_2, # of connection points: 2
#     Edge 23, Type (0, 0), BuildingBlock: XUDNAN_clean_linker_2, # of connection points: 2
#     Edge 24, Type (0, 0), BuildingBlock: XUDNAN_clean_linker_2, # of connection points: 2
#     Edge 25, Type (0, 0), BuildingBlock: XUDNAN_clean_linker_2, # of connection points: 2
#     Edge 26, Type (0, 0), BuildingBlock: XUDNAN_clean_linker_2, # of connection points: 2
#     Edge 27, Type (0, 0), BuildingBlock: XUDNAN_clean_linker_2, # of connection points: 2
#     Edge 28, Type (0, 0), BuildingBlock: XUDNAN_clean_linker_2, # of connection points: 2
#     Edge 29, Type (0, 0), BuildingBlock: XUDNAN_clean_linker_2, # of connection points: 2
#     Edge 30, Type (0, 0), BuildingBlock: XUDNAN_clean_linker_2, # of connection points: 2
#     Edge 31, Type (0, 0), BuildingBlock: XUDNAN_clean_linker_2, # of connection points: 2
#     Edge 32, Type (0, 0), BuildingBlock: XUDNAN_clean_linker_2, # of connection points: 2
#     Edge 33, Type (0, 0), BuildingBlock: XUDNAN_clean_linker_2, # of connection points: 2
#     Edge 34, Type (0, 0), BuildingBlock: XUDNAN_clean_linker_2, # of connection points: 2
#     Edge 35, Type (0, 0), BuildingBlock: XUDNAN_clean_linker_2, # of connection points: 2
#     Edge 36, Type (0, 0), BuildingBlock: XUDNAN_clean_linker_2, # of connection points: 2
#     Edge 37, Type (0, 0), BuildingBlock: XUDNAN_clean_linker_2, # of connection points: 2
#     Edge 38, Type (0, 0), BuildingBlock: XUDNAN_clean_linker_2, # of connection points: 2
#     Edge 39, Type (0, 0), BuildingBlock: XUDNAN_clean_linker_2, # of connection points: 2
#     Edge 40, Type (0, 0), BuildingBlock: XUDNAN_clean_linker_2, # of connection points: 2
#     Edge 41, Type (0, 0), BuildingBlock: XUDNAN_clean_linker_2, # of connection points: 2
# Relax obj value: 0.370
# Max RMSD: 0.176
# Mean RMSD: 0.176
data_MOF--net-wjq--node1-BEQFEK_clean_sbu_0--edge1-XUDNAN_clean_linker_2
_symmetry_space_group_name_H-M    P1
_symmetry_Int_Tables_number       1
_symmetry_cell_setting            triclinic
loop_
_symmetry_equiv_pos_as_xyz
'x, y, z'
_cell_length_a     35.181598
_cell_length_b     35.119602
_cell_length_c     74.939876
_cell_angle_alpha  90.072026
_cell_angle_beta   90.107692
_cell_angle_gamma 120.15385
loop_
_atom_site_label
_atom_site_type_symbol
_atom_site_fract_x
_atom_site_fract_y
_atom_site_fract_z
_atom_type_partial_charge
Co0 Co 0.21523 0.12179 0.08125 0.0
Co1 Co 0.29934 0.20772 0.07016 0.0
C2 C 0.21049 0.19193 0.05938 0.0
O3 O 0.1932 0.15492 0.06723 0.0
O4 O 0.25197 0.21762 0.05976 0.0
C5 C 0.14574 0.09161 0.10402 0.0
O6 O 0.16254 0.13441 0.10544 0.0
C7 C 0.35966 0.30278 0.06641 0.0
C8 C 0.42499 0.30859 0.0649 0.0
C9 C 0.4041 0.33316 0.06463 0.0
N10 N 0.35431 0.2621 0.06742 0.0
N11 N 0.3936 0.26585 0.06659 0.0
C12 C 0.32311 0.31254 0.06847 0.0
H13 H 0.29823 0.289 0.07794 0.0
H14 H 0.33562 0.34665 0.07336 0.0
H15 H 0.30708 0.30883 0.05531 0.0
C16 C 0.25959 0.14297 0.11579 0.0
N17 N 0.25795 0.15325 0.09867 0.0
N18 N 0.29086 0.19278 0.09531 0.0
C19 C 0.31219 0.21049 0.11096 0.0
C20 C 0.29282 0.17911 0.12454 0.0
C21 C 0.2308 0.0984 0.12381 0.0
H22 H 0.21943 0.07238 0.11344 0.0
H23 H 0.202 0.09734 0.1303 0.0
H24 H 0.24909 0.09176 0.13429 0.0
O25 O 0.23858 0.0968 0.06498 0.0
O26 O 0.29865 0.15704 0.05537 0.0
H27 H 0.37839 0.26025 0.10578 0.0
H28 H 0.35787 0.26548 0.12723 0.0
C29 C 0.34926 0.25672 0.11297 0.0
H30 H 0.34011 0.27966 0.10674 0.0
H31 H 0.39902 0.23927 0.06722 0.0
O32 O 0.16341 0.07668 0.09347 0.0
C33 C 0.27244 0.11504 0.05512 0.0
Co34 Co 0.07575 0.21608 0.41186 0.0
Co35 Co 0.08469 0.30639 0.40341 0.0
C36 C 0.0103 0.22212 0.38792 0.0
O37 O 0.02616 0.20112 0.39564 0.0
O38 O 0.02823 0.26369 0.38997 0.0
C39 C 0.02458 0.14467 0.43174 0.0
O40 O 0.00316 0.16638 0.43206 0.0
C41 C 0.05423 0.36972 0.40531 0.0
C42 C 0.11438 0.43439 0.40209 0.0
C43 C 0.06957 0.41478 0.40521 0.0
N44 N 0.08832 0.36311 0.40264 0.0
N45 N 0.12422 0.40194 0.40064 0.0
C46 C 0.00759 0.33282 0.40671 0.0
H47 H 0.00544 0.30842 0.41665 0.0
H48 H 0.98436 0.3442 0.41015 0.0
H49 H -0.00272 0.31586 0.39362 0.0
C50 C 0.09545 0.25152 0.44751 0.0
N51 N 0.08521 0.25479 0.43058 0.0
N52 N 0.08415 0.29125 0.42843 0.0
C53 C 0.09008 0.31066 0.44477 0.0
C54 C 0.09682 0.28534 0.45753 0.0
C55 C 0.11074 0.22057 0.45347 0.0
H56 H 0.1253 0.21204 0.44212 0.0
H57 H 0.08269 0.18995 0.45882 0.0
H58 H 0.13577 0.23577 0.46421 0.0
O59 O 0.12876 0.24064 0.39846 0.0
O60 O 0.13835 0.3065 0.391 0.0
H61 H 0.11666 0.37944 0.44025 0.0
H62 H 0.09411 0.36138 0.46239 0.0
C63 C 0.08984 0.35252 0.44802 0.0
H64 H 0.05831 0.3488 0.44322 0.0
H65 H 0.15551 0.40636 0.39858 0.0
O66 O 0.05996 0.15997 0.42283 0.0
C67 C 0.15088 0.27768 0.39077 0.0
Co68 Co 0.8632 0.08785 0.74836 0.0
Co69 Co 0.77743 0.08677 0.73723 0.0
C70 C 0.79612 0.01605 0.72456 0.0
O71 O 0.83241 0.03484 0.73298 0.0
O72 O 0.77012 0.03141 0.7253 0.0
C73 C 0.89652 0.04991 0.77087 0.0
O74 O 0.85415 0.02277 0.77288 0.0
C75 C 0.68195 0.04966 0.73301 0.0
C76 C 0.67456 0.10841 0.73237 0.0
C77 C 0.65078 0.06279 0.73157 0.0
N78 N 0.7222 0.0857 0.73436 0.0
N79 N 0.71748 0.12074 0.734 0.0
C80 C 0.67341 0.00358 0.7347 0.0
H81 H 0.69799 0.00281 0.74376 0.0
H82 H 0.63988 0.98122 0.73989 0.0
H83 H 0.67645 0.99165 0.72136 0.0
C84 C 0.84093 0.10793 0.78317 0.0
N85 N 0.82959 0.0944 0.76621 0.0
N86 N 0.7913 0.09046 0.76253 0.0
C87 C 0.77542 0.09835 0.77776 0.0
C88 C 0.80642 0.10935 0.79152 0.0
C89 C 0.88736 0.12859 0.78993 0.0
H90 H 0.91091 0.14239 0.77871 0.0
H91 H 0.89226 0.10353 0.79688 0.0
H92 H 0.89479 0.15566 0.79948 0.0
O93 O 0.88791 0.13977 0.73366 0.0
O94 O 0.82797 0.14048 0.72421 0.0
H95 H 0.73596 0.12821 0.77442 0.0
H96 H 0.71965 0.09013 0.79286 0.0
C97 C 0.73207 0.09638 0.77896 0.0
H98 H 0.70774 0.06991 0.77016 0.0
H99 H 0.7435 0.15309 0.73502 0.0
O100 O 0.90944 0.08202 0.76015 0.0
C101 C 0.86992 0.15705 0.72462 0.0
Co102 Co 0.78314 0.84293 0.09025 0.0
Co103 Co 0.69474 0.77338 0.0732 0.0
C104 C 0.78196 0.78034 0.06295 0.0
O105 O 0.80233 0.81222 0.07373 0.0
O106 O 0.7401 0.76071 0.06169 0.0
C107 C 0.85921 0.86873 0.1104 0.0
O108 O 0.85034 0.82854 0.10662 0.0
C109 C 0.62269 0.68193 0.06891 0.0
C110 C 0.57064 0.69042 0.05643 0.0
C111 C 0.5797 0.65827 0.06232 0.0
N112 N 0.63762 0.72532 0.06694 0.0
N113 N 0.60625 0.73013 0.05952 0.0
C114 C 0.65019 0.6644 0.07653 0.0
H115 H 0.68504 0.69076 0.07765 0.0
H116 H 0.63841 0.65165 0.09015 0.0
H117 H 0.64767 0.63725 0.06808 0.0
C118 C 0.73223 0.81257 0.1233 0.0
N119 N 0.73678 0.8068 0.10581 0.0
N120 N 0.69811 0.77948 0.09889 0.0
C121 C 0.66734 0.7679 0.11184 0.0
C122 C 0.68802 0.78896 0.12777 0.0
C123 C 0.76945 0.84242 0.13538 0.0
H124 H 0.78308 0.87708 0.13109 0.0
H125 H 0.7956 0.83376 0.13456 0.0
H126 H 0.75914 0.83915 0.14953 0.0
O127 O 0.76636 0.87897 0.07567 0.0
O128 O 0.70374 0.83035 0.0625 0.0
H129 H 0.6112 0.75705 0.09665 0.0
H130 H 0.59997 0.7433 0.12008 0.0
C131 C 0.61893 0.74279 0.10836 0.0
H132 H 0.60883 0.70816 0.10508 0.0
H133 H 0.60925 0.76051 0.05646 0.0
O134 O 0.83439 0.88241 0.10451 0.0
C135 C 0.73461 0.87012 0.06505 0.0
Co136 Co 0.89775 0.77756 0.41163 0.0
Co137 Co 0.90378 0.69433 0.40404 0.0
C138 C 0.9771 0.78221 0.39304 0.0
O139 O 0.95459 0.7984 0.3992 0.0
O140 O 0.96308 0.74102 0.39441 0.0
C141 C 0.93501 0.85035 0.43271 0.0
O142 O 0.96339 0.83667 0.43443 0.0
C143 C 0.93317 0.62851 0.40497 0.0
C144 C 0.86962 0.56621 0.40531 0.0
C145 C 0.91465 0.58307 0.40609 0.0
N146 N 0.90054 0.63792 0.4035 0.0
N147 N 0.8627 0.60041 0.40354 0.0
C148 C 0.98066 0.66257 0.40706 0.0
H149 H 0.98392 0.69131 0.41458 0.0
H150 H -0.00092 0.64897 0.41404 0.0
H151 H 0.9952 0.67407 0.39364 0.0
C152 C 0.87131 0.73847 0.4466 0.0
N153 N 0.88521 0.73748 0.43007 0.0
N154 N 0.89389 0.70547 0.42862 0.0
C155 C 0.88926 0.68726 0.4451 0.0
C156 C 0.8752 0.70829 0.45719 0.0
C157 C 0.85019 0.76484 0.4518 0.0
H158 H 0.8351 0.77107 0.43997 0.0
H159 H 0.87502 0.79683 0.4576 0.0
H160 H 0.82447 0.74706 0.46203 0.0
O161 O 0.85173 0.75245 0.39441 0.0
O162 O 0.85556 0.69282 0.38709 0.0
H163 H 0.87266 0.62003 0.44363 0.0
H164 H 0.90139 0.64785 0.46384 0.0
C165 C 0.89916 0.65154 0.44923 0.0
H166 H 0.93042 0.65882 0.44275 0.0
H167 H 0.83203 0.59825 0.40301 0.0
O168 O 0.90207 0.82979 0.42244 0.0
C169 C 0.8388 0.71782 0.38518 0.0
Co170 Co 0.14771 0.93916 0.75951 0.0
Co171 Co 0.21177 0.91557 0.74076 0.0
C172 C 0.20764 0.99794 0.73104 0.0
O173 O 0.1774 0.98778 0.74242 0.0
O174 O 0.22531 0.97407 0.72918 0.0
C175 C 0.12512 0.99286 0.77932 0.0
O176 O 0.16441 0.02397 0.7744 0.0
C177 C 0.30229 0.93362 0.73616 0.0
C178 C 0.29312 0.87355 0.7229 0.0
C179 C 0.32564 0.91434 0.72925 0.0
N180 N 0.25887 0.90558 0.73392 0.0
N181 N 0.25364 0.86966 0.72602 0.0
C182 C 0.32003 0.97812 0.74448 0.0
H183 H 0.29364 0.98624 0.74629 0.0
H184 H 0.33364 0.97822 0.75786 0.0
H185 H 0.34647 0.00361 0.73606 0.0
C186 C 0.18136 0.92015 0.79171 0.0
N187 N 0.18533 0.92944 0.77416 0.0
N188 N 0.20912 0.91471 0.76661 0.0
C189 C 0.21982 0.89399 0.77923 0.0
C190 C 0.20205 0.89635 0.7956 0.0
C191 C 0.15503 0.93077 0.80436 0.0
H192 H 0.11951 0.90971 0.80131 0.0
H193 H 0.16433 0.96572 0.80278 0.0
H194 H 0.16106 0.92572 0.81846 0.0
O195 O 0.10839 0.88418 0.74642 0.0
O196 O 0.15243 0.86732 0.73126 0.0
H197 H 0.22401 0.84569 0.76324 0.0
H198 H 0.23794 0.84554 0.78655 0.0
C199 C 0.2403 0.86661 0.77509 0.0
H200 H 0.27545 0.8887 0.77177 0.0
H201 H 0.22317 0.8426 0.7227 0.0
O202 O 0.11111 0.95342 0.7744 0.0
C203 C 0.11385 0.85937 0.73555 0.0
Co204 Co 0.86978 0.77677 0.62977 0.0
Co205 Co 0.77982 0.69545 0.63933 0.0
C206 C 0.79902 0.78625 0.64906 0.0
O207 O 0.83719 0.80176 0.6424 0.0
O208 O 0.77155 0.74507 0.64829 0.0
C209 C 0.90729 0.84756 0.60767 0.0
O210 O 0.86551 0.83543 0.60606 0.0
C211 C 0.68329 0.63693 0.63988 0.0
C212 C 0.67548 0.57057 0.63921 0.0
C213 C 0.6518 0.59237 0.63871 0.0
N214 N 0.72356 0.64122 0.64068 0.0
N215 N 0.71852 0.60129 0.64042 0.0
C216 C 0.67549 0.67501 0.64123 0.0
H217 H 0.69121 0.69367 0.65361 0.0
H218 H 0.69097 0.69735 0.62971 0.0
H219 H 0.64012 0.66449 0.64192 0.0
C220 C 0.85155 0.73342 0.59522 0.0
N221 N 0.83935 0.73481 0.61205 0.0
N222 N 0.79855 0.70361 0.61449 0.0
C223 C 0.78216 0.684 0.5984 0.0
C224 C 0.8156 0.70265 0.58555 0.0
C225 C 0.89782 0.75959 0.58848 0.0
H226 H 0.92164 0.76768 0.59956 0.0
H227 H 0.90317 0.79046 0.58222 0.0
H228 H 0.90388 0.74064 0.57811 0.0
O229 O 0.89019 0.75163 0.64708 0.0
O230 O 0.82701 0.6942 0.65617 0.0
H231 H 0.7286 0.61857 0.60164 0.0
H232 H 0.72782 0.64392 0.58076 0.0
C233 C 0.73523 0.64978 0.59524 0.0
H234 H 0.71341 0.66021 0.60156 0.0
H235 H 0.74454 0.59502 0.64052 0.0
O236 O 0.91863 0.8267 0.61818 0.0
C237 C 0.86919 0.71862 0.65721 0.0
Co238 Co 0.06472 0.84808 0.95283 0.0
Co239 Co 0.0799 0.77523 0.9688 0.0
C240 C 0.00259 0.78519 0.98013 0.0
O241 O 0.01546 0.81829 0.96998 0.0
O242 O 0.02325 0.76405 0.98066 0.0
C243 C 0.01455 0.8688 0.93077 0.0
O244 O 0.98937 0.82573 0.93117 0.0
C245 C 0.05021 0.68281 0.9749 0.0
C246 C 0.11065 0.68069 0.98058 0.0
C247 C 0.06542 0.65427 0.97895 0.0
N248 N 0.08453 0.72417 0.97433 0.0
N249 N 0.1207 0.72274 0.97772 0.0
C250 C 0.00406 0.67069 0.9703 0.0
H251 H 0.00411 0.69439 0.96051 0.0
H252 H 0.9856 0.63683 0.96472 0.0
H253 H 0.98717 0.67201 0.98257 0.0
C254 C 0.08319 0.81753 0.91922 0.0
N255 N 0.07272 0.81143 0.9367 0.0
N256 N 0.08034 0.78106 0.94311 0.0
C257 C 0.09564 0.76654 0.92968 0.0
C258 C 0.09748 0.78889 0.91401 0.0
C259 C 0.08851 0.8562 0.90866 0.0
H260 H 0.1024 0.88595 0.91722 0.0
H261 H 0.05593 0.849 0.90358 0.0
H262 H 0.11066 0.86351 0.89708 0.0
O263 O 0.11974 0.88272 0.96614 0.0
O264 O 0.13066 0.83196 0.97934 0.0
H265 H 0.14125 0.75036 0.94121 0.0
H266 H 0.12181 0.72692 0.91925 0.0
C267 C 0.11234 0.73527 0.93216 0.0
H268 H 0.08649 0.70466 0.9385 0.0
H269 H 0.15221 0.75033 0.97797 0.0
O270 O 0.05058 0.88686 0.93938 0.0
C271 C 0.14208 0.87231 0.97635 0.0
Co272 Co 0.21124 0.09146 0.2991 0.0
Co273 Co 0.29687 0.08801 0.30475 0.0
C274 C 0.21034 0.01824 0.32032 0.0
O275 O 0.19218 0.03841 0.31374 0.0
O276 O 0.25114 0.03254 0.31773 0.0
C277 C 0.13744 0.05114 0.27914 0.0
O278 O 0.15395 0.02508 0.27732 0.0
C279 C 0.35554 0.05073 0.30639 0.0
C280 C 0.42174 0.10919 0.30427 0.0
C281 C 0.39999 0.06384 0.30636 0.0
N282 N 0.3512 0.08657 0.30473 0.0
N283 N 0.391 0.12141 0.30334 0.0
C284 C 0.31759 0.00455 0.30672 0.0
H285 H 0.29051 0.00183 0.29819 0.0
H286 H 0.32749 0.98087 0.30194 0.0
H287 H 0.30537 0.99594 0.3206 0.0
C288 C 0.24385 0.11198 0.26316 0.0
N289 N 0.2469 0.0984 0.2795 0.0
N290 N 0.28021 0.09156 0.28029 0.0
C291 C 0.2971 0.09683 0.26352 0.0
C292 C 0.27367 0.1092 0.25192 0.0
C293 C 0.21965 0.13629 0.25945 0.0
H294 H 0.21608 0.15134 0.2719 0.0
H295 H 0.18644 0.11346 0.25407 0.0
H296 H 0.23755 0.16273 0.24948 0.0
O297 O 0.24189 0.1429 0.31358 0.0
O298 O 0.30477 0.14327 0.31868 0.0
H299 H 0.36603 0.12367 0.26017 0.0
H300 H 0.3326 0.07984 0.24484 0.0
C301 C 0.33534 0.09138 0.25883 0.0
H302 H 0.33727 0.0677 0.26804 0.0
H303 H 0.39724 0.15359 0.30187 0.0
O304 O 0.15675 0.08453 0.28932 0.0
C305 C 0.27994 0.16024 0.32052 0.0
Co306 Co 0.13111 0.21099 0.62906 0.0
Co307 Co 0.21076 0.3028 0.63689 0.0
C308 C 0.20571 0.22171 0.65251 0.0
O309 O 0.16824 0.19973 0.64525 0.0
O310 O 0.22895 0.26317 0.65002 0.0
C311 C 0.11394 0.13989 0.60915 0.0
O312 O 0.1571 0.16292 0.60878 0.0
C313 C 0.30309 0.37481 0.63651 0.0
C314 C 0.29649 0.43401 0.63744 0.0
C315 C 0.32739 0.42059 0.63634 0.0
N316 N 0.26007 0.36196 0.63776 0.0
N317 N 0.25644 0.3976 0.63842 0.0
C318 C 0.31987 0.34365 0.63372 0.0
H319 H 0.29419 0.31279 0.62736 0.0
H320 H 0.34982 0.35884 0.6253 0.0
H321 H 0.32831 0.3353 0.64687 0.0
C322 C 0.14275 0.24508 0.5936 0.0
N323 N 0.15829 0.2495 0.61023 0.0
N324 N 0.1952 0.28689 0.61193 0.0
C325 C 0.20638 0.30597 0.59548 0.0
C326 C 0.17344 0.27923 0.58313 0.0
C327 C 0.09557 0.21356 0.58879 0.0
H328 H 0.07441 0.20555 0.60076 0.0
H329 H 0.09215 0.1826 0.58339 0.0
H330 H 0.08376 0.22795 0.57851 0.0
O331 O 0.10042 0.23297 0.64255 0.0
O332 O 0.15627 0.29925 0.64997 0.0
H333 H 0.24125 0.37612 0.59632 0.0
H334 H 0.25462 0.35318 0.57737 0.0
C335 C 0.24674 0.34915 0.59182 0.0
H336 H 0.27489 0.35163 0.59948 0.0
H337 H 0.22655 0.39706 0.6391 0.0
O338 O 0.09293 0.15395 0.61819 0.0
C339 C 0.11509 0.26976 0.65046 0.0
Co340 Co 0.9074 0.12383 0.96085 0.0
Co341 Co 0.90941 0.20998 0.9725 0.0
C342 C 0.98274 0.19402 0.98272 0.0
O343 O 0.96266 0.15688 0.97487 0.0
O344 O 0.96736 0.22007 0.98241 0.0
C345 C 0.94429 0.08828 0.93854 0.0
O346 O 0.97534 0.12984 0.93775 0.0
C347 C 0.93519 0.30518 0.97631 0.0
C348 C 0.87031 0.29822 0.98156 0.0
C349 C 0.91446 0.32947 0.97975 0.0
N350 N 0.90453 0.26188 0.9761 0.0
N351 N 0.86588 0.25823 0.97917 0.0
C352 C 0.98333 0.32267 0.97372 0.0
H353 H 0.9918 0.29666 0.97563 0.0
H354 H 0.99239 0.33519 0.95989 0.0
H355 H 0.00278 0.35019 0.98314 0.0
C356 C 0.88227 0.1444 0.92672 0.0
N357 N 0.8971 0.15607 0.94352 0.0
N358 N 0.90114 0.1944 0.94734 0.0
C359 C 0.89164 0.20985 0.93236 0.0
C360 C 0.87964 0.17859 0.91862 0.0
C361 C 0.86285 0.09812 0.91985 0.0
H362 H 0.84923 0.07435 0.93103 0.0
H363 H 0.88865 0.09414 0.91309 0.0
H364 H 0.83591 0.09009 0.91018 0.0
O365 O 0.85898 0.09878 0.97736 0.0
O366 O 0.86104 0.1596 0.98744 0.0
H367 H 0.86259 0.24982 0.93645 0.0
H368 H 0.89878 0.26553 0.91739 0.0
C369 C 0.89379 0.25339 0.93134 0.0
H370 H 0.9211 0.27783 0.93977 0.0
H371 H 0.83639 0.22827 0.97975 0.0
O372 O 0.91123 0.07703 0.9485 0.0
C373 C 0.84469 0.11769 0.98753 0.0
Co374 Co 0.77908 0.93387 0.28344 0.0
Co375 Co 0.69178 0.91633 0.30077 0.0
C376 C 0.77939 0.99744 0.31022 0.0
O377 O 0.79862 0.98484 0.29944 0.0
O378 O 0.73766 0.97525 0.31194 0.0
C379 C 0.85123 0.9855 0.26193 0.0
O380 O 0.83825 0.01419 0.26459 0.0
C381 C 0.61997 0.93605 0.3051 0.0
C382 C 0.56778 0.87538 0.31751 0.0
C383 C 0.57698 0.91662 0.31155 0.0
N384 N 0.63481 0.90756 0.30714 0.0
N385 N 0.60332 0.87131 0.31454 0.0
C386 C 0.64739 0.98121 0.29749 0.0
H387 H 0.68241 0.99038 0.2968 0.0
H388 H 0.63618 0.98171 0.28369 0.0
H389 H 0.64402 0.00573 0.30565 0.0
C390 C 0.72684 0.91089 0.25066 0.0
N391 N 0.73218 0.92223 0.26806 0.0
N392 N 0.69424 0.91305 0.27499 0.0
C393 C 0.66317 0.89502 0.262 0.0
C394 C 0.68301 0.89363 0.24605 0.0
C395 C 0.7611 0.90845 0.23962 0.0
H396 H 0.77646 0.89298 0.24747 0.0
H397 H 0.78686 0.94222 0.23588 0.0
H398 H 0.74737 0.88895 0.22723 0.0
O399 O 0.76342 0.88178 0.29821 0.0
O400 O 0.70131 0.86811 0.31154 0.0
H401 H 0.60461 0.85104 0.27617 0.0
H402 H 0.59546 0.85937 0.25302 0.0
C403 C 0.61499 0.87543 0.26521 0.0
H404 H 0.60835 0.90178 0.26946 0.0
H405 H 0.60614 0.84387 0.31762 0.0
O406 O 0.83035 0.94769 0.26904 0.0
C407 C 0.73201 0.85909 0.30896 0.0
H408 H 0.57765 0.58785 0.08114 0.0
H409 H 0.50987 0.61747 0.03967 0.0
H410 H 0.45773 0.53829 0.03601 0.0
H411 H 0.5689 0.49171 0.05921 0.0
H412 H 0.56144 0.46235 0.07981 0.0
H413 H 0.59294 0.52164 0.07959 0.0
H414 H 0.54247 0.52445 0.10404 0.0
H415 H 0.51065 0.46519 0.10428 0.0
H416 H 0.48392 0.49677 0.10033 0.0
H417 H 0.41222 0.45597 0.0369 0.0
H418 H 0.37799 0.37582 0.04172 0.0
H419 H 0.47789 0.39899 0.08108 0.0
C420 C 0.55293 0.57828 0.07092 0.0
C421 C 0.549 0.60974 0.06045 0.0
C422 C 0.51405 0.59449 0.04789 0.0
C423 C 0.48417 0.54942 0.04565 0.0
C424 C 0.48952 0.51954 0.05599 0.0
C425 C 0.52314 0.53326 0.0683 0.0
C426 C 0.52172 0.49415 0.07759 0.0
C427 C 0.56375 0.49236 0.07382 0.0
C428 C 0.51424 0.49522 0.09775 0.0
C429 C 0.48201 0.45636 0.06856 0.0
C430 C 0.46374 0.47186 0.05625 0.0
C431 C 0.42625 0.44346 0.04649 0.0
C432 C 0.40688 0.39802 0.04939 0.0
C433 C 0.42507 0.38133 0.06188 0.0
C434 C 0.4634 0.41094 0.07143 0.0
H435 H 0.07401 0.48542 0.3874 0.0
H436 H 0.01157 0.39842 0.43231 0.0
H437 H 0.96686 0.43339 0.43773 0.0
H438 H 0.07881 0.58269 0.40836 0.0
H439 H 0.06844 0.6023 0.38774 0.0
H440 H 0.09626 0.57098 0.38748 0.0
H441 H 0.03793 0.51522 0.36548 0.0
H442 H 0.00993 0.54629 0.36568 0.0
H443 H 0.98055 0.48864 0.37135 0.0
H444 H 0.92478 0.47329 0.43685 0.0
H445 H 0.89206 0.52013 0.4313 0.0
H446 H 0.98486 0.58591 0.38844 0.0
C447 C 0.05104 0.47399 0.39841 0.0
C448 C 0.04489 0.43797 0.409 0.0
C449 C 0.01526 0.4245 0.42351 0.0
C450 C 0.99011 0.44454 0.42683 0.0
C451 C 0.99575 0.47889 0.4158 0.0
C452 C 0.02593 0.49406 0.40205 0.0
C453 C 0.02539 0.53165 0.39223 0.0
C454 C 0.06988 0.57444 0.39407 0.0
C455 C 0.01269 0.51972 0.37252 0.0
C456 C 0.98961 0.53456 0.4024 0.0
C457 C 0.97295 0.50367 0.41591 0.0
C458 C 0.93801 0.49807 0.4265 0.0
C459 C 0.91954 0.52469 0.42322 0.0
C460 C 0.93636 0.55696 0.40964 0.0
C461 C 0.97205 0.56212 0.39917 0.0
H462 H 0.5855 0.07196 0.74754 0.0
H463 H 0.60698 0.99139 0.70959 0.0
H464 H 0.52681 0.94511 0.7051 0.0
H465 H 0.48789 0.98229 0.76765 0.0
H466 H 0.46107 0.01412 0.77058 0.0
H467 H 0.52019 0.04111 0.77072 0.0
H468 H 0.52347 0.09275 0.74536 0.0
H469 H 0.46433 0.06573 0.74509 0.0
H470 H 0.4937 0.06924 0.72491 0.0
H471 H 0.44437 0.90851 0.70423 0.0
H472 H 0.36563 0.88263 0.7076 0.0
H473 H 0.3972 0.98437 0.74749 0.0
C474 C 0.57322 0.04453 0.7383 0.0
C475 C 0.60246 0.03487 0.72909 0.0
C476 C 0.58521 -0.00121 0.71709 0.0
C477 C 0.5397 0.97251 0.71435 0.0
C478 C 0.51172 0.98261 0.72375 0.0
C479 C 0.52773 0.01756 0.73557 0.0
C480 C 0.49036 0.02072 0.74419 0.0
C481 C 0.48986 0.01416 0.76449 0.0
C482 C 0.49315 0.06473 0.73961 0.0
C483 C 0.45092 0.98233 0.73525 0.0
C484 C 0.46406 0.961 0.72345 0.0
C485 C 0.43374 0.92497 0.71347 0.0
C486 C 0.38886 0.91045 0.71555 0.0
C487 C 0.37413 0.93159 0.72759 0.0
C488 C 0.40611 0.96784 0.73769 0.0
H489 H 0.58549 0.51566 0.6532 0.0
H490 H 0.60928 0.62031 0.61627 0.0
H491 H 0.52942 0.58766 0.61179 0.0
H492 H 0.49351 0.42884 0.62818 0.0
H493 H 0.4635 0.4001 0.64786 0.0
H494 H 0.52269 0.43186 0.64842 0.0
H495 H 0.51949 0.4766 0.6753 0.0
H496 H 0.46033 0.44496 0.67484 0.0
H497 H 0.4881 0.50417 0.67344 0.0
H498 H 0.44709 0.54594 0.61234 0.0
H499 H 0.36753 0.49482 0.61626 0.0
H500 H 0.3959 0.41425 0.65148 0.0
C501 C 0.57378 0.53165 0.64419 0.0
C502 C 0.6036 0.57164 0.63567 0.0
C503 C 0.58708 0.59097 0.62365 0.0
C504 C 0.54173 0.57233 0.62083 0.0
C505 C 0.51316 0.53367 0.62982 0.0
C506 C 0.52844 0.51317 0.64109 0.0
C507 C 0.49049 0.47144 0.64887 0.0
C508 C 0.49269 0.43065 0.64298 0.0
C509 C 0.48956 0.47449 0.66933 0.0
C510 C 0.45156 0.47206 0.64038 0.0
C511 C 0.4655 0.50837 0.62948 0.0
C512 C 0.4358 0.51713 0.62069 0.0
C513 C 0.39067 0.488 0.62304 0.0
C514 C 0.37547 0.45018 0.63392 0.0
C515 C 0.40647 0.44224 0.64271 0.0
H516 H 0.98916 0.39985 0.96427 0.0
H517 H 0.88095 0.3693 1.00029 0.0
H518 H 0.9085 0.4485 1.00431 0.0
H519 H 0.07172 0.49563 0.98908 0.0
H520 H 0.09895 0.52577 0.9692 0.0
H521 H 0.07093 0.46646 0.96915 0.0
H522 H 0.02434 0.46467 0.94202 0.0
H523 H 0.05202 0.52392 0.94204 0.0
H524 H 0.99292 0.49228 0.94346 0.0
H525 H 0.94597 0.53053 1.0039 0.0
H526 H 0.99231 0.61077 0.99949 0.0
H527 H 0.07885 0.58935 0.9651 0.0
C528 C 0.97183 0.40948 0.97342 0.0
C529 C 0.93318 0.37782 0.98225 0.0
C530 C 0.91064 0.39263 0.99339 0.0
C531 C 0.92611 0.43765 0.99583 0.0
C532 C 0.96437 0.46782 0.98709 0.0
C533 C 0.98712 0.45448 0.97617 0.0
C534 C 0.02719 0.49395 0.96818 0.0
C535 C 0.06972 0.49554 0.97427 0.0
C536 C 0.0239 0.49367 0.94771 0.0
C537 C 0.0232 0.53146 0.97627 0.0
C538 C 0.98653 0.51549 0.98706 0.0
C539 C 0.97486 0.54344 0.99555 0.0
C540 C 0.00121 0.58892 0.99288 0.0
C541 C 0.03891 0.60612 0.98189 0.0
C542 C 0.05033 0.57699 0.97367 0.0
H543 H 0.57329 0.9823 0.29142 0.0
H544 H 0.50893 0.88996 0.33479 0.0
H545 H 0.45657 0.9166 0.33782 0.0
H546 H 0.56479 0.07202 0.31128 0.0
H547 H 0.55556 0.09073 0.29019 0.0
H548 H 0.58759 0.06373 0.29112 0.0
H549 H 0.53573 0.00654 0.26783 0.0
H550 H 0.50336 0.03315 0.26692 0.0
H551 H 0.4775 0.97535 0.27214 0.0
H552 H 0.41085 0.95294 0.3363 0.0
H553 H 0.37617 0.99788 0.33073 0.0
H554 H 0.47188 0.06929 0.28937 0.0
C555 C 0.54922 0.96827 0.3019 0.0
C556 C 0.54631 0.93438 0.31311 0.0
C557 C 0.51229 0.91595 0.32602 0.0
C558 C 0.4823 0.93095 0.3279 0.0
C559 C 0.48655 0.96463 0.31681 0.0
C560 C 0.51924 0.98325 0.30412 0.0
C561 C 0.51664 0.01933 0.29399 0.0
C562 C 0.55864 0.06411 0.29682 0.0
C563 C 0.50777 0.00789 0.27404 0.0
C564 C 0.47734 0.018 0.30298 0.0
C565 C 0.46034 0.98594 0.31603 0.0
C566 C 0.42377 0.97801 0.32606 0.0
C567 C 0.40403 0.00346 0.32269 0.0
C568 C 0.42077 0.03652 0.30939 0.0
C569 C 0.45824 0.0441 0.29956 0.0
H570 H 0.1622 0.88149 1.01198 0.0
H571 H 0.20527 0.94756 0.96112 0.0
H572 H 0.2581 0.01638 0.97649 0.0
H573 H 0.15645 0.96347 0.03234 0.0
H574 H 0.17446 0.9576 0.05417 0.0
H575 H 0.14944 0.91121 0.03933 0.0
H576 H 0.21781 0.90195 0.042 0.0
H577 H 0.24311 0.94852 0.05695 0.0
H578 H 0.27154 0.94784 0.03708 0.0
H579 H 0.2948 0.08128 0.99729 0.0
H580 H 0.30871 0.13519 0.02139 0.0
H581 H 0.24203 0.02762 0.0588 0.0
C582 C 0.1845 0.90985 1.00412 0.0
C583 C 0.18055 0.90899 0.98537 0.0
C584 C 0.2085 0.94739 0.9755 0.0
C585 C 0.23866 0.98665 0.98413 0.0
C586 C 0.24054 0.98719 1.00271 0.0
C587 C 0.21437 0.94961 1.01261 0.0
C588 C 0.21733 0.96047 0.03232 0.0
C589 C 0.17174 0.94745 0.03997 0.0
C590 C 0.23873 0.93838 0.0427 0.0
C591 C 0.24723 0.01009 0.03185 0.0
C592 C 0.26124 0.02492 1.01473 0.0
C593 C 0.28499 0.06997 1.01083 0.0
C594 C 0.29305 0.1005 0.02462 0.0
C595 C 0.2768 0.08572 0.042 0.0
C596 C 0.25542 0.04001 0.04569 0.0
H597 H 0.19824 0.23849 0.39827 0.0
H598 H 0.19133 0.32863 0.36077 0.0
H599 H 0.24492 0.32214 0.34133 0.0
H600 H 0.31566 0.26589 0.38924 0.0
H601 H 0.29955 0.20858 0.39124 0.0
H602 H 0.27233 0.23087 0.40437 0.0
H603 H 0.19694 0.17104 0.39182 0.0
H604 H 0.2238 0.14864 0.37884 0.0
H605 H 0.18875 0.16534 0.36799 0.0
H606 H 0.28514 0.29256 0.32324 0.0
H607 H 0.30113 0.24021 0.30771 0.0
H608 H 0.27871 0.16668 0.3565 0.0
C609 C 0.20918 0.25827 0.38627 0.0
C610 C 0.19068 0.28429 0.38108 0.0
C611 C 0.20552 0.30911 0.36519 0.0
C612 C 0.23595 0.30547 0.35407 0.0
C613 C 0.2515 0.27729 0.35915 0.0
C614 C 0.23866 0.25435 0.37503 0.0
C615 C 0.25305 0.22032 0.37622 0.0
C616 C 0.28719 0.23215 0.39115 0.0
C617 C 0.21329 0.17363 0.37885 0.0
C618 C 0.27378 0.22548 0.35804 0.0
C619 C 0.27402 0.25957 0.34861 0.0
C620 C 0.28634 0.26684 0.33071 0.0
C621 C 0.29594 0.23719 0.32201 0.0
C622 C 0.29278 0.20037 0.3311 0.0
C623 C 0.28367 0.19582 0.34953 0.0
H624 H 0.02722 0.22764 0.64476 0.0
H625 H 0.128 0.32173 0.68036 0.0
H626 H 0.06984 0.31538 0.70093 0.0
H627 H 0.9385 0.25562 0.65492 0.0
H628 H 0.89678 0.19826 0.65366 0.0
H629 H 0.9451 0.21931 0.63985 0.0
H630 H 0.9612 0.16017 0.6525 0.0
H631 H 0.91315 0.13903 0.66621 0.0
H632 H 0.96593 0.1563 0.67631 0.0
H633 H 0.00211 0.28612 0.72026 0.0
H634 H 0.93425 0.23601 0.73664 0.0
H635 H 0.87768 0.16013 0.68855 0.0
C636 C 0.03721 0.2482 0.65659 0.0
C637 C 0.08229 0.27538 0.66092 0.0
C638 C 0.0938 0.30124 0.67662 0.0
C639 C 0.06085 0.2977 0.68837 0.0
C640 C 0.01666 0.26866 0.68408 0.0
C641 C 0.00494 0.2447 0.6684 0.0
C642 C 0.95628 0.2108 0.66794 0.0
C643 C 0.93278 0.22167 0.65322 0.0
C644 C 0.94875 0.16385 0.66562 0.0
C645 C 0.94249 0.21743 0.68627 0.0
C646 C 0.9775 0.25178 0.69522 0.0
C647 C 0.97425 0.26025 0.71317 0.0
C648 C 0.93538 0.23183 0.72236 0.0
C649 C 0.90013 0.19527 0.71366 0.0
C650 C 0.90316 0.18917 0.69523 0.0
H651 H 0.79834 0.95723 0.06621 0.0
H652 H 0.67558 0.86669 0.0398 0.0
H653 H 0.68385 0.92725 1.02032 0.0
H654 H 0.78852 0.05806 0.06289 0.0
H655 H 0.84651 0.09239 0.05866 0.0
H656 H 0.82702 0.04412 0.07245 0.0
H657 H 0.86623 0.01499 0.05199 0.0
H658 H 0.88611 0.06321 0.03833 0.0
H659 H 0.85469 0.00935 0.02837 0.0
H660 H 0.7118 0.9944 1.00063 0.0
H661 H 0.75795 0.05996 0.98209 0.0
H662 H 0.86125 0.10701 0.02174 0.0
C663 C 0.77246 0.95018 0.05667 0.0
C664 C 0.73609 0.90702 0.05466 0.0
C665 C 0.70357 0.8994 0.04173 0.0
C666 C 0.70794 0.93371 0.03064 0.0
C667 C 0.74479 0.97563 0.03273 0.0
C668 C 0.77638 0.98391 0.04551 0.0
C669 C 0.81531 0.0302 0.04385 0.0
C670 C 0.81957 0.05782 0.06045 0.0
C671 C 0.85807 0.02935 0.04042 0.0
C672 C 0.80163 0.0463 0.02767 0.0
C673 C 0.76048 0.01464 0.0216 0.0
C674 C 0.74333 0.01993 1.00559 0.0
C675 C 0.76954 0.05747 0.99521 0.0
C676 C 0.81222 0.08939 1.00093 0.0
C677 C 0.82777 0.08431 1.0176 0.0
H678 H 0.79699 0.83786 0.30833 0.0
H679 H 0.67171 0.80023 0.33319 0.0
H680 H 0.67901 0.74571 0.35165 0.0
H681 H 0.78837 0.72793 0.30907 0.0
H682 H 0.84597 0.75168 0.31422 0.0
H683 H 0.82736 0.78217 0.30107 0.0
H684 H 0.86386 0.8474 0.32341 0.0
H685 H 0.88308 0.81744 0.33636 0.0
H686 H 0.85028 0.83743 0.34677 0.0
H687 H 0.70548 0.703 0.37033 0.0
H688 H 0.75065 0.6822 0.38872 0.0
H689 H 0.85774 0.74702 0.35134 0.0
C690 C 0.7704 0.81751 0.31733 0.0
C691 C 0.7335 0.82329 0.31914 0.0
C692 C 0.70013 0.79637 0.33141 0.0
C693 C 0.70394 0.76511 0.3419 0.0
C694 C 0.74116 0.76083 0.33991 0.0
C695 C 0.7738 0.78647 0.32789 0.0
C696 C 0.81286 0.77953 0.32959 0.0
C697 C 0.81898 0.7591 0.31247 0.0
C698 C 0.85496 0.823 0.33432 0.0
C699 C 0.79799 0.7471 0.34492 0.0
C700 C 0.75615 0.73595 0.35048 0.0
C701 C 0.73765 0.71048 0.36573 0.0
C702 C 0.76329 0.69818 0.376 0.0
C703 C 0.80692 0.7112 0.371 0.0
C704 C 0.82365 0.73445 0.35489 0.0
H705 H 0.10107 0.82695 0.70117 0.0
H706 H 0.03493 0.80935 0.75175 0.0
H707 H 0.96427 0.75613 0.73779 0.0
H708 H 0.02278 0.83182 0.67619 0.0
H709 H 0.02691 0.80364 0.65682 0.0
H710 H 0.07317 0.83207 0.67154 0.0
H711 H 0.07588 0.76021 0.67573 0.0
H712 H 0.02919 0.73144 0.66105 0.0
H713 H 0.02756 0.71098 0.68325 0.0
H714 H 0.8989 0.71499 0.71741 0.0
H715 H 0.84624 0.69496 0.6923 0.0
H716 H 0.95392 0.73819 0.65497 0.0
C717 C 0.072 0.81043 0.70942 0.0
C718 C 0.07368 0.8218 0.72761 0.0
C719 C 0.03453 0.80085 0.73782 0.0
C720 C 0.99418 0.77035 0.73002 0.0
C721 C 0.99318 0.76087 0.71191 0.0
C722 C 0.03117 0.78022 0.70173 0.0
C723 C 0.02035 0.76943 0.68213 0.0
C724 C 0.03674 0.81174 0.67103 0.0
C725 C 0.03938 0.74133 0.67513 0.0
C726 C 0.97047 0.74288 0.68279 0.0
C727 C 0.95531 0.73733 0.70011 0.0
C728 C 0.91037 0.71815 0.70381 0.0
C729 C 0.88048 0.70637 0.68947 0.0
C730 C 0.89578 0.71437 0.67167 0.0
C731 C 0.94109 0.7308 0.66843 0.0
H732 H 0.10839 0.00276 0.10619 0.0
H733 H 0.09491 0.11231 0.1248 0.0
H734 H 0.02261 0.06034 0.13746 0.0
H735 H 0.01249 0.94557 0.089 0.0
H736 H 0.00084 0.89106 0.09502 0.0
H737 H 0.05661 0.93475 0.09343 0.0
H738 H 0.07118 0.9204 0.12596 0.0
H739 H 0.01498 0.87616 0.12764 0.0
H740 H 0.03671 0.92038 0.14372 0.0
H741 H 0.9467 0.00135 0.13912 0.0
H742 H 0.87431 0.94046 0.12987 0.0
H743 H 0.93513 0.86695 0.11122 0.0
C744 C 0.09086 0.01569 0.11354 0.0
C745 C 0.10678 0.06131 0.11439 0.0
C746 C 0.08312 0.07733 0.12397 0.0
C747 C 0.0422 0.04802 0.13137 0.0
C748 C 0.02598 0.00296 0.12935 0.0
C749 C 0.05 0.98679 0.12095 0.0
C750 C 0.02236 0.93786 0.11746 0.0
C751 C 0.0231 0.92674 0.09756 0.0
C752 C 0.03719 0.91219 0.12941 0.0
C753 C 0.97786 0.93019 0.12313 0.0
C754 C 0.98094 0.9677 0.13068 0.0
C755 C 0.94386 0.9713 0.13388 0.0
C756 C 0.90293 0.93677 0.12845 0.0
C757 C 0.89963 0.89932 0.11991 0.0
C758 C 0.93702 0.89494 0.11814 0.0
H759 H 0.06748 0.1003 0.43896 0.0
H760 H 0.94226 0.09449 0.4454 0.0
H761 H 0.90905 0.01792 0.45568 0.0
H762 H 0.03297 0.00895 0.41868 0.0
H763 H 0.06735 0.99036 0.42875 0.0
H764 H 0.08522 0.04783 0.4285 0.0
H765 H 0.0937 0.05147 0.46291 0.0
H766 H 0.07607 0.99355 0.46328 0.0
H767 H 0.048 0.01442 0.47667 0.0
H768 H 0.88472 0.94016 0.45467 0.0
H769 H 0.87254 0.86814 0.44452 0.0
H770 H 0.01313 0.92187 0.44061 0.0
C771 C 0.03351 0.08329 0.44322 0.0
C772 C 0.0072 0.10273 0.44121 0.0
C773 C 0.96292 0.07994 0.44683 0.0
C774 C 0.94388 0.03656 0.45285 0.0
C775 C 0.96992 0.01705 0.45355 0.0
C776 C 0.01421 0.04006 0.44933 0.0
C777 C 0.03306 0.00981 0.44803 0.0
C778 C 0.05589 0.01451 0.42992 0.0
C779 C 0.06456 0.01779 0.46366 0.0
C780 C 0.99138 0.96579 0.44981 0.0
C781 C 0.95556 0.9707 0.45368 0.0
C782 C 0.91255 0.93559 0.45243 0.0
C783 C 0.90588 0.89499 0.44646 0.0
C784 C 0.94208 0.88999 0.44197 0.0
C785 C 0.98519 0.92502 0.44449 0.0
H786 H 0.98547 0.10185 0.77029 0.0
H787 H 0.88 0.98239 0.79354 0.0
H788 H 0.93437 0.96554 0.80633 0.0
H789 H 0.04165 0.05935 0.75428 0.0
H790 H 0.0963 0.10465 0.75849 0.0
H791 H 0.05149 0.11477 0.75633 0.0
H792 H 0.06962 0.15227 0.78745 0.0
H793 H 0.11483 0.14212 0.78971 0.0
H794 H 0.07284 0.12302 0.80661 0.0
H795 H 0.99492 0.95096 0.8089 0.0
H796 H 0.05638 0.93972 0.80075 0.0
H797 H 0.12449 0.06934 0.77683 0.0
C798 C 0.97397 0.07297 0.77862 0.0
C799 C 0.9287 0.04325 0.78084 0.0
C800 C 0.91465 0.00557 0.79165 0.0
C801 C 0.94534 0.99599 0.79913 0.0
C802 C 0.98984 0.02483 0.79592 0.0
C803 C 0.00422 0.063 0.78612 0.0
C804 C 0.05264 0.08436 0.78183 0.0
C805 C 0.06093 0.09109 0.76155 0.0
C806 C 0.07904 0.12803 0.79202 0.0
C807 C 0.0621 0.0498 0.78905 0.0
C808 C 0.02592 0.01655 0.79775 0.0
C809 C 0.024 0.9774 0.80273 0.0
C810 C 0.05886 0.97115 0.79794 0.0
C811 C 0.09495 0.00389 0.78828 0.0
C812 C 0.09768 0.04447 0.78467 0.0
H813 H 0.90231 0.91868 0.59776 0.0
H814 H 0.98796 0.8634 0.59723 0.0
H815 H 0.04949 0.93459 0.58732 0.0
H816 H 0.96605 0.01065 0.56156 0.0
H817 H 0.95592 0.04798 0.57447 0.0
H818 H 0.91516 0.99019 0.57358 0.0
H819 H 0.91517 0.98726 0.60811 0.0
H820 H 0.9559 0.04436 0.60912 0.0
H821 H 0.96619 0.00439 0.61978 0.0
H822 H 0.10405 0.01222 0.5868 0.0
H823 H 0.14695 0.08892 0.59729 0.0
H824 H 0.02778 0.09628 0.59995 0.0
C825 C 0.93355 0.92124 0.59461 0.0
C826 C 0.9408 0.88612 0.59815 0.0
C827 C 0.98212 0.89034 0.59456 0.0
C828 C 0.01703 0.93047 0.58872 0.0
C829 C 0.00993 0.96587 0.58661 0.0
C830 C 0.96893 0.96153 0.58929 0.0
C831 C 0.97192 0.00593 0.59053 0.0
C832 C 0.95103 0.01417 0.57405 0.0
C833 C 0.95114 0.01072 0.60792 0.0
C834 C 0.02124 0.03553 0.59042 0.0
C835 C 0.04249 0.0121 0.58708 0.0
C836 C 0.08792 0.03119 0.58888 0.0
C837 C 0.112 0.07465 0.59499 0.0
C838 C 0.09029 0.09789 0.59959 0.0
C839 C 0.04487 0.07887 0.59649 0.0
H840 H 0.06206 0.95688 0.92488 0.0
H841 H 0.93226 0.84271 0.91794 0.0
H842 H 0.90289 0.89125 0.91055 0.0
H843 H 0.03411 0.01434 0.94867 0.0
H844 H 0.07048 0.06844 0.93982 0.0
H845 H 0.08478 0.0264 0.93791 0.0
H846 H 0.09136 0.03627 0.90361 0.0
H847 H 0.07757 0.07914 0.9054 0.0
H848 H 0.04609 0.03264 0.8909 0.0
H849 H 0.88382 0.94855 0.914 0.0
H850 H 0.87762 0.01064 0.9259 0.0
H851 H 0.01945 0.08955 0.92958 0.0
C852 C 0.02785 0.94214 0.92103 0.0
C853 C -0.0007 0.89628 0.92213 0.0
C854 C 0.9547 0.87788 0.91716 0.0
C855 C 0.93779 0.90523 0.91283 0.0
C856 C 0.96615 0.95069 0.91316 0.0
C857 C 0.01061 0.96908 0.91669 0.0
C858 C 0.03255 0.01836 0.91943 0.0
C859 C 0.05682 0.03264 0.93753 0.0
C860 C 0.06373 0.04306 0.9039 0.0
C861 C 0.99269 0.02396 0.919 0.0
C862 C 0.95491 0.98483 0.91474 0.0
C863 C 0.91322 0.97977 0.91665 0.0
C864 C 0.90996 0.01498 0.9236 0.0
C865 C 0.94818 0.0546 0.92851 0.0
C866 C 0.98995 0.0598 0.92545 0.0
H867 H 0.09692 0.09992 0.27916 0.0
H868 H 0.09083 0.98408 0.2556 0.0
H869 H 0.02182 0.96644 0.24044 0.0
H870 H 0.99388 0.05379 0.29139 0.0
H871 H 0.98502 0.09906 0.28662 0.0
H872 H 0.03944 0.10957 0.29105 0.0
H873 H 0.06533 0.15015 0.26072 0.0
H874 H 0.0103 0.13906 0.25618 0.0
H875 H 0.03776 0.12231 0.24042 0.0
H876 H 0.94712 0.95016 0.23514 0.0
H877 H 0.87215 0.93586 0.24091 0.0
H878 H 0.92558 0.06353 0.26618 0.0
C879 C 0.0817 0.07162 0.27035 0.0
C880 C 0.09887 0.0432 0.26862 0.0
C881 C 0.07804 0.00623 0.25716 0.0
C882 C 0.03912 0.99626 0.2483 0.0
C883 C 0.02194 0.024 0.25083 0.0
C884 C 0.04284 0.06129 0.26143 0.0
C885 C 0.01414 0.08139 0.26446 0.0
C886 C 0.00773 0.08613 0.28456 0.0
C887 C 0.03301 0.12586 0.25487 0.0
C888 C 0.97218 0.0469 0.25558 0.0
C889 C 0.97791 0.01496 0.24718 0.0
C890 C 0.94241 0.97565 0.24101 0.0
C891 C 0.89999 0.96766 0.2444 0.0
C892 C 0.89373 -0.00099 0.25374 0.0
C893 C 0.93 0.03998 0.25845 0.0
H894 H 0.00161 0.1358 0.99882 0.0
H895 H 0.05242 0.27575 0.99205 0.0
H896 H 0.11693 0.29152 1.0109 0.0
H897 H 0.03203 0.1427 0.04497 0.0
H898 H 0.04458 0.09898 0.04334 0.0
H899 H 0.00408 0.09939 0.02873 0.0
H900 H 0.04683 0.09608 1.0012 0.0
H901 H 0.08737 0.09549 1.01572 0.0
H902 H 0.10406 0.13699 0.99867 0.0
H903 H 0.17808 0.2908 0.03006 0.0
H904 H 0.22577 0.27397 0.04896 0.0
H905 H 0.13046 0.13463 0.04468 0.0
C906 C 0.0265 0.16984 1.00112 0.0
C907 C 0.02227 0.20458 0.9937 0.0
C908 C 0.05509 0.24861 0.99747 0.0
C909 C 0.09184 0.25782 1.00817 0.0
C910 C 0.09489 0.22265 1.0153 0.0
C911 C 0.06266 0.17954 1.01205 0.0
C912 C 0.07222 0.14748 0.0218 0.0
C913 C 0.03608 0.12056 0.03552 0.0
C914 C 0.07797 0.11724 1.00856 0.0
C915 C 0.11523 0.17907 0.03091 0.0
C916 C 0.12817 0.22233 0.02692 0.0
C917 C 0.16789 0.25702 0.03336 0.0
C918 C 0.19486 0.24718 0.04408 0.0
C919 C 0.18178 0.20304 0.04852 0.0
C920 C 0.14122 0.1688 0.04184 0.0
H921 H -0.00378 0.15483 0.36587 0.0
H922 H 0.9374 0.23163 0.38271 0.0
H923 H 0.87095 0.1833 0.36449 0.0
H924 H 0.95524 0.13732 0.32004 0.0
H925 H 0.94804 0.08281 0.31902 0.0
H926 H 0.9902 0.12412 0.33307 0.0
H927 H 0.95773 0.07201 0.36025 0.0
H928 H 0.91532 0.03078 0.34628 0.0
H929 H 0.90072 0.05011 0.36596 0.0
H930 H 0.80721 0.11987 0.34587 0.0
H931 H 0.75855 0.05572 0.32659 0.0
H932 H 0.86372 0.02637 0.3207 0.0
C933 C 0.96951 0.16179 0.36563 0.0
C934 C 0.9719 0.1969 0.3758 0.0
C935 C 0.93639 0.20507 0.37497 0.0
C936 C 0.89845 0.17759 0.36472 0.0
C937 C 0.89693 0.14267 0.35506 0.0
C938 C 0.93216 0.1355 0.3552 0.0
C939 C 0.92338 0.09658 0.34358 0.0
C940 C 0.95616 0.1111 0.328 0.0
C941 C 0.92434 0.06023 0.35468 0.0
C942 C 0.87738 0.08222 0.33701 0.0
C943 C 0.86216 0.10866 0.34385 0.0
C944 C 0.8193 0.09956 0.34026 0.0
C945 C 0.79176 0.06296 0.32934 0.0
C946 C 0.80738 0.03629 0.32187 0.0
C947 C 0.85086 0.04648 0.32585 0.0
H948 H 0.85661 0.86549 0.66452 0.0
H949 H 0.71724 0.77498 0.65688 0.0
H950 H 0.70049 0.82421 0.67475 0.0
H951 H 0.84866 0.8909 0.70991 0.0
H952 H 0.89168 0.94764 0.70823 0.0
H953 H 0.89228 0.90673 0.69392 0.0
H954 H 0.89514 0.95179 0.66609 0.0
H955 H 0.89473 0.99295 0.68032 0.0
H956 H 0.85367 0.96705 0.6631 0.0
H957 H 0.69976 0.88556 0.69367 0.0
H958 H 0.71507 0.94928 0.71296 0.0
H959 H 0.85467 0.99581 0.70953 0.0
C960 C 0.8225 0.85618 0.66638 0.0
C961 C 0.78823 0.81641 0.65908 0.0
C962 C 0.74409 0.80522 0.66225 0.0
C963 C 0.73428 0.83309 0.67238 0.0
C964 C 0.76894 0.87189 0.67949 0.0
C965 C 0.81218 0.88314 0.6767 0.0
C966 C 0.84355 0.92537 0.68644 0.0
C967 C 0.87063 0.91715 0.70046 0.0
C968 C 0.87353 0.96142 0.6732 0.0
C969 C 0.81136 0.93629 0.6952 0.0
C970 C 0.76845 0.90548 0.6909 0.0
C971 C 0.73328 0.90964 0.69717 0.0
C972 C 0.74225 0.946 0.70811 0.0
C973 C 0.78599 0.97743 0.71296 0.0
C974 C 0.82077 0.97215 0.70634 0.0
H975 H 0.86054 0.83834 0.04806 0.0
H976 H 0.76323 0.69934 0.04926 0.0
H977 H 0.80969 0.68411 0.02878 0.0
H978 H 0.88431 0.84143 1.00133 0.0
H979 H 0.94168 0.88187 1.00403 0.0
H980 H 0.90183 0.88062 1.01941 0.0
H981 H 0.94539 0.87353 0.04587 0.0
H982 H 0.98535 0.87467 0.03056 0.0
H983 H 0.95759 0.82944 0.0459 0.0
H984 H 0.87102 0.68506 1.00893 0.0
H985 H 0.93451 0.70275 0.98918 0.0
H986 H 0.98611 0.8418 0.99894 0.0
C987 C 0.84907 0.80457 0.04414 0.0
C988 C 0.80852 0.76987 0.0505 0.0
C989 C 0.79426 0.72636 0.04465 0.0
C990 C 0.82056 0.71748 0.03307 0.0
C991 C 0.86056 0.7526 0.02711 0.0
C992 C 0.87419 0.79538 0.03226 0.0
C993 C 0.91702 0.82782 0.02331 0.0
C994 C 0.91082 0.85981 1.01131 0.0
C995 C 0.95348 0.85283 0.03724 0.0
C996 C 0.92584 0.7968 1.01236 0.0
C997 C 0.89345 0.75341 1.0149 0.0
C998 C 0.89611 0.719 1.00672 0.0
C999 C 0.93235 0.72927 0.99557 0.0
C1000 C 0.96493 0.77362 0.99234 0.0
C1001 C 0.96134 0.80759 1.0009 0.0
H1002 H 0.13451 0.99841 0.33762 0.0
H1003 H 0.22363 0.94878 0.32889 0.0
H1004 H 0.17489 0.88263 0.34697 0.0
H1005 H 0.10826 0.96244 0.38333 0.0
H1006 H 0.05206 0.94977 0.38117 0.0
H1007 H 0.09422 0.9924 0.36767 0.0
H1008 H 0.05035 0.95318 0.33906 0.0
H1009 H 0.00808 0.91045 0.35246 0.0
H1010 H 0.03446 0.89643 0.33515 0.0
H1011 H 0.11152 0.81864 0.36523 0.0
H1012 H 0.045 0.76816 0.38272 0.0
H1013 H 0.00189 0.86405 0.3801 0.0
C1014 C 0.14399 0.97372 0.33946 0.0
C1015 C 0.18292 0.9788 0.33167 0.0
C1016 C 0.1941 0.94578 0.3347 0.0
C1017 C 0.16647 0.90801 0.34493 0.0
C1018 C 0.12807 0.904 0.35228 0.0
C1019 C 0.11733 0.93647 0.34978 0.0
C1020 C 0.07487 0.92532 0.35913 0.0
C1021 C 0.08285 0.95951 0.37369 0.0
C1022 C 0.03989 0.92109 0.34564 0.0
C1023 C 0.06279 0.88118 0.36718 0.0
C1024 C 0.09349 0.86897 0.36308 0.0
C1025 C 0.08768 0.82833 0.36863 0.0
C1026 C 0.04974 0.79977 0.37856 0.0
C1027 C 0.01824 0.81211 0.38303 0.0
C1028 C 0.02542 0.85358 0.37723 0.0
H1029 H 0.15571 0.03215 0.72228 0.0
H1030 H 0.28507 0.05011 0.71242 0.0
H1031 H 0.30203 0.11373 0.69273 0.0
H1032 H 0.13672 0.05326 0.67779 0.0
H1033 H 0.1063 0.07965 0.68442 0.0
H1034 H 0.1067 0.0384 0.6985 0.0
H1035 H 0.13504 0.09368 0.72491 0.0
H1036 H 0.13501 0.13524 0.71087 0.0
H1037 H 0.1846 0.14617 0.72232 0.0
H1038 H 0.30374 0.17761 0.67384 0.0
H1039 H 0.28677 0.22667 0.65566 0.0
H1040 H 0.15464 0.16103 0.67699 0.0
C1041 C 0.1879 0.04967 0.71617 0.0
C1042 C 0.2193 0.03639 0.71913 0.0
C1043 C 0.26055 0.05973 0.71046 0.0
C1044 C 0.27048 0.09605 0.6993 0.0
C1045 C 0.2386 0.10827 0.69674 0.0
C1046 C 0.19791 0.08513 0.70482 0.0
C1047 C 0.16788 0.10222 0.69917 0.0
C1048 C 0.12701 0.06625 0.68939 0.0
C1049 C 0.15489 0.12041 0.71527 0.0
C1050 C 0.19779 0.13874 0.68659 0.0
C1051 C 0.23878 0.14252 0.68549 0.0
C1052 C 0.27164 0.17461 0.67463 0.0
C1053 C 0.2619 0.20257 0.66443 0.0
C1054 C 0.21941 0.19762 0.66489 0.0
C1055 C 0.18742 0.16556 0.67631 0.0
H1056 H 0.35659 0.19101 0.15022 0.0
H1057 H 0.227 0.17552 0.14342 0.0
H1058 H 0.20941 0.15182 0.17455 0.0
H1059 H 0.33335 0.10665 0.1793 0.0
H1060 H 0.3781 0.13487 0.19489 0.0
H1061 H 0.38405 0.15393 0.1722 0.0
H1062 H 0.40321 0.23152 0.18303 0.0
H1063 H 0.39885 0.21319 0.20579 0.0
H1064 H 0.36684 0.23722 0.1983 0.0
H1065 H 0.19809 0.10715 0.2013 0.0
H1066 H 0.2024 0.0805 0.23086 0.0
H1067 H 0.34468 0.1469 0.22693 0.0
C1068 C 0.32546 0.1848 0.15561 0.0
C1069 C 0.29268 0.1842 0.14427 0.0
C1070 C 0.2523 0.17575 0.15178 0.0
C1071 C 0.24177 0.16171 0.16939 0.0
C1072 C 0.27308 0.15905 0.17979 0.0
C1073 C 0.3152 0.17342 0.17381 0.0
C1074 C 0.34274 0.1698 0.18887 0.0
C1075 C 0.36062 0.13951 0.18348 0.0
C1076 C 0.38014 0.21567 0.19432 0.0
C1077 C 0.30855 0.14906 0.20371 0.0
C1078 C 0.26834 0.14156 0.19755 0.0
C1079 C 0.22983 0.116 0.20694 0.0
C1080 C 0.23277 0.10122 0.22383 0.0
C1081 C 0.27403 0.115 0.23206 0.0
C1082 C 0.31266 0.13748 0.22147 0.0
H1083 H 0.14825 0.35396 0.48252 0.0
H1084 H 0.04613 0.2165 0.47827 0.0
H1085 H 0.06468 0.20252 0.50809 0.0
H1086 H 0.22514 0.34827 0.50969 0.0
H1087 H 0.23514 0.39079 0.52564 0.0
H1088 H 0.21656 0.39296 0.50343 0.0
H1089 H 0.14985 0.39598 0.51613 0.0
H1090 H 0.16904 0.39536 0.53841 0.0
H1091 H 0.11401 0.35464 0.53182 0.0
H1092 H 0.11155 0.19963 0.53212 0.0
H1093 H 0.1466 0.20984 0.56127 0.0
H1094 H 0.19408 0.35029 0.55884 0.0
C1095 C 0.12866 0.32142 0.48816 0.0
C1096 C 0.09761 0.28548 0.47751 0.0
C1097 C 0.07178 0.24388 0.4857 0.0
C1098 C 0.08214 0.23545 0.50261 0.0
C1099 C 0.11572 0.27004 0.51202 0.0
C1100 C 0.13571 0.31291 0.50604 0.0
C1101 C 0.16552 0.34388 0.52081 0.0
C1102 C 0.21344 0.37057 0.5145 0.0
C1103 C 0.14859 0.37428 0.52718 0.0
C1104 C 0.16037 0.31097 0.53536 0.0
C1105 C 0.13347 0.26869 0.52915 0.0
C1106 C 0.12957 0.23224 0.53794 0.0
C1107 C 0.14963 0.2385 0.55454 0.0
C1108 C 0.16944 0.28005 0.5632 0.0
C1109 C 0.17733 0.31763 0.55304 0.0
H1110 H 0.9 0.14525 0.88978 0.0
H1111 H 0.82819 0.21116 0.90415 0.0
H1112 H 0.80088 0.20236 0.87295 0.0
H1113 H 0.92512 0.1773 0.84432 0.0
H1114 H 0.91365 0.12353 0.83718 0.0
H1115 H 0.93254 0.1419 0.85959 0.0
H1116 H 0.86413 0.07251 0.87206 0.0
H1117 H 0.84494 0.05402 0.84969 0.0
H1118 H 0.80999 0.06068 0.86542 0.0
H1119 H 0.78326 0.18588 0.83833 0.0
H1120 H 0.77373 0.15984 0.80691 0.0
H1121 H 0.84011 0.08757 0.81978 0.0
C1122 C 0.87819 0.15761 0.88656 0.0
C1123 C 0.86631 0.17882 0.8996 0.0
C1124 C 0.83867 0.19555 0.89443 0.0
C1125 C 0.82253 0.19017 0.87673 0.0
C1126 C 0.83331 0.16693 0.8645 0.0
C1127 C 0.86001 0.15035 0.86946 0.0
C1128 C 0.86365 0.12271 0.85484 0.0
C1129 C 0.91158 0.14257 0.84862 0.0
C1130 C 0.84453 0.07464 0.86086 0.0
C1131 C 0.83544 0.1267 0.8406 0.0
C1132 C 0.81896 0.15317 0.84604 0.0
C1133 C 0.79535 0.16438 0.83418 0.0
C1134 C 0.78954 0.14894 0.81635 0.0
C1135 C 0.8062 0.12157 0.8107 0.0
C1136 C 0.82772 0.10916 0.82338 0.0
H1137 H 0.70059 0.92808 0.21264 0.0
H1138 H 0.62436 0.8057 0.24117 0.0
H1139 H 0.60715 0.76445 0.2126 0.0
H1140 H 0.63305 0.89518 0.17023 0.0
H1141 H 0.68177 0.92449 0.15679 0.0
H1142 H 0.68018 0.9441 0.17887 0.0
H1143 H 0.7506 0.94202 0.18726 0.0
H1144 H 0.75217 0.92193 0.16537 0.0
H1145 H 0.7512 0.89125 0.18479 0.0
H1146 H 0.61005 0.73619 0.18129 0.0
H1147 H 0.63085 0.72484 0.15089 0.0
H1148 H 0.70303 0.86593 0.14289 0.0
C1149 C 0.67853 0.89277 0.21272 0.0
C1150 C 0.66286 0.87011 0.22902 0.0
C1151 C 0.63562 0.82373 0.22877 0.0
C1152 C 0.626 0.80007 0.21259 0.0
C1153 C 0.64356 0.8233 0.19675 0.0
C1154 C 0.66873 0.86881 0.19671 0.0
C1155 C 0.68777 0.88594 0.17839 0.0
C1156 C 0.66959 0.91409 0.17061 0.0
C1157 C 0.73841 0.91179 0.179 0.0
C1158 C 0.67065 0.8431 0.1682 0.0
C1159 C 0.64495 0.80718 0.1789 0.0
C1160 C 0.62932 0.76417 0.17273 0.0
C1161 C 0.64111 0.75792 0.15543 0.0
C1162 C 0.66844 0.79445 0.14455 0.0
C1163 C 0.6819 0.83735 0.15089 0.0
H1164 H 0.83314 0.6394 0.48266 0.0
H1165 H 0.91757 0.78092 0.4774 0.0
H1166 H 0.89971 0.79143 0.50788 0.0
H1167 H 0.75227 0.63406 0.51208 0.0
H1168 H 0.75042 0.59334 0.52724 0.0
H1169 H 0.76674 0.59434 0.50437 0.0
H1170 H 0.84013 0.60107 0.51464 0.0
H1171 H 0.82338 0.59867 0.53752 0.0
H1172 H 0.87491 0.64416 0.53004 0.0
H1173 H 0.86035 0.78823 0.53533 0.0
H1174 H 0.8344 0.77386 0.56624 0.0
H1175 H 0.7943 0.63581 0.55974 0.0
C1176 C 0.84869 0.6724 0.48812 0.0
C1177 C 0.87461 0.70968 0.47716 0.0
C1178 C 0.89551 0.7521 0.48509 0.0
C1179 C 0.88555 0.75851 0.50242 0.0
C1180 C 0.85702 0.72186 0.51233 0.0
C1181 C 0.84153 0.6795 0.50617 0.0
C1182 C 0.81684 0.64667 0.52115 0.0
C1183 C 0.7687 0.61523 0.51589 0.0
C1184 C 0.84021 0.62112 0.52614 0.0
C1185 C 0.82004 0.67756 0.53626 0.0
C1186 C 0.84157 0.72049 0.53026 0.0
C1187 C 0.84524 0.75508 0.54055 0.0
C1188 C 0.82998 0.74644 0.55807 0.0
C1189 C 0.81387 0.70418 0.56566 0.0
C1190 C 0.80696 0.6686 0.55439 0.0
H1191 H 0.12384 0.83924 0.81101 0.0
H1192 H 0.2642 0.89588 0.81791 0.0
H1193 H 0.25148 0.86266 0.84816 0.0
H1194 H 0.1058 0.86634 0.85298 0.0
H1195 H 0.05234 0.81823 0.85586 0.0
H1196 H 0.07223 0.83831 0.83381 0.0
H1197 H 0.06063 0.76181 0.82487 0.0
H1198 H 0.0407 0.74147 0.84697 0.0
H1199 H 0.08605 0.73752 0.83793 0.0
H1200 H 0.22298 0.83195 0.87951 0.0
H1201 H 0.183 0.81029 0.90832 0.0
H1202 H 0.06194 0.77716 0.88086 0.0
C1203 C 0.15187 0.84374 0.81872 0.0
C1204 C 0.19505 0.87008 0.81215 0.0
C1205 C 0.23087 0.87543 0.82264 0.0
C1206 C 0.22385 0.85675 0.83985 0.0
C1207 C 0.18078 0.83266 0.84629 0.0
C1208 C 0.14541 0.82607 0.83592 0.0
C1209 C 0.10295 0.80399 0.84644 0.0
C1210 C 0.08214 0.83347 0.84732 0.0
C1211 C 0.07068 0.75849 0.83858 0.0
C1212 C 0.11978 0.79991 0.86453 0.0
C1213 C 0.16463 0.8159 0.86419 0.0
C1214 C 0.18777 0.81858 0.87978 0.0
C1215 C 0.16479 0.80589 0.89608 0.0
C1216 C 0.11925 0.79114 0.89671 0.0
C1217 C 0.0965 0.78714 0.88065 0.0
loop_
_geom_bond_atom_site_label_1
_geom_bond_atom_site_label_2
_geom_bond_distance
_geom_bond_site_symmetry_2
_ccdc_geom_bond_type
Co0 O3 1.970 . S
Co0 N17 1.989 . S
Co0 O25 1.967 . S
Co0 O32 1.920 . S
Co1 O4 1.966 . S
Co1 N10 2.022 . S
Co1 N18 1.993 . S
Co1 O26 1.941 . S
C2 O3 1.258 . S
C2 O4 1.263 . S
O3 Co0 1.970 . S
O3 C2 1.258 . S
O4 Co1 1.966 . S
O4 C2 1.263 . S
C5 O6 1.235 . S
C5 O32 1.289 . S
O6 C5 1.235 . S
C7 C9 1.400 . S
C7 N10 1.351 . S
C7 C12 1.501 . S
C8 C9 1.387 . S
C8 N11 1.341 . S
C9 C7 1.400 . S
C9 C8 1.387 . S
N10 Co1 2.022 . S
N10 C7 1.351 . S
N10 N11 1.365 . S
N11 C8 1.341 . S
N11 N10 1.365 . S
N11 H31 0.862 . S
C12 C7 1.501 . S
C12 H13 0.961 . S
C12 H14 0.961 . S
C12 H15 0.960 . S
H13 C12 0.961 . S
H14 C12 0.961 . S
H15 C12 0.960 . S
C16 N17 1.342 . S
C16 C20 1.401 . S
C16 C21 1.499 . S
N17 Co0 1.989 . S
N17 C16 1.342 . S
N17 N18 1.388 . S
N18 Co1 1.993 . S
N18 N17 1.388 . S
N18 C19 1.346 . S
C19 N18 1.346 . S
C19 C20 1.396 . S
C19 C29 1.510 . S
C20 C16 1.401 . S
C20 C19 1.396 . S
C21 C16 1.499 . S
C21 H22 0.959 . S
C21 H23 0.960 . S
C21 H24 0.961 . S
H22 C21 0.959 . S
H23 C21 0.960 . S
H24 C21 0.961 . S
O25 Co0 1.967 . S
O25 C33 1.258 . S
O26 Co1 1.941 . S
O26 C33 1.266 . S
H27 C29 0.959 . S
H28 C29 0.961 . S
C29 C19 1.510 . S
C29 H27 0.959 . S
C29 H28 0.961 . S
C29 H30 0.960 . S
H30 C29 0.960 . S
H31 N11 0.862 . S
O32 Co0 1.920 . S
O32 C5 1.289 . S
C33 O25 1.258 . S
C33 O26 1.266 . S
Co34 O37 1.970 . S
Co34 N51 1.989 . S
Co34 O59 1.967 . S
Co34 O66 1.920 . S
Co35 O38 1.966 . S
Co35 N44 2.022 . S
Co35 N52 1.993 . S
Co35 O60 1.941 . S
C36 O37 1.258 . S
C36 O38 1.263 . S
O37 Co34 1.970 . S
O37 C36 1.258 . S
O38 Co35 1.966 . S
O38 C36 1.263 . S
C39 O40 1.235 . S
C39 O66 1.289 . S
O40 C39 1.235 . S
C41 C43 1.400 . S
C41 N44 1.351 . S
C41 C46 1.501 . S
C42 C43 1.387 . S
C42 N45 1.341 . S
C43 C41 1.400 . S
C43 C42 1.387 . S
N44 Co35 2.022 . S
N44 C41 1.351 . S
N44 N45 1.365 . S
N45 C42 1.341 . S
N45 N44 1.365 . S
N45 H65 0.862 . S
C46 C41 1.501 . S
C46 H47 0.961 . S
C46 H48 0.961 . S
C46 H49 0.960 . S
H47 C46 0.961 . S
H48 C46 0.961 . S
H49 C46 0.960 . S
C50 N51 1.342 . S
C50 C54 1.401 . S
C50 C55 1.499 . S
N51 Co34 1.989 . S
N51 C50 1.342 . S
N51 N52 1.388 . S
N52 Co35 1.993 . S
N52 N51 1.388 . S
N52 C53 1.346 . S
C53 N52 1.346 . S
C53 C54 1.396 . S
C53 C63 1.510 . S
C54 C50 1.401 . S
C54 C53 1.396 . S
C55 C50 1.499 . S
C55 H56 0.959 . S
C55 H57 0.960 . S
C55 H58 0.961 . S
H56 C55 0.959 . S
H57 C55 0.960 . S
H58 C55 0.961 . S
O59 Co34 1.967 . S
O59 C67 1.258 . S
O60 Co35 1.941 . S
O60 C67 1.266 . S
H61 C63 0.959 . S
H62 C63 0.961 . S
C63 C53 1.510 . S
C63 H61 0.959 . S
C63 H62 0.961 . S
C63 H64 0.960 . S
H64 C63 0.960 . S
H65 N45 0.862 . S
O66 Co34 1.920 . S
O66 C39 1.289 . S
C67 O59 1.258 . S
C67 O60 1.266 . S
Co68 O71 1.970 . S
Co68 N85 1.989 . S
Co68 O93 1.967 . S
Co68 O100 1.920 . S
Co69 O72 1.966 . S
Co69 N78 2.022 . S
Co69 N86 1.993 . S
Co69 O94 1.941 . S
C70 O71 1.258 . S
C70 O72 1.263 . S
O71 Co68 1.970 . S
O71 C70 1.258 . S
O72 Co69 1.966 . S
O72 C70 1.263 . S
C73 O74 1.235 . S
C73 O100 1.289 . S
O74 C73 1.235 . S
C75 C77 1.400 . S
C75 N78 1.351 . S
C75 C80 1.501 . S
C76 C77 1.387 . S
C76 N79 1.341 . S
C77 C75 1.400 . S
C77 C76 1.387 . S
N78 Co69 2.022 . S
N78 C75 1.351 . S
N78 N79 1.365 . S
N79 C76 1.341 . S
N79 N78 1.365 . S
N79 H99 0.862 . S
C80 C75 1.501 . S
C80 H81 0.961 . S
C80 H82 0.961 . S
C80 H83 0.960 . S
H81 C80 0.961 . S
H82 C80 0.961 . S
H83 C80 0.960 . S
C84 N85 1.342 . S
C84 C88 1.401 . S
C84 C89 1.499 . S
N85 Co68 1.989 . S
N85 C84 1.342 . S
N85 N86 1.388 . S
N86 Co69 1.993 . S
N86 N85 1.388 . S
N86 C87 1.346 . S
C87 N86 1.346 . S
C87 C88 1.396 . S
C87 C97 1.510 . S
C88 C84 1.401 . S
C88 C87 1.396 . S
C89 C84 1.499 . S
C89 H90 0.959 . S
C89 H91 0.960 . S
C89 H92 0.961 . S
H90 C89 0.959 . S
H91 C89 0.960 . S
H92 C89 0.961 . S
O93 Co68 1.967 . S
O93 C101 1.258 . S
O94 Co69 1.941 . S
O94 C101 1.266 . S
H95 C97 0.959 . S
H96 C97 0.961 . S
C97 C87 1.510 . S
C97 H95 0.959 . S
C97 H96 0.961 . S
C97 H98 0.960 . S
H98 C97 0.960 . S
H99 N79 0.862 . S
O100 Co68 1.920 . S
O100 C73 1.289 . S
C101 O93 1.258 . S
C101 O94 1.266 . S
Co102 O105 1.970 . S
Co102 N119 1.989 . S
Co102 O127 1.967 . S
Co102 O134 1.920 . S
Co103 O106 1.966 . S
Co103 N112 2.022 . S
Co103 N120 1.993 . S
Co103 O128 1.941 . S
C104 O105 1.258 . S
C104 O106 1.263 . S
O105 Co102 1.970 . S
O105 C104 1.258 . S
O106 Co103 1.966 . S
O106 C104 1.263 . S
C107 O108 1.235 . S
C107 O134 1.289 . S
O108 C107 1.235 . S
C109 C111 1.400 . S
C109 N112 1.351 . S
C109 C114 1.501 . S
C110 C111 1.387 . S
C110 N113 1.341 . S
C111 C109 1.400 . S
C111 C110 1.387 . S
N112 Co103 2.022 . S
N112 C109 1.351 . S
N112 N113 1.365 . S
N113 C110 1.341 . S
N113 N112 1.365 . S
N113 H133 0.862 . S
C114 C109 1.501 . S
C114 H115 0.961 . S
C114 H116 0.961 . S
C114 H117 0.960 . S
H115 C114 0.961 . S
H116 C114 0.961 . S
H117 C114 0.960 . S
C118 N119 1.342 . S
C118 C122 1.401 . S
C118 C123 1.499 . S
N119 Co102 1.989 . S
N119 C118 1.342 . S
N119 N120 1.388 . S
N120 Co103 1.993 . S
N120 N119 1.388 . S
N120 C121 1.346 . S
C121 N120 1.346 . S
C121 C122 1.396 . S
C121 C131 1.510 . S
C122 C118 1.401 . S
C122 C121 1.396 . S
C123 C118 1.499 . S
C123 H124 0.959 . S
C123 H125 0.960 . S
C123 H126 0.961 . S
H124 C123 0.959 . S
H125 C123 0.960 . S
H126 C123 0.961 . S
O127 Co102 1.967 . S
O127 C135 1.258 . S
O128 Co103 1.941 . S
O128 C135 1.266 . S
H129 C131 0.959 . S
H130 C131 0.961 . S
C131 C121 1.510 . S
C131 H129 0.959 . S
C131 H130 0.961 . S
C131 H132 0.960 . S
H132 C131 0.960 . S
H133 N113 0.862 . S
O134 Co102 1.920 . S
O134 C107 1.289 . S
C135 O127 1.258 . S
C135 O128 1.266 . S
Co136 O139 1.970 . S
Co136 N153 1.989 . S
Co136 O161 1.967 . S
Co136 O168 1.920 . S
Co137 O140 1.966 . S
Co137 N146 2.022 . S
Co137 N154 1.993 . S
Co137 O162 1.941 . S
C138 O139 1.258 . S
C138 O140 1.263 . S
O139 Co136 1.970 . S
O139 C138 1.258 . S
O140 Co137 1.966 . S
O140 C138 1.263 . S
C141 O142 1.235 . S
C141 O168 1.289 . S
O142 C141 1.235 . S
C143 C145 1.400 . S
C143 N146 1.351 . S
C143 C148 1.501 . S
C144 C145 1.387 . S
C144 N147 1.341 . S
C145 C143 1.400 . S
C145 C144 1.387 . S
N146 Co137 2.022 . S
N146 C143 1.351 . S
N146 N147 1.365 . S
N147 C144 1.341 . S
N147 N146 1.365 . S
N147 H167 0.862 . S
C148 C143 1.501 . S
C148 H149 0.961 . S
C148 H150 0.961 . S
C148 H151 0.960 . S
H149 C148 0.961 . S
H150 C148 0.961 . S
H151 C148 0.960 . S
C152 N153 1.342 . S
C152 C156 1.401 . S
C152 C157 1.499 . S
N153 Co136 1.989 . S
N153 C152 1.342 . S
N153 N154 1.388 . S
N154 Co137 1.993 . S
N154 N153 1.388 . S
N154 C155 1.346 . S
C155 N154 1.346 . S
C155 C156 1.396 . S
C155 C165 1.510 . S
C156 C152 1.401 . S
C156 C155 1.396 . S
C157 C152 1.499 . S
C157 H158 0.959 . S
C157 H159 0.960 . S
C157 H160 0.961 . S
H158 C157 0.959 . S
H159 C157 0.960 . S
H160 C157 0.961 . S
O161 Co136 1.967 . S
O161 C169 1.258 . S
O162 Co137 1.941 . S
O162 C169 1.266 . S
H163 C165 0.959 . S
H164 C165 0.961 . S
C165 C155 1.510 . S
C165 H163 0.959 . S
C165 H164 0.961 . S
C165 H166 0.960 . S
H166 C165 0.960 . S
H167 N147 0.862 . S
O168 Co136 1.920 . S
O168 C141 1.289 . S
C169 O161 1.258 . S
C169 O162 1.266 . S
Co170 O173 1.970 . S
Co170 N187 1.989 . S
Co170 O195 1.967 . S
Co170 O202 1.920 . S
Co171 O174 1.966 . S
Co171 N180 2.022 . S
Co171 N188 1.993 . S
Co171 O196 1.941 . S
C172 O173 1.258 . S
C172 O174 1.263 . S
O173 Co170 1.970 . S
O173 C172 1.258 . S
O174 Co171 1.966 . S
O174 C172 1.263 . S
C175 O176 1.235 . S
C175 O202 1.289 . S
O176 C175 1.235 . S
C177 C179 1.400 . S
C177 N180 1.351 . S
C177 C182 1.501 . S
C178 C179 1.387 . S
C178 N181 1.341 . S
C179 C177 1.400 . S
C179 C178 1.387 . S
N180 Co171 2.022 . S
N180 C177 1.351 . S
N180 N181 1.365 . S
N181 C178 1.341 . S
N181 N180 1.365 . S
N181 H201 0.862 . S
C182 C177 1.501 . S
C182 H183 0.961 . S
C182 H184 0.961 . S
C182 H185 0.960 . S
H183 C182 0.961 . S
H184 C182 0.961 . S
H185 C182 0.960 . S
C186 N187 1.342 . S
C186 C190 1.401 . S
C186 C191 1.499 . S
N187 Co170 1.989 . S
N187 C186 1.342 . S
N187 N188 1.388 . S
N188 Co171 1.993 . S
N188 N187 1.388 . S
N188 C189 1.346 . S
C189 N188 1.346 . S
C189 C190 1.396 . S
C189 C199 1.510 . S
C190 C186 1.401 . S
C190 C189 1.396 . S
C191 C186 1.499 . S
C191 H192 0.959 . S
C191 H193 0.960 . S
C191 H194 0.961 . S
H192 C191 0.959 . S
H193 C191 0.960 . S
H194 C191 0.961 . S
O195 Co170 1.967 . S
O195 C203 1.258 . S
O196 Co171 1.941 . S
O196 C203 1.266 . S
H197 C199 0.959 . S
H198 C199 0.961 . S
C199 C189 1.510 . S
C199 H197 0.959 . S
C199 H198 0.961 . S
C199 H200 0.960 . S
H200 C199 0.960 . S
H201 N181 0.862 . S
O202 Co170 1.920 . S
O202 C175 1.289 . S
C203 O195 1.258 . S
C203 O196 1.266 . S
Co204 O207 1.970 . S
Co204 N221 1.989 . S
Co204 O229 1.967 . S
Co204 O236 1.920 . S
Co205 O208 1.966 . S
Co205 N214 2.022 . S
Co205 N222 1.993 . S
Co205 O230 1.941 . S
C206 O207 1.258 . S
C206 O208 1.263 . S
O207 Co204 1.970 . S
O207 C206 1.258 . S
O208 Co205 1.966 . S
O208 C206 1.263 . S
C209 O210 1.235 . S
C209 O236 1.289 . S
O210 C209 1.235 . S
C211 C213 1.400 . S
C211 N214 1.351 . S
C211 C216 1.501 . S
C212 C213 1.387 . S
C212 N215 1.341 . S
C213 C211 1.400 . S
C213 C212 1.387 . S
N214 Co205 2.022 . S
N214 C211 1.351 . S
N214 N215 1.365 . S
N215 C212 1.341 . S
N215 N214 1.365 . S
N215 H235 0.862 . S
C216 C211 1.501 . S
C216 H217 0.961 . S
C216 H218 0.961 . S
C216 H219 0.960 . S
H217 C216 0.961 . S
H218 C216 0.961 . S
H219 C216 0.960 . S
C220 N221 1.342 . S
C220 C224 1.401 . S
C220 C225 1.499 . S
N221 Co204 1.989 . S
N221 C220 1.342 . S
N221 N222 1.388 . S
N222 Co205 1.993 . S
N222 N221 1.388 . S
N222 C223 1.346 . S
C223 N222 1.346 . S
C223 C224 1.396 . S
C223 C233 1.510 . S
C224 C220 1.401 . S
C224 C223 1.396 . S
C225 C220 1.499 . S
C225 H226 0.959 . S
C225 H227 0.960 . S
C225 H228 0.961 . S
H226 C225 0.959 . S
H227 C225 0.960 . S
H228 C225 0.961 . S
O229 Co204 1.967 . S
O229 C237 1.258 . S
O230 Co205 1.941 . S
O230 C237 1.266 . S
H231 C233 0.959 . S
H232 C233 0.961 . S
C233 C223 1.510 . S
C233 H231 0.959 . S
C233 H232 0.961 . S
C233 H234 0.960 . S
H234 C233 0.960 . S
H235 N215 0.862 . S
O236 Co204 1.920 . S
O236 C209 1.289 . S
C237 O229 1.258 . S
C237 O230 1.266 . S
Co238 O241 1.970 . S
Co238 N255 1.989 . S
Co238 O263 1.967 . S
Co238 O270 1.920 . S
Co239 O242 1.966 . S
Co239 N248 2.022 . S
Co239 N256 1.993 . S
Co239 O264 1.941 . S
C240 O241 1.258 . S
C240 O242 1.263 . S
O241 Co238 1.970 . S
O241 C240 1.258 . S
O242 Co239 1.966 . S
O242 C240 1.263 . S
C243 O244 1.235 . S
C243 O270 1.289 . S
O244 C243 1.235 . S
C245 C247 1.400 . S
C245 N248 1.351 . S
C245 C250 1.501 . S
C246 C247 1.387 . S
C246 N249 1.341 . S
C247 C245 1.400 . S
C247 C246 1.387 . S
N248 Co239 2.022 . S
N248 C245 1.351 . S
N248 N249 1.365 . S
N249 C246 1.341 . S
N249 N248 1.365 . S
N249 H269 0.862 . S
C250 C245 1.501 . S
C250 H251 0.961 . S
C250 H252 0.961 . S
C250 H253 0.960 . S
H251 C250 0.961 . S
H252 C250 0.961 . S
H253 C250 0.960 . S
C254 N255 1.342 . S
C254 C258 1.401 . S
C254 C259 1.499 . S
N255 Co238 1.989 . S
N255 C254 1.342 . S
N255 N256 1.388 . S
N256 Co239 1.993 . S
N256 N255 1.388 . S
N256 C257 1.346 . S
C257 N256 1.346 . S
C257 C258 1.396 . S
C257 C267 1.510 . S
C258 C254 1.401 . S
C258 C257 1.396 . S
C259 C254 1.499 . S
C259 H260 0.959 . S
C259 H261 0.960 . S
C259 H262 0.961 . S
H260 C259 0.959 . S
H261 C259 0.960 . S
H262 C259 0.961 . S
O263 Co238 1.967 . S
O263 C271 1.258 . S
O264 Co239 1.941 . S
O264 C271 1.266 . S
H265 C267 0.959 . S
H266 C267 0.961 . S
C267 C257 1.510 . S
C267 H265 0.959 . S
C267 H266 0.961 . S
C267 H268 0.960 . S
H268 C267 0.960 . S
H269 N249 0.862 . S
O270 Co238 1.920 . S
O270 C243 1.289 . S
C271 O263 1.258 . S
C271 O264 1.266 . S
Co272 O275 1.970 . S
Co272 N289 1.989 . S
Co272 O297 1.967 . S
Co272 O304 1.920 . S
Co273 O276 1.966 . S
Co273 N282 2.022 . S
Co273 N290 1.993 . S
Co273 O298 1.941 . S
C274 O275 1.258 . S
C274 O276 1.263 . S
O275 Co272 1.970 . S
O275 C274 1.258 . S
O276 Co273 1.966 . S
O276 C274 1.263 . S
C277 O278 1.235 . S
C277 O304 1.289 . S
O278 C277 1.235 . S
C279 C281 1.400 . S
C279 N282 1.351 . S
C279 C284 1.501 . S
C280 C281 1.387 . S
C280 N283 1.341 . S
C281 C279 1.400 . S
C281 C280 1.387 . S
N282 Co273 2.022 . S
N282 C279 1.351 . S
N282 N283 1.365 . S
N283 C280 1.341 . S
N283 N282 1.365 . S
N283 H303 0.862 . S
C284 C279 1.501 . S
C284 H285 0.961 . S
C284 H286 0.961 . S
C284 H287 0.960 . S
H285 C284 0.961 . S
H286 C284 0.961 . S
H287 C284 0.960 . S
C288 N289 1.342 . S
C288 C292 1.401 . S
C288 C293 1.499 . S
N289 Co272 1.989 . S
N289 C288 1.342 . S
N289 N290 1.388 . S
N290 Co273 1.993 . S
N290 N289 1.388 . S
N290 C291 1.346 . S
C291 N290 1.346 . S
C291 C292 1.396 . S
C291 C301 1.510 . S
C292 C288 1.401 . S
C292 C291 1.396 . S
C293 C288 1.499 . S
C293 H294 0.959 . S
C293 H295 0.960 . S
C293 H296 0.961 . S
H294 C293 0.959 . S
H295 C293 0.960 . S
H296 C293 0.961 . S
O297 Co272 1.967 . S
O297 C305 1.258 . S
O298 Co273 1.941 . S
O298 C305 1.266 . S
H299 C301 0.959 . S
H300 C301 0.961 . S
C301 C291 1.510 . S
C301 H299 0.959 . S
C301 H300 0.961 . S
C301 H302 0.960 . S
H302 C301 0.960 . S
H303 N283 0.862 . S
O304 Co272 1.920 . S
O304 C277 1.289 . S
C305 O297 1.258 . S
C305 O298 1.266 . S
Co306 O309 1.970 . S
Co306 N323 1.989 . S
Co306 O331 1.967 . S
Co306 O338 1.920 . S
Co307 O310 1.966 . S
Co307 N316 2.022 . S
Co307 N324 1.993 . S
Co307 O332 1.941 . S
C308 O309 1.258 . S
C308 O310 1.263 . S
O309 Co306 1.970 . S
O309 C308 1.258 . S
O310 Co307 1.966 . S
O310 C308 1.263 . S
C311 O312 1.235 . S
C311 O338 1.289 . S
O312 C311 1.235 . S
C313 C315 1.400 . S
C313 N316 1.351 . S
C313 C318 1.501 . S
C314 C315 1.387 . S
C314 N317 1.341 . S
C315 C313 1.400 . S
C315 C314 1.387 . S
N316 Co307 2.022 . S
N316 C313 1.351 . S
N316 N317 1.365 . S
N317 C314 1.341 . S
N317 N316 1.365 . S
N317 H337 0.862 . S
C318 C313 1.501 . S
C318 H319 0.961 . S
C318 H320 0.961 . S
C318 H321 0.960 . S
H319 C318 0.961 . S
H320 C318 0.961 . S
H321 C318 0.960 . S
C322 N323 1.342 . S
C322 C326 1.401 . S
C322 C327 1.499 . S
N323 Co306 1.989 . S
N323 C322 1.342 . S
N323 N324 1.388 . S
N324 Co307 1.993 . S
N324 N323 1.388 . S
N324 C325 1.346 . S
C325 N324 1.346 . S
C325 C326 1.396 . S
C325 C335 1.510 . S
C326 C322 1.401 . S
C326 C325 1.396 . S
C327 C322 1.499 . S
C327 H328 0.959 . S
C327 H329 0.960 . S
C327 H330 0.961 . S
H328 C327 0.959 . S
H329 C327 0.960 . S
H330 C327 0.961 . S
O331 Co306 1.967 . S
O331 C339 1.258 . S
O332 Co307 1.941 . S
O332 C339 1.266 . S
H333 C335 0.959 . S
H334 C335 0.961 . S
C335 C325 1.510 . S
C335 H333 0.959 . S
C335 H334 0.961 . S
C335 H336 0.960 . S
H336 C335 0.960 . S
H337 N317 0.862 . S
O338 Co306 1.920 . S
O338 C311 1.289 . S
C339 O331 1.258 . S
C339 O332 1.266 . S
Co340 O343 1.970 . S
Co340 N357 1.989 . S
Co340 O365 1.967 . S
Co340 O372 1.920 . S
Co341 O344 1.966 . S
Co341 N350 2.022 . S
Co341 N358 1.993 . S
Co341 O366 1.941 . S
C342 O343 1.258 . S
C342 O344 1.263 . S
O343 Co340 1.970 . S
O343 C342 1.258 . S
O344 Co341 1.966 . S
O344 C342 1.263 . S
C345 O346 1.235 . S
C345 O372 1.289 . S
O346 C345 1.235 . S
C347 C349 1.400 . S
C347 N350 1.351 . S
C347 C352 1.501 . S
C348 C349 1.387 . S
C348 N351 1.341 . S
C349 C347 1.400 . S
C349 C348 1.387 . S
N350 Co341 2.022 . S
N350 C347 1.351 . S
N350 N351 1.365 . S
N351 C348 1.341 . S
N351 N350 1.365 . S
N351 H371 0.862 . S
C352 C347 1.501 . S
C352 H353 0.961 . S
C352 H354 0.961 . S
C352 H355 0.960 . S
H353 C352 0.961 . S
H354 C352 0.961 . S
H355 C352 0.960 . S
C356 N357 1.342 . S
C356 C360 1.401 . S
C356 C361 1.499 . S
N357 Co340 1.989 . S
N357 C356 1.342 . S
N357 N358 1.388 . S
N358 Co341 1.993 . S
N358 N357 1.388 . S
N358 C359 1.346 . S
C359 N358 1.346 . S
C359 C360 1.396 . S
C359 C369 1.510 . S
C360 C356 1.401 . S
C360 C359 1.396 . S
C361 C356 1.499 . S
C361 H362 0.959 . S
C361 H363 0.960 . S
C361 H364 0.961 . S
H362 C361 0.959 . S
H363 C361 0.960 . S
H364 C361 0.961 . S
O365 Co340 1.967 . S
O365 C373 1.258 . S
O366 Co341 1.941 . S
O366 C373 1.266 . S
H367 C369 0.959 . S
H368 C369 0.961 . S
C369 C359 1.510 . S
C369 H367 0.959 . S
C369 H368 0.961 . S
C369 H370 0.960 . S
H370 C369 0.960 . S
H371 N351 0.862 . S
O372 Co340 1.920 . S
O372 C345 1.289 . S
C373 O365 1.258 . S
C373 O366 1.266 . S
Co374 O377 1.970 . S
Co374 N391 1.989 . S
Co374 O399 1.967 . S
Co374 O406 1.920 . S
Co375 O378 1.966 . S
Co375 N384 2.022 . S
Co375 N392 1.993 . S
Co375 O400 1.941 . S
C376 O377 1.258 . S
C376 O378 1.263 . S
O377 Co374 1.970 . S
O377 C376 1.258 . S
O378 Co375 1.966 . S
O378 C376 1.263 . S
C379 O380 1.235 . S
C379 O406 1.289 . S
O380 C379 1.235 . S
C381 C383 1.400 . S
C381 N384 1.351 . S
C381 C386 1.501 . S
C382 C383 1.387 . S
C382 N385 1.341 . S
C383 C381 1.400 . S
C383 C382 1.387 . S
N384 Co375 2.022 . S
N384 C381 1.351 . S
N384 N385 1.365 . S
N385 C382 1.341 . S
N385 N384 1.365 . S
N385 H405 0.862 . S
C386 C381 1.501 . S
C386 H387 0.961 . S
C386 H388 0.961 . S
C386 H389 0.960 . S
H387 C386 0.961 . S
H388 C386 0.961 . S
H389 C386 0.960 . S
C390 N391 1.342 . S
C390 C394 1.401 . S
C390 C395 1.499 . S
N391 Co374 1.989 . S
N391 C390 1.342 . S
N391 N392 1.388 . S
N392 Co375 1.993 . S
N392 N391 1.388 . S
N392 C393 1.346 . S
C393 N392 1.346 . S
C393 C394 1.396 . S
C393 C403 1.510 . S
C394 C390 1.401 . S
C394 C393 1.396 . S
C395 C390 1.499 . S
C395 H396 0.959 . S
C395 H397 0.960 . S
C395 H398 0.961 . S
H396 C395 0.959 . S
H397 C395 0.960 . S
H398 C395 0.961 . S
O399 Co374 1.967 . S
O399 C407 1.258 . S
O400 Co375 1.941 . S
O400 C407 1.266 . S
H401 C403 0.959 . S
H402 C403 0.961 . S
C403 C393 1.510 . S
C403 H401 0.959 . S
C403 H402 0.961 . S
C403 H404 0.960 . S
H404 C403 0.960 . S
H405 N385 0.862 . S
O406 Co374 1.920 . S
O406 C379 1.289 . S
C407 O399 1.258 . S
C407 O400 1.266 . S
H408 C420 0.930 . S
H409 C422 0.930 . S
H410 C423 0.930 . S
H411 C427 0.959 . S
H412 C427 0.959 . S
H413 C427 0.961 . S
H414 C428 0.960 . S
H415 C428 0.961 . S
H416 C428 0.959 . S
H417 C431 0.929 . S
H418 C432 0.931 . S
H419 C434 0.930 . S
C420 H408 0.930 . S
C420 C421 1.399 . S
C420 C425 1.399 . S
C421 C420 1.399 . S
C421 C422 1.376 . S
C422 H409 0.930 . S
C422 C421 1.376 . S
C422 C423 1.388 . S
C423 H410 0.930 . S
C423 C422 1.388 . S
C423 C424 1.390 . S
C424 C423 1.390 . S
C424 C425 1.394 . S
C424 C430 1.465 . S
C425 C420 1.399 . S
C425 C424 1.394 . S
C425 C426 1.516 . S
C426 C425 1.516 . S
C426 C427 1.502 . S
C426 C428 1.561 . S
C426 C429 1.526 . S
C427 H411 0.959 . S
C427 H412 0.959 . S
C427 H413 0.961 . S
C427 C426 1.502 . S
C428 H414 0.960 . S
C428 H415 0.961 . S
C428 H416 0.959 . S
C428 C426 1.561 . S
C429 C426 1.526 . S
C429 C430 1.396 . S
C429 C434 1.390 . S
C430 C424 1.465 . S
C430 C429 1.396 . S
C430 C431 1.399 . S
C431 H417 0.929 . S
C431 C430 1.399 . S
C431 C432 1.385 . S
C432 H418 0.931 . S
C432 C431 1.385 . S
C432 C433 1.389 . S
C433 C432 1.389 . S
C433 C434 1.387 . S
C434 H419 0.930 . S
C434 C429 1.390 . S
C434 C433 1.387 . S
H435 C447 0.930 . S
H436 C449 0.930 . S
H437 C450 0.930 1_655 S
H438 C454 0.959 . S
H439 C454 0.959 . S
H440 C454 0.961 . S
H441 C455 0.960 . S
H442 C455 0.961 . S
H443 C455 0.959 . S
H444 C458 0.929 . S
H445 C459 0.931 . S
H446 C461 0.930 . S
C447 H435 0.930 . S
C447 C448 1.399 . S
C447 C452 1.399 . S
C448 C447 1.399 . S
C448 C449 1.376 . S
C449 H436 0.930 . S
C449 C448 1.376 . S
C449 C450 1.388 . S
C450 H437 0.930 1_455 S
C450 C449 1.388 . S
C450 C451 1.390 . S
C451 C450 1.390 . S
C451 C452 1.394 . S
C451 C457 1.465 1_455 S
C452 C447 1.399 . S
C452 C451 1.394 . S
C452 C453 1.516 . S
C453 C452 1.516 . S
C453 C454 1.502 . S
C453 C455 1.561 1_455 S
C453 C456 1.526 1_455 S
C454 H438 0.959 . S
C454 H439 0.959 . S
C454 H440 0.961 . S
C454 C453 1.502 . S
C455 H441 0.960 . S
C455 H442 0.961 . S
C455 H443 0.959 . S
C455 C453 1.561 1_655 S
C456 C453 1.526 1_655 S
C456 C457 1.396 . S
C456 C461 1.390 . S
C457 C451 1.465 1_655 S
C457 C456 1.396 . S
C457 C458 1.399 . S
C458 H444 0.929 . S
C458 C457 1.399 . S
C458 C459 1.385 . S
C459 H445 0.931 . S
C459 C458 1.385 . S
C459 C460 1.389 . S
C460 C459 1.389 . S
C460 C461 1.387 . S
C461 H446 0.930 . S
C461 C456 1.390 . S
C461 C460 1.387 . S
H462 C474 0.930 . S
H463 C476 0.930 . S
H464 C477 0.930 . S
H465 C481 0.959 . S
H466 C481 0.959 . S
H467 C481 0.961 . S
H468 C482 0.960 . S
H469 C482 0.961 . S
H470 C482 0.959 . S
H471 C485 0.929 . S
H472 C486 0.931 . S
H473 C488 0.930 . S
C474 H462 0.930 . S
C474 C475 1.399 . S
C474 C479 1.399 . S
C475 C474 1.399 . S
C475 C476 1.376 . S
C476 H463 0.930 . S
C476 C475 1.376 . S
C476 C477 1.388 . S
C477 H464 0.930 . S
C477 C476 1.388 . S
C477 C478 1.390 . S
C478 C477 1.390 . S
C478 C479 1.394 . S
C478 C484 1.465 1_545 S
C479 C474 1.399 . S
C479 C478 1.394 . S
C479 C480 1.516 . S
C480 C479 1.516 . S
C480 C481 1.502 1_545 S
C480 C482 1.561 . S
C480 C483 1.526 1_545 S
C481 H465 0.959 . S
C481 H466 0.959 . S
C481 H467 0.961 . S
C481 C480 1.502 1_565 S
C482 H468 0.960 . S
C482 H469 0.961 . S
C482 H470 0.959 . S
C482 C480 1.561 . S
C483 C480 1.526 1_565 S
C483 C484 1.396 . S
C483 C488 1.390 . S
C484 C478 1.465 1_565 S
C484 C483 1.396 . S
C484 C485 1.399 . S
C485 H471 0.929 . S
C485 C484 1.399 . S
C485 C486 1.385 . S
C486 H472 0.931 . S
C486 C485 1.385 . S
C486 C487 1.389 . S
C487 C486 1.389 . S
C487 C488 1.387 . S
C488 H473 0.930 . S
C488 C483 1.390 . S
C488 C487 1.387 . S
H489 C501 0.930 . S
H490 C503 0.930 . S
H491 C504 0.930 . S
H492 C508 0.959 . S
H493 C508 0.959 . S
H494 C508 0.961 . S
H495 C509 0.960 . S
H496 C509 0.961 . S
H497 C509 0.959 . S
H498 C512 0.929 . S
H499 C513 0.931 . S
H500 C515 0.930 . S
C501 H489 0.930 . S
C501 C502 1.399 . S
C501 C506 1.399 . S
C502 C501 1.399 . S
C502 C503 1.376 . S
C503 H490 0.930 . S
C503 C502 1.376 . S
C503 C504 1.388 . S
C504 H491 0.930 . S
C504 C503 1.388 . S
C504 C505 1.390 . S
C505 C504 1.390 . S
C505 C506 1.394 . S
C505 C511 1.465 . S
C506 C501 1.399 . S
C506 C505 1.394 . S
C506 C507 1.516 . S
C507 C506 1.516 . S
C507 C508 1.502 . S
C507 C509 1.561 . S
C507 C510 1.526 . S
C508 H492 0.959 . S
C508 H493 0.959 . S
C508 H494 0.961 . S
C508 C507 1.502 . S
C509 H495 0.960 . S
C509 H496 0.961 . S
C509 H497 0.959 . S
C509 C507 1.561 . S
C510 C507 1.526 . S
C510 C511 1.396 . S
C510 C515 1.390 . S
C511 C505 1.465 . S
C511 C510 1.396 . S
C511 C512 1.399 . S
C512 H498 0.929 . S
C512 C511 1.399 . S
C512 C513 1.385 . S
C513 H499 0.931 . S
C513 C512 1.385 . S
C513 C514 1.389 . S
C514 C513 1.389 . S
C514 C515 1.387 . S
C515 H500 0.930 . S
C515 C510 1.390 . S
C515 C514 1.387 . S
H516 C528 0.930 . S
H517 C530 0.930 . S
H518 C531 0.930 . S
H519 C535 0.959 . S
H520 C535 0.959 . S
H521 C535 0.961 . S
H522 C536 0.960 . S
H523 C536 0.961 . S
H524 C536 0.959 . S
H525 C539 0.929 1_655 S
H526 C540 0.931 . S
H527 C542 0.930 . S
C528 H516 0.930 . S
C528 C529 1.399 . S
C528 C533 1.399 . S
C529 C528 1.399 . S
C529 C530 1.376 . S
C530 H517 0.930 . S
C530 C529 1.376 . S
C530 C531 1.388 . S
C531 H518 0.930 . S
C531 C530 1.388 . S
C531 C532 1.390 . S
C532 C531 1.390 . S
C532 C533 1.394 . S
C532 C538 1.465 1_655 S
C533 C528 1.399 . S
C533 C532 1.394 . S
C533 C534 1.516 1_655 S
C534 C533 1.516 1_455 S
C534 C535 1.502 . S
C534 C536 1.561 1_455 S
C534 C537 1.526 . S
C535 H519 0.959 . S
C535 H520 0.959 . S
C535 H521 0.961 . S
C535 C534 1.502 . S
C536 H522 0.960 . S
C536 H523 0.961 . S
C536 H524 0.959 . S
C536 C534 1.561 1_655 S
C537 C534 1.526 . S
C537 C538 1.396 . S
C537 C542 1.390 . S
C538 C532 1.465 1_455 S
C538 C537 1.396 . S
C538 C539 1.399 . S
C539 H525 0.929 1_455 S
C539 C538 1.399 . S
C539 C540 1.385 . S
C540 H526 0.931 . S
C540 C539 1.385 . S
C540 C541 1.389 . S
C541 C540 1.389 . S
C541 C542 1.387 . S
C542 H527 0.930 . S
C542 C537 1.390 . S
C542 C541 1.387 . S
H543 C555 0.930 . S
H544 C557 0.930 . S
H545 C558 0.930 . S
H546 C562 0.959 . S
H547 C562 0.959 . S
H548 C562 0.961 . S
H549 C563 0.960 . S
H550 C563 0.961 1_545 S
H551 C563 0.959 . S
H552 C566 0.929 1_565 S
H553 C567 0.931 . S
H554 C569 0.930 . S
C555 H543 0.930 . S
C555 C556 1.399 . S
C555 C560 1.399 . S
C556 C555 1.399 . S
C556 C557 1.376 . S
C557 H544 0.930 . S
C557 C556 1.376 . S
C557 C558 1.388 . S
C558 H545 0.930 . S
C558 C557 1.388 . S
C558 C559 1.390 . S
C559 C558 1.390 . S
C559 C560 1.394 . S
C559 C565 1.472 . S
C560 C555 1.399 . S
C560 C559 1.394 . S
C560 C561 1.516 1_565 S
C561 C560 1.516 1_545 S
C561 C562 1.502 . S
C561 C563 1.561 1_545 S
C561 C564 1.526 . S
C562 H546 0.959 . S
C562 H547 0.959 . S
C562 H548 0.961 . S
C562 C561 1.502 . S
C563 H549 0.960 . S
C563 H550 0.961 1_565 S
C563 H551 0.959 . S
C563 C561 1.561 1_565 S
C564 C561 1.526 . S
C564 C565 1.392 1_545 S
C564 C569 1.390 . S
C565 C559 1.472 . S
C565 C564 1.392 1_565 S
C565 C566 1.396 1_565 S
C566 H552 0.929 1_545 S
C566 C565 1.396 1_545 S
C566 C567 1.385 . S
C567 H553 0.931 . S
C567 C566 1.385 . S
C567 C568 1.389 . S
C568 C567 1.389 . S
C568 C569 1.387 . S
C569 H554 0.930 . S
C569 C564 1.390 . S
C569 C568 1.387 . S
H570 C582 0.930 . S
H571 C584 0.930 . S
H572 C585 0.930 1_545 S
H573 C589 0.959 . S
H574 C589 0.959 . S
H575 C589 0.961 . S
H576 C590 0.960 . S
H577 C590 0.961 . S
H578 C590 0.959 . S
H579 C593 0.929 . S
H580 C594 0.931 . S
H581 C596 0.930 . S
C582 H570 0.930 . S
C582 C583 1.399 . S
C582 C587 1.399 . S
C583 C582 1.399 . S
C583 C584 1.376 . S
C584 H571 0.930 . S
C584 C583 1.376 . S
C584 C585 1.388 . S
C585 H572 0.930 1_565 S
C585 C584 1.388 . S
C585 C586 1.390 . S
C586 C585 1.390 . S
C586 C587 1.394 . S
C586 C592 1.465 1_565 S
C587 C582 1.399 . S
C587 C586 1.394 . S
C587 C588 1.516 1_556 S
C588 C587 1.516 1_554 S
C588 C589 1.502 . S
C588 C590 1.561 . S
C588 C591 1.526 1_565 S
C589 H573 0.959 . S
C589 H574 0.959 . S
C589 H575 0.961 . S
C589 C588 1.502 . S
C590 H576 0.960 . S
C590 H577 0.961 . S
C590 H578 0.959 . S
C590 C588 1.561 . S
C591 C588 1.526 1_545 S
C591 C592 1.396 1_554 S
C591 C596 1.390 . S
C592 C586 1.465 1_545 S
C592 C591 1.396 1_556 S
C592 C593 1.399 . S
C593 H579 0.929 . S
C593 C592 1.399 . S
C593 C594 1.385 1_556 S
C594 H580 0.931 . S
C594 C593 1.385 1_554 S
C594 C595 1.389 . S
C595 C594 1.389 . S
C595 C596 1.387 . S
C596 H581 0.930 . S
C596 C591 1.390 . S
C596 C595 1.387 . S
H597 C609 0.930 . S
H598 C611 0.930 . S
H599 C612 0.930 . S
H600 C616 0.959 . S
H601 C616 0.959 . S
H602 C616 0.961 . S
H603 C617 0.960 . S
H604 C617 0.961 . S
H605 C617 0.959 . S
H606 C620 0.929 . S
H607 C621 0.931 . S
H608 C623 0.930 . S
C609 H597 0.930 . S
C609 C610 1.399 . S
C609 C614 1.399 . S
C610 C609 1.399 . S
C610 C611 1.376 . S
C611 H598 0.930 . S
C611 C610 1.376 . S
C611 C612 1.388 . S
C612 H599 0.930 . S
C612 C611 1.388 . S
C612 C613 1.390 . S
C613 C612 1.390 . S
C613 C614 1.394 . S
C613 C619 1.465 . S
C614 C609 1.399 . S
C614 C613 1.394 . S
C614 C615 1.516 . S
C615 C614 1.516 . S
C615 C616 1.502 . S
C615 C617 1.561 . S
C615 C618 1.526 . S
C616 H600 0.959 . S
C616 H601 0.959 . S
C616 H602 0.961 . S
C616 C615 1.502 . S
C617 H603 0.960 . S
C617 H604 0.961 . S
C617 H605 0.959 . S
C617 C615 1.561 . S
C618 C615 1.526 . S
C618 C619 1.396 . S
C618 C623 1.390 . S
C619 C613 1.465 . S
C619 C618 1.396 . S
C619 C620 1.399 . S
C620 H606 0.929 . S
C620 C619 1.399 . S
C620 C621 1.385 . S
C621 H607 0.931 . S
C621 C620 1.385 . S
C621 C622 1.389 . S
C622 C621 1.389 . S
C622 C623 1.387 . S
C623 H608 0.930 . S
C623 C618 1.390 . S
C623 C622 1.387 . S
H624 C636 0.930 . S
H625 C638 0.930 . S
H626 C639 0.930 . S
H627 C643 0.959 . S
H628 C643 0.959 . S
H629 C643 0.961 . S
H630 C644 0.960 . S
H631 C644 0.961 . S
H632 C644 0.959 . S
H633 C647 0.929 1_455 S
H634 C648 0.931 . S
H635 C650 0.930 . S
C636 H624 0.930 . S
C636 C637 1.399 . S
C636 C641 1.399 . S
C637 C636 1.399 . S
C637 C638 1.376 . S
C638 H625 0.930 . S
C638 C637 1.376 . S
C638 C639 1.388 . S
C639 H626 0.930 . S
C639 C638 1.388 . S
C639 C640 1.390 . S
C640 C639 1.390 . S
C640 C641 1.394 . S
C640 C646 1.465 1_455 S
C641 C636 1.399 . S
C641 C640 1.394 . S
C641 C642 1.516 1_455 S
C642 C641 1.516 1_655 S
C642 C643 1.502 . S
C642 C644 1.561 . S
C642 C645 1.526 . S
C643 H627 0.959 . S
C643 H628 0.959 . S
C643 H629 0.961 . S
C643 C642 1.502 . S
C644 H630 0.960 . S
C644 H631 0.961 . S
C644 H632 0.959 . S
C644 C642 1.561 . S
C645 C642 1.526 . S
C645 C646 1.396 . S
C645 C650 1.390 . S
C646 C640 1.465 1_655 S
C646 C645 1.396 . S
C646 C647 1.399 . S
C647 H633 0.929 1_655 S
C647 C646 1.399 . S
C647 C648 1.385 . S
C648 H634 0.931 . S
C648 C647 1.385 . S
C648 C649 1.389 . S
C649 C648 1.389 . S
C649 C650 1.387 . S
C650 H635 0.930 . S
C650 C645 1.390 . S
C650 C649 1.387 . S
H651 C663 0.930 . S
H652 C665 0.930 . S
H653 C666 0.930 . S
H654 C670 0.959 . S
H655 C670 0.959 . S
H656 C670 0.961 . S
H657 C671 0.960 . S
H658 C671 0.961 . S
H659 C671 0.959 . S
H660 C674 0.929 1_565 S
H661 C675 0.931 . S
H662 C677 0.930 . S
C663 H651 0.930 . S
C663 C664 1.399 . S
C663 C668 1.399 . S
C664 C663 1.399 . S
C664 C665 1.376 . S
C665 H652 0.930 . S
C665 C664 1.376 . S
C665 C666 1.388 1_554 S
C666 H653 0.930 . S
C666 C665 1.388 1_556 S
C666 C667 1.390 . S
C667 C666 1.390 . S
C667 C668 1.394 1_556 S
C667 C673 1.465 1_565 S
C668 C663 1.399 . S
C668 C667 1.394 1_554 S
C668 C669 1.516 1_565 S
C669 C668 1.516 1_545 S
C669 C670 1.502 . S
C669 C671 1.561 . S
C669 C672 1.526 1_554 S
C670 H654 0.959 . S
C670 H655 0.959 . S
C670 H656 0.961 . S
C670 C669 1.502 . S
C671 H657 0.960 . S
C671 H658 0.961 . S
C671 H659 0.959 . S
C671 C669 1.561 . S
C672 C669 1.526 1_556 S
C672 C673 1.396 . S
C672 C677 1.390 . S
C673 C667 1.465 1_545 S
C673 C672 1.396 . S
C673 C674 1.399 . S
C674 H660 0.929 1_545 S
C674 C673 1.399 . S
C674 C675 1.385 . S
C675 H661 0.931 . S
C675 C674 1.385 . S
C675 C676 1.389 . S
C676 C675 1.389 . S
C676 C677 1.387 . S
C677 H662 0.930 . S
C677 C672 1.390 . S
C677 C676 1.387 . S
H678 C690 0.930 . S
H679 C692 0.930 . S
H680 C693 0.930 . S
H681 C697 0.959 . S
H682 C697 0.959 . S
H683 C697 0.961 . S
H684 C698 0.960 . S
H685 C698 0.961 . S
H686 C698 0.959 . S
H687 C701 0.929 . S
H688 C702 0.931 . S
H689 C704 0.930 . S
C690 H678 0.930 . S
C690 C691 1.399 . S
C690 C695 1.399 . S
C691 C690 1.399 . S
C691 C692 1.376 . S
C692 H679 0.930 . S
C692 C691 1.376 . S
C692 C693 1.388 . S
C693 H680 0.930 . S
C693 C692 1.388 . S
C693 C694 1.390 . S
C694 C693 1.390 . S
C694 C695 1.394 . S
C694 C700 1.465 . S
C695 C690 1.399 . S
C695 C694 1.394 . S
C695 C696 1.516 . S
C696 C695 1.516 . S
C696 C697 1.502 . S
C696 C698 1.561 . S
C696 C699 1.526 . S
C697 H681 0.959 . S
C697 H682 0.959 . S
C697 H683 0.961 . S
C697 C696 1.502 . S
C698 H684 0.960 . S
C698 H685 0.961 . S
C698 H686 0.959 . S
C698 C696 1.561 . S
C699 C696 1.526 . S
C699 C700 1.396 . S
C699 C704 1.390 . S
C700 C694 1.465 . S
C700 C699 1.396 . S
C700 C701 1.399 . S
C701 H687 0.929 . S
C701 C700 1.399 . S
C701 C702 1.385 . S
C702 H688 0.931 . S
C702 C701 1.385 . S
C702 C703 1.389 . S
C703 C702 1.389 . S
C703 C704 1.387 . S
C704 H689 0.930 . S
C704 C699 1.390 . S
C704 C703 1.387 . S
H705 C717 0.930 . S
H706 C719 0.930 . S
H707 C720 0.930 . S
H708 C724 0.959 . S
H709 C724 0.959 1_655 S
H710 C724 0.961 . S
H711 C725 0.960 . S
H712 C725 0.961 . S
H713 C725 0.959 . S
H714 C728 0.929 . S
H715 C729 0.931 . S
H716 C731 0.930 . S
C717 H705 0.930 . S
C717 C718 1.399 . S
C717 C722 1.399 . S
C718 C717 1.399 . S
C718 C719 1.376 . S
C719 H706 0.930 . S
C719 C718 1.376 . S
C719 C720 1.388 . S
C720 H707 0.930 . S
C720 C719 1.388 . S
C720 C721 1.390 . S
C721 C720 1.390 . S
C721 C722 1.394 . S
C721 C727 1.465 1_455 S
C722 C717 1.399 . S
C722 C721 1.394 . S
C722 C723 1.516 1_455 S
C723 C722 1.516 1_655 S
C723 C724 1.502 1_655 S
C723 C725 1.561 . S
C723 C726 1.526 . S
C724 H708 0.959 . S
C724 H709 0.959 1_455 S
C724 H710 0.961 . S
C724 C723 1.502 1_455 S
C725 H711 0.960 . S
C725 H712 0.961 . S
C725 H713 0.959 . S
C725 C723 1.561 . S
C726 C723 1.526 . S
C726 C727 1.396 . S
C726 C731 1.390 . S
C727 C721 1.465 1_655 S
C727 C726 1.396 . S
C727 C728 1.399 . S
C728 H714 0.929 . S
C728 C727 1.399 . S
C728 C729 1.385 . S
C729 H715 0.931 . S
C729 C728 1.385 . S
C729 C730 1.389 . S
C730 C729 1.389 . S
C730 C731 1.387 . S
C731 H716 0.930 . S
C731 C726 1.390 . S
C731 C730 1.387 . S
H732 C744 0.930 . S
H733 C746 0.930 . S
H734 C747 0.930 . S
H735 C751 0.959 . S
H736 C751 0.959 . S
H737 C751 0.961 1_455 S
H738 C752 0.965 . S
H739 C752 0.957 1_655 S
H740 C752 0.960 1_655 S
H741 C755 0.929 . S
H742 C756 0.931 . S
H743 C758 0.930 . S
C744 H732 0.930 . S
C744 C745 1.399 . S
C744 C749 1.399 . S
C745 C744 1.399 . S
C745 C746 1.376 . S
C746 H733 0.930 . S
C746 C745 1.376 . S
C746 C747 1.388 . S
C747 H734 0.930 . S
C747 C746 1.388 . S
C747 C748 1.390 . S
C748 C747 1.390 . S
C748 C749 1.394 . S
C748 C754 1.465 1_445 S
C749 C744 1.399 . S
C749 C748 1.394 . S
C749 C750 1.517 1_445 S
C750 C749 1.517 1_665 S
C750 C751 1.501 1_565 S
C750 C752 1.559 1_655 S
C750 C753 1.525 . S
C751 H735 0.959 . S
C751 H736 0.959 . S
C751 H737 0.961 1_655 S
C751 C750 1.501 1_545 S
C752 H738 0.965 . S
C752 H739 0.957 1_455 S
C752 H740 0.960 1_455 S
C752 C750 1.559 1_455 S
C753 C750 1.525 . S
C753 C754 1.396 . S
C753 C758 1.390 . S
C754 C748 1.465 1_665 S
C754 C753 1.396 . S
C754 C755 1.399 . S
C755 H741 0.929 . S
C755 C754 1.399 . S
C755 C756 1.385 . S
C756 H742 0.931 . S
C756 C755 1.385 . S
C756 C757 1.389 . S
C757 C756 1.389 . S
C757 C758 1.387 . S
C758 H743 0.930 . S
C758 C753 1.390 . S
C758 C757 1.387 . S
H759 C771 0.930 . S
H760 C773 0.930 . S
H761 C774 0.930 1_655 S
H762 C778 0.964 . S
H763 C778 0.968 . S
H764 C778 0.954 1_545 S
H765 C779 0.952 1_445 S
H766 C779 0.970 . S
H767 C779 0.954 . S
H768 C782 0.929 . S
H769 C783 0.931 . S
H770 C785 0.930 . S
C771 H759 0.930 . S
C771 C772 1.399 . S
C771 C776 1.399 . S
C772 C771 1.399 . S
C772 C773 1.376 . S
C773 H760 0.930 . S
C773 C772 1.376 . S
C773 C774 1.388 . S
C774 H761 0.930 1_455 S
C774 C773 1.388 . S
C774 C775 1.390 . S
C775 C774 1.390 . S
C775 C776 1.393 . S
C775 C781 1.465 1_445 S
C776 C771 1.399 . S
C776 C775 1.393 . S
C776 C777 1.519 1_545 S
C777 C776 1.519 1_565 S
C777 C778 1.495 . S
C777 C779 1.566 1_455 S
C777 C780 1.524 1_455 S
C778 H762 0.964 . S
C778 H763 0.968 . S
C778 H764 0.954 1_565 S
C778 C777 1.495 . S
C779 H765 0.952 1_665 S
C779 H766 0.970 . S
C779 H767 0.954 . S
C779 C777 1.566 1_655 S
C780 C777 1.524 1_655 S
C780 C781 1.396 . S
C780 C785 1.390 . S
C781 C775 1.465 1_665 S
C781 C780 1.396 . S
C781 C782 1.399 . S
C782 H768 0.929 . S
C782 C781 1.399 . S
C782 C783 1.385 . S
C783 H769 0.931 . S
C783 C782 1.385 . S
C783 C784 1.389 . S
C784 C783 1.389 . S
C784 C785 1.387 . S
C785 H770 0.930 . S
C785 C780 1.390 . S
C785 C784 1.387 . S
H786 C798 0.930 . S
H787 C800 0.930 . S
H788 C801 0.930 . S
H789 C805 0.959 . S
H790 C805 0.959 . S
H791 C805 0.961 . S
H792 C806 0.960 . S
H793 C806 0.961 . S
H794 C806 0.959 1_665 S
H795 C809 0.929 . S
H796 C810 0.931 . S
H797 C812 0.930 . S
C798 H786 0.930 . S
C798 C799 1.399 . S
C798 C803 1.399 . S
C799 C798 1.399 . S
C799 C800 1.376 . S
C800 H787 0.930 . S
C800 C799 1.376 . S
C800 C801 1.388 1_545 S
C801 H788 0.930 . S
C801 C800 1.388 1_565 S
C801 C802 1.390 . S
C802 C801 1.390 . S
C802 C803 1.394 1_565 S
C802 C808 1.465 . S
C803 C798 1.399 . S
C803 C802 1.394 1_545 S
C803 C804 1.516 1_655 S
C804 C803 1.516 1_455 S
C804 C805 1.502 . S
C804 C806 1.561 . S
C804 C807 1.526 1_545 S
C805 H789 0.959 . S
C805 H790 0.959 . S
C805 H791 0.961 . S
C805 C804 1.502 . S
C806 H792 0.960 . S
C806 H793 0.961 . S
C806 H794 0.959 1_445 S
C806 C804 1.561 . S
C807 C804 1.526 1_565 S
C807 C808 1.396 1_455 S
C807 C812 1.390 . S
C808 C802 1.465 . S
C808 C807 1.396 1_655 S
C808 C809 1.399 . S
C809 H795 0.929 . S
C809 C808 1.399 . S
C809 C810 1.385 1_655 S
C810 H796 0.931 . S
C810 C809 1.385 1_455 S
C810 C811 1.389 . S
C811 C810 1.389 . S
C811 C812 1.387 . S
C812 H797 0.930 . S
C812 C807 1.390 . S
C812 C811 1.387 . S
H813 C825 0.930 . S
H814 C827 0.930 . S
H815 C828 0.930 . S
H816 C832 0.959 . S
H817 C832 0.959 . S
H818 C832 0.961 1_565 S
H819 C833 0.960 1_565 S
H820 C833 0.961 . S
H821 C833 0.959 . S
H822 C836 0.929 . S
H823 C837 0.931 . S
H824 C839 0.930 . S
C825 H813 0.930 . S
C825 C826 1.399 . S
C825 C830 1.399 . S
C826 C825 1.399 . S
C826 C827 1.376 . S
C827 H814 0.930 . S
C827 C826 1.376 . S
C827 C828 1.388 1_655 S
C828 H815 0.930 . S
C828 C827 1.388 1_455 S
C828 C829 1.379 1_455 S
C829 C828 1.379 1_655 S
C829 C830 1.408 . S
C829 C835 1.465 1_665 S
C830 C825 1.399 . S
C830 C829 1.408 . S
C830 C831 1.501 1_565 S
C831 C830 1.501 1_545 S
C831 C832 1.503 . S
C831 C833 1.569 . S
C831 C834 1.533 1_655 S
C832 H816 0.959 . S
C832 H817 0.959 . S
C832 H818 0.961 1_545 S
C832 C831 1.503 . S
C833 H819 0.960 1_545 S
C833 H820 0.961 . S
C833 H821 0.959 . S
C833 C831 1.569 . S
C834 C831 1.533 1_455 S
C834 C835 1.396 . S
C834 C839 1.390 . S
C835 C829 1.465 1_445 S
C835 C834 1.396 . S
C835 C836 1.399 . S
C836 H822 0.929 . S
C836 C835 1.399 . S
C836 C837 1.385 . S
C837 H823 0.931 . S
C837 C836 1.385 . S
C837 C838 1.389 . S
C838 C837 1.389 . S
C838 C839 1.387 . S
C839 H824 0.930 . S
C839 C834 1.390 . S
C839 C838 1.387 . S
H840 C852 0.930 . S
H841 C854 0.930 . S
H842 C855 0.930 . S
H843 C859 0.959 . S
H844 C859 0.959 . S
H845 C859 0.961 . S
H846 C860 0.960 . S
H847 C860 0.961 . S
H848 C860 0.959 . S
H849 C863 0.929 . S
H850 C864 0.931 . S
H851 C866 0.930 . S
C852 H840 0.930 . S
C852 C853 1.399 . S
C852 C857 1.399 . S
C853 C852 1.399 . S
C853 C854 1.376 . S
C854 H841 0.930 . S
C854 C853 1.376 . S
C854 C855 1.388 . S
C855 H842 0.930 . S
C855 C854 1.388 . S
C855 C856 1.390 . S
C856 C855 1.390 . S
C856 C857 1.394 . S
C856 C862 1.465 1_465 S
C857 C852 1.399 . S
C857 C856 1.394 . S
C857 C858 1.516 1_455 S
C858 C857 1.516 1_655 S
C858 C859 1.502 . S
C858 C860 1.561 1_665 S
C858 C861 1.526 1_565 S
C859 H843 0.959 . S
C859 H844 0.959 . S
C859 H845 0.961 . S
C859 C858 1.502 . S
C860 H846 0.960 . S
C860 H847 0.961 . S
C860 H848 0.959 . S
C860 C858 1.561 1_445 S
C861 C858 1.526 1_545 S
C861 C862 1.396 . S
C861 C866 1.390 . S
C862 C856 1.465 1_645 S
C862 C861 1.396 . S
C862 C863 1.399 . S
C863 H849 0.929 . S
C863 C862 1.399 . S
C863 C864 1.385 . S
C864 H850 0.931 . S
C864 C863 1.385 . S
C864 C865 1.389 . S
C865 C864 1.389 . S
C865 C866 1.387 . S
C866 H851 0.930 . S
C866 C861 1.390 . S
C866 C865 1.387 . S
H867 C879 0.930 . S
H868 C881 0.930 . S
H869 C882 0.930 . S
H870 C886 0.959 . S
H871 C886 0.959 . S
H872 C886 0.961 1_455 S
H873 C887 0.960 1_455 S
H874 C887 0.961 1_565 S
H875 C887 0.959 . S
H876 C890 0.929 1_545 S
H877 C891 0.931 . S
H878 C893 0.930 . S
C879 H867 0.930 . S
C879 C880 1.399 . S
C879 C884 1.399 . S
C880 C879 1.399 . S
C880 C881 1.376 . S
C881 H868 0.930 . S
C881 C880 1.376 . S
C881 C882 1.388 . S
C882 H869 0.930 . S
C882 C881 1.388 . S
C882 C883 1.390 . S
C883 C882 1.390 . S
C883 C884 1.394 . S
C883 C889 1.465 1_445 S
C884 C879 1.399 . S
C884 C883 1.394 . S
C884 C885 1.512 1_445 S
C885 C884 1.512 1_665 S
C885 C886 1.499 . S
C885 C887 1.563 1_565 S
C885 C888 1.531 . S
C886 H870 0.959 . S
C886 H871 0.959 . S
C886 H872 0.961 1_655 S
C886 C885 1.499 . S
C887 H873 0.960 1_655 S
C887 H874 0.961 1_545 S
C887 H875 0.959 . S
C887 C885 1.563 1_545 S
C888 C885 1.531 . S
C888 C889 1.406 . S
C888 C893 1.390 . S
C889 C883 1.465 1_665 S
C889 C888 1.406 . S
C889 C890 1.391 . S
C890 H876 0.929 1_565 S
C890 C889 1.391 . S
C890 C891 1.385 . S
C891 H877 0.931 . S
C891 C890 1.385 . S
C891 C892 1.389 . S
C892 C891 1.389 . S
C892 C893 1.387 . S
C893 H878 0.930 . S
C893 C888 1.390 . S
C893 C892 1.387 . S
H894 C906 0.930 . S
H895 C908 0.930 1_655 S
H896 C909 0.930 . S
H897 C913 0.959 . S
H898 C913 0.959 . S
H899 C913 0.961 . S
H900 C914 0.960 . S
H901 C914 0.961 . S
H902 C914 0.959 . S
H903 C917 0.929 . S
H904 C918 0.931 . S
H905 C920 0.930 . S
C906 H894 0.930 . S
C906 C907 1.399 . S
C906 C911 1.399 . S
C907 C906 1.399 . S
C907 C908 1.376 . S
C908 H895 0.930 1_455 S
C908 C907 1.376 . S
C908 C909 1.388 . S
C909 H896 0.930 . S
C909 C908 1.388 . S
C909 C910 1.390 . S
C910 C909 1.390 . S
C910 C911 1.394 . S
C910 C916 1.465 1_556 S
C911 C906 1.399 . S
C911 C910 1.394 . S
C911 C912 1.500 1_556 S
C912 C911 1.500 1_554 S
C912 C913 1.476 1_554 S
C912 C914 1.591 . S
C912 C915 1.544 . S
C913 H897 0.959 . S
C913 H898 0.959 . S
C913 H899 0.961 . S
C913 C912 1.476 1_556 S
C914 H900 0.960 . S
C914 H901 0.961 . S
C914 H902 0.959 . S
C914 C912 1.591 . S
C915 C912 1.544 . S
C915 C916 1.396 . S
C915 C920 1.390 . S
C916 C910 1.465 1_554 S
C916 C915 1.396 . S
C916 C917 1.399 . S
C917 H903 0.929 . S
C917 C916 1.399 . S
C917 C918 1.385 . S
C918 H904 0.931 . S
C918 C917 1.385 . S
C918 C919 1.389 . S
C919 C918 1.389 . S
C919 C920 1.387 . S
C920 H905 0.930 . S
C920 C915 1.390 . S
C920 C919 1.387 . S
H921 C933 0.930 . S
H922 C935 0.930 . S
H923 C936 0.930 . S
H924 C940 0.959 . S
H925 C940 0.959 . S
H926 C940 0.961 . S
H927 C941 0.960 . S
H928 C941 0.961 . S
H929 C941 0.959 . S
H930 C944 0.929 . S
H931 C945 0.931 1_565 S
H932 C947 0.930 . S
C933 H921 0.930 . S
C933 C934 1.399 . S
C933 C938 1.399 . S
C934 C933 1.399 . S
C934 C935 1.376 . S
C935 H922 0.930 . S
C935 C934 1.376 . S
C935 C936 1.388 . S
C936 H923 0.930 . S
C936 C935 1.388 . S
C936 C937 1.390 . S
C937 C936 1.390 . S
C937 C938 1.394 . S
C937 C943 1.465 . S
C938 C933 1.399 . S
C938 C937 1.394 . S
C938 C939 1.516 . S
C939 C938 1.516 . S
C939 C940 1.502 . S
C939 C941 1.561 . S
C939 C942 1.526 . S
C940 H924 0.959 . S
C940 H925 0.959 . S
C940 H926 0.961 . S
C940 C939 1.502 . S
C941 H927 0.960 . S
C941 H928 0.961 . S
C941 H929 0.959 . S
C941 C939 1.561 . S
C942 C939 1.526 . S
C942 C943 1.396 . S
C942 C947 1.390 . S
C943 C937 1.465 . S
C943 C942 1.396 . S
C943 C944 1.399 . S
C944 H930 0.929 . S
C944 C943 1.399 . S
C944 C945 1.385 . S
C945 H931 0.931 1_545 S
C945 C944 1.385 . S
C945 C946 1.389 . S
C946 C945 1.389 . S
C946 C947 1.387 . S
C947 H932 0.930 . S
C947 C942 1.390 . S
C947 C946 1.387 . S
H948 C960 0.930 . S
H949 C962 0.930 . S
H950 C963 0.930 . S
H951 C967 0.959 . S
H952 C967 0.959 . S
H953 C967 0.961 . S
H954 C968 0.960 . S
H955 C968 0.961 . S
H956 C968 0.959 . S
H957 C971 0.929 . S
H958 C972 0.931 . S
H959 C974 0.930 1_545 S
C960 H948 0.930 . S
C960 C961 1.399 . S
C960 C965 1.399 . S
C961 C960 1.399 . S
C961 C962 1.376 . S
C962 H949 0.930 . S
C962 C961 1.376 . S
C962 C963 1.388 . S
C963 H950 0.930 . S
C963 C962 1.388 . S
C963 C964 1.390 . S
C964 C963 1.390 . S
C964 C965 1.394 . S
C964 C970 1.465 . S
C965 C960 1.399 . S
C965 C964 1.394 . S
C965 C966 1.516 . S
C966 C965 1.516 . S
C966 C967 1.502 . S
C966 C968 1.561 . S
C966 C969 1.526 . S
C967 H951 0.959 . S
C967 H952 0.959 . S
C967 H953 0.961 . S
C967 C966 1.502 . S
C968 H954 0.960 . S
C968 H955 0.961 . S
C968 H956 0.959 . S
C968 C966 1.561 . S
C969 C966 1.526 . S
C969 C970 1.396 . S
C969 C974 1.390 . S
C970 C964 1.465 . S
C970 C969 1.396 . S
C970 C971 1.399 . S
C971 H957 0.929 . S
C971 C970 1.399 . S
C971 C972 1.385 . S
C972 H958 0.931 . S
C972 C971 1.385 . S
C972 C973 1.389 . S
C973 C972 1.389 . S
C973 C974 1.387 . S
C974 H959 0.930 1_565 S
C974 C969 1.390 . S
C974 C973 1.387 . S
H975 C987 0.930 . S
H976 C989 0.930 . S
H977 C990 0.930 . S
H978 C994 0.959 . S
H979 C994 0.959 . S
H980 C994 0.961 . S
H981 C995 0.960 . S
H982 C995 0.961 . S
H983 C995 0.959 . S
H984 C998 0.941 . S
H985 C999 0.931 . S
H986 C1001 0.930 . S
C987 H975 0.930 . S
C987 C988 1.399 . S
C987 C992 1.399 . S
C988 C987 1.399 . S
C988 C989 1.376 . S
C989 H976 0.930 . S
C989 C988 1.376 . S
C989 C990 1.388 . S
C990 H977 0.930 . S
C990 C989 1.388 . S
C990 C991 1.390 . S
C991 C990 1.390 . S
C991 C992 1.394 . S
C991 C997 1.465 1_554 S
C992 C987 1.399 . S
C992 C991 1.394 . S
C992 C993 1.516 1_554 S
C993 C992 1.516 1_556 S
C993 C994 1.502 . S
C993 C995 1.561 1_556 S
C993 C996 1.526 . S
C994 H978 0.959 . S
C994 H979 0.959 . S
C994 H980 0.961 . S
C994 C993 1.502 . S
C995 H981 0.960 . S
C995 H982 0.961 . S
C995 H983 0.959 . S
C995 C993 1.561 1_554 S
C996 C993 1.526 . S
C996 C997 1.396 . S
C996 C1001 1.390 . S
C997 C991 1.465 1_556 S
C997 C996 1.396 . S
C997 C998 1.399 . S
C998 H984 0.941 . S
C998 C997 1.399 . S
C998 C999 1.385 . S
C999 H985 0.931 . S
C999 C998 1.385 . S
C999 C1000 1.389 . S
C1000 C999 1.389 . S
C1000 C1001 1.387 . S
C1001 H986 0.930 . S
C1001 C996 1.390 . S
C1001 C1000 1.387 . S
H1002 C1014 0.930 . S
H1003 C1016 0.930 . S
H1004 C1017 0.930 . S
H1005 C1021 0.959 . S
H1006 C1021 0.959 . S
H1007 C1021 0.961 . S
H1008 C1022 0.960 . S
H1009 C1022 0.961 . S
H1010 C1022 0.959 . S
H1011 C1025 0.929 . S
H1012 C1026 0.931 . S
H1013 C1028 0.934 . S
C1014 H1002 0.930 . S
C1014 C1015 1.399 . S
C1014 C1019 1.399 . S
C1015 C1014 1.399 . S
C1015 C1016 1.376 . S
C1016 H1003 0.930 . S
C1016 C1015 1.376 . S
C1016 C1017 1.388 . S
C1017 H1004 0.930 . S
C1017 C1016 1.388 . S
C1017 C1018 1.390 . S
C1018 C1017 1.390 . S
C1018 C1019 1.394 . S
C1018 C1024 1.465 . S
C1019 C1014 1.399 . S
C1019 C1018 1.394 . S
C1019 C1020 1.516 . S
C1020 C1019 1.516 . S
C1020 C1021 1.502 . S
C1020 C1022 1.561 . S
C1020 C1023 1.526 . S
C1021 H1005 0.959 . S
C1021 H1006 0.959 . S
C1021 H1007 0.961 . S
C1021 C1020 1.502 . S
C1022 H1008 0.960 . S
C1022 H1009 0.961 . S
C1022 H1010 0.959 . S
C1022 C1020 1.561 . S
C1023 C1020 1.526 . S
C1023 C1024 1.396 . S
C1023 C1028 1.390 . S
C1024 C1018 1.465 . S
C1024 C1023 1.396 . S
C1024 C1025 1.399 . S
C1025 H1011 0.929 . S
C1025 C1024 1.399 . S
C1025 C1026 1.385 . S
C1026 H1012 0.931 . S
C1026 C1025 1.385 . S
C1026 C1027 1.389 . S
C1027 C1026 1.389 . S
C1027 C1028 1.387 . S
C1028 H1013 0.934 . S
C1028 C1023 1.390 . S
C1028 C1027 1.387 . S
H1029 C1041 0.930 . S
H1030 C1043 0.930 1_565 S
H1031 C1044 0.930 . S
H1032 C1048 0.959 . S
H1033 C1048 0.959 . S
H1034 C1048 0.961 . S
H1035 C1049 0.960 . S
H1036 C1049 0.961 . S
H1037 C1049 0.959 . S
H1038 C1052 0.929 . S
H1039 C1053 0.931 . S
H1040 C1055 0.930 . S
C1041 H1029 0.930 . S
C1041 C1042 1.399 . S
C1041 C1046 1.399 . S
C1042 C1041 1.399 . S
C1042 C1043 1.376 . S
C1043 H1030 0.930 1_545 S
C1043 C1042 1.376 . S
C1043 C1044 1.388 . S
C1044 H1031 0.930 . S
C1044 C1043 1.388 . S
C1044 C1045 1.390 . S
C1045 C1044 1.390 . S
C1045 C1046 1.394 . S
C1045 C1051 1.465 . S
C1046 C1041 1.399 . S
C1046 C1045 1.394 . S
C1046 C1047 1.516 . S
C1047 C1046 1.516 . S
C1047 C1048 1.502 . S
C1047 C1049 1.561 . S
C1047 C1050 1.526 . S
C1048 H1032 0.959 . S
C1048 H1033 0.959 . S
C1048 H1034 0.961 . S
C1048 C1047 1.502 . S
C1049 H1035 0.960 . S
C1049 H1036 0.961 . S
C1049 H1037 0.959 . S
C1049 C1047 1.561 . S
C1050 C1047 1.526 . S
C1050 C1051 1.396 . S
C1050 C1055 1.390 . S
C1051 C1045 1.465 . S
C1051 C1050 1.396 . S
C1051 C1052 1.399 . S
C1052 H1038 0.929 . S
C1052 C1051 1.399 . S
C1052 C1053 1.385 . S
C1053 H1039 0.931 . S
C1053 C1052 1.385 . S
C1053 C1054 1.389 . S
C1054 C1053 1.389 . S
C1054 C1055 1.387 . S
C1055 H1040 0.930 . S
C1055 C1050 1.390 . S
C1055 C1054 1.387 . S
H1056 C1068 0.930 . S
H1057 C1070 0.930 . S
H1058 C1071 0.930 . S
H1059 C1075 0.959 . S
H1060 C1075 0.959 . S
H1061 C1075 0.961 . S
H1062 C1076 0.960 . S
H1063 C1076 0.961 . S
H1064 C1076 0.959 . S
H1065 C1079 0.929 . S
H1066 C1080 0.931 . S
H1067 C1082 0.930 . S
C1068 H1056 0.930 . S
C1068 C1069 1.399 . S
C1068 C1073 1.399 . S
C1069 C1068 1.399 . S
C1069 C1070 1.376 . S
C1070 H1057 0.930 . S
C1070 C1069 1.376 . S
C1070 C1071 1.388 . S
C1071 H1058 0.930 . S
C1071 C1070 1.388 . S
C1071 C1072 1.390 . S
C1072 C1071 1.390 . S
C1072 C1073 1.394 . S
C1072 C1078 1.465 . S
C1073 C1068 1.399 . S
C1073 C1072 1.394 . S
C1073 C1074 1.516 . S
C1074 C1073 1.516 . S
C1074 C1075 1.502 . S
C1074 C1076 1.561 . S
C1074 C1077 1.526 . S
C1075 H1059 0.959 . S
C1075 H1060 0.959 . S
C1075 H1061 0.961 . S
C1075 C1074 1.502 . S
C1076 H1062 0.960 . S
C1076 H1063 0.961 . S
C1076 H1064 0.959 . S
C1076 C1074 1.561 . S
C1077 C1074 1.526 . S
C1077 C1078 1.396 . S
C1077 C1082 1.390 . S
C1078 C1072 1.465 . S
C1078 C1077 1.396 . S
C1078 C1079 1.399 . S
C1079 H1065 0.929 . S
C1079 C1078 1.399 . S
C1079 C1080 1.385 . S
C1080 H1066 0.931 . S
C1080 C1079 1.385 . S
C1080 C1081 1.389 . S
C1081 C1080 1.389 . S
C1081 C1082 1.387 . S
C1082 H1067 0.930 . S
C1082 C1077 1.390 . S
C1082 C1081 1.387 . S
H1083 C1095 0.930 . S
H1084 C1097 0.930 . S
H1085 C1098 0.930 . S
H1086 C1102 0.959 . S
H1087 C1102 0.959 . S
H1088 C1102 0.961 . S
H1089 C1103 0.960 . S
H1090 C1103 0.961 . S
H1091 C1103 0.959 . S
H1092 C1106 0.929 . S
H1093 C1107 0.931 . S
H1094 C1109 0.930 . S
C1095 H1083 0.930 . S
C1095 C1096 1.399 . S
C1095 C1100 1.399 . S
C1096 C1095 1.399 . S
C1096 C1097 1.376 . S
C1097 H1084 0.930 . S
C1097 C1096 1.376 . S
C1097 C1098 1.388 . S
C1098 H1085 0.930 . S
C1098 C1097 1.388 . S
C1098 C1099 1.390 . S
C1099 C1098 1.390 . S
C1099 C1100 1.394 . S
C1099 C1105 1.465 . S
C1100 C1095 1.399 . S
C1100 C1099 1.394 . S
C1100 C1101 1.516 . S
C1101 C1100 1.516 . S
C1101 C1102 1.502 . S
C1101 C1103 1.561 . S
C1101 C1104 1.526 . S
C1102 H1086 0.959 . S
C1102 H1087 0.959 . S
C1102 H1088 0.961 . S
C1102 C1101 1.502 . S
C1103 H1089 0.960 . S
C1103 H1090 0.961 . S
C1103 H1091 0.959 . S
C1103 C1101 1.561 . S
C1104 C1101 1.526 . S
C1104 C1105 1.396 . S
C1104 C1109 1.390 . S
C1105 C1099 1.465 . S
C1105 C1104 1.396 . S
C1105 C1106 1.399 . S
C1106 H1092 0.929 . S
C1106 C1105 1.399 . S
C1106 C1107 1.385 . S
C1107 H1093 0.931 . S
C1107 C1106 1.385 . S
C1107 C1108 1.389 . S
C1108 C1107 1.389 . S
C1108 C1109 1.387 . S
C1109 H1094 0.930 . S
C1109 C1104 1.390 . S
C1109 C1108 1.387 . S
H1110 C1122 0.930 . S
H1111 C1124 0.930 . S
H1112 C1125 0.930 . S
H1113 C1129 0.959 . S
H1114 C1129 0.959 . S
H1115 C1129 0.961 . S
H1116 C1130 0.960 . S
H1117 C1130 0.961 . S
H1118 C1130 0.959 . S
H1119 C1133 0.929 . S
H1120 C1134 0.931 . S
H1121 C1136 0.930 . S
C1122 H1110 0.930 . S
C1122 C1123 1.399 . S
C1122 C1127 1.399 . S
C1123 C1122 1.399 . S
C1123 C1124 1.376 . S
C1124 H1111 0.930 . S
C1124 C1123 1.376 . S
C1124 C1125 1.388 . S
C1125 H1112 0.930 . S
C1125 C1124 1.388 . S
C1125 C1126 1.390 . S
C1126 C1125 1.390 . S
C1126 C1127 1.394 . S
C1126 C1132 1.465 . S
C1127 C1122 1.399 . S
C1127 C1126 1.394 . S
C1127 C1128 1.516 . S
C1128 C1127 1.516 . S
C1128 C1129 1.502 . S
C1128 C1130 1.561 . S
C1128 C1131 1.526 . S
C1129 H1113 0.959 . S
C1129 H1114 0.959 . S
C1129 H1115 0.961 . S
C1129 C1128 1.502 . S
C1130 H1116 0.960 . S
C1130 H1117 0.961 . S
C1130 H1118 0.959 . S
C1130 C1128 1.561 . S
C1131 C1128 1.526 . S
C1131 C1132 1.396 . S
C1131 C1136 1.390 . S
C1132 C1126 1.465 . S
C1132 C1131 1.396 . S
C1132 C1133 1.399 . S
C1133 H1119 0.929 . S
C1133 C1132 1.399 . S
C1133 C1134 1.385 . S
C1134 H1120 0.931 . S
C1134 C1133 1.385 . S
C1134 C1135 1.389 . S
C1135 C1134 1.389 . S
C1135 C1136 1.387 . S
C1136 H1121 0.930 . S
C1136 C1131 1.390 . S
C1136 C1135 1.387 . S
H1137 C1149 0.930 . S
H1138 C1151 0.930 . S
H1139 C1152 0.930 . S
H1140 C1156 0.959 . S
H1141 C1156 0.959 . S
H1142 C1156 0.961 . S
H1143 C1157 0.960 . S
H1144 C1157 0.961 . S
H1145 C1157 0.959 . S
H1146 C1160 0.929 . S
H1147 C1161 0.931 . S
H1148 C1163 0.930 . S
C1149 H1137 0.930 . S
C1149 C1150 1.399 . S
C1149 C1154 1.399 . S
C1150 C1149 1.399 . S
C1150 C1151 1.376 . S
C1151 H1138 0.930 . S
C1151 C1150 1.376 . S
C1151 C1152 1.388 . S
C1152 H1139 0.930 . S
C1152 C1151 1.388 . S
C1152 C1153 1.390 . S
C1153 C1152 1.390 . S
C1153 C1154 1.394 . S
C1153 C1159 1.465 . S
C1154 C1149 1.399 . S
C1154 C1153 1.394 . S
C1154 C1155 1.516 . S
C1155 C1154 1.516 . S
C1155 C1156 1.502 . S
C1155 C1157 1.561 . S
C1155 C1158 1.526 . S
C1156 H1140 0.959 . S
C1156 H1141 0.959 . S
C1156 H1142 0.961 . S
C1156 C1155 1.502 . S
C1157 H1143 0.960 . S
C1157 H1144 0.961 . S
C1157 H1145 0.959 . S
C1157 C1155 1.561 . S
C1158 C1155 1.526 . S
C1158 C1159 1.396 . S
C1158 C1163 1.390 . S
C1159 C1153 1.465 . S
C1159 C1158 1.396 . S
C1159 C1160 1.399 . S
C1160 H1146 0.929 . S
C1160 C1159 1.399 . S
C1160 C1161 1.385 . S
C1161 H1147 0.931 . S
C1161 C1160 1.385 . S
C1161 C1162 1.389 . S
C1162 C1161 1.389 . S
C1162 C1163 1.387 . S
C1163 H1148 0.930 . S
C1163 C1158 1.390 . S
C1163 C1162 1.387 . S
H1164 C1176 0.930 . S
H1165 C1178 0.930 . S
H1166 C1179 0.930 . S
H1167 C1183 0.959 . S
H1168 C1183 0.959 . S
H1169 C1183 0.961 . S
H1170 C1184 0.960 . S
H1171 C1184 0.961 . S
H1172 C1184 0.959 . S
H1173 C1187 0.929 . S
H1174 C1188 0.931 . S
H1175 C1190 0.930 . S
C1176 H1164 0.930 . S
C1176 C1177 1.399 . S
C1176 C1181 1.399 . S
C1177 C1176 1.399 . S
C1177 C1178 1.376 . S
C1178 H1165 0.930 . S
C1178 C1177 1.376 . S
C1178 C1179 1.388 . S
C1179 H1166 0.930 . S
C1179 C1178 1.388 . S
C1179 C1180 1.390 . S
C1180 C1179 1.390 . S
C1180 C1181 1.394 . S
C1180 C1186 1.465 . S
C1181 C1176 1.399 . S
C1181 C1180 1.394 . S
C1181 C1182 1.516 . S
C1182 C1181 1.516 . S
C1182 C1183 1.502 . S
C1182 C1184 1.561 . S
C1182 C1185 1.526 . S
C1183 H1167 0.959 . S
C1183 H1168 0.959 . S
C1183 H1169 0.961 . S
C1183 C1182 1.502 . S
C1184 H1170 0.960 . S
C1184 H1171 0.961 . S
C1184 H1172 0.959 . S
C1184 C1182 1.561 . S
C1185 C1182 1.526 . S
C1185 C1186 1.396 . S
C1185 C1190 1.390 . S
C1186 C1180 1.465 . S
C1186 C1185 1.396 . S
C1186 C1187 1.399 . S
C1187 H1173 0.929 . S
C1187 C1186 1.399 . S
C1187 C1188 1.385 . S
C1188 H1174 0.931 . S
C1188 C1187 1.385 . S
C1188 C1189 1.389 . S
C1189 C1188 1.389 . S
C1189 C1190 1.387 . S
C1190 H1175 0.930 . S
C1190 C1185 1.390 . S
C1190 C1189 1.387 . S
H1191 C1203 0.930 . S
H1192 C1205 0.930 . S
H1193 C1206 0.930 . S
H1194 C1210 0.959 . S
H1195 C1210 0.959 . S
H1196 C1210 0.961 . S
H1197 C1211 0.960 . S
H1198 C1211 0.961 . S
H1199 C1211 0.959 . S
H1200 C1214 0.929 . S
H1201 C1215 0.931 . S
H1202 C1217 0.930 . S
C1203 H1191 0.930 . S
C1203 C1204 1.399 . S
C1203 C1208 1.399 . S
C1204 C1203 1.399 . S
C1204 C1205 1.376 . S
C1205 H1192 0.930 . S
C1205 C1204 1.376 . S
C1205 C1206 1.388 . S
C1206 H1193 0.930 . S
C1206 C1205 1.388 . S
C1206 C1207 1.390 . S
C1207 C1206 1.390 . S
C1207 C1208 1.394 . S
C1207 C1213 1.465 . S
C1208 C1203 1.399 . S
C1208 C1207 1.394 . S
C1208 C1209 1.516 . S
C1209 C1208 1.516 . S
C1209 C1210 1.502 . S
C1209 C1211 1.561 . S
C1209 C1212 1.526 . S
C1210 H1194 0.959 . S
C1210 H1195 0.959 . S
C1210 H1196 0.961 . S
C1210 C1209 1.502 . S
C1211 H1197 0.960 . S
C1211 H1198 0.961 . S
C1211 H1199 0.959 . S
C1211 C1209 1.561 . S
C1212 C1209 1.526 . S
C1212 C1213 1.396 . S
C1212 C1217 1.390 . S
C1213 C1207 1.465 . S
C1213 C1212 1.396 . S
C1213 C1214 1.399 . S
C1214 H1200 0.929 . S
C1214 C1213 1.399 . S
C1214 C1215 1.385 . S
C1215 H1201 0.931 . S
C1215 C1214 1.385 . S
C1215 C1216 1.389 . S
C1216 C1215 1.389 . S
C1216 C1217 1.387 . S
C1217 H1202 0.930 . S
C1217 C1212 1.390 . S
C1217 C1216 1.387 . S
C421 C111 1.721 . S
C433 C9 1.725 . S
C448 C43 1.734 . S
C460 C145 1.731 . S
C475 C77 1.721 . S
C487 C179 1.723 . S
C502 C213 1.733 . S
C514 C315 1.729 . S
C529 C349 1.721 . S
C541 C247 1.725 . S
C556 C383 1.721 . S
C568 C281 1.726 . S
C583 C271 1.161 . S
C595 C33 1.171 . S
C610 C67 1.136 . S
C622 C305 1.121 . S
C637 C339 1.138 . S
C649 C101 1.123 . S
C664 C135 1.115 . S
C676 C373 1.103 . S
C691 C407 1.086 . S
C703 C169 1.087 . S
C718 C203 1.086 . S
C730 C237 1.092 . S
C745 C5 0.513 . S
C757 C107 0.464 . S
C772 C39 0.310 . S
C784 C141 0.493 . S
C799 C73 0.286 . S
C811 C175 0.525 . S
C826 C209 0.480 . S
C838 C311 0.326 . S
C853 C243 0.540 . S
C865 C345 0.424 . S
C880 C277 0.552 . S
C892 C379 0.399 . S
C907 C342 1.537 1_455 S
C919 C2 1.525 . S
C934 C36 1.529 1_655 S
C946 C376 1.563 1_545 S
C961 C206 1.587 . S
C973 C70 1.572 1_565 S
C988 C104 1.569 . S
C1000 C240 1.587 1_655 S
C1015 C274 1.586 1_565 S
C1027 C138 1.558 1_455 S
C1042 C172 1.572 1_545 S
C1054 C308 1.537 . S
C1069 C20 1.726 . S
C1081 C292 1.728 . S
C1096 C54 1.733 . S
C1108 C326 1.729 . S
C1123 C360 1.763 . S
C1135 C88 1.760 . S
C1150 C394 1.737 . S
C1162 C122 1.746 . S
C1177 C156 1.729 . S
C1189 C224 1.727 . S
C1204 C190 1.755 . S
C1216 C258 1.748 . S
