# Generated by pormake.
# Topology wip, (6)-cn, num edge types: 1
# Building blocks:
#     Node 0, Type 0, BuildingBlock: GEDQOX_clean_sbu_0, # of connection points: 6
#     Node 1, Type 0, BuildingBlock: GEDQOX_clean_sbu_0, # of connection points: 6
#     Node 2, Type 0, BuildingBlock: GEDQOX_clean_sbu_0, # of connection points: 6
#     Node 3, Type 0, BuildingBlock: GEDQOX_clean_sbu_0, # of connection points: 6
#     Node 4, Type 0, BuildingBlock: GEDQOX_clean_sbu_0, # of connection points: 6
#     Node 5, Type 0, BuildingBlock: GEDQOX_clean_sbu_0, # of connection points: 6
#     Node 6, Type 0, BuildingBlock: GEDQOX_clean_sbu_0, # of connection points: 6
#     Node 7, Type 0, BuildingBlock: GEDQOX_clean_sbu_0, # of connection points: 6
#     Node 8, Type 0, BuildingBlock: GEDQOX_clean_sbu_0, # of connection points: 6
#     Node 9, Type 0, BuildingBlock: GEDQOX_clean_sbu_0, # of connection points: 6
#     Node 10, Type 0, BuildingBlock: GEDQOX_clean_sbu_0, # of connection points: 6
#     Node 11, Type 0, BuildingBlock: GEDQOX_clean_sbu_0, # of connection points: 6
#     Node 12, Type 0, BuildingBlock: GEDQOX_clean_sbu_0, # of connection points: 6
#     Node 13, Type 0, BuildingBlock: GEDQOX_clean_sbu_0, # of connection points: 6
#     Node 14, Type 0, BuildingBlock: GEDQOX_clean_sbu_0, # of connection points: 6
#     Node 15, Type 0, BuildingBlock: GEDQOX_clean_sbu_0, # of connection points: 6
#     Node 16, Type 0, BuildingBlock: GEDQOX_clean_sbu_0, # of connection points: 6
#     Node 17, Type 0, BuildingBlock: GEDQOX_clean_sbu_0, # of connection points: 6
#     Node 18, Type 0, BuildingBlock: GEDQOX_clean_sbu_0, # of connection points: 6
#     Node 19, Type 0, BuildingBlock: GEDQOX_clean_sbu_0, # of connection points: 6
#     Node 20, Type 0, BuildingBlock: GEDQOX_clean_sbu_0, # of connection points: 6
#     Node 21, Type 0, BuildingBlock: GEDQOX_clean_sbu_0, # of connection points: 6
#     Node 22, Type 0, BuildingBlock: GEDQOX_clean_sbu_0, # of connection points: 6
#     Node 23, Type 0, BuildingBlock: GEDQOX_clean_sbu_0, # of connection points: 6
#     Node 24, Type 0, BuildingBlock: GEDQOX_clean_sbu_0, # of connection points: 6
#     Node 25, Type 0, BuildingBlock: GEDQOX_clean_sbu_0, # of connection points: 6
#     Node 26, Type 0, BuildingBlock: GEDQOX_clean_sbu_0, # of connection points: 6
#     Node 27, Type 0, BuildingBlock: GEDQOX_clean_sbu_0, # of connection points: 6
#     Node 28, Type 0, BuildingBlock: GEDQOX_clean_sbu_0, # of connection points: 6
#     Node 29, Type 0, BuildingBlock: GEDQOX_clean_sbu_0, # of connection points: 6
#     Node 30, Type 0, BuildingBlock: GEDQOX_clean_sbu_0, # of connection points: 6
#     Node 31, Type 0, BuildingBlock: GEDQOX_clean_sbu_0, # of connection points: 6
#     Edge 32, Type (0, 0), BuildingBlock: AJUNOK_clean_linker_0, # of connection points: 2
#     Edge 33, Type (0, 0), BuildingBlock: AJUNOK_clean_linker_0, # of connection points: 2
#     Edge 34, Type (0, 0), BuildingBlock: AJUNOK_clean_linker_0, # of connection points: 2
#     Edge 35, Type (0, 0), BuildingBlock: AJUNOK_clean_linker_0, # of connection points: 2
#     Edge 36, Type (0, 0), BuildingBlock: AJUNOK_clean_linker_0, # of connection points: 2
#     Edge 37, Type (0, 0), BuildingBlock: AJUNOK_clean_linker_0, # of connection points: 2
#     Edge 38, Type (0, 0), BuildingBlock: AJUNOK_clean_linker_0, # of connection points: 2
#     Edge 39, Type (0, 0), BuildingBlock: AJUNOK_clean_linker_0, # of connection points: 2
#     Edge 40, Type (0, 0), BuildingBlock: AJUNOK_clean_linker_0, # of connection points: 2
#     Edge 41, Type (0, 0), BuildingBlock: AJUNOK_clean_linker_0, # of connection points: 2
#     Edge 42, Type (0, 0), BuildingBlock: AJUNOK_clean_linker_0, # of connection points: 2
#     Edge 43, Type (0, 0), BuildingBlock: AJUNOK_clean_linker_0, # of connection points: 2
#     Edge 44, Type (0, 0), BuildingBlock: AJUNOK_clean_linker_0, # of connection points: 2
#     Edge 45, Type (0, 0), BuildingBlock: AJUNOK_clean_linker_0, # of connection points: 2
#     Edge 46, Type (0, 0), BuildingBlock: AJUNOK_clean_linker_0, # of connection points: 2
#     Edge 47, Type (0, 0), BuildingBlock: AJUNOK_clean_linker_0, # of connection points: 2
#     Edge 48, Type (0, 0), BuildingBlock: AJUNOK_clean_linker_0, # of connection points: 2
#     Edge 49, Type (0, 0), BuildingBlock: AJUNOK_clean_linker_0, # of connection points: 2
#     Edge 50, Type (0, 0), BuildingBlock: AJUNOK_clean_linker_0, # of connection points: 2
#     Edge 51, Type (0, 0), BuildingBlock: AJUNOK_clean_linker_0, # of connection points: 2
#     Edge 52, Type (0, 0), BuildingBlock: AJUNOK_clean_linker_0, # of connection points: 2
#     Edge 53, Type (0, 0), BuildingBlock: AJUNOK_clean_linker_0, # of connection points: 2
#     Edge 54, Type (0, 0), BuildingBlock: AJUNOK_clean_linker_0, # of connection points: 2
#     Edge 55, Type (0, 0), BuildingBlock: AJUNOK_clean_linker_0, # of connection points: 2
#     Edge 56, Type (0, 0), BuildingBlock: AJUNOK_clean_linker_0, # of connection points: 2
#     Edge 57, Type (0, 0), BuildingBlock: AJUNOK_clean_linker_0, # of connection points: 2
#     Edge 58, Type (0, 0), BuildingBlock: AJUNOK_clean_linker_0, # of connection points: 2
#     Edge 59, Type (0, 0), BuildingBlock: AJUNOK_clean_linker_0, # of connection points: 2
#     Edge 60, Type (0, 0), BuildingBlock: AJUNOK_clean_linker_0, # of connection points: 2
#     Edge 61, Type (0, 0), BuildingBlock: AJUNOK_clean_linker_0, # of connection points: 2
#     Edge 62, Type (0, 0), BuildingBlock: AJUNOK_clean_linker_0, # of connection points: 2
#     Edge 63, Type (0, 0), BuildingBlock: AJUNOK_clean_linker_0, # of connection points: 2
#     Edge 64, Type (0, 0), BuildingBlock: AJUNOK_clean_linker_0, # of connection points: 2
#     Edge 65, Type (0, 0), BuildingBlock: AJUNOK_clean_linker_0, # of connection points: 2
#     Edge 66, Type (0, 0), BuildingBlock: AJUNOK_clean_linker_0, # of connection points: 2
#     Edge 67, Type (0, 0), BuildingBlock: AJUNOK_clean_linker_0, # of connection points: 2
#     Edge 68, Type (0, 0), BuildingBlock: AJUNOK_clean_linker_0, # of connection points: 2
#     Edge 69, Type (0, 0), BuildingBlock: AJUNOK_clean_linker_0, # of connection points: 2
#     Edge 70, Type (0, 0), BuildingBlock: AJUNOK_clean_linker_0, # of connection points: 2
#     Edge 71, Type (0, 0), BuildingBlock: AJUNOK_clean_linker_0, # of connection points: 2
#     Edge 72, Type (0, 0), BuildingBlock: AJUNOK_clean_linker_0, # of connection points: 2
#     Edge 73, Type (0, 0), BuildingBlock: AJUNOK_clean_linker_0, # of connection points: 2
#     Edge 74, Type (0, 0), BuildingBlock: AJUNOK_clean_linker_0, # of connection points: 2
#     Edge 75, Type (0, 0), BuildingBlock: AJUNOK_clean_linker_0, # of connection points: 2
#     Edge 76, Type (0, 0), BuildingBlock: AJUNOK_clean_linker_0, # of connection points: 2
#     Edge 77, Type (0, 0), BuildingBlock: AJUNOK_clean_linker_0, # of connection points: 2
#     Edge 78, Type (0, 0), BuildingBlock: AJUNOK_clean_linker_0, # of connection points: 2
#     Edge 79, Type (0, 0), BuildingBlock: AJUNOK_clean_linker_0, # of connection points: 2
#     Edge 80, Type (0, 0), BuildingBlock: AJUNOK_clean_linker_0, # of connection points: 2
#     Edge 81, Type (0, 0), BuildingBlock: AJUNOK_clean_linker_0, # of connection points: 2
#     Edge 82, Type (0, 0), BuildingBlock: AJUNOK_clean_linker_0, # of connection points: 2
#     Edge 83, Type (0, 0), BuildingBlock: AJUNOK_clean_linker_0, # of connection points: 2
#     Edge 84, Type (0, 0), BuildingBlock: AJUNOK_clean_linker_0, # of connection points: 2
#     Edge 85, Type (0, 0), BuildingBlock: AJUNOK_clean_linker_0, # of connection points: 2
#     Edge 86, Type (0, 0), BuildingBlock: AJUNOK_clean_linker_0, # of connection points: 2
#     Edge 87, Type (0, 0), BuildingBlock: AJUNOK_clean_linker_0, # of connection points: 2
#     Edge 88, Type (0, 0), BuildingBlock: AJUNOK_clean_linker_0, # of connection points: 2
#     Edge 89, Type (0, 0), BuildingBlock: AJUNOK_clean_linker_0, # of connection points: 2
#     Edge 90, Type (0, 0), BuildingBlock: AJUNOK_clean_linker_0, # of connection points: 2
#     Edge 91, Type (0, 0), BuildingBlock: AJUNOK_clean_linker_0, # of connection points: 2
#     Edge 92, Type (0, 0), BuildingBlock: AJUNOK_clean_linker_0, # of connection points: 2
#     Edge 93, Type (0, 0), BuildingBlock: AJUNOK_clean_linker_0, # of connection points: 2
#     Edge 94, Type (0, 0), BuildingBlock: AJUNOK_clean_linker_0, # of connection points: 2
#     Edge 95, Type (0, 0), BuildingBlock: AJUNOK_clean_linker_0, # of connection points: 2
#     Edge 96, Type (0, 0), BuildingBlock: AJUNOK_clean_linker_0, # of connection points: 2
#     Edge 97, Type (0, 0), BuildingBlock: AJUNOK_clean_linker_0, # of connection points: 2
#     Edge 98, Type (0, 0), BuildingBlock: AJUNOK_clean_linker_0, # of connection points: 2
#     Edge 99, Type (0, 0), BuildingBlock: AJUNOK_clean_linker_0, # of connection points: 2
#     Edge 100, Type (0, 0), BuildingBlock: AJUNOK_clean_linker_0, # of connection points: 2
#     Edge 101, Type (0, 0), BuildingBlock: AJUNOK_clean_linker_0, # of connection points: 2
#     Edge 102, Type (0, 0), BuildingBlock: AJUNOK_clean_linker_0, # of connection points: 2
#     Edge 103, Type (0, 0), BuildingBlock: AJUNOK_clean_linker_0, # of connection points: 2
#     Edge 104, Type (0, 0), BuildingBlock: AJUNOK_clean_linker_0, # of connection points: 2
#     Edge 105, Type (0, 0), BuildingBlock: AJUNOK_clean_linker_0, # of connection points: 2
#     Edge 106, Type (0, 0), BuildingBlock: AJUNOK_clean_linker_0, # of connection points: 2
#     Edge 107, Type (0, 0), BuildingBlock: AJUNOK_clean_linker_0, # of connection points: 2
#     Edge 108, Type (0, 0), BuildingBlock: AJUNOK_clean_linker_0, # of connection points: 2
#     Edge 109, Type (0, 0), BuildingBlock: AJUNOK_clean_linker_0, # of connection points: 2
#     Edge 110, Type (0, 0), BuildingBlock: AJUNOK_clean_linker_0, # of connection points: 2
#     Edge 111, Type (0, 0), BuildingBlock: AJUNOK_clean_linker_0, # of connection points: 2
#     Edge 112, Type (0, 0), BuildingBlock: AJUNOK_clean_linker_0, # of connection points: 2
#     Edge 113, Type (0, 0), BuildingBlock: AJUNOK_clean_linker_0, # of connection points: 2
#     Edge 114, Type (0, 0), BuildingBlock: AJUNOK_clean_linker_0, # of connection points: 2
#     Edge 115, Type (0, 0), BuildingBlock: AJUNOK_clean_linker_0, # of connection points: 2
#     Edge 116, Type (0, 0), BuildingBlock: AJUNOK_clean_linker_0, # of connection points: 2
#     Edge 117, Type (0, 0), BuildingBlock: AJUNOK_clean_linker_0, # of connection points: 2
#     Edge 118, Type (0, 0), BuildingBlock: AJUNOK_clean_linker_0, # of connection points: 2
#     Edge 119, Type (0, 0), BuildingBlock: AJUNOK_clean_linker_0, # of connection points: 2
#     Edge 120, Type (0, 0), BuildingBlock: AJUNOK_clean_linker_0, # of connection points: 2
#     Edge 121, Type (0, 0), BuildingBlock: AJUNOK_clean_linker_0, # of connection points: 2
#     Edge 122, Type (0, 0), BuildingBlock: AJUNOK_clean_linker_0, # of connection points: 2
#     Edge 123, Type (0, 0), BuildingBlock: AJUNOK_clean_linker_0, # of connection points: 2
#     Edge 124, Type (0, 0), BuildingBlock: AJUNOK_clean_linker_0, # of connection points: 2
#     Edge 125, Type (0, 0), BuildingBlock: AJUNOK_clean_linker_0, # of connection points: 2
#     Edge 126, Type (0, 0), BuildingBlock: AJUNOK_clean_linker_0, # of connection points: 2
#     Edge 127, Type (0, 0), BuildingBlock: AJUNOK_clean_linker_0, # of connection points: 2
# Relax obj value: 0.321
# Max RMSD: 0.300
# Mean RMSD: 0.267
data_MOF--net-wip--node1-GEDQOX_clean_sbu_0--edge1-AJUNOK_clean_linker_0
_symmetry_space_group_name_H-M    P1
_symmetry_Int_Tables_number       1
_symmetry_cell_setting            triclinic
loop_
_symmetry_equiv_pos_as_xyz
'x, y, z'
_cell_length_a     46.57664
_cell_length_b     46.584198
_cell_length_c     28.57053
_cell_angle_alpha  90.027059
_cell_angle_beta   90.138883
_cell_angle_gamma 90.002657
loop_
_atom_site_label
_atom_site_type_symbol
_atom_site_fract_x
_atom_site_fract_y
_atom_site_fract_z
_atom_type_partial_charge
Nd0 Nd 0.09182 0.44456 0.07774 0.0
Nd1 Nd 0.04908 0.40827 0.1315 0.0
C2 C 0.11809 0.47549 1.01188 0.0
C3 C 0.11421 0.48587 0.96253 0.0
C4 C 0.08874 0.49917 0.94709 0.0
C5 C 0.08636 0.50993 0.9011 0.0
C6 C 0.10935 0.50775 0.86912 0.0
C7 C 0.13445 0.49367 0.88432 0.0
C8 C 0.13686 0.48302 0.93031 0.0
C9 C 0.11441 0.39519 0.11792 0.0
C10 C 0.03876 0.41203 1.02201 0.0
C11 C 0.02312 0.37526 0.19432 0.0
C12 C 0.01915 0.37531 0.24594 0.0
C13 C 0.03931 0.3622 0.27582 0.0
C14 C 0.03544 0.36259 0.32444 0.0
C15 C 0.0114 0.37616 0.34434 0.0
C16 C 0.99092 0.38862 0.31436 0.0
C17 C 0.99475 0.38822 0.26583 0.0
C18 C 0.02878 0.46287 0.11728 0.0
C19 C 0.09626 0.45061 0.18844 0.0
O20 O 0.10217 0.48675 0.04499 0.0
O21 O 0.12229 0.44795 1.01792 0.0
O22 O 0.12858 0.41884 0.11137 0.0
O23 O 0.09032 0.39709 0.09691 0.0
O24 O 0.05601 0.43425 1.02534 0.0
O25 O 0.03505 0.39437 0.05763 0.0
O26 O 0.04883 0.37016 0.17829 0.0
O27 O 0.0101 0.39544 0.17078 0.0
O28 O 0.01443 0.43967 0.10805 0.0
O29 O 0.05458 0.45632 0.12606 0.0
O30 O 0.07766 0.42902 0.18885 0.0
O31 O 0.10346 0.46367 0.149 0.0
H32 H 0.07069 0.50145 0.97063 0.0
H33 H 0.06639 0.51992 0.89052 0.0
H34 H 0.15259 0.49149 0.86094 0.0
H35 H 0.15674 0.47283 0.94095 0.0
H36 H 0.05818 0.35177 0.26174 0.0
H37 H 0.05154 0.35264 0.34655 0.0
H38 H 0.97166 0.39836 0.32835 0.0
H39 H 0.9785 0.39802 0.24386 0.0
Nd40 Nd 0.79369 0.84314 0.32814 0.0
Nd41 Nd 0.8336 0.80502 0.38273 0.0
C42 C 0.76225 0.8683 0.26173 0.0
C43 C 0.74984 0.86398 0.21398 0.0
C44 C 0.76455 0.84876 0.17881 0.0
C45 C 0.75323 0.84684 0.13313 0.0
C46 C 0.72685 0.8599 0.12149 0.0
C47 C 0.71223 0.87504 0.15687 0.0
C48 C 0.72357 0.87703 0.20239 0.0
C49 C 0.84076 0.87037 0.36867 0.0
C50 C 0.82879 0.79181 0.27488 0.0
C51 C 0.86982 0.78369 0.44571 0.0
C52 C 0.86855 0.7788 0.49661 0.0
C53 C 0.89399 0.77561 0.52235 0.0
C54 C 0.89302 0.77128 0.57081 0.0
C55 C 0.86655 0.77006 0.59441 0.0
C56 C 0.84108 0.77368 0.56848 0.0
C57 C 0.84207 0.77797 0.52 0.0
C58 C 0.78202 0.77818 0.36927 0.0
C59 C 0.78447 0.84584 0.43803 0.0
O60 O 0.75098 0.85421 0.29692 0.0
O61 O 0.79021 0.87052 0.26499 0.0
O62 O 0.81552 0.88172 0.36403 0.0
O63 O 0.84108 0.84655 0.34702 0.0
O64 O 0.80421 0.80531 0.27968 0.0
O65 O 0.84844 0.79304 0.30825 0.0
O66 O 0.86991 0.81043 0.43242 0.0
O67 O 0.85294 0.76786 0.41991 0.0
O68 O 0.80679 0.76656 0.36105 0.0
O69 O 0.7852 0.80482 0.37639 0.0
O70 O 0.80779 0.82944 0.44008 0.0
O71 O 0.77214 0.8527 0.39786 0.0
H72 H 0.78491 0.83855 0.18651 0.0
H73 H 0.76502 0.83487 0.10695 0.0
H74 H 0.69216 0.8858 0.14917 0.0
H75 H 0.71194 0.88921 0.22851 0.0
H76 H 0.91462 0.77643 0.50495 0.0
H77 H 0.91299 0.76857 0.58981 0.0
H78 H 0.8204 0.77354 0.58573 0.0
H79 H 0.82219 0.78072 0.50077 0.0
Nd80 Nd 0.40394 0.54992 0.57458 0.0
Nd81 Nd 0.44489 0.58543 0.63169 0.0
C82 C 0.37712 0.5204 0.50743 0.0
C83 C 0.3816 0.50858 0.45918 0.0
C84 C 0.39927 0.48459 0.45104 0.0
C85 C 0.40234 0.47319 0.40578 0.0
C86 C 0.38799 0.48547 0.3671 0.0
C87 C 0.36999 0.50918 0.37536 0.0
C88 C 0.36686 0.52056 0.42071 0.0
C89 C 0.38067 0.59969 0.6133 0.0
C90 C 0.45827 0.58095 0.52268 0.0
C91 C 0.4702 0.61804 0.69609 0.0
C92 C 0.47403 0.61795 0.7476 0.0
C93 C 0.45052 0.61919 0.77839 0.0
C94 C 0.45493 0.61944 0.82696 0.0
C95 C 0.48289 0.6185 0.8457 0.0
C96 C 0.50627 0.61662 0.8148 0.0
C97 C 0.50188 0.61653 0.76636 0.0
C98 C 0.4665 0.53132 0.61767 0.0
C99 C 0.39768 0.54124 0.68338 0.0
O100 O 0.39057 0.50832 0.54268 0.0
O101 O 0.37561 0.54832 0.51176 0.0
O102 O 0.36697 0.5757 0.60754 0.0
O103 O 0.40507 0.59755 0.59372 0.0
O104 O 0.44151 0.55838 0.5254 0.0
O105 O 0.4605 0.59911 0.55816 0.0
O106 O 0.44458 0.62299 0.67951 0.0
O107 O 0.48348 0.59796 0.67292 0.0
O108 O 0.48058 0.5548 0.61011 0.0
O109 O 0.44038 0.53735 0.62477 0.0
O110 O 0.41378 0.56472 0.6863 0.0
O111 O 0.39334 0.5279 0.64327 0.0
H112 H 0.41066 0.47445 0.47968 0.0
H113 H 0.41588 0.45451 0.40114 0.0
H114 H 0.35866 0.51926 0.34659 0.0
H115 H 0.35279 0.53882 0.42571 0.0
H116 H 0.42875 0.62007 0.76507 0.0
H117 H 0.43648 0.62081 0.84986 0.0
H118 H 0.52801 0.61506 0.82807 0.0
H119 H 0.52035 0.6153 0.74345 0.0
Nd120 Nd 0.70087 0.15368 0.82852 0.0
Nd121 Nd 0.66011 0.19229 0.88277 0.0
C122 C 0.73479 0.13008 0.76373 0.0
C123 C 0.74498 0.13376 0.71431 0.0
C124 C 0.75389 0.16049 0.69651 0.0
C125 C 0.76455 0.16287 0.65051 0.0
C126 C 0.76675 0.13866 0.621 0.0
C127 C 0.75705 0.11214 0.63846 0.0
C128 C 0.74645 0.10973 0.68445 0.0
C129 C 0.6543 0.12591 0.86872 0.0
C130 C 0.66271 0.20338 0.77366 0.0
C131 C 0.62509 0.215 0.94596 0.0
C132 C 0.62626 0.21853 0.99725 0.0
C133 C 0.6008 0.22012 1.02316 0.0
C134 C 0.60174 0.2242 0.07172 0.0
C135 C 0.6282 0.22686 0.09523 0.0
C136 C 0.6537 0.22463 0.0692 0.0
C137 C 0.65275 0.22051 1.02069 0.0
C138 C 0.71199 0.21845 0.8679 0.0
C139 C 0.70763 0.15087 0.93972 0.0
O140 O 0.74397 0.14804 0.79585 0.0
O141 O 0.70789 0.12291 0.76981 0.0
O142 O 0.67931 0.11441 0.86193 0.0
O143 O 0.65352 0.15007 0.84789 0.0
O144 O 0.68633 0.18798 0.77597 0.0
O145 O 0.64485 0.2051 0.80935 0.0
O146 O 0.62246 0.18884 0.93031 0.0
O147 O 0.64367 0.22987 0.922 0.0
O148 O 0.68729 0.22997 0.85883 0.0
O149 O 0.70849 0.19208 0.87671 0.0
O150 O 0.68384 0.16646 0.94001 0.0
O151 O 0.72145 0.14523 0.90025 0.0
H152 H 0.75277 0.17954 0.71817 0.0
H153 H 0.771 0.18375 0.63782 0.0
H154 H 0.7583 0.09305 0.6169 0.0
H155 H 0.7397 0.08885 0.69698 0.0
H156 H 0.58017 0.21848 1.00576 0.0
H157 H 0.58173 0.22582 0.0908 0.0
H158 H 0.67442 0.22577 0.08638 0.0
H159 H 0.67272 0.21891 1.00148 0.0
Nd160 Nd 0.08591 0.54376 0.56597 0.0
Nd161 Nd 0.04975 0.59063 0.60964 0.0
C162 C 0.11942 0.51153 0.51306 0.0
C163 C 0.12784 0.50971 0.46385 0.0
C164 C 0.14543 0.48703 0.44948 0.0
C165 C 0.14759 0.48024 0.40206 0.0
C166 C 0.13181 0.49584 0.36871 0.0
C167 C 0.11677 0.52051 0.38277 0.0
C168 C 0.11481 0.52743 0.43027 0.0
C169 C 0.04307 0.52275 0.62126 0.0
C170 C 0.03178 0.57373 0.50611 0.0
C171 C 0.01875 0.62335 0.66582 0.0
C172 C 0.01097 0.62199 0.7158 0.0
C173 C 0.01142 0.5958 0.74017 0.0
C174 C 0.00508 0.59492 0.78806 0.0
C175 C -0.00189 0.62023 0.81249 0.0
C176 C -0.00239 0.64637 0.78777 0.0
C177 C 0.004 0.64722 0.73993 0.0
C178 C 0.08961 0.61023 0.54477 0.0
C179 C 0.09395 0.55348 0.67803 0.0
O180 O 0.12886 0.53349 0.53701 0.0
O181 O 0.09245 0.50566 0.5214 0.0
O182 O 0.06799 0.51071 0.61722 0.0
O183 O 0.04065 0.54404 0.59409 0.0
O184 O 0.05717 0.56068 0.50416 0.0
O185 O 0.02143 0.58331 0.54607 0.0
O186 O 0.00762 0.60354 0.63875 0.0
O187 O 0.04586 0.6282 0.65684 0.0
O188 O 0.06465 0.62175 0.5518 0.0
O189 O 0.094 0.59086 0.57531 0.0
O190 O 0.0713 0.57022 0.67409 0.0
O191 O 0.10663 0.54288 0.64024 0.0
H192 H 0.15575 0.47328 0.47506 0.0
H193 H 0.15958 0.46132 0.39182 0.0
H194 H 0.10447 0.53284 0.35762 0.0
H195 H 0.10139 0.54522 0.44101 0.0
H196 H 0.0171 0.57607 0.72234 0.0
H197 H 0.00646 0.57456 0.80619 0.0
H198 H 0.99229 0.66622 0.80549 0.0
H199 H 0.0037 0.66765 0.72182 0.0
Nd200 Nd 0.69311 0.83165 0.82029 0.0
Nd201 Nd 0.64768 0.79378 0.86522 0.0
C202 C 0.72177 0.86657 0.76455 0.0
C203 C 0.72305 0.87132 0.71398 0.0
C204 C 0.70545 0.85528 0.68382 0.0
C205 C 0.711 0.85492 0.63585 0.0
C206 C 0.73388 0.87096 0.61758 0.0
C207 C 0.74994 0.88881 0.64734 0.0
C208 C 0.74463 0.88885 0.69544 0.0
C209 C 0.71606 0.79062 0.87757 0.0
C210 C 0.66648 0.77479 0.76283 0.0
C211 C 0.61552 0.7624 0.92172 0.0
C212 C 0.61519 0.75501 0.97236 0.0
C213 C 0.62935 0.73032 0.98901 0.0
C214 C 0.6294 0.72368 0.03685 0.0
C215 C 0.61523 0.74153 0.06904 0.0
C216 C 0.60078 0.76595 0.05236 0.0
C217 C 0.60061 0.77252 1.00461 0.0
C218 C 0.62723 0.83205 0.79848 0.0
C219 C 0.68245 0.84111 0.9313 0.0
O220 O 0.69792 0.87394 0.7855 0.0
O221 O 0.73153 0.84163 0.77832 0.0
O222 O 0.72698 0.81602 0.87231 0.0
O223 O 0.69484 0.78678 0.85045 0.0
O224 O 0.67881 0.80049 0.76013 0.0
O225 O 0.65626 0.76499 0.80273 0.0
O226 O 0.63645 0.75172 0.89655 0.0
O227 O 0.60937 0.78898 0.9104 0.0
O228 O 0.61663 0.80672 0.80581 0.0
O229 O 0.64592 0.83741 0.82963 0.0
O230 O 0.66687 0.81755 0.92863 0.0
O231 O 0.69258 0.85363 0.8931 0.0
H232 H 0.68858 0.84176 0.69763 0.0
H233 H 0.69847 0.84094 0.61339 0.0
H234 H 0.76791 0.90103 0.63389 0.0
H235 H 0.75844 0.90124 0.71838 0.0
H236 H 0.6406 0.7162 0.96515 0.0
H237 H 0.64094 0.70486 0.04876 0.0
H238 H 0.58947 0.77996 0.07634 0.0
H239 H 0.58911 0.79143 0.99307 0.0
Nd240 Nd 0.41444 0.44593 0.06788 0.0
Nd241 Nd 0.45048 0.39926 0.11113 0.0
C242 C 0.38151 0.47833 1.01441 0.0
C243 C 0.37778 0.48475 0.96455 0.0
C244 C 0.3735 0.4631 0.93106 0.0
C245 C 0.37285 0.46992 0.88345 0.0
C246 C 0.37714 0.4984 0.8688 0.0
C247 C 0.38083 0.52 0.90266 0.0
C248 C 0.38086 0.51326 0.95001 0.0
C249 C 0.457 0.46756 0.1235 0.0
C250 C 0.47033 0.41846 1.00972 0.0
C251 C 0.47901 0.36529 0.16911 0.0
C252 C 0.48531 0.36598 0.21992 0.0
C253 C 0.46556 0.37781 0.25166 0.0
C254 C 0.47195 0.37917 0.29945 0.0
C255 C 0.49819 0.3686 0.31669 0.0
C256 C 0.5178 0.35639 0.28502 0.0
C257 C 0.51147 0.35527 0.23701 0.0
C258 C 0.41171 0.38027 0.04399 0.0
C259 C 0.4066 0.43704 0.17867 0.0
O260 O 0.37346 0.45308 1.02973 0.0
O261 O 0.40589 0.4869 1.03219 0.0
O262 O 0.43177 0.47896 0.11951 0.0
O263 O 0.45985 0.44611 0.09659 0.0
O264 O 0.44486 0.43131 1.00703 0.0
O265 O 0.47992 0.40761 0.04944 0.0
O266 O 0.49151 0.38504 0.14369 0.0
O267 O 0.45215 0.36108 0.1572 0.0
O268 O 0.43687 0.36921 0.0511 0.0
O269 O 0.40654 0.39882 0.07555 0.0
O270 O 0.4297 0.42105 0.17453 0.0
O271 O 0.39251 0.44569 0.14092 0.0
H272 H 0.37128 0.44094 0.9415 0.0
H273 H 0.36933 0.45291 0.85824 0.0
H274 H 0.38458 0.5421 0.89256 0.0
H275 H 0.38434 0.53026 0.97533 0.0
H276 H 0.44508 0.38596 0.23967 0.0
H277 H 0.45618 0.38821 0.32305 0.0
H278 H 0.53817 0.34806 0.29734 0.0
H279 H 0.52705 0.34608 0.21321 0.0
Nd280 Nd 0.80122 0.16329 0.31862 0.0
Nd281 Nd 0.84606 0.20254 0.36176 0.0
C282 C 0.77239 0.12677 0.2655 0.0
C283 C 0.7699 0.12006 0.21561 0.0
C284 C 0.74755 0.10227 0.20035 0.0
C285 C 0.74032 0.10123 0.15294 0.0
C286 C 0.75507 0.11842 0.12049 0.0
C287 C 0.77932 0.1339 0.13529 0.0
C288 C 0.78671 0.13472 0.18272 0.0
C289 C 0.77773 0.20476 0.37445 0.0
C290 C 0.82656 0.21994 0.259 0.0
C291 C 0.8776 0.23431 0.4187 0.0
C292 C 0.8758 0.24256 0.46873 0.0
C293 C 0.85059 0.25446 0.48765 0.0
C294 C 0.84901 0.26122 0.53536 0.0
C295 C 0.87242 0.25589 0.56535 0.0
C296 C 0.89768 0.24424 0.54621 0.0
C297 C 0.89932 0.23765 0.49846 0.0
C298 C 0.8673 0.1642 0.29577 0.0
C299 C 0.81188 0.15629 0.43041 0.0
O300 O 0.79661 0.12021 0.28616 0.0
O301 O 0.76273 0.1521 0.27737 0.0
O302 O 0.76718 0.17914 0.37012 0.0
O303 O 0.79877 0.20851 0.34715 0.0
O304 O 0.81478 0.19391 0.25717 0.0
O305 O 0.83639 0.23063 0.2987 0.0
O306 O 0.85823 0.24506 0.39034 0.0
O307 O 0.88314 0.20725 0.41014 0.0
O308 O 0.87745 0.18972 0.30303 0.0
O309 O 0.84874 0.15856 0.32698 0.0
O310 O 0.82662 0.18027 0.42619 0.0
O311 O 0.80243 0.14253 0.39273 0.0
H312 H 0.7345 0.09069 0.22536 0.0
H313 H 0.72189 0.08867 0.14213 0.0
H314 H 0.79109 0.14714 0.11084 0.0
H315 H 0.80423 0.14829 0.19413 0.0
H316 H 0.832 0.25841 0.46574 0.0
H317 H 0.82943 0.27068 0.54871 0.0
H318 H 0.916 0.23967 0.56838 0.0
H319 H 0.91891 0.22833 0.48482 0.0
Nd320 Nd 0.94821 0.58985 0.23093 0.0
Nd321 Nd 0.90717 0.55393 0.28827 0.0
C322 C 0.97179 0.62263 0.1655 0.0
C323 C 0.97399 0.62244 0.11382 0.0
C324 C 0.94971 0.61945 0.08484 0.0
C325 C 0.9527 0.61865 0.03601 0.0
C326 C 0.98004 0.62052 1.01524 0.0
C327 C 0.0042 0.62352 0.04446 0.0
C328 C 0.00119 0.62451 0.09311 0.0
C329 C 0.97189 0.53766 0.25085 0.0
C330 C 0.90459 0.54199 0.17897 0.0
C331 C 0.8803 0.5242 0.3548 0.0
C332 C 0.88356 0.51396 0.40409 0.0
C333 C 0.90981 0.5036 0.42178 0.0
C334 C 0.91179 0.4931 0.46791 0.0
C335 C 0.88764 0.4928 0.49769 0.0
C336 C 0.86152 0.50348 0.47991 0.0
C337 C 0.85955 0.51391 0.43384 0.0
C338 C 0.88316 0.60113 0.24331 0.0
C339 C 0.96046 0.58835 0.34045 0.0
O340 O 0.94672 0.62787 0.18405 0.0
O341 O 0.98558 0.60226 0.18731 0.0
O342 O 0.98463 0.56206 0.25755 0.0
O343 O 0.9455 0.54189 0.24218 0.0
O344 O 0.9222 0.56429 0.17537 0.0
O345 O 0.89701 0.53114 0.21979 0.0
O346 O 0.89631 0.51237 0.32238 0.0
O347 O 0.87683 0.55181 0.34838 0.0
O348 O 0.87012 0.57687 0.24993 0.0
O349 O 0.9069 0.60067 0.26527 0.0
O350 O 0.9427 0.56642 0.33997 0.0
O351 O 0.9637 0.605 0.30338 0.0
H352 H 0.92844 0.61769 0.09983 0.0
H353 H 0.93358 0.61693 1.01455 0.0
H354 H 0.02555 0.62484 1.02966 0.0
H355 H 0.02023 0.62668 0.11469 0.0
H356 H 0.92877 0.50345 0.3999 0.0
H357 H 0.9323 0.48525 0.48039 0.0
H358 H 0.84234 0.50315 0.50125 0.0
H359 H 0.83901 0.52164 0.42117 0.0
Nd360 Nd 0.1613 0.19499 0.98062 0.0
Nd361 Nd 0.19723 0.15278 0.03736 0.0
C362 C 0.12867 0.21921 0.91552 0.0
C363 C 0.12742 0.21921 0.86393 0.0
C364 C 0.13612 0.19528 0.83752 0.0
C365 C 0.13629 0.19655 0.78847 0.0
C366 C 0.12802 0.22186 0.76508 0.0
C367 C 0.11921 0.24562 0.79185 0.0
C368 C 0.11893 0.24429 0.8407 0.0
C369 C 0.21359 0.21807 1.00298 0.0
C370 C 0.2101 0.1532 0.9279 0.0
C371 C 0.2273 0.12556 0.1033 0.0
C372 C 0.23774 0.1291 0.15244 0.0
C373 C 0.24619 0.15593 0.17045 0.0
C374 C 0.2568 0.15836 0.21649 0.0
C375 C 0.25913 0.13411 0.24584 0.0
C376 C 0.25034 0.10737 0.22777 0.0
C377 C 0.23979 0.10494 0.18176 0.0
C378 C 0.1509 0.1292 0.98938 0.0
C379 C 0.16198 0.20538 0.09055 0.0
O380 O 0.1217 0.1955 0.93712 0.0
O381 O 0.15114 0.2316 0.93385 0.0
O382 O 0.18925 0.23115 1.00899 0.0
O383 O 0.20894 0.19193 0.99352 0.0
O384 O 0.18678 0.16946 0.92482 0.0
O385 O 0.22092 0.14509 0.96864 0.0
O386 O 0.23896 0.1416 0.07076 0.0
O387 O 0.19965 0.12213 0.09714 0.0
O388 O 0.17494 0.11599 0.99738 0.0
O389 O 0.15089 0.15263 1.01218 0.0
O390 O 0.18371 0.18732 0.09023 0.0
O391 O 0.14586 0.20953 0.05305 0.0
H392 H 0.14296 0.17572 0.85474 0.0
H393 H 0.14271 0.17771 0.76892 0.0
H394 H 0.11294 0.26548 0.77497 0.0
H395 H 0.11245 0.26306 0.86044 0.0
H396 H 0.24474 0.175 0.14889 0.0
H397 H 0.26311 0.17933 0.22926 0.0
H398 H 0.25221 0.08815 0.24886 0.0
H399 H 0.23352 0.08399 0.16883 0.0
Nd400 Nd 0.55027 0.40507 0.7325 0.0
Nd401 Nd 0.59174 0.44353 0.78657 0.0
C402 C 0.52614 0.37072 0.66945 0.0
C403 C 0.52305 0.37021 0.61765 0.0
C404 C 0.54373 0.35683 0.58917 0.0
C405 C 0.54076 0.3568 0.54034 0.0
C406 C 0.5171 0.37022 0.51888 0.0
C407 C 0.49608 0.3829 0.54745 0.0
C408 C 0.49903 0.38293 0.59615 0.0
C409 C 0.52749 0.45852 0.74802 0.0
C410 C 0.59451 0.45034 0.67585 0.0
C411 C 0.6173 0.47544 0.85219 0.0
C412 C 0.61351 0.48576 0.90158 0.0
C413 C 0.58822 0.49942 0.91679 0.0
C414 C 0.586 0.51031 0.9627 0.0
C415 C 0.609 0.50797 0.99481 0.0
C416 C 0.6339 0.49351 0.97987 0.0
C417 C 0.63614 0.4827 0.93396 0.0
C418 C 0.616 0.39509 0.74599 0.0
C419 C 0.5401 0.40879 0.84198 0.0
O420 O 0.55169 0.36639 0.68694 0.0
O421 O 0.51225 0.3908 0.6918 0.0
O422 O 0.51405 0.43463 0.75568 0.0
O423 O 0.55352 0.45321 0.73907 0.0
O424 O 0.57765 0.42736 0.6754 0.0
O425 O 0.60095 0.46382 0.71535 0.0
O426 O 0.6007 0.48608 0.81931 0.0
O427 O 0.62249 0.44807 0.84607 0.0
O428 O 0.62916 0.41942 0.75176 0.0
O429 O 0.59209 0.39611 0.7674 0.0
O430 O 0.55663 0.43157 0.83896 0.0
O431 O 0.53688 0.39099 0.80636 0.0
H432 H 0.5623 0.34652 0.60453 0.0
H433 H 0.55725 0.34672 0.51931 0.0
H434 H 0.47712 0.39259 0.53217 0.0
H435 H 0.4824 0.39295 0.61696 0.0
H436 H 0.57019 0.5019 0.89313 0.0
H437 H 0.56616 0.52059 0.9731 0.0
H438 H 0.65203 0.49118 1.00337 0.0
H439 H 0.6559 0.47226 0.92348 0.0
Nd440 Nd 0.33664 0.80158 0.47721 0.0
Nd441 Nd 0.29867 0.84147 0.53373 0.0
C442 C 0.37015 0.77796 0.41269 0.0
C443 C 0.37075 0.77655 0.36106 0.0
C444 C 0.39715 0.77517 0.33771 0.0
C445 C 0.39806 0.77195 0.289 0.0
C446 C 0.37254 0.76986 0.2627 0.0
C447 C 0.3461 0.77236 0.28608 0.0
C448 C 0.3452 0.7757 0.33478 0.0
C449 C 0.28462 0.77699 0.49461 0.0
C450 C 0.28953 0.84521 0.42361 0.0
C451 C 0.26651 0.86647 0.5994 0.0
C452 C 0.25649 0.86287 0.64884 0.0
C453 C 0.24756 0.83618 0.66676 0.0
C454 C 0.23707 0.83384 0.71287 0.0
C455 C 0.23538 0.85805 0.74252 0.0
C456 C 0.24462 0.88464 0.7245 0.0
C457 C 0.25501 0.88697 0.67843 0.0
C458 C 0.3463 0.86672 0.49189 0.0
C459 C 0.33543 0.79014 0.58681 0.0
O460 O 0.37542 0.80283 0.43181 0.0
O461 O 0.34916 0.76445 0.43328 0.0
O462 O 0.30909 0.76491 0.50342 0.0
O463 O 0.28849 0.80337 0.48599 0.0
O464 O 0.31306 0.82916 0.42142 0.0
O465 O 0.27677 0.85074 0.46391 0.0
O466 O 0.25623 0.84912 0.56731 0.0
O467 O 0.29369 0.87236 0.59288 0.0
O468 O 0.32173 0.87936 0.49785 0.0
O469 O 0.34579 0.84281 0.51319 0.0
O470 O 0.31266 0.80681 0.58587 0.0
O471 O 0.35224 0.78727 0.54991 0.0
H472 H 0.41709 0.7762 0.35725 0.0
H473 H 0.41877 0.77095 0.27192 0.0
H474 H 0.32608 0.77097 0.26684 0.0
H475 H 0.32453 0.77707 0.35197 0.0
H476 H 0.24849 0.81713 0.64505 0.0
H477 H 0.23033 0.81297 0.72541 0.0
H478 H 0.24317 0.90388 0.74563 0.0
H479 H 0.26155 0.90785 0.66563 0.0
Nd480 Nd 0.94704 0.40616 0.75298 0.0
Nd481 Nd 0.91318 0.45365 0.79801 0.0
C482 C 0.97409 0.37154 0.69462 0.0
C483 C 0.98122 0.37246 0.64409 0.0
C484 C -0.00241 0.39497 0.625 0.0
C485 C 0.0032 0.39598 0.57691 0.0
C486 C 0.99225 0.37476 0.54668 0.0
C487 C 0.97613 0.35213 0.56594 0.0
C488 C 0.97072 0.35098 0.61408 0.0
C489 C 0.90815 0.38775 0.8201 0.0
C490 C 0.90304 0.44473 0.68684 0.0
C491 C 0.88137 0.48594 0.85333 0.0
C492 C 0.87492 0.48605 0.9033 0.0
C493 C 0.88754 0.4655 0.93275 0.0
C494 C 0.88731 0.46953 0.9811 0.0
C495 C 0.8741 0.49389 1.00028 0.0
C496 C 0.85923 0.51298 0.971 0.0
C497 C 0.85978 0.50914 0.92256 0.0
C498 C 0.95451 0.47418 0.73936 0.0
C499 C 0.96838 0.4237 0.8544 0.0
O500 O 0.98742 0.38972 0.72216 0.0
O501 O 0.94683 0.36876 0.70484 0.0
O502 O 0.93297 0.37605 0.81278 0.0
O503 O 0.90351 0.40692 0.78943 0.0
O504 O 0.92563 0.42781 0.68951 0.0
O505 O 0.89074 0.45461 0.7254 0.0
O506 O 0.87102 0.46453 0.82903 0.0
O507 O 0.90809 0.49177 0.84311 0.0
O508 O 0.92998 0.48654 0.74605 0.0
O509 O 0.95778 0.45286 0.76636 0.0
O510 O 0.94304 0.4366 0.858 0.0
O511 O 0.97756 0.41363 0.81397 0.0
H512 H 0.006 0.41191 0.6471 0.0
H513 H 0.0163 0.4133 0.56348 0.0
H514 H 0.9673 0.3355 0.54364 0.0
H515 H 0.958 0.33345 0.62784 0.0
H516 H 0.89924 0.4475 0.91826 0.0
H517 H 0.89906 0.45473 1.00325 0.0
H518 H 0.84931 0.53212 0.98525 0.0
H519 H 0.85007 0.5252 0.90012 0.0
Nd520 Nd 0.34378 0.19896 0.50022 0.0
Nd521 Nd 0.29752 0.16335 0.54573 0.0
C522 C 0.37648 0.22823 0.44181 0.0
C523 C 0.3762 0.2332 0.39056 0.0
C524 C 0.37447 0.26129 0.37298 0.0
C525 C 0.37308 0.26623 0.32465 0.0
C526 C 0.37342 0.24315 0.29288 0.0
C527 C 0.37565 0.21506 0.31057 0.0
C528 C 0.37679 0.21013 0.3588 0.0
C529 C 0.36378 0.15994 0.56609 0.0
C530 C 0.30641 0.15308 0.43482 0.0
C531 C 0.26679 0.13077 0.6022 0.0
C532 C 0.2671 0.12519 0.6525 0.0
C533 C 0.28805 0.13807 0.68102 0.0
C534 C 0.28449 0.13861 0.72949 0.0
C535 C 0.26018 0.12593 0.74967 0.0
C536 C 0.24065 0.11087 0.72142 0.0
C537 C 0.24404 0.11062 0.67291 0.0
C538 C 0.27582 0.20522 0.48875 0.0
C539 C 0.32656 0.21898 0.60233 0.0
O540 O 0.35556 0.24 0.4656 0.0
O541 O 0.3826 0.20222 0.45611 0.0
O542 O 0.37469 0.18521 0.55944 0.0
O543 O 0.34445 0.15515 0.53564 0.0
O544 O 0.32298 0.17598 0.43716 0.0
O545 O 0.29667 0.14083 0.47347 0.0
O546 O 0.28868 0.12117 0.57838 0.0
O547 O 0.25954 0.15695 0.59066 0.0
O548 O 0.26409 0.1802 0.49385 0.0
O549 O 0.29716 0.20824 0.51578 0.0
O550 O 0.31427 0.19334 0.60575 0.0
O551 O 0.33627 0.22864 0.56201 0.0
H552 H 0.37389 0.27944 0.39669 0.0
H553 H 0.37134 0.28811 0.31215 0.0
H554 H 0.37673 0.19683 0.28711 0.0
H555 H 0.378 0.18819 0.37109 0.0
H556 H 0.30603 0.14936 0.66567 0.0
H557 H 0.29954 0.15062 0.75084 0.0
H558 H 0.22155 0.10139 0.73652 0.0
H559 H 0.22766 0.10073 0.65124 0.0
Nd560 Nd 0.54776 0.58922 0.25311 0.0
Nd561 Nd 0.5852 0.54388 0.29706 0.0
C562 C 0.51676 0.6218 0.19661 0.0
C563 C 0.51027 0.62108 0.14605 0.0
C564 C 0.51004 0.59501 0.12126 0.0
C565 C 0.50513 0.59473 0.07289 0.0
C566 C 0.50074 0.62052 0.04835 0.0
C567 C 0.50062 0.64653 0.07344 0.0
C568 C 0.50542 0.64679 0.12183 0.0
C569 C 0.58681 0.60991 0.31867 0.0
C570 C 0.59369 0.55417 0.18533 0.0
C571 C 0.61963 0.51338 0.35124 0.0
C572 C 0.62651 0.51164 0.40111 0.0
C573 C 0.64467 0.48972 0.41678 0.0
C574 C 0.64575 0.48285 0.46426 0.0
C575 C 0.62836 0.49763 0.49635 0.0
C576 C 0.61252 0.52154 0.48119 0.0
C577 C 0.61159 0.52854 0.43365 0.0
C578 C 0.54458 0.521 0.23902 0.0
C579 C 0.52903 0.57062 0.35534 0.0
O580 O 0.5058 0.60113 0.22198 0.0
O581 O 0.54342 0.62755 0.2077 0.0
O582 O 0.56116 0.62005 0.31262 0.0
O583 O 0.59191 0.59103 0.28773 0.0
O584 O 0.57043 0.57007 0.18883 0.0
O585 O 0.60651 0.54395 0.22337 0.0
O586 O 0.628 0.53638 0.32898 0.0
O587 O 0.59351 0.50554 0.34025 0.0
O588 O 0.56995 0.51023 0.24494 0.0
O589 O 0.54029 0.54194 0.26648 0.0
O590 O 0.55501 0.5589 0.35814 0.0
O591 O 0.51888 0.58029 0.31526 0.0
H592 H 0.51404 0.5749 0.13917 0.0
H593 H 0.50549 0.5744 0.05446 0.0
H594 H 0.49676 0.66669 0.05565 0.0
H595 H 0.50558 0.66711 0.14029 0.0
H596 H 0.6564 0.47659 0.39201 0.0
H597 H 0.65838 0.46454 0.4754 0.0
H598 H 0.59896 0.53323 0.50536 0.0
H599 H 0.59762 0.54571 0.42198 0.0
Nd600 Nd 0.15332 0.79461 0.99932 0.0
Nd601 Nd 0.19754 0.83365 0.04413 0.0
C602 C 0.12187 0.76254 0.94248 0.0
C603 C 0.12317 0.75467 0.89249 0.0
C604 C 0.14862 0.7581 0.86681 0.0
C605 C 0.14933 0.75148 0.81898 0.0
C606 C 0.12463 0.74116 0.796 0.0
C607 C 0.0992 0.73778 0.82195 0.0
C608 C 0.09851 0.74445 0.86974 0.0
C609 C 0.13135 0.83281 0.0649 0.0
C610 C 0.18824 0.8411 0.93218 0.0
C611 C 0.22636 0.87 0.09749 0.0
C612 C 0.22913 0.87655 0.14734 0.0
C613 C 0.25268 0.89268 0.16269 0.0
C614 C 0.25961 0.89361 0.2102 0.0
C615 C 0.24317 0.87819 0.24285 0.0
C616 C 0.21823 0.86394 0.22763 0.0
C617 C 0.21121 0.86317 0.18008 0.0
C618 C 0.22169 0.79292 0.98763 0.0
C619 C 0.17161 0.77717 0.10288 0.0
O620 O 0.14222 0.75217 0.96931 0.0
O621 O 0.11606 0.78949 0.95148 0.0
O622 O 0.12149 0.80718 0.0576 0.0
O623 O 0.15021 0.83856 0.03425 0.0
O624 O 0.17311 0.81729 0.93542 0.0
O625 O 0.19689 0.85475 0.97044 0.0
O626 O 0.20199 0.87654 0.07724 0.0
O627 O 0.23604 0.84473 0.08535 0.0
O628 O 0.23196 0.81854 0.99316 0.0
O629 O 0.20058 0.78855 1.01461 0.0
O630 O 0.18344 0.80314 0.10512 0.0
O631 O 0.16223 0.76654 0.06284 0.0
H632 H 0.16791 0.76607 0.88366 0.0
H633 H 0.16921 0.75437 0.79997 0.0
H634 H 0.07964 0.73057 0.80509 0.0
H635 H 0.0786 0.74193 0.88884 0.0
H636 H 0.26673 0.90308 0.13772 0.0
H637 H 0.27882 0.90491 0.22109 0.0
H638 H 0.20539 0.85162 0.2519 0.0
H639 H 0.19293 0.85066 0.16855 0.0
Nd640 Nd 0.59073 0.94174 0.57514 0.0
Nd641 Nd 0.54894 0.90562 0.63116 0.0
C642 C 0.61787 0.97183 0.50935 0.0
C643 C 0.61451 0.98189 0.45999 0.0
C644 C 0.58804 0.99155 0.44212 0.0
C645 C 0.58586 0.00188 0.39592 0.0
C646 C 0.61002 0.00265 0.3662 0.0
C647 C 0.63638 0.99265 0.38414 0.0
C648 C 0.63855 0.98243 0.43032 0.0
C649 C 0.61419 0.89442 0.62041 0.0
C650 C 0.53791 0.90712 0.52147 0.0
C651 C 0.52454 0.87285 0.69587 0.0
C652 C 0.52407 0.87208 0.74746 0.0
C653 C 0.54597 0.88489 0.77419 0.0
C654 C 0.5439 0.886 0.82309 0.0
C655 C 0.51999 0.87412 0.84613 0.0
C656 C 0.49836 0.86101 0.81911 0.0
C657 C 0.50038 0.86005 0.7703 0.0
C658 C 0.52589 0.95817 0.61128 0.0
C659 C 0.59213 0.95311 0.68466 0.0
O660 O 0.60153 0.98345 0.54152 0.0
O661 O 0.62169 0.94427 0.5159 0.0
O662 O 0.62746 0.91859 0.61401 0.0
O663 O 0.59063 0.89502 0.59797 0.0
O664 O 0.5558 0.92897 0.52231 0.0
O665 O 0.53405 0.89063 0.55852 0.0
O666 O 0.54871 0.8664 0.67534 0.0
O667 O 0.51193 0.8949 0.67671 0.0
O668 O 0.5131 0.93392 0.6034 0.0
O669 O 0.55209 0.95353 0.62053 0.0
O670 O 0.57528 0.93021 0.68719 0.0
O671 O 0.59978 0.96452 0.64424 0.0
H672 H 0.56905 0.99129 0.46394 0.0
H673 H 0.56518 0.00924 0.38336 0.0
H674 H 0.65556 0.99337 0.36283 0.0
H675 H 0.65925 0.97523 0.44313 0.0
H676 H 0.56439 0.89448 0.7573 0.0
H677 H 0.56065 0.89677 0.84271 0.0
H678 H 0.47977 0.85152 0.83578 0.0
H679 H 0.48319 0.85023 0.7503 0.0
Nd680 Nd 0.29917 0.33906 0.82723 0.0
Nd681 Nd 0.33858 0.29852 0.87956 0.0
C682 C 0.26633 0.36431 0.76256 0.0
C683 C 0.25658 0.36085 0.71282 0.0
C684 C 0.24756 0.33427 0.69448 0.0
C685 C 0.23747 0.33209 0.64802 0.0
C686 C 0.2363 0.35635 0.61841 0.0
C687 C 0.24573 0.38279 0.6368 0.0
C688 C 0.2557 0.38498 0.68322 0.0
C689 C 0.34705 0.36441 0.86807 0.0
C690 C 0.33528 0.28918 0.76997 0.0
C691 C 0.37355 0.27446 0.94165 0.0
C692 C 0.37278 0.27075 0.99284 0.0
C693 C 0.39845 0.26859 1.01825 0.0
C694 C 0.39789 0.26473 0.06684 0.0
C695 C 0.3716 0.26293 0.09084 0.0
C696 C 0.3459 0.26576 0.06526 0.0
C697 C 0.34648 0.2696 1.01673 0.0
C698 C 0.28575 0.2743 0.86546 0.0
C699 C 0.29258 0.34117 0.93794 0.0
O700 O 0.25639 0.34651 0.7942 0.0
O701 O 0.29336 0.37072 0.76948 0.0
O702 O 0.32229 0.37685 0.86302 0.0
O703 O 0.34669 0.34071 0.84589 0.0
O704 O 0.31194 0.30485 0.77365 0.0
O705 O 0.35325 0.28632 0.80547 0.0
O706 O 0.37661 0.30067 0.92658 0.0
O707 O 0.35438 0.2602 0.91774 0.0
O708 O 0.30985 0.26201 0.855 0.0
O709 O 0.29027 0.3005 0.87436 0.0
O710 O 0.31582 0.32467 0.93787 0.0
O711 O 0.27889 0.34759 0.89863 0.0
H712 H 0.24813 0.31519 0.71609 0.0
H713 H 0.23061 0.31131 0.63517 0.0
H714 H 0.24473 0.40206 0.61568 0.0
H715 H 0.26241 0.40577 0.69628 0.0
H716 H 0.41894 0.26969 1.00047 0.0
H717 H 0.41803 0.26265 0.08557 0.0
H718 H 0.32533 0.26531 0.08282 0.0
H719 H 0.32638 0.27172 0.99786 0.0
Nd720 Nd 0.90355 0.05351 0.07264 0.0
Nd721 Nd 0.94689 0.08879 0.12764 0.0
C722 C 0.87621 0.02414 1.00592 0.0
C723 C 0.87984 0.01332 0.95682 0.0
C724 C 0.90272 0.99523 0.94385 0.0
C725 C 0.90454 0.98403 0.89813 0.0
C726 C 0.88352 0.99043 0.86405 0.0
C727 C 0.86114 0.00918 0.87675 0.0
C728 C 0.85928 0.02032 0.92246 0.0
C729 C 0.88155 0.10163 0.1175 0.0
C730 C 0.95663 0.08646 1.018 0.0
C731 C 0.97193 0.12116 0.19231 0.0
C732 C 0.97334 0.121 0.24409 0.0
C733 C 0.96532 0.14557 0.26936 0.0
C734 C 0.96719 0.14597 0.3183 0.0
C735 C 0.97704 0.12173 0.34294 0.0
C736 C 0.98469 0.09704 0.31759 0.0
C737 C 0.98278 0.09662 0.26874 0.0
C738 C 0.96798 0.03516 0.10858 0.0
C739 C 0.90202 0.04314 0.1822 0.0
O740 O 0.89108 0.012 0.0396 0.0
O741 O 0.87359 0.05191 1.01172 0.0
O742 O 0.86746 0.07797 0.11058 0.0
O743 O 0.90509 0.10034 0.09511 0.0
O744 O 0.93906 0.06444 1.02046 0.0
O745 O 0.96088 0.10349 0.05434 0.0
O746 O 0.94716 0.12738 0.17353 0.0
O747 O 0.98496 0.10032 0.1704 0.0
O748 O 0.98195 0.05886 0.10125 0.0
O749 O 0.94208 0.04098 0.11806 0.0
O750 O 0.92022 0.06507 0.18432 0.0
O751 O 0.89343 0.03194 0.14205 0.0
H752 H 0.91914 0.98953 0.96908 0.0
H753 H 0.92255 0.97039 0.88932 0.0
H754 H 0.84462 0.01471 0.85158 0.0
H755 H 0.84138 0.03416 0.9312 0.0
H756 H 0.95794 0.16461 0.25117 0.0
H757 H 0.96163 0.1655 0.33674 0.0
H758 H 0.99225 0.07802 0.33561 0.0
H759 H 0.98892 0.07724 0.25034 0.0
Nd760 Nd 0.19731 0.65406 0.32253 0.0
Nd761 Nd 0.15895 0.69477 0.37934 0.0
C762 C 0.23011 0.62942 0.25737 0.0
C763 C 0.24179 0.63361 0.20901 0.0
C764 C 0.22547 0.6461 0.17274 0.0
C765 C 0.23657 0.64826 0.12694 0.0
C766 C 0.26435 0.63816 0.11614 0.0
C767 C 0.28049 0.62561 0.15259 0.0
C768 C 0.2694 0.62342 0.19822 0.0
C769 C 0.15082 0.62831 0.36644 0.0
C770 C 0.16083 0.70596 0.26939 0.0
C771 C 0.12489 0.71877 0.44282 0.0
C772 C 0.12211 0.71901 0.49432 0.0
C773 C 0.12987 0.6952 0.52171 0.0
C774 C 0.13004 0.69714 0.57074 0.0
C775 C 0.12209 0.72286 0.59326 0.0
C776 C 0.11354 0.74631 0.56548 0.0
C777 C 0.11366 0.74442 0.51663 0.0
C778 C 0.21155 0.71855 0.36023 0.0
C779 C 0.20604 0.65138 0.43345 0.0
O780 O 0.24047 0.64531 0.29136 0.0
O781 O 0.20247 0.6249 0.26159 0.0
O782 O 0.17493 0.61555 0.35725 0.0
O783 O 0.15057 0.65246 0.3456 0.0
O784 O 0.18316 0.68866 0.27014 0.0
O785 O 0.14417 0.70934 0.30636 0.0
O786 O 0.11848 0.69508 0.42061 0.0
O787 O 0.14791 0.73101 0.42635 0.0
O788 O 0.18718 0.73147 0.35354 0.0
O789 O 0.20685 0.69244 0.36951 0.0
O790 O 0.18258 0.66756 0.43523 0.0
O791 O 0.21867 0.64512 0.39324 0.0
H792 H 0.20406 0.65407 0.17971 0.0
H793 H 0.2235 0.65817 0.10003 0.0
H794 H 0.30167 0.61702 0.14571 0.0
H795 H 0.28238 0.61336 0.22512 0.0
H796 H 0.1364 0.67535 0.50516 0.0
H797 H 0.13724 0.67879 0.59084 0.0
H798 H 0.10699 0.76632 0.58156 0.0
H799 H 0.10765 0.76308 0.49618 0.0
Nd800 Nd 0.58332 0.041 0.06565 0.0
Nd801 Nd 0.55036 0.08906 0.11037 0.0
C802 C 0.61505 0.00845 1.0106 0.0
C803 C 0.62184 0.00847 0.96076 0.0
C804 C 0.61021 0.02968 0.93147 0.0
C805 C 0.6104 0.02585 0.88306 0.0
C806 C 0.62247 0.00094 0.86375 0.0
C807 C 0.63657 0.9812 0.89286 0.0
C808 C 0.63614 0.9849 0.94132 0.0
C809 C 0.54176 0.02111 0.12451 0.0
C810 C 0.52884 0.07203 1.00867 0.0
C811 C 0.52335 0.12415 0.16814 0.0
C812 C 0.51555 0.12288 0.21813 0.0
C813 C 0.51118 0.09641 0.2406 0.0
C814 C 0.50441 0.09544 0.28831 0.0
C815 C 0.50194 0.1209 0.31452 0.0
C816 C 0.50675 0.14732 0.29193 0.0
C817 C 0.51339 0.14828 0.24418 0.0
C818 C 0.58981 0.10658 0.04327 0.0
C819 C 0.59377 0.04998 0.17671 0.0
O820 O 0.62553 0.02962 0.03531 0.0
O821 O 0.58818 0.00294 1.02031 0.0
O822 O 0.56609 0.00838 0.11761 0.0
O823 O 0.53872 0.04252 0.09758 0.0
O824 O 0.55374 0.05824 1.00544 0.0
O825 O 0.51999 0.08254 0.04897 0.0
O826 O 0.51003 0.10615 0.14032 0.0
O827 O 0.55082 0.1262 0.15911 0.0
O828 O 0.5652 0.11876 0.05036 0.0
O829 O 0.59397 0.08751 0.07424 0.0
O830 O 0.57144 0.06724 0.174 0.0
O831 O 0.60583 0.03981 0.13818 0.0
H832 H 0.59912 0.04803 0.9461 0.0
H833 H 0.59918 0.04112 0.86102 0.0
H834 H 0.64562 0.96167 0.87845 0.0
H835 H 0.64512 0.96835 0.96363 0.0
H836 H 0.5131 0.07646 0.2213 0.0
H837 H 0.50096 0.07475 0.30467 0.0
H838 H 0.50589 0.16727 0.31135 0.0
H839 H 0.51712 0.16888 0.22768 0.0
Nd840 Nd 0.19883 0.33336 0.31572 0.0
Nd841 Nd 0.15477 0.29378 0.36033 0.0
C842 C 0.22762 0.36957 0.2623 0.0
C843 C 0.23029 0.37583 0.21235 0.0
C844 C 0.25327 0.39272 0.19707 0.0
C845 C 0.26087 0.39285 0.14988 0.0
C846 C 0.2458 0.37569 0.11766 0.0
C847 C 0.22102 0.36109 0.13234 0.0
C848 C 0.21331 0.36114 0.17957 0.0
C849 C 0.22313 0.2925 0.37181 0.0
C850 C 0.17315 0.27678 0.25681 0.0
C851 C 0.12418 0.26056 0.41638 0.0
C852 C 0.12603 0.25205 0.466 0.0
C853 C 0.15062 0.25831 0.49268 0.0
C854 C 0.15168 0.25134 0.54033 0.0
C855 C 0.12829 0.23768 0.56208 0.0
C856 C 0.10389 0.23109 0.53493 0.0
C857 C 0.10278 0.23824 0.48736 0.0
C858 C 0.13246 0.33178 0.29456 0.0
C859 C 0.18961 0.34047 0.42778 0.0
O860 O 0.20334 0.37624 0.28252 0.0
O861 O 0.23729 0.34434 0.2747 0.0
O862 O 0.23344 0.31812 0.36657 0.0
O863 O 0.20192 0.28826 0.34487 0.0
O864 O 0.18468 0.30287 0.2546 0.0
O865 O 0.16407 0.26598 0.2968 0.0
O866 O 0.1445 0.25084 0.38903 0.0
O867 O 0.11796 0.28755 0.40842 0.0
O868 O 0.12257 0.30621 0.30224 0.0
O869 O 0.15136 0.33765 0.32526 0.0
O870 O 0.17438 0.31673 0.42429 0.0
O871 O 0.19833 0.3542 0.3897 0.0
H872 H 0.26654 0.40422 0.22203 0.0
H873 H 0.27976 0.40468 0.13911 0.0
H874 H 0.20905 0.34782 0.10806 0.0
H875 H 0.1954 0.34814 0.19101 0.0
H876 H 0.16884 0.26895 0.47684 0.0
H877 H 0.17052 0.25735 0.56037 0.0
H878 H 0.08556 0.22052 0.55059 0.0
H879 H 0.08364 0.23322 0.46735 0.0
Nd880 Nd 0.90832 0.9524 0.5637 0.0
Nd881 Nd 0.94511 0.90586 0.60938 0.0
C882 C 0.87362 0.98087 0.50719 0.0
C883 C 0.86962 0.98227 0.45647 0.0
C884 C 0.88455 0.96328 0.42717 0.0
C885 C 0.88605 0.96864 0.3792 0.0
C886 C 0.87253 0.99292 0.36018 0.0
C887 C 0.85557 0.01044 0.38898 0.0
C888 C 0.85425 0.0052 0.43704 0.0
C889 C 0.95044 0.97422 0.61966 0.0
C890 C 0.96406 0.92316 0.50561 0.0
C891 C 0.97549 0.87398 0.66798 0.0
C892 C 0.98151 0.87356 0.71918 0.0
C893 C 0.00851 0.88221 0.73637 0.0
C894 C 0.01425 0.88226 0.78459 0.0
C895 C 0.9931 0.87374 0.81671 0.0
C896 C 0.96636 0.86449 0.79951 0.0
C897 C 0.9606 0.86442 0.75139 0.0
C898 C 0.9057 0.8864 0.54375 0.0
C899 C 0.89887 0.94319 0.67485 0.0
O900 O 0.86638 0.95679 0.52755 0.0
O901 O 0.89819 0.991 0.52207 0.0
O902 O 0.92539 0.98606 0.61461 0.0
O903 O 0.95338 0.95263 0.59305 0.0
O904 O 0.94002 0.93859 0.50444 0.0
O905 O 0.97296 0.91025 0.54414 0.0
O906 O 0.98655 0.89523 0.64391 0.0
O907 O 0.94938 0.8674 0.65442 0.0
O908 O 0.93055 0.87468 0.55125 0.0
O909 O 0.90123 0.90554 0.5745 0.0
O910 O 0.92137 0.92603 0.67241 0.0
O911 O 0.88692 0.95393 0.63658 0.0
H912 H 0.89648 0.94542 0.44171 0.0
H913 H 0.89924 0.95491 0.35744 0.0
H914 H 0.84521 0.0294 0.37492 0.0
H915 H 0.84275 0.02007 0.45934 0.0
H916 H 0.02517 0.88911 0.71249 0.0
H917 H 0.0351 0.88939 0.79683 0.0
H918 H 0.9499 0.85711 0.82336 0.0
H919 H 0.93969 0.85723 0.73957 0.0
Nd920 Nd 0.29714 0.66451 0.81345 0.0
Nd921 Nd 0.34328 0.70194 0.85637 0.0
C922 C 0.26605 0.62981 0.76061 0.0
C923 C 0.26372 0.6223 0.71104 0.0
C924 C 0.23962 0.60702 0.69568 0.0
C925 C 0.23337 0.60534 0.648 0.0
C926 C 0.25123 0.61891 0.61522 0.0
C927 C 0.27672 0.63205 0.63042 0.0
C928 C 0.28287 0.63388 0.67824 0.0
C929 C 0.27524 0.70627 0.87046 0.0
C930 C 0.3243 0.71999 0.75383 0.0
C931 C 0.37616 0.73271 0.91274 0.0
C932 C 0.37533 0.73987 0.96306 0.0
C933 C 0.40106 0.74392 0.98774 0.0
C934 C 0.40069 0.74917 0.03598 0.0
C935 C 0.37456 0.75039 0.06048 0.0
C936 C 0.34874 0.74686 0.03548 0.0
C937 C 0.34912 0.74145 0.98725 0.0
C938 C 0.36321 0.66401 0.78879 0.0
C939 C 0.30834 0.65611 0.9248 0.0
O940 O 0.28921 0.62146 0.78274 0.0
O941 O 0.25853 0.65613 0.77078 0.0
O942 O 0.2641 0.68094 0.86605 0.0
O943 O 0.29613 0.70967 0.84276 0.0
O944 O 0.31186 0.69431 0.75193 0.0
O945 O 0.3342 0.73048 0.79362 0.0
O946 O 0.35594 0.7439 0.8865 0.0
O947 O 0.38138 0.70578 0.90272 0.0
O948 O 0.37405 0.68914 0.79686 0.0
O949 O 0.34466 0.65829 0.82007 0.0
O950 O 0.32414 0.67942 0.92091 0.0
O951 O 0.29796 0.64319 0.88703 0.0
H952 H 0.22459 0.59808 0.72064 0.0
H953 H 0.21353 0.59524 0.63691 0.0
H954 H 0.29055 0.64296 0.60574 0.0
H955 H 0.30143 0.64598 0.68973 0.0
H956 H 0.42148 0.74274 0.96976 0.0
H957 H 0.42089 0.7523 0.05416 0.0
H958 H 0.32831 0.74753 0.05347 0.0
H959 H 0.32897 0.7381 0.96901 0.0
Nd960 Nd 0.44885 0.08496 0.73031 0.0
Nd961 Nd 0.40677 0.04831 0.7863 0.0
C962 C 0.47351 0.11799 0.66635 0.0
C963 C 0.47559 0.11879 0.61472 0.0
C964 C 0.45127 0.11608 0.58573 0.0
C965 C 0.45421 0.1161 0.53688 0.0
C966 C 0.48151 0.11857 0.51622 0.0
C967 C 0.50572 0.12105 0.54537 0.0
C968 C 0.50276 0.12128 0.59404 0.0
C969 C 0.47115 0.03171 0.7489 0.0
C970 C 0.40565 0.03805 0.67564 0.0
C971 C 0.38034 0.01655 0.85079 0.0
C972 C 0.38356 0.00566 0.89984 0.0
C973 C 0.37802 0.97663 0.90975 0.0
C974 C 0.37935 0.96614 0.95587 0.0
C975 C 0.38615 0.9844 0.99368 0.0
C976 C 0.39201 0.01346 0.98362 0.0
C977 C 0.39064 0.02395 0.93742 0.0
C978 C 0.38281 0.09539 0.74117 0.0
C979 C 0.4591 0.08362 0.84046 0.0
O980 O 0.44873 0.12391 0.68541 0.0
O981 O 0.48649 0.09661 0.68683 0.0
O982 O 0.48475 0.05564 0.75611 0.0
O983 O 0.44507 0.03714 0.74032 0.0
O984 O 0.42241 0.06105 0.67362 0.0
O985 O 0.39784 0.02652 0.716 0.0
O986 O 0.39695 0.00564 0.81834 0.0
O987 O 0.37592 0.0441 0.845 0.0
O988 O 0.36943 0.07151 0.74954 0.0
O989 O 0.40667 0.09504 0.76299 0.0
O990 O 0.44126 0.06172 0.8396 0.0
O991 O 0.46326 0.09993 0.80328 0.0
H992 H 0.43008 0.11363 0.60073 0.0
H993 H 0.43522 0.11367 0.5153 0.0
H994 H 0.52698 0.12309 0.53044 0.0
H995 H 0.52182 0.12323 0.61566 0.0
H996 H 0.3723 0.96201 0.88173 0.0
H997 H 0.37467 0.94368 0.96201 0.0
H998 H 0.39805 0.02809 1.0114 0.0
H999 H 0.39498 0.04643 0.93115 0.0
Nd1000 Nd 0.65631 0.69559 0.48331 0.0
Nd1001 Nd 0.69643 0.65569 0.53923 0.0
C1002 C 0.62019 0.7179 0.42111 0.0
C1003 C 0.61635 0.71768 0.36985 0.0
C1004 C 0.62684 0.69514 0.34207 0.0
C1005 C 0.62607 0.69715 0.29307 0.0
C1006 C 0.61445 0.72163 0.27108 0.0
C1007 C 0.60301 0.74358 0.29931 0.0
C1008 C 0.60407 0.74167 0.3481 0.0
C1009 C 0.70807 0.72107 0.50305 0.0
C1010 C 0.7054 0.65517 0.42816 0.0
C1011 C 0.73083 0.6315 0.60274 0.0
C1012 C 0.74197 0.63531 0.65154 0.0
C1013 C 0.72422 0.64448 0.68846 0.0
C1014 C 0.7348 0.64621 0.73463 0.0
C1015 C 0.76342 0.63864 0.74529 0.0
C1016 C 0.78122 0.62997 0.70801 0.0
C1017 C 0.77063 0.62828 0.66194 0.0
C1018 C 0.6506 0.62899 0.49459 0.0
C1019 C 0.65816 0.7057 0.5938 0.0
O1020 O 0.61514 0.69409 0.44379 0.0
O1021 O 0.6431 0.73107 0.43627 0.0
O1022 O 0.68331 0.73342 0.50876 0.0
O1023 O 0.70421 0.69485 0.49362 0.0
O1024 O 0.68117 0.67021 0.42648 0.0
O1025 O 0.7181 0.64892 0.4684 0.0
O1026 O 0.74007 0.64907 0.57025 0.0
O1027 O 0.7036 0.62508 0.59763 0.0
O1028 O 0.67527 0.61698 0.50273 0.0
O1029 O 0.64975 0.6528 0.51637 0.0
O1030 O 0.68079 0.68878 0.59298 0.0
O1031 O 0.64166 0.70945 0.55663 0.0
H1032 H 0.63629 0.67637 0.35827 0.0
H1033 H 0.63549 0.68002 0.27258 0.0
H1034 H 0.59358 0.76254 0.28362 0.0
H1035 H 0.59588 0.7593 0.3689 0.0
H1036 H 0.70209 0.65015 0.68165 0.0
H1037 H 0.72059 0.65378 0.76192 0.0
H1038 H 0.80334 0.62402 0.71458 0.0
H1039 H 0.78483 0.62105 0.63437 0.0
Nd1040 Nd 0.04842 0.90761 0.22964 0.0
Nd1041 Nd 0.08956 0.94551 0.28215 0.0
C1042 C 0.02369 0.87232 0.16843 0.0
C1043 C 0.02127 0.87031 0.11694 0.0
C1044 C 0.04419 0.87775 0.0874 0.0
C1045 C 0.04044 0.8781 0.03865 0.0
C1046 C 0.01367 0.87113 1.01867 0.0
C1047 C 0.99117 0.86269 0.04841 0.0
C1048 C 0.9949 0.86242 0.09698 0.0
C1049 C 0.02466 0.96057 0.24311 0.0
C1050 C 0.09189 0.95361 0.17234 0.0
C1051 C 0.11672 0.97549 0.34835 0.0
C1052 C 0.11239 0.98743 0.39671 0.0
C1053 C 0.10037 0.01483 0.40372 0.0
C1054 C 0.09744 0.0263 0.44902 0.0
C1055 C 0.10636 0.01078 0.48889 0.0
C1056 C 0.11889 0.98363 0.48184 0.0
C1057 C 0.12187 0.97215 0.4365 0.0
C1058 C 0.11393 0.89724 0.24061 0.0
C1059 C 0.03595 0.91522 0.3382 0.0
O1060 O 0.04881 0.86765 0.18718 0.0
O1061 O 0.01054 0.89397 0.18771 0.0
O1062 O 0.01193 0.93654 0.25256 0.0
O1063 O 0.05104 0.95599 0.23503 0.0
O1064 O 0.0754 0.93026 0.17154 0.0
O1065 O 0.09826 0.96677 0.21202 0.0
O1066 O 0.10314 0.98743 0.31305 0.0
O1067 O 0.11835 0.94754 0.34418 0.0
O1068 O 0.12664 0.92181 0.2456 0.0
O1069 O 0.09037 0.89797 0.26307 0.0
O1070 O 0.05259 0.93772 0.33295 0.0
O1071 O 0.0345 0.89541 0.30502 0.0
H1072 H 0.06479 0.88379 0.10201 0.0
H1073 H 0.05822 0.88458 1.01668 0.0
H1074 H 0.97053 0.85648 0.03409 0.0
H1075 H 0.97698 0.85649 0.11908 0.0
H1076 H 0.09335 0.02757 0.37414 0.0
H1077 H 0.08833 0.04756 0.45276 0.0
H1078 H 0.126 0.97101 0.51151 0.0
H1079 H 0.13171 0.95122 0.43263 0.0
Nd1080 Nd 0.83684 0.30293 0.98289 0.0
Nd1081 Nd 0.79897 0.34336 0.03961 0.0
C1082 C 0.86997 0.27898 0.91825 0.0
C1083 C 0.87088 0.27758 0.86643 0.0
C1084 C 0.87275 0.30241 0.83851 0.0
C1085 C 0.87279 0.30027 0.78952 0.0
C1086 C 0.87037 0.27334 0.76767 0.0
C1087 C 0.86859 0.2486 0.79558 0.0
C1088 C 0.86899 0.2507 0.84438 0.0
C1089 C 0.7842 0.27915 1.00108 0.0
C1090 C 0.79033 0.34672 0.92883 0.0
C1091 C 0.7664 0.36851 0.10455 0.0
C1092 C 0.75642 0.3642 0.15363 0.0
C1093 C 0.76925 0.34379 0.18324 0.0
C1094 C 0.75991 0.34048 0.22973 0.0
C1095 C 0.73736 0.3574 0.24784 0.0
C1096 C 0.72491 0.37813 0.21825 0.0
C1097 C 0.73428 0.38142 0.17175 0.0
C1098 C 0.8458 0.36908 0.99678 0.0
C1099 C 0.83565 0.29162 0.09262 0.0
O1100 O 0.87607 0.30337 0.9386 0.0
O1101 O 0.84844 0.26587 0.93801 0.0
O1102 O 0.80853 0.26635 1.00846 0.0
O1103 O 0.78875 0.30534 0.99209 0.0
O1104 O 0.81363 0.33039 0.927 0.0
O1105 O 0.77766 0.3528 0.96906 0.0
O1106 O 0.75615 0.35132 0.07222 0.0
O1107 O 0.79375 0.37387 0.09873 0.0
O1108 O 0.82158 0.38178 1.00531 0.0
O1109 O 0.84585 0.34487 1.01744 0.0
O1110 O 0.81321 0.30877 0.09199 0.0
O1111 O 0.85225 0.28844 0.05554 0.0
H1112 H 0.87383 0.32344 0.85441 0.0
H1113 H 0.87412 0.31966 0.76871 0.0
H1114 H 0.867 0.22757 0.77956 0.0
H1115 H 0.86752 0.23124 0.86502 0.0
H1116 H 0.78654 0.33042 0.17048 0.0
H1117 H 0.77044 0.32465 0.25159 0.0
H1118 H 0.70747 0.39143 0.23077 0.0
H1119 H 0.72413 0.39747 0.14982 0.0
Nd1120 Nd 0.44918 0.90378 0.25156 0.0
Nd1121 Nd 0.41072 0.94913 0.29678 0.0
C1122 C 0.48157 0.87272 0.19485 0.0
C1123 C 0.48969 0.87448 0.14507 0.0
C1124 C 0.48404 0.8994 0.11894 0.0
C1125 C 0.49061 0.90044 0.07117 0.0
C1126 C 0.50326 0.87671 0.04876 0.0
C1127 C 0.50923 0.85195 0.07525 0.0
C1128 C 0.50245 0.85085 0.12297 0.0
C1129 C 0.40996 0.8826 0.31581 0.0
C1130 C 0.40312 0.94001 0.18492 0.0
C1131 C 0.3752 0.97826 0.35091 0.0
C1132 C 0.36936 0.98038 0.40109 0.0
C1133 C 0.37923 0.95915 0.43203 0.0
C1134 C 0.37965 0.96443 0.48015 0.0
C1135 C 0.37066 0.99109 0.49746 0.0
C1136 C 0.35875 0.01139 0.46685 0.0
C1137 C 0.35801 0.006 0.41882 0.0
C1138 C 0.45326 0.97189 0.24239 0.0
C1139 C 0.46632 0.92103 0.35585 0.0
O1140 O 0.49178 0.89289 0.22215 0.0
O1141 O 0.45456 0.86686 0.20328 0.0
O1142 O 0.43511 0.87162 0.30832 0.0
O1143 O 0.40506 0.902 0.28562 0.0
O1144 O 0.42658 0.92433 0.18816 0.0
O1145 O 0.38976 0.94921 0.22301 0.0
O1146 O 0.36803 0.95427 0.33004 0.0
O1147 O 0.40047 0.98771 0.33836 0.0
O1148 O 0.42797 0.98328 0.24638 0.0
O1149 O 0.456 0.95047 0.26917 0.0
O1150 O 0.44069 0.93362 0.35794 0.0
O1151 O 0.47682 0.9115 0.3159 0.0
H1152 H 0.47433 0.91795 0.13536 0.0
H1153 H 0.48577 0.9198 0.05168 0.0
H1154 H 0.51845 0.83315 0.0588 0.0
H1155 H 0.50684 0.8314 0.14249 0.0
H1156 H 0.38843 0.93942 0.41882 0.0
H1157 H 0.38904 0.94873 0.50347 0.0
H1158 H 0.35218 0.03227 0.4797 0.0
H1159 H 0.35056 0.02269 0.39532 0.0
Nd1160 Nd 0.84198 0.70344 1.00319 0.0
Nd1161 Nd 0.79814 0.66403 0.04774 0.0
C1162 C 0.8721 0.73569 0.94529 0.0
C1163 C 0.87155 0.74074 0.89407 0.0
C1164 C 0.8685 0.76875 0.87661 0.0
C1165 C 0.86686 0.77369 0.82829 0.0
C1166 C 0.86806 0.75067 0.79647 0.0
C1167 C 0.87149 0.72268 0.814 0.0
C1168 C 0.87321 0.71777 0.86222 0.0
C1169 C 0.86434 0.66527 0.06813 0.0
C1170 C 0.80819 0.65547 0.93645 0.0
C1171 C 0.77029 0.62771 0.10216 0.0
C1172 C 0.76705 0.62277 0.15241 0.0
C1173 C 0.74231 0.60885 0.1683 0.0
C1174 C 0.73528 0.6095 0.21567 0.0
C1175 C 0.75301 0.62399 0.24768 0.0
C1176 C 0.77894 0.63606 0.23228 0.0
C1177 C 0.7859 0.63557 0.1847 0.0
C1178 C 0.77362 0.70432 0.99087 0.0
C1179 C 0.82411 0.72051 0.10737 0.0
O1180 O 0.85012 0.74548 0.96898 0.0
O1181 O 0.88049 0.71025 0.9594 0.0
O1182 O 0.87409 0.69096 0.06109 0.0
O1183 O 0.84539 0.65946 0.03751 0.0
O1184 O 0.82353 0.67918 0.93946 0.0
O1185 O 0.79887 0.64238 0.97467 0.0
O1186 O 0.79532 0.62192 0.08371 0.0
O1187 O 0.75935 0.65187 0.08719 0.0
O1188 O 0.7638 0.67849 0.99613 0.0
O1189 O 0.79462 0.7091 1.01819 0.0
O1190 O 0.8106 0.69537 0.10841 0.0
O1191 O 0.83524 0.73075 0.06835 0.0
H1192 H 0.86717 0.78682 0.90039 0.0
H1193 H 0.86427 0.79549 0.8158 0.0
H1194 H 0.87317 0.70456 0.7904 0.0
H1195 H 0.87577 0.69593 0.87447 0.0
H1196 H 0.72749 0.59907 0.14371 0.0
H1197 H 0.71513 0.60018 0.22696 0.0
H1198 H 0.79269 0.64766 0.2564 0.0
H1199 H 0.805 0.64665 0.17283 0.0
Nd1200 Nd 0.04532 0.0952 0.74877 0.0
Nd1201 Nd 0.08119 0.04799 0.79069 0.0
C1202 C 0.01626 0.12957 0.69244 0.0
C1203 C 0.00911 0.12923 0.6417 0.0
C1204 C 0.98337 0.1168 0.62561 0.0
C1205 C 0.97715 0.11557 0.57767 0.0
C1206 C 0.99645 0.1269 0.54476 0.0
C1207 C 0.02205 0.13952 0.5608 0.0
C1208 C 0.02825 0.1408 0.60867 0.0
C1209 C 0.08532 0.11367 0.81435 0.0
C1210 C 0.08807 0.0577 0.67897 0.0
C1211 C 0.11441 0.01569 0.84419 0.0
C1212 C 0.12048 0.01283 0.89421 0.0
C1213 C 0.10645 0.03043 0.92678 0.0
C1214 C 0.10707 0.02344 0.97431 0.0
C1215 C 0.12192 -0.00109 0.98975 0.0
C1216 C 0.1378 0.98275 0.9573 0.0
C1217 C 0.13699 0.98962 0.90979 0.0
C1218 C 0.03925 0.02702 0.73347 0.0
C1219 C 0.02595 0.07594 0.84982 0.0
O1220 O 0.00397 0.11005 0.71864 0.0
O1221 O 0.04325 0.13377 0.70359 0.0
O1222 O 0.06 0.12474 0.80906 0.0
O1223 O 0.08967 0.09499 0.78276 0.0
O1224 O 0.06585 0.07482 0.68401 0.0
O1225 O 0.10179 0.04763 0.71628 0.0
O1226 O 0.12347 0.039 0.82352 0.0
O1227 O 0.0883 0.0086 0.8319 0.0
O1228 O 0.06423 0.01526 0.73876 0.0
O1229 O 0.03588 0.04808 0.76116 0.0
O1230 O 0.05154 0.06336 0.85213 0.0
O1231 O 0.01603 0.08648 0.81021 0.0
H1232 H 0.96813 0.1077 0.65003 0.0
H1233 H 0.95748 0.10527 0.56631 0.0
H1234 H 0.03726 0.14855 0.53625 0.0
H1235 H 0.0482 0.1507 0.61969 0.0
H1236 H 0.09357 0.04844 0.91517 0.0
H1237 H 0.09427 0.03604 0.99835 0.0
H1238 H 0.14956 0.96386 0.96838 0.0
H1239 H 0.14789 0.97584 0.88496 0.0
Nd1240 Nd 0.6552 0.29223 0.50522 0.0
Nd1241 Nd 0.69952 0.33146 0.54902 0.0
C1242 C 0.62404 0.26127 0.44669 0.0
C1243 C 0.62487 0.25652 0.39534 0.0
C1244 C 0.62754 0.22858 0.37742 0.0
C1245 C 0.62903 0.22387 0.32903 0.0
C1246 C 0.62785 0.24702 0.29744 0.0
C1247 C 0.62494 0.27497 0.31548 0.0
C1248 C 0.62368 0.2797 0.3638 0.0
C1249 C 0.63357 0.3304 0.57086 0.0
C1250 C 0.69047 0.33774 0.43701 0.0
C1251 C 0.7282 0.36802 0.6022 0.0
C1252 C 0.73083 0.37541 0.65176 0.0
C1253 C 0.71198 0.36376 0.68495 0.0
C1254 C 0.71868 0.36537 0.73262 0.0
C1255 C 0.74438 0.37841 0.74724 0.0
C1256 C 0.7619 0.39206 0.71409 0.0
C1257 C 0.75513 0.39057 0.66661 0.0
C1258 C 0.72385 0.29056 0.49316 0.0
C1259 C 0.67391 0.27468 0.60792 0.0
O1260 O 0.64538 0.25049 0.47096 0.0
O1261 O 0.6165 0.28692 0.46099 0.0
O1262 O 0.62381 0.30467 0.56401 0.0
O1263 O 0.65217 0.33623 0.53979 0.0
O1264 O 0.67455 0.31463 0.44141 0.0
O1265 O 0.69943 0.35194 0.47454 0.0
O1266 O 0.70412 0.37463 0.58111 0.0
O1267 O 0.73764 0.34246 0.59123 0.0
O1268 O 0.73408 0.31621 0.49864 0.0
O1269 O 0.70264 0.28621 0.52002 0.0
O1270 O 0.68564 0.30072 0.61003 0.0
O1271 O 0.66437 0.26399 0.56805 0.0
H1272 H 0.62863 0.21036 0.40092 0.0
H1273 H 0.63136 0.20209 0.31632 0.0
H1274 H 0.62324 0.29325 0.29225 0.0
H1275 H 0.62174 0.30155 0.37634 0.0
H1276 H 0.69321 0.35183 0.67386 0.0
H1277 H 0.70505 0.35448 0.7576 0.0
H1278 H 0.78184 0.40217 0.72471 0.0
H1279 H 0.76992 0.39957 0.64132 0.0
C1280 C 0.12181 0.48762 0.2373 0.0
C1281 C 0.10771 0.46092 0.23395 0.0
C1282 C 0.13036 0.49876 0.28088 0.0
C1283 C 0.12593 0.48312 0.32226 0.0
H1284 H 0.12538 0.5005 0.2063 0.0
H1285 H 0.14011 0.51986 0.28233 0.0
S1286 S 0.09162 0.41161 0.33288 0.0
N1287 N 0.09068 0.4188 0.2764 0.0
N1288 N 0.1074 0.43949 0.35745 0.0
C1289 C 0.11291 0.45601 0.31926 0.0
C1290 C 0.1037 0.44493 0.27532 0.0
C1291 C 0.75458 0.83746 0.55953 0.0
C1292 C 0.74432 0.86509 0.5699 0.0
C1293 C 0.76748 0.83154 0.51653 0.0
C1294 C 0.77005 0.85291 0.48215 0.0
H1295 H 0.75339 0.82052 0.58544 0.0
H1296 H 0.77545 0.81005 0.51012 0.0
S1297 S 0.74579 0.9284 0.4916 0.0
N1298 N 0.73726 0.91395 0.54255 0.0
N1299 N 0.76073 0.90249 0.46051 0.0
C1300 C 0.75917 0.88042 0.49145 0.0
C1301 C 0.74656 0.88663 0.53578 0.0
C1302 C 0.37125 0.54237 0.75844 0.0
C1303 C 0.38874 0.52747 0.72699 0.0
C1304 C 0.36592 0.53162 0.8031 0.0
C1305 C 0.37892 0.50609 0.81863 0.0
H1306 H 0.36214 0.56279 0.74916 0.0
H1307 H 0.35241 0.54407 0.82633 0.0
S1308 S 0.42701 0.45912 0.74888 0.0
N1309 N 0.4182 0.4854 0.71283 0.0
N1310 N 0.41012 0.46597 0.79842 0.0
C1311 C 0.39598 0.49049 0.7869 0.0
C1312 C 0.40054 0.50108 0.7407 0.0
C1313 C 0.75891 0.12253 0.03295 0.0
C1314 C 0.74233 0.12428 0.07393 0.0
C1315 C 0.74742 0.13052 0.98932 0.0
C1316 C 0.71916 0.14104 0.98544 0.0
H1317 H 0.78095 0.11518 0.03473 0.0
H1318 H 0.761 0.12904 0.95869 0.0
S1319 S 0.6671 0.14985 0.0831 0.0
N1320 N 0.69644 0.1373 0.10816 0.0
N1321 N 0.67482 0.15232 1.02696 0.0
C1322 C 0.7024 0.14273 1.02644 0.0
C1323 C 0.71398 0.13431 0.07046 0.0
C1324 C 0.91708 0.52254 0.10133 0.0
C1325 C 0.89618 0.52731 0.13576 0.0
C1326 C 0.90975 0.5102 0.05845 0.0
C1327 C 0.88118 0.5028 0.04828 0.0
H1328 H 0.93924 0.52864 0.10743 0.0
H1329 H 0.92636 0.50747 1.03231 0.0
S1330 S 0.81858 0.51082 0.12678 0.0
N1331 N 0.846 0.52301 0.1578 0.0
N1332 N 0.83193 0.50076 0.07578 0.0
C1333 C 0.8601 0.50713 0.08252 0.0
C1334 C 0.86771 0.51909 0.12679 0.0
C1335 C 0.23918 0.12047 0.87724 0.0
C1336 C 0.22584 0.14717 0.8845 0.0
C1337 C 0.25134 0.11368 0.83368 0.0
C1338 C 0.2515 0.13392 0.79728 0.0
H1339 H 0.23884 0.10426 0.90441 0.0
H1340 H 0.25999 0.09238 0.82803 0.0
S1341 S 0.22327 0.20822 0.80123 0.0
N1342 N 0.21593 0.19477 0.85327 0.0
N1343 N 0.23969 0.18232 0.7723 0.0
C1344 C 0.23997 0.16126 0.80526 0.0
C1345 C 0.22696 0.16787 0.8488 0.0
C1346 C 0.62508 0.50088 0.58393 0.0
C1347 C 0.62228 0.4848 0.54256 0.0
C1348 C 0.61682 0.48933 0.62727 0.0
C1349 C 0.60491 0.46158 0.63041 0.0
H1350 H 0.63344 0.52257 0.58266 0.0
H1351 H 0.61911 0.50254 0.65826 0.0
S1352 S 0.59257 0.41127 0.53117 0.0
N1353 N 0.60674 0.44007 0.50695 0.0
N1354 N 0.59085 0.41843 0.58762 0.0
C1355 C 0.60217 0.44533 0.58897 0.0
C1356 C 0.61093 0.45694 0.54524 0.0
C1357 C 0.29421 0.85508 0.3385 0.0
C1358 C 0.27724 0.85596 0.37914 0.0
C1359 C 0.28321 0.86344 0.29515 0.0
C1360 C 0.2547 0.87292 0.29044 0.0
H1361 H 0.31618 0.84746 0.33981 0.0
H1362 H 0.29692 0.86144 0.26474 0.0
S1363 S 0.20149 0.88046 0.38596 0.0
N1364 N 0.23058 0.86799 0.41214 0.0
N1365 N 0.20991 0.88382 0.3301 0.0
C1366 C 0.23757 0.87456 0.33079 0.0
C1367 C 0.24886 0.86613 0.37527 0.0
C1368 C 0.63491 0.98955 0.78056 0.0
C1369 C 0.61436 0.992 0.81624 0.0
C1370 C 0.62741 0.9779 0.73685 0.0
C1371 C 0.59946 0.96766 0.72858 0.0
H1372 H 0.65687 0.99621 0.78679 0.0
H1373 H 0.64375 0.97584 0.71014 0.0
S1374 S 0.53801 0.96986 0.81083 0.0
N1375 N 0.565 0.98416 0.84028 0.0
N1376 N 0.55108 0.96156 0.75892 0.0
C1377 C 0.57875 0.97043 0.76391 0.0
C1378 C 0.58618 0.98278 0.80767 0.0
C1379 C 0.25351 0.3629 0.9869 0.0
C1380 C 0.28138 0.35133 0.98355 0.0
C1381 C 0.24215 0.37139 1.03024 0.0
C1382 C 0.2585 0.36911 0.07148 0.0
H1383 H 0.24009 0.36484 0.95605 0.0
H1384 H 0.2204 0.37958 1.03159 0.0
S1385 S 0.33251 0.34036 0.08222 0.0
N1386 N 0.32497 0.33812 1.02591 0.0
N1387 N 0.30366 0.35429 0.10668 0.0
C1388 C 0.28646 0.35798 0.06859 0.0
C1389 C 0.2979 0.34904 1.02481 0.0
C1390 C 0.86633 0.0198 0.23524 0.0
C1391 C 0.89457 0.0288 0.22619 0.0
C1392 C 0.85916 0.00749 0.27854 0.0
C1393 C 0.88028 0.00305 0.31305 0.0
H1394 H 0.84961 0.02315 0.20939 0.0
H1395 H 0.83704 0.0017 0.2853 0.0
S1396 S 0.95754 0.0213 0.30459 0.0
N1397 N 0.94376 0.03162 0.25414 0.0
N1398 N 0.93054 0.00779 0.33474 0.0
C1399 C 0.9087 0.01112 0.30356 0.0
C1400 C 0.91579 0.0242 0.26026 0.0
C1401 C 0.20372 0.64829 0.52018 0.0
C1402 C 0.21832 0.64143 0.47855 0.0
C1403 C 0.21427 0.64001 0.56375 0.0
C1404 C 0.24012 0.62482 0.56783 0.0
H1405 H 0.18389 0.6603 0.51953 0.0
H1406 H 0.20238 0.64624 0.59471 0.0
S1407 S 0.28665 0.60059 0.47065 0.0
N1408 N 0.25979 0.61736 0.44445 0.0
N1409 N 0.28017 0.6027 0.52738 0.0
C1410 C 0.2551 0.61759 0.52695 0.0
C1411 C 0.24404 0.62561 0.48207 0.0
C1412 C 0.37228 0.00777 0.62734 0.0
C1413 C 0.39775 0.02392 0.63122 0.0
C1414 C 0.36351 0.99647 0.58399 0.0
C1415 C 0.38035 0.00056 0.54389 0.0
H1416 H 0.35851 0.00487 0.65747 0.0
H1417 H 0.34329 0.98508 0.58157 0.0
S1418 S 0.4509 0.03688 0.53682 0.0
N1419 N 0.44113 0.04046 0.592 0.0
N1420 N 0.42464 0.019 0.51113 0.0
C1421 C 0.40653 0.01513 0.54787 0.0
C1422 C 0.4153 0.02684 0.59148 0.0
C1423 C 0.71632 0.64675 0.29775 0.0
C1424 C 0.74182 0.63089 0.29455 0.0
C1425 C 0.7051 0.65459 0.34108 0.0
C1426 C 0.71866 0.64654 0.38318 0.0
H1427 H 0.70511 0.65352 0.26635 0.0
H1428 H 0.68554 0.66705 0.34122 0.0
S1429 S 0.78607 0.60427 0.39315 0.0
N1430 N 0.78065 0.60735 0.33621 0.0
N1431 N 0.75912 0.62126 0.41852 0.0
C1432 C 0.74426 0.63045 0.3804 0.0
C1433 C 0.75595 0.62285 0.33588 0.0
C1434 C 0.10111 0.94815 0.08705 0.0
C1435 C 0.10187 0.96556 0.12725 0.0
C1436 C 0.10869 0.95895 0.04322 0.0
C1437 C 0.11727 0.98768 0.03764 0.0
H1438 H 0.09426 0.926 0.08918 0.0
H1439 H 0.10685 0.94486 1.01317 0.0
S1440 S 0.12439 0.04201 0.1318 0.0
N1441 N 0.11295 0.01287 0.15889 0.0
N1442 N 0.12739 0.03311 0.07607 0.0
C1443 C 0.11887 0.00523 0.07757 0.0
C1444 C 0.11122 0.99417 0.12248 0.0
C1445 C 0.78216 0.35841 0.79861 0.0
C1446 C 0.75581 0.37278 0.79457 0.0
C1447 C 0.79301 0.35045 0.84219 0.0
C1448 C 0.77811 0.35677 0.88379 0.0
H1449 H 0.7942 0.35256 0.76763 0.0
H1450 H 0.81331 0.33911 0.84291 0.0
S1451 S 0.70875 0.39582 0.89186 0.0
N1452 N 0.71526 0.39391 0.83512 0.0
N1453 N 0.73605 0.37974 0.91798 0.0
C1454 C 0.752 0.37194 0.88032 0.0
C1455 C 0.7407 0.37966 0.83549 0.0
C1456 C 0.13936 0.37488 0.24166 0.0
C1457 C 0.12772 0.34744 0.24906 0.0
C1458 C 0.13595 0.38936 0.19865 0.0
C1459 C 0.11986 0.37756 0.16122 0.0
H1460 H 0.15074 0.38561 0.26966 0.0
H1461 H 0.14534 0.41052 0.19541 0.0
S1462 S 0.08618 0.30551 0.16094 0.0
N1463 N 0.10048 0.30835 0.2137 0.0
N1464 N 0.09368 0.33588 0.13374 0.0
C1465 C 0.10853 0.34993 0.16772 0.0
C1466 C 0.11233 0.33495 0.21137 0.0
C1467 C 0.86125 0.89275 0.49349 0.0
C1468 C 0.8898 0.88331 0.49819 0.0
C1469 C 0.84611 0.8897 0.45093 0.0
C1470 C 0.85868 0.87671 0.41117 0.0
H1471 H 0.85026 0.90201 0.52324 0.0
H1472 H 0.82398 0.89677 0.44978 0.0
S1473 S 0.93356 0.85048 0.40336 0.0
N1474 N 0.9305 0.86178 0.45792 0.0
N1475 N 0.90209 0.85643 0.37846 0.0
C1476 C 0.8875 0.86828 0.41478 0.0
C1477 C 0.90293 0.87124 0.45814 0.0
C1478 C 0.35335 0.6223 0.73407 0.0
C1479 C 0.36717 0.64854 0.74292 0.0
C1480 C 0.3563 0.60797 0.69082 0.0
C1481 C 0.37441 0.61834 0.65508 0.0
H1482 H 0.34041 0.61247 0.76098 0.0
H1483 H 0.34493 0.58791 0.68602 0.0
S1484 S 0.41244 0.68818 0.65728 0.0
N1485 N 0.39729 0.68602 0.70938 0.0
N1486 N 0.4035 0.65842 0.62934 0.0
C1487 C 0.3873 0.64521 0.66242 0.0
C1488 C 0.38383 0.66022 0.70612 0.0
C1489 C 0.60913 0.12932 0.91805 0.0
C1490 C 0.63698 0.11841 0.91151 0.0
C1491 C 0.59425 0.12543 0.96063 0.0
C1492 C 0.60644 0.11025 0.99865 0.0
H1493 H 0.59895 0.14154 0.89037 0.0
H1494 H 0.57296 0.13456 0.96377 0.0
S1495 S 0.6778 0.07498 0.99862 0.0
N1496 N 0.67506 0.08926 0.94594 0.0
N1497 N 0.64787 0.08362 1.02604 0.0
C1498 C 0.63387 0.09845 0.99206 0.0
C1499 C 0.64882 0.10192 0.94849 0.0
C1500 C 0.0932 0.62976 0.46245 0.0
C1501 C 0.10588 0.61439 0.49985 0.0
C1502 C 0.10725 0.63337 0.41906 0.0
C1503 C 0.13465 0.62178 0.41085 0.0
H1504 H 0.07205 0.63906 0.46652 0.0
H1505 H 0.09657 0.64546 0.39173 0.0
S1506 S 0.17712 0.57901 0.49667 0.0
N1507 N 0.14793 0.58819 0.52569 0.0
N1508 N 0.17319 0.59256 0.44368 0.0
C1509 C 0.14715 0.60551 0.44751 0.0
C1510 C 0.1332 0.60262 0.49209 0.0
C1511 C 0.63187 0.89023 0.70384 0.0
C1512 C 0.61892 0.87732 0.66427 0.0
C1513 C 0.6341 0.87578 0.74709 0.0
C1514 C 0.62405 0.84751 0.75261 0.0
H1515 H 0.63971 0.91207 0.70189 0.0
H1516 H 0.64341 0.88703 0.7766 0.0
S1517 S 0.59073 0.80304 0.65882 0.0
N1518 N 0.59754 0.83397 0.6329 0.0
N1519 N 0.60175 0.80669 0.71349 0.0
C1520 C 0.61176 0.83408 0.71291 0.0
C1521 C 0.6094 0.84889 0.66896 0.0
C1522 C 0.36779 0.3875 0.99267 0.0
C1523 C 0.39579 0.37679 0.99844 0.0
C1524 C 0.35275 0.38428 0.95 0.0
C1525 C 0.36493 0.37008 0.911 0.0
H1526 H 0.35711 0.39799 1.02162 0.0
H1527 H 0.33104 0.39248 0.94808 0.0
S1528 S 0.43858 0.34026 0.90594 0.0
N1529 N 0.43565 0.35253 0.95997 0.0
N1530 N 0.40761 0.34731 0.88011 0.0
C1531 C 0.39327 0.36028 0.91567 0.0
C1532 C 0.40853 0.36326 0.95923 0.0
C1533 C 0.86031 0.12064 0.24355 0.0
C1534 C 0.8712 0.14852 0.25009 0.0
C1535 C 0.86288 0.10625 0.20025 0.0
C1536 C 0.87709 0.11875 0.16156 0.0
H1537 H 0.85002 0.10962 0.2723 0.0
H1538 H 0.85421 0.08475 0.19756 0.0
S1539 S 0.90871 0.19172 0.15922 0.0
N1540 N 0.89626 0.18837 0.21302 0.0
N1541 N 0.90104 0.16125 0.13236 0.0
C1542 C 0.88773 0.14672 0.16735 0.0
C1543 C 0.88503 0.16148 0.21138 0.0
C1544 C 0.86394 0.60574 0.16089 0.0
C1545 C 0.87755 0.6185 0.2 0.0
C1546 C 0.86013 0.62066 0.11836 0.0
C1547 C 0.86915 0.64928 0.11317 0.0
H1548 H 0.85669 0.5837 0.16266 0.0
H1549 H 0.85031 0.60952 0.08917 0.0
S1550 S 0.90369 0.69351 0.20613 0.0
N1551 N 0.89866 0.662 0.2313 0.0
N1552 N 0.89124 0.69025 0.15221 0.0
C1553 C 0.88217 0.66254 0.15244 0.0
C1554 C 0.88625 0.64721 0.1956 0.0
C1555 C 0.09049 0.13125 0.89768 0.0
C1556 C 0.10265 0.11751 0.85829 0.0
C1557 C 0.1058 0.13441 0.94014 0.0
C1558 C 0.13394 0.12388 0.94529 0.0
H1559 H 0.06881 0.13957 0.89589 0.0
H1560 H 0.09554 0.14531 0.9691 0.0
S1561 S 0.17571 0.08637 0.85267 0.0
N1562 N 0.145 0.09439 0.82696 0.0
N1563 N 0.17295 0.0982 0.90695 0.0
C1564 C 0.14609 0.10955 0.90637 0.0
C1565 C 0.13075 0.10705 0.86287 0.0
C1566 C 0.63992 0.37433 0.62217 0.0
C1567 C 0.62935 0.3463 0.61619 0.0
C1568 C 0.63653 0.38926 0.66477 0.0
C1569 C 0.62176 0.37719 0.70322 0.0
H1570 H 0.65043 0.38512 0.59339 0.0
H1571 H 0.64486 0.41092 0.66691 0.0
S1572 S 0.5917 0.30361 0.70753 0.0
N1573 N 0.6048 0.3064 0.65406 0.0
N1574 N 0.5983 0.33466 0.73337 0.0
C1575 C 0.6118 0.34892 0.69827 0.0
C1576 C 0.61543 0.33356 0.65499 0.0
C1577 C 0.35154 0.88665 0.41007 0.0
C1578 C 0.36391 0.87242 0.44889 0.0
C1579 C 0.36622 0.88948 0.36715 0.0
C1580 C 0.3942 0.87876 0.36125 0.0
H1581 H 0.3299 0.89502 0.41225 0.0
H1582 H 0.35534 0.8998 0.33818 0.0
S1583 S 0.43722 0.84162 0.45303 0.0
N1584 N 0.4065 0.84897 0.47919 0.0
N1585 N 0.43411 0.85412 0.39917 0.0
C1586 C 0.4071 0.86512 0.40024 0.0
C1587 C 0.3921 0.86224 0.44389 0.0
C1588 C 0.90449 0.36855 0.90261 0.0
C1589 C 0.8919 0.38377 0.86496 0.0
C1590 C 0.89002 0.36459 0.94553 0.0
C1591 C 0.86241 0.37587 0.95302 0.0
H1592 H 0.92574 0.35941 0.89888 0.0
H1593 H 0.90046 0.35234 0.97292 0.0
S1594 S 0.82053 0.41892 0.86677 0.0
N1595 N 0.85002 0.40996 0.83837 0.0
N1596 N 0.82403 0.40509 0.91965 0.0
C1597 C 0.85015 0.39225 0.91629 0.0
C1598 C 0.86447 0.39539 0.87215 0.0
C1599 C 0.38366 0.15518 0.64832 0.0
C1600 C 0.36871 0.14294 0.61005 0.0
C1601 C 0.38771 0.14012 0.69081 0.0
C1602 C 0.37682 0.11222 0.69717 0.0
H1603 H 0.39226 0.17671 0.64559 0.0
H1604 H 0.39953 0.15042 0.71887 0.0
S1605 S 0.33595 0.07052 0.6079 0.0
N1606 N 0.34409 0.10076 0.58105 0.0
N1607 N 0.34921 0.07352 0.6613 0.0
C1608 C 0.36122 0.10008 0.65943 0.0
C1609 C 0.35794 0.11506 0.61582 0.0
C1610 C 0.59078 0.62824 0.40176 0.0
C1611 C 0.60366 0.61455 0.36294 0.0
C1612 C 0.6056 0.63211 0.44453 0.0
C1613 C 0.63396 0.62239 0.4506 0.0
H1614 H 0.56892 0.63601 0.39925 0.0
H1615 H 0.59479 0.64294 0.47302 0.0
S1616 S 0.67734 0.58455 0.36026 0.0
N1617 N 0.64685 0.59204 0.33337 0.0
N1618 N 0.67372 0.59678 0.41416 0.0
C1619 C 0.64673 0.60782 0.41244 0.0
C1620 C 0.63195 0.60472 0.36854 0.0
C1621 C 0.13715 0.87686 0.11615 0.0
C1622 C 0.12677 0.84876 0.11014 0.0
C1623 C 0.13379 0.8917 0.15885 0.0
C1624 C 0.11931 0.87946 0.19749 0.0
H1625 H 0.14762 0.88771 0.0874 0.0
H1626 H 0.14204 0.91339 0.161 0.0
S1627 S 0.08953 0.80574 0.20153 0.0
N1628 N 0.10231 0.80876 0.14787 0.0
N1629 N 0.09623 0.8367 0.22759 0.0
C1630 C 0.10942 0.85116 0.19241 0.0
C1631 C 0.11287 0.83594 0.14891 0.0
C1632 C 0.97184 0.49691 0.19393 0.0
C1633 C 0.98753 0.51659 0.22128 0.0
C1634 C 0.9849 0.48125 0.15793 0.0
C1635 C 0.01439 0.48425 0.14793 0.0
H1636 H 0.94902 0.49407 0.19945 0.0
H1637 H 0.97178 0.46616 0.13851 0.0
S1638 S 0.06516 0.5333 0.20853 0.0
N1639 N 0.0344 0.53807 0.23589 0.0
N1640 N 0.05866 0.50922 0.16746 0.0
C1641 C 0.03031 0.50401 0.17473 0.0
C1642 C 0.01709 0.51974 0.21182 0.0
C1643 C 0.73975 0.77725 0.42278 0.0
C1644 C 0.76233 0.76235 0.40091 0.0
C1645 C 0.72382 0.76476 0.459 0.0
C1646 C 0.72973 0.73672 0.47487 0.0
H1647 H 0.7345 0.79897 0.41222 0.0
H1648 H 0.7061 0.77689 0.47344 0.0
S1649 S 0.78812 0.68926 0.43246 0.0
N1650 N 0.79047 0.71818 0.39943 0.0
N1651 N 0.76123 0.69536 0.46858 0.0
C1652 C 0.75294 0.72199 0.45462 0.0
C1653 C 0.76883 0.73447 0.41714 0.0
C1654 C 0.51321 0.47231 0.66739 0.0
C1655 C 0.51244 0.47802 0.71594 0.0
C1656 C 0.49768 0.48911 0.63544 0.0
C1657 C 0.48068 0.5119 0.65117 0.0
H1658 H 0.52574 0.45451 0.65407 0.0
H1659 H 0.49907 0.48435 0.59839 0.0
S1660 S 0.4724 0.53618 0.77451 0.0
N1661 N 0.49373 0.50793 0.77803 0.0
N1662 N 0.46517 0.54025 0.71828 0.0
C1663 C 0.48006 0.51797 0.69965 0.0
C1664 C 0.4957 0.50073 0.73205 0.0
C1665 C 0.75252 0.22045 0.92518 0.0
C1666 C 0.73169 0.23509 0.89856 0.0
C1667 C 0.76775 0.23425 0.96105 0.0
C1668 C 0.76302 0.26343 0.97173 0.0
H1669 H 0.75679 0.19792 0.91887 0.0
H1670 H 0.78398 0.22206 0.9796 0.0
S1671 S 0.70963 0.31116 0.91453 0.0
N1672 N 0.70669 0.28043 0.88626 0.0
N1673 N 0.73463 0.30596 0.95464 0.0
C1674 C 0.74173 0.27814 0.94625 0.0
C1675 C 0.7265 0.26421 0.9092 0.0
C1676 C 0.00512 0.47653 0.71081 0.0
C1677 C 0.97664 0.48622 0.70821 0.0
C1678 C 0.02643 0.48864 0.68249 0.0
C1679 C 0.01996 0.51072 0.65046 0.0
H1680 H 0.01106 0.45975 0.73524 0.0
H1681 H 0.04821 0.48072 0.68598 0.0
S1682 S 0.9482 0.54226 0.62798 0.0
N1683 N 0.94275 0.51831 0.66958 0.0
N1684 N 0.98288 0.54091 0.61641 0.0
C1685 C 0.9915 0.52027 0.64698 0.0
C1686 C 0.9698 0.508 0.67581 0.0
C1687 C 0.76661 0.75507 0.96425 0.0
C1688 C 0.75903 0.72596 0.96129 0.0
C1689 C 0.75234 0.77579 0.9372 0.0
C1690 C 0.73006 0.76814 0.90613 0.0
H1691 H 0.78351 0.76195 0.98784 0.0
H1692 H 0.7588 0.79803 0.94083 0.0
S1693 S 0.703 0.69456 0.8837 0.0
N1694 N 0.72834 0.69037 0.92362 0.0
N1695 N 0.70166 0.72936 0.87304 0.0
C1696 C 0.72243 0.73909 0.90255 0.0
C1697 C 0.73694 0.71799 0.93001 0.0
C1698 C 0.47352 0.50483 0.17994 0.0
C1699 C 0.48006 0.48102 0.15141 0.0
C1700 C 0.49452 0.51793 0.20788 0.0
C1701 C 0.52283 0.50769 0.20823 0.0
H1702 H 0.45184 0.51323 0.18132 0.0
H1703 H 0.48843 0.53593 0.22972 0.0
S1704 S 0.55153 0.44727 0.13722 0.0
N1705 N 0.5171 0.44861 0.12358 0.0
N1706 N 0.55676 0.47321 0.17569 0.0
C1707 C 0.52984 0.48431 0.17898 0.0
C1708 C 0.5084 0.47095 0.15068 0.0
C1709 C 0.74247 0.21946 0.43562 0.0
C1710 C 0.76448 0.22709 0.4042 0.0
C1711 C 0.72921 0.24005 0.46421 0.0
C1712 C 0.73764 0.26896 0.46258 0.0
H1713 H 0.73543 0.19736 0.43831 0.0
H1714 H 0.71241 0.23323 0.48789 0.0
S1715 S 0.79317 0.30027 0.38446 0.0
N1716 N 0.79332 0.26568 0.37195 0.0
N1717 N 0.76875 0.30437 0.4257 0.0
C1718 C 0.75951 0.27689 0.43104 0.0
C1719 C 0.77287 0.25595 0.40186 0.0
C1720 C 0.2448 0.27389 0.92153 0.0
C1721 C 0.26631 0.25856 0.89767 0.0
C1722 C 0.2296 0.26158 0.9587 0.0
C1723 C 0.23506 0.23323 0.97358 0.0
H1724 H 0.23993 0.29585 0.91188 0.0
H1725 H 0.21271 0.27416 0.97473 0.0
S1726 S 0.29058 0.18436 0.92541 0.0
N1727 N 0.29288 0.21352 0.89288 0.0
N1728 N 0.26505 0.191 0.96386 0.0
C1729 C 0.25719 0.218 0.95118 0.0
C1730 C 0.27236 0.23032 0.91272 0.0
C1731 C 0.22814 0.76285 0.40189 0.0
C1732 C 0.233 0.73396 0.38942 0.0
C1733 C 0.24359 0.77597 0.4382 0.0
C1734 C 0.2647 0.76089 0.46355 0.0
H1735 H 0.21163 0.7753 0.38448 0.0
H1736 H 0.23925 0.79833 0.4459 0.0
S1737 S 0.28723 0.68539 0.44241 0.0
N1738 N 0.26191 0.69136 0.40313 0.0
N1739 N 0.2901 0.71544 0.47257 0.0
C1740 C 0.27001 0.73205 0.45105 0.0
C1741 C 0.25464 0.71889 0.41345 0.0
C1742 C 0.24096 0.22089 0.4277 0.0
C1743 C 0.26296 0.22802 0.45959 0.0
C1744 C 0.22791 0.24187 0.39967 0.0
C1745 C 0.2365 0.27071 0.40243 0.0
H1746 H 0.23382 0.19886 0.42412 0.0
H1747 H 0.2112 0.2354 0.37542 0.0
S1748 S 0.29196 0.30082 0.48227 0.0
N1749 N 0.29199 0.26607 0.49353 0.0
N1750 N 0.26756 0.30558 0.441 0.0
C1751 C 0.25822 0.2782 0.43463 0.0
C1752 C 0.27149 0.25682 0.46313 0.0
C1753 C 0.24031 0.72149 0.93159 0.0
C1754 C 0.2622 0.72889 0.89981 0.0
C1755 C 0.22703 0.7423 0.95964 0.0
C1756 C 0.23528 0.77123 0.95707 0.0
H1757 H 0.2334 0.69939 0.935 0.0
H1758 H 0.2104 0.73562 0.98373 0.0
S1759 S 0.29049 0.80201 0.87787 0.0
N1760 N 0.29086 0.76728 0.86638 0.0
N1761 N 0.26603 0.80645 0.91895 0.0
C1762 C 0.25695 0.77897 0.92508 0.0
C1763 C 0.27044 0.75777 0.89654 0.0
C1764 C 0.51419 0.01507 0.70389 0.0
C1765 C 0.48558 0.01043 0.71807 0.0
C1766 C 0.52629 -0.00033 0.66669 0.0
C1767 C 0.51046 0.97879 0.64203 0.0
H1768 H 0.52727 0.03124 0.72091 0.0
H1769 H 0.54857 0.00367 0.65802 0.0
S1770 S 0.43483 0.95783 0.66591 0.0
N1771 N 0.44218 0.98244 0.7057 0.0
N1772 N 0.46424 0.95464 0.6343 0.0
C1773 C 0.48172 0.97408 0.6556 0.0
C1774 C 0.46964 0.9893 0.69423 0.0
C1775 C 0.02465 0.00139 0.18641 0.0
C1776 C 0.00904 0.98081 0.21187 0.0
C1777 C 0.01186 0.01721 0.15023 0.0
C1778 C 0.98275 0.01333 0.138 0.0
H1779 H 0.04717 0.00505 0.19393 0.0
H1780 H 0.02479 0.03325 0.13272 0.0
S1781 S 0.93255 0.96109 0.19191 0.0
N1782 N 0.96275 0.95707 0.22147 0.0
N1783 N 0.93918 0.98609 0.1525 0.0
C1784 C 0.96708 0.99228 0.16228 0.0
C1785 C 0.97996 0.97646 0.19967 0.0
C1786 C 0.46962 0.00609 0.18081 0.0
C1787 C 0.4763 0.98445 0.21352 0.0
C1788 C 0.49093 0.01838 0.15256 0.0
C1789 C 0.51959 0.00929 0.15593 0.0
H1790 H 0.44769 0.01343 0.17662 0.0
H1791 H 0.48483 0.03472 0.12745 0.0
S1792 S 0.54863 0.95498 0.23872 0.0
N1793 N 0.51383 0.95563 0.24941 0.0
N1794 N 0.55387 0.97853 0.19644 0.0
C1795 C 0.52664 0.9881 0.18923 0.0
C1796 C 0.50498 0.97567 0.21795 0.0
C1797 C 0.96661 0.00874 0.681 0.0
C1798 C 0.97352 0.98747 0.64777 0.0
C1799 C 0.98796 0.02198 0.70818 0.0
C1800 C 0.01692 0.0143 0.7031 0.0
H1801 H 0.94448 0.01504 0.68641 0.0
H1802 H 0.9817 0.03795 0.73378 0.0
S1803 S 0.0465 0.96173 0.61796 0.0
N1804 N 0.01146 0.96063 0.60938 0.0
N1805 N 0.05163 0.98537 0.66022 0.0
C1806 C 0.02416 0.99353 0.66919 0.0
C1807 C 0.00244 0.98009 0.64162 0.0
C1808 C 0.99121 0.40755 0.98038 0.0
C1809 C 0.02131 0.41018 0.97849 0.0
C1810 C 0.97408 0.41227 0.94027 0.0
C1811 C 0.9865 0.41922 0.89673 0.0
H1812 H 0.98076 0.40325 1.01348 0.0
H1813 H 0.95096 0.41054 0.94338 0.0
S1814 S 0.06428 0.42843 0.87333 0.0
N1815 N 0.06267 0.42023 0.92948 0.0
N1816 N 0.03076 0.42818 0.85437 0.0
C1817 C 0.01658 0.42111 0.89428 0.0
C1818 C 0.03388 0.41684 0.93505 0.0
C1819 C 0.80636 0.73523 0.18672 0.0
C1820 C 0.82728 0.73737 0.15151 0.0
C1821 C 0.80791 0.75214 0.22737 0.0
C1822 C 0.83087 0.77127 0.23529 0.0
H1823 H 0.78806 0.72113 0.18215 0.0
H1824 H 0.7906 0.75064 0.25255 0.0
S1825 S 0.89274 0.78295 0.15654 0.0
N1826 N 0.87275 0.75906 0.12876 0.0
N1827 N 0.87584 0.79014 0.20597 0.0
C1828 C 0.85268 0.77262 0.20166 0.0
C1829 C 0.85082 0.75588 0.15959 0.0
C1830 C 0.52334 0.58139 0.44174 0.0
C1831 C 0.51103 0.5743 0.39803 0.0
C1832 C 0.5061 0.58592 0.48177 0.0
C1833 C 0.476 0.5831 0.47955 0.0
H1834 H 0.54642 0.58346 0.44503 0.0
H1835 H 0.51645 0.59031 0.515 0.0
S1836 S 0.43332 0.56432 0.37392 0.0
N1837 N 0.46685 0.56479 0.35537 0.0
N1838 N 0.43482 0.57267 0.43003 0.0
C1839 C 0.46358 0.57628 0.43594 0.0
C1840 C 0.48096 0.57205 0.39539 0.0
C1841 C 0.66188 0.21018 0.68739 0.0
C1842 C 0.65992 0.2223 0.73231 0.0
C1843 C 0.66611 0.22735 0.64764 0.0
C1844 C 0.66959 0.25734 0.65123 0.0
H1845 H 0.66096 0.18708 0.68311 0.0
H1846 H 0.66752 0.21684 0.61389 0.0
S1847 S 0.667 0.29952 0.76151 0.0
N1848 N 0.66167 0.26603 0.77839 0.0
N1849 N 0.67064 0.29835 0.70403 0.0
C1850 C 0.6676 0.26976 0.69611 0.0
C1851 C 0.66248 0.25225 0.7365 0.0
C1852 C 0.00172 0.64028 0.94163 0.0
C1853 C 0.98366 0.62004 0.96332 0.0
C1854 C 0.00609 0.64017 0.89307 0.0
C1855 C 0.99265 0.61978 0.86397 0.0
H1856 H 0.01251 0.65651 0.96236 0.0
H1857 H 0.02046 0.65602 0.87829 0.0
S1858 S 0.94325 0.56201 0.90306 0.0
N1859 N 0.95246 0.57873 0.95183 0.0
N1860 N 0.96011 0.57897 0.86044 0.0
C1861 C 0.97444 0.59942 0.88509 0.0
C1862 C 0.97001 0.59951 0.93468 0.0
C1863 C 0.6238 0.75203 0.20026 0.0
C1864 C 0.61541 0.72537 0.21915 0.0
C1865 C 0.62391 0.7569 0.15185 0.0
C1866 C 0.61588 0.73526 0.12011 0.0
H1867 H 0.63044 0.76938 0.22311 0.0
H1868 H 0.63047 0.77779 0.13913 0.0
S1869 S 0.59191 0.66174 0.1507 0.0
N1870 N 0.59858 0.67705 0.20177 0.0
N1871 N 0.59923 0.68619 0.11066 0.0
C1872 C 0.60787 0.70836 0.13822 0.0
C1873 C 0.60756 0.70341 0.18768 0.0
C1874 C 0.51798 0.3454 0.44058 0.0
C1875 C 0.51398 0.37066 0.46692 0.0
C1876 C 0.51347 0.34503 0.39191 0.0
C1877 C 0.50471 0.36987 0.36773 0.0
H1878 H 0.52389 0.32557 0.45787 0.0
H1879 H 0.51609 0.32495 0.37326 0.0
S1880 S 0.49482 0.44231 0.41932 0.0
N1881 N 0.50337 0.42176 0.46431 0.0
N1882 N 0.49463 0.42091 0.37323 0.0
C1883 C 0.50163 0.39545 0.39339 0.0
C1884 C 0.50633 0.39589 0.44281 0.0
C1885 C 0.89259 0.28065 0.68855 0.0
C1886 C 0.86955 0.27074 0.71584 0.0
C1887 C 0.89318 0.27611 0.6399 0.0
C1888 C 0.87054 0.26186 0.61663 0.0
H1889 H 0.91065 0.29127 0.70511 0.0
H1890 H 0.91157 0.28372 0.62036 0.0
S1891 S 0.80439 0.23359 0.67238 0.0
N1892 N 0.82302 0.24735 0.71618 0.0
N1893 N 0.82391 0.23887 0.62499 0.0
C1894 C 0.84696 0.2527 0.64355 0.0
C1895 C 0.84655 0.25708 0.69305 0.0
C1896 C 0.98464 0.58272 0.46635 0.0
C1897 C 0.0146 0.57912 0.46281 0.0
C1898 C 0.96753 0.58776 0.42669 0.0
C1899 C 0.97964 0.59034 0.38185 0.0
H1900 H 0.9741 0.58073 0.49995 0.0
H1901 H 0.94444 0.58877 0.43097 0.0
S1902 S 0.05696 0.5838 0.35311 0.0
N1903 N 0.05569 0.57912 0.41039 0.0
N1904 N 0.02349 0.58934 0.33609 0.0
C1905 C 0.00962 0.58778 0.37778 0.0
C1906 C 0.02708 0.58195 0.41814 0.0
C1907 C 0.16727 0.22924 0.21684 0.0
C1908 C 0.16886 0.25937 0.21352 0.0
C1909 C 0.16325 0.21202 0.17703 0.0
C1910 C 0.15969 0.22415 0.13232 0.0
H1911 H 0.17 0.21873 0.25037 0.0
H1912 H 0.16366 0.18889 0.18111 0.0
S1913 S 0.16104 0.30183 0.10422 0.0
N1914 N 0.16604 0.30059 0.16145 0.0
N1915 N 0.15758 0.26816 0.08696 0.0
C1916 C 0.16024 0.25423 0.12851 0.0
C1917 C 0.1651 0.27183 0.16897 0.0
C1918 C 0.47561 0.40949 0.9231 0.0
C1919 C 0.48826 0.41492 0.96711 0.0
C1920 C 0.49258 0.40496 0.88291 0.0
C1921 C 0.52273 0.40641 0.88523 0.0
H1922 H 0.45246 0.40872 0.91967 0.0
H1923 H 0.48199 0.40176 0.8495 0.0
S1924 S 0.5663 0.42144 0.99136 0.0
N1925 N 0.53281 0.42174 1.01016 0.0
N1926 N 0.56441 0.41439 0.93479 0.0
C1927 C 0.53553 0.41189 0.92897 0.0
C1928 C 0.5184 0.41586 0.96984 0.0
C1929 C 0.33573 0.78402 0.67324 0.0
C1930 C 0.33838 0.77156 0.6286 0.0
C1931 C 0.33158 0.76712 0.71333 0.0
C1932 C 0.32891 0.73705 0.71035 0.0
H1933 H 0.33598 0.80717 0.67701 0.0
H1934 H 0.32949 0.77786 0.74679 0.0
S1935 S 0.33428 0.69387 0.60138 0.0
N1936 N 0.33862 0.72734 0.58368 0.0
N1937 N 0.32992 0.69551 0.65869 0.0
C1938 C 0.33187 0.72426 0.66588 0.0
C1939 C 0.33686 0.74151 0.62514 0.0
C1940 C 0.01112 0.35147 0.42254 0.0
C1941 C 0.00732 0.37669 0.39612 0.0
C1942 C 0.00634 0.3511 0.47103 0.0
C1943 C -0.00234 0.37597 0.49524 0.0
H1944 H 0.01736 0.33166 0.40548 0.0
H1945 H 0.00956 0.33114 0.48976 0.0
S1946 S 0.98535 0.44782 0.44263 0.0
N1947 N 0.99532 0.4275 0.39818 0.0
N1948 N 0.9854 0.42659 0.48888 0.0
C1949 C 0.99403 0.40143 0.46933 0.0
C1950 C -0.00098 0.40183 0.41996 0.0
C1951 C 0.38902 0.27416 0.17214 0.0
C1952 C 0.37111 0.25799 0.14236 0.0
C1953 C 0.38934 0.2695 0.22069 0.0
C1954 C 0.37188 0.24838 0.24143 0.0
H1955 H 0.40285 0.29063 0.15781 0.0
H1956 H 0.40377 0.28223 0.24206 0.0
S1957 S 0.32071 0.20056 0.17908 0.0
N1958 N 0.33547 0.21996 0.13721 0.0
N1959 N 0.33542 0.21182 0.22842 0.0
C1960 C 0.3536 0.23231 0.2121 0.0
C1961 C 0.35333 0.237 0.16267 0.0
C1962 C 0.47632 0.60175 0.97593 0.0
C1963 C 0.49658 0.62029 0.99663 0.0
C1964 C 0.47185 0.60146 0.92726 0.0
C1965 C 0.48769 0.61948 0.89733 0.0
H1966 H 0.4636 0.58756 0.99759 0.0
H1967 H 0.4561 0.58676 0.91291 0.0
S1968 S 0.54368 0.67168 0.93399 0.0
N1969 N 0.53304 0.65669 0.98334 0.0
N1970 N 0.52432 0.65657 0.89221 0.0
C1971 C 0.5081 0.63804 0.91763 0.0
C1972 C 0.51258 0.63837 0.96713 0.0
C1973 C 0.13653 0.75545 0.71356 0.0
C1974 C 0.12506 0.7351 0.74471 0.0
C1975 C 0.13578 0.75104 0.66497 0.0
C1976 C 0.12363 0.72605 0.64532 0.0
H1977 H 0.14562 0.77528 0.72677 0.0
H1978 H 0.1448 0.76747 0.64256 0.0
S1979 S 0.09243 0.66524 0.71208 0.0
N1980 N 0.1027 0.68825 0.75274 0.0
N1981 N 0.10066 0.68019 0.66144 0.0
C1982 C 0.11273 0.70517 0.6762 0.0
C1983 C 0.11351 0.70968 0.72578 0.0
C1984 C 0.51353 0.91173 0.39543 0.0
C1985 C 0.48366 0.91616 0.39916 0.0
C1986 C 0.53072 0.90695 0.43511 0.0
C1987 C 0.51873 0.90536 0.48012 0.0
H1988 H 0.52396 0.9128 0.36163 0.0
H1989 H 0.55375 0.90522 0.43066 0.0
S1990 S 0.44195 0.915 0.50978 0.0
N1991 N 0.44297 0.91869 0.45229 0.0
N1992 N 0.47527 0.90848 0.52643 0.0
C1993 C 0.48889 0.90889 0.48446 0.0
C1994 C 0.47139 0.91464 0.44416 0.0
C1995 C 0.33796 0.2249 0.68811 0.0
C1996 C 0.33044 0.23714 0.64465 0.0
C1997 C 0.34199 0.24212 0.72825 0.0
C1998 C 0.33806 0.27207 0.7264 0.0
H1999 H 0.34066 0.20188 0.69115 0.0
H2000 H 0.34672 0.23179 0.76134 0.0
S2001 S 0.31785 0.31448 0.62141 0.0
N2002 N 0.31954 0.28106 0.60236 0.0
N2003 N 0.32616 0.31309 0.67758 0.0
C2004 C 0.33083 0.28447 0.68304 0.0
C2005 C 0.32727 0.26711 0.64224 0.0
C2006 C 0.00405 0.09089 0.97642 0.0
C2007 C 0.97392 0.08856 0.97457 0.0
C2008 C 0.02096 0.08628 0.93615 0.0
C2009 C 0.00824 0.07967 0.89261 0.0
H2010 H 0.01468 0.0949 1.00955 0.0
H2011 H 0.0441 0.08793 0.93911 0.0
S2012 S 0.93027 0.07123 0.86938 0.0
N2013 N 0.93223 0.07918 0.92561 0.0
N2014 N 0.9637 0.07124 0.85033 0.0
C2015 C 0.97814 0.07799 0.89027 0.0
C2016 C 0.96108 0.08225 0.93112 0.0
C2017 C 0.16437 0.72975 0.1429 0.0
C2018 C 0.1673 0.7598 0.14627 0.0
C2019 C 0.16043 0.7126 0.18282 0.0
C2020 C 0.15825 0.72478 0.22773 0.0
H2021 H 0.16602 0.71919 0.10922 0.0
H2022 H 0.15981 0.68949 0.17865 0.0
S2023 S 0.16351 0.80221 0.25625 0.0
N2024 N 0.16733 0.80094 0.19881 0.0
N2025 N 0.15891 0.76868 0.2734 0.0
C2026 C 0.16014 0.75479 0.23164 0.0
C2027 C 0.16496 0.77228 0.19109 0.0
C2028 C 0.51023 0.10067 0.39498 0.0
C2029 C 0.49529 0.11981 0.36556 0.0
C2030 C 0.50533 0.10013 0.44345 0.0
C2031 C 0.48511 0.11851 0.46444 0.0
H2032 H 0.52635 0.08642 0.3806 0.0
H2033 H 0.51758 0.08526 0.46474 0.0
S2034 S 0.43967 0.17197 0.40305 0.0
N2035 N 0.45868 0.15693 0.36096 0.0
N2036 N 0.44984 0.15616 0.45207 0.0
C2037 C 0.46963 0.13736 0.43541 0.0
C2038 C 0.47469 0.138 0.38606 0.0
C2039 C 0.10465 0.23979 0.64075 0.0
C2040 C 0.12848 0.23186 0.61344 0.0
C2041 C 0.10456 0.23594 0.68941 0.0
C2042 C 0.12825 0.22389 0.71297 0.0
H2043 H 0.08609 0.2497 0.62452 0.0
H2044 H 0.08576 0.24264 0.70883 0.0
S2045 S 0.19562 0.19832 0.65761 0.0
N2046 N 0.17603 0.21023 0.61342 0.0
N2047 N 0.17607 0.20351 0.70502 0.0
C2048 C 0.15203 0.21529 0.68604 0.0
C2049 C 0.15214 0.21925 0.63635 0.0
C2050 C 0.02831 0.86038 0.93555 0.0
C2051 C 0.00889 0.87309 0.96711 0.0
C2052 C 0.02336 0.86104 0.88695 0.0
C2053 C -0.0012 0.87441 0.86809 0.0
H2054 H 0.04714 0.84928 0.94858 0.0
H2055 H 0.03852 0.85043 0.86403 0.0
S2056 S 0.94335 0.91401 0.93515 0.0
N2057 N 0.96554 0.90166 0.97553 0.0
N2058 N 0.95627 0.90282 0.88457 0.0
C2059 C 0.97978 0.88803 0.89916 0.0
C2060 C 0.98482 0.88739 0.9485 0.0
C2061 C 0.35615 0.78091 0.1806 0.0
C2062 C 0.37342 0.7646 0.21119 0.0
C2063 C 0.35652 0.77614 0.13201 0.0
C2064 C 0.37425 0.75494 0.1121 0.0
H2065 H 0.34245 0.79771 0.19426 0.0
H2066 H 0.34311 0.78941 0.1098 0.0
S2067 S 0.42137 0.7045 0.177 0.0
N2068 N 0.40725 0.72504 0.21805 0.0
N2069 N 0.40808 0.7163 0.12696 0.0
C2070 C 0.39122 0.73817 0.1423 0.0
C2071 C 0.39079 0.74295 0.19172 0.0
C2072 C 0.50709 0.0821 0.88036 0.0
C2073 C 0.47722 0.0864 0.88299 0.0
C2074 C 0.52369 0.07743 0.92103 0.0
C2075 C 0.51105 0.07718 0.96589 0.0
H2076 H 0.51746 0.08083 0.84652 0.0
H2077 H 0.54653 0.07373 0.91723 0.0
S2078 S 0.43369 0.08866 0.99133 0.0
N2079 N 0.43586 0.09086 0.93376 0.0
N2080 N 0.46674 0.08273 1.00998 0.0
C2081 C 0.4813 0.08246 0.96882 0.0
C2082 C 0.46449 0.08684 0.92747 0.0
C2083 C 0.65784 0.75341 0.63421 0.0
C2084 C 0.65462 0.7234 0.63649 0.0
C2085 C 0.6619 0.76991 0.67509 0.0
C2086 C 0.66252 0.75704 0.71978 0.0
H2087 H 0.65871 0.76402 0.60051 0.0
H2088 H 0.66468 0.79289 0.67157 0.0
S2089 S 0.65401 0.67915 0.74424 0.0
N2090 N 0.65168 0.68159 0.6867 0.0
N2091 N 0.65872 0.71228 0.76332 0.0
C2092 C 0.65842 0.72709 0.72234 0.0
C2093 C 0.65465 0.71039 0.68079 0.0
C2094 C 0.00992 0.89187 0.40648 0.0
C2095 C 0.0157 0.91613 0.37872 0.0
C2096 C 0.99356 0.89423 0.44801 0.0
C2097 C 0.98158 0.92068 0.46224 0.0
H2098 H 0.01892 0.87123 0.39705 0.0
H2099 H 0.99012 0.87518 0.46897 0.0
S2100 S 0.9909 0.99062 0.4029 0.0
N2101 N 0.00842 0.96764 0.36953 0.0
N2102 N 0.97723 0.97147 0.44594 0.0
C2103 C 0.98683 0.94483 0.43441 0.0
C2104 C 0.00393 0.94269 0.3931 0.0
C2105 C 0.83627 0.2848 0.17918 0.0
C2106 C 0.83847 0.27274 0.1342 0.0
C2107 C 0.8327 0.26753 0.21905 0.0
C2108 C 0.83024 0.23743 0.21558 0.0
H2109 H 0.83665 0.30791 0.18348 0.0
H2110 H 0.83102 0.278 0.2528 0.0
S2111 S 0.83422 0.19529 0.10537 0.0
N2112 N 0.83823 0.22892 0.08832 0.0
N2113 N 0.83062 0.1964 0.16285 0.0
C2114 C 0.83257 0.22508 0.17068 0.0
C2115 C 0.83696 0.24271 0.13016 0.0
C2116 C 0.4907 0.88465 0.91777 0.0
C2117 C 0.51696 0.87585 0.89803 0.0
C2118 C 0.48672 0.88544 0.96642 0.0
C2119 C 0.50877 0.87726 0.99741 0.0
H2120 H 0.47299 0.89096 0.89537 0.0
H2121 H 0.46598 0.89192 0.97985 0.0
S2122 S 0.58209 0.85395 0.96399 0.0
N2123 N 0.56566 0.85957 0.91355 0.0
N2124 N 0.55829 0.86139 1.005 0.0
C2125 C 0.53533 0.86897 0.97828 0.0
C2126 C 0.53942 0.86827 0.92866 0.0
C2127 C 0.88374 0.78141 0.67572 0.0
C2128 C 0.86576 0.76528 0.64598 0.0
C2129 C 0.88397 0.7769 0.7243 0.0
C2130 C 0.86642 0.75589 0.74508 0.0
H2131 H 0.89773 0.79773 0.66133 0.0
H2132 H 0.89843 0.7896 0.74566 0.0
S2133 S 0.81493 0.70828 0.68307 0.0
N2134 N 0.82972 0.72758 0.64106 0.0
N2135 N 0.82984 0.71944 0.73233 0.0
C2136 C 0.84807 0.73984 0.71586 0.0
C2137 C 0.84777 0.74449 0.6664 0.0
C2138 C 0.01162 0.11457 0.46314 0.0
C2139 C 0.99042 0.12511 0.49366 0.0
C2140 C 0.0069 0.11322 0.4147 0.0
C2141 C 0.98086 0.12254 0.39471 0.0
H2142 H 0.03205 0.10722 0.47684 0.0
H2143 H 0.02402 0.10527 0.39262 0.0
S2144 S 0.91809 0.15126 0.45945 0.0
N2145 N 0.94224 0.14474 0.50052 0.0
N2146 N 0.9332 0.14182 0.40949 0.0
C2147 C 0.95932 0.13283 0.42488 0.0
C2148 C 0.96411 0.13412 0.4743 0.0
C2149 C 0.61204 0.21532 0.17697 0.0
C2150 C 0.62905 0.23201 0.14674 0.0
C2151 C 0.61207 0.22009 0.22552 0.0
C2152 C 0.62894 0.24191 0.24586 0.0
H2153 H 0.59866 0.19831 0.16301 0.0
H2154 H 0.59835 0.20687 0.2472 0.0
S2155 S 0.67749 0.29156 0.1821 0.0
N2156 N 0.66319 0.27133 0.14069 0.0
N2157 N 0.6636 0.27999 0.23175 0.0
C2158 C 0.64618 0.25865 0.216 0.0
C2159 C 0.64621 0.25374 0.16659 0.0
C2160 C 0.11322 0.51595 0.73474 0.0
C2161 C 0.10177 0.54355 0.72662 0.0
C2162 C 0.11603 0.50471 0.78061 0.0
C2163 C 0.10737 0.52046 0.82049 0.0
H2164 H 0.11898 0.50243 0.70538 0.0
H2165 H 0.12423 0.48311 0.78473 0.0
S2166 S 0.07956 0.5952 0.81905 0.0
N2167 N 0.08415 0.58727 0.76326 0.0
N2168 N 0.08942 0.56631 0.84842 0.0
C2169 C 0.09701 0.5485 0.81285 0.0
C2170 C 0.09425 0.55995 0.76637 0.0
C2171 C 0.72042 0.85968 0.98713 0.0
C2172 C 0.69207 0.85023 0.97916 0.0
C2173 C 0.73144 0.86298 0.03299 0.0
C2174 C 0.71447 0.85742 0.07288 0.0
H2175 H 0.73466 0.86323 0.95778 0.0
H2176 H 0.75356 0.86969 0.03724 0.0
S2177 S 0.6385 0.83325 0.0712 0.0
N2178 N 0.64709 0.83612 1.01539 0.0
N2179 N 0.66753 0.84257 0.10078 0.0
C2180 C 0.68583 0.84884 0.06525 0.0
C2181 C 0.67476 0.84518 1.01874 0.0
C2182 C 0.3693 0.46892 0.28737 0.0
C2183 C 0.39252 0.47396 0.31836 0.0
C2184 C 0.37357 0.4573 0.24202 0.0
C2185 C 0.40122 0.44994 0.22609 0.0
H2186 H 0.34758 0.47357 0.2985 0.0
H2187 H 0.35511 0.45356 0.21973 0.0
S2188 S 0.46956 0.46311 0.29059 0.0
N2189 N 0.44435 0.47381 0.32709 0.0
N2190 N 0.45239 0.45132 0.24389 0.0
C2191 C 0.42459 0.45579 0.25637 0.0
C2192 C 0.42027 0.4679 0.30185 0.0
C2193 C 0.77664 0.13316 0.48715 0.0
C2194 C 0.80256 0.14804 0.47908 0.0
C2195 C 0.76548 0.12965 0.53291 0.0
C2196 C 0.77959 0.14106 0.57264 0.0
H2197 H 0.76425 0.12516 0.45779 0.0
H2198 H 0.74512 0.11873 0.53703 0.0
S2199 S 0.85007 0.17832 0.57164 0.0
N2200 N 0.84334 0.17177 0.51592 0.0
N2201 N 0.82241 0.16533 0.60079 0.0
C2202 C 0.8061 0.15484 0.56516 0.0
C2203 C 0.81753 0.15825 0.51886 0.0
C2204 C 0.90628 0.44213 0.59896 0.0
C2205 C 0.8953 0.45602 0.63911 0.0
C2206 C 0.90352 0.45402 0.55389 0.0
C2207 C 0.88958 0.48045 0.54637 0.0
H2208 H 0.91776 0.422 0.60235 0.0
H2209 H 0.91253 0.44235 0.52458 0.0
S2210 S 0.85767 0.5263 0.63915 0.0
N2211 N 0.8701 0.49814 0.66787 0.0
N2212 N 0.86499 0.52047 0.58341 0.0
C2213 C 0.8781 0.49446 0.58598 0.0
C2214 C 0.8809 0.48229 0.6321 0.0
C2215 C 0.29712 0.15216 0.30176 0.0
C2216 C 0.27153 0.1367 0.29442 0.0
C2217 C 0.30881 0.15591 0.34682 0.0
C2218 C 0.29553 0.14449 0.38715 0.0
H2219 H 0.30825 0.1616 0.27231 0.0
H2220 H 0.32823 0.16851 0.35001 0.0
S2221 S 0.22785 0.1023 0.38746 0.0
N2222 N 0.23321 0.10971 0.33163 0.0
N2223 N 0.25509 0.11675 0.41613 0.0
C2224 C 0.27021 0.12842 0.38027 0.0
C2225 C 0.25828 0.12455 0.33414 0.0
C2226 C 0.61574 0.50516 0.08335 0.0
C2227 C 0.6072 0.52087 0.04332 0.0
C2228 C 0.61305 0.51656 0.12911 0.0
C2229 C 0.6018 0.54426 0.13697 0.0
H2230 H 0.62371 0.48345 0.07943 0.0
H2231 H 0.61864 0.50305 0.15859 0.0
S2232 S 0.57988 0.5958 0.04414 0.0
N2233 N 0.58961 0.5668 1.01499 0.0
N2234 N 0.5844 0.58797 0.10002 0.0
C2235 C 0.59438 0.5606 0.0971 0.0
C2236 C 0.59708 0.54902 0.05071 0.0
C2237 C 0.18597 0.83686 0.84422 0.0
C2238 C 0.19905 0.84909 0.88424 0.0
C2239 C 0.19768 0.84004 0.79908 0.0
C2240 C 0.22313 0.85565 0.79131 0.0
H2241 H 0.16664 0.82412 0.84776 0.0
H2242 H 0.18662 0.83005 0.76992 0.0
S2243 S 0.26674 0.89122 0.88377 0.0
N2244 N 0.23943 0.87722 0.91261 0.0
N2245 N 0.26143 0.88308 0.82814 0.0
C2246 C 0.23633 0.86833 0.83082 0.0
C2247 C 0.22434 0.86511 0.87699 0.0
C2248 C 0.59337 0.04093 0.30973 0.0
C2249 C 0.60783 0.01481 0.31743 0.0
C2250 C 0.59035 0.05263 0.26457 0.0
C2251 C 0.60157 0.03883 0.22451 0.0
H2252 H 0.58417 0.05251 0.33896 0.0
H2253 H 0.57851 0.07253 0.26108 0.0
S2254 S 0.64062 0.96933 0.225 0.0
N2255 N 0.6332 0.97518 0.2807 0.0
N2256 N 0.62761 0.99713 0.19606 0.0
C2257 C 0.61648 0.01286 0.23171 0.0
C2258 C 0.61956 0.00089 0.27792 0.0
C2259 C 0.18687 0.33634 0.51569 0.0
C2260 C 0.20037 0.3483 0.47595 0.0
C2261 C 0.19849 0.33918 0.56105 0.0
C2262 C 0.22427 0.35419 0.56935 0.0
H2263 H 0.16725 0.32408 0.51175 0.0
H2264 H 0.1871 0.32942 0.58997 0.0
S2265 S 0.26902 0.38884 0.47784 0.0
N2266 N 0.2415 0.37551 0.44843 0.0
N2267 N 0.26331 0.38078 0.53334 0.0
C2268 C 0.2379 0.36661 0.53013 0.0
C2269 C 0.226 0.36372 0.48373 0.0
C2270 C 0.88149 0.99478 0.77532 0.0
C2271 C 0.88487 0.97754 0.81563 0.0
C2272 C 0.88424 0.98325 0.72972 0.0
C2273 C 0.8905 0.95397 0.72239 0.0
H2274 H 0.87764 0.01759 0.77902 0.0
H2275 H 0.8828 -0.00231 0.7001 0.0
S2276 S 0.8968 0.89872 0.81535 0.0
N2277 N 0.89144 0.9289 0.84438 0.0
N2278 N 0.89719 0.90757 0.7594 0.0
C2279 C 0.89264 0.93632 0.76226 0.0
C2280 C 0.88969 0.94798 0.80854 0.0
C2281 C 0.26038 0.63312 1.02746 0.0
C2282 C 0.27658 0.64098 0.06737 0.0
C2283 C 0.27134 0.63629 0.98154 0.0
C2284 C 0.29889 0.64781 0.97333 0.0
H2285 H 0.23893 0.62457 1.03171 0.0
H2286 H 0.25763 0.63075 0.95222 0.0
S2287 S 0.35024 0.67161 0.06542 0.0
N2288 N 0.32187 0.66067 0.09498 0.0
N2289 N 0.34232 0.66649 1.00969 0.0
C2290 C 0.31544 0.65529 1.013 0.0
C2291 C 0.30439 0.65191 0.05958 0.0
C2292 C 0.40594 0.93583 0.09717 0.0
C2293 C 0.39489 0.95023 0.13676 0.0
C2294 C 0.40255 0.94672 0.05154 0.0
C2295 C 0.3881 0.97277 0.0429 0.0
H2296 H 0.418 0.91612 0.10142 0.0
H2297 H 0.41217 0.93497 1.02285 0.0
S2298 S 0.35359 0.01838 0.13353 0.0
N2299 N 0.36782 0.99165 0.16364 0.0
N2300 N 0.36121 0.01196 0.07807 0.0
C2301 C 0.37623 0.98708 0.08194 0.0
C2302 C 0.37957 0.97585 0.12861 0.0
C2303 C 0.8131 0.65644 0.84865 0.0
C2304 C 0.79792 0.64692 0.88844 0.0
C2305 C 0.80209 0.65318 0.80299 0.0
C2306 C 0.77508 0.64052 0.79457 0.0
H2307 H 0.83354 0.66716 0.85277 0.0
H2308 H 0.81457 0.66151 0.77409 0.0
S2309 S 0.727 0.61051 0.88597 0.0
N2310 N 0.75467 0.62314 0.91581 0.0
N2311 N 0.73401 0.61697 0.83031 0.0
C2312 C 0.75992 0.63019 0.83389 0.0
C2313 C 0.77132 0.63328 0.88054 0.0
C2314 C 0.1237 0.02178 0.57193 0.0
C2315 C 0.10181 0.02258 0.53752 0.0
C2316 C 0.11952 0.03317 0.61746 0.0
C2317 C 0.09332 0.04602 0.63046 0.0
H2318 H 0.14438 0.01254 0.56346 0.0
H2319 H 0.137 0.03207 0.64245 0.0
S2320 S 0.02778 0.04994 0.55532 0.0
N2321 N 0.05211 0.03475 0.52158 0.0
N2322 N 0.04423 0.05637 0.6054 0.0
C2323 C 0.07105 0.0462 0.59649 0.0
C2324 C 0.07529 0.03448 0.55064 0.0
C2325 C 0.71025 0.37101 0.37356 0.0
C2326 C 0.7026 0.34335 0.3891 0.0
C2327 C 0.7213 0.37554 0.32794 0.0
C2328 C 0.72597 0.35252 0.29652 0.0
H2329 H 0.70726 0.3893 0.39644 0.0
H2330 H 0.72653 0.39724 0.31735 0.0
S2331 S 0.71105 0.27567 0.32077 0.0
N2332 N 0.70138 0.29246 0.36903 0.0
N2333 N 0.72247 0.30102 0.28509 0.0
C2334 C 0.71895 0.32479 0.31212 0.0
C2335 C 0.70723 0.32022 0.35779 0.0
loop_
_geom_bond_atom_site_label_1
_geom_bond_atom_site_label_2
_geom_bond_distance
_geom_bond_site_symmetry_2
_ccdc_geom_bond_type
Nd0 C2 2.836 1_554 S
Nd0 O20 2.500 1_554 S
Nd0 O21 2.492 1_554 S
Nd0 O22 2.487 . S
Nd0 O23 2.682 . S
Nd0 O24 2.410 . S
Nd0 O29 2.414 . S
Nd0 O31 2.424 . S
Nd1 C11 2.836 . S
Nd1 O23 2.414 . S
Nd1 O25 2.424 . S
Nd1 O26 2.500 . S
Nd1 O27 2.492 1_455 S
Nd1 O28 2.487 1_455 S
Nd1 O29 2.682 . S
Nd1 O30 2.410 . S
C2 Nd0 2.836 1_556 S
C2 C3 1.498 . S
C2 O20 1.258 . S
C2 O21 1.239 . S
C3 C2 1.498 . S
C3 C4 1.366 . S
C3 C8 1.407 . S
C4 C3 1.366 . S
C4 C5 1.392 . S
C4 H32 0.930 . S
C5 C4 1.392 . S
C5 C6 1.398 . S
C5 H33 0.929 . S
C6 C5 1.398 . S
C6 C7 1.352 . S
C7 C6 1.352 . S
C7 C8 1.384 . S
C7 H34 0.930 . S
C8 C3 1.407 . S
C8 C7 1.384 . S
C8 H35 0.929 . S
C9 O22 1.241 . S
C9 O23 1.273 . S
C10 O24 1.251 . S
C10 O25 1.268 . S
C11 Nd1 2.836 . S
C11 C12 1.498 . S
C11 O26 1.258 . S
C11 O27 1.239 1_455 S
C12 C11 1.498 . S
C12 C13 1.366 . S
C12 C17 1.407 1_455 S
C13 C12 1.366 . S
C13 C14 1.392 . S
C13 H36 0.930 . S
C14 C13 1.392 . S
C14 C15 1.398 1_455 S
C14 H37 0.929 . S
C15 C14 1.398 1_655 S
C15 C16 1.352 . S
C16 C15 1.352 . S
C16 C17 1.384 . S
C16 H38 0.930 . S
C17 C12 1.407 1_655 S
C17 C16 1.384 . S
C17 H39 0.929 . S
C18 O28 1.241 1_455 S
C18 O29 1.273 . S
C19 O30 1.251 . S
C19 O31 1.268 . S
O20 Nd0 2.500 1_556 S
O20 C2 1.258 . S
O21 Nd0 2.492 1_556 S
O21 C2 1.239 . S
O22 Nd0 2.487 . S
O22 C9 1.241 . S
O23 Nd0 2.682 . S
O23 Nd1 2.414 . S
O23 C9 1.273 . S
O24 Nd0 2.410 . S
O24 C10 1.251 . S
O25 Nd1 2.424 . S
O25 C10 1.268 . S
O26 Nd1 2.500 . S
O26 C11 1.258 . S
O27 Nd1 2.492 1_655 S
O27 C11 1.239 1_655 S
O28 Nd1 2.487 1_655 S
O28 C18 1.241 1_655 S
O29 Nd0 2.414 . S
O29 Nd1 2.682 . S
O29 C18 1.273 . S
O30 Nd1 2.410 . S
O30 C19 1.251 . S
O31 Nd0 2.424 . S
O31 C19 1.268 . S
H32 C4 0.930 . S
H33 C5 0.929 . S
H34 C7 0.930 . S
H35 C8 0.929 . S
H36 C13 0.930 . S
H37 C14 0.929 . S
H38 C16 0.930 . S
H39 C17 0.929 . S
Nd40 C42 2.836 . S
Nd40 O60 2.500 . S
Nd40 O61 2.492 . S
Nd40 O62 2.487 . S
Nd40 O63 2.682 . S
Nd40 O64 2.410 . S
Nd40 O69 2.414 . S
Nd40 O71 2.424 . S
Nd41 C51 2.836 . S
Nd41 O63 2.414 . S
Nd41 O65 2.424 . S
Nd41 O66 2.500 . S
Nd41 O67 2.492 . S
Nd41 O68 2.487 . S
Nd41 O69 2.682 . S
Nd41 O70 2.410 . S
C42 Nd40 2.836 . S
C42 C43 1.498 . S
C42 O60 1.258 . S
C42 O61 1.239 . S
C43 C42 1.498 . S
C43 C44 1.366 . S
C43 C48 1.407 . S
C44 C43 1.366 . S
C44 C45 1.392 . S
C44 H72 0.930 . S
C45 C44 1.392 . S
C45 C46 1.398 . S
C45 H73 0.929 . S
C46 C45 1.398 . S
C46 C47 1.352 . S
C47 C46 1.352 . S
C47 C48 1.384 . S
C47 H74 0.930 . S
C48 C43 1.407 . S
C48 C47 1.384 . S
C48 H75 0.929 . S
C49 O62 1.241 . S
C49 O63 1.273 . S
C50 O64 1.251 . S
C50 O65 1.268 . S
C51 Nd41 2.836 . S
C51 C52 1.498 . S
C51 O66 1.258 . S
C51 O67 1.239 . S
C52 C51 1.498 . S
C52 C53 1.366 . S
C52 C57 1.407 . S
C53 C52 1.366 . S
C53 C54 1.392 . S
C53 H76 0.930 . S
C54 C53 1.392 . S
C54 C55 1.398 . S
C54 H77 0.929 . S
C55 C54 1.398 . S
C55 C56 1.352 . S
C56 C55 1.352 . S
C56 C57 1.384 . S
C56 H78 0.930 . S
C57 C52 1.407 . S
C57 C56 1.384 . S
C57 H79 0.929 . S
C58 O68 1.241 . S
C58 O69 1.273 . S
C59 O70 1.251 . S
C59 O71 1.268 . S
O60 Nd40 2.500 . S
O60 C42 1.258 . S
O61 Nd40 2.492 . S
O61 C42 1.239 . S
O62 Nd40 2.487 . S
O62 C49 1.241 . S
O63 Nd40 2.682 . S
O63 Nd41 2.414 . S
O63 C49 1.273 . S
O64 Nd40 2.410 . S
O64 C50 1.251 . S
O65 Nd41 2.424 . S
O65 C50 1.268 . S
O66 Nd41 2.500 . S
O66 C51 1.258 . S
O67 Nd41 2.492 . S
O67 C51 1.239 . S
O68 Nd41 2.487 . S
O68 C58 1.241 . S
O69 Nd40 2.414 . S
O69 Nd41 2.682 . S
O69 C58 1.273 . S
O70 Nd41 2.410 . S
O70 C59 1.251 . S
O71 Nd40 2.424 . S
O71 C59 1.268 . S
H72 C44 0.930 . S
H73 C45 0.929 . S
H74 C47 0.930 . S
H75 C48 0.929 . S
H76 C53 0.930 . S
H77 C54 0.929 . S
H78 C56 0.930 . S
H79 C57 0.929 . S
Nd80 C82 2.836 . S
Nd80 O100 2.500 . S
Nd80 O101 2.492 . S
Nd80 O102 2.487 . S
Nd80 O103 2.682 . S
Nd80 O104 2.410 . S
Nd80 O109 2.414 . S
Nd80 O111 2.424 . S
Nd81 C91 2.836 . S
Nd81 O103 2.414 . S
Nd81 O105 2.424 . S
Nd81 O106 2.500 . S
Nd81 O107 2.492 . S
Nd81 O108 2.487 . S
Nd81 O109 2.682 . S
Nd81 O110 2.410 . S
C82 Nd80 2.836 . S
C82 C83 1.498 . S
C82 O100 1.258 . S
C82 O101 1.239 . S
C83 C82 1.498 . S
C83 C84 1.366 . S
C83 C88 1.407 . S
C84 C83 1.366 . S
C84 C85 1.392 . S
C84 H112 0.930 . S
C85 C84 1.392 . S
C85 C86 1.398 . S
C85 H113 0.929 . S
C86 C85 1.398 . S
C86 C87 1.352 . S
C87 C86 1.352 . S
C87 C88 1.384 . S
C87 H114 0.930 . S
C88 C83 1.407 . S
C88 C87 1.384 . S
C88 H115 0.929 . S
C89 O102 1.241 . S
C89 O103 1.273 . S
C90 O104 1.251 . S
C90 O105 1.268 . S
C91 Nd81 2.836 . S
C91 C92 1.498 . S
C91 O106 1.258 . S
C91 O107 1.239 . S
C92 C91 1.498 . S
C92 C93 1.366 . S
C92 C97 1.407 . S
C93 C92 1.366 . S
C93 C94 1.392 . S
C93 H116 0.930 . S
C94 C93 1.392 . S
C94 C95 1.398 . S
C94 H117 0.929 . S
C95 C94 1.398 . S
C95 C96 1.352 . S
C96 C95 1.352 . S
C96 C97 1.384 . S
C96 H118 0.930 . S
C97 C92 1.407 . S
C97 C96 1.384 . S
C97 H119 0.929 . S
C98 O108 1.241 . S
C98 O109 1.273 . S
C99 O110 1.251 . S
C99 O111 1.268 . S
O100 Nd80 2.500 . S
O100 C82 1.258 . S
O101 Nd80 2.492 . S
O101 C82 1.239 . S
O102 Nd80 2.487 . S
O102 C89 1.241 . S
O103 Nd80 2.682 . S
O103 Nd81 2.414 . S
O103 C89 1.273 . S
O104 Nd80 2.410 . S
O104 C90 1.251 . S
O105 Nd81 2.424 . S
O105 C90 1.268 . S
O106 Nd81 2.500 . S
O106 C91 1.258 . S
O107 Nd81 2.492 . S
O107 C91 1.239 . S
O108 Nd81 2.487 . S
O108 C98 1.241 . S
O109 Nd80 2.414 . S
O109 Nd81 2.682 . S
O109 C98 1.273 . S
O110 Nd81 2.410 . S
O110 C99 1.251 . S
O111 Nd80 2.424 . S
O111 C99 1.268 . S
H112 C84 0.930 . S
H113 C85 0.929 . S
H114 C87 0.930 . S
H115 C88 0.929 . S
H116 C93 0.930 . S
H117 C94 0.929 . S
H118 C96 0.930 . S
H119 C97 0.929 . S
Nd120 C122 2.836 . S
Nd120 O140 2.500 . S
Nd120 O141 2.492 . S
Nd120 O142 2.487 . S
Nd120 O143 2.682 . S
Nd120 O144 2.410 . S
Nd120 O149 2.414 . S
Nd120 O151 2.424 . S
Nd121 C131 2.836 . S
Nd121 O143 2.414 . S
Nd121 O145 2.424 . S
Nd121 O146 2.500 . S
Nd121 O147 2.492 . S
Nd121 O148 2.487 . S
Nd121 O149 2.682 . S
Nd121 O150 2.410 . S
C122 Nd120 2.836 . S
C122 C123 1.498 . S
C122 O140 1.258 . S
C122 O141 1.239 . S
C123 C122 1.498 . S
C123 C124 1.366 . S
C123 C128 1.407 . S
C124 C123 1.366 . S
C124 C125 1.392 . S
C124 H152 0.930 . S
C125 C124 1.392 . S
C125 C126 1.398 . S
C125 H153 0.929 . S
C126 C125 1.398 . S
C126 C127 1.352 . S
C127 C126 1.352 . S
C127 C128 1.384 . S
C127 H154 0.930 . S
C128 C123 1.407 . S
C128 C127 1.384 . S
C128 H155 0.929 . S
C129 O142 1.241 . S
C129 O143 1.273 . S
C130 O144 1.251 . S
C130 O145 1.268 . S
C131 Nd121 2.836 . S
C131 C132 1.498 1_556 S
C131 O146 1.258 . S
C131 O147 1.239 . S
C132 C131 1.498 1_554 S
C132 C133 1.366 . S
C132 C137 1.407 . S
C133 C132 1.366 . S
C133 C134 1.392 . S
C133 H156 0.930 . S
C134 C133 1.392 . S
C134 C135 1.398 . S
C134 H157 0.929 . S
C135 C134 1.398 . S
C135 C136 1.352 . S
C136 C135 1.352 . S
C136 C137 1.384 . S
C136 H158 0.930 . S
C137 C132 1.407 . S
C137 C136 1.384 . S
C137 H159 0.929 . S
C138 O148 1.241 . S
C138 O149 1.273 . S
C139 O150 1.251 . S
C139 O151 1.268 . S
O140 Nd120 2.500 . S
O140 C122 1.258 . S
O141 Nd120 2.492 . S
O141 C122 1.239 . S
O142 Nd120 2.487 . S
O142 C129 1.241 . S
O143 Nd120 2.682 . S
O143 Nd121 2.414 . S
O143 C129 1.273 . S
O144 Nd120 2.410 . S
O144 C130 1.251 . S
O145 Nd121 2.424 . S
O145 C130 1.268 . S
O146 Nd121 2.500 . S
O146 C131 1.258 . S
O147 Nd121 2.492 . S
O147 C131 1.239 . S
O148 Nd121 2.487 . S
O148 C138 1.241 . S
O149 Nd120 2.414 . S
O149 Nd121 2.682 . S
O149 C138 1.273 . S
O150 Nd121 2.410 . S
O150 C139 1.251 . S
O151 Nd120 2.424 . S
O151 C139 1.268 . S
H152 C124 0.930 . S
H153 C125 0.929 . S
H154 C127 0.930 . S
H155 C128 0.929 . S
H156 C133 0.930 . S
H157 C134 0.929 . S
H158 C136 0.930 . S
H159 C137 0.929 . S
Nd160 C162 2.836 . S
Nd160 O180 2.500 . S
Nd160 O181 2.492 . S
Nd160 O182 2.487 . S
Nd160 O183 2.682 . S
Nd160 O184 2.410 . S
Nd160 O189 2.414 . S
Nd160 O191 2.424 . S
Nd161 C171 2.836 . S
Nd161 O183 2.414 . S
Nd161 O185 2.424 . S
Nd161 O186 2.500 . S
Nd161 O187 2.492 . S
Nd161 O188 2.487 . S
Nd161 O189 2.682 . S
Nd161 O190 2.410 . S
C162 Nd160 2.836 . S
C162 C163 1.498 . S
C162 O180 1.258 . S
C162 O181 1.239 . S
C163 C162 1.498 . S
C163 C164 1.366 . S
C163 C168 1.407 . S
C164 C163 1.366 . S
C164 C165 1.392 . S
C164 H192 0.930 . S
C165 C164 1.392 . S
C165 C166 1.398 . S
C165 H193 0.929 . S
C166 C165 1.398 . S
C166 C167 1.352 . S
C167 C166 1.352 . S
C167 C168 1.384 . S
C167 H194 0.930 . S
C168 C163 1.407 . S
C168 C167 1.384 . S
C168 H195 0.929 . S
C169 O182 1.241 . S
C169 O183 1.273 . S
C170 O184 1.251 . S
C170 O185 1.268 . S
C171 Nd161 2.836 . S
C171 C172 1.498 . S
C171 O186 1.258 . S
C171 O187 1.239 . S
C172 C171 1.498 . S
C172 C173 1.366 . S
C172 C177 1.407 . S
C173 C172 1.366 . S
C173 C174 1.392 . S
C173 H196 0.930 . S
C174 C173 1.392 . S
C174 C175 1.398 . S
C174 H197 0.929 . S
C175 C174 1.398 . S
C175 C176 1.352 . S
C176 C175 1.352 . S
C176 C177 1.384 . S
C176 H198 0.930 . S
C177 C172 1.407 . S
C177 C176 1.384 . S
C177 H199 0.929 . S
C178 O188 1.241 . S
C178 O189 1.273 . S
C179 O190 1.251 . S
C179 O191 1.268 . S
O180 Nd160 2.500 . S
O180 C162 1.258 . S
O181 Nd160 2.492 . S
O181 C162 1.239 . S
O182 Nd160 2.487 . S
O182 C169 1.241 . S
O183 Nd160 2.682 . S
O183 Nd161 2.414 . S
O183 C169 1.273 . S
O184 Nd160 2.410 . S
O184 C170 1.251 . S
O185 Nd161 2.424 . S
O185 C170 1.268 . S
O186 Nd161 2.500 . S
O186 C171 1.258 . S
O187 Nd161 2.492 . S
O187 C171 1.239 . S
O188 Nd161 2.487 . S
O188 C178 1.241 . S
O189 Nd160 2.414 . S
O189 Nd161 2.682 . S
O189 C178 1.273 . S
O190 Nd161 2.410 . S
O190 C179 1.251 . S
O191 Nd160 2.424 . S
O191 C179 1.268 . S
H192 C164 0.930 . S
H193 C165 0.929 . S
H194 C167 0.930 . S
H195 C168 0.929 . S
H196 C173 0.930 . S
H197 C174 0.929 . S
H198 C176 0.930 . S
H199 C177 0.929 . S
Nd200 C202 2.836 . S
Nd200 O220 2.500 . S
Nd200 O221 2.492 . S
Nd200 O222 2.487 . S
Nd200 O223 2.682 . S
Nd200 O224 2.410 . S
Nd200 O229 2.414 . S
Nd200 O231 2.424 . S
Nd201 C211 2.836 . S
Nd201 O223 2.414 . S
Nd201 O225 2.424 . S
Nd201 O226 2.500 . S
Nd201 O227 2.492 . S
Nd201 O228 2.487 . S
Nd201 O229 2.682 . S
Nd201 O230 2.410 . S
C202 Nd200 2.836 . S
C202 C203 1.498 . S
C202 O220 1.258 . S
C202 O221 1.239 . S
C203 C202 1.498 . S
C203 C204 1.366 . S
C203 C208 1.407 . S
C204 C203 1.366 . S
C204 C205 1.392 . S
C204 H232 0.930 . S
C205 C204 1.392 . S
C205 C206 1.398 . S
C205 H233 0.929 . S
C206 C205 1.398 . S
C206 C207 1.352 . S
C207 C206 1.352 . S
C207 C208 1.384 . S
C207 H234 0.930 . S
C208 C203 1.407 . S
C208 C207 1.384 . S
C208 H235 0.929 . S
C209 O222 1.241 . S
C209 O223 1.273 . S
C210 O224 1.251 . S
C210 O225 1.268 . S
C211 Nd201 2.836 . S
C211 C212 1.498 . S
C211 O226 1.258 . S
C211 O227 1.239 . S
C212 C211 1.498 . S
C212 C213 1.366 . S
C212 C217 1.407 . S
C213 C212 1.366 . S
C213 C214 1.392 1_556 S
C213 H236 0.930 . S
C214 C213 1.392 1_554 S
C214 C215 1.398 . S
C214 H237 0.929 . S
C215 C214 1.398 . S
C215 C216 1.352 . S
C216 C215 1.352 . S
C216 C217 1.384 1_554 S
C216 H238 0.930 . S
C217 C212 1.407 . S
C217 C216 1.384 1_556 S
C217 H239 0.929 . S
C218 O228 1.241 . S
C218 O229 1.273 . S
C219 O230 1.251 . S
C219 O231 1.268 . S
O220 Nd200 2.500 . S
O220 C202 1.258 . S
O221 Nd200 2.492 . S
O221 C202 1.239 . S
O222 Nd200 2.487 . S
O222 C209 1.241 . S
O223 Nd200 2.682 . S
O223 Nd201 2.414 . S
O223 C209 1.273 . S
O224 Nd200 2.410 . S
O224 C210 1.251 . S
O225 Nd201 2.424 . S
O225 C210 1.268 . S
O226 Nd201 2.500 . S
O226 C211 1.258 . S
O227 Nd201 2.492 . S
O227 C211 1.239 . S
O228 Nd201 2.487 . S
O228 C218 1.241 . S
O229 Nd200 2.414 . S
O229 Nd201 2.682 . S
O229 C218 1.273 . S
O230 Nd201 2.410 . S
O230 C219 1.251 . S
O231 Nd200 2.424 . S
O231 C219 1.268 . S
H232 C204 0.930 . S
H233 C205 0.929 . S
H234 C207 0.930 . S
H235 C208 0.929 . S
H236 C213 0.930 . S
H237 C214 0.929 . S
H238 C216 0.930 . S
H239 C217 0.929 . S
Nd240 C242 2.836 1_554 S
Nd240 O260 2.500 1_554 S
Nd240 O261 2.492 1_554 S
Nd240 O262 2.487 . S
Nd240 O263 2.682 . S
Nd240 O264 2.410 1_554 S
Nd240 O269 2.414 . S
Nd240 O271 2.424 . S
Nd241 C251 2.836 . S
Nd241 O263 2.414 . S
Nd241 O265 2.431 . S
Nd241 O266 2.500 . S
Nd241 O267 2.492 . S
Nd241 O268 2.487 . S
Nd241 O269 2.682 . S
Nd241 O270 2.410 . S
C242 Nd240 2.836 1_556 S
C242 C243 1.498 . S
C242 O260 1.258 . S
C242 O261 1.239 . S
C243 C242 1.498 . S
C243 C244 1.366 . S
C243 C248 1.407 . S
C244 C243 1.366 . S
C244 C245 1.392 . S
C244 H272 0.930 . S
C245 C244 1.392 . S
C245 C246 1.398 . S
C245 H273 0.929 . S
C246 C245 1.398 . S
C246 C247 1.352 . S
C247 C246 1.352 . S
C247 C248 1.384 . S
C247 H274 0.930 . S
C248 C243 1.407 . S
C248 C247 1.384 . S
C248 H275 0.929 . S
C249 O262 1.241 . S
C249 O263 1.273 . S
C250 O264 1.251 . S
C250 O265 1.263 1_556 S
C251 Nd241 2.836 . S
C251 C252 1.498 . S
C251 O266 1.258 . S
C251 O267 1.239 . S
C252 C251 1.498 . S
C252 C253 1.366 . S
C252 C257 1.407 . S
C253 C252 1.366 . S
C253 C254 1.392 . S
C253 H276 0.930 . S
C254 C253 1.392 . S
C254 C255 1.398 . S
C254 H277 0.929 . S
C255 C254 1.398 . S
C255 C256 1.352 . S
C256 C255 1.352 . S
C256 C257 1.384 . S
C256 H278 0.930 . S
C257 C252 1.407 . S
C257 C256 1.384 . S
C257 H279 0.929 . S
C258 O268 1.241 . S
C258 O269 1.273 . S
C259 O270 1.251 . S
C259 O271 1.268 . S
O260 Nd240 2.500 1_556 S
O260 C242 1.258 . S
O261 Nd240 2.492 1_556 S
O261 C242 1.239 . S
O262 Nd240 2.487 . S
O262 C249 1.241 . S
O263 Nd240 2.682 . S
O263 Nd241 2.414 . S
O263 C249 1.273 . S
O264 Nd240 2.410 1_556 S
O264 C250 1.251 . S
O265 Nd241 2.431 . S
O265 C250 1.263 1_554 S
O266 Nd241 2.500 . S
O266 C251 1.258 . S
O267 Nd241 2.492 . S
O267 C251 1.239 . S
O268 Nd241 2.487 . S
O268 C258 1.241 . S
O269 Nd240 2.414 . S
O269 Nd241 2.682 . S
O269 C258 1.273 . S
O270 Nd241 2.410 . S
O270 C259 1.251 . S
O271 Nd240 2.424 . S
O271 C259 1.268 . S
H272 C244 0.930 . S
H273 C245 0.929 . S
H274 C247 0.930 . S
H275 C248 0.929 . S
H276 C253 0.930 . S
H277 C254 0.929 . S
H278 C256 0.930 . S
H279 C257 0.929 . S
Nd280 C282 2.836 . S
Nd280 O300 2.500 . S
Nd280 O301 2.492 . S
Nd280 O302 2.487 . S
Nd280 O303 2.682 . S
Nd280 O304 2.410 . S
Nd280 O309 2.414 . S
Nd280 O311 2.424 . S
Nd281 C291 2.836 . S
Nd281 O303 2.414 . S
Nd281 O305 2.424 . S
Nd281 O306 2.500 . S
Nd281 O307 2.492 . S
Nd281 O308 2.487 . S
Nd281 O309 2.682 . S
Nd281 O310 2.410 . S
C282 Nd280 2.836 . S
C282 C283 1.498 . S
C282 O300 1.258 . S
C282 O301 1.239 . S
C283 C282 1.498 . S
C283 C284 1.366 . S
C283 C288 1.407 . S
C284 C283 1.366 . S
C284 C285 1.392 . S
C284 H312 0.930 . S
C285 C284 1.392 . S
C285 C286 1.398 . S
C285 H313 0.929 . S
C286 C285 1.398 . S
C286 C287 1.352 . S
C287 C286 1.352 . S
C287 C288 1.384 . S
C287 H314 0.930 . S
C288 C283 1.407 . S
C288 C287 1.384 . S
C288 H315 0.929 . S
C289 O302 1.241 . S
C289 O303 1.273 . S
C290 O304 1.251 . S
C290 O305 1.268 . S
C291 Nd281 2.836 . S
C291 C292 1.498 . S
C291 O306 1.258 . S
C291 O307 1.239 . S
C292 C291 1.498 . S
C292 C293 1.366 . S
C292 C297 1.407 . S
C293 C292 1.366 . S
C293 C294 1.392 . S
C293 H316 0.930 . S
C294 C293 1.392 . S
C294 C295 1.398 . S
C294 H317 0.929 . S
C295 C294 1.398 . S
C295 C296 1.352 . S
C296 C295 1.352 . S
C296 C297 1.384 . S
C296 H318 0.930 . S
C297 C292 1.407 . S
C297 C296 1.384 . S
C297 H319 0.929 . S
C298 O308 1.241 . S
C298 O309 1.273 . S
C299 O310 1.251 . S
C299 O311 1.268 . S
O300 Nd280 2.500 . S
O300 C282 1.258 . S
O301 Nd280 2.492 . S
O301 C282 1.239 . S
O302 Nd280 2.487 . S
O302 C289 1.241 . S
O303 Nd280 2.682 . S
O303 Nd281 2.414 . S
O303 C289 1.273 . S
O304 Nd280 2.410 . S
O304 C290 1.251 . S
O305 Nd281 2.424 . S
O305 C290 1.268 . S
O306 Nd281 2.500 . S
O306 C291 1.258 . S
O307 Nd281 2.492 . S
O307 C291 1.239 . S
O308 Nd281 2.487 . S
O308 C298 1.241 . S
O309 Nd280 2.414 . S
O309 Nd281 2.682 . S
O309 C298 1.273 . S
O310 Nd281 2.410 . S
O310 C299 1.251 . S
O311 Nd280 2.424 . S
O311 C299 1.268 . S
H312 C284 0.930 . S
H313 C285 0.929 . S
H314 C287 0.930 . S
H315 C288 0.929 . S
H316 C293 0.930 . S
H317 C294 0.929 . S
H318 C296 0.930 . S
H319 C297 0.929 . S
Nd320 C322 2.836 . S
Nd320 O340 2.500 . S
Nd320 O341 2.492 1_655 S
Nd320 O342 2.487 1_655 S
Nd320 O343 2.682 . S
Nd320 O344 2.410 . S
Nd320 O349 2.414 . S
Nd320 O351 2.424 . S
Nd321 C331 2.836 . S
Nd321 O343 2.414 . S
Nd321 O345 2.424 . S
Nd321 O346 2.500 . S
Nd321 O347 2.492 . S
Nd321 O348 2.487 . S
Nd321 O349 2.682 . S
Nd321 O350 2.410 . S
C322 Nd320 2.836 . S
C322 C323 1.498 . S
C322 O340 1.258 . S
C322 O341 1.239 1_655 S
C323 C322 1.498 . S
C323 C324 1.366 . S
C323 C328 1.407 1_655 S
C324 C323 1.366 . S
C324 C325 1.392 1_554 S
C324 H352 0.930 . S
C325 C324 1.392 1_556 S
C325 C326 1.398 1_655 S
C325 H353 0.929 . S
C326 C325 1.398 1_455 S
C326 C327 1.352 . S
C327 C326 1.352 . S
C327 C328 1.384 1_556 S
C327 H354 0.930 . S
C328 C323 1.407 1_455 S
C328 C327 1.384 1_554 S
C328 H355 0.929 . S
C329 O342 1.241 1_655 S
C329 O343 1.273 . S
C330 O344 1.251 . S
C330 O345 1.268 . S
C331 Nd321 2.836 . S
C331 C332 1.498 . S
C331 O346 1.258 . S
C331 O347 1.239 . S
C332 C331 1.498 . S
C332 C333 1.366 . S
C332 C337 1.407 . S
C333 C332 1.366 . S
C333 C334 1.392 . S
C333 H356 0.930 . S
C334 C333 1.392 . S
C334 C335 1.398 . S
C334 H357 0.929 . S
C335 C334 1.398 . S
C335 C336 1.352 . S
C336 C335 1.352 . S
C336 C337 1.384 . S
C336 H358 0.930 . S
C337 C332 1.407 . S
C337 C336 1.384 . S
C337 H359 0.929 . S
C338 O348 1.241 . S
C338 O349 1.273 . S
C339 O350 1.251 . S
C339 O351 1.268 . S
O340 Nd320 2.500 . S
O340 C322 1.258 . S
O341 Nd320 2.492 1_455 S
O341 C322 1.239 1_455 S
O342 Nd320 2.487 1_455 S
O342 C329 1.241 1_455 S
O343 Nd320 2.682 . S
O343 Nd321 2.414 . S
O343 C329 1.273 . S
O344 Nd320 2.410 . S
O344 C330 1.251 . S
O345 Nd321 2.424 . S
O345 C330 1.268 . S
O346 Nd321 2.500 . S
O346 C331 1.258 . S
O347 Nd321 2.492 . S
O347 C331 1.239 . S
O348 Nd321 2.487 . S
O348 C338 1.241 . S
O349 Nd320 2.414 . S
O349 Nd321 2.682 . S
O349 C338 1.273 . S
O350 Nd321 2.410 . S
O350 C339 1.251 . S
O351 Nd320 2.424 . S
O351 C339 1.268 . S
H352 C324 0.930 . S
H353 C325 0.929 . S
H354 C327 0.930 . S
H355 C328 0.929 . S
H356 C333 0.930 . S
H357 C334 0.929 . S
H358 C336 0.930 . S
H359 C337 0.929 . S
Nd360 C362 2.836 . S
Nd360 O380 2.500 . S
Nd360 O381 2.492 . S
Nd360 O382 2.487 . S
Nd360 O383 2.682 . S
Nd360 O384 2.410 . S
Nd360 O389 2.414 . S
Nd360 O391 2.424 . S
Nd361 C371 2.836 1_556 S
Nd361 O383 2.414 . S
Nd361 O385 2.424 . S
Nd361 O386 2.500 1_556 S
Nd361 O387 2.492 1_556 S
Nd361 O388 2.487 . S
Nd361 O389 2.682 . S
Nd361 O390 2.410 1_556 S
C362 Nd360 2.836 . S
C362 C363 1.498 . S
C362 O380 1.258 . S
C362 O381 1.239 . S
C363 C362 1.498 . S
C363 C364 1.366 . S
C363 C368 1.407 . S
C364 C363 1.366 . S
C364 C365 1.392 . S
C364 H392 0.930 . S
C365 C364 1.392 . S
C365 C366 1.398 . S
C365 H393 0.929 . S
C366 C365 1.398 . S
C366 C367 1.352 . S
C367 C366 1.352 . S
C367 C368 1.384 . S
C367 H394 0.930 . S
C368 C363 1.407 . S
C368 C367 1.384 . S
C368 H395 0.929 . S
C369 O382 1.241 . S
C369 O383 1.273 . S
C370 O384 1.251 . S
C370 O385 1.268 . S
C371 Nd361 2.836 1_554 S
C371 C372 1.498 . S
C371 O386 1.258 . S
C371 O387 1.239 . S
C372 C371 1.498 . S
C372 C373 1.366 . S
C372 C377 1.407 . S
C373 C372 1.366 . S
C373 C374 1.392 . S
C373 H396 0.930 . S
C374 C373 1.392 . S
C374 C375 1.398 . S
C374 H397 0.929 . S
C375 C374 1.398 . S
C375 C376 1.352 . S
C376 C375 1.352 . S
C376 C377 1.384 . S
C376 H398 0.930 . S
C377 C372 1.407 . S
C377 C376 1.384 . S
C377 H399 0.929 . S
C378 O388 1.241 . S
C378 O389 1.273 . S
C379 O390 1.251 . S
C379 O391 1.268 1_554 S
O380 Nd360 2.500 . S
O380 C362 1.258 . S
O381 Nd360 2.492 . S
O381 C362 1.239 . S
O382 Nd360 2.487 . S
O382 C369 1.241 . S
O383 Nd360 2.682 . S
O383 Nd361 2.414 . S
O383 C369 1.273 . S
O384 Nd360 2.410 . S
O384 C370 1.251 . S
O385 Nd361 2.424 . S
O385 C370 1.268 . S
O386 Nd361 2.500 1_554 S
O386 C371 1.258 . S
O387 Nd361 2.492 1_554 S
O387 C371 1.239 . S
O388 Nd361 2.487 . S
O388 C378 1.241 . S
O389 Nd360 2.414 . S
O389 Nd361 2.682 . S
O389 C378 1.273 . S
O390 Nd361 2.410 1_554 S
O390 C379 1.251 . S
O391 Nd360 2.424 . S
O391 C379 1.268 1_556 S
H392 C364 0.930 . S
H393 C365 0.929 . S
H394 C367 0.930 . S
H395 C368 0.929 . S
H396 C373 0.930 . S
H397 C374 0.929 . S
H398 C376 0.930 . S
H399 C377 0.929 . S
Nd400 C402 2.836 . S
Nd400 O420 2.500 . S
Nd400 O421 2.492 . S
Nd400 O422 2.487 . S
Nd400 O423 2.682 . S
Nd400 O424 2.410 . S
Nd400 O429 2.414 . S
Nd400 O431 2.424 . S
Nd401 C411 2.836 . S
Nd401 O423 2.414 . S
Nd401 O425 2.424 . S
Nd401 O426 2.500 . S
Nd401 O427 2.492 . S
Nd401 O428 2.487 . S
Nd401 O429 2.682 . S
Nd401 O430 2.410 . S
C402 Nd400 2.836 . S
C402 C403 1.498 . S
C402 O420 1.258 . S
C402 O421 1.239 . S
C403 C402 1.498 . S
C403 C404 1.366 . S
C403 C408 1.407 . S
C404 C403 1.366 . S
C404 C405 1.392 . S
C404 H432 0.930 . S
C405 C404 1.392 . S
C405 C406 1.398 . S
C405 H433 0.929 . S
C406 C405 1.398 . S
C406 C407 1.352 . S
C407 C406 1.352 . S
C407 C408 1.384 . S
C407 H434 0.930 . S
C408 C403 1.407 . S
C408 C407 1.384 . S
C408 H435 0.929 . S
C409 O422 1.241 . S
C409 O423 1.273 . S
C410 O424 1.251 . S
C410 O425 1.268 . S
C411 Nd401 2.836 . S
C411 C412 1.498 . S
C411 O426 1.258 . S
C411 O427 1.239 . S
C412 C411 1.498 . S
C412 C413 1.366 . S
C412 C417 1.407 . S
C413 C412 1.366 . S
C413 C414 1.392 . S
C413 H436 0.930 . S
C414 C413 1.392 . S
C414 C415 1.398 . S
C414 H437 0.929 . S
C415 C414 1.398 . S
C415 C416 1.352 . S
C416 C415 1.352 . S
C416 C417 1.384 . S
C416 H438 0.930 . S
C417 C412 1.407 . S
C417 C416 1.384 . S
C417 H439 0.929 . S
C418 O428 1.241 . S
C418 O429 1.273 . S
C419 O430 1.251 . S
C419 O431 1.268 . S
O420 Nd400 2.500 . S
O420 C402 1.258 . S
O421 Nd400 2.492 . S
O421 C402 1.239 . S
O422 Nd400 2.487 . S
O422 C409 1.241 . S
O423 Nd400 2.682 . S
O423 Nd401 2.414 . S
O423 C409 1.273 . S
O424 Nd400 2.410 . S
O424 C410 1.251 . S
O425 Nd401 2.424 . S
O425 C410 1.268 . S
O426 Nd401 2.500 . S
O426 C411 1.258 . S
O427 Nd401 2.492 . S
O427 C411 1.239 . S
O428 Nd401 2.487 . S
O428 C418 1.241 . S
O429 Nd400 2.414 . S
O429 Nd401 2.682 . S
O429 C418 1.273 . S
O430 Nd401 2.410 . S
O430 C419 1.251 . S
O431 Nd400 2.424 . S
O431 C419 1.268 . S
H432 C404 0.930 . S
H433 C405 0.929 . S
H434 C407 0.930 . S
H435 C408 0.929 . S
H436 C413 0.930 . S
H437 C414 0.929 . S
H438 C416 0.930 . S
H439 C417 0.929 . S
Nd440 C442 2.836 . S
Nd440 O460 2.500 . S
Nd440 O461 2.492 . S
Nd440 O462 2.487 . S
Nd440 O463 2.682 . S
Nd440 O464 2.410 . S
Nd440 O469 2.414 . S
Nd440 O471 2.424 . S
Nd441 C451 2.836 . S
Nd441 O463 2.414 . S
Nd441 O465 2.424 . S
Nd441 O466 2.500 . S
Nd441 O467 2.492 . S
Nd441 O468 2.487 . S
Nd441 O469 2.682 . S
Nd441 O470 2.410 . S
C442 Nd440 2.836 . S
C442 C443 1.498 . S
C442 O460 1.258 . S
C442 O461 1.239 . S
C443 C442 1.498 . S
C443 C444 1.366 . S
C443 C448 1.407 . S
C444 C443 1.366 . S
C444 C445 1.392 . S
C444 H472 0.930 . S
C445 C444 1.392 . S
C445 C446 1.398 . S
C445 H473 0.929 . S
C446 C445 1.398 . S
C446 C447 1.352 . S
C447 C446 1.352 . S
C447 C448 1.384 . S
C447 H474 0.930 . S
C448 C443 1.407 . S
C448 C447 1.384 . S
C448 H475 0.929 . S
C449 O462 1.241 . S
C449 O463 1.273 . S
C450 O464 1.251 . S
C450 O465 1.268 . S
C451 Nd441 2.836 . S
C451 C452 1.498 . S
C451 O466 1.258 . S
C451 O467 1.239 . S
C452 C451 1.498 . S
C452 C453 1.366 . S
C452 C457 1.407 . S
C453 C452 1.366 . S
C453 C454 1.392 . S
C453 H476 0.930 . S
C454 C453 1.392 . S
C454 C455 1.398 . S
C454 H477 0.929 . S
C455 C454 1.398 . S
C455 C456 1.352 . S
C456 C455 1.352 . S
C456 C457 1.384 . S
C456 H478 0.930 . S
C457 C452 1.407 . S
C457 C456 1.384 . S
C457 H479 0.929 . S
C458 O468 1.241 . S
C458 O469 1.273 . S
C459 O470 1.251 . S
C459 O471 1.268 . S
O460 Nd440 2.500 . S
O460 C442 1.258 . S
O461 Nd440 2.492 . S
O461 C442 1.239 . S
O462 Nd440 2.487 . S
O462 C449 1.241 . S
O463 Nd440 2.682 . S
O463 Nd441 2.414 . S
O463 C449 1.273 . S
O464 Nd440 2.410 . S
O464 C450 1.251 . S
O465 Nd441 2.424 . S
O465 C450 1.268 . S
O466 Nd441 2.500 . S
O466 C451 1.258 . S
O467 Nd441 2.492 . S
O467 C451 1.239 . S
O468 Nd441 2.487 . S
O468 C458 1.241 . S
O469 Nd440 2.414 . S
O469 Nd441 2.682 . S
O469 C458 1.273 . S
O470 Nd441 2.410 . S
O470 C459 1.251 . S
O471 Nd440 2.424 . S
O471 C459 1.268 . S
H472 C444 0.930 . S
H473 C445 0.929 . S
H474 C447 0.930 . S
H475 C448 0.929 . S
H476 C453 0.930 . S
H477 C454 0.929 . S
H478 C456 0.930 . S
H479 C457 0.929 . S
Nd480 C482 2.836 . S
Nd480 O500 2.500 . S
Nd480 O501 2.492 . S
Nd480 O502 2.487 . S
Nd480 O503 2.682 . S
Nd480 O504 2.410 . S
Nd480 O509 2.414 . S
Nd480 O511 2.424 . S
Nd481 C491 2.836 . S
Nd481 O503 2.414 . S
Nd481 O505 2.424 . S
Nd481 O506 2.500 . S
Nd481 O507 2.492 . S
Nd481 O508 2.487 . S
Nd481 O509 2.682 . S
Nd481 O510 2.410 . S
C482 Nd480 2.836 . S
C482 C483 1.498 . S
C482 O500 1.258 . S
C482 O501 1.239 . S
C483 C482 1.498 . S
C483 C484 1.366 . S
C483 C488 1.407 . S
C484 C483 1.366 . S
C484 C485 1.392 . S
C484 H512 0.930 . S
C485 C484 1.392 . S
C485 C486 1.398 . S
C485 H513 0.929 . S
C486 C485 1.398 . S
C486 C487 1.352 . S
C487 C486 1.352 . S
C487 C488 1.384 . S
C487 H514 0.930 . S
C488 C483 1.407 . S
C488 C487 1.384 . S
C488 H515 0.929 . S
C489 O502 1.241 . S
C489 O503 1.273 . S
C490 O504 1.251 . S
C490 O505 1.268 . S
C491 Nd481 2.836 . S
C491 C492 1.498 . S
C491 O506 1.258 . S
C491 O507 1.239 . S
C492 C491 1.498 . S
C492 C493 1.366 . S
C492 C497 1.407 . S
C493 C492 1.366 . S
C493 C494 1.392 . S
C493 H516 0.930 . S
C494 C493 1.392 . S
C494 C495 1.396 1_556 S
C494 H517 0.929 1_556 S
C495 C494 1.396 1_554 S
C495 C496 1.343 1_554 S
C496 C495 1.343 1_556 S
C496 C497 1.384 . S
C496 H518 0.930 . S
C497 C492 1.407 . S
C497 C496 1.384 . S
C497 H519 0.929 . S
C498 O508 1.241 . S
C498 O509 1.273 . S
C499 O510 1.251 . S
C499 O511 1.268 . S
O500 Nd480 2.500 . S
O500 C482 1.258 . S
O501 Nd480 2.492 . S
O501 C482 1.239 . S
O502 Nd480 2.487 . S
O502 C489 1.241 . S
O503 Nd480 2.682 . S
O503 Nd481 2.414 . S
O503 C489 1.273 . S
O504 Nd480 2.410 . S
O504 C490 1.251 . S
O505 Nd481 2.424 . S
O505 C490 1.268 . S
O506 Nd481 2.500 . S
O506 C491 1.258 . S
O507 Nd481 2.492 . S
O507 C491 1.239 . S
O508 Nd481 2.487 . S
O508 C498 1.241 . S
O509 Nd480 2.414 . S
O509 Nd481 2.682 . S
O509 C498 1.273 . S
O510 Nd481 2.410 . S
O510 C499 1.251 . S
O511 Nd480 2.424 . S
O511 C499 1.268 . S
H512 C484 0.930 . S
H513 C485 0.929 . S
H514 C487 0.930 . S
H515 C488 0.929 . S
H516 C493 0.930 . S
H517 C494 0.929 1_554 S
H518 C496 0.930 . S
H519 C497 0.929 . S
Nd520 C522 2.836 . S
Nd520 O540 2.500 . S
Nd520 O541 2.492 . S
Nd520 O542 2.487 . S
Nd520 O543 2.682 . S
Nd520 O544 2.410 . S
Nd520 O549 2.414 . S
Nd520 O551 2.424 . S
Nd521 C531 2.836 . S
Nd521 O543 2.414 . S
Nd521 O545 2.424 . S
Nd521 O546 2.500 . S
Nd521 O547 2.492 . S
Nd521 O548 2.487 . S
Nd521 O549 2.682 . S
Nd521 O550 2.410 . S
C522 Nd520 2.836 . S
C522 C523 1.498 . S
C522 O540 1.258 . S
C522 O541 1.239 . S
C523 C522 1.498 . S
C523 C524 1.366 . S
C523 C528 1.407 . S
C524 C523 1.366 . S
C524 C525 1.392 . S
C524 H552 0.930 . S
C525 C524 1.392 . S
C525 C526 1.398 . S
C525 H553 0.929 . S
C526 C525 1.398 . S
C526 C527 1.352 . S
C527 C526 1.352 . S
C527 C528 1.384 . S
C527 H554 0.930 . S
C528 C523 1.407 . S
C528 C527 1.384 . S
C528 H555 0.929 . S
C529 O542 1.241 . S
C529 O543 1.273 . S
C530 O544 1.251 . S
C530 O545 1.268 . S
C531 Nd521 2.836 . S
C531 C532 1.498 . S
C531 O546 1.258 . S
C531 O547 1.239 . S
C532 C531 1.498 . S
C532 C533 1.366 . S
C532 C537 1.407 . S
C533 C532 1.366 . S
C533 C534 1.392 . S
C533 H556 0.930 . S
C534 C533 1.392 . S
C534 C535 1.398 . S
C534 H557 0.929 . S
C535 C534 1.398 . S
C535 C536 1.352 . S
C536 C535 1.352 . S
C536 C537 1.384 . S
C536 H558 0.930 . S
C537 C532 1.407 . S
C537 C536 1.384 . S
C537 H559 0.929 . S
C538 O548 1.241 . S
C538 O549 1.273 . S
C539 O550 1.251 . S
C539 O551 1.268 . S
O540 Nd520 2.500 . S
O540 C522 1.258 . S
O541 Nd520 2.492 . S
O541 C522 1.239 . S
O542 Nd520 2.487 . S
O542 C529 1.241 . S
O543 Nd520 2.682 . S
O543 Nd521 2.414 . S
O543 C529 1.273 . S
O544 Nd520 2.410 . S
O544 C530 1.251 . S
O545 Nd521 2.424 . S
O545 C530 1.268 . S
O546 Nd521 2.500 . S
O546 C531 1.258 . S
O547 Nd521 2.492 . S
O547 C531 1.239 . S
O548 Nd521 2.487 . S
O548 C538 1.241 . S
O549 Nd520 2.414 . S
O549 Nd521 2.682 . S
O549 C538 1.273 . S
O550 Nd521 2.410 . S
O550 C539 1.251 . S
O551 Nd520 2.424 . S
O551 C539 1.268 . S
H552 C524 0.930 . S
H553 C525 0.929 . S
H554 C527 0.930 . S
H555 C528 0.929 . S
H556 C533 0.930 . S
H557 C534 0.929 . S
H558 C536 0.930 . S
H559 C537 0.929 . S
Nd560 C562 2.836 . S
Nd560 O580 2.500 . S
Nd560 O581 2.492 . S
Nd560 O582 2.487 . S
Nd560 O583 2.682 . S
Nd560 O584 2.410 . S
Nd560 O589 2.414 . S
Nd560 O591 2.424 . S
Nd561 C571 2.836 . S
Nd561 O583 2.414 . S
Nd561 O585 2.424 . S
Nd561 O586 2.500 . S
Nd561 O587 2.492 . S
Nd561 O588 2.487 . S
Nd561 O589 2.682 . S
Nd561 O590 2.410 . S
C562 Nd560 2.836 . S
C562 C563 1.498 . S
C562 O580 1.258 . S
C562 O581 1.239 . S
C563 C562 1.498 . S
C563 C564 1.366 . S
C563 C568 1.407 . S
C564 C563 1.366 . S
C564 C565 1.392 . S
C564 H592 0.930 . S
C565 C564 1.392 . S
C565 C566 1.393 1_554 S
C565 H593 0.929 1_554 S
C566 C565 1.393 1_556 S
C566 C567 1.333 1_556 S
C567 C566 1.333 1_554 S
C567 C568 1.384 . S
C567 H594 0.930 . S
C568 C563 1.407 . S
C568 C567 1.384 . S
C568 H595 0.929 . S
C569 O582 1.241 . S
C569 O583 1.273 . S
C570 O584 1.251 . S
C570 O585 1.268 . S
C571 Nd561 2.836 . S
C571 C572 1.498 . S
C571 O586 1.258 . S
C571 O587 1.239 . S
C572 C571 1.498 . S
C572 C573 1.366 . S
C572 C577 1.407 . S
C573 C572 1.366 . S
C573 C574 1.392 . S
C573 H596 0.930 . S
C574 C573 1.392 . S
C574 C575 1.398 . S
C574 H597 0.929 . S
C575 C574 1.398 . S
C575 C576 1.352 . S
C576 C575 1.352 . S
C576 C577 1.384 . S
C576 H598 0.930 . S
C577 C572 1.407 . S
C577 C576 1.384 . S
C577 H599 0.929 . S
C578 O588 1.241 . S
C578 O589 1.273 . S
C579 O590 1.251 . S
C579 O591 1.268 . S
O580 Nd560 2.500 . S
O580 C562 1.258 . S
O581 Nd560 2.492 . S
O581 C562 1.239 . S
O582 Nd560 2.487 . S
O582 C569 1.241 . S
O583 Nd560 2.682 . S
O583 Nd561 2.414 . S
O583 C569 1.273 . S
O584 Nd560 2.410 . S
O584 C570 1.251 . S
O585 Nd561 2.424 . S
O585 C570 1.268 . S
O586 Nd561 2.500 . S
O586 C571 1.258 . S
O587 Nd561 2.492 . S
O587 C571 1.239 . S
O588 Nd561 2.487 . S
O588 C578 1.241 . S
O589 Nd560 2.414 . S
O589 Nd561 2.682 . S
O589 C578 1.273 . S
O590 Nd561 2.410 . S
O590 C579 1.251 . S
O591 Nd560 2.424 . S
O591 C579 1.268 . S
H592 C564 0.930 . S
H593 C565 0.929 1_556 S
H594 C567 0.930 . S
H595 C568 0.929 . S
H596 C573 0.930 . S
H597 C574 0.929 . S
H598 C576 0.930 . S
H599 C577 0.929 . S
Nd600 C602 2.836 . S
Nd600 O620 2.500 . S
Nd600 O621 2.492 . S
Nd600 O622 2.487 . S
Nd600 O623 2.682 1_556 S
Nd600 O624 2.410 . S
Nd600 O629 2.414 . S
Nd600 O631 2.424 1_556 S
Nd601 C611 2.836 . S
Nd601 O623 2.414 . S
Nd601 O625 2.424 1_554 S
Nd601 O626 2.500 . S
Nd601 O627 2.492 . S
Nd601 O628 2.487 . S
Nd601 O629 2.682 1_554 S
Nd601 O630 2.410 . S
C602 Nd600 2.836 . S
C602 C603 1.498 . S
C602 O620 1.258 . S
C602 O621 1.239 . S
C603 C602 1.498 . S
C603 C604 1.366 . S
C603 C608 1.407 . S
C604 C603 1.366 . S
C604 C605 1.392 . S
C604 H632 0.930 . S
C605 C604 1.392 . S
C605 C606 1.398 . S
C605 H633 0.929 . S
C606 C605 1.398 . S
C606 C607 1.352 . S
C607 C606 1.352 . S
C607 C608 1.384 . S
C607 H634 0.930 . S
C608 C603 1.407 . S
C608 C607 1.384 . S
C608 H635 0.929 . S
C609 O622 1.241 1_554 S
C609 O623 1.273 . S
C610 O624 1.251 . S
C610 O625 1.268 . S
C611 Nd601 2.836 . S
C611 C612 1.498 . S
C611 O626 1.258 . S
C611 O627 1.239 . S
C612 C611 1.498 . S
C612 C613 1.366 . S
C612 C617 1.407 . S
C613 C612 1.366 . S
C613 C614 1.392 . S
C613 H636 0.930 . S
C614 C613 1.392 . S
C614 C615 1.398 . S
C614 H637 0.929 . S
C615 C614 1.398 . S
C615 C616 1.352 . S
C616 C615 1.352 . S
C616 C617 1.384 . S
C616 H638 0.930 . S
C617 C612 1.407 . S
C617 C616 1.384 . S
C617 H639 0.929 . S
C618 O628 1.241 1_556 S
C618 O629 1.273 . S
C619 O630 1.251 . S
C619 O631 1.268 . S
O620 Nd600 2.500 . S
O620 C602 1.258 . S
O621 Nd600 2.492 . S
O621 C602 1.239 . S
O622 Nd600 2.487 . S
O622 C609 1.241 1_556 S
O623 Nd600 2.682 1_554 S
O623 Nd601 2.414 . S
O623 C609 1.273 . S
O624 Nd600 2.410 . S
O624 C610 1.251 . S
O625 Nd601 2.424 1_556 S
O625 C610 1.268 . S
O626 Nd601 2.500 . S
O626 C611 1.258 . S
O627 Nd601 2.492 . S
O627 C611 1.239 . S
O628 Nd601 2.487 . S
O628 C618 1.241 1_554 S
O629 Nd600 2.414 . S
O629 Nd601 2.682 1_556 S
O629 C618 1.273 . S
O630 Nd601 2.410 . S
O630 C619 1.251 . S
O631 Nd600 2.424 1_554 S
O631 C619 1.268 . S
H632 C604 0.930 . S
H633 C605 0.929 . S
H634 C607 0.930 . S
H635 C608 0.929 . S
H636 C613 0.930 . S
H637 C614 0.929 . S
H638 C616 0.930 . S
H639 C617 0.929 . S
Nd640 C642 2.836 . S
Nd640 O660 2.500 . S
Nd640 O661 2.492 . S
Nd640 O662 2.487 . S
Nd640 O663 2.682 . S
Nd640 O664 2.410 . S
Nd640 O669 2.414 . S
Nd640 O671 2.424 . S
Nd641 C651 2.836 . S
Nd641 O663 2.414 . S
Nd641 O665 2.424 . S
Nd641 O666 2.500 . S
Nd641 O667 2.492 . S
Nd641 O668 2.487 . S
Nd641 O669 2.682 . S
Nd641 O670 2.410 . S
C642 Nd640 2.836 . S
C642 C643 1.498 . S
C642 O660 1.258 . S
C642 O661 1.239 . S
C643 C642 1.498 . S
C643 C644 1.366 . S
C643 C648 1.407 . S
C644 C643 1.366 . S
C644 C645 1.392 . S
C644 H672 0.930 . S
C645 C644 1.392 . S
C645 C646 1.398 . S
C645 H673 0.929 . S
C646 C645 1.398 . S
C646 C647 1.352 . S
C647 C646 1.352 . S
C647 C648 1.384 . S
C647 H674 0.930 . S
C648 C643 1.407 . S
C648 C647 1.384 . S
C648 H675 0.929 . S
C649 O662 1.241 . S
C649 O663 1.273 . S
C650 O664 1.251 . S
C650 O665 1.268 . S
C651 Nd641 2.836 . S
C651 C652 1.498 . S
C651 O666 1.258 . S
C651 O667 1.239 . S
C652 C651 1.498 . S
C652 C653 1.366 . S
C652 C657 1.407 . S
C653 C652 1.366 . S
C653 C654 1.392 . S
C653 H676 0.930 . S
C654 C653 1.392 . S
C654 C655 1.398 . S
C654 H677 0.929 . S
C655 C654 1.398 . S
C655 C656 1.352 . S
C656 C655 1.352 . S
C656 C657 1.384 . S
C656 H678 0.930 . S
C657 C652 1.407 . S
C657 C656 1.384 . S
C657 H679 0.929 . S
C658 O668 1.241 . S
C658 O669 1.273 . S
C659 O670 1.251 . S
C659 O671 1.268 . S
O660 Nd640 2.500 . S
O660 C642 1.258 . S
O661 Nd640 2.492 . S
O661 C642 1.239 . S
O662 Nd640 2.487 . S
O662 C649 1.241 . S
O663 Nd640 2.682 . S
O663 Nd641 2.414 . S
O663 C649 1.273 . S
O664 Nd640 2.410 . S
O664 C650 1.251 . S
O665 Nd641 2.424 . S
O665 C650 1.268 . S
O666 Nd641 2.500 . S
O666 C651 1.258 . S
O667 Nd641 2.492 . S
O667 C651 1.239 . S
O668 Nd641 2.487 . S
O668 C658 1.241 . S
O669 Nd640 2.414 . S
O669 Nd641 2.682 . S
O669 C658 1.273 . S
O670 Nd641 2.410 . S
O670 C659 1.251 . S
O671 Nd640 2.424 . S
O671 C659 1.268 . S
H672 C644 0.930 . S
H673 C645 0.929 . S
H674 C647 0.930 . S
H675 C648 0.929 . S
H676 C653 0.930 . S
H677 C654 0.929 . S
H678 C656 0.930 . S
H679 C657 0.929 . S
Nd680 C682 2.836 . S
Nd680 O700 2.500 . S
Nd680 O701 2.492 . S
Nd680 O702 2.487 . S
Nd680 O703 2.682 . S
Nd680 O704 2.410 . S
Nd680 O709 2.414 . S
Nd680 O711 2.424 . S
Nd681 C691 2.836 . S
Nd681 O703 2.414 . S
Nd681 O705 2.424 . S
Nd681 O706 2.500 . S
Nd681 O707 2.492 . S
Nd681 O708 2.487 . S
Nd681 O709 2.682 . S
Nd681 O710 2.410 . S
C682 Nd680 2.836 . S
C682 C683 1.498 . S
C682 O700 1.258 . S
C682 O701 1.239 . S
C683 C682 1.498 . S
C683 C684 1.366 . S
C683 C688 1.407 . S
C684 C683 1.366 . S
C684 C685 1.392 . S
C684 H712 0.930 . S
C685 C684 1.392 . S
C685 C686 1.398 . S
C685 H713 0.929 . S
C686 C685 1.398 . S
C686 C687 1.352 . S
C687 C686 1.352 . S
C687 C688 1.384 . S
C687 H714 0.930 . S
C688 C683 1.407 . S
C688 C687 1.384 . S
C688 H715 0.929 . S
C689 O702 1.241 . S
C689 O703 1.273 . S
C690 O704 1.251 . S
C690 O705 1.268 . S
C691 Nd681 2.836 . S
C691 C692 1.498 1_556 S
C691 O706 1.258 . S
C691 O707 1.239 . S
C692 C691 1.498 1_554 S
C692 C693 1.366 . S
C692 C697 1.407 . S
C693 C692 1.366 . S
C693 C694 1.392 . S
C693 H716 0.930 . S
C694 C693 1.392 . S
C694 C695 1.398 . S
C694 H717 0.929 . S
C695 C694 1.398 . S
C695 C696 1.352 . S
C696 C695 1.352 . S
C696 C697 1.384 . S
C696 H718 0.930 . S
C697 C692 1.407 . S
C697 C696 1.384 . S
C697 H719 0.929 . S
C698 O708 1.241 . S
C698 O709 1.273 . S
C699 O710 1.251 . S
C699 O711 1.268 . S
O700 Nd680 2.500 . S
O700 C682 1.258 . S
O701 Nd680 2.492 . S
O701 C682 1.239 . S
O702 Nd680 2.487 . S
O702 C689 1.241 . S
O703 Nd680 2.682 . S
O703 Nd681 2.414 . S
O703 C689 1.273 . S
O704 Nd680 2.410 . S
O704 C690 1.251 . S
O705 Nd681 2.424 . S
O705 C690 1.268 . S
O706 Nd681 2.500 . S
O706 C691 1.258 . S
O707 Nd681 2.492 . S
O707 C691 1.239 . S
O708 Nd681 2.487 . S
O708 C698 1.241 . S
O709 Nd680 2.414 . S
O709 Nd681 2.682 . S
O709 C698 1.273 . S
O710 Nd681 2.410 . S
O710 C699 1.251 . S
O711 Nd680 2.424 . S
O711 C699 1.268 . S
H712 C684 0.930 . S
H713 C685 0.929 . S
H714 C687 0.930 . S
H715 C688 0.929 . S
H716 C693 0.930 . S
H717 C694 0.929 . S
H718 C696 0.930 . S
H719 C697 0.929 . S
Nd720 C722 2.836 1_554 S
Nd720 O740 2.500 1_554 S
Nd720 O741 2.492 1_554 S
Nd720 O742 2.487 . S
Nd720 O743 2.682 . S
Nd720 O744 2.410 . S
Nd720 O749 2.414 . S
Nd720 O751 2.424 . S
Nd721 C731 2.836 . S
Nd721 O743 2.414 . S
Nd721 O745 2.424 . S
Nd721 O746 2.500 . S
Nd721 O747 2.492 1_655 S
Nd721 O748 2.487 1_655 S
Nd721 O749 2.682 . S
Nd721 O750 2.410 . S
C722 Nd720 2.836 1_556 S
C722 C723 1.498 . S
C722 O740 1.258 . S
C722 O741 1.239 . S
C723 C722 1.498 . S
C723 C724 1.366 . S
C723 C728 1.407 . S
C724 C723 1.366 . S
C724 C725 1.392 . S
C724 H752 0.930 . S
C725 C724 1.392 . S
C725 C726 1.398 . S
C725 H753 0.929 . S
C726 C725 1.398 . S
C726 C727 1.352 . S
C727 C726 1.352 . S
C727 C728 1.384 . S
C727 H754 0.930 . S
C728 C723 1.407 . S
C728 C727 1.384 . S
C728 H755 0.929 . S
C729 O742 1.241 . S
C729 O743 1.273 . S
C730 O744 1.251 . S
C730 O745 1.268 . S
C731 Nd721 2.836 . S
C731 C732 1.498 . S
C731 O746 1.258 . S
C731 O747 1.239 1_655 S
C732 C731 1.498 . S
C732 C733 1.366 . S
C732 C737 1.407 1_655 S
C733 C732 1.366 . S
C733 C734 1.392 . S
C733 H756 0.930 . S
C734 C733 1.392 . S
C734 C735 1.398 1_655 S
C734 H757 0.929 . S
C735 C734 1.398 1_455 S
C735 C736 1.352 . S
C736 C735 1.352 . S
C736 C737 1.384 . S
C736 H758 0.930 . S
C737 C732 1.407 1_455 S
C737 C736 1.384 . S
C737 H759 0.929 . S
C738 O748 1.241 1_655 S
C738 O749 1.273 . S
C739 O750 1.251 . S
C739 O751 1.268 . S
O740 Nd720 2.500 1_556 S
O740 C722 1.258 . S
O741 Nd720 2.492 1_556 S
O741 C722 1.239 . S
O742 Nd720 2.487 . S
O742 C729 1.241 . S
O743 Nd720 2.682 . S
O743 Nd721 2.414 . S
O743 C729 1.273 . S
O744 Nd720 2.410 . S
O744 C730 1.251 . S
O745 Nd721 2.424 . S
O745 C730 1.268 . S
O746 Nd721 2.500 . S
O746 C731 1.258 . S
O747 Nd721 2.492 1_455 S
O747 C731 1.239 1_455 S
O748 Nd721 2.487 1_455 S
O748 C738 1.241 1_455 S
O749 Nd720 2.414 . S
O749 Nd721 2.682 . S
O749 C738 1.273 . S
O750 Nd721 2.410 . S
O750 C739 1.251 . S
O751 Nd720 2.424 . S
O751 C739 1.268 . S
H752 C724 0.930 . S
H753 C725 0.929 . S
H754 C727 0.930 . S
H755 C728 0.929 . S
H756 C733 0.930 . S
H757 C734 0.929 . S
H758 C736 0.930 . S
H759 C737 0.929 . S
Nd760 C762 2.836 . S
Nd760 O780 2.500 . S
Nd760 O781 2.492 . S
Nd760 O782 2.487 . S
Nd760 O783 2.682 . S
Nd760 O784 2.410 . S
Nd760 O789 2.414 . S
Nd760 O791 2.424 . S
Nd761 C771 2.836 . S
Nd761 O783 2.414 . S
Nd761 O785 2.424 . S
Nd761 O786 2.500 . S
Nd761 O787 2.492 . S
Nd761 O788 2.487 . S
Nd761 O789 2.682 . S
Nd761 O790 2.410 . S
C762 Nd760 2.836 . S
C762 C763 1.498 . S
C762 O780 1.258 . S
C762 O781 1.239 . S
C763 C762 1.498 . S
C763 C764 1.366 . S
C763 C768 1.407 . S
C764 C763 1.366 . S
C764 C765 1.392 . S
C764 H792 0.930 . S
C765 C764 1.392 . S
C765 C766 1.398 . S
C765 H793 0.929 . S
C766 C765 1.398 . S
C766 C767 1.352 . S
C767 C766 1.352 . S
C767 C768 1.384 . S
C767 H794 0.930 . S
C768 C763 1.407 . S
C768 C767 1.384 . S
C768 H795 0.929 . S
C769 O782 1.241 . S
C769 O783 1.273 . S
C770 O784 1.251 . S
C770 O785 1.268 . S
C771 Nd761 2.836 . S
C771 C772 1.498 . S
C771 O786 1.258 . S
C771 O787 1.239 . S
C772 C771 1.498 . S
C772 C773 1.366 . S
C772 C777 1.407 . S
C773 C772 1.366 . S
C773 C774 1.392 . S
C773 H796 0.930 . S
C774 C773 1.392 . S
C774 C775 1.398 . S
C774 H797 0.929 . S
C775 C774 1.398 . S
C775 C776 1.352 . S
C776 C775 1.352 . S
C776 C777 1.384 . S
C776 H798 0.930 . S
C777 C772 1.407 . S
C777 C776 1.384 . S
C777 H799 0.929 . S
C778 O788 1.241 . S
C778 O789 1.273 . S
C779 O790 1.251 . S
C779 O791 1.268 . S
O780 Nd760 2.500 . S
O780 C762 1.258 . S
O781 Nd760 2.492 . S
O781 C762 1.239 . S
O782 Nd760 2.487 . S
O782 C769 1.241 . S
O783 Nd760 2.682 . S
O783 Nd761 2.414 . S
O783 C769 1.273 . S
O784 Nd760 2.410 . S
O784 C770 1.251 . S
O785 Nd761 2.424 . S
O785 C770 1.268 . S
O786 Nd761 2.500 . S
O786 C771 1.258 . S
O787 Nd761 2.492 . S
O787 C771 1.239 . S
O788 Nd761 2.487 . S
O788 C778 1.241 . S
O789 Nd760 2.414 . S
O789 Nd761 2.682 . S
O789 C778 1.273 . S
O790 Nd761 2.410 . S
O790 C779 1.251 . S
O791 Nd760 2.424 . S
O791 C779 1.268 . S
H792 C764 0.930 . S
H793 C765 0.929 . S
H794 C767 0.930 . S
H795 C768 0.929 . S
H796 C773 0.930 . S
H797 C774 0.929 . S
H798 C776 0.930 . S
H799 C777 0.929 . S
Nd800 C802 2.836 1_544 S
Nd800 O820 2.500 1_554 S
Nd800 O821 2.492 1_544 S
Nd800 O822 2.487 1_545 S
Nd800 O823 2.682 . S
Nd800 O824 2.410 1_554 S
Nd800 O829 2.414 . S
Nd800 O831 2.424 . S
Nd801 C811 2.836 . S
Nd801 O823 2.414 . S
Nd801 O825 2.431 . S
Nd801 O826 2.500 . S
Nd801 O827 2.492 . S
Nd801 O828 2.487 . S
Nd801 O829 2.682 . S
Nd801 O830 2.410 . S
C802 Nd800 2.836 1_566 S
C802 C803 1.498 . S
C802 O820 1.258 1_565 S
C802 O821 1.239 . S
C803 C802 1.498 . S
C803 C804 1.366 . S
C803 C808 1.407 . S
C804 C803 1.366 . S
C804 C805 1.392 . S
C804 H832 0.930 1_565 S
C805 C804 1.392 . S
C805 C806 1.398 . S
C805 H833 0.929 . S
C806 C805 1.398 . S
C806 C807 1.352 . S
C807 C806 1.352 . S
C807 C808 1.384 . S
C807 H834 0.930 . S
C808 C803 1.407 . S
C808 C807 1.384 . S
C808 H835 0.929 . S
C809 O822 1.241 . S
C809 O823 1.273 1_565 S
C810 O824 1.251 . S
C810 O825 1.263 1_556 S
C811 Nd801 2.836 . S
C811 C812 1.498 . S
C811 O826 1.258 . S
C811 O827 1.239 . S
C812 C811 1.498 . S
C812 C813 1.366 . S
C812 C817 1.407 . S
C813 C812 1.366 . S
C813 C814 1.392 . S
C813 H836 0.930 . S
C814 C813 1.392 . S
C814 C815 1.398 . S
C814 H837 0.929 . S
C815 C814 1.398 . S
C815 C816 1.352 . S
C816 C815 1.352 . S
C816 C817 1.384 . S
C816 H838 0.930 . S
C817 C812 1.407 . S
C817 C816 1.384 . S
C817 H839 0.929 . S
C818 O828 1.241 . S
C818 O829 1.273 . S
C819 O830 1.251 . S
C819 O831 1.268 . S
O820 Nd800 2.500 1_556 S
O820 C802 1.258 1_545 S
O821 Nd800 2.492 1_566 S
O821 C802 1.239 . S
O822 Nd800 2.487 1_565 S
O822 C809 1.241 . S
O823 Nd800 2.682 . S
O823 Nd801 2.414 . S
O823 C809 1.273 1_545 S
O824 Nd800 2.410 1_556 S
O824 C810 1.251 . S
O825 Nd801 2.431 . S
O825 C810 1.263 1_554 S
O826 Nd801 2.500 . S
O826 C811 1.258 . S
O827 Nd801 2.492 . S
O827 C811 1.239 . S
O828 Nd801 2.487 . S
O828 C818 1.241 . S
O829 Nd800 2.414 . S
O829 Nd801 2.682 . S
O829 C818 1.273 . S
O830 Nd801 2.410 . S
O830 C819 1.251 . S
O831 Nd800 2.424 . S
O831 C819 1.268 . S
H832 C804 0.930 1_545 S
H833 C805 0.929 . S
H834 C807 0.930 . S
H835 C808 0.929 . S
H836 C813 0.930 . S
H837 C814 0.929 . S
H838 C816 0.930 . S
H839 C817 0.929 . S
Nd840 C842 2.836 . S
Nd840 O860 2.500 . S
Nd840 O861 2.492 . S
Nd840 O862 2.487 . S
Nd840 O863 2.682 . S
Nd840 O864 2.410 . S
Nd840 O869 2.414 . S
Nd840 O871 2.424 . S
Nd841 C851 2.836 . S
Nd841 O863 2.414 . S
Nd841 O865 2.424 . S
Nd841 O866 2.500 . S
Nd841 O867 2.492 . S
Nd841 O868 2.487 . S
Nd841 O869 2.682 . S
Nd841 O870 2.410 . S
C842 Nd840 2.836 . S
C842 C843 1.498 . S
C842 O860 1.258 . S
C842 O861 1.239 . S
C843 C842 1.498 . S
C843 C844 1.366 . S
C843 C848 1.407 . S
C844 C843 1.366 . S
C844 C845 1.392 . S
C844 H872 0.930 . S
C845 C844 1.392 . S
C845 C846 1.398 . S
C845 H873 0.929 . S
C846 C845 1.398 . S
C846 C847 1.352 . S
C847 C846 1.352 . S
C847 C848 1.384 . S
C847 H874 0.930 . S
C848 C843 1.407 . S
C848 C847 1.384 . S
C848 H875 0.929 . S
C849 O862 1.241 . S
C849 O863 1.273 . S
C850 O864 1.251 . S
C850 O865 1.268 . S
C851 Nd841 2.836 . S
C851 C852 1.498 . S
C851 O866 1.258 . S
C851 O867 1.239 . S
C852 C851 1.498 . S
C852 C853 1.366 . S
C852 C857 1.407 . S
C853 C852 1.366 . S
C853 C854 1.392 . S
C853 H876 0.930 . S
C854 C853 1.392 . S
C854 C855 1.398 . S
C854 H877 0.929 . S
C855 C854 1.398 . S
C855 C856 1.352 . S
C856 C855 1.352 . S
C856 C857 1.384 . S
C856 H878 0.930 . S
C857 C852 1.407 . S
C857 C856 1.384 . S
C857 H879 0.929 . S
C858 O868 1.241 . S
C858 O869 1.273 . S
C859 O870 1.251 . S
C859 O871 1.268 . S
O860 Nd840 2.500 . S
O860 C842 1.258 . S
O861 Nd840 2.492 . S
O861 C842 1.239 . S
O862 Nd840 2.487 . S
O862 C849 1.241 . S
O863 Nd840 2.682 . S
O863 Nd841 2.414 . S
O863 C849 1.273 . S
O864 Nd840 2.410 . S
O864 C850 1.251 . S
O865 Nd841 2.424 . S
O865 C850 1.268 . S
O866 Nd841 2.500 . S
O866 C851 1.258 . S
O867 Nd841 2.492 . S
O867 C851 1.239 . S
O868 Nd841 2.487 . S
O868 C858 1.241 . S
O869 Nd840 2.414 . S
O869 Nd841 2.682 . S
O869 C858 1.273 . S
O870 Nd841 2.410 . S
O870 C859 1.251 . S
O871 Nd840 2.424 . S
O871 C859 1.268 . S
H872 C844 0.930 . S
H873 C845 0.929 . S
H874 C847 0.930 . S
H875 C848 0.929 . S
H876 C853 0.930 . S
H877 C854 0.929 . S
H878 C856 0.930 . S
H879 C857 0.929 . S
Nd880 C882 2.836 1_565 S
Nd880 O900 2.500 . S
Nd880 O901 2.492 1_565 S
Nd880 O902 2.487 1_565 S
Nd880 O903 2.682 . S
Nd880 O904 2.410 . S
Nd880 O909 2.414 . S
Nd880 O911 2.424 . S
Nd881 C891 2.836 . S
Nd881 O903 2.414 . S
Nd881 O905 2.424 . S
Nd881 O906 2.500 . S
Nd881 O907 2.492 . S
Nd881 O908 2.487 . S
Nd881 O909 2.682 . S
Nd881 O910 2.410 . S
C882 Nd880 2.836 1_545 S
C882 C883 1.498 . S
C882 O900 1.258 1_545 S
C882 O901 1.239 . S
C883 C882 1.498 . S
C883 C884 1.366 . S
C883 C888 1.407 . S
C884 C883 1.366 . S
C884 C885 1.392 . S
C884 H912 0.930 1_545 S
C885 C884 1.392 . S
C885 C886 1.398 . S
C885 H913 0.929 . S
C886 C885 1.398 . S
C886 C887 1.352 . S
C887 C886 1.352 . S
C887 C888 1.384 . S
C887 H914 0.930 . S
C888 C883 1.407 . S
C888 C887 1.384 . S
C888 H915 0.929 . S
C889 O902 1.241 . S
C889 O903 1.273 1_545 S
C890 O904 1.251 . S
C890 O905 1.268 . S
C891 Nd881 2.836 . S
C891 C892 1.498 . S
C891 O906 1.258 . S
C891 O907 1.239 . S
C892 C891 1.498 . S
C892 C893 1.366 . S
C892 C897 1.407 . S
C893 C892 1.366 . S
C893 C894 1.392 . S
C893 H916 0.930 . S
C894 C893 1.392 . S
C894 C895 1.398 . S
C894 H917 0.929 . S
C895 C894 1.398 . S
C895 C896 1.352 . S
C896 C895 1.352 . S
C896 C897 1.384 . S
C896 H918 0.930 . S
C897 C892 1.407 . S
C897 C896 1.384 . S
C897 H919 0.929 . S
C898 O908 1.241 . S
C898 O909 1.273 . S
C899 O910 1.251 . S
C899 O911 1.268 . S
O900 Nd880 2.500 . S
O900 C882 1.258 1_565 S
O901 Nd880 2.492 1_545 S
O901 C882 1.239 . S
O902 Nd880 2.487 1_545 S
O902 C889 1.241 . S
O903 Nd880 2.682 . S
O903 Nd881 2.414 . S
O903 C889 1.273 1_565 S
O904 Nd880 2.410 . S
O904 C890 1.251 . S
O905 Nd881 2.424 . S
O905 C890 1.268 . S
O906 Nd881 2.500 . S
O906 C891 1.258 . S
O907 Nd881 2.492 . S
O907 C891 1.239 . S
O908 Nd881 2.487 . S
O908 C898 1.241 . S
O909 Nd880 2.414 . S
O909 Nd881 2.682 . S
O909 C898 1.273 . S
O910 Nd881 2.410 . S
O910 C899 1.251 . S
O911 Nd880 2.424 . S
O911 C899 1.268 . S
H912 C884 0.930 1_565 S
H913 C885 0.929 . S
H914 C887 0.930 . S
H915 C888 0.929 . S
H916 C893 0.930 . S
H917 C894 0.929 . S
H918 C896 0.930 . S
H919 C897 0.929 . S
Nd920 C922 2.836 . S
Nd920 O940 2.500 . S
Nd920 O941 2.492 . S
Nd920 O942 2.487 . S
Nd920 O943 2.682 . S
Nd920 O944 2.410 . S
Nd920 O949 2.414 . S
Nd920 O951 2.424 . S
Nd921 C931 2.836 . S
Nd921 O943 2.414 . S
Nd921 O945 2.424 . S
Nd921 O946 2.500 . S
Nd921 O947 2.492 . S
Nd921 O948 2.487 . S
Nd921 O949 2.682 . S
Nd921 O950 2.410 . S
C922 Nd920 2.836 . S
C922 C923 1.498 . S
C922 O940 1.258 . S
C922 O941 1.239 . S
C923 C922 1.498 . S
C923 C924 1.366 . S
C923 C928 1.407 . S
C924 C923 1.366 . S
C924 C925 1.392 . S
C924 H952 0.930 . S
C925 C924 1.392 . S
C925 C926 1.398 . S
C925 H953 0.929 . S
C926 C925 1.398 . S
C926 C927 1.352 . S
C927 C926 1.352 . S
C927 C928 1.384 . S
C927 H954 0.930 . S
C928 C923 1.407 . S
C928 C927 1.384 . S
C928 H955 0.929 . S
C929 O942 1.241 . S
C929 O943 1.273 . S
C930 O944 1.251 . S
C930 O945 1.268 . S
C931 Nd921 2.836 . S
C931 C932 1.498 . S
C931 O946 1.258 . S
C931 O947 1.239 . S
C932 C931 1.498 . S
C932 C933 1.366 . S
C932 C937 1.407 . S
C933 C932 1.366 . S
C933 C934 1.392 1_556 S
C933 H956 0.930 . S
C934 C933 1.392 1_554 S
C934 C935 1.398 . S
C934 H957 0.929 . S
C935 C934 1.398 . S
C935 C936 1.352 . S
C936 C935 1.352 . S
C936 C937 1.384 1_554 S
C936 H958 0.930 . S
C937 C932 1.407 . S
C937 C936 1.384 1_556 S
C937 H959 0.929 . S
C938 O948 1.241 . S
C938 O949 1.273 . S
C939 O950 1.251 . S
C939 O951 1.268 . S
O940 Nd920 2.500 . S
O940 C922 1.258 . S
O941 Nd920 2.492 . S
O941 C922 1.239 . S
O942 Nd920 2.487 . S
O942 C929 1.241 . S
O943 Nd920 2.682 . S
O943 Nd921 2.414 . S
O943 C929 1.273 . S
O944 Nd920 2.410 . S
O944 C930 1.251 . S
O945 Nd921 2.424 . S
O945 C930 1.268 . S
O946 Nd921 2.500 . S
O946 C931 1.258 . S
O947 Nd921 2.492 . S
O947 C931 1.239 . S
O948 Nd921 2.487 . S
O948 C938 1.241 . S
O949 Nd920 2.414 . S
O949 Nd921 2.682 . S
O949 C938 1.273 . S
O950 Nd921 2.410 . S
O950 C939 1.251 . S
O951 Nd920 2.424 . S
O951 C939 1.268 . S
H952 C924 0.930 . S
H953 C925 0.929 . S
H954 C927 0.930 . S
H955 C928 0.929 . S
H956 C933 0.930 . S
H957 C934 0.929 . S
H958 C936 0.930 . S
H959 C937 0.929 . S
Nd960 C962 2.836 . S
Nd960 O980 2.500 . S
Nd960 O981 2.492 . S
Nd960 O982 2.487 . S
Nd960 O983 2.682 . S
Nd960 O984 2.410 . S
Nd960 O989 2.414 . S
Nd960 O991 2.424 . S
Nd961 C971 2.836 . S
Nd961 O983 2.414 . S
Nd961 O985 2.424 . S
Nd961 O986 2.500 . S
Nd961 O987 2.492 . S
Nd961 O988 2.487 . S
Nd961 O989 2.682 . S
Nd961 O990 2.410 . S
C962 Nd960 2.836 . S
C962 C963 1.498 . S
C962 O980 1.258 . S
C962 O981 1.239 . S
C963 C962 1.498 . S
C963 C964 1.366 . S
C963 C968 1.407 . S
C964 C963 1.366 . S
C964 C965 1.392 . S
C964 H992 0.930 . S
C965 C964 1.392 . S
C965 C966 1.398 . S
C965 H993 0.929 . S
C966 C965 1.398 . S
C966 C967 1.352 . S
C967 C966 1.352 . S
C967 C968 1.384 . S
C967 H994 0.930 . S
C968 C963 1.407 . S
C968 C967 1.384 . S
C968 H995 0.929 . S
C969 O982 1.241 . S
C969 O983 1.273 . S
C970 O984 1.251 . S
C970 O985 1.268 . S
C971 Nd961 2.836 . S
C971 C972 1.498 . S
C971 O986 1.258 . S
C971 O987 1.239 . S
C972 C971 1.498 . S
C972 C973 1.366 . S
C972 C977 1.407 . S
C973 C972 1.366 . S
C973 C974 1.392 . S
C973 H996 0.930 . S
C974 C973 1.392 . S
C974 C975 1.398 . S
C974 H997 0.929 . S
C975 C974 1.398 . S
C975 C976 1.352 . S
C976 C975 1.352 . S
C976 C977 1.384 . S
C976 H998 0.930 . S
C977 C972 1.407 . S
C977 C976 1.384 . S
C977 H999 0.929 . S
C978 O988 1.241 . S
C978 O989 1.273 . S
C979 O990 1.251 . S
C979 O991 1.268 . S
O980 Nd960 2.500 . S
O980 C962 1.258 . S
O981 Nd960 2.492 . S
O981 C962 1.239 . S
O982 Nd960 2.487 . S
O982 C969 1.241 . S
O983 Nd960 2.682 . S
O983 Nd961 2.414 . S
O983 C969 1.273 . S
O984 Nd960 2.410 . S
O984 C970 1.251 . S
O985 Nd961 2.424 . S
O985 C970 1.268 . S
O986 Nd961 2.500 . S
O986 C971 1.258 . S
O987 Nd961 2.492 . S
O987 C971 1.239 . S
O988 Nd961 2.487 . S
O988 C978 1.241 . S
O989 Nd960 2.414 . S
O989 Nd961 2.682 . S
O989 C978 1.273 . S
O990 Nd961 2.410 . S
O990 C979 1.251 . S
O991 Nd960 2.424 . S
O991 C979 1.268 . S
H992 C964 0.930 . S
H993 C965 0.929 . S
H994 C967 0.930 . S
H995 C968 0.929 . S
H996 C973 0.930 . S
H997 C974 0.929 . S
H998 C976 0.930 . S
H999 C977 0.929 . S
Nd1000 C1002 2.836 . S
Nd1000 O1020 2.500 . S
Nd1000 O1021 2.492 . S
Nd1000 O1022 2.487 . S
Nd1000 O1023 2.682 . S
Nd1000 O1024 2.410 . S
Nd1000 O1029 2.414 . S
Nd1000 O1031 2.424 . S
Nd1001 C1011 2.836 . S
Nd1001 O1023 2.414 . S
Nd1001 O1025 2.424 . S
Nd1001 O1026 2.500 . S
Nd1001 O1027 2.492 . S
Nd1001 O1028 2.487 . S
Nd1001 O1029 2.682 . S
Nd1001 O1030 2.410 . S
C1002 Nd1000 2.836 . S
C1002 C1003 1.498 . S
C1002 O1020 1.258 . S
C1002 O1021 1.239 . S
C1003 C1002 1.498 . S
C1003 C1004 1.366 . S
C1003 C1008 1.407 . S
C1004 C1003 1.366 . S
C1004 C1005 1.392 . S
C1004 H1032 0.930 . S
C1005 C1004 1.392 . S
C1005 C1006 1.398 . S
C1005 H1033 0.929 . S
C1006 C1005 1.398 . S
C1006 C1007 1.352 . S
C1007 C1006 1.352 . S
C1007 C1008 1.384 . S
C1007 H1034 0.930 . S
C1008 C1003 1.407 . S
C1008 C1007 1.384 . S
C1008 H1035 0.929 . S
C1009 O1022 1.241 . S
C1009 O1023 1.273 . S
C1010 O1024 1.251 . S
C1010 O1025 1.268 . S
C1011 Nd1001 2.836 . S
C1011 C1012 1.498 . S
C1011 O1026 1.258 . S
C1011 O1027 1.239 . S
C1012 C1011 1.498 . S
C1012 C1013 1.366 . S
C1012 C1017 1.407 . S
C1013 C1012 1.366 . S
C1013 C1014 1.392 . S
C1013 H1036 0.930 . S
C1014 C1013 1.392 . S
C1014 C1015 1.398 . S
C1014 H1037 0.929 . S
C1015 C1014 1.398 . S
C1015 C1016 1.352 . S
C1016 C1015 1.352 . S
C1016 C1017 1.384 . S
C1016 H1038 0.930 . S
C1017 C1012 1.407 . S
C1017 C1016 1.384 . S
C1017 H1039 0.929 . S
C1018 O1028 1.241 . S
C1018 O1029 1.273 . S
C1019 O1030 1.251 . S
C1019 O1031 1.268 . S
O1020 Nd1000 2.500 . S
O1020 C1002 1.258 . S
O1021 Nd1000 2.492 . S
O1021 C1002 1.239 . S
O1022 Nd1000 2.487 . S
O1022 C1009 1.241 . S
O1023 Nd1000 2.682 . S
O1023 Nd1001 2.414 . S
O1023 C1009 1.273 . S
O1024 Nd1000 2.410 . S
O1024 C1010 1.251 . S
O1025 Nd1001 2.424 . S
O1025 C1010 1.268 . S
O1026 Nd1001 2.500 . S
O1026 C1011 1.258 . S
O1027 Nd1001 2.492 . S
O1027 C1011 1.239 . S
O1028 Nd1001 2.487 . S
O1028 C1018 1.241 . S
O1029 Nd1000 2.414 . S
O1029 Nd1001 2.682 . S
O1029 C1018 1.273 . S
O1030 Nd1001 2.410 . S
O1030 C1019 1.251 . S
O1031 Nd1000 2.424 . S
O1031 C1019 1.268 . S
H1032 C1004 0.930 . S
H1033 C1005 0.929 . S
H1034 C1007 0.930 . S
H1035 C1008 0.929 . S
H1036 C1013 0.930 . S
H1037 C1014 0.929 . S
H1038 C1016 0.930 . S
H1039 C1017 0.929 . S
Nd1040 C1042 2.836 . S
Nd1040 O1060 2.500 . S
Nd1040 O1061 2.492 1_455 S
Nd1040 O1062 2.487 1_455 S
Nd1040 O1063 2.682 . S
Nd1040 O1064 2.410 . S
Nd1040 O1069 2.414 . S
Nd1040 O1071 2.424 . S
Nd1041 C1051 2.836 . S
Nd1041 O1063 2.414 . S
Nd1041 O1065 2.424 . S
Nd1041 O1066 2.500 . S
Nd1041 O1067 2.492 . S
Nd1041 O1068 2.487 . S
Nd1041 O1069 2.682 . S
Nd1041 O1070 2.410 . S
C1042 Nd1040 2.836 . S
C1042 C1043 1.498 . S
C1042 O1060 1.258 . S
C1042 O1061 1.239 1_455 S
C1043 C1042 1.498 . S
C1043 C1044 1.366 . S
C1043 C1048 1.407 1_455 S
C1044 C1043 1.366 . S
C1044 C1045 1.392 1_554 S
C1044 H1072 0.930 . S
C1045 C1044 1.392 1_556 S
C1045 C1046 1.398 1_455 S
C1045 H1073 0.929 . S
C1046 C1045 1.398 1_655 S
C1046 C1047 1.352 . S
C1047 C1046 1.352 . S
C1047 C1048 1.384 1_556 S
C1047 H1074 0.930 . S
C1048 C1043 1.407 1_655 S
C1048 C1047 1.384 1_554 S
C1048 H1075 0.929 . S
C1049 O1062 1.241 1_455 S
C1049 O1063 1.273 . S
C1050 O1064 1.251 . S
C1050 O1065 1.268 . S
C1051 Nd1041 2.836 . S
C1051 C1052 1.498 . S
C1051 O1066 1.258 . S
C1051 O1067 1.239 . S
C1052 C1051 1.498 . S
C1052 C1053 1.366 . S
C1052 C1057 1.407 . S
C1053 C1052 1.366 . S
C1053 C1054 1.392 . S
C1053 H1076 0.930 . S
C1054 C1053 1.392 . S
C1054 C1055 1.398 . S
C1054 H1077 0.929 . S
C1055 C1054 1.398 . S
C1055 C1056 1.352 . S
C1056 C1055 1.352 . S
C1056 C1057 1.384 . S
C1056 H1078 0.930 . S
C1057 C1052 1.407 . S
C1057 C1056 1.384 . S
C1057 H1079 0.929 . S
C1058 O1068 1.241 . S
C1058 O1069 1.273 . S
C1059 O1070 1.251 . S
C1059 O1071 1.268 . S
O1060 Nd1040 2.500 . S
O1060 C1042 1.258 . S
O1061 Nd1040 2.492 1_655 S
O1061 C1042 1.239 1_655 S
O1062 Nd1040 2.487 1_655 S
O1062 C1049 1.241 1_655 S
O1063 Nd1040 2.682 . S
O1063 Nd1041 2.414 . S
O1063 C1049 1.273 . S
O1064 Nd1040 2.410 . S
O1064 C1050 1.251 . S
O1065 Nd1041 2.424 . S
O1065 C1050 1.268 . S
O1066 Nd1041 2.500 . S
O1066 C1051 1.258 . S
O1067 Nd1041 2.492 . S
O1067 C1051 1.239 . S
O1068 Nd1041 2.487 . S
O1068 C1058 1.241 . S
O1069 Nd1040 2.414 . S
O1069 Nd1041 2.682 . S
O1069 C1058 1.273 . S
O1070 Nd1041 2.410 . S
O1070 C1059 1.251 . S
O1071 Nd1040 2.424 . S
O1071 C1059 1.268 . S
H1072 C1044 0.930 . S
H1073 C1045 0.929 . S
H1074 C1047 0.930 . S
H1075 C1048 0.929 . S
H1076 C1053 0.930 . S
H1077 C1054 0.929 . S
H1078 C1056 0.930 . S
H1079 C1057 0.929 . S
Nd1080 C1082 2.836 . S
Nd1080 O1100 2.500 . S
Nd1080 O1101 2.492 . S
Nd1080 O1102 2.487 . S
Nd1080 O1103 2.682 . S
Nd1080 O1104 2.410 . S
Nd1080 O1109 2.414 . S
Nd1080 O1111 2.424 . S
Nd1081 C1091 2.836 1_556 S
Nd1081 O1103 2.414 . S
Nd1081 O1105 2.424 . S
Nd1081 O1106 2.500 1_556 S
Nd1081 O1107 2.492 1_556 S
Nd1081 O1108 2.487 . S
Nd1081 O1109 2.682 . S
Nd1081 O1110 2.410 1_556 S
C1082 Nd1080 2.836 . S
C1082 C1083 1.498 . S
C1082 O1100 1.258 . S
C1082 O1101 1.239 . S
C1083 C1082 1.498 . S
C1083 C1084 1.366 . S
C1083 C1088 1.407 . S
C1084 C1083 1.366 . S
C1084 C1085 1.392 . S
C1084 H1112 0.930 . S
C1085 C1084 1.392 . S
C1085 C1086 1.398 . S
C1085 H1113 0.929 . S
C1086 C1085 1.398 . S
C1086 C1087 1.352 . S
C1087 C1086 1.352 . S
C1087 C1088 1.384 . S
C1087 H1114 0.930 . S
C1088 C1083 1.407 . S
C1088 C1087 1.384 . S
C1088 H1115 0.929 . S
C1089 O1102 1.241 . S
C1089 O1103 1.273 . S
C1090 O1104 1.251 . S
C1090 O1105 1.268 . S
C1091 Nd1081 2.836 1_554 S
C1091 C1092 1.498 . S
C1091 O1106 1.258 . S
C1091 O1107 1.239 . S
C1092 C1091 1.498 . S
C1092 C1093 1.366 . S
C1092 C1097 1.407 . S
C1093 C1092 1.366 . S
C1093 C1094 1.392 . S
C1093 H1116 0.930 . S
C1094 C1093 1.392 . S
C1094 C1095 1.398 . S
C1094 H1117 0.929 . S
C1095 C1094 1.398 . S
C1095 C1096 1.352 . S
C1096 C1095 1.352 . S
C1096 C1097 1.384 . S
C1096 H1118 0.930 . S
C1097 C1092 1.407 . S
C1097 C1096 1.384 . S
C1097 H1119 0.929 . S
C1098 O1108 1.241 . S
C1098 O1109 1.273 . S
C1099 O1110 1.251 . S
C1099 O1111 1.268 1_554 S
O1100 Nd1080 2.500 . S
O1100 C1082 1.258 . S
O1101 Nd1080 2.492 . S
O1101 C1082 1.239 . S
O1102 Nd1080 2.487 . S
O1102 C1089 1.241 . S
O1103 Nd1080 2.682 . S
O1103 Nd1081 2.414 . S
O1103 C1089 1.273 . S
O1104 Nd1080 2.410 . S
O1104 C1090 1.251 . S
O1105 Nd1081 2.424 . S
O1105 C1090 1.268 . S
O1106 Nd1081 2.500 1_554 S
O1106 C1091 1.258 . S
O1107 Nd1081 2.492 1_554 S
O1107 C1091 1.239 . S
O1108 Nd1081 2.487 . S
O1108 C1098 1.241 . S
O1109 Nd1080 2.414 . S
O1109 Nd1081 2.682 . S
O1109 C1098 1.273 . S
O1110 Nd1081 2.410 1_554 S
O1110 C1099 1.251 . S
O1111 Nd1080 2.424 . S
O1111 C1099 1.268 1_556 S
H1112 C1084 0.930 . S
H1113 C1085 0.929 . S
H1114 C1087 0.930 . S
H1115 C1088 0.929 . S
H1116 C1093 0.930 . S
H1117 C1094 0.929 . S
H1118 C1096 0.930 . S
H1119 C1097 0.929 . S
Nd1120 C1122 2.836 . S
Nd1120 O1140 2.500 . S
Nd1120 O1141 2.492 . S
Nd1120 O1142 2.487 . S
Nd1120 O1143 2.682 . S
Nd1120 O1144 2.410 . S
Nd1120 O1149 2.414 . S
Nd1120 O1151 2.424 . S
Nd1121 C1131 2.836 1_565 S
Nd1121 O1143 2.414 . S
Nd1121 O1145 2.424 . S
Nd1121 O1146 2.500 . S
Nd1121 O1147 2.492 1_565 S
Nd1121 O1148 2.487 1_565 S
Nd1121 O1149 2.682 . S
Nd1121 O1150 2.410 . S
C1122 Nd1120 2.836 . S
C1122 C1123 1.498 . S
C1122 O1140 1.258 . S
C1122 O1141 1.239 . S
C1123 C1122 1.498 . S
C1123 C1124 1.366 . S
C1123 C1128 1.407 . S
C1124 C1123 1.366 . S
C1124 C1125 1.392 . S
C1124 H1152 0.930 . S
C1125 C1124 1.392 . S
C1125 C1126 1.393 1_554 S
C1125 H1153 0.929 1_554 S
C1126 C1125 1.393 1_556 S
C1126 C1127 1.333 1_556 S
C1127 C1126 1.333 1_554 S
C1127 C1128 1.384 . S
C1127 H1154 0.930 . S
C1128 C1123 1.407 . S
C1128 C1127 1.384 . S
C1128 H1155 0.929 . S
C1129 O1142 1.241 . S
C1129 O1143 1.273 . S
C1130 O1144 1.251 . S
C1130 O1145 1.268 . S
C1131 Nd1121 2.836 1_545 S
C1131 C1132 1.498 . S
C1131 O1146 1.258 1_545 S
C1131 O1147 1.239 . S
C1132 C1131 1.498 . S
C1132 C1133 1.366 . S
C1132 C1137 1.407 . S
C1133 C1132 1.366 . S
C1133 C1134 1.392 . S
C1133 H1156 0.930 1_545 S
C1134 C1133 1.392 . S
C1134 C1135 1.398 . S
C1134 H1157 0.929 . S
C1135 C1134 1.398 . S
C1135 C1136 1.352 . S
C1136 C1135 1.352 . S
C1136 C1137 1.384 . S
C1136 H1158 0.930 . S
C1137 C1132 1.407 . S
C1137 C1136 1.384 . S
C1137 H1159 0.929 . S
C1138 O1148 1.241 . S
C1138 O1149 1.273 1_545 S
C1139 O1150 1.251 . S
C1139 O1151 1.268 . S
O1140 Nd1120 2.500 . S
O1140 C1122 1.258 . S
O1141 Nd1120 2.492 . S
O1141 C1122 1.239 . S
O1142 Nd1120 2.487 . S
O1142 C1129 1.241 . S
O1143 Nd1120 2.682 . S
O1143 Nd1121 2.414 . S
O1143 C1129 1.273 . S
O1144 Nd1120 2.410 . S
O1144 C1130 1.251 . S
O1145 Nd1121 2.424 . S
O1145 C1130 1.268 . S
O1146 Nd1121 2.500 . S
O1146 C1131 1.258 1_565 S
O1147 Nd1121 2.492 1_545 S
O1147 C1131 1.239 . S
O1148 Nd1121 2.487 1_545 S
O1148 C1138 1.241 . S
O1149 Nd1120 2.414 . S
O1149 Nd1121 2.682 . S
O1149 C1138 1.273 1_565 S
O1150 Nd1121 2.410 . S
O1150 C1139 1.251 . S
O1151 Nd1120 2.424 . S
O1151 C1139 1.268 . S
H1152 C1124 0.930 . S
H1153 C1125 0.929 1_556 S
H1154 C1127 0.930 . S
H1155 C1128 0.929 . S
H1156 C1133 0.930 1_565 S
H1157 C1134 0.929 . S
H1158 C1136 0.930 . S
H1159 C1137 0.929 . S
Nd1160 C1162 2.836 . S
Nd1160 O1180 2.500 . S
Nd1160 O1181 2.492 . S
Nd1160 O1182 2.487 . S
Nd1160 O1183 2.682 1_556 S
Nd1160 O1184 2.410 . S
Nd1160 O1189 2.414 . S
Nd1160 O1191 2.424 1_556 S
Nd1161 C1171 2.836 . S
Nd1161 O1183 2.414 . S
Nd1161 O1185 2.424 1_554 S
Nd1161 O1186 2.500 . S
Nd1161 O1187 2.492 . S
Nd1161 O1188 2.487 . S
Nd1161 O1189 2.682 1_554 S
Nd1161 O1190 2.410 . S
C1162 Nd1160 2.836 . S
C1162 C1163 1.498 . S
C1162 O1180 1.258 . S
C1162 O1181 1.239 . S
C1163 C1162 1.498 . S
C1163 C1164 1.366 . S
C1163 C1168 1.407 . S
C1164 C1163 1.366 . S
C1164 C1165 1.392 . S
C1164 H1192 0.930 . S
C1165 C1164 1.392 . S
C1165 C1166 1.398 . S
C1165 H1193 0.929 . S
C1166 C1165 1.398 . S
C1166 C1167 1.352 . S
C1167 C1166 1.352 . S
C1167 C1168 1.384 . S
C1167 H1194 0.930 . S
C1168 C1163 1.407 . S
C1168 C1167 1.384 . S
C1168 H1195 0.929 . S
C1169 O1182 1.241 1_554 S
C1169 O1183 1.273 . S
C1170 O1184 1.251 . S
C1170 O1185 1.268 . S
C1171 Nd1161 2.836 . S
C1171 C1172 1.498 . S
C1171 O1186 1.258 . S
C1171 O1187 1.239 . S
C1172 C1171 1.498 . S
C1172 C1173 1.366 . S
C1172 C1177 1.407 . S
C1173 C1172 1.366 . S
C1173 C1174 1.392 . S
C1173 H1196 0.930 . S
C1174 C1173 1.392 . S
C1174 C1175 1.398 . S
C1174 H1197 0.929 . S
C1175 C1174 1.398 . S
C1175 C1176 1.352 . S
C1176 C1175 1.352 . S
C1176 C1177 1.384 . S
C1176 H1198 0.930 . S
C1177 C1172 1.407 . S
C1177 C1176 1.384 . S
C1177 H1199 0.929 . S
C1178 O1188 1.241 1_556 S
C1178 O1189 1.273 . S
C1179 O1190 1.251 . S
C1179 O1191 1.268 . S
O1180 Nd1160 2.500 . S
O1180 C1162 1.258 . S
O1181 Nd1160 2.492 . S
O1181 C1162 1.239 . S
O1182 Nd1160 2.487 . S
O1182 C1169 1.241 1_556 S
O1183 Nd1160 2.682 1_554 S
O1183 Nd1161 2.414 . S
O1183 C1169 1.273 . S
O1184 Nd1160 2.410 . S
O1184 C1170 1.251 . S
O1185 Nd1161 2.424 1_556 S
O1185 C1170 1.268 . S
O1186 Nd1161 2.500 . S
O1186 C1171 1.258 . S
O1187 Nd1161 2.492 . S
O1187 C1171 1.239 . S
O1188 Nd1161 2.487 . S
O1188 C1178 1.241 1_554 S
O1189 Nd1160 2.414 . S
O1189 Nd1161 2.682 1_556 S
O1189 C1178 1.273 . S
O1190 Nd1161 2.410 . S
O1190 C1179 1.251 . S
O1191 Nd1160 2.424 1_554 S
O1191 C1179 1.268 . S
H1192 C1164 0.930 . S
H1193 C1165 0.929 . S
H1194 C1167 0.930 . S
H1195 C1168 0.929 . S
H1196 C1173 0.930 . S
H1197 C1174 0.929 . S
H1198 C1176 0.930 . S
H1199 C1177 0.929 . S
Nd1200 C1202 2.836 . S
Nd1200 O1220 2.500 . S
Nd1200 O1221 2.492 . S
Nd1200 O1222 2.487 . S
Nd1200 O1223 2.682 . S
Nd1200 O1224 2.410 . S
Nd1200 O1229 2.414 . S
Nd1200 O1231 2.424 . S
Nd1201 C1211 2.836 1_545 S
Nd1201 O1223 2.414 . S
Nd1201 O1225 2.424 . S
Nd1201 O1226 2.500 . S
Nd1201 O1227 2.492 1_545 S
Nd1201 O1228 2.487 1_545 S
Nd1201 O1229 2.682 . S
Nd1201 O1230 2.410 . S
C1202 Nd1200 2.836 . S
C1202 C1203 1.498 . S
C1202 O1220 1.258 . S
C1202 O1221 1.239 . S
C1203 C1202 1.498 . S
C1203 C1204 1.366 . S
C1203 C1208 1.407 . S
C1204 C1203 1.366 . S
C1204 C1205 1.392 . S
C1204 H1232 0.930 . S
C1205 C1204 1.392 . S
C1205 C1206 1.398 . S
C1205 H1233 0.929 . S
C1206 C1205 1.398 . S
C1206 C1207 1.352 . S
C1207 C1206 1.352 . S
C1207 C1208 1.384 . S
C1207 H1234 0.930 . S
C1208 C1203 1.407 . S
C1208 C1207 1.384 . S
C1208 H1235 0.929 . S
C1209 O1222 1.241 . S
C1209 O1223 1.273 . S
C1210 O1224 1.251 . S
C1210 O1225 1.268 . S
C1211 Nd1201 2.836 1_565 S
C1211 C1212 1.498 . S
C1211 O1226 1.258 1_565 S
C1211 O1227 1.239 . S
C1212 C1211 1.498 . S
C1212 C1213 1.366 . S
C1212 C1217 1.407 . S
C1213 C1212 1.366 . S
C1213 C1214 1.392 . S
C1213 H1236 0.930 1_565 S
C1214 C1213 1.392 . S
C1214 C1215 1.396 1_556 S
C1214 H1237 0.929 1_556 S
C1215 C1214 1.396 1_554 S
C1215 C1216 1.343 1_554 S
C1216 C1215 1.343 1_556 S
C1216 C1217 1.384 . S
C1216 H1238 0.930 . S
C1217 C1212 1.407 . S
C1217 C1216 1.384 . S
C1217 H1239 0.929 . S
C1218 O1228 1.241 . S
C1218 O1229 1.273 1_565 S
C1219 O1230 1.251 . S
C1219 O1231 1.268 . S
O1220 Nd1200 2.500 . S
O1220 C1202 1.258 . S
O1221 Nd1200 2.492 . S
O1221 C1202 1.239 . S
O1222 Nd1200 2.487 . S
O1222 C1209 1.241 . S
O1223 Nd1200 2.682 . S
O1223 Nd1201 2.414 . S
O1223 C1209 1.273 . S
O1224 Nd1200 2.410 . S
O1224 C1210 1.251 . S
O1225 Nd1201 2.424 . S
O1225 C1210 1.268 . S
O1226 Nd1201 2.500 . S
O1226 C1211 1.258 1_545 S
O1227 Nd1201 2.492 1_565 S
O1227 C1211 1.239 . S
O1228 Nd1201 2.487 1_565 S
O1228 C1218 1.241 . S
O1229 Nd1200 2.414 . S
O1229 Nd1201 2.682 . S
O1229 C1218 1.273 1_545 S
O1230 Nd1201 2.410 . S
O1230 C1219 1.251 . S
O1231 Nd1200 2.424 . S
O1231 C1219 1.268 . S
H1232 C1204 0.930 . S
H1233 C1205 0.929 . S
H1234 C1207 0.930 . S
H1235 C1208 0.929 . S
H1236 C1213 0.930 1_545 S
H1237 C1214 0.929 1_554 S
H1238 C1216 0.930 . S
H1239 C1217 0.929 . S
Nd1240 C1242 2.836 . S
Nd1240 O1260 2.500 . S
Nd1240 O1261 2.492 . S
Nd1240 O1262 2.487 . S
Nd1240 O1263 2.682 . S
Nd1240 O1264 2.410 . S
Nd1240 O1269 2.414 . S
Nd1240 O1271 2.424 . S
Nd1241 C1251 2.836 . S
Nd1241 O1263 2.414 . S
Nd1241 O1265 2.424 . S
Nd1241 O1266 2.500 . S
Nd1241 O1267 2.492 . S
Nd1241 O1268 2.487 . S
Nd1241 O1269 2.682 . S
Nd1241 O1270 2.410 . S
C1242 Nd1240 2.836 . S
C1242 C1243 1.498 . S
C1242 O1260 1.258 . S
C1242 O1261 1.239 . S
C1243 C1242 1.498 . S
C1243 C1244 1.366 . S
C1243 C1248 1.407 . S
C1244 C1243 1.366 . S
C1244 C1245 1.392 . S
C1244 H1272 0.930 . S
C1245 C1244 1.392 . S
C1245 C1246 1.398 . S
C1245 H1273 0.929 . S
C1246 C1245 1.398 . S
C1246 C1247 1.352 . S
C1247 C1246 1.352 . S
C1247 C1248 1.384 . S
C1247 H1274 0.930 . S
C1248 C1243 1.407 . S
C1248 C1247 1.384 . S
C1248 H1275 0.929 . S
C1249 O1262 1.241 . S
C1249 O1263 1.273 . S
C1250 O1264 1.251 . S
C1250 O1265 1.268 . S
C1251 Nd1241 2.836 . S
C1251 C1252 1.498 . S
C1251 O1266 1.258 . S
C1251 O1267 1.239 . S
C1252 C1251 1.498 . S
C1252 C1253 1.366 . S
C1252 C1257 1.407 . S
C1253 C1252 1.366 . S
C1253 C1254 1.392 . S
C1253 H1276 0.930 . S
C1254 C1253 1.392 . S
C1254 C1255 1.398 . S
C1254 H1277 0.929 . S
C1255 C1254 1.398 . S
C1255 C1256 1.352 . S
C1256 C1255 1.352 . S
C1256 C1257 1.384 . S
C1256 H1278 0.930 . S
C1257 C1252 1.407 . S
C1257 C1256 1.384 . S
C1257 H1279 0.929 . S
C1258 O1268 1.241 . S
C1258 O1269 1.273 . S
C1259 O1270 1.251 . S
C1259 O1271 1.268 . S
O1260 Nd1240 2.500 . S
O1260 C1242 1.258 . S
O1261 Nd1240 2.492 . S
O1261 C1242 1.239 . S
O1262 Nd1240 2.487 . S
O1262 C1249 1.241 . S
O1263 Nd1240 2.682 . S
O1263 Nd1241 2.414 . S
O1263 C1249 1.273 . S
O1264 Nd1240 2.410 . S
O1264 C1250 1.251 . S
O1265 Nd1241 2.424 . S
O1265 C1250 1.268 . S
O1266 Nd1241 2.500 . S
O1266 C1251 1.258 . S
O1267 Nd1241 2.492 . S
O1267 C1251 1.239 . S
O1268 Nd1241 2.487 . S
O1268 C1258 1.241 . S
O1269 Nd1240 2.414 . S
O1269 Nd1241 2.682 . S
O1269 C1258 1.273 . S
O1270 Nd1241 2.410 . S
O1270 C1259 1.251 . S
O1271 Nd1240 2.424 . S
O1271 C1259 1.268 . S
H1272 C1244 0.930 . S
H1273 C1245 0.929 . S
H1274 C1247 0.930 . S
H1275 C1248 0.929 . S
H1276 C1253 0.930 . S
H1277 C1254 0.929 . S
H1278 C1256 0.930 . S
H1279 C1257 0.929 . S
C1280 C1281 1.369 . S
C1280 C1282 1.419 . S
C1280 H1284 0.930 . S
C1281 C1280 1.369 . S
C1281 C1290 1.429 . S
C1282 C1280 1.419 . S
C1282 C1283 1.363 . S
C1282 H1285 0.929 . S
C1283 C1282 1.363 . S
C1283 C1289 1.428 . S
H1284 C1280 0.930 . S
H1285 C1282 0.929 . S
S1286 N1287 1.613 . S
S1286 N1288 1.610 . S
N1287 S1286 1.613 . S
N1287 C1290 1.350 . S
N1288 S1286 1.610 . S
N1288 C1289 1.351 . S
C1289 C1283 1.428 . S
C1289 N1288 1.351 . S
C1289 C1290 1.434 . S
C1290 C1281 1.429 . S
C1290 N1287 1.350 . S
C1290 C1289 1.434 . S
C1291 C1292 1.369 . S
C1291 C1293 1.419 . S
C1291 H1295 0.930 . S
C1292 C1291 1.369 . S
C1292 C1301 1.429 . S
C1293 C1291 1.419 . S
C1293 C1294 1.363 . S
C1293 H1296 0.929 . S
C1294 C1293 1.363 . S
C1294 C1300 1.428 . S
H1295 C1291 0.930 . S
H1296 C1293 0.929 . S
S1297 N1298 1.613 . S
S1297 N1299 1.610 . S
N1298 S1297 1.613 . S
N1298 C1301 1.350 . S
N1299 S1297 1.610 . S
N1299 C1300 1.351 . S
C1300 C1294 1.428 . S
C1300 N1299 1.351 . S
C1300 C1301 1.434 . S
C1301 C1292 1.429 . S
C1301 N1298 1.350 . S
C1301 C1300 1.434 . S
C1302 C1303 1.369 . S
C1302 C1304 1.419 . S
C1302 H1306 0.930 . S
C1303 C1302 1.369 . S
C1303 C1312 1.429 . S
C1304 C1302 1.419 . S
C1304 C1305 1.363 . S
C1304 H1307 0.929 . S
C1305 C1304 1.363 . S
C1305 C1311 1.428 . S
H1306 C1302 0.930 . S
H1307 C1304 0.929 . S
S1308 N1309 1.613 . S
S1308 N1310 1.610 . S
N1309 S1308 1.613 . S
N1309 C1312 1.350 . S
N1310 S1308 1.610 . S
N1310 C1311 1.351 . S
C1311 C1305 1.428 . S
C1311 N1310 1.351 . S
C1311 C1312 1.434 . S
C1312 C1303 1.429 . S
C1312 N1309 1.350 . S
C1312 C1311 1.434 . S
C1313 C1314 1.369 1_556 S
C1313 C1315 1.419 . S
C1313 H1317 0.930 1_556 S
C1314 C1313 1.369 1_554 S
C1314 C1323 1.429 . S
C1315 C1313 1.419 . S
C1315 C1316 1.363 . S
C1315 H1318 0.929 . S
C1316 C1315 1.363 . S
C1316 C1322 1.428 . S
H1317 C1313 0.930 1_554 S
H1318 C1315 0.929 . S
S1319 N1320 1.613 . S
S1319 N1321 1.610 1_554 S
N1320 S1319 1.613 . S
N1320 C1323 1.350 . S
N1321 S1319 1.610 1_556 S
N1321 C1322 1.351 . S
C1322 C1316 1.428 . S
C1322 N1321 1.351 . S
C1322 C1323 1.434 1_556 S
C1323 C1314 1.429 . S
C1323 N1320 1.350 . S
C1323 C1322 1.434 1_554 S
C1324 C1325 1.369 . S
C1324 C1326 1.419 . S
C1324 H1328 0.930 . S
C1325 C1324 1.369 . S
C1325 C1334 1.429 . S
C1326 C1324 1.419 . S
C1326 C1327 1.363 . S
C1326 H1329 0.929 . S
C1327 C1326 1.363 . S
C1327 C1333 1.428 . S
H1328 C1324 0.930 . S
H1329 C1326 0.929 . S
S1330 N1331 1.613 . S
S1330 N1332 1.610 . S
N1331 S1330 1.613 . S
N1331 C1334 1.350 . S
N1332 S1330 1.610 . S
N1332 C1333 1.351 . S
C1333 C1327 1.428 . S
C1333 N1332 1.351 . S
C1333 C1334 1.434 . S
C1334 C1325 1.429 . S
C1334 N1331 1.350 . S
C1334 C1333 1.434 . S
C1335 C1336 1.369 . S
C1335 C1337 1.419 . S
C1335 H1339 0.930 . S
C1336 C1335 1.369 . S
C1336 C1345 1.429 . S
C1337 C1335 1.419 . S
C1337 C1338 1.363 . S
C1337 H1340 0.929 . S
C1338 C1337 1.363 . S
C1338 C1344 1.428 . S
H1339 C1335 0.930 . S
H1340 C1337 0.929 . S
S1341 N1342 1.613 . S
S1341 N1343 1.610 . S
N1342 S1341 1.613 . S
N1342 C1345 1.350 . S
N1343 S1341 1.610 . S
N1343 C1344 1.351 . S
C1344 C1338 1.428 . S
C1344 N1343 1.351 . S
C1344 C1345 1.434 . S
C1345 C1336 1.429 . S
C1345 N1342 1.350 . S
C1345 C1344 1.434 . S
C1346 C1347 1.369 . S
C1346 C1348 1.419 . S
C1346 H1350 0.930 . S
C1347 C1346 1.369 . S
C1347 C1356 1.429 . S
C1348 C1346 1.419 . S
C1348 C1349 1.363 . S
C1348 H1351 0.929 . S
C1349 C1348 1.363 . S
C1349 C1355 1.428 . S
H1350 C1346 0.930 . S
H1351 C1348 0.929 . S
S1352 N1353 1.613 . S
S1352 N1354 1.610 . S
N1353 S1352 1.613 . S
N1353 C1356 1.350 . S
N1354 S1352 1.610 . S
N1354 C1355 1.351 . S
C1355 C1349 1.428 . S
C1355 N1354 1.351 . S
C1355 C1356 1.434 . S
C1356 C1347 1.429 . S
C1356 N1353 1.350 . S
C1356 C1355 1.434 . S
C1357 C1358 1.369 . S
C1357 C1359 1.419 . S
C1357 H1361 0.930 . S
C1358 C1357 1.369 . S
C1358 C1367 1.429 . S
C1359 C1357 1.419 . S
C1359 C1360 1.363 . S
C1359 H1362 0.929 . S
C1360 C1359 1.363 . S
C1360 C1366 1.428 . S
H1361 C1357 0.930 . S
H1362 C1359 0.929 . S
S1363 N1364 1.613 . S
S1363 N1365 1.610 . S
N1364 S1363 1.613 . S
N1364 C1367 1.350 . S
N1365 S1363 1.610 . S
N1365 C1366 1.351 . S
C1366 C1360 1.428 . S
C1366 N1365 1.351 . S
C1366 C1367 1.434 . S
C1367 C1358 1.429 . S
C1367 N1364 1.350 . S
C1367 C1366 1.434 . S
C1368 C1369 1.369 . S
C1368 C1370 1.419 . S
C1368 H1372 0.930 . S
C1369 C1368 1.369 . S
C1369 C1378 1.429 . S
C1370 C1368 1.419 . S
C1370 C1371 1.363 . S
C1370 H1373 0.929 . S
C1371 C1370 1.363 . S
C1371 C1377 1.428 . S
H1372 C1368 0.930 . S
H1373 C1370 0.929 . S
S1374 N1375 1.613 . S
S1374 N1376 1.610 . S
N1375 S1374 1.613 . S
N1375 C1378 1.350 . S
N1376 S1374 1.610 . S
N1376 C1377 1.351 . S
C1377 C1371 1.428 . S
C1377 N1376 1.351 . S
C1377 C1378 1.434 . S
C1378 C1369 1.429 . S
C1378 N1375 1.350 . S
C1378 C1377 1.434 . S
C1379 C1380 1.369 . S
C1379 C1381 1.419 1_556 S
C1379 H1383 0.930 . S
C1380 C1379 1.369 . S
C1380 C1389 1.429 . S
C1381 C1379 1.419 1_554 S
C1381 C1382 1.363 . S
C1381 H1384 0.929 . S
C1382 C1381 1.363 . S
C1382 C1388 1.428 . S
H1383 C1379 0.930 . S
H1384 C1381 0.929 . S
S1385 N1386 1.613 . S
S1385 N1387 1.610 1_556 S
N1386 S1385 1.613 . S
N1386 C1389 1.350 . S
N1387 S1385 1.610 1_554 S
N1387 C1388 1.351 . S
C1388 C1382 1.428 . S
C1388 N1387 1.351 . S
C1388 C1389 1.434 1_554 S
C1389 C1380 1.429 . S
C1389 N1386 1.350 . S
C1389 C1388 1.434 1_556 S
C1390 C1391 1.369 . S
C1390 C1392 1.419 . S
C1390 H1394 0.930 . S
C1391 C1390 1.369 . S
C1391 C1400 1.429 . S
C1392 C1390 1.419 . S
C1392 C1393 1.363 . S
C1392 H1395 0.929 . S
C1393 C1392 1.363 . S
C1393 C1399 1.428 . S
H1394 C1390 0.930 . S
H1395 C1392 0.929 . S
S1396 N1397 1.613 . S
S1396 N1398 1.610 . S
N1397 S1396 1.613 . S
N1397 C1400 1.350 . S
N1398 S1396 1.610 . S
N1398 C1399 1.351 . S
C1399 C1393 1.428 . S
C1399 N1398 1.351 . S
C1399 C1400 1.434 . S
C1400 C1391 1.429 . S
C1400 N1397 1.350 . S
C1400 C1399 1.434 . S
C1401 C1402 1.369 . S
C1401 C1403 1.419 . S
C1401 H1405 0.930 . S
C1402 C1401 1.369 . S
C1402 C1411 1.429 . S
C1403 C1401 1.419 . S
C1403 C1404 1.363 . S
C1403 H1406 0.929 . S
C1404 C1403 1.363 . S
C1404 C1410 1.428 . S
H1405 C1401 0.930 . S
H1406 C1403 0.929 . S
S1407 N1408 1.613 . S
S1407 N1409 1.610 . S
N1408 S1407 1.613 . S
N1408 C1411 1.350 . S
N1409 S1407 1.610 . S
N1409 C1410 1.351 . S
C1410 C1404 1.428 . S
C1410 N1409 1.351 . S
C1410 C1411 1.434 . S
C1411 C1402 1.429 . S
C1411 N1408 1.350 . S
C1411 C1410 1.434 . S
C1412 C1413 1.369 . S
C1412 C1414 1.419 . S
C1412 H1416 0.930 . S
C1413 C1412 1.369 . S
C1413 C1422 1.429 . S
C1414 C1412 1.419 . S
C1414 C1415 1.363 . S
C1414 H1417 0.929 . S
C1415 C1414 1.363 . S
C1415 C1421 1.428 . S
H1416 C1412 0.930 . S
H1417 C1414 0.929 . S
S1418 N1419 1.613 . S
S1418 N1420 1.610 . S
N1419 S1418 1.613 . S
N1419 C1422 1.350 . S
N1420 S1418 1.610 . S
N1420 C1421 1.351 . S
C1421 C1415 1.428 . S
C1421 N1420 1.351 . S
C1421 C1422 1.434 . S
C1422 C1413 1.429 . S
C1422 N1419 1.350 . S
C1422 C1421 1.434 . S
C1423 C1424 1.369 . S
C1423 C1425 1.419 . S
C1423 H1427 0.930 . S
C1424 C1423 1.369 . S
C1424 C1433 1.429 . S
C1425 C1423 1.419 . S
C1425 C1426 1.363 . S
C1425 H1428 0.929 . S
C1426 C1425 1.363 . S
C1426 C1432 1.428 . S
H1427 C1423 0.930 . S
H1428 C1425 0.929 . S
S1429 N1430 1.613 . S
S1429 N1431 1.610 . S
N1430 S1429 1.613 . S
N1430 C1433 1.350 . S
N1431 S1429 1.610 . S
N1431 C1432 1.351 . S
C1432 C1426 1.428 . S
C1432 N1431 1.351 . S
C1432 C1433 1.434 . S
C1433 C1424 1.429 . S
C1433 N1430 1.350 . S
C1433 C1432 1.434 . S
C1434 C1435 1.369 . S
C1434 C1436 1.419 . S
C1434 H1438 0.930 . S
C1435 C1434 1.369 . S
C1435 C1444 1.429 . S
C1436 C1434 1.419 . S
C1436 C1437 1.363 . S
C1436 H1439 0.929 . S
C1437 C1436 1.363 . S
C1437 C1443 1.428 . S
H1438 C1434 0.930 . S
H1439 C1436 0.929 . S
S1440 N1441 1.613 1_545 S
S1440 N1442 1.610 1_545 S
N1441 S1440 1.613 1_565 S
N1441 C1444 1.350 . S
N1442 S1440 1.610 1_565 S
N1442 C1443 1.351 . S
C1443 C1437 1.428 . S
C1443 N1442 1.351 . S
C1443 C1444 1.434 . S
C1444 C1435 1.429 . S
C1444 N1441 1.350 . S
C1444 C1443 1.434 . S
C1445 C1446 1.369 . S
C1445 C1447 1.419 . S
C1445 H1449 0.930 . S
C1446 C1445 1.369 . S
C1446 C1455 1.429 . S
C1447 C1445 1.419 . S
C1447 C1448 1.363 . S
C1447 H1450 0.929 . S
C1448 C1447 1.363 . S
C1448 C1454 1.428 . S
H1449 C1445 0.930 . S
H1450 C1447 0.929 . S
S1451 N1452 1.613 . S
S1451 N1453 1.610 . S
N1452 S1451 1.613 . S
N1452 C1455 1.350 . S
N1453 S1451 1.610 . S
N1453 C1454 1.351 . S
C1454 C1448 1.428 . S
C1454 N1453 1.351 . S
C1454 C1455 1.434 . S
C1455 C1446 1.429 . S
C1455 N1452 1.350 . S
C1455 C1454 1.434 . S
C1456 C1457 1.369 . S
C1456 C1458 1.419 . S
C1456 H1460 0.930 . S
C1457 C1456 1.369 . S
C1457 C1466 1.429 . S
C1458 C1456 1.419 . S
C1458 C1459 1.363 . S
C1458 H1461 0.929 . S
C1459 C1458 1.363 . S
C1459 C1465 1.428 . S
H1460 C1456 0.930 . S
H1461 C1458 0.929 . S
S1462 N1463 1.613 . S
S1462 N1464 1.610 . S
N1463 S1462 1.613 . S
N1463 C1466 1.350 . S
N1464 S1462 1.610 . S
N1464 C1465 1.351 . S
C1465 C1459 1.428 . S
C1465 N1464 1.351 . S
C1465 C1466 1.434 . S
C1466 C1457 1.429 . S
C1466 N1463 1.350 . S
C1466 C1465 1.434 . S
C1467 C1468 1.369 . S
C1467 C1469 1.419 . S
C1467 H1471 0.930 . S
C1468 C1467 1.369 . S
C1468 C1477 1.429 . S
C1469 C1467 1.419 . S
C1469 C1470 1.363 . S
C1469 H1472 0.929 . S
C1470 C1469 1.363 . S
C1470 C1476 1.428 . S
H1471 C1467 0.930 . S
H1472 C1469 0.929 . S
S1473 N1474 1.613 . S
S1473 N1475 1.610 . S
N1474 S1473 1.613 . S
N1474 C1477 1.350 . S
N1475 S1473 1.610 . S
N1475 C1476 1.351 . S
C1476 C1470 1.428 . S
C1476 N1475 1.351 . S
C1476 C1477 1.434 . S
C1477 C1468 1.429 . S
C1477 N1474 1.350 . S
C1477 C1476 1.434 . S
C1478 C1479 1.369 . S
C1478 C1480 1.419 . S
C1478 H1482 0.930 . S
C1479 C1478 1.369 . S
C1479 C1488 1.429 . S
C1480 C1478 1.419 . S
C1480 C1481 1.363 . S
C1480 H1483 0.929 . S
C1481 C1480 1.363 . S
C1481 C1487 1.428 . S
H1482 C1478 0.930 . S
H1483 C1480 0.929 . S
S1484 N1485 1.613 . S
S1484 N1486 1.610 . S
N1485 S1484 1.613 . S
N1485 C1488 1.350 . S
N1486 S1484 1.610 . S
N1486 C1487 1.351 . S
C1487 C1481 1.428 . S
C1487 N1486 1.351 . S
C1487 C1488 1.434 . S
C1488 C1479 1.429 . S
C1488 N1485 1.350 . S
C1488 C1487 1.434 . S
C1489 C1490 1.369 . S
C1489 C1491 1.419 . S
C1489 H1493 0.930 . S
C1490 C1489 1.369 . S
C1490 C1499 1.429 . S
C1491 C1489 1.419 . S
C1491 C1492 1.363 . S
C1491 H1494 0.929 . S
C1492 C1491 1.363 . S
C1492 C1498 1.428 . S
H1493 C1489 0.930 . S
H1494 C1491 0.929 . S
S1495 N1496 1.613 . S
S1495 N1497 1.610 . S
N1496 S1495 1.613 . S
N1496 C1499 1.350 . S
N1497 S1495 1.610 . S
N1497 C1498 1.351 . S
C1498 C1492 1.428 . S
C1498 N1497 1.351 . S
C1498 C1499 1.434 . S
C1499 C1490 1.429 . S
C1499 N1496 1.350 . S
C1499 C1498 1.434 . S
C1500 C1501 1.369 . S
C1500 C1502 1.419 . S
C1500 H1504 0.930 . S
C1501 C1500 1.369 . S
C1501 C1510 1.429 . S
C1502 C1500 1.419 . S
C1502 C1503 1.363 . S
C1502 H1505 0.929 . S
C1503 C1502 1.363 . S
C1503 C1509 1.428 . S
H1504 C1500 0.930 . S
H1505 C1502 0.929 . S
S1506 N1507 1.613 . S
S1506 N1508 1.610 . S
N1507 S1506 1.613 . S
N1507 C1510 1.350 . S
N1508 S1506 1.610 . S
N1508 C1509 1.351 . S
C1509 C1503 1.428 . S
C1509 N1508 1.351 . S
C1509 C1510 1.434 . S
C1510 C1501 1.429 . S
C1510 N1507 1.350 . S
C1510 C1509 1.434 . S
C1511 C1512 1.369 . S
C1511 C1513 1.419 . S
C1511 H1515 0.930 . S
C1512 C1511 1.369 . S
C1512 C1521 1.429 . S
C1513 C1511 1.419 . S
C1513 C1514 1.363 . S
C1513 H1516 0.929 . S
C1514 C1513 1.363 . S
C1514 C1520 1.428 . S
H1515 C1511 0.930 . S
H1516 C1513 0.929 . S
S1517 N1518 1.613 . S
S1517 N1519 1.610 . S
N1518 S1517 1.613 . S
N1518 C1521 1.350 . S
N1519 S1517 1.610 . S
N1519 C1520 1.351 . S
C1520 C1514 1.428 . S
C1520 N1519 1.351 . S
C1520 C1521 1.434 . S
C1521 C1512 1.429 . S
C1521 N1518 1.350 . S
C1521 C1520 1.434 . S
C1522 C1523 1.369 . S
C1522 C1524 1.419 . S
C1522 H1526 0.930 . S
C1523 C1522 1.369 . S
C1523 C1532 1.429 . S
C1524 C1522 1.419 . S
C1524 C1525 1.363 . S
C1524 H1527 0.929 . S
C1525 C1524 1.363 . S
C1525 C1531 1.428 . S
H1526 C1522 0.930 . S
H1527 C1524 0.929 . S
S1528 N1529 1.613 . S
S1528 N1530 1.610 . S
N1529 S1528 1.613 . S
N1529 C1532 1.350 . S
N1530 S1528 1.610 . S
N1530 C1531 1.351 . S
C1531 C1525 1.428 . S
C1531 N1530 1.351 . S
C1531 C1532 1.434 . S
C1532 C1523 1.429 . S
C1532 N1529 1.350 . S
C1532 C1531 1.434 . S
C1533 C1534 1.369 . S
C1533 C1535 1.419 . S
C1533 H1537 0.930 . S
C1534 C1533 1.369 . S
C1534 C1543 1.429 . S
C1535 C1533 1.419 . S
C1535 C1536 1.363 . S
C1535 H1538 0.929 . S
C1536 C1535 1.363 . S
C1536 C1542 1.428 . S
H1537 C1533 0.930 . S
H1538 C1535 0.929 . S
S1539 N1540 1.613 . S
S1539 N1541 1.610 . S
N1540 S1539 1.613 . S
N1540 C1543 1.350 . S
N1541 S1539 1.610 . S
N1541 C1542 1.351 . S
C1542 C1536 1.428 . S
C1542 N1541 1.351 . S
C1542 C1543 1.434 . S
C1543 C1534 1.429 . S
C1543 N1540 1.350 . S
C1543 C1542 1.434 . S
C1544 C1545 1.369 . S
C1544 C1546 1.419 . S
C1544 H1548 0.930 . S
C1545 C1544 1.369 . S
C1545 C1554 1.429 . S
C1546 C1544 1.419 . S
C1546 C1547 1.363 . S
C1546 H1549 0.929 . S
C1547 C1546 1.363 . S
C1547 C1553 1.428 . S
H1548 C1544 0.930 . S
H1549 C1546 0.929 . S
S1550 N1551 1.613 . S
S1550 N1552 1.610 . S
N1551 S1550 1.613 . S
N1551 C1554 1.350 . S
N1552 S1550 1.610 . S
N1552 C1553 1.351 . S
C1553 C1547 1.428 . S
C1553 N1552 1.351 . S
C1553 C1554 1.434 . S
C1554 C1545 1.429 . S
C1554 N1551 1.350 . S
C1554 C1553 1.434 . S
C1555 C1556 1.369 . S
C1555 C1557 1.419 . S
C1555 H1559 0.930 . S
C1556 C1555 1.369 . S
C1556 C1565 1.429 . S
C1557 C1555 1.419 . S
C1557 C1558 1.363 . S
C1557 H1560 0.929 . S
C1558 C1557 1.363 . S
C1558 C1564 1.428 . S
H1559 C1555 0.930 . S
H1560 C1557 0.929 . S
S1561 N1562 1.613 . S
S1561 N1563 1.610 . S
N1562 S1561 1.613 . S
N1562 C1565 1.350 . S
N1563 S1561 1.610 . S
N1563 C1564 1.351 . S
C1564 C1558 1.428 . S
C1564 N1563 1.351 . S
C1564 C1565 1.434 . S
C1565 C1556 1.429 . S
C1565 N1562 1.350 . S
C1565 C1564 1.434 . S
C1566 C1567 1.369 . S
C1566 C1568 1.419 . S
C1566 H1570 0.930 . S
C1567 C1566 1.369 . S
C1567 C1576 1.429 . S
C1568 C1566 1.419 . S
C1568 C1569 1.363 . S
C1568 H1571 0.929 . S
C1569 C1568 1.363 . S
C1569 C1575 1.428 . S
H1570 C1566 0.930 . S
H1571 C1568 0.929 . S
S1572 N1573 1.613 . S
S1572 N1574 1.610 . S
N1573 S1572 1.613 . S
N1573 C1576 1.350 . S
N1574 S1572 1.610 . S
N1574 C1575 1.351 . S
C1575 C1569 1.428 . S
C1575 N1574 1.351 . S
C1575 C1576 1.434 . S
C1576 C1567 1.429 . S
C1576 N1573 1.350 . S
C1576 C1575 1.434 . S
C1577 C1578 1.369 . S
C1577 C1579 1.419 . S
C1577 H1581 0.930 . S
C1578 C1577 1.369 . S
C1578 C1587 1.429 . S
C1579 C1577 1.419 . S
C1579 C1580 1.363 . S
C1579 H1582 0.929 . S
C1580 C1579 1.363 . S
C1580 C1586 1.428 . S
H1581 C1577 0.930 . S
H1582 C1579 0.929 . S
S1583 N1584 1.613 . S
S1583 N1585 1.610 . S
N1584 S1583 1.613 . S
N1584 C1587 1.350 . S
N1585 S1583 1.610 . S
N1585 C1586 1.351 . S
C1586 C1580 1.428 . S
C1586 N1585 1.351 . S
C1586 C1587 1.434 . S
C1587 C1578 1.429 . S
C1587 N1584 1.350 . S
C1587 C1586 1.434 . S
C1588 C1589 1.369 . S
C1588 C1590 1.419 . S
C1588 H1592 0.930 . S
C1589 C1588 1.369 . S
C1589 C1598 1.429 . S
C1590 C1588 1.419 . S
C1590 C1591 1.363 . S
C1590 H1593 0.929 . S
C1591 C1590 1.363 . S
C1591 C1597 1.428 . S
H1592 C1588 0.930 . S
H1593 C1590 0.929 . S
S1594 N1595 1.613 . S
S1594 N1596 1.610 . S
N1595 S1594 1.613 . S
N1595 C1598 1.350 . S
N1596 S1594 1.610 . S
N1596 C1597 1.351 . S
C1597 C1591 1.428 . S
C1597 N1596 1.351 . S
C1597 C1598 1.434 . S
C1598 C1589 1.429 . S
C1598 N1595 1.350 . S
C1598 C1597 1.434 . S
C1599 C1600 1.369 . S
C1599 C1601 1.419 . S
C1599 H1603 0.930 . S
C1600 C1599 1.369 . S
C1600 C1609 1.429 . S
C1601 C1599 1.419 . S
C1601 C1602 1.363 . S
C1601 H1604 0.929 . S
C1602 C1601 1.363 . S
C1602 C1608 1.428 . S
H1603 C1599 0.930 . S
H1604 C1601 0.929 . S
S1605 N1606 1.613 . S
S1605 N1607 1.610 . S
N1606 S1605 1.613 . S
N1606 C1609 1.350 . S
N1607 S1605 1.610 . S
N1607 C1608 1.351 . S
C1608 C1602 1.428 . S
C1608 N1607 1.351 . S
C1608 C1609 1.434 . S
C1609 C1600 1.429 . S
C1609 N1606 1.350 . S
C1609 C1608 1.434 . S
C1610 C1611 1.369 . S
C1610 C1612 1.419 . S
C1610 H1614 0.930 . S
C1611 C1610 1.369 . S
C1611 C1620 1.429 . S
C1612 C1610 1.419 . S
C1612 C1613 1.363 . S
C1612 H1615 0.929 . S
C1613 C1612 1.363 . S
C1613 C1619 1.428 . S
H1614 C1610 0.930 . S
H1615 C1612 0.929 . S
S1616 N1617 1.613 . S
S1616 N1618 1.610 . S
N1617 S1616 1.613 . S
N1617 C1620 1.350 . S
N1618 S1616 1.610 . S
N1618 C1619 1.351 . S
C1619 C1613 1.428 . S
C1619 N1618 1.351 . S
C1619 C1620 1.434 . S
C1620 C1611 1.429 . S
C1620 N1617 1.350 . S
C1620 C1619 1.434 . S
C1621 C1622 1.369 . S
C1621 C1623 1.419 . S
C1621 H1625 0.930 . S
C1622 C1621 1.369 . S
C1622 C1631 1.429 . S
C1623 C1621 1.419 . S
C1623 C1624 1.363 . S
C1623 H1626 0.929 . S
C1624 C1623 1.363 . S
C1624 C1630 1.428 . S
H1625 C1621 0.930 . S
H1626 C1623 0.929 . S
S1627 N1628 1.613 . S
S1627 N1629 1.610 . S
N1628 S1627 1.613 . S
N1628 C1631 1.350 . S
N1629 S1627 1.610 . S
N1629 C1630 1.351 . S
C1630 C1624 1.428 . S
C1630 N1629 1.351 . S
C1630 C1631 1.434 . S
C1631 C1622 1.429 . S
C1631 N1628 1.350 . S
C1631 C1630 1.434 . S
C1632 C1633 1.369 . S
C1632 C1634 1.419 . S
C1632 H1636 0.930 . S
C1633 C1632 1.369 . S
C1633 C1642 1.429 1_655 S
C1634 C1632 1.419 . S
C1634 C1635 1.363 1_655 S
C1634 H1637 0.929 . S
C1635 C1634 1.363 1_455 S
C1635 C1641 1.428 . S
H1636 C1632 0.930 . S
H1637 C1634 0.929 . S
S1638 N1639 1.613 . S
S1638 N1640 1.610 . S
N1639 S1638 1.613 . S
N1639 C1642 1.350 . S
N1640 S1638 1.610 . S
N1640 C1641 1.351 . S
C1641 C1635 1.428 . S
C1641 N1640 1.351 . S
C1641 C1642 1.434 . S
C1642 C1633 1.429 1_455 S
C1642 N1639 1.350 . S
C1642 C1641 1.434 . S
C1643 C1644 1.369 . S
C1643 C1645 1.419 . S
C1643 H1647 0.930 . S
C1644 C1643 1.369 . S
C1644 C1653 1.429 . S
C1645 C1643 1.419 . S
C1645 C1646 1.363 . S
C1645 H1648 0.929 . S
C1646 C1645 1.363 . S
C1646 C1652 1.428 . S
H1647 C1643 0.930 . S
H1648 C1645 0.929 . S
S1649 N1650 1.613 . S
S1649 N1651 1.610 . S
N1650 S1649 1.613 . S
N1650 C1653 1.350 . S
N1651 S1649 1.610 . S
N1651 C1652 1.351 . S
C1652 C1646 1.428 . S
C1652 N1651 1.351 . S
C1652 C1653 1.434 . S
C1653 C1644 1.429 . S
C1653 N1650 1.350 . S
C1653 C1652 1.434 . S
C1654 C1655 1.369 . S
C1654 C1656 1.419 . S
C1654 H1658 0.930 . S
C1655 C1654 1.369 . S
C1655 C1664 1.429 . S
C1656 C1654 1.419 . S
C1656 C1657 1.363 . S
C1656 H1659 0.929 . S
C1657 C1656 1.363 . S
C1657 C1663 1.428 . S
H1658 C1654 0.930 . S
H1659 C1656 0.929 . S
S1660 N1661 1.613 . S
S1660 N1662 1.610 . S
N1661 S1660 1.613 . S
N1661 C1664 1.350 . S
N1662 S1660 1.610 . S
N1662 C1663 1.351 . S
C1663 C1657 1.428 . S
C1663 N1662 1.351 . S
C1663 C1664 1.434 . S
C1664 C1655 1.429 . S
C1664 N1661 1.350 . S
C1664 C1663 1.434 . S
C1665 C1666 1.369 . S
C1665 C1667 1.419 . S
C1665 H1669 0.930 . S
C1666 C1665 1.369 . S
C1666 C1675 1.429 . S
C1667 C1665 1.419 . S
C1667 C1668 1.363 . S
C1667 H1670 0.929 . S
C1668 C1667 1.363 . S
C1668 C1674 1.428 . S
H1669 C1665 0.930 . S
H1670 C1667 0.929 . S
S1671 N1672 1.613 . S
S1671 N1673 1.610 . S
N1672 S1671 1.613 . S
N1672 C1675 1.350 . S
N1673 S1671 1.610 . S
N1673 C1674 1.351 . S
C1674 C1668 1.428 . S
C1674 N1673 1.351 . S
C1674 C1675 1.434 . S
C1675 C1666 1.429 . S
C1675 N1672 1.350 . S
C1675 C1674 1.434 . S
C1676 C1677 1.369 1_455 S
C1676 C1678 1.419 . S
C1676 H1680 0.930 . S
C1677 C1676 1.369 1_655 S
C1677 C1686 1.429 . S
C1678 C1676 1.419 . S
C1678 C1679 1.363 . S
C1678 H1681 0.929 . S
C1679 C1678 1.363 . S
C1679 C1685 1.428 1_455 S
H1680 C1676 0.930 . S
H1681 C1678 0.929 . S
S1682 N1683 1.613 . S
S1682 N1684 1.610 . S
N1683 S1682 1.613 . S
N1683 C1686 1.350 . S
N1684 S1682 1.610 . S
N1684 C1685 1.351 . S
C1685 C1679 1.428 1_655 S
C1685 N1684 1.351 . S
C1685 C1686 1.434 . S
C1686 C1677 1.429 . S
C1686 N1683 1.350 . S
C1686 C1685 1.434 . S
C1687 C1688 1.369 . S
C1687 C1689 1.419 . S
C1687 H1691 0.930 . S
C1688 C1687 1.369 . S
C1688 C1697 1.429 . S
C1689 C1687 1.419 . S
C1689 C1690 1.363 . S
C1689 H1692 0.929 . S
C1690 C1689 1.363 . S
C1690 C1696 1.428 . S
H1691 C1687 0.930 . S
H1692 C1689 0.929 . S
S1693 N1694 1.613 . S
S1693 N1695 1.610 . S
N1694 S1693 1.613 . S
N1694 C1697 1.350 . S
N1695 S1693 1.610 . S
N1695 C1696 1.351 . S
C1696 C1690 1.428 . S
C1696 N1695 1.351 . S
C1696 C1697 1.434 . S
C1697 C1688 1.429 . S
C1697 N1694 1.350 . S
C1697 C1696 1.434 . S
C1698 C1699 1.369 . S
C1698 C1700 1.419 . S
C1698 H1702 0.930 . S
C1699 C1698 1.369 . S
C1699 C1708 1.429 . S
C1700 C1698 1.419 . S
C1700 C1701 1.363 . S
C1700 H1703 0.929 . S
C1701 C1700 1.363 . S
C1701 C1707 1.428 . S
H1702 C1698 0.930 . S
H1703 C1700 0.929 . S
S1704 N1705 1.613 . S
S1704 N1706 1.610 . S
N1705 S1704 1.613 . S
N1705 C1708 1.350 . S
N1706 S1704 1.610 . S
N1706 C1707 1.351 . S
C1707 C1701 1.428 . S
C1707 N1706 1.351 . S
C1707 C1708 1.434 . S
C1708 C1699 1.429 . S
C1708 N1705 1.350 . S
C1708 C1707 1.434 . S
C1709 C1710 1.369 . S
C1709 C1711 1.419 . S
C1709 H1713 0.930 . S
C1710 C1709 1.369 . S
C1710 C1719 1.429 . S
C1711 C1709 1.419 . S
C1711 C1712 1.363 . S
C1711 H1714 0.929 . S
C1712 C1711 1.363 . S
C1712 C1718 1.428 . S
H1713 C1709 0.930 . S
H1714 C1711 0.929 . S
S1715 N1716 1.613 . S
S1715 N1717 1.610 . S
N1716 S1715 1.613 . S
N1716 C1719 1.350 . S
N1717 S1715 1.610 . S
N1717 C1718 1.351 . S
C1718 C1712 1.428 . S
C1718 N1717 1.351 . S
C1718 C1719 1.434 . S
C1719 C1710 1.429 . S
C1719 N1716 1.350 . S
C1719 C1718 1.434 . S
C1720 C1721 1.369 . S
C1720 C1722 1.419 . S
C1720 H1724 0.930 . S
C1721 C1720 1.369 . S
C1721 C1730 1.429 . S
C1722 C1720 1.419 . S
C1722 C1723 1.363 . S
C1722 H1725 0.929 . S
C1723 C1722 1.363 . S
C1723 C1729 1.428 . S
H1724 C1720 0.930 . S
H1725 C1722 0.929 . S
S1726 N1727 1.613 . S
S1726 N1728 1.610 . S
N1727 S1726 1.613 . S
N1727 C1730 1.350 . S
N1728 S1726 1.610 . S
N1728 C1729 1.351 . S
C1729 C1723 1.428 . S
C1729 N1728 1.351 . S
C1729 C1730 1.434 . S
C1730 C1721 1.429 . S
C1730 N1727 1.350 . S
C1730 C1729 1.434 . S
C1731 C1732 1.369 . S
C1731 C1733 1.419 . S
C1731 H1735 0.930 . S
C1732 C1731 1.369 . S
C1732 C1741 1.429 . S
C1733 C1731 1.419 . S
C1733 C1734 1.363 . S
C1733 H1736 0.929 . S
C1734 C1733 1.363 . S
C1734 C1740 1.428 . S
H1735 C1731 0.930 . S
H1736 C1733 0.929 . S
S1737 N1738 1.613 . S
S1737 N1739 1.610 . S
N1738 S1737 1.613 . S
N1738 C1741 1.350 . S
N1739 S1737 1.610 . S
N1739 C1740 1.351 . S
C1740 C1734 1.428 . S
C1740 N1739 1.351 . S
C1740 C1741 1.434 . S
C1741 C1732 1.429 . S
C1741 N1738 1.350 . S
C1741 C1740 1.434 . S
C1742 C1743 1.369 . S
C1742 C1744 1.419 . S
C1742 H1746 0.930 . S
C1743 C1742 1.369 . S
C1743 C1752 1.429 . S
C1744 C1742 1.419 . S
C1744 C1745 1.363 . S
C1744 H1747 0.929 . S
C1745 C1744 1.363 . S
C1745 C1751 1.428 . S
H1746 C1742 0.930 . S
H1747 C1744 0.929 . S
S1748 N1749 1.613 . S
S1748 N1750 1.610 . S
N1749 S1748 1.613 . S
N1749 C1752 1.350 . S
N1750 S1748 1.610 . S
N1750 C1751 1.351 . S
C1751 C1745 1.428 . S
C1751 N1750 1.351 . S
C1751 C1752 1.434 . S
C1752 C1743 1.429 . S
C1752 N1749 1.350 . S
C1752 C1751 1.434 . S
C1753 C1754 1.369 . S
C1753 C1755 1.419 . S
C1753 H1757 0.930 . S
C1754 C1753 1.369 . S
C1754 C1763 1.429 . S
C1755 C1753 1.419 . S
C1755 C1756 1.363 . S
C1755 H1758 0.929 . S
C1756 C1755 1.363 . S
C1756 C1762 1.428 . S
H1757 C1753 0.930 . S
H1758 C1755 0.929 . S
S1759 N1760 1.613 . S
S1759 N1761 1.610 . S
N1760 S1759 1.613 . S
N1760 C1763 1.350 . S
N1761 S1759 1.610 . S
N1761 C1762 1.351 . S
C1762 C1756 1.428 . S
C1762 N1761 1.351 . S
C1762 C1763 1.434 . S
C1763 C1754 1.429 . S
C1763 N1760 1.350 . S
C1763 C1762 1.434 . S
C1764 C1765 1.369 . S
C1764 C1766 1.419 . S
C1764 H1768 0.930 . S
C1765 C1764 1.369 . S
C1765 C1774 1.429 1_545 S
C1766 C1764 1.419 . S
C1766 C1767 1.363 1_545 S
C1766 H1769 0.929 . S
C1767 C1766 1.363 1_565 S
C1767 C1773 1.428 . S
H1768 C1764 0.930 . S
H1769 C1766 0.929 . S
S1770 N1771 1.613 . S
S1770 N1772 1.610 . S
N1771 S1770 1.613 . S
N1771 C1774 1.350 . S
N1772 S1770 1.610 . S
N1772 C1773 1.351 . S
C1773 C1767 1.428 . S
C1773 N1772 1.351 . S
C1773 C1774 1.434 . S
C1774 C1765 1.429 1_565 S
C1774 N1771 1.350 . S
C1774 C1773 1.434 . S
C1775 C1776 1.369 1_645 S
C1775 C1777 1.419 . S
C1775 H1779 0.930 . S
C1776 C1775 1.369 1_465 S
C1776 C1785 1.429 . S
C1777 C1775 1.419 . S
C1777 C1778 1.363 . S
C1777 H1780 0.929 . S
C1778 C1777 1.363 . S
C1778 C1784 1.428 1_645 S
H1779 C1775 0.930 . S
H1780 C1777 0.929 . S
S1781 N1782 1.613 . S
S1781 N1783 1.610 . S
N1782 S1781 1.613 . S
N1782 C1785 1.350 . S
N1783 S1781 1.610 . S
N1783 C1784 1.351 . S
C1784 C1778 1.428 1_465 S
C1784 N1783 1.351 . S
C1784 C1785 1.434 . S
C1785 C1776 1.429 . S
C1785 N1782 1.350 . S
C1785 C1784 1.434 . S
C1786 C1787 1.369 . S
C1786 C1788 1.419 . S
C1786 H1790 0.930 . S
C1787 C1786 1.369 . S
C1787 C1796 1.429 1_545 S
C1788 C1786 1.419 . S
C1788 C1789 1.363 1_545 S
C1788 H1791 0.929 . S
C1789 C1788 1.363 1_565 S
C1789 C1795 1.428 . S
H1790 C1786 0.930 . S
H1791 C1788 0.929 . S
S1792 N1793 1.613 . S
S1792 N1794 1.610 . S
N1793 S1792 1.613 . S
N1793 C1796 1.350 . S
N1794 S1792 1.610 . S
N1794 C1795 1.351 . S
C1795 C1789 1.428 . S
C1795 N1794 1.351 . S
C1795 C1796 1.434 . S
C1796 C1787 1.429 1_565 S
C1796 N1793 1.350 . S
C1796 C1795 1.434 . S
C1797 C1798 1.369 1_455 S
C1797 C1799 1.419 . S
C1797 H1801 0.930 . S
C1798 C1797 1.369 1_655 S
C1798 C1807 1.429 1_545 S
C1799 C1797 1.419 . S
C1799 C1800 1.363 1_545 S
C1799 H1802 0.929 . S
C1800 C1799 1.363 1_565 S
C1800 C1806 1.428 1_455 S
H1801 C1797 0.930 . S
H1802 C1799 0.929 . S
S1803 N1804 1.613 . S
S1803 N1805 1.610 . S
N1804 S1803 1.613 . S
N1804 C1807 1.350 . S
N1805 S1803 1.610 . S
N1805 C1806 1.351 . S
C1806 C1800 1.428 1_655 S
C1806 N1805 1.351 . S
C1806 C1807 1.434 . S
C1807 C1798 1.429 1_565 S
C1807 N1804 1.350 . S
C1807 C1806 1.434 . S
C1808 C1809 1.369 1_655 S
C1808 C1810 1.419 . S
C1808 H1812 0.930 . S
C1809 C1808 1.369 1_455 S
C1809 C1818 1.429 . S
C1810 C1808 1.419 . S
C1810 C1811 1.363 . S
C1810 H1813 0.929 . S
C1811 C1810 1.363 . S
C1811 C1817 1.428 1_655 S
H1812 C1808 0.930 . S
H1813 C1810 0.929 . S
S1814 N1815 1.613 . S
S1814 N1816 1.610 . S
N1815 S1814 1.613 . S
N1815 C1818 1.350 . S
N1816 S1814 1.610 . S
N1816 C1817 1.351 . S
C1817 C1811 1.428 1_455 S
C1817 N1816 1.351 . S
C1817 C1818 1.434 . S
C1818 C1809 1.429 . S
C1818 N1815 1.350 . S
C1818 C1817 1.434 . S
C1819 C1820 1.369 . S
C1819 C1821 1.419 . S
C1819 H1823 0.930 . S
C1820 C1819 1.369 . S
C1820 C1829 1.429 . S
C1821 C1819 1.419 . S
C1821 C1822 1.363 . S
C1821 H1824 0.929 . S
C1822 C1821 1.363 . S
C1822 C1828 1.428 . S
H1823 C1819 0.930 . S
H1824 C1821 0.929 . S
S1825 N1826 1.613 . S
S1825 N1827 1.610 . S
N1826 S1825 1.613 . S
N1826 C1829 1.350 . S
N1827 S1825 1.610 . S
N1827 C1828 1.351 . S
C1828 C1822 1.428 . S
C1828 N1827 1.351 . S
C1828 C1829 1.434 . S
C1829 C1820 1.429 . S
C1829 N1826 1.350 . S
C1829 C1828 1.434 . S
C1830 C1831 1.369 . S
C1830 C1832 1.419 . S
C1830 H1834 0.930 . S
C1831 C1830 1.369 . S
C1831 C1840 1.429 . S
C1832 C1830 1.419 . S
C1832 C1833 1.363 . S
C1832 H1835 0.929 . S
C1833 C1832 1.363 . S
C1833 C1839 1.428 . S
H1834 C1830 0.930 . S
H1835 C1832 0.929 . S
S1836 N1837 1.613 . S
S1836 N1838 1.610 . S
N1837 S1836 1.613 . S
N1837 C1840 1.350 . S
N1838 S1836 1.610 . S
N1838 C1839 1.351 . S
C1839 C1833 1.428 . S
C1839 N1838 1.351 . S
C1839 C1840 1.434 . S
C1840 C1831 1.429 . S
C1840 N1837 1.350 . S
C1840 C1839 1.434 . S
C1841 C1842 1.369 . S
C1841 C1843 1.419 . S
C1841 H1845 0.930 . S
C1842 C1841 1.369 . S
C1842 C1851 1.429 . S
C1843 C1841 1.419 . S
C1843 C1844 1.363 . S
C1843 H1846 0.929 . S
C1844 C1843 1.363 . S
C1844 C1850 1.428 . S
H1845 C1841 0.930 . S
H1846 C1843 0.929 . S
S1847 N1848 1.613 . S
S1847 N1849 1.610 . S
N1848 S1847 1.613 . S
N1848 C1851 1.350 . S
N1849 S1847 1.610 . S
N1849 C1850 1.351 . S
C1850 C1844 1.428 . S
C1850 N1849 1.351 . S
C1850 C1851 1.434 . S
C1851 C1842 1.429 . S
C1851 N1848 1.350 . S
C1851 C1850 1.434 . S
C1852 C1853 1.369 . S
C1852 C1854 1.419 . S
C1852 H1856 0.930 . S
C1853 C1852 1.369 . S
C1853 C1862 1.429 . S
C1854 C1852 1.419 . S
C1854 C1855 1.363 . S
C1854 H1857 0.929 . S
C1855 C1854 1.363 . S
C1855 C1861 1.428 . S
H1856 C1852 0.930 . S
H1857 C1854 0.929 . S
S1858 N1859 1.613 . S
S1858 N1860 1.610 1_655 S
N1859 S1858 1.613 . S
N1859 C1862 1.350 1_655 S
N1860 S1858 1.610 1_455 S
N1860 C1861 1.351 . S
C1861 C1855 1.428 . S
C1861 N1860 1.351 . S
C1861 C1862 1.434 . S
C1862 C1853 1.429 . S
C1862 N1859 1.350 1_455 S
C1862 C1861 1.434 . S
C1863 C1864 1.369 . S
C1863 C1865 1.419 . S
C1863 H1867 0.930 . S
C1864 C1863 1.369 . S
C1864 C1873 1.429 . S
C1865 C1863 1.419 . S
C1865 C1866 1.363 . S
C1865 H1868 0.929 . S
C1866 C1865 1.363 . S
C1866 C1872 1.428 . S
H1867 C1863 0.930 . S
H1868 C1865 0.929 . S
S1869 N1870 1.613 . S
S1869 N1871 1.610 . S
N1870 S1869 1.613 . S
N1870 C1873 1.350 . S
N1871 S1869 1.610 . S
N1871 C1872 1.351 . S
C1872 C1866 1.428 . S
C1872 N1871 1.351 . S
C1872 C1873 1.434 . S
C1873 C1864 1.429 . S
C1873 N1870 1.350 . S
C1873 C1872 1.434 . S
C1874 C1875 1.369 . S
C1874 C1876 1.419 . S
C1874 H1878 0.930 . S
C1875 C1874 1.369 . S
C1875 C1884 1.429 . S
C1876 C1874 1.419 . S
C1876 C1877 1.363 . S
C1876 H1879 0.929 . S
C1877 C1876 1.363 . S
C1877 C1883 1.428 . S
H1878 C1874 0.930 . S
H1879 C1876 0.929 . S
S1880 N1881 1.613 . S
S1880 N1882 1.610 . S
N1881 S1880 1.613 . S
N1881 C1884 1.350 . S
N1882 S1880 1.610 . S
N1882 C1883 1.351 . S
C1883 C1877 1.428 . S
C1883 N1882 1.351 . S
C1883 C1884 1.434 . S
C1884 C1875 1.429 . S
C1884 N1881 1.350 . S
C1884 C1883 1.434 . S
C1885 C1886 1.369 . S
C1885 C1887 1.419 . S
C1885 H1889 0.930 . S
C1886 C1885 1.369 . S
C1886 C1895 1.429 . S
C1887 C1885 1.419 . S
C1887 C1888 1.363 . S
C1887 H1890 0.929 . S
C1888 C1887 1.363 . S
C1888 C1894 1.428 . S
H1889 C1885 0.930 . S
H1890 C1887 0.929 . S
S1891 N1892 1.613 . S
S1891 N1893 1.610 . S
N1892 S1891 1.613 . S
N1892 C1895 1.350 . S
N1893 S1891 1.610 . S
N1893 C1894 1.351 . S
C1894 C1888 1.428 . S
C1894 N1893 1.351 . S
C1894 C1895 1.434 . S
C1895 C1886 1.429 . S
C1895 N1892 1.350 . S
C1895 C1894 1.434 . S
C1896 C1897 1.369 1_655 S
C1896 C1898 1.419 . S
C1896 H1900 0.930 . S
C1897 C1896 1.369 1_455 S
C1897 C1906 1.429 . S
C1898 C1896 1.419 . S
C1898 C1899 1.363 . S
C1898 H1901 0.929 . S
C1899 C1898 1.363 . S
C1899 C1905 1.428 1_655 S
H1900 C1896 0.930 . S
H1901 C1898 0.929 . S
S1902 N1903 1.613 . S
S1902 N1904 1.610 . S
N1903 S1902 1.613 . S
N1903 C1906 1.350 . S
N1904 S1902 1.610 . S
N1904 C1905 1.351 . S
C1905 C1899 1.428 1_455 S
C1905 N1904 1.351 . S
C1905 C1906 1.434 . S
C1906 C1897 1.429 . S
C1906 N1903 1.350 . S
C1906 C1905 1.434 . S
C1907 C1908 1.369 . S
C1907 C1909 1.419 . S
C1907 H1911 0.930 . S
C1908 C1907 1.369 . S
C1908 C1917 1.429 . S
C1909 C1907 1.419 . S
C1909 C1910 1.363 . S
C1909 H1912 0.929 . S
C1910 C1909 1.363 . S
C1910 C1916 1.428 . S
H1911 C1907 0.930 . S
H1912 C1909 0.929 . S
S1913 N1914 1.613 . S
S1913 N1915 1.610 . S
N1914 S1913 1.613 . S
N1914 C1917 1.350 . S
N1915 S1913 1.610 . S
N1915 C1916 1.351 . S
C1916 C1910 1.428 . S
C1916 N1915 1.351 . S
C1916 C1917 1.434 . S
C1917 C1908 1.429 . S
C1917 N1914 1.350 . S
C1917 C1916 1.434 . S
C1918 C1919 1.369 . S
C1918 C1920 1.419 . S
C1918 H1922 0.930 . S
C1919 C1918 1.369 . S
C1919 C1928 1.429 . S
C1920 C1918 1.419 . S
C1920 C1921 1.363 . S
C1920 H1923 0.929 . S
C1921 C1920 1.363 . S
C1921 C1927 1.428 . S
H1922 C1918 0.930 . S
H1923 C1920 0.929 . S
S1924 N1925 1.613 . S
S1924 N1926 1.610 . S
N1925 S1924 1.613 . S
N1925 C1928 1.350 . S
N1926 S1924 1.610 . S
N1926 C1927 1.351 . S
C1927 C1921 1.428 . S
C1927 N1926 1.351 . S
C1927 C1928 1.434 . S
C1928 C1919 1.429 . S
C1928 N1925 1.350 . S
C1928 C1927 1.434 . S
C1929 C1930 1.369 . S
C1929 C1931 1.419 . S
C1929 H1933 0.930 . S
C1930 C1929 1.369 . S
C1930 C1939 1.429 . S
C1931 C1929 1.419 . S
C1931 C1932 1.363 . S
C1931 H1934 0.929 . S
C1932 C1931 1.363 . S
C1932 C1938 1.428 . S
H1933 C1929 0.930 . S
H1934 C1931 0.929 . S
S1935 N1936 1.613 . S
S1935 N1937 1.610 . S
N1936 S1935 1.613 . S
N1936 C1939 1.350 . S
N1937 S1935 1.610 . S
N1937 C1938 1.351 . S
C1938 C1932 1.428 . S
C1938 N1937 1.351 . S
C1938 C1939 1.434 . S
C1939 C1930 1.429 . S
C1939 N1936 1.350 . S
C1939 C1938 1.434 . S
C1940 C1941 1.369 . S
C1940 C1942 1.419 . S
C1940 H1944 0.930 1_655 S
C1941 C1940 1.369 . S
C1941 C1950 1.429 . S
C1942 C1940 1.419 . S
C1942 C1943 1.363 . S
C1942 H1945 0.929 . S
C1943 C1942 1.363 . S
C1943 C1949 1.428 . S
H1944 C1940 0.930 1_455 S
H1945 C1942 0.929 . S
S1946 N1947 1.613 . S
S1946 N1948 1.610 . S
N1947 S1946 1.613 . S
N1947 C1950 1.350 . S
N1948 S1946 1.610 . S
N1948 C1949 1.351 . S
C1949 C1943 1.428 . S
C1949 N1948 1.351 . S
C1949 C1950 1.434 . S
C1950 C1941 1.429 . S
C1950 N1947 1.350 . S
C1950 C1949 1.434 . S
C1951 C1952 1.369 . S
C1951 C1953 1.419 . S
C1951 H1955 0.930 . S
C1952 C1951 1.369 . S
C1952 C1961 1.429 . S
C1953 C1951 1.419 . S
C1953 C1954 1.363 . S
C1953 H1956 0.929 . S
C1954 C1953 1.363 . S
C1954 C1960 1.428 . S
H1955 C1951 0.930 . S
H1956 C1953 0.929 . S
S1957 N1958 1.613 . S
S1957 N1959 1.610 . S
N1958 S1957 1.613 . S
N1958 C1961 1.350 . S
N1959 S1957 1.610 . S
N1959 C1960 1.351 . S
C1960 C1954 1.428 . S
C1960 N1959 1.351 . S
C1960 C1961 1.434 . S
C1961 C1952 1.429 . S
C1961 N1958 1.350 . S
C1961 C1960 1.434 . S
C1962 C1963 1.369 . S
C1962 C1964 1.419 . S
C1962 H1966 0.930 . S
C1963 C1962 1.369 . S
C1963 C1972 1.429 . S
C1964 C1962 1.419 . S
C1964 C1965 1.363 . S
C1964 H1967 0.929 . S
C1965 C1964 1.363 . S
C1965 C1971 1.428 . S
H1966 C1962 0.930 . S
H1967 C1964 0.929 . S
S1968 N1969 1.613 . S
S1968 N1970 1.610 . S
N1969 S1968 1.613 . S
N1969 C1972 1.350 . S
N1970 S1968 1.610 . S
N1970 C1971 1.351 . S
C1971 C1965 1.428 . S
C1971 N1970 1.351 . S
C1971 C1972 1.434 . S
C1972 C1963 1.429 . S
C1972 N1969 1.350 . S
C1972 C1971 1.434 . S
C1973 C1974 1.369 . S
C1973 C1975 1.419 . S
C1973 H1977 0.930 . S
C1974 C1973 1.369 . S
C1974 C1983 1.429 . S
C1975 C1973 1.419 . S
C1975 C1976 1.363 . S
C1975 H1978 0.929 . S
C1976 C1975 1.363 . S
C1976 C1982 1.428 . S
H1977 C1973 0.930 . S
H1978 C1975 0.929 . S
S1979 N1980 1.613 . S
S1979 N1981 1.610 . S
N1980 S1979 1.613 . S
N1980 C1983 1.350 . S
N1981 S1979 1.610 . S
N1981 C1982 1.351 . S
C1982 C1976 1.428 . S
C1982 N1981 1.351 . S
C1982 C1983 1.434 . S
C1983 C1974 1.429 . S
C1983 N1980 1.350 . S
C1983 C1982 1.434 . S
C1984 C1985 1.369 . S
C1984 C1986 1.419 . S
C1984 H1988 0.930 . S
C1985 C1984 1.369 . S
C1985 C1994 1.429 . S
C1986 C1984 1.419 . S
C1986 C1987 1.363 . S
C1986 H1989 0.929 . S
C1987 C1986 1.363 . S
C1987 C1993 1.428 . S
H1988 C1984 0.930 . S
H1989 C1986 0.929 . S
S1990 N1991 1.613 . S
S1990 N1992 1.610 . S
N1991 S1990 1.613 . S
N1991 C1994 1.350 . S
N1992 S1990 1.610 . S
N1992 C1993 1.351 . S
C1993 C1987 1.428 . S
C1993 N1992 1.351 . S
C1993 C1994 1.434 . S
C1994 C1985 1.429 . S
C1994 N1991 1.350 . S
C1994 C1993 1.434 . S
C1995 C1996 1.369 . S
C1995 C1997 1.419 . S
C1995 H1999 0.930 . S
C1996 C1995 1.369 . S
C1996 C2005 1.429 . S
C1997 C1995 1.419 . S
C1997 C1998 1.363 . S
C1997 H2000 0.929 . S
C1998 C1997 1.363 . S
C1998 C2004 1.428 . S
H1999 C1995 0.930 . S
H2000 C1997 0.929 . S
S2001 N2002 1.613 . S
S2001 N2003 1.610 . S
N2002 S2001 1.613 . S
N2002 C2005 1.350 . S
N2003 S2001 1.610 . S
N2003 C2004 1.351 . S
C2004 C1998 1.428 . S
C2004 N2003 1.351 . S
C2004 C2005 1.434 . S
C2005 C1996 1.429 . S
C2005 N2002 1.350 . S
C2005 C2004 1.434 . S
C2006 C2007 1.369 . S
C2006 C2008 1.417 . S
C2006 H2010 0.930 . S
C2007 C2006 1.369 . S
C2007 C2016 1.429 1_655 S
C2008 C2006 1.417 . S
C2008 C2009 1.366 1_655 S
C2008 H2011 0.928 . S
C2009 C2008 1.366 1_455 S
C2009 C2015 1.428 . S
H2010 C2006 0.930 . S
H2011 C2008 0.928 . S
S2012 N2013 1.613 . S
S2012 N2014 1.610 . S
N2013 S2012 1.613 . S
N2013 C2016 1.350 . S
N2014 S2012 1.610 . S
N2014 C2015 1.351 . S
C2015 C2009 1.428 . S
C2015 N2014 1.351 . S
C2015 C2016 1.434 . S
C2016 C2007 1.429 1_455 S
C2016 N2013 1.350 . S
C2016 C2015 1.434 . S
C2017 C2018 1.369 . S
C2017 C2019 1.419 . S
C2017 H2021 0.930 . S
C2018 C2017 1.369 . S
C2018 C2027 1.429 . S
C2019 C2017 1.419 . S
C2019 C2020 1.363 . S
C2019 H2022 0.929 . S
C2020 C2019 1.363 . S
C2020 C2026 1.428 . S
H2021 C2017 0.930 . S
H2022 C2019 0.929 . S
S2023 N2024 1.613 . S
S2023 N2025 1.610 . S
N2024 S2023 1.613 . S
N2024 C2027 1.350 . S
N2025 S2023 1.610 . S
N2025 C2026 1.351 . S
C2026 C2020 1.428 . S
C2026 N2025 1.351 . S
C2026 C2027 1.434 . S
C2027 C2018 1.429 . S
C2027 N2024 1.350 . S
C2027 C2026 1.434 . S
C2028 C2029 1.369 . S
C2028 C2030 1.419 . S
C2028 H2032 0.930 . S
C2029 C2028 1.369 . S
C2029 C2038 1.429 . S
C2030 C2028 1.419 . S
C2030 C2031 1.363 . S
C2030 H2033 0.929 . S
C2031 C2030 1.363 . S
C2031 C2037 1.428 . S
H2032 C2028 0.930 . S
H2033 C2030 0.929 . S
S2034 N2035 1.613 . S
S2034 N2036 1.610 . S
N2035 S2034 1.613 . S
N2035 C2038 1.350 . S
N2036 S2034 1.610 . S
N2036 C2037 1.351 . S
C2037 C2031 1.428 . S
C2037 N2036 1.351 . S
C2037 C2038 1.434 . S
C2038 C2029 1.429 . S
C2038 N2035 1.350 . S
C2038 C2037 1.434 . S
C2039 C2040 1.369 . S
C2039 C2041 1.419 . S
C2039 H2043 0.930 . S
C2040 C2039 1.369 . S
C2040 C2049 1.429 . S
C2041 C2039 1.419 . S
C2041 C2042 1.363 . S
C2041 H2044 0.929 . S
C2042 C2041 1.363 . S
C2042 C2048 1.428 . S
H2043 C2039 0.930 . S
H2044 C2041 0.929 . S
S2045 N2046 1.613 . S
S2045 N2047 1.610 . S
N2046 S2045 1.613 . S
N2046 C2049 1.350 . S
N2047 S2045 1.610 . S
N2047 C2048 1.351 . S
C2048 C2042 1.428 . S
C2048 N2047 1.351 . S
C2048 C2049 1.434 . S
C2049 C2040 1.429 . S
C2049 N2046 1.350 . S
C2049 C2048 1.434 . S
C2050 C2051 1.369 . S
C2050 C2052 1.419 . S
C2050 H2054 0.930 1_655 S
C2051 C2050 1.369 . S
C2051 C2060 1.429 . S
C2052 C2050 1.419 . S
C2052 C2053 1.363 . S
C2052 H2055 0.929 . S
C2053 C2052 1.363 . S
C2053 C2059 1.428 . S
H2054 C2050 0.930 1_455 S
H2055 C2052 0.929 . S
S2056 N2057 1.613 . S
S2056 N2058 1.610 . S
N2057 S2056 1.613 . S
N2057 C2060 1.350 . S
N2058 S2056 1.610 . S
N2058 C2059 1.351 . S
C2059 C2053 1.428 . S
C2059 N2058 1.351 . S
C2059 C2060 1.434 . S
C2060 C2051 1.429 . S
C2060 N2057 1.350 . S
C2060 C2059 1.434 . S
C2061 C2062 1.369 . S
C2061 C2063 1.419 . S
C2061 H2065 0.930 . S
C2062 C2061 1.369 . S
C2062 C2071 1.429 . S
C2063 C2061 1.419 . S
C2063 C2064 1.363 . S
C2063 H2066 0.929 . S
C2064 C2063 1.363 . S
C2064 C2070 1.428 . S
H2065 C2061 0.930 . S
H2066 C2063 0.929 . S
S2067 N2068 1.613 . S
S2067 N2069 1.610 . S
N2068 S2067 1.613 . S
N2068 C2071 1.350 . S
N2069 S2067 1.610 . S
N2069 C2070 1.351 . S
C2070 C2064 1.428 . S
C2070 N2069 1.351 . S
C2070 C2071 1.434 . S
C2071 C2062 1.429 . S
C2071 N2068 1.350 . S
C2071 C2070 1.434 . S
C2072 C2073 1.369 . S
C2072 C2074 1.419 . S
C2072 H2076 0.930 . S
C2073 C2072 1.369 . S
C2073 C2082 1.429 . S
C2074 C2072 1.419 . S
C2074 C2075 1.363 . S
C2074 H2077 0.929 . S
C2075 C2074 1.363 . S
C2075 C2081 1.428 . S
H2076 C2072 0.930 . S
H2077 C2074 0.929 . S
S2078 N2079 1.613 . S
S2078 N2080 1.610 . S
N2079 S2078 1.613 . S
N2079 C2082 1.350 . S
N2080 S2078 1.610 . S
N2080 C2081 1.351 . S
C2081 C2075 1.428 . S
C2081 N2080 1.351 . S
C2081 C2082 1.434 . S
C2082 C2073 1.429 . S
C2082 N2079 1.350 . S
C2082 C2081 1.434 . S
C2083 C2084 1.369 . S
C2083 C2085 1.419 . S
C2083 H2087 0.930 . S
C2084 C2083 1.369 . S
C2084 C2093 1.429 . S
C2085 C2083 1.419 . S
C2085 C2086 1.363 . S
C2085 H2088 0.929 . S
C2086 C2085 1.363 . S
C2086 C2092 1.428 . S
H2087 C2083 0.930 . S
H2088 C2085 0.929 . S
S2089 N2090 1.613 . S
S2089 N2091 1.610 . S
N2090 S2089 1.613 . S
N2090 C2093 1.350 . S
N2091 S2089 1.610 . S
N2091 C2092 1.351 . S
C2092 C2086 1.428 . S
C2092 N2091 1.351 . S
C2092 C2093 1.434 . S
C2093 C2084 1.429 . S
C2093 N2090 1.350 . S
C2093 C2092 1.434 . S
C2094 C2095 1.369 1_655 S
C2094 C2096 1.419 . S
C2094 H2098 0.930 . S
C2095 C2094 1.369 1_455 S
C2095 C2104 1.429 . S
C2096 C2094 1.419 . S
C2096 C2097 1.363 . S
C2096 H2099 0.929 . S
C2097 C2096 1.363 . S
C2097 C2103 1.428 1_655 S
H2098 C2094 0.930 . S
H2099 C2096 0.929 . S
S2100 N2101 1.613 . S
S2100 N2102 1.610 . S
N2101 S2100 1.613 . S
N2101 C2104 1.350 . S
N2102 S2100 1.610 . S
N2102 C2103 1.351 . S
C2103 C2097 1.428 1_455 S
C2103 N2102 1.351 . S
C2103 C2104 1.434 . S
C2104 C2095 1.429 . S
C2104 N2101 1.350 . S
C2104 C2103 1.434 . S
C2105 C2106 1.369 . S
C2105 C2107 1.419 . S
C2105 H2109 0.930 . S
C2106 C2105 1.369 . S
C2106 C2115 1.429 . S
C2107 C2105 1.419 . S
C2107 C2108 1.363 . S
C2107 H2110 0.929 . S
C2108 C2107 1.363 . S
C2108 C2114 1.428 . S
H2109 C2105 0.930 . S
H2110 C2107 0.929 . S
S2111 N2112 1.613 . S
S2111 N2113 1.610 . S
N2112 S2111 1.613 . S
N2112 C2115 1.350 . S
N2113 S2111 1.610 . S
N2113 C2114 1.351 . S
C2114 C2108 1.428 . S
C2114 N2113 1.351 . S
C2114 C2115 1.434 . S
C2115 C2106 1.429 . S
C2115 N2112 1.350 . S
C2115 C2114 1.434 . S
C2116 C2117 1.369 . S
C2116 C2118 1.419 . S
C2116 H2120 0.930 . S
C2117 C2116 1.369 . S
C2117 C2126 1.429 . S
C2118 C2116 1.419 . S
C2118 C2119 1.363 . S
C2118 H2121 0.929 . S
C2119 C2118 1.363 . S
C2119 C2125 1.428 . S
H2120 C2116 0.930 . S
H2121 C2118 0.929 . S
S2122 N2123 1.613 . S
S2122 N2124 1.610 . S
N2123 S2122 1.613 . S
N2123 C2126 1.350 . S
N2124 S2122 1.610 . S
N2124 C2125 1.351 . S
C2125 C2119 1.428 . S
C2125 N2124 1.351 . S
C2125 C2126 1.434 . S
C2126 C2117 1.429 . S
C2126 N2123 1.350 . S
C2126 C2125 1.434 . S
C2127 C2128 1.369 . S
C2127 C2129 1.419 . S
C2127 H2131 0.930 . S
C2128 C2127 1.369 . S
C2128 C2137 1.429 . S
C2129 C2127 1.419 . S
C2129 C2130 1.363 . S
C2129 H2132 0.929 . S
C2130 C2129 1.363 . S
C2130 C2136 1.428 . S
H2131 C2127 0.930 . S
H2132 C2129 0.929 . S
S2133 N2134 1.613 . S
S2133 N2135 1.610 . S
N2134 S2133 1.613 . S
N2134 C2137 1.350 . S
N2135 S2133 1.610 . S
N2135 C2136 1.351 . S
C2136 C2130 1.428 . S
C2136 N2135 1.351 . S
C2136 C2137 1.434 . S
C2137 C2128 1.429 . S
C2137 N2134 1.350 . S
C2137 C2136 1.434 . S
C2138 C2139 1.369 . S
C2138 C2140 1.419 . S
C2138 H2142 0.930 . S
C2139 C2138 1.369 . S
C2139 C2148 1.429 . S
C2140 C2138 1.419 . S
C2140 C2141 1.363 . S
C2140 H2143 0.929 . S
C2141 C2140 1.363 . S
C2141 C2147 1.424 1_455 S
H2142 C2138 0.930 . S
H2143 C2140 0.929 . S
S2144 N2145 1.607 1_655 S
S2144 N2146 1.610 . S
N2145 S2144 1.607 1_455 S
N2145 C2148 1.354 . S
N2146 S2144 1.610 . S
N2146 C2147 1.359 . S
C2147 C2141 1.424 1_655 S
C2147 N2146 1.359 . S
C2147 C2148 1.429 1_655 S
C2148 C2139 1.429 . S
C2148 N2145 1.354 . S
C2148 C2147 1.429 1_455 S
C2149 C2150 1.369 . S
C2149 C2151 1.419 . S
C2149 H2153 0.930 . S
C2150 C2149 1.369 . S
C2150 C2159 1.429 . S
C2151 C2149 1.419 . S
C2151 C2152 1.363 . S
C2151 H2154 0.929 . S
C2152 C2151 1.363 . S
C2152 C2158 1.428 . S
H2153 C2149 0.930 . S
H2154 C2151 0.929 . S
S2155 N2156 1.613 . S
S2155 N2157 1.610 . S
N2156 S2155 1.613 . S
N2156 C2159 1.350 . S
N2157 S2155 1.610 . S
N2157 C2158 1.351 . S
C2158 C2152 1.428 . S
C2158 N2157 1.351 . S
C2158 C2159 1.434 . S
C2159 C2150 1.429 . S
C2159 N2156 1.350 . S
C2159 C2158 1.434 . S
C2160 C2161 1.369 . S
C2160 C2162 1.419 . S
C2160 H2164 0.930 . S
C2161 C2160 1.369 . S
C2161 C2170 1.429 . S
C2162 C2160 1.419 . S
C2162 C2163 1.363 . S
C2162 H2165 0.929 . S
C2163 C2162 1.363 . S
C2163 C2169 1.428 . S
H2164 C2160 0.930 . S
H2165 C2162 0.929 . S
S2166 N2167 1.613 . S
S2166 N2168 1.610 . S
N2167 S2166 1.613 . S
N2167 C2170 1.350 . S
N2168 S2166 1.610 . S
N2168 C2169 1.351 . S
C2169 C2163 1.428 . S
C2169 N2168 1.351 . S
C2169 C2170 1.434 . S
C2170 C2161 1.429 . S
C2170 N2167 1.350 . S
C2170 C2169 1.434 . S
C2171 C2172 1.369 . S
C2171 C2173 1.395 1_556 S
C2171 H2175 0.930 . S
C2172 C2171 1.369 . S
C2172 C2181 1.429 . S
C2173 C2171 1.395 1_554 S
C2173 C2174 1.376 . S
C2173 H2176 0.941 . S
C2174 C2173 1.376 . S
C2174 C2180 1.436 . S
H2175 C2171 0.930 . S
H2176 C2173 0.941 . S
S2177 N2178 1.613 . S
S2177 N2179 1.610 1_556 S
N2178 S2177 1.613 . S
N2178 C2181 1.350 . S
N2179 S2177 1.610 1_554 S
N2179 C2180 1.356 . S
C2180 C2174 1.436 . S
C2180 N2179 1.356 . S
C2180 C2181 1.419 1_554 S
C2181 C2172 1.429 . S
C2181 N2178 1.350 . S
C2181 C2180 1.419 1_556 S
C2182 C2183 1.369 . S
C2182 C2184 1.419 . S
C2182 H2186 0.930 . S
C2183 C2182 1.369 . S
C2183 C2192 1.429 . S
C2184 C2182 1.419 . S
C2184 C2185 1.363 . S
C2184 H2187 0.929 . S
C2185 C2184 1.363 . S
C2185 C2191 1.428 . S
H2186 C2182 0.930 . S
H2187 C2184 0.929 . S
S2188 N2189 1.613 . S
S2188 N2190 1.610 . S
N2189 S2188 1.613 . S
N2189 C2192 1.350 . S
N2190 S2188 1.610 . S
N2190 C2191 1.351 . S
C2191 C2185 1.428 . S
C2191 N2190 1.351 . S
C2191 C2192 1.434 . S
C2192 C2183 1.429 . S
C2192 N2189 1.350 . S
C2192 C2191 1.434 . S
C2193 C2194 1.369 . S
C2193 C2195 1.419 . S
C2193 H2197 0.930 . S
C2194 C2193 1.369 . S
C2194 C2203 1.429 . S
C2195 C2193 1.419 . S
C2195 C2196 1.363 . S
C2195 H2198 0.929 . S
C2196 C2195 1.363 . S
C2196 C2202 1.428 . S
H2197 C2193 0.930 . S
H2198 C2195 0.929 . S
S2199 N2200 1.613 . S
S2199 N2201 1.610 . S
N2200 S2199 1.613 . S
N2200 C2203 1.350 . S
N2201 S2199 1.610 . S
N2201 C2202 1.351 . S
C2202 C2196 1.428 . S
C2202 N2201 1.351 . S
C2202 C2203 1.434 . S
C2203 C2194 1.429 . S
C2203 N2200 1.350 . S
C2203 C2202 1.434 . S
C2204 C2205 1.369 . S
C2204 C2206 1.419 . S
C2204 H2208 0.930 . S
C2205 C2204 1.369 . S
C2205 C2214 1.429 . S
C2206 C2204 1.419 . S
C2206 C2207 1.363 . S
C2206 H2209 0.929 . S
C2207 C2206 1.363 . S
C2207 C2213 1.428 . S
H2208 C2204 0.930 . S
H2209 C2206 0.929 . S
S2210 N2211 1.613 . S
S2210 N2212 1.610 . S
N2211 S2210 1.613 . S
N2211 C2214 1.350 . S
N2212 S2210 1.610 . S
N2212 C2213 1.351 . S
C2213 C2207 1.428 . S
C2213 N2212 1.351 . S
C2213 C2214 1.434 . S
C2214 C2205 1.429 . S
C2214 N2211 1.350 . S
C2214 C2213 1.434 . S
C2215 C2216 1.369 . S
C2215 C2217 1.419 . S
C2215 H2219 0.930 . S
C2216 C2215 1.369 . S
C2216 C2225 1.429 . S
C2217 C2215 1.419 . S
C2217 C2218 1.363 . S
C2217 H2220 0.929 . S
C2218 C2217 1.363 . S
C2218 C2224 1.428 . S
H2219 C2215 0.930 . S
H2220 C2217 0.929 . S
S2221 N2222 1.613 . S
S2221 N2223 1.610 . S
N2222 S2221 1.613 . S
N2222 C2225 1.350 . S
N2223 S2221 1.610 . S
N2223 C2224 1.351 . S
C2224 C2218 1.428 . S
C2224 N2223 1.351 . S
C2224 C2225 1.434 . S
C2225 C2216 1.429 . S
C2225 N2222 1.350 . S
C2225 C2224 1.434 . S
C2226 C2227 1.369 . S
C2226 C2228 1.419 . S
C2226 H2230 0.930 . S
C2227 C2226 1.369 . S
C2227 C2236 1.429 . S
C2228 C2226 1.419 . S
C2228 C2229 1.363 . S
C2228 H2231 0.929 . S
C2229 C2228 1.363 . S
C2229 C2235 1.428 . S
H2230 C2226 0.930 . S
H2231 C2228 0.929 . S
S2232 N2233 1.613 1_554 S
S2232 N2234 1.610 . S
N2233 S2232 1.613 1_556 S
N2233 C2236 1.350 1_556 S
N2234 S2232 1.610 . S
N2234 C2235 1.351 . S
C2235 C2229 1.428 . S
C2235 N2234 1.351 . S
C2235 C2236 1.434 . S
C2236 C2227 1.429 . S
C2236 N2233 1.350 1_554 S
C2236 C2235 1.434 . S
C2237 C2238 1.369 . S
C2237 C2239 1.419 . S
C2237 H2241 0.930 . S
C2238 C2237 1.369 . S
C2238 C2247 1.429 . S
C2239 C2237 1.419 . S
C2239 C2240 1.363 . S
C2239 H2242 0.929 . S
C2240 C2239 1.363 . S
C2240 C2246 1.428 . S
H2241 C2237 0.930 . S
H2242 C2239 0.929 . S
S2243 N2244 1.613 . S
S2243 N2245 1.610 . S
N2244 S2243 1.613 . S
N2244 C2247 1.350 . S
N2245 S2243 1.610 . S
N2245 C2246 1.351 . S
C2246 C2240 1.428 . S
C2246 N2245 1.351 . S
C2246 C2247 1.434 . S
C2247 C2238 1.429 . S
C2247 N2244 1.350 . S
C2247 C2246 1.434 . S
C2248 C2249 1.369 1_545 S
C2248 C2250 1.419 . S
C2248 H2252 0.930 . S
C2249 C2248 1.369 1_565 S
C2249 C2258 1.429 . S
C2250 C2248 1.419 . S
C2250 C2251 1.363 . S
C2250 H2253 0.929 . S
C2251 C2250 1.363 . S
C2251 C2257 1.428 1_545 S
H2252 C2248 0.930 . S
H2253 C2250 0.929 . S
S2254 N2255 1.613 . S
S2254 N2256 1.610 . S
N2255 S2254 1.613 . S
N2255 C2258 1.350 . S
N2256 S2254 1.610 . S
N2256 C2257 1.351 . S
C2257 C2251 1.428 1_565 S
C2257 N2256 1.351 . S
C2257 C2258 1.434 . S
C2258 C2249 1.429 . S
C2258 N2255 1.350 . S
C2258 C2257 1.434 . S
C2259 C2260 1.369 . S
C2259 C2261 1.419 . S
C2259 H2263 0.930 . S
C2260 C2259 1.369 . S
C2260 C2269 1.429 . S
C2261 C2259 1.419 . S
C2261 C2262 1.363 . S
C2261 H2264 0.929 . S
C2262 C2261 1.363 . S
C2262 C2268 1.428 . S
H2263 C2259 0.930 . S
H2264 C2261 0.929 . S
S2265 N2266 1.613 . S
S2265 N2267 1.610 . S
N2266 S2265 1.613 . S
N2266 C2269 1.350 . S
N2267 S2265 1.610 . S
N2267 C2268 1.351 . S
C2268 C2262 1.428 . S
C2268 N2267 1.351 . S
C2268 C2269 1.434 . S
C2269 C2260 1.429 . S
C2269 N2266 1.350 . S
C2269 C2268 1.434 . S
C2270 C2271 1.369 . S
C2270 C2272 1.419 . S
C2270 H2274 0.930 . S
C2271 C2270 1.369 . S
C2271 C2280 1.420 1_545 S
C2272 C2270 1.419 . S
C2272 C2273 1.363 1_545 S
C2272 H2275 0.929 . S
C2273 C2272 1.363 1_565 S
C2273 C2279 1.428 . S
H2274 C2270 0.930 . S
H2275 C2272 0.929 . S
S2276 N2277 1.613 . S
S2276 N2278 1.610 . S
N2277 S2276 1.613 . S
N2277 C2280 1.354 . S
N2278 S2276 1.610 . S
N2278 C2279 1.351 . S
C2279 C2273 1.428 . S
C2279 N2278 1.351 . S
C2279 C2280 1.439 . S
C2280 C2271 1.420 1_565 S
C2280 N2277 1.354 . S
C2280 C2279 1.439 . S
C2281 C2282 1.369 . S
C2281 C2283 1.419 1_554 S
C2281 H2285 0.930 . S
C2282 C2281 1.369 . S
C2282 C2291 1.437 . S
C2283 C2281 1.419 1_556 S
C2283 C2284 1.363 . S
C2283 H2286 0.929 . S
C2284 C2283 1.363 . S
C2284 C2290 1.428 . S
H2285 C2281 0.930 . S
H2286 C2283 0.929 . S
S2287 N2288 1.613 1_556 S
S2287 N2289 1.610 . S
N2288 S2287 1.613 1_554 S
N2288 C2291 1.356 . S
N2289 S2287 1.610 . S
N2289 C2290 1.351 . S
C2290 C2284 1.428 . S
C2290 N2289 1.351 . S
C2290 C2291 1.419 1_556 S
C2291 C2282 1.437 . S
C2291 N2288 1.356 . S
C2291 C2290 1.419 1_554 S
C2292 C2293 1.369 1_545 S
C2292 C2294 1.419 . S
C2292 H2296 0.930 . S
C2293 C2292 1.369 1_565 S
C2293 C2302 1.429 . S
C2294 C2292 1.419 . S
C2294 C2295 1.363 . S
C2294 H2297 0.929 . S
C2295 C2294 1.363 . S
C2295 C2301 1.428 1_545 S
H2296 C2292 0.930 . S
H2297 C2294 0.929 . S
S2298 N2299 1.613 . S
S2298 N2300 1.610 . S
N2299 S2298 1.613 . S
N2299 C2302 1.350 . S
N2300 S2298 1.610 . S
N2300 C2301 1.351 . S
C2301 C2295 1.428 1_565 S
C2301 N2300 1.351 . S
C2301 C2302 1.434 . S
C2302 C2293 1.429 . S
C2302 N2299 1.350 . S
C2302 C2301 1.434 . S
C2303 C2304 1.369 . S
C2303 C2305 1.419 . S
C2303 H2307 0.930 . S
C2304 C2303 1.369 . S
C2304 C2313 1.429 . S
C2305 C2303 1.419 . S
C2305 C2306 1.363 . S
C2305 H2308 0.929 . S
C2306 C2305 1.363 . S
C2306 C2312 1.428 . S
H2307 C2303 0.930 . S
H2308 C2305 0.929 . S
S2309 N2310 1.613 . S
S2309 N2311 1.610 . S
N2310 S2309 1.613 . S
N2310 C2313 1.350 . S
N2311 S2309 1.610 . S
N2311 C2312 1.351 . S
C2312 C2306 1.428 . S
C2312 N2311 1.351 . S
C2312 C2313 1.434 . S
C2313 C2304 1.429 . S
C2313 N2310 1.350 . S
C2313 C2312 1.434 . S
C2314 C2315 1.369 . S
C2314 C2316 1.419 . S
C2314 H2318 0.930 . S
C2315 C2314 1.369 . S
C2315 C2324 1.429 . S
C2316 C2314 1.419 . S
C2316 C2317 1.363 1_565 S
C2316 H2319 0.929 . S
C2317 C2316 1.363 1_545 S
C2317 C2323 1.428 . S
H2318 C2314 0.930 . S
H2319 C2316 0.929 . S
S2320 N2321 1.613 . S
S2320 N2322 1.610 . S
N2321 S2320 1.613 . S
N2321 C2324 1.350 1_545 S
N2322 S2320 1.610 . S
N2322 C2323 1.351 . S
C2323 C2317 1.428 . S
C2323 N2322 1.351 . S
C2323 C2324 1.434 1_545 S
C2324 C2315 1.429 . S
C2324 N2321 1.350 1_565 S
C2324 C2323 1.434 1_565 S
C2325 C2326 1.369 . S
C2325 C2327 1.419 . S
C2325 H2329 0.930 . S
C2326 C2325 1.369 . S
C2326 C2335 1.429 . S
C2327 C2325 1.419 . S
C2327 C2328 1.363 . S
C2327 H2330 0.929 . S
C2328 C2327 1.363 . S
C2328 C2334 1.428 . S
H2329 C2325 0.930 . S
H2330 C2327 0.929 . S
S2331 N2332 1.613 . S
S2331 N2333 1.610 . S
N2332 S2331 1.613 . S
N2332 C2335 1.350 . S
N2333 S2331 1.610 . S
N2333 C2334 1.351 . S
C2334 C2328 1.428 . S
C2334 N2333 1.351 . S
C2334 C2335 1.434 . S
C2335 C2326 1.429 . S
C2335 N2332 1.350 . S
C2335 C2334 1.434 . S
C1281 C19 0.535 . S
C1283 C166 0.550 . S
C1292 C206 0.553 . S
C1294 C59 0.535 . S
C1303 C99 0.530 . S
C1305 C246 0.543 . S
C1314 C286 0.550 . S
C1316 C139 0.534 . S
C1325 C330 0.529 . S
C1327 C495 0.555 . S
C1336 C370 0.527 . S
C1338 C535 0.538 . S
C1347 C575 0.546 . S
C1349 C410 0.532 . S
C1358 C450 0.528 . S
C1360 C615 0.541 . S
C1369 C806 0.545 . S
C1371 C659 0.532 . S
C1380 C699 0.536 . S
C1382 C846 0.550 . S
C1391 C739 0.527 . S
C1393 C886 0.539 . S
C1402 C779 0.530 . S
C1404 C926 0.543 . S
C1413 C970 0.532 . S
C1415 C1135 0.545 . S
C1424 C1175 0.538 . S
C1426 C1010 0.528 . S
C1435 C1050 0.530 . S
C1437 C1215 0.555 . S
C1446 C1255 0.551 . S
C1448 C1090 0.535 . S
C1457 C858 1.862 . S
C1459 C9 1.819 . S
C1468 C898 1.861 . S
C1470 C49 1.817 . S
C1479 C938 1.861 . S
C1481 C89 1.819 . S
C1490 C129 1.806 . S
C1492 C818 1.872 1_556 S
C1501 C178 1.871 . S
C1503 C769 1.811 . S
C1512 C649 1.820 . S
C1514 C218 1.864 . S
C1523 C258 1.862 1_556 S
C1525 C689 1.818 . S
C1534 C298 1.862 . S
C1536 C729 1.818 . S
C1545 C338 1.815 . S
C1547 C1169 1.867 . S
C1556 C1209 1.872 . S
C1558 C378 1.810 . S
C1567 C1249 1.862 . S
C1569 C418 1.818 . S
C1578 C458 1.818 . S
C1580 C1129 1.863 . S
C1589 C489 1.872 . S
C1591 C1098 1.809 . S
C1600 C529 1.868 . S
C1602 C978 1.812 . S
C1611 C569 1.871 . S
C1613 C1018 1.809 . S
C1622 C609 1.863 . S
C1624 C1058 1.818 . S
C1633 C329 1.455 . S
C1635 C18 1.469 . S
C1644 C58 1.459 . S
C1646 C1009 1.466 . S
C1655 C409 1.470 . S
C1657 C98 1.457 . S
C1666 C138 1.471 . S
C1668 C1089 1.457 . S
C1677 C498 1.476 . S
C1679 C169 1.485 . S
C1688 C1178 1.485 . S
C1690 C209 1.478 . S
C1699 C249 1.484 . S
C1701 C578 1.479 . S
C1710 C289 1.480 . S
C1712 C1258 1.482 . S
C1721 C698 1.456 . S
C1723 C369 1.468 . S
C1732 C778 1.462 . S
C1734 C449 1.462 . S
C1743 C538 1.485 . S
C1745 C849 1.478 . S
C1754 C929 1.476 . S
C1756 C618 1.485 . S
C1765 C969 1.470 . S
C1767 C658 1.457 . S
C1776 C1049 1.456 . S
C1778 C738 1.468 . S
C1787 C1138 1.483 . S
C1789 C809 1.479 . S
C1798 C889 1.476 . S
C1800 C1218 1.485 . S
C1809 C10 2.162 1_556 S
C1811 C499 2.207 . S
C1820 C1179 2.208 . S
C1822 C50 2.164 . S
C1831 C579 2.206 . S
C1833 C90 2.163 . S
C1842 C130 2.162 . S
C1844 C1259 2.209 . S
C1853 C326 1.021 . S
C1855 C175 1.012 . S
C1864 C1006 1.023 . S
C1866 C215 1.015 . S
C1875 C406 1.012 . S
C1877 C255 1.013 . S
C1886 C1086 1.011 . S
C1888 C295 1.018 . S
C1897 C170 2.209 . S
C1899 C339 2.162 . S
C1908 C850 2.209 . S
C1910 C379 2.162 . S
C1919 C250 2.206 . S
C1921 C419 2.162 . S
C1930 C459 2.160 . S
C1932 C930 2.209 . S
C1941 C15 1.011 . S
C1943 C486 1.015 . S
C1952 C695 1.013 . S
C1954 C526 1.021 . S
C1963 C566 1.046 . S
C1965 C95 1.019 . S
C1974 C606 1.018 . S
C1976 C775 1.021 . S
C1985 C1139 2.210 . S
C1987 C650 2.162 . S
C1996 C539 2.206 . S
C1998 C690 2.162 . S
C2007 C730 2.165 1_556 S
C2009 C1219 2.208 . S
C2018 C619 2.208 . S
C2020 C770 2.160 . S
C2029 C815 1.021 . S
C2031 C966 1.019 . S
C2040 C855 1.012 . S
C2042 C366 1.020 . S
C2051 C1046 1.011 . S
C2053 C895 1.018 . S
C2062 C446 1.023 . S
C2064 C935 1.015 . S
C2073 C979 2.165 . S
C2075 C810 2.207 . S
C2084 C1019 2.165 . S
C2086 C210 2.206 . S
C2095 C1059 2.161 . S
C2097 C890 2.207 . S
C2106 C1099 2.161 . S
C2108 C290 2.209 . S
C2117 C655 1.019 . S
C2119 C1126 1.044 . S
C2128 C55 1.012 . S
C2130 C1166 1.020 . S
C2139 C1206 1.011 . S
C2141 C735 1.016 . S
C2150 C135 1.014 . S
C2152 C1246 1.021 . S
C2161 C179 2.145 . S
C2163 C6 2.121 . S
C2172 C219 2.145 . S
C2174 C46 2.122 . S
C2183 C86 2.118 . S
C2185 C259 2.143 . S
C2194 C299 2.145 . S
C2196 C126 2.119 . S
C2205 C490 2.143 . S
C2207 C335 2.121 . S
C2216 C375 2.121 . S
C2218 C530 2.143 . S
C2227 C415 2.119 1_554 S
C2229 C570 2.145 . S
C2238 C610 2.143 . S
C2240 C455 2.121 . S
C2249 C646 2.121 . S
C2251 C819 2.143 . S
C2260 C859 2.143 . S
C2262 C686 2.119 . S
C2271 C726 2.118 . S
C2273 C899 2.144 . S
C2282 C766 2.121 . S
C2284 C939 2.145 . S
C2293 C1130 2.145 . S
C2295 C975 2.120 1_554 S
C2304 C1170 2.143 . S
C2306 C1015 2.119 . S
C2315 C1055 2.118 . S
C2317 C1210 2.144 . S
C2326 C1250 2.143 . S
C2328 C1095 2.118 . S
