# Generated by pormake.
# Topology vmc, (5)-cn, num edge types: 1
# Building blocks:
#     Node 0, Type 0, BuildingBlock: BEQFEK_clean_sbu_0, # of connection points: 5
#     Node 1, Type 0, BuildingBlock: BEQFEK_clean_sbu_0, # of connection points: 5
#     Node 2, Type 0, BuildingBlock: BEQFEK_clean_sbu_0, # of connection points: 5
#     Node 3, Type 0, BuildingBlock: BEQFEK_clean_sbu_0, # of connection points: 5
#     Node 4, Type 0, BuildingBlock: BEQFEK_clean_sbu_0, # of connection points: 5
#     Node 5, Type 0, BuildingBlock: BEQFEK_clean_sbu_0, # of connection points: 5
#     Node 6, Type 0, BuildingBlock: BEQFEK_clean_sbu_0, # of connection points: 5
#     Node 7, Type 0, BuildingBlock: BEQFEK_clean_sbu_0, # of connection points: 5
#     Edge 8, Type (0, 0), BuildingBlock: XUDNAN_clean_linker_2, # of connection points: 2
#     Edge 9, Type (0, 0), BuildingBlock: XUDNAN_clean_linker_2, # of connection points: 2
#     Edge 10, Type (0, 0), BuildingBlock: XUDNAN_clean_linker_2, # of connection points: 2
#     Edge 11, Type (0, 0), BuildingBlock: XUDNAN_clean_linker_2, # of connection points: 2
#     Edge 12, Type (0, 0), BuildingBlock: XUDNAN_clean_linker_2, # of connection points: 2
#     Edge 13, Type (0, 0), BuildingBlock: XUDNAN_clean_linker_2, # of connection points: 2
#     Edge 14, Type (0, 0), BuildingBlock: XUDNAN_clean_linker_2, # of connection points: 2
#     Edge 15, Type (0, 0), BuildingBlock: XUDNAN_clean_linker_2, # of connection points: 2
#     Edge 16, Type (0, 0), BuildingBlock: XUDNAN_clean_linker_2, # of connection points: 2
#     Edge 17, Type (0, 0), BuildingBlock: XUDNAN_clean_linker_2, # of connection points: 2
#     Edge 18, Type (0, 0), BuildingBlock: XUDNAN_clean_linker_2, # of connection points: 2
#     Edge 19, Type (0, 0), BuildingBlock: XUDNAN_clean_linker_2, # of connection points: 2
#     Edge 20, Type (0, 0), BuildingBlock: XUDNAN_clean_linker_2, # of connection points: 2
#     Edge 21, Type (0, 0), BuildingBlock: XUDNAN_clean_linker_2, # of connection points: 2
#     Edge 22, Type (0, 0), BuildingBlock: XUDNAN_clean_linker_2, # of connection points: 2
#     Edge 23, Type (0, 0), BuildingBlock: XUDNAN_clean_linker_2, # of connection points: 2
#     Edge 24, Type (0, 0), BuildingBlock: XUDNAN_clean_linker_2, # of connection points: 2
#     Edge 25, Type (0, 0), BuildingBlock: XUDNAN_clean_linker_2, # of connection points: 2
#     Edge 26, Type (0, 0), BuildingBlock: XUDNAN_clean_linker_2, # of connection points: 2
#     Edge 27, Type (0, 0), BuildingBlock: XUDNAN_clean_linker_2, # of connection points: 2
# Relax obj value: 0.505
# Max RMSD: 0.273
# Mean RMSD: 0.273
data_MOF--net-vmc--node1-BEQFEK_clean_sbu_0--edge1-XUDNAN_clean_linker_2
_symmetry_space_group_name_H-M    P1
_symmetry_Int_Tables_number       1
_symmetry_cell_setting            triclinic
loop_
_symmetry_equiv_pos_as_xyz
'x, y, z'
_cell_length_a     49.163685
_cell_length_b     47.754334
_cell_length_c     27.319155
_cell_angle_alpha  89.964912
_cell_angle_beta   105.59471
_cell_angle_gamma 90.046845
loop_
_atom_site_label
_atom_site_type_symbol
_atom_site_fract_x
_atom_site_fract_y
_atom_site_fract_z
_atom_type_partial_charge
Co0 Co 0.38133 0.46093 0.12027 0.0
Co1 Co 0.34191 0.40881 0.11585 0.0
C2 C 0.40396 0.40392 0.15954 0.0
O3 O 0.40559 0.42979 0.15071 0.0
O4 O 0.38018 0.39147 0.14853 0.0
C5 C 0.42653 0.47891 0.08905 0.0
O6 O 0.42484 0.4522 0.07724 0.0
C7 C 0.31775 0.35414 0.07939 0.0
C8 C 0.27389 0.35756 0.08501 0.0
C9 C 0.29204 0.34006 0.06833 0.0
N10 N 0.3147 0.379 0.10046 0.0
N11 N 0.28853 0.38075 0.10435 0.0
C12 C 0.34528 0.34397 0.07236 0.0
H13 H 0.35296 0.35875 0.04771 0.0
H14 H 0.34371 0.32254 0.05634 0.0
H15 H 0.36121 0.34365 0.10979 0.0
C16 C 0.35173 0.46401 0.01186 0.0
N17 N 0.35672 0.4512 0.05729 0.0
N18 N 0.34094 0.4286 0.05339 0.0
C19 C 0.3258 0.42602 1.00418 0.0
C20 C 0.33209 0.44845 0.97643 0.0
C21 C 0.36673 0.49 1.00238 0.0
H22 H 0.37035 0.50421 0.03553 0.0
H23 H 0.3873 0.48407 0.99602 0.0
H24 H 0.35485 0.5017 0.96851 0.0
O25 O 0.35917 0.47315 0.16587 0.0
O26 O 0.3314 0.43609 0.16506 0.0
H27 H 0.29004 0.40143 0.00814 0.0
H28 H 0.29257 0.40763 0.94429 0.0
C29 C 0.30482 0.40331 0.98403 0.0
H30 H 0.31604 0.38312 0.98507 0.0
H31 H 0.28041 0.39815 0.11871 0.0
O32 O 0.40852 0.4893 0.10975 0.0
C33 C 0.33974 0.46079 0.18053 0.0
Co34 Co 0.61156 0.45911 0.38885 0.0
Co35 Co 0.65605 0.41101 0.39716 0.0
C36 C 0.59432 0.40233 0.34606 0.0
O37 O 0.58951 0.42755 0.35502 0.0
O38 O 0.61915 0.39213 0.36009 0.0
C39 C 0.55831 0.48589 0.36868 0.0
O40 O 0.55302 0.4715 0.32618 0.0
C41 C 0.68226 0.35841 0.44171 0.0
C42 C 0.72386 0.35935 0.42541 0.0
C43 C 0.70743 0.34365 0.44933 0.0
N44 N 0.68397 0.38191 0.4154 0.0
N45 N 0.70886 0.38225 0.40554 0.0
C46 C 0.6564 0.34974 0.45703 0.0
H47 H 0.63732 0.35995 0.43282 0.0
H48 H 0.65841 0.35619 0.49679 0.0
H49 H 0.65379 0.32665 0.45459 0.0
C50 C 0.63541 0.46068 0.49885 0.0
N51 N 0.63391 0.44903 0.45343 0.0
N52 N 0.65378 0.42999 0.45829 0.0
C53 C 0.66933 0.42973 0.5075 0.0
C54 C 0.65772 0.44878 0.53481 0.0
C55 C 0.61743 0.48474 0.50646 0.0
H56 H 0.59516 0.47767 0.49827 0.0
H57 H 0.62409 0.49327 0.5456 0.0
H58 H 0.61861 0.50179 0.47952 0.0
O59 O 0.63507 0.47318 0.3466 0.0
O60 O 0.66655 0.43922 0.34941 0.0
H61 H 0.70793 0.41208 0.49887 0.0
H62 H 0.7091 0.42212 0.56329 0.0
C63 C 0.69572 0.41302 0.52754 0.0
H64 H 0.69008 0.39143 0.53586 0.0
H65 H 0.71573 0.39826 0.38572 0.0
O66 O 0.58339 0.48661 0.39722 0.0
C67 C 0.65602 0.46314 0.33328 0.0
Co68 Co 0.60921 0.56135 0.89358 0.0
Co69 Co 0.65734 0.60523 0.89668 0.0
C70 C 0.59737 0.61764 0.84318 0.0
O71 O 0.59119 0.59302 0.85312 0.0
O72 O 0.62242 0.62696 0.85928 0.0
C73 C 0.56305 0.56021 0.92747 0.0
O74 O 0.57255 0.58603 0.93383 0.0
C75 C 0.68831 0.65541 0.9392 0.0
C76 C 0.72865 0.65197 0.91874 0.0
C77 C 0.71418 0.66858 0.94497 0.0
N78 N 0.68772 0.63189 0.91185 0.0
N79 N 0.71185 0.63003 0.89938 0.0
C80 C 0.66393 0.66551 0.95764 0.0
H81 H 0.64379 0.6567 0.93439 0.0
H82 H 0.66656 0.65856 0.99733 0.0
H83 H 0.66287 0.68873 0.95667 0.0
C84 C 0.63732 0.55836 1.002 0.0
N85 N 0.63408 0.57091 0.95669 0.0
N86 N 0.65501 0.58853 0.9594 0.0
C87 C 0.67271 0.58715 0.00697 0.0
C88 C 0.66156 0.56847 0.03557 0.0
C89 C 0.62014 0.53388 0.01103 0.0
H90 H 0.61449 0.52023 0.977 0.0
H91 H 0.60051 0.54166 0.01894 0.0
H92 H 0.63173 0.52117 0.04407 0.0
O93 O 0.63042 0.54166 0.85197 0.0
O94 O 0.66355 0.57379 0.85098 0.0
H95 H 0.71168 0.5995 0.99198 0.0
H96 H 0.71481 0.5903 0.05754 0.0
C97 C 0.70123 0.60059 0.02317 0.0
H98 H 0.69891 0.62287 0.03242 0.0
H99 H 0.71699 0.61363 0.87827 0.0
O100 O 0.57637 0.54225 0.90821 0.0
C101 C 0.65166 0.55005 0.83716 0.0
Co102 Co 0.39053 0.54746 0.60854 0.0
Co103 Co 0.34748 0.59371 0.6204 0.0
C104 C 0.41099 0.60244 0.65487 0.0
O105 O 0.41495 0.57815 0.63952 0.0
O106 O 0.3861 0.61144 0.65143 0.0
C107 C 0.44128 0.52089 0.59896 0.0
O108 O 0.45429 0.53869 0.63412 0.0
C109 C 0.31966 0.64589 0.58163 0.0
C110 C 0.28156 0.6465 0.6097 0.0
C111 C 0.29513 0.66095 0.57896 0.0
N112 N 0.32022 0.62334 0.61138 0.0
N113 N 0.29752 0.62396 0.62856 0.0
C114 C 0.34264 0.65288 0.55705 0.0
H115 H 0.36321 0.64485 0.58016 0.0
H116 H 0.33818 0.64272 0.51925 0.0
H117 H 0.3441 0.67585 0.55205 0.0
C118 C 0.35813 0.55024 0.5024 0.0
N119 N 0.36394 0.56006 0.55014 0.0
N120 N 0.34401 0.57749 0.55436 0.0
C121 C 0.3239 0.57804 0.50926 0.0
C122 C 0.33265 0.56124 0.47483 0.0
C123 C 0.37509 0.52819 0.48509 0.0
H124 H 0.39738 0.53518 0.49327 0.0
H125 H 0.36716 0.52368 0.44391 0.0
H126 H 0.37426 0.50858 0.50641 0.0
O127 O 0.37067 0.53092 0.65553 0.0
O128 O 0.34018 0.56329 0.66665 0.0
H129 H 0.28872 0.59147 0.53603 0.0
H130 H 0.27961 0.58074 0.47001 0.0
C131 C 0.29559 0.59164 0.50057 0.0
H132 H 0.29692 0.61363 0.48846 0.0
H133 H 0.29251 0.6086 0.65191 0.0
O134 O 0.4145 0.51936 0.58728 0.0
C135 C 0.35131 0.53893 0.67548 0.0
Co136 Co 0.90001 0.95622 0.13658 0.0
Co137 Co 0.85123 0.91202 0.12261 0.0
C138 C 0.91087 0.89683 0.17373 0.0
O139 O 0.91797 0.92197 0.16901 0.0
O140 O 0.88543 0.88863 0.15648 0.0
C141 C 0.95484 0.97207 0.13095 0.0
O142 O 0.96023 0.94546 0.14113 0.0
C143 C 0.81642 0.8617 0.08525 0.0
C144 C 0.77702 0.87238 0.10512 0.0
C145 C 0.78995 0.85125 0.08484 0.0
N146 N 0.81893 0.88774 0.10498 0.0
N147 N 0.79513 0.89406 0.11613 0.0
C148 C 0.83973 0.84639 0.07106 0.0
H149 H 0.85944 0.85891 0.08047 0.0
H150 H 0.83358 0.84227 0.0296 0.0
H151 H 0.84338 0.82589 0.0909 0.0
C152 C 0.87612 0.96176 0.02604 0.0
N153 N 0.87663 0.94932 0.0705 0.0
N154 N 0.85599 0.93092 0.06338 0.0
C155 C 0.84161 0.93115 0.0136 0.0
C156 C 0.85382 0.95089 0.98844 0.0
C157 C 0.89748 0.98286 0.01959 0.0
H158 H 0.91872 0.97316 0.03082 0.0
H159 H 0.89355 0.99025 0.97987 0.0
H160 H 0.89745 1.00102 0.04486 0.0
O161 O 0.87774 0.97281 0.1788 0.0
O162 O 0.84398 0.94088 0.17223 0.0
H163 H 0.80524 0.92066 0.95169 0.0
H164 H 0.82199 0.89167 0.9908 0.0
C165 C 0.81584 0.91399 0.99112 0.0
H166 H 0.80087 0.91587 0.01492 0.0
H167 H 0.79157 0.91287 0.13282 0.0
O168 O 0.93072 0.98177 0.13083 0.0
C169 C 0.85579 0.96394 0.19026 0.0
Co170 Co 0.1156 0.9511 0.38167 0.0
Co171 Co 0.15964 0.90316 0.38725 0.0
C172 C 0.09789 0.89243 0.34686 0.0
O173 O 0.09369 0.91799 0.35478 0.0
O174 O 0.12282 0.88244 0.35657 0.0
C175 C 0.06978 0.96883 0.41302 0.0
O176 O 0.071 0.94224 0.42577 0.0
C177 C 0.19176 0.85087 0.42136 0.0
C178 C 0.23053 0.85883 0.39736 0.0
C179 C 0.21732 0.83894 0.41996 0.0
N180 N 0.19006 0.87665 0.40065 0.0
N181 N 0.21345 0.8813 0.38684 0.0
C182 C 0.16843 0.83717 0.43822 0.0
H183 H 0.14982 0.85116 0.43187 0.0
H184 H 0.17576 0.83209 0.47926 0.0
H185 H 0.16241 0.81722 0.41727 0.0
C186 C 0.14466 0.95594 0.48991 0.0
N187 N 0.14112 0.94333 0.44468 0.0
N188 N 0.15929 0.92261 0.44908 0.0
C189 C 0.17492 0.9214 0.49819 0.0
C190 C 0.16569 0.94225 0.52548 0.0
C191 C 0.12975 0.98207 0.49867 0.0
H192 H 0.10955 0.97633 0.50681 0.0
H193 H 0.14258 0.99396 0.5318 0.0
H194 H 0.12548 0.99578 0.46474 0.0
O195 O 0.13566 0.96508 0.33406 0.0
O196 O 0.16706 0.93128 0.33642 0.0
H197 H 0.21292 0.90095 0.49388 0.0
H198 H 0.21013 0.90629 0.55807 0.0
C199 C 0.19829 0.90103 0.5185 0.0
H200 H 0.18925 0.87974 0.51796 0.0
H201 H 0.2175 0.89963 0.3692 0.0
O202 O 0.08759 0.97841 0.39114 0.0
C203 C 0.15606 0.95484 0.31949 0.0
Co204 Co 0.11177 0.05037 0.88665 0.0
Co205 Co 0.15648 0.09754 0.88579 0.0
C206 C 0.09465 0.10915 0.84909 0.0
O207 O 0.09043 0.08397 0.85964 0.0
O208 O 0.11967 0.11859 0.85602 0.0
C209 C 0.05831 0.03122 0.89215 0.0
O210 O 0.04891 0.04852 0.85404 0.0
C211 C 0.19038 0.14939 0.91581 0.0
C212 C 0.22859 0.13913 0.89161 0.0
C213 C 0.21645 0.16005 0.9139 0.0
N214 N 0.18747 0.12339 0.8958 0.0
N215 N 0.21047 0.11743 0.88165 0.0
C216 C 0.16793 0.16417 0.93356 0.0
H217 H 0.14734 0.15339 0.91991 0.0
H218 H 0.17371 0.16429 0.97568 0.0
H219 H 0.16606 0.18623 0.92027 0.0
C220 C 0.14355 0.04683 0.99293 0.0
N221 N 0.1389 0.05911 0.9472 0.0
N222 N 0.1577 0.07898 0.94893 0.0
C223 C 0.17537 0.07955 0.99653 0.0
C224 C 0.16659 0.05941 0.02584 0.0
C225 C 0.12731 0.02214 1.00409 0.0
H226 H 0.12526 0.00617 0.97388 0.0
H227 H 0.10585 0.02905 1.00465 0.0
H228 H 0.13771 0.01233 0.04121 0.0
O229 O 0.13012 0.03463 0.8369 0.0
O230 O 0.16171 0.06805 0.8361 0.0
H231 H 0.21361 0.09658 0.98572 0.0
H232 H 0.2137 0.09238 0.05174 0.0
C233 C 0.20066 0.0981 0.01318 0.0
H234 H 0.1936 0.1201 0.01368 0.0
H235 H 0.21372 0.09858 0.86475 0.0
O236 O 0.08431 0.02482 0.90515 0.0
C237 C 0.15023 0.04445 0.82067 0.0
Co238 Co 0.8986 0.06436 0.62011 0.0
Co239 Co 0.84867 0.10448 0.62274 0.0
C240 C 0.90807 0.12177 0.66764 0.0
O241 O 0.91548 0.09763 0.65733 0.0
O242 O 0.88223 0.12899 0.65572 0.0
C243 C 0.94365 0.06383 0.58135 0.0
O244 O 0.93447 0.08976 0.57512 0.0
C245 C 0.81095 0.15305 0.59252 0.0
C246 C 0.77397 0.14079 0.61894 0.0
C247 C 0.7846 0.16233 0.59536 0.0
N248 N 0.8155 0.12727 0.61317 0.0
N249 N 0.79321 0.12003 0.6286 0.0
C250 C 0.83232 0.1691 0.57372 0.0
H251 H 0.85323 0.15879 0.58514 0.0
H252 H 0.82563 0.17004 0.53165 0.0
H253 H 0.83396 0.19088 0.58839 0.0
C254 C 0.86819 0.06096 0.51291 0.0
N255 N 0.87164 0.07261 0.55894 0.0
N256 N 0.85023 0.08926 0.55822 0.0
C257 C 0.83229 0.08858 0.51082 0.0
C258 C 0.84355 0.07104 0.48054 0.0
C259 C 0.88581 0.03738 0.50184 0.0
H260 H 0.89325 0.02384 0.53575 0.0
H261 H 0.9043 0.04613 0.4911 0.0
H262 H 0.87372 0.02423 0.46987 0.0
O263 O 0.88056 0.0421 0.66321 0.0
O264 O 0.84697 0.07209 0.67064 0.0
H265 H 0.79252 0.09849 0.52458 0.0
H266 H 0.79141 0.09552 0.45789 0.0
C267 C 0.80415 0.10272 0.49574 0.0
H268 H 0.8073 0.12563 0.49416 0.0
H269 H 0.79133 0.10109 0.64649 0.0
O270 O 0.93103 0.04643 0.60303 0.0
C271 C 0.86016 0.04877 0.68154 0.0
H272 H 0.32349 0.55032 0.74873 0.0
H273 H 0.35893 0.48242 0.68009 0.0
H274 H 0.34825 0.44931 0.74131 0.0
H275 H 0.35251 0.53021 0.87232 0.0
H276 H 0.32295 0.53989 0.89594 0.0
H277 H 0.32851 0.55729 0.84112 0.0
H278 H 0.27782 0.54367 0.78954 0.0
H279 H 0.27229 0.52596 0.8444 0.0
H280 H 0.26729 0.50738 0.78521 0.0
H281 H 0.34151 0.42511 0.81741 0.0
H282 H 0.34117 0.41274 0.90514 0.0
H283 H 0.30747 0.49458 0.92357 0.0
C284 C 0.32822 0.52835 0.74572 0.0
C285 C 0.34199 0.51902 0.70947 0.0
C286 C 0.34845 0.49017 0.70754 0.0
C287 C 0.34223 0.47108 0.74192 0.0
C288 C 0.32931 0.48098 0.77798 0.0
C289 C 0.32224 0.50893 0.78007 0.0
C290 C 0.31159 0.51464 0.82629 0.0
C291 C 0.33 0.5368 0.86094 0.0
C292 C 0.28039 0.52343 0.81039 0.0
C293 C 0.31516 0.48593 0.85105 0.0
C294 C 0.32491 0.46668 0.82203 0.0
C295 C 0.33318 0.43976 0.83992 0.0
C296 C 0.33278 0.43281 0.88964 0.0
C297 C 0.3243 0.45274 0.92074 0.0
C298 C 0.31389 0.47898 0.90017 0.0
H299 H 0.62861 0.44486 0.60549 0.0
H300 H 0.70735 0.47472 0.58247 0.0
H301 H 0.71774 0.49973 0.66495 0.0
H302 H 0.60975 0.50636 0.64848 0.0
H303 H 0.59328 0.49199 0.69444 0.0
H304 H 0.59504 0.47155 0.64019 0.0
H305 H 0.62057 0.43157 0.6989 0.0
H306 H 0.61848 0.45163 0.75364 0.0
H307 H 0.65219 0.43915 0.74849 0.0
H308 H 0.71509 0.528 0.74196 0.0
H309 H 0.70113 0.5548 0.8088 0.0
H310 H 0.62376 0.50632 0.78055 0.0
C311 C 0.64864 0.45561 0.61916 0.0
C312 C 0.66757 0.45739 0.58863 0.0
C313 C 0.69305 0.47252 0.60625 0.0
C314 C 0.69896 0.48693 0.65281 0.0
C315 C 0.67918 0.48581 0.68114 0.0
C316 C 0.65469 0.47016 0.66523 0.0
C317 C 0.63531 0.47485 0.69914 0.0
C318 C 0.60668 0.48691 0.66876 0.0
C319 C 0.63142 0.44768 0.72669 0.0
C320 C 0.65227 0.4962 0.73582 0.0
C321 C 0.6776 0.50215 0.72517 0.0
C322 C 0.6956 0.52304 0.75132 0.0
C323 C 0.68744 0.53825 0.7891 0.0
C324 C 0.66148 0.53251 0.8004 0.0
C325 C 0.644 0.51089 0.77369 0.0
H326 H 0.63429 0.51159 0.2858 0.0
H327 H 0.70128 0.45112 0.29433 0.0
H328 H 0.71557 0.47693 0.22641 0.0
H329 H 0.61352 0.51609 0.15485 0.0
H330 H 0.60469 0.55275 0.15315 0.0
H331 H 0.60293 0.5318 0.20684 0.0
H332 H 0.63703 0.56636 0.26687 0.0
H333 H 0.63909 0.58726 0.21303 0.0
H334 H 0.6709 0.57397 0.25621 0.0
H335 H 0.71863 0.50679 0.15003 0.0
H336 H 0.70808 0.53526 0.07105 0.0
H337 H 0.63912 0.57518 0.11431 0.0
C338 C 0.65241 0.50396 0.27442 0.0
C339 C 0.66679 0.47935 0.29586 0.0
C340 C 0.69002 0.46999 0.27881 0.0
C341 C 0.69835 0.48461 0.24036 0.0
C342 C 0.68331 0.50858 0.21955 0.0
C343 C 0.66079 0.51808 0.23616 0.0
C344 C 0.64606 0.54247 0.20467 0.0
C345 C 0.61499 0.53533 0.17833 0.0
C346 C 0.64843 0.56909 0.23715 0.0
C347 C 0.66334 0.54497 0.16677 0.0
C348 C 0.68504 0.52557 0.17618 0.0
C349 C 0.70213 0.52245 0.14311 0.0
C350 C 0.69622 0.53885 0.09863 0.0
C351 C 0.67339 0.55791 0.08778 0.0
C352 C 0.65734 0.56146 0.12293 0.0
H353 H 0.35183 0.51377 0.21739 0.0
H354 H 0.30051 0.44127 0.22836 0.0
H355 H 0.28407 0.46522 0.29556 0.0
H356 H 0.37662 0.52515 0.34464 0.0
H357 H 0.37712 0.5628 0.34042 0.0
H358 H 0.38022 0.54196 0.28758 0.0
H359 H 0.33709 0.56788 0.22942 0.0
H360 H 0.33365 0.58853 0.28267 0.0
H361 H 0.30407 0.5684 0.24628 0.0
H362 H 0.27975 0.49386 0.37094 0.0
H363 H 0.29074 0.52242 0.44946 0.0
H364 H 0.34386 0.57626 0.38745 0.0
C365 C 0.3366 0.50306 0.23292 0.0
C366 C 0.32743 0.4756 0.21739 0.0
C367 C 0.30777 0.46234 0.23938 0.0
C368 C 0.29818 0.47588 0.27739 0.0
C369 C 0.30817 0.50278 0.29249 0.0
C370 C 0.32691 0.5162 0.27067 0.0
C371 C 0.33731 0.54347 0.29737 0.0
C372 C 0.36971 0.5433 0.31878 0.0
C373 C 0.32743 0.56856 0.2618 0.0
C374 C 0.32255 0.54281 0.3393 0.0
C375 C 0.30532 0.51949 0.33534 0.0
C376 C 0.29246 0.5126 0.37353 0.0
C377 C 0.29854 0.52906 0.4178 0.0
C378 C 0.31735 0.55196 0.42337 0.0
C379 C 0.3284 0.5596 0.38279 0.0
H380 H 0.83978 1.00288 0.94869 0.0
H381 H 0.8517 0.91726 0.90688 0.0
H382 H 0.84832 0.9326 0.81872 0.0
H383 H 0.79136 0.02535 0.82282 0.0
H384 H 0.80741 0.05956 0.82788 0.0
H385 H 0.80555 0.04105 0.88443 0.0
H386 H 0.85973 0.04603 0.92052 0.0
H387 H 0.86187 0.06422 0.86403 0.0
H388 H 0.88266 0.03312 0.88404 0.0
H389 H 0.85255 0.95835 0.74096 0.0
H390 H 0.86031 0.99186 0.67708 0.0
H391 H 0.84411 0.06103 0.76797 0.0
C392 C 0.84065 0.98731 0.92033 0.0
C393 C 0.8458 0.9589 0.93408 0.0
C394 C 0.84739 0.93905 0.89665 0.0
C395 C 0.84561 0.94763 0.84666 0.0
C396 C 0.84182 0.97607 0.83477 0.0
C397 C 0.83887 0.99557 0.87036 0.0
C398 C 0.83761 0.02511 0.8494 0.0
C399 C 0.80876 0.03856 0.84592 0.0
C400 C 0.86191 0.04317 0.88139 0.0
C401 C 0.84135 0.01934 0.79706 0.0
C402 C 0.8436 0.9909 0.7893 0.0
C403 C 0.85008 0.98059 0.74607 0.0
C404 C 0.85458 0.99977 0.71011 0.0
C405 C 0.85234 0.02897 0.71725 0.0
C406 C 0.84514 0.0388 0.76088 0.0
H407 H 0.12268 1.00194 0.76005 0.0
H408 H 0.20051 0.04993 0.79552 0.0
H409 H 0.21688 0.02252 0.73204 0.0
H410 H 0.15188 0.93456 0.73489 0.0
H411 H 0.1217 0.92657 0.68257 0.0
H412 H 0.1175 0.94779 0.73458 0.0
H413 H 0.09491 0.98743 0.67165 0.0
H414 H 0.09854 0.96606 0.61967 0.0
H415 H 0.11367 1.00068 0.62814 0.0
H416 H 0.22292 0.99228 0.65924 0.0
H417 H 0.21552 0.96593 0.57842 0.0
H418 H 0.13404 0.93814 0.59157 0.0
C419 C 0.14339 0.00641 0.75516 0.0
C420 C 0.16042 0.02793 0.78314 0.0
C421 C 0.1871 0.03351 0.77461 0.0
C422 C 0.19667 0.01789 0.73891 0.0
C423 C 0.17931 0.99679 0.71196 0.0
C424 C 0.1531 0.99127 0.71941 0.0
C425 C 0.13723 0.96951 0.68232 0.0
C426 C 0.13177 0.94304 0.71028 0.0
C427 C 0.10947 0.98165 0.64846 0.0
C428 C 0.15838 0.96393 0.65222 0.0
C429 C 0.18275 0.97951 0.67024 0.0
C430 C 0.2042 0.97956 0.64547 0.0
C431 C 0.20003 0.96432 0.59998 0.0
C432 C 0.17461 0.94948 0.57994 0.0
C433 C 0.15407 0.94854 0.60733 0.0
H434 H 0.14188 0.06708 0.10118 0.0
H435 H 0.21494 0.03009 0.06733 0.0
H436 H 0.22411 1.00207 0.1466 0.0
H437 H 0.16796 0.0657 0.24504 0.0
H438 H 0.13316 0.05642 0.24951 0.0
H439 H 0.13719 0.07821 0.19802 0.0
H440 H 0.10641 0.04327 0.13383 0.0
H441 H 0.10298 0.02086 0.18465 0.0
H442 H 0.11709 0.00713 0.13513 0.0
H443 H 0.21916 0.97146 0.22038 0.0
H444 H 0.20312 0.94446 0.28506 0.0
H445 H 0.13246 1.00151 0.26761 0.0
C446 C 0.16079 0.05436 0.11229 0.0
C447 C 0.17827 0.05127 0.07943 0.0
C448 C 0.20196 0.03334 0.09319 0.0
C449 C 0.20708 0.01716 0.13782 0.0
C450 C 0.18832 0.01936 0.16803 0.0
C451 C 0.16592 0.03798 0.15619 0.0
C452 C 0.14655 0.03389 0.19022 0.0
C453 C 0.14621 0.06011 0.22264 0.0
C454 C 0.11651 0.02581 0.15911 0.0
C455 C 0.16108 0.00968 0.22241 0.0
C456 C 0.1852 1.00157 0.20946 0.0
C457 C 0.20065 0.97808 0.23155 0.0
C458 C 0.19129 0.96275 0.26801 0.0
C459 C 0.16665 0.97092 0.28181 0.0
C460 C 0.15162 0.99483 0.25867 0.0
H461 H 0.86787 0.0782 0.40448 0.0
H462 H 0.79598 0.03981 0.44056 0.0
H463 H 0.78708 0.01131 0.3619 0.0
H464 H 0.84095 0.07575 0.26087 0.0
H465 H 0.8758 0.06731 0.25567 0.0
H466 H 0.87165 0.08913 0.307 0.0
H467 H 0.9036 0.05517 0.3715 0.0
H468 H 0.90729 0.03283 0.32082 0.0
H469 H 0.89399 0.01873 0.37111 0.0
H470 H 0.79212 0.98078 0.28805 0.0
H471 H 0.80851 0.95369 0.22407 0.0
H472 H 0.87808 0.01198 0.23933 0.0
C473 C 0.84931 0.06495 0.39411 0.0
C474 C 0.83207 0.0617 0.42743 0.0
C475 C 0.80878 0.0432 0.41443 0.0
C476 C 0.80381 0.02676 0.37012 0.0
C477 C 0.82231 0.02925 0.33941 0.0
C478 C 0.84434 0.04832 0.35056 0.0
C479 C 0.8635 0.04461 0.31602 0.0
C480 C 0.86292 0.07075 0.28291 0.0
C481 C 0.89386 0.0374 0.34669 0.0
C482 C 0.84939 0.01998 0.28451 0.0
C483 C 0.82553 0.01147 0.29802 0.0
C484 C 0.81044 0.98768 0.27651 0.0
C485 C 0.81999 0.97232 0.24035 0.0
C486 C 0.84453 0.98071 0.22631 0.0
C487 C 0.85907 1.00507 0.24856 0.0
H488 H 0.47191 0.46179 0.05789 0.0
H489 H 0.4251 0.536 0.0781 0.0
H490 H 0.45486 0.56466 0.03745 0.0
H491 H 0.54085 0.49593 0.08099 0.0
H492 H 0.55109 0.47491 0.03416 0.0
H493 H 0.52721 0.46088 0.06776 0.0
H494 H 0.49089 0.45032 0.9816 0.0
H495 H 0.51439 0.46481 0.94775 0.0
H496 H 0.47902 0.47832 0.93665 0.0
H497 H 0.48755 0.58444 0.99061 0.0
H498 H 0.52396 0.59533 0.94675 0.0
H499 H 0.54935 0.50799 0.95639 0.0
C500 C 0.46811 0.48414 0.05429 0.0
C501 C 0.44621 0.49676 0.07097 0.0
C502 C 0.44192 0.52601 0.06584 0.0
C503 C 0.45858 0.54238 0.04257 0.0
C504 C 0.47945 0.52911 0.02517 0.0
C505 C 0.48454 0.50073 0.03138 0.0
C506 C 0.50806 0.49155 0.00885 0.0
C507 C 0.5333 0.48015 0.05042 0.0
C508 C 0.49744 0.46998 0.96618 0.0
C509 C 0.51509 0.51917 0.98805 0.0
C510 C 0.49835 0.54053 0.99802 0.0
C511 C 0.50088 0.56795 0.98281 0.0
C512 C 0.52156 0.57387 0.95781 0.0
C513 C 0.53937 0.55245 0.94813 0.0
C514 C 0.53578 0.52467 0.96276 0.0
H515 H 0.56135 0.51713 0.45402 0.0
H516 H 0.50316 0.46923 0.33583 0.0
H517 H 0.46779 0.47095 0.38484 0.0
H518 H 0.54605 0.48412 0.55742 0.0
H519 H 0.54813 0.51507 0.59597 0.0
H520 H 0.56833 0.51292 0.55006 0.0
H521 H 0.54559 0.55857 0.50657 0.0
H522 H 0.52609 0.56157 0.5535 0.0
H523 H 0.50765 0.56171 0.48685 0.0
H524 H 0.44106 0.47309 0.4507 0.0
H525 H 0.42049 0.4839 0.52137 0.0
H526 H 0.49568 0.53129 0.59579 0.0
C527 C 0.54094 0.50753 0.43789 0.0
C528 C 0.53509 0.49288 0.39127 0.0
C529 C 0.5081 0.48067 0.37136 0.0
C530 C 0.48797 0.48127 0.39917 0.0
C531 C 0.49509 0.49441 0.44641 0.0
C532 C 0.52061 0.50797 0.46505 0.0
C533 C 0.52307 0.52038 0.51707 0.0
C534 C 0.54786 0.50733 0.55748 0.0
C535 C 0.52574 0.55246 0.5159 0.0
C536 C 0.49498 0.5115 0.52482 0.0
C537 C 0.47934 0.49625 0.4839 0.0
C538 C 0.45288 0.48541 0.4826 0.0
C539 C 0.44144 0.49158 0.52304 0.0
C540 C 0.45622 0.50888 0.56366 0.0
C541 C 0.48377 0.51808 0.56529 0.0
H542 H 0.05729 0.98559 0.95284 0.0
H543 H 0.02516 0.06996 0.91992 0.0
H544 H 0.99907 0.06578 0.98465 0.0
H545 H 0.9955 0.95555 0.97323 0.0
H546 H 0.01387 0.93349 0.02518 0.0
H547 H 0.03089 0.94379 0.97737 0.0
H548 H 0.07279 0.96427 0.04766 0.0
H549 H 0.05556 0.95417 0.0955 0.0
H550 H 0.06586 0.99009 0.09089 0.0
H551 H 0.97446 0.0518 0.04891 0.0
H552 H 0.95032 0.02756 0.10508 0.0
H553 H 1.00002 0.95295 0.10026 0.0
C554 C 0.0446 1.00303 0.95923 0.0
C555 C 0.04205 0.0276 0.9297 0.0
C556 C 0.0259 0.05032 0.9398 0.0
C557 C 0.01161 0.04842 0.97749 0.0
C558 C 0.0142 0.02383 0.00555 0.0
C559 C 0.03026 1.00151 0.99704 0.0
C560 C 0.02846 0.97707 0.0313 0.0
C561 C 0.01646 0.95094 0.99989 0.0
C562 C 0.05739 0.97104 0.06854 0.0
C563 C 0.008 0.9888 0.05877 0.0
C564 C 1.00049 0.016 0.04402 0.0
C565 C 0.98042 0.03063 0.06141 0.0
C566 C 0.96686 0.01671 0.09336 0.0
C567 C 0.97335 0.98843 0.10719 0.0
C568 C 0.99489 0.9747 0.09101 0.0
H569 H 0.96141 0.01018 0.57088 0.0
H570 H 0.97451 0.097 0.53536 0.0
H571 H 0.00746 0.08204 0.48675 0.0
H572 H 0.03405 0.98755 0.58515 0.0
H573 H 0.02347 0.95382 0.55687 0.0
H574 H 0.00177 0.97158 0.59068 0.0
H575 H 0.95901 0.96788 0.51086 0.0
H576 H 0.98073 0.95054 0.47656 0.0
H577 H 0.9619 0.982 0.45125 0.0
H578 H 0.03761 0.05786 0.43966 0.0
H579 H 0.06557 0.02578 0.40154 0.0
H580 H 0.03254 0.95488 0.46726 0.0
C581 C 0.97152 0.02605 0.55348 0.0
C582 C 0.96542 0.05472 0.55689 0.0
C583 C 0.97886 0.07488 0.53322 0.0
C584 C 0.99757 0.06662 0.50542 0.0
C585 C 0.00265 0.03817 0.50183 0.0
C586 C 0.99028 0.01819 0.52557 0.0
C587 C 0.99922 0.98897 0.51532 0.0
C588 C 0.01561 0.97465 0.56495 0.0
C589 C 0.97369 0.97132 0.4868 0.0
C590 C 0.01833 0.99572 0.48181 0.0
C591 C 0.02003 0.0242 0.47448 0.0
C592 C 0.03654 0.03549 0.44516 0.0
C593 C 0.05222 0.01712 0.4235 0.0
C594 C 0.05119 0.98788 0.43142 0.0
C595 C 0.03371 0.97713 0.4604 0.0
H596 H 0.25839 0.29768 0.08651 0.0
H597 H 0.30522 0.32469 0.98113 0.0
H598 H 0.29091 0.2817 0.93067 0.0
H599 H 0.2736 0.22387 0.08351 0.0
H600 H 0.23891 0.2129 0.08601 0.0
H601 H 0.25322 0.24563 0.11437 0.0
H602 H 0.20922 0.27164 0.05982 0.0
H603 H 0.19485 0.23901 0.03106 0.0
H604 H 0.19965 0.26787 0.99166 0.0
H605 H 0.27206 0.23572 0.89218 0.0
H606 H 0.24909 0.19005 0.86698 0.0
H607 H 0.21386 0.19276 0.99652 0.0
C608 C 0.26573 0.29438 0.05296 0.0
C609 C 0.28374 0.314 0.03868 0.0
C610 C 0.29244 0.30934 0.99398 0.0
C611 C 0.28413 0.28515 0.96473 0.0
C612 C 0.26678 0.26597 0.98028 0.0
C613 C 0.25757 0.2703 0.02322 0.0
C614 C 0.23883 0.24641 0.03118 0.0
C615 C 0.25193 0.23131 0.08177 0.0
C616 C 0.20886 0.25687 0.02825 0.0
C617 C 0.23904 0.22797 0.98609 0.0
C618 C 0.25529 0.2397 0.95727 0.0
C619 C 0.25915 0.22641 0.91429 0.0
C620 C 0.24606 0.20043 0.90036 0.0
C621 C 0.22914 0.18802 0.92905 0.0
C622 C 0.22576 0.20202 0.97266 0.0
H623 H 0.73975 0.30114 0.42758 0.0
H624 H 0.69641 0.32752 0.53864 0.0
H625 H 0.71061 0.28381 0.58648 0.0
H626 H 0.72327 0.2275 0.42876 0.0
H627 H 0.75729 0.21618 0.42329 0.0
H628 H 0.74311 0.24935 0.39691 0.0
H629 H 0.78829 0.27434 0.44973 0.0
H630 H 0.80255 0.24126 0.47643 0.0
H631 H 0.79923 0.26973 0.51773 0.0
H632 H 0.72931 0.23711 0.62232 0.0
H633 H 0.75258 0.1913 0.64507 0.0
H634 H 0.78427 0.19522 0.51152 0.0
C635 C 0.73318 0.29764 0.46189 0.0
C636 C 0.71614 0.31738 0.47839 0.0
C637 C 0.70834 0.31224 0.52387 0.0
C638 C 0.71664 0.28757 0.55175 0.0
C639 C 0.73301 0.26833 0.534 0.0
C640 C 0.74133 0.27309 0.49025 0.0
C641 C 0.75922 0.24911 0.4799 0.0
C642 C 0.74486 0.23468 0.42921 0.0
C643 C 0.78909 0.25922 0.48103 0.0
C644 C 0.7597 0.2302 0.52473 0.0
C645 C 0.7444 0.24168 0.55539 0.0
C646 C 0.74147 0.22798 0.59872 0.0
C647 C 0.75469 0.20193 0.61124 0.0
C648 C 0.77084 0.1899 0.58083 0.0
C649 C 0.77305 0.2042 0.5367 0.0
H650 H 0.79082 0.81786 1.00239 0.0
H651 H 0.76208 0.82048 0.1392 0.0
H652 H 0.74137 0.77336 0.11992 0.0
H653 H 0.73003 0.78377 0.92509 0.0
H654 H 0.7491 0.76265 0.89078 0.0
H655 H 0.76316 0.79598 0.9165 0.0
H656 H 0.80967 0.77195 0.96589 0.0
H657 H 0.79578 0.73853 0.94015 0.0
H658 H 0.80836 0.74319 0.00798 0.0
H659 H 0.72375 0.72641 0.08639 0.0
H660 H 0.70794 0.68317 0.03818 0.0
H661 H 0.74634 0.71086 0.9209 0.0
C662 C 0.78078 0.80824 0.02887 0.0
C663 C 0.77852 0.8226 0.07287 0.0
C664 C 0.76414 0.80977 0.10544 0.0
C665 C 0.75242 0.78298 0.09493 0.0
C666 C 0.75504 0.76933 0.05141 0.0
C667 C 0.76872 0.78149 0.0187 0.0
C668 C 0.76731 0.76268 0.97329 0.0
C669 C 0.75145 0.77714 0.92347 0.0
C670 C 0.79705 0.75354 0.97176 0.0
C671 C 0.75056 0.73819 0.98552 0.0
C672 C 0.74391 0.74246 0.03097 0.0
C673 C 0.72852 0.72296 0.05044 0.0
C674 C 0.71929 0.69859 0.02239 0.0
C675 C 0.72505 0.69405 0.97494 0.0
C676 C 0.7414 0.71391 0.95684 0.0
H677 H 0.21968 0.80996 0.50858 0.0
H678 H 0.24062 0.80401 0.36453 0.0
H679 H 0.26111 0.75714 0.38835 0.0
H680 H 0.28223 0.77781 0.58267 0.0
H681 H 0.26543 0.7594 0.62429 0.0
H682 H 0.25058 0.79169 0.59484 0.0
H683 H 0.20274 0.76689 0.55631 0.0
H684 H 0.21739 0.73453 0.58593 0.0
H685 H 0.20169 0.73587 0.51827 0.0
H686 H 0.27969 0.71153 0.42752 0.0
H687 H 0.2971 0.67046 0.48109 0.0
H688 H 0.26602 0.706 0.60189 0.0
C689 C 0.22786 0.79845 0.48155 0.0
C690 C 0.22803 0.8103 0.43419 0.0
C691 C 0.24012 0.79516 0.4008 0.0
C692 C 0.25172 0.76852 0.41393 0.0
C693 C 0.25131 0.75741 0.46086 0.0
C694 C 0.23979 0.77185 0.4943 0.0
C695 C 0.24343 0.75559 0.54343 0.0
C696 C 0.2615 0.77211 0.58899 0.0
C697 C 0.21459 0.74776 0.55144 0.0
C698 C 0.25894 0.72989 0.53241 0.0
C699 C 0.26306 0.73137 0.4844 0.0
C700 C 0.27688 0.71028 0.46542 0.0
C701 C 0.28708 0.68716 0.4965 0.0
C702 C 0.28384 0.68545 0.54639 0.0
C703 C 0.2691 0.70691 0.56412 0.0
H704 H 0.56748 0.41259 0.24912 0.0
H705 H 0.56512 0.35966 0.3762 0.0
H706 H 0.51584 0.34598 0.33235 0.0
H707 H 0.5048 0.44134 0.23593 0.0
H708 H 0.49464 0.44448 0.16764 0.0
H709 H 0.53131 0.44348 0.20151 0.0
H710 H 0.53911 0.40102 0.14784 0.0
H711 H 0.50235 0.4022 0.11308 0.0
H712 H 0.51737 0.37024 0.14397 0.0
H713 H 0.46347 0.34689 0.28234 0.0
H714 H 0.41557 0.362 0.23258 0.0
H715 H 0.45365 0.41429 0.13958 0.0
C716 C 0.55709 0.39677 0.26615 0.0
C717 C 0.57022 0.38636 0.31499 0.0
C718 C 0.55567 0.36697 0.33785 0.0
C719 C 0.52761 0.3593 0.3133 0.0
C720 C 0.51463 0.37114 0.26591 0.0
C721 C 0.52925 0.38916 0.2423 0.0
C722 C 0.50992 0.40264 0.19576 0.0
C723 C 0.51019 0.43485 0.20057 0.0
C724 C 0.51765 0.39345 0.14729 0.0
C725 C 0.4819 0.39045 0.1979 0.0
C726 C 0.48481 0.37196 0.23792 0.0
C727 C 0.46109 0.36077 0.25014 0.0
C728 C 0.43395 0.36934 0.22165 0.0
C729 C 0.43094 0.38921 0.18214 0.0
C730 C 0.45526 0.39891 0.1693 0.0
H731 H 0.46135 0.59937 0.63306 0.0
H732 H 0.41868 0.64237 0.7307 0.0
H733 H 0.46459 0.66204 0.78017 0.0
H734 H 0.51548 0.57578 0.72445 0.0
H735 H 0.54206 0.57913 0.69039 0.0
H736 H 0.50576 0.57507 0.65593 0.0
H737 H 0.50824 0.62076 0.60641 0.0
H738 H 0.54477 0.62514 0.64111 0.0
H739 H 0.51976 0.6528 0.64062 0.0
H740 H 0.5159 0.66749 0.82984 0.0
H741 H 0.5657 0.65696 0.87446 0.0
H742 H 0.57449 0.61116 0.74334 0.0
C743 C 0.4615 0.61371 0.66383 0.0
C744 C 0.43649 0.61938 0.67809 0.0
C745 C 0.43754 0.63803 0.71876 0.0
C746 C 0.46357 0.64928 0.747 0.0
C747 C 0.48815 0.64212 0.73332 0.0
C748 C 0.48713 0.62501 0.69204 0.0
C749 C 0.51639 0.61697 0.68894 0.0
C750 C 0.52012 0.58486 0.69008 0.0
C751 C 0.52265 0.62969 0.64145 0.0
C752 C 0.53419 0.63062 0.73686 0.0
C753 C 0.5177 0.6457 0.76141 0.0
C754 C 0.52911 0.65668 0.81004 0.0
C755 C 0.55754 0.6509 0.83501 0.0
C756 C 0.57412 0.63427 0.81135 0.0
C757 C 0.56259 0.62515 0.761 0.0
H758 H 0.05091 0.89287 0.37864 0.0
H759 H 0.08677 0.85598 0.26559 0.0
H760 H 0.0389 0.84097 0.2163 0.0
H761 H 0.987 0.84362 0.36185 0.0
H762 H 0.96552 0.87285 0.37033 0.0
H763 H 0.0025 0.87186 0.40394 0.0
H764 H 0.00948 0.92042 0.36678 0.0
H765 H 0.97286 0.92151 0.33303 0.0
H766 H 0.99931 0.92524 0.2988 0.0
H767 H 0.98699 0.84157 0.16961 0.0
H768 H 0.93833 0.85847 0.13086 0.0
H769 H 0.93667 0.89628 0.27358 0.0
C770 C 0.04878 0.88036 0.34477 0.0
C771 C 0.07242 0.87522 0.32611 0.0
C772 C 0.06897 0.85949 0.28109 0.0
C773 C 0.04179 0.85103 0.25283 0.0
C774 C 0.01851 0.85818 0.27064 0.0
C775 C 0.02195 0.87218 0.31624 0.0
C776 C 0.99399 0.88215 0.32317 0.0
C777 C 0.98683 0.86668 0.36745 0.0
C778 C 0.99393 0.91419 0.33082 0.0
C779 C 0.97433 0.87344 0.27279 0.0
C780 C 0.98858 0.85881 0.24351 0.0
C781 C 0.97546 0.85207 0.19287 0.0
C782 C 0.94772 0.86153 0.17117 0.0
C783 C 0.93358 0.87774 0.19997 0.0
C784 C 0.94668 0.88279 0.25171 0.0
H785 H 0.04482 0.10525 0.872 0.0
H786 H 0.08639 0.15046 0.77517 0.0
H787 H 0.04002 0.16988 0.72688 0.0
H788 H 0.98872 0.08327 0.77271 0.0
H789 H 0.96431 0.08331 0.81158 0.0
H790 H 1.00118 0.07851 0.84006 0.0
H791 H 0.99842 0.12123 0.89978 0.0
H792 H 0.96173 0.12648 0.86699 0.0
H793 H 0.98664 0.15471 0.87135 0.0
H794 H 0.98808 0.17344 0.67665 0.0
H795 H 0.93837 0.16161 0.63335 0.0
H796 H 0.93118 0.11736 0.76698 0.0
C797 C 0.04433 0.12 0.84169 0.0
C798 C 0.06919 0.12647 0.82746 0.0
C799 C 0.06767 0.1456 0.78726 0.0
C800 C 0.04136 0.15661 0.75957 0.0
C801 C 0.01695 0.14862 0.7732 0.0
C802 C 0.01846 0.1309 0.81387 0.0
C803 C 0.98946 0.12189 0.81688 0.0
C804 C 0.98571 0.08991 0.80992 0.0
C805 C 0.98373 0.13168 0.86672 0.0
C806 C 0.97109 0.13711 0.77154 0.0
C807 C 0.98718 0.15229 0.74621 0.0
C808 C 0.97521 0.16276 0.69733 0.0
C809 C 0.94681 0.15624 0.67308 0.0
C810 C 0.93069 0.13971 0.69795 0.0
C811 C 0.94261 0.13148 0.74857 0.0
loop_
_geom_bond_atom_site_label_1
_geom_bond_atom_site_label_2
_geom_bond_distance
_geom_bond_site_symmetry_2
_ccdc_geom_bond_type
Co0 O3 1.970 . S
Co0 N17 1.989 1_554 S
Co0 O25 1.967 . S
Co0 O32 1.920 . S
Co1 O4 1.966 . S
Co1 N10 2.022 . S
Co1 N18 1.993 1_554 S
Co1 O26 1.941 . S
C2 O3 1.258 . S
C2 O4 1.263 . S
O3 Co0 1.970 . S
O3 C2 1.258 . S
O4 Co1 1.966 . S
O4 C2 1.263 . S
C5 O6 1.235 . S
C5 O32 1.289 . S
O6 C5 1.235 . S
C7 C9 1.400 . S
C7 N10 1.351 . S
C7 C12 1.501 . S
C8 C9 1.387 . S
C8 N11 1.341 . S
C9 C7 1.400 . S
C9 C8 1.387 . S
N10 Co1 2.022 . S
N10 C7 1.351 . S
N10 N11 1.365 . S
N11 C8 1.341 . S
N11 N10 1.365 . S
N11 H31 0.862 . S
C12 C7 1.501 . S
C12 H13 0.961 . S
C12 H14 0.961 . S
C12 H15 0.960 . S
H13 C12 0.961 . S
H14 C12 0.961 . S
H15 C12 0.960 . S
C16 N17 1.342 . S
C16 C20 1.401 . S
C16 C21 1.499 . S
N17 Co0 1.989 1_556 S
N17 C16 1.342 . S
N17 N18 1.388 . S
N18 Co1 1.993 1_556 S
N18 N17 1.388 . S
N18 C19 1.346 . S
C19 N18 1.346 . S
C19 C20 1.396 . S
C19 C29 1.510 . S
C20 C16 1.401 . S
C20 C19 1.396 . S
C21 C16 1.499 . S
C21 H22 0.959 . S
C21 H23 0.960 . S
C21 H24 0.961 . S
H22 C21 0.959 . S
H23 C21 0.960 . S
H24 C21 0.961 . S
O25 Co0 1.967 . S
O25 C33 1.258 . S
O26 Co1 1.941 . S
O26 C33 1.266 . S
H27 C29 0.959 . S
H28 C29 0.961 . S
C29 C19 1.510 . S
C29 H27 0.959 . S
C29 H28 0.961 . S
C29 H30 0.960 . S
H30 C29 0.960 . S
H31 N11 0.862 . S
O32 Co0 1.920 . S
O32 C5 1.289 . S
C33 O25 1.258 . S
C33 O26 1.266 . S
Co34 O37 1.970 . S
Co34 N51 1.989 . S
Co34 O59 1.967 . S
Co34 O66 1.920 . S
Co35 O38 1.966 . S
Co35 N44 2.022 . S
Co35 N52 1.993 . S
Co35 O60 1.941 . S
C36 O37 1.258 . S
C36 O38 1.263 . S
O37 Co34 1.970 . S
O37 C36 1.258 . S
O38 Co35 1.966 . S
O38 C36 1.263 . S
C39 O40 1.235 . S
C39 O66 1.289 . S
O40 C39 1.235 . S
C41 C43 1.400 . S
C41 N44 1.351 . S
C41 C46 1.501 . S
C42 C43 1.387 . S
C42 N45 1.341 . S
C43 C41 1.400 . S
C43 C42 1.387 . S
N44 Co35 2.022 . S
N44 C41 1.351 . S
N44 N45 1.365 . S
N45 C42 1.341 . S
N45 N44 1.365 . S
N45 H65 0.862 . S
C46 C41 1.501 . S
C46 H47 0.961 . S
C46 H48 0.961 . S
C46 H49 0.960 . S
H47 C46 0.961 . S
H48 C46 0.961 . S
H49 C46 0.960 . S
C50 N51 1.342 . S
C50 C54 1.401 . S
C50 C55 1.499 . S
N51 Co34 1.989 . S
N51 C50 1.342 . S
N51 N52 1.388 . S
N52 Co35 1.993 . S
N52 N51 1.388 . S
N52 C53 1.346 . S
C53 N52 1.346 . S
C53 C54 1.396 . S
C53 C63 1.510 . S
C54 C50 1.401 . S
C54 C53 1.396 . S
C55 C50 1.499 . S
C55 H56 0.959 . S
C55 H57 0.960 . S
C55 H58 0.961 . S
H56 C55 0.959 . S
H57 C55 0.960 . S
H58 C55 0.961 . S
O59 Co34 1.967 . S
O59 C67 1.258 . S
O60 Co35 1.941 . S
O60 C67 1.266 . S
H61 C63 0.959 . S
H62 C63 0.961 . S
C63 C53 1.510 . S
C63 H61 0.959 . S
C63 H62 0.961 . S
C63 H64 0.960 . S
H64 C63 0.960 . S
H65 N45 0.862 . S
O66 Co34 1.920 . S
O66 C39 1.289 . S
C67 O59 1.258 . S
C67 O60 1.266 . S
Co68 O71 1.970 . S
Co68 N85 1.989 1_556 S
Co68 O93 1.967 . S
Co68 O100 1.920 . S
Co69 O72 1.966 . S
Co69 N78 2.022 . S
Co69 N86 1.993 1_556 S
Co69 O94 1.941 . S
C70 O71 1.258 . S
C70 O72 1.263 . S
O71 Co68 1.970 . S
O71 C70 1.258 . S
O72 Co69 1.966 . S
O72 C70 1.263 . S
C73 O74 1.235 . S
C73 O100 1.289 . S
O74 C73 1.235 . S
C75 C77 1.400 . S
C75 N78 1.351 . S
C75 C80 1.501 . S
C76 C77 1.387 . S
C76 N79 1.341 . S
C77 C75 1.400 . S
C77 C76 1.387 . S
N78 Co69 2.022 . S
N78 C75 1.351 . S
N78 N79 1.365 . S
N79 C76 1.341 . S
N79 N78 1.365 . S
N79 H99 0.862 . S
C80 C75 1.501 . S
C80 H81 0.961 . S
C80 H82 0.961 . S
C80 H83 0.960 . S
H81 C80 0.961 . S
H82 C80 0.961 . S
H83 C80 0.960 . S
C84 N85 1.342 . S
C84 C88 1.401 . S
C84 C89 1.499 . S
N85 Co68 1.989 1_554 S
N85 C84 1.342 . S
N85 N86 1.388 . S
N86 Co69 1.993 1_554 S
N86 N85 1.388 . S
N86 C87 1.346 . S
C87 N86 1.346 . S
C87 C88 1.396 . S
C87 C97 1.510 . S
C88 C84 1.401 . S
C88 C87 1.396 . S
C89 C84 1.499 . S
C89 H90 0.959 . S
C89 H91 0.960 . S
C89 H92 0.961 . S
H90 C89 0.959 . S
H91 C89 0.960 . S
H92 C89 0.961 . S
O93 Co68 1.967 . S
O93 C101 1.258 . S
O94 Co69 1.941 . S
O94 C101 1.266 . S
H95 C97 0.959 . S
H96 C97 0.961 . S
C97 C87 1.510 . S
C97 H95 0.959 . S
C97 H96 0.961 . S
C97 H98 0.960 . S
H98 C97 0.960 . S
H99 N79 0.862 . S
O100 Co68 1.920 . S
O100 C73 1.289 . S
C101 O93 1.258 . S
C101 O94 1.266 . S
Co102 O105 1.970 . S
Co102 N119 1.989 . S
Co102 O127 1.967 . S
Co102 O134 1.920 . S
Co103 O106 1.966 . S
Co103 N112 2.022 . S
Co103 N120 1.993 . S
Co103 O128 1.941 . S
C104 O105 1.258 . S
C104 O106 1.263 . S
O105 Co102 1.970 . S
O105 C104 1.258 . S
O106 Co103 1.966 . S
O106 C104 1.263 . S
C107 O108 1.235 . S
C107 O134 1.289 . S
O108 C107 1.235 . S
C109 C111 1.400 . S
C109 N112 1.351 . S
C109 C114 1.501 . S
C110 C111 1.387 . S
C110 N113 1.341 . S
C111 C109 1.400 . S
C111 C110 1.387 . S
N112 Co103 2.022 . S
N112 C109 1.351 . S
N112 N113 1.365 . S
N113 C110 1.341 . S
N113 N112 1.365 . S
N113 H133 0.862 . S
C114 C109 1.501 . S
C114 H115 0.961 . S
C114 H116 0.961 . S
C114 H117 0.960 . S
H115 C114 0.961 . S
H116 C114 0.961 . S
H117 C114 0.960 . S
C118 N119 1.342 . S
C118 C122 1.401 . S
C118 C123 1.499 . S
N119 Co102 1.989 . S
N119 C118 1.342 . S
N119 N120 1.388 . S
N120 Co103 1.993 . S
N120 N119 1.388 . S
N120 C121 1.346 . S
C121 N120 1.346 . S
C121 C122 1.396 . S
C121 C131 1.510 . S
C122 C118 1.401 . S
C122 C121 1.396 . S
C123 C118 1.499 . S
C123 H124 0.959 . S
C123 H125 0.960 . S
C123 H126 0.961 . S
H124 C123 0.959 . S
H125 C123 0.960 . S
H126 C123 0.961 . S
O127 Co102 1.967 . S
O127 C135 1.258 . S
O128 Co103 1.941 . S
O128 C135 1.266 . S
H129 C131 0.959 . S
H130 C131 0.961 . S
C131 C121 1.510 . S
C131 H129 0.959 . S
C131 H130 0.961 . S
C131 H132 0.960 . S
H132 C131 0.960 . S
H133 N113 0.862 . S
O134 Co102 1.920 . S
O134 C107 1.289 . S
C135 O127 1.258 . S
C135 O128 1.266 . S
Co136 O139 1.970 . S
Co136 N153 1.989 1_554 S
Co136 O161 1.967 . S
Co136 O168 1.920 . S
Co137 O140 1.966 . S
Co137 N146 2.022 . S
Co137 N154 1.993 1_554 S
Co137 O162 1.941 . S
C138 O139 1.258 . S
C138 O140 1.263 . S
O139 Co136 1.970 . S
O139 C138 1.258 . S
O140 Co137 1.966 . S
O140 C138 1.263 . S
C141 O142 1.235 . S
C141 O168 1.289 . S
O142 C141 1.235 . S
C143 C145 1.400 . S
C143 N146 1.351 . S
C143 C148 1.501 . S
C144 C145 1.387 . S
C144 N147 1.341 . S
C145 C143 1.400 . S
C145 C144 1.387 . S
N146 Co137 2.022 . S
N146 C143 1.351 . S
N146 N147 1.365 . S
N147 C144 1.341 . S
N147 N146 1.365 . S
N147 H167 0.862 . S
C148 C143 1.501 . S
C148 H149 0.961 . S
C148 H150 0.961 . S
C148 H151 0.960 . S
H149 C148 0.961 . S
H150 C148 0.961 . S
H151 C148 0.960 . S
C152 N153 1.342 . S
C152 C156 1.401 . S
C152 C157 1.499 . S
N153 Co136 1.989 1_556 S
N153 C152 1.342 . S
N153 N154 1.388 . S
N154 Co137 1.993 1_556 S
N154 N153 1.388 . S
N154 C155 1.346 . S
C155 N154 1.346 . S
C155 C156 1.396 . S
C155 C165 1.510 . S
C156 C152 1.401 . S
C156 C155 1.396 . S
C157 C152 1.499 . S
C157 H158 0.959 . S
C157 H159 0.960 . S
C157 H160 0.961 . S
H158 C157 0.959 . S
H159 C157 0.960 . S
H160 C157 0.961 . S
O161 Co136 1.967 . S
O161 C169 1.258 . S
O162 Co137 1.941 . S
O162 C169 1.266 . S
H163 C165 0.959 . S
H164 C165 0.961 . S
C165 C155 1.510 . S
C165 H163 0.959 . S
C165 H164 0.961 . S
C165 H166 0.960 . S
H166 C165 0.960 . S
H167 N147 0.862 . S
O168 Co136 1.920 . S
O168 C141 1.289 . S
C169 O161 1.258 . S
C169 O162 1.266 . S
Co170 O173 1.970 . S
Co170 N187 1.989 . S
Co170 O195 1.967 . S
Co170 O202 1.920 . S
Co171 O174 1.966 . S
Co171 N180 2.022 . S
Co171 N188 1.993 . S
Co171 O196 1.941 . S
C172 O173 1.258 . S
C172 O174 1.263 . S
O173 Co170 1.970 . S
O173 C172 1.258 . S
O174 Co171 1.966 . S
O174 C172 1.263 . S
C175 O176 1.235 . S
C175 O202 1.289 . S
O176 C175 1.235 . S
C177 C179 1.400 . S
C177 N180 1.351 . S
C177 C182 1.501 . S
C178 C179 1.387 . S
C178 N181 1.341 . S
C179 C177 1.400 . S
C179 C178 1.387 . S
N180 Co171 2.022 . S
N180 C177 1.351 . S
N180 N181 1.365 . S
N181 C178 1.341 . S
N181 N180 1.365 . S
N181 H201 0.862 . S
C182 C177 1.501 . S
C182 H183 0.961 . S
C182 H184 0.961 . S
C182 H185 0.960 . S
H183 C182 0.961 . S
H184 C182 0.961 . S
H185 C182 0.960 . S
C186 N187 1.342 . S
C186 C190 1.401 . S
C186 C191 1.499 . S
N187 Co170 1.989 . S
N187 C186 1.342 . S
N187 N188 1.388 . S
N188 Co171 1.993 . S
N188 N187 1.388 . S
N188 C189 1.346 . S
C189 N188 1.346 . S
C189 C190 1.396 . S
C189 C199 1.510 . S
C190 C186 1.401 . S
C190 C189 1.396 . S
C191 C186 1.499 . S
C191 H192 0.959 . S
C191 H193 0.960 . S
C191 H194 0.961 . S
H192 C191 0.959 . S
H193 C191 0.960 . S
H194 C191 0.961 . S
O195 Co170 1.967 . S
O195 C203 1.258 . S
O196 Co171 1.941 . S
O196 C203 1.266 . S
H197 C199 0.959 . S
H198 C199 0.961 . S
C199 C189 1.510 . S
C199 H197 0.959 . S
C199 H198 0.961 . S
C199 H200 0.960 . S
H200 C199 0.960 . S
H201 N181 0.862 . S
O202 Co170 1.920 . S
O202 C175 1.289 . S
C203 O195 1.258 . S
C203 O196 1.266 . S
Co204 O207 1.970 . S
Co204 N221 1.989 1_556 S
Co204 O229 1.967 . S
Co204 O236 1.920 . S
Co205 O208 1.966 . S
Co205 N214 2.022 . S
Co205 N222 1.993 1_556 S
Co205 O230 1.941 . S
C206 O207 1.258 . S
C206 O208 1.263 . S
O207 Co204 1.970 . S
O207 C206 1.258 . S
O208 Co205 1.966 . S
O208 C206 1.263 . S
C209 O210 1.235 . S
C209 O236 1.289 . S
O210 C209 1.235 . S
C211 C213 1.400 . S
C211 N214 1.351 . S
C211 C216 1.501 . S
C212 C213 1.387 . S
C212 N215 1.341 . S
C213 C211 1.400 . S
C213 C212 1.387 . S
N214 Co205 2.022 . S
N214 C211 1.351 . S
N214 N215 1.365 . S
N215 C212 1.341 . S
N215 N214 1.365 . S
N215 H235 0.862 . S
C216 C211 1.501 . S
C216 H217 0.961 . S
C216 H218 0.961 . S
C216 H219 0.960 . S
H217 C216 0.961 . S
H218 C216 0.961 . S
H219 C216 0.960 . S
C220 N221 1.342 . S
C220 C224 1.401 . S
C220 C225 1.499 . S
N221 Co204 1.989 1_554 S
N221 C220 1.342 . S
N221 N222 1.388 . S
N222 Co205 1.993 1_554 S
N222 N221 1.388 . S
N222 C223 1.346 . S
C223 N222 1.346 . S
C223 C224 1.396 . S
C223 C233 1.510 . S
C224 C220 1.401 . S
C224 C223 1.396 . S
C225 C220 1.499 . S
C225 H226 0.959 . S
C225 H227 0.960 . S
C225 H228 0.961 . S
H226 C225 0.959 . S
H227 C225 0.960 . S
H228 C225 0.961 . S
O229 Co204 1.967 . S
O229 C237 1.258 . S
O230 Co205 1.941 . S
O230 C237 1.266 . S
H231 C233 0.959 . S
H232 C233 0.961 . S
C233 C223 1.510 . S
C233 H231 0.959 . S
C233 H232 0.961 . S
C233 H234 0.960 . S
H234 C233 0.960 . S
H235 N215 0.862 . S
O236 Co204 1.920 . S
O236 C209 1.289 . S
C237 O229 1.258 . S
C237 O230 1.266 . S
Co238 O241 1.970 . S
Co238 N255 1.989 . S
Co238 O263 1.967 . S
Co238 O270 1.920 . S
Co239 O242 1.966 . S
Co239 N248 2.022 . S
Co239 N256 1.993 . S
Co239 O264 1.941 . S
C240 O241 1.258 . S
C240 O242 1.263 . S
O241 Co238 1.970 . S
O241 C240 1.258 . S
O242 Co239 1.966 . S
O242 C240 1.263 . S
C243 O244 1.235 . S
C243 O270 1.289 . S
O244 C243 1.235 . S
C245 C247 1.400 . S
C245 N248 1.351 . S
C245 C250 1.501 . S
C246 C247 1.387 . S
C246 N249 1.341 . S
C247 C245 1.400 . S
C247 C246 1.387 . S
N248 Co239 2.022 . S
N248 C245 1.351 . S
N248 N249 1.365 . S
N249 C246 1.341 . S
N249 N248 1.365 . S
N249 H269 0.862 . S
C250 C245 1.501 . S
C250 H251 0.961 . S
C250 H252 0.961 . S
C250 H253 0.960 . S
H251 C250 0.961 . S
H252 C250 0.961 . S
H253 C250 0.960 . S
C254 N255 1.342 . S
C254 C258 1.401 . S
C254 C259 1.499 . S
N255 Co238 1.989 . S
N255 C254 1.342 . S
N255 N256 1.388 . S
N256 Co239 1.993 . S
N256 N255 1.388 . S
N256 C257 1.346 . S
C257 N256 1.346 . S
C257 C258 1.396 . S
C257 C267 1.510 . S
C258 C254 1.401 . S
C258 C257 1.396 . S
C259 C254 1.499 . S
C259 H260 0.959 . S
C259 H261 0.960 . S
C259 H262 0.961 . S
H260 C259 0.959 . S
H261 C259 0.960 . S
H262 C259 0.961 . S
O263 Co238 1.967 . S
O263 C271 1.258 . S
O264 Co239 1.941 . S
O264 C271 1.266 . S
H265 C267 0.959 . S
H266 C267 0.961 . S
C267 C257 1.510 . S
C267 H265 0.959 . S
C267 H266 0.961 . S
C267 H268 0.960 . S
H268 C267 0.960 . S
H269 N249 0.862 . S
O270 Co238 1.920 . S
O270 C243 1.289 . S
C271 O263 1.258 . S
C271 O264 1.266 . S
H272 C284 0.930 . S
H273 C286 0.930 . S
H274 C287 0.930 . S
H275 C291 0.959 . S
H276 C291 0.959 . S
H277 C291 0.961 . S
H278 C292 0.960 . S
H279 C292 0.961 . S
H280 C292 0.959 . S
H281 C295 0.929 . S
H282 C296 0.931 . S
H283 C298 0.930 . S
C284 H272 0.930 . S
C284 C285 1.399 . S
C284 C289 1.399 . S
C285 C284 1.399 . S
C285 C286 1.376 . S
C286 H273 0.930 . S
C286 C285 1.376 . S
C286 C287 1.388 . S
C287 H274 0.930 . S
C287 C286 1.388 . S
C287 C288 1.390 . S
C288 C287 1.390 . S
C288 C289 1.394 . S
C288 C294 1.465 . S
C289 C284 1.399 . S
C289 C288 1.394 . S
C289 C290 1.516 . S
C290 C289 1.516 . S
C290 C291 1.502 . S
C290 C292 1.561 . S
C290 C293 1.526 . S
C291 H275 0.959 . S
C291 H276 0.959 . S
C291 H277 0.961 . S
C291 C290 1.502 . S
C292 H278 0.960 . S
C292 H279 0.961 . S
C292 H280 0.959 . S
C292 C290 1.561 . S
C293 C290 1.526 . S
C293 C294 1.396 . S
C293 C298 1.390 . S
C294 C288 1.465 . S
C294 C293 1.396 . S
C294 C295 1.399 . S
C295 H281 0.929 . S
C295 C294 1.399 . S
C295 C296 1.385 . S
C296 H282 0.931 . S
C296 C295 1.385 . S
C296 C297 1.389 . S
C297 C296 1.389 . S
C297 C298 1.387 . S
C298 H283 0.930 . S
C298 C293 1.390 . S
C298 C297 1.387 . S
H299 C311 0.930 . S
H300 C313 0.930 . S
H301 C314 0.930 . S
H302 C318 0.959 . S
H303 C318 0.959 . S
H304 C318 0.961 . S
H305 C319 0.960 . S
H306 C319 0.961 . S
H307 C319 0.959 . S
H308 C322 0.929 . S
H309 C323 0.931 . S
H310 C325 0.930 . S
C311 H299 0.930 . S
C311 C312 1.399 . S
C311 C316 1.399 . S
C312 C311 1.399 . S
C312 C313 1.376 . S
C313 H300 0.930 . S
C313 C312 1.376 . S
C313 C314 1.388 . S
C314 H301 0.930 . S
C314 C313 1.388 . S
C314 C315 1.390 . S
C315 C314 1.390 . S
C315 C316 1.394 . S
C315 C321 1.465 . S
C316 C311 1.399 . S
C316 C315 1.394 . S
C316 C317 1.516 . S
C317 C316 1.516 . S
C317 C318 1.502 . S
C317 C319 1.561 . S
C317 C320 1.526 . S
C318 H302 0.959 . S
C318 H303 0.959 . S
C318 H304 0.961 . S
C318 C317 1.502 . S
C319 H305 0.960 . S
C319 H306 0.961 . S
C319 H307 0.959 . S
C319 C317 1.561 . S
C320 C317 1.526 . S
C320 C321 1.396 . S
C320 C325 1.390 . S
C321 C315 1.465 . S
C321 C320 1.396 . S
C321 C322 1.399 . S
C322 H308 0.929 . S
C322 C321 1.399 . S
C322 C323 1.385 . S
C323 H309 0.931 . S
C323 C322 1.385 . S
C323 C324 1.389 . S
C324 C323 1.389 . S
C324 C325 1.387 . S
C325 H310 0.930 . S
C325 C320 1.390 . S
C325 C324 1.387 . S
H326 C338 0.930 . S
H327 C340 0.930 . S
H328 C341 0.930 . S
H329 C345 0.959 . S
H330 C345 0.959 . S
H331 C345 0.961 . S
H332 C346 0.960 . S
H333 C346 0.961 . S
H334 C346 0.959 . S
H335 C349 0.929 . S
H336 C350 0.931 . S
H337 C352 0.930 . S
C338 H326 0.930 . S
C338 C339 1.399 . S
C338 C343 1.399 . S
C339 C338 1.399 . S
C339 C340 1.376 . S
C340 H327 0.930 . S
C340 C339 1.376 . S
C340 C341 1.388 . S
C341 H328 0.930 . S
C341 C340 1.388 . S
C341 C342 1.390 . S
C342 C341 1.390 . S
C342 C343 1.394 . S
C342 C348 1.465 . S
C343 C338 1.399 . S
C343 C342 1.394 . S
C343 C344 1.516 . S
C344 C343 1.516 . S
C344 C345 1.502 . S
C344 C346 1.561 . S
C344 C347 1.526 . S
C345 H329 0.959 . S
C345 H330 0.959 . S
C345 H331 0.961 . S
C345 C344 1.502 . S
C346 H332 0.960 . S
C346 H333 0.961 . S
C346 H334 0.959 . S
C346 C344 1.561 . S
C347 C344 1.526 . S
C347 C348 1.396 . S
C347 C352 1.390 . S
C348 C342 1.465 . S
C348 C347 1.396 . S
C348 C349 1.399 . S
C349 H335 0.929 . S
C349 C348 1.399 . S
C349 C350 1.385 . S
C350 H336 0.931 . S
C350 C349 1.385 . S
C350 C351 1.389 . S
C351 C350 1.389 . S
C351 C352 1.387 . S
C352 H337 0.930 . S
C352 C347 1.390 . S
C352 C351 1.387 . S
H353 C365 0.930 . S
H354 C367 0.930 . S
H355 C368 0.930 . S
H356 C372 0.959 . S
H357 C372 0.959 . S
H358 C372 0.961 . S
H359 C373 0.960 . S
H360 C373 0.961 . S
H361 C373 0.959 . S
H362 C376 0.929 . S
H363 C377 0.931 . S
H364 C379 0.930 . S
C365 H353 0.930 . S
C365 C366 1.399 . S
C365 C370 1.399 . S
C366 C365 1.399 . S
C366 C367 1.376 . S
C367 H354 0.930 . S
C367 C366 1.376 . S
C367 C368 1.388 . S
C368 H355 0.930 . S
C368 C367 1.388 . S
C368 C369 1.390 . S
C369 C368 1.390 . S
C369 C370 1.394 . S
C369 C375 1.465 . S
C370 C365 1.399 . S
C370 C369 1.394 . S
C370 C371 1.516 . S
C371 C370 1.516 . S
C371 C372 1.502 . S
C371 C373 1.561 . S
C371 C374 1.526 . S
C372 H356 0.959 . S
C372 H357 0.959 . S
C372 H358 0.961 . S
C372 C371 1.502 . S
C373 H359 0.960 . S
C373 H360 0.961 . S
C373 H361 0.959 . S
C373 C371 1.561 . S
C374 C371 1.526 . S
C374 C375 1.396 . S
C374 C379 1.390 . S
C375 C369 1.465 . S
C375 C374 1.396 . S
C375 C376 1.399 . S
C376 H362 0.929 . S
C376 C375 1.399 . S
C376 C377 1.385 . S
C377 H363 0.931 . S
C377 C376 1.385 . S
C377 C378 1.389 . S
C378 C377 1.389 . S
C378 C379 1.387 . S
C379 H364 0.930 . S
C379 C374 1.390 . S
C379 C378 1.387 . S
H380 C392 0.930 . S
H381 C394 0.930 . S
H382 C395 0.930 . S
H383 C399 0.959 . S
H384 C399 0.959 . S
H385 C399 0.961 . S
H386 C400 0.960 . S
H387 C400 0.961 1_545 S
H388 C400 0.959 . S
H389 C403 0.929 . S
H390 C404 0.933 . S
H391 C406 0.930 . S
C392 H380 0.930 . S
C392 C393 1.399 . S
C392 C397 1.399 . S
C393 C392 1.399 . S
C393 C394 1.376 . S
C394 H381 0.930 . S
C394 C393 1.376 . S
C394 C395 1.388 . S
C395 H382 0.930 . S
C395 C394 1.388 . S
C395 C396 1.390 . S
C396 C395 1.390 . S
C396 C397 1.394 . S
C396 C402 1.465 . S
C397 C392 1.399 . S
C397 C396 1.394 . S
C397 C398 1.516 1_565 S
C398 C397 1.516 1_545 S
C398 C399 1.502 . S
C398 C400 1.561 1_545 S
C398 C401 1.526 . S
C399 H383 0.959 . S
C399 H384 0.959 . S
C399 H385 0.961 . S
C399 C398 1.502 . S
C400 H386 0.960 . S
C400 H387 0.961 1_565 S
C400 H388 0.959 . S
C400 C398 1.561 1_565 S
C401 C398 1.526 . S
C401 C402 1.396 1_545 S
C401 C406 1.390 . S
C402 C396 1.465 . S
C402 C401 1.396 1_565 S
C402 C403 1.399 . S
C403 H389 0.929 . S
C403 C402 1.399 . S
C403 C404 1.399 . S
C404 H390 0.933 . S
C404 C403 1.399 . S
C404 C405 1.374 1_565 S
C405 C404 1.374 1_545 S
C405 C406 1.387 . S
C406 H391 0.930 . S
C406 C401 1.390 . S
C406 C405 1.387 . S
H407 C419 0.930 . S
H408 C421 0.930 . S
H409 C422 0.930 . S
H410 C426 0.959 . S
H411 C426 0.959 . S
H412 C426 0.961 . S
H413 C427 0.960 . S
H414 C427 0.961 . S
H415 C427 0.959 . S
H416 C430 0.929 1_545 S
H417 C431 0.931 . S
H418 C433 0.930 . S
C419 H407 0.930 . S
C419 C420 1.399 1_565 S
C419 C424 1.399 . S
C420 C419 1.399 1_545 S
C420 C421 1.376 . S
C421 H408 0.930 . S
C421 C420 1.376 . S
C421 C422 1.388 . S
C422 H409 0.930 . S
C422 C421 1.388 . S
C422 C423 1.390 . S
C423 C422 1.390 . S
C423 C424 1.394 1_545 S
C423 C429 1.465 1_545 S
C424 C419 1.399 . S
C424 C423 1.394 1_565 S
C424 C425 1.516 . S
C425 C424 1.516 . S
C425 C426 1.502 . S
C425 C427 1.561 . S
C425 C428 1.526 . S
C426 H410 0.959 . S
C426 H411 0.959 . S
C426 H412 0.961 . S
C426 C425 1.502 . S
C427 H413 0.960 . S
C427 H414 0.961 . S
C427 H415 0.959 . S
C427 C425 1.561 . S
C428 C425 1.526 . S
C428 C429 1.396 . S
C428 C433 1.390 . S
C429 C423 1.465 1_565 S
C429 C428 1.396 . S
C429 C430 1.399 . S
C430 H416 0.929 1_565 S
C430 C429 1.399 . S
C430 C431 1.385 . S
C431 H417 0.931 . S
C431 C430 1.385 . S
C431 C432 1.389 . S
C432 C431 1.389 . S
C432 C433 1.387 . S
C433 H418 0.930 . S
C433 C428 1.390 . S
C433 C432 1.387 . S
H434 C446 0.930 . S
H435 C448 0.930 . S
H436 C449 0.930 . S
H437 C453 0.959 . S
H438 C453 0.959 . S
H439 C453 0.961 . S
H440 C454 0.960 . S
H441 C454 0.961 . S
H442 C454 0.959 . S
H443 C457 0.932 . S
H444 C458 0.931 . S
H445 C460 0.930 . S
C446 H434 0.930 . S
C446 C447 1.399 . S
C446 C451 1.399 . S
C447 C446 1.399 . S
C447 C448 1.376 . S
C448 H435 0.930 . S
C448 C447 1.376 . S
C448 C449 1.388 . S
C449 H436 0.930 . S
C449 C448 1.388 . S
C449 C450 1.390 . S
C450 C449 1.390 . S
C450 C451 1.394 . S
C450 C456 1.465 . S
C451 C446 1.399 . S
C451 C450 1.394 . S
C451 C452 1.516 . S
C452 C451 1.516 . S
C452 C453 1.502 . S
C452 C454 1.561 1_545 S
C452 C455 1.526 1_545 S
C453 H437 0.959 . S
C453 H438 0.959 . S
C453 H439 0.961 . S
C453 C452 1.502 . S
C454 H440 0.960 . S
C454 H441 0.961 . S
C454 H442 0.959 . S
C454 C452 1.561 1_565 S
C455 C452 1.526 1_565 S
C455 C456 1.396 1_565 S
C455 C460 1.390 . S
C456 C450 1.465 . S
C456 C455 1.396 1_545 S
C456 C457 1.399 1_545 S
C457 H443 0.932 . S
C457 C456 1.399 1_565 S
C457 C458 1.385 . S
C458 H444 0.931 . S
C458 C457 1.385 . S
C458 C459 1.389 . S
C459 C458 1.389 . S
C459 C460 1.387 . S
C460 H445 0.930 . S
C460 C455 1.390 . S
C460 C459 1.387 . S
H461 C473 0.930 . S
H462 C475 0.930 . S
H463 C476 0.930 1_565 S
H464 C480 0.959 . S
H465 C480 0.959 . S
H466 C480 0.961 . S
H467 C481 0.960 . S
H468 C481 0.961 . S
H469 C481 0.959 . S
H470 C484 0.929 . S
H471 C485 0.931 . S
H472 C487 0.930 . S
C473 H461 0.930 . S
C473 C474 1.399 . S
C473 C478 1.399 . S
C474 C473 1.399 . S
C474 C475 1.376 . S
C475 H462 0.930 . S
C475 C474 1.376 . S
C475 C476 1.388 . S
C476 H463 0.930 1_545 S
C476 C475 1.388 . S
C476 C477 1.390 . S
C477 C476 1.390 . S
C477 C478 1.394 . S
C477 C483 1.465 1_545 S
C478 C473 1.399 . S
C478 C477 1.394 . S
C478 C479 1.516 . S
C479 C478 1.516 . S
C479 C480 1.502 . S
C479 C481 1.561 . S
C479 C482 1.526 . S
C480 H464 0.959 . S
C480 H465 0.959 . S
C480 H466 0.961 . S
C480 C479 1.502 . S
C481 H467 0.960 . S
C481 H468 0.961 . S
C481 H469 0.959 . S
C481 C479 1.561 . S
C482 C479 1.526 . S
C482 C483 1.396 1_545 S
C482 C487 1.390 . S
C483 C477 1.465 1_565 S
C483 C482 1.396 1_565 S
C483 C484 1.399 . S
C484 H470 0.929 . S
C484 C483 1.399 . S
C484 C485 1.385 . S
C485 H471 0.931 . S
C485 C484 1.385 . S
C485 C486 1.389 . S
C486 C485 1.389 . S
C486 C487 1.387 1_565 S
C487 H472 0.930 . S
C487 C482 1.390 . S
C487 C486 1.387 1_545 S
H488 C500 0.930 . S
H489 C502 0.930 . S
H490 C503 0.930 . S
H491 C507 0.959 . S
H492 C507 0.959 . S
H493 C507 0.961 . S
H494 C508 0.960 . S
H495 C508 0.961 . S
H496 C508 0.959 . S
H497 C511 0.929 . S
H498 C512 0.931 . S
H499 C514 0.930 . S
C500 H488 0.930 . S
C500 C501 1.399 . S
C500 C505 1.399 . S
C501 C500 1.399 . S
C501 C502 1.376 1_554 S
C502 H489 0.930 . S
C502 C501 1.376 1_556 S
C502 C503 1.388 . S
C503 H490 0.930 . S
C503 C502 1.388 . S
C503 C504 1.390 . S
C504 C503 1.390 . S
C504 C505 1.394 1_556 S
C504 C510 1.465 . S
C505 C500 1.399 . S
C505 C504 1.394 1_554 S
C505 C506 1.516 . S
C506 C505 1.516 . S
C506 C507 1.502 . S
C506 C508 1.561 . S
C506 C509 1.526 . S
C507 H491 0.959 . S
C507 H492 0.959 . S
C507 H493 0.961 . S
C507 C506 1.502 . S
C508 H494 0.960 . S
C508 H495 0.961 . S
C508 H496 0.959 . S
C508 C506 1.561 . S
C509 C506 1.526 . S
C509 C510 1.396 1_554 S
C509 C514 1.390 . S
C510 C504 1.465 . S
C510 C509 1.396 1_556 S
C510 C511 1.399 . S
C511 H497 0.929 . S
C511 C510 1.399 . S
C511 C512 1.385 . S
C512 H498 0.931 . S
C512 C511 1.385 . S
C512 C513 1.389 . S
C513 C512 1.389 . S
C513 C514 1.387 1_556 S
C514 H499 0.930 . S
C514 C509 1.390 . S
C514 C513 1.387 1_554 S
H515 C527 0.930 . S
H516 C529 0.930 . S
H517 C530 0.930 . S
H518 C534 0.959 . S
H519 C534 0.959 . S
H520 C534 0.961 . S
H521 C535 0.960 . S
H522 C535 0.961 . S
H523 C535 0.959 . S
H524 C538 0.929 . S
H525 C539 0.931 . S
H526 C541 0.930 . S
C527 H515 0.930 . S
C527 C528 1.399 . S
C527 C532 1.399 . S
C528 C527 1.399 . S
C528 C529 1.376 . S
C529 H516 0.930 . S
C529 C528 1.376 . S
C529 C530 1.388 . S
C530 H517 0.930 . S
C530 C529 1.388 . S
C530 C531 1.390 . S
C531 C530 1.390 . S
C531 C532 1.394 . S
C531 C537 1.465 . S
C532 C527 1.399 . S
C532 C531 1.394 . S
C532 C533 1.516 . S
C533 C532 1.516 . S
C533 C534 1.502 . S
C533 C535 1.561 . S
C533 C536 1.526 . S
C534 H518 0.959 . S
C534 H519 0.959 . S
C534 H520 0.961 . S
C534 C533 1.502 . S
C535 H521 0.960 . S
C535 H522 0.961 . S
C535 H523 0.959 . S
C535 C533 1.561 . S
C536 C533 1.526 . S
C536 C537 1.396 . S
C536 C541 1.390 . S
C537 C531 1.465 . S
C537 C536 1.396 . S
C537 C538 1.399 . S
C538 H524 0.929 . S
C538 C537 1.399 . S
C538 C539 1.385 . S
C539 H525 0.931 . S
C539 C538 1.385 . S
C539 C540 1.389 . S
C540 C539 1.389 . S
C540 C541 1.387 . S
C541 H526 0.930 . S
C541 C536 1.390 . S
C541 C540 1.387 . S
H542 C554 0.930 . S
H543 C556 0.930 1_554 S
H544 C557 0.930 . S
H545 C561 0.959 . S
H546 C561 0.959 . S
H547 C561 0.961 . S
H548 C562 0.960 1_556 S
H549 C562 0.961 1_655 S
H550 C562 0.959 . S
H551 C565 0.929 . S
H552 C566 0.931 . S
H553 C568 0.925 1_556 S
C554 H542 0.930 . S
C554 C555 1.399 1_565 S
C554 C559 1.399 . S
C555 C554 1.399 1_545 S
C555 C556 1.387 . S
C556 H543 0.930 1_556 S
C556 C555 1.387 . S
C556 C557 1.378 1_556 S
C557 H544 0.930 . S
C557 C556 1.378 1_554 S
C557 C558 1.390 . S
C558 C557 1.390 . S
C558 C559 1.394 1_544 S
C558 C564 1.465 1_455 S
C559 C554 1.399 . S
C559 C558 1.394 1_566 S
C559 C560 1.516 1_455 S
C560 C559 1.516 1_655 S
C560 C561 1.502 . S
C560 C562 1.561 1_656 S
C560 C563 1.526 1_556 S
C561 H545 0.959 . S
C561 H546 0.959 . S
C561 H547 0.961 . S
C561 C560 1.502 . S
C562 H548 0.960 1_554 S
C562 H549 0.961 1_455 S
C562 H550 0.959 . S
C562 C560 1.561 1_454 S
C563 C560 1.526 1_554 S
C563 C564 1.396 1_565 S
C563 C568 1.390 . S
C564 C558 1.465 1_655 S
C564 C563 1.396 1_545 S
C564 C565 1.399 . S
C565 H551 0.929 . S
C565 C564 1.399 . S
C565 C566 1.385 . S
C566 H552 0.931 . S
C566 C565 1.385 . S
C566 C567 1.389 1_545 S
C567 C566 1.389 1_565 S
C567 C568 1.387 . S
C568 H553 0.925 1_554 S
C568 C563 1.390 . S
C568 C567 1.387 . S
H569 C581 0.930 . S
H570 C583 0.930 . S
H571 C584 0.930 . S
H572 C588 0.959 1_545 S
H573 C588 0.959 . S
H574 C588 0.961 . S
H575 C589 0.960 1_655 S
H576 C589 0.961 . S
H577 C589 0.959 1_655 S
H578 C592 0.929 . S
H579 C593 0.931 . S
H580 C595 0.930 . S
C581 H569 0.930 . S
C581 C582 1.399 1_565 S
C581 C586 1.399 . S
C582 C581 1.399 1_545 S
C582 C583 1.376 . S
C583 H570 0.930 . S
C583 C582 1.376 . S
C583 C584 1.388 . S
C584 H571 0.930 . S
C584 C583 1.388 . S
C584 C585 1.390 . S
C585 C584 1.390 . S
C585 C586 1.394 1_545 S
C585 C591 1.465 1_655 S
C586 C581 1.399 . S
C586 C585 1.394 1_565 S
C586 C587 1.516 1_655 S
C587 C586 1.516 1_455 S
C587 C588 1.502 . S
C587 C589 1.561 . S
C587 C590 1.526 . S
C588 H572 0.959 1_565 S
C588 H573 0.959 . S
C588 H574 0.961 . S
C588 C587 1.502 . S
C589 H575 0.960 1_455 S
C589 H576 0.961 . S
C589 H577 0.959 1_455 S
C589 C587 1.561 . S
C590 C587 1.526 . S
C590 C591 1.396 1_565 S
C590 C595 1.390 . S
C591 C585 1.465 1_455 S
C591 C590 1.396 1_545 S
C591 C592 1.399 . S
C592 H578 0.929 . S
C592 C591 1.399 . S
C592 C593 1.385 . S
C593 H579 0.931 . S
C593 C592 1.385 . S
C593 C594 1.389 1_545 S
C594 C593 1.389 1_565 S
C594 C595 1.387 . S
C595 H580 0.930 . S
C595 C590 1.390 . S
C595 C594 1.387 . S
H596 C608 0.930 . S
H597 C610 0.930 . S
H598 C611 0.930 . S
H599 C615 0.959 . S
H600 C615 0.959 . S
H601 C615 0.961 . S
H602 C616 0.960 . S
H603 C616 0.961 . S
H604 C616 0.959 . S
H605 C619 0.929 . S
H606 C620 0.931 . S
H607 C622 0.930 . S
C608 H596 0.930 . S
C608 C609 1.399 . S
C608 C613 1.399 . S
C609 C608 1.399 . S
C609 C610 1.376 1_554 S
C610 H597 0.930 . S
C610 C609 1.376 1_556 S
C610 C611 1.388 . S
C611 H598 0.930 . S
C611 C610 1.388 . S
C611 C612 1.390 . S
C612 C611 1.390 . S
C612 C613 1.394 1_556 S
C612 C618 1.465 . S
C613 C608 1.399 . S
C613 C612 1.394 1_554 S
C613 C614 1.516 . S
C614 C613 1.516 . S
C614 C615 1.502 . S
C614 C616 1.561 . S
C614 C617 1.526 . S
C615 H599 0.959 . S
C615 H600 0.959 . S
C615 H601 0.961 . S
C615 C614 1.502 . S
C616 H602 0.960 . S
C616 H603 0.961 . S
C616 H604 0.959 . S
C616 C614 1.561 . S
C617 C614 1.526 . S
C617 C618 1.396 1_554 S
C617 C622 1.390 . S
C618 C612 1.465 . S
C618 C617 1.396 1_556 S
C618 C619 1.399 . S
C619 H605 0.929 . S
C619 C618 1.399 . S
C619 C620 1.385 . S
C620 H606 0.931 . S
C620 C619 1.385 . S
C620 C621 1.389 . S
C621 C620 1.389 . S
C621 C622 1.387 1_556 S
C622 H607 0.930 . S
C622 C617 1.390 . S
C622 C621 1.387 1_554 S
H623 C635 0.930 . S
H624 C637 0.930 . S
H625 C638 0.930 . S
H626 C642 0.959 . S
H627 C642 0.959 . S
H628 C642 0.961 . S
H629 C643 0.960 . S
H630 C643 0.961 . S
H631 C643 0.959 . S
H632 C646 0.929 . S
H633 C647 0.931 . S
H634 C649 0.930 . S
C635 H623 0.930 . S
C635 C636 1.399 . S
C635 C640 1.399 . S
C636 C635 1.399 . S
C636 C637 1.376 . S
C637 H624 0.930 . S
C637 C636 1.376 . S
C637 C638 1.388 . S
C638 H625 0.930 . S
C638 C637 1.388 . S
C638 C639 1.390 . S
C639 C638 1.390 . S
C639 C640 1.394 . S
C639 C645 1.465 . S
C640 C635 1.399 . S
C640 C639 1.394 . S
C640 C641 1.516 . S
C641 C640 1.516 . S
C641 C642 1.502 . S
C641 C643 1.561 . S
C641 C644 1.526 . S
C642 H626 0.959 . S
C642 H627 0.959 . S
C642 H628 0.961 . S
C642 C641 1.502 . S
C643 H629 0.960 . S
C643 H630 0.961 . S
C643 H631 0.959 . S
C643 C641 1.561 . S
C644 C641 1.526 . S
C644 C645 1.396 . S
C644 C649 1.390 . S
C645 C639 1.465 . S
C645 C644 1.396 . S
C645 C646 1.399 . S
C646 H632 0.929 . S
C646 C645 1.399 . S
C646 C647 1.385 . S
C647 H633 0.931 . S
C647 C646 1.385 . S
C647 C648 1.389 . S
C648 C647 1.389 . S
C648 C649 1.387 . S
C649 H634 0.930 . S
C649 C644 1.390 . S
C649 C648 1.387 . S
H650 C662 0.930 . S
H651 C664 0.930 . S
H652 C665 0.930 . S
H653 C669 0.959 . S
H654 C669 0.959 . S
H655 C669 0.961 . S
H656 C670 0.960 . S
H657 C670 0.961 . S
H658 C670 0.959 . S
H659 C673 0.929 . S
H660 C674 0.931 . S
H661 C676 0.930 . S
C662 H650 0.930 . S
C662 C663 1.399 1_556 S
C662 C667 1.399 . S
C663 C662 1.399 1_554 S
C663 C664 1.376 . S
C664 H651 0.930 . S
C664 C663 1.376 . S
C664 C665 1.388 . S
C665 H652 0.930 . S
C665 C664 1.388 . S
C665 C666 1.390 . S
C666 C665 1.390 . S
C666 C667 1.394 1_554 S
C666 C672 1.465 . S
C667 C662 1.399 . S
C667 C666 1.394 1_556 S
C667 C668 1.516 . S
C668 C667 1.516 . S
C668 C669 1.502 . S
C668 C670 1.561 . S
C668 C671 1.526 . S
C669 H653 0.959 . S
C669 H654 0.959 . S
C669 H655 0.961 . S
C669 C668 1.502 . S
C670 H656 0.960 . S
C670 H657 0.961 . S
C670 H658 0.959 . S
C670 C668 1.561 . S
C671 C668 1.526 . S
C671 C672 1.396 1_556 S
C671 C676 1.390 . S
C672 C666 1.465 . S
C672 C671 1.396 1_554 S
C672 C673 1.399 . S
C673 H659 0.929 . S
C673 C672 1.399 . S
C673 C674 1.385 . S
C674 H660 0.931 . S
C674 C673 1.385 . S
C674 C675 1.389 1_554 S
C675 C674 1.389 1_556 S
C675 C676 1.387 . S
C676 H661 0.930 . S
C676 C671 1.390 . S
C676 C675 1.387 . S
H677 C689 0.930 . S
H678 C691 0.930 . S
H679 C692 0.930 . S
H680 C696 0.959 . S
H681 C696 0.959 . S
H682 C696 0.961 . S
H683 C697 0.960 . S
H684 C697 0.961 . S
H685 C697 0.959 . S
H686 C700 0.929 . S
H687 C701 0.931 . S
H688 C703 0.930 . S
C689 H677 0.930 . S
C689 C690 1.399 . S
C689 C694 1.399 . S
C690 C689 1.399 . S
C690 C691 1.376 . S
C691 H678 0.930 . S
C691 C690 1.376 . S
C691 C692 1.388 . S
C692 H679 0.930 . S
C692 C691 1.388 . S
C692 C693 1.390 . S
C693 C692 1.390 . S
C693 C694 1.394 . S
C693 C699 1.465 . S
C694 C689 1.399 . S
C694 C693 1.394 . S
C694 C695 1.516 . S
C695 C694 1.516 . S
C695 C696 1.502 . S
C695 C697 1.561 . S
C695 C698 1.526 . S
C696 H680 0.959 . S
C696 H681 0.959 . S
C696 H682 0.961 . S
C696 C695 1.502 . S
C697 H683 0.960 . S
C697 H684 0.961 . S
C697 H685 0.959 . S
C697 C695 1.561 . S
C698 C695 1.526 . S
C698 C699 1.396 . S
C698 C703 1.390 . S
C699 C693 1.465 . S
C699 C698 1.396 . S
C699 C700 1.399 . S
C700 H686 0.929 . S
C700 C699 1.399 . S
C700 C701 1.385 . S
C701 H687 0.931 . S
C701 C700 1.385 . S
C701 C702 1.389 . S
C702 C701 1.389 . S
C702 C703 1.387 . S
C703 H688 0.930 . S
C703 C698 1.390 . S
C703 C702 1.387 . S
H704 C716 0.930 . S
H705 C718 0.930 . S
H706 C719 0.930 . S
H707 C723 0.959 . S
H708 C723 0.959 . S
H709 C723 0.961 . S
H710 C724 0.960 . S
H711 C724 0.961 . S
H712 C724 0.959 . S
H713 C727 0.929 . S
H714 C728 0.931 . S
H715 C730 0.930 . S
C716 H704 0.930 . S
C716 C717 1.399 . S
C716 C721 1.399 . S
C717 C716 1.399 . S
C717 C718 1.376 . S
C718 H705 0.930 . S
C718 C717 1.376 . S
C718 C719 1.388 . S
C719 H706 0.930 . S
C719 C718 1.388 . S
C719 C720 1.390 . S
C720 C719 1.390 . S
C720 C721 1.394 . S
C720 C726 1.465 . S
C721 C716 1.399 . S
C721 C720 1.394 . S
C721 C722 1.516 . S
C722 C721 1.516 . S
C722 C723 1.502 . S
C722 C724 1.561 . S
C722 C725 1.526 . S
C723 H707 0.959 . S
C723 H708 0.959 . S
C723 H709 0.961 . S
C723 C722 1.502 . S
C724 H710 0.960 . S
C724 H711 0.961 . S
C724 H712 0.959 . S
C724 C722 1.561 . S
C725 C722 1.526 . S
C725 C726 1.396 . S
C725 C730 1.390 . S
C726 C720 1.465 . S
C726 C725 1.396 . S
C726 C727 1.399 . S
C727 H713 0.929 . S
C727 C726 1.399 . S
C727 C728 1.385 . S
C728 H714 0.931 . S
C728 C727 1.385 . S
C728 C729 1.389 . S
C729 C728 1.389 . S
C729 C730 1.387 . S
C730 H715 0.930 . S
C730 C725 1.390 . S
C730 C729 1.387 . S
H731 C743 0.930 . S
H732 C745 0.930 . S
H733 C746 0.930 . S
H734 C750 0.959 . S
H735 C750 0.959 . S
H736 C750 0.961 . S
H737 C751 0.960 . S
H738 C751 0.961 . S
H739 C751 0.959 . S
H740 C754 0.929 . S
H741 C755 0.931 . S
H742 C757 0.930 . S
C743 H731 0.930 . S
C743 C744 1.399 . S
C743 C748 1.399 . S
C744 C743 1.399 . S
C744 C745 1.376 . S
C745 H732 0.930 . S
C745 C744 1.376 . S
C745 C746 1.388 . S
C746 H733 0.930 . S
C746 C745 1.388 . S
C746 C747 1.390 . S
C747 C746 1.390 . S
C747 C748 1.394 . S
C747 C753 1.465 . S
C748 C743 1.399 . S
C748 C747 1.394 . S
C748 C749 1.516 . S
C749 C748 1.516 . S
C749 C750 1.502 . S
C749 C751 1.561 . S
C749 C752 1.526 . S
C750 H734 0.959 . S
C750 H735 0.959 . S
C750 H736 0.961 . S
C750 C749 1.502 . S
C751 H737 0.960 . S
C751 H738 0.961 . S
C751 H739 0.959 . S
C751 C749 1.561 . S
C752 C749 1.526 . S
C752 C753 1.396 . S
C752 C757 1.390 . S
C753 C747 1.465 . S
C753 C752 1.396 . S
C753 C754 1.399 . S
C754 H740 0.929 . S
C754 C753 1.399 . S
C754 C755 1.385 . S
C755 H741 0.931 . S
C755 C754 1.385 . S
C755 C756 1.389 . S
C756 C755 1.389 . S
C756 C757 1.387 . S
C757 H742 0.930 . S
C757 C752 1.390 . S
C757 C756 1.387 . S
H758 C770 0.930 . S
H759 C772 0.930 . S
H760 C773 0.930 . S
H761 C777 0.959 . S
H762 C777 0.959 . S
H763 C777 0.961 . S
H764 C778 0.960 1_455 S
H765 C778 0.961 . S
H766 C778 0.959 1_455 S
H767 C781 0.929 . S
H768 C782 0.931 . S
H769 C784 0.930 . S
C770 H758 0.930 . S
C770 C771 1.399 . S
C770 C775 1.399 . S
C771 C770 1.399 . S
C771 C772 1.376 . S
C772 H759 0.930 . S
C772 C771 1.376 . S
C772 C773 1.388 . S
C773 H760 0.930 . S
C773 C772 1.388 . S
C773 C774 1.390 . S
C774 C773 1.390 . S
C774 C775 1.394 . S
C774 C780 1.465 1_455 S
C775 C770 1.399 . S
C775 C774 1.394 . S
C775 C776 1.516 1_455 S
C776 C775 1.516 1_655 S
C776 C777 1.502 . S
C776 C778 1.561 . S
C776 C779 1.526 . S
C777 H761 0.959 . S
C777 H762 0.959 . S
C777 H763 0.961 . S
C777 C776 1.502 . S
C778 H764 0.960 1_655 S
C778 H765 0.961 . S
C778 H766 0.959 1_655 S
C778 C776 1.561 . S
C779 C776 1.526 . S
C779 C780 1.396 . S
C779 C784 1.390 . S
C780 C774 1.465 1_655 S
C780 C779 1.396 . S
C780 C781 1.399 . S
C781 H767 0.929 . S
C781 C780 1.399 . S
C781 C782 1.385 . S
C782 H768 0.931 . S
C782 C781 1.385 . S
C782 C783 1.389 . S
C783 C782 1.389 . S
C783 C784 1.387 . S
C784 H769 0.930 . S
C784 C779 1.390 . S
C784 C783 1.387 . S
H785 C797 0.930 . S
H786 C799 0.930 . S
H787 C800 0.930 . S
H788 C804 0.959 . S
H789 C804 0.959 . S
H790 C804 0.961 . S
H791 C805 0.968 . S
H792 C805 0.949 1_655 S
H793 C805 0.969 . S
H794 C808 0.929 . S
H795 C809 0.931 . S
H796 C811 0.930 . S
C797 H785 0.930 . S
C797 C798 1.399 . S
C797 C802 1.399 . S
C798 C797 1.399 . S
C798 C799 1.376 . S
C799 H786 0.930 . S
C799 C798 1.376 . S
C799 C800 1.388 . S
C800 H787 0.930 . S
C800 C799 1.388 . S
C800 C801 1.390 . S
C801 C800 1.390 . S
C801 C802 1.394 . S
C801 C807 1.465 1_455 S
C802 C797 1.399 . S
C802 C801 1.394 . S
C802 C803 1.516 1_455 S
C803 C802 1.516 1_655 S
C803 C804 1.502 . S
C803 C805 1.556 1_655 S
C803 C806 1.526 . S
C804 H788 0.959 . S
C804 H789 0.959 . S
C804 H790 0.961 . S
C804 C803 1.502 . S
C805 H791 0.968 . S
C805 H792 0.949 1_455 S
C805 H793 0.969 . S
C805 C803 1.556 1_455 S
C806 C803 1.526 . S
C806 C807 1.396 . S
C806 C811 1.390 . S
C807 C801 1.465 1_655 S
C807 C806 1.396 . S
C807 C808 1.399 . S
C808 H794 0.929 . S
C808 C807 1.399 . S
C808 C809 1.385 . S
C809 H795 0.931 . S
C809 C808 1.385 . S
C809 C810 1.389 . S
C810 C809 1.389 . S
C810 C811 1.387 . S
C811 H796 0.930 . S
C811 C806 1.390 . S
C811 C810 1.387 . S
C285 C135 1.486 . S
C297 C20 1.390 . S
C312 C54 1.429 . S
C324 C101 1.486 . S
C339 C67 1.504 . S
C351 C88 1.448 . S
C366 C33 1.479 . S
C378 C122 1.383 . S
C393 C156 1.450 . S
C405 C271 1.506 . S
C420 C237 1.469 . S
C432 C190 1.374 . S
C447 C224 1.446 . S
C459 C203 1.503 . S
C474 C258 1.386 . S
C486 C169 1.481 . S
C501 C5 0.567 . S
C513 C73 0.637 . S
C528 C39 0.753 . S
C540 C107 0.467 . S
C555 C209 0.501 . S
C567 C141 0.743 . S
C582 C243 0.560 . S
C594 C175 0.713 . S
C609 C9 1.321 . S
C621 C213 1.314 . S
C636 C43 1.314 . S
C648 C247 1.321 . S
C663 C145 1.330 . S
C675 C77 1.325 . S
C690 C179 1.329 . S
C702 C111 1.326 . S
C717 C36 1.921 . S
C729 C2 1.920 . S
C744 C104 1.879 . S
C756 C70 1.862 . S
C771 C172 1.910 . S
C783 C138 1.908 . S
C798 C206 1.877 . S
C810 C240 1.861 . S
