# Generated by pormake.
# Topology zfl, (5)-cn, num edge types: 1
# Building blocks:
#     Node 0, Type 0, BuildingBlock: BEQFEK_clean_sbu_0, # of connection points: 5
#     Node 1, Type 0, BuildingBlock: BEQFEK_clean_sbu_0, # of connection points: 5
#     Node 2, Type 0, BuildingBlock: BEQFEK_clean_sbu_0, # of connection points: 5
#     Node 3, Type 0, BuildingBlock: BEQFEK_clean_sbu_0, # of connection points: 5
#     Node 4, Type 0, BuildingBlock: BEQFEK_clean_sbu_0, # of connection points: 5
#     Node 5, Type 0, BuildingBlock: BEQFEK_clean_sbu_0, # of connection points: 5
#     Node 6, Type 0, BuildingBlock: BEQFEK_clean_sbu_0, # of connection points: 5
#     Node 7, Type 0, BuildingBlock: BEQFEK_clean_sbu_0, # of connection points: 5
#     Node 8, Type 0, BuildingBlock: BEQFEK_clean_sbu_0, # of connection points: 5
#     Node 9, Type 0, BuildingBlock: BEQFEK_clean_sbu_0, # of connection points: 5
#     Node 10, Type 0, BuildingBlock: BEQFEK_clean_sbu_0, # of connection points: 5
#     Node 11, Type 0, BuildingBlock: BEQFEK_clean_sbu_0, # of connection points: 5
#     Node 12, Type 0, BuildingBlock: BEQFEK_clean_sbu_0, # of connection points: 5
#     Node 13, Type 0, BuildingBlock: BEQFEK_clean_sbu_0, # of connection points: 5
#     Node 14, Type 0, BuildingBlock: BEQFEK_clean_sbu_0, # of connection points: 5
#     Node 15, Type 0, BuildingBlock: BEQFEK_clean_sbu_0, # of connection points: 5
#     Edge 16, Type (0, 0), BuildingBlock: UVAHIK_clean_linker_0, # of connection points: 2
#     Edge 17, Type (0, 0), BuildingBlock: UVAHIK_clean_linker_0, # of connection points: 2
#     Edge 18, Type (0, 0), BuildingBlock: UVAHIK_clean_linker_0, # of connection points: 2
#     Edge 19, Type (0, 0), BuildingBlock: UVAHIK_clean_linker_0, # of connection points: 2
#     Edge 20, Type (0, 0), BuildingBlock: UVAHIK_clean_linker_0, # of connection points: 2
#     Edge 21, Type (0, 0), BuildingBlock: UVAHIK_clean_linker_0, # of connection points: 2
#     Edge 22, Type (0, 0), BuildingBlock: UVAHIK_clean_linker_0, # of connection points: 2
#     Edge 23, Type (0, 0), BuildingBlock: UVAHIK_clean_linker_0, # of connection points: 2
#     Edge 24, Type (0, 0), BuildingBlock: UVAHIK_clean_linker_0, # of connection points: 2
#     Edge 25, Type (0, 0), BuildingBlock: UVAHIK_clean_linker_0, # of connection points: 2
#     Edge 26, Type (0, 0), BuildingBlock: UVAHIK_clean_linker_0, # of connection points: 2
#     Edge 27, Type (0, 0), BuildingBlock: UVAHIK_clean_linker_0, # of connection points: 2
#     Edge 28, Type (0, 0), BuildingBlock: UVAHIK_clean_linker_0, # of connection points: 2
#     Edge 29, Type (0, 0), BuildingBlock: UVAHIK_clean_linker_0, # of connection points: 2
#     Edge 30, Type (0, 0), BuildingBlock: UVAHIK_clean_linker_0, # of connection points: 2
#     Edge 31, Type (0, 0), BuildingBlock: UVAHIK_clean_linker_0, # of connection points: 2
#     Edge 32, Type (0, 0), BuildingBlock: UVAHIK_clean_linker_0, # of connection points: 2
#     Edge 33, Type (0, 0), BuildingBlock: UVAHIK_clean_linker_0, # of connection points: 2
#     Edge 34, Type (0, 0), BuildingBlock: UVAHIK_clean_linker_0, # of connection points: 2
#     Edge 35, Type (0, 0), BuildingBlock: UVAHIK_clean_linker_0, # of connection points: 2
#     Edge 36, Type (0, 0), BuildingBlock: UVAHIK_clean_linker_0, # of connection points: 2
#     Edge 37, Type (0, 0), BuildingBlock: UVAHIK_clean_linker_0, # of connection points: 2
#     Edge 38, Type (0, 0), BuildingBlock: UVAHIK_clean_linker_0, # of connection points: 2
#     Edge 39, Type (0, 0), BuildingBlock: UVAHIK_clean_linker_0, # of connection points: 2
#     Edge 40, Type (0, 0), BuildingBlock: UVAHIK_clean_linker_0, # of connection points: 2
#     Edge 41, Type (0, 0), BuildingBlock: UVAHIK_clean_linker_0, # of connection points: 2
#     Edge 42, Type (0, 0), BuildingBlock: UVAHIK_clean_linker_0, # of connection points: 2
#     Edge 43, Type (0, 0), BuildingBlock: UVAHIK_clean_linker_0, # of connection points: 2
#     Edge 44, Type (0, 0), BuildingBlock: UVAHIK_clean_linker_0, # of connection points: 2
#     Edge 45, Type (0, 0), BuildingBlock: UVAHIK_clean_linker_0, # of connection points: 2
#     Edge 46, Type (0, 0), BuildingBlock: UVAHIK_clean_linker_0, # of connection points: 2
#     Edge 47, Type (0, 0), BuildingBlock: UVAHIK_clean_linker_0, # of connection points: 2
#     Edge 48, Type (0, 0), BuildingBlock: UVAHIK_clean_linker_0, # of connection points: 2
#     Edge 49, Type (0, 0), BuildingBlock: UVAHIK_clean_linker_0, # of connection points: 2
#     Edge 50, Type (0, 0), BuildingBlock: UVAHIK_clean_linker_0, # of connection points: 2
#     Edge 51, Type (0, 0), BuildingBlock: UVAHIK_clean_linker_0, # of connection points: 2
#     Edge 52, Type (0, 0), BuildingBlock: UVAHIK_clean_linker_0, # of connection points: 2
#     Edge 53, Type (0, 0), BuildingBlock: UVAHIK_clean_linker_0, # of connection points: 2
#     Edge 54, Type (0, 0), BuildingBlock: UVAHIK_clean_linker_0, # of connection points: 2
#     Edge 55, Type (0, 0), BuildingBlock: UVAHIK_clean_linker_0, # of connection points: 2
# Relax obj value: 0.204
# Max RMSD: 0.235
# Mean RMSD: 0.222
data_MOF--net-zfl--node1-BEQFEK_clean_sbu_0--edge1-UVAHIK_clean_linker_0
_symmetry_space_group_name_H-M    P1
_symmetry_Int_Tables_number       1
_symmetry_cell_setting            triclinic
loop_
_symmetry_equiv_pos_as_xyz
'x, y, z'
_cell_length_a     34.859631
_cell_length_b     34.83964
_cell_length_c     93.742194
_cell_angle_alpha  90.003963
_cell_angle_beta   89.992536
_cell_angle_gamma 90.001908
loop_
_atom_site_label
_atom_site_type_symbol
_atom_site_fract_x
_atom_site_fract_y
_atom_site_fract_z
_atom_type_partial_charge
Co0 Co 0.56718 0.03388 0.15238 0.0
Co1 Co 0.5781 0.03581 0.11887 0.0
C2 C 0.50548 0.06269 0.13282 0.0
O3 O 0.51827 0.05548 0.14526 0.0
O4 O 0.52542 0.05584 0.12172 0.0
C5 C 0.54024 0.04407 0.18112 0.0
O6 O 0.5215 0.07284 0.17533 0.0
C7 C 0.56161 0.02071 0.08853 0.0
C8 C 0.61809 0.03087 0.07855 0.0
C9 C 0.58049 0.02091 0.07547 0.0
N10 N 0.58685 0.03027 0.09879 0.0
N11 N 0.62051 0.03647 0.09273 0.0
C12 C 0.52092 0.00954 0.09141 0.0
H13 H 0.50247 0.03538 0.09056 0.0
H14 H 0.51814 0.99779 0.10237 0.0
H15 H 0.5109 0.98799 0.08352 0.0
C16 C 0.58392 0.95161 0.14721 0.0
N17 N 0.57942 0.98787 0.14253 0.0
N18 N 0.58553 0.98887 0.12868 0.0
C19 C 0.59537 0.95352 0.12417 0.0
C20 C 0.5945 0.92854 0.13575 0.0
C21 C 0.57493 0.93915 0.16213 0.0
H22 H 0.54898 0.95432 0.16601 0.0
H23 H 0.56978 0.9078 0.16279 0.0
H24 H 0.59925 0.9469 0.16921 0.0
O25 O 0.60801 0.07336 0.1496 0.0
O26 O 0.61441 0.07473 0.12601 0.0
H27 H 0.62723 0.96702 0.10531 0.0
H28 H 0.62212 0.91641 0.10847 0.0
C29 C 0.60736 0.94453 0.1092 0.0
H30 H 0.5817 0.94433 0.1022 0.0
H31 H 0.64521 0.04441 0.0983 0.0
O32 O 0.56202 0.02368 0.17329 0.0
C33 C 0.62352 0.08699 0.13836 0.0
Co34 Co 0.46531 0.56404 0.65323 0.0
Co35 Co 0.46229 0.57853 0.61992 0.0
C36 C 0.43463 0.50493 0.63301 0.0
O37 O 0.44256 0.5162 0.64559 0.0
O38 O 0.44137 0.526 0.62219 0.0
C39 C 0.45723 0.53307 0.6815 0.0
O40 O 0.42858 0.51441 0.67561 0.0
C41 C 0.47713 0.56334 0.58956 0.0
C42 C 0.46625 0.61987 0.57972 0.0
C43 C 0.47652 0.58239 0.57654 0.0
N44 N 0.46746 0.58833 0.5999 0.0
N45 N 0.46085 0.62205 0.59392 0.0
C46 C 0.48884 0.52273 0.59234 0.0
H47 H 0.5006 0.51989 0.60329 0.0
H48 H 0.51053 0.51316 0.58443 0.0
H49 H 0.46329 0.50393 0.59142 0.0
C50 C 0.54738 0.58099 0.64793 0.0
N51 N 0.51108 0.57664 0.6433 0.0
N52 N 0.50967 0.58425 0.62957 0.0
C53 C 0.54481 0.59491 0.62509 0.0
C54 C 0.57004 0.59309 0.63657 0.0
C55 C 0.56022 0.57087 0.66271 0.0
H56 H 0.54559 0.54429 0.66627 0.0
H57 H 0.59165 0.5662 0.66324 0.0
H58 H 0.55216 0.59439 0.67011 0.0
O59 O 0.42663 0.60592 0.65127 0.0
O60 O 0.42447 0.61506 0.6278 0.0
H61 H 0.58103 0.62438 0.60978 0.0
H62 H 0.55381 0.58421 0.60289 0.0
C63 C 0.55323 0.60898 0.61033 0.0
H64 H 0.53026 0.62884 0.60684 0.0
H65 H 0.45274 0.64659 0.59956 0.0
O66 O 0.47653 0.55648 0.67395 0.0
C67 C 0.41295 0.62304 0.64036 0.0
Co68 Co 0.92824 0.46691 0.15478 0.0
Co69 Co 0.9215 0.46805 0.12106 0.0
C70 C 0.99141 0.43801 0.13535 0.0
O71 O 0.97724 0.44466 0.14764 0.0
O72 O 0.9731 0.44625 0.12401 0.0
C73 C 0.95522 0.45472 0.18337 0.0
O74 O 0.9722 0.42506 0.17745 0.0
C75 C 0.93815 0.47705 0.09024 0.0
C76 C 0.88014 0.48601 0.08138 0.0
C77 C 0.91844 0.4833 0.07757 0.0
N78 N 0.91264 0.47583 0.10102 0.0
N79 N 0.87801 0.48112 0.09562 0.0
C80 C 0.98067 0.47511 0.09224 0.0
H81 H 0.9895 0.44456 0.09279 0.0
H82 H 0.98886 0.48931 0.10238 0.0
H83 H 0.99602 0.48912 0.08327 0.0
C84 C 0.90776 0.54842 0.15055 0.0
N85 N 0.91614 0.5134 0.14536 0.0
N86 N 0.9154 0.51457 0.13133 0.0
C87 C 0.90783 0.55077 0.12713 0.0
C88 C 0.90227 0.57344 0.13918 0.0
C89 C 0.90273 0.55677 0.1661 0.0
H90 H 0.88761 0.53256 0.17133 0.0
H91 H 0.93138 0.55975 0.17115 0.0
H92 H 0.88606 0.58348 0.16785 0.0
O93 O 0.88718 0.42888 0.1515 0.0
O94 O 0.88333 0.42937 0.1278 0.0
H95 H 0.88076 0.55748 0.10683 0.0
H96 H 0.91456 0.59502 0.11111 0.0
C97 C 0.90881 0.56378 0.11191 0.0
H98 H 0.93152 0.54816 0.10603 0.0
H99 H 0.8529 0.48162 0.10168 0.0
O100 O 0.93427 0.47631 0.17569 0.0
C101 C 0.87257 0.41649 0.13991 0.0
Co102 Co 0.02912 0.92688 0.65301 0.0
Co103 Co 0.0334 0.91102 0.61974 0.0
C104 C 0.06177 0.98475 0.63295 0.0
O105 O 0.05241 0.97494 0.64557 0.0
O106 O 0.05574 0.96262 0.62238 0.0
C107 C 0.0172 0.96584 0.67995 0.0
O108 O 0.02405 0.99678 0.67236 0.0
C109 C 0.01806 0.92487 0.58904 0.0
C110 C 0.03882 0.87071 0.57956 0.0
C111 C 0.02371 0.9063 0.57602 0.0
N112 N 0.02941 0.90126 0.59963 0.0
N113 N 0.04149 0.86887 0.59385 0.0
C114 C 0.00426 0.96503 0.59144 0.0
H115 H 0.01018 0.97455 0.60248 0.0
H116 H 0.97275 0.96608 0.58984 0.0
H117 H 0.01797 0.98494 0.58373 0.0
C118 C 0.94689 0.9105 0.64713 0.0
N119 N 0.98356 0.91429 0.6428 0.0
N120 N 0.98568 0.90613 0.62911 0.0
C121 C 0.95075 0.89564 0.62439 0.0
C122 C 0.9248 0.89829 0.63561 0.0
C123 C 0.93321 0.92121 0.66173 0.0
H124 H 0.94732 0.94819 0.66516 0.0
H125 H 0.90171 0.92545 0.66205 0.0
H126 H 0.94135 0.89827 0.66937 0.0
O127 O 0.06827 0.88502 0.65113 0.0
O128 O 0.07022 0.87422 0.62777 0.0
H129 H 0.91604 0.86425 0.60918 0.0
H130 H 0.94118 0.90551 0.60218 0.0
C131 C 0.94312 0.88092 0.60966 0.0
H132 H 0.96703 0.86216 0.60618 0.0
H133 H 0.05245 0.84579 0.59967 0.0
O134 O 0.01769 0.93321 0.67383 0.0
C135 C 0.08186 0.86712 0.64038 0.0
Co136 Co 0.56846 0.46321 0.85756 0.0
Co137 Co 0.5715 0.46537 0.89135 0.0
C138 C 0.50237 0.43688 0.87613 0.0
O139 O 0.51826 0.44242 0.86406 0.0
O140 O 0.51945 0.44535 0.88771 0.0
C141 C 0.54492 0.44947 0.82873 0.0
O142 O 0.52865 0.41931 0.83457 0.0
C143 C 0.55298 0.47335 0.92211 0.0
C144 C 0.6099 0.48663 0.93121 0.0
C145 C 0.57167 0.48184 0.93484 0.0
N146 N 0.57891 0.47381 0.91146 0.0
N147 N 0.61289 0.48152 0.91701 0.0
C148 C 0.51205 0.46151 0.92017 0.0
H149 H 0.51125 0.43363 0.91448 0.0
H150 H 0.49704 0.48309 0.91349 0.0
H151 H 0.49684 0.45798 0.93046 0.0
C152 C 0.58984 0.54448 0.86169 0.0
N153 N 0.58067 0.50971 0.86693 0.0
N154 N 0.5799 0.51139 0.88095 0.0
C155 C 0.58718 0.54772 0.88507 0.0
C156 C 0.59421 0.5699 0.873 0.0
C157 C 0.59621 0.55232 0.84617 0.0
H158 H 0.61158 0.52784 0.84122 0.0
H159 H 0.56803 0.55536 0.84079 0.0
H160 H 0.61321 0.57887 0.84451 0.0
O161 O 0.6081 0.42425 0.86161 0.0
O162 O 0.60914 0.42532 0.88534 0.0
H163 H 0.61171 0.55663 0.90569 0.0
H164 H 0.57718 0.59261 0.90058 0.0
C165 C 0.58403 0.56154 0.90015 0.0
H166 H 0.56121 0.54552 0.90583 0.0
H167 H 0.63816 0.48347 0.91108 0.0
O168 O 0.56441 0.47203 0.83657 0.0
C169 C 0.62095 0.41179 0.87347 0.0
Co170 Co 0.0278 0.56678 0.35949 0.0
Co171 Co 0.02913 0.5798 0.39289 0.0
C172 C 0.05687 0.50652 0.37956 0.0
O173 O 0.04964 0.51839 0.36699 0.0
O174 O 0.04973 0.52716 0.39045 0.0
C175 C 0.03854 0.53812 0.33105 0.0
O176 O 0.06778 0.52052 0.337 0.0
C177 C 0.01333 0.56343 0.4231 0.0
C178 C 0.02321 0.61977 0.43325 0.0
C179 C 0.01333 0.58206 0.4362 0.0
N180 N 0.02299 0.58887 0.41292 0.0
N181 N 0.02898 0.62247 0.41907 0.0
C182 C 0.00228 0.52274 0.42012 0.0
H183 H 0.99064 0.5201 0.40914 0.0
H184 H 0.98069 0.51255 0.42795 0.0
H185 H 0.02812 0.50432 0.42097 0.0
C186 C 0.94552 0.58377 0.36428 0.0
N187 N 0.9816 0.57935 0.36912 0.0
N188 N 0.98232 0.58638 0.38291 0.0
C189 C 0.94693 0.59672 0.38721 0.0
C190 C 0.92225 0.59528 0.37555 0.0
C191 C 0.93341 0.574 0.34938 0.0
H192 H 0.94839 0.54764 0.3458 0.0
H193 H 0.90204 0.56912 0.34864 0.0
H194 H 0.94162 0.59781 0.34214 0.0
O195 O 0.06696 0.60799 0.36204 0.0
O196 O 0.06798 0.61607 0.38557 0.0
H197 H 0.96033 0.62973 0.4058 0.0
H198 H 0.90975 0.62503 0.4025 0.0
C199 C 0.9377 0.60988 0.40202 0.0
H200 H 0.937 0.58471 0.40927 0.0
H201 H 0.03699 0.64729 0.41358 0.0
O202 O 0.01778 0.56012 0.33865 0.0
C203 C 0.08037 0.62435 0.37315 0.0
Co204 Co 0.92463 0.03222 0.85791 0.0
Co205 Co 0.92304 0.03126 0.89168 0.0
C206 C 0.9906 0.06133 0.87598 0.0
O207 O 0.97431 0.05509 0.86403 0.0
O208 O 0.97436 0.05259 0.8877 0.0
C209 C 0.9586 0.00968 0.83157 0.0
O210 O 0.98701 0.0007 0.84016 0.0
C211 C 0.9439 0.0205 0.92204 0.0
C212 C 0.88686 0.0179 0.93228 0.0
C213 C 0.9258 0.01651 0.93518 0.0
N214 N 0.91684 0.02372 0.91186 0.0
N215 N 0.88284 0.0221 0.91808 0.0
C216 C 0.98591 0.02488 0.9192 0.0
H217 H 0.9913 0.05453 0.91541 0.0
H218 H 0.99466 0.00487 0.91058 0.0
H219 H 0.00362 0.01995 0.92882 0.0
C220 C 0.90495 0.9504 0.86267 0.0
N221 N 0.91406 0.98557 0.86757 0.0
N222 N 0.9153 0.98469 0.8816 0.0
C223 C 0.90836 0.9486 0.88606 0.0
C224 C 0.90113 0.92564 0.87421 0.0
C225 C 0.89757 0.94149 0.84729 0.0
H226 H 0.88361 0.96633 0.84203 0.0
H227 H 0.9253 0.93588 0.84187 0.0
H228 H 0.87892 0.91588 0.84612 0.0
O229 O 0.88397 0.07008 0.86201 0.0
O230 O 0.88412 0.0701 0.88574 0.0
H231 H 0.8848 0.94375 0.90703 0.0
H232 H 0.91623 0.90463 0.90216 0.0
C233 C 0.91154 0.93602 0.90129 0.0
H234 H 0.93589 0.95092 0.90648 0.0
H235 H 0.85683 0.0242 0.91261 0.0
O236 O 0.92804 0.02368 0.83688 0.0
C237 C 0.87136 0.08275 0.87388 0.0
Co238 Co 0.46082 0.9291 0.35661 0.0
Co239 Co 0.46162 0.91923 0.3902 0.0
C240 C 0.43056 0.99006 0.37669 0.0
O241 O 0.43785 0.97761 0.36418 0.0
O242 O 0.43887 0.97043 0.38771 0.0
C243 C 0.48647 0.96695 0.33138 0.0
O244 O 0.49867 0.99203 0.34081 0.0
C245 C 0.47168 0.93344 0.42117 0.0
C246 C 0.47575 0.87431 0.42954 0.0
C247 C 0.47604 0.91248 0.4337 0.0
N248 N 0.46927 0.90872 0.41015 0.0
N249 N 0.47183 0.87345 0.41526 0.0
C250 C 0.46598 0.97579 0.41963 0.0
H251 H 0.436 0.98098 0.41626 0.0
H252 H 0.48516 0.98699 0.41115 0.0
H253 H 0.47085 0.99162 0.4297 0.0
C254 C 0.54294 0.90838 0.36094 0.0
N255 N 0.50763 0.91649 0.36596 0.0
N256 N 0.50828 0.91483 0.37999 0.0
C257 C 0.54427 0.90718 0.38436 0.0
C258 C 0.56747 0.90229 0.37242 0.0
C259 C 0.55222 0.90375 0.34544 0.0
H260 H 0.52715 0.89187 0.33966 0.0
H261 H 0.55927 0.93224 0.34085 0.0
H262 H 0.57716 0.88439 0.34391 0.0
O263 O 0.42296 0.88731 0.35941 0.0
O264 O 0.42383 0.88108 0.38302 0.0
H265 H 0.54938 0.8796 0.40464 0.0
H266 H 0.58779 0.9128 0.40073 0.0
C267 C 0.55655 0.90759 0.39966 0.0
H268 H 0.54111 0.93056 0.40547 0.0
H269 H 0.4705 0.84874 0.40898 0.0
O270 O 0.46934 0.93691 0.33574 0.0
C271 C 0.41092 0.87137 0.37081 0.0
Co272 Co 0.42914 0.96807 0.90256 0.0
Co273 Co 0.40988 0.96429 0.86958 0.0
C274 C 0.48458 0.93518 0.88167 0.0
O275 O 0.47619 0.94506 0.89436 0.0
O276 O 0.4614 0.94102 0.87142 0.0
C277 C 0.46137 0.9561 0.93009 0.0
O278 O 0.47656 0.9266 0.92343 0.0
C279 C 0.42188 0.98471 0.83935 0.0
C280 C 0.3696 0.96143 0.82926 0.0
C281 C 0.40372 0.98024 0.82622 0.0
N282 N 0.39938 0.96947 0.84957 0.0
N283 N 0.36814 0.95573 0.84345 0.0
C284 C 0.46093 0.00096 0.84215 0.0
H285 H 0.47155 0.99227 0.85279 0.0
H286 H 0.45941 0.03274 0.84196 0.0
H287 H 0.48138 0.99152 0.83378 0.0
C288 C 0.41194 0.05044 0.89723 0.0
N289 N 0.41584 0.01393 0.89272 0.0
N290 N 0.40615 0.01195 0.87917 0.0
C291 C 0.39432 0.04676 0.87477 0.0
C292 C 0.39797 0.07253 0.886 0.0
C293 C 0.4234 0.06389 0.91178 0.0
H294 H 0.44946 0.04837 0.91535 0.0
H295 H 0.42928 0.09518 0.91191 0.0
H296 H 0.39991 0.05748 0.91941 0.0
O297 O 0.38662 0.92959 0.90114 0.0
O298 O 0.373 0.92803 0.87796 0.0
H299 H 0.35772 0.08009 0.86084 0.0
H300 H 0.39921 0.05891 0.85249 0.0
C301 C 0.37636 0.0543 0.86053 0.0
H302 H 0.35883 0.02932 0.85722 0.0
H303 H 0.34605 0.94189 0.84894 0.0
O304 O 0.43902 0.97835 0.92324 0.0
C305 C 0.36715 0.91651 0.89068 0.0
Co306 Co 0.52683 0.42733 0.404 0.0
Co307 Co 0.52716 0.4114 0.37075 0.0
C308 C 0.55665 0.48511 0.38289 0.0
O309 O 0.54938 0.47427 0.39557 0.0
O310 O 0.54883 0.46388 0.37222 0.0
C311 C 0.54098 0.45929 0.4315 0.0
O312 O 0.57023 0.47429 0.42465 0.0
C313 C 0.50875 0.42358 0.34048 0.0
C314 C 0.51847 0.36602 0.33129 0.0
C315 C 0.50734 0.40303 0.32779 0.0
N316 N 0.52024 0.39983 0.35095 0.0
N317 N 0.52627 0.36552 0.34536 0.0
C318 C 0.49699 0.46434 0.34291 0.0
H319 H 0.48698 0.46824 0.35406 0.0
H320 H 0.47397 0.47285 0.33537 0.0
H321 H 0.52214 0.48329 0.34117 0.0
C322 C 0.44411 0.41064 0.39971 0.0
N323 N 0.48013 0.41459 0.39471 0.0
N324 N 0.48052 0.40652 0.381 0.0
C325 C 0.44504 0.39592 0.37692 0.0
C326 C 0.42059 0.39842 0.38861 0.0
C327 C 0.43239 0.42099 0.41458 0.0
H328 H 0.44777 0.44726 0.41803 0.0
H329 H 0.40108 0.42619 0.41537 0.0
H330 H 0.44046 0.3973 0.4219 0.0
O331 O 0.56501 0.38503 0.40191 0.0
O332 O 0.56533 0.37524 0.37847 0.0
H333 H 0.40765 0.36567 0.36221 0.0
H334 H 0.43454 0.40525 0.35471 0.0
C335 C 0.43554 0.38097 0.36236 0.0
H336 H 0.45811 0.36071 0.35885 0.0
H337 H 0.53531 0.34165 0.35119 0.0
O338 O 0.51828 0.43707 0.4248 0.0
C339 C 0.57777 0.36756 0.39093 0.0
Co340 Co 0.06881 0.52975 0.90456 0.0
Co341 Co 0.08577 0.53374 0.8714 0.0
C342 C 0.01132 0.56136 0.88411 0.0
O343 O 0.02089 0.55213 0.89676 0.0
O344 O 0.03377 0.55552 0.87363 0.0
C345 C 0.0276 0.5089 0.92989 0.0
O346 O 8e-05 0.50201 0.92066 0.0
C347 C 0.07347 0.51398 0.84102 0.0
C348 C 0.12717 0.53482 0.83123 0.0
C349 C 0.09256 0.51718 0.828 0.0
N350 N 0.096 0.5287 0.85135 0.0
N351 N 0.12803 0.54109 0.84539 0.0
C352 C 0.03385 0.49895 0.84365 0.0
H353 H 0.03456 0.46714 0.84385 0.0
H354 H 0.01414 0.50826 0.83502 0.0
H355 H 0.02275 0.50876 0.85408 0.0
C356 C 0.08781 0.44746 0.89905 0.0
N357 N 0.08292 0.48401 0.89467 0.0
N358 N 0.09143 0.48627 0.881 0.0
C359 C 0.10316 0.45164 0.87638 0.0
C360 C 0.10084 0.42568 0.88758 0.0
C361 C 0.07743 0.43361 0.91367 0.0
H362 H 0.04702 0.44076 0.91583 0.0
H363 H 0.081 0.4022 0.91486 0.0
H364 H 0.09531 0.44871 0.92169 0.0
O365 O 0.11009 0.56949 0.90277 0.0
O366 O 0.12162 0.57149 0.87944 0.0
H367 H 0.13718 0.46861 0.85838 0.0
H368 H 0.13669 0.41765 0.8616 0.0
C369 C 0.11905 0.44416 0.8618 0.0
H370 H 0.09509 0.44091 0.85413 0.0
H371 H 0.15042 0.55408 0.85099 0.0
O372 O 0.06011 0.52016 0.92534 0.0
C373 C 0.12806 0.58334 0.89207 0.0
Co374 Co 0.96264 0.06897 0.40484 0.0
Co375 Co 0.96368 0.08152 0.37137 0.0
C376 C 0.93313 0.00948 0.38399 0.0
O377 O 0.94018 0.02108 0.39662 0.0
O378 O 0.94153 0.02991 0.37318 0.0
C379 C 0.98871 0.02893 0.42938 0.0
O380 O 0.00338 0.00657 0.41949 0.0
C381 C 0.9772 0.0704 0.34035 0.0
C382 C 0.98075 0.13041 0.33286 0.0
C383 C 0.98351 0.09271 0.32826 0.0
N384 N 0.97173 0.09393 0.35158 0.0
N385 N 0.97364 0.12973 0.34697 0.0
C386 C 0.9742 0.02761 0.34122 0.0
H387 H -0.00174 0.01624 0.34772 0.0
H388 H 0.97418 0.0139 0.33056 0.0
H389 H 0.94709 0.01985 0.34662 0.0
C390 C 0.0444 0.09176 0.40094 0.0
N391 N 0.00938 0.08309 0.39576 0.0
N392 N 0.01014 0.08585 0.38176 0.0
C393 C 0.04597 0.0948 0.37755 0.0
C394 C 0.06886 0.09948 0.38957 0.0
C395 C 0.05339 0.09534 0.4165 0.0
H396 H 0.02779 0.10557 0.4224 0.0
H397 H 0.06164 0.06678 0.42073 0.0
H398 H 0.0775 0.11558 0.41829 0.0
O399 O 0.92437 0.1104 0.40247 0.0
O400 O 0.92503 0.11827 0.37892 0.0
H401 H 0.0504 0.12366 0.35749 0.0
H402 H 0.08996 0.09171 0.36123 0.0
C403 C 0.05854 0.09571 0.36228 0.0
H404 H 0.04415 0.07245 0.35628 0.0
H405 H 0.97046 0.15376 0.35352 0.0
O406 O 0.97028 0.05873 0.42558 0.0
C407 C 0.91198 0.12685 0.39123 0.0
Co408 Co 0.42222 0.52928 0.10786 0.0
Co409 Co 0.40742 0.53264 0.14112 0.0
C410 C 0.48005 0.56259 0.12783 0.0
O411 O 0.46928 0.5535 0.11531 0.0
O412 O 0.45908 0.55574 0.13866 0.0
C413 C 0.44494 0.54517 0.07941 0.0
O414 O 0.45232 0.57877 0.08516 0.0
C415 C 0.42079 0.51293 0.17144 0.0
C416 C 0.36689 0.53266 0.18139 0.0
C417 C 0.40192 0.51574 0.18453 0.0
N418 N 0.39776 0.52725 0.16119 0.0
N419 N 0.36561 0.53896 0.16725 0.0
C420 C 0.46059 0.49863 0.16865 0.0
H421 H 0.47108 0.50846 0.15813 0.0
H422 H 0.46045 0.4668 0.16852 0.0
H423 H 0.48044 0.50851 0.17714 0.0
C424 C 0.40645 0.44695 0.11326 0.0
N425 N 0.41074 0.48333 0.11784 0.0
N426 N 0.40269 0.48495 0.13155 0.0
C427 C 0.39153 0.44994 0.13601 0.0
C428 C 0.3938 0.42451 0.1246 0.0
C429 C 0.41646 0.43396 0.0985 0.0
H430 H 0.44239 0.44933 0.09472 0.0
H431 H 0.42207 0.40265 0.09812 0.0
H432 H 0.39242 0.44095 0.09119 0.0
O433 O 0.37943 0.56692 0.10975 0.0
O434 O 0.3698 0.56919 0.1332 0.0
H435 H 0.35765 0.46633 0.15412 0.0
H436 H 0.35774 0.41555 0.15059 0.0
C437 C 0.37558 0.44191 0.15054 0.0
H438 H 0.39955 0.43822 0.15819 0.0
H439 H 0.34284 0.55149 0.16171 0.0
O440 O 0.43081 0.51886 0.08721 0.0
C441 C 0.36177 0.58031 0.12059 0.0
Co442 Co 0.96568 0.42524 0.60842 0.0
Co443 Co 0.96515 0.41089 0.64181 0.0
C444 C 0.93521 0.48384 0.62889 0.0
O445 O 0.94308 0.4727 0.6163 0.0
O446 O 0.94259 0.46289 0.63967 0.0
C447 C 0.95022 0.45438 0.58072 0.0
O448 O 0.9201 0.46794 0.58747 0.0
C449 C 0.98682 0.4238 0.672 0.0
C450 C 0.96736 0.36979 0.68197 0.0
C451 C 0.98444 0.40478 0.68507 0.0
N452 N 0.97204 0.40092 0.66179 0.0
N453 N 0.96056 0.36868 0.66785 0.0
C454 C 0.00106 0.46364 0.66922 0.0
H455 H 0.99117 0.4742 0.65872 0.0
H456 H 0.03287 0.46352 0.66907 0.0
H457 H 0.99126 0.48344 0.67775 0.0
C458 C 0.04832 0.40868 0.6129 0.0
N459 N 0.01234 0.41317 0.61786 0.0
N460 N 0.01179 0.40543 0.6316 0.0
C461 C 0.04707 0.39424 0.63571 0.0
C462 C 0.07162 0.39626 0.62404 0.0
C463 C 0.06021 0.41852 0.59799 0.0
H464 H 0.04443 0.4443 0.5943 0.0
H465 H 0.09144 0.4243 0.5973 0.0
H466 H 0.05288 0.39428 0.59082 0.0
O467 O 0.92753 0.38302 0.6109 0.0
O468 O 0.92736 0.37386 0.63439 0.0
H469 H 0.0826 0.36091 0.65006 0.0
H470 H 0.06023 0.40282 0.65775 0.0
C471 C 0.05617 0.37865 0.65021 0.0
H472 H 0.03211 0.36065 0.65406 0.0
H473 H 0.94769 0.34602 0.66235 0.0
O474 O 0.97413 0.43382 0.58755 0.0
C475 C 0.91492 0.36578 0.62197 0.0
Co476 Co 0.06579 0.96937 0.10889 0.0
Co477 Co 0.08449 0.96618 0.14191 0.0
C478 C 0.00935 0.93823 0.12972 0.0
O479 O 0.01819 0.94727 0.11698 0.0
O480 O 0.0324 0.94426 0.14001 0.0
C481 C 0.06798 0.95967 0.07812 0.0
O482 O 0.09003 0.93012 0.08102 0.0
C483 C 0.07291 0.98763 0.17207 0.0
C484 C 0.12529 0.96452 0.18215 0.0
C485 C 0.09137 0.9837 0.18517 0.0
N486 N 0.09508 0.97177 0.16188 0.0
N487 N 0.12637 0.9581 0.16799 0.0
C488 C 0.03398 0.00414 0.16927 0.0
H489 H 0.03586 0.0359 0.16916 0.0
H490 H 0.01363 0.99545 0.17779 0.0
H491 H 0.02297 0.99489 0.15874 0.0
C492 C 0.08422 0.05154 0.11398 0.0
N493 N 0.07992 0.01517 0.1186 0.0
N494 N 0.08965 0.01335 0.13214 0.0
C495 C 0.10195 0.04811 0.13644 0.0
C496 C 0.09855 0.0737 0.12514 0.0
C497 C 0.07249 0.06488 0.09944 0.0
H498 H 0.0458 0.05005 0.09613 0.0
H499 H 0.06749 0.09631 0.0992 0.0
H500 H 0.09539 0.05748 0.09169 0.0
O501 O 0.10727 0.9297 0.11059 0.0
O502 O 0.12012 0.92833 0.13383 0.0
H503 H 0.13706 0.03072 0.1541 0.0
H504 H 0.13864 0.08142 0.15034 0.0
C505 C 0.11978 0.05578 0.15069 0.0
H506 H 0.09686 0.06074 0.15867 0.0
H507 H 0.14828 0.94394 0.16252 0.0
O508 O 0.05534 0.9802 0.08832 0.0
C509 C 0.12586 0.91616 0.12119 0.0
Co510 Co 0.52956 0.06926 0.60567 0.0
Co511 Co 0.5283 0.07655 0.63934 0.0
C512 C 0.55799 0.00635 0.62557 0.0
O513 O 0.55202 0.02096 0.6133 0.0
O514 O 0.54895 0.02423 0.63692 0.0
C515 C 0.50393 0.03034 0.58095 0.0
O516 O 0.49024 0.00718 0.59078 0.0
C517 C 0.51728 0.06391 0.67044 0.0
C518 C 0.50914 0.12339 0.67803 0.0
C519 C 0.50979 0.08559 0.68261 0.0
N520 N 0.52018 0.08786 0.65921 0.0
N521 N 0.51556 0.12335 0.66387 0.0
C522 C 0.52433 0.02162 0.66952 0.0
H523 H 0.55207 0.0166 0.66406 0.0
H524 H 0.50142 0.00809 0.66302 0.0
H525 H 0.52567 0.00791 0.68017 0.0
C526 C 0.44807 0.09136 0.60981 0.0
N527 N 0.483 0.08225 0.61493 0.0
N528 N 0.48195 0.0829 0.62896 0.0
C529 C 0.44592 0.09089 0.63322 0.0
C530 C 0.42326 0.0971 0.62123 0.0
C531 C 0.43946 0.09697 0.59431 0.0
H532 H 0.46514 0.10814 0.58869 0.0
H533 H 0.43154 0.06896 0.58951 0.0
H534 H 0.41525 0.11726 0.5928 0.0
O535 O 0.56771 0.11022 0.60861 0.0
O536 O 0.56798 0.11334 0.63231 0.0
H537 H 0.43915 0.11723 0.65366 0.0
H538 H 0.40171 0.08351 0.64922 0.0
C539 C 0.43292 0.08935 0.64844 0.0
H540 H 0.4485 0.06638 0.65419 0.0
H541 H 0.5164 0.14759 0.65733 0.0
O542 O 0.5217 0.06046 0.58486 0.0
C543 C 0.58075 0.12418 0.6202 0.0
C544 C 0.50927 0.05636 0.20482 0.0
C545 C 0.53545 0.03532 0.19652 0.0
C546 C 0.50442 0.04821 0.21931 0.0
C547 C 0.52119 0.97274 0.2466 0.0
H548 H 0.50519 0.05712 0.2729 0.0
C549 C 0.47731 0.94881 0.30563 0.0
C550 C 0.49305 0.97356 0.31593 0.0
C551 C 0.48306 0.95568 0.29106 0.0
C552 C 0.50999 0.03318 0.26575 0.0
H553 H 0.5771 0.98909 0.19698 0.0
H554 H 0.56919 0.97534 0.22235 0.0
H555 H 0.51516 0.07037 0.24771 0.0
H556 H 0.52785 0.02453 0.31896 0.0
H557 H 0.53844 0.03606 0.29367 0.0
H558 H 0.51701 0.93563 0.26475 0.0
C559 C 0.55192 0.99779 0.2176 0.0
C560 C 0.51519 0.04077 0.25123 0.0
C561 C 0.55666 0.00585 0.20306 0.0
C562 C 0.51504 0.00503 0.31133 0.0
C563 C 0.52094 0.01179 0.29679 0.0
C564 C 0.5161 0.96515 0.26115 0.0
C565 C 0.52576 0.01892 0.22593 0.0
C566 C 0.52075 0.01067 0.24144 0.0
C567 C 0.50484 0.98737 0.28644 0.0
C568 C 0.5104 0.99528 0.27092 0.0
H569 H 0.49224 0.07908 0.20012 0.0
H570 H 0.48352 0.06465 0.22529 0.0
H571 H 0.52498 0.94879 0.23938 0.0
H572 H 0.46015 0.92434 0.3088 0.0
H573 H 0.46981 0.93651 0.28341 0.0
C574 C 0.5574 0.48921 0.80681 0.0
C575 C 0.53903 0.45791 0.81338 0.0
C576 C 0.55078 0.4976 0.79241 0.0
C577 C 0.51248 0.45464 0.75892 0.0
H578 H 0.50223 0.56073 0.747 0.0
C579 C 0.44886 0.49683 0.70438 0.0
C580 C 0.46766 0.52577 0.6966 0.0
C581 C 0.4592 0.48902 0.71849 0.0
C582 C 0.50542 0.53098 0.75013 0.0
H583 H 0.49924 0.41095 0.80992 0.0
H584 H 0.48717 0.42594 0.785 0.0
H585 H 0.51754 0.54603 0.77181 0.0
H586 H 0.51192 0.56946 0.69765 0.0
H587 H 0.52976 0.55594 0.72238 0.0
H588 H 0.4996 0.43963 0.73729 0.0
C589 C 0.50732 0.44362 0.79084 0.0
C590 C 0.51429 0.52251 0.76436 0.0
C591 C 0.51407 0.43513 0.80519 0.0
C592 C 0.49681 0.54702 0.70334 0.0
C593 C 0.50695 0.53938 0.71752 0.0
C594 C 0.50336 0.4631 0.74474 0.0
C595 C 0.52552 0.47499 0.78424 0.0
C596 C 0.51765 0.4842 0.76897 0.0
C597 C 0.48842 0.51011 0.72522 0.0
C598 C 0.49944 0.50135 0.7402 0.0
H599 H 0.57686 0.50731 0.8128 0.0
H600 H 0.56571 0.52167 0.78765 0.0
H601 H 0.51563 0.42484 0.76198 0.0
H602 H 0.42626 0.47992 0.69954 0.0
H603 H 0.44402 0.46663 0.72418 0.0
C604 C 0.94187 0.4937 0.20541 0.0
C605 C 0.96155 0.46347 0.19868 0.0
C606 C 0.94852 0.50215 0.21981 0.0
C607 C 0.98958 0.4602 0.253 0.0
H608 H 0.99383 0.56624 0.26548 0.0
C609 C 0.04973 0.50361 0.30797 0.0
C610 C 0.02911 0.53108 0.31584 0.0
C611 C 0.04027 0.49591 0.29376 0.0
C612 C 0.99235 0.53648 0.26218 0.0
H613 H 0.00386 0.41861 0.20182 0.0
H614 H 0.01599 0.43376 0.22672 0.0
H615 H 0.97943 0.55163 0.24058 0.0
H616 H 0.98256 0.57233 0.31486 0.0
H617 H 0.96622 0.559 0.28998 0.0
H618 H 0.00318 0.44513 0.27455 0.0
C619 C 0.99478 0.45049 0.22102 0.0
C620 C 0.984 0.52806 0.24791 0.0
C621 C 0.98799 0.44192 0.20667 0.0
C622 C -0.00093 0.55103 0.3091 0.0
C623 C 0.98979 0.54351 0.29483 0.0
C624 C -0.00183 0.46863 0.26722 0.0
C625 C 0.97514 0.48069 0.2278 0.0
C626 C 0.98275 0.48979 0.2431 0.0
C627 C 0.01011 0.51564 0.28704 0.0
C628 C -0.0001 0.50686 0.27197 0.0
H629 H 0.92124 0.51084 0.19956 0.0
H630 H 0.93248 0.52529 0.2247 0.0
H631 H 0.98808 0.43038 0.24979 0.0
H632 H 0.07306 0.48773 0.3128 0.0
H633 H 0.05681 0.47464 0.288 0.0
C634 C -0.00039 0.93653 0.70358 0.0
C635 C 0.00884 0.96912 0.69543 0.0
C636 C 0.99214 0.93982 0.71821 0.0
C637 C 0.96591 0.01075 0.74617 0.0
H638 H 0.00676 0.93406 0.77199 0.0
C639 C 0.93184 0.01188 0.80667 0.0
C640 C 0.96235 0.00353 0.81597 0.0
C641 C 0.93584 0.00649 0.79193 0.0
C642 C 0.99531 0.95586 0.76494 0.0
H643 H 0.01735 0.03077 0.69629 0.0
H644 H 0.00486 0.0364 0.72175 0.0
H645 H 0.01725 0.92746 0.74641 0.0
H646 H 0.02098 0.98282 0.81705 0.0
H647 H 0.02808 0.97392 0.79144 0.0
H648 H 0.94494 0.03974 0.76473 0.0
C649 C 0.0028 0.00835 0.71683 0.0
C650 C 0.00093 0.95182 0.75024 0.0
C651 C 0.01022 0.00507 0.70223 0.0
C652 C 0.99683 0.98945 0.81021 0.0
C653 C 0.00083 0.98409 0.7955 0.0
C654 C 0.96029 0.01479 0.76087 0.0
C655 C 0.99372 0.97578 0.72503 0.0
C656 C 0.98654 0.97935 0.74066 0.0
C657 C 0.97044 0.99261 0.78616 0.0
C658 C 0.97516 0.98755 0.77046 0.0
H659 H 0.9981 0.90843 0.69867 0.0
H660 H 0.98477 0.9142 0.72415 0.0
H661 H 0.954 0.03226 0.7391 0.0
H662 H 0.90483 0.02261 0.81075 0.0
H663 H 0.91167 0.01289 0.78508 0.0
C664 C 0.4069 0.96779 0.79997 0.0
C665 C 0.41731 0.99067 0.8117 0.0
C666 C 0.41873 0.97741 0.78617 0.0
C667 C 0.45314 0.05951 0.76454 0.0
H668 H 0.48292 0.97986 0.73784 0.0
C669 C 0.51591 0.0945 0.70896 0.0
C670 C 0.50222 0.07275 0.69742 0.0
C671 C 0.50725 0.08395 0.723 0.0
C672 C 0.47439 0.00241 0.74514 0.0
H673 H 0.44682 0.04288 0.8179 0.0
H674 H 0.46867 0.05885 0.794 0.0
H675 H 0.46503 0.96258 0.76217 0.0
H676 H 0.4669 0.02407 0.69153 0.0
H677 H 0.45237 0.00515 0.71601 0.0
H678 H 0.46258 0.09933 0.7475 0.0
C679 C 0.45134 0.03336 0.79545 0.0
C680 C 0.46407 0.99252 0.75909 0.0
C681 C 0.43941 0.02376 0.80926 0.0
C682 C 0.47925 0.04047 0.7002 0.0
C683 C 0.47069 0.0298 0.71423 0.0
C684 C 0.46361 0.06941 0.75061 0.0
C685 C 0.44114 0.01032 0.78372 0.0
C686 C 0.45312 0.02092 0.76896 0.0
C687 C 0.48445 0.05152 0.7258 0.0
C688 C 0.4742 0.04097 0.74072 0.0
H689 H 0.38962 0.94225 0.80145 0.0
H690 H 0.40971 0.95934 0.77739 0.0
H691 H 0.44425 0.08211 0.77175 0.0
H692 H 0.53341 0.11973 0.70714 0.0
H693 H 0.51855 0.10114 0.73166 0.0
C694 C 0.50871 0.45176 0.30805 0.0
C695 C 0.49612 0.41628 0.31338 0.0
C696 C 0.49943 0.4631 0.29414 0.0
C697 C 0.46492 0.42352 0.25941 0.0
H698 H 0.44659 0.53071 0.25076 0.0
C699 C 0.4411 0.4749 0.20149 0.0
C700 C 0.41497 0.50497 0.19913 0.0
C701 C 0.45234 0.465 0.21534 0.0
C702 C 0.45119 0.50057 0.25298 0.0
H703 H 0.46381 0.36493 0.30844 0.0
H704 H 0.44625 0.38513 0.28444 0.0
H705 H 0.46168 0.51179 0.27507 0.0
H706 H 0.37925 0.54733 0.20968 0.0
H707 H 0.39749 0.52911 0.23374 0.0
H708 H 0.45259 0.41201 0.23751 0.0
C709 C 0.46417 0.40395 0.29077 0.0
C710 C 0.46048 0.48975 0.26694 0.0
C711 C 0.47394 0.39243 0.30458 0.0
C712 C 0.39974 0.52425 0.21104 0.0
C713 C 0.41057 0.51405 0.22489 0.0
C714 C 0.45516 0.43427 0.24551 0.0
C715 C 0.47704 0.43931 0.28528 0.0
C716 C 0.46742 0.45104 0.27037 0.0
C717 C 0.43711 0.4843 0.22726 0.0
C718 C 0.44812 0.47295 0.24207 0.0
H719 H 0.52671 0.47029 0.31446 0.0
H720 H 0.51057 0.49014 0.29026 0.0
H721 H 0.4707 0.39353 0.26152 0.0
H722 H 0.45235 0.45816 0.19276 0.0
H723 H 0.47303 0.4421 0.21666 0.0
C724 C 0.09414 0.52617 0.80151 0.0
C725 C 0.07995 0.50605 0.8134 0.0
C726 C 0.08348 0.51575 0.78766 0.0
C727 C 0.04168 0.43467 0.76691 0.0
H728 H 0.02814 0.51283 0.73789 0.0
C729 C 0.97574 0.40295 0.71155 0.0
C730 C 0.99527 0.41788 0.69964 0.0
C731 C 0.98582 0.41402 0.72539 0.0
C732 C 0.03208 0.4907 0.74587 0.0
H733 H 0.04487 0.45751 0.81977 0.0
H734 H 0.02449 0.44089 0.79586 0.0
H735 H 0.04522 0.53168 0.76213 0.0
H736 H 0.04247 0.45476 0.69324 0.0
H737 H 0.05884 0.47522 0.71728 0.0
H738 H 0.02761 0.39384 0.75064 0.0
C739 C 0.04416 0.46467 0.79719 0.0
C740 C 0.04202 0.50143 0.75977 0.0
C741 C 0.05519 0.47485 0.81104 0.0
C742 C 0.02549 0.44391 0.70197 0.0
C743 C 0.03525 0.45537 0.71582 0.0
C744 C 0.03126 0.42402 0.75306 0.0
C745 C 0.05822 0.4849 0.78529 0.0
C746 C 0.04709 0.47355 0.77049 0.0
C747 C 0.01559 0.44044 0.72767 0.0
C748 C 0.02646 0.4519 0.74239 0.0
H749 H 0.11359 0.55013 0.80289 0.0
H750 H 0.09561 0.53158 0.77881 0.0
H751 H 0.04608 0.41227 0.77474 0.0
H752 H 0.95241 0.38274 0.7102 0.0
H753 H 0.97001 0.40218 0.73431 0.0
C754 C 0.05587 0.02795 0.20195 0.0
C755 C 0.0783 0.99499 0.19967 0.0
C756 C 0.04426 0.03822 0.21572 0.0
C757 C 0.03368 -0.00089 0.25247 0.0
H758 H 0.03149 0.10663 0.26313 0.0
C759 C 0.01821 0.05002 0.31092 0.0
C760 C 0.99276 0.0805 0.31351 0.0
C761 C 0.02744 0.03932 0.29696 0.0
C762 C 0.03157 0.0765 0.26027 0.0
H763 H 0.10711 0.94768 0.2102 0.0
H764 H 0.08779 0.96605 0.23419 0.0
H765 H 0.04998 0.08854 0.23897 0.0
H766 H 0.95827 0.1247 0.30354 0.0
H767 H 0.97456 0.10619 0.27911 0.0
H768 H 0.01594 0.98716 0.2739 0.0
C769 C 0.07811 0.9834 0.22531 0.0
C770 C 0.04209 0.0661 0.2464 0.0
C771 C 0.08952 0.97306 0.21154 0.0
C772 C 0.97764 0.1008 0.30185 0.0
C773 C 0.98707 0.0903 0.28788 0.0
C774 C 0.02343 0.00952 0.26637 0.0
C775 C 0.05522 0.01607 0.2276 0.0
C776 C 0.04336 0.02724 0.24231 0.0
C777 C 0.01198 0.05935 0.28527 0.0
C778 C 0.02233 0.04832 0.27044 0.0
H779 H 0.04789 0.04646 0.1932 0.0
H780 H 0.02654 0.0635 0.21703 0.0
H781 H 0.03363 0.96896 0.24966 0.0
H782 H 0.03173 0.03496 0.31968 0.0
H783 H 0.0474 0.01592 0.29531 0.0
C784 C 0.66039 0.13559 0.15274 0.0
C785 C 0.6509 0.11943 0.13945 0.0
C786 C 0.68391 0.1681 0.15352 0.0
C787 C 0.71465 0.25079 0.13193 0.0
H788 H 0.7974 0.25966 0.15935 0.0
C789 C 0.82995 0.36853 0.12781 0.0
C790 C 0.84396 0.38503 0.14047 0.0
C791 C 0.80491 0.33726 0.1283 0.0
C792 C 0.77403 0.25789 0.15177 0.0
H793 H 0.65979 0.12422 0.11657 0.0
H794 H 0.70071 0.18053 0.11798 0.0
H795 H 0.75732 0.20216 0.15921 0.0
H796 H 0.84177 0.38205 0.16359 0.0
H797 H 0.79758 0.32787 0.1644 0.0
H798 H 0.73114 0.30638 0.12447 0.0
C799 C 0.68954 0.16844 0.12778 0.0
C800 C 0.75115 0.22491 0.15168 0.0
C801 C 0.66626 0.13595 0.127 0.0
C802 C 0.83167 0.36999 0.15362 0.0
C803 C 0.80653 0.33873 0.1541 0.0
C804 C 0.73736 0.28378 0.13206 0.0
C805 C 0.69821 0.1852 0.14102 0.0
C806 C 0.72153 0.22081 0.14163 0.0
C807 C 0.79312 0.32178 0.14144 0.0
C808 C 0.76763 0.28756 0.14186 0.0
H809 H 0.64905 0.12362 0.16254 0.0
H810 H 0.69002 0.18049 0.16387 0.0
H811 H 0.69153 0.24879 0.12424 0.0
H812 H 0.83889 0.37923 0.11749 0.0
H813 H 0.79558 0.3246 0.11833 0.0
C814 C 0.13207 0.82396 0.63015 0.0
C815 C 0.11416 0.83987 0.64223 0.0
C816 C 0.16505 0.80168 0.63155 0.0
C817 C 0.22123 0.74184 0.65563 0.0
H818 H 0.30476 0.76848 0.63013 0.0
C819 C 0.36662 0.66021 0.65567 0.0
C820 C 0.38164 0.65147 0.64212 0.0
C821 C 0.33556 0.68544 0.65708 0.0
C822 C 0.28166 0.76043 0.63725 0.0
H823 H 0.11609 0.84325 0.66534 0.0
H824 H 0.1738 0.80352 0.66775 0.0
H825 H 0.24629 0.80665 0.63002 0.0
H826 H 0.37589 0.66284 0.61944 0.0
H827 H 0.32181 0.706 0.62187 0.0
H828 H 0.25619 0.69477 0.66253 0.0
C829 C 0.16218 0.80878 0.65722 0.0
C830 C 0.24821 0.78238 0.63721 0.0
C831 C 0.12921 0.83151 0.65582 0.0
C832 C 0.36527 0.66897 0.63006 0.0
C833 C 0.3343 0.69401 0.63146 0.0
C834 C 0.2547 0.71957 0.65559 0.0
C835 C 0.18085 0.79443 0.64505 0.0
C836 C 0.21737 0.77287 0.64617 0.0
C837 C 0.31891 0.70247 0.64496 0.0
C838 C 0.28498 0.72817 0.64617 0.0
H839 H 0.12129 0.82953 0.61952 0.0
H840 H 0.17849 0.79039 0.62201 0.0
H841 H 0.19782 0.73388 0.66262 0.0
H842 H 0.37855 0.64726 0.66519 0.0
H843 H 0.32463 0.69164 0.66764 0.0
C844 C 0.82971 0.13018 0.86099 0.0
C845 C 0.84292 0.1144 0.8739 0.0
C846 C 0.80505 0.1618 0.86101 0.0
C847 C 0.77561 0.24347 0.88345 0.0
H848 H 0.69102 0.25095 0.85674 0.0
C849 C 0.66177 0.36381 0.88644 0.0
C850 C 0.64865 0.3795 0.8735 0.0
C851 C 0.68595 0.33182 0.88648 0.0
C852 C 0.71481 0.24951 0.86415 0.0
H853 H 0.83962 0.11898 0.89697 0.0
H854 H 0.79634 0.17388 0.89696 0.0
H855 H 0.73099 0.19351 0.85693 0.0
H856 H 0.65152 0.37426 0.85045 0.0
H857 H 0.69405 0.31879 0.85055 0.0
H858 H 0.7595 0.2995 0.89066 0.0
C859 C 0.80555 0.16212 0.88683 0.0
C860 C 0.73767 0.21656 0.86428 0.0
C861 C 0.83016 0.13046 0.88682 0.0
C862 C 0.66094 0.36288 0.86061 0.0
C863 C 0.68511 0.33088 0.86067 0.0
C864 C 0.75277 0.27643 0.88333 0.0
C865 C 0.79305 0.17842 0.87393 0.0
C866 C 0.76833 0.21316 0.87393 0.0
C867 C 0.6976 0.31475 0.8736 0.0
C868 C 0.72212 0.27986 0.87367 0.0
H869 H 0.83898 0.11861 0.85084 0.0
H870 H 0.79624 0.17389 0.85088 0.0
H871 H 0.79941 0.24203 0.89086 0.0
H872 H 0.65284 0.37579 0.89657 0.0
H873 H 0.69473 0.31987 0.89664 0.0
C874 C 0.13033 0.66663 0.38414 0.0
C875 C 0.11289 0.65156 0.37182 0.0
C876 C 0.16305 0.68951 0.38311 0.0
C877 C 0.21878 0.75095 0.35899 0.0
H878 H 0.30187 0.72829 0.38518 0.0
C879 C 0.364 0.83155 0.3568 0.0
C880 C 0.37967 0.84256 0.37001 0.0
C881 C 0.33278 0.80634 0.3562 0.0
C882 C 0.27884 0.73525 0.37787 0.0
H883 H 0.11562 0.64993 0.3487 0.0
H884 H 0.17282 0.6903 0.34693 0.0
H885 H 0.24383 0.68942 0.38569 0.0
H886 H 0.37505 0.8351 0.39294 0.0
H887 H 0.32057 0.79183 0.3919 0.0
H888 H 0.25349 0.79733 0.35137 0.0
C889 C 0.16102 0.6842 0.35737 0.0
C890 C 0.24559 0.71295 0.37816 0.0
C891 C 0.12832 0.66102 0.3584 0.0
C892 C 0.36388 0.82718 0.38257 0.0
C893 C 0.33268 0.80213 0.38197 0.0
C894 C 0.25201 0.77348 0.35875 0.0
C895 C 0.17909 0.69811 0.36974 0.0
C896 C 0.21501 0.72084 0.36885 0.0
C897 C 0.31653 0.7916 0.36879 0.0
C898 C 0.28226 0.76617 0.36832 0.0
H899 H 0.11922 0.66014 0.39466 0.0
H900 H 0.17595 0.70038 0.39282 0.0
H901 H 0.19557 0.75783 0.35174 0.0
H902 H 0.3755 0.84276 0.34691 0.0
H903 H 0.32137 0.79842 0.34587 0.0
C904 C 0.16862 0.63589 0.88203 0.0
C905 C 0.15446 0.61627 0.89404 0.0
C906 C 0.19 0.66939 0.88362 0.0
C907 C 0.25157 0.72416 0.90723 0.0
H908 H 0.21848 0.81022 0.88403 0.0
C909 C 0.33272 0.8698 0.90671 0.0
C910 C 0.33851 0.88572 0.89308 0.0
C911 C 0.30752 0.83888 0.90859 0.0
C912 C 0.22828 0.78644 0.89052 0.0
H913 H 0.15328 0.61571 0.91719 0.0
H914 H 0.19163 0.67431 0.91992 0.0
H915 H 0.18136 0.75102 0.88397 0.0
H916 H 0.32175 0.88194 0.87081 0.0
H917 H 0.27872 0.82814 0.87404 0.0
H918 H 0.29946 0.75906 0.91333 0.0
C919 C 0.18559 0.66363 0.9093 0.0
C920 C 0.20694 0.75261 0.89051 0.0
C921 C 0.16366 0.63017 0.90772 0.0
C922 C 0.31798 0.87057 0.88147 0.0
C923 C 0.29299 0.83977 0.88334 0.0
C924 C 0.27326 0.758 0.90713 0.0
C925 C 0.19816 0.68395 0.89724 0.0
C926 C 0.21884 0.72087 0.89859 0.0
C927 C 0.28759 0.82333 0.89689 0.0
C928 C 0.26233 0.7892 0.89849 0.0
H929 H 0.16228 0.62605 0.87133 0.0
H930 H 0.1999 0.68421 0.87414 0.0
H931 H 0.26133 0.70001 0.91354 0.0
H932 H 0.34806 0.88079 0.91589 0.0
H933 H 0.30373 0.8271 0.91919 0.0
C934 C 0.86124 0.1675 0.37991 0.0
C935 C 0.87957 0.15421 0.39232 0.0
C936 C 0.82823 0.19 0.38084 0.0
C937 C 0.77276 0.25348 0.4042 0.0
H938 H 0.68793 0.22353 0.37985 0.0
C939 C 0.62588 0.3314 0.40576 0.0
C940 C 0.60933 0.33936 0.3924 0.0
C941 C 0.65753 0.30682 0.40683 0.0
C942 C 0.71142 0.23251 0.38663 0.0
H943 H 0.87839 0.15558 0.41548 0.0
H944 H 0.82078 0.19536 0.41705 0.0
H945 H 0.7471 0.18642 0.37948 0.0
H946 H 0.61276 0.32706 0.36972 0.0
H947 H 0.66788 0.28505 0.37155 0.0
H948 H 0.7374 0.3002 0.41109 0.0
C949 C 0.83202 0.18809 0.40662 0.0
C950 C 0.7453 0.21122 0.38642 0.0
C951 C 0.86494 0.16525 0.4057 0.0
C952 C 0.62462 0.32156 0.3802 0.0
C953 C 0.65619 0.29718 0.38126 0.0
C954 C 0.73889 0.27504 0.40433 0.0
C955 C 0.81293 0.2 0.3942 0.0
C956 C 0.7765 0.22179 0.39504 0.0
C957 C 0.67325 0.28971 0.39455 0.0
C958 C 0.70803 0.2651 0.39539 0.0
H959 H 0.87173 0.1597 0.36943 0.0
H960 H 0.81443 0.19933 0.37109 0.0
H961 H 0.79645 0.26232 0.41092 0.0
H962 H 0.61479 0.34458 0.41538 0.0
H963 H 0.66973 0.30129 0.41725 0.0
C964 C 0.16757 0.86435 0.13111 0.0
C965 C 0.15206 0.88311 0.11914 0.0
C966 C 0.18857 0.8306 0.12952 0.0
C967 C 0.24628 0.77324 0.10528 0.0
H968 H 0.21609 0.68952 0.13015 0.0
C969 C 0.32491 0.62645 0.10513 0.0
C970 C 0.33297 0.61119 0.1187 0.0
C971 C 0.2999 0.65764 0.10365 0.0
C972 C 0.22508 0.71264 0.1232 0.0
H973 H 0.14815 0.88192 0.09603 0.0
H974 H 0.18574 0.82289 0.09329 0.0
H975 H 0.17983 0.74925 0.13044 0.0
H976 H 0.32035 0.61637 0.14131 0.0
H977 H 0.27759 0.67071 0.13875 0.0
H978 H 0.2925 0.73715 0.09843 0.0
C979 C 0.18109 0.83442 0.10389 0.0
C980 C 0.20424 0.74679 0.12334 0.0
C981 C 0.15959 0.86814 0.10547 0.0
C982 C 0.31478 0.62723 0.13068 0.0
C983 C 0.28996 0.65834 0.1292 0.0
C984 C 0.26747 0.73909 0.10523 0.0
C985 C 0.19496 0.81492 0.11594 0.0
C986 C 0.21512 0.77769 0.11462 0.0
C987 C 0.28242 0.67418 0.11569 0.0
C988 C 0.25758 0.70871 0.11444 0.0
H989 H 0.16257 0.87503 0.1418 0.0
H990 H 0.19953 0.81646 0.13898 0.0
H991 H 0.25525 0.79672 0.09848 0.0
H992 H 0.3384 0.61475 0.09567 0.0
H993 H 0.29438 0.6689 0.09308 0.0
C994 C 0.62781 0.16443 0.60649 0.0
C995 C 0.61335 0.15144 0.61965 0.0
C996 C 0.66068 0.18739 0.60597 0.0
C997 C 0.74741 0.20912 0.62659 0.0
H998 H 0.75481 0.29925 0.60249 0.0
C999 C 0.86852 0.31949 0.63284 0.0
C1000 C 0.88344 0.33743 0.6206 0.0
C1001 C 0.8369 0.29512 0.63188 0.0
C1002 C 0.75345 0.2738 0.6091 0.0
H1003 H 0.62152 0.15351 0.6426 0.0
H1004 H 0.6787 0.19356 0.64165 0.0
H1005 H 0.69589 0.2613 0.60252 0.0
H1006 H 0.87732 0.34284 0.59765 0.0
H1007 H 0.8223 0.29965 0.59595 0.0
H1008 H 0.80483 0.22134 0.63317 0.0
C1009 C 0.66484 0.18558 0.63174 0.0
C1010 C 0.71964 0.25218 0.60915 0.0
C1011 C 0.63189 0.16285 0.63228 0.0
C1012 C 0.86652 0.32957 0.6073 0.0
C1013 C 0.83482 0.30505 0.60633 0.0
C1014 C 0.78122 0.23055 0.62648 0.0
C1015 C 0.6799 0.19762 0.61858 0.0
C1016 C 0.71611 0.21993 0.61805 0.0
C1017 C 0.81941 0.28787 0.61864 0.0
C1018 C 0.78448 0.26346 0.61789 0.0
H1019 H 0.61423 0.15622 0.59656 0.0
H1020 H 0.67172 0.19614 0.59567 0.0
H1021 H 0.74581 0.18392 0.63334 0.0
H1022 H 0.88071 0.3249 0.64328 0.0
H1023 H 0.82548 0.28286 0.64161 0.0
C1024 C 0.52933 0.59473 0.14322 0.0
C1025 C 0.51444 0.58699 0.12959 0.0
C1026 C 0.5557 0.62451 0.14519 0.0
C1027 C 0.60943 0.70198 0.12535 0.0
H1028 H 0.57599 0.76389 0.1574 0.0
C1029 C 0.58348 0.86401 0.12491 0.0
C1030 C 0.60033 0.88646 0.13565 0.0
C1031 C 0.58729 0.82419 0.12507 0.0
C1032 C 0.58632 0.74665 0.14858 0.0
H1033 H 0.51834 0.60189 0.10717 0.0
H1034 H 0.56242 0.65443 0.11061 0.0
H1035 H 0.55807 0.69666 0.15631 0.0
H1036 H 0.63512 0.885 0.15481 0.0
H1037 H 0.63967 0.81464 0.15558 0.0
H1038 H 0.63411 0.75375 0.117 0.0
C1039 C 0.55479 0.63738 0.11983 0.0
C1040 C 0.57626 0.70791 0.14795 0.0
C1041 C 0.52907 0.60721 0.11783 0.0
C1042 C 0.62145 0.86829 0.1465 0.0
C1043 C 0.62441 0.82825 0.14687 0.0
C1044 C 0.61867 0.74099 0.12584 0.0
C1045 C 0.56708 0.64765 0.13362 0.0
C1046 C 0.58619 0.68543 0.136 0.0
C1047 C 0.60722 0.80599 0.13617 0.0
C1048 C 0.60594 0.76381 0.13721 0.0
H1049 H 0.5191 0.57914 0.15247 0.0
H1050 H 0.56547 0.6307 0.15591 0.0
H1051 H 0.61864 0.68541 0.1162 0.0
H1052 H 0.56634 0.87712 0.1166 0.0
H1053 H 0.57314 0.80744 0.11687 0.0
C1054 C 0.90344 0.53287 0.64452 0.0
C1055 C 0.91135 0.51858 0.63081 0.0
C1056 C 0.87375 0.55929 0.64659 0.0
C1057 C 0.79635 0.61358 0.62689 0.0
H1058 H 0.73406 0.57756 0.65844 0.0
C1059 C 0.63479 0.5853 0.62554 0.0
C1060 C 0.61189 0.60025 0.63653 0.0
C1061 C 0.67449 0.59011 0.62582 0.0
C1062 C 0.75138 0.58861 0.64976 0.0
H1063 H 0.89713 0.52397 0.60837 0.0
H1064 H 0.84477 0.56805 0.61196 0.0
H1065 H 0.80151 0.5607 0.6575 0.0
H1066 H 0.61232 0.63302 0.65619 0.0
H1067 H 0.68245 0.63929 0.65712 0.0
H1068 H 0.74449 0.6379 0.61849 0.0
C1069 C 0.86153 0.55984 0.62119 0.0
C1070 C 0.79026 0.57917 0.64922 0.0
C1071 C 0.8916 0.53408 0.6191 0.0
C1072 C 0.62941 0.62071 0.64769 0.0
C1073 C 0.66932 0.62467 0.64817 0.0
C1074 C 0.75722 0.62219 0.62727 0.0
C1075 C 0.8509 0.57133 0.63504 0.0
C1076 C 0.81293 0.59001 0.63743 0.0
C1077 C 0.6921 0.60918 0.63726 0.0
C1078 C 0.73426 0.6085 0.63844 0.0
H1079 H 0.9187 0.52203 0.65375 0.0
H1080 H 0.86732 0.56848 0.65736 0.0
H1081 H 0.81304 0.62351 0.61787 0.0
H1082 H 0.62217 0.56878 0.61695 0.0
H1083 H 0.69164 0.57727 0.61744 0.0
C1084 C 0.91466 0.63873 0.14921 0.0
C1085 C 0.89428 0.61514 0.13973 0.0
C1086 C 0.90928 0.6784 0.14907 0.0
C1087 C 0.89319 0.75362 0.12438 0.0
H1088 H 0.88623 0.81803 0.158 0.0
C1089 C 0.9492 0.90598 0.12119 0.0
C1090 C 0.97477 0.91459 0.13233 0.0
C1091 C 0.9225 0.87628 0.12268 0.0
C1092 C 0.8882 0.80055 0.14848 0.0
H1093 H 0.85103 0.61426 0.12312 0.0
H1094 H 0.84318 0.68419 0.12235 0.0
H1095 H 0.87206 0.74955 0.15982 0.0
H1096 H 0.98927 0.90179 0.15434 0.0
H1097 H 0.94445 0.84949 0.15673 0.0
H1098 H 0.91298 0.80304 0.11325 0.0
C1099 C 0.8628 0.67172 0.13001 0.0
C1100 C 0.87979 0.76143 0.14954 0.0
C1101 C 0.86759 0.63189 0.13037 0.0
C1102 C 0.97036 0.89565 0.14546 0.0
C1103 C 0.94418 0.86564 0.14687 0.0
C1104 C 0.90237 0.7925 0.12337 0.0
C1105 C 0.88396 0.69529 0.13926 0.0
C1106 C 0.88371 0.73744 0.1376 0.0
C1107 C 0.92128 0.85422 0.13526 0.0
C1108 C 0.90173 0.81616 0.13556 0.0
H1109 H 0.93587 0.6267 0.15636 0.0
H1110 H 0.92647 0.69606 0.15612 0.0
H1111 H 0.89664 0.7356 0.11504 0.0
H1112 H 0.95134 0.92056 0.11101 0.0
H1113 H 0.90445 0.86917 0.11366 0.0
C1114 C 0.58811 0.95352 0.63989 0.0
C1115 C 0.58204 0.97145 0.62666 0.0
C1116 C 0.61827 0.92747 0.64165 0.0
C1117 C 0.69983 0.88008 0.62195 0.0
H1118 H 0.75687 0.91036 0.65564 0.0
C1119 C 0.86133 0.90684 0.62371 0.0
C1120 C 0.88283 0.89195 0.6351 0.0
C1121 C 0.82161 0.90226 0.62335 0.0
C1122 C 0.74105 0.90087 0.64633 0.0
H1123 H 0.60003 0.97271 0.6045 0.0
H1124 H 0.65297 0.92892 0.60761 0.0
H1125 H 0.68924 0.92615 0.65386 0.0
H1126 H 0.87988 0.85967 0.65483 0.0
H1127 H 0.80969 0.85358 0.65458 0.0
H1128 H 0.75317 0.85818 0.61395 0.0
C1129 C 0.63451 0.9342 0.61669 0.0
C1130 C 0.70209 0.90972 0.6453 0.0
C1131 C 0.60408 0.95973 0.61489 0.0
C1132 C 0.86387 0.87194 0.64604 0.0
C1133 C 0.82391 0.86811 0.64584 0.0
C1134 C 0.739 0.87194 0.62288 0.0
C1135 C 0.64327 0.91927 0.63025 0.0
C1136 C 0.68133 0.90099 0.63281 0.0
C1137 C 0.8025 0.88339 0.6345 0.0
C1138 C 0.76015 0.88362 0.63484 0.0
H1139 H 0.57104 0.96125 0.6491 0.0
H1140 H 0.62333 0.91556 0.65215 0.0
H1141 H 0.6846 0.87189 0.61235 0.0
H1142 H 0.87507 0.92301 0.61527 0.0
H1143 H 0.80562 0.91498 0.61464 0.0
C1144 C 0.58239 0.63477 0.86253 0.0
C1145 C 0.60198 0.61162 0.87237 0.0
C1146 C 0.58731 0.67451 0.86263 0.0
C1147 C 0.60099 0.75035 0.88749 0.0
H1148 H 0.60782 0.8144 0.85377 0.0
C1149 C 0.54451 0.90273 0.89029 0.0
C1150 C 0.51888 0.91107 0.87914 0.0
C1151 C 0.57114 0.87295 0.88889 0.0
C1152 C 0.6059 0.79701 0.86331 0.0
H1153 H 0.6434 0.61155 0.88961 0.0
H1154 H 0.65055 0.68154 0.89026 0.0
H1155 H 0.62293 0.74608 0.85211 0.0
H1156 H 0.50407 0.89758 0.85721 0.0
H1157 H 0.54888 0.84515 0.85497 0.0
H1158 H 0.58051 0.79974 0.89848 0.0
C1159 C 0.63185 0.66873 0.88235 0.0
C1160 C 0.61481 0.75799 0.86236 0.0
C1161 C 0.62748 0.62885 0.88206 0.0
C1162 C 0.52305 0.89166 0.86609 0.0
C1163 C 0.54921 0.8616 0.86476 0.0
C1164 C 0.59139 0.78915 0.88841 0.0
C1165 C 0.61139 0.6919 0.87275 0.0
C1166 C 0.61096 0.7341 0.87432 0.0
C1167 C 0.57227 0.85057 0.87639 0.0
C1168 C 0.59203 0.81264 0.87618 0.0
H1169 H 0.56205 0.62237 0.85512 0.0
H1170 H 0.57063 0.69181 0.8553 0.0
H1171 H 0.59756 0.73245 0.89686 0.0
H1172 H 0.54253 0.91765 0.9004 0.0
H1173 H 0.58927 0.86607 0.89791 0.0
C1174 C 0.58882 0.53311 0.36691 0.0
C1175 C 0.58048 0.5198 0.38072 0.0
C1176 C 0.61864 0.55932 0.3647 0.0
C1177 C 0.69551 0.61494 0.38419 0.0
H1178 H 0.75872 0.57686 0.35323 0.0
C1179 C 0.85712 0.58626 0.38616 0.0
C1180 C 0.8803 0.60191 0.37538 0.0
C1181 C 0.81739 0.59065 0.38569 0.0
C1182 C 0.74113 0.58846 0.36174 0.0
H1183 H 0.59405 0.52685 0.40316 0.0
H1184 H 0.64657 0.57056 0.39935 0.0
H1185 H 0.69123 0.55999 0.35406 0.0
H1186 H 0.88025 0.63536 0.35588 0.0
H1187 H 0.81008 0.64087 0.3546 0.0
H1188 H 0.74714 0.63984 0.39256 0.0
C1189 C 0.63008 0.56171 0.39014 0.0
C1190 C 0.70224 0.57902 0.36221 0.0
C1191 C 0.59991 0.53614 0.39235 0.0
C1192 C 0.86297 0.62255 0.36422 0.0
C1193 C 0.82303 0.62607 0.36355 0.0
C1194 C 0.73466 0.62354 0.38388 0.0
C1195 C 0.64117 0.57216 0.37622 0.0
C1196 C 0.67924 0.59065 0.3738 0.0
C1197 C 0.80002 0.60999 0.37426 0.0
C1198 C 0.75792 0.60915 0.37292 0.0
H1199 H 0.57385 0.52162 0.35773 0.0
H1200 H 0.62541 0.56771 0.35387 0.0
H1201 H 0.67858 0.62548 0.39304 0.0
H1202 H 0.86958 0.56954 0.39472 0.0
H1203 H 0.80004 0.57737 0.39392 0.0
C1204 C 0.91233 0.86019 0.86414 0.0
C1205 C 0.89321 0.8839 0.87393 0.0
C1206 C 0.9073 0.82048 0.86455 0.0
C1207 C 0.89492 0.74599 0.88997 0.0
H1208 H 0.88533 0.6802 0.8568 0.0
C1209 C 0.95192 0.59388 0.89322 0.0
C1210 C 0.97653 0.58496 0.88182 0.0
C1211 C 0.92505 0.6235 0.89192 0.0
C1212 C 0.88805 0.69808 0.86619 0.0
H1213 H 0.85228 0.88498 0.89134 0.0
H1214 H 0.84507 0.81503 0.89254 0.0
H1215 H 0.87031 0.74847 0.85481 0.0
H1216 H 0.98915 0.59712 0.8596 0.0
H1217 H 0.94402 0.64926 0.85751 0.0
H1218 H 0.91619 0.69716 0.90108 0.0
C1219 C 0.86351 0.8274 0.88445 0.0
C1220 C 0.87917 0.73708 0.86505 0.0
C1221 C 0.86794 0.86725 0.88384 0.0
C1222 C 0.971 0.60352 0.86867 0.0
C1223 C 0.94465 0.63342 0.86744 0.0
C1224 C 0.90454 0.70722 0.89105 0.0
C1225 C 0.88357 0.80368 0.87492 0.0
C1226 C 0.88399 0.76158 0.87679 0.0
C1227 C 0.92269 0.64515 0.87927 0.0
C1228 C 0.90292 0.68309 0.87901 0.0
H1229 H 0.93241 0.87215 0.85653 0.0
H1230 H 0.92363 0.80274 0.85725 0.0
H1231 H 0.8991 0.76439 0.89916 0.0
H1232 H 0.95493 0.57961 0.90343 0.0
H1233 H 0.90777 0.63088 0.90112 0.0
C1234 C 0.62525 0.86725 0.38162 0.0
C1235 C 0.60914 0.89403 0.37213 0.0
C1236 C 0.66503 0.86282 0.38249 0.0
C1237 C 0.75637 0.87906 0.3644 0.0
H1238 H 0.79393 0.91722 0.40063 0.0
C1239 C 0.891 0.96885 0.36866 0.0
C1240 C 0.90883 0.97504 0.3819 0.0
C1241 C 0.8607 0.94301 0.36741 0.0
C1242 C 0.78452 0.90523 0.39058 0.0
H1243 H 0.62188 0.93566 0.35562 0.0
H1244 H 0.69125 0.92667 0.35671 0.0
H1245 H 0.72671 0.90057 0.3981 0.0
H1246 H 0.912 0.95529 0.40381 0.0
H1247 H 0.85995 0.90892 0.4015 0.0
H1248 H 0.81388 0.88411 0.35674 0.0
C1249 C 0.67306 0.90937 0.36353 0.0
C1250 C 0.74577 0.8959 0.38913 0.0
C1251 C 0.63338 0.91447 0.3629 0.0
C1252 C 0.89843 0.95168 0.3935 0.0
C1253 C 0.86835 0.92529 0.39219 0.0
C1254 C 0.79535 0.88751 0.36592 0.0
C1255 C 0.68923 0.88427 0.37359 0.0
C1256 C 0.73112 0.88455 0.37586 0.0
C1257 C 0.84769 0.92219 0.37933 0.0
C1258 C 0.80954 0.90281 0.3788 0.0
H1259 H 0.60714 0.8505 0.38864 0.0
H1260 H 0.67696 0.84332 0.39033 0.0
H1261 H 0.74563 0.86993 0.3541 0.0
H1262 H 0.8982 0.9862 0.35947 0.0
H1263 H 0.84561 0.94195 0.35733 0.0
C1264 C 0.44716 0.40918 0.88982 0.0
C1265 C 0.46674 0.41387 0.87683 0.0
C1266 C 0.42052 0.37952 0.8915 0.0
C1267 C 0.37449 0.29679 0.87215 0.0
H1268 H 0.40463 0.2413 0.90622 0.0
C1269 C 0.40312 0.13613 0.87396 0.0
C1270 C 0.39061 0.11436 0.88567 0.0
C1271 C 0.39732 0.17568 0.87362 0.0
C1272 C 0.39509 0.25665 0.89682 0.0
H1273 H 0.47014 0.39422 0.8549 0.0
H1274 H 0.42507 0.34221 0.85789 0.0
H1275 H 0.41935 0.30912 0.9042 0.0
H1276 H 0.36129 0.11668 0.90604 0.0
H1277 H 0.35287 0.18665 0.90576 0.0
H1278 H 0.35345 0.24293 0.86434 0.0
C1279 C 0.42967 0.36133 0.86683 0.0
C1280 C 0.40336 0.29572 0.89564 0.0
C1281 C 0.4559 0.39121 0.86511 0.0
C1282 C 0.37175 0.13291 0.89699 0.0
C1283 C 0.36658 0.17275 0.89677 0.0
C1284 C 0.36676 0.25755 0.87325 0.0
C1285 C 0.41329 0.35375 0.88026 0.0
C1286 C 0.39487 0.31588 0.883 0.0
C1287 C 0.37948 0.19445 0.88509 0.0
C1288 C 0.37855 0.23687 0.88534 0.0
H1289 H 0.4541 0.42686 0.89896 0.0
H1290 H 0.40751 0.37531 0.90188 0.0
H1291 H 0.3666 0.31159 0.86243 0.0
H1292 H 0.41838 0.12273 0.86522 0.0
H1293 H 0.40834 0.19185 0.86463 0.0
C1294 C 0.10074 0.45641 0.36981 0.0
C1295 C 0.07996 0.47124 0.3814 0.0
C1296 C 0.13047 0.43032 0.37207 0.0
C1297 C 0.19913 0.40996 0.40078 0.0
H1298 H 0.24779 0.3528 0.37026 0.0
C1299 C 0.3612 0.37171 0.40011 0.0
C1300 C 0.37864 0.39187 0.38885 0.0
C1301 C 0.3213 0.36734 0.40053 0.0
C1302 C 0.23426 0.36804 0.37899 0.0
H1303 H 0.07033 0.46619 0.40418 0.0
H1304 H 0.12113 0.41932 0.40805 0.0
H1305 H 0.17916 0.36646 0.36901 0.0
H1306 H 0.3682 0.42296 0.36921 0.0
H1307 H 0.29888 0.41382 0.36962 0.0
H1308 H 0.25465 0.41209 0.41054 0.0
C1309 C 0.11575 0.42921 0.39729 0.0
C1310 C 0.19507 0.37621 0.37825 0.0
C1311 C 0.0864 0.4559 0.39506 0.0
C1312 C 0.35566 0.40659 0.37785 0.0
C1313 C 0.31604 0.40138 0.37808 0.0
C1314 C 0.23809 0.40102 0.40166 0.0
C1315 C 0.1397 0.41792 0.38595 0.0
C1316 C 0.1775 0.3993 0.38871 0.0
C1317 C 0.2985 0.38217 0.3895 0.0
C1318 C 0.25628 0.38178 0.39042 0.0
H1319 H 0.09638 0.46738 0.35913 0.0
H1320 H 0.14813 0.42266 0.36301 0.0
H1321 H 0.18705 0.42804 0.40903 0.0
H1322 H 0.37835 0.35967 0.40864 0.0
H1323 H 0.30822 0.3527 0.40949 0.0
C1324 C 0.04677 0.08908 0.8891 0.0
C1325 C 0.02579 0.08505 0.87639 0.0
C1326 C 0.0735 0.11872 0.89061 0.0
C1327 C 0.11765 0.20228 0.87112 0.0
H1328 H 0.09396 0.25562 0.90636 0.0
C1329 C 0.091 0.36288 0.87546 0.0
C1330 C 0.10708 0.38373 0.88678 0.0
C1331 C 0.09593 0.32327 0.87459 0.0
C1332 C 0.1017 0.24081 0.89661 0.0
H1333 H 0.01954 0.10617 0.85475 0.0
H1334 H 0.06474 0.15824 0.85746 0.0
H1335 H 0.07762 0.18822 0.90395 0.0
H1336 H 0.142 0.37985 0.90584 0.0
H1337 H 0.14875 0.30964 0.90478 0.0
H1338 H 0.13833 0.2564 0.86342 0.0
C1339 C 0.06128 0.13853 0.86629 0.0
C1340 C 0.09249 0.202 0.89521 0.0
C1341 C 0.03499 0.10863 0.86473 0.0
C1342 C 0.12868 0.36426 0.89716 0.0
C1343 C 0.13291 0.32433 0.89647 0.0
C1344 C 0.12623 0.24128 0.87246 0.0
C1345 C 0.0794 0.14519 0.87948 0.0
C1346 C 0.09864 0.18268 0.88219 0.0
C1347 C 0.11647 0.30357 0.88518 0.0
C1348 C 0.11679 0.26117 0.885 0.0
H1349 H 0.04104 0.07071 0.89816 0.0
H1350 H 0.08782 0.12222 0.90077 0.0
H1351 H 0.1238 0.18812 0.8611 0.0
H1352 H 0.07382 0.37709 0.86741 0.0
H1353 H 0.0823 0.30781 0.86594 0.0
C1354 C 0.38991 0.03289 0.39174 0.0
C1355 C 0.40666 0.02493 0.37844 0.0
C1356 C 0.3604 0.05962 0.39294 0.0
C1357 C 0.28349 0.09722 0.37011 0.0
H1358 H 0.24819 0.13568 0.40666 0.0
C1359 C 0.12551 0.1368 0.3807 0.0
C1360 C 0.11025 0.109 0.38997 0.0
C1361 C 0.16518 0.1418 0.37957 0.0
C1362 C 0.25795 0.12575 0.39633 0.0
H1363 H 0.40867 0.04235 0.35624 0.0
H1364 H 0.35792 0.09023 0.35841 0.0
H1365 H 0.31602 0.12056 0.40334 0.0
H1366 H 0.12431 0.06653 0.40603 0.0
H1367 H 0.19352 0.07657 0.40455 0.0
H1368 H 0.22511 0.10209 0.36325 0.0
C1369 C 0.3666 0.0746 0.36785 0.0
C1370 C 0.29668 0.11671 0.39442 0.0
C1371 C 0.39592 0.04731 0.36661 0.0
C1372 C 0.13517 0.08843 0.3989 0.0
C1373 C 0.17474 0.09413 0.39804 0.0
C1374 C 0.24502 0.10721 0.37192 0.0
C1375 C 0.34706 0.07961 0.38088 0.0
C1376 C 0.3095 0.10008 0.38156 0.0
C1377 C 0.19006 0.11997 0.38806 0.0
C1378 C 0.23167 0.11966 0.38524 0.0
H1379 H 0.39736 0.0164 0.40109 0.0
H1380 H 0.34614 0.06206 0.40315 0.0
H1381 H 0.29183 0.08429 0.36009 0.0
H1382 H 0.10685 0.15371 0.37393 0.0
H1383 H 0.17647 0.16186 0.3718 0.0
C1384 C 0.45543 0.10569 0.14311 0.0
C1385 C 0.4698 0.08532 0.13134 0.0
C1386 C 0.42867 0.13498 0.14118 0.0
C1387 C 0.40506 0.20366 0.11281 0.0
H1388 H 0.34918 0.25096 0.14395 0.0
C1389 C 0.36644 0.3649 0.11348 0.0
C1390 C 0.3862 0.3827 0.12475 0.0
C1391 C 0.36193 0.325 0.11324 0.0
C1392 C 0.36408 0.23781 0.13506 0.0
H1393 H 0.46333 0.0759 0.10861 0.0
H1394 H 0.41531 0.12592 0.1053 0.0
H1395 H 0.36423 0.18255 0.14496 0.0
H1396 H 0.41574 0.37296 0.14477 0.0
H1397 H 0.40648 0.30363 0.14464 0.0
H1398 H 0.40553 0.25929 0.10312 0.0
C1399 C 0.42605 0.12057 0.11595 0.0
C1400 C 0.37302 0.19874 0.13566 0.0
C1401 C 0.45341 0.09168 0.11785 0.0
C1402 C 0.39982 0.36014 0.13607 0.0
C1403 C 0.39453 0.32048 0.136 0.0
C1404 C 0.39538 0.24247 0.11209 0.0
C1405 C 0.41513 0.14418 0.12745 0.0
C1406 C 0.39566 0.18169 0.12494 0.0
C1407 C 0.3762 0.30251 0.12447 0.0
C1408 C 0.37661 0.26023 0.12354 0.0
H1409 H 0.46719 0.10137 0.15369 0.0
H1410 H 0.42133 0.15238 0.15034 0.0
H1411 H 0.42275 0.19199 0.10437 0.0
H1412 H 0.35503 0.38173 0.10474 0.0
H1413 H 0.34785 0.31164 0.10421 0.0
C1414 C 0.40492 0.45467 0.6174 0.0
C1415 C 0.41145 0.46975 0.63109 0.0
C1416 C 0.37574 0.42781 0.61515 0.0
C1417 C 0.29721 0.37365 0.63419 0.0
H1418 H 0.23687 0.40946 0.60209 0.0
C1419 C 0.13651 0.40291 0.63498 0.0
C1420 C 0.11347 0.38903 0.62384 0.0
C1421 C 0.1761 0.39751 0.63472 0.0
C1422 C 0.25365 0.39839 0.61091 0.0
H1423 H 0.39532 0.46539 0.65338 0.0
H1424 H 0.34382 0.42037 0.64946 0.0
H1425 H 0.30432 0.42606 0.60352 0.0
H1426 H 0.11364 0.3577 0.60386 0.0
H1427 H 0.1837 0.35044 0.60296 0.0
H1428 H 0.24483 0.34956 0.64221 0.0
C1429 C 0.36132 0.42834 0.6404 0.0
C1430 C 0.29252 0.40772 0.61174 0.0
C1431 C 0.39089 0.4546 0.64267 0.0
C1432 C 0.13082 0.36923 0.61247 0.0
C1433 C 0.17069 0.36466 0.61203 0.0
C1434 C 0.2581 0.36507 0.63349 0.0
C1435 C 0.35203 0.41609 0.6265 0.0
C1436 C 0.3144 0.39711 0.62375 0.0
C1437 C 0.19357 0.3789 0.62315 0.0
C1438 C 0.23579 0.37879 0.62214 0.0
H1439 H 0.42083 0.46522 0.60828 0.0
H1440 H 0.37031 0.41806 0.60437 0.0
H1441 H 0.31333 0.36392 0.64337 0.0
H1442 H 0.12408 0.41897 0.64372 0.0
H1443 H 0.1933 0.40948 0.64326 0.0
C1444 C 0.03868 0.39227 0.14586 0.0
C1445 C 0.02662 0.41451 0.1342 0.0
C1446 C 0.06485 0.36243 0.14392 0.0
C1447 C 0.08977 0.29617 0.11505 0.0
H1448 H 0.14295 0.24515 0.14602 0.0
C1449 C 0.12451 0.13399 0.114 0.0
C1450 C 0.10588 0.11554 0.1254 0.0
C1451 C 0.12927 0.17388 0.11408 0.0
C1452 C 0.12874 0.25931 0.13718 0.0
H1453 H 0.03668 0.42655 0.11182 0.0
H1454 H 0.08335 0.37525 0.10851 0.0
H1455 H 0.12871 0.31362 0.14781 0.0
H1456 H 0.07824 0.12414 0.14586 0.0
H1457 H 0.08774 0.19334 0.14623 0.0
H1458 H 0.08883 0.24146 0.10467 0.0
C1459 C 0.07135 0.37973 0.11904 0.0
C1460 C 0.12035 0.29842 0.13823 0.0
C1461 C 0.04472 0.40929 0.12094 0.0
C1462 C 0.09335 0.13745 0.13706 0.0
C1463 C 0.09881 0.17705 0.13728 0.0
C1464 C 0.09875 0.25725 0.11392 0.0
C1465 C 0.08 0.3545 0.13031 0.0
C1466 C 0.09879 0.31683 0.12753 0.0
C1467 C 0.11627 0.19572 0.12571 0.0
C1468 C 0.11651 0.23811 0.12529 0.0
H1469 H 0.02553 0.39566 0.15625 0.0
H1470 H 0.07049 0.3437 0.15289 0.0
H1471 H 0.07288 0.30901 0.10662 0.0
H1472 H 0.13498 0.11765 0.10498 0.0
H1473 H 0.14268 0.18773 0.10502 0.0
C1474 C 0.35761 0.0863 0.61126 0.0
C1475 C 0.38172 0.10584 0.6208 0.0
C1476 C 0.31797 0.0916 0.61181 0.0
C1477 C 0.24523 0.1042 0.63765 0.0
H1478 H 0.17717 0.11296 0.60512 0.0
C1479 C 0.09459 0.04398 0.64214 0.0
C1480 C 0.08523 0.01965 0.6307 0.0
C1481 C 0.12366 0.0714 0.64069 0.0
C1482 C 0.19568 0.11045 0.61434 0.0
H1483 H 0.38357 0.14811 0.63776 0.0
H1484 H 0.31378 0.15573 0.63924 0.0
H1485 H 0.24504 0.12889 0.60249 0.0
H1486 H 0.09609 0.008 0.6083 0.0
H1487 H 0.14734 0.05396 0.60595 0.0
H1488 H 0.19755 0.08208 0.6492 0.0
C1489 C 0.32577 0.13674 0.63125 0.0
C1490 C 0.23444 0.11989 0.61283 0.0
C1491 C 0.36554 0.13206 0.63049 0.0
C1492 C 0.10286 0.02588 0.61742 0.0
C1493 C 0.13223 0.05276 0.61603 0.0
C1494 C 0.20673 0.09396 0.63909 0.0
C1495 C 0.30166 0.11603 0.62206 0.0
C1496 C 0.25975 0.11537 0.62433 0.0
C1497 C 0.14434 0.0746 0.62783 0.0
C1498 C 0.18181 0.0952 0.62727 0.0
H1499 H 0.36916 0.06552 0.60383 0.0
H1500 H 0.29989 0.07481 0.60477 0.0
H1501 H 0.26429 0.10026 0.64666 0.0
H1502 H 0.08103 0.04042 0.65246 0.0
H1503 H 0.13133 0.08853 0.64989 0.0
C1504 C 0.50212 0.94398 0.95157 0.0
C1505 C 0.47133 0.96364 0.94521 0.0
C1506 C 0.51237 0.95124 0.96571 0.0
C1507 C 0.47618 0.98576 0.99996 0.0
H1508 H 0.5836 0.00322 0.00848 0.0
C1509 C 0.52938 0.02712 0.05667 0.0
C1510 C 0.56523 0.01293 0.06103 0.0
C1511 C 0.51661 0.02166 0.04265 0.0
C1512 C 0.55355 0.99779 0.00638 0.0
H1513 H 0.42681 0.00602 0.94881 0.0
H1514 H 0.44444 0.01821 0.97373 0.0
H1515 H 0.56363 0.99271 0.98392 0.0
H1516 H 0.61556 0.98147 0.05423 0.0
H1517 H 0.59292 0.97064 0.03 0.0
H1518 H 0.46613 0.98973 0.02245 0.0
C1519 C 0.46065 0.99731 0.96767 0.0
C1520 C 0.54211 0.99201 0.99226 0.0
C1521 C 0.4507 0.99044 0.9534 0.0
C1522 C 0.58782 0.9928 0.05115 0.0
C1523 C 0.57491 0.9869 0.03722 0.0
C1524 C 0.48769 0.99106 0.01415 0.0
C1525 C 0.49182 0.97798 0.97392 0.0
C1526 C 0.50338 0.98569 0.9889 0.0
C1527 C 0.53935 0.0017 0.03268 0.0
C1528 C 0.52662 0.99687 0.01757 0.0
H1529 H 0.51866 0.92318 0.94558 0.0
H1530 H 0.53628 0.93565 0.97029 0.0
H1531 H 0.44615 0.98065 0.99768 0.0
H1532 H 0.51177 0.04363 0.06394 0.0
H1533 H 0.48939 0.03406 0.03953 0.0
C1534 C 0.47024 0.53123 0.55777 0.0
C1535 C 0.48429 0.5672 0.56207 0.0
C1536 C 0.47581 0.51825 0.54378 0.0
C1537 C 0.50033 0.55427 0.50741 0.0
H1538 H 0.51723 0.44646 0.49924 0.0
C1539 C 0.55389 0.5005 0.45282 0.0
C1540 C 0.53394 0.46965 0.44662 0.0
C1541 C 0.54684 0.51131 0.46693 0.0
C1542 C 0.51222 0.4766 0.50137 0.0
H1543 H 0.51545 0.61764 0.55518 0.0
H1544 H 0.52651 0.59463 0.531 0.0
H1545 H 0.50798 0.46731 0.52389 0.0
H1546 H 0.49128 0.42555 0.45049 0.0
H1547 H 0.4795 0.44411 0.47535 0.0
H1548 H 0.50571 0.56355 0.48491 0.0
C1549 C 0.51029 0.57666 0.53824 0.0
C1550 C 0.50679 0.48862 0.5155 0.0
C1551 C 0.50426 0.58979 0.55215 0.0
C1552 C 0.5071 0.44946 0.45495 0.0
C1553 C 0.50046 0.45996 0.46918 0.0
C1554 C 0.50626 0.54232 0.49335 0.0
C1555 C 0.49578 0.54088 0.53378 0.0
C1556 C 0.50097 0.52769 0.51873 0.0
C1557 C 0.52003 0.49124 0.47526 0.0
C1558 C 0.51245 0.50342 0.49018 0.0
H1559 H 0.45381 0.51363 0.56506 0.0
H1560 H 0.46356 0.49091 0.54073 0.0
H1561 H 0.49495 0.58442 0.50936 0.0
H1562 H 0.57471 0.51672 0.44672 0.0
H1563 H 0.56262 0.53529 0.47137 0.0
C1564 C 0.91906 0.51403 0.05348 0.0
C1565 C 0.93375 0.48629 0.06287 0.0
C1566 C 0.93246 0.51636 0.03944 0.0
C1567 C 0.97448 0.45851 0.011 0.0
H1568 H 0.00188 0.55642 0.99411 0.0
C1569 C 0.98829 0.48339 0.95015 0.0
C1570 C 0.02043 0.5041 0.94538 0.0
C1571 C 0.98053 0.47996 0.96473 0.0
C1572 C 0.99456 0.52885 0.99871 0.0
H1573 H 0.97294 0.43831 0.06482 0.0
H1574 H 0.99617 0.44213 0.0402 0.0
H1575 H 0.9831 0.55343 0.01926 0.0
H1576 H 0.06979 0.53726 0.95218 0.0
H1577 H 0.05575 0.53183 0.9777 0.0
H1578 H 0.98513 0.43406 0.99038 0.0
C1579 C 0.97473 0.46246 0.04379 0.0
C1580 C 0.98356 0.52719 0.01306 0.0
C1581 C 0.96174 0.46053 0.0579 0.0
C1582 C 0.04484 0.52106 0.95552 0.0
C1583 C 0.03672 0.51813 0.97011 0.0
C1584 C 0.98491 0.46027 0.9966 0.0
C1585 C 0.96025 0.49043 0.03442 0.0
C1586 C 0.97327 0.49203 0.01934 0.0
C1587 C 0.00441 0.49763 0.97486 0.0
C1588 C 0.99492 0.49548 0.99029 0.0
H1589 H 0.89727 0.53406 0.05702 0.0
H1590 H 0.92047 0.53792 0.03241 0.0
H1591 H 0.96646 0.43106 0.01553 0.0
H1592 H 0.96897 0.4699 0.94262 0.0
H1593 H 0.95527 0.46423 0.96808 0.0
C1594 C 0.0176 0.989 0.44881 0.0
C1595 C 0.99291 0.01885 0.44467 0.0
C1596 C 0.0206 0.97825 0.46313 0.0
C1597 C -0.0006 0.01083 0.50014 0.0
H1598 H 0.01052 0.90245 0.50861 0.0
C1599 C 0.99053 0.94781 0.55755 0.0
C1600 C 0.01894 0.92085 0.56119 0.0
C1601 C 0.98677 0.96078 0.54347 0.0
C1602 C 0.00771 0.93285 0.50642 0.0
H1603 H 0.95226 0.06115 0.45238 0.0
H1604 H 0.9568 0.04183 0.47735 0.0
H1605 H 0.00508 0.92337 0.48392 0.0
H1606 H 0.06512 0.88587 0.5527 0.0
H1607 H 0.05821 0.90808 0.52822 0.0
H1608 H 0.00148 0.02 0.52276 0.0
C1609 C 0.97441 0.02712 0.46956 0.0
C1610 C 0.00473 0.94492 0.49225 0.0
C1611 C 0.97165 0.0381 0.45522 0.0
C1612 C 0.04291 0.90665 0.55033 0.0
C1613 C 0.03895 0.91933 0.53627 0.0
C1614 C 0.00207 -0.00131 0.51435 0.0
C1615 C -0.0013 0.99681 0.4737 0.0
C1616 C 0.00091 0.98411 0.48889 0.0
C1617 C 0.01087 0.94657 0.53267 0.0
C1618 C 0.00661 0.95958 0.51764 0.0
H1619 H 0.03467 0.9738 0.44098 0.0
H1620 H 0.04026 0.95538 0.46591 0.0
H1621 H 0.99695 0.04127 0.49799 0.0
H1622 H 0.97046 0.95829 0.56541 0.0
H1623 H 0.96439 0.98127 0.54097 0.0
C1624 C 0.57617 0.47249 0.96123 0.0
C1625 C 0.55556 0.48605 0.94939 0.0
C1626 C 0.56193 0.47751 0.97506 0.0
C1627 C 0.49518 0.53796 0.99595 0.0
H1628 H 0.50759 0.45825 0.02445 0.0
C1629 C 0.47176 0.56661 0.05593 0.0
C1630 C 0.45446 0.53781 0.06423 0.0
C1631 C 0.48196 0.55956 0.04175 0.0
C1632 C 0.5035 0.48068 0.0166 0.0
H1633 H 0.50486 0.51735 0.94279 0.0
H1634 H 0.47931 0.52507 0.96685 0.0
H1635 H 0.52867 0.44668 1.00003 0.0
H1636 H 0.43389 0.47905 0.06404 0.0
H1637 H 0.45125 0.4669 0.03921 0.0
H1638 H 0.46952 0.57176 0.01245 0.0
C1639 C 0.50643 0.51037 0.96549 0.0
C1640 C 0.51604 0.47421 1.00262 0.0
C1641 C 0.52073 0.50537 0.95167 0.0
C1642 C 0.44724 0.50185 0.05796 0.0
C1643 C 0.45742 0.49481 0.04374 0.0
C1644 C 0.48261 0.54441 0.00992 0.0
C1645 C 0.52688 0.49656 0.97737 0.0
C1646 C 0.5123 0.50287 0.99214 0.0
C1647 C 0.47506 0.52355 0.03548 0.0
C1648 C 0.48689 0.51598 0.02045 0.0
H1649 H 0.60337 0.45795 0.95979 0.0
H1650 H 0.57882 0.46713 0.98395 0.0
H1651 H 0.49216 0.56084 0.98822 0.0
H1652 H 0.47789 0.59459 0.06042 0.0
H1653 H 0.49601 0.58219 0.0358 0.0
C1654 C 0.02048 0.53054 0.45477 0.0
C1655 C 0.00556 0.56624 0.45058 0.0
C1656 C 0.01498 0.51702 0.46869 0.0
C1657 C 0.98863 0.55143 0.50511 0.0
H1658 H 0.97527 0.44293 0.51292 0.0
C1659 C 0.93559 0.49466 0.55932 0.0
C1660 C 0.95691 0.46484 0.56559 0.0
C1661 C 0.94245 0.50582 0.54524 0.0
C1662 C 0.97928 0.47328 0.51088 0.0
H1663 H 0.97287 0.61559 0.45755 0.0
H1664 H 0.96187 0.59159 0.4816 0.0
H1665 H 0.98425 0.46463 0.48835 0.0
H1666 H 0.00174 0.42286 0.56186 0.0
H1667 H 0.01316 0.44198 0.53703 0.0
H1668 H 0.98245 0.56003 0.52762 0.0
C1669 C 0.97875 0.57429 0.47435 0.0
C1670 C 0.98456 0.48578 0.49681 0.0
C1671 C 0.98474 0.58798 0.46051 0.0
C1672 C 0.98486 0.44596 0.55734 0.0
C1673 C 0.99131 0.45678 0.54313 0.0
C1674 C 0.98281 0.53898 0.51911 0.0
C1675 C 0.99418 0.53881 0.47872 0.0
C1676 C 0.98911 0.52511 0.49371 0.0
C1677 C 0.97042 0.48711 0.53701 0.0
C1678 C 0.9779 0.49983 0.52214 0.0
H1679 H 0.03754 0.5136 0.44746 0.0
H1680 H 0.02795 0.48996 0.47168 0.0
H1681 H 0.99305 0.58179 0.50327 0.0
H1682 H 0.91389 0.50988 0.56536 0.0
H1683 H 0.92568 0.52905 0.54075 0.0
C1684 C 0.02983 0.99699 0.0601 0.0
C1685 C 0.05641 0.96779 0.06319 0.0
C1686 C 0.01755 0.00334 0.04609 0.0
C1687 C 0.01062 0.95483 0.01098 0.0
H1688 H 0.99122 0.05775 0.99701 0.0
C1689 C 0.97238 0.98551 0.95201 0.0
C1690 C 0.94298 0.01223 0.94952 0.0
C1691 C 0.98758 0.98079 0.96572 0.0
C1692 C 0.99621 0.02881 1.00079 0.0
H1693 H 0.09168 0.92304 0.05387 0.0
H1694 H 0.07084 0.93454 0.02944 0.0
H1695 H 0.0158 0.04867 0.02114 0.0
H1696 H 0.90561 0.05412 0.95941 0.0
H1697 H 0.93203 0.04589 0.98338 0.0
H1698 H 0.99106 0.935 0.99062 0.0
C1699 C 0.05883 0.95205 0.03788 0.0
C1700 C 0.01026 0.02358 0.01464 0.0
C1701 C 0.07099 0.94562 0.0519 0.0
C1702 C 0.92862 0.03368 0.96102 0.0
C1703 C 0.94392 0.02913 0.97471 0.0
C1704 C 0.99672 0.96007 0.99712 0.0
C1705 C 0.03166 0.98074 0.0348 0.0
C1706 C 0.01752 0.9865 0.01994 0.0
C1707 C 0.97355 0.00257 0.97724 0.0
C1708 C 0.98919 0.99711 0.99187 0.0
H1709 H 0.01795 0.01458 0.06855 0.0
H1710 H 0.99628 0.02538 0.04416 0.0
H1711 H 0.0152 0.92582 0.01476 0.0
H1712 H 0.98314 0.96774 0.94342 0.0
H1713 H 0.01042 0.96015 0.96728 0.0
C1714 C 0.50301 0.95684 0.45233 0.0
C1715 C 0.4787 0.92628 0.44861 0.0
C1716 C 0.50559 0.96919 0.46652 0.0
C1717 C 0.49 0.93627 0.50346 0.0
H1718 H 0.48887 0.04481 0.5126 0.0
C1719 C 0.47736 0.98893 0.56149 0.0
C1720 C 0.49961 0.02066 0.56563 0.0
C1721 C 0.47448 0.97851 0.54713 0.0
C1722 C 0.4897 0.0144 0.51024 0.0
H1723 H 0.43918 0.88374 0.45683 0.0
H1724 H 0.44368 0.90515 0.48159 0.0
H1725 H 0.48516 0.02432 0.48773 0.0
H1726 H 0.53589 0.06671 0.55787 0.0
H1727 H 0.53139 0.04816 0.53281 0.0
H1728 H 0.49492 0.92619 0.52588 0.0
C1729 C 0.46059 0.91978 0.47357 0.0
C1730 C 0.48753 0.00267 0.49597 0.0
C1731 C 0.45789 0.9076 0.45939 0.0
C1732 C 0.51843 0.04215 0.55504 0.0
C1733 C 0.5157 0.0316 0.54065 0.0
C1734 C 0.49235 0.94797 0.5177 0.0
C1735 C 0.48441 0.95078 0.4773 0.0
C1736 C 0.48744 0.96344 0.49243 0.0
C1737 C 0.49395 -0.00059 0.53653 0.0
C1738 C 0.49199 0.98718 0.5213 0.0
H1739 H 0.52065 0.9707 0.44434 0.0
H1740 H 0.52482 0.99261 0.46909 0.0
H1741 H 0.49069 0.90585 0.50109 0.0
H1742 H 0.46221 0.97191 0.56935 0.0
H1743 H 0.45683 0.95405 0.54435 0.0
loop_
_geom_bond_atom_site_label_1
_geom_bond_atom_site_label_2
_geom_bond_distance
_geom_bond_site_symmetry_2
_ccdc_geom_bond_type
Co0 O3 1.970 . S
Co0 N17 1.989 . S
Co0 O25 1.967 . S
Co0 O32 1.920 . S
Co1 O4 1.966 . S
Co1 N10 2.022 . S
Co1 N18 1.993 . S
Co1 O26 1.941 . S
C2 O3 1.258 . S
C2 O4 1.263 . S
O3 Co0 1.970 . S
O3 C2 1.258 . S
O4 Co1 1.966 . S
O4 C2 1.263 . S
C5 O6 1.235 . S
C5 O32 1.289 . S
O6 C5 1.235 . S
C7 C9 1.400 . S
C7 N10 1.351 . S
C7 C12 1.501 . S
C8 C9 1.387 . S
C8 N11 1.341 . S
C9 C7 1.400 . S
C9 C8 1.387 . S
N10 Co1 2.022 . S
N10 C7 1.351 . S
N10 N11 1.365 . S
N11 C8 1.341 . S
N11 N10 1.365 . S
N11 H31 0.862 . S
C12 C7 1.501 . S
C12 H13 0.961 . S
C12 H14 0.961 . S
C12 H15 0.960 . S
H13 C12 0.961 . S
H14 C12 0.961 . S
H15 C12 0.960 . S
C16 N17 1.342 1_565 S
C16 C20 1.401 . S
C16 C21 1.499 . S
N17 Co0 1.989 . S
N17 C16 1.342 1_545 S
N17 N18 1.388 . S
N18 Co1 1.993 . S
N18 N17 1.388 . S
N18 C19 1.346 1_545 S
C19 N18 1.346 1_565 S
C19 C20 1.396 . S
C19 C29 1.510 . S
C20 C16 1.401 . S
C20 C19 1.396 . S
C21 C16 1.499 . S
C21 H22 0.959 . S
C21 H23 0.960 . S
C21 H24 0.961 . S
H22 C21 0.959 . S
H23 C21 0.960 . S
H24 C21 0.961 . S
O25 Co0 1.967 . S
O25 C33 1.258 . S
O26 Co1 1.941 . S
O26 C33 1.266 . S
H27 C29 0.959 . S
H28 C29 0.961 . S
C29 C19 1.510 . S
C29 H27 0.959 . S
C29 H28 0.961 . S
C29 H30 0.960 . S
H30 C29 0.960 . S
H31 N11 0.862 . S
O32 Co0 1.920 . S
O32 C5 1.289 . S
C33 O25 1.258 . S
C33 O26 1.266 . S
Co34 O37 1.970 . S
Co34 N51 1.989 . S
Co34 O59 1.967 . S
Co34 O66 1.920 . S
Co35 O38 1.966 . S
Co35 N44 2.022 . S
Co35 N52 1.993 . S
Co35 O60 1.941 . S
C36 O37 1.258 . S
C36 O38 1.263 . S
O37 Co34 1.970 . S
O37 C36 1.258 . S
O38 Co35 1.966 . S
O38 C36 1.263 . S
C39 O40 1.235 . S
C39 O66 1.289 . S
O40 C39 1.235 . S
C41 C43 1.400 . S
C41 N44 1.351 . S
C41 C46 1.501 . S
C42 C43 1.387 . S
C42 N45 1.341 . S
C43 C41 1.400 . S
C43 C42 1.387 . S
N44 Co35 2.022 . S
N44 C41 1.351 . S
N44 N45 1.365 . S
N45 C42 1.341 . S
N45 N44 1.365 . S
N45 H65 0.862 . S
C46 C41 1.501 . S
C46 H47 0.961 . S
C46 H48 0.961 . S
C46 H49 0.960 . S
H47 C46 0.961 . S
H48 C46 0.961 . S
H49 C46 0.960 . S
C50 N51 1.342 . S
C50 C54 1.401 . S
C50 C55 1.499 . S
N51 Co34 1.989 . S
N51 C50 1.342 . S
N51 N52 1.388 . S
N52 Co35 1.993 . S
N52 N51 1.388 . S
N52 C53 1.346 . S
C53 N52 1.346 . S
C53 C54 1.396 . S
C53 C63 1.510 . S
C54 C50 1.401 . S
C54 C53 1.396 . S
C55 C50 1.499 . S
C55 H56 0.959 . S
C55 H57 0.960 . S
C55 H58 0.961 . S
H56 C55 0.959 . S
H57 C55 0.960 . S
H58 C55 0.961 . S
O59 Co34 1.967 . S
O59 C67 1.258 . S
O60 Co35 1.941 . S
O60 C67 1.266 . S
H61 C63 0.959 . S
H62 C63 0.961 . S
C63 C53 1.510 . S
C63 H61 0.959 . S
C63 H62 0.961 . S
C63 H64 0.960 . S
H64 C63 0.960 . S
H65 N45 0.862 . S
O66 Co34 1.920 . S
O66 C39 1.289 . S
C67 O59 1.258 . S
C67 O60 1.266 . S
Co68 O71 1.954 1_655 S
Co68 N85 1.989 . S
Co68 O93 1.967 . S
Co68 O100 1.920 . S
Co69 O72 1.966 . S
Co69 N78 2.022 . S
Co69 N86 1.993 . S
Co69 O94 1.941 . S
C70 O71 1.260 . S
C70 O72 1.263 1_455 S
O71 Co68 1.954 1_455 S
O71 C70 1.260 . S
O72 Co69 1.966 . S
O72 C70 1.263 1_655 S
C73 O74 1.235 1_655 S
C73 O100 1.289 . S
O74 C73 1.235 1_455 S
C75 C77 1.400 . S
C75 N78 1.351 . S
C75 C80 1.501 1_655 S
C76 C77 1.387 . S
C76 N79 1.341 . S
C77 C75 1.400 . S
C77 C76 1.387 . S
N78 Co69 2.022 . S
N78 C75 1.351 . S
N78 N79 1.365 . S
N79 C76 1.341 . S
N79 N78 1.365 . S
N79 H99 0.862 . S
C80 C75 1.501 1_455 S
C80 H81 0.961 . S
C80 H82 0.961 . S
C80 H83 0.960 . S
H81 C80 0.961 . S
H82 C80 0.961 . S
H83 C80 0.960 . S
C84 N85 1.342 . S
C84 C88 1.401 . S
C84 C89 1.499 . S
N85 Co68 1.989 . S
N85 C84 1.342 . S
N85 N86 1.388 . S
N86 Co69 1.993 . S
N86 N85 1.388 . S
N86 C87 1.346 . S
C87 N86 1.346 . S
C87 C88 1.396 . S
C87 C97 1.510 . S
C88 C84 1.401 . S
C88 C87 1.396 . S
C89 C84 1.499 . S
C89 H90 0.959 . S
C89 H91 0.947 1_655 S
C89 H92 0.961 . S
H90 C89 0.959 . S
H91 C89 0.947 1_455 S
H92 C89 0.961 . S
O93 Co68 1.967 . S
O93 C101 1.258 . S
O94 Co69 1.941 . S
O94 C101 1.266 . S
H95 C97 0.959 . S
H96 C97 0.961 1_455 S
C97 C87 1.510 . S
C97 H95 0.959 . S
C97 H96 0.961 1_655 S
C97 H98 0.960 . S
H98 C97 0.960 . S
H99 N79 0.862 . S
O100 Co68 1.920 . S
O100 C73 1.289 . S
C101 O93 1.258 . S
C101 O94 1.266 . S
Co102 O105 1.953 1_565 S
Co102 N119 1.989 . S
Co102 O127 1.967 . S
Co102 O134 1.920 . S
Co103 O106 1.966 . S
Co103 N112 2.022 . S
Co103 N120 1.993 . S
Co103 O128 1.941 . S
C104 O105 1.260 . S
C104 O106 1.263 1_545 S
O105 Co102 1.953 1_545 S
O105 C104 1.260 . S
O106 Co103 1.966 . S
O106 C104 1.263 1_565 S
C107 O108 1.235 1_565 S
C107 O134 1.289 . S
O108 C107 1.235 1_545 S
C109 C111 1.400 . S
C109 N112 1.351 . S
C109 C114 1.501 1_565 S
C110 C111 1.387 . S
C110 N113 1.341 . S
C111 C109 1.400 . S
C111 C110 1.387 . S
N112 Co103 2.022 . S
N112 C109 1.351 . S
N112 N113 1.365 . S
N113 C110 1.341 . S
N113 N112 1.365 . S
N113 H133 0.862 . S
C114 C109 1.501 1_545 S
C114 H115 0.961 . S
C114 H116 0.961 . S
C114 H117 0.960 . S
H115 C114 0.961 . S
H116 C114 0.961 . S
H117 C114 0.960 . S
C118 N119 1.342 1_655 S
C118 C122 1.401 . S
C118 C123 1.499 . S
N119 Co102 1.989 . S
N119 C118 1.342 1_455 S
N119 N120 1.388 . S
N120 Co103 1.993 . S
N120 N119 1.388 . S
N120 C121 1.346 1_455 S
C121 N120 1.346 1_655 S
C121 C122 1.396 . S
C121 C131 1.510 . S
C122 C118 1.401 . S
C122 C121 1.396 . S
C123 C118 1.499 . S
C123 H124 0.959 . S
C123 H125 0.946 1_565 S
C123 H126 0.961 . S
H124 C123 0.959 . S
H125 C123 0.946 1_545 S
H126 C123 0.961 . S
O127 Co102 1.967 . S
O127 C135 1.258 . S
O128 Co103 1.941 . S
O128 C135 1.266 . S
H129 C131 0.959 . S
H130 C131 0.961 1_545 S
C131 C121 1.510 . S
C131 H129 0.959 . S
C131 H130 0.961 1_565 S
C131 H132 0.960 . S
H132 C131 0.960 . S
H133 N113 0.862 . S
O134 Co102 1.920 . S
O134 C107 1.289 . S
C135 O127 1.258 . S
C135 O128 1.266 . S
Co136 O139 1.970 . S
Co136 N153 1.989 . S
Co136 O161 1.967 . S
Co136 O168 1.920 . S
Co137 O140 1.966 . S
Co137 N146 2.022 . S
Co137 N154 1.993 . S
Co137 O162 1.941 . S
C138 O139 1.258 . S
C138 O140 1.263 . S
O139 Co136 1.970 . S
O139 C138 1.258 . S
O140 Co137 1.966 . S
O140 C138 1.263 . S
C141 O142 1.235 . S
C141 O168 1.289 . S
O142 C141 1.235 . S
C143 C145 1.400 . S
C143 N146 1.351 . S
C143 C148 1.501 . S
C144 C145 1.387 . S
C144 N147 1.341 . S
C145 C143 1.400 . S
C145 C144 1.387 . S
N146 Co137 2.022 . S
N146 C143 1.351 . S
N146 N147 1.365 . S
N147 C144 1.341 . S
N147 N146 1.365 . S
N147 H167 0.862 . S
C148 C143 1.501 . S
C148 H149 0.961 . S
C148 H150 0.961 . S
C148 H151 0.960 . S
H149 C148 0.961 . S
H150 C148 0.961 . S
H151 C148 0.960 . S
C152 N153 1.342 . S
C152 C156 1.401 . S
C152 C157 1.499 . S
N153 Co136 1.989 . S
N153 C152 1.342 . S
N153 N154 1.388 . S
N154 Co137 1.993 . S
N154 N153 1.388 . S
N154 C155 1.346 . S
C155 N154 1.346 . S
C155 C156 1.396 . S
C155 C165 1.510 . S
C156 C152 1.401 . S
C156 C155 1.396 . S
C157 C152 1.499 . S
C157 H158 0.959 . S
C157 H159 0.960 . S
C157 H160 0.961 . S
H158 C157 0.959 . S
H159 C157 0.960 . S
H160 C157 0.961 . S
O161 Co136 1.967 . S
O161 C169 1.258 . S
O162 Co137 1.941 . S
O162 C169 1.266 . S
H163 C165 0.959 . S
H164 C165 0.961 . S
C165 C155 1.510 . S
C165 H163 0.959 . S
C165 H164 0.961 . S
C165 H166 0.960 . S
H166 C165 0.960 . S
H167 N147 0.862 . S
O168 Co136 1.920 . S
O168 C141 1.289 . S
C169 O161 1.258 . S
C169 O162 1.266 . S
Co170 O173 1.970 . S
Co170 N187 1.989 . S
Co170 O195 1.967 . S
Co170 O202 1.920 . S
Co171 O174 1.966 . S
Co171 N180 2.022 . S
Co171 N188 1.993 . S
Co171 O196 1.941 . S
C172 O173 1.258 . S
C172 O174 1.263 . S
O173 Co170 1.970 . S
O173 C172 1.258 . S
O174 Co171 1.966 . S
O174 C172 1.263 . S
C175 O176 1.235 . S
C175 O202 1.289 . S
O176 C175 1.235 . S
C177 C179 1.400 . S
C177 N180 1.351 . S
C177 C182 1.501 . S
C178 C179 1.387 . S
C178 N181 1.341 . S
C179 C177 1.400 . S
C179 C178 1.387 . S
N180 Co171 2.022 . S
N180 C177 1.351 . S
N180 N181 1.365 . S
N181 C178 1.341 . S
N181 N180 1.365 . S
N181 H201 0.862 . S
C182 C177 1.501 . S
C182 H183 0.961 . S
C182 H184 0.961 . S
C182 H185 0.960 . S
H183 C182 0.961 . S
H184 C182 0.961 . S
H185 C182 0.960 . S
C186 N187 1.342 1_655 S
C186 C190 1.401 . S
C186 C191 1.499 . S
N187 Co170 1.989 . S
N187 C186 1.342 1_455 S
N187 N188 1.388 . S
N188 Co171 1.993 . S
N188 N187 1.388 . S
N188 C189 1.346 1_455 S
C189 N188 1.346 1_655 S
C189 C190 1.396 . S
C189 C199 1.510 . S
C190 C186 1.401 . S
C190 C189 1.396 . S
C191 C186 1.499 . S
C191 H192 0.959 . S
C191 H193 0.960 . S
C191 H194 0.961 . S
H192 C191 0.959 . S
H193 C191 0.960 . S
H194 C191 0.961 . S
O195 Co170 1.967 . S
O195 C203 1.258 . S
O196 Co171 1.941 . S
O196 C203 1.266 . S
H197 C199 0.959 . S
H198 C199 0.961 . S
C199 C189 1.510 . S
C199 H197 0.959 . S
C199 H198 0.961 . S
C199 H200 0.960 . S
H200 C199 0.960 . S
H201 N181 0.862 . S
O202 Co170 1.920 . S
O202 C175 1.289 . S
C203 O195 1.258 . S
C203 O196 1.266 . S
Co204 O207 1.953 1_655 S
Co204 N221 1.989 . S
Co204 O229 1.967 . S
Co204 O236 1.920 . S
Co205 O208 1.966 . S
Co205 N214 2.022 . S
Co205 N222 1.993 . S
Co205 O230 1.941 . S
C206 O207 1.260 . S
C206 O208 1.263 1_455 S
O207 Co204 1.953 1_455 S
O207 C206 1.260 . S
O208 Co205 1.966 . S
O208 C206 1.263 1_655 S
C209 O210 1.235 1_655 S
C209 O236 1.289 . S
O210 C209 1.235 1_455 S
C211 C213 1.400 . S
C211 N214 1.351 . S
C211 C216 1.501 1_655 S
C212 C213 1.387 . S
C212 N215 1.341 . S
C213 C211 1.400 . S
C213 C212 1.387 . S
N214 Co205 2.022 . S
N214 C211 1.351 . S
N214 N215 1.365 . S
N215 C212 1.341 . S
N215 N214 1.365 . S
N215 H235 0.862 . S
C216 C211 1.501 1_455 S
C216 H217 0.961 . S
C216 H218 0.961 . S
C216 H219 0.960 . S
H217 C216 0.961 . S
H218 C216 0.961 . S
H219 C216 0.960 . S
C220 N221 1.342 1_565 S
C220 C224 1.401 . S
C220 C225 1.499 . S
N221 Co204 1.989 . S
N221 C220 1.342 1_545 S
N221 N222 1.388 . S
N222 Co205 1.993 . S
N222 N221 1.388 . S
N222 C223 1.346 1_545 S
C223 N222 1.346 1_565 S
C223 C224 1.396 . S
C223 C233 1.510 . S
C224 C220 1.401 . S
C224 C223 1.396 . S
C225 C220 1.499 . S
C225 H226 0.959 . S
C225 H227 0.946 1_655 S
C225 H228 0.961 . S
H226 C225 0.959 . S
H227 C225 0.946 1_455 S
H228 C225 0.961 . S
O229 Co204 1.967 . S
O229 C237 1.258 . S
O230 Co205 1.941 . S
O230 C237 1.266 . S
H231 C233 0.959 . S
H232 C233 0.961 1_455 S
C233 C223 1.510 . S
C233 H231 0.959 . S
C233 H232 0.961 1_655 S
C233 H234 0.960 . S
H234 C233 0.960 . S
H235 N215 0.862 . S
O236 Co204 1.920 . S
O236 C209 1.289 . S
C237 O229 1.258 . S
C237 O230 1.266 . S
Co238 O241 1.954 1_565 S
Co238 N255 1.989 . S
Co238 O263 1.967 . S
Co238 O270 1.920 . S
Co239 O242 1.966 . S
Co239 N248 2.022 . S
Co239 N256 1.993 . S
Co239 O264 1.941 . S
C240 O241 1.260 . S
C240 O242 1.263 1_545 S
O241 Co238 1.954 1_545 S
O241 C240 1.260 . S
O242 Co239 1.966 . S
O242 C240 1.263 1_565 S
C243 O244 1.235 1_565 S
C243 O270 1.289 . S
O244 C243 1.235 1_545 S
C245 C247 1.400 . S
C245 N248 1.351 . S
C245 C250 1.501 1_565 S
C246 C247 1.387 . S
C246 N249 1.341 . S
C247 C245 1.400 . S
C247 C246 1.387 . S
N248 Co239 2.022 . S
N248 C245 1.351 . S
N248 N249 1.365 . S
N249 C246 1.341 . S
N249 N248 1.365 . S
N249 H269 0.862 . S
C250 C245 1.501 1_545 S
C250 H251 0.961 . S
C250 H252 0.961 . S
C250 H253 0.960 . S
H251 C250 0.961 . S
H252 C250 0.961 . S
H253 C250 0.960 . S
C254 N255 1.342 . S
C254 C258 1.401 . S
C254 C259 1.499 . S
N255 Co238 1.989 . S
N255 C254 1.342 . S
N255 N256 1.388 . S
N256 Co239 1.993 . S
N256 N255 1.388 . S
N256 C257 1.346 . S
C257 N256 1.346 . S
C257 C258 1.396 . S
C257 C267 1.510 . S
C258 C254 1.401 . S
C258 C257 1.396 . S
C259 C254 1.499 . S
C259 H260 0.959 . S
C259 H261 0.947 1_565 S
C259 H262 0.961 . S
H260 C259 0.959 . S
H261 C259 0.947 1_545 S
H262 C259 0.961 . S
O263 Co238 1.967 . S
O263 C271 1.258 . S
O264 Co239 1.941 . S
O264 C271 1.266 . S
H265 C267 0.959 . S
H266 C267 0.961 1_545 S
C267 C257 1.510 . S
C267 H265 0.959 . S
C267 H266 0.961 1_565 S
C267 H268 0.960 . S
H268 C267 0.960 . S
H269 N249 0.862 . S
O270 Co238 1.920 . S
O270 C243 1.289 . S
C271 O263 1.258 . S
C271 O264 1.266 . S
Co272 O275 1.970 . S
Co272 N289 1.989 . S
Co272 O297 1.967 . S
Co272 O304 1.920 . S
Co273 O276 1.966 . S
Co273 N282 2.022 . S
Co273 N290 1.993 . S
Co273 O298 1.941 . S
C274 O275 1.258 . S
C274 O276 1.263 . S
O275 Co272 1.970 . S
O275 C274 1.258 . S
O276 Co273 1.966 . S
O276 C274 1.263 . S
C277 O278 1.235 . S
C277 O304 1.289 . S
O278 C277 1.235 . S
C279 C281 1.400 . S
C279 N282 1.351 . S
C279 C284 1.501 . S
C280 C281 1.387 . S
C280 N283 1.341 . S
C281 C279 1.400 . S
C281 C280 1.387 . S
N282 Co273 2.022 . S
N282 C279 1.351 . S
N282 N283 1.365 . S
N283 C280 1.341 . S
N283 N282 1.365 . S
N283 H303 0.862 . S
C284 C279 1.501 . S
C284 H285 0.961 . S
C284 H286 0.961 . S
C284 H287 0.960 . S
H285 C284 0.961 . S
H286 C284 0.961 . S
H287 C284 0.960 . S
C288 N289 1.342 1_545 S
C288 C292 1.401 . S
C288 C293 1.499 . S
N289 Co272 1.989 . S
N289 C288 1.342 1_565 S
N289 N290 1.388 . S
N290 Co273 1.993 . S
N290 N289 1.388 . S
N290 C291 1.346 1_565 S
C291 N290 1.346 1_545 S
C291 C292 1.396 . S
C291 C301 1.510 . S
C292 C288 1.401 . S
C292 C291 1.396 . S
C293 C288 1.499 . S
C293 H294 0.959 . S
C293 H295 0.960 . S
C293 H296 0.961 . S
H294 C293 0.959 . S
H295 C293 0.960 . S
H296 C293 0.961 . S
O297 Co272 1.967 . S
O297 C305 1.258 . S
O298 Co273 1.941 . S
O298 C305 1.266 . S
H299 C301 0.959 . S
H300 C301 0.961 . S
C301 C291 1.510 . S
C301 H299 0.959 . S
C301 H300 0.961 . S
C301 H302 0.960 . S
H302 C301 0.960 . S
H303 N283 0.862 . S
O304 Co272 1.920 . S
O304 C277 1.289 . S
C305 O297 1.258 . S
C305 O298 1.266 . S
Co306 O309 1.970 . S
Co306 N323 1.989 . S
Co306 O331 1.967 . S
Co306 O338 1.920 . S
Co307 O310 1.966 . S
Co307 N316 2.022 . S
Co307 N324 1.993 . S
Co307 O332 1.941 . S
C308 O309 1.258 . S
C308 O310 1.263 . S
O309 Co306 1.970 . S
O309 C308 1.258 . S
O310 Co307 1.966 . S
O310 C308 1.263 . S
C311 O312 1.235 . S
C311 O338 1.289 . S
O312 C311 1.235 . S
C313 C315 1.400 . S
C313 N316 1.351 . S
C313 C318 1.501 . S
C314 C315 1.387 . S
C314 N317 1.341 . S
C315 C313 1.400 . S
C315 C314 1.387 . S
N316 Co307 2.022 . S
N316 C313 1.351 . S
N316 N317 1.365 . S
N317 C314 1.341 . S
N317 N316 1.365 . S
N317 H337 0.862 . S
C318 C313 1.501 . S
C318 H319 0.961 . S
C318 H320 0.961 . S
C318 H321 0.960 . S
H319 C318 0.961 . S
H320 C318 0.961 . S
H321 C318 0.960 . S
C322 N323 1.342 . S
C322 C326 1.401 . S
C322 C327 1.499 . S
N323 Co306 1.989 . S
N323 C322 1.342 . S
N323 N324 1.388 . S
N324 Co307 1.993 . S
N324 N323 1.388 . S
N324 C325 1.346 . S
C325 N324 1.346 . S
C325 C326 1.396 . S
C325 C335 1.510 . S
C326 C322 1.401 . S
C326 C325 1.396 . S
C327 C322 1.499 . S
C327 H328 0.959 . S
C327 H329 0.960 . S
C327 H330 0.961 . S
H328 C327 0.959 . S
H329 C327 0.960 . S
H330 C327 0.961 . S
O331 Co306 1.967 . S
O331 C339 1.258 . S
O332 Co307 1.941 . S
O332 C339 1.266 . S
H333 C335 0.959 . S
H334 C335 0.961 . S
C335 C325 1.510 . S
C335 H333 0.959 . S
C335 H334 0.961 . S
C335 H336 0.960 . S
H336 C335 0.960 . S
H337 N317 0.862 . S
O338 Co306 1.920 . S
O338 C311 1.289 . S
C339 O331 1.258 . S
C339 O332 1.266 . S
Co340 O343 1.970 . S
Co340 N357 1.989 . S
Co340 O365 1.967 . S
Co340 O372 1.920 . S
Co341 O344 1.966 . S
Co341 N350 2.022 . S
Co341 N358 1.993 . S
Co341 O366 1.941 . S
C342 O343 1.258 . S
C342 O344 1.263 . S
O343 Co340 1.970 . S
O343 C342 1.258 . S
O344 Co341 1.966 . S
O344 C342 1.263 . S
C345 O346 1.235 . S
C345 O372 1.289 . S
O346 C345 1.235 . S
C347 C349 1.400 . S
C347 N350 1.351 . S
C347 C352 1.501 . S
C348 C349 1.387 . S
C348 N351 1.341 . S
C349 C347 1.400 . S
C349 C348 1.387 . S
N350 Co341 2.022 . S
N350 C347 1.351 . S
N350 N351 1.365 . S
N351 C348 1.341 . S
N351 N350 1.365 . S
N351 H371 0.862 . S
C352 C347 1.501 . S
C352 H353 0.961 . S
C352 H354 0.961 1_455 S
C352 H355 0.960 . S
H353 C352 0.961 . S
H354 C352 0.961 1_655 S
H355 C352 0.960 . S
C356 N357 1.342 . S
C356 C360 1.401 . S
C356 C361 1.499 . S
N357 Co340 1.989 . S
N357 C356 1.342 . S
N357 N358 1.388 . S
N358 Co341 1.993 . S
N358 N357 1.388 . S
N358 C359 1.346 . S
C359 N358 1.346 . S
C359 C360 1.396 . S
C359 C369 1.510 . S
C360 C356 1.401 . S
C360 C359 1.396 . S
C361 C356 1.499 . S
C361 H362 0.959 . S
C361 H363 0.960 . S
C361 H364 0.961 . S
H362 C361 0.959 . S
H363 C361 0.960 . S
H364 C361 0.961 . S
O365 Co340 1.967 . S
O365 C373 1.258 . S
O366 Co341 1.941 . S
O366 C373 1.266 . S
H367 C369 0.959 . S
H368 C369 0.961 . S
C369 C359 1.510 . S
C369 H367 0.959 . S
C369 H368 0.961 . S
C369 H370 0.960 . S
H370 C369 0.960 . S
H371 N351 0.862 . S
O372 Co340 1.920 . S
O372 C345 1.289 . S
C373 O365 1.258 . S
C373 O366 1.266 . S
Co374 O377 1.970 . S
Co374 N391 1.989 . S
Co374 O399 1.967 . S
Co374 O406 1.920 . S
Co375 O378 1.966 . S
Co375 N384 2.022 . S
Co375 N392 1.993 . S
Co375 O400 1.941 . S
C376 O377 1.258 . S
C376 O378 1.263 . S
O377 Co374 1.970 . S
O377 C376 1.258 . S
O378 Co375 1.966 . S
O378 C376 1.263 . S
C379 O380 1.235 . S
C379 O406 1.289 . S
O380 C379 1.235 . S
C381 C383 1.400 . S
C381 N384 1.351 . S
C381 C386 1.501 . S
C382 C383 1.387 . S
C382 N385 1.341 . S
C383 C381 1.400 . S
C383 C382 1.387 . S
N384 Co375 2.022 . S
N384 C381 1.351 . S
N384 N385 1.365 . S
N385 C382 1.341 . S
N385 N384 1.365 . S
N385 H405 0.862 . S
C386 C381 1.501 . S
C386 H387 0.961 . S
C386 H388 0.961 1_545 S
C386 H389 0.960 . S
H387 C386 0.961 . S
H388 C386 0.961 1_565 S
H389 C386 0.960 . S
C390 N391 1.342 1_455 S
C390 C394 1.401 . S
C390 C395 1.499 . S
N391 Co374 1.989 . S
N391 C390 1.342 1_655 S
N391 N392 1.388 . S
N392 Co375 1.993 . S
N392 N391 1.388 . S
N392 C393 1.346 1_655 S
C393 N392 1.346 1_455 S
C393 C394 1.396 . S
C393 C403 1.510 . S
C394 C390 1.401 . S
C394 C393 1.396 . S
C395 C390 1.499 . S
C395 H396 0.959 . S
C395 H397 0.960 . S
C395 H398 0.961 . S
H396 C395 0.959 . S
H397 C395 0.960 . S
H398 C395 0.961 . S
O399 Co374 1.967 . S
O399 C407 1.258 . S
O400 Co375 1.941 . S
O400 C407 1.266 . S
H401 C403 0.959 . S
H402 C403 0.961 . S
C403 C393 1.510 . S
C403 H401 0.959 . S
C403 H402 0.961 . S
C403 H404 0.960 . S
H404 C403 0.960 . S
H405 N385 0.862 . S
O406 Co374 1.920 . S
O406 C379 1.289 . S
C407 O399 1.258 . S
C407 O400 1.266 . S
Co408 O411 1.970 . S
Co408 N425 1.989 . S
Co408 O433 1.967 . S
Co408 O440 1.920 . S
Co409 O412 1.966 . S
Co409 N418 2.022 . S
Co409 N426 1.993 . S
Co409 O434 1.941 . S
C410 O411 1.258 . S
C410 O412 1.263 . S
O411 Co408 1.970 . S
O411 C410 1.258 . S
O412 Co409 1.966 . S
O412 C410 1.263 . S
C413 O414 1.235 . S
C413 O440 1.289 . S
O414 C413 1.235 . S
C415 C417 1.400 . S
C415 N418 1.351 . S
C415 C420 1.501 . S
C416 C417 1.387 . S
C416 N419 1.341 . S
C417 C415 1.400 . S
C417 C416 1.387 . S
N418 Co409 2.022 . S
N418 C415 1.351 . S
N418 N419 1.365 . S
N419 C416 1.341 . S
N419 N418 1.365 . S
N419 H439 0.862 . S
C420 C415 1.501 . S
C420 H421 0.961 . S
C420 H422 0.961 . S
C420 H423 0.960 . S
H421 C420 0.961 . S
H422 C420 0.961 . S
H423 C420 0.960 . S
C424 N425 1.342 . S
C424 C428 1.401 . S
C424 C429 1.499 . S
N425 Co408 1.989 . S
N425 C424 1.342 . S
N425 N426 1.388 . S
N426 Co409 1.993 . S
N426 N425 1.388 . S
N426 C427 1.346 . S
C427 N426 1.346 . S
C427 C428 1.396 . S
C427 C437 1.510 . S
C428 C424 1.401 . S
C428 C427 1.396 . S
C429 C424 1.499 . S
C429 H430 0.959 . S
C429 H431 0.960 . S
C429 H432 0.961 . S
H430 C429 0.959 . S
H431 C429 0.960 . S
H432 C429 0.961 . S
O433 Co408 1.967 . S
O433 C441 1.258 . S
O434 Co409 1.941 . S
O434 C441 1.266 . S
H435 C437 0.959 . S
H436 C437 0.961 . S
C437 C427 1.510 . S
C437 H435 0.959 . S
C437 H436 0.961 . S
C437 H438 0.960 . S
H438 C437 0.960 . S
H439 N419 0.862 . S
O440 Co408 1.920 . S
O440 C413 1.289 . S
C441 O433 1.258 . S
C441 O434 1.266 . S
Co442 O445 1.970 . S
Co442 N459 1.989 . S
Co442 O467 1.967 . S
Co442 O474 1.920 . S
Co443 O446 1.966 . S
Co443 N452 2.022 . S
Co443 N460 1.993 . S
Co443 O468 1.941 . S
C444 O445 1.258 . S
C444 O446 1.263 . S
O445 Co442 1.970 . S
O445 C444 1.258 . S
O446 Co443 1.966 . S
O446 C444 1.263 . S
C447 O448 1.235 . S
C447 O474 1.289 . S
O448 C447 1.235 . S
C449 C451 1.400 . S
C449 N452 1.351 . S
C449 C454 1.501 . S
C450 C451 1.387 . S
C450 N453 1.341 . S
C451 C449 1.400 . S
C451 C450 1.387 . S
N452 Co443 2.022 . S
N452 C449 1.351 . S
N452 N453 1.365 . S
N453 C450 1.341 . S
N453 N452 1.365 . S
N453 H473 0.862 . S
C454 C449 1.501 . S
C454 H455 0.961 . S
C454 H456 0.961 . S
C454 H457 0.960 . S
H455 C454 0.961 . S
H456 C454 0.961 . S
H457 C454 0.960 . S
C458 N459 1.342 1_455 S
C458 C462 1.401 . S
C458 C463 1.499 . S
N459 Co442 1.989 . S
N459 C458 1.342 1_655 S
N459 N460 1.388 . S
N460 Co443 1.993 . S
N460 N459 1.388 . S
N460 C461 1.346 1_655 S
C461 N460 1.346 1_455 S
C461 C462 1.396 . S
C461 C471 1.510 . S
C462 C458 1.401 . S
C462 C461 1.396 . S
C463 C458 1.499 . S
C463 H464 0.959 . S
C463 H465 0.960 . S
C463 H466 0.961 . S
H464 C463 0.959 . S
H465 C463 0.960 . S
H466 C463 0.961 . S
O467 Co442 1.967 . S
O467 C475 1.258 . S
O468 Co443 1.941 . S
O468 C475 1.266 . S
H469 C471 0.959 . S
H470 C471 0.961 . S
C471 C461 1.510 . S
C471 H469 0.959 . S
C471 H470 0.961 . S
C471 H472 0.960 . S
H472 C471 0.960 . S
H473 N453 0.862 . S
O474 Co442 1.920 . S
O474 C447 1.289 . S
C475 O467 1.258 . S
C475 O468 1.266 . S
Co476 O479 1.970 . S
Co476 N493 1.989 . S
Co476 O501 1.967 . S
Co476 O508 1.920 . S
Co477 O480 1.966 . S
Co477 N486 2.022 . S
Co477 N494 1.993 . S
Co477 O502 1.941 . S
C478 O479 1.258 . S
C478 O480 1.263 . S
O479 Co476 1.970 . S
O479 C478 1.258 . S
O480 Co477 1.966 . S
O480 C478 1.263 . S
C481 O482 1.235 . S
C481 O508 1.289 . S
O482 C481 1.235 . S
C483 C485 1.400 . S
C483 N486 1.351 . S
C483 C488 1.501 . S
C484 C485 1.387 . S
C484 N487 1.341 . S
C485 C483 1.400 . S
C485 C484 1.387 . S
N486 Co477 2.022 . S
N486 C483 1.351 . S
N486 N487 1.365 . S
N487 C484 1.341 . S
N487 N486 1.365 . S
N487 H507 0.862 . S
C488 C483 1.501 . S
C488 H489 0.961 . S
C488 H490 0.961 1_455 S
C488 H491 0.960 . S
H489 C488 0.961 . S
H490 C488 0.961 1_655 S
H491 C488 0.960 . S
C492 N493 1.342 1_545 S
C492 C496 1.401 . S
C492 C497 1.499 . S
N493 Co476 1.989 . S
N493 C492 1.342 1_565 S
N493 N494 1.388 . S
N494 Co477 1.993 . S
N494 N493 1.388 . S
N494 C495 1.346 1_565 S
C495 N494 1.346 1_545 S
C495 C496 1.396 . S
C495 C505 1.510 . S
C496 C492 1.401 . S
C496 C495 1.396 . S
C497 C492 1.499 . S
C497 H498 0.959 . S
C497 H499 0.960 . S
C497 H500 0.961 . S
H498 C497 0.959 . S
H499 C497 0.960 . S
H500 C497 0.961 . S
O501 Co476 1.967 . S
O501 C509 1.258 . S
O502 Co477 1.941 . S
O502 C509 1.266 . S
H503 C505 0.959 . S
H504 C505 0.961 . S
C505 C495 1.510 . S
C505 H503 0.959 . S
C505 H504 0.961 . S
C505 H506 0.960 . S
H506 C505 0.960 . S
H507 N487 0.862 . S
O508 Co476 1.920 . S
O508 C481 1.289 . S
C509 O501 1.258 . S
C509 O502 1.266 . S
Co510 O513 1.970 . S
Co510 N527 1.989 . S
Co510 O535 1.967 . S
Co510 O542 1.920 . S
Co511 O514 1.966 . S
Co511 N520 2.022 . S
Co511 N528 1.993 . S
Co511 O536 1.941 . S
C512 O513 1.258 . S
C512 O514 1.263 . S
O513 Co510 1.970 . S
O513 C512 1.258 . S
O514 Co511 1.966 . S
O514 C512 1.263 . S
C515 O516 1.235 . S
C515 O542 1.289 . S
O516 C515 1.235 . S
C517 C519 1.400 . S
C517 N520 1.351 . S
C517 C522 1.501 . S
C518 C519 1.387 . S
C518 N521 1.341 . S
C519 C517 1.400 . S
C519 C518 1.387 . S
N520 Co511 2.022 . S
N520 C517 1.351 . S
N520 N521 1.365 . S
N521 C518 1.341 . S
N521 N520 1.365 . S
N521 H541 0.862 . S
C522 C517 1.501 . S
C522 H523 0.961 . S
C522 H524 0.961 1_545 S
C522 H525 0.960 . S
H523 C522 0.961 . S
H524 C522 0.961 1_565 S
H525 C522 0.960 . S
C526 N527 1.342 . S
C526 C530 1.401 . S
C526 C531 1.499 . S
N527 Co510 1.989 . S
N527 C526 1.342 . S
N527 N528 1.388 . S
N528 Co511 1.993 . S
N528 N527 1.388 . S
N528 C529 1.346 . S
C529 N528 1.346 . S
C529 C530 1.396 . S
C529 C539 1.510 . S
C530 C526 1.401 . S
C530 C529 1.396 . S
C531 C526 1.499 . S
C531 H532 0.959 . S
C531 H533 0.960 . S
C531 H534 0.961 . S
H532 C531 0.959 . S
H533 C531 0.960 . S
H534 C531 0.961 . S
O535 Co510 1.967 . S
O535 C543 1.258 . S
O536 Co511 1.941 . S
O536 C543 1.266 . S
H537 C539 0.959 . S
H538 C539 0.961 . S
C539 C529 1.510 . S
C539 H537 0.959 . S
C539 H538 0.961 . S
C539 H540 0.960 . S
H540 C539 0.960 . S
H541 N521 0.862 . S
O542 Co510 1.920 . S
O542 C515 1.289 . S
C543 O535 1.258 . S
C543 O536 1.266 . S
C544 C545 1.349 . S
C544 C546 1.327 . S
C544 H569 0.950 . S
C545 C544 1.349 . S
C545 C561 1.349 . S
C546 C544 1.327 . S
C546 C565 1.429 . S
C546 H570 0.950 . S
C547 C564 1.574 . S
C547 C566 1.368 1_565 S
C547 H571 0.949 . S
H548 C552 0.949 . S
C549 C550 1.349 . S
C549 C551 1.327 . S
C549 H572 0.950 . S
C550 C549 1.349 . S
C550 C562 1.349 1_565 S
C551 C549 1.327 . S
C551 C567 1.429 1_565 S
C551 H573 0.950 . S
C552 H548 0.949 . S
C552 C560 1.574 . S
C552 C568 1.368 . S
H553 C561 0.950 . S
H554 C559 0.950 1_565 S
H555 C560 0.949 . S
H556 C562 0.950 . S
H557 C563 0.950 . S
H558 C564 0.949 . S
C559 H554 0.950 1_545 S
C559 C561 1.327 . S
C559 C565 1.429 . S
C560 C552 1.574 . S
C560 H555 0.949 . S
C560 C566 1.368 . S
C561 C545 1.349 . S
C561 H553 0.950 . S
C561 C559 1.327 . S
C562 C550 1.349 1_545 S
C562 H556 0.950 . S
C562 C563 1.327 . S
C563 H557 0.950 . S
C563 C562 1.327 . S
C563 C567 1.429 . S
C564 C547 1.574 . S
C564 H558 0.949 . S
C564 C568 1.368 1_565 S
C565 C546 1.429 . S
C565 C559 1.429 . S
C565 C566 1.523 . S
C566 C547 1.368 1_545 S
C566 C560 1.368 . S
C566 C565 1.523 . S
C567 C551 1.429 1_545 S
C567 C563 1.429 . S
C567 C568 1.523 . S
C568 C552 1.368 . S
C568 C564 1.368 1_545 S
C568 C567 1.523 . S
H569 C544 0.950 . S
H570 C546 0.950 . S
H571 C547 0.949 . S
H572 C549 0.950 . S
H573 C551 0.950 . S
C574 C575 1.349 . S
C574 C576 1.327 . S
C574 H599 0.950 . S
C575 C574 1.349 . S
C575 C591 1.349 . S
C576 C574 1.327 . S
C576 C595 1.429 . S
C576 H600 0.950 . S
C577 C594 1.574 . S
C577 C596 1.368 . S
C577 H601 0.949 . S
H578 C582 0.949 . S
C579 C580 1.349 . S
C579 C581 1.327 . S
C579 H602 0.950 . S
C580 C579 1.349 . S
C580 C592 1.349 . S
C581 C579 1.327 . S
C581 C597 1.429 . S
C581 H603 0.950 . S
C582 H578 0.949 . S
C582 C590 1.574 . S
C582 C598 1.368 . S
H583 C591 0.950 . S
H584 C589 0.950 . S
H585 C590 0.949 . S
H586 C592 0.950 . S
H587 C593 0.950 . S
H588 C594 0.949 . S
C589 H584 0.950 . S
C589 C591 1.327 . S
C589 C595 1.429 . S
C590 C582 1.574 . S
C590 H585 0.949 . S
C590 C596 1.368 . S
C591 C575 1.349 . S
C591 H583 0.950 . S
C591 C589 1.327 . S
C592 C580 1.349 . S
C592 H586 0.950 . S
C592 C593 1.327 . S
C593 H587 0.950 . S
C593 C592 1.327 . S
C593 C597 1.429 . S
C594 C577 1.574 . S
C594 H588 0.949 . S
C594 C598 1.368 . S
C595 C576 1.429 . S
C595 C589 1.429 . S
C595 C596 1.523 . S
C596 C577 1.368 . S
C596 C590 1.368 . S
C596 C595 1.523 . S
C597 C581 1.429 . S
C597 C593 1.429 . S
C597 C598 1.523 . S
C598 C582 1.368 . S
C598 C594 1.368 . S
C598 C597 1.523 . S
H599 C574 0.950 . S
H600 C576 0.950 . S
H601 C577 0.949 . S
H602 C579 0.950 . S
H603 C581 0.950 . S
C604 C605 1.349 . S
C604 C606 1.327 . S
C604 H629 0.950 . S
C605 C604 1.349 . S
C605 C621 1.349 1_655 S
C606 C604 1.327 . S
C606 C625 1.429 1_655 S
C606 H630 0.950 . S
C607 C624 1.574 . S
C607 C626 1.368 . S
C607 H631 0.949 . S
H608 C612 0.949 1_655 S
C609 C610 1.349 . S
C609 C611 1.327 . S
C609 H632 0.950 . S
C610 C609 1.349 . S
C610 C622 1.349 . S
C611 C609 1.327 . S
C611 C627 1.429 . S
C611 H633 0.950 . S
C612 H608 0.949 1_455 S
C612 C620 1.574 1_455 S
C612 C628 1.368 . S
H613 C621 0.950 . S
H614 C619 0.950 . S
H615 C620 0.949 . S
H616 C622 0.950 . S
H617 C623 0.950 . S
H618 C624 0.949 . S
C619 H614 0.950 . S
C619 C621 1.327 . S
C619 C625 1.429 . S
C620 C612 1.574 1_655 S
C620 H615 0.949 . S
C620 C626 1.368 1_655 S
C621 C605 1.349 1_455 S
C621 H613 0.950 . S
C621 C619 1.327 . S
C622 C610 1.349 . S
C622 H616 0.950 . S
C622 C623 1.327 . S
C623 H617 0.950 . S
C623 C622 1.327 . S
C623 C627 1.429 . S
C624 C607 1.574 . S
C624 H618 0.949 . S
C624 C628 1.368 . S
C625 C606 1.429 1_455 S
C625 C619 1.429 . S
C625 C626 1.523 . S
C626 C607 1.368 . S
C626 C620 1.368 1_455 S
C626 C625 1.523 . S
C627 C611 1.429 . S
C627 C623 1.429 . S
C627 C628 1.523 . S
C628 C612 1.368 . S
C628 C624 1.368 . S
C628 C627 1.523 . S
H629 C604 0.950 . S
H630 C606 0.950 . S
H631 C607 0.949 . S
H632 C609 0.950 . S
H633 C611 0.950 . S
C634 C635 1.349 . S
C634 C636 1.327 . S
C634 H659 0.950 . S
C635 C634 1.349 . S
C635 C651 1.349 1_565 S
C636 C634 1.327 . S
C636 C655 1.429 1_565 S
C636 H660 0.950 . S
C637 C654 1.574 1_455 S
C637 C656 1.368 . S
C637 H661 0.949 1_455 S
H638 C642 0.949 . S
C639 C640 1.349 . S
C639 C641 1.327 . S
C639 H662 0.950 . S
C640 C639 1.349 . S
C640 C652 1.349 1_655 S
C641 C639 1.327 . S
C641 C657 1.429 1_655 S
C641 H663 0.950 . S
C642 H638 0.949 . S
C642 C650 1.574 . S
C642 C658 1.368 1_565 S
H643 C651 0.950 . S
H644 C649 0.950 . S
H645 C650 0.949 . S
H646 C652 0.950 . S
H647 C653 0.950 1_565 S
H648 C654 0.949 . S
C649 H644 0.950 . S
C649 C651 1.327 . S
C649 C655 1.429 . S
C650 C642 1.574 . S
C650 H645 0.949 . S
C650 C656 1.368 1_565 S
C651 C635 1.349 1_545 S
C651 H643 0.950 . S
C651 C649 1.327 . S
C652 C640 1.349 1_455 S
C652 H646 0.950 . S
C652 C653 1.327 . S
C653 H647 0.950 1_545 S
C653 C652 1.327 . S
C653 C657 1.429 . S
C654 C637 1.574 1_655 S
C654 H648 0.949 . S
C654 C658 1.368 1_655 S
C655 C636 1.429 1_545 S
C655 C649 1.429 . S
C655 C656 1.523 . S
C656 C637 1.368 . S
C656 C650 1.368 1_545 S
C656 C655 1.523 . S
C657 C641 1.429 1_455 S
C657 C653 1.429 . S
C657 C658 1.523 . S
C658 C642 1.368 1_545 S
C658 C654 1.368 1_455 S
C658 C657 1.523 . S
H659 C634 0.950 . S
H660 C636 0.950 . S
H661 C637 0.949 1_655 S
H662 C639 0.950 . S
H663 C641 0.950 . S
C664 C665 1.349 . S
C664 C666 1.327 . S
C664 H689 0.950 . S
C665 C664 1.349 . S
C665 C681 1.349 . S
C666 C664 1.327 . S
C666 C685 1.429 . S
C666 H690 0.950 . S
C667 C684 1.574 . S
C667 C686 1.368 1_545 S
C667 H691 0.949 . S
H668 C672 0.949 . S
C669 C670 1.349 . S
C669 C671 1.327 . S
C669 H692 0.950 . S
C670 C669 1.349 . S
C670 C682 1.349 1_545 S
C671 C669 1.327 . S
C671 C687 1.429 . S
C671 H693 0.950 . S
C672 H668 0.949 . S
C672 C680 1.574 . S
C672 C688 1.368 . S
H673 C681 0.950 . S
H674 C679 0.950 1_545 S
H675 C680 0.949 . S
H676 C682 0.950 . S
H677 C683 0.950 . S
H678 C684 0.949 . S
C679 H674 0.950 1_565 S
C679 C681 1.327 . S
C679 C685 1.429 . S
C680 C672 1.574 . S
C680 H675 0.949 . S
C680 C686 1.368 . S
C681 C665 1.349 . S
C681 H673 0.950 . S
C681 C679 1.327 . S
C682 C670 1.349 1_565 S
C682 H676 0.950 . S
C682 C683 1.327 . S
C683 H677 0.950 . S
C683 C682 1.327 . S
C683 C687 1.429 1_565 S
C684 C667 1.574 . S
C684 H678 0.949 . S
C684 C688 1.368 1_545 S
C685 C666 1.429 . S
C685 C679 1.429 . S
C685 C686 1.523 . S
C686 C667 1.368 1_565 S
C686 C680 1.368 . S
C686 C685 1.523 . S
C687 C671 1.429 . S
C687 C683 1.429 1_545 S
C687 C688 1.523 1_545 S
C688 C672 1.368 . S
C688 C684 1.368 1_565 S
C688 C687 1.523 1_565 S
H689 C664 0.950 . S
H690 C666 0.950 . S
H691 C667 0.949 . S
H692 C669 0.950 . S
H693 C671 0.950 . S
C694 C695 1.349 . S
C694 C696 1.327 . S
C694 H719 0.950 . S
C695 C694 1.349 . S
C695 C711 1.349 . S
C696 C694 1.327 . S
C696 C715 1.429 . S
C696 H720 0.950 . S
C697 C714 1.574 . S
C697 C716 1.368 . S
C697 H721 0.949 . S
H698 C702 0.949 . S
C699 C700 1.349 . S
C699 C701 1.327 . S
C699 H722 0.950 . S
C700 C699 1.349 . S
C700 C712 1.349 . S
C701 C699 1.327 . S
C701 C717 1.429 . S
C701 H723 0.950 . S
C702 H698 0.949 . S
C702 C710 1.574 . S
C702 C718 1.368 . S
H703 C711 0.950 . S
H704 C709 0.950 . S
H705 C710 0.949 . S
H706 C712 0.950 . S
H707 C713 0.950 . S
H708 C714 0.949 . S
C709 H704 0.950 . S
C709 C711 1.327 . S
C709 C715 1.429 . S
C710 C702 1.574 . S
C710 H705 0.949 . S
C710 C716 1.368 . S
C711 C695 1.349 . S
C711 H703 0.950 . S
C711 C709 1.327 . S
C712 C700 1.349 . S
C712 H706 0.950 . S
C712 C713 1.327 . S
C713 H707 0.950 . S
C713 C712 1.327 . S
C713 C717 1.429 . S
C714 C697 1.574 . S
C714 H708 0.949 . S
C714 C718 1.368 . S
C715 C696 1.429 . S
C715 C709 1.429 . S
C715 C716 1.523 . S
C716 C697 1.368 . S
C716 C710 1.368 . S
C716 C715 1.523 . S
C717 C701 1.429 . S
C717 C713 1.429 . S
C717 C718 1.523 . S
C718 C702 1.368 . S
C718 C714 1.368 . S
C718 C717 1.523 . S
H719 C694 0.950 . S
H720 C696 0.950 . S
H721 C697 0.949 . S
H722 C699 0.950 . S
H723 C701 0.950 . S
C724 C725 1.349 . S
C724 C726 1.327 . S
C724 H749 0.950 . S
C725 C724 1.349 . S
C725 C741 1.349 . S
C726 C724 1.327 . S
C726 C745 1.429 . S
C726 H750 0.950 . S
C727 C744 1.574 . S
C727 C746 1.368 . S
C727 H751 0.949 . S
H728 C732 0.949 . S
C729 C730 1.349 . S
C729 C731 1.327 . S
C729 H752 0.950 . S
C730 C729 1.349 . S
C730 C742 1.349 . S
C731 C729 1.327 . S
C731 C747 1.429 . S
C731 H753 0.950 . S
C732 H728 0.949 . S
C732 C740 1.574 . S
C732 C748 1.368 1_455 S
H733 C741 0.950 1_655 S
H734 C739 0.950 . S
H735 C740 0.949 . S
H736 C742 0.950 . S
H737 C743 0.950 . S
H738 C744 0.949 . S
C739 H734 0.950 . S
C739 C741 1.327 1_655 S
C739 C745 1.429 1_655 S
C740 C732 1.574 . S
C740 H735 0.949 . S
C740 C746 1.368 1_455 S
C741 C725 1.349 . S
C741 H733 0.950 1_455 S
C741 C739 1.327 1_455 S
C742 C730 1.349 . S
C742 H736 0.950 . S
C742 C743 1.327 . S
C743 H737 0.950 . S
C743 C742 1.327 . S
C743 C747 1.429 . S
C744 C727 1.574 . S
C744 H738 0.949 . S
C744 C748 1.368 . S
C745 C726 1.429 . S
C745 C739 1.429 1_455 S
C745 C746 1.523 1_455 S
C746 C727 1.368 . S
C746 C740 1.368 1_655 S
C746 C745 1.523 1_655 S
C747 C731 1.429 . S
C747 C743 1.429 . S
C747 C748 1.523 . S
C748 C732 1.368 1_655 S
C748 C744 1.368 . S
C748 C747 1.523 . S
H749 C724 0.950 . S
H750 C726 0.950 . S
H751 C727 0.949 . S
H752 C729 0.950 . S
H753 C731 0.950 . S
C754 C755 1.349 1_655 S
C754 C756 1.327 . S
C754 H779 0.950 . S
C755 C754 1.349 1_455 S
C755 C771 1.349 . S
C756 C754 1.327 . S
C756 C775 1.429 1_655 S
C756 H780 0.950 1_565 S
C757 C774 1.574 . S
C757 C776 1.368 1_455 S
C757 H781 0.949 . S
H758 C762 0.949 . S
C759 C760 1.349 1_565 S
C759 C761 1.327 . S
C759 H782 0.950 . S
C760 C759 1.349 1_545 S
C760 C772 1.349 . S
C761 C759 1.327 . S
C761 C777 1.429 1_565 S
C761 H783 0.950 1_655 S
C762 H758 0.949 . S
C762 C770 1.574 . S
C762 C778 1.368 1_545 S
H763 C771 0.950 . S
H764 C769 0.950 . S
H765 C770 0.949 . S
H766 C772 0.950 . S
H767 C773 0.950 . S
H768 C774 0.949 . S
C769 H764 0.950 . S
C769 C771 1.327 . S
C769 C775 1.429 . S
C770 C762 1.574 . S
C770 H765 0.949 . S
C770 C776 1.368 1_545 S
C771 C755 1.349 . S
C771 H763 0.950 . S
C771 C769 1.327 . S
C772 C760 1.349 . S
C772 H766 0.950 . S
C772 C773 1.327 . S
C773 H767 0.950 . S
C773 C772 1.327 . S
C773 C777 1.429 . S
C774 C757 1.574 . S
C774 H768 0.949 . S
C774 C778 1.368 1_455 S
C775 C756 1.429 1_455 S
C775 C769 1.429 . S
C775 C776 1.523 1_455 S
C776 C757 1.368 1_655 S
C776 C770 1.368 1_565 S
C776 C775 1.523 1_655 S
C777 C761 1.429 1_545 S
C777 C773 1.429 . S
C777 C778 1.523 1_545 S
C778 C762 1.368 1_565 S
C778 C774 1.368 1_655 S
C778 C777 1.523 1_565 S
H779 C754 0.950 . S
H780 C756 0.950 1_545 S
H781 C757 0.949 . S
H782 C759 0.950 . S
H783 C761 0.950 1_455 S
C784 C785 1.349 . S
C784 C786 1.327 . S
C784 H809 0.950 . S
C785 C784 1.349 . S
C785 C801 1.349 . S
C786 C784 1.327 . S
C786 C805 1.429 . S
C786 H810 0.950 . S
C787 C804 1.574 . S
C787 C806 1.368 . S
C787 H811 0.949 . S
H788 C792 0.949 . S
C789 C790 1.349 . S
C789 C791 1.327 . S
C789 H812 0.950 . S
C790 C789 1.349 . S
C790 C802 1.349 . S
C791 C789 1.327 . S
C791 C807 1.429 . S
C791 H813 0.950 . S
C792 H788 0.949 . S
C792 C800 1.574 . S
C792 C808 1.368 . S
H793 C801 0.950 . S
H794 C799 0.950 . S
H795 C800 0.949 . S
H796 C802 0.950 . S
H797 C803 0.950 . S
H798 C804 0.949 . S
C799 H794 0.950 . S
C799 C801 1.327 . S
C799 C805 1.429 . S
C800 C792 1.574 . S
C800 H795 0.949 . S
C800 C806 1.368 . S
C801 C785 1.349 . S
C801 H793 0.950 . S
C801 C799 1.327 . S
C802 C790 1.349 . S
C802 H796 0.950 . S
C802 C803 1.327 . S
C803 H797 0.950 . S
C803 C802 1.327 . S
C803 C807 1.429 . S
C804 C787 1.574 . S
C804 H798 0.949 . S
C804 C808 1.368 . S
C805 C786 1.429 . S
C805 C799 1.429 . S
C805 C806 1.523 . S
C806 C787 1.368 . S
C806 C800 1.368 . S
C806 C805 1.523 . S
C807 C791 1.429 . S
C807 C803 1.429 . S
C807 C808 1.523 . S
C808 C792 1.368 . S
C808 C804 1.368 . S
C808 C807 1.523 . S
H809 C784 0.950 . S
H810 C786 0.950 . S
H811 C787 0.949 . S
H812 C789 0.950 . S
H813 C791 0.950 . S
C814 C815 1.349 . S
C814 C816 1.327 . S
C814 H839 0.950 . S
C815 C814 1.349 . S
C815 C831 1.349 . S
C816 C814 1.327 . S
C816 C835 1.429 . S
C816 H840 0.950 . S
C817 C834 1.574 . S
C817 C836 1.368 . S
C817 H841 0.949 . S
H818 C822 0.949 . S
C819 C820 1.349 . S
C819 C821 1.327 . S
C819 H842 0.950 . S
C820 C819 1.349 . S
C820 C832 1.349 . S
C821 C819 1.327 . S
C821 C837 1.429 . S
C821 H843 0.950 . S
C822 H818 0.949 . S
C822 C830 1.574 . S
C822 C838 1.368 . S
H823 C831 0.950 . S
H824 C829 0.950 . S
H825 C830 0.949 . S
H826 C832 0.950 . S
H827 C833 0.950 . S
H828 C834 0.949 . S
C829 H824 0.950 . S
C829 C831 1.327 . S
C829 C835 1.429 . S
C830 C822 1.574 . S
C830 H825 0.949 . S
C830 C836 1.368 . S
C831 C815 1.349 . S
C831 H823 0.950 . S
C831 C829 1.327 . S
C832 C820 1.349 . S
C832 H826 0.950 . S
C832 C833 1.327 . S
C833 H827 0.950 . S
C833 C832 1.327 . S
C833 C837 1.429 . S
C834 C817 1.574 . S
C834 H828 0.949 . S
C834 C838 1.368 . S
C835 C816 1.429 . S
C835 C829 1.429 . S
C835 C836 1.523 . S
C836 C817 1.368 . S
C836 C830 1.368 . S
C836 C835 1.523 . S
C837 C821 1.429 . S
C837 C833 1.429 . S
C837 C838 1.523 . S
C838 C822 1.368 . S
C838 C834 1.368 . S
C838 C837 1.523 . S
H839 C814 0.950 . S
H840 C816 0.950 . S
H841 C817 0.949 . S
H842 C819 0.950 . S
H843 C821 0.950 . S
C844 C845 1.349 . S
C844 C846 1.327 . S
C844 H869 0.950 . S
C845 C844 1.349 . S
C845 C861 1.349 . S
C846 C844 1.327 . S
C846 C865 1.429 . S
C846 H870 0.950 . S
C847 C864 1.574 . S
C847 C866 1.368 . S
C847 H871 0.949 . S
H848 C852 0.949 . S
C849 C850 1.349 . S
C849 C851 1.327 . S
C849 H872 0.950 . S
C850 C849 1.349 . S
C850 C862 1.349 . S
C851 C849 1.327 . S
C851 C867 1.429 . S
C851 H873 0.950 . S
C852 H848 0.949 . S
C852 C860 1.574 . S
C852 C868 1.368 . S
H853 C861 0.950 . S
H854 C859 0.950 . S
H855 C860 0.949 . S
H856 C862 0.950 . S
H857 C863 0.950 . S
H858 C864 0.949 . S
C859 H854 0.950 . S
C859 C861 1.327 . S
C859 C865 1.429 . S
C860 C852 1.574 . S
C860 H855 0.949 . S
C860 C866 1.368 . S
C861 C845 1.349 . S
C861 H853 0.950 . S
C861 C859 1.327 . S
C862 C850 1.349 . S
C862 H856 0.950 . S
C862 C863 1.327 . S
C863 H857 0.950 . S
C863 C862 1.327 . S
C863 C867 1.429 . S
C864 C847 1.574 . S
C864 H858 0.949 . S
C864 C868 1.368 . S
C865 C846 1.429 . S
C865 C859 1.429 . S
C865 C866 1.523 . S
C866 C847 1.368 . S
C866 C860 1.368 . S
C866 C865 1.523 . S
C867 C851 1.429 . S
C867 C863 1.429 . S
C867 C868 1.523 . S
C868 C852 1.368 . S
C868 C864 1.368 . S
C868 C867 1.523 . S
H869 C844 0.950 . S
H870 C846 0.950 . S
H871 C847 0.949 . S
H872 C849 0.950 . S
H873 C851 0.950 . S
C874 C875 1.349 . S
C874 C876 1.327 . S
C874 H899 0.950 . S
C875 C874 1.349 . S
C875 C891 1.349 . S
C876 C874 1.327 . S
C876 C895 1.429 . S
C876 H900 0.950 . S
C877 C894 1.574 . S
C877 C896 1.368 . S
C877 H901 0.949 . S
H878 C882 0.949 . S
C879 C880 1.349 . S
C879 C881 1.327 . S
C879 H902 0.950 . S
C880 C879 1.349 . S
C880 C892 1.349 . S
C881 C879 1.327 . S
C881 C897 1.429 . S
C881 H903 0.950 . S
C882 H878 0.949 . S
C882 C890 1.574 . S
C882 C898 1.368 . S
H883 C891 0.950 . S
H884 C889 0.950 . S
H885 C890 0.949 . S
H886 C892 0.950 . S
H887 C893 0.950 . S
H888 C894 0.949 . S
C889 H884 0.950 . S
C889 C891 1.327 . S
C889 C895 1.429 . S
C890 C882 1.574 . S
C890 H885 0.949 . S
C890 C896 1.368 . S
C891 C875 1.349 . S
C891 H883 0.950 . S
C891 C889 1.327 . S
C892 C880 1.349 . S
C892 H886 0.950 . S
C892 C893 1.327 . S
C893 H887 0.950 . S
C893 C892 1.327 . S
C893 C897 1.429 . S
C894 C877 1.574 . S
C894 H888 0.949 . S
C894 C898 1.368 . S
C895 C876 1.429 . S
C895 C889 1.429 . S
C895 C896 1.523 . S
C896 C877 1.368 . S
C896 C890 1.368 . S
C896 C895 1.523 . S
C897 C881 1.429 . S
C897 C893 1.429 . S
C897 C898 1.523 . S
C898 C882 1.368 . S
C898 C894 1.368 . S
C898 C897 1.523 . S
H899 C874 0.950 . S
H900 C876 0.950 . S
H901 C877 0.949 . S
H902 C879 0.950 . S
H903 C881 0.950 . S
C904 C905 1.349 . S
C904 C906 1.327 . S
C904 H929 0.950 . S
C905 C904 1.349 . S
C905 C921 1.349 . S
C906 C904 1.327 . S
C906 C925 1.429 . S
C906 H930 0.950 . S
C907 C924 1.574 . S
C907 C926 1.368 . S
C907 H931 0.949 . S
H908 C912 0.949 . S
C909 C910 1.349 . S
C909 C911 1.327 . S
C909 H932 0.950 . S
C910 C909 1.349 . S
C910 C922 1.349 . S
C911 C909 1.327 . S
C911 C927 1.429 . S
C911 H933 0.950 . S
C912 H908 0.949 . S
C912 C920 1.574 . S
C912 C928 1.368 . S
H913 C921 0.950 . S
H914 C919 0.950 . S
H915 C920 0.949 . S
H916 C922 0.950 . S
H917 C923 0.950 . S
H918 C924 0.949 . S
C919 H914 0.950 . S
C919 C921 1.327 . S
C919 C925 1.429 . S
C920 C912 1.574 . S
C920 H915 0.949 . S
C920 C926 1.368 . S
C921 C905 1.349 . S
C921 H913 0.950 . S
C921 C919 1.327 . S
C922 C910 1.349 . S
C922 H916 0.950 . S
C922 C923 1.327 . S
C923 H917 0.950 . S
C923 C922 1.327 . S
C923 C927 1.429 . S
C924 C907 1.574 . S
C924 H918 0.949 . S
C924 C928 1.368 . S
C925 C906 1.429 . S
C925 C919 1.429 . S
C925 C926 1.523 . S
C926 C907 1.368 . S
C926 C920 1.368 . S
C926 C925 1.523 . S
C927 C911 1.429 . S
C927 C923 1.429 . S
C927 C928 1.523 . S
C928 C912 1.368 . S
C928 C924 1.368 . S
C928 C927 1.523 . S
H929 C904 0.950 . S
H930 C906 0.950 . S
H931 C907 0.949 . S
H932 C909 0.950 . S
H933 C911 0.950 . S
C934 C935 1.349 . S
C934 C936 1.327 . S
C934 H959 0.950 . S
C935 C934 1.349 . S
C935 C951 1.349 . S
C936 C934 1.327 . S
C936 C955 1.429 . S
C936 H960 0.950 . S
C937 C954 1.574 . S
C937 C956 1.368 . S
C937 H961 0.949 . S
H938 C942 0.949 . S
C939 C940 1.349 . S
C939 C941 1.327 . S
C939 H962 0.950 . S
C940 C939 1.349 . S
C940 C952 1.349 . S
C941 C939 1.327 . S
C941 C957 1.429 . S
C941 H963 0.950 . S
C942 H938 0.949 . S
C942 C950 1.574 . S
C942 C958 1.368 . S
H943 C951 0.950 . S
H944 C949 0.950 . S
H945 C950 0.949 . S
H946 C952 0.950 . S
H947 C953 0.950 . S
H948 C954 0.949 . S
C949 H944 0.950 . S
C949 C951 1.327 . S
C949 C955 1.429 . S
C950 C942 1.574 . S
C950 H945 0.949 . S
C950 C956 1.368 . S
C951 C935 1.349 . S
C951 H943 0.950 . S
C951 C949 1.327 . S
C952 C940 1.349 . S
C952 H946 0.950 . S
C952 C953 1.327 . S
C953 H947 0.950 . S
C953 C952 1.327 . S
C953 C957 1.429 . S
C954 C937 1.574 . S
C954 H948 0.949 . S
C954 C958 1.368 . S
C955 C936 1.429 . S
C955 C949 1.429 . S
C955 C956 1.523 . S
C956 C937 1.368 . S
C956 C950 1.368 . S
C956 C955 1.523 . S
C957 C941 1.429 . S
C957 C953 1.429 . S
C957 C958 1.523 . S
C958 C942 1.368 . S
C958 C954 1.368 . S
C958 C957 1.523 . S
H959 C934 0.950 . S
H960 C936 0.950 . S
H961 C937 0.949 . S
H962 C939 0.950 . S
H963 C941 0.950 . S
C964 C965 1.349 . S
C964 C966 1.327 . S
C964 H989 0.950 . S
C965 C964 1.349 . S
C965 C981 1.349 . S
C966 C964 1.327 . S
C966 C985 1.429 . S
C966 H990 0.950 . S
C967 C984 1.574 . S
C967 C986 1.368 . S
C967 H991 0.949 . S
H968 C972 0.949 . S
C969 C970 1.349 . S
C969 C971 1.327 . S
C969 H992 0.950 . S
C970 C969 1.349 . S
C970 C982 1.349 . S
C971 C969 1.327 . S
C971 C987 1.429 . S
C971 H993 0.950 . S
C972 H968 0.949 . S
C972 C980 1.574 . S
C972 C988 1.368 . S
H973 C981 0.950 . S
H974 C979 0.950 . S
H975 C980 0.949 . S
H976 C982 0.950 . S
H977 C983 0.950 . S
H978 C984 0.949 . S
C979 H974 0.950 . S
C979 C981 1.327 . S
C979 C985 1.429 . S
C980 C972 1.574 . S
C980 H975 0.949 . S
C980 C986 1.368 . S
C981 C965 1.349 . S
C981 H973 0.950 . S
C981 C979 1.327 . S
C982 C970 1.349 . S
C982 H976 0.950 . S
C982 C983 1.327 . S
C983 H977 0.950 . S
C983 C982 1.327 . S
C983 C987 1.429 . S
C984 C967 1.574 . S
C984 H978 0.949 . S
C984 C988 1.368 . S
C985 C966 1.429 . S
C985 C979 1.429 . S
C985 C986 1.523 . S
C986 C967 1.368 . S
C986 C980 1.368 . S
C986 C985 1.523 . S
C987 C971 1.429 . S
C987 C983 1.429 . S
C987 C988 1.523 . S
C988 C972 1.368 . S
C988 C984 1.368 . S
C988 C987 1.523 . S
H989 C964 0.950 . S
H990 C966 0.950 . S
H991 C967 0.949 . S
H992 C969 0.950 . S
H993 C971 0.950 . S
C994 C995 1.349 . S
C994 C996 1.327 . S
C994 H1019 0.950 . S
C995 C994 1.349 . S
C995 C1011 1.349 . S
C996 C994 1.327 . S
C996 C1015 1.429 . S
C996 H1020 0.950 . S
C997 C1014 1.574 . S
C997 C1016 1.368 . S
C997 H1021 0.949 . S
H998 C1002 0.949 . S
C999 C1000 1.349 . S
C999 C1001 1.327 . S
C999 H1022 0.950 . S
C1000 C999 1.349 . S
C1000 C1012 1.349 . S
C1001 C999 1.327 . S
C1001 C1017 1.429 . S
C1001 H1023 0.950 . S
C1002 H998 0.949 . S
C1002 C1010 1.574 . S
C1002 C1018 1.368 . S
H1003 C1011 0.950 . S
H1004 C1009 0.950 . S
H1005 C1010 0.949 . S
H1006 C1012 0.950 . S
H1007 C1013 0.950 . S
H1008 C1014 0.949 . S
C1009 H1004 0.950 . S
C1009 C1011 1.327 . S
C1009 C1015 1.429 . S
C1010 C1002 1.574 . S
C1010 H1005 0.949 . S
C1010 C1016 1.368 . S
C1011 C995 1.349 . S
C1011 H1003 0.950 . S
C1011 C1009 1.327 . S
C1012 C1000 1.349 . S
C1012 H1006 0.950 . S
C1012 C1013 1.327 . S
C1013 H1007 0.950 . S
C1013 C1012 1.327 . S
C1013 C1017 1.429 . S
C1014 C997 1.574 . S
C1014 H1008 0.949 . S
C1014 C1018 1.368 . S
C1015 C996 1.429 . S
C1015 C1009 1.429 . S
C1015 C1016 1.523 . S
C1016 C997 1.368 . S
C1016 C1010 1.368 . S
C1016 C1015 1.523 . S
C1017 C1001 1.429 . S
C1017 C1013 1.429 . S
C1017 C1018 1.523 . S
C1018 C1002 1.368 . S
C1018 C1014 1.368 . S
C1018 C1017 1.523 . S
H1019 C994 0.950 . S
H1020 C996 0.950 . S
H1021 C997 0.949 . S
H1022 C999 0.950 . S
H1023 C1001 0.950 . S
C1024 C1025 1.349 . S
C1024 C1026 1.327 . S
C1024 H1049 0.950 . S
C1025 C1024 1.349 . S
C1025 C1041 1.349 . S
C1026 C1024 1.327 . S
C1026 C1045 1.429 . S
C1026 H1050 0.950 . S
C1027 C1044 1.574 . S
C1027 C1046 1.368 . S
C1027 H1051 0.949 . S
H1028 C1032 0.949 . S
C1029 C1030 1.349 . S
C1029 C1031 1.327 . S
C1029 H1052 0.950 . S
C1030 C1029 1.349 . S
C1030 C1042 1.349 . S
C1031 C1029 1.327 . S
C1031 C1047 1.429 . S
C1031 H1053 0.950 . S
C1032 H1028 0.949 . S
C1032 C1040 1.574 . S
C1032 C1048 1.368 . S
H1033 C1041 0.950 . S
H1034 C1039 0.950 . S
H1035 C1040 0.949 . S
H1036 C1042 0.950 . S
H1037 C1043 0.950 . S
H1038 C1044 0.949 . S
C1039 H1034 0.950 . S
C1039 C1041 1.327 . S
C1039 C1045 1.429 . S
C1040 C1032 1.574 . S
C1040 H1035 0.949 . S
C1040 C1046 1.368 . S
C1041 C1025 1.349 . S
C1041 H1033 0.950 . S
C1041 C1039 1.327 . S
C1042 C1030 1.349 . S
C1042 H1036 0.950 . S
C1042 C1043 1.327 . S
C1043 H1037 0.950 . S
C1043 C1042 1.327 . S
C1043 C1047 1.429 . S
C1044 C1027 1.574 . S
C1044 H1038 0.949 . S
C1044 C1048 1.368 . S
C1045 C1026 1.429 . S
C1045 C1039 1.429 . S
C1045 C1046 1.523 . S
C1046 C1027 1.368 . S
C1046 C1040 1.368 . S
C1046 C1045 1.523 . S
C1047 C1031 1.429 . S
C1047 C1043 1.429 . S
C1047 C1048 1.523 . S
C1048 C1032 1.368 . S
C1048 C1044 1.368 . S
C1048 C1047 1.523 . S
H1049 C1024 0.950 . S
H1050 C1026 0.950 . S
H1051 C1027 0.949 . S
H1052 C1029 0.950 . S
H1053 C1031 0.950 . S
C1054 C1055 1.349 . S
C1054 C1056 1.327 . S
C1054 H1079 0.950 . S
C1055 C1054 1.349 . S
C1055 C1071 1.349 . S
C1056 C1054 1.327 . S
C1056 C1075 1.429 . S
C1056 H1080 0.950 . S
C1057 C1074 1.574 . S
C1057 C1076 1.368 . S
C1057 H1081 0.949 . S
H1058 C1062 0.949 . S
C1059 C1060 1.349 . S
C1059 C1061 1.327 . S
C1059 H1082 0.950 . S
C1060 C1059 1.349 . S
C1060 C1072 1.349 . S
C1061 C1059 1.327 . S
C1061 C1077 1.429 . S
C1061 H1083 0.950 . S
C1062 H1058 0.949 . S
C1062 C1070 1.574 . S
C1062 C1078 1.368 . S
H1063 C1071 0.950 . S
H1064 C1069 0.950 . S
H1065 C1070 0.949 . S
H1066 C1072 0.950 . S
H1067 C1073 0.950 . S
H1068 C1074 0.949 . S
C1069 H1064 0.950 . S
C1069 C1071 1.327 . S
C1069 C1075 1.429 . S
C1070 C1062 1.574 . S
C1070 H1065 0.949 . S
C1070 C1076 1.368 . S
C1071 C1055 1.349 . S
C1071 H1063 0.950 . S
C1071 C1069 1.327 . S
C1072 C1060 1.349 . S
C1072 H1066 0.950 . S
C1072 C1073 1.327 . S
C1073 H1067 0.950 . S
C1073 C1072 1.327 . S
C1073 C1077 1.429 . S
C1074 C1057 1.574 . S
C1074 H1068 0.949 . S
C1074 C1078 1.368 . S
C1075 C1056 1.429 . S
C1075 C1069 1.429 . S
C1075 C1076 1.523 . S
C1076 C1057 1.368 . S
C1076 C1070 1.368 . S
C1076 C1075 1.523 . S
C1077 C1061 1.429 . S
C1077 C1073 1.429 . S
C1077 C1078 1.523 . S
C1078 C1062 1.368 . S
C1078 C1074 1.368 . S
C1078 C1077 1.523 . S
H1079 C1054 0.950 . S
H1080 C1056 0.950 . S
H1081 C1057 0.949 . S
H1082 C1059 0.950 . S
H1083 C1061 0.950 . S
C1084 C1085 1.349 1_455 S
C1084 C1086 1.327 . S
C1084 H1109 0.950 . S
C1085 C1084 1.349 1_655 S
C1085 C1101 1.349 . S
C1086 C1084 1.327 . S
C1086 C1105 1.429 1_455 S
C1086 H1110 0.950 . S
C1087 C1104 1.574 . S
C1087 C1106 1.368 . S
C1087 H1111 0.949 . S
H1088 C1092 0.949 . S
C1089 C1090 1.349 1_655 S
C1089 C1091 1.327 . S
C1089 H1112 0.950 . S
C1090 C1089 1.349 1_455 S
C1090 C1102 1.349 . S
C1091 C1089 1.327 . S
C1091 C1107 1.429 1_655 S
C1091 H1113 0.950 . S
C1092 H1088 0.949 . S
C1092 C1100 1.574 . S
C1092 C1108 1.368 . S
H1093 C1101 0.950 . S
H1094 C1099 0.950 . S
H1095 C1100 0.949 . S
H1096 C1102 0.950 . S
H1097 C1103 0.950 . S
H1098 C1104 0.949 . S
C1099 H1094 0.950 . S
C1099 C1101 1.327 . S
C1099 C1105 1.429 . S
C1100 C1092 1.574 . S
C1100 H1095 0.949 . S
C1100 C1106 1.368 1_455 S
C1101 C1085 1.349 . S
C1101 H1093 0.950 . S
C1101 C1099 1.327 . S
C1102 C1090 1.349 . S
C1102 H1096 0.950 . S
C1102 C1103 1.327 . S
C1103 H1097 0.950 . S
C1103 C1102 1.327 . S
C1103 C1107 1.429 . S
C1104 C1087 1.574 . S
C1104 H1098 0.949 . S
C1104 C1108 1.368 1_655 S
C1105 C1086 1.429 1_655 S
C1105 C1099 1.429 . S
C1105 C1106 1.523 . S
C1106 C1087 1.368 . S
C1106 C1100 1.368 1_655 S
C1106 C1105 1.523 . S
C1107 C1091 1.429 1_455 S
C1107 C1103 1.429 . S
C1107 C1108 1.523 . S
C1108 C1092 1.368 . S
C1108 C1104 1.368 1_455 S
C1108 C1107 1.523 . S
H1109 C1084 0.950 . S
H1110 C1086 0.950 . S
H1111 C1087 0.949 . S
H1112 C1089 0.950 . S
H1113 C1091 0.950 . S
C1114 C1115 1.357 . S
C1114 C1116 1.325 1_545 S
C1114 H1139 0.944 1_545 S
C1115 C1114 1.357 . S
C1115 C1131 1.349 . S
C1116 C1114 1.325 1_565 S
C1116 C1135 1.429 1_565 S
C1116 H1140 0.950 . S
C1117 C1134 1.574 . S
C1117 C1136 1.368 . S
C1117 H1141 0.949 . S
H1118 C1122 0.949 . S
C1119 C1120 1.349 . S
C1119 C1121 1.327 1_565 S
C1119 H1142 0.950 1_565 S
C1120 C1119 1.349 . S
C1120 C1132 1.349 . S
C1121 C1119 1.327 1_545 S
C1121 C1137 1.429 1_545 S
C1121 H1143 0.950 . S
C1122 H1118 0.949 . S
C1122 C1130 1.574 . S
C1122 C1138 1.368 . S
H1123 C1131 0.950 . S
H1124 C1129 0.950 . S
H1125 C1130 0.949 . S
H1126 C1132 0.950 . S
H1127 C1133 0.950 . S
H1128 C1134 0.949 . S
C1129 H1124 0.950 . S
C1129 C1131 1.327 . S
C1129 C1135 1.429 . S
C1130 C1122 1.574 . S
C1130 H1125 0.949 . S
C1130 C1136 1.368 1_565 S
C1131 C1115 1.349 . S
C1131 H1123 0.950 . S
C1131 C1129 1.327 . S
C1132 C1120 1.349 . S
C1132 H1126 0.950 . S
C1132 C1133 1.327 . S
C1133 H1127 0.950 . S
C1133 C1132 1.327 . S
C1133 C1137 1.429 . S
C1134 C1117 1.574 . S
C1134 H1128 0.949 . S
C1134 C1138 1.368 1_545 S
C1135 C1116 1.429 1_545 S
C1135 C1129 1.429 . S
C1135 C1136 1.523 . S
C1136 C1117 1.368 . S
C1136 C1130 1.368 1_545 S
C1136 C1135 1.523 . S
C1137 C1121 1.429 1_565 S
C1137 C1133 1.429 . S
C1137 C1138 1.523 . S
C1138 C1122 1.368 . S
C1138 C1134 1.368 1_565 S
C1138 C1137 1.523 . S
H1139 C1114 0.944 1_565 S
H1140 C1116 0.950 . S
H1141 C1117 0.949 . S
H1142 C1119 0.950 1_545 S
H1143 C1121 0.950 . S
C1144 C1145 1.349 . S
C1144 C1146 1.327 . S
C1144 H1169 0.950 . S
C1145 C1144 1.349 . S
C1145 C1161 1.349 . S
C1146 C1144 1.327 . S
C1146 C1165 1.429 . S
C1146 H1170 0.950 . S
C1147 C1164 1.574 . S
C1147 C1166 1.368 . S
C1147 H1171 0.949 . S
H1148 C1152 0.949 . S
C1149 C1150 1.349 . S
C1149 C1151 1.327 . S
C1149 H1172 0.950 . S
C1150 C1149 1.349 . S
C1150 C1162 1.349 . S
C1151 C1149 1.327 . S
C1151 C1167 1.429 . S
C1151 H1173 0.950 . S
C1152 H1148 0.949 . S
C1152 C1160 1.574 . S
C1152 C1168 1.368 . S
H1153 C1161 0.950 . S
H1154 C1159 0.950 . S
H1155 C1160 0.949 . S
H1156 C1162 0.950 . S
H1157 C1163 0.950 . S
H1158 C1164 0.949 . S
C1159 H1154 0.950 . S
C1159 C1161 1.327 . S
C1159 C1165 1.429 . S
C1160 C1152 1.574 . S
C1160 H1155 0.949 . S
C1160 C1166 1.368 . S
C1161 C1145 1.349 . S
C1161 H1153 0.950 . S
C1161 C1159 1.327 . S
C1162 C1150 1.349 . S
C1162 H1156 0.950 . S
C1162 C1163 1.327 . S
C1163 H1157 0.950 . S
C1163 C1162 1.327 . S
C1163 C1167 1.429 . S
C1164 C1147 1.574 . S
C1164 H1158 0.949 . S
C1164 C1168 1.368 . S
C1165 C1146 1.429 . S
C1165 C1159 1.429 . S
C1165 C1166 1.523 . S
C1166 C1147 1.368 . S
C1166 C1160 1.368 . S
C1166 C1165 1.523 . S
C1167 C1151 1.429 . S
C1167 C1163 1.429 . S
C1167 C1168 1.523 . S
C1168 C1152 1.368 . S
C1168 C1164 1.368 . S
C1168 C1167 1.523 . S
H1169 C1144 0.950 . S
H1170 C1146 0.950 . S
H1171 C1147 0.949 . S
H1172 C1149 0.950 . S
H1173 C1151 0.950 . S
C1174 C1175 1.349 . S
C1174 C1176 1.327 . S
C1174 H1199 0.950 . S
C1175 C1174 1.349 . S
C1175 C1191 1.349 . S
C1176 C1174 1.327 . S
C1176 C1195 1.429 . S
C1176 H1200 0.950 . S
C1177 C1194 1.574 . S
C1177 C1196 1.368 . S
C1177 H1201 0.949 . S
H1178 C1182 0.949 . S
C1179 C1180 1.349 . S
C1179 C1181 1.327 . S
C1179 H1202 0.950 . S
C1180 C1179 1.349 . S
C1180 C1192 1.349 . S
C1181 C1179 1.327 . S
C1181 C1197 1.429 . S
C1181 H1203 0.950 . S
C1182 H1178 0.949 . S
C1182 C1190 1.574 . S
C1182 C1198 1.368 . S
H1183 C1191 0.950 . S
H1184 C1189 0.950 . S
H1185 C1190 0.949 . S
H1186 C1192 0.950 . S
H1187 C1193 0.950 . S
H1188 C1194 0.949 . S
C1189 H1184 0.950 . S
C1189 C1191 1.327 . S
C1189 C1195 1.429 . S
C1190 C1182 1.574 . S
C1190 H1185 0.949 . S
C1190 C1196 1.368 . S
C1191 C1175 1.349 . S
C1191 H1183 0.950 . S
C1191 C1189 1.327 . S
C1192 C1180 1.349 . S
C1192 H1186 0.950 . S
C1192 C1193 1.327 . S
C1193 H1187 0.950 . S
C1193 C1192 1.327 . S
C1193 C1197 1.429 . S
C1194 C1177 1.574 . S
C1194 H1188 0.949 . S
C1194 C1198 1.368 . S
C1195 C1176 1.429 . S
C1195 C1189 1.429 . S
C1195 C1196 1.523 . S
C1196 C1177 1.368 . S
C1196 C1190 1.368 . S
C1196 C1195 1.523 . S
C1197 C1181 1.429 . S
C1197 C1193 1.429 . S
C1197 C1198 1.523 . S
C1198 C1182 1.368 . S
C1198 C1194 1.368 . S
C1198 C1197 1.523 . S
H1199 C1174 0.950 . S
H1200 C1176 0.950 . S
H1201 C1177 0.949 . S
H1202 C1179 0.950 . S
H1203 C1181 0.950 . S
C1204 C1205 1.349 1_455 S
C1204 C1206 1.327 . S
C1204 H1229 0.950 . S
C1205 C1204 1.349 1_655 S
C1205 C1221 1.349 . S
C1206 C1204 1.327 . S
C1206 C1225 1.429 1_455 S
C1206 H1230 0.950 . S
C1207 C1224 1.574 . S
C1207 C1226 1.368 . S
C1207 H1231 0.949 . S
H1208 C1212 0.949 . S
C1209 C1210 1.349 1_655 S
C1209 C1211 1.327 . S
C1209 H1232 0.950 . S
C1210 C1209 1.349 1_455 S
C1210 C1222 1.349 . S
C1211 C1209 1.327 . S
C1211 C1227 1.429 1_655 S
C1211 H1233 0.950 . S
C1212 H1208 0.949 . S
C1212 C1220 1.574 . S
C1212 C1228 1.368 . S
H1213 C1221 0.950 . S
H1214 C1219 0.950 . S
H1215 C1220 0.949 . S
H1216 C1222 0.950 . S
H1217 C1223 0.950 . S
H1218 C1224 0.949 . S
C1219 H1214 0.950 . S
C1219 C1221 1.327 . S
C1219 C1225 1.429 . S
C1220 C1212 1.574 . S
C1220 H1215 0.949 . S
C1220 C1226 1.368 1_455 S
C1221 C1205 1.349 . S
C1221 H1213 0.950 . S
C1221 C1219 1.327 . S
C1222 C1210 1.349 . S
C1222 H1216 0.950 . S
C1222 C1223 1.327 . S
C1223 H1217 0.950 . S
C1223 C1222 1.327 . S
C1223 C1227 1.429 . S
C1224 C1207 1.574 . S
C1224 H1218 0.949 . S
C1224 C1228 1.368 1_655 S
C1225 C1206 1.429 1_655 S
C1225 C1219 1.429 . S
C1225 C1226 1.523 . S
C1226 C1207 1.368 . S
C1226 C1220 1.368 1_655 S
C1226 C1225 1.523 . S
C1227 C1211 1.429 1_455 S
C1227 C1223 1.429 . S
C1227 C1228 1.523 . S
C1228 C1212 1.368 . S
C1228 C1224 1.368 1_455 S
C1228 C1227 1.523 . S
H1229 C1204 0.950 . S
H1230 C1206 0.950 . S
H1231 C1207 0.949 . S
H1232 C1209 0.950 . S
H1233 C1211 0.950 . S
C1234 C1235 1.349 . S
C1234 C1236 1.327 . S
C1234 H1259 0.950 . S
C1235 C1234 1.349 . S
C1235 C1251 1.349 1_565 S
C1236 C1234 1.327 . S
C1236 C1255 1.429 . S
C1236 H1260 0.950 . S
C1237 C1254 1.574 . S
C1237 C1256 1.368 1_545 S
C1237 H1261 0.949 . S
H1238 C1242 0.949 . S
C1239 C1240 1.349 . S
C1239 C1241 1.327 . S
C1239 H1262 0.950 . S
C1240 C1239 1.349 . S
C1240 C1252 1.349 1_545 S
C1241 C1239 1.327 . S
C1241 C1257 1.429 . S
C1241 H1263 0.950 . S
C1242 H1238 0.949 . S
C1242 C1250 1.574 . S
C1242 C1258 1.368 1_565 S
H1243 C1251 0.950 . S
H1244 C1249 0.950 . S
H1245 C1250 0.949 . S
H1246 C1252 0.950 . S
H1247 C1253 0.950 . S
H1248 C1254 0.949 . S
C1249 H1244 0.950 . S
C1249 C1251 1.327 . S
C1249 C1255 1.429 1_545 S
C1250 C1242 1.574 . S
C1250 H1245 0.949 . S
C1250 C1256 1.368 . S
C1251 C1235 1.349 1_545 S
C1251 H1243 0.950 . S
C1251 C1249 1.327 . S
C1252 C1240 1.349 1_565 S
C1252 H1246 0.950 . S
C1252 C1253 1.327 . S
C1253 H1247 0.950 . S
C1253 C1252 1.327 . S
C1253 C1257 1.429 1_565 S
C1254 C1237 1.574 . S
C1254 H1248 0.949 . S
C1254 C1258 1.368 . S
C1255 C1236 1.429 . S
C1255 C1249 1.429 1_565 S
C1255 C1256 1.523 . S
C1256 C1237 1.368 1_565 S
C1256 C1250 1.368 . S
C1256 C1255 1.523 . S
C1257 C1241 1.429 . S
C1257 C1253 1.429 1_545 S
C1257 C1258 1.523 . S
C1258 C1242 1.368 1_545 S
C1258 C1254 1.368 . S
C1258 C1257 1.523 . S
H1259 C1234 0.950 . S
H1260 C1236 0.950 . S
H1261 C1237 0.949 . S
H1262 C1239 0.950 . S
H1263 C1241 0.950 . S
C1264 C1265 1.349 . S
C1264 C1266 1.327 . S
C1264 H1289 0.950 . S
C1265 C1264 1.349 . S
C1265 C1281 1.349 . S
C1266 C1264 1.327 . S
C1266 C1285 1.429 . S
C1266 H1290 0.950 . S
C1267 C1284 1.574 . S
C1267 C1286 1.368 . S
C1267 H1291 0.949 . S
H1268 C1272 0.949 . S
C1269 C1270 1.349 . S
C1269 C1271 1.327 . S
C1269 H1292 0.950 . S
C1270 C1269 1.349 . S
C1270 C1282 1.349 . S
C1271 C1269 1.327 . S
C1271 C1287 1.429 . S
C1271 H1293 0.950 . S
C1272 H1268 0.949 . S
C1272 C1280 1.574 . S
C1272 C1288 1.368 . S
H1273 C1281 0.950 . S
H1274 C1279 0.950 . S
H1275 C1280 0.949 . S
H1276 C1282 0.950 . S
H1277 C1283 0.950 . S
H1278 C1284 0.949 . S
C1279 H1274 0.950 . S
C1279 C1281 1.327 . S
C1279 C1285 1.429 . S
C1280 C1272 1.574 . S
C1280 H1275 0.949 . S
C1280 C1286 1.368 . S
C1281 C1265 1.349 . S
C1281 H1273 0.950 . S
C1281 C1279 1.327 . S
C1282 C1270 1.349 . S
C1282 H1276 0.950 . S
C1282 C1283 1.327 . S
C1283 H1277 0.950 . S
C1283 C1282 1.327 . S
C1283 C1287 1.429 . S
C1284 C1267 1.574 . S
C1284 H1278 0.949 . S
C1284 C1288 1.368 . S
C1285 C1266 1.429 . S
C1285 C1279 1.429 . S
C1285 C1286 1.523 . S
C1286 C1267 1.368 . S
C1286 C1280 1.368 . S
C1286 C1285 1.523 . S
C1287 C1271 1.429 . S
C1287 C1283 1.429 . S
C1287 C1288 1.523 . S
C1288 C1272 1.368 . S
C1288 C1284 1.368 . S
C1288 C1287 1.523 . S
H1289 C1264 0.950 . S
H1290 C1266 0.950 . S
H1291 C1267 0.949 . S
H1292 C1269 0.950 . S
H1293 C1271 0.950 . S
C1294 C1295 1.349 . S
C1294 C1296 1.327 . S
C1294 H1319 0.950 . S
C1295 C1294 1.349 . S
C1295 C1311 1.349 . S
C1296 C1294 1.327 . S
C1296 C1315 1.429 . S
C1296 H1320 0.950 . S
C1297 C1314 1.574 . S
C1297 C1316 1.368 . S
C1297 H1321 0.949 . S
H1298 C1302 0.949 . S
C1299 C1300 1.349 . S
C1299 C1301 1.327 . S
C1299 H1322 0.950 . S
C1300 C1299 1.349 . S
C1300 C1312 1.349 . S
C1301 C1299 1.327 . S
C1301 C1317 1.429 . S
C1301 H1323 0.950 . S
C1302 H1298 0.949 . S
C1302 C1310 1.574 . S
C1302 C1318 1.368 . S
H1303 C1311 0.950 . S
H1304 C1309 0.950 . S
H1305 C1310 0.949 . S
H1306 C1312 0.950 . S
H1307 C1313 0.950 . S
H1308 C1314 0.949 . S
C1309 H1304 0.950 . S
C1309 C1311 1.327 . S
C1309 C1315 1.429 . S
C1310 C1302 1.574 . S
C1310 H1305 0.949 . S
C1310 C1316 1.368 . S
C1311 C1295 1.349 . S
C1311 H1303 0.950 . S
C1311 C1309 1.327 . S
C1312 C1300 1.349 . S
C1312 H1306 0.950 . S
C1312 C1313 1.327 . S
C1313 H1307 0.950 . S
C1313 C1312 1.327 . S
C1313 C1317 1.429 . S
C1314 C1297 1.574 . S
C1314 H1308 0.949 . S
C1314 C1318 1.368 . S
C1315 C1296 1.429 . S
C1315 C1309 1.429 . S
C1315 C1316 1.523 . S
C1316 C1297 1.368 . S
C1316 C1310 1.368 . S
C1316 C1315 1.523 . S
C1317 C1301 1.429 . S
C1317 C1313 1.429 . S
C1317 C1318 1.523 . S
C1318 C1302 1.368 . S
C1318 C1314 1.368 . S
C1318 C1317 1.523 . S
H1319 C1294 0.950 . S
H1320 C1296 0.950 . S
H1321 C1297 0.949 . S
H1322 C1299 0.950 . S
H1323 C1301 0.950 . S
C1324 C1325 1.349 . S
C1324 C1326 1.327 . S
C1324 H1349 0.950 . S
C1325 C1324 1.349 . S
C1325 C1341 1.349 1_455 S
C1326 C1324 1.327 . S
C1326 C1345 1.429 . S
C1326 H1350 0.950 . S
C1327 C1344 1.574 . S
C1327 C1346 1.368 . S
C1327 H1351 0.949 1_455 S
H1328 C1332 0.949 . S
C1329 C1330 1.349 . S
C1329 C1331 1.327 . S
C1329 H1352 0.950 . S
C1330 C1329 1.349 . S
C1330 C1342 1.349 . S
C1331 C1329 1.327 . S
C1331 C1347 1.429 . S
C1331 H1353 0.950 . S
C1332 H1328 0.949 . S
C1332 C1340 1.574 . S
C1332 C1348 1.368 . S
H1333 C1341 0.950 . S
H1334 C1339 0.950 . S
H1335 C1340 0.949 . S
H1336 C1342 0.950 . S
H1337 C1343 0.950 . S
H1338 C1344 0.957 . S
C1339 H1334 0.950 . S
C1339 C1341 1.327 . S
C1339 C1345 1.429 1_655 S
C1340 C1332 1.574 . S
C1340 H1335 0.949 . S
C1340 C1346 1.368 . S
C1341 C1325 1.349 1_655 S
C1341 H1333 0.950 . S
C1341 C1339 1.327 . S
C1342 C1330 1.349 . S
C1342 H1336 0.950 . S
C1342 C1343 1.327 . S
C1343 H1337 0.950 . S
C1343 C1342 1.327 . S
C1343 C1347 1.429 . S
C1344 C1327 1.574 . S
C1344 H1338 0.957 . S
C1344 C1348 1.368 . S
C1345 C1326 1.429 . S
C1345 C1339 1.429 1_455 S
C1345 C1346 1.523 . S
C1346 C1327 1.368 . S
C1346 C1340 1.368 . S
C1346 C1345 1.523 . S
C1347 C1331 1.429 . S
C1347 C1343 1.429 . S
C1347 C1348 1.523 . S
C1348 C1332 1.368 . S
C1348 C1344 1.368 . S
C1348 C1347 1.523 . S
H1349 C1324 0.950 . S
H1350 C1326 0.950 . S
H1351 C1327 0.949 1_655 S
H1352 C1329 0.950 . S
H1353 C1331 0.950 . S
C1354 C1355 1.349 . S
C1354 C1356 1.327 . S
C1354 H1379 0.950 . S
C1355 C1354 1.349 . S
C1355 C1371 1.349 . S
C1356 C1354 1.327 . S
C1356 C1375 1.429 . S
C1356 H1380 0.950 . S
C1357 C1374 1.574 . S
C1357 C1376 1.368 . S
C1357 H1381 0.949 . S
H1358 C1362 0.949 . S
C1359 C1360 1.349 . S
C1359 C1361 1.327 . S
C1359 H1382 0.950 . S
C1360 C1359 1.349 . S
C1360 C1372 1.349 . S
C1361 C1359 1.327 . S
C1361 C1377 1.429 . S
C1361 H1383 0.950 . S
C1362 H1358 0.949 . S
C1362 C1370 1.574 . S
C1362 C1378 1.368 . S
H1363 C1371 0.950 . S
H1364 C1369 0.950 . S
H1365 C1370 0.949 . S
H1366 C1372 0.950 . S
H1367 C1373 0.950 . S
H1368 C1374 0.949 . S
C1369 H1364 0.950 . S
C1369 C1371 1.327 . S
C1369 C1375 1.429 . S
C1370 C1362 1.574 . S
C1370 H1365 0.949 . S
C1370 C1376 1.368 . S
C1371 C1355 1.349 . S
C1371 H1363 0.950 . S
C1371 C1369 1.327 . S
C1372 C1360 1.349 . S
C1372 H1366 0.950 . S
C1372 C1373 1.327 . S
C1373 H1367 0.950 . S
C1373 C1372 1.327 . S
C1373 C1377 1.429 . S
C1374 C1357 1.574 . S
C1374 H1368 0.949 . S
C1374 C1378 1.368 . S
C1375 C1356 1.429 . S
C1375 C1369 1.429 . S
C1375 C1376 1.523 . S
C1376 C1357 1.368 . S
C1376 C1370 1.368 . S
C1376 C1375 1.523 . S
C1377 C1361 1.429 . S
C1377 C1373 1.429 . S
C1377 C1378 1.523 . S
C1378 C1362 1.368 . S
C1378 C1374 1.368 . S
C1378 C1377 1.523 . S
H1379 C1354 0.950 . S
H1380 C1356 0.950 . S
H1381 C1357 0.949 . S
H1382 C1359 0.950 . S
H1383 C1361 0.950 . S
C1384 C1385 1.349 . S
C1384 C1386 1.327 . S
C1384 H1409 0.950 . S
C1385 C1384 1.349 . S
C1385 C1401 1.349 . S
C1386 C1384 1.327 . S
C1386 C1405 1.429 . S
C1386 H1410 0.950 . S
C1387 C1404 1.574 . S
C1387 C1406 1.368 . S
C1387 H1411 0.949 . S
H1388 C1392 0.949 . S
C1389 C1390 1.349 . S
C1389 C1391 1.327 . S
C1389 H1412 0.950 . S
C1390 C1389 1.349 . S
C1390 C1402 1.349 . S
C1391 C1389 1.327 . S
C1391 C1407 1.429 . S
C1391 H1413 0.950 . S
C1392 H1388 0.949 . S
C1392 C1400 1.574 . S
C1392 C1408 1.368 . S
H1393 C1401 0.950 . S
H1394 C1399 0.950 . S
H1395 C1400 0.949 . S
H1396 C1402 0.950 . S
H1397 C1403 0.950 . S
H1398 C1404 0.949 . S
C1399 H1394 0.950 . S
C1399 C1401 1.327 . S
C1399 C1405 1.429 . S
C1400 C1392 1.574 . S
C1400 H1395 0.949 . S
C1400 C1406 1.368 . S
C1401 C1385 1.349 . S
C1401 H1393 0.950 . S
C1401 C1399 1.327 . S
C1402 C1390 1.349 . S
C1402 H1396 0.950 . S
C1402 C1403 1.327 . S
C1403 H1397 0.950 . S
C1403 C1402 1.327 . S
C1403 C1407 1.429 . S
C1404 C1387 1.574 . S
C1404 H1398 0.949 . S
C1404 C1408 1.368 . S
C1405 C1386 1.429 . S
C1405 C1399 1.429 . S
C1405 C1406 1.523 . S
C1406 C1387 1.368 . S
C1406 C1400 1.368 . S
C1406 C1405 1.523 . S
C1407 C1391 1.429 . S
C1407 C1403 1.429 . S
C1407 C1408 1.523 . S
C1408 C1392 1.368 . S
C1408 C1404 1.368 . S
C1408 C1407 1.523 . S
H1409 C1384 0.950 . S
H1410 C1386 0.950 . S
H1411 C1387 0.949 . S
H1412 C1389 0.950 . S
H1413 C1391 0.950 . S
C1414 C1415 1.349 . S
C1414 C1416 1.327 . S
C1414 H1439 0.950 . S
C1415 C1414 1.349 . S
C1415 C1431 1.349 . S
C1416 C1414 1.327 . S
C1416 C1435 1.429 . S
C1416 H1440 0.950 . S
C1417 C1434 1.574 . S
C1417 C1436 1.368 . S
C1417 H1441 0.949 . S
H1418 C1422 0.949 . S
C1419 C1420 1.349 . S
C1419 C1421 1.327 . S
C1419 H1442 0.950 . S
C1420 C1419 1.349 . S
C1420 C1432 1.349 . S
C1421 C1419 1.327 . S
C1421 C1437 1.429 . S
C1421 H1443 0.950 . S
C1422 H1418 0.949 . S
C1422 C1430 1.574 . S
C1422 C1438 1.368 . S
H1423 C1431 0.950 . S
H1424 C1429 0.950 . S
H1425 C1430 0.949 . S
H1426 C1432 0.950 . S
H1427 C1433 0.950 . S
H1428 C1434 0.949 . S
C1429 H1424 0.950 . S
C1429 C1431 1.327 . S
C1429 C1435 1.429 . S
C1430 C1422 1.574 . S
C1430 H1425 0.949 . S
C1430 C1436 1.368 . S
C1431 C1415 1.349 . S
C1431 H1423 0.950 . S
C1431 C1429 1.327 . S
C1432 C1420 1.349 . S
C1432 H1426 0.950 . S
C1432 C1433 1.327 . S
C1433 H1427 0.950 . S
C1433 C1432 1.327 . S
C1433 C1437 1.429 . S
C1434 C1417 1.574 . S
C1434 H1428 0.949 . S
C1434 C1438 1.368 . S
C1435 C1416 1.429 . S
C1435 C1429 1.429 . S
C1435 C1436 1.523 . S
C1436 C1417 1.368 . S
C1436 C1430 1.368 . S
C1436 C1435 1.523 . S
C1437 C1421 1.429 . S
C1437 C1433 1.429 . S
C1437 C1438 1.523 . S
C1438 C1422 1.368 . S
C1438 C1434 1.368 . S
C1438 C1437 1.523 . S
H1439 C1414 0.950 . S
H1440 C1416 0.950 . S
H1441 C1417 0.949 . S
H1442 C1419 0.950 . S
H1443 C1421 0.950 . S
C1444 C1445 1.349 1_655 S
C1444 C1446 1.330 . S
C1444 H1469 0.950 . S
C1445 C1444 1.349 1_455 S
C1445 C1461 1.349 . S
C1446 C1444 1.330 . S
C1446 C1465 1.417 1_655 S
C1446 H1470 0.960 . S
C1447 C1464 1.574 . S
C1447 C1466 1.368 . S
C1447 H1471 0.949 . S
H1448 C1452 0.949 . S
C1449 C1450 1.349 . S
C1449 C1451 1.327 . S
C1449 H1472 0.950 . S
C1450 C1449 1.349 . S
C1450 C1462 1.349 . S
C1451 C1449 1.327 . S
C1451 C1467 1.429 . S
C1451 H1473 0.950 . S
C1452 H1448 0.949 . S
C1452 C1460 1.574 . S
C1452 C1468 1.368 . S
H1453 C1461 0.950 . S
H1454 C1459 0.950 . S
H1455 C1460 0.949 1_655 S
H1456 C1462 0.950 . S
H1457 C1463 0.950 . S
H1458 C1464 0.949 . S
C1459 H1454 0.950 . S
C1459 C1461 1.327 . S
C1459 C1465 1.429 . S
C1460 C1452 1.574 . S
C1460 H1455 0.949 1_455 S
C1460 C1466 1.368 . S
C1461 C1445 1.349 . S
C1461 H1453 0.950 . S
C1461 C1459 1.327 . S
C1462 C1450 1.349 . S
C1462 H1456 0.950 . S
C1462 C1463 1.327 . S
C1463 H1457 0.950 . S
C1463 C1462 1.327 . S
C1463 C1467 1.429 . S
C1464 C1447 1.574 . S
C1464 H1458 0.949 . S
C1464 C1468 1.368 . S
C1465 C1446 1.417 1_455 S
C1465 C1459 1.429 . S
C1465 C1466 1.523 . S
C1466 C1447 1.368 . S
C1466 C1460 1.368 . S
C1466 C1465 1.523 . S
C1467 C1451 1.429 . S
C1467 C1463 1.429 . S
C1467 C1468 1.523 . S
C1468 C1452 1.368 . S
C1468 C1464 1.368 . S
C1468 C1467 1.523 . S
H1469 C1444 0.950 . S
H1470 C1446 0.960 . S
H1471 C1447 0.949 . S
H1472 C1449 0.950 . S
H1473 C1451 0.950 . S
C1474 C1475 1.349 . S
C1474 C1476 1.327 . S
C1474 H1499 0.950 1_545 S
C1475 C1474 1.349 . S
C1475 C1491 1.349 . S
C1476 C1474 1.327 . S
C1476 C1495 1.429 . S
C1476 H1500 0.950 1_545 S
C1477 C1494 1.574 . S
C1477 C1496 1.368 . S
C1477 H1501 0.949 . S
H1478 C1482 0.949 . S
C1479 C1480 1.349 . S
C1479 C1481 1.327 . S
C1479 H1502 0.950 . S
C1480 C1479 1.349 . S
C1480 C1492 1.349 1_545 S
C1481 C1479 1.327 . S
C1481 C1497 1.429 . S
C1481 H1503 0.950 . S
C1482 H1478 0.949 . S
C1482 C1490 1.571 1_565 S
C1482 C1498 1.368 1_565 S
H1483 C1491 0.950 . S
H1484 C1489 0.950 . S
H1485 C1490 0.932 1_565 S
H1486 C1492 0.950 . S
H1487 C1493 0.950 . S
H1488 C1494 0.949 . S
C1489 H1484 0.950 . S
C1489 C1491 1.327 . S
C1489 C1495 1.429 . S
C1490 C1482 1.571 1_545 S
C1490 H1485 0.932 1_545 S
C1490 C1496 1.390 . S
C1491 C1475 1.349 . S
C1491 H1483 0.950 . S
C1491 C1489 1.327 . S
C1492 C1480 1.349 1_565 S
C1492 H1486 0.950 . S
C1492 C1493 1.327 . S
C1493 H1487 0.950 . S
C1493 C1492 1.327 . S
C1493 C1497 1.429 1_565 S
C1494 C1477 1.574 . S
C1494 H1488 0.949 . S
C1494 C1498 1.368 . S
C1495 C1476 1.429 . S
C1495 C1489 1.429 . S
C1495 C1496 1.523 . S
C1496 C1477 1.368 . S
C1496 C1490 1.390 . S
C1496 C1495 1.523 . S
C1497 C1481 1.429 . S
C1497 C1493 1.429 1_545 S
C1497 C1498 1.523 . S
C1498 C1482 1.368 1_545 S
C1498 C1494 1.368 . S
C1498 C1497 1.523 . S
H1499 C1474 0.950 1_565 S
H1500 C1476 0.950 1_565 S
H1501 C1477 0.949 . S
H1502 C1479 0.950 . S
H1503 C1481 0.950 . S
C1504 C1505 1.349 . S
C1504 C1506 1.327 . S
C1504 H1529 0.950 . S
C1505 C1504 1.349 . S
C1505 C1521 1.349 . S
C1506 C1504 1.327 . S
C1506 C1525 1.429 . S
C1506 H1530 0.950 . S
C1507 C1524 1.574 1_556 S
C1507 C1526 1.368 1_545 S
C1507 H1531 0.949 . S
H1508 C1512 0.949 . S
C1509 C1510 1.349 . S
C1509 C1511 1.327 . S
C1509 H1532 0.950 . S
C1510 C1509 1.349 . S
C1510 C1522 1.349 . S
C1511 C1509 1.327 . S
C1511 C1527 1.429 . S
C1511 H1533 0.950 . S
C1512 H1508 0.949 . S
C1512 C1520 1.574 1_554 S
C1512 C1528 1.368 1_565 S
H1513 C1521 0.950 . S
H1514 C1519 0.950 1_545 S
H1515 C1520 0.949 . S
H1516 C1522 0.950 1_565 S
H1517 C1523 0.950 . S
H1518 C1524 0.949 . S
C1519 H1514 0.950 1_565 S
C1519 C1521 1.327 . S
C1519 C1525 1.429 . S
C1520 C1512 1.574 1_556 S
C1520 H1515 0.949 . S
C1520 C1526 1.368 . S
C1521 C1505 1.349 . S
C1521 H1513 0.950 . S
C1521 C1519 1.327 . S
C1522 C1510 1.349 . S
C1522 H1516 0.950 1_545 S
C1522 C1523 1.327 1_545 S
C1523 H1517 0.950 . S
C1523 C1522 1.327 1_565 S
C1523 C1527 1.429 1_565 S
C1524 C1507 1.574 1_554 S
C1524 H1518 0.949 . S
C1524 C1528 1.368 . S
C1525 C1506 1.429 . S
C1525 C1519 1.429 . S
C1525 C1526 1.523 . S
C1526 C1507 1.368 1_565 S
C1526 C1520 1.368 . S
C1526 C1525 1.523 . S
C1527 C1511 1.429 . S
C1527 C1523 1.429 1_545 S
C1527 C1528 1.523 . S
C1528 C1512 1.368 1_545 S
C1528 C1524 1.368 . S
C1528 C1527 1.523 . S
H1529 C1504 0.950 . S
H1530 C1506 0.950 . S
H1531 C1507 0.949 . S
H1532 C1509 0.950 . S
H1533 C1511 0.950 . S
C1534 C1535 1.349 . S
C1534 C1536 1.327 . S
C1534 H1559 0.950 . S
C1535 C1534 1.349 . S
C1535 C1551 1.349 . S
C1536 C1534 1.327 . S
C1536 C1555 1.429 . S
C1536 H1560 0.950 . S
C1537 C1554 1.574 . S
C1537 C1556 1.368 . S
C1537 H1561 0.949 . S
H1538 C1542 0.949 . S
C1539 C1540 1.349 . S
C1539 C1541 1.327 . S
C1539 H1562 0.950 . S
C1540 C1539 1.349 . S
C1540 C1552 1.349 . S
C1541 C1539 1.327 . S
C1541 C1557 1.429 . S
C1541 H1563 0.950 . S
C1542 H1538 0.949 . S
C1542 C1550 1.574 . S
C1542 C1558 1.368 . S
H1543 C1551 0.950 . S
H1544 C1549 0.950 . S
H1545 C1550 0.949 . S
H1546 C1552 0.950 . S
H1547 C1553 0.950 . S
H1548 C1554 0.949 . S
C1549 H1544 0.950 . S
C1549 C1551 1.327 . S
C1549 C1555 1.429 . S
C1550 C1542 1.574 . S
C1550 H1545 0.949 . S
C1550 C1556 1.368 . S
C1551 C1535 1.349 . S
C1551 H1543 0.950 . S
C1551 C1549 1.327 . S
C1552 C1540 1.349 . S
C1552 H1546 0.950 . S
C1552 C1553 1.327 . S
C1553 H1547 0.950 . S
C1553 C1552 1.327 . S
C1553 C1557 1.429 . S
C1554 C1537 1.574 . S
C1554 H1548 0.949 . S
C1554 C1558 1.368 . S
C1555 C1536 1.429 . S
C1555 C1549 1.429 . S
C1555 C1556 1.523 . S
C1556 C1537 1.368 . S
C1556 C1550 1.368 . S
C1556 C1555 1.523 . S
C1557 C1541 1.429 . S
C1557 C1553 1.429 . S
C1557 C1558 1.523 . S
C1558 C1542 1.368 . S
C1558 C1554 1.368 . S
C1558 C1557 1.523 . S
H1559 C1534 0.950 . S
H1560 C1536 0.950 . S
H1561 C1537 0.949 . S
H1562 C1539 0.950 . S
H1563 C1541 0.950 . S
C1564 C1565 1.349 . S
C1564 C1566 1.327 . S
C1564 H1589 0.950 . S
C1565 C1564 1.349 . S
C1565 C1581 1.349 1_455 S
C1566 C1564 1.327 . S
C1566 C1585 1.429 . S
C1566 H1590 0.950 . S
C1567 C1584 1.541 1_554 S
C1567 C1586 1.401 . S
C1567 H1591 0.950 1_455 S
H1568 C1572 0.949 . S
C1569 C1570 1.349 . S
C1569 C1571 1.327 . S
C1569 H1592 0.950 . S
C1570 C1569 1.349 . S
C1570 C1582 1.349 . S
C1571 C1569 1.327 . S
C1571 C1587 1.429 . S
C1571 H1593 0.950 . S
C1572 H1568 0.949 . S
C1572 C1580 1.574 1_556 S
C1572 C1588 1.368 . S
H1573 C1581 0.950 . S
H1574 C1579 0.950 . S
H1575 C1580 0.949 . S
H1576 C1582 0.950 . S
H1577 C1583 0.950 . S
H1578 C1584 0.949 1_655 S
C1579 H1574 0.950 . S
C1579 C1581 1.327 . S
C1579 C1585 1.429 1_655 S
C1580 C1572 1.574 1_554 S
C1580 H1575 0.949 . S
C1580 C1586 1.368 . S
C1581 C1565 1.349 1_655 S
C1581 H1573 0.950 . S
C1581 C1579 1.327 . S
C1582 C1570 1.349 . S
C1582 H1576 0.950 . S
C1582 C1583 1.327 . S
C1583 H1577 0.950 . S
C1583 C1582 1.327 . S
C1583 C1587 1.429 . S
C1584 C1567 1.541 1_556 S
C1584 H1578 0.949 1_455 S
C1584 C1588 1.368 . S
C1585 C1566 1.429 . S
C1585 C1579 1.429 1_455 S
C1585 C1586 1.523 . S
C1586 C1567 1.401 . S
C1586 C1580 1.368 . S
C1586 C1585 1.523 . S
C1587 C1571 1.429 . S
C1587 C1583 1.429 . S
C1587 C1588 1.523 . S
C1588 C1572 1.368 . S
C1588 C1584 1.368 . S
C1588 C1587 1.523 . S
H1589 C1564 0.950 . S
H1590 C1566 0.950 . S
H1591 C1567 0.950 1_655 S
H1592 C1569 0.950 . S
H1593 C1571 0.950 . S
C1594 C1595 1.349 . S
C1594 C1596 1.327 . S
C1594 H1619 0.950 1_545 S
C1595 C1594 1.349 . S
C1595 C1611 1.349 . S
C1596 C1594 1.327 . S
C1596 C1615 1.429 . S
C1596 H1620 0.950 1_545 S
C1597 C1614 1.574 . S
C1597 C1616 1.368 . S
C1597 H1621 0.949 . S
H1598 C1602 0.949 . S
C1599 C1600 1.349 . S
C1599 C1601 1.327 . S
C1599 H1622 0.950 . S
C1600 C1599 1.349 . S
C1600 C1612 1.349 1_545 S
C1601 C1599 1.327 . S
C1601 C1617 1.429 . S
C1601 H1623 0.950 1_455 S
C1602 H1598 0.949 . S
C1602 C1610 1.574 . S
C1602 C1618 1.368 1_565 S
H1603 C1611 0.950 . S
H1604 C1609 0.950 . S
H1605 C1610 0.949 . S
H1606 C1612 0.950 . S
H1607 C1613 0.950 . S
H1608 C1614 0.949 . S
C1609 H1604 0.950 . S
C1609 C1611 1.327 . S
C1609 C1615 1.429 . S
C1610 C1602 1.574 . S
C1610 H1605 0.949 . S
C1610 C1616 1.368 1_465 S
C1611 C1595 1.349 . S
C1611 H1603 0.950 . S
C1611 C1609 1.327 . S
C1612 C1600 1.349 1_565 S
C1612 H1606 0.950 . S
C1612 C1613 1.327 . S
C1613 H1607 0.950 . S
C1613 C1612 1.327 . S
C1613 C1617 1.429 1_565 S
C1614 C1597 1.574 . S
C1614 H1608 0.949 . S
C1614 C1618 1.368 1_655 S
C1615 C1596 1.429 . S
C1615 C1609 1.429 . S
C1615 C1616 1.523 . S
C1616 C1597 1.368 . S
C1616 C1610 1.368 1_645 S
C1616 C1615 1.523 . S
C1617 C1601 1.429 . S
C1617 C1613 1.429 1_545 S
C1617 C1618 1.523 . S
C1618 C1602 1.368 1_545 S
C1618 C1614 1.368 1_455 S
C1618 C1617 1.523 . S
H1619 C1594 0.950 1_565 S
H1620 C1596 0.950 1_565 S
H1621 C1597 0.949 . S
H1622 C1599 0.950 . S
H1623 C1601 0.950 1_655 S
C1624 C1625 1.349 . S
C1624 C1626 1.327 . S
C1624 H1649 0.950 . S
C1625 C1624 1.349 . S
C1625 C1641 1.349 . S
C1626 C1624 1.327 . S
C1626 C1645 1.429 . S
C1626 H1650 0.950 . S
C1627 C1644 1.574 1_556 S
C1627 C1646 1.368 . S
C1627 H1651 0.949 . S
H1628 C1632 0.949 . S
C1629 C1630 1.349 . S
C1629 C1631 1.327 . S
C1629 H1652 0.950 . S
C1630 C1629 1.349 . S
C1630 C1642 1.349 . S
C1631 C1629 1.327 . S
C1631 C1647 1.429 . S
C1631 H1653 0.950 . S
C1632 H1628 0.949 . S
C1632 C1640 1.503 1_554 S
C1632 C1648 1.368 . S
H1633 C1641 0.950 . S
H1634 C1639 0.950 . S
H1635 C1640 0.974 . S
H1636 C1642 0.950 . S
H1637 C1643 0.950 . S
H1638 C1644 0.949 . S
C1639 H1634 0.950 . S
C1639 C1641 1.327 . S
C1639 C1645 1.429 . S
C1640 C1632 1.503 1_556 S
C1640 H1635 0.974 . S
C1640 C1646 1.416 . S
C1641 C1625 1.349 . S
C1641 H1633 0.950 . S
C1641 C1639 1.327 . S
C1642 C1630 1.349 . S
C1642 H1636 0.950 . S
C1642 C1643 1.327 . S
C1643 H1637 0.950 . S
C1643 C1642 1.327 . S
C1643 C1647 1.429 . S
C1644 C1627 1.574 1_554 S
C1644 H1638 0.949 . S
C1644 C1648 1.368 . S
C1645 C1626 1.429 . S
C1645 C1639 1.429 . S
C1645 C1646 1.523 . S
C1646 C1627 1.368 . S
C1646 C1640 1.416 . S
C1646 C1645 1.523 . S
C1647 C1631 1.429 . S
C1647 C1643 1.429 . S
C1647 C1648 1.523 . S
C1648 C1632 1.368 . S
C1648 C1644 1.368 . S
C1648 C1647 1.523 . S
H1649 C1624 0.950 . S
H1650 C1626 0.950 . S
H1651 C1627 0.949 . S
H1652 C1629 0.950 . S
H1653 C1631 0.950 . S
C1654 C1655 1.349 . S
C1654 C1656 1.327 . S
C1654 H1679 0.950 . S
C1655 C1654 1.349 . S
C1655 C1671 1.349 . S
C1656 C1654 1.327 . S
C1656 C1675 1.429 . S
C1656 H1680 0.950 . S
C1657 C1674 1.574 . S
C1657 C1676 1.368 1_655 S
C1657 H1681 0.949 . S
H1658 C1662 0.949 . S
C1659 C1660 1.349 . S
C1659 C1661 1.327 . S
C1659 H1682 0.950 . S
C1660 C1659 1.349 . S
C1660 C1672 1.349 . S
C1661 C1659 1.327 . S
C1661 C1677 1.429 . S
C1661 H1683 0.950 . S
C1662 H1658 0.949 . S
C1662 C1670 1.574 . S
C1662 C1678 1.368 1_455 S
H1663 C1671 0.957 . S
H1664 C1669 0.951 . S
H1665 C1670 0.949 . S
H1666 C1672 0.950 . S
H1667 C1673 0.950 1_455 S
H1668 C1674 0.949 . S
C1669 H1664 0.951 . S
C1669 C1671 1.326 1_655 S
C1669 C1675 1.428 1_655 S
C1670 C1662 1.574 . S
C1670 H1665 0.949 . S
C1670 C1676 1.368 . S
C1671 C1655 1.349 . S
C1671 H1663 0.957 . S
C1671 C1669 1.326 1_455 S
C1672 C1660 1.349 . S
C1672 H1666 0.950 . S
C1672 C1673 1.327 . S
C1673 H1667 0.950 1_655 S
C1673 C1672 1.327 . S
C1673 C1677 1.429 . S
C1674 C1657 1.574 . S
C1674 H1668 0.949 . S
C1674 C1678 1.368 . S
C1675 C1656 1.429 . S
C1675 C1669 1.428 1_455 S
C1675 C1676 1.523 . S
C1676 C1657 1.368 1_455 S
C1676 C1670 1.368 . S
C1676 C1675 1.523 . S
C1677 C1661 1.429 . S
C1677 C1673 1.429 . S
C1677 C1678 1.523 . S
C1678 C1662 1.368 1_655 S
C1678 C1674 1.368 . S
C1678 C1677 1.523 . S
H1679 C1654 0.950 . S
H1680 C1656 0.950 . S
H1681 C1657 0.949 . S
H1682 C1659 0.950 . S
H1683 C1661 0.950 . S
C1684 C1685 1.349 . S
C1684 C1686 1.327 . S
C1684 H1709 0.950 1_565 S
C1685 C1684 1.349 . S
C1685 C1701 1.349 . S
C1686 C1684 1.327 . S
C1686 C1705 1.429 . S
C1686 H1710 0.950 1_565 S
C1687 C1704 1.574 1_554 S
C1687 C1706 1.368 . S
C1687 H1711 0.949 . S
H1688 C1692 0.962 . S
C1689 C1690 1.338 1_565 S
C1689 C1691 1.331 . S
C1689 H1712 0.957 . S
C1690 C1689 1.338 1_545 S
C1690 C1702 1.349 1_455 S
C1691 C1689 1.331 . S
C1691 C1707 1.429 1_565 S
C1691 H1713 0.950 . S
C1692 H1688 0.962 . S
C1692 C1700 1.533 1_556 S
C1692 C1708 1.396 . S
H1693 C1701 0.950 . S
H1694 C1699 0.950 . S
H1695 C1700 0.949 . S
H1696 C1702 0.950 . S
H1697 C1703 0.953 . S
H1698 C1704 0.949 . S
C1699 H1694 0.950 . S
C1699 C1701 1.327 . S
C1699 C1705 1.429 . S
C1700 C1692 1.533 1_554 S
C1700 H1695 0.949 . S
C1700 C1706 1.368 1_545 S
C1701 C1685 1.349 . S
C1701 H1693 0.950 . S
C1701 C1699 1.327 . S
C1702 C1690 1.349 1_655 S
C1702 H1696 0.950 . S
C1702 C1703 1.327 1_655 S
C1703 H1697 0.953 . S
C1703 C1702 1.327 1_455 S
C1703 C1707 1.429 . S
C1704 C1687 1.574 1_556 S
C1704 H1698 0.949 . S
C1704 C1708 1.368 1_565 S
C1705 C1686 1.429 . S
C1705 C1699 1.429 . S
C1705 C1706 1.523 . S
C1706 C1687 1.368 . S
C1706 C1700 1.368 1_565 S
C1706 C1705 1.523 . S
C1707 C1691 1.429 1_545 S
C1707 C1703 1.429 . S
C1707 C1708 1.523 . S
C1708 C1692 1.396 . S
C1708 C1704 1.368 1_545 S
C1708 C1707 1.523 . S
H1709 C1684 0.950 1_545 S
H1710 C1686 0.950 1_545 S
H1711 C1687 0.949 . S
H1712 C1689 0.957 . S
H1713 C1691 0.950 . S
C1714 C1715 1.349 . S
C1714 C1716 1.327 . S
C1714 H1739 0.950 . S
C1715 C1714 1.349 . S
C1715 C1731 1.349 1_545 S
C1716 C1714 1.327 . S
C1716 C1735 1.429 . S
C1716 H1740 0.950 . S
C1717 C1734 1.574 . S
C1717 C1736 1.368 1_565 S
C1717 H1741 0.949 . S
H1718 C1722 0.949 . S
C1719 C1720 1.349 . S
C1719 C1721 1.327 . S
C1719 H1742 0.950 1_545 S
C1720 C1719 1.349 . S
C1720 C1732 1.349 . S
C1721 C1719 1.327 . S
C1721 C1737 1.429 . S
C1721 H1743 0.950 1_545 S
C1722 H1718 0.949 . S
C1722 C1730 1.574 . S
C1722 C1738 1.368 . S
H1723 C1731 0.950 . S
H1724 C1729 0.950 . S
H1725 C1730 0.949 . S
H1726 C1732 0.950 . S
H1727 C1733 0.950 . S
H1728 C1734 0.949 . S
C1729 H1724 0.950 . S
C1729 C1731 1.327 . S
C1729 C1735 1.429 1_565 S
C1730 C1722 1.574 . S
C1730 H1725 0.949 . S
C1730 C1736 1.368 . S
C1731 C1715 1.349 1_565 S
C1731 H1723 0.950 . S
C1731 C1729 1.327 . S
C1732 C1720 1.349 . S
C1732 H1726 0.950 . S
C1732 C1733 1.327 . S
C1733 H1727 0.950 . S
C1733 C1732 1.327 . S
C1733 C1737 1.429 . S
C1734 C1717 1.574 . S
C1734 H1728 0.949 . S
C1734 C1738 1.368 1_565 S
C1735 C1716 1.429 . S
C1735 C1729 1.429 1_545 S
C1735 C1736 1.523 . S
C1736 C1717 1.368 1_545 S
C1736 C1730 1.368 . S
C1736 C1735 1.523 . S
C1737 C1721 1.429 . S
C1737 C1733 1.429 . S
C1737 C1738 1.523 . S
C1738 C1722 1.368 . S
C1738 C1734 1.368 1_545 S
C1738 C1737 1.523 . S
H1739 C1714 0.950 . S
H1740 C1716 0.950 . S
H1741 C1717 0.949 . S
H1742 C1719 0.950 1_565 S
H1743 C1721 0.950 1_565 S
C545 C5 1.930 . S
C550 C243 1.930 . S
C575 C141 1.930 . S
C580 C39 1.930 . S
C605 C73 1.930 . S
C610 C175 1.930 . S
C635 C107 1.930 . S
C640 C209 1.930 . S
C665 C281 1.335 . S
C670 C519 1.335 . S
C695 C315 1.335 . S
C700 C417 1.335 . S
C725 C349 1.335 . S
C730 C451 1.335 . S
C755 C485 1.335 . S
C760 C383 1.335 . S
C785 C33 1.910 . S
C790 C101 1.910 . S
C815 C135 1.910 . S
C820 C67 1.910 . S
C845 C237 1.910 . S
C850 C169 1.910 . S
C875 C203 1.910 . S
C880 C271 1.910 . S
C905 C373 1.193 . S
C910 C305 1.193 . S
C935 C407 1.193 . S
C940 C339 1.193 . S
C965 C509 1.193 . S
C970 C441 1.193 . S
C995 C543 1.193 . S
C1000 C475 1.193 . S
C1025 C410 0.353 . S
C1030 C20 0.237 . S
C1055 C444 0.353 . S
C1060 C54 0.237 . S
C1085 C88 0.237 . S
C1090 C478 0.353 . S
C1115 C512 0.353 . S
C1120 C122 0.237 . S
C1145 C156 0.237 . S
C1150 C274 0.353 . S
C1175 C308 0.353 . S
C1180 C190 0.237 . S
C1205 C224 0.237 . S
C1210 C342 0.353 . S
C1235 C258 0.237 . S
C1240 C376 0.353 . S
C1265 C138 0.368 . S
C1270 C292 0.287 . S
C1295 C172 0.368 . S
C1300 C326 0.287 . S
C1325 C206 0.368 . S
C1330 C360 0.286 . S
C1355 C240 0.368 . S
C1360 C394 0.287 . S
C1385 C2 0.368 . S
C1390 C428 0.287 . S
C1415 C36 0.368 . S
C1420 C462 0.287 . S
C1445 C70 0.368 . S
C1450 C496 0.287 . S
C1475 C530 0.286 . S
C1480 C104 0.368 . S
C1505 C277 1.669 . S
C1510 C9 1.622 . S
C1535 C43 1.622 . S
C1540 C311 1.669 . S
C1565 C77 1.622 1_455 S
C1570 C345 1.669 . S
C1595 C379 1.669 . S
C1600 C111 1.622 1_545 S
C1625 C145 1.622 . S
C1630 C413 1.669 . S
C1655 C179 1.622 . S
C1660 C447 1.669 . S
C1685 C481 1.669 . S
C1690 C213 1.622 1_455 S
C1715 C247 1.622 1_545 S
C1720 C515 1.669 . S
