# Generated by pormake.
# Topology cag, (4)-cn, num edge types: 1
# Building blocks:
#     Node 0, Type 0, BuildingBlock: TATPOV_clean_sbu_0, # of connection points: 4
#     Node 1, Type 0, BuildingBlock: TATPOV_clean_sbu_0, # of connection points: 4
#     Node 2, Type 0, BuildingBlock: TATPOV_clean_sbu_0, # of connection points: 4
#     Node 3, Type 0, BuildingBlock: TATPOV_clean_sbu_0, # of connection points: 4
#     Node 4, Type 0, BuildingBlock: TATPOV_clean_sbu_0, # of connection points: 4
#     Node 5, Type 0, BuildingBlock: TATPOV_clean_sbu_0, # of connection points: 4
#     Node 6, Type 0, BuildingBlock: TATPOV_clean_sbu_0, # of connection points: 4
#     Node 7, Type 0, BuildingBlock: TATPOV_clean_sbu_0, # of connection points: 4
#     Node 8, Type 0, BuildingBlock: TATPOV_clean_sbu_0, # of connection points: 4
#     Node 9, Type 0, BuildingBlock: TATPOV_clean_sbu_0, # of connection points: 4
#     Node 10, Type 0, BuildingBlock: TATPOV_clean_sbu_0, # of connection points: 4
#     Node 11, Type 0, BuildingBlock: TATPOV_clean_sbu_0, # of connection points: 4
#     Node 12, Type 0, BuildingBlock: TATPOV_clean_sbu_0, # of connection points: 4
#     Node 13, Type 0, BuildingBlock: TATPOV_clean_sbu_0, # of connection points: 4
#     Node 14, Type 0, BuildingBlock: TATPOV_clean_sbu_0, # of connection points: 4
#     Node 15, Type 0, BuildingBlock: TATPOV_clean_sbu_0, # of connection points: 4
#     Edge 16, Type (0, 0), BuildingBlock: UVAHIK_clean_linker_0, # of connection points: 2
#     Edge 17, Type (0, 0), BuildingBlock: UVAHIK_clean_linker_0, # of connection points: 2
#     Edge 18, Type (0, 0), BuildingBlock: UVAHIK_clean_linker_0, # of connection points: 2
#     Edge 19, Type (0, 0), BuildingBlock: UVAHIK_clean_linker_0, # of connection points: 2
#     Edge 20, Type (0, 0), BuildingBlock: UVAHIK_clean_linker_0, # of connection points: 2
#     Edge 21, Type (0, 0), BuildingBlock: UVAHIK_clean_linker_0, # of connection points: 2
#     Edge 22, Type (0, 0), BuildingBlock: UVAHIK_clean_linker_0, # of connection points: 2
#     Edge 23, Type (0, 0), BuildingBlock: UVAHIK_clean_linker_0, # of connection points: 2
#     Edge 24, Type (0, 0), BuildingBlock: UVAHIK_clean_linker_0, # of connection points: 2
#     Edge 25, Type (0, 0), BuildingBlock: UVAHIK_clean_linker_0, # of connection points: 2
#     Edge 26, Type (0, 0), BuildingBlock: UVAHIK_clean_linker_0, # of connection points: 2
#     Edge 27, Type (0, 0), BuildingBlock: UVAHIK_clean_linker_0, # of connection points: 2
#     Edge 28, Type (0, 0), BuildingBlock: UVAHIK_clean_linker_0, # of connection points: 2
#     Edge 29, Type (0, 0), BuildingBlock: UVAHIK_clean_linker_0, # of connection points: 2
#     Edge 30, Type (0, 0), BuildingBlock: UVAHIK_clean_linker_0, # of connection points: 2
#     Edge 31, Type (0, 0), BuildingBlock: UVAHIK_clean_linker_0, # of connection points: 2
#     Edge 32, Type (0, 0), BuildingBlock: UVAHIK_clean_linker_0, # of connection points: 2
#     Edge 33, Type (0, 0), BuildingBlock: UVAHIK_clean_linker_0, # of connection points: 2
#     Edge 34, Type (0, 0), BuildingBlock: UVAHIK_clean_linker_0, # of connection points: 2
#     Edge 35, Type (0, 0), BuildingBlock: UVAHIK_clean_linker_0, # of connection points: 2
#     Edge 36, Type (0, 0), BuildingBlock: UVAHIK_clean_linker_0, # of connection points: 2
#     Edge 37, Type (0, 0), BuildingBlock: UVAHIK_clean_linker_0, # of connection points: 2
#     Edge 38, Type (0, 0), BuildingBlock: UVAHIK_clean_linker_0, # of connection points: 2
#     Edge 39, Type (0, 0), BuildingBlock: UVAHIK_clean_linker_0, # of connection points: 2
#     Edge 40, Type (0, 0), BuildingBlock: UVAHIK_clean_linker_0, # of connection points: 2
#     Edge 41, Type (0, 0), BuildingBlock: UVAHIK_clean_linker_0, # of connection points: 2
#     Edge 42, Type (0, 0), BuildingBlock: UVAHIK_clean_linker_0, # of connection points: 2
#     Edge 43, Type (0, 0), BuildingBlock: UVAHIK_clean_linker_0, # of connection points: 2
#     Edge 44, Type (0, 0), BuildingBlock: UVAHIK_clean_linker_0, # of connection points: 2
#     Edge 45, Type (0, 0), BuildingBlock: UVAHIK_clean_linker_0, # of connection points: 2
#     Edge 46, Type (0, 0), BuildingBlock: UVAHIK_clean_linker_0, # of connection points: 2
#     Edge 47, Type (0, 0), BuildingBlock: UVAHIK_clean_linker_0, # of connection points: 2
# Relax obj value: 0.024
# Max RMSD: 0.072
# Mean RMSD: 0.062
data_MOF--net-cag--node1-TATPOV_clean_sbu_0--edge1-UVAHIK_clean_linker_0
_symmetry_space_group_name_H-M    P1
_symmetry_Int_Tables_number       1
_symmetry_cell_setting            triclinic
loop_
_symmetry_equiv_pos_as_xyz
'x, y, z'
_cell_length_a     55.539105
_cell_length_b     62.300122
_cell_length_c     55.354894
_cell_angle_alpha  89.99362
_cell_angle_beta   89.988571
_cell_angle_gamma 90.013433
loop_
_atom_site_label
_atom_site_type_symbol
_atom_site_fract_x
_atom_site_fract_y
_atom_site_fract_z
_atom_type_partial_charge
Zn0 Zn 0.30368 0.15338 0.03397 0.0
Zn1 Zn 0.28105 0.14818 0.07627 0.0
O2 O 0.31712 0.15158 0.08436 0.0
O3 O 0.33544 0.15928 0.05015 0.0
O4 O 0.26715 0.14565 0.11005 0.0
O5 O 0.28165 0.17758 0.0259 0.0
O6 O 0.26343 0.17448 0.06107 0.0
C7 C 0.33615 0.15643 0.07275 0.0
C8 C 0.28004 0.11215 0.0387 0.0
O9 O 0.27331 0.11956 0.05911 0.0
O10 O 0.29352 0.12325 0.02509 0.0
C11 C 0.26953 0.12839 0.12211 0.0
O12 O 0.27957 0.11167 0.11173 0.0
C13 C 0.26568 0.18379 0.04062 0.0
Zn14 Zn 0.19837 0.84467 0.52944 0.0
Zn15 Zn 0.21638 0.84849 0.57377 0.0
O16 O 0.17955 0.84618 0.57873 0.0
O17 O 0.16446 0.8456 0.54201 0.0
O18 O 0.22799 0.85054 0.60847 0.0
O19 O 0.21508 0.81644 0.5255 0.0
O20 O 0.23305 0.82097 0.56059 0.0
C21 C 0.16139 0.84568 0.56465 0.0
C22 C 0.22586 0.88326 0.5354 0.0
O23 O 0.22729 0.87682 0.55725 0.0
O24 O 0.21517 0.87191 0.51975 0.0
C25 C 0.22668 0.86798 0.62038 0.0
O26 O 0.21875 0.88535 0.60953 0.0
C27 C 0.22986 0.81006 0.54133 0.0
Zn28 Zn 0.29312 0.85563 0.97083 0.0
Zn29 Zn 0.27569 0.85781 0.92622 0.0
O30 O 0.31229 0.85329 0.92175 0.0
O31 O 0.327 0.85257 0.95862 0.0
O32 O 0.26442 0.85834 0.89134 0.0
O33 O 0.27292 0.82993 0.97778 0.0
O34 O 0.25682 0.83223 0.94153 0.0
C35 C 0.33024 0.85182 0.93601 0.0
C36 C 0.26917 0.89549 0.96155 0.0
O37 O 0.26679 0.88776 0.94032 0.0
O38 O 0.2794 0.88465 0.97793 0.0
C39 C 0.26778 0.87472 0.87803 0.0
O40 O 0.27763 0.89195 0.88751 0.0
C41 C 0.25806 0.8232 0.96221 0.0
Zn42 Zn 0.20226 0.14123 0.47193 0.0
Zn43 Zn 0.22192 0.13855 0.42783 0.0
O44 O 0.18557 0.14305 0.42213 0.0
O45 O 0.16929 0.14663 0.45813 0.0
O46 O 0.23405 0.1378 0.39327 0.0
O47 O 0.22412 0.16573 0.47978 0.0
O48 O 0.2404 0.16404 0.44355 0.0
C49 C 0.16714 0.14618 0.43538 0.0
C50 C 0.22562 0.1006 0.46308 0.0
O51 O 0.23033 0.10884 0.4425 0.0
O52 O 0.21372 0.11116 0.47857 0.0
C53 C 0.23071 0.1214 0.37998 0.0
O54 O 0.2206 0.10427 0.3894 0.0
C55 C 0.23918 0.17261 0.46447 0.0
Zn56 Zn 0.61504 0.9117 0.86279 0.0
Zn57 Zn 0.62795 0.87665 0.88914 0.0
O58 O 0.59201 0.87177 0.88304 0.0
O59 O 0.58066 0.90054 0.86293 0.0
O60 O 0.63766 0.85099 0.90899 0.0
O61 O 0.63857 0.90218 0.83691 0.0
O62 O 0.64972 0.87468 0.85924 0.0
C63 C 0.57559 0.88272 0.87276 0.0
C64 C 0.63403 0.92222 0.90974 0.0
O65 O 0.63521 0.90188 0.91165 0.0
O66 O 0.62649 0.93069 0.89035 0.0
C67 C 0.63233 0.84947 0.93127 0.0
O68 O 0.61992 0.8649 0.94159 0.0
C69 C 0.65171 0.88578 0.84001 0.0
Zn70 Zn 0.88274 0.08877 0.36162 0.0
Zn71 Zn 0.86892 0.12253 0.38963 0.0
O72 O 0.90504 0.12768 0.3848 0.0
O73 O 0.91662 0.10099 0.36142 0.0
O74 O 0.85841 0.14765 0.40999 0.0
O75 O 0.85884 0.09822 0.33624 0.0
O76 O 0.84773 0.12527 0.35928 0.0
C77 C 0.92151 0.1179 0.37316 0.0
C78 C 0.86372 0.07636 0.40825 0.0
O79 O 0.86152 0.09656 0.41091 0.0
O80 O 0.87217 0.06879 0.38875 0.0
C81 C 0.86269 0.14887 0.43252 0.0
O82 O 0.87461 0.1333 0.44315 0.0
C83 C 0.84576 0.11459 0.33974 0.0
Zn84 Zn 0.61698 0.08705 0.15079 0.0
Zn85 Zn 0.63335 0.11761 0.11935 0.0
O86 O 0.59743 0.12409 0.1227 0.0
O87 O 0.58391 0.10106 0.14974 0.0
O88 O 0.6448 0.14096 0.09694 0.0
O89 O 0.64147 0.09733 0.1752 0.0
O90 O 0.65423 0.12194 0.14967 0.0
C91 C 0.5803 0.11661 0.13545 0.0
C92 C 0.63613 0.07019 0.1056 0.0
O93 O 0.63993 0.08992 0.10099 0.0
O94 O 0.62656 0.06471 0.12548 0.0
C95 C 0.64155 0.14049 0.0742 0.0
O96 O 0.63052 0.12397 0.06446 0.0
C97 C 0.65547 0.11276 0.17021 0.0
Zn98 Zn 0.88064 0.91187 0.64901 0.0
Zn99 Zn 0.86506 0.87995 0.61952 0.0
O100 O 0.90074 0.87241 0.62391 0.0
O101 O 0.91409 0.89894 0.64657 0.0
O102 O 0.85192 0.85702 0.59752 0.0
O103 O 0.85727 0.90178 0.67467 0.0
O104 O 0.84387 0.87694 0.64979 0.0
C105 C 0.91797 0.88181 0.63483 0.0
C106 C 0.86186 0.92728 0.60383 0.0
O107 O 0.85953 0.90728 0.59973 0.0
O108 O 0.86992 0.9337 0.62399 0.0
C109 C 0.86246 0.85073 0.57839 0.0
O110 O 0.8835 0.85893 0.57267 0.0
C111 C 0.84297 0.88645 0.67015 0.0
Zn112 Zn 0.79641 0.64703 0.03286 0.0
Zn113 Zn 0.77607 0.64225 0.07623 0.0
O114 O 0.8122 0.64735 0.08283 0.0
O115 O 0.82904 0.65241 0.04732 0.0
O116 O 0.76328 0.64048 0.11051 0.0
O117 O 0.77434 0.67134 0.0254 0.0
O118 O 0.75693 0.66761 0.0609 0.0
C119 C 0.8308 0.65123 0.07007 0.0
C120 C 0.77395 0.60561 0.03936 0.0
O121 O 0.76895 0.61272 0.0604 0.0
O122 O 0.78552 0.61717 0.02453 0.0
C123 C 0.76671 0.624 0.12363 0.0
O124 O 0.77742 0.60716 0.11419 0.0
C125 C 0.75847 0.67705 0.04047 0.0
Zn126 Zn 0.69945 0.35356 0.5328 0.0
Zn127 Zn 0.71963 0.3577 0.57637 0.0
O128 O 0.68343 0.3529 0.58282 0.0
O129 O 0.66667 0.34842 0.54718 0.0
O130 O 0.73234 0.3591 0.61068 0.0
O131 O 0.72122 0.32902 0.52522 0.0
O132 O 0.73841 0.33218 0.56089 0.0
C133 C 0.66483 0.34936 0.56994 0.0
C134 C 0.7224 0.39469 0.53992 0.0
O135 O 0.72719 0.3873 0.5609 0.0
O136 O 0.71081 0.3834 0.52487 0.0
C137 C 0.72908 0.37559 0.62385 0.0
O138 O 0.71861 0.39255 0.61444 0.0
C139 C 0.73686 0.32293 0.54036 0.0
Zn140 Zn 0.798 0.34598 0.97259 0.0
Zn141 Zn 0.77932 0.35018 0.92825 0.0
O142 O 0.81565 0.34511 0.92291 0.0
O143 O 0.8309 0.33975 0.95908 0.0
O144 O 0.76757 0.35238 0.8936 0.0
O145 O 0.77497 0.32218 0.97947 0.0
O146 O 0.75992 0.3246 0.94275 0.0
C147 C 0.83362 0.34096 0.93643 0.0
C148 C 0.77635 0.38734 0.96478 0.0
O149 O 0.77158 0.37961 0.94396 0.0
O150 O 0.78778 0.3762 0.9801 0.0
C151 C 0.76993 0.36961 0.88147 0.0
O152 O 0.77899 0.38666 0.89207 0.0
C153 C 0.76024 0.31581 0.96359 0.0
Zn154 Zn 0.69512 0.65297 0.47157 0.0
Zn155 Zn 0.71541 0.64872 0.4277 0.0
O156 O 0.67899 0.65197 0.42133 0.0
O157 O 0.66204 0.65539 0.45704 0.0
O158 O 0.728 0.64647 0.39336 0.0
O159 O 0.71451 0.67962 0.47697 0.0
O160 O 0.73259 0.6756 0.44183 0.0
C161 C 0.66021 0.65444 0.43428 0.0
C162 C 0.72053 0.61288 0.46555 0.0
O163 O 0.72445 0.62006 0.44431 0.0
O164 O 0.70876 0.62403 0.48061 0.0
C165 C 0.72593 0.62916 0.38131 0.0
O166 O 0.71682 0.61212 0.3919 0.0
C167 C 0.72975 0.68595 0.46153 0.0
Zn168 Zn 0.11209 0.40874 0.8522 0.0
Zn169 Zn 0.12977 0.37776 0.88214 0.0
O170 O 0.09422 0.36984 0.87862 0.0
O171 O 0.07922 0.39443 0.85435 0.0
O172 O 0.14263 0.35446 0.90377 0.0
O173 O 0.13609 0.39937 0.82673 0.0
O174 O 0.15057 0.375 0.8516 0.0
C175 C 0.07641 0.37781 0.86724 0.0
C176 C 0.13133 0.425 0.89737 0.0
O177 O 0.13521 0.4052 0.90152 0.0
O178 O 0.12195 0.43082 0.87754 0.0
C179 C 0.13774 0.35348 0.92619 0.0
O180 O 0.12386 0.36823 0.93587 0.0
C181 C 0.15096 0.38447 0.8312 0.0
Zn182 Zn 0.38144 0.58751 0.35065 0.0
Zn183 Zn 0.36492 0.61848 0.38115 0.0
O184 O 0.40043 0.62667 0.37712 0.0
O185 O 0.41414 0.60203 0.35208 0.0
O186 O 0.3513 0.64067 0.4038 0.0
O187 O 0.35701 0.59701 0.3258 0.0
O188 O 0.34371 0.62173 0.35089 0.0
C189 C 0.41766 0.61855 0.36497 0.0
C190 C 0.36367 0.57091 0.39591 0.0
O191 O 0.3601 0.59073 0.40015 0.0
O192 O 0.37239 0.56504 0.3758 0.0
C193 C 0.36181 0.64656 0.42311 0.0
O194 O 0.38299 0.63847 0.42846 0.0
C195 C 0.34265 0.61224 0.33052 0.0
Zn196 Zn 0.11386 0.58727 0.13944 0.0
Zn197 Zn 0.12771 0.6211 0.11151 0.0
O198 O 0.09186 0.62679 0.1173 0.0
O199 O 0.08021 0.59997 0.14047 0.0
O200 O 0.13821 0.64622 0.09114 0.0
O201 O 0.13842 0.59623 0.16441 0.0
O202 O 0.14958 0.62331 0.14142 0.0
C203 C 0.07544 0.61714 0.12915 0.0
C204 C 0.13165 0.575 0.09231 0.0
O205 O 0.13411 0.5952 0.0898 0.0
O206 O 0.12355 0.56736 0.11193 0.0
C207 C 0.13384 0.6475 0.06863 0.0
O208 O 0.12183 0.63197 0.05801 0.0
C209 C 0.15171 0.61245 0.16082 0.0
Zn210 Zn 0.38133 0.41103 0.64028 0.0
Zn211 Zn 0.36761 0.37689 0.6128 0.0
O212 O 0.40347 0.37134 0.61873 0.0
O213 O 0.41501 0.39836 0.64164 0.0
O214 O 0.3572 0.35144 0.59292 0.0
O215 O 0.35658 0.40246 0.66528 0.0
O216 O 0.34553 0.37516 0.6426 0.0
C217 C 0.41985 0.38113 0.63048 0.0
C218 C 0.3638 0.42266 0.59277 0.0
O219 O 0.36132 0.40244 0.59057 0.0
O220 O 0.37179 0.43053 0.61231 0.0
C221 C 0.36183 0.34974 0.5705 0.0
O222 O 0.37404 0.36502 0.55965 0.0
C223 C 0.34324 0.38626 0.66181 0.0
C224 C 0.23341 0.21142 0.0492 0.0
C225 C 0.2491 0.20113 0.03294 0.0
C226 C 0.21772 0.22756 0.04104 0.0
C227 C 0.18759 0.24598 0.98583 0.0
H228 H 0.18868 0.30328 0.01314 0.0
C229 C 0.16094 0.31928 0.93024 0.0
C230 C 0.14744 0.33573 0.94109 0.0
C231 C 0.17004 0.30242 0.94407 0.0
C232 C 0.18782 0.28727 0.00558 0.0
H233 H 0.26053 0.19976 0.99541 0.0
H234 H 0.23331 0.22739 0.98143 0.0
H235 H 0.2102 0.27408 0.03355 0.0
H236 H 0.13303 0.3474 0.97508 0.0
H237 H 0.14904 0.31779 0.9993 0.0
H238 H 0.16586 0.25904 0.95758 0.0
C239 C 0.23301 0.22305 1.00039 0.0
C240 C 0.2001 0.27059 0.01728 0.0
C241 C 0.24876 0.20729 0.0085 0.0
C242 C 0.14334 0.33496 0.96617 0.0
C243 C 0.15258 0.31806 0.98006 0.0
C244 C 0.17531 0.26254 0.97423 0.0
C245 C 0.21724 0.23328 0.01646 0.0
C246 C 0.20075 0.24998 0.00702 0.0
C247 C 0.16591 0.30154 0.96911 0.0
C248 C 0.17598 0.28353 0.98349 0.0
H249 H 0.23329 0.20705 0.06814 0.0
H250 H 0.20574 0.2353 0.05379 0.0
H251 H 0.1875 0.23014 0.97776 0.0
H252 H 0.16453 0.31939 0.91101 0.0
H253 H 0.18063 0.29017 0.93513 0.0
C254 C 0.36192 0.67015 0.45996 0.0
C255 C 0.34976 0.66175 0.43977 0.0
C256 C 0.35023 0.68429 0.47576 0.0
C257 C 0.28955 0.70117 0.49518 0.0
H258 H 0.31974 0.75522 0.51224 0.0
C259 C 0.23534 0.77577 0.51895 0.0
C260 C 0.24369 0.79021 0.53656 0.0
C261 C 0.24905 0.75803 0.51231 0.0
C262 C 0.31125 0.74 0.50811 0.0
H263 H 0.31579 0.66158 0.4204 0.0
H264 H 0.29552 0.6861 0.44786 0.0
H265 H 0.34281 0.72806 0.49028 0.0
H266 H 0.27273 0.79697 0.56158 0.0
H267 H 0.29703 0.76575 0.54971 0.0
H268 H 0.25782 0.71326 0.51231 0.0
C269 C 0.314 0.68166 0.45162 0.0
C270 C 0.32444 0.72448 0.49548 0.0
C271 C 0.3257 0.66773 0.43576 0.0
C272 C 0.26582 0.78609 0.54799 0.0
C273 C 0.27977 0.76833 0.5411 0.0
C274 C 0.27643 0.71661 0.50783 0.0
C275 C 0.32609 0.69007 0.47182 0.0
C276 C 0.31345 0.70521 0.48819 0.0
C277 C 0.2716 0.75425 0.52297 0.0
C278 C 0.28686 0.73649 0.51371 0.0
H279 H 0.38047 0.66586 0.46354 0.0
H280 H 0.35997 0.6905 0.4912 0.0
H281 H 0.28077 0.68626 0.49027 0.0
H282 H 0.21832 0.7784 0.50986 0.0
H283 H 0.24236 0.74772 0.49805 0.0
C284 C 0.22773 0.79433 0.95192 0.0
C285 C 0.24158 0.80551 0.96909 0.0
C286 C 0.21227 0.77771 0.95924 0.0
C287 C 0.17935 0.75825 0.01261 0.0
H288 H 0.18555 0.70114 0.98551 0.0
C289 C 0.15392 0.68338 0.06633 0.0
C290 C 0.14252 0.66618 0.05456 0.0
C291 C 0.16248 0.7009 0.0532 0.0
C292 C 0.18325 0.71707 0.99298 0.0
H293 H 0.24984 0.8081 0.00736 0.0
H294 H 0.22302 0.77959 0.01988 0.0
H295 H 0.20661 0.73131 0.96651 0.0
H296 H 0.13113 0.65395 0.01967 0.0
H297 H 0.14619 0.6847 0.99668 0.0
H298 H 0.15662 0.74414 0.03942 0.0
C299 C 0.22398 0.78359 1.00085 0.0
C300 C 0.19528 0.73432 0.98208 0.0
C301 C 0.23953 0.79984 0.99359 0.0
C302 C 0.13982 0.66696 0.0293 0.0
C303 C 0.14852 0.68451 0.0161 0.0
C304 C 0.16733 0.74112 0.02341 0.0
C305 C 0.21014 0.77237 0.98385 0.0
C306 C 0.19408 0.75492 0.99232 0.0
C307 C 0.15991 0.70169 0.02794 0.0
C308 C 0.16979 0.72021 0.01424 0.0
H309 H 0.22896 0.79831 0.93292 0.0
H310 H 0.2018 0.76922 0.94578 0.0
H311 H 0.1778 0.77406 0.02062 0.0
H312 H 0.15636 0.6833 0.08574 0.0
H313 H 0.17155 0.71368 0.06283 0.0
C314 C 0.35628 0.32955 0.53159 0.0
C315 C 0.35323 0.33083 0.55678 0.0
C316 C 0.34766 0.31179 0.51871 0.0
C317 C 0.32846 0.25541 0.52709 0.0
H318 H 0.29034 0.26432 0.46923 0.0
C319 C 0.25754 0.19558 0.49632 0.0
C320 C 0.25568 0.19015 0.47174 0.0
C321 C 0.27288 0.21192 0.50386 0.0
C322 C 0.30133 0.26154 0.48509 0.0
H323 H 0.33884 0.31438 0.58819 0.0
H324 H 0.32379 0.28362 0.56582 0.0
H325 H 0.31102 0.29476 0.48802 0.0
H326 H 0.26849 0.19777 0.43574 0.0
H327 H 0.29529 0.22689 0.44908 0.0
H328 H 0.31812 0.22241 0.52473 0.0
C329 C 0.33308 0.29618 0.556 0.0
C330 C 0.31315 0.27895 0.49586 0.0
C331 C 0.34156 0.31391 0.56882 0.0
C332 C 0.26957 0.20156 0.4548 0.0
C333 C 0.28482 0.21823 0.4624 0.0
C334 C 0.31666 0.23809 0.51639 0.0
C335 C 0.336 0.29489 0.53081 0.0
C336 C 0.32621 0.27616 0.51742 0.0
C337 C 0.2867 0.22342 0.48706 0.0
C338 C 0.30237 0.24109 0.49573 0.0
H339 H 0.36519 0.34232 0.52177 0.0
H340 H 0.35027 0.31121 0.49933 0.0
H341 H 0.33886 0.25264 0.54335 0.0
H342 H 0.24718 0.18714 0.50992 0.0
H343 H 0.27362 0.21578 0.52293 0.0
C344 C 0.73928 0.69951 0.00872 0.0
C345 C 0.74119 0.69398 0.03327 0.0
C346 C 0.72312 0.71516 0.00116 0.0
C347 C 0.69246 0.76354 0.01939 0.0
H348 H 0.65536 0.7528 0.96123 0.0
C349 C 0.63705 0.8299 0.97067 0.0
C350 C 0.64055 0.83073 0.94551 0.0
C351 C 0.64551 0.81241 0.98411 0.0
C352 C 0.6656 0.75607 0.97747 0.0
H353 H 0.72762 0.70072 0.0692 0.0
H354 H 0.69939 0.72879 0.05582 0.0
H355 H 0.6769 0.72337 0.98057 0.0
H356 H 0.65544 0.81375 0.91473 0.0
H357 H 0.67023 0.78346 0.93807 0.0
H358 H 0.68197 0.79649 0.01564 0.0
C359 C 0.71045 0.72066 0.04255 0.0
C360 C 0.67783 0.73921 0.98859 0.0
C361 C 0.72652 0.70462 0.05017 0.0
C362 C 0.6524 0.81362 0.93406 0.0
C363 C 0.66072 0.79615 0.94743 0.0
C364 C 0.68023 0.78049 0.00819 0.0
C365 C 0.70852 0.72591 0.01791 0.0
C366 C 0.69204 0.74291 0.00917 0.0
C367 C 0.65746 0.79536 0.97261 0.0
C368 C 0.66735 0.77704 0.98664 0.0
H369 H 0.75021 0.69162 0.99516 0.0
H370 H 0.72232 0.71911 0.98211 0.0
H371 H 0.70339 0.76682 0.03517 0.0
H372 H 0.62798 0.84284 0.98005 0.0
H373 H 0.64263 0.8122 0.00346 0.0
C374 C 0.84236 0.18463 0.43489 0.0
C375 C 0.85395 0.16752 0.44662 0.0
C376 C 0.8337 0.20209 0.44805 0.0
C377 C 0.81318 0.21809 0.50846 0.0
H378 H 0.81751 0.2751 0.48066 0.0
C379 C 0.76806 0.29469 0.55011 0.0
C380 C 0.75377 0.30569 0.53317 0.0
C381 C 0.78374 0.27833 0.54254 0.0
C382 C 0.81627 0.25929 0.48872 0.0
H383 H 0.86563 0.1554 0.48145 0.0
H384 H 0.85043 0.18605 0.50449 0.0
H385 H 0.83889 0.24541 0.46167 0.0
H386 H 0.74504 0.30833 0.49502 0.0
H387 H 0.77228 0.28028 0.48204 0.0
H388 H 0.78995 0.23209 0.53519 0.0
C389 C 0.848 0.18583 0.48508 0.0
C390 C 0.82841 0.24228 0.4778 0.0
C391 C 0.85678 0.16833 0.47186 0.0
C392 C 0.75568 0.30018 0.50861 0.0
C393 C 0.77147 0.28419 0.50109 0.0
C394 C 0.80105 0.23521 0.51948 0.0
C395 C 0.83638 0.20292 0.47329 0.0
C396 C 0.82636 0.22135 0.48705 0.0
C397 C 0.78568 0.2731 0.51789 0.0
C398 C 0.80185 0.25581 0.5092 0.0
H399 H 0.83981 0.18451 0.41549 0.0
H400 H 0.82445 0.21479 0.43844 0.0
H401 H 0.81119 0.20215 0.51599 0.0
H402 H 0.76694 0.29856 0.56915 0.0
H403 H 0.79451 0.26995 0.55585 0.0
C404 C 0.73834 0.29476 0.99474 0.0
C405 C 0.74306 0.29862 0.97018 0.0
C406 C 0.72289 0.27835 0.00177 0.0
C407 C 0.70076 0.2261 0.98452 0.0
H408 H 0.65651 0.23604 0.0376 0.0
C409 C 0.64863 0.15753 0.03363 0.0
C410 C 0.64981 0.15862 0.059 0.0
C411 C 0.6565 0.17479 0.01944 0.0
C412 C 0.66876 0.23299 0.02276 0.0
H413 H 0.73505 0.28834 0.93365 0.0
H414 H 0.70808 0.25896 0.94615 0.0
H415 H 0.676 0.26644 0.01792 0.0
H416 H 0.66011 0.1787 0.08931 0.0
H417 H 0.67378 0.20861 0.06469 0.0
H418 H 0.69422 0.19252 0.9901 0.0
C419 C 0.71638 0.26894 0.95983 0.0
C420 C 0.67983 0.25039 0.01144 0.0
C421 C 0.7317 0.28574 0.9527 0.0
C422 C 0.65891 0.17732 0.06984 0.0
C423 C 0.66657 0.19455 0.05572 0.0
C424 C 0.68965 0.20861 0.9959 0.0
C425 C 0.71184 0.26517 0.98448 0.0
C426 C 0.69659 0.24709 0.9928 0.0
C427 C 0.66543 0.19353 0.03038 0.0
C428 C 0.67422 0.21189 0.01571 0.0
H429 H 0.74667 0.30444 0.00869 0.0
H430 H 0.72005 0.27564 0.0209 0.0
H431 H 0.7137 0.2231 0.97027 0.0
H432 H 0.64173 0.14333 0.02472 0.0
H433 H 0.65538 0.17356 0.99996 0.0
C434 C 0.86255 0.82648 0.54206 0.0
C435 C 0.85053 0.83501 0.56227 0.0
C436 C 0.8509 0.81194 0.5267 0.0
C437 C 0.79018 0.79422 0.50848 0.0
H438 H 0.82077 0.74044 0.49109 0.0
C439 C 0.73628 0.71932 0.48535 0.0
C440 C 0.74416 0.70533 0.46708 0.0
C441 C 0.75018 0.73688 0.4922 0.0
C442 C 0.81216 0.75557 0.49534 0.0
H443 H 0.81687 0.83488 0.5822 0.0
H444 H 0.79668 0.80966 0.55552 0.0
H445 H 0.84386 0.76792 0.51259 0.0
H446 H 0.77267 0.69908 0.44127 0.0
H447 H 0.79734 0.72999 0.45355 0.0
H448 H 0.75834 0.78173 0.49193 0.0
C449 C 0.81501 0.81432 0.55138 0.0
C450 C 0.82535 0.77128 0.5077 0.0
C451 C 0.82667 0.82867 0.5668 0.0
C452 C 0.76612 0.70962 0.45538 0.0
C453 C 0.78027 0.7272 0.46248 0.0
C454 C 0.77706 0.7786 0.49612 0.0
C455 C 0.82693 0.80586 0.53111 0.0
C456 C 0.81423 0.79046 0.51508 0.0
C457 C 0.77244 0.74093 0.48108 0.0
C458 C 0.78765 0.75882 0.49013 0.0
H459 H 0.88095 0.83103 0.53809 0.0
H460 H 0.86051 0.80569 0.51119 0.0
H461 H 0.78129 0.80905 0.51344 0.0
H462 H 0.71941 0.71656 0.49468 0.0
H463 H 0.74379 0.74692 0.50683 0.0
C464 C 0.27644 0.08414 0.00656 0.0
C465 C 0.27252 0.09049 0.03063 0.0
C466 C 0.27062 0.06344 0.99892 0.0
C467 C 0.26504 0.009 0.02215 0.0
H468 H 0.23743 0.99671 0.95927 0.0
C469 C 0.25409 0.92217 0.99127 0.0
C470 C 0.26118 0.91746 0.9675 0.0
C471 C 0.25031 0.94332 0.99851 0.0
C472 C 0.24529 -0.00013 0.97681 0.0
H473 H 0.25876 0.08018 0.06541 0.0
H474 H 0.24878 0.04378 0.05206 0.0
H475 H 0.24037 0.03386 0.97322 0.0
H476 H 0.26863 0.93101 0.93228 0.0
H477 H 0.2628 0.96826 0.94509 0.0
H478 H 0.27097 0.97533 0.02552 0.0
C479 C 0.25643 0.05493 0.03916 0.0
C480 C 0.2469 0.02113 0.98483 0.0
C481 C 0.26207 0.07577 0.04677 0.0
C482 C 0.26308 0.93424 0.95069 0.0
C483 C 0.25969 0.95556 0.95807 0.0
C484 C 0.26362 0.98782 0.01409 0.0
C485 C 0.26089 0.0485 0.0152 0.0
C486 C 0.25703 0.02593 0.00749 0.0
C487 C 0.25401 0.96038 0.9823 0.0
C488 C 0.25391 0.98294 0.99124 0.0
H489 H 0.28434 0.0951 0.99359 0.0
H490 H 0.27453 0.05891 0.98044 0.0
H491 H 0.27334 0.01219 0.03949 0.0
H492 H 0.25215 0.90948 0.00452 0.0
H493 H 0.24521 0.94633 0.01709 0.0
C494 C 0.23987 0.90868 0.50358 0.0
C495 C 0.2351 0.90456 0.52808 0.0
C496 C 0.24517 0.92943 0.49571 0.0
C497 C 0.25975 0.98493 0.51639 0.0
H498 H 0.22549 0.00087 0.45801 0.0
C499 C 0.23269 0.07162 0.4934 0.0
C500 C 0.23339 0.07852 0.46922 0.0
C501 C 0.2381 0.05043 0.49944 0.0
C502 C 0.23557 0.99663 0.47407 0.0
H503 H 0.23336 0.91873 0.56376 0.0
H504 H 0.24195 0.9552 0.54997 0.0
H505 H 0.22555 0.96368 0.47114 0.0
H506 H 0.24117 0.06871 0.43247 0.0
H507 H 0.25044 0.0314 0.44305 0.0
H508 H 0.26883 0.01824 0.51973 0.0
C509 C 0.24202 0.94232 0.53684 0.0
C510 C 0.23564 0.97525 0.48164 0.0
C511 C 0.23702 0.92143 0.54478 0.0
C512 C 0.24042 0.06387 0.45125 0.0
C513 C 0.24563 0.04252 0.45729 0.0
C514 C 0.25955 0.00638 0.50887 0.0
C515 C 0.24547 0.94666 0.51209 0.0
C516 C 0.24741 0.96915 0.5031 0.0
C517 C 0.2442 0.03552 0.48144 0.0
C518 C 0.2471 0.01251 0.48784 0.0
H519 H 0.23889 0.89593 0.49031 0.0
H520 H 0.24838 0.93203 0.47664 0.0
H521 H 0.26932 0.98077 0.53278 0.0
H522 H 0.2275 0.08251 0.50774 0.0
H523 H 0.23654 0.04553 0.51815 0.0
C524 C 0.64332 0.92701 0.95372 0.0
C525 C 0.64033 0.93597 0.9306 0.0
C526 C 0.64724 0.9402 0.97375 0.0
C527 C 0.66617 0.99443 0.99241 0.0
H528 H 0.6228 0.98537 0.04635 0.0
C529 C 0.64715 0.05984 0.06333 0.0
C530 C 0.64179 0.05373 0.08717 0.0
C531 C 0.65062 0.04435 0.04544 0.0
C532 C 0.63544 0.98792 0.03173 0.0
H533 H 0.64016 0.96574 0.91024 0.0
H534 H 0.64717 0.98871 0.94521 0.0
H535 H 0.62289 0.96012 0.01284 0.0
H536 H 0.63702 0.02654 0.11117 0.0
H537 H 0.64371 -0.00051 0.0801 0.0
H538 H 0.67868 0.02229 0.0112 0.0
C539 C 0.64646 0.97149 0.94781 0.0
C540 C 0.63542 0.97344 0.01248 0.0
C541 C 0.64229 0.95833 0.92781 0.0
C542 C 0.64087 0.03178 0.09292 0.0
C543 C 0.64459 0.01627 0.07506 0.0
C544 C 0.66638 0.00881 0.01179 0.0
C545 C 0.64854 0.96259 0.97103 0.0
C546 C 0.65046 0.97677 0.99243 0.0
C547 C 0.64906 0.02235 0.05099 0.0
C548 C 0.65067 0.00597 0.03149 0.0
H549 H 0.64196 0.90983 0.95648 0.0
H550 H 0.64898 0.93291 0.99144 0.0
H551 H 0.67816 0.99722 0.97729 0.0
H552 H 0.64792 0.07662 0.05827 0.0
H553 H 0.65366 0.04968 0.02707 0.0
C554 C 0.85767 0.03938 0.42503 0.0
C555 C 0.85759 0.06174 0.42843 0.0
C556 C 0.85371 0.02554 0.4445 0.0
C557 C 0.86152 0.02324 0.50975 0.0
H558 H 0.82287 0.97154 0.50551 0.0
C559 C 0.85492 0.96507 0.59005 0.0
C560 C 0.85625 0.94306 0.58466 0.0
C561 C 0.85135 0.98012 0.57169 0.0
C562 C 0.8339 0.98582 0.50693 0.0
H563 H 0.85248 0.08712 0.45481 0.0
H564 H 0.84576 0.0629 0.4888 0.0
H565 H 0.82334 0.99684 0.47179 0.0
H566 H 0.85424 0.91954 0.55584 0.0
H567 H 0.84874 0.94579 0.52375 0.0
H568 H 0.87289 0.01202 0.54435 0.0
C569 C 0.84899 0.05613 0.47107 0.0
C570 C 0.83408 0.00033 0.48765 0.0
C571 C 0.85274 0.06997 0.45157 0.0
C572 C 0.85324 0.93638 0.5606 0.0
C573 C 0.84993 0.95145 0.5422 0.0
C574 C 0.86152 0.00868 0.52891 0.0
C575 C 0.84978 0.03378 0.46779 0.0
C576 C 0.84807 0.01909 0.4888 0.0
C577 C 0.84931 0.97354 0.54746 0.0
C578 C 0.8479 0.98967 0.52767 0.0
H579 H 0.86126 0.03251 0.40742 0.0
H580 H 0.85461 0.00838 0.44147 0.0
H581 H 0.87277 0.03741 0.511 0.0
H582 H 0.85689 0.97072 0.60844 0.0
H583 H 0.85045 0.99695 0.57649 0.0
C584 C 0.76324 0.42469 0.95359 0.0
C585 C 0.76921 0.40948 0.97135 0.0
C586 C 0.75874 0.44606 0.96006 0.0
C587 C 0.74433 0.48163 0.01179 0.0
H588 H 0.7813 0.5239 0.97629 0.0
C589 C 0.76418 0.56705 0.04857 0.0
C590 C 0.76686 0.58376 0.03177 0.0
C591 C 0.76039 0.54595 0.04063 0.0
C592 C 0.77041 0.51246 0.98616 0.0
H593 H 0.7739 0.40449 0.00989 0.0
H594 H 0.76596 0.44155 0.02105 0.0
H595 H 0.78106 0.48683 0.96278 0.0
H596 H 0.76587 0.59183 0.99367 0.0
H597 H 0.75839 0.55544 0.97994 0.0
H598 H 0.73385 0.50727 0.03534 0.0
C599 C 0.76477 0.43706 0.00218 0.0
C600 C 0.77032 0.49115 0.97838 0.0
C601 C 0.76953 0.41584 0.99573 0.0
C602 C 0.7643 0.57921 0.00705 0.0
C603 C 0.76016 0.55829 0.99916 0.0
C604 C 0.74425 0.50303 0.0195 0.0
C605 C 0.75979 0.4525 0.98441 0.0
C606 C 0.75758 0.47545 0.99128 0.0
C607 C 0.75889 0.54126 0.01576 0.0
C608 C 0.75755 0.51868 0.00694 0.0
H609 H 0.76282 0.42026 0.93467 0.0
H610 H 0.75477 0.45762 0.946 0.0
H611 H 0.73419 0.46987 0.022 0.0
H612 H 0.76611 0.57012 0.06774 0.0
H613 H 0.75967 0.53323 0.05395 0.0
C614 C 0.73274 0.42135 0.50809 0.0
C615 C 0.72975 0.41658 0.53271 0.0
C616 C 0.73704 0.44234 0.50051 0.0
C617 C 0.7525 0.4975 0.52165 0.0
H618 H 0.71684 0.51394 0.4643 0.0
C619 C 0.72796 0.58491 0.49707 0.0
C620 C 0.7284 0.59104 0.47261 0.0
C621 C 0.73278 0.56375 0.50381 0.0
C622 C 0.72727 0.50956 0.48009 0.0
H623 H 0.7299 0.42991 0.56883 0.0
H624 H 0.73662 0.46692 0.55556 0.0
H625 H 0.71627 0.47684 0.47763 0.0
H626 H 0.73527 0.57994 0.43614 0.0
H627 H 0.74351 0.54279 0.44796 0.0
H628 H 0.76258 0.53065 0.52447 0.0
C629 C 0.73611 0.45432 0.5421 0.0
C630 C 0.72698 0.48823 0.48777 0.0
C631 C 0.73218 0.43314 0.54974 0.0
C632 C 0.73475 0.57572 0.45512 0.0
C633 C 0.73934 0.55444 0.46187 0.0
C634 C 0.75261 0.51894 0.51403 0.0
C635 C 0.73802 0.45924 0.5173 0.0
C636 C 0.73947 0.48189 0.50874 0.0
C637 C 0.73795 0.54816 0.48625 0.0
C638 C 0.73982 0.52521 0.49326 0.0
H639 H 0.73137 0.40885 0.49455 0.0
H640 H 0.73914 0.44536 0.48135 0.0
H641 H 0.76258 0.49318 0.53766 0.0
H642 H 0.72328 0.59635 0.51103 0.0
H643 H 0.73136 0.5594 0.52271 0.0
C644 C 0.14088 0.56878 0.04855 0.0
C645 C 0.13716 0.56048 0.07188 0.0
C646 C 0.14414 0.55499 0.02892 0.0
C647 C 0.16028 0.49972 0.01183 0.0
H648 H 0.11854 0.50983 0.95687 0.0
C649 C 0.14115 0.43478 0.94012 0.0
C650 C 0.13674 0.44117 0.91618 0.0
C651 C 0.14442 0.45009 0.95827 0.0
C652 C 0.13072 0.50695 0.97179 0.0
H653 H 0.13496 0.53121 0.09303 0.0
H654 H 0.14086 0.50718 0.05874 0.0
H655 H 0.11906 0.53536 0.99009 0.0
H656 H 0.13346 0.4686 0.89229 0.0
H657 H 0.13987 0.49529 0.92378 0.0
H658 H 0.17198 0.4713 0.99359 0.0
C659 C 0.14121 0.52435 0.05568 0.0
C660 C 0.13094 0.52158 0.99088 0.0
C661 C 0.13768 0.53812 0.07528 0.0
C662 C 0.13656 0.46317 0.91062 0.0
C663 C 0.1401 0.47848 0.92872 0.0
C664 C 0.16027 0.48516 0.99261 0.0
C665 C 0.14405 0.53264 0.03225 0.0
C666 C 0.14545 0.51796 0.01124 0.0
C667 C 0.14363 0.47215 0.95286 0.0
C668 C 0.1452 0.48842 0.97249 0.0
H669 H 0.14062 0.58593 0.04532 0.0
H670 H 0.1465 0.5618 0.01107 0.0
H671 H 0.17184 0.49667 0.02722 0.0
H672 H 0.14132 0.41795 0.94503 0.0
H673 H 0.14673 0.44458 0.97668 0.0
C674 C 0.35889 0.53276 0.40952 0.0
C675 C 0.3586 0.5548 0.41489 0.0
C676 C 0.35551 0.51755 0.42778 0.0
C677 C 0.33536 0.51131 0.49172 0.0
H678 H 0.37672 0.4612 0.48986 0.0
C679 C 0.35788 0.45933 0.57514 0.0
C680 C 0.35843 0.43694 0.57209 0.0
C681 C 0.35443 0.47287 0.55532 0.0
C682 C 0.3648 0.47495 0.49047 0.0
H683 H 0.3541 0.57818 0.44359 0.0
H684 H 0.34895 0.55174 0.47547 0.0
H685 H 0.37717 0.48641 0.4563 0.0
H686 H 0.35516 0.41117 0.54589 0.0
H687 H 0.34941 0.4349 0.51125 0.0
H688 H 0.32378 0.50012 0.52646 0.0
C689 C 0.35121 0.54612 0.45711 0.0
C690 C 0.36499 0.4894 0.47119 0.0
C691 C 0.35434 0.56131 0.43882 0.0
C692 C 0.35486 0.42836 0.54886 0.0
C693 C 0.35167 0.44192 0.52901 0.0
C694 C 0.33537 0.49695 0.51113 0.0
C695 C 0.35203 0.52403 0.45188 0.0
C696 C 0.35047 0.5079 0.47167 0.0
C697 C 0.3517 0.4643 0.53201 0.0
C698 C 0.35027 0.47875 0.51078 0.0
H699 H 0.3619 0.52721 0.39122 0.0
H700 H 0.35579 0.5007 0.423 0.0
H701 H 0.3236 0.52516 0.49252 0.0
H702 H 0.36049 0.46645 0.5928 0.0
H703 H 0.35472 0.49008 0.55813 0.0
C704 C 0.53992 0.12636 0.15212 0.0
C705 C 0.55579 0.12522 0.13246 0.0
C706 C 0.51629 0.13356 0.14887 0.0
C707 C 0.47536 0.15852 0.10237 0.0
H708 H 0.42591 0.13385 0.14311 0.0
C709 C 0.37581 0.17374 0.08046 0.0
C710 C 0.35953 0.15708 0.08514 0.0
C711 C 0.39905 0.17311 0.09008 0.0
C712 C 0.43936 0.14068 0.13124 0.0
H713 H 0.55959 0.13047 0.09401 0.0
H714 H 0.5182 0.14145 0.08784 0.0
H715 H 0.46764 0.12586 0.15118 0.0
H716 H 0.35428 0.12687 0.1036 0.0
H717 H 0.3952 0.12471 0.11882 0.0
H718 H 0.44717 0.17151 0.08093 0.0
C719 C 0.52395 0.13797 0.10609 0.0
C720 C 0.46357 0.13646 0.13625 0.0
C721 C 0.54774 0.13146 0.10952 0.0
C722 C 0.36656 0.14001 0.1 0.0
C723 C 0.39008 0.13893 0.10887 0.0
C724 C 0.45118 0.16213 0.09686 0.0
C725 C 0.50777 0.13909 0.12569 0.0
C726 C 0.48198 0.14504 0.12166 0.0
C727 C 0.40688 0.1553 0.10372 0.0
C728 C 0.43272 0.15303 0.111 0.0
H729 H 0.54583 0.12178 0.17005 0.0
H730 H 0.50478 0.13468 0.16458 0.0
H731 H 0.48882 0.16607 0.09108 0.0
H732 H 0.3706 0.18717 0.06917 0.0
H733 H 0.41094 0.18645 0.08632 0.0
C734 C 0.96241 0.88658 0.63958 0.0
C735 C 0.9429 0.87365 0.63255 0.0
C736 C 0.98604 0.87995 0.63541 0.0
C737 C 0.02081 0.84363 0.59582 0.0
H738 H 0.0737 0.86292 0.63604 0.0
C739 C 0.13226 0.84201 0.59919 0.0
C740 C 0.13661 0.84558 0.5745 0.0
C741 C 0.1087 0.84219 0.60823 0.0
C742 C 0.05919 0.85705 0.62476 0.0
H743 H 0.93294 0.84308 0.61672 0.0
H744 H 0.97425 0.83114 0.61013 0.0
H745 H 0.0325 0.86796 0.64973 0.0
H746 H 0.11966 0.85228 0.54 0.0
H747 H 0.07899 0.85332 0.55575 0.0
H748 H 0.04746 0.83226 0.57112 0.0
C749 C 0.97128 0.84672 0.61825 0.0
C750 C 0.03549 0.86024 0.63247 0.0
C751 C 0.94758 0.8535 0.62216 0.0
C752 C 0.11696 0.8493 0.55908 0.0
C753 C 0.09354 0.84971 0.56812 0.0
C754 C 0.04448 0.84019 0.58827 0.0
C755 C 0.99082 0.86006 0.62437 0.0
C756 C 0.01597 0.85412 0.61779 0.0
C757 C 0.08904 0.84615 0.5928 0.0
C758 C 0.06399 0.84742 0.6023 0.0
H759 H 0.95947 0.90224 0.64754 0.0
H760 H 0.0005 0.89087 0.64 0.0
H761 H 0.00634 0.83881 0.58389 0.0
H762 H 0.14701 0.83899 0.61152 0.0
H763 H 0.10592 0.83915 0.62729 0.0
C764 C 0.37479 0.85152 0.94218 0.0
C765 C 0.35505 0.85016 0.92639 0.0
C766 C 0.39828 0.8512 0.93331 0.0
C767 C 0.43328 0.8619 0.87796 0.0
H768 H 0.48487 0.83813 0.9168 0.0
C769 C 0.54458 0.85441 0.88116 0.0
C770 C 0.55028 0.87533 0.87357 0.0
C771 C 0.52056 0.84809 0.88385 0.0
C772 C 0.47075 0.84453 0.9054 0.0
H773 H 0.34456 0.84676 0.88884 0.0
H774 H 0.38573 0.84573 0.87332 0.0
H775 H 0.44337 0.83184 0.92844 0.0
H776 H 0.53522 0.90582 0.86219 0.0
H777 H 0.49356 0.89513 0.86765 0.0
H778 H 0.46071 0.87428 0.85469 0.0
C779 C 0.38298 0.84747 0.89258 0.0
C780 C 0.44687 0.84119 0.91233 0.0
C781 C 0.35938 0.84795 0.90148 0.0
C782 C 0.53146 0.88956 0.868 0.0
C783 C 0.50749 0.88334 0.87097 0.0
C784 C 0.45719 0.86503 0.87087 0.0
C785 C 0.40272 0.8493 0.90839 0.0
C786 C 0.42786 0.85037 0.89912 0.0
C787 C 0.50171 0.86264 0.8793 0.0
C788 C 0.47626 0.85691 0.88489 0.0
H789 H 0.37216 0.85335 0.96146 0.0
H790 H 0.41294 0.85311 0.94602 0.0
H791 H 0.41914 0.86929 0.86738 0.0
H792 H 0.55867 0.84299 0.88537 0.0
H793 H 0.51681 0.83189 0.88983 0.0
C794 C 0.13875 0.14149 0.40055 0.0
C795 C 0.14296 0.14822 0.42442 0.0
C796 C 0.11539 0.14146 0.39111 0.0
C797 C 0.05418 0.16312 0.39958 0.0
H798 H 0.03324 0.10849 0.37348 0.0
C799 C 0.95406 0.13952 0.39287 0.0
C800 C 0.94672 0.12548 0.37443 0.0
C801 C 0.97834 0.1449 0.39556 0.0
C802 C 0.0388 0.12404 0.38019 0.0
H803 H 0.12619 0.16122 0.45666 0.0
H804 H 0.08554 0.16137 0.44008 0.0
H805 H 0.07538 0.11373 0.38378 0.0
H806 H 0.95885 0.1071 0.34347 0.0
H807 H 0.00103 0.11704 0.34764 0.0
H808 H 0.01761 0.17346 0.39613 0.0
C809 C 0.10026 0.15606 0.42871 0.0
C810 C 0.063 0.127 0.38615 0.0
C811 C 0.12352 0.15582 0.43825 0.0
C812 C 0.96399 0.11775 0.35805 0.0
C813 C 0.98821 0.12335 0.36054 0.0
C814 C 0.03 0.16027 0.39335 0.0
C815 C 0.09589 0.14847 0.40523 0.0
C816 C 0.07084 0.1464 0.39634 0.0
C817 C 0.9958 0.13658 0.37968 0.0
C818 C 0.0219 0.14053 0.38403 0.0
H819 H 0.15336 0.13555 0.38944 0.0
H820 H 0.11251 0.13565 0.3729 0.0
H821 H 0.05983 0.17833 0.4072 0.0
H822 H 0.94119 0.14569 0.40584 0.0
H823 H 0.98348 0.15488 0.41071 0.0
C824 C 0.04312 0.64009 0.11104 0.0
C825 C 0.05042 0.62525 0.12869 0.0
C826 C 0.01896 0.64612 0.10913 0.0
C827 C 0.95827 0.62606 0.12464 0.0
H828 H 0.93836 0.68175 0.10057 0.0
C829 C 0.85873 0.64543 0.10506 0.0
C830 C 0.85478 0.65309 0.0815 0.0
C831 C 0.882 0.64496 0.1147 0.0
C832 C 0.94369 0.66616 0.10738 0.0
H833 H 0.03837 0.60607 0.15908 0.0
H834 H 0.99641 0.61709 0.15625 0.0
H835 H 0.98056 0.67562 0.1109 0.0
H836 H 0.87188 0.66738 0.05013 0.0
H837 H 0.91236 0.66672 0.06705 0.0
H838 H 0.92144 0.61658 0.12088 0.0
C839 C 0.00916 0.62358 0.14337 0.0
C840 C 0.96786 0.66259 0.11319 0.0
C841 C 0.03326 0.61734 0.14509 0.0
C842 C 0.87435 0.66126 0.06828 0.0
C843 C 0.89752 0.66104 0.07803 0.0
C844 C 0.9341 0.62971 0.11908 0.0
C845 C 0.00159 0.63765 0.12501 0.0
C846 C 0.97555 0.64233 0.12138 0.0
C847 C 0.90167 0.65243 0.1011 0.0
C848 C 0.92666 0.64964 0.10992 0.0
H849 H 0.0559 0.64642 0.09808 0.0
H850 H 0.01381 0.65676 0.09455 0.0
H851 H 0.96351 0.61015 0.13048 0.0
H852 H 0.84401 0.63904 0.1157 0.0
H853 H 0.8847 0.63837 0.13261 0.0
C854 C 0.62124 0.33947 0.56795 0.0
C855 C 0.6408 0.34751 0.58128 0.0
C856 C 0.59806 0.33953 0.57772 0.0
C857 C 0.56126 0.37011 0.61931 0.0
H858 H 0.51541 0.32373 0.6111 0.0
C859 C 0.46213 0.38124 0.6462 0.0
C860 C 0.44495 0.37318 0.62993 0.0
C861 C 0.4863 0.37527 0.64425 0.0
C862 C 0.52793 0.33689 0.61339 0.0
H863 H 0.65153 0.36124 0.61565 0.0
H864 H 0.61083 0.36165 0.63258 0.0
H865 H 0.5576 0.31818 0.60031 0.0
H866 H 0.43951 0.352 0.59932 0.0
H867 H 0.4817 0.34215 0.59538 0.0
H868 H 0.53167 0.38924 0.63115 0.0
C869 C 0.61355 0.35527 0.61458 0.0
C870 C 0.5521 0.33365 0.60732 0.0
C871 C 0.63682 0.35495 0.60492 0.0
C872 C 0.4523 0.35844 0.61219 0.0
C873 C 0.47653 0.35269 0.61004 0.0
C874 C 0.53708 0.37344 0.62511 0.0
C875 C 0.59391 0.34786 0.60092 0.0
C876 C 0.56892 0.35034 0.60988 0.0
C877 C 0.49392 0.36133 0.62578 0.0
C878 C 0.52001 0.35699 0.62185 0.0
H879 H 0.62373 0.33353 0.54973 0.0
H880 H 0.58324 0.3339 0.5667 0.0
H881 H 0.57377 0.38336 0.62114 0.0
H882 H 0.45698 0.39243 0.66025 0.0
H883 H 0.49906 0.38187 0.65703 0.0
C884 C 0.04786 0.35286 0.88821 0.0
C885 C 0.05206 0.36855 0.87044 0.0
C886 C 0.02448 0.34585 0.89311 0.0
C887 C 0.96217 0.34423 0.86995 0.0
H888 H 0.9449 0.34714 0.93773 0.0
C889 C 0.8635 0.34769 0.90335 0.0
C890 C 0.85803 0.33885 0.92604 0.0
C891 C 0.88726 0.34793 0.89493 0.0
C892 C 0.94942 0.34575 0.91876 0.0
H893 H 0.0351 0.38832 0.84301 0.0
H894 H 0.99428 0.37599 0.85157 0.0
H895 H 0.98637 0.35311 0.92566 0.0
H896 H 0.87278 0.32199 0.95694 0.0
H897 H 0.91394 0.32169 0.94194 0.0
H898 H 0.92512 0.33694 0.86304 0.0
C899 C 0.00911 0.36914 0.86168 0.0
C900 C 0.97325 0.34925 0.91186 0.0
C901 C 0.03248 0.37629 0.85689 0.0
C902 C 0.8765 0.32921 0.93953 0.0
C903 C 0.90014 0.32916 0.93098 0.0
C904 C 0.9383 0.3405 0.87689 0.0
C905 C 0.00482 0.35423 0.88023 0.0
C906 C 0.97983 0.34877 0.88738 0.0
C907 C 0.90596 0.33908 0.90891 0.0
C908 C 0.93157 0.34146 0.90138 0.0
H909 H 0.06253 0.34649 0.89892 0.0
H910 H 0.0217 0.33416 0.90734 0.0
H911 H 0.96681 0.34361 0.85096 0.0
H912 H 0.84964 0.35529 0.89257 0.0
H913 H 0.89105 0.35589 0.87796 0.0
C914 C 0.61604 0.66196 0.4366 0.0
C915 C 0.63611 0.65544 0.42296 0.0
C916 C 0.59299 0.66154 0.42659 0.0
C917 C 0.55793 0.63268 0.38179 0.0
H918 H 0.51033 0.67709 0.39313 0.0
C919 C 0.46023 0.62137 0.35055 0.0
C920 C 0.44227 0.62742 0.36709 0.0
C921 C 0.48406 0.62785 0.35392 0.0
C922 C 0.52335 0.66448 0.38994 0.0
H923 H 0.64779 0.64397 0.38786 0.0
H924 H 0.60732 0.64298 0.37045 0.0
H925 H 0.55205 0.68291 0.40547 0.0
H926 H 0.43506 0.64568 0.39964 0.0
H927 H 0.47672 0.65645 0.40596 0.0
H928 H 0.5293 0.6138 0.36733 0.0
C929 C 0.60955 0.64841 0.38891 0.0
C930 C 0.54725 0.66786 0.39692 0.0
C931 C 0.63269 0.64906 0.39885 0.0
C932 C 0.44848 0.6408 0.38654 0.0
C933 C 0.47239 0.64707 0.39008 0.0
C934 C 0.53403 0.62921 0.37503 0.0
C935 C 0.58945 0.65442 0.40279 0.0
C936 C 0.56469 0.65187 0.39321 0.0
C937 C 0.49057 0.64031 0.37408 0.0
C938 C 0.51635 0.64493 0.37933 0.0
H939 H 0.61807 0.66706 0.4552 0.0
H940 H 0.57782 0.66605 0.43779 0.0
H941 H 0.57091 0.61994 0.37902 0.0
H942 H 0.45597 0.61128 0.3352 0.0
H943 H 0.49746 0.62276 0.34092 0.0
C944 C 0.26273 0.10799 0.16056 0.0
C945 C 0.2633 0.12767 0.14817 0.0
C946 C 0.25866 0.10735 0.18549 0.0
C947 C 0.2371 0.1404 0.23751 0.0
H948 H 0.27211 0.09806 0.27498 0.0
C949 C 0.24089 0.14179 0.34215 0.0
C950 C 0.23628 0.12213 0.35377 0.0
C951 C 0.24445 0.14258 0.31713 0.0
C952 C 0.2621 0.10989 0.26474 0.0
H953 H 0.25974 0.16213 0.15227 0.0
H954 H 0.25331 0.16111 0.19578 0.0
H955 H 0.27719 0.09929 0.23128 0.0
H956 H 0.23239 0.08784 0.34824 0.0
H957 H 0.23899 0.08922 0.30466 0.0
H958 H 0.22248 0.15123 0.27123 0.0
C959 C 0.25546 0.14606 0.18623 0.0
C960 C 0.26488 0.11055 0.23963 0.0
C961 C 0.25925 0.14668 0.16123 0.0
C962 C 0.23589 0.10324 0.33987 0.0
C963 C 0.23976 0.10401 0.31491 0.0
C964 C 0.23455 0.13988 0.26266 0.0
C965 C 0.25535 0.12639 0.19878 0.0
C966 C 0.25234 0.12575 0.22561 0.0
C967 C 0.2438 0.12371 0.30321 0.0
C968 C 0.24694 0.12457 0.27654 0.0
H969 H 0.26561 0.09303 0.15102 0.0
H970 H 0.25816 0.09185 0.19433 0.0
H971 H 0.22682 0.15211 0.22739 0.0
H972 H 0.24125 0.15664 0.35231 0.0
H973 H 0.24776 0.15797 0.30865 0.0
C974 C 0.2571 0.8544 0.84031 0.0
C975 C 0.26224 0.87398 0.85181 0.0
C976 C 0.25333 0.85359 0.81531 0.0
C977 C 0.26432 0.88503 0.75906 0.0
H978 H 0.2183 0.84517 0.73145 0.0
C979 C 0.23407 0.88809 0.65895 0.0
C980 C 0.23246 0.86844 0.64656 0.0
C981 C 0.23837 0.88856 0.68385 0.0
C982 C 0.23138 0.85625 0.73888 0.0
H983 H 0.26673 0.90818 0.84613 0.0
H984 H 0.25942 0.90692 0.8028 0.0
H985 H 0.22355 0.84666 0.77516 0.0
H986 H 0.23431 0.83385 0.65066 0.0
H987 H 0.24161 0.8347 0.6942 0.0
H988 H 0.27171 0.89489 0.72271 0.0
C989 C 0.25898 0.89203 0.81289 0.0
C990 C 0.23445 0.85709 0.76397 0.0
C991 C 0.26298 0.8928 0.83783 0.0
C992 C 0.23548 0.84926 0.65963 0.0
C993 C 0.2395 0.84974 0.6846 0.0
C994 C 0.26106 0.88433 0.73401 0.0
C995 C 0.25436 0.87238 0.8012 0.0
C996 C 0.25097 0.8715 0.77443 0.0
C997 C 0.24089 0.86939 0.697 0.0
C998 C 0.24458 0.86993 0.72363 0.0
H999 H 0.25654 0.83957 0.85051 0.0
H1000 H 0.25016 0.83811 0.807 0.0
H1001 H 0.27757 0.89602 0.76631 0.0
H1002 H 0.23184 0.90316 0.64944 0.0
H1003 H 0.23917 0.90395 0.69291 0.0
C1004 C 0.68711 0.86397 0.82598 0.0
C1005 C 0.66999 0.88013 0.82158 0.0
C1006 C 0.70537 0.85983 0.80918 0.0
C1007 C 0.75089 0.8671 0.77937 0.0
H1008 H 0.73942 0.87051 0.71037 0.0
C1009 C 0.82443 0.89004 0.71117 0.0
C1010 C 0.82452 0.88035 0.68823 0.0
C1011 C 0.80608 0.88564 0.72766 0.0
C1012 C 0.74293 0.86917 0.72955 0.0
H1013 H 0.65815 0.90408 0.79569 0.0
H1014 H 0.68995 0.89695 0.76662 0.0
H1015 H 0.70537 0.87023 0.73818 0.0
H1016 H 0.80578 0.85783 0.66498 0.0
H1017 H 0.77365 0.85016 0.69389 0.0
H1018 H 0.78846 0.86638 0.77075 0.0
C1019 C 0.68921 0.88735 0.78292 0.0
C1020 C 0.72343 0.86924 0.7455 0.0
C1021 C 0.67107 0.89155 0.7997 0.0
C1022 C 0.8062 0.86563 0.68246 0.0
C1023 C 0.78774 0.8613 0.69897 0.0
C1024 C 0.7704 0.86708 0.76343 0.0
C1025 C 0.70677 0.87165 0.78759 0.0
C1026 C 0.72721 0.86873 0.7706 0.0
C1027 C 0.78731 0.87149 0.72163 0.0
C1028 C 0.76665 0.86863 0.73837 0.0
H1029 H 0.68675 0.85483 0.84262 0.0
H1030 H 0.71853 0.8475 0.81319 0.0
H1031 H 0.75443 0.86681 0.79861 0.0
H1032 H 0.83828 0.90142 0.71625 0.0
H1033 H 0.80613 0.89398 0.74483 0.0
C1034 C 0.82666 0.10968 0.29921 0.0
C1035 C 0.82764 0.12069 0.32134 0.0
C1036 C 0.80868 0.11427 0.28239 0.0
C1037 C 0.77462 0.1327 0.24517 0.0
H1038 H 0.70954 0.13514 0.27036 0.0
C1039 C 0.69187 0.13436 0.18198 0.0
C1040 C 0.67385 0.11945 0.18808 0.0
C1041 C 0.71022 0.13929 0.19841 0.0
C1042 C 0.72762 0.13458 0.26305 0.0
H1043 H 0.8109 0.14571 0.34282 0.0
H1044 H 0.77939 0.15373 0.31333 0.0
H1045 H 0.74351 0.13493 0.29825 0.0
H1046 H 0.6605 0.09866 0.21658 0.0
H1047 H 0.69245 0.10709 0.24496 0.0
H1048 H 0.7587 0.13121 0.21003 0.0
C1049 C 0.7925 0.14141 0.30914 0.0
C1050 C 0.7471 0.13469 0.27902 0.0
C1051 C 0.8106 0.13688 0.32598 0.0
C1052 C 0.67412 0.11017 0.21123 0.0
C1053 C 0.69235 0.11515 0.22763 0.0
C1054 C 0.75515 0.13261 0.2292 0.0
C1055 C 0.79118 0.12996 0.28728 0.0
C1056 C 0.7708 0.13313 0.27028 0.0
C1057 C 0.71082 0.12951 0.2213 0.0
C1058 C 0.73141 0.13292 0.238 0.0
H1059 H 0.83952 0.09715 0.29499 0.0
H1060 H 0.808 0.10492 0.26591 0.0
H1061 H 0.79269 0.1318 0.23788 0.0
H1062 H 0.69214 0.14186 0.16433 0.0
H1063 H 0.72409 0.15057 0.19309 0.0
C1064 C 0.73284 0.60899 0.34272 0.0
C1065 C 0.7318 0.62863 0.35516 0.0
C1066 C 0.7369 0.60848 0.31778 0.0
C1067 C 0.75796 0.6421 0.26602 0.0
H1068 H 0.72457 0.59905 0.22809 0.0
C1069 C 0.75531 0.64385 0.16143 0.0
C1070 C 0.76067 0.62438 0.14974 0.0
C1071 C 0.75137 0.64441 0.18641 0.0
C1072 C 0.73413 0.61108 0.23846 0.0
H1073 H 0.73438 0.66317 0.35112 0.0
H1074 H 0.74079 0.66236 0.3076 0.0
H1075 H 0.71902 0.60006 0.27175 0.0
H1076 H 0.76546 0.59016 0.15508 0.0
H1077 H 0.7582 0.59112 0.19859 0.0
H1078 H 0.77262 0.65335 0.2325 0.0
C1079 C 0.73904 0.64726 0.31712 0.0
C1080 C 0.73107 0.61162 0.26355 0.0
C1081 C 0.73525 0.64775 0.34212 0.0
C1082 C 0.76139 0.60542 0.16351 0.0
C1083 C 0.75715 0.60595 0.18843 0.0
C1084 C 0.76079 0.64171 0.2409 0.0
C1085 C 0.73974 0.62761 0.30454 0.0
C1086 C 0.74302 0.62708 0.27773 0.0
C1087 C 0.75239 0.62548 0.2002 0.0
C1088 C 0.74897 0.62615 0.22685 0.0
H1089 H 0.73042 0.59395 0.35224 0.0
H1090 H 0.73785 0.59301 0.30891 0.0
H1091 H 0.76781 0.65401 0.27627 0.0
H1092 H 0.75467 0.65876 0.15139 0.0
H1093 H 0.74751 0.65967 0.19494 0.0
C1094 C 0.74017 0.35557 0.66163 0.0
C1095 C 0.73507 0.37509 0.64997 0.0
C1096 C 0.74406 0.35493 0.68661 0.0
C1097 C 0.73336 0.38687 0.74257 0.0
H1098 H 0.77846 0.34646 0.77065 0.0
C1099 C 0.76332 0.38974 0.8428 0.0
C1100 C 0.7642 0.37011 0.8553 0.0
C1101 C 0.75916 0.39023 0.81788 0.0
C1102 C 0.76564 0.3577 0.76307 0.0
H1103 H 0.73085 0.40935 0.65531 0.0
H1104 H 0.73843 0.40838 0.69861 0.0
H1105 H 0.77354 0.34788 0.7269 0.0
H1106 H 0.7612 0.33557 0.85138 0.0
H1107 H 0.75419 0.33644 0.80778 0.0
H1108 H 0.72595 0.39697 0.77883 0.0
C1109 C 0.73872 0.39342 0.68868 0.0
C1110 C 0.76275 0.3585 0.73797 0.0
C1111 C 0.73457 0.39402 0.66375 0.0
C1112 C 0.76058 0.35097 0.84232 0.0
C1113 C 0.75673 0.35145 0.81733 0.0
C1114 C 0.73646 0.38622 0.76764 0.0
C1115 C 0.7432 0.37383 0.70054 0.0
C1116 C 0.74654 0.37309 0.72733 0.0
C1117 C 0.75608 0.37108 0.80482 0.0
C1118 C 0.7526 0.37161 0.77818 0.0
H1119 H 0.74053 0.34066 0.65158 0.0
H1120 H 0.74711 0.33949 0.69505 0.0
H1121 H 0.72033 0.39801 0.73519 0.0
H1122 H 0.76603 0.40478 0.85224 0.0
H1123 H 0.75893 0.40559 0.80872 0.0
C1124 C 0.30733 0.36471 0.67515 0.0
C1125 C 0.32454 0.38075 0.67986 0.0
C1126 C 0.28887 0.36056 0.69173 0.0
C1127 C 0.24322 0.36749 0.72154 0.0
H1128 H 0.25467 0.37016 0.79059 0.0
C1129 C 0.16936 0.38878 0.79019 0.0
C1130 C 0.16948 0.37885 0.81299 0.0
C1131 C 0.18775 0.38482 0.77359 0.0
C1132 C 0.25116 0.36903 0.77139 0.0
H1133 H 0.33621 0.40453 0.70603 0.0
H1134 H 0.30408 0.39737 0.73471 0.0
H1135 H 0.28871 0.37037 0.76278 0.0
H1136 H 0.18866 0.35634 0.83589 0.0
H1137 H 0.22082 0.3494 0.80681 0.0
H1138 H 0.20565 0.36644 0.73015 0.0
C1139 C 0.30492 0.38787 0.71834 0.0
C1140 C 0.27066 0.36939 0.75545 0.0
C1141 C 0.32325 0.39209 0.70178 0.0
C1142 C 0.18807 0.36433 0.81853 0.0
C1143 C 0.20655 0.36042 0.80192 0.0
C1144 C 0.22371 0.36718 0.73749 0.0
C1145 C 0.28735 0.37224 0.71341 0.0
C1146 C 0.26689 0.36913 0.73034 0.0
C1147 C 0.20676 0.37086 0.77939 0.0
C1148 C 0.22744 0.36844 0.76258 0.0
H1149 H 0.30784 0.35565 0.65847 0.0
H1150 H 0.2757 0.34829 0.68752 0.0
H1151 H 0.23969 0.36738 0.7023 0.0
H1152 H 0.15531 0.40002 0.78528 0.0
H1153 H 0.18752 0.39334 0.75654 0.0
C1154 C 0.32399 0.60873 0.28958 0.0
C1155 C 0.32414 0.61838 0.31253 0.0
C1156 C 0.30572 0.61328 0.27307 0.0
C1157 C 0.27039 0.63204 0.23722 0.0
H1158 H 0.20526 0.62932 0.26225 0.0
C1159 C 0.1873 0.63434 0.1743 0.0
C1160 C 0.17015 0.61826 0.17901 0.0
C1161 C 0.20554 0.63874 0.19104 0.0
C1162 C 0.22335 0.6302 0.25499 0.0
H1163 H 0.30557 0.64098 0.33582 0.0
H1164 H 0.27357 0.64895 0.30686 0.0
H1165 H 0.23918 0.62907 0.29019 0.0
H1166 H 0.15829 0.5947 0.20536 0.0
H1167 H 0.19003 0.60226 0.23429 0.0
H1168 H 0.25457 0.6321 0.20197 0.0
C1169 C 0.28756 0.63771 0.30179 0.0
C1170 C 0.24278 0.63029 0.27101 0.0
C1171 C 0.30594 0.6332 0.31833 0.0
C1172 C 0.17122 0.60716 0.20109 0.0
C1173 C 0.18933 0.61162 0.21781 0.0
C1174 C 0.25095 0.63198 0.2212 0.0
C1175 C 0.2871 0.62758 0.27909 0.0
C1176 C 0.26654 0.63063 0.26227 0.0
C1177 C 0.20687 0.62727 0.21288 0.0
C1178 C 0.22724 0.63046 0.22989 0.0
H1179 H 0.33775 0.59727 0.28447 0.0
H1180 H 0.30574 0.60497 0.25589 0.0
H1181 H 0.28849 0.63261 0.22995 0.0
H1182 H 0.18695 0.64323 0.1575 0.0
H1183 H 0.2187 0.65102 0.18682 0.0
loop_
_geom_bond_atom_site_label_1
_geom_bond_atom_site_label_2
_geom_bond_distance
_geom_bond_site_symmetry_2
_ccdc_geom_bond_type
Zn0 O3 2.031 . S
Zn0 O5 2.049 . S
Zn0 O10 2.067 . S
Zn1 O2 1.962 . S
Zn1 O4 1.986 . S
Zn1 O6 1.996 . S
Zn1 O9 1.943 . S
O2 Zn1 1.962 . S
O2 C7 1.254 . S
O3 Zn0 2.031 . S
O3 C7 1.269 . S
O4 Zn1 1.986 . S
O4 C11 1.262 . S
O5 Zn0 2.049 . S
O5 C13 1.260 . S
O6 Zn1 1.996 . S
O6 C13 1.257 . S
C7 O2 1.254 . S
C7 O3 1.269 . S
C8 O9 1.249 . S
C8 O10 1.270 . S
O9 Zn1 1.943 . S
O9 C8 1.249 . S
O10 Zn0 2.067 . S
O10 C8 1.270 . S
C11 O4 1.262 . S
C11 O12 1.232 . S
O12 C11 1.232 . S
C13 O5 1.260 . S
C13 O6 1.257 . S
Zn14 O17 2.031 . S
Zn14 O19 2.049 . S
Zn14 O24 2.067 . S
Zn15 O16 1.962 . S
Zn15 O18 1.986 . S
Zn15 O20 1.996 . S
Zn15 O23 1.943 . S
O16 Zn15 1.962 . S
O16 C21 1.254 . S
O17 Zn14 2.031 . S
O17 C21 1.269 . S
O18 Zn15 1.986 . S
O18 C25 1.262 . S
O19 Zn14 2.049 . S
O19 C27 1.260 . S
O20 Zn15 1.996 . S
O20 C27 1.257 . S
C21 O16 1.254 . S
C21 O17 1.269 . S
C22 O23 1.249 . S
C22 O24 1.270 . S
O23 Zn15 1.943 . S
O23 C22 1.249 . S
O24 Zn14 2.067 . S
O24 C22 1.270 . S
C25 O18 1.262 . S
C25 O26 1.232 . S
O26 C25 1.232 . S
C27 O19 1.260 . S
C27 O20 1.257 . S
Zn28 O31 2.031 . S
Zn28 O33 2.049 . S
Zn28 O38 2.067 . S
Zn29 O30 1.962 . S
Zn29 O32 1.986 . S
Zn29 O34 1.996 . S
Zn29 O37 1.943 . S
O30 Zn29 1.962 . S
O30 C35 1.254 . S
O31 Zn28 2.031 . S
O31 C35 1.269 . S
O32 Zn29 1.986 . S
O32 C39 1.262 . S
O33 Zn28 2.049 . S
O33 C41 1.260 . S
O34 Zn29 1.996 . S
O34 C41 1.257 . S
C35 O30 1.254 . S
C35 O31 1.269 . S
C36 O37 1.249 . S
C36 O38 1.270 . S
O37 Zn29 1.943 . S
O37 C36 1.249 . S
O38 Zn28 2.067 . S
O38 C36 1.270 . S
C39 O32 1.262 . S
C39 O40 1.232 . S
O40 C39 1.232 . S
C41 O33 1.260 . S
C41 O34 1.257 . S
Zn42 O45 2.031 . S
Zn42 O47 2.049 . S
Zn42 O52 2.067 . S
Zn43 O44 1.962 . S
Zn43 O46 1.986 . S
Zn43 O48 1.996 . S
Zn43 O51 1.943 . S
O44 Zn43 1.962 . S
O44 C49 1.254 . S
O45 Zn42 2.031 . S
O45 C49 1.269 . S
O46 Zn43 1.986 . S
O46 C53 1.262 . S
O47 Zn42 2.049 . S
O47 C55 1.260 . S
O48 Zn43 1.996 . S
O48 C55 1.257 . S
C49 O44 1.254 . S
C49 O45 1.269 . S
C50 O51 1.249 . S
C50 O52 1.270 . S
O51 Zn43 1.943 . S
O51 C50 1.249 . S
O52 Zn42 2.067 . S
O52 C50 1.270 . S
C53 O46 1.262 . S
C53 O54 1.232 . S
O54 C53 1.232 . S
C55 O47 1.260 . S
C55 O48 1.257 . S
Zn56 O59 2.031 . S
Zn56 O61 2.049 . S
Zn56 O66 2.067 . S
Zn57 O58 1.962 . S
Zn57 O60 1.986 . S
Zn57 O62 1.996 . S
Zn57 O65 1.943 . S
O58 Zn57 1.962 . S
O58 C63 1.254 . S
O59 Zn56 2.031 . S
O59 C63 1.269 . S
O60 Zn57 1.986 . S
O60 C67 1.262 . S
O61 Zn56 2.049 . S
O61 C69 1.260 . S
O62 Zn57 1.996 . S
O62 C69 1.257 . S
C63 O58 1.254 . S
C63 O59 1.269 . S
C64 O65 1.249 . S
C64 O66 1.270 . S
O65 Zn57 1.943 . S
O65 C64 1.249 . S
O66 Zn56 2.067 . S
O66 C64 1.270 . S
C67 O60 1.262 . S
C67 O68 1.232 . S
O68 C67 1.232 . S
C69 O61 1.260 . S
C69 O62 1.257 . S
Zn70 O73 2.031 . S
Zn70 O75 2.049 . S
Zn70 O80 2.067 . S
Zn71 O72 1.962 . S
Zn71 O74 1.986 . S
Zn71 O76 1.996 . S
Zn71 O79 1.943 . S
O72 Zn71 1.962 . S
O72 C77 1.254 . S
O73 Zn70 2.031 . S
O73 C77 1.269 . S
O74 Zn71 1.986 . S
O74 C81 1.262 . S
O75 Zn70 2.049 . S
O75 C83 1.260 . S
O76 Zn71 1.996 . S
O76 C83 1.257 . S
C77 O72 1.254 . S
C77 O73 1.269 . S
C78 O79 1.249 . S
C78 O80 1.270 . S
O79 Zn71 1.943 . S
O79 C78 1.249 . S
O80 Zn70 2.067 . S
O80 C78 1.270 . S
C81 O74 1.262 . S
C81 O82 1.232 . S
O82 C81 1.232 . S
C83 O75 1.260 . S
C83 O76 1.257 . S
Zn84 O87 2.031 . S
Zn84 O89 2.049 . S
Zn84 O94 2.067 . S
Zn85 O86 1.962 . S
Zn85 O88 1.986 . S
Zn85 O90 1.996 . S
Zn85 O93 1.943 . S
O86 Zn85 1.962 . S
O86 C91 1.254 . S
O87 Zn84 2.031 . S
O87 C91 1.269 . S
O88 Zn85 1.986 . S
O88 C95 1.262 . S
O89 Zn84 2.049 . S
O89 C97 1.260 . S
O90 Zn85 1.996 . S
O90 C97 1.257 . S
C91 O86 1.254 . S
C91 O87 1.269 . S
C92 O93 1.249 . S
C92 O94 1.270 . S
O93 Zn85 1.943 . S
O93 C92 1.249 . S
O94 Zn84 2.067 . S
O94 C92 1.270 . S
C95 O88 1.262 . S
C95 O96 1.232 . S
O96 C95 1.232 . S
C97 O89 1.260 . S
C97 O90 1.257 . S
Zn98 O101 2.031 . S
Zn98 O103 2.049 . S
Zn98 O108 2.067 . S
Zn99 O100 1.962 . S
Zn99 O102 1.986 . S
Zn99 O104 1.996 . S
Zn99 O107 1.943 . S
O100 Zn99 1.962 . S
O100 C105 1.254 . S
O101 Zn98 2.031 . S
O101 C105 1.269 . S
O102 Zn99 1.986 . S
O102 C109 1.262 . S
O103 Zn98 2.049 . S
O103 C111 1.260 . S
O104 Zn99 1.996 . S
O104 C111 1.257 . S
C105 O100 1.254 . S
C105 O101 1.269 . S
C106 O107 1.249 . S
C106 O108 1.270 . S
O107 Zn99 1.943 . S
O107 C106 1.249 . S
O108 Zn98 2.067 . S
O108 C106 1.270 . S
C109 O102 1.262 . S
C109 O110 1.232 . S
O110 C109 1.232 . S
C111 O103 1.260 . S
C111 O104 1.257 . S
Zn112 O115 2.031 . S
Zn112 O117 2.049 . S
Zn112 O122 2.067 . S
Zn113 O114 1.962 . S
Zn113 O116 1.986 . S
Zn113 O118 1.996 . S
Zn113 O121 1.943 . S
O114 Zn113 1.962 . S
O114 C119 1.254 . S
O115 Zn112 2.031 . S
O115 C119 1.269 . S
O116 Zn113 1.986 . S
O116 C123 1.262 . S
O117 Zn112 2.049 . S
O117 C125 1.260 . S
O118 Zn113 1.996 . S
O118 C125 1.257 . S
C119 O114 1.254 . S
C119 O115 1.269 . S
C120 O121 1.249 . S
C120 O122 1.270 . S
O121 Zn113 1.943 . S
O121 C120 1.249 . S
O122 Zn112 2.067 . S
O122 C120 1.270 . S
C123 O116 1.262 . S
C123 O124 1.232 . S
O124 C123 1.232 . S
C125 O117 1.260 . S
C125 O118 1.257 . S
Zn126 O129 2.031 . S
Zn126 O131 2.049 . S
Zn126 O136 2.067 . S
Zn127 O128 1.962 . S
Zn127 O130 1.986 . S
Zn127 O132 1.996 . S
Zn127 O135 1.943 . S
O128 Zn127 1.962 . S
O128 C133 1.254 . S
O129 Zn126 2.031 . S
O129 C133 1.269 . S
O130 Zn127 1.986 . S
O130 C137 1.262 . S
O131 Zn126 2.049 . S
O131 C139 1.260 . S
O132 Zn127 1.996 . S
O132 C139 1.257 . S
C133 O128 1.254 . S
C133 O129 1.269 . S
C134 O135 1.249 . S
C134 O136 1.270 . S
O135 Zn127 1.943 . S
O135 C134 1.249 . S
O136 Zn126 2.067 . S
O136 C134 1.270 . S
C137 O130 1.262 . S
C137 O138 1.232 . S
O138 C137 1.232 . S
C139 O131 1.260 . S
C139 O132 1.257 . S
Zn140 O143 2.031 . S
Zn140 O145 2.049 . S
Zn140 O150 2.067 . S
Zn141 O142 1.962 . S
Zn141 O144 1.986 . S
Zn141 O146 1.996 . S
Zn141 O149 1.943 . S
O142 Zn141 1.962 . S
O142 C147 1.254 . S
O143 Zn140 2.031 . S
O143 C147 1.269 . S
O144 Zn141 1.986 . S
O144 C151 1.262 . S
O145 Zn140 2.049 . S
O145 C153 1.260 . S
O146 Zn141 1.996 . S
O146 C153 1.257 . S
C147 O142 1.254 . S
C147 O143 1.269 . S
C148 O149 1.249 . S
C148 O150 1.270 . S
O149 Zn141 1.943 . S
O149 C148 1.249 . S
O150 Zn140 2.067 . S
O150 C148 1.270 . S
C151 O144 1.262 . S
C151 O152 1.232 . S
O152 C151 1.232 . S
C153 O145 1.260 . S
C153 O146 1.257 . S
Zn154 O157 2.031 . S
Zn154 O159 2.049 . S
Zn154 O164 2.067 . S
Zn155 O156 1.962 . S
Zn155 O158 1.986 . S
Zn155 O160 1.996 . S
Zn155 O163 1.943 . S
O156 Zn155 1.962 . S
O156 C161 1.254 . S
O157 Zn154 2.031 . S
O157 C161 1.269 . S
O158 Zn155 1.986 . S
O158 C165 1.262 . S
O159 Zn154 2.049 . S
O159 C167 1.260 . S
O160 Zn155 1.996 . S
O160 C167 1.257 . S
C161 O156 1.254 . S
C161 O157 1.269 . S
C162 O163 1.249 . S
C162 O164 1.270 . S
O163 Zn155 1.943 . S
O163 C162 1.249 . S
O164 Zn154 2.067 . S
O164 C162 1.270 . S
C165 O158 1.262 . S
C165 O166 1.232 . S
O166 C165 1.232 . S
C167 O159 1.260 . S
C167 O160 1.257 . S
Zn168 O171 2.031 . S
Zn168 O173 2.049 . S
Zn168 O178 2.067 . S
Zn169 O170 1.962 . S
Zn169 O172 1.986 . S
Zn169 O174 1.996 . S
Zn169 O177 1.943 . S
O170 Zn169 1.962 . S
O170 C175 1.254 . S
O171 Zn168 2.031 . S
O171 C175 1.269 . S
O172 Zn169 1.986 . S
O172 C179 1.262 . S
O173 Zn168 2.049 . S
O173 C181 1.260 . S
O174 Zn169 1.996 . S
O174 C181 1.257 . S
C175 O170 1.254 . S
C175 O171 1.269 . S
C176 O177 1.249 . S
C176 O178 1.270 . S
O177 Zn169 1.943 . S
O177 C176 1.249 . S
O178 Zn168 2.067 . S
O178 C176 1.270 . S
C179 O172 1.262 . S
C179 O180 1.232 . S
O180 C179 1.232 . S
C181 O173 1.260 . S
C181 O174 1.257 . S
Zn182 O185 2.031 . S
Zn182 O187 2.049 . S
Zn182 O192 2.067 . S
Zn183 O184 1.962 . S
Zn183 O186 1.986 . S
Zn183 O188 1.996 . S
Zn183 O191 1.943 . S
O184 Zn183 1.962 . S
O184 C189 1.254 . S
O185 Zn182 2.031 . S
O185 C189 1.269 . S
O186 Zn183 1.986 . S
O186 C193 1.262 . S
O187 Zn182 2.049 . S
O187 C195 1.260 . S
O188 Zn183 1.996 . S
O188 C195 1.257 . S
C189 O184 1.254 . S
C189 O185 1.269 . S
C190 O191 1.249 . S
C190 O192 1.270 . S
O191 Zn183 1.943 . S
O191 C190 1.249 . S
O192 Zn182 2.067 . S
O192 C190 1.270 . S
C193 O186 1.262 . S
C193 O194 1.232 . S
O194 C193 1.232 . S
C195 O187 1.260 . S
C195 O188 1.257 . S
Zn196 O199 2.031 . S
Zn196 O201 2.049 . S
Zn196 O206 2.067 . S
Zn197 O198 1.962 . S
Zn197 O200 1.986 . S
Zn197 O202 1.996 . S
Zn197 O205 1.943 . S
O198 Zn197 1.962 . S
O198 C203 1.254 . S
O199 Zn196 2.031 . S
O199 C203 1.269 . S
O200 Zn197 1.986 . S
O200 C207 1.262 . S
O201 Zn196 2.049 . S
O201 C209 1.260 . S
O202 Zn197 1.996 . S
O202 C209 1.257 . S
C203 O198 1.254 . S
C203 O199 1.269 . S
C204 O205 1.249 . S
C204 O206 1.270 . S
O205 Zn197 1.943 . S
O205 C204 1.249 . S
O206 Zn196 2.067 . S
O206 C204 1.270 . S
C207 O200 1.262 . S
C207 O208 1.232 . S
O208 C207 1.232 . S
C209 O201 1.260 . S
C209 O202 1.257 . S
Zn210 O213 2.031 . S
Zn210 O215 2.049 . S
Zn210 O220 2.067 . S
Zn211 O212 1.962 . S
Zn211 O214 1.986 . S
Zn211 O216 1.996 . S
Zn211 O219 1.943 . S
O212 Zn211 1.962 . S
O212 C217 1.254 . S
O213 Zn210 2.031 . S
O213 C217 1.269 . S
O214 Zn211 1.986 . S
O214 C221 1.262 . S
O215 Zn210 2.049 . S
O215 C223 1.260 . S
O216 Zn211 1.996 . S
O216 C223 1.257 . S
C217 O212 1.254 . S
C217 O213 1.269 . S
C218 O219 1.249 . S
C218 O220 1.270 . S
O219 Zn211 1.943 . S
O219 C218 1.249 . S
O220 Zn210 2.067 . S
O220 C218 1.270 . S
C221 O214 1.262 . S
C221 O222 1.232 . S
O222 C221 1.232 . S
C223 O215 1.260 . S
C223 O216 1.257 . S
C224 C225 1.349 . S
C224 C226 1.327 . S
C224 H249 0.950 . S
C225 C224 1.349 . S
C225 C241 1.349 . S
C226 C224 1.327 . S
C226 C245 1.429 . S
C226 H250 0.950 . S
C227 C244 1.574 1_554 S
C227 C246 1.368 . S
C227 H251 0.949 . S
H228 C232 0.949 . S
C229 C230 1.349 . S
C229 C231 1.327 . S
C229 H252 0.950 . S
C230 C229 1.349 . S
C230 C242 1.349 . S
C231 C229 1.327 . S
C231 C247 1.429 . S
C231 H253 0.950 . S
C232 H228 0.949 . S
C232 C240 1.574 1_556 S
C232 C248 1.368 . S
H233 C241 0.950 . S
H234 C239 0.950 . S
H235 C240 0.949 . S
H236 C242 0.950 . S
H237 C243 0.950 . S
H238 C244 0.949 . S
C239 H234 0.950 . S
C239 C241 1.327 . S
C239 C245 1.429 . S
C240 C232 1.574 1_554 S
C240 H235 0.949 . S
C240 C246 1.368 . S
C241 C225 1.349 . S
C241 H233 0.950 . S
C241 C239 1.327 . S
C242 C230 1.349 . S
C242 H236 0.950 . S
C242 C243 1.327 . S
C243 H237 0.950 . S
C243 C242 1.327 . S
C243 C247 1.429 . S
C244 C227 1.574 1_556 S
C244 H238 0.949 . S
C244 C248 1.368 . S
C245 C226 1.429 . S
C245 C239 1.429 . S
C245 C246 1.523 . S
C246 C227 1.368 . S
C246 C240 1.368 . S
C246 C245 1.523 . S
C247 C231 1.429 . S
C247 C243 1.429 . S
C247 C248 1.523 . S
C248 C232 1.368 . S
C248 C244 1.368 . S
C248 C247 1.523 . S
H249 C224 0.950 . S
H250 C226 0.950 . S
H251 C227 0.949 . S
H252 C229 0.950 . S
H253 C231 0.950 . S
C254 C255 1.349 . S
C254 C256 1.327 . S
C254 H279 0.950 . S
C255 C254 1.349 . S
C255 C271 1.349 . S
C256 C254 1.327 . S
C256 C275 1.429 . S
C256 H280 0.950 . S
C257 C274 1.574 . S
C257 C276 1.368 . S
C257 H281 0.949 . S
H258 C262 0.949 . S
C259 C260 1.349 . S
C259 C261 1.327 . S
C259 H282 0.950 . S
C260 C259 1.349 . S
C260 C272 1.349 . S
C261 C259 1.327 . S
C261 C277 1.429 . S
C261 H283 0.950 . S
C262 H258 0.949 . S
C262 C270 1.574 . S
C262 C278 1.368 . S
H263 C271 0.950 . S
H264 C269 0.950 . S
H265 C270 0.949 . S
H266 C272 0.950 . S
H267 C273 0.950 . S
H268 C274 0.949 . S
C269 H264 0.950 . S
C269 C271 1.327 . S
C269 C275 1.429 . S
C270 C262 1.574 . S
C270 H265 0.949 . S
C270 C276 1.368 . S
C271 C255 1.349 . S
C271 H263 0.950 . S
C271 C269 1.327 . S
C272 C260 1.349 . S
C272 H266 0.950 . S
C272 C273 1.327 . S
C273 H267 0.950 . S
C273 C272 1.327 . S
C273 C277 1.429 . S
C274 C257 1.574 . S
C274 H268 0.949 . S
C274 C278 1.368 . S
C275 C256 1.429 . S
C275 C269 1.429 . S
C275 C276 1.523 . S
C276 C257 1.368 . S
C276 C270 1.368 . S
C276 C275 1.523 . S
C277 C261 1.429 . S
C277 C273 1.429 . S
C277 C278 1.523 . S
C278 C262 1.368 . S
C278 C274 1.368 . S
C278 C277 1.523 . S
H279 C254 0.950 . S
H280 C256 0.950 . S
H281 C257 0.949 . S
H282 C259 0.950 . S
H283 C261 0.950 . S
C284 C285 1.349 . S
C284 C286 1.327 . S
C284 H309 0.950 . S
C285 C284 1.349 . S
C285 C301 1.349 . S
C286 C284 1.327 . S
C286 C305 1.429 . S
C286 H310 0.950 . S
C287 C304 1.574 . S
C287 C306 1.368 1_554 S
C287 H311 0.949 . S
H288 C292 0.949 . S
C289 C290 1.349 . S
C289 C291 1.327 . S
C289 H312 0.950 . S
C290 C289 1.349 . S
C290 C302 1.349 . S
C291 C289 1.327 . S
C291 C307 1.429 . S
C291 H313 0.950 . S
C292 H288 0.949 . S
C292 C300 1.574 . S
C292 C308 1.368 1_556 S
H293 C301 0.950 . S
H294 C299 0.950 . S
H295 C300 0.949 . S
H296 C302 0.950 . S
H297 C303 0.950 . S
H298 C304 0.949 . S
C299 H294 0.950 . S
C299 C301 1.327 . S
C299 C305 1.429 . S
C300 C292 1.574 . S
C300 H295 0.949 . S
C300 C306 1.368 . S
C301 C285 1.349 . S
C301 H293 0.950 . S
C301 C299 1.327 . S
C302 C290 1.349 . S
C302 H296 0.950 . S
C302 C303 1.327 . S
C303 H297 0.950 . S
C303 C302 1.327 . S
C303 C307 1.429 . S
C304 C287 1.574 . S
C304 H298 0.949 . S
C304 C308 1.368 . S
C305 C286 1.429 . S
C305 C299 1.429 . S
C305 C306 1.523 . S
C306 C287 1.368 1_556 S
C306 C300 1.368 . S
C306 C305 1.523 . S
C307 C291 1.429 . S
C307 C303 1.429 . S
C307 C308 1.523 . S
C308 C292 1.368 1_554 S
C308 C304 1.368 . S
C308 C307 1.523 . S
H309 C284 0.950 . S
H310 C286 0.950 . S
H311 C287 0.949 . S
H312 C289 0.950 . S
H313 C291 0.950 . S
C314 C315 1.349 . S
C314 C316 1.327 . S
C314 H339 0.950 . S
C315 C314 1.349 . S
C315 C331 1.349 . S
C316 C314 1.327 . S
C316 C335 1.429 . S
C316 H340 0.950 . S
C317 C334 1.574 . S
C317 C336 1.368 . S
C317 H341 0.949 . S
H318 C322 0.949 . S
C319 C320 1.349 . S
C319 C321 1.327 . S
C319 H342 0.950 . S
C320 C319 1.349 . S
C320 C332 1.349 . S
C321 C319 1.327 . S
C321 C337 1.429 . S
C321 H343 0.950 . S
C322 H318 0.949 . S
C322 C330 1.574 . S
C322 C338 1.368 . S
H323 C331 0.950 . S
H324 C329 0.950 . S
H325 C330 0.949 . S
H326 C332 0.950 . S
H327 C333 0.950 . S
H328 C334 0.949 . S
C329 H324 0.950 . S
C329 C331 1.327 . S
C329 C335 1.429 . S
C330 C322 1.574 . S
C330 H325 0.949 . S
C330 C336 1.368 . S
C331 C315 1.349 . S
C331 H323 0.950 . S
C331 C329 1.327 . S
C332 C320 1.349 . S
C332 H326 0.950 . S
C332 C333 1.327 . S
C333 H327 0.950 . S
C333 C332 1.327 . S
C333 C337 1.429 . S
C334 C317 1.574 . S
C334 H328 0.949 . S
C334 C338 1.368 . S
C335 C316 1.429 . S
C335 C329 1.429 . S
C335 C336 1.523 . S
C336 C317 1.368 . S
C336 C330 1.368 . S
C336 C335 1.523 . S
C337 C321 1.429 . S
C337 C333 1.429 . S
C337 C338 1.523 . S
C338 C322 1.368 . S
C338 C334 1.368 . S
C338 C337 1.523 . S
H339 C314 0.950 . S
H340 C316 0.950 . S
H341 C317 0.949 . S
H342 C319 0.950 . S
H343 C321 0.950 . S
C344 C345 1.349 . S
C344 C346 1.327 . S
C344 H369 0.950 . S
C345 C344 1.349 . S
C345 C361 1.349 . S
C346 C344 1.327 . S
C346 C365 1.429 . S
C346 H370 0.950 . S
C347 C364 1.574 . S
C347 C366 1.368 . S
C347 H371 0.949 . S
H348 C352 0.949 . S
C349 C350 1.349 . S
C349 C351 1.327 . S
C349 H372 0.950 . S
C350 C349 1.349 . S
C350 C362 1.349 . S
C351 C349 1.327 . S
C351 C367 1.429 . S
C351 H373 0.950 . S
C352 H348 0.949 . S
C352 C360 1.574 . S
C352 C368 1.368 . S
H353 C361 0.950 . S
H354 C359 0.950 . S
H355 C360 0.949 . S
H356 C362 0.950 . S
H357 C363 0.950 . S
H358 C364 0.949 . S
C359 H354 0.950 . S
C359 C361 1.327 . S
C359 C365 1.429 . S
C360 C352 1.574 . S
C360 H355 0.949 . S
C360 C366 1.368 1_556 S
C361 C345 1.349 . S
C361 H353 0.950 . S
C361 C359 1.327 . S
C362 C350 1.349 . S
C362 H356 0.950 . S
C362 C363 1.327 . S
C363 H357 0.950 . S
C363 C362 1.327 . S
C363 C367 1.429 . S
C364 C347 1.574 . S
C364 H358 0.949 . S
C364 C368 1.368 1_554 S
C365 C346 1.429 . S
C365 C359 1.429 . S
C365 C366 1.523 . S
C366 C347 1.368 . S
C366 C360 1.368 1_554 S
C366 C365 1.523 . S
C367 C351 1.429 . S
C367 C363 1.429 . S
C367 C368 1.523 . S
C368 C352 1.368 . S
C368 C364 1.368 1_556 S
C368 C367 1.523 . S
H369 C344 0.950 . S
H370 C346 0.950 . S
H371 C347 0.949 . S
H372 C349 0.950 . S
H373 C351 0.950 . S
C374 C375 1.349 . S
C374 C376 1.327 . S
C374 H399 0.950 . S
C375 C374 1.349 . S
C375 C391 1.349 . S
C376 C374 1.327 . S
C376 C395 1.429 . S
C376 H400 0.950 . S
C377 C394 1.574 . S
C377 C396 1.368 . S
C377 H401 0.949 . S
H378 C382 0.949 . S
C379 C380 1.349 . S
C379 C381 1.327 . S
C379 H402 0.950 . S
C380 C379 1.349 . S
C380 C392 1.349 . S
C381 C379 1.327 . S
C381 C397 1.429 . S
C381 H403 0.950 . S
C382 H378 0.949 . S
C382 C390 1.574 . S
C382 C398 1.368 . S
H383 C391 0.950 . S
H384 C389 0.950 . S
H385 C390 0.949 . S
H386 C392 0.950 . S
H387 C393 0.950 . S
H388 C394 0.949 . S
C389 H384 0.950 . S
C389 C391 1.327 . S
C389 C395 1.429 . S
C390 C382 1.574 . S
C390 H385 0.949 . S
C390 C396 1.368 . S
C391 C375 1.349 . S
C391 H383 0.950 . S
C391 C389 1.327 . S
C392 C380 1.349 . S
C392 H386 0.950 . S
C392 C393 1.327 . S
C393 H387 0.950 . S
C393 C392 1.327 . S
C393 C397 1.429 . S
C394 C377 1.574 . S
C394 H388 0.949 . S
C394 C398 1.368 . S
C395 C376 1.429 . S
C395 C389 1.429 . S
C395 C396 1.523 . S
C396 C377 1.368 . S
C396 C390 1.368 . S
C396 C395 1.523 . S
C397 C381 1.429 . S
C397 C393 1.429 . S
C397 C398 1.523 . S
C398 C382 1.368 . S
C398 C394 1.368 . S
C398 C397 1.523 . S
H399 C374 0.950 . S
H400 C376 0.950 . S
H401 C377 0.949 . S
H402 C379 0.950 . S
H403 C381 0.950 . S
C404 C405 1.349 . S
C404 C406 1.327 . S
C404 H429 0.950 . S
C405 C404 1.349 . S
C405 C421 1.349 . S
C406 C404 1.327 . S
C406 C425 1.429 . S
C406 H430 0.982 . S
C407 C424 1.574 . S
C407 C426 1.368 . S
C407 H431 0.949 . S
H408 C412 0.949 . S
C409 C410 1.349 . S
C409 C411 1.327 . S
C409 H432 0.950 . S
C410 C409 1.349 . S
C410 C422 1.349 . S
C411 C409 1.327 . S
C411 C427 1.429 . S
C411 H433 0.950 . S
C412 H408 0.949 . S
C412 C420 1.574 . S
C412 C428 1.368 . S
H413 C421 0.950 . S
H414 C419 0.950 . S
H415 C420 0.949 . S
H416 C422 0.950 . S
H417 C423 0.950 . S
H418 C424 0.949 . S
C419 H414 0.950 . S
C419 C421 1.327 . S
C419 C425 1.429 . S
C420 C412 1.574 . S
C420 H415 0.949 . S
C420 C426 1.368 1_554 S
C421 C405 1.349 . S
C421 H413 0.950 . S
C421 C419 1.327 . S
C422 C410 1.349 . S
C422 H416 0.950 . S
C422 C423 1.327 . S
C423 H417 0.950 . S
C423 C422 1.327 . S
C423 C427 1.429 . S
C424 C407 1.574 . S
C424 H418 0.949 . S
C424 C428 1.368 1_556 S
C425 C406 1.429 . S
C425 C419 1.429 . S
C425 C426 1.523 . S
C426 C407 1.368 . S
C426 C420 1.368 1_556 S
C426 C425 1.523 . S
C427 C411 1.429 . S
C427 C423 1.429 . S
C427 C428 1.523 . S
C428 C412 1.368 . S
C428 C424 1.368 1_554 S
C428 C427 1.523 . S
H429 C404 0.950 . S
H430 C406 0.982 . S
H431 C407 0.949 . S
H432 C409 0.950 . S
H433 C411 0.950 . S
C434 C435 1.349 . S
C434 C436 1.327 . S
C434 H459 0.950 . S
C435 C434 1.349 . S
C435 C451 1.349 . S
C436 C434 1.327 . S
C436 C455 1.429 . S
C436 H460 0.950 . S
C437 C454 1.574 . S
C437 C456 1.368 . S
C437 H461 0.949 . S
H438 C442 0.949 . S
C439 C440 1.349 . S
C439 C441 1.327 . S
C439 H462 0.950 . S
C440 C439 1.349 . S
C440 C452 1.349 . S
C441 C439 1.327 . S
C441 C457 1.429 . S
C441 H463 0.950 . S
C442 H438 0.949 . S
C442 C450 1.574 . S
C442 C458 1.368 . S
H443 C451 0.950 . S
H444 C449 0.950 . S
H445 C450 0.949 . S
H446 C452 0.950 . S
H447 C453 0.950 . S
H448 C454 0.949 . S
C449 H444 0.950 . S
C449 C451 1.327 . S
C449 C455 1.429 . S
C450 C442 1.574 . S
C450 H445 0.949 . S
C450 C456 1.368 . S
C451 C435 1.349 . S
C451 H443 0.950 . S
C451 C449 1.327 . S
C452 C440 1.349 . S
C452 H446 0.950 . S
C452 C453 1.327 . S
C453 H447 0.950 . S
C453 C452 1.327 . S
C453 C457 1.429 . S
C454 C437 1.574 . S
C454 H448 0.949 . S
C454 C458 1.368 . S
C455 C436 1.429 . S
C455 C449 1.429 . S
C455 C456 1.523 . S
C456 C437 1.368 . S
C456 C450 1.368 . S
C456 C455 1.523 . S
C457 C441 1.429 . S
C457 C453 1.429 . S
C457 C458 1.523 . S
C458 C442 1.368 . S
C458 C454 1.368 . S
C458 C457 1.523 . S
H459 C434 0.950 . S
H460 C436 0.950 . S
H461 C437 0.949 . S
H462 C439 0.950 . S
H463 C441 0.950 . S
C464 C465 1.349 . S
C464 C466 1.327 . S
C464 H489 0.950 . S
C465 C464 1.349 . S
C465 C481 1.349 . S
C466 C464 1.327 . S
C466 C485 1.429 . S
C466 H490 0.950 . S
C467 C484 1.574 1_545 S
C467 C486 1.368 . S
C467 H491 0.949 . S
H468 C472 0.949 . S
C469 C470 1.349 . S
C469 C471 1.327 . S
C469 H492 0.950 . S
C470 C469 1.349 . S
C470 C482 1.349 . S
C471 C469 1.327 . S
C471 C487 1.429 . S
C471 H493 0.950 . S
C472 H468 0.949 . S
C472 C480 1.574 1_565 S
C472 C488 1.368 . S
H473 C481 0.950 . S
H474 C479 0.950 . S
H475 C480 0.949 . S
H476 C482 0.950 . S
H477 C483 0.950 . S
H478 C484 0.949 . S
C479 H474 0.950 . S
C479 C481 1.327 . S
C479 C485 1.429 . S
C480 C472 1.574 1_545 S
C480 H475 0.949 . S
C480 C486 1.368 1_556 S
C481 C465 1.349 . S
C481 H473 0.950 . S
C481 C479 1.327 . S
C482 C470 1.349 . S
C482 H476 0.950 . S
C482 C483 1.327 . S
C483 H477 0.950 . S
C483 C482 1.327 . S
C483 C487 1.429 . S
C484 C467 1.574 1_565 S
C484 H478 0.949 . S
C484 C488 1.368 1_554 S
C485 C466 1.429 . S
C485 C479 1.429 . S
C485 C486 1.523 . S
C486 C467 1.368 . S
C486 C480 1.368 1_554 S
C486 C485 1.523 . S
C487 C471 1.429 . S
C487 C483 1.429 . S
C487 C488 1.523 . S
C488 C472 1.368 . S
C488 C484 1.368 1_556 S
C488 C487 1.523 . S
H489 C464 0.950 . S
H490 C466 0.950 . S
H491 C467 0.949 . S
H492 C469 0.950 . S
H493 C471 0.950 . S
C494 C495 1.349 . S
C494 C496 1.327 . S
C494 H519 0.950 . S
C495 C494 1.349 . S
C495 C511 1.349 . S
C496 C494 1.327 . S
C496 C515 1.429 . S
C496 H520 0.950 . S
C497 C514 1.574 1_565 S
C497 C516 1.368 . S
C497 H521 0.949 . S
H498 C502 0.949 . S
C499 C500 1.349 . S
C499 C501 1.327 . S
C499 H522 0.950 . S
C500 C499 1.349 . S
C500 C512 1.349 . S
C501 C499 1.327 . S
C501 C517 1.429 . S
C501 H523 0.950 . S
C502 H498 0.949 . S
C502 C510 1.574 1_545 S
C502 C518 1.368 . S
H503 C511 0.950 . S
H504 C509 0.950 . S
H505 C510 0.949 . S
H506 C512 0.950 . S
H507 C513 0.950 . S
H508 C514 0.949 . S
C509 H504 0.950 . S
C509 C511 1.327 . S
C509 C515 1.429 . S
C510 C502 1.574 1_565 S
C510 H505 0.949 . S
C510 C516 1.368 . S
C511 C495 1.349 . S
C511 H503 0.950 . S
C511 C509 1.327 . S
C512 C500 1.349 . S
C512 H506 0.950 . S
C512 C513 1.327 . S
C513 H507 0.950 . S
C513 C512 1.327 . S
C513 C517 1.429 . S
C514 C497 1.574 1_545 S
C514 H508 0.949 . S
C514 C518 1.368 . S
C515 C496 1.429 . S
C515 C509 1.429 . S
C515 C516 1.523 . S
C516 C497 1.368 . S
C516 C510 1.368 . S
C516 C515 1.523 . S
C517 C501 1.429 . S
C517 C513 1.429 . S
C517 C518 1.523 . S
C518 C502 1.368 . S
C518 C514 1.368 . S
C518 C517 1.523 . S
H519 C494 0.950 . S
H520 C496 0.950 . S
H521 C497 0.949 . S
H522 C499 0.950 . S
H523 C501 0.950 . S
C524 C525 1.349 . S
C524 C526 1.327 . S
C524 H549 0.950 . S
C525 C524 1.349 . S
C525 C541 1.349 . S
C526 C524 1.327 . S
C526 C545 1.429 . S
C526 H550 0.950 . S
C527 C544 1.574 1_566 S
C527 C546 1.368 . S
C527 H551 0.949 . S
H528 C532 0.949 . S
C529 C530 1.349 . S
C529 C531 1.327 . S
C529 H552 0.950 . S
C530 C529 1.349 . S
C530 C542 1.349 . S
C531 C529 1.327 . S
C531 C547 1.429 . S
C531 H553 0.950 . S
C532 H528 0.949 . S
C532 C540 1.574 1_544 S
C532 C548 1.368 . S
H533 C541 0.950 . S
H534 C539 0.950 . S
H535 C540 0.949 . S
H536 C542 0.950 . S
H537 C543 0.950 . S
H538 C544 0.949 . S
C539 H534 0.950 . S
C539 C541 1.327 . S
C539 C545 1.429 . S
C540 C532 1.574 1_566 S
C540 H535 0.949 . S
C540 C546 1.368 . S
C541 C525 1.349 . S
C541 H533 0.950 . S
C541 C539 1.327 . S
C542 C530 1.349 . S
C542 H536 0.950 . S
C542 C543 1.327 . S
C543 H537 0.950 . S
C543 C542 1.327 . S
C543 C547 1.429 . S
C544 C527 1.574 1_544 S
C544 H538 0.949 . S
C544 C548 1.368 . S
C545 C526 1.429 . S
C545 C539 1.429 . S
C545 C546 1.523 . S
C546 C527 1.368 . S
C546 C540 1.368 . S
C546 C545 1.523 . S
C547 C531 1.429 . S
C547 C543 1.429 . S
C547 C548 1.523 . S
C548 C532 1.368 . S
C548 C544 1.368 . S
C548 C547 1.523 . S
H549 C524 0.950 . S
H550 C526 0.950 . S
H551 C527 0.949 . S
H552 C529 0.950 . S
H553 C531 0.950 . S
C554 C555 1.349 . S
C554 C556 1.327 . S
C554 H579 0.950 . S
C555 C554 1.349 . S
C555 C571 1.349 . S
C556 C554 1.327 . S
C556 C575 1.429 . S
C556 H580 0.950 . S
C557 C574 1.574 1_545 S
C557 C576 1.368 . S
C557 H581 0.949 . S
H558 C562 0.949 . S
C559 C560 1.349 . S
C559 C561 1.327 . S
C559 H582 0.950 . S
C560 C559 1.349 . S
C560 C572 1.349 . S
C561 C559 1.327 . S
C561 C577 1.429 . S
C561 H583 0.950 . S
C562 H558 0.949 . S
C562 C570 1.574 1_565 S
C562 C578 1.368 . S
H563 C571 0.950 . S
H564 C569 0.950 . S
H565 C570 0.949 . S
H566 C572 0.950 . S
H567 C573 0.950 . S
H568 C574 0.949 . S
C569 H564 0.950 . S
C569 C571 1.327 . S
C569 C575 1.429 . S
C570 C562 1.574 1_545 S
C570 H565 0.949 . S
C570 C576 1.368 . S
C571 C555 1.349 . S
C571 H563 0.950 . S
C571 C569 1.327 . S
C572 C560 1.349 . S
C572 H566 0.950 . S
C572 C573 1.327 . S
C573 H567 0.950 . S
C573 C572 1.327 . S
C573 C577 1.429 . S
C574 C557 1.574 1_565 S
C574 H568 0.949 . S
C574 C578 1.368 . S
C575 C556 1.429 . S
C575 C569 1.429 . S
C575 C576 1.523 . S
C576 C557 1.368 . S
C576 C570 1.368 . S
C576 C575 1.523 . S
C577 C561 1.429 . S
C577 C573 1.429 . S
C577 C578 1.523 . S
C578 C562 1.368 . S
C578 C574 1.368 . S
C578 C577 1.523 . S
H579 C554 0.950 . S
H580 C556 0.950 . S
H581 C557 0.949 . S
H582 C559 0.950 . S
H583 C561 0.950 . S
C584 C585 1.349 . S
C584 C586 1.327 . S
C584 H609 0.950 . S
C585 C584 1.349 . S
C585 C601 1.349 . S
C586 C584 1.327 . S
C586 C605 1.429 . S
C586 H610 0.950 . S
C587 C604 1.574 . S
C587 C606 1.368 1_554 S
C587 H611 0.949 . S
H588 C592 0.949 . S
C589 C590 1.349 . S
C589 C591 1.327 . S
C589 H612 0.950 . S
C590 C589 1.349 . S
C590 C602 1.349 . S
C591 C589 1.327 . S
C591 C607 1.429 . S
C591 H613 0.950 . S
C592 H588 0.949 . S
C592 C600 1.574 . S
C592 C608 1.368 1_556 S
H593 C601 0.950 . S
H594 C599 0.950 . S
H595 C600 0.949 . S
H596 C602 0.950 . S
H597 C603 0.950 . S
H598 C604 0.949 . S
C599 H594 0.950 . S
C599 C601 1.327 . S
C599 C605 1.429 . S
C600 C592 1.574 . S
C600 H595 0.949 . S
C600 C606 1.368 . S
C601 C585 1.349 . S
C601 H593 0.950 . S
C601 C599 1.327 . S
C602 C590 1.349 . S
C602 H596 0.950 . S
C602 C603 1.327 . S
C603 H597 0.950 . S
C603 C602 1.327 . S
C603 C607 1.429 . S
C604 C587 1.574 . S
C604 H598 0.949 . S
C604 C608 1.368 . S
C605 C586 1.429 . S
C605 C599 1.429 . S
C605 C606 1.523 . S
C606 C587 1.368 1_556 S
C606 C600 1.368 . S
C606 C605 1.523 . S
C607 C591 1.429 . S
C607 C603 1.429 . S
C607 C608 1.523 . S
C608 C592 1.368 1_554 S
C608 C604 1.368 . S
C608 C607 1.523 . S
H609 C584 0.950 . S
H610 C586 0.950 . S
H611 C587 0.949 . S
H612 C589 0.950 . S
H613 C591 0.950 . S
C614 C615 1.349 . S
C614 C616 1.327 . S
C614 H639 0.950 . S
C615 C614 1.349 . S
C615 C631 1.349 . S
C616 C614 1.327 . S
C616 C635 1.429 . S
C616 H640 0.950 . S
C617 C634 1.574 . S
C617 C636 1.368 . S
C617 H641 0.949 . S
H618 C622 0.949 . S
C619 C620 1.349 . S
C619 C621 1.327 . S
C619 H642 0.950 . S
C620 C619 1.349 . S
C620 C632 1.349 . S
C621 C619 1.327 . S
C621 C637 1.429 . S
C621 H643 0.950 . S
C622 H618 0.949 . S
C622 C630 1.574 . S
C622 C638 1.368 . S
H623 C631 0.950 . S
H624 C629 0.950 . S
H625 C630 0.949 . S
H626 C632 0.950 . S
H627 C633 0.950 . S
H628 C634 0.949 . S
C629 H624 0.950 . S
C629 C631 1.327 . S
C629 C635 1.429 . S
C630 C622 1.574 . S
C630 H625 0.949 . S
C630 C636 1.368 . S
C631 C615 1.349 . S
C631 H623 0.950 . S
C631 C629 1.327 . S
C632 C620 1.349 . S
C632 H626 0.950 . S
C632 C633 1.327 . S
C633 H627 0.950 . S
C633 C632 1.327 . S
C633 C637 1.429 . S
C634 C617 1.574 . S
C634 H628 0.949 . S
C634 C638 1.368 . S
C635 C616 1.429 . S
C635 C629 1.429 . S
C635 C636 1.523 . S
C636 C617 1.368 . S
C636 C630 1.368 . S
C636 C635 1.523 . S
C637 C621 1.429 . S
C637 C633 1.429 . S
C637 C638 1.523 . S
C638 C622 1.368 . S
C638 C634 1.368 . S
C638 C637 1.523 . S
H639 C614 0.950 . S
H640 C616 0.950 . S
H641 C617 0.949 . S
H642 C619 0.950 . S
H643 C621 0.950 . S
C644 C645 1.349 . S
C644 C646 1.327 . S
C644 H669 0.950 . S
C645 C644 1.349 . S
C645 C661 1.349 . S
C646 C644 1.327 . S
C646 C665 1.429 . S
C646 H670 0.950 . S
C647 C664 1.574 . S
C647 C666 1.368 . S
C647 H671 0.949 . S
H648 C652 0.949 . S
C649 C650 1.349 . S
C649 C651 1.327 . S
C649 H672 0.950 . S
C650 C649 1.349 . S
C650 C662 1.349 . S
C651 C649 1.327 . S
C651 C667 1.429 . S
C651 H673 0.950 . S
C652 H648 0.949 . S
C652 C660 1.574 . S
C652 C668 1.368 . S
H653 C661 0.950 . S
H654 C659 0.950 . S
H655 C660 0.949 . S
H656 C662 0.950 . S
H657 C663 0.950 . S
H658 C664 0.949 . S
C659 H654 0.950 . S
C659 C661 1.327 . S
C659 C665 1.429 . S
C660 C652 1.574 . S
C660 H655 0.949 . S
C660 C666 1.368 1_556 S
C661 C645 1.349 . S
C661 H653 0.950 . S
C661 C659 1.327 . S
C662 C650 1.349 . S
C662 H656 0.950 . S
C662 C663 1.327 . S
C663 H657 0.950 . S
C663 C662 1.327 . S
C663 C667 1.429 . S
C664 C647 1.574 . S
C664 H658 0.949 . S
C664 C668 1.368 1_554 S
C665 C646 1.429 . S
C665 C659 1.429 . S
C665 C666 1.523 . S
C666 C647 1.368 . S
C666 C660 1.368 1_554 S
C666 C665 1.523 . S
C667 C651 1.429 . S
C667 C663 1.429 . S
C667 C668 1.523 . S
C668 C652 1.368 . S
C668 C664 1.368 1_556 S
C668 C667 1.523 . S
H669 C644 0.950 . S
H670 C646 0.950 . S
H671 C647 0.949 . S
H672 C649 0.950 . S
H673 C651 0.950 . S
C674 C675 1.349 . S
C674 C676 1.327 . S
C674 H699 0.950 . S
C675 C674 1.349 . S
C675 C691 1.349 . S
C676 C674 1.327 . S
C676 C695 1.429 . S
C676 H700 0.950 . S
C677 C694 1.574 . S
C677 C696 1.368 . S
C677 H701 0.949 . S
H678 C682 0.949 . S
C679 C680 1.349 . S
C679 C681 1.327 . S
C679 H702 0.950 . S
C680 C679 1.349 . S
C680 C692 1.349 . S
C681 C679 1.327 . S
C681 C697 1.429 . S
C681 H703 0.950 . S
C682 H678 0.949 . S
C682 C690 1.574 . S
C682 C698 1.368 . S
H683 C691 0.950 . S
H684 C689 0.950 . S
H685 C690 0.949 . S
H686 C692 0.950 . S
H687 C693 0.950 . S
H688 C694 0.949 . S
C689 H684 0.950 . S
C689 C691 1.327 . S
C689 C695 1.429 . S
C690 C682 1.574 . S
C690 H685 0.949 . S
C690 C696 1.368 . S
C691 C675 1.349 . S
C691 H683 0.950 . S
C691 C689 1.327 . S
C692 C680 1.349 . S
C692 H686 0.950 . S
C692 C693 1.327 . S
C693 H687 0.950 . S
C693 C692 1.327 . S
C693 C697 1.429 . S
C694 C677 1.574 . S
C694 H688 0.949 . S
C694 C698 1.368 . S
C695 C676 1.429 . S
C695 C689 1.429 . S
C695 C696 1.523 . S
C696 C677 1.368 . S
C696 C690 1.368 . S
C696 C695 1.523 . S
C697 C681 1.429 . S
C697 C693 1.429 . S
C697 C698 1.523 . S
C698 C682 1.368 . S
C698 C694 1.368 . S
C698 C697 1.523 . S
H699 C674 0.950 . S
H700 C676 0.950 . S
H701 C677 0.949 . S
H702 C679 0.950 . S
H703 C681 0.950 . S
C704 C705 1.349 . S
C704 C706 1.327 . S
C704 H729 0.950 . S
C705 C704 1.349 . S
C705 C721 1.349 . S
C706 C704 1.327 . S
C706 C725 1.429 . S
C706 H730 0.950 . S
C707 C724 1.574 . S
C707 C726 1.368 . S
C707 H731 0.949 . S
H708 C712 0.949 . S
C709 C710 1.349 . S
C709 C711 1.327 . S
C709 H732 0.950 . S
C710 C709 1.349 . S
C710 C722 1.349 . S
C711 C709 1.327 . S
C711 C727 1.429 . S
C711 H733 0.950 . S
C712 H708 0.949 . S
C712 C720 1.574 . S
C712 C728 1.368 . S
H713 C721 0.950 . S
H714 C719 0.950 . S
H715 C720 0.949 . S
H716 C722 0.950 . S
H717 C723 0.950 . S
H718 C724 0.949 . S
C719 H714 0.950 . S
C719 C721 1.327 . S
C719 C725 1.429 . S
C720 C712 1.574 . S
C720 H715 0.949 . S
C720 C726 1.368 . S
C721 C705 1.349 . S
C721 H713 0.950 . S
C721 C719 1.327 . S
C722 C710 1.349 . S
C722 H716 0.950 . S
C722 C723 1.327 . S
C723 H717 0.950 . S
C723 C722 1.327 . S
C723 C727 1.429 . S
C724 C707 1.574 . S
C724 H718 0.949 . S
C724 C728 1.368 . S
C725 C706 1.429 . S
C725 C719 1.429 . S
C725 C726 1.523 . S
C726 C707 1.368 . S
C726 C720 1.368 . S
C726 C725 1.523 . S
C727 C711 1.429 . S
C727 C723 1.429 . S
C727 C728 1.523 . S
C728 C712 1.368 . S
C728 C724 1.368 . S
C728 C727 1.523 . S
H729 C704 0.950 . S
H730 C706 0.950 . S
H731 C707 0.949 . S
H732 C709 0.950 . S
H733 C711 0.950 . S
C734 C735 1.349 . S
C734 C736 1.327 . S
C734 H759 0.950 . S
C735 C734 1.349 . S
C735 C751 1.349 . S
C736 C734 1.327 . S
C736 C755 1.429 . S
C736 H760 0.950 . S
C737 C754 1.574 1_655 S
C737 C756 1.368 . S
C737 H761 0.949 . S
H738 C742 0.949 . S
C739 C740 1.349 . S
C739 C741 1.327 . S
C739 H762 0.950 . S
C740 C739 1.349 . S
C740 C752 1.349 . S
C741 C739 1.327 . S
C741 C757 1.429 . S
C741 H763 0.950 . S
C742 H738 0.949 . S
C742 C750 1.574 1_455 S
C742 C758 1.368 . S
H743 C751 0.950 . S
H744 C749 0.950 . S
H745 C750 0.949 . S
H746 C752 0.950 . S
H747 C753 0.950 . S
H748 C754 0.949 . S
C749 H744 0.950 . S
C749 C751 1.327 . S
C749 C755 1.429 . S
C750 C742 1.574 1_655 S
C750 H745 0.949 . S
C750 C756 1.368 . S
C751 C735 1.349 . S
C751 H743 0.950 . S
C751 C749 1.327 . S
C752 C740 1.349 . S
C752 H746 0.950 . S
C752 C753 1.327 . S
C753 H747 0.950 . S
C753 C752 1.327 . S
C753 C757 1.429 . S
C754 C737 1.574 1_455 S
C754 H748 0.949 . S
C754 C758 1.368 . S
C755 C736 1.429 . S
C755 C749 1.429 . S
C755 C756 1.523 . S
C756 C737 1.368 . S
C756 C750 1.368 . S
C756 C755 1.523 . S
C757 C741 1.429 . S
C757 C753 1.429 . S
C757 C758 1.523 . S
C758 C742 1.368 . S
C758 C754 1.368 . S
C758 C757 1.523 . S
H759 C734 0.950 . S
H760 C736 0.950 . S
H761 C737 0.949 . S
H762 C739 0.950 . S
H763 C741 0.950 . S
C764 C765 1.349 . S
C764 C766 1.327 . S
C764 H789 0.950 . S
C765 C764 1.349 . S
C765 C781 1.349 . S
C766 C764 1.327 . S
C766 C785 1.429 . S
C766 H790 0.950 . S
C767 C784 1.574 . S
C767 C786 1.368 . S
C767 H791 0.949 . S
H768 C772 0.949 . S
C769 C770 1.349 . S
C769 C771 1.327 . S
C769 H792 0.950 . S
C770 C769 1.349 . S
C770 C782 1.349 . S
C771 C769 1.327 . S
C771 C787 1.429 . S
C771 H793 0.950 . S
C772 H768 0.949 . S
C772 C780 1.574 . S
C772 C788 1.368 . S
H773 C781 0.950 . S
H774 C779 0.950 . S
H775 C780 0.949 . S
H776 C782 0.950 . S
H777 C783 0.950 . S
H778 C784 0.949 . S
C779 H774 0.950 . S
C779 C781 1.327 . S
C779 C785 1.429 . S
C780 C772 1.574 . S
C780 H775 0.949 . S
C780 C786 1.368 . S
C781 C765 1.349 . S
C781 H773 0.950 . S
C781 C779 1.327 . S
C782 C770 1.349 . S
C782 H776 0.950 . S
C782 C783 1.327 . S
C783 H777 0.950 . S
C783 C782 1.327 . S
C783 C787 1.429 . S
C784 C767 1.574 . S
C784 H778 0.949 . S
C784 C788 1.368 . S
C785 C766 1.429 . S
C785 C779 1.429 . S
C785 C786 1.523 . S
C786 C767 1.368 . S
C786 C780 1.368 . S
C786 C785 1.523 . S
C787 C771 1.429 . S
C787 C783 1.429 . S
C787 C788 1.523 . S
C788 C772 1.368 . S
C788 C784 1.368 . S
C788 C787 1.523 . S
H789 C764 0.950 . S
H790 C766 0.950 . S
H791 C767 0.949 . S
H792 C769 0.950 . S
H793 C771 0.950 . S
C794 C795 1.349 . S
C794 C796 1.327 . S
C794 H819 0.950 . S
C795 C794 1.349 . S
C795 C811 1.349 . S
C796 C794 1.327 . S
C796 C815 1.429 . S
C796 H820 0.950 . S
C797 C814 1.574 1_455 S
C797 C816 1.368 . S
C797 H821 0.949 . S
H798 C802 0.949 . S
C799 C800 1.349 . S
C799 C801 1.327 . S
C799 H822 0.950 . S
C800 C799 1.349 . S
C800 C812 1.349 . S
C801 C799 1.327 . S
C801 C817 1.429 . S
C801 H823 0.950 . S
C802 H798 0.949 . S
C802 C810 1.574 1_655 S
C802 C818 1.368 . S
H803 C811 0.950 . S
H804 C809 0.950 . S
H805 C810 0.949 . S
H806 C812 0.950 . S
H807 C813 0.950 . S
H808 C814 0.949 . S
C809 H804 0.950 . S
C809 C811 1.327 . S
C809 C815 1.429 . S
C810 C802 1.574 1_455 S
C810 H805 0.949 . S
C810 C816 1.368 . S
C811 C795 1.349 . S
C811 H803 0.950 . S
C811 C809 1.327 . S
C812 C800 1.349 . S
C812 H806 0.950 . S
C812 C813 1.327 . S
C813 H807 0.950 . S
C813 C812 1.327 . S
C813 C817 1.429 . S
C814 C797 1.574 1_655 S
C814 H808 0.949 . S
C814 C818 1.368 . S
C815 C796 1.429 . S
C815 C809 1.429 . S
C815 C816 1.523 . S
C816 C797 1.368 . S
C816 C810 1.368 . S
C816 C815 1.523 . S
C817 C801 1.429 . S
C817 C813 1.429 . S
C817 C818 1.523 . S
C818 C802 1.368 . S
C818 C814 1.368 . S
C818 C817 1.523 . S
H819 C794 0.950 . S
H820 C796 0.950 . S
H821 C797 0.949 . S
H822 C799 0.950 . S
H823 C801 0.950 . S
C824 C825 1.349 . S
C824 C826 1.327 . S
C824 H849 0.950 . S
C825 C824 1.349 . S
C825 C841 1.349 . S
C826 C824 1.327 . S
C826 C845 1.429 . S
C826 H850 0.950 . S
C827 C844 1.574 1_455 S
C827 C846 1.368 . S
C827 H851 0.949 . S
H828 C832 0.949 . S
C829 C830 1.349 . S
C829 C831 1.327 . S
C829 H852 0.950 . S
C830 C829 1.349 . S
C830 C842 1.349 . S
C831 C829 1.327 . S
C831 C847 1.429 . S
C831 H853 0.950 . S
C832 H828 0.949 . S
C832 C840 1.574 1_655 S
C832 C848 1.368 . S
H833 C841 0.950 . S
H834 C839 0.950 . S
H835 C840 0.949 . S
H836 C842 0.950 . S
H837 C843 0.950 . S
H838 C844 0.949 . S
C839 H834 0.950 . S
C839 C841 1.327 . S
C839 C845 1.429 . S
C840 C832 1.574 1_455 S
C840 H835 0.949 . S
C840 C846 1.368 . S
C841 C825 1.349 . S
C841 H833 0.950 . S
C841 C839 1.327 . S
C842 C830 1.349 . S
C842 H836 0.950 . S
C842 C843 1.327 . S
C843 H837 0.950 . S
C843 C842 1.327 . S
C843 C847 1.429 . S
C844 C827 1.574 1_655 S
C844 H838 0.949 . S
C844 C848 1.368 . S
C845 C826 1.429 . S
C845 C839 1.429 . S
C845 C846 1.523 . S
C846 C827 1.368 . S
C846 C840 1.368 . S
C846 C845 1.523 . S
C847 C831 1.429 . S
C847 C843 1.429 . S
C847 C848 1.523 . S
C848 C832 1.368 . S
C848 C844 1.368 . S
C848 C847 1.523 . S
H849 C824 0.950 . S
H850 C826 0.950 . S
H851 C827 0.949 . S
H852 C829 0.950 . S
H853 C831 0.950 . S
C854 C855 1.349 . S
C854 C856 1.327 . S
C854 H879 0.950 . S
C855 C854 1.349 . S
C855 C871 1.349 . S
C856 C854 1.327 . S
C856 C875 1.429 . S
C856 H880 0.950 . S
C857 C874 1.574 . S
C857 C876 1.368 . S
C857 H881 0.949 . S
H858 C862 0.949 . S
C859 C860 1.349 . S
C859 C861 1.327 . S
C859 H882 0.950 . S
C860 C859 1.349 . S
C860 C872 1.349 . S
C861 C859 1.327 . S
C861 C877 1.429 . S
C861 H883 0.950 . S
C862 H858 0.949 . S
C862 C870 1.574 . S
C862 C878 1.368 . S
H863 C871 0.950 . S
H864 C869 0.950 . S
H865 C870 0.949 . S
H866 C872 0.950 . S
H867 C873 0.950 . S
H868 C874 0.949 . S
C869 H864 0.950 . S
C869 C871 1.327 . S
C869 C875 1.429 . S
C870 C862 1.574 . S
C870 H865 0.949 . S
C870 C876 1.368 . S
C871 C855 1.349 . S
C871 H863 0.950 . S
C871 C869 1.327 . S
C872 C860 1.349 . S
C872 H866 0.950 . S
C872 C873 1.327 . S
C873 H867 0.950 . S
C873 C872 1.327 . S
C873 C877 1.429 . S
C874 C857 1.574 . S
C874 H868 0.949 . S
C874 C878 1.368 . S
C875 C856 1.429 . S
C875 C869 1.429 . S
C875 C876 1.523 . S
C876 C857 1.368 . S
C876 C870 1.368 . S
C876 C875 1.523 . S
C877 C861 1.429 . S
C877 C873 1.429 . S
C877 C878 1.523 . S
C878 C862 1.368 . S
C878 C874 1.368 . S
C878 C877 1.523 . S
H879 C854 0.950 . S
H880 C856 0.950 . S
H881 C857 0.949 . S
H882 C859 0.950 . S
H883 C861 0.950 . S
C884 C885 1.349 . S
C884 C886 1.327 . S
C884 H909 0.950 . S
C885 C884 1.349 . S
C885 C901 1.349 . S
C886 C884 1.327 . S
C886 C905 1.429 . S
C886 H910 0.950 . S
C887 C904 1.574 1_455 S
C887 C906 1.368 . S
C887 H911 0.949 . S
H888 C892 0.949 . S
C889 C890 1.349 . S
C889 C891 1.327 . S
C889 H912 0.950 . S
C890 C889 1.349 . S
C890 C902 1.349 . S
C891 C889 1.327 . S
C891 C907 1.429 . S
C891 H913 0.950 . S
C892 H888 0.949 . S
C892 C900 1.574 1_655 S
C892 C908 1.368 . S
H893 C901 0.950 . S
H894 C899 0.950 . S
H895 C900 0.949 . S
H896 C902 0.950 . S
H897 C903 0.950 . S
H898 C904 0.949 . S
C899 H894 0.950 . S
C899 C901 1.327 . S
C899 C905 1.429 . S
C900 C892 1.574 1_455 S
C900 H895 0.949 . S
C900 C906 1.368 . S
C901 C885 1.349 . S
C901 H893 0.950 . S
C901 C899 1.327 . S
C902 C890 1.349 . S
C902 H896 0.950 . S
C902 C903 1.327 . S
C903 H897 0.950 . S
C903 C902 1.327 . S
C903 C907 1.429 . S
C904 C887 1.574 1_655 S
C904 H898 0.949 . S
C904 C908 1.368 . S
C905 C886 1.429 . S
C905 C899 1.429 . S
C905 C906 1.523 . S
C906 C887 1.368 . S
C906 C900 1.368 . S
C906 C905 1.523 . S
C907 C891 1.429 . S
C907 C903 1.429 . S
C907 C908 1.523 . S
C908 C892 1.368 . S
C908 C904 1.368 . S
C908 C907 1.523 . S
H909 C884 0.950 . S
H910 C886 0.950 . S
H911 C887 0.949 . S
H912 C889 0.950 . S
H913 C891 0.950 . S
C914 C915 1.349 . S
C914 C916 1.327 . S
C914 H939 0.950 . S
C915 C914 1.349 . S
C915 C931 1.349 . S
C916 C914 1.327 . S
C916 C935 1.429 . S
C916 H940 0.950 . S
C917 C934 1.574 . S
C917 C936 1.368 . S
C917 H941 0.949 . S
H918 C922 0.949 . S
C919 C920 1.349 . S
C919 C921 1.327 . S
C919 H942 0.950 . S
C920 C919 1.349 . S
C920 C932 1.349 . S
C921 C919 1.327 . S
C921 C937 1.429 . S
C921 H943 0.950 . S
C922 H918 0.949 . S
C922 C930 1.574 . S
C922 C938 1.368 . S
H923 C931 0.950 . S
H924 C929 0.950 . S
H925 C930 0.949 . S
H926 C932 0.950 . S
H927 C933 0.950 . S
H928 C934 0.949 . S
C929 H924 0.950 . S
C929 C931 1.327 . S
C929 C935 1.429 . S
C930 C922 1.574 . S
C930 H925 0.949 . S
C930 C936 1.368 . S
C931 C915 1.349 . S
C931 H923 0.950 . S
C931 C929 1.327 . S
C932 C920 1.349 . S
C932 H926 0.950 . S
C932 C933 1.327 . S
C933 H927 0.950 . S
C933 C932 1.327 . S
C933 C937 1.429 . S
C934 C917 1.574 . S
C934 H928 0.949 . S
C934 C938 1.368 . S
C935 C916 1.429 . S
C935 C929 1.429 . S
C935 C936 1.523 . S
C936 C917 1.368 . S
C936 C930 1.368 . S
C936 C935 1.523 . S
C937 C921 1.429 . S
C937 C933 1.429 . S
C937 C938 1.523 . S
C938 C922 1.368 . S
C938 C934 1.368 . S
C938 C937 1.523 . S
H939 C914 0.950 . S
H940 C916 0.950 . S
H941 C917 0.949 . S
H942 C919 0.950 . S
H943 C921 0.950 . S
C944 C945 1.349 . S
C944 C946 1.327 . S
C944 H969 0.950 . S
C945 C944 1.349 . S
C945 C961 1.349 . S
C946 C944 1.327 . S
C946 C965 1.429 . S
C946 H970 0.950 . S
C947 C964 1.574 . S
C947 C966 1.368 . S
C947 H971 0.949 . S
H948 C952 0.949 . S
C949 C950 1.349 . S
C949 C951 1.327 . S
C949 H972 0.950 . S
C950 C949 1.349 . S
C950 C962 1.349 . S
C951 C949 1.327 . S
C951 C967 1.429 . S
C951 H973 0.950 . S
C952 H948 0.949 . S
C952 C960 1.574 . S
C952 C968 1.368 . S
H953 C961 0.950 . S
H954 C959 0.950 . S
H955 C960 0.949 . S
H956 C962 0.950 . S
H957 C963 0.950 . S
H958 C964 0.949 . S
C959 H954 0.950 . S
C959 C961 1.327 . S
C959 C965 1.429 . S
C960 C952 1.574 . S
C960 H955 0.949 . S
C960 C966 1.368 . S
C961 C945 1.349 . S
C961 H953 0.950 . S
C961 C959 1.327 . S
C962 C950 1.349 . S
C962 H956 0.950 . S
C962 C963 1.327 . S
C963 H957 0.950 . S
C963 C962 1.327 . S
C963 C967 1.429 . S
C964 C947 1.574 . S
C964 H958 0.949 . S
C964 C968 1.368 . S
C965 C946 1.429 . S
C965 C959 1.429 . S
C965 C966 1.523 . S
C966 C947 1.368 . S
C966 C960 1.368 . S
C966 C965 1.523 . S
C967 C951 1.429 . S
C967 C963 1.429 . S
C967 C968 1.523 . S
C968 C952 1.368 . S
C968 C964 1.368 . S
C968 C967 1.523 . S
H969 C944 0.950 . S
H970 C946 0.950 . S
H971 C947 0.949 . S
H972 C949 0.950 . S
H973 C951 0.950 . S
C974 C975 1.349 . S
C974 C976 1.327 . S
C974 H999 0.950 . S
C975 C974 1.349 . S
C975 C991 1.349 . S
C976 C974 1.327 . S
C976 C995 1.429 . S
C976 H1000 0.950 . S
C977 C994 1.574 . S
C977 C996 1.368 . S
C977 H1001 0.949 . S
H978 C982 0.949 . S
C979 C980 1.349 . S
C979 C981 1.327 . S
C979 H1002 0.950 . S
C980 C979 1.349 . S
C980 C992 1.349 . S
C981 C979 1.327 . S
C981 C997 1.429 . S
C981 H1003 0.950 . S
C982 H978 0.949 . S
C982 C990 1.574 . S
C982 C998 1.368 . S
H983 C991 0.950 . S
H984 C989 0.950 . S
H985 C990 0.949 . S
H986 C992 0.950 . S
H987 C993 0.950 . S
H988 C994 0.949 . S
C989 H984 0.950 . S
C989 C991 1.327 . S
C989 C995 1.429 . S
C990 C982 1.574 . S
C990 H985 0.949 . S
C990 C996 1.368 . S
C991 C975 1.349 . S
C991 H983 0.950 . S
C991 C989 1.327 . S
C992 C980 1.349 . S
C992 H986 0.950 . S
C992 C993 1.327 . S
C993 H987 0.950 . S
C993 C992 1.327 . S
C993 C997 1.429 . S
C994 C977 1.574 . S
C994 H988 0.949 . S
C994 C998 1.368 . S
C995 C976 1.429 . S
C995 C989 1.429 . S
C995 C996 1.523 . S
C996 C977 1.368 . S
C996 C990 1.368 . S
C996 C995 1.523 . S
C997 C981 1.429 . S
C997 C993 1.429 . S
C997 C998 1.523 . S
C998 C982 1.368 . S
C998 C994 1.368 . S
C998 C997 1.523 . S
H999 C974 0.950 . S
H1000 C976 0.950 . S
H1001 C977 0.949 . S
H1002 C979 0.950 . S
H1003 C981 0.950 . S
C1004 C1005 1.349 . S
C1004 C1006 1.327 . S
C1004 H1029 0.950 . S
C1005 C1004 1.349 . S
C1005 C1021 1.349 . S
C1006 C1004 1.327 . S
C1006 C1025 1.429 . S
C1006 H1030 0.950 . S
C1007 C1024 1.574 . S
C1007 C1026 1.368 . S
C1007 H1031 0.949 . S
H1008 C1012 0.949 . S
C1009 C1010 1.349 . S
C1009 C1011 1.327 . S
C1009 H1032 0.950 . S
C1010 C1009 1.349 . S
C1010 C1022 1.349 . S
C1011 C1009 1.327 . S
C1011 C1027 1.429 . S
C1011 H1033 0.950 . S
C1012 H1008 0.949 . S
C1012 C1020 1.574 . S
C1012 C1028 1.368 . S
H1013 C1021 0.950 . S
H1014 C1019 0.950 . S
H1015 C1020 0.949 . S
H1016 C1022 0.950 . S
H1017 C1023 0.950 . S
H1018 C1024 0.949 . S
C1019 H1014 0.950 . S
C1019 C1021 1.327 . S
C1019 C1025 1.429 . S
C1020 C1012 1.574 . S
C1020 H1015 0.949 . S
C1020 C1026 1.368 . S
C1021 C1005 1.349 . S
C1021 H1013 0.950 . S
C1021 C1019 1.327 . S
C1022 C1010 1.349 . S
C1022 H1016 0.950 . S
C1022 C1023 1.327 . S
C1023 H1017 0.950 . S
C1023 C1022 1.327 . S
C1023 C1027 1.429 . S
C1024 C1007 1.574 . S
C1024 H1018 0.949 . S
C1024 C1028 1.368 . S
C1025 C1006 1.429 . S
C1025 C1019 1.429 . S
C1025 C1026 1.523 . S
C1026 C1007 1.368 . S
C1026 C1020 1.368 . S
C1026 C1025 1.523 . S
C1027 C1011 1.429 . S
C1027 C1023 1.429 . S
C1027 C1028 1.523 . S
C1028 C1012 1.368 . S
C1028 C1024 1.368 . S
C1028 C1027 1.523 . S
H1029 C1004 0.950 . S
H1030 C1006 0.950 . S
H1031 C1007 0.949 . S
H1032 C1009 0.950 . S
H1033 C1011 0.950 . S
C1034 C1035 1.349 . S
C1034 C1036 1.327 . S
C1034 H1059 0.950 . S
C1035 C1034 1.349 . S
C1035 C1051 1.349 . S
C1036 C1034 1.327 . S
C1036 C1055 1.429 . S
C1036 H1060 0.950 . S
C1037 C1054 1.574 . S
C1037 C1056 1.368 . S
C1037 H1061 0.949 . S
H1038 C1042 0.949 . S
C1039 C1040 1.349 . S
C1039 C1041 1.327 . S
C1039 H1062 0.950 . S
C1040 C1039 1.349 . S
C1040 C1052 1.349 . S
C1041 C1039 1.327 . S
C1041 C1057 1.429 . S
C1041 H1063 0.950 . S
C1042 H1038 0.949 . S
C1042 C1050 1.574 . S
C1042 C1058 1.368 . S
H1043 C1051 0.950 . S
H1044 C1049 0.950 . S
H1045 C1050 0.949 . S
H1046 C1052 0.950 . S
H1047 C1053 0.950 . S
H1048 C1054 0.949 . S
C1049 H1044 0.950 . S
C1049 C1051 1.327 . S
C1049 C1055 1.429 . S
C1050 C1042 1.574 . S
C1050 H1045 0.949 . S
C1050 C1056 1.368 . S
C1051 C1035 1.349 . S
C1051 H1043 0.950 . S
C1051 C1049 1.327 . S
C1052 C1040 1.349 . S
C1052 H1046 0.950 . S
C1052 C1053 1.327 . S
C1053 H1047 0.950 . S
C1053 C1052 1.327 . S
C1053 C1057 1.429 . S
C1054 C1037 1.574 . S
C1054 H1048 0.949 . S
C1054 C1058 1.368 . S
C1055 C1036 1.429 . S
C1055 C1049 1.429 . S
C1055 C1056 1.523 . S
C1056 C1037 1.368 . S
C1056 C1050 1.368 . S
C1056 C1055 1.523 . S
C1057 C1041 1.429 . S
C1057 C1053 1.429 . S
C1057 C1058 1.523 . S
C1058 C1042 1.368 . S
C1058 C1054 1.368 . S
C1058 C1057 1.523 . S
H1059 C1034 0.950 . S
H1060 C1036 0.950 . S
H1061 C1037 0.949 . S
H1062 C1039 0.950 . S
H1063 C1041 0.950 . S
C1064 C1065 1.349 . S
C1064 C1066 1.327 . S
C1064 H1089 0.950 . S
C1065 C1064 1.349 . S
C1065 C1081 1.349 . S
C1066 C1064 1.327 . S
C1066 C1085 1.429 . S
C1066 H1090 0.950 . S
C1067 C1084 1.574 . S
C1067 C1086 1.368 . S
C1067 H1091 0.949 . S
H1068 C1072 0.949 . S
C1069 C1070 1.349 . S
C1069 C1071 1.327 . S
C1069 H1092 0.950 . S
C1070 C1069 1.349 . S
C1070 C1082 1.349 . S
C1071 C1069 1.327 . S
C1071 C1087 1.429 . S
C1071 H1093 0.950 . S
C1072 H1068 0.949 . S
C1072 C1080 1.574 . S
C1072 C1088 1.368 . S
H1073 C1081 0.950 . S
H1074 C1079 0.950 . S
H1075 C1080 0.949 . S
H1076 C1082 0.950 . S
H1077 C1083 0.950 . S
H1078 C1084 0.949 . S
C1079 H1074 0.950 . S
C1079 C1081 1.327 . S
C1079 C1085 1.429 . S
C1080 C1072 1.574 . S
C1080 H1075 0.949 . S
C1080 C1086 1.368 . S
C1081 C1065 1.349 . S
C1081 H1073 0.950 . S
C1081 C1079 1.327 . S
C1082 C1070 1.349 . S
C1082 H1076 0.950 . S
C1082 C1083 1.327 . S
C1083 H1077 0.950 . S
C1083 C1082 1.327 . S
C1083 C1087 1.429 . S
C1084 C1067 1.574 . S
C1084 H1078 0.949 . S
C1084 C1088 1.368 . S
C1085 C1066 1.429 . S
C1085 C1079 1.429 . S
C1085 C1086 1.523 . S
C1086 C1067 1.368 . S
C1086 C1080 1.368 . S
C1086 C1085 1.523 . S
C1087 C1071 1.429 . S
C1087 C1083 1.429 . S
C1087 C1088 1.523 . S
C1088 C1072 1.368 . S
C1088 C1084 1.368 . S
C1088 C1087 1.523 . S
H1089 C1064 0.950 . S
H1090 C1066 0.950 . S
H1091 C1067 0.949 . S
H1092 C1069 0.950 . S
H1093 C1071 0.950 . S
C1094 C1095 1.349 . S
C1094 C1096 1.327 . S
C1094 H1119 0.950 . S
C1095 C1094 1.349 . S
C1095 C1111 1.349 . S
C1096 C1094 1.327 . S
C1096 C1115 1.429 . S
C1096 H1120 0.950 . S
C1097 C1114 1.574 . S
C1097 C1116 1.368 . S
C1097 H1121 0.949 . S
H1098 C1102 0.949 . S
C1099 C1100 1.349 . S
C1099 C1101 1.327 . S
C1099 H1122 0.950 . S
C1100 C1099 1.349 . S
C1100 C1112 1.349 . S
C1101 C1099 1.327 . S
C1101 C1117 1.429 . S
C1101 H1123 0.950 . S
C1102 H1098 0.949 . S
C1102 C1110 1.574 . S
C1102 C1118 1.368 . S
H1103 C1111 0.950 . S
H1104 C1109 0.950 . S
H1105 C1110 0.949 . S
H1106 C1112 0.950 . S
H1107 C1113 0.950 . S
H1108 C1114 0.949 . S
C1109 H1104 0.950 . S
C1109 C1111 1.327 . S
C1109 C1115 1.429 . S
C1110 C1102 1.574 . S
C1110 H1105 0.949 . S
C1110 C1116 1.368 . S
C1111 C1095 1.349 . S
C1111 H1103 0.950 . S
C1111 C1109 1.327 . S
C1112 C1100 1.349 . S
C1112 H1106 0.950 . S
C1112 C1113 1.327 . S
C1113 H1107 0.950 . S
C1113 C1112 1.327 . S
C1113 C1117 1.429 . S
C1114 C1097 1.574 . S
C1114 H1108 0.949 . S
C1114 C1118 1.368 . S
C1115 C1096 1.429 . S
C1115 C1109 1.429 . S
C1115 C1116 1.523 . S
C1116 C1097 1.368 . S
C1116 C1110 1.368 . S
C1116 C1115 1.523 . S
C1117 C1101 1.429 . S
C1117 C1113 1.429 . S
C1117 C1118 1.523 . S
C1118 C1102 1.368 . S
C1118 C1114 1.368 . S
C1118 C1117 1.523 . S
H1119 C1094 0.950 . S
H1120 C1096 0.950 . S
H1121 C1097 0.949 . S
H1122 C1099 0.950 . S
H1123 C1101 0.950 . S
C1124 C1125 1.349 . S
C1124 C1126 1.327 . S
C1124 H1149 0.950 . S
C1125 C1124 1.349 . S
C1125 C1141 1.349 . S
C1126 C1124 1.327 . S
C1126 C1145 1.429 . S
C1126 H1150 0.950 . S
C1127 C1144 1.574 . S
C1127 C1146 1.368 . S
C1127 H1151 0.949 . S
H1128 C1132 0.949 . S
C1129 C1130 1.349 . S
C1129 C1131 1.327 . S
C1129 H1152 0.950 . S
C1130 C1129 1.349 . S
C1130 C1142 1.349 . S
C1131 C1129 1.327 . S
C1131 C1147 1.429 . S
C1131 H1153 0.950 . S
C1132 H1128 0.949 . S
C1132 C1140 1.574 . S
C1132 C1148 1.368 . S
H1133 C1141 0.950 . S
H1134 C1139 0.950 . S
H1135 C1140 0.949 . S
H1136 C1142 0.950 . S
H1137 C1143 0.950 . S
H1138 C1144 0.949 . S
C1139 H1134 0.950 . S
C1139 C1141 1.327 . S
C1139 C1145 1.429 . S
C1140 C1132 1.574 . S
C1140 H1135 0.949 . S
C1140 C1146 1.368 . S
C1141 C1125 1.349 . S
C1141 H1133 0.950 . S
C1141 C1139 1.327 . S
C1142 C1130 1.349 . S
C1142 H1136 0.950 . S
C1142 C1143 1.327 . S
C1143 H1137 0.950 . S
C1143 C1142 1.327 . S
C1143 C1147 1.429 . S
C1144 C1127 1.574 . S
C1144 H1138 0.949 . S
C1144 C1148 1.368 . S
C1145 C1126 1.429 . S
C1145 C1139 1.429 . S
C1145 C1146 1.523 . S
C1146 C1127 1.368 . S
C1146 C1140 1.368 . S
C1146 C1145 1.523 . S
C1147 C1131 1.429 . S
C1147 C1143 1.429 . S
C1147 C1148 1.523 . S
C1148 C1132 1.368 . S
C1148 C1144 1.368 . S
C1148 C1147 1.523 . S
H1149 C1124 0.950 . S
H1150 C1126 0.950 . S
H1151 C1127 0.949 . S
H1152 C1129 0.950 . S
H1153 C1131 0.950 . S
C1154 C1155 1.349 . S
C1154 C1156 1.327 . S
C1154 H1179 0.950 . S
C1155 C1154 1.349 . S
C1155 C1171 1.349 . S
C1156 C1154 1.327 . S
C1156 C1175 1.429 . S
C1156 H1180 0.950 . S
C1157 C1174 1.574 . S
C1157 C1176 1.368 . S
C1157 H1181 0.949 . S
H1158 C1162 0.949 . S
C1159 C1160 1.349 . S
C1159 C1161 1.327 . S
C1159 H1182 0.950 . S
C1160 C1159 1.349 . S
C1160 C1172 1.349 . S
C1161 C1159 1.327 . S
C1161 C1177 1.429 . S
C1161 H1183 0.950 . S
C1162 H1158 0.949 . S
C1162 C1170 1.574 . S
C1162 C1178 1.368 . S
H1163 C1171 0.950 . S
H1164 C1169 0.950 . S
H1165 C1170 0.949 . S
H1166 C1172 0.950 . S
H1167 C1173 0.950 . S
H1168 C1174 0.949 . S
C1169 H1164 0.950 . S
C1169 C1171 1.327 . S
C1169 C1175 1.429 . S
C1170 C1162 1.574 . S
C1170 H1165 0.949 . S
C1170 C1176 1.368 . S
C1171 C1155 1.349 . S
C1171 H1163 0.950 . S
C1171 C1169 1.327 . S
C1172 C1160 1.349 . S
C1172 H1166 0.950 . S
C1172 C1173 1.327 . S
C1173 H1167 0.950 . S
C1173 C1172 1.327 . S
C1173 C1177 1.429 . S
C1174 C1157 1.574 . S
C1174 H1168 0.949 . S
C1174 C1178 1.368 . S
C1175 C1156 1.429 . S
C1175 C1169 1.429 . S
C1175 C1176 1.523 . S
C1176 C1157 1.368 . S
C1176 C1170 1.368 . S
C1176 C1175 1.523 . S
C1177 C1161 1.429 . S
C1177 C1173 1.429 . S
C1177 C1178 1.523 . S
C1178 C1162 1.368 . S
C1178 C1174 1.368 . S
C1178 C1177 1.523 . S
H1179 C1154 0.950 . S
H1180 C1156 0.950 . S
H1181 C1157 0.949 . S
H1182 C1159 0.950 . S
H1183 C1161 0.950 . S
C225 C13 1.332 . S
C230 C179 1.418 . S
C255 C193 1.418 . S
C260 C27 1.332 . S
C285 C41 1.332 . S
C290 C207 1.418 . S
C315 C221 1.418 . S
C320 C55 1.332 . S
C345 C125 1.332 . S
C350 C67 1.418 . S
C375 C81 1.418 . S
C380 C139 1.332 . S
C405 C153 1.332 . S
C410 C95 1.418 . S
C435 C109 1.418 . S
C440 C167 1.332 . S
C465 C8 1.343 . S
C470 C36 1.343 . S
C495 C22 1.343 . S
C500 C50 1.343 . S
C525 C64 1.500 . S
C530 C92 1.500 . S
C555 C78 1.500 . S
C560 C106 1.500 . S
C585 C148 1.343 . S
C590 C120 1.343 . S
C615 C134 1.343 . S
C620 C162 1.343 . S
C645 C204 1.500 . S
C650 C176 1.500 . S
C675 C190 1.500 . S
C680 C218 1.500 . S
C705 C91 1.495 . S
C710 C7 1.494 . S
C735 C105 1.495 . S
C740 C21 1.494 . S
C765 C35 1.494 . S
C770 C63 1.495 . S
C795 C49 1.494 . S
C800 C77 1.495 . S
C825 C203 1.495 . S
C830 C119 1.494 . S
C855 C133 1.494 . S
C860 C217 1.495 . S
C885 C175 1.495 . S
C890 C147 1.494 . S
C915 C161 1.494 . S
C920 C189 1.495 . S
C945 C11 1.280 . S
C950 C53 1.280 . S
C975 C39 1.280 . S
C980 C25 1.280 . S
C1005 C69 1.451 . S
C1010 C111 1.451 . S
C1035 C83 1.451 . S
C1040 C97 1.451 . S
C1065 C165 1.280 . S
C1070 C123 1.280 . S
C1095 C137 1.280 . S
C1100 C151 1.280 . S
C1125 C223 1.451 . S
C1130 C181 1.451 . S
C1155 C195 1.451 . S
C1160 C209 1.451 . S
