# Generated by pormake.
# Topology sxa, (6)-cn, num edge types: 1
# Building blocks:
#     Node 0, Type 0, BuildingBlock: IZENUY_clean_sbu_0, # of connection points: 6
#     Node 1, Type 0, BuildingBlock: IZENUY_clean_sbu_0, # of connection points: 6
#     Node 2, Type 0, BuildingBlock: IZENUY_clean_sbu_0, # of connection points: 6
#     Node 3, Type 0, BuildingBlock: IZENUY_clean_sbu_0, # of connection points: 6
#     Edge 4, Type (0, 0), BuildingBlock: UVAHIK_clean_linker_0, # of connection points: 2
#     Edge 5, Type (0, 0), BuildingBlock: UVAHIK_clean_linker_0, # of connection points: 2
#     Edge 6, Type (0, 0), BuildingBlock: UVAHIK_clean_linker_0, # of connection points: 2
#     Edge 7, Type (0, 0), BuildingBlock: UVAHIK_clean_linker_0, # of connection points: 2
#     Edge 8, Type (0, 0), BuildingBlock: UVAHIK_clean_linker_0, # of connection points: 2
#     Edge 9, Type (0, 0), BuildingBlock: UVAHIK_clean_linker_0, # of connection points: 2
#     Edge 10, Type (0, 0), BuildingBlock: UVAHIK_clean_linker_0, # of connection points: 2
#     Edge 11, Type (0, 0), BuildingBlock: UVAHIK_clean_linker_0, # of connection points: 2
#     Edge 12, Type (0, 0), BuildingBlock: UVAHIK_clean_linker_0, # of connection points: 2
#     Edge 13, Type (0, 0), BuildingBlock: UVAHIK_clean_linker_0, # of connection points: 2
#     Edge 14, Type (0, 0), BuildingBlock: UVAHIK_clean_linker_0, # of connection points: 2
#     Edge 15, Type (0, 0), BuildingBlock: UVAHIK_clean_linker_0, # of connection points: 2
# Relax obj value: 0.274
# Max RMSD: 0.267
# Mean RMSD: 0.267
data_MOF--net-sxa--node1-IZENUY_clean_sbu_0--edge1-UVAHIK_clean_linker_0
_symmetry_space_group_name_H-M    P1
_symmetry_Int_Tables_number       1
_symmetry_cell_setting            triclinic
loop_
_symmetry_equiv_pos_as_xyz
'x, y, z'
_cell_length_a     31.285188
_cell_length_b     35.238755
_cell_length_c     21.723306
_cell_angle_alpha  90.062956
_cell_angle_beta   90.098318
_cell_angle_gamma 90.17922
loop_
_atom_site_label
_atom_site_type_symbol
_atom_site_fract_x
_atom_site_fract_y
_atom_site_fract_z
_atom_type_partial_charge
Fe0 Fe 0.0196 0.83816 0.31674 0.0
Fe1 Fe 0.00478 0.7507 0.30714 0.0
O2 O 0.01679 0.79536 0.27279 0.0
Fe3 Fe 0.02676 0.79759 0.19254 0.0
O4 O 0.08139 0.81132 0.20726 0.0
O5 O 0.06478 0.85755 0.2718 0.0
O6 O 0.05937 0.81867 0.36783 0.0
C7 C 0.06193 0.78636 0.39236 0.0
C8 C -0.0147 0.86792 0.21215 0.0
O9 O 0.0371 0.75937 0.37695 0.0
C10 C 0.95567 0.75312 0.19557 0.0
O11 O -0.02436 0.82595 0.36945 0.0
O12 O 0.95632 0.76825 0.34214 0.0
O13 O 0.01058 0.84707 0.18232 0.0
O14 O -0.02001 0.86225 0.26891 0.0
C15 C 0.05931 0.72427 0.21912 0.0
O16 O 0.97082 0.73537 0.24182 0.0
O17 O 0.97259 0.78351 0.17614 0.0
C18 C 0.94936 0.79857 0.37108 0.0
O19 O 0.05187 0.72722 0.27577 0.0
O20 O 0.0448 0.74873 0.18262 0.0
C21 C 0.09169 0.84035 0.23813 0.0
Fe22 Fe 0.50833 0.27421 0.19411 0.0
Fe23 Fe 0.53108 0.32111 0.30859 0.0
O24 O 0.51877 0.27645 0.2743 0.0
Fe25 Fe 0.51608 0.23371 0.31819 0.0
O26 O 0.55525 0.20948 0.26993 0.0
O27 O 0.52405 0.2246 0.1837 0.0
O28 O 0.56251 0.28794 0.17743 0.0
C29 C 0.57975 0.31824 0.19681 0.0
C30 C 0.44343 0.23185 0.24028 0.0
O31 O 0.56484 0.3362 0.24304 0.0
C32 C 0.4743 0.28568 0.39421 0.0
O33 O 0.49069 0.32322 0.18424 0.0
O34 O 0.48385 0.34455 0.27749 0.0
O35 O 0.47048 0.21453 0.27362 0.0
O36 O 0.45369 0.2608 0.20928 0.0
C37 C 0.58687 0.2731 0.37182 0.0
O38 O 0.49904 0.31264 0.37857 0.0
O39 O 0.47676 0.25331 0.36975 0.0
C40 C 0.47645 0.34776 0.22085 0.0
O41 O 0.57967 0.3035 0.34329 0.0
O42 O 0.56049 0.24578 0.37042 0.0
C43 C 0.54952 0.20376 0.21323 0.0
Fe44 Fe 0.00818 0.29748 0.93123 0.0
Fe45 Fe 0.0158 0.33758 0.80674 0.0
O46 O 0.01858 0.29501 0.85111 0.0
Fe47 Fe 0.03101 0.25033 0.81727 0.0
O48 O -0.01624 0.22661 0.84808 0.0
O49 O -0.00983 0.24851 0.9412 0.0
O50 O 0.9536 0.31076 0.91584 0.0
C51 C 0.94339 0.33962 0.88473 0.0
C52 C 0.07939 0.25352 0.92942 0.0
O53 O 0.9704 0.35684 0.85113 0.0
C54 C 0.08654 0.29838 0.75361 0.0
O55 O 0.02424 0.34711 0.94122 0.0
O56 O 0.05513 0.36218 0.85474 0.0
O57 O 0.06453 0.23547 0.88315 0.0
O58 O 0.0623 0.28386 0.9484 0.0
C59 C 0.97421 0.28509 0.73101 0.0
O60 O 0.06002 0.32545 0.75449 0.0
O61 O 0.07966 0.2682 0.78296 0.0
C62 C 0.04963 0.368 0.91145 0.0
O63 O -0.02372 0.31752 0.75542 0.0
O64 O -0.00078 0.2585 0.74691 0.0
C65 C -0.02403 0.2238 0.90465 0.0
Fe66 Fe 0.50537 0.82097 0.81719 0.0
Fe67 Fe 0.51966 0.73345 0.8079 0.0
O68 O 0.51721 0.77635 0.8517 0.0
Fe69 Fe 0.52744 0.77429 0.93194 0.0
O70 O 0.47342 0.78833 0.94841 0.0
O71 O 0.47151 0.83629 0.8824 0.0
O72 O 0.4568 0.8033 0.78213 0.0
C73 C 0.44957 0.77292 0.75338 0.0
C74 C 0.56018 0.84766 0.90516 0.0
O75 O 0.47563 0.74552 0.75521 0.0
C76 C 0.59194 0.73145 0.88641 0.0
O77 O 0.53761 0.81226 0.74751 0.0
O78 O 0.55939 0.75293 0.75669 0.0
O79 O 0.54577 0.82316 0.94171 0.0
O80 O 0.55258 0.84462 0.84853 0.0
C81 C 0.48536 0.704 0.91276 0.0
O82 O 0.56481 0.7142 0.85286 0.0
O83 O 0.58195 0.76055 0.91715 0.0
C84 C 0.56219 0.78524 0.73214 0.0
O85 O 0.4801 0.70929 0.85587 0.0
O86 O 0.51094 0.72487 0.94238 0.0
C87 C 0.45646 0.81856 0.92876 0.0
C88 C 0.07968 0.43473 0.90769 0.0
C89 C 0.06586 0.40313 0.94186 0.0
C90 C 0.08876 0.46936 0.9372 0.0
C91 C 0.108 0.51361 0.09196 0.0
H92 H 0.05988 0.60306 1.01535 0.0
C93 C 0.073 0.65379 0.22485 0.0
C94 C 0.0759 0.68826 0.19251 0.0
C95 C 0.07996 0.61908 0.1946 0.0
C96 C 0.07426 0.57858 1.03713 0.0
H97 H 0.05312 0.38276 1.03428 0.0
H98 H 0.06866 0.44259 0.08515 0.0
H99 H 0.05803 0.54279 0.96087 0.0
H100 H 0.09172 0.71328 0.10425 0.0
H101 H 0.10482 0.65324 1.05232 0.0
H102 H 0.12332 0.54942 0.16891 0.0
C103 C 0.07271 0.4409 1.03573 0.0
C104 C 0.07321 0.54388 1.00568 0.0
C105 C 0.06349 0.4065 1.00635 0.0
C106 C 0.0888 0.68728 0.1305 0.0
C107 C 0.09593 0.65275 0.10047 0.0
C108 C 0.10904 0.54838 0.12349 0.0
C109 C 0.08455 0.47311 1.00157 0.0
C110 C 0.08956 0.51075 1.03289 0.0
C111 C 0.09016 0.61808 0.13141 0.0
C112 C 0.09177 0.58132 0.09678 0.0
H113 H 0.08184 0.43319 0.858 0.0
H114 H 0.09837 0.49341 0.90943 0.0
H115 H 0.12146 0.48886 0.11413 0.0
H116 H 0.06283 0.65343 0.27248 0.0
H117 H 0.07505 0.59302 0.22001 0.0
C118 C 0.452 0.3869 0.13117 0.0
C119 C 0.46047 0.38416 0.19472 0.0
C120 C 0.44525 0.42216 0.10327 0.0
C121 C 0.47301 0.52306 0.12625 0.0
H122 H 0.40043 0.53875 0.98365 0.0
C123 C 0.46672 0.66868 1.00863 0.0
C124 C 0.46874 0.66942 0.94396 0.0
C125 C 0.45837 0.63492 1.04012 0.0
C126 C 0.42108 0.53478 1.02316 0.0
H127 H 0.46563 0.41656 0.27929 0.0
H128 H 0.45309 0.47812 0.2308 0.0
H129 H 0.39766 0.47833 1.03881 0.0
H130 H 0.46136 0.63534 0.86156 0.0
H131 H 0.44713 0.57597 0.91668 0.0
H132 H 0.49711 0.57897 0.1102 0.0
C133 C 0.45255 0.4529 0.20228 0.0
C134 C 0.41946 0.50011 1.05493 0.0
C135 C 0.45927 0.41751 0.23029 0.0
C136 C 0.45981 0.63581 0.91136 0.0
C137 C 0.45168 0.60175 0.94306 0.0
C138 C 0.47461 0.5576 0.09461 0.0
C139 C 0.44673 0.45582 0.13806 0.0
C140 C 0.44564 0.49366 0.10674 0.0
C141 C 0.45211 0.60068 1.00799 0.0
C142 C 0.44885 0.56398 1.04243 0.0
H143 H 0.45255 0.36186 0.10222 0.0
H144 H 0.44116 0.4231 1.05379 0.0
H145 H 0.4944 0.519 0.16491 0.0
H146 H 0.47294 0.69415 1.03521 0.0
H147 H 0.45781 0.63553 0.08995 0.0
C148 C 0.5899 0.88491 0.99366 0.0
C149 C 0.57676 0.88381 0.93169 0.0
C150 C 0.59691 0.91951 1.0237 0.0
C151 C 0.60904 1.02406 1.00068 0.0
H152 H 0.55873 1.02898 0.16354 0.0
C153 C 0.56277 0.16534 0.11817 0.0
C154 C 0.56562 0.16875 0.18263 0.0
C155 C 0.57205 0.13105 0.0887 0.0
C156 C 0.57371 1.02809 0.11866 0.0
H157 H 0.56314 0.91852 0.85179 0.0
H158 H 0.57514 0.97904 0.90427 0.0
H159 H 0.5609 0.96874 0.10903 0.0
H160 H 0.58245 0.13888 0.26633 0.0
H161 H 0.59905 0.07886 0.21474 0.0
H162 H 0.62091 0.08375 1.00999 0.0
C163 C 0.58034 0.95303 0.92964 0.0
C164 C 0.57494 0.9934 0.08719 0.0
C165 C 0.57351 0.91826 0.89939 0.0
C166 C 0.57991 0.13731 0.21666 0.0
C167 C 0.58904 0.10279 0.18707 0.0
C168 C 0.6078 0.05882 1.03221 0.0
C169 C 0.59077 0.95413 0.9928 0.0
C170 C 0.59221 0.9909 1.02746 0.0
C171 C 0.58442 0.099 0.12274 0.0
C172 C 0.5896 0.06143 0.09137 0.0
H173 H 0.59307 0.85893 1.01989 0.0
H174 H 0.60598 0.91911 0.07182 0.0
H175 H 0.62312 1.02322 0.9552 0.0
H176 H 0.55202 0.18897 0.09035 0.0
H177 H 0.56767 0.1293 1.03932 0.0
C178 C 0.97141 0.90623 0.11727 0.0
C179 C 0.96907 0.90293 0.18176 0.0
C180 C 0.96224 0.94055 0.08791 0.0
C181 C 0.9619 0.04358 0.11803 0.0
H182 H 0.91186 0.0487 0.95476 0.0
C183 C 0.9464 0.18675 0.99322 0.0
C184 C 0.95938 0.18772 0.93124 0.0
C185 C 0.93926 0.15222 1.02324 0.0
C186 C 0.92611 0.04778 1.00019 0.0
H187 H 0.95319 0.93303 0.26564 0.0
H188 H 0.93673 0.99311 0.21425 0.0
H189 H 0.91362 0.98821 1.00951 0.0
H190 H 0.97257 0.15285 0.85132 0.0
H191 H 0.96031 0.09245 0.90377 0.0
H192 H -0.02471 0.10281 0.1084 0.0
C193 C 0.94629 0.96907 0.18646 0.0
C194 C 0.9271 1.01305 1.0317 0.0
C195 C 0.95532 0.93451 0.21595 0.0
C196 C 0.96235 0.15322 0.89892 0.0
C197 C 0.95536 0.11852 0.92915 0.0
C198 C 0.9609 0.07824 0.08659 0.0
C199 C 0.95048 0.97275 0.12208 0.0
C200 C 0.94553 1.01034 0.09078 0.0
C201 C 0.94507 0.11754 0.99232 0.0
C202 C 0.94341 0.08082 1.02693 0.0
H203 H -0.01827 0.88249 0.08932 0.0
H204 H 0.96629 0.9422 1.03849 0.0
H205 H -0.02293 0.04261 0.16284 0.0
H206 H 0.94343 0.21277 1.01946 0.0
H207 H 0.93031 0.15273 0.07137 0.0
C208 C 0.396 0.73568 0.68944 0.0
C209 C 0.40971 0.7702 0.71578 0.0
C210 C 0.358 0.73386 0.65483 0.0
C211 C 0.28482 0.79508 0.56539 0.0
H212 H 0.20011 0.71597 0.58971 0.0
C213 C 0.11662 0.81163 0.46602 0.0
C214 C 0.09695 0.78017 0.43775 0.0
C215 C 0.15365 0.80736 0.50129 0.0
C216 C 0.22364 0.73802 0.58182 0.0
H217 H 0.39368 0.82979 0.72614 0.0
H218 H 0.32832 0.82658 0.66612 0.0
H219 H 0.26794 0.71373 0.64641 0.0
H220 H 0.10015 0.71911 0.42676 0.0
H221 H 0.16541 0.71161 0.48831 0.0
H222 H 0.24123 0.81942 0.50094 0.0
C223 C 0.34691 0.80093 0.67173 0.0
C224 C 0.26253 0.73672 0.61431 0.0
C225 C 0.38444 0.80269 0.70656 0.0
C226 C 0.1143 0.74392 0.44819 0.0
C227 C 0.15178 0.73965 0.48341 0.0
C228 C 0.24626 0.7963 0.53291 0.0
C229 C 0.33318 0.7666 0.64518 0.0
C230 C 0.29325 0.76568 0.60732 0.0
C231 C 0.17258 0.77152 0.50902 0.0
C232 C 0.21468 0.76827 0.5415 0.0
H233 H 0.4145 0.71005 0.69577 0.0
H234 H 0.34841 0.70699 0.6348 0.0
H235 H 0.30812 0.81738 0.55774 0.0
H236 H 0.10396 0.83994 0.45963 0.0
H237 H 0.16789 0.83245 0.52171 0.0
C238 C 0.15228 0.26891 0.7082 0.0
C239 C 0.12649 0.30118 0.71635 0.0
C240 C 0.18985 0.27073 0.67362 0.0
C241 C 0.27331 0.33531 0.61484 0.0
H242 H 0.29591 0.25154 0.5039 0.0
C243 C 0.42159 0.32809 0.44936 0.0
C244 C 0.43942 0.29195 0.43968 0.0
C245 C 0.38411 0.33229 0.48446 0.0
C246 C 0.29053 0.27497 0.53521 0.0
H247 H 0.12082 0.36103 0.69473 0.0
H248 H 0.18696 0.36421 0.63421 0.0
H249 H 0.22903 0.2534 0.5604 0.0
H250 H 0.43331 0.23233 0.46284 0.0
H251 H 0.36942 0.2397 0.52479 0.0
H252 H 0.33537 0.35657 0.58987 0.0
C253 C 0.17776 0.33745 0.65487 0.0
C254 C 0.25196 0.27608 0.56752 0.0
C255 C 0.13972 0.33556 0.68923 0.0
C256 C 0.42027 0.26055 0.46865 0.0
C257 C 0.38326 0.26475 0.50383 0.0
C258 C 0.31222 0.33411 0.58253 0.0
C259 C 0.2031 0.30492 0.64624 0.0
C260 C 0.24305 0.30588 0.60857 0.0
C261 C 0.3638 0.30043 0.51076 0.0
C262 C 0.32167 0.30351 0.54309 0.0
H263 H 0.14344 0.24192 0.7284 0.0
H264 H 0.20883 0.24525 0.66881 0.0
H265 H 0.26753 0.35861 0.64625 0.0
H266 H 0.43532 0.35284 0.42735 0.0
H267 H 0.37009 0.36022 0.48873 0.0
C268 C 0.92287 0.24184 0.6744 0.0
C269 C 0.94001 0.2783 0.68449 0.0
C270 C 0.88678 0.23681 0.63653 0.0
C271 C 0.82326 0.28369 0.51384 0.0
H272 H 0.72768 0.22527 0.57682 0.0
C273 C 0.65454 0.30173 0.4137 0.0
C274 C 0.6275 0.26994 0.40757 0.0
C275 C 0.69346 0.29917 0.44508 0.0
C276 C 0.75423 0.24121 0.55797 0.0
H277 H 0.93344 0.33779 0.6608 0.0
H278 H 0.87153 0.32896 0.59451 0.0
H279 H 0.79539 0.22632 0.63337 0.0
H280 H 0.62056 0.21038 0.43061 0.0
H281 H 0.68899 0.20579 0.48505 0.0
H282 H 0.78251 0.29882 0.43874 0.0
C283 C 0.8857 0.3042 0.61575 0.0
C284 C 0.79311 0.2418 0.59046 0.0
C285 C 0.92121 0.30928 0.65406 0.0
C286 C 0.64044 0.23549 0.43451 0.0
C287 C 0.67967 0.2329 0.46592 0.0
C288 C 0.78464 0.28295 0.48128 0.0
C289 C 0.86754 0.26804 0.60716 0.0
C290 C 0.82782 0.26372 0.56944 0.0
C291 C 0.70692 0.26468 0.47114 0.0
C292 C 0.74919 0.26243 0.50352 0.0
H293 H 0.9363 0.21742 0.69758 0.0
H294 H 0.87374 0.20853 0.63057 0.0
H295 H 0.84955 0.30031 0.49569 0.0
H296 H 0.64572 0.32886 0.39413 0.0
H297 H 0.71289 0.32453 0.44928 0.0
C298 C 0.89617 0.8357 0.43517 0.0
C299 C 0.90957 0.80123 0.40866 0.0
C300 C 0.85824 0.83748 0.46976 0.0
C301 C 0.78465 0.77614 0.55877 0.0
H302 H 0.70073 0.85557 0.53514 0.0
C303 C 0.61654 0.75989 0.65853 0.0
C304 C 0.59721 0.79138 0.68679 0.0
C305 C 0.65354 0.7641 0.62327 0.0
C306 C 0.72403 0.83342 0.54285 0.0
H307 H 0.89304 0.74167 0.398 0.0
H308 H 0.82781 0.74481 0.45798 0.0
H309 H 0.76843 0.85777 0.47841 0.0
H310 H 0.60102 0.85243 0.69781 0.0
H311 H 0.66622 0.85982 0.6363 0.0
H312 H 0.74098 0.75175 0.62311 0.0
C313 C 0.8466 0.77046 0.45251 0.0
C314 C 0.76286 0.8347 0.51033 0.0
C315 C 0.88406 0.76874 0.41771 0.0
C316 C 0.61489 0.82759 0.67638 0.0
C317 C 0.65234 0.8318 0.64118 0.0
C318 C 0.74616 0.77494 0.59129 0.0
C319 C 0.83317 0.80475 0.47923 0.0
C320 C 0.7933 0.80564 0.51707 0.0
C321 C 0.6728 0.7999 0.61553 0.0
C322 C 0.71485 0.80309 0.58297 0.0
H323 H 0.91486 0.86133 0.42899 0.0
H324 H 0.84891 0.86433 0.48991 0.0
H325 H 0.80772 0.75375 0.56624 0.0
H326 H 0.60364 0.7316 0.66491 0.0
H327 H 0.66749 0.73899 0.60283 0.0
C328 C 0.40497 0.87157 0.95091 0.0
C329 C 0.42242 0.83604 0.96629 0.0
C330 C 0.37436 0.88848 0.98899 0.0
C331 C 0.32962 0.88274 0.14678 0.0
H332 H 0.22136 0.90738 0.06988 0.0
C333 C 0.16984 0.83326 0.23046 0.0
C334 C 0.13399 0.85683 0.2277 0.0
C335 C 0.20954 0.84669 0.21153 0.0
C336 C 0.25171 0.90188 0.09219 0.0
H337 H 0.42106 0.79037 1.03344 0.0
H338 H 0.36788 0.81943 0.09863 0.0
H339 H 0.28514 0.90075 1.00634 0.0
H340 H 0.11092 0.91306 0.20555 0.0
H341 H 0.18078 0.9363 0.16925 0.0
H342 H 0.29521 0.88016 0.23177 0.0
C343 C 0.37838 0.83472 1.05812 0.0
C344 C 0.28821 0.898 1.0558 0.0
C345 C 0.40854 0.81781 1.02017 0.0
C346 C 0.13851 0.89463 0.20838 0.0
C347 C 0.1782 0.90784 0.18771 0.0
C348 C 0.29314 0.88631 0.18299 0.0
C349 C 0.36111 0.87028 1.04324 0.0
C350 C 0.32682 0.88601 0.08241 0.0
C351 C 0.21378 0.88364 0.18807 0.0
C352 C 0.25347 0.89365 0.15539 0.0
H353 H 0.41509 0.88639 0.90976 0.0
H354 H 0.36123 0.91577 0.97625 0.0
H355 H 0.3593 0.87435 0.16857 0.0
H356 H 0.16681 0.80399 0.24519 0.0
H357 H 0.23633 0.82728 0.21129 0.0
C358 C 0.12702 0.25476 1.02139 0.0
C359 C 0.11314 0.23617 0.9677 0.0
C360 C 0.15684 0.2379 1.06005 0.0
C361 C 0.24617 0.17358 1.0598 0.0
H362 H 0.23943 0.19346 0.23524 0.0
C363 C 0.39602 0.17753 0.21229 0.0
C364 C 0.40095 0.21556 0.23035 0.0
C365 C 0.35614 0.16431 0.1922 0.0
C366 C 0.2414 0.18673 0.18665 0.0
H367 H 0.12007 0.18523 0.91231 0.0
H368 H 0.17327 0.15595 0.98004 0.0
H369 H 0.17542 0.1993 0.17157 0.0
H370 H 0.36864 0.26882 0.24639 0.0
H371 H 0.2988 0.24557 0.21344 0.0
H372 H 0.31286 0.16359 0.07445 0.0
C373 C 0.16045 0.18348 0.99207 0.0
C374 C 0.20498 0.19033 0.15016 0.0
C375 C 0.13022 0.20035 0.95327 0.0
C376 C 0.3653 0.23939 0.23256 0.0
C377 C 0.32542 0.22598 0.21422 0.0
C378 C 0.28259 0.16967 0.09648 0.0
C379 C 0.17373 0.20204 1.04611 0.0
C380 C 0.20775 0.18634 0.08589 0.0
C381 C 0.32078 0.18876 0.19191 0.0
C382 C 0.28095 0.17865 0.15943 0.0
H383 H 0.11477 0.28243 1.03392 0.0
H384 H 0.1674 0.25346 0.10038 0.0
H385 H 0.24921 0.17025 1.01043 0.0
H386 H 0.42344 0.15887 0.20996 0.0
H387 H 0.35324 0.13564 0.17462 0.0
C388 C 0.62746 0.31712 0.10521 0.0
C389 C 0.61377 0.33561 0.15896 0.0
C390 C 0.65752 0.33395 0.06687 0.0
C391 C 0.74776 0.39764 0.06774 0.0
H392 H 0.73998 0.37885 0.89203 0.0
C393 C 0.89681 0.39395 0.91396 0.0
C394 C 0.90115 0.35603 0.89511 0.0
C395 C 0.85723 0.40716 0.93475 0.0
C396 C 0.74227 0.38527 0.94072 0.0
H397 H 0.62136 0.3863 0.21488 0.0
H398 H 0.67506 0.41554 0.14771 0.0
H399 H 0.67615 0.37312 0.95584 0.0
H400 H 0.86813 0.30298 0.87856 0.0
H401 H 0.79879 0.32625 0.91268 0.0
H402 H 0.81457 0.40722 1.05299 0.0
C403 C 0.66185 0.38811 0.13537 0.0
C404 C 0.70593 0.38174 0.97728 0.0
C405 C 0.63134 0.37128 0.17384 0.0
C406 C 0.86522 0.33233 0.89291 0.0
C407 C 0.82564 0.34575 0.91196 0.0
C408 C 0.78411 0.40148 1.031 0.0
C409 C 0.67488 0.36967 0.08122 0.0
C410 C 0.70902 0.38536 1.04159 0.0
C411 C 0.82159 0.38283 0.93499 0.0
C412 C 0.78206 0.3929 0.9679 0.0
H413 H 0.61486 0.28956 0.09232 0.0
H414 H 0.66788 0.31848 1.02645 0.0
H415 H 0.75104 0.40067 0.11716 0.0
H416 H 0.92445 0.41249 0.91637 0.0
H417 H 0.8548 0.43572 0.95288 0.0
C418 C 0.90784 0.75354 0.10385 0.0
C419 C 0.92178 0.73537 0.15774 0.0
C420 C 0.87793 0.7363 0.06554 0.0
C421 C 0.78831 0.67207 0.067 0.0
H422 H 0.79505 0.69094 0.89133 0.0
C423 C 0.63841 0.67678 0.91438 0.0
C424 C 0.63413 0.71491 0.89677 0.0
C425 C 0.67804 0.66322 0.93449 0.0
C426 C 0.79306 0.68445 0.93999 0.0
H427 H 0.91486 0.68479 0.21391 0.0
H428 H 0.86143 0.65484 0.1468 0.0
H429 H 0.85926 0.69663 0.95469 0.0
H430 H 0.66729 0.76802 0.88163 0.0
H431 H 0.73671 0.74415 0.91458 0.0
H432 H 0.72141 0.66255 1.0527 0.0
C433 C 0.87432 0.68233 0.13432 0.0
C434 C 0.82962 0.68796 0.9763 0.0
C435 C 0.90466 0.69958 0.17277 0.0
C436 C 0.67013 0.73853 0.89512 0.0
C437 C 0.70976 0.72476 0.91345 0.0
C438 C 0.75175 0.66823 1.0305 0.0
C439 C 0.86101 0.70047 0.08005 0.0
C440 C 0.82686 0.68443 1.04062 0.0
C441 C 0.71378 0.68742 0.93519 0.0
C442 C 0.75343 0.67689 0.96747 0.0
H443 H 0.92012 0.78117 0.09086 0.0
H444 H 0.86734 0.75154 1.02503 0.0
H445 H 0.78529 0.6691 0.11643 0.0
H446 H 0.61072 0.65829 0.91627 0.0
H447 H 0.68046 0.63446 0.95168 0.0
loop_
_geom_bond_atom_site_label_1
_geom_bond_atom_site_label_2
_geom_bond_distance
_geom_bond_site_symmetry_2
_ccdc_geom_bond_type
Fe0 O2 1.918 . S
Fe0 O5 1.997 . S
Fe0 O6 2.002 . S
Fe0 O11 1.976 . S
Fe0 O14 1.996 . S
Fe1 O2 1.918 . S
Fe1 O9 1.997 . S
Fe1 O12 1.996 1_455 S
Fe1 O16 1.976 1_455 S
Fe1 O19 2.002 . S
O2 Fe0 1.918 . S
O2 Fe1 1.918 . S
O2 Fe3 1.918 . S
Fe3 O2 1.918 . S
Fe3 O4 2.002 . S
Fe3 O13 1.976 . S
Fe3 O17 1.996 1_455 S
Fe3 O20 1.997 . S
O4 Fe3 2.002 . S
O4 C21 1.295 . S
O5 Fe0 1.997 . S
O5 C21 1.235 . S
O6 Fe0 2.002 . S
O6 C7 1.295 . S
C7 O6 1.295 . S
C7 O9 1.235 . S
C8 O13 1.287 . S
C8 O14 1.255 . S
O9 Fe1 1.997 . S
O9 C7 1.235 . S
C10 O16 1.287 . S
C10 O17 1.255 . S
O11 Fe0 1.976 . S
O11 C18 1.287 1_455 S
O12 Fe1 1.996 1_655 S
O12 C18 1.255 . S
O13 Fe3 1.976 . S
O13 C8 1.287 . S
O14 Fe0 1.996 . S
O14 C8 1.255 . S
C15 O19 1.295 . S
C15 O20 1.235 . S
O16 Fe1 1.976 1_655 S
O16 C10 1.287 . S
O17 Fe3 1.996 1_655 S
O17 C10 1.255 . S
C18 O11 1.287 1_655 S
C18 O12 1.255 . S
O19 Fe1 2.002 . S
O19 C15 1.295 . S
O20 Fe3 1.997 . S
O20 C15 1.235 . S
C21 O4 1.295 . S
C21 O5 1.235 . S
Fe22 O24 1.918 . S
Fe22 O27 1.997 . S
Fe22 O28 2.002 . S
Fe22 O33 1.976 . S
Fe22 O36 1.996 . S
Fe23 O24 1.918 . S
Fe23 O31 1.997 . S
Fe23 O34 1.996 . S
Fe23 O38 1.976 . S
Fe23 O41 2.002 . S
O24 Fe22 1.918 . S
O24 Fe23 1.918 . S
O24 Fe25 1.918 . S
Fe25 O24 1.918 . S
Fe25 O26 2.002 . S
Fe25 O35 1.976 . S
Fe25 O39 1.996 . S
Fe25 O42 1.997 . S
O26 Fe25 2.002 . S
O26 C43 1.295 . S
O27 Fe22 1.997 . S
O27 C43 1.235 . S
O28 Fe22 2.002 . S
O28 C29 1.295 . S
C29 O28 1.295 . S
C29 O31 1.235 . S
C30 O35 1.287 . S
C30 O36 1.255 . S
O31 Fe23 1.997 . S
O31 C29 1.235 . S
C32 O38 1.287 . S
C32 O39 1.255 . S
O33 Fe22 1.976 . S
O33 C40 1.287 . S
O34 Fe23 1.996 . S
O34 C40 1.255 . S
O35 Fe25 1.976 . S
O35 C30 1.287 . S
O36 Fe22 1.996 . S
O36 C30 1.255 . S
C37 O41 1.295 . S
C37 O42 1.235 . S
O38 Fe23 1.976 . S
O38 C32 1.287 . S
O39 Fe25 1.996 . S
O39 C32 1.255 . S
C40 O33 1.287 . S
C40 O34 1.255 . S
O41 Fe23 2.002 . S
O41 C37 1.295 . S
O42 Fe25 1.997 . S
O42 C37 1.235 . S
C43 O26 1.295 . S
C43 O27 1.235 . S
Fe44 O46 1.918 . S
Fe44 O49 1.997 . S
Fe44 O50 2.002 1_455 S
Fe44 O55 1.976 . S
Fe44 O58 1.996 . S
Fe45 O46 1.918 . S
Fe45 O53 1.997 1_455 S
Fe45 O56 1.996 . S
Fe45 O60 1.976 . S
Fe45 O63 2.002 1_455 S
O46 Fe44 1.918 . S
O46 Fe45 1.918 . S
O46 Fe47 1.918 . S
Fe47 O46 1.918 . S
Fe47 O48 2.002 . S
Fe47 O57 1.976 . S
Fe47 O61 1.996 . S
Fe47 O64 1.997 . S
O48 Fe47 2.002 . S
O48 C65 1.295 . S
O49 Fe44 1.997 . S
O49 C65 1.235 . S
O50 Fe44 2.002 1_655 S
O50 C51 1.295 . S
C51 O50 1.295 . S
C51 O53 1.235 . S
C52 O57 1.287 . S
C52 O58 1.255 . S
O53 Fe45 1.997 1_655 S
O53 C51 1.235 . S
C54 O60 1.287 . S
C54 O61 1.255 . S
O55 Fe44 1.976 . S
O55 C62 1.287 . S
O56 Fe45 1.996 . S
O56 C62 1.255 . S
O57 Fe47 1.976 . S
O57 C52 1.287 . S
O58 Fe44 1.996 . S
O58 C52 1.255 . S
C59 O63 1.295 . S
C59 O64 1.235 1_655 S
O60 Fe45 1.976 . S
O60 C54 1.287 . S
O61 Fe47 1.996 . S
O61 C54 1.255 . S
C62 O55 1.287 . S
C62 O56 1.255 . S
O63 Fe45 2.002 1_655 S
O63 C59 1.295 . S
O64 Fe47 1.997 . S
O64 C59 1.235 1_455 S
C65 O48 1.295 . S
C65 O49 1.235 . S
Fe66 O68 1.918 . S
Fe66 O71 1.997 . S
Fe66 O72 2.002 . S
Fe66 O77 1.976 . S
Fe66 O80 1.996 . S
Fe67 O68 1.918 . S
Fe67 O75 1.997 . S
Fe67 O78 1.996 . S
Fe67 O82 1.976 . S
Fe67 O85 2.002 . S
O68 Fe66 1.918 . S
O68 Fe67 1.918 . S
O68 Fe69 1.918 . S
Fe69 O68 1.918 . S
Fe69 O70 2.002 . S
Fe69 O79 1.976 . S
Fe69 O83 1.996 . S
Fe69 O86 1.997 . S
O70 Fe69 2.002 . S
O70 C87 1.295 . S
O71 Fe66 1.997 . S
O71 C87 1.235 . S
O72 Fe66 2.002 . S
O72 C73 1.295 . S
C73 O72 1.295 . S
C73 O75 1.235 . S
C74 O79 1.287 . S
C74 O80 1.255 . S
O75 Fe67 1.997 . S
O75 C73 1.235 . S
C76 O82 1.287 . S
C76 O83 1.255 . S
O77 Fe66 1.976 . S
O77 C84 1.287 . S
O78 Fe67 1.996 . S
O78 C84 1.255 . S
O79 Fe69 1.976 . S
O79 C74 1.287 . S
O80 Fe66 1.996 . S
O80 C74 1.255 . S
C81 O85 1.295 . S
C81 O86 1.235 . S
O82 Fe67 1.976 . S
O82 C76 1.287 . S
O83 Fe69 1.996 . S
O83 C76 1.255 . S
C84 O77 1.287 . S
C84 O78 1.255 . S
O85 Fe67 2.002 . S
O85 C81 1.295 . S
O86 Fe69 1.997 . S
O86 C81 1.235 . S
C87 O70 1.295 . S
C87 O71 1.235 . S
C88 C89 1.349 . S
C88 C90 1.327 . S
C88 H113 0.950 . S
C89 C88 1.349 . S
C89 C105 1.349 . S
C90 C88 1.327 . S
C90 C109 1.429 . S
C90 H114 0.950 . S
C91 C108 1.574 . S
C91 C110 1.368 1_554 S
C91 H115 0.949 . S
H92 C96 0.949 . S
C93 C94 1.349 . S
C93 C95 1.327 . S
C93 H116 0.950 . S
C94 C93 1.349 . S
C94 C106 1.349 . S
C95 C93 1.327 . S
C95 C111 1.429 . S
C95 H117 0.950 . S
C96 H92 0.949 . S
C96 C104 1.574 . S
C96 C112 1.368 1_556 S
H97 C105 0.950 . S
H98 C103 0.950 . S
H99 C104 0.949 . S
H100 C106 0.950 . S
H101 C107 0.950 . S
H102 C108 0.949 . S
C103 H98 0.950 . S
C103 C105 1.327 . S
C103 C109 1.429 . S
C104 C96 1.574 . S
C104 H99 0.949 . S
C104 C110 1.368 . S
C105 C89 1.349 . S
C105 H97 0.950 . S
C105 C103 1.327 . S
C106 C94 1.349 . S
C106 H100 0.950 . S
C106 C107 1.327 . S
C107 H101 0.950 . S
C107 C106 1.327 . S
C107 C111 1.429 . S
C108 C91 1.574 . S
C108 H102 0.949 . S
C108 C112 1.368 . S
C109 C90 1.429 . S
C109 C103 1.429 . S
C109 C110 1.523 . S
C110 C91 1.368 1_556 S
C110 C104 1.368 . S
C110 C109 1.523 . S
C111 C95 1.429 . S
C111 C107 1.429 . S
C111 C112 1.523 . S
C112 C96 1.368 1_554 S
C112 C108 1.368 . S
C112 C111 1.523 . S
H113 C88 0.950 . S
H114 C90 0.950 . S
H115 C91 0.949 . S
H116 C93 0.950 . S
H117 C95 0.950 . S
C118 C119 1.349 . S
C118 C120 1.327 . S
C118 H143 0.950 . S
C119 C118 1.349 . S
C119 C135 1.349 . S
C120 C118 1.327 . S
C120 C139 1.429 . S
C120 H144 0.950 1_554 S
C121 C138 1.574 . S
C121 C140 1.368 . S
C121 H145 0.949 . S
H122 C126 0.949 . S
C123 C124 1.349 . S
C123 C125 1.327 . S
C123 H146 0.950 . S
C124 C123 1.349 . S
C124 C136 1.349 . S
C125 C123 1.327 . S
C125 C141 1.429 . S
C125 H147 0.950 1_556 S
C126 H122 0.949 . S
C126 C134 1.574 . S
C126 C142 1.368 . S
H127 C135 0.950 . S
H128 C133 0.950 . S
H129 C134 0.949 . S
H130 C136 0.950 . S
H131 C137 0.950 . S
H132 C138 0.949 . S
C133 H128 0.950 . S
C133 C135 1.327 . S
C133 C139 1.429 . S
C134 C126 1.574 . S
C134 H129 0.949 . S
C134 C140 1.368 1_556 S
C135 C119 1.349 . S
C135 H127 0.950 . S
C135 C133 1.327 . S
C136 C124 1.349 . S
C136 H130 0.950 . S
C136 C137 1.327 . S
C137 H131 0.950 . S
C137 C136 1.327 . S
C137 C141 1.429 . S
C138 C121 1.574 . S
C138 H132 0.949 . S
C138 C142 1.368 1_554 S
C139 C120 1.429 . S
C139 C133 1.429 . S
C139 C140 1.523 . S
C140 C121 1.368 . S
C140 C134 1.368 1_554 S
C140 C139 1.523 . S
C141 C125 1.429 . S
C141 C137 1.429 . S
C141 C142 1.523 . S
C142 C126 1.368 . S
C142 C138 1.368 1_556 S
C142 C141 1.523 . S
H143 C118 0.950 . S
H144 C120 0.950 1_556 S
H145 C121 0.949 . S
H146 C123 0.950 . S
H147 C125 0.950 1_554 S
C148 C149 1.349 . S
C148 C150 1.327 . S
C148 H173 0.950 . S
C149 C148 1.349 . S
C149 C165 1.349 . S
C150 C148 1.327 . S
C150 C169 1.429 . S
C150 H174 0.950 1_556 S
C151 C168 1.574 1_565 S
C151 C170 1.368 . S
C151 H175 0.949 . S
H152 C156 0.949 . S
C153 C154 1.349 . S
C153 C155 1.327 . S
C153 H176 0.950 . S
C154 C153 1.349 . S
C154 C166 1.349 . S
C155 C153 1.327 . S
C155 C171 1.429 . S
C155 H177 0.950 1_554 S
C156 H152 0.949 . S
C156 C164 1.574 1_545 S
C156 C172 1.368 . S
H157 C165 0.950 . S
H158 C163 0.950 . S
H159 C164 0.949 . S
H160 C166 0.950 . S
H161 C167 0.950 . S
H162 C168 0.949 . S
C163 H158 0.950 . S
C163 C165 1.327 . S
C163 C169 1.429 . S
C164 C156 1.574 1_565 S
C164 H159 0.949 . S
C164 C170 1.368 1_554 S
C165 C149 1.349 . S
C165 H157 0.950 . S
C165 C163 1.327 . S
C166 C154 1.349 . S
C166 H160 0.950 . S
C166 C167 1.327 . S
C167 H161 0.950 . S
C167 C166 1.327 . S
C167 C171 1.429 . S
C168 C151 1.574 1_545 S
C168 H162 0.949 . S
C168 C172 1.368 1_556 S
C169 C150 1.429 . S
C169 C163 1.429 . S
C169 C170 1.523 . S
C170 C151 1.368 . S
C170 C164 1.368 1_556 S
C170 C169 1.523 . S
C171 C155 1.429 . S
C171 C167 1.429 . S
C171 C172 1.523 . S
C172 C156 1.368 . S
C172 C168 1.368 1_554 S
C172 C171 1.523 . S
H173 C148 0.950 . S
H174 C150 0.950 1_554 S
H175 C151 0.949 . S
H176 C153 0.950 . S
H177 C155 0.950 1_556 S
C178 C179 1.349 . S
C178 C180 1.327 . S
C178 H203 0.950 1_455 S
C179 C178 1.349 . S
C179 C195 1.349 . S
C180 C178 1.327 . S
C180 C199 1.429 . S
C180 H204 0.950 1_455 S
C181 C198 1.574 1_565 S
C181 C200 1.368 . S
C181 H205 0.949 . S
H182 C186 0.949 1_655 S
C183 C184 1.349 . S
C183 C185 1.327 . S
C183 H206 0.950 . S
C184 C183 1.349 . S
C184 C196 1.349 . S
C185 C183 1.327 . S
C185 C201 1.429 . S
C185 H207 0.950 . S
C186 H182 0.949 1_455 S
C186 C194 1.574 1_545 S
C186 C202 1.368 . S
H187 C195 0.950 . S
H188 C193 0.950 . S
H189 C194 0.949 1_655 S
H190 C196 0.950 1_655 S
H191 C197 0.950 1_655 S
H192 C198 0.949 . S
C193 H188 0.950 . S
C193 C195 1.327 . S
C193 C199 1.429 . S
C194 C186 1.574 1_565 S
C194 H189 0.949 1_455 S
C194 C200 1.368 1_556 S
C195 C179 1.349 . S
C195 H187 0.950 . S
C195 C193 1.327 . S
C196 C184 1.349 . S
C196 H190 0.950 1_455 S
C196 C197 1.327 . S
C197 H191 0.950 1_455 S
C197 C196 1.327 . S
C197 C201 1.429 . S
C198 C181 1.574 1_545 S
C198 H192 0.949 . S
C198 C202 1.368 1_554 S
C199 C180 1.429 . S
C199 C193 1.429 . S
C199 C200 1.523 . S
C200 C181 1.368 . S
C200 C194 1.368 1_554 S
C200 C199 1.523 . S
C201 C185 1.429 . S
C201 C197 1.429 . S
C201 C202 1.523 . S
C202 C186 1.368 . S
C202 C198 1.368 1_556 S
C202 C201 1.523 . S
H203 C178 0.950 1_655 S
H204 C180 0.950 1_655 S
H205 C181 0.949 . S
H206 C183 0.950 . S
H207 C185 0.950 . S
C208 C209 1.349 . S
C208 C210 1.327 . S
C208 H233 0.950 . S
C209 C208 1.349 . S
C209 C225 1.349 . S
C210 C208 1.327 . S
C210 C229 1.429 . S
C210 H234 0.950 . S
C211 C228 1.574 . S
C211 C230 1.368 . S
C211 H235 0.949 . S
H212 C216 0.949 . S
C213 C214 1.349 . S
C213 C215 1.327 . S
C213 H236 0.950 . S
C214 C213 1.349 . S
C214 C226 1.349 . S
C215 C213 1.327 . S
C215 C231 1.429 . S
C215 H237 0.950 . S
C216 H212 0.949 . S
C216 C224 1.574 . S
C216 C232 1.368 . S
H217 C225 0.950 . S
H218 C223 0.950 . S
H219 C224 0.949 . S
H220 C226 0.950 . S
H221 C227 0.950 . S
H222 C228 0.949 . S
C223 H218 0.950 . S
C223 C225 1.327 . S
C223 C229 1.429 . S
C224 C216 1.574 . S
C224 H219 0.949 . S
C224 C230 1.368 . S
C225 C209 1.349 . S
C225 H217 0.950 . S
C225 C223 1.327 . S
C226 C214 1.349 . S
C226 H220 0.950 . S
C226 C227 1.327 . S
C227 H221 0.950 . S
C227 C226 1.327 . S
C227 C231 1.429 . S
C228 C211 1.574 . S
C228 H222 0.949 . S
C228 C232 1.368 . S
C229 C210 1.429 . S
C229 C223 1.429 . S
C229 C230 1.523 . S
C230 C211 1.368 . S
C230 C224 1.368 . S
C230 C229 1.523 . S
C231 C215 1.429 . S
C231 C227 1.429 . S
C231 C232 1.523 . S
C232 C216 1.368 . S
C232 C228 1.368 . S
C232 C231 1.523 . S
H233 C208 0.950 . S
H234 C210 0.950 . S
H235 C211 0.949 . S
H236 C213 0.950 . S
H237 C215 0.950 . S
C238 C239 1.349 . S
C238 C240 1.327 . S
C238 H263 0.950 . S
C239 C238 1.349 . S
C239 C255 1.349 . S
C240 C238 1.327 . S
C240 C259 1.429 . S
C240 H264 0.950 . S
C241 C258 1.574 . S
C241 C260 1.368 . S
C241 H265 0.949 . S
H242 C246 0.949 . S
C243 C244 1.349 . S
C243 C245 1.327 . S
C243 H266 0.950 . S
C244 C243 1.349 . S
C244 C256 1.349 . S
C245 C243 1.327 . S
C245 C261 1.429 . S
C245 H267 0.950 . S
C246 H242 0.949 . S
C246 C254 1.574 . S
C246 C262 1.368 . S
H247 C255 0.950 . S
H248 C253 0.950 . S
H249 C254 0.949 . S
H250 C256 0.950 . S
H251 C257 0.950 . S
H252 C258 0.949 . S
C253 H248 0.950 . S
C253 C255 1.327 . S
C253 C259 1.429 . S
C254 C246 1.574 . S
C254 H249 0.949 . S
C254 C260 1.368 . S
C255 C239 1.349 . S
C255 H247 0.950 . S
C255 C253 1.327 . S
C256 C244 1.349 . S
C256 H250 0.950 . S
C256 C257 1.327 . S
C257 H251 0.950 . S
C257 C256 1.327 . S
C257 C261 1.429 . S
C258 C241 1.574 . S
C258 H252 0.949 . S
C258 C262 1.368 . S
C259 C240 1.429 . S
C259 C253 1.429 . S
C259 C260 1.523 . S
C260 C241 1.368 . S
C260 C254 1.368 . S
C260 C259 1.523 . S
C261 C245 1.429 . S
C261 C257 1.429 . S
C261 C262 1.523 . S
C262 C246 1.368 . S
C262 C258 1.368 . S
C262 C261 1.523 . S
H263 C238 0.950 . S
H264 C240 0.950 . S
H265 C241 0.949 . S
H266 C243 0.950 . S
H267 C245 0.950 . S
C268 C269 1.349 . S
C268 C270 1.327 . S
C268 H293 0.950 . S
C269 C268 1.349 . S
C269 C285 1.349 . S
C270 C268 1.327 . S
C270 C289 1.429 . S
C270 H294 0.950 . S
C271 C288 1.574 . S
C271 C290 1.368 . S
C271 H295 0.949 . S
H272 C276 0.949 . S
C273 C274 1.349 . S
C273 C275 1.327 . S
C273 H296 0.950 . S
C274 C273 1.349 . S
C274 C286 1.349 . S
C275 C273 1.327 . S
C275 C291 1.429 . S
C275 H297 0.950 . S
C276 H272 0.949 . S
C276 C284 1.574 . S
C276 C292 1.368 . S
H277 C285 0.950 . S
H278 C283 0.950 . S
H279 C284 0.949 . S
H280 C286 0.950 . S
H281 C287 0.950 . S
H282 C288 0.949 . S
C283 H278 0.950 . S
C283 C285 1.327 . S
C283 C289 1.429 . S
C284 C276 1.574 . S
C284 H279 0.949 . S
C284 C290 1.368 . S
C285 C269 1.349 . S
C285 H277 0.950 . S
C285 C283 1.327 . S
C286 C274 1.349 . S
C286 H280 0.950 . S
C286 C287 1.327 . S
C287 H281 0.950 . S
C287 C286 1.327 . S
C287 C291 1.429 . S
C288 C271 1.574 . S
C288 H282 0.949 . S
C288 C292 1.368 . S
C289 C270 1.429 . S
C289 C283 1.429 . S
C289 C290 1.523 . S
C290 C271 1.368 . S
C290 C284 1.368 . S
C290 C289 1.523 . S
C291 C275 1.429 . S
C291 C287 1.429 . S
C291 C292 1.523 . S
C292 C276 1.368 . S
C292 C288 1.368 . S
C292 C291 1.523 . S
H293 C268 0.950 . S
H294 C270 0.950 . S
H295 C271 0.949 . S
H296 C273 0.950 . S
H297 C275 0.950 . S
C298 C299 1.349 . S
C298 C300 1.327 . S
C298 H323 0.950 . S
C299 C298 1.349 . S
C299 C315 1.349 . S
C300 C298 1.327 . S
C300 C319 1.429 . S
C300 H324 0.950 . S
C301 C318 1.574 . S
C301 C320 1.368 . S
C301 H325 0.949 . S
H302 C306 0.949 . S
C303 C304 1.349 . S
C303 C305 1.327 . S
C303 H326 0.950 . S
C304 C303 1.349 . S
C304 C316 1.349 . S
C305 C303 1.327 . S
C305 C321 1.429 . S
C305 H327 0.950 . S
C306 H302 0.949 . S
C306 C314 1.574 . S
C306 C322 1.368 . S
H307 C315 0.950 . S
H308 C313 0.950 . S
H309 C314 0.949 . S
H310 C316 0.950 . S
H311 C317 0.950 . S
H312 C318 0.949 . S
C313 H308 0.950 . S
C313 C315 1.327 . S
C313 C319 1.429 . S
C314 C306 1.574 . S
C314 H309 0.949 . S
C314 C320 1.368 . S
C315 C299 1.349 . S
C315 H307 0.950 . S
C315 C313 1.327 . S
C316 C304 1.349 . S
C316 H310 0.950 . S
C316 C317 1.327 . S
C317 H311 0.950 . S
C317 C316 1.327 . S
C317 C321 1.429 . S
C318 C301 1.574 . S
C318 H312 0.949 . S
C318 C322 1.368 . S
C319 C300 1.429 . S
C319 C313 1.429 . S
C319 C320 1.523 . S
C320 C301 1.368 . S
C320 C314 1.368 . S
C320 C319 1.523 . S
C321 C305 1.429 . S
C321 C317 1.429 . S
C321 C322 1.523 . S
C322 C306 1.368 . S
C322 C318 1.368 . S
C322 C321 1.523 . S
H323 C298 0.950 . S
H324 C300 0.950 . S
H325 C301 0.949 . S
H326 C303 0.950 . S
H327 C305 0.950 . S
C328 C329 1.349 . S
C328 C330 1.327 . S
C328 H353 0.950 . S
C329 C328 1.349 . S
C329 C345 1.349 . S
C330 C328 1.327 . S
C330 C349 1.429 . S
C330 H354 0.950 . S
C331 C348 1.574 . S
C331 C350 1.368 1_554 S
C331 H355 0.949 . S
H332 C336 0.949 . S
C333 C334 1.349 . S
C333 C335 1.327 . S
C333 H356 0.950 . S
C334 C333 1.349 . S
C334 C346 1.349 . S
C335 C333 1.327 . S
C335 C351 1.429 . S
C335 H357 0.950 . S
C336 H332 0.949 . S
C336 C344 1.574 . S
C336 C352 1.368 1_556 S
H337 C345 0.950 . S
H338 C343 0.950 . S
H339 C344 0.949 . S
H340 C346 0.950 . S
H341 C347 0.950 . S
H342 C348 0.949 . S
C343 H338 0.950 . S
C343 C345 1.327 . S
C343 C349 1.429 . S
C344 C336 1.574 . S
C344 H339 0.949 . S
C344 C350 1.368 . S
C345 C329 1.349 . S
C345 H337 0.950 . S
C345 C343 1.327 . S
C346 C334 1.349 . S
C346 H340 0.950 . S
C346 C347 1.327 . S
C347 H341 0.950 . S
C347 C346 1.327 . S
C347 C351 1.429 . S
C348 C331 1.574 . S
C348 H342 0.949 . S
C348 C352 1.368 . S
C349 C330 1.429 . S
C349 C343 1.429 . S
C349 C350 1.523 . S
C350 C331 1.368 1_556 S
C350 C344 1.368 . S
C350 C349 1.523 . S
C351 C335 1.429 . S
C351 C347 1.429 . S
C351 C352 1.523 . S
C352 C336 1.368 1_554 S
C352 C348 1.368 . S
C352 C351 1.523 . S
H353 C328 0.950 . S
H354 C330 0.950 . S
H355 C331 0.949 . S
H356 C333 0.950 . S
H357 C335 0.950 . S
C358 C359 1.349 . S
C358 C360 1.327 . S
C358 H383 0.950 . S
C359 C358 1.349 . S
C359 C375 1.349 . S
C360 C358 1.327 . S
C360 C379 1.429 . S
C360 H384 0.950 . S
C361 C378 1.574 . S
C361 C380 1.368 . S
C361 H385 0.949 . S
H362 C366 0.949 . S
C363 C364 1.349 . S
C363 C365 1.327 . S
C363 H386 0.950 . S
C364 C363 1.349 . S
C364 C376 1.349 . S
C365 C363 1.327 . S
C365 C381 1.429 . S
C365 H387 0.950 . S
C366 H362 0.949 . S
C366 C374 1.574 . S
C366 C382 1.368 . S
H367 C375 0.950 . S
H368 C373 0.950 . S
H369 C374 0.949 . S
H370 C376 0.950 . S
H371 C377 0.950 . S
H372 C378 0.949 . S
C373 H368 0.950 . S
C373 C375 1.327 . S
C373 C379 1.429 . S
C374 C366 1.574 . S
C374 H369 0.949 . S
C374 C380 1.368 1_554 S
C375 C359 1.349 . S
C375 H367 0.950 . S
C375 C373 1.327 . S
C376 C364 1.349 . S
C376 H370 0.950 . S
C376 C377 1.327 . S
C377 H371 0.950 . S
C377 C376 1.327 . S
C377 C381 1.429 . S
C378 C361 1.574 . S
C378 H372 0.949 . S
C378 C382 1.368 1_556 S
C379 C360 1.429 . S
C379 C373 1.429 . S
C379 C380 1.523 . S
C380 C361 1.368 . S
C380 C374 1.368 1_556 S
C380 C379 1.523 . S
C381 C365 1.429 . S
C381 C377 1.429 . S
C381 C382 1.523 . S
C382 C366 1.368 . S
C382 C378 1.368 1_554 S
C382 C381 1.523 . S
H383 C358 0.950 . S
H384 C360 0.950 . S
H385 C361 0.949 . S
H386 C363 0.950 . S
H387 C365 0.950 . S
C388 C389 1.349 . S
C388 C390 1.327 . S
C388 H413 0.950 . S
C389 C388 1.349 . S
C389 C405 1.349 . S
C390 C388 1.327 . S
C390 C409 1.429 . S
C390 H414 0.950 . S
C391 C408 1.574 . S
C391 C410 1.368 . S
C391 H415 0.949 . S
H392 C396 0.949 . S
C393 C394 1.349 . S
C393 C395 1.327 . S
C393 H416 0.950 . S
C394 C393 1.349 . S
C394 C406 1.349 . S
C395 C393 1.327 . S
C395 C411 1.429 . S
C395 H417 0.950 . S
C396 H392 0.949 . S
C396 C404 1.574 . S
C396 C412 1.368 . S
H397 C405 0.950 . S
H398 C403 0.950 . S
H399 C404 0.949 . S
H400 C406 0.950 . S
H401 C407 0.950 . S
H402 C408 0.949 . S
C403 H398 0.950 . S
C403 C405 1.327 . S
C403 C409 1.429 . S
C404 C396 1.574 . S
C404 H399 0.949 . S
C404 C410 1.368 1_556 S
C405 C389 1.349 . S
C405 H397 0.950 . S
C405 C403 1.327 . S
C406 C394 1.349 . S
C406 H400 0.950 . S
C406 C407 1.327 . S
C407 H401 0.950 . S
C407 C406 1.327 . S
C407 C411 1.429 . S
C408 C391 1.574 . S
C408 H402 0.949 . S
C408 C412 1.368 1_554 S
C409 C390 1.429 . S
C409 C403 1.429 . S
C409 C410 1.523 . S
C410 C391 1.368 . S
C410 C404 1.368 1_554 S
C410 C409 1.523 . S
C411 C395 1.429 . S
C411 C407 1.429 . S
C411 C412 1.523 . S
C412 C396 1.368 . S
C412 C408 1.368 1_556 S
C412 C411 1.523 . S
H413 C388 0.950 . S
H414 C390 0.950 . S
H415 C391 0.949 . S
H416 C393 0.950 . S
H417 C395 0.950 . S
C418 C419 1.349 . S
C418 C420 1.327 . S
C418 H443 0.950 . S
C419 C418 1.349 . S
C419 C435 1.349 . S
C420 C418 1.327 . S
C420 C439 1.429 . S
C420 H444 0.950 . S
C421 C438 1.574 . S
C421 C440 1.368 . S
C421 H445 0.949 . S
H422 C426 0.949 . S
C423 C424 1.349 . S
C423 C425 1.327 . S
C423 H446 0.950 . S
C424 C423 1.349 . S
C424 C436 1.349 . S
C425 C423 1.327 . S
C425 C441 1.429 . S
C425 H447 0.950 . S
C426 H422 0.949 . S
C426 C434 1.574 . S
C426 C442 1.368 . S
H427 C435 0.950 . S
H428 C433 0.950 . S
H429 C434 0.949 . S
H430 C436 0.950 . S
H431 C437 0.950 . S
H432 C438 0.949 . S
C433 H428 0.950 . S
C433 C435 1.327 . S
C433 C439 1.429 . S
C434 C426 1.574 . S
C434 H429 0.949 . S
C434 C440 1.368 1_556 S
C435 C419 1.349 . S
C435 H427 0.950 . S
C435 C433 1.327 . S
C436 C424 1.349 . S
C436 H430 0.950 . S
C436 C437 1.327 . S
C437 H431 0.950 . S
C437 C436 1.327 . S
C437 C441 1.429 . S
C438 C421 1.574 . S
C438 H432 0.949 . S
C438 C442 1.368 1_554 S
C439 C420 1.429 . S
C439 C433 1.429 . S
C439 C440 1.523 . S
C440 C421 1.368 . S
C440 C434 1.368 1_554 S
C440 C439 1.523 . S
C441 C425 1.429 . S
C441 C437 1.429 . S
C441 C442 1.523 . S
C442 C426 1.368 . S
C442 C438 1.368 1_556 S
C442 C441 1.523 . S
H443 C418 0.950 . S
H444 C420 0.950 . S
H445 C421 0.949 . S
H446 C423 0.950 . S
H447 C425 0.950 . S
C89 C62 1.608 . S
C94 C15 1.591 . S
C119 C40 1.608 . S
C124 C81 1.591 . S
C149 C74 1.608 . S
C154 C43 1.591 . S
C179 C8 1.608 . S
C184 C65 1.591 . S
C209 C73 2.299 . S
C214 C7 2.299 . S
C239 C54 2.224 . S
C244 C32 2.224 . S
C269 C59 2.299 . S
C274 C37 2.299 . S
C299 C18 2.224 . S
C304 C84 2.224 . S
C329 C87 0.257 . S
C334 C21 0.257 . S
C359 C52 0.292 . S
C364 C30 0.292 . S
C389 C29 0.257 . S
C394 C51 0.257 . S
C419 C10 0.292 . S
C424 C76 0.292 . S
