# Generated by pormake.
# Topology uof, (4)-cn, num edge types: 1
# Building blocks:
#     Node 0, Type 0, BuildingBlock: AZAVOO_clean_sbu_0, # of connection points: 4
#     Node 1, Type 0, BuildingBlock: AZAVOO_clean_sbu_0, # of connection points: 4
#     Node 2, Type 0, BuildingBlock: AZAVOO_clean_sbu_0, # of connection points: 4
#     Node 3, Type 0, BuildingBlock: AZAVOO_clean_sbu_0, # of connection points: 4
#     Node 4, Type 0, BuildingBlock: AZAVOO_clean_sbu_0, # of connection points: 4
#     Node 5, Type 0, BuildingBlock: AZAVOO_clean_sbu_0, # of connection points: 4
#     Node 6, Type 0, BuildingBlock: AZAVOO_clean_sbu_0, # of connection points: 4
#     Node 7, Type 0, BuildingBlock: AZAVOO_clean_sbu_0, # of connection points: 4
#     Node 8, Type 0, BuildingBlock: AZAVOO_clean_sbu_0, # of connection points: 4
#     Node 9, Type 0, BuildingBlock: AZAVOO_clean_sbu_0, # of connection points: 4
#     Node 10, Type 0, BuildingBlock: AZAVOO_clean_sbu_0, # of connection points: 4
#     Node 11, Type 0, BuildingBlock: AZAVOO_clean_sbu_0, # of connection points: 4
#     Edge 12, Type (0, 0), BuildingBlock: UVAHIK_clean_linker_0, # of connection points: 2
#     Edge 13, Type (0, 0), BuildingBlock: UVAHIK_clean_linker_0, # of connection points: 2
#     Edge 14, Type (0, 0), BuildingBlock: UVAHIK_clean_linker_0, # of connection points: 2
#     Edge 15, Type (0, 0), BuildingBlock: UVAHIK_clean_linker_0, # of connection points: 2
#     Edge 16, Type (0, 0), BuildingBlock: UVAHIK_clean_linker_0, # of connection points: 2
#     Edge 17, Type (0, 0), BuildingBlock: UVAHIK_clean_linker_0, # of connection points: 2
#     Edge 18, Type (0, 0), BuildingBlock: UVAHIK_clean_linker_0, # of connection points: 2
#     Edge 19, Type (0, 0), BuildingBlock: UVAHIK_clean_linker_0, # of connection points: 2
#     Edge 20, Type (0, 0), BuildingBlock: UVAHIK_clean_linker_0, # of connection points: 2
#     Edge 21, Type (0, 0), BuildingBlock: UVAHIK_clean_linker_0, # of connection points: 2
#     Edge 22, Type (0, 0), BuildingBlock: UVAHIK_clean_linker_0, # of connection points: 2
#     Edge 23, Type (0, 0), BuildingBlock: UVAHIK_clean_linker_0, # of connection points: 2
#     Edge 24, Type (0, 0), BuildingBlock: UVAHIK_clean_linker_0, # of connection points: 2
#     Edge 25, Type (0, 0), BuildingBlock: UVAHIK_clean_linker_0, # of connection points: 2
#     Edge 26, Type (0, 0), BuildingBlock: UVAHIK_clean_linker_0, # of connection points: 2
#     Edge 27, Type (0, 0), BuildingBlock: UVAHIK_clean_linker_0, # of connection points: 2
#     Edge 28, Type (0, 0), BuildingBlock: UVAHIK_clean_linker_0, # of connection points: 2
#     Edge 29, Type (0, 0), BuildingBlock: UVAHIK_clean_linker_0, # of connection points: 2
#     Edge 30, Type (0, 0), BuildingBlock: UVAHIK_clean_linker_0, # of connection points: 2
#     Edge 31, Type (0, 0), BuildingBlock: UVAHIK_clean_linker_0, # of connection points: 2
#     Edge 32, Type (0, 0), BuildingBlock: UVAHIK_clean_linker_0, # of connection points: 2
#     Edge 33, Type (0, 0), BuildingBlock: UVAHIK_clean_linker_0, # of connection points: 2
#     Edge 34, Type (0, 0), BuildingBlock: UVAHIK_clean_linker_0, # of connection points: 2
#     Edge 35, Type (0, 0), BuildingBlock: UVAHIK_clean_linker_0, # of connection points: 2
# Relax obj value: 0.251
# Max RMSD: 0.197
# Mean RMSD: 0.197
data_MOF--net-uof--node1-AZAVOO_clean_sbu_0--edge1-UVAHIK_clean_linker_0
_symmetry_space_group_name_H-M    P1
_symmetry_Int_Tables_number       1
_symmetry_cell_setting            triclinic
loop_
_symmetry_equiv_pos_as_xyz
'x, y, z'
_cell_length_a     40.952178
_cell_length_b     40.950925
_cell_length_c     79.886633
_cell_angle_alpha  89.963246
_cell_angle_beta   90.022387
_cell_angle_gamma 119.98582
loop_
_atom_site_label
_atom_site_type_symbol
_atom_site_fract_x
_atom_site_fract_y
_atom_site_fract_z
_atom_type_partial_charge
Mg0 Mg 0.27001 0.34161 0.21417 0.0
O1 O 0.28212 0.29579 0.20447 0.0
O2 O 0.341 0.31211 0.21203 0.0
Mg3 Mg 0.36611 0.36691 0.2268 0.0
C4 C 0.3099 0.28978 0.20478 0.0
C5 C 0.19436 0.31397 0.19611 0.0
O6 O 0.21685 0.34519 0.18801 0.0
O7 O 0.26236 0.31688 0.2406 0.0
O8 O 0.32204 0.33434 0.24696 0.0
O9 O 0.29482 0.37522 0.19061 0.0
O10 O 0.3275 0.38006 0.21341 0.0
C11 C 0.28705 0.31784 0.25068 0.0
C12 C 0.32712 0.3887 0.19795 0.0
O13 O 0.20755 0.30408 0.20826 0.0
Mg14 Mg 0.89169 0.25464 0.54182 0.0
O15 O 0.95249 0.28026 0.53267 0.0
O16 O 0.98318 0.34277 0.53604 0.0
Mg17 Mg 0.94211 0.35636 0.5495 0.0
C18 C 0.98209 0.31255 0.53119 0.0
C19 C 0.8738 0.17141 0.54993 0.0
O20 O 0.86674 0.17912 0.56501 0.0
O21 O 0.91337 0.25971 0.5686 0.0
O22 O 0.94447 0.32231 0.57184 0.0
O23 O 0.87636 0.26747 0.51677 0.0
O24 O 0.89413 0.30596 0.5386 0.0
C25 C 0.93384 0.28914 0.57732 0.0
C26 C 0.88567 0.30017 0.52297 0.0
O27 O 0.88447 0.19633 0.53854 0.0
Mg28 Mg 0.65743 0.91613 0.881 0.0
O29 O 0.70008 0.97436 0.87022 0.0
O30 O 0.67946 0.01418 0.87658 0.0
Mg31 Mg 0.62503 0.98246 0.89142 0.0
C32 C 0.70344 0.00713 0.86976 0.0
C33 C 0.68471 0.8595 0.87626 0.0
O34 O 0.64888 0.83759 0.87992 0.0
O35 O 0.68128 0.93694 0.90717 0.0
O36 O 0.66009 0.9768 0.91242 0.0
O37 O 0.62344 0.90203 0.85739 0.0
O38 O 0.61581 0.93047 0.87938 0.0
C39 C 0.67857 0.96056 0.91666 0.0
C40 C 0.60753 0.91928 0.86412 0.0
O41 O 0.69824 0.89497 0.87617 0.0
Mg42 Mg 0.74771 0.65458 0.22851 0.0
O43 O 0.72611 0.69115 0.21657 0.0
O44 O 0.66461 0.66636 0.22183 0.0
Mg45 Mg 0.64849 0.61709 0.23963 0.0
C46 C 0.69514 0.69124 0.21495 0.0
C47 C 0.81357 0.70852 0.20623 0.0
O48 O 0.78515 0.69376 0.19569 0.0
O49 O 0.75135 0.68323 0.25359 0.0
O50 O 0.68989 0.65965 0.25854 0.0
O51 O 0.72733 0.61722 0.20602 0.0
O52 O 0.69299 0.609 0.22865 0.0
C53 C 0.72445 0.68105 0.26252 0.0
C54 C 0.69486 0.60003 0.21338 0.0
O55 O 0.80757 0.69874 0.22153 0.0
Mg56 Mg 0.08751 0.73628 0.54444 0.0
O57 O 0.0276 0.71153 0.53407 0.0
O58 O 0.99162 0.65173 0.54227 0.0
Mg59 Mg 0.02756 0.64084 0.56078 0.0
C60 C -0.00363 0.68043 0.53398 0.0
C61 C 0.0952 0.79588 0.5189 0.0
O62 O 0.08145 0.76527 0.50967 0.0
O63 O 0.06691 0.74663 0.56942 0.0
O64 O 0.02889 0.68698 0.57755 0.0
O65 O 0.10055 0.70953 0.52306 0.0
O66 O 0.07886 0.68218 0.54761 0.0
C67 C 0.04322 0.72247 0.57968 0.0
C68 C 0.08706 0.6796 0.5323 0.0
O69 O 0.10101 0.79367 0.53439 0.0
Mg70 Mg 0.33571 0.08466 0.88106 0.0
O71 O 0.29558 0.02529 0.87094 0.0
O72 O 0.3134 0.98505 0.88024 0.0
Mg73 Mg 0.36052 0.01751 0.89898 0.0
C74 C 0.29189 0.99243 0.87144 0.0
C75 C 0.28923 0.09831 0.85468 0.0
O76 O 0.30154 0.07923 0.84613 0.0
O77 O 0.3031 0.06779 0.90572 0.0
O78 O 0.31819 0.02526 0.91478 0.0
O79 O 0.37544 0.09319 0.86023 0.0
O80 O 0.37661 0.06952 0.88496 0.0
C81 C 0.30011 0.04304 0.9163 0.0
C82 C 0.38851 0.07679 0.86974 0.0
O83 O 0.29784 0.10502 0.87008 0.0
Mg84 Mg 0.64632 0.74762 0.46022 0.0
O85 O 0.68287 0.72079 0.46408 0.0
O86 O 0.65694 0.66475 0.45135 0.0
Mg87 Mg 0.60415 0.65747 0.43791 0.0
C88 C 0.68292 0.69059 0.46025 0.0
C89 C 0.70365 0.80243 0.48609 0.0
O90 O 0.68805 0.77078 0.49464 0.0
O91 O 0.67102 0.76433 0.43391 0.0
O92 O 0.64184 0.70808 0.42114 0.0
O93 O 0.6117 0.7154 0.48238 0.0
O94 O 0.59958 0.69474 0.45629 0.0
C95 C 0.66416 0.74372 0.42094 0.0
C96 C 0.59241 0.68817 0.472 0.0
O97 O 0.69296 0.80229 0.47114 0.0
Mg98 Mg 0.8931 0.63759 0.77614 0.0
O99 O 0.95264 0.6787 0.78574 0.0
O100 O 0.99297 0.66094 0.77653 0.0
Mg101 Mg 0.96017 0.61275 0.75825 0.0
C102 C 0.98561 0.68272 0.78514 0.0
C103 C 0.87944 0.68612 0.8018 0.0
O104 O 0.8991 0.67529 0.81087 0.0
O105 O 0.90898 0.66897 0.75115 0.0
O106 O 0.95175 0.65422 0.74202 0.0
O107 O 0.88628 0.59925 0.79742 0.0
O108 O 0.90854 0.59693 0.7725 0.0
C109 C 0.93345 0.67176 0.74049 0.0
C110 C 0.90234 0.58592 0.78785 0.0
O111 O 0.87248 0.67571 0.7866 0.0
Mg112 Mg 0.23987 0.88204 0.10789 0.0
O113 O 0.26257 0.94085 0.11922 0.0
O114 O 0.3216 0.97947 0.11065 0.0
Mg115 Mg 0.3334 0.94675 0.09084 0.0
C116 C 0.29286 0.9728 0.11941 0.0
C117 C 0.18081 0.87064 0.13444 0.0
O118 O 0.21183 0.88469 0.1434 0.0
O119 O 0.22659 0.90351 0.08395 0.0
O120 O 0.28514 0.94522 0.07556 0.0
O121 O 0.26911 0.86923 0.12824 0.0
O122 O 0.29478 0.89378 0.10371 0.0
C123 C 0.24938 0.92926 0.07402 0.0
C124 C 0.29868 0.88491 0.11875 0.0
O125 O 0.18252 0.86551 0.11884 0.0
Mg126 Mg 0.34017 0.25162 0.45564 0.0
O127 O 0.30586 0.27751 0.46564 0.0
O128 O 0.33573 0.33921 0.46002 0.0
Mg129 Mg 0.38793 0.35182 0.44473 0.0
C130 C 0.30817 0.30974 0.46643 0.0
C131 C 0.27782 0.16635 0.45086 0.0
O132 O 0.29162 0.17248 0.43561 0.0
O133 O 0.318 0.25196 0.42941 0.0
O134 O 0.34831 0.3138 0.42399 0.0
O135 O 0.3735 0.26872 0.4794 0.0
O136 O 0.38883 0.30378 0.45645 0.0
C137 C 0.32517 0.27973 0.41981 0.0
C138 C 0.39507 0.30045 0.47196 0.0
O139 O 0.29123 0.1932 0.46138 0.0
Mg140 Mg 0.1069 0.36385 0.77793 0.0
O141 O 0.04834 0.3251 0.78879 0.0
O142 O 0.01254 0.35175 0.78599 0.0
Mg143 Mg 0.04788 0.40653 0.77149 0.0
C144 C 0.01732 0.3248 0.79096 0.0
C145 C 0.15351 0.32335 0.77952 0.0
O146 O 0.18004 0.35762 0.77554 0.0
O147 O 0.08262 0.34385 0.75174 0.0
O148 O 0.04658 0.37039 0.74927 0.0
O149 O 0.12374 0.39428 0.80249 0.0
O150 O 0.09967 0.40996 0.78119 0.0
C151 C 0.05926 0.34975 0.74354 0.0
C152 C 0.11064 0.41482 0.79652 0.0
O153 O 0.11979 0.31648 0.78092 0.0
Mg154 Mg 0.73814 0.09238 0.12162 0.0
O155 O 0.72031 0.03275 0.13109 0.0
O156 O 0.65985 0.99399 0.12448 0.0
Mg157 Mg 0.64079 0.02766 0.10868 0.0
C158 C 0.69057 0.00028 0.13139 0.0
C159 C 0.80822 0.10442 0.14213 0.0
O160 O 0.78143 0.08339 0.1528 0.0
O161 O 0.74469 0.07437 0.09535 0.0
O162 O 0.68436 0.03336 0.0891 0.0
O163 O 0.7145 0.10258 0.14503 0.0
O164 O 0.68236 0.07908 0.12154 0.0
C165 C 0.71947 0.0503 0.08557 0.0
C166 C 0.68276 0.08758 0.13706 0.0
O167 O 0.79933 0.11218 0.12804 0.0
C168 C 0.85848 0.1122 0.16233 0.0
C169 C 0.84829 0.12175 0.14706 0.0
C170 C 0.89609 0.13085 0.16758 0.0
C171 C 0.98312 0.22105 0.16257 0.0
H172 H 0.03245 0.16978 0.18162 0.0
C173 C 0.14187 0.29978 0.17624 0.0
C174 C 0.15457 0.29063 0.19088 0.0
C175 C 0.10446 0.278 0.17111 0.0
C176 C 0.01891 0.18455 0.17654 0.0
H177 H 0.86976 0.15745 0.12506 0.0
H178 H 0.93525 0.19 0.13427 0.0
H179 H 0.96717 0.13306 0.17202 0.0
H180 H 0.13794 0.25138 0.21165 0.0
H181 H 0.07221 0.21368 0.20287 0.0
H182 H 0.03429 0.2725 0.16727 0.0
C183 C 0.9141 0.16833 0.14223 0.0
C184 C 0.98161 0.1635 0.17099 0.0
C185 C 0.87662 0.14951 0.13692 0.0
C186 C 0.12901 0.25911 0.20029 0.0
C187 C 0.09141 0.23739 0.1952 0.0
C188 C 0.02022 0.24206 0.16821 0.0
C189 C 0.92413 0.15959 0.15772 0.0
C190 C 0.96349 0.18156 0.16382 0.0
C191 C 0.07869 0.24667 0.18056 0.0
C192 C 0.03872 0.22409 0.17513 0.0
H193 H 0.83733 0.09083 0.17039 0.0
H194 H 0.90302 0.12365 0.1796 0.0
H195 H 0.96961 0.23577 0.1574 0.0
H196 H 0.16088 0.32369 0.16862 0.0
H197 H 0.09586 0.28556 0.15961 0.0
C198 C 0.87046 0.1243 0.52915 0.0
C199 C 0.8665 0.13318 0.54574 0.0
C200 C 0.86038 0.08751 0.52473 0.0
C201 C 0.79767 0.99004 0.53837 0.0
H202 H 0.84615 0.96767 0.502 0.0
C203 C 0.73601 0.84007 0.51165 0.0
C204 C 0.7308 0.83829 0.49421 0.0
C205 C 0.75878 0.87466 0.51953 0.0
C206 C 0.83243 0.97352 0.51221 0.0
H207 H 0.8507 0.11077 0.57089 0.0
H208 H 0.83361 0.04645 0.56321 0.0
H209 H 0.87584 0.03138 0.51351 0.0
H210 H 0.7469 0.87101 0.47126 0.0
H211 H 0.78676 0.93132 0.48501 0.0
H212 H 0.75394 0.93234 0.53684 0.0
C213 C 0.84383 0.06788 0.55356 0.0
C214 C 0.84933 0.00998 0.51878 0.0
C215 C 0.85376 0.10475 0.55797 0.0
C216 C 0.7502 0.8715 0.48473 0.0
C217 C 0.77325 0.90599 0.49259 0.0
C218 C 0.78097 0.95354 0.5319 0.0
C219 C 0.84632 0.05869 0.53682 0.0
C220 C 0.83158 0.01893 0.5316 0.0
C221 C 0.77712 0.90802 0.51009 0.0
C222 C 0.79767 0.94519 0.51846 0.0
H223 H 0.88025 0.14552 0.5194 0.0
H224 H 0.86215 0.08144 0.51168 0.0
H225 H 0.78293 0.99598 0.54808 0.0
H226 H 0.72154 0.81495 0.51931 0.0
H227 H 0.76154 0.87543 0.53303 0.0
C228 C 0.69194 0.80367 0.86991 0.0
C229 C 0.70782 0.84299 0.87076 0.0
C230 C 0.71253 0.78792 0.86332 0.0
C231 C 0.80856 0.80817 0.85253 0.0
H232 H 0.75544 0.72574 0.82123 0.0
C233 C 0.84011 0.71715 0.80019 0.0
C234 C 0.86356 0.70799 0.8095 0.0
C235 C 0.8231 0.73559 0.80779 0.0
C236 C 0.77077 0.74894 0.82983 0.0
H237 H 0.7583 0.89664 0.86592 0.0
H238 H 0.79417 0.86907 0.85432 0.0
H239 H 0.72201 0.75365 0.83482 0.0
H240 H 0.88849 0.71206 0.83394 0.0
H241 H 0.85857 0.74403 0.84719 0.0
H242 H 0.8575 0.80369 0.84731 0.0
C243 C 0.76585 0.85045 0.85884 0.0
C244 C 0.75149 0.7646 0.83779 0.0
C245 C 0.74523 0.86623 0.86542 0.0
C246 C 0.87051 0.71864 0.82642 0.0
C247 C 0.85354 0.73715 0.83401 0.0
C248 C 0.82786 0.79238 0.84459 0.0
C249 C 0.74947 0.81113 0.85744 0.0
C250 C 0.77013 0.79435 0.84924 0.0
C251 C 0.82922 0.74533 0.82483 0.0
C252 C 0.80915 0.76263 0.83314 0.0
H253 H 0.66328 0.78495 0.87402 0.0
H254 H 0.69937 0.75751 0.86268 0.0
H255 H 0.82363 0.83094 0.86136 0.0
H256 H 0.83436 0.70955 0.7871 0.0
H257 H 0.80496 0.74205 0.80032 0.0
C258 C 0.88309 0.74881 0.21108 0.0
C259 C 0.85227 0.73348 0.20003 0.0
C260 C 0.91987 0.7697 0.20495 0.0
C261 C 0.97558 0.81863 0.167 0.0
H262 H 0.04789 0.79392 0.1858 0.0
C263 C 0.11147 0.84713 0.13289 0.0
C264 C 0.14446 0.86036 0.14249 0.0
C265 C 0.07697 0.83639 0.14062 0.0
C266 C 0.02821 0.80156 0.18057 0.0
H267 H 0.83577 0.7292 0.17395 0.0
H268 H 0.89973 0.76487 0.16326 0.0
H269 H 0.98552 0.7674 0.19825 0.0
H270 H 0.16726 0.87347 0.16769 0.0
H271 H 0.10698 0.85457 0.18116 0.0
H272 H 0.01812 0.85189 0.14898 0.0
C273 C 0.89562 0.7613 0.17667 0.0
C274 C 0.99248 0.78645 0.18774 0.0
C275 C 0.8589 0.74058 0.1828 0.0
C276 C 0.14234 0.86321 0.15994 0.0
C277 C 0.10781 0.85229 0.16768 0.0
C278 C 0.01129 0.83359 0.15978 0.0
C279 C 0.92657 0.77558 0.18764 0.0
C280 C 0.96557 0.79441 0.18091 0.0
C281 C 0.07475 0.8385 0.15811 0.0
C282 C 0.03778 0.82482 0.16638 0.0
H283 H 0.87889 0.74407 0.22444 0.0
H284 H 0.9431 0.78084 0.21375 0.0
H285 H 0.9557 0.8258 0.1616 0.0
H286 H 0.1122 0.84469 0.11941 0.0
H287 H 0.05186 0.82549 0.13295 0.0
C288 C 0.23462 0.09773 0.44492 0.0
C289 C 0.24979 0.12783 0.45634 0.0
C290 C 0.21099 0.06083 0.45047 0.0
C291 C 0.15525 0.00421 0.48722 0.0
H292 H 0.17709 0.92946 0.46898 0.0
C293 C 0.11908 0.86529 0.52091 0.0
C294 C 0.10566 0.83258 0.51111 0.0
C295 C 0.13101 0.90026 0.51336 0.0
C296 C 0.17022 0.94984 0.47403 0.0
H297 H 0.25083 0.143 0.48244 0.0
H298 H 0.21054 0.07883 0.49214 0.0
H299 H 0.20758 0.99256 0.45708 0.0
H300 H 0.09314 0.81073 0.48574 0.0
H301 H 0.1142 0.8718 0.4726 0.0
H302 H 0.11893 0.96157 0.50462 0.0
C303 C 0.21627 0.08359 0.47886 0.0
C304 C 0.18761 0.98602 0.46717 0.0
C305 C 0.23966 0.12045 0.4733 0.0
C306 C 0.10351 0.83541 0.49365 0.0
C307 C 0.11568 0.87039 0.4861 0.0
C308 C 0.13807 0.96805 0.49417 0.0
C309 C 0.20221 0.05324 0.46757 0.0
C310 C 0.18077 0.01383 0.47383 0.0
C311 C 0.12998 0.90322 0.49586 0.0
C312 C 0.14577 0.94067 0.48777 0.0
H313 H 0.24161 0.10253 0.43173 0.0
H314 H 0.20009 0.03817 0.44139 0.0
H315 H 0.14885 0.02475 0.49247 0.0
H316 H 0.12097 0.86402 0.5344 0.0
H317 H 0.14223 0.92516 0.52118 0.0
C318 C 0.25763 0.13721 0.85483 0.0
C319 C 0.26824 0.11416 0.84613 0.0
C320 C 0.24047 0.15456 0.8464 0.0
C321 C 0.23386 0.18732 0.80447 0.0
H322 H 0.15552 0.2009 0.82483 0.0
C323 C 0.20092 0.30257 0.78382 0.0
C324 C 0.16323 0.29423 0.78406 0.0
C325 C 0.21055 0.27636 0.78969 0.0
C326 C 0.17703 0.19694 0.81886 0.0
H327 H 0.26776 0.09 0.82189 0.0
H328 H 0.23757 0.12009 0.80723 0.0
H329 H 0.17651 0.16157 0.83872 0.0
H330 H 0.10581 0.25115 0.78994 0.0
H331 H 0.12267 0.20534 0.80007 0.0
H332 H 0.2345 0.22283 0.78465 0.0
C333 C 0.24306 0.12519 0.82051 0.0
C334 C 0.18934 0.17476 0.82691 0.0
C335 C 0.26019 0.10783 0.82894 0.0
C336 C 0.13517 0.25856 0.78969 0.0
C337 C 0.14482 0.23237 0.79558 0.0
C338 C 0.22159 0.20955 0.79643 0.0
C339 C 0.23354 0.14921 0.8291 0.0
C340 C 0.21826 0.17016 0.81993 0.0
C341 C 0.18268 0.24126 0.79592 0.0
C342 C 0.19344 0.21504 0.80366 0.0
H343 H 0.26342 0.14264 0.86808 0.0
H344 H 0.23383 0.17322 0.85334 0.0
H345 H 0.25643 0.18459 0.79884 0.0
H346 H 0.22319 0.32977 0.77955 0.0
H347 H 0.24002 0.2842 0.78994 0.0
C348 C 0.65904 0.57833 0.18628 0.0
C349 C 0.65983 0.57666 0.20388 0.0
C350 C 0.62454 0.56069 0.17771 0.0
C351 C 0.52992 0.53967 0.18247 0.0
H352 H 0.48923 0.44186 0.16129 0.0
C353 C 0.37119 0.44215 0.17956 0.0
C354 C 0.36258 0.40941 0.18858 0.0
C355 C 0.40756 0.46487 0.17309 0.0
C356 C 0.50038 0.4696 0.16678 0.0
H357 H 0.62556 0.55298 0.22612 0.0
H358 H 0.56574 0.52301 0.21121 0.0
H359 H 0.55714 0.47972 0.1666 0.0
H360 H 0.38328 0.37246 0.19635 0.0
H361 H 0.4461 0.41146 0.18523 0.0
H362 H 0.47322 0.52844 0.18417 0.0
C363 C 0.59166 0.5383 0.20412 0.0
C364 C 0.53916 0.49123 0.16973 0.0
C365 C 0.62586 0.55545 0.21262 0.0
C366 C 0.38948 0.39795 0.18978 0.0
C367 C 0.42537 0.42009 0.18311 0.0
C368 C 0.49128 0.51822 0.17946 0.0
C369 C 0.59069 0.54155 0.18669 0.0
C370 C 0.55371 0.52535 0.17845 0.0
C371 C 0.43534 0.45456 0.17529 0.0
C372 C 0.47586 0.48191 0.17258 0.0
H373 H 0.68483 0.59451 0.17923 0.0
H374 H 0.62419 0.56313 0.16421 0.0
H375 H 0.54077 0.56597 0.18926 0.0
H376 H 0.35064 0.45133 0.17843 0.0
H377 H 0.41449 0.4913 0.16711 0.0
C378 C 0.06135 0.63447 0.50821 0.0
C379 C 0.07335 0.64196 0.52497 0.0
C380 C 0.04006 0.59716 0.50259 0.0
C381 C 0.9722 0.50742 0.52033 0.0
H382 H 0.98405 0.45852 0.48114 0.0
C383 C 0.87549 0.35214 0.51418 0.0
C384 C 0.8953 0.33273 0.51228 0.0
C385 C 0.89187 0.38976 0.50923 0.0
C386 C 0.98021 0.47194 0.49204 0.0
H387 H 0.07599 0.61694 0.54847 0.0
H388 H 0.03937 0.5522 0.53866 0.0
H389 H 0.0282 0.52589 0.48603 0.0
H390 H 0.94594 0.3356 0.50258 0.0
H391 H 0.97551 0.40181 0.49461 0.0
H392 H 0.92591 0.45413 0.52703 0.0
C393 C 0.0456 0.57491 0.52997 0.0
C394 C 0.00537 0.5104 0.49479 0.0
C395 C 0.06666 0.61192 0.53556 0.0
C396 C 0.93004 0.3501 0.50393 0.0
C397 C 0.94692 0.38807 0.49935 0.0
C398 C 0.94719 0.46937 0.5176 0.0
C399 C 0.03067 0.56715 0.51369 0.0
C400 C 0.00221 0.52801 0.50928 0.0
C401 C 0.92897 0.40893 0.50296 0.0
C402 C 0.95136 0.45079 0.50367 0.0
H403 H 0.06606 0.6572 0.49981 0.0
H404 H 0.0289 0.59179 0.48996 0.0
H405 H 0.96876 0.52055 0.53146 0.0
H406 H 0.84872 0.33917 0.52072 0.0
H407 H 0.87684 0.40475 0.51174 0.0
C408 C 0.42672 0.04558 0.87372 0.0
C409 C 0.41089 0.06078 0.86281 0.0
C410 C 0.44353 0.02584 0.86747 0.0
C411 C 0.49378 0.01571 0.83326 0.0
H412 H 0.46491 0.92053 0.85523 0.0
C413 C 0.5961 0.96858 0.8525 0.0
C414 C 0.58446 0.93028 0.85422 0.0
C415 C 0.57163 0.97974 0.84604 0.0
C416 C 0.47275 0.94644 0.84854 0.0
H417 H 0.40226 0.06917 0.83671 0.0
H418 H 0.43314 0.03535 0.82572 0.0
H419 H 0.42687 0.95032 0.85916 0.0
H420 H 0.53955 0.87335 0.84948 0.0
H421 H 0.49585 0.8928 0.83838 0.0
H422 H 0.54117 0.01304 0.82355 0.0
C423 C 0.43153 0.03818 0.83913 0.0
C424 C 0.45116 0.96367 0.85096 0.0
C425 C 0.41413 0.05764 0.84542 0.0
C426 C 0.54895 0.9031 0.84824 0.0
C427 C 0.52407 0.91424 0.84194 0.0
C428 C 0.51561 -0.00145 0.83092 0.0
C429 C 0.44543 0.0213 0.85016 0.0
C430 C 0.46258 -0.0007 0.84404 0.0
C431 C 0.53475 0.95269 0.84139 0.0
C432 C 0.50635 0.96471 0.83926 0.0
H433 H 0.4256 0.04835 0.88715 0.0
H434 H 0.45505 0.01398 0.87621 0.0
H435 H 0.503 0.04315 0.82776 0.0
H436 H 0.62355 0.98995 0.85685 0.0
H437 H 0.58069 0.00953 0.84599 0.0
C438 C 0.57392 0.63711 0.49347 0.0
C439 C 0.5683 0.64904 0.47776 0.0
C440 C 0.55624 0.59858 0.49729 0.0
C441 C 0.52346 0.51068 0.47477 0.0
H442 H 0.47005 0.45864 0.51508 0.0
C443 C 0.45933 0.35321 0.47717 0.0
C444 C 0.421 0.33434 0.48128 0.0
C445 C 0.48244 0.39076 0.48185 0.0
C446 C 0.48514 0.47289 0.50381 0.0
H447 H 0.53723 0.63064 0.45444 0.0
H448 H 0.50629 0.56382 0.46114 0.0
H449 H 0.49724 0.52728 0.51287 0.0
H450 H 0.37676 0.33832 0.49423 0.0
H451 H 0.4167 0.40451 0.50191 0.0
H452 H 0.51046 0.45707 0.46524 0.0
C453 C 0.52495 0.58396 0.47033 0.0
C454 C 0.50075 0.51208 0.50259 0.0
C455 C 0.54256 0.6222 0.46652 0.0
C456 C 0.40653 0.35238 0.49121 0.0
C457 C 0.42947 0.39027 0.4956 0.0
C458 C 0.50811 0.47188 0.47599 0.0
C459 C 0.53279 0.5717 0.48544 0.0
C460 C 0.51912 0.53105 0.48784 0.0
C461 C 0.46719 0.4104 0.49017 0.0
C462 C 0.48812 0.45229 0.49036 0.0
H463 H 0.59369 0.65729 0.50235 0.0
H464 H 0.56261 0.58977 0.50904 0.0
H465 H 0.53808 0.52471 0.46337 0.0
H466 H 0.47083 0.3397 0.4694 0.0
H467 H 0.5116 0.4052 0.47783 0.0
C468 C 0.93103 0.54562 0.78376 0.0
C469 C 0.91996 0.565 0.79474 0.0
C470 C 0.95404 0.53183 0.78931 0.0
C471 C 0.99063 0.50455 0.82488 0.0
H472 H 0.07408 0.5325 0.79434 0.0
C473 C 0.06529 0.4197 0.81514 0.0
C474 C 0.10069 0.43729 0.80736 0.0
C475 C 0.0487 0.4409 0.81993 0.0
C476 C 0.05169 0.52513 0.80334 0.0
H477 H 0.92199 0.58283 0.82047 0.0
H478 H 0.96244 0.55824 0.83027 0.0
H479 H 0.03153 0.55641 0.78977 0.0
H480 H 0.14856 0.49061 0.80014 0.0
H481 H 0.12082 0.5282 0.80947 0.0
H482 H 0.0105 0.47236 0.83823 0.0
C483 C 0.9533 0.55402 0.81733 0.0
C484 C 0.02688 0.53842 0.80051 0.0
C485 C 0.93012 0.56795 0.81173 0.0
C486 C 0.12126 0.47663 0.80622 0.0
C487 C 0.10509 0.49797 0.81137 0.0
C488 C 0.01563 0.4911 0.82775 0.0
C489 C 0.96655 0.53712 0.80598 0.0
C490 C 0.99534 0.52715 0.81085 0.0
C491 C 0.06754 0.48007 0.8171 0.0
C492 C 0.04579 0.50029 0.81666 0.0
H493 H 0.92312 0.54238 0.77066 0.0
H494 H 0.96312 0.51805 0.78039 0.0
H495 H 0.96663 0.49573 0.8331 0.0
H496 H 0.0489 0.38925 0.81598 0.0
H497 H 0.01977 0.42602 0.82424 0.0
C498 C 0.34392 0.90767 0.1429 0.0
C499 C 0.33687 0.89977 0.12571 0.0
C500 C 0.38102 0.92877 0.14878 0.0
C501 C 0.47243 0.00131 0.13316 0.0
H502 H 0.51687 0.97973 0.1714 0.0
C503 C 0.62806 0.09476 0.14438 0.0
C504 C 0.64689 0.07427 0.14574 0.0
C505 C 0.5895 0.07735 0.14776 0.0
C506 C 0.50473 0.98626 0.16077 0.0
H507 H 0.36279 0.90462 0.1015 0.0
H508 H 0.42719 0.94093 0.11174 0.0
H509 H 0.44997 0.93784 0.16485 0.0
H510 H 0.64179 0.02097 0.15284 0.0
H511 H 0.57421 0.98992 0.15818 0.0
H512 H 0.52678 0.04828 0.12838 0.0
C513 C 0.40422 0.93176 0.1206 0.0
C514 C 0.46648 0.96239 0.15708 0.0
C515 C 0.36738 0.91082 0.11476 0.0
C516 C 0.62763 0.03725 0.15184 0.0
C517 C 0.58894 0.01958 0.15497 0.0
C518 C 0.51036 0.02505 0.13682 0.0
C519 C 0.4114 0.94217 0.13753 0.0
C520 C 0.4504 0.96911 0.1429 0.0
C521 C 0.56906 0.03885 0.15206 0.0
C522 C 0.52732 0.01735 0.1504 0.0
H523 H 0.32086 0.89954 0.15161 0.0
H524 H 0.38586 0.93632 0.1619 0.0
H525 H 0.46054 0.00759 0.12234 0.0
H526 H 0.64254 0.12332 0.13956 0.0
H527 H 0.57519 0.09324 0.14579 0.0
C528 C 0.26058 0.00067 0.13576 0.0
C529 C 0.29403 0.00358 0.12953 0.0
C530 C 0.26136 0.0308 0.1443 0.0
C531 C 0.32126 0.13397 0.14971 0.0
H532 H 0.25479 0.11823 0.18721 0.0
C533 C 0.33906 0.25417 0.19267 0.0
C534 C 0.30652 0.25622 0.19624 0.0
C535 C 0.33634 0.22284 0.18452 0.0
C536 C 0.27323 0.12293 0.17665 0.0
H537 H 0.35473 0.03974 0.12801 0.0
H538 H 0.35624 0.0918 0.14333 0.0
H539 H 0.25311 0.06399 0.17361 0.0
H540 H 0.24553 0.2268 0.19416 0.0
H541 H 0.24083 0.17157 0.18001 0.0
H542 H 0.34191 0.19296 0.15304 0.0
C543 C 0.32922 0.06672 0.14118 0.0
C544 C 0.27228 0.09193 0.16884 0.0
C545 C 0.3284 0.03677 0.13249 0.0
C546 C 0.27111 0.22607 0.19155 0.0
C547 C 0.26838 0.19443 0.18355 0.0
C548 C 0.32246 0.16489 0.15763 0.0
C549 C 0.29566 0.06435 0.14695 0.0
C550 C 0.29641 0.09712 0.15531 0.0
C551 C 0.30103 0.19269 0.17989 0.0
C552 C 0.29859 0.15968 0.1712 0.0
H553 H 0.23358 0.97551 0.13364 0.0
H554 H 0.23493 0.02812 0.1484 0.0
H555 H 0.3396 0.139 0.13909 0.0
H556 H 0.36679 0.27694 0.19605 0.0
H557 H 0.36191 0.22202 0.18197 0.0
C558 C 0.01768 0.28135 0.52114 0.0
C559 C 0.01658 0.3146 0.52422 0.0
C560 C 0.05066 0.28303 0.51544 0.0
C561 C 0.14008 0.34353 0.4939 0.0
H562 H 0.17059 0.27735 0.5147 0.0
C563 C 0.27916 0.34771 0.47639 0.0
C564 C 0.27713 0.31259 0.47449 0.0
C565 C 0.24902 0.34997 0.48333 0.0
C566 C 0.16231 0.29577 0.50866 0.0
H567 H 0.0492 0.37573 0.52332 0.0
H568 H 0.10688 0.37853 0.51326 0.0
H569 H 0.11441 0.27739 0.52467 0.0
H570 H 0.24183 0.25235 0.47859 0.0
H571 H 0.1893 0.25629 0.49039 0.0
H572 H 0.18757 0.36139 0.47766 0.0
C573 C 0.08208 0.35122 0.51529 0.0
C574 C 0.13014 0.29581 0.51438 0.0
C575 C 0.04909 0.34958 0.52112 0.0
C576 C 0.2445 0.2799 0.47991 0.0
C577 C 0.21439 0.28217 0.48679 0.0
C578 C 0.1722 0.34336 0.4881 0.0
C579 C 0.08329 0.31794 0.51259 0.0
C580 C 0.11846 0.31937 0.50695 0.0
C581 C 0.21617 0.31719 0.4885 0.0
C582 C 0.18343 0.31915 0.4953 0.0
H583 H 0.99319 0.25391 0.52336 0.0
H584 H 0.05059 0.2569 0.51321 0.0
H585 H 0.13156 0.36177 0.48786 0.0
H586 H 0.30394 0.37348 0.47243 0.0
H587 H 0.25149 0.37743 0.48469 0.0
C588 C 0.98828 0.25939 0.80268 0.0
C589 C 0.98571 0.29171 0.7992 0.0
C590 C 0.95806 0.22768 0.80995 0.0
C591 C 0.85519 0.1824 0.81648 0.0
H592 H 0.87274 0.12569 0.85071 0.0
C593 C 0.73664 0.07236 0.85794 0.0
C594 C 0.73594 0.03817 0.86096 0.0
C595 C 0.76718 0.10198 0.8498 0.0
C596 C 0.86747 0.14099 0.84101 0.0
H597 H 0.94955 0.31625 0.80097 0.0
H598 H 0.89712 0.26118 0.81394 0.0
H599 H 0.92623 0.18065 0.83804 0.0
H600 H 0.76686 0.00834 0.85774 0.0
H601 H 0.82051 0.06046 0.84352 0.0
H602 H 0.79641 0.14309 0.81967 0.0
C603 C 0.92224 0.26008 0.81072 0.0
C604 C 0.89807 0.17246 0.83376 0.0
C605 C 0.9524 0.29175 0.80337 0.0
C606 C 0.76653 0.03429 0.8556 0.0
C607 C 0.79731 0.06415 0.84755 0.0
C608 C 0.82464 0.15109 0.82379 0.0
C609 C 0.92462 0.22759 0.81399 0.0
C610 C 0.89225 0.19368 0.82149 0.0
C611 C 0.79786 0.09826 0.84456 0.0
C612 C 0.83045 0.13024 0.83621 0.0
H613 H 0.01346 0.2583 0.79956 0.0
H614 H 0.96066 0.20297 0.81213 0.0
H615 H 0.84975 0.19765 0.80682 0.0
H616 H 0.71355 0.07634 0.86185 0.0
H617 H 0.76704 0.12809 0.84785 0.0
C618 C 0.65808 0.93479 0.14305 0.0
C619 C 0.69165 0.96882 0.13997 0.0
C620 C 0.65894 0.9049 0.15101 0.0
C621 C 0.72006 0.86527 0.15931 0.0
H622 H 0.64914 0.81173 0.19507 0.0
C623 C 0.66073 0.72046 0.20139 0.0
C624 C 0.69491 0.72191 0.20524 0.0
C625 C 0.6606 0.75022 0.19291 0.0
C626 C 0.66878 0.826 0.18495 0.0
H627 H 0.7525 -0.00193 0.14284 0.0
H628 H 0.75391 0.9456 0.15669 0.0
H629 H 0.64855 0.86465 0.18144 0.0
H630 H 0.7558 0.75557 0.20297 0.0
H631 H 0.75555 0.80777 0.18852 0.0
H632 H 0.73999 0.82635 0.16263 0.0
C633 C 0.72699 0.94218 0.15287 0.0
C634 C 0.66851 0.8564 0.17719 0.0
C635 C 0.72613 0.97226 0.14503 0.0
C636 C 0.72894 0.75349 0.20017 0.0
C637 C 0.7288 0.78338 0.19179 0.0
C638 C 0.72016 0.83466 0.16699 0.0
C639 C 0.69339 0.90824 0.15595 0.0
C640 C 0.69412 0.87632 0.16429 0.0
C641 C 0.69464 0.78224 0.1882 0.0
C642 C 0.69448 0.81463 0.17989 0.0
H643 H 0.63102 0.9312 0.13935 0.0
H644 H 0.63264 0.87893 0.1531 0.0
H645 H 0.73982 0.87988 0.14926 0.0
H646 H 0.63399 0.6964 0.20497 0.0
H647 H 0.63374 0.74807 0.19004 0.0
C648 C 0.71178 0.65036 0.46662 0.0
C649 C 0.71465 0.68604 0.46614 0.0
C650 C 0.74191 0.6465 0.47244 0.0
C651 C 0.84423 0.69889 0.47808 0.0
H652 H 0.82761 0.62856 0.51402 0.0
C653 C 0.96618 0.71099 0.51806 0.0
C654 C 0.96448 0.67806 0.52427 0.0
C655 C 0.93561 0.70917 0.50952 0.0
C656 C 0.83273 0.64783 0.50376 0.0
H657 H 0.75155 0.74565 0.47115 0.0
H658 H 0.8041 0.73886 0.48102 0.0
H659 H 0.77395 0.62986 0.50143 0.0
H660 H 0.92967 0.61721 0.52591 0.0
H661 H 0.87661 0.61394 0.51059 0.0
H662 H 0.90282 0.71688 0.48023 0.0
C663 C 0.77856 0.71394 0.47695 0.0
C664 C 0.80196 0.6486 0.4966 0.0
C665 C 0.74835 0.71775 0.4714 0.0
C666 C 0.93177 0.64315 0.52142 0.0
C667 C 0.90126 0.64129 0.5127 0.0
C668 C 0.87491 0.69782 0.48507 0.0
C669 C 0.7756 0.67832 0.47758 0.0
C670 C 0.80756 0.67469 0.48395 0.0
C671 C 0.90268 0.67433 0.50677 0.0
C672 C 0.86966 0.67287 0.49825 0.0
H673 H 0.68613 0.62541 0.46269 0.0
H674 H 0.73903 0.61873 0.4728 0.0
H675 H 0.84919 0.71892 0.46817 0.0
H676 H 0.99086 0.73839 0.52011 0.0
H677 H 0.93752 0.73529 0.50543 0.0
C678 C 0.26138 0.92795 0.8588 0.0
C679 C 0.26115 0.96167 0.86178 0.0
C680 C 0.23181 0.89842 0.85011 0.0
C681 C 0.1321 0.85777 0.8407 0.0
H682 H 0.15199 0.80754 0.8043 0.0
C683 C 0.01266 0.74455 0.8001 0.0
C684 C 0.0165 0.71415 0.79445 0.0
C685 C 0.04244 0.77498 0.80829 0.0
C686 C 0.14591 0.82084 0.8146 0.0
H687 H 0.22984 0.99094 0.85788 0.0
H688 H 0.17785 0.93894 0.84289 0.0
H689 H 0.20446 0.86046 0.81847 0.0
H690 H 0.05415 0.69127 0.79342 0.0
H691 H 0.10559 0.74368 0.80818 0.0
H692 H 0.0737 0.8177 0.83723 0.0
C693 C 0.20102 0.93556 0.84729 0.0
C694 C 0.17599 0.85127 0.82264 0.0
C695 C 0.23085 0.96533 0.85578 0.0
C696 C 0.05045 0.71446 0.79746 0.0
C697 C 0.08005 0.74466 0.80584 0.0
C698 C 0.10202 0.82703 0.83281 0.0
C699 C 0.20122 0.90184 0.84442 0.0
C700 C 0.16934 0.87 0.83574 0.0
C701 C 0.07657 0.77549 0.8112 0.0
C702 C 0.10854 0.80817 0.81966 0.0
H703 H 0.28438 0.92431 0.8632 0.0
H704 H 0.23248 0.87259 0.84813 0.0
H705 H 0.12631 0.87151 0.85092 0.0
H706 H 0.98691 0.74525 0.79789 0.0
H707 H 0.03891 0.79845 0.81202 0.0
C708 C 0.28523 0.23632 0.39664 0.0
C709 C 0.30633 0.27288 0.4033 0.0
C710 C 0.2694 0.23079 0.38061 0.0
C711 C 0.24725 0.27939 0.34668 0.0
H712 H 0.27193 0.22011 0.31695 0.0
C713 C 0.24157 0.29179 0.27488 0.0
C714 C 0.27568 0.29953 0.2673 0.0
C715 C 0.23338 0.27789 0.29131 0.0
C716 C 0.26445 0.23647 0.32512 0.0
H717 H 0.32588 0.33209 0.39858 0.0
H718 H 0.29895 0.32252 0.37083 0.0
H719 H 0.27936 0.21693 0.34706 0.0
H720 H 0.32674 0.2965 0.27058 0.0
H721 H 0.3127 0.27276 0.29895 0.0
H722 H 0.23511 0.30112 0.32465 0.0
C723 C 0.29416 0.298 0.37795 0.0
C724 C 0.26836 0.23437 0.34239 0.0
C725 C 0.31006 0.30353 0.39384 0.0
C726 C 0.30038 0.29125 0.2761 0.0
C727 C 0.29209 0.27713 0.29234 0.0
C728 C 0.24345 0.28158 0.3294 0.0
C729 C 0.27407 0.26168 0.37103 0.0
C730 C 0.26149 0.25715 0.35331 0.0
C731 C 0.25891 0.27099 0.30029 0.0
C732 C 0.25371 0.26148 0.3184 0.0
H733 H 0.28165 0.21207 0.40364 0.0
H734 H 0.25393 0.20243 0.37564 0.0
H735 H 0.241 0.29672 0.35481 0.0
H736 H 0.22193 0.29777 0.26838 0.0
H737 H 0.20751 0.27328 0.2971 0.0
C738 C 0.97692 0.31729 0.60177 0.0
C739 C 0.94718 0.28543 0.59406 0.0
C740 C 0.98983 0.31462 0.61755 0.0
C741 C 0.95861 0.26205 0.65629 0.0
H742 H 0.06505 0.32021 0.66724 0.0
C743 C 0.013 0.32995 0.72009 0.0
C744 C 0.04549 0.33184 0.72698 0.0
C745 C 0.00031 0.31464 0.70425 0.0
C746 C 0.0353 0.30318 0.66439 0.0
H747 H 0.90801 0.22553 0.59686 0.0
H748 H 0.93031 0.22106 0.62482 0.0
H749 H 0.04521 0.31101 0.63799 0.0
H750 H 0.08956 0.31808 0.7228 0.0
H751 H 0.06757 0.29174 0.69478 0.0
H752 H 0.94863 0.25552 0.68272 0.0
C753 C 0.94362 0.24804 0.61846 0.0
C754 C 0.02393 0.29821 0.64765 0.0
C755 C 0.9309 0.25061 0.60248 0.0
C756 C 0.06451 0.31714 0.7178 0.0
C757 C 0.05198 0.30212 0.70178 0.0
C758 C 0.96998 0.26718 0.67304 0.0
C759 C 0.97322 0.28009 0.62613 0.0
C760 C 0.98542 0.27879 0.64347 0.0
C761 C 0.01989 0.30102 0.69481 0.0
C762 C 0.00836 0.28898 0.67726 0.0
H763 H 0.99032 0.34453 0.59562 0.0
H764 H 0.01223 0.33996 0.62324 0.0
H765 H 0.92875 0.24702 0.65345 0.0
H766 H -0.00257 0.3407 0.72686 0.0
H767 H 0.97587 0.31477 0.69914 0.0
C768 C 0.71765 0.00307 0.06568 0.0
C769 C 0.73047 0.04092 0.06959 0.0
C770 C 0.72273 0.99292 0.04963 0.0
C771 C 0.76651 0.03229 0.00768 0.0
H772 H 0.6787 0.94108 0.99191 0.0
C773 C 0.70901 0.00509 0.94037 0.0
C774 C 0.69663 0.96939 0.9333 0.0
C775 C 0.72235 0.01267 0.95678 0.0
C776 C 0.70377 0.96621 0.99618 0.0
H777 H 0.75968 0.09811 0.06027 0.0
H778 H 0.76672 0.08051 0.03188 0.0
H779 H 0.68467 0.95659 0.02142 0.0
H780 H 0.68978 0.91404 0.93756 0.0
H781 H 0.71197 0.92698 0.96667 0.0
H782 H 0.78364 0.043 0.98193 0.0
C783 C 0.75403 0.05853 0.04124 0.0
C784 C 0.7074 0.97518 0.01318 0.0
C785 C 0.74988 0.06876 0.05748 0.0
C786 C 0.69923 0.94181 0.94272 0.0
C787 C 0.71182 0.94916 0.95933 0.0
C788 C 0.76244 0.02363 0.99059 0.0
C789 C 0.73952 0.0203 0.03696 0.0
C790 C 0.73844 0.00873 0.01916 0.0
C791 C 0.7229 0.98448 0.96655 0.0
C792 C 0.73068 0.99086 0.98469 0.0
H793 H 0.70285 0.98121 0.07495 0.0
H794 H 0.71228 0.96338 0.04706 0.0
H795 H 0.79121 0.05792 0.01179 0.0
H796 H 0.70756 0.02695 0.93332 0.0
H797 H 0.73035 0.03998 0.96211 0.0
C798 C 0.76769 0.72034 0.28593 0.0
C799 C 0.73267 0.70455 0.27771 0.0
C800 C 0.77366 0.74065 0.30085 0.0
C801 C 0.73275 0.78668 0.32703 0.0
H802 H 0.76321 0.74849 0.36475 0.0
C803 C 0.66223 0.75318 0.39046 0.0
C804 C 0.68353 0.76052 0.40513 0.0
C805 C 0.6799 0.76228 0.37489 0.0
C806 C 0.75566 0.76035 0.35433 0.0
H807 H 0.67721 0.69927 0.27827 0.0
H808 H 0.68745 0.73406 0.30399 0.0
H809 H 0.77403 0.73427 0.3363 0.0
H810 H 0.73983 0.78395 0.4153 0.0
H811 H 0.77101 0.79879 0.38776 0.0
H812 H 0.71139 0.8099 0.34511 0.0
C813 C 0.71048 0.73117 0.29901 0.0
C814 C 0.76186 0.75221 0.33802 0.0
C815 C 0.70442 0.7107 0.28433 0.0
C816 C 0.723 0.7786 0.40409 0.0
C817 C 0.74073 0.78687 0.38841 0.0
C818 C 0.72627 0.7945 0.3433 0.0
C819 C 0.74493 0.74602 0.30758 0.0
C820 C 0.74856 0.76356 0.32425 0.0
C821 C 0.71917 0.77801 0.37368 0.0
C822 C 0.73595 0.77978 0.35707 0.0
H823 H 0.79003 0.71614 0.28109 0.0
H824 H 0.80049 0.75175 0.30721 0.0
H825 H 0.72296 0.79652 0.31664 0.0
H826 H 0.63172 0.7389 0.39103 0.0
H827 H 0.66255 0.75462 0.36374 0.0
C828 C 0.0573 0.76781 0.6034 0.0
C829 C 0.03171 0.7351 0.59471 0.0
C830 C 0.04741 0.77608 0.61898 0.0
C831 C 0.96741 0.75135 0.64786 0.0
H832 H 0.03495 0.75268 0.68215 0.0
C833 C 0.9781 0.72716 0.7238 0.0
C834 C 0.9418 0.69609 0.72578 0.0
C835 C 0.9894 0.74562 0.7084 0.0
C836 C 0.01606 0.75348 0.67289 0.0
H837 H 0.97492 0.68716 0.59469 0.0
H838 H 0.95754 0.70184 0.62159 0.0
H839 H 0.05482 0.76204 0.65316 0.0
H840 H 0.88815 0.66068 0.71378 0.0
H841 H 0.90806 0.69162 0.6866 0.0
H842 H 0.92813 0.74164 0.66755 0.0
C843 C 0.98523 0.72099 0.61655 0.0
C844 C 0.02758 0.75882 0.65619 0.0
C845 C 0.99532 0.71237 0.60122 0.0
C846 C 0.91614 0.68496 0.7125 0.0
C847 C 0.92766 0.70289 0.69695 0.0
C848 C 0.95603 0.74651 0.66462 0.0
C849 C 0.01151 0.75222 0.62584 0.0
C850 C 0.00278 0.7562 0.64346 0.0
C851 C 0.96495 0.73254 0.69453 0.0
C852 C 0.97959 0.74584 0.67729 0.0
H853 H 0.08554 0.78578 0.59863 0.0
H854 H 0.06818 0.80033 0.62592 0.0
H855 H 0.9479 0.74959 0.63827 0.0
H856 H -0.00172 0.73607 0.73397 0.0
H857 H 0.01796 0.76892 0.70717 0.0
C858 C 0.24601 0.9805 0.05914 0.0
C859 C 0.23473 0.94216 0.06033 0.0
C860 C 0.23837 0.99469 0.0447 0.0
C861 C 0.19234 0.96693 0.00232 0.0
H862 H 0.28257 0.05881 0.98904 0.0
C863 C 0.25646 -0.00259 0.93724 0.0
C864 C 0.27571 0.03447 0.93109 0.0
C865 C 0.23861 0.98954 0.95275 0.0
C866 C 0.25666 0.03372 0.99263 0.0
H867 H 0.20514 0.88802 0.04802 0.0
H868 H 0.19352 0.91283 0.02232 0.0
H869 H 0.27513 0.03816 0.01783 0.0
H870 H 0.28938 0.09204 0.93569 0.0
H871 H 0.25899 0.07844 0.96332 0.0
H872 H 0.17589 0.96118 0.97651 0.0
C873 C 0.20702 0.93202 0.03266 0.0
C874 C 0.25226 0.02174 0.00924 0.0
C875 C 0.21382 0.91769 0.04733 0.0
C876 C 0.27468 0.06323 0.9402 0.0
C877 C 0.25738 0.05547 0.95596 0.0
C878 C 0.19705 0.9787 0.98561 0.0
C879 C 0.22049 0.97101 0.03091 0.0
C880 C 0.22077 0.98738 0.01419 0.0
C881 C 0.24022 0.01871 0.96258 0.0
C882 C 0.22999 0.01144 0.98052 0.0
H883 H 0.26196 -0.00026 0.06916 0.0
H884 H 0.24817 0.0246 0.04407 0.0
H885 H 0.16726 0.94087 0.00573 0.0
H886 H 0.25662 0.9747 0.93035 0.0
H887 H 0.22602 0.96105 0.95758 0.0
loop_
_geom_bond_atom_site_label_1
_geom_bond_atom_site_label_2
_geom_bond_distance
_geom_bond_site_symmetry_2
_ccdc_geom_bond_type
Mg0 O1 2.028 . S
Mg0 O7 1.986 . S
Mg0 O9 2.114 . S
Mg0 O10 2.251 . S
Mg0 O13 2.010 . S
O1 Mg0 2.028 . S
O1 C4 1.250 . S
O2 Mg3 2.028 . S
O2 C4 1.248 . S
Mg3 O2 2.028 . S
Mg3 O8 2.032 . S
Mg3 O10 2.079 . S
C4 O1 1.250 . S
C4 O2 1.248 . S
C5 O6 1.264 . S
C5 O13 1.249 . S
O6 C5 1.264 . S
O7 Mg0 1.986 . S
O7 C11 1.246 . S
O8 Mg3 2.032 . S
O8 C11 1.259 . S
O9 Mg0 2.114 . S
O9 C12 1.252 . S
O10 Mg0 2.251 . S
O10 Mg3 2.079 . S
O10 C12 1.273 . S
C11 O7 1.246 . S
C11 O8 1.259 . S
C12 O9 1.252 . S
C12 O10 1.273 . S
O13 Mg0 2.010 . S
O13 C5 1.249 . S
Mg14 O15 2.028 . S
Mg14 O21 1.986 . S
Mg14 O23 2.114 . S
Mg14 O24 2.251 . S
Mg14 O27 2.010 . S
O15 Mg14 2.028 . S
O15 C18 1.250 1_655 S
O16 Mg17 2.028 . S
O16 C18 1.248 . S
Mg17 O16 2.028 . S
Mg17 O22 2.032 1_455 S
Mg17 O24 2.079 1_455 S
C18 O15 1.250 1_455 S
C18 O16 1.248 . S
C19 O20 1.264 . S
C19 O27 1.249 . S
O20 C19 1.264 . S
O21 Mg14 1.986 . S
O21 C25 1.246 . S
O22 Mg17 2.032 1_655 S
O22 C25 1.259 . S
O23 Mg14 2.114 . S
O23 C26 1.252 . S
O24 Mg14 2.251 . S
O24 Mg17 2.079 1_655 S
O24 C26 1.273 . S
C25 O21 1.246 . S
C25 O22 1.259 . S
C26 O23 1.252 . S
C26 O24 1.273 . S
O27 Mg14 2.010 . S
O27 C19 1.249 . S
Mg28 O29 2.028 . S
Mg28 O35 1.986 . S
Mg28 O37 2.114 . S
Mg28 O38 2.251 . S
Mg28 O41 2.010 . S
O29 Mg28 2.028 . S
O29 C32 1.250 1_565 S
O30 Mg31 2.028 . S
O30 C32 1.248 . S
Mg31 O30 2.028 . S
Mg31 O36 2.032 1_545 S
Mg31 O38 2.079 1_545 S
C32 O29 1.250 1_545 S
C32 O30 1.248 . S
C33 O34 1.264 . S
C33 O41 1.249 . S
O34 C33 1.264 . S
O35 Mg28 1.986 . S
O35 C39 1.246 . S
O36 Mg31 2.032 1_565 S
O36 C39 1.259 . S
O37 Mg28 2.114 . S
O37 C40 1.252 . S
O38 Mg28 2.251 . S
O38 Mg31 2.079 1_565 S
O38 C40 1.273 . S
C39 O35 1.246 . S
C39 O36 1.259 . S
C40 O37 1.252 . S
C40 O38 1.273 . S
O41 Mg28 2.010 . S
O41 C33 1.249 . S
Mg42 O43 2.028 . S
Mg42 O49 1.986 . S
Mg42 O51 2.114 . S
Mg42 O52 2.251 . S
Mg42 O55 2.010 . S
O43 Mg42 2.028 . S
O43 C46 1.250 . S
O44 Mg45 2.028 . S
O44 C46 1.248 . S
Mg45 O44 2.028 . S
Mg45 O50 2.032 . S
Mg45 O52 2.079 . S
C46 O43 1.250 . S
C46 O44 1.248 . S
C47 O48 1.264 . S
C47 O55 1.249 . S
O48 C47 1.264 . S
O49 Mg42 1.986 . S
O49 C53 1.246 . S
O50 Mg45 2.032 . S
O50 C53 1.259 . S
O51 Mg42 2.114 . S
O51 C54 1.252 . S
O52 Mg42 2.251 . S
O52 Mg45 2.079 . S
O52 C54 1.273 . S
C53 O49 1.246 . S
C53 O50 1.259 . S
C54 O51 1.252 . S
C54 O52 1.273 . S
O55 Mg42 2.010 . S
O55 C47 1.249 . S
Mg56 O57 2.028 . S
Mg56 O63 1.986 . S
Mg56 O65 2.114 . S
Mg56 O66 2.251 . S
Mg56 O69 2.010 . S
O57 Mg56 2.028 . S
O57 C60 1.250 1_455 S
O58 Mg59 2.028 . S
O58 C60 1.248 . S
Mg59 O58 2.028 . S
Mg59 O64 2.032 1_655 S
Mg59 O66 2.079 1_655 S
C60 O57 1.250 1_655 S
C60 O58 1.248 . S
C61 O62 1.264 . S
C61 O69 1.249 . S
O62 C61 1.264 . S
O63 Mg56 1.986 . S
O63 C67 1.246 . S
O64 Mg59 2.032 1_455 S
O64 C67 1.259 . S
O65 Mg56 2.114 . S
O65 C68 1.252 . S
O66 Mg56 2.251 . S
O66 Mg59 2.079 1_455 S
O66 C68 1.273 . S
C67 O63 1.246 . S
C67 O64 1.259 . S
C68 O65 1.252 . S
C68 O66 1.273 . S
O69 Mg56 2.010 . S
O69 C61 1.249 . S
Mg70 O71 2.028 . S
Mg70 O77 1.986 . S
Mg70 O79 2.114 . S
Mg70 O80 2.251 . S
Mg70 O83 2.010 . S
O71 Mg70 2.028 . S
O71 C74 1.250 1_545 S
O72 Mg73 2.028 . S
O72 C74 1.248 . S
Mg73 O72 2.028 . S
Mg73 O78 2.032 1_565 S
Mg73 O80 2.079 1_565 S
C74 O71 1.250 1_565 S
C74 O72 1.248 . S
C75 O76 1.264 . S
C75 O83 1.249 . S
O76 C75 1.264 . S
O77 Mg70 1.986 . S
O77 C81 1.246 . S
O78 Mg73 2.032 1_545 S
O78 C81 1.259 . S
O79 Mg70 2.114 . S
O79 C82 1.252 . S
O80 Mg70 2.251 . S
O80 Mg73 2.079 1_545 S
O80 C82 1.273 . S
C81 O77 1.246 . S
C81 O78 1.259 . S
C82 O79 1.252 . S
C82 O80 1.273 . S
O83 Mg70 2.010 . S
O83 C75 1.249 . S
Mg84 O85 2.028 . S
Mg84 O91 1.986 . S
Mg84 O93 2.114 . S
Mg84 O94 2.251 . S
Mg84 O97 2.010 . S
O85 Mg84 2.028 . S
O85 C88 1.250 . S
O86 Mg87 2.028 . S
O86 C88 1.248 . S
Mg87 O86 2.028 . S
Mg87 O92 2.032 . S
Mg87 O94 2.079 . S
C88 O85 1.250 . S
C88 O86 1.248 . S
C89 O90 1.264 . S
C89 O97 1.249 . S
O90 C89 1.264 . S
O91 Mg84 1.986 . S
O91 C95 1.246 . S
O92 Mg87 2.032 . S
O92 C95 1.259 . S
O93 Mg84 2.114 . S
O93 C96 1.252 . S
O94 Mg84 2.251 . S
O94 Mg87 2.079 . S
O94 C96 1.273 . S
C95 O91 1.246 . S
C95 O92 1.259 . S
C96 O93 1.252 . S
C96 O94 1.273 . S
O97 Mg84 2.010 . S
O97 C89 1.249 . S
Mg98 O99 2.028 . S
Mg98 O105 1.986 . S
Mg98 O107 2.114 . S
Mg98 O108 2.251 . S
Mg98 O111 2.010 . S
O99 Mg98 2.028 . S
O99 C102 1.250 1_655 S
O100 Mg101 2.028 . S
O100 C102 1.248 . S
Mg101 O100 2.028 . S
Mg101 O106 2.032 1_455 S
Mg101 O108 2.079 1_455 S
C102 O99 1.250 1_455 S
C102 O100 1.248 . S
C103 O104 1.264 . S
C103 O111 1.249 . S
O104 C103 1.264 . S
O105 Mg98 1.986 . S
O105 C109 1.246 . S
O106 Mg101 2.032 1_655 S
O106 C109 1.259 . S
O107 Mg98 2.114 . S
O107 C110 1.252 . S
O108 Mg98 2.251 . S
O108 Mg101 2.079 1_655 S
O108 C110 1.273 . S
C109 O105 1.246 . S
C109 O106 1.259 . S
C110 O107 1.252 . S
C110 O108 1.273 . S
O111 Mg98 2.010 . S
O111 C103 1.249 . S
Mg112 O113 2.028 . S
Mg112 O119 1.986 . S
Mg112 O121 2.114 . S
Mg112 O122 2.251 . S
Mg112 O125 2.010 . S
O113 Mg112 2.028 . S
O113 C116 1.250 1_565 S
O114 Mg115 2.028 . S
O114 C116 1.248 . S
Mg115 O114 2.028 . S
Mg115 O120 2.032 1_545 S
Mg115 O122 2.079 1_545 S
C116 O113 1.250 1_545 S
C116 O114 1.248 . S
C117 O118 1.264 . S
C117 O125 1.249 . S
O118 C117 1.264 . S
O119 Mg112 1.986 . S
O119 C123 1.246 . S
O120 Mg115 2.032 1_565 S
O120 C123 1.259 . S
O121 Mg112 2.114 . S
O121 C124 1.252 . S
O122 Mg112 2.251 . S
O122 Mg115 2.079 1_565 S
O122 C124 1.273 . S
C123 O119 1.246 . S
C123 O120 1.259 . S
C124 O121 1.252 . S
C124 O122 1.273 . S
O125 Mg112 2.010 . S
O125 C117 1.249 . S
Mg126 O127 2.028 . S
Mg126 O133 1.986 . S
Mg126 O135 2.114 . S
Mg126 O136 2.251 . S
Mg126 O139 2.010 . S
O127 Mg126 2.028 . S
O127 C130 1.250 . S
O128 Mg129 2.028 . S
O128 C130 1.248 . S
Mg129 O128 2.028 . S
Mg129 O134 2.032 . S
Mg129 O136 2.079 . S
C130 O127 1.250 . S
C130 O128 1.248 . S
C131 O132 1.264 . S
C131 O139 1.249 . S
O132 C131 1.264 . S
O133 Mg126 1.986 . S
O133 C137 1.246 . S
O134 Mg129 2.032 . S
O134 C137 1.259 . S
O135 Mg126 2.114 . S
O135 C138 1.252 . S
O136 Mg126 2.251 . S
O136 Mg129 2.079 . S
O136 C138 1.273 . S
C137 O133 1.246 . S
C137 O134 1.259 . S
C138 O135 1.252 . S
C138 O136 1.273 . S
O139 Mg126 2.010 . S
O139 C131 1.249 . S
Mg140 O141 2.028 . S
Mg140 O147 1.986 . S
Mg140 O149 2.114 . S
Mg140 O150 2.251 . S
Mg140 O153 2.010 . S
O141 Mg140 2.028 . S
O141 C144 1.250 1_455 S
O142 Mg143 2.028 . S
O142 C144 1.248 . S
Mg143 O142 2.028 . S
Mg143 O148 2.032 1_655 S
Mg143 O150 2.079 1_655 S
C144 O141 1.250 1_655 S
C144 O142 1.248 . S
C145 O146 1.264 . S
C145 O153 1.249 . S
O146 C145 1.264 . S
O147 Mg140 1.986 . S
O147 C151 1.246 . S
O148 Mg143 2.032 1_455 S
O148 C151 1.259 . S
O149 Mg140 2.114 . S
O149 C152 1.252 . S
O150 Mg140 2.251 . S
O150 Mg143 2.079 1_455 S
O150 C152 1.273 . S
C151 O147 1.246 . S
C151 O148 1.259 . S
C152 O149 1.252 . S
C152 O150 1.273 . S
O153 Mg140 2.010 . S
O153 C145 1.249 . S
Mg154 O155 2.028 . S
Mg154 O161 1.986 . S
Mg154 O163 2.114 . S
Mg154 O164 2.251 . S
Mg154 O167 2.010 . S
O155 Mg154 2.028 . S
O155 C158 1.250 1_545 S
O156 Mg157 2.028 . S
O156 C158 1.248 . S
Mg157 O156 2.028 . S
Mg157 O162 2.032 1_565 S
Mg157 O164 2.079 1_565 S
C158 O155 1.250 1_565 S
C158 O156 1.248 . S
C159 O160 1.264 . S
C159 O167 1.249 . S
O160 C159 1.264 . S
O161 Mg154 1.986 . S
O161 C165 1.246 . S
O162 Mg157 2.032 1_545 S
O162 C165 1.259 . S
O163 Mg154 2.114 . S
O163 C166 1.252 . S
O164 Mg154 2.251 . S
O164 Mg157 2.079 1_545 S
O164 C166 1.273 . S
C165 O161 1.246 . S
C165 O162 1.259 . S
C166 O163 1.252 . S
C166 O164 1.273 . S
O167 Mg154 2.010 . S
O167 C159 1.249 . S
C168 C169 1.349 . S
C168 C170 1.327 . S
C168 H193 0.950 . S
C169 C168 1.349 . S
C169 C185 1.349 . S
C170 C168 1.327 . S
C170 C189 1.429 . S
C170 H194 0.950 . S
C171 C188 1.574 1_655 S
C171 C190 1.368 . S
C171 H195 0.949 . S
H172 C176 0.949 . S
C173 C174 1.349 . S
C173 C175 1.327 . S
C173 H196 0.950 . S
C174 C173 1.349 . S
C174 C186 1.349 . S
C175 C173 1.327 . S
C175 C191 1.429 . S
C175 H197 0.950 . S
C176 H172 0.949 . S
C176 C184 1.574 1_455 S
C176 C192 1.368 . S
H177 C185 0.950 . S
H178 C183 0.950 . S
H179 C184 0.949 . S
H180 C186 0.950 . S
H181 C187 0.950 . S
H182 C188 0.949 . S
C183 H178 0.950 . S
C183 C185 1.327 . S
C183 C189 1.429 . S
C184 C176 1.574 1_655 S
C184 H179 0.949 . S
C184 C190 1.368 . S
C185 C169 1.349 . S
C185 H177 0.950 . S
C185 C183 1.327 . S
C186 C174 1.349 . S
C186 H180 0.950 . S
C186 C187 1.327 . S
C187 H181 0.950 . S
C187 C186 1.327 . S
C187 C191 1.429 . S
C188 C171 1.574 1_455 S
C188 H182 0.949 . S
C188 C192 1.368 . S
C189 C170 1.429 . S
C189 C183 1.429 . S
C189 C190 1.523 . S
C190 C171 1.368 . S
C190 C184 1.368 . S
C190 C189 1.523 . S
C191 C175 1.429 . S
C191 C187 1.429 . S
C191 C192 1.523 . S
C192 C176 1.368 . S
C192 C188 1.368 . S
C192 C191 1.523 . S
H193 C168 0.950 . S
H194 C170 0.950 . S
H195 C171 0.949 . S
H196 C173 0.950 . S
H197 C175 0.950 . S
C198 C199 1.349 . S
C198 C200 1.327 . S
C198 H223 0.950 . S
C199 C198 1.349 . S
C199 C215 1.349 . S
C200 C198 1.327 . S
C200 C219 1.429 . S
C200 H224 0.950 . S
C201 C218 1.574 1_545 S
C201 C220 1.368 . S
C201 H225 0.949 . S
H202 C206 0.949 . S
C203 C204 1.349 . S
C203 C205 1.327 . S
C203 H226 0.950 . S
C204 C203 1.349 . S
C204 C216 1.349 . S
C205 C203 1.327 . S
C205 C221 1.429 . S
C205 H227 0.950 . S
C206 H202 0.949 . S
C206 C214 1.574 1_565 S
C206 C222 1.368 . S
H207 C215 0.950 . S
H208 C213 0.950 . S
H209 C214 0.949 . S
H210 C216 0.950 . S
H211 C217 0.950 . S
H212 C218 0.949 . S
C213 H208 0.950 . S
C213 C215 1.327 . S
C213 C219 1.429 . S
C214 C206 1.574 1_545 S
C214 H209 0.949 . S
C214 C220 1.368 . S
C215 C199 1.349 . S
C215 H207 0.950 . S
C215 C213 1.327 . S
C216 C204 1.349 . S
C216 H210 0.950 . S
C216 C217 1.327 . S
C217 H211 0.950 . S
C217 C216 1.327 . S
C217 C221 1.429 . S
C218 C201 1.574 1_565 S
C218 H212 0.949 . S
C218 C222 1.368 . S
C219 C200 1.429 . S
C219 C213 1.429 . S
C219 C220 1.523 . S
C220 C201 1.368 . S
C220 C214 1.368 . S
C220 C219 1.523 . S
C221 C205 1.429 . S
C221 C217 1.429 . S
C221 C222 1.523 . S
C222 C206 1.368 . S
C222 C218 1.368 . S
C222 C221 1.523 . S
H223 C198 0.950 . S
H224 C200 0.950 . S
H225 C201 0.949 . S
H226 C203 0.950 . S
H227 C205 0.950 . S
C228 C229 1.349 . S
C228 C230 1.327 . S
C228 H253 0.950 . S
C229 C228 1.349 . S
C229 C245 1.349 . S
C230 C228 1.327 . S
C230 C249 1.429 . S
C230 H254 0.950 . S
C231 C248 1.574 . S
C231 C250 1.368 . S
C231 H255 0.949 . S
H232 C236 0.949 . S
C233 C234 1.349 . S
C233 C235 1.327 . S
C233 H256 0.950 . S
C234 C233 1.349 . S
C234 C246 1.349 . S
C235 C233 1.327 . S
C235 C251 1.429 . S
C235 H257 0.950 . S
C236 H232 0.949 . S
C236 C244 1.574 . S
C236 C252 1.368 . S
H237 C245 0.950 . S
H238 C243 0.950 . S
H239 C244 0.949 . S
H240 C246 0.950 . S
H241 C247 0.950 . S
H242 C248 0.949 . S
C243 H238 0.950 . S
C243 C245 1.327 . S
C243 C249 1.429 . S
C244 C236 1.574 . S
C244 H239 0.949 . S
C244 C250 1.368 . S
C245 C229 1.349 . S
C245 H237 0.950 . S
C245 C243 1.327 . S
C246 C234 1.349 . S
C246 H240 0.950 . S
C246 C247 1.327 . S
C247 H241 0.950 . S
C247 C246 1.327 . S
C247 C251 1.429 . S
C248 C231 1.574 . S
C248 H242 0.949 . S
C248 C252 1.368 . S
C249 C230 1.429 . S
C249 C243 1.429 . S
C249 C250 1.523 . S
C250 C231 1.368 . S
C250 C244 1.368 . S
C250 C249 1.523 . S
C251 C235 1.429 . S
C251 C247 1.429 . S
C251 C252 1.523 . S
C252 C236 1.368 . S
C252 C248 1.368 . S
C252 C251 1.523 . S
H253 C228 0.950 . S
H254 C230 0.950 . S
H255 C231 0.949 . S
H256 C233 0.950 . S
H257 C235 0.950 . S
C258 C259 1.349 . S
C258 C260 1.327 . S
C258 H283 0.950 . S
C259 C258 1.349 . S
C259 C275 1.349 . S
C260 C258 1.327 . S
C260 C279 1.429 . S
C260 H284 0.950 . S
C261 C278 1.574 1_655 S
C261 C280 1.368 . S
C261 H285 0.949 . S
H262 C266 0.949 . S
C263 C264 1.349 . S
C263 C265 1.327 . S
C263 H286 0.950 . S
C264 C263 1.349 . S
C264 C276 1.349 . S
C265 C263 1.327 . S
C265 C281 1.429 . S
C265 H287 0.950 . S
C266 H262 0.949 . S
C266 C274 1.574 1_455 S
C266 C282 1.368 . S
H267 C275 0.950 . S
H268 C273 0.950 . S
H269 C274 0.949 . S
H270 C276 0.950 . S
H271 C277 0.950 . S
H272 C278 0.949 . S
C273 H268 0.950 . S
C273 C275 1.327 . S
C273 C279 1.429 . S
C274 C266 1.574 1_655 S
C274 H269 0.949 . S
C274 C280 1.368 . S
C275 C259 1.349 . S
C275 H267 0.950 . S
C275 C273 1.327 . S
C276 C264 1.349 . S
C276 H270 0.950 . S
C276 C277 1.327 . S
C277 H271 0.950 . S
C277 C276 1.327 . S
C277 C281 1.429 . S
C278 C261 1.574 1_455 S
C278 H272 0.949 . S
C278 C282 1.368 . S
C279 C260 1.429 . S
C279 C273 1.429 . S
C279 C280 1.523 . S
C280 C261 1.368 . S
C280 C274 1.368 . S
C280 C279 1.523 . S
C281 C265 1.429 . S
C281 C277 1.429 . S
C281 C282 1.523 . S
C282 C266 1.368 . S
C282 C278 1.368 . S
C282 C281 1.523 . S
H283 C258 0.950 . S
H284 C260 0.950 . S
H285 C261 0.949 . S
H286 C263 0.950 . S
H287 C265 0.950 . S
C288 C289 1.349 . S
C288 C290 1.327 . S
C288 H313 0.950 . S
C289 C288 1.349 . S
C289 C305 1.349 . S
C290 C288 1.327 . S
C290 C309 1.429 . S
C290 H314 0.950 . S
C291 C308 1.574 1_545 S
C291 C310 1.368 . S
C291 H315 0.949 . S
H292 C296 0.949 . S
C293 C294 1.349 . S
C293 C295 1.327 . S
C293 H316 0.950 . S
C294 C293 1.349 . S
C294 C306 1.349 . S
C295 C293 1.327 . S
C295 C311 1.429 . S
C295 H317 0.950 . S
C296 H292 0.949 . S
C296 C304 1.574 1_565 S
C296 C312 1.368 . S
H297 C305 0.950 . S
H298 C303 0.950 . S
H299 C304 0.949 . S
H300 C306 0.950 . S
H301 C307 0.950 . S
H302 C308 0.949 . S
C303 H298 0.950 . S
C303 C305 1.327 . S
C303 C309 1.429 . S
C304 C296 1.574 1_545 S
C304 H299 0.949 . S
C304 C310 1.368 . S
C305 C289 1.349 . S
C305 H297 0.950 . S
C305 C303 1.327 . S
C306 C294 1.349 . S
C306 H300 0.950 . S
C306 C307 1.327 . S
C307 H301 0.950 . S
C307 C306 1.327 . S
C307 C311 1.429 . S
C308 C291 1.574 1_565 S
C308 H302 0.949 . S
C308 C312 1.368 . S
C309 C290 1.429 . S
C309 C303 1.429 . S
C309 C310 1.523 . S
C310 C291 1.368 . S
C310 C304 1.368 . S
C310 C309 1.523 . S
C311 C295 1.429 . S
C311 C307 1.429 . S
C311 C312 1.523 . S
C312 C296 1.368 . S
C312 C308 1.368 . S
C312 C311 1.523 . S
H313 C288 0.950 . S
H314 C290 0.950 . S
H315 C291 0.949 . S
H316 C293 0.950 . S
H317 C295 0.950 . S
C318 C319 1.349 . S
C318 C320 1.327 . S
C318 H343 0.950 . S
C319 C318 1.349 . S
C319 C335 1.349 . S
C320 C318 1.327 . S
C320 C339 1.429 . S
C320 H344 0.950 . S
C321 C338 1.574 . S
C321 C340 1.368 . S
C321 H345 0.949 . S
H322 C326 0.949 . S
C323 C324 1.349 . S
C323 C325 1.327 . S
C323 H346 0.950 . S
C324 C323 1.349 . S
C324 C336 1.349 . S
C325 C323 1.327 . S
C325 C341 1.429 . S
C325 H347 0.950 . S
C326 H322 0.949 . S
C326 C334 1.574 . S
C326 C342 1.368 . S
H327 C335 0.950 . S
H328 C333 0.950 . S
H329 C334 0.949 . S
H330 C336 0.950 . S
H331 C337 0.950 . S
H332 C338 0.949 . S
C333 H328 0.950 . S
C333 C335 1.327 . S
C333 C339 1.429 . S
C334 C326 1.574 . S
C334 H329 0.949 . S
C334 C340 1.368 . S
C335 C319 1.349 . S
C335 H327 0.950 . S
C335 C333 1.327 . S
C336 C324 1.349 . S
C336 H330 0.950 . S
C336 C337 1.327 . S
C337 H331 0.950 . S
C337 C336 1.327 . S
C337 C341 1.429 . S
C338 C321 1.574 . S
C338 H332 0.949 . S
C338 C342 1.368 . S
C339 C320 1.429 . S
C339 C333 1.429 . S
C339 C340 1.523 . S
C340 C321 1.368 . S
C340 C334 1.368 . S
C340 C339 1.523 . S
C341 C325 1.429 . S
C341 C337 1.429 . S
C341 C342 1.523 . S
C342 C326 1.368 . S
C342 C338 1.368 . S
C342 C341 1.523 . S
H343 C318 0.950 . S
H344 C320 0.950 . S
H345 C321 0.949 . S
H346 C323 0.950 . S
H347 C325 0.950 . S
C348 C349 1.349 . S
C348 C350 1.327 . S
C348 H373 0.950 . S
C349 C348 1.349 . S
C349 C365 1.349 . S
C350 C348 1.327 . S
C350 C369 1.429 . S
C350 H374 0.950 . S
C351 C368 1.574 . S
C351 C370 1.368 . S
C351 H375 0.949 . S
H352 C356 0.949 . S
C353 C354 1.349 . S
C353 C355 1.327 . S
C353 H376 0.950 . S
C354 C353 1.349 . S
C354 C366 1.349 . S
C355 C353 1.327 . S
C355 C371 1.429 . S
C355 H377 0.950 . S
C356 H352 0.949 . S
C356 C364 1.574 . S
C356 C372 1.368 . S
H357 C365 0.950 . S
H358 C363 0.950 . S
H359 C364 0.949 . S
H360 C366 0.950 . S
H361 C367 0.950 . S
H362 C368 0.949 . S
C363 H358 0.950 . S
C363 C365 1.327 . S
C363 C369 1.429 . S
C364 C356 1.574 . S
C364 H359 0.949 . S
C364 C370 1.368 . S
C365 C349 1.349 . S
C365 H357 0.950 . S
C365 C363 1.327 . S
C366 C354 1.349 . S
C366 H360 0.950 . S
C366 C367 1.327 . S
C367 H361 0.950 . S
C367 C366 1.327 . S
C367 C371 1.429 . S
C368 C351 1.574 . S
C368 H362 0.949 . S
C368 C372 1.368 . S
C369 C350 1.429 . S
C369 C363 1.429 . S
C369 C370 1.523 . S
C370 C351 1.368 . S
C370 C364 1.368 . S
C370 C369 1.523 . S
C371 C355 1.429 . S
C371 C367 1.429 . S
C371 C372 1.523 . S
C372 C356 1.368 . S
C372 C368 1.368 . S
C372 C371 1.523 . S
H373 C348 0.950 . S
H374 C350 0.950 . S
H375 C351 0.949 . S
H376 C353 0.950 . S
H377 C355 0.950 . S
C378 C379 1.349 . S
C378 C380 1.327 . S
C378 H403 0.950 . S
C379 C378 1.349 . S
C379 C395 1.349 . S
C380 C378 1.327 . S
C380 C399 1.429 . S
C380 H404 0.950 . S
C381 C398 1.574 . S
C381 C400 1.368 1_655 S
C381 H405 0.949 . S
H382 C386 0.949 . S
C383 C384 1.349 . S
C383 C385 1.327 . S
C383 H406 0.950 . S
C384 C383 1.349 . S
C384 C396 1.349 . S
C385 C383 1.327 . S
C385 C401 1.429 . S
C385 H407 0.950 . S
C386 H382 0.949 . S
C386 C394 1.574 . S
C386 C402 1.368 1_455 S
H387 C395 0.950 . S
H388 C393 0.950 . S
H389 C394 0.949 . S
H390 C396 0.950 . S
H391 C397 0.950 . S
H392 C398 0.949 . S
C393 H388 0.950 . S
C393 C395 1.327 . S
C393 C399 1.429 . S
C394 C386 1.574 . S
C394 H389 0.949 . S
C394 C400 1.368 . S
C395 C379 1.349 . S
C395 H387 0.950 . S
C395 C393 1.327 . S
C396 C384 1.349 . S
C396 H390 0.950 . S
C396 C397 1.327 . S
C397 H391 0.950 . S
C397 C396 1.327 . S
C397 C401 1.429 . S
C398 C381 1.574 . S
C398 H392 0.949 . S
C398 C402 1.368 . S
C399 C380 1.429 . S
C399 C393 1.429 . S
C399 C400 1.523 . S
C400 C381 1.368 1_455 S
C400 C394 1.368 . S
C400 C399 1.523 . S
C401 C385 1.429 . S
C401 C397 1.429 . S
C401 C402 1.523 . S
C402 C386 1.368 1_655 S
C402 C398 1.368 . S
C402 C401 1.523 . S
H403 C378 0.950 . S
H404 C380 0.950 . S
H405 C381 0.949 . S
H406 C383 0.950 . S
H407 C385 0.950 . S
C408 C409 1.349 . S
C408 C410 1.327 . S
C408 H433 0.950 . S
C409 C408 1.349 . S
C409 C425 1.349 . S
C410 C408 1.327 . S
C410 C429 1.429 . S
C410 H434 0.950 . S
C411 C428 1.574 . S
C411 C430 1.368 . S
C411 H435 0.949 . S
H412 C416 0.949 . S
C413 C414 1.349 . S
C413 C415 1.327 . S
C413 H436 0.950 . S
C414 C413 1.349 . S
C414 C426 1.349 . S
C415 C413 1.327 . S
C415 C431 1.429 . S
C415 H437 0.950 . S
C416 H412 0.949 . S
C416 C424 1.574 . S
C416 C432 1.368 . S
H417 C425 0.950 . S
H418 C423 0.950 . S
H419 C424 0.949 . S
H420 C426 0.950 . S
H421 C427 0.950 . S
H422 C428 0.949 . S
C423 H418 0.950 . S
C423 C425 1.327 . S
C423 C429 1.429 . S
C424 C416 1.574 . S
C424 H419 0.949 . S
C424 C430 1.368 1_565 S
C425 C409 1.349 . S
C425 H417 0.950 . S
C425 C423 1.327 . S
C426 C414 1.349 . S
C426 H420 0.950 . S
C426 C427 1.327 . S
C427 H421 0.950 . S
C427 C426 1.327 . S
C427 C431 1.429 . S
C428 C411 1.574 . S
C428 H422 0.949 . S
C428 C432 1.368 1_545 S
C429 C410 1.429 . S
C429 C423 1.429 . S
C429 C430 1.523 . S
C430 C411 1.368 . S
C430 C424 1.368 1_545 S
C430 C429 1.523 . S
C431 C415 1.429 . S
C431 C427 1.429 . S
C431 C432 1.523 . S
C432 C416 1.368 . S
C432 C428 1.368 1_565 S
C432 C431 1.523 . S
H433 C408 0.950 . S
H434 C410 0.950 . S
H435 C411 0.949 . S
H436 C413 0.950 . S
H437 C415 0.950 . S
C438 C439 1.349 . S
C438 C440 1.327 . S
C438 H463 0.950 . S
C439 C438 1.349 . S
C439 C455 1.349 . S
C440 C438 1.327 . S
C440 C459 1.429 . S
C440 H464 0.950 . S
C441 C458 1.574 . S
C441 C460 1.368 . S
C441 H465 0.949 . S
H442 C446 0.949 . S
C443 C444 1.349 . S
C443 C445 1.327 . S
C443 H466 0.950 . S
C444 C443 1.349 . S
C444 C456 1.349 . S
C445 C443 1.327 . S
C445 C461 1.429 . S
C445 H467 0.950 . S
C446 H442 0.949 . S
C446 C454 1.574 . S
C446 C462 1.368 . S
H447 C455 0.950 . S
H448 C453 0.950 . S
H449 C454 0.949 . S
H450 C456 0.950 . S
H451 C457 0.950 . S
H452 C458 0.949 . S
C453 H448 0.950 . S
C453 C455 1.327 . S
C453 C459 1.429 . S
C454 C446 1.574 . S
C454 H449 0.949 . S
C454 C460 1.368 . S
C455 C439 1.349 . S
C455 H447 0.950 . S
C455 C453 1.327 . S
C456 C444 1.349 . S
C456 H450 0.950 . S
C456 C457 1.327 . S
C457 H451 0.950 . S
C457 C456 1.327 . S
C457 C461 1.429 . S
C458 C441 1.574 . S
C458 H452 0.949 . S
C458 C462 1.368 . S
C459 C440 1.429 . S
C459 C453 1.429 . S
C459 C460 1.523 . S
C460 C441 1.368 . S
C460 C454 1.368 . S
C460 C459 1.523 . S
C461 C445 1.429 . S
C461 C457 1.429 . S
C461 C462 1.523 . S
C462 C446 1.368 . S
C462 C458 1.368 . S
C462 C461 1.523 . S
H463 C438 0.950 . S
H464 C440 0.950 . S
H465 C441 0.949 . S
H466 C443 0.950 . S
H467 C445 0.950 . S
C468 C469 1.349 . S
C468 C470 1.327 . S
C468 H493 0.950 . S
C469 C468 1.349 . S
C469 C485 1.349 . S
C470 C468 1.327 . S
C470 C489 1.429 . S
C470 H494 0.950 . S
C471 C488 1.574 . S
C471 C490 1.368 . S
C471 H495 0.949 . S
H472 C476 0.949 . S
C473 C474 1.349 . S
C473 C475 1.327 . S
C473 H496 0.950 . S
C474 C473 1.349 . S
C474 C486 1.349 . S
C475 C473 1.327 . S
C475 C491 1.429 . S
C475 H497 0.950 . S
C476 H472 0.949 . S
C476 C484 1.574 . S
C476 C492 1.368 . S
H477 C485 0.950 . S
H478 C483 0.950 . S
H479 C484 0.949 . S
H480 C486 0.950 . S
H481 C487 0.950 . S
H482 C488 0.949 . S
C483 H478 0.950 . S
C483 C485 1.327 . S
C483 C489 1.429 . S
C484 C476 1.574 . S
C484 H479 0.949 . S
C484 C490 1.368 1_455 S
C485 C469 1.349 . S
C485 H477 0.950 . S
C485 C483 1.327 . S
C486 C474 1.349 . S
C486 H480 0.950 . S
C486 C487 1.327 . S
C487 H481 0.950 . S
C487 C486 1.327 . S
C487 C491 1.429 . S
C488 C471 1.574 . S
C488 H482 0.949 . S
C488 C492 1.368 1_655 S
C489 C470 1.429 . S
C489 C483 1.429 . S
C489 C490 1.523 . S
C490 C471 1.368 . S
C490 C484 1.368 1_655 S
C490 C489 1.523 . S
C491 C475 1.429 . S
C491 C487 1.429 . S
C491 C492 1.523 . S
C492 C476 1.368 . S
C492 C488 1.368 1_455 S
C492 C491 1.523 . S
H493 C468 0.950 . S
H494 C470 0.950 . S
H495 C471 0.949 . S
H496 C473 0.950 . S
H497 C475 0.950 . S
C498 C499 1.349 . S
C498 C500 1.327 . S
C498 H523 0.950 . S
C499 C498 1.349 . S
C499 C515 1.349 . S
C500 C498 1.327 . S
C500 C519 1.429 . S
C500 H524 0.950 . S
C501 C518 1.574 . S
C501 C520 1.368 1_545 S
C501 H525 0.949 . S
H502 C506 0.949 . S
C503 C504 1.349 . S
C503 C505 1.327 . S
C503 H526 0.950 . S
C504 C503 1.349 . S
C504 C516 1.349 . S
C505 C503 1.327 . S
C505 C521 1.429 . S
C505 H527 0.950 . S
C506 H502 0.949 . S
C506 C514 1.574 . S
C506 C522 1.368 1_565 S
H507 C515 0.950 . S
H508 C513 0.950 . S
H509 C514 0.949 . S
H510 C516 0.950 . S
H511 C517 0.950 . S
H512 C518 0.949 . S
C513 H508 0.950 . S
C513 C515 1.327 . S
C513 C519 1.429 . S
C514 C506 1.574 . S
C514 H509 0.949 . S
C514 C520 1.368 . S
C515 C499 1.349 . S
C515 H507 0.950 . S
C515 C513 1.327 . S
C516 C504 1.349 . S
C516 H510 0.950 . S
C516 C517 1.327 . S
C517 H511 0.950 . S
C517 C516 1.327 . S
C517 C521 1.429 . S
C518 C501 1.574 . S
C518 H512 0.949 . S
C518 C522 1.368 . S
C519 C500 1.429 . S
C519 C513 1.429 . S
C519 C520 1.523 . S
C520 C501 1.368 1_565 S
C520 C514 1.368 . S
C520 C519 1.523 . S
C521 C505 1.429 . S
C521 C517 1.429 . S
C521 C522 1.523 . S
C522 C506 1.368 1_545 S
C522 C518 1.368 . S
C522 C521 1.523 . S
H523 C498 0.950 . S
H524 C500 0.950 . S
H525 C501 0.949 . S
H526 C503 0.950 . S
H527 C505 0.950 . S
C528 C529 1.349 . S
C528 C530 1.327 . S
C528 H553 0.950 . S
C529 C528 1.349 . S
C529 C545 1.349 . S
C530 C528 1.327 . S
C530 C549 1.429 . S
C530 H554 0.950 . S
C531 C548 1.574 . S
C531 C550 1.368 . S
C531 H555 0.949 . S
H532 C536 0.949 . S
C533 C534 1.349 . S
C533 C535 1.327 . S
C533 H556 0.950 . S
C534 C533 1.349 . S
C534 C546 1.349 . S
C535 C533 1.327 . S
C535 C551 1.429 . S
C535 H557 0.950 . S
C536 H532 0.949 . S
C536 C544 1.574 . S
C536 C552 1.368 . S
H537 C545 0.950 . S
H538 C543 0.950 . S
H539 C544 0.949 . S
H540 C546 0.950 . S
H541 C547 0.950 . S
H542 C548 0.949 . S
C543 H538 0.950 . S
C543 C545 1.327 . S
C543 C549 1.429 . S
C544 C536 1.574 . S
C544 H539 0.949 . S
C544 C550 1.368 . S
C545 C529 1.349 . S
C545 H537 0.950 . S
C545 C543 1.327 . S
C546 C534 1.349 . S
C546 H540 0.950 . S
C546 C547 1.327 . S
C547 H541 0.950 . S
C547 C546 1.327 . S
C547 C551 1.429 . S
C548 C531 1.574 . S
C548 H542 0.949 . S
C548 C552 1.368 . S
C549 C530 1.429 . S
C549 C543 1.429 . S
C549 C550 1.523 . S
C550 C531 1.368 . S
C550 C544 1.368 . S
C550 C549 1.523 . S
C551 C535 1.429 . S
C551 C547 1.429 . S
C551 C552 1.523 . S
C552 C536 1.368 . S
C552 C548 1.368 . S
C552 C551 1.523 . S
H553 C528 0.950 . S
H554 C530 0.950 . S
H555 C531 0.949 . S
H556 C533 0.950 . S
H557 C535 0.950 . S
C558 C559 1.349 . S
C558 C560 1.327 . S
C558 H583 0.950 1_455 S
C559 C558 1.349 . S
C559 C575 1.349 . S
C560 C558 1.327 . S
C560 C579 1.429 . S
C560 H584 0.950 . S
C561 C578 1.574 . S
C561 C580 1.368 . S
C561 H585 0.949 . S
H562 C566 0.949 . S
C563 C564 1.349 . S
C563 C565 1.327 . S
C563 H586 0.950 . S
C564 C563 1.349 . S
C564 C576 1.349 . S
C565 C563 1.327 . S
C565 C581 1.429 . S
C565 H587 0.950 . S
C566 H562 0.949 . S
C566 C574 1.574 . S
C566 C582 1.368 . S
H567 C575 0.950 . S
H568 C573 0.950 . S
H569 C574 0.949 . S
H570 C576 0.950 . S
H571 C577 0.950 . S
H572 C578 0.949 . S
C573 H568 0.950 . S
C573 C575 1.327 . S
C573 C579 1.429 . S
C574 C566 1.574 . S
C574 H569 0.949 . S
C574 C580 1.368 . S
C575 C559 1.349 . S
C575 H567 0.950 . S
C575 C573 1.327 . S
C576 C564 1.349 . S
C576 H570 0.950 . S
C576 C577 1.327 . S
C577 H571 0.950 . S
C577 C576 1.327 . S
C577 C581 1.429 . S
C578 C561 1.574 . S
C578 H572 0.949 . S
C578 C582 1.368 . S
C579 C560 1.429 . S
C579 C573 1.429 . S
C579 C580 1.523 . S
C580 C561 1.368 . S
C580 C574 1.368 . S
C580 C579 1.523 . S
C581 C565 1.429 . S
C581 C577 1.429 . S
C581 C582 1.523 . S
C582 C566 1.368 . S
C582 C578 1.368 . S
C582 C581 1.523 . S
H583 C558 0.950 1_655 S
H584 C560 0.950 . S
H585 C561 0.949 . S
H586 C563 0.950 . S
H587 C565 0.950 . S
C588 C589 1.349 . S
C588 C590 1.327 . S
C588 H613 0.935 1_655 S
C589 C588 1.349 . S
C589 C605 1.349 . S
C590 C588 1.327 . S
C590 C609 1.429 . S
C590 H614 0.950 . S
C591 C608 1.574 . S
C591 C610 1.368 . S
C591 H615 0.949 . S
H592 C596 0.949 . S
C593 C594 1.349 . S
C593 C595 1.327 . S
C593 H616 0.950 . S
C594 C593 1.349 . S
C594 C606 1.349 . S
C595 C593 1.327 . S
C595 C611 1.429 . S
C595 H617 0.950 . S
C596 H592 0.949 . S
C596 C604 1.574 . S
C596 C612 1.368 . S
H597 C605 0.950 . S
H598 C603 0.950 . S
H599 C604 0.949 . S
H600 C606 0.950 1_565 S
H601 C607 0.950 . S
H602 C608 0.949 . S
C603 H598 0.950 . S
C603 C605 1.327 . S
C603 C609 1.429 . S
C604 C596 1.574 . S
C604 H599 0.949 . S
C604 C610 1.368 . S
C605 C589 1.349 . S
C605 H597 0.950 . S
C605 C603 1.327 . S
C606 C594 1.349 . S
C606 H600 0.950 1_545 S
C606 C607 1.327 . S
C607 H601 0.950 . S
C607 C606 1.327 . S
C607 C611 1.429 . S
C608 C591 1.574 . S
C608 H602 0.949 . S
C608 C612 1.368 . S
C609 C590 1.429 . S
C609 C603 1.429 . S
C609 C610 1.523 . S
C610 C591 1.368 . S
C610 C604 1.368 . S
C610 C609 1.523 . S
C611 C595 1.429 . S
C611 C607 1.429 . S
C611 C612 1.523 . S
C612 C596 1.368 . S
C612 C608 1.368 . S
C612 C611 1.523 . S
H613 C588 0.935 1_455 S
H614 C590 0.950 . S
H615 C591 0.949 . S
H616 C593 0.950 . S
H617 C595 0.950 . S
C618 C619 1.349 . S
C618 C620 1.327 . S
C618 H643 0.950 1_565 S
C619 C618 1.349 . S
C619 C635 1.349 . S
C620 C618 1.327 . S
C620 C639 1.429 . S
C620 H644 0.950 . S
C621 C638 1.574 . S
C621 C640 1.368 . S
C621 H645 0.949 . S
H622 C626 0.949 . S
C623 C624 1.349 . S
C623 C625 1.327 . S
C623 H646 0.950 . S
C624 C623 1.349 . S
C624 C636 1.349 . S
C625 C623 1.327 . S
C625 C641 1.429 . S
C625 H647 0.950 . S
C626 H622 0.949 . S
C626 C634 1.574 . S
C626 C642 1.368 . S
H627 C635 0.950 . S
H628 C633 0.950 . S
H629 C634 0.949 . S
H630 C636 0.950 . S
H631 C637 0.950 . S
H632 C638 0.949 . S
C633 H628 0.950 . S
C633 C635 1.327 . S
C633 C639 1.429 . S
C634 C626 1.574 . S
C634 H629 0.949 . S
C634 C640 1.368 . S
C635 C619 1.349 . S
C635 H627 0.950 . S
C635 C633 1.327 . S
C636 C624 1.349 . S
C636 H630 0.950 . S
C636 C637 1.327 . S
C637 H631 0.950 . S
C637 C636 1.327 . S
C637 C641 1.429 . S
C638 C621 1.574 . S
C638 H632 0.949 . S
C638 C642 1.368 . S
C639 C620 1.429 . S
C639 C633 1.429 . S
C639 C640 1.523 . S
C640 C621 1.368 . S
C640 C634 1.368 . S
C640 C639 1.523 . S
C641 C625 1.429 . S
C641 C637 1.429 . S
C641 C642 1.523 . S
C642 C626 1.368 . S
C642 C638 1.368 . S
C642 C641 1.523 . S
H643 C618 0.950 1_545 S
H644 C620 0.950 . S
H645 C621 0.949 . S
H646 C623 0.950 . S
H647 C625 0.950 . S
C648 C649 1.349 . S
C648 C650 1.327 . S
C648 H673 0.950 . S
C649 C648 1.349 . S
C649 C665 1.349 . S
C650 C648 1.327 . S
C650 C669 1.429 . S
C650 H674 0.950 . S
C651 C668 1.574 . S
C651 C670 1.368 . S
C651 H675 0.949 . S
H652 C656 0.949 . S
C653 C654 1.349 . S
C653 C655 1.327 . S
C653 H676 0.950 1_655 S
C654 C653 1.349 . S
C654 C666 1.349 . S
C655 C653 1.327 . S
C655 C671 1.429 . S
C655 H677 0.950 . S
C656 H652 0.949 . S
C656 C664 1.574 . S
C656 C672 1.368 . S
H657 C665 0.950 . S
H658 C663 0.950 . S
H659 C664 0.949 . S
H660 C666 0.950 . S
H661 C667 0.950 . S
H662 C668 0.949 . S
C663 H658 0.950 . S
C663 C665 1.327 . S
C663 C669 1.429 . S
C664 C656 1.574 . S
C664 H659 0.949 . S
C664 C670 1.368 . S
C665 C649 1.349 . S
C665 H657 0.950 . S
C665 C663 1.327 . S
C666 C654 1.349 . S
C666 H660 0.950 . S
C666 C667 1.327 . S
C667 H661 0.950 . S
C667 C666 1.327 . S
C667 C671 1.429 . S
C668 C651 1.574 . S
C668 H662 0.949 . S
C668 C672 1.368 . S
C669 C650 1.429 . S
C669 C663 1.429 . S
C669 C670 1.523 . S
C670 C651 1.368 . S
C670 C664 1.368 . S
C670 C669 1.523 . S
C671 C655 1.429 . S
C671 C667 1.429 . S
C671 C672 1.523 . S
C672 C656 1.368 . S
C672 C668 1.368 . S
C672 C671 1.523 . S
H673 C648 0.950 . S
H674 C650 0.950 . S
H675 C651 0.949 . S
H676 C653 0.950 1_455 S
H677 C655 0.950 . S
C678 C679 1.349 . S
C678 C680 1.327 . S
C678 H703 0.950 . S
C679 C678 1.349 . S
C679 C695 1.349 . S
C680 C678 1.327 . S
C680 C699 1.429 . S
C680 H704 0.950 . S
C681 C698 1.574 . S
C681 C700 1.368 . S
C681 H705 0.949 . S
H682 C686 0.949 . S
C683 C684 1.349 . S
C683 C685 1.327 . S
C683 H706 0.950 . S
C684 C683 1.349 . S
C684 C696 1.349 . S
C685 C683 1.327 . S
C685 C701 1.429 . S
C685 H707 0.950 . S
C686 H682 0.949 . S
C686 C694 1.574 . S
C686 C702 1.368 . S
H687 C695 0.950 1_545 S
H688 C693 0.950 . S
H689 C694 0.949 . S
H690 C696 0.950 . S
H691 C697 0.950 . S
H692 C698 0.949 . S
C693 H688 0.950 . S
C693 C695 1.327 . S
C693 C699 1.429 . S
C694 C686 1.574 . S
C694 H689 0.949 . S
C694 C700 1.368 . S
C695 C679 1.349 . S
C695 H687 0.950 1_565 S
C695 C693 1.327 . S
C696 C684 1.349 . S
C696 H690 0.950 . S
C696 C697 1.327 . S
C697 H691 0.950 . S
C697 C696 1.327 . S
C697 C701 1.429 . S
C698 C681 1.574 . S
C698 H692 0.949 . S
C698 C702 1.368 . S
C699 C680 1.429 . S
C699 C693 1.429 . S
C699 C700 1.523 . S
C700 C681 1.368 . S
C700 C694 1.368 . S
C700 C699 1.523 . S
C701 C685 1.429 . S
C701 C697 1.429 . S
C701 C702 1.523 . S
C702 C686 1.368 . S
C702 C698 1.368 . S
C702 C701 1.523 . S
H703 C678 0.950 . S
H704 C680 0.950 . S
H705 C681 0.949 . S
H706 C683 0.950 . S
H707 C685 0.950 . S
C708 C709 1.349 . S
C708 C710 1.327 . S
C708 H733 0.950 . S
C709 C708 1.349 . S
C709 C725 1.349 . S
C710 C708 1.327 . S
C710 C729 1.429 . S
C710 H734 0.950 . S
C711 C728 1.574 . S
C711 C730 1.368 . S
C711 H735 0.949 . S
H712 C716 0.949 . S
C713 C714 1.349 . S
C713 C715 1.327 . S
C713 H736 0.950 . S
C714 C713 1.349 . S
C714 C726 1.349 . S
C715 C713 1.327 . S
C715 C731 1.429 . S
C715 H737 0.950 . S
C716 H712 0.949 . S
C716 C724 1.574 . S
C716 C732 1.368 . S
H717 C725 0.950 . S
H718 C723 0.950 . S
H719 C724 0.949 . S
H720 C726 0.950 . S
H721 C727 0.950 . S
H722 C728 0.949 . S
C723 H718 0.950 . S
C723 C725 1.327 . S
C723 C729 1.429 . S
C724 C716 1.574 . S
C724 H719 0.949 . S
C724 C730 1.368 . S
C725 C709 1.349 . S
C725 H717 0.950 . S
C725 C723 1.327 . S
C726 C714 1.349 . S
C726 H720 0.950 . S
C726 C727 1.327 . S
C727 H721 0.950 . S
C727 C726 1.327 . S
C727 C731 1.429 . S
C728 C711 1.574 . S
C728 H722 0.949 . S
C728 C732 1.368 . S
C729 C710 1.429 . S
C729 C723 1.429 . S
C729 C730 1.523 . S
C730 C711 1.368 . S
C730 C724 1.368 . S
C730 C729 1.523 . S
C731 C715 1.429 . S
C731 C727 1.429 . S
C731 C732 1.523 . S
C732 C716 1.368 . S
C732 C728 1.368 . S
C732 C731 1.523 . S
H733 C708 0.950 . S
H734 C710 0.950 . S
H735 C711 0.949 . S
H736 C713 0.950 . S
H737 C715 0.950 . S
C738 C739 1.349 . S
C738 C740 1.327 . S
C738 H763 0.950 . S
C739 C738 1.349 . S
C739 C755 1.349 . S
C740 C738 1.327 . S
C740 C759 1.429 . S
C740 H764 0.950 . S
C741 C758 1.573 1_655 S
C741 C760 1.368 . S
C741 H765 0.949 . S
H742 C746 0.949 . S
C743 C744 1.349 . S
C743 C745 1.327 . S
C743 H766 0.950 . S
C744 C743 1.349 . S
C744 C756 1.349 . S
C745 C743 1.327 . S
C745 C761 1.429 . S
C745 H767 0.950 . S
C746 H742 0.949 . S
C746 C754 1.573 1_455 S
C746 C762 1.368 . S
H747 C755 0.950 . S
H748 C753 0.950 . S
H749 C754 0.955 . S
H750 C756 0.950 . S
H751 C757 0.950 . S
H752 C758 0.955 . S
C753 H748 0.950 . S
C753 C755 1.327 . S
C753 C759 1.429 . S
C754 C746 1.573 1_655 S
C754 H749 0.955 . S
C754 C760 1.371 . S
C755 C739 1.349 . S
C755 H747 0.950 . S
C755 C753 1.327 . S
C756 C744 1.349 . S
C756 H750 0.950 . S
C756 C757 1.327 . S
C757 H751 0.950 . S
C757 C756 1.327 . S
C757 C761 1.429 . S
C758 C741 1.573 1_455 S
C758 H752 0.955 . S
C758 C762 1.371 . S
C759 C740 1.429 . S
C759 C753 1.429 . S
C759 C760 1.523 . S
C760 C741 1.368 . S
C760 C754 1.371 . S
C760 C759 1.523 . S
C761 C745 1.429 . S
C761 C757 1.429 . S
C761 C762 1.523 . S
C762 C746 1.368 . S
C762 C758 1.371 . S
C762 C761 1.523 . S
H763 C738 0.950 . S
H764 C740 0.950 . S
H765 C741 0.949 . S
H766 C743 0.950 . S
H767 C745 0.950 . S
C768 C769 1.349 . S
C768 C770 1.327 . S
C768 H793 0.950 . S
C769 C768 1.349 . S
C769 C785 1.349 . S
C770 C768 1.327 . S
C770 C789 1.429 . S
C770 H794 0.950 1_545 S
C771 C788 1.574 1_554 S
C771 C790 1.368 . S
C771 H795 0.949 . S
H772 C776 0.949 . S
C773 C774 1.349 . S
C773 C775 1.327 . S
C773 H796 0.950 . S
C774 C773 1.349 . S
C774 C786 1.349 . S
C775 C773 1.327 . S
C775 C791 1.429 . S
C775 H797 0.950 1_565 S
C776 H772 0.949 . S
C776 C784 1.574 1_556 S
C776 C792 1.368 . S
H777 C785 0.950 . S
H778 C783 0.950 . S
H779 C784 0.949 . S
H780 C786 0.950 . S
H781 C787 0.950 . S
H782 C788 0.949 . S
C783 H778 0.950 . S
C783 C785 1.327 . S
C783 C789 1.429 . S
C784 C776 1.574 1_554 S
C784 H779 0.949 . S
C784 C790 1.368 1_565 S
C785 C769 1.349 . S
C785 H777 0.950 . S
C785 C783 1.327 . S
C786 C774 1.349 . S
C786 H780 0.950 . S
C786 C787 1.327 . S
C787 H781 0.950 . S
C787 C786 1.327 . S
C787 C791 1.429 . S
C788 C771 1.574 1_556 S
C788 H782 0.949 . S
C788 C792 1.368 1_545 S
C789 C770 1.429 . S
C789 C783 1.429 . S
C789 C790 1.523 . S
C790 C771 1.368 . S
C790 C784 1.368 1_545 S
C790 C789 1.523 . S
C791 C775 1.429 . S
C791 C787 1.429 . S
C791 C792 1.523 . S
C792 C776 1.368 . S
C792 C788 1.368 1_565 S
C792 C791 1.523 . S
H793 C768 0.950 . S
H794 C770 0.950 1_565 S
H795 C771 0.949 . S
H796 C773 0.950 . S
H797 C775 0.950 1_545 S
C798 C799 1.349 . S
C798 C800 1.327 . S
C798 H823 0.950 . S
C799 C798 1.349 . S
C799 C815 1.349 . S
C800 C798 1.327 . S
C800 C819 1.429 . S
C800 H824 0.950 . S
C801 C818 1.574 . S
C801 C820 1.368 . S
C801 H825 0.949 . S
H802 C806 0.949 . S
C803 C804 1.349 . S
C803 C805 1.327 . S
C803 H826 0.950 . S
C804 C803 1.349 . S
C804 C816 1.349 . S
C805 C803 1.327 . S
C805 C821 1.429 . S
C805 H827 0.950 . S
C806 H802 0.949 . S
C806 C814 1.574 . S
C806 C822 1.368 . S
H807 C815 0.950 . S
H808 C813 0.950 . S
H809 C814 0.949 . S
H810 C816 0.950 . S
H811 C817 0.950 . S
H812 C818 0.949 . S
C813 H808 0.950 . S
C813 C815 1.327 . S
C813 C819 1.429 . S
C814 C806 1.574 . S
C814 H809 0.949 . S
C814 C820 1.368 . S
C815 C799 1.349 . S
C815 H807 0.950 . S
C815 C813 1.327 . S
C816 C804 1.349 . S
C816 H810 0.950 . S
C816 C817 1.327 . S
C817 H811 0.950 . S
C817 C816 1.327 . S
C817 C821 1.429 . S
C818 C801 1.574 . S
C818 H812 0.949 . S
C818 C822 1.368 . S
C819 C800 1.429 . S
C819 C813 1.429 . S
C819 C820 1.523 . S
C820 C801 1.368 . S
C820 C814 1.368 . S
C820 C819 1.523 . S
C821 C805 1.429 . S
C821 C817 1.429 . S
C821 C822 1.523 . S
C822 C806 1.368 . S
C822 C818 1.368 . S
C822 C821 1.523 . S
H823 C798 0.950 . S
H824 C800 0.950 . S
H825 C801 0.949 . S
H826 C803 0.950 . S
H827 C805 0.950 . S
C828 C829 1.349 . S
C828 C830 1.327 . S
C828 H853 0.950 . S
C829 C828 1.349 . S
C829 C845 1.349 . S
C830 C828 1.327 . S
C830 C849 1.429 . S
C830 H854 0.950 . S
C831 C848 1.574 1_455 S
C831 C850 1.368 . S
C831 H855 0.949 . S
H832 C836 0.949 . S
C833 C834 1.349 . S
C833 C835 1.327 . S
C833 H856 0.950 . S
C834 C833 1.349 . S
C834 C846 1.349 . S
C835 C833 1.327 . S
C835 C851 1.429 . S
C835 H857 0.950 . S
C836 H832 0.949 . S
C836 C844 1.574 1_655 S
C836 C852 1.368 . S
H837 C845 0.950 . S
H838 C843 0.950 . S
H839 C844 0.949 . S
H840 C846 0.950 . S
H841 C847 0.950 . S
H842 C848 0.949 . S
C843 H838 0.950 . S
C843 C845 1.327 . S
C843 C849 1.429 . S
C844 C836 1.574 1_455 S
C844 H839 0.949 . S
C844 C850 1.368 . S
C845 C829 1.349 . S
C845 H837 0.950 . S
C845 C843 1.327 . S
C846 C834 1.349 . S
C846 H840 0.950 . S
C846 C847 1.327 . S
C847 H841 0.950 . S
C847 C846 1.327 . S
C847 C851 1.429 . S
C848 C831 1.574 1_655 S
C848 H842 0.949 . S
C848 C852 1.368 . S
C849 C830 1.429 . S
C849 C843 1.429 . S
C849 C850 1.523 . S
C850 C831 1.368 . S
C850 C844 1.368 . S
C850 C849 1.523 . S
C851 C835 1.429 . S
C851 C847 1.429 . S
C851 C852 1.523 . S
C852 C836 1.368 . S
C852 C848 1.368 . S
C852 C851 1.523 . S
H853 C828 0.950 . S
H854 C830 0.950 . S
H855 C831 0.949 . S
H856 C833 0.950 . S
H857 C835 0.950 . S
C858 C859 1.349 . S
C858 C860 1.327 1_565 S
C858 H883 0.950 1_565 S
C859 C858 1.349 . S
C859 C875 1.349 . S
C860 C858 1.327 1_545 S
C860 C879 1.429 1_545 S
C860 H884 0.950 . S
C861 C878 1.574 1_554 S
C861 C880 1.368 . S
C861 H885 0.949 . S
H862 C866 0.949 . S
C863 C864 1.349 . S
C863 C865 1.327 1_545 S
C863 H886 0.950 1_545 S
C864 C863 1.349 . S
C864 C876 1.349 . S
C865 C863 1.327 1_565 S
C865 C881 1.429 1_565 S
C865 H887 0.950 . S
C866 H862 0.949 . S
C866 C874 1.574 1_556 S
C866 C882 1.368 . S
H867 C875 0.950 . S
H868 C873 0.950 . S
H869 C874 0.949 . S
H870 C876 0.950 . S
H871 C877 0.950 . S
H872 C878 0.949 . S
C873 H868 0.950 . S
C873 C875 1.327 . S
C873 C879 1.429 . S
C874 C866 1.574 1_554 S
C874 H869 0.949 . S
C874 C880 1.368 1_545 S
C875 C859 1.349 . S
C875 H867 0.950 . S
C875 C873 1.327 . S
C876 C864 1.349 . S
C876 H870 0.950 . S
C876 C877 1.327 . S
C877 H871 0.950 . S
C877 C876 1.327 . S
C877 C881 1.429 . S
C878 C861 1.574 1_556 S
C878 H872 0.949 . S
C878 C882 1.368 1_565 S
C879 C860 1.429 1_565 S
C879 C873 1.429 . S
C879 C880 1.523 . S
C880 C861 1.368 . S
C880 C874 1.368 1_565 S
C880 C879 1.523 . S
C881 C865 1.429 1_545 S
C881 C877 1.429 . S
C881 C882 1.523 . S
C882 C866 1.368 . S
C882 C878 1.368 1_545 S
C882 C881 1.523 . S
H883 C858 0.950 1_545 S
H884 C860 0.950 . S
H885 C861 0.949 . S
H886 C863 0.950 1_565 S
H887 C865 0.950 . S
C169 C159 1.219 . S
C174 C5 1.219 . S
C199 C19 1.219 . S
C204 C89 1.219 . S
C229 C33 1.219 . S
C234 C103 1.219 . S
C259 C47 1.219 . S
C264 C117 1.219 . S
C289 C131 1.219 . S
C294 C61 1.219 . S
C319 C75 1.219 . S
C324 C145 1.219 . S
C349 C54 0.938 . S
C354 C12 0.938 . S
C379 C68 0.938 . S
C384 C26 0.938 . S
C409 C82 0.938 . S
C414 C40 0.938 . S
C439 C96 0.938 . S
C444 C138 0.938 . S
C469 C110 0.938 . S
C474 C152 0.938 . S
C499 C124 0.938 . S
C504 C166 0.938 . S
C529 C116 0.516 . S
C534 C4 0.516 . S
C559 C18 0.516 . S
C564 C130 0.516 . S
C589 C144 0.516 . S
C594 C32 0.516 . S
C619 C158 0.515 . S
C624 C46 0.515 . S
C649 C88 0.516 . S
C654 C60 0.516 . S
C679 C74 0.516 . S
C684 C102 0.516 . S
C709 C137 1.537 . S
C714 C11 1.537 . S
C739 C25 1.537 . S
C744 C151 1.537 . S
C769 C165 1.537 . S
C774 C39 1.537 . S
C799 C53 1.538 . S
C804 C95 1.538 . S
C829 C67 1.537 . S
C834 C109 1.537 . S
C859 C123 1.537 . S
C864 C81 1.537 . S
