# Generated by pormake.
# Topology nbo, (4)-cn, num edge types: 1
# Building blocks:
#     Node 0, Type 0, BuildingBlock: KOZSID_clean_sbu_0, # of connection points: 4
#     Node 1, Type 0, BuildingBlock: KOZSID_clean_sbu_0, # of connection points: 4
#     Node 2, Type 0, BuildingBlock: KOZSID_clean_sbu_0, # of connection points: 4
#     Node 3, Type 0, BuildingBlock: KOZSID_clean_sbu_0, # of connection points: 4
#     Node 4, Type 0, BuildingBlock: KOZSID_clean_sbu_0, # of connection points: 4
#     Node 5, Type 0, BuildingBlock: KOZSID_clean_sbu_0, # of connection points: 4
#     Edge 6, Type (0, 0), BuildingBlock: UVAHIK_clean_linker_0, # of connection points: 2
#     Edge 7, Type (0, 0), BuildingBlock: UVAHIK_clean_linker_0, # of connection points: 2
#     Edge 8, Type (0, 0), BuildingBlock: UVAHIK_clean_linker_0, # of connection points: 2
#     Edge 9, Type (0, 0), BuildingBlock: UVAHIK_clean_linker_0, # of connection points: 2
#     Edge 10, Type (0, 0), BuildingBlock: UVAHIK_clean_linker_0, # of connection points: 2
#     Edge 11, Type (0, 0), BuildingBlock: UVAHIK_clean_linker_0, # of connection points: 2
#     Edge 12, Type (0, 0), BuildingBlock: UVAHIK_clean_linker_0, # of connection points: 2
#     Edge 13, Type (0, 0), BuildingBlock: UVAHIK_clean_linker_0, # of connection points: 2
#     Edge 14, Type (0, 0), BuildingBlock: UVAHIK_clean_linker_0, # of connection points: 2
#     Edge 15, Type (0, 0), BuildingBlock: UVAHIK_clean_linker_0, # of connection points: 2
#     Edge 16, Type (0, 0), BuildingBlock: UVAHIK_clean_linker_0, # of connection points: 2
#     Edge 17, Type (0, 0), BuildingBlock: UVAHIK_clean_linker_0, # of connection points: 2
# Relax obj value: 0.000
# Max RMSD: 0.000
# Mean RMSD: 0.000
data_MOF--net-nbo--node1-KOZSID_clean_sbu_0--edge1-UVAHIK_clean_linker_0
_symmetry_space_group_name_H-M    P1
_symmetry_Int_Tables_number       1
_symmetry_cell_setting            triclinic
loop_
_symmetry_equiv_pos_as_xyz
'x, y, z'
_cell_length_a     42.301162
_cell_length_b     48.184702
_cell_length_c     45.347521
_cell_angle_alpha  106.87913
_cell_angle_beta   107.44785
_cell_angle_gamma 107.18751
loop_
_atom_site_label
_atom_site_type_symbol
_atom_site_fract_x
_atom_site_fract_y
_atom_site_fract_z
_atom_type_partial_charge
C0 C 0.91635 0.97953 0.47209 0.0
C1 C 0.88541 0.96203 0.4415 0.0
C2 C 0.89727 0.95637 0.41645 0.0
C3 C 0.93458 0.97047 0.43311 0.0
N4 N 0.94732 0.98446 0.46736 0.0
Co5 Co -0.00038 0.00741 0.50147 0.0
N6 N 0.01703 1.00109 0.46449 0.0
C7 C 0.99635 0.987 0.43053 0.0
C8 C 0.0162 0.98594 0.41158 0.0
C9 C 0.05169 0.99979 0.4348 0.0
C10 C 0.05132 0.00839 0.46664 0.0
N11 N 0.05199 0.03006 0.53558 0.0
C12 C 0.08288 0.03421 0.53081 0.0
C13 C 0.11382 0.05022 0.56143 0.0
C14 C 0.10204 0.05612 0.58651 0.0
C15 C 0.06477 0.04336 0.56985 0.0
N16 N 0.98215 0.01401 0.53846 0.0
C17 C 0.003 0.02903 0.57242 0.0
C18 C 0.9834 0.03132 0.59145 0.0
C19 C 0.94788 0.01729 0.56835 0.0
C20 C 0.94785 0.00696 0.53635 0.0
N21 N -0.00065 0.96625 0.50217 0.0
C22 C -0.00038 0.90791 0.50309 0.0
C23 C 0.01251 0.93481 0.53327 0.0
C24 C 0.01226 0.96346 0.53224 0.0
C25 C 0.98667 0.91085 0.47245 0.0
C26 C 0.98668 0.93988 0.47258 0.0
N27 N -0.00013 0.04857 0.50075 0.0
C28 C 0.01491 0.10458 0.53038 0.0
C29 C -0.00051 0.10687 0.49974 0.0
C30 C 0.98423 0.07933 0.46962 0.0
C31 C 0.98457 0.05073 0.47071 0.0
C32 C 0.01493 0.07556 0.53029 0.0
H33 H 0.97222 0.03068 0.44688 0.0
H34 H 0.02711 0.07555 0.55448 0.0
H35 H 0.02268 0.98302 0.55614 0.0
H36 H 0.97649 0.94042 0.44836 0.0
C37 C 0.9583 0.97273 0.41724 0.0
C38 C 0.91486 0.99218 0.50475 0.0
C39 C 0.08404 0.0218 0.49802 0.0
C40 C 0.04103 0.04218 0.58564 0.0
H41 H 0.85718 0.95473 0.43769 0.0
H42 H 0.88069 0.94414 0.3893 0.0
H43 H 0.00601 0.97543 0.38417 0.0
H44 H 0.07517 1.00253 0.42901 0.0
H45 H 0.14194 0.05634 0.56526 0.0
H46 H 0.11859 0.06759 0.61367 0.0
H47 H 0.99376 0.04267 0.61885 0.0
H48 H 0.92483 0.01567 0.57457 0.0
H49 H 0.02243 0.93379 0.55773 0.0
H50 H 0.97695 0.89097 0.44832 0.0
H51 H 0.02657 0.12499 0.55451 0.0
H52 H 0.97235 0.07979 0.44513 0.0
C53 C 0.53725 0.03148 0.07734 0.0
C54 C 0.57159 0.04536 0.10416 0.0
C55 C 0.5964 0.05081 0.09071 0.0
C56 C 0.57599 0.03979 0.05657 0.0
N57 N 0.53955 0.02791 0.04734 0.0
Co58 Co 0.49995 0.00723 -8e-05 0.0
N59 N 0.53662 0.01286 0.97994 0.0
C60 C 0.57342 0.02629 0.99701 0.0
C61 C 0.59145 0.02781 0.97658 0.0
C62 C 0.56462 0.01491 0.94451 0.0
C63 C 0.53163 0.00613 0.94727 0.0
N64 N 0.46034 0.98641 0.95253 0.0
C65 C 0.46265 0.98212 0.92249 0.0
C66 C 0.42841 0.96678 0.89538 0.0
C67 C 0.40352 0.96168 0.90882 0.0
C68 C 0.42389 0.97402 0.94318 0.0
N69 N 0.46328 1.00174 0.01984 0.0
C70 C 0.42651 0.989 0.00283 0.0
C71 C 0.40853 0.9886 0.02339 0.0
C72 C 0.43534 1.0014 0.05545 0.0
C73 C 0.46826 0.00865 0.05252 0.0
N74 N 0.50097 0.04961 0.00307 0.0
C75 C 0.50221 0.10911 0.00527 0.0
C76 C 0.46931 0.08291 0.99381 0.0
C77 C 0.46929 0.0536 0.99271 0.0
C78 C 0.53452 0.10515 0.01593 0.0
C79 C 0.53331 0.07555 0.01492 0.0
N80 N 0.49893 0.96487 0.99678 0.0
C81 C 0.4656 0.90968 0.98524 0.0
C82 C 0.49789 0.90548 0.99523 0.0
C83 C 0.53063 0.93151 0.00547 0.0
C84 C 0.53053 0.96067 0.00615 0.0
C85 C 0.46672 0.93921 0.98604 0.0
H86 H 0.55644 0.9795 0.01457 0.0
H87 H 0.44118 0.94076 0.97821 0.0
H88 H 0.44325 0.03448 0.98303 0.0
H89 H 0.5589 0.07424 0.02372 0.0
C90 C 0.59023 0.03843 0.03239 0.0
C91 C 0.50329 0.02071 0.08132 0.0
C92 C 0.49643 0.99297 0.91841 0.0
C93 C 0.40961 0.97611 0.96738 0.0
H94 H 0.57822 0.05034 0.13064 0.0
H95 H 0.62581 0.06069 0.10408 0.0
H96 H 0.62063 0.03779 0.9842 0.0
H97 H 0.56894 0.01283 0.92177 0.0
H98 H 0.42213 0.96045 0.86871 0.0
H99 H 0.37409 0.95095 0.89524 0.0
H100 H 0.37936 0.97943 0.01588 0.0
H101 H 0.43109 1.00445 0.07836 0.0
H102 H 0.44354 0.08478 0.98501 0.0
H103 H 0.56072 0.12492 0.02538 0.0
H104 H 0.43948 0.89049 0.97743 0.0
H105 H 0.5564 0.92949 0.01282 0.0
C106 C 0.08172 0.53458 0.03089 0.0
C107 C 0.11219 0.56356 0.05021 0.0
C108 C 0.09959 0.58667 0.05615 0.0
C109 C 0.06233 0.57053 0.04039 0.0
N110 N 0.05031 0.53843 0.02504 0.0
Co111 Co 0.99832 0.50578 0.99949 0.0
N112 N 0.97985 0.53994 0.00636 0.0
C113 C -4e-05 0.57194 0.02214 0.0
C114 C 0.97948 0.58927 0.023 0.0
C115 C 0.94416 0.56704 0.00716 0.0
C116 C 0.94523 0.53735 0.99765 0.0
N117 N 0.94625 0.47312 0.97422 0.0
C118 C 0.91488 0.47699 0.96894 0.0
C119 C 0.88439 0.44793 0.95107 0.0
C120 C 0.89695 0.4248 0.94507 0.0
C121 C 0.93419 0.44099 0.95962 0.0
N122 N 0.01684 0.47162 0.99232 0.0
C123 C 0.99662 0.43966 0.97565 0.0
C124 C 0.01692 0.4223 0.97351 0.0
C125 C 0.05224 0.44444 0.98944 0.0
C126 C 0.05147 0.47421 0.00065 0.0
N127 N 0.9979 0.50389 0.04257 0.0
C128 C 0.99693 0.50128 0.10367 0.0
C129 C 0.9842 0.47337 0.07463 0.0
C130 C 0.98487 0.4752 0.04462 0.0
C131 C 0.0101 0.53052 0.10155 0.0
C132 C 0.01034 0.53127 0.07107 0.0
N133 N -0.00127 0.50768 0.9564 0.0
C134 C 0.98417 0.48113 0.89677 0.0
C135 C -0.0003 0.51035 0.89532 0.0
C136 C 0.0148 0.53821 0.92501 0.0
C137 C 0.0141 0.53634 0.95499 0.0
C138 C 0.98395 0.48035 0.92725 0.0
H139 H 0.02634 0.55842 0.97672 0.0
H140 H 0.97165 0.45734 0.92655 0.0
H141 H 0.97452 0.45306 0.0234 0.0
H142 H 0.02074 0.5543 0.07123 0.0
C143 C 0.03802 0.58493 0.03791 0.0
C144 C 0.08411 0.50425 0.01755 0.0
C145 C 0.91274 0.50746 0.9818 0.0
C146 C 0.95855 0.42668 0.961 0.0
H147 H 0.14061 0.56761 0.05858 0.0
H148 H 0.11566 0.61223 0.06969 0.0
H149 H 0.98911 0.61498 0.03456 0.0
H150 H 0.9203 0.57205 0.00361 0.0
H151 H 0.85604 0.44384 0.9437 0.0
H152 H 0.88089 0.39921 0.93226 0.0
H153 H 0.00714 0.39662 0.9611 0.0
H154 H 0.07576 0.43913 0.99177 0.0
H155 H 0.97324 0.4501 0.07483 0.0
H156 H 0.02067 0.55286 0.12345 0.0
H157 H 0.97175 0.45887 0.87434 0.0
H158 H 0.02762 0.56142 0.92532 0.0
C159 C 0.55048 0.50894 0.96539 0.0
C160 C 0.55021 0.50058 0.9333 0.0
C161 C 0.51449 0.48628 0.91053 0.0
C162 C 0.49515 0.48688 0.92996 0.0
N163 N 0.51636 0.50102 0.96381 0.0
Co164 Co 0.49975 0.50722 0.00135 0.0
N165 N 0.44724 0.48371 0.96787 0.0
C166 C 0.43401 0.46901 0.93363 0.0
C167 C 0.39667 0.4544 0.91748 0.0
C168 C 0.3853 0.46042 0.94286 0.0
C169 C 0.41655 0.47864 0.97312 0.0
N170 N 0.48306 0.51415 0.03887 0.0
C171 C 0.44895 0.50722 0.03726 0.0
C172 C 0.44955 0.51808 0.06945 0.0
C173 C 0.48525 0.53236 0.09217 0.0
C174 C 0.50438 0.5297 0.07271 0.0
N175 N 0.55236 0.53006 0.03484 0.0
C176 C 0.56564 0.54304 0.06914 0.0
C177 C 0.60294 0.55582 0.08534 0.0
C178 C 0.61424 0.55027 0.05989 0.0
C179 C 0.58299 0.53445 0.02953 0.0
N180 N 0.49931 0.54814 0.00043 0.0
C181 C 0.49822 0.60621 0.99919 0.0
C182 C 0.51556 0.60448 0.02973 0.0
C183 C 0.51588 0.57556 0.02975 0.0
C184 C 0.48135 0.57821 0.96929 0.0
C185 C 0.48209 0.54972 0.9705 0.0
N186 N 0.50019 0.46624 0.00223 0.0
C187 C 0.51215 0.43458 0.03346 0.0
C188 C 0.50147 0.40832 0.00347 0.0
C189 C 0.49017 0.41151 0.97287 0.0
C190 C 0.48948 0.44032 0.97279 0.0
C191 C 0.5116 0.46313 0.0323 0.0
H192 H 0.48018 0.44098 0.94856 0.0
H193 H 0.52073 0.48237 0.05611 0.0
H194 H 0.52957 0.57598 0.05386 0.0
H195 H 0.46849 0.52928 0.94685 0.0
C196 C 0.4572 0.47176 0.91725 0.0
C197 C 0.58366 0.52265 0.99642 0.0
C198 C 0.41559 0.49188 0.00593 0.0
C199 C 0.54236 0.54236 0.08541 0.0
H200 H 0.57342 0.50374 0.92705 0.0
H201 H 0.50384 0.47573 0.88308 0.0
H202 H 0.37972 0.44175 0.89041 0.0
H203 H 0.3572 0.45293 0.93946 0.0
H204 H 0.42672 0.51654 0.076 0.0
H205 H 0.49603 0.54399 0.11958 0.0
H206 H 0.61987 0.56728 0.11243 0.0
H207 H 0.64226 0.55661 0.0633 0.0
H208 H 0.52851 0.62525 0.05374 0.0
H209 H 0.46793 0.5782 0.94485 0.0
H210 H 0.52151 0.43332 0.05784 0.0
H211 H 0.48133 0.39168 0.94894 0.0
C212 C 0.03415 0.53135 0.57753 0.0
C213 C 0.0679 0.54674 0.60529 0.0
C214 C 0.09359 0.55266 0.59284 0.0
C215 C 0.07415 0.54069 0.55837 0.0
N216 N 0.03754 0.52782 0.54802 0.0
Co217 Co -0.00094 0.50691 0.50008 0.0
N218 N 0.03694 0.51371 0.48156 0.0
C219 C 0.07364 0.52776 0.49956 0.0
C220 C 0.09261 0.53007 0.47999 0.0
C221 C 0.06653 0.51705 0.44753 0.0
C222 C 0.03299 0.5074 0.44919 0.0
N223 N 0.96058 0.48586 0.45214 0.0
C224 C 0.96395 0.48211 0.4226 0.0
C225 C 0.9302 0.4663 0.39481 0.0
C226 C 0.90453 0.46035 0.40728 0.0
C227 C 0.92397 0.47268 0.44178 0.0
N228 N 0.96118 0.50026 0.51862 0.0
C229 C 0.92449 0.48651 0.50065 0.0
C230 C 0.90552 0.48452 0.52026 0.0
C231 C 0.9316 0.49744 0.55272 0.0
C232 C 0.96512 0.50669 0.55099 0.0
N233 N -0.00085 0.54894 0.50297 0.0
C234 C -0.00085 0.60805 0.50466 0.0
C235 C 0.96649 0.58111 0.492 0.0
C236 C 0.96711 0.5521 0.49133 0.0
C237 C 0.03182 0.60487 0.51685 0.0
C238 C 0.0312 0.57545 0.51591 0.0
N239 N -0.00103 0.46488 0.49721 0.0
C240 C 0.96642 0.40928 0.48465 0.0
C241 C -0.00091 0.40587 0.49582 0.0
C242 C 0.03166 0.43252 0.50725 0.0
C243 C 0.03098 0.46149 0.50782 0.0
C244 C 0.96698 0.43863 0.48539 0.0
H245 H 0.05677 0.48083 0.51715 0.0
H246 H 0.94116 0.43953 0.47661 0.0
H247 H 0.94128 0.53254 0.48109 0.0
H248 H 0.05703 0.57473 0.52549 0.0
C249 C 0.08948 0.53994 0.535 0.0
C250 C -0.00021 0.5198 0.58049 0.0
C251 C 0.99827 0.49388 0.41962 0.0
C252 C 0.90864 0.47387 0.46518 0.0
H253 H 0.07334 0.55263 0.63176 0.0
H254 H 0.12294 0.56379 0.60714 0.0
H255 H 0.12191 0.54069 0.48842 0.0
H256 H 0.07171 0.51552 0.42528 0.0
H257 H 0.92472 0.46018 0.36831 0.0
H258 H 0.87517 0.44902 0.39297 0.0
H259 H 0.87622 0.47406 0.51186 0.0
H260 H 0.92645 0.49913 0.57501 0.0
H261 H 0.94039 0.58233 0.4828 0.0
H262 H 0.05792 0.62482 0.52655 0.0
H263 H 0.9404 0.38958 0.47592 0.0
H264 H 0.05773 0.43112 0.51561 0.0
C265 C 0.58143 0.03663 0.53044 0.0
C266 C 0.61102 0.06629 0.54828 0.0
C267 C 0.59711 0.08856 0.55303 0.0
C268 C 0.56002 0.0713 0.53801 0.0
N269 N 0.54934 0.03929 0.52441 0.0
Co270 Co 0.49803 0.00534 0.49921 0.0
N271 N 0.4776 0.03818 0.50575 0.0
C272 C 0.49652 0.0703 0.5222 0.0
C273 C 0.47492 0.08651 0.52361 0.0
C274 C 0.44009 0.06336 0.50766 0.0
C275 C 0.44258 0.03428 0.49744 0.0
N276 N 0.44669 0.97145 0.47311 0.0
C277 C 0.41459 0.97407 0.46719 0.0
C278 C 0.38497 0.94453 0.44802 0.0
C279 C 0.39887 0.92237 0.44184 0.0
C280 C 0.436 0.93958 0.45753 0.0
N281 N 0.51846 0.97244 0.49369 0.0
C282 C 0.49937 0.9403 0.47826 0.0
C283 C 0.52082 0.9239 0.47792 0.0
C284 C 0.55572 0.94687 0.49388 0.0
C285 C 0.55355 0.97616 0.50321 0.0
N286 N 0.49759 1.00346 0.54224 0.0
C287 C 0.49622 1.00078 0.60314 0.0
C288 C 0.48092 0.97293 0.5734 0.0
C289 C 0.48183 0.97481 0.54349 0.0
C290 C 0.5122 0.02999 0.60185 0.0
C291 C 0.51262 0.03078 0.57143 0.0
N292 N 0.49847 0.0072 0.45608 0.0
C293 C 0.49146 0.98113 0.3987 0.0
C294 C 0.4998 0.0099 0.395 0.0
C295 C 0.5075 0.0373 0.42258 0.0
C296 C 0.50703 0.03548 0.45264 0.0
C297 C 0.49062 0.98028 0.42898 0.0
H298 H 0.51372 0.05735 0.4727 0.0
H299 H 0.48372 0.95753 0.42981 0.0
H300 H 0.46942 0.95274 0.52166 0.0
H301 H 0.52524 0.05378 0.57217 0.0
C302 C 0.53459 0.08446 0.53643 0.0
C303 C 0.58528 0.00676 0.51894 0.0
C304 C 0.41101 1.00367 0.48105 0.0
C305 C 0.46136 0.92633 0.46126 0.0
H306 H 0.6397 0.0713 0.55663 0.0
H307 H 0.61222 0.11427 0.56567 0.0
H308 H 0.4835 0.11208 0.53534 0.0
H309 H 0.41562 0.06734 0.50435 0.0
H310 H 0.35631 0.93943 0.44014 0.0
H311 H 0.38375 0.89668 0.42866 0.0
H312 H 0.51208 0.8983 0.46627 0.0
H313 H 0.57984 0.94237 0.4972 0.0
H314 H 0.46777 0.94974 0.57299 0.0
H315 H 0.52479 0.05222 0.62433 0.0
H316 H 0.48596 0.95923 0.37851 0.0
H317 H 0.51356 0.06016 0.42107 0.0
C318 C 0.02906 0.16692 0.5227 0.0
C319 C -0.00068 0.13764 0.49922 0.0
C320 C 0.02885 0.19578 0.52231 0.0
C321 C 0.98778 0.22998 0.46693 0.0
H322 H 0.01807 0.30158 0.55159 0.0
C323 C 0.97166 0.34566 0.46985 0.0
C324 C -0.00079 0.37496 0.4959 0.0
C325 C 0.97156 0.3167 0.4702 0.0
C326 C 0.01002 0.28201 0.52774 0.0
H327 H 0.94577 0.1161 0.45718 0.0
H328 H 0.94585 0.16642 0.45614 0.0
H329 H 0.01843 0.25129 0.5523 0.0
H330 H 0.04816 0.39648 0.54294 0.0
H331 H 0.04877 0.34617 0.54283 0.0
H332 H 0.97992 0.26071 0.44233 0.0
C333 C 0.96941 0.16692 0.47469 0.0
C334 C 0.01013 0.25314 0.52817 0.0
C335 C 0.96945 0.13806 0.47526 0.0
C336 C 0.02676 0.37447 0.52219 0.0
C337 C 0.0268 0.34552 0.52241 0.0
C338 C 0.98795 0.25893 0.4665 0.0
C339 C -0.00093 0.1961 0.49826 0.0
C340 C -0.00103 0.22679 0.49777 0.0
C341 C -0.00086 0.31623 0.49648 0.0
C342 C -0.00097 0.28535 0.4969 0.0
H343 H 0.05283 0.16759 0.54113 0.0
H344 H 0.05233 0.21786 0.54051 0.0
H345 H 0.97947 0.21021 0.44312 0.0
H346 H 0.95023 0.34502 0.44895 0.0
H347 H 0.94955 0.29467 0.45001 0.0
C348 C 0.86176 0.97496 0.51931 0.0
C349 C 0.88037 0.99294 0.50553 0.0
C350 C 0.83005 0.97684 0.52116 0.0
C351 C 0.75392 0.99384 0.48214 0.0
H352 H 0.7485 0.01554 0.56926 0.0
C353 C 0.63432 0.01888 0.49879 0.0
C354 C 0.62078 0.00758 0.51967 0.0
C355 C 0.66692 0.01842 0.49812 0.0
C356 C 0.74927 0.00899 0.54463 0.0
H357 H 0.88031 0.02589 0.48174 0.0
H358 H 0.82402 0.02853 0.48404 0.0
H359 H 0.80271 0.01027 0.56483 0.0
H360 H 0.63059 0.98796 0.55701 0.0
H361 H 0.68688 0.98573 0.55492 0.0
H362 H 0.70024 0.99146 0.46148 0.0
C363 C 0.83424 0.01341 0.49385 0.0
C364 C 0.78038 0.00611 0.54218 0.0
C365 C 0.86628 0.01196 0.49256 0.0
C366 C 0.64062 0.99655 0.54055 0.0
C367 C 0.67295 0.99559 0.53951 0.0
C368 C 0.72257 0.9962 0.48442 0.0
C369 C 0.81612 0.99616 0.50852 0.0
C370 C 0.78297 0.99862 0.51095 0.0
C371 C 0.68634 0.00624 0.51802 0.0
C372 C 0.71989 1.00394 0.51573 0.0
H373 H 0.87207 0.95984 0.52902 0.0
H374 H 0.81625 0.96308 0.53224 0.0
H375 H 0.75524 0.98776 0.45771 0.0
H376 H 0.61943 0.02775 0.48274 0.0
H377 H 0.67681 0.02755 0.48191 0.0
C378 C 0.97253 0.63975 0.47792 0.0
C379 C -0.00087 0.63905 0.50483 0.0
C380 C 0.97259 0.6688 0.47795 0.0
C381 C 0.00892 0.75469 0.53497 0.0
H382 H 0.98365 0.76445 0.45016 0.0
C383 C 0.02838 0.87664 0.52874 0.0
C384 C -0.00034 0.87708 0.5035 0.0
C385 C 0.02836 0.8477 0.52909 0.0
C386 C 0.99046 0.762 0.474 0.0
H387 H 0.04649 0.66866 0.55312 0.0
H388 H 0.04734 0.71922 0.55259 0.0
H389 H 0.98382 0.71399 0.45043 0.0
H390 H 0.94806 0.84712 0.45914 0.0
H391 H 0.94842 0.79674 0.45949 0.0
H392 H 0.01603 0.80296 0.55853 0.0
C393 C 0.02601 0.69727 0.53168 0.0
C394 C 0.99048 0.73303 0.47417 0.0
C395 C 0.02582 0.66821 0.53175 0.0
C396 C 0.97098 0.84777 0.4786 0.0
C397 C 0.97111 0.81885 0.47883 0.0
C398 C 0.00915 0.78374 0.53482 0.0
C399 C -0.00061 0.69797 0.50478 0.0
C400 C -0.00039 0.72894 0.50465 0.0
C401 C -0.00023 0.81848 0.50409 0.0
C402 C -0.00017 0.7877 0.50432 0.0
H403 H 0.95182 0.61785 0.45652 0.0
H404 H 0.95137 0.66832 0.457 0.0
H405 H 0.0155 0.7523 0.55883 0.0
H406 H 0.05125 0.89866 0.54798 0.0
H407 H 0.05109 0.8482 0.54863 0.0
C408 C 0.3478 0.9984 0.45212 0.0
C409 C 0.37589 1.00269 0.48133 0.0
C410 C 0.31537 0.99913 0.45312 0.0
C411 C 0.26019 0.9913 0.50213 0.0
H412 H 0.21884 0.03942 0.46002 0.0
C413 C 0.14661 0.04627 0.50129 0.0
C414 C 0.11757 0.01947 0.49643 0.0
C415 C 0.17792 0.04367 0.49906 0.0
C416 C 0.2302 0.02606 0.47207 0.0
H417 H 0.39297 0.01103 0.53425 0.0
H418 H 0.33627 0.01252 0.53626 0.0
H419 H 0.27394 0.03543 0.45667 0.0
H420 H 0.09751 0.96914 0.48528 0.0
H421 H 0.15225 0.96435 0.48116 0.0
H422 H 0.21685 0.98245 0.51808 0.0
C423 C 0.33889 0.00815 0.51248 0.0
C424 C 0.26147 0.02345 0.4698 0.0
C425 C 0.37129 0.00746 0.51145 0.0
C426 C 0.11994 0.99006 0.48928 0.0
C427 C 0.15122 0.98743 0.48711 0.0
C428 C 0.22886 0.99384 0.50431 0.0
C429 C 0.31068 1.00421 0.48339 0.0
C430 C 0.27686 0.00614 0.48492 0.0
C431 C 0.18052 0.0142 0.49192 0.0
C432 C 0.21362 0.01134 0.48941 0.0
H433 H 0.35116 0.9948 0.42873 0.0
H434 H 0.29395 0.99569 0.43023 0.0
H435 H 0.27126 0.97758 0.51378 0.0
H436 H 0.14499 0.06911 0.50676 0.0
H437 H 0.20022 0.06477 0.50326 0.0
C438 C 0.47631 0.98537 0.33119 0.0
C439 C 0.50044 0.01128 0.36272 0.0
C440 C 0.47709 0.98653 0.30098 0.0
C441 C 0.53495 0.03175 0.26785 0.0
H442 H 0.44474 0.98892 0.18577 0.0
C443 C 0.51908 0.04859 0.14332 0.0
C444 C 0.50395 0.02009 0.11406 0.0
C445 C 0.51923 0.04776 0.17392 0.0
C446 C 0.47012 1.00086 0.20852 0.0
H447 H 0.5446 0.05878 0.38679 0.0
H448 H 0.54438 0.06157 0.33422 0.0
H449 H 0.44359 0.98763 0.23877 0.0
H450 H 0.47646 0.96856 0.09326 0.0
H451 H 0.47565 0.9671 0.14667 0.0
H452 H 0.56103 0.04586 0.2374 0.0
C453 C 0.52549 0.03989 0.33282 0.0
C454 C 0.46959 0.99998 0.23889 0.0
C455 C 0.52516 0.0385 0.36309 0.0
C456 C 0.48838 0.99079 0.11564 0.0
C457 C 0.48785 0.98998 0.14603 0.0
C458 C 0.53531 0.03312 0.23758 0.0
C459 C 0.50155 0.01388 0.30131 0.0
C460 C 0.50204 0.01524 0.26899 0.0
C461 C 0.50342 0.01845 0.17546 0.0
C462 C 0.50295 0.01752 0.20764 0.0
H463 H 0.45646 0.96415 0.32965 0.0
H464 H 0.45861 0.96577 0.27737 0.0
H465 H 0.56061 0.04326 0.29021 0.0
H466 H 0.53075 0.07144 0.14244 0.0
H467 H 0.53109 0.07002 0.19624 0.0
C468 C 0.98668 0.52089 0.15622 0.0
C469 C 0.99653 0.49996 0.13591 0.0
C470 C 0.98667 0.51989 0.1867 0.0
C471 C 0.98345 0.46781 0.23262 0.0
H472 H 0.0217 0.54729 0.31176 0.0
C473 C 0.00697 0.47248 0.3667 0.0
C474 C 0.99777 0.49403 0.38683 0.0
C475 C 0.00669 0.47291 0.33593 0.0
C476 C 0.01054 0.52487 0.28981 0.0
H477 H 0.01443 0.46178 0.13196 0.0
H478 H 0.01438 0.46002 0.18516 0.0
H479 H 0.02138 0.54857 0.25835 0.0
H480 H 0.98056 0.53246 0.39099 0.0
H481 H 0.97956 0.53311 0.33693 0.0
H482 H 0.97257 0.44411 0.2641 0.0
C483 C 0.00617 0.47691 0.17724 0.0
C484 C 0.01036 0.52561 0.25918 0.0
C485 C 0.00619 0.47791 0.14675 0.0
C486 C 0.98793 0.51579 0.37576 0.0
C487 C 0.98761 0.51624 0.34501 0.0
C488 C 0.9836 0.46707 0.26326 0.0
C489 C 0.99649 0.49794 0.19762 0.0
C490 C 0.99677 0.4971 0.23021 0.0
C491 C 0.9971 0.49487 0.32476 0.0
C492 C 0.9971 0.49559 0.2922 0.0
H493 H 0.97851 0.5378 0.14834 0.0
H494 H 0.97849 0.53606 0.20152 0.0
H495 H 0.97232 0.44541 0.21066 0.0
H496 H 0.01456 0.45549 0.37493 0.0
H497 H 0.01451 0.45637 0.32113 0.0
C498 C 0.5025 0.97578 0.64483 0.0
C499 C 0.49551 0.99937 0.63524 0.0
C500 C 0.50199 0.97452 0.67509 0.0
C501 C 0.46693 1.00032 0.73867 0.0
H502 H 0.54193 0.98463 0.79618 0.0
C503 C 0.48672 0.01526 0.87488 0.0
C504 C 0.495 0.99259 0.88525 0.0
C505 C 0.48604 0.01546 0.84395 0.0
C506 C 0.52052 0.98864 0.7802 0.0
H507 H 0.48205 0.03988 0.64974 0.0
H508 H 0.48171 0.03799 0.70282 0.0
H509 H 0.54228 0.98628 0.74304 0.0
H510 H 0.50845 0.95211 0.87191 0.0
H511 H 0.507 0.95212 0.81746 0.0
H512 H 0.4452 1.00273 0.77585 0.0
C513 C 0.48731 0.02031 0.68679 0.0
C514 C 0.52074 0.9896 0.74976 0.0
C515 C 0.48791 0.02161 0.65657 0.0
C516 C 0.5022 0.96987 0.86426 0.0
C517 C 0.50156 0.97005 0.83332 0.0
C518 C 0.46669 0.99934 0.7691 0.0
C519 C 0.49439 0.99677 0.69643 0.0
C520 C 0.49399 0.99551 0.72867 0.0
C521 C 0.4936 0.99294 0.82286 0.0
C522 C 0.49353 0.99354 0.79026 0.0
H523 H 0.50879 0.95848 0.62913 0.0
H524 H 0.50722 0.95591 0.68162 0.0
H525 H 0.44561 1.00445 0.72274 0.0
H526 H 0.48117 0.03299 0.89091 0.0
H527 H 0.48025 0.03363 0.83686 0.0
C528 C 0.00851 0.49669 0.62337 0.0
C529 C 0.00015 0.5194 0.61315 0.0
C530 C 0.00863 0.49597 0.65398 0.0
C531 C 0.01542 0.54547 0.73686 0.0
H532 H 0.97268 0.46377 0.73986 0.0
C533 C 0.99271 0.53513 0.85343 0.0
C534 C 0.00012 0.51173 0.86312 0.0
C535 C 0.99283 0.53627 0.82301 0.0
C536 C 0.98511 0.48677 0.73957 0.0
H537 H 0.98577 0.55933 0.62636 0.0
H538 H 0.98562 0.55807 0.68 0.0
H539 H 0.97275 0.46546 0.68668 0.0
H540 H 0.01416 0.47156 0.84872 0.0
H541 H 0.01447 0.4736 0.79572 0.0
H542 H 0.02785 0.56678 0.78977 0.0
C543 C 0.99238 0.54096 0.66462 0.0
C544 C 0.98513 0.48773 0.70907 0.0
C545 C 0.99224 0.54162 0.63396 0.0
C546 C 0.00778 0.48957 0.84174 0.0
C547 C 0.00794 0.49074 0.81135 0.0
C548 C 0.01544 0.54451 0.76738 0.0
C549 C 0.00048 0.51805 0.67494 0.0
C550 C 0.00033 0.51709 0.70736 0.0
C551 C 0.00039 0.51406 0.80157 0.0
C552 C 0.00031 0.51514 0.76911 0.0
H553 H 0.01485 0.47947 0.60759 0.0
H554 H 0.01549 0.47834 0.66141 0.0
H555 H 0.0278 0.56846 0.73651 0.0
H556 H 0.98619 0.55226 0.86908 0.0
H557 H 0.98636 0.55424 0.816 0.0
C558 C 0.13794 0.49176 0.03794 0.0
C559 C 0.1193 0.50425 0.01811 0.0
C560 C 0.17033 0.49067 0.0372 0.0
C561 C 0.22234 0.49383 0.98438 0.0
H562 H 0.30102 0.50651 0.06509 0.0
C563 C 0.36648 0.51104 0.99374 0.0
C564 C 0.38116 0.49249 0.00704 0.0
C565 C 0.33424 0.51204 0.99491 0.0
C566 C 0.2791 0.5027 0.04234 0.0
H567 H 0.12001 0.52665 0.9832 0.0
H568 H 0.17738 0.526 0.98275 0.0
H569 H 0.24597 0.51061 0.06851 0.0
H570 H 0.37383 0.45988 0.0312 0.0
H571 H 0.31754 0.46217 0.03405 0.0
H572 H 0.2561 0.48677 0.95854 0.0
C573 C 0.16656 0.51596 0.99798 0.0
C574 C 0.24753 0.50493 0.04421 0.0
C575 C 0.13397 0.51664 0.99841 0.0
C576 C 0.36304 0.47463 0.0212 0.0
C577 C 0.33105 0.47599 0.02285 0.0
C578 C 0.25409 0.49202 0.98264 0.0
C579 C 0.18491 0.50255 0.01699 0.0
C580 C 0.21872 0.50049 0.01523 0.0
C581 C 0.31642 0.49473 0.00973 0.0
C582 C 0.2827 0.49638 0.01158 0.0
H583 H 0.12704 0.48232 0.05349 0.0
H584 H 0.18346 0.47988 0.05188 0.0
H585 H 0.20045 0.48958 0.96138 0.0
H586 H 0.38014 0.5249 0.98264 0.0
H587 H 0.32357 0.52678 0.98479 0.0
C588 C 0.51709 0.36162 0.98525 0.0
C589 C 0.50203 0.3778 0.00409 0.0
C590 C 0.51764 0.33289 0.98586 0.0
C591 C 0.47112 0.26443 0.00053 0.0
H592 H 0.56003 0.25188 0.0153 0.0
C593 C 0.48174 0.15326 0.01894 0.0
C594 C 0.50275 0.14021 0.00576 0.0
C595 C 0.48207 0.18245 0.01921 0.0
C596 C 0.53476 0.25469 0.0106 0.0
H597 H 0.47538 0.37639 0.038 0.0
H598 H 0.47594 0.32595 0.03873 0.0
H599 H 0.55953 0.30204 0.01421 0.0
H600 H 0.5401 0.14723 0.98199 0.0
H601 H 0.53991 0.19761 0.98144 0.0
H602 H 0.44591 0.21693 0.99597 0.0
C603 C 0.48745 0.3356 0.02363 0.0
C604 C 0.53458 0.28355 0.01014 0.0
C605 C 0.48738 0.36456 0.02341 0.0
C606 C 0.524 0.15692 0.99272 0.0
C607 C 0.52397 0.1859 0.99256 0.0
C608 C 0.47113 0.23539 0.00053 0.0
C609 C 0.50266 0.3195 0.00492 0.0
C610 C 0.5028 0.28877 0.00521 0.0
C611 C 0.50305 0.19915 0.00586 0.0
C612 C 0.50299 0.23011 0.00569 0.0
H613 H 0.5288 0.37137 0.97031 0.0
H614 H 0.52933 0.32091 0.97102 0.0
H615 H 0.44608 0.26763 0.99625 0.0
H616 H 0.46542 0.14107 0.02952 0.0
H617 H 0.46618 0.19207 0.03031 0.0
C618 C 0.85032 0.50378 0.9527 0.0
C619 C 0.87814 0.50809 0.98212 0.0
C620 C 0.8179 0.50488 0.9534 0.0
C621 C 0.76197 0.49641 0.00148 0.0
H622 H 0.71922 0.54315 0.95819 0.0
C623 C 0.62029 0.49182 0.98684 0.0
C624 C 0.61721 0.52095 0.99417 0.0
C625 C 0.65181 0.48989 0.98459 0.0
C626 C 0.73096 0.53016 0.97054 0.0
H627 H 0.89488 0.51705 0.03517 0.0
H628 H 0.83822 0.51916 0.03666 0.0
H629 H 0.77527 0.54051 0.95593 0.0
H630 H 0.64355 0.57076 0.00457 0.0
H631 H 0.6992 0.56763 0.00091 0.0
H632 H 0.71807 0.48649 0.01658 0.0
C633 C 0.84105 0.51455 0.01296 0.0
C634 C 0.7628 0.52836 0.96893 0.0
C635 C 0.87343 0.51352 0.01223 0.0
C636 C 0.64571 0.54813 0.99896 0.0
C637 C 0.67727 0.54623 0.99665 0.0
C638 C 0.73009 0.49811 0.00298 0.0
C639 C 0.81295 0.51026 0.98356 0.0
C640 C 0.77871 0.51158 0.98452 0.0
C641 C 0.68067 0.51709 0.98954 0.0
C642 C 0.71432 0.51508 0.98762 0.0
H643 H 0.85373 0.49961 0.92929 0.0
H644 H 0.79659 0.50119 0.9303 0.0
H645 H 0.77341 0.48304 0.01345 0.0
H646 H 0.59828 0.47061 0.98289 0.0
H647 H 0.65345 0.46705 0.97866 0.0
C648 C 0.46704 0.6373 0.9757 0.0
C649 C 0.49779 0.63692 0.99856 0.0
C650 C 0.46674 0.66609 0.97508 0.0
C651 C 0.50949 0.75271 0.02753 0.0
H652 H 0.47433 0.759 0.9414 0.0
C653 C 0.52575 0.87371 0.0208 0.0
C654 C 0.49753 0.87442 0.99532 0.0
C655 C 0.52551 0.84468 0.02098 0.0
C656 C 0.48375 0.7576 0.96568 0.0
H657 H 0.55258 0.66687 0.03837 0.0
H658 H 0.55166 0.71701 0.03769 0.0
H659 H 0.47399 0.70852 0.94216 0.0
H660 H 0.44697 0.84469 0.94982 0.0
H661 H 0.44583 0.79422 0.95088 0.0
H662 H 0.51872 0.8015 0.05114 0.0
C663 C 0.5277 0.69497 0.02042 0.0
C664 C 0.48364 0.72864 0.96608 0.0
C665 C 0.52815 0.66617 0.02085 0.0
C666 C 0.46897 0.84521 0.9701 0.0
C667 C 0.46858 0.81615 0.97042 0.0
C668 C 0.5093 0.78158 0.02713 0.0
C669 C 0.49702 0.69526 0.99749 0.0
C670 C 0.49666 0.7259 0.99701 0.0
C671 C 0.49688 0.81547 0.99585 0.0
C672 C 0.49658 0.7845 0.99621 0.0
H673 H 0.4429 0.61538 0.95857 0.0
H674 H 0.44252 0.66557 0.95741 0.0
H675 H 0.51922 0.75123 0.05176 0.0
H676 H 0.54796 0.89565 0.04096 0.0
H677 H 0.54805 0.8452 0.04072 0.0
loop_
_geom_bond_atom_site_label_1
_geom_bond_atom_site_label_2
_geom_bond_distance
_geom_bond_site_symmetry_2
_ccdc_geom_bond_type
C0 C1 1.443 . S
C0 N4 1.376 . S
C0 C38 1.388 1_565 S
C1 C0 1.443 . S
C1 C2 1.340 . S
C1 H41 0.951 . S
C2 C1 1.340 . S
C2 C3 1.439 . S
C2 H42 0.950 . S
C3 C2 1.439 . S
C3 N4 1.374 . S
C3 C37 1.395 . S
N4 C0 1.376 . S
N4 C3 1.374 . S
N4 Co5 1.992 1_665 S
Co5 N4 1.992 1_445 S
Co5 N6 2.011 1_545 S
Co5 N11 2.024 . S
Co5 N16 1.979 1_455 S
Co5 N21 2.287 1_445 S
Co5 N27 2.278 . S
N6 Co5 2.011 1_565 S
N6 C7 1.377 . S
N6 C10 1.383 . S
C7 N6 1.377 . S
C7 C8 1.455 . S
C7 C37 1.382 1_455 S
C8 C7 1.455 . S
C8 C9 1.339 . S
C8 H43 0.949 . S
C9 C8 1.339 . S
C9 C10 1.439 . S
C9 H44 0.950 . S
C10 N6 1.383 . S
C10 C9 1.439 . S
C10 C39 1.392 1_565 S
N11 Co5 2.024 . S
N11 C12 1.376 . S
N11 C15 1.374 . S
C12 N11 1.376 . S
C12 C13 1.443 . S
C12 C39 1.389 . S
C13 C12 1.443 . S
C13 C14 1.340 . S
C13 H45 0.951 . S
C14 C13 1.340 . S
C14 C15 1.439 . S
C14 H46 0.950 . S
C15 N11 1.374 . S
C15 C14 1.439 . S
C15 C40 1.395 . S
N16 Co5 1.979 1_655 S
N16 C17 1.372 1_655 S
N16 C20 1.383 . S
C17 N16 1.372 1_455 S
C17 C18 1.414 1_455 S
C17 C40 1.423 . S
C18 C17 1.414 1_655 S
C18 C19 1.339 . S
C18 H47 0.949 . S
C19 C18 1.339 . S
C19 C20 1.439 . S
C19 H48 0.950 . S
C20 N16 1.383 . S
C20 C19 1.439 . S
C20 C38 1.389 . S
N21 Co5 2.287 1_665 S
N21 C24 1.332 1_655 S
N21 C26 1.332 . S
C22 C23 1.389 1_655 S
C22 C25 1.388 . S
C23 C22 1.389 1_455 S
C23 C24 1.384 . S
C23 H49 0.950 . S
C24 N21 1.332 1_455 S
C24 C23 1.384 . S
C24 H35 0.949 . S
C25 C22 1.388 . S
C25 C26 1.382 . S
C25 H50 0.950 . S
C26 N21 1.332 . S
C26 C25 1.382 . S
C26 H36 0.948 . S
N27 Co5 2.278 . S
N27 C31 1.332 . S
N27 C32 1.332 . S
C28 C29 1.388 . S
C28 C32 1.382 . S
C28 H51 0.950 . S
C29 C28 1.388 . S
C29 C30 1.386 1_455 S
C30 C29 1.386 1_655 S
C30 C31 1.382 1_655 S
C30 H52 0.950 . S
C31 N27 1.332 . S
C31 C30 1.382 1_455 S
C31 H33 0.952 1_455 S
C32 N27 1.332 . S
C32 C28 1.382 . S
C32 H34 0.948 . S
H33 C31 0.952 1_655 S
H34 C32 0.948 . S
H35 C24 0.949 . S
H36 C26 0.948 . S
C37 C3 1.395 . S
C37 C7 1.382 1_655 S
C38 C0 1.388 1_545 S
C38 C20 1.389 . S
C39 C10 1.392 1_545 S
C39 C12 1.389 . S
C40 C15 1.395 . S
C40 C17 1.423 . S
H41 C1 0.951 . S
H42 C2 0.950 . S
H43 C8 0.949 . S
H44 C9 0.950 . S
H45 C13 0.951 . S
H46 C14 0.950 . S
H47 C18 0.949 . S
H48 C19 0.950 . S
H49 C23 0.950 . S
H50 C25 0.950 . S
H51 C28 0.950 . S
H52 C30 0.950 . S
C53 C54 1.443 . S
C53 N57 1.376 . S
C53 C91 1.389 . S
C54 C53 1.443 . S
C54 C55 1.340 . S
C54 H94 0.951 . S
C55 C54 1.340 . S
C55 C56 1.439 . S
C55 H95 0.950 . S
C56 C55 1.439 . S
C56 N57 1.374 . S
C56 C90 1.395 . S
N57 C53 1.376 . S
N57 C56 1.374 . S
N57 Co58 2.019 . S
Co58 N57 2.019 . S
Co58 N59 1.983 1_554 S
Co58 N64 1.997 1_544 S
Co58 N69 2.006 1_545 S
Co58 N74 2.279 . S
Co58 N80 2.286 1_544 S
N59 Co58 1.983 1_556 S
N59 C60 1.373 1_556 S
N59 C63 1.383 . S
C60 N59 1.373 1_554 S
C60 C61 1.420 1_554 S
C60 C90 1.417 . S
C61 C60 1.420 1_556 S
C61 C62 1.339 . S
C61 H96 0.949 . S
C62 C61 1.339 . S
C62 C63 1.439 . S
C62 H97 0.950 . S
C63 N59 1.383 . S
C63 C62 1.439 . S
C63 C92 1.389 . S
N64 Co58 1.997 1_566 S
N64 C65 1.376 . S
N64 C68 1.374 . S
C65 N64 1.376 . S
C65 C66 1.443 . S
C65 C92 1.388 1_565 S
C66 C65 1.443 . S
C66 C67 1.340 . S
C66 H98 0.951 . S
C67 C66 1.340 . S
C67 C68 1.439 . S
C67 H99 0.950 . S
C68 N64 1.374 . S
C68 C67 1.439 . S
C68 C93 1.395 . S
N69 Co58 2.006 1_565 S
N69 C70 1.376 . S
N69 C73 1.383 . S
C70 N69 1.376 . S
C70 C71 1.449 . S
C70 C93 1.388 1_554 S
C71 C70 1.449 . S
C71 C72 1.339 . S
C71 H100 0.949 . S
C72 C71 1.339 . S
C72 C73 1.439 . S
C72 H101 0.950 . S
C73 N69 1.383 . S
C73 C72 1.439 . S
C73 C91 1.392 1_565 S
N74 Co58 2.279 . S
N74 C77 1.332 . S
N74 C79 1.332 . S
C75 C76 1.386 1_554 S
C75 C78 1.388 . S
C76 C75 1.386 1_556 S
C76 C77 1.370 1_556 S
C76 H102 0.950 . S
C77 N74 1.332 . S
C77 C76 1.370 1_554 S
C77 H88 0.965 1_554 S
C78 C75 1.388 . S
C78 C79 1.382 . S
C78 H103 0.950 . S
C79 N74 1.332 . S
C79 C78 1.382 . S
C79 H89 0.948 . S
N80 Co58 2.286 1_566 S
N80 C84 1.332 1_556 S
N80 C85 1.332 . S
C81 C82 1.388 . S
C81 C85 1.382 . S
C81 H104 0.950 . S
C82 C81 1.388 . S
C82 C83 1.391 1_556 S
C83 C82 1.391 1_554 S
C83 C84 1.381 . S
C83 H105 0.950 . S
C84 N80 1.332 1_554 S
C84 C83 1.381 . S
C84 H86 0.952 . S
C85 N80 1.332 . S
C85 C81 1.382 . S
C85 H87 0.948 . S
H86 C84 0.952 . S
H87 C85 0.948 . S
H88 C77 0.965 1_556 S
H89 C79 0.948 . S
C90 C56 1.395 . S
C90 C60 1.417 . S
C91 C53 1.389 . S
C91 C73 1.392 1_545 S
C92 C63 1.389 . S
C92 C65 1.388 1_545 S
C93 C68 1.395 . S
C93 C70 1.388 1_556 S
H94 C54 0.951 . S
H95 C55 0.950 . S
H96 C61 0.949 . S
H97 C62 0.950 . S
H98 C66 0.951 . S
H99 C67 0.950 . S
H100 C71 0.949 . S
H101 C72 0.950 . S
H102 C76 0.950 . S
H103 C78 0.950 . S
H104 C81 0.950 . S
H105 C83 0.950 . S
C106 C107 1.443 . S
C106 N110 1.376 . S
C106 C144 1.389 . S
C107 C106 1.443 . S
C107 C108 1.340 . S
C107 H147 0.951 . S
C108 C107 1.340 . S
C108 C109 1.439 . S
C108 H148 0.950 . S
C109 C108 1.439 . S
C109 N110 1.374 . S
C109 C143 1.395 . S
N110 C106 1.376 . S
N110 C109 1.374 . S
N110 Co111 2.020 . S
Co111 N110 2.020 . S
Co111 N112 1.981 1_455 S
Co111 N117 1.996 1_454 S
Co111 N122 2.009 1_554 S
Co111 N127 2.296 . S
Co111 N133 2.269 1_454 S
N112 Co111 1.981 1_655 S
N112 C113 1.372 1_655 S
N112 C116 1.383 . S
C113 N112 1.372 1_455 S
C113 C114 1.415 1_455 S
C113 C143 1.422 . S
C114 C113 1.415 1_655 S
C114 C115 1.339 . S
C114 H149 0.949 . S
C115 C114 1.339 . S
C115 C116 1.439 . S
C115 H150 0.950 . S
C116 N112 1.383 . S
C116 C115 1.439 . S
C116 C145 1.398 1_554 S
N117 Co111 1.996 1_656 S
N117 C118 1.376 . S
N117 C121 1.374 . S
C118 N117 1.376 . S
C118 C119 1.443 . S
C118 C145 1.391 . S
C119 C118 1.443 . S
C119 C120 1.340 . S
C119 H151 0.951 . S
C120 C119 1.340 . S
C120 C121 1.439 . S
C120 H152 0.950 . S
C121 N117 1.374 . S
C121 C120 1.439 . S
C121 C146 1.395 . S
N122 Co111 2.009 1_556 S
N122 C123 1.377 . S
N122 C126 1.383 . S
C123 N122 1.377 . S
C123 C124 1.454 . S
C123 C146 1.383 1_455 S
C124 C123 1.454 . S
C124 C125 1.339 . S
C124 H153 0.949 . S
C125 C124 1.339 . S
C125 C126 1.439 . S
C125 H154 0.950 . S
C126 N122 1.383 . S
C126 C125 1.439 . S
C126 C144 1.392 1_556 S
N127 Co111 2.296 . S
N127 C130 1.332 . S
N127 C132 1.332 . S
C128 C129 1.386 1_455 S
C128 C131 1.388 . S
C129 C128 1.386 1_655 S
C129 C130 1.382 1_655 S
C129 H155 0.950 . S
C130 N127 1.332 . S
C130 C129 1.382 1_455 S
C130 H141 0.952 1_455 S
C131 C128 1.388 . S
C131 C132 1.382 . S
C131 H156 0.950 . S
C132 N127 1.332 . S
C132 C131 1.382 . S
C132 H142 0.948 . S
N133 Co111 2.269 1_656 S
N133 C137 1.332 1_655 S
N133 C138 1.332 . S
C134 C135 1.388 . S
C134 C138 1.382 . S
C134 H157 0.950 . S
C135 C134 1.388 . S
C135 C136 1.389 1_655 S
C136 C135 1.389 1_455 S
C136 C137 1.384 . S
C136 H158 0.950 . S
C137 N133 1.332 1_455 S
C137 C136 1.384 . S
C137 H139 0.949 . S
C138 N133 1.332 . S
C138 C134 1.382 . S
C138 H140 0.948 . S
H139 C137 0.949 . S
H140 C138 0.948 . S
H141 C130 0.952 1_655 S
H142 C132 0.948 . S
C143 C109 1.395 . S
C143 C113 1.422 . S
C144 C106 1.389 . S
C144 C126 1.392 1_554 S
C145 C116 1.398 1_556 S
C145 C118 1.391 . S
C146 C121 1.395 . S
C146 C123 1.383 1_655 S
H147 C107 0.951 . S
H148 C108 0.950 . S
H149 C114 0.949 . S
H150 C115 0.950 . S
H151 C119 0.951 . S
H152 C120 0.950 . S
H153 C124 0.949 . S
H154 C125 0.950 . S
H155 C129 0.950 . S
H156 C131 0.950 . S
H157 C134 0.950 . S
H158 C136 0.950 . S
C159 C160 1.443 . S
C159 N163 1.376 . S
C159 C197 1.390 1_556 S
C160 C159 1.443 . S
C160 C161 1.340 . S
C160 H200 0.951 . S
C161 C160 1.340 . S
C161 C162 1.439 . S
C161 H201 0.950 . S
C162 C161 1.439 . S
C162 N163 1.374 . S
C162 C196 1.395 . S
N163 C159 1.376 . S
N163 C162 1.374 . S
N163 Co164 1.994 1_556 S
Co164 N163 1.994 1_554 S
Co164 N165 1.989 1_554 S
Co164 N170 2.022 . S
Co164 N175 2.001 . S
Co164 N180 2.276 1_554 S
Co164 N186 2.289 . S
N165 Co164 1.989 1_556 S
N165 C166 1.376 . S
N165 C169 1.383 . S
C166 N165 1.376 . S
C166 C167 1.446 . S
C166 C196 1.391 . S
C167 C166 1.446 . S
C167 C168 1.339 . S
C167 H202 0.949 . S
C168 C167 1.339 . S
C168 C169 1.439 . S
C168 H203 0.950 . S
C169 N165 1.383 . S
C169 C168 1.439 . S
C169 C198 1.361 1_556 S
N170 Co164 2.022 . S
N170 C171 1.376 . S
N170 C174 1.374 . S
C171 N170 1.376 . S
C171 C172 1.443 . S
C171 C198 1.411 . S
C172 C171 1.443 . S
C172 C173 1.340 . S
C172 H204 0.951 . S
C173 C172 1.340 . S
C173 C174 1.439 . S
C173 H205 0.950 . S
C174 N170 1.374 . S
C174 C173 1.439 . S
C174 C199 1.395 . S
N175 Co164 2.001 . S
N175 C176 1.376 . S
N175 C179 1.383 . S
C176 N175 1.376 . S
C176 C177 1.446 . S
C176 C199 1.391 . S
C177 C176 1.446 . S
C177 C178 1.339 . S
C177 H206 0.949 . S
C178 C177 1.339 . S
C178 C179 1.439 . S
C178 H207 0.950 . S
C179 N175 1.383 . S
C179 C178 1.439 . S
C179 C197 1.390 . S
N180 Co164 2.276 1_556 S
N180 C183 1.332 1_556 S
N180 C185 1.332 . S
C181 C182 1.387 . S
C181 C184 1.387 1_554 S
C182 C181 1.387 . S
C182 C183 1.382 . S
C182 H208 0.950 . S
C183 N180 1.332 1_554 S
C183 C182 1.382 . S
C183 H194 0.952 . S
C184 C181 1.387 1_556 S
C184 C185 1.382 . S
C184 H209 0.950 . S
C185 N180 1.332 . S
C185 C184 1.382 . S
C185 H195 0.948 . S
N186 Co164 2.289 . S
N186 C190 1.332 1_554 S
N186 C191 1.332 . S
C187 C188 1.405 . S
C187 C191 1.382 . S
C187 H210 0.950 . S
C188 C187 1.405 . S
C188 C189 1.361 1_554 S
C189 C188 1.361 1_556 S
C189 C190 1.382 . S
C189 H211 0.950 . S
C190 N186 1.332 1_556 S
C190 C189 1.382 . S
C190 H192 0.952 . S
C191 N186 1.332 . S
C191 C187 1.382 . S
C191 H193 0.948 . S
H192 C190 0.952 . S
H193 C191 0.948 . S
H194 C183 0.952 . S
H195 C185 0.948 . S
C196 C162 1.395 . S
C196 C166 1.391 . S
C197 C159 1.390 1_554 S
C197 C179 1.390 . S
C198 C169 1.361 1_554 S
C198 C171 1.411 . S
C199 C174 1.395 . S
C199 C176 1.391 . S
H200 C160 0.951 . S
H201 C161 0.950 . S
H202 C167 0.949 . S
H203 C168 0.950 . S
H204 C172 0.951 . S
H205 C173 0.950 . S
H206 C177 0.949 . S
H207 C178 0.950 . S
H208 C182 0.950 . S
H209 C184 0.950 . S
H210 C187 0.950 . S
H211 C189 0.950 . S
C212 C213 1.443 . S
C212 N216 1.376 . S
C212 C250 1.389 . S
C213 C212 1.443 . S
C213 C214 1.340 . S
C213 H253 0.951 . S
C214 C213 1.340 . S
C214 C215 1.439 . S
C214 H254 0.950 . S
C215 C214 1.439 . S
C215 N216 1.374 . S
C215 C249 1.395 . S
N216 C212 1.376 . S
N216 C215 1.374 . S
N216 Co217 2.018 . S
Co217 N216 2.018 . S
Co217 N218 2.014 . S
Co217 N223 1.999 1_455 S
Co217 N228 1.975 1_455 S
Co217 N233 2.276 . S
Co217 N239 2.289 1_455 S
N218 Co217 2.014 . S
N218 C219 1.376 . S
N218 C222 1.383 . S
C219 N218 1.376 . S
C219 C220 1.446 . S
C219 C249 1.391 . S
C220 C219 1.446 . S
C220 C221 1.339 . S
C220 H255 0.949 . S
C221 C220 1.339 . S
C221 C222 1.439 . S
C221 H256 0.950 . S
C222 N218 1.383 . S
C222 C221 1.439 . S
C222 C251 1.395 . S
N223 Co217 1.999 1_655 S
N223 C224 1.376 . S
N223 C227 1.374 . S
C224 N223 1.376 . S
C224 C225 1.443 . S
C224 C251 1.385 1_655 S
C225 C224 1.443 . S
C225 C226 1.340 . S
C225 H257 0.951 . S
C226 C225 1.340 . S
C226 C227 1.439 . S
C226 H258 0.950 . S
C227 N223 1.374 . S
C227 C226 1.439 . S
C227 C252 1.395 . S
N228 Co217 1.975 1_655 S
N228 C229 1.376 . S
N228 C232 1.383 . S
C229 N228 1.376 . S
C229 C230 1.446 . S
C229 C252 1.391 . S
C230 C229 1.446 . S
C230 C231 1.339 . S
C230 H259 0.949 . S
C231 C230 1.339 . S
C231 C232 1.439 . S
C231 H260 0.950 . S
C232 N228 1.383 . S
C232 C231 1.439 . S
C232 C250 1.392 1_655 S
N233 Co217 2.276 . S
N233 C236 1.332 1_455 S
N233 C238 1.332 . S
C234 C235 1.386 1_455 S
C234 C237 1.388 . S
C235 C234 1.386 1_655 S
C235 C236 1.382 . S
C235 H261 0.950 . S
C236 N233 1.332 1_655 S
C236 C235 1.382 . S
C236 H247 0.952 . S
C237 C234 1.388 . S
C237 C238 1.382 . S
C237 H262 0.950 . S
C238 N233 1.332 . S
C238 C237 1.382 . S
C238 H248 0.948 . S
N239 Co217 2.289 1_655 S
N239 C243 1.332 1_655 S
N239 C244 1.332 . S
C240 C241 1.381 1_655 S
C240 C244 1.382 . S
C240 H263 0.950 . S
C241 C240 1.381 1_455 S
C241 C242 1.390 . S
C242 C241 1.390 . S
C242 C243 1.382 . S
C242 H264 0.950 . S
C243 N239 1.332 1_455 S
C243 C242 1.382 . S
C243 H245 0.952 . S
C244 N239 1.332 . S
C244 C240 1.382 . S
C244 H246 0.948 . S
H245 C243 0.952 . S
H246 C244 0.948 . S
H247 C236 0.952 . S
H248 C238 0.948 . S
C249 C215 1.395 . S
C249 C219 1.391 . S
C250 C212 1.389 . S
C250 C232 1.392 1_455 S
C251 C222 1.395 . S
C251 C224 1.385 1_455 S
C252 C227 1.395 . S
C252 C229 1.391 . S
H253 C213 0.951 . S
H254 C214 0.950 . S
H255 C220 0.949 . S
H256 C221 0.950 . S
H257 C225 0.951 . S
H258 C226 0.950 . S
H259 C230 0.949 . S
H260 C231 0.950 . S
H261 C235 0.950 . S
H262 C237 0.950 . S
H263 C240 0.950 . S
H264 C242 0.950 . S
C265 C266 1.443 . S
C265 N269 1.376 . S
C265 C303 1.389 . S
C266 C265 1.443 . S
C266 C267 1.340 . S
C266 H306 0.951 . S
C267 C266 1.340 . S
C267 C268 1.439 . S
C267 H307 0.950 . S
C268 C267 1.439 . S
C268 N269 1.374 . S
C268 C302 1.395 . S
N269 C265 1.376 . S
N269 C268 1.374 . S
N269 Co270 2.008 . S
Co270 N269 2.008 . S
Co270 N271 1.995 . S
Co270 N276 2.008 1_545 S
Co270 N281 1.995 1_545 S
Co270 N286 2.282 . S
Co270 N292 2.295 1_545 S
N271 Co270 1.995 . S
N271 C272 1.376 . S
N271 C275 1.383 . S
C272 N271 1.376 . S
C272 C273 1.446 . S
C272 C302 1.391 . S
C273 C272 1.446 . S
C273 C274 1.339 . S
C273 H308 0.949 . S
C274 C273 1.339 . S
C274 C275 1.439 . S
C274 H309 0.950 . S
C275 N271 1.383 . S
C275 C274 1.439 . S
C275 C304 1.392 . S
N276 Co270 2.008 1_565 S
N276 C277 1.376 . S
N276 C280 1.374 . S
C277 N276 1.376 . S
C277 C278 1.443 . S
C277 C304 1.389 1_565 S
C278 C277 1.443 . S
C278 C279 1.340 . S
C278 H310 0.951 . S
C279 C278 1.340 . S
C279 C280 1.439 . S
C279 H311 0.950 . S
C280 N276 1.374 . S
C280 C279 1.439 . S
C280 C305 1.395 . S
N281 Co270 1.995 1_565 S
N281 C282 1.376 . S
N281 C285 1.383 . S
C282 N281 1.376 . S
C282 C283 1.446 . S
C282 C305 1.391 . S
C283 C282 1.446 . S
C283 C284 1.339 . S
C283 H312 0.949 . S
C284 C283 1.339 . S
C284 C285 1.439 . S
C284 H313 0.950 . S
C285 N281 1.383 . S
C285 C284 1.439 . S
C285 C303 1.392 1_565 S
N286 Co270 2.282 . S
N286 C289 1.332 1_545 S
N286 C291 1.332 . S
C287 C288 1.386 1_545 S
C287 C290 1.388 . S
C288 C287 1.386 1_565 S
C288 C289 1.382 . S
C288 H314 0.950 . S
C289 N286 1.332 1_565 S
C289 C288 1.382 . S
C289 H300 0.952 . S
C290 C287 1.388 . S
C290 C291 1.382 . S
C290 H315 0.950 . S
C291 N286 1.332 . S
C291 C290 1.382 . S
C291 H301 0.948 . S
N292 Co270 2.295 1_565 S
N292 C296 1.292 1_565 S
N292 C297 1.360 . S
C293 C294 1.388 1_565 S
C293 C297 1.382 . S
C293 H316 0.950 . S
C294 C293 1.388 1_545 S
C294 C295 1.386 . S
C295 C294 1.386 . S
C295 C296 1.382 . S
C295 H317 0.950 . S
C296 N292 1.292 1_545 S
C296 C295 1.382 . S
C296 H298 0.952 . S
C297 N292 1.360 . S
C297 C293 1.382 . S
C297 H299 0.948 . S
H298 C296 0.952 . S
H299 C297 0.948 . S
H300 C289 0.952 . S
H301 C291 0.948 . S
C302 C268 1.395 . S
C302 C272 1.391 . S
C303 C265 1.389 . S
C303 C285 1.392 1_545 S
C304 C275 1.392 . S
C304 C277 1.389 1_545 S
C305 C280 1.395 . S
C305 C282 1.391 . S
H306 C266 0.951 . S
H307 C267 0.950 . S
H308 C273 0.949 . S
H309 C274 0.950 . S
H310 C278 0.951 . S
H311 C279 0.950 . S
H312 C283 0.949 . S
H313 C284 0.950 . S
H314 C288 0.950 . S
H315 C290 0.950 . S
H316 C293 0.950 . S
H317 C295 0.950 . S
C318 C319 1.350 . S
C318 C320 1.327 . S
C318 H343 0.950 . S
C319 C318 1.350 . S
C319 C335 1.341 1_455 S
C320 C318 1.327 . S
C320 C339 1.437 . S
C320 H344 0.950 . S
C321 C338 1.574 . S
C321 C340 1.361 1_655 S
C321 H345 0.949 . S
H322 C326 0.949 . S
C323 C324 1.348 1_655 S
C323 C325 1.327 . S
C323 H346 0.950 . S
C324 C323 1.348 1_455 S
C324 C336 1.357 . S
C325 C323 1.327 . S
C325 C341 1.421 1_655 S
C325 H347 0.950 . S
C326 H322 0.949 . S
C326 C334 1.574 . S
C326 C342 1.376 . S
H327 C335 0.950 . S
H328 C333 0.950 . S
H329 C334 0.949 . S
H330 C336 0.950 . S
H331 C337 0.950 . S
H332 C338 0.949 . S
C333 H328 0.950 . S
C333 C335 1.327 . S
C333 C339 1.428 1_655 S
C334 C326 1.574 . S
C334 H329 0.949 . S
C334 C340 1.371 . S
C335 C319 1.341 1_655 S
C335 H327 0.950 . S
C335 C333 1.327 . S
C336 C324 1.357 . S
C336 H330 0.950 . S
C336 C337 1.327 . S
C337 H331 0.950 . S
C337 C336 1.327 . S
C337 C341 1.429 . S
C338 C321 1.574 . S
C338 H332 0.949 . S
C338 C342 1.366 1_655 S
C339 C320 1.437 . S
C339 C333 1.428 1_455 S
C339 C340 1.523 . S
C340 C321 1.361 1_455 S
C340 C334 1.371 . S
C340 C339 1.523 . S
C341 C325 1.421 1_455 S
C341 C337 1.429 . S
C341 C342 1.523 . S
C342 C326 1.376 . S
C342 C338 1.366 1_455 S
C342 C341 1.523 . S
H343 C318 0.950 . S
H344 C320 0.950 . S
H345 C321 0.949 . S
H346 C323 0.950 . S
H347 C325 0.950 . S
C348 C349 1.349 . S
C348 C350 1.327 . S
C348 H373 0.950 . S
C349 C348 1.349 . S
C349 C365 1.338 . S
C350 C348 1.327 . S
C350 C369 1.429 . S
C350 H374 0.950 . S
C351 C368 1.574 . S
C351 C370 1.360 . S
C351 H375 0.952 1_545 S
H352 C356 0.949 . S
C353 C354 1.345 . S
C353 C355 1.327 . S
C353 H376 0.959 1_545 S
C354 C353 1.345 . S
C354 C366 1.349 . S
C355 C353 1.327 . S
C355 C371 1.419 . S
C355 H377 0.954 1_545 S
C356 H352 0.949 . S
C356 C364 1.574 . S
C356 C372 1.368 . S
H357 C365 0.953 1_565 S
H358 C363 0.959 1_565 S
H359 C364 0.949 . S
H360 C366 0.950 . S
H361 C367 0.950 . S
H362 C368 0.958 1_565 S
C363 H358 0.959 1_545 S
C363 C365 1.327 . S
C363 C369 1.425 . S
C364 C356 1.574 . S
C364 H359 0.949 . S
C364 C370 1.368 . S
C365 C349 1.338 . S
C365 H357 0.953 1_545 S
C365 C363 1.327 . S
C366 C354 1.349 . S
C366 H360 0.950 . S
C366 C367 1.327 . S
C367 H361 0.950 . S
C367 C366 1.327 . S
C367 C371 1.429 . S
C368 C351 1.574 . S
C368 H362 0.958 1_545 S
C368 C372 1.364 . S
C369 C350 1.429 . S
C369 C363 1.425 . S
C369 C370 1.523 . S
C370 C351 1.360 . S
C370 C364 1.368 . S
C370 C369 1.523 . S
C371 C355 1.419 . S
C371 C367 1.429 . S
C371 C372 1.523 . S
C372 C356 1.368 . S
C372 C368 1.364 . S
C372 C371 1.523 . S
H373 C348 0.950 . S
H374 C350 0.950 . S
H375 C351 0.952 1_565 S
H376 C353 0.959 1_565 S
H377 C355 0.954 1_565 S
C378 C379 1.340 1_655 S
C378 C380 1.327 . S
C378 H403 0.950 . S
C379 C378 1.340 1_455 S
C379 C395 1.351 . S
C380 C378 1.327 . S
C380 C399 1.427 1_655 S
C380 H404 0.950 . S
C381 C398 1.574 . S
C381 C400 1.372 . S
C381 H405 0.949 . S
H382 C386 0.949 . S
C383 C384 1.358 . S
C383 C385 1.327 . S
C383 H406 0.950 . S
C384 C383 1.358 . S
C384 C396 1.347 1_455 S
C385 C383 1.327 . S
C385 C401 1.430 . S
C385 H407 0.950 . S
C386 H382 0.949 . S
C386 C394 1.574 . S
C386 C402 1.365 1_655 S
H387 C395 0.950 . S
H388 C393 0.950 . S
H389 C394 0.949 . S
H390 C396 0.950 . S
H391 C397 0.950 . S
H392 C398 0.949 . S
C393 H388 0.950 . S
C393 C395 1.327 . S
C393 C399 1.438 . S
C394 C386 1.574 . S
C394 H389 0.949 . S
C394 C400 1.360 1_655 S
C395 C379 1.351 . S
C395 H387 0.950 . S
C395 C393 1.327 . S
C396 C384 1.347 1_655 S
C396 H390 0.950 . S
C396 C397 1.327 . S
C397 H391 0.950 . S
C397 C396 1.327 . S
C397 C401 1.420 1_655 S
C398 C381 1.574 . S
C398 H392 0.949 . S
C398 C402 1.377 . S
C399 C380 1.427 1_455 S
C399 C393 1.438 . S
C399 C400 1.523 . S
C400 C381 1.372 . S
C400 C394 1.360 1_455 S
C400 C399 1.523 . S
C401 C385 1.430 . S
C401 C397 1.420 1_455 S
C401 C402 1.523 . S
C402 C386 1.365 1_455 S
C402 C398 1.377 . S
C402 C401 1.523 . S
H403 C378 0.950 . S
H404 C380 0.950 . S
H405 C381 0.949 . S
H406 C383 0.950 . S
H407 C385 0.950 . S
C408 C409 1.349 1_565 S
C408 C410 1.327 . S
C408 H433 0.950 . S
C409 C408 1.349 1_545 S
C409 C425 1.349 . S
C410 C408 1.327 . S
C410 C429 1.429 1_565 S
C410 H434 0.950 . S
C411 C428 1.574 . S
C411 C430 1.368 . S
C411 H435 0.949 . S
H412 C416 0.949 . S
C413 C414 1.349 . S
C413 C415 1.327 . S
C413 H436 0.950 . S
C414 C413 1.349 . S
C414 C426 1.349 1_545 S
C415 C413 1.327 . S
C415 C431 1.429 . S
C415 H437 0.950 . S
C416 H412 0.949 . S
C416 C424 1.574 . S
C416 C432 1.368 1_565 S
H417 C425 0.950 . S
H418 C423 0.950 . S
H419 C424 0.949 . S
H420 C426 0.950 . S
H421 C427 0.950 . S
H422 C428 0.949 . S
C423 H418 0.950 . S
C423 C425 1.327 . S
C423 C429 1.429 . S
C424 C416 1.574 . S
C424 H419 0.949 . S
C424 C430 1.368 1_565 S
C425 C409 1.349 . S
C425 H417 0.950 . S
C425 C423 1.327 . S
C426 C414 1.349 1_565 S
C426 H420 0.950 . S
C426 C427 1.327 . S
C427 H421 0.950 . S
C427 C426 1.327 . S
C427 C431 1.429 1_565 S
C428 C411 1.574 . S
C428 H422 0.949 . S
C428 C432 1.368 . S
C429 C410 1.429 1_545 S
C429 C423 1.429 . S
C429 C430 1.523 . S
C430 C411 1.368 . S
C430 C424 1.368 1_545 S
C430 C429 1.523 . S
C431 C415 1.429 . S
C431 C427 1.429 1_545 S
C431 C432 1.523 . S
C432 C416 1.368 1_545 S
C432 C428 1.368 . S
C432 C431 1.523 . S
H433 C408 0.950 . S
H434 C410 0.950 . S
H435 C411 0.949 . S
H436 C413 0.950 . S
H437 C415 0.950 . S
C438 C439 1.349 1_565 S
C438 C440 1.327 . S
C438 H463 0.950 . S
C439 C438 1.349 1_545 S
C439 C455 1.349 . S
C440 C438 1.327 . S
C440 C459 1.429 1_565 S
C440 H464 0.950 . S
C441 C458 1.574 . S
C441 C460 1.368 . S
C441 H465 0.949 . S
H442 C446 0.949 . S
C443 C444 1.349 . S
C443 C445 1.327 . S
C443 H466 0.950 . S
C444 C443 1.349 . S
C444 C456 1.349 1_545 S
C445 C443 1.327 . S
C445 C461 1.429 . S
C445 H467 0.950 . S
C446 H442 0.949 . S
C446 C454 1.574 . S
C446 C462 1.368 1_565 S
H447 C455 0.950 . S
H448 C453 0.950 . S
H449 C454 0.949 . S
H450 C456 0.950 . S
H451 C457 0.950 . S
H452 C458 0.949 . S
C453 H448 0.950 . S
C453 C455 1.327 . S
C453 C459 1.429 . S
C454 C446 1.574 . S
C454 H449 0.949 . S
C454 C460 1.368 1_565 S
C455 C439 1.349 . S
C455 H447 0.950 . S
C455 C453 1.327 . S
C456 C444 1.349 1_565 S
C456 H450 0.950 . S
C456 C457 1.327 . S
C457 H451 0.950 . S
C457 C456 1.327 . S
C457 C461 1.429 1_565 S
C458 C441 1.574 . S
C458 H452 0.949 . S
C458 C462 1.368 . S
C459 C440 1.429 1_545 S
C459 C453 1.429 . S
C459 C460 1.523 . S
C460 C441 1.368 . S
C460 C454 1.368 1_545 S
C460 C459 1.523 . S
C461 C445 1.429 . S
C461 C457 1.429 1_545 S
C461 C462 1.523 . S
C462 C446 1.368 1_545 S
C462 C458 1.368 . S
C462 C461 1.523 . S
H463 C438 0.950 . S
H464 C440 0.950 . S
H465 C441 0.949 . S
H466 C443 0.950 . S
H467 C445 0.950 . S
C468 C469 1.328 1_655 S
C468 C470 1.327 . S
C468 H493 0.954 . S
C469 C468 1.328 1_455 S
C469 C485 1.354 . S
C470 C468 1.327 . S
C470 C489 1.420 1_655 S
C470 H494 0.961 . S
C471 C488 1.574 . S
C471 C490 1.375 . S
C471 H495 0.949 . S
H472 C476 0.961 . S
C473 C474 1.361 . S
C473 C475 1.327 . S
C473 H496 0.950 . S
C474 C473 1.361 . S
C474 C486 1.340 1_455 S
C475 C473 1.327 . S
C475 C491 1.433 . S
C475 H497 0.950 . S
C476 H472 0.961 . S
C476 C484 1.574 . S
C476 C492 1.356 1_655 S
H477 C485 0.950 . S
H478 C483 0.950 . S
H479 C484 0.954 . S
H480 C486 0.960 . S
H481 C487 0.955 . S
H482 C488 0.949 . S
C483 H478 0.950 . S
C483 C485 1.327 . S
C483 C489 1.440 . S
C484 C476 1.574 . S
C484 H479 0.954 . S
C484 C490 1.345 1_655 S
C485 C469 1.354 . S
C485 H477 0.950 . S
C485 C483 1.327 . S
C486 C474 1.340 1_655 S
C486 H480 0.960 . S
C486 C487 1.328 . S
C487 H481 0.955 . S
C487 C486 1.328 . S
C487 C491 1.406 1_655 S
C488 C471 1.574 . S
C488 H482 0.949 . S
C488 C492 1.380 . S
C489 C470 1.420 1_455 S
C489 C483 1.440 . S
C489 C490 1.523 . S
C490 C471 1.375 . S
C490 C484 1.345 1_455 S
C490 C489 1.523 . S
C491 C475 1.433 . S
C491 C487 1.406 1_455 S
C491 C492 1.523 . S
C492 C476 1.356 1_455 S
C492 C488 1.380 . S
C492 C491 1.523 . S
H493 C468 0.954 . S
H494 C470 0.961 . S
H495 C471 0.949 . S
H496 C473 0.950 . S
H497 C475 0.950 . S
C498 C499 1.349 1_565 S
C498 C500 1.327 . S
C498 H523 0.950 . S
C499 C498 1.349 1_545 S
C499 C515 1.349 . S
C500 C498 1.327 . S
C500 C519 1.429 1_565 S
C500 H524 0.950 . S
C501 C518 1.574 . S
C501 C520 1.368 . S
C501 H525 0.949 . S
H502 C506 0.949 . S
C503 C504 1.349 . S
C503 C505 1.327 . S
C503 H526 0.950 . S
C504 C503 1.349 . S
C504 C516 1.349 1_545 S
C505 C503 1.327 . S
C505 C521 1.429 . S
C505 H527 0.950 . S
C506 H502 0.949 . S
C506 C514 1.574 . S
C506 C522 1.368 1_565 S
H507 C515 0.950 . S
H508 C513 0.950 . S
H509 C514 0.949 . S
H510 C516 0.950 . S
H511 C517 0.950 . S
H512 C518 0.949 . S
C513 H508 0.950 . S
C513 C515 1.327 . S
C513 C519 1.429 . S
C514 C506 1.574 . S
C514 H509 0.949 . S
C514 C520 1.368 1_565 S
C515 C499 1.349 . S
C515 H507 0.950 . S
C515 C513 1.327 . S
C516 C504 1.349 1_565 S
C516 H510 0.950 . S
C516 C517 1.327 . S
C517 H511 0.950 . S
C517 C516 1.327 . S
C517 C521 1.429 1_565 S
C518 C501 1.574 . S
C518 H512 0.949 . S
C518 C522 1.368 . S
C519 C500 1.429 1_545 S
C519 C513 1.429 . S
C519 C520 1.523 . S
C520 C501 1.368 . S
C520 C514 1.368 1_545 S
C520 C519 1.523 . S
C521 C505 1.429 . S
C521 C517 1.429 1_545 S
C521 C522 1.523 . S
C522 C506 1.368 1_545 S
C522 C518 1.368 . S
C522 C521 1.523 . S
H523 C498 0.950 . S
H524 C500 0.950 . S
H525 C501 0.949 . S
H526 C503 0.950 . S
H527 C505 0.950 . S
C528 C529 1.356 . S
C528 C530 1.327 . S
C528 H553 0.950 . S
C529 C528 1.356 . S
C529 C545 1.335 1_455 S
C530 C528 1.327 . S
C530 C549 1.442 . S
C530 H554 0.950 . S
C531 C548 1.574 . S
C531 C550 1.355 1_655 S
C531 H555 0.949 . S
H532 C536 0.949 . S
C533 C534 1.342 1_655 S
C533 C535 1.327 . S
C533 H556 0.950 . S
C534 C533 1.342 1_455 S
C534 C546 1.362 . S
C535 C533 1.327 . S
C535 C551 1.415 1_655 S
C535 H557 0.950 . S
C536 H532 0.949 . S
C536 C544 1.574 . S
C536 C552 1.382 . S
H537 C545 0.950 . S
H538 C543 0.950 . S
H539 C544 0.949 . S
H540 C546 0.950 . S
H541 C547 0.950 . S
H542 C548 0.949 . S
C543 H538 0.950 . S
C543 C545 1.327 . S
C543 C549 1.423 1_655 S
C544 C536 1.574 . S
C544 H539 0.949 . S
C544 C550 1.377 . S
C545 C529 1.335 1_655 S
C545 H537 0.950 . S
C545 C543 1.327 . S
C546 C534 1.362 . S
C546 H540 0.950 . S
C546 C547 1.327 . S
C547 H541 0.950 . S
C547 C546 1.327 . S
C547 C551 1.435 . S
C548 C531 1.574 . S
C548 H542 0.949 . S
C548 C552 1.360 1_655 S
C549 C530 1.442 . S
C549 C543 1.423 1_455 S
C549 C550 1.523 . S
C550 C531 1.355 1_455 S
C550 C544 1.377 . S
C550 C549 1.523 . S
C551 C535 1.415 1_455 S
C551 C547 1.435 . S
C551 C552 1.523 . S
C552 C536 1.382 . S
C552 C548 1.360 1_455 S
C552 C551 1.523 . S
H553 C528 0.950 . S
H554 C530 0.950 . S
H555 C531 0.949 . S
H556 C533 0.950 . S
H557 C535 0.950 . S
C558 C559 1.360 . S
C558 C560 1.327 . S
C558 H583 0.950 . S
C559 C558 1.360 . S
C559 C575 1.333 1_554 S
C560 C558 1.327 . S
C560 C579 1.445 . S
C560 H584 0.950 . S
C561 C578 1.574 . S
C561 C580 1.352 1_556 S
C561 H585 0.949 . S
H562 C566 0.949 . S
C563 C564 1.338 1_556 S
C563 C565 1.327 . S
C563 H586 0.950 . S
C564 C563 1.338 1_554 S
C564 C576 1.365 . S
C565 C563 1.327 . S
C565 C581 1.413 1_556 S
C565 H587 0.950 . S
C566 H562 0.949 . S
C566 C574 1.574 . S
C566 C582 1.385 . S
H567 C575 0.950 . S
H568 C573 0.950 . S
H569 C574 0.949 . S
H570 C576 0.950 . S
H571 C577 0.950 . S
H572 C578 0.949 . S
C573 H568 0.950 . S
C573 C575 1.327 . S
C573 C579 1.418 1_556 S
C574 C566 1.574 . S
C574 H569 0.949 . S
C574 C580 1.381 . S
C575 C559 1.333 1_556 S
C575 H567 0.950 . S
C575 C573 1.327 . S
C576 C564 1.365 . S
C576 H570 0.950 . S
C576 C577 1.327 . S
C577 H571 0.950 . S
C577 C576 1.327 . S
C577 C581 1.439 . S
C578 C561 1.574 . S
C578 H572 0.949 . S
C578 C582 1.356 1_556 S
C579 C560 1.445 . S
C579 C573 1.418 1_554 S
C579 C580 1.523 . S
C580 C561 1.352 1_554 S
C580 C574 1.381 . S
C580 C579 1.523 . S
C581 C565 1.413 1_554 S
C581 C577 1.439 . S
C581 C582 1.523 . S
C582 C566 1.385 . S
C582 C578 1.356 1_554 S
C582 C581 1.523 . S
H583 C558 0.950 . S
H584 C560 0.950 . S
H585 C561 0.949 . S
H586 C563 0.950 . S
H587 C565 0.950 . S
C588 C589 1.341 1_556 S
C588 C590 1.327 . S
C588 H613 0.950 . S
C589 C588 1.341 1_554 S
C589 C605 1.362 . S
C590 C588 1.327 . S
C590 C609 1.416 1_556 S
C590 H614 0.950 . S
C591 C608 1.574 . S
C591 C610 1.382 . S
C591 H615 0.949 . S
H592 C596 0.949 . S
C593 C594 1.357 . S
C593 C595 1.327 . S
C593 H616 0.950 . S
C594 C593 1.357 . S
C594 C606 1.336 1_554 S
C595 C593 1.327 . S
C595 C611 1.441 . S
C595 H617 0.950 . S
C596 H592 0.949 . S
C596 C604 1.574 . S
C596 C612 1.355 1_556 S
H597 C605 0.950 . S
H598 C603 0.950 . S
H599 C604 0.949 . S
H600 C606 0.950 . S
H601 C607 0.950 . S
H602 C608 0.949 . S
C603 H598 0.950 . S
C603 C605 1.327 . S
C603 C609 1.436 . S
C604 C596 1.574 . S
C604 H599 0.949 . S
C604 C610 1.359 1_556 S
C605 C589 1.362 . S
C605 H597 0.950 . S
C605 C603 1.327 . S
C606 C594 1.336 1_556 S
C606 H600 0.950 . S
C606 C607 1.327 . S
C607 H601 0.950 . S
C607 C606 1.327 . S
C607 C611 1.421 1_556 S
C608 C591 1.574 . S
C608 H602 0.949 . S
C608 C612 1.378 . S
C609 C590 1.416 1_554 S
C609 C603 1.436 . S
C609 C610 1.523 . S
C610 C591 1.382 . S
C610 C604 1.359 1_554 S
C610 C609 1.523 . S
C611 C595 1.441 . S
C611 C607 1.421 1_554 S
C611 C612 1.523 . S
C612 C596 1.355 1_554 S
C612 C608 1.378 . S
C612 C611 1.523 . S
H613 C588 0.950 . S
H614 C590 0.950 . S
H615 C591 0.949 . S
H616 C593 0.950 . S
H617 C595 0.950 . S
C618 C619 1.339 1_556 S
C618 C620 1.327 . S
C618 H643 0.950 . S
C619 C618 1.339 1_554 S
C619 C635 1.364 . S
C620 C618 1.327 . S
C620 C639 1.414 1_556 S
C620 H644 0.950 . S
C621 C638 1.574 . S
C621 C640 1.383 . S
C621 H645 0.949 . S
H622 C626 0.949 . S
C623 C624 1.358 . S
C623 C625 1.327 . S
C623 H646 0.950 . S
C624 C623 1.358 . S
C624 C636 1.334 1_554 S
C625 C623 1.327 . S
C625 C641 1.443 . S
C625 H647 0.950 . S
C626 H622 0.949 . S
C626 C634 1.574 . S
C626 C642 1.353 1_556 S
H627 C635 0.950 . S
H628 C633 0.950 . S
H629 C634 0.949 . S
H630 C636 0.950 . S
H631 C637 0.950 . S
H632 C638 0.949 . S
C633 H628 0.950 . S
C633 C635 1.327 . S
C633 C639 1.438 . S
C634 C626 1.574 . S
C634 H629 0.949 . S
C634 C640 1.357 1_556 S
C635 C619 1.364 . S
C635 H627 0.950 . S
C635 C633 1.327 . S
C636 C624 1.334 1_556 S
C636 H630 0.950 . S
C636 C637 1.327 . S
C637 H631 0.950 . S
C637 C636 1.327 . S
C637 C641 1.420 1_556 S
C638 C621 1.574 . S
C638 H632 0.949 . S
C638 C642 1.379 . S
C639 C620 1.414 1_554 S
C639 C633 1.438 . S
C639 C640 1.523 . S
C640 C621 1.383 . S
C640 C634 1.357 1_554 S
C640 C639 1.523 . S
C641 C625 1.443 . S
C641 C637 1.420 1_554 S
C641 C642 1.523 . S
C642 C626 1.353 1_554 S
C642 C638 1.379 . S
C642 C641 1.523 . S
H643 C618 0.950 . S
H644 C620 0.950 . S
H645 C621 0.949 . S
H646 C623 0.950 . S
H647 C625 0.950 . S
C648 C649 1.341 1_556 S
C648 C650 1.327 . S
C648 H673 0.950 . S
C649 C648 1.341 1_554 S
C649 C665 1.352 . S
C650 C648 1.327 . S
C650 C669 1.426 1_556 S
C650 H674 0.950 . S
C651 C668 1.574 . S
C651 C670 1.373 . S
C651 H675 0.949 . S
H652 C656 0.949 . S
C653 C654 1.357 . S
C653 C655 1.327 . S
C653 H676 0.950 . S
C654 C653 1.357 . S
C654 C666 1.346 1_554 S
C655 C653 1.327 . S
C655 C671 1.432 . S
C655 H677 0.950 . S
C656 H652 0.949 . S
C656 C664 1.574 . S
C656 C672 1.364 1_556 S
H657 C665 0.950 . S
H658 C663 0.950 . S
H659 C664 0.949 . S
H660 C666 0.950 . S
H661 C667 0.950 . S
H662 C668 0.949 . S
C663 H658 0.950 . S
C663 C665 1.327 . S
C663 C669 1.437 . S
C664 C656 1.574 . S
C664 H659 0.949 . S
C664 C670 1.360 1_556 S
C665 C649 1.352 . S
C665 H657 0.950 . S
C665 C663 1.327 . S
C666 C654 1.346 1_556 S
C666 H660 0.950 . S
C666 C667 1.327 . S
C667 H661 0.950 . S
C667 C666 1.327 . S
C667 C671 1.420 1_556 S
C668 C651 1.574 . S
C668 H662 0.949 . S
C668 C672 1.376 . S
C669 C650 1.426 1_554 S
C669 C663 1.437 . S
C669 C670 1.523 . S
C670 C651 1.373 . S
C670 C664 1.360 1_554 S
C670 C669 1.523 . S
C671 C655 1.432 . S
C671 C667 1.420 1_554 S
C671 C672 1.523 . S
C672 C656 1.364 1_554 S
C672 C668 1.376 . S
C672 C671 1.523 . S
H673 C648 0.950 . S
H674 C650 0.950 . S
H675 C651 0.949 . S
H676 C653 0.950 . S
H677 C655 0.950 . S
C319 C29 1.507 . S
C324 C241 1.495 . S
C349 C38 1.504 . S
C354 C303 1.499 . S
C379 C234 1.506 . S
C384 C22 1.490 1_455 S
C409 C304 1.499 . S
C414 C39 1.499 . S
C439 C294 1.500 . S
C444 C91 1.500 . S
C469 C128 1.507 . S
C474 C251 1.494 . S
C499 C287 1.500 . S
C504 C92 1.503 . S
C529 C250 1.506 . S
C534 C135 1.490 1_455 S
C559 C144 1.505 . S
C564 C198 1.504 . S
C589 C188 1.504 . S
C594 C75 1.505 . S
C619 C145 1.486 1_554 S
C624 C197 1.505 . S
C649 C181 1.504 . S
C654 C82 1.490 1_554 S
