# Generated by pormake.
# Topology uki, (4)-cn, num edge types: 1
# Building blocks:
#     Node 0, Type 0, BuildingBlock: CEKHIL_clean_sbu_0, # of connection points: 4
#     Node 1, Type 0, BuildingBlock: CEKHIL_clean_sbu_0, # of connection points: 4
#     Node 2, Type 0, BuildingBlock: CEKHIL_clean_sbu_0, # of connection points: 4
#     Node 3, Type 0, BuildingBlock: CEKHIL_clean_sbu_0, # of connection points: 4
#     Node 4, Type 0, BuildingBlock: CEKHIL_clean_sbu_0, # of connection points: 4
#     Node 5, Type 0, BuildingBlock: CEKHIL_clean_sbu_0, # of connection points: 4
#     Node 6, Type 0, BuildingBlock: CEKHIL_clean_sbu_0, # of connection points: 4
#     Node 7, Type 0, BuildingBlock: CEKHIL_clean_sbu_0, # of connection points: 4
#     Node 8, Type 0, BuildingBlock: CEKHIL_clean_sbu_0, # of connection points: 4
#     Node 9, Type 0, BuildingBlock: CEKHIL_clean_sbu_0, # of connection points: 4
#     Node 10, Type 0, BuildingBlock: CEKHIL_clean_sbu_0, # of connection points: 4
#     Node 11, Type 0, BuildingBlock: CEKHIL_clean_sbu_0, # of connection points: 4
#     Node 12, Type 0, BuildingBlock: CEKHIL_clean_sbu_0, # of connection points: 4
#     Node 13, Type 0, BuildingBlock: CEKHIL_clean_sbu_0, # of connection points: 4
#     Node 14, Type 0, BuildingBlock: CEKHIL_clean_sbu_0, # of connection points: 4
#     Node 15, Type 0, BuildingBlock: CEKHIL_clean_sbu_0, # of connection points: 4
#     Edge 16, Type (0, 0), BuildingBlock: TEMPAE_clean_linker_10, # of connection points: 2
#     Edge 17, Type (0, 0), BuildingBlock: TEMPAE_clean_linker_10, # of connection points: 2
#     Edge 18, Type (0, 0), BuildingBlock: TEMPAE_clean_linker_10, # of connection points: 2
#     Edge 19, Type (0, 0), BuildingBlock: TEMPAE_clean_linker_10, # of connection points: 2
#     Edge 20, Type (0, 0), BuildingBlock: TEMPAE_clean_linker_10, # of connection points: 2
#     Edge 21, Type (0, 0), BuildingBlock: TEMPAE_clean_linker_10, # of connection points: 2
#     Edge 22, Type (0, 0), BuildingBlock: TEMPAE_clean_linker_10, # of connection points: 2
#     Edge 23, Type (0, 0), BuildingBlock: TEMPAE_clean_linker_10, # of connection points: 2
#     Edge 24, Type (0, 0), BuildingBlock: TEMPAE_clean_linker_10, # of connection points: 2
#     Edge 25, Type (0, 0), BuildingBlock: TEMPAE_clean_linker_10, # of connection points: 2
#     Edge 26, Type (0, 0), BuildingBlock: TEMPAE_clean_linker_10, # of connection points: 2
#     Edge 27, Type (0, 0), BuildingBlock: TEMPAE_clean_linker_10, # of connection points: 2
#     Edge 28, Type (0, 0), BuildingBlock: TEMPAE_clean_linker_10, # of connection points: 2
#     Edge 29, Type (0, 0), BuildingBlock: TEMPAE_clean_linker_10, # of connection points: 2
#     Edge 30, Type (0, 0), BuildingBlock: TEMPAE_clean_linker_10, # of connection points: 2
#     Edge 31, Type (0, 0), BuildingBlock: TEMPAE_clean_linker_10, # of connection points: 2
#     Edge 32, Type (0, 0), BuildingBlock: TEMPAE_clean_linker_10, # of connection points: 2
#     Edge 33, Type (0, 0), BuildingBlock: TEMPAE_clean_linker_10, # of connection points: 2
#     Edge 34, Type (0, 0), BuildingBlock: TEMPAE_clean_linker_10, # of connection points: 2
#     Edge 35, Type (0, 0), BuildingBlock: TEMPAE_clean_linker_10, # of connection points: 2
#     Edge 36, Type (0, 0), BuildingBlock: TEMPAE_clean_linker_10, # of connection points: 2
#     Edge 37, Type (0, 0), BuildingBlock: TEMPAE_clean_linker_10, # of connection points: 2
#     Edge 38, Type (0, 0), BuildingBlock: TEMPAE_clean_linker_10, # of connection points: 2
#     Edge 39, Type (0, 0), BuildingBlock: TEMPAE_clean_linker_10, # of connection points: 2
#     Edge 40, Type (0, 0), BuildingBlock: TEMPAE_clean_linker_10, # of connection points: 2
#     Edge 41, Type (0, 0), BuildingBlock: TEMPAE_clean_linker_10, # of connection points: 2
#     Edge 42, Type (0, 0), BuildingBlock: TEMPAE_clean_linker_10, # of connection points: 2
#     Edge 43, Type (0, 0), BuildingBlock: TEMPAE_clean_linker_10, # of connection points: 2
#     Edge 44, Type (0, 0), BuildingBlock: TEMPAE_clean_linker_10, # of connection points: 2
#     Edge 45, Type (0, 0), BuildingBlock: TEMPAE_clean_linker_10, # of connection points: 2
#     Edge 46, Type (0, 0), BuildingBlock: TEMPAE_clean_linker_10, # of connection points: 2
#     Edge 47, Type (0, 0), BuildingBlock: TEMPAE_clean_linker_10, # of connection points: 2
# Relax obj value: 0.100
# Max RMSD: 0.196
# Mean RMSD: 0.196
data_MOF--net-uki--node1-CEKHIL_clean_sbu_0--edge1-TEMPAE_clean_linker_10
_symmetry_space_group_name_H-M    P1
_symmetry_Int_Tables_number       1
_symmetry_cell_setting            triclinic
loop_
_symmetry_equiv_pos_as_xyz
'x, y, z'
_cell_length_a     30.695543
_cell_length_b     30.664918
_cell_length_c     73.211596
_cell_angle_alpha  89.990609
_cell_angle_beta   89.989987
_cell_angle_gamma 90.039137
loop_
_atom_site_label
_atom_site_type_symbol
_atom_site_fract_x
_atom_site_fract_y
_atom_site_fract_z
_atom_type_partial_charge
Co0 Co 0.1218 0.21141 0.29219 0.0
O1 O 0.17345 0.18373 0.3017 0.0
O2 O 0.11433 0.19877 0.31786 0.0
C3 C 0.15617 0.26612 0.27741 0.0
O4 O 0.06303 0.24043 0.28734 0.0
Co5 Co 0.10506 0.21906 0.2504 0.0
O6 O 0.06248 0.26383 0.25824 0.0
C7 C 0.08183 0.13752 0.26996 0.0
C8 C 0.15397 0.18383 0.31744 0.0
C9 C 0.04607 0.2626 0.2742 0.0
O10 O 0.09607 0.15328 0.28513 0.0
O11 O 0.08387 0.15791 0.2547 0.0
O12 O 0.14909 0.26833 0.29485 0.0
O13 O 0.14636 0.22935 0.26979 0.0
Co14 Co 0.21476 0.87126 0.70469 0.0
O15 O 0.18781 0.82078 0.69389 0.0
O16 O 0.20987 0.87892 0.67851 0.0
C17 C 0.2632 0.83515 0.72216 0.0
O18 O 0.24443 0.92875 0.71136 0.0
Co19 Co 0.20725 0.88544 0.74685 0.0
O20 O 0.25193 0.93083 0.74201 0.0
C21 C 0.13356 0.90867 0.7229 0.0
C22 C 0.19289 0.84 0.67825 0.0
C23 C 0.25924 0.94617 0.72612 0.0
O24 O 0.15644 0.89956 0.70869 0.0
O25 O 0.14643 0.90174 0.73929 0.0
O26 O 0.2708 0.84169 0.70495 0.0
O27 O 0.22473 0.84597 0.72771 0.0
Co28 Co 0.87105 0.78213 0.29196 0.0
O29 O 0.81984 0.80979 0.30194 0.0
O30 O 0.87925 0.79347 0.31768 0.0
C31 C 0.83571 0.72848 0.27693 0.0
O32 O 0.92948 0.75284 0.2867 0.0
Co33 Co 0.88701 0.77572 0.25007 0.0
O34 O 0.9298 0.73071 0.25744 0.0
C35 C 0.91165 0.85624 0.2701 0.0
C36 C 0.83968 0.8086 0.3176 0.0
C37 C 0.94632 0.73124 0.27338 0.0
O38 O 0.89721 0.84032 0.28522 0.0
O39 O 0.90928 0.8363 0.25475 0.0
O40 O 0.84323 0.7254 0.29431 0.0
O41 O 0.84585 0.76541 0.26952 0.0
Co42 Co 0.78463 0.1315 0.70734 0.0
O43 O 0.80746 0.18128 0.69455 0.0
O44 O 0.78684 0.11971 0.6813 0.0
C45 C 0.73631 0.16753 0.7249 0.0
O46 O 0.75936 0.07385 0.71655 0.0
Co47 Co 0.8018 0.12756 0.74947 0.0
O48 O 0.76941 0.0719 0.74714 0.0
C49 C 0.87149 0.1029 0.72403 0.0
C50 C 0.80215 0.15914 0.67965 0.0
C51 C 0.75618 0.05494 0.73223 0.0
O52 O 0.84494 0.10707 0.71056 0.0
O53 O 0.86204 0.11368 0.74045 0.0
O54 O 0.72701 0.15784 0.70811 0.0
O55 O 0.77615 0.16032 0.72972 0.0
Co56 Co 0.12729 0.28946 0.95971 0.0
O57 O 0.18199 0.31233 0.9512 0.0
O58 O 0.12286 0.30531 0.93411 0.0
C59 C 0.15617 0.23088 0.97394 0.0
O60 O 0.06599 0.26521 0.96372 0.0
Co61 Co 0.10832 0.28009 0.0013 0.0
O62 O 0.06393 0.23836 0.99229 0.0
C63 C 0.09093 0.36418 0.98252 0.0
C64 C 0.16397 0.31537 0.93524 0.0
C65 C 0.04774 0.24242 0.97637 0.0
O66 O 0.10604 0.34902 0.96737 0.0
O67 O 0.09051 0.34243 0.99746 0.0
O68 O 0.14951 0.23053 0.95645 0.0
O69 O 0.14915 0.26775 0.98198 0.0
Co70 Co 0.28744 0.86609 0.03977 0.0
O71 O 0.31468 0.81542 0.05043 0.0
O72 O 0.29602 0.87496 0.06564 0.0
C73 C 0.23577 0.82988 0.02391 0.0
O74 O 0.25794 0.92404 0.03372 0.0
Co75 Co 0.28511 0.88088 0.99766 0.0
O76 O 0.23925 0.92369 0.00401 0.0
C77 C 0.36287 0.9075 0.01909 0.0
C78 C 0.3116 0.83554 0.06598 0.0
C79 C 0.23766 0.94031 0.01992 0.0
O80 O 0.3458 0.89304 0.03397 0.0
O81 O 0.3446 0.90434 0.00341 0.0
O82 O 0.23096 0.83756 0.04121 0.0
O83 O 0.27331 0.84022 0.01715 0.0
Co84 Co 0.86998 0.71333 0.95975 0.0
O85 O 0.81844 0.6848 0.9505 0.0
O86 O 0.87667 0.70125 0.93402 0.0
C87 C 0.83497 0.76727 0.97477 0.0
O88 O 0.92835 0.74344 0.96421 0.0
Co89 Co 0.88822 0.72179 0.00142 0.0
O90 O 0.92992 0.76708 0.99325 0.0
C91 C 0.91404 0.64129 0.98157 0.0
C92 C 0.83715 0.68597 0.9346 0.0
C93 C 0.94567 0.76586 0.97718 0.0
O94 O 0.89747 0.65578 0.96658 0.0
O95 O 0.91245 0.66199 0.99676 0.0
O96 O 0.84143 0.76962 0.95729 0.0
O97 O 0.84588 0.73075 0.98234 0.0
Co98 Co 0.70999 0.13323 0.03961 0.0
O99 O 0.68154 0.18258 0.05081 0.0
O100 O 0.70269 0.12294 0.06543 0.0
C101 C 0.75997 0.17172 0.02372 0.0
O102 O 0.74085 0.0764 0.03304 0.0
Co103 Co 0.71188 0.1197 0.99749 0.0
O104 O 0.75922 0.07809 0.00333 0.0
C105 C 0.63541 0.09009 0.01911 0.0
C106 C 0.6858 0.16177 0.06616 0.0
C107 C 0.76119 0.06082 0.01911 0.0
O108 O 0.65229 0.10485 0.03397 0.0
O109 O 0.65332 0.094 0.00338 0.0
O110 O 0.76561 0.16336 0.04093 0.0
O111 O 0.7226 0.16042 0.01707 0.0
Co112 Co 0.61858 0.71906 0.79729 0.0
O113 O 0.66967 0.69355 0.80812 0.0
O114 O 0.60879 0.70869 0.82308 0.0
C115 C 0.65198 0.77363 0.78212 0.0
O116 O 0.56018 0.74597 0.7905 0.0
Co117 Co 0.60893 0.71831 0.75494 0.0
O118 O 0.56305 0.76208 0.7605 0.0
C119 C 0.58656 0.63942 0.77598 0.0
C120 C 0.64864 0.69421 0.82348 0.0
C121 C 0.5447 0.76436 0.7761 0.0
O122 O 0.59456 0.65982 0.79096 0.0
O123 O 0.59336 0.65569 0.76011 0.0
O124 O 0.64346 0.7771 0.79941 0.0
O125 O 0.64551 0.73537 0.77517 0.0
Co126 Co 0.70852 0.36482 0.20867 0.0
O127 O 0.68226 0.31433 0.19753 0.0
O128 O 0.70168 0.37416 0.18269 0.0
C129 C 0.75906 0.32909 0.22525 0.0
O130 O 0.73715 0.42255 0.21552 0.0
Co131 Co 0.70354 0.37711 0.25092 0.0
O132 O 0.74797 0.42273 0.24597 0.0
C133 C 0.62795 0.40052 0.22805 0.0
C134 C 0.68579 0.33483 0.18209 0.0
C135 C 0.75333 0.43925 0.23016 0.0
O136 O 0.64982 0.39148 0.21355 0.0
O137 O 0.64215 0.39379 0.24426 0.0
O138 O 0.76527 0.33673 0.20801 0.0
O139 O 0.72067 0.33856 0.23135 0.0
Co140 Co 0.37551 0.28325 0.79466 0.0
O141 O 0.32174 0.30588 0.80425 0.0
O142 O 0.38133 0.29441 0.82064 0.0
C143 C 0.34538 0.2281 0.7786 0.0
O144 O 0.43587 0.25847 0.78938 0.0
Co145 Co 0.39149 0.28472 0.75264 0.0
O146 O 0.43776 0.24238 0.75936 0.0
C147 C 0.40778 0.36418 0.77425 0.0
C148 C 0.34065 0.30627 0.82007 0.0
C149 C 0.45389 0.24051 0.77539 0.0
O150 O 0.39812 0.34345 0.78899 0.0
O151 O 0.40408 0.34774 0.75824 0.0
O152 O 0.352 0.22432 0.79604 0.0
O153 O 0.35254 0.26646 0.77189 0.0
Co154 Co 0.2831 0.62912 0.20764 0.0
O155 O 0.31012 0.67893 0.19626 0.0
O156 O 0.28905 0.61929 0.18165 0.0
C157 C 0.23348 0.66597 0.2243 0.0
O158 O 0.25371 0.57198 0.21483 0.0
Co159 Co 0.28888 0.61787 0.24999 0.0
O160 O 0.24478 0.57171 0.2454 0.0
C161 C 0.36364 0.59321 0.22691 0.0
C162 C 0.30573 0.65827 0.1809 0.0
C163 C 0.23843 0.55528 0.22964 0.0
O164 O 0.3414 0.60144 0.21242 0.0
O165 O 0.35009 0.6011 0.24312 0.0
O166 O 0.22682 0.65821 0.20711 0.0
O167 O 0.27183 0.65599 0.23027 0.0
Co168 Co 0.63351 0.78985 0.45906 0.0
O169 O 0.68448 0.81327 0.44725 0.0
O170 O 0.62212 0.79859 0.43331 0.0
C171 C 0.66715 0.73585 0.47449 0.0
O172 O 0.57453 0.7649 0.46678 0.0
Co173 Co 0.62775 0.79351 0.5018 0.0
O174 O 0.57193 0.76294 0.49762 0.0
C175 C 0.60355 0.87079 0.47988 0.0
C176 C 0.66229 0.81195 0.43219 0.0
C177 C 0.55507 0.75625 0.48196 0.0
O178 O 0.6118 0.85031 0.46494 0.0
O179 O 0.61017 0.85474 0.49579 0.0
O180 O 0.65729 0.73113 0.45738 0.0
O181 O 0.66135 0.7745 0.48106 0.0
Co182 Co 0.78282 0.36954 0.53903 0.0
O183 O 0.81033 0.31802 0.54888 0.0
O184 O 0.79218 0.37638 0.56495 0.0
C185 C 0.73061 0.33432 0.52303 0.0
O186 O 0.75308 0.42786 0.53404 0.0
Co187 Co 0.77827 0.38793 0.49726 0.0
O188 O 0.73189 0.42917 0.50467 0.0
C189 C 0.85656 0.41422 0.5185 0.0
C190 C 0.80746 0.33684 0.56472 0.0
C191 C 0.73164 0.44497 0.52074 0.0
O192 O 0.84097 0.39724 0.53322 0.0
O193 O 0.83719 0.41283 0.50301 0.0
O194 O 0.7264 0.34078 0.54044 0.0
O195 O 0.76783 0.34537 0.51615 0.0
Co196 Co 0.36983 0.2099 0.45485 0.0
O197 O 0.32053 0.17957 0.44457 0.0
O198 O 0.37906 0.20004 0.42907 0.0
C199 C 0.33117 0.26071 0.47014 0.0
O200 O 0.42645 0.24223 0.46055 0.0
Co201 Co 0.38463 0.21624 0.49687 0.0
O202 O 0.42489 0.26389 0.48987 0.0
C203 C 0.41596 0.1389 0.47625 0.0
C204 C 0.34047 0.18248 0.42898 0.0
C205 C 0.44198 0.26428 0.47403 0.0
O206 O 0.3994 0.15334 0.46128 0.0
O207 O 0.41272 0.15848 0.49164 0.0
O208 O 0.33876 0.26493 0.4528 0.0
O209 O 0.34334 0.22416 0.47731 0.0
Co210 Co 0.21063 0.62472 0.53918 0.0
O211 O 0.18727 0.67702 0.54994 0.0
O212 O 0.19886 0.61524 0.56485 0.0
C213 C 0.26722 0.65628 0.52467 0.0
O214 O 0.23524 0.56491 0.53267 0.0
Co215 Co 0.21428 0.61362 0.49702 0.0
O216 O 0.25743 0.56802 0.50342 0.0
C217 C 0.13323 0.59145 0.51711 0.0
C218 C 0.18681 0.65591 0.56529 0.0
C219 C 0.25609 0.54919 0.51891 0.0
O220 O 0.15055 0.60375 0.53227 0.0
O221 O 0.1527 0.59416 0.50166 0.0
O222 O 0.26945 0.64689 0.54192 0.0
O223 O 0.22933 0.65116 0.51721 0.0
C224 C 0.19001 0.33961 0.27586 0.0
C225 C 0.16899 0.30519 0.26691 0.0
C226 C 0.19995 0.3784 0.26665 0.0
C227 C 0.18738 0.38344 0.24815 0.0
C228 C 0.16657 0.34858 0.23894 0.0
C229 C 0.15827 0.30948 0.24837 0.0
C230 C 0.22332 0.4143 0.27686 0.0
C231 C 0.1517 0.35316 0.21939 0.0
C232 C 0.17903 0.50353 0.23727 0.0
C233 C 0.21966 0.5113 0.22926 0.0
C234 C 0.16599 0.46096 0.24173 0.0
C235 C 0.19526 0.42589 0.23887 0.0
C236 C 0.23518 0.43342 0.22967 0.0
C237 C 0.24662 0.47615 0.22473 0.0
C238 C 0.12247 0.45412 0.2509 0.0
C239 C 0.26788 0.39731 0.22681 0.0
H240 H 0.19866 0.33622 0.29015 0.0
H241 H 0.14198 0.28295 0.2414 0.0
H242 H 0.25251 0.42498 0.26912 0.0
H243 H 0.20158 0.44298 0.27828 0.0
H244 H 0.23374 0.4039 0.29073 0.0
H245 H 0.13789 0.32232 0.21391 0.0
H246 H 0.12645 0.37896 0.2185 0.0
H247 H 0.17921 0.36344 0.21056 0.0
H248 H 0.15846 0.53095 0.2409 0.0
H249 H 0.27847 0.48249 0.21886 0.0
H250 H 0.12746 0.44908 0.26576 0.0
H251 H 0.1061 0.4246 0.24544 0.0
H252 H 0.10058 0.48262 0.24903 0.0
H253 H 0.28307 0.38889 0.2401 0.0
H254 H 0.29411 0.407 0.21716 0.0
H255 H 0.2518 0.36746 0.22155 0.0
C256 C 0.49155 0.82127 0.76719 0.0
C257 C 0.5004 0.78235 0.77643 0.0
C258 C 0.44874 0.83243 0.76247 0.0
C259 C 0.41446 0.803 0.7665 0.0
C260 C 0.42286 0.76565 0.77732 0.0
C261 C 0.46591 0.75602 0.78238 0.0
C262 C 0.44093 0.87342 0.75154 0.0
C263 C 0.38741 0.73321 0.78175 0.0
C264 C 0.29972 0.83655 0.75277 0.0
C265 C 0.2986 0.82211 0.73461 0.0
C266 C 0.33685 0.82976 0.76366 0.0
C267 C 0.37278 0.80678 0.75631 0.0
C268 C 0.37036 0.78959 0.73837 0.0
C269 C 0.33359 0.79808 0.72766 0.0
C270 C 0.33855 0.84941 0.78253 0.0
C271 C 0.4074 0.76371 0.73016 0.0
H272 H 0.51839 0.8416 0.76265 0.0
H273 H 0.47295 0.72564 0.78937 0.0
H274 H 0.43649 0.8648 0.73693 0.0
H275 H 0.41086 0.89013 0.75619 0.0
H276 H 0.46873 0.89651 0.7526 0.0
H277 H 0.39713 0.71092 0.793 0.0
H278 H 0.35679 0.74999 0.78563 0.0
H279 H 0.38049 0.71324 0.76944 0.0
H280 H 0.27262 0.85501 0.7582 0.0
H281 H 0.33251 0.78648 0.71368 0.0
H282 H 0.36033 0.87831 0.78234 0.0
H283 H 0.35224 0.82595 0.79253 0.0
H284 H 0.30587 0.85998 0.78732 0.0
H285 H 0.43597 0.78531 0.72805 0.0
H286 H 0.3985 0.74896 0.71681 0.0
H287 H 0.41751 0.73725 0.73959 0.0
C288 C 0.81205 0.49124 0.23833 0.0
C289 C 0.7724 0.48313 0.22956 0.0
C290 C 0.82491 0.534 0.24247 0.0
C291 C 0.79641 0.56905 0.23845 0.0
C292 C 0.75777 0.56114 0.2284 0.0
C293 C 0.74652 0.51811 0.22383 0.0
C294 C 0.86716 0.5412 0.25258 0.0
C295 C 0.72598 0.5973 0.22419 0.0
C296 C 0.79884 0.65663 0.27488 0.0
C297 C 0.82209 0.69003 0.26623 0.0
C298 C 0.78862 0.61799 0.26563 0.0
C299 C 0.80336 0.61196 0.24746 0.0
C300 C 0.82612 0.64597 0.2385 0.0
C301 C 0.83452 0.68506 0.24792 0.0
C302 C 0.76298 0.58313 0.27551 0.0
C303 C 0.84337 0.64033 0.21935 0.0
H304 H 0.83186 0.46398 0.24281 0.0
H305 H 0.71545 0.51158 0.21731 0.0
H306 H 0.88458 0.5701 0.24711 0.0
H307 H 0.86018 0.54749 0.26722 0.0
H308 H 0.88897 0.51237 0.25166 0.0
H309 H 0.70153 0.58727 0.21382 0.0
H310 H 0.70843 0.60638 0.23689 0.0
H311 H 0.74316 0.62682 0.21923 0.0
H312 H 0.78881 0.66064 0.28898 0.0
H313 H 0.85243 0.71087 0.24118 0.0
H314 H 0.78394 0.55421 0.27786 0.0
H315 H 0.73492 0.57243 0.26706 0.0
H316 H 0.75052 0.59457 0.28893 0.0
H317 H 0.86949 0.61533 0.21938 0.0
H318 H 0.85693 0.67114 0.21373 0.0
H319 H 0.81733 0.62847 0.2101 0.0
C320 C 0.53186 0.24856 0.78372 0.0
C321 C 0.49813 0.22252 0.77685 0.0
C322 C 0.57555 0.23884 0.77964 0.0
C323 C 0.58527 0.20189 0.76877 0.0
C324 C 0.55147 0.17266 0.76387 0.0
C325 C 0.50816 0.18374 0.76772 0.0
C326 C 0.61051 0.27084 0.78514 0.0
C327 C 0.56048 0.13217 0.75277 0.0
C328 C 0.66813 0.20781 0.73075 0.0
C329 C 0.70196 0.182 0.73755 0.0
C330 C 0.63139 0.21697 0.74137 0.0
C331 C 0.62781 0.19876 0.7591 0.0
C332 C 0.6629 0.17433 0.7664 0.0
C333 C 0.69999 0.1666 0.75555 0.0
C334 C 0.59531 0.24418 0.73317 0.0
C335 C 0.66017 0.15391 0.78511 0.0
H336 H 0.52399 0.27879 0.79067 0.0
H337 H 0.48192 0.16358 0.76248 0.0
H338 H 0.64079 0.2537 0.78923 0.0
H339 H 0.61849 0.29198 0.7733 0.0
H340 H 0.59968 0.29203 0.79658 0.0
H341 H 0.5325 0.10917 0.75302 0.0
H342 H 0.56677 0.14151 0.73836 0.0
H343 H 0.58985 0.11508 0.75793 0.0
H344 H 0.66992 0.21997 0.71685 0.0
H345 H 0.72612 0.14638 0.76076 0.0
H346 H 0.58522 0.27019 0.74281 0.0
H347 H 0.56645 0.2233 0.73053 0.0
H348 H 0.6052 0.25966 0.72008 0.0
H349 H 0.64519 0.17662 0.79509 0.0
H350 H 0.69276 0.14394 0.79022 0.0
H351 H 0.63921 0.12447 0.78441 0.0
C352 C 0.24891 0.01936 0.0236 0.0
C353 C 0.21995 0.98462 0.02107 0.0
C354 C 0.23695 0.062 0.01882 0.0
C355 C 0.1946 0.06996 0.01188 0.0
C356 C 0.16385 0.0355 0.0112 0.0
C357 C 0.17725 0.99291 0.01539 0.0
C358 C 0.27117 0.09739 0.01927 0.0
C359 C 0.11794 0.04288 0.00451 0.0
C360 C 0.16042 0.18741 0.00291 0.0
C361 C 0.16698 0.19055 0.98399 0.0
C362 C 0.16875 0.14821 0.01225 0.0
C363 C 0.18503 0.11188 0.00248 0.0
C364 C 0.19249 0.1153 0.98344 0.0
C365 C 0.18291 0.15441 0.97442 0.0
C366 C 0.1595 0.14542 0.03247 0.0
C367 C 0.21062 0.07761 0.97253 0.0
H368 H 0.28224 0.01258 0.02762 0.0
H369 H 0.1551 0.96579 0.01329 0.0
H370 H 0.28186 0.10463 0.0051 0.0
H371 H 0.25776 0.12794 0.02508 0.0
H372 H 0.30019 0.08758 0.02735 0.0
H373 H 0.09611 0.01531 0.00817 0.0
H374 H 0.10435 0.07343 0.01029 0.0
H375 H 0.1181 0.04625 0.98942 0.0
H376 H 0.14791 0.21524 0.01036 0.0
H377 H 0.18823 0.15679 0.95981 0.0
H378 H 0.18964 0.13683 0.04 0.0
H379 H 0.13545 0.11913 0.03512 0.0
H380 H 0.14655 0.17652 0.03804 0.0
H381 H 0.24184 0.06646 0.97858 0.0
H382 H 0.21641 0.08632 0.958 0.0
H383 H 0.18764 0.0497 0.97298 0.0
C384 C 0.16259 0.79648 0.02066 0.0
C385 C 0.1981 0.81748 0.01252 0.0
C386 C 0.12422 0.78875 0.01085 0.0
C387 C 0.12077 0.80364 0.99258 0.0
C388 C 0.15707 0.82355 0.98405 0.0
C389 C 0.1957 0.82955 0.99406 0.0
C390 C 0.08676 0.76606 0.02032 0.0
C391 C 0.15437 0.84068 0.96476 0.0
C392 C 0.02302 0.75386 0.96927 0.0
C393 C 0.99031 0.78247 0.97511 0.0
C394 C 0.0669 0.76215 0.9734 0.0
C395 C 0.078 0.80046 0.98316 0.0
C396 C 0.04552 0.832 0.98693 0.0
C397 C 0.00181 0.82222 0.98316 0.0
C398 C 0.10033 0.72742 0.96932 0.0
C399 C 0.05622 0.874 0.9967 0.0
H400 H 0.16458 0.78663 0.03486 0.0
H401 H 0.22317 0.84557 0.98766 0.0
H402 H 0.05953 0.78935 0.0223 0.0
H403 H 0.07443 0.73883 0.01177 0.0
H404 H 0.09621 0.75284 0.03388 0.0
H405 H 0.1869 0.84966 0.95927 0.0
H406 H 0.13925 0.81625 0.95556 0.0
H407 H 0.13336 0.87011 0.96454 0.0
H408 H 0.014 0.72282 0.96325 0.0
H409 H 0.97638 0.84428 0.98767 0.0
H410 H 0.10698 0.7086 0.98196 0.0
H411 H 0.13153 0.74206 0.96476 0.0
H412 H 0.0887 0.70436 0.95867 0.0
H413 H 0.06141 0.86721 0.01143 0.0
H414 H 0.0295 0.89824 0.99543 0.0
H415 H 0.08668 0.88853 0.99125 0.0
C416 C 0.79912 0.83961 0.97656 0.0
C417 C 0.82233 0.80632 0.98528 0.0
C418 C 0.7903 0.87901 0.98549 0.0
C419 C 0.8064 0.88588 0.0034 0.0
C420 C 0.82897 0.85196 0.01248 0.0
C421 C 0.83597 0.81215 0.0034 0.0
C422 C 0.76478 0.91376 0.97552 0.0
C423 C 0.84756 0.85844 0.03136 0.0
C424 C 0.81841 0.00695 0.011 0.0
C425 C 0.77944 0.01655 0.02006 0.0
C426 C 0.83004 0.96364 0.00724 0.0
C427 C 0.80103 0.92951 0.01199 0.0
C428 C 0.76324 0.93893 0.02236 0.0
C429 C 0.75322 0.98247 0.02652 0.0
C430 C 0.87146 0.95484 0.99675 0.0
C431 C 0.73091 0.90377 0.02734 0.0
H432 H 0.78814 0.83498 0.96262 0.0
H433 H 0.85379 0.78643 0.01022 0.0
H434 H 0.73755 0.92561 0.98416 0.0
H435 H 0.78621 0.94205 0.97259 0.0
H436 H 0.75116 0.90173 0.96239 0.0
H437 H 0.86068 0.82768 0.03719 0.0
H438 H 0.87431 0.88276 0.03074 0.0
H439 H 0.82243 0.87156 0.04075 0.0
H440 H 0.83858 0.03344 0.00599 0.0
H441 H 0.72269 0.99003 0.03328 0.0
H442 H 0.86341 0.94776 0.98228 0.0
H443 H 0.88856 0.92592 0.00237 0.0
H444 H 0.89398 0.98322 0.9971 0.0
H445 H 0.71218 0.89444 0.01498 0.0
H446 H 0.70752 0.91495 0.03794 0.0
H447 H 0.74772 0.87411 0.03236 0.0
C448 C 0.79814 0.1771 0.99349 0.0
C449 C 0.79675 0.18634 0.01225 0.0
C450 C 0.83594 0.18553 0.98321 0.0
C451 C 0.87256 0.20454 0.99186 0.0
C452 C 0.87008 0.21649 0.01053 0.0
C453 C 0.83242 0.20679 0.02052 0.0
C454 C 0.83748 0.17183 0.96343 0.0
C455 C 0.90797 0.23786 0.02022 0.0
C456 C 0.99082 0.1863 0.98098 0.0
C457 C 0.00263 0.22726 0.97414 0.0
C458 C 0.94716 0.17644 0.98476 0.0
C459 C 0.91496 0.20894 0.9822 0.0
C460 C 0.92625 0.24876 0.97359 0.0
C461 C 0.97014 0.25731 0.96948 0.0
C462 C 0.93633 0.13303 0.99338 0.0
C463 C 0.89304 0.28435 0.97069 0.0
H464 H 0.77055 0.16145 0.98701 0.0
H465 H 0.83122 0.21447 0.03497 0.0
H466 H 0.85238 0.19768 0.95486 0.0
H467 H 0.85811 0.1423 0.9621 0.0
H468 H 0.80456 0.16415 0.958 0.0
H469 H 0.8993 0.24871 0.03424 0.0
H470 H 0.93546 0.21449 0.02122 0.0
H471 H 0.91961 0.26653 0.01236 0.0
H472 H 0.01609 0.16313 0.98457 0.0
H473 H 0.97943 0.28921 0.96439 0.0
H474 H 0.90567 0.11963 0.98764 0.0
H475 H 0.93145 0.1375 0.00828 0.0
H476 H 0.96282 0.10885 0.99134 0.0
H477 H 0.86158 0.27071 0.96591 0.0
H478 H 0.90457 0.30898 0.96066 0.0
H479 H 0.88694 0.30114 0.98387 0.0
C480 C 0.67881 0.80859 0.75315 0.0
C481 C 0.66281 0.81248 0.77102 0.0
C482 C 0.69134 0.84579 0.74316 0.0
C483 C 0.68733 0.88763 0.75121 0.0
C484 C 0.66895 0.89166 0.76887 0.0
C485 C 0.6572 0.85409 0.77857 0.0
C486 C 0.71079 0.84018 0.72438 0.0
C487 C 0.66364 0.9356 0.77795 0.0
C488 C 0.76641 0.97961 0.74306 0.0
C489 C 0.74075 0.00956 0.73344 0.0
C490 C 0.75051 0.93826 0.74758 0.0
C491 C 0.70749 0.92673 0.74258 0.0
C492 C 0.68241 0.95575 0.73174 0.0
C493 C 0.69952 0.99704 0.72719 0.0
C494 C 0.77865 0.90834 0.75896 0.0
C495 C 0.63649 0.94458 0.72611 0.0
H496 H 0.6828 0.77647 0.74721 0.0
H497 H 0.6441 0.8574 0.79225 0.0
H498 H 0.69636 0.86388 0.71466 0.0
H499 H 0.7463 0.84678 0.72497 0.0
H500 H 0.70584 0.80667 0.719 0.0
H501 H 0.6449 0.93347 0.7909 0.0
H502 H 0.6962 0.94953 0.78102 0.0
H503 H 0.64676 0.95862 0.76865 0.0
H504 H 0.79855 0.98931 0.74771 0.0
H505 H 0.67971 0.02036 0.71978 0.0
H506 H 0.77841 0.87483 0.75326 0.0
H507 H 0.76542 0.90655 0.77305 0.0
H508 H 0.81293 0.91986 0.75974 0.0
H509 H 0.63436 0.91027 0.72138 0.0
H510 H 0.6245 0.9664 0.71509 0.0
H511 H 0.61454 0.94799 0.73807 0.0
C512 C 0.99069 0.31945 0.26788 0.0
C513 C 0.00149 0.27959 0.27601 0.0
C514 C 0.9472 0.32979 0.26395 0.0
C515 C 0.91417 0.29872 0.26765 0.0
C516 C 0.92454 0.26038 0.27752 0.0
C517 C 0.96824 0.2515 0.2818 0.0
C518 C 0.93734 0.37181 0.25405 0.0
C519 C 0.89048 0.22624 0.28161 0.0
C520 C 0.79737 0.32913 0.25553 0.0
C521 C 0.79577 0.31649 0.23713 0.0
C522 C 0.83537 0.32278 0.26595 0.0
C523 C 0.87184 0.30213 0.25786 0.0
C524 C 0.86912 0.28681 0.23964 0.0
C525 C 0.83139 0.29475 0.22945 0.0
C526 C 0.83727 0.34036 0.28518 0.0
C527 C 0.90675 0.26346 0.2306 0.0
H528 H 0.01652 0.34116 0.26344 0.0
H529 H 0.97669 0.22041 0.28792 0.0
H530 H 0.93252 0.36492 0.2393 0.0
H531 H 0.90692 0.38675 0.25931 0.0
H532 H 0.96434 0.39574 0.25542 0.0
H533 H 0.90155 0.20315 0.29234 0.0
H534 H 0.85947 0.24145 0.28604 0.0
H535 H 0.8837 0.20734 0.26899 0.0
H536 H 0.76982 0.34583 0.26155 0.0
H537 H 0.83002 0.28453 0.21528 0.0
H538 H 0.85794 0.37005 0.28539 0.0
H539 H 0.8523 0.31633 0.29458 0.0
H540 H 0.80445 0.34911 0.29042 0.0
H541 H 0.9344 0.28638 0.22879 0.0
H542 H 0.89785 0.25008 0.21701 0.0
H543 H 0.91826 0.23626 0.23935 0.0
C544 C 0.32086 0.99632 0.73233 0.0
C545 C 0.2788 0.98981 0.72552 0.0
C546 C 0.33507 0.03817 0.73734 0.0
C547 C 0.30568 0.07372 0.73627 0.0
C548 C 0.26426 0.06765 0.72811 0.0
C549 C 0.25153 0.02569 0.72261 0.0
C550 C 0.38003 0.04348 0.74538 0.0
C551 C 0.23147 0.10424 0.72711 0.0
C552 C 0.31466 0.15352 0.77563 0.0
C553 C 0.3337 0.18993 0.7673 0.0
C554 C 0.30464 0.11603 0.76554 0.0
C555 C 0.31497 0.1144 0.74669 0.0
C556 C 0.3342 0.15112 0.73815 0.0
C557 C 0.3428 0.1888 0.74853 0.0
C558 C 0.2832 0.07802 0.77515 0.0
C559 C 0.34662 0.15019 0.71821 0.0
H560 H 0.34165 0.96832 0.73477 0.0
H561 H 0.21861 0.02029 0.71769 0.0
H562 H 0.39548 0.07403 0.74046 0.0
H563 H 0.37758 0.04556 0.76047 0.0
H564 H 0.4015 0.01552 0.7419 0.0
H565 H 0.20387 0.0962 0.71788 0.0
H566 H 0.2182 0.11044 0.74097 0.0
H567 H 0.24696 0.13485 0.72233 0.0
H568 H 0.30733 0.1544 0.79012 0.0
H569 H 0.35771 0.21686 0.74206 0.0
H570 H 0.3052 0.04934 0.77493 0.0
H571 H 0.25281 0.06865 0.76794 0.0
H572 H 0.27508 0.08553 0.7896 0.0
H573 H 0.37101 0.1241 0.71584 0.0
H574 H 0.36051 0.18173 0.71353 0.0
H575 H 0.31778 0.14235 0.7097 0.0
C576 C 0.00186 0.67498 0.26637 0.0
C577 C 0.99092 0.71417 0.27502 0.0
C578 C 0.04541 0.66494 0.26244 0.0
C579 C 0.07839 0.69566 0.26667 0.0
C580 C 0.06786 0.73321 0.27702 0.0
C581 C 0.02408 0.74179 0.28128 0.0
C582 C 0.05544 0.62369 0.252 0.0
C583 C 0.10186 0.76696 0.2817 0.0
C584 C 0.19517 0.66528 0.25458 0.0
C585 C 0.19708 0.67887 0.2363 0.0
C586 C 0.15711 0.6714 0.26498 0.0
C587 C 0.12096 0.69287 0.25703 0.0
C588 C 0.12413 0.70939 0.23899 0.0
C589 C 0.16187 0.70156 0.22879 0.0
C590 C 0.15474 0.65255 0.28399 0.0
C591 C 0.0869 0.73373 0.23014 0.0
H592 H 0.9761 0.65362 0.26157 0.0
H593 H 0.01553 0.77236 0.28781 0.0
H594 H 0.06078 0.63175 0.23739 0.0
H595 H 0.08565 0.60823 0.25722 0.0
H596 H 0.02834 0.59976 0.25289 0.0
H597 H 0.09061 0.78915 0.29273 0.0
H598 H 0.13279 0.75137 0.286 0.0
H599 H 0.10888 0.7869 0.26939 0.0
H600 H 0.22244 0.6479 0.26047 0.0
H601 H 0.16352 0.71254 0.21472 0.0
H602 H 0.13436 0.62266 0.28373 0.0
H603 H 0.13919 0.67579 0.29359 0.0
H604 H 0.18747 0.64374 0.2893 0.0
H605 H 0.05916 0.71116 0.22787 0.0
H606 H 0.09627 0.74817 0.21679 0.0
H607 H 0.07532 0.76027 0.23923 0.0
C608 C 0.67503 0.50033 0.51405 0.0
C609 C 0.71428 0.4894 0.52261 0.0
C610 C 0.66468 0.54398 0.51038 0.0
C611 C 0.69519 0.57705 0.51477 0.0
C612 C 0.73291 0.56642 0.52498 0.0
C613 C 0.74175 0.52255 0.52899 0.0
C614 C 0.62332 0.55409 0.50008 0.0
C615 C 0.76657 0.60047 0.52973 0.0
C616 C 0.70077 0.66295 0.47778 0.0
C617 C 0.67867 0.69788 0.48581 0.0
C618 C 0.70825 0.62435 0.48749 0.0
C619 C 0.69192 0.62007 0.50551 0.0
C620 C 0.67055 0.65574 0.5139 0.0
C621 C 0.66471 0.69462 0.50399 0.0
C622 C 0.73236 0.58759 0.47817 0.0
C623 C 0.65187 0.65211 0.5329 0.0
H624 H 0.65383 0.47456 0.50914 0.0
H625 H 0.77242 0.51397 0.53542 0.0
H626 H 0.60777 0.58408 0.50548 0.0
H627 H 0.63118 0.5599 0.48548 0.0
H628 H 0.59957 0.52679 0.50087 0.0
H629 H 0.789 0.58898 0.54062 0.0
H630 H 0.78621 0.60797 0.51739 0.0
H631 H 0.75095 0.63122 0.53425 0.0
H632 H 0.71182 0.66565 0.46375 0.0
H633 H 0.64735 0.72156 0.51018 0.0
H634 H 0.7098 0.55989 0.47577 0.0
H635 H 0.75914 0.5756 0.48702 0.0
H636 H 0.74639 0.59766 0.46483 0.0
H637 H 0.6231 0.6302 0.53262 0.0
H638 H 0.64151 0.68428 0.53836 0.0
H639 H 0.67592 0.63752 0.54241 0.0
C640 C 0.6575 0.30047 0.51987 0.0
C641 C 0.69268 0.32204 0.51172 0.0
C642 C 0.61922 0.2921 0.51007 0.0
C643 C 0.6155 0.30686 0.49179 0.0
C644 C 0.65136 0.32767 0.4833 0.0
C645 C 0.68991 0.33437 0.49331 0.0
C646 C 0.58225 0.26855 0.5195 0.0
C647 C 0.64833 0.34465 0.464 0.0
C648 C 0.52035 0.25417 0.46753 0.0
C649 C 0.48644 0.28194 0.47287 0.0
C650 C 0.56365 0.26351 0.47232 0.0
C651 C 0.57305 0.30211 0.48219 0.0
C652 C 0.53941 0.33264 0.48563 0.0
C653 C 0.49626 0.32177 0.48125 0.0
C654 C 0.59824 0.22964 0.46868 0.0
C655 C 0.54827 0.37487 0.49556 0.0
H656 H 0.65974 0.29047 0.53405 0.0
H657 H 0.71709 0.35092 0.48692 0.0
H658 H 0.55429 0.29105 0.52128 0.0
H659 H 0.57091 0.24079 0.51101 0.0
H660 H 0.59179 0.25591 0.53314 0.0
H661 H 0.68027 0.35633 0.4588 0.0
H662 H 0.63584 0.319 0.45469 0.0
H663 H 0.62487 0.37215 0.46354 0.0
H664 H 0.51261 0.22299 0.46133 0.0
H665 H 0.46991 0.34311 0.48543 0.0
H666 H 0.60484 0.21137 0.48147 0.0
H667 H 0.62922 0.24506 0.46431 0.0
H668 H 0.58782 0.20595 0.45805 0.0
H669 H 0.55302 0.3681 0.51031 0.0
H670 H 0.52085 0.39825 0.4941 0.0
H671 H 0.57849 0.39042 0.49037 0.0
C672 C 0.24353 0.47046 0.52422 0.0
C673 C 0.27224 0.50416 0.51954 0.0
C674 C 0.2529 0.42713 0.51944 0.0
C675 C 0.29233 0.41759 0.51022 0.0
C676 C 0.32342 0.45105 0.50735 0.0
C677 C 0.31262 0.49419 0.51174 0.0
C678 C 0.21858 0.39262 0.52249 0.0
C679 C 0.36645 0.44201 0.4981 0.0
C680 C 0.32678 0.30112 0.49983 0.0
C681 C 0.31669 0.29826 0.48118 0.0
C682 C 0.31826 0.33947 0.50971 0.0
C683 C 0.29799 0.37504 0.50081 0.0
C684 C 0.28534 0.37116 0.48227 0.0
C685 C 0.29539 0.33304 0.47263 0.0
C686 C 0.333 0.34271 0.52933 0.0
C687 C 0.26254 0.40789 0.47238 0.0
H688 H 0.212 0.47841 0.53002 0.0
H689 H 0.33469 0.52045 0.50813 0.0
H690 H 0.20199 0.3856 0.50934 0.0
H691 H 0.23341 0.36175 0.52733 0.0
H692 H 0.19362 0.40329 0.53252 0.0
H693 H 0.38972 0.46948 0.49981 0.0
H694 H 0.38148 0.41188 0.50363 0.0
H695 H 0.36099 0.43692 0.48327 0.0
H696 H 0.34307 0.27422 0.50653 0.0
H697 H 0.28711 0.3307 0.45827 0.0
H698 H 0.30647 0.35558 0.53808 0.0
H699 H 0.36063 0.36596 0.53027 0.0
H700 H 0.34375 0.31073 0.53484 0.0
H701 H 0.23399 0.4192 0.48038 0.0
H702 H 0.25127 0.39808 0.45856 0.0
H703 H 0.28507 0.43598 0.4709 0.0
C704 C 0.47972 0.76736 0.49234 0.0
C705 C 0.50906 0.74294 0.4819 0.0
C706 C 0.43742 0.75241 0.49561 0.0
C707 C 0.42432 0.71156 0.48848 0.0
C708 C 0.45286 0.68816 0.4768 0.0
C709 C 0.49516 0.70431 0.47356 0.0
C710 C 0.40806 0.77877 0.50796 0.0
C711 C 0.44001 0.64462 0.46888 0.0
C712 C 0.34776 0.65643 0.52154 0.0
C713 C 0.30693 0.66644 0.5141 0.0
C714 C 0.38627 0.66812 0.51256 0.0
C715 C 0.38399 0.69104 0.49579 0.0
C716 C 0.34287 0.6993 0.48771 0.0
C717 C 0.30466 0.68662 0.49695 0.0
C718 C 0.4294 0.65807 0.52157 0.0
C719 C 0.33914 0.72361 0.46987 0.0
H720 H 0.49059 0.79753 0.49861 0.0
H721 H 0.51806 0.68549 0.46551 0.0
H722 H 0.375 0.78164 0.50198 0.0
H723 H 0.40476 0.76195 0.52132 0.0
H724 H 0.42103 0.81208 0.51046 0.0
H725 H 0.4617 0.63492 0.45743 0.0
H726 H 0.44214 0.6193 0.47967 0.0
H727 H 0.40586 0.64526 0.46394 0.0
H728 H 0.3497 0.64 0.53463 0.0
H729 H 0.27309 0.69402 0.49108 0.0
H730 H 0.44473 0.68884 0.52631 0.0
H731 H 0.452 0.64269 0.51166 0.0
H732 H 0.4257 0.63599 0.5335 0.0
H733 H 0.34672 0.75857 0.47215 0.0
H734 H 0.30589 0.72117 0.46397 0.0
H735 H 0.363 0.71099 0.45979 0.0
C736 C 0.32637 0.19635 0.396 0.0
C737 C 0.31758 0.17202 0.41177 0.0
C738 C 0.29964 0.19288 0.3805 0.0
C739 C 0.26416 0.16327 0.38058 0.0
C740 C 0.25713 0.13634 0.39603 0.0
C741 C 0.28343 0.14165 0.41159 0.0
C742 C 0.30774 0.22293 0.36451 0.0
C743 C 0.22078 0.10318 0.39639 0.0
C744 C 0.16827 0.19486 0.35059 0.0
C745 C 0.17803 0.17297 0.33431 0.0
C746 C 0.19544 0.19102 0.36593 0.0
C747 C 0.23245 0.16346 0.36515 0.0
C748 C 0.24071 0.13895 0.34913 0.0
C749 C 0.21385 0.14465 0.33376 0.0
C750 C 0.18597 0.21854 0.38258 0.0
C751 C 0.27878 0.10795 0.34799 0.0
H752 H 0.35248 0.22017 0.39616 0.0
H753 H 0.27672 0.12265 0.42376 0.0
H754 H 0.31097 0.20388 0.35171 0.0
H755 H 0.27952 0.24517 0.36279 0.0
H756 H 0.3376 0.24297 0.36632 0.0
H757 H 0.22376 0.08049 0.40816 0.0
H758 H 0.18897 0.12013 0.3974 0.0
H759 H 0.22051 0.0839 0.38357 0.0
H760 H 0.14085 0.2171 0.351 0.0
H761 H 0.22133 0.12753 0.32119 0.0
H762 H 0.21315 0.24182 0.38484 0.0
H763 H 0.18362 0.19769 0.39491 0.0
H764 H 0.15522 0.23734 0.3812 0.0
H765 H 0.30964 0.12673 0.34741 0.0
H766 H 0.27697 0.08677 0.3357 0.0
H767 H 0.28014 0.08699 0.36033 0.0
C768 C 0.15051 0.7152 0.58298 0.0
C769 C 0.17857 0.67917 0.5826 0.0
C770 C 0.14723 0.7416 0.5986 0.0
C771 C 0.17396 0.73271 0.61392 0.0
C772 C 0.20155 0.69564 0.61374 0.0
C773 C 0.20294 0.66888 0.59818 0.0
C774 C 0.11621 0.77977 0.5985 0.0
C775 C 0.23137 0.68557 0.62959 0.0
C776 C 0.20742 0.82596 0.6452 0.0
C777 C 0.18368 0.81647 0.66105 0.0
C778 C 0.2039 0.79944 0.62961 0.0
C779 C 0.17503 0.76332 0.62974 0.0
C780 C 0.14914 0.75517 0.64537 0.0
C781 C 0.15427 0.78145 0.66094 0.0
C782 C 0.23271 0.80879 0.61335 0.0
C783 C 0.11699 0.71791 0.64586 0.0
H784 H 0.1316 0.72313 0.57092 0.0
H785 H 0.22512 0.64139 0.5978 0.0
H786 H 0.0962 0.77986 0.61113 0.0
H787 H 0.13492 0.81072 0.59824 0.0
H788 H 0.09412 0.77917 0.58648 0.0
H789 H 0.25014 0.65502 0.62748 0.0
H790 H 0.25471 0.71284 0.63153 0.0
H791 H 0.2123 0.68245 0.64239 0.0
H792 H 0.23047 0.85276 0.6453 0.0
H793 H 0.13568 0.77416 0.67317 0.0
H794 H 0.21271 0.81258 0.60085 0.0
H795 H 0.25504 0.78087 0.61104 0.0
H796 H 0.25255 0.83877 0.61523 0.0
H797 H 0.0959 0.71864 0.63355 0.0
H798 H 0.09598 0.71892 0.65821 0.0
H799 H 0.13474 0.68643 0.64574 0.0
C800 C 0.71831 0.85047 0.41348 0.0
C801 C 0.68364 0.82081 0.4145 0.0
C802 C 0.74291 0.85487 0.3974 0.0
C803 C 0.73366 0.82768 0.38225 0.0
C804 C 0.69775 0.79862 0.38305 0.0
C805 C 0.67269 0.7961 0.39908 0.0
C806 C 0.77981 0.88741 0.39687 0.0
C807 C 0.6874 0.76825 0.36741 0.0
C808 C 0.78009 0.84648 0.33468 0.0
C809 C 0.81611 0.8184 0.33472 0.0
C810 C 0.75414 0.85162 0.35036 0.0
C811 C 0.76355 0.82681 0.3662 0.0
C812 C 0.80053 0.79916 0.3664 0.0
C813 C 0.82676 0.79587 0.35075 0.0
C814 C 0.71603 0.88267 0.34983 0.0
C815 C 0.81118 0.77132 0.38282 0.0
H816 H 0.72666 0.86977 0.42539 0.0
H817 H 0.64617 0.77281 0.39993 0.0
H818 H 0.81143 0.86993 0.39707 0.0
H819 H 0.77858 0.90672 0.38406 0.0
H820 H 0.77889 0.91013 0.40868 0.0
H821 H 0.65739 0.74888 0.36989 0.0
H822 H 0.68323 0.78696 0.35457 0.0
H823 H 0.715 0.74542 0.3653 0.0
H824 H 0.77187 0.86403 0.32229 0.0
H825 H 0.8543 0.77374 0.35076 0.0
H826 H 0.71639 0.90419 0.36201 0.0
H827 H 0.68509 0.86399 0.35015 0.0
H828 H 0.71625 0.9033 0.33735 0.0
H829 H 0.81535 0.79207 0.3951 0.0
H830 H 0.84133 0.75186 0.38085 0.0
H831 H 0.78378 0.74864 0.38562 0.0
C832 C 0.78409 0.17028 0.64669 0.0
C833 C 0.81062 0.17966 0.66174 0.0
C834 C 0.78736 0.19484 0.63052 0.0
C835 C 0.81881 0.22862 0.62924 0.0
C836 C 0.84752 0.23621 0.64403 0.0
C837 C 0.84257 0.21215 0.66021 0.0
C838 C 0.75549 0.18631 0.61522 0.0
C839 C 0.88241 0.27087 0.64303 0.0
C840 C 0.84034 0.27392 0.58162 0.0
C841 C 0.81518 0.31208 0.58177 0.0
C842 C 0.84322 0.2472 0.59719 0.0
C843 C 0.81928 0.25824 0.61307 0.0
C844 C 0.79457 0.29725 0.61339 0.0
C845 C 0.79334 0.32399 0.59782 0.0
C846 C 0.87109 0.20669 0.59652 0.0
C847 C 0.76793 0.30988 0.62991 0.0
H848 H 0.75911 0.14544 0.64793 0.0
H849 H 0.86331 0.21925 0.67183 0.0
H850 H 0.73432 0.21529 0.61332 0.0
H851 H 0.7731 0.18093 0.60219 0.0
H852 H 0.73447 0.15754 0.61797 0.0
H853 H 0.90545 0.26892 0.6547 0.0
H854 H 0.90109 0.26782 0.63012 0.0
H855 H 0.8671 0.30362 0.64309 0.0
H856 H 0.85732 0.26463 0.56924 0.0
H857 H 0.77344 0.35319 0.59795 0.0
H858 H 0.8501 0.1773 0.59731 0.0
H859 H 0.89341 0.20579 0.60843 0.0
H860 H 0.89075 0.20485 0.5838 0.0
H861 H 0.74357 0.28406 0.63286 0.0
H862 H 0.75051 0.34128 0.62796 0.0
H863 H 0.78923 0.31277 0.64208 0.0
C864 C 0.17729 0.34805 0.90428 0.0
C865 C 0.19112 0.32197 0.91885 0.0
C866 C 0.20269 0.35163 0.88831 0.0
C867 C 0.2414 0.32666 0.88661 0.0
C868 C 0.25535 0.30044 0.90141 0.0
C869 C 0.23055 0.29925 0.91748 0.0
C870 C 0.18773 0.38143 0.87316 0.0
C871 C 0.29518 0.2717 0.89995 0.0
C872 C 0.27643 0.2902 0.8393 0.0
C873 C 0.31495 0.31386 0.83675 0.0
C874 C 0.252 0.29442 0.85538 0.0
C875 C 0.26539 0.32461 0.86891 0.0
C876 C 0.30339 0.35008 0.86601 0.0
C877 C 0.32843 0.34358 0.85011 0.0
C878 C 0.21292 0.2652 0.8582 0.0
C879 C 0.31768 0.38391 0.87972 0.0
H880 H 0.14685 0.36575 0.90541 0.0
H881 H 0.24091 0.2786 0.9287 0.0
H882 H 0.2153 0.40162 0.86817 0.0
H883 H 0.17588 0.36176 0.86146 0.0
H884 H 0.16098 0.40334 0.87765 0.0
H885 H 0.30169 0.2534 0.91276 0.0
H886 H 0.2907 0.24791 0.88868 0.0
H887 H 0.3243 0.29155 0.89662 0.0
H888 H 0.2663 0.267 0.82895 0.0
H889 H 0.35808 0.36214 0.84798 0.0
H890 H 0.18321 0.28509 0.86032 0.0
H891 H 0.21761 0.2451 0.87066 0.0
H892 H 0.20726 0.24305 0.84643 0.0
H893 H 0.28983 0.40518 0.88346 0.0
H894 H 0.3446 0.40459 0.87443 0.0
H895 H 0.32894 0.36769 0.89241 0.0
C896 C 0.34548 0.71444 0.16263 0.0
C897 C 0.31517 0.68026 0.16337 0.0
C898 C 0.35088 0.73929 0.14666 0.0
C899 C 0.32424 0.73068 0.13129 0.0
C900 C 0.29444 0.69535 0.13182 0.0
C901 C 0.29076 0.67014 0.14777 0.0
C902 C 0.38405 0.77565 0.14645 0.0
C903 C 0.26472 0.68564 0.11589 0.0
C904 C 0.29646 0.82382 0.09907 0.0
C905 C 0.31985 0.81234 0.08335 0.0
C906 C 0.29824 0.79792 0.11487 0.0
C907 C 0.32512 0.76036 0.11515 0.0
C908 C 0.3508 0.75011 0.09966 0.0
C909 C 0.34728 0.77581 0.08382 0.0
C910 C 0.2696 0.80953 0.13093 0.0
C911 C 0.38099 0.71128 0.09963 0.0
H912 H 0.36457 0.72219 0.17466 0.0
H913 H 0.26701 0.64399 0.14836 0.0
H914 H 0.40434 0.77374 0.13393 0.0
H915 H 0.36715 0.8076 0.14625 0.0
H916 H 0.40578 0.77465 0.15858 0.0
H917 H 0.24438 0.65619 0.11824 0.0
H918 H 0.24283 0.71387 0.11348 0.0
H919 H 0.28405 0.68074 0.10326 0.0
H920 H 0.27485 0.85175 0.0987 0.0
H921 H 0.3655 0.76694 0.0717 0.0
H922 H 0.28954 0.81312 0.14347 0.0
H923 H 0.24592 0.78282 0.13344 0.0
H924 H 0.25124 0.84027 0.12868 0.0
H925 H 0.40173 0.71148 0.11204 0.0
H926 H 0.40236 0.71071 0.08738 0.0
H927 H 0.36162 0.68074 0.09989 0.0
C928 C 0.77533 0.64973 0.91827 0.0
C929 C 0.81208 0.6769 0.91778 0.0
C930 C 0.7476 0.64607 0.90306 0.0
C931 C 0.75598 0.67146 0.88728 0.0
C932 C 0.79377 0.69799 0.88657 0.0
C933 C 0.82173 0.69981 0.90173 0.0
C934 C 0.70863 0.61613 0.90409 0.0
C935 C 0.80347 0.72634 0.87019 0.0
C936 C 0.70472 0.65227 0.84074 0.0
C937 C 0.67112 0.68321 0.8407 0.0
C938 C 0.73082 0.64597 0.85628 0.0
C939 C 0.72422 0.67248 0.87186 0.0
C940 C 0.68931 0.70275 0.87208 0.0
C941 C 0.66269 0.70721 0.85657 0.0
C942 C 0.76655 0.61219 0.85573 0.0
C943 C 0.68177 0.73242 0.88823 0.0
H944 H 0.76785 0.63191 0.93067 0.0
H945 H 0.84981 0.72125 0.90137 0.0
H946 H 0.67832 0.63573 0.90471 0.0
H947 H 0.70672 0.59551 0.89166 0.0
H948 H 0.70979 0.59461 0.91629 0.0
H949 H 0.8345 0.74466 0.8717 0.0
H950 H 0.80542 0.70615 0.85765 0.0
H951 H 0.77662 0.75009 0.86819 0.0
H952 H 0.71112 0.63354 0.82847 0.0
H953 H 0.63701 0.73148 0.85647 0.0
H954 H 0.76623 0.59228 0.86838 0.0
H955 H 0.7987 0.62862 0.85496 0.0
H956 H 0.76335 0.59013 0.84376 0.0
H957 H 0.67849 0.71304 0.90094 0.0
H958 H 0.65214 0.75282 0.88657 0.0
H959 H 0.7103 0.75428 0.88999 0.0
C960 C 0.70712 0.17801 0.09814 0.0
C961 C 0.67772 0.18382 0.08373 0.0
C962 C 0.7043 0.20347 0.11402 0.0
C963 C 0.67018 0.23429 0.11581 0.0
C964 C 0.63898 0.23858 0.10167 0.0
C965 C 0.64372 0.21395 0.08558 0.0
C966 C 0.73901 0.19874 0.12851 0.0
C967 C 0.60118 0.26976 0.10337 0.0
C968 C 0.65315 0.27295 0.16457 0.0
C969 C 0.67619 0.31248 0.16462 0.0
C970 C 0.64874 0.2483 0.14851 0.0
C971 C 0.66861 0.26311 0.13219 0.0
C972 C 0.69033 0.30392 0.132 0.0
C973 C 0.6935 0.32832 0.14819 0.0
C974 C 0.62439 0.20554 0.14919 0.0
C975 C 0.71244 0.32065 0.11496 0.0
H976 H 0.73383 0.15518 0.09658 0.0
H977 H 0.62098 0.21838 0.0744 0.0
H978 H 0.75628 0.23026 0.13033 0.0
H979 H 0.72394 0.19027 0.14182 0.0
H980 H 0.76337 0.17329 0.12502 0.0
H981 H 0.5774 0.26592 0.09204 0.0
H982 H 0.58404 0.26455 0.11654 0.0
H983 H 0.61333 0.30382 0.10332 0.0
H984 H 0.63941 0.26068 0.17721 0.0
H985 H 0.71144 0.35878 0.14816 0.0
H986 H 0.64772 0.17812 0.14782 0.0
H987 H 0.60111 0.20323 0.13764 0.0
H988 H 0.6062 0.20137 0.1622 0.0
H989 H 0.73967 0.29857 0.11124 0.0
H990 H 0.72564 0.35412 0.11676 0.0
H991 H 0.68932 0.32085 0.10333 0.0
C992 C 0.92466 0.93094 0.28295 0.0
C993 C 0.93582 0.89789 0.27059 0.0
C994 C 0.94843 0.97015 0.28351 0.0
C995 C 0.98494 0.97564 0.27187 0.0
C996 C 0.99689 0.94183 0.25972 0.0
C997 C 0.97182 0.90367 0.25905 0.0
C998 C 0.93405 0.00595 0.29631 0.0
C999 C 0.03623 0.94591 0.24743 0.0
C1000 C 0.02343 0.08859 0.2583 0.0
C1001 C 0.05833 0.09544 0.27033 0.0
C1002 C 0.99862 0.05026 0.25902 0.0
C1003 C 0.0097 0.01736 0.27175 0.0
C1004 C 0.04524 0.02381 0.28381 0.0
C1005 C 0.06876 0.06315 0.28315 0.0
C1006 C 0.96038 0.04509 0.24622 0.0
C1007 C 0.05873 0.98897 0.29723 0.0
H1008 H 0.89691 0.92643 0.29191 0.0
H1009 H 0.98106 0.8778 0.24973 0.0
H1010 H 0.96089 0.01455 0.30579 0.0
H1011 H 0.92611 0.03573 0.28836 0.0
H1012 H 0.90504 0.99651 0.30448 0.0
H1013 H 0.04268 0.91553 0.23962 0.0
H1014 H 0.03133 0.97296 0.23759 0.0
H1015 H 0.06553 0.95391 0.25565 0.0
H1016 H 0.01471 0.11382 0.24859 0.0
H1017 H 0.09567 0.06843 0.29248 0.0
H1018 H 0.93037 0.03786 0.25412 0.0
H1019 H 0.96605 0.01716 0.23689 0.0
H1020 H 0.95465 0.07474 0.23783 0.0
H1021 H 0.03129 0.98119 0.30654 0.0
H1022 H 0.08726 0.99896 0.30558 0.0
H1023 H 0.06704 0.95856 0.28979 0.0
C1024 C 0.91239 0.04386 0.70835 0.0
C1025 C 0.91219 0.07846 0.72089 0.0
C1026 C 0.94792 0.01529 0.70723 0.0
C1027 C 0.98461 0.02231 0.71854 0.0
C1028 C 0.98558 0.05864 0.7305 0.0
C1029 C 0.94898 0.0859 0.73176 0.0
C1030 C 0.94517 0.9763 0.69467 0.0
C1031 C 0.02475 0.06794 0.74235 0.0
C1032 C 0.05812 0.92863 0.73249 0.0
C1033 C 0.09301 0.93365 0.72035 0.0
C1034 C 0.02174 0.95621 0.73154 0.0
C1035 C 0.02109 0.99049 0.71856 0.0
C1036 C 0.05592 0.99516 0.70605 0.0
C1037 C 0.09121 0.96622 0.70693 0.0
C1038 C 0.9845 0.94934 0.74471 0.0
C1039 C 0.05693 0.03196 0.69234 0.0
H1040 H 0.88369 0.03757 0.70013 0.0
H1041 H 0.94886 0.11264 0.74145 0.0
H1042 H 0.97399 0.97504 0.68556 0.0
H1043 H 0.94521 0.94591 0.70291 0.0
H1044 H 0.91529 0.97674 0.68611 0.0
H1045 H 0.02202 0.09973 0.74954 0.0
H1046 H 0.02836 0.04182 0.75272 0.0
H1047 H 0.05486 0.06811 0.73396 0.0
H1048 H 0.05955 0.90343 0.74287 0.0
H1049 H 0.11855 0.9706 0.69772 0.0
H1050 H 0.95316 0.94771 0.73719 0.0
H1051 H 0.98245 0.97734 0.75426 0.0
H1052 H 0.98834 0.91899 0.75284 0.0
H1053 H 0.02688 0.0318 0.68394 0.0
H1054 H 0.08557 0.02997 0.6831 0.0
H1055 H 0.05801 0.06364 0.69965 0.0
C1056 C 0.07758 0.43846 0.96908 0.0
C1057 C 0.06814 0.40675 0.98231 0.0
C1058 C 0.05349 0.47745 0.96819 0.0
C1059 C 0.01843 0.48417 0.98048 0.0
C1060 C 0.00866 0.4521 0.99375 0.0
C1061 C 0.03393 0.41413 0.99465 0.0
C1062 C 0.06559 0.51145 0.95417 0.0
C1063 C 0.97105 0.45757 0.00687 0.0
C1064 C 0.97725 0.59733 0.99211 0.0
C1065 C 0.94009 0.60076 0.98105 0.0
C1066 C 0.00389 0.56027 0.99151 0.0
C1067 C 0.99249 0.52516 0.97992 0.0
C1068 C 0.955 0.52839 0.96868 0.0
C1069 C 0.92957 0.56654 0.96916 0.0
C1070 C 0.04414 0.55864 0.00336 0.0
C1071 C 0.94123 0.49117 0.95649 0.0
H1072 H 0.10386 0.43286 0.95947 0.0
H1073 H 0.02585 0.38945 0.0047 0.0
H1074 H 0.03774 0.5173 0.94484 0.0
H1075 H 0.07292 0.54285 0.96106 0.0
H1076 H 0.09432 0.50169 0.9459 0.0
H1077 H 0.96668 0.42875 0.01589 0.0
H1078 H 0.97641 0.48669 0.01557 0.0
H1079 H 0.9404 0.46297 0.99917 0.0
H1080 H 0.98606 0.62415 0.00103 0.0
H1081 H 0.90099 0.56924 0.96054 0.0
H1082 H 0.07312 0.55062 0.99495 0.0
H1083 H 0.04064 0.53253 0.01375 0.0
H1084 H 0.05022 0.58999 0.01053 0.0
H1085 H 0.968 0.48255 0.94698 0.0
H1086 H 0.91172 0.49911 0.94836 0.0
H1087 H 0.93434 0.46186 0.9649 0.0
C1088 C 0.40896 0.96919 0.00865 0.0
C1089 C 0.40353 0.93311 0.02019 0.0
C1090 C 0.44609 0.99558 0.00977 0.0
C1091 C 0.47928 0.98494 0.02241 0.0
C1092 C 0.4741 0.94847 0.03412 0.0
C1093 C 0.43583 0.92332 0.03307 0.0
C1094 C 0.44983 0.03477 0.99735 0.0
C1095 C 0.50934 0.93552 0.04742 0.0
C1096 C 0.59055 0.02733 0.00884 0.0
C1097 C 0.59532 0.06364 0.0203 0.0
C1098 C 0.55377 0.00043 0.00997 0.0
C1099 C 0.52027 0.01081 0.02251 0.0
C1100 C 0.52491 0.0474 0.03419 0.0
C1101 C 0.56283 0.07305 0.03315 0.0
C1102 C 0.5506 0.96112 0.99761 0.0
C1103 C 0.48936 0.06009 0.0474 0.0
H1104 H 0.38358 0.9774 0.99894 0.0
H1105 H 0.43154 0.89553 0.04205 0.0
H1106 H 0.45676 0.06448 0.0055 0.0
H1107 H 0.4774 0.03023 0.98775 0.0
H1108 H 0.41972 0.04034 0.98927 0.0
H1109 H 0.49995 0.90679 0.05579 0.0
H1110 H 0.53967 0.92766 0.03986 0.0
H1111 H 0.51691 0.96308 0.0567 0.0
H1112 H 0.6161 0.01942 0.99916 0.0
H1113 H 0.56664 0.10102 0.04207 0.0
H1114 H 0.52343 0.96555 0.98779 0.0
H1115 H 0.54337 0.93146 0.00575 0.0
H1116 H 0.58106 0.95554 0.98975 0.0
H1117 H 0.45923 0.06814 0.03973 0.0
H1118 H 0.49855 0.08865 0.0559 0.0
H1119 H 0.48151 0.03235 0.05655 0.0
C1120 C 0.42291 0.44019 0.76346 0.0
C1121 C 0.43028 0.40652 0.776 0.0
C1122 C 0.4477 0.47874 0.76407 0.0
C1123 C 0.48182 0.48274 0.77701 0.0
C1124 C 0.48929 0.44873 0.78971 0.0
C1125 C 0.46289 0.41139 0.78925 0.0
C1126 C 0.43767 0.51497 0.75076 0.0
C1127 C 0.5262 0.45104 0.80332 0.0
C1128 C 0.57222 0.56314 0.76537 0.0
C1129 C 0.56259 0.59781 0.77712 0.0
C1130 C 0.54691 0.52491 0.76555 0.0
C1131 C 0.51005 0.52226 0.77718 0.0
C1132 C 0.50011 0.55744 0.78898 0.0
C1133 C 0.527 0.59444 0.78904 0.0
C1134 C 0.55947 0.48746 0.75325 0.0
C1135 C 0.46032 0.55659 0.80112 0.0
H1136 H 0.39779 0.43632 0.75318 0.0
H1137 H 0.46922 0.38495 0.79873 0.0
H1138 H 0.433 0.54614 0.7582 0.0
H1139 H 0.46551 0.51957 0.74129 0.0
H1140 H 0.408 0.50815 0.74255 0.0
H1141 H 0.5279 0.42159 0.81213 0.0
H1142 H 0.55764 0.45458 0.79597 0.0
H1143 H 0.52244 0.4801 0.81218 0.0
H1144 H 0.59966 0.5659 0.75611 0.0
H1145 H 0.51901 0.62169 0.79787 0.0
H1146 H 0.53355 0.4818 0.74297 0.0
H1147 H 0.56272 0.45708 0.76137 0.0
H1148 H 0.59063 0.49357 0.74596 0.0
H1149 H 0.43064 0.55203 0.79267 0.0
H1150 H 0.45668 0.58704 0.80919 0.0
H1151 H 0.46211 0.52864 0.81069 0.0
C1152 C 0.58351 0.4566 0.21212 0.0
C1153 C 0.58695 0.42512 0.22595 0.0
C1154 C 0.54767 0.48486 0.21132 0.0
C1155 C 0.51383 0.4806 0.22433 0.0
C1156 C 0.51622 0.44757 0.23783 0.0
C1157 C 0.55319 0.42069 0.23869 0.0
C1158 C 0.54692 0.52041 0.19705 0.0
C1159 C 0.48008 0.44112 0.25157 0.0
C1160 C 0.44036 0.57642 0.23582 0.0
C1161 C 0.40396 0.56767 0.22492 0.0
C1162 C 0.47709 0.54918 0.23525 0.0
C1163 C 0.47644 0.51139 0.22409 0.0
C1164 C 0.4397 0.50258 0.21302 0.0
C1165 C 0.40418 0.5313 0.21333 0.0
C1166 C 0.51629 0.56045 0.24678 0.0
C1167 C 0.43715 0.46193 0.20142 0.0
H1168 H 0.60995 0.46061 0.20244 0.0
H1169 H 0.55585 0.39638 0.24938 0.0
H1170 H 0.51683 0.51809 0.18872 0.0
H1171 H 0.54661 0.55278 0.20383 0.0
H1172 H 0.57551 0.51888 0.18776 0.0
H1173 H 0.4853 0.41178 0.2602 0.0
H1174 H 0.47786 0.47004 0.26061 0.0
H1175 H 0.44832 0.43786 0.24445 0.0
H1176 H 0.43999 0.60451 0.24482 0.0
H1177 H 0.37558 0.52408 0.20517 0.0
H1178 H 0.54614 0.56074 0.23821 0.0
H1179 H 0.52095 0.53529 0.25748 0.0
H1180 H 0.51294 0.59272 0.25352 0.0
H1181 H 0.46492 0.46075 0.19175 0.0
H1182 H 0.40634 0.46006 0.1935 0.0
H1183 H 0.4395 0.43264 0.21027 0.0
C1184 C 0.48415 0.10102 0.48478 0.0
C1185 C 0.44429 0.10026 0.47546 0.0
C1186 C 0.51252 0.06535 0.48416 0.0
C1187 C 0.50004 0.02745 0.47447 0.0
C1188 C 0.45994 0.02665 0.46485 0.0
C1189 C 0.43278 0.06354 0.4652 0.0
C1190 C 0.55552 0.068 0.49413 0.0
C1191 C 0.44506 0.98638 0.45477 0.0
C1192 C 0.58496 0.94069 0.46389 0.0
C1193 C 0.57973 0.9125 0.4788 0.0
C1194 C 0.5596 0.97867 0.46234 0.0
C1195 C 0.5274 0.98763 0.4757 0.0
C1196 C 0.52182 0.95898 0.49066 0.0
C1197 C 0.54846 0.92216 0.49216 0.0
C1198 C 0.56729 0.00924 0.4465 0.0
C1199 C 0.4872 0.96682 0.50497 0.0
H1200 H 0.49344 0.12993 0.49238 0.0
H1201 H 0.40202 0.06322 0.45792 0.0
H1202 H 0.55539 0.0451 0.50586 0.0
H1203 H 0.58256 0.05814 0.48496 0.0
H1204 H 0.56227 0.10134 0.49936 0.0
H1205 H 0.41383 0.99161 0.44743 0.0
H1206 H 0.47014 0.97608 0.44476 0.0
H1207 H 0.44074 0.95913 0.46459 0.0
H1208 H 0.609 0.93312 0.45351 0.0
H1209 H 0.54364 0.89995 0.50351 0.0
H1210 H 0.57501 0.04238 0.45167 0.0
H1211 H 0.5373 0.01198 0.43814 0.0
H1212 H 0.59438 0.99817 0.43758 0.0
H1213 H 0.49365 0.99798 0.51217 0.0
H1214 H 0.48575 0.94023 0.51526 0.0
H1215 H 0.45478 0.96971 0.49837 0.0
C1216 C 0.93216 0.42781 0.53033 0.0
C1217 C 0.89664 0.44073 0.51963 0.0
C1218 C 0.97044 0.4531 0.53084 0.0
C1219 C 0.97242 0.49281 0.52093 0.0
C1220 C 0.93582 0.50673 0.51074 0.0
C1221 C 0.89869 0.48021 0.51 0.0
C1222 C 0.00918 0.4367 0.54151 0.0
C1223 C 0.93604 0.54937 0.50041 0.0
C1224 C 0.06138 0.57533 0.53214 0.0
C1225 C 0.09072 0.56857 0.51772 0.0
C1226 C 0.02254 0.55109 0.53336 0.0
C1227 C 0.01354 0.51856 0.52014 0.0
C1228 C 0.04322 0.51146 0.50565 0.0
C1229 C 0.08109 0.53687 0.5045 0.0
C1230 C 0.99108 0.56041 0.54871 0.0
C1231 C 0.03525 0.47659 0.49145 0.0
H1232 H 0.93045 0.39737 0.53783 0.0
H1233 H 0.87083 0.49071 0.50202 0.0
H1234 H 0.03689 0.43089 0.53208 0.0
H1235 H 0.01987 0.46162 0.55153 0.0
H1236 H 0.00197 0.40592 0.54892 0.0
H1237 H 0.90362 0.55728 0.49454 0.0
H1238 H 0.9461 0.57641 0.50956 0.0
H1239 H 0.96007 0.5478 0.48911 0.0
H1240 H 0.06872 0.59967 0.54242 0.0
H1241 H 0.10395 0.53086 0.4935 0.0
H1242 H 0.98636 0.53073 0.55714 0.0
H1243 H 0.95879 0.56939 0.54304 0.0
H1244 H 0.00254 0.58725 0.5577 0.0
H1245 H 0.03063 0.44451 0.49821 0.0
H1246 H 0.06255 0.47384 0.48155 0.0
H1247 H 0.00497 0.48389 0.48378 0.0
loop_
_geom_bond_atom_site_label_1
_geom_bond_atom_site_label_2
_geom_bond_distance
_geom_bond_site_symmetry_2
_ccdc_geom_bond_type
Co0 O1 2.216 . S
Co0 O2 2.091 . S
Co0 O4 2.004 . S
Co0 O10 2.021 . S
Co0 O12 2.137 . S
Co0 O13 2.244 . S
O1 Co0 2.216 . S
O1 C8 1.247 . S
O2 Co0 2.091 . S
O2 C8 1.261 . S
C3 O12 1.247 . S
C3 O13 1.272 . S
O4 Co0 2.004 . S
O4 C9 1.259 . S
Co5 O6 2.061 . S
Co5 O11 2.052 . S
Co5 O13 2.135 . S
O6 Co5 2.061 . S
O6 C9 1.235 . S
C7 O10 1.238 . S
C7 O11 1.241 . S
C8 O1 1.247 . S
C8 O2 1.261 . S
C9 O4 1.259 . S
C9 O6 1.235 . S
O10 Co0 2.021 . S
O10 C7 1.238 . S
O11 Co5 2.052 . S
O11 C7 1.241 . S
O12 Co0 2.137 . S
O12 C3 1.247 . S
O13 Co0 2.244 . S
O13 C3 1.272 . S
O13 Co5 2.135 . S
Co14 O15 2.216 . S
Co14 O16 2.091 . S
Co14 O18 2.004 . S
Co14 O24 2.021 . S
Co14 O26 2.137 . S
Co14 O27 2.244 . S
O15 Co14 2.216 . S
O15 C22 1.247 . S
O16 Co14 2.091 . S
O16 C22 1.261 . S
C17 O26 1.247 . S
C17 O27 1.272 . S
O18 Co14 2.004 . S
O18 C23 1.259 . S
Co19 O20 2.061 . S
Co19 O25 2.052 . S
Co19 O27 2.135 . S
O20 Co19 2.061 . S
O20 C23 1.235 . S
C21 O24 1.238 . S
C21 O25 1.241 . S
C22 O15 1.247 . S
C22 O16 1.261 . S
C23 O18 1.259 . S
C23 O20 1.235 . S
O24 Co14 2.021 . S
O24 C21 1.238 . S
O25 Co19 2.052 . S
O25 C21 1.241 . S
O26 Co14 2.137 . S
O26 C17 1.247 . S
O27 Co14 2.244 . S
O27 C17 1.272 . S
O27 Co19 2.135 . S
Co28 O29 2.216 . S
Co28 O30 2.091 . S
Co28 O32 2.004 . S
Co28 O38 2.021 . S
Co28 O40 2.137 . S
Co28 O41 2.244 . S
O29 Co28 2.216 . S
O29 C36 1.247 . S
O30 Co28 2.091 . S
O30 C36 1.261 . S
C31 O40 1.247 . S
C31 O41 1.272 . S
O32 Co28 2.004 . S
O32 C37 1.259 . S
Co33 O34 2.061 . S
Co33 O39 2.052 . S
Co33 O41 2.135 . S
O34 Co33 2.061 . S
O34 C37 1.235 . S
C35 O38 1.238 . S
C35 O39 1.241 . S
C36 O29 1.247 . S
C36 O30 1.261 . S
C37 O32 1.259 . S
C37 O34 1.235 . S
O38 Co28 2.021 . S
O38 C35 1.238 . S
O39 Co33 2.052 . S
O39 C35 1.241 . S
O40 Co28 2.137 . S
O40 C31 1.247 . S
O41 Co28 2.244 . S
O41 C31 1.272 . S
O41 Co33 2.135 . S
Co42 O43 2.216 . S
Co42 O44 2.091 . S
Co42 O46 2.004 . S
Co42 O52 2.021 . S
Co42 O54 2.137 . S
Co42 O55 2.244 . S
O43 Co42 2.216 . S
O43 C50 1.247 . S
O44 Co42 2.091 . S
O44 C50 1.261 . S
C45 O54 1.247 . S
C45 O55 1.272 . S
O46 Co42 2.004 . S
O46 C51 1.259 . S
Co47 O48 2.061 . S
Co47 O53 2.052 . S
Co47 O55 2.135 . S
O48 Co47 2.061 . S
O48 C51 1.235 . S
C49 O52 1.238 . S
C49 O53 1.241 . S
C50 O43 1.247 . S
C50 O44 1.261 . S
C51 O46 1.259 . S
C51 O48 1.235 . S
O52 Co42 2.021 . S
O52 C49 1.238 . S
O53 Co47 2.052 . S
O53 C49 1.241 . S
O54 Co42 2.137 . S
O54 C45 1.247 . S
O55 Co42 2.244 . S
O55 C45 1.272 . S
O55 Co47 2.135 . S
Co56 O57 2.216 . S
Co56 O58 2.091 . S
Co56 O60 2.004 . S
Co56 O66 2.021 . S
Co56 O68 2.137 . S
Co56 O69 2.244 . S
O57 Co56 2.216 . S
O57 C64 1.247 . S
O58 Co56 2.091 . S
O58 C64 1.261 . S
C59 O68 1.247 . S
C59 O69 1.272 . S
O60 Co56 2.004 . S
O60 C65 1.259 . S
Co61 O62 2.034 1_554 S
Co61 O67 2.020 1_554 S
Co61 O69 2.101 1_554 S
O62 Co61 2.034 1_556 S
O62 C65 1.235 . S
C63 O66 1.238 . S
C63 O67 1.241 . S
C64 O57 1.247 . S
C64 O58 1.261 . S
C65 O60 1.259 . S
C65 O62 1.235 . S
O66 Co56 2.021 . S
O66 C63 1.238 . S
O67 Co61 2.020 1_556 S
O67 C63 1.241 . S
O68 Co56 2.137 . S
O68 C59 1.247 . S
O69 Co56 2.244 . S
O69 C59 1.272 . S
O69 Co61 2.101 1_556 S
Co70 O71 2.216 . S
Co70 O72 2.091 . S
Co70 O74 2.004 . S
Co70 O80 2.021 . S
Co70 O82 2.137 . S
Co70 O83 2.244 . S
O71 Co70 2.216 . S
O71 C78 1.247 . S
O72 Co70 2.091 . S
O72 C78 1.261 . S
C73 O82 1.247 . S
C73 O83 1.272 . S
O74 Co70 2.004 . S
O74 C79 1.259 . S
Co75 O76 2.034 1_556 S
Co75 O81 2.020 1_556 S
Co75 O83 2.101 1_556 S
O76 Co75 2.034 1_554 S
O76 C79 1.235 . S
C77 O80 1.238 . S
C77 O81 1.241 . S
C78 O71 1.247 . S
C78 O72 1.261 . S
C79 O74 1.259 . S
C79 O76 1.235 . S
O80 Co70 2.021 . S
O80 C77 1.238 . S
O81 Co75 2.020 1_554 S
O81 C77 1.241 . S
O82 Co70 2.137 . S
O82 C73 1.247 . S
O83 Co70 2.244 . S
O83 C73 1.272 . S
O83 Co75 2.101 1_554 S
Co84 O85 2.216 . S
Co84 O86 2.091 . S
Co84 O88 2.004 . S
Co84 O94 2.021 . S
Co84 O96 2.137 . S
Co84 O97 2.244 . S
O85 Co84 2.216 . S
O85 C92 1.247 . S
O86 Co84 2.091 . S
O86 C92 1.261 . S
C87 O96 1.247 . S
C87 O97 1.272 . S
O88 Co84 2.004 . S
O88 C93 1.259 . S
Co89 O90 2.034 1_554 S
Co89 O95 2.020 1_554 S
Co89 O97 2.101 1_554 S
O90 Co89 2.034 1_556 S
O90 C93 1.235 . S
C91 O94 1.238 . S
C91 O95 1.241 . S
C92 O85 1.247 . S
C92 O86 1.261 . S
C93 O88 1.259 . S
C93 O90 1.235 . S
O94 Co84 2.021 . S
O94 C91 1.238 . S
O95 Co89 2.020 1_556 S
O95 C91 1.241 . S
O96 Co84 2.137 . S
O96 C87 1.247 . S
O97 Co84 2.244 . S
O97 C87 1.272 . S
O97 Co89 2.101 1_556 S
Co98 O99 2.216 . S
Co98 O100 2.091 . S
Co98 O102 2.004 . S
Co98 O108 2.021 . S
Co98 O110 2.137 . S
Co98 O111 2.244 . S
O99 Co98 2.216 . S
O99 C106 1.247 . S
O100 Co98 2.091 . S
O100 C106 1.261 . S
C101 O110 1.247 . S
C101 O111 1.272 . S
O102 Co98 2.004 . S
O102 C107 1.259 . S
Co103 O104 2.034 1_556 S
Co103 O109 2.020 1_556 S
Co103 O111 2.101 1_556 S
O104 Co103 2.034 1_554 S
O104 C107 1.235 . S
C105 O108 1.238 . S
C105 O109 1.241 . S
C106 O99 1.247 . S
C106 O100 1.261 . S
C107 O102 1.259 . S
C107 O104 1.235 . S
O108 Co98 2.021 . S
O108 C105 1.238 . S
O109 Co103 2.020 1_554 S
O109 C105 1.241 . S
O110 Co98 2.137 . S
O110 C101 1.247 . S
O111 Co98 2.244 . S
O111 C101 1.272 . S
O111 Co103 2.101 1_554 S
Co112 O113 2.216 . S
Co112 O114 2.091 . S
Co112 O116 2.004 . S
Co112 O122 2.021 . S
Co112 O124 2.137 . S
Co112 O125 2.244 . S
O113 Co112 2.216 . S
O113 C120 1.247 . S
O114 Co112 2.091 . S
O114 C120 1.261 . S
C115 O124 1.247 . S
C115 O125 1.272 . S
O116 Co112 2.004 . S
O116 C121 1.259 . S
Co117 O118 2.061 . S
Co117 O123 2.052 . S
Co117 O125 2.135 . S
O118 Co117 2.061 . S
O118 C121 1.235 . S
C119 O122 1.238 . S
C119 O123 1.241 . S
C120 O113 1.247 . S
C120 O114 1.261 . S
C121 O116 1.259 . S
C121 O118 1.235 . S
O122 Co112 2.021 . S
O122 C119 1.238 . S
O123 Co117 2.052 . S
O123 C119 1.241 . S
O124 Co112 2.137 . S
O124 C115 1.247 . S
O125 Co112 2.244 . S
O125 C115 1.272 . S
O125 Co117 2.135 . S
Co126 O127 2.216 . S
Co126 O128 2.091 . S
Co126 O130 2.004 . S
Co126 O136 2.021 . S
Co126 O138 2.137 . S
Co126 O139 2.244 . S
O127 Co126 2.216 . S
O127 C134 1.247 . S
O128 Co126 2.091 . S
O128 C134 1.261 . S
C129 O138 1.247 . S
C129 O139 1.272 . S
O130 Co126 2.004 . S
O130 C135 1.259 . S
Co131 O132 2.061 . S
Co131 O137 2.052 . S
Co131 O139 2.135 . S
O132 Co131 2.061 . S
O132 C135 1.235 . S
C133 O136 1.238 . S
C133 O137 1.241 . S
C134 O127 1.247 . S
C134 O128 1.261 . S
C135 O130 1.259 . S
C135 O132 1.235 . S
O136 Co126 2.021 . S
O136 C133 1.238 . S
O137 Co131 2.052 . S
O137 C133 1.241 . S
O138 Co126 2.137 . S
O138 C129 1.247 . S
O139 Co126 2.244 . S
O139 C129 1.272 . S
O139 Co131 2.135 . S
Co140 O141 2.216 . S
Co140 O142 2.091 . S
Co140 O144 2.004 . S
Co140 O150 2.021 . S
Co140 O152 2.137 . S
Co140 O153 2.244 . S
O141 Co140 2.216 . S
O141 C148 1.247 . S
O142 Co140 2.091 . S
O142 C148 1.261 . S
C143 O152 1.247 . S
C143 O153 1.272 . S
O144 Co140 2.004 . S
O144 C149 1.259 . S
Co145 O146 2.061 . S
Co145 O151 2.052 . S
Co145 O153 2.135 . S
O146 Co145 2.061 . S
O146 C149 1.235 . S
C147 O150 1.238 . S
C147 O151 1.241 . S
C148 O141 1.247 . S
C148 O142 1.261 . S
C149 O144 1.259 . S
C149 O146 1.235 . S
O150 Co140 2.021 . S
O150 C147 1.238 . S
O151 Co145 2.052 . S
O151 C147 1.241 . S
O152 Co140 2.137 . S
O152 C143 1.247 . S
O153 Co140 2.244 . S
O153 C143 1.272 . S
O153 Co145 2.135 . S
Co154 O155 2.216 . S
Co154 O156 2.091 . S
Co154 O158 2.004 . S
Co154 O164 2.021 . S
Co154 O166 2.137 . S
Co154 O167 2.244 . S
O155 Co154 2.216 . S
O155 C162 1.247 . S
O156 Co154 2.091 . S
O156 C162 1.261 . S
C157 O166 1.247 . S
C157 O167 1.272 . S
O158 Co154 2.004 . S
O158 C163 1.259 . S
Co159 O160 2.061 . S
Co159 O165 2.052 . S
Co159 O167 2.135 . S
O160 Co159 2.061 . S
O160 C163 1.235 . S
C161 O164 1.238 . S
C161 O165 1.241 . S
C162 O155 1.247 . S
C162 O156 1.261 . S
C163 O158 1.259 . S
C163 O160 1.235 . S
O164 Co154 2.021 . S
O164 C161 1.238 . S
O165 Co159 2.052 . S
O165 C161 1.241 . S
O166 Co154 2.137 . S
O166 C157 1.247 . S
O167 Co154 2.244 . S
O167 C157 1.272 . S
O167 Co159 2.135 . S
Co168 O169 2.216 . S
Co168 O170 2.091 . S
Co168 O172 2.004 . S
Co168 O178 2.021 . S
Co168 O180 2.137 . S
Co168 O181 2.244 . S
O169 Co168 2.216 . S
O169 C176 1.247 . S
O170 Co168 2.091 . S
O170 C176 1.261 . S
C171 O180 1.247 . S
C171 O181 1.272 . S
O172 Co168 2.004 . S
O172 C177 1.259 . S
Co173 O174 2.061 . S
Co173 O179 2.052 . S
Co173 O181 2.135 . S
O174 Co173 2.061 . S
O174 C177 1.235 . S
C175 O178 1.238 . S
C175 O179 1.241 . S
C176 O169 1.247 . S
C176 O170 1.261 . S
C177 O172 1.259 . S
C177 O174 1.235 . S
O178 Co168 2.021 . S
O178 C175 1.238 . S
O179 Co173 2.052 . S
O179 C175 1.241 . S
O180 Co168 2.137 . S
O180 C171 1.247 . S
O181 Co168 2.244 . S
O181 C171 1.272 . S
O181 Co173 2.135 . S
Co182 O183 2.216 . S
Co182 O184 2.091 . S
Co182 O186 2.004 . S
Co182 O192 2.021 . S
Co182 O194 2.137 . S
Co182 O195 2.244 . S
O183 Co182 2.216 . S
O183 C190 1.247 . S
O184 Co182 2.091 . S
O184 C190 1.261 . S
C185 O194 1.247 . S
C185 O195 1.272 . S
O186 Co182 2.004 . S
O186 C191 1.259 . S
Co187 O188 2.061 . S
Co187 O193 2.052 . S
Co187 O195 2.135 . S
O188 Co187 2.061 . S
O188 C191 1.235 . S
C189 O192 1.238 . S
C189 O193 1.241 . S
C190 O183 1.247 . S
C190 O184 1.261 . S
C191 O186 1.259 . S
C191 O188 1.235 . S
O192 Co182 2.021 . S
O192 C189 1.238 . S
O193 Co187 2.052 . S
O193 C189 1.241 . S
O194 Co182 2.137 . S
O194 C185 1.247 . S
O195 Co182 2.244 . S
O195 C185 1.272 . S
O195 Co187 2.135 . S
Co196 O197 2.216 . S
Co196 O198 2.091 . S
Co196 O200 2.004 . S
Co196 O206 2.021 . S
Co196 O208 2.137 . S
Co196 O209 2.244 . S
O197 Co196 2.216 . S
O197 C204 1.247 . S
O198 Co196 2.091 . S
O198 C204 1.261 . S
C199 O208 1.247 . S
C199 O209 1.272 . S
O200 Co196 2.004 . S
O200 C205 1.259 . S
Co201 O202 2.061 . S
Co201 O207 2.052 . S
Co201 O209 2.135 . S
O202 Co201 2.061 . S
O202 C205 1.235 . S
C203 O206 1.238 . S
C203 O207 1.241 . S
C204 O197 1.247 . S
C204 O198 1.261 . S
C205 O200 1.259 . S
C205 O202 1.235 . S
O206 Co196 2.021 . S
O206 C203 1.238 . S
O207 Co201 2.052 . S
O207 C203 1.241 . S
O208 Co196 2.137 . S
O208 C199 1.247 . S
O209 Co196 2.244 . S
O209 C199 1.272 . S
O209 Co201 2.135 . S
Co210 O211 2.216 . S
Co210 O212 2.091 . S
Co210 O214 2.004 . S
Co210 O220 2.021 . S
Co210 O222 2.137 . S
Co210 O223 2.244 . S
O211 Co210 2.216 . S
O211 C218 1.247 . S
O212 Co210 2.091 . S
O212 C218 1.261 . S
C213 O222 1.247 . S
C213 O223 1.272 . S
O214 Co210 2.004 . S
O214 C219 1.259 . S
Co215 O216 2.061 . S
Co215 O221 2.052 . S
Co215 O223 2.135 . S
O216 Co215 2.061 . S
O216 C219 1.235 . S
C217 O220 1.238 . S
C217 O221 1.241 . S
C218 O211 1.247 . S
C218 O212 1.261 . S
C219 O214 1.259 . S
C219 O216 1.235 . S
O220 Co210 2.021 . S
O220 C217 1.238 . S
O221 Co215 2.052 . S
O221 C217 1.241 . S
O222 Co210 2.137 . S
O222 C213 1.247 . S
O223 Co210 2.244 . S
O223 C213 1.272 . S
O223 Co215 2.135 . S
C224 C225 1.391 . S
C224 C226 1.394 . S
C224 H240 0.931 . S
C225 C224 1.391 . S
C225 C229 1.376 . S
C226 C224 1.394 . S
C226 C227 1.369 . S
C226 C230 1.531 . S
C227 C226 1.369 . S
C227 C228 1.410 . S
C227 C235 1.503 . S
C228 C227 1.410 . S
C228 C229 1.392 . S
C228 C231 1.511 . S
C229 C225 1.376 . S
C229 C228 1.392 . S
C229 H241 0.929 . S
C230 C226 1.531 . S
C230 H242 0.960 . S
C230 H243 0.962 . S
C230 H244 0.960 . S
C231 C228 1.511 . S
C231 H245 0.961 . S
C231 H246 0.961 . S
C231 H247 0.961 . S
C232 C233 1.370 . S
C232 C234 1.363 . S
C232 H248 0.931 . S
C233 C232 1.370 . S
C233 C237 1.408 . S
C234 C232 1.363 . S
C234 C235 1.370 . S
C234 C238 1.524 . S
C235 C227 1.503 . S
C235 C234 1.370 . S
C235 C236 1.403 . S
C236 C235 1.403 . S
C236 C237 1.404 . S
C236 C239 1.539 . S
C237 C233 1.408 . S
C237 C236 1.404 . S
C237 H249 0.930 . S
C238 C234 1.524 . S
C238 H250 0.956 . S
C238 H251 0.961 . S
C238 H252 0.961 . S
C239 C236 1.539 . S
C239 H253 0.958 . S
C239 H254 0.961 . S
C239 H255 0.960 . S
H240 C224 0.931 . S
H241 C229 0.929 . S
H242 C230 0.960 . S
H243 C230 0.962 . S
H244 C230 0.960 . S
H245 C231 0.961 . S
H246 C231 0.961 . S
H247 C231 0.961 . S
H248 C232 0.931 . S
H249 C237 0.930 . S
H250 C238 0.956 . S
H251 C238 0.961 . S
H252 C238 0.961 . S
H253 C239 0.958 . S
H254 C239 0.961 . S
H255 C239 0.960 . S
C256 C257 1.391 . S
C256 C258 1.394 . S
C256 H272 0.931 . S
C257 C256 1.391 . S
C257 C261 1.376 . S
C258 C256 1.394 . S
C258 C259 1.369 . S
C258 C262 1.531 . S
C259 C258 1.369 . S
C259 C260 1.410 . S
C259 C267 1.503 . S
C260 C259 1.410 . S
C260 C261 1.392 . S
C260 C263 1.511 . S
C261 C257 1.376 . S
C261 C260 1.392 . S
C261 H273 0.929 . S
C262 C258 1.531 . S
C262 H274 0.960 . S
C262 H275 0.962 . S
C262 H276 0.960 . S
C263 C260 1.511 . S
C263 H277 0.961 . S
C263 H278 0.961 . S
C263 H279 0.961 . S
C264 C265 1.370 . S
C264 C266 1.363 . S
C264 H280 0.931 . S
C265 C264 1.370 . S
C265 C269 1.408 . S
C266 C264 1.363 . S
C266 C267 1.370 . S
C266 C270 1.524 . S
C267 C259 1.503 . S
C267 C266 1.370 . S
C267 C268 1.403 . S
C268 C267 1.403 . S
C268 C269 1.404 . S
C268 C271 1.539 . S
C269 C265 1.408 . S
C269 C268 1.404 . S
C269 H281 0.930 . S
C270 C266 1.524 . S
C270 H282 0.956 . S
C270 H283 0.961 . S
C270 H284 0.961 . S
C271 C268 1.539 . S
C271 H285 0.958 . S
C271 H286 0.961 . S
C271 H287 0.960 . S
H272 C256 0.931 . S
H273 C261 0.929 . S
H274 C262 0.960 . S
H275 C262 0.962 . S
H276 C262 0.960 . S
H277 C263 0.961 . S
H278 C263 0.961 . S
H279 C263 0.961 . S
H280 C264 0.931 . S
H281 C269 0.930 . S
H282 C270 0.956 . S
H283 C270 0.961 . S
H284 C270 0.961 . S
H285 C271 0.958 . S
H286 C271 0.961 . S
H287 C271 0.960 . S
C288 C289 1.391 . S
C288 C290 1.394 . S
C288 H304 0.931 . S
C289 C288 1.391 . S
C289 C293 1.376 . S
C290 C288 1.394 . S
C290 C291 1.369 . S
C290 C294 1.531 . S
C291 C290 1.369 . S
C291 C292 1.410 . S
C291 C299 1.503 . S
C292 C291 1.410 . S
C292 C293 1.392 . S
C292 C295 1.511 . S
C293 C289 1.376 . S
C293 C292 1.392 . S
C293 H305 0.929 . S
C294 C290 1.531 . S
C294 H306 0.960 . S
C294 H307 0.962 . S
C294 H308 0.960 . S
C295 C292 1.511 . S
C295 H309 0.961 . S
C295 H310 0.961 . S
C295 H311 0.961 . S
C296 C297 1.370 . S
C296 C298 1.363 . S
C296 H312 0.931 . S
C297 C296 1.370 . S
C297 C301 1.408 . S
C298 C296 1.363 . S
C298 C299 1.370 . S
C298 C302 1.524 . S
C299 C291 1.503 . S
C299 C298 1.370 . S
C299 C300 1.403 . S
C300 C299 1.403 . S
C300 C301 1.404 . S
C300 C303 1.539 . S
C301 C297 1.408 . S
C301 C300 1.404 . S
C301 H313 0.930 . S
C302 C298 1.524 . S
C302 H314 0.956 . S
C302 H315 0.961 . S
C302 H316 0.961 . S
C303 C300 1.539 . S
C303 H317 0.958 . S
C303 H318 0.961 . S
C303 H319 0.960 . S
H304 C288 0.931 . S
H305 C293 0.929 . S
H306 C294 0.960 . S
H307 C294 0.962 . S
H308 C294 0.960 . S
H309 C295 0.961 . S
H310 C295 0.961 . S
H311 C295 0.961 . S
H312 C296 0.931 . S
H313 C301 0.930 . S
H314 C302 0.956 . S
H315 C302 0.961 . S
H316 C302 0.961 . S
H317 C303 0.958 . S
H318 C303 0.961 . S
H319 C303 0.960 . S
C320 C321 1.391 . S
C320 C322 1.394 . S
C320 H336 0.931 . S
C321 C320 1.391 . S
C321 C325 1.376 . S
C322 C320 1.394 . S
C322 C323 1.369 . S
C322 C326 1.531 . S
C323 C322 1.369 . S
C323 C324 1.410 . S
C323 C331 1.503 . S
C324 C323 1.410 . S
C324 C325 1.392 . S
C324 C327 1.511 . S
C325 C321 1.376 . S
C325 C324 1.392 . S
C325 H337 0.929 . S
C326 C322 1.531 . S
C326 H338 0.960 . S
C326 H339 0.962 . S
C326 H340 0.960 . S
C327 C324 1.511 . S
C327 H341 0.961 . S
C327 H342 0.961 . S
C327 H343 0.961 . S
C328 C329 1.370 . S
C328 C330 1.363 . S
C328 H344 0.931 . S
C329 C328 1.370 . S
C329 C333 1.408 . S
C330 C328 1.363 . S
C330 C331 1.370 . S
C330 C334 1.524 . S
C331 C323 1.503 . S
C331 C330 1.370 . S
C331 C332 1.403 . S
C332 C331 1.403 . S
C332 C333 1.404 . S
C332 C335 1.539 . S
C333 C329 1.408 . S
C333 C332 1.404 . S
C333 H345 0.930 . S
C334 C330 1.524 . S
C334 H346 0.956 . S
C334 H347 0.961 . S
C334 H348 0.961 . S
C335 C332 1.539 . S
C335 H349 0.958 . S
C335 H350 0.961 . S
C335 H351 0.960 . S
H336 C320 0.931 . S
H337 C325 0.929 . S
H338 C326 0.960 . S
H339 C326 0.962 . S
H340 C326 0.960 . S
H341 C327 0.961 . S
H342 C327 0.961 . S
H343 C327 0.961 . S
H344 C328 0.931 . S
H345 C333 0.930 . S
H346 C334 0.956 . S
H347 C334 0.961 . S
H348 C334 0.961 . S
H349 C335 0.958 . S
H350 C335 0.961 . S
H351 C335 0.960 . S
C352 C353 1.391 . S
C352 C354 1.394 1_554 S
C352 H368 0.908 1_554 S
C353 C352 1.391 . S
C353 C357 1.376 . S
C354 C352 1.394 1_556 S
C354 C355 1.369 1_556 S
C354 C358 1.531 . S
C355 C354 1.369 1_554 S
C355 C356 1.410 . S
C355 C363 1.503 . S
C356 C355 1.410 . S
C356 C357 1.392 . S
C356 C359 1.511 . S
C357 C353 1.376 . S
C357 C356 1.392 . S
C357 H369 0.929 . S
C358 C354 1.531 . S
C358 H370 0.960 . S
C358 H371 0.962 . S
C358 H372 0.960 . S
C359 C356 1.511 . S
C359 H373 0.961 . S
C359 H374 0.961 . S
C359 H375 0.961 . S
C360 C361 1.370 . S
C360 C362 1.363 1_556 S
C360 H376 0.931 . S
C361 C360 1.370 . S
C361 C365 1.408 . S
C362 C360 1.363 1_554 S
C362 C363 1.370 . S
C362 C366 1.524 . S
C363 C355 1.503 . S
C363 C362 1.370 . S
C363 C364 1.403 1_554 S
C364 C363 1.403 1_556 S
C364 C365 1.404 . S
C364 C367 1.539 . S
C365 C361 1.408 . S
C365 C364 1.404 . S
C365 H377 0.930 . S
C366 C362 1.524 . S
C366 H378 0.956 . S
C366 H379 0.961 . S
C366 H380 0.961 . S
C367 C364 1.539 . S
C367 H381 0.958 . S
C367 H382 0.961 . S
C367 H383 0.977 . S
H368 C352 0.908 1_556 S
H369 C357 0.929 . S
H370 C358 0.960 . S
H371 C358 0.962 . S
H372 C358 0.960 . S
H373 C359 0.961 . S
H374 C359 0.961 . S
H375 C359 0.961 . S
H376 C360 0.931 . S
H377 C365 0.930 . S
H378 C366 0.956 . S
H379 C366 0.961 . S
H380 C366 0.961 . S
H381 C367 0.958 . S
H382 C367 0.961 . S
H383 C367 0.977 . S
C384 C385 1.391 . S
C384 C386 1.394 . S
C384 H400 0.931 . S
C385 C384 1.391 . S
C385 C389 1.376 . S
C386 C384 1.394 . S
C386 C387 1.369 . S
C386 C390 1.531 . S
C387 C386 1.369 . S
C387 C388 1.410 1_554 S
C387 C395 1.503 1_554 S
C388 C387 1.410 1_556 S
C388 C389 1.392 1_556 S
C388 C391 1.511 . S
C389 C385 1.376 . S
C389 C388 1.392 1_554 S
C389 H401 0.929 1_554 S
C390 C386 1.531 . S
C390 H402 0.960 . S
C390 H403 0.962 . S
C390 H404 0.960 . S
C391 C388 1.511 . S
C391 H405 0.961 . S
C391 H406 0.961 . S
C391 H407 0.961 . S
C392 C393 1.370 . S
C392 C394 1.363 . S
C392 H408 0.931 . S
C393 C392 1.370 . S
C393 C397 1.408 . S
C394 C392 1.363 . S
C394 C395 1.370 . S
C394 C398 1.524 . S
C395 C387 1.503 1_556 S
C395 C394 1.370 . S
C395 C396 1.403 1_556 S
C396 C395 1.403 1_554 S
C396 C397 1.404 1_554 S
C396 C399 1.539 . S
C397 C393 1.408 . S
C397 C396 1.404 1_556 S
C397 H409 0.930 1_455 S
C398 C394 1.524 . S
C398 H410 0.956 . S
C398 H411 0.961 . S
C398 H412 0.961 . S
C399 C396 1.539 . S
C399 H413 0.958 . S
C399 H414 0.961 . S
C399 H415 0.960 . S
H400 C384 0.931 . S
H401 C389 0.929 1_556 S
H402 C390 0.960 . S
H403 C390 0.962 . S
H404 C390 0.960 . S
H405 C391 0.961 . S
H406 C391 0.961 . S
H407 C391 0.961 . S
H408 C392 0.931 . S
H409 C397 0.930 1_655 S
H410 C398 0.956 . S
H411 C398 0.961 . S
H412 C398 0.961 . S
H413 C399 0.958 . S
H414 C399 0.961 . S
H415 C399 0.960 . S
C416 C417 1.391 . S
C416 C418 1.394 . S
C416 H432 0.931 . S
C417 C416 1.391 . S
C417 C421 1.376 . S
C418 C416 1.394 . S
C418 C419 1.369 . S
C418 C422 1.531 . S
C419 C418 1.369 . S
C419 C420 1.410 1_556 S
C419 C427 1.503 1_556 S
C420 C419 1.410 1_554 S
C420 C421 1.392 1_554 S
C420 C423 1.511 . S
C421 C417 1.376 . S
C421 C420 1.392 1_556 S
C421 H433 0.929 . S
C422 C418 1.531 . S
C422 H434 0.960 . S
C422 H435 0.962 . S
C422 H436 0.960 . S
C423 C420 1.511 . S
C423 H437 0.961 . S
C423 H438 0.961 . S
C423 H439 0.961 . S
C424 C425 1.370 . S
C424 C426 1.363 . S
C424 H440 0.931 . S
C425 C424 1.370 . S
C425 C429 1.408 . S
C426 C424 1.363 . S
C426 C427 1.370 . S
C426 C430 1.524 . S
C427 C419 1.503 1_554 S
C427 C426 1.370 . S
C427 C428 1.403 1_554 S
C428 C427 1.403 1_556 S
C428 C429 1.404 1_556 S
C428 C431 1.539 . S
C429 C425 1.408 . S
C429 C428 1.404 1_554 S
C429 H441 0.930 . S
C430 C426 1.524 . S
C430 H442 0.956 . S
C430 H443 0.961 . S
C430 H444 0.961 . S
C431 C428 1.539 . S
C431 H445 0.958 . S
C431 H446 0.961 . S
C431 H447 0.960 . S
H432 C416 0.931 . S
H433 C421 0.929 . S
H434 C422 0.960 . S
H435 C422 0.962 . S
H436 C422 0.960 . S
H437 C423 0.961 . S
H438 C423 0.961 . S
H439 C423 0.961 . S
H440 C424 0.931 . S
H441 C429 0.930 . S
H442 C430 0.956 . S
H443 C430 0.961 . S
H444 C430 0.961 . S
H445 C431 0.958 . S
H446 C431 0.961 . S
H447 C431 0.960 . S
C448 C449 1.391 1_556 S
C448 C450 1.394 . S
C448 H464 0.931 . S
C449 C448 1.391 1_554 S
C449 C453 1.376 . S
C450 C448 1.394 . S
C450 C451 1.369 . S
C450 C454 1.531 . S
C451 C450 1.369 . S
C451 C452 1.410 1_556 S
C451 C459 1.503 . S
C452 C451 1.410 1_554 S
C452 C453 1.392 . S
C452 C455 1.511 . S
C453 C449 1.376 . S
C453 C452 1.392 . S
C453 H465 0.929 . S
C454 C450 1.531 . S
C454 H466 0.960 . S
C454 H467 0.962 . S
C454 H468 0.960 . S
C455 C452 1.511 . S
C455 H469 0.961 . S
C455 H470 0.961 . S
C455 H471 0.961 . S
C456 C457 1.370 . S
C456 C458 1.363 . S
C456 H472 0.931 1_655 S
C457 C456 1.370 . S
C457 C461 1.408 . S
C458 C456 1.363 . S
C458 C459 1.370 . S
C458 C462 1.524 1_556 S
C459 C451 1.503 . S
C459 C458 1.370 . S
C459 C460 1.403 . S
C460 C459 1.403 . S
C460 C461 1.404 . S
C460 C463 1.539 . S
C461 C457 1.408 . S
C461 C460 1.404 . S
C461 H473 0.930 . S
C462 C458 1.524 1_554 S
C462 H474 0.947 1_554 S
C462 H475 0.961 . S
C462 H476 0.961 . S
C463 C460 1.539 . S
C463 H477 0.958 . S
C463 H478 0.961 . S
C463 H479 0.960 . S
H464 C448 0.931 . S
H465 C453 0.929 . S
H466 C454 0.960 . S
H467 C454 0.962 . S
H468 C454 0.960 . S
H469 C455 0.961 . S
H470 C455 0.961 . S
H471 C455 0.961 . S
H472 C456 0.931 1_455 S
H473 C461 0.930 . S
H474 C462 0.947 1_556 S
H475 C462 0.961 . S
H476 C462 0.961 . S
H477 C463 0.958 . S
H478 C463 0.961 . S
H479 C463 0.960 . S
C480 C481 1.391 . S
C480 C482 1.394 . S
C480 H496 0.931 . S
C481 C480 1.391 . S
C481 C485 1.376 . S
C482 C480 1.394 . S
C482 C483 1.369 . S
C482 C486 1.531 . S
C483 C482 1.369 . S
C483 C484 1.410 . S
C483 C491 1.503 . S
C484 C483 1.410 . S
C484 C485 1.392 . S
C484 C487 1.511 . S
C485 C481 1.376 . S
C485 C484 1.392 . S
C485 H497 0.929 . S
C486 C482 1.531 . S
C486 H498 0.960 . S
C486 H499 0.962 . S
C486 H500 0.960 . S
C487 C484 1.511 . S
C487 H501 0.961 . S
C487 H502 0.961 . S
C487 H503 0.961 . S
C488 C489 1.370 . S
C488 C490 1.363 . S
C488 H504 0.931 . S
C489 C488 1.370 . S
C489 C493 1.408 . S
C490 C488 1.363 . S
C490 C491 1.370 . S
C490 C494 1.524 . S
C491 C483 1.503 . S
C491 C490 1.370 . S
C491 C492 1.403 . S
C492 C491 1.403 . S
C492 C493 1.404 . S
C492 C495 1.539 . S
C493 C489 1.408 . S
C493 C492 1.404 . S
C493 H505 0.930 . S
C494 C490 1.524 . S
C494 H506 0.956 . S
C494 H507 0.961 . S
C494 H508 0.961 . S
C495 C492 1.539 . S
C495 H509 0.958 . S
C495 H510 0.961 . S
C495 H511 0.960 . S
H496 C480 0.931 . S
H497 C485 0.929 . S
H498 C486 0.960 . S
H499 C486 0.962 . S
H500 C486 0.960 . S
H501 C487 0.961 . S
H502 C487 0.961 . S
H503 C487 0.961 . S
H504 C488 0.931 . S
H505 C493 0.930 . S
H506 C494 0.956 . S
H507 C494 0.961 . S
H508 C494 0.961 . S
H509 C495 0.958 . S
H510 C495 0.961 . S
H511 C495 0.960 . S
C512 C513 1.391 . S
C512 C514 1.394 . S
C512 H528 0.931 1_655 S
C513 C512 1.391 . S
C513 C517 1.376 . S
C514 C512 1.394 . S
C514 C515 1.369 . S
C514 C518 1.531 . S
C515 C514 1.369 . S
C515 C516 1.410 . S
C515 C523 1.503 . S
C516 C515 1.410 . S
C516 C517 1.392 . S
C516 C519 1.511 . S
C517 C513 1.376 . S
C517 C516 1.392 . S
C517 H529 0.929 . S
C518 C514 1.531 . S
C518 H530 0.960 . S
C518 H531 0.962 . S
C518 H532 0.960 . S
C519 C516 1.511 . S
C519 H533 0.961 . S
C519 H534 0.961 . S
C519 H535 0.961 . S
C520 C521 1.370 . S
C520 C522 1.363 . S
C520 H536 0.931 . S
C521 C520 1.370 . S
C521 C525 1.408 . S
C522 C520 1.363 . S
C522 C523 1.370 . S
C522 C526 1.524 . S
C523 C515 1.503 . S
C523 C522 1.370 . S
C523 C524 1.403 . S
C524 C523 1.403 . S
C524 C525 1.404 . S
C524 C527 1.539 . S
C525 C521 1.408 . S
C525 C524 1.404 . S
C525 H537 0.930 . S
C526 C522 1.524 . S
C526 H538 0.956 . S
C526 H539 0.961 . S
C526 H540 0.961 . S
C527 C524 1.539 . S
C527 H541 0.958 . S
C527 H542 0.961 . S
C527 H543 0.960 . S
H528 C512 0.931 1_455 S
H529 C517 0.929 . S
H530 C518 0.960 . S
H531 C518 0.962 . S
H532 C518 0.960 . S
H533 C519 0.961 . S
H534 C519 0.961 . S
H535 C519 0.961 . S
H536 C520 0.931 . S
H537 C525 0.930 . S
H538 C526 0.956 . S
H539 C526 0.961 . S
H540 C526 0.961 . S
H541 C527 0.958 . S
H542 C527 0.961 . S
H543 C527 0.960 . S
C544 C545 1.391 . S
C544 C546 1.394 . S
C544 H560 0.931 . S
C545 C544 1.391 . S
C545 C549 1.376 . S
C546 C544 1.394 . S
C546 C547 1.369 . S
C546 C550 1.531 . S
C547 C546 1.369 . S
C547 C548 1.410 . S
C547 C555 1.503 . S
C548 C547 1.410 . S
C548 C549 1.392 . S
C548 C551 1.511 . S
C549 C545 1.376 . S
C549 C548 1.392 . S
C549 H561 0.929 . S
C550 C546 1.531 . S
C550 H562 0.960 . S
C550 H563 0.962 . S
C550 H564 0.960 . S
C551 C548 1.511 . S
C551 H565 0.961 . S
C551 H566 0.961 . S
C551 H567 0.961 . S
C552 C553 1.370 . S
C552 C554 1.363 . S
C552 H568 0.931 . S
C553 C552 1.370 . S
C553 C557 1.408 . S
C554 C552 1.363 . S
C554 C555 1.370 . S
C554 C558 1.524 . S
C555 C547 1.503 . S
C555 C554 1.370 . S
C555 C556 1.403 . S
C556 C555 1.403 . S
C556 C557 1.404 . S
C556 C559 1.539 . S
C557 C553 1.408 . S
C557 C556 1.404 . S
C557 H569 0.930 . S
C558 C554 1.524 . S
C558 H570 0.956 . S
C558 H571 0.961 . S
C558 H572 0.961 . S
C559 C556 1.539 . S
C559 H573 0.958 . S
C559 H574 0.961 . S
C559 H575 0.960 . S
H560 C544 0.931 . S
H561 C549 0.929 . S
H562 C550 0.960 . S
H563 C550 0.962 . S
H564 C550 0.960 . S
H565 C551 0.961 . S
H566 C551 0.961 . S
H567 C551 0.961 . S
H568 C552 0.931 . S
H569 C557 0.930 . S
H570 C558 0.956 . S
H571 C558 0.961 . S
H572 C558 0.961 . S
H573 C559 0.958 . S
H574 C559 0.961 . S
H575 C559 0.960 . S
C576 C577 1.391 . S
C576 C578 1.394 . S
C576 H592 0.931 1_455 S
C577 C576 1.391 . S
C577 C581 1.376 . S
C578 C576 1.394 . S
C578 C579 1.369 . S
C578 C582 1.531 . S
C579 C578 1.369 . S
C579 C580 1.410 . S
C579 C587 1.503 . S
C580 C579 1.410 . S
C580 C581 1.392 . S
C580 C583 1.511 . S
C581 C577 1.376 . S
C581 C580 1.392 . S
C581 H593 0.929 . S
C582 C578 1.531 . S
C582 H594 0.960 . S
C582 H595 0.962 . S
C582 H596 0.960 . S
C583 C580 1.511 . S
C583 H597 0.961 . S
C583 H598 0.961 . S
C583 H599 0.961 . S
C584 C585 1.370 . S
C584 C586 1.363 . S
C584 H600 0.931 . S
C585 C584 1.370 . S
C585 C589 1.408 . S
C586 C584 1.363 . S
C586 C587 1.370 . S
C586 C590 1.524 . S
C587 C579 1.503 . S
C587 C586 1.370 . S
C587 C588 1.403 . S
C588 C587 1.403 . S
C588 C589 1.404 . S
C588 C591 1.539 . S
C589 C585 1.408 . S
C589 C588 1.404 . S
C589 H601 0.930 . S
C590 C586 1.524 . S
C590 H602 0.956 . S
C590 H603 0.961 . S
C590 H604 0.961 . S
C591 C588 1.539 . S
C591 H605 0.958 . S
C591 H606 0.961 . S
C591 H607 0.960 . S
H592 C576 0.931 1_655 S
H593 C581 0.929 . S
H594 C582 0.960 . S
H595 C582 0.962 . S
H596 C582 0.960 . S
H597 C583 0.961 . S
H598 C583 0.961 . S
H599 C583 0.961 . S
H600 C584 0.931 . S
H601 C589 0.930 . S
H602 C590 0.956 . S
H603 C590 0.961 . S
H604 C590 0.961 . S
H605 C591 0.958 . S
H606 C591 0.961 . S
H607 C591 0.960 . S
C608 C609 1.391 . S
C608 C610 1.394 . S
C608 H624 0.931 . S
C609 C608 1.391 . S
C609 C613 1.376 . S
C610 C608 1.394 . S
C610 C611 1.369 . S
C610 C614 1.531 . S
C611 C610 1.369 . S
C611 C612 1.410 . S
C611 C619 1.503 . S
C612 C611 1.410 . S
C612 C613 1.392 . S
C612 C615 1.511 . S
C613 C609 1.376 . S
C613 C612 1.392 . S
C613 H625 0.929 . S
C614 C610 1.531 . S
C614 H626 0.960 . S
C614 H627 0.962 . S
C614 H628 0.960 . S
C615 C612 1.511 . S
C615 H629 0.961 . S
C615 H630 0.961 . S
C615 H631 0.961 . S
C616 C617 1.370 . S
C616 C618 1.363 . S
C616 H632 0.931 . S
C617 C616 1.370 . S
C617 C621 1.408 . S
C618 C616 1.363 . S
C618 C619 1.370 . S
C618 C622 1.524 . S
C619 C611 1.503 . S
C619 C618 1.370 . S
C619 C620 1.403 . S
C620 C619 1.403 . S
C620 C621 1.404 . S
C620 C623 1.539 . S
C621 C617 1.408 . S
C621 C620 1.404 . S
C621 H633 0.930 . S
C622 C618 1.524 . S
C622 H634 0.956 . S
C622 H635 0.961 . S
C622 H636 0.961 . S
C623 C620 1.539 . S
C623 H637 0.958 . S
C623 H638 0.961 . S
C623 H639 0.960 . S
H624 C608 0.931 . S
H625 C613 0.929 . S
H626 C614 0.960 . S
H627 C614 0.962 . S
H628 C614 0.960 . S
H629 C615 0.961 . S
H630 C615 0.961 . S
H631 C615 0.961 . S
H632 C616 0.931 . S
H633 C621 0.930 . S
H634 C622 0.956 . S
H635 C622 0.961 . S
H636 C622 0.961 . S
H637 C623 0.958 . S
H638 C623 0.961 . S
H639 C623 0.960 . S
C640 C641 1.391 . S
C640 C642 1.394 . S
C640 H656 0.931 . S
C641 C640 1.391 . S
C641 C645 1.376 . S
C642 C640 1.394 . S
C642 C643 1.369 . S
C642 C646 1.531 . S
C643 C642 1.369 . S
C643 C644 1.410 . S
C643 C651 1.503 . S
C644 C643 1.410 . S
C644 C645 1.392 . S
C644 C647 1.511 . S
C645 C641 1.376 . S
C645 C644 1.392 . S
C645 H657 0.929 . S
C646 C642 1.531 . S
C646 H658 0.960 . S
C646 H659 0.962 . S
C646 H660 0.960 . S
C647 C644 1.511 . S
C647 H661 0.961 . S
C647 H662 0.961 . S
C647 H663 0.961 . S
C648 C649 1.370 . S
C648 C650 1.363 . S
C648 H664 0.931 . S
C649 C648 1.370 . S
C649 C653 1.408 . S
C650 C648 1.363 . S
C650 C651 1.370 . S
C650 C654 1.524 . S
C651 C643 1.503 . S
C651 C650 1.370 . S
C651 C652 1.403 . S
C652 C651 1.403 . S
C652 C653 1.404 . S
C652 C655 1.539 . S
C653 C649 1.408 . S
C653 C652 1.404 . S
C653 H665 0.930 . S
C654 C650 1.524 . S
C654 H666 0.956 . S
C654 H667 0.961 . S
C654 H668 0.961 . S
C655 C652 1.539 . S
C655 H669 0.958 . S
C655 H670 0.961 . S
C655 H671 0.960 . S
H656 C640 0.931 . S
H657 C645 0.929 . S
H658 C646 0.960 . S
H659 C646 0.962 . S
H660 C646 0.960 . S
H661 C647 0.961 . S
H662 C647 0.961 . S
H663 C647 0.961 . S
H664 C648 0.931 . S
H665 C653 0.930 . S
H666 C654 0.956 . S
H667 C654 0.961 . S
H668 C654 0.961 . S
H669 C655 0.958 . S
H670 C655 0.961 . S
H671 C655 0.960 . S
C672 C673 1.391 . S
C672 C674 1.394 . S
C672 H688 0.931 . S
C673 C672 1.391 . S
C673 C677 1.376 . S
C674 C672 1.394 . S
C674 C675 1.369 . S
C674 C678 1.531 . S
C675 C674 1.369 . S
C675 C676 1.410 . S
C675 C683 1.503 . S
C676 C675 1.410 . S
C676 C677 1.392 . S
C676 C679 1.511 . S
C677 C673 1.376 . S
C677 C676 1.392 . S
C677 H689 0.929 . S
C678 C674 1.531 . S
C678 H690 0.960 . S
C678 H691 0.962 . S
C678 H692 0.960 . S
C679 C676 1.511 . S
C679 H693 0.961 . S
C679 H694 0.961 . S
C679 H695 0.961 . S
C680 C681 1.370 . S
C680 C682 1.363 . S
C680 H696 0.931 . S
C681 C680 1.370 . S
C681 C685 1.408 . S
C682 C680 1.363 . S
C682 C683 1.370 . S
C682 C686 1.524 . S
C683 C675 1.503 . S
C683 C682 1.370 . S
C683 C684 1.403 . S
C684 C683 1.403 . S
C684 C685 1.404 . S
C684 C687 1.539 . S
C685 C681 1.408 . S
C685 C684 1.404 . S
C685 H697 0.930 . S
C686 C682 1.524 . S
C686 H698 0.956 . S
C686 H699 0.961 . S
C686 H700 0.961 . S
C687 C684 1.539 . S
C687 H701 0.958 . S
C687 H702 0.961 . S
C687 H703 0.960 . S
H688 C672 0.931 . S
H689 C677 0.929 . S
H690 C678 0.960 . S
H691 C678 0.962 . S
H692 C678 0.960 . S
H693 C679 0.961 . S
H694 C679 0.961 . S
H695 C679 0.961 . S
H696 C680 0.931 . S
H697 C685 0.930 . S
H698 C686 0.956 . S
H699 C686 0.961 . S
H700 C686 0.961 . S
H701 C687 0.958 . S
H702 C687 0.961 . S
H703 C687 0.960 . S
C704 C705 1.391 . S
C704 C706 1.394 . S
C704 H720 0.931 . S
C705 C704 1.391 . S
C705 C709 1.376 . S
C706 C704 1.394 . S
C706 C707 1.369 . S
C706 C710 1.531 . S
C707 C706 1.369 . S
C707 C708 1.410 . S
C707 C715 1.503 . S
C708 C707 1.410 . S
C708 C709 1.392 . S
C708 C711 1.511 . S
C709 C705 1.376 . S
C709 C708 1.392 . S
C709 H721 0.929 . S
C710 C706 1.531 . S
C710 H722 0.960 . S
C710 H723 0.962 . S
C710 H724 0.960 . S
C711 C708 1.511 . S
C711 H725 0.961 . S
C711 H726 0.961 . S
C711 H727 0.961 . S
C712 C713 1.370 . S
C712 C714 1.363 . S
C712 H728 0.931 . S
C713 C712 1.370 . S
C713 C717 1.408 . S
C714 C712 1.363 . S
C714 C715 1.370 . S
C714 C718 1.524 . S
C715 C707 1.503 . S
C715 C714 1.370 . S
C715 C716 1.403 . S
C716 C715 1.403 . S
C716 C717 1.404 . S
C716 C719 1.539 . S
C717 C713 1.408 . S
C717 C716 1.404 . S
C717 H729 0.930 . S
C718 C714 1.524 . S
C718 H730 0.956 . S
C718 H731 0.961 . S
C718 H732 0.961 . S
C719 C716 1.539 . S
C719 H733 0.958 . S
C719 H734 0.961 . S
C719 H735 0.960 . S
H720 C704 0.931 . S
H721 C709 0.929 . S
H722 C710 0.960 . S
H723 C710 0.962 . S
H724 C710 0.960 . S
H725 C711 0.961 . S
H726 C711 0.961 . S
H727 C711 0.961 . S
H728 C712 0.931 . S
H729 C717 0.930 . S
H730 C718 0.956 . S
H731 C718 0.961 . S
H732 C718 0.961 . S
H733 C719 0.958 . S
H734 C719 0.961 . S
H735 C719 0.960 . S
C736 C737 1.391 . S
C736 C738 1.394 . S
C736 H752 0.931 . S
C737 C736 1.391 . S
C737 C741 1.376 . S
C738 C736 1.394 . S
C738 C739 1.369 . S
C738 C742 1.531 . S
C739 C738 1.369 . S
C739 C740 1.410 . S
C739 C747 1.503 . S
C740 C739 1.410 . S
C740 C741 1.392 . S
C740 C743 1.511 . S
C741 C737 1.376 . S
C741 C740 1.392 . S
C741 H753 0.929 . S
C742 C738 1.531 . S
C742 H754 0.960 . S
C742 H755 0.962 . S
C742 H756 0.960 . S
C743 C740 1.511 . S
C743 H757 0.961 . S
C743 H758 0.961 . S
C743 H759 0.961 . S
C744 C745 1.370 . S
C744 C746 1.363 . S
C744 H760 0.931 . S
C745 C744 1.370 . S
C745 C749 1.408 . S
C746 C744 1.363 . S
C746 C747 1.370 . S
C746 C750 1.524 . S
C747 C739 1.503 . S
C747 C746 1.370 . S
C747 C748 1.403 . S
C748 C747 1.403 . S
C748 C749 1.404 . S
C748 C751 1.539 . S
C749 C745 1.408 . S
C749 C748 1.404 . S
C749 H761 0.930 . S
C750 C746 1.524 . S
C750 H762 0.956 . S
C750 H763 0.961 . S
C750 H764 0.961 . S
C751 C748 1.539 . S
C751 H765 0.958 . S
C751 H766 0.961 . S
C751 H767 0.960 . S
H752 C736 0.931 . S
H753 C741 0.929 . S
H754 C742 0.960 . S
H755 C742 0.962 . S
H756 C742 0.960 . S
H757 C743 0.961 . S
H758 C743 0.961 . S
H759 C743 0.961 . S
H760 C744 0.931 . S
H761 C749 0.930 . S
H762 C750 0.956 . S
H763 C750 0.961 . S
H764 C750 0.961 . S
H765 C751 0.958 . S
H766 C751 0.961 . S
H767 C751 0.960 . S
C768 C769 1.391 . S
C768 C770 1.394 . S
C768 H784 0.931 . S
C769 C768 1.391 . S
C769 C773 1.376 . S
C770 C768 1.394 . S
C770 C771 1.369 . S
C770 C774 1.531 . S
C771 C770 1.369 . S
C771 C772 1.410 . S
C771 C779 1.503 . S
C772 C771 1.410 . S
C772 C773 1.392 . S
C772 C775 1.511 . S
C773 C769 1.376 . S
C773 C772 1.392 . S
C773 H785 0.929 . S
C774 C770 1.531 . S
C774 H786 0.960 . S
C774 H787 0.962 . S
C774 H788 0.960 . S
C775 C772 1.511 . S
C775 H789 0.961 . S
C775 H790 0.961 . S
C775 H791 0.961 . S
C776 C777 1.370 . S
C776 C778 1.363 . S
C776 H792 0.931 . S
C777 C776 1.370 . S
C777 C781 1.408 . S
C778 C776 1.363 . S
C778 C779 1.370 . S
C778 C782 1.524 . S
C779 C771 1.503 . S
C779 C778 1.370 . S
C779 C780 1.403 . S
C780 C779 1.403 . S
C780 C781 1.404 . S
C780 C783 1.539 . S
C781 C777 1.408 . S
C781 C780 1.404 . S
C781 H793 0.930 . S
C782 C778 1.524 . S
C782 H794 0.956 . S
C782 H795 0.961 . S
C782 H796 0.961 . S
C783 C780 1.539 . S
C783 H797 0.958 . S
C783 H798 0.961 . S
C783 H799 0.960 . S
H784 C768 0.931 . S
H785 C773 0.929 . S
H786 C774 0.960 . S
H787 C774 0.962 . S
H788 C774 0.960 . S
H789 C775 0.961 . S
H790 C775 0.961 . S
H791 C775 0.961 . S
H792 C776 0.931 . S
H793 C781 0.930 . S
H794 C782 0.956 . S
H795 C782 0.961 . S
H796 C782 0.961 . S
H797 C783 0.958 . S
H798 C783 0.961 . S
H799 C783 0.960 . S
C800 C801 1.391 . S
C800 C802 1.394 . S
C800 H816 0.931 . S
C801 C800 1.391 . S
C801 C805 1.376 . S
C802 C800 1.394 . S
C802 C803 1.369 . S
C802 C806 1.531 . S
C803 C802 1.369 . S
C803 C804 1.410 . S
C803 C811 1.503 . S
C804 C803 1.410 . S
C804 C805 1.392 . S
C804 C807 1.511 . S
C805 C801 1.376 . S
C805 C804 1.392 . S
C805 H817 0.929 . S
C806 C802 1.531 . S
C806 H818 0.960 . S
C806 H819 0.962 . S
C806 H820 0.960 . S
C807 C804 1.511 . S
C807 H821 0.961 . S
C807 H822 0.961 . S
C807 H823 0.961 . S
C808 C809 1.370 . S
C808 C810 1.363 . S
C808 H824 0.931 . S
C809 C808 1.370 . S
C809 C813 1.408 . S
C810 C808 1.363 . S
C810 C811 1.370 . S
C810 C814 1.524 . S
C811 C803 1.503 . S
C811 C810 1.370 . S
C811 C812 1.403 . S
C812 C811 1.403 . S
C812 C813 1.404 . S
C812 C815 1.539 . S
C813 C809 1.408 . S
C813 C812 1.404 . S
C813 H825 0.930 . S
C814 C810 1.524 . S
C814 H826 0.956 . S
C814 H827 0.961 . S
C814 H828 0.961 . S
C815 C812 1.539 . S
C815 H829 0.958 . S
C815 H830 0.961 . S
C815 H831 0.960 . S
H816 C800 0.931 . S
H817 C805 0.929 . S
H818 C806 0.960 . S
H819 C806 0.962 . S
H820 C806 0.960 . S
H821 C807 0.961 . S
H822 C807 0.961 . S
H823 C807 0.961 . S
H824 C808 0.931 . S
H825 C813 0.930 . S
H826 C814 0.956 . S
H827 C814 0.961 . S
H828 C814 0.961 . S
H829 C815 0.958 . S
H830 C815 0.961 . S
H831 C815 0.960 . S
C832 C833 1.391 . S
C832 C834 1.394 . S
C832 H848 0.931 . S
C833 C832 1.391 . S
C833 C837 1.376 . S
C834 C832 1.394 . S
C834 C835 1.369 . S
C834 C838 1.531 . S
C835 C834 1.369 . S
C835 C836 1.410 . S
C835 C843 1.503 . S
C836 C835 1.410 . S
C836 C837 1.392 . S
C836 C839 1.511 . S
C837 C833 1.376 . S
C837 C836 1.392 . S
C837 H849 0.929 . S
C838 C834 1.531 . S
C838 H850 0.960 . S
C838 H851 0.962 . S
C838 H852 0.960 . S
C839 C836 1.511 . S
C839 H853 0.961 . S
C839 H854 0.961 . S
C839 H855 0.961 . S
C840 C841 1.370 . S
C840 C842 1.363 . S
C840 H856 0.931 . S
C841 C840 1.370 . S
C841 C845 1.408 . S
C842 C840 1.363 . S
C842 C843 1.370 . S
C842 C846 1.524 . S
C843 C835 1.503 . S
C843 C842 1.370 . S
C843 C844 1.403 . S
C844 C843 1.403 . S
C844 C845 1.404 . S
C844 C847 1.539 . S
C845 C841 1.408 . S
C845 C844 1.404 . S
C845 H857 0.930 . S
C846 C842 1.524 . S
C846 H858 0.956 . S
C846 H859 0.961 . S
C846 H860 0.961 . S
C847 C844 1.539 . S
C847 H861 0.958 . S
C847 H862 0.961 . S
C847 H863 0.960 . S
H848 C832 0.931 . S
H849 C837 0.929 . S
H850 C838 0.960 . S
H851 C838 0.962 . S
H852 C838 0.960 . S
H853 C839 0.961 . S
H854 C839 0.961 . S
H855 C839 0.961 . S
H856 C840 0.931 . S
H857 C845 0.930 . S
H858 C846 0.956 . S
H859 C846 0.961 . S
H860 C846 0.961 . S
H861 C847 0.958 . S
H862 C847 0.961 . S
H863 C847 0.960 . S
C864 C865 1.391 . S
C864 C866 1.394 . S
C864 H880 0.931 . S
C865 C864 1.391 . S
C865 C869 1.376 . S
C866 C864 1.394 . S
C866 C867 1.369 . S
C866 C870 1.531 . S
C867 C866 1.369 . S
C867 C868 1.410 . S
C867 C875 1.503 . S
C868 C867 1.410 . S
C868 C869 1.392 . S
C868 C871 1.511 . S
C869 C865 1.376 . S
C869 C868 1.392 . S
C869 H881 0.929 . S
C870 C866 1.531 . S
C870 H882 0.960 . S
C870 H883 0.962 . S
C870 H884 0.960 . S
C871 C868 1.511 . S
C871 H885 0.961 . S
C871 H886 0.961 . S
C871 H887 0.961 . S
C872 C873 1.370 . S
C872 C874 1.363 . S
C872 H888 0.931 . S
C873 C872 1.370 . S
C873 C877 1.408 . S
C874 C872 1.363 . S
C874 C875 1.370 . S
C874 C878 1.524 . S
C875 C867 1.503 . S
C875 C874 1.370 . S
C875 C876 1.403 . S
C876 C875 1.403 . S
C876 C877 1.404 . S
C876 C879 1.539 . S
C877 C873 1.408 . S
C877 C876 1.404 . S
C877 H889 0.930 . S
C878 C874 1.524 . S
C878 H890 0.956 . S
C878 H891 0.961 . S
C878 H892 0.961 . S
C879 C876 1.539 . S
C879 H893 0.958 . S
C879 H894 0.961 . S
C879 H895 0.960 . S
H880 C864 0.931 . S
H881 C869 0.929 . S
H882 C870 0.960 . S
H883 C870 0.962 . S
H884 C870 0.960 . S
H885 C871 0.961 . S
H886 C871 0.961 . S
H887 C871 0.961 . S
H888 C872 0.931 . S
H889 C877 0.930 . S
H890 C878 0.956 . S
H891 C878 0.961 . S
H892 C878 0.961 . S
H893 C879 0.958 . S
H894 C879 0.961 . S
H895 C879 0.960 . S
C896 C897 1.391 . S
C896 C898 1.394 . S
C896 H912 0.931 . S
C897 C896 1.391 . S
C897 C901 1.376 . S
C898 C896 1.394 . S
C898 C899 1.369 . S
C898 C902 1.531 . S
C899 C898 1.369 . S
C899 C900 1.410 . S
C899 C907 1.503 . S
C900 C899 1.410 . S
C900 C901 1.392 . S
C900 C903 1.511 . S
C901 C897 1.376 . S
C901 C900 1.392 . S
C901 H913 0.929 . S
C902 C898 1.531 . S
C902 H914 0.960 . S
C902 H915 0.962 . S
C902 H916 0.960 . S
C903 C900 1.511 . S
C903 H917 0.961 . S
C903 H918 0.961 . S
C903 H919 0.961 . S
C904 C905 1.370 . S
C904 C906 1.363 . S
C904 H920 0.931 . S
C905 C904 1.370 . S
C905 C909 1.408 . S
C906 C904 1.363 . S
C906 C907 1.370 . S
C906 C910 1.524 . S
C907 C899 1.503 . S
C907 C906 1.370 . S
C907 C908 1.403 . S
C908 C907 1.403 . S
C908 C909 1.404 . S
C908 C911 1.539 . S
C909 C905 1.408 . S
C909 C908 1.404 . S
C909 H921 0.930 . S
C910 C906 1.524 . S
C910 H922 0.956 . S
C910 H923 0.961 . S
C910 H924 0.961 . S
C911 C908 1.539 . S
C911 H925 0.958 . S
C911 H926 0.961 . S
C911 H927 0.960 . S
H912 C896 0.931 . S
H913 C901 0.929 . S
H914 C902 0.960 . S
H915 C902 0.962 . S
H916 C902 0.960 . S
H917 C903 0.961 . S
H918 C903 0.961 . S
H919 C903 0.961 . S
H920 C904 0.931 . S
H921 C909 0.930 . S
H922 C910 0.956 . S
H923 C910 0.961 . S
H924 C910 0.961 . S
H925 C911 0.958 . S
H926 C911 0.961 . S
H927 C911 0.960 . S
C928 C929 1.391 . S
C928 C930 1.394 . S
C928 H944 0.931 . S
C929 C928 1.391 . S
C929 C933 1.376 . S
C930 C928 1.394 . S
C930 C931 1.369 . S
C930 C934 1.531 . S
C931 C930 1.369 . S
C931 C932 1.410 . S
C931 C939 1.503 . S
C932 C931 1.410 . S
C932 C933 1.392 . S
C932 C935 1.511 . S
C933 C929 1.376 . S
C933 C932 1.392 . S
C933 H945 0.929 . S
C934 C930 1.531 . S
C934 H946 0.960 . S
C934 H947 0.962 . S
C934 H948 0.960 . S
C935 C932 1.511 . S
C935 H949 0.961 . S
C935 H950 0.961 . S
C935 H951 0.961 . S
C936 C937 1.370 . S
C936 C938 1.363 . S
C936 H952 0.931 . S
C937 C936 1.370 . S
C937 C941 1.408 . S
C938 C936 1.363 . S
C938 C939 1.370 . S
C938 C942 1.524 . S
C939 C931 1.503 . S
C939 C938 1.370 . S
C939 C940 1.403 . S
C940 C939 1.403 . S
C940 C941 1.404 . S
C940 C943 1.539 . S
C941 C937 1.408 . S
C941 C940 1.404 . S
C941 H953 0.930 . S
C942 C938 1.524 . S
C942 H954 0.956 . S
C942 H955 0.961 . S
C942 H956 0.961 . S
C943 C940 1.539 . S
C943 H957 0.958 . S
C943 H958 0.961 . S
C943 H959 0.960 . S
H944 C928 0.931 . S
H945 C933 0.929 . S
H946 C934 0.960 . S
H947 C934 0.962 . S
H948 C934 0.960 . S
H949 C935 0.961 . S
H950 C935 0.961 . S
H951 C935 0.961 . S
H952 C936 0.931 . S
H953 C941 0.930 . S
H954 C942 0.956 . S
H955 C942 0.961 . S
H956 C942 0.961 . S
H957 C943 0.958 . S
H958 C943 0.961 . S
H959 C943 0.960 . S
C960 C961 1.391 . S
C960 C962 1.394 . S
C960 H976 0.931 . S
C961 C960 1.391 . S
C961 C965 1.376 . S
C962 C960 1.394 . S
C962 C963 1.369 . S
C962 C966 1.531 . S
C963 C962 1.369 . S
C963 C964 1.410 . S
C963 C971 1.503 . S
C964 C963 1.410 . S
C964 C965 1.392 . S
C964 C967 1.511 . S
C965 C961 1.376 . S
C965 C964 1.392 . S
C965 H977 0.929 . S
C966 C962 1.531 . S
C966 H978 0.960 . S
C966 H979 0.962 . S
C966 H980 0.960 . S
C967 C964 1.511 . S
C967 H981 0.961 . S
C967 H982 0.961 . S
C967 H983 0.961 . S
C968 C969 1.370 . S
C968 C970 1.363 . S
C968 H984 0.931 . S
C969 C968 1.370 . S
C969 C973 1.408 . S
C970 C968 1.363 . S
C970 C971 1.370 . S
C970 C974 1.524 . S
C971 C963 1.503 . S
C971 C970 1.370 . S
C971 C972 1.403 . S
C972 C971 1.403 . S
C972 C973 1.404 . S
C972 C975 1.539 . S
C973 C969 1.408 . S
C973 C972 1.404 . S
C973 H985 0.930 . S
C974 C970 1.524 . S
C974 H986 0.956 . S
C974 H987 0.961 . S
C974 H988 0.961 . S
C975 C972 1.539 . S
C975 H989 0.958 . S
C975 H990 0.961 . S
C975 H991 0.960 . S
H976 C960 0.931 . S
H977 C965 0.929 . S
H978 C966 0.960 . S
H979 C966 0.962 . S
H980 C966 0.960 . S
H981 C967 0.961 . S
H982 C967 0.961 . S
H983 C967 0.961 . S
H984 C968 0.931 . S
H985 C973 0.930 . S
H986 C974 0.956 . S
H987 C974 0.961 . S
H988 C974 0.961 . S
H989 C975 0.958 . S
H990 C975 0.961 . S
H991 C975 0.960 . S
C992 C993 1.391 . S
C992 C994 1.394 . S
C992 H1008 0.931 . S
C993 C992 1.391 . S
C993 C997 1.376 . S
C994 C992 1.394 . S
C994 C995 1.369 . S
C994 C998 1.531 1_565 S
C995 C994 1.369 . S
C995 C996 1.410 1_655 S
C995 C1003 1.503 1_665 S
C996 C995 1.410 1_455 S
C996 C997 1.392 1_455 S
C996 C999 1.511 . S
C997 C993 1.376 . S
C997 C996 1.392 1_655 S
C997 H1009 0.929 . S
C998 C994 1.531 1_545 S
C998 H1010 0.960 . S
C998 H1011 0.962 . S
C998 H1012 0.960 . S
C999 C996 1.511 . S
C999 H1013 0.961 . S
C999 H1014 0.961 . S
C999 H1015 0.961 . S
C1000 C1001 1.370 . S
C1000 C1002 1.363 . S
C1000 H1016 0.931 . S
C1001 C1000 1.370 . S
C1001 C1005 1.408 . S
C1002 C1000 1.363 . S
C1002 C1003 1.370 . S
C1002 C1006 1.524 1_455 S
C1003 C995 1.503 1_445 S
C1003 C1002 1.370 . S
C1003 C1004 1.403 . S
C1004 C1003 1.403 . S
C1004 C1005 1.404 . S
C1004 C1007 1.539 1_545 S
C1005 C1001 1.408 . S
C1005 C1004 1.404 . S
C1005 H1017 0.930 . S
C1006 C1002 1.524 1_655 S
C1006 H1018 0.956 . S
C1006 H1019 0.961 . S
C1006 H1020 0.961 . S
C1007 C1004 1.539 1_565 S
C1007 H1021 0.958 1_565 S
C1007 H1022 0.961 . S
C1007 H1023 0.960 . S
H1008 C992 0.931 . S
H1009 C997 0.929 . S
H1010 C998 0.960 . S
H1011 C998 0.962 . S
H1012 C998 0.960 . S
H1013 C999 0.961 . S
H1014 C999 0.961 . S
H1015 C999 0.961 . S
H1016 C1000 0.931 . S
H1017 C1005 0.930 . S
H1018 C1006 0.956 . S
H1019 C1006 0.961 . S
H1020 C1006 0.961 . S
H1021 C1007 0.958 1_545 S
H1022 C1007 0.961 . S
H1023 C1007 0.960 . S
C1024 C1025 1.391 . S
C1024 C1026 1.394 1_545 S
C1024 H1040 0.931 . S
C1025 C1024 1.391 . S
C1025 C1029 1.376 . S
C1026 C1024 1.394 1_565 S
C1026 C1027 1.369 1_565 S
C1026 C1030 1.531 . S
C1027 C1026 1.369 1_545 S
C1027 C1028 1.410 . S
C1027 C1035 1.503 1_645 S
C1028 C1027 1.410 . S
C1028 C1029 1.392 . S
C1028 C1031 1.511 1_655 S
C1029 C1025 1.376 . S
C1029 C1028 1.392 . S
C1029 H1041 0.929 . S
C1030 C1026 1.531 . S
C1030 H1042 0.960 . S
C1030 H1043 0.962 . S
C1030 H1044 0.960 . S
C1031 C1028 1.511 1_455 S
C1031 H1045 0.961 . S
C1031 H1046 0.961 . S
C1031 H1047 0.961 . S
C1032 C1033 1.370 . S
C1032 C1034 1.363 . S
C1032 H1048 0.931 . S
C1033 C1032 1.370 . S
C1033 C1037 1.408 . S
C1034 C1032 1.363 . S
C1034 C1035 1.370 . S
C1034 C1038 1.524 . S
C1035 C1027 1.503 1_465 S
C1035 C1034 1.370 . S
C1035 C1036 1.403 . S
C1036 C1035 1.403 . S
C1036 C1037 1.404 . S
C1036 C1039 1.539 1_565 S
C1037 C1033 1.408 . S
C1037 C1036 1.404 . S
C1037 H1049 0.930 . S
C1038 C1034 1.524 . S
C1038 H1050 0.956 1_455 S
C1038 H1051 0.961 1_565 S
C1038 H1052 0.961 . S
C1039 C1036 1.539 1_545 S
C1039 H1053 0.958 1_545 S
C1039 H1054 0.961 . S
C1039 H1055 0.960 . S
H1040 C1024 0.931 . S
H1041 C1029 0.929 . S
H1042 C1030 0.960 . S
H1043 C1030 0.962 . S
H1044 C1030 0.960 . S
H1045 C1031 0.961 . S
H1046 C1031 0.961 . S
H1047 C1031 0.961 . S
H1048 C1032 0.931 . S
H1049 C1037 0.930 . S
H1050 C1038 0.956 1_655 S
H1051 C1038 0.961 1_545 S
H1052 C1038 0.961 . S
H1053 C1039 0.958 1_565 S
H1054 C1039 0.961 . S
H1055 C1039 0.960 . S
C1056 C1057 1.391 . S
C1056 C1058 1.394 . S
C1056 H1072 0.931 . S
C1057 C1056 1.391 . S
C1057 C1061 1.376 . S
C1058 C1056 1.394 . S
C1058 C1059 1.369 . S
C1058 C1062 1.531 . S
C1059 C1058 1.369 . S
C1059 C1060 1.410 . S
C1059 C1067 1.503 1_455 S
C1060 C1059 1.410 . S
C1060 C1061 1.392 . S
C1060 C1063 1.511 1_455 S
C1061 C1057 1.376 . S
C1061 C1060 1.392 . S
C1061 H1073 0.929 . S
C1062 C1058 1.531 . S
C1062 H1074 0.960 . S
C1062 H1075 0.962 . S
C1062 H1076 0.960 . S
C1063 C1060 1.511 1_655 S
C1063 H1077 0.961 1_556 S
C1063 H1078 0.961 . S
C1063 H1079 0.961 . S
C1064 C1065 1.370 . S
C1064 C1066 1.363 . S
C1064 H1080 0.931 . S
C1065 C1064 1.370 . S
C1065 C1069 1.408 . S
C1066 C1064 1.363 . S
C1066 C1067 1.370 . S
C1066 C1070 1.524 1_655 S
C1067 C1059 1.503 1_655 S
C1067 C1066 1.370 . S
C1067 C1068 1.403 . S
C1068 C1067 1.403 . S
C1068 C1069 1.404 . S
C1068 C1071 1.539 . S
C1069 C1065 1.408 . S
C1069 C1068 1.404 . S
C1069 H1081 0.930 . S
C1070 C1066 1.524 1_455 S
C1070 H1082 0.956 . S
C1070 H1083 0.961 . S
C1070 H1084 0.961 . S
C1071 C1068 1.539 . S
C1071 H1085 0.958 . S
C1071 H1086 0.961 . S
C1071 H1087 0.960 . S
H1072 C1056 0.931 . S
H1073 C1061 0.929 . S
H1074 C1062 0.960 . S
H1075 C1062 0.962 . S
H1076 C1062 0.960 . S
H1077 C1063 0.961 1_554 S
H1078 C1063 0.961 . S
H1079 C1063 0.961 . S
H1080 C1064 0.931 . S
H1081 C1069 0.930 . S
H1082 C1070 0.956 . S
H1083 C1070 0.961 . S
H1084 C1070 0.961 . S
H1085 C1071 0.958 . S
H1086 C1071 0.961 . S
H1087 C1071 0.960 . S
C1088 C1089 1.391 . S
C1088 C1090 1.394 . S
C1088 H1104 0.931 . S
C1089 C1088 1.391 . S
C1089 C1093 1.376 . S
C1090 C1088 1.394 . S
C1090 C1091 1.369 . S
C1090 C1094 1.531 1_565 S
C1091 C1090 1.369 . S
C1091 C1092 1.410 . S
C1091 C1099 1.503 1_565 S
C1092 C1091 1.410 . S
C1092 C1093 1.392 . S
C1092 C1095 1.511 . S
C1093 C1089 1.376 . S
C1093 C1092 1.392 . S
C1093 H1105 0.929 . S
C1094 C1090 1.531 1_545 S
C1094 H1106 0.960 . S
C1094 H1107 0.962 1_554 S
C1094 H1108 0.960 . S
C1095 C1092 1.511 . S
C1095 H1109 0.961 . S
C1095 H1110 0.961 . S
C1095 H1111 0.961 . S
C1096 C1097 1.370 . S
C1096 C1098 1.363 . S
C1096 H1112 0.931 . S
C1097 C1096 1.370 . S
C1097 C1101 1.408 . S
C1098 C1096 1.363 . S
C1098 C1099 1.370 . S
C1098 C1102 1.524 1_545 S
C1099 C1091 1.503 1_545 S
C1099 C1098 1.370 . S
C1099 C1100 1.403 . S
C1100 C1099 1.403 . S
C1100 C1101 1.404 . S
C1100 C1103 1.539 . S
C1101 C1097 1.408 . S
C1101 C1100 1.404 . S
C1101 H1113 0.930 . S
C1102 C1098 1.524 1_565 S
C1102 H1114 0.956 . S
C1102 H1115 0.961 . S
C1102 H1116 0.961 . S
C1103 C1100 1.539 . S
C1103 H1117 0.958 . S
C1103 H1118 0.961 . S
C1103 H1119 0.960 . S
H1104 C1088 0.931 . S
H1105 C1093 0.929 . S
H1106 C1094 0.960 . S
H1107 C1094 0.962 1_556 S
H1108 C1094 0.960 . S
H1109 C1095 0.961 . S
H1110 C1095 0.961 . S
H1111 C1095 0.961 . S
H1112 C1096 0.931 . S
H1113 C1101 0.930 . S
H1114 C1102 0.956 . S
H1115 C1102 0.961 . S
H1116 C1102 0.961 . S
H1117 C1103 0.958 . S
H1118 C1103 0.961 . S
H1119 C1103 0.960 . S
C1120 C1121 1.391 . S
C1120 C1122 1.394 . S
C1120 H1136 0.931 . S
C1121 C1120 1.391 . S
C1121 C1125 1.376 . S
C1122 C1120 1.394 . S
C1122 C1123 1.369 . S
C1122 C1126 1.531 . S
C1123 C1122 1.369 . S
C1123 C1124 1.410 . S
C1123 C1131 1.503 . S
C1124 C1123 1.410 . S
C1124 C1125 1.392 . S
C1124 C1127 1.511 . S
C1125 C1121 1.376 . S
C1125 C1124 1.392 . S
C1125 H1137 0.929 . S
C1126 C1122 1.531 . S
C1126 H1138 0.960 . S
C1126 H1139 0.962 . S
C1126 H1140 0.960 . S
C1127 C1124 1.511 . S
C1127 H1141 0.961 . S
C1127 H1142 0.961 . S
C1127 H1143 0.961 . S
C1128 C1129 1.370 . S
C1128 C1130 1.363 . S
C1128 H1144 0.931 . S
C1129 C1128 1.370 . S
C1129 C1133 1.408 . S
C1130 C1128 1.363 . S
C1130 C1131 1.370 . S
C1130 C1134 1.524 . S
C1131 C1123 1.503 . S
C1131 C1130 1.370 . S
C1131 C1132 1.403 . S
C1132 C1131 1.403 . S
C1132 C1133 1.404 . S
C1132 C1135 1.539 . S
C1133 C1129 1.408 . S
C1133 C1132 1.404 . S
C1133 H1145 0.930 . S
C1134 C1130 1.524 . S
C1134 H1146 0.956 . S
C1134 H1147 0.961 . S
C1134 H1148 0.961 . S
C1135 C1132 1.539 . S
C1135 H1149 0.958 . S
C1135 H1150 0.961 . S
C1135 H1151 0.960 . S
H1136 C1120 0.931 . S
H1137 C1125 0.929 . S
H1138 C1126 0.960 . S
H1139 C1126 0.962 . S
H1140 C1126 0.960 . S
H1141 C1127 0.961 . S
H1142 C1127 0.961 . S
H1143 C1127 0.961 . S
H1144 C1128 0.931 . S
H1145 C1133 0.930 . S
H1146 C1134 0.956 . S
H1147 C1134 0.961 . S
H1148 C1134 0.961 . S
H1149 C1135 0.958 . S
H1150 C1135 0.961 . S
H1151 C1135 0.960 . S
C1152 C1153 1.391 . S
C1152 C1154 1.394 . S
C1152 H1168 0.931 . S
C1153 C1152 1.391 . S
C1153 C1157 1.376 . S
C1154 C1152 1.394 . S
C1154 C1155 1.369 . S
C1154 C1158 1.531 . S
C1155 C1154 1.369 . S
C1155 C1156 1.410 . S
C1155 C1163 1.503 . S
C1156 C1155 1.410 . S
C1156 C1157 1.392 . S
C1156 C1159 1.511 . S
C1157 C1153 1.376 . S
C1157 C1156 1.392 . S
C1157 H1169 0.929 . S
C1158 C1154 1.531 . S
C1158 H1170 0.960 . S
C1158 H1171 0.962 . S
C1158 H1172 0.960 . S
C1159 C1156 1.511 . S
C1159 H1173 0.961 . S
C1159 H1174 0.961 . S
C1159 H1175 0.961 . S
C1160 C1161 1.370 . S
C1160 C1162 1.363 . S
C1160 H1176 0.931 . S
C1161 C1160 1.370 . S
C1161 C1165 1.408 . S
C1162 C1160 1.363 . S
C1162 C1163 1.370 . S
C1162 C1166 1.524 . S
C1163 C1155 1.503 . S
C1163 C1162 1.370 . S
C1163 C1164 1.403 . S
C1164 C1163 1.403 . S
C1164 C1165 1.404 . S
C1164 C1167 1.539 . S
C1165 C1161 1.408 . S
C1165 C1164 1.404 . S
C1165 H1177 0.930 . S
C1166 C1162 1.524 . S
C1166 H1178 0.956 . S
C1166 H1179 0.961 . S
C1166 H1180 0.961 . S
C1167 C1164 1.539 . S
C1167 H1181 0.958 . S
C1167 H1182 0.961 . S
C1167 H1183 0.960 . S
H1168 C1152 0.931 . S
H1169 C1157 0.929 . S
H1170 C1158 0.960 . S
H1171 C1158 0.962 . S
H1172 C1158 0.960 . S
H1173 C1159 0.961 . S
H1174 C1159 0.961 . S
H1175 C1159 0.961 . S
H1176 C1160 0.931 . S
H1177 C1165 0.930 . S
H1178 C1166 0.956 . S
H1179 C1166 0.961 . S
H1180 C1166 0.961 . S
H1181 C1167 0.958 . S
H1182 C1167 0.961 . S
H1183 C1167 0.960 . S
C1184 C1185 1.391 . S
C1184 C1186 1.394 . S
C1184 H1200 0.931 . S
C1185 C1184 1.391 . S
C1185 C1189 1.376 . S
C1186 C1184 1.394 . S
C1186 C1187 1.369 . S
C1186 C1190 1.531 . S
C1187 C1186 1.369 . S
C1187 C1188 1.410 . S
C1187 C1195 1.503 1_545 S
C1188 C1187 1.410 . S
C1188 C1189 1.392 . S
C1188 C1191 1.511 1_545 S
C1189 C1185 1.376 . S
C1189 C1188 1.392 . S
C1189 H1201 0.929 . S
C1190 C1186 1.531 . S
C1190 H1202 0.960 . S
C1190 H1203 0.962 . S
C1190 H1204 0.960 . S
C1191 C1188 1.511 1_565 S
C1191 H1205 0.961 . S
C1191 H1206 0.961 . S
C1191 H1207 0.961 . S
C1192 C1193 1.370 . S
C1192 C1194 1.363 . S
C1192 H1208 0.931 . S
C1193 C1192 1.370 . S
C1193 C1197 1.408 . S
C1194 C1192 1.363 . S
C1194 C1195 1.370 . S
C1194 C1198 1.510 1_565 S
C1195 C1187 1.503 1_565 S
C1195 C1194 1.370 . S
C1195 C1196 1.403 . S
C1196 C1195 1.403 . S
C1196 C1197 1.404 . S
C1196 C1199 1.539 . S
C1197 C1193 1.408 . S
C1197 C1196 1.404 . S
C1197 H1209 0.930 . S
C1198 C1194 1.510 1_545 S
C1198 H1210 0.976 . S
C1198 H1211 0.964 . S
C1198 H1212 0.952 1_545 S
C1199 C1196 1.539 . S
C1199 H1213 0.958 . S
C1199 H1214 0.961 . S
C1199 H1215 0.960 . S
H1200 C1184 0.931 . S
H1201 C1189 0.929 . S
H1202 C1190 0.960 . S
H1203 C1190 0.962 . S
H1204 C1190 0.960 . S
H1205 C1191 0.961 . S
H1206 C1191 0.961 . S
H1207 C1191 0.961 . S
H1208 C1192 0.931 . S
H1209 C1197 0.930 . S
H1210 C1198 0.976 . S
H1211 C1198 0.964 . S
H1212 C1198 0.952 1_565 S
H1213 C1199 0.958 . S
H1214 C1199 0.961 . S
H1215 C1199 0.960 . S
C1216 C1217 1.391 . S
C1216 C1218 1.394 . S
C1216 H1232 0.931 . S
C1217 C1216 1.391 . S
C1217 C1221 1.376 . S
C1218 C1216 1.394 . S
C1218 C1219 1.369 . S
C1218 C1222 1.531 1_655 S
C1219 C1218 1.369 . S
C1219 C1220 1.410 . S
C1219 C1227 1.503 1_655 S
C1220 C1219 1.410 . S
C1220 C1221 1.392 . S
C1220 C1223 1.511 . S
C1221 C1217 1.376 . S
C1221 C1220 1.392 . S
C1221 H1233 0.929 . S
C1222 C1218 1.531 1_455 S
C1222 H1234 0.960 . S
C1222 H1235 0.962 . S
C1222 H1236 0.960 . S
C1223 C1220 1.511 . S
C1223 H1237 0.961 . S
C1223 H1238 0.961 . S
C1223 H1239 0.961 . S
C1224 C1225 1.370 . S
C1224 C1226 1.363 . S
C1224 H1240 0.931 . S
C1225 C1224 1.370 . S
C1225 C1229 1.408 . S
C1226 C1224 1.363 . S
C1226 C1227 1.370 . S
C1226 C1230 1.524 1_455 S
C1227 C1219 1.503 1_455 S
C1227 C1226 1.370 . S
C1227 C1228 1.403 . S
C1228 C1227 1.403 . S
C1228 C1229 1.404 . S
C1228 C1231 1.539 . S
C1229 C1225 1.408 . S
C1229 C1228 1.404 . S
C1229 H1241 0.930 . S
C1230 C1226 1.524 1_655 S
C1230 H1242 0.956 . S
C1230 H1243 0.961 . S
C1230 H1244 0.958 1_655 S
C1231 C1228 1.539 . S
C1231 H1245 0.958 . S
C1231 H1246 0.961 . S
C1231 H1247 0.960 . S
H1232 C1216 0.931 . S
H1233 C1221 0.929 . S
H1234 C1222 0.960 . S
H1235 C1222 0.962 . S
H1236 C1222 0.960 . S
H1237 C1223 0.961 . S
H1238 C1223 0.961 . S
H1239 C1223 0.961 . S
H1240 C1224 0.931 . S
H1241 C1229 0.930 . S
H1242 C1230 0.956 . S
H1243 C1230 0.961 . S
H1244 C1230 0.958 1_455 S
H1245 C1231 0.958 . S
H1246 C1231 0.961 . S
H1247 C1231 0.960 . S
C225 C3 1.156 . S
C233 C163 1.161 . S
C257 C121 1.141 . S
C265 C17 1.167 . S
C289 C135 1.190 . S
C297 C31 1.166 . S
C321 C149 1.185 . S
C329 C45 1.159 . S
C353 C79 1.162 1_545 S
C361 C59 1.155 . S
C385 C73 1.130 . S
C393 C93 1.164 1_455 S
C417 C87 1.157 . S
C425 C107 1.161 1_565 S
C449 C101 1.198 . S
C457 C65 1.176 1_655 S
C481 C115 1.181 . S
C489 C51 1.185 1_565 S
C513 C9 1.142 1_655 S
C521 C129 1.168 . S
C545 C23 1.192 1_545 S
C553 C143 1.182 . S
C577 C37 1.153 1_455 S
C585 C157 1.175 . S
C609 C191 1.178 . S
C617 C171 1.160 . S
C641 C185 1.169 . S
C649 C205 1.185 . S
C673 C219 1.142 . S
C681 C199 1.153 . S
C705 C177 1.166 . S
C713 C213 1.179 . S
C737 C204 1.593 . S
C745 C8 1.583 . S
C769 C218 1.588 . S
C777 C22 1.582 . S
C801 C176 1.577 . S
C809 C36 1.583 . S
C833 C50 1.572 . S
C841 C190 1.587 . S
C865 C64 1.579 . S
C873 C148 1.593 . S
C897 C162 1.585 . S
C905 C78 1.592 . S
C929 C92 1.581 . S
C937 C120 1.582 . S
C961 C106 1.581 . S
C969 C134 1.592 . S
C993 C35 1.202 . S
C1001 C7 1.222 . S
C1025 C49 1.230 . S
C1033 C21 1.208 . S
C1057 C63 1.184 . S
C1065 C91 1.223 . S
C1089 C77 1.187 . S
C1097 C105 1.222 . S
C1121 C147 1.239 . S
C1129 C119 1.207 . S
C1153 C133 1.233 . S
C1161 C161 1.191 . S
C1185 C203 1.202 . S
C1193 C175 1.193 . S
C1217 C189 1.207 . S
C1225 C217 1.195 . S
